# Generated by pormake.
# Topology wne, (6)-cn, num edge types: 1
# Building blocks:
#     Node 0, Type 0, BuildingBlock: VOLQOD_clean_sbu_1, # of connection points: 6
#     Node 1, Type 0, BuildingBlock: VOLQOD_clean_sbu_1, # of connection points: 6
#     Node 2, Type 0, BuildingBlock: VOLQOD_clean_sbu_1, # of connection points: 6
#     Node 3, Type 0, BuildingBlock: VOLQOD_clean_sbu_1, # of connection points: 6
#     Node 4, Type 0, BuildingBlock: VOLQOD_clean_sbu_1, # of connection points: 6
#     Node 5, Type 0, BuildingBlock: VOLQOD_clean_sbu_1, # of connection points: 6
#     Node 6, Type 0, BuildingBlock: VOLQOD_clean_sbu_1, # of connection points: 6
#     Node 7, Type 0, BuildingBlock: VOLQOD_clean_sbu_1, # of connection points: 6
#     Node 8, Type 0, BuildingBlock: VOLQOD_clean_sbu_1, # of connection points: 6
#     Node 9, Type 0, BuildingBlock: VOLQOD_clean_sbu_1, # of connection points: 6
#     Node 10, Type 0, BuildingBlock: VOLQOD_clean_sbu_1, # of connection points: 6
#     Node 11, Type 0, BuildingBlock: VOLQOD_clean_sbu_1, # of connection points: 6
#     Node 12, Type 0, BuildingBlock: VOLQOD_clean_sbu_1, # of connection points: 6
#     Node 13, Type 0, BuildingBlock: VOLQOD_clean_sbu_1, # of connection points: 6
#     Node 14, Type 0, BuildingBlock: VOLQOD_clean_sbu_1, # of connection points: 6
#     Node 15, Type 0, BuildingBlock: VOLQOD_clean_sbu_1, # of connection points: 6
#     Node 16, Type 0, BuildingBlock: VOLQOD_clean_sbu_1, # of connection points: 6
#     Node 17, Type 0, BuildingBlock: VOLQOD_clean_sbu_1, # of connection points: 6
#     Node 18, Type 0, BuildingBlock: VOLQOD_clean_sbu_1, # of connection points: 6
#     Node 19, Type 0, BuildingBlock: VOLQOD_clean_sbu_1, # of connection points: 6
#     Node 20, Type 0, BuildingBlock: VOLQOD_clean_sbu_1, # of connection points: 6
#     Node 21, Type 0, BuildingBlock: VOLQOD_clean_sbu_1, # of connection points: 6
#     Node 22, Type 0, BuildingBlock: VOLQOD_clean_sbu_1, # of connection points: 6
#     Node 23, Type 0, BuildingBlock: VOLQOD_clean_sbu_1, # of connection points: 6
#     Node 24, Type 0, BuildingBlock: VOLQOD_clean_sbu_1, # of connection points: 6
#     Node 25, Type 0, BuildingBlock: VOLQOD_clean_sbu_1, # of connection points: 6
#     Node 26, Type 0, BuildingBlock: VOLQOD_clean_sbu_1, # of connection points: 6
#     Node 27, Type 0, BuildingBlock: VOLQOD_clean_sbu_1, # of connection points: 6
#     Node 28, Type 0, BuildingBlock: VOLQOD_clean_sbu_1, # of connection points: 6
#     Node 29, Type 0, BuildingBlock: VOLQOD_clean_sbu_1, # of connection points: 6
#     Node 30, Type 0, BuildingBlock: VOLQOD_clean_sbu_1, # of connection points: 6
#     Node 31, Type 0, BuildingBlock: VOLQOD_clean_sbu_1, # of connection points: 6
#     Node 32, Type 0, BuildingBlock: VOLQOD_clean_sbu_1, # of connection points: 6
#     Node 33, Type 0, BuildingBlock: VOLQOD_clean_sbu_1, # of connection points: 6
#     Node 34, Type 0, BuildingBlock: VOLQOD_clean_sbu_1, # of connection points: 6
#     Node 35, Type 0, BuildingBlock: VOLQOD_clean_sbu_1, # of connection points: 6
#     Edge 36, Type (0, 0), BuildingBlock: OJICUG_clean_linker_0, # of connection points: 2
#     Edge 37, Type (0, 0), BuildingBlock: OJICUG_clean_linker_0, # of connection points: 2
#     Edge 38, Type (0, 0), BuildingBlock: OJICUG_clean_linker_0, # of connection points: 2
#     Edge 39, Type (0, 0), BuildingBlock: OJICUG_clean_linker_0, # of connection points: 2
#     Edge 40, Type (0, 0), BuildingBlock: OJICUG_clean_linker_0, # of connection points: 2
#     Edge 41, Type (0, 0), BuildingBlock: OJICUG_clean_linker_0, # of connection points: 2
#     Edge 42, Type (0, 0), BuildingBlock: OJICUG_clean_linker_0, # of connection points: 2
#     Edge 43, Type (0, 0), BuildingBlock: OJICUG_clean_linker_0, # of connection points: 2
#     Edge 44, Type (0, 0), BuildingBlock: OJICUG_clean_linker_0, # of connection points: 2
#     Edge 45, Type (0, 0), BuildingBlock: OJICUG_clean_linker_0, # of connection points: 2
#     Edge 46, Type (0, 0), BuildingBlock: OJICUG_clean_linker_0, # of connection points: 2
#     Edge 47, Type (0, 0), BuildingBlock: OJICUG_clean_linker_0, # of connection points: 2
#     Edge 48, Type (0, 0), BuildingBlock: OJICUG_clean_linker_0, # of connection points: 2
#     Edge 49, Type (0, 0), BuildingBlock: OJICUG_clean_linker_0, # of connection points: 2
#     Edge 50, Type (0, 0), BuildingBlock: OJICUG_clean_linker_0, # of connection points: 2
#     Edge 51, Type (0, 0), BuildingBlock: OJICUG_clean_linker_0, # of connection points: 2
#     Edge 52, Type (0, 0), BuildingBlock: OJICUG_clean_linker_0, # of connection points: 2
#     Edge 53, Type (0, 0), BuildingBlock: OJICUG_clean_linker_0, # of connection points: 2
#     Edge 54, Type (0, 0), BuildingBlock: OJICUG_clean_linker_0, # of connection points: 2
#     Edge 55, Type (0, 0), BuildingBlock: OJICUG_clean_linker_0, # of connection points: 2
#     Edge 56, Type (0, 0), BuildingBlock: OJICUG_clean_linker_0, # of connection points: 2
#     Edge 57, Type (0, 0), BuildingBlock: OJICUG_clean_linker_0, # of connection points: 2
#     Edge 58, Type (0, 0), BuildingBlock: OJICUG_clean_linker_0, # of connection points: 2
#     Edge 59, Type (0, 0), BuildingBlock: OJICUG_clean_linker_0, # of connection points: 2
#     Edge 60, Type (0, 0), BuildingBlock: OJICUG_clean_linker_0, # of connection points: 2
#     Edge 61, Type (0, 0), BuildingBlock: OJICUG_clean_linker_0, # of connection points: 2
#     Edge 62, Type (0, 0), BuildingBlock: OJICUG_clean_linker_0, # of connection points: 2
#     Edge 63, Type (0, 0), BuildingBlock: OJICUG_clean_linker_0, # of connection points: 2
#     Edge 64, Type (0, 0), BuildingBlock: OJICUG_clean_linker_0, # of connection points: 2
#     Edge 65, Type (0, 0), BuildingBlock: OJICUG_clean_linker_0, # of connection points: 2
#     Edge 66, Type (0, 0), BuildingBlock: OJICUG_clean_linker_0, # of connection points: 2
#     Edge 67, Type (0, 0), BuildingBlock: OJICUG_clean_linker_0, # of connection points: 2
#     Edge 68, Type (0, 0), BuildingBlock: OJICUG_clean_linker_0, # of connection points: 2
#     Edge 69, Type (0, 0), BuildingBlock: OJICUG_clean_linker_0, # of connection points: 2
#     Edge 70, Type (0, 0), BuildingBlock: OJICUG_clean_linker_0, # of connection points: 2
#     Edge 71, Type (0, 0), BuildingBlock: OJICUG_clean_linker_0, # of connection points: 2
#     Edge 72, Type (0, 0), BuildingBlock: OJICUG_clean_linker_0, # of connection points: 2
#     Edge 73, Type (0, 0), BuildingBlock: OJICUG_clean_linker_0, # of connection points: 2
#     Edge 74, Type (0, 0), BuildingBlock: OJICUG_clean_linker_0, # of connection points: 2
#     Edge 75, Type (0, 0), BuildingBlock: OJICUG_clean_linker_0, # of connection points: 2
#     Edge 76, Type (0, 0), BuildingBlock: OJICUG_clean_linker_0, # of connection points: 2
#     Edge 77, Type (0, 0), BuildingBlock: OJICUG_clean_linker_0, # of connection points: 2
#     Edge 78, Type (0, 0), BuildingBlock: OJICUG_clean_linker_0, # of connection points: 2
#     Edge 79, Type (0, 0), BuildingBlock: OJICUG_clean_linker_0, # of connection points: 2
#     Edge 80, Type (0, 0), BuildingBlock: OJICUG_clean_linker_0, # of connection points: 2
#     Edge 81, Type (0, 0), BuildingBlock: OJICUG_clean_linker_0, # of connection points: 2
#     Edge 82, Type (0, 0), BuildingBlock: OJICUG_clean_linker_0, # of connection points: 2
#     Edge 83, Type (0, 0), BuildingBlock: OJICUG_clean_linker_0, # of connection points: 2
#     Edge 84, Type (0, 0), BuildingBlock: OJICUG_clean_linker_0, # of connection points: 2
#     Edge 85, Type (0, 0), BuildingBlock: OJICUG_clean_linker_0, # of connection points: 2
#     Edge 86, Type (0, 0), BuildingBlock: OJICUG_clean_linker_0, # of connection points: 2
#     Edge 87, Type (0, 0), BuildingBlock: OJICUG_clean_linker_0, # of connection points: 2
#     Edge 88, Type (0, 0), BuildingBlock: OJICUG_clean_linker_0, # of connection points: 2
#     Edge 89, Type (0, 0), BuildingBlock: OJICUG_clean_linker_0, # of connection points: 2
#     Edge 90, Type (0, 0), BuildingBlock: OJICUG_clean_linker_0, # of connection points: 2
#     Edge 91, Type (0, 0), BuildingBlock: OJICUG_clean_linker_0, # of connection points: 2
#     Edge 92, Type (0, 0), BuildingBlock: OJICUG_clean_linker_0, # of connection points: 2
#     Edge 93, Type (0, 0), BuildingBlock: OJICUG_clean_linker_0, # of connection points: 2
#     Edge 94, Type (0, 0), BuildingBlock: OJICUG_clean_linker_0, # of connection points: 2
#     Edge 95, Type (0, 0), BuildingBlock: OJICUG_clean_linker_0, # of connection points: 2
#     Edge 96, Type (0, 0), BuildingBlock: OJICUG_clean_linker_0, # of connection points: 2
#     Edge 97, Type (0, 0), BuildingBlock: OJICUG_clean_linker_0, # of connection points: 2
#     Edge 98, Type (0, 0), BuildingBlock: OJICUG_clean_linker_0, # of connection points: 2
#     Edge 99, Type (0, 0), BuildingBlock: OJICUG_clean_linker_0, # of connection points: 2
#     Edge 100, Type (0, 0), BuildingBlock: OJICUG_clean_linker_0, # of connection points: 2
#     Edge 101, Type (0, 0), BuildingBlock: OJICUG_clean_linker_0, # of connection points: 2
#     Edge 102, Type (0, 0), BuildingBlock: OJICUG_clean_linker_0, # of connection points: 2
#     Edge 103, Type (0, 0), BuildingBlock: OJICUG_clean_linker_0, # of connection points: 2
#     Edge 104, Type (0, 0), BuildingBlock: OJICUG_clean_linker_0, # of connection points: 2
#     Edge 105, Type (0, 0), BuildingBlock: OJICUG_clean_linker_0, # of connection points: 2
#     Edge 106, Type (0, 0), BuildingBlock: OJICUG_clean_linker_0, # of connection points: 2
#     Edge 107, Type (0, 0), BuildingBlock: OJICUG_clean_linker_0, # of connection points: 2
#     Edge 108, Type (0, 0), BuildingBlock: OJICUG_clean_linker_0, # of connection points: 2
#     Edge 109, Type (0, 0), BuildingBlock: OJICUG_clean_linker_0, # of connection points: 2
#     Edge 110, Type (0, 0), BuildingBlock: OJICUG_clean_linker_0, # of connection points: 2
#     Edge 111, Type (0, 0), BuildingBlock: OJICUG_clean_linker_0, # of connection points: 2
#     Edge 112, Type (0, 0), BuildingBlock: OJICUG_clean_linker_0, # of connection points: 2
#     Edge 113, Type (0, 0), BuildingBlock: OJICUG_clean_linker_0, # of connection points: 2
#     Edge 114, Type (0, 0), BuildingBlock: OJICUG_clean_linker_0, # of connection points: 2
#     Edge 115, Type (0, 0), BuildingBlock: OJICUG_clean_linker_0, # of connection points: 2
#     Edge 116, Type (0, 0), BuildingBlock: OJICUG_clean_linker_0, # of connection points: 2
#     Edge 117, Type (0, 0), BuildingBlock: OJICUG_clean_linker_0, # of connection points: 2
#     Edge 118, Type (0, 0), BuildingBlock: OJICUG_clean_linker_0, # of connection points: 2
#     Edge 119, Type (0, 0), BuildingBlock: OJICUG_clean_linker_0, # of connection points: 2
#     Edge 120, Type (0, 0), BuildingBlock: OJICUG_clean_linker_0, # of connection points: 2
#     Edge 121, Type (0, 0), BuildingBlock: OJICUG_clean_linker_0, # of connection points: 2
#     Edge 122, Type (0, 0), BuildingBlock: OJICUG_clean_linker_0, # of connection points: 2
#     Edge 123, Type (0, 0), BuildingBlock: OJICUG_clean_linker_0, # of connection points: 2
#     Edge 124, Type (0, 0), BuildingBlock: OJICUG_clean_linker_0, # of connection points: 2
#     Edge 125, Type (0, 0), BuildingBlock: OJICUG_clean_linker_0, # of connection points: 2
#     Edge 126, Type (0, 0), BuildingBlock: OJICUG_clean_linker_0, # of connection points: 2
#     Edge 127, Type (0, 0), BuildingBlock: OJICUG_clean_linker_0, # of connection points: 2
#     Edge 128, Type (0, 0), BuildingBlock: OJICUG_clean_linker_0, # of connection points: 2
#     Edge 129, Type (0, 0), BuildingBlock: OJICUG_clean_linker_0, # of connection points: 2
#     Edge 130, Type (0, 0), BuildingBlock: OJICUG_clean_linker_0, # of connection points: 2
#     Edge 131, Type (0, 0), BuildingBlock: OJICUG_clean_linker_0, # of connection points: 2
#     Edge 132, Type (0, 0), BuildingBlock: OJICUG_clean_linker_0, # of connection points: 2
#     Edge 133, Type (0, 0), BuildingBlock: OJICUG_clean_linker_0, # of connection points: 2
#     Edge 134, Type (0, 0), BuildingBlock: OJICUG_clean_linker_0, # of connection points: 2
#     Edge 135, Type (0, 0), BuildingBlock: OJICUG_clean_linker_0, # of connection points: 2
#     Edge 136, Type (0, 0), BuildingBlock: OJICUG_clean_linker_0, # of connection points: 2
#     Edge 137, Type (0, 0), BuildingBlock: OJICUG_clean_linker_0, # of connection points: 2
#     Edge 138, Type (0, 0), BuildingBlock: OJICUG_clean_linker_0, # of connection points: 2
#     Edge 139, Type (0, 0), BuildingBlock: OJICUG_clean_linker_0, # of connection points: 2
#     Edge 140, Type (0, 0), BuildingBlock: OJICUG_clean_linker_0, # of connection points: 2
#     Edge 141, Type (0, 0), BuildingBlock: OJICUG_clean_linker_0, # of connection points: 2
#     Edge 142, Type (0, 0), BuildingBlock: OJICUG_clean_linker_0, # of connection points: 2
#     Edge 143, Type (0, 0), BuildingBlock: OJICUG_clean_linker_0, # of connection points: 2
# Relax obj value: 0.169
# Max RMSD: 0.144
# Mean RMSD: 0.144
data_MOF--net-wne--node1-VOLQOD_clean_sbu_1--edge1-OJICUG_clean_linker_0
_symmetry_space_group_name_H-M    P1
_symmetry_Int_Tables_number       1
_symmetry_cell_setting            triclinic
loop_
_symmetry_equiv_pos_as_xyz
'x, y, z'
_cell_length_a     53.350852
_cell_length_b     53.404387
_cell_length_c     33.249248
_cell_angle_alpha  89.958558
_cell_angle_beta   90.003764
_cell_angle_gamma 119.96105
loop_
_atom_site_label
_atom_site_type_symbol
_atom_site_fract_x
_atom_site_fract_y
_atom_site_fract_z
_atom_type_partial_charge
O0 O 0.26214 0.19427 0.02391 0.0
Zn1 Zn 0.24428 0.19139 0.07777 0.0
O2 O 0.2028 0.16629 0.07703 0.0
Zn3 Zn 0.19143 0.13431 0.11461 0.0
Zn4 Zn 0.19119 0.15303 0.02195 0.0
Zn5 Zn 0.18446 0.18762 0.09448 0.0
O6 O 0.17073 0.13762 0.16415 0.0
O7 O 0.16979 0.17792 0.15119 0.0
O8 O 0.26346 0.1773 0.11544 0.0
O9 O 0.22687 0.13529 0.13579 0.0
O10 O 0.16962 0.09604 0.08585 0.0
O11 O 0.17618 0.11045 0.02191 0.0
O12 O 0.15766 0.15834 1.00441 0.0
O13 O 0.25441 0.23167 0.09041 0.0
O14 O 0.15079 0.17774 0.05951 0.0
O15 O 0.21213 0.23031 0.09119 0.0
C16 C 0.25236 0.18674 0.98847 0.0
C17 C 0.16484 0.15709 0.17462 0.0
C18 C 0.16747 0.09048 0.04829 0.0
C19 C 0.25374 0.15375 0.13486 0.0
C20 C 0.1431 0.16703 0.02451 0.0
C21 C 0.23966 0.2444 0.09178 0.0
O22 O 0.22513 0.17188 0.98207 0.0
O23 O 0.73915 0.05352 0.02381 0.0
Zn24 Zn 0.74233 0.03878 0.07772 0.0
O25 O 0.7675 0.02246 0.0768 0.0
Zn26 Zn 0.79951 0.04315 0.11428 0.0
Zn27 Zn 0.78066 0.02406 0.02163 0.0
Zn28 Zn 0.74628 -0.01718 0.09431 0.0
O29 O 0.79636 0.01922 0.16379 0.0
O30 O 0.75621 -0.02212 0.15088 0.0
O31 O 0.75653 0.07219 0.1151 0.0
O32 O 0.7986 0.07766 0.1354 0.0
O33 O 0.83771 0.05949 0.08538 0.0
O34 O 0.82327 0.05161 0.02145 0.0
O35 O 0.77533 -0.01475 1.00402 0.0
O36 O 0.70213 0.00866 0.09092 0.0
O37 O 0.75603 0.959 0.05919 0.0
O38 O 0.70356 0.9678 0.09145 0.0
C39 C 0.74669 0.05133 0.98834 0.0
C40 C 0.77703 -0.00619 0.17425 0.0
C41 C 0.84325 0.06287 0.04781 0.0
C42 C 0.78012 0.08608 0.13442 0.0
C43 C 0.76667 0.96201 0.02411 0.0
C44 C 0.68944 -0.01878 0.09234 0.0
O45 O 0.76169 0.03912 0.98188 0.0
O46 O 0.87962 0.67123 0.02338 0.0
Zn47 Zn 0.89481 0.68911 0.07716 0.0
O48 O 0.91111 0.73054 0.07643 0.0
Zn49 Zn 0.8905 0.74186 0.11405 0.0
Zn50 Zn 0.90938 0.74211 0.02133 0.0
Zn51 Zn 0.95079 0.74893 0.09383 0.0
O52 O 0.91456 0.76267 0.16345 0.0
O53 O 0.95581 0.76357 0.15053 0.0
O54 O 0.86173 0.66992 0.11512 0.0
O55 O 0.85618 0.70643 0.13542 0.0
O56 O 0.87391 0.76359 0.08529 0.0
O57 O 0.88178 0.7571 0.02134 0.0
O58 O 0.94813 0.77565 1.00372 0.0
O59 O 0.92512 0.67909 0.08943 0.0
O60 O -0.02559 0.78263 0.05888 0.0
O61 O -0.03404 0.72137 0.09038 0.0
C62 C 0.88185 0.681 0.98792 0.0
C63 C 0.93994 0.76858 0.17391 0.0
C64 C 0.8705 0.76578 0.04774 0.0
C65 C 0.84787 0.6796 0.13459 0.0
C66 C -0.02867 0.79029 0.02386 0.0
C67 C 0.95259 0.69386 0.09078 0.0
O68 O 0.89427 0.7082 0.98147 0.0
O69 O 0.18118 0.2748 0.48843 0.0
Zn70 Zn 0.17855 0.25694 0.43468 0.0
O71 O 0.15345 0.21551 0.43541 0.0
Zn72 Zn 0.12156 0.20419 0.3977 0.0
Zn73 Zn 0.14009 0.20393 0.49049 0.0
Zn74 Zn 0.17481 0.19717 0.41807 0.0
O75 O 0.12495 0.18349 0.34828 0.0
O76 O 0.16527 0.18257 0.36133 0.0
O77 O 0.16465 0.27613 0.39672 0.0
O78 O 0.12261 0.23961 0.3764 0.0
O79 O 0.08322 0.18237 0.42633 0.0
O80 O 0.09748 0.18884 0.49033 0.0
O81 O 0.14539 0.17044 0.50817 0.0
O82 O 0.2189 0.26702 0.42248 0.0
O83 O 0.16474 0.16348 0.45306 0.0
O84 O 0.21753 0.22477 0.42162 0.0
C85 C 0.17358 0.26504 0.52389 0.0
C86 C 0.14445 0.17761 0.33787 0.0
C87 C 0.07756 0.18016 0.46387 0.0
C88 C 0.14111 0.26644 0.37725 0.0
C89 C 0.154 0.15583 0.48807 0.0
C90 C 0.23163 0.25228 0.4212 0.0
O91 O 0.15878 0.23785 0.53035 0.0
O92 O 0.65899 0.89246 0.48769 0.0
Zn93 Zn 0.67693 0.90753 0.43388 0.0
O94 O 0.71843 0.9239 0.43477 0.0
Zn95 Zn 0.72978 0.90333 0.39714 0.0
Zn96 Zn 0.72999 0.92219 0.48991 0.0
Zn97 Zn 0.73681 0.96359 0.41745 0.0
O98 O 0.75061 0.92742 0.34777 0.0
O99 O 0.75166 0.96868 0.36085 0.0
O100 O 0.65777 0.87435 0.39613 0.0
O101 O 0.69438 0.86891 0.37578 0.0
O102 O 0.7516 0.88688 0.42588 0.0
O103 O 0.74516 0.89473 0.48986 0.0
O104 O 0.76337 0.96101 0.50774 0.0
O105 O 0.66681 0.9377 0.42126 0.0
O106 O 0.77036 -0.01267 0.45263 0.0
O107 O 0.70907 -0.02143 0.42057 0.0
C108 C 0.66872 0.89457 0.52315 0.0
C109 C 0.75662 0.95283 0.3374 0.0
C110 C 0.75384 0.88348 0.46342 0.0
C111 C 0.6675 0.86052 0.37669 0.0
C112 C 0.77795 -0.01572 0.48771 0.0
C113 C 0.68154 0.96515 0.41992 0.0
O114 O 0.69594 0.90689 0.52963 0.0
O115 O 0.04104 0.75225 0.48782 0.0
Zn116 Zn 0.02602 0.7551 0.43397 0.0
O117 O 0.00965 0.78022 0.43471 0.0
Zn118 Zn 0.03027 0.8122 0.39712 0.0
Zn119 Zn 0.0113 0.79348 0.48979 0.0
Zn120 Zn -0.03002 0.75888 0.41725 0.0
O121 O 0.00626 0.80888 0.34757 0.0
O122 O -0.03498 0.76861 0.36057 0.0
O123 O 0.05926 0.76916 0.39628 0.0
O124 O 0.06472 0.81118 0.37594 0.0
O125 O 0.04677 0.85048 0.42588 0.0
O126 O 0.03884 0.83606 0.48982 0.0
O127 O -0.02756 0.7881 0.50737 0.0
O128 O -0.00413 0.71482 0.42135 0.0
O129 O 0.94618 0.76873 0.45225 0.0
O130 O 0.95495 0.71619 0.42049 0.0
C131 C 0.03883 0.75983 0.52325 0.0
C132 C -0.01911 0.78942 0.33712 0.0
C133 C 0.05014 0.85603 0.46345 0.0
C134 C 0.07312 0.79271 0.37687 0.0
C135 C 0.94919 0.77941 0.48727 0.0
C136 C -0.0316 0.7021 0.41993 0.0
O137 O 0.02647 0.77469 0.52965 0.0
O138 O 0.65875 0.75194 0.98744 0.0
Zn139 Zn 0.67668 0.7551 0.93354 0.0
O140 O 0.71816 0.78022 0.93444 0.0
Zn141 Zn 0.72958 0.81228 0.89697 0.0
Zn142 Zn 0.72971 0.79339 0.98957 0.0
Zn143 Zn 0.73651 0.75891 0.91697 0.0
O144 O 0.75028 0.80902 0.8474 0.0
O145 O 0.75136 0.7688 0.86039 0.0
O146 O 0.65757 0.76945 0.89618 0.0
O147 O 0.69418 0.81145 0.87588 0.0
O148 O 0.75144 0.85049 0.92585 0.0
O149 O 0.74479 0.83598 0.98975 0.0
O150 O 0.76313 0.78794 0.00722 0.0
O151 O 0.66653 0.7149 0.92028 0.0
O152 O 0.77004 0.76857 0.95212 0.0
O153 O 0.70879 0.71622 0.91982 0.0
C154 C 0.66849 0.75953 0.02289 0.0
C155 C 0.75628 0.78962 0.83697 0.0
C156 C 0.75355 0.85599 0.96343 0.0
C157 C 0.66729 0.79304 0.87687 0.0
C158 C 0.77768 0.77921 0.98717 0.0
C159 C 0.68126 0.70216 0.91887 0.0
O160 O 0.6957 0.77453 0.02931 0.0
O161 O 0.18119 0.89256 0.98799 0.0
Zn162 Zn 0.17815 0.90738 0.9341 0.0
O163 O 0.15304 0.92377 0.93498 0.0
Zn164 Zn 0.12108 0.90315 0.89741 0.0
Zn165 Zn 0.13981 0.92217 0.99012 0.0
Zn166 Zn 0.17435 0.96342 0.91755 0.0
O167 O 0.12437 0.92715 0.84791 0.0
O168 O 0.16453 0.96845 0.86097 0.0
O169 O 0.16394 0.874 0.89669 0.0
O170 O 0.12191 0.86859 0.87631 0.0
O171 O 0.08285 0.88691 0.92618 0.0
O172 O 0.09717 0.89475 0.99015 0.0
O173 O 0.14529 0.96103 0.00782 0.0
O174 O 0.21841 0.93745 0.92106 0.0
O175 O 0.16466 -0.01272 0.95267 0.0
O176 O 0.21705 -0.02166 0.92051 0.0
C177 C 0.17358 0.89469 0.02344 0.0
C178 C 0.14374 0.95256 0.83753 0.0
C179 C 0.07723 0.88355 0.96373 0.0
C180 C 0.14035 0.86013 0.87734 0.0
C181 C 0.15403 -0.01571 0.98774 0.0
C182 C 0.23114 0.9649 0.91968 0.0
O183 O 0.15861 0.90693 0.0299 0.0
O184 O 0.04083 0.2749 0.98825 0.0
Zn185 Zn 0.0261 0.25709 0.93432 0.0
O186 O 0.00975 0.21565 0.93511 0.0
Zn187 Zn 0.03042 0.20431 0.89761 0.0
Zn188 Zn 0.01133 0.20403 0.99024 0.0
Zn189 Zn -0.02988 0.19735 0.91755 0.0
O190 O 0.00651 0.18367 0.84802 0.0
O191 O -0.03481 0.18262 0.86094 0.0
O192 O 0.05955 0.27626 0.89699 0.0
O193 O 0.065 0.2397 0.87661 0.0
O194 O 0.04672 0.18236 0.92646 0.0
O195 O 0.03887 0.18895 0.99039 0.0
O196 O -0.02751 0.17054 0.00773 0.0
O197 O -0.004 0.26725 0.92117 0.0
O198 O 0.9463 0.16375 0.95255 0.0
O199 O 0.95509 0.22503 0.92058 0.0
C200 C 0.03862 0.26511 0.0237 0.0
C201 C -0.0189 0.1777 0.83755 0.0
C202 C 0.0501 0.18019 0.96403 0.0
C203 C 0.07345 0.26656 0.87766 0.0
C204 C 0.94928 0.15603 0.98757 0.0
C205 C -0.03147 0.25253 0.91975 0.0
O206 O 0.02637 0.23792 0.03011 0.0
O207 O 0.73895 0.67119 0.52354 0.0
Zn208 Zn 0.7419 0.68913 0.57735 0.0
O209 O 0.76705 0.73055 0.57647 0.0
Zn210 Zn 0.79903 0.74191 0.61403 0.0
Zn211 Zn 0.78031 0.74207 0.52133 0.0
Zn212 Zn 0.74576 0.74896 0.59386 0.0
O213 O 0.79581 0.76272 0.66343 0.0
O214 O 0.75555 0.76378 0.65045 0.0
O215 O 0.75601 0.66998 0.61502 0.0
O216 O 0.79807 0.70652 0.63531 0.0
O217 O 0.8373 0.76373 0.58524 0.0
O218 O 0.82293 0.75716 0.52129 0.0
O219 O 0.775 0.77554 0.50361 0.0
O220 O 0.70164 0.67909 0.5902 0.0
O221 O 0.75568 0.78254 0.55872 0.0
O222 O 0.70303 0.72135 0.59078 0.0
C223 C 0.74658 0.68092 0.48808 0.0
C224 C 0.7764 0.76875 0.67384 0.0
C225 C 0.84289 0.76591 0.54768 0.0
C226 C 0.77959 0.67967 0.63442 0.0
C227 C 0.76638 0.79016 0.52368 0.0
C228 C 0.68892 0.69385 0.59156 0.0
O229 O 0.76152 0.7081 0.4816 0.0
O230 O 0.26193 0.05376 0.52409 0.0
Zn231 Zn 0.24404 0.03886 0.57795 0.0
O232 O 0.20254 0.0225 0.57706 0.0
Zn233 Zn 0.19123 0.04314 0.61466 0.0
Zn234 Zn 0.19094 0.02417 0.52192 0.0
Zn235 Zn 0.18416 -0.01717 0.59443 0.0
O236 O 0.17046 0.01911 0.66409 0.0
O237 O 0.16927 -0.02222 0.651 0.0
O238 O 0.26323 0.07216 0.61548 0.0
O239 O 0.22665 0.07764 0.63585 0.0
O240 O 0.1693 0.05946 0.58591 0.0
O241 O 0.17571 0.05158 0.52193 0.0
O242 O 0.15757 -0.01467 0.50414 0.0
O243 O 0.25417 0.00873 0.59087 0.0
O244 O 0.15062 0.95903 0.55926 0.0
O245 O 0.21191 0.96786 0.59148 0.0
C246 C 0.25219 0.05167 0.48864 0.0
C247 C 0.16437 -0.00633 0.67445 0.0
C248 C 0.167 0.0628 0.54836 0.0
C249 C 0.25353 0.08604 0.63486 0.0
C250 C 0.14301 0.96206 0.52418 0.0
C251 C 0.23944 -0.01871 0.59226 0.0
O252 O 0.22498 0.03944 0.48218 0.0
O253 O 0.8796 0.19425 0.52409 0.0
Zn254 Zn 0.89471 0.19142 0.57789 0.0
O255 O 0.91105 0.16628 0.57706 0.0
Zn256 Zn 0.89048 0.13432 0.61471 0.0
Zn257 Zn 0.9093 0.15297 0.52198 0.0
Zn258 Zn 0.95076 0.18761 0.59437 0.0
O259 O 0.91461 0.13762 0.6641 0.0
O260 O 0.95584 0.17787 0.65099 0.0
O261 O 0.86153 0.17739 0.61569 0.0
O262 O 0.85608 0.13537 0.63607 0.0
O263 O 0.87395 0.09603 0.58599 0.0
O264 O 0.88183 0.11038 0.52203 0.0
O265 O 0.94813 0.15836 0.5042 0.0
O266 O 0.92489 0.2317 0.59049 0.0
O267 O -0.02552 0.17774 0.55924 0.0
O268 O -0.0342 0.23031 0.59119 0.0
C269 C 0.88169 0.18659 0.48866 0.0
C270 C 0.94001 0.15705 0.67445 0.0
C271 C 0.87057 0.09044 0.54844 0.0
C272 C 0.8477 0.15386 0.63517 0.0
C273 C -0.02859 0.16704 0.52422 0.0
C274 C 0.95237 0.24441 0.59186 0.0
O275 O 0.89401 0.17169 0.48222 0.0
O276 O 0.92897 0.52795 0.35691 0.0
Zn277 Zn 0.911 0.5248 0.41078 0.0
O278 O 0.86953 0.49962 0.40985 0.0
Zn279 Zn 0.85816 0.46761 0.44739 0.0
Zn280 Zn 0.85804 0.48637 0.35474 0.0
Zn281 Zn 0.85108 0.52085 0.42723 0.0
O282 O 0.83734 0.47081 0.49685 0.0
O283 O 0.83625 0.51102 0.48384 0.0
O284 O 0.93017 0.51061 0.44829 0.0
O285 O 0.89359 0.46859 0.46862 0.0
O286 O 0.83639 0.42938 0.41859 0.0
O287 O 0.8431 0.44381 0.35465 0.0
O288 O 0.82447 0.49158 0.33707 0.0
O289 O 0.92101 0.56499 0.42386 0.0
O290 O 0.81747 0.51094 0.39212 0.0
O291 O 0.87869 0.56357 0.42418 0.0
C292 C 0.91925 0.52037 0.32145 0.0
C293 C 0.83132 0.4902 0.50726 0.0
C294 C 0.83434 0.42383 0.38103 0.0
C295 C 0.92046 0.48704 0.46768 0.0
C296 C 0.80984 0.50021 0.35711 0.0
C297 C 0.90622 0.57768 0.42515 0.0
O298 O 0.89205 0.50534 0.31499 0.0
O299 O 0.40561 0.38665 0.35764 0.0
Zn300 Zn 0.40893 0.37201 0.41157 0.0
O301 O 0.43418 0.35577 0.41062 0.0
Zn302 Zn 0.46624 0.37655 0.44803 0.0
Zn303 Zn 0.44729 0.35736 0.35542 0.0
Zn304 Zn 0.41302 0.31613 0.42814 0.0
O305 O 0.46321 0.35261 0.49751 0.0
O306 O 0.4231 0.31123 0.4846 0.0
O307 O 0.42313 0.40545 0.44885 0.0
O308 O 0.46522 0.41101 0.46921 0.0
O309 O 0.50443 0.393 0.41899 0.0
O310 O 0.48987 0.38494 0.35512 0.0
O311 O 0.44198 0.31856 0.33778 0.0
O312 O 0.36879 0.34186 0.42504 0.0
O313 O 0.42272 0.29232 0.39296 0.0
O314 O 0.37027 0.30104 0.42556 0.0
C315 C 0.4132 0.38451 0.32217 0.0
C316 C 0.44394 0.32716 0.50795 0.0
C317 C 0.50991 0.3963 0.38139 0.0
C318 C 0.44671 0.41937 0.46819 0.0
C319 C 0.43333 0.29533 0.35787 0.0
C320 C 0.35613 0.31443 0.42658 0.0
O321 O 0.42828 0.37239 0.31572 0.0
O322 O 0.54661 0.00462 0.35749 0.0
Zn323 Zn 0.56153 0.0226 0.41132 0.0
O324 O 0.57783 0.06404 0.41037 0.0
Zn325 Zn 0.5572 0.07542 0.4479 0.0
Zn326 Zn 0.57608 0.07552 0.35521 0.0
Zn327 Zn 0.61752 0.08247 0.42775 0.0
O328 O 0.58123 0.09627 0.49727 0.0
O329 O 0.62256 0.09735 0.48432 0.0
O330 O 0.52823 0.00348 0.44894 0.0
O331 O 0.52277 0.04005 0.46924 0.0
O332 O 0.54073 0.0972 0.41906 0.0
O333 O 0.54852 0.09059 0.35512 0.0
O334 O 0.61486 0.10896 0.33743 0.0
O335 O 0.59175 0.01258 0.42431 0.0
O336 O 0.64121 0.116 0.39253 0.0
O337 O 0.63262 0.05484 0.42477 0.0
C338 C 0.54872 0.01434 0.32202 0.0
C339 C 0.60666 0.10231 0.50769 0.0
C340 C 0.5373 0.09934 0.3815 0.0
C341 C 0.51438 0.01319 0.46834 0.0
C342 C 0.63812 0.12358 0.35746 0.0
C343 C 0.61922 0.02733 0.42564 0.0
O344 O 0.56092 0.04152 0.31552 0.0
O345 O 0.84802 0.60802 0.82073 0.0
Zn346 Zn 0.84498 0.59009 0.76689 0.0
O347 O 0.81987 0.54865 0.7678 0.0
Zn348 Zn 0.78789 0.53728 0.7302 0.0
Zn349 Zn 0.80658 0.53714 0.82292 0.0
Zn350 Zn 0.8412 0.53028 0.75048 0.0
O351 O 0.79123 0.51657 0.68075 0.0
O352 O 0.83146 0.51549 0.69386 0.0
O353 O 0.83079 0.60921 0.72933 0.0
O354 O 0.78878 0.57266 0.70896 0.0
O355 O 0.7496 0.51542 0.75894 0.0
O356 O 0.76396 0.52205 0.8229 0.0
O357 O 0.81195 0.50372 0.84071 0.0
O358 O 0.88523 0.60018 0.75389 0.0
O359 O 0.83135 0.49673 0.78567 0.0
O360 O 0.88393 0.55795 0.75357 0.0
C361 C 0.84037 0.59829 0.85619 0.0
C362 C 0.81066 0.51057 0.67039 0.0
C363 C 0.744 0.51328 0.79649 0.0
C364 C 0.80722 0.59951 0.70993 0.0
C365 C 0.82064 0.48913 0.82071 0.0
C366 C 0.89799 0.58546 0.75264 0.0
O367 O 0.82537 0.57111 0.86266 0.0
O368 O 0.3254 0.22606 0.82115 0.0
Zn369 Zn 0.34335 0.24089 0.76727 0.0
O370 O 0.38484 0.25717 0.76819 0.0
Zn371 Zn 0.39616 0.23649 0.73068 0.0
Zn372 Zn 0.39638 0.25551 0.82336 0.0
Zn373 Zn 0.40329 0.29683 0.75077 0.0
O374 O 0.41715 0.26054 0.68132 0.0
O375 O 0.41828 0.30185 0.69429 0.0
O376 O 0.32415 0.20757 0.72976 0.0
O377 O 0.36072 0.2021 0.70933 0.0
O378 O 0.41787 0.21996 0.7596 0.0
O379 O 0.41143 0.22795 0.82352 0.0
O380 O 0.42983 0.29431 0.84111 0.0
O381 O 0.33332 0.27108 0.75416 0.0
O382 O 0.43679 0.32058 0.78597 0.0
O383 O 0.37562 0.3119 0.75354 0.0
C384 C 0.33513 0.22818 0.85661 0.0
C385 C 0.42327 0.28598 0.67093 0.0
C386 C 0.42007 0.21661 0.79717 0.0
C387 C 0.33384 0.19371 0.71032 0.0
C388 C 0.4444 0.31756 0.82104 0.0
C389 C 0.34809 0.29852 0.75268 0.0
O390 O 0.36234 0.24037 0.86306 0.0
O391 O 0.70721 0.0851 0.82119 0.0
Zn392 Zn 0.69252 0.0884 0.7673 0.0
O393 O 0.67624 0.11359 0.76829 0.0
Zn394 Zn 0.69693 0.14565 0.73085 0.0
Zn395 Zn 0.67792 0.12675 0.82345 0.0
Zn396 Zn 0.63657 0.09238 0.75082 0.0
O397 O 0.673 0.14247 0.68128 0.0
O398 O 0.63165 0.10232 0.69426 0.0
O399 O 0.726 0.10271 0.72999 0.0
O400 O 0.73147 0.14476 0.70975 0.0
O401 O 0.7133 0.18384 0.75974 0.0
O402 O 0.7055 0.16932 0.82365 0.0
O403 O 0.63908 0.12141 0.84111 0.0
O404 O 0.66241 0.04827 0.75387 0.0
O405 O 0.61278 0.10213 0.78599 0.0
O406 O 0.6215 0.04966 0.75361 0.0
C407 C 0.70511 0.0927 0.85666 0.0
C408 C 0.64758 0.12313 0.67084 0.0
C409 C 0.71674 0.18933 0.79732 0.0
C410 C 0.73991 0.12632 0.71071 0.0
C411 C 0.61582 0.11276 0.82105 0.0
C412 C 0.63494 0.03557 0.7525 0.0
O413 O 0.69299 0.10777 0.86314 0.0
O414 O 0.32534 0.08548 0.32148 0.0
Zn415 Zn 0.34326 0.0884 0.26766 0.0
O416 O 0.38474 0.11349 0.26851 0.0
Zn417 Zn 0.39615 0.14549 0.23096 0.0
Zn418 Zn 0.39631 0.12671 0.32362 0.0
Zn419 Zn 0.40307 0.09216 0.25107 0.0
O420 O 0.41688 0.14221 0.18146 0.0
O421 O 0.41783 0.10192 0.19444 0.0
O422 O 0.32414 0.10256 0.23001 0.0
O423 O 0.36075 0.14458 0.20975 0.0
O424 O 0.41798 0.18372 0.25975 0.0
O425 O 0.4114 0.1693 0.32369 0.0
O426 O 0.42978 0.1213 0.34124 0.0
O427 O 0.33311 0.04813 0.25488 0.0
O428 O 0.43667 0.10195 0.28611 0.0
O429 O 0.37539 0.04948 0.25421 0.0
C430 C 0.33509 0.09304 0.35694 0.0
C431 C 0.4228 0.12275 0.17101 0.0
C432 C 0.42013 0.18927 0.29731 0.0
C433 C 0.33387 0.12613 0.21064 0.0
C434 C 0.44434 0.11261 0.32114 0.0
C435 C 0.34786 0.0354 0.2535 0.0
O436 O 0.3623 0.1079 0.3634 0.0
O437 O 0.84769 0.22552 0.32134 0.0
Zn438 Zn 0.84498 0.24061 0.26748 0.0
O439 O 0.81989 0.25703 0.2682 0.0
Zn440 Zn 0.78796 0.23644 0.23055 0.0
Zn441 Zn 0.8066 0.25545 0.3233 0.0
Zn442 Zn 0.84126 0.29667 0.25076 0.0
O443 O 0.7912 0.26056 0.18119 0.0
O444 O 0.83152 0.30173 0.19417 0.0
O445 O 0.831 0.20745 0.22971 0.0
O446 O 0.78901 0.20206 0.20918 0.0
O447 O 0.74967 0.21995 0.25932 0.0
O448 O 0.76398 0.22799 0.32329 0.0
O449 O 0.81204 0.29431 0.3409 0.0
O450 O 0.88534 0.27074 0.25505 0.0
O451 O 0.83151 0.32052 0.28576 0.0
O452 O 0.88396 0.31161 0.25398 0.0
C453 C 0.84014 0.22778 0.35677 0.0
C454 C 0.81065 0.28593 0.17078 0.0
C455 C 0.74405 0.21665 0.29687 0.0
C456 C 0.8075 0.19366 0.21015 0.0
C457 C 0.82082 0.31756 0.32078 0.0
C458 C 0.89807 0.29818 0.25358 0.0
O459 O 0.82535 0.24022 0.36316 0.0
O460 O 0.70772 0.60796 0.32092 0.0
Zn461 Zn 0.69289 0.59013 0.26704 0.0
O462 O 0.67646 0.54868 0.26787 0.0
Zn463 Zn 0.69707 0.53729 0.23032 0.0
Zn464 Zn 0.67807 0.53707 0.323 0.0
Zn465 Zn 0.6368 0.53044 0.2504 0.0
O466 O 0.67312 0.51673 0.18076 0.0
O467 O 0.63182 0.51572 0.19376 0.0
O468 O 0.72628 0.60922 0.22961 0.0
O469 O 0.73168 0.57263 0.20927 0.0
O470 O 0.7133 0.51528 0.25911 0.0
O471 O 0.70553 0.52189 0.32306 0.0
O472 O 0.6392 0.50368 0.34059 0.0
O473 O 0.66284 0.60038 0.25401 0.0
O474 O 0.61294 0.49686 0.28547 0.0
O475 O 0.62188 0.5582 0.2535 0.0
C476 C 0.7055 0.59819 0.35638 0.0
C477 C 0.64773 0.51081 0.17032 0.0
C478 C 0.71671 0.51309 0.29667 0.0
C479 C 0.74015 0.5995 0.21028 0.0
C480 C 0.61594 0.48919 0.32052 0.0
C481 C 0.63537 0.58571 0.25268 0.0
O482 O 0.69321 0.571 0.36282 0.0
O483 O 0.40585 0.00459 0.85743 0.0
Zn484 Zn 0.4087 0.02248 0.91125 0.0
O485 O 0.43377 0.06392 0.91043 0.0
Zn486 Zn 0.46576 0.07532 0.948 0.0
Zn487 Zn 0.44701 0.07551 0.85531 0.0
Zn488 Zn 0.4124 0.08223 0.92786 0.0
O489 O 0.46248 0.09608 0.99741 0.0
O490 O 0.42214 0.09701 0.98448 0.0
O491 O 0.42284 0.00338 0.94897 0.0
O492 O 0.46485 0.03996 0.96929 0.0
O493 O 0.50402 0.09717 0.9192 0.0
O494 O 0.48964 0.09065 0.85525 0.0
O495 O 0.44159 0.10892 0.83764 0.0
O496 O 0.36838 0.01232 0.92395 0.0
O497 O 0.42221 0.11581 0.89277 0.0
O498 O 0.3697 0.05455 0.92471 0.0
C499 C 0.41342 0.01436 0.82197 0.0
C500 C 0.44302 0.10201 0.00786 0.0
C501 C 0.50961 0.09938 0.88164 0.0
C502 C 0.4464 0.0131 0.96839 0.0
C503 C 0.43289 0.12347 0.85773 0.0
C504 C 0.35563 0.02704 0.92534 0.0
O505 O 0.42826 0.04156 0.81552 0.0
O506 O 0.9286 0.38734 0.85721 0.0
Zn507 Zn 0.91078 0.37232 0.91106 0.0
O508 O 0.86929 0.35596 0.91032 0.0
Zn509 Zn 0.85801 0.37662 0.94792 0.0
Zn510 Zn 0.85761 0.35752 0.8552 0.0
Zn511 Zn 0.85098 0.31631 0.92779 0.0
O512 O 0.8372 0.35258 0.99737 0.0
O513 O 0.83619 0.31132 0.98438 0.0
O514 O 0.93 0.40552 0.94873 0.0
O515 O 0.89347 0.41104 0.96918 0.0
O516 O 0.83616 0.39305 0.91911 0.0
O517 O 0.84242 0.38496 0.85516 0.0
O518 O 0.82418 0.31867 0.83761 0.0
O519 O 0.92097 0.3422 0.92368 0.0
O520 O 0.81738 0.29247 0.89279 0.0
O521 O 0.87872 0.30133 0.9247 0.0
C522 C 0.91881 0.38513 0.82176 0.0
C523 C 0.83121 0.32718 0.00778 0.0
C524 C 0.83381 0.3963 0.88155 0.0
C525 C 0.92034 0.41938 0.9682 0.0
C526 C 0.80968 0.29544 0.85775 0.0
C527 C 0.90625 0.31476 0.9252 0.0
O528 O 0.89159 0.37274 0.81535 0.0
O529 O 0.54598 0.52739 0.85696 0.0
Zn530 Zn 0.56125 0.5247 0.91069 0.0
O531 O 0.57763 0.4996 0.90983 0.0
Zn532 Zn 0.55714 0.46768 0.94751 0.0
Zn533 Zn 0.57583 0.48626 0.85475 0.0
Zn534 Zn 0.61735 0.52095 0.92706 0.0
O535 O 0.58132 0.47099 0.99681 0.0
O536 O 0.62249 0.51131 0.98373 0.0
O537 O 0.52818 0.51073 0.9487 0.0
O538 O 0.52279 0.46872 0.96901 0.0
O539 O 0.54059 0.42938 0.91887 0.0
O540 O 0.54835 0.44367 0.85487 0.0
O541 O 0.61464 0.49161 0.83694 0.0
O542 O 0.59146 0.56503 0.92297 0.0
O543 O 0.64102 0.51101 0.89195 0.0
O544 O 0.63237 0.56364 0.92367 0.0
C545 C 0.54811 0.5198 0.82151 0.0
C546 C 0.6067 0.49047 0.00718 0.0
C547 C 0.53714 0.42375 0.88134 0.0
C548 C 0.51441 0.48721 0.96821 0.0
C549 C 0.63793 0.50028 0.85695 0.0
C550 C 0.61894 0.57774 0.92422 0.0
O551 O 0.56051 0.50498 0.81502 0.0
O552 O 0.59553 0.86086 0.69025 0.0
Zn553 Zn 0.57761 0.85816 0.74401 0.0
O554 O 0.53614 0.83302 0.74324 0.0
Zn555 Zn 0.52479 0.8011 0.78089 0.0
Zn556 Zn 0.52457 0.81971 0.68816 0.0
Zn557 Zn 0.51775 0.85433 0.76059 0.0
O558 O 0.50404 0.80443 0.83036 0.0
O559 O 0.50309 0.8447 0.81732 0.0
O560 O 0.59679 0.84424 0.78194 0.0
O561 O 0.56025 0.80217 0.80217 0.0
O562 O 0.503 0.7628 0.75223 0.0
O563 O 0.50949 0.77712 0.68825 0.0
O564 O 0.49107 0.82503 0.67048 0.0
O565 O 0.58766 0.89847 0.75628 0.0
O566 O 0.48406 0.84432 0.7256 0.0
O567 O 0.54534 0.89703 0.75715 0.0
C568 C 0.58579 0.85326 0.65481 0.0
C569 C 0.49813 0.82389 0.84078 0.0
C570 C 0.5008 0.75719 0.71469 0.0
C571 C 0.5871 0.82069 0.80136 0.0
C572 C 0.47643 0.83363 0.69057 0.0
C573 C 0.57288 0.91116 0.7576 0.0
O574 O 0.55857 0.83844 0.64834 0.0
O575 O 0.07263 0.72061 0.69056 0.0
Zn576 Zn 0.07547 0.70553 0.74439 0.0
O577 O 0.10064 0.68921 0.74356 0.0
Zn578 Zn 0.13259 0.70983 0.78115 0.0
Zn579 Zn 0.11391 0.69088 0.68843 0.0
Zn580 Zn 0.07938 0.64953 0.76096 0.0
O581 O 0.12949 0.68571 0.83043 0.0
O582 O 0.08924 0.64447 0.8175 0.0
O583 O 0.08942 0.73869 0.78219 0.0
O584 O 0.13146 0.74415 0.80262 0.0
O585 O 0.17086 0.7264 0.75233 0.0
O586 O 0.15651 0.7184 0.68837 0.0
O587 O 0.10856 0.65209 0.6707 0.0
O588 O 0.03516 0.67531 0.75694 0.0
O589 O 0.0892 0.6258 0.72582 0.0
O590 O 0.03665 0.63449 0.75789 0.0
C591 C 0.08022 0.71844 0.65511 0.0
C592 C 0.11013 0.6603 0.84084 0.0
C593 C 0.17646 0.72973 0.71477 0.0
C594 C 0.11294 0.7525 0.80171 0.0
C595 C 0.09987 0.62884 0.69077 0.0
C596 C 0.02249 0.64787 0.75841 0.0
O597 O 0.09509 0.70609 0.64867 0.0
O598 O 0.21289 0.33813 0.69096 0.0
Zn599 Zn 0.22812 0.35612 0.74467 0.0
O600 O 0.24443 0.39755 0.74379 0.0
Zn601 Zn 0.22389 0.40893 0.78147 0.0
Zn602 Zn 0.24258 0.40903 0.68868 0.0
Zn603 Zn 0.28417 0.41594 0.761 0.0
O604 O 0.24804 0.42974 0.83077 0.0
O605 O 0.2893 0.4307 0.81766 0.0
O606 O 0.19506 0.33701 0.78265 0.0
O607 O 0.18954 0.37354 0.80294 0.0
O608 O 0.20733 0.43069 0.75278 0.0
O609 O 0.21507 0.42414 0.6888 0.0
O610 O 0.28132 0.44245 0.67079 0.0
O611 O 0.25839 0.34607 0.75706 0.0
O612 O 0.30776 0.44954 0.72582 0.0
O613 O 0.29927 0.38831 0.75765 0.0
C614 C 0.21497 0.34785 0.65549 0.0
C615 C 0.27346 0.43569 0.84112 0.0
C616 C 0.20387 0.43287 0.71524 0.0
C617 C 0.18122 0.34671 0.80213 0.0
C618 C 0.3046 0.45711 0.69077 0.0
C619 C 0.28586 0.3608 0.75829 0.0
O620 O 0.22729 0.37503 0.64897 0.0
O621 O 0.51481 0.94141 0.15481 0.0
Zn622 Zn 0.5119 0.9236 0.10093 0.0
O623 O 0.48683 0.88216 0.10167 0.0
Zn624 Zn 0.45486 0.87081 0.0641 0.0
Zn625 Zn 0.47358 0.87054 0.15679 0.0
Zn626 Zn 0.50818 0.86385 0.08417 0.0
O627 O 0.45821 0.85021 0.01453 0.0
O628 O 0.49851 0.84923 0.02747 0.0
O629 O 0.49775 0.94277 0.06336 0.0
O630 O 0.45574 0.9062 0.04301 0.0
O631 O 0.41659 0.84891 0.09287 0.0
O632 O 0.43096 0.85547 0.15682 0.0
O633 O 0.47894 0.83705 0.17431 0.0
O634 O 0.5522 0.93374 0.08816 0.0
O635 O 0.49831 0.8302 0.11914 0.0
O636 O 0.55088 0.89151 0.08745 0.0
C637 C 0.50727 0.93163 0.19026 0.0
C638 C 0.47769 0.8443 1.00405 0.0
C639 C 0.411 0.84674 0.13042 0.0
C640 C 0.47417 0.93306 0.04398 0.0
C641 C 0.48761 0.82251 0.15417 0.0
C642 C 0.56495 0.91902 0.0868 0.0
O643 O 0.4924 0.90443 0.19668 0.0
O644 O -0.00759 0.55965 0.15426 0.0
Zn645 Zn 0.01036 0.57431 0.10034 0.0
O646 O 0.05184 0.59056 0.10129 0.0
Zn647 Zn 0.06312 0.56981 0.06384 0.0
Zn648 Zn 0.06337 0.58897 0.15647 0.0
Zn649 Zn 0.07029 0.63021 0.08379 0.0
O650 O 0.08393 0.59374 0.01431 0.0
O651 O 0.08519 0.63512 0.02728 0.0
O652 O -0.00886 0.54088 0.06306 0.0
O653 O 0.02767 0.53533 0.0427 0.0
O654 O 0.08492 0.5534 0.09282 0.0
O655 O 0.07838 0.56139 0.15671 0.0
O656 O 0.09684 0.62776 0.17412 0.0
O657 O 0.00034 0.60442 0.08688 0.0
O658 O 0.10383 0.65401 0.11894 0.0
O659 O 0.04262 0.64528 0.08648 0.0
C660 C 0.00214 0.56179 0.18973 0.0
C661 C 0.09005 0.61918 1.00388 0.0
C662 C 0.08707 0.55005 0.13041 0.0
C663 C 0.0008 0.52696 0.04372 0.0
C664 C 0.11143 0.651 0.15403 0.0
C665 C 0.01509 0.63187 0.08542 0.0
O666 O 0.02934 0.57393 0.19619 0.0
O667 O 0.37415 0.41852 0.15488 0.0
Zn668 Zn 0.35943 0.42171 0.10095 0.0
O669 O 0.34309 0.44685 0.10183 0.0
Zn670 Zn 0.36374 0.47889 0.06436 0.0
Zn671 Zn 0.34473 0.46004 0.15696 0.0
Zn672 Zn 0.30343 0.42559 0.08433 0.0
O673 O 0.33981 0.47568 0.01478 0.0
O674 O 0.29851 0.43545 0.02771 0.0
O675 O 0.39289 0.43601 0.06359 0.0
O676 O 0.39827 0.478 0.04326 0.0
O677 O 0.38013 0.51709 0.09321 0.0
O678 O 0.37237 0.50261 0.15713 0.0
O679 O 0.3059 0.45477 0.17449 0.0
O680 O 0.32933 0.38152 0.08775 0.0
O681 O 0.27962 0.43538 0.11939 0.0
O682 O 0.28841 0.3829 0.08733 0.0
C683 C 0.37191 0.42605 0.19034 0.0
C684 C 0.31442 0.45627 1.0043 0.0
C685 C 0.38361 0.52261 0.13078 0.0
C686 C 0.40675 0.4596 0.04426 0.0
C687 C 0.28264 0.44608 0.15441 0.0
C688 C 0.30185 0.36881 0.0864 0.0
O689 O 0.3597 0.44104 0.19676 0.0
O690 O -0.00804 0.41886 0.65458 0.0
Zn691 Zn 0.00996 0.42181 0.6008 0.0
O692 O 0.05143 0.44694 0.60174 0.0
Zn693 Zn 0.06286 0.47891 0.56413 0.0
Zn694 Zn 0.06293 0.46022 0.65685 0.0
Zn695 Zn 0.06983 0.42562 0.58448 0.0
O696 O 0.08371 0.47564 0.51478 0.0
O697 O 0.08471 0.43539 0.52789 0.0
O698 O -0.00914 0.43594 0.56305 0.0
O699 O 0.02747 0.47794 0.54272 0.0
O700 O 0.08461 0.51718 0.59287 0.0
O701 O 0.078 0.50281 0.65683 0.0
O702 O 0.09637 0.45484 0.6747 0.0
O703 O -0.00013 0.38156 0.58801 0.0
O704 O 0.10337 0.43544 0.61969 0.0
O705 O 0.04215 0.38292 0.58755 0.0
C706 C 0.00167 0.4265 0.69004 0.0
C707 C 0.0897 0.45622 0.50443 0.0
C708 C 0.08674 0.52276 0.63041 0.0
C709 C 0.0006 0.45948 0.5436 0.0
C710 C 0.11096 0.44614 0.65472 0.0
C711 C 0.01462 0.36883 0.58671 0.0
O712 O 0.02887 0.44144 0.69653 0.0
O713 O 0.51429 0.55914 0.6544 0.0
Zn714 Zn 0.51142 0.57414 0.60056 0.0
O715 O 0.48628 0.59049 0.60137 0.0
Zn716 Zn 0.45435 0.56985 0.56372 0.0
Zn717 Zn 0.473 0.58884 0.65649 0.0
Zn718 Zn 0.50759 0.63016 0.58401 0.0
O719 O 0.45767 0.59392 0.51427 0.0
O720 O 0.49782 0.63521 0.52743 0.0
O721 O 0.49742 0.54092 0.56293 0.0
O722 O 0.45535 0.53539 0.54251 0.0
O723 O 0.41606 0.55345 0.59247 0.0
O724 O 0.43037 0.56145 0.65644 0.0
O725 O 0.47848 0.62769 0.67426 0.0
O726 O 0.5517 0.60428 0.58782 0.0
O727 O 0.49783 0.65396 0.61912 0.0
O728 O 0.55031 0.64515 0.58705 0.0
C729 C 0.50662 0.56122 0.68983 0.0
C730 C 0.47706 0.61934 0.50394 0.0
C731 C 0.41043 0.55015 0.63003 0.0
C732 C 0.47388 0.52704 0.54349 0.0
C733 C 0.4872 0.65095 0.6542 0.0
C734 C 0.56442 0.63172 0.58637 0.0
O735 O 0.4917 0.57351 0.69628 0.0
O736 O 0.37431 0.94149 0.65473 0.0
Zn737 Zn 0.35938 0.92366 0.60085 0.0
O738 O 0.34301 0.88222 0.60164 0.0
Zn739 Zn 0.36362 0.87087 0.56404 0.0
Zn740 Zn 0.34468 0.87059 0.65676 0.0
Zn741 Zn 0.30334 0.86391 0.5842 0.0
O742 O 0.33962 0.8502 0.51456 0.0
O743 O 0.29831 0.84916 0.52757 0.0
O744 O 0.3927 0.94282 0.56327 0.0
O745 O 0.39813 0.90625 0.54288 0.0
O746 O 0.37997 0.84895 0.59276 0.0
O747 O 0.37215 0.85542 0.65674 0.0
O748 O 0.30582 0.83719 0.67441 0.0
O749 O 0.32923 0.93382 0.58804 0.0
O750 O 0.27956 0.83033 0.61928 0.0
O751 O 0.28832 0.89159 0.58735 0.0
C752 C 0.37215 0.93171 0.69017 0.0
C753 C 0.31421 0.84423 0.50414 0.0
C754 C 0.38336 0.8467 0.6303 0.0
C755 C 0.40656 0.93311 0.54387 0.0
C756 C 0.28258 0.82266 0.65432 0.0
C757 C 0.30176 0.9191 0.58667 0.0
O758 O 0.35987 0.90452 0.69659 0.0
O759 O 0.07242 0.33801 0.19099 0.0
Zn760 Zn 0.07556 0.35592 0.24487 0.0
O761 O 0.10065 0.39736 0.24395 0.0
Zn762 Zn 0.1327 0.40877 0.28142 0.0
Zn763 Zn 0.11383 0.40889 0.18879 0.0
Zn764 Zn 0.07932 0.4157 0.26141 0.0
O765 O 0.12946 0.42949 0.3309 0.0
O766 O 0.08919 0.43054 0.31798 0.0
O767 O 0.08988 0.33683 0.28228 0.0
O768 O 0.13189 0.37341 0.30258 0.0
O769 O 0.17092 0.43066 0.25253 0.0
O770 O 0.15645 0.42398 0.18862 0.0
O771 O 0.10845 0.44233 0.17115 0.0
O772 O 0.03532 0.34578 0.25808 0.0
O773 O 0.08907 0.44924 0.22625 0.0
O774 O 0.03661 0.388 0.25849 0.0
C775 C 0.07998 0.34775 0.15552 0.0
C776 C 0.11005 0.4355 0.34135 0.0
C777 C 0.17645 0.43279 0.21495 0.0
C778 C 0.11348 0.34655 0.30161 0.0
C779 C 0.09975 0.45689 0.19121 0.0
C780 C 0.02255 0.3605 0.25943 0.0
O781 O 0.09495 0.37494 0.14906 0.0
O782 O 0.5956 0.72052 0.19026 0.0
Zn783 Zn 0.57782 0.70567 0.2442 0.0
O784 O 0.53631 0.68928 0.24345 0.0
Zn785 Zn 0.52499 0.70994 0.28099 0.0
Zn786 Zn 0.52461 0.6908 0.18832 0.0
Zn787 Zn 0.51801 0.64966 0.261 0.0
O788 O 0.50416 0.68594 0.33045 0.0
O789 O 0.50316 0.64468 0.31757 0.0
O790 O 0.59703 0.73902 0.28167 0.0
O791 O 0.56042 0.74442 0.30214 0.0
O792 O 0.50311 0.72629 0.25213 0.0
O793 O 0.50947 0.71827 0.18819 0.0
O794 O 0.49115 0.65194 0.17082 0.0
O795 O 0.58803 0.67557 0.25704 0.0
O796 O 0.48442 0.62578 0.22601 0.0
O797 O 0.54575 0.63471 0.25798 0.0
C798 C 0.58579 0.71825 0.15482 0.0
C799 C 0.49816 0.66055 0.34091 0.0
C800 C 0.50081 0.72958 0.21457 0.0
C801 C 0.58732 0.75286 0.30109 0.0
C802 C 0.47667 0.62871 0.19098 0.0
C803 C 0.57329 0.64812 0.25855 0.0
O804 O 0.55856 0.7059 0.14844 0.0
O805 O 0.21311 0.861 0.19057 0.0
Zn806 Zn 0.22808 0.85803 0.24439 0.0
O807 O 0.24444 0.83291 0.2435 0.0
Zn808 Zn 0.22384 0.8009 0.28104 0.0
Zn809 Zn 0.24278 0.8197 0.18838 0.0
Zn810 Zn 0.28412 0.85422 0.26091 0.0
O811 O 0.24784 0.80419 0.33055 0.0
O812 O 0.28911 0.84443 0.31754 0.0
O813 O 0.19479 0.84385 0.28199 0.0
O814 O 0.18932 0.8018 0.3022 0.0
O815 O 0.20748 0.76267 0.25224 0.0
O816 O 0.21531 0.77711 0.18831 0.0
O817 O 0.28163 0.8251 0.17071 0.0
O818 O 0.2582 0.89827 0.25727 0.0
O819 O 0.3079 0.8444 0.22584 0.0
O820 O 0.29913 0.89691 0.25783 0.0
C821 C 0.21524 0.85341 0.15511 0.0
C822 C 0.27323 0.82361 0.34098 0.0
C823 C 0.20409 0.75713 0.21468 0.0
C824 C 0.18091 0.82027 0.30131 0.0
C825 C 0.30488 0.83374 0.1908 0.0
C826 C 0.28568 0.91099 0.25862 0.0
O827 O 0.22754 0.8385 0.14863 0.0
C828 C 0.15665 0.03964 0.0612 0.0
C829 C 0.15814 0.06082 0.03448 0.0
H830 H 0.15405 -0.00165 0.06728 0.0
C831 C 0.15435 0.05467 0.99316 0.0
H832 H 0.15941 0.04372 0.09325 0.0
C833 C 0.15162 0.02907 0.97848 0.0
C834 C 0.15235 0.00887 1.00476 0.0
H835 H 0.15491 0.07026 0.97178 0.0
H836 H 0.14996 0.02559 0.94625 0.0
C837 C 0.15366 0.01373 0.0464 0.0
C838 C 0.91994 0.12588 0.04606 0.0
C839 C 0.92477 0.12966 1.00443 0.0
H840 H 0.89001 0.10135 0.09285 0.0
C841 C 0.90461 0.10882 0.97805 0.0
H842 H 0.93529 0.14156 0.06701 0.0
C843 C 0.87905 0.08582 0.99265 0.0
C844 C 0.87292 0.08326 0.03399 0.0
H845 H 0.90809 0.11083 0.94582 0.0
H846 H 0.86347 0.07088 0.97122 0.0
C847 C 0.89408 0.10283 0.06079 0.0
C848 C 0.80747 0.77953 0.04583 0.0
C849 C 0.80395 0.78091 1.00419 0.0
H850 H 0.8317 0.7737 0.0927 0.0
C851 C 0.82496 0.78176 0.97794 0.0
H852 H 0.79164 0.77905 0.06669 0.0
C853 C 0.84786 0.77904 0.99263 0.0
C854 C 0.85016 0.77514 0.03394 0.0
H855 H 0.82315 0.78349 0.94571 0.0
H856 H 0.86294 0.77855 0.97126 0.0
C857 C 0.83042 0.77655 0.06065 0.0
C858 C 0.01596 0.16416 0.5335 0.0
C859 C -0.0041 0.16519 0.50721 0.0
H860 H 0.05705 0.16715 0.54024 0.0
C861 C 0.00087 0.16665 0.46559 0.0
H862 H 0.01236 0.16236 0.56571 0.0
C863 C 0.02678 0.16954 0.45082 0.0
C864 C 0.04784 0.17079 0.47757 0.0
H865 H -0.0144 0.16726 0.44471 0.0
H866 H 0.03097 0.17247 0.4188 0.0
C867 C 0.04155 0.16679 0.51885 0.0
C868 C 0.76696 0.86065 0.51843 0.0
C869 C 0.76311 0.86307 0.47714 0.0
H870 H 0.77109 0.8357 0.56527 0.0
C871 C 0.76437 0.8433 0.45037 0.0
H872 H 0.76658 0.87574 0.53984 0.0
C873 C 0.76709 0.8202 0.46511 0.0
C874 C 0.76838 0.81656 0.50673 0.0
H875 H 0.76157 0.84467 0.41833 0.0
H876 H 0.76649 0.80436 0.4442 0.0
C877 C 0.76942 0.8376 0.53305 0.0
C878 C 0.07284 0.89181 0.51861 0.0
C879 C 0.07051 0.88568 0.47729 0.0
H880 H 0.09755 0.92083 0.56557 0.0
C881 C 0.09026 0.90683 0.45061 0.0
H882 H 0.05776 0.87623 0.53997 0.0
C883 C 0.11322 0.9327 0.46546 0.0
C884 C 0.11674 0.93753 0.50711 0.0
H885 H 0.08897 0.90277 0.41856 0.0
H886 H 0.12903 0.94806 0.44461 0.0
C887 C 0.09574 0.91735 0.53334 0.0
C888 C 0.76727 0.9327 0.96545 0.0
C889 C 0.76844 0.93748 0.0071 0.0
H890 H 0.76172 0.90282 0.91854 0.0
C891 C 0.76914 0.91725 0.03337 0.0
H892 H 0.76691 0.9481 0.94458 0.0
C893 C 0.76652 0.8917 0.01865 0.0
C894 C 0.76284 0.88563 0.97731 0.0
H895 H 0.7707 0.92068 0.0656 0.0
H896 H 0.76591 0.87609 0.04002 0.0
C897 C 0.76438 0.90684 0.95061 0.0
C898 C 0.04128 0.86074 0.01874 0.0
C899 C 0.04753 0.86319 0.97744 0.0
H900 H 0.01219 0.83577 0.06555 0.0
C901 C 0.02648 0.8435 0.95064 0.0
H902 H 0.05678 0.87579 0.04017 0.0
C903 C 0.00064 0.82041 0.96535 0.0
C904 C -0.00427 0.81672 0.00697 0.0
H905 H 0.03064 0.8449 0.9186 0.0
H906 H -0.01461 0.80462 0.94442 0.0
C907 C 0.01575 0.83771 0.03333 0.0
C908 C 0.11309 0.16639 0.96592 0.0
C909 C 0.11674 0.1652 0.00756 0.0
H910 H 0.08872 0.172 0.91906 0.0
C911 C 0.0958 0.16445 0.03387 0.0
H912 H 0.12886 0.16678 0.94502 0.0
C913 C 0.07285 0.16709 0.0192 0.0
C914 C 0.07043 0.17082 0.97786 0.0
H915 H 0.09771 0.16286 0.0661 0.0
H916 H 0.05783 0.16767 0.04059 0.0
C917 C 0.09009 0.16929 0.95113 0.0
C918 C 0.91972 0.77982 0.54587 0.0
C919 C 0.92463 0.78116 0.50424 0.0
H920 H 0.88965 0.77401 0.5927 0.0
C921 C 0.90445 0.78195 0.47794 0.0
H922 H 0.93509 0.7794 0.56676 0.0
C923 C 0.87881 0.7792 0.49259 0.0
C924 C 0.8726 0.77533 0.53391 0.0
H925 H 0.90799 0.78364 0.44572 0.0
H926 H 0.86323 0.77865 0.4712 0.0
C927 C 0.89377 0.77682 0.56065 0.0
C928 C 0.15625 0.10283 0.5614 0.0
C929 C 0.1576 0.08311 0.53464 0.0
H930 H 0.15395 0.14167 0.56755 0.0
C931 C 0.15369 0.08547 0.49335 0.0
H932 H 0.15909 0.10149 0.59344 0.0
C933 C 0.15109 0.10844 0.47872 0.0
C934 C 0.15206 0.12945 0.50503 0.0
H935 H 0.15413 0.0704 0.47195 0.0
H936 H 0.14938 0.11031 0.4465 0.0
C937 C 0.15339 0.12585 0.54665 0.0
C938 C 0.84807 0.05456 0.49335 0.0
C939 C 0.85028 0.06076 0.53465 0.0
H940 H 0.8235 0.02545 0.4464 0.0
C941 C 0.8305 0.03962 0.56132 0.0
H942 H 0.86318 0.07012 0.47201 0.0
C943 C 0.80761 0.01371 0.54646 0.0
C944 C 0.80419 0.00881 0.50482 0.0
H945 H 0.83171 0.04373 0.59335 0.0
H946 H 0.79175 -0.00163 0.56729 0.0
C947 C 0.82523 0.02897 0.47862 0.0
C948 C 0.82131 0.38802 0.32593 0.0
C949 C 0.825 0.39417 0.36725 0.0
H950 H 0.81697 0.3589 0.27911 0.0
C951 C 0.82337 0.37297 0.39404 0.0
H952 H 0.82198 0.40363 0.30449 0.0
C953 C 0.82035 0.34703 0.37932 0.0
C954 C 0.81915 0.34216 0.33769 0.0
H955 H 0.82605 0.37704 0.4261 0.0
H956 H 0.82065 0.33163 0.40026 0.0
C957 C 0.81854 0.36239 0.31133 0.0
C958 C 0.57112 0.44206 0.31128 0.0
C959 C 0.59139 0.46291 0.33753 0.0
H960 H 0.52991 0.40418 0.30469 0.0
C961 C 0.58666 0.45923 0.37919 0.0
H962 H 0.57452 0.44399 0.27903 0.0
C963 C 0.56079 0.43626 0.39407 0.0
C964 C 0.53954 0.41667 0.36741 0.0
H965 H 0.6021 0.47493 0.40005 0.0
H966 H 0.55681 0.43485 0.42616 0.0
C967 C 0.54557 0.41914 0.32604 0.0
C968 C 0.4743 0.11313 0.37972 0.0
C969 C 0.47067 0.11439 0.33809 0.0
H970 H 0.49865 0.10744 0.42653 0.0
C971 C 0.49161 0.11517 0.31176 0.0
H972 H 0.45852 0.11272 0.40063 0.0
C973 C 0.51455 0.11249 0.3264 0.0
C974 C 0.51695 0.1087 0.36772 0.0
H975 H 0.48973 0.11681 0.27954 0.0
H976 H 0.52957 0.11193 0.30499 0.0
C977 C 0.49729 0.11019 0.39448 0.0
C978 C 0.69319 0.50261 0.78351 0.0
C979 C 0.7143 0.50393 0.81025 0.0
H980 H 0.652 0.50031 0.77743 0.0
C981 C 0.70806 0.50003 0.85155 0.0
H982 H 0.69734 0.50545 0.75147 0.0
C983 C 0.68249 0.49742 0.86621 0.0
C984 C 0.6624 0.49839 0.83993 0.0
H985 H 0.7236 0.50044 0.87293 0.0
H986 H 0.67894 0.4957 0.89843 0.0
C987 C 0.6673 0.49975 0.7983 0.0
C988 C 0.43551 0.17073 0.86706 0.0
C989 C 0.43473 0.14981 0.84076 0.0
H990 H 0.4324 0.20873 0.87376 0.0
C991 C 0.43359 0.15349 0.79912 0.0
H992 H 0.43705 0.1688 0.89929 0.0
C993 C 0.43078 0.17653 0.78431 0.0
C994 C 0.4293 0.19619 0.81103 0.0
H995 H 0.43319 0.13774 0.77823 0.0
H996 H 0.42813 0.17794 0.75224 0.0
C997 C 0.43296 0.19372 0.85237 0.0
C998 C 0.73962 0.22504 0.85253 0.0
C999 C 0.73711 0.21897 0.81118 0.0
H1000 H 0.76449 0.25404 0.8994 0.0
C1001 C 0.75668 0.2402 0.78442 0.0
H1002 H 0.72468 0.20941 0.87394 0.0
C1003 C 0.77965 0.26608 0.79919 0.0
C1004 C 0.78337 0.27087 0.84083 0.0
H1005 H 0.75524 0.23619 0.75235 0.0
H1006 H 0.79533 0.2815 0.77826 0.0
C1007 C 0.76254 0.25061 0.86717 0.0
C1008 C 0.43089 0.24008 0.28441 0.0
C1009 C 0.42946 0.21893 0.31112 0.0
H1010 H 0.43335 0.28131 0.27834 0.0
C1011 C 0.43327 0.22508 0.35244 0.0
H1012 H 0.42812 0.236 0.25236 0.0
C1013 C 0.43592 0.25065 0.36713 0.0
C1014 C 0.4351 0.27081 0.34086 0.0
H1015 H 0.43275 0.20951 0.37382 0.0
H1016 H 0.43759 0.25414 0.39935 0.0
C1017 C 0.43381 0.26596 0.29922 0.0
C1018 C 0.6826 0.17098 0.36666 0.0
C1019 C 0.66256 0.14992 0.34041 0.0
H1020 H 0.72363 0.20908 0.37331 0.0
C1021 C 0.66747 0.15345 0.29878 0.0
H1022 H 0.67905 0.16917 0.39888 0.0
C1023 C 0.69331 0.17648 0.28396 0.0
C1024 C 0.71437 0.19628 0.31065 0.0
H1025 H 0.6522 0.13758 0.27793 0.0
H1026 H 0.69746 0.17776 0.25192 0.0
C1027 C 0.70813 0.19396 0.35195 0.0
C1028 C 0.7394 0.49987 0.35175 0.0
C1029 C 0.73704 0.50372 0.31044 0.0
H1030 H 0.76426 0.49564 0.39864 0.0
C1031 C 0.75679 0.50236 0.2837 0.0
H1032 H 0.7243 0.50031 0.37313 0.0
C1033 C 0.77984 0.49954 0.29849 0.0
C1034 C 0.78344 0.49826 0.34013 0.0
H1035 H 0.75546 0.50516 0.25166 0.0
H1036 H 0.79569 0.50008 0.27761 0.0
C1037 C 0.7624 0.4973 0.36642 0.0
C1038 C 0.57115 0.11544 0.81185 0.0
C1039 C 0.59129 0.11454 0.83809 0.0
H1040 H 0.52997 0.11227 0.80519 0.0
C1041 C 0.58639 0.11314 0.87973 0.0
H1042 H 0.57469 0.11719 0.77962 0.0
C1043 C 0.56046 0.11017 0.89455 0.0
C1044 C 0.53932 0.10879 0.86785 0.0
H1045 H 0.60172 0.11262 0.90058 0.0
H1046 H 0.55633 0.1073 0.92659 0.0
C1047 C 0.54554 0.11274 0.82654 0.0
C1048 C 0.81785 0.44177 0.81163 0.0
C1049 C 0.8188 0.46283 0.83782 0.0
H1050 H 0.82091 0.40374 0.80507 0.0
C1051 C 0.82019 0.45935 0.87946 0.0
H1052 H 0.81611 0.44356 0.7794 0.0
C1053 C 0.82309 0.43638 0.89435 0.0
C1054 C 0.82442 0.4166 0.8677 0.0
H1055 H 0.82074 0.47521 0.90027 0.0
H1056 H 0.82596 0.43514 0.9264 0.0
C1057 C 0.82048 0.41886 0.82639 0.0
C1058 C 0.49709 0.37298 0.89441 0.0
C1059 C 0.51684 0.39406 0.86765 0.0
H1060 H 0.45831 0.33177 0.90056 0.0
C1061 C 0.51458 0.38778 0.82638 0.0
H1062 H 0.49833 0.37716 0.92643 0.0
C1063 C 0.49171 0.36217 0.81176 0.0
C1064 C 0.47068 0.34208 0.83805 0.0
H1065 H 0.52967 0.40329 0.80498 0.0
H1066 H 0.48994 0.35858 0.77955 0.0
C1067 C 0.47416 0.34705 0.87967 0.0
C1068 C 0.48743 0.72128 0.65965 0.0
C1069 C 0.4914 0.7275 0.70094 0.0
H1070 H 0.48288 0.69212 0.61276 0.0
C1071 C 0.49 0.70637 0.72766 0.0
H1072 H 0.48791 0.73683 0.63827 0.0
C1073 C 0.48697 0.68044 0.71287 0.0
C1074 C 0.48551 0.67551 0.67124 0.0
H1075 H 0.4929 0.7105 0.75969 0.0
H1076 H 0.48746 0.6651 0.73374 0.0
C1077 C 0.48465 0.69566 0.64498 0.0
C1078 C 0.22726 0.76977 0.72771 0.0
C1079 C 0.20614 0.75009 0.70097 0.0
H1080 H 0.26849 0.80852 0.73382 0.0
C1081 C 0.21234 0.75249 0.65966 0.0
H1082 H 0.22315 0.76841 0.75976 0.0
C1083 C 0.23793 0.77542 0.645 0.0
C1084 C 0.25805 0.79636 0.6713 0.0
H1085 H 0.19679 0.73746 0.63827 0.0
H1086 H 0.24146 0.77729 0.61278 0.0
C1087 C 0.25316 0.79275 0.71293 0.0
C1088 C 0.15838 0.449 0.64555 0.0
C1089 C 0.13728 0.44796 0.67179 0.0
H1090 H 0.19646 0.44595 0.63887 0.0
C1091 C 0.14073 0.44646 0.71342 0.0
H1092 H 0.15663 0.45082 0.61333 0.0
C1093 C 0.16372 0.44352 0.72823 0.0
C1094 C 0.18354 0.44227 0.70152 0.0
H1095 H 0.12483 0.44584 0.73426 0.0
H1096 H 0.16494 0.44056 0.76025 0.0
C1097 C 0.18131 0.44632 0.66023 0.0
C1098 C 0.34952 0.83102 0.20015 0.0
C1099 C 0.3294 0.8319 0.17384 0.0
H1100 H 0.39064 0.83409 0.20691 0.0
C1101 C 0.33429 0.83318 0.13221 0.0
H1102 H 0.34598 0.82936 0.23238 0.0
C1103 C 0.36018 0.83603 0.11744 0.0
C1104 C 0.3813 0.83742 0.14419 0.0
H1105 H 0.31896 0.83367 0.11131 0.0
H1106 H 0.3643 0.8388 0.08539 0.0
C1107 C 0.37509 0.83361 0.18551 0.0
C1108 C 0.09779 0.50996 0.11768 0.0
C1109 C 0.09628 0.52963 0.14435 0.0
H1110 H 0.10018 0.47116 0.11168 0.0
C1111 C 0.09985 0.52715 0.18572 0.0
H1112 H 0.0952 0.51138 0.0856 0.0
C1113 C 0.10235 0.50415 0.20046 0.0
C1114 C 0.10161 0.48322 0.1742 0.0
H1115 H 0.09927 0.54216 0.20707 0.0
H1116 H 0.10383 0.50221 0.2327 0.0
C1117 C 0.10055 0.48691 0.13254 0.0
C1118 C 0.42956 0.5839 0.20053 0.0
C1119 C 0.45035 0.60414 0.17413 0.0
H1120 H 0.39169 0.54271 0.2074 0.0
C1121 C 0.44657 0.59933 0.1325 0.0
H1122 H 0.43156 0.58734 0.23276 0.0
C1123 C 0.42356 0.57345 0.11779 0.0
C1124 C 0.40402 0.55224 0.1446 0.0
H1125 H 0.46222 0.61474 0.11153 0.0
H1126 H 0.42207 0.56942 0.08572 0.0
C1127 C 0.4066 0.55833 0.18595 0.0
C1128 C 0.10254 0.5842 0.7001 0.0
C1129 C 0.10168 0.60433 0.67379 0.0
H1130 H 0.0994 0.54308 0.70687 0.0
C1131 C 0.10035 0.59943 0.63216 0.0
H1132 H 0.10422 0.58773 0.73231 0.0
C1133 C 0.09745 0.57354 0.6174 0.0
C1134 C 0.09605 0.55243 0.64416 0.0
H1135 H 0.09987 0.61475 0.61126 0.0
H1136 H 0.09465 0.56943 0.58536 0.0
C1137 C 0.09989 0.55863 0.68546 0.0
C1138 C 0.37451 0.52756 0.68511 0.0
C1139 C 0.38075 0.52982 0.64381 0.0
H1140 H 0.34545 0.50281 0.73208 0.0
C1141 C 0.3597 0.50996 0.61715 0.0
H1142 H 0.39 0.54273 0.70643 0.0
C1143 C 0.33387 0.48694 0.63203 0.0
C1144 C 0.32898 0.48346 0.67367 0.0
H1145 H 0.36385 0.51121 0.58512 0.0
H1146 H 0.31862 0.47102 0.61121 0.0
C1147 C 0.349 0.50459 0.69986 0.0
C1148 C 0.429 0.83074 0.69993 0.0
C1149 C 0.45004 0.83172 0.67362 0.0
H1150 H 0.39093 0.83378 0.70671 0.0
C1151 C 0.44648 0.8331 0.63199 0.0
H1152 H 0.43084 0.829 0.73214 0.0
C1153 C 0.42345 0.83598 0.61725 0.0
C1154 C 0.40369 0.8373 0.64401 0.0
H1155 H 0.46233 0.83367 0.61109 0.0
H1156 H 0.42214 0.83885 0.58521 0.0
C1157 C 0.40602 0.83336 0.6853 0.0
C1158 C 0.21228 0.44591 0.15977 0.0
C1159 C 0.20615 0.44217 0.20111 0.0
H1160 H 0.24137 0.45019 0.11285 0.0
C1161 C 0.22736 0.44372 0.22783 0.0
H1162 H 0.19666 0.44531 0.1384 0.0
C1163 C 0.25327 0.44666 0.21302 0.0
C1164 C 0.2581 0.44787 0.17138 0.0
H1165 H 0.22329 0.44101 0.2599 0.0
H1166 H 0.26866 0.44629 0.23391 0.0
C1167 C 0.23789 0.44859 0.14509 0.0
C1168 C 0.48992 0.76953 0.22751 0.0
C1169 C 0.49144 0.7499 0.20076 0.0
H1170 H 0.4874 0.80825 0.23365 0.0
C1171 C 0.48769 0.75233 0.15943 0.0
H1172 H 0.49263 0.76814 0.25957 0.0
C1173 C 0.48504 0.77527 0.14479 0.0
C1174 C 0.4858 0.79617 0.17111 0.0
H1175 H 0.48827 0.73734 0.13803 0.0
H1176 H 0.48344 0.77719 0.11256 0.0
C1177 C 0.48701 0.79251 0.21274 0.0
C1178 C 0.18153 0.72131 0.15955 0.0
C1179 C 0.18382 0.72746 0.20086 0.0
H1180 H 0.15689 0.69223 0.11261 0.0
C1181 C 0.16411 0.70629 0.22755 0.0
H1182 H 0.19659 0.73689 0.13819 0.0
C1183 C 0.1412 0.68039 0.21272 0.0
C1184 C 0.13769 0.67553 0.17108 0.0
H1185 H 0.16538 0.71037 0.2596 0.0
H1186 H 0.1254 0.66502 0.23358 0.0
C1187 C 0.15868 0.69572 0.14484 0.0
C1188 C 0.30412 0.16634 0.15278 0.0
C1189 C 0.27421 0.14697 0.15496 0.0
H1190 H 0.34646 0.17484 0.16833 0.0
C1191 C 0.26409 0.12052 0.17513 0.0
H1192 H 0.3126 0.18685 0.1373 0.0
C1193 C 0.28351 0.11356 0.19274 0.0
C1194 C 0.31342 0.13294 0.19056 0.0
H1195 H 0.24117 0.10507 0.1772 0.0
H1196 H 0.27502 0.09305 0.20821 0.0
C1197 C 0.32353 0.15939 0.17039 0.0
C1198 C 0.76748 0.12384 0.15214 0.0
C1199 C 0.7869 0.11334 0.15439 0.0
H1200 H 0.75889 0.1576 0.16764 0.0
C1201 C 0.81334 0.12968 0.17458 0.0
H1202 H 0.74698 0.11182 0.13664 0.0
C1203 C 0.82023 0.156 0.19219 0.0
C1204 C 0.8008 0.16649 0.18999 0.0
H1205 H 0.82882 0.12223 0.1767 0.0
H1206 H 0.84073 0.16802 0.20771 0.0
C1207 C 0.77438 0.15016 0.16975 0.0
C1208 C 0.77798 0.64982 0.1926 0.0
C1209 C 0.76746 0.61994 0.19034 0.0
H1210 H 0.81179 0.69213 0.17711 0.0
C1211 C 0.78383 0.60984 0.1702 0.0
H1212 H 0.76594 0.6583 0.20808 0.0
C1213 C 0.81021 0.62926 0.15261 0.0
C1214 C 0.82069 0.65913 0.1548 0.0
H1215 H 0.77637 0.58694 0.1681 0.0
H1216 H 0.82225 0.62079 0.13711 0.0
C1217 C 0.80435 0.66923 0.17502 0.0
C1218 C 0.10096 0.29623 0.31934 0.0
C1219 C 0.12033 0.3261 0.32157 0.0
H1220 H 0.09246 0.25391 0.33483 0.0
C1221 C 0.14681 0.3362 0.34168 0.0
H1222 H 0.08043 0.28776 0.30389 0.0
C1223 C 0.15377 0.31678 0.35925 0.0
C1224 C 0.13438 0.2869 0.35708 0.0
H1225 H 0.16226 0.3591 0.34376 0.0
H1226 H 0.17429 0.32524 0.37472 0.0
C1227 C 0.10792 0.27681 0.33691 0.0
C1228 C 0.59769 0.79647 0.34124 0.0
C1229 C 0.6078 0.78012 0.32107 0.0
H1230 H 0.60862 0.83483 0.3743 0.0
C1231 C 0.63771 0.79064 0.31881 0.0
H1232 H 0.57476 0.78901 0.34337 0.0
C1233 C 0.65714 0.81699 0.33637 0.0
C1234 C 0.64703 0.83332 0.35657 0.0
H1235 H 0.6462 0.77862 0.30332 0.0
H1236 H 0.68007 0.82444 0.33425 0.0
C1237 C 0.61711 0.82281 0.3588 0.0
C1238 C 0.13725 0.787 0.34141 0.0
C1239 C 0.15363 0.81347 0.32133 0.0
H1240 H 0.0988 0.75953 0.37439 0.0
C1241 C 0.14313 0.83288 0.31915 0.0
H1242 H 0.14469 0.77152 0.34347 0.0
C1243 C 0.11675 0.82593 0.3367 0.0
C1244 C 0.10037 0.79947 0.3568 0.0
H1245 H 0.1552 0.85341 0.30373 0.0
H1246 H 0.10931 0.84141 0.33465 0.0
C1247 C 0.11086 0.78006 0.35897 0.0
C1248 C 0.65692 0.82638 0.83688 0.0
C1249 C 0.64682 0.7999 0.85696 0.0
H1250 H 0.64596 0.85387 0.80389 0.0
C1251 C 0.61692 0.78053 0.85918 0.0
H1252 H 0.67985 0.84183 0.8348 0.0
C1253 C 0.59749 0.7875 0.84165 0.0
C1254 C 0.60759 0.81395 0.82151 0.0
H1255 H 0.60844 0.76 0.87461 0.0
H1256 H 0.57456 0.77204 0.84372 0.0
C1257 C 0.63749 0.83335 0.81934 0.0
C1258 C 0.14606 0.796 0.8421 0.0
C1259 C 0.11962 0.77967 0.82188 0.0
H1260 H 0.17347 0.83437 0.87515 0.0
C1261 C 0.10019 0.79015 0.81968 0.0
H1262 H 0.16155 0.78857 0.84421 0.0
C1263 C 0.1071 0.81649 0.83726 0.0
C1264 C 0.13355 0.83285 0.85741 0.0
H1265 H 0.07969 0.77813 0.80418 0.0
H1266 H 0.09161 0.82394 0.83514 0.0
C1267 C 0.15296 0.82234 0.85967 0.0
C1268 C 0.11129 0.31691 0.86006 0.0
C1269 C 0.10078 0.28703 0.85779 0.0
H1270 H 0.1451 0.35923 0.84461 0.0
C1271 C 0.11718 0.27695 0.8377 0.0
H1272 H 0.09922 0.32537 0.8755 0.0
C1273 C 0.14357 0.29638 0.82016 0.0
C1274 C 0.15404 0.32625 0.82234 0.0
H1275 H 0.10974 0.25405 0.83559 0.0
H1276 H 0.15563 0.28791 0.8047 0.0
C1277 C 0.13767 0.33633 0.84252 0.0
C1278 C 0.76697 0.62933 0.65227 0.0
C1279 C 0.78637 0.6592 0.65447 0.0
H1280 H 0.75847 0.587 0.66773 0.0
C1281 C 0.81284 0.66928 0.67459 0.0
H1282 H 0.74644 0.62087 0.63684 0.0
C1283 C 0.8198 0.64985 0.69212 0.0
C1284 C 0.80041 0.61998 0.68991 0.0
H1285 H 0.82831 0.69217 0.67667 0.0
H1286 H 0.84033 0.65831 0.70756 0.0
C1287 C 0.77393 0.6099 0.66981 0.0
C1288 C 0.26397 0.12968 0.67498 0.0
C1289 C 0.27404 0.11329 0.65485 0.0
H1290 H 0.27497 0.16809 0.70796 0.0
C1291 C 0.30395 0.12375 0.65262 0.0
H1292 H 0.24105 0.12226 0.67709 0.0
C1293 C 0.3234 0.1501 0.67014 0.0
C1294 C 0.31333 0.16649 0.69028 0.0
H1295 H 0.31241 0.11169 0.63717 0.0
H1296 H 0.34632 0.15751 0.66804 0.0
C1297 C 0.28343 0.15603 0.69251 0.0
C1298 C 0.81 0.16655 0.65317 0.0
C1299 C 0.82049 0.14713 0.65532 0.0
H1300 H 0.77617 0.17509 0.66865 0.0
C1301 C 0.80411 0.12068 0.67545 0.0
H1302 H 0.82207 0.18707 0.63773 0.0
C1303 C 0.77773 0.11374 0.693 0.0
C1304 C 0.76722 0.13314 0.69079 0.0
H1305 H 0.81155 0.1052 0.67751 0.0
H1306 H 0.76566 0.09322 0.70842 0.0
C1307 C 0.78362 0.15962 0.67072 0.0
C1308 C -0.02916 0.49962 0.48556 0.0
C1309 C 0.94094 0.48025 0.48775 0.0
H1310 H 0.01319 0.50813 0.50115 0.0
C1311 C 0.93082 0.45381 0.50793 0.0
H1312 H -0.02067 0.52012 0.47006 0.0
C1313 C 0.95024 0.44687 0.52558 0.0
C1314 C -0.01986 0.46624 0.52342 0.0
H1315 H 0.90789 0.43836 0.51 0.0
H1316 H 0.94175 0.42636 0.54108 0.0
C1317 C -0.00974 0.49268 0.50321 0.0
C1318 C 0.48672 0.48944 0.52568 0.0
C1319 C 0.46721 0.49982 0.52347 0.0
H1320 H 0.49543 0.45573 0.51028 0.0
C1321 C 0.44075 0.48337 0.50338 0.0
H1322 H 0.50725 0.50155 0.54109 0.0
C1323 C 0.43391 0.45703 0.48588 0.0
C1324 C 0.45341 0.44663 0.48811 0.0
H1325 H 0.42519 0.49073 0.50129 0.0
H1326 H 0.41338 0.44491 0.47048 0.0
C1327 C 0.47988 0.46309 0.50818 0.0
C1328 C 0.47075 0.00285 0.50855 0.0
C1329 C 0.48712 -0.00725 0.48841 0.0
H1330 H 0.43231 -0.00808 0.54154 0.0
C1331 C 0.47661 0.96287 0.48621 0.0
H1332 H 0.47821 0.02575 0.51064 0.0
C1333 C 0.45022 0.94346 0.50375 0.0
C1334 C 0.43384 0.95356 0.52387 0.0
H1335 H 0.48866 0.95439 0.47075 0.0
H1336 H 0.44276 0.92056 0.50165 0.0
C1337 C 0.44436 -0.01656 0.52609 0.0
C1338 C 0.44085 0.94339 1.00385 0.0
C1339 C 0.46733 0.95351 0.02398 0.0
H1340 H 0.41333 0.9543 0.97083 0.0
C1341 C 0.48668 -0.01661 0.0262 0.0
H1342 H 0.42542 0.92049 1.00176 0.0
C1343 C 0.47968 0.00278 0.00864 0.0
C1344 C 0.45322 -0.00733 0.98849 0.0
H1345 H 0.50721 -0.00813 0.04166 0.0
H1346 H 0.49512 0.02569 0.01073 0.0
C1347 C 0.43386 0.96279 0.98629 0.0
C1348 C 0.93086 0.46299 0.00843 0.0
C1349 C 0.94088 0.44657 0.98829 0.0
H1350 H 0.94194 0.50141 0.04142 0.0
C1351 C -0.02922 0.45695 0.98611 0.0
H1352 H 0.90795 0.45564 0.01051 0.0
C1353 C -0.00973 0.48327 1.00367 0.0
C1354 C -0.01975 0.49971 0.02378 0.0
H1355 H -0.0208 0.44485 0.97066 0.0
H1356 H 0.01318 0.49063 1.00158 0.0
C1357 C 0.95036 0.48931 0.02599 0.0
C1358 C 0.45034 0.49289 1.00407 0.0
C1359 C 0.43405 0.46644 0.02425 0.0
H1360 H 0.48868 0.52034 0.97085 0.0
C1361 C 0.44462 0.4471 0.02646 0.0
H1362 H 0.44284 0.50832 1.002 0.0
C1363 C 0.47097 0.45406 0.00878 0.0
C1364 C 0.48724 0.48048 0.98851 0.0
H1365 H 0.43263 0.4266 0.04197 0.0
H1366 H 0.47846 0.43862 0.01083 0.0
C1367 C 0.4767 0.49985 0.98638 0.0
C1368 C 0.26399 0.1915 0.9144 0.0
C1369 C 0.27339 0.19624 0.95455 0.0
H1370 H 0.27593 0.19777 0.85226 0.0
C1371 C 0.30341 0.21092 0.96223 0.0
H1372 H 0.24112 0.1803 0.9073 0.0
C1373 C 0.32347 0.22093 0.93064 0.0
C1374 C 0.31407 0.21664 0.8905 0.0
H1375 H 0.31153 0.21492 0.99278 0.0
H1376 H 0.34633 0.23234 0.93775 0.0
C1377 C 0.28405 0.20161 0.88281 0.0
C1378 C 0.74186 0.05823 0.9143 0.0
C1379 C 0.73708 0.0628 0.95447 0.0
H1380 H 0.73559 0.06398 0.85219 0.0
C1381 C 0.72232 0.07804 0.96221 0.0
H1382 H 0.75312 0.04663 0.90715 0.0
C1383 C 0.71228 0.08811 0.93067 0.0
C1384 C 0.71663 0.08311 0.89051 0.0
H1385 H 0.71828 0.0821 0.99278 0.0
H1386 H 0.70082 0.09951 0.93783 0.0
C1387 C 0.73172 0.06819 0.88276 0.0
C1388 C 0.86486 0.64932 0.88232 0.0
C1389 C 0.84988 0.61933 0.89005 0.0
H1390 H 0.88653 0.69221 0.90674 0.0
C1391 C 0.84481 0.60995 0.93022 0.0
H1392 H 0.86912 0.65743 0.85176 0.0
C1393 C 0.85491 0.63 0.96177 0.0
C1394 C 0.87026 0.65998 0.95404 0.0
H1395 H 0.83337 0.5871 0.93736 0.0
H1396 H 0.85082 0.62188 0.99233 0.0
C1397 C 0.87486 0.66937 0.91388 0.0
C1398 C 0.19769 0.31606 0.54997 0.0
C1399 C 0.18297 0.28608 0.55774 0.0
H1400 H 0.21914 0.35897 0.57431 0.0
C1401 C 0.17813 0.27672 0.59792 0.0
H1402 H 0.20175 0.32416 0.5194 0.0
C1403 C 0.18822 0.2968 0.62944 0.0
C1404 C 0.20333 0.32678 0.62167 0.0
H1405 H 0.1669 0.25389 0.60509 0.0
H1406 H 0.18433 0.28871 0.66002 0.0
C1407 C 0.20767 0.33613 0.58149 0.0
C1408 C 0.63688 0.87742 0.6287 0.0
C1409 C 0.60687 0.86267 0.62095 0.0
H1410 H 0.67984 0.89888 0.60432 0.0
C1411 C 0.59752 0.85777 0.58078 0.0
H1412 H 0.64497 0.88153 0.65927 0.0
C1413 C 0.61763 0.86783 0.54924 0.0
C1414 C 0.64764 0.88297 0.557 0.0
H1415 H 0.57466 0.8465 0.57363 0.0
H1416 H 0.60954 0.8639 0.51867 0.0
C1417 C 0.65698 0.88738 0.59716 0.0
C1418 C 0.06564 0.73558 0.54949 0.0
C1419 C 0.05041 0.75037 0.55716 0.0
H1420 H 0.08707 0.71408 0.57397 0.0
C1421 C 0.04591 0.75527 0.5973 0.0
H1422 H 0.06965 0.73146 0.51894 0.0
C1423 C 0.05589 0.74518 0.6289 0.0
C1424 C 0.07075 0.73002 0.62122 0.0
H1425 H 0.03433 0.76656 0.6044 0.0
H1426 H 0.05171 0.74913 0.65944 0.0
C1427 C 0.07572 0.7256 0.58107 0.0
C1428 C 0.63682 0.74504 0.12853 0.0
C1429 C 0.6068 0.72975 0.12088 0.0
H1430 H 0.67974 0.76651 0.10401 0.0
C1431 C 0.59738 0.72512 0.08074 0.0
H1432 H 0.64496 0.74915 0.15907 0.0
C1433 C 0.61743 0.73506 0.04913 0.0
C1434 C 0.64745 0.75002 0.05679 0.0
H1435 H 0.57451 0.71348 0.07367 0.0
H1436 H 0.60929 0.73081 0.01859 0.0
C1437 C 0.65687 0.75509 0.09692 0.0
C1438 C 0.17825 0.88763 0.09747 0.0
C1439 C 0.18313 0.88316 0.05731 0.0
H1440 H 0.18446 0.88182 0.15958 0.0
C1441 C 0.19798 0.86799 0.04956 0.0
H1442 H 0.16691 0.89915 0.10462 0.0
C1443 C 0.20803 0.85794 0.0811 0.0
C1444 C 0.20362 0.86288 0.12126 0.0
H1445 H 0.20208 0.86401 0.01899 0.0
H1446 H 0.21958 0.84664 0.07395 0.0
C1447 C 0.1884 0.87768 0.12902 0.0
C1448 C 0.0754 0.33613 0.08148 0.0
C1449 C 0.07044 0.32673 0.12164 0.0
H1450 H 0.06934 0.32424 0.01936 0.0
C1451 C 0.05557 0.29674 0.12934 0.0
H1452 H 0.08675 0.35898 0.07436 0.0
C1453 C 0.04559 0.2767 0.09776 0.0
C1454 C 0.05011 0.28611 0.05761 0.0
H1455 H 0.0514 0.28861 0.1599 0.0
H1456 H 0.03403 0.25386 0.10488 0.0
C1457 C 0.06532 0.3161 0.04991 0.0
C1458 C 0.72227 0.62989 0.46198 0.0
C1459 C 0.73715 0.65988 0.45423 0.0
H1460 H 0.70079 0.58699 0.43757 0.0
C1461 C 0.74222 0.66925 0.41407 0.0
H1462 H 0.71803 0.62178 0.49254 0.0
C1463 C 0.73222 0.6492 0.38253 0.0
C1464 C 0.71698 0.61921 0.39026 0.0
H1465 H 0.75358 0.69209 0.40692 0.0
H1466 H 0.7363 0.65731 0.35196 0.0
C1467 C 0.71238 0.60983 0.43043 0.0
C1468 C 0.26391 0.05886 0.41461 0.0
C1469 C 0.27327 0.06324 0.45478 0.0
H1470 H 0.27591 0.06475 0.3525 0.0
C1471 C 0.30328 0.07835 0.46251 0.0
H1472 H 0.24105 0.04738 0.40747 0.0
C1473 C 0.32338 0.08842 0.43096 0.0
C1474 C 0.31401 0.08357 0.3908 0.0
H1475 H 0.31138 0.08226 0.49308 0.0
H1476 H 0.34624 0.09968 0.43811 0.0
C1477 C 0.284 0.06883 0.38307 0.0
C1478 C 0.87432 0.19087 0.41464 0.0
C1479 C 0.87004 0.19599 0.45477 0.0
H1480 H 0.8683 0.19677 0.3525 0.0
C1481 C 0.85495 0.21093 0.46244 0.0
H1482 H 0.88578 0.17945 0.40754 0.0
C1483 C 0.84482 0.22085 0.43084 0.0
C1484 C 0.84959 0.21621 0.3907 0.0
H1485 H 0.85111 0.21521 0.49299 0.0
H1486 H 0.83359 0.2325 0.43793 0.0
C1487 C 0.86429 0.20089 0.38304 0.0
C1488 C 0.95105 0.53518 0.21587 0.0
C1489 C -0.01893 0.55032 0.2236 0.0
H1490 H 0.9081 0.51378 0.24028 0.0
C1491 C -0.00957 0.55475 0.26376 0.0
H1492 H 0.94296 0.53124 0.1853 0.0
C1493 C -0.02966 0.54476 0.29531 0.0
C1494 C 0.94033 0.52995 0.28758 0.0
H1495 H 0.01329 0.56626 0.2709 0.0
H1496 H -0.02156 0.54886 0.32588 0.0
C1497 C 0.93096 0.52508 0.24742 0.0
C1498 C 0.40865 0.39164 0.24814 0.0
C1499 C 0.40362 0.396 0.28829 0.0
H1500 H 0.40268 0.39762 0.18601 0.0
C1501 C 0.38868 0.41108 0.29598 0.0
H1502 H 0.42005 0.38017 0.24103 0.0
C1503 C 0.37874 0.42121 0.2644 0.0
C1504 C 0.38335 0.41643 0.22425 0.0
H1505 H 0.38446 0.41497 0.32653 0.0
H1506 H 0.36714 0.43248 0.27151 0.0
C1507 C 0.3986 0.40166 0.21656 0.0
C1508 C 0.52213 0.9633 0.29589 0.0
C1509 C 0.53717 -0.00671 0.28816 0.0
H1510 H 0.50081 0.92041 0.27146 0.0
C1511 C 0.54147 0.00267 0.248 0.0
H1512 H 0.51828 0.95519 0.32645 0.0
C1513 C 0.53146 -0.01737 0.21644 0.0
C1514 C 0.51677 0.95264 0.22416 0.0
H1515 H 0.55289 0.02552 0.24086 0.0
H1516 H 0.53548 -0.00925 0.18588 0.0
C1517 C 0.51202 0.94325 0.26433 0.0
C1518 C 0.39884 -0.01728 0.71636 0.0
C1519 C 0.3837 0.95272 0.72406 0.0
H1520 H 0.42018 0.02559 0.74081 0.0
C1521 C 0.37925 0.94332 0.76422 0.0
H1522 H 0.40281 -0.00916 0.68581 0.0
C1523 C 0.3892 0.96335 0.79579 0.0
C1524 C 0.40398 -0.00665 0.78809 0.0
H1525 H 0.36774 0.92047 0.77134 0.0
H1526 H 0.38507 0.95523 0.82635 0.0
C1527 C 0.4089 0.00275 0.74793 0.0
C1528 C -0.01005 0.42211 0.76404 0.0
C1529 C -0.01941 0.41703 0.72388 0.0
H1530 H -0.02203 0.41612 0.82615 0.0
C1531 C 0.95057 0.40209 0.71615 0.0
H1532 H 0.01281 0.43353 0.77117 0.0
C1533 C 0.93048 0.39212 0.74771 0.0
C1534 C 0.93986 0.39672 0.78787 0.0
H1535 H 0.94247 0.39784 0.68559 0.0
H1536 H 0.90762 0.38047 0.74059 0.0
C1537 C -0.03013 0.41204 0.79559 0.0
C1538 C 0.53093 0.53444 0.71595 0.0
C1539 C 0.51606 0.54959 0.7237 0.0
H1540 H 0.55252 0.51307 0.74035 0.0
C1541 C 0.51108 0.55397 0.76386 0.0
H1542 H 0.5351 0.53052 0.68539 0.0
C1543 C 0.52119 0.54397 0.7954 0.0
C1544 C 0.53645 0.52922 0.78766 0.0
H1545 H 0.49973 0.56547 0.771 0.0
H1546 H 0.51719 0.54806 0.82597 0.0
C1547 C 0.54092 0.52434 0.7475 0.0
C1548 C 0.15929 0.15221 0.28807 0.0
C1549 C 0.14492 0.16768 0.29641 0.0
H1550 H 0.17613 0.13598 0.24288 0.0
C1551 C 0.13405 0.17646 0.26421 0.0
H1552 H 0.16783 0.14509 0.3123 0.0
C1553 C 0.13932 0.17176 0.22446 0.0
C1554 C 0.15494 0.15754 0.21612 0.0
H1555 H 0.12302 0.18853 0.26964 0.0
H1556 H 0.13205 0.18015 0.20022 0.0
C1557 C 0.16393 0.14688 0.24832 0.0
C1558 C 0.76257 0.95365 0.22403 0.0
C1559 C 0.7767 -0.01655 0.2157 0.0
H1560 H 0.74586 0.92057 0.26921 0.0
C1561 C 0.78737 0.00307 0.2479 0.0
H1562 H 0.7542 0.93802 0.1998 0.0
C1563 C 0.78208 -0.00693 0.28764 0.0
C1564 C 0.76664 0.96326 0.29597 0.0
H1565 H 0.79822 0.02615 0.24245 0.0
H1566 H 0.78917 0.00869 0.31187 0.0
C1567 C 0.7579 0.94365 0.26377 0.0
C1568 C -0.01982 0.79411 0.22366 0.0
C1569 C 0.95035 0.77861 0.21534 0.0
H1570 H 0.01327 0.81044 0.26884 0.0
C1571 C 0.9307 0.76991 0.24754 0.0
H1572 H -0.00417 0.80117 0.19943 0.0
C1573 C 0.94069 0.7747 0.28729 0.0
C1574 C -0.02948 0.78893 0.29562 0.0
H1575 H 0.9076 0.75782 0.24211 0.0
H1576 H 0.92504 0.76637 0.31153 0.0
C1577 C -0.00983 0.79953 0.2634 0.0
C1578 C 0.76173 0.79434 0.72353 0.0
C1579 C 0.77608 0.77884 0.71524 0.0
H1580 H 0.74495 0.81066 0.76868 0.0
C1581 C 0.78704 0.77017 0.74745 0.0
H1582 H 0.75313 0.80138 0.69928 0.0
C1583 C 0.78184 0.77498 0.78719 0.0
C1584 C 0.76621 0.78918 0.79549 0.0
H1585 H 0.79807 0.75809 0.74205 0.0
H1586 H 0.78917 0.76666 0.81145 0.0
C1587 C 0.75716 0.79977 0.76326 0.0
C1588 C 0.15838 -0.00721 0.78781 0.0
C1589 C 0.14414 0.96298 0.7961 0.0
H1590 H 0.17524 0.02591 0.74269 0.0
C1591 C 0.13342 0.94339 0.76387 0.0
H1592 H 0.16679 0.0084 0.81207 0.0
C1593 C 0.13877 0.95343 0.72414 0.0
C1594 C 0.15432 -0.01676 0.71586 0.0
H1595 H 0.12248 0.92031 0.76928 0.0
H1596 H 0.13163 0.93782 0.69989 0.0
C1597 C 0.16311 0.00283 0.74809 0.0
C1598 C -0.01969 0.17187 0.72416 0.0
C1599 C 0.95046 0.1575 0.71589 0.0
H1600 H 0.01344 0.18881 0.76927 0.0
C1601 C 0.93085 0.14668 0.74814 0.0
H1602 H -0.00406 0.18036 0.69989 0.0
C1603 C 0.94088 0.15204 0.78786 0.0
C1604 C -0.02928 0.16769 0.79612 0.0
H1605 H 0.90775 0.13566 0.74275 0.0
H1606 H 0.92525 0.14482 0.81213 0.0
C1607 C -0.00966 0.1766 0.76388 0.0
C1608 C 0.80032 0.50945 0.59672 0.0
C1609 C 0.81111 0.50061 0.62895 0.0
H1610 H 0.79847 0.51323 0.53273 0.0
C1611 C 0.82543 0.48509 0.62066 0.0
H1612 H 0.78932 0.52156 0.60212 0.0
C1613 C 0.83016 0.47981 0.58093 0.0
C1614 C 0.82128 0.49056 0.5487 0.0
H1615 H 0.8339 0.47792 0.64492 0.0
H1616 H 0.84234 0.46889 0.57553 0.0
C1617 C 0.80567 0.50479 0.55699 0.0
C1618 C 0.42952 0.28694 0.5576 0.0
C1619 C 0.44366 0.31676 0.54935 0.0
H1620 H 0.41269 0.25379 0.60269 0.0
C1621 C 0.45431 0.33633 0.5816 0.0
H1622 H 0.42117 0.27135 0.53333 0.0
C1623 C 0.44895 0.32627 0.62131 0.0
C1624 C 0.43345 0.29644 0.62956 0.0
H1625 H 0.46518 0.35941 0.57621 0.0
H1626 H 0.456 0.34186 0.64558 0.0
C1627 C 0.42477 0.27688 0.59732 0.0
C1628 C 0.64691 0.12789 0.55741 0.0
C1629 C 0.61707 0.11242 0.54909 0.0
H1630 H 0.67999 0.14417 0.60259 0.0
C1631 C 0.59743 0.10378 0.58128 0.0
H1632 H 0.66256 0.13491 0.53318 0.0
C1633 C 0.60741 0.10857 0.62103 0.0
C1634 C 0.63724 0.12273 0.62936 0.0
H1635 H 0.57433 0.09172 0.57586 0.0
H1636 H 0.59175 0.10026 0.64527 0.0
C1637 C 0.6569 0.13331 0.59715 0.0
C1638 C 0.44832 0.10806 0.12123 0.0
C1639 C 0.43273 0.12231 0.12954 0.0
H1640 H 0.46455 0.09119 0.07607 0.0
C1641 C 0.42374 0.13296 0.09732 0.0
H1642 H 0.4556 0.09969 0.14548 0.0
C1643 C 0.42834 0.12757 0.05758 0.0
C1644 C 0.44266 0.11205 0.04928 0.0
H1645 H 0.41156 0.14388 0.10275 0.0
H1646 H 0.41979 0.13467 0.03334 0.0
C1647 C 0.45355 0.1033 0.08149 0.0
C1648 C 0.80022 0.27685 0.09714 0.0
C1649 C 0.81104 0.29641 0.12939 0.0
H1650 H 0.79833 0.27134 0.03314 0.0
C1651 C 0.82536 0.32623 0.12116 0.0
H1652 H 0.78922 0.25376 0.10251 0.0
C1653 C 0.83006 0.3363 0.08145 0.0
C1654 C 0.82116 0.31674 0.04919 0.0
H1655 H 0.83385 0.34181 0.14544 0.0
H1656 H 0.84225 0.35939 0.07607 0.0
C1657 C 0.80554 0.28692 0.05742 0.0
C1658 C 0.657 0.50993 0.09662 0.0
C1659 C 0.63736 0.5009 0.12885 0.0
H1660 H 0.66263 0.51386 0.03264 0.0
C1661 C 0.60753 0.48525 0.12056 0.0
H1662 H 0.6801 0.52215 0.10205 0.0
C1663 C 0.59752 0.47998 0.08083 0.0
C1664 C 0.61715 0.49089 0.0486 0.0
H1665 H 0.59189 0.47794 0.14482 0.0
H1666 H 0.57442 0.46893 0.07542 0.0
C1667 C 0.64699 0.50529 0.05689 0.0
C1668 C 0.49705 0.81353 0.91446 0.0
C1669 C 0.4882 0.82435 0.88226 0.0
H1670 H 0.50082 0.81159 0.97843 0.0
C1671 C 0.4727 0.83867 0.89062 0.0
H1672 H 0.50916 0.80254 0.909 0.0
C1673 C 0.46739 0.84334 0.93037 0.0
C1674 C 0.47813 0.8344 0.96257 0.0
H1675 H 0.46553 0.84717 0.86639 0.0
H1676 H 0.45646 0.8555 0.93583 0.0
C1677 C 0.49238 0.81883 0.95421 0.0
C1678 C 0.11574 0.65936 0.95414 0.0
C1679 C 0.10003 0.62955 0.96242 0.0
H1680 H 0.13198 0.69248 0.90903 0.0
C1681 C 0.09092 0.60996 0.93019 0.0
H1682 H 0.12311 0.67496 0.97841 0.0
C1683 C 0.09549 0.62 0.89047 0.0
C1684 C 0.10987 0.64983 0.8822 0.0
H1685 H 0.07866 0.58688 0.9356 0.0
H1686 H 0.08683 0.60441 0.86622 0.0
C1687 C 0.12092 0.6694 0.91442 0.0
C1688 C 0.32373 0.46644 0.9306 0.0
C1689 C 0.30408 0.45587 0.96282 0.0
H1690 H 0.32938 0.46812 0.86662 0.0
C1691 C 0.27425 0.44176 0.9545 0.0
H1692 H 0.34683 0.47727 0.93605 0.0
C1693 C 0.26426 0.43704 0.91476 0.0
C1694 C 0.2839 0.4457 0.88255 0.0
H1695 H 0.2586 0.43346 0.97875 0.0
H1696 H 0.24116 0.42503 0.90934 0.0
C1697 C 0.31374 0.46109 0.89086 0.0
C1698 C 0.1152 0.44143 0.45473 0.0
C1699 C 0.0997 0.45578 0.463 0.0
H1700 H 0.13137 0.42448 0.40961 0.0
C1701 C 0.09086 0.46656 0.43075 0.0
H1702 H 0.12236 0.43296 0.479 0.0
C1703 C 0.09551 0.46118 0.39103 0.0
C1704 C 0.10971 0.44555 0.38276 0.0
H1705 H 0.07877 0.47757 0.43614 0.0
H1706 H 0.08707 0.46838 0.36676 0.0
C1707 C 0.12047 0.43668 0.415 0.0
C1708 C 0.49669 0.66967 0.41452 0.0
C1709 C 0.48799 0.6501 0.38229 0.0
H1710 H 0.50017 0.6752 0.47852 0.0
C1711 C 0.4724 0.62028 0.39053 0.0
H1712 H 0.50883 0.69276 0.40914 0.0
C1713 C 0.46692 0.61022 0.43024 0.0
C1714 C 0.47755 0.62979 0.46249 0.0
H1715 H 0.46533 0.60469 0.36626 0.0
H1716 H 0.45597 0.58714 0.43562 0.0
C1717 C 0.49182 0.65961 0.45424 0.0
C1718 C 0.32345 0.84302 0.4305 0.0
C1719 C 0.30381 0.83423 0.46271 0.0
H1720 H 0.3291 0.84669 0.36651 0.0
C1721 C 0.27397 0.8187 0.4544 0.0
H1722 H 0.34655 0.85513 0.43592 0.0
C1723 C 0.26397 0.81334 0.41467 0.0
C1724 C 0.28362 0.82404 0.38245 0.0
H1725 H 0.25832 0.81157 0.47865 0.0
H1726 H 0.24087 0.80242 0.40924 0.0
C1727 C 0.31345 0.83829 0.39076 0.0
C1728 C 0.28552 0.2916 0.08955 0.0
C1729 C 0.25517 0.27624 0.09129 0.0
H1730 H 0.32391 0.33264 0.08604 0.0
C1731 C 0.24006 0.29154 0.09061 0.0
H1732 H 0.29787 0.28052 0.08979 0.0
C1733 C 0.25513 0.32169 0.0883 0.0
C1734 C 0.28551 0.33697 0.0866 0.0
H1735 H 0.21665 0.28027 0.09169 0.0
H1736 H 0.24298 0.33297 0.08812 0.0
C1737 C 0.3005 0.32158 0.08716 0.0
C1738 C 0.61217 0.96485 0.08898 0.0
C1739 C 0.59681 0.93452 0.08731 0.0
H1740 H 0.65321 0.00321 0.0925 0.0
C1741 C 0.61214 0.91945 0.08811 0.0
H1742 H 0.60106 -0.02284 0.08864 0.0
C1743 C 0.64231 0.93452 0.09048 0.0
C1744 C 0.65758 0.96487 0.09212 0.0
H1745 H 0.60088 0.89606 0.08709 0.0
H1746 H 0.65363 0.9224 0.09075 0.0
C1747 C 0.64216 -0.02018 0.09143 0.0
C1748 C 0.9541 0.64813 0.08752 0.0
C1749 C -0.031 0.67842 0.09009 0.0
H1750 H 0.9569 0.60985 0.08338 0.0
C1751 C -0.00059 0.69353 0.09011 0.0
H1752 H 0.93068 0.63579 0.08715 0.0
C1753 C 0.01458 0.67852 0.08779 0.0
C1754 C -0.00044 0.64819 0.08539 0.0
H1755 H 0.0115 0.7169 0.09182 0.0
H1756 H 0.03801 0.69066 0.08825 0.0
C1757 C -0.03082 0.63321 0.08513 0.0
C1758 C 0.30883 0.31301 0.42678 0.0
C1759 C 0.32427 0.29806 0.42664 0.0
H1760 H 0.26773 0.31038 0.42466 0.0
C1761 C 0.309 0.26773 0.42436 0.0
H1762 H 0.31989 0.33638 0.42843 0.0
C1763 C 0.27882 0.25268 0.42204 0.0
C1764 C 0.26349 0.26776 0.42193 0.0
H1765 H 0.32032 0.25562 0.424 0.0
H1766 H 0.26757 0.22931 0.42042 0.0
C1767 C 0.27884 0.29806 0.42439 0.0
C1768 C 0.68108 0.01185 0.42126 0.0
C1769 C 0.66601 -0.01852 0.42044 0.0
H1770 H 0.67811 0.05033 0.42397 0.0
C1771 C 0.63565 0.96652 0.42212 0.0
H1772 H 0.7045 0.02398 0.42023 0.0
C1773 C 0.62065 -0.01849 0.42462 0.0
C1774 C 0.6356 0.01185 0.42534 0.0
H1775 H 0.62333 0.94312 0.42177 0.0
H1776 H 0.59724 0.96918 0.42571 0.0
C1777 C 0.66599 0.02693 0.42368 0.0
C1778 C -0.03294 0.6549 0.42219 0.0
C1779 C 0.95207 0.67026 0.42037 0.0
H1780 H -0.03557 0.61386 0.42573 0.0
C1781 C 0.92167 0.65495 0.42091 0.0
H1782 H -0.00951 0.66598 0.42206 0.0
C1783 C 0.90659 0.6248 0.42317 0.0
C1784 C 0.92169 0.60952 0.42496 0.0
H1785 H 0.90951 0.66621 0.41976 0.0
H1786 H 0.88316 0.61351 0.42324 0.0
C1787 C 0.95207 0.62492 0.42453 0.0
C1788 C 0.6657 0.62486 0.923 0.0
C1789 C 0.63529 0.60958 0.92362 0.0
H1790 H 0.70424 0.66627 0.92061 0.0
C1791 C 0.62033 0.62498 0.92178 0.0
H1792 H 0.67783 0.61357 0.92415 0.0
C1793 C 0.63536 0.65495 0.91941 0.0
C1794 C 0.66574 0.67032 0.91896 0.0
H1795 H 0.59691 0.61392 0.92196 0.0
H1796 H 0.62304 0.66604 0.91823 0.0
C1797 C 0.68081 0.655 0.92071 0.0
C1798 C 0.2784 0.96624 0.9209 0.0
C1799 C 0.263 -0.01879 0.91999 0.0
H1800 H 0.3195 0.96888 0.92387 0.0
C1801 C 0.27829 0.01157 0.92148 0.0
H1802 H 0.26733 0.94285 0.91997 0.0
C1803 C 0.30845 0.02663 0.92388 0.0
C1804 C 0.32377 0.01154 0.92486 0.0
H1805 H 0.26699 0.0237 0.92105 0.0
H1806 H 0.31973 0.05002 0.92476 0.0
C1807 C 0.3084 -0.01879 0.92338 0.0
C1808 C 0.95214 0.31338 0.92318 0.0
C1809 C 0.92178 0.29843 0.92476 0.0
H1810 H -0.00944 0.3107 0.91977 0.0
C1811 C 0.9067 0.26806 0.9239 0.0
H1812 H -0.03553 0.33678 0.92358 0.0
C1813 C 0.92179 0.25298 0.92156 0.0
C1814 C 0.95217 0.26804 0.92 0.0
H1815 H 0.88328 0.25594 0.92485 0.0
H1816 H 0.90965 0.22957 0.92123 0.0
C1817 C -0.03286 0.29839 0.92076 0.0
C1818 C 0.64176 0.69347 0.59 0.0
C1819 C 0.65706 0.67837 0.59128 0.0
H1820 H 0.6003 0.69055 0.58703 0.0
C1821 C 0.64167 0.64804 0.59027 0.0
H1822 H 0.65305 0.71687 0.59051 0.0
C1823 C 0.61167 0.63307 0.58794 0.0
C1824 C 0.59628 0.64804 0.58669 0.0
H1825 H 0.65275 0.6357 0.59104 0.0
H1826 H 0.60059 0.60967 0.58736 0.0
C1827 C 0.61158 0.67841 0.58774 0.0
C1828 C 0.255 0.91953 0.58819 0.0
C1829 C 0.2854 0.93461 0.5871 0.0
H1830 H 0.21647 0.92247 0.5911 0.0
C1831 C 0.30036 0.96494 0.58844 0.0
H1832 H 0.24287 0.89613 0.58742 0.0
C1833 C 0.28534 -0.02008 0.59091 0.0
C1834 C 0.25497 0.96496 0.59193 0.0
H1835 H 0.32378 -0.02274 0.58786 0.0
H1836 H 0.29767 0.00331 0.59173 0.0
C1837 C 0.2399 0.9346 0.59057 0.0
C1838 C -0.03126 0.32162 0.58787 0.0
C1839 C -0.00089 0.33699 0.58697 0.0
H1840 H 0.93031 0.28057 0.59067 0.0
C1841 C 0.0142 0.32169 0.58832 0.0
H1842 H 0.9564 0.3327 0.58705 0.0
C1843 C -0.00089 0.29154 0.59055 0.0
C1844 C -0.03129 0.27625 0.5915 0.0
H1845 H 0.03763 0.33296 0.58788 0.0
H1846 H 0.01126 0.28025 0.59132 0.0
C1847 C 0.95374 0.29164 0.59017 0.0
C1848 C 0.94521 0.58597 0.75482 0.0
C1849 C 0.92986 0.601 0.75296 0.0
H1850 H -0.01329 0.58902 0.75843 0.0
C1851 C 0.94519 0.63134 0.75349 0.0
H1852 H 0.93397 0.56257 0.75468 0.0
C1853 C -0.02482 0.64639 0.75599 0.0
C1854 C -0.00937 0.63148 0.75788 0.0
H1855 H 0.93407 0.64363 0.75224 0.0
H1856 H -0.01378 0.66979 0.75619 0.0
C1857 C -0.02462 0.60111 0.75724 0.0
C1858 C 0.30223 0.29997 0.75333 0.0
C1859 C 0.3326 0.3149 0.75285 0.0
H1860 H 0.26381 0.30266 0.75597 0.0
C1861 C 0.3477 0.34525 0.75466 0.0
H1862 H 0.28989 0.27659 0.7521 0.0
C1863 C 0.33261 0.36034 0.75703 0.0
C1864 C 0.30221 0.34529 0.75767 0.0
H1865 H 0.37113 0.35735 0.75455 0.0
H1866 H 0.34476 0.38373 0.75822 0.0
C1867 C 0.28723 0.31497 0.75579 0.0
C1868 C 0.58823 -0.01157 0.75468 0.0
C1869 C 0.6186 0.00373 0.75246 0.0
H1870 H 0.54981 0.94699 0.75847 0.0
C1871 C 0.63361 -0.01164 0.75231 0.0
H1872 H 0.57608 -0.0003 0.75505 0.0
C1873 C 0.61868 0.95838 0.75462 0.0
C1874 C 0.58834 0.94299 0.75698 0.0
H1875 H 0.65701 -0.00056 0.75072 0.0
H1876 H 0.63104 0.94732 0.75433 0.0
C1877 C 0.57321 0.95827 0.75691 0.0
C1878 C 0.30199 -0.01182 0.25507 0.0
C1879 C 0.33236 0.00356 0.25382 0.0
H1880 H 0.26359 0.94713 0.25814 0.0
C1881 C 0.34747 -0.01173 0.25485 0.0
H1882 H 0.28964 -0.00074 0.25452 0.0
C1883 C 0.3324 0.95812 0.25709 0.0
C1884 C 0.30201 0.94283 0.25836 0.0
H1885 H 0.37089 -0.00046 0.25414 0.0
H1886 H 0.34455 0.94685 0.25758 0.0
C1887 C 0.28701 0.95821 0.25738 0.0
C1888 C 0.94534 0.29959 0.25618 0.0
C1889 C 0.92992 0.31452 0.25421 0.0
H1890 H -0.01355 0.30232 0.26 0.0
C1891 C 0.94519 0.3449 0.25483 0.0
H1892 H 0.93428 0.27619 0.25601 0.0
C1893 C -0.02464 0.36001 0.25728 0.0
C1894 C -0.00931 0.34497 0.25919 0.0
H1895 H 0.93388 0.357 0.25358 0.0
H1896 H -0.01339 0.38341 0.25738 0.0
C1897 C -0.02466 0.31462 0.25871 0.0
C1898 C 0.61914 0.64666 0.25659 0.0
C1899 C 0.58878 0.63176 0.25809 0.0
H1900 H 0.65751 0.6439 0.25311 0.0
C1901 C 0.57365 0.60139 0.25707 0.0
H1902 H 0.6315 0.67006 0.25712 0.0
C1903 C 0.58869 0.58626 0.2546 0.0
C1904 C 0.61907 0.60128 0.25309 0.0
H1905 H 0.55023 0.5893 0.25795 0.0
H1906 H 0.57651 0.56286 0.25413 0.0
C1907 C 0.63409 0.63162 0.25405 0.0
loop_
_geom_bond_atom_site_label_1
_geom_bond_atom_site_label_2
_geom_bond_distance
_geom_bond_site_symmetry_2
_ccdc_geom_bond_type
O0 Zn1 1.953 . S
O0 C16 1.225 1_554 S
Zn1 O0 1.953 . S
Zn1 O2 1.949 . S
Zn1 O8 1.919 . S
Zn1 O13 1.924 . S
O2 Zn1 1.949 . S
O2 Zn3 1.923 . S
O2 Zn4 1.950 . S
O2 Zn5 1.945 . S
Zn3 O2 1.923 . S
Zn3 O6 1.933 . S
Zn3 O9 1.941 . S
Zn3 O10 1.965 . S
Zn4 O2 1.950 . S
Zn4 O11 1.938 . S
Zn4 O12 1.906 . S
Zn4 O22 1.953 1_554 S
Zn5 O2 1.945 . S
Zn5 O7 1.932 . S
Zn5 O14 1.977 . S
Zn5 O15 1.910 . S
O6 Zn3 1.933 . S
O6 C17 1.226 . S
O7 Zn5 1.932 . S
O7 C17 1.307 . S
O8 Zn1 1.919 . S
O8 C19 1.253 . S
O9 Zn3 1.941 . S
O9 C19 1.283 . S
O10 Zn3 1.965 . S
O10 C18 1.303 . S
O11 Zn4 1.938 . S
O11 C18 1.247 . S
O12 Zn4 1.906 . S
O12 C20 1.304 . S
O13 Zn1 1.924 . S
O13 C21 1.311 . S
O14 Zn5 1.977 . S
O14 C20 1.272 . S
O15 Zn5 1.910 . S
O15 C21 1.231 . S
C16 O0 1.225 1_556 S
C16 O22 1.298 . S
C17 O6 1.226 . S
C17 O7 1.307 . S
C18 O10 1.303 . S
C18 O11 1.247 . S
C19 O8 1.253 . S
C19 O9 1.283 . S
C20 O12 1.304 . S
C20 O14 1.272 . S
C21 O13 1.311 . S
C21 O15 1.231 . S
O22 Zn4 1.953 1_556 S
O22 C16 1.298 . S
O23 Zn24 1.953 . S
O23 C39 1.225 1_554 S
Zn24 O23 1.953 . S
Zn24 O25 1.949 . S
Zn24 O31 1.919 . S
Zn24 O36 1.924 . S
O25 Zn24 1.949 . S
O25 Zn26 1.923 . S
O25 Zn27 1.950 . S
O25 Zn28 1.945 . S
Zn26 O25 1.923 . S
Zn26 O29 1.933 . S
Zn26 O32 1.941 . S
Zn26 O33 1.965 . S
Zn27 O25 1.950 . S
Zn27 O34 1.938 . S
Zn27 O35 1.906 . S
Zn27 O45 1.953 1_554 S
Zn28 O25 1.945 . S
Zn28 O30 1.932 . S
Zn28 O37 1.977 1_545 S
Zn28 O38 1.906 . S
O29 Zn26 1.933 . S
O29 C40 1.226 . S
O30 Zn28 1.932 . S
O30 C40 1.307 . S
O31 Zn24 1.919 . S
O31 C42 1.253 . S
O32 Zn26 1.941 . S
O32 C42 1.283 . S
O33 Zn26 1.965 . S
O33 C41 1.303 . S
O34 Zn27 1.938 . S
O34 C41 1.247 . S
O35 Zn27 1.906 . S
O35 C43 1.304 1_545 S
O36 Zn24 1.924 . S
O36 C44 1.311 . S
O37 Zn28 1.977 1_565 S
O37 C43 1.272 . S
O38 Zn28 1.906 . S
O38 C44 1.247 . S
C39 O23 1.225 1_556 S
C39 O45 1.298 . S
C40 O29 1.226 . S
C40 O30 1.307 . S
C41 O33 1.303 . S
C41 O34 1.247 . S
C42 O31 1.253 . S
C42 O32 1.283 . S
C43 O35 1.304 1_565 S
C43 O37 1.272 . S
C44 O36 1.311 . S
C44 O38 1.247 . S
O45 Zn27 1.953 1_556 S
O45 C39 1.298 . S
O46 Zn47 1.953 . S
O46 C62 1.225 1_554 S
Zn47 O46 1.953 . S
Zn47 O48 1.949 . S
Zn47 O54 1.919 . S
Zn47 O59 1.924 . S
O48 Zn47 1.949 . S
O48 Zn49 1.923 . S
O48 Zn50 1.950 . S
O48 Zn51 1.945 . S
Zn49 O48 1.923 . S
Zn49 O52 1.933 . S
Zn49 O55 1.941 . S
Zn49 O56 1.965 . S
Zn50 O48 1.950 . S
Zn50 O57 1.938 . S
Zn50 O58 1.906 . S
Zn50 O68 1.953 1_554 S
Zn51 O48 1.945 . S
Zn51 O53 1.932 . S
Zn51 O60 1.977 1_655 S
Zn51 O61 1.923 . S
O52 Zn49 1.933 . S
O52 C63 1.226 . S
O53 Zn51 1.932 . S
O53 C63 1.307 . S
O54 Zn47 1.919 . S
O54 C65 1.253 . S
O55 Zn49 1.941 . S
O55 C65 1.283 . S
O56 Zn49 1.965 . S
O56 C64 1.303 . S
O57 Zn50 1.938 . S
O57 C64 1.247 . S
O58 Zn50 1.906 . S
O58 C66 1.304 1_655 S
O59 Zn47 1.924 . S
O59 C67 1.311 . S
O60 Zn51 1.977 1_455 S
O60 C66 1.272 . S
O61 Zn51 1.923 . S
O61 C67 1.233 . S
C62 O46 1.225 1_556 S
C62 O68 1.298 . S
C63 O52 1.226 . S
C63 O53 1.307 . S
C64 O56 1.303 . S
C64 O57 1.247 . S
C65 O54 1.253 . S
C65 O55 1.283 . S
C66 O58 1.304 1_455 S
C66 O60 1.272 . S
C67 O59 1.311 . S
C67 O61 1.233 . S
O68 Zn50 1.953 1_556 S
O68 C62 1.298 . S
O69 Zn70 1.953 . S
O69 C85 1.225 . S
Zn70 O69 1.953 . S
Zn70 O71 1.949 . S
Zn70 O77 1.919 . S
Zn70 O82 1.924 . S
O71 Zn70 1.949 . S
O71 Zn72 1.923 . S
O71 Zn73 1.950 . S
O71 Zn74 1.945 . S
Zn72 O71 1.923 . S
Zn72 O75 1.933 . S
Zn72 O78 1.941 . S
Zn72 O79 1.965 . S
Zn73 O71 1.950 . S
Zn73 O80 1.938 . S
Zn73 O81 1.906 . S
Zn73 O91 1.953 . S
Zn74 O71 1.945 . S
Zn74 O76 1.932 . S
Zn74 O83 1.977 . S
Zn74 O84 1.910 . S
O75 Zn72 1.933 . S
O75 C86 1.226 . S
O76 Zn74 1.932 . S
O76 C86 1.307 . S
O77 Zn70 1.919 . S
O77 C88 1.253 . S
O78 Zn72 1.941 . S
O78 C88 1.283 . S
O79 Zn72 1.965 . S
O79 C87 1.303 . S
O80 Zn73 1.938 . S
O80 C87 1.247 . S
O81 Zn73 1.906 . S
O81 C89 1.304 . S
O82 Zn70 1.924 . S
O82 C90 1.311 . S
O83 Zn74 1.977 . S
O83 C89 1.272 . S
O84 Zn74 1.910 . S
O84 C90 1.231 . S
C85 O69 1.225 . S
C85 O91 1.298 . S
C86 O75 1.226 . S
C86 O76 1.307 . S
C87 O79 1.303 . S
C87 O80 1.247 . S
C88 O77 1.253 . S
C88 O78 1.283 . S
C89 O81 1.304 . S
C89 O83 1.272 . S
C90 O82 1.311 . S
C90 O84 1.231 . S
O91 Zn73 1.953 . S
O91 C85 1.298 . S
O92 Zn93 1.953 . S
O92 C108 1.225 . S
Zn93 O92 1.953 . S
Zn93 O94 1.949 . S
Zn93 O100 1.919 . S
Zn93 O105 1.924 . S
O94 Zn93 1.949 . S
O94 Zn95 1.923 . S
O94 Zn96 1.950 . S
O94 Zn97 1.945 . S
Zn95 O94 1.923 . S
Zn95 O98 1.933 . S
Zn95 O101 1.941 . S
Zn95 O102 1.965 . S
Zn96 O94 1.950 . S
Zn96 O103 1.938 . S
Zn96 O104 1.906 . S
Zn96 O114 1.953 . S
Zn97 O94 1.945 . S
Zn97 O99 1.932 . S
Zn97 O106 1.977 1_565 S
Zn97 O107 1.923 . S
O98 Zn95 1.933 . S
O98 C109 1.226 . S
O99 Zn97 1.932 . S
O99 C109 1.307 . S
O100 Zn93 1.919 . S
O100 C111 1.253 . S
O101 Zn95 1.941 . S
O101 C111 1.283 . S
O102 Zn95 1.965 . S
O102 C110 1.303 . S
O103 Zn96 1.938 . S
O103 C110 1.247 . S
O104 Zn96 1.906 . S
O104 C112 1.304 1_565 S
O105 Zn93 1.924 . S
O105 C113 1.311 . S
O106 Zn97 1.977 1_545 S
O106 C112 1.272 . S
O107 Zn97 1.923 . S
O107 C113 1.233 . S
C108 O92 1.225 . S
C108 O114 1.298 . S
C109 O98 1.226 . S
C109 O99 1.307 . S
C110 O102 1.303 . S
C110 O103 1.247 . S
C111 O100 1.253 . S
C111 O101 1.283 . S
C112 O104 1.304 1_545 S
C112 O106 1.272 . S
C113 O105 1.311 . S
C113 O107 1.233 . S
O114 Zn96 1.953 . S
O114 C108 1.298 . S
O115 Zn116 1.953 . S
O115 C131 1.225 . S
Zn116 O115 1.953 . S
Zn116 O117 1.949 . S
Zn116 O123 1.919 . S
Zn116 O128 1.924 . S
O117 Zn116 1.949 . S
O117 Zn118 1.923 . S
O117 Zn119 1.950 . S
O117 Zn120 1.945 . S
Zn118 O117 1.923 . S
Zn118 O121 1.933 . S
Zn118 O124 1.941 . S
Zn118 O125 1.965 . S
Zn119 O117 1.950 . S
Zn119 O126 1.938 . S
Zn119 O127 1.906 . S
Zn119 O137 1.953 . S
Zn120 O117 1.945 . S
Zn120 O122 1.932 . S
Zn120 O129 1.977 1_455 S
Zn120 O130 1.906 . S
O121 Zn118 1.933 . S
O121 C132 1.226 . S
O122 Zn120 1.932 . S
O122 C132 1.307 . S
O123 Zn116 1.919 . S
O123 C134 1.253 . S
O124 Zn118 1.941 . S
O124 C134 1.283 . S
O125 Zn118 1.965 . S
O125 C133 1.303 . S
O126 Zn119 1.938 . S
O126 C133 1.247 . S
O127 Zn119 1.906 . S
O127 C135 1.304 1_455 S
O128 Zn116 1.924 . S
O128 C136 1.311 . S
O129 Zn120 1.977 1_655 S
O129 C135 1.272 . S
O130 Zn120 1.906 . S
O130 C136 1.247 . S
C131 O115 1.225 . S
C131 O137 1.298 . S
C132 O121 1.226 . S
C132 O122 1.307 . S
C133 O125 1.303 . S
C133 O126 1.247 . S
C134 O123 1.253 . S
C134 O124 1.283 . S
C135 O127 1.304 1_655 S
C135 O129 1.272 . S
C136 O128 1.311 . S
C136 O130 1.247 . S
O137 Zn119 1.953 . S
O137 C131 1.298 . S
O138 Zn139 1.953 . S
O138 C154 1.225 1_556 S
Zn139 O138 1.953 . S
Zn139 O140 1.949 . S
Zn139 O146 1.919 . S
Zn139 O151 1.924 . S
O140 Zn139 1.949 . S
O140 Zn141 1.923 . S
O140 Zn142 1.950 . S
O140 Zn143 1.945 . S
Zn141 O140 1.923 . S
Zn141 O144 1.933 . S
Zn141 O147 1.941 . S
Zn141 O148 1.965 . S
Zn142 O140 1.950 . S
Zn142 O149 1.938 . S
Zn142 O150 1.906 . S
Zn142 O160 1.953 1_556 S
Zn143 O140 1.945 . S
Zn143 O145 1.932 . S
Zn143 O152 1.977 . S
Zn143 O153 1.910 . S
O144 Zn141 1.933 . S
O144 C155 1.226 . S
O145 Zn143 1.932 . S
O145 C155 1.307 . S
O146 Zn139 1.919 . S
O146 C157 1.253 . S
O147 Zn141 1.941 . S
O147 C157 1.283 . S
O148 Zn141 1.965 . S
O148 C156 1.303 . S
O149 Zn142 1.938 . S
O149 C156 1.247 . S
O150 Zn142 1.906 . S
O150 C158 1.304 . S
O151 Zn139 1.924 . S
O151 C159 1.311 . S
O152 Zn143 1.977 . S
O152 C158 1.272 . S
O153 Zn143 1.910 . S
O153 C159 1.231 . S
C154 O138 1.225 1_554 S
C154 O160 1.298 . S
C155 O144 1.226 . S
C155 O145 1.307 . S
C156 O148 1.303 . S
C156 O149 1.247 . S
C157 O146 1.253 . S
C157 O147 1.283 . S
C158 O150 1.304 . S
C158 O152 1.272 . S
C159 O151 1.311 . S
C159 O153 1.231 . S
O160 Zn142 1.953 1_554 S
O160 C154 1.298 . S
O161 Zn162 1.953 . S
O161 C177 1.225 1_556 S
Zn162 O161 1.953 . S
Zn162 O163 1.949 . S
Zn162 O169 1.919 . S
Zn162 O174 1.924 . S
O163 Zn162 1.949 . S
O163 Zn164 1.923 . S
O163 Zn165 1.950 . S
O163 Zn166 1.945 . S
Zn164 O163 1.923 . S
Zn164 O167 1.933 . S
Zn164 O170 1.941 . S
Zn164 O171 1.965 . S
Zn165 O163 1.950 . S
Zn165 O172 1.938 . S
Zn165 O173 1.906 . S
Zn165 O183 1.953 1_556 S
Zn166 O163 1.945 . S
Zn166 O168 1.932 . S
Zn166 O175 1.977 1_565 S
Zn166 O176 1.906 . S
O167 Zn164 1.933 . S
O167 C178 1.226 . S
O168 Zn166 1.932 . S
O168 C178 1.307 . S
O169 Zn162 1.919 . S
O169 C180 1.253 . S
O170 Zn164 1.941 . S
O170 C180 1.283 . S
O171 Zn164 1.965 . S
O171 C179 1.303 . S
O172 Zn165 1.938 . S
O172 C179 1.247 . S
O173 Zn165 1.906 . S
O173 C181 1.304 1_565 S
O174 Zn162 1.924 . S
O174 C182 1.311 . S
O175 Zn166 1.977 1_545 S
O175 C181 1.272 . S
O176 Zn166 1.906 . S
O176 C182 1.247 . S
C177 O161 1.225 1_554 S
C177 O183 1.298 . S
C178 O167 1.226 . S
C178 O168 1.307 . S
C179 O171 1.303 . S
C179 O172 1.247 . S
C180 O169 1.253 . S
C180 O170 1.283 . S
C181 O173 1.304 1_545 S
C181 O175 1.272 . S
C182 O174 1.311 . S
C182 O176 1.247 . S
O183 Zn165 1.953 1_554 S
O183 C177 1.298 . S
O184 Zn185 1.953 . S
O184 C200 1.225 1_556 S
Zn185 O184 1.953 . S
Zn185 O186 1.949 . S
Zn185 O192 1.919 . S
Zn185 O197 1.924 . S
O186 Zn185 1.949 . S
O186 Zn187 1.923 . S
O186 Zn188 1.950 . S
O186 Zn189 1.945 . S
Zn187 O186 1.923 . S
Zn187 O190 1.933 . S
Zn187 O193 1.941 . S
Zn187 O194 1.965 . S
Zn188 O186 1.950 . S
Zn188 O195 1.938 . S
Zn188 O196 1.906 . S
Zn188 O206 1.953 1_556 S
Zn189 O186 1.945 . S
Zn189 O191 1.932 . S
Zn189 O198 1.977 1_455 S
Zn189 O199 1.923 . S
O190 Zn187 1.933 . S
O190 C201 1.226 . S
O191 Zn189 1.932 . S
O191 C201 1.307 . S
O192 Zn185 1.919 . S
O192 C203 1.253 . S
O193 Zn187 1.941 . S
O193 C203 1.283 . S
O194 Zn187 1.965 . S
O194 C202 1.303 . S
O195 Zn188 1.938 . S
O195 C202 1.247 . S
O196 Zn188 1.906 . S
O196 C204 1.304 1_455 S
O197 Zn185 1.924 . S
O197 C205 1.311 . S
O198 Zn189 1.977 1_655 S
O198 C204 1.272 . S
O199 Zn189 1.923 . S
O199 C205 1.233 . S
C200 O184 1.225 1_554 S
C200 O206 1.298 . S
C201 O190 1.226 . S
C201 O191 1.307 . S
C202 O194 1.303 . S
C202 O195 1.247 . S
C203 O192 1.253 . S
C203 O193 1.283 . S
C204 O196 1.304 1_655 S
C204 O198 1.272 . S
C205 O197 1.311 . S
C205 O199 1.233 . S
O206 Zn188 1.953 1_554 S
O206 C200 1.298 . S
O207 Zn208 1.953 . S
O207 C223 1.225 . S
Zn208 O207 1.953 . S
Zn208 O209 1.949 . S
Zn208 O215 1.919 . S
Zn208 O220 1.924 . S
O209 Zn208 1.949 . S
O209 Zn210 1.923 . S
O209 Zn211 1.950 . S
O209 Zn212 1.945 . S
Zn210 O209 1.923 . S
Zn210 O213 1.933 . S
Zn210 O216 1.941 . S
Zn210 O217 1.965 . S
Zn211 O209 1.950 . S
Zn211 O218 1.938 . S
Zn211 O219 1.906 . S
Zn211 O229 1.953 . S
Zn212 O209 1.945 . S
Zn212 O214 1.932 . S
Zn212 O221 1.977 . S
Zn212 O222 1.910 . S
O213 Zn210 1.933 . S
O213 C224 1.226 . S
O214 Zn212 1.932 . S
O214 C224 1.307 . S
O215 Zn208 1.919 . S
O215 C226 1.253 . S
O216 Zn210 1.941 . S
O216 C226 1.283 . S
O217 Zn210 1.965 . S
O217 C225 1.303 . S
O218 Zn211 1.938 . S
O218 C225 1.247 . S
O219 Zn211 1.906 . S
O219 C227 1.304 . S
O220 Zn208 1.924 . S
O220 C228 1.311 . S
O221 Zn212 1.977 . S
O221 C227 1.272 . S
O222 Zn212 1.910 . S
O222 C228 1.231 . S
C223 O207 1.225 . S
C223 O229 1.298 . S
C224 O213 1.226 . S
C224 O214 1.307 . S
C225 O217 1.303 . S
C225 O218 1.247 . S
C226 O215 1.253 . S
C226 O216 1.283 . S
C227 O219 1.304 . S
C227 O221 1.272 . S
C228 O220 1.311 . S
C228 O222 1.231 . S
O229 Zn211 1.953 . S
O229 C223 1.298 . S
O230 Zn231 1.953 . S
O230 C246 1.225 . S
Zn231 O230 1.953 . S
Zn231 O232 1.949 . S
Zn231 O238 1.919 . S
Zn231 O243 1.924 . S
O232 Zn231 1.949 . S
O232 Zn233 1.923 . S
O232 Zn234 1.950 . S
O232 Zn235 1.945 . S
Zn233 O232 1.923 . S
Zn233 O236 1.933 . S
Zn233 O239 1.941 . S
Zn233 O240 1.965 . S
Zn234 O232 1.950 . S
Zn234 O241 1.938 . S
Zn234 O242 1.906 . S
Zn234 O252 1.953 . S
Zn235 O232 1.945 . S
Zn235 O237 1.932 . S
Zn235 O244 1.977 1_545 S
Zn235 O245 1.923 . S
O236 Zn233 1.933 . S
O236 C247 1.226 . S
O237 Zn235 1.932 . S
O237 C247 1.307 . S
O238 Zn231 1.919 . S
O238 C249 1.253 . S
O239 Zn233 1.941 . S
O239 C249 1.283 . S
O240 Zn233 1.965 . S
O240 C248 1.303 . S
O241 Zn234 1.938 . S
O241 C248 1.247 . S
O242 Zn234 1.906 . S
O242 C250 1.304 1_545 S
O243 Zn231 1.924 . S
O243 C251 1.311 . S
O244 Zn235 1.977 1_565 S
O244 C250 1.272 . S
O245 Zn235 1.923 . S
O245 C251 1.233 . S
C246 O230 1.225 . S
C246 O252 1.298 . S
C247 O236 1.226 . S
C247 O237 1.307 . S
C248 O240 1.303 . S
C248 O241 1.247 . S
C249 O238 1.253 . S
C249 O239 1.283 . S
C250 O242 1.304 1_565 S
C250 O244 1.272 . S
C251 O243 1.311 . S
C251 O245 1.233 . S
O252 Zn234 1.953 . S
O252 C246 1.298 . S
O253 Zn254 1.953 . S
O253 C269 1.225 . S
Zn254 O253 1.953 . S
Zn254 O255 1.949 . S
Zn254 O261 1.919 . S
Zn254 O266 1.924 . S
O255 Zn254 1.949 . S
O255 Zn256 1.923 . S
O255 Zn257 1.950 . S
O255 Zn258 1.945 . S
Zn256 O255 1.923 . S
Zn256 O259 1.933 . S
Zn256 O262 1.941 . S
Zn256 O263 1.965 . S
Zn257 O255 1.950 . S
Zn257 O264 1.938 . S
Zn257 O265 1.906 . S
Zn257 O275 1.953 . S
Zn258 O255 1.945 . S
Zn258 O260 1.932 . S
Zn258 O267 1.977 1_655 S
Zn258 O268 1.906 . S
O259 Zn256 1.933 . S
O259 C270 1.226 . S
O260 Zn258 1.932 . S
O260 C270 1.307 . S
O261 Zn254 1.919 . S
O261 C272 1.253 . S
O262 Zn256 1.941 . S
O262 C272 1.283 . S
O263 Zn256 1.965 . S
O263 C271 1.303 . S
O264 Zn257 1.938 . S
O264 C271 1.247 . S
O265 Zn257 1.906 . S
O265 C273 1.304 1_655 S
O266 Zn254 1.924 . S
O266 C274 1.311 . S
O267 Zn258 1.977 1_455 S
O267 C273 1.272 . S
O268 Zn258 1.906 . S
O268 C274 1.247 . S
C269 O253 1.225 . S
C269 O275 1.298 . S
C270 O259 1.226 . S
C270 O260 1.307 . S
C271 O263 1.303 . S
C271 O264 1.247 . S
C272 O261 1.253 . S
C272 O262 1.283 . S
C273 O265 1.304 1_455 S
C273 O267 1.272 . S
C274 O266 1.311 . S
C274 O268 1.247 . S
O275 Zn257 1.953 . S
O275 C269 1.298 . S
O276 Zn277 1.953 . S
O276 C292 1.225 . S
Zn277 O276 1.953 . S
Zn277 O278 1.949 . S
Zn277 O284 1.919 . S
Zn277 O289 1.924 . S
O278 Zn277 1.949 . S
O278 Zn279 1.923 . S
O278 Zn280 1.950 . S
O278 Zn281 1.945 . S
Zn279 O278 1.923 . S
Zn279 O282 1.933 . S
Zn279 O285 1.941 . S
Zn279 O286 1.965 . S
Zn280 O278 1.950 . S
Zn280 O287 1.938 . S
Zn280 O288 1.906 . S
Zn280 O298 1.953 . S
Zn281 O278 1.945 . S
Zn281 O283 1.932 . S
Zn281 O290 1.977 . S
Zn281 O291 1.910 . S
O282 Zn279 1.933 . S
O282 C293 1.226 . S
O283 Zn281 1.932 . S
O283 C293 1.307 . S
O284 Zn277 1.919 . S
O284 C295 1.253 . S
O285 Zn279 1.941 . S
O285 C295 1.283 . S
O286 Zn279 1.965 . S
O286 C294 1.303 . S
O287 Zn280 1.938 . S
O287 C294 1.247 . S
O288 Zn280 1.906 . S
O288 C296 1.304 . S
O289 Zn277 1.924 . S
O289 C297 1.311 . S
O290 Zn281 1.977 . S
O290 C296 1.272 . S
O291 Zn281 1.910 . S
O291 C297 1.231 . S
C292 O276 1.225 . S
C292 O298 1.298 . S
C293 O282 1.226 . S
C293 O283 1.307 . S
C294 O286 1.303 . S
C294 O287 1.247 . S
C295 O284 1.253 . S
C295 O285 1.283 . S
C296 O288 1.304 . S
C296 O290 1.272 . S
C297 O289 1.311 . S
C297 O291 1.231 . S
O298 Zn280 1.953 . S
O298 C292 1.298 . S
O299 Zn300 1.953 . S
O299 C315 1.225 . S
Zn300 O299 1.953 . S
Zn300 O301 1.949 . S
Zn300 O307 1.919 . S
Zn300 O312 1.924 . S
O301 Zn300 1.949 . S
O301 Zn302 1.923 . S
O301 Zn303 1.950 . S
O301 Zn304 1.945 . S
Zn302 O301 1.923 . S
Zn302 O305 1.933 . S
Zn302 O308 1.941 . S
Zn302 O309 1.965 . S
Zn303 O301 1.950 . S
Zn303 O310 1.938 . S
Zn303 O311 1.906 . S
Zn303 O321 1.953 . S
Zn304 O301 1.945 . S
Zn304 O306 1.932 . S
Zn304 O313 1.977 . S
Zn304 O314 1.910 . S
O305 Zn302 1.933 . S
O305 C316 1.226 . S
O306 Zn304 1.932 . S
O306 C316 1.307 . S
O307 Zn300 1.919 . S
O307 C318 1.253 . S
O308 Zn302 1.941 . S
O308 C318 1.283 . S
O309 Zn302 1.965 . S
O309 C317 1.303 . S
O310 Zn303 1.938 . S
O310 C317 1.247 . S
O311 Zn303 1.906 . S
O311 C319 1.304 . S
O312 Zn300 1.924 . S
O312 C320 1.311 . S
O313 Zn304 1.977 . S
O313 C319 1.272 . S
O314 Zn304 1.910 . S
O314 C320 1.231 . S
C315 O299 1.225 . S
C315 O321 1.298 . S
C316 O305 1.226 . S
C316 O306 1.307 . S
C317 O309 1.303 . S
C317 O310 1.247 . S
C318 O307 1.253 . S
C318 O308 1.283 . S
C319 O311 1.304 . S
C319 O313 1.272 . S
C320 O312 1.311 . S
C320 O314 1.231 . S
O321 Zn303 1.953 . S
O321 C315 1.298 . S
O322 Zn323 1.953 . S
O322 C338 1.225 . S
Zn323 O322 1.953 . S
Zn323 O324 1.949 . S
Zn323 O330 1.919 . S
Zn323 O335 1.924 . S
O324 Zn323 1.949 . S
O324 Zn325 1.923 . S
O324 Zn326 1.950 . S
O324 Zn327 1.945 . S
Zn325 O324 1.923 . S
Zn325 O328 1.933 . S
Zn325 O331 1.941 . S
Zn325 O332 1.965 . S
Zn326 O324 1.950 . S
Zn326 O333 1.938 . S
Zn326 O334 1.906 . S
Zn326 O344 1.953 . S
Zn327 O324 1.945 . S
Zn327 O329 1.932 . S
Zn327 O336 1.977 . S
Zn327 O337 1.910 . S
O328 Zn325 1.933 . S
O328 C339 1.226 . S
O329 Zn327 1.932 . S
O329 C339 1.307 . S
O330 Zn323 1.919 . S
O330 C341 1.253 . S
O331 Zn325 1.941 . S
O331 C341 1.283 . S
O332 Zn325 1.965 . S
O332 C340 1.303 . S
O333 Zn326 1.938 . S
O333 C340 1.247 . S
O334 Zn326 1.906 . S
O334 C342 1.304 . S
O335 Zn323 1.924 . S
O335 C343 1.311 . S
O336 Zn327 1.977 . S
O336 C342 1.272 . S
O337 Zn327 1.910 . S
O337 C343 1.231 . S
C338 O322 1.225 . S
C338 O344 1.298 . S
C339 O328 1.226 . S
C339 O329 1.307 . S
C340 O332 1.303 . S
C340 O333 1.247 . S
C341 O330 1.253 . S
C341 O331 1.283 . S
C342 O334 1.304 . S
C342 O336 1.272 . S
C343 O335 1.311 . S
C343 O337 1.231 . S
O344 Zn326 1.953 . S
O344 C338 1.298 . S
O345 Zn346 1.953 . S
O345 C361 1.225 . S
Zn346 O345 1.953 . S
Zn346 O347 1.949 . S
Zn346 O353 1.919 . S
Zn346 O358 1.924 . S
O347 Zn346 1.949 . S
O347 Zn348 1.923 . S
O347 Zn349 1.950 . S
O347 Zn350 1.945 . S
Zn348 O347 1.923 . S
Zn348 O351 1.933 . S
Zn348 O354 1.941 . S
Zn348 O355 1.965 . S
Zn349 O347 1.950 . S
Zn349 O356 1.938 . S
Zn349 O357 1.906 . S
Zn349 O367 1.953 . S
Zn350 O347 1.945 . S
Zn350 O352 1.932 . S
Zn350 O359 1.977 . S
Zn350 O360 1.910 . S
O351 Zn348 1.933 . S
O351 C362 1.226 . S
O352 Zn350 1.932 . S
O352 C362 1.307 . S
O353 Zn346 1.919 . S
O353 C364 1.253 . S
O354 Zn348 1.941 . S
O354 C364 1.283 . S
O355 Zn348 1.965 . S
O355 C363 1.303 . S
O356 Zn349 1.938 . S
O356 C363 1.247 . S
O357 Zn349 1.906 . S
O357 C365 1.304 . S
O358 Zn346 1.924 . S
O358 C366 1.311 . S
O359 Zn350 1.977 . S
O359 C365 1.272 . S
O360 Zn350 1.910 . S
O360 C366 1.231 . S
C361 O345 1.225 . S
C361 O367 1.298 . S
C362 O351 1.226 . S
C362 O352 1.307 . S
C363 O355 1.303 . S
C363 O356 1.247 . S
C364 O353 1.253 . S
C364 O354 1.283 . S
C365 O357 1.304 . S
C365 O359 1.272 . S
C366 O358 1.311 . S
C366 O360 1.231 . S
O367 Zn349 1.953 . S
O367 C361 1.298 . S
O368 Zn369 1.953 . S
O368 C384 1.225 . S
Zn369 O368 1.953 . S
Zn369 O370 1.949 . S
Zn369 O376 1.919 . S
Zn369 O381 1.924 . S
O370 Zn369 1.949 . S
O370 Zn371 1.923 . S
O370 Zn372 1.950 . S
O370 Zn373 1.945 . S
Zn371 O370 1.923 . S
Zn371 O374 1.933 . S
Zn371 O377 1.941 . S
Zn371 O378 1.965 . S
Zn372 O370 1.950 . S
Zn372 O379 1.938 . S
Zn372 O380 1.906 . S
Zn372 O390 1.953 . S
Zn373 O370 1.945 . S
Zn373 O375 1.932 . S
Zn373 O382 1.977 . S
Zn373 O383 1.910 . S
O374 Zn371 1.933 . S
O374 C385 1.226 . S
O375 Zn373 1.932 . S
O375 C385 1.307 . S
O376 Zn369 1.919 . S
O376 C387 1.253 . S
O377 Zn371 1.941 . S
O377 C387 1.283 . S
O378 Zn371 1.965 . S
O378 C386 1.303 . S
O379 Zn372 1.938 . S
O379 C386 1.247 . S
O380 Zn372 1.906 . S
O380 C388 1.304 . S
O381 Zn369 1.924 . S
O381 C389 1.311 . S
O382 Zn373 1.977 . S
O382 C388 1.272 . S
O383 Zn373 1.910 . S
O383 C389 1.231 . S
C384 O368 1.225 . S
C384 O390 1.298 . S
C385 O374 1.226 . S
C385 O375 1.307 . S
C386 O378 1.303 . S
C386 O379 1.247 . S
C387 O376 1.253 . S
C387 O377 1.283 . S
C388 O380 1.304 . S
C388 O382 1.272 . S
C389 O381 1.311 . S
C389 O383 1.231 . S
O390 Zn372 1.953 . S
O390 C384 1.298 . S
O391 Zn392 1.953 . S
O391 C407 1.225 . S
Zn392 O391 1.953 . S
Zn392 O393 1.949 . S
Zn392 O399 1.919 . S
Zn392 O404 1.924 . S
O393 Zn392 1.949 . S
O393 Zn394 1.923 . S
O393 Zn395 1.950 . S
O393 Zn396 1.945 . S
Zn394 O393 1.923 . S
Zn394 O397 1.933 . S
Zn394 O400 1.941 . S
Zn394 O401 1.965 . S
Zn395 O393 1.950 . S
Zn395 O402 1.938 . S
Zn395 O403 1.906 . S
Zn395 O413 1.953 . S
Zn396 O393 1.945 . S
Zn396 O398 1.932 . S
Zn396 O405 1.977 . S
Zn396 O406 1.910 . S
O397 Zn394 1.933 . S
O397 C408 1.226 . S
O398 Zn396 1.932 . S
O398 C408 1.307 . S
O399 Zn392 1.919 . S
O399 C410 1.253 . S
O400 Zn394 1.941 . S
O400 C410 1.283 . S
O401 Zn394 1.965 . S
O401 C409 1.303 . S
O402 Zn395 1.938 . S
O402 C409 1.247 . S
O403 Zn395 1.906 . S
O403 C411 1.304 . S
O404 Zn392 1.924 . S
O404 C412 1.311 . S
O405 Zn396 1.977 . S
O405 C411 1.272 . S
O406 Zn396 1.910 . S
O406 C412 1.231 . S
C407 O391 1.225 . S
C407 O413 1.298 . S
C408 O397 1.226 . S
C408 O398 1.307 . S
C409 O401 1.303 . S
C409 O402 1.247 . S
C410 O399 1.253 . S
C410 O400 1.283 . S
C411 O403 1.304 . S
C411 O405 1.272 . S
C412 O404 1.311 . S
C412 O406 1.231 . S
O413 Zn395 1.953 . S
O413 C407 1.298 . S
O414 Zn415 1.953 . S
O414 C430 1.225 . S
Zn415 O414 1.953 . S
Zn415 O416 1.949 . S
Zn415 O422 1.919 . S
Zn415 O427 1.924 . S
O416 Zn415 1.949 . S
O416 Zn417 1.923 . S
O416 Zn418 1.950 . S
O416 Zn419 1.945 . S
Zn417 O416 1.923 . S
Zn417 O420 1.933 . S
Zn417 O423 1.941 . S
Zn417 O424 1.965 . S
Zn418 O416 1.950 . S
Zn418 O425 1.938 . S
Zn418 O426 1.906 . S
Zn418 O436 1.953 . S
Zn419 O416 1.945 . S
Zn419 O421 1.932 . S
Zn419 O428 1.977 . S
Zn419 O429 1.910 . S
O420 Zn417 1.933 . S
O420 C431 1.226 . S
O421 Zn419 1.932 . S
O421 C431 1.307 . S
O422 Zn415 1.919 . S
O422 C433 1.253 . S
O423 Zn417 1.941 . S
O423 C433 1.283 . S
O424 Zn417 1.965 . S
O424 C432 1.303 . S
O425 Zn418 1.938 . S
O425 C432 1.247 . S
O426 Zn418 1.906 . S
O426 C434 1.304 . S
O427 Zn415 1.924 . S
O427 C435 1.311 . S
O428 Zn419 1.977 . S
O428 C434 1.272 . S
O429 Zn419 1.910 . S
O429 C435 1.231 . S
C430 O414 1.225 . S
C430 O436 1.298 . S
C431 O420 1.226 . S
C431 O421 1.307 . S
C432 O424 1.303 . S
C432 O425 1.247 . S
C433 O422 1.253 . S
C433 O423 1.283 . S
C434 O426 1.304 . S
C434 O428 1.272 . S
C435 O427 1.311 . S
C435 O429 1.231 . S
O436 Zn418 1.953 . S
O436 C430 1.298 . S
O437 Zn438 1.953 . S
O437 C453 1.225 . S
Zn438 O437 1.953 . S
Zn438 O439 1.949 . S
Zn438 O445 1.919 . S
Zn438 O450 1.924 . S
O439 Zn438 1.949 . S
O439 Zn440 1.923 . S
O439 Zn441 1.950 . S
O439 Zn442 1.945 . S
Zn440 O439 1.923 . S
Zn440 O443 1.933 . S
Zn440 O446 1.941 . S
Zn440 O447 1.965 . S
Zn441 O439 1.950 . S
Zn441 O448 1.938 . S
Zn441 O449 1.906 . S
Zn441 O459 1.953 . S
Zn442 O439 1.945 . S
Zn442 O444 1.932 . S
Zn442 O451 1.977 . S
Zn442 O452 1.910 . S
O443 Zn440 1.933 . S
O443 C454 1.226 . S
O444 Zn442 1.932 . S
O444 C454 1.307 . S
O445 Zn438 1.919 . S
O445 C456 1.253 . S
O446 Zn440 1.941 . S
O446 C456 1.283 . S
O447 Zn440 1.965 . S
O447 C455 1.303 . S
O448 Zn441 1.938 . S
O448 C455 1.247 . S
O449 Zn441 1.906 . S
O449 C457 1.304 . S
O450 Zn438 1.924 . S
O450 C458 1.311 . S
O451 Zn442 1.977 . S
O451 C457 1.272 . S
O452 Zn442 1.910 . S
O452 C458 1.231 . S
C453 O437 1.225 . S
C453 O459 1.298 . S
C454 O443 1.226 . S
C454 O444 1.307 . S
C455 O447 1.303 . S
C455 O448 1.247 . S
C456 O445 1.253 . S
C456 O446 1.283 . S
C457 O449 1.304 . S
C457 O451 1.272 . S
C458 O450 1.311 . S
C458 O452 1.231 . S
O459 Zn441 1.953 . S
O459 C453 1.298 . S
O460 Zn461 1.953 . S
O460 C476 1.225 . S
Zn461 O460 1.953 . S
Zn461 O462 1.949 . S
Zn461 O468 1.919 . S
Zn461 O473 1.924 . S
O462 Zn461 1.949 . S
O462 Zn463 1.923 . S
O462 Zn464 1.950 . S
O462 Zn465 1.945 . S
Zn463 O462 1.923 . S
Zn463 O466 1.933 . S
Zn463 O469 1.941 . S
Zn463 O470 1.965 . S
Zn464 O462 1.950 . S
Zn464 O471 1.938 . S
Zn464 O472 1.906 . S
Zn464 O482 1.953 . S
Zn465 O462 1.945 . S
Zn465 O467 1.932 . S
Zn465 O474 1.977 . S
Zn465 O475 1.910 . S
O466 Zn463 1.933 . S
O466 C477 1.226 . S
O467 Zn465 1.932 . S
O467 C477 1.307 . S
O468 Zn461 1.919 . S
O468 C479 1.253 . S
O469 Zn463 1.941 . S
O469 C479 1.283 . S
O470 Zn463 1.965 . S
O470 C478 1.303 . S
O471 Zn464 1.938 . S
O471 C478 1.247 . S
O472 Zn464 1.906 . S
O472 C480 1.304 . S
O473 Zn461 1.924 . S
O473 C481 1.311 . S
O474 Zn465 1.977 . S
O474 C480 1.272 . S
O475 Zn465 1.910 . S
O475 C481 1.231 . S
C476 O460 1.225 . S
C476 O482 1.298 . S
C477 O466 1.226 . S
C477 O467 1.307 . S
C478 O470 1.303 . S
C478 O471 1.247 . S
C479 O468 1.253 . S
C479 O469 1.283 . S
C480 O472 1.304 . S
C480 O474 1.272 . S
C481 O473 1.311 . S
C481 O475 1.231 . S
O482 Zn464 1.953 . S
O482 C476 1.298 . S
O483 Zn484 1.953 . S
O483 C499 1.225 . S
Zn484 O483 1.953 . S
Zn484 O485 1.949 . S
Zn484 O491 1.919 . S
Zn484 O496 1.924 . S
O485 Zn484 1.949 . S
O485 Zn486 1.923 . S
O485 Zn487 1.950 . S
O485 Zn488 1.945 . S
Zn486 O485 1.923 . S
Zn486 O489 1.933 . S
Zn486 O492 1.941 . S
Zn486 O493 1.965 . S
Zn487 O485 1.950 . S
Zn487 O494 1.938 . S
Zn487 O495 1.906 . S
Zn487 O505 1.953 . S
Zn488 O485 1.945 . S
Zn488 O490 1.932 . S
Zn488 O497 1.977 . S
Zn488 O498 1.910 . S
O489 Zn486 1.933 . S
O489 C500 1.226 . S
O490 Zn488 1.932 . S
O490 C500 1.307 . S
O491 Zn484 1.919 . S
O491 C502 1.253 . S
O492 Zn486 1.941 . S
O492 C502 1.283 . S
O493 Zn486 1.965 . S
O493 C501 1.303 . S
O494 Zn487 1.938 . S
O494 C501 1.247 . S
O495 Zn487 1.906 . S
O495 C503 1.304 . S
O496 Zn484 1.924 . S
O496 C504 1.311 . S
O497 Zn488 1.977 . S
O497 C503 1.272 . S
O498 Zn488 1.910 . S
O498 C504 1.231 . S
C499 O483 1.225 . S
C499 O505 1.298 . S
C500 O489 1.226 . S
C500 O490 1.307 . S
C501 O493 1.303 . S
C501 O494 1.247 . S
C502 O491 1.253 . S
C502 O492 1.283 . S
C503 O495 1.304 . S
C503 O497 1.272 . S
C504 O496 1.311 . S
C504 O498 1.231 . S
O505 Zn487 1.953 . S
O505 C499 1.298 . S
O506 Zn507 1.953 . S
O506 C522 1.225 . S
Zn507 O506 1.953 . S
Zn507 O508 1.949 . S
Zn507 O514 1.919 . S
Zn507 O519 1.924 . S
O508 Zn507 1.949 . S
O508 Zn509 1.923 . S
O508 Zn510 1.950 . S
O508 Zn511 1.945 . S
Zn509 O508 1.923 . S
Zn509 O512 1.933 . S
Zn509 O515 1.941 . S
Zn509 O516 1.965 . S
Zn510 O508 1.950 . S
Zn510 O517 1.938 . S
Zn510 O518 1.906 . S
Zn510 O528 1.953 . S
Zn511 O508 1.945 . S
Zn511 O513 1.932 . S
Zn511 O520 1.977 . S
Zn511 O521 1.910 . S
O512 Zn509 1.933 . S
O512 C523 1.226 . S
O513 Zn511 1.932 . S
O513 C523 1.307 . S
O514 Zn507 1.919 . S
O514 C525 1.253 . S
O515 Zn509 1.941 . S
O515 C525 1.283 . S
O516 Zn509 1.965 . S
O516 C524 1.303 . S
O517 Zn510 1.938 . S
O517 C524 1.247 . S
O518 Zn510 1.906 . S
O518 C526 1.304 . S
O519 Zn507 1.924 . S
O519 C527 1.311 . S
O520 Zn511 1.977 . S
O520 C526 1.272 . S
O521 Zn511 1.910 . S
O521 C527 1.231 . S
C522 O506 1.225 . S
C522 O528 1.298 . S
C523 O512 1.226 . S
C523 O513 1.307 . S
C524 O516 1.303 . S
C524 O517 1.247 . S
C525 O514 1.253 . S
C525 O515 1.283 . S
C526 O518 1.304 . S
C526 O520 1.272 . S
C527 O519 1.311 . S
C527 O521 1.231 . S
O528 Zn510 1.953 . S
O528 C522 1.298 . S
O529 Zn530 1.953 . S
O529 C545 1.225 . S
Zn530 O529 1.953 . S
Zn530 O531 1.949 . S
Zn530 O537 1.919 . S
Zn530 O542 1.924 . S
O531 Zn530 1.949 . S
O531 Zn532 1.923 . S
O531 Zn533 1.950 . S
O531 Zn534 1.945 . S
Zn532 O531 1.923 . S
Zn532 O535 1.933 . S
Zn532 O538 1.941 . S
Zn532 O539 1.965 . S
Zn533 O531 1.950 . S
Zn533 O540 1.938 . S
Zn533 O541 1.906 . S
Zn533 O551 1.953 . S
Zn534 O531 1.945 . S
Zn534 O536 1.932 . S
Zn534 O543 1.977 . S
Zn534 O544 1.910 . S
O535 Zn532 1.933 . S
O535 C546 1.226 . S
O536 Zn534 1.932 . S
O536 C546 1.307 . S
O537 Zn530 1.919 . S
O537 C548 1.253 . S
O538 Zn532 1.941 . S
O538 C548 1.283 . S
O539 Zn532 1.965 . S
O539 C547 1.303 . S
O540 Zn533 1.938 . S
O540 C547 1.247 . S
O541 Zn533 1.906 . S
O541 C549 1.304 . S
O542 Zn530 1.924 . S
O542 C550 1.311 . S
O543 Zn534 1.977 . S
O543 C549 1.272 . S
O544 Zn534 1.910 . S
O544 C550 1.231 . S
C545 O529 1.225 . S
C545 O551 1.298 . S
C546 O535 1.226 . S
C546 O536 1.307 . S
C547 O539 1.303 . S
C547 O540 1.247 . S
C548 O537 1.253 . S
C548 O538 1.283 . S
C549 O541 1.304 . S
C549 O543 1.272 . S
C550 O542 1.311 . S
C550 O544 1.231 . S
O551 Zn533 1.953 . S
O551 C545 1.298 . S
O552 Zn553 1.953 . S
O552 C568 1.225 . S
Zn553 O552 1.953 . S
Zn553 O554 1.949 . S
Zn553 O560 1.919 . S
Zn553 O565 1.924 . S
O554 Zn553 1.949 . S
O554 Zn555 1.923 . S
O554 Zn556 1.950 . S
O554 Zn557 1.945 . S
Zn555 O554 1.923 . S
Zn555 O558 1.933 . S
Zn555 O561 1.941 . S
Zn555 O562 1.965 . S
Zn556 O554 1.950 . S
Zn556 O563 1.938 . S
Zn556 O564 1.906 . S
Zn556 O574 1.953 . S
Zn557 O554 1.945 . S
Zn557 O559 1.932 . S
Zn557 O566 1.977 . S
Zn557 O567 1.910 . S
O558 Zn555 1.933 . S
O558 C569 1.226 . S
O559 Zn557 1.932 . S
O559 C569 1.307 . S
O560 Zn553 1.919 . S
O560 C571 1.253 . S
O561 Zn555 1.941 . S
O561 C571 1.283 . S
O562 Zn555 1.965 . S
O562 C570 1.303 . S
O563 Zn556 1.938 . S
O563 C570 1.247 . S
O564 Zn556 1.906 . S
O564 C572 1.304 . S
O565 Zn553 1.924 . S
O565 C573 1.311 . S
O566 Zn557 1.977 . S
O566 C572 1.272 . S
O567 Zn557 1.910 . S
O567 C573 1.231 . S
C568 O552 1.225 . S
C568 O574 1.298 . S
C569 O558 1.226 . S
C569 O559 1.307 . S
C570 O562 1.303 . S
C570 O563 1.247 . S
C571 O560 1.253 . S
C571 O561 1.283 . S
C572 O564 1.304 . S
C572 O566 1.272 . S
C573 O565 1.311 . S
C573 O567 1.231 . S
O574 Zn556 1.953 . S
O574 C568 1.298 . S
O575 Zn576 1.953 . S
O575 C591 1.225 . S
Zn576 O575 1.953 . S
Zn576 O577 1.949 . S
Zn576 O583 1.919 . S
Zn576 O588 1.924 . S
O577 Zn576 1.949 . S
O577 Zn578 1.923 . S
O577 Zn579 1.950 . S
O577 Zn580 1.945 . S
Zn578 O577 1.923 . S
Zn578 O581 1.933 . S
Zn578 O584 1.941 . S
Zn578 O585 1.965 . S
Zn579 O577 1.950 . S
Zn579 O586 1.938 . S
Zn579 O587 1.906 . S
Zn579 O597 1.953 . S
Zn580 O577 1.945 . S
Zn580 O582 1.932 . S
Zn580 O589 1.977 . S
Zn580 O590 1.910 . S
O581 Zn578 1.933 . S
O581 C592 1.226 . S
O582 Zn580 1.932 . S
O582 C592 1.307 . S
O583 Zn576 1.919 . S
O583 C594 1.253 . S
O584 Zn578 1.941 . S
O584 C594 1.283 . S
O585 Zn578 1.965 . S
O585 C593 1.303 . S
O586 Zn579 1.938 . S
O586 C593 1.247 . S
O587 Zn579 1.906 . S
O587 C595 1.304 . S
O588 Zn576 1.924 . S
O588 C596 1.311 . S
O589 Zn580 1.977 . S
O589 C595 1.272 . S
O590 Zn580 1.910 . S
O590 C596 1.231 . S
C591 O575 1.225 . S
C591 O597 1.298 . S
C592 O581 1.226 . S
C592 O582 1.307 . S
C593 O585 1.303 . S
C593 O586 1.247 . S
C594 O583 1.253 . S
C594 O584 1.283 . S
C595 O587 1.304 . S
C595 O589 1.272 . S
C596 O588 1.311 . S
C596 O590 1.231 . S
O597 Zn579 1.953 . S
O597 C591 1.298 . S
O598 Zn599 1.953 . S
O598 C614 1.225 . S
Zn599 O598 1.953 . S
Zn599 O600 1.949 . S
Zn599 O606 1.919 . S
Zn599 O611 1.924 . S
O600 Zn599 1.949 . S
O600 Zn601 1.923 . S
O600 Zn602 1.950 . S
O600 Zn603 1.945 . S
Zn601 O600 1.923 . S
Zn601 O604 1.933 . S
Zn601 O607 1.941 . S
Zn601 O608 1.965 . S
Zn602 O600 1.950 . S
Zn602 O609 1.938 . S
Zn602 O610 1.906 . S
Zn602 O620 1.953 . S
Zn603 O600 1.945 . S
Zn603 O605 1.932 . S
Zn603 O612 1.977 . S
Zn603 O613 1.910 . S
O604 Zn601 1.933 . S
O604 C615 1.226 . S
O605 Zn603 1.932 . S
O605 C615 1.307 . S
O606 Zn599 1.919 . S
O606 C617 1.253 . S
O607 Zn601 1.941 . S
O607 C617 1.283 . S
O608 Zn601 1.965 . S
O608 C616 1.303 . S
O609 Zn602 1.938 . S
O609 C616 1.247 . S
O610 Zn602 1.906 . S
O610 C618 1.304 . S
O611 Zn599 1.924 . S
O611 C619 1.311 . S
O612 Zn603 1.977 . S
O612 C618 1.272 . S
O613 Zn603 1.910 . S
O613 C619 1.231 . S
C614 O598 1.225 . S
C614 O620 1.298 . S
C615 O604 1.226 . S
C615 O605 1.307 . S
C616 O608 1.303 . S
C616 O609 1.247 . S
C617 O606 1.253 . S
C617 O607 1.283 . S
C618 O610 1.304 . S
C618 O612 1.272 . S
C619 O611 1.311 . S
C619 O613 1.231 . S
O620 Zn602 1.953 . S
O620 C614 1.298 . S
O621 Zn622 1.953 . S
O621 C637 1.225 . S
Zn622 O621 1.953 . S
Zn622 O623 1.949 . S
Zn622 O629 1.919 . S
Zn622 O634 1.924 . S
O623 Zn622 1.949 . S
O623 Zn624 1.923 . S
O623 Zn625 1.950 . S
O623 Zn626 1.945 . S
Zn624 O623 1.923 . S
Zn624 O627 1.933 . S
Zn624 O630 1.941 . S
Zn624 O631 1.965 . S
Zn625 O623 1.950 . S
Zn625 O632 1.938 . S
Zn625 O633 1.906 . S
Zn625 O643 1.953 . S
Zn626 O623 1.945 . S
Zn626 O628 1.932 . S
Zn626 O635 1.977 . S
Zn626 O636 1.910 . S
O627 Zn624 1.933 . S
O627 C638 1.226 . S
O628 Zn626 1.932 . S
O628 C638 1.307 . S
O629 Zn622 1.919 . S
O629 C640 1.253 . S
O630 Zn624 1.941 . S
O630 C640 1.283 . S
O631 Zn624 1.965 . S
O631 C639 1.303 . S
O632 Zn625 1.938 . S
O632 C639 1.247 . S
O633 Zn625 1.906 . S
O633 C641 1.304 . S
O634 Zn622 1.924 . S
O634 C642 1.311 . S
O635 Zn626 1.977 . S
O635 C641 1.272 . S
O636 Zn626 1.910 . S
O636 C642 1.231 . S
C637 O621 1.225 . S
C637 O643 1.298 . S
C638 O627 1.226 . S
C638 O628 1.307 . S
C639 O631 1.303 . S
C639 O632 1.247 . S
C640 O629 1.253 . S
C640 O630 1.283 . S
C641 O633 1.304 . S
C641 O635 1.272 . S
C642 O634 1.311 . S
C642 O636 1.231 . S
O643 Zn625 1.953 . S
O643 C637 1.298 . S
O644 Zn645 1.953 . S
O644 C660 1.225 . S
Zn645 O644 1.953 . S
Zn645 O646 1.949 . S
Zn645 O652 1.919 . S
Zn645 O657 1.924 . S
O646 Zn645 1.949 . S
O646 Zn647 1.923 . S
O646 Zn648 1.950 . S
O646 Zn649 1.945 . S
Zn647 O646 1.923 . S
Zn647 O650 1.933 . S
Zn647 O653 1.941 . S
Zn647 O654 1.965 . S
Zn648 O646 1.950 . S
Zn648 O655 1.938 . S
Zn648 O656 1.906 . S
Zn648 O666 1.953 . S
Zn649 O646 1.945 . S
Zn649 O651 1.932 . S
Zn649 O658 1.977 . S
Zn649 O659 1.910 . S
O650 Zn647 1.933 . S
O650 C661 1.226 . S
O651 Zn649 1.932 . S
O651 C661 1.307 . S
O652 Zn645 1.919 . S
O652 C663 1.253 . S
O653 Zn647 1.941 . S
O653 C663 1.283 . S
O654 Zn647 1.965 . S
O654 C662 1.303 . S
O655 Zn648 1.938 . S
O655 C662 1.247 . S
O656 Zn648 1.906 . S
O656 C664 1.304 . S
O657 Zn645 1.924 . S
O657 C665 1.311 . S
O658 Zn649 1.977 . S
O658 C664 1.272 . S
O659 Zn649 1.910 . S
O659 C665 1.231 . S
C660 O644 1.225 . S
C660 O666 1.298 . S
C661 O650 1.226 . S
C661 O651 1.307 . S
C662 O654 1.303 . S
C662 O655 1.247 . S
C663 O652 1.253 . S
C663 O653 1.283 . S
C664 O656 1.304 . S
C664 O658 1.272 . S
C665 O657 1.311 . S
C665 O659 1.231 . S
O666 Zn648 1.953 . S
O666 C660 1.298 . S
O667 Zn668 1.953 . S
O667 C683 1.225 . S
Zn668 O667 1.953 . S
Zn668 O669 1.949 . S
Zn668 O675 1.919 . S
Zn668 O680 1.924 . S
O669 Zn668 1.949 . S
O669 Zn670 1.923 . S
O669 Zn671 1.950 . S
O669 Zn672 1.945 . S
Zn670 O669 1.923 . S
Zn670 O673 1.933 . S
Zn670 O676 1.941 . S
Zn670 O677 1.965 . S
Zn671 O669 1.950 . S
Zn671 O678 1.938 . S
Zn671 O679 1.906 . S
Zn671 O689 1.953 . S
Zn672 O669 1.945 . S
Zn672 O674 1.932 . S
Zn672 O681 1.977 . S
Zn672 O682 1.910 . S
O673 Zn670 1.933 . S
O673 C684 1.226 . S
O674 Zn672 1.932 . S
O674 C684 1.307 . S
O675 Zn668 1.919 . S
O675 C686 1.253 . S
O676 Zn670 1.941 . S
O676 C686 1.283 . S
O677 Zn670 1.965 . S
O677 C685 1.303 . S
O678 Zn671 1.938 . S
O678 C685 1.247 . S
O679 Zn671 1.906 . S
O679 C687 1.304 . S
O680 Zn668 1.924 . S
O680 C688 1.311 . S
O681 Zn672 1.977 . S
O681 C687 1.272 . S
O682 Zn672 1.910 . S
O682 C688 1.231 . S
C683 O667 1.225 . S
C683 O689 1.298 . S
C684 O673 1.226 . S
C684 O674 1.307 . S
C685 O677 1.303 . S
C685 O678 1.247 . S
C686 O675 1.253 . S
C686 O676 1.283 . S
C687 O679 1.304 . S
C687 O681 1.272 . S
C688 O680 1.311 . S
C688 O682 1.231 . S
O689 Zn671 1.953 . S
O689 C683 1.298 . S
O690 Zn691 1.953 . S
O690 C706 1.225 . S
Zn691 O690 1.953 . S
Zn691 O692 1.949 . S
Zn691 O698 1.919 . S
Zn691 O703 1.924 . S
O692 Zn691 1.949 . S
O692 Zn693 1.923 . S
O692 Zn694 1.950 . S
O692 Zn695 1.945 . S
Zn693 O692 1.923 . S
Zn693 O696 1.933 . S
Zn693 O699 1.941 . S
Zn693 O700 1.965 . S
Zn694 O692 1.950 . S
Zn694 O701 1.938 . S
Zn694 O702 1.906 . S
Zn694 O712 1.953 . S
Zn695 O692 1.945 . S
Zn695 O697 1.932 . S
Zn695 O704 1.977 . S
Zn695 O705 1.910 . S
O696 Zn693 1.933 . S
O696 C707 1.226 . S
O697 Zn695 1.932 . S
O697 C707 1.307 . S
O698 Zn691 1.919 . S
O698 C709 1.253 . S
O699 Zn693 1.941 . S
O699 C709 1.283 . S
O700 Zn693 1.965 . S
O700 C708 1.303 . S
O701 Zn694 1.938 . S
O701 C708 1.247 . S
O702 Zn694 1.906 . S
O702 C710 1.304 . S
O703 Zn691 1.924 . S
O703 C711 1.311 . S
O704 Zn695 1.977 . S
O704 C710 1.272 . S
O705 Zn695 1.910 . S
O705 C711 1.231 . S
C706 O690 1.225 . S
C706 O712 1.298 . S
C707 O696 1.226 . S
C707 O697 1.307 . S
C708 O700 1.303 . S
C708 O701 1.247 . S
C709 O698 1.253 . S
C709 O699 1.283 . S
C710 O702 1.304 . S
C710 O704 1.272 . S
C711 O703 1.311 . S
C711 O705 1.231 . S
O712 Zn694 1.953 . S
O712 C706 1.298 . S
O713 Zn714 1.953 . S
O713 C729 1.225 . S
Zn714 O713 1.953 . S
Zn714 O715 1.949 . S
Zn714 O721 1.919 . S
Zn714 O726 1.924 . S
O715 Zn714 1.949 . S
O715 Zn716 1.923 . S
O715 Zn717 1.950 . S
O715 Zn718 1.945 . S
Zn716 O715 1.923 . S
Zn716 O719 1.933 . S
Zn716 O722 1.941 . S
Zn716 O723 1.965 . S
Zn717 O715 1.950 . S
Zn717 O724 1.938 . S
Zn717 O725 1.906 . S
Zn717 O735 1.953 . S
Zn718 O715 1.945 . S
Zn718 O720 1.932 . S
Zn718 O727 1.977 . S
Zn718 O728 1.910 . S
O719 Zn716 1.933 . S
O719 C730 1.226 . S
O720 Zn718 1.932 . S
O720 C730 1.307 . S
O721 Zn714 1.919 . S
O721 C732 1.253 . S
O722 Zn716 1.941 . S
O722 C732 1.283 . S
O723 Zn716 1.965 . S
O723 C731 1.303 . S
O724 Zn717 1.938 . S
O724 C731 1.247 . S
O725 Zn717 1.906 . S
O725 C733 1.304 . S
O726 Zn714 1.924 . S
O726 C734 1.311 . S
O727 Zn718 1.977 . S
O727 C733 1.272 . S
O728 Zn718 1.910 . S
O728 C734 1.231 . S
C729 O713 1.225 . S
C729 O735 1.298 . S
C730 O719 1.226 . S
C730 O720 1.307 . S
C731 O723 1.303 . S
C731 O724 1.247 . S
C732 O721 1.253 . S
C732 O722 1.283 . S
C733 O725 1.304 . S
C733 O727 1.272 . S
C734 O726 1.311 . S
C734 O728 1.231 . S
O735 Zn717 1.953 . S
O735 C729 1.298 . S
O736 Zn737 1.953 . S
O736 C752 1.225 . S
Zn737 O736 1.953 . S
Zn737 O738 1.949 . S
Zn737 O744 1.919 . S
Zn737 O749 1.924 . S
O738 Zn737 1.949 . S
O738 Zn739 1.923 . S
O738 Zn740 1.950 . S
O738 Zn741 1.945 . S
Zn739 O738 1.923 . S
Zn739 O742 1.933 . S
Zn739 O745 1.941 . S
Zn739 O746 1.965 . S
Zn740 O738 1.950 . S
Zn740 O747 1.938 . S
Zn740 O748 1.906 . S
Zn740 O758 1.953 . S
Zn741 O738 1.945 . S
Zn741 O743 1.932 . S
Zn741 O750 1.977 . S
Zn741 O751 1.910 . S
O742 Zn739 1.933 . S
O742 C753 1.226 . S
O743 Zn741 1.932 . S
O743 C753 1.307 . S
O744 Zn737 1.919 . S
O744 C755 1.253 . S
O745 Zn739 1.941 . S
O745 C755 1.283 . S
O746 Zn739 1.965 . S
O746 C754 1.303 . S
O747 Zn740 1.938 . S
O747 C754 1.247 . S
O748 Zn740 1.906 . S
O748 C756 1.304 . S
O749 Zn737 1.924 . S
O749 C757 1.311 . S
O750 Zn741 1.977 . S
O750 C756 1.272 . S
O751 Zn741 1.910 . S
O751 C757 1.231 . S
C752 O736 1.225 . S
C752 O758 1.298 . S
C753 O742 1.226 . S
C753 O743 1.307 . S
C754 O746 1.303 . S
C754 O747 1.247 . S
C755 O744 1.253 . S
C755 O745 1.283 . S
C756 O748 1.304 . S
C756 O750 1.272 . S
C757 O749 1.311 . S
C757 O751 1.231 . S
O758 Zn740 1.953 . S
O758 C752 1.298 . S
O759 Zn760 1.953 . S
O759 C775 1.225 . S
Zn760 O759 1.953 . S
Zn760 O761 1.949 . S
Zn760 O767 1.919 . S
Zn760 O772 1.924 . S
O761 Zn760 1.949 . S
O761 Zn762 1.923 . S
O761 Zn763 1.950 . S
O761 Zn764 1.945 . S
Zn762 O761 1.923 . S
Zn762 O765 1.933 . S
Zn762 O768 1.941 . S
Zn762 O769 1.965 . S
Zn763 O761 1.950 . S
Zn763 O770 1.938 . S
Zn763 O771 1.906 . S
Zn763 O781 1.953 . S
Zn764 O761 1.945 . S
Zn764 O766 1.932 . S
Zn764 O773 1.977 . S
Zn764 O774 1.910 . S
O765 Zn762 1.933 . S
O765 C776 1.226 . S
O766 Zn764 1.932 . S
O766 C776 1.307 . S
O767 Zn760 1.919 . S
O767 C778 1.253 . S
O768 Zn762 1.941 . S
O768 C778 1.283 . S
O769 Zn762 1.965 . S
O769 C777 1.303 . S
O770 Zn763 1.938 . S
O770 C777 1.247 . S
O771 Zn763 1.906 . S
O771 C779 1.304 . S
O772 Zn760 1.924 . S
O772 C780 1.311 . S
O773 Zn764 1.977 . S
O773 C779 1.272 . S
O774 Zn764 1.910 . S
O774 C780 1.231 . S
C775 O759 1.225 . S
C775 O781 1.298 . S
C776 O765 1.226 . S
C776 O766 1.307 . S
C777 O769 1.303 . S
C777 O770 1.247 . S
C778 O767 1.253 . S
C778 O768 1.283 . S
C779 O771 1.304 . S
C779 O773 1.272 . S
C780 O772 1.311 . S
C780 O774 1.231 . S
O781 Zn763 1.953 . S
O781 C775 1.298 . S
O782 Zn783 1.953 . S
O782 C798 1.225 . S
Zn783 O782 1.953 . S
Zn783 O784 1.949 . S
Zn783 O790 1.919 . S
Zn783 O795 1.924 . S
O784 Zn783 1.949 . S
O784 Zn785 1.923 . S
O784 Zn786 1.950 . S
O784 Zn787 1.945 . S
Zn785 O784 1.923 . S
Zn785 O788 1.933 . S
Zn785 O791 1.941 . S
Zn785 O792 1.965 . S
Zn786 O784 1.950 . S
Zn786 O793 1.938 . S
Zn786 O794 1.906 . S
Zn786 O804 1.953 . S
Zn787 O784 1.945 . S
Zn787 O789 1.932 . S
Zn787 O796 1.977 . S
Zn787 O797 1.910 . S
O788 Zn785 1.933 . S
O788 C799 1.226 . S
O789 Zn787 1.932 . S
O789 C799 1.307 . S
O790 Zn783 1.919 . S
O790 C801 1.253 . S
O791 Zn785 1.941 . S
O791 C801 1.283 . S
O792 Zn785 1.965 . S
O792 C800 1.303 . S
O793 Zn786 1.938 . S
O793 C800 1.247 . S
O794 Zn786 1.906 . S
O794 C802 1.304 . S
O795 Zn783 1.924 . S
O795 C803 1.311 . S
O796 Zn787 1.977 . S
O796 C802 1.272 . S
O797 Zn787 1.910 . S
O797 C803 1.231 . S
C798 O782 1.225 . S
C798 O804 1.298 . S
C799 O788 1.226 . S
C799 O789 1.307 . S
C800 O792 1.303 . S
C800 O793 1.247 . S
C801 O790 1.253 . S
C801 O791 1.283 . S
C802 O794 1.304 . S
C802 O796 1.272 . S
C803 O795 1.311 . S
C803 O797 1.231 . S
O804 Zn786 1.953 . S
O804 C798 1.298 . S
O805 Zn806 1.953 . S
O805 C821 1.225 . S
Zn806 O805 1.953 . S
Zn806 O807 1.949 . S
Zn806 O813 1.919 . S
Zn806 O818 1.924 . S
O807 Zn806 1.949 . S
O807 Zn808 1.923 . S
O807 Zn809 1.950 . S
O807 Zn810 1.945 . S
Zn808 O807 1.923 . S
Zn808 O811 1.933 . S
Zn808 O814 1.941 . S
Zn808 O815 1.965 . S
Zn809 O807 1.950 . S
Zn809 O816 1.938 . S
Zn809 O817 1.906 . S
Zn809 O827 1.953 . S
Zn810 O807 1.945 . S
Zn810 O812 1.932 . S
Zn810 O819 1.977 . S
Zn810 O820 1.910 . S
O811 Zn808 1.933 . S
O811 C822 1.226 . S
O812 Zn810 1.932 . S
O812 C822 1.307 . S
O813 Zn806 1.919 . S
O813 C824 1.253 . S
O814 Zn808 1.941 . S
O814 C824 1.283 . S
O815 Zn808 1.965 . S
O815 C823 1.303 . S
O816 Zn809 1.938 . S
O816 C823 1.247 . S
O817 Zn809 1.906 . S
O817 C825 1.304 . S
O818 Zn806 1.924 . S
O818 C826 1.311 . S
O819 Zn810 1.977 . S
O819 C825 1.272 . S
O820 Zn810 1.910 . S
O820 C826 1.231 . S
C821 O805 1.225 . S
C821 O827 1.298 . S
C822 O811 1.226 . S
C822 O812 1.307 . S
C823 O815 1.303 . S
C823 O816 1.247 . S
C824 O813 1.253 . S
C824 O814 1.283 . S
C825 O817 1.304 . S
C825 O819 1.272 . S
C826 O818 1.311 . S
C826 O820 1.231 . S
O827 Zn809 1.953 . S
O827 C821 1.298 . S
C828 C829 1.387 . S
C828 H832 0.950 . S
C828 C837 1.390 . S
C829 C828 1.387 . S
C829 C831 1.387 1_554 S
H830 C837 0.950 . S
C831 C829 1.387 1_556 S
C831 C833 1.390 . S
C831 H835 0.950 . S
H832 C828 0.950 . S
C833 C831 1.390 . S
C833 C834 1.387 . S
C833 H836 0.950 . S
C834 C833 1.387 . S
C834 C837 1.387 1_556 S
H835 C831 0.950 . S
H836 C833 0.950 . S
C837 C828 1.390 . S
C837 H830 0.950 . S
C837 C834 1.387 1_554 S
C838 C839 1.387 1_554 S
C838 H842 0.950 . S
C838 C847 1.390 . S
C839 C838 1.387 1_556 S
C839 C841 1.387 . S
H840 C847 0.950 . S
C841 C839 1.387 . S
C841 C843 1.390 . S
C841 H845 0.950 . S
H842 C838 0.950 . S
C843 C841 1.390 . S
C843 C844 1.387 1_556 S
C843 H846 0.950 . S
C844 C843 1.387 1_554 S
C844 C847 1.387 . S
H845 C841 0.950 . S
H846 C843 0.950 . S
C847 C838 1.390 . S
C847 H840 0.950 . S
C847 C844 1.387 . S
C848 C849 1.387 . S
C848 H852 0.950 . S
C848 C857 1.390 1_556 S
C849 C848 1.387 . S
C849 C851 1.387 . S
H850 C857 0.950 . S
C851 C849 1.387 . S
C851 C853 1.390 1_556 S
C851 H855 0.950 . S
H852 C848 0.950 . S
C853 C851 1.390 1_554 S
C853 C854 1.387 . S
C853 H856 0.950 . S
C854 C853 1.387 . S
C854 C857 1.387 . S
H855 C851 0.950 . S
H856 C853 0.950 . S
C857 C848 1.390 1_554 S
C857 H850 0.950 . S
C857 C854 1.387 . S
C858 C859 1.387 . S
C858 H862 0.950 . S
C858 C867 1.390 . S
C859 C858 1.387 . S
C859 C861 1.387 . S
H860 C867 0.950 . S
C861 C859 1.387 . S
C861 C863 1.390 . S
C861 H865 0.950 . S
H862 C858 0.950 . S
C863 C861 1.390 . S
C863 C864 1.387 . S
C863 H866 0.950 . S
C864 C863 1.387 . S
C864 C867 1.387 . S
H865 C861 0.950 . S
H866 C863 0.950 . S
C867 C858 1.390 . S
C867 H860 0.950 . S
C867 C864 1.387 . S
C868 C869 1.387 . S
C868 H872 0.950 . S
C868 C877 1.390 . S
C869 C868 1.387 . S
C869 C871 1.387 . S
H870 C877 0.950 . S
C871 C869 1.387 . S
C871 C873 1.390 . S
C871 H875 0.950 . S
H872 C868 0.950 . S
C873 C871 1.390 . S
C873 C874 1.387 . S
C873 H876 0.950 . S
C874 C873 1.387 . S
C874 C877 1.387 . S
H875 C871 0.950 . S
H876 C873 0.950 . S
C877 C868 1.390 . S
C877 H870 0.950 . S
C877 C874 1.387 . S
C878 C879 1.387 . S
C878 H882 0.950 . S
C878 C887 1.390 . S
C879 C878 1.387 . S
C879 C881 1.387 . S
H880 C887 0.950 . S
C881 C879 1.387 . S
C881 C883 1.390 . S
C881 H885 0.950 . S
H882 C878 0.950 . S
C883 C881 1.390 . S
C883 C884 1.387 . S
C883 H886 0.950 . S
C884 C883 1.387 . S
C884 C887 1.387 . S
H885 C881 0.950 . S
H886 C883 0.950 . S
C887 C878 1.390 . S
C887 H880 0.950 . S
C887 C884 1.387 . S
C888 C889 1.387 1_556 S
C888 H892 0.950 . S
C888 C897 1.390 . S
C889 C888 1.387 1_554 S
C889 C891 1.387 . S
H890 C897 0.950 . S
C891 C889 1.387 . S
C891 C893 1.390 . S
C891 H895 0.950 . S
H892 C888 0.950 . S
C893 C891 1.390 . S
C893 C894 1.387 1_554 S
C893 H896 0.950 . S
C894 C893 1.387 1_556 S
C894 C897 1.387 . S
H895 C891 0.950 . S
H896 C893 0.950 . S
C897 C888 1.390 . S
C897 H890 0.950 . S
C897 C894 1.387 . S
C898 C899 1.387 1_554 S
C898 H902 0.950 . S
C898 C907 1.390 . S
C899 C898 1.387 1_556 S
C899 C901 1.387 . S
H900 C907 0.950 . S
C901 C899 1.387 . S
C901 C903 1.390 . S
C901 H905 0.950 . S
H902 C898 0.950 . S
C903 C901 1.390 . S
C903 C904 1.387 1_556 S
C903 H906 0.950 . S
C904 C903 1.387 1_554 S
C904 C907 1.387 . S
H905 C901 0.950 . S
H906 C903 0.950 . S
C907 C898 1.390 . S
C907 H900 0.950 . S
C907 C904 1.387 . S
C908 C909 1.387 . S
C908 H912 0.950 . S
C908 C917 1.390 1_554 S
C909 C908 1.387 . S
C909 C911 1.387 . S
H910 C917 0.950 . S
C911 C909 1.387 . S
C911 C913 1.390 1_554 S
C911 H915 0.950 . S
H912 C908 0.950 . S
C913 C911 1.390 1_556 S
C913 C914 1.387 . S
C913 H916 0.950 . S
C914 C913 1.387 . S
C914 C917 1.387 . S
H915 C911 0.950 . S
H916 C913 0.950 . S
C917 C908 1.390 1_556 S
C917 H910 0.950 . S
C917 C914 1.387 . S
C918 C919 1.387 . S
C918 H922 0.950 . S
C918 C927 1.390 . S
C919 C918 1.387 . S
C919 C921 1.387 . S
H920 C927 0.950 . S
C921 C919 1.387 . S
C921 C923 1.390 . S
C921 H925 0.950 . S
H922 C918 0.950 . S
C923 C921 1.390 . S
C923 C924 1.387 . S
C923 H926 0.950 . S
C924 C923 1.387 . S
C924 C927 1.387 . S
H925 C921 0.950 . S
H926 C923 0.950 . S
C927 C918 1.390 . S
C927 H920 0.950 . S
C927 C924 1.387 . S
C928 C929 1.387 . S
C928 H932 0.950 . S
C928 C937 1.390 . S
C929 C928 1.387 . S
C929 C931 1.387 . S
H930 C937 0.950 . S
C931 C929 1.387 . S
C931 C933 1.390 . S
C931 H935 0.950 . S
H932 C928 0.950 . S
C933 C931 1.390 . S
C933 C934 1.387 . S
C933 H936 0.950 . S
C934 C933 1.387 . S
C934 C937 1.387 . S
H935 C931 0.950 . S
H936 C933 0.950 . S
C937 C928 1.390 . S
C937 H930 0.950 . S
C937 C934 1.387 . S
C938 C939 1.387 . S
C938 H942 0.950 . S
C938 C947 1.390 . S
C939 C938 1.387 . S
C939 C941 1.387 . S
H940 C947 0.950 . S
C941 C939 1.387 . S
C941 C943 1.390 . S
C941 H945 0.950 . S
H942 C938 0.950 . S
C943 C941 1.390 . S
C943 C944 1.387 . S
C943 H946 0.950 . S
C944 C943 1.387 . S
C944 C947 1.387 . S
H945 C941 0.950 . S
H946 C943 0.950 . S
C947 C938 1.390 . S
C947 H940 0.950 . S
C947 C944 1.387 . S
C948 C949 1.387 . S
C948 H952 0.950 . S
C948 C957 1.390 . S
C949 C948 1.387 . S
C949 C951 1.387 . S
H950 C957 0.950 . S
C951 C949 1.387 . S
C951 C953 1.390 . S
C951 H955 0.950 . S
H952 C948 0.950 . S
C953 C951 1.390 . S
C953 C954 1.387 . S
C953 H956 0.950 . S
C954 C953 1.387 . S
C954 C957 1.387 . S
H955 C951 0.950 . S
H956 C953 0.950 . S
C957 C948 1.390 . S
C957 H950 0.950 . S
C957 C954 1.387 . S
C958 C959 1.387 . S
C958 H962 0.950 . S
C958 C967 1.390 . S
C959 C958 1.387 . S
C959 C961 1.387 . S
H960 C967 0.950 . S
C961 C959 1.387 . S
C961 C963 1.390 . S
C961 H965 0.950 . S
H962 C958 0.950 . S
C963 C961 1.390 . S
C963 C964 1.387 . S
C963 H966 0.950 . S
C964 C963 1.387 . S
C964 C967 1.387 . S
H965 C961 0.950 . S
H966 C963 0.950 . S
C967 C958 1.390 . S
C967 H960 0.950 . S
C967 C964 1.387 . S
C968 C969 1.387 . S
C968 H972 0.950 . S
C968 C977 1.390 . S
C969 C968 1.387 . S
C969 C971 1.387 . S
H970 C977 0.950 . S
C971 C969 1.387 . S
C971 C973 1.390 . S
C971 H975 0.950 . S
H972 C968 0.950 . S
C973 C971 1.390 . S
C973 C974 1.387 . S
C973 H976 0.950 . S
C974 C973 1.387 . S
C974 C977 1.387 . S
H975 C971 0.950 . S
H976 C973 0.950 . S
C977 C968 1.390 . S
C977 H970 0.950 . S
C977 C974 1.387 . S
C978 C979 1.387 . S
C978 H982 0.950 . S
C978 C987 1.390 . S
C979 C978 1.387 . S
C979 C981 1.387 . S
H980 C987 0.950 . S
C981 C979 1.387 . S
C981 C983 1.390 . S
C981 H985 0.950 . S
H982 C978 0.950 . S
C983 C981 1.390 . S
C983 C984 1.387 . S
C983 H986 0.950 . S
C984 C983 1.387 . S
C984 C987 1.387 . S
H985 C981 0.950 . S
H986 C983 0.950 . S
C987 C978 1.390 . S
C987 H980 0.950 . S
C987 C984 1.387 . S
C988 C989 1.387 . S
C988 H992 0.950 . S
C988 C997 1.390 . S
C989 C988 1.387 . S
C989 C991 1.387 . S
H990 C997 0.950 . S
C991 C989 1.387 . S
C991 C993 1.390 . S
C991 H995 0.950 . S
H992 C988 0.950 . S
C993 C991 1.390 . S
C993 C994 1.387 . S
C993 H996 0.950 . S
C994 C993 1.387 . S
C994 C997 1.387 . S
H995 C991 0.950 . S
H996 C993 0.950 . S
C997 C988 1.390 . S
C997 H990 0.950 . S
C997 C994 1.387 . S
C998 C999 1.387 . S
C998 H1002 0.950 . S
C998 C1007 1.390 . S
C999 C998 1.387 . S
C999 C1001 1.387 . S
H1000 C1007 0.950 . S
C1001 C999 1.387 . S
C1001 C1003 1.390 . S
C1001 H1005 0.950 . S
H1002 C998 0.950 . S
C1003 C1001 1.390 . S
C1003 C1004 1.387 . S
C1003 H1006 0.950 . S
C1004 C1003 1.387 . S
C1004 C1007 1.387 . S
H1005 C1001 0.950 . S
H1006 C1003 0.950 . S
C1007 C998 1.390 . S
C1007 H1000 0.950 . S
C1007 C1004 1.387 . S
C1008 C1009 1.387 . S
C1008 H1012 0.950 . S
C1008 C1017 1.390 . S
C1009 C1008 1.387 . S
C1009 C1011 1.387 . S
H1010 C1017 0.950 . S
C1011 C1009 1.387 . S
C1011 C1013 1.390 . S
C1011 H1015 0.950 . S
H1012 C1008 0.950 . S
C1013 C1011 1.390 . S
C1013 C1014 1.387 . S
C1013 H1016 0.950 . S
C1014 C1013 1.387 . S
C1014 C1017 1.387 . S
H1015 C1011 0.950 . S
H1016 C1013 0.950 . S
C1017 C1008 1.390 . S
C1017 H1010 0.950 . S
C1017 C1014 1.387 . S
C1018 C1019 1.387 . S
C1018 H1022 0.950 . S
C1018 C1027 1.390 . S
C1019 C1018 1.387 . S
C1019 C1021 1.387 . S
H1020 C1027 0.950 . S
C1021 C1019 1.387 . S
C1021 C1023 1.390 . S
C1021 H1025 0.950 . S
H1022 C1018 0.950 . S
C1023 C1021 1.390 . S
C1023 C1024 1.387 . S
C1023 H1026 0.950 . S
C1024 C1023 1.387 . S
C1024 C1027 1.387 . S
H1025 C1021 0.950 . S
H1026 C1023 0.950 . S
C1027 C1018 1.390 . S
C1027 H1020 0.950 . S
C1027 C1024 1.387 . S
C1028 C1029 1.387 . S
C1028 H1032 0.950 . S
C1028 C1037 1.390 . S
C1029 C1028 1.387 . S
C1029 C1031 1.387 . S
H1030 C1037 0.950 . S
C1031 C1029 1.387 . S
C1031 C1033 1.390 . S
C1031 H1035 0.950 . S
H1032 C1028 0.950 . S
C1033 C1031 1.390 . S
C1033 C1034 1.387 . S
C1033 H1036 0.950 . S
C1034 C1033 1.387 . S
C1034 C1037 1.387 . S
H1035 C1031 0.950 . S
H1036 C1033 0.950 . S
C1037 C1028 1.390 . S
C1037 H1030 0.950 . S
C1037 C1034 1.387 . S
C1038 C1039 1.387 . S
C1038 H1042 0.950 . S
C1038 C1047 1.390 . S
C1039 C1038 1.387 . S
C1039 C1041 1.387 . S
H1040 C1047 0.950 . S
C1041 C1039 1.387 . S
C1041 C1043 1.390 . S
C1041 H1045 0.950 . S
H1042 C1038 0.950 . S
C1043 C1041 1.390 . S
C1043 C1044 1.387 . S
C1043 H1046 0.950 . S
C1044 C1043 1.387 . S
C1044 C1047 1.387 . S
H1045 C1041 0.950 . S
H1046 C1043 0.950 . S
C1047 C1038 1.390 . S
C1047 H1040 0.950 . S
C1047 C1044 1.387 . S
C1048 C1049 1.387 . S
C1048 H1052 0.950 . S
C1048 C1057 1.390 . S
C1049 C1048 1.387 . S
C1049 C1051 1.387 . S
H1050 C1057 0.950 . S
C1051 C1049 1.387 . S
C1051 C1053 1.390 . S
C1051 H1055 0.950 . S
H1052 C1048 0.950 . S
C1053 C1051 1.390 . S
C1053 C1054 1.387 . S
C1053 H1056 0.950 . S
C1054 C1053 1.387 . S
C1054 C1057 1.387 . S
H1055 C1051 0.950 . S
H1056 C1053 0.950 . S
C1057 C1048 1.390 . S
C1057 H1050 0.950 . S
C1057 C1054 1.387 . S
C1058 C1059 1.387 . S
C1058 H1062 0.950 . S
C1058 C1067 1.390 . S
C1059 C1058 1.387 . S
C1059 C1061 1.387 . S
H1060 C1067 0.950 . S
C1061 C1059 1.387 . S
C1061 C1063 1.390 . S
C1061 H1065 0.950 . S
H1062 C1058 0.950 . S
C1063 C1061 1.390 . S
C1063 C1064 1.387 . S
C1063 H1066 0.950 . S
C1064 C1063 1.387 . S
C1064 C1067 1.387 . S
H1065 C1061 0.950 . S
H1066 C1063 0.950 . S
C1067 C1058 1.390 . S
C1067 H1060 0.950 . S
C1067 C1064 1.387 . S
C1068 C1069 1.387 . S
C1068 H1072 0.950 . S
C1068 C1077 1.390 . S
C1069 C1068 1.387 . S
C1069 C1071 1.387 . S
H1070 C1077 0.950 . S
C1071 C1069 1.387 . S
C1071 C1073 1.390 . S
C1071 H1075 0.950 . S
H1072 C1068 0.950 . S
C1073 C1071 1.390 . S
C1073 C1074 1.387 . S
C1073 H1076 0.950 . S
C1074 C1073 1.387 . S
C1074 C1077 1.387 . S
H1075 C1071 0.950 . S
H1076 C1073 0.950 . S
C1077 C1068 1.390 . S
C1077 H1070 0.950 . S
C1077 C1074 1.387 . S
C1078 C1079 1.387 . S
C1078 H1082 0.950 . S
C1078 C1087 1.390 . S
C1079 C1078 1.387 . S
C1079 C1081 1.387 . S
H1080 C1087 0.950 . S
C1081 C1079 1.387 . S
C1081 C1083 1.390 . S
C1081 H1085 0.950 . S
H1082 C1078 0.950 . S
C1083 C1081 1.390 . S
C1083 C1084 1.387 . S
C1083 H1086 0.950 . S
C1084 C1083 1.387 . S
C1084 C1087 1.387 . S
H1085 C1081 0.950 . S
H1086 C1083 0.950 . S
C1087 C1078 1.390 . S
C1087 H1080 0.950 . S
C1087 C1084 1.387 . S
C1088 C1089 1.387 . S
C1088 H1092 0.950 . S
C1088 C1097 1.390 . S
C1089 C1088 1.387 . S
C1089 C1091 1.387 . S
H1090 C1097 0.950 . S
C1091 C1089 1.387 . S
C1091 C1093 1.390 . S
C1091 H1095 0.950 . S
H1092 C1088 0.950 . S
C1093 C1091 1.390 . S
C1093 C1094 1.387 . S
C1093 H1096 0.950 . S
C1094 C1093 1.387 . S
C1094 C1097 1.387 . S
H1095 C1091 0.950 . S
H1096 C1093 0.950 . S
C1097 C1088 1.390 . S
C1097 H1090 0.950 . S
C1097 C1094 1.387 . S
C1098 C1099 1.387 . S
C1098 H1102 0.950 . S
C1098 C1107 1.390 . S
C1099 C1098 1.387 . S
C1099 C1101 1.387 . S
H1100 C1107 0.950 . S
C1101 C1099 1.387 . S
C1101 C1103 1.390 . S
C1101 H1105 0.950 . S
H1102 C1098 0.950 . S
C1103 C1101 1.390 . S
C1103 C1104 1.387 . S
C1103 H1106 0.950 . S
C1104 C1103 1.387 . S
C1104 C1107 1.387 . S
H1105 C1101 0.950 . S
H1106 C1103 0.950 . S
C1107 C1098 1.390 . S
C1107 H1100 0.950 . S
C1107 C1104 1.387 . S
C1108 C1109 1.387 . S
C1108 H1112 0.950 . S
C1108 C1117 1.390 . S
C1109 C1108 1.387 . S
C1109 C1111 1.387 . S
H1110 C1117 0.950 . S
C1111 C1109 1.387 . S
C1111 C1113 1.390 . S
C1111 H1115 0.950 . S
H1112 C1108 0.950 . S
C1113 C1111 1.390 . S
C1113 C1114 1.387 . S
C1113 H1116 0.950 . S
C1114 C1113 1.387 . S
C1114 C1117 1.387 . S
H1115 C1111 0.950 . S
H1116 C1113 0.950 . S
C1117 C1108 1.390 . S
C1117 H1110 0.950 . S
C1117 C1114 1.387 . S
C1118 C1119 1.387 . S
C1118 H1122 0.950 . S
C1118 C1127 1.390 . S
C1119 C1118 1.387 . S
C1119 C1121 1.387 . S
H1120 C1127 0.950 . S
C1121 C1119 1.387 . S
C1121 C1123 1.390 . S
C1121 H1125 0.950 . S
H1122 C1118 0.950 . S
C1123 C1121 1.390 . S
C1123 C1124 1.387 . S
C1123 H1126 0.950 . S
C1124 C1123 1.387 . S
C1124 C1127 1.387 . S
H1125 C1121 0.950 . S
H1126 C1123 0.950 . S
C1127 C1118 1.390 . S
C1127 H1120 0.950 . S
C1127 C1124 1.387 . S
C1128 C1129 1.387 . S
C1128 H1132 0.950 . S
C1128 C1137 1.390 . S
C1129 C1128 1.387 . S
C1129 C1131 1.387 . S
H1130 C1137 0.950 . S
C1131 C1129 1.387 . S
C1131 C1133 1.390 . S
C1131 H1135 0.950 . S
H1132 C1128 0.950 . S
C1133 C1131 1.390 . S
C1133 C1134 1.387 . S
C1133 H1136 0.950 . S
C1134 C1133 1.387 . S
C1134 C1137 1.387 . S
H1135 C1131 0.950 . S
H1136 C1133 0.950 . S
C1137 C1128 1.390 . S
C1137 H1130 0.950 . S
C1137 C1134 1.387 . S
C1138 C1139 1.387 . S
C1138 H1142 0.950 . S
C1138 C1147 1.390 . S
C1139 C1138 1.387 . S
C1139 C1141 1.387 . S
H1140 C1147 0.950 . S
C1141 C1139 1.387 . S
C1141 C1143 1.390 . S
C1141 H1145 0.950 . S
H1142 C1138 0.950 . S
C1143 C1141 1.390 . S
C1143 C1144 1.387 . S
C1143 H1146 0.950 . S
C1144 C1143 1.387 . S
C1144 C1147 1.387 . S
H1145 C1141 0.950 . S
H1146 C1143 0.950 . S
C1147 C1138 1.390 . S
C1147 H1140 0.950 . S
C1147 C1144 1.387 . S
C1148 C1149 1.387 . S
C1148 H1152 0.950 . S
C1148 C1157 1.390 . S
C1149 C1148 1.387 . S
C1149 C1151 1.387 . S
H1150 C1157 0.950 . S
C1151 C1149 1.387 . S
C1151 C1153 1.390 . S
C1151 H1155 0.950 . S
H1152 C1148 0.950 . S
C1153 C1151 1.390 . S
C1153 C1154 1.387 . S
C1153 H1156 0.950 . S
C1154 C1153 1.387 . S
C1154 C1157 1.387 . S
H1155 C1151 0.950 . S
H1156 C1153 0.950 . S
C1157 C1148 1.390 . S
C1157 H1150 0.950 . S
C1157 C1154 1.387 . S
C1158 C1159 1.387 . S
C1158 H1162 0.950 . S
C1158 C1167 1.390 . S
C1159 C1158 1.387 . S
C1159 C1161 1.387 . S
H1160 C1167 0.950 . S
C1161 C1159 1.387 . S
C1161 C1163 1.390 . S
C1161 H1165 0.950 . S
H1162 C1158 0.950 . S
C1163 C1161 1.390 . S
C1163 C1164 1.387 . S
C1163 H1166 0.950 . S
C1164 C1163 1.387 . S
C1164 C1167 1.387 . S
H1165 C1161 0.950 . S
H1166 C1163 0.950 . S
C1167 C1158 1.390 . S
C1167 H1160 0.950 . S
C1167 C1164 1.387 . S
C1168 C1169 1.387 . S
C1168 H1172 0.950 . S
C1168 C1177 1.390 . S
C1169 C1168 1.387 . S
C1169 C1171 1.387 . S
H1170 C1177 0.950 . S
C1171 C1169 1.387 . S
C1171 C1173 1.390 . S
C1171 H1175 0.950 . S
H1172 C1168 0.950 . S
C1173 C1171 1.390 . S
C1173 C1174 1.387 . S
C1173 H1176 0.950 . S
C1174 C1173 1.387 . S
C1174 C1177 1.387 . S
H1175 C1171 0.950 . S
H1176 C1173 0.950 . S
C1177 C1168 1.390 . S
C1177 H1170 0.950 . S
C1177 C1174 1.387 . S
C1178 C1179 1.387 . S
C1178 H1182 0.950 . S
C1178 C1187 1.390 . S
C1179 C1178 1.387 . S
C1179 C1181 1.387 . S
H1180 C1187 0.950 . S
C1181 C1179 1.387 . S
C1181 C1183 1.390 . S
C1181 H1185 0.950 . S
H1182 C1178 0.950 . S
C1183 C1181 1.390 . S
C1183 C1184 1.387 . S
C1183 H1186 0.950 . S
C1184 C1183 1.387 . S
C1184 C1187 1.387 . S
H1185 C1181 0.950 . S
H1186 C1183 0.950 . S
C1187 C1178 1.390 . S
C1187 H1180 0.950 . S
C1187 C1184 1.387 . S
C1188 C1189 1.387 . S
C1188 H1192 0.950 . S
C1188 C1197 1.390 . S
C1189 C1188 1.387 . S
C1189 C1191 1.387 . S
H1190 C1197 0.950 . S
C1191 C1189 1.387 . S
C1191 C1193 1.390 . S
C1191 H1195 0.950 . S
H1192 C1188 0.950 . S
C1193 C1191 1.390 . S
C1193 C1194 1.387 . S
C1193 H1196 0.950 . S
C1194 C1193 1.387 . S
C1194 C1197 1.387 . S
H1195 C1191 0.950 . S
H1196 C1193 0.950 . S
C1197 C1188 1.390 . S
C1197 H1190 0.950 . S
C1197 C1194 1.387 . S
C1198 C1199 1.387 . S
C1198 H1202 0.950 . S
C1198 C1207 1.390 . S
C1199 C1198 1.387 . S
C1199 C1201 1.387 . S
H1200 C1207 0.950 . S
C1201 C1199 1.387 . S
C1201 C1203 1.390 . S
C1201 H1205 0.950 . S
H1202 C1198 0.950 . S
C1203 C1201 1.390 . S
C1203 C1204 1.387 . S
C1203 H1206 0.950 . S
C1204 C1203 1.387 . S
C1204 C1207 1.387 . S
H1205 C1201 0.950 . S
H1206 C1203 0.950 . S
C1207 C1198 1.390 . S
C1207 H1200 0.950 . S
C1207 C1204 1.387 . S
C1208 C1209 1.387 . S
C1208 H1212 0.950 . S
C1208 C1217 1.390 . S
C1209 C1208 1.387 . S
C1209 C1211 1.387 . S
H1210 C1217 0.950 . S
C1211 C1209 1.387 . S
C1211 C1213 1.390 . S
C1211 H1215 0.950 . S
H1212 C1208 0.950 . S
C1213 C1211 1.390 . S
C1213 C1214 1.387 . S
C1213 H1216 0.950 . S
C1214 C1213 1.387 . S
C1214 C1217 1.387 . S
H1215 C1211 0.950 . S
H1216 C1213 0.950 . S
C1217 C1208 1.390 . S
C1217 H1210 0.950 . S
C1217 C1214 1.387 . S
C1218 C1219 1.387 . S
C1218 H1222 0.950 . S
C1218 C1227 1.390 . S
C1219 C1218 1.387 . S
C1219 C1221 1.387 . S
H1220 C1227 0.950 . S
C1221 C1219 1.387 . S
C1221 C1223 1.390 . S
C1221 H1225 0.950 . S
H1222 C1218 0.950 . S
C1223 C1221 1.390 . S
C1223 C1224 1.387 . S
C1223 H1226 0.950 . S
C1224 C1223 1.387 . S
C1224 C1227 1.387 . S
H1225 C1221 0.950 . S
H1226 C1223 0.950 . S
C1227 C1218 1.390 . S
C1227 H1220 0.950 . S
C1227 C1224 1.387 . S
C1228 C1229 1.387 . S
C1228 H1232 0.950 . S
C1228 C1237 1.390 . S
C1229 C1228 1.387 . S
C1229 C1231 1.387 . S
H1230 C1237 0.950 . S
C1231 C1229 1.387 . S
C1231 C1233 1.390 . S
C1231 H1235 0.950 . S
H1232 C1228 0.950 . S
C1233 C1231 1.390 . S
C1233 C1234 1.387 . S
C1233 H1236 0.950 . S
C1234 C1233 1.387 . S
C1234 C1237 1.387 . S
H1235 C1231 0.950 . S
H1236 C1233 0.950 . S
C1237 C1228 1.390 . S
C1237 H1230 0.950 . S
C1237 C1234 1.387 . S
C1238 C1239 1.387 . S
C1238 H1242 0.950 . S
C1238 C1247 1.390 . S
C1239 C1238 1.387 . S
C1239 C1241 1.387 . S
H1240 C1247 0.950 . S
C1241 C1239 1.387 . S
C1241 C1243 1.390 . S
C1241 H1245 0.950 . S
H1242 C1238 0.950 . S
C1243 C1241 1.390 . S
C1243 C1244 1.387 . S
C1243 H1246 0.950 . S
C1244 C1243 1.387 . S
C1244 C1247 1.387 . S
H1245 C1241 0.950 . S
H1246 C1243 0.950 . S
C1247 C1238 1.390 . S
C1247 H1240 0.950 . S
C1247 C1244 1.387 . S
C1248 C1249 1.387 . S
C1248 H1252 0.950 . S
C1248 C1257 1.390 . S
C1249 C1248 1.387 . S
C1249 C1251 1.387 . S
H1250 C1257 0.950 . S
C1251 C1249 1.387 . S
C1251 C1253 1.390 . S
C1251 H1255 0.950 . S
H1252 C1248 0.950 . S
C1253 C1251 1.390 . S
C1253 C1254 1.387 . S
C1253 H1256 0.950 . S
C1254 C1253 1.387 . S
C1254 C1257 1.387 . S
H1255 C1251 0.950 . S
H1256 C1253 0.950 . S
C1257 C1248 1.390 . S
C1257 H1250 0.950 . S
C1257 C1254 1.387 . S
C1258 C1259 1.387 . S
C1258 H1262 0.950 . S
C1258 C1267 1.390 . S
C1259 C1258 1.387 . S
C1259 C1261 1.387 . S
H1260 C1267 0.950 . S
C1261 C1259 1.387 . S
C1261 C1263 1.390 . S
C1261 H1265 0.950 . S
H1262 C1258 0.950 . S
C1263 C1261 1.390 . S
C1263 C1264 1.387 . S
C1263 H1266 0.950 . S
C1264 C1263 1.387 . S
C1264 C1267 1.387 . S
H1265 C1261 0.950 . S
H1266 C1263 0.950 . S
C1267 C1258 1.390 . S
C1267 H1260 0.950 . S
C1267 C1264 1.387 . S
C1268 C1269 1.387 . S
C1268 H1272 0.950 . S
C1268 C1277 1.390 . S
C1269 C1268 1.387 . S
C1269 C1271 1.387 . S
H1270 C1277 0.950 . S
C1271 C1269 1.387 . S
C1271 C1273 1.390 . S
C1271 H1275 0.950 . S
H1272 C1268 0.950 . S
C1273 C1271 1.390 . S
C1273 C1274 1.387 . S
C1273 H1276 0.950 . S
C1274 C1273 1.387 . S
C1274 C1277 1.387 . S
H1275 C1271 0.950 . S
H1276 C1273 0.950 . S
C1277 C1268 1.390 . S
C1277 H1270 0.950 . S
C1277 C1274 1.387 . S
C1278 C1279 1.387 . S
C1278 H1282 0.950 . S
C1278 C1287 1.390 . S
C1279 C1278 1.387 . S
C1279 C1281 1.387 . S
H1280 C1287 0.950 . S
C1281 C1279 1.387 . S
C1281 C1283 1.390 . S
C1281 H1285 0.950 . S
H1282 C1278 0.950 . S
C1283 C1281 1.390 . S
C1283 C1284 1.387 . S
C1283 H1286 0.950 . S
C1284 C1283 1.387 . S
C1284 C1287 1.387 . S
H1285 C1281 0.950 . S
H1286 C1283 0.950 . S
C1287 C1278 1.390 . S
C1287 H1280 0.950 . S
C1287 C1284 1.387 . S
C1288 C1289 1.387 . S
C1288 H1292 0.950 . S
C1288 C1297 1.390 . S
C1289 C1288 1.387 . S
C1289 C1291 1.387 . S
H1290 C1297 0.950 . S
C1291 C1289 1.387 . S
C1291 C1293 1.390 . S
C1291 H1295 0.950 . S
H1292 C1288 0.950 . S
C1293 C1291 1.390 . S
C1293 C1294 1.387 . S
C1293 H1296 0.950 . S
C1294 C1293 1.387 . S
C1294 C1297 1.387 . S
H1295 C1291 0.950 . S
H1296 C1293 0.950 . S
C1297 C1288 1.390 . S
C1297 H1290 0.950 . S
C1297 C1294 1.387 . S
C1298 C1299 1.387 . S
C1298 H1302 0.950 . S
C1298 C1307 1.390 . S
C1299 C1298 1.387 . S
C1299 C1301 1.387 . S
H1300 C1307 0.950 . S
C1301 C1299 1.387 . S
C1301 C1303 1.390 . S
C1301 H1305 0.950 . S
H1302 C1298 0.950 . S
C1303 C1301 1.390 . S
C1303 C1304 1.387 . S
C1303 H1306 0.950 . S
C1304 C1303 1.387 . S
C1304 C1307 1.387 . S
H1305 C1301 0.950 . S
H1306 C1303 0.950 . S
C1307 C1298 1.390 . S
C1307 H1300 0.950 . S
C1307 C1304 1.387 . S
C1308 C1309 1.387 1_455 S
C1308 H1312 0.950 . S
C1308 C1317 1.390 . S
C1309 C1308 1.387 1_655 S
C1309 C1311 1.387 . S
H1310 C1317 0.950 . S
C1311 C1309 1.387 . S
C1311 C1313 1.390 . S
C1311 H1315 0.950 . S
H1312 C1308 0.950 . S
C1313 C1311 1.390 . S
C1313 C1314 1.387 1_655 S
C1313 H1316 0.950 . S
C1314 C1313 1.387 1_455 S
C1314 C1317 1.387 . S
H1315 C1311 0.950 . S
H1316 C1313 0.950 . S
C1317 C1308 1.390 . S
C1317 H1310 0.950 . S
C1317 C1314 1.387 . S
C1318 C1319 1.387 . S
C1318 H1322 0.950 . S
C1318 C1327 1.390 . S
C1319 C1318 1.387 . S
C1319 C1321 1.387 . S
H1320 C1327 0.950 . S
C1321 C1319 1.387 . S
C1321 C1323 1.390 . S
C1321 H1325 0.950 . S
H1322 C1318 0.950 . S
C1323 C1321 1.390 . S
C1323 C1324 1.387 . S
C1323 H1326 0.950 . S
C1324 C1323 1.387 . S
C1324 C1327 1.387 . S
H1325 C1321 0.950 . S
H1326 C1323 0.950 . S
C1327 C1318 1.390 . S
C1327 H1320 0.950 . S
C1327 C1324 1.387 . S
C1328 C1329 1.387 . S
C1328 H1332 0.950 . S
C1328 C1337 1.390 1_545 S
C1329 C1328 1.387 . S
C1329 C1331 1.387 . S
H1330 C1337 0.950 . S
C1331 C1329 1.387 . S
C1331 C1333 1.390 1_545 S
C1331 H1335 0.950 . S
H1332 C1328 0.950 . S
C1333 C1331 1.390 1_565 S
C1333 C1334 1.387 . S
C1333 H1336 0.950 . S
C1334 C1333 1.387 . S
C1334 C1337 1.387 . S
H1335 C1331 0.950 . S
H1336 C1333 0.950 . S
C1337 C1328 1.390 1_565 S
C1337 H1330 0.950 . S
C1337 C1334 1.387 . S
C1338 C1339 1.387 . S
C1338 H1342 0.950 . S
C1338 C1347 1.390 . S
C1339 C1338 1.387 . S
C1339 C1341 1.387 1_564 S
H1340 C1347 0.950 . S
C1341 C1339 1.387 1_546 S
C1341 C1343 1.390 . S
C1341 H1345 0.950 . S
H1342 C1338 0.950 . S
C1343 C1341 1.390 . S
C1343 C1344 1.387 . S
C1343 H1346 0.950 . S
C1344 C1343 1.387 . S
C1344 C1347 1.387 1_546 S
H1345 C1341 0.950 . S
H1346 C1343 0.950 . S
C1347 C1338 1.390 . S
C1347 H1340 0.950 . S
C1347 C1344 1.387 1_564 S
C1348 C1349 1.387 . S
C1348 H1352 0.950 . S
C1348 C1357 1.390 1_655 S
C1349 C1348 1.387 . S
C1349 C1351 1.387 1_556 S
H1350 C1357 0.950 . S
C1351 C1349 1.387 1_554 S
C1351 C1353 1.390 1_655 S
C1351 H1355 0.950 . S
H1352 C1348 0.950 . S
C1353 C1351 1.390 1_455 S
C1353 C1354 1.387 . S
C1353 H1356 0.950 . S
C1354 C1353 1.387 . S
C1354 C1357 1.387 1_554 S
H1355 C1351 0.950 . S
H1356 C1353 0.950 . S
C1357 C1348 1.390 1_455 S
C1357 H1350 0.950 . S
C1357 C1354 1.387 1_556 S
C1358 C1359 1.387 . S
C1358 H1362 0.950 . S
C1358 C1367 1.390 . S
C1359 C1358 1.387 . S
C1359 C1361 1.387 1_554 S
H1360 C1367 0.950 . S
C1361 C1359 1.387 1_556 S
C1361 C1363 1.390 . S
C1361 H1365 0.950 . S
H1362 C1358 0.950 . S
C1363 C1361 1.390 . S
C1363 C1364 1.387 . S
C1363 H1366 0.950 . S
C1364 C1363 1.387 . S
C1364 C1367 1.387 1_556 S
H1365 C1361 0.950 . S
H1366 C1363 0.950 . S
C1367 C1358 1.390 . S
C1367 H1360 0.950 . S
C1367 C1364 1.387 1_554 S
C1368 C1369 1.387 . S
C1368 H1372 0.950 . S
C1368 C1377 1.390 . S
C1369 C1368 1.387 . S
C1369 C1371 1.387 . S
H1370 C1377 0.950 . S
C1371 C1369 1.387 . S
C1371 C1373 1.390 . S
C1371 H1375 0.950 . S
H1372 C1368 0.950 . S
C1373 C1371 1.390 . S
C1373 C1374 1.387 . S
C1373 H1376 0.950 . S
C1374 C1373 1.387 . S
C1374 C1377 1.387 . S
H1375 C1371 0.950 . S
H1376 C1373 0.950 . S
C1377 C1368 1.390 . S
C1377 H1370 0.950 . S
C1377 C1374 1.387 . S
C1378 C1379 1.387 . S
C1378 H1382 0.950 . S
C1378 C1387 1.390 . S
C1379 C1378 1.387 . S
C1379 C1381 1.387 . S
H1380 C1387 0.950 . S
C1381 C1379 1.387 . S
C1381 C1383 1.390 . S
C1381 H1385 0.950 . S
H1382 C1378 0.950 . S
C1383 C1381 1.390 . S
C1383 C1384 1.387 . S
C1383 H1386 0.950 . S
C1384 C1383 1.387 . S
C1384 C1387 1.387 . S
H1385 C1381 0.950 . S
H1386 C1383 0.950 . S
C1387 C1378 1.390 . S
C1387 H1380 0.950 . S
C1387 C1384 1.387 . S
C1388 C1389 1.387 . S
C1388 H1392 0.950 . S
C1388 C1397 1.390 . S
C1389 C1388 1.387 . S
C1389 C1391 1.387 . S
H1390 C1397 0.950 . S
C1391 C1389 1.387 . S
C1391 C1393 1.390 . S
C1391 H1395 0.950 . S
H1392 C1388 0.950 . S
C1393 C1391 1.390 . S
C1393 C1394 1.387 . S
C1393 H1396 0.950 . S
C1394 C1393 1.387 . S
C1394 C1397 1.387 . S
H1395 C1391 0.950 . S
H1396 C1393 0.950 . S
C1397 C1388 1.390 . S
C1397 H1390 0.950 . S
C1397 C1394 1.387 . S
C1398 C1399 1.387 . S
C1398 H1402 0.950 . S
C1398 C1407 1.390 . S
C1399 C1398 1.387 . S
C1399 C1401 1.387 . S
H1400 C1407 0.950 . S
C1401 C1399 1.387 . S
C1401 C1403 1.390 . S
C1401 H1405 0.950 . S
H1402 C1398 0.950 . S
C1403 C1401 1.390 . S
C1403 C1404 1.387 . S
C1403 H1406 0.950 . S
C1404 C1403 1.387 . S
C1404 C1407 1.387 . S
H1405 C1401 0.950 . S
H1406 C1403 0.950 . S
C1407 C1398 1.390 . S
C1407 H1400 0.950 . S
C1407 C1404 1.387 . S
C1408 C1409 1.387 . S
C1408 H1412 0.950 . S
C1408 C1417 1.390 . S
C1409 C1408 1.387 . S
C1409 C1411 1.387 . S
H1410 C1417 0.950 . S
C1411 C1409 1.387 . S
C1411 C1413 1.390 . S
C1411 H1415 0.950 . S
H1412 C1408 0.950 . S
C1413 C1411 1.390 . S
C1413 C1414 1.387 . S
C1413 H1416 0.950 . S
C1414 C1413 1.387 . S
C1414 C1417 1.387 . S
H1415 C1411 0.950 . S
H1416 C1413 0.950 . S
C1417 C1408 1.390 . S
C1417 H1410 0.950 . S
C1417 C1414 1.387 . S
C1418 C1419 1.387 . S
C1418 H1422 0.950 . S
C1418 C1427 1.390 . S
C1419 C1418 1.387 . S
C1419 C1421 1.387 . S
H1420 C1427 0.950 . S
C1421 C1419 1.387 . S
C1421 C1423 1.390 . S
C1421 H1425 0.950 . S
H1422 C1418 0.950 . S
C1423 C1421 1.390 . S
C1423 C1424 1.387 . S
C1423 H1426 0.950 . S
C1424 C1423 1.387 . S
C1424 C1427 1.387 . S
H1425 C1421 0.950 . S
H1426 C1423 0.950 . S
C1427 C1418 1.390 . S
C1427 H1420 0.950 . S
C1427 C1424 1.387 . S
C1428 C1429 1.387 . S
C1428 H1432 0.950 . S
C1428 C1437 1.390 . S
C1429 C1428 1.387 . S
C1429 C1431 1.387 . S
H1430 C1437 0.950 . S
C1431 C1429 1.387 . S
C1431 C1433 1.390 . S
C1431 H1435 0.950 . S
H1432 C1428 0.950 . S
C1433 C1431 1.390 . S
C1433 C1434 1.387 . S
C1433 H1436 0.950 . S
C1434 C1433 1.387 . S
C1434 C1437 1.387 . S
H1435 C1431 0.950 . S
H1436 C1433 0.950 . S
C1437 C1428 1.390 . S
C1437 H1430 0.950 . S
C1437 C1434 1.387 . S
C1438 C1439 1.387 . S
C1438 H1442 0.950 . S
C1438 C1447 1.390 . S
C1439 C1438 1.387 . S
C1439 C1441 1.387 . S
H1440 C1447 0.950 . S
C1441 C1439 1.387 . S
C1441 C1443 1.390 . S
C1441 H1445 0.950 . S
H1442 C1438 0.950 . S
C1443 C1441 1.390 . S
C1443 C1444 1.387 . S
C1443 H1446 0.950 . S
C1444 C1443 1.387 . S
C1444 C1447 1.387 . S
H1445 C1441 0.950 . S
H1446 C1443 0.950 . S
C1447 C1438 1.390 . S
C1447 H1440 0.950 . S
C1447 C1444 1.387 . S
C1448 C1449 1.387 . S
C1448 H1452 0.950 . S
C1448 C1457 1.390 . S
C1449 C1448 1.387 . S
C1449 C1451 1.387 . S
H1450 C1457 0.950 . S
C1451 C1449 1.387 . S
C1451 C1453 1.390 . S
C1451 H1455 0.950 . S
H1452 C1448 0.950 . S
C1453 C1451 1.390 . S
C1453 C1454 1.387 . S
C1453 H1456 0.950 . S
C1454 C1453 1.387 . S
C1454 C1457 1.387 . S
H1455 C1451 0.950 . S
H1456 C1453 0.950 . S
C1457 C1448 1.390 . S
C1457 H1450 0.950 . S
C1457 C1454 1.387 . S
C1458 C1459 1.387 . S
C1458 H1462 0.950 . S
C1458 C1467 1.390 . S
C1459 C1458 1.387 . S
C1459 C1461 1.387 . S
H1460 C1467 0.950 . S
C1461 C1459 1.387 . S
C1461 C1463 1.390 . S
C1461 H1465 0.950 . S
H1462 C1458 0.950 . S
C1463 C1461 1.390 . S
C1463 C1464 1.387 . S
C1463 H1466 0.950 . S
C1464 C1463 1.387 . S
C1464 C1467 1.387 . S
H1465 C1461 0.950 . S
H1466 C1463 0.950 . S
C1467 C1458 1.390 . S
C1467 H1460 0.950 . S
C1467 C1464 1.387 . S
C1468 C1469 1.387 . S
C1468 H1472 0.950 . S
C1468 C1477 1.390 . S
C1469 C1468 1.387 . S
C1469 C1471 1.387 . S
H1470 C1477 0.950 . S
C1471 C1469 1.387 . S
C1471 C1473 1.390 . S
C1471 H1475 0.950 . S
H1472 C1468 0.950 . S
C1473 C1471 1.390 . S
C1473 C1474 1.387 . S
C1473 H1476 0.950 . S
C1474 C1473 1.387 . S
C1474 C1477 1.387 . S
H1475 C1471 0.950 . S
H1476 C1473 0.950 . S
C1477 C1468 1.390 . S
C1477 H1470 0.950 . S
C1477 C1474 1.387 . S
C1478 C1479 1.387 . S
C1478 H1482 0.950 . S
C1478 C1487 1.390 . S
C1479 C1478 1.387 . S
C1479 C1481 1.387 . S
H1480 C1487 0.950 . S
C1481 C1479 1.387 . S
C1481 C1483 1.390 . S
C1481 H1485 0.950 . S
H1482 C1478 0.950 . S
C1483 C1481 1.390 . S
C1483 C1484 1.387 . S
C1483 H1486 0.950 . S
C1484 C1483 1.387 . S
C1484 C1487 1.387 . S
H1485 C1481 0.950 . S
H1486 C1483 0.950 . S
C1487 C1478 1.390 . S
C1487 H1480 0.950 . S
C1487 C1484 1.387 . S
C1488 C1489 1.387 . S
C1488 H1492 0.950 . S
C1488 C1497 1.390 1_455 S
C1489 C1488 1.387 . S
C1489 C1491 1.387 . S
H1490 C1497 0.950 . S
C1491 C1489 1.387 . S
C1491 C1493 1.390 1_455 S
C1491 H1495 0.950 . S
H1492 C1488 0.950 . S
C1493 C1491 1.390 1_655 S
C1493 C1494 1.387 . S
C1493 H1496 0.950 . S
C1494 C1493 1.387 . S
C1494 C1497 1.387 . S
H1495 C1491 0.950 . S
H1496 C1493 0.950 . S
C1497 C1488 1.390 1_655 S
C1497 H1490 0.950 . S
C1497 C1494 1.387 . S
C1498 C1499 1.387 . S
C1498 H1502 0.950 . S
C1498 C1507 1.390 . S
C1499 C1498 1.387 . S
C1499 C1501 1.387 . S
H1500 C1507 0.950 . S
C1501 C1499 1.387 . S
C1501 C1503 1.390 . S
C1501 H1505 0.950 . S
H1502 C1498 0.950 . S
C1503 C1501 1.390 . S
C1503 C1504 1.387 . S
C1503 H1506 0.950 . S
C1504 C1503 1.387 . S
C1504 C1507 1.387 . S
H1505 C1501 0.950 . S
H1506 C1503 0.950 . S
C1507 C1498 1.390 . S
C1507 H1500 0.950 . S
C1507 C1504 1.387 . S
C1508 C1509 1.387 . S
C1508 H1512 0.950 . S
C1508 C1517 1.390 1_545 S
C1509 C1508 1.387 . S
C1509 C1511 1.387 . S
H1510 C1517 0.950 . S
C1511 C1509 1.387 . S
C1511 C1513 1.390 1_545 S
C1511 H1515 0.950 . S
H1512 C1508 0.950 . S
C1513 C1511 1.390 1_565 S
C1513 C1514 1.387 . S
C1513 H1516 0.950 . S
C1514 C1513 1.387 . S
C1514 C1517 1.387 . S
H1515 C1511 0.950 . S
H1516 C1513 0.950 . S
C1517 C1508 1.390 1_565 S
C1517 H1510 0.950 . S
C1517 C1514 1.387 . S
C1518 C1519 1.387 . S
C1518 H1522 0.950 . S
C1518 C1527 1.390 1_565 S
C1519 C1518 1.387 . S
C1519 C1521 1.387 . S
H1520 C1527 0.950 . S
C1521 C1519 1.387 . S
C1521 C1523 1.390 1_565 S
C1521 H1525 0.950 . S
H1522 C1518 0.950 . S
C1523 C1521 1.390 1_545 S
C1523 C1524 1.387 . S
C1523 H1526 0.950 . S
C1524 C1523 1.387 . S
C1524 C1527 1.387 . S
H1525 C1521 0.950 . S
H1526 C1523 0.950 . S
C1527 C1518 1.390 1_545 S
C1527 H1520 0.950 . S
C1527 C1524 1.387 . S
C1528 C1529 1.387 . S
C1528 H1532 0.950 . S
C1528 C1537 1.390 1_455 S
C1529 C1528 1.387 . S
C1529 C1531 1.387 . S
H1530 C1537 0.950 . S
C1531 C1529 1.387 . S
C1531 C1533 1.390 1_455 S
C1531 H1535 0.950 . S
H1532 C1528 0.950 . S
C1533 C1531 1.390 1_655 S
C1533 C1534 1.387 . S
C1533 H1536 0.950 . S
C1534 C1533 1.387 . S
C1534 C1537 1.387 . S
H1535 C1531 0.950 . S
H1536 C1533 0.950 . S
C1537 C1528 1.390 1_655 S
C1537 H1530 0.950 . S
C1537 C1534 1.387 . S
C1538 C1539 1.387 . S
C1538 H1542 0.950 . S
C1538 C1547 1.390 . S
C1539 C1538 1.387 . S
C1539 C1541 1.387 . S
H1540 C1547 0.950 . S
C1541 C1539 1.387 . S
C1541 C1543 1.390 . S
C1541 H1545 0.950 . S
H1542 C1538 0.950 . S
C1543 C1541 1.390 . S
C1543 C1544 1.387 . S
C1543 H1546 0.950 . S
C1544 C1543 1.387 . S
C1544 C1547 1.387 . S
H1545 C1541 0.950 . S
H1546 C1543 0.950 . S
C1547 C1538 1.390 . S
C1547 H1540 0.950 . S
C1547 C1544 1.387 . S
C1548 C1549 1.387 . S
C1548 H1552 0.950 . S
C1548 C1557 1.390 . S
C1549 C1548 1.387 . S
C1549 C1551 1.387 . S
H1550 C1557 0.950 . S
C1551 C1549 1.387 . S
C1551 C1553 1.390 . S
C1551 H1555 0.950 . S
H1552 C1548 0.950 . S
C1553 C1551 1.390 . S
C1553 C1554 1.387 . S
C1553 H1556 0.950 . S
C1554 C1553 1.387 . S
C1554 C1557 1.387 . S
H1555 C1551 0.950 . S
H1556 C1553 0.950 . S
C1557 C1548 1.390 . S
C1557 H1550 0.950 . S
C1557 C1554 1.387 . S
C1558 C1559 1.387 . S
C1558 H1562 0.950 . S
C1558 C1567 1.390 1_545 S
C1559 C1558 1.387 . S
C1559 C1561 1.387 . S
H1560 C1567 0.950 . S
C1561 C1559 1.387 . S
C1561 C1563 1.390 1_545 S
C1561 H1565 0.950 . S
H1562 C1558 0.950 . S
C1563 C1561 1.390 1_565 S
C1563 C1564 1.387 . S
C1563 H1566 0.950 . S
C1564 C1563 1.387 . S
C1564 C1567 1.387 . S
H1565 C1561 0.950 . S
H1566 C1563 0.950 . S
C1567 C1558 1.390 1_565 S
C1567 H1560 0.950 . S
C1567 C1564 1.387 . S
C1568 C1569 1.387 1_455 S
C1568 H1572 0.950 . S
C1568 C1577 1.390 . S
C1569 C1568 1.387 1_655 S
C1569 C1571 1.387 . S
H1570 C1577 0.950 . S
C1571 C1569 1.387 . S
C1571 C1573 1.390 . S
C1571 H1575 0.950 . S
H1572 C1568 0.950 . S
C1573 C1571 1.390 . S
C1573 C1574 1.387 1_655 S
C1573 H1576 0.950 . S
C1574 C1573 1.387 1_455 S
C1574 C1577 1.387 . S
H1575 C1571 0.950 . S
H1576 C1573 0.950 . S
C1577 C1568 1.390 . S
C1577 H1570 0.950 . S
C1577 C1574 1.387 . S
C1578 C1579 1.387 . S
C1578 H1582 0.950 . S
C1578 C1587 1.390 . S
C1579 C1578 1.387 . S
C1579 C1581 1.387 . S
H1580 C1587 0.950 . S
C1581 C1579 1.387 . S
C1581 C1583 1.390 . S
C1581 H1585 0.950 . S
H1582 C1578 0.950 . S
C1583 C1581 1.390 . S
C1583 C1584 1.387 . S
C1583 H1586 0.950 . S
C1584 C1583 1.387 . S
C1584 C1587 1.387 . S
H1585 C1581 0.950 . S
H1586 C1583 0.950 . S
C1587 C1578 1.390 . S
C1587 H1580 0.950 . S
C1587 C1584 1.387 . S
C1588 C1589 1.387 . S
C1588 H1592 0.950 . S
C1588 C1597 1.390 1_565 S
C1589 C1588 1.387 . S
C1589 C1591 1.387 . S
H1590 C1597 0.950 . S
C1591 C1589 1.387 . S
C1591 C1593 1.390 1_565 S
C1591 H1595 0.950 . S
H1592 C1588 0.950 . S
C1593 C1591 1.390 1_545 S
C1593 C1594 1.387 . S
C1593 H1596 0.950 . S
C1594 C1593 1.387 . S
C1594 C1597 1.387 . S
H1595 C1591 0.950 . S
H1596 C1593 0.950 . S
C1597 C1588 1.390 1_545 S
C1597 H1590 0.950 . S
C1597 C1594 1.387 . S
C1598 C1599 1.387 1_455 S
C1598 H1602 0.950 . S
C1598 C1607 1.390 . S
C1599 C1598 1.387 1_655 S
C1599 C1601 1.387 . S
H1600 C1607 0.950 . S
C1601 C1599 1.387 . S
C1601 C1603 1.390 . S
C1601 H1605 0.950 . S
H1602 C1598 0.950 . S
C1603 C1601 1.390 . S
C1603 C1604 1.387 1_655 S
C1603 H1606 0.950 . S
C1604 C1603 1.387 1_455 S
C1604 C1607 1.387 . S
H1605 C1601 0.950 . S
H1606 C1603 0.950 . S
C1607 C1598 1.390 . S
C1607 H1600 0.950 . S
C1607 C1604 1.387 . S
C1608 C1609 1.387 . S
C1608 H1612 0.950 . S
C1608 C1617 1.390 . S
C1609 C1608 1.387 . S
C1609 C1611 1.387 . S
H1610 C1617 0.950 . S
C1611 C1609 1.387 . S
C1611 C1613 1.390 . S
C1611 H1615 0.950 . S
H1612 C1608 0.950 . S
C1613 C1611 1.390 . S
C1613 C1614 1.387 . S
C1613 H1616 0.950 . S
C1614 C1613 1.387 . S
C1614 C1617 1.387 . S
H1615 C1611 0.950 . S
H1616 C1613 0.950 . S
C1617 C1608 1.390 . S
C1617 H1610 0.950 . S
C1617 C1614 1.387 . S
C1618 C1619 1.387 . S
C1618 H1622 0.950 . S
C1618 C1627 1.390 . S
C1619 C1618 1.387 . S
C1619 C1621 1.387 . S
H1620 C1627 0.950 . S
C1621 C1619 1.387 . S
C1621 C1623 1.390 . S
C1621 H1625 0.950 . S
H1622 C1618 0.950 . S
C1623 C1621 1.390 . S
C1623 C1624 1.387 . S
C1623 H1626 0.950 . S
C1624 C1623 1.387 . S
C1624 C1627 1.387 . S
H1625 C1621 0.950 . S
H1626 C1623 0.950 . S
C1627 C1618 1.390 . S
C1627 H1620 0.950 . S
C1627 C1624 1.387 . S
C1628 C1629 1.387 . S
C1628 H1632 0.950 . S
C1628 C1637 1.390 . S
C1629 C1628 1.387 . S
C1629 C1631 1.387 . S
H1630 C1637 0.950 . S
C1631 C1629 1.387 . S
C1631 C1633 1.390 . S
C1631 H1635 0.950 . S
H1632 C1628 0.950 . S
C1633 C1631 1.390 . S
C1633 C1634 1.387 . S
C1633 H1636 0.950 . S
C1634 C1633 1.387 . S
C1634 C1637 1.387 . S
H1635 C1631 0.950 . S
H1636 C1633 0.950 . S
C1637 C1628 1.390 . S
C1637 H1630 0.950 . S
C1637 C1634 1.387 . S
C1638 C1639 1.387 . S
C1638 H1642 0.950 . S
C1638 C1647 1.390 . S
C1639 C1638 1.387 . S
C1639 C1641 1.387 . S
H1640 C1647 0.950 . S
C1641 C1639 1.387 . S
C1641 C1643 1.390 . S
C1641 H1645 0.950 . S
H1642 C1638 0.950 . S
C1643 C1641 1.390 . S
C1643 C1644 1.387 . S
C1643 H1646 0.950 . S
C1644 C1643 1.387 . S
C1644 C1647 1.387 . S
H1645 C1641 0.950 . S
H1646 C1643 0.950 . S
C1647 C1638 1.390 . S
C1647 H1640 0.950 . S
C1647 C1644 1.387 . S
C1648 C1649 1.387 . S
C1648 H1652 0.950 . S
C1648 C1657 1.390 . S
C1649 C1648 1.387 . S
C1649 C1651 1.387 . S
H1650 C1657 0.950 . S
C1651 C1649 1.387 . S
C1651 C1653 1.390 . S
C1651 H1655 0.950 . S
H1652 C1648 0.950 . S
C1653 C1651 1.390 . S
C1653 C1654 1.387 . S
C1653 H1656 0.950 . S
C1654 C1653 1.387 . S
C1654 C1657 1.387 . S
H1655 C1651 0.950 . S
H1656 C1653 0.950 . S
C1657 C1648 1.390 . S
C1657 H1650 0.950 . S
C1657 C1654 1.387 . S
C1658 C1659 1.387 . S
C1658 H1662 0.950 . S
C1658 C1667 1.390 . S
C1659 C1658 1.387 . S
C1659 C1661 1.387 . S
H1660 C1667 0.950 . S
C1661 C1659 1.387 . S
C1661 C1663 1.390 . S
C1661 H1665 0.950 . S
H1662 C1658 0.950 . S
C1663 C1661 1.390 . S
C1663 C1664 1.387 . S
C1663 H1666 0.950 . S
C1664 C1663 1.387 . S
C1664 C1667 1.387 . S
H1665 C1661 0.950 . S
H1666 C1663 0.950 . S
C1667 C1658 1.390 . S
C1667 H1660 0.950 . S
C1667 C1664 1.387 . S
C1668 C1669 1.387 . S
C1668 H1672 0.950 . S
C1668 C1677 1.390 . S
C1669 C1668 1.387 . S
C1669 C1671 1.387 . S
H1670 C1677 0.950 . S
C1671 C1669 1.387 . S
C1671 C1673 1.390 . S
C1671 H1675 0.950 . S
H1672 C1668 0.950 . S
C1673 C1671 1.390 . S
C1673 C1674 1.387 . S
C1673 H1676 0.950 . S
C1674 C1673 1.387 . S
C1674 C1677 1.387 . S
H1675 C1671 0.950 . S
H1676 C1673 0.950 . S
C1677 C1668 1.390 . S
C1677 H1670 0.950 . S
C1677 C1674 1.387 . S
C1678 C1679 1.387 . S
C1678 H1682 0.950 . S
C1678 C1687 1.390 . S
C1679 C1678 1.387 . S
C1679 C1681 1.387 . S
H1680 C1687 0.950 . S
C1681 C1679 1.387 . S
C1681 C1683 1.390 . S
C1681 H1685 0.950 . S
H1682 C1678 0.950 . S
C1683 C1681 1.390 . S
C1683 C1684 1.387 . S
C1683 H1686 0.950 . S
C1684 C1683 1.387 . S
C1684 C1687 1.387 . S
H1685 C1681 0.950 . S
H1686 C1683 0.950 . S
C1687 C1678 1.390 . S
C1687 H1680 0.950 . S
C1687 C1684 1.387 . S
C1688 C1689 1.387 . S
C1688 H1692 0.950 . S
C1688 C1697 1.390 . S
C1689 C1688 1.387 . S
C1689 C1691 1.387 . S
H1690 C1697 0.950 . S
C1691 C1689 1.387 . S
C1691 C1693 1.390 . S
C1691 H1695 0.950 . S
H1692 C1688 0.950 . S
C1693 C1691 1.390 . S
C1693 C1694 1.387 . S
C1693 H1696 0.950 . S
C1694 C1693 1.387 . S
C1694 C1697 1.387 . S
H1695 C1691 0.950 . S
H1696 C1693 0.950 . S
C1697 C1688 1.390 . S
C1697 H1690 0.950 . S
C1697 C1694 1.387 . S
C1698 C1699 1.387 . S
C1698 H1702 0.950 . S
C1698 C1707 1.390 . S
C1699 C1698 1.387 . S
C1699 C1701 1.387 . S
H1700 C1707 0.950 . S
C1701 C1699 1.387 . S
C1701 C1703 1.390 . S
C1701 H1705 0.950 . S
H1702 C1698 0.950 . S
C1703 C1701 1.390 . S
C1703 C1704 1.387 . S
C1703 H1706 0.950 . S
C1704 C1703 1.387 . S
C1704 C1707 1.387 . S
H1705 C1701 0.950 . S
H1706 C1703 0.950 . S
C1707 C1698 1.390 . S
C1707 H1700 0.950 . S
C1707 C1704 1.387 . S
C1708 C1709 1.387 . S
C1708 H1712 0.950 . S
C1708 C1717 1.390 . S
C1709 C1708 1.387 . S
C1709 C1711 1.387 . S
H1710 C1717 0.950 . S
C1711 C1709 1.387 . S
C1711 C1713 1.390 . S
C1711 H1715 0.950 . S
H1712 C1708 0.950 . S
C1713 C1711 1.390 . S
C1713 C1714 1.387 . S
C1713 H1716 0.950 . S
C1714 C1713 1.387 . S
C1714 C1717 1.387 . S
H1715 C1711 0.950 . S
H1716 C1713 0.950 . S
C1717 C1708 1.390 . S
C1717 H1710 0.950 . S
C1717 C1714 1.387 . S
C1718 C1719 1.387 . S
C1718 H1722 0.950 . S
C1718 C1727 1.390 . S
C1719 C1718 1.387 . S
C1719 C1721 1.387 . S
H1720 C1727 0.950 . S
C1721 C1719 1.387 . S
C1721 C1723 1.390 . S
C1721 H1725 0.950 . S
H1722 C1718 0.950 . S
C1723 C1721 1.390 . S
C1723 C1724 1.387 . S
C1723 H1726 0.950 . S
C1724 C1723 1.387 . S
C1724 C1727 1.387 . S
H1725 C1721 0.950 . S
H1726 C1723 0.950 . S
C1727 C1718 1.390 . S
C1727 H1720 0.950 . S
C1727 C1724 1.387 . S
C1728 C1729 1.387 . S
C1728 H1732 0.950 . S
C1728 C1737 1.390 . S
C1729 C1728 1.387 . S
C1729 C1731 1.387 . S
H1730 C1737 0.950 . S
C1731 C1729 1.387 . S
C1731 C1733 1.390 . S
C1731 H1735 0.950 . S
H1732 C1728 0.950 . S
C1733 C1731 1.390 . S
C1733 C1734 1.387 . S
C1733 H1736 0.950 . S
C1734 C1733 1.387 . S
C1734 C1737 1.387 . S
H1735 C1731 0.950 . S
H1736 C1733 0.950 . S
C1737 C1728 1.390 . S
C1737 H1730 0.950 . S
C1737 C1734 1.387 . S
C1738 C1739 1.387 . S
C1738 H1742 0.950 . S
C1738 C1747 1.390 . S
C1739 C1738 1.387 . S
C1739 C1741 1.387 . S
H1740 C1747 0.950 1_545 S
C1741 C1739 1.387 . S
C1741 C1743 1.390 . S
C1741 H1745 0.950 . S
H1742 C1738 0.950 . S
C1743 C1741 1.390 . S
C1743 C1744 1.387 1_565 S
C1743 H1746 0.950 . S
C1744 C1743 1.387 1_545 S
C1744 C1747 1.387 1_545 S
H1745 C1741 0.950 . S
H1746 C1743 0.950 . S
C1747 C1738 1.390 . S
C1747 H1740 0.950 1_565 S
C1747 C1744 1.387 1_565 S
C1748 C1749 1.387 1_455 S
C1748 H1752 0.950 1_455 S
C1748 C1757 1.390 . S
C1749 C1748 1.387 1_655 S
C1749 C1751 1.387 1_655 S
H1750 C1757 0.950 . S
C1751 C1749 1.387 1_455 S
C1751 C1753 1.390 . S
C1751 H1755 0.950 . S
H1752 C1748 0.950 1_655 S
C1753 C1751 1.390 . S
C1753 C1754 1.387 . S
C1753 H1756 0.950 . S
C1754 C1753 1.387 . S
C1754 C1757 1.387 . S
H1755 C1751 0.950 . S
H1756 C1753 0.950 . S
C1757 C1748 1.390 . S
C1757 H1750 0.950 . S
C1757 C1754 1.387 . S
C1758 C1759 1.387 . S
C1758 H1762 0.950 . S
C1758 C1767 1.390 . S
C1759 C1758 1.387 . S
C1759 C1761 1.387 . S
H1760 C1767 0.950 . S
C1761 C1759 1.387 . S
C1761 C1763 1.390 . S
C1761 H1765 0.950 . S
H1762 C1758 0.950 . S
C1763 C1761 1.390 . S
C1763 C1764 1.387 . S
C1763 H1766 0.950 . S
C1764 C1763 1.387 . S
C1764 C1767 1.387 . S
H1765 C1761 0.950 . S
H1766 C1763 0.950 . S
C1767 C1758 1.390 . S
C1767 H1760 0.950 . S
C1767 C1764 1.387 . S
C1768 C1769 1.387 1_545 S
C1768 H1772 0.950 . S
C1768 C1777 1.390 . S
C1769 C1768 1.387 1_565 S
C1769 C1771 1.387 1_565 S
H1770 C1777 0.950 . S
C1771 C1769 1.387 1_545 S
C1771 C1773 1.390 . S
C1771 H1775 0.950 1_545 S
H1772 C1768 0.950 . S
C1773 C1771 1.390 . S
C1773 C1774 1.387 . S
C1773 H1776 0.950 . S
C1774 C1773 1.387 . S
C1774 C1777 1.387 . S
H1775 C1771 0.950 1_565 S
H1776 C1773 0.950 . S
C1777 C1768 1.390 . S
C1777 H1770 0.950 . S
C1777 C1774 1.387 . S
C1778 C1779 1.387 . S
C1778 H1782 0.950 . S
C1778 C1787 1.390 . S
C1779 C1778 1.387 . S
C1779 C1781 1.387 1_455 S
H1780 C1787 0.950 . S
C1781 C1779 1.387 1_655 S
C1781 C1783 1.390 . S
C1781 H1785 0.950 . S
H1782 C1778 0.950 . S
C1783 C1781 1.390 . S
C1783 C1784 1.387 . S
C1783 H1786 0.950 . S
C1784 C1783 1.387 . S
C1784 C1787 1.387 1_655 S
H1785 C1781 0.950 . S
H1786 C1783 0.950 . S
C1787 C1778 1.390 . S
C1787 H1780 0.950 . S
C1787 C1784 1.387 1_455 S
C1788 C1789 1.387 . S
C1788 H1792 0.950 . S
C1788 C1797 1.390 . S
C1789 C1788 1.387 . S
C1789 C1791 1.387 . S
H1790 C1797 0.950 . S
C1791 C1789 1.387 . S
C1791 C1793 1.390 . S
C1791 H1795 0.950 . S
H1792 C1788 0.950 . S
C1793 C1791 1.390 . S
C1793 C1794 1.387 . S
C1793 H1796 0.950 . S
C1794 C1793 1.387 . S
C1794 C1797 1.387 . S
H1795 C1791 0.950 . S
H1796 C1793 0.950 . S
C1797 C1788 1.390 . S
C1797 H1790 0.950 . S
C1797 C1794 1.387 . S
C1798 C1799 1.387 . S
C1798 H1802 0.950 . S
C1798 C1807 1.390 1_565 S
C1799 C1798 1.387 . S
C1799 C1801 1.387 1_565 S
H1800 C1807 0.950 . S
C1801 C1799 1.387 1_545 S
C1801 C1803 1.390 . S
C1801 H1805 0.950 . S
H1802 C1798 0.950 . S
C1803 C1801 1.390 . S
C1803 C1804 1.387 . S
C1803 H1806 0.950 . S
C1804 C1803 1.387 . S
C1804 C1807 1.387 . S
H1805 C1801 0.950 . S
H1806 C1803 0.950 . S
C1807 C1798 1.390 1_545 S
C1807 H1800 0.950 . S
C1807 C1804 1.387 . S
C1808 C1809 1.387 . S
C1808 H1812 0.950 . S
C1808 C1817 1.390 . S
C1809 C1808 1.387 . S
C1809 C1811 1.387 . S
H1810 C1817 0.950 1_455 S
C1811 C1809 1.387 . S
C1811 C1813 1.390 . S
C1811 H1815 0.950 . S
H1812 C1808 0.950 . S
C1813 C1811 1.390 . S
C1813 C1814 1.387 1_655 S
C1813 H1816 0.950 . S
C1814 C1813 1.387 1_455 S
C1814 C1817 1.387 1_455 S
H1815 C1811 0.950 . S
H1816 C1813 0.950 . S
C1817 C1808 1.390 . S
C1817 H1810 0.950 1_655 S
C1817 C1814 1.387 1_655 S
C1818 C1819 1.387 . S
C1818 H1822 0.950 . S
C1818 C1827 1.390 . S
C1819 C1818 1.387 . S
C1819 C1821 1.387 . S
H1820 C1827 0.950 . S
C1821 C1819 1.387 . S
C1821 C1823 1.390 . S
C1821 H1825 0.950 . S
H1822 C1818 0.950 . S
C1823 C1821 1.390 . S
C1823 C1824 1.387 . S
C1823 H1826 0.950 . S
C1824 C1823 1.387 . S
C1824 C1827 1.387 . S
H1825 C1821 0.950 . S
H1826 C1823 0.950 . S
C1827 C1818 1.390 . S
C1827 H1820 0.950 . S
C1827 C1824 1.387 . S
C1828 C1829 1.387 . S
C1828 H1832 0.950 . S
C1828 C1837 1.390 . S
C1829 C1828 1.387 . S
C1829 C1831 1.387 . S
H1830 C1837 0.950 . S
C1831 C1829 1.387 . S
C1831 C1833 1.390 1_565 S
C1831 H1835 0.950 . S
H1832 C1828 0.950 . S
C1833 C1831 1.390 1_545 S
C1833 C1834 1.387 . S
C1833 H1836 0.950 . S
C1834 C1833 1.387 . S
C1834 C1837 1.387 1_545 S
H1835 C1831 0.950 . S
H1836 C1833 0.950 . S
C1837 C1828 1.390 . S
C1837 H1830 0.950 . S
C1837 C1834 1.387 1_565 S
C1838 C1839 1.387 1_655 S
C1838 H1842 0.950 . S
C1838 C1847 1.390 . S
C1839 C1838 1.387 1_455 S
C1839 C1841 1.387 . S
H1840 C1847 0.950 . S
C1841 C1839 1.387 . S
C1841 C1843 1.390 . S
C1841 H1845 0.950 . S
H1842 C1838 0.950 . S
C1843 C1841 1.390 . S
C1843 C1844 1.387 1_455 S
C1843 H1846 0.950 . S
C1844 C1843 1.387 1_655 S
C1844 C1847 1.387 . S
H1845 C1841 0.950 . S
H1846 C1843 0.950 . S
C1847 C1838 1.390 . S
C1847 H1840 0.950 . S
C1847 C1844 1.387 . S
C1848 C1849 1.387 . S
C1848 H1852 0.950 . S
C1848 C1857 1.390 1_655 S
C1849 C1848 1.387 . S
C1849 C1851 1.387 . S
H1850 C1857 0.950 . S
C1851 C1849 1.387 . S
C1851 C1853 1.390 1_655 S
C1851 H1855 0.950 . S
H1852 C1848 0.950 . S
C1853 C1851 1.390 1_455 S
C1853 C1854 1.387 . S
C1853 H1856 0.950 . S
C1854 C1853 1.387 . S
C1854 C1857 1.387 . S
H1855 C1851 0.950 . S
H1856 C1853 0.950 . S
C1857 C1848 1.390 1_455 S
C1857 H1850 0.950 . S
C1857 C1854 1.387 . S
C1858 C1859 1.387 . S
C1858 H1862 0.950 . S
C1858 C1867 1.390 . S
C1859 C1858 1.387 . S
C1859 C1861 1.387 . S
H1860 C1867 0.950 . S
C1861 C1859 1.387 . S
C1861 C1863 1.390 . S
C1861 H1865 0.950 . S
H1862 C1858 0.950 . S
C1863 C1861 1.390 . S
C1863 C1864 1.387 . S
C1863 H1866 0.950 . S
C1864 C1863 1.387 . S
C1864 C1867 1.387 . S
H1865 C1861 0.950 . S
H1866 C1863 0.950 . S
C1867 C1858 1.390 . S
C1867 H1860 0.950 . S
C1867 C1864 1.387 . S
C1868 C1869 1.387 . S
C1868 H1872 0.950 . S
C1868 C1877 1.390 1_545 S
C1869 C1868 1.387 . S
C1869 C1871 1.387 . S
H1870 C1877 0.950 . S
C1871 C1869 1.387 . S
C1871 C1873 1.390 1_545 S
C1871 H1875 0.950 . S
H1872 C1868 0.950 . S
C1873 C1871 1.390 1_565 S
C1873 C1874 1.387 . S
C1873 H1876 0.950 . S
C1874 C1873 1.387 . S
C1874 C1877 1.387 . S
H1875 C1871 0.950 . S
H1876 C1873 0.950 . S
C1877 C1868 1.390 1_565 S
C1877 H1870 0.950 . S
C1877 C1874 1.387 . S
C1878 C1879 1.387 . S
C1878 H1882 0.950 . S
C1878 C1887 1.390 1_545 S
C1879 C1878 1.387 . S
C1879 C1881 1.387 . S
H1880 C1887 0.950 . S
C1881 C1879 1.387 . S
C1881 C1883 1.390 1_545 S
C1881 H1885 0.950 . S
H1882 C1878 0.950 . S
C1883 C1881 1.390 1_565 S
C1883 C1884 1.387 . S
C1883 H1886 0.950 . S
C1884 C1883 1.387 . S
C1884 C1887 1.387 . S
H1885 C1881 0.950 . S
H1886 C1883 0.950 . S
C1887 C1878 1.390 1_565 S
C1887 H1880 0.950 . S
C1887 C1884 1.387 . S
C1888 C1889 1.387 . S
C1888 H1892 0.950 . S
C1888 C1897 1.390 1_655 S
C1889 C1888 1.387 . S
C1889 C1891 1.387 . S
H1890 C1897 0.950 . S
C1891 C1889 1.387 . S
C1891 C1893 1.390 1_655 S
C1891 H1895 0.950 . S
H1892 C1888 0.950 . S
C1893 C1891 1.390 1_455 S
C1893 C1894 1.387 . S
C1893 H1896 0.950 . S
C1894 C1893 1.387 . S
C1894 C1897 1.387 . S
H1895 C1891 0.950 . S
H1896 C1893 0.950 . S
C1897 C1888 1.390 1_455 S
C1897 H1890 0.950 . S
C1897 C1894 1.387 . S
C1898 C1899 1.387 . S
C1898 H1902 0.950 . S
C1898 C1907 1.390 . S
C1899 C1898 1.387 . S
C1899 C1901 1.387 . S
H1900 C1907 0.950 . S
C1901 C1899 1.387 . S
C1901 C1903 1.390 . S
C1901 H1905 0.950 . S
H1902 C1898 0.950 . S
C1903 C1901 1.390 . S
C1903 C1904 1.387 . S
C1903 H1906 0.950 . S
C1904 C1903 1.387 . S
C1904 C1907 1.387 . S
H1905 C1901 0.950 . S
H1906 C1903 0.950 . S
C1907 C1898 1.390 . S
C1907 H1900 0.950 . S
C1907 C1904 1.387 . S
C829 C18 1.298 . S
C834 C181 1.266 . S
C839 C204 1.265 . S
C844 C41 1.297 . S
C849 C158 1.266 . S
C854 C64 1.298 . S
C859 C273 1.263 . S
C864 C87 1.296 . S
C869 C110 1.296 . S
C874 C227 1.263 . S
C879 C133 1.297 . S
C884 C250 1.264 . S
C889 C43 1.264 . S
C894 C156 1.296 . S
C899 C179 1.298 . S
C904 C66 1.266 . S
C909 C20 1.264 . S
C914 C202 1.297 . S
C919 C135 1.265 . S
C924 C225 1.297 . S
C929 C248 1.297 . S
C934 C89 1.265 . S
C939 C271 1.298 . S
C944 C112 1.267 . S
C949 C294 1.296 . S
C954 C457 1.263 . S
C959 C480 1.265 . S
C964 C317 1.297 . S
C969 C434 1.267 . S
C974 C340 1.298 . S
C979 C363 1.298 . S
C984 C549 1.266 . S
C989 C503 1.264 . S
C994 C386 1.296 . S
C999 C409 1.297 . S
C1004 C526 1.264 . S
C1009 C432 1.297 . S
C1014 C319 1.264 . S
C1019 C342 1.266 . S
C1024 C455 1.298 . S
C1029 C478 1.298 . S
C1034 C296 1.267 . S
C1039 C411 1.266 . S
C1044 C501 1.298 . S
C1049 C365 1.266 . S
C1054 C524 1.297 . S
C1059 C547 1.296 . S
C1064 C388 1.264 . S
C1069 C570 1.297 . S
C1074 C733 1.264 . S
C1079 C593 1.297 . S
C1084 C756 1.265 . S
C1089 C710 1.264 . S
C1094 C616 1.296 . S
C1099 C825 1.263 . S
C1104 C639 1.296 . S
C1109 C662 1.297 . S
C1114 C779 1.265 . S
C1119 C802 1.263 . S
C1124 C685 1.296 . S
C1129 C595 1.267 . S
C1134 C708 1.298 . S
C1139 C731 1.298 . S
C1144 C618 1.266 . S
C1149 C572 1.267 . S
C1154 C754 1.298 . S
C1159 C777 1.298 . S
C1164 C687 1.266 . S
C1169 C800 1.298 . S
C1174 C641 1.266 . S
C1179 C823 1.298 . S
C1184 C664 1.267 . S
C1189 C19 1.369 . S
C1194 C433 1.369 . S
C1199 C42 1.369 . S
C1204 C456 1.369 . S
C1209 C479 1.371 . S
C1214 C65 1.371 . S
C1219 C778 1.372 . S
C1224 C88 1.372 . S
C1229 C801 1.369 . S
C1234 C111 1.369 . S
C1239 C824 1.369 . S
C1244 C134 1.369 . S
C1249 C157 1.369 . S
C1254 C571 1.369 . S
C1259 C594 1.370 . S
C1264 C180 1.370 . S
C1269 C203 1.370 . S
C1274 C617 1.370 . S
C1279 C226 1.372 . S
C1284 C364 1.372 . S
C1289 C249 1.370 . S
C1294 C387 1.370 . S
C1299 C272 1.371 . S
C1304 C410 1.371 . S
C1309 C295 1.368 . S
C1314 C709 1.368 . S
C1319 C732 1.371 . S
C1324 C318 1.371 . S
C1329 C341 1.370 . S
C1334 C755 1.370 . S
C1339 C640 1.371 . S
C1344 C502 1.371 . S
C1349 C525 1.369 . S
C1354 C663 1.369 . S
C1359 C686 1.370 . S
C1364 C548 1.370 . S
C1369 C16 1.649 . S
C1374 C384 1.649 . S
C1379 C39 1.651 . S
C1384 C407 1.651 . S
C1389 C361 1.649 . S
C1394 C62 1.649 . S
C1399 C85 1.649 . S
C1404 C614 1.649 . S
C1409 C568 1.649 . S
C1414 C108 1.649 . S
C1419 C131 1.651 . S
C1424 C591 1.651 . S
C1429 C798 1.651 . S
C1434 C154 1.651 . S
C1439 C177 1.649 . S
C1444 C821 1.649 . S
C1449 C775 1.649 . S
C1454 C200 1.649 . S
C1459 C223 1.649 . S
C1464 C476 1.649 . S
C1469 C246 1.649 . S
C1474 C430 1.649 . S
C1479 C269 1.650 . S
C1484 C453 1.650 . S
C1489 C660 1.649 . S
C1494 C292 1.649 . S
C1499 C315 1.651 . S
C1504 C683 1.651 . S
C1509 C338 1.651 . S
C1514 C637 1.651 . S
C1519 C752 1.649 . S
C1524 C499 1.649 . S
C1529 C706 1.651 . S
C1534 C522 1.651 . S
C1539 C729 1.651 . S
C1544 C545 1.650 . S
C1549 C86 1.741 . S
C1554 C17 1.742 . S
C1559 C40 1.742 . S
C1564 C109 1.742 . S
C1569 C63 1.742 . S
C1574 C132 1.742 . S
C1579 C224 1.743 . S
C1584 C155 1.741 . S
C1589 C178 1.742 . S
C1594 C247 1.742 . S
C1599 C270 1.743 . S
C1604 C201 1.742 . S
C1609 C362 1.742 . S
C1614 C293 1.742 . S
C1619 C316 1.742 . S
C1624 C385 1.742 . S
C1629 C339 1.742 . S
C1634 C408 1.742 . S
C1639 C431 1.742 . S
C1644 C500 1.741 1_554 S
C1649 C454 1.742 . S
C1654 C523 1.742 1_554 S
C1659 C477 1.742 . S
C1664 C546 1.742 1_554 S
C1669 C569 1.742 . S
C1674 C638 1.741 1_556 S
C1679 C661 1.742 1_556 S
C1684 C592 1.742 . S
C1689 C684 1.742 1_556 S
C1694 C615 1.742 . S
C1699 C707 1.743 . S
C1704 C776 1.741 . S
C1709 C799 1.742 . S
C1714 C730 1.742 . S
C1719 C753 1.742 . S
C1724 C822 1.742 . S
C1729 C21 1.344 . S
C1734 C688 1.344 . S
C1739 C642 1.345 . S
C1744 C44 1.345 . S
C1749 C67 1.345 . S
C1754 C665 1.345 . S
C1759 C320 1.345 . S
C1764 C90 1.345 . S
C1769 C113 1.345 . S
C1774 C343 1.345 . S
C1779 C136 1.344 . S
C1784 C297 1.344 . S
C1789 C550 1.344 . S
C1794 C159 1.344 . S
C1799 C182 1.346 . S
C1804 C504 1.345 . S
C1809 C527 1.345 . S
C1814 C205 1.345 . S
C1819 C228 1.345 . S
C1824 C734 1.344 . S
C1829 C757 1.345 . S
C1834 C251 1.344 . S
C1839 C711 1.346 . S
C1844 C274 1.346 . S
C1849 C366 1.345 . S
C1854 C596 1.345 . S
C1859 C389 1.345 . S
C1864 C619 1.344 . S
C1869 C412 1.346 . S
C1874 C573 1.346 . S
C1879 C435 1.346 . S
C1884 C826 1.346 . S
C1889 C458 1.345 . S
C1894 C780 1.345 . S
C1899 C803 1.346 . S
C1904 C481 1.346 . S
