# Generated by pormake.
# Topology wje, (4)-cn, num edge types: 1
# Building blocks:
#     Node 0, Type 0, BuildingBlock: CEKHIL_clean_sbu_0, # of connection points: 4
#     Node 1, Type 0, BuildingBlock: CEKHIL_clean_sbu_0, # of connection points: 4
#     Node 2, Type 0, BuildingBlock: CEKHIL_clean_sbu_0, # of connection points: 4
#     Node 3, Type 0, BuildingBlock: CEKHIL_clean_sbu_0, # of connection points: 4
#     Node 4, Type 0, BuildingBlock: CEKHIL_clean_sbu_0, # of connection points: 4
#     Node 5, Type 0, BuildingBlock: CEKHIL_clean_sbu_0, # of connection points: 4
#     Node 6, Type 0, BuildingBlock: CEKHIL_clean_sbu_0, # of connection points: 4
#     Node 7, Type 0, BuildingBlock: CEKHIL_clean_sbu_0, # of connection points: 4
#     Node 8, Type 0, BuildingBlock: CEKHIL_clean_sbu_0, # of connection points: 4
#     Node 9, Type 0, BuildingBlock: CEKHIL_clean_sbu_0, # of connection points: 4
#     Node 10, Type 0, BuildingBlock: CEKHIL_clean_sbu_0, # of connection points: 4
#     Node 11, Type 0, BuildingBlock: CEKHIL_clean_sbu_0, # of connection points: 4
#     Edge 12, Type (0, 0), BuildingBlock: XUDNAN_clean_linker_2, # of connection points: 2
#     Edge 13, Type (0, 0), BuildingBlock: XUDNAN_clean_linker_2, # of connection points: 2
#     Edge 14, Type (0, 0), BuildingBlock: XUDNAN_clean_linker_2, # of connection points: 2
#     Edge 15, Type (0, 0), BuildingBlock: XUDNAN_clean_linker_2, # of connection points: 2
#     Edge 16, Type (0, 0), BuildingBlock: XUDNAN_clean_linker_2, # of connection points: 2
#     Edge 17, Type (0, 0), BuildingBlock: XUDNAN_clean_linker_2, # of connection points: 2
#     Edge 18, Type (0, 0), BuildingBlock: XUDNAN_clean_linker_2, # of connection points: 2
#     Edge 19, Type (0, 0), BuildingBlock: XUDNAN_clean_linker_2, # of connection points: 2
#     Edge 20, Type (0, 0), BuildingBlock: XUDNAN_clean_linker_2, # of connection points: 2
#     Edge 21, Type (0, 0), BuildingBlock: XUDNAN_clean_linker_2, # of connection points: 2
#     Edge 22, Type (0, 0), BuildingBlock: XUDNAN_clean_linker_2, # of connection points: 2
#     Edge 23, Type (0, 0), BuildingBlock: XUDNAN_clean_linker_2, # of connection points: 2
#     Edge 24, Type (0, 0), BuildingBlock: XUDNAN_clean_linker_2, # of connection points: 2
#     Edge 25, Type (0, 0), BuildingBlock: XUDNAN_clean_linker_2, # of connection points: 2
#     Edge 26, Type (0, 0), BuildingBlock: XUDNAN_clean_linker_2, # of connection points: 2
#     Edge 27, Type (0, 0), BuildingBlock: XUDNAN_clean_linker_2, # of connection points: 2
#     Edge 28, Type (0, 0), BuildingBlock: XUDNAN_clean_linker_2, # of connection points: 2
#     Edge 29, Type (0, 0), BuildingBlock: XUDNAN_clean_linker_2, # of connection points: 2
#     Edge 30, Type (0, 0), BuildingBlock: XUDNAN_clean_linker_2, # of connection points: 2
#     Edge 31, Type (0, 0), BuildingBlock: XUDNAN_clean_linker_2, # of connection points: 2
#     Edge 32, Type (0, 0), BuildingBlock: XUDNAN_clean_linker_2, # of connection points: 2
#     Edge 33, Type (0, 0), BuildingBlock: XUDNAN_clean_linker_2, # of connection points: 2
#     Edge 34, Type (0, 0), BuildingBlock: XUDNAN_clean_linker_2, # of connection points: 2
#     Edge 35, Type (0, 0), BuildingBlock: XUDNAN_clean_linker_2, # of connection points: 2
# Relax obj value: 0.162
# Max RMSD: 0.099
# Mean RMSD: 0.099
data_MOF--net-wje--node1-CEKHIL_clean_sbu_0--edge1-XUDNAN_clean_linker_2
_symmetry_space_group_name_H-M    P1
_symmetry_Int_Tables_number       1
_symmetry_cell_setting            triclinic
loop_
_symmetry_equiv_pos_as_xyz
'x, y, z'
_cell_length_a     39.242156
_cell_length_b     39.275203
_cell_length_c     37.73333
_cell_angle_alpha  90.006357
_cell_angle_beta   90.128135
_cell_angle_gamma 120.00447
loop_
_atom_site_label
_atom_site_type_symbol
_atom_site_fract_x
_atom_site_fract_y
_atom_site_fract_z
_atom_type_partial_charge
Co0 Co 0.3241 0.02833 0.30287 0.0
O1 O 0.32439 0.03884 0.25273 0.0
O2 O 0.35327 0.08507 0.29327 0.0
C3 C 0.25912 0.98461 0.30696 0.0
O4 O 0.32765 0.02714 0.35772 0.0
Co5 Co 0.30004 0.94306 0.32716 0.0
O6 O 0.30066 0.96381 0.37507 0.0
C7 C 0.37555 0.99191 0.2913 0.0
C8 C 0.34432 0.076 0.26 0.0
C9 C 0.31546 1.00026 0.38217 0.0
O10 O 0.3729 0.02306 0.29651 0.0
O11 O 0.34746 0.95713 0.29774 0.0
O12 O 0.27136 0.02206 0.30773 0.0
O13 O 0.28567 0.97551 0.3 0.0
Co14 Co 0.29501 0.32249 0.6401 0.0
O15 O 0.28548 0.32277 0.58976 0.0
O16 O 0.26624 0.35036 0.62985 0.0
C17 C 0.27537 0.25794 0.64428 0.0
O18 O 0.29881 0.32616 0.69499 0.0
Co19 Co 0.35723 0.3008 0.66669 0.0
O20 O 0.33275 0.29698 0.71335 0.0
C21 C 0.38396 0.3791 0.63571 0.0
C22 C 0.26729 0.34187 0.59663 0.0
C23 C 0.31164 0.31249 0.71986 0.0
O24 O 0.34817 0.37236 0.63459 0.0
O25 O 0.39297 0.35331 0.64521 0.0
O26 O 0.2495 0.26936 0.64439 0.0
O27 O 0.31103 0.28507 0.63789 0.0
Co28 Co 0.97509 0.29554 0.96869 0.0
O29 O 0.96398 0.28741 0.91843 0.0
O30 O 0.91825 0.26533 0.95975 0.0
C31 C 0.02164 0.27809 0.97063 0.0
O32 O 0.97685 0.29755 0.02351 0.0
Co33 Co 0.05877 0.3609 0.9927 0.0
O34 O 0.03972 0.33845 0.04044 0.0
C35 C 0.00328 0.38388 0.96538 0.0
C36 C 0.9269 0.26774 0.92619 0.0
C37 C 0.00392 0.31382 0.04769 0.0
O38 O 0.97569 0.34746 0.96604 0.0
O39 O 0.0394 0.39497 0.97168 0.0
O40 O 0.98466 0.25132 0.97052 0.0
O41 O 0.02895 0.31355 0.96498 0.0
Co42 Co 0.68274 0.96759 0.30904 0.0
O43 O 0.68243 0.95326 0.25968 0.0
O44 O 0.65231 0.91079 0.30274 0.0
C45 C 0.74786 0.0109 0.31281 0.0
O46 O 0.6785 0.97106 0.3634 0.0
Co47 Co 0.70746 0.05307 0.3319 0.0
O48 O 0.70958 0.0346 0.38023 0.0
C49 C 0.62866 0.00256 0.30102 0.0
C50 C 0.6615 0.91678 0.26929 0.0
C51 C 0.69249 0.99811 0.38768 0.0
O52 O 0.6343 0.97283 0.30087 0.0
O53 O 0.65512 0.03725 0.31018 0.0
O54 O 0.73505 0.97343 0.31543 0.0
O55 O 0.72169 0.02033 0.3047 0.0
Co56 Co 0.71432 0.68096 0.63959 0.0
O57 O 0.73112 0.68169 0.59099 0.0
O58 O 0.73964 0.64937 0.6346 0.0
C59 C 0.73817 0.74649 0.64461 0.0
O60 O 0.70289 0.67502 0.69337 0.0
Co61 Co 0.65469 0.70846 0.65886 0.0
O62 O 0.67184 0.70811 0.7083 0.0
C63 C 0.62663 0.63219 0.62342 0.0
C64 C 0.74537 0.65984 0.60142 0.0
C65 C 0.68937 0.68938 0.71679 0.0
O66 O 0.6601 0.63409 0.6288 0.0
O67 O 0.62048 0.66062 0.63001 0.0
O68 O 0.76161 0.73233 0.64846 0.0
O69 O 0.7029 0.72149 0.63461 0.0
Co70 Co 0.02323 0.71235 0.96379 0.0
O71 O 0.03931 0.71931 0.91471 0.0
O72 O 0.08069 0.73609 0.9595 0.0
C73 C 0.98377 0.73912 0.95826 0.0
O74 O 0.01534 0.71026 0.01855 0.0
Co75 Co 0.93352 0.65954 0.9805 0.0
O76 O 0.95012 0.6851 0.02725 0.0
C77 C 0.98018 0.62261 0.96017 0.0
C78 C 0.07539 0.73524 0.9253 0.0
C79 C 0.9854 0.70204 0.03878 0.0
O80 O 0.01311 0.65561 0.96291 0.0
O81 O 0.94662 0.62044 0.96168 0.0
O82 O 0.02137 0.76184 0.96274 0.0
O83 O 0.97277 0.70264 0.95376 0.0
Co84 Co 0.97386 0.68048 0.37822 0.0
O85 O 0.96256 0.67727 0.42838 0.0
O86 O 0.91694 0.65281 0.38675 0.0
C87 C 0.01937 0.74497 0.3774 0.0
O88 O 0.97566 0.68055 0.32327 0.0
Co89 Co 0.05834 0.70234 0.35354 0.0
O90 O 0.03893 0.70602 0.30616 0.0
C91 C 0.00503 0.62268 0.38059 0.0
C92 C 0.92551 0.65932 0.42035 0.0
C93 C 0.00275 0.69313 0.29906 0.0
O94 O 0.97626 0.62987 0.3815 0.0
O95 O 0.04033 0.6486 0.37266 0.0
O96 O 0.98218 0.73393 0.37649 0.0
O97 O 0.02738 0.71724 0.38257 0.0
Co98 Co 0.29486 0.97457 0.71645 0.0
O99 O 0.27915 0.95412 0.76406 0.0
O100 O 0.26626 0.91692 0.71673 0.0
C101 C 0.2741 0.01874 0.71929 0.0
O102 O 0.30489 0.98685 0.66245 0.0
Co103 Co 0.35925 0.06268 0.70744 0.0
O104 O 0.33827 0.05303 0.65862 0.0
C105 C 0.38363 0.00541 0.72633 0.0
C106 C 0.26227 0.91902 0.75084 0.0
C107 C 0.31878 0.01921 0.64426 0.0
O108 O 0.34767 0.97702 0.72325 0.0
O109 O 0.39381 0.04167 0.723 0.0
O110 O 0.24927 0.98205 0.71257 0.0
O111 O 0.30902 0.02628 0.72808 0.0
Co112 Co 0.32106 0.296 0.05264 0.0
O113 O 0.32518 0.27795 0.09936 0.0
O114 O 0.35047 0.26775 0.0513 0.0
C115 C 0.25594 0.27453 0.05469 0.0
O116 O 0.3196 0.30922 0.99931 0.0
Co117 Co 0.29675 0.36042 0.04835 0.0
O118 O 0.28839 0.34429 0.99808 0.0
C119 C 0.37828 0.38401 0.067 0.0
C120 C 0.34387 0.26203 0.08525 0.0
C121 C 0.30271 0.32561 0.98223 0.0
O122 O 0.37106 0.34851 0.06149 0.0
O123 O 0.35191 0.394 0.06537 0.0
O124 O 0.26834 0.2504 0.04685 0.0
O125 O 0.28283 0.30882 0.06535 0.0
Co126 Co 0.02915 0.3166 0.38205 0.0
O127 O 0.04926 0.32177 0.42992 0.0
O128 O 0.08669 0.34804 0.38308 0.0
C129 C 0.98741 0.25086 0.38425 0.0
O130 O 0.01758 0.31448 0.32803 0.0
Co131 Co 0.93968 0.28724 0.37153 0.0
O132 O 0.95148 0.27887 0.32243 0.0
C133 C 0.99226 0.36772 0.39686 0.0
C134 C 0.08446 0.34139 0.4171 0.0
C135 C 0.98589 0.29511 0.30906 0.0
O136 O 0.0229 0.36494 0.38907 0.0
O137 O 0.9571 0.33866 0.39526 0.0
O138 O 0.02449 0.26447 0.37786 0.0
O139 O 0.97824 0.27701 0.39283 0.0
Co140 Co 0.70931 0.02258 0.72021 0.0
O141 O 0.72722 0.04514 0.76677 0.0
O142 O 0.73352 0.08 0.71905 0.0
C143 C 0.736 0.98302 0.72164 0.0
O144 O 0.69533 0.00744 0.66718 0.0
Co145 Co 0.65088 0.93204 0.71678 0.0
O146 O 0.66356 0.94114 0.66576 0.0
C147 C 0.62205 0.98436 0.74016 0.0
C148 C 0.74047 0.07953 0.75284 0.0
C149 C 0.67974 0.9743 0.65001 0.0
O150 O 0.65455 0.01485 0.73018 0.0
O151 O 0.61707 0.9496 0.74055 0.0
O152 O 0.75765 0.01982 0.71327 0.0
O153 O 0.70126 0.97322 0.73268 0.0
Co154 Co 0.68276 0.70835 0.05057 0.0
O155 O 0.68261 0.72658 0.09802 0.0
O156 O 0.64775 0.7305 0.05388 0.0
C157 C 0.74904 0.73663 0.04559 0.0
O158 O 0.6781 0.6928 0.99739 0.0
Co159 Co 0.71621 0.65123 0.04315 0.0
O160 O 0.70905 0.65756 0.99213 0.0
C161 C 0.63787 0.62167 0.0734 0.0
C162 C 0.65841 0.73757 0.08705 0.0
C163 C 0.6911 0.67399 0.97856 0.0
O164 O 0.63809 0.65336 0.06357 0.0
O165 O 0.6682 0.61767 0.07154 0.0
O166 O 0.73224 0.75739 0.03982 0.0
O167 O 0.72613 0.70208 0.05816 0.0
H168 H 0.34097 0.1448 0.26075 0.0
H169 H 0.36796 0.07218 0.19333 0.0
H170 H 0.37707 0.11551 0.1424 0.0
H171 H 0.28278 0.15818 0.19722 0.0
H172 H 0.29766 0.20803 0.20962 0.0
H173 H 0.29879 0.17488 0.2419 0.0
H174 H 0.37249 0.22383 0.25411 0.0
H175 H 0.37155 0.25723 0.22189 0.0
H176 H 0.40685 0.24086 0.21779 0.0
H177 H 0.37916 0.16461 0.0974 0.0
H178 H 0.37026 0.21274 0.062 0.0
H179 H 0.33828 0.25148 0.15754 0.0
C180 C 0.34998 0.13882 0.2355 0.0
C181 C 0.35465 0.10556 0.23121 0.0
C182 C 0.3648 0.09777 0.19736 0.0
C183 C 0.37005 0.12227 0.16824 0.0
C184 C 0.3645 0.15437 0.17305 0.0
C185 C 0.3545 0.16262 0.20582 0.0
C186 C 0.34657 0.19667 0.20301 0.0
C187 C 0.30392 0.18365 0.21356 0.0
C188 C 0.37613 0.23173 0.22554 0.0
C189 C 0.35326 0.20594 0.16364 0.0
C190 C 0.36413 0.18159 0.14688 0.0
C191 C 0.37089 0.18399 0.11035 0.0
C192 C 0.36586 0.21153 0.09039 0.0
C193 C 0.35371 0.23612 0.10681 0.0
C194 C 0.34783 0.23337 0.14406 0.0
H195 H 0.19393 0.33598 0.59551 0.0
H196 H 0.2968 0.36814 0.53099 0.0
H197 H 0.26365 0.37794 0.47944 0.0
H198 H 0.12547 0.27893 0.52923 0.0
H199 H 0.089 0.29199 0.54105 0.0
H200 H 0.12254 0.2929 0.57414 0.0
H201 H 0.14479 0.36562 0.58824 0.0
H202 H 0.11119 0.36488 0.55519 0.0
H203 H 0.1627 0.40134 0.55299 0.0
H204 H 0.21765 0.38032 0.43347 0.0
H205 H 0.16143 0.37098 0.39647 0.0
H206 H 0.08675 0.33364 0.48953 0.0
C207 C 0.20979 0.34621 0.57077 0.0
C208 C 0.24835 0.35216 0.56747 0.0
C209 C 0.26752 0.36394 0.53425 0.0
C210 C 0.2489 0.36961 0.5048 0.0
C211 C 0.21065 0.36283 0.50862 0.0
C212 C 0.19118 0.35117 0.54074 0.0
C213 C 0.14889 0.34218 0.53677 0.0
C214 C 0.11977 0.29894 0.54583 0.0
C215 C 0.14146 0.37018 0.55966 0.0
C216 C 0.14755 0.3502 0.49747 0.0
C217 C 0.18366 0.36264 0.48182 0.0
C218 C 0.18932 0.37081 0.44556 0.0
C219 C 0.15718 0.36552 0.42469 0.0
C220 C 0.11957 0.35174 0.43991 0.0
C221 C 0.1151 0.34451 0.47697 0.0
H222 H 0.75185 0.08471 0.82489 0.0
H223 H 0.78682 0.15577 0.72955 0.0
H224 H 0.83454 0.21336 0.76478 0.0
H225 H 0.76157 0.16281 0.88622 0.0
H226 H 0.77998 0.14571 0.92173 0.0
H227 H 0.74632 0.11135 0.88955 0.0
H228 H 0.79617 0.08827 0.87564 0.0
H229 H 0.83002 0.1226 0.9076 0.0
H230 H 0.8455 0.12395 0.86243 0.0
H231 H 0.88426 0.26087 0.8094 0.0
H232 H 0.92865 0.29539 0.85981 0.0
H233 H 0.8592 0.19478 0.9272 0.0
C234 C 0.76894 0.11258 0.81145 0.0
C235 C 0.76536 0.11565 0.7743 0.0
C236 C 0.78866 0.15265 0.75789 0.0
C237 C 0.81596 0.18552 0.77775 0.0
C238 C 0.81934 0.18118 0.81417 0.0
C239 C 0.79602 0.14571 0.83094 0.0
C240 C 0.80644 0.14827 0.87008 0.0
C241 C 0.77149 0.14165 0.89327 0.0
C242 C 0.82036 0.11904 0.87947 0.0
C243 C 0.83996 0.1905 0.87269 0.0
C244 C 0.84695 0.20894 0.84008 0.0
C245 C 0.87845 0.24693 0.83513 0.0
C246 C 0.90356 0.26633 0.86395 0.0
C247 C 0.89697 0.24817 0.89764 0.0
C248 C 0.86431 0.2099 0.90208 0.0
H249 H 0.68111 0.81592 0.09124 0.0
H250 H 0.60851 0.70346 0.14194 0.0
H251 H 0.59653 0.73676 0.19208 0.0
H252 H 0.72858 0.86638 0.16786 0.0
H253 H 0.73129 0.91225 0.15654 0.0
H254 H 0.72908 0.87959 0.12203 0.0
H255 H 0.66761 0.87823 0.09526 0.0
H256 H 0.66989 0.91133 0.1295 0.0
H257 H 0.62537 0.86493 0.1229 0.0
H258 H 0.59872 0.78283 0.23991 0.0
H259 H 0.61355 0.83771 0.28087 0.0
H260 H 0.68563 0.92104 0.19994 0.0
C261 C 0.66132 0.79833 0.11221 0.0
C262 C 0.64447 0.75696 0.11218 0.0
C263 C 0.62057 0.73501 0.14099 0.0
C264 C 0.61383 0.75374 0.16966 0.0
C265 C 0.63152 0.79465 0.1694 0.0
C266 C 0.65457 0.81672 0.14128 0.0
C267 C 0.67293 0.86044 0.14903 0.0
C268 C 0.71814 0.88085 0.14886 0.0
C269 C 0.65805 0.87988 0.1226 0.0
C270 C 0.65738 0.8595 0.18611 0.0
C271 C 0.6333 0.82125 0.19726 0.0
C272 C 0.61709 0.81289 0.23123 0.0
C273 C 0.62576 0.84431 0.2544 0.0
C274 C 0.65053 0.88381 0.24371 0.0
C275 C 0.66618 0.89127 0.20889 0.0
H276 H 0.86148 0.67083 0.42221 0.0
H277 H 0.92402 0.62618 0.48371 0.0
H278 H 0.88063 0.61578 0.53487 0.0
H279 H 0.8536 0.72601 0.49195 0.0
H280 H 0.8055 0.7176 0.48 0.0
H281 H 0.83731 0.71618 0.44647 0.0
H282 H 0.78321 0.64605 0.42841 0.0
H283 H 0.75111 0.64733 0.46183 0.0
H284 H 0.76219 0.60799 0.46155 0.0
H285 H 0.83325 0.61402 0.58081 0.0
H286 H 0.78819 0.6245 0.61892 0.0
H287 H 0.75843 0.67425 0.52951 0.0
C288 C 0.8651 0.65771 0.44612 0.0
C289 C 0.89553 0.64837 0.44873 0.0
C290 C 0.90052 0.6329 0.48097 0.0
C291 C 0.87599 0.6269 0.51018 0.0
C292 C 0.84677 0.63708 0.50712 0.0
C293 C 0.84129 0.65233 0.47596 0.0
C294 C 0.81024 0.66434 0.48092 0.0
C295 C 0.82772 0.70866 0.47445 0.0
C296 C 0.77457 0.63997 0.45674 0.0
C297 C 0.79961 0.65399 0.51974 0.0
C298 C 0.8206 0.63771 0.53415 0.0
C299 C 0.81651 0.62655 0.56971 0.0
C300 C 0.79074 0.63258 0.59121 0.0
C301 C 0.76956 0.65012 0.57738 0.0
C302 C 0.77395 0.66057 0.54097 0.0
H303 H 0.24825 0.91744 0.82253 0.0
H304 H 0.21865 0.84129 0.73066 0.0
H305 H 0.17286 0.78452 0.76745 0.0
H306 H 0.24237 0.84545 0.88896 0.0
H307 H 0.22107 0.8622 0.9221 0.0
H308 H 0.25401 0.89604 0.88939 0.0
H309 H 0.20088 0.91329 0.87086 0.0
H310 H 0.16787 0.87964 0.90351 0.0
H311 H 0.15279 0.87442 0.85774 0.0
H312 H 0.12501 0.7374 0.81283 0.0
H313 H 0.07976 0.70385 0.86273 0.0
H314 H 0.14155 0.80942 0.92636 0.0
C315 C 0.23271 0.8887 0.81021 0.0
C316 C 0.23739 0.88393 0.77353 0.0
C317 C 0.21594 0.84581 0.75858 0.0
C318 C 0.18981 0.81334 0.77936 0.0
C319 C 0.18552 0.81921 0.81525 0.0
C320 C 0.20659 0.85595 0.83062 0.0
C321 C 0.19506 0.85478 0.8693 0.0
C322 C 0.23023 0.86524 0.89389 0.0
C323 C 0.17814 0.88215 0.87571 0.0
C324 C 0.16353 0.81181 0.87321 0.0
C325 C 0.15865 0.7918 0.84169 0.0
C326 C 0.12921 0.75263 0.83777 0.0
C327 C 0.10368 0.73372 0.86634 0.0
C328 C 0.10777 0.75355 0.89881 0.0
C329 C 0.13864 0.79299 0.9024 0.0
H330 H 0.45108 0.04628 0.31161 0.0
H331 H 0.38363 0.94209 0.24721 0.0
H332 H 0.44269 0.93619 0.23863 0.0
H333 H 0.54697 0.08434 0.2624 0.0
H334 H 0.57513 0.1008 0.30288 0.0
H335 H 0.52926 0.10064 0.29902 0.0
H336 H 0.504 0.05783 0.3556 0.0
H337 H 0.5494 0.05724 0.3593 0.0
H338 H 0.50329 0.0116 0.35724 0.0
H339 H 0.50567 0.93511 0.24489 0.0
H340 H 0.57073 0.94348 0.26066 0.0
H341 H 0.59786 0.04883 0.31998 0.0
C342 C 0.44928 0.0233 0.29449 0.0
C343 C 0.41293 0.99488 0.27977 0.0
C344 C 0.4113 0.96431 0.25854 0.0
C345 C 0.44467 0.96065 0.25355 0.0
C346 C 0.47965 0.98793 0.26981 0.0
C347 C 0.48245 0.0191 0.28935 0.0
C348 C 0.52275 0.04238 0.30635 0.0
C349 C 0.54484 0.08454 0.29178 0.0
C350 C 0.51964 0.04223 0.34702 0.0
C351 C 0.54156 0.0188 0.29411 0.0
C352 C 0.51628 0.98755 0.27301 0.0
C353 C 0.5261 0.95998 0.26078 0.0
C354 C 0.56296 0.96476 0.27006 0.0
C355 C 0.58958 0.99699 0.29119 0.0
C356 C 0.57853 0.02428 0.30319 0.0
H357 H 0.60538 0.55702 0.64402 0.0
H358 H 0.56764 0.62399 0.5802 0.0
H359 H 0.50216 0.5651 0.57288 0.0
H360 H 0.54615 0.46062 0.59648 0.0
H361 H 0.53529 0.43331 0.63729 0.0
H362 H 0.58098 0.47898 0.63259 0.0
H363 H 0.56473 0.50543 0.68917 0.0
H364 H 0.51872 0.46024 0.69367 0.0
H365 H 0.51931 0.50636 0.69128 0.0
H366 H 0.43796 0.50192 0.57984 0.0
H367 H 0.38172 0.43678 0.59585 0.0
H368 H 0.46126 0.41091 0.65473 0.0
C369 C 0.58385 0.55875 0.62727 0.0
C370 C 0.59171 0.5949 0.61229 0.0
C371 C 0.56228 0.59645 0.59165 0.0
C372 C 0.52495 0.56318 0.58741 0.0
C373 C 0.51741 0.52842 0.60391 0.0
C374 C 0.54619 0.52575 0.62296 0.0
C375 C 0.52946 0.48582 0.64041 0.0
C376 C 0.54914 0.46335 0.6258 0.0
C377 C 0.53329 0.48972 0.68103 0.0
C378 C 0.48681 0.46694 0.62878 0.0
C379 C 0.48039 0.49191 0.60773 0.0
C380 C 0.44275 0.48177 0.59577 0.0
C381 C 0.41093 0.44487 0.6052 0.0
C382 C 0.41703 0.41854 0.62624 0.0
C383 C 0.45559 0.43 0.63808 0.0
H384 H 0.04089 0.60476 0.95003 0.0
H385 H 0.9145 0.55107 0.96643 0.0
H386 H 0.90761 0.48627 0.96542 0.0
H387 H 0.03247 0.52532 0.89051 0.0
H388 H 0.07595 0.52667 0.90786 0.0
H389 H 0.07234 0.57068 0.90767 0.0
H390 H 0.08544 0.57846 0.9753 0.0
H391 H 0.08927 0.53466 0.97562 0.0
H392 H 0.05461 0.53831 1.00438 0.0
H393 H 0.91209 0.42687 0.96495 0.0
H394 H 0.92977 0.37508 0.96755 0.0
H395 H 0.05272 0.46311 0.95197 0.0
C396 C 0.01182 0.57936 0.95305 0.0
C397 C 0.9784 0.58376 0.95792 0.0
C398 C 0.94086 0.54936 0.9621 0.0
C399 C 0.93634 0.51191 0.96161 0.0
C400 C 0.96943 0.50852 0.95667 0.0
C401 C 0.0065 0.541 0.95243 0.0
C402 C 0.03688 0.52797 0.9485 0.0
C403 C 0.05552 0.53828 0.91143 0.0
C404 C 0.0684 0.54591 0.97771 0.0
C405 C 0.01103 0.48361 0.95284 0.0
C406 C 0.97213 0.47325 0.95679 0.0
C407 C 0.94245 0.43441 0.96163 0.0
C408 C 0.95279 0.40512 0.96298 0.0
C409 C 0.99257 0.41481 0.95996 0.0
C410 C 0.02199 0.45466 0.95437 0.0
H411 H 0.04728 0.58872 0.35773 0.0
H412 H 0.94692 0.56638 0.4225 0.0
H413 H 0.9381 0.50137 0.43888 0.0
H414 H 0.00556 0.49116 0.32357 0.0
H415 H 0.05164 0.49146 0.32299 0.0
H416 H 0.05117 0.53682 0.31831 0.0
H417 H 0.09892 0.56586 0.37168 0.0
H418 H 0.09905 0.52031 0.37685 0.0
H419 H 0.08565 0.54051 0.4136 0.0
H420 H 0.93995 0.43907 0.44764 0.0
H421 H 0.94604 0.37989 0.4422 0.0
H422 H 0.04425 0.4415 0.37015 0.0
C423 C 0.02355 0.57027 0.37556 0.0
C424 C 0.99791 0.58276 0.38911 0.0
C425 C 0.96682 0.55742 0.41178 0.0
C426 C 0.96185 0.52063 0.42145 0.0
C427 C 0.98801 0.50954 0.40798 0.0
C428 C 0.01789 0.53335 0.38509 0.0
C429 C 0.0403 0.5134 0.37241 0.0
C430 C 0.03694 0.50787 0.33193 0.0
C431 C 0.08355 0.5364 0.38436 0.0
C432 C 0.01817 0.47434 0.39154 0.0
C433 C 0.98853 0.4731 0.41233 0.0
C434 C 0.96309 0.43977 0.43154 0.0
C435 C 0.9669 0.40633 0.42834 0.0
C436 C 0.99576 0.40611 0.40589 0.0
C437 C 0.0225 0.44102 0.38808 0.0
H438 H 0.60238 0.03943 0.71701 0.0
H439 H 0.56063 0.93458 0.78157 0.0
H440 H 0.49584 0.92958 0.78644 0.0
H441 H 0.54524 0.0785 0.76437 0.0
H442 H 0.53567 0.09676 0.72395 0.0
H443 H 0.58027 0.0946 0.7286 0.0
H444 H 0.56291 0.053 0.67118 0.0
H445 H 0.51797 0.05442 0.66668 0.0
H446 H 0.51645 0.0078 0.66807 0.0
H447 H 0.43288 0.93018 0.77773 0.0
H448 H 0.37847 0.9425 0.76283 0.0
H449 H 0.46089 0.04835 0.70659 0.0
C450 C 0.58002 0.01623 0.73313 0.0
C451 C 0.58673 0.9874 0.74884 0.0
C452 C 0.55628 0.95698 0.76912 0.0
C453 C 0.51924 0.95379 0.77205 0.0
C454 C 0.51295 0.98149 0.75492 0.0
C455 C 0.54265 0.01266 0.7365 0.0
C456 C 0.52738 0.0375 0.71956 0.0
C457 C 0.54839 0.07932 0.73506 0.0
C458 C 0.53143 0.0382 0.67897 0.0
C459 C 0.4845 0.01489 0.73071 0.0
C460 C 0.47672 0.98254 0.75093 0.0
C461 C 0.43872 0.95586 0.76246 0.0
C462 C 0.40793 0.96286 0.75366 0.0
C463 C 0.41546 0.99651 0.7339 0.0
C464 C 0.4543 0.02267 0.72225 0.0
H465 H 0.41041 0.46248 0.05326 0.0
H466 H 0.43862 0.37732 0.09703 0.0
H467 H 0.50636 0.43109 0.10984 0.0
H468 H 0.50111 0.51943 1.00918 0.0
H469 H 0.50324 0.56575 0.01688 0.0
H470 H 0.45635 0.52118 0.01434 0.0
H471 H 0.43817 0.53592 0.07621 0.0
H472 H 0.48525 0.58041 0.0791 0.0
H473 H 0.4702 0.54378 0.11341 0.0
H474 H 0.57094 0.49364 0.11653 0.0
H475 H 0.63031 0.55841 0.1099 0.0
H476 H 0.56113 0.60299 0.05898 0.0
C477 C 0.43066 0.45513 0.06599 0.0
C478 C 0.4191 0.41569 0.07457 0.0
C479 C 0.44679 0.40727 0.09035 0.0
C480 C 0.4852 0.43766 0.09793 0.0
C481 C 0.49548 0.47622 0.08929 0.0
C482 C 0.46916 0.48496 0.07324 0.0
C483 C 0.48849 0.5283 0.06395 0.0
C484 C 0.48723 0.53398 0.0237 0.0
C485 C 0.46938 0.54827 0.08439 0.0
C486 C 0.53011 0.54262 0.0768 0.0
C487 C 0.5332 0.51218 0.09194 0.0
C488 C 0.56882 0.51765 0.10477 0.0
C489 C 0.60244 0.5547 0.10087 0.0
C490 C 0.60056 0.58597 0.08379 0.0
C491 C 0.56356 0.58 0.07255 0.0
H492 H 0.0972 0.77113 0.36752 0.0
H493 H 0.01132 0.80994 0.36747 0.0
H494 H 0.06362 0.877 0.35071 0.0
H495 H 0.17927 0.86051 0.40201 0.0
H496 H 0.21444 0.85657 0.37421 0.0
H497 H 0.17059 0.81283 0.38832 0.0
H498 H 0.15269 0.79125 0.32272 0.0
H499 H 0.1964 0.83493 0.30842 0.0
H500 H 0.14895 0.82414 0.29168 0.0
H501 H 0.1268 0.94036 0.33346 0.0
H502 H 0.19355 0.99237 0.31509 0.0
H503 H 0.23445 0.90847 0.32338 0.0
C504 C 0.08932 0.79371 0.36427 0.0
C505 C 0.0503 0.78544 0.3689 0.0
C506 C 0.04118 0.81578 0.36413 0.0
C507 C 0.07065 0.85391 0.35466 0.0
C508 C 0.10889 0.86094 0.34993 0.0
C509 C 0.1181 0.83152 0.3545 0.0
C510 C 0.16079 0.84577 0.34651 0.0
C511 C 0.18254 0.8438 0.37974 0.0
C512 C 0.16493 0.82266 0.31548 0.0
C513 C 0.17423 0.88774 0.33631 0.0
C514 C 0.14423 0.89635 0.33886 0.0
C515 C 0.15044 0.93384 0.33129 0.0
C516 C 0.18834 0.96314 0.32089 0.0
C517 C 0.21912 0.95442 0.31772 0.0
C518 C 0.21166 0.91618 0.32543 0.0
H519 H 0.32718 0.234 0.66295 0.0
H520 H 0.20239 0.1922 0.65121 0.0
H521 H 0.18754 0.12594 0.67096 0.0
H522 H 0.3264 0.14751 0.63381 0.0
H523 H 0.36259 0.15188 0.66574 0.0
H524 H 0.36281 0.19527 0.65005 0.0
H525 H 0.35828 0.21488 0.7148 0.0
H526 H 0.35798 0.17151 0.73074 0.0
H527 H 0.31876 0.18057 0.74273 0.0
H528 H 0.18738 0.06332 0.68944 0.0
H529 H 0.20164 0.01106 0.70751 0.0
H530 H 0.32619 0.09717 0.71196 0.0
C531 C 0.29668 0.21104 0.6645 0.0
C532 C 0.26591 0.21816 0.65545 0.0
C533 C 0.2264 0.18726 0.65801 0.0
C534 C 0.21772 0.14963 0.66921 0.0
C535 C 0.24891 0.14374 0.6782 0.0
C536 C 0.28756 0.17378 0.67623 0.0
C537 C 0.31582 0.16041 0.68797 0.0
C538 C 0.34352 0.16398 0.65758 0.0
C539 C 0.33907 0.18319 0.72103 0.0
C540 C 0.28713 0.11794 0.69655 0.0
C541 C 0.24867 0.10864 0.69049 0.0
C542 C 0.21735 0.07042 0.69467 0.0
C543 C 0.22572 0.04098 0.70494 0.0
C544 C 0.26499 0.05011 0.71129 0.0
C545 C 0.29584 0.08924 0.7076 0.0
H546 H 0.22948 0.32681 0.04864 0.0
H547 H 0.19245 0.20306 0.03811 0.0
H548 H 0.12743 0.18985 0.01628 0.0
H549 H 0.13585 0.31649 0.07428 0.0
H550 H 0.14308 0.35796 0.04811 0.0
H551 H 0.18491 0.35659 0.06617 0.0
H552 H 0.21459 0.36632 1.00311 0.0
H553 H 0.1727 0.36733 0.98477 0.0
H554 H 0.18605 0.33249 0.96832 0.0
H555 H 0.06682 0.1908 0.99463 0.0
H556 H 0.01618 0.20602 0.97345 0.0
H557 H 0.09624 0.33 0.99323 0.0
C558 C 0.20764 0.29684 0.04218 0.0
C559 C 0.21593 0.26591 0.04516 0.0
C560 C 0.18658 0.22716 0.03611 0.0
C561 C 0.14964 0.2194 0.02366 0.0
C562 C 0.14284 0.25083 0.02006 0.0
C563 C 0.17111 0.28879 0.02894 0.0
C564 C 0.15757 0.31779 0.02048 0.0
C565 C 0.15521 0.33841 0.05428 0.0
C566 C 0.18431 0.34774 0.99251 0.0
C567 C 0.11713 0.29021 1.00561 0.0
C568 C 0.10896 0.25166 1.00589 0.0
C569 C 0.07295 0.2209 0.99417 0.0
C570 C 0.04444 0.22981 0.98216 0.0
C571 C 0.05241 0.26917 0.98155 0.0
C572 C 0.08938 0.29967 0.99312 0.0
H573 H 0.90903 0.22297 0.37631 0.0
H574 H 0.99671 0.18667 0.37241 0.0
H575 H 0.94469 0.11941 0.35498 0.0
H576 H 0.82718 0.13413 0.40753 0.0
H577 H 0.7926 0.13859 0.37918 0.0
H578 H 0.83624 0.18204 0.39424 0.0
H579 H 0.85546 0.20454 0.32906 0.0
H580 H 0.81192 0.16114 0.31377 0.0
H581 H 0.85962 0.17201 0.29793 0.0
H582 H 0.8806 0.05507 0.33851 0.0
H583 H 0.81352 0.00303 0.32046 0.0
H584 H 0.77303 0.08719 0.32894 0.0
C585 C 0.91757 0.20107 0.37199 0.0
C586 C 0.95692 0.21003 0.37584 0.0
C587 C 0.9666 0.18029 0.36972 0.0
C588 C 0.93729 0.1421 0.35982 0.0
C589 C 0.89876 0.13458 0.35557 0.0
C590 C 0.8892 0.16358 0.3611 0.0
C591 C 0.84668 0.14958 0.35244 0.0
C592 C 0.82438 0.15118 0.38531 0.0
C593 C 0.84324 0.17321 0.32146 0.0
C594 C 0.83334 0.10781 0.34168 0.0
C595 C 0.86341 0.09924 0.34398 0.0
C596 C 0.85701 0.06168 0.33637 0.0
C597 C 0.81891 0.03234 0.32618 0.0
C598 C 0.78813 0.04112 0.32317 0.0
C599 C 0.79581 0.07943 0.33081 0.0
H600 H 0.68752 0.77056 0.6655 0.0
H601 H 0.81179 0.81267 0.65056 0.0
H602 H 0.82679 0.87937 0.67001 0.0
H603 H 0.68437 0.85427 0.63816 0.0
H604 H 0.64967 0.84937 0.67177 0.0
H605 H 0.64989 0.80642 0.6555 0.0
H606 H 0.65897 0.78841 0.71972 0.0
H607 H 0.65876 0.83133 0.7362 0.0
H608 H 0.69955 0.82394 0.74615 0.0
H609 H 0.82569 0.94323 0.68723 0.0
H610 H 0.80958 0.99432 0.70575 0.0
H611 H 0.68714 0.90415 0.71683 0.0
C612 C 0.71798 0.79343 0.6664 0.0
C613 C 0.74846 0.7864 0.65637 0.0
C614 C 0.78796 0.81753 0.65813 0.0
C615 C 0.79668 0.8554 0.6691 0.0
C616 C 0.76557 0.86107 0.67905 0.0
C617 C 0.7271 0.8305 0.67834 0.0
C618 C 0.69871 0.84287 0.69156 0.0
C619 C 0.66893 0.83794 0.66252 0.0
C620 C 0.67778 0.82031 0.72542 0.0
C621 C 0.72694 0.88559 0.69927 0.0
C622 C 0.76537 0.89605 0.69148 0.0
C623 C 0.79578 0.93507 0.694 0.0
C624 C 0.7864 0.96385 0.7045 0.0
C625 C 0.74713 0.9532 0.71292 0.0
C626 C 0.71746 0.91344 0.71086 0.0
H627 H 0.77524 0.68786 0.02503 0.0
H628 H 0.81282 0.81144 0.03636 0.0
H629 H 0.87904 0.82847 0.01347 0.0
H630 H 0.86369 0.69024 0.04625 0.0
H631 H 0.85676 0.6544 0.013 0.0
H632 H 0.81472 0.65363 0.03276 0.0
H633 H 0.7894 0.65826 0.97023 0.0
H634 H 0.83149 0.6592 0.95032 0.0
H635 H 0.82102 0.69811 0.94125 0.0
H636 H 0.94411 0.82907 0.99359 0.0
H637 H 0.99518 0.81366 0.97283 0.0
H638 H 0.90526 0.69092 0.96327 0.0
C639 C 0.79697 0.71855 0.02269 0.0
C640 C 0.78889 0.74826 0.03266 0.0
C641 C 0.81859 0.78816 0.02895 0.0
C642 C 0.85617 0.79803 0.016 0.0
C643 C 0.86281 0.76758 1.0059 0.0
C644 C 0.8334 0.7287 1.00847 0.0
C645 C 0.84591 0.70096 0.99407 0.0
C646 C 0.84523 0.67319 0.02326 0.0
C647 C 0.82046 0.6778 0.96206 0.0
C648 C 0.88732 0.73005 0.98319 0.0
C649 C 0.89742 0.76834 0.99097 0.0
C650 C 0.93607 0.79922 0.9867 0.0
C651 C 0.96486 0.79029 0.97483 0.0
C652 C 0.95435 0.75103 0.96657 0.0
C653 C 0.91475 0.72119 0.96961 0.0
H654 H 0.30725 0.95396 0.44001 0.0
H655 H 0.32795 0.06997 0.4117 0.0
H656 H 0.32703 0.08489 0.47534 0.0
H657 H 0.24157 0.93667 0.51308 0.0
H658 H 0.26072 0.91202 0.53987 0.0
H659 H 0.26255 0.91008 0.49223 0.0
H660 H 0.33788 0.93816 0.49498 0.0
H661 H 0.33625 0.93984 0.54261 0.0
H662 H 0.36841 0.98374 0.5181 0.0
H663 H 0.3221 0.08648 0.54153 0.0
H664 H 0.32082 0.07852 0.60597 0.0
H665 H 0.30553 0.96175 0.59293 0.0
C666 C 0.31165 0.98262 0.44704 0.0
C667 C 0.31757 0.01082 0.42052 0.0
C668 C 0.3235 0.04794 0.43125 0.0
C669 C 0.32277 0.05654 0.46739 0.0
C670 C 0.31631 0.02784 0.49261 0.0
C671 C 0.31131 0.99178 0.48297 0.0
C672 C 0.306 0.96653 0.51545 0.0
C673 C 0.26529 0.92911 0.51513 0.0
C674 C 0.33911 0.95649 0.51792 0.0
C675 C 0.30907 0.99414 0.54509 0.0
C676 C 0.31453 0.02912 0.53107 0.0
C677 C 0.31816 0.05936 0.5527 0.0
C678 C 0.31741 0.05441 0.58948 0.0
C679 C 0.31349 0.01958 0.60495 0.0
C680 C 0.3084 0.98863 0.58221 0.0
H681 H 0.32936 0.29186 0.93098 0.0
H682 H 0.26739 0.35721 0.9425 0.0
H683 H 0.26141 0.35897 0.87836 0.0
H684 H 0.38399 0.34225 0.8533 0.0
H685 H 0.37943 0.29907 0.83199 0.0
H686 H 0.37834 0.30142 0.87961 0.0
H687 H 0.31112 0.23677 0.88031 0.0
H688 H 0.31202 0.23431 0.83265 0.0
H689 H 0.2708 0.23339 0.85453 0.0
H690 H 0.26318 0.3564 0.81239 0.0
H691 H 0.27312 0.34855 0.74884 0.0
H692 H 0.3325 0.2843 0.77805 0.0
C693 C 0.31442 0.30636 0.92003 0.0
C694 C 0.29918 0.3245 0.94251 0.0
C695 C 0.27972 0.3431 0.92657 0.0
C696 C 0.27595 0.34431 0.88981 0.0
C697 C 0.29142 0.32659 0.86853 0.0
C698 C 0.31011 0.30776 0.88287 0.0
C699 C 0.3242 0.2914 0.8534 0.0
C700 C 0.36916 0.30964 0.85466 0.0
C701 C 0.30329 0.24629 0.85535 0.0
C702 C 0.31125 0.30482 0.8207 0.0
C703 C 0.29213 0.32483 0.83008 0.0
C704 C 0.27797 0.34057 0.80462 0.0
C705 C 0.28371 0.33596 0.76852 0.0
C706 C 0.30357 0.31587 0.75806 0.0
C707 C 0.31716 0.29989 0.78482 0.0
H708 H 0.03864 0.34664 0.25842 0.0
H709 H 0.93492 0.23149 0.27102 0.0
H710 H 0.92826 0.22363 0.20634 0.0
H711 H 0.00354 0.37555 0.18408 0.0
H712 H 0.04999 0.40063 0.16122 0.0
H713 H 0.04898 0.39682 0.20882 0.0
H714 H 0.09227 0.36425 0.20607 0.0
H715 H 0.09383 0.36844 0.15847 0.0
H716 H 0.07686 0.32119 0.1789 0.0
H717 H 0.92881 0.22985 0.14008 0.0
H718 H 0.94135 0.24764 0.07656 0.0
H719 H 0.04529 0.35756 0.10564 0.0
C720 C 0.01516 0.31947 0.24751 0.0
C721 C 0.98728 0.28976 0.27001 0.0
C722 C 0.95654 0.25487 0.2545 0.0
C723 C 0.95242 0.25003 0.21767 0.0
C724 C 0.97935 0.28024 0.19619 0.0
C725 C 0.0105 0.31407 0.2104 0.0
C726 C 0.03463 0.34224 0.18097 0.0
C727 C 0.03425 0.38111 0.18397 0.0
C728 C 0.0769 0.34944 0.18112 0.0
C729 C 0.012 0.31903 0.14837 0.0
C730 C 0.98006 0.28344 0.15776 0.0
C731 C 0.954 0.25753 0.13235 0.0
C732 C 0.96116 0.26796 0.0963 0.0
C733 C 0.99431 0.30385 0.08589 0.0
C734 C 0.01981 0.32968 0.11254 0.0
H735 H 0.71963 0.04744 0.44604 0.0
H736 H 0.65458 0.92391 0.41661 0.0
H737 H 0.64544 0.90591 0.47995 0.0
H738 H 0.76937 0.03588 0.52252 0.0
H739 H 0.76635 0.07281 0.54848 0.0
H740 H 0.76854 0.07636 0.50083 0.0
H741 H 0.70412 0.0793 0.50016 0.0
H742 H 0.70162 0.07564 0.54778 0.0
H743 H 0.66075 0.04073 0.52122 0.0
H744 H 0.64236 0.90096 0.54541 0.0
H745 H 0.64521 0.90791 0.60964 0.0
H746 H 0.71234 0.0353 0.59933 0.0
C747 C 0.7035 0.01653 0.4528 0.0
C748 C 0.68776 0.98704 0.42599 0.0
C749 C 0.66696 0.94706 0.43633 0.0
C750 C 0.6616 0.93655 0.47233 0.0
C751 C 0.67726 0.9663 0.49786 0.0
C752 C 0.69788 0.00548 0.48868 0.0
C753 C 0.71144 0.03152 0.52163 0.0
C754 C 0.75661 0.05557 0.52347 0.0
C755 C 0.6934 0.05838 0.52276 0.0
C756 C 0.69484 1.00076 0.55086 0.0
C757 C 0.67541 0.96344 0.53621 0.0
C758 C 0.65752 0.93001 0.55715 0.0
C759 C 0.65941 0.93452 0.59395 0.0
C760 C 0.67904 0.97234 0.61025 0.0
C761 C 0.69704 0.00601 0.58808 0.0
H762 H 0.68545 0.72345 0.92762 0.0
H763 H 0.68433 0.61293 0.9402 0.0
H764 H 0.68521 0.60615 0.87582 0.0
H765 H 0.62168 0.69236 0.84753 0.0
H766 H 0.64825 0.74001 0.82688 0.0
H767 H 0.64597 0.73608 0.8745 0.0
H768 H 0.72208 0.7752 0.87745 0.0
H769 H 0.72456 0.77875 0.82982 0.0
H770 H 0.74986 0.75779 0.85309 0.0
H771 H 0.69202 0.61288 0.81058 0.0
H772 H 0.69486 0.62886 0.74694 0.0
H773 H 0.68796 0.73275 0.7738 0.0
C774 C 0.68452 0.69749 0.91675 0.0
C775 C 0.68514 0.66894 0.93935 0.0
C776 C 0.68435 0.63557 0.92379 0.0
C777 C 0.68487 0.63133 0.88707 0.0
C778 C 0.68574 0.66042 0.8656 0.0
C779 C 0.68477 0.69252 0.8796 0.0
C780 C 0.68587 0.71925 0.84985 0.0
C781 C 0.64819 0.72208 0.84968 0.0
C782 C 0.72279 0.76017 0.85274 0.0
C783 C 0.68783 0.69714 0.8174 0.0
C784 C 0.68818 0.66353 0.82728 0.0
C785 C 0.6913 0.63892 0.80239 0.0
C786 C 0.69321 0.64837 0.76628 0.0
C787 C 0.69144 0.68186 0.75522 0.0
C788 C 0.68903 0.70669 0.78133 0.0
H789 H 0.04082 0.68657 0.24084 0.0
H790 H 0.94354 0.70323 0.27111 0.0
H791 H 0.93321 0.71311 0.20795 0.0
H792 H 0.07917 0.75734 0.17068 0.0
H793 H 0.09089 0.72787 0.1421 0.0
H794 H 0.09102 0.72233 0.1895 0.0
H795 H 0.04114 0.64786 0.1838 0.0
H796 H 0.04143 0.65302 0.13637 0.0
H797 H 0.99559 0.63189 0.16024 0.0
H798 H 0.93546 0.72399 0.14212 0.0
H799 H 0.94195 0.7242 0.07734 0.0
H800 H 0.03604 0.69722 0.08833 0.0
C801 C 0.01714 0.69207 0.23419 0.0
C802 C 0.99297 0.69424 0.26105 0.0
C803 C 0.96217 0.70114 0.25111 0.0
C804 C 0.9564 0.70718 0.21532 0.0
C805 C 0.98137 0.70576 0.1897 0.0
C806 C 0.01061 0.69755 0.19858 0.0
C807 C 0.03222 0.69587 0.16574 0.0
C808 C 0.07592 0.72775 0.1671 0.0
C809 C 0.02729 0.65471 0.16127 0.0
C810 C 0.0106 0.70447 0.1368 0.0
C811 C 0.98182 0.71068 0.15145 0.0
C812 C 0.9577 0.71891 0.13044 0.0
C813 C 0.9618 0.71911 0.09357 0.0
C814 C 0.98952 0.71071 0.07755 0.0
C815 C 0.01504 0.70436 0.09963 0.0
loop_
_geom_bond_atom_site_label_1
_geom_bond_atom_site_label_2
_geom_bond_distance
_geom_bond_site_symmetry_2
_ccdc_geom_bond_type
Co0 O1 2.216 . S
Co0 O2 2.091 . S
Co0 O4 2.004 . S
Co0 O10 2.021 . S
Co0 O12 2.137 1_545 S
Co0 O13 2.244 1_545 S
O1 Co0 2.216 . S
O1 C8 1.247 . S
O2 Co0 2.091 . S
O2 C8 1.261 . S
C3 O12 1.247 . S
C3 O13 1.272 . S
O4 Co0 2.004 . S
O4 C9 1.259 . S
Co5 O6 2.061 . S
Co5 O11 2.052 . S
Co5 O13 2.135 . S
O6 Co5 2.061 . S
O6 C9 1.235 1_565 S
C7 O10 1.238 . S
C7 O11 1.241 1_545 S
C8 O1 1.247 . S
C8 O2 1.261 . S
C9 O4 1.259 . S
C9 O6 1.235 1_545 S
O10 Co0 2.021 . S
O10 C7 1.238 . S
O11 Co5 2.052 . S
O11 C7 1.241 1_565 S
O12 Co0 2.137 1_565 S
O12 C3 1.247 . S
O13 Co0 2.244 1_565 S
O13 C3 1.272 . S
O13 Co5 2.135 . S
Co14 O15 2.216 . S
Co14 O16 2.091 . S
Co14 O18 2.004 . S
Co14 O24 2.021 . S
Co14 O26 2.137 . S
Co14 O27 2.244 . S
O15 Co14 2.216 . S
O15 C22 1.247 . S
O16 Co14 2.091 . S
O16 C22 1.261 . S
C17 O26 1.247 . S
C17 O27 1.272 . S
O18 Co14 2.004 . S
O18 C23 1.259 . S
Co19 O20 2.061 . S
Co19 O25 2.052 . S
Co19 O27 2.135 . S
O20 Co19 2.061 . S
O20 C23 1.235 . S
C21 O24 1.238 . S
C21 O25 1.241 . S
C22 O15 1.247 . S
C22 O16 1.261 . S
C23 O18 1.259 . S
C23 O20 1.235 . S
O24 Co14 2.021 . S
O24 C21 1.238 . S
O25 Co19 2.052 . S
O25 C21 1.241 . S
O26 Co14 2.137 . S
O26 C17 1.247 . S
O27 Co14 2.244 . S
O27 C17 1.272 . S
O27 Co19 2.135 . S
Co28 O29 2.216 . S
Co28 O30 2.091 . S
Co28 O32 2.004 1_556 S
Co28 O38 2.021 . S
Co28 O40 2.137 1_655 S
Co28 O41 2.244 1_655 S
O29 Co28 2.216 . S
O29 C36 1.247 . S
O30 Co28 2.091 . S
O30 C36 1.261 . S
C31 O40 1.247 . S
C31 O41 1.272 . S
O32 Co28 2.004 1_554 S
O32 C37 1.259 . S
Co33 O34 2.061 . S
Co33 O39 2.052 1_554 S
Co33 O41 2.135 1_554 S
O34 Co33 2.061 . S
O34 C37 1.235 1_455 S
C35 O38 1.238 . S
C35 O39 1.241 1_655 S
C36 O29 1.247 . S
C36 O30 1.261 . S
C37 O32 1.259 . S
C37 O34 1.235 1_655 S
O38 Co28 2.021 . S
O38 C35 1.238 . S
O39 Co33 2.052 1_556 S
O39 C35 1.241 1_455 S
O40 Co28 2.137 1_455 S
O40 C31 1.247 . S
O41 Co28 2.244 1_455 S
O41 C31 1.272 . S
O41 Co33 2.135 1_556 S
Co42 O43 2.216 . S
Co42 O44 2.091 . S
Co42 O46 2.004 . S
Co42 O52 2.021 . S
Co42 O54 2.137 1_565 S
Co42 O55 2.244 1_565 S
O43 Co42 2.216 . S
O43 C50 1.247 . S
O44 Co42 2.091 . S
O44 C50 1.261 . S
C45 O54 1.247 . S
C45 O55 1.272 . S
O46 Co42 2.004 . S
O46 C51 1.259 . S
Co47 O48 2.061 . S
Co47 O53 2.052 . S
Co47 O55 2.135 . S
O48 Co47 2.061 . S
O48 C51 1.235 1_545 S
C49 O52 1.238 . S
C49 O53 1.241 1_565 S
C50 O43 1.247 . S
C50 O44 1.261 . S
C51 O46 1.259 . S
C51 O48 1.235 1_565 S
O52 Co42 2.021 . S
O52 C49 1.238 . S
O53 Co47 2.052 . S
O53 C49 1.241 1_545 S
O54 Co42 2.137 1_545 S
O54 C45 1.247 . S
O55 Co42 2.244 1_545 S
O55 C45 1.272 . S
O55 Co47 2.135 . S
Co56 O57 2.216 . S
Co56 O58 2.091 . S
Co56 O60 2.004 . S
Co56 O66 2.021 . S
Co56 O68 2.137 . S
Co56 O69 2.244 . S
O57 Co56 2.216 . S
O57 C64 1.247 . S
O58 Co56 2.091 . S
O58 C64 1.261 . S
C59 O68 1.247 . S
C59 O69 1.272 . S
O60 Co56 2.004 . S
O60 C65 1.259 . S
Co61 O62 2.061 . S
Co61 O67 2.052 . S
Co61 O69 2.135 . S
O62 Co61 2.061 . S
O62 C65 1.235 . S
C63 O66 1.238 . S
C63 O67 1.241 . S
C64 O57 1.247 . S
C64 O58 1.261 . S
C65 O60 1.259 . S
C65 O62 1.235 . S
O66 Co56 2.021 . S
O66 C63 1.238 . S
O67 Co61 2.052 . S
O67 C63 1.241 . S
O68 Co56 2.137 . S
O68 C59 1.247 . S
O69 Co56 2.244 . S
O69 C59 1.272 . S
O69 Co61 2.135 . S
Co70 O71 2.216 . S
Co70 O72 2.091 . S
Co70 O74 2.004 1_556 S
Co70 O80 2.021 . S
Co70 O82 2.137 1_455 S
Co70 O83 2.244 1_455 S
O71 Co70 2.216 . S
O71 C78 1.247 . S
O72 Co70 2.091 . S
O72 C78 1.261 . S
C73 O82 1.247 . S
C73 O83 1.272 . S
O74 Co70 2.004 1_554 S
O74 C79 1.259 . S
Co75 O76 2.061 . S
Co75 O81 2.052 1_554 S
Co75 O83 2.135 1_554 S
O76 Co75 2.061 . S
O76 C79 1.235 1_655 S
C77 O80 1.238 . S
C77 O81 1.241 1_455 S
C78 O71 1.247 . S
C78 O72 1.261 . S
C79 O74 1.259 . S
C79 O76 1.235 1_455 S
O80 Co70 2.021 . S
O80 C77 1.238 . S
O81 Co75 2.052 1_556 S
O81 C77 1.241 1_655 S
O82 Co70 2.137 1_655 S
O82 C73 1.247 . S
O83 Co70 2.244 1_655 S
O83 C73 1.272 . S
O83 Co75 2.135 1_556 S
Co84 O85 2.216 . S
Co84 O86 2.091 . S
Co84 O88 2.004 . S
Co84 O94 2.021 . S
Co84 O96 2.137 1_655 S
Co84 O97 2.244 1_655 S
O85 Co84 2.216 . S
O85 C92 1.247 . S
O86 Co84 2.091 . S
O86 C92 1.261 . S
C87 O96 1.247 . S
C87 O97 1.272 . S
O88 Co84 2.004 . S
O88 C93 1.259 . S
Co89 O90 2.061 . S
Co89 O95 2.052 . S
Co89 O97 2.135 . S
O90 Co89 2.061 . S
O90 C93 1.235 1_455 S
C91 O94 1.238 . S
C91 O95 1.241 1_655 S
C92 O85 1.247 . S
C92 O86 1.261 . S
C93 O88 1.259 . S
C93 O90 1.235 1_655 S
O94 Co84 2.021 . S
O94 C91 1.238 . S
O95 Co89 2.052 . S
O95 C91 1.241 1_455 S
O96 Co84 2.137 1_455 S
O96 C87 1.247 . S
O97 Co84 2.244 1_455 S
O97 C87 1.272 . S
O97 Co89 2.135 . S
Co98 O99 2.216 . S
Co98 O100 2.091 . S
Co98 O102 2.004 . S
Co98 O108 2.021 . S
Co98 O110 2.137 1_565 S
Co98 O111 2.244 1_565 S
O99 Co98 2.216 . S
O99 C106 1.247 . S
O100 Co98 2.091 . S
O100 C106 1.261 . S
C101 O110 1.247 . S
C101 O111 1.272 . S
O102 Co98 2.004 . S
O102 C107 1.259 . S
Co103 O104 2.061 . S
Co103 O109 2.052 . S
Co103 O111 2.135 . S
O104 Co103 2.061 . S
O104 C107 1.235 1_545 S
C105 O108 1.238 . S
C105 O109 1.241 1_565 S
C106 O99 1.247 . S
C106 O100 1.261 . S
C107 O102 1.259 . S
C107 O104 1.235 1_565 S
O108 Co98 2.021 . S
O108 C105 1.238 . S
O109 Co103 2.052 . S
O109 C105 1.241 1_545 S
O110 Co98 2.137 1_545 S
O110 C101 1.247 . S
O111 Co98 2.244 1_545 S
O111 C101 1.272 . S
O111 Co103 2.135 . S
Co112 O113 2.216 . S
Co112 O114 2.091 . S
Co112 O116 2.004 1_554 S
Co112 O122 2.021 . S
Co112 O124 2.137 . S
Co112 O125 2.244 . S
O113 Co112 2.216 . S
O113 C120 1.247 . S
O114 Co112 2.091 . S
O114 C120 1.261 . S
C115 O124 1.247 . S
C115 O125 1.272 . S
O116 Co112 2.004 1_556 S
O116 C121 1.259 . S
Co117 O118 2.061 . S
Co117 O123 2.052 1_556 S
Co117 O125 2.135 1_556 S
O118 Co117 2.061 . S
O118 C121 1.235 . S
C119 O122 1.238 . S
C119 O123 1.241 . S
C120 O113 1.247 . S
C120 O114 1.261 . S
C121 O116 1.259 . S
C121 O118 1.235 . S
O122 Co112 2.021 . S
O122 C119 1.238 . S
O123 Co117 2.052 1_554 S
O123 C119 1.241 . S
O124 Co112 2.137 . S
O124 C115 1.247 . S
O125 Co112 2.244 . S
O125 C115 1.272 . S
O125 Co117 2.135 1_554 S
Co126 O127 2.216 . S
Co126 O128 2.091 . S
Co126 O130 2.004 . S
Co126 O136 2.021 . S
Co126 O138 2.137 1_455 S
Co126 O139 2.244 1_455 S
O127 Co126 2.216 . S
O127 C134 1.247 . S
O128 Co126 2.091 . S
O128 C134 1.261 . S
C129 O138 1.247 . S
C129 O139 1.272 . S
O130 Co126 2.004 . S
O130 C135 1.259 . S
Co131 O132 2.061 . S
Co131 O137 2.052 . S
Co131 O139 2.135 . S
O132 Co131 2.061 . S
O132 C135 1.235 1_655 S
C133 O136 1.238 . S
C133 O137 1.241 1_455 S
C134 O127 1.247 . S
C134 O128 1.261 . S
C135 O130 1.259 . S
C135 O132 1.235 1_455 S
O136 Co126 2.021 . S
O136 C133 1.238 . S
O137 Co131 2.052 . S
O137 C133 1.241 1_655 S
O138 Co126 2.137 1_655 S
O138 C129 1.247 . S
O139 Co126 2.244 1_655 S
O139 C129 1.272 . S
O139 Co131 2.135 . S
Co140 O141 2.216 . S
Co140 O142 2.091 . S
Co140 O144 2.004 . S
Co140 O150 2.021 . S
Co140 O152 2.137 1_545 S
Co140 O153 2.244 1_545 S
O141 Co140 2.216 . S
O141 C148 1.247 . S
O142 Co140 2.091 . S
O142 C148 1.261 . S
C143 O152 1.247 . S
C143 O153 1.272 . S
O144 Co140 2.004 . S
O144 C149 1.259 . S
Co145 O146 2.061 . S
Co145 O151 2.052 . S
Co145 O153 2.135 . S
O146 Co145 2.061 . S
O146 C149 1.235 1_565 S
C147 O150 1.238 . S
C147 O151 1.241 1_545 S
C148 O141 1.247 . S
C148 O142 1.261 . S
C149 O144 1.259 . S
C149 O146 1.235 1_545 S
O150 Co140 2.021 . S
O150 C147 1.238 . S
O151 Co145 2.052 . S
O151 C147 1.241 1_565 S
O152 Co140 2.137 1_565 S
O152 C143 1.247 . S
O153 Co140 2.244 1_565 S
O153 C143 1.272 . S
O153 Co145 2.135 . S
Co154 O155 2.216 . S
Co154 O156 2.091 . S
Co154 O158 2.004 1_554 S
Co154 O164 2.021 . S
Co154 O166 2.137 . S
Co154 O167 2.244 . S
O155 Co154 2.216 . S
O155 C162 1.247 . S
O156 Co154 2.091 . S
O156 C162 1.261 . S
C157 O166 1.247 . S
C157 O167 1.272 . S
O158 Co154 2.004 1_556 S
O158 C163 1.259 . S
Co159 O160 2.061 . S
Co159 O165 2.052 1_556 S
Co159 O167 2.135 1_556 S
O160 Co159 2.061 . S
O160 C163 1.235 . S
C161 O164 1.238 . S
C161 O165 1.241 . S
C162 O155 1.247 . S
C162 O156 1.261 . S
C163 O158 1.259 . S
C163 O160 1.235 . S
O164 Co154 2.021 . S
O164 C161 1.238 . S
O165 Co159 2.052 1_554 S
O165 C161 1.241 . S
O166 Co154 2.137 . S
O166 C157 1.247 . S
O167 Co154 2.244 . S
O167 C157 1.272 . S
O167 Co159 2.135 1_554 S
H168 C180 0.930 . S
H169 C182 0.930 . S
H170 C183 0.930 . S
H171 C187 0.959 . S
H172 C187 0.959 . S
H173 C187 0.961 . S
H174 C188 0.960 . S
H175 C188 0.961 . S
H176 C188 0.959 . S
H177 C191 0.929 . S
H178 C192 0.931 . S
H179 C194 0.930 . S
C180 H168 0.930 . S
C180 C181 1.399 . S
C180 C185 1.399 . S
C181 C180 1.399 . S
C181 C182 1.376 . S
C182 H169 0.930 . S
C182 C181 1.376 . S
C182 C183 1.388 . S
C183 H170 0.930 . S
C183 C182 1.388 . S
C183 C184 1.390 . S
C184 C183 1.390 . S
C184 C185 1.394 . S
C184 C190 1.465 . S
C185 C180 1.399 . S
C185 C184 1.394 . S
C185 C186 1.516 . S
C186 C185 1.516 . S
C186 C187 1.502 . S
C186 C188 1.561 . S
C186 C189 1.526 . S
C187 H171 0.959 . S
C187 H172 0.959 . S
C187 H173 0.961 . S
C187 C186 1.502 . S
C188 H174 0.960 . S
C188 H175 0.961 . S
C188 H176 0.959 . S
C188 C186 1.561 . S
C189 C186 1.526 . S
C189 C190 1.396 . S
C189 C194 1.390 . S
C190 C184 1.465 . S
C190 C189 1.396 . S
C190 C191 1.399 . S
C191 H177 0.929 . S
C191 C190 1.399 . S
C191 C192 1.385 . S
C192 H178 0.931 . S
C192 C191 1.385 . S
C192 C193 1.389 . S
C193 C192 1.389 . S
C193 C194 1.387 . S
C194 H179 0.930 . S
C194 C189 1.390 . S
C194 C193 1.387 . S
H195 C207 0.930 . S
H196 C209 0.930 . S
H197 C210 0.930 . S
H198 C214 0.959 . S
H199 C214 0.959 . S
H200 C214 0.961 . S
H201 C215 0.960 . S
H202 C215 0.961 . S
H203 C215 0.959 . S
H204 C218 0.929 . S
H205 C219 0.931 . S
H206 C221 0.930 . S
C207 H195 0.930 . S
C207 C208 1.399 . S
C207 C212 1.399 . S
C208 C207 1.399 . S
C208 C209 1.376 . S
C209 H196 0.930 . S
C209 C208 1.376 . S
C209 C210 1.388 . S
C210 H197 0.930 . S
C210 C209 1.388 . S
C210 C211 1.390 . S
C211 C210 1.390 . S
C211 C212 1.394 . S
C211 C217 1.465 . S
C212 C207 1.399 . S
C212 C211 1.394 . S
C212 C213 1.516 . S
C213 C212 1.516 . S
C213 C214 1.502 . S
C213 C215 1.561 . S
C213 C216 1.526 . S
C214 H198 0.959 . S
C214 H199 0.959 . S
C214 H200 0.961 . S
C214 C213 1.502 . S
C215 H201 0.960 . S
C215 H202 0.961 . S
C215 H203 0.959 . S
C215 C213 1.561 . S
C216 C213 1.526 . S
C216 C217 1.396 . S
C216 C221 1.390 . S
C217 C211 1.465 . S
C217 C216 1.396 . S
C217 C218 1.399 . S
C218 H204 0.929 . S
C218 C217 1.399 . S
C218 C219 1.385 . S
C219 H205 0.931 . S
C219 C218 1.385 . S
C219 C220 1.389 . S
C220 C219 1.389 . S
C220 C221 1.387 . S
C221 H206 0.930 . S
C221 C216 1.390 . S
C221 C220 1.387 . S
H222 C234 0.930 . S
H223 C236 0.930 . S
H224 C237 0.930 . S
H225 C241 0.959 . S
H226 C241 0.959 . S
H227 C241 0.961 . S
H228 C242 0.960 . S
H229 C242 0.961 . S
H230 C242 0.959 . S
H231 C245 0.929 . S
H232 C246 0.931 . S
H233 C248 0.930 . S
C234 H222 0.930 . S
C234 C235 1.399 . S
C234 C239 1.399 . S
C235 C234 1.399 . S
C235 C236 1.376 . S
C236 H223 0.930 . S
C236 C235 1.376 . S
C236 C237 1.388 . S
C237 H224 0.930 . S
C237 C236 1.388 . S
C237 C238 1.390 . S
C238 C237 1.390 . S
C238 C239 1.394 . S
C238 C244 1.465 . S
C239 C234 1.399 . S
C239 C238 1.394 . S
C239 C240 1.516 . S
C240 C239 1.516 . S
C240 C241 1.502 . S
C240 C242 1.561 . S
C240 C243 1.526 . S
C241 H225 0.959 . S
C241 H226 0.959 . S
C241 H227 0.961 . S
C241 C240 1.502 . S
C242 H228 0.960 . S
C242 H229 0.961 . S
C242 H230 0.959 . S
C242 C240 1.561 . S
C243 C240 1.526 . S
C243 C244 1.396 . S
C243 C248 1.390 . S
C244 C238 1.465 . S
C244 C243 1.396 . S
C244 C245 1.399 . S
C245 H231 0.929 . S
C245 C244 1.399 . S
C245 C246 1.385 . S
C246 H232 0.931 . S
C246 C245 1.385 . S
C246 C247 1.389 . S
C247 C246 1.389 . S
C247 C248 1.387 . S
C248 H233 0.930 . S
C248 C243 1.390 . S
C248 C247 1.387 . S
H249 C261 0.930 . S
H250 C263 0.930 . S
H251 C264 0.930 . S
H252 C268 0.959 . S
H253 C268 0.959 . S
H254 C268 0.961 . S
H255 C269 0.960 . S
H256 C269 0.961 . S
H257 C269 0.959 . S
H258 C272 0.929 . S
H259 C273 0.931 . S
H260 C275 0.930 . S
C261 H249 0.930 . S
C261 C262 1.399 . S
C261 C266 1.399 . S
C262 C261 1.399 . S
C262 C263 1.376 . S
C263 H250 0.930 . S
C263 C262 1.376 . S
C263 C264 1.388 . S
C264 H251 0.930 . S
C264 C263 1.388 . S
C264 C265 1.390 . S
C265 C264 1.390 . S
C265 C266 1.394 . S
C265 C271 1.465 . S
C266 C261 1.399 . S
C266 C265 1.394 . S
C266 C267 1.516 . S
C267 C266 1.516 . S
C267 C268 1.502 . S
C267 C269 1.561 . S
C267 C270 1.526 . S
C268 H252 0.959 . S
C268 H253 0.959 . S
C268 H254 0.961 . S
C268 C267 1.502 . S
C269 H255 0.960 . S
C269 H256 0.961 . S
C269 H257 0.959 . S
C269 C267 1.561 . S
C270 C267 1.526 . S
C270 C271 1.396 . S
C270 C275 1.390 . S
C271 C265 1.465 . S
C271 C270 1.396 . S
C271 C272 1.399 . S
C272 H258 0.929 . S
C272 C271 1.399 . S
C272 C273 1.385 . S
C273 H259 0.931 . S
C273 C272 1.385 . S
C273 C274 1.389 . S
C274 C273 1.389 . S
C274 C275 1.387 . S
C275 H260 0.930 . S
C275 C270 1.390 . S
C275 C274 1.387 . S
H276 C288 0.930 . S
H277 C290 0.930 . S
H278 C291 0.930 . S
H279 C295 0.959 . S
H280 C295 0.959 . S
H281 C295 0.961 . S
H282 C296 0.960 . S
H283 C296 0.961 . S
H284 C296 0.959 . S
H285 C299 0.929 . S
H286 C300 0.931 . S
H287 C302 0.930 . S
C288 H276 0.930 . S
C288 C289 1.399 . S
C288 C293 1.399 . S
C289 C288 1.399 . S
C289 C290 1.376 . S
C290 H277 0.930 . S
C290 C289 1.376 . S
C290 C291 1.388 . S
C291 H278 0.930 . S
C291 C290 1.388 . S
C291 C292 1.390 . S
C292 C291 1.390 . S
C292 C293 1.394 . S
C292 C298 1.465 . S
C293 C288 1.399 . S
C293 C292 1.394 . S
C293 C294 1.516 . S
C294 C293 1.516 . S
C294 C295 1.502 . S
C294 C296 1.561 . S
C294 C297 1.526 . S
C295 H279 0.959 . S
C295 H280 0.959 . S
C295 H281 0.961 . S
C295 C294 1.502 . S
C296 H282 0.960 . S
C296 H283 0.961 . S
C296 H284 0.959 . S
C296 C294 1.561 . S
C297 C294 1.526 . S
C297 C298 1.396 . S
C297 C302 1.390 . S
C298 C292 1.465 . S
C298 C297 1.396 . S
C298 C299 1.399 . S
C299 H285 0.929 . S
C299 C298 1.399 . S
C299 C300 1.385 . S
C300 H286 0.931 . S
C300 C299 1.385 . S
C300 C301 1.389 . S
C301 C300 1.389 . S
C301 C302 1.387 . S
C302 H287 0.930 . S
C302 C297 1.390 . S
C302 C301 1.387 . S
H303 C315 0.930 . S
H304 C317 0.930 . S
H305 C318 0.930 . S
H306 C322 0.959 . S
H307 C322 0.959 . S
H308 C322 0.961 . S
H309 C323 0.960 . S
H310 C323 0.961 . S
H311 C323 0.959 . S
H312 C326 0.929 . S
H313 C327 0.931 . S
H314 C329 0.930 . S
C315 H303 0.930 . S
C315 C316 1.399 . S
C315 C320 1.399 . S
C316 C315 1.399 . S
C316 C317 1.376 . S
C317 H304 0.930 . S
C317 C316 1.376 . S
C317 C318 1.388 . S
C318 H305 0.930 . S
C318 C317 1.388 . S
C318 C319 1.390 . S
C319 C318 1.390 . S
C319 C320 1.394 . S
C319 C325 1.465 . S
C320 C315 1.399 . S
C320 C319 1.394 . S
C320 C321 1.516 . S
C321 C320 1.516 . S
C321 C322 1.502 . S
C321 C323 1.561 . S
C321 C324 1.526 . S
C322 H306 0.959 . S
C322 H307 0.959 . S
C322 H308 0.961 . S
C322 C321 1.502 . S
C323 H309 0.960 . S
C323 H310 0.961 . S
C323 H311 0.959 . S
C323 C321 1.561 . S
C324 C321 1.526 . S
C324 C325 1.396 . S
C324 C329 1.390 . S
C325 C319 1.465 . S
C325 C324 1.396 . S
C325 C326 1.399 . S
C326 H312 0.929 . S
C326 C325 1.399 . S
C326 C327 1.385 . S
C327 H313 0.931 . S
C327 C326 1.385 . S
C327 C328 1.389 . S
C328 C327 1.389 . S
C328 C329 1.387 . S
C329 H314 0.930 . S
C329 C324 1.390 . S
C329 C328 1.387 . S
H330 C342 0.930 . S
H331 C344 0.930 1_565 S
H332 C345 0.930 . S
H333 C349 0.959 . S
H334 C349 0.959 . S
H335 C349 0.961 . S
H336 C350 0.960 . S
H337 C350 0.961 . S
H338 C350 0.959 . S
H339 C353 0.929 . S
H340 C354 0.931 . S
H341 C356 0.930 . S
C342 H330 0.930 . S
C342 C343 1.399 . S
C342 C347 1.399 . S
C343 C342 1.399 . S
C343 C344 1.376 . S
C344 H331 0.930 1_545 S
C344 C343 1.376 . S
C344 C345 1.388 1_545 S
C345 H332 0.930 . S
C345 C344 1.388 1_565 S
C345 C346 1.390 . S
C346 C345 1.390 . S
C346 C347 1.394 1_565 S
C346 C352 1.465 . S
C347 C342 1.399 . S
C347 C346 1.394 1_545 S
C347 C348 1.516 . S
C348 C347 1.516 . S
C348 C349 1.502 . S
C348 C350 1.561 1_545 S
C348 C351 1.526 1_545 S
C349 H333 0.959 . S
C349 H334 0.959 . S
C349 H335 0.961 . S
C349 C348 1.502 . S
C350 H336 0.960 . S
C350 H337 0.961 . S
C350 H338 0.959 . S
C350 C348 1.561 1_565 S
C351 C348 1.526 1_565 S
C351 C352 1.396 . S
C351 C356 1.390 . S
C352 C346 1.465 . S
C352 C351 1.396 . S
C352 C353 1.399 . S
C353 H339 0.929 . S
C353 C352 1.399 . S
C353 C354 1.385 . S
C354 H340 0.931 . S
C354 C353 1.385 . S
C354 C355 1.389 . S
C355 C354 1.389 . S
C355 C356 1.387 . S
C356 H341 0.930 . S
C356 C351 1.390 . S
C356 C355 1.387 . S
H357 C369 0.930 . S
H358 C371 0.930 . S
H359 C372 0.930 . S
H360 C376 0.959 . S
H361 C376 0.959 . S
H362 C376 0.961 . S
H363 C377 0.960 . S
H364 C377 0.961 . S
H365 C377 0.959 . S
H366 C380 0.929 . S
H367 C381 0.931 . S
H368 C383 0.930 . S
C369 H357 0.930 . S
C369 C370 1.399 . S
C369 C374 1.399 . S
C370 C369 1.399 . S
C370 C371 1.376 . S
C371 H358 0.930 . S
C371 C370 1.376 . S
C371 C372 1.388 . S
C372 H359 0.930 . S
C372 C371 1.388 . S
C372 C373 1.390 . S
C373 C372 1.390 . S
C373 C374 1.394 . S
C373 C379 1.465 . S
C374 C369 1.399 . S
C374 C373 1.394 . S
C374 C375 1.516 . S
C375 C374 1.516 . S
C375 C376 1.502 . S
C375 C377 1.561 . S
C375 C378 1.526 . S
C376 H360 0.959 . S
C376 H361 0.959 . S
C376 H362 0.961 . S
C376 C375 1.502 . S
C377 H363 0.960 . S
C377 H364 0.961 . S
C377 H365 0.959 . S
C377 C375 1.561 . S
C378 C375 1.526 . S
C378 C379 1.396 . S
C378 C383 1.390 . S
C379 C373 1.465 . S
C379 C378 1.396 . S
C379 C380 1.399 . S
C380 H366 0.929 . S
C380 C379 1.399 . S
C380 C381 1.385 . S
C381 H367 0.931 . S
C381 C380 1.385 . S
C381 C382 1.389 . S
C382 C381 1.389 . S
C382 C383 1.387 . S
C383 H368 0.930 . S
C383 C378 1.390 . S
C383 C382 1.387 . S
H384 C396 0.930 . S
H385 C398 0.930 . S
H386 C399 0.930 . S
H387 C403 0.959 . S
H388 C403 0.945 1_455 S
H389 C403 0.961 1_455 S
H390 C404 0.960 . S
H391 C404 0.961 . S
H392 C404 0.959 . S
H393 C407 0.929 . S
H394 C408 0.931 . S
H395 C410 0.930 1_455 S
C396 H384 0.930 . S
C396 C397 1.399 . S
C396 C401 1.399 . S
C397 C396 1.399 . S
C397 C398 1.376 1_556 S
C398 H385 0.930 . S
C398 C397 1.376 1_554 S
C398 C399 1.388 1_455 S
C399 H386 0.930 . S
C399 C398 1.388 1_655 S
C399 C400 1.390 1_654 S
C400 C399 1.390 1_456 S
C400 C401 1.394 . S
C400 C406 1.465 1_455 S
C401 C396 1.399 . S
C401 C400 1.394 . S
C401 C402 1.516 . S
C402 C401 1.516 . S
C402 C403 1.502 1_455 S
C402 C404 1.561 . S
C402 C405 1.526 . S
C403 H387 0.959 . S
C403 H388 0.945 1_655 S
C403 H389 0.961 1_655 S
C403 C402 1.502 1_655 S
C404 H390 0.960 . S
C404 H391 0.961 . S
C404 H392 0.959 . S
C404 C402 1.561 . S
C405 C402 1.526 . S
C405 C406 1.396 1_455 S
C405 C410 1.390 1_455 S
C406 C400 1.465 1_655 S
C406 C405 1.396 1_655 S
C406 C407 1.399 1_556 S
C407 H393 0.929 . S
C407 C406 1.399 1_554 S
C407 C408 1.385 . S
C408 H394 0.931 . S
C408 C407 1.385 . S
C408 C409 1.389 1_554 S
C409 C408 1.389 1_556 S
C409 C410 1.387 . S
C410 H395 0.930 1_655 S
C410 C405 1.390 1_655 S
C410 C409 1.387 . S
H411 C423 0.930 . S
H412 C425 0.930 . S
H413 C426 0.930 . S
H414 C430 0.959 1_655 S
H415 C430 0.959 . S
H416 C430 0.961 . S
H417 C431 0.960 . S
H418 C431 0.961 . S
H419 C431 0.959 . S
H420 C434 0.929 . S
H421 C435 0.931 . S
H422 C437 0.930 . S
C423 H411 0.930 . S
C423 C424 1.399 1_455 S
C423 C428 1.399 . S
C424 C423 1.399 1_655 S
C424 C425 1.376 . S
C425 H412 0.930 . S
C425 C424 1.376 . S
C425 C426 1.388 . S
C426 H413 0.930 . S
C426 C425 1.388 . S
C426 C427 1.390 . S
C427 C426 1.390 . S
C427 C428 1.394 1_655 S
C427 C433 1.465 . S
C428 C423 1.399 . S
C428 C427 1.394 1_455 S
C428 C429 1.516 . S
C429 C428 1.516 . S
C429 C430 1.502 . S
C429 C431 1.561 . S
C429 C432 1.526 . S
C430 H414 0.959 1_455 S
C430 H415 0.959 . S
C430 H416 0.961 . S
C430 C429 1.502 . S
C431 H417 0.960 . S
C431 H418 0.961 . S
C431 H419 0.959 . S
C431 C429 1.561 . S
C432 C429 1.526 . S
C432 C433 1.396 1_455 S
C432 C437 1.390 . S
C433 C427 1.465 . S
C433 C432 1.396 1_655 S
C433 C434 1.399 . S
C434 H420 0.929 . S
C434 C433 1.399 . S
C434 C435 1.385 . S
C435 H421 0.931 . S
C435 C434 1.385 . S
C435 C436 1.389 1_655 S
C436 C435 1.389 1_455 S
C436 C437 1.387 . S
C437 H422 0.930 . S
C437 C432 1.390 . S
C437 C436 1.387 . S
H438 C450 0.930 . S
H439 C452 0.930 . S
H440 C453 0.930 . S
H441 C457 0.959 . S
H442 C457 0.959 . S
H443 C457 0.961 . S
H444 C458 0.960 . S
H445 C458 0.961 . S
H446 C458 0.959 1_565 S
H447 C461 0.929 . S
H448 C462 0.931 . S
H449 C464 0.930 . S
C450 H438 0.930 . S
C450 C451 1.399 . S
C450 C455 1.399 . S
C451 C450 1.399 . S
C451 C452 1.376 1_545 S
C452 H439 0.930 . S
C452 C451 1.376 1_565 S
C452 C453 1.388 . S
C453 H440 0.930 . S
C453 C452 1.388 . S
C453 C454 1.390 . S
C454 C453 1.390 . S
C454 C455 1.394 1_565 S
C454 C460 1.465 . S
C455 C450 1.399 . S
C455 C454 1.394 1_545 S
C455 C456 1.516 . S
C456 C455 1.516 . S
C456 C457 1.502 . S
C456 C458 1.561 . S
C456 C459 1.526 . S
C457 H441 0.959 . S
C457 H442 0.959 . S
C457 H443 0.961 . S
C457 C456 1.502 . S
C458 H444 0.960 . S
C458 H445 0.961 . S
C458 H446 0.959 1_545 S
C458 C456 1.561 . S
C459 C456 1.526 . S
C459 C460 1.396 1_545 S
C459 C464 1.390 . S
C460 C454 1.465 . S
C460 C459 1.396 1_565 S
C460 C461 1.399 . S
C461 H447 0.929 . S
C461 C460 1.399 . S
C461 C462 1.385 . S
C462 H448 0.931 . S
C462 C461 1.385 . S
C462 C463 1.389 . S
C463 C462 1.389 . S
C463 C464 1.387 1_565 S
C464 H449 0.930 . S
C464 C459 1.390 . S
C464 C463 1.387 1_545 S
H465 C477 0.930 . S
H466 C479 0.930 1_556 S
H467 C480 0.930 . S
H468 C484 0.959 . S
H469 C484 0.959 . S
H470 C484 0.961 . S
H471 C485 0.960 . S
H472 C485 0.961 . S
H473 C485 0.959 . S
H474 C488 0.929 . S
H475 C489 0.915 1_556 S
H476 C491 0.930 . S
C477 H465 0.930 . S
C477 C478 1.399 . S
C477 C482 1.399 . S
C478 C477 1.399 . S
C478 C479 1.376 . S
C479 H466 0.930 1_554 S
C479 C478 1.376 . S
C479 C480 1.388 1_554 S
C480 H467 0.930 . S
C480 C479 1.388 1_556 S
C480 C481 1.390 1_556 S
C481 C480 1.390 1_554 S
C481 C482 1.394 . S
C481 C487 1.465 . S
C482 C477 1.399 . S
C482 C481 1.394 . S
C482 C483 1.516 . S
C483 C482 1.516 . S
C483 C484 1.502 . S
C483 C485 1.561 . S
C483 C486 1.526 . S
C484 H468 0.959 . S
C484 H469 0.959 . S
C484 H470 0.961 . S
C484 C483 1.502 . S
C485 H471 0.960 . S
C485 H472 0.961 . S
C485 H473 0.959 . S
C485 C483 1.561 . S
C486 C483 1.526 . S
C486 C487 1.396 . S
C486 C491 1.390 . S
C487 C481 1.465 . S
C487 C486 1.396 . S
C487 C488 1.399 1_554 S
C488 H474 0.929 . S
C488 C487 1.399 1_556 S
C488 C489 1.382 1_556 S
C489 H475 0.915 1_554 S
C489 C488 1.382 1_554 S
C489 C490 1.409 . S
C490 C489 1.409 . S
C490 C491 1.387 . S
C491 H476 0.930 . S
C491 C486 1.390 . S
C491 C490 1.387 . S
H492 C504 0.930 . S
H493 C506 0.930 . S
H494 C507 0.930 . S
H495 C511 0.959 . S
H496 C511 0.959 . S
H497 C511 0.961 . S
H498 C512 0.960 . S
H499 C512 0.961 . S
H500 C512 0.959 . S
H501 C515 0.929 . S
H502 C516 0.931 . S
H503 C518 0.930 . S
C504 H492 0.930 . S
C504 C505 1.399 . S
C504 C509 1.399 . S
C505 C504 1.399 . S
C505 C506 1.376 . S
C506 H493 0.930 . S
C506 C505 1.376 . S
C506 C507 1.388 . S
C507 H494 0.930 . S
C507 C506 1.388 . S
C507 C508 1.390 . S
C508 C507 1.390 . S
C508 C509 1.394 . S
C508 C514 1.465 . S
C509 C504 1.399 . S
C509 C508 1.394 . S
C509 C510 1.516 . S
C510 C509 1.516 . S
C510 C511 1.502 . S
C510 C512 1.561 . S
C510 C513 1.526 . S
C511 H495 0.959 . S
C511 H496 0.959 . S
C511 H497 0.961 . S
C511 C510 1.502 . S
C512 H498 0.960 . S
C512 H499 0.961 . S
C512 H500 0.959 . S
C512 C510 1.561 . S
C513 C510 1.526 . S
C513 C514 1.396 . S
C513 C518 1.390 . S
C514 C508 1.465 . S
C514 C513 1.396 . S
C514 C515 1.399 . S
C515 H501 0.929 . S
C515 C514 1.399 . S
C515 C516 1.385 . S
C516 H502 0.931 . S
C516 C515 1.385 . S
C516 C517 1.389 . S
C517 C516 1.389 . S
C517 C518 1.387 . S
C518 H503 0.930 . S
C518 C513 1.390 . S
C518 C517 1.387 . S
H519 C531 0.930 . S
H520 C533 0.930 . S
H521 C534 0.930 . S
H522 C538 0.959 . S
H523 C538 0.959 . S
H524 C538 0.961 . S
H525 C539 0.960 . S
H526 C539 0.961 . S
H527 C539 0.959 . S
H528 C542 0.929 . S
H529 C543 0.931 . S
H530 C545 0.930 . S
C531 H519 0.930 . S
C531 C532 1.399 . S
C531 C536 1.399 . S
C532 C531 1.399 . S
C532 C533 1.376 . S
C533 H520 0.930 . S
C533 C532 1.376 . S
C533 C534 1.388 . S
C534 H521 0.930 . S
C534 C533 1.388 . S
C534 C535 1.390 . S
C535 C534 1.390 . S
C535 C536 1.394 . S
C535 C541 1.465 . S
C536 C531 1.399 . S
C536 C535 1.394 . S
C536 C537 1.516 . S
C537 C536 1.516 . S
C537 C538 1.502 . S
C537 C539 1.561 . S
C537 C540 1.526 . S
C538 H522 0.959 . S
C538 H523 0.959 . S
C538 H524 0.961 . S
C538 C537 1.502 . S
C539 H525 0.960 . S
C539 H526 0.961 . S
C539 H527 0.959 . S
C539 C537 1.561 . S
C540 C537 1.526 . S
C540 C541 1.396 . S
C540 C545 1.390 . S
C541 C535 1.465 . S
C541 C540 1.396 . S
C541 C542 1.399 . S
C542 H528 0.929 . S
C542 C541 1.399 . S
C542 C543 1.385 . S
C543 H529 0.931 . S
C543 C542 1.385 . S
C543 C544 1.389 . S
C544 C543 1.389 . S
C544 C545 1.387 . S
C545 H530 0.930 . S
C545 C540 1.390 . S
C545 C544 1.387 . S
H546 C558 0.930 . S
H547 C560 0.930 . S
H548 C561 0.930 . S
H549 C565 0.959 . S
H550 C565 0.959 . S
H551 C565 0.961 . S
H552 C566 0.960 . S
H553 C566 0.961 . S
H554 C566 0.959 . S
H555 C569 0.929 . S
H556 C570 0.931 . S
H557 C572 0.930 . S
C558 H546 0.930 . S
C558 C559 1.399 . S
C558 C563 1.399 . S
C559 C558 1.399 . S
C559 C560 1.376 . S
C560 H547 0.930 . S
C560 C559 1.376 . S
C560 C561 1.388 1_554 S
C561 H548 0.930 . S
C561 C560 1.388 1_556 S
C561 C562 1.390 . S
C562 C561 1.390 . S
C562 C563 1.394 1_556 S
C562 C568 1.465 . S
C563 C558 1.399 . S
C563 C562 1.394 1_554 S
C563 C564 1.516 . S
C564 C563 1.516 . S
C564 C565 1.502 . S
C564 C566 1.561 1_554 S
C564 C567 1.526 1_554 S
C565 H549 0.959 . S
C565 H550 0.959 . S
C565 H551 0.961 . S
C565 C564 1.502 . S
C566 H552 0.960 . S
C566 H553 0.961 . S
C566 H554 0.959 . S
C566 C564 1.561 1_556 S
C567 C564 1.526 1_556 S
C567 C568 1.396 . S
C567 C572 1.390 . S
C568 C562 1.465 . S
C568 C567 1.396 . S
C568 C569 1.399 . S
C569 H555 0.929 . S
C569 C568 1.399 . S
C569 C570 1.385 . S
C570 H556 0.931 . S
C570 C569 1.385 . S
C570 C571 1.389 . S
C571 C570 1.389 . S
C571 C572 1.387 . S
C572 H557 0.930 . S
C572 C567 1.390 . S
C572 C571 1.387 . S
H573 C585 0.930 . S
H574 C587 0.930 . S
H575 C588 0.930 . S
H576 C592 0.959 . S
H577 C592 0.959 . S
H578 C592 0.961 . S
H579 C593 0.960 . S
H580 C593 0.961 . S
H581 C593 0.959 . S
H582 C596 0.929 . S
H583 C597 0.931 . S
H584 C599 0.930 . S
C585 H573 0.930 . S
C585 C586 1.399 . S
C585 C590 1.399 . S
C586 C585 1.399 . S
C586 C587 1.376 . S
C587 H574 0.930 . S
C587 C586 1.376 . S
C587 C588 1.388 . S
C588 H575 0.930 . S
C588 C587 1.388 . S
C588 C589 1.390 . S
C589 C588 1.390 . S
C589 C590 1.394 . S
C589 C595 1.465 . S
C590 C585 1.399 . S
C590 C589 1.394 . S
C590 C591 1.516 . S
C591 C590 1.516 . S
C591 C592 1.502 . S
C591 C593 1.561 . S
C591 C594 1.526 . S
C592 H576 0.959 . S
C592 H577 0.959 . S
C592 H578 0.961 . S
C592 C591 1.502 . S
C593 H579 0.960 . S
C593 H580 0.961 . S
C593 H581 0.959 . S
C593 C591 1.561 . S
C594 C591 1.526 . S
C594 C595 1.396 . S
C594 C599 1.390 . S
C595 C589 1.465 . S
C595 C594 1.396 . S
C595 C596 1.399 . S
C596 H582 0.929 . S
C596 C595 1.399 . S
C596 C597 1.385 . S
C597 H583 0.931 . S
C597 C596 1.385 . S
C597 C598 1.389 . S
C598 C597 1.389 . S
C598 C599 1.387 . S
C599 H584 0.930 . S
C599 C594 1.390 . S
C599 C598 1.387 . S
H600 C612 0.930 . S
H601 C614 0.930 . S
H602 C615 0.930 . S
H603 C619 0.959 . S
H604 C619 0.959 . S
H605 C619 0.961 . S
H606 C620 0.960 . S
H607 C620 0.961 . S
H608 C620 0.959 . S
H609 C623 0.929 . S
H610 C624 0.931 . S
H611 C626 0.930 . S
C612 H600 0.930 . S
C612 C613 1.399 . S
C612 C617 1.399 . S
C613 C612 1.399 . S
C613 C614 1.376 . S
C614 H601 0.930 . S
C614 C613 1.376 . S
C614 C615 1.388 . S
C615 H602 0.930 . S
C615 C614 1.388 . S
C615 C616 1.390 . S
C616 C615 1.390 . S
C616 C617 1.394 . S
C616 C622 1.465 . S
C617 C612 1.399 . S
C617 C616 1.394 . S
C617 C618 1.516 . S
C618 C617 1.516 . S
C618 C619 1.502 . S
C618 C620 1.561 . S
C618 C621 1.526 . S
C619 H603 0.959 . S
C619 H604 0.959 . S
C619 H605 0.961 . S
C619 C618 1.502 . S
C620 H606 0.960 . S
C620 H607 0.961 . S
C620 H608 0.959 . S
C620 C618 1.561 . S
C621 C618 1.526 . S
C621 C622 1.396 . S
C621 C626 1.390 . S
C622 C616 1.465 . S
C622 C621 1.396 . S
C622 C623 1.399 . S
C623 H609 0.929 . S
C623 C622 1.399 . S
C623 C624 1.385 . S
C624 H610 0.931 . S
C624 C623 1.385 . S
C624 C625 1.389 . S
C625 C624 1.389 . S
C625 C626 1.387 . S
C626 H611 0.930 . S
C626 C621 1.390 . S
C626 C625 1.387 . S
H627 C639 0.930 . S
H628 C641 0.939 . S
H629 C642 0.930 . S
H630 C646 0.959 . S
H631 C646 0.959 . S
H632 C646 0.961 . S
H633 C647 0.969 . S
H634 C647 0.963 . S
H635 C647 0.940 1_556 S
H636 C650 0.929 . S
H637 C651 0.931 . S
H638 C653 0.930 1_554 S
C639 H627 0.930 . S
C639 C640 1.399 . S
C639 C644 1.399 . S
C640 C639 1.399 . S
C640 C641 1.355 1_554 S
C641 H628 0.939 . S
C641 C640 1.355 1_556 S
C641 C642 1.402 . S
C642 H629 0.930 . S
C642 C641 1.402 . S
C642 C643 1.390 . S
C643 C642 1.390 . S
C643 C644 1.394 1_556 S
C643 C649 1.465 . S
C644 C639 1.399 . S
C644 C643 1.394 1_554 S
C644 C645 1.516 . S
C645 C644 1.516 . S
C645 C646 1.502 . S
C645 C647 1.570 . S
C645 C648 1.526 1_554 S
C646 H630 0.959 . S
C646 H631 0.959 . S
C646 H632 0.961 . S
C646 C645 1.502 . S
C647 H633 0.969 . S
C647 H634 0.963 . S
C647 H635 0.940 1_554 S
C647 C645 1.570 . S
C648 C645 1.526 1_556 S
C648 C649 1.396 . S
C648 C653 1.390 . S
C649 C643 1.465 . S
C649 C648 1.396 . S
C649 C650 1.399 . S
C650 H636 0.929 . S
C650 C649 1.399 . S
C650 C651 1.385 . S
C651 H637 0.931 . S
C651 C650 1.385 . S
C651 C652 1.389 . S
C652 C651 1.389 . S
C652 C653 1.387 . S
C653 H638 0.930 1_556 S
C653 C648 1.390 . S
C653 C652 1.387 . S
H654 C666 0.930 . S
H655 C668 0.930 . S
H656 C669 0.930 . S
H657 C673 0.959 . S
H658 C673 0.959 . S
H659 C673 0.961 . S
H660 C674 0.960 . S
H661 C674 0.961 . S
H662 C674 0.959 . S
H663 C677 0.929 . S
H664 C678 0.931 . S
H665 C680 0.930 . S
C666 H654 0.930 . S
C666 C667 1.399 1_565 S
C666 C671 1.399 . S
C667 C666 1.399 1_545 S
C667 C668 1.376 . S
C668 H655 0.930 . S
C668 C667 1.376 . S
C668 C669 1.388 . S
C669 H656 0.930 . S
C669 C668 1.388 . S
C669 C670 1.390 . S
C670 C669 1.390 . S
C670 C671 1.394 1_545 S
C670 C676 1.465 . S
C671 C666 1.399 . S
C671 C670 1.394 1_565 S
C671 C672 1.516 . S
C672 C671 1.516 . S
C672 C673 1.502 . S
C672 C674 1.561 . S
C672 C675 1.526 . S
C673 H657 0.959 . S
C673 H658 0.959 . S
C673 H659 0.961 . S
C673 C672 1.502 . S
C674 H660 0.960 . S
C674 H661 0.961 . S
C674 H662 0.959 . S
C674 C672 1.561 . S
C675 C672 1.526 . S
C675 C676 1.396 1_565 S
C675 C680 1.390 . S
C676 C670 1.465 . S
C676 C675 1.396 1_545 S
C676 C677 1.399 . S
C677 H663 0.929 . S
C677 C676 1.399 . S
C677 C678 1.385 . S
C678 H664 0.931 . S
C678 C677 1.385 . S
C678 C679 1.389 1_545 S
C679 C678 1.389 1_565 S
C679 C680 1.387 . S
C680 H665 0.930 . S
C680 C675 1.390 . S
C680 C679 1.387 . S
H681 C693 0.930 . S
H682 C695 0.930 . S
H683 C696 0.930 . S
H684 C700 0.959 . S
H685 C700 0.959 . S
H686 C700 0.961 . S
H687 C701 0.960 . S
H688 C701 0.961 . S
H689 C701 0.959 . S
H690 C704 0.929 . S
H691 C705 0.931 . S
H692 C707 0.930 . S
C693 H681 0.930 . S
C693 C694 1.399 . S
C693 C698 1.399 . S
C694 C693 1.399 . S
C694 C695 1.376 . S
C695 H682 0.930 . S
C695 C694 1.376 . S
C695 C696 1.388 . S
C696 H683 0.930 . S
C696 C695 1.388 . S
C696 C697 1.390 . S
C697 C696 1.390 . S
C697 C698 1.394 . S
C697 C703 1.465 . S
C698 C693 1.399 . S
C698 C697 1.394 . S
C698 C699 1.516 . S
C699 C698 1.516 . S
C699 C700 1.502 . S
C699 C701 1.561 . S
C699 C702 1.526 . S
C700 H684 0.959 . S
C700 H685 0.959 . S
C700 H686 0.961 . S
C700 C699 1.502 . S
C701 H687 0.960 . S
C701 H688 0.961 . S
C701 H689 0.959 . S
C701 C699 1.561 . S
C702 C699 1.526 . S
C702 C703 1.396 . S
C702 C707 1.390 . S
C703 C697 1.465 . S
C703 C702 1.396 . S
C703 C704 1.399 . S
C704 H690 0.929 . S
C704 C703 1.399 . S
C704 C705 1.385 . S
C705 H691 0.931 . S
C705 C704 1.385 . S
C705 C706 1.389 . S
C706 C705 1.389 . S
C706 C707 1.387 . S
C707 H692 0.930 . S
C707 C702 1.390 . S
C707 C706 1.387 . S
H708 C720 0.930 . S
H709 C722 0.930 . S
H710 C723 0.930 . S
H711 C727 0.959 . S
H712 C727 0.959 . S
H713 C727 0.961 . S
H714 C728 0.960 . S
H715 C728 0.961 . S
H716 C728 0.959 . S
H717 C731 0.929 . S
H718 C732 0.931 . S
H719 C734 0.930 . S
C720 H708 0.930 . S
C720 C721 1.399 . S
C720 C725 1.399 . S
C721 C720 1.399 . S
C721 C722 1.376 . S
C722 H709 0.930 . S
C722 C721 1.376 . S
C722 C723 1.388 . S
C723 H710 0.930 . S
C723 C722 1.388 . S
C723 C724 1.390 . S
C724 C723 1.390 . S
C724 C725 1.394 . S
C724 C730 1.465 1_455 S
C725 C720 1.399 . S
C725 C724 1.394 . S
C725 C726 1.516 . S
C726 C725 1.516 . S
C726 C727 1.502 1_455 S
C726 C728 1.561 . S
C726 C729 1.526 1_455 S
C727 H711 0.959 . S
C727 H712 0.959 . S
C727 H713 0.961 . S
C727 C726 1.502 1_655 S
C728 H714 0.960 . S
C728 H715 0.961 . S
C728 H716 0.959 . S
C728 C726 1.561 . S
C729 C726 1.526 1_655 S
C729 C730 1.396 . S
C729 C734 1.390 . S
C730 C724 1.465 1_655 S
C730 C729 1.396 . S
C730 C731 1.399 . S
C731 H717 0.929 . S
C731 C730 1.399 . S
C731 C732 1.385 . S
C732 H718 0.931 . S
C732 C731 1.385 . S
C732 C733 1.389 . S
C733 C732 1.389 . S
C733 C734 1.387 . S
C734 H719 0.930 . S
C734 C729 1.390 . S
C734 C733 1.387 . S
H735 C747 0.930 . S
H736 C749 0.930 . S
H737 C750 0.930 . S
H738 C754 0.959 . S
H739 C754 0.959 . S
H740 C754 0.961 . S
H741 C755 0.960 . S
H742 C755 0.961 . S
H743 C755 0.959 . S
H744 C758 0.929 . S
H745 C759 0.931 . S
H746 C761 0.930 . S
C747 H735 0.930 . S
C747 C748 1.399 1_545 S
C747 C752 1.399 . S
C748 C747 1.399 1_565 S
C748 C749 1.376 . S
C749 H736 0.930 . S
C749 C748 1.376 . S
C749 C750 1.388 . S
C750 H737 0.930 . S
C750 C749 1.388 . S
C750 C751 1.390 . S
C751 C750 1.390 . S
C751 C752 1.394 1_565 S
C751 C757 1.465 . S
C752 C747 1.399 . S
C752 C751 1.394 1_545 S
C752 C753 1.516 . S
C753 C752 1.516 . S
C753 C754 1.502 . S
C753 C755 1.561 . S
C753 C756 1.526 . S
C754 H738 0.959 . S
C754 H739 0.959 . S
C754 H740 0.961 . S
C754 C753 1.502 . S
C755 H741 0.960 . S
C755 H742 0.961 . S
C755 H743 0.959 . S
C755 C753 1.561 . S
C756 C753 1.526 . S
C756 C757 1.396 1_545 S
C756 C761 1.390 . S
C757 C751 1.465 . S
C757 C756 1.396 1_565 S
C757 C758 1.399 . S
C758 H744 0.929 . S
C758 C757 1.399 . S
C758 C759 1.385 . S
C759 H745 0.931 . S
C759 C758 1.385 . S
C759 C760 1.389 1_565 S
C760 C759 1.389 1_545 S
C760 C761 1.387 . S
C761 H746 0.930 . S
C761 C756 1.390 . S
C761 C760 1.387 . S
H762 C774 0.930 . S
H763 C776 0.930 . S
H764 C777 0.930 . S
H765 C781 0.959 . S
H766 C781 0.959 . S
H767 C781 0.961 . S
H768 C782 0.960 . S
H769 C782 0.961 . S
H770 C782 0.959 . S
H771 C785 0.929 . S
H772 C786 0.931 . S
H773 C788 0.930 . S
C774 H762 0.930 . S
C774 C775 1.399 . S
C774 C779 1.399 . S
C775 C774 1.399 . S
C775 C776 1.376 . S
C776 H763 0.930 . S
C776 C775 1.376 . S
C776 C777 1.388 . S
C777 H764 0.930 . S
C777 C776 1.388 . S
C777 C778 1.390 . S
C778 C777 1.390 . S
C778 C779 1.394 . S
C778 C784 1.465 . S
C779 C774 1.399 . S
C779 C778 1.394 . S
C779 C780 1.516 . S
C780 C779 1.516 . S
C780 C781 1.502 . S
C780 C782 1.561 . S
C780 C783 1.526 . S
C781 H765 0.959 . S
C781 H766 0.959 . S
C781 H767 0.961 . S
C781 C780 1.502 . S
C782 H768 0.960 . S
C782 H769 0.961 . S
C782 H770 0.959 . S
C782 C780 1.561 . S
C783 C780 1.526 . S
C783 C784 1.396 . S
C783 C788 1.390 . S
C784 C778 1.465 . S
C784 C783 1.396 . S
C784 C785 1.399 . S
C785 H771 0.929 . S
C785 C784 1.399 . S
C785 C786 1.385 . S
C786 H772 0.931 . S
C786 C785 1.385 . S
C786 C787 1.389 . S
C787 C786 1.389 . S
C787 C788 1.387 . S
C788 H773 0.930 . S
C788 C783 1.390 . S
C788 C787 1.387 . S
H789 C801 0.930 . S
H790 C803 0.930 . S
H791 C804 0.930 . S
H792 C808 0.959 . S
H793 C808 0.959 . S
H794 C808 0.961 . S
H795 C809 0.960 . S
H796 C809 0.961 . S
H797 C809 0.959 . S
H798 C812 0.929 . S
H799 C813 0.931 . S
H800 C815 0.930 . S
C801 H789 0.930 . S
C801 C802 1.399 1_455 S
C801 C806 1.399 . S
C802 C801 1.399 1_655 S
C802 C803 1.376 . S
C803 H790 0.930 . S
C803 C802 1.376 . S
C803 C804 1.388 . S
C804 H791 0.930 . S
C804 C803 1.388 . S
C804 C805 1.390 . S
C805 C804 1.390 . S
C805 C806 1.394 1_655 S
C805 C811 1.465 . S
C806 C801 1.399 . S
C806 C805 1.394 1_455 S
C806 C807 1.516 . S
C807 C806 1.516 . S
C807 C808 1.502 . S
C807 C809 1.561 . S
C807 C810 1.526 . S
C808 H792 0.959 . S
C808 H793 0.959 . S
C808 H794 0.961 . S
C808 C807 1.502 . S
C809 H795 0.960 . S
C809 H796 0.961 . S
C809 H797 0.959 . S
C809 C807 1.561 . S
C810 C807 1.526 . S
C810 C811 1.396 1_455 S
C810 C815 1.390 . S
C811 C805 1.465 . S
C811 C810 1.396 1_655 S
C811 C812 1.399 . S
C812 H798 0.929 . S
C812 C811 1.399 . S
C812 C813 1.385 . S
C813 H799 0.931 . S
C813 C812 1.385 . S
C813 C814 1.389 1_655 S
C814 C813 1.389 1_455 S
C814 C815 1.387 . S
C815 H800 0.930 . S
C815 C810 1.390 . S
C815 C814 1.387 . S
C181 C8 1.785 . S
C193 C120 1.774 . S
C208 C22 1.785 . S
C220 C134 1.770 . S
C235 C148 1.768 . S
C247 C36 1.783 . S
C262 C162 1.786 . S
C274 C50 1.772 . S
C289 C92 1.778 . S
C301 C64 1.769 . S
C316 C106 1.771 . S
C328 C78 1.786 . S
C343 C7 1.509 . S
C355 C49 1.549 . S
C370 C63 1.512 . S
C382 C21 1.547 . S
C397 C77 1.491 . S
C409 C35 1.492 . S
C424 C91 1.541 . S
C436 C133 1.522 . S
C451 C147 1.490 . S
C463 C105 1.555 . S
C478 C119 1.530 . S
C490 C161 1.469 . S
C505 C87 0.844 . S
C517 C3 0.913 . S
C532 C17 0.872 . S
C544 C101 0.868 . S
C559 C115 0.844 . S
C571 C31 0.897 . S
C586 C129 0.909 . S
C598 C45 0.836 . S
C613 C59 0.909 . S
C625 C143 0.835 . S
C640 C157 0.835 . S
C652 C73 0.907 . S
C667 C9 1.056 . S
C679 C107 0.973 . S
C694 C121 0.969 . S
C706 C23 1.066 . S
C721 C135 1.055 . S
C733 C37 1.040 . S
C748 C51 1.060 . S
C760 C149 0.972 . S
C775 C163 0.969 . S
C787 C65 1.067 . S
C802 C93 1.080 . S
C814 C79 0.973 . S
