# Generated by pormake.
# Topology gan, (5)-cn, num edge types: 1
# Building blocks:
#     Node 0, Type 0, BuildingBlock: XOMCOT_clean_sbu_1, # of connection points: 5
#     Node 1, Type 0, BuildingBlock: XOMCOT_clean_sbu_1, # of connection points: 5
#     Node 2, Type 0, BuildingBlock: XOMCOT_clean_sbu_1, # of connection points: 5
#     Node 3, Type 0, BuildingBlock: XOMCOT_clean_sbu_1, # of connection points: 5
#     Node 4, Type 0, BuildingBlock: XOMCOT_clean_sbu_1, # of connection points: 5
#     Node 5, Type 0, BuildingBlock: XOMCOT_clean_sbu_1, # of connection points: 5
#     Node 6, Type 0, BuildingBlock: XOMCOT_clean_sbu_1, # of connection points: 5
#     Node 7, Type 0, BuildingBlock: XOMCOT_clean_sbu_1, # of connection points: 5
#     Node 8, Type 0, BuildingBlock: XOMCOT_clean_sbu_1, # of connection points: 5
#     Node 9, Type 0, BuildingBlock: XOMCOT_clean_sbu_1, # of connection points: 5
#     Node 10, Type 0, BuildingBlock: XOMCOT_clean_sbu_1, # of connection points: 5
#     Node 11, Type 0, BuildingBlock: XOMCOT_clean_sbu_1, # of connection points: 5
#     Node 12, Type 0, BuildingBlock: XOMCOT_clean_sbu_1, # of connection points: 5
#     Node 13, Type 0, BuildingBlock: XOMCOT_clean_sbu_1, # of connection points: 5
#     Node 14, Type 0, BuildingBlock: XOMCOT_clean_sbu_1, # of connection points: 5
#     Node 15, Type 0, BuildingBlock: XOMCOT_clean_sbu_1, # of connection points: 5
#     Edge 16, Type (0, 0), BuildingBlock: EZIPEK_clean_linker_0, # of connection points: 2
#     Edge 17, Type (0, 0), BuildingBlock: EZIPEK_clean_linker_0, # of connection points: 2
#     Edge 18, Type (0, 0), BuildingBlock: EZIPEK_clean_linker_0, # of connection points: 2
#     Edge 19, Type (0, 0), BuildingBlock: EZIPEK_clean_linker_0, # of connection points: 2
#     Edge 20, Type (0, 0), BuildingBlock: EZIPEK_clean_linker_0, # of connection points: 2
#     Edge 21, Type (0, 0), BuildingBlock: EZIPEK_clean_linker_0, # of connection points: 2
#     Edge 22, Type (0, 0), BuildingBlock: EZIPEK_clean_linker_0, # of connection points: 2
#     Edge 23, Type (0, 0), BuildingBlock: EZIPEK_clean_linker_0, # of connection points: 2
#     Edge 24, Type (0, 0), BuildingBlock: EZIPEK_clean_linker_0, # of connection points: 2
#     Edge 25, Type (0, 0), BuildingBlock: EZIPEK_clean_linker_0, # of connection points: 2
#     Edge 26, Type (0, 0), BuildingBlock: EZIPEK_clean_linker_0, # of connection points: 2
#     Edge 27, Type (0, 0), BuildingBlock: EZIPEK_clean_linker_0, # of connection points: 2
#     Edge 28, Type (0, 0), BuildingBlock: EZIPEK_clean_linker_0, # of connection points: 2
#     Edge 29, Type (0, 0), BuildingBlock: EZIPEK_clean_linker_0, # of connection points: 2
#     Edge 30, Type (0, 0), BuildingBlock: EZIPEK_clean_linker_0, # of connection points: 2
#     Edge 31, Type (0, 0), BuildingBlock: EZIPEK_clean_linker_0, # of connection points: 2
#     Edge 32, Type (0, 0), BuildingBlock: EZIPEK_clean_linker_0, # of connection points: 2
#     Edge 33, Type (0, 0), BuildingBlock: EZIPEK_clean_linker_0, # of connection points: 2
#     Edge 34, Type (0, 0), BuildingBlock: EZIPEK_clean_linker_0, # of connection points: 2
#     Edge 35, Type (0, 0), BuildingBlock: EZIPEK_clean_linker_0, # of connection points: 2
#     Edge 36, Type (0, 0), BuildingBlock: EZIPEK_clean_linker_0, # of connection points: 2
#     Edge 37, Type (0, 0), BuildingBlock: EZIPEK_clean_linker_0, # of connection points: 2
#     Edge 38, Type (0, 0), BuildingBlock: EZIPEK_clean_linker_0, # of connection points: 2
#     Edge 39, Type (0, 0), BuildingBlock: EZIPEK_clean_linker_0, # of connection points: 2
#     Edge 40, Type (0, 0), BuildingBlock: EZIPEK_clean_linker_0, # of connection points: 2
#     Edge 41, Type (0, 0), BuildingBlock: EZIPEK_clean_linker_0, # of connection points: 2
#     Edge 42, Type (0, 0), BuildingBlock: EZIPEK_clean_linker_0, # of connection points: 2
#     Edge 43, Type (0, 0), BuildingBlock: EZIPEK_clean_linker_0, # of connection points: 2
#     Edge 44, Type (0, 0), BuildingBlock: EZIPEK_clean_linker_0, # of connection points: 2
#     Edge 45, Type (0, 0), BuildingBlock: EZIPEK_clean_linker_0, # of connection points: 2
#     Edge 46, Type (0, 0), BuildingBlock: EZIPEK_clean_linker_0, # of connection points: 2
#     Edge 47, Type (0, 0), BuildingBlock: EZIPEK_clean_linker_0, # of connection points: 2
#     Edge 48, Type (0, 0), BuildingBlock: EZIPEK_clean_linker_0, # of connection points: 2
#     Edge 49, Type (0, 0), BuildingBlock: EZIPEK_clean_linker_0, # of connection points: 2
#     Edge 50, Type (0, 0), BuildingBlock: EZIPEK_clean_linker_0, # of connection points: 2
#     Edge 51, Type (0, 0), BuildingBlock: EZIPEK_clean_linker_0, # of connection points: 2
#     Edge 52, Type (0, 0), BuildingBlock: EZIPEK_clean_linker_0, # of connection points: 2
#     Edge 53, Type (0, 0), BuildingBlock: EZIPEK_clean_linker_0, # of connection points: 2
#     Edge 54, Type (0, 0), BuildingBlock: EZIPEK_clean_linker_0, # of connection points: 2
#     Edge 55, Type (0, 0), BuildingBlock: EZIPEK_clean_linker_0, # of connection points: 2
# Relax obj value: 0.073
# Max RMSD: 0.108
# Mean RMSD: 0.095
data_MOF--net-gan--node1-XOMCOT_clean_sbu_1--edge1-EZIPEK_clean_linker_0
_symmetry_space_group_name_H-M    P1
_symmetry_Int_Tables_number       1
_symmetry_cell_setting            triclinic
loop_
_symmetry_equiv_pos_as_xyz
'x, y, z'
_cell_length_a     32.880736
_cell_length_b     32.571995
_cell_length_c     31.842929
_cell_angle_alpha  91.458856
_cell_angle_beta   90.831381
_cell_angle_gamma 91.001954
loop_
_atom_site_label
_atom_site_type_symbol
_atom_site_fract_x
_atom_site_fract_y
_atom_site_fract_z
_atom_type_partial_charge
C0 C 0.06346 0.18309 0.17721 0.0
C1 C 0.03471 0.16196 0.15313 0.0
N2 N 0.05288 0.1456 0.1192 0.0
N3 N 0.1002 0.18049 0.15907 0.0
C4 C 0.09278 0.1571 0.12356 0.0
H5 H 0.058 0.19808 0.20719 0.0
Co6 Co 0.14783 0.20067 0.18845 0.0
C7 C 0.20749 0.22551 0.12136 0.0
O8 O 0.23457 0.23622 0.15036 0.0
N9 N 0.19412 0.22064 0.22241 0.0
C10 C 0.23818 0.21963 0.27672 0.0
C11 C 0.21051 0.19724 0.25264 0.0
C12 C 0.21155 0.25852 0.23075 0.0
N13 N 0.23908 0.25819 0.26312 0.0
O14 O 0.1252 0.25403 0.19102 0.0
H15 H 0.20125 0.16615 0.25899 0.0
H16 H 0.20331 0.28598 0.21442 0.0
O17 O 0.17323 0.21127 0.13346 0.0
C18 C 0.11021 0.26465 0.22635 0.0
O19 O 0.11331 0.2387 0.25712 0.0
N20 N 0.16828 0.14782 0.18793 0.0
C21 C 0.20083 0.07463 0.21265 0.0
C22 C 0.22308 0.10029 0.18672 0.0
C23 C 0.20594 0.13695 0.17419 0.0
C24 C 0.14534 0.12154 0.21069 0.0
C25 C 0.16095 0.08444 0.22307 0.0
H26 H 0.2247 0.15788 0.1572 0.0
H27 H 0.11616 0.13094 0.22239 0.0
H28 H 0.11624 0.1473 0.10228 0.0
H29 H 1.00272 0.15852 0.16014 0.0
H30 H 0.25514 0.20887 0.30357 0.0
H31 H 0.25414 0.09335 0.17861 0.0
H32 H 0.14323 0.065 0.24331 0.0
C33 C 0.27117 0.86182 0.32519 0.0
C34 C 0.29789 0.84019 0.30068 0.0
N35 N 0.27672 0.81311 0.27599 0.0
N36 N 0.2326 0.84868 0.31703 0.0
C37 C 0.237 0.81914 0.28613 0.0
H38 H 0.27957 0.88587 0.34789 0.0
Co39 Co 0.18627 0.87211 0.34583 0.0
C40 C 0.23757 0.85446 0.42449 0.0
O41 O 0.26643 0.83021 0.41119 0.0
N42 N 0.14093 0.89685 0.37715 0.0
C43 C 0.09573 0.90246 0.42914 0.0
C44 C 0.1202 0.87629 0.40676 0.0
C45 C 0.1285 0.93659 0.38351 0.0
N46 N 0.10077 0.94064 0.41495 0.0
O47 O 0.20999 0.92404 0.34001 0.0
H48 H 0.12431 0.84434 0.41388 0.0
H49 H 0.14089 0.96243 0.36697 0.0
O50 O 0.21073 0.86752 0.39953 0.0
C51 C 0.19809 0.93566 0.3043 0.0
O52 O 0.17064 0.91299 0.28356 0.0
N53 N 0.16249 0.82026 0.34806 0.0
C54 C 0.12184 0.74522 0.34622 0.0
C55 C 0.16183 0.74822 0.3616 0.0
C56 C 0.18165 0.78643 0.36256 0.0
C57 C 0.12505 0.81684 0.32945 0.0
C58 C 0.10371 0.77971 0.32909 0.0
H59 H 0.21257 0.78855 0.37396 0.0
H60 H 0.1113 0.84349 0.31593 0.0
H61 H 0.21169 0.80225 0.27152 0.0
H62 H 0.33066 0.84416 0.30082 0.0
H63 H 0.07694 0.89433 0.45542 0.0
H64 H 0.17701 0.72163 0.37367 0.0
H65 H 0.07307 0.77799 0.31606 0.0
C66 C 0.35363 0.80874 0.67238 0.0
C67 C 0.33145 0.77891 0.69228 0.0
N68 N 0.3232 0.79235 0.73143 0.0
N69 N 0.36 0.84194 0.69809 0.0
C70 C 0.34125 0.83063 0.73445 0.0
H71 H 0.36328 0.80686 0.64009 0.0
Co72 Co 0.38472 0.89103 0.67356 0.0
C73 C 0.34909 0.95986 0.7261 0.0
O74 O 0.33625 0.9767 0.69155 0.0
N75 N 0.41009 0.93987 0.64543 0.0
C76 C 0.4155 0.99098 0.59917 0.0
C77 C 0.38944 0.96741 0.62227 0.0
C78 C 0.44983 0.94923 0.63574 0.0
N79 N 0.45372 0.97952 0.60692 0.0
O80 O 0.43624 0.87856 0.69824 0.0
H81 H 0.35679 0.96884 0.61913 0.0
H82 H 0.47553 0.93373 0.64885 0.0
O83 O 0.36853 0.92591 0.72388 0.0
C84 C 0.45413 0.85542 0.67138 0.0
O85 O 0.43554 0.84643 0.63546 0.0
N86 N 0.33641 0.89777 0.64472 0.0
C87 C 0.2725 0.88945 0.58778 0.0
C88 C 0.26463 0.89774 0.63027 0.0
C89 C 0.2975 0.90113 0.6588 0.0
C90 C 0.34378 0.88803 0.6038 0.0
C91 C 0.31246 0.88471 0.57469 0.0
H92 H 0.29167 0.90479 0.69189 0.0
H93 H 0.37451 0.88235 0.59384 0.0
H94 H 0.34042 0.84998 0.76242 0.0
H95 H 0.32141 0.7496 0.67866 0.0
H96 H 0.40678 1.01355 0.57649 0.0
H97 H 0.23372 0.90018 0.64123 0.0
H98 H 0.31928 0.87726 0.54218 0.0
C99 C 0.39351 0.15207 0.95889 0.0
C100 C 0.41902 0.13118 0.9852 0.0
N101 N 0.40681 0.0916 0.98591 0.0
N102 N 0.36456 0.12653 0.94196 0.0
C103 C 0.3735 0.08949 0.95944 0.0
H104 H 0.39577 0.18452 0.95281 0.0
Co105 Co 0.32443 0.1496 0.90311 0.0
C106 C 0.30304 0.05872 0.87418 0.0
O107 O 0.29174 0.04316 0.90983 0.0
N108 N 0.28398 0.17422 0.86469 0.0
C109 C 0.22437 0.17979 0.82994 0.0
C110 C 0.24782 0.15548 0.85535 0.0
C111 C 0.28094 0.21089 0.84433 0.0
N112 N 0.24496 0.21489 0.82281 0.0
O113 O 0.28281 0.14278 0.94473 0.0
H114 H 0.23863 0.12581 0.86681 0.0
H115 H 0.30418 0.23471 0.84543 0.0
O116 O 0.31455 0.09634 0.87462 0.0
C117 C 0.2808 0.17811 0.96308 0.0
O118 O 0.30274 0.20842 0.94818 0.0
N119 N 0.36625 0.15977 0.86614 0.0
C120 C 0.44416 0.18079 0.84236 0.0
C121 C 0.43045 0.14009 0.83784 0.0
C122 C 0.39116 0.13001 0.85045 0.0
C123 C 0.37845 0.19989 0.86752 0.0
C124 C 0.41723 0.2112 0.85514 0.0
H125 H 0.38312 0.09789 0.85222 0.0
H126 H 0.36019 0.22245 0.8835 0.0
H127 H 0.35591 0.06162 0.95342 0.0
H128 H 0.44448 0.14435 1.00315 0.0
H129 H 0.19416 0.17228 0.81777 0.0
H130 H 0.45118 0.11595 0.82905 0.0
H131 H 0.42758 0.24278 0.85989 0.0
C132 C 0.68589 0.30889 0.77625 0.0
C133 C 0.71054 0.28458 0.75191 0.0
N134 N 0.74948 0.2955 0.76001 0.0
N135 N 0.70857 0.33512 0.80097 0.0
C136 C 0.7476 0.32667 0.78939 0.0
H137 H 0.65305 0.30768 0.7753 0.0
Co138 Co 0.68407 0.37591 0.83888 0.0
C139 C 0.74894 0.34216 0.89854 0.0
O140 O 0.76274 0.31078 0.87674 0.0
N141 N 0.66009 0.4177 0.87708 0.0
C142 C 0.66294 0.47082 0.92372 0.0
C143 C 0.68501 0.44398 0.89938 0.0
C144 C 0.62208 0.43024 0.88897 0.0
N145 N 0.62321 0.46249 0.91735 0.0
O146 O 0.7201 0.41669 0.81981 0.0
H147 H 0.7178 0.44402 0.89795 0.0
H148 H 0.59392 0.41651 0.87722 0.0
O149 O 0.72084 0.36439 0.8842 0.0
C150 C 0.71296 0.42755 0.78248 0.0
O151 O 0.6888 0.40445 0.75821 0.0
N152 N 0.64667 0.33653 0.85521 0.0
C153 C 0.58872 0.2739 0.85552 0.0
C154 C 0.62775 0.26755 0.87176 0.0
C155 C 0.6564 0.29956 0.87151 0.0
C156 C 0.60881 0.34291 0.83911 0.0
C157 C 0.57897 0.31225 0.83983 0.0
H158 H 0.68703 0.29313 0.88065 0.0
H159 H 0.60271 0.37086 0.82275 0.0
H160 H 0.77409 0.34319 0.80197 0.0
H161 H 0.70059 0.26086 0.72943 0.0
H162 H 0.6752 0.49496 0.94448 0.0
H163 H 0.63632 0.23776 0.88301 0.0
H164 H 0.54924 0.31762 0.82613 0.0
C165 C 0.84116 0.30973 0.17055 0.0
C166 C 0.81682 0.28267 0.19151 0.0
N167 N 0.8218 0.28915 0.23314 0.0
N168 N 0.86153 0.33544 0.19782 0.0
C169 C 0.84932 0.32147 0.23626 0.0
H170 H 0.84405 0.3097 0.13686 0.0
Co171 Co 0.89908 0.37883 0.17715 0.0
C172 C 0.8674 0.45788 0.21066 0.0
O173 O 0.8758 0.47452 0.17458 0.0
N174 N 0.93777 0.42153 0.1558 0.0
C175 C 0.99061 0.46651 0.15849 0.0
C176 C 0.96525 0.44155 0.18135 0.0
C177 C 0.94742 0.43634 0.11689 0.0
N178 N 0.97963 0.46343 0.11767 0.0
O179 O 0.9388 0.36541 0.21816 0.0
H180 H 0.96728 0.43801 0.21497 0.0
H181 H 0.93176 0.42767 0.08796 0.0
O182 O 0.87425 0.41967 0.21574 0.0
C183 C 0.95967 0.33635 0.2025 0.0
O184 O 0.94602 0.31724 0.16814 0.0
N185 N 0.86297 0.38837 0.13383 0.0
C186 C 0.81544 0.38258 0.06161 0.0
C187 C 0.79896 0.39817 0.09906 0.0
C188 C 0.82346 0.40034 0.13548 0.0
C189 C 0.87843 0.37192 0.0979 0.0
C190 C 0.85559 0.36972 0.06115 0.0
H191 H 0.81017 0.4087 0.1652 0.0
H192 H 0.90856 0.35908 0.09835 0.0
H193 H 0.86097 0.33413 0.26588 0.0
H194 H 0.79785 0.25859 0.17702 0.0
H195 H 1.01536 0.48569 0.17103 0.0
H196 H 0.76732 0.40674 0.1004 0.0
H197 H 0.86854 0.35628 0.03299 0.0
C198 C 0.89141 0.65352 0.46171 0.0
C199 C 0.91417 0.63248 0.49038 0.0
N200 N 0.91127 0.59205 0.48102 0.0
N201 N 0.8733 0.62738 0.43334 0.0
C202 C 0.88632 0.58967 0.44607 0.0
H203 H 0.88935 0.68657 0.46074 0.0
Co204 Co 0.8459 0.65409 0.38639 0.0
C205 C 0.83005 0.59056 0.31895 0.0
O206 O 0.84129 0.61852 0.29247 0.0
N207 N 0.81958 0.68613 0.33988 0.0
C208 C 0.81559 0.72598 0.28303 0.0
C209 C 0.83992 0.70139 0.30666 0.0
C210 C 0.78178 0.70337 0.33481 0.0
N211 N 0.77881 0.7279 0.30038 0.0
O212 O 0.79591 0.65473 0.41719 0.0
H213 H 0.87088 0.69479 0.29857 0.0
H214 H 0.75703 0.69865 0.35622 0.0
O215 O 0.83015 0.59981 0.35849 0.0
C216 C 0.79137 0.68614 0.44143 0.0
O217 O 0.81745 0.71699 0.43944 0.0
N218 N 0.89627 0.65469 0.36055 0.0
C219 C 0.97921 0.65998 0.34728 0.0
C220 C 0.95902 0.62206 0.34328 0.0
C221 C 0.91738 0.61994 0.35063 0.0
C222 C 0.9159 0.69172 0.36485 0.0
C223 C 0.9573 0.69523 0.3574 0.0
H224 H 0.90337 0.5899 0.35207 0.0
H225 H 0.89948 0.71829 0.37589 0.0
H226 H 0.87898 0.56118 0.42958 0.0
H227 H 0.93207 0.64601 0.51615 0.0
H228 H 0.82447 0.74165 0.25491 0.0
H229 H 0.9757 0.59418 0.33727 0.0
H230 H 0.9726 0.72479 0.36187 0.0
C231 C 0.87332 0.86349 0.92903 0.0
C232 C 0.85072 0.83721 0.90289 0.0
N233 N 0.8272 0.85966 0.87779 0.0
N234 N 0.86528 0.90307 0.9204 0.0
C235 C 0.83589 0.8992 0.88972 0.0
H236 H 0.89474 0.85346 0.95218 0.0
Co237 Co 0.89226 0.95383 0.94139 0.0
C238 C 0.92068 0.9437 0.85349 0.0
O239 O 0.92718 0.9043 0.85738 0.0
N240 N 0.91854 1.00384 0.96074 0.0
C241 C 0.94857 0.06563 0.95823 0.0
C242 C 0.92459 0.03692 0.93673 0.0
C243 C 0.93858 1.01389 0.99744 0.0
N244 N 0.95745 0.05136 0.99653 0.0
O245 O 0.84295 0.9819 0.93264 0.0
H246 H 0.9129 0.03993 0.90507 0.0
H247 H 0.94009 0.99385 0.02398 0.0
O248 O 0.9086 0.96541 0.88458 0.0
C249 C 0.82611 0.97899 0.96808 0.0
O250 O 0.84659 0.96166 0.99845 0.0
N251 N 0.93933 0.92642 0.95516 0.0
C252 C 0.99982 0.87673 0.98479 0.0
C253 C 0.96502 0.88309 1.00848 0.0
C254 C 0.9352 0.9086 0.99315 0.0
C255 C 0.97587 0.9262 0.93549 0.0
C256 C 1.00645 0.90019 0.94916 0.0
H257 H 0.90714 0.91176 1.01006 0.0
H258 H 0.98122 0.94526 0.90899 0.0
H259 H 0.82144 0.92472 0.8755 0.0
H260 H 0.85207 0.80401 0.90184 0.0
H261 H 0.95867 0.09503 0.94669 0.0
H262 H 0.95947 0.86583 0.03653 0.0
H263 H 0.03387 0.89679 0.93104 0.0
C264 C 0.93935 0.18053 0.66848 0.0
C265 C 0.9164 0.20661 0.69305 0.0
N266 N 0.87894 0.20929 0.6757 0.0
N267 N 0.91702 0.16628 0.63515 0.0
C268 C 0.88033 0.18496 0.64024 0.0
H269 H 0.97028 0.1717 0.67512 0.0
Co270 Co 0.93715 0.12688 0.59333 0.0
C271 C 0.85206 0.09356 0.57168 0.0
O272 O 0.85675 0.0601 0.59312 0.0
N273 N 0.95828 0.08798 0.54983 0.0
C274 C 0.96193 0.0307 0.50925 0.0
C275 C 0.93835 0.05338 0.53603 0.0
C276 C 0.99516 0.08473 0.53016 0.0
N277 N 0.99799 0.04988 0.50535 0.0
O278 O 0.9487 0.17256 0.55886 0.0
H279 H 0.90921 0.04305 0.54638 0.0
H280 H 1.02001 0.10659 0.53504 0.0
O281 O 0.88092 0.12051 0.56922 0.0
C282 C 0.98356 0.1854 0.57224 0.0
O283 O 1.00443 0.16169 0.59708 0.0
N284 N 0.93017 0.08351 0.63158 0.0
C285 C 0.9314 0.02902 0.69783 0.0
C286 C 0.90203 0.05948 0.69572 0.0
C287 C 0.90131 0.08557 0.66202 0.0
C288 C 0.95986 0.05467 0.63405 0.0
C289 C 0.95971 0.02573 0.66564 0.0
H290 H 0.87744 0.10768 0.66094 0.0
H291 H 0.98491 0.05452 0.61259 0.0
H292 H 0.85485 0.18042 0.61875 0.0
H293 H 0.92608 0.22144 0.72241 0.0
H294 H 0.95367 1.00121 0.49478 0.0
H295 H 0.87956 0.06312 0.72005 0.0
H296 H 0.98289 1.00252 0.66624 0.0
C297 C 0.56571 0.1179 0.45432 0.0
C298 C 0.54029 0.09773 0.48125 0.0
N299 N 0.5587 0.06396 0.49474 0.0
N300 N 0.60143 0.09816 0.45052 0.0
C301 C 0.5954 0.06429 0.47488 0.0
H302 H 0.5576 0.14533 0.43828 0.0
Co303 Co 0.64683 0.11716 0.41467 0.0
C304 C 0.69074 0.09824 0.49644 0.0
O305 O 0.65854 0.10116 0.52009 0.0
N306 N 0.69162 0.1362 0.37915 0.0
C307 C 0.75597 0.14251 0.35767 0.0
C308 C 0.7288 0.11927 0.38 0.0
C309 C 0.69738 0.16989 0.35452 0.0
N310 N 0.73664 0.17458 0.34108 0.0
O311 O 0.64729 0.06316 0.3885 0.0
H312 H 0.73627 0.0919 0.3967 0.0
H313 H 0.67352 0.19116 0.3473 0.0
O314 O 0.68758 0.10251 0.45673 0.0
C315 C 0.61885 0.05798 0.36092 0.0
O316 O 0.59389 0.08836 0.35463 0.0
N317 N 0.64426 0.17036 0.43671 0.0
C318 C 0.6286 0.25033 0.46125 0.0
C319 C 0.66062 0.22971 0.48019 0.0
C320 C 0.66868 0.18962 0.46656 0.0
C321 C 0.61629 0.19195 0.41503 0.0
C322 C 0.60747 0.23191 0.42718 0.0
H323 H 0.69458 0.17478 0.47988 0.0
H324 H 0.59972 0.1773 0.38897 0.0
H325 H 0.61784 0.04071 0.47871 0.0
H326 H 0.51027 0.10732 0.49045 0.0
H327 H 0.78791 0.13609 0.35372 0.0
H328 H 0.67829 0.24399 0.50574 0.0
H329 H 0.58315 0.2477 0.41132 0.0
C330 C 0.68205 0.89293 0.16204 0.0
C331 C 0.70664 0.86683 0.18433 0.0
N332 N 0.6834 0.84359 0.20919 0.0
N333 N 0.64253 0.88655 0.17161 0.0
C334 C 0.64467 0.85648 0.20127 0.0
H335 H 0.69281 0.91575 0.14062 0.0
Co336 Co 0.59517 0.91761 0.15018 0.0
C337 C 0.57539 0.82844 0.12158 0.0
O338 O 0.61102 0.81467 0.13285 0.0
N339 N 0.54587 0.94723 0.12968 0.0
C340 C 0.47916 0.96187 0.12702 0.0
C341 C 0.50931 0.94092 0.14768 0.0
C342 C 0.53593 0.97249 0.09699 0.0
N343 N 0.49566 0.98216 0.09502 0.0
O344 O 0.57442 0.91705 0.207 0.0
H345 H 0.50433 0.9214 0.17412 0.0
H346 H 0.5571 0.98333 0.07406 0.0
O347 O 0.56713 0.86638 0.12844 0.0
C348 C 0.59207 0.95045 0.22097 0.0
O349 O 0.61082 0.97357 0.1939 0.0
N350 N 0.6206 0.92618 0.09898 0.0
C351 C 0.67553 0.95361 0.03993 0.0
C352 C 0.66644 0.91149 0.04287 0.0
C353 C 0.6383 0.89836 0.07264 0.0
C354 C 0.62907 0.96708 0.09559 0.0
C355 C 0.65435 0.98161 0.0647 0.0
H356 H 0.63444 0.8662 0.07756 0.0
H357 H 0.61702 0.98893 0.11799 0.0
H358 H 0.61817 0.84394 0.21651 0.0
H359 H 0.7394 0.86509 0.18238 0.0
H360 H 0.44728 0.96222 0.13503 0.0
H361 H 0.683 0.889 0.0246 0.0
H362 H 0.66095 1.01427 0.06348 0.0
C363 C 0.43118 0.66498 0.17415 0.0
C364 C 0.40933 0.68957 0.20113 0.0
N365 N 0.3797 0.70756 0.1791 0.0
N366 N 0.41522 0.66583 0.13486 0.0
C367 C 0.3849 0.69394 0.13868 0.0
H368 H 0.45681 0.64663 0.18284 0.0
Co369 Co 0.43632 0.6302 0.08996 0.0
C370 C 0.34329 0.62337 0.06952 0.0
O371 O 0.32894 0.63878 0.10462 0.0
N372 N 0.45838 0.59422 0.04525 0.0
C373 C 0.45954 0.542 0.99783 0.0
C374 C 0.4355 0.56576 1.02338 0.0
C375 C 0.49708 0.58628 0.03193 0.0
N376 N 0.49841 0.55451 1.00302 0.0
O377 O 0.44662 0.67806 0.05797 0.0
H378 H 0.40323 0.56062 0.02692 0.0
H379 H 0.52392 0.60213 0.04456 0.0
O380 O 0.38168 0.62076 0.06404 0.0
C381 C 0.48096 0.691 0.07274 0.0
O382 O 0.50044 0.66773 0.0992 0.0
N383 N 0.43065 0.58477 0.12421 0.0
C384 C 0.43707 0.53908 0.19596 0.0
C385 C 0.39962 0.55483 0.18391 0.0
C386 C 0.39703 0.57763 0.14771 0.0
C387 C 0.46661 0.56667 0.13392 0.0
C388 C 0.47035 0.54294 0.16952 0.0
H389 H 0.36962 0.59384 0.1424 0.0
H390 H 0.4937 0.57407 0.11672 0.0
H391 H 0.3665 0.70391 0.11255 0.0
H392 H 0.41439 0.69343 0.23469 0.0
H393 H 0.44935 0.51625 0.97798 0.0
H394 H 0.37353 0.55252 0.20418 0.0
H395 H 0.49977 0.53123 0.17849 0.0
C396 C 0.05793 0.6001 0.93395 0.0
C397 C 0.03345 0.57811 0.96036 0.0
N398 N 0.05689 0.55453 0.98451 0.0
N399 N 0.09741 0.5908 0.94022 0.0
C400 C 0.09573 0.56269 0.97165 0.0
H401 H 0.04753 0.62337 0.91292 0.0
Co402 Co 0.14058 0.62174 0.91195 0.0
C403 C 0.20225 0.60658 0.98208 0.0
O404 O 0.19239 0.63884 1.00476 0.0
N405 N 0.18497 0.65401 0.88425 0.0
C406 C 0.23813 0.69867 0.88509 0.0
C407 C 0.21263 0.67523 0.90868 0.0
C408 C 0.19498 0.66647 0.84456 0.0
N409 N 0.22743 0.69379 0.84455 0.0
O410 O 0.14544 0.57637 0.87169 0.0
H411 H 0.21326 0.676 0.94241 0.0
H412 H 0.17815 0.65678 0.81648 0.0
O413 O 0.18338 0.59744 0.94756 0.0
C414 C 0.11494 0.57531 0.84617 0.0
O415 O 0.08929 0.60573 0.84812 0.0
N416 N 0.13035 0.66726 0.94793 0.0
C417 C 0.09693 0.73605 0.98651 0.0
C418 C 0.10273 0.70048 1.00933 0.0
C419 C 0.11816 0.66576 0.98885 0.0
C420 C 0.1245 0.7021 0.92585 0.0
C421 C 0.10899 0.73705 0.94479 0.0
H422 H 0.11856 0.63731 1.00549 0.0
H423 H 0.12906 0.70222 0.89235 0.0
H424 H 0.12246 0.5501 0.98634 0.0
H425 H 1.00081 0.58076 0.96308 0.0
H426 H 0.26229 0.71895 0.89706 0.0
H427 H 0.09196 0.69843 0.0412 0.0
H428 H 0.10318 0.76362 0.92591 0.0
C429 C 0.17953 0.39477 0.67415 0.0
C430 C 0.20328 0.36932 0.69801 0.0
N431 N 0.17894 0.34342 0.71874 0.0
N432 N 0.13967 0.38516 0.67832 0.0
C433 C 0.14043 0.35419 0.70693 0.0
H434 H 0.19084 0.4192 0.65507 0.0
Co435 Co 0.09448 0.41466 0.65044 0.0
C436 C 0.07485 0.3237 0.6261 0.0
O437 O 0.11044 0.30959 0.6371 0.0
N438 N 0.04739 0.44294 0.62347 0.0
C439 C 0.98067 0.44954 0.60846 0.0
C440 C 1.00936 0.42876 0.63126 0.0
C441 C 0.03988 0.47376 0.59547 0.0
N442 N 0.99955 0.47812 0.58569 0.0
O443 O 0.06904 0.42065 0.70443 0.0
H444 H 1.0026 0.40426 0.65243 0.0
H445 H 0.06294 0.49302 0.58193 0.0
O446 O 0.06676 0.36184 0.63208 0.0
C447 C 0.09029 0.45229 0.71723 0.0
O448 O 0.11872 0.46655 0.69266 0.0
N449 N 0.12347 0.41733 0.60077 0.0
C450 C 0.17975 0.43675 0.54007 0.0
C451 C 0.17116 0.39568 0.54894 0.0
C452 C 0.14319 0.38665 0.58011 0.0
C453 C 0.13243 0.45731 0.59258 0.0
C454 C 0.15888 0.46779 0.56094 0.0
H455 H 0.14188 0.35609 0.59118 0.0
H456 H 0.12149 0.48147 0.61306 0.0
H457 H 0.11323 0.33931 0.71838 0.0
H458 H 0.23619 0.3698 0.69995 0.0
H459 H 0.94808 0.44428 0.60893 0.0
H460 H 0.18887 0.37123 0.53507 0.0
H461 H 0.16671 0.49982 0.55643 0.0
C462 C 0.59633 0.64449 0.68261 0.0
C463 C 0.5662 0.62149 0.66227 0.0
N464 N 0.56295 0.63402 0.62241 0.0
N465 N 0.61274 0.6715 0.65598 0.0
C466 C 0.59008 0.66578 0.62014 0.0
H467 H 0.60606 0.64145 0.71492 0.0
Co468 Co 0.65631 0.70781 0.6735 0.0
C469 C 0.68126 0.68715 0.58074 0.0
O470 O 0.65757 0.65477 0.57443 0.0
N471 N 0.69926 0.74441 0.69349 0.0
C472 C 0.76271 0.76742 0.70613 0.0
C473 C 0.7377 0.74467 0.67907 0.0
C474 C 0.70189 0.76812 0.72942 0.0
N475 N 0.74039 0.78206 0.73809 0.0
O476 O 0.62291 0.75265 0.65989 0.0
H477 H 0.7478 0.72729 0.652 0.0
H478 H 0.67682 0.77291 0.75043 0.0
O479 O 0.68178 0.7072 0.61613 0.0
C480 C 0.6009 0.76166 0.69141 0.0
O481 O 0.60851 0.74394 0.72722 0.0
N482 N 0.68684 0.66323 0.69099 0.0
C483 C 0.71577 0.59333 0.72819 0.0
C484 C 0.71081 0.59441 0.68467 0.0
C485 C 0.69551 0.62949 0.66674 0.0
C486 C 0.69368 0.66319 0.73335 0.0
C487 C 0.70872 0.62859 0.75269 0.0
H488 H 0.68771 0.62773 0.63415 0.0
H489 H 0.68409 0.6888 0.75271 0.0
H490 H 0.59362 0.68416 0.59257 0.0
H491 H 0.54903 0.59629 0.67529 0.0
H492 H 0.79529 0.77161 0.70341 0.0
H493 H 0.71467 0.56698 0.66525 0.0
H494 H 0.71088 0.62797 0.78665 0.0
C495 C 0.3908 0.35789 0.42268 0.0
C496 C 0.36834 0.33072 0.39721 0.0
N497 N 0.34841 0.35221 0.36808 0.0
N498 N 0.3854 0.39657 0.40965 0.0
C499 C 0.35927 0.39198 0.37621 0.0
H500 H 0.40882 0.35002 0.4499 0.0
Co501 Co 0.40436 0.44661 0.43687 0.0
C502 C 0.44539 0.48561 0.36677 0.0
O503 O 0.47853 0.49286 0.38946 0.0
N504 N 0.42255 0.49869 0.46415 0.0
C505 C 0.41763 0.55825 0.50043 0.0
C506 C 0.39717 0.52901 0.47612 0.0
C507 C 0.4594 0.51263 0.4798 0.0
N508 N 0.45693 0.54805 0.50311 0.0
O509 O 0.35053 0.46551 0.43459 0.0
H510 H 0.36497 0.52979 0.4693 0.0
H511 H 0.48763 0.49662 0.47565 0.0
O512 O 0.41455 0.46824 0.38263 0.0
C513 C 0.33392 0.44807 0.46541 0.0
O514 O 0.35596 0.42365 0.48846 0.0
N515 N 0.45591 0.42463 0.44352 0.0
C516 C 0.52404 0.38074 0.46585 0.0
C517 C 0.51314 0.3847 0.42348 0.0
C518 C 0.47869 0.40672 0.41291 0.0
C519 C 0.46581 0.42013 0.48489 0.0
C520 C 0.501 0.40016 0.49676 0.0
H521 H 0.46929 0.40731 0.38053 0.0
H522 H 0.44583 0.43185 0.50889 0.0
H523 H 0.34741 0.41743 0.35893 0.0
H524 H 0.3657 0.29781 0.40068 0.0
H525 H 0.40432 0.58464 0.51594 0.0
H526 H 0.52999 0.36921 0.39895 0.0
H527 H 0.50838 0.39705 0.52979 0.0
C528 C 0.24919 0.30955 0.32108 0.0
C529 C 0.26317 0.29114 0.28327 0.0
C530 C 0.33147 0.32141 0.29761 0.0
C531 C 0.31864 0.33559 0.33768 0.0
N532 N 0.26614 0.34274 0.38871 0.0
N533 N 0.31674 0.27923 0.23459 0.0
C534 C 0.27747 0.33006 0.34945 0.0
C535 C 0.30401 0.29769 0.27094 0.0
N536 N 0.20872 0.30666 0.32976 0.0
N537 N 0.37027 0.33027 0.28564 0.0
H538 H 0.29674 0.26288 0.21434 0.0
H539 H 0.34682 0.27891 0.22497 0.0
H540 H 0.39098 0.34613 0.30547 0.0
H541 H 0.38136 0.32403 0.25578 0.0
H542 H 0.19519 0.32149 0.35512 0.0
H543 H 0.18797 0.29152 0.30934 0.0
H544 H 0.23771 0.33679 0.40135 0.0
H545 H 0.28625 0.35795 0.40971 0.0
C546 C 0.06451 1.01318 0.501 0.0
C547 C 0.03137 0.03255 0.48082 0.0
C548 C 0.04966 0.99704 0.41388 0.0
C549 C 0.08227 0.97711 0.43425 0.0
N550 N 0.12685 0.97407 0.49423 0.0
N551 N 0.99819 0.05015 0.41651 0.0
C552 C 0.09167 0.98804 0.4769 0.0
C553 C 0.02616 0.02688 0.43659 0.0
N554 N 0.06849 1.01666 0.54365 0.0
N555 N 0.03961 0.98557 0.37349 0.0
H556 H 0.98106 0.07198 0.43266 0.0
H557 H 0.9945 0.05052 0.38401 0.0
H558 H 0.05645 0.96437 0.35626 0.0
H559 H 1.01359 0.99521 0.35787 0.0
H560 H 0.08892 0.99974 0.56116 0.0
H561 H 0.0495 0.03492 0.56188 0.0
H562 H 0.13779 0.9832 0.52392 0.0
H563 H 0.14704 0.95616 0.47697 0.0
C564 C 0.23348 0.75379 0.79665 0.0
C565 C 0.24836 0.71575 0.81107 0.0
C566 C 0.31456 0.73207 0.77795 0.0
C567 C 0.29899 0.76895 0.76149 0.0
N568 N 0.24138 0.81171 0.75002 0.0
N569 N 0.30154 0.66656 0.81145 0.0
C570 C 0.25776 0.77889 0.76952 0.0
C571 C 0.28853 0.70439 0.80029 0.0
N572 N 0.19657 0.76665 0.81031 0.0
N573 N 0.35494 0.72431 0.77323 0.0
H574 H 0.28299 0.64612 0.82755 0.0
H575 H 0.32899 0.6541 0.80212 0.0
H576 H 0.3745 0.74439 0.75791 0.0
H577 H 0.36981 0.7001 0.78713 0.0
H578 H 0.18543 0.79585 0.80523 0.0
H579 H 0.17804 0.74855 0.82901 0.0
H580 H 0.21059 0.81856 0.75069 0.0
H581 H 0.25838 0.83062 0.73069 0.0
C582 C 0.42601 0.06693 0.05712 0.0
C583 C 0.42553 0.06072 1.01274 0.0
C584 C 0.46998 1.00049 1.02258 0.0
C585 C 0.4738 1.00953 0.06655 0.0
N586 N 0.46081 0.05667 0.12386 0.0
N587 N 0.45193 0.02446 0.9528 0.0
C588 C 0.45308 0.04419 0.08323 0.0
C589 C 0.44879 0.02811 0.99539 0.0
N590 N 0.39964 0.09423 0.07445 0.0
N591 N 0.48532 0.96468 1.00697 0.0
H592 H 0.43672 0.0438 0.93247 0.0
H593 H 0.4717 1.00438 0.93787 0.0
H594 H 0.50026 0.94391 0.02593 0.0
H595 H 0.4803 0.95402 0.9762 0.0
H596 H 0.39537 0.09772 0.10668 0.0
H597 H 0.379 0.11039 0.05626 0.0
H598 H 0.44993 0.08384 0.13705 0.0
H599 H 0.48167 0.04199 0.14308 0.0
C600 C 0.31925 0.71581 0.22507 0.0
C601 C 0.34795 0.73319 0.1973 0.0
C602 C 0.31934 0.80142 0.21296 0.0
C603 C 0.29519 0.78501 0.24542 0.0
N604 N 0.27474 0.72626 0.28472 0.0
N605 N 0.37825 0.79341 0.16851 0.0
C606 C 0.29538 0.74194 0.25171 0.0
C607 C 0.34834 0.77625 0.19182 0.0
N608 N 0.31481 0.6741 0.22566 0.0
N609 N 0.31431 0.84136 0.2024 0.0
H610 H 0.40045 0.77564 0.15432 0.0
H611 H 0.38309 0.82496 0.16634 0.0
H612 H 0.29295 0.85996 0.21705 0.0
H613 H 0.32821 0.85464 0.17676 0.0
H614 H 0.29217 0.65909 0.24225 0.0
H615 H 0.33163 0.65467 0.20626 0.0
H616 H 0.27708 0.69597 0.294 0.0
H617 H 0.25734 0.74438 0.30474 0.0
C618 C 0.49714 0.97678 0.54297 0.0
C619 C 0.4889 0.99431 0.58331 0.0
C620 C 0.53736 0.0512 0.56839 0.0
C621 C 0.54148 0.03654 0.52619 0.0
N622 N 0.52551 0.98521 0.47308 0.0
N623 N 0.5008 0.04827 0.63458 0.0
C624 C 0.52195 0.99879 0.51372 0.0
C625 C 0.50951 0.03129 0.5962 0.0
N626 N 0.48051 0.93912 0.53263 0.0
N627 N 0.56037 0.08446 0.58162 0.0
H628 H 0.48173 0.03351 0.65559 0.0
H629 H 0.51093 0.07725 0.645 0.0
H630 H 0.58078 0.09906 0.56183 0.0
H631 H 0.56175 0.09561 0.61252 0.0
H632 H 0.48712 0.92245 0.50536 0.0
H633 H 0.46193 0.92319 0.55318 0.0
H634 H 0.50914 0.96041 0.4598 0.0
H635 H 0.54424 1.00012 0.45194 0.0
C636 C 0.21391 0.28466 0.81561 0.0
C637 C 0.23018 0.24849 0.79681 0.0
C638 C 0.20738 0.27301 0.72705 0.0
C639 C 0.19315 0.31021 0.74558 0.0
N640 N 0.18814 0.3539 0.80687 0.0
N641 N 0.24648 0.21034 0.73417 0.0
C642 C 0.19787 0.31658 0.78979 0.0
C643 C 0.22786 0.24333 0.75231 0.0
N644 N 0.21268 0.28785 0.85838 0.0
N645 N 0.20065 0.26594 0.68506 0.0
H646 H 0.2618 0.18876 0.75186 0.0
H647 H 0.2495 0.20582 0.70193 0.0
H648 H 0.18642 0.28725 0.66614 0.0
H649 H 0.20651 0.23827 0.66947 0.0
H650 H 0.1977 0.31107 0.87465 0.0
H651 H 0.22459 0.26544 0.87767 0.0
H652 H 0.19426 0.36273 0.83799 0.0
H653 H 0.17623 0.3772 0.78875 0.0
C654 C 0.99784 0.13938 0.06535 0.0
C655 C 0.03176 0.12192 0.08582 0.0
C656 C 1.01813 0.05732 0.04531 0.0
C657 C 0.98139 0.0735 0.02897 0.0
N658 N 0.93205 0.12709 0.03176 0.0
N659 N 0.06998 0.06144 0.10059 0.0
C660 C 0.97011 0.11379 0.04143 0.0
C661 C 0.04087 0.08005 0.0772 0.0
N662 N 0.99276 0.18086 0.0679 0.0
N663 N 0.03219 1.02109 0.02928 0.0
H664 H 0.08646 0.07685 0.12455 0.0
H665 H 0.0752 0.03 0.09867 0.0
H666 H 1.01699 1.00434 1.00536 0.0
H667 H 0.06066 1.00966 0.03702 0.0
H668 H 0.97062 0.19593 0.05069 0.0
H669 H 1.01359 0.20056 0.0836 0.0
H670 H 0.92073 0.15485 0.04313 0.0
H671 H 0.91026 0.10828 1.01636 0.0
C672 C 0.83072 0.21727 0.73525 0.0
C673 C 0.84429 0.22985 0.69523 0.0
C674 C 0.79557 0.28722 0.69884 0.0
C675 C 0.78443 0.27631 0.74009 0.0
N676 N 0.79292 0.23277 0.79893 0.0
N677 N 0.83943 0.27685 0.63858 0.0
C678 C 0.80268 0.24188 0.75866 0.0
C679 C 0.82642 0.2648 0.67687 0.0
N680 N 0.84309 0.18031 0.7497 0.0
N681 N 0.77562 0.31865 0.68039 0.0
H682 H 0.85883 0.25914 0.62046 0.0
H683 H 0.83188 0.30446 0.62502 0.0
H684 H 0.75459 0.3365 0.69653 0.0
H685 H 0.77847 0.32621 0.64903 0.0
H686 H 0.83219 0.16706 0.7768 0.0
H687 H 0.86163 0.16084 0.73224 0.0
H688 H 0.80764 0.2108 0.81646 0.0
H689 H 0.77159 0.24939 0.81593 0.0
C690 C 0.03837 0.48721 1.01712 0.0
C691 C 0.04171 0.53079 1.01989 0.0
C692 C 0.99974 0.52949 0.08405 0.0
C693 C 0.99879 0.48575 0.0832 0.0
N694 N 0.02293 0.42302 0.05182 0.0
N695 N 0.03159 0.59275 0.06036 0.0
C696 C 1.01968 0.46464 0.0504 0.0
C697 C 0.02414 0.5516 0.05479 0.0
N698 N 0.05184 0.46744 0.98182 0.0
N699 N 0.97562 0.55001 0.11177 0.0
H700 H 0.04978 0.60933 0.03995 0.0
H701 H 0.02318 0.60952 0.08702 0.0
H702 H 0.9563 0.53481 0.13218 0.0
H703 H 0.97164 0.58164 0.1117 0.0
H704 H 0.04659 0.43632 0.97521 0.0
H705 H 0.06607 0.48304 0.95771 0.0
H706 H 0.04116 0.40593 0.03171 0.0
H707 H 1.00966 0.40588 0.07533 0.0
C708 C 0.72929 0.74176 0.24237 0.0
C709 C 0.74559 0.75242 0.28293 0.0
C710 C 0.70986 0.81901 0.27875 0.0
C711 C 0.69865 0.81066 0.23596 0.0
N712 N 0.69874 0.76395 0.17659 0.0
N713 N 0.75295 0.80267 0.339 0.0
C714 C 0.70833 0.77169 0.2179 0.0
C715 C 0.7357 0.79129 0.30116 0.0
N716 N 0.73406 0.70253 0.22739 0.0
N717 N 0.69563 0.85366 0.29792 0.0
H718 H 0.77133 0.78304 0.35597 0.0
H719 H 0.75102 0.83202 0.35243 0.0
H720 H 0.67644 0.87349 0.28228 0.0
H721 H 0.69955 0.86068 0.3298 0.0
H722 H 0.72057 0.6909 0.19972 0.0
H723 H 0.7489 0.68048 0.24492 0.0
H724 H 0.70846 0.73835 0.15957 0.0
H725 H 0.6825 0.78462 0.15865 0.0
C726 C 0.96366 0.53651 0.48847 0.0
C727 C 0.93146 0.56018 0.50545 0.0
C728 C 0.9495 0.53438 0.57593 0.0
C729 C 0.97903 0.5077 0.55859 0.0
N730 N 1.00939 0.47892 0.49651 0.0
N731 N 0.88921 0.57507 0.56455 0.0
C732 C 0.98481 0.50762 0.51427 0.0
C733 C 0.92319 0.55704 0.54901 0.0
N734 N 0.97527 0.54283 0.44816 0.0
N735 N 0.94779 0.53947 0.61856 0.0
H736 H 0.86902 0.59079 0.5455 0.0
H737 H 0.87896 0.57092 0.59497 0.0
H738 H 0.96773 0.5249 0.63889 0.0
H739 H 0.92977 0.56125 0.63344 0.0
H740 H 1.00113 0.53004 0.43507 0.0
H741 H 0.96068 0.56353 0.42883 0.0
H742 H 1.01189 0.47427 0.46418 0.0
H743 H 0.02476 0.45746 0.51425 0.0
C744 C 0.57777 0.52332 0.9224 0.0
C745 C 0.5902 0.48478 0.93778 0.0
C746 C 0.54708 0.49644 1.00019 0.0
C747 C 0.5329 0.53381 0.98358 0.0
N748 N 0.53153 0.58107 0.92721 0.0
N749 N 0.58581 0.43355 0.99022 0.0
C750 C 0.5476 0.54678 0.94424 0.0
C751 C 0.57448 0.47111 0.97647 0.0
N752 N 0.59565 0.53776 0.88714 0.0
N753 N 0.53446 0.48568 0.03914 0.0
H754 H 0.60611 0.41514 0.97375 0.0
H755 H 0.5739 0.41955 1.01643 0.0
H756 H 0.5148 0.50383 0.05676 0.0
H757 H 0.54497 0.46049 0.05521 0.0
H758 H 0.5916 0.5672 0.87604 0.0
H759 H 0.61651 0.52063 0.87002 0.0
H760 H 0.53718 0.59047 0.89684 0.0
H761 H 0.51061 0.5992 0.94318 0.0
C762 C 0.75278 0.79043 0.8161 0.0
C763 C 0.75667 0.8052 0.77462 0.0
C764 C 0.80758 0.856 0.80132 0.0
C765 C 0.80114 0.84384 0.84329 0.0
N766 N 0.75952 0.80613 0.89091 0.0
N767 N 0.7795 0.85971 0.73076 0.0
C768 C 0.77103 0.81318 0.85071 0.0
C769 C 0.7813 0.84062 0.76837 0.0
N770 N 0.73423 0.75337 0.82242 0.0
N771 N 0.84073 0.87952 0.79209 0.0
H772 H 0.75957 0.84984 0.70661 0.0
H773 H 0.79431 0.88763 0.72551 0.0
H774 H 0.86246 0.88832 0.81468 0.0
H775 H 0.849 0.88605 0.76147 0.0
H776 H 0.73407 0.73939 0.85149 0.0
H777 H 0.72281 0.73463 0.79794 0.0
H778 H 0.73528 0.78665 0.89815 0.0
H779 H 0.77145 0.8232 0.91654 0.0
C780 C 0.78015 0.19124 0.27959 0.0
C781 C 0.756 0.20509 0.3137 0.0
C782 C 0.7761 0.27674 0.29564 0.0
C783 C 0.80362 0.26208 0.26466 0.0
N784 N 0.83904 0.20392 0.23648 0.0
N785 N 0.7377 0.26217 0.35878 0.0
C786 C 0.80775 0.21884 0.25969 0.0
C787 C 0.75578 0.24827 0.323 0.0
N788 N 0.77537 0.15178 0.26466 0.0
N789 N 0.76814 0.31765 0.29808 0.0
H790 H 0.72379 0.24251 0.37975 0.0
H791 H 0.73971 0.29265 0.36945 0.0
H792 H 0.78229 0.33883 0.27883 0.0
H793 H 0.74541 0.32992 0.3168 0.0
H794 H 0.7895 0.14081 0.23762 0.0
H795 H 0.75349 0.13165 0.2763 0.0
H796 H 0.84587 0.17281 0.2345 0.0
H797 H 0.86089 0.22319 0.22342 0.0
C798 C 0.49148 0.61298 0.52885 0.0
C799 C 0.48778 0.56937 0.52939 0.0
C800 C 0.54226 0.56978 0.58305 0.0
C801 C 0.53976 0.6131 0.58858 0.0
N802 N 0.50615 0.67536 0.56988 0.0
N803 N 0.50445 0.50736 0.56572 0.0
C804 C 0.51294 0.6347 0.56211 0.0
C805 C 0.51197 0.5479 0.55865 0.0
N806 N 0.47531 0.63361 0.49601 0.0
N807 N 0.57417 0.54951 0.60019 0.0
H808 H 0.48004 0.49098 0.55203 0.0
H809 H 0.51938 0.49153 0.58928 0.0
H810 H 0.59839 0.56489 0.61562 0.0
H811 H 0.57894 0.51833 0.59438 0.0
H812 H 0.47977 0.66507 0.49234 0.0
H813 H 0.4616 0.61841 0.47012 0.0
H814 H 0.48408 0.69161 0.55378 0.0
H815 H 0.51953 0.69165 0.59522 0.0
C816 C 0.22619 0.04488 0.2781 0.0
C817 C 0.2198 0.04033 0.23423 0.0
C818 C 0.22388 0.96643 0.23962 0.0
C819 C 0.21682 0.97095 0.28334 0.0
N820 N 0.21561 1.01511 0.34583 0.0
N821 N 0.21688 0.99741 0.17163 0.0
C822 C 0.22054 1.01024 0.30349 0.0
C823 C 0.22108 1.00128 0.21427 0.0
N824 N 0.2363 0.08263 0.29511 0.0
N825 N 0.23269 0.92875 0.22269 0.0
H826 H 0.21588 1.02277 0.15232 0.0
H827 H 0.21268 0.96924 0.1558 0.0
H828 H 0.23594 0.90304 0.24129 0.0
H829 H 0.24089 0.92405 0.19148 0.0
H830 H 0.24422 0.08765 0.32663 0.0
H831 H 0.24103 0.10801 0.27631 0.0
H832 H 0.21254 0.04369 0.36076 0.0
H833 H 0.21291 0.99082 0.36619 0.0
C834 C 0.22723 0.83283 0.49834 0.0
C835 C 0.23367 0.86474 0.46953 0.0
C836 C 0.23515 0.91523 0.52765 0.0
C837 C 0.24055 0.8828 0.55541 0.0
N838 N 0.23447 0.8114 0.57059 0.0
N839 N 0.2403 0.9374 0.45592 0.0
C840 C 0.23282 0.84176 0.54187 0.0
C841 C 0.23535 0.90651 0.4838 0.0
N842 N 0.21562 0.79443 0.48403 0.0
N843 N 0.23259 0.95429 0.54375 0.0
H844 H 0.24201 0.93232 0.42357 0.0
H845 H 0.2454 0.96802 0.4649 0.0
H846 H 0.23342 0.96022 0.57615 0.0
H847 H 0.22596 0.97963 0.52575 0.0
H848 H 0.20743 0.7707 0.50366 0.0
H849 H 0.21079 0.78728 0.45222 0.0
H850 H 0.23424 0.78018 0.5627 0.0
H851 H 0.23728 0.81814 0.60276 0.0
C852 C 0.34885 0.02451 0.77005 0.0
C853 C 0.33981 0.98189 0.76686 0.0
C854 C 0.30141 0.98842 0.83302 0.0
C855 C 0.3092 0.03191 0.83468 0.0
N856 N 0.32087 0.08967 0.78953 0.0
N857 N 0.29831 0.92554 0.79023 0.0
C858 C 0.32737 0.04962 0.79886 0.0
C859 C 0.31395 0.96424 0.79725 0.0
N860 N 0.37768 0.04149 0.74504 0.0
N861 N 0.28001 0.97004 0.86397 0.0
H862 H 0.30509 0.90795 0.76367 0.0
H863 H 0.27578 0.91231 0.80843 0.0
H864 H 0.26017 0.9858 0.88345 0.0
H865 H 0.28058 0.93853 0.86882 0.0
H866 H 0.38739 0.07206 0.7487 0.0
H867 H 0.39476 1.02397 0.72405 0.0
H868 H 0.33173 0.10294 0.76233 0.0
H869 H 0.29922 0.10728 0.80484 0.0
C870 C 0.21671 0.1833 1.00691 0.0
C871 C 0.25977 0.18587 1.00375 0.0
C872 C 0.26282 0.22874 0.06785 0.0
C873 C 0.22158 0.21944 0.07648 0.0
N874 N 0.15633 0.19626 0.04821 0.0
N875 N 0.32423 0.2035 0.03729 0.0
C876 C 0.19753 0.19882 0.04431 0.0
C877 C 0.28284 0.20609 0.03625 0.0
N878 N 0.19419 0.16816 0.97339 0.0
N879 N 0.28226 0.26142 0.08751 0.0
H880 H 0.34002 0.18547 1.01574 0.0
H881 H 0.34201 0.21533 0.06232 0.0
H882 H 0.26679 0.28268 0.10612 0.0
H883 H 0.3117 0.27083 0.08003 0.0
H884 H 0.16262 0.16881 0.97144 0.0
H885 H 0.20741 0.15629 0.94621 0.0
H886 H 0.13756 0.17673 0.02989 0.0
H887 H 0.14064 0.21522 0.06897 0.0
C888 C 0.05295 0.30147 0.26287 0.0
C889 C 0.08031 0.2987 0.22894 0.0
C890 C 0.03377 0.33705 0.18521 0.0
C891 C 1.00269 0.33061 0.21526 0.0
N892 N 0.98297 0.30973 0.28429 0.0
N893 N 0.10583 0.33405 0.16952 0.0
C894 C 1.01257 0.31471 0.2551 0.0
C895 C 0.0736 0.32302 0.19361 0.0
N896 N 0.06635 0.29365 0.30258 0.0
N897 N 0.02476 0.35479 0.14788 0.0
H898 H 0.13561 0.32661 0.17778 0.0
H899 H 0.10396 0.35436 0.14488 0.0
H900 H 0.99663 0.3675 0.14137 0.0
H901 H 0.04449 0.35533 0.12264 0.0
H902 H 0.04869 0.29771 0.32919 0.0
H903 H 0.097 0.28868 0.30929 0.0
H904 H 0.98725 0.29371 0.31184 0.0
H905 H 0.9533 0.31973 0.27984 0.0
C906 C 0.54491 0.22644 0.81112 0.0
C907 C 0.55845 0.23998 0.8518 0.0
C908 C 0.50713 0.19619 0.88327 0.0
C909 C 0.48792 0.19121 0.84336 0.0
N910 N 0.4885 0.19889 0.76853 0.0
N911 N 0.55185 0.23887 0.92731 0.0
C912 C 0.50719 0.20487 0.80682 0.0
C913 C 0.54006 0.22446 0.88823 0.0
N914 N 0.56815 0.23437 0.77694 0.0
N915 N 0.49311 0.17453 0.91642 0.0
H916 H 0.57549 0.26021 0.93246 0.0
H917 H 0.53616 0.23204 0.95451 0.0
H918 H 0.46924 0.15316 0.91314 0.0
H919 H 0.50781 0.17442 0.94562 0.0
H920 H 0.56142 0.22264 0.74687 0.0
H921 H 0.59636 0.2495 0.77953 0.0
H922 H 0.49867 0.21232 0.74118 0.0
H923 H 0.46159 0.18165 0.76464 0.0
C924 C 0.04414 0.66926 0.30868 0.0
C925 C 0.02391 0.66319 0.34693 0.0
C926 C 0.07957 0.6961 0.38694 0.0
C927 C 0.09736 0.70694 0.34833 0.0
N928 N 0.10616 0.69185 0.27488 0.0
N929 N 0.02826 0.65511 0.42159 0.0
C930 C 0.08305 0.68872 0.30996 0.0
C931 C 0.04417 0.67075 0.38584 0.0
N932 N 0.02492 0.65914 0.27146 0.0
N933 N 0.09403 0.71298 0.42406 0.0
H934 H 1.00185 0.63682 0.421 0.0
H935 H 0.0431 0.65689 0.4507 0.0
H936 H 0.12024 0.73133 0.42638 0.0
H937 H 0.07901 0.71034 0.45245 0.0
H938 H 0.0361 0.66699 0.24226 0.0
H939 H 0.99679 0.6438 0.27007 0.0
H940 H 0.09878 0.67724 0.24625 0.0
H941 H 0.13477 0.70634 0.27587 0.0
C942 C 0.52713 0.77455 0.70643 0.0
C943 C 0.56405 0.78719 0.68732 0.0
C944 C 0.52808 0.8438 0.65553 0.0
C945 C 0.4933 0.83522 0.68024 0.0
N946 N 0.46225 0.79491 0.73424 0.0
N947 N 0.6013 0.84031 0.65183 0.0
C948 C 0.49394 0.80184 0.7079 0.0
C949 C 0.56512 0.82386 0.66441 0.0
N950 N 0.52222 0.73526 0.71988 0.0
N951 N 0.52563 0.86919 0.62217 0.0
H952 H 0.62932 0.82759 0.65918 0.0
H953 H 0.60358 0.86901 0.6382 0.0
H954 H 0.49857 0.88195 0.61207 0.0
H955 H 0.54948 0.87338 0.6014 0.0
H956 H 0.49458 0.7236 0.73042 0.0
H957 H 0.54379 0.7126 0.71528 0.0
H958 H 0.46329 0.77324 0.75776 0.0
H959 H 0.43641 0.81295 0.73507 0.0
C960 C 0.96668 0.9973 0.76048 0.0
C961 C 0.93162 1.00139 0.73424 0.0
C962 C 0.88978 0.9722 0.78836 0.0
C963 C 0.92497 0.96277 0.81215 0.0
N964 N 0.99821 0.95757 0.81481 0.0
N965 N 0.86286 0.97799 0.71813 0.0
C966 C 0.96395 0.97201 0.79606 0.0
C967 C 0.89424 0.98353 0.74636 0.0
N968 N 1.00143 1.01961 0.7538 0.0
N969 N 0.85237 0.97303 0.80611 0.0
H970 H 0.86581 0.98455 0.68638 0.0
H971 H 0.83588 0.96267 0.72557 0.0
H972 H 0.84861 0.97056 0.83821 0.0
H973 H 0.82638 0.98212 0.7899 0.0
H974 H 0.02617 1.02005 0.77466 0.0
H975 H 1.00403 0.04113 0.73032 0.0
H976 H 0.02702 0.96112 0.80197 0.0
H977 H 0.9973 0.9385 0.84053 0.0
C978 C 0.78 0.11739 0.57324 0.0
C979 C 0.81214 0.09916 0.55074 0.0
C980 C 0.76329 0.07451 0.49672 0.0
C981 C 0.73219 0.09775 0.51609 0.0
N982 N 0.71593 0.15149 0.56739 0.0
N983 N 0.83566 0.06781 0.48642 0.0
C984 C 0.74182 0.12217 0.55284 0.0
C985 C 0.80421 0.08022 0.51088 0.0
N986 N 0.78524 0.12901 0.6145 0.0
N987 N 0.75371 0.0453 0.46646 0.0
H988 H 0.86596 0.07289 0.49539 0.0
H989 H 0.83162 0.0569 0.45556 0.0
H990 H 0.72384 0.038 0.4572 0.0
H991 H 0.77499 0.02517 0.45407 0.0
H992 H 0.76136 0.13885 0.63322 0.0
H993 H 0.81234 0.12483 0.63106 0.0
H994 H 0.72393 0.17219 0.59176 0.0
H995 H 0.68882 0.15881 0.55236 0.0
C996 C 0.57412 1.00226 0.32737 0.0
C997 C 0.61384 1.0198 0.33401 0.0
C998 C 0.63903 0.97306 0.27928 0.0
C999 C 0.59846 0.96274 0.26628 0.0
N1000 N 0.52679 0.96664 0.27886 0.0
N1001 N 0.68427 1.02325 0.31312 0.0
C1002 C 0.56579 0.97631 0.29119 0.0
C1003 C 0.64661 1.00484 0.30991 0.0
N1004 N 0.54444 1.01049 0.35578 0.0
N1005 N 0.67061 0.95319 0.26103 0.0
H1006 H 0.69167 0.0472 0.33418 0.0
H1007 H 0.70763 1.01711 0.29225 0.0
H1008 H 0.66584 0.93048 0.23798 0.0
H1009 H 0.70062 0.95596 0.27183 0.0
H1010 H 0.5159 0.99608 0.35487 0.0
H1011 H 0.54984 0.02891 0.38264 0.0
H1012 H 0.50135 0.97974 0.29251 0.0
H1013 H 0.52009 0.94661 0.25354 0.0
C1014 C 0.74407 0.98838 0.04008 0.0
C1015 C 0.71168 0.96841 1.01699 0.0
C1016 C 0.75089 0.97374 0.95231 0.0
C1017 C 0.78371 0.99078 0.97667 0.0
N1018 N 0.8043 0.03193 0.03678 0.0
N1019 N 0.67963 0.952 0.94992 0.0
C1020 C 0.77712 1.00486 1.01803 0.0
C1021 C 0.71354 0.96425 0.97252 0.0
N1022 N 0.74527 0.98846 0.08303 0.0
N1023 N 0.75577 0.96612 0.91043 0.0
H1024 H 0.65192 0.94537 0.96406 0.0
H1025 H 0.67797 0.95118 0.91726 0.0
H1026 H 0.78016 0.97861 0.89427 0.0
H1027 H 0.73556 0.94844 0.89179 0.0
H1028 H 0.77023 0.99948 0.10073 0.0
H1029 H 0.72367 0.97348 0.10101 0.0
H1030 H 0.79972 0.04564 0.06623 0.0
H1031 H 0.82917 0.04356 1.02048 0.0
C1032 C 0.08811 0.80816 1.01271 0.0
C1033 C 0.07058 0.76931 1.00144 0.0
C1034 C 1.00723 0.80095 0.98097 0.0
C1035 C 0.02426 0.84005 0.99247 0.0
N1036 N 0.07726 0.8808 0.02705 0.0
N1037 N 1.01033 0.72747 0.98809 0.0
C1038 C 0.06359 0.84366 1.01113 0.0
C1039 C 0.02884 0.76536 0.99071 0.0
N1040 N 0.12852 0.81099 1.02308 0.0
N1041 N 0.97194 0.79784 0.95777 0.0
H1042 H 0.02552 0.70045 0.99432 0.0
H1043 H 0.97901 0.72326 0.9841 0.0
H1044 H 0.95646 0.82328 0.94722 0.0
H1045 H 0.96047 0.77021 0.94487 0.0
H1046 H 0.1445 0.83873 0.02699 0.0
H1047 H 0.14633 0.785 0.02632 0.0
H1048 H 0.10431 0.88476 0.04419 0.0
H1049 H 0.05996 0.90731 0.02563 0.0
C1050 C 0.54021 0.73516 0.05553 0.0
C1051 C 0.49864 0.73253 0.06571 0.0
C1052 C 0.50413 0.79851 0.10418 0.0
C1053 C 0.54689 0.79975 0.09714 0.0
N1054 N 0.60068 0.77771 0.05085 0.0
N1055 N 0.43845 0.77013 0.08103 0.0
C1056 C 0.56339 0.77079 0.06784 0.0
C1057 C 0.47967 0.76723 0.08355 0.0
N1058 N 0.55783 0.70265 0.03537 0.0
N1059 N 0.48702 0.82455 0.13289 0.0
H1060 H 0.42029 0.74758 0.06588 0.0
H1061 H 0.42339 0.79709 0.08888 0.0
H1062 H 0.50352 0.84598 0.15123 0.0
H1063 H 0.45662 0.82233 0.1413 0.0
H1064 H 0.58914 0.69984 0.03212 0.0
H1065 H 0.54066 0.67765 1.02332 0.0
H1066 H 0.61253 0.7595 0.02678 0.0
H1067 H 0.61782 0.80425 0.0572 0.0
C1068 C 0.9802 0.25905 0.59464 0.0
C1069 C 0.9983 0.22854 0.56906 0.0
C1070 C 0.06027 0.27103 0.56793 0.0
C1071 C 0.04593 0.29525 0.60245 0.0
N1072 N 0.99136 0.31006 0.65032 0.0
N1073 N 0.05497 0.20646 0.52832 0.0
C1074 C 1.00528 0.28933 0.61575 0.0
C1075 C 0.03804 0.23524 0.5543 0.0
N1076 N 0.93911 0.25904 0.59886 0.0
N1077 N 0.09442 0.28282 0.54735 0.0
H1078 H 0.03812 0.1815 0.5157 0.0
H1079 H 0.08571 0.20653 0.5208 0.0
H1080 H 0.10964 0.31027 0.55449 0.0
H1081 H 0.10451 0.26822 0.52005 0.0
H1082 H 0.9242 0.2829 0.61422 0.0
H1083 H 0.92022 0.23818 0.58219 0.0
H1084 H 0.9634 0.30337 0.66382 0.0
H1085 H 1.00911 0.33124 0.66785 0.0
C1086 C 0.59669 0.35974 0.4628 0.0
C1087 C 0.55669 0.35229 0.47732 0.0
C1088 C 0.5776 0.28588 0.50299 0.0
C1089 C 0.61297 0.28906 0.47875 0.0
N1090 N 0.65908 0.32915 0.43802 0.0
N1091 N 0.50771 0.30579 0.5084 0.0
C1092 C 0.62393 0.32649 0.46017 0.0
C1093 C 0.5469 0.31517 0.49781 0.0
N1094 N 0.60806 0.39824 0.45103 0.0
N1095 N 0.57252 0.25339 0.52878 0.0
H1096 H 0.48322 0.32481 0.50283 0.0
H1097 H 0.49871 0.27713 0.51912 0.0
H1098 H 0.59471 0.23114 0.53216 0.0
H1099 H 0.5486 0.25104 0.54975 0.0
H1100 H 0.63767 0.40623 0.44291 0.0
H1101 H 0.58848 0.42308 0.45313 0.0
H1102 H 0.66665 0.35395 0.41948 0.0
H1103 H 0.68 0.3054 0.43723 0.0
C1104 C 0.75332 0.49036 0.76393 0.0
C1105 C 0.71564 0.47146 0.77375 0.0
C1106 C 0.67908 0.53362 0.75731 0.0
C1107 C 0.71673 0.55298 0.74787 0.0
N1108 N 0.7899 0.55356 0.74809 0.0
N1109 N 0.64439 0.47745 0.7903 0.0
C1110 C 0.75406 0.53252 0.7532 0.0
C1111 C 0.67909 0.4939 0.77382 0.0
N1112 N 0.78784 0.46757 0.76344 0.0
N1113 N 0.6431 0.55232 0.74843 0.0
H1114 H 0.64257 0.44795 0.80206 0.0
H1115 H 0.61819 0.49418 0.79563 0.0
H1116 H 0.64126 0.58199 0.73726 0.0
H1117 H 0.61488 0.53734 0.74904 0.0
H1118 H 0.81568 0.47819 0.75254 0.0
H1119 H 0.78811 0.43688 0.7721 0.0
H1120 H 0.81835 0.54165 0.75476 0.0
H1121 H 0.79098 0.58437 0.73986 0.0
C1122 C 0.75812 0.3249 0.97438 0.0
C1123 C 0.76507 0.35222 0.94107 0.0
C1124 C 0.79338 0.40407 0.99083 0.0
C1125 C 0.79079 0.37514 1.02305 0.0
N1126 N 0.77332 0.30737 0.0464 0.0
N1127 N 0.79448 0.41525 0.91597 0.0
C1128 C 0.77349 0.33547 1.01518 0.0
C1129 C 0.78381 0.39132 0.94889 0.0
N1130 N 0.73601 0.28941 0.96734 0.0
N1131 N 0.80515 0.44367 1.00053 0.0
H1132 H 0.78901 0.4064 0.88465 0.0
H1133 H 0.81184 0.44219 0.91935 0.0
H1134 H 0.8125 0.45363 0.03117 0.0
H1135 H 0.80399 0.46735 0.97921 0.0
H1136 H 0.72551 0.27096 0.99124 0.0
H1137 H 0.72591 0.27943 0.93764 0.0
H1138 H 0.76635 0.27632 0.04137 0.0
H1139 H 0.78221 0.31474 0.0773 0.0
C1140 C 0.81518 0.50928 0.23394 0.0
C1141 C 0.84871 0.48414 0.24439 0.0
C1142 C 0.84976 0.51598 0.31535 0.0
C1143 C 0.82472 0.5477 0.30099 0.0
N1144 N 0.77737 0.57128 0.24931 0.0
N1145 N 0.8991 0.46483 0.29622 0.0
C1146 C 0.80495 0.54276 0.26128 0.0
C1147 C 0.86586 0.48719 0.28574 0.0
N1148 N 0.79286 0.50085 0.19814 0.0
N1149 N 0.85723 0.51278 0.35726 0.0
H1150 H 0.9127 0.44408 0.27564 0.0
H1151 H 0.91524 0.4695 0.32439 0.0
H1152 H 0.84149 0.53052 0.37905 0.0
H1153 H 0.8735 0.48887 0.37014 0.0
H1154 H 0.76594 0.51547 0.19058 0.0
H1155 H 0.79925 0.47658 0.17758 0.0
H1156 H 0.76572 0.57335 0.21889 0.0
H1157 H 0.76706 0.59391 0.27022 0.0
C1158 C 0.74771 0.66988 0.54935 0.0
C1159 C 0.71265 0.69438 0.54856 0.0
C1160 C 0.7299 0.71558 0.47734 0.0
C1161 C 0.76153 0.68629 0.47621 0.0
N1162 N 0.79508 0.62977 0.50931 0.0
N1163 N 0.66798 0.73856 0.51089 0.0
C1164 C 0.76876 0.66166 0.51161 0.0
C1165 C 0.70312 0.71686 0.51228 0.0
N1166 N 0.76164 0.65528 0.58657 0.0
N1167 N 0.72546 0.74215 0.44515 0.0
H1168 H 0.64902 0.74165 0.53675 0.0
H1169 H 0.6567 0.75171 0.48372 0.0
H1170 H 0.74314 0.74079 0.41825 0.0
H1171 H 0.70594 0.76697 0.44617 0.0
H1172 H 0.78913 0.64015 0.58983 0.0
H1173 H 0.74835 0.66319 0.61501 0.0
H1174 H 0.79769 0.60817 0.53273 0.0
H1175 H 0.81083 0.622 0.48233 0.0
C1176 C 0.45616 0.55155 0.27137 0.0
C1177 C 0.44222 0.52389 0.23889 0.0
C1178 C 0.43282 0.46983 0.28974 0.0
C1179 C 0.44343 0.4986 0.32272 0.0
N1180 N 0.45569 0.56904 0.34559 0.0
N1181 N 0.41243 0.45868 0.21682 0.0
C1182 C 0.4527 0.54006 0.31374 0.0
C1183 C 0.42914 0.48357 0.24798 0.0
N1184 N 0.47281 0.58884 0.26179 0.0
N1185 N 0.42776 0.4291 0.2978 0.0
H1186 H 0.41131 0.4669 0.18537 0.0
H1187 H 0.39732 0.43103 0.22243 0.0
H1188 H 0.42835 0.41748 0.3278 0.0
H1189 H 0.42583 0.40626 0.27435 0.0
H1190 H 0.48758 0.60822 0.28386 0.0
H1191 H 0.4752 0.59894 0.23119 0.0
H1192 H 0.45795 0.60045 0.34054 0.0
H1193 H 0.4515 0.56232 0.3771 0.0
C1194 C 0.27644 0.60326 0.97223 0.0
C1195 C 0.24169 0.58823 0.99289 0.0
C1196 C 0.28359 0.57648 0.05505 0.0
C1197 C 0.31378 0.60348 0.03922 0.0
N1198 N 0.34074 0.64024 0.9804 0.0
N1199 N 0.21276 0.55407 0.05134 0.0
C1200 C 0.31144 0.61528 0.99663 0.0
C1201 C 0.24584 0.57176 0.03319 0.0
N1202 N 0.27533 0.60681 0.92969 0.0
N1203 N 0.29119 0.55559 0.09084 0.0
H1204 H 0.18546 0.54904 0.03466 0.0
H1205 H 0.21202 0.54585 0.08271 0.0
H1206 H 0.31941 0.55725 0.10612 0.0
H1207 H 0.27142 0.53346 0.10251 0.0
H1208 H 0.3005 0.61539 0.91223 0.0
H1209 H 0.25016 0.59661 0.91175 0.0
H1210 H 0.33794 0.6535 0.9511 0.0
H1211 H 0.36687 0.64965 0.99711 0.0
C1212 C 0.09169 0.55098 0.77421 0.0
C1213 C 0.10621 0.54091 0.81491 0.0
C1214 C 0.09822 0.46739 0.79498 0.0
C1215 C 0.08232 0.47817 0.75523 0.0
N1216 N 0.05145 0.52926 0.71299 0.0
N1217 N 0.11251 0.48881 0.8674 0.0
C1218 C 0.07433 0.51975 0.7474 0.0
C1219 C 0.10631 0.49883 0.82646 0.0
N1220 N 0.09705 0.58985 0.75979 0.0
N1221 N 0.10682 0.42733 0.8021 0.0
H1222 H 0.11732 0.51068 0.89147 0.0
H1223 H 0.1091 0.459 0.87808 0.0
H1224 H 0.09936 0.40386 0.78026 0.0
H1225 H 0.12267 0.41788 0.82861 0.0
H1226 H 0.09012 0.59777 0.72904 0.0
H1227 H 0.11297 0.61293 0.77675 0.0
H1228 H 0.04187 0.55894 0.70713 0.0
H1229 H 0.03859 0.5065 0.69297 0.0
C1230 C 0.25793 0.44852 0.45457 0.0
C1231 C 0.2929 0.45796 0.47991 0.0
C1232 C 0.25254 0.45842 0.5433 0.0
C1233 C 0.21763 0.44748 0.51851 0.0
N1234 N 0.18415 0.44118 0.45092 0.0
N1235 N 0.32112 0.48578 0.54509 0.0
C1236 C 0.21934 0.44567 0.47408 0.0
C1237 C 0.28919 0.46782 0.52315 0.0
N1238 N 0.26187 0.44033 0.41258 0.0
N1239 N 0.25153 0.45721 0.58619 0.0
H1240 H 0.34902 0.49214 0.53145 0.0
H1241 H 0.31873 0.49788 0.57554 0.0
H1242 H 0.22538 0.45055 0.60284 0.0
H1243 H 0.27746 0.4595 0.60536 0.0
H1244 H 0.23844 0.42854 0.39326 0.0
H1245 H 0.28926 0.44408 0.39706 0.0
H1246 H 0.18271 0.44312 0.41837 0.0
H1247 H 0.15566 0.43853 0.46474 0.0
loop_
_geom_bond_atom_site_label_1
_geom_bond_atom_site_label_2
_geom_bond_distance
_geom_bond_site_symmetry_2
_ccdc_geom_bond_type
C0 C1 1.351 . S
C0 N3 1.368 . S
C0 H5 0.931 . S
C1 C0 1.351 . S
C1 N2 1.373 . S
C1 H29 0.930 1_455 S
N2 C1 1.373 . S
N2 C4 1.340 . S
N3 C0 1.368 . S
N3 C4 1.321 . S
N3 Co6 2.135 . S
C4 N2 1.340 . S
C4 N3 1.321 . S
C4 H28 0.930 . S
H5 C0 0.931 . S
Co6 N3 2.135 . S
Co6 N9 2.121 . S
Co6 O14 2.055 . S
Co6 O17 2.039 . S
Co6 N20 2.140 . S
C7 O8 1.227 . S
C7 O17 1.265 . S
O8 C7 1.227 . S
N9 Co6 2.121 . S
N9 C11 1.375 . S
N9 C12 1.313 . S
C10 C11 1.338 . S
C10 N13 1.377 . S
C10 H30 0.930 . S
C11 N9 1.375 . S
C11 C10 1.338 . S
C11 H15 0.931 . S
C12 N9 1.313 . S
C12 N13 1.344 . S
C12 H16 0.930 . S
N13 C10 1.377 . S
N13 C12 1.344 . S
O14 Co6 2.055 . S
O14 C18 1.253 . S
H15 C11 0.931 . S
H16 C12 0.930 . S
O17 Co6 2.039 . S
O17 C7 1.265 . S
C18 O14 1.253 . S
C18 O19 1.227 . S
O19 C18 1.227 . S
N20 Co6 2.140 . S
N20 C23 1.346 . S
N20 C24 1.345 . S
C21 C22 1.387 . S
C21 C25 1.391 . S
C22 C21 1.387 . S
C22 C23 1.369 . S
C22 H31 0.929 . S
C23 N20 1.346 . S
C23 C22 1.369 . S
C23 H26 0.928 . S
C24 N20 1.345 . S
C24 C25 1.371 . S
C24 H27 0.931 . S
C25 C21 1.391 . S
C25 C24 1.371 . S
C25 H32 0.930 . S
H26 C23 0.928 . S
H27 C24 0.931 . S
H28 C4 0.930 . S
H29 C1 0.930 1_655 S
H30 C10 0.930 . S
H31 C22 0.929 . S
H32 C25 0.930 . S
C33 C34 1.351 . S
C33 N36 1.368 . S
C33 H38 0.931 . S
C34 C33 1.351 . S
C34 N35 1.373 . S
C34 H62 0.930 . S
N35 C34 1.373 . S
N35 C37 1.340 . S
N36 C33 1.368 . S
N36 C37 1.321 . S
N36 Co39 2.135 . S
C37 N35 1.340 . S
C37 N36 1.321 . S
C37 H61 0.930 . S
H38 C33 0.931 . S
Co39 N36 2.135 . S
Co39 N42 2.121 . S
Co39 O47 2.055 . S
Co39 O50 2.039 . S
Co39 N53 2.140 . S
C40 O41 1.227 . S
C40 O50 1.265 . S
O41 C40 1.227 . S
N42 Co39 2.121 . S
N42 C44 1.375 . S
N42 C45 1.313 . S
C43 C44 1.338 . S
C43 N46 1.377 . S
C43 H63 0.930 . S
C44 N42 1.375 . S
C44 C43 1.338 . S
C44 H48 0.931 . S
C45 N42 1.313 . S
C45 N46 1.344 . S
C45 H49 0.930 . S
N46 C43 1.377 . S
N46 C45 1.344 . S
O47 Co39 2.055 . S
O47 C51 1.253 . S
H48 C44 0.931 . S
H49 C45 0.930 . S
O50 Co39 2.039 . S
O50 C40 1.265 . S
C51 O47 1.253 . S
C51 O52 1.227 . S
O52 C51 1.227 . S
N53 Co39 2.140 . S
N53 C56 1.346 . S
N53 C57 1.345 . S
C54 C55 1.387 . S
C54 C58 1.391 . S
C55 C54 1.387 . S
C55 C56 1.369 . S
C55 H64 0.929 . S
C56 N53 1.346 . S
C56 C55 1.369 . S
C56 H59 0.928 . S
C57 N53 1.345 . S
C57 C58 1.371 . S
C57 H60 0.931 . S
C58 C54 1.391 . S
C58 C57 1.371 . S
C58 H65 0.930 . S
H59 C56 0.928 . S
H60 C57 0.931 . S
H61 C37 0.930 . S
H62 C34 0.930 . S
H63 C43 0.930 . S
H64 C55 0.929 . S
H65 C58 0.930 . S
C66 C67 1.351 . S
C66 N69 1.368 . S
C66 H71 0.931 . S
C67 C66 1.351 . S
C67 N68 1.373 . S
C67 H95 0.930 . S
N68 C67 1.373 . S
N68 C70 1.340 . S
N69 C66 1.368 . S
N69 C70 1.321 . S
N69 Co72 2.135 . S
C70 N68 1.340 . S
C70 N69 1.321 . S
C70 H94 0.930 . S
H71 C66 0.931 . S
Co72 N69 2.135 . S
Co72 N75 2.121 . S
Co72 O80 2.055 . S
Co72 O83 2.039 . S
Co72 N86 2.140 . S
C73 O74 1.227 . S
C73 O83 1.265 . S
O74 C73 1.227 . S
N75 Co72 2.121 . S
N75 C77 1.375 . S
N75 C78 1.313 . S
C76 C77 1.338 . S
C76 N79 1.377 . S
C76 H96 0.930 . S
C77 N75 1.375 . S
C77 C76 1.338 . S
C77 H81 0.931 . S
C78 N75 1.313 . S
C78 N79 1.344 . S
C78 H82 0.930 . S
N79 C76 1.377 . S
N79 C78 1.344 . S
O80 Co72 2.055 . S
O80 C84 1.253 . S
H81 C77 0.931 . S
H82 C78 0.930 . S
O83 Co72 2.039 . S
O83 C73 1.265 . S
C84 O80 1.253 . S
C84 O85 1.227 . S
O85 C84 1.227 . S
N86 Co72 2.140 . S
N86 C89 1.346 . S
N86 C90 1.345 . S
C87 C88 1.387 . S
C87 C91 1.391 . S
C88 C87 1.387 . S
C88 C89 1.369 . S
C88 H97 0.929 . S
C89 N86 1.346 . S
C89 C88 1.369 . S
C89 H92 0.928 . S
C90 N86 1.345 . S
C90 C91 1.371 . S
C90 H93 0.931 . S
C91 C87 1.391 . S
C91 C90 1.371 . S
C91 H98 0.930 . S
H92 C89 0.928 . S
H93 C90 0.931 . S
H94 C70 0.930 . S
H95 C67 0.930 . S
H96 C76 0.930 . S
H97 C88 0.929 . S
H98 C91 0.930 . S
C99 C100 1.351 . S
C99 N102 1.368 . S
C99 H104 0.931 . S
C100 C99 1.351 . S
C100 N101 1.373 . S
C100 H128 0.930 1_556 S
N101 C100 1.373 . S
N101 C103 1.340 . S
N102 C99 1.368 . S
N102 C103 1.321 . S
N102 Co105 2.135 . S
C103 N101 1.340 . S
C103 N102 1.321 . S
C103 H127 0.930 . S
H104 C99 0.931 . S
Co105 N102 2.135 . S
Co105 N108 2.121 . S
Co105 O113 2.055 . S
Co105 O116 2.039 . S
Co105 N119 2.140 . S
C106 O107 1.227 . S
C106 O116 1.265 . S
O107 C106 1.227 . S
N108 Co105 2.121 . S
N108 C110 1.375 . S
N108 C111 1.313 . S
C109 C110 1.338 . S
C109 N112 1.377 . S
C109 H129 0.930 . S
C110 N108 1.375 . S
C110 C109 1.338 . S
C110 H114 0.931 . S
C111 N108 1.313 . S
C111 N112 1.344 . S
C111 H115 0.930 . S
N112 C109 1.377 . S
N112 C111 1.344 . S
O113 Co105 2.055 . S
O113 C117 1.253 . S
H114 C110 0.931 . S
H115 C111 0.930 . S
O116 Co105 2.039 . S
O116 C106 1.265 . S
C117 O113 1.253 . S
C117 O118 1.227 . S
O118 C117 1.227 . S
N119 Co105 2.140 . S
N119 C122 1.346 . S
N119 C123 1.345 . S
C120 C121 1.387 . S
C120 C124 1.391 . S
C121 C120 1.387 . S
C121 C122 1.369 . S
C121 H130 0.929 . S
C122 N119 1.346 . S
C122 C121 1.369 . S
C122 H125 0.928 . S
C123 N119 1.345 . S
C123 C124 1.371 . S
C123 H126 0.931 . S
C124 C120 1.391 . S
C124 C123 1.371 . S
C124 H131 0.930 . S
H125 C122 0.928 . S
H126 C123 0.931 . S
H127 C103 0.930 . S
H128 C100 0.930 1_554 S
H129 C109 0.930 . S
H130 C121 0.929 . S
H131 C124 0.930 . S
C132 C133 1.351 . S
C132 N135 1.368 . S
C132 H137 0.931 . S
C133 C132 1.351 . S
C133 N134 1.373 . S
C133 H161 0.930 . S
N134 C133 1.373 . S
N134 C136 1.340 . S
N135 C132 1.368 . S
N135 C136 1.321 . S
N135 Co138 2.135 . S
C136 N134 1.340 . S
C136 N135 1.321 . S
C136 H160 0.930 . S
H137 C132 0.931 . S
Co138 N135 2.135 . S
Co138 N141 2.121 . S
Co138 O146 2.055 . S
Co138 O149 2.039 . S
Co138 N152 2.140 . S
C139 O140 1.227 . S
C139 O149 1.265 . S
O140 C139 1.227 . S
N141 Co138 2.121 . S
N141 C143 1.375 . S
N141 C144 1.313 . S
C142 C143 1.338 . S
C142 N145 1.377 . S
C142 H162 0.930 . S
C143 N141 1.375 . S
C143 C142 1.338 . S
C143 H147 0.931 . S
C144 N141 1.313 . S
C144 N145 1.344 . S
C144 H148 0.930 . S
N145 C142 1.377 . S
N145 C144 1.344 . S
O146 Co138 2.055 . S
O146 C150 1.253 . S
H147 C143 0.931 . S
H148 C144 0.930 . S
O149 Co138 2.039 . S
O149 C139 1.265 . S
C150 O146 1.253 . S
C150 O151 1.227 . S
O151 C150 1.227 . S
N152 Co138 2.140 . S
N152 C155 1.346 . S
N152 C156 1.345 . S
C153 C154 1.387 . S
C153 C157 1.391 . S
C154 C153 1.387 . S
C154 C155 1.369 . S
C154 H163 0.929 . S
C155 N152 1.346 . S
C155 C154 1.369 . S
C155 H158 0.928 . S
C156 N152 1.345 . S
C156 C157 1.371 . S
C156 H159 0.931 . S
C157 C153 1.391 . S
C157 C156 1.371 . S
C157 H164 0.930 . S
H158 C155 0.928 . S
H159 C156 0.931 . S
H160 C136 0.930 . S
H161 C133 0.930 . S
H162 C142 0.930 . S
H163 C154 0.929 . S
H164 C157 0.930 . S
C165 C166 1.351 . S
C165 N168 1.368 . S
C165 H170 0.931 . S
C166 C165 1.351 . S
C166 N167 1.373 . S
C166 H194 0.930 . S
N167 C166 1.373 . S
N167 C169 1.340 . S
N168 C165 1.368 . S
N168 C169 1.321 . S
N168 Co171 2.135 . S
C169 N167 1.340 . S
C169 N168 1.321 . S
C169 H193 0.930 . S
H170 C165 0.931 . S
Co171 N168 2.135 . S
Co171 N174 2.121 . S
Co171 O179 2.055 . S
Co171 O182 2.039 . S
Co171 N185 2.140 . S
C172 O173 1.227 . S
C172 O182 1.265 . S
O173 C172 1.227 . S
N174 Co171 2.121 . S
N174 C176 1.375 . S
N174 C177 1.313 . S
C175 C176 1.338 . S
C175 N178 1.377 . S
C175 H195 0.930 . S
C176 N174 1.375 . S
C176 C175 1.338 . S
C176 H180 0.931 . S
C177 N174 1.313 . S
C177 N178 1.344 . S
C177 H181 0.930 . S
N178 C175 1.377 . S
N178 C177 1.344 . S
O179 Co171 2.055 . S
O179 C183 1.253 . S
H180 C176 0.931 . S
H181 C177 0.930 . S
O182 Co171 2.039 . S
O182 C172 1.265 . S
C183 O179 1.253 . S
C183 O184 1.227 . S
O184 C183 1.227 . S
N185 Co171 2.140 . S
N185 C188 1.346 . S
N185 C189 1.345 . S
C186 C187 1.387 . S
C186 C190 1.391 . S
C187 C186 1.387 . S
C187 C188 1.369 . S
C187 H196 0.929 . S
C188 N185 1.346 . S
C188 C187 1.369 . S
C188 H191 0.928 . S
C189 N185 1.345 . S
C189 C190 1.371 . S
C189 H192 0.931 . S
C190 C186 1.391 . S
C190 C189 1.371 . S
C190 H197 0.930 . S
H191 C188 0.928 . S
H192 C189 0.931 . S
H193 C169 0.930 . S
H194 C166 0.930 . S
H195 C175 0.930 . S
H196 C187 0.929 . S
H197 C190 0.930 . S
C198 C199 1.351 . S
C198 N201 1.368 . S
C198 H203 0.931 . S
C199 C198 1.351 . S
C199 N200 1.373 . S
C199 H227 0.930 . S
N200 C199 1.373 . S
N200 C202 1.340 . S
N201 C198 1.368 . S
N201 C202 1.321 . S
N201 Co204 2.135 . S
C202 N200 1.340 . S
C202 N201 1.321 . S
C202 H226 0.930 . S
H203 C198 0.931 . S
Co204 N201 2.135 . S
Co204 N207 2.121 . S
Co204 O212 2.055 . S
Co204 O215 2.039 . S
Co204 N218 2.140 . S
C205 O206 1.227 . S
C205 O215 1.265 . S
O206 C205 1.227 . S
N207 Co204 2.121 . S
N207 C209 1.375 . S
N207 C210 1.313 . S
C208 C209 1.338 . S
C208 N211 1.377 . S
C208 H228 0.930 . S
C209 N207 1.375 . S
C209 C208 1.338 . S
C209 H213 0.931 . S
C210 N207 1.313 . S
C210 N211 1.344 . S
C210 H214 0.930 . S
N211 C208 1.377 . S
N211 C210 1.344 . S
O212 Co204 2.055 . S
O212 C216 1.253 . S
H213 C209 0.931 . S
H214 C210 0.930 . S
O215 Co204 2.039 . S
O215 C205 1.265 . S
C216 O212 1.253 . S
C216 O217 1.227 . S
O217 C216 1.227 . S
N218 Co204 2.140 . S
N218 C221 1.346 . S
N218 C222 1.345 . S
C219 C220 1.387 . S
C219 C223 1.391 . S
C220 C219 1.387 . S
C220 C221 1.369 . S
C220 H229 0.929 . S
C221 N218 1.346 . S
C221 C220 1.369 . S
C221 H224 0.928 . S
C222 N218 1.345 . S
C222 C223 1.371 . S
C222 H225 0.931 . S
C223 C219 1.391 . S
C223 C222 1.371 . S
C223 H230 0.930 . S
H224 C221 0.928 . S
H225 C222 0.931 . S
H226 C202 0.930 . S
H227 C199 0.930 . S
H228 C208 0.930 . S
H229 C220 0.929 . S
H230 C223 0.930 . S
C231 C232 1.351 . S
C231 N234 1.368 . S
C231 H236 0.931 . S
C232 C231 1.351 . S
C232 N233 1.373 . S
C232 H260 0.930 . S
N233 C232 1.373 . S
N233 C235 1.340 . S
N234 C231 1.368 . S
N234 C235 1.321 . S
N234 Co237 2.135 . S
C235 N233 1.340 . S
C235 N234 1.321 . S
C235 H259 0.930 . S
H236 C231 0.931 . S
Co237 N234 2.135 . S
Co237 N240 2.121 . S
Co237 O245 2.055 . S
Co237 O248 2.039 . S
Co237 N251 2.140 . S
C238 O239 1.227 . S
C238 O248 1.265 . S
O239 C238 1.227 . S
N240 Co237 2.121 . S
N240 C242 1.375 . S
N240 C243 1.313 . S
C241 C242 1.338 . S
C241 N244 1.377 . S
C241 H261 0.930 . S
C242 N240 1.375 . S
C242 C241 1.338 . S
C242 H246 0.931 . S
C243 N240 1.313 . S
C243 N244 1.344 . S
C243 H247 0.930 . S
N244 C241 1.377 . S
N244 C243 1.344 . S
O245 Co237 2.055 . S
O245 C249 1.253 . S
H246 C242 0.931 . S
H247 C243 0.930 . S
O248 Co237 2.039 . S
O248 C238 1.265 . S
C249 O245 1.253 . S
C249 O250 1.227 . S
O250 C249 1.227 . S
N251 Co237 2.140 . S
N251 C254 1.346 . S
N251 C255 1.345 . S
C252 C253 1.387 . S
C252 C256 1.391 . S
C253 C252 1.387 . S
C253 C254 1.369 . S
C253 H262 0.929 . S
C254 N251 1.346 . S
C254 C253 1.369 . S
C254 H257 0.928 . S
C255 N251 1.345 . S
C255 C256 1.371 . S
C255 H258 0.931 . S
C256 C252 1.391 . S
C256 C255 1.371 . S
C256 H263 0.930 . S
H257 C254 0.928 . S
H258 C255 0.931 . S
H259 C235 0.930 . S
H260 C232 0.930 . S
H261 C241 0.930 . S
H262 C253 0.929 . S
H263 C256 0.930 . S
C264 C265 1.351 . S
C264 N267 1.368 . S
C264 H269 0.931 . S
C265 C264 1.351 . S
C265 N266 1.373 . S
C265 H293 0.930 . S
N266 C265 1.373 . S
N266 C268 1.340 . S
N267 C264 1.368 . S
N267 C268 1.321 . S
N267 Co270 2.135 . S
C268 N266 1.340 . S
C268 N267 1.321 . S
C268 H292 0.930 . S
H269 C264 0.931 . S
Co270 N267 2.135 . S
Co270 N273 2.121 . S
Co270 O278 2.055 . S
Co270 O281 2.039 . S
Co270 N284 2.140 . S
C271 O272 1.227 . S
C271 O281 1.265 . S
O272 C271 1.227 . S
N273 Co270 2.121 . S
N273 C275 1.375 . S
N273 C276 1.313 . S
C274 C275 1.338 . S
C274 N277 1.377 . S
C274 H294 0.930 . S
C275 N273 1.375 . S
C275 C274 1.338 . S
C275 H279 0.931 . S
C276 N273 1.313 . S
C276 N277 1.344 . S
C276 H280 0.930 . S
N277 C274 1.377 . S
N277 C276 1.344 . S
O278 Co270 2.055 . S
O278 C282 1.253 . S
H279 C275 0.931 . S
H280 C276 0.930 . S
O281 Co270 2.039 . S
O281 C271 1.265 . S
C282 O278 1.253 . S
C282 O283 1.227 . S
O283 C282 1.227 . S
N284 Co270 2.140 . S
N284 C287 1.346 . S
N284 C288 1.345 . S
C285 C286 1.387 . S
C285 C289 1.391 . S
C286 C285 1.387 . S
C286 C287 1.369 . S
C286 H295 0.929 . S
C287 N284 1.346 . S
C287 C286 1.369 . S
C287 H290 0.928 . S
C288 N284 1.345 . S
C288 C289 1.371 . S
C288 H291 0.931 . S
C289 C285 1.391 . S
C289 C288 1.371 . S
C289 H296 0.930 . S
H290 C287 0.928 . S
H291 C288 0.931 . S
H292 C268 0.930 . S
H293 C265 0.930 . S
H294 C274 0.930 . S
H295 C286 0.929 . S
H296 C289 0.930 . S
C297 C298 1.351 . S
C297 N300 1.368 . S
C297 H302 0.931 . S
C298 C297 1.351 . S
C298 N299 1.373 . S
C298 H326 0.930 . S
N299 C298 1.373 . S
N299 C301 1.340 . S
N300 C297 1.368 . S
N300 C301 1.321 . S
N300 Co303 2.135 . S
C301 N299 1.340 . S
C301 N300 1.321 . S
C301 H325 0.930 . S
H302 C297 0.931 . S
Co303 N300 2.135 . S
Co303 N306 2.121 . S
Co303 O311 2.055 . S
Co303 O314 2.039 . S
Co303 N317 2.140 . S
C304 O305 1.227 . S
C304 O314 1.265 . S
O305 C304 1.227 . S
N306 Co303 2.121 . S
N306 C308 1.375 . S
N306 C309 1.313 . S
C307 C308 1.338 . S
C307 N310 1.377 . S
C307 H327 0.930 . S
C308 N306 1.375 . S
C308 C307 1.338 . S
C308 H312 0.931 . S
C309 N306 1.313 . S
C309 N310 1.344 . S
C309 H313 0.930 . S
N310 C307 1.377 . S
N310 C309 1.344 . S
O311 Co303 2.055 . S
O311 C315 1.253 . S
H312 C308 0.931 . S
H313 C309 0.930 . S
O314 Co303 2.039 . S
O314 C304 1.265 . S
C315 O311 1.253 . S
C315 O316 1.227 . S
O316 C315 1.227 . S
N317 Co303 2.140 . S
N317 C320 1.346 . S
N317 C321 1.345 . S
C318 C319 1.387 . S
C318 C322 1.391 . S
C319 C318 1.387 . S
C319 C320 1.369 . S
C319 H328 0.929 . S
C320 N317 1.346 . S
C320 C319 1.369 . S
C320 H323 0.928 . S
C321 N317 1.345 . S
C321 C322 1.371 . S
C321 H324 0.931 . S
C322 C318 1.391 . S
C322 C321 1.371 . S
C322 H329 0.930 . S
H323 C320 0.928 . S
H324 C321 0.931 . S
H325 C301 0.930 . S
H326 C298 0.930 . S
H327 C307 0.930 . S
H328 C319 0.929 . S
H329 C322 0.930 . S
C330 C331 1.351 . S
C330 N333 1.368 . S
C330 H335 0.931 . S
C331 C330 1.351 . S
C331 N332 1.373 . S
C331 H359 0.930 . S
N332 C331 1.373 . S
N332 C334 1.340 . S
N333 C330 1.368 . S
N333 C334 1.321 . S
N333 Co336 2.135 . S
C334 N332 1.340 . S
C334 N333 1.321 . S
C334 H358 0.930 . S
H335 C330 0.931 . S
Co336 N333 2.135 . S
Co336 N339 2.121 . S
Co336 O344 2.055 . S
Co336 O347 2.039 . S
Co336 N350 2.140 . S
C337 O338 1.227 . S
C337 O347 1.265 . S
O338 C337 1.227 . S
N339 Co336 2.121 . S
N339 C341 1.375 . S
N339 C342 1.313 . S
C340 C341 1.338 . S
C340 N343 1.377 . S
C340 H360 0.930 . S
C341 N339 1.375 . S
C341 C340 1.338 . S
C341 H345 0.931 . S
C342 N339 1.313 . S
C342 N343 1.344 . S
C342 H346 0.930 . S
N343 C340 1.377 . S
N343 C342 1.344 . S
O344 Co336 2.055 . S
O344 C348 1.253 . S
H345 C341 0.931 . S
H346 C342 0.930 . S
O347 Co336 2.039 . S
O347 C337 1.265 . S
C348 O344 1.253 . S
C348 O349 1.227 . S
O349 C348 1.227 . S
N350 Co336 2.140 . S
N350 C353 1.346 . S
N350 C354 1.345 . S
C351 C352 1.387 . S
C351 C355 1.391 . S
C352 C351 1.387 . S
C352 C353 1.369 . S
C352 H361 0.929 . S
C353 N350 1.346 . S
C353 C352 1.369 . S
C353 H356 0.928 . S
C354 N350 1.345 . S
C354 C355 1.371 . S
C354 H357 0.931 . S
C355 C351 1.391 . S
C355 C354 1.371 . S
C355 H362 0.930 . S
H356 C353 0.928 . S
H357 C354 0.931 . S
H358 C334 0.930 . S
H359 C331 0.930 . S
H360 C340 0.930 . S
H361 C352 0.929 . S
H362 C355 0.930 . S
C363 C364 1.351 . S
C363 N366 1.368 . S
C363 H368 0.931 . S
C364 C363 1.351 . S
C364 N365 1.373 . S
C364 H392 0.930 . S
N365 C364 1.373 . S
N365 C367 1.340 . S
N366 C363 1.368 . S
N366 C367 1.321 . S
N366 Co369 2.135 . S
C367 N365 1.340 . S
C367 N366 1.321 . S
C367 H391 0.930 . S
H368 C363 0.931 . S
Co369 N366 2.135 . S
Co369 N372 2.121 . S
Co369 O377 2.055 . S
Co369 O380 2.039 . S
Co369 N383 2.140 . S
C370 O371 1.227 . S
C370 O380 1.265 . S
O371 C370 1.227 . S
N372 Co369 2.121 . S
N372 C374 1.375 . S
N372 C375 1.313 . S
C373 C374 1.338 . S
C373 N376 1.377 . S
C373 H393 0.930 . S
C374 N372 1.375 . S
C374 C373 1.338 . S
C374 H378 0.931 . S
C375 N372 1.313 . S
C375 N376 1.344 . S
C375 H379 0.930 . S
N376 C373 1.377 . S
N376 C375 1.344 . S
O377 Co369 2.055 . S
O377 C381 1.253 . S
H378 C374 0.931 . S
H379 C375 0.930 . S
O380 Co369 2.039 . S
O380 C370 1.265 . S
C381 O377 1.253 . S
C381 O382 1.227 . S
O382 C381 1.227 . S
N383 Co369 2.140 . S
N383 C386 1.346 . S
N383 C387 1.345 . S
C384 C385 1.387 . S
C384 C388 1.391 . S
C385 C384 1.387 . S
C385 C386 1.369 . S
C385 H394 0.929 . S
C386 N383 1.346 . S
C386 C385 1.369 . S
C386 H389 0.928 . S
C387 N383 1.345 . S
C387 C388 1.371 . S
C387 H390 0.931 . S
C388 C384 1.391 . S
C388 C387 1.371 . S
C388 H395 0.930 . S
H389 C386 0.928 . S
H390 C387 0.931 . S
H391 C367 0.930 . S
H392 C364 0.930 . S
H393 C373 0.930 . S
H394 C385 0.929 . S
H395 C388 0.930 . S
C396 C397 1.351 . S
C396 N399 1.368 . S
C396 H401 0.931 . S
C397 C396 1.351 . S
C397 N398 1.373 . S
C397 H425 0.930 . S
N398 C397 1.373 . S
N398 C400 1.340 . S
N399 C396 1.368 . S
N399 C400 1.321 . S
N399 Co402 2.135 . S
C400 N398 1.340 . S
C400 N399 1.321 . S
C400 H424 0.930 . S
H401 C396 0.931 . S
Co402 N399 2.135 . S
Co402 N405 2.121 . S
Co402 O410 2.055 . S
Co402 O413 2.039 . S
Co402 N416 2.140 . S
C403 O404 1.227 . S
C403 O413 1.265 . S
O404 C403 1.227 . S
N405 Co402 2.121 . S
N405 C407 1.375 . S
N405 C408 1.313 . S
C406 C407 1.338 . S
C406 N409 1.377 . S
C406 H426 0.930 . S
C407 N405 1.375 . S
C407 C406 1.338 . S
C407 H411 0.931 . S
C408 N405 1.313 . S
C408 N409 1.344 . S
C408 H412 0.930 . S
N409 C406 1.377 . S
N409 C408 1.344 . S
O410 Co402 2.055 . S
O410 C414 1.253 . S
H411 C407 0.931 . S
H412 C408 0.930 . S
O413 Co402 2.039 . S
O413 C403 1.265 . S
C414 O410 1.253 . S
C414 O415 1.227 . S
O415 C414 1.227 . S
N416 Co402 2.140 . S
N416 C419 1.346 . S
N416 C420 1.345 . S
C417 C418 1.387 . S
C417 C421 1.391 . S
C418 C417 1.387 . S
C418 C419 1.369 . S
C418 H427 0.929 . S
C419 N416 1.346 . S
C419 C418 1.369 . S
C419 H422 0.928 . S
C420 N416 1.345 . S
C420 C421 1.371 . S
C420 H423 0.931 . S
C421 C417 1.391 . S
C421 C420 1.371 . S
C421 H428 0.930 . S
H422 C419 0.928 . S
H423 C420 0.931 . S
H424 C400 0.930 . S
H425 C397 0.930 . S
H426 C406 0.930 . S
H427 C418 0.929 . S
H428 C421 0.930 . S
C429 C430 1.351 . S
C429 N432 1.368 . S
C429 H434 0.931 . S
C430 C429 1.351 . S
C430 N431 1.373 . S
C430 H458 0.930 . S
N431 C430 1.373 . S
N431 C433 1.340 . S
N432 C429 1.368 . S
N432 C433 1.321 . S
N432 Co435 2.135 . S
C433 N431 1.340 . S
C433 N432 1.321 . S
C433 H457 0.930 . S
H434 C429 0.931 . S
Co435 N432 2.135 . S
Co435 N438 2.121 . S
Co435 O443 2.055 . S
Co435 O446 2.039 . S
Co435 N449 2.140 . S
C436 O437 1.227 . S
C436 O446 1.265 . S
O437 C436 1.227 . S
N438 Co435 2.121 . S
N438 C440 1.375 . S
N438 C441 1.313 . S
C439 C440 1.338 . S
C439 N442 1.377 . S
C439 H459 0.930 . S
C440 N438 1.375 . S
C440 C439 1.338 . S
C440 H444 0.931 . S
C441 N438 1.313 . S
C441 N442 1.344 . S
C441 H445 0.930 . S
N442 C439 1.377 . S
N442 C441 1.344 . S
O443 Co435 2.055 . S
O443 C447 1.253 . S
H444 C440 0.931 . S
H445 C441 0.930 . S
O446 Co435 2.039 . S
O446 C436 1.265 . S
C447 O443 1.253 . S
C447 O448 1.227 . S
O448 C447 1.227 . S
N449 Co435 2.140 . S
N449 C452 1.346 . S
N449 C453 1.345 . S
C450 C451 1.387 . S
C450 C454 1.391 . S
C451 C450 1.387 . S
C451 C452 1.369 . S
C451 H460 0.929 . S
C452 N449 1.346 . S
C452 C451 1.369 . S
C452 H455 0.928 . S
C453 N449 1.345 . S
C453 C454 1.371 . S
C453 H456 0.931 . S
C454 C450 1.391 . S
C454 C453 1.371 . S
C454 H461 0.930 . S
H455 C452 0.928 . S
H456 C453 0.931 . S
H457 C433 0.930 . S
H458 C430 0.930 . S
H459 C439 0.930 . S
H460 C451 0.929 . S
H461 C454 0.930 . S
C462 C463 1.351 . S
C462 N465 1.368 . S
C462 H467 0.931 . S
C463 C462 1.351 . S
C463 N464 1.373 . S
C463 H491 0.930 . S
N464 C463 1.373 . S
N464 C466 1.340 . S
N465 C462 1.368 . S
N465 C466 1.321 . S
N465 Co468 2.135 . S
C466 N464 1.340 . S
C466 N465 1.321 . S
C466 H490 0.930 . S
H467 C462 0.931 . S
Co468 N465 2.135 . S
Co468 N471 2.121 . S
Co468 O476 2.055 . S
Co468 O479 2.039 . S
Co468 N482 2.140 . S
C469 O470 1.227 . S
C469 O479 1.265 . S
O470 C469 1.227 . S
N471 Co468 2.121 . S
N471 C473 1.375 . S
N471 C474 1.313 . S
C472 C473 1.338 . S
C472 N475 1.377 . S
C472 H492 0.930 . S
C473 N471 1.375 . S
C473 C472 1.338 . S
C473 H477 0.931 . S
C474 N471 1.313 . S
C474 N475 1.344 . S
C474 H478 0.930 . S
N475 C472 1.377 . S
N475 C474 1.344 . S
O476 Co468 2.055 . S
O476 C480 1.253 . S
H477 C473 0.931 . S
H478 C474 0.930 . S
O479 Co468 2.039 . S
O479 C469 1.265 . S
C480 O476 1.253 . S
C480 O481 1.227 . S
O481 C480 1.227 . S
N482 Co468 2.140 . S
N482 C485 1.346 . S
N482 C486 1.345 . S
C483 C484 1.387 . S
C483 C487 1.391 . S
C484 C483 1.387 . S
C484 C485 1.369 . S
C484 H493 0.929 . S
C485 N482 1.346 . S
C485 C484 1.369 . S
C485 H488 0.928 . S
C486 N482 1.345 . S
C486 C487 1.371 . S
C486 H489 0.931 . S
C487 C483 1.391 . S
C487 C486 1.371 . S
C487 H494 0.930 . S
H488 C485 0.928 . S
H489 C486 0.931 . S
H490 C466 0.930 . S
H491 C463 0.930 . S
H492 C472 0.930 . S
H493 C484 0.929 . S
H494 C487 0.930 . S
C495 C496 1.351 . S
C495 N498 1.368 . S
C495 H500 0.931 . S
C496 C495 1.351 . S
C496 N497 1.373 . S
C496 H524 0.930 . S
N497 C496 1.373 . S
N497 C499 1.340 . S
N498 C495 1.368 . S
N498 C499 1.321 . S
N498 Co501 2.135 . S
C499 N497 1.340 . S
C499 N498 1.321 . S
C499 H523 0.930 . S
H500 C495 0.931 . S
Co501 N498 2.135 . S
Co501 N504 2.121 . S
Co501 O509 2.055 . S
Co501 O512 2.039 . S
Co501 N515 2.140 . S
C502 O503 1.227 . S
C502 O512 1.265 . S
O503 C502 1.227 . S
N504 Co501 2.121 . S
N504 C506 1.375 . S
N504 C507 1.313 . S
C505 C506 1.338 . S
C505 N508 1.377 . S
C505 H525 0.930 . S
C506 N504 1.375 . S
C506 C505 1.338 . S
C506 H510 0.931 . S
C507 N504 1.313 . S
C507 N508 1.344 . S
C507 H511 0.930 . S
N508 C505 1.377 . S
N508 C507 1.344 . S
O509 Co501 2.055 . S
O509 C513 1.253 . S
H510 C506 0.931 . S
H511 C507 0.930 . S
O512 Co501 2.039 . S
O512 C502 1.265 . S
C513 O509 1.253 . S
C513 O514 1.227 . S
O514 C513 1.227 . S
N515 Co501 2.140 . S
N515 C518 1.346 . S
N515 C519 1.345 . S
C516 C517 1.387 . S
C516 C520 1.391 . S
C517 C516 1.387 . S
C517 C518 1.369 . S
C517 H526 0.929 . S
C518 N515 1.346 . S
C518 C517 1.369 . S
C518 H521 0.928 . S
C519 N515 1.345 . S
C519 C520 1.371 . S
C519 H522 0.931 . S
C520 C516 1.391 . S
C520 C519 1.371 . S
C520 H527 0.930 . S
H521 C518 0.928 . S
H522 C519 0.931 . S
H523 C499 0.930 . S
H524 C496 0.930 . S
H525 C505 0.930 . S
H526 C517 0.929 . S
H527 C520 0.930 . S
C528 C529 1.363 . S
C528 C534 1.379 . S
C528 N536 1.356 . S
C529 C528 1.363 . S
C529 C535 1.363 . S
C530 C531 1.363 . S
C530 C535 1.379 . S
C530 N537 1.356 . S
C531 C530 1.363 . S
C531 C534 1.363 . S
N532 C534 1.356 . S
N532 H544 0.984 . S
N532 H545 0.985 . S
N533 C535 1.356 . S
N533 H538 0.984 . S
N533 H539 0.985 . S
C534 C528 1.379 . S
C534 C531 1.363 . S
C534 N532 1.356 . S
C535 C529 1.363 . S
C535 C530 1.379 . S
C535 N533 1.356 . S
N536 C528 1.356 . S
N536 H542 0.984 . S
N536 H543 0.984 . S
N537 C530 1.356 . S
N537 H540 0.984 . S
N537 H541 0.985 . S
H538 N533 0.984 . S
H539 N533 0.985 . S
H540 N537 0.984 . S
H541 N537 0.985 . S
H542 N536 0.984 . S
H543 N536 0.984 . S
H544 N532 0.984 . S
H545 N532 0.985 . S
C546 C547 1.363 1_455 S
C546 C552 1.379 1_545 S
C546 N554 1.356 . S
C547 C546 1.363 1_655 S
C547 C553 1.363 . S
C548 C549 1.374 . S
C548 C553 1.379 1_455 S
C548 N555 1.356 . S
C549 C548 1.374 . S
C549 C552 1.361 1_545 S
N550 C552 1.356 . S
N550 H562 0.984 . S
N550 H563 0.985 . S
N551 C553 1.356 . S
N551 H556 0.984 . S
N551 H557 0.985 . S
C552 C546 1.379 1_565 S
C552 C549 1.361 1_565 S
C552 N550 1.356 . S
C553 C547 1.363 . S
C553 C548 1.379 1_655 S
C553 N551 1.356 . S
N554 C546 1.356 . S
N554 H560 0.986 . S
N554 H561 0.984 1_455 S
N555 C548 1.356 . S
N555 H558 0.984 . S
N555 H559 0.985 . S
H556 N551 0.984 . S
H557 N551 0.985 . S
H558 N555 0.984 . S
H559 N555 0.985 . S
H560 N554 0.986 . S
H561 N554 0.984 1_655 S
H562 N550 0.984 . S
H563 N550 0.985 . S
C564 C565 1.363 . S
C564 C570 1.379 . S
C564 N572 1.356 . S
C565 C564 1.363 . S
C565 C571 1.363 . S
C566 C567 1.363 . S
C566 C571 1.379 . S
C566 N573 1.356 . S
C567 C566 1.363 . S
C567 C570 1.363 . S
N568 C570 1.356 . S
N568 H580 0.984 . S
N568 H581 0.985 . S
N569 C571 1.356 . S
N569 H574 0.984 . S
N569 H575 0.985 . S
C570 C564 1.379 . S
C570 C567 1.363 . S
C570 N568 1.356 . S
C571 C565 1.363 . S
C571 C566 1.379 . S
C571 N569 1.356 . S
N572 C564 1.356 . S
N572 H578 0.984 . S
N572 H579 0.984 . S
N573 C566 1.356 . S
N573 H576 0.984 . S
N573 H577 0.985 . S
H574 N569 0.984 . S
H575 N569 0.985 . S
H576 N573 0.984 . S
H577 N573 0.985 . S
H578 N572 0.984 . S
H579 N572 0.984 . S
H580 N568 0.984 . S
H581 N568 0.985 . S
C582 C583 1.363 . S
C582 C588 1.379 1_556 S
C582 N590 1.356 . S
C583 C582 1.363 . S
C583 C589 1.363 1_566 S
C584 C585 1.363 1_545 S
C584 C589 1.379 . S
C584 N591 1.356 . S
C585 C584 1.363 1_565 S
C585 C588 1.363 . S
N586 C588 1.356 . S
N586 H598 0.984 . S
N586 H599 0.985 . S
N587 C589 1.349 1_556 S
N587 H592 1.003 . S
N587 H593 0.974 1_556 S
C588 C582 1.379 1_554 S
C588 C585 1.363 . S
C588 N586 1.356 . S
C589 C583 1.363 1_544 S
C589 C584 1.379 . S
C589 N587 1.349 1_554 S
N590 C582 1.356 . S
N590 H596 0.984 . S
N590 H597 0.984 . S
N591 C584 1.356 . S
N591 H594 0.984 . S
N591 H595 0.985 . S
H592 N587 1.003 . S
H593 N587 0.974 1_554 S
H594 N591 0.984 . S
H595 N591 0.985 . S
H596 N590 0.984 . S
H597 N590 0.984 . S
H598 N586 0.984 . S
H599 N586 0.985 . S
C600 C601 1.363 . S
C600 C606 1.379 . S
C600 N608 1.356 . S
C601 C600 1.363 . S
C601 C607 1.363 . S
C602 C603 1.363 . S
C602 C607 1.379 . S
C602 N609 1.356 . S
C603 C602 1.363 . S
C603 C606 1.363 . S
N604 C606 1.356 . S
N604 H616 0.984 . S
N604 H617 0.985 . S
N605 C607 1.356 . S
N605 H610 0.984 . S
N605 H611 0.985 . S
C606 C600 1.379 . S
C606 C603 1.363 . S
C606 N604 1.356 . S
C607 C601 1.363 . S
C607 C602 1.379 . S
C607 N605 1.356 . S
N608 C600 1.356 . S
N608 H614 0.984 . S
N608 H615 0.984 . S
N609 C602 1.356 . S
N609 H612 0.984 . S
N609 H613 0.985 . S
H610 N605 0.984 . S
H611 N605 0.985 . S
H612 N609 0.984 . S
H613 N609 0.985 . S
H614 N608 0.984 . S
H615 N608 0.984 . S
H616 N604 0.984 . S
H617 N604 0.985 . S
C618 C619 1.363 . S
C618 C624 1.379 . S
C618 N626 1.356 . S
C619 C618 1.363 . S
C619 C625 1.363 1_565 S
C620 C621 1.363 . S
C620 C625 1.379 . S
C620 N627 1.356 . S
C621 C620 1.363 . S
C621 C624 1.363 1_545 S
N622 C624 1.356 . S
N622 H634 0.984 . S
N622 H635 0.985 . S
N623 C625 1.356 . S
N623 H628 0.984 1_545 S
N623 H629 0.985 . S
C624 C618 1.379 . S
C624 C621 1.363 1_565 S
C624 N622 1.356 . S
C625 C619 1.363 1_545 S
C625 C620 1.379 . S
C625 N623 1.356 . S
N626 C618 1.356 . S
N626 H632 0.984 . S
N626 H633 0.984 . S
N627 C620 1.356 . S
N627 H630 0.984 . S
N627 H631 0.985 . S
H628 N623 0.984 1_565 S
H629 N623 0.985 . S
H630 N627 0.984 . S
H631 N627 0.985 . S
H632 N626 0.984 . S
H633 N626 0.984 . S
H634 N622 0.984 . S
H635 N622 0.985 . S
C636 C637 1.363 . S
C636 C642 1.379 . S
C636 N644 1.356 . S
C637 C636 1.363 . S
C637 C643 1.363 . S
C638 C639 1.363 . S
C638 C643 1.379 . S
C638 N645 1.356 . S
C639 C638 1.363 . S
C639 C642 1.363 . S
N640 C642 1.356 . S
N640 H652 0.984 . S
N640 H653 0.985 . S
N641 C643 1.356 . S
N641 H646 0.984 . S
N641 H647 0.985 . S
C642 C636 1.379 . S
C642 C639 1.363 . S
C642 N640 1.356 . S
C643 C637 1.363 . S
C643 C638 1.379 . S
C643 N641 1.356 . S
N644 C636 1.356 . S
N644 H650 0.984 . S
N644 H651 0.984 . S
N645 C638 1.356 . S
N645 H648 0.984 . S
N645 H649 0.985 . S
H646 N641 0.984 . S
H647 N641 0.985 . S
H648 N645 0.984 . S
H649 N645 0.985 . S
H650 N644 0.984 . S
H651 N644 0.984 . S
H652 N640 0.984 . S
H653 N640 0.985 . S
C654 C655 1.363 1_656 S
C654 C660 1.379 . S
C654 N662 1.356 1_556 S
C655 C654 1.363 1_454 S
C655 C661 1.363 . S
C656 C657 1.363 . S
C656 C661 1.379 1_666 S
C656 N663 1.356 . S
C657 C656 1.363 . S
C657 C660 1.363 1_565 S
N658 C660 1.356 . S
N658 H670 0.984 . S
N658 H671 0.985 . S
N659 C661 1.356 . S
N659 H664 0.984 . S
N659 H665 0.985 1_545 S
C660 C654 1.379 . S
C660 C657 1.363 1_545 S
C660 N658 1.356 . S
C661 C655 1.363 . S
C661 C656 1.379 1_444 S
C661 N659 1.356 . S
N662 C654 1.356 1_554 S
N662 H668 0.984 1_554 S
N662 H669 0.984 1_655 S
N663 C656 1.356 . S
N663 H666 0.984 . S
N663 H667 0.985 1_655 S
H664 N659 0.984 . S
H665 N659 0.985 1_565 S
H666 N663 0.984 . S
H667 N663 0.985 1_455 S
H668 N662 0.984 1_556 S
H669 N662 0.984 1_455 S
H670 N658 0.984 . S
H671 N658 0.985 . S
C672 C673 1.363 . S
C672 C678 1.379 . S
C672 N680 1.356 . S
C673 C672 1.363 . S
C673 C679 1.363 . S
C674 C675 1.363 . S
C674 C679 1.379 . S
C674 N681 1.356 . S
C675 C674 1.363 . S
C675 C678 1.363 . S
N676 C678 1.356 . S
N676 H688 0.984 . S
N676 H689 0.985 . S
N677 C679 1.356 . S
N677 H682 0.984 . S
N677 H683 0.985 . S
C678 C672 1.379 . S
C678 C675 1.363 . S
C678 N676 1.356 . S
C679 C673 1.363 . S
C679 C674 1.379 . S
C679 N677 1.356 . S
N680 C672 1.356 . S
N680 H686 0.984 . S
N680 H687 0.984 . S
N681 C674 1.356 . S
N681 H684 0.984 . S
N681 H685 0.985 . S
H682 N677 0.984 . S
H683 N677 0.985 . S
H684 N681 0.984 . S
H685 N681 0.985 . S
H686 N680 0.984 . S
H687 N680 0.984 . S
H688 N676 0.984 . S
H689 N676 0.985 . S
C690 C691 1.363 1_554 S
C690 C696 1.379 . S
C690 N698 1.356 . S
C691 C690 1.363 1_556 S
C691 C697 1.363 . S
C692 C693 1.367 . S
C692 C697 1.386 1_554 S
C692 N699 1.345 1_455 S
C693 C692 1.367 . S
C693 C696 1.363 . S
N694 C696 1.356 . S
N694 H706 0.984 . S
N694 H707 0.985 . S
N695 C697 1.356 . S
N695 H700 0.984 . S
N695 H701 0.985 1_455 S
C696 C690 1.379 . S
C696 C693 1.363 . S
C696 N694 1.356 . S
C697 C691 1.363 . S
C697 C692 1.386 1_556 S
C697 N695 1.356 . S
N698 C690 1.356 . S
N698 H704 0.984 . S
N698 H705 0.984 . S
N699 C692 1.345 1_655 S
N699 H702 0.984 . S
N699 H703 0.985 1_554 S
H700 N695 0.984 . S
H701 N695 0.985 1_655 S
H702 N699 0.984 . S
H703 N699 0.985 1_556 S
H704 N698 0.984 . S
H705 N698 0.984 . S
H706 N694 0.984 . S
H707 N694 0.985 . S
C708 C709 1.363 . S
C708 C714 1.379 . S
C708 N716 1.356 . S
C709 C708 1.363 . S
C709 C715 1.363 . S
C710 C711 1.363 . S
C710 C715 1.379 . S
C710 N717 1.356 . S
C711 C710 1.363 . S
C711 C714 1.363 . S
N712 C714 1.356 . S
N712 H724 0.984 . S
N712 H725 0.985 . S
N713 C715 1.356 . S
N713 H718 0.984 . S
N713 H719 0.985 . S
C714 C708 1.379 . S
C714 C711 1.363 . S
C714 N712 1.356 . S
C715 C709 1.363 . S
C715 C710 1.379 . S
C715 N713 1.356 . S
N716 C708 1.356 . S
N716 H722 0.984 . S
N716 H723 0.984 . S
N717 C710 1.356 . S
N717 H720 0.984 . S
N717 H721 0.985 . S
H718 N713 0.984 . S
H719 N713 0.985 . S
H720 N717 0.984 . S
H721 N717 0.985 . S
H722 N716 0.984 . S
H723 N716 0.984 . S
H724 N712 0.984 . S
H725 N712 0.985 . S
C726 C727 1.363 . S
C726 C732 1.379 1_655 S
C726 N734 1.356 . S
C727 C726 1.363 . S
C727 C733 1.363 . S
C728 C729 1.363 1_655 S
C728 C733 1.379 . S
C728 N735 1.356 . S
C729 C728 1.363 1_455 S
C729 C732 1.363 . S
N730 C732 1.356 . S
N730 H742 0.984 . S
N730 H743 0.985 . S
N731 C733 1.356 . S
N731 H736 0.984 . S
N731 H737 0.985 . S
C732 C726 1.379 1_455 S
C732 C729 1.363 . S
C732 N730 1.356 . S
C733 C727 1.363 . S
C733 C728 1.379 . S
C733 N731 1.356 . S
N734 C726 1.356 . S
N734 H740 0.984 . S
N734 H741 0.984 . S
N735 C728 1.356 . S
N735 H738 0.984 1_655 S
N735 H739 0.985 . S
H736 N731 0.984 . S
H737 N731 0.985 . S
H738 N735 0.984 1_455 S
H739 N735 0.985 . S
H740 N734 0.984 . S
H741 N734 0.984 . S
H742 N730 0.984 . S
H743 N730 0.985 . S
C744 C745 1.363 . S
C744 C750 1.379 . S
C744 N752 1.356 . S
C745 C744 1.363 . S
C745 C751 1.363 . S
C746 C747 1.363 . S
C746 C751 1.379 1_554 S
C746 N753 1.356 . S
C747 C746 1.363 . S
C747 C750 1.363 1_554 S
N748 C750 1.356 . S
N748 H760 0.984 . S
N748 H761 0.982 1_556 S
N749 C751 1.356 . S
N749 H754 0.984 . S
N749 H755 0.985 1_556 S
C750 C744 1.379 . S
C750 C747 1.363 1_556 S
C750 N748 1.356 . S
C751 C745 1.363 . S
C751 C746 1.379 1_556 S
C751 N749 1.356 . S
N752 C744 1.356 . S
N752 H758 0.984 . S
N752 H759 0.984 . S
N753 C746 1.356 . S
N753 H756 0.984 . S
N753 H757 0.985 . S
H754 N749 0.984 . S
H755 N749 0.985 1_554 S
H756 N753 0.984 . S
H757 N753 0.985 . S
H758 N752 0.984 . S
H759 N752 0.984 . S
H760 N748 0.984 . S
H761 N748 0.982 1_554 S
C762 C763 1.363 . S
C762 C768 1.379 . S
C762 N770 1.356 . S
C763 C762 1.363 . S
C763 C769 1.363 . S
C764 C765 1.363 . S
C764 C769 1.379 . S
C764 N771 1.356 . S
C765 C764 1.363 . S
C765 C768 1.363 . S
N766 C768 1.356 . S
N766 H778 0.984 . S
N766 H779 0.985 . S
N767 C769 1.356 . S
N767 H772 0.984 . S
N767 H773 0.985 . S
C768 C762 1.379 . S
C768 C765 1.363 . S
C768 N766 1.356 . S
C769 C763 1.363 . S
C769 C764 1.379 . S
C769 N767 1.356 . S
N770 C762 1.356 . S
N770 H776 0.984 . S
N770 H777 0.984 . S
N771 C764 1.356 . S
N771 H774 0.984 . S
N771 H775 0.985 . S
H772 N767 0.984 . S
H773 N767 0.985 . S
H774 N771 0.984 . S
H775 N771 0.985 . S
H776 N770 0.984 . S
H777 N770 0.984 . S
H778 N766 0.984 . S
H779 N766 0.985 . S
C780 C781 1.363 . S
C780 C786 1.379 . S
C780 N788 1.356 . S
C781 C780 1.363 . S
C781 C787 1.363 . S
C782 C783 1.363 . S
C782 C787 1.379 . S
C782 N789 1.356 . S
C783 C782 1.363 . S
C783 C786 1.363 . S
N784 C786 1.356 . S
N784 H796 0.984 . S
N784 H797 0.985 . S
N785 C787 1.356 . S
N785 H790 0.984 . S
N785 H791 0.985 . S
C786 C780 1.379 . S
C786 C783 1.363 . S
C786 N784 1.356 . S
C787 C781 1.363 . S
C787 C782 1.379 . S
C787 N785 1.356 . S
N788 C780 1.356 . S
N788 H794 0.984 . S
N788 H795 0.984 . S
N789 C782 1.356 . S
N789 H792 0.984 . S
N789 H793 0.985 . S
H790 N785 0.984 . S
H791 N785 0.985 . S
H792 N789 0.984 . S
H793 N789 0.985 . S
H794 N788 0.984 . S
H795 N788 0.984 . S
H796 N784 0.984 . S
H797 N784 0.985 . S
C798 C799 1.363 . S
C798 C804 1.379 . S
C798 N806 1.356 . S
C799 C798 1.363 . S
C799 C805 1.363 . S
C800 C801 1.363 . S
C800 C805 1.379 . S
C800 N807 1.356 . S
C801 C800 1.363 . S
C801 C804 1.363 . S
N802 C804 1.356 . S
N802 H814 0.984 . S
N802 H815 0.985 . S
N803 C805 1.356 . S
N803 H808 0.984 . S
N803 H809 0.985 . S
C804 C798 1.379 . S
C804 C801 1.363 . S
C804 N802 1.356 . S
C805 C799 1.363 . S
C805 C800 1.379 . S
C805 N803 1.356 . S
N806 C798 1.356 . S
N806 H812 0.984 . S
N806 H813 0.984 . S
N807 C800 1.356 . S
N807 H810 0.984 . S
N807 H811 0.985 . S
H808 N803 0.984 . S
H809 N803 0.985 . S
H810 N807 0.984 . S
H811 N807 0.985 . S
H812 N806 0.984 . S
H813 N806 0.984 . S
H814 N802 0.984 . S
H815 N802 0.985 . S
C816 C817 1.363 . S
C816 C822 1.379 . S
C816 N824 1.356 . S
C817 C816 1.363 . S
C817 C823 1.363 1_545 S
C818 C819 1.363 . S
C818 C823 1.379 . S
C818 N825 1.356 . S
C819 C818 1.363 . S
C819 C822 1.363 1_565 S
N820 C822 1.356 . S
N820 H832 0.984 . S
N820 H833 0.985 1_545 S
N821 C823 1.356 . S
N821 H826 0.984 1_565 S
N821 H827 0.985 . S
C822 C816 1.379 . S
C822 C819 1.363 1_545 S
C822 N820 1.356 . S
C823 C817 1.363 1_565 S
C823 C818 1.379 . S
C823 N821 1.356 . S
N824 C816 1.356 . S
N824 H830 0.984 . S
N824 H831 0.984 . S
N825 C818 1.356 . S
N825 H828 0.984 . S
N825 H829 0.985 . S
H826 N821 0.984 1_545 S
H827 N821 0.985 . S
H828 N825 0.984 . S
H829 N825 0.985 . S
H830 N824 0.984 . S
H831 N824 0.984 . S
H832 N820 0.984 . S
H833 N820 0.985 1_565 S
C834 C835 1.363 . S
C834 C840 1.379 . S
C834 N842 1.356 . S
C835 C834 1.363 . S
C835 C841 1.363 . S
C836 C837 1.363 . S
C836 C841 1.379 . S
C836 N843 1.356 . S
C837 C836 1.363 . S
C837 C840 1.363 . S
N838 C840 1.356 . S
N838 H850 0.984 . S
N838 H851 0.985 . S
N839 C841 1.356 . S
N839 H844 0.984 . S
N839 H845 0.985 . S
C840 C834 1.379 . S
C840 C837 1.363 . S
C840 N838 1.356 . S
C841 C835 1.363 . S
C841 C836 1.379 . S
C841 N839 1.356 . S
N842 C834 1.356 . S
N842 H848 0.984 . S
N842 H849 0.984 . S
N843 C836 1.356 . S
N843 H846 0.984 . S
N843 H847 0.985 . S
H844 N839 0.984 . S
H845 N839 0.985 . S
H846 N843 0.984 . S
H847 N843 0.985 . S
H848 N842 0.984 . S
H849 N842 0.984 . S
H850 N838 0.984 . S
H851 N838 0.985 . S
C852 C853 1.363 . S
C852 C858 1.379 1_565 S
C852 N860 1.356 . S
C853 C852 1.363 . S
C853 C859 1.363 . S
C854 C855 1.363 1_565 S
C854 C859 1.379 . S
C854 N861 1.356 . S
C855 C854 1.363 1_545 S
C855 C858 1.363 . S
N856 C858 1.356 . S
N856 H868 0.984 . S
N856 H869 0.985 . S
N857 C859 1.356 . S
N857 H862 0.984 . S
N857 H863 0.985 . S
C858 C852 1.379 1_545 S
C858 C855 1.363 . S
C858 N856 1.356 . S
C859 C853 1.363 . S
C859 C854 1.379 . S
C859 N857 1.356 . S
N860 C852 1.356 . S
N860 H866 0.984 1_565 S
N860 H867 0.984 . S
N861 C854 1.356 . S
N861 H864 0.984 . S
N861 H865 0.985 . S
H862 N857 0.984 . S
H863 N857 0.985 . S
H864 N861 0.984 . S
H865 N861 0.985 . S
H866 N860 0.984 1_545 S
H867 N860 0.984 . S
H868 N856 0.984 . S
H869 N856 0.985 . S
C870 C871 1.363 . S
C870 C876 1.379 . S
C870 N878 1.356 . S
C871 C870 1.363 . S
C871 C877 1.363 1_556 S
C872 C873 1.363 . S
C872 C877 1.379 . S
C872 N879 1.356 . S
C873 C872 1.363 . S
C873 C876 1.363 1_554 S
N874 C876 1.356 . S
N874 H886 0.984 . S
N874 H887 0.985 1_556 S
N875 C877 1.356 . S
N875 H880 0.984 1_554 S
N875 H881 0.985 . S
C876 C870 1.379 . S
C876 C873 1.363 1_556 S
C876 N874 1.356 . S
C877 C871 1.363 1_554 S
C877 C872 1.379 . S
C877 N875 1.356 . S
N878 C870 1.356 . S
N878 H884 0.984 . S
N878 H885 0.984 . S
N879 C872 1.356 . S
N879 H882 0.984 . S
N879 H883 0.985 . S
H880 N875 0.984 1_556 S
H881 N875 0.985 . S
H882 N879 0.984 . S
H883 N879 0.985 . S
H884 N878 0.984 . S
H885 N878 0.984 . S
H886 N874 0.984 . S
H887 N874 0.985 1_554 S
C888 C889 1.363 . S
C888 C894 1.379 1_455 S
C888 N896 1.356 . S
C889 C888 1.363 . S
C889 C895 1.363 . S
C890 C891 1.363 1_455 S
C890 C895 1.379 . S
C890 N897 1.356 1_455 S
C891 C890 1.363 1_655 S
C891 C894 1.363 . S
N892 C894 1.356 . S
N892 H904 0.984 . S
N892 H905 0.985 . S
N893 C895 1.356 . S
N893 H898 0.984 . S
N893 H899 0.985 . S
C894 C888 1.379 1_655 S
C894 C891 1.363 . S
C894 N892 1.356 . S
C895 C889 1.363 . S
C895 C890 1.379 . S
C895 N893 1.356 . S
N896 C888 1.356 . S
N896 H902 0.984 . S
N896 H903 0.984 . S
N897 C890 1.356 1_655 S
N897 H900 0.984 . S
N897 H901 0.985 . S
H898 N893 0.984 . S
H899 N893 0.985 . S
H900 N897 0.984 . S
H901 N897 0.985 . S
H902 N896 0.984 . S
H903 N896 0.984 . S
H904 N892 0.984 . S
H905 N892 0.985 . S
C906 C907 1.363 . S
C906 C912 1.379 . S
C906 N914 1.356 . S
C907 C906 1.363 . S
C907 C913 1.363 . S
C908 C909 1.363 . S
C908 C913 1.379 . S
C908 N915 1.356 . S
C909 C908 1.363 . S
C909 C912 1.363 . S
N910 C912 1.356 . S
N910 H922 0.984 . S
N910 H923 0.985 . S
N911 C913 1.356 . S
N911 H916 0.984 . S
N911 H917 0.985 . S
C912 C906 1.379 . S
C912 C909 1.363 . S
C912 N910 1.356 . S
C913 C907 1.363 . S
C913 C908 1.379 . S
C913 N911 1.356 . S
N914 C906 1.356 . S
N914 H920 0.984 . S
N914 H921 0.984 . S
N915 C908 1.356 . S
N915 H918 0.984 . S
N915 H919 0.985 . S
H916 N911 0.984 . S
H917 N911 0.985 . S
H918 N915 0.984 . S
H919 N915 0.985 . S
H920 N914 0.984 . S
H921 N914 0.984 . S
H922 N910 0.984 . S
H923 N910 0.985 . S
C924 C925 1.363 . S
C924 C930 1.379 1_655 S
C924 N932 1.356 . S
C925 C924 1.363 . S
C925 C931 1.363 . S
C926 C927 1.363 1_655 S
C926 C931 1.379 . S
C926 N933 1.356 1_655 S
C927 C926 1.363 1_455 S
C927 C930 1.363 . S
N928 C930 1.356 . S
N928 H940 0.984 . S
N928 H941 0.985 . S
N929 C931 1.356 . S
N929 H934 0.984 . S
N929 H935 0.985 . S
C930 C924 1.379 1_455 S
C930 C927 1.363 . S
C930 N928 1.356 . S
C931 C925 1.363 . S
C931 C926 1.379 . S
C931 N929 1.356 . S
N932 C924 1.356 . S
N932 H938 0.995 . S
N932 H939 0.984 . S
N933 C926 1.356 1_455 S
N933 H936 0.984 . S
N933 H937 0.985 1_455 S
H934 N929 0.984 . S
H935 N929 0.985 . S
H936 N933 0.984 . S
H937 N933 0.985 1_655 S
H938 N932 0.995 . S
H939 N932 0.984 . S
H940 N928 0.984 . S
H941 N928 0.985 . S
C942 C943 1.363 . S
C942 C948 1.379 . S
C942 N950 1.356 . S
C943 C942 1.363 . S
C943 C949 1.363 . S
C944 C945 1.363 . S
C944 C949 1.379 . S
C944 N951 1.356 . S
C945 C944 1.363 . S
C945 C948 1.363 . S
N946 C948 1.356 . S
N946 H958 0.984 . S
N946 H959 0.985 . S
N947 C949 1.356 . S
N947 H952 0.984 . S
N947 H953 0.985 . S
C948 C942 1.379 . S
C948 C945 1.363 . S
C948 N946 1.356 . S
C949 C943 1.363 . S
C949 C944 1.379 . S
C949 N947 1.356 . S
N950 C942 1.356 . S
N950 H956 0.984 . S
N950 H957 0.984 . S
N951 C944 1.356 . S
N951 H954 0.984 . S
N951 H955 0.985 . S
H952 N947 0.984 . S
H953 N947 0.985 . S
H954 N951 0.984 . S
H955 N951 0.985 . S
H956 N950 0.984 . S
H957 N950 0.984 . S
H958 N946 0.984 . S
H959 N946 0.985 . S
C960 C961 1.363 . S
C960 C966 1.379 1_545 S
C960 N968 1.356 . S
C961 C960 1.363 . S
C961 C967 1.363 1_545 S
C962 C963 1.363 . S
C962 C967 1.379 . S
C962 N969 1.356 . S
C963 C962 1.363 . S
C963 C966 1.363 . S
N964 C966 1.356 . S
N964 H976 0.984 . S
N964 H977 0.985 . S
N965 C967 1.356 1_545 S
N965 H970 0.984 . S
N965 H971 0.985 1_545 S
C966 C960 1.379 1_565 S
C966 C963 1.363 . S
C966 N964 1.356 . S
C967 C961 1.363 1_565 S
C967 C962 1.379 . S
C967 N965 1.356 1_565 S
N968 C960 1.356 . S
N968 H974 0.984 . S
N968 H975 0.984 . S
N969 C962 1.356 . S
N969 H972 0.984 . S
N969 H973 0.985 . S
H970 N965 0.984 . S
H971 N965 0.985 1_565 S
H972 N969 0.984 . S
H973 N969 0.985 . S
H974 N968 0.984 . S
H975 N968 0.984 . S
H976 N964 0.984 . S
H977 N964 0.985 . S
C978 C979 1.363 . S
C978 C984 1.379 . S
C978 N986 1.356 . S
C979 C978 1.363 . S
C979 C985 1.363 . S
C980 C981 1.363 . S
C980 C985 1.379 . S
C980 N987 1.356 . S
C981 C980 1.363 . S
C981 C984 1.363 . S
N982 C984 1.356 . S
N982 H994 0.984 . S
N982 H995 0.985 . S
N983 C985 1.356 . S
N983 H988 0.984 . S
N983 H989 0.985 . S
C984 C978 1.379 . S
C984 C981 1.363 . S
C984 N982 1.356 . S
C985 C979 1.363 . S
C985 C980 1.379 . S
C985 N983 1.356 . S
N986 C978 1.356 . S
N986 H992 0.984 . S
N986 H993 0.984 . S
N987 C980 1.356 . S
N987 H990 0.984 . S
N987 H991 0.985 . S
H988 N983 0.984 . S
H989 N983 0.985 . S
H990 N987 0.984 . S
H991 N987 0.985 . S
H992 N986 0.984 . S
H993 N986 0.984 . S
H994 N982 0.984 . S
H995 N982 0.985 . S
C996 C997 1.363 . S
C996 C1002 1.399 . S
C996 N1004 1.356 . S
C997 C996 1.363 . S
C997 C1003 1.371 . S
C998 C999 1.363 . S
C998 C1003 1.371 1_565 S
C998 N1005 1.356 . S
C999 C998 1.363 . S
C999 C1002 1.341 1_565 S
N1000 C1002 1.351 1_565 S
N1000 H1012 0.984 1_565 S
N1000 H1013 0.985 . S
N1001 C1003 1.358 . S
N1001 H1006 0.984 . S
N1001 H1007 0.985 1_545 S
C1002 C996 1.399 . S
C1002 C999 1.341 1_545 S
C1002 N1000 1.351 1_545 S
C1003 C997 1.371 . S
C1003 C998 1.371 1_545 S
C1003 N1001 1.358 . S
N1004 C996 1.356 . S
N1004 H1010 0.984 . S
N1004 H1011 0.984 . S
N1005 C998 1.356 . S
N1005 H1008 0.984 . S
N1005 H1009 0.985 . S
H1006 N1001 0.984 . S
H1007 N1001 0.985 1_565 S
H1008 N1005 0.984 . S
H1009 N1005 0.985 . S
H1010 N1004 0.984 . S
H1011 N1004 0.984 . S
H1012 N1000 0.984 1_545 S
H1013 N1000 0.985 . S
C1014 C1015 1.363 . S
C1014 C1020 1.379 1_554 S
C1014 N1022 1.356 . S
C1015 C1014 1.363 . S
C1015 C1021 1.363 1_554 S
C1016 C1017 1.363 . S
C1016 C1021 1.379 . S
C1016 N1023 1.356 . S
C1017 C1016 1.363 . S
C1017 C1020 1.363 . S
N1018 C1020 1.356 . S
N1018 H1030 0.984 1_556 S
N1018 H1031 0.985 . S
N1019 C1021 1.356 . S
N1019 H1024 0.984 1_556 S
N1019 H1025 0.985 . S
C1020 C1014 1.379 1_556 S
C1020 C1017 1.363 . S
C1020 N1018 1.356 . S
C1021 C1015 1.363 1_556 S
C1021 C1016 1.379 . S
C1021 N1019 1.356 . S
N1022 C1014 1.356 . S
N1022 H1028 0.984 . S
N1022 H1029 0.984 . S
N1023 C1016 1.356 . S
N1023 H1026 0.984 . S
N1023 H1027 0.985 . S
H1024 N1019 0.984 1_554 S
H1025 N1019 0.985 . S
H1026 N1023 0.984 . S
H1027 N1023 0.985 . S
H1028 N1022 0.984 . S
H1029 N1022 0.984 . S
H1030 N1018 0.984 1_554 S
H1031 N1018 0.985 . S
C1032 C1033 1.363 . S
C1032 C1038 1.379 1_455 S
C1032 N1040 1.356 . S
C1033 C1032 1.363 . S
C1033 C1039 1.363 . S
C1034 C1035 1.363 . S
C1034 C1039 1.379 1_655 S
C1034 N1041 1.356 . S
C1035 C1034 1.363 . S
C1035 C1038 1.363 . S
N1036 C1038 1.356 . S
N1036 H1048 0.984 . S
N1036 H1049 0.985 . S
N1037 C1039 1.356 . S
N1037 H1042 0.984 . S
N1037 H1043 0.985 . S
C1038 C1032 1.379 1_655 S
C1038 C1035 1.363 . S
C1038 N1036 1.356 . S
C1039 C1033 1.363 . S
C1039 C1034 1.379 1_455 S
C1039 N1037 1.356 . S
N1040 C1032 1.356 . S
N1040 H1046 0.984 . S
N1040 H1047 0.984 . S
N1041 C1034 1.356 . S
N1041 H1044 0.984 . S
N1041 H1045 0.985 . S
H1042 N1037 0.984 . S
H1043 N1037 0.985 . S
H1044 N1041 0.984 . S
H1045 N1041 0.985 . S
H1046 N1040 0.984 . S
H1047 N1040 0.984 . S
H1048 N1036 0.984 . S
H1049 N1036 0.985 . S
C1050 C1051 1.363 . S
C1050 C1056 1.379 . S
C1050 N1058 1.356 . S
C1051 C1050 1.363 . S
C1051 C1057 1.363 . S
C1052 C1053 1.363 . S
C1052 C1057 1.379 . S
C1052 N1059 1.356 . S
C1053 C1052 1.363 . S
C1053 C1056 1.363 . S
N1054 C1056 1.356 . S
N1054 H1066 0.984 . S
N1054 H1067 0.985 . S
N1055 C1057 1.356 . S
N1055 H1060 0.984 . S
N1055 H1061 0.985 . S
C1056 C1050 1.379 . S
C1056 C1053 1.363 . S
C1056 N1054 1.356 . S
C1057 C1051 1.363 . S
C1057 C1052 1.379 . S
C1057 N1055 1.356 . S
N1058 C1050 1.356 . S
N1058 H1064 0.984 . S
N1058 H1065 0.984 . S
N1059 C1052 1.356 . S
N1059 H1062 0.984 . S
N1059 H1063 0.985 . S
H1060 N1055 0.984 . S
H1061 N1055 0.985 . S
H1062 N1059 0.984 . S
H1063 N1059 0.985 . S
H1064 N1058 0.984 . S
H1065 N1058 0.984 . S
H1066 N1054 0.984 . S
H1067 N1054 0.985 . S
C1068 C1069 1.363 . S
C1068 C1074 1.379 1_655 S
C1068 N1076 1.356 . S
C1069 C1068 1.363 . S
C1069 C1075 1.363 1_655 S
C1070 C1071 1.363 . S
C1070 C1075 1.379 . S
C1070 N1077 1.356 . S
C1071 C1070 1.363 . S
C1071 C1074 1.363 . S
N1072 C1074 1.356 . S
N1072 H1084 0.984 . S
N1072 H1085 0.985 . S
N1073 C1075 1.356 1_655 S
N1073 H1078 0.984 . S
N1073 H1079 0.985 1_655 S
C1074 C1068 1.379 1_455 S
C1074 C1071 1.363 . S
C1074 N1072 1.356 . S
C1075 C1069 1.363 1_455 S
C1075 C1070 1.379 . S
C1075 N1073 1.356 1_455 S
N1076 C1068 1.356 . S
N1076 H1082 0.984 . S
N1076 H1083 0.984 . S
N1077 C1070 1.356 . S
N1077 H1080 0.984 . S
N1077 H1081 0.985 . S
H1078 N1073 0.984 . S
H1079 N1073 0.985 1_455 S
H1080 N1077 0.984 . S
H1081 N1077 0.985 . S
H1082 N1076 0.984 . S
H1083 N1076 0.984 . S
H1084 N1072 0.984 . S
H1085 N1072 0.985 . S
C1086 C1087 1.363 . S
C1086 C1092 1.379 . S
C1086 N1094 1.356 . S
C1087 C1086 1.363 . S
C1087 C1093 1.363 . S
C1088 C1089 1.363 . S
C1088 C1093 1.379 . S
C1088 N1095 1.356 . S
C1089 C1088 1.363 . S
C1089 C1092 1.363 . S
N1090 C1092 1.356 . S
N1090 H1102 0.984 . S
N1090 H1103 0.985 . S
N1091 C1093 1.356 . S
N1091 H1096 0.984 . S
N1091 H1097 0.985 . S
C1092 C1086 1.379 . S
C1092 C1089 1.363 . S
C1092 N1090 1.356 . S
C1093 C1087 1.363 . S
C1093 C1088 1.379 . S
C1093 N1091 1.356 . S
N1094 C1086 1.356 . S
N1094 H1100 0.984 . S
N1094 H1101 0.984 . S
N1095 C1088 1.356 . S
N1095 H1098 0.984 . S
N1095 H1099 0.985 . S
H1096 N1091 0.984 . S
H1097 N1091 0.985 . S
H1098 N1095 0.984 . S
H1099 N1095 0.985 . S
H1100 N1094 0.984 . S
H1101 N1094 0.984 . S
H1102 N1090 0.984 . S
H1103 N1090 0.985 . S
C1104 C1105 1.363 . S
C1104 C1110 1.379 . S
C1104 N1112 1.356 . S
C1105 C1104 1.363 . S
C1105 C1111 1.363 . S
C1106 C1107 1.363 . S
C1106 C1111 1.379 . S
C1106 N1113 1.356 . S
C1107 C1106 1.363 . S
C1107 C1110 1.363 . S
N1108 C1110 1.356 . S
N1108 H1120 0.984 . S
N1108 H1121 0.985 . S
N1109 C1111 1.356 . S
N1109 H1114 0.984 . S
N1109 H1115 0.985 . S
C1110 C1104 1.379 . S
C1110 C1107 1.363 . S
C1110 N1108 1.356 . S
C1111 C1105 1.363 . S
C1111 C1106 1.379 . S
C1111 N1109 1.356 . S
N1112 C1104 1.356 . S
N1112 H1118 0.984 . S
N1112 H1119 0.984 . S
N1113 C1106 1.356 . S
N1113 H1116 0.984 . S
N1113 H1117 0.985 . S
H1114 N1109 0.984 . S
H1115 N1109 0.985 . S
H1116 N1113 0.984 . S
H1117 N1113 0.985 . S
H1118 N1112 0.984 . S
H1119 N1112 0.984 . S
H1120 N1108 0.984 . S
H1121 N1108 0.985 . S
C1122 C1123 1.363 . S
C1122 C1128 1.379 1_556 S
C1122 N1130 1.356 . S
C1123 C1122 1.363 . S
C1123 C1129 1.363 . S
C1124 C1125 1.363 1_556 S
C1124 C1129 1.379 . S
C1124 N1131 1.356 . S
C1125 C1124 1.363 1_554 S
C1125 C1128 1.363 . S
N1126 C1128 1.356 . S
N1126 H1138 0.984 . S
N1126 H1139 0.985 . S
N1127 C1129 1.356 . S
N1127 H1132 0.984 . S
N1127 H1133 0.985 . S
C1128 C1122 1.379 1_554 S
C1128 C1125 1.363 . S
C1128 N1126 1.356 . S
C1129 C1123 1.363 . S
C1129 C1124 1.379 . S
C1129 N1127 1.356 . S
N1130 C1122 1.356 . S
N1130 H1136 0.984 1_556 S
N1130 H1137 0.984 . S
N1131 C1124 1.356 . S
N1131 H1134 0.984 1_556 S
N1131 H1135 0.985 . S
H1132 N1127 0.984 . S
H1133 N1127 0.985 . S
H1134 N1131 0.984 1_554 S
H1135 N1131 0.985 . S
H1136 N1130 0.984 1_554 S
H1137 N1130 0.984 . S
H1138 N1126 0.984 . S
H1139 N1126 0.985 . S
C1140 C1141 1.363 . S
C1140 C1146 1.379 . S
C1140 N1148 1.356 . S
C1141 C1140 1.363 . S
C1141 C1147 1.363 . S
C1142 C1143 1.363 . S
C1142 C1147 1.379 . S
C1142 N1149 1.356 . S
C1143 C1142 1.363 . S
C1143 C1146 1.363 . S
N1144 C1146 1.356 . S
N1144 H1156 0.984 . S
N1144 H1157 0.985 . S
N1145 C1147 1.356 . S
N1145 H1150 0.984 . S
N1145 H1151 0.985 . S
C1146 C1140 1.379 . S
C1146 C1143 1.363 . S
C1146 N1144 1.356 . S
C1147 C1141 1.363 . S
C1147 C1142 1.379 . S
C1147 N1145 1.356 . S
N1148 C1140 1.356 . S
N1148 H1154 0.984 . S
N1148 H1155 0.984 . S
N1149 C1142 1.356 . S
N1149 H1152 0.984 . S
N1149 H1153 0.985 . S
H1150 N1145 0.984 . S
H1151 N1145 0.985 . S
H1152 N1149 0.984 . S
H1153 N1149 0.985 . S
H1154 N1148 0.984 . S
H1155 N1148 0.984 . S
H1156 N1144 0.984 . S
H1157 N1144 0.985 . S
C1158 C1159 1.363 . S
C1158 C1164 1.379 . S
C1158 N1166 1.356 . S
C1159 C1158 1.363 . S
C1159 C1165 1.363 . S
C1160 C1161 1.363 . S
C1160 C1165 1.379 . S
C1160 N1167 1.356 . S
C1161 C1160 1.363 . S
C1161 C1164 1.363 . S
N1162 C1164 1.356 . S
N1162 H1174 0.984 . S
N1162 H1175 0.985 . S
N1163 C1165 1.356 . S
N1163 H1168 0.984 . S
N1163 H1169 0.985 . S
C1164 C1158 1.379 . S
C1164 C1161 1.363 . S
C1164 N1162 1.356 . S
C1165 C1159 1.363 . S
C1165 C1160 1.379 . S
C1165 N1163 1.356 . S
N1166 C1158 1.356 . S
N1166 H1172 0.984 . S
N1166 H1173 0.984 . S
N1167 C1160 1.356 . S
N1167 H1170 0.984 . S
N1167 H1171 0.985 . S
H1168 N1163 0.984 . S
H1169 N1163 0.985 . S
H1170 N1167 0.984 . S
H1171 N1167 0.985 . S
H1172 N1166 0.984 . S
H1173 N1166 0.984 . S
H1174 N1162 0.984 . S
H1175 N1162 0.985 . S
C1176 C1177 1.363 . S
C1176 C1182 1.379 . S
C1176 N1184 1.356 . S
C1177 C1176 1.363 . S
C1177 C1183 1.363 . S
C1178 C1179 1.363 . S
C1178 C1183 1.379 . S
C1178 N1185 1.356 . S
C1179 C1178 1.363 . S
C1179 C1182 1.363 . S
N1180 C1182 1.356 . S
N1180 H1192 0.984 . S
N1180 H1193 0.985 . S
N1181 C1183 1.356 . S
N1181 H1186 0.984 . S
N1181 H1187 0.985 . S
C1182 C1176 1.379 . S
C1182 C1179 1.363 . S
C1182 N1180 1.356 . S
C1183 C1177 1.363 . S
C1183 C1178 1.379 . S
C1183 N1181 1.356 . S
N1184 C1176 1.356 . S
N1184 H1190 0.984 . S
N1184 H1191 0.984 . S
N1185 C1178 1.356 . S
N1185 H1188 0.984 . S
N1185 H1189 0.985 . S
H1186 N1181 0.984 . S
H1187 N1181 0.985 . S
H1188 N1185 0.984 . S
H1189 N1185 0.985 . S
H1190 N1184 0.984 . S
H1191 N1184 0.984 . S
H1192 N1180 0.984 . S
H1193 N1180 0.985 . S
C1194 C1195 1.363 . S
C1194 C1200 1.379 1_556 S
C1194 N1202 1.356 . S
C1195 C1194 1.363 . S
C1195 C1201 1.363 1_556 S
C1196 C1197 1.363 . S
C1196 C1201 1.379 . S
C1196 N1203 1.356 . S
C1197 C1196 1.363 . S
C1197 C1200 1.363 . S
N1198 C1200 1.356 . S
N1198 H1210 0.984 1_554 S
N1198 H1211 0.985 . S
N1199 C1201 1.356 . S
N1199 H1204 0.984 1_554 S
N1199 H1205 0.985 . S
C1200 C1194 1.379 1_554 S
C1200 C1197 1.363 . S
C1200 N1198 1.356 . S
C1201 C1195 1.363 1_554 S
C1201 C1196 1.379 . S
C1201 N1199 1.356 . S
N1202 C1194 1.356 . S
N1202 H1208 0.984 . S
N1202 H1209 0.984 . S
N1203 C1196 1.356 . S
N1203 H1206 0.984 . S
N1203 H1207 0.985 . S
H1204 N1199 0.984 1_556 S
H1205 N1199 0.985 . S
H1206 N1203 0.984 . S
H1207 N1203 0.985 . S
H1208 N1202 0.984 . S
H1209 N1202 0.984 . S
H1210 N1198 0.984 1_556 S
H1211 N1198 0.985 . S
C1212 C1213 1.363 . S
C1212 C1218 1.379 . S
C1212 N1220 1.356 . S
C1213 C1212 1.363 . S
C1213 C1219 1.363 . S
C1214 C1215 1.363 . S
C1214 C1219 1.379 . S
C1214 N1221 1.356 . S
C1215 C1214 1.363 . S
C1215 C1218 1.363 . S
N1216 C1218 1.356 . S
N1216 H1228 0.984 . S
N1216 H1229 0.985 . S
N1217 C1219 1.356 . S
N1217 H1222 0.984 . S
N1217 H1223 0.985 . S
C1218 C1212 1.379 . S
C1218 C1215 1.363 . S
C1218 N1216 1.356 . S
C1219 C1213 1.363 . S
C1219 C1214 1.379 . S
C1219 N1217 1.356 . S
N1220 C1212 1.356 . S
N1220 H1226 0.984 . S
N1220 H1227 0.984 . S
N1221 C1214 1.356 . S
N1221 H1224 0.984 . S
N1221 H1225 0.985 . S
H1222 N1217 0.984 . S
H1223 N1217 0.985 . S
H1224 N1221 0.984 . S
H1225 N1221 0.985 . S
H1226 N1220 0.984 . S
H1227 N1220 0.984 . S
H1228 N1216 0.984 . S
H1229 N1216 0.985 . S
C1230 C1231 1.363 . S
C1230 C1236 1.379 . S
C1230 N1238 1.356 . S
C1231 C1230 1.363 . S
C1231 C1237 1.363 . S
C1232 C1233 1.363 . S
C1232 C1237 1.379 . S
C1232 N1239 1.356 . S
C1233 C1232 1.363 . S
C1233 C1236 1.363 . S
N1234 C1236 1.356 . S
N1234 H1246 0.984 . S
N1234 H1247 0.985 . S
N1235 C1237 1.356 . S
N1235 H1240 0.984 . S
N1235 H1241 0.985 . S
C1236 C1230 1.379 . S
C1236 C1233 1.363 . S
C1236 N1234 1.356 . S
C1237 C1231 1.363 . S
C1237 C1232 1.379 . S
C1237 N1235 1.356 . S
N1238 C1230 1.356 . S
N1238 H1244 0.984 . S
N1238 H1245 0.984 . S
N1239 C1232 1.356 . S
N1239 H1242 0.984 . S
N1239 H1243 0.985 . S
H1240 N1235 0.984 . S
H1241 N1235 0.985 . S
H1242 N1239 0.984 . S
H1243 N1239 0.985 . S
H1244 N1238 0.984 . S
H1245 N1238 0.984 . S
H1246 N1234 0.984 . S
H1247 N1234 0.985 . S
C529 N13 1.462 . S
C531 N497 1.478 . S
C547 N277 1.850 . S
C549 N46 1.843 1_545 S
C565 N409 1.656 . S
C567 N68 1.678 . S
C583 N101 1.853 1_565 S
C585 N343 1.794 . S
C601 N365 1.860 . S
C603 N35 1.870 . S
C619 N79 1.688 . S
C621 N299 1.697 . S
C637 N112 1.786 . S
C639 N431 1.824 . S
C655 N2 1.498 . S
C657 N244 1.466 . S
C673 N266 1.860 . S
C675 N134 1.870 . S
C691 N398 1.697 . S
C693 N178 1.688 1_455 S
C709 N211 1.786 . S
C711 N332 1.824 . S
C727 N200 1.853 . S
C729 N442 1.794 . S
C745 N145 1.852 . S
C747 N376 1.850 . S
C763 N475 1.462 . S
C765 N233 1.478 . S
C781 N310 1.656 . S
C783 N167 1.678 . S
C799 N508 1.466 . S
C801 N464 1.498 . S
C817 C21 1.196 . S
C819 C51 1.196 . S
C835 C40 1.220 . S
C837 C87 1.222 . S
C853 C73 1.462 . S
C855 C106 1.461 . S
C871 C117 1.452 . S
C873 C7 1.442 . S
C889 C18 1.061 . S
C891 C183 1.061 . S
C907 C153 0.920 . S
C909 C120 0.920 . S
C925 C219 0.920 . S
C927 C54 0.920 . S
C943 C480 1.061 . S
C945 C84 1.061 . S
C961 C285 0.926 . S
C963 C238 0.927 . S
C979 C271 1.324 . S
C981 C304 1.328 . S
C997 C315 1.513 . S
C999 C348 1.513 . S
C1015 C351 1.084 . S
C1017 C249 1.083 . S
C1033 C417 1.027 . S
C1035 C252 1.027 . S
C1051 C381 1.349 . S
C1053 C337 1.349 . S
C1069 C282 1.349 . S
C1071 C436 1.349 . S
C1087 C516 1.027 . S
C1089 C318 1.027 . S
C1105 C150 1.196 . S
C1107 C483 1.196 . S
C1123 C139 1.220 . S
C1125 C186 1.222 . S
C1141 C172 1.462 . S
C1143 C205 1.461 . S
C1159 C469 1.442 . S
C1161 C216 1.452 . S
C1177 C384 0.926 . S
C1179 C502 0.927 . S
C1195 C403 1.328 . S
C1197 C370 1.324 . S
C1213 C414 1.513 . S
C1215 C447 1.513 . S
C1231 C513 1.083 . S
C1233 C450 1.084 . S
