# Generated by pormake.
# Topology snz, (6)-cn, num edge types: 1
# Building blocks:
#     Node 0, Type 0, BuildingBlock: BETGAK_clean_sbu_0, # of connection points: 6
#     Node 1, Type 0, BuildingBlock: BETGAK_clean_sbu_0, # of connection points: 6
#     Node 2, Type 0, BuildingBlock: BETGAK_clean_sbu_0, # of connection points: 6
#     Node 3, Type 0, BuildingBlock: BETGAK_clean_sbu_0, # of connection points: 6
#     Node 4, Type 0, BuildingBlock: BETGAK_clean_sbu_0, # of connection points: 6
#     Node 5, Type 0, BuildingBlock: BETGAK_clean_sbu_0, # of connection points: 6
#     Node 6, Type 0, BuildingBlock: BETGAK_clean_sbu_0, # of connection points: 6
#     Node 7, Type 0, BuildingBlock: BETGAK_clean_sbu_0, # of connection points: 6
#     Node 8, Type 0, BuildingBlock: BETGAK_clean_sbu_0, # of connection points: 6
#     Edge 9, Type (0, 0), BuildingBlock: OJICUG_clean_linker_0, # of connection points: 2
#     Edge 10, Type (0, 0), BuildingBlock: OJICUG_clean_linker_0, # of connection points: 2
#     Edge 11, Type (0, 0), BuildingBlock: OJICUG_clean_linker_0, # of connection points: 2
#     Edge 12, Type (0, 0), BuildingBlock: OJICUG_clean_linker_0, # of connection points: 2
#     Edge 13, Type (0, 0), BuildingBlock: OJICUG_clean_linker_0, # of connection points: 2
#     Edge 14, Type (0, 0), BuildingBlock: OJICUG_clean_linker_0, # of connection points: 2
#     Edge 15, Type (0, 0), BuildingBlock: OJICUG_clean_linker_0, # of connection points: 2
#     Edge 16, Type (0, 0), BuildingBlock: OJICUG_clean_linker_0, # of connection points: 2
#     Edge 17, Type (0, 0), BuildingBlock: OJICUG_clean_linker_0, # of connection points: 2
#     Edge 18, Type (0, 0), BuildingBlock: OJICUG_clean_linker_0, # of connection points: 2
#     Edge 19, Type (0, 0), BuildingBlock: OJICUG_clean_linker_0, # of connection points: 2
#     Edge 20, Type (0, 0), BuildingBlock: OJICUG_clean_linker_0, # of connection points: 2
#     Edge 21, Type (0, 0), BuildingBlock: OJICUG_clean_linker_0, # of connection points: 2
#     Edge 22, Type (0, 0), BuildingBlock: OJICUG_clean_linker_0, # of connection points: 2
#     Edge 23, Type (0, 0), BuildingBlock: OJICUG_clean_linker_0, # of connection points: 2
#     Edge 24, Type (0, 0), BuildingBlock: OJICUG_clean_linker_0, # of connection points: 2
#     Edge 25, Type (0, 0), BuildingBlock: OJICUG_clean_linker_0, # of connection points: 2
#     Edge 26, Type (0, 0), BuildingBlock: OJICUG_clean_linker_0, # of connection points: 2
#     Edge 27, Type (0, 0), BuildingBlock: OJICUG_clean_linker_0, # of connection points: 2
#     Edge 28, Type (0, 0), BuildingBlock: OJICUG_clean_linker_0, # of connection points: 2
#     Edge 29, Type (0, 0), BuildingBlock: OJICUG_clean_linker_0, # of connection points: 2
#     Edge 30, Type (0, 0), BuildingBlock: OJICUG_clean_linker_0, # of connection points: 2
#     Edge 31, Type (0, 0), BuildingBlock: OJICUG_clean_linker_0, # of connection points: 2
#     Edge 32, Type (0, 0), BuildingBlock: OJICUG_clean_linker_0, # of connection points: 2
#     Edge 33, Type (0, 0), BuildingBlock: OJICUG_clean_linker_0, # of connection points: 2
#     Edge 34, Type (0, 0), BuildingBlock: OJICUG_clean_linker_0, # of connection points: 2
#     Edge 35, Type (0, 0), BuildingBlock: OJICUG_clean_linker_0, # of connection points: 2
# Relax obj value: 0.634
# Max RMSD: 0.285
# Mean RMSD: 0.190
data_MOF--net-snz--node1-BETGAK_clean_sbu_0--edge1-OJICUG_clean_linker_0
_symmetry_space_group_name_H-M    P1
_symmetry_Int_Tables_number       1
_symmetry_cell_setting            triclinic
loop_
_symmetry_equiv_pos_as_xyz
'x, y, z'
_cell_length_a     52.48484
_cell_length_b     39.947144
_cell_length_c     11.653116
_cell_angle_alpha  96.919076
_cell_angle_beta   98.940402
_cell_angle_gamma 121.56863
loop_
_atom_site_label
_atom_site_type_symbol
_atom_site_fract_x
_atom_site_fract_y
_atom_site_fract_z
_atom_type_partial_charge
La0 La 0.1939 0.52474 0.32297 0.0
La1 La 0.1574 0.53286 0.30446 0.0
C2 C 0.23741 0.51321 0.34116 0.0
C3 C 0.24972 0.49536 0.41826 0.0
C4 C 0.2818 0.51485 0.46109 0.0
C5 C 0.29403 0.49663 0.52445 0.0
C6 C 0.27442 0.45825 0.54546 0.0
C7 C 0.24219 0.43951 0.50635 0.0
C8 C 0.22997 0.4579 0.44374 0.0
C9 C 0.16564 0.503 1.05379 0.0
C10 C 0.13246 0.44394 0.24129 0.0
C11 C 0.11307 0.54222 0.30063 0.0
C12 C 0.09497 0.55287 0.22281 0.0
C13 C 1.06548 0.54129 0.23502 0.0
C14 C 1.04939 0.55529 0.17283 0.0
C15 C 1.06275 0.5814 1.09837 0.0
C16 C 0.09183 0.59168 1.08285 0.0
C17 C 0.10778 0.5774 1.14424 0.0
C18 C 0.15935 0.50185 0.5325 0.0
C19 C 0.21683 0.61419 0.36595 0.0
O20 O 0.20978 0.48836 0.27061 0.0
O21 O 0.24119 0.54707 0.39044 0.0
O22 O 0.17896 0.53331 1.14731 0.0
O23 O 0.17891 0.5326 0.14997 0.0
O24 O 0.1601 0.46013 0.31048 0.0
O25 O 0.12593 0.46933 0.21003 0.0
O26 O 0.14216 0.57076 0.34625 0.0
O27 O 0.10925 0.50741 0.26354 0.0
O28 O 0.17643 0.53138 0.48512 0.0
O29 O 0.17576 0.53074 0.48175 0.0
O30 O 0.18855 0.5958 0.30005 0.0
O31 O 0.22499 0.59065 0.40383 0.0
H32 H 0.29746 0.54381 0.44315 0.0
H33 H 0.31894 0.5124 0.55528 0.0
H34 H 0.22635 0.40986 0.51976 0.0
H35 H 0.20507 0.44218 0.41229 0.0
H36 H 1.05533 0.52247 0.2957 0.0
H37 H 1.02709 0.54705 0.18677 0.0
H38 H 0.10244 0.61129 1.02457 0.0
H39 H 0.1305 0.58651 1.13326 0.0
La40 La 0.69526 0.54508 1.07793 0.0
La41 La 0.65643 0.54887 1.06169 0.0
C42 C 0.74355 0.54329 1.10789 0.0
C43 C 0.77086 0.55864 1.05841 0.0
C44 C 0.78691 0.53952 1.06178 0.0
C45 C 0.81413 0.55539 1.02319 0.0
C46 C 0.826 0.59095 0.98089 0.0
C47 C 0.80933 0.60949 0.97554 0.0
C48 C 0.78206 0.59345 1.01341 0.0
C49 C 0.68909 0.56294 0.33324 0.0
C50 C 0.71356 0.63243 0.15336 0.0
C51 C 0.60818 0.54957 1.03838 0.0
C52 C 0.58728 0.53646 1.11703 0.0
C53 C 0.56187 0.53999 1.10242 0.0
C54 C 0.54305 0.52816 0.18219 0.0
C55 C 0.54956 0.51274 0.27719 0.0
C56 C 0.5748 0.50872 0.28935 0.0
C57 C 0.59352 0.52065 0.21061 0.0
C58 C 0.66235 0.53029 0.80639 0.0
C59 C 0.6357 0.46129 0.99604 0.0
O60 O 0.71685 0.51461 1.03629 0.0
O61 O 0.74142 0.57063 0.17008 0.0
O62 O 0.67425 0.53624 0.23091 0.0
O63 O 0.67485 0.53696 0.22899 0.0
O64 O 0.72274 0.61145 1.09963 0.0
O65 O 0.68568 0.61137 0.1677 0.0
O66 O 0.6359 0.58132 1.09011 0.0
O67 O 0.60923 0.5208 0.97831 0.0
O68 O 0.67732 0.55717 0.90835 0.0
O69 O 0.67678 0.55654 0.91019 0.0
O70 O 0.62795 0.48377 1.04983 0.0
O71 O 0.66337 0.48101 0.97719 0.0
H72 H 0.77863 0.51257 1.09596 0.0
H73 H 0.82588 0.53978 1.02692 0.0
H74 H 0.81778 0.63719 0.94548 0.0
H75 H 0.77009 0.60881 1.00999 0.0
H76 H 0.55678 0.55214 1.03048 0.0
H77 H 0.52378 0.53171 0.17075 0.0
H78 H 0.58006 0.49606 0.35942 0.0
H79 H 0.61305 0.51767 0.22319 0.0
La80 La 0.64369 0.07997 0.86382 0.0
La81 La 0.69101 0.13113 0.90819 0.0
C82 C 0.58906 1.01813 0.80541 0.0
C83 C 0.56887 0.99987 0.8839 0.0
C84 C 0.54257 0.9603 0.84507 0.0
C85 C 0.5248 0.94248 0.92428 0.0
C86 C 0.53319 0.96408 1.04336 0.0
C87 C 0.55956 1.00391 1.081 0.0
C88 C 0.57731 1.02151 1.00226 0.0
C89 C 0.65672 0.10924 0.63481 0.0
C90 C 0.64237 0.1541 0.87037 0.0
C91 C 0.75004 0.18271 0.97096 0.0
C92 C 0.77816 0.18371 0.94989 0.0
C93 C 0.80392 0.21918 0.93623 0.0
C94 C 0.83148 0.22158 0.92932 0.0
C95 C 0.83442 0.18839 0.93467 0.0
C96 C 0.8084 0.15285 0.94817 0.0
C97 C 0.78107 0.15077 0.95665 0.0
C98 C 0.67826 0.10588 1.14151 0.0
C99 C 0.68426 0.05147 0.92499 0.0
O100 O 0.61354 1.01666 0.82409 0.0
O101 O 0.59605 0.05416 0.79769 0.0
O102 O 0.66613 0.09538 0.7156 0.0
O103 O 0.66567 0.09545 0.71786 0.0
O104 O 0.62667 0.11831 0.89012 0.0
O105 O 0.67101 0.16746 0.86204 0.0
O106 O 0.73132 0.1833 0.88429 0.0
O107 O 0.7342 0.15693 1.02981 0.0
O108 O 0.66826 0.11791 1.05638 0.0
O109 O 0.66876 0.1178 1.05405 0.0
O110 O 0.70017 0.08287 0.88178 0.0
O111 O 0.65898 0.04589 0.94571 0.0
H112 H 0.53602 0.94307 0.75433 0.0
H113 H 0.5048 0.91163 0.89274 0.0
H114 H 0.56639 1.02173 0.17107 0.0
H115 H 0.59781 0.05204 1.03406 0.0
H116 H 0.80305 0.2456 0.93382 0.0
H117 H 0.85074 0.25012 0.9224 0.0
H118 H 0.80889 0.12626 0.95183 0.0
H119 H 0.76228 0.12342 0.97112 0.0
La120 La 0.84958 0.89175 0.37052 0.0
La121 La 0.81284 0.89883 0.35041 0.0
C122 C 0.89521 0.88496 0.38181 0.0
C123 C 0.91448 0.87842 0.46904 0.0
C124 C 0.94278 0.8866 0.45167 0.0
C125 C 0.95942 0.8751 0.52263 0.0
C126 C 0.94778 0.85468 0.61134 0.0
C127 C 0.92039 0.84914 0.63385 0.0
C128 C 0.90386 0.86097 0.5632 0.0
C129 C 0.84739 0.92196 1.14094 0.0
C130 C 0.79083 0.80962 0.30298 0.0
C131 C 0.76883 0.90942 0.33603 0.0
C132 C 0.75494 0.92583 0.26109 0.0
C133 C 0.73632 0.93673 0.30513 0.0
C134 C 0.7244 0.95496 0.24083 0.0
C135 C 0.73064 0.96253 1.13008 0.0
C136 C 0.74943 0.95153 1.086 0.0
C137 C 0.76156 0.93339 0.15121 0.0
C138 C 0.84079 0.92086 0.61995 0.0
C139 C 0.87379 0.98019 0.43169 0.0
O140 O 0.86637 0.85492 0.341 0.0
O141 O 0.89789 0.91948 0.40711 0.0
O142 O 0.83054 0.89237 0.18857 0.0
O143 O 0.83121 0.89304 0.19196 0.0
O144 O 0.81896 0.82825 0.3706 0.0
O145 O 0.78239 0.83305 0.26624 0.0
O146 O 0.76538 0.87571 0.28726 0.0
O147 O 0.797 0.93561 0.39996 0.0
O148 O 0.82773 0.89053 0.5266 0.0
O149 O 0.8278 0.89129 0.524 0.0
O150 O 0.84629 0.96349 0.3605 0.0
O151 O 0.88028 0.95516 0.46613 0.0
H152 H 0.95127 0.90009 0.37933 0.0
H153 H 0.98014 0.8794 0.50131 0.0
H154 H 0.9111 0.83421 0.70283 0.0
H155 H 0.88214 0.85487 0.57857 0.0
H156 H 0.73142 0.93178 0.39075 0.0
H157 H 0.71076 0.9639 0.27956 0.0
H158 H 0.75464 0.95671 1.00103 0.0
H159 H 0.77629 0.92563 1.11659 0.0
La160 La 0.35288 0.87481 0.59728 0.0
La161 La 0.3139 0.87847 0.5796 0.0
C162 C 0.40089 0.87344 0.62133 0.0
C163 C 0.4215 0.88514 0.54142 0.0
C164 C 0.44711 0.88201 0.55879 0.0
C165 C 0.46567 0.89249 0.47789 0.0
C166 C 0.45866 0.90606 0.37886 0.0
C167 C 0.43317 0.9096 0.36374 0.0
C168 C 0.41477 0.89913 0.44384 0.0
C169 C 0.34669 0.89374 0.85193 0.0
C170 C 0.37321 0.9626 0.66082 0.0
C171 C 0.26437 0.87729 0.54424 0.0
C172 C 0.23519 0.85777 0.58344 0.0
C173 C 0.23121 0.87892 0.6769 0.0
C174 C 0.2031 0.86083 0.70957 0.0
C175 C 0.17821 0.82132 0.64872 0.0
C176 C 0.18229 0.80022 0.55555 0.0
C177 C 0.21033 0.81819 0.52319 0.0
C178 C 0.32067 0.86066 0.32556 0.0
C179 C 0.29569 0.79128 0.50687 0.0
O180 O 0.37302 0.84172 0.5717 0.0
O181 O 0.40021 0.90292 0.67881 0.0
O182 O 0.33188 0.86675 0.7502 0.0
O183 O 0.33243 0.86738 0.74831 0.0
O184 O 0.38137 0.94006 0.61018 0.0
O185 O 0.34524 0.94294 0.67722 0.0
O186 O 0.29004 0.90565 0.62274 0.0
O187 O 0.2687 0.85313 0.47762 0.0
O188 O 0.33534 0.88745 0.42778 0.0
O189 O 0.33472 0.88672 0.42967 0.0
O190 O 0.28675 0.8124 0.5612 0.0
O191 O 0.32344 0.81221 0.49112 0.0
H192 H 0.45258 0.87128 0.63389 0.0
H193 H 0.48515 0.8894 0.49177 0.0
H194 H 0.42752 0.92088 0.29045 0.0
H195 H 0.39512 0.90188 0.42934 0.0
H196 H 0.24971 0.90962 0.724 0.0
H197 H 0.20063 0.87813 0.7808 0.0
H198 H 0.16381 0.7696 0.50771 0.0
H199 H 0.21236 0.801 0.45004 0.0
La200 La 0.31551 0.28823 0.74555 0.0
La201 La 0.36274 0.33894 0.78812 0.0
C202 C 0.25629 0.23796 0.68422 0.0
C203 C 0.22852 0.23748 0.70778 0.0
C204 C 0.2017 0.20129 0.71155 0.0
C205 C 0.17436 0.19944 0.71906 0.0
C206 C 0.17264 0.23385 0.72364 0.0
C207 C 0.1997 0.27015 0.72029 0.0
C208 C 0.22692 0.27182 0.71191 0.0
C209 C 0.32774 0.31277 0.51051 0.0
C210 C 0.32243 0.36771 0.72815 0.0
C211 C 0.41756 0.40032 0.84606 0.0
C212 C 0.43796 0.41819 0.76802 0.0
C213 C 0.46489 0.45721 0.80806 0.0
C214 C 0.48302 0.47468 0.72958 0.0
C215 C 0.47437 0.45328 0.61006 0.0
C216 C 0.44739 0.41399 0.57119 0.0
C217 C 0.42929 0.39673 0.64925 0.0
C218 C 0.34978 0.30974 1.01793 0.0
C219 C 0.36368 0.2645 0.7796 0.0
O220 O 0.27488 0.23625 0.76855 0.0
O221 O 0.27227 0.26414 0.62661 0.0
O222 O 0.33778 0.30084 0.59584 0.0
O223 O 0.33729 0.30097 0.59818 0.0
O224 O 0.30717 0.3371 0.77498 0.0
O225 O 0.34739 0.37289 0.70511 0.0
O226 O 0.39325 0.40216 0.8264 0.0
O227 O 0.41028 0.36424 0.85443 0.0
O228 O 0.34068 0.32404 0.93768 0.0
O229 O 0.34115 0.32393 0.93538 0.0
O230 O 0.37917 0.30003 0.75802 0.0
O231 O 0.33532 0.25157 0.79101 0.0
H232 H 0.20158 0.17393 0.70554 0.0
H233 H 0.15428 0.17044 0.7184 0.0
H234 H 0.20008 0.29762 0.7247 0.0
H235 H 0.24663 0.30006 0.70615 0.0
H236 H 0.47165 0.47429 0.8992 0.0
H237 H 0.5035 0.50514 0.76198 0.0
H238 H 0.44034 0.39635 0.48065 0.0
H239 H 0.40834 0.36661 0.61664 0.0
La240 La 0.50178 0.21058 0.71023 0.0
La241 La 0.50844 0.21359 0.94343 0.0
C242 C 0.48543 0.21329 0.50021 0.0
C243 C 0.49051 0.25149 0.4766 0.0
C244 C 0.4973 0.28212 0.57345 0.0
C245 C 0.51366 0.32264 0.56764 0.0
C246 C 0.52385 0.33326 0.46529 0.0
C247 C 0.51256 0.30182 0.36222 0.0
C248 C 0.49612 0.26125 0.36846 0.0
C249 C 0.548 0.28514 0.83838 0.0
C250 C 0.45587 0.22289 0.83138 0.0
C251 C 0.53382 0.23144 0.16393 0.0
C252 C 0.56309 0.26807 0.23582 0.0
C253 C 0.5695 0.27614 0.36034 0.0
C254 C 0.58989 0.31593 0.42801 0.0
C255 C 0.60284 0.34838 0.37078 0.0
C256 C 0.60135 0.33876 0.24852 0.0
C257 C 0.58114 0.29882 0.18104 0.0
C258 C 0.46177 0.13891 0.82003 0.0
C259 C 0.55127 0.1974 0.81585 0.0
O260 O 0.51088 0.21522 0.54094 0.0
O261 O 0.46578 0.19639 0.56376 0.0
O262 O 0.54828 0.26534 0.74415 0.0
O263 O 0.52195 0.2633 0.85964 0.0
O264 O 0.45966 0.20767 0.73374 0.0
O265 O 0.4761 0.23338 0.93352 0.0
O266 O 0.5358 0.20803 1.08322 0.0
O267 O 0.51287 0.23792 1.12002 0.0
O268 O 0.46302 0.15829 0.91976 0.0
O269 O 0.48729 0.16032 0.79371 0.0
O270 O 0.55083 0.21908 0.90956 0.0
O271 O 0.52819 0.18216 0.71899 0.0
H272 H 0.4929 0.27534 0.65814 0.0
H273 H 0.52141 0.34579 0.64785 0.0
H274 H 0.51963 0.30835 0.28086 0.0
H275 H 0.49044 0.23787 0.29291 0.0
H276 H 0.5563 0.25257 0.4044 0.0
H277 H 0.59137 0.32113 0.52282 0.0
H278 H 0.61206 0.36252 0.20183 0.0
H279 H 0.57709 0.29277 1.08472 0.0
La280 La 1.00294 0.1832 0.87455 0.0
La281 La 1.00511 0.24126 0.7876 0.0
C282 C 0.99939 0.13114 0.98488 0.0
C283 C 1.00587 0.14925 1.10761 0.0
C284 C 0.98206 0.12297 0.2042 0.0
C285 C 0.96815 0.14576 0.29914 0.0
C286 C 0.98011 0.20554 0.28836 0.0
C287 C 1.00857 0.23007 0.17315 0.0
C288 C 1.01951 0.20036 1.09868 0.0
C289 C 0.9722 0.147 0.65811 0.0
C290 C 0.94827 0.19856 0.87306 0.0
C291 C 1.0086 0.29339 0.6778 0.0
C292 C 1.00197 0.27525 0.55491 0.0
C293 C 1.0258 0.30149 0.45831 0.0
C294 C 1.03971 0.27867 0.36347 0.0
C295 C 1.0277 0.21888 0.3743 0.0
C296 C 0.99921 0.19437 0.4895 0.0
C297 C 0.98828 0.22412 0.56384 0.0
C298 C 1.03545 0.27718 1.00443 0.0
C299 C 1.05959 0.22545 0.78802 0.0
O300 O 0.97526 0.12807 0.9227 0.0
O301 O 1.02265 0.15154 0.94049 0.0
O302 O 0.99752 0.15052 0.70299 0.0
O303 O 0.97069 0.17386 0.72011 0.0
O304 O 0.96667 0.19057 0.9384 0.0
O305 O 0.95698 0.21263 0.78227 0.0
O306 O 1.03276 0.29643 0.73961 0.0
O307 O 0.98541 0.27304 0.72259 0.0
O308 O 1.01004 0.27337 0.95909 0.0
O309 O 1.0373 0.2507 0.94204 0.0
O310 O 1.04123 0.23362 0.7233 0.0
O311 O 1.05098 0.21139 0.87892 0.0
H312 H 0.97281 0.09113 0.19476 0.0
H313 H 0.95209 0.12816 0.34923 0.0
H314 H 1.01336 0.25858 0.16047 0.0
H315 H 1.04032 0.21571 1.07033 0.0
H316 H 1.03508 0.33334 0.46773 0.0
H317 H 1.05577 0.29624 0.3134 0.0
H318 H 0.99435 0.16584 0.50229 0.0
H319 H 0.96739 0.20873 0.59164 0.0
La320 La 0.98679 0.68373 0.7056 0.0
La321 La 1.0182 0.73754 0.93688 0.0
C322 C 0.96098 0.65207 0.48653 0.0
C323 C 0.93513 0.65084 0.41115 0.0
C324 C 0.93924 0.66412 0.30615 0.0
C325 C 0.92098 0.67651 0.2533 0.0
C326 C 0.89746 0.6749 0.30207 0.0
C327 C 0.89117 0.65733 0.40013 0.0
C328 C 0.91001 0.6456 0.45488 0.0
C329 C 1.0045 0.65272 0.86484 0.0
C330 C 1.06013 0.74565 0.77213 0.0
C331 C 1.03376 0.7757 0.14927 0.0
C332 C 1.01644 0.79122 0.1962 0.0
C333 C 1.00894 0.78461 0.30479 0.0
C334 C 0.98418 0.78573 0.32977 0.0
C335 C 0.96613 0.79278 0.24519 0.0
C336 C 0.9764 0.80469 1.14416 0.0
C337 C 1.00126 0.80377 1.11963 0.0
C338 C 1.00052 0.76817 0.77629 0.0
C339 C 0.94568 0.6736 0.87195 0.0
O340 O 0.98614 0.68843 0.52816 0.0
O341 O 0.95468 0.63144 0.56867 0.0
O342 O 0.97953 0.63218 0.77886 0.0
O343 O 1.01963 0.68843 0.85428 0.0
O344 O 1.03393 0.72531 0.68616 0.0
O345 O 1.05929 0.7477 0.88545 0.0
O346 O 1.04718 0.7923 1.06806 0.0
O347 O 1.01859 0.73622 1.11736 0.0
O348 O 1.02683 0.78729 0.85365 0.0
O349 O 0.98501 0.73282 0.79006 0.0
O350 O 0.97179 0.6918 0.95688 0.0
O351 O 0.94689 0.67547 0.76127 0.0
H352 H 0.95869 0.66898 0.27197 0.0
H353 H 0.92769 0.69136 0.18144 0.0
H354 H 0.87382 0.65654 0.44157 0.0
H355 H 0.90649 0.6357 0.53684 0.0
H356 H 1.02015 0.77466 0.36468 0.0
H357 H 0.97707 0.77615 0.40867 0.0
H358 H 0.96327 0.81058 1.07796 0.0
H359 H 1.00654 0.80912 1.03488 0.0
C360 C 0.18337 0.54315 0.88491 0.0
C361 C 0.16527 0.50718 0.9233 0.0
H362 H 0.19662 0.5708 0.73578 0.0
C363 C 0.14677 0.4712 0.83155 0.0
H364 H 0.19835 0.57171 0.9508 0.0
C365 C 0.14589 0.47063 0.70895 0.0
C366 C 0.16375 0.50594 0.66913 0.0
H367 H 0.13265 0.44269 0.8549 0.0
H368 H 0.1308 0.44183 0.64398 0.0
C369 C 0.18261 0.54254 0.76038 0.0
C370 C 0.65165 0.50913 0.57844 0.0
C371 C 0.67005 0.53946 0.68665 0.0
H372 H 0.64217 0.4913 0.38549 0.0
C373 C 0.69409 0.57721 0.67463 0.0
H374 H 0.63265 0.47977 0.58192 0.0
C375 C 0.6994 0.58396 0.56058 0.0
C376 C 0.68112 0.55359 0.45245 0.0
H377 H 0.70889 0.60176 0.75344 0.0
H378 H 0.71827 0.61347 0.55714 0.0
C379 C 0.657 0.51583 0.46433 0.0
C380 C 0.65089 0.12314 0.42602 0.0
C381 C 0.66297 0.10845 0.50942 0.0
H382 H 0.6453 0.13418 0.24857 0.0
C383 C 0.67932 0.09267 0.46751 0.0
H384 H 0.63797 0.13538 0.45284 0.0
C385 C 0.68343 0.09193 0.34912 0.0
C386 C 0.67143 0.10665 0.26575 0.0
H387 H 0.689 0.08078 0.52603 0.0
H388 H 0.69637 0.07968 0.32248 0.0
C389 C 0.65496 0.12232 0.3073 0.0
C390 C 0.8235 0.88062 0.7888 0.0
C391 C 0.84127 0.91669 0.75038 0.0
H392 H 0.81058 0.85287 0.93802 0.0
C393 C 0.85952 0.95271 0.84196 0.0
H394 H 0.80873 0.85202 0.72296 0.0
C395 C 0.86047 0.95323 0.96453 0.0
C396 C 0.84293 0.91783 1.0044 0.0
H397 H 0.87338 0.98128 0.81852 0.0
H398 H 0.87535 0.98208 1.02945 0.0
C399 C 0.82432 0.88118 0.91331 0.0
C400 C 0.31602 0.84618 0.98443 0.0
C401 C 0.3391 0.88448 0.97173 0.0
H402 H 0.29273 0.8094 1.10258 0.0
C403 C 0.35675 0.91527 1.0794 0.0
H404 H 0.30183 0.82128 0.90607 0.0
C405 C 0.35163 0.9084 0.19366 0.0
C406 C 0.32849 0.87011 0.20623 0.0
H407 H 0.37491 0.94517 1.0754 0.0
H408 H 0.36584 0.93326 0.2721 0.0
C409 C 0.31089 0.83932 1.09862 0.0
C410 C 0.32716 0.32638 0.185 0.0
C411 C 0.34349 0.31053 1.14326 0.0
H412 H 0.30997 0.33931 0.32964 0.0
C413 C 0.35539 0.29567 0.22665 0.0
H414 H 0.31759 0.33839 1.12647 0.0
C415 C 0.35118 0.29639 0.34517 0.0
C416 C 0.33471 0.31209 0.3865 0.0
H417 H 0.36828 0.28335 0.19997 0.0
H418 H 0.36072 0.2844 0.40391 0.0
C419 C 0.32289 0.327 0.30316 0.0
C420 C 0.57856 0.38544 0.57149 0.0
C421 C 0.55286 0.3733 0.47667 0.0
H422 H 0.62315 0.39438 0.61105 0.0
C423 C 0.55943 0.38668 0.37223 0.0
H424 H 0.57564 0.37967 0.65845 0.0
C425 C 0.58734 0.39568 0.34742 0.0
C426 C 0.60581 0.38696 0.42265 0.0
H427 H 0.54114 0.38187 0.30066 0.0
H428 H 0.58936 0.39778 0.2572 0.0
C429 C 0.60622 0.39425 0.54431 0.0
C430 C 1.04497 0.22874 0.43127 0.0
C431 C 1.01795 0.19216 0.2893 0.0
H432 H 1.05592 0.2856 0.60634 0.0
C433 C 0.96962 0.16496 1.12762 0.0
H434 H 1.06997 0.23306 0.4748 0.0
C435 C 0.96282 0.19567 0.23145 0.0
C436 C 0.98988 0.2323 0.37326 0.0
H437 H 0.95203 0.13889 1.05579 0.0
H438 H 0.93783 0.1914 0.18816 0.0
C439 C 1.03818 0.25947 0.535 0.0
C440 C 0.9015 0.73736 0.36976 0.0
C441 C 0.88795 0.70291 0.27578 0.0
H442 H 0.94185 0.79715 0.43413 0.0
C443 C 0.88641 0.70938 0.1596 0.0
H444 H 0.90033 0.73405 0.45994 0.0
C445 C 0.91022 0.74605 1.14373 0.0
C446 C 0.93324 0.77578 0.24548 0.0
H447 H 0.8733 0.68384 1.08314 0.0
H448 H 0.91397 0.74703 1.05506 0.0
C449 C 0.92547 0.77406 0.35546 0.0
C450 C 0.32496 0.41791 0.6148 0.0
C451 C 0.31097 0.39265 0.69052 0.0
H452 H 0.32418 0.45737 0.50839 0.0
C453 C 0.28549 0.39029 0.72294 0.0
H454 H 0.34448 0.42023 0.58706 0.0
C455 C 0.27385 0.41209 0.67805 0.0
C456 C 0.28753 0.43675 0.60009 0.0
H457 H 0.27449 0.37154 0.7824 0.0
H458 H 0.25415 0.4096 0.70439 0.0
C459 C 0.31337 0.43949 0.56996 0.0
C460 C 0.76574 0.69911 0.22045 0.0
C461 C 0.73325 0.67777 0.19222 0.0
H462 H 0.80913 0.75694 0.28001 0.0
C463 C 0.71975 0.7003 0.20068 0.0
H464 H 0.77696 0.68287 0.21513 0.0
C465 C 0.73821 0.74298 0.23455 0.0
C466 C 0.77072 0.76426 0.26474 0.0
H467 H 0.6948 0.68492 0.17913 0.0
H468 H 0.72704 0.75931 0.23886 0.0
C469 C 0.78418 0.74165 0.258 0.0
C470 C 0.48174 0.92201 1.08812 0.0
C471 C 0.51419 0.94586 1.12767 0.0
H472 H 0.43884 0.88985 1.13577 0.0
C473 C 0.52827 0.95382 0.24953 0.0
H474 H 0.47009 0.91549 0.99523 0.0
C475 C 0.5103 0.93978 0.33079 0.0
C476 C 0.47787 0.91731 0.29177 0.0
H477 H 0.55324 0.97147 0.28265 0.0
H478 H 0.52185 0.94779 0.42468 0.0
C479 C 0.46381 0.90775 0.1691 0.0
C480 C 0.60218 0.15915 0.73868 0.0
C481 C 0.62528 0.17438 0.84688 0.0
H482 H 0.56125 0.15422 0.64279 0.0
C483 C 0.62456 0.19894 0.94197 0.0
H484 H 0.60107 0.13873 0.6649 0.0
C485 C 0.60136 0.20739 0.93 0.0
C486 C 0.57758 0.19105 0.82297 0.0
H487 H 0.64093 0.20977 1.02825 0.0
H488 H 0.60139 0.22555 1.007 0.0
C489 C 0.57891 0.16753 0.72654 0.0
C490 C 0.0931 0.33107 1.09931 0.0
C491 C 1.06167 0.31719 1.08365 0.0
H492 H 0.14061 0.38235 0.1642 0.0
C493 C 1.05461 0.3444 1.13308 0.0
H494 H 0.09939 0.31108 1.06206 0.0
C495 C 0.07781 0.38482 0.18807 0.0
C496 C 0.10906 0.39943 0.19884 0.0
H497 H 1.03078 0.33491 1.12441 0.0
H498 H 1.07116 0.40506 0.2196 0.0
C499 C 0.11665 0.37186 0.1576 0.0
C500 C 0.89024 0.65127 0.83133 0.0
C501 C 0.91513 0.65179 0.89874 0.0
H502 H 0.84265 0.6312 0.80213 0.0
C503 C 0.91003 0.62966 0.98683 0.0
H504 H 0.89337 0.66741 0.76092 0.0
C505 C 0.88087 0.60875 1.01072 0.0
C506 C 0.85616 0.60966 0.94716 0.0
H507 H 0.92866 0.62877 1.03798 0.0
H508 H 0.87816 0.59327 1.08249 0.0
C509 C 0.86117 0.63058 0.85538 0.0
C510 C 1.04993 0.65865 0.99336 0.0
C511 C 1.01854 0.63462 0.9306 0.0
H512 H 0.08845 0.6605 1.09504 0.0
C513 C 1.00135 0.59305 0.92643 0.0
H514 H 1.06371 0.69083 0.99856 0.0
C515 C 1.01554 0.57567 0.98214 0.0
C516 C 1.04721 0.59954 1.04169 0.0
H517 H 0.97708 0.57392 0.87879 0.0
H518 H 1.00195 0.54344 0.97633 0.0
C519 C 1.06415 0.64125 1.04777 0.0
C520 C 0.58582 0.39648 0.99486 0.0
C521 C 0.61374 0.41598 0.95914 0.0
H522 H 0.5435 0.34028 0.98765 0.0
C523 C 0.61997 0.39169 0.88706 0.0
H524 H 0.58016 0.41405 1.05069 0.0
C525 C 0.59871 0.34944 0.8499 0.0
C526 C 0.5707 0.32999 0.88467 0.0
H527 H 0.64106 0.40537 0.85753 0.0
H528 H 0.60417 0.33192 0.79266 0.0
C529 C 0.56471 0.35408 0.95893 0.0
C530 C 0.90053 0.16906 0.96078 0.0
C531 C 0.91993 0.19594 0.89878 0.0
H532 H 0.85936 0.14604 1.02415 0.0
C533 C 0.91076 0.21985 0.84981 0.0
H534 H 0.90601 0.14915 0.99653 0.0
C535 C 0.88359 0.21723 0.86157 0.0
C536 C 0.86406 0.19083 0.92436 0.0
H537 H 0.92458 0.24074 0.79999 0.0
H538 H 0.87771 0.23562 0.81811 0.0
C539 C 0.87322 0.16678 0.97427 0.0
C540 C 0.67703 0.99477 1.01592 0.0
C541 C 0.69506 1.02567 0.96137 0.0
H542 H 0.67352 0.95003 1.10763 0.0
C543 C 0.72377 1.0329 0.95133 0.0
H544 H 0.65453 0.98778 1.0236 0.0
C545 C 0.73513 1.01166 1.00272 0.0
C546 C 0.71772 0.98231 1.06339 0.0
H547 H 0.73777 0.0555 0.90646 0.0
H548 H 0.75799 1.01932 0.99866 0.0
C549 C 0.68809 0.97329 1.06543 0.0
C550 C 0.2888 0.7229 0.4614 0.0
C551 C 0.27573 0.74597 0.46895 0.0
H552 H 0.28072 0.6634 0.42637 0.0
C553 C 0.24329 0.72522 0.44183 0.0
H554 H 0.3137 0.73786 0.48219 0.0
C555 C 0.22444 0.68269 0.40664 0.0
C556 C 0.23744 0.65951 0.4012 0.0
H557 H 0.2324 0.74191 0.44649 0.0
H558 H 0.19954 0.66787 0.38564 0.0
C559 C 0.26991 0.6802 0.42986 0.0
C560 C 0.54413 0.50841 0.48563 0.0
C561 C 0.53024 0.50046 0.36366 0.0
H562 H 0.53751 0.49927 0.65827 0.0
C563 C 0.49785 0.47899 0.32464 0.0
H564 H 0.56908 0.52548 0.51902 0.0
C565 C 0.47973 0.46461 0.40522 0.0
C566 C 0.49362 0.47126 0.52637 0.0
H567 H 0.48643 0.47218 0.23123 0.0
H568 H 0.4548 0.4479 0.37223 0.0
C569 C 0.52605 0.49384 0.56592 0.0
C570 C 1.00627 0.83 0.72509 0.0
C571 C 0.98688 0.78989 0.7331 0.0
H572 H 1.00933 0.88259 0.68432 0.0
C573 C 0.95489 0.77232 0.70995 0.0
H574 H 1.03111 0.84439 0.74432 0.0
C575 C 0.94246 0.79445 0.67837 0.0
C576 C 0.9617 0.83427 0.66634 0.0
H577 H 0.93946 0.74161 0.71719 0.0
H578 H 0.91759 0.77962 0.65803 0.0
C579 C 0.99382 0.85193 0.69164 0.0
C580 C 0.41074 0.07469 0.80861 0.0
C581 C 0.4386 0.09408 0.77272 0.0
H582 H 0.36833 1.01878 0.80148 0.0
C583 C 0.44415 0.06986 0.69657 0.0
H584 H 0.40555 0.09229 0.86695 0.0
C585 C 0.42287 1.02748 0.66017 0.0
C586 C 0.39515 1.008 0.69731 0.0
H587 H 0.46526 0.08354 0.66714 0.0
H588 H 0.42827 1.00987 0.60301 0.0
C589 C 0.38928 1.03241 0.77098 0.0
C590 C 0.1077 0.2553 0.70236 0.0
C591 C 0.08761 0.22746 0.76056 0.0
H592 H 0.14949 0.27897 0.64263 0.0
C593 C 0.09584 0.20207 0.80469 0.0
H594 H 0.10284 0.27616 0.66984 0.0
C595 C 0.12282 0.20422 0.79222 0.0
C596 C 0.14316 0.2318 0.7341 0.0
H597 H 0.08141 0.18035 0.85124 0.0
H598 H 0.12798 0.18458 0.83159 0.0
C599 C 0.13493 0.25731 0.68884 0.0
C600 C 0.42244 0.24261 0.92271 0.0
C601 C 0.42899 0.22825 0.82189 0.0
H602 H 0.39583 0.26375 0.98908 0.0
C603 C 0.40991 0.22021 0.70853 0.0
H604 H 0.43642 0.2494 1.01159 0.0
C605 C 0.38639 0.22799 0.69597 0.0
C606 C 0.38034 0.24332 0.79608 0.0
H607 H 0.41396 0.2094 0.628 0.0
H608 H 0.37398 0.22408 0.60672 0.0
C609 C 0.39865 0.25016 0.9099 0.0
C610 C 0.89036 0.05279 0.51229 0.0
C611 C 0.89739 1.02469 0.4705 0.0
H612 H 0.9085 0.11408 0.60598 0.0
C613 C 0.92844 1.03878 0.47785 0.0
H614 H 0.86659 1.04271 0.50839 0.0
C615 C 0.95203 0.07924 0.53033 0.0
C616 C 0.94558 0.107 0.5805 0.0
H617 H 0.93464 1.01807 0.44583 0.0
H618 H 0.97571 0.08832 0.53679 0.0
C619 C 0.91432 0.09364 0.56795 0.0
C620 C 0.11835 0.78782 0.83083 0.0
C621 C 0.09033 0.76486 0.74087 0.0
H622 H 0.16794 0.82344 0.87264 0.0
C623 C 0.09147 0.76089 0.62056 0.0
H624 H 0.11836 0.79158 0.92445 0.0
C625 C 0.11991 0.77923 0.59095 0.0
C626 C 0.14796 0.80218 0.68082 0.0
H627 H 1.07038 0.74362 0.54887 0.0
H628 H 0.11988 0.77583 0.4973 0.0
C629 C 0.14681 0.80634 0.80116 0.0
loop_
_geom_bond_atom_site_label_1
_geom_bond_atom_site_label_2
_geom_bond_distance
_geom_bond_site_symmetry_2
_ccdc_geom_bond_type
La0 C2 2.928 . S
La0 O20 2.521 . S
La0 O21 2.628 . S
La0 O22 2.554 1_554 S
La0 O23 2.757 1_554 S
La0 O24 2.470 1_554 S
La0 O29 2.482 . S
La0 O31 2.503 . S
La1 C11 2.928 1_554 S
La1 O23 2.482 1_554 S
La1 O25 2.503 1_554 S
La1 O26 2.521 1_455 S
La1 O27 2.628 1_554 S
La1 O28 2.554 . S
La1 O29 2.757 . S
La1 O30 2.470 . S
C2 La0 2.928 . S
C2 C3 1.503 . S
C2 O20 1.261 . S
C2 O21 1.243 . S
C3 C2 1.503 . S
C3 C4 1.394 . S
C3 C8 1.373 . S
C4 C3 1.394 . S
C4 C5 1.380 . S
C4 H32 0.930 . S
C5 C4 1.380 . S
C5 C6 1.376 . S
C5 H33 0.930 . S
C6 C5 1.376 . S
C6 C7 1.370 . S
C7 C6 1.370 . S
C7 C8 1.396 . S
C7 H34 0.929 . S
C8 C3 1.373 . S
C8 C7 1.396 . S
C8 H35 0.929 . S
C9 O22 1.240 . S
C9 O23 1.289 . S
C10 O24 1.258 . S
C10 O25 1.256 . S
C11 La1 2.928 1_556 S
C11 C12 1.503 1_455 S
C11 O26 1.261 1_456 S
C11 O27 1.243 . S
C12 C11 1.503 1_655 S
C12 C13 1.394 1_556 S
C12 C17 1.373 1_655 S
C13 C12 1.394 1_554 S
C13 C14 1.380 . S
C13 H36 0.930 . S
C14 C13 1.380 . S
C14 C15 1.376 1_554 S
C14 H37 0.930 . S
C15 C14 1.376 1_556 S
C15 C16 1.405 . S
C16 C15 1.405 . S
C16 C17 1.366 1_655 S
C16 H38 0.924 1_655 S
C17 C12 1.373 1_455 S
C17 C16 1.366 1_455 S
C17 H39 0.929 . S
C18 O28 1.240 . S
C18 O29 1.289 . S
C19 O30 1.258 . S
C19 O31 1.256 . S
O20 La0 2.521 . S
O20 C2 1.261 . S
O21 La0 2.628 . S
O21 C2 1.243 . S
O22 La0 2.554 1_556 S
O22 C9 1.240 . S
O23 La0 2.757 1_556 S
O23 La1 2.482 1_556 S
O23 C9 1.289 . S
O24 La0 2.470 1_556 S
O24 C10 1.258 . S
O25 La1 2.503 1_556 S
O25 C10 1.256 . S
O26 La1 2.521 1_655 S
O26 C11 1.261 1_654 S
O27 La1 2.628 1_556 S
O27 C11 1.243 . S
O28 La1 2.554 . S
O28 C18 1.240 . S
O29 La0 2.482 . S
O29 La1 2.757 . S
O29 C18 1.289 . S
O30 La1 2.470 . S
O30 C19 1.258 . S
O31 La0 2.503 . S
O31 C19 1.256 . S
H32 C4 0.930 . S
H33 C5 0.930 . S
H34 C7 0.929 . S
H35 C8 0.929 . S
H36 C13 0.930 . S
H37 C14 0.930 . S
H38 C16 0.924 1_455 S
H39 C17 0.929 . S
La40 C42 2.928 . S
La40 O60 2.521 . S
La40 O61 2.628 . S
La40 O62 2.554 . S
La40 O63 2.757 . S
La40 O64 2.470 . S
La40 O69 2.482 . S
La40 O71 2.503 . S
La41 C51 2.928 . S
La41 O63 2.482 . S
La41 O65 2.503 . S
La41 O66 2.521 . S
La41 O67 2.628 . S
La41 O68 2.554 1_554 S
La41 O69 2.757 . S
La41 O70 2.470 . S
C42 La40 2.928 . S
C42 C43 1.503 . S
C42 O60 1.261 . S
C42 O61 1.243 . S
C43 C42 1.503 . S
C43 C44 1.394 . S
C43 C48 1.373 . S
C44 C43 1.394 . S
C44 C45 1.380 . S
C44 H72 0.930 . S
C45 C44 1.380 . S
C45 C46 1.376 . S
C45 H73 0.930 . S
C46 C45 1.376 . S
C46 C47 1.370 . S
C47 C46 1.370 . S
C47 C48 1.396 . S
C47 H74 0.929 . S
C48 C43 1.373 . S
C48 C47 1.396 . S
C48 H75 0.929 . S
C49 O62 1.240 . S
C49 O63 1.289 . S
C50 O64 1.258 . S
C50 O65 1.256 . S
C51 La41 2.928 . S
C51 C52 1.503 . S
C51 O66 1.261 . S
C51 O67 1.243 . S
C52 C51 1.503 . S
C52 C53 1.394 . S
C52 C57 1.373 . S
C53 C52 1.394 . S
C53 C54 1.380 . S
C53 H76 0.930 . S
C54 C53 1.380 . S
C54 C55 1.376 . S
C54 H77 0.930 . S
C55 C54 1.376 . S
C55 C56 1.370 . S
C56 C55 1.370 . S
C56 C57 1.396 . S
C56 H78 0.929 . S
C57 C52 1.373 . S
C57 C56 1.396 . S
C57 H79 0.929 . S
C58 O68 1.240 . S
C58 O69 1.289 1_556 S
C59 O70 1.258 . S
C59 O71 1.256 . S
O60 La40 2.521 . S
O60 C42 1.261 . S
O61 La40 2.628 . S
O61 C42 1.243 . S
O62 La40 2.554 . S
O62 C49 1.240 . S
O63 La40 2.757 . S
O63 La41 2.482 . S
O63 C49 1.289 . S
O64 La40 2.470 . S
O64 C50 1.258 . S
O65 La41 2.503 . S
O65 C50 1.256 . S
O66 La41 2.521 . S
O66 C51 1.261 . S
O67 La41 2.628 . S
O67 C51 1.243 . S
O68 La41 2.554 1_556 S
O68 C58 1.240 . S
O69 La40 2.482 . S
O69 La41 2.757 . S
O69 C58 1.289 1_554 S
O70 La41 2.470 . S
O70 C59 1.258 . S
O71 La40 2.503 . S
O71 C59 1.256 . S
H72 C44 0.930 . S
H73 C45 0.930 . S
H74 C47 0.929 . S
H75 C48 0.929 . S
H76 C53 0.930 . S
H77 C54 0.930 . S
H78 C56 0.929 . S
H79 C57 0.929 . S
La80 C82 2.928 . S
La80 O100 2.521 . S
La80 O101 2.628 . S
La80 O102 2.554 1_554 S
La80 O103 2.757 . S
La80 O104 2.470 . S
La80 O109 2.482 . S
La80 O111 2.503 . S
La81 C91 2.928 . S
La81 O103 2.482 . S
La81 O105 2.503 . S
La81 O106 2.521 . S
La81 O107 2.628 . S
La81 O108 2.554 . S
La81 O109 2.757 . S
La81 O110 2.470 . S
C82 La80 2.928 . S
C82 C83 1.503 . S
C82 O100 1.261 . S
C82 O101 1.243 . S
C83 C82 1.503 . S
C83 C84 1.394 . S
C83 C88 1.373 . S
C84 C83 1.394 . S
C84 C85 1.380 . S
C84 H112 0.930 . S
C85 C84 1.380 . S
C85 C86 1.376 . S
C85 H113 0.930 1_544 S
C86 C85 1.376 . S
C86 C87 1.370 . S
C87 C86 1.370 . S
C87 C88 1.396 . S
C87 H114 0.929 . S
C88 C83 1.373 . S
C88 C87 1.396 . S
C88 H115 0.929 . S
C89 O102 1.240 . S
C89 O103 1.289 1_556 S
C90 O104 1.258 . S
C90 O105 1.256 . S
C91 La81 2.928 . S
C91 C92 1.503 . S
C91 O106 1.261 . S
C91 O107 1.243 . S
C92 C91 1.503 . S
C92 C93 1.394 . S
C92 C97 1.373 . S
C93 C92 1.394 . S
C93 C94 1.380 . S
C93 H116 0.930 . S
C94 C93 1.380 . S
C94 C95 1.376 . S
C94 H117 0.930 . S
C95 C94 1.376 . S
C95 C96 1.370 . S
C96 C95 1.370 . S
C96 C97 1.396 . S
C96 H118 0.929 . S
C97 C92 1.373 . S
C97 C96 1.396 . S
C97 H119 0.929 . S
C98 O108 1.240 . S
C98 O109 1.289 . S
C99 O110 1.258 . S
C99 O111 1.256 . S
O100 La80 2.521 . S
O100 C82 1.261 . S
O101 La80 2.628 . S
O101 C82 1.243 . S
O102 La80 2.554 1_556 S
O102 C89 1.240 . S
O103 La80 2.757 . S
O103 La81 2.482 . S
O103 C89 1.289 1_554 S
O104 La80 2.470 . S
O104 C90 1.258 . S
O105 La81 2.503 . S
O105 C90 1.256 . S
O106 La81 2.521 . S
O106 C91 1.261 . S
O107 La81 2.628 . S
O107 C91 1.243 . S
O108 La81 2.554 . S
O108 C98 1.240 . S
O109 La80 2.482 . S
O109 La81 2.757 . S
O109 C98 1.289 . S
O110 La81 2.470 . S
O110 C99 1.258 . S
O111 La80 2.503 . S
O111 C99 1.256 . S
H112 C84 0.930 . S
H113 C85 0.930 1_566 S
H114 C87 0.929 . S
H115 C88 0.929 . S
H116 C93 0.930 . S
H117 C94 0.930 . S
H118 C96 0.929 . S
H119 C97 0.929 . S
La120 C122 2.928 . S
La120 O140 2.521 . S
La120 O141 2.628 . S
La120 O142 2.554 . S
La120 O143 2.757 . S
La120 O144 2.470 . S
La120 O149 2.482 . S
La120 O151 2.503 . S
La121 C131 2.928 . S
La121 O143 2.482 . S
La121 O145 2.503 . S
La121 O146 2.521 . S
La121 O147 2.628 . S
La121 O148 2.554 . S
La121 O149 2.757 . S
La121 O150 2.470 . S
C122 La120 2.928 . S
C122 C123 1.503 . S
C122 O140 1.261 . S
C122 O141 1.243 . S
C123 C122 1.503 . S
C123 C124 1.394 . S
C123 C128 1.373 . S
C124 C123 1.394 . S
C124 C125 1.380 . S
C124 H152 0.930 . S
C125 C124 1.380 . S
C125 C126 1.376 . S
C125 H153 0.930 . S
C126 C125 1.376 . S
C126 C127 1.370 . S
C127 C126 1.370 . S
C127 C128 1.396 . S
C127 H154 0.929 . S
C128 C123 1.373 . S
C128 C127 1.396 . S
C128 H155 0.929 . S
C129 O142 1.240 . S
C129 O143 1.289 . S
C130 O144 1.258 . S
C130 O145 1.256 . S
C131 La121 2.928 . S
C131 C132 1.503 . S
C131 O146 1.261 . S
C131 O147 1.243 . S
C132 C131 1.503 . S
C132 C133 1.394 . S
C132 C137 1.373 . S
C133 C132 1.394 . S
C133 C134 1.380 . S
C133 H156 0.930 . S
C134 C133 1.380 . S
C134 C135 1.376 1_565 S
C134 H157 0.930 . S
C135 C134 1.376 1_545 S
C135 C136 1.370 . S
C136 C135 1.370 . S
C136 C137 1.396 1_545 S
C136 H158 0.929 . S
C137 C132 1.373 . S
C137 C136 1.396 1_565 S
C137 H159 0.929 . S
C138 O148 1.240 . S
C138 O149 1.289 . S
C139 O150 1.258 . S
C139 O151 1.256 . S
O140 La120 2.521 . S
O140 C122 1.261 . S
O141 La120 2.628 . S
O141 C122 1.243 . S
O142 La120 2.554 . S
O142 C129 1.240 . S
O143 La120 2.757 . S
O143 La121 2.482 . S
O143 C129 1.289 . S
O144 La120 2.470 . S
O144 C130 1.258 . S
O145 La121 2.503 . S
O145 C130 1.256 . S
O146 La121 2.521 . S
O146 C131 1.261 . S
O147 La121 2.628 . S
O147 C131 1.243 . S
O148 La121 2.554 . S
O148 C138 1.240 . S
O149 La120 2.482 . S
O149 La121 2.757 . S
O149 C138 1.289 . S
O150 La121 2.470 . S
O150 C139 1.258 . S
O151 La120 2.503 . S
O151 C139 1.256 . S
H152 C124 0.930 . S
H153 C125 0.930 . S
H154 C127 0.929 . S
H155 C128 0.929 . S
H156 C133 0.930 . S
H157 C134 0.930 . S
H158 C136 0.929 . S
H159 C137 0.929 . S
La160 C162 2.928 . S
La160 O180 2.521 . S
La160 O181 2.628 . S
La160 O182 2.554 . S
La160 O183 2.757 . S
La160 O184 2.470 . S
La160 O189 2.482 . S
La160 O191 2.503 . S
La161 C171 2.928 . S
La161 O183 2.482 . S
La161 O185 2.503 . S
La161 O186 2.521 . S
La161 O187 2.628 . S
La161 O188 2.554 . S
La161 O189 2.757 . S
La161 O190 2.470 . S
C162 La160 2.928 . S
C162 C163 1.503 . S
C162 O180 1.261 . S
C162 O181 1.243 . S
C163 C162 1.503 . S
C163 C164 1.394 . S
C163 C168 1.373 . S
C164 C163 1.394 . S
C164 C165 1.380 . S
C164 H192 0.930 . S
C165 C164 1.380 . S
C165 C166 1.376 . S
C165 H193 0.930 . S
C166 C165 1.376 . S
C166 C167 1.370 . S
C167 C166 1.370 . S
C167 C168 1.396 . S
C167 H194 0.929 . S
C168 C163 1.373 . S
C168 C167 1.396 . S
C168 H195 0.929 . S
C169 O182 1.240 . S
C169 O183 1.289 . S
C170 O184 1.258 . S
C170 O185 1.256 . S
C171 La161 2.928 . S
C171 C172 1.503 . S
C171 O186 1.261 . S
C171 O187 1.243 . S
C172 C171 1.503 . S
C172 C173 1.394 . S
C172 C177 1.373 . S
C173 C172 1.394 . S
C173 C174 1.380 . S
C173 H196 0.930 . S
C174 C173 1.380 . S
C174 C175 1.376 . S
C174 H197 0.930 . S
C175 C174 1.376 . S
C175 C176 1.370 . S
C176 C175 1.370 . S
C176 C177 1.396 . S
C176 H198 0.929 . S
C177 C172 1.373 . S
C177 C176 1.396 . S
C177 H199 0.929 . S
C178 O188 1.240 . S
C178 O189 1.289 . S
C179 O190 1.258 . S
C179 O191 1.256 . S
O180 La160 2.521 . S
O180 C162 1.261 . S
O181 La160 2.628 . S
O181 C162 1.243 . S
O182 La160 2.554 . S
O182 C169 1.240 . S
O183 La160 2.757 . S
O183 La161 2.482 . S
O183 C169 1.289 . S
O184 La160 2.470 . S
O184 C170 1.258 . S
O185 La161 2.503 . S
O185 C170 1.256 . S
O186 La161 2.521 . S
O186 C171 1.261 . S
O187 La161 2.628 . S
O187 C171 1.243 . S
O188 La161 2.554 . S
O188 C178 1.240 . S
O189 La160 2.482 . S
O189 La161 2.757 . S
O189 C178 1.289 . S
O190 La161 2.470 . S
O190 C179 1.258 . S
O191 La160 2.503 . S
O191 C179 1.256 . S
H192 C164 0.930 . S
H193 C165 0.930 . S
H194 C167 0.929 . S
H195 C168 0.929 . S
H196 C173 0.930 . S
H197 C174 0.930 . S
H198 C176 0.929 . S
H199 C177 0.929 . S
La200 C202 2.928 . S
La200 O220 2.521 . S
La200 O221 2.628 . S
La200 O222 2.554 . S
La200 O223 2.757 . S
La200 O224 2.470 . S
La200 O229 2.482 . S
La200 O231 2.503 . S
La201 C211 2.928 . S
La201 O223 2.482 . S
La201 O225 2.503 . S
La201 O226 2.521 . S
La201 O227 2.628 . S
La201 O228 2.554 . S
La201 O229 2.757 . S
La201 O230 2.470 . S
C202 La200 2.928 . S
C202 C203 1.503 . S
C202 O220 1.261 . S
C202 O221 1.243 . S
C203 C202 1.503 . S
C203 C204 1.394 . S
C203 C208 1.373 . S
C204 C203 1.394 . S
C204 C205 1.380 . S
C204 H232 0.930 . S
C205 C204 1.380 . S
C205 C206 1.376 . S
C205 H233 0.930 . S
C206 C205 1.376 . S
C206 C207 1.370 . S
C207 C206 1.370 . S
C207 C208 1.396 . S
C207 H234 0.929 . S
C208 C203 1.373 . S
C208 C207 1.396 . S
C208 H235 0.929 . S
C209 O222 1.240 . S
C209 O223 1.289 . S
C210 O224 1.258 . S
C210 O225 1.256 . S
C211 La201 2.928 . S
C211 C212 1.503 . S
C211 O226 1.261 . S
C211 O227 1.243 . S
C212 C211 1.503 . S
C212 C213 1.394 . S
C212 C217 1.373 . S
C213 C212 1.394 . S
C213 C214 1.380 . S
C213 H236 0.930 . S
C214 C213 1.380 . S
C214 C215 1.376 . S
C214 H237 0.930 . S
C215 C214 1.376 . S
C215 C216 1.370 . S
C216 C215 1.370 . S
C216 C217 1.396 . S
C216 H238 0.929 . S
C217 C212 1.373 . S
C217 C216 1.396 . S
C217 H239 0.929 . S
C218 O228 1.240 . S
C218 O229 1.289 . S
C219 O230 1.258 . S
C219 O231 1.256 . S
O220 La200 2.521 . S
O220 C202 1.261 . S
O221 La200 2.628 . S
O221 C202 1.243 . S
O222 La200 2.554 . S
O222 C209 1.240 . S
O223 La200 2.757 . S
O223 La201 2.482 . S
O223 C209 1.289 . S
O224 La200 2.470 . S
O224 C210 1.258 . S
O225 La201 2.503 . S
O225 C210 1.256 . S
O226 La201 2.521 . S
O226 C211 1.261 . S
O227 La201 2.628 . S
O227 C211 1.243 . S
O228 La201 2.554 . S
O228 C218 1.240 . S
O229 La200 2.482 . S
O229 La201 2.757 . S
O229 C218 1.289 . S
O230 La201 2.470 . S
O230 C219 1.258 . S
O231 La200 2.503 . S
O231 C219 1.256 . S
H232 C204 0.930 . S
H233 C205 0.930 . S
H234 C207 0.929 . S
H235 C208 0.929 . S
H236 C213 0.930 . S
H237 C214 0.930 . S
H238 C216 0.929 . S
H239 C217 0.929 . S
La240 C242 2.928 . S
La240 O260 2.521 . S
La240 O261 2.628 . S
La240 O262 2.554 . S
La240 O263 2.757 . S
La240 O264 2.470 . S
La240 O269 2.482 . S
La240 O271 2.503 . S
La241 C251 2.928 . S
La241 O263 2.482 . S
La241 O265 2.503 . S
La241 O266 2.521 . S
La241 O267 2.628 . S
La241 O268 2.554 . S
La241 O269 2.757 . S
La241 O270 2.470 . S
C242 La240 2.928 . S
C242 C243 1.503 . S
C242 O260 1.261 . S
C242 O261 1.243 . S
C243 C242 1.503 . S
C243 C244 1.394 . S
C243 C248 1.373 . S
C244 C243 1.394 . S
C244 C245 1.380 . S
C244 H272 0.930 . S
C245 C244 1.380 . S
C245 C246 1.376 . S
C245 H273 0.930 . S
C246 C245 1.376 . S
C246 C247 1.370 . S
C247 C246 1.370 . S
C247 C248 1.396 . S
C247 H274 0.929 . S
C248 C243 1.373 . S
C248 C247 1.396 . S
C248 H275 0.929 . S
C249 O262 1.240 . S
C249 O263 1.289 . S
C250 O264 1.258 . S
C250 O265 1.256 . S
C251 La241 2.928 . S
C251 C252 1.503 1_556 S
C251 O266 1.261 . S
C251 O267 1.243 . S
C252 C251 1.503 1_554 S
C252 C253 1.394 . S
C252 C257 1.373 . S
C253 C252 1.394 . S
C253 C254 1.380 . S
C253 H276 0.930 . S
C254 C253 1.380 . S
C254 C255 1.376 . S
C254 H277 0.930 . S
C255 C254 1.376 . S
C255 C256 1.370 . S
C256 C255 1.370 . S
C256 C257 1.396 . S
C256 H278 0.929 . S
C257 C252 1.373 . S
C257 C256 1.396 . S
C257 H279 0.929 . S
C258 O268 1.240 . S
C258 O269 1.289 . S
C259 O270 1.258 . S
C259 O271 1.256 . S
O260 La240 2.521 . S
O260 C242 1.261 . S
O261 La240 2.628 . S
O261 C242 1.243 . S
O262 La240 2.554 . S
O262 C249 1.240 . S
O263 La240 2.757 . S
O263 La241 2.482 . S
O263 C249 1.289 . S
O264 La240 2.470 . S
O264 C250 1.258 . S
O265 La241 2.503 . S
O265 C250 1.256 . S
O266 La241 2.521 . S
O266 C251 1.261 . S
O267 La241 2.628 . S
O267 C251 1.243 . S
O268 La241 2.554 . S
O268 C258 1.240 . S
O269 La240 2.482 . S
O269 La241 2.757 . S
O269 C258 1.289 . S
O270 La241 2.470 . S
O270 C259 1.258 . S
O271 La240 2.503 . S
O271 C259 1.256 . S
H272 C244 0.930 . S
H273 C245 0.930 . S
H274 C247 0.929 . S
H275 C248 0.929 . S
H276 C253 0.930 . S
H277 C254 0.930 . S
H278 C256 0.929 . S
H279 C257 0.929 . S
La280 C282 2.928 . S
La280 O300 2.521 . S
La280 O301 2.628 . S
La280 O302 2.554 . S
La280 O303 2.757 . S
La280 O304 2.470 . S
La280 O309 2.482 . S
La280 O311 2.503 . S
La281 C291 2.928 . S
La281 O303 2.482 . S
La281 O305 2.503 . S
La281 O306 2.521 . S
La281 O307 2.628 . S
La281 O308 2.554 . S
La281 O309 2.757 . S
La281 O310 2.470 . S
C282 La280 2.928 . S
C282 C283 1.503 1_556 S
C282 O300 1.261 . S
C282 O301 1.243 . S
C283 C282 1.503 1_554 S
C283 C284 1.394 . S
C283 C288 1.373 . S
C284 C283 1.394 . S
C284 C285 1.380 . S
C284 H312 0.930 . S
C285 C284 1.380 . S
C285 C286 1.376 . S
C285 H313 0.930 . S
C286 C285 1.376 . S
C286 C287 1.370 . S
C287 C286 1.370 . S
C287 C288 1.396 . S
C287 H314 0.929 . S
C288 C283 1.373 . S
C288 C287 1.396 . S
C288 H315 0.929 . S
C289 O302 1.240 . S
C289 O303 1.289 . S
C290 O304 1.258 . S
C290 O305 1.256 . S
C291 La281 2.928 . S
C291 C292 1.503 . S
C291 O306 1.261 . S
C291 O307 1.243 . S
C292 C291 1.503 . S
C292 C293 1.394 . S
C292 C297 1.373 . S
C293 C292 1.394 . S
C293 C294 1.380 . S
C293 H316 0.930 . S
C294 C293 1.380 . S
C294 C295 1.376 . S
C294 H317 0.930 . S
C295 C294 1.376 . S
C295 C296 1.370 . S
C296 C295 1.370 . S
C296 C297 1.396 . S
C296 H318 0.929 . S
C297 C292 1.373 . S
C297 C296 1.396 . S
C297 H319 0.929 . S
C298 O308 1.240 . S
C298 O309 1.289 . S
C299 O310 1.258 . S
C299 O311 1.256 . S
O300 La280 2.521 . S
O300 C282 1.261 . S
O301 La280 2.628 . S
O301 C282 1.243 . S
O302 La280 2.554 . S
O302 C289 1.240 . S
O303 La280 2.757 . S
O303 La281 2.482 . S
O303 C289 1.289 . S
O304 La280 2.470 . S
O304 C290 1.258 . S
O305 La281 2.503 . S
O305 C290 1.256 . S
O306 La281 2.521 . S
O306 C291 1.261 . S
O307 La281 2.628 . S
O307 C291 1.243 . S
O308 La281 2.554 . S
O308 C298 1.240 . S
O309 La280 2.482 . S
O309 La281 2.757 . S
O309 C298 1.289 . S
O310 La281 2.470 . S
O310 C299 1.258 . S
O311 La280 2.503 . S
O311 C299 1.256 . S
H312 C284 0.930 . S
H313 C285 0.930 . S
H314 C287 0.929 . S
H315 C288 0.929 . S
H316 C293 0.930 . S
H317 C294 0.930 . S
H318 C296 0.929 . S
H319 C297 0.929 . S
La320 C322 2.928 . S
La320 O340 2.521 . S
La320 O341 2.628 . S
La320 O342 2.554 . S
La320 O343 2.757 . S
La320 O344 2.470 . S
La320 O349 2.482 . S
La320 O351 2.503 . S
La321 C331 2.928 . S
La321 O343 2.482 . S
La321 O345 2.503 . S
La321 O346 2.521 . S
La321 O347 2.628 . S
La321 O348 2.554 . S
La321 O349 2.757 . S
La321 O350 2.470 . S
C322 La320 2.928 . S
C322 C323 1.503 . S
C322 O340 1.261 . S
C322 O341 1.243 . S
C323 C322 1.503 . S
C323 C324 1.394 . S
C323 C328 1.373 . S
C324 C323 1.394 . S
C324 C325 1.380 . S
C324 H352 0.930 . S
C325 C324 1.380 . S
C325 C326 1.376 . S
C325 H353 0.930 . S
C326 C325 1.376 . S
C326 C327 1.370 . S
C327 C326 1.370 . S
C327 C328 1.396 . S
C327 H354 0.929 . S
C328 C323 1.373 . S
C328 C327 1.396 . S
C328 H355 0.929 . S
C329 O342 1.240 . S
C329 O343 1.289 . S
C330 O344 1.258 . S
C330 O345 1.256 . S
C331 La321 2.928 . S
C331 C332 1.503 1_556 S
C331 O346 1.261 . S
C331 O347 1.243 . S
C332 C331 1.503 1_554 S
C332 C333 1.394 . S
C332 C337 1.373 . S
C333 C332 1.394 . S
C333 C334 1.380 . S
C333 H356 0.930 . S
C334 C333 1.380 . S
C334 C335 1.376 . S
C334 H357 0.930 . S
C335 C334 1.376 . S
C335 C336 1.370 . S
C336 C335 1.370 . S
C336 C337 1.396 . S
C336 H358 0.929 . S
C337 C332 1.373 . S
C337 C336 1.396 . S
C337 H359 0.929 . S
C338 O348 1.240 . S
C338 O349 1.289 . S
C339 O350 1.258 . S
C339 O351 1.256 . S
O340 La320 2.521 . S
O340 C322 1.261 . S
O341 La320 2.628 . S
O341 C322 1.243 . S
O342 La320 2.554 . S
O342 C329 1.240 . S
O343 La320 2.757 . S
O343 La321 2.482 . S
O343 C329 1.289 . S
O344 La320 2.470 . S
O344 C330 1.258 . S
O345 La321 2.503 . S
O345 C330 1.256 . S
O346 La321 2.521 . S
O346 C331 1.261 . S
O347 La321 2.628 . S
O347 C331 1.243 . S
O348 La321 2.554 . S
O348 C338 1.240 . S
O349 La320 2.482 . S
O349 La321 2.757 . S
O349 C338 1.289 . S
O350 La321 2.470 . S
O350 C339 1.258 . S
O351 La320 2.503 . S
O351 C339 1.256 . S
H352 C324 0.930 . S
H353 C325 0.930 . S
H354 C327 0.929 . S
H355 C328 0.929 . S
H356 C333 0.930 . S
H357 C334 0.930 . S
H358 C336 0.929 . S
H359 C337 0.929 . S
C360 C361 1.387 . S
C360 H364 0.950 . S
C360 C369 1.390 . S
C361 C360 1.387 . S
C361 C363 1.387 . S
H362 C369 0.950 . S
C363 C361 1.387 . S
C363 C365 1.390 . S
C363 H367 0.950 . S
H364 C360 0.950 . S
C365 C363 1.390 . S
C365 C366 1.387 . S
C365 H368 0.950 . S
C366 C365 1.387 . S
C366 C369 1.387 . S
H367 C363 0.950 . S
H368 C365 0.950 . S
C369 C360 1.390 . S
C369 H362 0.950 . S
C369 C366 1.387 . S
C370 C371 1.387 . S
C370 H374 0.950 . S
C370 C379 1.390 . S
C371 C370 1.387 . S
C371 C373 1.387 . S
H372 C379 0.950 . S
C373 C371 1.387 . S
C373 C375 1.390 . S
C373 H377 0.950 . S
H374 C370 0.950 . S
C375 C373 1.390 . S
C375 C376 1.387 . S
C375 H378 0.950 . S
C376 C375 1.387 . S
C376 C379 1.387 . S
H377 C373 0.950 . S
H378 C375 0.950 . S
C379 C370 1.390 . S
C379 H372 0.950 . S
C379 C376 1.387 . S
C380 C381 1.387 . S
C380 H384 0.950 . S
C380 C389 1.390 . S
C381 C380 1.387 . S
C381 C383 1.387 . S
H382 C389 0.950 . S
C383 C381 1.387 . S
C383 C385 1.390 . S
C383 H387 0.950 . S
H384 C380 0.950 . S
C385 C383 1.390 . S
C385 C386 1.387 . S
C385 H388 0.950 . S
C386 C385 1.387 . S
C386 C389 1.387 . S
H387 C383 0.950 . S
H388 C385 0.950 . S
C389 C380 1.390 . S
C389 H382 0.950 . S
C389 C386 1.387 . S
C390 C391 1.387 . S
C390 H394 0.950 . S
C390 C399 1.390 . S
C391 C390 1.387 . S
C391 C393 1.387 . S
H392 C399 0.950 . S
C393 C391 1.387 . S
C393 C395 1.390 . S
C393 H397 0.950 . S
H394 C390 0.950 . S
C395 C393 1.390 . S
C395 C396 1.387 . S
C395 H398 0.950 . S
C396 C395 1.387 . S
C396 C399 1.387 . S
H397 C393 0.950 . S
H398 C395 0.950 . S
C399 C390 1.390 . S
C399 H392 0.950 . S
C399 C396 1.387 . S
C400 C401 1.387 . S
C400 H404 0.950 . S
C400 C409 1.390 . S
C401 C400 1.387 . S
C401 C403 1.387 . S
H402 C409 0.950 . S
C403 C401 1.387 . S
C403 C405 1.390 . S
C403 H407 0.950 . S
H404 C400 0.950 . S
C405 C403 1.390 . S
C405 C406 1.387 . S
C405 H408 0.950 . S
C406 C405 1.387 . S
C406 C409 1.387 . S
H407 C403 0.950 . S
H408 C405 0.950 . S
C409 C400 1.390 . S
C409 H402 0.950 . S
C409 C406 1.387 . S
C410 C411 1.387 . S
C410 H414 0.950 . S
C410 C419 1.390 . S
C411 C410 1.387 . S
C411 C413 1.387 . S
H412 C419 0.950 . S
C413 C411 1.387 . S
C413 C415 1.390 . S
C413 H417 0.950 . S
H414 C410 0.950 . S
C415 C413 1.390 . S
C415 C416 1.387 . S
C415 H418 0.950 . S
C416 C415 1.387 . S
C416 C419 1.387 . S
H417 C413 0.950 . S
H418 C415 0.950 . S
C419 C410 1.390 . S
C419 H412 0.950 . S
C419 C416 1.387 . S
C420 C421 1.387 . S
C420 H424 0.950 . S
C420 C429 1.390 . S
C421 C420 1.387 . S
C421 C423 1.387 . S
H422 C429 0.950 . S
C423 C421 1.387 . S
C423 C425 1.390 . S
C423 H427 0.950 . S
H424 C420 0.950 . S
C425 C423 1.390 . S
C425 C426 1.387 . S
C425 H428 0.950 . S
C426 C425 1.387 . S
C426 C429 1.387 . S
H427 C423 0.950 . S
H428 C425 0.950 . S
C429 C420 1.390 . S
C429 H422 0.950 . S
C429 C426 1.387 . S
C430 C431 1.387 . S
C430 H434 0.950 . S
C430 C439 1.390 . S
C431 C430 1.387 . S
C431 C433 1.387 . S
H432 C439 0.950 . S
C433 C431 1.387 . S
C433 C435 1.390 . S
C433 H437 0.950 . S
H434 C430 0.950 . S
C435 C433 1.390 . S
C435 C436 1.387 . S
C435 H438 0.950 . S
C436 C435 1.387 . S
C436 C439 1.387 . S
H437 C433 0.950 . S
H438 C435 0.950 . S
C439 C430 1.390 . S
C439 H432 0.950 . S
C439 C436 1.387 . S
C440 C441 1.387 . S
C440 H444 0.950 . S
C440 C449 1.390 . S
C441 C440 1.387 . S
C441 C443 1.387 . S
H442 C449 0.950 . S
C443 C441 1.387 . S
C443 C445 1.390 . S
C443 H447 0.950 . S
H444 C440 0.950 . S
C445 C443 1.390 . S
C445 C446 1.387 . S
C445 H448 0.950 . S
C446 C445 1.387 . S
C446 C449 1.387 . S
H447 C443 0.950 . S
H448 C445 0.950 . S
C449 C440 1.390 . S
C449 H442 0.950 . S
C449 C446 1.387 . S
C450 C451 1.387 . S
C450 H454 0.950 . S
C450 C459 1.390 . S
C451 C450 1.387 . S
C451 C453 1.387 . S
H452 C459 0.950 . S
C453 C451 1.387 . S
C453 C455 1.390 . S
C453 H457 0.950 . S
H454 C450 0.950 . S
C455 C453 1.390 . S
C455 C456 1.387 . S
C455 H458 0.950 . S
C456 C455 1.387 . S
C456 C459 1.387 . S
H457 C453 0.950 . S
H458 C455 0.950 . S
C459 C450 1.390 . S
C459 H452 0.950 . S
C459 C456 1.387 . S
C460 C461 1.387 . S
C460 H464 0.950 . S
C460 C469 1.390 . S
C461 C460 1.387 . S
C461 C463 1.387 . S
H462 C469 0.950 . S
C463 C461 1.387 . S
C463 C465 1.390 . S
C463 H467 0.950 . S
H464 C460 0.950 . S
C465 C463 1.390 . S
C465 C466 1.387 . S
C465 H468 0.950 . S
C466 C465 1.387 . S
C466 C469 1.387 . S
H467 C463 0.950 . S
H468 C465 0.950 . S
C469 C460 1.390 . S
C469 H462 0.950 . S
C469 C466 1.387 . S
C470 C471 1.387 1_565 S
C470 H474 0.950 . S
C470 C479 1.390 . S
C471 C470 1.387 1_545 S
C471 C473 1.387 . S
H472 C479 0.950 . S
C473 C471 1.387 . S
C473 C475 1.390 . S
C473 H477 0.950 . S
H474 C470 0.950 . S
C475 C473 1.390 . S
C475 C476 1.387 1_545 S
C475 H478 0.950 . S
C476 C475 1.387 1_565 S
C476 C479 1.387 . S
H477 C473 0.950 . S
H478 C475 0.950 . S
C479 C470 1.390 . S
C479 H472 0.950 . S
C479 C476 1.387 . S
C480 C481 1.387 . S
C480 H484 0.950 . S
C480 C489 1.390 1_554 S
C481 C480 1.387 . S
C481 C483 1.387 . S
H482 C489 0.950 . S
C483 C481 1.387 . S
C483 C485 1.390 1_554 S
C483 H487 0.950 . S
H484 C480 0.950 . S
C485 C483 1.390 1_556 S
C485 C486 1.387 . S
C485 H488 0.950 . S
C486 C485 1.387 . S
C486 C489 1.387 . S
H487 C483 0.950 . S
H488 C485 0.950 . S
C489 C480 1.390 1_556 S
C489 H482 0.950 . S
C489 C486 1.387 . S
C490 C491 1.387 1_455 S
C490 H494 0.950 . S
C490 C499 1.390 . S
C491 C490 1.387 1_655 S
C491 C493 1.387 . S
H492 C499 0.950 . S
C493 C491 1.387 . S
C493 C495 1.390 . S
C493 H497 0.950 . S
H494 C490 0.950 . S
C495 C493 1.390 . S
C495 C496 1.387 1_655 S
C495 H498 0.950 . S
C496 C495 1.387 1_455 S
C496 C499 1.387 . S
H497 C493 0.950 . S
H498 C495 0.950 . S
C499 C490 1.390 . S
C499 H492 0.950 . S
C499 C496 1.387 . S
C500 C501 1.387 . S
C500 H504 0.950 . S
C500 C509 1.390 1_556 S
C501 C500 1.387 . S
C501 C503 1.387 . S
H502 C509 0.950 . S
C503 C501 1.387 . S
C503 C505 1.390 . S
C503 H507 0.950 . S
H504 C500 0.950 . S
C505 C503 1.390 . S
C505 C506 1.387 1_556 S
C505 H508 0.950 . S
C506 C505 1.387 1_554 S
C506 C509 1.387 . S
H507 C503 0.950 . S
H508 C505 0.950 . S
C509 C500 1.390 1_554 S
C509 H502 0.950 . S
C509 C506 1.387 . S
C510 C511 1.387 . S
C510 H514 0.950 . S
C510 C519 1.390 . S
C511 C510 1.387 . S
C511 C513 1.387 . S
H512 C519 0.950 1_455 S
C513 C511 1.387 . S
C513 C515 1.390 . S
C513 H517 0.950 . S
H514 C510 0.950 . S
C515 C513 1.390 . S
C515 C516 1.387 . S
C515 H518 0.950 . S
C516 C515 1.387 . S
C516 C519 1.387 . S
H517 C513 0.950 . S
H518 C515 0.950 . S
C519 C510 1.390 . S
C519 H512 0.950 1_655 S
C519 C516 1.387 . S
C520 C521 1.387 1_554 S
C520 H524 0.950 . S
C520 C529 1.390 1_554 S
C521 C520 1.387 1_556 S
C521 C523 1.387 . S
H522 C529 0.950 . S
C523 C521 1.387 . S
C523 C525 1.390 . S
C523 H527 0.950 . S
H524 C520 0.950 . S
C525 C523 1.390 . S
C525 C526 1.387 . S
C525 H528 0.950 . S
C526 C525 1.387 . S
C526 C529 1.387 . S
H527 C523 0.950 . S
H528 C525 0.950 . S
C529 C520 1.390 1_556 S
C529 H522 0.950 . S
C529 C526 1.387 . S
C530 C531 1.387 . S
C530 H534 0.950 . S
C530 C539 1.390 1_556 S
C531 C530 1.387 . S
C531 C533 1.387 . S
H532 C539 0.950 . S
C533 C531 1.387 . S
C533 C535 1.396 . S
C533 H537 0.950 . S
H534 C530 0.950 . S
C535 C533 1.396 . S
C535 C536 1.381 1_556 S
C535 H538 0.950 1_556 S
C536 C535 1.381 1_554 S
C536 C539 1.387 . S
H537 C533 0.950 . S
H538 C535 0.950 1_554 S
C539 C530 1.390 1_554 S
C539 H532 0.950 . S
C539 C536 1.387 . S
C540 C541 1.387 . S
C540 H544 0.950 . S
C540 C549 1.390 . S
C541 C540 1.387 . S
C541 C543 1.387 . S
H542 C549 0.950 . S
C543 C541 1.387 . S
C543 C545 1.390 . S
C543 H547 0.950 . S
H544 C540 0.950 . S
C545 C543 1.390 . S
C545 C546 1.387 . S
C545 H548 0.950 . S
C546 C545 1.387 . S
C546 C549 1.387 . S
H547 C543 0.950 . S
H548 C545 0.950 . S
C549 C540 1.390 . S
C549 H542 0.950 . S
C549 C546 1.387 . S
C550 C551 1.387 . S
C550 H554 0.950 . S
C550 C559 1.390 . S
C551 C550 1.387 . S
C551 C553 1.387 . S
H552 C559 0.950 . S
C553 C551 1.387 . S
C553 C555 1.390 . S
C553 H557 0.950 . S
H554 C550 0.950 . S
C555 C553 1.390 . S
C555 C556 1.387 . S
C555 H558 0.950 . S
C556 C555 1.387 . S
C556 C559 1.387 . S
H557 C553 0.950 . S
H558 C555 0.950 . S
C559 C550 1.390 . S
C559 H552 0.950 . S
C559 C556 1.387 . S
C560 C561 1.387 . S
C560 H564 0.950 . S
C560 C569 1.390 . S
C561 C560 1.387 . S
C561 C563 1.387 . S
H562 C569 0.950 . S
C563 C561 1.387 . S
C563 C565 1.390 . S
C563 H567 0.950 . S
H564 C560 0.950 . S
C565 C563 1.390 . S
C565 C566 1.387 . S
C565 H568 0.950 . S
C566 C565 1.387 . S
C566 C569 1.387 . S
H567 C563 0.950 . S
H568 C565 0.950 . S
C569 C560 1.390 . S
C569 H562 0.950 . S
C569 C566 1.387 . S
C570 C571 1.387 . S
C570 H574 0.950 . S
C570 C579 1.390 . S
C571 C570 1.387 . S
C571 C573 1.387 . S
H572 C579 0.950 . S
C573 C571 1.387 . S
C573 C575 1.390 . S
C573 H577 0.950 . S
H574 C570 0.950 . S
C575 C573 1.390 . S
C575 C576 1.387 . S
C575 H578 0.950 . S
C576 C575 1.387 . S
C576 C579 1.387 . S
H577 C573 0.950 . S
H578 C575 0.950 . S
C579 C570 1.390 . S
C579 H572 0.950 . S
C579 C576 1.387 . S
C580 C581 1.387 . S
C580 H584 0.950 . S
C580 C589 1.390 1_545 S
C581 C580 1.387 . S
C581 C583 1.387 . S
H582 C589 0.950 . S
C583 C581 1.387 . S
C583 C585 1.390 . S
C583 H587 0.950 . S
H584 C580 0.950 . S
C585 C583 1.390 . S
C585 C586 1.387 1_545 S
C585 H588 0.950 . S
C586 C585 1.387 1_565 S
C586 C589 1.387 . S
H587 C583 0.950 . S
H588 C585 0.950 . S
C589 C580 1.390 1_565 S
C589 H582 0.950 . S
C589 C586 1.387 . S
C590 C591 1.387 1_455 S
C590 H594 0.950 . S
C590 C599 1.390 . S
C591 C590 1.387 1_655 S
C591 C593 1.387 . S
H592 C599 0.950 . S
C593 C591 1.387 . S
C593 C595 1.390 . S
C593 H597 0.950 . S
H594 C590 0.950 . S
C595 C593 1.390 . S
C595 C596 1.387 1_655 S
C595 H598 0.950 . S
C596 C595 1.387 1_455 S
C596 C599 1.387 . S
H597 C593 0.950 . S
H598 C595 0.950 . S
C599 C590 1.390 . S
C599 H592 0.950 . S
C599 C596 1.387 . S
C600 C601 1.387 . S
C600 H604 0.950 . S
C600 C609 1.390 . S
C601 C600 1.387 . S
C601 C603 1.387 . S
H602 C609 0.950 . S
C603 C601 1.387 . S
C603 C605 1.390 . S
C603 H607 0.950 . S
H604 C600 0.950 . S
C605 C603 1.390 . S
C605 C606 1.387 . S
C605 H608 0.950 . S
C606 C605 1.387 . S
C606 C609 1.387 . S
H607 C603 0.950 . S
H608 C605 0.950 . S
C609 C600 1.390 . S
C609 H602 0.950 . S
C609 C606 1.387 . S
C610 C611 1.387 1_545 S
C610 H614 0.950 1_545 S
C610 C619 1.390 . S
C611 C610 1.387 1_565 S
C611 C613 1.387 1_565 S
H612 C619 0.950 . S
C613 C611 1.387 1_545 S
C613 C615 1.390 . S
C613 H617 0.950 . S
H614 C610 0.950 1_565 S
C615 C613 1.390 . S
C615 C616 1.387 . S
C615 H618 0.950 . S
C616 C615 1.387 . S
C616 C619 1.387 . S
H617 C613 0.950 . S
H618 C615 0.950 . S
C619 C610 1.390 . S
C619 H612 0.950 . S
C619 C616 1.387 . S
C620 C621 1.387 1_455 S
C620 H624 0.950 . S
C620 C629 1.390 . S
C621 C620 1.387 1_655 S
C621 C623 1.387 . S
H622 C629 0.950 . S
C623 C621 1.387 . S
C623 C625 1.390 . S
C623 H627 0.950 . S
H624 C620 0.950 . S
C625 C623 1.390 . S
C625 C626 1.387 1_655 S
C625 H628 0.950 . S
C626 C625 1.387 1_455 S
C626 C629 1.387 . S
H627 C623 0.950 . S
H628 C625 0.950 . S
C629 C620 1.390 . S
C629 H622 0.950 . S
C629 C626 1.387 . S
C361 C9 3.636 . S
C366 C18 3.636 . S
C371 C58 3.742 . S
C376 C49 3.742 . S
C381 C89 3.790 . S
C386 C98 3.790 . S
C391 C138 3.635 . S
C396 C129 3.635 1_556 S
C401 C169 3.742 . S
C406 C178 3.742 1_556 S
C411 C218 3.790 . S
C416 C209 3.790 1_556 S
C421 C246 0.335 . S
C426 C255 0.335 . S
C431 C295 0.265 . S
C436 C286 0.265 . S
C441 C326 0.788 . S
C446 C335 0.788 . S
C451 C210 1.559 . S
C456 C6 1.603 . S
C461 C50 2.658 . S
C466 C130 2.702 . S
C471 C86 1.213 . S
C476 C166 1.227 . S
C481 C90 3.126 . S
C486 C259 3.343 . S
C491 C298 1.388 . S
C496 C10 1.253 . S
C501 C339 2.276 . S
C506 C46 2.053 . S
C511 C329 1.181 . S
C516 C15 1.069 . S
C521 C59 2.397 1_556 S
C526 C249 2.492 . S
C531 C290 3.265 . S
C536 C95 2.972 . S
C541 C99 1.558 . S
C546 C135 1.603 . S
C551 C179 2.657 . S
C556 C19 2.701 . S
C561 C55 1.224 . S
C566 C215 1.209 . S
C571 C338 1.181 . S
C576 C126 1.067 . S
C581 C258 2.492 . S
C586 C170 2.397 . S
C591 C299 3.264 . S
C596 C206 2.970 . S
C601 C250 3.343 . S
C606 C219 3.124 . S
C611 C139 1.258 . S
C616 C289 1.387 . S
C621 C330 2.277 . S
C626 C175 2.054 . S
