# Generated by pormake.
# Topology sma, (6)-cn, num edge types: 1
# Building blocks:
#     Node 0, Type 0, BuildingBlock: BETFEN_clean_sbu_0, # of connection points: 6
#     Node 1, Type 0, BuildingBlock: BETFEN_clean_sbu_0, # of connection points: 6
#     Node 2, Type 0, BuildingBlock: BETFEN_clean_sbu_0, # of connection points: 6
#     Edge 3, Type (0, 0), BuildingBlock: UVAHIK_clean_linker_0, # of connection points: 2
#     Edge 4, Type (0, 0), BuildingBlock: UVAHIK_clean_linker_0, # of connection points: 2
#     Edge 5, Type (0, 0), BuildingBlock: UVAHIK_clean_linker_0, # of connection points: 2
#     Edge 6, Type (0, 0), BuildingBlock: UVAHIK_clean_linker_0, # of connection points: 2
#     Edge 7, Type (0, 0), BuildingBlock: UVAHIK_clean_linker_0, # of connection points: 2
#     Edge 8, Type (0, 0), BuildingBlock: UVAHIK_clean_linker_0, # of connection points: 2
#     Edge 9, Type (0, 0), BuildingBlock: UVAHIK_clean_linker_0, # of connection points: 2
#     Edge 10, Type (0, 0), BuildingBlock: UVAHIK_clean_linker_0, # of connection points: 2
#     Edge 11, Type (0, 0), BuildingBlock: UVAHIK_clean_linker_0, # of connection points: 2
# Relax obj value: 0.123
# Max RMSD: 0.245
# Mean RMSD: 0.202
data_MOF--net-sma--node1-BETFEN_clean_sbu_0--edge1-UVAHIK_clean_linker_0
_symmetry_space_group_name_H-M    P1
_symmetry_Int_Tables_number       1
_symmetry_cell_setting            triclinic
loop_
_symmetry_equiv_pos_as_xyz
'x, y, z'
_cell_length_a     39.845539
_cell_length_b     49.135794
_cell_length_c     17.639605
_cell_angle_alpha  90.155727
_cell_angle_beta   94.975319
_cell_angle_gamma 101.41628
loop_
_atom_site_label
_atom_site_type_symbol
_atom_site_fract_x
_atom_site_fract_y
_atom_site_fract_z
_atom_type_partial_charge
Pr0 Pr 0.07037 0.4999 0.07975 0.0
Pr1 Pr 0.08917 0.5633 0.03696 0.0
C2 C 0.05807 0.45036 0.14839 0.0
C3 C 1.02972 0.42756 0.16657 0.0
C4 C 1.0054 0.41367 0.10967 0.0
C5 C 0.98033 0.39089 0.12761 0.0
C6 C 0.97893 0.38148 0.20287 0.0
C7 C 1.00286 0.3959 0.25985 0.0
C8 C 1.02797 0.41858 0.24182 0.0
C9 C 0.06513 0.51022 0.9261 0.0
C10 C 1.00715 0.53095 0.02232 0.0
C11 C 0.10213 0.61689 -0.00414 0.0
C12 C 0.12376 0.64213 0.03323 0.0
C13 C 0.12831 0.64471 0.113 0.0
C14 C 0.14998 0.66797 0.14855 0.0
C15 C 0.16786 0.68919 0.10529 0.0
C16 C 0.16306 0.6866 0.02526 0.0
C17 C 0.14125 0.66329 -0.01033 0.0
C18 C 0.08632 0.55239 0.19158 0.0
C19 C 0.15281 0.52982 0.06114 0.0
O20 O 0.06162 0.47406 0.18553 0.0
O21 O 0.06458 0.45326 0.07699 0.0
O22 O 0.08856 0.52258 -0.02615 0.0
O23 O 1.04512 0.48963 0.95609 0.0
O24 O 1.03047 0.55036 -0.00623 0.0
O25 O 1.01594 0.51154 0.06759 0.0
O26 O 0.11855 0.59855 0.97113 0.0
O27 O 0.07485 0.60558 0.02931 0.0
O28 O 0.06612 0.54038 0.13811 0.0
O29 O 0.11013 0.57101 0.16568 0.0
O30 O 0.13158 0.50948 0.09223 0.0
O31 O 0.14203 0.55121 0.02972 0.0
H32 H 1.00605 0.42007 0.05102 0.0
H33 H 0.96264 0.3802 0.08201 0.0
H34 H 1.00226 0.38966 0.31862 0.0
H35 H 1.04639 0.42893 0.28674 0.0
H36 H 0.11526 0.62863 0.14806 0.0
H37 H 0.15254 0.66937 0.21013 0.0
H38 H 0.17669 0.70231 -0.00997 0.0
H39 H 0.13838 0.66161 0.92809 0.0
Pr40 Pr 0.61422 0.0369 0.50281 0.0
Pr41 Pr 0.53802 1.01356 0.54445 0.0
C42 C 0.6722 0.05565 0.43489 0.0
C43 C 0.69452 0.08249 0.41754 0.0
C44 C 0.7138 0.09998 0.47579 0.0
C45 C 0.73567 0.12472 0.45833 0.0
C46 C 0.73877 0.13266 0.38228 0.0
C47 C 0.71919 0.11531 0.32413 0.0
C48 C 0.69746 0.09047 0.34158 0.0
C49 C 0.60522 0.03722 0.65598 0.0
C50 C 0.56867 0.08174 0.55478 0.0
C51 C 0.47409 0.99415 0.58372 0.0
C52 C 0.44681 0.97162 0.54847 0.0
C53 C 0.44205 0.96796 0.46892 0.0
C54 C 0.41842 0.94538 0.4354 0.0
C55 C 0.39904 0.92569 0.48045 0.0
C56 C 0.40336 0.92965 0.56016 0.0
C57 C 0.42709 0.95236 0.59378 0.0
C58 C 0.54712 1.01928 0.39025 0.0
C59 C 0.58721 0.96804 0.52176 0.0
O60 O 0.6418 0.04922 0.39699 0.0
O61 O 0.67209 0.04836 0.50629 0.0
O62 O 0.59105 1.01811 0.60909 0.0
O63 O 0.62787 0.05576 0.62546 0.0
O64 O 0.54754 0.06069 0.5833 0.0
O65 O 0.59292 0.07777 0.51152 0.0
O66 O 0.50113 0.98633 0.61736 0.0
O67 O 0.48203 1.01646 0.54332 0.0
O68 O 0.561 0.03606 0.44255 0.0
O69 O 0.52727 0.99801 0.41685 0.0
O70 O 0.61065 0.98807 0.4958 0.0
O71 O 0.55893 0.97283 0.54804 0.0
H72 H 0.71218 0.09456 0.53501 0.0
H73 H 0.75001 0.13774 0.50458 0.0
H74 H 0.72123 0.12061 0.26493 0.0
H75 H 0.68313 0.07734 0.29549 0.0
H76 H 0.457 0.98234 0.43234 0.0
H77 H 0.41542 0.94335 0.37391 0.0
H78 H 0.38914 0.91479 0.59672 0.0
H79 H 0.43055 0.95457 0.65525 0.0
Pr80 Pr 0.5647 0.50121 0.84643 0.0
Pr81 Pr 0.57995 0.56541 0.88437 0.0
C82 C 0.5422 0.44939 0.78737 0.0
C83 C 0.55076 0.42181 0.77384 0.0
C84 C 0.5537 0.40331 0.83367 0.0
C85 C 0.55767 0.37617 0.8187 0.0
C86 C 0.55877 0.36685 0.74361 0.0
C87 C 0.55677 0.38563 0.6841 0.0
C88 C 0.55269 0.41273 0.69904 0.0
C89 C 0.58954 0.51587 -0.00506 0.0
C90 C 0.6453 0.53241 0.86783 0.0
C91 C 0.60124 0.61974 0.92347 0.0
C92 C 0.60343 0.64641 0.88411 0.0
C93 C 0.58751 0.64746 0.8103 0.0
C94 C 0.58905 0.6729 0.77383 0.0
C95 C 0.60668 0.69783 0.81028 0.0
C96 C 0.62307 0.69656 0.88386 0.0
C97 C 0.62139 0.67109 0.92041 0.0
C98 C 0.55987 0.55099 0.73152 0.0
C99 C 0.50261 0.53149 0.90077 0.0
O100 O 0.55609 0.47035 0.74707 0.0
O101 O 0.53826 0.45648 0.85718 0.0
O102 O 0.56825 0.5268 0.95529 0.0
O103 O 0.59602 0.49406 0.96158 0.0
O104 O 0.6344 0.55318 0.89959 0.0
O105 O 0.62371 0.51116 0.83317 0.0
O106 O 0.57029 0.60578 0.93174 0.0
O107 O 0.622 0.60394 0.90395 0.0
O108 O 0.57962 0.53999 0.77528 0.0
O109 O 0.55024 0.57087 0.76681 0.0
O110 O 0.51005 0.51307 0.85313 0.0
O111 O 0.52688 0.55146 0.93271 0.0
H112 H 0.55217 0.40954 0.892 0.0
H113 H 0.55959 0.36239 0.866 0.0
H114 H 0.5571 0.37911 0.62552 0.0
H115 H 0.55001 0.42637 0.65168 0.0
H116 H 0.57374 0.62861 0.78101 0.0
H117 H 0.57655 0.67303 0.71685 0.0
H118 H 0.63655 0.71534 0.91394 0.0
H119 H 0.63387 0.67069 -0.02265 0.0
C120 C 0.2029 0.50492 0.07831 0.0
C121 C 0.18953 0.5284 0.05585 0.0
C122 C 0.23713 0.50363 0.06756 0.0
C123 C 0.32067 0.54907 0.03039 0.0
H124 H 0.34374 0.48123 0.95719 0.0
C125 C 0.46055 0.54418 -0.01463 0.0
C126 C 0.46688 0.52914 0.92203 0.0
C127 C 0.42718 0.54224 0.00647 0.0
C128 C 0.3377 0.50042 -0.02295 0.0
H129 H 0.20211 0.56898 0.0049 0.0
H130 H 0.26057 0.56648 -0.01462 0.0
H131 H 0.28489 0.48141 -0.01372 0.0
H132 H 0.44287 0.49997 0.83154 0.0
H133 H 0.38429 0.49727 0.86679 0.0
H134 H 0.37267 0.56852 0.01812 0.0
C135 C 0.24518 0.54923 0.01257 0.0
C136 C 0.30402 0.5004 -0.00517 0.0
C137 C 0.2113 0.55055 0.02341 0.0
C138 C 0.43891 0.51186 0.88062 0.0
C139 C 0.40532 0.51015 0.90128 0.0
C140 C 0.3541 0.54914 0.01218 0.0
C141 C 0.25868 0.5258 0.03433 0.0
C142 C 0.29497 0.52485 0.02092 0.0
C143 C 0.39896 0.52549 0.96428 0.0
C144 C 0.36317 0.52489 -0.01511 0.0
H145 H 0.18686 0.48744 0.1032 0.0
H146 H 0.24674 0.48533 0.08555 0.0
H147 H 0.31493 0.56821 0.05145 0.0
H148 H 0.48148 0.55739 0.01938 0.0
H149 H 0.4236 0.55386 0.05636 0.0
C150 C 0.79557 0.16615 0.40292 0.0
C151 C 0.7627 0.15873 0.36377 0.0
C152 C 0.81818 0.19049 0.38546 0.0
C153 C 0.83474 0.24305 0.2345 0.0
H154 H 0.89354 0.28627 0.39681 0.0
C155 C 0.9196 0.351 0.18557 0.0
C156 C 0.95324 0.3564 0.22164 0.0
C157 C 0.89578 0.32728 0.20273 0.0
C158 C 0.87753 0.27432 0.35069 0.0
H159 H 0.72773 0.17143 0.27611 0.0
H160 H 0.76694 0.21403 0.24618 0.0
H161 H 0.85312 0.2445 0.42703 0.0
H162 H 0.98814 0.34045 0.30327 0.0
H163 H 0.94663 0.29943 0.33364 0.0
H164 H 0.85911 0.27306 0.15828 0.0
C165 C 0.77557 0.20076 0.28948 0.0
C166 C 0.85434 0.25029 0.36799 0.0
C167 C 0.75301 0.17632 0.30672 0.0
C168 C 0.96234 0.33739 0.2754 0.0
C169 C 0.9385 0.31376 0.29279 0.0
C170 C 0.85784 0.26717 0.21724 0.0
C171 C 0.8085 0.20819 0.32858 0.0
C172 C 0.83273 0.23419 0.31012 0.0
C173 C 0.90492 0.30837 0.25666 0.0
C174 C 0.87968 0.28304 0.27508 0.0
H175 H 0.80412 0.15288 0.44631 0.0
H176 H 0.8435 0.19517 0.41585 0.0
H177 H 0.81894 0.23103 0.18821 0.0
H178 H 0.91144 0.36531 0.1447 0.0
H179 H 0.87002 0.32396 0.17452 0.0
C180 C 0.62577 0.93393 0.55237 0.0
C181 C 0.59316 0.93929 0.5287 0.0
C182 C 0.62938 0.90718 0.57518 0.0
C183 C 0.57627 0.84364 0.64918 0.0
H184 H 0.65499 0.81023 0.62348 0.0
C185 C 0.57717 0.73057 0.73254 0.0
C186 C 0.60711 0.72507 0.77259 0.0
C187 C 0.57704 0.75635 0.69915 0.0
C188 C 0.63295 0.81941 0.63158 0.0
H189 H 0.53932 0.92053 0.50438 0.0
H190 H 0.5457 0.87403 0.54059 0.0
H191 H 0.65226 0.85548 0.56799 0.0
H192 H 0.66069 0.74232 0.80713 0.0
H193 H 0.66036 0.78747 0.74914 0.0
H194 H 0.55689 0.80774 0.71243 0.0
C195 C 0.56838 0.89045 0.54472 0.0
C196 C 0.63139 0.84536 0.5998 0.0
C197 C 0.56475 0.91709 0.52306 0.0
C198 C 0.63709 0.74594 0.77735 0.0
C199 C 0.63701 0.77172 0.74344 0.0
C200 C 0.57775 0.81776 0.68041 0.0
C201 C 0.60045 0.88529 0.57406 0.0
C202 C 0.60284 0.85773 0.60767 0.0
C203 C 0.60686 0.77734 0.70458 0.0
C204 C 0.60597 0.80519 0.67171 0.0
H205 H 0.64806 0.95071 0.55802 0.0
H206 H 0.65449 0.90405 0.5975 0.0
H207 H 0.55434 0.85276 0.65863 0.0
H208 H 0.55353 0.71513 0.72827 0.0
H209 H 0.55346 0.75984 0.66896 0.0
C210 C 0.7056 0.55346 0.91901 0.0
C211 C 0.68274 0.53239 0.87601 0.0
C212 C 0.74067 0.55306 0.92981 0.0
C213 C 0.80237 0.50587 0.9251 0.0
H214 H 0.8695 0.57491 0.93034 0.0
C215 C 0.94466 0.51272 0.03811 0.0
C216 C 0.97012 0.53057 0.00157 0.0
C217 C 0.90978 0.51251 0.01891 0.0
C218 C 0.85119 0.55538 0.92831 0.0
H219 H 0.67918 0.4945 0.80981 0.0
H220 H 0.74053 0.49403 0.82776 0.0
H221 H 0.80881 0.57547 0.90113 0.0
H222 H 0.97867 0.56178 0.91476 0.0
H223 H 0.91794 0.56117 0.88074 0.0
H224 H 0.84486 0.48573 0.95107 0.0
C225 C 0.73117 0.51068 0.8541 0.0
C226 C 0.81626 0.55574 0.91247 0.0
C227 C 0.69598 0.51104 0.84337 0.0
C228 C 0.95981 0.54798 0.94474 0.0
C229 C 0.92492 0.5477 0.92536 0.0
C230 C 0.83734 0.5055 0.94086 0.0
C231 C 0.75397 0.53164 0.89777 0.0
C232 C 0.79133 0.53103 0.91124 0.0
C233 C 0.89941 0.53006 0.96242 0.0
C234 C 0.86222 0.53028 0.94322 0.0
H235 H 0.6964 0.57016 0.94551 0.0
H236 H 0.75726 0.56931 0.96481 0.0
H237 H 0.78394 0.48645 0.92537 0.0
H238 H 0.95164 0.49907 0.08226 0.0
H239 H 0.89095 0.49893 0.04945 0.0
C240 C 0.34281 0.89082 0.47115 0.0
C241 C 0.37504 0.90094 0.444 0.0
C242 C 0.32018 0.86798 0.43542 0.0
C243 C 0.30129 0.8281 0.25249 0.0
H244 H 0.24859 0.77163 0.37177 0.0
C245 C 0.19368 0.74052 0.11444 0.0
C246 C 0.19161 0.71368 0.14374 0.0
C247 C 0.21571 0.76344 0.15116 0.0
C248 C 0.26325 0.78713 0.33756 0.0
H249 H 0.40903 0.89409 0.35928 0.0
H250 H 0.36968 0.85453 0.29716 0.0
H251 H 0.28787 0.81099 0.43607 0.0
H252 H 0.21202 0.69006 0.23414 0.0
H253 H 0.25014 0.72993 0.29811 0.0
H254 H 0.27712 0.80404 0.15405 0.0
C255 C 0.36156 0.86458 0.34513 0.0
C256 C 0.28551 0.80988 0.37447 0.0
C257 C 0.38416 0.88733 0.38084 0.0
C258 C 0.21234 0.71043 0.21059 0.0
C259 C 0.23428 0.73334 0.24738 0.0
C260 C 0.27893 0.80543 0.2156 0.0
C261 C 0.32917 0.85467 0.3716 0.0
C262 C 0.30495 0.83062 0.33244 0.0
C263 C 0.23624 0.76017 0.21827 0.0
C264 C 0.2597 0.78457 0.25761 0.0
H265 H 0.33473 0.90092 0.51908 0.0
H266 H 0.29531 0.86111 0.45691 0.0
H267 H 0.31554 0.84381 0.21819 0.0
H268 H 0.17779 0.74394 0.06377 0.0
H269 H 0.2162 0.78383 0.12761 0.0
C270 C 0.58101 0.33081 0.67116 0.0
C271 C 0.56061 0.33739 0.72702 0.0
C272 C 0.58166 0.30311 0.65368 0.0
C273 C 0.56127 0.23148 0.72799 0.0
H274 H 0.5626 0.21006 0.51676 0.0
C275 C 0.54477 0.11637 0.62876 0.0
C276 C 0.56618 0.11072 0.57383 0.0
C277 C 0.54343 0.14382 0.64794 0.0
C278 C 0.56257 0.21571 0.57614 0.0
H279 H 0.52468 0.31979 0.80791 0.0
H280 H 0.52574 0.27159 0.77737 0.0
H281 H 0.56215 0.25814 0.54979 0.0
H282 H 0.60298 0.12969 0.4961 0.0
H283 H 0.60072 0.17728 0.52967 0.0
H284 H 0.56162 0.18896 0.75417 0.0
C285 C 0.54172 0.28784 0.74787 0.0
C286 C 0.56237 0.24335 0.59514 0.0
C287 C 0.54113 0.31554 0.76545 0.0
C288 C 0.58608 0.13318 0.53844 0.0
C289 C 0.58463 0.16055 0.55738 0.0
C290 C 0.56141 0.2038 0.70894 0.0
C291 C 0.56185 0.28122 0.69143 0.0
C292 C 0.56187 0.25167 0.67135 0.0
C293 C 0.56334 0.16628 0.61243 0.0
C294 C 0.56223 0.19558 0.63278 0.0
H295 H 0.59671 0.3471 0.64119 0.0
H296 H 0.59797 0.29887 0.6109 0.0
H297 H 0.56133 0.23715 0.78737 0.0
H298 H 0.52924 0.09961 0.6575 0.0
H299 H 0.52652 0.14745 0.6901 0.0
C300 C 0.07856 0.54388 0.82377 0.0
C301 C 0.05498 0.52304 0.85549 0.0
C302 C 0.06916 0.55592 0.75602 0.0
C303 C 1.0143 0.53312 0.58684 0.0
H304 H 0.06171 0.6038 0.51573 0.0
C305 C 1.03972 0.54412 0.27748 0.0
C306 C 0.07426 0.55507 0.26666 0.0
C307 C 1.02691 0.54794 0.34652 0.0
C308 C 1.04801 0.5841 0.53486 0.0
H309 H 1.00225 0.50023 0.84687 0.0
H310 H 0.98564 0.52144 0.72821 0.0
H311 H 0.05527 0.5977 0.65155 0.0
H312 H 0.12236 0.57905 0.3181 0.0
H313 H 0.10058 0.58412 0.44172 0.0
H314 H 1.0092 0.51867 0.47213 0.0
C315 C 1.01159 0.52802 0.75458 0.0
C316 C 1.0442 0.58065 0.61228 0.0
C317 C 1.02118 0.51566 0.82175 0.0
C318 C 0.09576 0.5702 0.3257 0.0
C319 C 0.08306 0.57354 0.39568 0.0
C320 C 1.01807 0.53655 0.50985 0.0
C321 C 1.03588 0.54746 0.71952 0.0
C322 C 1.02927 0.55455 0.63923 0.0
C323 C 1.04859 0.56213 0.40687 0.0
C324 C 1.03674 0.56152 0.4838 0.0
H325 H 0.1046 0.5502 0.84991 0.0
H326 H 0.08867 0.57052 0.73 0.0
H327 H 1.00285 0.51268 0.60558 0.0
H328 H 1.02233 0.5328 0.23228 0.0
H329 H 1.00017 0.53923 0.35318 0.0
C330 C 0.55317 0.05641 0.29521 0.0
C331 C 0.54268 0.02823 0.31177 0.0
C332 C 0.54845 0.0655 0.22135 0.0
C333 C 0.50927 0.04345 0.02652 0.0
H334 H 0.59672 0.08442 0.96988 0.0
C335 C 0.56617 1.02228 0.75636 0.0
C336 C 0.58947 0.04321 0.72419 0.0
C337 C 0.55052 0.02813 0.82027 0.0
C338 C 0.57165 0.07378 -0.01573 0.0
H339 H 0.51806 0.98759 0.26585 0.0
H340 H 0.51167 1.00315 0.13493 0.0
H341 H 0.58675 0.08041 0.10237 0.0
H342 H 0.61288 0.08706 0.7288 0.0
H343 H 0.58533 0.09738 0.84056 0.0
H344 H 0.4954 0.03524 0.90753 0.0
C345 C 0.52243 1.01839 0.17947 0.0
C346 C 0.56592 0.07143 0.06063 0.0
C347 C 0.52662 1.00936 0.2539 0.0
C348 C 0.59572 0.07039 0.75424 0.0
C349 C 0.57969 0.07635 0.81748 0.0
C350 C 0.51504 0.04582 0.94978 0.0
C351 C 0.53388 0.04649 0.16241 0.0
C352 C 0.53547 0.05497 0.08257 0.0
C353 C 0.5577 0.05511 0.85236 0.0
C354 C 0.54707 0.05966 0.92851 0.0
H355 H 0.56506 0.07151 0.33932 0.0
H356 H 0.55712 0.0873 0.20997 0.0
H357 H 0.48525 0.03119 0.04211 0.0
H358 H 0.56068 1.00126 0.73319 0.0
H359 H 0.53418 1.0112 0.84666 0.0
C360 C 0.56346 0.57709 0.61128 0.0
C361 C 0.56475 0.55244 0.65045 0.0
C362 C 0.57692 0.58117 0.54095 0.0
C363 C 0.63627 0.55477 0.42276 0.0
H364 H 0.58268 0.58121 0.25544 0.0
C365 C 0.61959 0.51273 0.12298 0.0
C366 C 0.60784 0.52883 0.06513 0.0
C367 C 0.62998 0.52456 0.1953 0.0
C368 C 0.59877 0.57466 0.30171 0.0
H369 H 0.57864 0.51207 0.6457 0.0
H370 H 0.60052 0.51855 0.52112 0.0
H371 H 0.56574 0.58373 0.38293 0.0
H372 H 0.60275 0.57038 0.03216 0.0
H373 H 0.62193 0.59122 0.15744 0.0
H374 H 0.66783 0.54383 0.33996 0.0
C375 C 0.59057 0.53519 0.54594 0.0
C376 C 0.58884 0.57598 0.37491 0.0
C377 C 0.57741 0.53122 0.61632 0.0
C378 C 0.61087 0.55747 0.07693 0.0
C379 C 0.62203 0.56941 0.14836 0.0
C380 C 0.64617 0.55334 0.34925 0.0
C381 C 0.59148 0.56053 0.50883 0.0
C382 C 0.60642 0.56471 0.43532 0.0
C383 C 0.62909 0.55263 0.20945 0.0
C384 C 0.62639 0.56196 0.28769 0.0
H385 H 0.55413 0.5939 0.63693 0.0
H386 H 0.57709 0.60082 0.51315 0.0
H387 H 0.65084 0.54669 0.4691 0.0
H388 H 0.61787 0.49065 0.11426 0.0
H389 H 0.63526 0.51106 0.24136 0.0
loop_
_geom_bond_atom_site_label_1
_geom_bond_atom_site_label_2
_geom_bond_distance
_geom_bond_site_symmetry_2
_ccdc_geom_bond_type
Pr0 C2 2.880 1_455 S
Pr0 O20 2.562 1_455 S
Pr0 O21 2.490 1_455 S
Pr0 O22 2.695 . S
Pr0 O23 2.512 1_554 S
Pr0 O25 2.437 1_455 S
Pr0 O28 2.436 . S
Pr0 O30 2.438 . S
Pr1 C11 2.880 . S
Pr1 O22 2.436 . S
Pr1 O24 2.438 1_455 S
Pr1 O26 2.562 . S
Pr1 O27 2.490 . S
Pr1 O28 2.695 . S
Pr1 O29 2.512 . S
Pr1 O31 2.437 . S
C2 Pr0 2.880 1_655 S
C2 C3 1.491 . S
C2 O20 1.254 . S
C2 O21 1.225 . S
C3 C2 1.491 . S
C3 C4 1.392 . S
C3 C8 1.356 . S
C4 C3 1.392 . S
C4 C5 1.368 . S
C4 H32 0.929 . S
C5 C4 1.368 . S
C5 C6 1.386 . S
C5 H33 0.929 . S
C6 C5 1.386 . S
C6 C7 1.373 . S
C7 C6 1.373 . S
C7 C8 1.409 . S
C7 H34 0.931 . S
C8 C3 1.356 . S
C8 C7 1.409 . S
C8 H35 0.930 . S
C9 O22 1.270 1_556 S
C9 O23 1.248 . S
C10 O24 1.267 . S
C10 O25 1.278 . S
C11 Pr1 2.880 . S
C11 C12 1.491 . S
C11 O26 1.254 . S
C11 O27 1.225 . S
C12 C11 1.491 . S
C12 C13 1.392 . S
C12 C17 1.356 . S
C13 C12 1.392 . S
C13 C14 1.368 . S
C13 H36 0.929 . S
C14 C13 1.368 . S
C14 C15 1.386 . S
C14 H37 0.929 . S
C15 C14 1.386 . S
C15 C16 1.373 . S
C16 C15 1.373 . S
C16 C17 1.409 . S
C16 H38 0.931 . S
C17 C12 1.356 . S
C17 C16 1.409 . S
C17 H39 0.930 . S
C18 O28 1.270 . S
C18 O29 1.248 . S
C19 O30 1.267 . S
C19 O31 1.278 . S
O20 Pr0 2.562 1_655 S
O20 C2 1.254 . S
O21 Pr0 2.490 1_655 S
O21 C2 1.225 . S
O22 Pr0 2.695 . S
O22 Pr1 2.436 . S
O22 C9 1.270 1_554 S
O23 Pr0 2.512 1_556 S
O23 C9 1.248 . S
O24 Pr1 2.438 1_655 S
O24 C10 1.267 . S
O25 Pr0 2.437 1_655 S
O25 C10 1.278 . S
O26 Pr1 2.562 . S
O26 C11 1.254 . S
O27 Pr1 2.490 . S
O27 C11 1.225 . S
O28 Pr0 2.436 . S
O28 Pr1 2.695 . S
O28 C18 1.270 . S
O29 Pr1 2.512 . S
O29 C18 1.248 . S
O30 Pr0 2.438 . S
O30 C19 1.267 . S
O31 Pr1 2.437 . S
O31 C19 1.278 . S
H32 C4 0.929 . S
H33 C5 0.929 . S
H34 C7 0.931 . S
H35 C8 0.930 . S
H36 C13 0.929 . S
H37 C14 0.929 . S
H38 C16 0.931 . S
H39 C17 0.930 . S
Pr40 C42 2.880 . S
Pr40 O60 2.562 . S
Pr40 O61 2.490 . S
Pr40 O62 2.695 . S
Pr40 O63 2.512 . S
Pr40 O65 2.437 . S
Pr40 O68 2.436 . S
Pr40 O70 2.438 1_545 S
Pr41 C51 2.880 . S
Pr41 O62 2.436 1_565 S
Pr41 O64 2.438 1_565 S
Pr41 O66 2.562 . S
Pr41 O67 2.490 . S
Pr41 O68 2.695 1_565 S
Pr41 O69 2.512 . S
Pr41 O71 2.437 . S
C42 Pr40 2.880 . S
C42 C43 1.491 . S
C42 O60 1.254 . S
C42 O61 1.225 . S
C43 C42 1.491 . S
C43 C44 1.392 . S
C43 C48 1.356 . S
C44 C43 1.392 . S
C44 C45 1.368 . S
C44 H72 0.929 . S
C45 C44 1.368 . S
C45 C46 1.386 . S
C45 H73 0.929 . S
C46 C45 1.386 . S
C46 C47 1.373 . S
C47 C46 1.373 . S
C47 C48 1.409 . S
C47 H74 0.931 . S
C48 C43 1.356 . S
C48 C47 1.409 . S
C48 H75 0.930 . S
C49 O62 1.270 . S
C49 O63 1.248 . S
C50 O64 1.267 . S
C50 O65 1.278 . S
C51 Pr41 2.880 . S
C51 C52 1.491 . S
C51 O66 1.254 . S
C51 O67 1.225 . S
C52 C51 1.491 . S
C52 C53 1.392 . S
C52 C57 1.356 . S
C53 C52 1.392 . S
C53 C54 1.368 . S
C53 H76 0.929 . S
C54 C53 1.368 . S
C54 C55 1.386 . S
C54 H77 0.929 . S
C55 C54 1.386 . S
C55 C56 1.373 . S
C56 C55 1.373 . S
C56 C57 1.409 . S
C56 H78 0.931 . S
C57 C52 1.356 . S
C57 C56 1.409 . S
C57 H79 0.930 . S
C58 O68 1.270 . S
C58 O69 1.248 1_545 S
C59 O70 1.267 . S
C59 O71 1.278 . S
O60 Pr40 2.562 . S
O60 C42 1.254 . S
O61 Pr40 2.490 . S
O61 C42 1.225 . S
O62 Pr40 2.695 . S
O62 Pr41 2.436 1_545 S
O62 C49 1.270 . S
O63 Pr40 2.512 . S
O63 C49 1.248 . S
O64 Pr41 2.438 1_545 S
O64 C50 1.267 . S
O65 Pr40 2.437 . S
O65 C50 1.278 . S
O66 Pr41 2.562 . S
O66 C51 1.254 . S
O67 Pr41 2.490 . S
O67 C51 1.225 . S
O68 Pr40 2.436 . S
O68 Pr41 2.695 1_545 S
O68 C58 1.270 . S
O69 Pr41 2.512 . S
O69 C58 1.248 1_565 S
O70 Pr40 2.438 1_565 S
O70 C59 1.267 . S
O71 Pr41 2.437 . S
O71 C59 1.278 . S
H72 C44 0.929 . S
H73 C45 0.929 . S
H74 C47 0.931 . S
H75 C48 0.930 . S
H76 C53 0.929 . S
H77 C54 0.929 . S
H78 C56 0.931 . S
H79 C57 0.930 . S
Pr80 C82 2.880 . S
Pr80 O100 2.562 . S
Pr80 O101 2.490 . S
Pr80 O102 2.695 . S
Pr80 O103 2.512 . S
Pr80 O105 2.437 . S
Pr80 O108 2.436 . S
Pr80 O110 2.438 . S
Pr81 C91 2.880 . S
Pr81 O102 2.436 . S
Pr81 O104 2.438 . S
Pr81 O106 2.562 . S
Pr81 O107 2.490 . S
Pr81 O108 2.695 . S
Pr81 O109 2.512 . S
Pr81 O111 2.437 . S
C82 Pr80 2.880 . S
C82 C83 1.491 . S
C82 O100 1.254 . S
C82 O101 1.225 . S
C83 C82 1.491 . S
C83 C84 1.392 . S
C83 C88 1.356 . S
C84 C83 1.392 . S
C84 C85 1.368 . S
C84 H112 0.929 . S
C85 C84 1.368 . S
C85 C86 1.386 . S
C85 H113 0.929 . S
C86 C85 1.386 . S
C86 C87 1.373 . S
C87 C86 1.373 . S
C87 C88 1.409 . S
C87 H114 0.931 . S
C88 C83 1.356 . S
C88 C87 1.409 . S
C88 H115 0.930 . S
C89 O102 1.270 . S
C89 O103 1.248 . S
C90 O104 1.267 . S
C90 O105 1.278 . S
C91 Pr81 2.880 . S
C91 C92 1.491 . S
C91 O106 1.254 . S
C91 O107 1.225 . S
C92 C91 1.491 . S
C92 C93 1.392 . S
C92 C97 1.356 . S
C93 C92 1.392 . S
C93 C94 1.368 . S
C93 H116 0.929 . S
C94 C93 1.368 . S
C94 C95 1.386 . S
C94 H117 0.929 . S
C95 C94 1.386 . S
C95 C96 1.373 . S
C96 C95 1.373 . S
C96 C97 1.409 . S
C96 H118 0.931 . S
C97 C92 1.356 . S
C97 C96 1.409 . S
C97 H119 0.930 . S
C98 O108 1.270 . S
C98 O109 1.248 . S
C99 O110 1.267 . S
C99 O111 1.278 . S
O100 Pr80 2.562 . S
O100 C82 1.254 . S
O101 Pr80 2.490 . S
O101 C82 1.225 . S
O102 Pr80 2.695 . S
O102 Pr81 2.436 . S
O102 C89 1.270 . S
O103 Pr80 2.512 . S
O103 C89 1.248 . S
O104 Pr81 2.438 . S
O104 C90 1.267 . S
O105 Pr80 2.437 . S
O105 C90 1.278 . S
O106 Pr81 2.562 . S
O106 C91 1.254 . S
O107 Pr81 2.490 . S
O107 C91 1.225 . S
O108 Pr80 2.436 . S
O108 Pr81 2.695 . S
O108 C98 1.270 . S
O109 Pr81 2.512 . S
O109 C98 1.248 . S
O110 Pr80 2.438 . S
O110 C99 1.267 . S
O111 Pr81 2.437 . S
O111 C99 1.278 . S
H112 C84 0.929 . S
H113 C85 0.929 . S
H114 C87 0.931 . S
H115 C88 0.930 . S
H116 C93 0.929 . S
H117 C94 0.929 . S
H118 C96 0.931 . S
H119 C97 0.930 . S
C120 C121 1.349 . S
C120 C122 1.327 . S
C120 H145 0.950 . S
C121 C120 1.349 . S
C121 C137 1.349 . S
C122 C120 1.327 . S
C122 C141 1.429 . S
C122 H146 0.950 1_554 S
C123 C140 1.574 . S
C123 C142 1.368 . S
C123 H147 0.949 . S
H124 C128 0.949 . S
C125 C126 1.349 . S
C125 C127 1.327 . S
C125 H148 0.950 . S
C126 C125 1.349 . S
C126 C138 1.349 . S
C127 C125 1.327 . S
C127 C143 1.429 . S
C127 H149 0.950 1_556 S
C128 H124 0.949 . S
C128 C136 1.574 . S
C128 C144 1.368 . S
H129 C137 0.950 . S
H130 C135 0.950 . S
H131 C136 0.949 . S
H132 C138 0.950 . S
H133 C139 0.950 . S
H134 C140 0.949 . S
C135 H130 0.950 . S
C135 C137 1.327 . S
C135 C141 1.429 . S
C136 C128 1.574 . S
C136 H131 0.949 . S
C136 C142 1.368 1_556 S
C137 C121 1.349 . S
C137 H129 0.950 . S
C137 C135 1.327 . S
C138 C126 1.349 . S
C138 H132 0.950 . S
C138 C139 1.327 . S
C139 H133 0.950 . S
C139 C138 1.327 . S
C139 C143 1.429 . S
C140 C123 1.574 . S
C140 H134 0.949 . S
C140 C144 1.368 1_554 S
C141 C122 1.429 . S
C141 C135 1.429 . S
C141 C142 1.523 . S
C142 C123 1.368 . S
C142 C136 1.368 1_554 S
C142 C141 1.523 . S
C143 C127 1.429 . S
C143 C139 1.429 . S
C143 C144 1.523 . S
C144 C128 1.368 . S
C144 C140 1.368 1_556 S
C144 C143 1.523 . S
H145 C120 0.950 . S
H146 C122 0.950 1_556 S
H147 C123 0.949 . S
H148 C125 0.950 . S
H149 C127 0.950 1_554 S
C150 C151 1.349 . S
C150 C152 1.327 . S
C150 H175 0.950 . S
C151 C150 1.349 . S
C151 C167 1.349 . S
C152 C150 1.327 . S
C152 C171 1.429 . S
C152 H176 0.950 . S
C153 C170 1.574 . S
C153 C172 1.368 . S
C153 H177 0.949 . S
H154 C158 0.949 . S
C155 C156 1.349 . S
C155 C157 1.327 . S
C155 H178 0.950 . S
C156 C155 1.349 . S
C156 C168 1.349 . S
C157 C155 1.327 . S
C157 C173 1.429 . S
C157 H179 0.950 . S
C158 H154 0.949 . S
C158 C166 1.574 . S
C158 C174 1.368 . S
H159 C167 0.950 . S
H160 C165 0.950 . S
H161 C166 0.949 . S
H162 C168 0.950 . S
H163 C169 0.950 . S
H164 C170 0.949 . S
C165 H160 0.950 . S
C165 C167 1.327 . S
C165 C171 1.429 . S
C166 C158 1.574 . S
C166 H161 0.949 . S
C166 C172 1.368 . S
C167 C151 1.349 . S
C167 H159 0.950 . S
C167 C165 1.327 . S
C168 C156 1.349 . S
C168 H162 0.950 . S
C168 C169 1.327 . S
C169 H163 0.950 . S
C169 C168 1.327 . S
C169 C173 1.429 . S
C170 C153 1.574 . S
C170 H164 0.949 . S
C170 C174 1.368 . S
C171 C152 1.429 . S
C171 C165 1.429 . S
C171 C172 1.523 . S
C172 C153 1.368 . S
C172 C166 1.368 . S
C172 C171 1.523 . S
C173 C157 1.429 . S
C173 C169 1.429 . S
C173 C174 1.523 . S
C174 C158 1.368 . S
C174 C170 1.368 . S
C174 C173 1.523 . S
H175 C150 0.950 . S
H176 C152 0.950 . S
H177 C153 0.949 . S
H178 C155 0.950 . S
H179 C157 0.950 . S
C180 C181 1.349 . S
C180 C182 1.327 . S
C180 H205 0.950 . S
C181 C180 1.349 . S
C181 C197 1.349 . S
C182 C180 1.327 . S
C182 C201 1.429 . S
C182 H206 0.950 . S
C183 C200 1.574 . S
C183 C202 1.368 . S
C183 H207 0.949 . S
H184 C188 0.949 . S
C185 C186 1.349 . S
C185 C187 1.327 . S
C185 H208 0.950 . S
C186 C185 1.349 . S
C186 C198 1.349 . S
C187 C185 1.327 . S
C187 C203 1.429 . S
C187 H209 0.950 . S
C188 H184 0.949 . S
C188 C196 1.574 . S
C188 C204 1.368 . S
H189 C197 0.950 . S
H190 C195 0.950 . S
H191 C196 0.949 . S
H192 C198 0.950 . S
H193 C199 0.950 . S
H194 C200 0.949 . S
C195 H190 0.950 . S
C195 C197 1.327 . S
C195 C201 1.429 . S
C196 C188 1.574 . S
C196 H191 0.949 . S
C196 C202 1.368 . S
C197 C181 1.349 . S
C197 H189 0.950 . S
C197 C195 1.327 . S
C198 C186 1.349 . S
C198 H192 0.950 . S
C198 C199 1.327 . S
C199 H193 0.950 . S
C199 C198 1.327 . S
C199 C203 1.429 . S
C200 C183 1.574 . S
C200 H194 0.949 . S
C200 C204 1.368 . S
C201 C182 1.429 . S
C201 C195 1.429 . S
C201 C202 1.523 . S
C202 C183 1.368 . S
C202 C196 1.368 . S
C202 C201 1.523 . S
C203 C187 1.429 . S
C203 C199 1.429 . S
C203 C204 1.523 . S
C204 C188 1.368 . S
C204 C200 1.368 . S
C204 C203 1.523 . S
H205 C180 0.950 . S
H206 C182 0.950 . S
H207 C183 0.949 . S
H208 C185 0.950 . S
H209 C187 0.950 . S
C210 C211 1.349 . S
C210 C212 1.327 . S
C210 H235 0.950 . S
C211 C210 1.349 . S
C211 C227 1.349 . S
C212 C210 1.327 . S
C212 C231 1.429 . S
C212 H236 0.950 . S
C213 C230 1.574 . S
C213 C232 1.368 1_554 S
C213 H237 0.949 . S
H214 C218 0.949 . S
C215 C216 1.349 . S
C215 C217 1.327 . S
C215 H238 0.950 . S
C216 C215 1.349 . S
C216 C228 1.349 . S
C217 C215 1.327 . S
C217 C233 1.429 . S
C217 H239 0.950 . S
C218 H214 0.949 . S
C218 C226 1.574 . S
C218 C234 1.368 1_556 S
H219 C227 0.950 . S
H220 C225 0.950 . S
H221 C226 0.949 . S
H222 C228 0.950 . S
H223 C229 0.950 . S
H224 C230 0.949 . S
C225 H220 0.950 . S
C225 C227 1.327 . S
C225 C231 1.429 . S
C226 C218 1.574 . S
C226 H221 0.949 . S
C226 C232 1.368 . S
C227 C211 1.349 . S
C227 H219 0.950 . S
C227 C225 1.327 . S
C228 C216 1.349 . S
C228 H222 0.950 . S
C228 C229 1.327 . S
C229 H223 0.950 . S
C229 C228 1.327 . S
C229 C233 1.429 . S
C230 C213 1.574 . S
C230 H224 0.949 . S
C230 C234 1.368 . S
C231 C212 1.429 . S
C231 C225 1.429 . S
C231 C232 1.523 . S
C232 C213 1.368 1_556 S
C232 C226 1.368 . S
C232 C231 1.523 . S
C233 C217 1.429 . S
C233 C229 1.429 . S
C233 C234 1.523 . S
C234 C218 1.368 1_554 S
C234 C230 1.368 . S
C234 C233 1.523 . S
H235 C210 0.950 . S
H236 C212 0.950 . S
H237 C213 0.949 . S
H238 C215 0.950 . S
H239 C217 0.950 . S
C240 C241 1.349 . S
C240 C242 1.327 . S
C240 H265 0.950 . S
C241 C240 1.349 . S
C241 C257 1.349 . S
C242 C240 1.327 . S
C242 C261 1.429 . S
C242 H266 0.950 . S
C243 C260 1.574 . S
C243 C262 1.368 . S
C243 H267 0.949 . S
H244 C248 0.949 . S
C245 C246 1.349 . S
C245 C247 1.327 . S
C245 H268 0.950 . S
C246 C245 1.349 . S
C246 C258 1.349 . S
C247 C245 1.327 . S
C247 C263 1.429 . S
C247 H269 0.950 . S
C248 H244 0.949 . S
C248 C256 1.574 . S
C248 C264 1.368 . S
H249 C257 0.950 . S
H250 C255 0.950 . S
H251 C256 0.949 . S
H252 C258 0.950 . S
H253 C259 0.950 . S
H254 C260 0.949 . S
C255 H250 0.950 . S
C255 C257 1.327 . S
C255 C261 1.429 . S
C256 C248 1.574 . S
C256 H251 0.949 . S
C256 C262 1.368 . S
C257 C241 1.349 . S
C257 H249 0.950 . S
C257 C255 1.327 . S
C258 C246 1.349 . S
C258 H252 0.950 . S
C258 C259 1.327 . S
C259 H253 0.950 . S
C259 C258 1.327 . S
C259 C263 1.429 . S
C260 C243 1.574 . S
C260 H254 0.949 . S
C260 C264 1.368 . S
C261 C242 1.429 . S
C261 C255 1.429 . S
C261 C262 1.523 . S
C262 C243 1.368 . S
C262 C256 1.368 . S
C262 C261 1.523 . S
C263 C247 1.429 . S
C263 C259 1.429 . S
C263 C264 1.523 . S
C264 C248 1.368 . S
C264 C260 1.368 . S
C264 C263 1.523 . S
H265 C240 0.950 . S
H266 C242 0.950 . S
H267 C243 0.949 . S
H268 C245 0.950 . S
H269 C247 0.950 . S
C270 C271 1.349 . S
C270 C272 1.327 . S
C270 H295 0.950 . S
C271 C270 1.349 . S
C271 C287 1.349 . S
C272 C270 1.327 . S
C272 C291 1.429 . S
C272 H296 0.950 . S
C273 C290 1.574 . S
C273 C292 1.368 . S
C273 H297 0.949 . S
H274 C278 0.949 . S
C275 C276 1.349 . S
C275 C277 1.327 . S
C275 H298 0.950 . S
C276 C275 1.349 . S
C276 C288 1.349 . S
C277 C275 1.327 . S
C277 C293 1.429 . S
C277 H299 0.950 . S
C278 H274 0.949 . S
C278 C286 1.574 . S
C278 C294 1.368 . S
H279 C287 0.950 . S
H280 C285 0.950 . S
H281 C286 0.949 . S
H282 C288 0.950 . S
H283 C289 0.950 . S
H284 C290 0.949 . S
C285 H280 0.950 . S
C285 C287 1.327 . S
C285 C291 1.429 . S
C286 C278 1.574 . S
C286 H281 0.949 . S
C286 C292 1.368 . S
C287 C271 1.349 . S
C287 H279 0.950 . S
C287 C285 1.327 . S
C288 C276 1.349 . S
C288 H282 0.950 . S
C288 C289 1.327 . S
C289 H283 0.950 . S
C289 C288 1.327 . S
C289 C293 1.429 . S
C290 C273 1.574 . S
C290 H284 0.949 . S
C290 C294 1.368 . S
C291 C272 1.429 . S
C291 C285 1.429 . S
C291 C292 1.523 . S
C292 C273 1.368 . S
C292 C286 1.368 . S
C292 C291 1.523 . S
C293 C277 1.429 . S
C293 C289 1.429 . S
C293 C294 1.523 . S
C294 C278 1.368 . S
C294 C290 1.368 . S
C294 C293 1.523 . S
H295 C270 0.950 . S
H296 C272 0.950 . S
H297 C273 0.949 . S
H298 C275 0.950 . S
H299 C277 0.950 . S
C300 C301 1.349 . S
C300 C302 1.327 . S
C300 H325 0.950 . S
C301 C300 1.349 . S
C301 C317 1.334 1_455 S
C302 C300 1.327 . S
C302 C321 1.429 . S
C302 H326 0.950 . S
C303 C320 1.574 . S
C303 C322 1.368 1_655 S
C303 H327 0.949 . S
H304 C308 0.949 . S
C305 C306 1.339 1_655 S
C305 C307 1.329 . S
C305 H328 0.958 . S
C306 C305 1.339 1_455 S
C306 C318 1.349 . S
C307 C305 1.329 . S
C307 C323 1.429 1_655 S
C307 H329 0.950 . S
C308 H304 0.949 . S
C308 C316 1.574 . S
C308 C324 1.368 . S
H309 C317 0.967 . S
H310 C315 0.950 . S
H311 C316 0.949 . S
H312 C318 0.950 . S
H313 C319 0.950 . S
H314 C320 0.949 . S
C315 H310 0.950 . S
C315 C317 1.326 . S
C315 C321 1.429 1_655 S
C316 C308 1.574 . S
C316 H311 0.949 . S
C316 C322 1.368 . S
C317 C301 1.334 1_655 S
C317 H309 0.967 . S
C317 C315 1.326 . S
C318 C306 1.349 . S
C318 H312 0.950 . S
C318 C319 1.327 . S
C319 H313 0.950 . S
C319 C318 1.327 . S
C319 C323 1.429 . S
C320 C303 1.574 . S
C320 H314 0.949 . S
C320 C324 1.368 1_655 S
C321 C302 1.429 . S
C321 C315 1.429 1_455 S
C321 C322 1.523 . S
C322 C303 1.368 1_455 S
C322 C316 1.368 . S
C322 C321 1.523 . S
C323 C307 1.429 1_455 S
C323 C319 1.429 . S
C323 C324 1.523 . S
C324 C308 1.368 . S
C324 C320 1.368 1_455 S
C324 C323 1.523 . S
H325 C300 0.950 . S
H326 C302 0.950 . S
H327 C303 0.949 . S
H328 C305 0.958 . S
H329 C307 0.950 . S
C330 C331 1.349 . S
C330 C332 1.327 . S
C330 H355 0.950 . S
C331 C330 1.349 . S
C331 C347 1.349 1_545 S
C332 C330 1.327 . S
C332 C351 1.429 . S
C332 H356 0.950 . S
C333 C350 1.574 1_554 S
C333 C352 1.368 1_565 S
C333 H357 0.949 . S
H334 C338 0.949 . S
C335 C336 1.349 1_565 S
C335 C337 1.327 . S
C335 H358 0.950 . S
C336 C335 1.349 1_545 S
C336 C348 1.349 . S
C337 C335 1.327 . S
C337 C353 1.429 1_565 S
C337 H359 0.950 . S
C338 H334 0.949 . S
C338 C346 1.574 1_556 S
C338 C354 1.368 . S
H339 C347 0.950 . S
H340 C345 0.950 . S
H341 C346 0.949 . S
H342 C348 0.950 . S
H343 C349 0.950 . S
H344 C350 0.949 . S
C345 H340 0.950 . S
C345 C347 1.327 . S
C345 C351 1.429 1_565 S
C346 C338 1.574 1_554 S
C346 H341 0.949 . S
C346 C352 1.368 . S
C347 C331 1.349 1_565 S
C347 H339 0.950 . S
C347 C345 1.327 . S
C348 C336 1.349 . S
C348 H342 0.950 . S
C348 C349 1.327 . S
C349 H343 0.950 . S
C349 C348 1.327 . S
C349 C353 1.429 . S
C350 C333 1.574 1_556 S
C350 H344 0.949 . S
C350 C354 1.368 1_565 S
C351 C332 1.429 . S
C351 C345 1.429 1_545 S
C351 C352 1.523 . S
C352 C333 1.368 1_545 S
C352 C346 1.368 . S
C352 C351 1.523 . S
C353 C337 1.429 1_545 S
C353 C349 1.429 . S
C353 C354 1.523 . S
C354 C338 1.368 . S
C354 C350 1.368 1_545 S
C354 C353 1.523 . S
H355 C330 0.950 . S
H356 C332 0.950 . S
H357 C333 0.949 . S
H358 C335 0.950 . S
H359 C337 0.950 . S
C360 C361 1.349 . S
C360 C362 1.327 . S
C360 H385 0.950 . S
C361 C360 1.349 . S
C361 C377 1.349 . S
C362 C360 1.327 . S
C362 C381 1.429 . S
C362 H386 0.950 . S
C363 C380 1.574 . S
C363 C382 1.368 . S
C363 H387 0.949 . S
H364 C368 0.949 . S
C365 C366 1.349 . S
C365 C367 1.327 . S
C365 H388 0.950 . S
C366 C365 1.349 . S
C366 C378 1.349 . S
C367 C365 1.327 . S
C367 C383 1.429 . S
C367 H389 0.950 . S
C368 H364 0.949 . S
C368 C376 1.574 . S
C368 C384 1.368 . S
H369 C377 0.950 . S
H370 C375 0.950 . S
H371 C376 0.949 . S
H372 C378 0.950 . S
H373 C379 0.950 . S
H374 C380 0.949 . S
C375 H370 0.950 . S
C375 C377 1.327 . S
C375 C381 1.429 . S
C376 C368 1.574 . S
C376 H371 0.949 . S
C376 C382 1.368 . S
C377 C361 1.349 . S
C377 H369 0.950 . S
C377 C375 1.327 . S
C378 C366 1.349 . S
C378 H372 0.950 . S
C378 C379 1.327 . S
C379 H373 0.950 . S
C379 C378 1.327 . S
C379 C383 1.429 . S
C380 C363 1.574 . S
C380 H374 0.949 . S
C380 C384 1.368 . S
C381 C362 1.429 . S
C381 C375 1.429 . S
C381 C382 1.523 . S
C382 C363 1.368 . S
C382 C376 1.368 . S
C382 C381 1.523 . S
C383 C367 1.429 . S
C383 C379 1.429 . S
C383 C384 1.523 . S
C384 C368 1.368 . S
C384 C380 1.368 . S
C384 C383 1.523 . S
H385 C360 0.950 . S
H386 C362 0.950 . S
H387 C363 0.949 . S
H388 C365 0.950 . S
H389 C367 0.950 . S
C121 C19 3.075 . S
C126 C99 3.042 . S
C151 C46 1.575 . S
C156 C6 1.574 . S
C181 C59 2.512 . S
C186 C95 2.415 . S
C211 C90 2.710 . S
C216 C10 2.735 . S
C241 C55 1.490 . S
C246 C15 1.484 . S
C271 C86 2.207 . S
C276 C50 2.177 . S
C301 C9 0.394 . S
C306 C18 0.394 . S
C331 C58 0.387 . S
C336 C49 0.387 . S
C361 C98 0.421 . S
C366 C89 0.421 1_554 S
