# Generated by pormake.
# Topology qtz-e, (6)-cn, num edge types: 1
# Building blocks:
#     Node 0, Type 0, BuildingBlock: JUFBIX_clean_sbu_0, # of connection points: 6
#     Node 1, Type 0, BuildingBlock: JUFBIX_clean_sbu_0, # of connection points: 6
#     Node 2, Type 0, BuildingBlock: JUFBIX_clean_sbu_0, # of connection points: 6
#     Node 3, Type 0, BuildingBlock: JUFBIX_clean_sbu_0, # of connection points: 6
#     Node 4, Type 0, BuildingBlock: JUFBIX_clean_sbu_0, # of connection points: 6
#     Node 5, Type 0, BuildingBlock: JUFBIX_clean_sbu_0, # of connection points: 6
#     Edge 6, Type (0, 0), BuildingBlock: AJUNOK_clean_linker_0, # of connection points: 2
#     Edge 7, Type (0, 0), BuildingBlock: AJUNOK_clean_linker_0, # of connection points: 2
#     Edge 8, Type (0, 0), BuildingBlock: AJUNOK_clean_linker_0, # of connection points: 2
#     Edge 9, Type (0, 0), BuildingBlock: AJUNOK_clean_linker_0, # of connection points: 2
#     Edge 10, Type (0, 0), BuildingBlock: AJUNOK_clean_linker_0, # of connection points: 2
#     Edge 11, Type (0, 0), BuildingBlock: AJUNOK_clean_linker_0, # of connection points: 2
#     Edge 12, Type (0, 0), BuildingBlock: AJUNOK_clean_linker_0, # of connection points: 2
#     Edge 13, Type (0, 0), BuildingBlock: AJUNOK_clean_linker_0, # of connection points: 2
#     Edge 14, Type (0, 0), BuildingBlock: AJUNOK_clean_linker_0, # of connection points: 2
#     Edge 15, Type (0, 0), BuildingBlock: AJUNOK_clean_linker_0, # of connection points: 2
#     Edge 16, Type (0, 0), BuildingBlock: AJUNOK_clean_linker_0, # of connection points: 2
#     Edge 17, Type (0, 0), BuildingBlock: AJUNOK_clean_linker_0, # of connection points: 2
#     Edge 18, Type (0, 0), BuildingBlock: AJUNOK_clean_linker_0, # of connection points: 2
#     Edge 19, Type (0, 0), BuildingBlock: AJUNOK_clean_linker_0, # of connection points: 2
#     Edge 20, Type (0, 0), BuildingBlock: AJUNOK_clean_linker_0, # of connection points: 2
#     Edge 21, Type (0, 0), BuildingBlock: AJUNOK_clean_linker_0, # of connection points: 2
#     Edge 22, Type (0, 0), BuildingBlock: AJUNOK_clean_linker_0, # of connection points: 2
#     Edge 23, Type (0, 0), BuildingBlock: AJUNOK_clean_linker_0, # of connection points: 2
# Relax obj value: 0.692
# Max RMSD: 0.305
# Mean RMSD: 0.305
data_MOF--net-qtz-e--node1-JUFBIX_clean_sbu_0--edge1-AJUNOK_clean_linker_0
_symmetry_space_group_name_H-M    P1
_symmetry_Int_Tables_number       1
_symmetry_cell_setting            triclinic
loop_
_symmetry_equiv_pos_as_xyz
'x, y, z'
_cell_length_a     19.321888
_cell_length_b     19.29776
_cell_length_c     30.508678
_cell_angle_alpha  90.133316
_cell_angle_beta   89.573542
_cell_angle_gamma 119.53503
loop_
_atom_site_label
_atom_site_type_symbol
_atom_site_fract_x
_atom_site_fract_y
_atom_site_fract_z
_atom_type_partial_charge
Co0 Co 0.22307 0.45433 0.17069 0.0
C1 C 0.31413 0.38388 0.14982 0.0
Co2 Co 0.16384 0.35338 0.12572 0.0
C3 C 0.25659 0.55255 0.24567 0.0
C4 C 0.35628 0.59635 0.20167 0.0
N5 N 0.27973 0.53862 0.20666 0.0
N6 N 0.31556 0.61653 0.26522 0.0
C7 C 0.37847 0.64497 0.2378 0.0
H8 H 0.19744 0.51694 0.25937 0.0
H9 H 0.39386 0.60177 0.17394 0.0
C10 C 0.08665 0.44415 0.14001 0.0
N11 N 0.11162 0.26835 0.08713 0.0
C12 C 0.1485 0.24681 0.05672 0.0
C13 C 0.03356 0.22337 0.07826 0.0
N14 N 0.0974 0.19105 0.02868 0.0
C15 C 0.02461 0.17606 0.04226 0.0
C16 C 0.12231 0.31372 0.21426 0.0
O17 O 0.14051 0.47858 0.1684 0.0
O18 O 0.08153 0.38356 0.11974 0.0
O19 O 0.10852 0.28573 0.1754 0.0
O20 O 0.17426 0.38634 0.2198 0.0
O21 O 0.25279 0.33236 0.12944 0.0
H22 H 0.98655 0.22767 0.09532 0.0
H23 H 0.21249 0.27427 0.05414 0.0
O24 O 0.30816 0.43527 0.17256 0.0
O25 O 0.26933 0.52138 0.12135 0.0
O26 O 0.21456 0.41753 0.07803 0.0
C27 C 0.25712 0.49158 0.08324 0.0
H28 H 0.43602 0.69667 0.24365 0.0
H29 H 0.96909 0.13769 0.02597 0.0
Co30 Co 0.78464 0.23025 0.39269 0.0
C31 C 0.69724 0.07541 0.4159 0.0
Co32 Co 0.84577 0.19968 0.4433 0.0
C33 C 0.76622 0.29836 0.31504 0.0
C34 C 0.65482 0.23081 0.34848 0.0
N35 N 0.73335 0.25581 0.3515 0.0
N36 N 0.71151 0.30023 0.28899 0.0
C37 C 0.64115 0.2584 0.30981 0.0
H38 H 0.82909 0.32627 0.30728 0.0
H39 H 0.61041 0.19389 0.3725 0.0
C40 C 0.91795 0.36175 0.42612 0.0
N41 N 0.89372 0.16887 0.48694 0.0
C42 C 0.85644 0.10461 0.51365 0.0
C43 C 0.96901 0.20822 0.50205 0.0
N44 N 0.90466 0.10237 0.54467 0.0
C45 C 0.97565 0.16792 0.53777 0.0
C46 C 0.89844 0.19733 0.3578 0.0
O47 O 0.86192 0.33819 0.39866 0.0
O48 O 0.92722 0.31013 0.44762 0.0
O49 O 0.90617 0.18244 0.39766 0.0
O50 O 0.84642 0.21682 0.34848 0.0
O51 O 0.75634 0.09108 0.44047 0.0
H52 H 0.01561 0.26393 0.4889 0.0
H53 H 0.79402 0.06172 0.51192 0.0
O54 O 0.70585 0.12545 0.38693 0.0
O55 O 0.72413 0.24458 0.43719 0.0
O56 O 0.79081 0.21947 0.48671 0.0
C57 C 0.73925 0.23895 0.47696 0.0
H58 H 0.58453 0.24958 0.29828 0.0
H59 H 0.0281 0.18595 0.55752 0.0
Co60 Co 0.54188 0.76556 0.83957 0.0
C61 C 0.6178 0.92475 0.81494 0.0
Co62 Co 0.64033 0.79891 0.79223 0.0
C63 C 0.40482 0.68016 0.89677 0.0
C64 C 0.46956 0.80504 0.90963 0.0
N65 N 0.46558 0.74885 0.88156 0.0
N66 N 0.37249 0.69133 0.93367 0.0
C67 C 0.41273 0.77015 0.94126 0.0
H68 H 0.38936 0.62231 0.8835 0.0
H69 H 0.51586 0.86666 0.91041 0.0
C70 C 0.54357 0.63325 0.8089 0.0
N71 N 0.71925 0.82366 0.74891 0.0
C72 C 0.7491 0.88733 0.72154 0.0
C73 C 0.74869 0.77797 0.73298 0.0
N74 N 0.7945 0.88275 0.6892 0.0
C75 C 0.79443 0.81387 0.69608 0.0
C76 C 0.68724 0.79985 0.87808 0.0
O77 O 0.50995 0.65594 0.83684 0.0
O78 O 0.60607 0.68579 0.78895 0.0
O79 O 0.71349 0.81323 0.83871 0.0
O80 O 0.61503 0.78076 0.88529 0.0
O81 O 0.66549 0.91 0.79322 0.0
H82 H 0.73495 0.72045 0.74596 0.0
H83 H 0.7343 0.93434 0.72331 0.0
O84 O 0.56965 0.87193 0.84051 0.0
O85 O 0.46948 0.74945 0.79338 0.0
O86 O 0.57026 0.7831 0.74856 0.0
C87 C 0.49764 0.76109 0.75455 0.0
H88 H 0.40914 0.79953 0.97075 0.0
H89 H 0.82349 0.79022 0.67529 0.0
Co90 Co 0.77439 0.5439 0.05369 0.0
C91 C 0.93409 0.61878 0.07666 0.0
Co92 Co 0.80775 0.63662 0.10395 0.0
C93 C 0.69088 0.40881 -0.00379 0.0
C94 C 0.81135 0.48725 0.97682 0.0
N95 N 0.75791 0.47356 0.00914 0.0
N96 N 0.69987 0.3837 0.95633 0.0
C97 C 0.77622 0.43189 0.94475 0.0
H98 H 0.63528 0.38455 0.01415 0.0
H99 H 0.86994 0.53888 0.97423 0.0
C100 C 0.64229 0.541 0.08895 0.0
N101 N 0.83299 0.71187 0.1485 0.0
C102 C 0.89233 0.73353 0.17775 0.0
C103 C 0.79729 0.75414 0.16007 0.0
N104 N 0.89584 0.78772 0.20713 0.0
C105 C 0.83541 0.80043 0.19616 0.0
C106 C 0.80473 0.69144 0.02014 0.0
O107 O 0.66429 0.51095 0.05846 0.0
O108 O 0.69522 0.60076 0.11016 0.0
O109 O 0.81846 0.7139 0.06002 0.0
O110 O 0.78811 0.62086 0.01074 0.0
O111 O 0.91898 0.66448 0.10001 0.0
H112 H 0.74597 0.75047 0.14388 0.0
H113 H 0.93223 0.70935 0.17764 0.0
O114 O 0.88127 0.57218 0.05079 0.0
O115 O 0.75932 0.46681 0.0964 0.0
O116 O 0.79538 0.56173 0.14562 0.0
C117 C 0.77308 0.48992 0.13599 0.0
H118 H 0.80216 0.43337 0.91293 0.0
H119 H 0.81763 0.83795 0.21369 0.0
Co120 Co 0.23621 0.77933 0.50334 0.0
C121 C 0.08011 0.69249 0.48115 0.0
Co122 Co 0.20375 0.84308 0.45564 0.0
C123 C 0.30528 0.75408 0.5785 0.0
C124 C 0.23228 0.6448 0.5446 0.0
N125 N 0.26082 0.72435 0.54259 0.0
N126 N 0.30462 0.69634 0.60307 0.0
C127 C 0.25948 0.62731 0.58218 0.0
H128 H 0.33723 0.81682 0.5867 0.0
H129 H 0.19335 0.60234 0.52061 0.0
C130 C 0.3662 0.91676 0.47237 0.0
N131 N 0.17315 0.89342 0.41399 0.0
C132 C 0.11891 0.85432 0.38256 0.0
C133 C 0.19995 0.97107 0.4054 0.0
N134 N 0.10992 0.90326 0.35453 0.0
C135 C 0.16136 0.97737 0.3688 0.0
C136 C 0.20033 0.88873 0.54208 0.0
O137 O 0.34362 0.85829 0.4984 0.0
O138 O 0.31398 0.92625 0.4518 0.0
O139 O 0.18498 0.89893 0.50279 0.0
O140 O 0.22104 0.8368 0.54957 0.0
O141 O 0.09492 0.75277 0.45753 0.0
H142 H 0.24597 0.01988 0.42375 0.0
H143 H 0.08731 0.7905 0.37987 0.0
O144 O 0.13187 0.69929 0.5082 0.0
O145 O 0.25295 0.72328 0.45679 0.0
O146 O 0.22474 0.79229 0.41056 0.0
C147 C 0.2472 0.74208 0.41772 0.0
H148 H 0.24857 0.56933 0.59294 0.0
H149 H 0.17303 0.03238 0.35321 0.0
Co150 Co 0.4504 0.21518 0.72566 0.0
C151 C 0.38084 0.30575 0.74753 0.0
Co152 Co 0.35228 0.15524 0.77272 0.0
C153 C 0.54474 0.24426 0.64954 0.0
C154 C 0.58807 0.34847 0.68966 0.0
N155 N 0.5324 0.27067 0.68785 0.0
N156 N 0.60491 0.30271 0.62688 0.0
C157 C 0.63341 0.36829 0.65208 0.0
H158 H 0.51052 0.1831 0.63868 0.0
H159 H 0.59396 0.38843 0.71611 0.0
C160 C 0.44269 0.07906 0.75634 0.0
N161 N 0.26917 0.10375 0.8129 0.0
C162 C 0.24917 0.14134 0.84362 0.0
C163 C 0.22367 0.02572 0.82231 0.0
N164 N 0.19383 0.09071 0.87232 0.0
C165 C 0.17754 0.01749 0.85891 0.0
C166 C 0.30857 0.11148 0.68524 0.0
O167 O 0.47541 0.13363 0.72794 0.0
O168 O 0.38329 0.07322 0.77837 0.0
O169 O 0.28266 0.09836 0.72461 0.0
O170 O 0.38032 0.16429 0.67801 0.0
O171 O 0.33091 0.24458 0.76914 0.0
H172 H 0.22661 0.9782 0.80506 0.0
H173 H 0.27721 0.20547 0.8458 0.0
O174 O 0.43044 0.2993 0.72339 0.0
O175 O 0.51978 0.2639 0.77375 0.0
O176 O 0.41796 0.20692 0.81881 0.0
C177 C 0.49135 0.25144 0.81238 0.0
H178 H 0.68285 0.4262 0.64368 0.0
H179 H 0.13888 0.96211 0.87561 0.0
C180 C 0.25491 0.63228 0.37947 0.0
C181 C 0.27204 0.7118 0.38054 0.0
C182 C 0.27198 0.60176 0.34187 0.0
C183 C 0.30838 0.65067 0.30519 0.0
H184 H 0.22525 0.5929 0.40693 0.0
H185 H 0.25526 0.53932 0.34092 0.0
S186 S 0.36956 0.86395 0.29321 0.0
N187 N 0.33015 0.83963 0.3428 0.0
N188 N 0.36357 0.78201 0.27263 0.0
C189 C 0.32896 0.7309 0.30674 0.0
C190 C 0.3103 0.76157 0.34441 0.0
C191 C 0.71961 0.32858 0.58154 0.0
C192 C 0.63696 0.29385 0.58638 0.0
C193 C 0.75221 0.31177 0.54501 0.0
C194 C 0.70302 0.26101 0.51203 0.0
H195 H 0.75896 0.36574 0.60717 0.0
H196 H 0.81626 0.33737 0.54292 0.0
S197 S 0.48362 0.1599 0.50758 0.0
N198 N 0.50663 0.21002 0.55418 0.0
N199 N 0.56905 0.17914 0.48474 0.0
C200 C 0.62069 0.22885 0.51522 0.0
C201 C 0.58723 0.24505 0.55277 0.0
C202 C 0.32114 0.52333 0.01064 0.0
C203 C 0.28412 0.54185 0.0447 0.0
C204 C 0.34508 0.56908 0.97254 0.0
C205 C 0.33064 0.6333 0.96709 0.0
H206 H 0.33383 0.47479 0.01409 0.0
H207 H 0.37873 0.55646 0.94846 0.0
S208 S 0.22047 0.69391 0.04389 0.0
N209 N 0.22565 0.62133 0.06951 0.0
N210 N 0.26574 0.70449 -0.00378 0.0
C211 C 0.28739 0.64757 -0.00032 0.0
C212 C 0.26561 0.60275 0.03908 0.0
C213 C 0.79553 0.41919 0.24588 0.0
C214 C 0.72785 0.3435 0.24886 0.0
C215 C 0.81173 0.46451 0.20798 0.0
C216 C 0.76123 0.43517 0.17167 0.0
H217 H 0.83471 0.44465 0.27365 0.0
H218 H 0.86299 0.52389 0.20754 0.0
S219 S 0.57957 0.23833 0.16188 0.0
N220 N 0.6124 0.23896 0.21183 0.0
N221 N 0.64303 0.32516 0.13985 0.0
C222 C 0.69511 0.35838 0.17338 0.0
C223 C 0.67811 0.31231 0.21234 0.0
C224 C 0.3644 0.70455 0.71954 0.0
C225 C 0.44783 0.74608 0.71579 0.0
C226 C 0.31697 0.68589 0.68216 0.0
C227 C 0.35211 0.70897 0.64057 0.0
H228 H 0.33569 0.6857 0.75129 0.0
H229 H 0.25281 0.65462 0.68563 0.0
S230 S 0.56595 0.81671 0.61232 0.0
N231 N 0.56286 0.80853 0.66618 0.0
N232 N 0.47225 0.77336 0.59674 0.0
C233 C 0.43458 0.75008 0.63621 0.0
C234 C 0.48296 0.76877 0.67372 0.0
C235 C 0.65697 0.30063 0.8908 0.0
C236 C 0.63931 0.33842 0.92511 0.0
C237 C 0.60969 0.27422 0.85355 0.0
C238 C 0.54226 0.28295 0.85022 0.0
H239 H 0.70994 0.29492 0.89203 0.0
H240 H 0.62565 0.24651 0.82738 0.0
S241 S 0.46527 0.37115 0.93161 0.0
N242 N 0.54725 0.38041 0.95352 0.0
N243 N 0.45561 0.32545 0.88441 0.0
C244 C 0.52073 0.31582 0.8851 0.0
C245 C 0.56979 0.3446 0.92257 0.0
C246 C 0.41623 0.40167 0.09266 0.0
C247 C 0.39684 0.40475 0.13702 0.0
C248 C 0.49543 0.44609 0.07713 0.0
C249 C 0.5581 0.49678 0.1051 0.0
H250 H 0.36946 0.36883 0.0692 0.0
H251 H 0.50723 0.44259 0.04267 0.0
S252 S 0.54038 0.5177 0.22514 0.0
N253 N 0.44856 0.45605 0.20937 0.0
N254 N 0.59576 0.54002 0.18036 0.0
C255 C 0.53987 0.49698 0.14986 0.0
C256 C 0.45994 0.45076 0.16572 0.0
C257 C 0.00918 0.54691 0.49731 0.0
C258 C 0.02234 0.60903 0.46805 0.0
C259 C 0.97898 0.46806 0.48307 0.0
C260 C 0.95905 0.44707 0.43899 0.0
H261 H 0.02633 0.56001 0.53136 0.0
H262 H 0.97045 0.42306 0.50699 0.0
S263 S 0.97518 0.58402 0.34927 0.0
N264 N 0.00857 0.64179 0.39288 0.0
N265 N 0.94969 0.49342 0.36644 0.0
C266 C 0.96789 0.50728 0.40968 0.0
C267 C 0.99951 0.58799 0.42413 0.0
C268 C 0.49592 0.02824 0.81503 0.0
C269 C 0.48737 0.03844 0.7702 0.0
C270 C 0.54738 1.00123 0.82955 0.0
C271 C 0.592 0.98195 0.79996 0.0
H272 H 0.46342 0.0423 0.83925 0.0
H273 H 0.54895 0.99113 0.86435 0.0
S274 S 0.59394 1.00268 0.6789 0.0
N275 N 0.53154 0.03224 0.69625 0.0
N276 N 0.62556 0.97845 0.72333 0.0
C277 C 0.58614 0.99488 0.75505 0.0
C278 C 0.53431 0.02335 0.74027 0.0
C279 C 0.44572 0.4867 0.8204 0.0
C280 C 0.49929 0.54923 0.79281 0.0
C281 C 0.39942 0.40806 0.80462 0.0
C282 C 0.40368 0.38906 0.76039 0.0
H283 H 0.44097 0.49821 0.85476 0.0
H284 H 0.36365 0.36125 0.82776 0.0
S285 S 0.52311 0.53357 0.67292 0.0
N286 N 0.54587 0.58789 0.71789 0.0
N287 N 0.45846 0.44194 0.68828 0.0
C288 C 0.45241 0.45246 0.73196 0.0
C289 C 0.5005 0.53172 0.74811 0.0
C290 C 0.03242 0.53776 0.15186 0.0
C291 C 0.04662 0.48809 0.12352 0.0
C292 C 1.00417 0.58783 0.13603 0.0
C293 C 0.99064 0.59175 0.091 0.0
H294 H 0.04204 0.53699 0.18675 0.0
H295 H 0.98868 0.62012 0.15956 0.0
S296 S 0.03177 0.48449 0.00225 0.0
N297 N 0.05305 0.45286 0.0477 0.0
N298 N 1.00269 0.54809 0.01795 0.0
C299 C 0.00979 0.54628 0.06217 0.0
C300 C 0.03651 0.49397 0.07835 0.0
C301 C 0.47275 0.97767 0.41515 0.0
C302 C 0.45151 0.96032 0.45951 0.0
C303 C 0.55149 0.00651 0.40083 0.0
C304 C 0.61336 0.02149 0.43036 0.0
H305 H 0.42797 0.96779 0.39108 0.0
H306 H 0.56461 0.02066 0.36636 0.0
S307 S 0.58887 0.99012 0.55088 0.0
N308 N 0.49795 0.96029 0.53318 0.0
N309 N 0.64653 0.0186 0.50687 0.0
C310 C 0.59248 0.00413 0.47499 0.0
C311 C 0.51175 0.9731 0.4894 0.0
C312 C 0.21689 0.18709 0.93159 0.0
C313 C 0.16716 0.11308 0.91171 0.0
C314 C 0.19323 0.21174 0.96914 0.0
C315 C 0.11902 0.16321 0.98947 0.0
H316 H 0.27546 0.22674 0.91839 0.0
H317 H 0.23379 0.27021 0.98189 0.0
S318 S 0.96591 0.9628 0.95127 0.0
N319 N 0.0388 0.99148 0.91496 0.0
N320 N 0.99602 0.03601 0.98719 0.0
C321 C 0.06852 0.08845 0.97035 0.0
C322 C 0.0923 0.06369 0.93134 0.0
C323 C 0.93341 0.18648 0.27974 0.0
C324 C 0.95793 0.20785 0.32342 0.0
C325 C 0.98836 0.21474 0.24468 0.0
C326 C 0.06977 0.26772 0.25179 0.0
H327 H 0.87065 0.1511 0.2724 0.0
H328 H 0.96582 0.20002 0.21157 0.0
S329 S 0.16541 0.33739 0.3602 0.0
N330 N 0.07012 0.27989 0.372 0.0
N331 N 0.1728 0.33528 0.3063 0.0
C332 C 0.0956 0.28577 0.29551 0.0
C333 C 0.03989 0.25527 0.33125 0.0
C334 C 0.87475 0.01877 0.65918 0.0
C335 C 0.82704 0.93632 0.65236 0.0
C336 C 0.90256 0.07257 0.62375 0.0
C337 C 0.88163 0.04595 0.58034 0.0
H338 H 0.89012 0.04163 0.69223 0.0
H339 H 0.93833 0.13565 0.63041 0.0
S340 S 0.75723 0.8361 0.54516 0.0
N341 N 0.76065 0.83066 0.59907 0.0
N342 N 0.81085 0.9316 0.53264 0.0
C343 C 0.8341 0.96361 0.57318 0.0
C344 C 0.80737 0.90883 0.60913 0.0
C345 C 0.78296 0.75841 0.90663 0.0
C346 C 0.73456 0.79284 0.91454 0.0
C347 C 0.81121 0.73143 0.94138 0.0
C348 C 0.79423 0.73981 0.98548 0.0
H349 H 0.79379 0.7463 0.87335 0.0
H350 H 0.84293 0.69972 0.93355 0.0
S351 S 0.67946 0.83606 0.02394 0.0
N352 N 0.67727 0.84063 0.96994 0.0
N353 N 0.73258 0.79254 0.03501 0.0
C354 C 0.75198 0.78056 -0.00612 0.0
C355 C 0.72154 0.80629 0.95849 0.0
C356 C 0.03674 0.80444 0.29659 0.0
C357 C 0.05842 0.87828 0.31651 0.0
C358 C 0.98361 0.77566 0.26156 0.0
C359 C 0.95025 0.81975 0.24376 0.0
H360 H 0.06108 0.76791 0.30797 0.0
H361 H 0.968 0.71746 0.24879 0.0
S362 S 0.99007 0.01914 0.28202 0.0
N363 N 0.04234 0.99566 0.31532 0.0
N364 N 0.94609 0.94373 0.24764 0.0
C365 C 0.97262 0.89478 0.26253 0.0
C366 C 0.02606 0.92367 0.29904 0.0
C367 C 0.22342 0.97338 0.65686 0.0
C368 C 0.26247 0.05606 0.64926 0.0
C369 C 0.19782 0.91888 0.62187 0.0
C370 C 0.20819 0.94471 0.57793 0.0
H371 H 0.2183 0.95073 0.68989 0.0
H372 H 0.1735 0.8562 0.62925 0.0
S373 S 0.29636 0.15462 0.54088 0.0
N374 N 0.30361 0.16087 0.59483 0.0
N375 N 0.25265 0.05864 0.52921 0.0
C376 C 0.24086 0.02692 0.57012 0.0
C377 C 0.26886 0.08251 0.60572 0.0
loop_
_geom_bond_atom_site_label_1
_geom_bond_atom_site_label_2
_geom_bond_distance
_geom_bond_site_symmetry_2
_ccdc_geom_bond_type
Co0 N5 2.057 . S
Co0 O17 2.021 . S
Co0 O20 2.062 . S
Co0 O24 2.117 . S
Co0 O25 2.020 . S
C1 O21 1.259 . S
C1 O24 1.258 . S
Co2 N11 2.057 . S
Co2 O18 2.117 . S
Co2 O19 2.020 . S
Co2 O21 2.021 . S
Co2 O26 2.062 . S
C3 N5 1.316 . S
C3 N6 1.347 . S
C3 H8 0.931 . S
C4 N5 1.375 . S
C4 C7 1.350 . S
C4 H9 0.930 . S
N5 Co0 2.057 . S
N5 C3 1.316 . S
N5 C4 1.375 . S
N6 C3 1.347 . S
N6 C7 1.373 . S
C7 C4 1.350 . S
C7 N6 1.373 . S
C7 H28 0.931 . S
H8 C3 0.931 . S
H9 C4 0.930 . S
C10 O17 1.259 . S
C10 O18 1.258 . S
N11 Co2 2.057 . S
N11 C12 1.316 . S
N11 C13 1.375 . S
C12 N11 1.316 . S
C12 N14 1.347 . S
C12 H23 0.931 . S
C13 N11 1.375 . S
C13 C15 1.350 . S
C13 H22 0.930 1_455 S
N14 C12 1.347 . S
N14 C15 1.373 . S
C15 C13 1.350 . S
C15 N14 1.373 . S
C15 H29 0.931 1_455 S
C16 O19 1.256 . S
C16 O20 1.255 . S
O17 Co0 2.021 . S
O17 C10 1.259 . S
O18 Co2 2.117 . S
O18 C10 1.258 . S
O19 Co2 2.020 . S
O19 C16 1.256 . S
O20 Co0 2.062 . S
O20 C16 1.255 . S
O21 C1 1.259 . S
O21 Co2 2.021 . S
H22 C13 0.930 1_655 S
H23 C12 0.931 . S
O24 Co0 2.117 . S
O24 C1 1.258 . S
O25 Co0 2.020 . S
O25 C27 1.256 . S
O26 Co2 2.062 . S
O26 C27 1.255 . S
C27 O25 1.256 . S
C27 O26 1.255 . S
H28 C7 0.931 . S
H29 C15 0.931 1_655 S
Co30 N35 2.057 . S
Co30 O47 2.021 . S
Co30 O50 2.062 . S
Co30 O54 2.117 . S
Co30 O55 2.020 . S
C31 O51 1.259 . S
C31 O54 1.258 . S
Co32 N41 2.057 . S
Co32 O48 2.117 . S
Co32 O49 2.020 . S
Co32 O51 2.021 . S
Co32 O56 2.062 . S
C33 N35 1.316 . S
C33 N36 1.347 . S
C33 H38 0.931 . S
C34 N35 1.375 . S
C34 C37 1.350 . S
C34 H39 0.930 . S
N35 Co30 2.057 . S
N35 C33 1.316 . S
N35 C34 1.375 . S
N36 C33 1.347 . S
N36 C37 1.373 . S
C37 C34 1.350 . S
C37 N36 1.373 . S
C37 H58 0.931 . S
H38 C33 0.931 . S
H39 C34 0.930 . S
C40 O47 1.259 . S
C40 O48 1.258 . S
N41 Co32 2.057 . S
N41 C42 1.316 . S
N41 C43 1.375 . S
C42 N41 1.316 . S
C42 N44 1.347 . S
C42 H53 0.931 . S
C43 N41 1.375 . S
C43 C45 1.350 . S
C43 H52 0.930 1_655 S
N44 C42 1.347 . S
N44 C45 1.373 . S
C45 C43 1.350 . S
C45 N44 1.373 . S
C45 H59 0.931 1_655 S
C46 O49 1.256 . S
C46 O50 1.255 . S
O47 Co30 2.021 . S
O47 C40 1.259 . S
O48 Co32 2.117 . S
O48 C40 1.258 . S
O49 Co32 2.020 . S
O49 C46 1.256 . S
O50 Co30 2.062 . S
O50 C46 1.255 . S
O51 C31 1.259 . S
O51 Co32 2.021 . S
H52 C43 0.930 1_455 S
H53 C42 0.931 . S
O54 Co30 2.117 . S
O54 C31 1.258 . S
O55 Co30 2.020 . S
O55 C57 1.256 . S
O56 Co32 2.062 . S
O56 C57 1.255 . S
C57 O55 1.256 . S
C57 O56 1.255 . S
H58 C37 0.931 . S
H59 C45 0.931 1_455 S
Co60 N65 2.057 . S
Co60 O77 2.021 . S
Co60 O80 2.062 . S
Co60 O84 2.117 . S
Co60 O85 2.020 . S
C61 O81 1.259 . S
C61 O84 1.258 . S
Co62 N71 2.057 . S
Co62 O78 2.117 . S
Co62 O79 2.020 . S
Co62 O81 2.021 . S
Co62 O86 2.062 . S
C63 N65 1.316 . S
C63 N66 1.347 . S
C63 H68 0.931 . S
C64 N65 1.375 . S
C64 C67 1.350 . S
C64 H69 0.930 . S
N65 Co60 2.057 . S
N65 C63 1.316 . S
N65 C64 1.375 . S
N66 C63 1.347 . S
N66 C67 1.373 . S
C67 C64 1.350 . S
C67 N66 1.373 . S
C67 H88 0.931 . S
H68 C63 0.931 . S
H69 C64 0.930 . S
C70 O77 1.259 . S
C70 O78 1.258 . S
N71 Co62 2.057 . S
N71 C72 1.316 . S
N71 C73 1.375 . S
C72 N71 1.316 . S
C72 N74 1.347 . S
C72 H83 0.931 . S
C73 N71 1.375 . S
C73 C75 1.350 . S
C73 H82 0.930 . S
N74 C72 1.347 . S
N74 C75 1.373 . S
C75 C73 1.350 . S
C75 N74 1.373 . S
C75 H89 0.931 . S
C76 O79 1.256 . S
C76 O80 1.255 . S
O77 Co60 2.021 . S
O77 C70 1.259 . S
O78 Co62 2.117 . S
O78 C70 1.258 . S
O79 Co62 2.020 . S
O79 C76 1.256 . S
O80 Co60 2.062 . S
O80 C76 1.255 . S
O81 C61 1.259 . S
O81 Co62 2.021 . S
H82 C73 0.930 . S
H83 C72 0.931 . S
O84 Co60 2.117 . S
O84 C61 1.258 . S
O85 Co60 2.020 . S
O85 C87 1.256 . S
O86 Co62 2.062 . S
O86 C87 1.255 . S
C87 O85 1.256 . S
C87 O86 1.255 . S
H88 C67 0.931 . S
H89 C75 0.931 . S
Co90 N95 2.057 . S
Co90 O107 2.021 . S
Co90 O110 2.062 . S
Co90 O114 2.117 . S
Co90 O115 2.020 . S
C91 O111 1.259 . S
C91 O114 1.258 . S
Co92 N101 2.057 . S
Co92 O108 2.117 . S
Co92 O109 2.020 . S
Co92 O111 2.021 . S
Co92 O116 2.062 . S
C93 N95 1.316 1_556 S
C93 N96 1.347 . S
C93 H98 0.931 . S
C94 N95 1.375 1_556 S
C94 C97 1.350 . S
C94 H99 0.930 . S
N95 Co90 2.057 . S
N95 C93 1.316 1_554 S
N95 C94 1.375 1_554 S
N96 C93 1.347 . S
N96 C97 1.373 . S
C97 C94 1.350 . S
C97 N96 1.373 . S
C97 H118 0.931 . S
H98 C93 0.931 . S
H99 C94 0.930 . S
C100 O107 1.259 . S
C100 O108 1.258 . S
N101 Co92 2.057 . S
N101 C102 1.316 . S
N101 C103 1.375 . S
C102 N101 1.316 . S
C102 N104 1.347 . S
C102 H113 0.931 . S
C103 N101 1.375 . S
C103 C105 1.350 . S
C103 H112 0.930 . S
N104 C102 1.347 . S
N104 C105 1.373 . S
C105 C103 1.350 . S
C105 N104 1.373 . S
C105 H119 0.931 . S
C106 O109 1.256 . S
C106 O110 1.255 . S
O107 Co90 2.021 . S
O107 C100 1.259 . S
O108 Co92 2.117 . S
O108 C100 1.258 . S
O109 Co92 2.020 . S
O109 C106 1.256 . S
O110 Co90 2.062 . S
O110 C106 1.255 . S
O111 C91 1.259 . S
O111 Co92 2.021 . S
H112 C103 0.930 . S
H113 C102 0.931 . S
O114 Co90 2.117 . S
O114 C91 1.258 . S
O115 Co90 2.020 . S
O115 C117 1.256 . S
O116 Co92 2.062 . S
O116 C117 1.255 . S
C117 O115 1.256 . S
C117 O116 1.255 . S
H118 C97 0.931 . S
H119 C105 0.931 . S
Co120 N125 2.057 . S
Co120 O137 2.021 . S
Co120 O140 2.062 . S
Co120 O144 2.117 . S
Co120 O145 2.020 . S
C121 O141 1.259 . S
C121 O144 1.258 . S
Co122 N131 2.057 . S
Co122 O138 2.117 . S
Co122 O139 2.020 . S
Co122 O141 2.021 . S
Co122 O146 2.062 . S
C123 N125 1.316 . S
C123 N126 1.347 . S
C123 H128 0.931 . S
C124 N125 1.375 . S
C124 C127 1.350 . S
C124 H129 0.930 . S
N125 Co120 2.057 . S
N125 C123 1.316 . S
N125 C124 1.375 . S
N126 C123 1.347 . S
N126 C127 1.373 . S
C127 C124 1.350 . S
C127 N126 1.373 . S
C127 H148 0.931 . S
H128 C123 0.931 . S
H129 C124 0.930 . S
C130 O137 1.259 . S
C130 O138 1.258 . S
N131 Co122 2.057 . S
N131 C132 1.316 . S
N131 C133 1.375 . S
C132 N131 1.316 . S
C132 N134 1.347 . S
C132 H143 0.931 . S
C133 N131 1.375 . S
C133 C135 1.350 . S
C133 H142 0.930 1_565 S
N134 C132 1.347 . S
N134 C135 1.373 . S
C135 C133 1.350 . S
C135 N134 1.373 . S
C135 H149 0.931 1_565 S
C136 O139 1.256 . S
C136 O140 1.255 . S
O137 Co120 2.021 . S
O137 C130 1.259 . S
O138 Co122 2.117 . S
O138 C130 1.258 . S
O139 Co122 2.020 . S
O139 C136 1.256 . S
O140 Co120 2.062 . S
O140 C136 1.255 . S
O141 C121 1.259 . S
O141 Co122 2.021 . S
H142 C133 0.930 1_545 S
H143 C132 0.931 . S
O144 Co120 2.117 . S
O144 C121 1.258 . S
O145 Co120 2.020 . S
O145 C147 1.256 . S
O146 Co122 2.062 . S
O146 C147 1.255 . S
C147 O145 1.256 . S
C147 O146 1.255 . S
H148 C127 0.931 . S
H149 C135 0.931 1_545 S
Co150 N155 2.057 . S
Co150 O167 2.021 . S
Co150 O170 2.062 . S
Co150 O174 2.117 . S
Co150 O175 2.020 . S
C151 O171 1.259 . S
C151 O174 1.258 . S
Co152 N161 2.057 . S
Co152 O168 2.117 . S
Co152 O169 2.020 . S
Co152 O171 2.021 . S
Co152 O176 2.062 . S
C153 N155 1.316 . S
C153 N156 1.347 . S
C153 H158 0.931 . S
C154 N155 1.375 . S
C154 C157 1.350 . S
C154 H159 0.930 . S
N155 Co150 2.057 . S
N155 C153 1.316 . S
N155 C154 1.375 . S
N156 C153 1.347 . S
N156 C157 1.373 . S
C157 C154 1.350 . S
C157 N156 1.373 . S
C157 H178 0.931 . S
H158 C153 0.931 . S
H159 C154 0.930 . S
C160 O167 1.259 . S
C160 O168 1.258 . S
N161 Co152 2.057 . S
N161 C162 1.316 . S
N161 C163 1.375 . S
C162 N161 1.316 . S
C162 N164 1.347 . S
C162 H173 0.931 . S
C163 N161 1.375 . S
C163 C165 1.350 . S
C163 H172 0.930 1_545 S
N164 C162 1.347 . S
N164 C165 1.373 . S
C165 C163 1.350 . S
C165 N164 1.373 . S
C165 H179 0.931 1_545 S
C166 O169 1.256 . S
C166 O170 1.255 . S
O167 Co150 2.021 . S
O167 C160 1.259 . S
O168 Co152 2.117 . S
O168 C160 1.258 . S
O169 Co152 2.020 . S
O169 C166 1.256 . S
O170 Co150 2.062 . S
O170 C166 1.255 . S
O171 C151 1.259 . S
O171 Co152 2.021 . S
H172 C163 0.930 1_565 S
H173 C162 0.931 . S
O174 Co150 2.117 . S
O174 C151 1.258 . S
O175 Co150 2.020 . S
O175 C177 1.256 . S
O176 Co152 2.062 . S
O176 C177 1.255 . S
C177 O175 1.256 . S
C177 O176 1.255 . S
H178 C157 0.931 . S
H179 C165 0.931 1_565 S
C180 C181 1.369 . S
C180 C182 1.419 . S
C180 H184 0.930 . S
C181 C180 1.369 . S
C181 C190 1.429 . S
C182 C180 1.419 . S
C182 C183 1.363 . S
C182 H185 0.929 . S
C183 C182 1.363 . S
C183 C189 1.428 . S
H184 C180 0.930 . S
H185 C182 0.929 . S
S186 N187 1.613 . S
S186 N188 1.610 . S
N187 S186 1.613 . S
N187 C190 1.350 . S
N188 S186 1.610 . S
N188 C189 1.351 . S
C189 C183 1.428 . S
C189 N188 1.351 . S
C189 C190 1.434 . S
C190 C181 1.429 . S
C190 N187 1.350 . S
C190 C189 1.434 . S
C191 C192 1.369 . S
C191 C193 1.419 . S
C191 H195 0.930 . S
C192 C191 1.369 . S
C192 C201 1.429 . S
C193 C191 1.419 . S
C193 C194 1.363 . S
C193 H196 0.929 . S
C194 C193 1.363 . S
C194 C200 1.428 . S
H195 C191 0.930 . S
H196 C193 0.929 . S
S197 N198 1.613 . S
S197 N199 1.610 . S
N198 S197 1.613 . S
N198 C201 1.350 . S
N199 S197 1.610 . S
N199 C200 1.351 . S
C200 C194 1.428 . S
C200 N199 1.351 . S
C200 C201 1.434 . S
C201 C192 1.429 . S
C201 N198 1.350 . S
C201 C200 1.434 . S
C202 C203 1.369 . S
C202 C204 1.419 . S
C202 H206 0.930 . S
C203 C202 1.369 . S
C203 C212 1.429 . S
C204 C202 1.419 . S
C204 C205 1.363 1_554 S
C204 H207 0.929 . S
C205 C204 1.363 1_556 S
C205 C211 1.430 . S
H206 C202 0.930 . S
H207 C204 0.929 . S
S208 N209 1.613 . S
S208 N210 1.610 1_554 S
N209 S208 1.613 . S
N209 C212 1.350 . S
N210 S208 1.610 1_556 S
N210 C211 1.355 . S
C211 C205 1.430 . S
C211 N210 1.355 . S
C211 C212 1.427 1_556 S
C212 C203 1.429 . S
C212 N209 1.350 . S
C212 C211 1.427 1_554 S
C213 C214 1.369 . S
C213 C215 1.419 . S
C213 H217 0.930 . S
C214 C213 1.369 . S
C214 C223 1.429 . S
C215 C213 1.419 . S
C215 C216 1.363 . S
C215 H218 0.929 . S
C216 C215 1.363 . S
C216 C222 1.428 . S
H217 C213 0.930 . S
H218 C215 0.929 . S
S219 N220 1.613 . S
S219 N221 1.610 . S
N220 S219 1.613 . S
N220 C223 1.350 . S
N221 S219 1.610 . S
N221 C222 1.351 . S
C222 C216 1.428 . S
C222 N221 1.351 . S
C222 C223 1.434 . S
C223 C214 1.429 . S
C223 N220 1.350 . S
C223 C222 1.434 . S
C224 C225 1.369 . S
C224 C226 1.419 . S
C224 H228 0.930 . S
C225 C224 1.369 . S
C225 C234 1.429 . S
C226 C224 1.419 . S
C226 C227 1.363 . S
C226 H229 0.929 . S
C227 C226 1.363 . S
C227 C233 1.428 . S
H228 C224 0.930 . S
H229 C226 0.929 . S
S230 N231 1.613 . S
S230 N232 1.610 . S
N231 S230 1.613 . S
N231 C234 1.350 . S
N232 S230 1.610 . S
N232 C233 1.351 . S
C233 C227 1.428 . S
C233 N232 1.351 . S
C233 C234 1.434 . S
C234 C225 1.429 . S
C234 N231 1.350 . S
C234 C233 1.434 . S
C235 C236 1.369 . S
C235 C237 1.419 . S
C235 H239 0.930 . S
C236 C235 1.369 . S
C236 C245 1.429 . S
C237 C235 1.419 . S
C237 C238 1.363 . S
C237 H240 0.929 . S
C238 C237 1.363 . S
C238 C244 1.428 . S
H239 C235 0.930 . S
H240 C237 0.929 . S
S241 N242 1.613 . S
S241 N243 1.610 . S
N242 S241 1.613 . S
N242 C245 1.350 . S
N243 S241 1.610 . S
N243 C244 1.351 . S
C244 C238 1.428 . S
C244 N243 1.351 . S
C244 C245 1.434 . S
C245 C236 1.429 . S
C245 N242 1.350 . S
C245 C244 1.434 . S
C246 C247 1.369 . S
C246 C248 1.419 . S
C246 H250 0.930 . S
C247 C246 1.369 . S
C247 C256 1.429 . S
C248 C246 1.419 . S
C248 C249 1.363 . S
C248 H251 0.929 . S
C249 C248 1.363 . S
C249 C255 1.428 . S
H250 C246 0.930 . S
H251 C248 0.929 . S
S252 N253 1.613 . S
S252 N254 1.610 . S
N253 S252 1.613 . S
N253 C256 1.350 . S
N254 S252 1.610 . S
N254 C255 1.351 . S
C255 C249 1.428 . S
C255 N254 1.351 . S
C255 C256 1.434 . S
C256 C247 1.429 . S
C256 N253 1.350 . S
C256 C255 1.434 . S
C257 C258 1.369 . S
C257 C259 1.419 . S
C257 H261 0.930 . S
C258 C257 1.369 . S
C258 C267 1.429 . S
C259 C257 1.419 . S
C259 C260 1.363 . S
C259 H262 0.929 1_455 S
C260 C259 1.363 . S
C260 C266 1.428 . S
H261 C257 0.930 . S
H262 C259 0.929 1_655 S
S263 N264 1.613 . S
S263 N265 1.610 . S
N264 S263 1.613 . S
N264 C267 1.350 . S
N265 S263 1.610 . S
N265 C266 1.351 . S
C266 C260 1.428 . S
C266 N265 1.351 . S
C266 C267 1.434 . S
C267 C258 1.429 . S
C267 N264 1.350 . S
C267 C266 1.434 . S
C268 C269 1.369 . S
C268 C270 1.419 . S
C268 H272 0.930 . S
C269 C268 1.369 . S
C269 C278 1.429 1_565 S
C270 C268 1.419 . S
C270 C271 1.363 . S
C270 H273 0.929 . S
C271 C270 1.363 . S
C271 C277 1.428 . S
H272 C268 0.930 . S
H273 C270 0.929 . S
S274 N275 1.613 . S
S274 N276 1.610 . S
N275 S274 1.613 . S
N275 C278 1.350 . S
N276 S274 1.610 . S
N276 C277 1.351 1_545 S
C277 C271 1.428 . S
C277 N276 1.351 1_565 S
C277 C278 1.434 1_565 S
C278 C269 1.429 1_545 S
C278 N275 1.350 . S
C278 C277 1.434 1_545 S
C279 C280 1.369 . S
C279 C281 1.419 . S
C279 H283 0.930 . S
C280 C279 1.369 . S
C280 C289 1.429 . S
C281 C279 1.419 . S
C281 C282 1.363 . S
C281 H284 0.929 . S
C282 C281 1.363 . S
C282 C288 1.428 . S
H283 C279 0.930 . S
H284 C281 0.929 . S
S285 N286 1.613 . S
S285 N287 1.610 . S
N286 S285 1.613 . S
N286 C289 1.350 . S
N287 S285 1.610 . S
N287 C288 1.351 . S
C288 C282 1.428 . S
C288 N287 1.351 . S
C288 C289 1.434 . S
C289 C280 1.429 . S
C289 N286 1.350 . S
C289 C288 1.434 . S
C290 C291 1.369 1_455 S
C290 C292 1.419 . S
C290 H294 0.930 . S
C291 C290 1.369 1_655 S
C291 C300 1.429 . S
C292 C290 1.419 . S
C292 C293 1.363 1_455 S
C292 H295 0.929 . S
C293 C292 1.363 1_655 S
C293 C299 1.428 . S
H294 C290 0.930 . S
H295 C292 0.929 . S
S296 N297 1.613 . S
S296 N298 1.610 . S
N297 S296 1.613 . S
N297 C300 1.350 . S
N298 S296 1.610 . S
N298 C299 1.351 . S
C299 C293 1.428 . S
C299 N298 1.351 . S
C299 C300 1.434 . S
C300 C291 1.429 . S
C300 N297 1.350 . S
C300 C299 1.434 . S
C301 C302 1.369 . S
C301 C303 1.419 . S
C301 H305 0.930 1_545 S
C302 C301 1.369 . S
C302 C311 1.429 . S
C303 C301 1.419 . S
C303 C304 1.363 . S
C303 H306 0.929 . S
C304 C303 1.363 . S
C304 C310 1.428 . S
H305 C301 0.930 1_565 S
H306 C303 0.929 . S
S307 N308 1.613 . S
S307 N309 1.610 . S
N308 S307 1.613 . S
N308 C311 1.350 . S
N309 S307 1.610 . S
N309 C310 1.351 . S
C310 C304 1.428 . S
C310 N309 1.351 . S
C310 C311 1.434 . S
C311 C302 1.429 . S
C311 N308 1.350 . S
C311 C310 1.434 . S
C312 C313 1.369 . S
C312 C314 1.419 . S
C312 H316 0.930 . S
C313 C312 1.369 . S
C313 C322 1.429 . S
C314 C312 1.419 . S
C314 C315 1.362 . S
C314 H317 0.929 . S
C315 C314 1.362 . S
C315 C321 1.427 . S
H316 C312 0.930 . S
H317 C314 0.929 . S
S318 N319 1.613 1_655 S
S318 N320 1.610 1_565 S
N319 S318 1.613 1_455 S
N319 C322 1.350 1_565 S
N320 S318 1.610 1_545 S
N320 C321 1.351 1_655 S
C321 C315 1.427 . S
C321 N320 1.351 1_455 S
C321 C322 1.434 . S
C322 C313 1.429 . S
C322 N319 1.350 1_545 S
C322 C321 1.434 . S
C323 C324 1.369 . S
C323 C325 1.419 . S
C323 H327 0.930 . S
C324 C323 1.369 . S
C324 C333 1.429 1_655 S
C325 C323 1.419 . S
C325 C326 1.363 1_655 S
C325 H328 0.929 . S
C326 C325 1.363 1_455 S
C326 C332 1.428 . S
H327 C323 0.930 . S
H328 C325 0.929 . S
S329 N330 1.613 . S
S329 N331 1.610 . S
N330 S329 1.613 . S
N330 C333 1.350 . S
N331 S329 1.610 . S
N331 C332 1.351 . S
C332 C326 1.428 . S
C332 N331 1.351 . S
C332 C333 1.434 . S
C333 C324 1.429 1_455 S
C333 N330 1.350 . S
C333 C332 1.434 . S
C334 C335 1.369 1_545 S
C334 C336 1.419 . S
C334 H338 0.930 . S
C335 C334 1.369 1_565 S
C335 C344 1.429 . S
C336 C334 1.419 . S
C336 C337 1.363 . S
C336 H339 0.929 . S
C337 C336 1.363 . S
C337 C343 1.428 1_545 S
H338 C334 0.930 . S
H339 C336 0.929 . S
S340 N341 1.613 . S
S340 N342 1.610 . S
N341 S340 1.613 . S
N341 C344 1.350 . S
N342 S340 1.610 . S
N342 C343 1.351 . S
C343 C337 1.428 1_565 S
C343 N342 1.351 . S
C343 C344 1.434 . S
C344 C335 1.429 . S
C344 N341 1.350 . S
C344 C343 1.434 . S
C345 C346 1.369 . S
C345 C347 1.419 . S
C345 H349 0.930 . S
C346 C345 1.369 . S
C346 C355 1.429 . S
C347 C345 1.419 . S
C347 C348 1.368 . S
C347 H350 0.929 . S
C348 C347 1.368 . S
C348 C354 1.431 . S
H349 C345 0.930 . S
H350 C347 0.929 . S
S351 N352 1.613 . S
S351 N353 1.610 1_556 S
N352 S351 1.613 . S
N352 C355 1.350 . S
N353 S351 1.610 1_554 S
N353 C354 1.351 1_554 S
C354 C348 1.431 . S
C354 N353 1.351 1_556 S
C354 C355 1.434 . S
C355 C346 1.429 . S
C355 N352 1.350 . S
C355 C354 1.434 . S
C356 C357 1.369 1_655 S
C356 C358 1.419 . S
C356 H360 0.935 . S
C357 C356 1.369 1_455 S
C357 C366 1.429 . S
C358 C356 1.419 . S
C358 C359 1.363 . S
C358 H361 0.929 . S
C359 C358 1.363 . S
C359 C365 1.428 . S
H360 C356 0.935 . S
H361 C358 0.929 . S
S362 N363 1.613 . S
S362 N364 1.610 1_445 S
N363 S362 1.613 . S
N363 C366 1.350 1_545 S
N364 S362 1.610 1_665 S
N364 C365 1.351 . S
C365 C359 1.428 . S
C365 N364 1.351 . S
C365 C366 1.434 1_655 S
C366 C357 1.429 . S
C366 N363 1.350 1_565 S
C366 C365 1.434 1_455 S
C367 C368 1.369 1_565 S
C367 C369 1.419 . S
C367 H371 0.930 . S
C368 C367 1.369 1_545 S
C368 C377 1.429 . S
C369 C367 1.419 . S
C369 C370 1.363 . S
C369 H372 0.929 . S
C370 C369 1.363 . S
C370 C376 1.428 1_565 S
H371 C367 0.930 . S
H372 C369 0.929 . S
S373 N374 1.613 . S
S373 N375 1.610 . S
N374 S373 1.613 . S
N374 C377 1.350 . S
N375 S373 1.610 . S
N375 C376 1.351 . S
C376 C370 1.428 1_545 S
C376 N375 1.351 . S
C376 C377 1.434 . S
C377 C368 1.429 . S
C377 N374 1.350 . S
C377 C376 1.434 . S
C181 C147 1.008 . S
C183 N6 0.990 . S
C192 N156 0.990 . S
C194 C57 1.009 . S
C203 C27 1.009 . S
C205 N66 0.989 . S
C214 N36 0.989 . S
C216 C117 1.009 . S
C225 C87 1.001 . S
C227 N126 0.998 . S
C236 N96 1.000 . S
C238 C177 1.002 . S
C247 C1 1.746 . S
C249 C100 1.773 . S
C258 C121 1.737 . S
C260 C40 1.775 1_455 S
C269 C160 1.773 1_565 S
C271 C61 1.739 . S
C280 C70 1.771 . S
C282 C151 1.745 . S
C291 C10 1.781 1_655 S
C293 C91 1.738 . S
C302 C130 1.778 1_545 S
C304 C31 1.736 . S
C313 N164 1.027 . S
C315 N14 1.027 1_556 S
C324 C46 0.989 . S
C326 C16 0.989 . S
C335 N74 1.022 . S
C337 N44 1.027 . S
C346 C76 0.998 . S
C348 C106 0.990 1_556 S
C357 N134 1.026 . S
C359 N104 1.025 . S
C368 C166 0.998 . S
C370 C136 0.996 . S
