# Generated by pormake.
# Topology umv, (4)-cn, num edge types: 1
# Building blocks:
#     Node 0, Type 0, BuildingBlock: NAHDIM_clean_sbu_0, # of connection points: 4
#     Node 1, Type 0, BuildingBlock: NAHDIM_clean_sbu_0, # of connection points: 4
#     Node 2, Type 0, BuildingBlock: NAHDIM_clean_sbu_0, # of connection points: 4
#     Node 3, Type 0, BuildingBlock: NAHDIM_clean_sbu_0, # of connection points: 4
#     Node 4, Type 0, BuildingBlock: NAHDIM_clean_sbu_0, # of connection points: 4
#     Node 5, Type 0, BuildingBlock: NAHDIM_clean_sbu_0, # of connection points: 4
#     Node 6, Type 0, BuildingBlock: NAHDIM_clean_sbu_0, # of connection points: 4
#     Node 7, Type 0, BuildingBlock: NAHDIM_clean_sbu_0, # of connection points: 4
#     Node 8, Type 0, BuildingBlock: NAHDIM_clean_sbu_0, # of connection points: 4
#     Node 9, Type 0, BuildingBlock: NAHDIM_clean_sbu_0, # of connection points: 4
#     Node 10, Type 0, BuildingBlock: NAHDIM_clean_sbu_0, # of connection points: 4
#     Node 11, Type 0, BuildingBlock: NAHDIM_clean_sbu_0, # of connection points: 4
#     Node 12, Type 0, BuildingBlock: NAHDIM_clean_sbu_0, # of connection points: 4
#     Node 13, Type 0, BuildingBlock: NAHDIM_clean_sbu_0, # of connection points: 4
#     Node 14, Type 0, BuildingBlock: NAHDIM_clean_sbu_0, # of connection points: 4
#     Node 15, Type 0, BuildingBlock: NAHDIM_clean_sbu_0, # of connection points: 4
#     Node 16, Type 0, BuildingBlock: NAHDIM_clean_sbu_0, # of connection points: 4
#     Node 17, Type 0, BuildingBlock: NAHDIM_clean_sbu_0, # of connection points: 4
#     Node 18, Type 0, BuildingBlock: NAHDIM_clean_sbu_0, # of connection points: 4
#     Node 19, Type 0, BuildingBlock: NAHDIM_clean_sbu_0, # of connection points: 4
#     Node 20, Type 0, BuildingBlock: NAHDIM_clean_sbu_0, # of connection points: 4
#     Node 21, Type 0, BuildingBlock: NAHDIM_clean_sbu_0, # of connection points: 4
#     Node 22, Type 0, BuildingBlock: NAHDIM_clean_sbu_0, # of connection points: 4
#     Node 23, Type 0, BuildingBlock: NAHDIM_clean_sbu_0, # of connection points: 4
#     Node 24, Type 0, BuildingBlock: NAHDIM_clean_sbu_0, # of connection points: 4
#     Node 25, Type 0, BuildingBlock: NAHDIM_clean_sbu_0, # of connection points: 4
#     Node 26, Type 0, BuildingBlock: NAHDIM_clean_sbu_0, # of connection points: 4
#     Node 27, Type 0, BuildingBlock: NAHDIM_clean_sbu_0, # of connection points: 4
#     Node 28, Type 0, BuildingBlock: NAHDIM_clean_sbu_0, # of connection points: 4
#     Node 29, Type 0, BuildingBlock: NAHDIM_clean_sbu_0, # of connection points: 4
#     Node 30, Type 0, BuildingBlock: NAHDIM_clean_sbu_0, # of connection points: 4
#     Node 31, Type 0, BuildingBlock: NAHDIM_clean_sbu_0, # of connection points: 4
#     Edge 32, Type (0, 0), BuildingBlock: KIFKEQ_clean_linker_1, # of connection points: 2
#     Edge 33, Type (0, 0), BuildingBlock: KIFKEQ_clean_linker_1, # of connection points: 2
#     Edge 34, Type (0, 0), BuildingBlock: KIFKEQ_clean_linker_1, # of connection points: 2
#     Edge 35, Type (0, 0), BuildingBlock: KIFKEQ_clean_linker_1, # of connection points: 2
#     Edge 36, Type (0, 0), BuildingBlock: KIFKEQ_clean_linker_1, # of connection points: 2
#     Edge 37, Type (0, 0), BuildingBlock: KIFKEQ_clean_linker_1, # of connection points: 2
#     Edge 38, Type (0, 0), BuildingBlock: KIFKEQ_clean_linker_1, # of connection points: 2
#     Edge 39, Type (0, 0), BuildingBlock: KIFKEQ_clean_linker_1, # of connection points: 2
#     Edge 40, Type (0, 0), BuildingBlock: KIFKEQ_clean_linker_1, # of connection points: 2
#     Edge 41, Type (0, 0), BuildingBlock: KIFKEQ_clean_linker_1, # of connection points: 2
#     Edge 42, Type (0, 0), BuildingBlock: KIFKEQ_clean_linker_1, # of connection points: 2
#     Edge 43, Type (0, 0), BuildingBlock: KIFKEQ_clean_linker_1, # of connection points: 2
#     Edge 44, Type (0, 0), BuildingBlock: KIFKEQ_clean_linker_1, # of connection points: 2
#     Edge 45, Type (0, 0), BuildingBlock: KIFKEQ_clean_linker_1, # of connection points: 2
#     Edge 46, Type (0, 0), BuildingBlock: KIFKEQ_clean_linker_1, # of connection points: 2
#     Edge 47, Type (0, 0), BuildingBlock: KIFKEQ_clean_linker_1, # of connection points: 2
#     Edge 48, Type (0, 0), BuildingBlock: KIFKEQ_clean_linker_1, # of connection points: 2
#     Edge 49, Type (0, 0), BuildingBlock: KIFKEQ_clean_linker_1, # of connection points: 2
#     Edge 50, Type (0, 0), BuildingBlock: KIFKEQ_clean_linker_1, # of connection points: 2
#     Edge 51, Type (0, 0), BuildingBlock: KIFKEQ_clean_linker_1, # of connection points: 2
#     Edge 52, Type (0, 0), BuildingBlock: KIFKEQ_clean_linker_1, # of connection points: 2
#     Edge 53, Type (0, 0), BuildingBlock: KIFKEQ_clean_linker_1, # of connection points: 2
#     Edge 54, Type (0, 0), BuildingBlock: KIFKEQ_clean_linker_1, # of connection points: 2
#     Edge 55, Type (0, 0), BuildingBlock: KIFKEQ_clean_linker_1, # of connection points: 2
#     Edge 56, Type (0, 0), BuildingBlock: KIFKEQ_clean_linker_1, # of connection points: 2
#     Edge 57, Type (0, 0), BuildingBlock: KIFKEQ_clean_linker_1, # of connection points: 2
#     Edge 58, Type (0, 0), BuildingBlock: KIFKEQ_clean_linker_1, # of connection points: 2
#     Edge 59, Type (0, 0), BuildingBlock: KIFKEQ_clean_linker_1, # of connection points: 2
#     Edge 60, Type (0, 0), BuildingBlock: KIFKEQ_clean_linker_1, # of connection points: 2
#     Edge 61, Type (0, 0), BuildingBlock: KIFKEQ_clean_linker_1, # of connection points: 2
#     Edge 62, Type (0, 0), BuildingBlock: KIFKEQ_clean_linker_1, # of connection points: 2
#     Edge 63, Type (0, 0), BuildingBlock: KIFKEQ_clean_linker_1, # of connection points: 2
#     Edge 64, Type (0, 0), BuildingBlock: KIFKEQ_clean_linker_1, # of connection points: 2
#     Edge 65, Type (0, 0), BuildingBlock: KIFKEQ_clean_linker_1, # of connection points: 2
#     Edge 66, Type (0, 0), BuildingBlock: KIFKEQ_clean_linker_1, # of connection points: 2
#     Edge 67, Type (0, 0), BuildingBlock: KIFKEQ_clean_linker_1, # of connection points: 2
#     Edge 68, Type (0, 0), BuildingBlock: KIFKEQ_clean_linker_1, # of connection points: 2
#     Edge 69, Type (0, 0), BuildingBlock: KIFKEQ_clean_linker_1, # of connection points: 2
#     Edge 70, Type (0, 0), BuildingBlock: KIFKEQ_clean_linker_1, # of connection points: 2
#     Edge 71, Type (0, 0), BuildingBlock: KIFKEQ_clean_linker_1, # of connection points: 2
#     Edge 72, Type (0, 0), BuildingBlock: KIFKEQ_clean_linker_1, # of connection points: 2
#     Edge 73, Type (0, 0), BuildingBlock: KIFKEQ_clean_linker_1, # of connection points: 2
#     Edge 74, Type (0, 0), BuildingBlock: KIFKEQ_clean_linker_1, # of connection points: 2
#     Edge 75, Type (0, 0), BuildingBlock: KIFKEQ_clean_linker_1, # of connection points: 2
#     Edge 76, Type (0, 0), BuildingBlock: KIFKEQ_clean_linker_1, # of connection points: 2
#     Edge 77, Type (0, 0), BuildingBlock: KIFKEQ_clean_linker_1, # of connection points: 2
#     Edge 78, Type (0, 0), BuildingBlock: KIFKEQ_clean_linker_1, # of connection points: 2
#     Edge 79, Type (0, 0), BuildingBlock: KIFKEQ_clean_linker_1, # of connection points: 2
#     Edge 80, Type (0, 0), BuildingBlock: KIFKEQ_clean_linker_1, # of connection points: 2
#     Edge 81, Type (0, 0), BuildingBlock: KIFKEQ_clean_linker_1, # of connection points: 2
#     Edge 82, Type (0, 0), BuildingBlock: KIFKEQ_clean_linker_1, # of connection points: 2
#     Edge 83, Type (0, 0), BuildingBlock: KIFKEQ_clean_linker_1, # of connection points: 2
#     Edge 84, Type (0, 0), BuildingBlock: KIFKEQ_clean_linker_1, # of connection points: 2
#     Edge 85, Type (0, 0), BuildingBlock: KIFKEQ_clean_linker_1, # of connection points: 2
#     Edge 86, Type (0, 0), BuildingBlock: KIFKEQ_clean_linker_1, # of connection points: 2
#     Edge 87, Type (0, 0), BuildingBlock: KIFKEQ_clean_linker_1, # of connection points: 2
#     Edge 88, Type (0, 0), BuildingBlock: KIFKEQ_clean_linker_1, # of connection points: 2
#     Edge 89, Type (0, 0), BuildingBlock: KIFKEQ_clean_linker_1, # of connection points: 2
#     Edge 90, Type (0, 0), BuildingBlock: KIFKEQ_clean_linker_1, # of connection points: 2
#     Edge 91, Type (0, 0), BuildingBlock: KIFKEQ_clean_linker_1, # of connection points: 2
#     Edge 92, Type (0, 0), BuildingBlock: KIFKEQ_clean_linker_1, # of connection points: 2
#     Edge 93, Type (0, 0), BuildingBlock: KIFKEQ_clean_linker_1, # of connection points: 2
#     Edge 94, Type (0, 0), BuildingBlock: KIFKEQ_clean_linker_1, # of connection points: 2
#     Edge 95, Type (0, 0), BuildingBlock: KIFKEQ_clean_linker_1, # of connection points: 2
# Relax obj value: 0.140
# Max RMSD: 0.096
# Mean RMSD: 0.096
data_MOF--net-umv--node1-NAHDIM_clean_sbu_0--edge1-KIFKEQ_clean_linker_1
_symmetry_space_group_name_H-M    P1
_symmetry_Int_Tables_number       1
_symmetry_cell_setting            triclinic
loop_
_symmetry_equiv_pos_as_xyz
'x, y, z'
_cell_length_a     98.077923
_cell_length_b     24.037332
_cell_length_c     80.093607
_cell_angle_alpha  89.986337
_cell_angle_beta   90.026812
_cell_angle_gamma 90.010879
loop_
_atom_site_label
_atom_site_type_symbol
_atom_site_fract_x
_atom_site_fract_y
_atom_site_fract_z
_atom_type_partial_charge
C0 C 0.01986 0.14012 0.28746 0.0
O1 O 0.01324 0.13751 0.3017 0.0
O2 O 0.03733 0.04477 0.32008 0.0
Zn3 Zn 0.04217 0.11734 0.30896 0.0
O4 O 0.03705 0.18078 0.32381 0.0
C5 C 0.07074 0.08332 0.30722 0.0
O6 O 0.06608 0.03355 0.3109 0.0
O7 O 0.03254 0.12942 0.28725 0.0
C8 C 0.04369 0.18944 0.33716 0.0
O9 O 0.05352 0.15498 0.34134 0.0
C10 C 0.028 0.04176 0.33107 0.0
O11 O 0.02082 0.08635 0.33458 0.0
O12 O 0.0624 0.12332 0.30546 0.0
C13 C 0.2231 0.10409 0.29171 0.0
O14 O 0.22912 0.10171 0.30635 0.0
O15 O 0.20522 0.20143 0.32385 0.0
Zn16 Zn 0.20035 0.12976 0.31225 0.0
O17 O 0.20468 0.06486 0.32699 0.0
C18 C 0.17161 0.1579 0.31442 0.0
O19 O 0.17591 0.19612 0.3249 0.0
O20 O 0.21066 0.11861 0.29096 0.0
C21 C 0.19807 0.05626 0.34036 0.0
O22 O 0.18857 0.09175 0.34485 0.0
C23 C 0.21452 0.20397 0.3349 0.0
O24 O 0.22168 0.15923 0.33831 0.0
O25 O 0.18025 0.12632 0.30735 0.0
C26 C 0.01839 0.1071 0.94512 0.0
O27 O 0.01511 0.09686 0.92951 0.0
O28 O 0.03575 0.22365 0.91705 0.0
Zn29 Zn 0.04124 0.15276 0.9287 0.0
O30 O 0.04046 0.08671 0.91336 0.0
C31 C 0.06942 0.17819 0.92621 0.0
O32 O 0.06507 0.2019 0.91242 0.0
O33 O 0.02916 0.13469 0.94818 0.0
C34 C 0.04453 0.08472 0.89832 0.0
O35 O 0.04927 0.12989 0.89115 0.0
C36 C 0.02745 0.225 0.90486 0.0
O37 O 0.02155 0.17876 0.89994 0.0
O38 O 0.06077 0.15692 0.93613 0.0
C39 C 0.2196 0.12435 0.95701 0.0
O40 O 0.2254 0.1214 0.94226 0.0
O41 O 0.20271 0.02975 0.92544 0.0
Zn42 Zn 0.19661 0.09988 0.93717 0.0
O43 O 0.19956 0.16763 0.92294 0.0
C44 C 0.1685 0.07444 0.93162 0.0
O45 O 0.17366 0.04742 0.91885 0.0
O46 O 0.20698 0.11331 0.9583 0.0
C47 C 0.19528 0.17233 0.90804 0.0
O48 O 0.18916 0.12998 0.90089 0.0
C49 C 0.21122 0.02993 0.91346 0.0
O50 O 0.21682 0.0771 0.90883 0.0
O51 O 0.17651 0.09774 0.94193 0.0
C52 C 0.97169 0.85598 0.69835 0.0
O53 O 0.97439 0.84268 0.68279 0.0
O54 O 0.95297 0.96715 0.66893 0.0
Zn55 Zn 0.94844 0.89838 0.68217 0.0
O56 O 0.94927 0.83064 0.66762 0.0
C57 C 0.92073 0.91556 0.67777 0.0
O58 O 0.92579 0.92846 0.66308 0.0
O59 O 0.96106 0.88434 0.7015 0.0
C60 C 0.95039 0.8295 0.65184 0.0
O61 O 0.9512 0.87639 0.64347 0.0
C62 C 0.96463 0.98479 0.66447 0.0
O63 O 0.97564 0.95803 0.66923 0.0
O64 O 0.92888 0.9026 0.68947 0.0
C65 C 0.76925 0.90139 0.69825 0.0
O66 O 0.766 0.91286 0.68273 0.0
O67 O 0.78791 0.78574 0.66962 0.0
Zn68 Zn 0.79244 0.85636 0.68186 0.0
O69 O 0.79211 0.92138 0.66613 0.0
C70 C 0.8201 0.83983 0.67755 0.0
O71 O 0.81502 0.82762 0.66282 0.0
O72 O 0.78003 0.87368 0.70118 0.0
C73 C 0.78502 0.92679 0.65297 0.0
O74 O 0.77672 0.88672 0.64838 0.0
C75 C 0.77632 0.76573 0.66589 0.0
O76 O 0.7652 0.79137 0.67079 0.0
O77 O 0.81195 0.85221 0.68931 0.0
C78 C 0.97268 0.89805 0.03872 0.0
O79 O 0.97872 0.89575 0.05335 0.0
O80 O 0.95523 0.78237 0.06641 0.0
Zn81 Zn 0.95012 0.85828 0.05776 0.0
O82 O 0.9538 0.91487 0.07547 0.0
C83 C 0.92149 0.82585 0.05672 0.0
O84 O 0.92582 0.77866 0.06307 0.0
O85 O 0.96047 0.88101 0.03736 0.0
C86 C 0.94674 0.91462 0.08875 0.0
O87 O 0.93737 0.87612 0.09077 0.0
C88 C 0.96405 0.77767 0.07797 0.0
O89 O 0.9705 0.82225 0.08321 0.0
O90 O 0.93006 0.86351 0.05306 0.0
C91 C 0.76991 0.84224 0.04601 0.0
O92 O 0.76411 0.8402 0.06078 0.0
O93 O 0.78752 0.95663 0.07442 0.0
Zn94 Zn 0.79273 0.88197 0.06495 0.0
O95 O 0.79004 0.82213 0.08199 0.0
C96 C 0.82146 0.91159 0.06522 0.0
O97 O 0.81764 0.95052 0.07573 0.0
O98 O 0.78193 0.86141 0.04471 0.0
C99 C 0.79453 0.82667 0.0968 0.0
O100 O 0.80065 0.87284 0.10136 0.0
C101 C 0.77822 0.96128 0.08539 0.0
O102 O 0.77132 0.91693 0.08991 0.0
O103 O 0.81254 0.87964 0.05888 0.0
C104 C 0.02265 0.66953 0.7922 0.0
O105 O 0.01709 0.66867 0.80712 0.0
O106 O 0.03942 0.57125 0.82322 0.0
Zn107 Zn 0.04578 0.6407 0.81134 0.0
O108 O 0.04335 0.7082 0.82564 0.0
C109 C 0.07374 0.60203 0.81272 0.0
O110 O 0.06875 0.56535 0.82323 0.0
O111 O 0.03506 0.65543 0.79059 0.0
C112 C 0.04996 0.71612 0.83906 0.0
O113 O 0.05838 0.67753 0.84441 0.0
C114 C 0.03182 0.57316 0.83606 0.0
O115 O 0.02747 0.62159 0.84146 0.0
O116 O 0.06574 0.63661 0.80579 0.0
C117 C 0.22585 0.56909 0.80219 0.0
O118 O 0.22932 0.55649 0.81758 0.0
O119 O 0.2077 0.68153 0.8314 0.0
Zn120 Zn 0.20278 0.61072 0.81933 0.0
O121 O 0.20438 0.54477 0.83447 0.0
C122 C 0.17529 0.6534 0.81345 0.0
O123 O 0.18014 0.70058 0.81923 0.0
O124 O 0.2149 0.59609 0.79965 0.0
C125 C 0.19751 0.5394 0.84779 0.0
O126 O 0.18934 0.57976 0.85251 0.0
C127 C 0.21499 0.68166 0.84452 0.0
O128 O 0.22007 0.63456 0.85005 0.0
O129 O 0.1832 0.61184 0.812 0.0
C130 C 0.01955 0.59126 0.44523 0.0
O131 O 0.01578 0.57711 0.43008 0.0
O132 O 0.03848 0.69378 0.41317 0.0
Zn133 Zn 0.04246 0.62527 0.42674 0.0
O134 O 0.03967 0.55602 0.41306 0.0
C135 C 0.07013 0.61812 0.42013 0.0
O136 O 0.06455 0.61125 0.40536 0.0
O137 O 0.03075 0.61712 0.4472 0.0
C138 C 0.03636 0.55393 0.39774 0.0
O139 O 0.03443 0.60031 0.3894 0.0
C140 C 0.02692 0.71248 0.40874 0.0
O141 O 0.01578 0.68696 0.41364 0.0
O142 O 0.06242 0.62673 0.43262 0.0
C143 C 0.22243 0.65749 0.44938 0.0
O144 O 0.22636 0.67187 0.43431 0.0
O145 O 0.20466 0.55133 0.41721 0.0
Zn146 Zn 0.20012 0.62021 0.43032 0.0
O147 O 0.20259 0.68911 0.41637 0.0
C148 C 0.17277 0.61796 0.42246 0.0
O149 O 0.17885 0.6197 0.40785 0.0
O150 O 0.21139 0.63035 0.4511 0.0
C151 C 0.20552 0.69098 0.40094 0.0
O152 O 0.20731 0.64447 0.39262 0.0
C153 C 0.21621 0.53432 0.41216 0.0
O154 O 0.22726 0.56238 0.41605 0.0
O155 O 0.18008 0.61664 0.43556 0.0
C156 C 0.97314 0.32582 0.19032 0.0
O157 O 0.97714 0.3172 0.17489 0.0
O158 O 0.95461 0.43072 0.16032 0.0
Zn159 Zn 0.94963 0.36106 0.17296 0.0
O160 O 0.95153 0.29426 0.15825 0.0
C161 C 0.92217 0.40307 0.18095 0.0
O162 O 0.92717 0.45319 0.17865 0.0
O163 O 0.96161 0.3484 0.19287 0.0
C164 C 0.9494 0.24673 0.16467 0.0
O165 O 0.94617 0.24334 0.18056 0.0
C166 C 0.96035 0.42762 0.14611 0.0
O167 O 0.96338 0.37853 0.13996 0.0
O168 O 0.92996 0.36112 0.17966 0.0
C169 C 0.76964 0.40503 0.19985 0.0
O170 O 0.76375 0.40456 0.18511 0.0
O171 O 0.78616 0.30763 0.16795 0.0
Zn172 Zn 0.79263 0.376 0.18029 0.0
O173 O 0.79052 0.44425 0.1662 0.0
C174 C 0.8208 0.3488 0.17558 0.0
O175 O 0.8161 0.32773 0.16158 0.0
O176 O 0.78204 0.39042 0.20107 0.0
C177 C 0.79689 0.48795 0.17052 0.0
O178 O 0.80471 0.48666 0.18384 0.0
C179 C 0.78133 0.31143 0.15326 0.0
O180 O 0.78002 0.36079 0.1464 0.0
O181 O 0.8125 0.36982 0.18596 0.0
C182 C 0.9725 0.4182 0.54428 0.0
O183 O 0.97849 0.41968 0.55895 0.0
O184 O 0.95544 0.31661 0.57573 0.0
Zn185 Zn 0.94974 0.38746 0.56426 0.0
O186 O 0.95287 0.45305 0.57913 0.0
C187 C 0.92153 0.3526 0.5662 0.0
O188 O 0.92634 0.31669 0.57707 0.0
O189 O 0.96019 0.40214 0.5433 0.0
C190 C 0.94568 0.46149 0.59205 0.0
O191 O 0.93633 0.42491 0.59624 0.0
C192 C 0.96417 0.31551 0.58745 0.0
O193 O 0.97041 0.36171 0.59174 0.0
O194 O 0.92969 0.3857 0.55892 0.0
C195 C 0.76906 0.35043 0.54293 0.0
O196 O 0.76281 0.35039 0.55743 0.0
O197 O 0.78703 0.43582 0.5768 0.0
Zn198 Zn 0.79183 0.366 0.56416 0.0
O199 O 0.78723 0.29855 0.57766 0.0
C200 C 0.81983 0.40452 0.5601 0.0
O201 O 0.81461 0.45433 0.56228 0.0
O202 O 0.78182 0.35944 0.54249 0.0
C203 C 0.7915 0.29332 0.59253 0.0
O204 O 0.79855 0.33393 0.59933 0.0
C205 C 0.77752 0.43812 0.58756 0.0
O206 O 0.76996 0.39391 0.59026 0.0
O207 O 0.812 0.36244 0.5601 0.0
C208 C 0.52021 0.14724 0.79335 0.0
O209 O 0.51411 0.15041 0.80792 0.0
O210 O 0.53565 0.0453 0.82561 0.0
Zn211 Zn 0.54256 0.11369 0.81372 0.0
O212 O 0.54076 0.18171 0.82822 0.0
C213 C 0.57019 0.07343 0.81668 0.0
O214 O 0.56486 0.04265 0.82856 0.0
O215 O 0.53238 0.12939 0.79265 0.0
C216 C 0.5498 0.19356 0.83901 0.0
O217 O 0.56013 0.15961 0.84119 0.0
C218 C 0.52986 0.04824 0.83978 0.0
O219 O 0.5275 0.09729 0.8464 0.0
O220 O 0.56247 0.10518 0.80822 0.0
C221 C 0.72156 0.09548 0.79319 0.0
O222 O 0.72743 0.09547 0.80794 0.0
O223 O 0.70508 0.19684 0.82438 0.0
Zn224 Zn 0.69888 0.12635 0.81299 0.0
O225 O 0.70144 0.05914 0.82755 0.0
C226 C 0.67079 0.151 0.81857 0.0
O227 O 0.67587 0.17441 0.83202 0.0
O228 O 0.70922 0.11089 0.79198 0.0
C229 C 0.69785 0.0557 0.84275 0.0
O230 O 0.69269 0.09948 0.85024 0.0
C231 C 0.71386 0.19751 0.83606 0.0
O232 O 0.71978 0.15085 0.84057 0.0
O233 O 0.67885 0.12992 0.80791 0.0
C234 C 0.51852 0.07599 0.44242 0.0
O235 O 0.51589 0.06308 0.42681 0.0
O236 O 0.53628 0.20505 0.41752 0.0
Zn237 Zn 0.54116 0.13037 0.42712 0.0
O238 O 0.54017 0.07228 0.40921 0.0
C239 C 0.56894 0.16849 0.4337 0.0
O240 O 0.56481 0.21565 0.42714 0.0
O241 O 0.52863 0.10728 0.44567 0.0
C242 C 0.54978 0.06561 0.3988 0.0
O243 O 0.56034 0.09924 0.39926 0.0
C244 C 0.52778 0.20864 0.40558 0.0
O245 O 0.52174 0.16329 0.40018 0.0
O246 O 0.5605 0.12882 0.43542 0.0
C247 C 0.71993 0.18164 0.44495 0.0
O248 O 0.7229 0.1951 0.42947 0.0
O249 O 0.70296 0.05422 0.41923 0.0
Zn250 Zn 0.69752 0.1283 0.4288 0.0
O251 O 0.69866 0.1876 0.41132 0.0
C252 C 0.6693 0.09476 0.43024 0.0
O253 O 0.67325 0.05806 0.41909 0.0
O254 O 0.70965 0.15087 0.44779 0.0
C255 C 0.69519 0.1817 0.39615 0.0
O256 O 0.69062 0.13336 0.39094 0.0
C257 C 0.71263 0.04984 0.40875 0.0
O258 O 0.71964 0.09435 0.40463 0.0
O259 O 0.67806 0.12752 0.43656 0.0
C260 C 0.47129 0.82836 0.19685 0.0
O261 O 0.47382 0.81511 0.18125 0.0
O262 O 0.45342 0.95385 0.17122 0.0
Zn263 Zn 0.44834 0.88035 0.18159 0.0
O264 O 0.4488 0.81963 0.16446 0.0
C265 C 0.42021 0.91354 0.18374 0.0
O266 O 0.42393 0.94929 0.1722 0.0
O267 O 0.46105 0.8588 0.20015 0.0
C268 C 0.44434 0.82436 0.14965 0.0
O269 O 0.43929 0.87214 0.14463 0.0
C270 C 0.46227 0.95721 0.15967 0.0
O271 O 0.46879 0.91211 0.15498 0.0
O272 O 0.42911 0.88161 0.19013 0.0
C273 C 0.26983 0.9212 0.19419 0.0
O274 O 0.26741 0.93661 0.17874 0.0
O275 O 0.28814 0.79229 0.16876 0.0
Zn276 Zn 0.29253 0.86709 0.17869 0.0
O277 O 0.29148 0.92505 0.1608 0.0
C278 C 0.32038 0.83117 0.18604 0.0
O279 O 0.31657 0.7831 0.17979 0.0
O280 O 0.27977 0.8887 0.19717 0.0
C281 C 0.30049 0.9283 0.14947 0.0
O282 O 0.31049 0.89195 0.14923 0.0
C283 C 0.28008 0.7892 0.15635 0.0
O284 O 0.27415 0.83469 0.15089 0.0
O285 O 0.31176 0.87034 0.18721 0.0
C286 C 0.47022 0.88596 0.53761 0.0
O287 O 0.47605 0.88624 0.55239 0.0
O288 O 0.45388 0.78959 0.56952 0.0
Zn289 Zn 0.44739 0.85855 0.55754 0.0
O290 O 0.44981 0.92706 0.57152 0.0
C291 C 0.41938 0.82562 0.56167 0.0
O292 O 0.42443 0.79761 0.57433 0.0
O293 O 0.45777 0.87202 0.53645 0.0
C294 C 0.44487 0.93265 0.58607 0.0
O295 O 0.43826 0.89098 0.59294 0.0
C296 C 0.46204 0.791 0.58186 0.0
O297 O 0.46703 0.83898 0.58678 0.0
O298 O 0.4274 0.8531 0.55234 0.0
C299 C 0.26751 0.83331 0.5495 0.0
O300 O 0.2616 0.82998 0.56418 0.0
O301 O 0.28773 0.94799 0.57766 0.0
Zn302 Zn 0.29035 0.87027 0.56903 0.0
O303 O 0.28533 0.81648 0.587 0.0
C304 C 0.31835 0.89495 0.55964 0.0
O305 O 0.3138 0.94586 0.55749 0.0
O306 O 0.27956 0.85236 0.54848 0.0
C307 C 0.29183 0.81861 0.60069 0.0
O308 O 0.30114 0.85734 0.60275 0.0
C309 C 0.27728 0.96152 0.58611 0.0
O310 O 0.26742 0.92514 0.58809 0.0
O311 O 0.31014 0.85707 0.56423 0.0
C312 C 0.52226 0.64745 0.29167 0.0
O313 O 0.51648 0.64582 0.30646 0.0
O314 O 0.53679 0.55491 0.32399 0.0
Zn315 Zn 0.54495 0.61989 0.31153 0.0
O316 O 0.54379 0.69045 0.32513 0.0
C317 C 0.57153 0.57571 0.317 0.0
O318 O 0.56517 0.55326 0.32977 0.0
O319 O 0.53479 0.63488 0.29038 0.0
C320 C 0.55325 0.70596 0.33494 0.0
O321 O 0.56403 0.6743 0.33689 0.0
C322 C 0.53181 0.55972 0.33858 0.0
O323 O 0.53122 0.60914 0.34552 0.0
O324 O 0.56477 0.60477 0.30665 0.0
C325 C 0.723 0.59983 0.29544 0.0
O326 O 0.72755 0.59352 0.31076 0.0
O327 O 0.70728 0.7017 0.32696 0.0
Zn328 Zn 0.70083 0.63411 0.31433 0.0
O329 O 0.70344 0.56423 0.32779 0.0
C330 C 0.6733 0.62664 0.32248 0.0
O331 O 0.67922 0.61603 0.33685 0.0
O332 O 0.71136 0.62183 0.29323 0.0
C333 C 0.69815 0.51982 0.32212 0.0
O334 O 0.6915 0.52147 0.30789 0.0
C335 C 0.71158 0.69795 0.3419 0.0
O336 O 0.71231 0.64875 0.34898 0.0
O337 O 0.68064 0.6396 0.30999 0.0
C338 C 0.52136 0.59169 0.94994 0.0
O339 O 0.5155 0.59011 0.93519 0.0
O340 O 0.53938 0.69678 0.91987 0.0
Zn341 Zn 0.54441 0.62352 0.93042 0.0
O342 O 0.54116 0.56134 0.91426 0.0
C343 C 0.5728 0.65962 0.93482 0.0
O344 O 0.5685 0.70908 0.93024 0.0
O345 O 0.53367 0.60751 0.95106 0.0
C346 C 0.54963 0.55422 0.90248 0.0
O347 O 0.55983 0.58928 0.90082 0.0
C348 C 0.53084 0.69851 0.90792 0.0
O349 O 0.52494 0.65227 0.90301 0.0
O350 O 0.56433 0.61991 0.93606 0.0
C351 C 0.72436 0.6555 0.94811 0.0
O352 O 0.728 0.66794 0.93277 0.0
O353 O 0.707 0.54358 0.9184 0.0
Zn354 Zn 0.7016 0.61378 0.93049 0.0
O355 O 0.70331 0.68045 0.91562 0.0
C356 C 0.67325 0.5812 0.93007 0.0
O357 O 0.67735 0.54719 0.91826 0.0
O358 O 0.71341 0.62836 0.95046 0.0
C359 C 0.69686 0.68659 0.902 0.0
O360 O 0.6889 0.64645 0.89663 0.0
C361 C 0.71456 0.54456 0.9055 0.0
O362 O 0.7195 0.59228 0.90029 0.0
O363 O 0.68196 0.61151 0.93749 0.0
C364 C 0.47629 0.3262 0.69302 0.0
O365 O 0.47994 0.31192 0.67784 0.0
O366 O 0.45863 0.44127 0.66332 0.0
Zn367 Zn 0.45381 0.36967 0.675 0.0
O368 O 0.45572 0.30435 0.65964 0.0
C369 C 0.42618 0.41089 0.6817 0.0
O370 O 0.43098 0.46016 0.67771 0.0
O371 O 0.46554 0.35489 0.69504 0.0
C372 C 0.4489 0.29963 0.64625 0.0
O373 O 0.4408 0.34036 0.64161 0.0
C374 C 0.46628 0.4423 0.65052 0.0
O375 O 0.47173 0.39573 0.64512 0.0
O376 O 0.43415 0.36925 0.68179 0.0
C377 C 0.27349 0.39414 0.70393 0.0
O378 O 0.26742 0.39611 0.68933 0.0
O379 O 0.29178 0.30096 0.67106 0.0
Zn380 Zn 0.29654 0.37133 0.6834 0.0
O381 O 0.2926 0.43746 0.66902 0.0
C382 C 0.32503 0.34755 0.67929 0.0
O383 O 0.32043 0.31695 0.66692 0.0
O384 O 0.28601 0.38076 0.70464 0.0
C385 C 0.29336 0.48526 0.67572 0.0
O386 O 0.29658 0.48906 0.69161 0.0
C387 C 0.28241 0.29925 0.66009 0.0
O388 O 0.27501 0.34383 0.65731 0.0
O389 O 0.3166 0.3736 0.68843 0.0
C390 C 0.47312 0.42029 0.04834 0.0
O391 O 0.47593 0.43597 0.06368 0.0
O392 O 0.45478 0.30556 0.07723 0.0
Zn393 Zn 0.44987 0.37563 0.06472 0.0
O394 O 0.45048 0.44199 0.07994 0.0
C395 C 0.42226 0.33323 0.05796 0.0
O396 O 0.42623 0.2872 0.06536 0.0
O397 O 0.4626 0.39069 0.04569 0.0
C398 C 0.44452 0.48623 0.07523 0.0
O399 O 0.43812 0.48678 0.06082 0.0
C400 C 0.4605 0.30791 0.09146 0.0
O401 O 0.46362 0.35669 0.09778 0.0
O402 O 0.4307 0.37275 0.05605 0.0
C403 C 0.27099 0.32121 0.04839 0.0
O404 O 0.26863 0.31109 0.06425 0.0
O405 O 0.28909 0.44079 0.07433 0.0
Zn406 Zn 0.29466 0.37064 0.06234 0.0
O407 O 0.29557 0.30689 0.07838 0.0
C408 C 0.32235 0.40872 0.0593 0.0
O409 O 0.31869 0.44222 0.07145 0.0
O410 O 0.28144 0.34945 0.04436 0.0
C411 C 0.29949 0.26016 0.07275 0.0
O412 O 0.30286 0.25602 0.05692 0.0
C413 C 0.28323 0.43822 0.08847 0.0
O414 O 0.28033 0.38929 0.09485 0.0
O415 O 0.31351 0.37678 0.05281 0.0
H416 H 0.09154 0.00816 0.31043 0.0
H417 H 0.08352 0.18292 0.30227 0.0
H418 H 0.11597 0.02735 0.31098 0.0
H419 H 0.10791 0.20181 0.30264 0.0
H420 H 0.15047 0.21921 0.32686 0.0
H421 H 0.12614 0.20114 0.32383 0.0
H422 H 0.13498 0.05839 0.29293 0.0
H423 H 0.15934 0.07599 0.29609 0.0
C424 C 0.09498 0.05054 0.30859 0.0
C425 C 0.08558 0.09401 0.30638 0.0
C426 C 0.10898 0.06149 0.30883 0.0
C427 C 0.11385 0.11615 0.30692 0.0
C428 C 0.10446 0.15939 0.30436 0.0
C429 C 0.09048 0.14845 0.30406 0.0
C430 C 0.14724 0.18417 0.31933 0.0
C431 C 0.15685 0.14898 0.31175 0.0
C432 C 0.13329 0.17398 0.31753 0.0
C433 C 0.12865 0.12827 0.30817 0.0
C434 C 0.13826 0.09356 0.30038 0.0
C435 C 0.15221 0.10389 0.30211 0.0
H436 H 0.14933 0.05028 0.90807 0.0
H437 H 0.15418 0.12345 0.95703 0.0
H438 H 0.12542 0.07764 0.90795 0.0
H439 H 0.13014 0.15065 0.95685 0.0
H440 H 0.08213 0.13352 0.9536 0.0
H441 H 0.10613 0.10669 0.95604 0.0
H442 H 0.11385 0.17249 0.90679 0.0
H443 H 0.09001 0.19948 0.9043 0.0
C444 C 0.14527 0.07158 0.9189 0.0
C445 C 0.15367 0.08499 0.93252 0.0
C446 C 0.1316 0.08762 0.91876 0.0
C447 C 0.12601 0.11688 0.93229 0.0
C448 C 0.13422 0.12814 0.94626 0.0
C449 C 0.14796 0.11262 0.94633 0.0
C450 C 0.089 0.1429 0.94338 0.0
C451 C 0.08415 0.16832 0.92871 0.0
C452 C 0.10271 0.12757 0.9448 0.0
C453 C 0.11175 0.13683 0.9315 0.0
C454 C 0.10702 0.16404 0.91711 0.0
C455 C 0.09339 0.17987 0.91576 0.0
H456 H 0.9066 0.87455 0.70473 0.0
H457 H 0.90114 0.9424 0.65518 0.0
H458 H 0.88214 0.85414 0.70614 0.0
H459 H 0.87689 0.92251 0.65669 0.0
H460 H 0.83969 0.81402 0.65488 0.0
H461 H 0.86393 0.83375 0.65649 0.0
H462 H 0.85869 0.89976 0.70622 0.0
H463 H 0.83424 0.8795 0.7047 0.0
C464 C 0.90017 0.88581 0.69427 0.0
C465 C 0.90582 0.90949 0.67977 0.0
C466 C 0.88619 0.87417 0.69509 0.0
C467 C 0.87769 0.88583 0.6814 0.0
C468 C 0.88326 0.91189 0.66727 0.0
C469 C 0.89715 0.92359 0.66646 0.0
C470 C 0.84367 0.83227 0.66624 0.0
C471 C 0.83501 0.84576 0.67959 0.0
C472 C 0.85756 0.84388 0.66712 0.0
C473 C 0.86314 0.86924 0.68136 0.0
C474 C 0.85464 0.88027 0.69508 0.0
C475 C 0.84066 0.86872 0.69419 0.0
H476 H 0.90026 0.75447 0.06236 0.0
H477 H 0.90933 0.92448 0.04865 0.0
H478 H 0.87598 0.77671 0.06283 0.0
H479 H 0.88507 0.94641 0.04906 0.0
H480 H 0.84323 0.97435 0.07526 0.0
H481 H 0.86739 0.95359 0.07147 0.0
H482 H 0.8569 0.80521 0.04392 0.0
H483 H 0.83276 0.82564 0.04774 0.0
C484 C 0.89707 0.79638 0.05928 0.0
C485 C 0.90673 0.83772 0.05554 0.0
C486 C 0.88317 0.80904 0.05947 0.0
C487 C 0.87866 0.86337 0.05606 0.0
C488 C 0.88828 0.90436 0.05193 0.0
C489 C 0.90216 0.89163 0.0516 0.0
C490 C 0.84607 0.93757 0.06828 0.0
C491 C 0.83608 0.90157 0.06187 0.0
C492 C 0.8599 0.92582 0.06604 0.0
C493 C 0.86401 0.87766 0.05745 0.0
C494 C 0.85402 0.84229 0.05075 0.0
C495 C 0.8402 0.85423 0.05287 0.0
H496 H 0.08756 0.68245 0.79548 0.0
H497 H 0.09363 0.53277 0.82448 0.0
H498 H 0.1122 0.69451 0.79338 0.0
H499 H 0.11824 0.5452 0.82247 0.0
H500 H 0.16181 0.55849 0.80452 0.0
H501 H 0.13728 0.54481 0.80214 0.0
H502 H 0.13072 0.71847 0.81338 0.0
H503 H 0.15529 0.73247 0.81563 0.0
C504 C 0.09414 0.65184 0.80128 0.0
C505 C 0.08863 0.60674 0.81021 0.0
C506 C 0.10825 0.65898 0.80015 0.0
C507 C 0.11714 0.62095 0.80781 0.0
C508 C 0.11164 0.57492 0.81629 0.0
C509 C 0.09754 0.56796 0.81752 0.0
C510 C 0.15516 0.59397 0.8063 0.0
C511 C 0.16051 0.64655 0.81038 0.0
C512 C 0.1411 0.58599 0.80502 0.0
C513 C 0.13208 0.63045 0.80769 0.0
C514 C 0.13743 0.6835 0.81113 0.0
C515 C 0.15151 0.69145 0.81249 0.0
H516 H 0.08597 0.65349 0.44638 0.0
H517 H 0.08807 0.57574 0.39782 0.0
H518 H 0.11092 0.65342 0.44793 0.0
H519 H 0.11273 0.57383 0.39959 0.0
H520 H 0.15524 0.64059 0.39721 0.0
H521 H 0.13056 0.64049 0.39784 0.0
H522 H 0.13134 0.59542 0.45008 0.0
H523 H 0.15632 0.59736 0.44957 0.0
C524 C 0.09175 0.6359 0.43614 0.0
C525 C 0.08509 0.61536 0.42188 0.0
C526 C 0.10602 0.63559 0.43706 0.0
C527 C 0.11383 0.61436 0.42377 0.0
C528 C 0.10707 0.5919 0.40985 0.0
C529 C 0.0929 0.59276 0.40886 0.0
C530 C 0.15019 0.63062 0.40886 0.0
C531 C 0.15773 0.6185 0.42331 0.0
C532 C 0.13601 0.63026 0.4092 0.0
C533 C 0.12896 0.6171 0.42394 0.0
C534 C 0.13647 0.60595 0.43853 0.0
C535 C 0.15076 0.60679 0.43823 0.0
H536 H 0.90864 0.30408 0.18241 0.0
H537 H 0.90212 0.48191 0.18414 0.0
H538 H 0.88411 0.28894 0.18293 0.0
H539 H 0.87748 0.4664 0.18466 0.0
H540 H 0.83404 0.41149 0.19901 0.0
H541 H 0.85863 0.42367 0.20233 0.0
H542 H 0.86566 0.30846 0.16189 0.0
H543 H 0.84112 0.29622 0.15852 0.0
C544 C 0.90199 0.33999 0.18307 0.0
C545 C 0.90734 0.39431 0.18309 0.0
C546 C 0.88793 0.33121 0.1833 0.0
C547 C 0.87891 0.37647 0.18369 0.0
C548 C 0.88423 0.43074 0.18444 0.0
C549 C 0.89832 0.4396 0.18407 0.0
C550 C 0.84083 0.38831 0.19094 0.0
C551 C 0.83565 0.3529 0.17848 0.0
C552 C 0.85489 0.39561 0.19279 0.0
C553 C 0.86402 0.36708 0.18236 0.0
C554 C 0.85884 0.33059 0.1702 0.0
C555 C 0.8448 0.32378 0.16823 0.0
H556 H 0.9081 0.4279 0.54654 0.0
H557 H 0.9013 0.28891 0.57977 0.0
H558 H 0.88353 0.43955 0.5434 0.0
H559 H 0.87677 0.30115 0.57681 0.0
H560 H 0.8337 0.30673 0.55658 0.0
H561 H 0.85829 0.29282 0.55639 0.0
H562 H 0.86437 0.47015 0.561 0.0
H563 H 0.83974 0.4843 0.56094 0.0
C564 C 0.90138 0.39965 0.55311 0.0
C565 C 0.90666 0.35754 0.56344 0.0
C566 C 0.8873 0.40658 0.55138 0.0
C567 C 0.87821 0.37141 0.5599 0.0
C568 C 0.88351 0.32854 0.56993 0.0
C569 C 0.89757 0.32171 0.5717 0.0
C570 C 0.84027 0.34286 0.55742 0.0
C571 C 0.83475 0.39665 0.55886 0.0
C572 C 0.85436 0.3348 0.5574 0.0
C573 C 0.86327 0.38033 0.55879 0.0
C574 C 0.85777 0.43426 0.55976 0.0
C575 C 0.84366 0.44234 0.55981 0.0
H576 H 0.65143 0.16757 0.84244 0.0
H577 H 0.65657 0.11455 0.79125 0.0
H578 H 0.62722 0.14539 0.84083 0.0
H579 H 0.63222 0.09268 0.78968 0.0
H580 H 0.58462 0.12536 0.79196 0.0
H581 H 0.60911 0.14437 0.79147 0.0
H582 H 0.61395 0.05404 0.83768 0.0
H583 H 0.58954 0.03468 0.83819 0.0
C584 C 0.64738 0.15174 0.83079 0.0
C585 C 0.65592 0.14265 0.81698 0.0
C586 C 0.63354 0.13861 0.82993 0.0
C587 C 0.62793 0.11676 0.8152 0.0
C588 C 0.63633 0.10947 0.80118 0.0
C589 C 0.65024 0.12194 0.8021 0.0
C590 C 0.59094 0.10891 0.80189 0.0
C591 C 0.58514 0.07879 0.81516 0.0
C592 C 0.60494 0.11974 0.80158 0.0
C593 C 0.61334 0.10122 0.81464 0.0
C594 C 0.60763 0.06943 0.82758 0.0
C595 C 0.59368 0.05802 0.82779 0.0
H596 H 0.65738 0.17762 0.44851 0.0
H597 H 0.64807 0.02916 0.42026 0.0
H598 H 0.63305 0.19508 0.45221 0.0
H599 H 0.62379 0.04691 0.4239 0.0
H600 H 0.58112 0.07143 0.44336 0.0
H601 H 0.60545 0.05199 0.44527 0.0
H602 H 0.61433 0.22302 0.43282 0.0
H603 H 0.58998 0.24277 0.43102 0.0
C604 C 0.65016 0.14835 0.44326 0.0
C605 C 0.65465 0.10215 0.43399 0.0
C606 C 0.63623 0.15857 0.44531 0.0
C607 C 0.62653 0.12253 0.43828 0.0
C608 C 0.63103 0.07516 0.4296 0.0
C609 C 0.64495 0.06516 0.42743 0.0
C610 C 0.58824 0.10516 0.44126 0.0
C611 C 0.58361 0.15861 0.4369 0.0
C612 C 0.60218 0.09387 0.44227 0.0
C613 C 0.61178 0.13584 0.43906 0.0
C614 C 0.60716 0.18991 0.43548 0.0
C615 C 0.59321 0.20116 0.43437 0.0
H616 H 0.33184 0.92957 0.19574 0.0
H617 H 0.34186 0.75872 0.18417 0.0
H618 H 0.35601 0.95139 0.19819 0.0
H619 H 0.36607 0.78087 0.18653 0.0
H620 H 0.40866 0.831 0.20254 0.0
H621 H 0.38441 0.81155 0.20614 0.0
H622 H 0.37452 0.95747 0.17709 0.0
H623 H 0.39871 0.9772 0.17355 0.0
C624 C 0.33918 0.89647 0.19392 0.0
C625 C 0.33493 0.84246 0.1896 0.0
C626 C 0.35303 0.90911 0.19526 0.0
C627 C 0.36292 0.86799 0.19242 0.0
C628 C 0.35867 0.81336 0.18891 0.0
C629 C 0.3448 0.80073 0.18748 0.0
C630 C 0.40131 0.85941 0.19713 0.0
C631 C 0.40561 0.90548 0.18765 0.0
C632 C 0.38743 0.84804 0.19912 0.0
C633 C 0.37758 0.88279 0.19183 0.0
C634 C 0.38188 0.93019 0.18299 0.0
C635 C 0.39574 0.94133 0.18088 0.0
H636 H 0.33075 0.79376 0.56269 0.0
H637 H 0.33914 0.96696 0.5524 0.0
H638 H 0.35502 0.77319 0.5613 0.0
H639 H 0.36347 0.94646 0.55135 0.0
H640 H 0.40561 0.88413 0.5377 0.0
H641 H 0.38105 0.89785 0.53543 0.0
H642 H 0.3749 0.79232 0.57846 0.0
H643 H 0.3994 0.7777 0.58054 0.0
C644 C 0.33776 0.82745 0.56008 0.0
C645 C 0.33301 0.88211 0.55775 0.0
C646 C 0.35168 0.81565 0.55936 0.0
C647 C 0.36118 0.85821 0.55631 0.0
C648 C 0.35641 0.91262 0.55354 0.0
C649 C 0.34246 0.92444 0.55424 0.0
C650 C 0.39901 0.86336 0.54657 0.0
C651 C 0.40446 0.83001 0.55936 0.0
C652 C 0.38494 0.87153 0.54532 0.0
C653 C 0.37603 0.84646 0.55682 0.0
C654 C 0.38147 0.81176 0.56929 0.0
C655 C 0.39553 0.80359 0.57053 0.0
H656 H 0.65549 0.67806 0.30114 0.0
H657 H 0.65806 0.55182 0.33933 0.0
H658 H 0.63091 0.66268 0.29905 0.0
H659 H 0.63387 0.53344 0.33653 0.0
H660 H 0.58871 0.55883 0.34304 0.0
H661 H 0.61319 0.57071 0.34361 0.0
H662 H 0.61305 0.60503 0.29056 0.0
H663 H 0.58823 0.59655 0.29033 0.0
C664 C 0.65078 0.64662 0.30893 0.0
C665 C 0.65857 0.6168 0.32058 0.0
C666 C 0.63673 0.63733 0.30765 0.0
C667 C 0.63028 0.59706 0.31773 0.0
C668 C 0.6383 0.56598 0.32892 0.0
C669 C 0.65222 0.57628 0.33049 0.0
C670 C 0.59391 0.56829 0.33145 0.0
C671 C 0.58657 0.57661 0.31663 0.0
C672 C 0.60802 0.57489 0.33174 0.0
C673 C 0.61523 0.58866 0.31711 0.0
C674 C 0.60787 0.59541 0.30214 0.0
C675 C 0.59366 0.58998 0.30194 0.0
H676 H 0.65202 0.52056 0.91759 0.0
H677 H 0.6612 0.66023 0.94968 0.0
H678 H 0.62773 0.53923 0.92074 0.0
H679 H 0.63687 0.67858 0.95288 0.0
H680 H 0.59401 0.73359 0.93311 0.0
H681 H 0.61837 0.71256 0.93394 0.0
H682 H 0.60922 0.53882 0.94191 0.0
H683 H 0.58494 0.55952 0.94097 0.0
C684 C 0.64886 0.55481 0.92547 0.0
C685 C 0.65854 0.58902 0.93333 0.0
C686 C 0.63494 0.56536 0.92734 0.0
C687 C 0.63041 0.61052 0.93701 0.0
C688 C 0.64007 0.64387 0.94521 0.0
C689 C 0.654 0.63308 0.94345 0.0
C690 C 0.5972 0.69102 0.93521 0.0
C691 C 0.58753 0.64823 0.93686 0.0
C692 C 0.61114 0.67902 0.93577 0.0
C693 C 0.61568 0.62398 0.9379 0.0
C694 C 0.60602 0.5815 0.94005 0.0
C695 C 0.5921 0.59349 0.93959 0.0
H696 H 0.34557 0.28882 0.66465 0.0
H697 H 0.338 0.42285 0.6994 0.0
H698 H 0.37003 0.30429 0.66731 0.0
H699 H 0.36255 0.43813 0.70208 0.0
H700 H 0.40586 0.48918 0.68184 0.0
H701 H 0.38129 0.47264 0.68311 0.0
H702 H 0.38856 0.2964 0.68854 0.0
H703 H 0.41303 0.31258 0.6872 0.0
C704 C 0.34913 0.32129 0.67296 0.0
C705 C 0.33986 0.35466 0.68178 0.0
C706 C 0.36314 0.32994 0.67455 0.0
C707 C 0.36818 0.37242 0.68491 0.0
C708 C 0.35893 0.40537 0.69392 0.0
C709 C 0.3449 0.39637 0.69245 0.0
C710 C 0.40222 0.447 0.6835 0.0
C711 C 0.4114 0.40219 0.68426 0.0
C712 C 0.38816 0.43758 0.6843 0.0
C713 C 0.38304 0.38317 0.68578 0.0
C714 C 0.39223 0.33867 0.68716 0.0
C715 C 0.40625 0.34806 0.68647 0.0
H716 H 0.34361 0.47525 0.06849 0.0
H717 H 0.33406 0.32565 0.04092 0.0
H718 H 0.36787 0.45666 0.06491 0.0
H719 H 0.35836 0.30719 0.03736 0.0
H720 H 0.40104 0.25976 0.06086 0.0
H721 H 0.37675 0.28005 0.05791 0.0
H722 H 0.38632 0.44857 0.04336 0.0
H723 H 0.41054 0.42862 0.04631 0.0
C724 C 0.34668 0.43891 0.06144 0.0
C725 C 0.33692 0.40178 0.05509 0.0
C726 C 0.36057 0.42839 0.05932 0.0
C727 C 0.36498 0.38029 0.05093 0.0
C728 C 0.35523 0.34429 0.04401 0.0
C729 C 0.34133 0.35511 0.04597 0.0
C730 C 0.39797 0.30086 0.05677 0.0
C731 C 0.40772 0.34268 0.054 0.0
C732 C 0.38407 0.31239 0.05501 0.0
C733 C 0.37967 0.36604 0.05054 0.0
C734 C 0.38943 0.40707 0.04702 0.0
C735 C 0.4033 0.39547 0.04865 0.0
H736 H 0.99271 0.15963 0.28286 0.0
H737 H 0.03179 0.17315 0.25829 0.0
H738 H 0.98184 0.20508 0.25915 0.0
H739 H 0.02102 0.22033 0.23487 0.0
H740 H 0.99486 0.25523 0.18874 0.0
H741 H 0.00606 0.20769 0.21177 0.0
H742 H 0.98038 0.2955 0.24681 0.0
H743 H 0.96883 0.3416 0.2237 0.0
C744 C -0.00103 0.17217 0.27237 0.0
C745 C 0.0131 0.16286 0.27246 0.0
C746 C 0.99277 0.19874 0.25886 0.0
C747 C 0.00058 0.217 0.24519 0.0
C748 C 0.01467 0.20639 0.24511 0.0
C749 C 0.02086 0.1794 0.25857 0.0
C750 C 0.99168 0.2648 0.20136 0.0
C751 C 0.98092 0.30203 0.2044 0.0
C752 C -0.00187 0.23758 0.21458 0.0
C753 C 0.99405 0.24737 0.23115 0.0
C754 C 0.98357 0.28604 0.23419 0.0
C755 C 0.97704 0.3129 0.22095 0.0
H756 H 0.21217 0.08556 0.26081 0.0
H757 H 0.24978 0.07352 0.28873 0.0
H758 H 0.22304 0.04052 0.23707 0.0
H759 H 0.26077 0.02996 0.26481 0.0
H760 H 0.27141 0.89544 0.22736 0.0
H761 H 0.26003 0.94197 0.25048 0.0
H762 H 0.23996 0.05236 0.21567 0.0
H763 H 0.25103 0.00478 0.19252 0.0
C764 C 0.22283 0.07411 0.26179 0.0
C765 C 0.2301 0.08281 0.27669 0.0
C766 C 0.22907 0.04839 0.24816 0.0
C767 C 0.24274 0.0311 0.2491 0.0
C768 C 0.25013 0.04165 0.26381 0.0
C769 C 0.24387 0.06708 0.27747 0.0
C770 C 0.26449 0.92934 0.22463 0.0
C771 C 0.26214 0.94647 0.20811 0.0
C772 C 0.25806 0.95637 0.23789 0.0
C773 C 0.24921 0.00132 0.23494 0.0
C774 C 0.24664 0.01762 0.21838 0.0
C775 C 0.25301 0.99039 0.2051 0.0
H776 H -0.0016 0.0289 0.94243 0.0
H777 H 0.02128 0.12365 0.97874 0.0
H778 H 0.98751 0.97715 0.96479 0.0
H779 H 0.00998 0.07319 0.00123 0.0
H780 H -0.00073 0.93081 0.03626 0.0
H781 H 0.0099 0.98268 0.01359 0.0
H782 H 0.97156 0.98362 0.98691 0.0
H783 H 0.96112 0.93006 0.00925 0.0
C784 C 0.00094 0.03937 0.95521 0.0
C785 C 0.01074 0.08027 0.95881 0.0
C786 C 0.99465 0.00975 0.96806 0.0
C787 C -0.00208 0.02071 0.98483 0.0
C788 C 0.00743 0.06287 0.98844 0.0
C789 C 0.01381 0.09219 0.97556 0.0
C790 C 0.99316 0.94171 0.02548 0.0
C791 C 0.97937 0.92623 0.02453 0.0
C792 C -0.00079 0.97193 0.01255 0.0
C793 C 0.99156 0.98775 -0.00154 0.0
C794 C 0.97781 0.97159 -0.00254 0.0
C795 C 0.9718 0.94095 0.0103 0.0
H796 H 0.24678 0.14754 0.95883 0.0
H797 H 0.20948 0.15487 0.98746 0.0
H798 H 0.25885 0.19471 0.9813 0.0
H799 H 0.22147 0.20349 0.00975 0.0
H800 H 0.25082 0.24424 0.0527 0.0
H801 H 0.23853 0.19329 0.03114 0.0
H802 H 0.25979 0.28679 0.99311 0.0
H803 H 0.27237 0.33661 0.01464 0.0
C804 C 0.24117 0.15901 0.96995 0.0
C805 C 0.22717 0.14768 0.97134 0.0
C806 C 0.24806 0.18651 0.98277 0.0
C807 C 0.24109 0.20355 -0.00278 0.0
C808 C 0.22717 0.19061 -0.00117 0.0
C809 C 0.22029 0.16282 0.98604 0.0
C810 C 0.2528 0.25424 0.03973 0.0
C811 C 0.2626 0.29432 0.03537 0.0
C812 C 0.24573 0.22508 0.02738 0.0
C813 C 0.24827 0.23559 0.0104 0.0
C814 C 0.25781 0.27683 0.00607 0.0
C815 C 0.26492 0.30576 0.01841 0.0
H816 H 0.99209 0.77972 0.69567 0.0
H817 H 0.96978 0.87703 0.73188 0.0
H818 H 0.00419 0.7329 0.71807 0.0
H819 H 0.98229 0.83144 0.75438 0.0
H820 H 0.99563 0.6964 0.79065 0.0
H821 H 0.98364 0.74255 0.76788 0.0
H822 H 0.02093 0.74581 0.73912 0.0
H823 H 0.03276 0.69798 0.76162 0.0
C824 C 0.98992 0.79179 0.70842 0.0
C825 C 0.97995 0.83201 0.712 0.0
C826 C -0.0031 0.765 0.72128 0.0
C827 C 0.99417 0.77815 0.73804 0.0
C828 C 0.98445 0.81953 0.74161 0.0
C829 C 0.97737 0.84605 0.72872 0.0
C830 C 0.00122 0.70653 0.7794 0.0
C831 C 0.01513 0.69348 0.77793 0.0
C832 C 0.99439 0.73349 0.76641 0.0
C833 C 0.00135 0.74837 0.75172 0.0
C834 C 0.01521 0.73444 0.75017 0.0
C835 C 0.02201 0.70707 0.76309 0.0
H836 H 0.74843 0.06714 0.79064 0.0
H837 H 0.71053 0.0669 0.76309 0.0
H838 H 0.75962 0.01947 0.76757 0.0
H839 H 0.72156 0.01748 0.74032 0.0
H840 H 0.74901 0.97859 0.69592 0.0
H841 H 0.73771 0.02757 0.71852 0.0
H842 H 0.76029 0.93009 0.7545 0.0
H843 H 0.77201 0.88241 0.73179 0.0
C844 C 0.7425 0.05699 0.77965 0.0
C845 C 0.72861 0.07081 0.77868 0.0
C846 C 0.74887 0.02915 0.76649 0.0
C847 C 0.74146 0.01411 0.75214 0.0
C848 C 0.72762 0.02893 0.75108 0.0
C849 C 0.72128 0.05721 0.76417 0.0
C850 C 0.7515 0.96724 0.70865 0.0
C851 C 0.76144 0.92671 0.71207 0.0
C852 C 0.74498 0.99527 0.72163 0.0
C853 C 0.74814 0.98306 0.73835 0.0
C854 C 0.75781 0.94135 0.74176 0.0
C855 C 0.76444 0.91361 0.72876 0.0
H856 H 0.74421 0.73466 0.94725 0.0
H857 H 0.7213 0.63099 0.98126 0.0
H858 H 0.75498 0.78094 0.97075 0.0
H859 H 0.73252 0.67583 0.00486 0.0
H860 H 0.74339 0.80863 0.04313 0.0
H861 H 0.73271 0.76228 0.01942 0.0
H862 H 0.7709 0.76926 0.99253 0.0
H863 H 0.78136 0.81748 0.01591 0.0
C864 C 0.74165 0.72105 0.95976 0.0
C865 C 0.73188 0.67924 0.9624 0.0
C866 C 0.74786 0.74753 0.97326 0.0
C867 C 0.74459 0.73235 0.98973 0.0
C868 C 0.73508 0.68936 0.99235 0.0
C869 C 0.72875 0.66327 0.97883 0.0
C870 C 0.74945 0.80061 0.03209 0.0
C871 C 0.76319 0.81688 0.03137 0.0
C872 C 0.74338 0.77356 0.01856 0.0
C873 C 0.75096 0.7617 0.00408 0.0
C874 C 0.76469 0.77841 0.00336 0.0
C875 C 0.7707 0.80596 0.0168 0.0
H876 H 0.24644 0.49295 0.80333 0.0
H877 H 0.22269 0.59221 0.76898 0.0
H878 H 0.25774 0.44794 0.77995 0.0
H879 H 0.23437 0.54855 0.74555 0.0
H880 H 0.24646 0.41848 0.70744 0.0
H881 H 0.23527 0.46096 0.73141 0.0
H882 H 0.27364 0.46275 0.75798 0.0
H883 H 0.2847 0.41855 0.73427 0.0
C884 C 0.24378 0.50581 0.79078 0.0
C885 C 0.23363 0.54603 0.788 0.0
C886 C 0.2503 0.48006 0.77736 0.0
C887 C 0.2469 0.4943 0.76085 0.0
C888 C 0.23702 0.53571 0.7581 0.0
C889 C 0.23042 0.56115 0.77153 0.0
C890 C 0.25247 0.42742 0.71848 0.0
C891 C 0.26646 0.41515 0.71896 0.0
C892 C 0.24608 0.45228 0.73215 0.0
C893 C 0.25358 0.46584 0.74657 0.0
C894 C 0.26752 0.45238 0.74716 0.0
C895 C 0.27388 0.4271 0.73354 0.0
H896 H -0.00153 0.51775 0.445 0.0
H897 H 0.02339 0.61622 0.47829 0.0
H898 H 0.98731 0.47501 0.46877 0.0
H899 H 0.01177 0.57494 0.50222 0.0
H900 H -0.00057 0.44501 0.54086 0.0
H901 H 0.01045 0.48876 0.51695 0.0
H902 H 0.97188 0.49098 0.49077 0.0
H903 H 0.96105 0.44529 0.51434 0.0
C904 C 0.00141 0.53104 0.45742 0.0
C905 C 0.01185 0.57029 0.45977 0.0
C906 C 0.99496 0.50661 0.47108 0.0
C907 C -0.00134 0.5213 0.48745 0.0
C908 C 0.00884 0.56184 0.48979 0.0
C909 C 0.01541 0.58592 0.47609 0.0
C910 C 0.99335 0.45444 0.52993 0.0
C911 C 0.97939 0.44148 0.52946 0.0
C912 C -0.00037 0.48005 0.51628 0.0
C913 C 0.99205 0.49375 0.50195 0.0
C914 C 0.97809 0.48034 0.50148 0.0
C915 C 0.97186 0.4542 0.51503 0.0
H916 H 0.21861 0.63059 0.48231 0.0
H917 H 0.24271 0.73469 0.44969 0.0
H918 H 0.22973 0.67237 0.50653 0.0
H919 H 0.25334 0.77794 0.47374 0.0
H920 H 0.2792 0.80955 0.51947 0.0
H921 H 0.26884 0.76338 0.49567 0.0
H922 H 0.23032 0.75726 0.52184 0.0
H923 H 0.2409 0.80146 0.54599 0.0
C924 C 0.22629 0.66227 0.48032 0.0
C925 C 0.22979 0.67925 0.46409 0.0
C926 C 0.23257 0.68663 0.49419 0.0
C927 C 0.24238 0.72883 0.49212 0.0
C928 C 0.246 0.74503 0.47585 0.0
C929 C 0.23984 0.7203 0.46202 0.0
C930 C 0.2685 0.79867 0.52012 0.0
C931 C 0.26086 0.80925 0.5346 0.0
C932 C 0.26253 0.77227 0.50643 0.0
C933 C 0.24873 0.75646 0.5068 0.0
C934 C 0.24104 0.76788 0.52122 0.0
C935 C 0.24706 0.79373 0.53501 0.0
H936 H 0.74254 0.42929 0.20301 0.0
H937 H 0.78097 0.43808 0.22927 0.0
H938 H 0.73136 0.47672 0.22618 0.0
H939 H 0.77001 0.48749 0.25201 0.0
H940 H 0.74405 0.52654 0.29719 0.0
H941 H 0.75487 0.47686 0.27442 0.0
H942 H 0.72969 0.5657 0.23898 0.0
H943 H 0.71839 0.61373 0.26198 0.0
C944 C 0.74859 0.44129 0.21374 0.0
C945 C 0.76261 0.42979 0.21435 0.0
C946 C 0.74222 0.469 0.22695 0.0
C947 C 0.74979 0.48633 0.24094 0.0
C948 C 0.7638 0.47408 0.24158 0.0
C949 C 0.77011 0.44581 0.22849 0.0
C950 C 0.74089 0.53587 0.28453 0.0
C951 C 0.73038 0.57413 0.28137 0.0
C952 C 0.74713 0.50742 0.27144 0.0
C953 C 0.74316 0.51712 0.25483 0.0
C954 C 0.73283 0.55639 0.25164 0.0
C955 C 0.72645 0.58437 0.26479 0.0
H956 H 0.77984 0.32784 0.5122 0.0
H957 H 0.74179 0.33172 0.53938 0.0
H958 H 0.76818 0.28739 0.48825 0.0
H959 H 0.73006 0.29271 0.51527 0.0
H960 H 0.71719 0.15946 0.47822 0.0
H961 H 0.72909 0.20371 0.50135 0.0
H962 H 0.75172 0.3052 0.46648 0.0
H963 H 0.74009 0.25986 0.44331 0.0
C964 C 0.76894 0.32093 0.51297 0.0
C965 C 0.76175 0.33256 0.52773 0.0
C966 C 0.76225 0.29786 0.49922 0.0
C967 C 0.74822 0.28623 0.49993 0.0
C968 C 0.74094 0.30001 0.51447 0.0
C969 C 0.74764 0.32281 0.52823 0.0
C970 C 0.72476 0.19098 0.47548 0.0
C971 C 0.72769 0.20618 0.45893 0.0
C972 C 0.73149 0.21671 0.48875 0.0
C973 C 0.74126 0.25839 0.48576 0.0
C974 C 0.74434 0.27295 0.4692 0.0
C975 C 0.73764 0.24703 0.45592 0.0
H976 H 0.47297 0.35338 0.72593 0.0
H977 H 0.49582 0.24561 0.69306 0.0
H978 H 0.48374 0.30963 0.75003 0.0
H979 H 0.50616 0.2005 0.71708 0.0
H980 H 0.53203 0.16778 0.76316 0.0
H981 H 0.52192 0.21349 0.7391 0.0
H982 H 0.48341 0.22402 0.76515 0.0
H983 H 0.49372 0.18012 0.78952 0.0
C984 C 0.48031 0.32043 0.72386 0.0
C985 C 0.48356 0.30299 0.7076 0.0
C986 C 0.48638 0.29496 0.73767 0.0
C987 C 0.49574 0.25117 0.73552 0.0
C988 C 0.49914 0.23451 0.71922 0.0
C989 C 0.49318 0.26032 0.70542 0.0
C990 C 0.52138 0.17949 0.76372 0.0
C991 C 0.51367 0.1704 0.77826 0.0
C992 C 0.51556 0.2056 0.74989 0.0
C993 C 0.50186 0.22271 0.75019 0.0
C994 C 0.49407 0.21242 0.76461 0.0
C995 C 0.49993 0.18676 0.77852 0.0
H996 H 0.49707 0.91506 0.53542 0.0
H997 H 0.45974 0.90901 0.50677 0.0
H998 H 0.50854 0.96027 0.51211 0.0
H999 H 0.47108 0.95575 0.48368 0.0
H1000 H 0.49942 0.99387 0.43987 0.0
H1001 H 0.48806 0.94463 0.46247 0.0
H1002 H 0.50855 0.04936 0.49846 0.0
H1003 H 0.52026 0.09748 0.47586 0.0
C1004 C 0.49132 0.9232 0.52413 0.0
C1005 C 0.47749 0.90859 0.52296 0.0
C1006 C 0.49786 0.94958 0.51082 0.0
C1007 C 0.49069 0.96222 0.4961 0.0
C1008 C 0.47694 0.94621 0.49478 0.0
C1009 C 0.47043 0.91952 0.50805 0.0
C1010 C 0.50144 0.00665 0.4526 0.0
C1011 C 0.51077 0.0495 0.45608 0.0
C1012 C 0.49489 0.97848 0.46556 0.0
C1013 C 0.49746 0.99277 0.48229 0.0
C1014 C 0.50656 0.03653 0.48573 0.0
C1015 C 0.51317 0.06448 0.47277 0.0
H1016 H 0.49119 0.74947 0.19424 0.0
H1017 H 0.46967 0.85046 0.23027 0.0
H1018 H 0.50332 0.70305 0.2168 0.0
H1019 H 0.48211 0.80517 0.25282 0.0
H1020 H 0.49519 0.67295 0.2898 0.0
H1021 H 0.48313 0.71632 0.26661 0.0
H1022 H 0.52039 0.71786 0.23781 0.0
H1023 H 0.53235 0.67299 0.2608 0.0
C1024 C 0.48917 0.76228 0.20697 0.0
C1025 C 0.47943 0.80354 0.21047 0.0
C1026 C 0.49616 0.73575 0.21991 0.0
C1027 C 0.49362 0.75012 0.23663 0.0
C1028 C 0.4841 0.79232 0.24009 0.0
C1029 C 0.47706 0.81864 0.22716 0.0
C1030 C 0.50078 0.68211 0.27846 0.0
C1031 C 0.51472 0.66965 0.27715 0.0
C1032 C 0.49389 0.70742 0.26523 0.0
C1033 C 0.50082 0.72111 0.25042 0.0
C1034 C 0.51471 0.70744 0.24898 0.0
C1035 C 0.52158 0.68184 0.26218 0.0
H1036 H 0.49274 0.50063 0.04921 0.0
H1037 H 0.47127 0.39104 0.01545 0.0
H1038 H 0.50423 0.54391 0.02565 0.0
H1039 H 0.48312 0.43309 0.99188 0.0
H1040 H 0.49463 0.56081 0.95255 0.0
H1041 H 0.48334 0.51883 0.97654 0.0
H1042 H 0.52095 0.52819 0.00456 0.0
H1043 H 0.53209 0.5718 0.98081 0.0
C1044 C 0.49063 0.48517 0.03677 0.0
C1045 C 0.48107 0.44252 0.03419 0.0
C1046 C 0.49725 0.50992 0.02325 0.0
C1047 C 0.49453 0.49226 0.00685 0.0
C1048 C 0.48524 0.44849 0.00432 0.0
C1049 C 0.47854 0.42402 0.01784 0.0
C1050 C 0.50045 0.5543 0.96388 0.0
C1051 C 0.51425 0.56963 0.96478 0.0
C1052 C 0.49402 0.52977 0.97759 0.0
C1053 C 0.50127 0.51969 0.99244 0.0
C1054 C 0.51502 0.53589 0.99339 0.0
C1055 C 0.52142 0.56077 0.97974 0.0
H1056 H 0.0382 0.45125 0.41201 0.0
H1057 H 0.03286 0.53328 0.36441 0.0
H1058 H 0.0385 0.36138 0.39806 0.0
H1059 H 0.03344 0.44319 0.35041 0.0
H1060 H 0.02428 0.26891 0.33171 0.0
H1061 H 0.02105 0.35574 0.34692 0.0
H1062 H 0.05423 0.312 0.37991 0.0
H1063 H 0.05729 0.22477 0.36495 0.0
C1064 C 0.03706 0.45012 0.39856 0.0
C1065 C 0.03561 0.49943 0.38929 0.0
C1066 C 0.03729 0.3986 0.39057 0.0
C1067 C 0.03611 0.39521 0.37313 0.0
C1068 C 0.03425 0.4444 0.36389 0.0
C1069 C 0.03399 0.49604 0.3719 0.0
C1070 C 0.03081 0.27761 0.3423 0.0
C1071 C 0.04109 0.24008 0.34709 0.0
C1072 C 0.029 0.32749 0.35094 0.0
C1073 C 0.03742 0.34084 0.36455 0.0
C1074 C 0.04747 0.30263 0.36959 0.0
C1075 C 0.04927 0.25275 0.36096 0.0
H1076 H 0.20376 0.79395 0.41504 0.0
H1077 H 0.20834 0.71105 0.36747 0.0
H1078 H 0.20319 0.88355 0.40093 0.0
H1079 H 0.20749 0.80087 0.35332 0.0
H1080 H 0.21694 0.97506 0.33438 0.0
H1081 H 0.21997 0.88782 0.34944 0.0
H1082 H 0.18736 0.93342 0.38302 0.0
H1083 H 0.1845 0.02109 0.3682 0.0
C1084 C 0.20467 0.79483 0.40156 0.0
C1085 C 0.20601 0.74534 0.39235 0.0
C1086 C 0.20427 0.8462 0.39348 0.0
C1087 C 0.20519 0.84929 0.37601 0.0
C1088 C 0.20689 0.79991 0.36682 0.0
C1089 C 0.20731 0.74843 0.37492 0.0
C1090 C 0.21048 0.96665 0.34506 0.0
C1091 C 0.20044 0.00492 0.35007 0.0
C1092 C 0.21217 0.91651 0.35361 0.0
C1093 C 0.20388 0.90361 0.36737 0.0
C1094 C 0.19403 0.94241 0.37259 0.0
C1095 C 0.19234 0.99256 0.36404 0.0
H1096 H 0.03908 0.98211 0.91123 0.0
H1097 H 0.05019 0.06552 0.86537 0.0
H1098 H 0.04005 0.8927 0.89697 0.0
H1099 H 0.05115 0.97568 0.85112 0.0
H1100 H 0.03662 0.80937 0.82858 0.0
H1101 H 0.03492 0.89863 0.84286 0.0
H1102 H 0.05846 0.83326 0.88399 0.0
H1103 H 0.0602 0.74367 0.86973 0.0
C1104 C 0.04168 0.98143 0.89809 0.0
C1105 C 0.04458 0.03092 0.88942 0.0
C1106 C 0.04231 0.93016 0.88997 0.0
C1107 C 0.04572 0.92733 0.87299 0.0
C1108 C 0.0484 0.97679 0.86422 0.0
C1109 C 0.0479 0.02814 0.87238 0.0
C1110 C 0.0414 0.81389 0.8407 0.0
C1111 C 0.04856 0.76946 0.84803 0.0
C1112 C 0.04049 0.86512 0.8488 0.0
C1113 C 0.04659 0.87282 0.86448 0.0
C1114 C 0.05358 0.82824 0.87195 0.0
C1115 C 0.05462 0.77709 0.86376 0.0
H1116 H 0.18655 0.51651 0.87845 0.0
H1117 H 0.20989 0.44291 0.83835 0.0
H1118 H 0.18674 0.42744 0.89321 0.0
H1119 H 0.21001 0.35423 0.8531 0.0
H1120 H 0.19064 0.19354 0.87502 0.0
H1121 H 0.19187 0.28328 0.86078 0.0
H1122 H 0.20393 0.36212 0.90692 0.0
H1123 H 0.20276 0.27254 0.92119 0.0
C1124 C 0.19177 0.48149 0.87284 0.0
C1125 C 0.19816 0.48668 0.85723 0.0
C1126 C 0.19192 0.43065 0.88131 0.0
C1127 C 0.19834 0.38402 0.87423 0.0
C1128 C 0.20487 0.38941 0.85873 0.0
C1129 C 0.20485 0.44029 0.85036 0.0
C1130 C 0.19362 0.22995 0.8821 0.0
C1131 C 0.19659 0.22599 0.89922 0.0
C1132 C 0.19437 0.28121 0.87395 0.0
C1133 C 0.19796 0.32953 0.88279 0.0
C1134 C 0.20102 0.32555 0.89986 0.0
C1135 C 0.20042 0.27421 0.90798 0.0
H1136 H 0.9519 0.80998 0.61819 0.0
H1137 H 0.94901 0.72632 0.66586 0.0
H1138 H 0.95124 0.72003 0.60403 0.0
H1139 H 0.94857 0.63683 0.65174 0.0
H1140 H 0.93132 0.4952 0.61947 0.0
H1141 H 0.93289 0.58426 0.63389 0.0
H1142 H 0.96508 0.63532 0.60042 0.0
H1143 H 0.96339 0.54667 0.58582 0.0
C1144 C 0.95121 0.77248 0.62564 0.0
C1145 C 0.95045 0.77533 0.64313 0.0
C1146 C 0.9509 0.72098 0.61755 0.0
C1147 C 0.94981 0.67142 0.62679 0.0
C1148 C 0.94921 0.67433 0.64427 0.0
C1149 C 0.94954 0.72567 0.65235 0.0
C1150 C 0.93878 0.52528 0.61524 0.0
C1151 C 0.9472 0.51393 0.60148 0.0
C1152 C 0.93972 0.57621 0.62354 0.0
C1153 C 0.94908 0.61683 0.61824 0.0
C1154 C 0.95764 0.60514 0.60463 0.0
C1155 C 0.95672 0.55419 0.59636 0.0
H1156 H 0.8042 0.00796 0.65563 0.0
H1157 H 0.76723 0.96503 0.62923 0.0
H1158 H 0.80503 0.09648 0.64107 0.0
H1159 H 0.76778 0.05487 0.61501 0.0
H1160 H 0.78197 0.19513 0.58001 0.0
H1161 H 0.78007 0.10633 0.59441 0.0
H1162 H 0.79378 0.18398 0.64012 0.0
H1163 H 0.79617 0.27234 0.62553 0.0
C1164 C 0.79619 0.01761 0.64676 0.0
C1165 C 0.78563 0.97957 0.64359 0.0
C1166 C 0.79661 0.06862 0.63851 0.0
C1167 C 0.78639 0.08313 0.627 0.0
C1168 C 0.77588 0.04481 0.62369 0.0
C1169 C 0.77554 0.99339 0.63186 0.0
C1170 C 0.78451 0.1933 0.59316 0.0
C1171 C 0.78933 0.24063 0.60162 0.0
C1172 C 0.78335 0.14241 0.60144 0.0
C1173 C 0.78687 0.13785 0.6184 0.0
C1174 C 0.79127 0.18572 0.62697 0.0
C1175 C 0.79256 0.23648 0.61864 0.0
H1176 H 0.95453 0.24032 0.13126 0.0
H1177 H 0.94611 0.13884 0.17463 0.0
H1178 H 0.95485 0.1574 0.11388 0.0
H1179 H 0.94675 0.05558 0.15724 0.0
H1180 H 0.93122 0.93442 0.11643 0.0
H1181 H 0.93286 0.01309 0.1355 0.0
H1182 H 0.96795 0.0739 0.10844 0.0
H1183 H 0.96612 0.99602 0.08913 0.0
C1184 C 0.95287 0.20025 0.13711 0.0
C1185 C 0.95022 0.19614 0.1543 0.0
C1186 C 0.95315 0.15267 0.12717 0.0
C1187 C 0.95084 0.09993 0.13419 0.0
C1188 C 0.94841 0.09572 0.15144 0.0
C1189 C 0.9481 0.14338 0.1614 0.0
C1190 C 0.93935 0.96432 0.11463 0.0
C1191 C 0.94845 0.95933 0.10119 0.0
C1192 C 0.94034 0.00924 0.12562 0.0
C1193 C 0.95048 0.0499 0.1234 0.0
C1194 C 0.95988 0.04377 0.11029 0.0
C1195 C 0.95886 -0.001 0.09928 0.0
H1196 H 0.81311 0.57994 0.17186 0.0
H1197 H 0.77781 0.51202 0.14682 0.0
H1198 H 0.81166 0.66317 0.15464 0.0
H1199 H 0.77597 0.59622 0.13007 0.0
H1200 H 0.78741 0.72009 0.08927 0.0
H1201 H 0.78738 0.63995 0.10769 0.0
H1202 H 0.79901 0.74535 0.14907 0.0
H1203 H 0.7996 0.82543 0.13037 0.0
C1204 C 0.80494 0.58313 0.16281 0.0
C1205 C 0.79564 0.53935 0.16059 0.0
C1206 C 0.80404 0.63104 0.15301 0.0
C1207 C 0.79371 0.63644 0.14092 0.0
C1208 C 0.78421 0.59305 0.13903 0.0
C1209 C 0.78522 0.54488 0.14868 0.0
C1210 C 0.78989 0.72627 0.10232 0.0
C1211 C 0.79358 0.77902 0.10836 0.0
C1212 C 0.78978 0.6803 0.11293 0.0
C1213 C 0.7932 0.68608 0.12989 0.0
C1214 C 0.79655 0.73922 0.13602 0.0
C1215 C 0.79681 0.78518 0.12534 0.0
H1216 H 0.52861 0.26744 0.84037 0.0
H1217 H 0.56954 0.23936 0.85861 0.0
H1218 H 0.52803 0.35682 0.85493 0.0
H1219 H 0.5689 0.32843 0.8731 0.0
H1220 H 0.5686 0.51635 0.88035 0.0
H1221 H 0.56812 0.42957 0.8646 0.0
H1222 H 0.52839 0.39191 0.88488 0.0
H1223 H 0.52881 0.47884 0.90067 0.0
C1224 C 0.53745 0.28024 0.84752 0.0
C1225 C 0.54913 0.24644 0.84833 0.0
C1226 C 0.53709 0.33125 0.85587 0.0
C1227 C 0.54846 0.34959 0.86501 0.0
C1228 C 0.56007 0.31559 0.86593 0.0
C1229 C 0.56039 0.26442 0.85774 0.0
C1230 C 0.5597 0.48988 0.88134 0.0
C1231 C 0.54878 0.50425 0.89183 0.0
C1232 C 0.55947 0.44007 0.87241 0.0
C1233 C 0.54827 0.40393 0.87366 0.0
C1234 C 0.53712 0.41918 0.88366 0.0
C1235 C 0.5374 0.46879 0.89273 0.0
H1236 H 0.68629 0.71214 0.87132 0.0
H1237 H 0.70973 0.78141 0.91205 0.0
H1238 H 0.68722 0.8017 0.85691 0.0
H1239 H 0.71065 0.87055 0.89763 0.0
H1240 H 0.69329 0.03475 0.87582 0.0
H1241 H 0.69365 0.94462 0.88989 0.0
H1242 H 0.70468 0.86473 0.84354 0.0
H1243 H 0.70431 0.9546 0.82943 0.0
C1244 C 0.69169 0.74631 0.87715 0.0
C1245 C 0.69789 0.73974 0.89283 0.0
C1246 C 0.69227 0.79744 0.86888 0.0
C1247 C 0.69897 0.84301 0.87621 0.0
C1248 C 0.7053 0.83626 0.89179 0.0
C1249 C 0.70482 0.7851 0.89999 0.0
C1250 C 0.69586 -0.00198 0.86866 0.0
C1251 C 0.69875 0.00179 0.85152 0.0
C1252 C 0.69612 0.9465 0.87672 0.0
C1253 C 0.69915 0.89777 0.86777 0.0
C1254 C 0.70217 0.90159 0.85068 0.0
C1255 C 0.70204 0.95311 0.84265 0.0
H1256 H 0.53217 0.78055 0.33445 0.0
H1257 H 0.5724 0.75373 0.35502 0.0
H1258 H 0.53106 0.8707 0.34844 0.0
H1259 H 0.5712 0.84334 0.3691 0.0
H1260 H 0.57033 0.02908 0.37856 0.0
H1261 H 0.57087 0.94374 0.36209 0.0
H1262 H 0.52966 0.90625 0.37745 0.0
H1263 H 0.52904 0.99176 0.39376 0.0
C1264 C 0.54075 0.7938 0.34198 0.0
C1265 C 0.55237 0.76001 0.34364 0.0
C1266 C 0.5401 0.84532 0.35001 0.0
C1267 C 0.55107 0.86413 0.35977 0.0
C1268 C 0.56267 0.83032 0.36143 0.0
C1269 C 0.56331 0.77877 0.35347 0.0
C1270 C 0.56133 0.00299 0.37827 0.0
C1271 C 0.54968 0.01698 0.38754 0.0
C1272 C 0.56168 0.95396 0.36893 0.0
C1273 C 0.55035 0.91816 0.36861 0.0
C1274 C 0.53851 0.93321 0.37738 0.0
C1275 C 0.53819 0.98206 0.38678 0.0
H1276 H 0.69999 0.28976 0.40432 0.0
H1277 H 0.69266 0.18191 0.36209 0.0
H1278 H 0.70123 0.36938 0.3858 0.0
H1279 H 0.69442 0.26173 0.34335 0.0
H1280 H 0.68256 0.42691 0.3181 0.0
H1281 H 0.68233 0.34381 0.33549 0.0
H1282 H 0.71511 0.41185 0.36529 0.0
H1283 H 0.71492 0.49584 0.34829 0.0
C1284 C 0.69878 0.28296 0.39103 0.0
C1285 C 0.6962 0.22954 0.38467 0.0
C1286 C 0.6996 0.32865 0.38038 0.0
C1287 C 0.69801 0.32201 0.36305 0.0
C1288 C 0.69553 0.26843 0.35665 0.0
C1289 C 0.69458 0.22265 0.36737 0.0
C1290 C 0.68977 0.4239 0.32831 0.0
C1291 C 0.6987 0.46797 0.33192 0.0
C1292 C 0.68969 0.37612 0.33822 0.0
C1293 C 0.69865 0.37121 0.35186 0.0
C1294 C 0.70787 0.41472 0.35511 0.0
C1295 C 0.70783 0.46274 0.34532 0.0
H1296 H 0.42856 0.57863 0.07245 0.0
H1297 H 0.46119 0.50746 0.10175 0.0
H1298 H 0.42866 0.66081 0.09021 0.0
H1299 H 0.46171 0.59056 0.11909 0.0
H1300 H 0.44878 0.71626 0.15814 0.0
H1301 H 0.44884 0.63552 0.13995 0.0
H1302 H 0.44122 0.7418 0.09739 0.0
H1303 H 0.44057 0.82261 0.1158 0.0
C1304 C 0.43584 0.58081 0.0826 0.0
C1305 C 0.44481 0.53651 0.08578 0.0
C1306 C 0.43597 0.62811 0.09272 0.0
C1307 C 0.44518 0.63239 0.10612 0.0
C1308 C 0.4543 0.58828 0.10909 0.0
C1309 C 0.45405 0.54072 0.0991 0.0
C1310 C 0.44713 0.72245 0.14489 0.0
C1311 C 0.44465 0.77579 0.13839 0.0
C1312 C 0.44726 0.67612 0.13443 0.0
C1313 C 0.4451 0.68205 0.11717 0.0
C1314 C 0.44272 0.73557 0.11065 0.0
C1315 C 0.44242 0.78194 0.12118 0.0
H1316 H 0.28085 0.00783 0.14629 0.0
H1317 H 0.31919 0.95345 0.12528 0.0
H1318 H 0.28062 0.08683 0.12731 0.0
H1319 H 0.31907 0.03334 0.10646 0.0
H1320 H 0.30675 0.15399 0.06444 0.0
H1321 H 0.30677 0.07212 0.08244 0.0
H1322 H 0.29332 0.17327 0.12387 0.0
H1323 H 0.29304 0.25484 0.10585 0.0
C1324 C 0.28923 0.0127 0.13761 0.0
C1325 C 0.30007 0.97451 0.13733 0.0
C1326 C 0.28913 0.05818 0.12681 0.0
C1327 C 0.29988 0.06656 0.1155 0.0
C1328 C 0.31059 0.02774 0.11496 0.0
C1329 C 0.31068 0.98212 0.12578 0.0
C1330 C 0.30381 0.15875 0.0774 0.0
C1331 C 0.29986 0.21084 0.08372 0.0
C1332 C 0.30389 0.1119 0.08771 0.0
C1333 C 0.3 0.11623 0.10454 0.0
C1334 C 0.29616 0.16844 0.11088 0.0
C1335 C 0.29608 0.21524 0.10058 0.0
H1336 H 0.43821 0.27831 0.61535 0.0
H1337 H 0.46044 0.20158 0.6559 0.0
H1338 H 0.4378 0.18921 0.60062 0.0
H1339 H 0.45995 0.11283 0.64119 0.0
H1340 H 0.43946 0.95489 0.61887 0.0
H1341 H 0.44111 0.04457 0.63309 0.0
H1342 H 0.45477 0.12142 0.58733 0.0
H1343 H 0.4532 0.03192 0.57308 0.0
C1344 C 0.44306 0.24259 0.62106 0.0
C1345 C 0.44932 0.24694 0.63679 0.0
C1346 C 0.44287 0.19173 0.61261 0.0
C1347 C 0.44878 0.14422 0.61984 0.0
C1348 C 0.45519 0.14873 0.63544 0.0
C1349 C 0.45553 0.19964 0.64379 0.0
C1350 C 0.44286 0.99086 0.61186 0.0
C1351 C 0.4462 0.98636 0.59487 0.0
C1352 C 0.44385 0.04207 0.62002 0.0
C1353 C 0.44804 0.0898 0.61128 0.0
C1354 C 0.4514 0.08531 0.59431 0.0
C1355 C 0.45058 0.03402 0.5862 0.0
H1356 H 0.28806 0.49189 0.64232 0.0
H1357 H 0.29387 0.59321 0.68634 0.0
H1358 H 0.2861 0.57551 0.62537 0.0
H1359 H 0.29159 0.677 0.6694 0.0
H1360 H 0.30638 0.8031 0.62938 0.0
H1361 H 0.30519 0.72422 0.64839 0.0
H1362 H 0.27183 0.65577 0.61971 0.0
H1363 H 0.27323 0.73405 0.60045 0.0
C1364 C 0.28876 0.53202 0.64841 0.0
C1365 C 0.29124 0.53594 0.66565 0.0
C1366 C 0.28753 0.57998 0.63872 0.0
C1367 C 0.28871 0.6329 0.64605 0.0
C1368 C 0.29082 0.63681 0.66336 0.0
C1369 C 0.29207 0.58881 0.67307 0.0
C1370 C 0.29869 0.77157 0.62724 0.0
C1371 C 0.29001 0.77448 0.61331 0.0
C1372 C 0.29795 0.72649 0.63819 0.0
C1373 C 0.28848 0.68352 0.63547 0.0
C1374 C 0.27939 0.68774 0.62196 0.0
C1375 C 0.28015 0.73273 0.61099 0.0
H1376 H 0.00415 0.76453 0.39631 0.0
H1377 H 0.04821 0.76898 0.39496 0.0
H1378 H 0.00335 0.84182 0.37645 0.0
H1379 H 0.04737 0.84609 0.37541 0.0
H1380 H 0.04211 0.94426 0.32812 0.0
H1381 H 0.04089 0.8632 0.34631 0.0
H1382 H 0.00908 0.94231 0.37504 0.0
H1383 H 0.01012 0.02323 0.35669 0.0
C1384 C 0.01364 0.78207 0.39185 0.0
C1385 C 0.02623 0.76052 0.39721 0.0
C1386 C 0.01318 0.82638 0.38051 0.0
C1387 C 0.0253 0.84969 0.37425 0.0
C1388 C 0.03786 0.82837 0.37974 0.0
C1389 C 0.03832 0.7844 0.39108 0.0
C1390 C 0.03474 0.94419 0.3382 0.0
C1391 C 0.02629 0.99042 0.34104 0.0
C1392 C 0.03411 0.89786 0.34868 0.0
C1393 C 0.02501 0.89666 0.36223 0.0
C1394 C 0.01615 0.94188 0.36466 0.0
C1395 C 0.0168 0.98834 0.35418 0.0
H1396 H 0.23891 0.48425 0.3988 0.0
H1397 H 0.19491 0.47415 0.39994 0.0
H1398 H 0.23954 0.40611 0.37919 0.0
H1399 H 0.19559 0.39645 0.38061 0.0
H1400 H 0.19994 0.30048 0.33273 0.0
H1401 H 0.20132 0.38128 0.35097 0.0
H1402 H 0.2342 0.30399 0.37834 0.0
H1403 H 0.23296 0.22309 0.35994 0.0
C1404 C 0.2294 0.46529 0.39495 0.0
C1405 C 0.21687 0.48555 0.40091 0.0
C1406 C 0.22977 0.42052 0.38376 0.0
C1407 C 0.2176 0.39557 0.37824 0.0
C1408 C 0.20512 0.41547 0.38438 0.0
C1409 C 0.20475 0.45979 0.39559 0.0
C1410 C 0.20757 0.30084 0.34251 0.0
C1411 C 0.21626 0.25511 0.34496 0.0
C1412 C 0.2083 0.34704 0.35303 0.0
C1413 C 0.21776 0.34867 0.3662 0.0
C1414 C 0.22685 0.304 0.36825 0.0
C1415 C 0.22608 0.25759 0.35775 0.0
H1416 H 0.02036 0.56488 0.86705 0.0
H1417 H 0.03672 0.46554 0.82679 0.0
H1418 H 0.01732 0.48095 0.88381 0.0
H1419 H 0.03364 0.38173 0.84358 0.0
H1420 H 0.01614 0.23748 0.87387 0.0
H1421 H 0.0153 0.32208 0.85695 0.0
H1422 H 0.03404 0.41434 0.89712 0.0
H1423 H 0.03493 0.33001 0.91402 0.0
C1424 C 0.02317 0.52513 0.8617 0.0
C1425 C 0.02886 0.5219 0.84562 0.0
C1426 C 0.02147 0.47715 0.87133 0.0
C1427 C 0.02528 0.42491 0.86501 0.0
C1428 C 0.0305 0.42141 0.84871 0.0
C1429 C 0.03234 0.46944 0.83914 0.0
C1430 C 0.01992 0.27596 0.87917 0.0
C1431 C 0.02566 0.27703 0.89525 0.0
C1432 C 0.0195 0.32426 0.86945 0.0
C1433 C 0.02464 0.37467 0.87571 0.0
C1434 C 0.0299 0.37616 0.89202 0.0
C1435 C 0.03047 0.3278 0.90166 0.0
H1436 H 0.2044 0.9235 0.92205 0.0
H1437 H 0.22387 0.0199 0.88323 0.0
H1438 H 0.20714 0.83947 0.90529 0.0
H1439 H 0.22654 0.93571 0.86647 0.0
H1440 H 0.2088 0.78774 0.8349 0.0
H1441 H 0.20966 0.87196 0.85188 0.0
H1442 H 0.22556 0.77693 0.89328 0.0
H1443 H 0.22476 0.69254 0.87631 0.0
C1444 C 0.20938 0.92668 0.91002 0.0
C1445 C 0.21387 0.97837 0.90394 0.0
C1446 C 0.21101 0.87851 0.90047 0.0
C1447 C 0.21702 0.88116 0.88457 0.0
C1448 C 0.22178 0.93261 0.87863 0.0
C1449 C 0.2203 0.9807 0.88827 0.0
C1450 C 0.21262 0.78488 0.84756 0.0
C1451 C 0.21665 0.73343 0.85428 0.0
C1452 C 0.21318 0.83316 0.85724 0.0
C1453 C 0.21764 0.83087 0.8739 0.0
C1454 C 0.22198 0.77972 0.88051 0.0
C1455 C 0.22158 0.73153 0.87076 0.0
H1456 H 0.98119 0.2992 0.61415 0.0
H1457 H 0.95133 0.21568 0.58334 0.0
H1458 H 0.98226 0.21781 0.63239 0.0
H1459 H 0.95253 0.13447 0.60145 0.0
H1460 H 0.94363 0.04034 0.64977 0.0
H1461 H 0.94481 0.11793 0.63041 0.0
H1462 H 0.98876 0.11656 0.63367 0.0
H1463 H 0.98761 0.0385 0.6533 0.0
C1464 C 0.975 0.26327 0.61113 0.0
C1465 C 0.96607 0.26416 0.59739 0.0
C1466 C 0.97566 0.21659 0.62155 0.0
C1467 C 0.96736 0.17008 0.61845 0.0
C1468 C 0.95888 0.17013 0.60431 0.0
C1469 C 0.95825 0.21658 0.59388 0.0
C1470 C 0.95357 0.0565 0.64643 0.0
C1471 C 0.96554 0.03315 0.65309 0.0
C1472 C 0.95424 0.10073 0.63521 0.0
C1473 C 0.96688 0.12296 0.6304 0.0
C1474 C 0.97887 0.1003 0.6372 0.0
C1475 C 0.97821 0.05558 0.6484 0.0
H1476 H 0.75934 0.45507 0.61302 0.0
H1477 H 0.79208 0.53474 0.5859 0.0
H1478 H 0.75825 0.53456 0.63197 0.0
H1479 H 0.79082 0.61418 0.60466 0.0
H1480 H 0.79758 0.70598 0.65343 0.0
H1481 H 0.79681 0.62835 0.6341 0.0
H1482 H 0.75281 0.63596 0.63365 0.0
H1483 H 0.75353 0.71395 0.6533 0.0
C1484 C 0.76619 0.48977 0.61097 0.0
C1485 C 0.77589 0.48834 0.59805 0.0
C1486 C 0.76551 0.53537 0.62179 0.0
C1487 C 0.77456 0.58028 0.61992 0.0
C1488 C 0.78389 0.57969 0.60661 0.0
C1489 C 0.78455 0.53427 0.5958 0.0
C1490 C 0.78771 0.69115 0.6493 0.0
C1491 C 0.77561 0.71639 0.65487 0.0
C1492 C 0.78728 0.64685 0.6381 0.0
C1493 C 0.77476 0.62652 0.63218 0.0
C1494 C 0.76262 0.65072 0.63803 0.0
C1495 C 0.76303 0.69539 0.64925 0.0
H1496 H 0.95785 0.53596 0.15606 0.0
H1497 H 0.96822 0.43398 0.11347 0.0
H1498 H 0.96047 0.61935 0.13897 0.0
H1499 H 0.97082 0.51749 0.09642 0.0
H1500 H 0.95375 0.67597 0.06928 0.0
H1501 H 0.95444 0.59034 0.08565 0.0
H1502 H 0.97855 0.67312 0.12331 0.0
H1503 H 0.97791 0.7588 0.10699 0.0
C1504 C 0.96079 0.53135 0.1431 0.0
C1505 C 0.96277 0.47837 0.1361 0.0
C1506 C 0.96236 0.5791 0.13335 0.0
C1507 C 0.96582 0.5748 0.11637 0.0
C1508 C 0.96804 0.52193 0.10944 0.0
C1509 C 0.9666 0.47419 0.11924 0.0
C1510 C 0.95935 0.67572 0.08095 0.0
C1511 C 0.96571 0.72423 0.08688 0.0
C1512 C 0.95978 0.62664 0.09028 0.0
C1513 C 0.96648 0.62527 0.10579 0.0
C1514 C 0.9732 0.67325 0.11147 0.0
C1515 C 0.97289 0.72216 0.10207 0.0
H1516 H 0.77438 0.30516 0.12029 0.0
H1517 H 0.78184 0.20315 0.16381 0.0
H1518 H 0.77165 0.22159 0.10336 0.0
H1519 H 0.77915 0.11963 0.1468 0.0
H1520 H 0.76325 0.98025 0.11359 0.0
H1521 H 0.76205 0.06601 0.12987 0.0
H1522 H 0.78792 0.14802 0.09385 0.0
H1523 H 0.78911 0.06255 0.07755 0.0
C1524 C 0.7753 0.26495 0.12629 0.0
C1525 C 0.77842 0.2608 0.14338 0.0
C1526 C 0.77379 0.21713 0.11656 0.0
C1527 C 0.77525 0.16416 0.12374 0.0
C1528 C 0.77785 0.15993 0.14095 0.0
C1529 C 0.77947 0.20777 0.15067 0.0
C1530 C 0.76854 0.01677 0.10903 0.0
C1531 C 0.77633 0.01455 0.09432 0.0
C1532 C 0.7679 0.06573 0.11841 0.0
C1533 C 0.77493 0.11357 0.11317 0.0
C1534 C 0.78229 0.11193 0.09813 0.0
C1535 C 0.78304 0.06288 0.08884 0.0
H1536 H 0.5399 0.80266 0.91599 0.0
H1537 H 0.51648 0.71299 0.87901 0.0
H1538 H 0.53757 0.88762 0.89958 0.0
H1539 H 0.51413 0.79814 0.86266 0.0
H1540 H 0.53223 0.94039 0.82937 0.0
H1541 H 0.53056 0.8565 0.84637 0.0
H1542 H 0.52025 0.95631 0.88937 0.0
H1543 H 0.52196 0.0404 0.87241 0.0
C1544 C 0.53413 0.8012 0.90446 0.0
C1545 C 0.52845 0.75101 0.89875 0.0
C1546 C 0.53273 0.84994 0.89512 0.0
C1547 C 0.5257 0.84942 0.87982 0.0
C1548 C 0.51971 0.7996 0.87433 0.0
C1549 C 0.52101 0.75094 0.88374 0.0
C1550 C 0.52944 0.94443 0.8424 0.0
C1551 C 0.52732 0.99709 0.84957 0.0
C1552 C 0.52842 0.89635 0.85211 0.0
C1553 C 0.52535 0.89994 0.86921 0.0
C1554 C 0.52278 0.9524 0.87626 0.0
C1555 C 0.52369 0.00048 0.86651 0.0
H1556 H 0.70905 0.43749 0.91476 0.0
H1557 H 0.72482 0.53579 0.87391 0.0
H1558 H 0.71084 0.35383 0.89763 0.0
H1559 H 0.72654 0.45198 0.85679 0.0
H1560 H 0.70655 0.30331 0.82745 0.0
H1561 H 0.70864 0.38736 0.84435 0.0
H1562 H 0.72851 0.29279 0.8832 0.0
H1563 H 0.72649 0.20856 0.86629 0.0
C1564 C 0.71302 0.44117 0.90219 0.0
C1565 C 0.71673 0.49328 0.89566 0.0
C1566 C 0.71412 0.39322 0.89243 0.0
C1567 C 0.71879 0.39652 0.87588 0.0
C1568 C 0.72281 0.44839 0.86947 0.0
C1569 C 0.72188 0.49626 0.87931 0.0
C1570 C 0.71151 0.30054 0.83951 0.0
C1571 C 0.7163 0.24926 0.84557 0.0
C1572 C 0.71277 0.34871 0.84914 0.0
C1573 C 0.7187 0.34647 0.86509 0.0
C1574 C 0.7238 0.29553 0.87099 0.0
C1575 C 0.72271 0.24744 0.86127 0.0
H1576 H 0.52434 0.5539 0.37142 0.0
H1577 H 0.53149 0.45176 0.32788 0.0
H1578 H 0.52107 0.4703 0.38824 0.0
H1579 H 0.52834 0.3684 0.34474 0.0
H1580 H 0.51303 0.22791 0.37719 0.0
H1581 H 0.51161 0.31428 0.36126 0.0
H1582 H 0.53677 0.39642 0.39802 0.0
H1583 H 0.53811 0.31041 0.41403 0.0
C1584 C 0.52505 0.51369 0.36538 0.0
C1585 C 0.52828 0.50948 0.34833 0.0
C1586 C 0.52325 0.46583 0.37505 0.0
C1587 C 0.52453 0.41282 0.36783 0.0
C1588 C 0.52716 0.40866 0.35063 0.0
C1589 C 0.52904 0.45647 0.34099 0.0
C1590 C 0.51812 0.26457 0.38199 0.0
C1591 C 0.52577 0.26219 0.39682 0.0
C1592 C 0.51735 0.31394 0.37281 0.0
C1593 C 0.52413 0.36202 0.37835 0.0
C1594 C 0.53132 0.36021 0.39352 0.0
C1595 C 0.53216 0.3108 0.40264 0.0
H1596 H 0.70182 0.94836 0.41635 0.0
H1597 H 0.72851 0.03083 0.38127 0.0
H1598 H 0.70377 0.86248 0.40041 0.0
H1599 H 0.7305 0.94453 0.36534 0.0
H1600 H 0.71179 0.80579 0.33097 0.0
H1601 H 0.71418 0.88976 0.34781 0.0
H1602 H 0.72027 0.7891 0.39185 0.0
H1603 H 0.7178 0.70502 0.37508 0.0
C1604 C 0.70824 0.94798 0.40535 0.0
C1605 C 0.71495 0.99648 0.40002 0.0
C1606 C 0.70942 0.89866 0.39627 0.0
C1607 C 0.71726 0.89686 0.3816 0.0
C1608 C 0.72429 0.94489 0.37653 0.0
C1609 C 0.72321 0.99417 0.3857 0.0
C1610 C 0.7138 0.80153 0.34421 0.0
C1611 C 0.71447 0.74872 0.35171 0.0
C1612 C 0.71525 0.84965 0.35383 0.0
C1613 C 0.71733 0.84594 0.37116 0.0
C1614 C 0.71851 0.79317 0.37855 0.0
C1615 C 0.71715 0.74505 0.36892 0.0
H1616 H 0.46855 0.29985 0.12403 0.0
H1617 H 0.45737 0.20004 0.08127 0.0
H1618 H 0.47066 0.21569 0.14088 0.0
H1619 H 0.45949 0.11597 0.09818 0.0
H1620 H 0.47578 0.97351 0.13023 0.0
H1621 H 0.47695 0.05894 0.11376 0.0
H1622 H 0.45384 0.14526 0.15161 0.0
H1623 H 0.45266 0.06007 0.16809 0.0
C1624 C 0.46666 0.25997 0.11818 0.0
C1625 C 0.46272 0.25664 0.10133 0.0
C1626 C 0.46781 0.21184 0.12786 0.0
C1627 C 0.4652 0.15936 0.12085 0.0
C1628 C 0.46168 0.15585 0.10387 0.0
C1629 C 0.4604 0.20402 0.09422 0.0
C1630 C 0.47109 0.01087 0.13513 0.0
C1631 C 0.46408 0.00999 0.15044 0.0
C1632 C 0.47169 0.05964 0.12565 0.0
C1633 C 0.46545 0.10863 0.13138 0.0
C1634 C 0.45885 0.10823 0.14695 0.0
C1635 C 0.45812 0.05936 0.15634 0.0
H1636 H 0.2895 0.68632 0.16526 0.0
H1637 H 0.2672 0.77248 0.12653 0.0
H1638 H 0.28863 0.60092 0.14883 0.0
H1639 H 0.26632 0.68693 0.11016 0.0
H1640 H 0.2863 0.54611 0.07829 0.0
H1641 H 0.28389 0.63009 0.09513 0.0
H1642 H 0.27221 0.53022 0.13761 0.0
H1643 H 0.27465 0.4461 0.12082 0.0
C1644 C 0.28428 0.6869 0.15333 0.0
C1645 C 0.27848 0.73624 0.14716 0.0
C1646 C 0.28373 0.63792 0.14397 0.0
C1647 C 0.27745 0.63738 0.12819 0.0
C1648 C 0.27134 0.68632 0.12221 0.0
C1649 C 0.27179 0.73519 0.13163 0.0
C1650 C 0.2831 0.54207 0.09118 0.0
C1651 C 0.28074 0.48942 0.09824 0.0
C1652 C 0.28165 0.59019 0.10079 0.0
C1653 C 0.27791 0.58663 0.1177 0.0
C1654 C 0.27524 0.53412 0.12466 0.0
C1655 C 0.27658 0.48601 0.11501 0.0
H1656 H 0.45916 0.54755 0.65998 0.0
H1657 H 0.47704 0.45484 0.61927 0.0
H1658 H 0.46004 0.63215 0.64317 0.0
H1659 H 0.47787 0.53962 0.60247 0.0
H1660 H 0.45652 0.68379 0.57283 0.0
H1661 H 0.45946 0.59996 0.58963 0.0
H1662 H 0.47678 0.69829 0.62945 0.0
H1663 H 0.47388 0.78234 0.61265 0.0
C1664 C 0.46341 0.54534 0.64752 0.0
C1665 C 0.46796 0.49444 0.64093 0.0
C1666 C 0.46398 0.59385 0.63793 0.0
C1667 C 0.46897 0.59235 0.62151 0.0
C1668 C 0.47386 0.5418 0.61506 0.0
C1669 C 0.47344 0.49338 0.62471 0.0
C1670 C 0.46108 0.68749 0.5851 0.0
C1671 C 0.46491 0.73972 0.59144 0.0
C1672 C 0.46284 0.63944 0.59467 0.0
C1673 C 0.46832 0.64269 0.61085 0.0
C1674 C 0.47244 0.6947 0.61706 0.0
C1675 C 0.47083 0.74272 0.6074 0.0
H1676 H 0.29818 0.03542 0.58991 0.0
H1677 H 0.25612 0.00725 0.60367 0.0
H1678 H 0.29876 0.11761 0.60769 0.0
H1679 H 0.25675 0.08992 0.62147 0.0
H1680 H 0.2617 0.27587 0.63827 0.0
H1681 H 0.25983 0.19582 0.61953 0.0
H1682 H 0.29758 0.1304 0.63912 0.0
H1683 H 0.29947 0.20993 0.65785 0.0
C1684 C 0.28901 0.04708 0.59657 0.0
C1685 C 0.27712 0.01461 0.59545 0.0
C1686 C 0.28938 0.09394 0.60684 0.0
C1687 C 0.27785 0.1097 0.61608 0.0
C1688 C 0.26578 0.07868 0.61445 0.0
C1689 C 0.26544 0.03134 0.6043 0.0
C1690 C 0.26955 0.24421 0.63864 0.0
C1691 C 0.28074 0.24928 0.64952 0.0
C1692 C 0.26845 0.1984 0.62795 0.0
C1693 C 0.27862 0.15727 0.62779 0.0
C1694 C 0.28969 0.16194 0.63883 0.0
C1695 C 0.29071 0.20728 0.64964 0.0
loop_
_geom_bond_atom_site_label_1
_geom_bond_atom_site_label_2
_geom_bond_distance
_geom_bond_site_symmetry_2
_ccdc_geom_bond_type
C0 O1 1.160 . S
C0 O7 1.185 . S
O1 C0 1.160 . S
O2 Zn3 1.899 . S
O2 C10 1.284 . S
Zn3 O2 1.899 . S
Zn3 O4 2.032 . S
Zn3 O7 2.086 . S
Zn3 O12 1.977 . S
O4 Zn3 2.032 . S
O4 C8 1.278 . S
C5 O6 1.203 . S
C5 O12 1.267 . S
O6 C5 1.203 . S
O7 C0 1.185 . S
O7 Zn3 2.086 . S
C8 O4 1.278 . S
C8 O9 1.211 . S
O9 C8 1.211 . S
C10 O2 1.284 . S
C10 O11 1.273 . S
O11 C10 1.273 . S
O12 Zn3 1.977 . S
O12 C5 1.267 . S
C13 O14 1.160 . S
C13 O20 1.185 . S
O14 C13 1.160 . S
O15 Zn16 1.899 . S
O15 C23 1.284 . S
Zn16 O15 1.899 . S
Zn16 O17 2.032 . S
Zn16 O20 2.086 . S
Zn16 O25 1.977 . S
O17 Zn16 2.032 . S
O17 C21 1.278 . S
C18 O19 1.203 . S
C18 O25 1.267 . S
O19 C18 1.203 . S
O20 C13 1.185 . S
O20 Zn16 2.086 . S
C21 O17 1.278 . S
C21 O22 1.211 . S
O22 C21 1.211 . S
C23 O15 1.284 . S
C23 O24 1.273 . S
O24 C23 1.273 . S
O25 Zn16 1.977 . S
O25 C18 1.267 . S
C26 O27 1.160 . S
C26 O33 1.185 . S
O27 C26 1.160 . S
O28 Zn29 1.899 . S
O28 C36 1.284 . S
Zn29 O28 1.899 . S
Zn29 O30 2.032 . S
Zn29 O33 2.086 . S
Zn29 O38 1.977 . S
O30 Zn29 2.032 . S
O30 C34 1.278 . S
C31 O32 1.203 . S
C31 O38 1.267 . S
O32 C31 1.203 . S
O33 C26 1.185 . S
O33 Zn29 2.086 . S
C34 O30 1.278 . S
C34 O35 1.211 . S
O35 C34 1.211 . S
C36 O28 1.284 . S
C36 O37 1.273 . S
O37 C36 1.273 . S
O38 Zn29 1.977 . S
O38 C31 1.267 . S
C39 O40 1.160 . S
C39 O46 1.185 . S
O40 C39 1.160 . S
O41 Zn42 1.899 . S
O41 C49 1.284 . S
Zn42 O41 1.899 . S
Zn42 O43 2.032 . S
Zn42 O46 2.086 . S
Zn42 O51 1.977 . S
O43 Zn42 2.032 . S
O43 C47 1.278 . S
C44 O45 1.203 . S
C44 O51 1.267 . S
O45 C44 1.203 . S
O46 C39 1.185 . S
O46 Zn42 2.086 . S
C47 O43 1.278 . S
C47 O48 1.211 . S
O48 C47 1.211 . S
C49 O41 1.284 . S
C49 O50 1.273 . S
O50 C49 1.273 . S
O51 Zn42 1.977 . S
O51 C44 1.267 . S
C52 O53 1.160 . S
C52 O59 1.185 . S
O53 C52 1.160 . S
O54 Zn55 1.899 . S
O54 C62 1.284 . S
Zn55 O54 1.899 . S
Zn55 O56 2.032 . S
Zn55 O59 2.086 . S
Zn55 O64 1.977 . S
O56 Zn55 2.032 . S
O56 C60 1.278 . S
C57 O58 1.203 . S
C57 O64 1.267 . S
O58 C57 1.203 . S
O59 C52 1.185 . S
O59 Zn55 2.086 . S
C60 O56 1.278 . S
C60 O61 1.211 . S
O61 C60 1.211 . S
C62 O54 1.284 . S
C62 O63 1.273 . S
O63 C62 1.273 . S
O64 Zn55 1.977 . S
O64 C57 1.267 . S
C65 O66 1.160 . S
C65 O72 1.185 . S
O66 C65 1.160 . S
O67 Zn68 1.899 . S
O67 C75 1.284 . S
Zn68 O67 1.899 . S
Zn68 O69 2.032 . S
Zn68 O72 2.086 . S
Zn68 O77 1.977 . S
O69 Zn68 2.032 . S
O69 C73 1.278 . S
C70 O71 1.203 . S
C70 O77 1.267 . S
O71 C70 1.203 . S
O72 C65 1.185 . S
O72 Zn68 2.086 . S
C73 O69 1.278 . S
C73 O74 1.211 . S
O74 C73 1.211 . S
C75 O67 1.284 . S
C75 O76 1.273 . S
O76 C75 1.273 . S
O77 Zn68 1.977 . S
O77 C70 1.267 . S
C78 O79 1.160 . S
C78 O85 1.185 . S
O79 C78 1.160 . S
O80 Zn81 1.899 . S
O80 C88 1.284 . S
Zn81 O80 1.899 . S
Zn81 O82 2.032 . S
Zn81 O85 2.086 . S
Zn81 O90 1.977 . S
O82 Zn81 2.032 . S
O82 C86 1.278 . S
C83 O84 1.203 . S
C83 O90 1.267 . S
O84 C83 1.203 . S
O85 C78 1.185 . S
O85 Zn81 2.086 . S
C86 O82 1.278 . S
C86 O87 1.211 . S
O87 C86 1.211 . S
C88 O80 1.284 . S
C88 O89 1.273 . S
O89 C88 1.273 . S
O90 Zn81 1.977 . S
O90 C83 1.267 . S
C91 O92 1.160 . S
C91 O98 1.185 . S
O92 C91 1.160 . S
O93 Zn94 1.899 . S
O93 C101 1.284 . S
Zn94 O93 1.899 . S
Zn94 O95 2.032 . S
Zn94 O98 2.086 . S
Zn94 O103 1.977 . S
O95 Zn94 2.032 . S
O95 C99 1.278 . S
C96 O97 1.203 . S
C96 O103 1.267 . S
O97 C96 1.203 . S
O98 C91 1.185 . S
O98 Zn94 2.086 . S
C99 O95 1.278 . S
C99 O100 1.211 . S
O100 C99 1.211 . S
C101 O93 1.284 . S
C101 O102 1.273 . S
O102 C101 1.273 . S
O103 Zn94 1.977 . S
O103 C96 1.267 . S
C104 O105 1.160 . S
C104 O111 1.185 . S
O105 C104 1.160 . S
O106 Zn107 1.899 . S
O106 C114 1.284 . S
Zn107 O106 1.899 . S
Zn107 O108 2.032 . S
Zn107 O111 2.086 . S
Zn107 O116 1.977 . S
O108 Zn107 2.032 . S
O108 C112 1.278 . S
C109 O110 1.203 . S
C109 O116 1.267 . S
O110 C109 1.203 . S
O111 C104 1.185 . S
O111 Zn107 2.086 . S
C112 O108 1.278 . S
C112 O113 1.211 . S
O113 C112 1.211 . S
C114 O106 1.284 . S
C114 O115 1.273 . S
O115 C114 1.273 . S
O116 Zn107 1.977 . S
O116 C109 1.267 . S
C117 O118 1.160 . S
C117 O124 1.185 . S
O118 C117 1.160 . S
O119 Zn120 1.899 . S
O119 C127 1.284 . S
Zn120 O119 1.899 . S
Zn120 O121 2.032 . S
Zn120 O124 2.086 . S
Zn120 O129 1.977 . S
O121 Zn120 2.032 . S
O121 C125 1.278 . S
C122 O123 1.203 . S
C122 O129 1.267 . S
O123 C122 1.203 . S
O124 C117 1.185 . S
O124 Zn120 2.086 . S
C125 O121 1.278 . S
C125 O126 1.211 . S
O126 C125 1.211 . S
C127 O119 1.284 . S
C127 O128 1.273 . S
O128 C127 1.273 . S
O129 Zn120 1.977 . S
O129 C122 1.267 . S
C130 O131 1.160 . S
C130 O137 1.185 . S
O131 C130 1.160 . S
O132 Zn133 1.899 . S
O132 C140 1.284 . S
Zn133 O132 1.899 . S
Zn133 O134 2.032 . S
Zn133 O137 2.086 . S
Zn133 O142 1.977 . S
O134 Zn133 2.032 . S
O134 C138 1.278 . S
C135 O136 1.203 . S
C135 O142 1.267 . S
O136 C135 1.203 . S
O137 C130 1.185 . S
O137 Zn133 2.086 . S
C138 O134 1.278 . S
C138 O139 1.211 . S
O139 C138 1.211 . S
C140 O132 1.284 . S
C140 O141 1.273 . S
O141 C140 1.273 . S
O142 Zn133 1.977 . S
O142 C135 1.267 . S
C143 O144 1.160 . S
C143 O150 1.185 . S
O144 C143 1.160 . S
O145 Zn146 1.899 . S
O145 C153 1.284 . S
Zn146 O145 1.899 . S
Zn146 O147 2.032 . S
Zn146 O150 2.086 . S
Zn146 O155 1.977 . S
O147 Zn146 2.032 . S
O147 C151 1.278 . S
C148 O149 1.203 . S
C148 O155 1.267 . S
O149 C148 1.203 . S
O150 C143 1.185 . S
O150 Zn146 2.086 . S
C151 O147 1.278 . S
C151 O152 1.211 . S
O152 C151 1.211 . S
C153 O145 1.284 . S
C153 O154 1.273 . S
O154 C153 1.273 . S
O155 Zn146 1.977 . S
O155 C148 1.267 . S
C156 O157 1.160 . S
C156 O163 1.185 . S
O157 C156 1.160 . S
O158 Zn159 1.899 . S
O158 C166 1.284 . S
Zn159 O158 1.899 . S
Zn159 O160 2.032 . S
Zn159 O163 2.086 . S
Zn159 O168 1.977 . S
O160 Zn159 2.032 . S
O160 C164 1.278 . S
C161 O162 1.203 . S
C161 O168 1.267 . S
O162 C161 1.203 . S
O163 C156 1.185 . S
O163 Zn159 2.086 . S
C164 O160 1.278 . S
C164 O165 1.211 . S
O165 C164 1.211 . S
C166 O158 1.284 . S
C166 O167 1.273 . S
O167 C166 1.273 . S
O168 Zn159 1.977 . S
O168 C161 1.267 . S
C169 O170 1.160 . S
C169 O176 1.185 . S
O170 C169 1.160 . S
O171 Zn172 1.899 . S
O171 C179 1.284 . S
Zn172 O171 1.899 . S
Zn172 O173 2.032 . S
Zn172 O176 2.086 . S
Zn172 O181 1.977 . S
O173 Zn172 2.032 . S
O173 C177 1.278 . S
C174 O175 1.203 . S
C174 O181 1.267 . S
O175 C174 1.203 . S
O176 C169 1.185 . S
O176 Zn172 2.086 . S
C177 O173 1.278 . S
C177 O178 1.211 . S
O178 C177 1.211 . S
C179 O171 1.284 . S
C179 O180 1.273 . S
O180 C179 1.273 . S
O181 Zn172 1.977 . S
O181 C174 1.267 . S
C182 O183 1.160 . S
C182 O189 1.185 . S
O183 C182 1.160 . S
O184 Zn185 1.899 . S
O184 C192 1.284 . S
Zn185 O184 1.899 . S
Zn185 O186 2.032 . S
Zn185 O189 2.086 . S
Zn185 O194 1.977 . S
O186 Zn185 2.032 . S
O186 C190 1.278 . S
C187 O188 1.203 . S
C187 O194 1.267 . S
O188 C187 1.203 . S
O189 C182 1.185 . S
O189 Zn185 2.086 . S
C190 O186 1.278 . S
C190 O191 1.211 . S
O191 C190 1.211 . S
C192 O184 1.284 . S
C192 O193 1.273 . S
O193 C192 1.273 . S
O194 Zn185 1.977 . S
O194 C187 1.267 . S
C195 O196 1.160 . S
C195 O202 1.185 . S
O196 C195 1.160 . S
O197 Zn198 1.899 . S
O197 C205 1.284 . S
Zn198 O197 1.899 . S
Zn198 O199 2.032 . S
Zn198 O202 2.086 . S
Zn198 O207 1.977 . S
O199 Zn198 2.032 . S
O199 C203 1.278 . S
C200 O201 1.203 . S
C200 O207 1.267 . S
O201 C200 1.203 . S
O202 C195 1.185 . S
O202 Zn198 2.086 . S
C203 O199 1.278 . S
C203 O204 1.211 . S
O204 C203 1.211 . S
C205 O197 1.284 . S
C205 O206 1.273 . S
O206 C205 1.273 . S
O207 Zn198 1.977 . S
O207 C200 1.267 . S
C208 O209 1.160 . S
C208 O215 1.185 . S
O209 C208 1.160 . S
O210 Zn211 1.899 . S
O210 C218 1.284 . S
Zn211 O210 1.899 . S
Zn211 O212 2.032 . S
Zn211 O215 2.086 . S
Zn211 O220 1.977 . S
O212 Zn211 2.032 . S
O212 C216 1.278 . S
C213 O214 1.203 . S
C213 O220 1.267 . S
O214 C213 1.203 . S
O215 C208 1.185 . S
O215 Zn211 2.086 . S
C216 O212 1.278 . S
C216 O217 1.211 . S
O217 C216 1.211 . S
C218 O210 1.284 . S
C218 O219 1.273 . S
O219 C218 1.273 . S
O220 Zn211 1.977 . S
O220 C213 1.267 . S
C221 O222 1.160 . S
C221 O228 1.185 . S
O222 C221 1.160 . S
O223 Zn224 1.899 . S
O223 C231 1.284 . S
Zn224 O223 1.899 . S
Zn224 O225 2.032 . S
Zn224 O228 2.086 . S
Zn224 O233 1.977 . S
O225 Zn224 2.032 . S
O225 C229 1.278 . S
C226 O227 1.203 . S
C226 O233 1.267 . S
O227 C226 1.203 . S
O228 C221 1.185 . S
O228 Zn224 2.086 . S
C229 O225 1.278 . S
C229 O230 1.211 . S
O230 C229 1.211 . S
C231 O223 1.284 . S
C231 O232 1.273 . S
O232 C231 1.273 . S
O233 Zn224 1.977 . S
O233 C226 1.267 . S
C234 O235 1.160 . S
C234 O241 1.185 . S
O235 C234 1.160 . S
O236 Zn237 1.899 . S
O236 C244 1.284 . S
Zn237 O236 1.899 . S
Zn237 O238 2.032 . S
Zn237 O241 2.086 . S
Zn237 O246 1.977 . S
O238 Zn237 2.032 . S
O238 C242 1.278 . S
C239 O240 1.203 . S
C239 O246 1.267 . S
O240 C239 1.203 . S
O241 C234 1.185 . S
O241 Zn237 2.086 . S
C242 O238 1.278 . S
C242 O243 1.211 . S
O243 C242 1.211 . S
C244 O236 1.284 . S
C244 O245 1.273 . S
O245 C244 1.273 . S
O246 Zn237 1.977 . S
O246 C239 1.267 . S
C247 O248 1.160 . S
C247 O254 1.185 . S
O248 C247 1.160 . S
O249 Zn250 1.899 . S
O249 C257 1.284 . S
Zn250 O249 1.899 . S
Zn250 O251 2.032 . S
Zn250 O254 2.086 . S
Zn250 O259 1.977 . S
O251 Zn250 2.032 . S
O251 C255 1.278 . S
C252 O253 1.203 . S
C252 O259 1.267 . S
O253 C252 1.203 . S
O254 C247 1.185 . S
O254 Zn250 2.086 . S
C255 O251 1.278 . S
C255 O256 1.211 . S
O256 C255 1.211 . S
C257 O249 1.284 . S
C257 O258 1.273 . S
O258 C257 1.273 . S
O259 Zn250 1.977 . S
O259 C252 1.267 . S
C260 O261 1.160 . S
C260 O267 1.185 . S
O261 C260 1.160 . S
O262 Zn263 1.899 . S
O262 C270 1.284 . S
Zn263 O262 1.899 . S
Zn263 O264 2.032 . S
Zn263 O267 2.086 . S
Zn263 O272 1.977 . S
O264 Zn263 2.032 . S
O264 C268 1.278 . S
C265 O266 1.203 . S
C265 O272 1.267 . S
O266 C265 1.203 . S
O267 C260 1.185 . S
O267 Zn263 2.086 . S
C268 O264 1.278 . S
C268 O269 1.211 . S
O269 C268 1.211 . S
C270 O262 1.284 . S
C270 O271 1.273 . S
O271 C270 1.273 . S
O272 Zn263 1.977 . S
O272 C265 1.267 . S
C273 O274 1.160 . S
C273 O280 1.185 . S
O274 C273 1.160 . S
O275 Zn276 1.899 . S
O275 C283 1.284 . S
Zn276 O275 1.899 . S
Zn276 O277 2.032 . S
Zn276 O280 2.086 . S
Zn276 O285 1.977 . S
O277 Zn276 2.032 . S
O277 C281 1.278 . S
C278 O279 1.203 . S
C278 O285 1.267 . S
O279 C278 1.203 . S
O280 C273 1.185 . S
O280 Zn276 2.086 . S
C281 O277 1.278 . S
C281 O282 1.211 . S
O282 C281 1.211 . S
C283 O275 1.284 . S
C283 O284 1.273 . S
O284 C283 1.273 . S
O285 Zn276 1.977 . S
O285 C278 1.267 . S
C286 O287 1.160 . S
C286 O293 1.185 . S
O287 C286 1.160 . S
O288 Zn289 1.899 . S
O288 C296 1.284 . S
Zn289 O288 1.899 . S
Zn289 O290 2.032 . S
Zn289 O293 2.086 . S
Zn289 O298 1.977 . S
O290 Zn289 2.032 . S
O290 C294 1.278 . S
C291 O292 1.203 . S
C291 O298 1.267 . S
O292 C291 1.203 . S
O293 C286 1.185 . S
O293 Zn289 2.086 . S
C294 O290 1.278 . S
C294 O295 1.211 . S
O295 C294 1.211 . S
C296 O288 1.284 . S
C296 O297 1.273 . S
O297 C296 1.273 . S
O298 Zn289 1.977 . S
O298 C291 1.267 . S
C299 O300 1.160 . S
C299 O306 1.185 . S
O300 C299 1.160 . S
O301 Zn302 1.899 . S
O301 C309 1.284 . S
Zn302 O301 1.899 . S
Zn302 O303 2.032 . S
Zn302 O306 2.086 . S
Zn302 O311 1.977 . S
O303 Zn302 2.032 . S
O303 C307 1.278 . S
C304 O305 1.203 . S
C304 O311 1.267 . S
O305 C304 1.203 . S
O306 C299 1.185 . S
O306 Zn302 2.086 . S
C307 O303 1.278 . S
C307 O308 1.211 . S
O308 C307 1.211 . S
C309 O301 1.284 . S
C309 O310 1.273 . S
O310 C309 1.273 . S
O311 Zn302 1.977 . S
O311 C304 1.267 . S
C312 O313 1.160 . S
C312 O319 1.185 . S
O313 C312 1.160 . S
O314 Zn315 1.899 . S
O314 C322 1.284 . S
Zn315 O314 1.899 . S
Zn315 O316 2.032 . S
Zn315 O319 2.086 . S
Zn315 O324 1.977 . S
O316 Zn315 2.032 . S
O316 C320 1.278 . S
C317 O318 1.203 . S
C317 O324 1.267 . S
O318 C317 1.203 . S
O319 C312 1.185 . S
O319 Zn315 2.086 . S
C320 O316 1.278 . S
C320 O321 1.211 . S
O321 C320 1.211 . S
C322 O314 1.284 . S
C322 O323 1.273 . S
O323 C322 1.273 . S
O324 Zn315 1.977 . S
O324 C317 1.267 . S
C325 O326 1.160 . S
C325 O332 1.185 . S
O326 C325 1.160 . S
O327 Zn328 1.899 . S
O327 C335 1.284 . S
Zn328 O327 1.899 . S
Zn328 O329 2.032 . S
Zn328 O332 2.086 . S
Zn328 O337 1.977 . S
O329 Zn328 2.032 . S
O329 C333 1.278 . S
C330 O331 1.203 . S
C330 O337 1.267 . S
O331 C330 1.203 . S
O332 C325 1.185 . S
O332 Zn328 2.086 . S
C333 O329 1.278 . S
C333 O334 1.211 . S
O334 C333 1.211 . S
C335 O327 1.284 . S
C335 O336 1.273 . S
O336 C335 1.273 . S
O337 Zn328 1.977 . S
O337 C330 1.267 . S
C338 O339 1.160 . S
C338 O345 1.185 . S
O339 C338 1.160 . S
O340 Zn341 1.899 . S
O340 C348 1.284 . S
Zn341 O340 1.899 . S
Zn341 O342 2.032 . S
Zn341 O345 2.086 . S
Zn341 O350 1.977 . S
O342 Zn341 2.032 . S
O342 C346 1.278 . S
C343 O344 1.203 . S
C343 O350 1.267 . S
O344 C343 1.203 . S
O345 C338 1.185 . S
O345 Zn341 2.086 . S
C346 O342 1.278 . S
C346 O347 1.211 . S
O347 C346 1.211 . S
C348 O340 1.284 . S
C348 O349 1.273 . S
O349 C348 1.273 . S
O350 Zn341 1.977 . S
O350 C343 1.267 . S
C351 O352 1.160 . S
C351 O358 1.185 . S
O352 C351 1.160 . S
O353 Zn354 1.899 . S
O353 C361 1.284 . S
Zn354 O353 1.899 . S
Zn354 O355 2.032 . S
Zn354 O358 2.086 . S
Zn354 O363 1.977 . S
O355 Zn354 2.032 . S
O355 C359 1.278 . S
C356 O357 1.203 . S
C356 O363 1.267 . S
O357 C356 1.203 . S
O358 C351 1.185 . S
O358 Zn354 2.086 . S
C359 O355 1.278 . S
C359 O360 1.211 . S
O360 C359 1.211 . S
C361 O353 1.284 . S
C361 O362 1.273 . S
O362 C361 1.273 . S
O363 Zn354 1.977 . S
O363 C356 1.267 . S
C364 O365 1.160 . S
C364 O371 1.185 . S
O365 C364 1.160 . S
O366 Zn367 1.899 . S
O366 C374 1.284 . S
Zn367 O366 1.899 . S
Zn367 O368 2.032 . S
Zn367 O371 2.086 . S
Zn367 O376 1.977 . S
O368 Zn367 2.032 . S
O368 C372 1.278 . S
C369 O370 1.203 . S
C369 O376 1.267 . S
O370 C369 1.203 . S
O371 C364 1.185 . S
O371 Zn367 2.086 . S
C372 O368 1.278 . S
C372 O373 1.211 . S
O373 C372 1.211 . S
C374 O366 1.284 . S
C374 O375 1.273 . S
O375 C374 1.273 . S
O376 Zn367 1.977 . S
O376 C369 1.267 . S
C377 O378 1.160 . S
C377 O384 1.185 . S
O378 C377 1.160 . S
O379 Zn380 1.899 . S
O379 C387 1.284 . S
Zn380 O379 1.899 . S
Zn380 O381 2.032 . S
Zn380 O384 2.086 . S
Zn380 O389 1.977 . S
O381 Zn380 2.032 . S
O381 C385 1.278 . S
C382 O383 1.203 . S
C382 O389 1.267 . S
O383 C382 1.203 . S
O384 C377 1.185 . S
O384 Zn380 2.086 . S
C385 O381 1.278 . S
C385 O386 1.211 . S
O386 C385 1.211 . S
C387 O379 1.284 . S
C387 O388 1.273 . S
O388 C387 1.273 . S
O389 Zn380 1.977 . S
O389 C382 1.267 . S
C390 O391 1.160 . S
C390 O397 1.185 . S
O391 C390 1.160 . S
O392 Zn393 1.899 . S
O392 C400 1.284 . S
Zn393 O392 1.899 . S
Zn393 O394 2.032 . S
Zn393 O397 2.086 . S
Zn393 O402 1.977 . S
O394 Zn393 2.032 . S
O394 C398 1.278 . S
C395 O396 1.203 . S
C395 O402 1.267 . S
O396 C395 1.203 . S
O397 C390 1.185 . S
O397 Zn393 2.086 . S
C398 O394 1.278 . S
C398 O399 1.211 . S
O399 C398 1.211 . S
C400 O392 1.284 . S
C400 O401 1.273 . S
O401 C400 1.273 . S
O402 Zn393 1.977 . S
O402 C395 1.267 . S
C403 O404 1.160 . S
C403 O410 1.185 . S
O404 C403 1.160 . S
O405 Zn406 1.899 . S
O405 C413 1.284 . S
Zn406 O405 1.899 . S
Zn406 O407 2.032 . S
Zn406 O410 2.086 . S
Zn406 O415 1.977 . S
O407 Zn406 2.032 . S
O407 C411 1.278 . S
C408 O409 1.203 . S
C408 O415 1.267 . S
O409 C408 1.203 . S
O410 C403 1.185 . S
O410 Zn406 2.086 . S
C411 O407 1.278 . S
C411 O412 1.211 . S
O412 C411 1.211 . S
C413 O405 1.284 . S
C413 O414 1.273 . S
O414 C413 1.273 . S
O415 Zn406 1.977 . S
O415 C408 1.267 . S
H416 C424 0.950 . S
H417 C429 0.950 . S
H418 C426 0.950 . S
H419 C428 0.950 . S
H420 C430 0.950 . S
H421 C432 0.950 . S
H422 C434 0.950 . S
H423 C435 0.950 . S
C424 H416 0.950 . S
C424 C425 1.386 . S
C424 C426 1.391 . S
C425 C424 1.386 . S
C425 C429 1.393 . S
C426 H418 0.950 . S
C426 C424 1.391 . S
C426 C427 1.400 . S
C427 C426 1.400 . S
C427 C428 1.398 . S
C427 C433 1.491 . S
C428 H419 0.950 . S
C428 C427 1.398 . S
C428 C429 1.391 . S
C429 H417 0.950 . S
C429 C425 1.393 . S
C429 C428 1.391 . S
C430 H420 0.950 . S
C430 C431 1.386 . S
C430 C432 1.391 . S
C431 C430 1.386 . S
C431 C435 1.393 . S
C432 H421 0.950 . S
C432 C430 1.391 . S
C432 C433 1.400 . S
C433 C427 1.491 . S
C433 C432 1.400 . S
C433 C434 1.398 . S
C434 H422 0.950 . S
C434 C433 1.398 . S
C434 C435 1.391 . S
C435 H423 0.950 . S
C435 C431 1.393 . S
C435 C434 1.391 . S
H436 C444 0.950 . S
H437 C449 0.950 . S
H438 C446 0.950 . S
H439 C448 0.950 . S
H440 C450 0.950 . S
H441 C452 0.950 . S
H442 C454 0.950 . S
H443 C455 0.950 . S
C444 H436 0.950 . S
C444 C445 1.386 . S
C444 C446 1.391 . S
C445 C444 1.386 . S
C445 C449 1.393 . S
C446 H438 0.950 . S
C446 C444 1.391 . S
C446 C447 1.400 . S
C447 C446 1.400 . S
C447 C448 1.398 . S
C447 C453 1.491 . S
C448 H439 0.950 . S
C448 C447 1.398 . S
C448 C449 1.391 . S
C449 H437 0.950 . S
C449 C445 1.393 . S
C449 C448 1.391 . S
C450 H440 0.950 . S
C450 C451 1.386 . S
C450 C452 1.391 . S
C451 C450 1.386 . S
C451 C455 1.393 . S
C452 H441 0.950 . S
C452 C450 1.391 . S
C452 C453 1.400 . S
C453 C447 1.491 . S
C453 C452 1.400 . S
C453 C454 1.398 . S
C454 H442 0.950 . S
C454 C453 1.398 . S
C454 C455 1.391 . S
C455 H443 0.950 . S
C455 C451 1.393 . S
C455 C454 1.391 . S
H456 C464 0.950 . S
H457 C469 0.950 . S
H458 C466 0.950 . S
H459 C468 0.950 . S
H460 C470 0.950 . S
H461 C472 0.950 . S
H462 C474 0.950 . S
H463 C475 0.950 . S
C464 H456 0.950 . S
C464 C465 1.386 . S
C464 C466 1.391 . S
C465 C464 1.386 . S
C465 C469 1.393 . S
C466 H458 0.950 . S
C466 C464 1.391 . S
C466 C467 1.400 . S
C467 C466 1.400 . S
C467 C468 1.398 . S
C467 C473 1.491 . S
C468 H459 0.950 . S
C468 C467 1.398 . S
C468 C469 1.391 . S
C469 H457 0.950 . S
C469 C465 1.393 . S
C469 C468 1.391 . S
C470 H460 0.950 . S
C470 C471 1.386 . S
C470 C472 1.391 . S
C471 C470 1.386 . S
C471 C475 1.393 . S
C472 H461 0.950 . S
C472 C470 1.391 . S
C472 C473 1.400 . S
C473 C467 1.491 . S
C473 C472 1.400 . S
C473 C474 1.398 . S
C474 H462 0.950 . S
C474 C473 1.398 . S
C474 C475 1.391 . S
C475 H463 0.950 . S
C475 C471 1.393 . S
C475 C474 1.391 . S
H476 C484 0.950 . S
H477 C489 0.950 . S
H478 C486 0.950 . S
H479 C488 0.950 . S
H480 C490 0.950 . S
H481 C492 0.950 . S
H482 C494 0.950 . S
H483 C495 0.950 . S
C484 H476 0.950 . S
C484 C485 1.386 . S
C484 C486 1.391 . S
C485 C484 1.386 . S
C485 C489 1.393 . S
C486 H478 0.950 . S
C486 C484 1.391 . S
C486 C487 1.400 . S
C487 C486 1.400 . S
C487 C488 1.398 . S
C487 C493 1.491 . S
C488 H479 0.950 . S
C488 C487 1.398 . S
C488 C489 1.391 . S
C489 H477 0.950 . S
C489 C485 1.393 . S
C489 C488 1.391 . S
C490 H480 0.950 . S
C490 C491 1.386 . S
C490 C492 1.391 . S
C491 C490 1.386 . S
C491 C495 1.393 . S
C492 H481 0.950 . S
C492 C490 1.391 . S
C492 C493 1.400 . S
C493 C487 1.491 . S
C493 C492 1.400 . S
C493 C494 1.398 . S
C494 H482 0.950 . S
C494 C493 1.398 . S
C494 C495 1.391 . S
C495 H483 0.950 . S
C495 C491 1.393 . S
C495 C494 1.391 . S
H496 C504 0.950 . S
H497 C509 0.950 . S
H498 C506 0.950 . S
H499 C508 0.950 . S
H500 C510 0.950 . S
H501 C512 0.950 . S
H502 C514 0.950 . S
H503 C515 0.950 . S
C504 H496 0.950 . S
C504 C505 1.386 . S
C504 C506 1.391 . S
C505 C504 1.386 . S
C505 C509 1.393 . S
C506 H498 0.950 . S
C506 C504 1.391 . S
C506 C507 1.400 . S
C507 C506 1.400 . S
C507 C508 1.398 . S
C507 C513 1.491 . S
C508 H499 0.950 . S
C508 C507 1.398 . S
C508 C509 1.391 . S
C509 H497 0.950 . S
C509 C505 1.393 . S
C509 C508 1.391 . S
C510 H500 0.950 . S
C510 C511 1.386 . S
C510 C512 1.391 . S
C511 C510 1.386 . S
C511 C515 1.393 . S
C512 H501 0.950 . S
C512 C510 1.391 . S
C512 C513 1.400 . S
C513 C507 1.491 . S
C513 C512 1.400 . S
C513 C514 1.398 . S
C514 H502 0.950 . S
C514 C513 1.398 . S
C514 C515 1.391 . S
C515 H503 0.950 . S
C515 C511 1.393 . S
C515 C514 1.391 . S
H516 C524 0.950 . S
H517 C529 0.950 . S
H518 C526 0.950 . S
H519 C528 0.950 . S
H520 C530 0.950 . S
H521 C532 0.950 . S
H522 C534 0.950 . S
H523 C535 0.950 . S
C524 H516 0.950 . S
C524 C525 1.386 . S
C524 C526 1.391 . S
C525 C524 1.386 . S
C525 C529 1.393 . S
C526 H518 0.950 . S
C526 C524 1.391 . S
C526 C527 1.400 . S
C527 C526 1.400 . S
C527 C528 1.398 . S
C527 C533 1.491 . S
C528 H519 0.950 . S
C528 C527 1.398 . S
C528 C529 1.391 . S
C529 H517 0.950 . S
C529 C525 1.393 . S
C529 C528 1.391 . S
C530 H520 0.950 . S
C530 C531 1.386 . S
C530 C532 1.391 . S
C531 C530 1.386 . S
C531 C535 1.393 . S
C532 H521 0.950 . S
C532 C530 1.391 . S
C532 C533 1.400 . S
C533 C527 1.491 . S
C533 C532 1.400 . S
C533 C534 1.398 . S
C534 H522 0.950 . S
C534 C533 1.398 . S
C534 C535 1.391 . S
C535 H523 0.950 . S
C535 C531 1.393 . S
C535 C534 1.391 . S
H536 C544 0.950 . S
H537 C549 0.950 . S
H538 C546 0.950 . S
H539 C548 0.950 . S
H540 C550 0.950 . S
H541 C552 0.950 . S
H542 C554 0.950 . S
H543 C555 0.950 . S
C544 H536 0.950 . S
C544 C545 1.386 . S
C544 C546 1.391 . S
C545 C544 1.386 . S
C545 C549 1.393 . S
C546 H538 0.950 . S
C546 C544 1.391 . S
C546 C547 1.400 . S
C547 C546 1.400 . S
C547 C548 1.398 . S
C547 C553 1.491 . S
C548 H539 0.950 . S
C548 C547 1.398 . S
C548 C549 1.391 . S
C549 H537 0.950 . S
C549 C545 1.393 . S
C549 C548 1.391 . S
C550 H540 0.950 . S
C550 C551 1.386 . S
C550 C552 1.391 . S
C551 C550 1.386 . S
C551 C555 1.393 . S
C552 H541 0.950 . S
C552 C550 1.391 . S
C552 C553 1.400 . S
C553 C547 1.491 . S
C553 C552 1.400 . S
C553 C554 1.398 . S
C554 H542 0.950 . S
C554 C553 1.398 . S
C554 C555 1.391 . S
C555 H543 0.950 . S
C555 C551 1.393 . S
C555 C554 1.391 . S
H556 C564 0.950 . S
H557 C569 0.950 . S
H558 C566 0.950 . S
H559 C568 0.950 . S
H560 C570 0.950 . S
H561 C572 0.950 . S
H562 C574 0.950 . S
H563 C575 0.950 . S
C564 H556 0.950 . S
C564 C565 1.386 . S
C564 C566 1.391 . S
C565 C564 1.386 . S
C565 C569 1.393 . S
C566 H558 0.950 . S
C566 C564 1.391 . S
C566 C567 1.400 . S
C567 C566 1.400 . S
C567 C568 1.398 . S
C567 C573 1.491 . S
C568 H559 0.950 . S
C568 C567 1.398 . S
C568 C569 1.391 . S
C569 H557 0.950 . S
C569 C565 1.393 . S
C569 C568 1.391 . S
C570 H560 0.950 . S
C570 C571 1.386 . S
C570 C572 1.391 . S
C571 C570 1.386 . S
C571 C575 1.393 . S
C572 H561 0.950 . S
C572 C570 1.391 . S
C572 C573 1.400 . S
C573 C567 1.491 . S
C573 C572 1.400 . S
C573 C574 1.398 . S
C574 H562 0.950 . S
C574 C573 1.398 . S
C574 C575 1.391 . S
C575 H563 0.950 . S
C575 C571 1.393 . S
C575 C574 1.391 . S
H576 C584 0.950 . S
H577 C589 0.950 . S
H578 C586 0.950 . S
H579 C588 0.950 . S
H580 C590 0.950 . S
H581 C592 0.950 . S
H582 C594 0.950 . S
H583 C595 0.950 . S
C584 H576 0.950 . S
C584 C585 1.386 . S
C584 C586 1.391 . S
C585 C584 1.386 . S
C585 C589 1.393 . S
C586 H578 0.950 . S
C586 C584 1.391 . S
C586 C587 1.400 . S
C587 C586 1.400 . S
C587 C588 1.398 . S
C587 C593 1.491 . S
C588 H579 0.950 . S
C588 C587 1.398 . S
C588 C589 1.391 . S
C589 H577 0.950 . S
C589 C585 1.393 . S
C589 C588 1.391 . S
C590 H580 0.950 . S
C590 C591 1.386 . S
C590 C592 1.391 . S
C591 C590 1.386 . S
C591 C595 1.393 . S
C592 H581 0.950 . S
C592 C590 1.391 . S
C592 C593 1.400 . S
C593 C587 1.491 . S
C593 C592 1.400 . S
C593 C594 1.398 . S
C594 H582 0.950 . S
C594 C593 1.398 . S
C594 C595 1.391 . S
C595 H583 0.950 . S
C595 C591 1.393 . S
C595 C594 1.391 . S
H596 C604 0.950 . S
H597 C609 0.950 . S
H598 C606 0.950 . S
H599 C608 0.950 . S
H600 C610 0.950 . S
H601 C612 0.950 . S
H602 C614 0.950 . S
H603 C615 0.950 . S
C604 H596 0.950 . S
C604 C605 1.386 . S
C604 C606 1.391 . S
C605 C604 1.386 . S
C605 C609 1.393 . S
C606 H598 0.950 . S
C606 C604 1.391 . S
C606 C607 1.400 . S
C607 C606 1.400 . S
C607 C608 1.398 . S
C607 C613 1.491 . S
C608 H599 0.950 . S
C608 C607 1.398 . S
C608 C609 1.391 . S
C609 H597 0.950 . S
C609 C605 1.393 . S
C609 C608 1.391 . S
C610 H600 0.950 . S
C610 C611 1.386 . S
C610 C612 1.391 . S
C611 C610 1.386 . S
C611 C615 1.393 . S
C612 H601 0.950 . S
C612 C610 1.391 . S
C612 C613 1.400 . S
C613 C607 1.491 . S
C613 C612 1.400 . S
C613 C614 1.398 . S
C614 H602 0.950 . S
C614 C613 1.398 . S
C614 C615 1.391 . S
C615 H603 0.950 . S
C615 C611 1.393 . S
C615 C614 1.391 . S
H616 C624 0.950 . S
H617 C629 0.950 . S
H618 C626 0.950 . S
H619 C628 0.950 . S
H620 C630 0.950 . S
H621 C632 0.950 . S
H622 C634 0.950 . S
H623 C635 0.950 . S
C624 H616 0.950 . S
C624 C625 1.386 . S
C624 C626 1.391 . S
C625 C624 1.386 . S
C625 C629 1.393 . S
C626 H618 0.950 . S
C626 C624 1.391 . S
C626 C627 1.400 . S
C627 C626 1.400 . S
C627 C628 1.398 . S
C627 C633 1.491 . S
C628 H619 0.950 . S
C628 C627 1.398 . S
C628 C629 1.391 . S
C629 H617 0.950 . S
C629 C625 1.393 . S
C629 C628 1.391 . S
C630 H620 0.950 . S
C630 C631 1.386 . S
C630 C632 1.391 . S
C631 C630 1.386 . S
C631 C635 1.393 . S
C632 H621 0.950 . S
C632 C630 1.391 . S
C632 C633 1.400 . S
C633 C627 1.491 . S
C633 C632 1.400 . S
C633 C634 1.398 . S
C634 H622 0.950 . S
C634 C633 1.398 . S
C634 C635 1.391 . S
C635 H623 0.950 . S
C635 C631 1.393 . S
C635 C634 1.391 . S
H636 C644 0.950 . S
H637 C649 0.950 . S
H638 C646 0.950 . S
H639 C648 0.950 . S
H640 C650 0.950 . S
H641 C652 0.950 . S
H642 C654 0.950 . S
H643 C655 0.950 . S
C644 H636 0.950 . S
C644 C645 1.386 . S
C644 C646 1.391 . S
C645 C644 1.386 . S
C645 C649 1.393 . S
C646 H638 0.950 . S
C646 C644 1.391 . S
C646 C647 1.400 . S
C647 C646 1.400 . S
C647 C648 1.398 . S
C647 C653 1.491 . S
C648 H639 0.950 . S
C648 C647 1.398 . S
C648 C649 1.391 . S
C649 H637 0.950 . S
C649 C645 1.393 . S
C649 C648 1.391 . S
C650 H640 0.950 . S
C650 C651 1.386 . S
C650 C652 1.391 . S
C651 C650 1.386 . S
C651 C655 1.393 . S
C652 H641 0.950 . S
C652 C650 1.391 . S
C652 C653 1.400 . S
C653 C647 1.491 . S
C653 C652 1.400 . S
C653 C654 1.398 . S
C654 H642 0.950 . S
C654 C653 1.398 . S
C654 C655 1.391 . S
C655 H643 0.950 . S
C655 C651 1.393 . S
C655 C654 1.391 . S
H656 C664 0.950 . S
H657 C669 0.950 . S
H658 C666 0.950 . S
H659 C668 0.950 . S
H660 C670 0.950 . S
H661 C672 0.950 . S
H662 C674 0.950 . S
H663 C675 0.950 . S
C664 H656 0.950 . S
C664 C665 1.386 . S
C664 C666 1.391 . S
C665 C664 1.386 . S
C665 C669 1.393 . S
C666 H658 0.950 . S
C666 C664 1.391 . S
C666 C667 1.400 . S
C667 C666 1.400 . S
C667 C668 1.398 . S
C667 C673 1.491 . S
C668 H659 0.950 . S
C668 C667 1.398 . S
C668 C669 1.391 . S
C669 H657 0.950 . S
C669 C665 1.393 . S
C669 C668 1.391 . S
C670 H660 0.950 . S
C670 C671 1.386 . S
C670 C672 1.391 . S
C671 C670 1.386 . S
C671 C675 1.393 . S
C672 H661 0.950 . S
C672 C670 1.391 . S
C672 C673 1.400 . S
C673 C667 1.491 . S
C673 C672 1.400 . S
C673 C674 1.398 . S
C674 H662 0.950 . S
C674 C673 1.398 . S
C674 C675 1.391 . S
C675 H663 0.950 . S
C675 C671 1.393 . S
C675 C674 1.391 . S
H676 C684 0.950 . S
H677 C689 0.950 . S
H678 C686 0.950 . S
H679 C688 0.950 . S
H680 C690 0.950 . S
H681 C692 0.950 . S
H682 C694 0.950 . S
H683 C695 0.950 . S
C684 H676 0.950 . S
C684 C685 1.386 . S
C684 C686 1.391 . S
C685 C684 1.386 . S
C685 C689 1.393 . S
C686 H678 0.950 . S
C686 C684 1.391 . S
C686 C687 1.400 . S
C687 C686 1.400 . S
C687 C688 1.398 . S
C687 C693 1.491 . S
C688 H679 0.950 . S
C688 C687 1.398 . S
C688 C689 1.391 . S
C689 H677 0.950 . S
C689 C685 1.393 . S
C689 C688 1.391 . S
C690 H680 0.950 . S
C690 C691 1.386 . S
C690 C692 1.391 . S
C691 C690 1.386 . S
C691 C695 1.393 . S
C692 H681 0.950 . S
C692 C690 1.391 . S
C692 C693 1.400 . S
C693 C687 1.491 . S
C693 C692 1.400 . S
C693 C694 1.398 . S
C694 H682 0.950 . S
C694 C693 1.398 . S
C694 C695 1.391 . S
C695 H683 0.950 . S
C695 C691 1.393 . S
C695 C694 1.391 . S
H696 C704 0.950 . S
H697 C709 0.950 . S
H698 C706 0.950 . S
H699 C708 0.950 . S
H700 C710 0.950 . S
H701 C712 0.950 . S
H702 C714 0.950 . S
H703 C715 0.950 . S
C704 H696 0.950 . S
C704 C705 1.386 . S
C704 C706 1.391 . S
C705 C704 1.386 . S
C705 C709 1.393 . S
C706 H698 0.950 . S
C706 C704 1.391 . S
C706 C707 1.400 . S
C707 C706 1.400 . S
C707 C708 1.398 . S
C707 C713 1.491 . S
C708 H699 0.950 . S
C708 C707 1.398 . S
C708 C709 1.391 . S
C709 H697 0.950 . S
C709 C705 1.393 . S
C709 C708 1.391 . S
C710 H700 0.950 . S
C710 C711 1.386 . S
C710 C712 1.391 . S
C711 C710 1.386 . S
C711 C715 1.393 . S
C712 H701 0.950 . S
C712 C710 1.391 . S
C712 C713 1.400 . S
C713 C707 1.491 . S
C713 C712 1.400 . S
C713 C714 1.398 . S
C714 H702 0.950 . S
C714 C713 1.398 . S
C714 C715 1.391 . S
C715 H703 0.950 . S
C715 C711 1.393 . S
C715 C714 1.391 . S
H716 C724 0.950 . S
H717 C729 0.950 . S
H718 C726 0.950 . S
H719 C728 0.950 . S
H720 C730 0.950 . S
H721 C732 0.950 . S
H722 C734 0.950 . S
H723 C735 0.950 . S
C724 H716 0.950 . S
C724 C725 1.386 . S
C724 C726 1.391 . S
C725 C724 1.386 . S
C725 C729 1.393 . S
C726 H718 0.950 . S
C726 C724 1.391 . S
C726 C727 1.400 . S
C727 C726 1.400 . S
C727 C728 1.398 . S
C727 C733 1.491 . S
C728 H719 0.950 . S
C728 C727 1.398 . S
C728 C729 1.391 . S
C729 H717 0.950 . S
C729 C725 1.393 . S
C729 C728 1.391 . S
C730 H720 0.950 . S
C730 C731 1.386 . S
C730 C732 1.391 . S
C731 C730 1.386 . S
C731 C735 1.393 . S
C732 H721 0.950 . S
C732 C730 1.391 . S
C732 C733 1.400 . S
C733 C727 1.491 . S
C733 C732 1.400 . S
C733 C734 1.398 . S
C734 H722 0.950 . S
C734 C733 1.398 . S
C734 C735 1.391 . S
C735 H723 0.950 . S
C735 C731 1.393 . S
C735 C734 1.391 . S
H736 C744 0.950 . S
H737 C749 0.950 . S
H738 C746 0.965 . S
H739 C748 0.950 . S
H740 C750 0.950 . S
H741 C752 0.965 . S
H742 C754 0.950 . S
H743 C755 0.950 . S
C744 H736 0.950 . S
C744 C745 1.386 . S
C744 C746 1.382 1_455 S
C745 C744 1.386 . S
C745 C749 1.393 . S
C746 H738 0.965 . S
C746 C744 1.382 1_655 S
C746 C747 1.395 1_655 S
C747 C746 1.395 1_455 S
C747 C748 1.398 . S
C747 C753 1.491 1_455 S
C748 H739 0.950 . S
C748 C747 1.398 . S
C748 C749 1.391 . S
C749 H737 0.950 . S
C749 C745 1.393 . S
C749 C748 1.391 . S
C750 H740 0.950 . S
C750 C751 1.386 . S
C750 C752 1.382 1_655 S
C751 C750 1.386 . S
C751 C755 1.393 . S
C752 H741 0.965 . S
C752 C750 1.382 1_455 S
C752 C753 1.395 1_455 S
C753 C747 1.491 1_655 S
C753 C752 1.395 1_655 S
C753 C754 1.398 . S
C754 H742 0.950 . S
C754 C753 1.398 . S
C754 C755 1.391 . S
C755 H743 0.950 . S
C755 C751 1.393 . S
C755 C754 1.391 . S
H756 C764 0.950 . S
H757 C769 0.950 . S
H758 C766 0.950 . S
H759 C768 0.950 1_565 S
H760 C770 0.950 . S
H761 C772 0.950 . S
H762 C774 0.950 1_545 S
H763 C775 0.950 . S
C764 H756 0.950 . S
C764 C765 1.386 . S
C764 C766 1.391 . S
C765 C764 1.386 . S
C765 C769 1.393 . S
C766 H758 0.950 . S
C766 C764 1.391 . S
C766 C767 1.400 . S
C767 C766 1.400 . S
C767 C768 1.398 . S
C767 C773 1.491 1_545 S
C768 H759 0.950 1_545 S
C768 C767 1.398 . S
C768 C769 1.391 . S
C769 H757 0.950 . S
C769 C765 1.393 . S
C769 C768 1.391 . S
C770 H760 0.950 . S
C770 C771 1.386 . S
C770 C772 1.391 . S
C771 C770 1.386 . S
C771 C775 1.393 . S
C772 H761 0.950 . S
C772 C770 1.391 . S
C772 C773 1.400 . S
C773 C767 1.491 1_565 S
C773 C772 1.400 . S
C773 C774 1.398 . S
C774 H762 0.950 1_565 S
C774 C773 1.398 . S
C774 C775 1.391 . S
C775 H763 0.950 . S
C775 C771 1.393 . S
C775 C774 1.391 . S
H776 C784 0.950 . S
H777 C789 0.950 . S
H778 C786 0.950 . S
H779 C788 0.950 1_554 S
H780 C790 0.950 . S
H781 C792 0.950 . S
H782 C794 0.950 1_556 S
H783 C795 0.950 . S
C784 H776 0.950 . S
C784 C785 1.386 . S
C784 C786 1.391 1_455 S
C785 C784 1.386 . S
C785 C789 1.393 . S
C786 H778 0.950 . S
C786 C784 1.391 1_655 S
C786 C787 1.400 1_655 S
C787 C786 1.400 1_455 S
C787 C788 1.398 . S
C787 C793 1.491 1_446 S
C788 H779 0.950 1_556 S
C788 C787 1.398 . S
C788 C789 1.391 . S
C789 H777 0.950 . S
C789 C785 1.393 . S
C789 C788 1.391 . S
C790 H780 0.950 . S
C790 C791 1.386 . S
C790 C792 1.391 1_655 S
C791 C790 1.386 . S
C791 C795 1.393 . S
C792 H781 0.950 . S
C792 C790 1.391 1_455 S
C792 C793 1.400 1_455 S
C793 C787 1.491 1_664 S
C793 C792 1.400 1_655 S
C793 C794 1.398 . S
C794 H782 0.950 1_554 S
C794 C793 1.398 . S
C794 C795 1.391 . S
C795 H783 0.950 . S
C795 C791 1.393 . S
C795 C794 1.391 . S
H796 C804 0.950 . S
H797 C809 0.950 . S
H798 C806 0.950 . S
H799 C808 0.950 . S
H800 C810 0.950 . S
H801 C812 0.950 . S
H802 C814 0.950 . S
H803 C815 0.950 . S
C804 H796 0.950 . S
C804 C805 1.386 . S
C804 C806 1.391 . S
C805 C804 1.386 . S
C805 C809 1.393 . S
C806 H798 0.950 . S
C806 C804 1.391 . S
C806 C807 1.400 . S
C807 C806 1.400 . S
C807 C808 1.398 . S
C807 C813 1.491 1_556 S
C808 H799 0.950 . S
C808 C807 1.398 . S
C808 C809 1.391 . S
C809 H797 0.950 . S
C809 C805 1.393 . S
C809 C808 1.391 . S
C810 H800 0.950 . S
C810 C811 1.386 . S
C810 C812 1.391 . S
C811 C810 1.386 . S
C811 C815 1.393 . S
C812 H801 0.950 . S
C812 C810 1.391 . S
C812 C813 1.400 . S
C813 C807 1.491 1_554 S
C813 C812 1.400 . S
C813 C814 1.398 . S
C814 H802 0.950 . S
C814 C813 1.398 . S
C814 C815 1.391 . S
C815 H803 0.950 . S
C815 C811 1.393 . S
C815 C814 1.391 . S
H816 C824 0.950 . S
H817 C829 0.950 . S
H818 C826 0.950 . S
H819 C828 0.950 . S
H820 C830 0.950 . S
H821 C832 0.950 . S
H822 C834 0.950 . S
H823 C835 0.950 . S
C824 H816 0.950 . S
C824 C825 1.386 . S
C824 C826 1.391 1_655 S
C825 C824 1.386 . S
C825 C829 1.393 . S
C826 H818 0.950 . S
C826 C824 1.391 1_455 S
C826 C827 1.400 1_455 S
C827 C826 1.400 1_655 S
C827 C828 1.398 . S
C827 C833 1.491 1_655 S
C828 H819 0.950 . S
C828 C827 1.398 . S
C828 C829 1.391 . S
C829 H817 0.950 . S
C829 C825 1.393 . S
C829 C828 1.391 . S
C830 H820 0.950 . S
C830 C831 1.386 . S
C830 C832 1.391 1_455 S
C831 C830 1.386 . S
C831 C835 1.393 . S
C832 H821 0.950 . S
C832 C830 1.391 1_655 S
C832 C833 1.400 1_655 S
C833 C827 1.491 1_455 S
C833 C832 1.400 1_455 S
C833 C834 1.398 . S
C834 H822 0.950 . S
C834 C833 1.398 . S
C834 C835 1.391 . S
C835 H823 0.950 . S
C835 C831 1.393 . S
C835 C834 1.391 . S
H836 C844 0.950 . S
H837 C849 0.950 . S
H838 C846 0.950 . S
H839 C848 0.950 . S
H840 C850 0.950 . S
H841 C852 0.950 . S
H842 C854 0.950 . S
H843 C855 0.950 . S
C844 H836 0.950 . S
C844 C845 1.386 . S
C844 C846 1.391 . S
C845 C844 1.386 . S
C845 C849 1.393 . S
C846 H838 0.950 . S
C846 C844 1.391 . S
C846 C847 1.400 . S
C847 C846 1.400 . S
C847 C848 1.398 . S
C847 C853 1.491 1_545 S
C848 H839 0.950 . S
C848 C847 1.398 . S
C848 C849 1.391 . S
C849 H837 0.950 . S
C849 C845 1.393 . S
C849 C848 1.391 . S
C850 H840 0.950 . S
C850 C851 1.386 . S
C850 C852 1.391 . S
C851 C850 1.386 . S
C851 C855 1.393 . S
C852 H841 0.950 . S
C852 C850 1.391 . S
C852 C853 1.400 . S
C853 C847 1.491 1_565 S
C853 C852 1.400 . S
C853 C854 1.398 . S
C854 H842 0.950 . S
C854 C853 1.398 . S
C854 C855 1.391 . S
C855 H843 0.950 . S
C855 C851 1.393 . S
C855 C854 1.391 . S
H856 C864 0.950 . S
H857 C869 0.950 . S
H858 C866 0.950 . S
H859 C868 0.950 1_554 S
H860 C870 0.950 . S
H861 C872 0.950 . S
H862 C874 0.950 1_556 S
H863 C875 0.950 . S
C864 H856 0.950 . S
C864 C865 1.386 . S
C864 C866 1.391 . S
C865 C864 1.386 . S
C865 C869 1.393 . S
C866 H858 0.950 . S
C866 C864 1.391 . S
C866 C867 1.400 . S
C867 C866 1.400 . S
C867 C868 1.398 . S
C867 C873 1.491 1_556 S
C868 H859 0.950 1_556 S
C868 C867 1.398 . S
C868 C869 1.391 . S
C869 H857 0.950 . S
C869 C865 1.393 . S
C869 C868 1.391 . S
C870 H860 0.950 . S
C870 C871 1.386 . S
C870 C872 1.391 . S
C871 C870 1.386 . S
C871 C875 1.393 . S
C872 H861 0.950 . S
C872 C870 1.391 . S
C872 C873 1.400 . S
C873 C867 1.491 1_554 S
C873 C872 1.400 . S
C873 C874 1.398 . S
C874 H862 0.950 1_554 S
C874 C873 1.398 . S
C874 C875 1.391 . S
C875 H863 0.950 . S
C875 C871 1.393 . S
C875 C874 1.391 . S
H876 C884 0.950 . S
H877 C889 0.950 . S
H878 C886 0.950 . S
H879 C888 0.950 . S
H880 C890 0.950 . S
H881 C892 0.950 . S
H882 C894 0.950 . S
H883 C895 0.950 . S
C884 H876 0.950 . S
C884 C885 1.386 . S
C884 C886 1.391 . S
C885 C884 1.386 . S
C885 C889 1.393 . S
C886 H878 0.950 . S
C886 C884 1.391 . S
C886 C887 1.400 . S
C887 C886 1.400 . S
C887 C888 1.398 . S
C887 C893 1.491 . S
C888 H879 0.950 . S
C888 C887 1.398 . S
C888 C889 1.391 . S
C889 H877 0.950 . S
C889 C885 1.393 . S
C889 C888 1.391 . S
C890 H880 0.950 . S
C890 C891 1.386 . S
C890 C892 1.391 . S
C891 C890 1.386 . S
C891 C895 1.393 . S
C892 H881 0.950 . S
C892 C890 1.391 . S
C892 C893 1.400 . S
C893 C887 1.491 . S
C893 C892 1.400 . S
C893 C894 1.398 . S
C894 H882 0.950 . S
C894 C893 1.398 . S
C894 C895 1.391 . S
C895 H883 0.950 . S
C895 C891 1.393 . S
C895 C894 1.391 . S
H896 C904 0.953 . S
H897 C909 0.950 . S
H898 C906 0.950 . S
H899 C908 0.950 . S
H900 C910 0.953 . S
H901 C912 0.950 . S
H902 C914 0.950 . S
H903 C915 0.950 . S
C904 H896 0.953 . S
C904 C905 1.386 . S
C904 C906 1.391 1_455 S
C905 C904 1.386 . S
C905 C909 1.393 . S
C906 H898 0.950 . S
C906 C904 1.391 1_655 S
C906 C907 1.400 1_655 S
C907 C906 1.400 1_455 S
C907 C908 1.398 . S
C907 C913 1.491 1_455 S
C908 H899 0.950 . S
C908 C907 1.398 . S
C908 C909 1.391 . S
C909 H897 0.950 . S
C909 C905 1.393 . S
C909 C908 1.391 . S
C910 H900 0.953 . S
C910 C911 1.386 . S
C910 C912 1.391 1_655 S
C911 C910 1.386 . S
C911 C915 1.393 . S
C912 H901 0.950 . S
C912 C910 1.391 1_455 S
C912 C913 1.400 1_455 S
C913 C907 1.491 1_655 S
C913 C912 1.400 1_655 S
C913 C914 1.398 . S
C914 H902 0.950 . S
C914 C913 1.398 . S
C914 C915 1.391 . S
C915 H903 0.950 . S
C915 C911 1.393 . S
C915 C914 1.391 . S
H916 C924 0.950 . S
H917 C929 0.950 . S
H918 C926 0.950 . S
H919 C928 0.950 . S
H920 C930 0.950 . S
H921 C932 0.950 . S
H922 C934 0.950 . S
H923 C935 0.950 . S
C924 H916 0.950 . S
C924 C925 1.386 . S
C924 C926 1.391 . S
C925 C924 1.386 . S
C925 C929 1.393 . S
C926 H918 0.950 . S
C926 C924 1.391 . S
C926 C927 1.400 . S
C927 C926 1.400 . S
C927 C928 1.398 . S
C927 C933 1.491 . S
C928 H919 0.950 . S
C928 C927 1.398 . S
C928 C929 1.391 . S
C929 H917 0.950 . S
C929 C925 1.393 . S
C929 C928 1.391 . S
C930 H920 0.950 . S
C930 C931 1.386 . S
C930 C932 1.391 . S
C931 C930 1.386 . S
C931 C935 1.393 . S
C932 H921 0.950 . S
C932 C930 1.391 . S
C932 C933 1.400 . S
C933 C927 1.491 . S
C933 C932 1.400 . S
C933 C934 1.398 . S
C934 H922 0.950 . S
C934 C933 1.398 . S
C934 C935 1.391 . S
C935 H923 0.950 . S
C935 C931 1.393 . S
C935 C934 1.391 . S
H936 C944 0.950 . S
H937 C949 0.950 . S
H938 C946 0.950 . S
H939 C948 0.950 . S
H940 C950 0.950 . S
H941 C952 0.950 . S
H942 C954 0.950 . S
H943 C955 0.950 . S
C944 H936 0.950 . S
C944 C945 1.386 . S
C944 C946 1.391 . S
C945 C944 1.386 . S
C945 C949 1.393 . S
C946 H938 0.950 . S
C946 C944 1.391 . S
C946 C947 1.400 . S
C947 C946 1.400 . S
C947 C948 1.398 . S
C947 C953 1.491 . S
C948 H939 0.950 . S
C948 C947 1.398 . S
C948 C949 1.391 . S
C949 H937 0.950 . S
C949 C945 1.393 . S
C949 C948 1.391 . S
C950 H940 0.950 . S
C950 C951 1.386 . S
C950 C952 1.391 . S
C951 C950 1.386 . S
C951 C955 1.393 . S
C952 H941 0.950 . S
C952 C950 1.391 . S
C952 C953 1.400 . S
C953 C947 1.491 . S
C953 C952 1.400 . S
C953 C954 1.398 . S
C954 H942 0.950 . S
C954 C953 1.398 . S
C954 C955 1.391 . S
C955 H943 0.950 . S
C955 C951 1.393 . S
C955 C954 1.391 . S
H956 C964 0.950 . S
H957 C969 0.950 . S
H958 C966 0.950 . S
H959 C968 0.950 . S
H960 C970 0.950 . S
H961 C972 0.950 . S
H962 C974 0.950 . S
H963 C975 0.950 . S
C964 H956 0.950 . S
C964 C965 1.386 . S
C964 C966 1.391 . S
C965 C964 1.386 . S
C965 C969 1.393 . S
C966 H958 0.950 . S
C966 C964 1.391 . S
C966 C967 1.400 . S
C967 C966 1.400 . S
C967 C968 1.398 . S
C967 C973 1.491 . S
C968 H959 0.950 . S
C968 C967 1.398 . S
C968 C969 1.391 . S
C969 H957 0.950 . S
C969 C965 1.393 . S
C969 C968 1.391 . S
C970 H960 0.950 . S
C970 C971 1.386 . S
C970 C972 1.391 . S
C971 C970 1.386 . S
C971 C975 1.393 . S
C972 H961 0.950 . S
C972 C970 1.391 . S
C972 C973 1.400 . S
C973 C967 1.491 . S
C973 C972 1.400 . S
C973 C974 1.398 . S
C974 H962 0.950 . S
C974 C973 1.398 . S
C974 C975 1.391 . S
C975 H963 0.950 . S
C975 C971 1.393 . S
C975 C974 1.391 . S
H976 C984 0.950 . S
H977 C989 0.950 . S
H978 C986 0.950 . S
H979 C988 0.950 . S
H980 C990 0.950 . S
H981 C992 0.950 . S
H982 C994 0.950 . S
H983 C995 0.950 . S
C984 H976 0.950 . S
C984 C985 1.386 . S
C984 C986 1.391 . S
C985 C984 1.386 . S
C985 C989 1.393 . S
C986 H978 0.950 . S
C986 C984 1.391 . S
C986 C987 1.400 . S
C987 C986 1.400 . S
C987 C988 1.398 . S
C987 C993 1.491 . S
C988 H979 0.950 . S
C988 C987 1.398 . S
C988 C989 1.391 . S
C989 H977 0.950 . S
C989 C985 1.393 . S
C989 C988 1.391 . S
C990 H980 0.950 . S
C990 C991 1.386 . S
C990 C992 1.391 . S
C991 C990 1.386 . S
C991 C995 1.393 . S
C992 H981 0.950 . S
C992 C990 1.391 . S
C992 C993 1.400 . S
C993 C987 1.491 . S
C993 C992 1.400 . S
C993 C994 1.398 . S
C994 H982 0.950 . S
C994 C993 1.398 . S
C994 C995 1.391 . S
C995 H983 0.950 . S
C995 C991 1.393 . S
C995 C994 1.391 . S
H996 C1004 0.950 . S
H997 C1009 0.950 . S
H998 C1006 0.950 . S
H999 C1008 0.950 . S
H1000 C1010 0.950 . S
H1001 C1012 0.950 . S
H1002 C1014 0.950 . S
H1003 C1015 0.950 . S
C1004 H996 0.950 . S
C1004 C1005 1.386 . S
C1004 C1006 1.391 . S
C1005 C1004 1.386 . S
C1005 C1009 1.393 . S
C1006 H998 0.950 . S
C1006 C1004 1.391 . S
C1006 C1007 1.400 . S
C1007 C1006 1.400 . S
C1007 C1008 1.398 1_565 S
C1007 C1013 1.491 1_565 S
C1008 H999 0.950 . S
C1008 C1007 1.398 1_545 S
C1008 C1009 1.391 1_545 S
C1009 H997 0.950 . S
C1009 C1005 1.393 . S
C1009 C1008 1.391 1_565 S
C1010 H1000 0.950 . S
C1010 C1011 1.386 . S
C1010 C1012 1.391 . S
C1011 C1010 1.386 . S
C1011 C1015 1.393 . S
C1012 H1001 0.950 . S
C1012 C1010 1.391 . S
C1012 C1013 1.400 . S
C1013 C1007 1.491 1_545 S
C1013 C1012 1.400 . S
C1013 C1014 1.398 1_545 S
C1014 H1002 0.950 . S
C1014 C1013 1.398 1_565 S
C1014 C1015 1.391 1_565 S
C1015 H1003 0.950 . S
C1015 C1011 1.393 . S
C1015 C1014 1.391 1_545 S
H1016 C1024 0.950 . S
H1017 C1029 0.950 . S
H1018 C1026 0.950 . S
H1019 C1028 0.950 . S
H1020 C1030 0.950 . S
H1021 C1032 0.950 . S
H1022 C1034 0.950 . S
H1023 C1035 0.950 . S
C1024 H1016 0.950 . S
C1024 C1025 1.386 . S
C1024 C1026 1.391 . S
C1025 C1024 1.386 . S
C1025 C1029 1.393 . S
C1026 H1018 0.950 . S
C1026 C1024 1.391 . S
C1026 C1027 1.400 . S
C1027 C1026 1.400 . S
C1027 C1028 1.398 . S
C1027 C1033 1.491 . S
C1028 H1019 0.950 . S
C1028 C1027 1.398 . S
C1028 C1029 1.391 . S
C1029 H1017 0.950 . S
C1029 C1025 1.393 . S
C1029 C1028 1.391 . S
C1030 H1020 0.950 . S
C1030 C1031 1.386 . S
C1030 C1032 1.391 . S
C1031 C1030 1.386 . S
C1031 C1035 1.393 . S
C1032 H1021 0.950 . S
C1032 C1030 1.391 . S
C1032 C1033 1.400 . S
C1033 C1027 1.491 . S
C1033 C1032 1.400 . S
C1033 C1034 1.398 . S
C1034 H1022 0.950 . S
C1034 C1033 1.398 . S
C1034 C1035 1.391 . S
C1035 H1023 0.950 . S
C1035 C1031 1.393 . S
C1035 C1034 1.391 . S
H1036 C1044 0.950 . S
H1037 C1049 0.950 . S
H1038 C1046 0.950 . S
H1039 C1048 0.950 . S
H1040 C1050 0.950 . S
H1041 C1052 0.950 . S
H1042 C1054 0.950 . S
H1043 C1055 0.950 . S
C1044 H1036 0.950 . S
C1044 C1045 1.386 . S
C1044 C1046 1.391 . S
C1045 C1044 1.386 . S
C1045 C1049 1.393 . S
C1046 H1038 0.950 . S
C1046 C1044 1.391 . S
C1046 C1047 1.400 . S
C1047 C1046 1.400 . S
C1047 C1048 1.398 . S
C1047 C1053 1.491 1_554 S
C1048 H1039 0.950 . S
C1048 C1047 1.398 . S
C1048 C1049 1.391 . S
C1049 H1037 0.950 . S
C1049 C1045 1.393 . S
C1049 C1048 1.391 . S
C1050 H1040 0.950 . S
C1050 C1051 1.386 . S
C1050 C1052 1.391 . S
C1051 C1050 1.386 . S
C1051 C1055 1.393 . S
C1052 H1041 0.950 . S
C1052 C1050 1.391 . S
C1052 C1053 1.400 . S
C1053 C1047 1.491 1_556 S
C1053 C1052 1.400 . S
C1053 C1054 1.398 . S
C1054 H1042 0.950 . S
C1054 C1053 1.398 . S
C1054 C1055 1.391 . S
C1055 H1043 0.950 . S
C1055 C1051 1.393 . S
C1055 C1054 1.391 . S
H1056 C1064 0.950 . S
H1057 C1069 0.950 . S
H1058 C1066 0.950 . S
H1059 C1068 0.950 . S
H1060 C1070 0.950 . S
H1061 C1072 0.950 . S
H1062 C1074 0.950 . S
H1063 C1075 0.950 . S
C1064 H1056 0.950 . S
C1064 C1065 1.386 . S
C1064 C1066 1.391 . S
C1065 C1064 1.386 . S
C1065 C1069 1.393 . S
C1066 H1058 0.950 . S
C1066 C1064 1.391 . S
C1066 C1067 1.400 . S
C1067 C1066 1.400 . S
C1067 C1068 1.398 . S
C1067 C1073 1.491 . S
C1068 H1059 0.950 . S
C1068 C1067 1.398 . S
C1068 C1069 1.391 . S
C1069 H1057 0.950 . S
C1069 C1065 1.393 . S
C1069 C1068 1.391 . S
C1070 H1060 0.950 . S
C1070 C1071 1.386 . S
C1070 C1072 1.391 . S
C1071 C1070 1.386 . S
C1071 C1075 1.393 . S
C1072 H1061 0.950 . S
C1072 C1070 1.391 . S
C1072 C1073 1.400 . S
C1073 C1067 1.491 . S
C1073 C1072 1.400 . S
C1073 C1074 1.398 . S
C1074 H1062 0.950 . S
C1074 C1073 1.398 . S
C1074 C1075 1.391 . S
C1075 H1063 0.950 . S
C1075 C1071 1.393 . S
C1075 C1074 1.391 . S
H1076 C1084 0.950 . S
H1077 C1089 0.950 . S
H1078 C1086 0.950 . S
H1079 C1088 0.950 . S
H1080 C1090 0.950 . S
H1081 C1092 0.950 . S
H1082 C1094 0.950 . S
H1083 C1095 0.940 1_545 S
C1084 H1076 0.950 . S
C1084 C1085 1.386 . S
C1084 C1086 1.391 . S
C1085 C1084 1.386 . S
C1085 C1089 1.393 . S
C1086 H1078 0.950 . S
C1086 C1084 1.391 . S
C1086 C1087 1.400 . S
C1087 C1086 1.400 . S
C1087 C1088 1.398 . S
C1087 C1093 1.491 . S
C1088 H1079 0.950 . S
C1088 C1087 1.398 . S
C1088 C1089 1.391 . S
C1089 H1077 0.950 . S
C1089 C1085 1.393 . S
C1089 C1088 1.391 . S
C1090 H1080 0.950 . S
C1090 C1091 1.395 . S
C1090 C1092 1.391 . S
C1091 C1090 1.395 . S
C1091 C1095 1.393 . S
C1092 H1081 0.950 . S
C1092 C1090 1.391 . S
C1092 C1093 1.400 . S
C1093 C1087 1.491 . S
C1093 C1092 1.400 . S
C1093 C1094 1.398 . S
C1094 H1082 0.950 . S
C1094 C1093 1.398 . S
C1094 C1095 1.400 . S
C1095 H1083 0.940 1_565 S
C1095 C1091 1.393 . S
C1095 C1094 1.400 . S
H1096 C1104 0.950 . S
H1097 C1109 0.965 . S
H1098 C1106 0.950 . S
H1099 C1108 0.950 . S
H1100 C1110 0.950 . S
H1101 C1112 0.950 . S
H1102 C1114 0.950 . S
H1103 C1115 0.950 . S
C1104 H1096 0.950 . S
C1104 C1105 1.386 . S
C1104 C1106 1.391 . S
C1105 C1104 1.386 . S
C1105 C1109 1.392 1_565 S
C1106 H1098 0.950 . S
C1106 C1104 1.391 . S
C1106 C1107 1.400 . S
C1107 C1106 1.400 . S
C1107 C1108 1.398 . S
C1107 C1113 1.491 . S
C1108 H1099 0.950 . S
C1108 C1107 1.398 . S
C1108 C1109 1.376 1_565 S
C1109 H1097 0.965 . S
C1109 C1105 1.392 1_545 S
C1109 C1108 1.376 1_545 S
C1110 H1100 0.950 . S
C1110 C1111 1.386 . S
C1110 C1112 1.391 . S
C1111 C1110 1.386 . S
C1111 C1115 1.393 . S
C1112 H1101 0.950 . S
C1112 C1110 1.391 . S
C1112 C1113 1.400 . S
C1113 C1107 1.491 . S
C1113 C1112 1.400 . S
C1113 C1114 1.398 . S
C1114 H1102 0.950 . S
C1114 C1113 1.398 . S
C1114 C1115 1.391 . S
C1115 H1103 0.950 . S
C1115 C1111 1.393 . S
C1115 C1114 1.391 . S
H1116 C1124 0.950 . S
H1117 C1129 0.950 . S
H1118 C1126 0.950 . S
H1119 C1128 0.950 . S
H1120 C1130 0.950 . S
H1121 C1132 0.950 . S
H1122 C1134 0.950 . S
H1123 C1135 0.950 . S
C1124 H1116 0.950 . S
C1124 C1125 1.386 . S
C1124 C1126 1.391 . S
C1125 C1124 1.386 . S
C1125 C1129 1.393 . S
C1126 H1118 0.950 . S
C1126 C1124 1.391 . S
C1126 C1127 1.400 . S
C1127 C1126 1.400 . S
C1127 C1128 1.398 . S
C1127 C1133 1.491 . S
C1128 H1119 0.950 . S
C1128 C1127 1.398 . S
C1128 C1129 1.391 . S
C1129 H1117 0.950 . S
C1129 C1125 1.393 . S
C1129 C1128 1.391 . S
C1130 H1120 0.950 . S
C1130 C1131 1.386 . S
C1130 C1132 1.391 . S
C1131 C1130 1.386 . S
C1131 C1135 1.393 . S
C1132 H1121 0.950 . S
C1132 C1130 1.391 . S
C1132 C1133 1.400 . S
C1133 C1127 1.491 . S
C1133 C1132 1.400 . S
C1133 C1134 1.398 . S
C1134 H1122 0.950 . S
C1134 C1133 1.398 . S
C1134 C1135 1.391 . S
C1135 H1123 0.950 . S
C1135 C1131 1.393 . S
C1135 C1134 1.391 . S
H1136 C1144 0.950 . S
H1137 C1149 0.950 . S
H1138 C1146 0.950 . S
H1139 C1148 0.950 . S
H1140 C1150 0.950 . S
H1141 C1152 0.950 . S
H1142 C1154 0.950 . S
H1143 C1155 0.950 . S
C1144 H1136 0.950 . S
C1144 C1145 1.386 . S
C1144 C1146 1.391 . S
C1145 C1144 1.386 . S
C1145 C1149 1.393 . S
C1146 H1138 0.950 . S
C1146 C1144 1.391 . S
C1146 C1147 1.400 . S
C1147 C1146 1.400 . S
C1147 C1148 1.398 . S
C1147 C1153 1.491 . S
C1148 H1139 0.950 . S
C1148 C1147 1.398 . S
C1148 C1149 1.391 . S
C1149 H1137 0.950 . S
C1149 C1145 1.393 . S
C1149 C1148 1.391 . S
C1150 H1140 0.950 . S
C1150 C1151 1.386 . S
C1150 C1152 1.391 . S
C1151 C1150 1.386 . S
C1151 C1155 1.393 . S
C1152 H1141 0.950 . S
C1152 C1150 1.391 . S
C1152 C1153 1.400 . S
C1153 C1147 1.491 . S
C1153 C1152 1.400 . S
C1153 C1154 1.398 . S
C1154 H1142 0.950 . S
C1154 C1153 1.398 . S
C1154 C1155 1.391 . S
C1155 H1143 0.950 . S
C1155 C1151 1.393 . S
C1155 C1154 1.391 . S
H1156 C1164 0.950 . S
H1157 C1169 0.950 1_565 S
H1158 C1166 0.950 . S
H1159 C1168 0.950 . S
H1160 C1170 0.950 . S
H1161 C1172 0.950 . S
H1162 C1174 0.950 . S
H1163 C1175 0.950 . S
C1164 H1156 0.950 . S
C1164 C1165 1.393 . S
C1164 C1166 1.391 . S
C1165 C1164 1.393 . S
C1165 C1169 1.393 . S
C1166 H1158 0.950 . S
C1166 C1164 1.391 . S
C1166 C1167 1.400 . S
C1167 C1166 1.400 . S
C1167 C1168 1.398 . S
C1167 C1173 1.491 . S
C1168 H1159 0.950 . S
C1168 C1167 1.398 . S
C1168 C1169 1.391 . S
C1169 H1157 0.950 1_545 S
C1169 C1165 1.393 . S
C1169 C1168 1.391 . S
C1170 H1160 0.950 . S
C1170 C1171 1.386 . S
C1170 C1172 1.391 . S
C1171 C1170 1.386 . S
C1171 C1175 1.393 . S
C1172 H1161 0.950 . S
C1172 C1170 1.391 . S
C1172 C1173 1.400 . S
C1173 C1167 1.491 . S
C1173 C1172 1.400 . S
C1173 C1174 1.398 . S
C1174 H1162 0.950 . S
C1174 C1173 1.398 . S
C1174 C1175 1.391 . S
C1175 H1163 0.950 . S
C1175 C1171 1.393 . S
C1175 C1174 1.391 . S
H1176 C1184 0.950 . S
H1177 C1189 0.950 . S
H1178 C1186 0.950 . S
H1179 C1188 0.950 . S
H1180 C1190 0.950 . S
H1181 C1192 0.950 . S
H1182 C1194 0.950 . S
H1183 C1195 0.950 . S
C1184 H1176 0.950 . S
C1184 C1185 1.386 . S
C1184 C1186 1.391 . S
C1185 C1184 1.386 . S
C1185 C1189 1.393 . S
C1186 H1178 0.950 . S
C1186 C1184 1.391 . S
C1186 C1187 1.400 . S
C1187 C1186 1.400 . S
C1187 C1188 1.398 . S
C1187 C1193 1.491 . S
C1188 H1179 0.950 . S
C1188 C1187 1.398 . S
C1188 C1189 1.391 . S
C1189 H1177 0.950 . S
C1189 C1185 1.393 . S
C1189 C1188 1.391 . S
C1190 H1180 0.950 . S
C1190 C1191 1.386 . S
C1190 C1192 1.391 . S
C1191 C1190 1.386 . S
C1191 C1195 1.393 . S
C1192 H1181 0.950 . S
C1192 C1190 1.391 . S
C1192 C1193 1.400 . S
C1193 C1187 1.491 . S
C1193 C1192 1.400 . S
C1193 C1194 1.398 . S
C1194 H1182 0.950 . S
C1194 C1193 1.398 . S
C1194 C1195 1.391 . S
C1195 H1183 0.950 . S
C1195 C1191 1.393 . S
C1195 C1194 1.391 . S
H1196 C1204 0.950 . S
H1197 C1209 0.950 . S
H1198 C1206 0.950 . S
H1199 C1208 0.950 . S
H1200 C1210 0.950 . S
H1201 C1212 0.950 . S
H1202 C1214 0.950 . S
H1203 C1215 0.950 . S
C1204 H1196 0.950 . S
C1204 C1205 1.386 . S
C1204 C1206 1.391 . S
C1205 C1204 1.386 . S
C1205 C1209 1.393 . S
C1206 H1198 0.950 . S
C1206 C1204 1.391 . S
C1206 C1207 1.400 . S
C1207 C1206 1.400 . S
C1207 C1208 1.398 . S
C1207 C1213 1.491 . S
C1208 H1199 0.950 . S
C1208 C1207 1.398 . S
C1208 C1209 1.391 . S
C1209 H1197 0.950 . S
C1209 C1205 1.393 . S
C1209 C1208 1.391 . S
C1210 H1200 0.950 . S
C1210 C1211 1.386 . S
C1210 C1212 1.391 . S
C1211 C1210 1.386 . S
C1211 C1215 1.393 . S
C1212 H1201 0.950 . S
C1212 C1210 1.391 . S
C1212 C1213 1.400 . S
C1213 C1207 1.491 . S
C1213 C1212 1.400 . S
C1213 C1214 1.398 . S
C1214 H1202 0.950 . S
C1214 C1213 1.398 . S
C1214 C1215 1.391 . S
C1215 H1203 0.950 . S
C1215 C1211 1.393 . S
C1215 C1214 1.391 . S
H1216 C1224 0.950 . S
H1217 C1229 0.950 . S
H1218 C1226 0.950 . S
H1219 C1228 0.950 . S
H1220 C1230 0.950 . S
H1221 C1232 0.950 . S
H1222 C1234 0.950 . S
H1223 C1235 0.950 . S
C1224 H1216 0.950 . S
C1224 C1225 1.386 . S
C1224 C1226 1.391 . S
C1225 C1224 1.386 . S
C1225 C1229 1.393 . S
C1226 H1218 0.950 . S
C1226 C1224 1.391 . S
C1226 C1227 1.400 . S
C1227 C1226 1.400 . S
C1227 C1228 1.398 . S
C1227 C1233 1.491 . S
C1228 H1219 0.950 . S
C1228 C1227 1.398 . S
C1228 C1229 1.391 . S
C1229 H1217 0.950 . S
C1229 C1225 1.393 . S
C1229 C1228 1.391 . S
C1230 H1220 0.950 . S
C1230 C1231 1.386 . S
C1230 C1232 1.391 . S
C1231 C1230 1.386 . S
C1231 C1235 1.393 . S
C1232 H1221 0.950 . S
C1232 C1230 1.391 . S
C1232 C1233 1.400 . S
C1233 C1227 1.491 . S
C1233 C1232 1.400 . S
C1233 C1234 1.398 . S
C1234 H1222 0.950 . S
C1234 C1233 1.398 . S
C1234 C1235 1.391 . S
C1235 H1223 0.950 . S
C1235 C1231 1.393 . S
C1235 C1234 1.391 . S
H1236 C1244 0.950 . S
H1237 C1249 0.950 . S
H1238 C1246 0.950 . S
H1239 C1248 0.950 . S
H1240 C1250 0.960 . S
H1241 C1252 0.950 . S
H1242 C1254 0.950 . S
H1243 C1255 0.950 . S
C1244 H1236 0.950 . S
C1244 C1245 1.386 . S
C1244 C1246 1.391 . S
C1245 C1244 1.386 . S
C1245 C1249 1.393 . S
C1246 H1238 0.950 . S
C1246 C1244 1.391 . S
C1246 C1247 1.400 . S
C1247 C1246 1.400 . S
C1247 C1248 1.398 . S
C1247 C1253 1.491 . S
C1248 H1239 0.950 . S
C1248 C1247 1.398 . S
C1248 C1249 1.391 . S
C1249 H1237 0.950 . S
C1249 C1245 1.393 . S
C1249 C1248 1.391 . S
C1250 H1240 0.960 . S
C1250 C1251 1.385 1_545 S
C1250 C1252 1.381 1_545 S
C1251 C1250 1.385 1_565 S
C1251 C1255 1.393 . S
C1252 H1241 0.950 . S
C1252 C1250 1.381 1_565 S
C1252 C1253 1.400 . S
C1253 C1247 1.491 . S
C1253 C1252 1.400 . S
C1253 C1254 1.398 . S
C1254 H1242 0.950 . S
C1254 C1253 1.398 . S
C1254 C1255 1.391 . S
C1255 H1243 0.950 . S
C1255 C1251 1.393 . S
C1255 C1254 1.391 . S
H1256 C1264 0.950 . S
H1257 C1269 0.950 . S
H1258 C1266 0.950 . S
H1259 C1268 0.950 . S
H1260 C1270 0.950 . S
H1261 C1272 0.950 . S
H1262 C1274 0.950 . S
H1263 C1275 0.950 . S
C1264 H1256 0.950 . S
C1264 C1265 1.386 . S
C1264 C1266 1.391 . S
C1265 C1264 1.386 . S
C1265 C1269 1.393 . S
C1266 H1258 0.950 . S
C1266 C1264 1.391 . S
C1266 C1267 1.400 . S
C1267 C1266 1.400 . S
C1267 C1268 1.398 . S
C1267 C1273 1.491 . S
C1268 H1259 0.950 . S
C1268 C1267 1.398 . S
C1268 C1269 1.391 . S
C1269 H1257 0.950 . S
C1269 C1265 1.393 . S
C1269 C1268 1.391 . S
C1270 H1260 0.950 . S
C1270 C1271 1.386 . S
C1270 C1272 1.391 . S
C1271 C1270 1.386 . S
C1271 C1275 1.394 . S
C1272 H1261 0.950 . S
C1272 C1270 1.391 . S
C1272 C1273 1.400 . S
C1273 C1267 1.491 . S
C1273 C1272 1.400 . S
C1273 C1274 1.398 . S
C1274 H1262 0.950 . S
C1274 C1273 1.398 . S
C1274 C1275 1.391 . S
C1275 H1263 0.950 . S
C1275 C1271 1.394 . S
C1275 C1274 1.391 . S
H1276 C1284 0.950 . S
H1277 C1289 0.950 . S
H1278 C1286 0.950 . S
H1279 C1288 0.950 . S
H1280 C1290 0.950 . S
H1281 C1292 0.950 . S
H1282 C1294 0.950 . S
H1283 C1295 0.950 . S
C1284 H1276 0.950 . S
C1284 C1285 1.386 . S
C1284 C1286 1.391 . S
C1285 C1284 1.386 . S
C1285 C1289 1.393 . S
C1286 H1278 0.950 . S
C1286 C1284 1.391 . S
C1286 C1287 1.400 . S
C1287 C1286 1.400 . S
C1287 C1288 1.398 . S
C1287 C1293 1.491 . S
C1288 H1279 0.950 . S
C1288 C1287 1.398 . S
C1288 C1289 1.391 . S
C1289 H1277 0.950 . S
C1289 C1285 1.393 . S
C1289 C1288 1.391 . S
C1290 H1280 0.950 . S
C1290 C1291 1.386 . S
C1290 C1292 1.391 . S
C1291 C1290 1.386 . S
C1291 C1295 1.393 . S
C1292 H1281 0.950 . S
C1292 C1290 1.391 . S
C1292 C1293 1.400 . S
C1293 C1287 1.491 . S
C1293 C1292 1.400 . S
C1293 C1294 1.398 . S
C1294 H1282 0.950 . S
C1294 C1293 1.398 . S
C1294 C1295 1.391 . S
C1295 H1283 0.950 . S
C1295 C1291 1.393 . S
C1295 C1294 1.391 . S
H1296 C1304 0.950 . S
H1297 C1309 0.950 . S
H1298 C1306 0.950 . S
H1299 C1308 0.950 . S
H1300 C1310 0.950 . S
H1301 C1312 0.950 . S
H1302 C1314 0.950 . S
H1303 C1315 0.950 . S
C1304 H1296 0.950 . S
C1304 C1305 1.386 . S
C1304 C1306 1.391 . S
C1305 C1304 1.386 . S
C1305 C1309 1.393 . S
C1306 H1298 0.950 . S
C1306 C1304 1.391 . S
C1306 C1307 1.400 . S
C1307 C1306 1.400 . S
C1307 C1308 1.398 . S
C1307 C1313 1.491 . S
C1308 H1299 0.950 . S
C1308 C1307 1.398 . S
C1308 C1309 1.391 . S
C1309 H1297 0.950 . S
C1309 C1305 1.393 . S
C1309 C1308 1.391 . S
C1310 H1300 0.950 . S
C1310 C1311 1.386 . S
C1310 C1312 1.391 . S
C1311 C1310 1.386 . S
C1311 C1315 1.393 . S
C1312 H1301 0.950 . S
C1312 C1310 1.391 . S
C1312 C1313 1.400 . S
C1313 C1307 1.491 . S
C1313 C1312 1.400 . S
C1313 C1314 1.398 . S
C1314 H1302 0.950 . S
C1314 C1313 1.398 . S
C1314 C1315 1.391 . S
C1315 H1303 0.950 . S
C1315 C1311 1.393 . S
C1315 C1314 1.391 . S
H1316 C1324 0.950 . S
H1317 C1329 0.958 . S
H1318 C1326 0.950 . S
H1319 C1328 0.950 . S
H1320 C1330 0.950 . S
H1321 C1332 0.950 . S
H1322 C1334 0.950 . S
H1323 C1335 0.950 . S
C1324 H1316 0.950 . S
C1324 C1325 1.386 . S
C1324 C1326 1.391 . S
C1325 C1324 1.386 . S
C1325 C1329 1.393 . S
C1326 H1318 0.950 . S
C1326 C1324 1.391 . S
C1326 C1327 1.400 . S
C1327 C1326 1.400 . S
C1327 C1328 1.398 . S
C1327 C1333 1.491 . S
C1328 H1319 0.950 . S
C1328 C1327 1.398 . S
C1328 C1329 1.391 . S
C1329 H1317 0.958 . S
C1329 C1325 1.393 . S
C1329 C1328 1.391 . S
C1330 H1320 0.950 . S
C1330 C1331 1.386 . S
C1330 C1332 1.391 . S
C1331 C1330 1.386 . S
C1331 C1335 1.393 . S
C1332 H1321 0.950 . S
C1332 C1330 1.391 . S
C1332 C1333 1.400 . S
C1333 C1327 1.491 . S
C1333 C1332 1.400 . S
C1333 C1334 1.398 . S
C1334 H1322 0.950 . S
C1334 C1333 1.398 . S
C1334 C1335 1.391 . S
C1335 H1323 0.950 . S
C1335 C1331 1.393 . S
C1335 C1334 1.391 . S
H1336 C1344 0.950 . S
H1337 C1349 0.950 . S
H1338 C1346 0.950 . S
H1339 C1348 0.950 . S
H1340 C1350 0.950 1_565 S
H1341 C1352 0.950 . S
H1342 C1354 0.950 . S
H1343 C1355 0.950 . S
C1344 H1336 0.950 . S
C1344 C1345 1.386 . S
C1344 C1346 1.391 . S
C1345 C1344 1.386 . S
C1345 C1349 1.393 . S
C1346 H1338 0.950 . S
C1346 C1344 1.391 . S
C1346 C1347 1.400 . S
C1347 C1346 1.400 . S
C1347 C1348 1.398 . S
C1347 C1353 1.491 . S
C1348 H1339 0.950 . S
C1348 C1347 1.398 . S
C1348 C1349 1.391 . S
C1349 H1337 0.950 . S
C1349 C1345 1.393 . S
C1349 C1348 1.391 . S
C1350 H1340 0.950 1_545 S
C1350 C1351 1.386 . S
C1350 C1352 1.391 . S
C1351 C1350 1.386 . S
C1351 C1355 1.393 . S
C1352 H1341 0.950 . S
C1352 C1350 1.391 . S
C1352 C1353 1.400 . S
C1353 C1347 1.491 . S
C1353 C1352 1.400 . S
C1353 C1354 1.398 . S
C1354 H1342 0.950 . S
C1354 C1353 1.398 . S
C1354 C1355 1.391 . S
C1355 H1343 0.950 . S
C1355 C1351 1.393 . S
C1355 C1354 1.391 . S
H1356 C1364 0.950 . S
H1357 C1369 0.950 . S
H1358 C1366 0.950 . S
H1359 C1368 0.950 . S
H1360 C1370 0.950 . S
H1361 C1372 0.950 . S
H1362 C1374 0.950 . S
H1363 C1375 0.950 . S
C1364 H1356 0.950 . S
C1364 C1365 1.386 . S
C1364 C1366 1.391 . S
C1365 C1364 1.386 . S
C1365 C1369 1.393 . S
C1366 H1358 0.950 . S
C1366 C1364 1.391 . S
C1366 C1367 1.400 . S
C1367 C1366 1.400 . S
C1367 C1368 1.398 . S
C1367 C1373 1.491 . S
C1368 H1359 0.950 . S
C1368 C1367 1.398 . S
C1368 C1369 1.391 . S
C1369 H1357 0.950 . S
C1369 C1365 1.393 . S
C1369 C1368 1.391 . S
C1370 H1360 0.950 . S
C1370 C1371 1.386 . S
C1370 C1372 1.391 . S
C1371 C1370 1.386 . S
C1371 C1375 1.393 . S
C1372 H1361 0.950 . S
C1372 C1370 1.391 . S
C1372 C1373 1.400 . S
C1373 C1367 1.491 . S
C1373 C1372 1.400 . S
C1373 C1374 1.398 . S
C1374 H1362 0.950 . S
C1374 C1373 1.398 . S
C1374 C1375 1.391 . S
C1375 H1363 0.950 . S
C1375 C1371 1.393 . S
C1375 C1374 1.391 . S
H1376 C1384 0.950 . S
H1377 C1389 0.950 . S
H1378 C1386 0.950 . S
H1379 C1388 0.950 . S
H1380 C1390 0.950 . S
H1381 C1392 0.950 . S
H1382 C1394 0.950 . S
H1383 C1395 0.950 1_545 S
C1384 H1376 0.950 . S
C1384 C1385 1.386 . S
C1384 C1386 1.391 . S
C1385 C1384 1.386 . S
C1385 C1389 1.393 . S
C1386 H1378 0.950 . S
C1386 C1384 1.391 . S
C1386 C1387 1.400 . S
C1387 C1386 1.400 . S
C1387 C1388 1.398 . S
C1387 C1393 1.491 . S
C1388 H1379 0.950 . S
C1388 C1387 1.398 . S
C1388 C1389 1.391 . S
C1389 H1377 0.950 . S
C1389 C1385 1.393 . S
C1389 C1388 1.391 . S
C1390 H1380 0.950 . S
C1390 C1391 1.386 . S
C1390 C1392 1.391 . S
C1391 C1390 1.386 . S
C1391 C1395 1.393 . S
C1392 H1381 0.950 . S
C1392 C1390 1.391 . S
C1392 C1393 1.400 . S
C1393 C1387 1.491 . S
C1393 C1392 1.400 . S
C1393 C1394 1.398 . S
C1394 H1382 0.950 . S
C1394 C1393 1.398 . S
C1394 C1395 1.391 . S
C1395 H1383 0.950 1_565 S
C1395 C1391 1.393 . S
C1395 C1394 1.391 . S
H1396 C1404 0.950 . S
H1397 C1409 0.950 . S
H1398 C1406 0.950 . S
H1399 C1408 0.950 . S
H1400 C1410 0.950 . S
H1401 C1412 0.950 . S
H1402 C1414 0.950 . S
H1403 C1415 0.950 . S
C1404 H1396 0.950 . S
C1404 C1405 1.386 . S
C1404 C1406 1.391 . S
C1405 C1404 1.386 . S
C1405 C1409 1.393 . S
C1406 H1398 0.950 . S
C1406 C1404 1.391 . S
C1406 C1407 1.400 . S
C1407 C1406 1.400 . S
C1407 C1408 1.398 . S
C1407 C1413 1.491 . S
C1408 H1399 0.950 . S
C1408 C1407 1.398 . S
C1408 C1409 1.391 . S
C1409 H1397 0.950 . S
C1409 C1405 1.393 . S
C1409 C1408 1.391 . S
C1410 H1400 0.950 . S
C1410 C1411 1.386 . S
C1410 C1412 1.391 . S
C1411 C1410 1.386 . S
C1411 C1415 1.393 . S
C1412 H1401 0.950 . S
C1412 C1410 1.391 . S
C1412 C1413 1.400 . S
C1413 C1407 1.491 . S
C1413 C1412 1.400 . S
C1413 C1414 1.398 . S
C1414 H1402 0.950 . S
C1414 C1413 1.398 . S
C1414 C1415 1.391 . S
C1415 H1403 0.950 . S
C1415 C1411 1.393 . S
C1415 C1414 1.391 . S
H1416 C1424 0.950 . S
H1417 C1429 0.950 . S
H1418 C1426 0.950 . S
H1419 C1428 0.950 . S
H1420 C1430 0.950 . S
H1421 C1432 0.950 . S
H1422 C1434 0.950 . S
H1423 C1435 0.950 . S
C1424 H1416 0.950 . S
C1424 C1425 1.386 . S
C1424 C1426 1.391 . S
C1425 C1424 1.386 . S
C1425 C1429 1.393 . S
C1426 H1418 0.950 . S
C1426 C1424 1.391 . S
C1426 C1427 1.400 . S
C1427 C1426 1.400 . S
C1427 C1428 1.398 . S
C1427 C1433 1.491 . S
C1428 H1419 0.950 . S
C1428 C1427 1.398 . S
C1428 C1429 1.391 . S
C1429 H1417 0.950 . S
C1429 C1425 1.393 . S
C1429 C1428 1.391 . S
C1430 H1420 0.950 . S
C1430 C1431 1.386 . S
C1430 C1432 1.391 . S
C1431 C1430 1.386 . S
C1431 C1435 1.393 . S
C1432 H1421 0.950 . S
C1432 C1430 1.391 . S
C1432 C1433 1.400 . S
C1433 C1427 1.491 . S
C1433 C1432 1.400 . S
C1433 C1434 1.398 . S
C1434 H1422 0.950 . S
C1434 C1433 1.398 . S
C1434 C1435 1.391 . S
C1435 H1423 0.950 . S
C1435 C1431 1.393 . S
C1435 C1434 1.391 . S
H1436 C1444 0.950 . S
H1437 C1449 0.950 1_545 S
H1438 C1446 0.950 . S
H1439 C1448 0.950 . S
H1440 C1450 0.950 . S
H1441 C1452 0.950 . S
H1442 C1454 0.950 . S
H1443 C1455 0.950 . S
C1444 H1436 0.950 . S
C1444 C1445 1.386 . S
C1444 C1446 1.391 . S
C1445 C1444 1.386 . S
C1445 C1449 1.393 . S
C1446 H1438 0.950 . S
C1446 C1444 1.391 . S
C1446 C1447 1.400 . S
C1447 C1446 1.400 . S
C1447 C1448 1.398 . S
C1447 C1453 1.491 . S
C1448 H1439 0.950 . S
C1448 C1447 1.398 . S
C1448 C1449 1.391 . S
C1449 H1437 0.950 1_565 S
C1449 C1445 1.393 . S
C1449 C1448 1.391 . S
C1450 H1440 0.950 . S
C1450 C1451 1.386 . S
C1450 C1452 1.391 . S
C1451 C1450 1.386 . S
C1451 C1455 1.393 . S
C1452 H1441 0.950 . S
C1452 C1450 1.391 . S
C1452 C1453 1.400 . S
C1453 C1447 1.491 . S
C1453 C1452 1.400 . S
C1453 C1454 1.398 . S
C1454 H1442 0.950 . S
C1454 C1453 1.398 . S
C1454 C1455 1.391 . S
C1455 H1443 0.950 . S
C1455 C1451 1.393 . S
C1455 C1454 1.391 . S
H1456 C1464 0.950 . S
H1457 C1469 0.950 . S
H1458 C1466 0.950 . S
H1459 C1468 0.950 . S
H1460 C1470 0.950 . S
H1461 C1472 0.950 . S
H1462 C1474 0.950 . S
H1463 C1475 0.950 1_565 S
C1464 H1456 0.950 . S
C1464 C1465 1.386 . S
C1464 C1466 1.391 . S
C1465 C1464 1.386 . S
C1465 C1469 1.393 . S
C1466 H1458 0.950 . S
C1466 C1464 1.391 . S
C1466 C1467 1.400 . S
C1467 C1466 1.400 . S
C1467 C1468 1.398 . S
C1467 C1473 1.491 . S
C1468 H1459 0.950 . S
C1468 C1467 1.398 . S
C1468 C1469 1.391 . S
C1469 H1457 0.950 . S
C1469 C1465 1.393 . S
C1469 C1468 1.391 . S
C1470 H1460 0.950 . S
C1470 C1471 1.386 . S
C1470 C1472 1.391 . S
C1471 C1470 1.386 . S
C1471 C1475 1.393 . S
C1472 H1461 0.950 . S
C1472 C1470 1.391 . S
C1472 C1473 1.400 . S
C1473 C1467 1.491 . S
C1473 C1472 1.400 . S
C1473 C1474 1.398 . S
C1474 H1462 0.950 . S
C1474 C1473 1.398 . S
C1474 C1475 1.391 . S
C1475 H1463 0.950 1_545 S
C1475 C1471 1.393 . S
C1475 C1474 1.391 . S
H1476 C1484 0.950 . S
H1477 C1489 0.950 . S
H1478 C1486 0.950 . S
H1479 C1488 0.950 . S
H1480 C1490 0.950 . S
H1481 C1492 0.950 . S
H1482 C1494 0.950 . S
H1483 C1495 0.950 . S
C1484 H1476 0.950 . S
C1484 C1485 1.386 . S
C1484 C1486 1.391 . S
C1485 C1484 1.386 . S
C1485 C1489 1.393 . S
C1486 H1478 0.950 . S
C1486 C1484 1.391 . S
C1486 C1487 1.400 . S
C1487 C1486 1.400 . S
C1487 C1488 1.398 . S
C1487 C1493 1.491 . S
C1488 H1479 0.950 . S
C1488 C1487 1.398 . S
C1488 C1489 1.391 . S
C1489 H1477 0.950 . S
C1489 C1485 1.393 . S
C1489 C1488 1.391 . S
C1490 H1480 0.950 . S
C1490 C1491 1.386 . S
C1490 C1492 1.391 . S
C1491 C1490 1.386 . S
C1491 C1495 1.393 . S
C1492 H1481 0.950 . S
C1492 C1490 1.391 . S
C1492 C1493 1.400 . S
C1493 C1487 1.491 . S
C1493 C1492 1.400 . S
C1493 C1494 1.398 . S
C1494 H1482 0.950 . S
C1494 C1493 1.398 . S
C1494 C1495 1.391 . S
C1495 H1483 0.950 . S
C1495 C1491 1.393 . S
C1495 C1494 1.391 . S
H1496 C1504 0.950 . S
H1497 C1509 0.950 . S
H1498 C1506 0.950 . S
H1499 C1508 0.950 . S
H1500 C1510 0.950 . S
H1501 C1512 0.950 . S
H1502 C1514 0.950 . S
H1503 C1515 0.950 . S
C1504 H1496 0.950 . S
C1504 C1505 1.386 . S
C1504 C1506 1.391 . S
C1505 C1504 1.386 . S
C1505 C1509 1.393 . S
C1506 H1498 0.950 . S
C1506 C1504 1.391 . S
C1506 C1507 1.400 . S
C1507 C1506 1.400 . S
C1507 C1508 1.398 . S
C1507 C1513 1.491 . S
C1508 H1499 0.950 . S
C1508 C1507 1.398 . S
C1508 C1509 1.391 . S
C1509 H1497 0.950 . S
C1509 C1505 1.393 . S
C1509 C1508 1.391 . S
C1510 H1500 0.950 . S
C1510 C1511 1.386 . S
C1510 C1512 1.391 . S
C1511 C1510 1.386 . S
C1511 C1515 1.393 . S
C1512 H1501 0.950 . S
C1512 C1510 1.391 . S
C1512 C1513 1.400 . S
C1513 C1507 1.491 . S
C1513 C1512 1.400 . S
C1513 C1514 1.398 . S
C1514 H1502 0.950 . S
C1514 C1513 1.398 . S
C1514 C1515 1.391 . S
C1515 H1503 0.950 . S
C1515 C1511 1.393 . S
C1515 C1514 1.391 . S
H1516 C1524 0.950 . S
H1517 C1529 0.950 . S
H1518 C1526 0.950 . S
H1519 C1528 0.950 . S
H1520 C1530 0.950 1_565 S
H1521 C1532 0.950 . S
H1522 C1534 0.950 . S
H1523 C1535 0.950 . S
C1524 H1516 0.950 . S
C1524 C1525 1.386 . S
C1524 C1526 1.391 . S
C1525 C1524 1.386 . S
C1525 C1529 1.393 . S
C1526 H1518 0.950 . S
C1526 C1524 1.391 . S
C1526 C1527 1.400 . S
C1527 C1526 1.400 . S
C1527 C1528 1.398 . S
C1527 C1533 1.491 . S
C1528 H1519 0.950 . S
C1528 C1527 1.398 . S
C1528 C1529 1.391 . S
C1529 H1517 0.950 . S
C1529 C1525 1.393 . S
C1529 C1528 1.391 . S
C1530 H1520 0.950 1_545 S
C1530 C1531 1.386 . S
C1530 C1532 1.391 . S
C1531 C1530 1.386 . S
C1531 C1535 1.393 . S
C1532 H1521 0.950 . S
C1532 C1530 1.391 . S
C1532 C1533 1.400 . S
C1533 C1527 1.491 . S
C1533 C1532 1.400 . S
C1533 C1534 1.398 . S
C1534 H1522 0.950 . S
C1534 C1533 1.398 . S
C1534 C1535 1.391 . S
C1535 H1523 0.950 . S
C1535 C1531 1.393 . S
C1535 C1534 1.391 . S
H1536 C1544 0.950 . S
H1537 C1549 0.950 . S
H1538 C1546 0.950 . S
H1539 C1548 0.950 . S
H1540 C1550 0.950 . S
H1541 C1552 0.950 . S
H1542 C1554 0.950 . S
H1543 C1555 0.950 1_545 S
C1544 H1536 0.950 . S
C1544 C1545 1.386 . S
C1544 C1546 1.391 . S
C1545 C1544 1.386 . S
C1545 C1549 1.393 . S
C1546 H1538 0.950 . S
C1546 C1544 1.391 . S
C1546 C1547 1.400 . S
C1547 C1546 1.400 . S
C1547 C1548 1.398 . S
C1547 C1553 1.491 . S
C1548 H1539 0.950 . S
C1548 C1547 1.398 . S
C1548 C1549 1.391 . S
C1549 H1537 0.950 . S
C1549 C1545 1.393 . S
C1549 C1548 1.391 . S
C1550 H1540 0.950 . S
C1550 C1551 1.386 . S
C1550 C1552 1.391 . S
C1551 C1550 1.386 . S
C1551 C1555 1.393 . S
C1552 H1541 0.950 . S
C1552 C1550 1.391 . S
C1552 C1553 1.400 . S
C1553 C1547 1.491 . S
C1553 C1552 1.400 . S
C1553 C1554 1.398 . S
C1554 H1542 0.950 . S
C1554 C1553 1.398 . S
C1554 C1555 1.391 . S
C1555 H1543 0.950 1_565 S
C1555 C1551 1.393 . S
C1555 C1554 1.391 . S
H1556 C1564 0.950 . S
H1557 C1569 0.950 . S
H1558 C1566 0.950 . S
H1559 C1568 0.950 . S
H1560 C1570 0.950 . S
H1561 C1572 0.950 . S
H1562 C1574 0.950 . S
H1563 C1575 0.950 . S
C1564 H1556 0.950 . S
C1564 C1565 1.386 . S
C1564 C1566 1.391 . S
C1565 C1564 1.386 . S
C1565 C1569 1.393 . S
C1566 H1558 0.950 . S
C1566 C1564 1.391 . S
C1566 C1567 1.400 . S
C1567 C1566 1.400 . S
C1567 C1568 1.398 . S
C1567 C1573 1.491 . S
C1568 H1559 0.950 . S
C1568 C1567 1.398 . S
C1568 C1569 1.391 . S
C1569 H1557 0.950 . S
C1569 C1565 1.393 . S
C1569 C1568 1.391 . S
C1570 H1560 0.950 . S
C1570 C1571 1.386 . S
C1570 C1572 1.391 . S
C1571 C1570 1.386 . S
C1571 C1575 1.393 . S
C1572 H1561 0.950 . S
C1572 C1570 1.391 . S
C1572 C1573 1.400 . S
C1573 C1567 1.491 . S
C1573 C1572 1.400 . S
C1573 C1574 1.398 . S
C1574 H1562 0.950 . S
C1574 C1573 1.398 . S
C1574 C1575 1.391 . S
C1575 H1563 0.950 . S
C1575 C1571 1.393 . S
C1575 C1574 1.391 . S
H1576 C1584 0.950 . S
H1577 C1589 0.950 . S
H1578 C1586 0.950 . S
H1579 C1588 0.950 . S
H1580 C1590 0.950 . S
H1581 C1592 0.950 . S
H1582 C1594 0.950 . S
H1583 C1595 0.950 . S
C1584 H1576 0.950 . S
C1584 C1585 1.386 . S
C1584 C1586 1.391 . S
C1585 C1584 1.386 . S
C1585 C1589 1.393 . S
C1586 H1578 0.950 . S
C1586 C1584 1.391 . S
C1586 C1587 1.400 . S
C1587 C1586 1.400 . S
C1587 C1588 1.398 . S
C1587 C1593 1.491 . S
C1588 H1579 0.950 . S
C1588 C1587 1.398 . S
C1588 C1589 1.391 . S
C1589 H1577 0.950 . S
C1589 C1585 1.393 . S
C1589 C1588 1.391 . S
C1590 H1580 0.950 . S
C1590 C1591 1.386 . S
C1590 C1592 1.391 . S
C1591 C1590 1.386 . S
C1591 C1595 1.393 . S
C1592 H1581 0.950 . S
C1592 C1590 1.391 . S
C1592 C1593 1.400 . S
C1593 C1587 1.491 . S
C1593 C1592 1.400 . S
C1593 C1594 1.398 . S
C1594 H1582 0.950 . S
C1594 C1593 1.398 . S
C1594 C1595 1.391 . S
C1595 H1583 0.950 . S
C1595 C1591 1.393 . S
C1595 C1594 1.391 . S
H1596 C1604 0.950 . S
H1597 C1609 0.950 1_545 S
H1598 C1606 0.950 . S
H1599 C1608 0.950 . S
H1600 C1610 0.950 . S
H1601 C1612 0.950 . S
H1602 C1614 0.950 . S
H1603 C1615 0.950 . S
C1604 H1596 0.950 . S
C1604 C1605 1.386 . S
C1604 C1606 1.391 . S
C1605 C1604 1.386 . S
C1605 C1609 1.393 . S
C1606 H1598 0.950 . S
C1606 C1604 1.391 . S
C1606 C1607 1.400 . S
C1607 C1606 1.400 . S
C1607 C1608 1.398 . S
C1607 C1613 1.491 . S
C1608 H1599 0.950 . S
C1608 C1607 1.398 . S
C1608 C1609 1.391 . S
C1609 H1597 0.950 1_565 S
C1609 C1605 1.393 . S
C1609 C1608 1.391 . S
C1610 H1600 0.950 . S
C1610 C1611 1.386 . S
C1610 C1612 1.391 . S
C1611 C1610 1.386 . S
C1611 C1615 1.393 . S
C1612 H1601 0.950 . S
C1612 C1610 1.391 . S
C1612 C1613 1.400 . S
C1613 C1607 1.491 . S
C1613 C1612 1.400 . S
C1613 C1614 1.398 . S
C1614 H1602 0.950 . S
C1614 C1613 1.398 . S
C1614 C1615 1.391 . S
C1615 H1603 0.950 . S
C1615 C1611 1.393 . S
C1615 C1614 1.391 . S
H1616 C1624 0.950 . S
H1617 C1629 0.950 . S
H1618 C1626 0.950 . S
H1619 C1628 0.950 . S
H1620 C1630 0.950 1_565 S
H1621 C1632 0.950 . S
H1622 C1634 0.950 . S
H1623 C1635 0.950 . S
C1624 H1616 0.950 . S
C1624 C1625 1.386 . S
C1624 C1626 1.391 . S
C1625 C1624 1.386 . S
C1625 C1629 1.393 . S
C1626 H1618 0.950 . S
C1626 C1624 1.391 . S
C1626 C1627 1.400 . S
C1627 C1626 1.400 . S
C1627 C1628 1.398 . S
C1627 C1633 1.491 . S
C1628 H1619 0.950 . S
C1628 C1627 1.398 . S
C1628 C1629 1.391 . S
C1629 H1617 0.950 . S
C1629 C1625 1.393 . S
C1629 C1628 1.391 . S
C1630 H1620 0.950 1_545 S
C1630 C1631 1.386 . S
C1630 C1632 1.391 . S
C1631 C1630 1.386 . S
C1631 C1635 1.393 . S
C1632 H1621 0.950 . S
C1632 C1630 1.391 . S
C1632 C1633 1.400 . S
C1633 C1627 1.491 . S
C1633 C1632 1.400 . S
C1633 C1634 1.398 . S
C1634 H1622 0.950 . S
C1634 C1633 1.398 . S
C1634 C1635 1.391 . S
C1635 H1623 0.950 . S
C1635 C1631 1.393 . S
C1635 C1634 1.391 . S
H1636 C1644 0.950 . S
H1637 C1649 0.950 . S
H1638 C1646 0.950 . S
H1639 C1648 0.950 . S
H1640 C1650 0.950 . S
H1641 C1652 0.950 . S
H1642 C1654 0.950 . S
H1643 C1655 0.950 . S
C1644 H1636 0.950 . S
C1644 C1645 1.386 . S
C1644 C1646 1.391 . S
C1645 C1644 1.386 . S
C1645 C1649 1.393 . S
C1646 H1638 0.950 . S
C1646 C1644 1.391 . S
C1646 C1647 1.400 . S
C1647 C1646 1.400 . S
C1647 C1648 1.398 . S
C1647 C1653 1.491 . S
C1648 H1639 0.950 . S
C1648 C1647 1.398 . S
C1648 C1649 1.391 . S
C1649 H1637 0.950 . S
C1649 C1645 1.393 . S
C1649 C1648 1.391 . S
C1650 H1640 0.950 . S
C1650 C1651 1.386 . S
C1650 C1652 1.391 . S
C1651 C1650 1.386 . S
C1651 C1655 1.393 . S
C1652 H1641 0.950 . S
C1652 C1650 1.391 . S
C1652 C1653 1.400 . S
C1653 C1647 1.491 . S
C1653 C1652 1.400 . S
C1653 C1654 1.398 . S
C1654 H1642 0.950 . S
C1654 C1653 1.398 . S
C1654 C1655 1.391 . S
C1655 H1643 0.950 . S
C1655 C1651 1.393 . S
C1655 C1654 1.391 . S
H1656 C1664 0.950 . S
H1657 C1669 0.950 . S
H1658 C1666 0.950 . S
H1659 C1668 0.950 . S
H1660 C1670 0.950 . S
H1661 C1672 0.950 . S
H1662 C1674 0.950 . S
H1663 C1675 0.950 . S
C1664 H1656 0.950 . S
C1664 C1665 1.386 . S
C1664 C1666 1.391 . S
C1665 C1664 1.386 . S
C1665 C1669 1.393 . S
C1666 H1658 0.950 . S
C1666 C1664 1.391 . S
C1666 C1667 1.400 . S
C1667 C1666 1.400 . S
C1667 C1668 1.398 . S
C1667 C1673 1.491 . S
C1668 H1659 0.950 . S
C1668 C1667 1.398 . S
C1668 C1669 1.391 . S
C1669 H1657 0.950 . S
C1669 C1665 1.393 . S
C1669 C1668 1.391 . S
C1670 H1660 0.950 . S
C1670 C1671 1.386 . S
C1670 C1672 1.391 . S
C1671 C1670 1.386 . S
C1671 C1675 1.393 . S
C1672 H1661 0.950 . S
C1672 C1670 1.391 . S
C1672 C1673 1.400 . S
C1673 C1667 1.491 . S
C1673 C1672 1.400 . S
C1673 C1674 1.398 . S
C1674 H1662 0.950 . S
C1674 C1673 1.398 . S
C1674 C1675 1.391 . S
C1675 H1663 0.950 . S
C1675 C1671 1.393 . S
C1675 C1674 1.391 . S
H1676 C1684 0.950 . S
H1677 C1689 0.950 . S
H1678 C1686 0.950 . S
H1679 C1688 0.950 . S
H1680 C1690 0.950 . S
H1681 C1692 0.950 . S
H1682 C1694 0.950 . S
H1683 C1695 0.950 . S
C1684 H1676 0.950 . S
C1684 C1685 1.386 . S
C1684 C1686 1.391 . S
C1685 C1684 1.386 . S
C1685 C1689 1.393 . S
C1686 H1678 0.950 . S
C1686 C1684 1.391 . S
C1686 C1687 1.400 . S
C1687 C1686 1.400 . S
C1687 C1688 1.398 . S
C1687 C1693 1.491 . S
C1688 H1679 0.950 . S
C1688 C1687 1.398 . S
C1688 C1689 1.391 . S
C1689 H1677 0.950 . S
C1689 C1685 1.393 . S
C1689 C1688 1.391 . S
C1690 H1680 0.950 . S
C1690 C1691 1.386 . S
C1690 C1692 1.391 . S
C1691 C1690 1.386 . S
C1691 C1695 1.393 . S
C1692 H1681 0.950 . S
C1692 C1690 1.391 . S
C1692 C1693 1.400 . S
C1693 C1687 1.491 . S
C1693 C1692 1.400 . S
C1693 C1694 1.398 . S
C1694 H1682 0.950 . S
C1694 C1693 1.398 . S
C1694 C1695 1.391 . S
C1695 H1683 0.950 . S
C1695 C1691 1.393 . S
C1695 C1694 1.391 . S
C425 C5 1.434 . S
C431 C18 1.412 . S
C445 C44 1.415 . S
C451 C31 1.423 . S
C465 C57 1.412 . S
C471 C70 1.427 . S
C485 C83 1.415 . S
C491 C96 1.434 . S
C505 C109 1.416 . S
C511 C122 1.434 . S
C525 C135 1.425 . S
C531 C148 1.428 . S
C545 C161 1.433 . S
C551 C174 1.417 . S
C565 C187 1.431 . S
C571 C200 1.410 . S
C585 C226 1.412 . S
C591 C213 1.428 . S
C605 C252 1.411 . S
C611 C239 1.434 . S
C625 C278 1.435 . S
C631 C265 1.413 . S
C645 C304 1.434 . S
C651 C291 1.414 . S
C665 C330 1.425 . S
C671 C317 1.428 . S
C685 C356 1.434 . S
C691 C343 1.411 . S
C705 C382 1.417 . S
C711 C369 1.433 . S
C725 C408 1.412 . S
C731 C395 1.434 . S
C745 C0 1.359 . S
C751 C156 1.359 . S
C765 C13 1.355 . S
C771 C273 1.355 . S
C785 C26 1.358 . S
C791 C78 1.358 . S
C805 C39 1.354 . S
C811 C403 1.354 . S
C825 C52 1.361 . S
C831 C104 1.361 . S
C845 C221 1.359 . S
C851 C65 1.359 . S
C865 C351 1.362 . S
C871 C91 1.362 . S
C885 C117 1.357 . S
C891 C377 1.357 . S
C905 C130 1.356 . S
C911 C182 1.356 . S
C925 C143 1.355 . S
C931 C299 1.355 . S
C945 C169 1.361 . S
C951 C325 1.361 . S
C965 C195 1.362 . S
C971 C247 1.362 . S
C985 C364 1.354 . S
C991 C208 1.354 . S
C1005 C286 1.361 . S
C1011 C234 1.361 . S
C1025 C260 1.359 . S
C1031 C312 1.359 . S
C1045 C390 1.361 . S
C1051 C338 1.361 . S
C1065 C138 0.952 . S
C1071 C8 0.913 . S
C1085 C151 0.950 . S
C1091 C21 0.909 1_565 S
C1105 C34 0.953 1_565 S
C1111 C112 0.913 . S
C1125 C125 0.921 . S
C1131 C47 0.942 . S
C1145 C60 0.939 . S
C1151 C190 0.925 . S
C1165 C73 0.912 1_545 S
C1171 C203 0.948 . S
C1185 C164 0.933 . S
C1191 C86 0.931 1_545 S
C1205 C177 0.921 . S
C1211 C99 0.946 . S
C1225 C216 0.938 . S
C1231 C346 0.931 . S
C1245 C359 0.914 . S
C1251 C229 0.951 1_565 S
C1265 C320 0.931 . S
C1271 C242 0.937 1_565 S
C1285 C255 0.929 . S
C1291 C333 0.940 . S
C1305 C398 0.918 . S
C1311 C268 0.949 . S
C1325 C281 0.925 1_545 S
C1331 C411 0.939 . S
C1345 C372 0.938 . S
C1351 C294 0.925 1_545 S
C1365 C385 0.929 . S
C1371 C307 0.934 . S
C1385 C140 1.469 . S
C1391 C10 1.475 1_565 S
C1405 C153 1.476 . S
C1411 C23 1.472 . S
C1425 C114 1.463 . S
C1431 C36 1.455 . S
C1445 C49 1.454 1_565 S
C1451 C127 1.459 . S
C1465 C192 1.457 . S
C1471 C62 1.454 1_545 S
C1485 C205 1.457 . S
C1491 C75 1.454 . S
C1505 C166 1.459 . S
C1511 C88 1.454 . S
C1525 C179 1.466 . S
C1531 C101 1.473 1_545 S
C1545 C348 1.455 . S
C1551 C218 1.461 1_565 S
C1565 C361 1.455 . S
C1571 C231 1.461 . S
C1585 C322 1.471 . S
C1591 C244 1.463 . S
C1605 C257 1.455 1_565 S
C1611 C335 1.461 . S
C1625 C400 1.469 . S
C1631 C270 1.475 1_545 S
C1645 C283 1.469 . S
C1651 C413 1.461 . S
C1665 C374 1.471 . S
C1671 C296 1.462 . S
C1685 C309 1.474 1_545 S
C1691 C387 1.476 . S
