# Generated by pormake.
# Topology fnz, (5)-cn, num edge types: 1
# Building blocks:
#     Node 0, Type 0, BuildingBlock: XOMCOT_clean_sbu_1, # of connection points: 5
#     Node 1, Type 0, BuildingBlock: XOMCOT_clean_sbu_1, # of connection points: 5
#     Node 2, Type 0, BuildingBlock: XOMCOT_clean_sbu_1, # of connection points: 5
#     Node 3, Type 0, BuildingBlock: XOMCOT_clean_sbu_1, # of connection points: 5
#     Node 4, Type 0, BuildingBlock: XOMCOT_clean_sbu_1, # of connection points: 5
#     Node 5, Type 0, BuildingBlock: XOMCOT_clean_sbu_1, # of connection points: 5
#     Node 6, Type 0, BuildingBlock: XOMCOT_clean_sbu_1, # of connection points: 5
#     Node 7, Type 0, BuildingBlock: XOMCOT_clean_sbu_1, # of connection points: 5
#     Node 8, Type 0, BuildingBlock: XOMCOT_clean_sbu_1, # of connection points: 5
#     Node 9, Type 0, BuildingBlock: XOMCOT_clean_sbu_1, # of connection points: 5
#     Node 10, Type 0, BuildingBlock: XOMCOT_clean_sbu_1, # of connection points: 5
#     Node 11, Type 0, BuildingBlock: XOMCOT_clean_sbu_1, # of connection points: 5
#     Edge 12, Type (0, 0), BuildingBlock: TEMPAE_clean_linker_10, # of connection points: 2
#     Edge 13, Type (0, 0), BuildingBlock: TEMPAE_clean_linker_10, # of connection points: 2
#     Edge 14, Type (0, 0), BuildingBlock: TEMPAE_clean_linker_10, # of connection points: 2
#     Edge 15, Type (0, 0), BuildingBlock: TEMPAE_clean_linker_10, # of connection points: 2
#     Edge 16, Type (0, 0), BuildingBlock: TEMPAE_clean_linker_10, # of connection points: 2
#     Edge 17, Type (0, 0), BuildingBlock: TEMPAE_clean_linker_10, # of connection points: 2
#     Edge 18, Type (0, 0), BuildingBlock: TEMPAE_clean_linker_10, # of connection points: 2
#     Edge 19, Type (0, 0), BuildingBlock: TEMPAE_clean_linker_10, # of connection points: 2
#     Edge 20, Type (0, 0), BuildingBlock: TEMPAE_clean_linker_10, # of connection points: 2
#     Edge 21, Type (0, 0), BuildingBlock: TEMPAE_clean_linker_10, # of connection points: 2
#     Edge 22, Type (0, 0), BuildingBlock: TEMPAE_clean_linker_10, # of connection points: 2
#     Edge 23, Type (0, 0), BuildingBlock: TEMPAE_clean_linker_10, # of connection points: 2
#     Edge 24, Type (0, 0), BuildingBlock: TEMPAE_clean_linker_10, # of connection points: 2
#     Edge 25, Type (0, 0), BuildingBlock: TEMPAE_clean_linker_10, # of connection points: 2
#     Edge 26, Type (0, 0), BuildingBlock: TEMPAE_clean_linker_10, # of connection points: 2
#     Edge 27, Type (0, 0), BuildingBlock: TEMPAE_clean_linker_10, # of connection points: 2
#     Edge 28, Type (0, 0), BuildingBlock: TEMPAE_clean_linker_10, # of connection points: 2
#     Edge 29, Type (0, 0), BuildingBlock: TEMPAE_clean_linker_10, # of connection points: 2
#     Edge 30, Type (0, 0), BuildingBlock: TEMPAE_clean_linker_10, # of connection points: 2
#     Edge 31, Type (0, 0), BuildingBlock: TEMPAE_clean_linker_10, # of connection points: 2
#     Edge 32, Type (0, 0), BuildingBlock: TEMPAE_clean_linker_10, # of connection points: 2
#     Edge 33, Type (0, 0), BuildingBlock: TEMPAE_clean_linker_10, # of connection points: 2
#     Edge 34, Type (0, 0), BuildingBlock: TEMPAE_clean_linker_10, # of connection points: 2
#     Edge 35, Type (0, 0), BuildingBlock: TEMPAE_clean_linker_10, # of connection points: 2
#     Edge 36, Type (0, 0), BuildingBlock: TEMPAE_clean_linker_10, # of connection points: 2
#     Edge 37, Type (0, 0), BuildingBlock: TEMPAE_clean_linker_10, # of connection points: 2
#     Edge 38, Type (0, 0), BuildingBlock: TEMPAE_clean_linker_10, # of connection points: 2
#     Edge 39, Type (0, 0), BuildingBlock: TEMPAE_clean_linker_10, # of connection points: 2
#     Edge 40, Type (0, 0), BuildingBlock: TEMPAE_clean_linker_10, # of connection points: 2
#     Edge 41, Type (0, 0), BuildingBlock: TEMPAE_clean_linker_10, # of connection points: 2
# Relax obj value: 0.383
# Max RMSD: 0.283
# Mean RMSD: 0.283
data_MOF--net-fnz--node1-XOMCOT_clean_sbu_1--edge1-TEMPAE_clean_linker_10
_symmetry_space_group_name_H-M    P1
_symmetry_Int_Tables_number       1
_symmetry_cell_setting            triclinic
loop_
_symmetry_equiv_pos_as_xyz
'x, y, z'
_cell_length_a     46.120119
_cell_length_b     45.96019
_cell_length_c     27.583456
_cell_angle_alpha  89.867779
_cell_angle_beta   89.943299
_cell_angle_gamma 120.12445
loop_
_atom_site_label
_atom_site_type_symbol
_atom_site_fract_x
_atom_site_fract_y
_atom_site_fract_z
_atom_type_partial_charge
C0 C 0.50065 0.15163 0.10993 0.0
C1 C 0.5133 0.13009 0.10578 0.0
N2 N 0.4892 0.10083 0.08726 0.0
N3 N 0.46869 0.13631 0.09355 0.0
C4 C 0.46285 0.10539 0.07982 0.0
H5 H 0.51399 0.17674 0.12476 0.0
Co6 Co 0.43723 0.15228 0.09649 0.0
C7 C 0.46217 0.17979 0.18357 0.0
O8 O 0.44368 0.14741 0.19252 0.0
N9 N 0.40631 0.16709 0.10101 0.0
C10 C 0.36047 0.17 0.11601 0.0
C11 C 0.37382 0.1492 0.11469 0.0
C12 C 0.41233 0.19889 0.09537 0.0
N13 N 0.38478 0.20123 0.10412 0.0
O14 O 0.45521 0.17967 0.03604 0.0
H15 H 0.36063 0.12292 0.12454 0.0
H16 H 0.43653 0.22 0.0855 0.0
O17 O 0.4666 0.18946 0.13919 0.0
C18 C 0.47824 0.18576 1.00477 0.0
O19 O 0.49921 0.17485 1.01269 0.0
N20 N 0.40627 0.11491 0.06048 0.0
C21 C 0.36241 0.052 0.02123 0.0
C22 C 0.36536 0.05675 0.07157 0.0
C23 C 0.38744 0.08831 0.09034 0.0
C24 C 0.40233 0.11149 1.0113 0.0
C25 C 0.38053 0.08004 0.9909 0.0
H26 H 0.39081 0.09146 0.12917 0.0
H27 H 0.41643 0.13247 0.98725 0.0
H28 H 0.43972 0.08594 0.06462 0.0
H29 H 0.53783 0.13512 0.11723 0.0
H30 H 0.33514 0.16298 0.12645 0.0
H31 H 0.35116 0.03608 0.09643 0.0
H32 H 0.37872 0.0775 0.95183 0.0
C33 C 0.35209 0.51862 0.06052 0.0
C34 C 0.38661 0.53285 0.06023 0.0
N35 N 0.39444 0.51318 0.03356 0.0
N36 N 0.33832 0.49018 0.03398 0.0
C37 C 0.3648 0.48801 0.01746 0.0
H38 H 0.338 0.52766 0.08048 0.0
Co39 Co 0.29345 0.45616 0.02589 0.0
C40 C 0.26044 0.44737 0.12254 0.0
O41 O 0.24682 0.41485 0.11522 0.0
N42 N 0.24838 0.42183 1.016 0.0
C43 C 0.20166 0.3753 0.99412 0.0
C44 C 0.23596 0.39099 0.99602 0.0
C45 C 0.22079 0.42445 0.02449 0.0
N46 N 0.19208 0.3963 1.01223 0.0
O47 O 0.28338 0.48629 0.98917 0.0
H48 H 0.25029 0.3801 0.9826 0.0
H49 H 0.22181 0.44678 0.03906 0.0
O50 O 0.28049 0.46795 0.09017 0.0
C51 C 0.29486 0.49094 0.94575 0.0
O52 O 0.31478 0.47935 0.93402 0.0
N53 N 0.30476 0.42609 0.0552 0.0
C54 C 0.33321 0.38668 0.07927 0.0
C55 C 0.32923 0.4064 0.11459 0.0
C56 C 0.31563 0.42664 0.10152 0.0
C57 C 0.30971 0.408 0.0205 0.0
C58 C 0.323 0.38761 0.03179 0.0
H59 H 0.31563 0.44389 0.12798 0.0
H60 H 0.30519 0.41107 0.9829 0.0
H61 H 0.36235 0.46773 0.99487 0.0
H62 H 0.40438 0.55496 0.0801 0.0
H63 H 0.18504 0.35018 0.98069 0.0
H64 H 0.33786 0.40731 0.15134 0.0
H65 H 0.32585 0.3732 1.00309 0.0
C66 C 0.84185 0.34575 0.98852 0.0
C67 C 0.86224 0.38022 0.99044 0.0
N68 N 0.88836 0.38933 0.96016 0.0
N69 N 0.855 0.33287 0.95725 0.0
C70 C 0.88292 0.36024 0.93996 0.0
H71 H 0.81989 0.33134 1.01062 0.0
Co72 Co 0.84462 0.28802 0.94562 0.0
C73 C 0.78989 0.26537 0.02242 0.0
O74 O 0.77015 0.27017 0.99329 0.0
N75 N 0.83511 0.24407 0.93324 0.0
C76 C 0.83746 0.19994 0.90565 0.0
C77 C 0.85403 0.23443 0.90838 0.0
C78 C 0.8068 0.21497 0.94419 0.0
N79 N 0.80755 0.18752 0.92814 0.0
O80 O 0.80581 0.27874 0.90662 0.0
H81 H 0.87816 0.25118 0.89235 0.0
H82 H 0.78562 0.21408 0.96234 0.0
O83 O 0.81885 0.27192 1.00739 0.0
C84 C 0.81403 0.29174 0.86413 0.0
O85 O 0.84577 0.31297 0.85505 0.0
N86 N 0.88438 0.29779 0.97743 0.0
C87 C 0.95025 0.32447 1.00913 0.0
C88 C 0.92369 0.31178 0.04268 0.0
C89 C 0.89065 0.29876 0.02601 0.0
C90 C 0.90988 0.30879 0.94472 0.0
C91 C 0.94286 0.32224 0.95966 0.0
H92 H 0.87061 0.29059 0.0522 0.0
H93 H 0.90462 0.30863 0.90649 0.0
H94 H 0.90015 0.3587 0.915 0.0
H95 H 0.85858 0.39707 1.01364 0.0
H96 H 0.84704 0.18537 0.88839 0.0
H97 H 0.92854 0.31304 0.08125 0.0
H98 H 0.96256 0.33131 0.93259 0.0
C99 C 0.48738 0.83652 0.02294 0.0
C100 C 0.47316 0.85679 0.02451 0.0
N101 N 0.49576 0.88659 0.04351 0.0
N102 N 0.51937 0.85394 0.03892 0.0
C103 C 0.52305 0.88396 0.05275 0.0
H104 H 0.47537 0.81093 1.0098 0.0
Co105 Co 0.55149 0.83926 0.04272 0.0
C106 C 0.5176 0.80589 0.12398 0.0
O107 O 0.53162 0.83758 0.13698 0.0
N108 N 0.58277 0.82496 0.04863 0.0
C109 C 0.62821 0.82269 0.06885 0.0
C110 C 0.61479 0.84326 0.06394 0.0
C111 C 0.57718 0.79317 0.04518 0.0
N112 N 0.60449 0.79114 0.05735 0.0
O113 O 0.53692 0.8153 0.9776 0.0
H114 H 0.62741 0.86959 0.0732 0.0
H115 H 0.55324 0.77178 0.03532 0.0
O116 O 0.51977 0.79928 0.07942 0.0
C117 C 0.52787 0.82356 0.93807 0.0
O118 O 0.52609 0.85121 0.93751 0.0
N119 N 0.58479 0.87992 1.01361 0.0
C120 C 0.63579 0.94435 0.98776 0.0
C121 C 0.62413 0.93702 0.03552 0.0
C122 C 0.59898 0.90463 0.04764 0.0
C123 C 0.59795 0.88581 0.96777 0.0
C124 C 0.62275 0.91827 0.95364 0.0
H125 H 0.59072 0.89893 0.08495 0.0
H126 H 0.5903 0.86571 0.94205 0.0
H127 H 0.54521 0.90401 0.06922 0.0
H128 H 0.44817 0.85013 1.01285 0.0
H129 H 0.65301 0.83009 0.08227 0.0
H130 H 0.63417 0.95625 0.06325 0.0
H131 H 0.63228 0.92275 0.91684 0.0
C132 C 0.67184 0.55816 0.94999 0.0
C133 C 0.63987 0.55178 0.94091 0.0
N134 N 0.61995 0.53382 0.97818 0.0
N135 N 0.67242 0.54417 0.99272 0.0
C136 C 0.64019 0.52885 1.00848 0.0
H137 H 0.6938 0.57482 0.92898 0.0
Co138 Co 0.71231 0.55741 0.02739 0.0
C139 C 0.69025 0.50102 0.10637 0.0
O140 O 0.66702 0.46931 0.11141 0.0
N141 N 0.75277 0.57185 0.06233 0.0
C142 C 0.79382 0.59722 0.11647 0.0
C143 C 0.76229 0.59019 0.10364 0.0
C144 C 0.77929 0.56796 0.05128 0.0
N145 N 0.80456 0.58323 0.08356 0.0
O146 O 0.72579 0.53618 0.9769 0.0
H147 H 0.74766 0.59846 0.12374 0.0
H148 H 0.78034 0.55434 0.02012 0.0
O149 O 0.69092 0.51587 0.06637 0.0
C150 C 0.74417 0.55711 0.94392 0.0
O151 O 0.75522 0.58921 0.95158 0.0
N152 N 0.69918 0.58043 0.06962 0.0
C153 C 0.66833 0.61698 0.09369 0.0
C154 C 0.65761 0.58555 0.11523 0.0
C155 C 0.67359 0.56748 0.1027 0.0
C156 C 0.71175 0.61225 0.05221 0.0
C157 C 0.69669 0.63102 0.06381 0.0
H158 H 0.66275 0.54186 0.11503 0.0
H159 H 0.73149 0.62173 0.02526 0.0
H160 H 0.63217 0.51638 0.04321 0.0
H161 H 0.63267 0.56236 0.91137 0.0
H162 H 0.80826 0.61267 0.14663 0.0
H163 H 0.63548 0.57396 0.13804 0.0
H164 H 0.70548 0.65525 0.04654 0.0
C165 C 0.15759 0.65122 0.95395 0.0
C166 C 0.13617 0.61724 0.94641 0.0
N167 N 0.10438 0.61123 0.94678 0.0
N168 N 0.13941 0.66651 0.96037 0.0
C169 C 0.10726 0.6416 0.95414 0.0
H170 H 0.18465 0.66382 0.95559 0.0
Co171 Co 0.15349 0.712 0.97401 0.0
C172 C 0.18773 0.69756 0.06214 0.0
O173 O 0.17798 0.6659 0.0534 0.0
N174 N 0.16705 0.75723 0.98775 0.0
C175 C 0.17685 0.80195 0.03112 0.0
C176 C 0.1618 0.76767 0.03092 0.0
C177 C 0.18565 0.78603 0.9623 0.0
N178 N 0.19195 0.81367 0.98795 0.0
O179 O 0.19182 0.72641 0.93027 0.0
H180 H 0.14898 0.75147 0.06148 0.0
H181 H 0.19522 0.78695 0.9263 0.0
O182 O 0.17929 0.71382 0.03304 0.0
C183 C 0.18259 0.72811 0.88698 0.0
O184 O 0.15142 0.72067 0.88023 0.0
N185 N 0.11441 0.69801 1.01073 0.0
C186 C 0.04908 0.67117 0.04501 0.0
C187 C 0.07145 0.6632 0.06776 0.0
C188 C 0.10427 0.67709 0.05015 0.0
C189 C 0.0932 0.70655 0.98904 0.0
C190 C 0.06057 0.69369 1.00584 0.0
H191 H 0.12059 0.6693 0.06618 0.0
H192 H 0.10131 0.72232 0.957 0.0
H193 H 0.08603 0.64543 0.95642 0.0
H194 H 0.14349 0.59848 0.94124 0.0
H195 H 0.17818 0.81712 0.06192 0.0
H196 H 0.06338 0.64577 0.09799 0.0
H197 H 0.04396 0.70002 0.9867 0.0
C198 C 0.84377 0.50503 0.49316 0.0
C199 C 0.86653 0.49383 0.49236 0.0
N200 N 0.89385 0.51543 0.51802 0.0
N201 N 0.85671 0.53365 0.51906 0.0
C202 C 0.88677 0.53883 0.53455 0.0
H203 H 0.82024 0.49404 0.47382 0.0
Co204 Co 0.84266 0.56547 0.52387 0.0
C205 C 0.81878 0.57028 0.42548 0.0
O206 O 0.83777 0.60285 0.43223 0.0
N207 N 0.82819 0.59712 0.52973 0.0
C208 C 0.8208 0.6412 0.53779 0.0
C209 C 0.84333 0.62998 0.54221 0.0
C210 C 0.79628 0.58891 0.51967 0.0
N211 N 0.79136 0.61532 0.52293 0.0
O212 O 0.80435 0.53506 0.56445 0.0
H213 H 0.86914 0.64551 0.55276 0.0
H214 H 0.77711 0.56402 0.50856 0.0
O215 O 0.81725 0.55009 0.45946 0.0
C216 C 0.81569 0.53807 0.60781 0.0
O217 O 0.8483 0.55593 0.61397 0.0
N218 N 0.88278 0.59624 0.49232 0.0
C219 C 0.95097 0.6321 0.46962 0.0
C220 C 0.92773 0.6099 0.43587 0.0
C221 C 0.89368 0.59151 0.4484 0.0
C222 C 0.90526 0.61807 0.52498 0.0
C223 C 0.93924 0.63662 0.51414 0.0
H224 H 0.87681 0.57161 0.42452 0.0
H225 H 0.89728 0.61853 0.56166 0.0
H226 H 0.90427 0.5609 0.55459 0.0
H227 H 0.86355 0.47209 0.47289 0.0
H228 H 0.82608 0.66673 0.5431 0.0
H229 H 0.93605 0.6051 0.40163 0.0
H230 H 0.95645 0.65315 0.54147 0.0
C231 C 0.35349 0.83538 0.47685 0.0
C232 C 0.38811 0.85441 0.47777 0.0
N233 N 0.39709 0.88658 0.46828 0.0
N234 N 0.34058 0.85564 0.46861 0.0
C235 C 0.36805 0.8865 0.4621 0.0
H236 H 0.33863 0.80857 0.48324 0.0
Co237 Co 0.29431 0.84304 0.46606 0.0
C238 C 0.29294 0.81385 0.3799 0.0
O239 O 0.31116 0.84611 0.37001 0.0
N240 N 0.24945 0.83091 0.46155 0.0
C241 C 0.20268 0.83162 0.44507 0.0
C242 C 0.23701 0.85055 0.447 0.0
C243 C 0.22226 0.79997 0.46716 0.0
N244 N 0.19351 0.79982 0.45749 0.0
O245 O 0.2839 0.8152 0.5272 0.0
H246 H 0.25181 0.87672 0.43689 0.0
H247 H 0.22355 0.7779 0.47744 0.0
O248 O 0.28457 0.80501 0.42414 0.0
C249 C 0.30132 0.82009 0.56595 0.0
O250 O 0.3318 0.84619 0.56781 0.0
N251 N 0.30282 0.88187 0.50144 0.0
C252 C 0.31763 0.94455 0.53851 0.0
C253 C 0.32188 0.94045 0.48909 0.0
C254 C 0.31409 0.90901 0.47147 0.0
C255 C 0.29514 0.88444 0.54858 0.0
C256 C 0.30338 0.91576 0.56822 0.0
H257 H 0.31703 0.9061 0.43317 0.0
H258 H 0.28191 0.86256 0.57131 0.0
H259 H 0.3674 0.909 0.45355 0.0
H260 H 0.40529 0.84532 0.48482 0.0
H261 H 0.18579 0.84025 0.43371 0.0
H262 H 0.33069 0.9612 0.46373 0.0
H263 H 0.29844 0.91719 0.60624 0.0
C264 C 0.4797 0.34043 0.64664 0.0
C265 C 0.49318 0.37473 0.64687 0.0
N266 N 0.48643 0.38416 0.60416 0.0
N267 N 0.46438 0.3276 0.60387 0.0
C268 C 0.46995 0.35534 0.57834 0.0
H269 H 0.47865 0.32598 0.67791 0.0
Co270 Co 0.43125 0.28147 0.59209 0.0
C271 C 0.47903 0.29277 0.506 0.0
O272 O 0.50678 0.31638 0.52584 0.0
N273 N 0.39794 0.23605 0.57951 0.0
C274 C 0.36164 0.1915 0.53675 0.0
C275 C 0.38013 0.22578 0.53795 0.0
C276 C 0.38936 0.20684 0.60309 0.0
N277 N 0.36741 0.17928 0.57769 0.0
O278 O 0.45715 0.26602 0.63045 0.0
H279 H 0.38188 0.24177 0.5082 0.0
H280 H 0.39982 0.20553 0.63729 0.0
O281 O 0.45159 0.28002 0.52996 0.0
C282 C 0.44683 0.26113 0.67468 0.0
O283 O 0.42215 0.26635 0.68608 0.0
N284 N 0.40465 0.29635 0.56206 0.0
C285 C 0.36847 0.32783 0.53852 0.0
C286 C 0.38567 0.32109 0.50231 0.0
C287 C 0.404 0.30541 0.51494 0.0
C288 C 0.38665 0.3012 0.59686 0.0
C289 C 0.36855 0.31705 0.586 0.0
H290 H 0.41866 0.30191 0.48743 0.0
H291 H 0.38762 0.29394 0.63388 0.0
H292 H 0.46041 0.35446 0.54244 0.0
H293 H 0.5042 0.3909 0.67798 0.0
H294 H 0.34703 0.17686 0.5061 0.0
H295 H 0.386 0.32903 0.46521 0.0
H296 H 0.35505 0.32127 0.61473 0.0
C297 C 0.16827 0.53441 0.53644 0.0
C298 C 0.14657 0.54681 0.53237 0.0
N299 N 0.11489 0.52082 0.53549 0.0
N300 N 0.15047 0.50061 0.54153 0.0
C301 C 0.11809 0.49334 0.54099 0.0
H302 H 0.19535 0.54919 0.53603 0.0
Co303 Co 0.16689 0.47044 0.55251 0.0
C304 C 0.18573 0.49288 0.4472 0.0
O305 O 0.16161 0.50012 0.44458 0.0
N306 N 0.18235 0.441 0.56533 0.0
C307 C 0.19515 0.4081 0.60805 0.0
C308 C 0.17815 0.42552 0.6084 0.0
C309 C 0.20183 0.43258 0.53924 0.0
N310 N 0.21015 0.41262 0.56448 0.0
O311 O 0.20592 0.50466 0.58665 0.0
H312 H 0.16468 0.42792 0.6388 0.0
H313 H 0.21024 0.44127 0.5028 0.0
O314 O 0.1905 0.48172 0.48748 0.0
C315 C 0.19812 0.50873 0.62976 0.0
O316 O 0.16629 0.49679 0.63997 0.0
N317 N 0.12759 0.43466 0.52764 0.0
C318 C 0.06351 0.37993 0.51308 0.0
C319 C 0.08577 0.39477 0.47386 0.0
C320 C 0.11808 0.42204 0.48199 0.0
C321 C 0.10681 0.41952 0.56612 0.0
C322 C 0.07465 0.39251 0.55969 0.0
H323 H 0.13499 0.43251 0.45171 0.0
H324 H 0.11496 0.42961 0.6021 0.0
H325 H 0.09689 0.46829 0.5443 0.0
H326 H 0.15367 0.573 0.52858 0.0
H327 H 0.19754 0.39449 0.63841 0.0
H328 H 0.07838 0.38524 0.43739 0.0
H329 H 0.05837 0.38226 0.59099 0.0
C330 C 0.65628 0.15684 0.46874 0.0
C331 C 0.62244 0.13367 0.47254 0.0
N332 N 0.61866 0.10269 0.47541 0.0
N333 N 0.67389 0.14061 0.46921 0.0
C334 C 0.65009 0.10769 0.47409 0.0
H335 H 0.66725 0.18374 0.4645 0.0
Co336 Co 0.72111 0.15928 0.46232 0.0
C337 C 0.70157 0.17144 0.36088 0.0
O338 O 0.6701 0.1475 0.36488 0.0
N339 N 0.76729 0.17712 0.45383 0.0
C340 C 0.81456 0.19004 0.41522 0.0
C341 C 0.78042 0.17355 0.41198 0.0
C342 C 0.7942 0.19598 0.48219 0.0
N343 N 0.82336 0.20423 0.45932 0.0
O344 O 0.7296 0.20016 0.49612 0.0
H345 H 0.76606 0.16031 0.38035 0.0
H346 H 0.79252 0.20353 0.51862 0.0
O347 O 0.72147 0.17786 0.39679 0.0
C348 C 0.72408 0.19269 0.5414 0.0
O349 O 0.71213 0.16119 0.55441 0.0
N350 N 0.71416 0.11836 0.43901 0.0
C351 C 0.69792 0.05133 0.43753 0.0
C352 C 0.69282 0.06631 0.39619 0.0
C353 C 0.70126 0.10022 0.39758 0.0
C354 C 0.72104 0.10472 0.47802 0.0
C355 C 0.71292 0.07139 0.47829 0.0
H356 H 0.6963 0.11108 0.36635 0.0
H357 H 0.73103 0.11949 0.51059 0.0
H358 H 0.6554 0.08738 0.47648 0.0
H359 H 0.60218 0.13912 0.47144 0.0
H360 H 0.83166 0.19254 0.38646 0.0
H361 H 0.68175 0.05182 0.36366 0.0
H362 H 0.71677 0.06111 0.51143 0.0
C363 C 0.48616 0.6486 0.55958 0.0
C364 C 0.47309 0.615 0.57139 0.0
N365 N 0.49812 0.60796 0.56981 0.0
N366 N 0.51927 0.66262 0.5504 0.0
C367 C 0.5258 0.63734 0.55841 0.0
H368 H 0.47212 0.66153 0.55582 0.0
Co369 Co 0.54978 0.70601 0.52601 0.0
C370 C 0.49569 0.68622 0.44254 0.0
O371 O 0.47316 0.65497 0.45295 0.0
N372 N 0.58007 0.74892 0.49945 0.0
C373 C 0.60879 0.78464 0.43992 0.0
C374 C 0.59068 0.75176 0.45301 0.0
C375 C 0.59228 0.78125 0.51366 0.0
N376 N 0.61002 0.80355 0.47783 0.0
O377 O 0.5302 0.7256 0.5695 0.0
H378 H 0.58374 0.73111 0.42828 0.0
H379 H 0.5873 0.78824 0.54875 0.0
O380 O 0.52124 0.70209 0.47008 0.0
C381 C 0.54699 0.73353 0.60924 0.0
O382 O 0.57306 0.72923 0.61153 0.0
N383 N 0.57128 0.6875 0.49076 0.0
C384 C 0.60877 0.65928 0.45907 0.0
C385 C 0.57649 0.64774 0.4406 0.0
C386 C 0.55806 0.66264 0.45664 0.0
C387 C 0.60269 0.69889 0.50853 0.0
C388 C 0.62205 0.68553 0.49258 0.0
H389 H 0.53268 0.65287 0.44411 0.0
H390 H 0.61229 0.71786 0.53656 0.0
H391 H 0.55034 0.63998 0.55444 0.0
H392 H 0.44696 0.59681 0.578 0.0
H393 H 0.61818 0.79357 0.40376 0.0
H394 H 0.5654 0.62694 0.41539 0.0
H395 H 0.64665 0.69448 0.5082 0.0
C396 C 0.51896 0.0704 0.0647 0.0
C397 C 0.48982 0.06989 0.0806 0.0
C398 C 0.51951 0.0403 0.0575 0.0
C399 C 0.49046 0.00885 0.06764 0.0
C400 C 0.46107 0.00828 0.08415 0.0
C401 C 0.46102 0.03868 0.08995 0.0
C402 C 0.55113 0.04214 0.03864 0.0
C403 C 0.42974 0.97555 0.09649 0.0
C404 C 0.48066 0.92789 1.01301 0.0
C405 C 0.49274 0.91613 0.05035 0.0
C406 C 0.48012 0.95816 0.01785 0.0
C407 C 0.49095 0.97662 0.06172 0.0
C408 C 0.5023 0.96423 0.10003 0.0
C409 C 0.50359 0.93451 0.09355 0.0
C410 C 0.4687 0.97079 0.97559 0.0
C411 C 0.51306 0.98236 0.14794 0.0
H412 H 0.54115 0.09439 0.057 0.0
H413 H 0.43854 0.03807 0.10289 0.0
H414 H 0.56086 0.0313 0.06569 0.0
H415 H 0.54558 0.02695 1.00511 0.0
H416 H 0.57108 0.06836 0.03054 0.0
H417 H 0.409 0.97939 0.10901 0.0
H418 H 0.42104 0.95885 0.06438 0.0
H419 H 0.43532 0.96225 0.1254 0.0
H420 H 0.47272 0.91394 0.97937 0.0
H421 H 0.51281 0.92534 0.12248 0.0
H422 H 0.48902 0.99619 0.96468 0.0
H423 H 0.44683 0.97321 0.98631 0.0
H424 H 0.46162 0.95385 0.94371 0.0
H425 H 0.53511 0.00781 0.14255 0.0
H426 H 0.5197 0.96862 0.17483 0.0
H427 H 0.49263 0.98566 0.16319 0.0
C428 C 0.57573 0.52805 0.03547 0.0
C429 C 0.58662 0.52826 0.9878 0.0
C430 C 0.54451 0.52552 0.0449 0.0
C431 C 0.52356 0.52326 1.00579 0.0
C432 C 0.53427 0.52314 0.95766 0.0
C433 C 0.56549 0.52553 0.94932 0.0
C434 C 0.53416 0.52574 0.09676 0.0
C435 C 0.51289 0.52092 0.91483 0.0
C436 C 0.42963 0.48686 0.02497 0.0
C437 C 0.42693 0.51593 0.02776 0.0
C438 C 0.46089 0.4889 0.01892 0.0
C439 C 0.49035 0.52081 1.01496 0.0
C440 C 0.48785 0.55029 0.01829 0.0
C441 C 0.45624 0.54749 0.02499 0.0
C442 C 0.46234 0.45683 1.01653 0.0
C443 C 0.51851 0.58479 1.0138 0.0
H444 H 0.59198 0.5308 0.06552 0.0
H445 H 0.57351 0.52545 0.91243 0.0
H446 H 0.53127 0.54799 0.10296 0.0
H447 H 0.50947 0.50305 0.10409 0.0
H448 H 0.55269 0.52643 0.12311 0.0
H449 H 0.52488 0.52139 0.87966 0.0
H450 H 0.48824 0.49739 0.91698 0.0
H451 H 0.50801 0.54223 0.91555 0.0
H452 H 0.40723 0.46238 0.02816 0.0
H453 H 0.45431 0.57 0.02698 0.0
H454 H 0.47998 0.45725 0.04421 0.0
H455 H 0.47193 0.45478 0.98056 0.0
H456 H 0.43742 0.43408 0.02251 0.0
H457 H 0.53739 0.58803 0.04138 0.0
H458 H 0.51253 0.60522 0.01829 0.0
H459 H 0.53025 0.58755 0.97768 0.0
C460 C 0.04366 0.57724 0.92855 0.0
C461 C 0.07349 0.57911 0.94443 0.0
C462 C 0.01298 0.54668 0.92922 0.0
C463 C 0.0119 0.51704 0.94618 0.0
C464 C 0.04197 0.51857 0.96148 0.0
C465 C 0.07233 0.54949 0.96034 0.0
C466 C 0.98161 0.54626 0.91248 0.0
C467 C 0.04193 0.48766 0.98021 0.0
C468 C 0.92909 0.44509 0.99415 0.0
C469 C 0.91829 0.42211 0.95556 0.0
C470 C 0.95922 0.47613 0.99136 0.0
C471 C 0.97923 0.4846 0.94894 0.0
C472 C 0.9682 0.46184 0.90951 0.0
C473 C 0.93798 0.43094 0.91332 0.0
C474 C 0.97002 0.49955 0.03434 0.0
C475 C 0.98852 0.47001 0.8634 0.0
H476 H 0.04423 0.59976 0.91554 0.0
H477 H 0.09502 0.55062 0.97332 0.0
H478 H 0.96901 0.52701 0.88387 0.0
H479 H 0.96373 0.53927 0.94318 0.0
H480 H 0.9869 0.57104 0.89804 0.0
H481 H 0.06758 0.49258 0.98845 0.0
H482 H 0.02655 0.47854 1.01371 0.0
H483 H 0.03035 0.46711 0.95318 0.0
H484 H 0.91449 0.43847 0.02724 0.0
H485 H 0.92974 0.41365 0.88307 0.0
H486 H 0.97534 0.52491 0.02289 0.0
H487 H 0.99356 0.50238 0.04954 0.0
H488 H 0.95074 0.49027 0.06347 0.0
H489 H 0.99277 0.49421 0.84814 0.0
H490 H 0.97606 0.45013 0.83551 0.0
H491 H 0.01349 0.47311 0.87137 0.0
C492 C 0.05483 0.49617 0.55691 0.0
C493 C 0.08387 0.52169 0.53433 0.0
C494 C 0.02421 0.49584 0.55488 0.0
C495 C 0.0223 0.52174 0.52979 0.0
C496 C 0.05159 0.54798 0.50764 0.0
C497 C 0.08196 0.54764 0.51017 0.0
C498 C 0.99378 0.46755 0.57944 0.0
C499 C 0.05072 0.57616 0.48065 0.0
C500 C 0.9356 0.50127 0.48591 0.0
C501 C 0.92578 0.51649 0.52142 0.0
C502 C 0.96704 0.50323 0.48781 0.0
C503 C 0.98944 0.52084 0.52617 0.0
C504 C 0.97981 0.5364 0.56201 0.0
C505 C 0.9482 0.534 0.55925 0.0
C506 C 0.97632 0.48642 0.44868 0.0
C507 C 0.00284 0.55541 0.60354 0.0
H508 H 0.05599 0.47641 0.57666 0.0
H509 H 0.10407 0.56736 0.49233 0.0
H510 H 0.9835 0.47792 0.60637 0.0
H511 H 0.97386 0.45347 0.55228 0.0
H512 H -0.00048 0.44962 0.5982 0.0
H513 H 0.07578 0.59516 0.46655 0.0
H514 H 0.03307 0.56576 0.44973 0.0
H515 H 0.04138 0.58898 0.50477 0.0
H516 H 0.91897 0.48824 0.45599 0.0
H517 H 0.94093 0.54562 0.58716 0.0
H518 H 0.98075 0.4669 0.46496 0.0
H519 H -1e-05 0.50515 0.43075 0.0
H520 H 0.95651 0.4744 0.42065 0.0
H521 H 0.00838 0.53832 0.62497 0.0
H522 H 0.99188 0.5665 0.6281 0.0
H523 H 0.02706 0.57595 0.58937 0.0
C524 C 0.58557 0.04278 0.45157 0.0
C525 C 0.58767 0.07068 0.47565 0.0
C526 C 0.55534 0.01178 0.44995 0.0
C527 C 0.52648 0.00823 0.47378 0.0
C528 C 0.52866 0.03612 0.49904 0.0
C529 C 0.55906 0.06704 0.4992 0.0
C530 C 0.55416 0.98303 0.4219 0.0
C531 C 0.49879 0.03333 0.5258 0.0
C532 C 0.43881 0.94148 0.4335 0.0
C533 C 0.43037 0.9158 0.46769 0.0
C534 C 0.47027 0.97116 0.43427 0.0
C535 C 0.49373 0.9758 0.47093 0.0
C536 C 0.48544 0.94976 0.50533 0.0
C537 C 0.45404 0.91994 0.50294 0.0
C538 C 0.47827 0.99773 0.39605 0.0
C539 C 0.50932 0.95385 0.5456 0.0
H540 H 0.60743 0.04547 0.43278 0.0
H541 H 0.56061 0.08835 0.51827 0.0
H542 H 0.54756 0.96145 0.4465 0.0
H543 H 0.5344 0.97427 0.39371 0.0
H544 H 0.57845 0.99019 0.40405 0.0
H545 H 0.50504 0.05667 0.54591 0.0
H546 H 0.47839 0.02801 0.49982 0.0
H547 H 0.48894 0.01202 0.55187 0.0
H548 H 0.42069 0.93823 0.40597 0.0
H549 H 0.44743 0.90033 0.52977 0.0
H550 H 0.50214 0.00417 0.37751 0.0
H551 H 0.48173 0.02104 0.4133 0.0
H552 H 0.45818 0.98947 0.3684 0.0
H553 H 0.53373 0.95911 0.5303 0.0
H554 H 0.49938 0.93114 0.56908 0.0
H555 H 0.5142 0.9757 0.56843 0.0
C556 C 0.51386 0.44572 0.61664 0.0
C557 C 0.48913 0.41642 0.59388 0.0
C558 C 0.51474 0.47662 0.61152 0.0
C559 C 0.49048 0.47863 0.58244 0.0
C560 C 0.46593 0.44938 0.55826 0.0
C561 C 0.46545 0.41868 0.56444 0.0
C562 C 0.54133 0.50705 0.63806 0.0
C563 C 0.43967 0.45026 0.52665 0.0
C564 C 0.47439 0.55128 0.60666 0.0
C565 C 0.49542 0.57525 0.57245 0.0
C566 C 0.47227 0.51965 0.61007 0.0
C567 C 0.49097 0.5114 0.57766 0.0
C568 C 0.51136 0.53516 0.54198 0.0
C569 C 0.51368 0.56687 0.54024 0.0
C570 C 0.4506 0.49533 0.6491 0.0
C571 C 0.53068 0.52704 0.50553 0.0
H572 H 0.53241 0.44438 0.63909 0.0
H573 H 0.44578 0.39623 0.54738 0.0
H574 H 0.55696 0.52724 0.61177 0.0
H575 H 0.52934 0.51712 0.6625 0.0
H576 H 0.558 0.50123 0.65996 0.0
H577 H 0.42478 0.42649 0.50617 0.0
H578 H 0.42224 0.45437 0.54948 0.0
H579 H 0.45156 0.47147 0.50049 0.0
H580 H 0.46028 0.55769 0.63154 0.0
H581 H 0.52943 0.58503 0.51306 0.0
H582 H 0.46633 0.48988 0.67369 0.0
H583 H 0.43177 0.47113 0.63267 0.0
H584 H 0.43726 0.50527 0.67097 0.0
H585 H 0.54919 0.52242 0.52448 0.0
H586 H 0.5441 0.54755 0.4786 0.0
H587 H 0.51336 0.50362 0.48586 0.0
C588 C 0.31926 0.01191 0.96224 0.0
C589 C 0.34085 0.01766 1.00143 0.0
C590 C 0.29577 0.97895 0.94799 0.0
C591 C 0.29356 0.95135 0.97415 0.0
C592 C 0.31697 0.95711 1.01133 0.0
C593 C 0.34052 0.99015 0.02409 0.0
C594 C 0.27209 0.97378 0.90692 0.0
C595 C 0.31568 0.92847 0.04014 0.0
C596 C 0.21053 0.87349 1.00018 0.0
C597 C 0.21407 0.84863 0.97602 0.0
C598 C 0.23536 0.90743 0.99733 0.0
C599 C 0.26413 0.917 0.96837 0.0
C600 C 0.26625 0.89256 0.9398 0.0
C601 C 0.24131 0.85851 0.94433 0.0
C602 C 0.23199 0.93258 0.02848 0.0
C603 C 0.29587 0.90192 0.907 0.0
H604 H 0.31958 0.03304 0.94421 0.0
H605 H 0.35798 0.99446 0.05324 0.0
H606 H 0.2681 0.95231 0.88391 0.0
H607 H 0.24738 0.96784 0.9219 0.0
H608 H 0.28157 0.99663 0.88385 0.0
H609 H 0.3372 0.93713 0.0654 0.0
H610 H 0.29213 0.91586 0.06163 0.0
H611 H 0.31561 0.90942 1.0155 0.0
H612 H 0.18898 0.86622 0.02334 0.0
H613 H 0.24423 0.83963 0.92511 0.0
H614 H 0.23588 0.95445 1.00642 0.0
H615 H 0.25154 0.94216 0.05704 0.0
H616 H 0.20705 0.92146 0.04635 0.0
H617 H 0.30415 0.92644 0.88883 0.0
H618 H 0.28994 0.88244 0.87891 0.0
H619 H 0.31716 0.90439 0.92886 0.0
C620 C 0.40631 0.26104 0.12322 0.0
C621 C 0.38164 0.23078 0.10277 0.0
C622 C 0.40232 0.28944 0.12434 0.0
C623 C 0.37333 0.28754 0.10357 0.0
C624 C 0.34868 0.25709 0.08219 0.0
C625 C 0.35299 0.22901 0.08257 0.0
C626 C 0.42875 0.32119 0.14843 0.0
C627 C 0.31777 0.25416 0.05862 0.0
C628 C 0.33885 0.34518 0.13214 0.0
C629 C 0.34839 0.36554 0.09056 0.0
C630 C 0.34892 0.32119 0.13878 0.0
C631 C 0.36867 0.31733 0.10275 0.0
C632 C 0.38034 0.3395 0.06254 0.0
C633 C 0.3703 0.36349 0.05719 0.0
C634 C 0.33664 0.29855 0.18277 0.0
C635 C 0.40142 0.33633 0.02325 0.0
H636 H 0.42821 0.26213 0.13947 0.0
H637 H 0.3341 0.2056 0.06655 0.0
H638 H 0.43802 0.34278 0.123 0.0
H639 H 0.41764 0.32703 0.17999 0.0
H640 H 0.45041 0.31897 0.16114 0.0
H641 H 0.30134 0.22885 0.04286 0.0
H642 H 0.30304 0.25925 0.08564 0.0
H643 H 0.32515 0.27322 0.02935 0.0
H644 H 0.32205 0.3467 0.1582 0.0
H645 H 0.37859 0.37983 0.02566 0.0
H646 H 0.3573 0.2961 0.19907 0.0
H647 H 0.31676 0.27302 0.17181 0.0
H648 H 0.32615 0.30805 0.21078 0.0
H649 H 0.42257 0.33461 0.03919 0.0
H650 H 0.41168 0.35789 0.99752 0.0
H651 H 0.38585 0.31285 1.00256 0.0
C652 C 0.00941 0.37135 1.00378 0.0
C653 C 0.98583 0.34034 0.02413 0.0
C654 C 0.0439 0.38368 1.00855 0.0
C655 C 0.05509 0.36454 0.03441 0.0
C656 C 0.03142 0.33461 0.0585 0.0
C657 C 0.99695 0.32284 0.0531 0.0
C658 C 0.06822 0.41583 0.98269 0.0
C659 C 0.04234 0.31358 0.08665 0.0
C660 C 0.13345 0.368 0.98474 0.0
C661 C 0.15811 0.38944 0.01753 0.0
C662 C 0.09994 0.35962 0.99024 0.0
C663 C 0.09067 0.373 0.02962 0.0
C664 C 0.11544 0.39487 0.0628 0.0
C665 C 0.14895 0.40293 0.05628 0.0
C666 C 0.07444 0.3365 0.95364 0.0
C667 C 0.10652 0.40953 0.10528 0.0
H668 H 0.00077 0.38516 0.98195 0.0
H669 H 0.97874 0.29887 0.06882 0.0
H670 H 0.08802 0.43321 1.00798 0.0
H671 H 0.08079 0.41014 0.9529 0.0
H672 H 0.05563 0.42886 0.96697 0.0
H673 H 0.02173 0.29427 0.10939 0.0
H674 H 0.05057 0.30059 0.06097 0.0
H675 H 0.06397 0.32968 0.1103 0.0
H676 H 0.14046 0.35793 0.95435 0.0
H677 H 0.16786 0.41918 0.08205 0.0
H678 H 0.06277 0.34961 0.93537 0.0
H679 H 0.05412 0.31407 0.97223 0.0
H680 H 0.08569 0.32789 0.92551 0.0
H681 H 0.0957 0.42487 0.0921 0.0
H682 H 0.12859 0.42558 0.12834 0.0
H683 H 0.08711 0.38902 0.12796 0.0
C684 C 0.78308 0.12739 0.90591 0.0
C685 C 0.78198 0.15244 0.93372 0.0
C686 C 0.75938 0.09318 0.91235 0.0
C687 C 0.73335 0.08357 0.94675 0.0
C688 C 0.73142 0.10858 0.97407 0.0
C689 C 0.75586 0.14259 0.9676 0.0
C690 C 0.76259 0.06724 0.88295 0.0
C691 C 0.70377 0.09939 1.01073 0.0
C692 C 0.65603 0.99634 0.93731 0.0
C693 C 0.6618 0.97908 0.97452 0.0
C694 C 0.67911 0.0304 0.92775 0.0
C695 C 0.7089 0.04727 0.95547 0.0
C696 C 0.71524 0.02954 0.99209 0.0
C697 C 0.69145 0.99576 1.00148 0.0
C698 C 0.67117 0.04858 0.889 0.0
C699 C 0.74699 0.04635 0.02177 0.0
H700 H 0.80252 0.13432 0.87899 0.0
H701 H 0.75465 0.1613 0.98983 0.0
H702 H 0.7659 0.05 0.90756 0.0
H703 H 0.73933 0.05172 0.86196 0.0
H704 H 0.78411 0.07883 0.85735 0.0
H705 H 0.70459 0.1219 0.02693 0.0
H706 H 0.67896 0.08375 0.99341 0.0
H707 H 0.70586 0.08416 0.04032 0.0
H708 H 0.63289 0.9835 0.91686 0.0
H709 H 0.69593 0.98231 0.03015 0.0
H710 H 0.69165 0.05968 0.86177 0.0
H711 H 0.66937 0.06962 0.90548 0.0
H712 H 0.64725 0.03172 0.8701 0.0
H713 H 0.76922 0.05726 0.9975 0.0
H714 H 0.74879 0.02862 0.04735 0.0
H715 H 0.74803 0.06736 0.04289 0.0
C716 C 0.58068 0.73101 0.07857 0.0
C717 C 0.60756 0.76157 0.06191 0.0
C718 C 0.58467 0.703 0.08711 0.0
C719 C 0.61618 0.70566 0.07828 0.0
C720 C 0.64305 0.73622 0.06016 0.0
C721 C 0.63842 0.76374 0.05244 0.0
C722 C 0.55552 0.67099 0.10684 0.0
C723 C 0.67691 0.74001 0.0493 0.0
C724 C 0.64941 0.65298 0.13482 0.0
C725 C 0.64778 0.63327 0.09527 0.0
C726 C 0.63627 0.67469 0.13142 0.0
C727 C 0.62166 0.6768 0.08726 0.0
C728 C 0.61753 0.65471 0.04878 0.0
C729 C 0.63066 0.63318 0.05331 0.0
C730 C 0.64052 0.69733 0.17359 0.0
C731 C 0.60214 0.65601 1.00114 0.0
H732 H 0.55687 0.72932 0.08635 0.0
H733 H 0.65908 0.78719 0.03896 0.0
H734 H 0.55213 0.6489 0.08597 0.0
H735 H 0.56074 0.66736 0.14495 0.0
H736 H 0.53172 0.67157 0.10598 0.0
H737 H 0.69495 0.76527 0.03449 0.0
H738 H 0.68767 0.73592 0.08284 0.0
H739 H 0.67419 0.72074 0.02268 0.0
H740 H 0.66274 0.65295 0.16717 0.0
H741 H 0.62942 0.6177 0.02283 0.0
H742 H 0.61719 0.69815 0.17992 0.0
H743 H 0.66075 0.72333 0.16517 0.0
H744 H 0.64724 0.68897 0.20746 0.0
H745 H 0.57924 0.65768 1.00714 0.0
H746 H 0.59562 0.63366 0.97834 0.0
H747 H 0.62027 0.67885 0.98078 0.0
C748 C 0.85291 0.58973 0.03609 0.0
C749 C 0.83773 0.58758 0.08104 0.0
C750 C 0.88692 0.59914 0.03309 0.0
C751 C 0.9061 0.60642 0.07608 0.0
C752 C 0.89029 0.6019 0.12166 0.0
C753 C 0.85635 0.59268 0.12356 0.0
C754 C 0.90281 0.6033 0.9838 0.0
C755 C 0.90962 0.60852 0.16836 0.0
C756 C 0.99416 0.61956 0.06428 0.0
C757 C 0.01325 0.65464 0.05921 0.0
C758 C 0.95928 0.60336 0.07134 0.0
C759 C 0.94324 0.62277 0.07306 0.0
C760 C 0.96267 0.65829 0.0699 0.0
C761 C 0.9974 0.67376 0.06307 0.0
C762 C 0.93962 0.56546 0.07457 0.0
C763 C 0.94664 0.67998 0.07202 0.0
H764 H 0.83877 0.58595 1.00308 0.0
H765 H 0.8446 0.59042 0.1584 0.0
H766 H 0.92072 0.63035 0.97692 0.0
H767 H 0.9172 0.58991 0.9825 0.0
H768 H 0.88393 0.59365 0.95425 0.0
H769 H 0.89289 0.6 0.20063 0.0
H770 H 0.92449 0.5956 0.16813 0.0
H771 H 0.92751 0.63589 0.17187 0.0
H772 H 0.00625 0.60464 0.06065 0.0
H773 H 0.01217 0.7009 0.05962 0.0
H774 H 0.92877 0.55503 0.03853 0.0
H775 H 0.91864 0.55667 0.10087 0.0
H776 H 0.95584 0.55508 0.08538 0.0
H777 H 0.92917 0.67391 0.0411 0.0
H778 H 0.96544 0.70727 0.07068 0.0
H779 H 0.93174 0.67471 0.10582 0.0
C780 C 0.13378 0.77588 0.47563 0.0
C781 C 0.1599 0.77169 0.45801 0.0
C782 C 0.10053 0.74944 0.47448 0.0
C783 C 0.09311 0.71812 0.45433 0.0
C784 C 0.11944 0.71363 0.43661 0.0
C785 C 0.15268 0.74049 0.43905 0.0
C786 C 0.07332 0.75512 0.49477 0.0
C787 C 0.11246 0.68085 0.41406 0.0
C788 C 0.0087 0.64837 0.49664 0.0
C789 C 0.98756 0.64908 0.46071 0.0
C790 C 0.04358 0.66879 0.49314 0.0
C791 C 0.05761 0.6904 0.45263 0.0
C792 C 0.03655 0.68891 0.41415 0.0
C793 C 0.00163 0.66821 0.41867 0.0
C794 C 0.06508 0.66915 0.53464 0.0
C795 C 0.05066 0.71102 0.36987 0.0
H796 H 0.13953 0.79996 0.49063 0.0
H797 H 0.17294 0.7375 0.42482 0.0
H798 H 0.05515 0.75159 0.46586 0.0
H799 H 0.05933 0.73639 0.52368 0.0
H800 H 0.08346 0.78073 0.51015 0.0
H801 H 0.13586 0.68046 0.40593 0.0
H802 H 0.09652 0.65941 0.43837 0.0
H803 H 0.09842 0.67688 0.37977 0.0
H804 H 0.9978 0.6328 0.5286 0.0
H805 H 0.9853 0.6685 0.39067 0.0
H806 H 0.07435 0.69286 0.55535 0.0
H807 H 0.08729 0.66837 0.52096 0.0
H808 H 0.05098 0.64763 0.55984 0.0
H809 H 0.05853 0.73738 0.37959 0.0
H810 H 0.03196 0.70304 0.34017 0.0
H811 H 0.07315 0.71069 0.35634 0.0
C812 C 0.32994 0.11897 0.56046 0.0
C813 C 0.35675 0.14428 0.58685 0.0
C814 C 0.32326 0.08571 0.56096 0.0
C815 C 0.34285 0.07697 0.59036 0.0
C816 C 0.36764 0.10148 0.62102 0.0
C817 C 0.37467 0.13499 0.61839 0.0
C818 C 0.29679 0.06052 0.52723 0.0
C819 C 0.38792 0.09273 0.65468 0.0
C820 C 0.30788 0.98253 0.59412 0.0
C821 C 0.32685 0.97852 0.55757 0.0
C822 C 0.31455 0.0147 0.60821 0.0
C823 C 0.33995 0.04345 0.58401 0.0
C824 C 0.36024 0.03968 0.54895 0.0
C825 C 0.35391 0.00741 0.53701 0.0
C826 C 0.29331 0.01773 0.6473 0.0
C827 C 0.38734 0.06957 0.52168 0.0
H828 H 0.31493 0.12537 0.53752 0.0
H829 H 0.3952 0.15396 0.63945 0.0
H830 H 0.30875 0.05224 0.4998 0.0
H831 H 0.27847 0.03788 0.54767 0.0
H832 H 0.28296 0.07106 0.50795 0.0
H833 H 0.4015 0.1126 0.68221 0.0
H834 H 0.37152 0.06853 0.67354 0.0
H835 H 0.40665 0.08966 0.63346 0.0
H836 H 0.28693 0.96061 0.61049 0.0
H837 H 0.36966 0.00484 0.51021 0.0
H838 H 0.27379 0.02176 0.6304 0.0
H839 H 0.30871 0.03958 0.67109 0.0
H840 H 0.28056 0.99463 0.66999 0.0
H841 H 0.37588 0.08161 0.50008 0.0
H842 H 0.40165 0.06244 0.49672 0.0
H843 H 0.40516 0.08867 0.54737 0.0
C844 C 0.23055 0.37249 0.57213 0.0
C845 C 0.23278 0.40107 0.55015 0.0
C846 C 0.25412 0.36257 0.56228 0.0
C847 C 0.28055 0.38151 0.5292 0.0
C848 C 0.28219 0.40952 0.50512 0.0
C849 C 0.25831 0.41904 0.51595 0.0
C850 C 0.25142 0.33248 0.58876 0.0
C851 C 0.30979 0.43005 0.46921 0.0
C852 C 0.35602 0.3732 0.55806 0.0
C853 C 0.35057 0.34631 0.52821 0.0
C854 C 0.33487 0.38683 0.556 0.0
C855 C 0.3076 0.37315 0.52324 0.0
C856 C 0.30384 0.34803 0.48997 0.0
C857 C 0.32547 0.33483 0.49287 0.0
C858 C 0.34014 0.41391 0.59171 0.0
C859 C 0.27547 0.33325 0.45393 0.0
H860 H 0.21052 0.35803 0.59769 0.0
H861 H 0.26043 0.44125 0.49888 0.0
H862 H 0.25099 0.31404 0.56247 0.0
H863 H 0.2737 0.3406 0.61225 0.0
H864 H 0.22857 0.31963 0.61177 0.0
H865 H 0.30651 0.44998 0.45163 0.0
H866 H 0.33441 0.44213 0.48781 0.0
H867 H 0.31059 0.41348 0.4407 0.0
H868 H 0.37593 0.3825 0.58475 0.0
H869 H 0.32137 0.3141 0.46965 0.0
H870 H 0.3201 0.4031 0.61968 0.0
H871 H 0.33852 0.43452 0.5733 0.0
H872 H 0.36479 0.42475 0.61021 0.0
H873 H 0.25172 0.31604 0.47307 0.0
H874 H 0.27956 0.31877 0.42521 0.0
H875 H 0.27231 0.35329 0.43661 0.0
C876 C 0.00906 0.35309 0.46783 0.0
C877 C 0.0285 0.35211 0.50613 0.0
C878 C 0.97518 0.32825 0.46319 0.0
C879 C 0.9604 0.30192 0.49783 0.0
C880 C 0.97994 0.3006 0.5363 0.0
C881 C 0.01379 0.32557 0.53979 0.0
C882 C 0.95516 0.33028 0.42137 0.0
C883 C 0.96509 0.27288 0.57384 0.0
C884 C 0.86514 0.2542 0.5044 0.0
C885 C 0.85726 0.22637 0.475 0.0
C886 C 0.89871 0.27863 0.51345 0.0
C887 C 0.92481 0.275 0.49256 0.0
C888 C 0.91692 0.24611 0.46487 0.0
C889 C 0.88328 0.22211 0.45672 0.0
C890 C 0.90625 0.30892 0.54376 0.0
C891 C 0.94397 0.24121 0.44213 0.0
H892 H 0.02011 0.37374 0.44209 0.0
H893 H 0.02878 0.32434 0.5691 0.0
H894 H 0.94511 0.30715 0.39911 0.0
H895 H 0.93339 0.33182 0.43531 0.0
H896 H 0.97035 0.35241 0.39765 0.0
H897 H 0.98347 0.27603 0.60229 0.0
H898 H 0.94317 0.2723 0.5915 0.0
H899 H 0.95595 0.24813 0.55618 0.0
H900 H 0.84514 0.25768 0.51844 0.0
H901 H 0.87727 0.20027 0.43482 0.0
H902 H 0.91907 0.33202 0.52117 0.0
H903 H 0.92352 0.3118 0.57372 0.0
H904 H 0.88322 0.30714 0.55946 0.0
H905 H 0.95822 0.26148 0.41525 0.0
H906 H 0.93362 0.21656 0.42354 0.0
H907 H 0.96202 0.24292 0.4701 0.0
C908 C 0.65477 0.99107 0.42105 0.0
C909 C 0.68588 0.0147 0.44058 0.0
C910 C 0.64161 0.95645 0.42867 0.0
C911 C 0.65961 0.94534 0.45752 0.0
C912 C 0.69099 0.96902 0.47719 0.0
C913 C 0.70406 0.00327 0.46754 0.0
C914 C 0.6085 0.93179 0.4059 0.0
C915 C 0.71071 0.95824 0.50878 0.0
C916 C 0.61345 0.85609 0.50805 0.0
C917 C 0.62412 0.8396 0.4761 0.0
C918 C 0.62505 0.8907 0.50293 0.0
C919 C 0.64703 0.90887 0.46423 0.0
C920 C 0.65816 0.8925 0.43238 0.0
C921 C 0.64733 0.85846 0.43953 0.0
C922 C 0.61368 0.90778 0.53866 0.0
C923 C 0.68116 0.91079 0.39014 0.0
H924 H 0.64031 0.99962 0.4008 0.0
H925 H 0.72844 0.02122 0.48193 0.0
H926 H 0.61142 0.9134 0.38347 0.0
H927 H 0.58984 0.91739 0.43458 0.0
H928 H 0.59841 0.94445 0.38271 0.0
H929 H 0.73328 0.98001 0.52467 0.0
H930 H 0.69468 0.94189 0.53872 0.0
H931 H 0.71889 0.94329 0.48722 0.0
H932 H 0.59561 0.84196 0.53642 0.0
H933 H 0.65688 0.84657 0.41566 0.0
H934 H 0.59897 0.91738 0.51968 0.0
H935 H 0.63577 0.92976 0.55502 0.0
H936 H 0.59801 0.89054 0.56819 0.0
H937 H 0.67016 0.92274 0.36738 0.0
H938 H 0.68575 0.89379 0.36692 0.0
H939 H 0.70564 0.93114 0.40357 0.0
C940 C 0.65841 0.65996 0.42369 0.0
C941 C 0.62809 0.64245 0.449 0.0
C942 C 0.68308 0.65082 0.4283 0.0
C943 C 0.6773 0.62397 0.45966 0.0
C944 C 0.6454 0.60426 0.48152 0.0
C945 C 0.62106 0.61379 0.47587 0.0
C946 C 0.71656 0.67221 0.40381 0.0
C947 C 0.63823 0.57542 0.51511 0.0
C948 C 0.74292 0.59723 0.46845 0.0
C949 C 0.76207 0.61645 0.50799 0.0
C950 C 0.71506 0.59912 0.45224 0.0
C951 C 0.7061 0.62059 0.47641 0.0
C952 C 0.72516 0.63973 0.51671 0.0
C953 C 0.75301 0.63753 0.5318 0.0
C954 C 0.69572 0.57874 0.40876 0.0
C955 C 0.71631 0.6628 0.54372 0.0
H956 H 0.66387 0.68244 0.40352 0.0
H957 H 0.59783 0.60082 0.49626 0.0
H958 H 0.73502 0.68924 0.43092 0.0
H959 H 0.72616 0.65634 0.38857 0.0
H960 H 0.71505 0.68786 0.37425 0.0
H961 H 0.61113 0.55996 0.52391 0.0
H962 H 0.64681 0.55901 0.49878 0.0
H963 H 0.65222 0.58549 0.54946 0.0
H964 H 0.75028 0.58136 0.44936 0.0
H965 H 0.76767 0.65218 0.56249 0.0
H966 H 0.6981 0.59587 0.37868 0.0
H967 H 0.66866 0.56334 0.41769 0.0
H968 H 0.70478 0.56182 0.39579 0.0
H969 H 0.7178 0.68251 0.51883 0.0
H970 H 0.73322 0.67531 0.57495 0.0
H971 H 0.69015 0.64838 0.55736 0.0
C972 C 0.44973 0.25458 0.43484 0.0
C973 C 0.47932 0.28039 0.45563 0.0
C974 C 0.44953 0.24183 0.38827 0.0
C975 C 0.47969 0.25501 0.36108 0.0
C976 C 0.50955 0.28155 0.38134 0.0
C977 C 0.50902 0.29386 0.42813 0.0
C978 C 0.41702 0.21357 0.36862 0.0
C979 C 0.5423 0.29644 0.354 0.0
C980 C 0.48102 0.19331 0.26957 0.0
C981 C 0.47323 0.20334 0.22568 0.0
C982 C 0.48487 0.2109 0.31305 0.0
C983 C 0.48019 0.23912 0.3134 0.0
C984 C 0.47366 0.25028 0.26873 0.0
C985 C 0.47049 0.23241 0.22538 0.0
C986 C 0.49231 0.19814 0.35919 0.0
C987 C 0.46814 0.27995 0.2671 0.0
H988 H 0.42656 0.24388 0.45525 0.0
H989 H 0.53208 0.31386 0.44337 0.0
H990 H 0.41189 0.22038 0.3323 0.0
H991 H 0.41903 0.19065 0.36422 0.0
H992 H 0.39538 0.20741 0.39279 0.0
H993 H 0.56286 0.31835 0.37306 0.0
H994 H 0.54967 0.27706 0.3492 0.0
H995 H 0.53941 0.30455 0.31728 0.0
H996 H 0.48302 0.17079 0.27023 0.0
H997 H 0.46382 0.23999 0.1919 0.0
H998 H 0.47031 0.18818 0.38382 0.0
H999 H 0.5138 0.21899 0.37838 0.0
H1000 H 0.49818 0.17785 0.35227 0.0
H1001 H 0.44437 0.27337 0.286 0.0
H1002 H 0.4667 0.2876 0.22935 0.0
H1003 H 0.48862 0.30173 0.28633 0.0
C1004 C 0.22375 0.43579 0.19547 0.0
C1005 C 0.25245 0.45863 0.16918 0.0
C1006 C 0.21589 0.44399 0.24089 0.0
C1007 C 0.2373 0.47594 0.26161 0.0
C1008 C 0.26626 0.49937 0.2352 0.0
C1009 C 0.27339 0.49055 0.18925 0.0
C1010 C 0.18445 0.41825 0.26674 0.0
C1011 C 0.28987 0.53366 0.25574 0.0
C1012 C 0.19456 0.50218 0.35698 0.0
C1013 C 0.2028 0.49237 0.40087 0.0
C1014 C 0.20689 0.49853 0.31196 0.0
C1015 C 0.22826 0.4847 0.30999 0.0
C1016 C 0.23798 0.47614 0.35424 0.0
C1017 C 0.22528 0.48015 0.39897 0.0
C1018 C 0.19562 0.50801 0.26617 0.0
C1019 C 0.26081 0.46148 0.35425 0.0
H1020 H 0.20711 0.41114 0.1804 0.0
H1021 H 0.29572 0.50834 0.16959 0.0
H1022 H 0.19092 0.41236 0.30278 0.0
H1023 H 0.16761 0.42861 0.27296 0.0
H1024 H 0.17049 0.39448 0.24597 0.0
H1025 H 0.31137 0.54898 0.23117 0.0
H1026 H 0.27623 0.54745 0.26241 0.0
H1027 H 0.29967 0.53099 0.29118 0.0
H1028 H 0.1775 0.51193 0.35746 0.0
H1029 H 0.23235 0.4729 0.43227 0.0
H1030 H 0.17921 0.48498 0.24507 0.0
H1031 H 0.21752 0.52441 0.24296 0.0
H1032 H 0.18155 0.52126 0.27382 0.0
H1033 H 0.24796 0.4364 0.33671 0.0
H1034 H 0.2682 0.45859 0.39148 0.0
H1035 H 0.28378 0.4777 0.33283 0.0
C1036 C 0.75581 0.26009 0.09685 0.0
C1037 C 0.77874 0.25327 0.07322 0.0
C1038 C 0.74455 0.24855 0.14445 0.0
C1039 C 0.75555 0.22867 0.16899 0.0
C1040 C 0.77867 0.22162 0.14521 0.0
C1041 C 0.79034 0.23439 0.09809 0.0
C1042 C 0.7207 0.25758 0.16845 0.0
C1043 C 0.79044 0.1998 0.16905 0.0
C1044 C 0.74567 0.21738 0.30749 0.0
C1045 C 0.71514 0.18698 0.31217 0.0
C1046 C 0.7589 0.23143 0.26142 0.0
C1047 C 0.74185 0.21427 0.2186 0.0
C1048 C 0.71126 0.18334 0.22323 0.0
C1049 C 0.69815 0.17041 0.26964 0.0
C1050 C 0.79107 0.26482 0.25858 0.0
C1051 C 0.69251 0.16357 0.179 0.0
H1052 H 0.74688 0.27487 0.07823 0.0
H1053 H 0.80786 0.22876 0.08011 0.0
H1054 H 0.69626 0.23447 0.17519 0.0
H1055 H 0.73075 0.26944 0.20415 0.0
H1056 H 0.71629 0.27509 0.14602 0.0
H1057 H 0.80856 0.19678 0.1461 0.0
H1058 H 0.80248 0.21077 0.20428 0.0
H1059 H 0.7686 0.17453 0.17671 0.0
H1060 H 0.7591 0.23042 0.33994 0.0
H1061 H 0.67482 0.14669 0.27254 0.0
H1062 H 0.78692 0.28306 0.23765 0.0
H1063 H 0.81048 0.26189 0.23906 0.0
H1064 H 0.80085 0.2755 0.29499 0.0
H1065 H 0.68472 0.17855 0.15666 0.0
H1066 H 0.66983 0.13932 0.18858 0.0
H1067 H 0.70916 0.15828 0.15618 0.0
C1068 C 0.51897 0.75872 0.16854 0.0
C1069 C 0.50562 0.78008 0.16336 0.0
C1070 C 0.5151 0.74093 0.2123 0.0
C1071 C 0.49684 0.74398 0.25164 0.0
C1072 C 0.48149 0.76382 0.24511 0.0
C1073 C 0.48657 0.78199 0.20163 0.0
C1074 C 0.53249 0.7207 0.21751 0.0
C1075 C 0.46105 0.7673 0.28506 0.0
C1076 C 0.47053 0.68224 0.35923 0.0
C1077 C 0.49462 0.70136 0.39455 0.0
C1078 C 0.47078 0.69566 0.31287 0.0
C1079 C 0.49605 0.72892 0.30075 0.0
C1080 C 0.52021 0.74838 0.3364 0.0
C1081 C 0.51884 0.73463 0.38272 0.0
C1082 C 0.44391 0.67422 0.27683 0.0
C1083 C 0.54785 0.78382 0.32555 0.0
H1084 H 0.53451 0.75784 0.13976 0.0
H1085 H 0.47657 0.79881 0.19818 0.0
H1086 H 0.55273 0.7327 0.24488 0.0
H1087 H 0.51464 0.69496 0.2307 0.0
H1088 H 0.54368 0.71882 0.18282 0.0
H1089 H 0.44728 0.77994 0.27231 0.0
H1090 H 0.44271 0.74222 0.29997 0.0
H1091 H 0.47781 0.78228 0.31515 0.0
H1092 H 0.4515 0.65658 0.3676 0.0
H1093 H 0.537 0.75011 0.40971 0.0
H1094 H 0.45549 0.67047 0.24393 0.0
H1095 H 0.43027 0.68721 0.26524 0.0
H1096 H 0.42555 0.64918 0.29195 0.0
H1097 H 0.56223 0.78392 0.29321 0.0
H1098 H 0.56549 0.79522 0.35637 0.0
H1099 H 0.53695 0.79994 0.31701 0.0
C1100 C 0.80782 0.58323 0.34134 0.0
C1101 C 0.80073 0.55896 0.37775 0.0
C1102 C 0.79126 0.5749 0.29638 0.0
C1103 C 0.7667 0.54119 0.28641 0.0
C1104 C 0.75953 0.51629 0.32259 0.0
C1105 C 0.7766 0.52541 0.36773 0.0
C1106 C 0.80062 0.60239 0.25919 0.0
C1107 C 0.73356 0.48002 0.31369 0.0
C1108 C 0.70101 0.52621 0.18938 0.0
C1109 C 0.71297 0.51731 0.14849 0.0
C1110 C 0.7183 0.53425 0.23398 0.0
C1111 C 0.74807 0.53258 0.2387 0.0
C1112 C 0.76045 0.52386 0.19733 0.0
C1113 C 0.74255 0.5159 0.15312 0.0
C1114 C 0.70428 0.54391 0.27649 0.0
C1115 C 0.79193 0.52161 0.20011 0.0
H1116 H 0.8266 0.60925 0.34781 0.0
H1117 H 0.7708 0.50638 0.39524 0.0
H1118 H 0.81468 0.59888 0.22934 0.0
H1119 H 0.77793 0.60113 0.2433 0.0
H1120 H 0.81663 0.62787 0.27466 0.0
H1121 H 0.73116 0.46352 0.34475 0.0
H1122 H 0.70882 0.47784 0.307 0.0
H1123 H 0.74022 0.47082 0.28074 0.0
H1124 H 0.67728 0.52562 0.18713 0.0
H1125 H 0.75117 0.50754 0.12245 0.0
H1126 H 0.7232 0.56919 0.28987 0.0
H1127 H 0.69856 0.52588 0.30677 0.0
H1128 H 0.68109 0.54435 0.26703 0.0
H1129 H 0.81216 0.54381 0.21898 0.0
H1130 H 0.80108 0.51975 0.16361 0.0
H1131 H 0.78675 0.49899 0.22141 0.0
C1132 C 0.20858 0.74395 0.1248 0.0
C1133 C 0.20437 0.71289 0.1096 0.0
C1134 C 0.22218 0.75757 0.17063 0.0
C1135 C 0.23263 0.74022 0.20229 0.0
C1136 C 0.22895 0.7091 0.18694 0.0
C1137 C 0.21472 0.69577 0.1412 0.0
C1138 C 0.22525 0.79064 0.18522 0.0
C1139 C 0.2403 0.68996 0.21873 0.0
C1140 C 0.29789 0.79599 0.29623 0.0
C1141 C 0.27857 0.79003 0.33837 0.0
C1142 C 0.28361 0.77876 0.25268 0.0
C1143 C 0.24872 0.75546 0.25034 0.0
C1144 C 0.22921 0.74845 0.29332 0.0
C1145 C 0.24442 0.76554 0.33688 0.0
C1146 C 0.30573 0.78663 0.20854 0.0
C1147 C 0.19191 0.7243 0.2927 0.0
H1148 H 0.20086 0.75759 0.10109 0.0
H1149 H 0.21175 0.67181 0.13018 0.0
H1150 H 0.21222 0.78774 0.22028 0.0
H1151 H 0.25202 0.80978 0.19054 0.0
H1152 H 0.21451 0.80023 0.15768 0.0
H1153 H 0.23568 0.66609 0.20183 0.0
H1154 H 0.2675 0.70575 0.22631 0.0
H1155 H 0.22704 0.68405 0.2541 0.0
H1156 H 0.32424 0.81504 0.29695 0.0
H1157 H 0.22914 0.7613 0.36891 0.0
H1158 H 0.299 0.79997 0.1812 0.0
H1159 H 0.3018 0.76305 0.19161 0.0
H1160 H 0.33274 0.80265 0.21739 0.0
H1161 H 0.1796 0.7346 0.26931 0.0
H1162 H 0.18063 0.71978 0.32952 0.0
H1163 H 0.18639 0.69986 0.27697 0.0
C1164 C 0.50733 0.73292 0.6739 0.0
C1165 C 0.53941 0.7479 0.65295 0.0
C1166 C 0.50226 0.74267 0.72057 0.0
C1167 C 0.52978 0.76835 0.74677 0.0
C1168 C 0.5619 0.78427 0.72464 0.0
C1169 C 0.5663 0.77365 0.67869 0.0
C1170 C 0.46764 0.72464 0.74262 0.0
C1171 C 0.59196 0.81228 0.74994 0.0
C1172 C 0.51782 0.81861 0.84782 0.0
C1173 C 0.52491 0.80627 0.89034 0.0
C1174 C 0.51816 0.80577 0.80153 0.0
C1175 C 0.52538 0.77937 0.7967 0.0
C1176 C 0.53123 0.76576 0.83956 0.0
C1177 C 0.53112 0.77943 0.88565 0.0
C1178 C 0.51222 0.82162 0.75745 0.0
C1179 C 0.5386 0.73735 0.8366 0.0
H1180 H 0.48653 0.71247 0.65497 0.0
H1181 H 0.59125 0.78521 0.66305 0.0
H1182 H 0.46791 0.71138 0.77614 0.0
H1183 H 0.45985 0.74299 0.75315 0.0
H1184 H 0.44868 0.706 0.71741 0.0
H1185 H 0.61499 0.82294 0.72726 0.0
H1186 H 0.58699 0.83282 0.75946 0.0
H1187 H 0.59672 0.80277 0.78426 0.0
H1188 H 0.51285 0.83923 0.85036 0.0
H1189 H 0.53663 0.76953 0.91785 0.0
H1190 H 0.49235 0.80204 0.7344 0.0
H1191 H 0.53544 0.83433 0.73527 0.0
H1192 H 0.50479 0.84041 0.76722 0.0
H1193 H 0.51939 0.71662 0.81419 0.0
H1194 H 0.53926 0.72725 0.87295 0.0
H1195 H 0.56321 0.74635 0.81868 0.0
C1196 C 0.76854 0.53398 0.6598 0.0
C1197 C 0.7945 0.52691 0.65259 0.0
C1198 C 0.75589 0.53333 0.70693 0.0
C1199 C 0.76938 0.52532 0.74786 0.0
C1200 C 0.79359 0.51545 0.73989 0.0
C1201 C 0.80588 0.51656 0.69272 0.0
C1202 C 0.73 0.54389 0.71327 0.0
C1203 C 0.80878 0.5065 0.78171 0.0
C1204 C 0.77743 0.57141 0.86686 0.0
C1205 C 0.75147 0.54691 0.89577 0.0
C1206 C 0.7832 0.56461 0.8192 0.0
C1207 C 0.76249 0.53233 0.79889 0.0
C1208 C 0.7365 0.50714 0.82803 0.0
C1209 C 0.73134 0.51467 0.87608 0.0
C1210 C 0.81153 0.59229 0.79037 0.0
C1211 C 0.71381 0.47242 0.80813 0.0
H1212 H 0.76002 0.54264 0.62933 0.0
H1213 H 0.82611 0.51128 0.68763 0.0
H1214 H 0.71015 0.52681 0.73894 0.0
H1215 H 0.74211 0.56958 0.72883 0.0
H1216 H 0.7182 0.54411 0.67829 0.0
H1217 H 0.82335 0.49464 0.76927 0.0
H1218 H 0.82587 0.52966 0.8021 0.0
H1219 H 0.78903 0.48909 0.80722 0.0
H1220 H 0.79329 0.5964 0.88142 0.0
H1221 H 0.71096 0.49562 0.89766 0.0
H1222 H 0.80162 0.59736 0.75673 0.0
H1223 H 0.82964 0.58432 0.77939 0.0
H1224 H 0.82522 0.6161 0.81114 0.0
H1225 H 0.70012 0.47405 0.77614 0.0
H1226 H 0.69526 0.45538 0.83539 0.0
H1227 H 0.72889 0.46116 0.79565 0.0
C1228 C 0.25149 0.77733 0.61578 0.0
C1229 C 0.28562 0.80181 0.61247 0.0
C1230 C 0.23631 0.76335 0.66107 0.0
C1231 C 0.25549 0.77432 0.70441 0.0
C1232 C 0.29014 0.79814 0.70097 0.0
C1233 C 0.3047 0.81129 0.65538 0.0
C1234 C 0.19942 0.73765 0.6627 0.0
C1235 C 0.31164 0.8111 0.74581 0.0
C1236 C 0.20853 0.77046 0.82086 0.0
C1237 C 0.2061 0.74247 0.84518 0.0
C1238 C 0.22514 0.78141 0.77596 0.0
C1239 C 0.23895 0.76335 0.75351 0.0
C1240 C 0.23701 0.73524 0.77828 0.0
C1241 C 0.2208 0.72527 0.82396 0.0
C1242 C 0.22718 0.81196 0.752 0.0
C1243 C 0.25089 0.71492 0.75565 0.0
H1244 H 0.23638 0.76971 0.58317 0.0
H1245 H 0.3311 0.83007 0.65375 0.0
H1246 H 0.1951 0.71545 0.6844 0.0
H1247 H 0.18561 0.74863 0.68072 0.0
H1248 H 0.18876 0.72911 0.62592 0.0
H1249 H 0.33858 0.82784 0.73697 0.0
H1250 H 0.3031 0.82541 0.76826 0.0
H1251 H 0.30902 0.78985 0.76823 0.0
H1252 H 0.19662 0.78345 0.83658 0.0
H1253 H 0.21814 0.70304 0.84188 0.0
H1254 H 0.21309 0.80461 0.71738 0.0
H1255 H 0.25363 0.83063 0.74322 0.0
H1256 H 0.21679 0.82427 0.77528 0.0
H1257 H 0.23729 0.7034 0.7215 0.0
H1258 H 0.2486 0.69461 0.78008 0.0
H1259 H 0.27769 0.73147 0.74609 0.0
C1260 C 0.4527 0.207 0.94264 0.0
C1261 C 0.47799 0.19998 0.95578 0.0
C1262 C 0.45066 0.21739 0.8951 0.0
C1263 C 0.47445 0.22093 0.85937 0.0
C1264 C 0.5004 0.21453 0.87269 0.0
C1265 C 0.50186 0.20421 0.92042 0.0
C1266 C 0.42262 0.22405 0.88288 0.0
C1267 C 0.5264 0.21805 0.83621 0.0
C1268 C 0.44732 0.21679 0.72685 0.0
C1269 C 0.46157 0.25092 0.71464 0.0
C1270 C 0.45239 0.20664 0.77297 0.0
C1271 C 0.47202 0.23119 0.80819 0.0
C1272 C 0.48788 0.26567 0.79503 0.0
C1273 C 0.48227 0.27504 0.74876 0.0
C1274 C 0.43508 0.16961 0.78497 0.0
C1275 C 0.50915 0.29284 0.83089 0.0
H1276 H 0.434 0.20374 0.96929 0.0
H1277 H 0.52155 0.19889 0.92975 0.0
H1278 H 0.43311 0.25005 0.86873 0.0
H1279 H 0.40674 0.20666 0.85389 0.0
H1280 H 0.40651 0.22083 0.91474 0.0
H1281 H 0.54549 0.213 0.8524 0.0
H1282 H 0.51405 0.20029 0.80582 0.0
H1283 H 0.53933 0.24381 0.82062 0.0
H1284 H 0.4305 0.19796 0.70145 0.0
H1285 H 0.49264 0.30146 0.74038 0.0
H1286 H 0.41588 0.16368 0.81347 0.0
H1287 H 0.45337 0.16291 0.79964 0.0
H1288 H 0.42261 0.15365 0.75287 0.0
H1289 H 0.49305 0.29306 0.86065 0.0
H1290 H 0.52233 0.31819 0.81384 0.0
H1291 H 0.52805 0.28771 0.84745 0.0
C1292 C 0.24795 0.48336 0.89198 0.0
C1293 C 0.28168 0.50259 0.90556 0.0
C1294 C 0.23685 0.48803 0.84643 0.0
C1295 C 0.25985 0.51317 0.81403 0.0
C1296 C 0.29353 0.53397 0.82905 0.0
C1297 C 0.30415 0.52792 0.87401 0.0
C1298 C 0.20092 0.46469 0.83185 0.0
C1299 C 0.31871 0.56182 0.79685 0.0
C1300 C 0.23889 0.49973 0.67836 0.0
C1301 C 0.22127 0.51695 0.67165 0.0
C1302 C 0.25227 0.49893 0.72409 0.0
C1303 C 0.2489 0.51664 0.76387 0.0
C1304 C 0.23334 0.53614 0.75607 0.0
C1305 C 0.21917 0.53549 0.71052 0.0
C1306 C 0.26797 0.47722 0.73058 0.0
C1307 C 0.23016 0.55643 0.79651 0.0
H1308 H 0.23072 0.46303 0.91551 0.0
H1309 H 0.3304 0.54238 0.88391 0.0
H1310 H 0.18877 0.47938 0.82156 0.0
H1311 H 0.20023 0.44998 0.79957 0.0
H1312 H 0.18602 0.44688 0.86133 0.0
H1313 H 0.34262 0.5783 0.81604 0.0
H1314 H 0.32422 0.55087 0.76479 0.0
H1315 H 0.30833 0.57749 0.78334 0.0
H1316 H 0.23996 0.48471 0.64891 0.0
H1317 H 0.20517 0.54847 0.7058 0.0
H1318 H 0.25276 0.45656 0.7565 0.0
H1319 H 0.29344 0.49215 0.7462 0.0
H1320 H 0.26981 0.46599 0.69589 0.0
H1321 H 0.21185 0.53924 0.8238 0.0
H1322 H 0.22159 0.57368 0.78312 0.0
H1323 H 0.25455 0.57149 0.8152 0.0
C1324 C 0.78808 0.29993 0.78971 0.0
C1325 C 0.79129 0.27796 0.82177 0.0
C1326 C 0.77424 0.28941 0.74305 0.0
C1327 C 0.76484 0.25656 0.72696 0.0
C1328 C 0.76717 0.23398 0.75988 0.0
C1329 C 0.77991 0.24481 0.80701 0.0
C1330 C 0.77101 0.31398 0.71033 0.0
C1331 C 0.75825 0.19899 0.74434 0.0
C1332 C 0.71022 0.213 0.6165 0.0
C1333 C 0.73412 0.21769 0.58114 0.0
C1334 C 0.7198 0.22761 0.66286 0.0
C1335 C 0.75424 0.2462 0.67522 0.0
C1336 C 0.77851 0.25254 0.63872 0.0
C1337 C 0.76813 0.23872 0.59195 0.0
C1338 C 0.69295 0.22131 0.69953 0.0
C1339 C 0.8155 0.27163 0.65008 0.0
H1340 H 0.79751 0.3258 0.80058 0.0
H1341 H 0.78335 0.22808 0.83106 0.0
H1342 H 0.79019 0.32255 0.68122 0.0
H1343 H 0.74606 0.3017 0.69263 0.0
H1344 H 0.77447 0.33643 0.73041 0.0
H1345 H 0.76087 0.18429 0.77433 0.0
H1346 H 0.73209 0.1851 0.7309 0.0
H1347 H 0.7748 0.20059 0.71397 0.0
H1348 H 0.68388 0.19627 0.60873 0.0
H1349 H 0.78678 0.24208 0.56523 0.0
H1350 H 0.69932 0.24481 0.7192 0.0
H1351 H 0.69117 0.20267 0.72673 0.0
H1352 H 0.668 0.21144 0.68229 0.0
H1353 H 0.82268 0.29651 0.66584 0.0
H1354 H 0.83121 0.27551 0.61747 0.0
H1355 H 0.8212 0.25753 0.67754 0.0
loop_
_geom_bond_atom_site_label_1
_geom_bond_atom_site_label_2
_geom_bond_distance
_geom_bond_site_symmetry_2
_ccdc_geom_bond_type
C0 C1 1.351 . S
C0 N3 1.368 . S
C0 H5 0.931 . S
C1 C0 1.351 . S
C1 N2 1.352 1_556 S
C1 H29 0.930 . S
N2 C1 1.352 1_554 S
N2 C4 1.349 . S
N3 C0 1.368 . S
N3 C4 1.321 1_556 S
N3 Co6 2.135 . S
C4 N2 1.349 . S
C4 N3 1.321 1_554 S
C4 H28 0.930 . S
H5 C0 0.931 . S
Co6 N3 2.135 . S
Co6 N9 2.121 1_556 S
Co6 O14 2.055 . S
Co6 O17 2.039 1_556 S
Co6 N20 2.140 1_556 S
C7 O8 1.227 . S
C7 O17 1.265 . S
O8 C7 1.227 . S
N9 Co6 2.121 1_554 S
N9 C11 1.375 . S
N9 C12 1.313 1_554 S
C10 C11 1.338 . S
C10 N13 1.377 1_554 S
C10 H30 0.930 . S
C11 N9 1.375 . S
C11 C10 1.338 . S
C11 H15 0.931 . S
C12 N9 1.313 1_556 S
C12 N13 1.344 . S
C12 H16 0.930 . S
N13 C10 1.377 1_556 S
N13 C12 1.344 . S
O14 Co6 2.055 . S
O14 C18 1.253 . S
H15 C11 0.931 . S
H16 C12 0.930 . S
O17 Co6 2.039 1_554 S
O17 C7 1.265 . S
C18 O14 1.253 . S
C18 O19 1.227 . S
O19 C18 1.227 . S
N20 Co6 2.140 1_554 S
N20 C23 1.346 . S
N20 C24 1.345 1_554 S
C21 C22 1.387 . S
C21 C25 1.391 1_554 S
C22 C21 1.387 . S
C22 C23 1.369 . S
C22 H31 0.929 . S
C23 N20 1.346 . S
C23 C22 1.369 . S
C23 H26 0.928 . S
C24 N20 1.345 1_556 S
C24 C25 1.371 . S
C24 H27 0.931 . S
C25 C21 1.391 1_556 S
C25 C24 1.371 . S
C25 H32 0.930 . S
H26 C23 0.928 . S
H27 C24 0.931 . S
H28 C4 0.930 . S
H29 C1 0.930 . S
H30 C10 0.930 . S
H31 C22 0.929 . S
H32 C25 0.930 . S
C33 C34 1.351 . S
C33 N36 1.368 . S
C33 H38 0.931 . S
C34 C33 1.351 . S
C34 N35 1.354 1_556 S
C34 H62 0.930 . S
N35 C34 1.354 1_554 S
N35 C37 1.348 . S
N36 C33 1.368 . S
N36 C37 1.321 1_556 S
N36 Co39 2.135 . S
C37 N35 1.348 . S
C37 N36 1.321 1_554 S
C37 H61 0.930 . S
H38 C33 0.931 . S
Co39 N36 2.135 . S
Co39 N42 2.121 1_556 S
Co39 O47 2.055 . S
Co39 O50 2.039 1_556 S
Co39 N53 2.140 1_556 S
C40 O41 1.227 . S
C40 O50 1.265 . S
O41 C40 1.227 . S
N42 Co39 2.121 1_554 S
N42 C44 1.375 . S
N42 C45 1.313 1_554 S
C43 C44 1.338 . S
C43 N46 1.377 1_554 S
C43 H63 0.930 . S
C44 N42 1.375 . S
C44 C43 1.338 . S
C44 H48 0.931 . S
C45 N42 1.313 1_556 S
C45 N46 1.344 . S
C45 H49 0.930 . S
N46 C43 1.377 1_556 S
N46 C45 1.344 . S
O47 Co39 2.055 . S
O47 C51 1.253 . S
H48 C44 0.931 . S
H49 C45 0.930 . S
O50 Co39 2.039 1_554 S
O50 C40 1.265 . S
C51 O47 1.253 . S
C51 O52 1.227 . S
O52 C51 1.227 . S
N53 Co39 2.140 1_554 S
N53 C56 1.346 . S
N53 C57 1.345 1_554 S
C54 C55 1.387 . S
C54 C58 1.391 1_554 S
C55 C54 1.387 . S
C55 C56 1.369 . S
C55 H64 0.929 . S
C56 N53 1.346 . S
C56 C55 1.369 . S
C56 H59 0.928 . S
C57 N53 1.345 1_556 S
C57 C58 1.371 . S
C57 H60 0.931 . S
C58 C54 1.391 1_556 S
C58 C57 1.371 . S
C58 H65 0.930 . S
H59 C56 0.928 . S
H60 C57 0.931 . S
H61 C37 0.930 . S
H62 C34 0.930 . S
H63 C43 0.930 . S
H64 C55 0.929 . S
H65 C58 0.930 . S
C66 C67 1.351 . S
C66 N69 1.368 . S
C66 H71 0.931 . S
C67 C66 1.351 . S
C67 N68 1.353 1_556 S
C67 H95 0.930 . S
N68 C67 1.353 1_554 S
N68 C70 1.349 . S
N69 C66 1.368 . S
N69 C70 1.321 1_556 S
N69 Co72 2.135 . S
C70 N68 1.349 . S
C70 N69 1.321 1_554 S
C70 H94 0.930 . S
H71 C66 0.931 . S
Co72 N69 2.135 . S
Co72 N75 2.121 1_556 S
Co72 O80 2.055 . S
Co72 O83 2.039 1_556 S
Co72 N86 2.140 1_556 S
C73 O74 1.227 . S
C73 O83 1.265 . S
O74 C73 1.227 . S
N75 Co72 2.121 1_554 S
N75 C77 1.375 . S
N75 C78 1.313 1_554 S
C76 C77 1.338 . S
C76 N79 1.377 1_554 S
C76 H96 0.930 . S
C77 N75 1.375 . S
C77 C76 1.338 . S
C77 H81 0.931 . S
C78 N75 1.313 1_556 S
C78 N79 1.344 . S
C78 H82 0.930 . S
N79 C76 1.377 1_556 S
N79 C78 1.344 . S
O80 Co72 2.055 . S
O80 C84 1.253 . S
H81 C77 0.931 . S
H82 C78 0.930 . S
O83 Co72 2.039 1_554 S
O83 C73 1.265 . S
C84 O80 1.253 . S
C84 O85 1.227 . S
O85 C84 1.227 . S
N86 Co72 2.140 1_554 S
N86 C89 1.346 . S
N86 C90 1.345 1_554 S
C87 C88 1.387 . S
C87 C91 1.391 1_554 S
C88 C87 1.387 . S
C88 C89 1.369 . S
C88 H97 0.929 . S
C89 N86 1.346 . S
C89 C88 1.369 . S
C89 H92 0.928 . S
C90 N86 1.345 1_556 S
C90 C91 1.371 . S
C90 H93 0.931 . S
C91 C87 1.391 1_556 S
C91 C90 1.371 . S
C91 H98 0.930 . S
H92 C89 0.928 . S
H93 C90 0.931 . S
H94 C70 0.930 . S
H95 C67 0.930 . S
H96 C76 0.930 . S
H97 C88 0.929 . S
H98 C91 0.930 . S
C99 C100 1.351 . S
C99 N102 1.368 . S
C99 H104 0.931 . S
C100 C99 1.351 . S
C100 N101 1.352 1_556 S
C100 H128 0.930 . S
N101 C100 1.352 1_554 S
N101 C103 1.349 . S
N102 C99 1.368 . S
N102 C103 1.321 1_556 S
N102 Co105 2.135 . S
C103 N101 1.349 . S
C103 N102 1.321 1_554 S
C103 H127 0.930 . S
H104 C99 0.931 . S
Co105 N102 2.135 . S
Co105 N108 2.121 1_556 S
Co105 O113 2.055 . S
Co105 O116 2.039 1_556 S
Co105 N119 2.140 1_556 S
C106 O107 1.227 . S
C106 O116 1.265 . S
O107 C106 1.227 . S
N108 Co105 2.121 1_554 S
N108 C110 1.375 . S
N108 C111 1.313 1_554 S
C109 C110 1.338 . S
C109 N112 1.377 1_554 S
C109 H129 0.930 . S
C110 N108 1.375 . S
C110 C109 1.338 . S
C110 H114 0.931 . S
C111 N108 1.313 1_556 S
C111 N112 1.344 . S
C111 H115 0.930 . S
N112 C109 1.377 1_556 S
N112 C111 1.344 . S
O113 Co105 2.055 . S
O113 C117 1.253 . S
H114 C110 0.931 . S
H115 C111 0.930 . S
O116 Co105 2.039 1_554 S
O116 C106 1.265 . S
C117 O113 1.253 . S
C117 O118 1.227 . S
O118 C117 1.227 . S
N119 Co105 2.140 1_554 S
N119 C122 1.346 . S
N119 C123 1.345 1_554 S
C120 C121 1.387 . S
C120 C124 1.391 1_554 S
C121 C120 1.387 . S
C121 C122 1.369 . S
C121 H130 0.929 . S
C122 N119 1.346 . S
C122 C121 1.369 . S
C122 H125 0.928 . S
C123 N119 1.345 1_556 S
C123 C124 1.371 . S
C123 H126 0.931 . S
C124 C120 1.391 1_556 S
C124 C123 1.371 . S
C124 H131 0.930 . S
H125 C122 0.928 . S
H126 C123 0.931 . S
H127 C103 0.930 . S
H128 C100 0.930 . S
H129 C109 0.930 . S
H130 C121 0.929 . S
H131 C124 0.930 . S
C132 C133 1.351 . S
C132 N135 1.368 . S
C132 H137 0.931 . S
C133 C132 1.351 . S
C133 N134 1.354 1_556 S
C133 H161 0.930 . S
N134 C133 1.354 1_554 S
N134 C136 1.348 . S
N135 C132 1.368 . S
N135 C136 1.321 1_556 S
N135 Co138 2.135 . S
C136 N134 1.348 . S
C136 N135 1.321 1_554 S
C136 H160 0.930 . S
H137 C132 0.931 . S
Co138 N135 2.135 . S
Co138 N141 2.121 1_556 S
Co138 O146 2.055 . S
Co138 O149 2.039 1_556 S
Co138 N152 2.140 1_556 S
C139 O140 1.227 . S
C139 O149 1.265 . S
O140 C139 1.227 . S
N141 Co138 2.121 1_554 S
N141 C143 1.375 . S
N141 C144 1.313 1_554 S
C142 C143 1.338 . S
C142 N145 1.377 1_554 S
C142 H162 0.930 . S
C143 N141 1.375 . S
C143 C142 1.338 . S
C143 H147 0.931 . S
C144 N141 1.313 1_556 S
C144 N145 1.344 . S
C144 H148 0.930 . S
N145 C142 1.377 1_556 S
N145 C144 1.344 . S
O146 Co138 2.055 . S
O146 C150 1.253 . S
H147 C143 0.931 . S
H148 C144 0.930 . S
O149 Co138 2.039 1_554 S
O149 C139 1.265 . S
C150 O146 1.253 . S
C150 O151 1.227 . S
O151 C150 1.227 . S
N152 Co138 2.140 1_554 S
N152 C155 1.346 . S
N152 C156 1.345 1_554 S
C153 C154 1.387 . S
C153 C157 1.391 1_554 S
C154 C153 1.387 . S
C154 C155 1.369 . S
C154 H163 0.929 . S
C155 N152 1.346 . S
C155 C154 1.369 . S
C155 H158 0.928 . S
C156 N152 1.345 1_556 S
C156 C157 1.371 . S
C156 H159 0.931 . S
C157 C153 1.391 1_556 S
C157 C156 1.371 . S
C157 H164 0.930 . S
H158 C155 0.928 . S
H159 C156 0.931 . S
H160 C136 0.930 . S
H161 C133 0.930 . S
H162 C142 0.930 . S
H163 C154 0.929 . S
H164 C157 0.930 . S
C165 C166 1.351 . S
C165 N168 1.368 . S
C165 H170 0.931 . S
C166 C165 1.351 . S
C166 N167 1.353 1_556 S
C166 H194 0.930 . S
N167 C166 1.353 1_554 S
N167 C169 1.349 . S
N168 C165 1.368 . S
N168 C169 1.321 1_556 S
N168 Co171 2.135 . S
C169 N167 1.349 . S
C169 N168 1.321 1_554 S
C169 H193 0.930 . S
H170 C165 0.931 . S
Co171 N168 2.135 . S
Co171 N174 2.121 1_556 S
Co171 O179 2.055 . S
Co171 O182 2.039 1_556 S
Co171 N185 2.140 1_556 S
C172 O173 1.227 . S
C172 O182 1.265 . S
O173 C172 1.227 . S
N174 Co171 2.121 1_554 S
N174 C176 1.375 . S
N174 C177 1.313 1_554 S
C175 C176 1.338 . S
C175 N178 1.377 1_554 S
C175 H195 0.930 . S
C176 N174 1.375 . S
C176 C175 1.338 . S
C176 H180 0.931 . S
C177 N174 1.313 1_556 S
C177 N178 1.344 . S
C177 H181 0.930 . S
N178 C175 1.377 1_556 S
N178 C177 1.344 . S
O179 Co171 2.055 . S
O179 C183 1.253 . S
H180 C176 0.931 . S
H181 C177 0.930 . S
O182 Co171 2.039 1_554 S
O182 C172 1.265 . S
C183 O179 1.253 . S
C183 O184 1.227 . S
O184 C183 1.227 . S
N185 Co171 2.140 1_554 S
N185 C188 1.346 . S
N185 C189 1.345 1_554 S
C186 C187 1.387 . S
C186 C190 1.391 1_554 S
C187 C186 1.387 . S
C187 C188 1.369 . S
C187 H196 0.929 . S
C188 N185 1.346 . S
C188 C187 1.369 . S
C188 H191 0.928 . S
C189 N185 1.345 1_556 S
C189 C190 1.371 . S
C189 H192 0.931 . S
C190 C186 1.391 1_556 S
C190 C189 1.371 . S
C190 H197 0.930 . S
H191 C188 0.928 . S
H192 C189 0.931 . S
H193 C169 0.930 . S
H194 C166 0.930 . S
H195 C175 0.930 . S
H196 C187 0.929 . S
H197 C190 0.930 . S
C198 C199 1.351 . S
C198 N201 1.368 . S
C198 H203 0.931 . S
C199 C198 1.351 . S
C199 N200 1.373 . S
C199 H227 0.930 . S
N200 C199 1.373 . S
N200 C202 1.340 . S
N201 C198 1.368 . S
N201 C202 1.321 . S
N201 Co204 2.135 . S
C202 N200 1.340 . S
C202 N201 1.321 . S
C202 H226 0.930 . S
H203 C198 0.931 . S
Co204 N201 2.135 . S
Co204 N207 2.121 . S
Co204 O212 2.055 . S
Co204 O215 2.039 . S
Co204 N218 2.140 . S
C205 O206 1.227 . S
C205 O215 1.265 . S
O206 C205 1.227 . S
N207 Co204 2.121 . S
N207 C209 1.375 . S
N207 C210 1.313 . S
C208 C209 1.338 . S
C208 N211 1.377 . S
C208 H228 0.930 . S
C209 N207 1.375 . S
C209 C208 1.338 . S
C209 H213 0.931 . S
C210 N207 1.313 . S
C210 N211 1.344 . S
C210 H214 0.930 . S
N211 C208 1.377 . S
N211 C210 1.344 . S
O212 Co204 2.055 . S
O212 C216 1.253 . S
H213 C209 0.931 . S
H214 C210 0.930 . S
O215 Co204 2.039 . S
O215 C205 1.265 . S
C216 O212 1.253 . S
C216 O217 1.227 . S
O217 C216 1.227 . S
N218 Co204 2.140 . S
N218 C221 1.346 . S
N218 C222 1.345 . S
C219 C220 1.387 . S
C219 C223 1.391 . S
C220 C219 1.387 . S
C220 C221 1.369 . S
C220 H229 0.929 . S
C221 N218 1.346 . S
C221 C220 1.369 . S
C221 H224 0.928 . S
C222 N218 1.345 . S
C222 C223 1.371 . S
C222 H225 0.931 . S
C223 C219 1.391 . S
C223 C222 1.371 . S
C223 H230 0.930 . S
H224 C221 0.928 . S
H225 C222 0.931 . S
H226 C202 0.930 . S
H227 C199 0.930 . S
H228 C208 0.930 . S
H229 C220 0.929 . S
H230 C223 0.930 . S
C231 C232 1.351 . S
C231 N234 1.368 . S
C231 H236 0.931 . S
C232 C231 1.351 . S
C232 N233 1.373 . S
C232 H260 0.930 . S
N233 C232 1.373 . S
N233 C235 1.340 . S
N234 C231 1.368 . S
N234 C235 1.321 . S
N234 Co237 2.135 . S
C235 N233 1.340 . S
C235 N234 1.321 . S
C235 H259 0.930 . S
H236 C231 0.931 . S
Co237 N234 2.135 . S
Co237 N240 2.121 . S
Co237 O245 2.055 . S
Co237 O248 2.039 . S
Co237 N251 2.140 . S
C238 O239 1.227 . S
C238 O248 1.265 . S
O239 C238 1.227 . S
N240 Co237 2.121 . S
N240 C242 1.375 . S
N240 C243 1.313 . S
C241 C242 1.338 . S
C241 N244 1.377 . S
C241 H261 0.930 . S
C242 N240 1.375 . S
C242 C241 1.338 . S
C242 H246 0.931 . S
C243 N240 1.313 . S
C243 N244 1.344 . S
C243 H247 0.930 . S
N244 C241 1.377 . S
N244 C243 1.344 . S
O245 Co237 2.055 . S
O245 C249 1.253 . S
H246 C242 0.931 . S
H247 C243 0.930 . S
O248 Co237 2.039 . S
O248 C238 1.265 . S
C249 O245 1.253 . S
C249 O250 1.227 . S
O250 C249 1.227 . S
N251 Co237 2.140 . S
N251 C254 1.346 . S
N251 C255 1.345 . S
C252 C253 1.387 . S
C252 C256 1.391 . S
C253 C252 1.387 . S
C253 C254 1.369 . S
C253 H262 0.929 . S
C254 N251 1.346 . S
C254 C253 1.369 . S
C254 H257 0.928 . S
C255 N251 1.345 . S
C255 C256 1.371 . S
C255 H258 0.931 . S
C256 C252 1.391 . S
C256 C255 1.371 . S
C256 H263 0.930 . S
H257 C254 0.928 . S
H258 C255 0.931 . S
H259 C235 0.930 . S
H260 C232 0.930 . S
H261 C241 0.930 . S
H262 C253 0.929 . S
H263 C256 0.930 . S
C264 C265 1.351 . S
C264 N267 1.368 . S
C264 H269 0.931 . S
C265 C264 1.351 . S
C265 N266 1.373 . S
C265 H293 0.930 . S
N266 C265 1.373 . S
N266 C268 1.340 . S
N267 C264 1.368 . S
N267 C268 1.321 . S
N267 Co270 2.135 . S
C268 N266 1.340 . S
C268 N267 1.321 . S
C268 H292 0.930 . S
H269 C264 0.931 . S
Co270 N267 2.135 . S
Co270 N273 2.121 . S
Co270 O278 2.055 . S
Co270 O281 2.039 . S
Co270 N284 2.140 . S
C271 O272 1.227 . S
C271 O281 1.265 . S
O272 C271 1.227 . S
N273 Co270 2.121 . S
N273 C275 1.375 . S
N273 C276 1.313 . S
C274 C275 1.338 . S
C274 N277 1.377 . S
C274 H294 0.930 . S
C275 N273 1.375 . S
C275 C274 1.338 . S
C275 H279 0.931 . S
C276 N273 1.313 . S
C276 N277 1.344 . S
C276 H280 0.930 . S
N277 C274 1.377 . S
N277 C276 1.344 . S
O278 Co270 2.055 . S
O278 C282 1.253 . S
H279 C275 0.931 . S
H280 C276 0.930 . S
O281 Co270 2.039 . S
O281 C271 1.265 . S
C282 O278 1.253 . S
C282 O283 1.227 . S
O283 C282 1.227 . S
N284 Co270 2.140 . S
N284 C287 1.346 . S
N284 C288 1.345 . S
C285 C286 1.387 . S
C285 C289 1.391 . S
C286 C285 1.387 . S
C286 C287 1.369 . S
C286 H295 0.929 . S
C287 N284 1.346 . S
C287 C286 1.369 . S
C287 H290 0.928 . S
C288 N284 1.345 . S
C288 C289 1.371 . S
C288 H291 0.931 . S
C289 C285 1.391 . S
C289 C288 1.371 . S
C289 H296 0.930 . S
H290 C287 0.928 . S
H291 C288 0.931 . S
H292 C268 0.930 . S
H293 C265 0.930 . S
H294 C274 0.930 . S
H295 C286 0.929 . S
H296 C289 0.930 . S
C297 C298 1.351 . S
C297 N300 1.368 . S
C297 H302 0.931 . S
C298 C297 1.351 . S
C298 N299 1.373 . S
C298 H326 0.930 . S
N299 C298 1.373 . S
N299 C301 1.340 . S
N300 C297 1.368 . S
N300 C301 1.321 . S
N300 Co303 2.135 . S
C301 N299 1.340 . S
C301 N300 1.321 . S
C301 H325 0.930 . S
H302 C297 0.931 . S
Co303 N300 2.135 . S
Co303 N306 2.121 . S
Co303 O311 2.055 . S
Co303 O314 2.039 . S
Co303 N317 2.140 . S
C304 O305 1.227 . S
C304 O314 1.265 . S
O305 C304 1.227 . S
N306 Co303 2.121 . S
N306 C308 1.375 . S
N306 C309 1.313 . S
C307 C308 1.338 . S
C307 N310 1.377 . S
C307 H327 0.930 . S
C308 N306 1.375 . S
C308 C307 1.338 . S
C308 H312 0.931 . S
C309 N306 1.313 . S
C309 N310 1.344 . S
C309 H313 0.930 . S
N310 C307 1.377 . S
N310 C309 1.344 . S
O311 Co303 2.055 . S
O311 C315 1.253 . S
H312 C308 0.931 . S
H313 C309 0.930 . S
O314 Co303 2.039 . S
O314 C304 1.265 . S
C315 O311 1.253 . S
C315 O316 1.227 . S
O316 C315 1.227 . S
N317 Co303 2.140 . S
N317 C320 1.346 . S
N317 C321 1.345 . S
C318 C319 1.387 . S
C318 C322 1.391 . S
C319 C318 1.387 . S
C319 C320 1.369 . S
C319 H328 0.929 . S
C320 N317 1.346 . S
C320 C319 1.369 . S
C320 H323 0.928 . S
C321 N317 1.345 . S
C321 C322 1.371 . S
C321 H324 0.931 . S
C322 C318 1.391 . S
C322 C321 1.371 . S
C322 H329 0.930 . S
H323 C320 0.928 . S
H324 C321 0.931 . S
H325 C301 0.930 . S
H326 C298 0.930 . S
H327 C307 0.930 . S
H328 C319 0.929 . S
H329 C322 0.930 . S
C330 C331 1.351 . S
C330 N333 1.368 . S
C330 H335 0.931 . S
C331 C330 1.351 . S
C331 N332 1.373 . S
C331 H359 0.930 . S
N332 C331 1.373 . S
N332 C334 1.340 . S
N333 C330 1.368 . S
N333 C334 1.321 . S
N333 Co336 2.135 . S
C334 N332 1.340 . S
C334 N333 1.321 . S
C334 H358 0.930 . S
H335 C330 0.931 . S
Co336 N333 2.135 . S
Co336 N339 2.121 . S
Co336 O344 2.055 . S
Co336 O347 2.039 . S
Co336 N350 2.140 . S
C337 O338 1.227 . S
C337 O347 1.265 . S
O338 C337 1.227 . S
N339 Co336 2.121 . S
N339 C341 1.375 . S
N339 C342 1.313 . S
C340 C341 1.338 . S
C340 N343 1.377 . S
C340 H360 0.930 . S
C341 N339 1.375 . S
C341 C340 1.338 . S
C341 H345 0.931 . S
C342 N339 1.313 . S
C342 N343 1.344 . S
C342 H346 0.930 . S
N343 C340 1.377 . S
N343 C342 1.344 . S
O344 Co336 2.055 . S
O344 C348 1.253 . S
H345 C341 0.931 . S
H346 C342 0.930 . S
O347 Co336 2.039 . S
O347 C337 1.265 . S
C348 O344 1.253 . S
C348 O349 1.227 . S
O349 C348 1.227 . S
N350 Co336 2.140 . S
N350 C353 1.346 . S
N350 C354 1.345 . S
C351 C352 1.387 . S
C351 C355 1.391 . S
C352 C351 1.387 . S
C352 C353 1.369 . S
C352 H361 0.929 . S
C353 N350 1.346 . S
C353 C352 1.369 . S
C353 H356 0.928 . S
C354 N350 1.345 . S
C354 C355 1.371 . S
C354 H357 0.931 . S
C355 C351 1.391 . S
C355 C354 1.371 . S
C355 H362 0.930 . S
H356 C353 0.928 . S
H357 C354 0.931 . S
H358 C334 0.930 . S
H359 C331 0.930 . S
H360 C340 0.930 . S
H361 C352 0.929 . S
H362 C355 0.930 . S
C363 C364 1.351 . S
C363 N366 1.368 . S
C363 H368 0.931 . S
C364 C363 1.351 . S
C364 N365 1.373 . S
C364 H392 0.930 . S
N365 C364 1.373 . S
N365 C367 1.340 . S
N366 C363 1.368 . S
N366 C367 1.321 . S
N366 Co369 2.135 . S
C367 N365 1.340 . S
C367 N366 1.321 . S
C367 H391 0.930 . S
H368 C363 0.931 . S
Co369 N366 2.135 . S
Co369 N372 2.121 . S
Co369 O377 2.055 . S
Co369 O380 2.039 . S
Co369 N383 2.140 . S
C370 O371 1.227 . S
C370 O380 1.265 . S
O371 C370 1.227 . S
N372 Co369 2.121 . S
N372 C374 1.375 . S
N372 C375 1.313 . S
C373 C374 1.338 . S
C373 N376 1.377 . S
C373 H393 0.930 . S
C374 N372 1.375 . S
C374 C373 1.338 . S
C374 H378 0.931 . S
C375 N372 1.313 . S
C375 N376 1.344 . S
C375 H379 0.930 . S
N376 C373 1.377 . S
N376 C375 1.344 . S
O377 Co369 2.055 . S
O377 C381 1.253 . S
H378 C374 0.931 . S
H379 C375 0.930 . S
O380 Co369 2.039 . S
O380 C370 1.265 . S
C381 O377 1.253 . S
C381 O382 1.227 . S
O382 C381 1.227 . S
N383 Co369 2.140 . S
N383 C386 1.346 . S
N383 C387 1.345 . S
C384 C385 1.387 . S
C384 C388 1.391 . S
C385 C384 1.387 . S
C385 C386 1.369 . S
C385 H394 0.929 . S
C386 N383 1.346 . S
C386 C385 1.369 . S
C386 H389 0.928 . S
C387 N383 1.345 . S
C387 C388 1.371 . S
C387 H390 0.931 . S
C388 C384 1.391 . S
C388 C387 1.371 . S
C388 H395 0.930 . S
H389 C386 0.928 . S
H390 C387 0.931 . S
H391 C367 0.930 . S
H392 C364 0.930 . S
H393 C373 0.930 . S
H394 C385 0.929 . S
H395 C388 0.930 . S
C396 C397 1.391 . S
C396 C398 1.394 . S
C396 H412 0.931 . S
C397 C396 1.391 . S
C397 C401 1.376 . S
C398 C396 1.394 . S
C398 C399 1.369 . S
C398 C402 1.531 . S
C399 C398 1.369 . S
C399 C400 1.410 . S
C399 C407 1.503 1_545 S
C400 C399 1.410 . S
C400 C401 1.392 . S
C400 C403 1.511 1_545 S
C401 C397 1.376 . S
C401 C400 1.392 . S
C401 H413 0.929 . S
C402 C398 1.531 . S
C402 H414 0.960 . S
C402 H415 0.962 . S
C402 H416 0.960 . S
C403 C400 1.511 1_565 S
C403 H417 0.967 . S
C403 H418 0.961 . S
C403 H419 0.961 . S
C404 C405 1.370 1_556 S
C404 C406 1.363 . S
C404 H420 0.931 . S
C405 C404 1.370 1_554 S
C405 C409 1.408 . S
C406 C404 1.363 . S
C406 C407 1.370 1_556 S
C406 C410 1.524 . S
C407 C399 1.503 1_565 S
C407 C406 1.370 1_554 S
C407 C408 1.403 . S
C408 C407 1.403 . S
C408 C409 1.404 . S
C408 C411 1.539 . S
C409 C405 1.408 . S
C409 C408 1.404 . S
C409 H421 0.930 . S
C410 C406 1.524 . S
C410 H422 0.956 1_565 S
C410 H423 0.961 . S
C410 H424 0.961 . S
C411 C408 1.539 . S
C411 H425 0.958 . S
C411 H426 0.961 . S
C411 H427 0.960 . S
H412 C396 0.931 . S
H413 C401 0.929 . S
H414 C402 0.960 . S
H415 C402 0.962 . S
H416 C402 0.960 . S
H417 C403 0.967 . S
H418 C403 0.961 . S
H419 C403 0.961 . S
H420 C404 0.931 . S
H421 C409 0.930 . S
H422 C410 0.956 1_545 S
H423 C410 0.961 . S
H424 C410 0.961 . S
H425 C411 0.958 . S
H426 C411 0.961 . S
H427 C411 0.960 . S
C428 C429 1.391 . S
C428 C430 1.394 . S
C428 H444 0.931 . S
C429 C428 1.391 . S
C429 C433 1.376 1_554 S
C430 C428 1.394 . S
C430 C431 1.369 . S
C430 C434 1.531 . S
C431 C430 1.369 . S
C431 C432 1.410 1_554 S
C431 C439 1.503 . S
C432 C431 1.410 1_556 S
C432 C433 1.392 . S
C432 C435 1.511 . S
C433 C429 1.376 1_556 S
C433 C432 1.392 . S
C433 H445 0.929 . S
C434 C430 1.531 . S
C434 H446 0.960 . S
C434 H447 0.962 . S
C434 H448 0.960 . S
C435 C432 1.511 . S
C435 H449 0.961 . S
C435 H450 0.961 . S
C435 H451 0.961 . S
C436 C437 1.370 . S
C436 C438 1.363 . S
C436 H452 0.931 . S
C437 C436 1.370 . S
C437 C441 1.408 . S
C438 C436 1.363 . S
C438 C439 1.370 . S
C438 C442 1.524 . S
C439 C431 1.503 . S
C439 C438 1.370 . S
C439 C440 1.403 . S
C440 C439 1.403 . S
C440 C441 1.404 . S
C440 C443 1.539 . S
C441 C437 1.408 . S
C441 C440 1.404 . S
C441 H453 0.930 . S
C442 C438 1.524 . S
C442 H454 0.956 . S
C442 H455 0.961 1_554 S
C442 H456 0.961 . S
C443 C440 1.539 . S
C443 H457 0.958 . S
C443 H458 0.962 1_554 S
C443 H459 0.960 . S
H444 C428 0.931 . S
H445 C433 0.929 . S
H446 C434 0.960 . S
H447 C434 0.962 . S
H448 C434 0.960 . S
H449 C435 0.961 . S
H450 C435 0.961 . S
H451 C435 0.961 . S
H452 C436 0.931 . S
H453 C441 0.930 . S
H454 C442 0.956 . S
H455 C442 0.961 1_556 S
H456 C442 0.961 . S
H457 C443 0.958 . S
H458 C443 0.962 1_556 S
H459 C443 0.960 . S
C460 C461 1.391 1_556 S
C460 C462 1.394 . S
C460 H476 0.931 . S
C461 C460 1.391 1_554 S
C461 C465 1.376 . S
C462 C460 1.394 . S
C462 C463 1.369 1_556 S
C462 C466 1.531 1_455 S
C463 C462 1.369 1_554 S
C463 C464 1.410 . S
C463 C471 1.503 1_455 S
C464 C463 1.410 . S
C464 C465 1.392 . S
C464 C467 1.511 . S
C465 C461 1.376 . S
C465 C464 1.392 . S
C465 H477 0.929 . S
C466 C462 1.531 1_655 S
C466 H478 0.960 . S
C466 H479 0.962 . S
C466 H480 0.960 . S
C467 C464 1.511 . S
C467 H481 0.961 . S
C467 H482 0.961 . S
C467 H483 0.961 . S
C468 C469 1.370 . S
C468 C470 1.363 . S
C468 H484 0.931 . S
C469 C468 1.370 . S
C469 C473 1.408 1_554 S
C470 C468 1.363 . S
C470 C471 1.370 . S
C470 C474 1.524 . S
C471 C463 1.503 1_655 S
C471 C470 1.370 . S
C471 C472 1.403 1_554 S
C472 C471 1.403 1_556 S
C472 C473 1.404 . S
C472 C475 1.539 1_655 S
C473 C469 1.408 1_556 S
C473 C472 1.404 . S
C473 H485 0.930 . S
C474 C470 1.524 . S
C474 H486 0.956 . S
C474 H487 0.961 . S
C474 H488 0.961 . S
C475 C472 1.539 1_455 S
C475 H489 0.958 . S
C475 H490 0.961 . S
C475 H491 0.960 . S
H476 C460 0.931 . S
H477 C465 0.929 . S
H478 C466 0.960 . S
H479 C466 0.962 . S
H480 C466 0.960 . S
H481 C467 0.961 . S
H482 C467 0.961 . S
H483 C467 0.961 . S
H484 C468 0.931 . S
H485 C473 0.930 . S
H486 C474 0.956 . S
H487 C474 0.961 . S
H488 C474 0.961 . S
H489 C475 0.958 . S
H490 C475 0.961 . S
H491 C475 0.960 . S
C492 C493 1.391 . S
C492 C494 1.394 . S
C492 H508 0.931 . S
C493 C492 1.391 . S
C493 C497 1.376 . S
C494 C492 1.394 . S
C494 C495 1.369 . S
C494 C498 1.531 1_455 S
C495 C494 1.369 . S
C495 C496 1.410 . S
C495 C503 1.503 1_455 S
C496 C495 1.410 . S
C496 C497 1.392 . S
C496 C499 1.511 . S
C497 C493 1.376 . S
C497 C496 1.392 . S
C497 H509 0.929 . S
C498 C494 1.531 1_655 S
C498 H510 0.960 . S
C498 H511 0.962 . S
C498 H512 0.960 . S
C499 C496 1.511 . S
C499 H513 0.961 . S
C499 H514 0.961 . S
C499 H515 0.961 . S
C500 C501 1.370 . S
C500 C502 1.363 . S
C500 H516 0.931 . S
C501 C500 1.370 . S
C501 C505 1.408 . S
C502 C500 1.363 . S
C502 C503 1.370 . S
C502 C506 1.524 . S
C503 C495 1.503 1_655 S
C503 C502 1.370 . S
C503 C504 1.403 . S
C504 C503 1.403 . S
C504 C505 1.404 . S
C504 C507 1.538 1_655 S
C505 C501 1.408 . S
C505 C504 1.404 . S
C505 H517 0.930 . S
C506 C502 1.524 . S
C506 H518 0.956 . S
C506 H519 0.987 . S
C506 H520 0.961 . S
C507 C504 1.538 1_455 S
C507 H521 0.958 1_455 S
C507 H522 0.956 1_455 S
C507 H523 0.962 . S
H508 C492 0.931 . S
H509 C497 0.929 . S
H510 C498 0.960 . S
H511 C498 0.962 . S
H512 C498 0.960 . S
H513 C499 0.961 . S
H514 C499 0.961 . S
H515 C499 0.961 . S
H516 C500 0.931 . S
H517 C505 0.930 . S
H518 C506 0.956 . S
H519 C506 0.987 . S
H520 C506 0.961 . S
H521 C507 0.958 1_655 S
H522 C507 0.956 1_655 S
H523 C507 0.962 . S
C524 C525 1.391 . S
C524 C526 1.394 . S
C524 H540 0.931 . S
C525 C524 1.391 . S
C525 C529 1.376 . S
C526 C524 1.394 . S
C526 C527 1.369 . S
C526 C530 1.531 1_545 S
C527 C526 1.369 . S
C527 C528 1.410 . S
C527 C535 1.503 1_545 S
C528 C527 1.410 . S
C528 C529 1.392 . S
C528 C531 1.511 . S
C529 C525 1.376 . S
C529 C528 1.392 . S
C529 H541 0.929 . S
C530 C526 1.531 1_565 S
C530 H542 0.960 . S
C530 H543 0.962 . S
C530 H544 0.960 . S
C531 C528 1.511 . S
C531 H545 0.961 . S
C531 H546 0.961 . S
C531 H547 0.961 . S
C532 C533 1.370 . S
C532 C534 1.363 . S
C532 H548 0.931 . S
C533 C532 1.370 . S
C533 C537 1.408 . S
C534 C532 1.363 . S
C534 C535 1.370 . S
C534 C538 1.524 1_565 S
C535 C527 1.503 1_565 S
C535 C534 1.370 . S
C535 C536 1.403 . S
C536 C535 1.403 . S
C536 C537 1.404 . S
C536 C539 1.539 . S
C537 C533 1.408 . S
C537 C536 1.404 . S
C537 H549 0.930 . S
C538 C534 1.524 1_545 S
C538 H550 0.956 . S
C538 H551 0.961 . S
C538 H552 0.961 . S
C539 C536 1.539 . S
C539 H553 0.958 . S
C539 H554 0.961 . S
C539 H555 0.960 . S
H540 C524 0.931 . S
H541 C529 0.929 . S
H542 C530 0.960 . S
H543 C530 0.962 . S
H544 C530 0.960 . S
H545 C531 0.961 . S
H546 C531 0.961 . S
H547 C531 0.961 . S
H548 C532 0.931 . S
H549 C537 0.930 . S
H550 C538 0.956 . S
H551 C538 0.961 . S
H552 C538 0.961 . S
H553 C539 0.958 . S
H554 C539 0.961 . S
H555 C539 0.960 . S
C556 C557 1.391 . S
C556 C558 1.394 . S
C556 H572 0.931 . S
C557 C556 1.391 . S
C557 C561 1.376 . S
C558 C556 1.394 . S
C558 C559 1.369 . S
C558 C562 1.531 . S
C559 C558 1.369 . S
C559 C560 1.410 . S
C559 C567 1.503 . S
C560 C559 1.410 . S
C560 C561 1.392 . S
C560 C563 1.511 . S
C561 C557 1.376 . S
C561 C560 1.392 . S
C561 H573 0.929 . S
C562 C558 1.531 . S
C562 H574 0.960 . S
C562 H575 0.962 . S
C562 H576 0.960 . S
C563 C560 1.511 . S
C563 H577 0.961 . S
C563 H578 0.961 . S
C563 H579 0.961 . S
C564 C565 1.370 . S
C564 C566 1.363 . S
C564 H580 0.931 . S
C565 C564 1.370 . S
C565 C569 1.408 . S
C566 C564 1.363 . S
C566 C567 1.370 . S
C566 C570 1.524 . S
C567 C559 1.503 . S
C567 C566 1.370 . S
C567 C568 1.403 . S
C568 C567 1.403 . S
C568 C569 1.404 . S
C568 C571 1.539 . S
C569 C565 1.408 . S
C569 C568 1.404 . S
C569 H581 0.930 . S
C570 C566 1.524 . S
C570 H582 0.956 . S
C570 H583 0.961 . S
C570 H584 0.961 . S
C571 C568 1.539 . S
C571 H585 0.958 . S
C571 H586 0.961 . S
C571 H587 0.960 . S
H572 C556 0.931 . S
H573 C561 0.929 . S
H574 C562 0.960 . S
H575 C562 0.962 . S
H576 C562 0.960 . S
H577 C563 0.961 . S
H578 C563 0.961 . S
H579 C563 0.961 . S
H580 C564 0.931 . S
H581 C569 0.930 . S
H582 C570 0.956 . S
H583 C570 0.961 . S
H584 C570 0.961 . S
H585 C571 0.958 . S
H586 C571 0.961 . S
H587 C571 0.960 . S
C588 C589 1.391 1_556 S
C588 C590 1.394 1_545 S
C588 H604 0.931 . S
C589 C588 1.391 1_554 S
C589 C593 1.376 1_545 S
C590 C588 1.394 1_565 S
C590 C591 1.369 . S
C590 C594 1.531 . S
C591 C590 1.369 . S
C591 C592 1.410 1_556 S
C591 C599 1.503 . S
C592 C591 1.410 1_554 S
C592 C593 1.392 . S
C592 C595 1.511 . S
C593 C589 1.376 1_565 S
C593 C592 1.392 . S
C593 H605 0.929 1_565 S
C594 C590 1.531 . S
C594 H606 0.960 . S
C594 H607 0.962 . S
C594 H608 0.960 . S
C595 C592 1.511 . S
C595 H609 0.961 . S
C595 H610 0.961 . S
C595 H611 0.961 . S
C596 C597 1.370 1_554 S
C596 C598 1.363 . S
C596 H612 0.931 . S
C597 C596 1.370 1_556 S
C597 C601 1.408 . S
C598 C596 1.363 . S
C598 C599 1.370 1_554 S
C598 C602 1.524 . S
C599 C591 1.503 . S
C599 C598 1.370 1_556 S
C599 C600 1.403 . S
C600 C599 1.403 . S
C600 C601 1.404 . S
C600 C603 1.539 . S
C601 C597 1.408 . S
C601 C600 1.404 . S
C601 H613 0.930 . S
C602 C598 1.524 . S
C602 H614 0.956 . S
C602 H615 0.961 . S
C602 H616 0.961 . S
C603 C600 1.539 . S
C603 H617 0.958 . S
C603 H618 0.961 . S
C603 H619 0.960 . S
H604 C588 0.931 . S
H605 C593 0.929 1_545 S
H606 C594 0.960 . S
H607 C594 0.962 . S
H608 C594 0.960 . S
H609 C595 0.961 . S
H610 C595 0.961 . S
H611 C595 0.961 . S
H612 C596 0.931 . S
H613 C601 0.930 . S
H614 C602 0.956 . S
H615 C602 0.961 . S
H616 C602 0.961 . S
H617 C603 0.958 . S
H618 C603 0.961 . S
H619 C603 0.960 . S
C620 C621 1.391 . S
C620 C622 1.394 . S
C620 H636 0.931 . S
C621 C620 1.391 . S
C621 C625 1.376 1_556 S
C622 C620 1.394 . S
C622 C623 1.369 . S
C622 C626 1.531 . S
C623 C622 1.369 . S
C623 C624 1.410 1_556 S
C623 C631 1.503 . S
C624 C623 1.410 1_554 S
C624 C625 1.392 . S
C624 C627 1.511 . S
C625 C621 1.376 1_554 S
C625 C624 1.392 . S
C625 H637 0.929 . S
C626 C622 1.531 . S
C626 H638 0.960 . S
C626 H639 0.962 . S
C626 H640 0.960 . S
C627 C624 1.511 . S
C627 H641 0.961 . S
C627 H642 0.961 . S
C627 H643 0.961 . S
C628 C629 1.370 . S
C628 C630 1.363 . S
C628 H644 0.931 . S
C629 C628 1.370 . S
C629 C633 1.408 1_554 S
C630 C628 1.363 . S
C630 C631 1.370 1_554 S
C630 C634 1.524 . S
C631 C623 1.503 . S
C631 C630 1.370 1_556 S
C631 C632 1.403 . S
C632 C631 1.403 . S
C632 C633 1.404 . S
C632 C635 1.539 . S
C633 C629 1.408 1_556 S
C633 C632 1.404 . S
C633 H645 0.930 . S
C634 C630 1.524 . S
C634 H646 0.956 . S
C634 H647 0.961 . S
C634 H648 0.961 . S
C635 C632 1.539 . S
C635 H649 0.958 . S
C635 H650 0.961 . S
C635 H651 0.960 . S
H636 C620 0.931 . S
H637 C625 0.929 . S
H638 C626 0.960 . S
H639 C626 0.962 . S
H640 C626 0.960 . S
H641 C627 0.961 . S
H642 C627 0.961 . S
H643 C627 0.961 . S
H644 C628 0.931 . S
H645 C633 0.930 . S
H646 C634 0.956 . S
H647 C634 0.961 . S
H648 C634 0.961 . S
H649 C635 0.958 . S
H650 C635 0.961 . S
H651 C635 0.960 . S
C652 C653 1.391 1_556 S
C652 C654 1.394 1_655 S
C652 H668 0.931 . S
C653 C652 1.391 1_554 S
C653 C657 1.376 1_655 S
C654 C652 1.394 1_455 S
C654 C655 1.369 . S
C654 C658 1.531 . S
C655 C654 1.369 . S
C655 C656 1.410 1_556 S
C655 C663 1.503 . S
C656 C655 1.410 1_554 S
C656 C657 1.392 . S
C656 C659 1.511 . S
C657 C653 1.376 1_455 S
C657 C656 1.392 . S
C657 H669 0.929 1_455 S
C658 C654 1.531 . S
C658 H670 0.960 . S
C658 H671 0.962 . S
C658 H672 0.960 . S
C659 C656 1.511 . S
C659 H673 0.961 . S
C659 H674 0.961 . S
C659 H675 0.961 . S
C660 C661 1.370 1_554 S
C660 C662 1.363 . S
C660 H676 0.931 . S
C661 C660 1.370 1_556 S
C661 C665 1.408 . S
C662 C660 1.363 . S
C662 C663 1.370 1_554 S
C662 C666 1.524 . S
C663 C655 1.503 . S
C663 C662 1.370 1_556 S
C663 C664 1.403 . S
C664 C663 1.403 . S
C664 C665 1.404 . S
C664 C667 1.539 . S
C665 C661 1.408 . S
C665 C664 1.404 . S
C665 H677 0.930 . S
C666 C662 1.524 . S
C666 H678 0.956 . S
C666 H679 0.961 . S
C666 H680 0.961 . S
C667 C664 1.539 . S
C667 H681 0.958 . S
C667 H682 0.961 . S
C667 H683 0.960 . S
H668 C652 0.931 . S
H669 C657 0.929 1_655 S
H670 C658 0.960 . S
H671 C658 0.962 . S
H672 C658 0.960 . S
H673 C659 0.961 . S
H674 C659 0.961 . S
H675 C659 0.961 . S
H676 C660 0.931 . S
H677 C665 0.930 . S
H678 C666 0.956 . S
H679 C666 0.961 . S
H680 C666 0.961 . S
H681 C667 0.958 . S
H682 C667 0.961 . S
H683 C667 0.960 . S
C684 C685 1.391 1_554 S
C684 C686 1.394 . S
C684 H700 0.931 . S
C685 C684 1.391 1_556 S
C685 C689 1.376 . S
C686 C684 1.394 . S
C686 C687 1.369 . S
C686 C690 1.531 . S
C687 C686 1.369 . S
C687 C688 1.410 1_554 S
C687 C695 1.503 . S
C688 C687 1.410 1_556 S
C688 C689 1.392 . S
C688 C691 1.511 . S
C689 C685 1.376 . S
C689 C688 1.392 . S
C689 H701 0.929 . S
C690 C686 1.531 . S
C690 H702 0.960 . S
C690 H703 0.962 . S
C690 H704 0.960 . S
C691 C688 1.511 . S
C691 H705 0.961 . S
C691 H706 0.961 . S
C691 H707 0.961 . S
C692 C693 1.370 1_556 S
C692 C694 1.363 1_565 S
C692 H708 0.931 . S
C693 C692 1.370 1_554 S
C693 C697 1.408 . S
C694 C692 1.363 1_545 S
C694 C695 1.370 1_556 S
C694 C698 1.524 . S
C695 C687 1.503 . S
C695 C694 1.370 1_554 S
C695 C696 1.403 . S
C696 C695 1.403 . S
C696 C697 1.404 1_545 S
C696 C699 1.539 . S
C697 C693 1.408 . S
C697 C696 1.404 1_565 S
C697 H709 0.930 . S
C698 C694 1.524 . S
C698 H710 0.956 . S
C698 H711 0.961 . S
C698 H712 0.961 . S
C699 C696 1.539 . S
C699 H713 0.958 . S
C699 H714 0.961 . S
C699 H715 0.960 . S
H700 C684 0.931 . S
H701 C689 0.929 . S
H702 C690 0.960 . S
H703 C690 0.962 . S
H704 C690 0.960 . S
H705 C691 0.961 . S
H706 C691 0.961 . S
H707 C691 0.961 . S
H708 C692 0.931 . S
H709 C697 0.930 . S
H710 C698 0.956 . S
H711 C698 0.961 . S
H712 C698 0.961 . S
H713 C699 0.958 . S
H714 C699 0.961 . S
H715 C699 0.960 . S
C716 C717 1.391 . S
C716 C718 1.394 . S
C716 H732 0.931 . S
C717 C716 1.391 . S
C717 C721 1.376 . S
C718 C716 1.394 . S
C718 C719 1.369 . S
C718 C722 1.531 . S
C719 C718 1.369 . S
C719 C720 1.410 . S
C719 C727 1.503 . S
C720 C719 1.410 . S
C720 C721 1.392 . S
C720 C723 1.511 1_556 S
C721 C717 1.376 . S
C721 C720 1.392 . S
C721 H733 0.929 1_556 S
C722 C718 1.531 . S
C722 H734 0.960 . S
C722 H735 0.962 . S
C722 H736 0.960 . S
C723 C720 1.511 1_554 S
C723 H737 0.961 . S
C723 H738 0.961 . S
C723 H739 0.961 1_554 S
C724 C725 1.370 . S
C724 C726 1.363 . S
C724 H740 0.931 . S
C725 C724 1.370 . S
C725 C729 1.408 1_554 S
C726 C724 1.363 . S
C726 C727 1.370 1_554 S
C726 C730 1.524 . S
C727 C719 1.503 . S
C727 C726 1.370 1_556 S
C727 C728 1.403 . S
C728 C727 1.403 . S
C728 C729 1.404 . S
C728 C731 1.539 . S
C729 C725 1.408 1_556 S
C729 C728 1.404 . S
C729 H741 0.930 . S
C730 C726 1.524 . S
C730 H742 0.956 . S
C730 H743 0.961 . S
C730 H744 0.961 . S
C731 C728 1.539 . S
C731 H745 0.958 . S
C731 H746 0.961 . S
C731 H747 0.960 . S
H732 C716 0.931 . S
H733 C721 0.929 1_554 S
H734 C722 0.960 . S
H735 C722 0.962 . S
H736 C722 0.960 . S
H737 C723 0.961 . S
H738 C723 0.961 . S
H739 C723 0.961 1_556 S
H740 C724 0.931 . S
H741 C729 0.930 . S
H742 C730 0.956 . S
H743 C730 0.961 . S
H744 C730 0.961 . S
H745 C731 0.958 . S
H746 C731 0.961 . S
H747 C731 0.960 . S
C748 C749 1.391 . S
C748 C750 1.394 . S
C748 H764 0.931 . S
C749 C748 1.391 . S
C749 C753 1.376 1_556 S
C750 C748 1.394 . S
C750 C751 1.369 . S
C750 C754 1.531 . S
C751 C750 1.369 . S
C751 C752 1.410 1_556 S
C751 C759 1.503 1_556 S
C752 C751 1.410 1_554 S
C752 C753 1.392 . S
C752 C755 1.511 . S
C753 C749 1.376 1_554 S
C753 C752 1.392 . S
C753 H765 0.929 . S
C754 C750 1.531 . S
C754 H766 0.960 . S
C754 H767 0.962 . S
C754 H768 0.960 . S
C755 C752 1.511 . S
C755 H769 0.961 . S
C755 H770 0.961 . S
C755 H771 0.961 . S
C756 C757 1.370 1_656 S
C756 C758 1.363 . S
C756 H772 0.931 1_655 S
C757 C756 1.370 1_454 S
C757 C761 1.408 . S
C758 C756 1.363 . S
C758 C759 1.370 1_556 S
C758 C762 1.524 . S
C759 C751 1.503 1_554 S
C759 C758 1.370 1_554 S
C759 C760 1.403 . S
C760 C759 1.403 . S
C760 C761 1.404 1_655 S
C760 C763 1.539 . S
C761 C757 1.408 . S
C761 C760 1.404 1_455 S
C761 H773 0.930 . S
C762 C758 1.524 . S
C762 H774 0.956 . S
C762 H775 0.961 . S
C762 H776 0.961 . S
C763 C760 1.539 . S
C763 H777 0.958 . S
C763 H778 0.961 . S
C763 H779 0.960 . S
H764 C748 0.931 . S
H765 C753 0.929 . S
H766 C754 0.960 . S
H767 C754 0.962 . S
H768 C754 0.960 . S
H769 C755 0.961 . S
H770 C755 0.961 . S
H771 C755 0.961 . S
H772 C756 0.931 1_455 S
H773 C761 0.930 . S
H774 C762 0.956 . S
H775 C762 0.961 . S
H776 C762 0.961 . S
H777 C763 0.958 . S
H778 C763 0.961 . S
H779 C763 0.960 . S
C780 C781 1.391 . S
C780 C782 1.394 . S
C780 H796 0.931 . S
C781 C780 1.391 . S
C781 C785 1.376 . S
C782 C780 1.394 . S
C782 C783 1.369 . S
C782 C786 1.531 . S
C783 C782 1.369 . S
C783 C784 1.410 . S
C783 C791 1.503 . S
C784 C783 1.410 . S
C784 C785 1.392 . S
C784 C787 1.511 . S
C785 C781 1.376 . S
C785 C784 1.392 . S
C785 H797 0.929 . S
C786 C782 1.531 . S
C786 H798 0.960 . S
C786 H799 0.962 . S
C786 H800 0.960 . S
C787 C784 1.511 . S
C787 H801 0.961 . S
C787 H802 0.961 . S
C787 H803 0.961 . S
C788 C789 1.370 . S
C788 C790 1.363 1_655 S
C788 H804 0.931 . S
C789 C788 1.370 . S
C789 C793 1.408 . S
C790 C788 1.363 1_455 S
C790 C791 1.370 . S
C790 C794 1.524 . S
C791 C783 1.503 . S
C791 C790 1.370 . S
C791 C792 1.403 . S
C792 C791 1.403 . S
C792 C793 1.404 1_455 S
C792 C795 1.539 . S
C793 C789 1.408 . S
C793 C792 1.404 1_655 S
C793 H805 0.930 . S
C794 C790 1.524 . S
C794 H806 0.956 . S
C794 H807 0.961 . S
C794 H808 0.961 . S
C795 C792 1.539 . S
C795 H809 0.958 . S
C795 H810 0.961 . S
C795 H811 0.960 . S
H796 C780 0.931 . S
H797 C785 0.929 . S
H798 C786 0.960 . S
H799 C786 0.962 . S
H800 C786 0.960 . S
H801 C787 0.961 . S
H802 C787 0.961 . S
H803 C787 0.961 . S
H804 C788 0.931 . S
H805 C793 0.930 . S
H806 C794 0.956 . S
H807 C794 0.961 . S
H808 C794 0.961 . S
H809 C795 0.958 . S
H810 C795 0.961 . S
H811 C795 0.960 . S
C812 C813 1.391 . S
C812 C814 1.394 . S
C812 H828 0.931 . S
C813 C812 1.391 . S
C813 C817 1.376 . S
C814 C812 1.394 . S
C814 C815 1.369 . S
C814 C818 1.531 . S
C815 C814 1.369 . S
C815 C816 1.410 . S
C815 C823 1.503 . S
C816 C815 1.410 . S
C816 C817 1.392 . S
C816 C819 1.511 . S
C817 C813 1.376 . S
C817 C816 1.392 . S
C817 H829 0.929 . S
C818 C814 1.531 . S
C818 H830 0.960 . S
C818 H831 0.962 . S
C818 H832 0.960 . S
C819 C816 1.511 . S
C819 H833 0.961 . S
C819 H834 0.961 . S
C819 H835 0.961 . S
C820 C821 1.370 . S
C820 C822 1.363 1_565 S
C820 H836 0.931 . S
C821 C820 1.370 . S
C821 C825 1.406 1_565 S
C822 C820 1.363 1_545 S
C822 C823 1.370 . S
C822 C826 1.524 . S
C823 C815 1.503 . S
C823 C822 1.370 . S
C823 C824 1.403 . S
C824 C823 1.403 . S
C824 C825 1.414 . S
C824 C827 1.539 . S
C825 C821 1.406 1_545 S
C825 C824 1.414 . S
C825 H837 0.922 1_545 S
C826 C822 1.524 . S
C826 H838 0.956 . S
C826 H839 0.961 . S
C826 H840 0.961 . S
C827 C824 1.539 . S
C827 H841 0.958 . S
C827 H842 0.961 . S
C827 H843 0.960 . S
H828 C812 0.931 . S
H829 C817 0.929 . S
H830 C818 0.960 . S
H831 C818 0.962 . S
H832 C818 0.960 . S
H833 C819 0.961 . S
H834 C819 0.961 . S
H835 C819 0.961 . S
H836 C820 0.931 . S
H837 C825 0.922 1_565 S
H838 C826 0.956 . S
H839 C826 0.961 . S
H840 C826 0.961 . S
H841 C827 0.958 . S
H842 C827 0.961 . S
H843 C827 0.960 . S
C844 C845 1.391 . S
C844 C846 1.394 . S
C844 H860 0.931 . S
C845 C844 1.391 . S
C845 C849 1.376 . S
C846 C844 1.394 . S
C846 C847 1.369 . S
C846 C850 1.531 . S
C847 C846 1.369 . S
C847 C848 1.410 . S
C847 C855 1.503 . S
C848 C847 1.410 . S
C848 C849 1.392 . S
C848 C851 1.511 . S
C849 C845 1.376 . S
C849 C848 1.392 . S
C849 H861 0.929 . S
C850 C846 1.531 . S
C850 H862 0.960 . S
C850 H863 0.962 . S
C850 H864 0.960 . S
C851 C848 1.511 . S
C851 H865 0.961 . S
C851 H866 0.961 . S
C851 H867 0.961 . S
C852 C853 1.370 . S
C852 C854 1.363 . S
C852 H868 0.931 . S
C853 C852 1.370 . S
C853 C857 1.408 . S
C854 C852 1.363 . S
C854 C855 1.370 . S
C854 C858 1.524 . S
C855 C847 1.503 . S
C855 C854 1.370 . S
C855 C856 1.403 . S
C856 C855 1.403 . S
C856 C857 1.404 . S
C856 C859 1.539 . S
C857 C853 1.408 . S
C857 C856 1.404 . S
C857 H869 0.930 . S
C858 C854 1.524 . S
C858 H870 0.956 . S
C858 H871 0.961 . S
C858 H872 0.961 . S
C859 C856 1.539 . S
C859 H873 0.958 . S
C859 H874 0.961 . S
C859 H875 0.960 . S
H860 C844 0.931 . S
H861 C849 0.929 . S
H862 C850 0.960 . S
H863 C850 0.962 . S
H864 C850 0.960 . S
H865 C851 0.961 . S
H866 C851 0.961 . S
H867 C851 0.961 . S
H868 C852 0.931 . S
H869 C857 0.930 . S
H870 C858 0.956 . S
H871 C858 0.961 . S
H872 C858 0.961 . S
H873 C859 0.958 . S
H874 C859 0.961 . S
H875 C859 0.960 . S
C876 C877 1.391 1_655 S
C876 C878 1.394 . S
C876 H892 0.931 1_655 S
C877 C876 1.391 1_455 S
C877 C881 1.376 . S
C878 C876 1.394 . S
C878 C879 1.369 . S
C878 C882 1.531 . S
C879 C878 1.369 . S
C879 C880 1.410 . S
C879 C887 1.503 . S
C880 C879 1.410 . S
C880 C881 1.392 1_655 S
C880 C883 1.511 . S
C881 C877 1.376 . S
C881 C880 1.392 1_455 S
C881 H893 0.929 . S
C882 C878 1.531 . S
C882 H894 0.960 . S
C882 H895 0.962 . S
C882 H896 0.960 . S
C883 C880 1.511 . S
C883 H897 0.961 . S
C883 H898 0.961 . S
C883 H899 0.961 . S
C884 C885 1.370 . S
C884 C886 1.363 . S
C884 H900 0.931 . S
C885 C884 1.370 . S
C885 C889 1.408 . S
C886 C884 1.363 . S
C886 C887 1.370 . S
C886 C890 1.524 . S
C887 C879 1.503 . S
C887 C886 1.370 . S
C887 C888 1.403 . S
C888 C887 1.403 . S
C888 C889 1.404 . S
C888 C891 1.539 . S
C889 C885 1.408 . S
C889 C888 1.404 . S
C889 H901 0.930 . S
C890 C886 1.524 . S
C890 H902 0.956 . S
C890 H903 0.961 . S
C890 H904 0.961 . S
C891 C888 1.539 . S
C891 H905 0.958 . S
C891 H906 0.961 . S
C891 H907 0.960 . S
H892 C876 0.931 1_455 S
H893 C881 0.929 . S
H894 C882 0.960 . S
H895 C882 0.962 . S
H896 C882 0.960 . S
H897 C883 0.961 . S
H898 C883 0.961 . S
H899 C883 0.961 . S
H900 C884 0.931 . S
H901 C889 0.930 . S
H902 C890 0.956 . S
H903 C890 0.961 . S
H904 C890 0.961 . S
H905 C891 0.958 . S
H906 C891 0.961 . S
H907 C891 0.960 . S
C908 C909 1.391 1_565 S
C908 C910 1.394 . S
C908 H924 0.931 1_565 S
C909 C908 1.391 1_545 S
C909 C913 1.376 . S
C910 C908 1.394 . S
C910 C911 1.369 . S
C910 C914 1.531 . S
C911 C910 1.369 . S
C911 C912 1.410 . S
C911 C919 1.503 . S
C912 C911 1.410 . S
C912 C913 1.392 1_565 S
C912 C915 1.511 . S
C913 C909 1.376 . S
C913 C912 1.392 1_545 S
C913 H925 0.929 . S
C914 C910 1.531 . S
C914 H926 0.960 . S
C914 H927 0.962 . S
C914 H928 0.960 . S
C915 C912 1.511 . S
C915 H929 0.961 . S
C915 H930 0.961 . S
C915 H931 0.961 . S
C916 C917 1.370 . S
C916 C918 1.363 . S
C916 H932 0.931 . S
C917 C916 1.370 . S
C917 C921 1.408 . S
C918 C916 1.363 . S
C918 C919 1.370 . S
C918 C922 1.524 . S
C919 C911 1.503 . S
C919 C918 1.370 . S
C919 C920 1.403 . S
C920 C919 1.403 . S
C920 C921 1.404 . S
C920 C923 1.539 . S
C921 C917 1.408 . S
C921 C920 1.404 . S
C921 H933 0.930 . S
C922 C918 1.524 . S
C922 H934 0.956 . S
C922 H935 0.961 . S
C922 H936 0.961 . S
C923 C920 1.539 . S
C923 H937 0.958 . S
C923 H938 0.961 . S
C923 H939 0.960 . S
H924 C908 0.931 1_545 S
H925 C913 0.929 . S
H926 C914 0.960 . S
H927 C914 0.962 . S
H928 C914 0.960 . S
H929 C915 0.961 . S
H930 C915 0.961 . S
H931 C915 0.961 . S
H932 C916 0.931 . S
H933 C921 0.930 . S
H934 C922 0.956 . S
H935 C922 0.961 . S
H936 C922 0.961 . S
H937 C923 0.958 . S
H938 C923 0.961 . S
H939 C923 0.960 . S
C940 C941 1.391 . S
C940 C942 1.394 . S
C940 H956 0.931 . S
C941 C940 1.391 . S
C941 C945 1.376 . S
C942 C940 1.394 . S
C942 C943 1.369 . S
C942 C946 1.531 . S
C943 C942 1.369 . S
C943 C944 1.410 . S
C943 C951 1.503 . S
C944 C943 1.410 . S
C944 C945 1.392 . S
C944 C947 1.511 . S
C945 C941 1.376 . S
C945 C944 1.392 . S
C945 H957 0.929 . S
C946 C942 1.531 . S
C946 H958 0.960 . S
C946 H959 0.962 . S
C946 H960 0.960 . S
C947 C944 1.511 . S
C947 H961 0.961 . S
C947 H962 0.961 . S
C947 H963 0.961 . S
C948 C949 1.370 . S
C948 C950 1.363 . S
C948 H964 0.931 . S
C949 C948 1.370 . S
C949 C953 1.408 . S
C950 C948 1.363 . S
C950 C951 1.370 . S
C950 C954 1.524 . S
C951 C943 1.503 . S
C951 C950 1.370 . S
C951 C952 1.403 . S
C952 C951 1.403 . S
C952 C953 1.404 . S
C952 C955 1.539 . S
C953 C949 1.408 . S
C953 C952 1.404 . S
C953 H965 0.930 . S
C954 C950 1.524 . S
C954 H966 0.956 . S
C954 H967 0.961 . S
C954 H968 0.961 . S
C955 C952 1.539 . S
C955 H969 0.958 . S
C955 H970 0.961 . S
C955 H971 0.960 . S
H956 C940 0.931 . S
H957 C945 0.929 . S
H958 C946 0.960 . S
H959 C946 0.962 . S
H960 C946 0.960 . S
H961 C947 0.961 . S
H962 C947 0.961 . S
H963 C947 0.961 . S
H964 C948 0.931 . S
H965 C953 0.930 . S
H966 C954 0.956 . S
H967 C954 0.961 . S
H968 C954 0.961 . S
H969 C955 0.958 . S
H970 C955 0.961 . S
H971 C955 0.960 . S
C972 C973 1.391 . S
C972 C974 1.394 . S
C972 H988 0.931 . S
C973 C972 1.391 . S
C973 C977 1.376 . S
C974 C972 1.394 . S
C974 C975 1.369 . S
C974 C978 1.531 . S
C975 C974 1.369 . S
C975 C976 1.410 . S
C975 C983 1.503 . S
C976 C975 1.410 . S
C976 C977 1.392 . S
C976 C979 1.511 . S
C977 C973 1.376 . S
C977 C976 1.392 . S
C977 H989 0.929 . S
C978 C974 1.531 . S
C978 H990 0.960 . S
C978 H991 0.962 . S
C978 H992 0.960 . S
C979 C976 1.511 . S
C979 H993 0.961 . S
C979 H994 0.961 . S
C979 H995 0.961 . S
C980 C981 1.370 . S
C980 C982 1.363 . S
C980 H996 0.931 . S
C981 C980 1.370 . S
C981 C985 1.408 . S
C982 C980 1.363 . S
C982 C983 1.370 . S
C982 C986 1.524 . S
C983 C975 1.503 . S
C983 C982 1.370 . S
C983 C984 1.403 . S
C984 C983 1.403 . S
C984 C985 1.404 . S
C984 C987 1.539 . S
C985 C981 1.408 . S
C985 C984 1.404 . S
C985 H997 0.930 . S
C986 C982 1.524 . S
C986 H998 0.956 . S
C986 H999 0.961 . S
C986 H1000 0.961 . S
C987 C984 1.539 . S
C987 H1001 0.958 . S
C987 H1002 0.961 . S
C987 H1003 0.960 . S
H988 C972 0.931 . S
H989 C977 0.929 . S
H990 C978 0.960 . S
H991 C978 0.962 . S
H992 C978 0.960 . S
H993 C979 0.961 . S
H994 C979 0.961 . S
H995 C979 0.961 . S
H996 C980 0.931 . S
H997 C985 0.930 . S
H998 C986 0.956 . S
H999 C986 0.961 . S
H1000 C986 0.961 . S
H1001 C987 0.958 . S
H1002 C987 0.961 . S
H1003 C987 0.960 . S
C1004 C1005 1.391 . S
C1004 C1006 1.394 . S
C1004 H1020 0.931 . S
C1005 C1004 1.391 . S
C1005 C1009 1.376 . S
C1006 C1004 1.394 . S
C1006 C1007 1.369 . S
C1006 C1010 1.531 . S
C1007 C1006 1.369 . S
C1007 C1008 1.410 . S
C1007 C1015 1.503 . S
C1008 C1007 1.410 . S
C1008 C1009 1.392 . S
C1008 C1011 1.511 . S
C1009 C1005 1.376 . S
C1009 C1008 1.392 . S
C1009 H1021 0.929 . S
C1010 C1006 1.531 . S
C1010 H1022 0.960 . S
C1010 H1023 0.962 . S
C1010 H1024 0.960 . S
C1011 C1008 1.511 . S
C1011 H1025 0.961 . S
C1011 H1026 0.961 . S
C1011 H1027 0.961 . S
C1012 C1013 1.370 . S
C1012 C1014 1.363 . S
C1012 H1028 0.931 . S
C1013 C1012 1.370 . S
C1013 C1017 1.408 . S
C1014 C1012 1.363 . S
C1014 C1015 1.370 . S
C1014 C1018 1.524 . S
C1015 C1007 1.503 . S
C1015 C1014 1.370 . S
C1015 C1016 1.403 . S
C1016 C1015 1.403 . S
C1016 C1017 1.404 . S
C1016 C1019 1.539 . S
C1017 C1013 1.408 . S
C1017 C1016 1.404 . S
C1017 H1029 0.930 . S
C1018 C1014 1.524 . S
C1018 H1030 0.956 . S
C1018 H1031 0.961 . S
C1018 H1032 0.961 . S
C1019 C1016 1.539 . S
C1019 H1033 0.958 . S
C1019 H1034 0.961 . S
C1019 H1035 0.960 . S
H1020 C1004 0.931 . S
H1021 C1009 0.929 . S
H1022 C1010 0.960 . S
H1023 C1010 0.962 . S
H1024 C1010 0.960 . S
H1025 C1011 0.961 . S
H1026 C1011 0.961 . S
H1027 C1011 0.961 . S
H1028 C1012 0.931 . S
H1029 C1017 0.930 . S
H1030 C1018 0.956 . S
H1031 C1018 0.961 . S
H1032 C1018 0.961 . S
H1033 C1019 0.958 . S
H1034 C1019 0.961 . S
H1035 C1019 0.960 . S
C1036 C1037 1.391 . S
C1036 C1038 1.394 . S
C1036 H1052 0.931 . S
C1037 C1036 1.391 . S
C1037 C1041 1.376 . S
C1038 C1036 1.394 . S
C1038 C1039 1.369 . S
C1038 C1042 1.531 . S
C1039 C1038 1.369 . S
C1039 C1040 1.410 . S
C1039 C1047 1.503 . S
C1040 C1039 1.410 . S
C1040 C1041 1.392 . S
C1040 C1043 1.511 . S
C1041 C1037 1.376 . S
C1041 C1040 1.392 . S
C1041 H1053 0.929 . S
C1042 C1038 1.531 . S
C1042 H1054 0.960 . S
C1042 H1055 0.962 . S
C1042 H1056 0.960 . S
C1043 C1040 1.511 . S
C1043 H1057 0.961 . S
C1043 H1058 0.961 . S
C1043 H1059 0.961 . S
C1044 C1045 1.370 . S
C1044 C1046 1.363 . S
C1044 H1060 0.931 . S
C1045 C1044 1.370 . S
C1045 C1049 1.408 . S
C1046 C1044 1.363 . S
C1046 C1047 1.370 . S
C1046 C1050 1.524 . S
C1047 C1039 1.503 . S
C1047 C1046 1.370 . S
C1047 C1048 1.403 . S
C1048 C1047 1.403 . S
C1048 C1049 1.404 . S
C1048 C1051 1.539 . S
C1049 C1045 1.408 . S
C1049 C1048 1.404 . S
C1049 H1061 0.930 . S
C1050 C1046 1.524 . S
C1050 H1062 0.956 . S
C1050 H1063 0.961 . S
C1050 H1064 0.961 . S
C1051 C1048 1.539 . S
C1051 H1065 0.958 . S
C1051 H1066 0.961 . S
C1051 H1067 0.960 . S
H1052 C1036 0.931 . S
H1053 C1041 0.929 . S
H1054 C1042 0.960 . S
H1055 C1042 0.962 . S
H1056 C1042 0.960 . S
H1057 C1043 0.961 . S
H1058 C1043 0.961 . S
H1059 C1043 0.961 . S
H1060 C1044 0.931 . S
H1061 C1049 0.930 . S
H1062 C1050 0.956 . S
H1063 C1050 0.961 . S
H1064 C1050 0.961 . S
H1065 C1051 0.958 . S
H1066 C1051 0.961 . S
H1067 C1051 0.960 . S
C1068 C1069 1.391 . S
C1068 C1070 1.394 . S
C1068 H1084 0.931 . S
C1069 C1068 1.391 . S
C1069 C1073 1.376 . S
C1070 C1068 1.394 . S
C1070 C1071 1.369 . S
C1070 C1074 1.531 . S
C1071 C1070 1.369 . S
C1071 C1072 1.410 . S
C1071 C1079 1.503 . S
C1072 C1071 1.410 . S
C1072 C1073 1.392 . S
C1072 C1075 1.511 . S
C1073 C1069 1.376 . S
C1073 C1072 1.392 . S
C1073 H1085 0.929 . S
C1074 C1070 1.531 . S
C1074 H1086 0.960 . S
C1074 H1087 0.962 . S
C1074 H1088 0.960 . S
C1075 C1072 1.511 . S
C1075 H1089 0.961 . S
C1075 H1090 0.961 . S
C1075 H1091 0.961 . S
C1076 C1077 1.370 . S
C1076 C1078 1.363 . S
C1076 H1092 0.931 . S
C1077 C1076 1.370 . S
C1077 C1081 1.408 . S
C1078 C1076 1.363 . S
C1078 C1079 1.370 . S
C1078 C1082 1.524 . S
C1079 C1071 1.503 . S
C1079 C1078 1.370 . S
C1079 C1080 1.403 . S
C1080 C1079 1.403 . S
C1080 C1081 1.404 . S
C1080 C1083 1.539 . S
C1081 C1077 1.408 . S
C1081 C1080 1.404 . S
C1081 H1093 0.930 . S
C1082 C1078 1.524 . S
C1082 H1094 0.956 . S
C1082 H1095 0.961 . S
C1082 H1096 0.961 . S
C1083 C1080 1.539 . S
C1083 H1097 0.958 . S
C1083 H1098 0.961 . S
C1083 H1099 0.960 . S
H1084 C1068 0.931 . S
H1085 C1073 0.929 . S
H1086 C1074 0.960 . S
H1087 C1074 0.962 . S
H1088 C1074 0.960 . S
H1089 C1075 0.961 . S
H1090 C1075 0.961 . S
H1091 C1075 0.961 . S
H1092 C1076 0.931 . S
H1093 C1081 0.930 . S
H1094 C1082 0.956 . S
H1095 C1082 0.961 . S
H1096 C1082 0.961 . S
H1097 C1083 0.958 . S
H1098 C1083 0.961 . S
H1099 C1083 0.960 . S
C1100 C1101 1.391 . S
C1100 C1102 1.394 . S
C1100 H1116 0.931 . S
C1101 C1100 1.391 . S
C1101 C1105 1.376 . S
C1102 C1100 1.394 . S
C1102 C1103 1.369 . S
C1102 C1106 1.531 . S
C1103 C1102 1.369 . S
C1103 C1104 1.410 . S
C1103 C1111 1.503 . S
C1104 C1103 1.410 . S
C1104 C1105 1.392 . S
C1104 C1107 1.511 . S
C1105 C1101 1.376 . S
C1105 C1104 1.392 . S
C1105 H1117 0.929 . S
C1106 C1102 1.531 . S
C1106 H1118 0.960 . S
C1106 H1119 0.962 . S
C1106 H1120 0.960 . S
C1107 C1104 1.511 . S
C1107 H1121 0.961 . S
C1107 H1122 0.961 . S
C1107 H1123 0.961 . S
C1108 C1109 1.370 . S
C1108 C1110 1.363 . S
C1108 H1124 0.931 . S
C1109 C1108 1.370 . S
C1109 C1113 1.408 . S
C1110 C1108 1.363 . S
C1110 C1111 1.370 . S
C1110 C1114 1.524 . S
C1111 C1103 1.503 . S
C1111 C1110 1.370 . S
C1111 C1112 1.403 . S
C1112 C1111 1.403 . S
C1112 C1113 1.404 . S
C1112 C1115 1.539 . S
C1113 C1109 1.408 . S
C1113 C1112 1.404 . S
C1113 H1125 0.930 . S
C1114 C1110 1.524 . S
C1114 H1126 0.956 . S
C1114 H1127 0.961 . S
C1114 H1128 0.961 . S
C1115 C1112 1.539 . S
C1115 H1129 0.958 . S
C1115 H1130 0.961 . S
C1115 H1131 0.960 . S
H1116 C1100 0.931 . S
H1117 C1105 0.929 . S
H1118 C1106 0.960 . S
H1119 C1106 0.962 . S
H1120 C1106 0.960 . S
H1121 C1107 0.961 . S
H1122 C1107 0.961 . S
H1123 C1107 0.961 . S
H1124 C1108 0.931 . S
H1125 C1113 0.930 . S
H1126 C1114 0.956 . S
H1127 C1114 0.961 . S
H1128 C1114 0.961 . S
H1129 C1115 0.958 . S
H1130 C1115 0.961 . S
H1131 C1115 0.960 . S
C1132 C1133 1.391 . S
C1132 C1134 1.394 . S
C1132 H1148 0.931 . S
C1133 C1132 1.391 . S
C1133 C1137 1.376 . S
C1134 C1132 1.394 . S
C1134 C1135 1.369 . S
C1134 C1138 1.531 . S
C1135 C1134 1.369 . S
C1135 C1136 1.410 . S
C1135 C1143 1.503 . S
C1136 C1135 1.410 . S
C1136 C1137 1.392 . S
C1136 C1139 1.511 . S
C1137 C1133 1.376 . S
C1137 C1136 1.392 . S
C1137 H1149 0.929 . S
C1138 C1134 1.531 . S
C1138 H1150 0.960 . S
C1138 H1151 0.962 . S
C1138 H1152 0.960 . S
C1139 C1136 1.511 . S
C1139 H1153 0.961 . S
C1139 H1154 0.961 . S
C1139 H1155 0.961 . S
C1140 C1141 1.370 . S
C1140 C1142 1.363 . S
C1140 H1156 0.931 . S
C1141 C1140 1.370 . S
C1141 C1145 1.408 . S
C1142 C1140 1.363 . S
C1142 C1143 1.370 . S
C1142 C1146 1.524 . S
C1143 C1135 1.503 . S
C1143 C1142 1.370 . S
C1143 C1144 1.403 . S
C1144 C1143 1.403 . S
C1144 C1145 1.404 . S
C1144 C1147 1.539 . S
C1145 C1141 1.408 . S
C1145 C1144 1.404 . S
C1145 H1157 0.930 . S
C1146 C1142 1.524 . S
C1146 H1158 0.956 . S
C1146 H1159 0.961 . S
C1146 H1160 0.961 . S
C1147 C1144 1.539 . S
C1147 H1161 0.958 . S
C1147 H1162 0.961 . S
C1147 H1163 0.960 . S
H1148 C1132 0.931 . S
H1149 C1137 0.929 . S
H1150 C1138 0.960 . S
H1151 C1138 0.962 . S
H1152 C1138 0.960 . S
H1153 C1139 0.961 . S
H1154 C1139 0.961 . S
H1155 C1139 0.961 . S
H1156 C1140 0.931 . S
H1157 C1145 0.930 . S
H1158 C1146 0.956 . S
H1159 C1146 0.961 . S
H1160 C1146 0.961 . S
H1161 C1147 0.958 . S
H1162 C1147 0.961 . S
H1163 C1147 0.960 . S
C1164 C1165 1.391 . S
C1164 C1166 1.394 . S
C1164 H1180 0.931 . S
C1165 C1164 1.391 . S
C1165 C1169 1.376 . S
C1166 C1164 1.394 . S
C1166 C1167 1.369 . S
C1166 C1170 1.531 . S
C1167 C1166 1.369 . S
C1167 C1168 1.410 . S
C1167 C1175 1.503 . S
C1168 C1167 1.410 . S
C1168 C1169 1.392 . S
C1168 C1171 1.511 . S
C1169 C1165 1.376 . S
C1169 C1168 1.392 . S
C1169 H1181 0.929 . S
C1170 C1166 1.531 . S
C1170 H1182 0.960 . S
C1170 H1183 0.962 . S
C1170 H1184 0.960 . S
C1171 C1168 1.511 . S
C1171 H1185 0.961 . S
C1171 H1186 0.961 . S
C1171 H1187 0.961 . S
C1172 C1173 1.370 . S
C1172 C1174 1.363 . S
C1172 H1188 0.931 . S
C1173 C1172 1.370 . S
C1173 C1177 1.408 . S
C1174 C1172 1.363 . S
C1174 C1175 1.370 . S
C1174 C1178 1.524 . S
C1175 C1167 1.503 . S
C1175 C1174 1.370 . S
C1175 C1176 1.403 . S
C1176 C1175 1.403 . S
C1176 C1177 1.404 . S
C1176 C1179 1.539 . S
C1177 C1173 1.408 . S
C1177 C1176 1.404 . S
C1177 H1189 0.930 . S
C1178 C1174 1.524 . S
C1178 H1190 0.956 . S
C1178 H1191 0.961 . S
C1178 H1192 0.961 . S
C1179 C1176 1.539 . S
C1179 H1193 0.958 . S
C1179 H1194 0.961 . S
C1179 H1195 0.960 . S
H1180 C1164 0.931 . S
H1181 C1169 0.929 . S
H1182 C1170 0.960 . S
H1183 C1170 0.962 . S
H1184 C1170 0.960 . S
H1185 C1171 0.961 . S
H1186 C1171 0.961 . S
H1187 C1171 0.961 . S
H1188 C1172 0.931 . S
H1189 C1177 0.930 . S
H1190 C1178 0.956 . S
H1191 C1178 0.961 . S
H1192 C1178 0.961 . S
H1193 C1179 0.958 . S
H1194 C1179 0.961 . S
H1195 C1179 0.960 . S
C1196 C1197 1.391 . S
C1196 C1198 1.394 . S
C1196 H1212 0.931 . S
C1197 C1196 1.391 . S
C1197 C1201 1.376 . S
C1198 C1196 1.394 . S
C1198 C1199 1.369 . S
C1198 C1202 1.531 . S
C1199 C1198 1.369 . S
C1199 C1200 1.410 . S
C1199 C1207 1.503 . S
C1200 C1199 1.410 . S
C1200 C1201 1.392 . S
C1200 C1203 1.511 . S
C1201 C1197 1.376 . S
C1201 C1200 1.392 . S
C1201 H1213 0.929 . S
C1202 C1198 1.531 . S
C1202 H1214 0.960 . S
C1202 H1215 0.962 . S
C1202 H1216 0.960 . S
C1203 C1200 1.511 . S
C1203 H1217 0.961 . S
C1203 H1218 0.961 . S
C1203 H1219 0.961 . S
C1204 C1205 1.370 . S
C1204 C1206 1.363 . S
C1204 H1220 0.931 . S
C1205 C1204 1.370 . S
C1205 C1209 1.408 . S
C1206 C1204 1.363 . S
C1206 C1207 1.370 . S
C1206 C1210 1.524 . S
C1207 C1199 1.503 . S
C1207 C1206 1.370 . S
C1207 C1208 1.403 . S
C1208 C1207 1.403 . S
C1208 C1209 1.404 . S
C1208 C1211 1.539 . S
C1209 C1205 1.408 . S
C1209 C1208 1.404 . S
C1209 H1221 0.930 . S
C1210 C1206 1.524 . S
C1210 H1222 0.956 . S
C1210 H1223 0.961 . S
C1210 H1224 0.961 . S
C1211 C1208 1.539 . S
C1211 H1225 0.958 . S
C1211 H1226 0.961 . S
C1211 H1227 0.960 . S
H1212 C1196 0.931 . S
H1213 C1201 0.929 . S
H1214 C1202 0.960 . S
H1215 C1202 0.962 . S
H1216 C1202 0.960 . S
H1217 C1203 0.961 . S
H1218 C1203 0.961 . S
H1219 C1203 0.961 . S
H1220 C1204 0.931 . S
H1221 C1209 0.930 . S
H1222 C1210 0.956 . S
H1223 C1210 0.961 . S
H1224 C1210 0.961 . S
H1225 C1211 0.958 . S
H1226 C1211 0.961 . S
H1227 C1211 0.960 . S
C1228 C1229 1.391 . S
C1228 C1230 1.394 . S
C1228 H1244 0.931 . S
C1229 C1228 1.391 . S
C1229 C1233 1.376 . S
C1230 C1228 1.394 . S
C1230 C1231 1.369 . S
C1230 C1234 1.531 . S
C1231 C1230 1.369 . S
C1231 C1232 1.410 . S
C1231 C1239 1.503 . S
C1232 C1231 1.410 . S
C1232 C1233 1.392 . S
C1232 C1235 1.511 . S
C1233 C1229 1.376 . S
C1233 C1232 1.392 . S
C1233 H1245 0.929 . S
C1234 C1230 1.531 . S
C1234 H1246 0.960 . S
C1234 H1247 0.962 . S
C1234 H1248 0.960 . S
C1235 C1232 1.511 . S
C1235 H1249 0.961 . S
C1235 H1250 0.961 . S
C1235 H1251 0.961 . S
C1236 C1237 1.370 . S
C1236 C1238 1.363 . S
C1236 H1252 0.931 . S
C1237 C1236 1.370 . S
C1237 C1241 1.408 . S
C1238 C1236 1.363 . S
C1238 C1239 1.370 . S
C1238 C1242 1.524 . S
C1239 C1231 1.503 . S
C1239 C1238 1.370 . S
C1239 C1240 1.403 . S
C1240 C1239 1.403 . S
C1240 C1241 1.404 . S
C1240 C1243 1.539 . S
C1241 C1237 1.408 . S
C1241 C1240 1.404 . S
C1241 H1253 0.930 . S
C1242 C1238 1.524 . S
C1242 H1254 0.956 . S
C1242 H1255 0.961 . S
C1242 H1256 0.961 . S
C1243 C1240 1.539 . S
C1243 H1257 0.958 . S
C1243 H1258 0.961 . S
C1243 H1259 0.960 . S
H1244 C1228 0.931 . S
H1245 C1233 0.929 . S
H1246 C1234 0.960 . S
H1247 C1234 0.962 . S
H1248 C1234 0.960 . S
H1249 C1235 0.961 . S
H1250 C1235 0.961 . S
H1251 C1235 0.961 . S
H1252 C1236 0.931 . S
H1253 C1241 0.930 . S
H1254 C1242 0.956 . S
H1255 C1242 0.961 . S
H1256 C1242 0.961 . S
H1257 C1243 0.958 . S
H1258 C1243 0.961 . S
H1259 C1243 0.960 . S
C1260 C1261 1.391 . S
C1260 C1262 1.394 . S
C1260 H1276 0.931 . S
C1261 C1260 1.391 . S
C1261 C1265 1.376 . S
C1262 C1260 1.394 . S
C1262 C1263 1.369 . S
C1262 C1266 1.531 . S
C1263 C1262 1.369 . S
C1263 C1264 1.410 . S
C1263 C1271 1.503 . S
C1264 C1263 1.410 . S
C1264 C1265 1.392 . S
C1264 C1267 1.511 . S
C1265 C1261 1.376 . S
C1265 C1264 1.392 . S
C1265 H1277 0.929 . S
C1266 C1262 1.531 . S
C1266 H1278 0.960 . S
C1266 H1279 0.962 . S
C1266 H1280 0.960 . S
C1267 C1264 1.511 . S
C1267 H1281 0.961 . S
C1267 H1282 0.961 . S
C1267 H1283 0.961 . S
C1268 C1269 1.370 . S
C1268 C1270 1.363 . S
C1268 H1284 0.931 . S
C1269 C1268 1.370 . S
C1269 C1273 1.408 . S
C1270 C1268 1.363 . S
C1270 C1271 1.370 . S
C1270 C1274 1.524 . S
C1271 C1263 1.503 . S
C1271 C1270 1.370 . S
C1271 C1272 1.403 . S
C1272 C1271 1.403 . S
C1272 C1273 1.404 . S
C1272 C1275 1.539 . S
C1273 C1269 1.408 . S
C1273 C1272 1.404 . S
C1273 H1285 0.930 . S
C1274 C1270 1.524 . S
C1274 H1286 0.956 . S
C1274 H1287 0.961 . S
C1274 H1288 0.961 . S
C1275 C1272 1.539 . S
C1275 H1289 0.958 . S
C1275 H1290 0.961 . S
C1275 H1291 0.960 . S
H1276 C1260 0.931 . S
H1277 C1265 0.929 . S
H1278 C1266 0.960 . S
H1279 C1266 0.962 . S
H1280 C1266 0.960 . S
H1281 C1267 0.961 . S
H1282 C1267 0.961 . S
H1283 C1267 0.961 . S
H1284 C1268 0.931 . S
H1285 C1273 0.930 . S
H1286 C1274 0.956 . S
H1287 C1274 0.961 . S
H1288 C1274 0.961 . S
H1289 C1275 0.958 . S
H1290 C1275 0.961 . S
H1291 C1275 0.960 . S
C1292 C1293 1.391 . S
C1292 C1294 1.394 . S
C1292 H1308 0.931 . S
C1293 C1292 1.391 . S
C1293 C1297 1.376 . S
C1294 C1292 1.394 . S
C1294 C1295 1.369 . S
C1294 C1298 1.531 . S
C1295 C1294 1.369 . S
C1295 C1296 1.410 . S
C1295 C1303 1.503 . S
C1296 C1295 1.410 . S
C1296 C1297 1.392 . S
C1296 C1299 1.511 . S
C1297 C1293 1.376 . S
C1297 C1296 1.392 . S
C1297 H1309 0.929 . S
C1298 C1294 1.531 . S
C1298 H1310 0.960 . S
C1298 H1311 0.962 . S
C1298 H1312 0.960 . S
C1299 C1296 1.511 . S
C1299 H1313 0.961 . S
C1299 H1314 0.961 . S
C1299 H1315 0.961 . S
C1300 C1301 1.370 . S
C1300 C1302 1.363 . S
C1300 H1316 0.931 . S
C1301 C1300 1.370 . S
C1301 C1305 1.408 . S
C1302 C1300 1.363 . S
C1302 C1303 1.370 . S
C1302 C1306 1.524 . S
C1303 C1295 1.503 . S
C1303 C1302 1.370 . S
C1303 C1304 1.403 . S
C1304 C1303 1.403 . S
C1304 C1305 1.404 . S
C1304 C1307 1.539 . S
C1305 C1301 1.408 . S
C1305 C1304 1.404 . S
C1305 H1317 0.930 . S
C1306 C1302 1.524 . S
C1306 H1318 0.956 . S
C1306 H1319 0.961 . S
C1306 H1320 0.961 . S
C1307 C1304 1.539 . S
C1307 H1321 0.958 . S
C1307 H1322 0.961 . S
C1307 H1323 0.960 . S
H1308 C1292 0.931 . S
H1309 C1297 0.929 . S
H1310 C1298 0.960 . S
H1311 C1298 0.962 . S
H1312 C1298 0.960 . S
H1313 C1299 0.961 . S
H1314 C1299 0.961 . S
H1315 C1299 0.961 . S
H1316 C1300 0.931 . S
H1317 C1305 0.930 . S
H1318 C1306 0.956 . S
H1319 C1306 0.961 . S
H1320 C1306 0.961 . S
H1321 C1307 0.958 . S
H1322 C1307 0.961 . S
H1323 C1307 0.960 . S
C1324 C1325 1.391 . S
C1324 C1326 1.394 . S
C1324 H1340 0.931 . S
C1325 C1324 1.391 . S
C1325 C1329 1.376 . S
C1326 C1324 1.394 . S
C1326 C1327 1.369 . S
C1326 C1330 1.531 . S
C1327 C1326 1.369 . S
C1327 C1328 1.410 . S
C1327 C1335 1.503 . S
C1328 C1327 1.410 . S
C1328 C1329 1.392 . S
C1328 C1331 1.511 . S
C1329 C1325 1.376 . S
C1329 C1328 1.392 . S
C1329 H1341 0.929 . S
C1330 C1326 1.531 . S
C1330 H1342 0.960 . S
C1330 H1343 0.962 . S
C1330 H1344 0.960 . S
C1331 C1328 1.511 . S
C1331 H1345 0.961 . S
C1331 H1346 0.961 . S
C1331 H1347 0.961 . S
C1332 C1333 1.370 . S
C1332 C1334 1.363 . S
C1332 H1348 0.931 . S
C1333 C1332 1.370 . S
C1333 C1337 1.408 . S
C1334 C1332 1.363 . S
C1334 C1335 1.370 . S
C1334 C1338 1.524 . S
C1335 C1327 1.503 . S
C1335 C1334 1.370 . S
C1335 C1336 1.403 . S
C1336 C1335 1.403 . S
C1336 C1337 1.404 . S
C1336 C1339 1.539 . S
C1337 C1333 1.408 . S
C1337 C1336 1.404 . S
C1337 H1349 0.930 . S
C1338 C1334 1.524 . S
C1338 H1350 0.956 . S
C1338 H1351 0.961 . S
C1338 H1352 0.961 . S
C1339 C1336 1.539 . S
C1339 H1353 0.958 . S
C1339 H1354 0.961 . S
C1339 H1355 0.960 . S
H1340 C1324 0.931 . S
H1341 C1329 0.929 . S
H1342 C1330 0.960 . S
H1343 C1330 0.962 . S
H1344 C1330 0.960 . S
H1345 C1331 0.961 . S
H1346 C1331 0.961 . S
H1347 C1331 0.961 . S
H1348 C1332 0.931 . S
H1349 C1337 0.930 . S
H1350 C1338 0.956 . S
H1351 C1338 0.961 . S
H1352 C1338 0.961 . S
H1353 C1339 0.958 . S
H1354 C1339 0.961 . S
H1355 C1339 0.960 . S
C397 N2 1.947 . S
C405 N101 1.941 . S
C429 N134 1.910 . S
C437 N35 1.935 . S
C461 N167 1.919 . S
C469 N68 1.919 . S
C493 N299 1.906 . S
C501 N200 1.914 . S
C525 N332 1.894 . S
C533 N233 1.923 . S
C557 N266 1.938 . S
C565 N365 1.937 . S
C589 C21 0.362 . S
C597 N178 0.521 . S
C621 N13 0.604 . S
C629 C54 0.400 . S
C653 C87 0.358 . S
C661 N46 0.502 . S
C685 N79 0.396 . S
C693 C120 0.397 . S
C717 N112 0.606 . S
C725 C153 0.399 . S
C749 N145 0.495 . S
C757 C186 0.416 . S
C781 N244 0.397 . S
C789 C219 0.400 . S
C813 N277 0.426 . S
C821 C252 0.386 . S
C845 N310 0.405 . S
C853 C285 0.392 . S
C877 C318 0.445 . S
C885 N343 0.486 . S
C909 C351 0.441 . S
C917 N376 0.478 . S
C941 C384 0.388 . S
C949 N211 0.543 . S
C973 C271 1.653 . S
C981 C7 1.671 . S
C1005 C40 1.692 . S
C1013 C304 1.683 . S
C1037 C73 1.661 . S
C1045 C337 1.676 . S
C1069 C106 1.687 . S
C1077 C370 1.680 . S
C1101 C205 1.681 . S
C1109 C139 1.676 . S
C1133 C172 1.653 . S
C1141 C238 1.671 . S
C1165 C381 1.499 . S
C1173 C117 1.507 . S
C1197 C216 1.528 . S
C1205 C150 1.519 . S
C1229 C249 1.533 . S
C1237 C183 1.523 . S
C1261 C18 1.523 . S
C1269 C282 1.521 . S
C1293 C51 1.498 . S
C1301 C315 1.512 . S
C1325 C84 1.519 . S
C1333 C348 1.515 . S
