# Generated by pormake.
# Topology snp, (6)-cn, num edge types: 1
# Building blocks:
#     Node 0, Type 0, BuildingBlock: GEDQOX_clean_sbu_0, # of connection points: 6
#     Node 1, Type 0, BuildingBlock: GEDQOX_clean_sbu_0, # of connection points: 6
#     Node 2, Type 0, BuildingBlock: GEDQOX_clean_sbu_0, # of connection points: 6
#     Node 3, Type 0, BuildingBlock: GEDQOX_clean_sbu_0, # of connection points: 6
#     Edge 4, Type (0, 0), BuildingBlock: MIFKUJ_clean_linker_0, # of connection points: 2
#     Edge 5, Type (0, 0), BuildingBlock: MIFKUJ_clean_linker_0, # of connection points: 2
#     Edge 6, Type (0, 0), BuildingBlock: MIFKUJ_clean_linker_0, # of connection points: 2
#     Edge 7, Type (0, 0), BuildingBlock: MIFKUJ_clean_linker_0, # of connection points: 2
#     Edge 8, Type (0, 0), BuildingBlock: MIFKUJ_clean_linker_0, # of connection points: 2
#     Edge 9, Type (0, 0), BuildingBlock: MIFKUJ_clean_linker_0, # of connection points: 2
#     Edge 10, Type (0, 0), BuildingBlock: MIFKUJ_clean_linker_0, # of connection points: 2
#     Edge 11, Type (0, 0), BuildingBlock: MIFKUJ_clean_linker_0, # of connection points: 2
#     Edge 12, Type (0, 0), BuildingBlock: MIFKUJ_clean_linker_0, # of connection points: 2
#     Edge 13, Type (0, 0), BuildingBlock: MIFKUJ_clean_linker_0, # of connection points: 2
#     Edge 14, Type (0, 0), BuildingBlock: MIFKUJ_clean_linker_0, # of connection points: 2
#     Edge 15, Type (0, 0), BuildingBlock: MIFKUJ_clean_linker_0, # of connection points: 2
# Relax obj value: 0.189
# Max RMSD: 0.207
# Mean RMSD: 0.196
data_MOF--net-snp--node1-GEDQOX_clean_sbu_0--edge1-MIFKUJ_clean_linker_0
_symmetry_space_group_name_H-M    P1
_symmetry_Int_Tables_number       1
_symmetry_cell_setting            triclinic
loop_
_symmetry_equiv_pos_as_xyz
'x, y, z'
_cell_length_a     32.545117
_cell_length_b     32.286346
_cell_length_c     44.424021
_cell_angle_alpha  87.589315
_cell_angle_beta   102.72115
_cell_angle_gamma 94.984352
loop_
_atom_site_label
_atom_site_type_symbol
_atom_site_fract_x
_atom_site_fract_y
_atom_site_fract_z
_atom_type_partial_charge
Nd0 Nd 0.24677 0.00539 0.07362 0.0
Nd1 Nd 0.2589 0.0891 0.11117 0.0
C2 C 0.25395 0.94906 0.03372 0.0
C3 C 0.23753 0.94095 1.00026 0.0
C4 C 0.26533 0.94378 0.98 0.0
C5 C 0.25045 0.93602 0.94848 0.0
C6 C 0.20725 0.925 0.93627 0.0
C7 C 0.17956 0.92188 0.95673 0.0
C8 C 0.19443 0.9298 0.98822 0.0
C9 C 0.17374 0.02738 0.08789 0.0
C10 C 0.23854 0.09758 0.03681 0.0
C11 C 0.25838 0.15049 0.14925 0.0
C12 C 0.24654 0.15668 0.17894 0.0
C13 C 0.23865 0.12278 0.19814 0.0
C14 C 0.22792 0.1288 0.22643 0.0
C15 C 0.22552 0.1692 0.23643 0.0
C16 C 0.23377 0.20321 0.21703 0.0
C17 C 0.24398 0.19696 0.18858 0.0
C18 C 0.32898 0.06404 0.09471 0.0
C19 C 0.25981 -0.00342 0.14792 0.0
O20 O 0.28129 0.98129 0.04084 0.0
O21 O 0.22699 0.94424 0.05181 0.0
O22 O 0.17929 0.99007 0.08057 0.0
O23 O 0.20376 0.0521 0.08251 0.0
O24 O 0.24466 0.05767 0.03626 0.0
O25 O 0.23797 0.11667 0.06243 0.0
O26 O 0.2276 0.14157 0.12547 0.0
O27 O 0.29078 0.12872 0.15041 0.0
O28 O 0.32107 0.10283 0.09477 0.0
O29 O 0.30142 0.04058 0.10434 0.0
O30 O 0.2541 0.0367 0.14716 0.0
O31 O 0.26396 0.97707 0.12314 0.0
H32 H 0.29873 0.95214 0.98855 0.0
H33 H 0.2729 0.93934 0.93367 0.0
H34 H 0.14628 0.91275 0.94858 0.0
H35 H 0.17204 0.927 1.00311 0.0
H36 H 0.24082 0.09165 0.19114 0.0
H37 H 0.22121 0.1017 0.24029 0.0
H38 H 0.23313 0.23483 0.22401 0.0
H39 H 0.25034 0.22369 0.17424 0.0
Nd40 Nd 0.06367 0.24544 0.65612 0.0
Nd41 Nd 0.98517 0.21349 0.68042 0.0
C42 C 0.11608 0.28129 0.62303 0.0
C43 C 0.12384 0.27507 0.59175 0.0
C44 C 0.09191 0.27839 0.56482 0.0
C45 C 0.09936 0.26998 0.5358 0.0
C46 C 0.13888 0.2579 0.53294 0.0
C47 C 0.17091 0.25526 0.55987 0.0
C48 C 0.16351 0.26384 0.58882 0.0
C49 C 0.05467 0.16068 0.66389 0.0
C50 C 0.97232 0.21869 0.60682 0.0
C51 C 0.93156 0.17482 0.71133 0.0
C52 C 0.92604 0.17049 0.74353 0.0
C53 C 0.96041 0.165 0.76839 0.0
C54 C 0.95415 0.15955 0.79856 0.0
C55 C 0.91342 0.15961 0.80455 0.0
C56 C 0.87925 0.16587 0.77962 0.0
C57 C 0.88552 0.17118 0.74947 0.0
C58 C 0.99552 0.29777 0.67157 0.0
C59 C 0.07684 0.23463 0.72945 0.0
O60 O 0.08067 0.29658 0.62483 0.0
O61 O 0.12624 0.2514 0.64342 0.0
O62 O 0.09063 0.18271 0.66999 0.0
O63 O 0.02536 0.18394 0.65363 0.0
O64 O 0.00888 0.24173 0.61221 0.0
O65 O 0.95791 0.19921 0.6296 0.0
O66 O 0.96345 0.1575 0.7049 0.0
O67 O 0.92581 0.21121 0.69768 0.0
O68 O 0.95886 0.27688 0.66512 0.0
O69 O 0.02426 0.2747 0.68322 0.0
O70 O 0.03948 0.21338 0.7235 0.0
O71 O 0.09212 0.2557 0.70759 0.0
H72 H 0.06095 0.28691 0.56618 0.0
H73 H 0.07378 0.27194 0.51567 0.0
H74 H 0.20189 0.24662 0.55859 0.0
H75 H 0.18878 0.26116 0.60908 0.0
H76 H 0.99208 0.16458 0.76451 0.0
H77 H 0.98126 0.15535 0.81722 0.0
H78 H 0.84742 0.1656 0.7833 0.0
H79 H 0.85855 0.17533 0.73067 0.0
Nd80 Nd 0.83395 0.93453 0.137 0.0
Nd81 Nd 0.81008 0.00863 0.166 0.0
C82 C 0.86737 0.88128 0.10716 0.0
C83 C 0.87264 0.87428 0.07544 0.0
C84 C 0.89488 0.90384 0.05955 0.0
C85 C 0.90043 0.89578 0.02998 0.0
C86 C 0.88366 0.85813 1.01554 0.0
C87 C 0.86114 0.82884 0.03141 0.0
C88 C 0.85587 0.83677 0.06102 0.0
C89 C 0.74942 0.94778 0.12141 0.0
C90 C 0.83913 0.02481 0.10173 0.0
C91 C 0.77791 0.06343 0.1952 0.0
C92 C 0.78539 0.07631 0.22771 0.0
C93 C 0.79342 0.04723 0.25232 0.0
C94 C 0.80444 0.06042 0.28293 0.0
C95 C 0.80818 0.10303 0.28961 0.0
C96 C 0.79949 0.13197 0.26489 0.0
C97 C 0.78813 0.11872 0.23431 0.0
C98 C 0.89424 -0.00297 0.18429 0.0
C99 C 0.8111 0.91614 0.20259 0.0
O100 O 0.88906 0.91313 0.12193 0.0
O101 O 0.82904 0.8755 0.11194 0.0
O102 O 0.76314 0.91118 0.1272 0.0
O103 O 0.77948 0.9752 0.12301 0.0
O104 O 0.85679 0.98955 0.109 0.0
O105 O 0.81222 0.03674 0.11744 0.0
O106 O 0.75957 0.02618 0.18846 0.0
O107 O 0.80937 0.07283 0.18164 0.0
O108 O 0.87934 0.03298 0.17792 0.0
O109 O 0.86498 0.96834 0.18099 0.0
O110 O 0.79474 0.95281 0.1984 0.0
O111 O 0.83369 0.90411 0.1838 0.0
H112 H 0.90813 0.93314 0.06994 0.0
H113 H 0.91746 0.91925 1.01826 0.0
H114 H 0.84819 0.79937 1.02116 0.0
H115 H 0.83883 0.81334 0.07278 0.0
H116 H 0.79218 0.01439 0.24789 0.0
H117 H 0.81132 0.03731 0.30134 0.0
H118 H 0.80158 0.16494 0.26918 0.0
H119 H 0.78232 0.14174 0.21572 0.0
Nd120 Nd 0.04371 0.79474 0.54672 0.0
Nd121 Nd 0.96279 0.76665 0.57318 0.0
C122 C 0.10078 0.82199 0.51447 0.0
C123 C 0.10892 0.83235 0.48325 0.0
C124 C 0.0992 0.87056 0.46809 0.0
C125 C 0.11062 0.88101 0.43986 0.0
C126 C 0.13243 0.85372 0.42625 0.0
C127 C 0.14208 0.81558 0.44156 0.0
C128 C 0.13047 0.80507 0.46958 0.0
C129 C 0.04475 0.72097 0.57916 0.0
C130 C 0.95496 0.75252 0.50138 0.0
C131 C 0.9167 0.73509 0.61189 0.0
C132 C 0.91721 0.74259 0.6447 0.0
C133 C 0.95463 0.74212 0.6677 0.0
C134 C 0.95472 0.75111 0.69833 0.0
C135 C 0.91754 0.76133 0.70669 0.0
C136 C 0.8803 0.76202 0.68342 0.0
C137 C 0.88013 0.75253 0.65293 0.0
C138 C 0.95615 0.83592 0.53714 0.0
C139 C 0.04478 0.82256 0.61623 0.0
O140 O 0.07955 0.84684 0.52678 0.0
O141 O 0.09276 0.78273 0.52137 0.0
O142 O 0.07803 0.74676 0.58092 0.0
O143 O 0.01364 0.73375 0.5601 0.0
O144 O 0.99096 0.77627 0.50403 0.0
O145 O 0.93962 0.73854 0.52551 0.0
O146 O 0.9485 0.71682 0.60613 0.0
O147 O 0.90523 0.76567 0.59238 0.0
O148 O 0.92321 0.81225 0.54107 0.0
O149 O 0.98958 0.82683 0.55604 0.0
O150 O 0.00809 0.80045 0.61359 0.0
O151 O 0.06487 0.82744 0.59329 0.0
H152 H 0.08304 0.89255 0.4781 0.0
H153 H 0.10214 0.91044 0.42865 0.0
H154 H 0.15953 0.79405 0.43226 0.0
H155 H 0.13931 0.77581 0.48095 0.0
H156 H 0.98392 0.7349 0.66209 0.0
H157 H 0.98394 0.7496 0.71546 0.0
H158 H 0.85121 0.77065 0.68852 0.0
H159 H 0.85102 0.75364 0.6356 0.0
H160 H 0.95697 0.05777 0.1984 0.0
H161 H 0.02847 0.0511 0.2252 0.0
H162 H 0.99757 0.92077 0.24449 0.0
H163 H 0.92519 0.92783 0.21619 0.0
H164 H 0.05605 0.91487 0.22428 0.0
H165 H 0.10788 0.09834 0.24601 0.0
H166 H 0.11596 0.14255 0.29075 0.0
H167 H 0.09853 0.03521 0.34825 0.0
H168 H 0.09087 0.98979 0.30395 0.0
H169 H 0.09681 0.98962 0.09015 0.0
H170 H 0.07009 0.97627 0.13701 0.0
H171 H 0.17443 0.05549 0.18695 0.0
H172 H 0.19378 0.07637 0.1387 0.0
H173 H 0.1353 0.05177 0.22136 0.0
H174 H 0.16375 0.93801 0.17723 0.0
H175 H 0.16994 0.88164 0.1431 0.0
H176 H 0.04133 0.83663 0.14074 0.0
H177 H 0.03417 0.8929 0.17426 0.0
C178 C 0.96532 0.0278 0.20873 0.0
C179 C 0.93626 -0.00708 0.20403 0.0
C180 C 0.00649 0.02395 0.22494 0.0
C181 C 0.01984 0.98487 0.23672 0.0
C182 C 0.98899 0.95109 0.23523 0.0
C183 C 0.94765 0.95493 0.21862 0.0
C184 C 0.06539 0.97746 0.24066 0.0
C185 C 0.07305 0.945 0.22317 0.0
C186 C 0.09548 0.0121 0.24491 0.0
C187 C 0.09925 0.04018 0.27139 0.0
C188 C 0.10639 0.08371 0.26815 0.0
C189 C 0.1107 0.10919 0.29352 0.0
C190 C 0.10801 0.09173 0.32238 0.0
C191 C 0.10066 0.04873 0.32588 0.0
C192 C 0.09617 0.02308 0.30058 0.0
C193 C 0.11259 0.00577 0.11095 0.0
C194 C 0.14905 0.03239 0.11134 0.0
C195 C 0.09839 -0.0031 0.13811 0.0
C196 C 0.12264 0.01153 0.16654 0.0
C197 C 0.15577 0.04223 0.16594 0.0
C198 C 0.16736 0.05399 0.13821 0.0
C199 C 0.11283 -0.00487 0.19634 0.0
C200 C 0.11731 0.02207 0.22125 0.0
C201 C 0.09547 0.95363 0.19978 0.0
C202 C 0.09896 0.9195 0.17903 0.0
C203 C 0.137 0.91587 0.16967 0.0
C204 C 0.14056 0.88404 0.15025 0.0
C205 C 0.10617 0.85537 0.13997 0.0
C206 C 0.06809 0.85866 0.14893 0.0
C207 C 0.06436 0.89055 0.16826 0.0
H208 H 0.10896 0.83073 0.12493 0.0
H209 H 0.11145 0.11153 0.34199 0.0
H210 H 0.89887 0.89238 0.53253 0.0
H211 H 0.91385 0.96512 0.5218 0.0
H212 H 0.01996 0.93676 0.48469 0.0
H213 H 0.00566 0.86322 0.49709 0.0
H214 H 0.04669 0.95384 0.54132 0.0
H215 H 0.96346 0.03211 0.46193 0.0
H216 H 0.89921 0.05119 0.4248 0.0
H217 H 0.84093 0.07457 0.49949 0.0
H218 H 0.90425 0.05521 0.53706 0.0
H219 H 0.11646 0.12416 0.6447 0.0
H220 H 0.10254 0.07401 0.60354 0.0
H221 H 0.97235 0.05484 0.61148 0.0
H222 H 0.98575 0.10633 0.6519 0.0
H223 H 0.97769 0.08021 0.55493 0.0
H224 H 0.03961 0.97827 0.62875 0.0
H225 H 0.09425 0.94855 0.66931 0.0
H226 H 0.18029 0.95828 0.60819 0.0
H227 H 0.12637 0.989 0.56741 0.0
C228 C 0.92417 0.90153 0.52073 0.0
C229 C 0.95338 0.87355 0.51786 0.0
C230 C 0.93241 0.9434 0.51383 0.0
C231 C 0.97027 0.95683 0.50465 0.0
C232 C 0.99187 0.92718 0.49334 0.0
C233 C 0.98452 0.88536 0.50121 0.0
C234 C 0.99549 -0.00768 0.52165 0.0
C235 C 0.03233 0.98241 0.54325 0.0
C236 C 0.97684 0.02931 0.52495 0.0
C237 C 0.93881 0.04202 0.50237 0.0
C238 C 0.93689 0.04113 0.47046 0.0
C239 C 0.90058 0.05197 0.44934 0.0
C240 C 0.86597 0.06367 0.45986 0.0
C241 C 0.86774 0.06527 0.49144 0.0
C242 C 0.9039 0.05452 0.51265 0.0
C243 C 0.08533 0.10791 0.63864 0.0
C244 C 0.05184 0.11946 0.65093 0.0
C245 C 0.07738 0.07952 0.61492 0.0
C246 C 0.03621 0.06174 0.60405 0.0
C247 C 1.00414 0.0691 0.61923 0.0
C248 C 0.01192 0.09789 0.6426 0.0
C249 C 0.02532 0.03895 0.57506 0.0
C250 C 0.99242 0.05237 0.55164 0.0
C251 C 0.04639 0.00425 0.57052 0.0
C252 C 0.07925 0.98672 0.59523 0.0
C253 C 0.0704 0.97468 0.62409 0.0
C254 C 0.10118 0.9575 0.6471 0.0
C255 C 0.14078 0.95168 0.64138 0.0
C256 C 0.14966 0.96299 0.61263 0.0
C257 C 0.11903 0.98036 0.58958 0.0
H258 H 0.16453 0.93824 0.65919 0.0
H259 H 0.83769 0.07152 0.44363 0.0
H260 H 0.71824 0.02248 0.10475 0.0
H261 H 0.6449 0.03939 0.09622 0.0
H262 H 0.60649 0.91128 0.11487 0.0
H263 H 0.6802 0.89393 0.12284 0.0
H264 H 0.55072 0.94504 0.06665 0.0
H265 H 0.61857 0.98116 0.17024 0.0
H266 H 0.6744 0.01436 0.21083 0.0
H267 H 0.64686 0.13468 0.1704 0.0
H268 H 0.59128 0.10218 0.12926 0.0
H269 H 0.35356 0.98514 0.10082 0.0
H270 H 0.42391 0.96342 0.1015 0.0
H271 H 0.46684 0.09018 0.08279 0.0
H272 H 0.39659 0.11218 0.08247 0.0
H273 H 0.51977 0.05523 0.13116 0.0
H274 H 0.45043 0.01786 0.02768 0.0
H275 H 0.39327 0.98367 0.98856 0.0
H276 H 0.4225 0.86434 0.03021 0.0
H277 H 0.47937 0.89789 0.06994 0.0
C278 C 0.69415 -0.00217 0.10682 0.0
C279 C 0.70479 0.95695 0.11467 0.0
C280 C 0.6523 0.00755 0.102 0.0
C281 C 0.6204 0.97671 0.10539 0.0
C282 C 0.63072 0.93552 0.11223 0.0
C283 C 0.67272 0.92569 0.11687 0.0
C284 C 0.57671 0.9881 0.10303 0.0
C285 C 0.54379 0.96875 0.08099 0.0
C286 C 0.56793 0.01947 0.1215 0.0
C287 C 0.60095 0.03918 0.1465 0.0
C288 C 0.62458 0.01469 0.16988 0.0
C289 C 0.65616 0.03338 0.19301 0.0
C290 C 0.6642 0.07659 0.19317 0.0
C291 C 0.64061 0.10121 0.17023 0.0
C292 C 0.60903 0.08267 0.14702 0.0
C293 C 0.37789 0.00827 0.09648 0.0
C294 C 0.36982 0.05035 0.09171 0.0
C295 C 0.41799 -0.00419 0.0968 0.0
C296 C 0.45051 0.02519 0.0921 0.0
C297 C 0.44215 0.06708 0.08653 0.0
C298 C 0.40204 0.07955 0.08622 0.0
C299 C 0.49378 0.01259 0.09451 0.0
C300 C 0.52666 0.03161 0.11673 0.0
C301 C 0.50237 0.98078 0.07635 0.0
C302 C 0.46895 0.96044 0.05196 0.0
C303 C 0.44452 0.98435 0.02861 0.0
C304 C 0.41217 0.96508 1.00632 0.0
C305 C 0.40419 0.92187 1.00694 0.0
C306 C 0.42869 0.89782 0.02978 0.0
C307 C 0.46101 0.91694 0.05218 0.0
H308 H 0.37906 0.90703 0.9897 0.0
H309 H 0.68864 0.09101 0.21109 0.0
H310 H 0.93789 0.35257 0.64572 0.0
H311 H 0.95165 0.4275 0.63703 0.0
H312 H 0.08328 0.41913 0.68006 0.0
H313 H 0.06991 0.34436 0.68826 0.0
H314 H 0.9831 0.49223 0.67548 0.0
H315 H 0.14195 0.48256 0.63955 0.0
H316 H 0.17901 0.43143 0.61788 0.0
H317 H 0.05996 0.3712 0.57253 0.0
H318 H 0.02225 0.42231 0.5935 0.0
H319 H 0.10939 0.68632 0.61952 0.0
H320 H 0.10764 0.61615 0.64329 0.0
H321 H 0.97694 0.59365 0.59675 0.0
H322 H 0.97867 0.66275 0.5726 0.0
H323 H 0.08508 0.5386 0.61025 0.0
H324 H 0.92614 0.54278 0.64781 0.0
H325 H 0.88606 0.59388 0.66657 0.0
H326 H 1.00167 0.66563 0.705 0.0
H327 H 0.0425 0.61483 0.68674 0.0
C328 C 0.96966 0.36686 0.6534 0.0
C329 C 1.00291 0.34287 0.66741 0.0
C330 C 0.97743 0.40955 0.64861 0.0
C331 C 0.01852 0.42861 0.65771 0.0
C332 C 0.05147 0.40483 0.67258 0.0
C333 C 0.04378 0.36221 0.67723 0.0
C334 C 0.02729 0.47296 0.65019 0.0
C335 C 0.00528 0.50242 0.66117 0.0
C336 C 0.05695 0.48608 0.63205 0.0
C337 C 0.07933 0.45599 0.61842 0.0
C338 C 0.12371 0.45853 0.62482 0.0
C339 C 0.14482 0.42953 0.61267 0.0
C340 C 0.12185 0.39798 0.59394 0.0
C341 C 0.07772 0.39555 0.58713 0.0
C342 C 0.05647 0.42451 0.59916 0.0
C343 C 0.08033 0.66633 0.61455 0.0
C344 C 0.04405 0.67988 0.5945 0.0
C345 C 0.07941 0.62646 0.62805 0.0
C346 C 0.04204 0.6002 0.62194 0.0
C347 C 0.00586 0.61384 0.60204 0.0
C348 C 0.00689 0.65329 0.58833 0.0
C349 C 0.04048 0.55772 0.63522 0.0
C350 C 0.06366 0.52852 0.62518 0.0
C351 C 0.01159 0.5448 0.65394 0.0
C352 C 0.98736 0.57503 0.66575 0.0
C353 C 0.94304 0.56931 0.66043 0.0
C354 C 0.92019 0.5983 0.67091 0.0
C355 C 0.9413 0.63303 0.6869 0.0
C356 C 0.98535 0.6388 0.69251 0.0
C357 C 0.00835 0.60996 0.68205 0.0
H358 H 0.92353 0.65542 0.69498 0.0
H359 H 0.13824 0.37549 0.58465 0.0
H360 H 0.11415 0.29795 0.47667 0.0
H361 H 0.12584 0.2793 0.42649 0.0
H362 H 0.19253 0.17497 0.46931 0.0
H363 H 0.18087 0.19336 0.51943 0.0
H364 H 0.23555 0.21539 0.43207 0.0
H365 H 0.09077 0.14832 0.41095 0.0
H366 H 0.01332 0.14087 0.40561 0.0
H367 H 1.00283 0.25847 0.35679 0.0
H368 H 0.08011 0.26591 0.36111 0.0
H369 H 0.24787 0.12427 0.291 0.0
H370 H 0.23161 0.13634 0.34085 0.0
H371 H 0.16494 0.24247 0.30183 0.0
H372 H 0.17896 0.22931 0.25151 0.0
H373 H 0.12197 0.1985 0.3376 0.0
H374 H 0.26813 0.25135 0.34875 0.0
H375 H 0.34297 0.24627 0.34765 0.0
H376 H 0.35099 0.1473 0.41585 0.0
H377 H 0.27604 0.15147 0.41708 0.0
C378 C 0.13103 0.27085 0.47539 0.0
C379 C 0.14648 0.24716 0.50222 0.0
C380 C 0.1375 0.26003 0.44657 0.0
C381 C 0.15952 0.22524 0.44383 0.0
C382 C 0.1753 0.20184 0.47064 0.0
C383 C 0.1689 0.21263 0.49941 0.0
C384 C 0.16849 0.21487 0.4135 0.0
C385 C 0.21057 0.2112 0.41153 0.0
C386 C 0.13636 0.20984 0.38638 0.0
C387 C 0.09104 0.208 0.38684 0.0
C388 C 0.07192 0.17278 0.39944 0.0
C389 C 0.02806 0.16829 0.39621 0.0
C390 C 1.0032 0.19918 0.38086 0.0
C391 C 0.02213 0.23461 0.3687 0.0
C392 C 0.0659 0.23888 0.37139 0.0
C393 C 0.22927 0.14991 0.2928 0.0
C394 C 0.21509 0.17599 0.267 0.0
C395 C 0.22049 0.15713 0.32156 0.0
C396 C 0.1978 0.19091 0.32542 0.0
C397 C 0.18288 0.21645 0.29963 0.0
C398 C 0.19133 0.20908 0.27083 0.0
C399 C 0.18897 0.19949 0.35609 0.0
C400 C 0.14698 0.20284 0.35813 0.0
C401 C 0.22122 0.20365 0.38328 0.0
C402 C 0.2664 0.2015 0.38282 0.0
C403 C 0.2858 0.22836 0.36338 0.0
C404 C 0.32824 0.22566 0.36275 0.0
C405 C 0.3517 0.19642 0.38162 0.0
C406 C 0.33279 0.16991 0.40123 0.0
C407 C 0.29034 0.17246 0.40193 0.0
H408 H 0.38454 0.19436 0.38108 0.0
H409 H 0.96928 0.19571 0.37847 0.0
H410 H 0.86151 0.19842 0.83367 0.0
H411 H 0.84706 0.18222 0.88491 0.0
H412 H 0.93485 0.08695 0.89885 0.0
H413 H 0.94874 0.10231 0.84752 0.0
H414 H 0.86183 0.05859 0.91346 0.0
H415 H 0.95964 0.17887 0.93589 0.0
H416 H 0.98689 0.25166 0.92962 0.0
H417 H 0.87559 0.29424 0.95124 0.0
H418 H 0.84738 0.22162 0.9572 0.0
H419 H 0.90041 0.01246 0.07107 0.0
H420 H 0.90952 0.04202 1.02158 0.0
H421 H 0.80686 0.11905 1.0185 0.0
H422 H 0.79702 0.08894 0.0686 0.0
H423 H 0.87909 0.15989 0.99715 0.0
H424 H 0.78715 0.03506 0.98125 0.0
H425 H 0.76433 0.96111 0.98798 0.0
H426 H 0.86871 0.92561 0.95294 0.0
H427 H 0.89345 -0.00096 0.9476 0.0
C428 C 0.87773 0.174 0.84765 0.0
C429 C 0.90629 0.15165 0.83642 0.0
C430 C 0.86969 0.16502 0.87706 0.0
C431 C 0.89001 0.13349 0.89587 0.0
C432 C 0.91881 0.11145 0.88481 0.0
C433 C 0.92699 0.12051 0.85552 0.0
C434 C 0.88013 0.12204 0.92651 0.0
C435 C 0.86603 0.08066 0.93186 0.0
C436 C 0.88431 0.15114 0.95021 0.0
C437 C 0.90116 0.19481 0.94662 0.0
C438 C 0.94078 0.20375 0.93901 0.0
C439 C 0.95645 0.24497 0.93558 0.0
C440 C 0.93292 0.27755 0.93993 0.0
C441 C 0.89373 0.26896 0.94781 0.0
C442 C 0.8779 0.22778 0.95124 0.0
C443 C 0.87978 0.03591 0.06016 0.0
C444 C 0.84752 0.04789 0.07373 0.0
C445 C 0.88515 0.05282 0.03176 0.0
C446 C 0.85847 0.08223 1.01607 0.0
C447 C 0.82768 0.09621 0.03019 0.0
C448 C 0.82211 0.07903 0.05881 0.0
C449 C 0.86185 0.09616 0.98427 0.0
C450 C 0.87454 0.13793 0.97865 0.0
C451 C 0.85691 0.06725 0.96033 0.0
C452 C 0.84247 0.02277 0.96434 0.0
C453 C 0.80573 0.0115 0.97554 0.0
C454 C 0.79247 0.96957 0.97918 0.0
C455 C 0.81523 0.93858 0.97116 0.0
C456 C 0.85132 0.94948 0.95953 0.0
C457 C 0.86508 0.99129 0.9563 0.0
H458 H 0.80479 0.90614 0.97382 0.0
H459 H 0.94511 0.30945 0.93727 0.0
H460 H 0.96405 0.71462 0.44952 0.0
H461 H 0.92601 0.72907 0.39649 0.0
H462 H 0.84902 0.81001 0.4312 0.0
H463 H 0.88378 0.79187 0.48383 0.0
H464 H 0.80476 0.78407 0.38205 0.0
H465 H 0.94996 0.83999 0.40867 0.0
H466 H 0.02661 0.83514 0.42606 0.0
H467 H 0.02722 0.76345 0.34693 0.0
H468 H 0.9501 0.76656 0.32961 0.0
H469 H 0.78745 0.9373 0.25557 0.0
H470 H 0.79962 0.89886 0.30523 0.0
H471 H 0.84605 0.79937 0.26362 0.0
H472 H 0.83404 0.83713 0.21432 0.0
H473 H 0.9028 0.83167 0.31431 0.0
H474 H 0.75511 0.78323 0.28653 0.0
H475 H 0.67889 0.79251 0.27071 0.0
H476 H 0.6853 0.86083 0.3527 0.0
H477 H 0.76171 0.85245 0.36881 0.0
C478 C 0.93775 0.73401 0.44567 0.0
C479 C 0.92656 0.7519 0.47063 0.0
C480 C 0.91643 0.7429 0.41538 0.0
C481 C 0.88563 0.7721 0.40954 0.0
C482 C 0.87269 0.78765 0.43475 0.0
C483 C 0.89264 0.77725 0.46496 0.0
C484 C 0.86983 0.78968 0.37778 0.0
C485 C 0.82637 0.79467 0.3674 0.0
C486 C 0.89766 0.80365 0.35826 0.0
C487 C 0.94419 0.80297 0.36812 0.0
C488 C 0.9664 0.82304 0.39505 0.0
C489 C 0.00994 0.82053 0.40492 0.0
C490 C 0.03177 0.79888 0.38766 0.0
C491 C 0.01019 0.78 0.36035 0.0
C492 C 0.96654 0.78199 0.35055 0.0
C493 C 0.7993 0.90683 0.25685 0.0
C494 C 0.8103 0.8906 0.23105 0.0
C495 C 0.80621 0.88487 0.28523 0.0
C496 C 0.82399 0.84634 0.28813 0.0
C497 C 0.83254 0.82912 0.26195 0.0
C498 C 0.82562 0.85086 0.23374 0.0
C499 C 0.83807 0.82583 0.3188 0.0
C500 C 0.88128 0.82066 0.32897 0.0
C501 C 0.81021 0.81281 0.33828 0.0
C502 C 0.76421 0.8175 0.32874 0.0
C503 C 0.74034 0.8005 0.30107 0.0
C504 C 0.69708 0.80555 0.29207 0.0
C505 C 0.67728 0.82732 0.31065 0.0
C506 C 0.70068 0.844 0.33831 0.0
C507 C 0.74395 0.83906 0.34741 0.0
H508 H 0.64379 0.83121 0.30363 0.0
H509 H 0.06533 0.79653 0.39546 0.0
H510 H 0.12863 0.83646 0.64471 0.0
H511 H 0.1575 0.85845 0.69812 0.0
H512 H 0.03157 0.87319 0.7097 0.0
H513 H 1.00257 0.85014 0.65695 0.0
H514 H 0.09816 0.9402 0.73546 0.0
H515 H 0.06266 0.7927 0.7376 0.0
H516 H 0.06322 0.72122 0.72037 0.0
H517 H 0.19847 0.72828 0.74946 0.0
H518 H 0.19875 0.80024 0.76632 0.0
H519 H 0.13046 0.94232 0.89909 0.0
H520 H 0.10416 0.92867 0.84442 0.0
H521 H 0.22157 0.87862 0.84093 0.0
H522 H 0.24716 0.88966 0.89609 0.0
H523 H 0.15977 0.83119 0.80973 0.0
H524 H 0.19325 0.98022 0.81064 0.0
H525 H 0.18963 0.0522 0.82586 0.0
H526 H 0.05524 0.04219 0.79164 0.0
H527 H 0.0581 0.97035 0.77577 0.0
C528 C 0.10723 0.84503 0.6585 0.0
C529 C 0.06335 0.84145 0.64664 0.0
C530 C 0.1237 0.85744 0.68902 0.0
C531 C 0.09665 0.86741 0.70791 0.0
C532 C 0.05304 0.86586 0.69555 0.0
C533 C 0.03654 0.85254 0.6654 0.0
C534 C 0.11335 0.87645 0.74118 0.0
C535 C 0.11145 0.9164 0.75181 0.0
C536 C 0.13082 0.84545 0.76242 0.0
C537 C 0.13078 0.802 0.75285 0.0
C538 C 0.09255 0.77915 0.74006 0.0
C539 C 0.0927 0.73853 0.7304 0.0
C540 C 0.13086 0.72024 0.73374 0.0
C541 C 0.16894 0.74252 0.74684 0.0
C542 C 0.16897 0.78323 0.75645 0.0
C543 C 0.15064 0.92786 0.88694 0.0
C544 C 0.19115 0.91715 0.90242 0.0
C545 C 0.13571 0.92069 0.85535 0.0
C546 C 0.16106 0.90327 0.83813 0.0
C547 C 0.20136 0.89233 0.85349 0.0
C548 C 0.21617 0.8991 0.88514 0.0
C549 C 0.1453 0.89541 0.80437 0.0
C550 C 0.14703 0.85538 0.79354 0.0
C551 C 0.12739 0.9264 0.78302 0.0
C552 C 0.1258 0.96973 0.79235 0.0
C553 C 0.1629 -0.00671 0.80651 0.0
C554 C 0.16101 0.03408 0.81523 0.0
C555 C 0.12224 0.05163 0.81003 0.0
C556 C 0.08527 0.02855 0.79577 0.0
C557 C 0.08701 0.98786 0.78677 0.0
H558 H 0.1209 0.08318 0.8169 0.0
H559 H 0.13091 0.68878 0.72624 0.0
H560 H 0.82505 0.82377 0.96726 0.0
H561 H 0.83462 0.80845 0.91598 0.0
H562 H 0.96492 0.85715 0.94104 0.0
H563 H 0.95533 0.87306 0.99239 0.0
H564 H 0.93132 0.88192 0.88404 0.0
H565 H 0.93616 0.75067 0.93853 0.0
H566 H 0.91095 0.69326 0.96996 0.0
H567 H 0.79837 0.67139 0.89934 0.0
H568 H 0.82265 0.72906 0.86765 0.0
H569 H 0.98134 0.80083 0.75027 0.0
H570 H 0.98035 0.81661 0.80333 0.0
H571 H 0.85165 0.76311 0.78987 0.0
H572 H 0.85349 0.74421 0.73785 0.0
H573 H 0.89046 0.74025 0.84299 0.0
H574 H 0.88429 0.87448 0.7897 0.0
H575 H 0.90948 0.93267 0.75888 0.0
H576 H 0.0251 0.94905 0.82736 0.0
H577 H 1.00083 0.89058 0.85838 0.0
C578 C 0.85587 0.83089 0.96199 0.0
C579 C 0.88954 0.84925 0.98411 0.0
C580 C 0.86131 0.82216 0.93258 0.0
C581 C 0.90075 0.83088 0.92468 0.0
C582 C 0.93422 0.84997 0.94651 0.0
C583 C 0.92869 0.85906 0.97589 0.0
C584 C 0.90697 0.81981 0.89374 0.0
C585 C 0.92293 0.85079 0.87522 0.0
C586 C 0.89559 0.77935 0.88193 0.0
C587 C 0.88108 0.74441 0.90083 0.0
C588 C 0.90591 0.73379 0.92978 0.0
C589 C 0.8918 0.70118 0.94764 0.0
C590 C 0.85305 0.67875 0.93668 0.0
C591 C 0.82837 0.68881 0.90781 0.0
C592 C 0.84231 0.72143 0.88988 0.0
C593 C 0.95296 0.79177 0.75865 0.0
C594 C 0.91737 0.77135 0.73934 0.0
C595 C 0.95223 0.80151 0.789 0.0
C596 C 0.9156 0.79192 0.80067 0.0
C597 C 0.88028 0.77117 0.78156 0.0
C598 C 0.88122 0.76082 0.75148 0.0
C599 C 0.91381 0.80261 0.83281 0.0
C600 C 0.89892 0.77143 0.85171 0.0
C601 C 0.92622 0.84288 0.84492 0.0
C602 C 0.94089 0.87791 0.82621 0.0
C603 C 0.91521 0.89029 0.79806 0.0
C604 C 0.92932 0.92334 0.78058 0.0
C605 C 0.96891 0.94447 0.79111 0.0
C606 C 0.99449 0.9326 0.81918 0.0
C607 C 0.98055 0.89953 0.83674 0.0
H608 H 0.97968 0.97013 0.77758 0.0
H609 H 0.84217 0.65352 0.95054 0.0
H610 H 0.26917 0.03063 0.20396 0.0
H611 H 0.25052 -0.00076 0.24984 0.0
H612 H 0.23184 0.87894 0.20803 0.0
H613 H 0.24738 0.91159 0.16007 0.0
H614 H 0.16571 0.8939 0.23415 0.0
H615 H 0.31633 0.90292 0.26929 0.0
H616 H 0.38847 0.93734 0.27766 0.0
H617 H 0.35407 0.02893 0.33298 0.0
H618 H 0.28159 -0.00462 0.32465 0.0
H619 H 0.13399 0.80265 0.37836 0.0
H620 H 0.15945 0.8205 0.33134 0.0
H621 H 0.18594 0.94816 0.35905 0.0
H622 H 0.16184 0.93037 0.40667 0.0
H623 H 0.25084 0.92146 0.33948 0.0
H624 H 0.10125 0.91363 0.30555 0.0
H625 H 0.02838 0.8816 0.29722 0.0
H626 H 0.05742 0.79246 0.23753 0.0
H627 H 0.13113 0.8227 0.24664 0.0
C628 C 0.26082 -0.00246 0.20413 0.0
C629 C 0.25832 0.97403 0.17772 0.0
C630 C 0.25082 0.97939 0.23084 0.0
C631 C 0.23975 0.93661 0.23266 0.0
C632 C 0.2402 0.91211 0.2072 0.0
C633 C 0.24941 0.9307 0.17987 0.0
C634 C 0.22552 0.91892 0.26064 0.0
C635 C 0.18465 0.89901 0.25718 0.0
C636 C 0.24968 0.92678 0.29081 0.0
C637 C 0.29347 0.94666 0.29625 0.0
C638 C 0.3241 0.93049 0.28314 0.0
C639 C 0.36506 0.94985 0.28789 0.0
C640 C 0.37584 0.9853 0.30582 0.0
C641 C 0.3457 0.00143 0.31912 0.0
C642 C 0.3047 0.9822 0.31445 0.0
C643 C 0.14537 0.83454 0.37463 0.0
C644 C 0.1458 0.86502 0.39656 0.0
C645 C 0.15965 0.84475 0.34751 0.0
C646 C 0.17452 0.88573 0.34148 0.0
C647 C 0.17469 0.91629 0.36314 0.0
C648 C 0.16043 0.90612 0.39028 0.0
C649 C 0.19082 0.89674 0.31302 0.0
C650 C 0.23201 0.91568 0.31645 0.0
C651 C 0.16671 0.88824 0.28287 0.0
C652 C 0.12219 0.87 0.27734 0.0
C653 C 0.09246 0.88669 0.29114 0.0
C654 C 0.05093 0.86882 0.28628 0.0
C655 C 0.03831 0.83488 0.26698 0.0
C656 C 0.06727 0.81865 0.25259 0.0
C657 C 0.10903 0.83603 0.25773 0.0
H658 H 0.00605 0.82129 0.26307 0.0
H659 H 0.40755 0.00027 0.30944 0.0
H660 H 0.04523 0.22893 0.78108 0.0
H661 H 0.08313 0.21672 0.83407 0.0
H662 H 0.20098 0.22416 0.80411 0.0
H663 H 0.16289 0.2369 0.75057 0.0
H664 H 0.18362 0.15043 0.83908 0.0
H665 H 0.18725 0.29846 0.84737 0.0
H666 H 0.15653 0.36628 0.84139 0.0
H667 H 0.07323 0.32344 0.90086 0.0
H668 H 0.10305 0.25516 0.90688 0.0
H669 H 0.28467 0.10168 0.99262 0.0
H670 H 0.26797 0.13576 0.94164 0.0
H671 H 0.1538 0.17544 0.96206 0.0
H672 H 0.17287 0.14464 1.01405 0.0
H673 H 0.17928 0.23187 0.93037 0.0
H674 H 0.16095 0.08295 0.91387 0.0
H675 H 0.18229 0.01121 0.91671 0.0
H676 H 0.28295 0.05086 0.87114 0.0
H677 H 0.26228 0.12295 0.8682 0.0
C678 C 0.07932 0.22867 0.7858 0.0
C679 C 0.10116 0.23374 0.76172 0.0
C680 C 0.10095 0.22188 0.81614 0.0
C681 C 0.14486 0.2197 0.82304 0.0
C682 C 0.16706 0.22596 0.79921 0.0
C683 C 0.14539 0.23345 0.76875 0.0
C684 C 0.16646 0.20729 0.85473 0.0
C685 C 0.18363 0.16862 0.85908 0.0
C686 C 0.16496 0.23037 0.88076 0.0
C687 C 0.14729 0.2716 0.87745 0.0
C688 C 0.16221 0.3034 0.85903 0.0
C689 C 0.14498 0.34196 0.85566 0.0
C690 C 0.11292 0.34915 0.87071 0.0
C691 C 0.09809 0.31784 0.88923 0.0
C692 C 0.1152 0.27923 0.89267 0.0
C693 C 0.25637 0.11829 0.98623 0.0
C694 C 0.23001 0.12069 1.00708 0.0
C695 C 0.24646 0.1373 0.95692 0.0
C696 C 0.20881 0.15722 0.9473 0.0
C697 C 0.18301 0.16033 0.96863 0.0
C698 C 0.19381 0.1427 0.99836 0.0
C699 C 0.19569 0.17417 0.91506 0.0
C700 C 0.17999 0.21375 0.91051 0.0
C701 C 0.19744 0.15138 0.88877 0.0
C702 C 0.21034 0.1083 0.89109 0.0
C703 C 0.1878 0.07637 0.90466 0.0
C704 C 0.19972 0.03564 0.9062 0.0
C705 C 0.23396 0.02648 0.89409 0.0
C706 C 0.2565 0.05804 0.88056 0.0
C707 C 0.24465 0.0988 0.87889 0.0
H708 H 0.243 -0.00504 0.89499 0.0
H709 H 0.09961 0.37901 0.86805 0.0
H710 H 0.78274 0.07004 0.34109 0.0
H711 H 0.80635 0.09247 0.39428 0.0
H712 H 0.88863 0.19078 0.36527 0.0
H713 H 0.86529 0.16812 0.31189 0.0
H714 H 0.92992 0.15223 0.41554 0.0
H715 H 0.79438 0.2093 0.38632 0.0
H716 H 0.71733 0.2067 0.36599 0.0
H717 H 0.69792 0.1182 0.43742 0.0
H718 H 0.77493 0.11987 0.45795 0.0
H719 H 0.98587 0.26051 0.55451 0.0
H720 H 0.95355 0.24404 0.50091 0.0
H721 H 0.87564 0.14317 0.53153 0.0
H722 H 0.90757 0.15976 0.5853 0.0
H723 H 0.83143 0.18286 0.48103 0.0
H724 H 0.96454 0.12594 0.51049 0.0
H725 H 0.04137 0.12443 0.53082 0.0
H726 H 0.06453 0.21146 0.45962 0.0
H727 H 0.98802 0.21449 0.43981 0.0
C728 C 0.80602 0.09632 0.34604 0.0
C729 C 0.82204 0.11725 0.32213 0.0
C730 C 0.81944 0.10933 0.37658 0.0
C731 C 0.84943 0.14348 0.38409 0.0
C732 C 0.86558 0.16433 0.36024 0.0
C733 C 0.8519 0.15154 0.32963 0.0
C734 C 0.86469 0.15695 0.41677 0.0
C735 C 0.90833 0.15977 0.42957 0.0
C736 C 0.83667 0.16536 0.43571 0.0
C737 C 0.7904 0.16449 0.42352 0.0
C738 C 0.77369 0.18909 0.39757 0.0
C739 C 0.73003 0.18781 0.38603 0.0
C740 C 0.70275 0.16224 0.40037 0.0
C741 C 0.71908 0.13797 0.42633 0.0
C742 C 0.76272 0.13911 0.43795 0.0
C743 C 0.96165 0.235 0.54991 0.0
C744 C 0.94966 0.21128 0.57431 0.0
C745 C 0.94314 0.2256 0.51919 0.0
C746 C 0.91253 0.19192 0.51206 0.0
C747 C 0.89918 0.16925 0.53635 0.0
C748 C 0.91756 0.17878 0.56715 0.0
C749 C 0.89656 0.17889 0.47942 0.0
C750 C 0.85293 0.17588 0.46677 0.0
C751 C 0.92451 0.17012 0.46063 0.0
C752 C 0.97062 0.1696 0.47324 0.0
C753 C 0.98613 0.14456 0.49919 0.0
C754 C 0.0296 0.14372 0.51079 0.0
C755 C 0.05792 0.16772 0.49647 0.0
C756 C 0.04275 0.193 0.47083 0.0
C757 C 0.9993 0.19422 0.45937 0.0
H758 H 0.09154 0.16669 0.5053 0.0
H759 H 0.66896 0.16129 0.39139 0.0
loop_
_geom_bond_atom_site_label_1
_geom_bond_atom_site_label_2
_geom_bond_distance
_geom_bond_site_symmetry_2
_ccdc_geom_bond_type
Nd0 C2 2.836 1_554 S
Nd0 O20 2.500 . S
Nd0 O21 2.492 . S
Nd0 O22 2.487 . S
Nd0 O23 2.682 1_565 S
Nd0 O24 2.410 1_565 S
Nd0 O29 2.414 1_565 S
Nd0 O31 2.424 . S
Nd1 C11 2.836 . S
Nd1 O23 2.414 . S
Nd1 O25 2.424 . S
Nd1 O26 2.500 . S
Nd1 O27 2.492 . S
Nd1 O28 2.487 . S
Nd1 O29 2.682 . S
Nd1 O30 2.410 . S
C2 Nd0 2.836 1_556 S
C2 C3 1.498 . S
C2 O20 1.258 1_556 S
C2 O21 1.239 1_556 S
C3 C2 1.498 . S
C3 C4 1.366 . S
C3 C8 1.407 . S
C4 C3 1.366 . S
C4 C5 1.392 . S
C4 H32 0.930 . S
C5 C4 1.392 . S
C5 C6 1.398 . S
C5 H33 0.929 . S
C6 C5 1.398 . S
C6 C7 1.352 . S
C7 C6 1.352 . S
C7 C8 1.384 . S
C7 H34 0.930 . S
C8 C3 1.407 . S
C8 C7 1.384 . S
C8 H35 0.929 . S
C9 O22 1.241 1_545 S
C9 O23 1.273 . S
C10 O24 1.251 . S
C10 O25 1.268 . S
C11 Nd1 2.836 . S
C11 C12 1.498 . S
C11 O26 1.258 . S
C11 O27 1.239 . S
C12 C11 1.498 . S
C12 C13 1.366 . S
C12 C17 1.407 . S
C13 C12 1.366 . S
C13 C14 1.392 . S
C13 H36 0.930 . S
C14 C13 1.392 . S
C14 C15 1.398 . S
C14 H37 0.929 . S
C15 C14 1.398 . S
C15 C16 1.352 . S
C16 C15 1.352 . S
C16 C17 1.384 . S
C16 H38 0.930 . S
C17 C12 1.407 . S
C17 C16 1.384 . S
C17 H39 0.929 . S
C18 O28 1.241 . S
C18 O29 1.273 . S
C19 O30 1.251 1_565 S
C19 O31 1.268 . S
O20 Nd0 2.500 . S
O20 C2 1.258 1_554 S
O21 Nd0 2.492 . S
O21 C2 1.239 1_554 S
O22 Nd0 2.487 . S
O22 C9 1.241 1_565 S
O23 Nd0 2.682 1_545 S
O23 Nd1 2.414 . S
O23 C9 1.273 . S
O24 Nd0 2.410 1_545 S
O24 C10 1.251 . S
O25 Nd1 2.424 . S
O25 C10 1.268 . S
O26 Nd1 2.500 . S
O26 C11 1.258 . S
O27 Nd1 2.492 . S
O27 C11 1.239 . S
O28 Nd1 2.487 . S
O28 C18 1.241 . S
O29 Nd0 2.414 1_545 S
O29 Nd1 2.682 . S
O29 C18 1.273 . S
O30 Nd1 2.410 . S
O30 C19 1.251 1_545 S
O31 Nd0 2.424 . S
O31 C19 1.268 . S
H32 C4 0.930 . S
H33 C5 0.929 . S
H34 C7 0.930 . S
H35 C8 0.929 . S
H36 C13 0.930 . S
H37 C14 0.929 . S
H38 C16 0.930 . S
H39 C17 0.929 . S
Nd40 C42 2.836 . S
Nd40 O60 2.500 . S
Nd40 O61 2.492 . S
Nd40 O62 2.487 . S
Nd40 O63 2.682 . S
Nd40 O64 2.410 . S
Nd40 O69 2.414 . S
Nd40 O71 2.424 . S
Nd41 C51 2.836 . S
Nd41 O63 2.414 1_655 S
Nd41 O65 2.424 . S
Nd41 O66 2.500 . S
Nd41 O67 2.492 . S
Nd41 O68 2.487 1_655 S
Nd41 O69 2.682 1_655 S
Nd41 O70 2.410 1_655 S
C42 Nd40 2.836 . S
C42 C43 1.498 . S
C42 O60 1.258 . S
C42 O61 1.239 . S
C43 C42 1.498 . S
C43 C44 1.366 . S
C43 C48 1.407 . S
C44 C43 1.366 . S
C44 C45 1.392 . S
C44 H72 0.930 . S
C45 C44 1.392 . S
C45 C46 1.398 . S
C45 H73 0.929 . S
C46 C45 1.398 . S
C46 C47 1.352 . S
C47 C46 1.352 . S
C47 C48 1.384 . S
C47 H74 0.930 . S
C48 C43 1.407 . S
C48 C47 1.384 . S
C48 H75 0.929 . S
C49 O62 1.241 . S
C49 O63 1.273 . S
C50 O64 1.251 . S
C50 O65 1.268 1_455 S
C51 Nd41 2.836 . S
C51 C52 1.498 . S
C51 O66 1.258 . S
C51 O67 1.239 . S
C52 C51 1.498 . S
C52 C53 1.366 . S
C52 C57 1.407 . S
C53 C52 1.366 . S
C53 C54 1.392 . S
C53 H76 0.930 . S
C54 C53 1.392 . S
C54 C55 1.398 . S
C54 H77 0.929 . S
C55 C54 1.398 . S
C55 C56 1.352 . S
C56 C55 1.352 . S
C56 C57 1.384 . S
C56 H78 0.930 . S
C57 C52 1.407 . S
C57 C56 1.384 . S
C57 H79 0.929 . S
C58 O68 1.241 . S
C58 O69 1.273 . S
C59 O70 1.251 . S
C59 O71 1.268 . S
O60 Nd40 2.500 . S
O60 C42 1.258 . S
O61 Nd40 2.492 . S
O61 C42 1.239 . S
O62 Nd40 2.487 . S
O62 C49 1.241 . S
O63 Nd40 2.682 . S
O63 Nd41 2.414 1_455 S
O63 C49 1.273 . S
O64 Nd40 2.410 . S
O64 C50 1.251 . S
O65 Nd41 2.424 . S
O65 C50 1.268 1_655 S
O66 Nd41 2.500 . S
O66 C51 1.258 . S
O67 Nd41 2.492 . S
O67 C51 1.239 . S
O68 Nd41 2.487 1_455 S
O68 C58 1.241 . S
O69 Nd40 2.414 . S
O69 Nd41 2.682 1_455 S
O69 C58 1.273 . S
O70 Nd41 2.410 1_455 S
O70 C59 1.251 . S
O71 Nd40 2.424 . S
O71 C59 1.268 . S
H72 C44 0.930 . S
H73 C45 0.929 . S
H74 C47 0.930 . S
H75 C48 0.929 . S
H76 C53 0.930 . S
H77 C54 0.929 . S
H78 C56 0.930 . S
H79 C57 0.929 . S
Nd80 C82 2.836 . S
Nd80 O100 2.500 . S
Nd80 O101 2.492 . S
Nd80 O102 2.487 . S
Nd80 O103 2.682 1_565 S
Nd80 O104 2.410 1_565 S
Nd80 O109 2.414 1_565 S
Nd80 O111 2.424 . S
Nd81 C91 2.836 . S
Nd81 O103 2.414 . S
Nd81 O105 2.424 . S
Nd81 O106 2.500 . S
Nd81 O107 2.492 . S
Nd81 O108 2.487 . S
Nd81 O109 2.682 . S
Nd81 O110 2.410 . S
C82 Nd80 2.836 . S
C82 C83 1.498 . S
C82 O100 1.258 . S
C82 O101 1.239 . S
C83 C82 1.498 . S
C83 C84 1.366 1_554 S
C83 C88 1.407 1_554 S
C84 C83 1.366 1_556 S
C84 C85 1.392 . S
C84 H112 0.930 1_556 S
C85 C84 1.392 . S
C85 C86 1.398 . S
C85 H113 0.929 . S
C86 C85 1.398 . S
C86 C87 1.352 . S
C87 C86 1.352 . S
C87 C88 1.384 . S
C87 H114 0.930 . S
C88 C83 1.407 1_556 S
C88 C87 1.384 . S
C88 H115 0.929 1_556 S
C89 O102 1.241 1_545 S
C89 O103 1.273 . S
C90 O104 1.251 . S
C90 O105 1.268 . S
C91 Nd81 2.836 . S
C91 C92 1.498 . S
C91 O106 1.258 . S
C91 O107 1.239 . S
C92 C91 1.498 . S
C92 C93 1.366 . S
C92 C97 1.407 . S
C93 C92 1.366 . S
C93 C94 1.392 . S
C93 H116 0.930 . S
C94 C93 1.392 . S
C94 C95 1.398 . S
C94 H117 0.929 . S
C95 C94 1.398 . S
C95 C96 1.352 . S
C96 C95 1.352 . S
C96 C97 1.384 . S
C96 H118 0.930 . S
C97 C92 1.407 . S
C97 C96 1.384 . S
C97 H119 0.929 . S
C98 O108 1.241 . S
C98 O109 1.273 . S
C99 O110 1.251 1_565 S
C99 O111 1.268 . S
O100 Nd80 2.500 . S
O100 C82 1.258 . S
O101 Nd80 2.492 . S
O101 C82 1.239 . S
O102 Nd80 2.487 . S
O102 C89 1.241 1_565 S
O103 Nd80 2.682 1_545 S
O103 Nd81 2.414 . S
O103 C89 1.273 . S
O104 Nd80 2.410 1_545 S
O104 C90 1.251 . S
O105 Nd81 2.424 . S
O105 C90 1.268 . S
O106 Nd81 2.500 . S
O106 C91 1.258 . S
O107 Nd81 2.492 . S
O107 C91 1.239 . S
O108 Nd81 2.487 . S
O108 C98 1.241 . S
O109 Nd80 2.414 1_545 S
O109 Nd81 2.682 . S
O109 C98 1.273 . S
O110 Nd81 2.410 . S
O110 C99 1.251 1_545 S
O111 Nd80 2.424 . S
O111 C99 1.268 . S
H112 C84 0.930 1_554 S
H113 C85 0.929 . S
H114 C87 0.930 . S
H115 C88 0.929 1_554 S
H116 C93 0.930 . S
H117 C94 0.929 . S
H118 C96 0.930 . S
H119 C97 0.929 . S
Nd120 C122 2.836 . S
Nd120 O140 2.500 . S
Nd120 O141 2.492 . S
Nd120 O142 2.487 . S
Nd120 O143 2.682 1_455 S
Nd120 O144 2.410 1_455 S
Nd120 O149 2.414 . S
Nd120 O151 2.424 . S
Nd121 C131 2.836 . S
Nd121 O143 2.414 . S
Nd121 O145 2.424 . S
Nd121 O146 2.500 . S
Nd121 O147 2.492 . S
Nd121 O148 2.487 . S
Nd121 O149 2.682 1_655 S
Nd121 O150 2.410 1_655 S
C122 Nd120 2.836 . S
C122 C123 1.498 . S
C122 O140 1.258 . S
C122 O141 1.239 . S
C123 C122 1.498 . S
C123 C124 1.366 . S
C123 C128 1.407 . S
C124 C123 1.366 . S
C124 C125 1.392 . S
C124 H152 0.930 . S
C125 C124 1.392 . S
C125 C126 1.398 . S
C125 H153 0.929 . S
C126 C125 1.398 . S
C126 C127 1.352 . S
C127 C126 1.352 . S
C127 C128 1.384 . S
C127 H154 0.930 . S
C128 C123 1.407 . S
C128 C127 1.384 . S
C128 H155 0.929 . S
C129 O142 1.241 . S
C129 O143 1.273 1_455 S
C130 O144 1.251 . S
C130 O145 1.268 . S
C131 Nd121 2.836 . S
C131 C132 1.498 . S
C131 O146 1.258 . S
C131 O147 1.239 . S
C132 C131 1.498 . S
C132 C133 1.366 . S
C132 C137 1.407 . S
C133 C132 1.366 . S
C133 C134 1.392 . S
C133 H156 0.930 . S
C134 C133 1.392 . S
C134 C135 1.398 . S
C134 H157 0.929 . S
C135 C134 1.398 . S
C135 C136 1.352 . S
C136 C135 1.352 . S
C136 C137 1.384 . S
C136 H158 0.930 . S
C137 C132 1.407 . S
C137 C136 1.384 . S
C137 H159 0.929 . S
C138 O148 1.241 . S
C138 O149 1.273 1_655 S
C139 O150 1.251 . S
C139 O151 1.268 . S
O140 Nd120 2.500 . S
O140 C122 1.258 . S
O141 Nd120 2.492 . S
O141 C122 1.239 . S
O142 Nd120 2.487 . S
O142 C129 1.241 . S
O143 Nd120 2.682 1_655 S
O143 Nd121 2.414 . S
O143 C129 1.273 1_655 S
O144 Nd120 2.410 1_655 S
O144 C130 1.251 . S
O145 Nd121 2.424 . S
O145 C130 1.268 . S
O146 Nd121 2.500 . S
O146 C131 1.258 . S
O147 Nd121 2.492 . S
O147 C131 1.239 . S
O148 Nd121 2.487 . S
O148 C138 1.241 . S
O149 Nd120 2.414 . S
O149 Nd121 2.682 1_455 S
O149 C138 1.273 1_455 S
O150 Nd121 2.410 1_455 S
O150 C139 1.251 . S
O151 Nd120 2.424 . S
O151 C139 1.268 . S
H152 C124 0.930 . S
H153 C125 0.929 . S
H154 C127 0.930 . S
H155 C128 0.929 . S
H156 C133 0.930 . S
H157 C134 0.929 . S
H158 C136 0.930 . S
H159 C137 0.929 . S
H160 C178 0.951 . S
H161 C180 0.948 1_565 S
H162 C182 0.950 . S
H163 C183 0.950 . S
H164 C185 0.950 . S
H165 C188 0.950 . S
H166 C189 0.950 . S
H167 C191 0.950 . S
H168 C192 0.950 . S
H169 C193 0.951 . S
H170 C195 0.951 . S
H171 C197 0.950 . S
H172 C198 0.950 . S
H173 C200 0.950 . S
H174 C203 0.950 . S
H175 C204 0.950 . S
H176 C206 0.950 . S
H177 C207 0.950 . S
C178 H160 0.951 . S
C178 C179 1.366 1_565 S
C178 C180 1.388 1_565 S
C179 C178 1.366 1_545 S
C179 C183 1.385 . S
C180 H161 0.948 1_545 S
C180 C178 1.388 1_545 S
C180 C181 1.368 . S
C181 C180 1.368 . S
C181 C182 1.414 . S
C181 C184 1.499 . S
C182 H162 0.950 . S
C182 C181 1.414 . S
C182 C183 1.374 . S
C183 H163 0.950 . S
C183 C179 1.385 . S
C183 C182 1.374 . S
C184 C181 1.499 . S
C184 C185 1.373 1_545 S
C184 C186 1.389 1_655 S
C185 H164 0.950 . S
C185 C184 1.373 1_565 S
C185 C201 1.377 1_655 S
C186 C184 1.389 1_455 S
C186 C187 1.524 . S
C186 C200 1.377 . S
C187 C186 1.524 . S
C187 C188 1.397 1_455 S
C187 C192 1.363 . S
C188 H165 0.950 . S
C188 C187 1.397 1_655 S
C188 C189 1.334 . S
C189 H166 0.950 . S
C189 C188 1.334 . S
C189 C190 1.287 1_655 S
C190 C189 1.287 1_455 S
C190 C191 1.524 . S
C190 H209 0.913 . S
C191 H167 0.950 . S
C191 C190 1.524 . S
C191 C192 1.415 . S
C192 H168 0.950 . S
C192 C187 1.363 . S
C192 C191 1.415 . S
C193 H169 0.951 . S
C193 C194 1.366 . S
C193 C195 1.388 . S
C194 C193 1.366 . S
C194 C198 1.385 . S
C195 H170 0.951 . S
C195 C193 1.388 . S
C195 C196 1.366 . S
C196 C195 1.366 . S
C196 C197 1.414 . S
C196 C199 1.499 . S
C197 H171 0.950 . S
C197 C196 1.414 . S
C197 C198 1.374 . S
C198 H172 0.950 . S
C198 C194 1.385 . S
C198 C197 1.374 . S
C199 C196 1.499 . S
C199 C200 1.373 . S
C199 C201 1.389 1_545 S
C200 H173 0.950 . S
C200 C186 1.377 . S
C200 C199 1.373 . S
C201 C185 1.377 1_455 S
C201 C199 1.389 1_565 S
C201 C202 1.524 . S
C202 C201 1.524 . S
C202 C203 1.397 . S
C202 C207 1.363 1_455 S
C203 H174 0.950 . S
C203 C202 1.397 . S
C203 C204 1.334 . S
C204 H175 0.950 . S
C204 C203 1.334 . S
C204 C205 1.287 . S
C205 C204 1.287 . S
C205 C206 1.524 1_454 S
C205 H208 0.999 1_554 S
C206 H176 0.950 . S
C206 C205 1.524 1_656 S
C206 C207 1.415 1_556 S
C207 H177 0.950 . S
C207 C202 1.363 1_655 S
C207 C206 1.415 1_554 S
H208 C205 0.999 1_556 S
H209 C190 0.913 . S
H210 C228 0.951 . S
H211 C230 0.951 . S
H212 C232 0.950 . S
H213 C233 0.950 . S
H214 C235 0.950 . S
H215 C238 0.950 1_565 S
H216 C239 0.950 . S
H217 C241 0.950 . S
H218 C242 0.950 . S
H219 C243 0.951 . S
H220 C245 0.951 . S
H221 C247 0.950 1_655 S
H222 C248 0.950 1_655 S
H223 C250 0.950 . S
H224 C253 0.950 . S
H225 C254 0.950 . S
H226 C256 0.950 . S
H227 C257 0.950 . S
C228 H210 0.951 . S
C228 C229 1.366 . S
C228 C230 1.388 . S
C229 C228 1.366 . S
C229 C233 1.385 1_655 S
C230 H211 0.951 . S
C230 C228 1.388 . S
C230 C231 1.366 1_655 S
C231 C230 1.366 1_455 S
C231 C232 1.414 . S
C231 C234 1.499 . S
C232 H212 0.950 . S
C232 C231 1.414 . S
C232 C233 1.374 . S
C233 H213 0.950 . S
C233 C229 1.385 1_455 S
C233 C232 1.374 . S
C234 C231 1.499 . S
C234 C235 1.373 . S
C234 C236 1.389 1_565 S
C235 H214 0.950 . S
C235 C234 1.373 . S
C235 C251 1.377 1_565 S
C236 C234 1.389 1_545 S
C236 C237 1.524 1_455 S
C236 C250 1.377 . S
C237 C236 1.524 1_655 S
C237 C238 1.397 1_655 S
C237 C242 1.363 . S
C238 H215 0.950 1_545 S
C238 C237 1.397 1_455 S
C238 C239 1.334 . S
C239 H216 0.950 . S
C239 C238 1.334 . S
C239 C240 1.287 1_455 S
C240 C239 1.287 1_655 S
C240 C241 1.524 . S
C240 H259 0.913 . S
C241 H217 0.950 . S
C241 C240 1.524 . S
C241 C242 1.415 . S
C242 H218 0.950 . S
C242 C237 1.363 . S
C242 C241 1.415 . S
C243 H219 0.951 . S
C243 C244 1.366 . S
C243 C245 1.388 . S
C244 C243 1.366 . S
C244 C248 1.385 . S
C245 H220 0.951 . S
C245 C243 1.388 . S
C245 C246 1.366 . S
C246 C245 1.366 . S
C246 C247 1.414 . S
C246 C249 1.499 . S
C247 H221 0.950 1_455 S
C247 C246 1.414 . S
C247 C248 1.374 . S
C248 H222 0.950 1_455 S
C248 C244 1.385 . S
C248 C247 1.374 . S
C249 C246 1.499 . S
C249 C250 1.373 . S
C249 C251 1.389 . S
C250 H223 0.950 . S
C250 C236 1.377 . S
C250 C249 1.373 . S
C251 C235 1.377 1_545 S
C251 C249 1.389 . S
C251 C252 1.524 . S
C252 C251 1.524 . S
C252 C253 1.397 . S
C252 C257 1.363 1_545 S
C253 H224 0.950 . S
C253 C252 1.397 . S
C253 C254 1.334 . S
C254 H225 0.950 . S
C254 C253 1.334 . S
C254 C255 1.287 1_545 S
C255 C254 1.287 1_565 S
C255 C256 1.524 . S
C255 H258 0.999 . S
C256 H226 0.950 . S
C256 C255 1.524 . S
C256 C257 1.415 . S
C257 H227 0.950 . S
C257 C252 1.363 1_565 S
C257 C256 1.415 . S
H258 C255 0.999 . S
H259 C240 0.913 . S
H260 C278 0.951 . S
H261 C280 0.951 . S
H262 C282 0.957 . S
H263 C283 0.950 . S
H264 C285 0.950 . S
H265 C288 0.950 . S
H266 C289 0.950 . S
H267 C291 0.950 . S
H268 C292 0.950 . S
H269 C293 0.951 . S
H270 C295 0.951 . S
H271 C297 0.950 . S
H272 C298 0.950 . S
H273 C300 0.960 . S
H274 C303 0.950 . S
H275 C304 0.950 . S
H276 C306 0.950 . S
H277 C307 0.950 . S
C278 H260 0.951 . S
C278 C279 1.366 . S
C278 C280 1.388 . S
C279 C278 1.366 . S
C279 C283 1.385 1_545 S
C280 H261 0.951 . S
C280 C278 1.388 . S
C280 C281 1.366 . S
C281 C280 1.366 . S
C281 C282 1.405 1_545 S
C281 C284 1.499 . S
C282 H262 0.957 . S
C282 C281 1.405 1_565 S
C282 C283 1.377 . S
C283 H263 0.950 . S
C283 C279 1.385 1_565 S
C283 C282 1.377 . S
C284 C281 1.499 . S
C284 C285 1.373 . S
C284 C286 1.389 1_545 S
C285 H264 0.950 . S
C285 C284 1.373 . S
C285 C301 1.377 . S
C286 C284 1.389 1_565 S
C286 C287 1.524 . S
C286 C300 1.382 . S
C287 C286 1.524 . S
C287 C288 1.397 . S
C287 C292 1.363 . S
C288 H265 0.950 . S
C288 C287 1.397 . S
C288 C289 1.334 . S
C289 H266 0.950 . S
C289 C288 1.334 . S
C289 C290 1.287 . S
C290 C289 1.287 . S
C290 C291 1.524 . S
C290 H309 0.913 . S
C291 H267 0.950 . S
C291 C290 1.524 . S
C291 C292 1.415 . S
C292 H268 0.950 . S
C292 C287 1.363 . S
C292 C291 1.415 . S
C293 H269 0.951 . S
C293 C294 1.366 . S
C293 C295 1.388 . S
C294 C293 1.366 . S
C294 C298 1.385 . S
C295 H270 0.951 . S
C295 C293 1.388 . S
C295 C296 1.366 . S
C296 C295 1.366 . S
C296 C297 1.414 . S
C296 C299 1.499 . S
C297 H271 0.950 . S
C297 C296 1.414 . S
C297 C298 1.374 . S
C298 H272 0.950 . S
C298 C294 1.385 . S
C298 C297 1.374 . S
C299 C296 1.499 . S
C299 C300 1.359 1_545 S
C299 C301 1.389 . S
C300 H273 0.960 . S
C300 C286 1.382 . S
C300 C299 1.359 1_565 S
C301 C285 1.377 . S
C301 C299 1.389 . S
C301 C302 1.524 . S
C302 C301 1.524 . S
C302 C303 1.397 . S
C302 C307 1.363 . S
C303 H274 0.950 . S
C303 C302 1.397 . S
C303 C304 1.334 . S
C304 H275 0.950 . S
C304 C303 1.334 . S
C304 C305 1.287 . S
C305 C304 1.287 . S
C305 C306 1.524 1_554 S
C305 H308 0.999 1_554 S
C306 H276 0.950 . S
C306 C305 1.524 1_556 S
C306 C307 1.415 1_556 S
C307 H277 0.950 . S
C307 C302 1.363 . S
C307 C306 1.415 1_554 S
H308 C305 0.999 1_556 S
H309 C290 0.913 . S
H310 C328 0.951 . S
H311 C330 0.951 . S
H312 C332 0.950 . S
H313 C333 0.950 . S
H314 C335 0.950 1_655 S
H315 C338 0.950 . S
H316 C339 0.950 . S
H317 C341 0.950 . S
H318 C342 0.950 . S
H319 C343 0.951 . S
H320 C345 0.951 . S
H321 C347 0.950 . S
H322 C348 0.953 1_655 S
H323 C350 0.950 . S
H324 C353 0.950 . S
H325 C354 0.950 . S
H326 C356 0.950 . S
H327 C357 0.950 . S
C328 H310 0.951 . S
C328 C329 1.366 . S
C328 C330 1.388 . S
C329 C328 1.366 . S
C329 C333 1.385 . S
C330 H311 0.951 . S
C330 C328 1.388 . S
C330 C331 1.366 . S
C331 C330 1.366 . S
C331 C332 1.414 . S
C331 C334 1.499 . S
C332 H312 0.950 . S
C332 C331 1.414 . S
C332 C333 1.374 . S
C333 H313 0.950 . S
C333 C329 1.385 . S
C333 C332 1.374 . S
C334 C331 1.499 . S
C334 C335 1.373 . S
C334 C336 1.389 . S
C335 H314 0.950 1_455 S
C335 C334 1.373 . S
C335 C351 1.377 1_455 S
C336 C334 1.389 . S
C336 C337 1.524 . S
C336 C350 1.377 . S
C337 C336 1.524 . S
C337 C338 1.397 . S
C337 C342 1.363 . S
C338 H315 0.950 . S
C338 C337 1.397 . S
C338 C339 1.334 . S
C339 H316 0.950 . S
C339 C338 1.334 . S
C339 C340 1.287 . S
C340 C339 1.287 . S
C340 C341 1.524 . S
C340 H359 0.913 . S
C341 H317 0.950 . S
C341 C340 1.524 . S
C341 C342 1.415 . S
C342 H318 0.950 . S
C342 C337 1.363 . S
C342 C341 1.415 . S
C343 H319 0.951 . S
C343 C344 1.366 1_455 S
C343 C345 1.388 . S
C344 C343 1.366 1_655 S
C344 C348 1.384 1_655 S
C345 H320 0.951 . S
C345 C343 1.388 . S
C345 C346 1.366 . S
C346 C345 1.366 . S
C346 C347 1.414 . S
C346 C349 1.499 . S
C347 H321 0.950 . S
C347 C346 1.414 . S
C347 C348 1.374 . S
C348 H322 0.953 1_455 S
C348 C344 1.384 1_455 S
C348 C347 1.374 . S
C349 C346 1.499 . S
C349 C350 1.373 . S
C349 C351 1.389 1_455 S
C350 H323 0.950 . S
C350 C336 1.377 . S
C350 C349 1.373 . S
C351 C335 1.377 1_655 S
C351 C349 1.389 1_655 S
C351 C352 1.524 . S
C352 C351 1.524 . S
C352 C353 1.397 . S
C352 C357 1.363 . S
C353 H324 0.950 . S
C353 C352 1.397 . S
C353 C354 1.334 . S
C354 H325 0.950 . S
C354 C353 1.334 . S
C354 C355 1.287 . S
C355 C354 1.287 . S
C355 C356 1.524 . S
C355 H358 0.999 . S
C356 H326 0.950 . S
C356 C355 1.524 . S
C356 C357 1.415 . S
C357 H327 0.950 . S
C357 C352 1.363 . S
C357 C356 1.415 . S
H358 C355 0.999 . S
H359 C340 0.913 . S
H360 C378 0.951 . S
H361 C380 0.951 . S
H362 C382 0.950 . S
H363 C383 0.950 . S
H364 C385 0.950 . S
H365 C388 0.950 . S
H366 C389 0.950 . S
H367 C391 0.950 . S
H368 C392 0.950 . S
H369 C393 0.951 . S
H370 C395 0.951 . S
H371 C397 0.950 . S
H372 C398 0.950 . S
H373 C400 0.950 . S
H374 C403 0.950 . S
H375 C404 0.950 . S
H376 C406 0.950 . S
H377 C407 0.950 . S
C378 H360 0.951 . S
C378 C379 1.366 . S
C378 C380 1.388 . S
C379 C378 1.366 . S
C379 C383 1.385 . S
C380 H361 0.951 . S
C380 C378 1.388 . S
C380 C381 1.366 . S
C381 C380 1.366 . S
C381 C382 1.414 . S
C381 C384 1.499 . S
C382 H362 0.950 . S
C382 C381 1.414 . S
C382 C383 1.374 . S
C383 H363 0.950 . S
C383 C379 1.385 . S
C383 C382 1.374 . S
C384 C381 1.499 . S
C384 C385 1.373 . S
C384 C386 1.389 . S
C385 H364 0.950 . S
C385 C384 1.373 . S
C385 C401 1.377 . S
C386 C384 1.389 . S
C386 C387 1.524 . S
C386 C400 1.377 . S
C387 C386 1.524 . S
C387 C388 1.397 . S
C387 C392 1.363 . S
C388 H365 0.950 . S
C388 C387 1.397 . S
C388 C389 1.334 . S
C389 H366 0.950 . S
C389 C388 1.334 . S
C389 C390 1.287 . S
C390 C389 1.287 . S
C390 C391 1.524 . S
C390 H409 0.913 . S
C391 H367 0.950 . S
C391 C390 1.524 . S
C391 C392 1.415 . S
C392 H368 0.950 . S
C392 C387 1.363 . S
C392 C391 1.415 . S
C393 H369 0.951 . S
C393 C394 1.366 . S
C393 C395 1.388 . S
C394 C393 1.366 . S
C394 C398 1.385 . S
C395 H370 0.951 . S
C395 C393 1.388 . S
C395 C396 1.366 . S
C396 C395 1.366 . S
C396 C397 1.414 . S
C396 C399 1.499 . S
C397 H371 0.950 . S
C397 C396 1.414 . S
C397 C398 1.374 . S
C398 H372 0.950 . S
C398 C394 1.385 . S
C398 C397 1.374 . S
C399 C396 1.499 . S
C399 C400 1.373 . S
C399 C401 1.389 . S
C400 H373 0.950 . S
C400 C386 1.377 . S
C400 C399 1.373 . S
C401 C385 1.377 . S
C401 C399 1.389 . S
C401 C402 1.524 . S
C402 C401 1.524 . S
C402 C403 1.397 . S
C402 C407 1.363 . S
C403 H374 0.950 . S
C403 C402 1.397 . S
C403 C404 1.334 . S
C404 H375 0.950 . S
C404 C403 1.334 . S
C404 C405 1.287 . S
C405 C404 1.287 . S
C405 C406 1.524 . S
C405 H408 0.999 . S
C406 H376 0.950 . S
C406 C405 1.524 . S
C406 C407 1.415 . S
C407 H377 0.950 . S
C407 C402 1.363 . S
C407 C406 1.415 . S
H408 C405 0.999 . S
H409 C390 0.913 . S
H410 C428 0.951 . S
H411 C430 0.951 . S
H412 C432 0.950 . S
H413 C433 0.950 . S
H414 C435 0.950 . S
H415 C438 0.950 . S
H416 C439 0.950 1_455 S
H417 C441 0.950 . S
H418 C442 0.950 . S
H419 C443 0.951 . S
H420 C445 0.951 . S
H421 C447 0.950 . S
H422 C448 0.950 . S
H423 C450 0.950 . S
H424 C453 0.950 . S
H425 C454 0.950 . S
H426 C456 0.950 . S
H427 C457 0.950 . S
C428 H410 0.951 . S
C428 C429 1.366 . S
C428 C430 1.388 . S
C429 C428 1.366 . S
C429 C433 1.385 . S
C430 H411 0.951 . S
C430 C428 1.388 . S
C430 C431 1.366 . S
C431 C430 1.366 . S
C431 C432 1.414 . S
C431 C434 1.499 . S
C432 H412 0.950 . S
C432 C431 1.414 . S
C432 C433 1.374 . S
C433 H413 0.950 . S
C433 C429 1.385 . S
C433 C432 1.374 . S
C434 C431 1.499 . S
C434 C435 1.373 . S
C434 C436 1.389 . S
C435 H414 0.950 . S
C435 C434 1.373 . S
C435 C451 1.377 . S
C436 C434 1.389 . S
C436 C437 1.524 . S
C436 C450 1.377 . S
C437 C436 1.524 . S
C437 C438 1.397 . S
C437 C442 1.363 . S
C438 H415 0.950 . S
C438 C437 1.397 . S
C438 C439 1.334 . S
C439 H416 0.950 1_655 S
C439 C438 1.334 . S
C439 C440 1.287 . S
C440 C439 1.287 . S
C440 C441 1.524 . S
C440 H459 0.913 . S
C441 H417 0.950 . S
C441 C440 1.524 . S
C441 C442 1.415 . S
C442 H418 0.950 . S
C442 C437 1.363 . S
C442 C441 1.415 . S
C443 H419 0.951 . S
C443 C444 1.366 . S
C443 C445 1.388 1_554 S
C444 C443 1.366 . S
C444 C448 1.385 . S
C445 H420 0.951 . S
C445 C443 1.388 1_556 S
C445 C446 1.366 . S
C446 C445 1.366 . S
C446 C447 1.414 . S
C446 C449 1.499 . S
C447 H421 0.950 . S
C447 C446 1.414 . S
C447 C448 1.374 1_556 S
C448 H422 0.950 . S
C448 C444 1.385 . S
C448 C447 1.374 1_554 S
C449 C446 1.499 . S
C449 C450 1.373 . S
C449 C451 1.389 . S
C450 H423 0.950 . S
C450 C436 1.377 . S
C450 C449 1.373 . S
C451 C435 1.377 . S
C451 C449 1.389 . S
C451 C452 1.524 . S
C452 C451 1.524 . S
C452 C453 1.397 . S
C452 C457 1.363 . S
C453 H424 0.950 . S
C453 C452 1.397 . S
C453 C454 1.334 . S
C454 H425 0.950 . S
C454 C453 1.334 . S
C454 C455 1.287 1_545 S
C455 C454 1.287 1_565 S
C455 C456 1.524 . S
C455 H458 0.999 . S
C456 H426 0.950 . S
C456 C455 1.524 . S
C456 C457 1.415 1_565 S
C457 H427 0.950 . S
C457 C452 1.363 . S
C457 C456 1.415 1_545 S
H458 C455 0.999 . S
H459 C440 0.913 . S
H460 C478 0.951 . S
H461 C480 0.951 . S
H462 C482 0.950 . S
H463 C483 0.950 . S
H464 C485 0.950 . S
H465 C488 0.950 . S
H466 C489 0.950 . S
H467 C491 0.950 . S
H468 C492 0.950 . S
H469 C493 0.951 . S
H470 C495 0.951 . S
H471 C497 0.950 . S
H472 C498 0.950 . S
H473 C500 0.950 . S
H474 C503 0.950 . S
H475 C504 0.950 . S
H476 C506 0.950 . S
H477 C507 0.950 . S
C478 H460 0.951 . S
C478 C479 1.366 . S
C478 C480 1.388 . S
C479 C478 1.366 . S
C479 C483 1.385 . S
C480 H461 0.951 . S
C480 C478 1.388 . S
C480 C481 1.366 . S
C481 C480 1.366 . S
C481 C482 1.414 . S
C481 C484 1.499 . S
C482 H462 0.950 . S
C482 C481 1.414 . S
C482 C483 1.374 . S
C483 H463 0.950 . S
C483 C479 1.385 . S
C483 C482 1.374 . S
C484 C481 1.499 . S
C484 C485 1.373 . S
C484 C486 1.389 . S
C485 H464 0.950 . S
C485 C484 1.373 . S
C485 C501 1.377 . S
C486 C484 1.389 . S
C486 C487 1.524 . S
C486 C500 1.377 . S
C487 C486 1.524 . S
C487 C488 1.397 . S
C487 C492 1.363 . S
C488 H465 0.950 . S
C488 C487 1.397 . S
C488 C489 1.334 1_655 S
C489 H466 0.950 . S
C489 C488 1.334 1_455 S
C489 C490 1.287 1_455 S
C490 C489 1.287 1_655 S
C490 C491 1.524 . S
C490 H509 0.913 1_655 S
C491 H467 0.950 . S
C491 C490 1.524 . S
C491 C492 1.415 . S
C492 H468 0.950 . S
C492 C487 1.363 . S
C492 C491 1.415 . S
C493 H469 0.951 . S
C493 C494 1.366 . S
C493 C495 1.388 . S
C494 C493 1.366 . S
C494 C498 1.385 . S
C495 H470 0.951 . S
C495 C493 1.388 . S
C495 C496 1.366 . S
C496 C495 1.366 . S
C496 C497 1.414 . S
C496 C499 1.499 . S
C497 H471 0.950 . S
C497 C496 1.414 . S
C497 C498 1.374 . S
C498 H472 0.950 . S
C498 C494 1.385 . S
C498 C497 1.374 . S
C499 C496 1.499 . S
C499 C500 1.373 . S
C499 C501 1.389 . S
C500 H473 0.950 . S
C500 C486 1.377 . S
C500 C499 1.373 . S
C501 C485 1.377 . S
C501 C499 1.389 . S
C501 C502 1.524 . S
C502 C501 1.524 . S
C502 C503 1.397 . S
C502 C507 1.363 . S
C503 H474 0.950 . S
C503 C502 1.397 . S
C503 C504 1.334 . S
C504 H475 0.950 . S
C504 C503 1.334 . S
C504 C505 1.287 1_565 S
C505 C504 1.287 1_545 S
C505 C506 1.524 . S
C505 H508 0.999 . S
C506 H476 0.950 . S
C506 C505 1.524 . S
C506 C507 1.415 1_545 S
C507 H477 0.950 . S
C507 C502 1.363 . S
C507 C506 1.415 1_565 S
H508 C505 0.999 . S
H509 C490 0.913 1_455 S
H510 C528 0.951 . S
H511 C530 0.951 . S
H512 C532 0.950 . S
H513 C533 0.950 . S
H514 C535 0.950 . S
H515 C538 0.950 . S
H516 C539 0.950 . S
H517 C541 0.950 . S
H518 C542 0.950 . S
H519 C543 0.951 . S
H520 C545 0.951 . S
H521 C547 0.950 . S
H522 C548 0.950 . S
H523 C550 0.950 . S
H524 C553 0.950 . S
H525 C554 0.950 1_545 S
H526 C556 0.950 . S
H527 C557 0.950 . S
C528 H510 0.951 . S
C528 C529 1.366 . S
C528 C530 1.388 . S
C529 C528 1.366 . S
C529 C533 1.385 . S
C530 H511 0.951 . S
C530 C528 1.388 . S
C530 C531 1.366 . S
C531 C530 1.366 . S
C531 C532 1.414 . S
C531 C534 1.499 . S
C532 H512 0.950 . S
C532 C531 1.414 . S
C532 C533 1.374 . S
C533 H513 0.950 . S
C533 C529 1.385 . S
C533 C532 1.374 . S
C534 C531 1.499 . S
C534 C535 1.373 . S
C534 C536 1.389 . S
C535 H514 0.950 . S
C535 C534 1.373 . S
C535 C551 1.377 . S
C536 C534 1.389 . S
C536 C537 1.524 . S
C536 C550 1.377 . S
C537 C536 1.524 . S
C537 C538 1.397 . S
C537 C542 1.363 . S
C538 H515 0.950 . S
C538 C537 1.397 . S
C538 C539 1.334 . S
C539 H516 0.950 . S
C539 C538 1.334 . S
C539 C540 1.287 . S
C540 C539 1.287 . S
C540 C541 1.524 . S
C540 H559 0.913 . S
C541 H517 0.950 . S
C541 C540 1.524 . S
C541 C542 1.415 . S
C542 H518 0.950 . S
C542 C537 1.363 . S
C542 C541 1.415 . S
C543 H519 0.951 . S
C543 C544 1.366 . S
C543 C545 1.388 . S
C544 C543 1.366 . S
C544 C548 1.385 . S
C545 H520 0.951 . S
C545 C543 1.388 . S
C545 C546 1.366 . S
C546 C545 1.366 . S
C546 C547 1.414 . S
C546 C549 1.499 . S
C547 H521 0.950 . S
C547 C546 1.414 . S
C547 C548 1.374 . S
C548 H522 0.950 . S
C548 C544 1.385 . S
C548 C547 1.374 . S
C549 C546 1.499 . S
C549 C550 1.373 . S
C549 C551 1.389 . S
C550 H523 0.950 . S
C550 C536 1.377 . S
C550 C549 1.373 . S
C551 C535 1.377 . S
C551 C549 1.389 . S
C551 C552 1.524 . S
C552 C551 1.524 . S
C552 C553 1.397 . S
C552 C557 1.363 . S
C553 H524 0.950 . S
C553 C552 1.397 . S
C553 C554 1.334 . S
C554 H525 0.950 1_565 S
C554 C553 1.334 . S
C554 C555 1.287 . S
C555 C554 1.287 . S
C555 C556 1.524 . S
C555 H558 0.999 1_565 S
C556 H526 0.950 . S
C556 C555 1.524 . S
C556 C557 1.415 . S
C557 H527 0.950 . S
C557 C552 1.363 . S
C557 C556 1.415 . S
H558 C555 0.999 1_545 S
H559 C540 0.913 . S
H560 C578 0.951 . S
H561 C580 0.951 . S
H562 C582 0.950 . S
H563 C583 0.950 . S
H564 C585 0.950 . S
H565 C588 0.950 . S
H566 C589 0.950 . S
H567 C591 0.950 . S
H568 C592 0.950 . S
H569 C593 0.951 . S
H570 C595 0.951 . S
H571 C597 0.950 . S
H572 C598 0.950 . S
H573 C600 0.950 . S
H574 C603 0.950 . S
H575 C604 0.950 . S
H576 C606 0.950 1_455 S
H577 C607 0.950 . S
C578 H560 0.951 . S
C578 C579 1.366 . S
C578 C580 1.388 . S
C579 C578 1.366 . S
C579 C583 1.385 . S
C580 H561 0.951 . S
C580 C578 1.388 . S
C580 C581 1.366 . S
C581 C580 1.366 . S
C581 C582 1.414 . S
C581 C584 1.499 . S
C582 H562 0.950 . S
C582 C581 1.414 . S
C582 C583 1.374 . S
C583 H563 0.950 . S
C583 C579 1.385 . S
C583 C582 1.374 . S
C584 C581 1.499 . S
C584 C585 1.373 . S
C584 C586 1.389 . S
C585 H564 0.950 . S
C585 C584 1.373 . S
C585 C601 1.377 . S
C586 C584 1.389 . S
C586 C587 1.524 . S
C586 C600 1.377 . S
C587 C586 1.524 . S
C587 C588 1.397 . S
C587 C592 1.363 . S
C588 H565 0.950 . S
C588 C587 1.397 . S
C588 C589 1.334 . S
C589 H566 0.950 . S
C589 C588 1.334 . S
C589 C590 1.287 . S
C590 C589 1.287 . S
C590 C591 1.524 . S
C590 H609 0.913 . S
C591 H567 0.950 . S
C591 C590 1.524 . S
C591 C592 1.415 . S
C592 H568 0.950 . S
C592 C587 1.363 . S
C592 C591 1.415 . S
C593 H569 0.951 . S
C593 C594 1.366 . S
C593 C595 1.388 . S
C594 C593 1.366 . S
C594 C598 1.385 . S
C595 H570 0.951 . S
C595 C593 1.388 . S
C595 C596 1.366 . S
C596 C595 1.366 . S
C596 C597 1.414 . S
C596 C599 1.499 . S
C597 H571 0.950 . S
C597 C596 1.414 . S
C597 C598 1.374 . S
C598 H572 0.950 . S
C598 C594 1.385 . S
C598 C597 1.374 . S
C599 C596 1.499 . S
C599 C600 1.373 . S
C599 C601 1.389 . S
C600 H573 0.950 . S
C600 C586 1.377 . S
C600 C599 1.373 . S
C601 C585 1.377 . S
C601 C599 1.389 . S
C601 C602 1.524 . S
C602 C601 1.524 . S
C602 C603 1.397 . S
C602 C607 1.363 . S
C603 H574 0.950 . S
C603 C602 1.397 . S
C603 C604 1.334 . S
C604 H575 0.950 . S
C604 C603 1.334 . S
C604 C605 1.287 . S
C605 C604 1.287 . S
C605 C606 1.524 . S
C605 H608 0.997 . S
C606 H576 0.950 1_655 S
C606 C605 1.524 . S
C606 C607 1.415 . S
C607 H577 0.950 . S
C607 C602 1.363 . S
C607 C606 1.415 . S
H608 C605 0.997 . S
H609 C590 0.913 . S
H610 C628 0.951 1_545 S
H611 C630 0.951 . S
H612 C632 0.950 . S
H613 C633 0.950 . S
H614 C635 0.950 . S
H615 C638 0.950 . S
H616 C639 0.950 . S
H617 C641 0.950 . S
H618 C642 0.950 . S
H619 C643 0.951 . S
H620 C645 0.951 . S
H621 C647 0.950 . S
H622 C648 0.950 . S
H623 C650 0.950 . S
H624 C653 0.950 . S
H625 C654 0.950 . S
H626 C656 0.950 . S
H627 C657 0.950 . S
C628 H610 0.951 1_565 S
C628 C629 1.366 . S
C628 C630 1.388 . S
C629 C628 1.366 . S
C629 C633 1.385 . S
C630 H611 0.951 . S
C630 C628 1.388 . S
C630 C631 1.366 . S
C631 C630 1.366 . S
C631 C632 1.414 . S
C631 C634 1.499 . S
C632 H612 0.950 . S
C632 C631 1.414 . S
C632 C633 1.374 . S
C633 H613 0.950 . S
C633 C629 1.385 . S
C633 C632 1.374 . S
C634 C631 1.499 . S
C634 C635 1.373 . S
C634 C636 1.389 . S
C635 H614 0.950 . S
C635 C634 1.373 . S
C635 C651 1.377 . S
C636 C634 1.389 . S
C636 C637 1.524 . S
C636 C650 1.377 . S
C637 C636 1.524 . S
C637 C638 1.397 . S
C637 C642 1.363 . S
C638 H615 0.950 . S
C638 C637 1.397 . S
C638 C639 1.334 . S
C639 H616 0.950 . S
C639 C638 1.334 . S
C639 C640 1.287 . S
C640 C639 1.287 . S
C640 C641 1.524 . S
C640 H659 0.913 . S
C641 H617 0.950 . S
C641 C640 1.524 . S
C641 C642 1.415 . S
C642 H618 0.950 . S
C642 C637 1.363 . S
C642 C641 1.415 . S
C643 H619 0.951 . S
C643 C644 1.366 . S
C643 C645 1.388 . S
C644 C643 1.366 . S
C644 C648 1.385 . S
C645 H620 0.951 . S
C645 C643 1.388 . S
C645 C646 1.366 . S
C646 C645 1.366 . S
C646 C647 1.414 . S
C646 C649 1.499 . S
C647 H621 0.950 . S
C647 C646 1.414 . S
C647 C648 1.374 . S
C648 H622 0.950 . S
C648 C644 1.385 . S
C648 C647 1.374 . S
C649 C646 1.499 . S
C649 C650 1.373 . S
C649 C651 1.389 . S
C650 H623 0.950 . S
C650 C636 1.377 . S
C650 C649 1.373 . S
C651 C635 1.377 . S
C651 C649 1.389 . S
C651 C652 1.524 . S
C652 C651 1.524 . S
C652 C653 1.397 . S
C652 C657 1.363 . S
C653 H624 0.950 . S
C653 C652 1.397 . S
C653 C654 1.334 . S
C654 H625 0.950 . S
C654 C653 1.334 . S
C654 C655 1.287 . S
C655 C654 1.287 . S
C655 C656 1.524 . S
C655 H658 0.999 1_455 S
C656 H626 0.950 . S
C656 C655 1.524 . S
C656 C657 1.415 . S
C657 H627 0.950 . S
C657 C652 1.363 . S
C657 C656 1.415 . S
H658 C655 0.999 1_655 S
H659 C640 0.913 . S
H660 C678 0.951 . S
H661 C680 0.951 . S
H662 C682 0.950 . S
H663 C683 0.950 . S
H664 C685 0.950 . S
H665 C688 0.950 . S
H666 C689 0.950 . S
H667 C691 0.950 1_655 S
H668 C692 0.950 . S
H669 C693 0.951 . S
H670 C695 0.951 . S
H671 C697 0.950 . S
H672 C698 0.950 . S
H673 C700 0.950 . S
H674 C703 0.950 . S
H675 C704 0.950 . S
H676 C706 0.950 . S
H677 C707 0.950 . S
C678 H660 0.951 . S
C678 C679 1.366 . S
C678 C680 1.388 . S
C679 C678 1.366 . S
C679 C683 1.385 . S
C680 H661 0.951 . S
C680 C678 1.388 . S
C680 C681 1.366 . S
C681 C680 1.366 . S
C681 C682 1.414 . S
C681 C684 1.499 . S
C682 H662 0.950 . S
C682 C681 1.414 . S
C682 C683 1.374 . S
C683 H663 0.950 . S
C683 C679 1.385 . S
C683 C682 1.374 . S
C684 C681 1.499 . S
C684 C685 1.373 . S
C684 C686 1.389 . S
C685 H664 0.950 . S
C685 C684 1.373 . S
C685 C701 1.377 . S
C686 C684 1.389 . S
C686 C687 1.524 . S
C686 C700 1.377 . S
C687 C686 1.524 . S
C687 C688 1.397 . S
C687 C692 1.363 . S
C688 H665 0.950 . S
C688 C687 1.397 . S
C688 C689 1.334 . S
C689 H666 0.950 . S
C689 C688 1.334 . S
C689 C690 1.287 . S
C690 C689 1.287 . S
C690 C691 1.524 . S
C690 H709 0.913 1_455 S
C691 H667 0.950 1_455 S
C691 C690 1.524 . S
C691 C692 1.415 . S
C692 H668 0.950 . S
C692 C687 1.363 . S
C692 C691 1.415 . S
C693 H669 0.951 . S
C693 C694 1.366 . S
C693 C695 1.388 . S
C694 C693 1.366 . S
C694 C698 1.385 . S
C695 H670 0.951 . S
C695 C693 1.388 . S
C695 C696 1.366 . S
C696 C695 1.366 . S
C696 C697 1.414 . S
C696 C699 1.499 . S
C697 H671 0.950 . S
C697 C696 1.414 . S
C697 C698 1.374 . S
C698 H672 0.950 . S
C698 C694 1.385 . S
C698 C697 1.374 . S
C699 C696 1.499 . S
C699 C700 1.373 . S
C699 C701 1.389 . S
C700 H673 0.950 . S
C700 C686 1.377 . S
C700 C699 1.373 . S
C701 C685 1.377 . S
C701 C699 1.389 . S
C701 C702 1.524 . S
C702 C701 1.524 . S
C702 C703 1.397 . S
C702 C707 1.363 . S
C703 H674 0.950 . S
C703 C702 1.397 . S
C703 C704 1.334 . S
C704 H675 0.950 . S
C704 C703 1.334 . S
C704 C705 1.287 . S
C705 C704 1.287 . S
C705 C706 1.524 . S
C705 H708 0.999 . S
C706 H676 0.950 . S
C706 C705 1.524 . S
C706 C707 1.415 . S
C707 H677 0.950 . S
C707 C702 1.363 . S
C707 C706 1.415 . S
H708 C705 0.999 . S
H709 C690 0.913 1_655 S
H710 C728 0.951 . S
H711 C730 0.951 . S
H712 C732 0.950 . S
H713 C733 0.950 . S
H714 C735 0.950 . S
H715 C738 0.950 . S
H716 C739 0.950 . S
H717 C741 0.950 . S
H718 C742 0.950 . S
H719 C743 0.951 . S
H720 C745 0.951 1_455 S
H721 C747 0.950 . S
H722 C748 0.950 . S
H723 C750 0.950 . S
H724 C753 0.950 . S
H725 C754 0.950 . S
H726 C756 0.950 . S
H727 C757 0.950 1_455 S
C728 H710 0.951 . S
C728 C729 1.366 . S
C728 C730 1.388 . S
C729 C728 1.366 . S
C729 C733 1.385 . S
C730 H711 0.951 . S
C730 C728 1.388 . S
C730 C731 1.366 . S
C731 C730 1.366 . S
C731 C732 1.414 . S
C731 C734 1.499 . S
C732 H712 0.950 . S
C732 C731 1.414 . S
C732 C733 1.374 . S
C733 H713 0.950 . S
C733 C729 1.385 . S
C733 C732 1.374 . S
C734 C731 1.499 . S
C734 C735 1.373 . S
C734 C736 1.389 . S
C735 H714 0.950 . S
C735 C734 1.373 . S
C735 C751 1.377 . S
C736 C734 1.389 . S
C736 C737 1.524 . S
C736 C750 1.377 . S
C737 C736 1.524 . S
C737 C738 1.397 . S
C737 C742 1.363 . S
C738 H715 0.950 . S
C738 C737 1.397 . S
C738 C739 1.334 . S
C739 H716 0.950 . S
C739 C738 1.334 . S
C739 C740 1.287 . S
C740 C739 1.287 . S
C740 C741 1.524 . S
C740 H759 0.913 . S
C741 H717 0.950 . S
C741 C740 1.524 . S
C741 C742 1.415 . S
C742 H718 0.950 . S
C742 C737 1.363 . S
C742 C741 1.415 . S
C743 H719 0.951 . S
C743 C744 1.366 1_455 S
C743 C745 1.388 1_455 S
C744 C743 1.366 1_655 S
C744 C748 1.385 . S
C745 H720 0.951 1_655 S
C745 C743 1.388 1_655 S
C745 C746 1.366 . S
C746 C745 1.366 . S
C746 C747 1.414 . S
C746 C749 1.499 . S
C747 H721 0.950 . S
C747 C746 1.414 . S
C747 C748 1.374 . S
C748 H722 0.950 . S
C748 C744 1.385 . S
C748 C747 1.374 . S
C749 C746 1.499 . S
C749 C750 1.373 . S
C749 C751 1.389 . S
C750 H723 0.950 . S
C750 C736 1.377 . S
C750 C749 1.373 . S
C751 C735 1.377 . S
C751 C749 1.389 . S
C751 C752 1.524 . S
C752 C751 1.524 . S
C752 C753 1.397 . S
C752 C757 1.363 . S
C753 H724 0.950 . S
C753 C752 1.397 . S
C753 C754 1.334 . S
C754 H725 0.950 . S
C754 C753 1.334 . S
C754 C755 1.287 . S
C755 C754 1.287 . S
C755 C756 1.524 1_655 S
C755 H758 0.999 1_655 S
C756 H726 0.950 . S
C756 C755 1.524 1_455 S
C756 C757 1.415 1_455 S
C757 H727 0.950 1_655 S
C757 C752 1.363 . S
C757 C756 1.415 1_655 S
H758 C755 0.999 1_455 S
H759 C740 0.913 . S
C179 C98 0.945 . S
C194 C9 0.945 . S
C229 C138 1.089 . S
C244 C49 1.088 . S
C279 C89 0.881 . S
C294 C18 0.881 . S
C329 C58 0.975 . S
C344 C129 0.975 1_655 S
C379 C46 1.004 . S
C394 C15 1.013 . S
C429 C55 1.789 . S
C444 C90 1.801 . S
C479 C130 2.158 . S
C494 C99 2.103 . S
C529 C139 1.295 . S
C544 C6 1.313 . S
C579 C86 1.013 . S
C594 C135 1.007 . S
C629 C19 1.801 . S
C644 C126 1.787 . S
C679 C59 2.158 . S
C694 C10 2.103 1_556 S
C729 C95 1.312 . S
C744 C50 1.297 1_655 S
