# Generated by pormake.
# Topology unv, (4)-cn, num edge types: 1
# Building blocks:
#     Node 0, Type 0, BuildingBlock: CEKHIL_clean_sbu_0, # of connection points: 4
#     Node 1, Type 0, BuildingBlock: CEKHIL_clean_sbu_0, # of connection points: 4
#     Node 2, Type 0, BuildingBlock: CEKHIL_clean_sbu_0, # of connection points: 4
#     Node 3, Type 0, BuildingBlock: CEKHIL_clean_sbu_0, # of connection points: 4
#     Node 4, Type 0, BuildingBlock: CEKHIL_clean_sbu_0, # of connection points: 4
#     Node 5, Type 0, BuildingBlock: CEKHIL_clean_sbu_0, # of connection points: 4
#     Node 6, Type 0, BuildingBlock: CEKHIL_clean_sbu_0, # of connection points: 4
#     Node 7, Type 0, BuildingBlock: CEKHIL_clean_sbu_0, # of connection points: 4
#     Node 8, Type 0, BuildingBlock: CEKHIL_clean_sbu_0, # of connection points: 4
#     Node 9, Type 0, BuildingBlock: CEKHIL_clean_sbu_0, # of connection points: 4
#     Node 10, Type 0, BuildingBlock: CEKHIL_clean_sbu_0, # of connection points: 4
#     Node 11, Type 0, BuildingBlock: CEKHIL_clean_sbu_0, # of connection points: 4
#     Node 12, Type 0, BuildingBlock: CEKHIL_clean_sbu_0, # of connection points: 4
#     Node 13, Type 0, BuildingBlock: CEKHIL_clean_sbu_0, # of connection points: 4
#     Node 14, Type 0, BuildingBlock: CEKHIL_clean_sbu_0, # of connection points: 4
#     Node 15, Type 0, BuildingBlock: CEKHIL_clean_sbu_0, # of connection points: 4
#     Node 16, Type 0, BuildingBlock: CEKHIL_clean_sbu_0, # of connection points: 4
#     Node 17, Type 0, BuildingBlock: CEKHIL_clean_sbu_0, # of connection points: 4
#     Node 18, Type 0, BuildingBlock: CEKHIL_clean_sbu_0, # of connection points: 4
#     Node 19, Type 0, BuildingBlock: CEKHIL_clean_sbu_0, # of connection points: 4
#     Node 20, Type 0, BuildingBlock: CEKHIL_clean_sbu_0, # of connection points: 4
#     Node 21, Type 0, BuildingBlock: CEKHIL_clean_sbu_0, # of connection points: 4
#     Node 22, Type 0, BuildingBlock: CEKHIL_clean_sbu_0, # of connection points: 4
#     Node 23, Type 0, BuildingBlock: CEKHIL_clean_sbu_0, # of connection points: 4
#     Edge 24, Type (0, 0), BuildingBlock: OJICUG_clean_linker_0, # of connection points: 2
#     Edge 25, Type (0, 0), BuildingBlock: OJICUG_clean_linker_0, # of connection points: 2
#     Edge 26, Type (0, 0), BuildingBlock: OJICUG_clean_linker_0, # of connection points: 2
#     Edge 27, Type (0, 0), BuildingBlock: OJICUG_clean_linker_0, # of connection points: 2
#     Edge 28, Type (0, 0), BuildingBlock: OJICUG_clean_linker_0, # of connection points: 2
#     Edge 29, Type (0, 0), BuildingBlock: OJICUG_clean_linker_0, # of connection points: 2
#     Edge 30, Type (0, 0), BuildingBlock: OJICUG_clean_linker_0, # of connection points: 2
#     Edge 31, Type (0, 0), BuildingBlock: OJICUG_clean_linker_0, # of connection points: 2
#     Edge 32, Type (0, 0), BuildingBlock: OJICUG_clean_linker_0, # of connection points: 2
#     Edge 33, Type (0, 0), BuildingBlock: OJICUG_clean_linker_0, # of connection points: 2
#     Edge 34, Type (0, 0), BuildingBlock: OJICUG_clean_linker_0, # of connection points: 2
#     Edge 35, Type (0, 0), BuildingBlock: OJICUG_clean_linker_0, # of connection points: 2
#     Edge 36, Type (0, 0), BuildingBlock: OJICUG_clean_linker_0, # of connection points: 2
#     Edge 37, Type (0, 0), BuildingBlock: OJICUG_clean_linker_0, # of connection points: 2
#     Edge 38, Type (0, 0), BuildingBlock: OJICUG_clean_linker_0, # of connection points: 2
#     Edge 39, Type (0, 0), BuildingBlock: OJICUG_clean_linker_0, # of connection points: 2
#     Edge 40, Type (0, 0), BuildingBlock: OJICUG_clean_linker_0, # of connection points: 2
#     Edge 41, Type (0, 0), BuildingBlock: OJICUG_clean_linker_0, # of connection points: 2
#     Edge 42, Type (0, 0), BuildingBlock: OJICUG_clean_linker_0, # of connection points: 2
#     Edge 43, Type (0, 0), BuildingBlock: OJICUG_clean_linker_0, # of connection points: 2
#     Edge 44, Type (0, 0), BuildingBlock: OJICUG_clean_linker_0, # of connection points: 2
#     Edge 45, Type (0, 0), BuildingBlock: OJICUG_clean_linker_0, # of connection points: 2
#     Edge 46, Type (0, 0), BuildingBlock: OJICUG_clean_linker_0, # of connection points: 2
#     Edge 47, Type (0, 0), BuildingBlock: OJICUG_clean_linker_0, # of connection points: 2
#     Edge 48, Type (0, 0), BuildingBlock: OJICUG_clean_linker_0, # of connection points: 2
#     Edge 49, Type (0, 0), BuildingBlock: OJICUG_clean_linker_0, # of connection points: 2
#     Edge 50, Type (0, 0), BuildingBlock: OJICUG_clean_linker_0, # of connection points: 2
#     Edge 51, Type (0, 0), BuildingBlock: OJICUG_clean_linker_0, # of connection points: 2
#     Edge 52, Type (0, 0), BuildingBlock: OJICUG_clean_linker_0, # of connection points: 2
#     Edge 53, Type (0, 0), BuildingBlock: OJICUG_clean_linker_0, # of connection points: 2
#     Edge 54, Type (0, 0), BuildingBlock: OJICUG_clean_linker_0, # of connection points: 2
#     Edge 55, Type (0, 0), BuildingBlock: OJICUG_clean_linker_0, # of connection points: 2
#     Edge 56, Type (0, 0), BuildingBlock: OJICUG_clean_linker_0, # of connection points: 2
#     Edge 57, Type (0, 0), BuildingBlock: OJICUG_clean_linker_0, # of connection points: 2
#     Edge 58, Type (0, 0), BuildingBlock: OJICUG_clean_linker_0, # of connection points: 2
#     Edge 59, Type (0, 0), BuildingBlock: OJICUG_clean_linker_0, # of connection points: 2
#     Edge 60, Type (0, 0), BuildingBlock: OJICUG_clean_linker_0, # of connection points: 2
#     Edge 61, Type (0, 0), BuildingBlock: OJICUG_clean_linker_0, # of connection points: 2
#     Edge 62, Type (0, 0), BuildingBlock: OJICUG_clean_linker_0, # of connection points: 2
#     Edge 63, Type (0, 0), BuildingBlock: OJICUG_clean_linker_0, # of connection points: 2
#     Edge 64, Type (0, 0), BuildingBlock: OJICUG_clean_linker_0, # of connection points: 2
#     Edge 65, Type (0, 0), BuildingBlock: OJICUG_clean_linker_0, # of connection points: 2
#     Edge 66, Type (0, 0), BuildingBlock: OJICUG_clean_linker_0, # of connection points: 2
#     Edge 67, Type (0, 0), BuildingBlock: OJICUG_clean_linker_0, # of connection points: 2
#     Edge 68, Type (0, 0), BuildingBlock: OJICUG_clean_linker_0, # of connection points: 2
#     Edge 69, Type (0, 0), BuildingBlock: OJICUG_clean_linker_0, # of connection points: 2
#     Edge 70, Type (0, 0), BuildingBlock: OJICUG_clean_linker_0, # of connection points: 2
#     Edge 71, Type (0, 0), BuildingBlock: OJICUG_clean_linker_0, # of connection points: 2
# Relax obj value: 0.322
# Max RMSD: 0.238
# Mean RMSD: 0.214
data_MOF--net-unv--node1-CEKHIL_clean_sbu_0--edge1-OJICUG_clean_linker_0
_symmetry_space_group_name_H-M    P1
_symmetry_Int_Tables_number       1
_symmetry_cell_setting            triclinic
loop_
_symmetry_equiv_pos_as_xyz
'x, y, z'
_cell_length_a     34.99427
_cell_length_b     34.977589
_cell_length_c     34.881981
_cell_angle_alpha  89.766816
_cell_angle_beta   89.953348
_cell_angle_gamma 89.913764
loop_
_atom_site_label
_atom_site_type_symbol
_atom_site_fract_x
_atom_site_fract_y
_atom_site_fract_z
_atom_type_partial_charge
Co0 Co 0.01752 0.11329 0.37227 0.0
O1 O 0.04308 0.15711 0.35 0.0
O2 O 0.98105 0.14667 0.34663 0.0
C3 C 0.0465 0.1174 0.4303 0.0
O4 O 0.98051 0.07326 0.39296 0.0
Co5 Co 0.06259 0.04244 0.40359 0.0
O6 O 0.0131 0.03081 0.42901 0.0
C7 C 0.04613 0.04922 0.32038 0.0
C8 C 0.00956 0.16968 0.34021 0.0
C9 C 0.98189 0.04538 0.41707 0.0
O10 O 0.02614 0.08014 0.32494 0.0
O11 O 0.06492 0.03278 0.34726 0.0
O12 O 0.01696 0.13855 0.4226 0.0
O13 O 0.059 0.09724 0.4022 0.0
Co14 Co 0.98182 0.38791 0.37389 0.0
O15 O 0.955 0.34545 0.35072 0.0
O16 O 0.01726 0.35452 0.34721 0.0
C17 C 0.95284 0.38238 0.43189 0.0
O18 O 0.02036 0.426 0.39532 0.0
Co19 Co 0.94064 0.45912 0.40816 0.0
O20 O 0.99003 0.46642 0.43498 0.0
C21 C 0.96012 0.45726 0.32496 0.0
C22 C 0.98821 0.33234 0.34056 0.0
C23 C 0.02051 0.4519 0.4214 0.0
O24 O 0.974 0.42288 0.32742 0.0
O25 O 0.94481 0.47485 0.35321 0.0
O26 O 0.98182 0.36082 0.42339 0.0
O27 O 0.94094 0.40425 0.40462 0.0
Co28 Co 0.01802 0.88974 0.13448 0.0
O29 O 0.04347 0.84583 0.15684 0.0
O30 O 0.98143 0.85641 0.16007 0.0
C31 C 0.04723 0.88543 0.07654 0.0
O32 O 0.98121 0.93002 0.11359 0.0
Co33 Co 0.06358 0.96028 0.10337 0.0
O34 O 0.01431 0.97218 0.07768 0.0
C35 C 0.04655 0.95364 0.1865 0.0
C36 C 0.00995 0.83332 0.16658 0.0
C37 C 0.98293 0.9579 0.08946 0.0
O38 O 0.02647 0.92286 0.18184 0.0
O39 O 0.0656 0.96994 0.15971 0.0
O40 O 0.01762 0.86443 0.08418 0.0
O41 O 0.05967 0.90553 0.10467 0.0
Co42 Co 0.98203 0.61468 0.13443 0.0
O43 O 0.95546 0.6575 0.15743 0.0
O44 O 0.01768 0.64811 0.16071 0.0
C45 C 0.95291 0.62015 0.07654 0.0
O46 O 0.02023 0.576 0.11298 0.0
Co47 Co 0.94001 0.54372 0.10088 0.0
O48 O 0.9892 0.53571 0.07381 0.0
C49 C 0.96002 0.54587 0.18392 0.0
C50 C 0.98871 0.67054 0.1673 0.0
C51 C 0.01993 0.54988 0.08708 0.0
O52 O 0.97416 0.58009 0.18119 0.0
O53 O 0.94441 0.5283 0.15589 0.0
O54 O 0.98205 0.64148 0.08478 0.0
O55 O 0.94092 0.59859 0.10401 0.0
Co56 Co 0.37221 0.01838 0.11351 0.0
O57 O 0.34966 0.04411 0.15704 0.0
O58 O 0.34636 0.98201 0.14678 0.0
C59 C 0.43 0.04738 0.11805 0.0
O60 O 0.39312 0.98109 0.07397 0.0
Co61 Co 0.40402 0.06277 0.04239 0.0
O62 O 0.4297 0.01323 0.03171 0.0
C63 C 0.32093 0.04681 0.04857 0.0
C64 C 0.33973 0.01059 0.16963 0.0
C65 C 0.41758 0.98215 0.04648 0.0
O66 O 0.32527 0.02693 0.07974 0.0
O67 O 0.34792 0.06537 0.03217 0.0
O68 O 0.42219 0.01792 0.13939 0.0
O69 O 0.40217 0.05976 0.09739 0.0
Co70 Co 0.62698 0.48557 0.11411 0.0
O71 O 0.64984 0.45918 0.15732 0.0
O72 O 0.65251 0.5215 0.14779 0.0
C73 C 0.56955 0.45579 0.11853 0.0
O74 O 0.60577 0.52363 0.07505 0.0
Co75 Co 0.59479 0.4433 0.0424 0.0
O76 O 0.56809 0.49254 0.03336 0.0
C77 C 0.67725 0.46423 0.04593 0.0
C78 C 0.65948 0.49254 0.17028 0.0
C79 C 0.58072 0.52327 0.04809 0.0
O80 O 0.67398 0.47828 0.08016 0.0
O81 O 0.64974 0.4483 0.02788 0.0
O82 O 0.5771 0.48494 0.14014 0.0
O83 O 0.59739 0.44418 0.09744 0.0
Co84 Co 0.37002 0.98059 0.38891 0.0
O85 O 0.34765 0.95455 0.34551 0.0
O86 O 0.34446 0.01676 0.35521 0.0
C87 C 0.42777 0.95125 0.38479 0.0
O88 O 0.39085 0.01824 0.42802 0.0
Co89 Co 0.40145 0.93707 0.46066 0.0
O90 O 0.42771 0.98646 0.47029 0.0
C91 C 0.31841 0.95334 0.45416 0.0
C92 C 0.338 0.98804 0.33253 0.0
C93 C 0.41557 0.01742 0.45524 0.0
O94 O 0.32289 0.97265 0.42265 0.0
O95 O 0.3453 0.935 0.471 0.0
O96 O 0.42006 0.98052 0.36313 0.0
O97 O 0.39986 0.93923 0.4056 0.0
Co98 Co 0.62986 0.51867 0.38973 0.0
O99 O 0.65251 0.5456 0.34675 0.0
O100 O 0.6559 0.48325 0.35584 0.0
C101 C 0.5721 0.54792 0.38515 0.0
O102 O 0.60888 0.48002 0.42829 0.0
Co103 Co 0.59647 0.55972 0.46161 0.0
O104 O 0.56996 0.51025 0.46956 0.0
C105 C 0.67935 0.54002 0.45843 0.0
C106 C 0.6623 0.51238 0.33343 0.0
C107 C 0.58325 0.4798 0.45473 0.0
O108 O 0.6766 0.5262 0.42403 0.0
O109 O 0.6514 0.55539 0.4764 0.0
O110 O 0.58019 0.51899 0.36342 0.0
O111 O 0.59959 0.55961 0.40658 0.0
Co112 Co 0.11254 0.37317 0.01994 0.0
O113 O 0.15612 0.35061 0.04571 0.0
O114 O 0.14551 0.3471 0.98351 0.0
C115 C 0.11736 0.43118 0.04852 0.0
O116 O 0.07276 0.39408 0.98268 0.0
Co117 Co 0.04212 0.40503 0.06491 0.0
O118 O 0.03103 0.43072 0.01522 0.0
C119 C 0.04779 0.32197 0.04873 0.0
C120 C 0.16848 0.34053 0.01214 0.0
C121 C 0.04534 0.41856 0.98395 0.0
O122 O 0.07885 0.32627 0.02884 0.0
O123 O 0.03158 0.34895 0.06738 0.0
O124 O 0.13841 0.4231 0.01899 0.0
O125 O 0.0969 0.4034 0.06133 0.0
Co126 Co 0.11311 0.62772 0.48712 0.0
O127 O 0.156 0.65044 0.46034 0.0
O128 O 0.14645 0.65426 0.52271 0.0
C129 C 0.11823 0.56971 0.45864 0.0
O130 O 0.07421 0.60683 0.52551 0.0
Co131 Co 0.04211 0.59425 0.44489 0.0
O132 O 0.03327 0.56819 0.49467 0.0
C133 C 0.04469 0.67709 0.46434 0.0
C134 C 0.16884 0.66081 0.49361 0.0
C135 C 0.04761 0.58148 0.52538 0.0
O136 O 0.07883 0.67432 0.47863 0.0
O137 O 0.02698 0.64916 0.44881 0.0
O138 O 0.13959 0.57809 0.48781 0.0
O139 O 0.09696 0.59712 0.4462 0.0
Co140 Co 0.88972 0.86842 0.48545 0.0
O141 O 0.84676 0.84585 0.45889 0.0
O142 O 0.85588 0.84251 0.52134 0.0
C143 C 0.88517 0.92617 0.45595 0.0
O144 O 0.92864 0.88942 0.5236 0.0
Co145 Co 0.96113 0.90106 0.4428 0.0
O146 O 0.96979 0.92764 0.49211 0.0
C147 C 0.95783 0.81837 0.46354 0.0
C148 C 0.83355 0.836 0.49227 0.0
C149 C 0.95532 0.91472 0.52304 0.0
O150 O 0.92368 0.82147 0.47782 0.0
O151 O 0.97574 0.84607 0.44757 0.0
O152 O 0.86362 0.91824 0.48521 0.0
O153 O 0.90628 0.8985 0.44404 0.0
Co154 Co 0.38741 0.63092 0.52048 0.0
O155 O 0.34425 0.65312 0.5471 0.0
O156 O 0.35419 0.65794 0.48483 0.0
C157 C 0.38217 0.57233 0.54824 0.0
O158 O 0.42663 0.61054 0.48243 0.0
Co159 Co 0.45786 0.59717 0.56404 0.0
O160 O 0.46799 0.57238 0.51389 0.0
C161 C 0.45319 0.68075 0.54902 0.0
C162 C 0.33145 0.66373 0.5138 0.0
C163 C 0.45363 0.58555 0.48298 0.0
O164 O 0.42167 0.67734 0.52973 0.0
O165 O 0.4693 0.65303 0.56687 0.0
O166 O 0.36103 0.5813 0.51902 0.0
O167 O 0.40309 0.59957 0.56124 0.0
Co168 Co 0.51598 0.61366 0.86917 0.0
O169 O 0.54307 0.65626 0.84627 0.0
O170 O 0.48085 0.64747 0.84219 0.0
C171 C 0.54424 0.61899 0.92742 0.0
O172 O 0.47746 0.57508 0.89038 0.0
Co173 Co 0.55773 0.54257 0.90377 0.0
O174 O 0.50812 0.53453 0.93003 0.0
C175 C 0.53843 0.54469 0.82055 0.0
C176 C 0.51004 0.66968 0.83594 0.0
C177 C 0.47752 0.54879 0.91632 0.0
O178 O 0.52437 0.579 0.8228 0.0
O179 O 0.55378 0.5271 0.84889 0.0
O180 O 0.51527 0.64044 0.91859 0.0
O181 O 0.55663 0.59742 0.90028 0.0
Co182 Co 0.48505 0.88882 0.87079 0.0
O183 O 0.45848 0.84588 0.8483 0.0
O184 O 0.52066 0.8551 0.84448 0.0
C185 C 0.45625 0.88394 0.92888 0.0
O186 O 0.52303 0.928 0.89158 0.0
Co187 Co 0.44209 0.95988 0.90378 0.0
O188 O 0.49161 0.96941 0.9295 0.0
C189 C 0.46231 0.95695 0.82083 0.0
C190 C 0.49163 0.83278 0.83805 0.0
C191 C 0.52245 0.95506 0.91651 0.0
O192 O 0.4768 0.92289 0.82383 0.0
O193 O 0.44639 0.97466 0.84864 0.0
O194 O 0.48546 0.86256 0.92074 0.0
O195 O 0.44398 0.90504 0.90121 0.0
Co196 Co 0.51706 0.38716 0.63132 0.0
O197 O 0.5439 0.34434 0.65422 0.0
O198 O 0.48165 0.3534 0.65785 0.0
C199 C 0.54593 0.3821 0.57328 0.0
O200 O 0.47865 0.42585 0.61007 0.0
Co201 Co 0.55881 0.45838 0.5972 0.0
O202 O 0.50932 0.46672 0.57082 0.0
C203 C 0.53892 0.45591 0.68033 0.0
C204 C 0.51074 0.33103 0.66422 0.0
C205 C 0.47873 0.4523 0.58431 0.0
O206 O 0.52499 0.4216 0.67791 0.0
O207 O 0.5544 0.47359 0.65213 0.0
O208 O 0.51689 0.36065 0.58173 0.0
O209 O 0.55797 0.40353 0.60062 0.0
Co210 Co 0.48422 0.11209 0.62904 0.0
O211 O 0.45795 0.15525 0.65167 0.0
O212 O 0.52013 0.1456 0.65498 0.0
C213 C 0.45503 0.11692 0.57117 0.0
O214 O 0.52198 0.07272 0.60808 0.0
Co215 Co 0.441 0.04113 0.59653 0.0
O216 O 0.49041 0.03116 0.57062 0.0
C217 C 0.46176 0.04414 0.67931 0.0
C218 C 0.49124 0.16811 0.66163 0.0
C219 C 0.52129 0.04552 0.58334 0.0
O220 O 0.47623 0.07817 0.67615 0.0
O221 O 0.44567 0.02644 0.65165 0.0
O222 O 0.48433 0.1382 0.579 0.0
O223 O 0.44291 0.09597 0.59902 0.0
Co224 Co 0.86868 0.51742 0.61568 0.0
O225 O 0.84585 0.54477 0.6581 0.0
O226 O 0.84171 0.48247 0.64962 0.0
C227 C 0.92677 0.54566 0.62082 0.0
O228 O 0.88966 0.47854 0.57752 0.0
Co229 Co 0.90313 0.55831 0.54396 0.0
O230 O 0.9294 0.50859 0.53672 0.0
C231 C 0.82009 0.53957 0.54629 0.0
C232 C 0.83539 0.51178 0.67162 0.0
C233 C 0.91562 0.4782 0.55138 0.0
O234 O 0.82244 0.52569 0.58081 0.0
O235 O 0.84833 0.55463 0.52847 0.0
O236 O 0.91798 0.51685 0.64263 0.0
O237 O 0.89972 0.5579 0.59899 0.0
Co238 Co 0.1327 0.98174 0.61462 0.0
O239 O 0.15511 0.95573 0.65825 0.0
O240 O 0.15861 0.01786 0.64784 0.0
C241 C 0.07478 0.953 0.61945 0.0
O242 O 0.1118 0.01922 0.57489 0.0
Co243 Co 0.101 0.93756 0.54379 0.0
O244 O 0.07486 0.98699 0.53332 0.0
C245 C 0.18407 0.95353 0.54967 0.0
C246 C 0.16499 0.98915 0.67083 0.0
C247 C 0.08704 0.01811 0.54768 0.0
O248 O 0.17968 0.97322 0.58081 0.0
O249 O 0.15711 0.93507 0.53331 0.0
O250 O 0.0828 0.98232 0.64063 0.0
O251 O 0.10255 0.9405 0.59878 0.0
Co252 Co 0.86868 0.48696 0.89124 0.0
O253 O 0.84602 0.46021 0.84843 0.0
O254 O 0.84261 0.52253 0.85718 0.0
C255 C 0.92641 0.45772 0.88679 0.0
O256 O 0.88964 0.52526 0.92991 0.0
Co257 Co 0.90156 0.44495 0.96318 0.0
O258 O 0.92799 0.49431 0.97143 0.0
C259 C 0.81884 0.46509 0.95974 0.0
C260 C 0.83601 0.49341 0.83503 0.0
C261 C 0.91496 0.525 0.95664 0.0
O262 O 0.82187 0.47926 0.92541 0.0
O263 O 0.84659 0.44939 0.97782 0.0
O264 O 0.91842 0.48679 0.86498 0.0
O265 O 0.89883 0.44586 0.90814 0.0
Co266 Co 0.13316 0.01926 0.89049 0.0
O267 O 0.1553 0.04482 0.84645 0.0
O268 O 0.15799 0.98264 0.85686 0.0
C269 C 0.07569 0.04916 0.88683 0.0
O270 O 0.11237 0.98221 0.93066 0.0
Co271 Co 0.10338 0.06411 0.96192 0.0
O272 O 0.07687 0.01512 0.97311 0.0
C273 C 0.18601 0.04656 0.95434 0.0
C274 C 0.16463 0.01124 0.8338 0.0
C275 C 0.08826 0.98379 0.95846 0.0
O276 O 0.18081 0.02693 0.92333 0.0
O277 O 0.15967 0.0655 0.97126 0.0
O278 O 0.08278 0.01968 0.86547 0.0
O279 O 0.10404 0.06108 0.90692 0.0
Co280 Co 0.61387 0.86659 0.51877 0.0
O281 O 0.65743 0.84485 0.54528 0.0
O282 O 0.64787 0.84088 0.48297 0.0
C283 C 0.61758 0.92478 0.54707 0.0
O284 O 0.57418 0.88685 0.48091 0.0
Co285 Co 0.54243 0.89753 0.56273 0.0
O286 O 0.53223 0.92357 0.51307 0.0
C287 C 0.54901 0.81465 0.5461 0.0
C288 C 0.67054 0.83492 0.51197 0.0
C289 C 0.54676 0.91138 0.48192 0.0
O290 O 0.5808 0.81919 0.52748 0.0
O291 O 0.53166 0.84145 0.56392 0.0
O292 O 0.63909 0.91679 0.51785 0.0
O293 O 0.59729 0.89682 0.55983 0.0
Co294 Co 0.6136 0.13385 0.98255 0.0
O295 O 0.65703 0.15613 0.95624 0.0
O296 O 0.64723 0.15943 0.01859 0.0
C297 C 0.61777 0.07595 0.95363 0.0
O298 O 0.57424 0.11301 0.02037 0.0
Co299 Co 0.54231 0.10281 0.93877 0.0
O300 O 0.53263 0.07611 0.98822 0.0
C301 C 0.54845 0.18572 0.95542 0.0
C302 C 0.66993 0.16582 0.98969 0.0
C303 C 0.54719 0.08817 0.01937 0.0
O304 O 0.58005 0.18114 0.97435 0.0
O305 O 0.53151 0.15893 0.93727 0.0
O306 O 0.63925 0.08377 0.98287 0.0
O307 O 0.5972 0.10391 0.94125 0.0
Co308 Co 0.38691 0.37035 0.98241 0.0
O309 O 0.34365 0.34802 0.95619 0.0
O310 O 0.35374 0.34391 0.01847 0.0
C311 C 0.38181 0.42861 0.95389 0.0
O312 O 0.42609 0.39103 0.0202 0.0
Co313 Co 0.45755 0.40323 0.93861 0.0
O314 O 0.46737 0.42888 0.98838 0.0
C315 C 0.45246 0.31981 0.95413 0.0
C316 C 0.33093 0.33786 0.98967 0.0
C317 C 0.45294 0.41609 0.01942 0.0
O318 O 0.42108 0.32364 0.97363 0.0
O319 O 0.46865 0.34724 0.93596 0.0
O320 O 0.36063 0.42011 0.98325 0.0
O321 O 0.40273 0.40113 0.94125 0.0
Co322 Co 0.88935 0.13502 0.01987 0.0
O323 O 0.84527 0.15681 0.04535 0.0
O324 O 0.85583 0.16021 0.98311 0.0
C325 C 0.88556 0.07712 0.04923 0.0
O326 O 0.92968 0.1146 0.98294 0.0
Co327 Co 0.96021 0.10481 0.06549 0.0
O328 O 0.97183 0.0789 0.01625 0.0
C329 C 0.95283 0.18765 0.04833 0.0
C330 C 0.83268 0.16639 0.01167 0.0
C331 C 0.95748 0.09054 0.98473 0.0
O332 O 0.92206 0.18263 0.02825 0.0
O333 O 0.96947 0.1611 0.06741 0.0
O334 O 0.86445 0.08462 0.01956 0.0
O335 O 0.90544 0.10535 0.0617 0.0
C336 C 0.03821 0.06293 0.52141 0.0
C337 C 0.07675 0.05358 0.52755 0.0
H338 H 0.99819 0.09394 0.48662 0.0
C339 C 0.10521 0.0735 0.50747 0.0
H340 H 0.01584 0.04759 0.53645 0.0
C341 C 0.09512 0.09884 0.47812 0.0
C342 C 0.05651 0.10548 0.46945 0.0
H343 H 0.13509 0.06636 0.51154 0.0
H344 H 0.1174 0.11046 0.45991 0.0
C345 C 0.02816 0.08958 0.49311 0.0
C346 C 0.90469 0.40007 0.48045 0.0
C347 C 0.94307 0.39254 0.47153 0.0
H348 H 0.86581 0.43256 0.51484 0.0
C349 C 0.97187 0.40602 0.49599 0.0
H350 H 0.8821 0.39023 0.46171 0.0
C351 C 0.96268 0.43169 0.52528 0.0
C352 C 0.92449 0.44234 0.53155 0.0
H353 H 0.00169 0.40089 0.48938 0.0
H354 H 0.98554 0.44561 0.5408 0.0
C355 C 0.89541 0.42435 0.51075 0.0
C356 C 0.09606 0.90374 0.02881 0.0
C357 C 0.05742 0.89724 0.0374 0.0
H358 H 0.13616 0.93583 0.99523 0.0
C359 C 0.02916 0.913 0.01353 0.0
H360 H 0.11826 0.89222 0.0472 0.0
C361 C 0.03932 0.93935 0.985 0.0
C362 C 0.07789 0.94853 0.97887 0.0
H363 H 0.99917 0.90876 0.01996 0.0
H364 H 0.01702 0.95461 0.96975 0.0
C365 C 0.10627 0.92878 0.99927 0.0
C366 C 0.90453 0.6026 0.02827 0.0
C367 C 0.94296 0.6099 0.037 0.0
H368 H 0.86543 0.57057 0.99385 0.0
C369 C 0.97164 0.59633 0.01236 0.0
H370 H 0.88203 0.6125 0.04716 0.0
C371 C 0.96227 0.57093 0.98294 0.0
C372 C 0.92403 0.5606 0.97675 0.0
H373 H 0.0015 0.60124 0.01885 0.0
H374 H 0.98503 0.55696 0.96721 0.0
C375 C 0.89507 0.57858 0.99785 0.0
C376 C 0.4777 0.09611 0.0999 0.0
C377 C 0.46913 0.05747 0.10658 0.0
H378 H 0.511 0.13618 0.06747 0.0
C379 C 0.49293 0.02916 0.09097 0.0
H380 H 0.45939 0.11836 0.1113 0.0
C381 C 0.52125 0.03928 0.06446 0.0
C382 C 0.52726 0.07786 0.05499 0.0
H383 H 0.48654 0.99917 0.09538 0.0
H384 H 0.53638 0.01694 0.04925 0.0
C385 C 0.50706 0.10628 0.07471 0.0
C386 C 0.52238 0.40699 0.09981 0.0
C387 C 0.53049 0.44556 0.10713 0.0
H388 H 0.48963 0.36736 0.06668 0.0
C389 C 0.50636 0.47397 0.09204 0.0
H390 H 0.54093 0.38469 0.11083 0.0
C391 C 0.47826 0.4642 0.06528 0.0
C392 C 0.47277 0.4258 0.05513 0.0
H393 H 0.51238 0.50393 0.09696 0.0
H394 H 0.4629 0.48673 0.05045 0.0
C395 C 0.49322 0.39712 0.07442 0.0
C396 C 0.50534 0.89247 0.42799 0.0
C397 C 0.52629 0.9211 0.44648 0.0
H398 H 0.45668 0.88009 0.39296 0.0
C399 C 0.5202 0.95954 0.43643 0.0
H400 H 0.50928 0.86269 0.43578 0.0
C401 C 0.49122 0.96938 0.41056 0.0
C402 C 0.4669 0.94098 0.39615 0.0
H403 H 0.53582 0.98204 0.45078 0.0
H404 H 0.48489 0.99934 0.40572 0.0
C405 C 0.47538 0.90239 0.40343 0.0
C406 C 0.49439 0.60555 0.42874 0.0
C407 C 0.47384 0.57649 0.44727 0.0
H408 H 0.5427 0.61877 0.39339 0.0
C409 C 0.47988 0.53827 0.4367 0.0
H410 H 0.49039 0.63517 0.43684 0.0
C411 C 0.50861 0.52903 0.41037 0.0
C412 C 0.53279 0.55779 0.39614 0.0
H413 H 0.46448 0.51545 0.45099 0.0
H414 H 0.51502 0.49918 0.40518 0.0
C415 C 0.52415 0.5962 0.40378 0.0
C416 C 0.09108 0.49431 0.02936 0.0
C417 C 0.10601 0.47046 0.05816 0.0
H418 H 0.05037 0.53844 0.01617 0.0
C419 C 0.09923 0.4795 0.09675 0.0
H420 H 0.09555 0.48757 0.9994 0.0
C421 C 0.07463 0.50947 0.10635 0.0
C422 C 0.05554 0.52983 0.07742 0.0
H423 H 0.11013 0.46118 0.11937 0.0
H424 H 0.06723 0.51374 0.1362 0.0
C425 C 0.06515 0.52327 0.03891 0.0
C426 C 0.06649 0.47785 0.46907 0.0
C427 C 0.0564 0.47145 0.43068 0.0
H428 H 0.09751 0.51325 0.50818 0.0
C429 C 0.07546 0.49146 0.4015 0.0
H430 H 0.05179 0.46287 0.49198 0.0
C431 C 0.10035 0.52119 0.41078 0.0
C432 C 0.10742 0.53027 0.44927 0.0
H433 H 0.06775 0.48722 0.37174 0.0
H434 H 0.11108 0.53941 0.38801 0.0
C435 C 0.09276 0.50651 0.47828 0.0
C436 C 0.91043 0.98962 0.47454 0.0
C437 C 0.89625 0.96543 0.44587 0.0
H438 H 0.95059 0.03402 0.48772 0.0
C439 C 0.90374 0.97406 0.40727 0.0
H440 H 0.90539 0.98317 0.50453 0.0
C441 C 0.92836 0.00396 0.39762 0.0
C442 C 0.94669 0.02469 0.42656 0.0
H443 H 0.89341 0.95547 0.38477 0.0
H444 H 0.93628 0.00804 0.36784 0.0
C445 C 0.93641 0.01852 0.46499 0.0
C446 C 0.40748 0.50933 0.52798 0.0
C447 C 0.39302 0.53271 0.55724 0.0
H448 H 0.44774 0.46519 0.51384 0.0
C449 C 0.3999 0.52274 0.59563 0.0
H450 H 0.40288 0.51678 0.49816 0.0
C451 C 0.42428 0.49236 0.6046 0.0
C452 C 0.44305 0.47252 0.57523 0.0
H453 H 0.38933 0.54067 0.61859 0.0
H454 H 0.43187 0.48739 0.63433 0.0
C455 C 0.43321 0.47995 0.5369 0.0
C456 C 0.6009 0.5772 0.00717 0.0
C457 C 0.57168 0.55889 0.02768 0.0
H458 H 0.61462 0.6116 0.95814 0.0
C459 C 0.53348 0.56909 0.0208 0.0
H460 H 0.63052 0.56931 0.01176 0.0
C461 C 0.52449 0.59475 0.99125 0.0
C462 C 0.55353 0.60863 0.96716 0.0
H463 H 0.51055 0.55489 0.0361 0.0
H464 H 0.49472 0.5996 0.98422 0.0
C465 C 0.59184 0.60145 0.97661 0.0
C466 C 0.39854 0.92726 0.00662 0.0
C467 C 0.42736 0.94666 0.02647 0.0
H468 H 0.38563 0.89096 0.95909 0.0
C469 C 0.46574 0.9368 0.02017 0.0
H470 H 0.36878 0.93478 0.01087 0.0
C471 C 0.47529 0.91024 0.99183 0.0
C472 C 0.44661 0.89507 0.96825 0.0
H473 H 0.48837 0.95173 0.03507 0.0
H474 H 0.50517 0.90555 0.98515 0.0
C475 C 0.40814 0.90206 0.97721 0.0
C476 C 0.52673 0.40713 0.50962 0.0
C477 C 0.55556 0.3928 0.5337 0.0
H478 H 0.51309 0.4479 0.4655 0.0
C479 C 0.59394 0.40014 0.52469 0.0
H480 H 0.4969 0.40213 0.51631 0.0
C481 C 0.60323 0.42505 0.49475 0.0
C482 C 0.57415 0.44382 0.47442 0.0
H483 H 0.61656 0.38964 0.54316 0.0
H484 H 0.63287 0.43303 0.49058 0.0
C485 C 0.53593 0.43342 0.48071 0.0
C486 C 0.40666 0.09864 0.52335 0.0
C487 C 0.4452 0.10556 0.53193 0.0
H488 H 0.36705 0.06559 0.49051 0.0
C489 C 0.47371 0.08993 0.50836 0.0
H490 H 0.38428 0.11011 0.54147 0.0
C491 C 0.46396 0.06294 0.48053 0.0
C492 C 0.42553 0.05314 0.4747 0.0
H493 H 0.50363 0.09458 0.51475 0.0
H494 H 0.48648 0.04768 0.46569 0.0
C495 C 0.39685 0.07301 0.49442 0.0
C496 C 0.02021 0.53463 0.57164 0.0
C497 C 0.02709 0.57277 0.56105 0.0
H498 H 0.9836 0.49604 0.60226 0.0
C499 C 0.00641 0.60212 0.57885 0.0
H500 H 0.03562 0.51158 0.55783 0.0
C501 C 0.97578 0.5932 0.60294 0.0
C502 C 0.96641 0.55492 0.61051 0.0
H503 H 0.01096 0.63169 0.57064 0.0
H504 H 0.95725 0.61605 0.61268 0.0
C505 C 0.99058 0.5258 0.59714 0.0
C506 C 0.98204 0.96242 0.5684 0.0
C507 C 0.97559 0.92407 0.55861 0.0
H508 H 0.01792 0.00176 0.59857 0.0
C509 C 0.9964 0.89517 0.57718 0.0
H510 H 0.96656 0.98513 0.55397 0.0
C511 C 0.02664 0.9047 0.60143 0.0
C512 C 0.03551 0.94317 0.60837 0.0
H513 H 0.99222 0.86546 0.56957 0.0
H514 H 0.04523 0.88217 0.6119 0.0
C515 C 0.0113 0.97188 0.59399 0.0
C516 C 0.01861 0.46662 0.93841 0.0
C517 C 0.02474 0.42823 0.94859 0.0
H518 H 0.98338 0.50619 0.90732 0.0
C519 C 0.00412 0.39946 0.92997 0.0
H520 H 0.03405 0.48922 0.9528 0.0
C521 C 0.97429 0.40919 0.9052 0.0
C522 C 0.96567 0.44772 0.89783 0.0
H523 H 0.00818 0.36971 0.93779 0.0
H524 H 0.95575 0.38678 0.89468 0.0
C525 C 0.98981 0.47627 0.91227 0.0
C526 C 0.01249 0.03169 0.91389 0.0
C527 C 0.03686 0.05983 0.89879 0.0
H528 H 0.96812 0.01958 0.95471 0.0
C529 C 0.02886 0.09851 0.90579 0.0
H530 H 0.01849 0.00166 0.90929 0.0
C531 C 0.99924 0.10879 0.93058 0.0
C532 C 0.97816 0.08042 0.94958 0.0
H533 H 0.04763 0.12061 0.89481 0.0
H534 H 0.99559 0.13863 0.93801 0.0
C535 C 0.98385 0.04189 0.93998 0.0
C536 C 0.56679 0.01773 0.53618 0.0
C537 C 0.5566 0.02466 0.57447 0.0
H538 H 0.59717 0.98123 0.49741 0.0
C539 C 0.57446 0.00382 0.60385 0.0
H540 H 0.55286 0.0332 0.51311 0.0
C541 C 0.59852 0.97324 0.59484 0.0
C542 C 0.60599 0.96404 0.55644 0.0
H543 H 0.5665 0.00834 0.63352 0.0
H544 H 0.60855 0.95475 0.61773 0.0
C545 C 0.59218 0.98812 0.52726 0.0
C546 C 0.59321 0.01211 0.97277 0.0
C547 C 0.60655 0.0367 0.94381 0.0
H548 H 0.5545 0.96651 0.9866 0.0
C549 C 0.59894 0.02794 0.90534 0.0
H550 H 0.59829 0.01865 1.00266 0.0
C551 C 0.57518 0.99727 0.89611 0.0
C552 C 0.55775 0.97586 0.92533 0.0
H553 H 0.60861 0.04682 0.88263 0.0
H554 H 0.56705 0.99311 0.86644 0.0
C555 C 0.56812 0.98237 0.96363 0.0
C556 C 0.43192 0.52162 0.96388 0.0
C557 C 0.44194 0.52851 0.92548 0.0
H558 H 0.40183 0.48514 0.0031 0.0
C559 C 0.42369 0.50794 0.89636 0.0
H560 H 0.44609 0.53692 0.98676 0.0
C561 C 0.39964 0.47746 0.90574 0.0
C562 C 0.39256 0.46811 0.94426 0.0
H563 H 0.43146 0.51246 0.8666 0.0
H564 H 0.38945 0.45904 0.88303 0.0
C565 C 0.40653 0.49211 0.97318 0.0
C566 C 0.90451 0.02949 0.09818 0.0
C567 C 0.89753 0.03812 0.05948 0.0
H568 H 0.93649 0.99543 0.13806 0.0
C569 C 0.91246 0.01409 0.03099 0.0
H570 H 0.89363 0.04798 0.12054 0.0
C571 C 0.93834 0.98516 0.04091 0.0
C572 C 0.94791 0.97882 0.0795 0.0
H573 H 0.90786 0.02056 1.00095 0.0
H574 H 0.95295 0.96968 0.01838 0.0
C575 C 0.92908 0.99957 0.10817 0.0
C576 C 0.96683 0.22667 0.32909 0.0
C577 C 0.00375 0.21073 0.32992 0.0
H578 H 0.93288 0.27771 0.33113 0.0
C579 C 0.03527 0.23559 0.32725 0.0
H580 H 0.94188 0.20848 0.33106 0.0
C581 C 0.03012 0.27538 0.32727 0.0
C582 C 0.99331 0.29134 0.33001 0.0
H583 H 0.06414 0.22438 0.32765 0.0
H584 H 0.05516 0.29354 0.32777 0.0
C585 C 0.96168 0.2665 0.32915 0.0
C586 C 0.03067 0.72756 0.17984 0.0
C587 C 0.99387 0.71164 0.17746 0.0
H588 H 0.06461 0.77851 0.17897 0.0
C589 C 0.96221 0.73657 0.17832 0.0
H590 H 0.05572 0.70934 0.17931 0.0
C591 C 0.9673 0.7764 0.1781 0.0
C592 C 0.00419 0.79228 0.17698 0.0
H593 H 0.93341 0.7254 0.17662 0.0
H594 H 0.94232 0.79462 0.17618 0.0
C595 C 0.03576 0.76736 0.1796 0.0
C596 C 0.32669 0.03616 0.23563 0.0
C597 C 0.32898 0.00474 0.21061 0.0
H598 H 0.32703 0.0556 0.29386 0.0
C599 C 0.32724 0.96772 0.22639 0.0
H600 H 0.3278 0.0651 0.22454 0.0
C601 C 0.3268 0.96227 0.26627 0.0
C602 C 0.32804 0.99371 0.29134 0.0
H603 H 0.32886 0.94285 0.20805 0.0
H604 H 0.32805 0.93334 0.27739 0.0
C605 C 0.3262 0.03071 0.27551 0.0
C606 C 0.67298 0.4659 0.23599 0.0
C607 C 0.67043 0.49772 0.21125 0.0
H608 H 0.67316 0.44549 0.29405 0.0
C609 C 0.67221 0.53448 0.22735 0.0
H610 H 0.67183 0.43714 0.22466 0.0
C611 C 0.67299 0.53927 0.26728 0.0
C612 C 0.67203 0.50742 0.2921 0.0
H613 H 0.6704 0.55965 0.20925 0.0
H614 H 0.67176 0.56801 0.27866 0.0
C615 C 0.6738 0.47069 0.27591 0.0
C616 C 0.26472 0.32713 0.96379 0.0
C617 C 0.2898 0.32808 0.99534 0.0
H618 H 0.20664 0.32967 0.94424 0.0
C619 C 0.27407 0.32628 0.03242 0.0
H620 H 0.27574 0.32838 0.93479 0.0
C621 C 0.23432 0.32706 0.03783 0.0
C622 C 0.2093 0.32959 0.0063 0.0
H623 H 0.29242 0.32692 0.05739 0.0
H624 H 0.22334 0.32816 0.06684 0.0
C625 C 0.22496 0.32785 0.9692 0.0
C626 C 0.22577 0.67424 0.53552 0.0
C627 C 0.20967 0.67194 0.49867 0.0
H628 H 0.27694 0.67418 0.56924 0.0
C629 C 0.2343 0.67405 0.46677 0.0
H630 H 0.20776 0.67278 0.56076 0.0
C631 C 0.27412 0.67492 0.47163 0.0
C632 C 0.29029 0.67361 0.50851 0.0
H633 H 0.22297 0.67251 0.43794 0.0
H634 H 0.29217 0.67388 0.44642 0.0
C635 C 0.26557 0.67503 0.54038 0.0
C636 C 0.7363 0.82336 0.53883 0.0
C637 C 0.71175 0.82505 0.50686 0.0
H638 H 0.79404 0.82482 0.5594 0.0
C639 C 0.72811 0.82358 0.47005 0.0
H640 H 0.72479 0.82431 0.56764 0.0
C641 C 0.76797 0.82387 0.46534 0.0
C642 C 0.79248 0.8256 0.49731 0.0
H643 H 0.71019 0.8248 0.44477 0.0
H644 H 0.77946 0.82522 0.43653 0.0
C645 C 0.77615 0.82361 0.53411 0.0
C646 C 0.46444 0.76757 0.82486 0.0
C647 C 0.49648 0.79181 0.82718 0.0
H648 H 0.44348 0.70995 0.82506 0.0
C649 C 0.53305 0.7752 0.82532 0.0
H650 H 0.4358 0.77929 0.82605 0.0
C651 C 0.53744 0.73528 0.82471 0.0
C652 C 0.50538 0.71097 0.82592 0.0
H653 H 0.55837 0.79288 0.82697 0.0
H654 H 0.56607 0.72352 0.82587 0.0
C655 C 0.46883 0.72767 0.82421 0.0
C656 C 0.53774 0.26512 0.67504 0.0
C657 C 0.50584 0.28974 0.67403 0.0
H658 H 0.55827 0.20734 0.67252 0.0
C659 C 0.46918 0.2734 0.67578 0.0
H660 H 0.56644 0.27661 0.67382 0.0
C661 C 0.46451 0.23355 0.67501 0.0
C662 C 0.49637 0.20902 0.67252 0.0
H663 H 0.44395 0.29137 0.67509 0.0
H664 H 0.43579 0.22212 0.67387 0.0
C665 C 0.53307 0.22526 0.6743 0.0
C666 C 0.82378 0.53487 0.77713 0.0
C667 C 0.82536 0.49826 0.79389 0.0
H668 H 0.82501 0.56792 0.72526 0.0
C669 C 0.8231 0.46622 0.76966 0.0
H670 H 0.82537 0.5602 0.79482 0.0
C671 C 0.82286 0.47063 0.72965 0.0
C672 C 0.82493 0.5072 0.71286 0.0
H673 H 0.82408 0.43756 0.7815 0.0
H674 H 0.82376 0.44527 0.71196 0.0
C675 C 0.82359 0.53929 0.73711 0.0
C676 C 0.17704 0.03168 0.7276 0.0
C677 C 0.17515 0.99473 0.71196 0.0
H678 H 0.17585 0.0659 0.77843 0.0
C679 C 0.1766 0.96321 0.73719 0.0
H680 H 0.17604 0.05662 0.70913 0.0
C681 C 0.17645 0.96852 0.77706 0.0
C682 C 0.17484 0.00549 0.79269 0.0
H683 H 0.17532 0.93432 0.72623 0.0
H684 H 0.17503 0.94359 0.79553 0.0
C685 C 0.17688 0.03698 0.76747 0.0
C686 C 0.77581 0.17738 0.96872 0.0
C687 C 0.79157 0.17625 0.00578 0.0
H688 H 0.72497 0.17563 0.9345 0.0
C689 C 0.76654 0.17837 0.03736 0.0
H690 H 0.79412 0.17583 0.94372 0.0
C691 C 0.72677 0.17825 0.03209 0.0
C692 C 0.711 0.17598 0.9951 0.0
H693 H 0.77759 0.17769 0.06635 0.0
H694 H 0.70848 0.17741 0.05714 0.0
C695 C 0.73602 0.17723 0.96344 0.0
C696 C 0.08024 0.98859 0.23823 0.0
C697 C 0.04579 0.97468 0.22313 0.0
H698 H 0.10717 0.02371 0.2805 0.0
C699 C 0.01108 0.98796 0.23848 0.0
H700 H 0.10736 0.97956 0.22627 0.0
C701 C 0.01096 0.01472 0.26846 0.0
C702 C 0.04556 0.02823 0.28374 0.0
H703 H 0.98413 0.97862 0.2265 0.0
H704 H 0.98394 0.02389 0.28052 0.0
C705 C 0.08012 0.01453 0.26857 0.0
C706 C 0.96376 0.46146 0.25288 0.0
C707 C 0.96273 0.47947 0.28862 0.0
H708 H 0.96348 0.46842 0.19198 0.0
C709 C 0.96313 0.51989 0.28977 0.0
H710 H 0.96369 0.43055 0.25096 0.0
C711 C 0.96349 0.54176 0.25603 0.0
C712 C 0.96276 0.52373 0.2203 0.0
H713 H 0.96295 0.53479 0.31694 0.0
H714 H 0.96318 0.57267 0.25793 0.0
C715 C 0.96343 0.48332 0.21915 0.0
C716 C 0.23637 0.01131 0.99109 0.0
C717 C 0.22293 0.04557 0.97468 0.0
H718 H 0.27721 0.98496 0.02911 0.0
C719 C 0.24026 0.08015 0.98507 0.0
H720 H 0.22256 0.98442 0.98453 0.0
C721 C 0.27101 0.08051 0.01058 0.0
C722 C 0.28437 0.04642 0.02735 0.0
H723 H 0.22967 0.10702 0.97371 0.0
H724 H 0.28455 0.10754 0.01714 0.0
C725 C 0.26677 0.01174 0.01742 0.0
C726 C 0.71311 0.4681 0.98385 0.0
C727 C 0.71371 0.46738 0.02438 0.0
H728 H 0.74558 0.46853 0.93153 0.0
C729 C 0.74902 0.46841 0.04313 0.0
H730 H 0.68624 0.46797 0.96844 0.0
C731 C 0.78295 0.46828 0.02182 0.0
C732 C 0.78235 0.46781 0.98129 0.0
H733 H 0.75047 0.46811 0.07415 0.0
H734 H 0.80981 0.46827 0.03723 0.0
C735 C 0.74703 0.46865 0.96255 0.0
C736 C 0.2661 0.91954 0.48849 0.0
C737 C 0.28174 0.95408 0.47517 0.0
H738 H 0.2232 0.89244 0.52301 0.0
C739 C 0.26672 0.98872 0.48895 0.0
H740 H 0.27783 0.89245 0.47911 0.0
C741 C 0.23653 0.98869 0.51559 0.0
C742 C 0.22066 0.95402 0.52846 0.0
H743 H 0.27913 0.0157 0.48008 0.0
H744 H 0.22482 0.01569 0.52519 0.0
C745 C 0.23551 0.91952 0.51427 0.0
C746 C 0.78492 0.53712 0.48369 0.0
C747 C 0.78384 0.53716 0.52423 0.0
H748 H 0.75308 0.53737 0.43099 0.0
C749 C 0.74827 0.53583 0.54253 0.0
H750 H 0.81197 0.53751 0.46856 0.0
C751 C 0.71461 0.53619 0.52085 0.0
C752 C 0.71568 0.5372 0.48032 0.0
H753 H 0.7464 0.5356 0.57353 0.0
H754 H 0.68756 0.53587 0.53597 0.0
C755 C 0.75125 0.53679 0.46199 0.0
C756 C 0.01108 0.27121 0.08257 0.0
C757 C 0.02646 0.28551 0.04818 0.0
H758 H 0.97513 0.22932 0.10937 0.0
C759 C 0.01485 0.26915 0.01333 0.0
H760 H 0.01887 0.28386 0.10977 0.0
C761 C 0.98831 0.23899 0.01302 0.0
C762 C 0.97338 0.2245 0.04758 0.0
H763 H 0.02539 0.28042 0.98635 0.0
H764 H 0.98048 0.22615 0.98593 0.0
C765 C 0.98538 0.24066 0.08231 0.0
C766 C 0.04132 0.74892 0.46789 0.0
C767 C 0.02289 0.71347 0.46681 0.0
H768 H 0.03506 0.80971 0.4675 0.0
C769 C 0.98249 0.71265 0.46706 0.0
H770 H 0.07223 0.75056 0.46795 0.0
C771 C 0.96102 0.74648 0.46729 0.0
C772 C 0.97948 0.78193 0.46656 0.0
H773 H 0.9673 0.68569 0.46687 0.0
H774 H 0.93011 0.74487 0.46685 0.0
C775 C 0.01987 0.78274 0.46742 0.0
C776 C 0.507 0.76787 0.51261 0.0
C777 C 0.52842 0.7779 0.54516 0.0
H778 H 0.465 0.72995 0.48858 0.0
C779 C 0.52264 0.75763 0.5794 0.0
H780 H 0.50989 0.78413 0.48627 0.0
C781 C 0.49684 0.72717 0.58088 0.0
C782 C 0.47526 0.71694 0.54844 0.0
H783 H 0.53772 0.76576 0.60523 0.0
H784 H 0.49377 0.71144 0.60753 0.0
C785 C 0.48053 0.73769 0.51425 0.0
C786 C 0.53561 0.48203 0.78593 0.0
C787 C 0.5359 0.52245 0.78439 0.0
H788 H 0.53575 0.4292 0.75461 0.0
C789 C 0.53483 0.54041 0.74849 0.0
H790 H 0.53579 0.46716 0.81323 0.0
C791 C 0.53525 0.51849 0.71497 0.0
C792 C 0.53607 0.47808 0.71651 0.0
H793 H 0.53479 0.57131 0.74628 0.0
H794 H 0.53515 0.53335 0.68766 0.0
C795 C 0.53535 0.4601 0.7524 0.0
C796 C 0.46556 0.01917 0.78519 0.0
C797 C 0.46503 0.97876 0.78435 0.0
H798 H 0.46553 0.07165 0.75292 0.0
C799 C 0.46589 0.96038 0.74882 0.0
H800 H 0.46555 0.03429 0.81224 0.0
C801 C 0.46541 0.98194 0.71492 0.0
C802 C 0.46477 0.02235 0.71577 0.0
H803 H 0.46573 0.92946 0.74719 0.0
H804 H 0.4653 0.96682 0.68787 0.0
C805 C 0.46578 0.04073 0.75129 0.0
C806 C 0.48287 0.26477 0.98931 0.0
C807 C 0.47418 0.28341 0.95459 0.0
H808 H 0.51512 0.22005 0.01706 0.0
C809 C 0.49251 0.27118 0.92088 0.0
H810 H 0.46996 0.27423 0.01587 0.0
C811 C 0.51838 0.24068 0.92163 0.0
C812 C 0.5276 0.22244 0.9563 0.0
H813 H 0.48689 0.28543 0.89382 0.0
H814 H 0.53093 0.23099 0.89497 0.0
C815 C 0.50953 0.23463 0.99017 0.0
loop_
_geom_bond_atom_site_label_1
_geom_bond_atom_site_label_2
_geom_bond_distance
_geom_bond_site_symmetry_2
_ccdc_geom_bond_type
Co0 O1 2.216 1_655 S
Co0 O2 2.091 . S
Co0 O4 2.004 . S
Co0 O10 2.021 . S
Co0 O12 2.137 1_655 S
Co0 O13 2.244 1_655 S
O1 Co0 2.216 1_455 S
O1 C8 1.247 1_455 S
O2 Co0 2.091 . S
O2 C8 1.261 . S
C3 O12 1.247 . S
C3 O13 1.272 . S
O4 Co0 2.004 . S
O4 C9 1.259 . S
Co5 O6 2.061 1_445 S
Co5 O11 2.052 . S
Co5 O13 2.134 . S
O6 Co5 2.061 1_665 S
O6 C9 1.230 1_565 S
C7 O10 1.238 1_455 S
C7 O11 1.241 . S
C8 O1 1.247 1_655 S
C8 O2 1.261 . S
C9 O4 1.259 . S
C9 O6 1.230 1_545 S
O10 Co0 2.021 . S
O10 C7 1.238 1_655 S
O11 Co5 2.052 . S
O11 C7 1.241 . S
O12 Co0 2.137 1_455 S
O12 C3 1.247 . S
O13 Co0 2.244 1_455 S
O13 C3 1.272 . S
O13 Co5 2.134 . S
Co14 O15 2.216 1_455 S
Co14 O16 2.091 . S
Co14 O18 2.004 . S
Co14 O24 2.021 . S
Co14 O26 2.137 1_455 S
Co14 O27 2.244 1_455 S
O15 Co14 2.216 1_655 S
O15 C22 1.247 1_655 S
O16 Co14 2.091 . S
O16 C22 1.261 . S
C17 O26 1.247 . S
C17 O27 1.272 . S
O18 Co14 2.004 . S
O18 C23 1.259 . S
Co19 O20 2.061 1_655 S
Co19 O25 2.052 . S
Co19 O27 2.135 . S
O20 Co19 2.061 1_455 S
O20 C23 1.235 . S
C21 O24 1.238 1_655 S
C21 O25 1.241 . S
C22 O15 1.247 1_455 S
C22 O16 1.261 . S
C23 O18 1.259 . S
C23 O20 1.235 . S
O24 Co14 2.021 . S
O24 C21 1.238 1_455 S
O25 Co19 2.052 . S
O25 C21 1.241 . S
O26 Co14 2.137 1_655 S
O26 C17 1.247 . S
O27 Co14 2.244 1_655 S
O27 C17 1.272 . S
O27 Co19 2.135 . S
Co28 O29 2.216 1_655 S
Co28 O30 2.091 . S
Co28 O32 2.004 . S
Co28 O38 2.021 . S
Co28 O40 2.137 1_655 S
Co28 O41 2.244 1_655 S
O29 Co28 2.216 1_455 S
O29 C36 1.247 1_455 S
O30 Co28 2.091 . S
O30 C36 1.261 . S
C31 O40 1.247 . S
C31 O41 1.272 . S
O32 Co28 2.004 . S
O32 C37 1.259 . S
Co33 O34 2.061 1_455 S
Co33 O39 2.052 . S
Co33 O41 2.135 . S
O34 Co33 2.061 1_655 S
O34 C37 1.235 . S
C35 O38 1.238 1_455 S
C35 O39 1.241 . S
C36 O29 1.247 1_655 S
C36 O30 1.261 . S
C37 O32 1.259 . S
C37 O34 1.235 . S
O38 Co28 2.021 . S
O38 C35 1.238 1_655 S
O39 Co33 2.052 . S
O39 C35 1.241 . S
O40 Co28 2.137 1_455 S
O40 C31 1.247 . S
O41 Co28 2.244 1_455 S
O41 C31 1.272 . S
O41 Co33 2.135 . S
Co42 O43 2.216 1_455 S
Co42 O44 2.091 . S
Co42 O46 2.004 . S
Co42 O52 2.021 . S
Co42 O54 2.137 1_455 S
Co42 O55 2.244 1_455 S
O43 Co42 2.216 1_655 S
O43 C50 1.247 1_655 S
O44 Co42 2.091 . S
O44 C50 1.261 . S
C45 O54 1.247 . S
C45 O55 1.272 . S
O46 Co42 2.004 . S
O46 C51 1.259 . S
Co47 O48 2.061 1_655 S
Co47 O53 2.052 . S
Co47 O55 2.135 . S
O48 Co47 2.061 1_455 S
O48 C51 1.235 . S
C49 O52 1.238 1_655 S
C49 O53 1.241 . S
C50 O43 1.247 1_455 S
C50 O44 1.261 . S
C51 O46 1.259 . S
C51 O48 1.235 . S
O52 Co42 2.021 . S
O52 C49 1.238 1_455 S
O53 Co47 2.052 . S
O53 C49 1.241 . S
O54 Co42 2.137 1_655 S
O54 C45 1.247 . S
O55 Co42 2.244 1_655 S
O55 C45 1.272 . S
O55 Co47 2.135 . S
Co56 O57 2.216 1_565 S
Co56 O58 2.091 . S
Co56 O60 2.004 . S
Co56 O66 2.021 . S
Co56 O68 2.137 1_565 S
Co56 O69 2.244 1_565 S
O57 Co56 2.216 1_545 S
O57 C64 1.247 1_545 S
O58 Co56 2.091 . S
O58 C64 1.261 . S
C59 O68 1.247 . S
C59 O69 1.272 . S
O60 Co56 2.004 . S
O60 C65 1.259 . S
Co61 O62 2.061 1_544 S
Co61 O67 2.052 . S
Co61 O69 2.134 . S
O62 Co61 2.061 1_566 S
O62 C65 1.230 1_556 S
C63 O66 1.238 1_545 S
C63 O67 1.241 . S
C64 O57 1.247 1_565 S
C64 O58 1.261 . S
C65 O60 1.259 . S
C65 O62 1.230 1_554 S
O66 Co56 2.021 . S
O66 C63 1.238 1_565 S
O67 Co61 2.052 . S
O67 C63 1.241 . S
O68 Co56 2.137 1_545 S
O68 C59 1.247 . S
O69 Co56 2.244 1_545 S
O69 C59 1.272 . S
O69 Co61 2.134 . S
Co70 O71 2.216 . S
Co70 O72 2.091 . S
Co70 O74 2.004 . S
Co70 O80 2.021 . S
Co70 O82 2.137 . S
Co70 O83 2.244 . S
O71 Co70 2.216 . S
O71 C78 1.247 . S
O72 Co70 2.091 . S
O72 C78 1.261 . S
C73 O82 1.247 . S
C73 O83 1.272 . S
O74 Co70 2.004 . S
O74 C79 1.259 . S
Co75 O76 2.063 . S
Co75 O81 2.063 . S
Co75 O83 2.156 . S
O76 Co75 2.063 . S
O76 C79 1.235 . S
C77 O80 1.238 . S
C77 O81 1.241 . S
C78 O71 1.247 . S
C78 O72 1.261 . S
C79 O74 1.259 . S
C79 O76 1.235 . S
O80 Co70 2.021 . S
O80 C77 1.238 . S
O81 Co75 2.063 . S
O81 C77 1.241 . S
O82 Co70 2.137 . S
O82 C73 1.247 . S
O83 Co70 2.244 . S
O83 C73 1.272 . S
O83 Co75 2.156 . S
Co84 O85 2.216 1_545 S
Co84 O86 2.091 . S
Co84 O88 2.004 . S
Co84 O94 2.021 . S
Co84 O96 2.137 1_545 S
Co84 O97 2.244 1_545 S
O85 Co84 2.216 1_565 S
O85 C92 1.247 1_565 S
O86 Co84 2.091 . S
O86 C92 1.261 . S
C87 O96 1.247 . S
C87 O97 1.272 . S
O88 Co84 2.004 . S
O88 C93 1.259 . S
Co89 O90 2.061 1_565 S
Co89 O95 2.052 . S
Co89 O97 2.135 . S
O90 Co89 2.061 1_545 S
O90 C93 1.235 . S
C91 O94 1.238 1_565 S
C91 O95 1.241 . S
C92 O85 1.247 1_545 S
C92 O86 1.261 . S
C93 O88 1.259 . S
C93 O90 1.235 . S
O94 Co84 2.021 . S
O94 C91 1.238 1_545 S
O95 Co89 2.052 . S
O95 C91 1.241 . S
O96 Co84 2.137 1_565 S
O96 C87 1.247 . S
O97 Co84 2.244 1_565 S
O97 C87 1.272 . S
O97 Co89 2.135 . S
Co98 O99 2.216 . S
Co98 O100 2.091 . S
Co98 O102 2.004 . S
Co98 O108 2.021 . S
Co98 O110 2.137 . S
Co98 O111 2.244 . S
O99 Co98 2.216 . S
O99 C106 1.247 . S
O100 Co98 2.091 . S
O100 C106 1.261 . S
C101 O110 1.247 . S
C101 O111 1.272 . S
O102 Co98 2.004 . S
O102 C107 1.259 . S
Co103 O104 2.061 . S
Co103 O109 2.052 . S
Co103 O111 2.135 . S
O104 Co103 2.061 . S
O104 C107 1.235 . S
C105 O108 1.238 . S
C105 O109 1.241 . S
C106 O99 1.247 . S
C106 O100 1.261 . S
C107 O102 1.259 . S
C107 O104 1.235 . S
O108 Co98 2.021 . S
O108 C105 1.238 . S
O109 Co103 2.052 . S
O109 C105 1.241 . S
O110 Co98 2.137 . S
O110 C101 1.247 . S
O111 Co98 2.244 . S
O111 C101 1.272 . S
O111 Co103 2.135 . S
Co112 O113 2.216 1_556 S
Co112 O114 2.091 . S
Co112 O116 2.004 . S
Co112 O122 2.021 . S
Co112 O124 2.137 1_556 S
Co112 O125 2.244 1_556 S
O113 Co112 2.216 1_554 S
O113 C120 1.247 1_554 S
O114 Co112 2.091 . S
O114 C120 1.261 . S
C115 O124 1.247 . S
C115 O125 1.272 . S
O116 Co112 2.004 . S
O116 C121 1.259 . S
Co117 O118 2.061 1_454 S
Co117 O123 2.052 . S
Co117 O125 2.134 . S
O118 Co117 2.061 1_656 S
O118 C121 1.230 1_655 S
C119 O122 1.238 1_554 S
C119 O123 1.241 . S
C120 O113 1.247 1_556 S
C120 O114 1.261 . S
C121 O116 1.259 . S
C121 O118 1.230 1_455 S
O122 Co112 2.021 . S
O122 C119 1.238 1_556 S
O123 Co117 2.052 . S
O123 C119 1.241 . S
O124 Co112 2.137 1_554 S
O124 C115 1.247 . S
O125 Co112 2.244 1_554 S
O125 C115 1.272 . S
O125 Co117 2.134 . S
Co126 O127 2.216 . S
Co126 O128 2.091 . S
Co126 O130 2.004 . S
Co126 O136 2.021 . S
Co126 O138 2.137 . S
Co126 O139 2.244 . S
O127 Co126 2.216 . S
O127 C134 1.247 . S
O128 Co126 2.091 . S
O128 C134 1.261 . S
C129 O138 1.247 . S
C129 O139 1.272 . S
O130 Co126 2.004 . S
O130 C135 1.259 . S
Co131 O132 2.063 . S
Co131 O137 2.063 . S
Co131 O139 2.156 . S
O132 Co131 2.063 . S
O132 C135 1.235 . S
C133 O136 1.238 . S
C133 O137 1.241 . S
C134 O127 1.247 . S
C134 O128 1.261 . S
C135 O130 1.259 . S
C135 O132 1.235 . S
O136 Co126 2.021 . S
O136 C133 1.238 . S
O137 Co131 2.063 . S
O137 C133 1.241 . S
O138 Co126 2.137 . S
O138 C129 1.247 . S
O139 Co126 2.244 . S
O139 C129 1.272 . S
O139 Co131 2.156 . S
Co140 O141 2.216 . S
Co140 O142 2.091 . S
Co140 O144 2.004 . S
Co140 O150 2.021 . S
Co140 O152 2.137 . S
Co140 O153 2.244 . S
O141 Co140 2.216 . S
O141 C148 1.247 . S
O142 Co140 2.091 . S
O142 C148 1.261 . S
C143 O152 1.247 . S
C143 O153 1.272 . S
O144 Co140 2.004 . S
O144 C149 1.259 . S
Co145 O146 2.061 . S
Co145 O151 2.052 . S
Co145 O153 2.135 . S
O146 Co145 2.061 . S
O146 C149 1.235 . S
C147 O150 1.238 . S
C147 O151 1.241 . S
C148 O141 1.247 . S
C148 O142 1.261 . S
C149 O144 1.259 . S
C149 O146 1.235 . S
O150 Co140 2.021 . S
O150 C147 1.238 . S
O151 Co145 2.052 . S
O151 C147 1.241 . S
O152 Co140 2.137 . S
O152 C143 1.247 . S
O153 Co140 2.244 . S
O153 C143 1.272 . S
O153 Co145 2.135 . S
Co154 O155 2.216 . S
Co154 O156 2.091 . S
Co154 O158 2.004 . S
Co154 O164 2.021 . S
Co154 O166 2.137 . S
Co154 O167 2.244 . S
O155 Co154 2.216 . S
O155 C162 1.247 . S
O156 Co154 2.091 . S
O156 C162 1.261 . S
C157 O166 1.247 . S
C157 O167 1.272 . S
O158 Co154 2.004 . S
O158 C163 1.259 . S
Co159 O160 2.061 . S
Co159 O165 2.052 . S
Co159 O167 2.135 . S
O160 Co159 2.061 . S
O160 C163 1.235 . S
C161 O164 1.238 . S
C161 O165 1.241 . S
C162 O155 1.247 . S
C162 O156 1.261 . S
C163 O158 1.259 . S
C163 O160 1.235 . S
O164 Co154 2.021 . S
O164 C161 1.238 . S
O165 Co159 2.052 . S
O165 C161 1.241 . S
O166 Co154 2.137 . S
O166 C157 1.247 . S
O167 Co154 2.244 . S
O167 C157 1.272 . S
O167 Co159 2.135 . S
Co168 O169 2.216 . S
Co168 O170 2.091 . S
Co168 O172 2.004 . S
Co168 O178 2.021 . S
Co168 O180 2.137 . S
Co168 O181 2.244 . S
O169 Co168 2.216 . S
O169 C176 1.247 . S
O170 Co168 2.091 . S
O170 C176 1.261 . S
C171 O180 1.247 . S
C171 O181 1.272 . S
O172 Co168 2.004 . S
O172 C177 1.259 . S
Co173 O174 2.061 . S
Co173 O179 2.052 . S
Co173 O181 2.135 . S
O174 Co173 2.061 . S
O174 C177 1.235 . S
C175 O178 1.238 . S
C175 O179 1.241 . S
C176 O169 1.247 . S
C176 O170 1.261 . S
C177 O172 1.259 . S
C177 O174 1.235 . S
O178 Co168 2.021 . S
O178 C175 1.238 . S
O179 Co173 2.052 . S
O179 C175 1.241 . S
O180 Co168 2.137 . S
O180 C171 1.247 . S
O181 Co168 2.244 . S
O181 C171 1.272 . S
O181 Co173 2.135 . S
Co182 O183 2.216 . S
Co182 O184 2.091 . S
Co182 O186 2.004 . S
Co182 O192 2.021 . S
Co182 O194 2.137 . S
Co182 O195 2.244 . S
O183 Co182 2.216 . S
O183 C190 1.247 . S
O184 Co182 2.091 . S
O184 C190 1.261 . S
C185 O194 1.247 . S
C185 O195 1.272 . S
O186 Co182 2.004 . S
O186 C191 1.259 . S
Co187 O188 2.061 . S
Co187 O193 2.052 . S
Co187 O195 2.135 . S
O188 Co187 2.061 . S
O188 C191 1.235 . S
C189 O192 1.238 . S
C189 O193 1.241 . S
C190 O183 1.247 . S
C190 O184 1.261 . S
C191 O186 1.259 . S
C191 O188 1.235 . S
O192 Co182 2.021 . S
O192 C189 1.238 . S
O193 Co187 2.052 . S
O193 C189 1.241 . S
O194 Co182 2.137 . S
O194 C185 1.247 . S
O195 Co182 2.244 . S
O195 C185 1.272 . S
O195 Co187 2.135 . S
Co196 O197 2.216 . S
Co196 O198 2.091 . S
Co196 O200 2.004 . S
Co196 O206 2.021 . S
Co196 O208 2.137 . S
Co196 O209 2.244 . S
O197 Co196 2.216 . S
O197 C204 1.247 . S
O198 Co196 2.091 . S
O198 C204 1.261 . S
C199 O208 1.247 . S
C199 O209 1.272 . S
O200 Co196 2.004 . S
O200 C205 1.259 . S
Co201 O202 2.061 . S
Co201 O207 2.052 . S
Co201 O209 2.135 . S
O202 Co201 2.061 . S
O202 C205 1.235 . S
C203 O206 1.238 . S
C203 O207 1.241 . S
C204 O197 1.247 . S
C204 O198 1.261 . S
C205 O200 1.259 . S
C205 O202 1.235 . S
O206 Co196 2.021 . S
O206 C203 1.238 . S
O207 Co201 2.052 . S
O207 C203 1.241 . S
O208 Co196 2.137 . S
O208 C199 1.247 . S
O209 Co196 2.244 . S
O209 C199 1.272 . S
O209 Co201 2.135 . S
Co210 O211 2.216 . S
Co210 O212 2.091 . S
Co210 O214 2.004 . S
Co210 O220 2.021 . S
Co210 O222 2.137 . S
Co210 O223 2.244 . S
O211 Co210 2.216 . S
O211 C218 1.247 . S
O212 Co210 2.091 . S
O212 C218 1.261 . S
C213 O222 1.247 . S
C213 O223 1.272 . S
O214 Co210 2.004 . S
O214 C219 1.259 . S
Co215 O216 2.063 . S
Co215 O221 2.063 . S
Co215 O223 2.156 . S
O216 Co215 2.063 . S
O216 C219 1.235 . S
C217 O220 1.238 . S
C217 O221 1.241 . S
C218 O211 1.247 . S
C218 O212 1.261 . S
C219 O214 1.259 . S
C219 O216 1.235 . S
O220 Co210 2.021 . S
O220 C217 1.238 . S
O221 Co215 2.063 . S
O221 C217 1.241 . S
O222 Co210 2.137 . S
O222 C213 1.247 . S
O223 Co210 2.244 . S
O223 C213 1.272 . S
O223 Co215 2.156 . S
Co224 O225 2.216 . S
Co224 O226 2.091 . S
Co224 O228 2.004 . S
Co224 O234 2.021 . S
Co224 O236 2.137 . S
Co224 O237 2.244 . S
O225 Co224 2.216 . S
O225 C232 1.247 . S
O226 Co224 2.091 . S
O226 C232 1.261 . S
C227 O236 1.247 . S
C227 O237 1.272 . S
O228 Co224 2.004 . S
O228 C233 1.259 . S
Co229 O230 2.061 . S
Co229 O235 2.052 . S
Co229 O237 2.135 . S
O230 Co229 2.061 . S
O230 C233 1.235 . S
C231 O234 1.238 . S
C231 O235 1.241 . S
C232 O225 1.247 . S
C232 O226 1.261 . S
C233 O228 1.259 . S
C233 O230 1.235 . S
O234 Co224 2.021 . S
O234 C231 1.238 . S
O235 Co229 2.052 . S
O235 C231 1.241 . S
O236 Co224 2.137 . S
O236 C227 1.247 . S
O237 Co224 2.244 . S
O237 C227 1.272 . S
O237 Co229 2.135 . S
Co238 O239 2.216 1_545 S
Co238 O240 2.091 . S
Co238 O242 2.004 . S
Co238 O248 2.021 . S
Co238 O250 2.137 1_545 S
Co238 O251 2.244 1_545 S
O239 Co238 2.216 1_565 S
O239 C246 1.247 1_565 S
O240 Co238 2.091 . S
O240 C246 1.261 . S
C241 O250 1.247 . S
C241 O251 1.272 . S
O242 Co238 2.004 . S
O242 C247 1.259 . S
Co243 O244 2.061 1_565 S
Co243 O249 2.052 . S
Co243 O251 2.135 . S
O244 Co243 2.061 1_545 S
O244 C247 1.235 . S
C245 O248 1.238 1_565 S
C245 O249 1.241 . S
C246 O239 1.247 1_545 S
C246 O240 1.261 . S
C247 O242 1.259 . S
C247 O244 1.235 . S
O248 Co238 2.021 . S
O248 C245 1.238 1_545 S
O249 Co243 2.052 . S
O249 C245 1.241 . S
O250 Co238 2.137 1_565 S
O250 C241 1.247 . S
O251 Co238 2.244 1_565 S
O251 C241 1.272 . S
O251 Co243 2.135 . S
Co252 O253 2.216 . S
Co252 O254 2.091 . S
Co252 O256 2.004 . S
Co252 O262 2.021 . S
Co252 O264 2.137 . S
Co252 O265 2.244 . S
O253 Co252 2.216 . S
O253 C260 1.247 . S
O254 Co252 2.091 . S
O254 C260 1.261 . S
C255 O264 1.247 . S
C255 O265 1.272 . S
O256 Co252 2.004 . S
O256 C261 1.259 . S
Co257 O258 2.061 . S
Co257 O263 2.052 . S
Co257 O265 2.135 . S
O258 Co257 2.061 . S
O258 C261 1.235 . S
C259 O262 1.238 . S
C259 O263 1.241 . S
C260 O253 1.247 . S
C260 O254 1.261 . S
C261 O256 1.259 . S
C261 O258 1.235 . S
O262 Co252 2.021 . S
O262 C259 1.238 . S
O263 Co257 2.052 . S
O263 C259 1.241 . S
O264 Co252 2.137 . S
O264 C255 1.247 . S
O265 Co252 2.244 . S
O265 C255 1.272 . S
O265 Co257 2.135 . S
Co266 O267 2.216 1_565 S
Co266 O268 2.091 . S
Co266 O270 2.004 . S
Co266 O276 2.021 . S
Co266 O278 2.137 1_565 S
Co266 O279 2.244 1_565 S
O267 Co266 2.216 1_545 S
O267 C274 1.247 1_545 S
O268 Co266 2.091 . S
O268 C274 1.261 . S
C269 O278 1.247 . S
C269 O279 1.272 . S
O270 Co266 2.004 . S
O270 C275 1.259 . S
Co271 O272 2.061 1_545 S
Co271 O277 2.052 . S
Co271 O279 2.135 . S
O272 Co271 2.061 1_565 S
O272 C275 1.235 . S
C273 O276 1.238 1_545 S
C273 O277 1.241 . S
C274 O267 1.247 1_565 S
C274 O268 1.261 . S
C275 O270 1.259 . S
C275 O272 1.235 . S
O276 Co266 2.021 . S
O276 C273 1.238 1_565 S
O277 Co271 2.052 . S
O277 C273 1.241 . S
O278 Co266 2.137 1_545 S
O278 C269 1.247 . S
O279 Co266 2.244 1_545 S
O279 C269 1.272 . S
O279 Co271 2.135 . S
Co280 O281 2.216 . S
Co280 O282 2.091 . S
Co280 O284 2.004 . S
Co280 O290 2.021 . S
Co280 O292 2.137 . S
Co280 O293 2.244 . S
O281 Co280 2.216 . S
O281 C288 1.247 . S
O282 Co280 2.091 . S
O282 C288 1.261 . S
C283 O292 1.247 . S
C283 O293 1.272 . S
O284 Co280 2.004 . S
O284 C289 1.259 . S
Co285 O286 2.061 . S
Co285 O291 2.052 . S
Co285 O293 2.135 . S
O286 Co285 2.061 . S
O286 C289 1.235 . S
C287 O290 1.238 . S
C287 O291 1.241 . S
C288 O281 1.247 . S
C288 O282 1.261 . S
C289 O284 1.259 . S
C289 O286 1.235 . S
O290 Co280 2.021 . S
O290 C287 1.238 . S
O291 Co285 2.052 . S
O291 C287 1.241 . S
O292 Co280 2.137 . S
O292 C283 1.247 . S
O293 Co280 2.244 . S
O293 C283 1.272 . S
O293 Co285 2.135 . S
Co294 O295 2.216 1_554 S
Co294 O296 2.091 . S
Co294 O298 2.004 . S
Co294 O304 2.021 . S
Co294 O306 2.137 1_554 S
Co294 O307 2.244 1_554 S
O295 Co294 2.216 1_556 S
O295 C302 1.247 1_556 S
O296 Co294 2.091 . S
O296 C302 1.261 . S
C297 O306 1.247 . S
C297 O307 1.272 . S
O298 Co294 2.004 . S
O298 C303 1.259 . S
Co299 O300 2.061 1_556 S
Co299 O305 2.052 . S
Co299 O307 2.135 . S
O300 Co299 2.061 1_554 S
O300 C303 1.235 . S
C301 O304 1.238 1_556 S
C301 O305 1.241 . S
C302 O295 1.247 1_554 S
C302 O296 1.261 . S
C303 O298 1.259 . S
C303 O300 1.235 . S
O304 Co294 2.021 . S
O304 C301 1.238 1_554 S
O305 Co299 2.052 . S
O305 C301 1.241 . S
O306 Co294 2.137 1_556 S
O306 C297 1.247 . S
O307 Co294 2.244 1_556 S
O307 C297 1.272 . S
O307 Co299 2.135 . S
Co308 O309 2.216 1_554 S
Co308 O310 2.091 . S
Co308 O312 2.004 . S
Co308 O318 2.021 . S
Co308 O320 2.137 1_554 S
Co308 O321 2.244 1_554 S
O309 Co308 2.216 1_556 S
O309 C316 1.247 1_556 S
O310 Co308 2.091 . S
O310 C316 1.261 . S
C311 O320 1.247 . S
C311 O321 1.272 . S
O312 Co308 2.004 . S
O312 C317 1.259 . S
Co313 O314 2.061 1_556 S
Co313 O319 2.052 . S
Co313 O321 2.135 . S
O314 Co313 2.061 1_554 S
O314 C317 1.235 . S
C315 O318 1.238 1_556 S
C315 O319 1.241 . S
C316 O309 1.247 1_554 S
C316 O310 1.261 . S
C317 O312 1.259 . S
C317 O314 1.235 . S
O318 Co308 2.021 . S
O318 C315 1.238 1_554 S
O319 Co313 2.052 . S
O319 C315 1.241 . S
O320 Co308 2.137 1_556 S
O320 C311 1.247 . S
O321 Co308 2.244 1_556 S
O321 C311 1.272 . S
O321 Co313 2.135 . S
Co322 O323 2.216 1_556 S
Co322 O324 2.091 . S
Co322 O326 2.004 . S
Co322 O332 2.021 . S
Co322 O334 2.137 1_556 S
Co322 O335 2.244 1_556 S
O323 Co322 2.216 1_554 S
O323 C330 1.247 1_554 S
O324 Co322 2.091 . S
O324 C330 1.261 . S
C325 O334 1.247 . S
C325 O335 1.272 . S
O326 Co322 2.004 . S
O326 C331 1.259 . S
Co327 O328 2.061 1_554 S
Co327 O333 2.052 . S
Co327 O335 2.135 . S
O328 Co327 2.061 1_556 S
O328 C331 1.235 . S
C329 O332 1.238 1_554 S
C329 O333 1.241 . S
C330 O323 1.247 1_556 S
C330 O324 1.261 . S
C331 O326 1.259 . S
C331 O328 1.235 . S
O332 Co322 2.021 . S
O332 C329 1.238 1_556 S
O333 Co327 2.052 . S
O333 C329 1.241 . S
O334 Co322 2.137 1_554 S
O334 C325 1.247 . S
O335 Co322 2.244 1_554 S
O335 C325 1.272 . S
O335 Co327 2.135 . S
C336 C337 1.387 . S
C336 H340 0.950 . S
C336 C345 1.390 . S
C337 C336 1.387 . S
C337 C339 1.387 . S
H338 C345 0.950 . S
C339 C337 1.387 . S
C339 C341 1.390 . S
C339 H343 0.950 . S
H340 C336 0.950 . S
C341 C339 1.390 . S
C341 C342 1.387 . S
C341 H344 0.950 . S
C342 C341 1.387 . S
C342 C345 1.387 . S
H343 C339 0.950 . S
H344 C341 0.950 . S
C345 C336 1.390 . S
C345 H338 0.950 . S
C345 C342 1.387 . S
C346 C347 1.387 . S
C346 H350 0.950 . S
C346 C355 1.390 . S
C347 C346 1.387 . S
C347 C349 1.387 . S
H348 C355 0.950 . S
C349 C347 1.387 . S
C349 C351 1.390 . S
C349 H353 0.950 . S
H350 C346 0.950 . S
C351 C349 1.390 . S
C351 C352 1.387 . S
C351 H354 0.950 . S
C352 C351 1.387 . S
C352 C355 1.387 . S
H353 C349 0.950 . S
H354 C351 0.950 . S
C355 C346 1.390 . S
C355 H348 0.950 . S
C355 C352 1.387 . S
C356 C357 1.387 . S
C356 H360 0.950 . S
C356 C365 1.390 . S
C357 C356 1.387 . S
C357 C359 1.387 . S
H358 C365 0.944 1_556 S
C359 C357 1.387 . S
C359 C361 1.390 . S
C359 H363 0.950 . S
H360 C356 0.950 . S
C361 C359 1.390 . S
C361 C362 1.387 1_554 S
C361 H364 0.950 . S
C362 C361 1.387 1_556 S
C362 C365 1.387 1_556 S
H363 C359 0.950 . S
H364 C361 0.950 . S
C365 C356 1.390 . S
C365 H358 0.944 1_554 S
C365 C362 1.387 1_554 S
C366 C367 1.387 . S
C366 H370 0.950 . S
C366 C375 1.390 . S
C367 C366 1.387 . S
C367 C369 1.387 . S
H368 C375 0.950 . S
C369 C367 1.387 . S
C369 C371 1.390 . S
C369 H373 0.950 . S
H370 C366 0.950 . S
C371 C369 1.390 . S
C371 C372 1.387 1_554 S
C371 H374 0.950 1_554 S
C372 C371 1.387 1_556 S
C372 C375 1.387 1_556 S
H373 C369 0.950 . S
H374 C371 0.950 1_556 S
C375 C366 1.390 . S
C375 H368 0.950 . S
C375 C372 1.387 1_554 S
C376 C377 1.387 . S
C376 H380 0.950 . S
C376 C385 1.390 . S
C377 C376 1.387 . S
C377 C379 1.387 . S
H378 C385 0.950 . S
C379 C377 1.387 . S
C379 C381 1.390 . S
C379 H383 0.950 . S
H380 C376 0.950 . S
C381 C379 1.390 . S
C381 C382 1.387 . S
C381 H384 0.950 . S
C382 C381 1.387 . S
C382 C385 1.387 . S
H383 C379 0.950 . S
H384 C381 0.950 . S
C385 C376 1.390 . S
C385 H378 0.950 . S
C385 C382 1.387 . S
C386 C387 1.387 . S
C386 H390 0.950 . S
C386 C395 1.390 . S
C387 C386 1.387 . S
C387 C389 1.387 . S
H388 C395 0.950 . S
C389 C387 1.387 . S
C389 C391 1.390 . S
C389 H393 0.950 . S
H390 C386 0.950 . S
C391 C389 1.390 . S
C391 C392 1.387 . S
C391 H394 0.950 . S
C392 C391 1.387 . S
C392 C395 1.387 . S
H393 C389 0.950 . S
H394 C391 0.950 . S
C395 C386 1.390 . S
C395 H388 0.950 . S
C395 C392 1.387 . S
C396 C397 1.387 . S
C396 H400 0.950 . S
C396 C405 1.390 . S
C397 C396 1.387 . S
C397 C399 1.387 . S
H398 C405 0.950 . S
C399 C397 1.387 . S
C399 C401 1.390 . S
C399 H403 0.950 . S
H400 C396 0.950 . S
C401 C399 1.390 . S
C401 C402 1.387 . S
C401 H404 0.950 . S
C402 C401 1.387 . S
C402 C405 1.387 . S
H403 C399 0.950 . S
H404 C401 0.950 . S
C405 C396 1.390 . S
C405 H398 0.950 . S
C405 C402 1.387 . S
C406 C407 1.387 . S
C406 H410 0.950 . S
C406 C415 1.390 . S
C407 C406 1.387 . S
C407 C409 1.387 . S
H408 C415 0.950 . S
C409 C407 1.387 . S
C409 C411 1.390 . S
C409 H413 0.950 . S
H410 C406 0.950 . S
C411 C409 1.390 . S
C411 C412 1.387 . S
C411 H414 0.950 . S
C412 C411 1.387 . S
C412 C415 1.387 . S
H413 C409 0.950 . S
H414 C411 0.950 . S
C415 C406 1.390 . S
C415 H408 0.950 . S
C415 C412 1.387 . S
C416 C417 1.387 . S
C416 H420 0.950 . S
C416 C425 1.390 . S
C417 C416 1.387 . S
C417 C419 1.387 . S
H418 C425 0.950 . S
C419 C417 1.387 . S
C419 C421 1.390 . S
C419 H423 0.950 . S
H420 C416 0.950 . S
C421 C419 1.390 . S
C421 C422 1.387 . S
C421 H424 0.950 . S
C422 C421 1.387 . S
C422 C425 1.387 . S
H423 C419 0.950 . S
H424 C421 0.950 . S
C425 C416 1.390 . S
C425 H418 0.950 . S
C425 C422 1.387 . S
C426 C427 1.387 . S
C426 H430 0.950 . S
C426 C435 1.390 . S
C427 C426 1.387 . S
C427 C429 1.387 . S
H428 C435 0.950 . S
C429 C427 1.387 . S
C429 C431 1.390 . S
C429 H433 0.950 . S
H430 C426 0.950 . S
C431 C429 1.390 . S
C431 C432 1.387 . S
C431 H434 0.950 . S
C432 C431 1.387 . S
C432 C435 1.387 . S
H433 C429 0.950 . S
H434 C431 0.950 . S
C435 C426 1.390 . S
C435 H428 0.950 . S
C435 C432 1.387 . S
C436 C437 1.387 . S
C436 H440 0.950 . S
C436 C445 1.390 . S
C437 C436 1.387 . S
C437 C439 1.387 . S
H438 C445 0.950 1_545 S
C439 C437 1.387 . S
C439 C441 1.390 . S
C439 H443 0.950 . S
H440 C436 0.950 . S
C441 C439 1.390 . S
C441 C442 1.380 1_565 S
C441 H444 0.950 . S
C442 C441 1.380 1_545 S
C442 C445 1.383 1_545 S
H443 C439 0.950 . S
H444 C441 0.950 . S
C445 C436 1.390 . S
C445 H438 0.950 1_565 S
C445 C442 1.383 1_565 S
C446 C447 1.387 . S
C446 H450 0.950 . S
C446 C455 1.390 . S
C447 C446 1.387 . S
C447 C449 1.387 . S
H448 C455 0.950 . S
C449 C447 1.387 . S
C449 C451 1.390 . S
C449 H453 0.950 . S
H450 C446 0.950 . S
C451 C449 1.390 . S
C451 C452 1.387 . S
C451 H454 0.950 . S
C452 C451 1.387 . S
C452 C455 1.387 . S
H453 C449 0.950 . S
H454 C451 0.950 . S
C455 C446 1.390 . S
C455 H448 0.950 . S
C455 C452 1.387 . S
C456 C457 1.387 1_556 S
C456 H460 0.950 . S
C456 C465 1.390 . S
C457 C456 1.387 1_554 S
C457 C459 1.387 1_554 S
H458 C465 0.950 . S
C459 C457 1.387 1_556 S
C459 C461 1.390 . S
C459 H463 0.950 1_556 S
H460 C456 0.950 . S
C461 C459 1.390 . S
C461 C462 1.387 . S
C461 H464 0.950 . S
C462 C461 1.387 . S
C462 C465 1.387 . S
H463 C459 0.950 1_554 S
H464 C461 0.950 . S
C465 C456 1.390 . S
C465 H458 0.950 . S
C465 C462 1.387 . S
C466 C467 1.382 1_556 S
C466 H470 0.950 1_556 S
C466 C475 1.390 . S
C467 C466 1.382 1_554 S
C467 C469 1.375 1_554 S
H468 C475 0.950 . S
C469 C467 1.375 1_556 S
C469 C471 1.390 . S
C469 H473 0.950 . S
H470 C466 0.950 1_554 S
C471 C469 1.390 . S
C471 C472 1.387 . S
C471 H474 0.950 . S
C472 C471 1.387 . S
C472 C475 1.387 . S
H473 C469 0.950 . S
H474 C471 0.950 . S
C475 C466 1.390 . S
C475 H468 0.950 . S
C475 C472 1.387 . S
C476 C477 1.387 . S
C476 H480 0.950 . S
C476 C485 1.390 . S
C477 C476 1.387 . S
C477 C479 1.387 . S
H478 C485 0.950 . S
C479 C477 1.387 . S
C479 C481 1.390 . S
C479 H483 0.950 . S
H480 C476 0.950 . S
C481 C479 1.390 . S
C481 C482 1.387 . S
C481 H484 0.950 . S
C482 C481 1.387 . S
C482 C485 1.387 . S
H483 C479 0.950 . S
H484 C481 0.950 . S
C485 C476 1.390 . S
C485 H478 0.950 . S
C485 C482 1.387 . S
C486 C487 1.387 . S
C486 H490 0.950 . S
C486 C495 1.390 . S
C487 C486 1.387 . S
C487 C489 1.387 . S
H488 C495 0.950 . S
C489 C487 1.387 . S
C489 C491 1.390 . S
C489 H493 0.950 . S
H490 C486 0.950 . S
C491 C489 1.390 . S
C491 C492 1.387 . S
C491 H494 0.950 . S
C492 C491 1.387 . S
C492 C495 1.387 . S
H493 C489 0.950 . S
H494 C491 0.950 . S
C495 C486 1.390 . S
C495 H488 0.950 . S
C495 C492 1.387 . S
C496 C497 1.387 1_655 S
C496 H500 0.946 1_655 S
C496 C505 1.390 . S
C497 C496 1.387 1_455 S
C497 C499 1.387 1_455 S
H498 C505 0.950 . S
C499 C497 1.387 1_655 S
C499 C501 1.390 . S
C499 H503 0.961 . S
H500 C496 0.946 1_455 S
C501 C499 1.390 . S
C501 C502 1.387 . S
C501 H504 0.950 . S
C502 C501 1.387 . S
C502 C505 1.387 . S
H503 C499 0.961 . S
H504 C501 0.950 . S
C505 C496 1.390 . S
C505 H498 0.950 . S
C505 C502 1.387 . S
C506 C507 1.387 1_455 S
C506 H510 0.950 1_455 S
C506 C515 1.390 . S
C507 C506 1.387 1_655 S
C507 C509 1.387 1_655 S
H508 C515 0.950 . S
C509 C507 1.387 1_455 S
C509 C511 1.390 . S
C509 H513 0.950 1_455 S
H510 C506 0.950 1_655 S
C511 C509 1.390 . S
C511 C512 1.387 . S
C511 H514 0.950 . S
C512 C511 1.387 . S
C512 C515 1.387 . S
H513 C509 0.950 1_655 S
H514 C511 0.950 . S
C515 C506 1.390 . S
C515 H508 0.950 . S
C515 C512 1.387 . S
C516 C517 1.382 1_655 S
C516 H520 0.961 . S
C516 C525 1.390 . S
C517 C516 1.382 1_455 S
C517 C519 1.380 1_455 S
H518 C525 0.950 . S
C519 C517 1.380 1_655 S
C519 C521 1.390 . S
C519 H523 0.950 . S
H520 C516 0.961 . S
C521 C519 1.390 . S
C521 C522 1.387 . S
C521 H524 0.950 . S
C522 C521 1.387 . S
C522 C525 1.387 . S
H523 C519 0.950 . S
H524 C521 0.950 . S
C525 C516 1.390 . S
C525 H518 0.950 . S
C525 C522 1.387 . S
C526 C527 1.387 . S
C526 H530 0.950 . S
C526 C535 1.390 . S
C527 C526 1.387 . S
C527 C529 1.387 . S
H528 C535 0.950 1_655 S
C529 C527 1.387 . S
C529 C531 1.390 . S
C529 H533 0.950 . S
H530 C526 0.950 . S
C531 C529 1.390 . S
C531 C532 1.387 1_455 S
C531 H534 0.950 . S
C532 C531 1.387 1_655 S
C532 C535 1.387 1_655 S
H533 C529 0.950 . S
H534 C531 0.950 . S
C535 C526 1.390 . S
C535 H528 0.950 1_455 S
C535 C532 1.387 1_455 S
C536 C537 1.387 1_565 S
C536 H540 0.950 1_565 S
C536 C545 1.390 . S
C537 C536 1.387 1_545 S
C537 C539 1.387 1_545 S
H538 C545 0.950 . S
C539 C537 1.387 1_565 S
C539 C541 1.390 . S
C539 H543 0.950 . S
H540 C536 0.950 1_545 S
C541 C539 1.390 . S
C541 C542 1.387 . S
C541 H544 0.950 . S
C542 C541 1.387 . S
C542 C545 1.387 . S
H543 C539 0.950 . S
H544 C541 0.950 . S
C545 C536 1.390 . S
C545 H538 0.950 . S
C545 C542 1.387 . S
C546 C547 1.387 . S
C546 H550 0.950 . S
C546 C555 1.390 . S
C547 C546 1.387 . S
C547 C549 1.387 . S
H548 C555 0.950 1_565 S
C549 C547 1.387 . S
C549 C551 1.390 . S
C549 H553 0.950 . S
H550 C546 0.950 . S
C551 C549 1.390 . S
C551 C552 1.387 1_545 S
C551 H554 0.950 . S
C552 C551 1.387 1_565 S
C552 C555 1.387 1_565 S
H553 C549 0.950 . S
H554 C551 0.950 . S
C555 C546 1.390 . S
C555 H548 0.950 1_545 S
C555 C552 1.387 1_545 S
C556 C557 1.387 . S
C556 H560 0.950 . S
C556 C565 1.390 . S
C557 C556 1.387 . S
C557 C559 1.387 . S
H558 C565 0.950 . S
C559 C557 1.387 . S
C559 C561 1.390 . S
C559 H563 0.950 . S
H560 C556 0.950 . S
C561 C559 1.390 . S
C561 C562 1.387 . S
C561 H564 0.950 . S
C562 C561 1.387 . S
C562 C565 1.387 . S
H563 C559 0.950 . S
H564 C561 0.950 . S
C565 C556 1.390 . S
C565 H558 0.950 . S
C565 C562 1.387 . S
C566 C567 1.387 . S
C566 H570 0.950 . S
C566 C575 1.390 . S
C567 C566 1.387 . S
C567 C569 1.387 . S
H568 C575 0.950 . S
C569 C567 1.387 . S
C569 C571 1.390 . S
C569 H573 0.950 . S
H570 C566 0.950 . S
C571 C569 1.390 . S
C571 C572 1.387 1_545 S
C571 H574 0.950 1_545 S
C572 C571 1.387 1_565 S
C572 C575 1.387 1_565 S
H573 C569 0.950 . S
H574 C571 0.950 1_565 S
C575 C566 1.390 . S
C575 H568 0.950 . S
C575 C572 1.387 1_545 S
C576 C577 1.387 . S
C576 H580 0.950 . S
C576 C585 1.390 1_655 S
C577 C576 1.387 . S
C577 C579 1.390 . S
H578 C585 0.950 . S
C579 C577 1.390 . S
C579 C581 1.387 1_655 S
C579 H583 0.952 . S
H580 C576 0.950 . S
C581 C579 1.387 1_455 S
C581 C582 1.387 . S
C581 H584 0.950 . S
C582 C581 1.387 . S
C582 C585 1.387 . S
H583 C579 0.952 . S
H584 C581 0.950 . S
C585 C576 1.390 1_455 S
C585 H578 0.950 . S
C585 C582 1.387 . S
C586 C587 1.387 . S
C586 H590 0.950 . S
C586 C595 1.390 . S
C587 C586 1.387 . S
C587 C589 1.387 1_455 S
H588 C595 0.950 . S
C589 C587 1.387 1_655 S
C589 C591 1.390 . S
C589 H593 0.950 . S
H590 C586 0.950 . S
C591 C589 1.390 . S
C591 C592 1.387 . S
C591 H594 0.950 . S
C592 C591 1.387 . S
C592 C595 1.387 1_655 S
H593 C589 0.950 . S
H594 C591 0.950 . S
C595 C586 1.390 . S
C595 H588 0.950 . S
C595 C592 1.387 1_455 S
C596 C597 1.387 1_545 S
C596 H600 0.950 . S
C596 C605 1.390 . S
C597 C596 1.387 1_565 S
C597 C599 1.387 . S
H598 C605 0.950 . S
C599 C597 1.387 . S
C599 C601 1.390 . S
C599 H603 0.950 . S
H600 C596 0.950 . S
C601 C599 1.390 . S
C601 C602 1.387 1_565 S
C601 H604 0.950 . S
C602 C601 1.387 1_545 S
C602 C605 1.387 . S
H603 C599 0.950 . S
H604 C601 0.950 . S
C605 C596 1.390 . S
C605 H598 0.950 . S
C605 C602 1.387 . S
C606 C607 1.387 . S
C606 H610 0.950 . S
C606 C615 1.390 . S
C607 C606 1.387 . S
C607 C609 1.387 . S
H608 C615 0.950 . S
C609 C607 1.387 . S
C609 C611 1.390 . S
C609 H613 0.950 . S
H610 C606 0.950 . S
C611 C609 1.390 . S
C611 C612 1.387 . S
C611 H614 0.950 . S
C612 C611 1.387 . S
C612 C615 1.387 . S
H613 C609 0.950 . S
H614 C611 0.950 . S
C615 C606 1.390 . S
C615 H608 0.950 . S
C615 C612 1.387 . S
C616 C617 1.387 1_556 S
C616 H620 0.950 . S
C616 C625 1.390 . S
C617 C616 1.387 1_554 S
C617 C619 1.387 . S
H618 C625 0.950 . S
C619 C617 1.387 . S
C619 C621 1.390 . S
C619 H623 0.950 . S
H620 C616 0.950 . S
C621 C619 1.390 . S
C621 C622 1.387 1_554 S
C621 H624 0.950 . S
C622 C621 1.387 1_556 S
C622 C625 1.387 . S
H623 C619 0.950 . S
H624 C621 0.950 . S
C625 C616 1.390 . S
C625 H618 0.950 . S
C625 C622 1.387 . S
C626 C627 1.387 . S
C626 H630 0.950 . S
C626 C635 1.390 . S
C627 C626 1.387 . S
C627 C629 1.387 . S
H628 C635 0.950 . S
C629 C627 1.387 . S
C629 C631 1.390 . S
C629 H633 0.950 . S
H630 C626 0.950 . S
C631 C629 1.390 . S
C631 C632 1.387 . S
C631 H634 0.950 . S
C632 C631 1.387 . S
C632 C635 1.387 . S
H633 C629 0.950 . S
H634 C631 0.950 . S
C635 C626 1.390 . S
C635 H628 0.950 . S
C635 C632 1.387 . S
C636 C637 1.387 . S
C636 H640 0.950 . S
C636 C645 1.390 . S
C637 C636 1.387 . S
C637 C639 1.387 . S
H638 C645 0.950 . S
C639 C637 1.387 . S
C639 C641 1.390 . S
C639 H643 0.950 . S
H640 C636 0.950 . S
C641 C639 1.390 . S
C641 C642 1.387 . S
C641 H644 0.950 . S
C642 C641 1.387 . S
C642 C645 1.387 . S
H643 C639 0.950 . S
H644 C641 0.950 . S
C645 C636 1.390 . S
C645 H638 0.950 . S
C645 C642 1.387 . S
C646 C647 1.387 . S
C646 H650 0.950 . S
C646 C655 1.390 . S
C647 C646 1.387 . S
C647 C649 1.387 . S
H648 C655 0.950 . S
C649 C647 1.387 . S
C649 C651 1.390 . S
C649 H653 0.950 . S
H650 C646 0.950 . S
C651 C649 1.390 . S
C651 C652 1.387 . S
C651 H654 0.950 . S
C652 C651 1.387 . S
C652 C655 1.387 . S
H653 C649 0.950 . S
H654 C651 0.950 . S
C655 C646 1.390 . S
C655 H648 0.950 . S
C655 C652 1.387 . S
C656 C657 1.387 . S
C656 H660 0.950 . S
C656 C665 1.390 . S
C657 C656 1.387 . S
C657 C659 1.387 . S
H658 C665 0.950 . S
C659 C657 1.387 . S
C659 C661 1.390 . S
C659 H663 0.950 . S
H660 C656 0.950 . S
C661 C659 1.390 . S
C661 C662 1.387 . S
C661 H664 0.950 . S
C662 C661 1.387 . S
C662 C665 1.387 . S
H663 C659 0.950 . S
H664 C661 0.950 . S
C665 C656 1.390 . S
C665 H658 0.950 . S
C665 C662 1.387 . S
C666 C667 1.387 . S
C666 H670 0.950 . S
C666 C675 1.390 . S
C667 C666 1.387 . S
C667 C669 1.387 . S
H668 C675 0.950 . S
C669 C667 1.387 . S
C669 C671 1.390 . S
C669 H673 0.950 . S
H670 C666 0.950 . S
C671 C669 1.390 . S
C671 C672 1.387 . S
C671 H674 0.950 . S
C672 C671 1.387 . S
C672 C675 1.387 . S
H673 C669 0.950 . S
H674 C671 0.950 . S
C675 C666 1.390 . S
C675 H668 0.950 . S
C675 C672 1.387 . S
C676 C677 1.387 . S
C676 H680 0.950 . S
C676 C685 1.390 . S
C677 C676 1.387 . S
C677 C679 1.387 1_545 S
H678 C685 0.950 . S
C679 C677 1.387 1_565 S
C679 C681 1.390 . S
C679 H683 0.950 . S
H680 C676 0.950 . S
C681 C679 1.390 . S
C681 C682 1.387 . S
C681 H684 0.950 . S
C682 C681 1.387 . S
C682 C685 1.387 1_565 S
H683 C679 0.950 . S
H684 C681 0.950 . S
C685 C676 1.390 . S
C685 H678 0.950 . S
C685 C682 1.387 1_545 S
C686 C687 1.387 . S
C686 H690 0.950 . S
C686 C695 1.390 . S
C687 C686 1.387 . S
C687 C689 1.387 1_556 S
H688 C695 0.950 . S
C689 C687 1.387 1_554 S
C689 C691 1.390 . S
C689 H693 0.950 . S
H690 C686 0.950 . S
C691 C689 1.390 . S
C691 C692 1.387 . S
C691 H694 0.950 . S
C692 C691 1.387 . S
C692 C695 1.387 1_554 S
H693 C689 0.950 . S
H694 C691 0.950 . S
C695 C686 1.390 . S
C695 H688 0.950 . S
C695 C692 1.387 1_556 S
C696 C697 1.387 . S
C696 H700 0.950 . S
C696 C705 1.390 1_565 S
C697 C696 1.387 . S
C697 C699 1.387 1_455 S
H698 C705 0.950 . S
C699 C697 1.387 1_655 S
C699 C701 1.390 1_565 S
C699 H703 0.950 . S
H700 C696 0.950 . S
C701 C699 1.390 1_545 S
C701 C702 1.387 1_655 S
C701 H704 0.950 . S
C702 C701 1.387 1_455 S
C702 C705 1.387 . S
H703 C699 0.950 . S
H704 C701 0.950 . S
C705 C696 1.390 1_545 S
C705 H698 0.950 . S
C705 C702 1.387 . S
C706 C707 1.387 1_455 S
C706 H710 0.950 . S
C706 C715 1.390 . S
C707 C706 1.387 1_655 S
C707 C709 1.387 . S
H708 C715 0.950 . S
C709 C707 1.387 . S
C709 C711 1.390 . S
C709 H713 0.950 . S
H710 C706 0.950 . S
C711 C709 1.390 . S
C711 C712 1.387 . S
C711 H714 0.950 . S
C712 C711 1.387 . S
C712 C715 1.387 1_655 S
H713 C709 0.950 . S
H714 C711 0.950 . S
C715 C706 1.390 . S
C715 H708 0.950 . S
C715 C712 1.387 1_455 S
C716 C717 1.387 1_565 S
C716 H720 0.950 . S
C716 C725 1.390 1_556 S
C717 C716 1.387 1_545 S
C717 C719 1.387 . S
H718 C725 0.950 . S
C719 C717 1.387 . S
C719 C721 1.390 1_556 S
C719 H723 0.950 . S
H720 C716 0.950 . S
C721 C719 1.390 1_554 S
C721 C722 1.387 . S
C721 H724 0.950 . S
C722 C721 1.387 . S
C722 C725 1.387 1_545 S
H723 C719 0.950 . S
H724 C721 0.950 . S
C725 C716 1.390 1_554 S
C725 H718 0.950 . S
C725 C722 1.387 1_565 S
C726 C727 1.387 . S
C726 H730 0.950 . S
C726 C735 1.390 1_554 S
C727 C726 1.387 . S
C727 C729 1.387 . S
H728 C735 0.950 . S
C729 C727 1.387 . S
C729 C731 1.390 1_554 S
C729 H733 0.950 . S
H730 C726 0.950 . S
C731 C729 1.390 1_556 S
C731 C732 1.387 . S
C731 H734 0.950 . S
C732 C731 1.387 . S
C732 C735 1.387 . S
H733 C729 0.950 . S
H734 C731 0.950 . S
C735 C726 1.390 1_556 S
C735 H728 0.950 . S
C735 C732 1.387 . S
C736 C737 1.387 . S
C736 H740 0.950 . S
C736 C745 1.390 . S
C737 C736 1.387 . S
C737 C739 1.387 1_565 S
H738 C745 0.950 . S
C739 C737 1.387 1_545 S
C739 C741 1.390 . S
C739 H743 0.950 . S
H740 C736 0.950 . S
C741 C739 1.390 . S
C741 C742 1.387 1_545 S
C741 H744 0.950 . S
C742 C741 1.387 1_565 S
C742 C745 1.387 . S
H743 C739 0.950 . S
H744 C741 0.950 . S
C745 C736 1.390 . S
C745 H738 0.950 . S
C745 C742 1.387 . S
C746 C747 1.387 . S
C746 H750 0.950 . S
C746 C755 1.390 . S
C747 C746 1.387 . S
C747 C749 1.387 . S
H748 C755 0.950 . S
C749 C747 1.387 . S
C749 C751 1.390 . S
C749 H753 0.950 . S
H750 C746 0.950 . S
C751 C749 1.390 . S
C751 C752 1.387 . S
C751 H754 0.950 . S
C752 C751 1.387 . S
C752 C755 1.387 . S
H753 C749 0.950 . S
H754 C751 0.950 . S
C755 C746 1.390 . S
C755 H748 0.950 . S
C755 C752 1.387 . S
C756 C757 1.387 . S
C756 H760 0.950 . S
C756 C765 1.390 1_455 S
C757 C756 1.387 . S
C757 C759 1.387 1_554 S
H758 C765 0.950 . S
C759 C757 1.387 1_556 S
C759 C761 1.390 1_455 S
C759 H763 0.950 . S
H760 C756 0.950 . S
C761 C759 1.390 1_655 S
C761 C762 1.387 1_556 S
C761 H764 0.950 . S
C762 C761 1.387 1_554 S
C762 C765 1.387 . S
H763 C759 0.950 . S
H764 C761 0.950 . S
C765 C756 1.390 1_655 S
C765 H758 0.950 . S
C765 C762 1.387 . S
C766 C767 1.387 . S
C766 H770 0.950 . S
C766 C775 1.390 1_455 S
C767 C766 1.387 . S
C767 C769 1.387 . S
H768 C775 0.950 . S
C769 C767 1.387 . S
C769 C771 1.390 1_455 S
C769 H773 0.950 . S
H770 C766 0.950 . S
C771 C769 1.390 1_655 S
C771 C772 1.387 . S
C771 H774 0.950 . S
C772 C771 1.387 . S
C772 C775 1.387 . S
H773 C769 0.950 . S
H774 C771 0.950 . S
C775 C766 1.390 1_655 S
C775 H768 0.950 . S
C775 C772 1.387 . S
C776 C777 1.387 . S
C776 H780 0.950 . S
C776 C785 1.390 . S
C777 C776 1.387 . S
C777 C779 1.387 . S
H778 C785 0.950 . S
C779 C777 1.387 . S
C779 C781 1.390 . S
C779 H783 0.950 . S
H780 C776 0.950 . S
C781 C779 1.390 . S
C781 C782 1.387 . S
C781 H784 0.950 . S
C782 C781 1.387 . S
C782 C785 1.387 . S
H783 C779 0.950 . S
H784 C781 0.950 . S
C785 C776 1.390 . S
C785 H778 0.950 . S
C785 C782 1.387 . S
C786 C787 1.387 . S
C786 H790 0.950 . S
C786 C795 1.390 . S
C787 C786 1.387 . S
C787 C789 1.387 . S
H788 C795 0.950 . S
C789 C787 1.387 . S
C789 C791 1.390 . S
C789 H793 0.950 . S
H790 C786 0.950 . S
C791 C789 1.390 . S
C791 C792 1.387 . S
C791 H794 0.950 . S
C792 C791 1.387 . S
C792 C795 1.387 . S
H793 C789 0.950 . S
H794 C791 0.950 . S
C795 C786 1.390 . S
C795 H788 0.950 . S
C795 C792 1.387 . S
C796 C797 1.387 . S
C796 H800 0.950 . S
C796 C805 1.390 1_565 S
C797 C796 1.387 . S
C797 C799 1.387 . S
H798 C805 0.950 . S
C799 C797 1.387 . S
C799 C801 1.390 1_565 S
C799 H803 0.950 . S
H800 C796 0.950 . S
C801 C799 1.390 1_545 S
C801 C802 1.387 . S
C801 H804 0.950 . S
C802 C801 1.387 . S
C802 C805 1.387 . S
H803 C799 0.950 . S
H804 C801 0.950 . S
C805 C796 1.390 1_545 S
C805 H798 0.950 . S
C805 C802 1.387 . S
C806 C807 1.387 1_554 S
C806 H810 0.950 . S
C806 C815 1.390 . S
C807 C806 1.387 1_556 S
C807 C809 1.387 . S
H808 C815 0.950 . S
C809 C807 1.387 . S
C809 C811 1.390 . S
C809 H813 0.950 . S
H810 C806 0.950 . S
C811 C809 1.390 . S
C811 C812 1.387 . S
C811 H814 0.950 . S
C812 C811 1.387 . S
C812 C815 1.387 1_556 S
H813 C809 0.950 . S
H814 C811 0.950 . S
C815 C806 1.390 . S
C815 H808 0.950 . S
C815 C812 1.387 1_554 S
C337 C247 0.870 . S
C342 C3 0.892 . S
C347 C17 1.011 . S
C352 C233 0.914 . S
C357 C31 1.016 . S
C362 C275 0.979 . S
C367 C45 1.128 . S
C372 C261 1.004 . S
C377 C59 0.893 . S
C382 C303 0.874 . S
C387 C73 0.991 . S
C392 C317 0.953 . S
C397 C289 0.914 . S
C402 C87 1.008 . S
C407 C163 0.977 . S
C412 C101 1.097 . S
C417 C115 0.893 . S
C422 C51 0.869 . S
C427 C23 0.948 . S
C432 C129 0.991 . S
C437 C143 1.117 . S
C442 C9 1.069 . S
C447 C157 1.094 . S
C452 C205 0.974 . S
C457 C79 1.076 . S
C462 C171 1.219 . S
C467 C65 1.072 . S
C472 C185 1.120 . S
C477 C199 1.095 . S
C482 C107 0.974 . S
C487 C213 0.991 . S
C492 C93 0.954 . S
C497 C135 1.075 . S
C502 C227 1.216 . S
C507 C149 1.004 . S
C512 C241 1.122 . S
C517 C121 1.067 . S
C522 C255 1.118 . S
C527 C269 1.016 . S
C532 C331 0.977 . S
C537 C219 1.073 . S
C542 C283 1.218 . S
C547 C297 1.127 . S
C552 C191 1.001 . S
C557 C177 0.910 . S
C562 C311 1.006 . S
C567 C325 1.015 . S
C572 C37 0.980 . S
C577 C8 1.723 . S
C582 C22 1.705 . S
C587 C50 1.643 . S
C592 C36 1.659 . S
C597 C64 1.722 . S
C602 C92 1.705 . S
C607 C78 1.920 . S
C612 C106 1.898 . S
C617 C316 1.704 . S
C622 C120 1.722 . S
C627 C134 1.918 . S
C632 C162 1.895 . S
C637 C288 1.850 . S
C642 C148 1.872 . S
C647 C190 1.875 . S
C652 C176 1.853 . S
C657 C204 1.895 . S
C662 C218 1.918 . S
C667 C260 1.872 . S
C672 C232 1.850 . S
C677 C246 1.643 . S
C682 C274 1.658 . S
C687 C330 1.659 . S
C692 C302 1.641 . S
C697 C35 1.264 . S
C702 C7 1.266 . S
C707 C21 1.418 . S
C712 C49 1.415 . S
C717 C273 1.258 . S
C722 C63 1.260 . S
C727 C77 1.368 . S
C732 C259 1.367 . S
C737 C91 1.424 . S
C742 C245 1.420 . S
C747 C231 1.529 . S
C752 C105 1.531 . S
C757 C119 1.266 . S
C762 C329 1.264 . S
C767 C133 1.373 . S
C772 C147 1.372 . S
C777 C287 1.524 . S
C782 C161 1.526 . S
C787 C175 1.529 . S
C792 C203 1.531 . S
C797 C189 1.372 . S
C802 C217 1.373 . S
C807 C315 1.418 . S
C812 C301 1.414 . S
