# Generated by pormake.
# Topology uku, (4)-cn, num edge types: 1
# Building blocks:
#     Node 0, Type 0, BuildingBlock: QUQFOY_clean_sbu_1, # of connection points: 4
#     Node 1, Type 0, BuildingBlock: QUQFOY_clean_sbu_1, # of connection points: 4
#     Node 2, Type 0, BuildingBlock: QUQFOY_clean_sbu_1, # of connection points: 4
#     Node 3, Type 0, BuildingBlock: QUQFOY_clean_sbu_1, # of connection points: 4
#     Node 4, Type 0, BuildingBlock: QUQFOY_clean_sbu_1, # of connection points: 4
#     Node 5, Type 0, BuildingBlock: QUQFOY_clean_sbu_1, # of connection points: 4
#     Node 6, Type 0, BuildingBlock: QUQFOY_clean_sbu_1, # of connection points: 4
#     Node 7, Type 0, BuildingBlock: QUQFOY_clean_sbu_1, # of connection points: 4
#     Node 8, Type 0, BuildingBlock: QUQFOY_clean_sbu_1, # of connection points: 4
#     Node 9, Type 0, BuildingBlock: QUQFOY_clean_sbu_1, # of connection points: 4
#     Node 10, Type 0, BuildingBlock: QUQFOY_clean_sbu_1, # of connection points: 4
#     Node 11, Type 0, BuildingBlock: QUQFOY_clean_sbu_1, # of connection points: 4
#     Edge 12, Type (0, 0), BuildingBlock: CIFDUS_clean_linker_0, # of connection points: 2
#     Edge 13, Type (0, 0), BuildingBlock: CIFDUS_clean_linker_0, # of connection points: 2
#     Edge 14, Type (0, 0), BuildingBlock: CIFDUS_clean_linker_0, # of connection points: 2
#     Edge 15, Type (0, 0), BuildingBlock: CIFDUS_clean_linker_0, # of connection points: 2
#     Edge 16, Type (0, 0), BuildingBlock: CIFDUS_clean_linker_0, # of connection points: 2
#     Edge 17, Type (0, 0), BuildingBlock: CIFDUS_clean_linker_0, # of connection points: 2
#     Edge 18, Type (0, 0), BuildingBlock: CIFDUS_clean_linker_0, # of connection points: 2
#     Edge 19, Type (0, 0), BuildingBlock: CIFDUS_clean_linker_0, # of connection points: 2
#     Edge 20, Type (0, 0), BuildingBlock: CIFDUS_clean_linker_0, # of connection points: 2
#     Edge 21, Type (0, 0), BuildingBlock: CIFDUS_clean_linker_0, # of connection points: 2
#     Edge 22, Type (0, 0), BuildingBlock: CIFDUS_clean_linker_0, # of connection points: 2
#     Edge 23, Type (0, 0), BuildingBlock: CIFDUS_clean_linker_0, # of connection points: 2
#     Edge 24, Type (0, 0), BuildingBlock: CIFDUS_clean_linker_0, # of connection points: 2
#     Edge 25, Type (0, 0), BuildingBlock: CIFDUS_clean_linker_0, # of connection points: 2
#     Edge 26, Type (0, 0), BuildingBlock: CIFDUS_clean_linker_0, # of connection points: 2
#     Edge 27, Type (0, 0), BuildingBlock: CIFDUS_clean_linker_0, # of connection points: 2
#     Edge 28, Type (0, 0), BuildingBlock: CIFDUS_clean_linker_0, # of connection points: 2
#     Edge 29, Type (0, 0), BuildingBlock: CIFDUS_clean_linker_0, # of connection points: 2
#     Edge 30, Type (0, 0), BuildingBlock: CIFDUS_clean_linker_0, # of connection points: 2
#     Edge 31, Type (0, 0), BuildingBlock: CIFDUS_clean_linker_0, # of connection points: 2
#     Edge 32, Type (0, 0), BuildingBlock: CIFDUS_clean_linker_0, # of connection points: 2
#     Edge 33, Type (0, 0), BuildingBlock: CIFDUS_clean_linker_0, # of connection points: 2
#     Edge 34, Type (0, 0), BuildingBlock: CIFDUS_clean_linker_0, # of connection points: 2
#     Edge 35, Type (0, 0), BuildingBlock: CIFDUS_clean_linker_0, # of connection points: 2
# Relax obj value: 0.261
# Max RMSD: 0.220
# Mean RMSD: 0.220
data_MOF--net-uku--node1-QUQFOY_clean_sbu_1--edge1-CIFDUS_clean_linker_0
_symmetry_space_group_name_H-M    P1
_symmetry_Int_Tables_number       1
_symmetry_cell_setting            triclinic
loop_
_symmetry_equiv_pos_as_xyz
'x, y, z'
_cell_length_a     38.200492
_cell_length_b     37.99393
_cell_length_c     38.288915
_cell_angle_alpha  89.887809
_cell_angle_beta   89.910471
_cell_angle_gamma 90.17645
loop_
_atom_site_label
_atom_site_type_symbol
_atom_site_fract_x
_atom_site_fract_y
_atom_site_fract_z
_atom_type_partial_charge
O0 O 0.09525 0.08223 0.61556 0.0
Cd1 Cd 0.12087 0.12899 0.60726 0.0
Cd2 Cd 0.09256 0.14246 0.66469 0.0
O3 O 0.0542 0.108 0.64676 0.0
O4 O 0.11732 0.14209 0.55659 0.0
O5 O 0.08632 0.16728 0.59869 0.0
C6 C 0.09203 0.16278 0.56574 0.0
C7 C 0.0868 0.19677 0.69286 0.0
C8 C 0.06532 0.08126 0.63004 0.0
C9 C 0.16663 0.11876 0.6645 0.0
O10 O 0.13713 0.11696 0.6797 0.0
O11 O 0.16865 0.13148 0.63373 0.0
O12 O 0.07647 0.16784 0.7074 0.0
O13 O 0.09761 0.19529 0.66095 0.0
O14 O 0.90513 0.91587 0.60998 0.0
Cd15 Cd 0.88172 0.86802 0.60038 0.0
Cd16 Cd 0.90747 0.85539 0.65904 0.0
O17 O 0.94533 0.89108 0.64287 0.0
O18 O 0.88582 0.85759 0.54938 0.0
O19 O 0.91741 0.8309 0.59016 0.0
C20 C 0.91148 0.83694 0.55742 0.0
C21 C 0.91559 0.80377 0.69149 0.0
C22 C 0.93433 0.9176 0.62575 0.0
C23 C 0.83226 0.87496 0.655 0.0
O24 O 0.86076 0.87857 0.67162 0.0
O25 O 0.83278 0.8625 0.62415 0.0
O26 O 0.92272 0.83437 0.7042 0.0
O27 O 0.90681 0.80209 0.65896 0.0
O28 O 0.07848 0.91638 0.37898 0.0
Cd29 Cd 0.10371 0.86968 0.38897 0.0
Cd30 Cd 0.08044 0.85607 0.32922 0.0
O31 O 0.04044 0.88877 0.34577 0.0
O32 O 0.0993 0.85953 0.43995 0.0
O33 O 0.06932 0.83102 0.39913 0.0
C34 C 0.07453 0.83771 0.43185 0.0
C35 C 0.07285 0.8064 0.29389 0.0
C36 C 0.0493 0.91587 0.36315 0.0
C37 C 0.15484 0.87869 0.33597 0.0
O38 O 0.1269 0.88131 0.31825 0.0
O39 O 0.15346 0.86623 0.36684 0.0
O40 O 0.06584 0.83766 0.28286 0.0
O41 O 0.08185 0.80279 0.3262 0.0
O42 O 0.92417 0.09842 0.38691 0.0
Cd43 Cd 0.89706 0.14271 0.40087 0.0
Cd44 Cd 0.92017 0.16268 0.34366 0.0
O45 O 0.96189 0.13046 0.35715 0.0
O46 O 0.90176 0.14918 0.45243 0.0
O47 O 0.93046 0.18129 0.41311 0.0
C48 C 0.92602 0.172 0.44533 0.0
C49 C 0.92161 0.21945 0.32027 0.0
C50 C 0.95359 0.10142 0.37168 0.0
C51 C 0.8476 0.13541 0.34639 0.0
O52 O 0.87599 0.13558 0.32908 0.0
O53 O 0.84764 0.14577 0.37802 0.0
O54 O 0.93298 0.19274 0.30285 0.0
O55 O 0.91198 0.21441 0.35224 0.0
O56 O 0.63025 0.07949 0.09485 0.0
Cd57 Cd 0.62361 0.10731 0.14016 0.0
Cd58 Cd 0.68112 0.0773 0.15406 0.0
O59 O 0.65979 0.03842 0.12261 0.0
O60 O 0.57328 0.10199 0.15497 0.0
O61 O 0.61746 0.07362 0.17968 0.0
C62 C 0.58409 0.07714 0.1755 0.0
C63 C 0.71389 0.06859 0.20485 0.0
C64 C 0.64286 0.04861 0.09582 0.0
C65 C 0.68264 0.15174 0.12803 0.0
O66 O 0.69694 0.12159 0.12771 0.0
O67 O 0.65163 0.15493 0.14006 0.0
O68 O 0.72516 0.05863 0.17469 0.0
O69 O 0.68257 0.08111 0.20671 0.0
O70 O 0.38641 0.9331 0.09362 0.0
Cd71 Cd 0.39346 0.90566 0.1392 0.0
Cd72 Cd 0.33456 0.93286 0.15222 0.0
O73 O 0.35484 0.97269 0.12116 0.0
O74 O 0.44334 0.91238 0.15421 0.0
O75 O 0.39815 0.93939 0.17881 0.0
C76 C 0.43167 0.93678 0.17474 0.0
C77 C 0.29831 0.9411 0.20082 0.0
C78 C 0.3724 0.96335 0.09447 0.0
C79 C 0.33751 0.8587 0.12556 0.0
O80 O 0.32175 0.88808 0.12528 0.0
O81 O 0.36821 0.8567 0.13842 0.0
O82 O 0.2886 0.94991 0.1698 0.0
O83 O 0.32989 0.9298 0.20485 0.0
O84 O 0.61758 0.92457 0.91196 0.0
Cd85 Cd 0.60761 0.89938 0.86559 0.0
Cd86 Cd 0.66637 0.92398 0.85099 0.0
O87 O 0.64932 0.9637 0.88368 0.0
O88 O 0.55695 0.90523 0.85406 0.0
O89 O 0.59974 0.93494 0.82781 0.0
C90 C 0.56662 0.93055 0.83347 0.0
C91 C 0.69821 0.93288 0.79962 0.0
C92 C 0.63267 0.95439 0.91099 0.0
C93 C 0.66198 0.84924 0.87362 0.0
O94 O 0.67926 0.87776 0.87577 0.0
O95 O 0.63082 0.84983 0.86179 0.0
O96 O 0.711 0.94053 0.82981 0.0
O97 O 0.66616 0.9221 0.79819 0.0
O98 O 0.39164 0.09157 0.91374 0.0
Cd99 Cd 0.40101 0.12222 0.87083 0.0
Cd100 Cd 0.34657 0.09123 0.85056 0.0
O101 O 0.36561 0.05102 0.88195 0.0
O102 O 0.45267 0.12153 0.86105 0.0
O103 O 0.41335 0.09144 0.83059 0.0
C104 C 0.44576 0.0974 0.83815 0.0
C105 C 0.32173 0.08671 0.79498 0.0
C106 C 0.37973 0.06051 0.91057 0.0
C107 C 0.33974 0.16299 0.88151 0.0
O108 O 0.32655 0.13241 0.87856 0.0
O109 O 0.37127 0.16844 0.87182 0.0
O110 O 0.30669 0.07322 0.82212 0.0
O111 O 0.35236 0.10054 0.79892 0.0
O112 O 0.0983 0.62454 0.08029 0.0
Cd113 Cd 0.14357 0.61152 0.10588 0.0
Cd114 Cd 0.16105 0.66997 0.08268 0.0
O115 O 0.12823 0.65567 0.04202 0.0
O116 O 0.1503 0.55959 0.1013 0.0
O117 O 0.1809 0.59916 0.07118 0.0
C118 C 0.17204 0.56664 0.07625 0.0
C119 C 0.21527 0.69827 0.07891 0.0
C120 C 0.10002 0.64015 0.05097 0.0
C121 C 0.13636 0.66593 0.156 0.0
O122 O 0.13518 0.68342 0.12774 0.0
O123 O 0.14742 0.63432 0.15544 0.0
O124 O 0.18675 0.71357 0.06928 0.0
O125 O 0.2135 0.6655 0.08788 0.0
O126 O 0.08666 0.3828 0.91364 0.0
Cd127 Cd 0.13279 0.3919 0.88815 0.0
Cd128 Cd 0.14917 0.33719 0.92133 0.0
O129 O 0.11295 0.356 0.95743 0.0
O130 O 0.14323 0.44392 0.88896 0.0
O131 O 0.16971 0.40483 0.92279 0.0
C132 C 0.16366 0.43737 0.91517 0.0
C133 C 0.20495 0.31293 0.92844 0.0
C134 C 0.08574 0.37033 0.94442 0.0
C135 C 0.12539 0.32967 0.84758 0.0
O136 O 0.12517 0.31694 0.87825 0.0
O137 O 0.13605 0.3612 0.84271 0.0
O138 O 0.17733 0.29723 0.94032 0.0
O139 O 0.20127 0.34414 0.91565 0.0
O140 O 0.91496 0.63309 0.92831 0.0
Cd141 Cd 0.86959 0.62387 0.90131 0.0
Cd142 Cd 0.85295 0.68022 0.93067 0.0
O143 O 0.88581 0.66105 0.96928 0.0
O144 O 0.85961 0.57212 0.90345 0.0
O145 O 0.83095 0.61185 0.93478 0.0
C146 C 0.83807 0.57916 0.92864 0.0
C147 C 0.80138 0.71208 0.93941 0.0
C148 C 0.9136 0.64584 0.95891 0.0
C149 C 0.87872 0.683 0.85683 0.0
O150 O 0.87866 0.69742 0.88673 0.0
O151 O 0.86788 0.65136 0.85383 0.0
O152 O 0.83143 0.72402 0.94917 0.0
O153 O 0.80003 0.68044 0.9272 0.0
O154 O 0.91637 0.39799 0.09714 0.0
Cd155 Cd 0.86938 0.40763 0.12103 0.0
Cd156 Cd 0.85609 0.34863 0.0951 0.0
O157 O 0.8921 0.36405 0.05737 0.0
O158 O 0.85931 0.45914 0.11669 0.0
O159 O 0.83215 0.41808 0.08559 0.0
C160 C 0.8386 0.45107 0.09115 0.0
C161 C 0.80401 0.31673 0.08807 0.0
C162 C 0.91843 0.38143 0.06844 0.0
C163 C 0.87891 0.35233 0.16968 0.0
O164 O 0.8801 0.33567 0.14102 0.0
O165 O 0.86695 0.38362 0.17026 0.0
O166 O 0.83405 0.30342 0.0803 0.0
O167 O 0.80311 0.34953 0.09682 0.0
H168 H 0.99501 0.18444 0.43525 0.0
H169 H 0.91612 0.17862 0.51571 0.0
H170 H 0.96156 0.18172 0.56066 0.0
H171 H 0.02361 0.1773 0.57668 0.0
H172 H 0.10239 0.17491 0.49594 0.0
H173 H 0.05731 0.18428 0.4515 0.0
C174 C 0.98772 0.18493 0.46264 0.0
C175 C 0.95221 0.18165 0.47218 0.0
C176 C 0.01411 0.18477 0.48826 0.0
C177 C 0.94322 0.18136 0.50775 0.0
C178 C 0.96923 0.18291 0.53342 0.0
C179 C 0.03105 0.1798 0.54944 0.0
C180 C 0.06638 0.17561 0.53963 0.0
C181 C 0.00479 0.18337 0.52396 0.0
C182 C 0.07545 0.17816 0.50416 0.0
C183 C 0.04963 0.18334 0.47874 0.0
H184 H 0.00536 0.82409 0.42326 0.0
H185 H 0.08638 0.82739 0.50144 0.0
H186 H 0.04239 0.82104 0.54757 0.0
H187 H 0.98066 0.82346 0.56582 0.0
H188 H 0.89961 0.82744 0.48769 0.0
H189 H 0.94357 0.82152 0.44151 0.0
C190 C 0.01345 0.82235 0.45035 0.0
C191 C 0.04915 0.82597 0.4589 0.0
C192 C 0.98783 0.82046 0.47681 0.0
C193 C 0.05912 0.82451 0.49417 0.0
C194 C 0.03393 0.82109 0.52057 0.0
C195 C 0.97253 0.822 0.53873 0.0
C196 C 0.93684 0.82572 0.53022 0.0
C197 C 0.99813 0.82031 0.51226 0.0
C198 C 0.92685 0.82454 0.49494 0.0
C199 C 0.95203 0.82135 0.46852 0.0
H200 H 0.50217 0.93443 0.1877 0.0
H201 H 0.41383 1.00481 0.18645 0.0
H202 H 0.45301 0.05543 0.19026 0.0
H203 H 0.51289 0.07997 0.18508 0.0
H204 H 0.60107 0.00953 0.19066 0.0
H205 H 0.56168 0.95915 0.19467 0.0
C206 C 0.49149 0.9608 0.18928 0.0
C207 C 0.45512 0.96571 0.18647 0.0
C208 C 0.51424 0.99001 0.19186 0.0
C209 C 0.4417 1.00012 0.18872 0.0
C210 C 0.46415 0.02923 0.19057 0.0
C211 C 0.52345 0.05368 0.18817 0.0
C212 C 0.55993 0.04866 0.18719 0.0
C213 C 0.50054 0.02457 0.19087 0.0
C214 C 0.57314 0.01435 0.19142 0.0
C215 C 0.55059 0.98534 0.19341 0.0
H216 H 0.57819 1.0005 0.8263 0.0
H217 H 0.49733 0.92155 0.81828 0.0
H218 H 0.45302 0.96762 0.81243 0.0
H219 H 0.43662 0.0297 0.81831 0.0
H220 H 0.51669 0.10824 0.83444 0.0
H221 H 0.56201 0.06322 0.82789 0.0
C222 C 0.55098 0.99341 0.82221 0.0
C223 C 0.54106 0.95763 0.82236 0.0
C224 C 0.52548 0.02008 0.82077 0.0
C225 C 0.50561 0.94885 0.818 0.0
C226 C 0.48028 0.97521 0.81487 0.0
C227 C 0.46402 0.0372 0.81939 0.0
C228 C 0.47326 0.07241 0.82663 0.0
C229 C 0.48978 0.01087 0.81744 0.0
C230 C 0.50888 0.08143 0.82873 0.0
C231 C 0.53478 0.05562 0.82519 0.0
H232 H 0.18037 0.43061 0.98362 0.0
H233 H 0.16984 0.50812 0.90191 0.0
H234 H 0.17756 0.55536 0.94472 0.0
H235 H 0.17963 0.57452 0.00627 0.0
H236 H 0.18256 0.49662 0.08819 0.0
H237 H 0.186 0.4497 0.04458 0.0
C238 C 0.18064 0.45782 0.97498 0.0
C239 C 0.17475 0.46578 0.93948 0.0
C240 C 0.18344 0.48481 1.0 0.0
C241 C 0.17445 0.50124 0.92898 0.0
C242 C 0.1787 0.52826 0.95352 0.0
C243 C 0.18204 0.54731 0.01454 0.0
C244 C 0.18128 0.53905 0.05046 0.0
C245 C 0.18218 0.52038 0.98924 0.0
C246 C 0.18339 0.50364 0.06076 0.0
C247 C 0.18514 0.47681 0.0358 0.0
H248 H 0.82407 0.58662 0.99772 0.0
H249 H 0.83058 0.50858 0.9164 0.0
H250 H 0.82533 0.4616 0.95999 0.0
H251 H 0.82711 0.4428 0.02164 0.0
H252 H 0.82786 0.52113 0.10294 0.0
H253 H 0.82159 0.56776 0.05921 0.0
C254 C 0.82332 0.55934 0.98942 0.0
C255 C 0.82741 0.55115 0.95373 0.0
C256 C 0.82202 0.53245 0.01484 0.0
C257 C 0.82726 0.51562 0.9436 0.0
C258 C 0.82447 0.48874 0.96859 0.0
C259 C 0.82491 0.47001 0.02985 0.0
C260 C 0.82767 0.47844 0.06561 0.0
C261 C 0.823 0.49681 0.00437 0.0
C262 C 0.82563 0.51391 0.07568 0.0
C263 C 0.82223 0.5406 0.05062 0.0
H264 H 0.23481 0.14267 0.66722 0.0
H265 H 0.16582 0.06018 0.70348 0.0
H266 H 0.21028 0.03939 0.74379 0.0
H267 H 0.26481 0.04977 0.77486 0.0
H268 H 0.33435 0.13273 0.74117 0.0
H269 H 0.29426 0.1477 0.69358 0.0
C270 C 0.23001 0.11967 0.68337 0.0
C271 C 0.19694 0.10333 0.68283 0.0
C272 C 0.25566 0.10813 0.7073 0.0
C273 C 0.19093 0.07355 0.70389 0.0
C274 C 0.21631 0.0616 0.72698 0.0
C275 C 0.27157 0.07066 0.75667 0.0
C276 C 0.3022 0.09038 0.76183 0.0
C277 C 0.24818 0.07951 0.72991 0.0
C278 C 0.31082 0.11712 0.7378 0.0
C279 C 0.28776 0.1259 0.71071 0.0
H280 H 0.69266 0.89249 0.74081 0.0
H281 H 0.75626 0.97253 0.7896 0.0
H282 H 0.80153 0.96438 0.74552 0.0
H283 H 0.82639 0.92926 0.69875 0.0
H284 H 0.76555 0.84711 0.65036 0.0
H285 H 0.71552 0.86158 0.68824 0.0
C286 C 0.71604 0.90874 0.74116 0.0
C287 C 0.72128 0.93292 0.76859 0.0
C288 C 0.74259 0.90315 0.71616 0.0
C289 C 0.75177 0.95361 0.76894 0.0
C290 C 0.77772 0.94887 0.74381 0.0
C291 C 0.80199 0.91477 0.69615 0.0
C292 C 0.79974 0.88679 0.6723 0.0
C293 C 0.77396 0.92284 0.71823 0.0
C294 C 0.76787 0.8687 0.66865 0.0
C295 C 0.73941 0.87686 0.69046 0.0
H296 H 0.30019 0.90184 0.26083 0.0
H297 H 0.23745 0.97726 0.20452 0.0
H298 H 0.18869 0.96689 0.24429 0.0
H299 H 0.16147 0.9313 0.28976 0.0
H300 H 0.22208 0.85449 0.34617 0.0
H301 H 0.27428 0.8707 0.31196 0.0
C302 C 0.27614 0.91661 0.25786 0.0
C303 C 0.27233 0.94008 0.22953 0.0
C304 C 0.2477 0.90986 0.28047 0.0
C305 C 0.24095 0.95888 0.2259 0.0
C306 C 0.21298 0.95286 0.24855 0.0
C307 C 0.18621 0.9183 0.29486 0.0
C308 C 0.18787 0.89131 0.31996 0.0
C309 C 0.21567 0.92753 0.27503 0.0
C310 C 0.22019 0.87525 0.32684 0.0
C311 C 0.24993 0.88442 0.30717 0.0
H312 H 0.70738 0.10724 0.26472 0.0
H313 H 0.77542 0.0339 0.21198 0.0
H314 H 0.82157 0.04572 0.25419 0.0
H315 H 0.84524 0.08243 0.30061 0.0
H316 H 0.77914 0.15697 0.35362 0.0
H317 H 0.72935 0.13893 0.31703 0.0
C318 C 0.732 0.09321 0.26303 0.0
C319 C 0.7381 0.07 0.23497 0.0
C320 C 0.75889 0.10077 0.28707 0.0
C321 C 0.77016 0.05209 0.23309 0.0
C322 C 0.79664 0.05895 0.25714 0.0
C323 C 0.81979 0.09446 0.30446 0.0
C324 C 0.81588 0.12139 0.32924 0.0
C325 C 0.79173 0.08418 0.28331 0.0
C326 C 0.78272 0.13627 0.33454 0.0
C327 C 0.75437 0.12606 0.31351 0.0
H328 H 0.67741 0.2234 0.14109 0.0
H329 H 0.73338 0.14673 0.07955 0.0
H330 H 0.77284 0.19193 0.05823 0.0
H331 H 0.79595 0.25139 0.06167 0.0
H332 H 0.74257 0.32941 0.12334 0.0
H333 H 0.69753 0.28608 0.13919 0.0
C334 C 0.69791 0.21683 0.12263 0.0
C335 C 0.70273 0.1815 0.11256 0.0
C336 C 0.72121 0.24321 0.11048 0.0
C337 C 0.72939 0.17349 0.08842 0.0
C338 C 0.75204 0.19937 0.07602 0.0
C339 C 0.77414 0.25917 0.07808 0.0
C340 C 0.77286 0.29348 0.09151 0.0
C341 C 0.74887 0.23405 0.08762 0.0
C342 C 0.7442 0.30315 0.11253 0.0
C343 C 0.71857 0.27825 0.12188 0.0
H344 H 0.23128 0.76043 0.04874 0.0
H345 H 0.27089 0.68415 0.12198 0.0
H346 H 0.3161 0.7259 0.14084 0.0
H347 H 0.33872 0.78771 0.14223 0.0
H348 H 0.29647 0.86293 0.06905 0.0
H349 H 0.25849 0.81815 0.04443 0.0
C350 C 0.25027 0.75263 0.0683 0.0
C351 C 0.24748 0.71944 0.08417 0.0
C352 C 0.27558 0.77692 0.07946 0.0
C353 C 0.2725 0.70959 0.10927 0.0
C354 C 0.29818 0.73362 0.12032 0.0
C355 C 0.32172 0.79394 0.12044 0.0
C356 C 0.31996 0.82877 0.10797 0.0
C357 C 0.29917 0.76791 0.10651 0.0
C358 C 0.29783 0.83649 0.07963 0.0
C359 C 0.27607 0.81089 0.06542 0.0
H360 H 0.74319 0.70711 0.89796 0.0
H361 H 0.79198 0.77173 0.97682 0.0
H362 H 0.75003 0.8185 0.96557 0.0
H363 H 0.70525 0.84407 0.92822 0.0
H364 H 0.65616 0.78158 0.84821 0.0
H365 H 0.69215 0.73074 0.86515 0.0
C366 C 0.74398 0.73106 0.9133 0.0
C367 C 0.77092 0.73606 0.938 0.0
C368 C 0.72013 0.7584 0.90606 0.0
C369 C 0.77173 0.76731 0.95752 0.0
C370 C 0.74784 0.79416 0.95099 0.0
C371 C 0.7021 0.81916 0.91474 0.0
C372 C 0.6786 0.81664 0.88664 0.0
C373 C 0.7229 0.79049 0.92445 0.0
C374 C 0.67421 0.78412 0.86984 0.0
C375 C 0.69492 0.75517 0.87945 0.0
H376 H 0.33831 0.23498 0.87049 0.0
H377 H 0.29255 0.15153 0.93228 0.0
H378 H 0.25001 0.19205 0.95649 0.0
H379 H 0.22086 0.24878 0.95473 0.0
H380 H 0.26371 0.33284 0.89192 0.0
H381 H 0.31239 0.29506 0.8743 0.0
C382 C 0.31941 0.22598 0.8897 0.0
C383 C 0.31822 0.19015 0.89903 0.0
C384 C 0.29422 0.24951 0.90328 0.0
C385 C 0.29361 0.17883 0.92407 0.0
C386 C 0.26924 0.20199 0.93807 0.0
C387 C 0.2412 0.25914 0.93775 0.0
C388 C 0.23834 0.29344 0.9244 0.0
C389 C 0.26853 0.23706 0.92702 0.0
C390 C 0.26515 0.30646 0.90259 0.0
C391 C 0.29292 0.28475 0.89224 0.0
H392 H 0.11085 0.74542 0.2985 0.0
H393 H 0.03896 0.80183 0.23208 0.0
H394 H 0.04999 0.7606 0.18479 0.0
H395 H 0.08506 0.71356 0.15996 0.0
H396 H 0.15838 0.65682 0.22413 0.0
H397 H 0.14158 0.6928 0.27481 0.0
C398 C 0.09697 0.74808 0.27396 0.0
C399 C 0.07428 0.77686 0.26873 0.0
C400 C 0.10411 0.72457 0.24635 0.0
C401 C 0.0567 0.78012 0.2367 0.0
C402 C 0.06309 0.75662 0.20957 0.0
C403 C 0.09716 0.70877 0.18514 0.0
C404 C 0.12333 0.68301 0.18823 0.0
C405 C 0.08761 0.7296 0.21372 0.0
C406 C 0.13825 0.6766 0.22112 0.0
C407 C 0.12875 0.6973 0.25 0.0
H408 H 0.05963 0.20944 0.75676 0.0
H409 H 0.12341 0.25694 0.67644 0.0
H410 H 0.13904 0.30502 0.71609 0.0
H411 H 0.13993 0.32975 0.77652 0.0
H412 H 0.07632 0.2796 0.85572 0.0
H413 H 0.05542 0.23688 0.81376 0.0
C414 C 0.07648 0.23061 0.74766 0.0
C415 C 0.09055 0.22936 0.71383 0.0
C416 C 0.08587 0.25766 0.7707 0.0
C417 C 0.11215 0.25721 0.70241 0.0
C418 C 0.12134 0.28462 0.72519 0.0
C419 C 0.12112 0.30979 0.7843 0.0
C420 C 0.11033 0.30755 0.81943 0.0
C421 C 0.10922 0.28458 0.75985 0.0
C422 C 0.08574 0.28157 0.82907 0.0
C423 C 0.07357 0.25707 0.80506 0.0
H424 H 0.86618 0.67624 0.78577 0.0
H425 H 0.92493 0.73633 0.86145 0.0
H426 H 0.94519 0.776 0.81613 0.0
H427 H 0.94163 0.79787 0.75668 0.0
H428 H 0.8824 0.74055 0.67966 0.0
H429 H 0.86774 0.69549 0.72329 0.0
C430 C 0.88378 0.69772 0.79212 0.0
C431 C 0.89339 0.70358 0.82716 0.0
C432 C 0.89528 0.72115 0.76566 0.0
C433 C 0.91642 0.7315 0.8349 0.0
C434 C 0.92822 0.75427 0.80894 0.0
C435 C 0.92601 0.77521 0.74919 0.0
C436 C 0.91292 0.7728 0.71505 0.0
C437 C 0.91708 0.74997 0.77448 0.0
C438 C 0.89293 0.74307 0.70578 0.0
C439 C 0.88426 0.71742 0.73084 0.0
H440 H 0.95699 0.24564 0.26495 0.0
H441 H 0.87138 0.26856 0.33454 0.0
H442 H 0.85234 0.31648 0.29612 0.0
H443 H 0.85502 0.34549 0.23754 0.0
H444 H 0.94124 0.32085 0.16904 0.0
H445 H 0.9653 0.28075 0.21225 0.0
C446 C 0.93466 0.26169 0.27212 0.0
C447 C 0.91541 0.25335 0.30223 0.0
C448 C 0.92373 0.28883 0.24981 0.0
C449 C 0.88671 0.27453 0.31144 0.0
C450 C 0.87562 0.30177 0.2893 0.0
C451 C 0.87957 0.3321 0.23269 0.0
C452 C 0.89611 0.33571 0.20003 0.0
C453 C 0.89315 0.30831 0.25766 0.0
C454 C 0.92784 0.31811 0.19389 0.0
C455 C 0.94162 0.29507 0.21853 0.0
H456 H 0.99457 0.07255 0.62788 0.0
H457 H 0.0919 0.01545 0.63117 0.0
H458 H 0.06017 0.95961 0.63119 0.0
H459 H 0.00467 0.92678 0.63014 0.0
H460 H 0.90745 0.98351 0.62174 0.0
H461 H 0.93901 0.03951 0.62372 0.0
C462 C 0.00868 0.04783 0.62866 0.0
C463 C 0.04538 0.04801 0.62967 0.0
C464 C 0.9903 0.01572 0.62766 0.0
C465 C 0.06355 0.01589 0.63023 0.0
C466 C 0.04547 0.98395 0.63033 0.0
C467 C 0.99049 0.95144 0.62877 0.0
C468 C 0.9539 0.95111 0.62595 0.0
C469 C 0.00885 0.98352 0.62902 0.0
C470 C 0.93574 0.98317 0.62375 0.0
C471 C 0.95372 0.0152 0.625 0.0
H472 H 0.93369 0.03353 0.3681 0.0
H473 H 0.0251 0.10037 0.37009 0.0
H474 H 0.06299 0.04837 0.3686 0.0
H475 H 0.06973 0.9839 0.36732 0.0
H476 H 0.97812 0.91762 0.36057 0.0
H477 H 0.94041 0.96954 0.36333 0.0
C478 C 0.96193 0.03667 0.36829 0.0
C479 C 0.97673 0.07056 0.36958 0.0
C480 C 0.98333 0.00684 0.36659 0.0
C481 C 0.01326 0.07444 0.36911 0.0
C482 C 0.03483 0.04478 0.36836 0.0
C483 C 0.04149 0.9809 0.36656 0.0
C484 C 0.02658 0.9471 0.36413 0.0
C485 C 0.02012 0.01086 0.36723 0.0
C486 C 0.99006 0.94345 0.36248 0.0
C487 C 0.96857 0.97306 0.36412 0.0
H488 H 0.63184 0.93322 0.9783 0.0
H489 H 0.63432 0.02594 0.91315 0.0
H490 H 0.6359 0.06337 0.96511 0.0
H491 H 0.63806 0.06945 0.02876 0.0
H492 H 0.64086 0.97678 0.09394 0.0
H493 H 0.63577 0.93932 0.04214 0.0
C494 C 0.63245 0.96164 0.97557 0.0
C495 C 0.63268 0.97696 0.94213 0.0
C496 C 0.63446 0.98282 0.00545 0.0
C497 C 0.63413 0.0137 0.93874 0.0
C498 C 0.63501 0.03503 0.96837 0.0
C499 C 0.63732 0.04104 0.03161 0.0
C500 C 0.63955 0.02578 0.06499 0.0
C501 C 0.63539 0.01984 1.0018 0.0
C502 C 0.63921 0.989 0.06841 0.0
C503 C 0.63624 0.96766 0.03887 0.0
H504 H 0.37838 0.94321 0.02717 0.0
H505 H 0.37113 0.03501 0.09292 0.0
H506 H 0.37439 0.07315 0.0414 0.0
H507 H 0.37821 0.08012 0.97798 0.0
H508 H 0.3807 0.9885 0.91165 0.0
H509 H 0.38036 0.95023 0.9633 0.0
C510 C 0.37776 0.97159 0.03017 0.0
C511 C 0.37483 0.98643 0.06367 0.0
C512 C 0.37868 0.99319 1.00046 0.0
C513 C 0.37338 0.02312 0.06732 0.0
C514 C 0.37528 0.04486 0.03794 0.0
C515 C 0.37893 0.05175 0.97483 0.0
C516 C 0.37983 0.03702 0.94119 0.0
C517 C 0.37781 0.03014 0.00444 0.0
C518 C 0.38004 1.00031 0.93737 0.0
C519 C 0.3799 0.97852 0.96683 0.0
H520 H 0.98087 0.6456 0.93758 0.0
H521 H 0.9163 0.64364 0.03009 0.0
H522 H 0.96873 0.64069 0.06675 0.0
H523 H 0.03273 0.63868 0.0722 0.0
H524 H 0.09735 0.64518 0.9799 0.0
H525 H 0.04491 0.64642 0.94316 0.0
C526 C 0.97832 0.64437 0.96578 0.0
C527 C 0.9449 0.64447 0.98123 0.0
C528 C 0.00847 0.64357 0.98655 0.0
C529 C 0.94183 0.64356 0.01773 0.0
C530 C 0.97174 0.64182 0.03862 0.0
C531 C 0.03529 0.64023 0.04401 0.0
C532 C 0.06872 0.6415 0.02863 0.0
C533 C 0.00515 0.64177 0.02327 0.0
C534 C 0.07181 0.64417 0.99221 0.0
C535 C 0.0419 0.6448 0.97127 0.0
H536 H 0.07458 0.37873 0.01416 0.0
H537 H 0.02156 0.3622 0.9162 0.0
H538 H 0.96493 0.36311 0.94573 0.0
H539 H 0.9302 0.36947 0.99938 0.0
H540 H 0.98289 0.39059 0.09672 0.0
H541 H 0.03961 0.38723 0.06763 0.0
C542 C 0.05057 0.37517 0.99946 0.0
C543 C 0.05211 0.37031 0.96322 0.0
C544 C 0.01797 0.37675 0.01646 0.0
C545 C 0.0209 0.36616 0.94421 0.0
C546 C 0.98852 0.36662 0.96104 0.0
C547 C 0.95413 0.37332 0.01413 0.0
C548 C 0.95237 0.38025 0.05004 0.0
C549 C 0.9867 0.37208 0.99713 0.0
C550 C 0.98355 0.38548 0.0689 0.0
C551 C 0.01604 0.38341 0.05235 0.0
loop_
_geom_bond_atom_site_label_1
_geom_bond_atom_site_label_2
_geom_bond_distance
_geom_bond_site_symmetry_2
_ccdc_geom_bond_type
O0 Cd1 2.223 . S
O0 C8 1.315 . S
Cd1 O0 2.223 . S
Cd1 O4 2.297 . S
Cd1 O5 2.439 . S
Cd1 O11 2.240 . S
Cd2 O3 2.240 . S
Cd2 O10 2.223 . S
Cd2 O12 2.297 . S
Cd2 O13 2.439 . S
O3 Cd2 2.240 . S
O3 C8 1.279 . S
O4 Cd1 2.297 . S
O4 C6 1.247 . S
O5 Cd1 2.439 . S
O5 C6 1.208 . S
C6 O4 1.247 . S
C6 O5 1.208 . S
C7 O12 1.247 . S
C7 O13 1.208 . S
C8 O0 1.315 . S
C8 O3 1.279 . S
C9 O10 1.315 . S
C9 O11 1.279 . S
O10 Cd2 2.223 . S
O10 C9 1.315 . S
O11 Cd1 2.240 . S
O11 C9 1.279 . S
O12 Cd2 2.297 . S
O12 C7 1.247 . S
O13 Cd2 2.439 . S
O13 C7 1.208 . S
O14 Cd15 2.223 . S
O14 C22 1.315 . S
Cd15 O14 2.223 . S
Cd15 O18 2.297 . S
Cd15 O19 2.439 . S
Cd15 O25 2.240 . S
Cd16 O17 2.240 . S
Cd16 O24 2.223 . S
Cd16 O26 2.297 . S
Cd16 O27 2.439 . S
O17 Cd16 2.240 . S
O17 C22 1.279 . S
O18 Cd15 2.297 . S
O18 C20 1.247 . S
O19 Cd15 2.439 . S
O19 C20 1.208 . S
C20 O18 1.247 . S
C20 O19 1.208 . S
C21 O26 1.247 . S
C21 O27 1.208 . S
C22 O14 1.315 . S
C22 O17 1.279 . S
C23 O24 1.315 . S
C23 O25 1.279 . S
O24 Cd16 2.223 . S
O24 C23 1.315 . S
O25 Cd15 2.240 . S
O25 C23 1.279 . S
O26 Cd16 2.297 . S
O26 C21 1.247 . S
O27 Cd16 2.439 . S
O27 C21 1.208 . S
O28 Cd29 2.223 . S
O28 C36 1.315 . S
Cd29 O28 2.223 . S
Cd29 O32 2.297 . S
Cd29 O33 2.439 . S
Cd29 O39 2.240 . S
Cd30 O31 2.240 . S
Cd30 O38 2.223 . S
Cd30 O40 2.297 . S
Cd30 O41 2.439 . S
O31 Cd30 2.240 . S
O31 C36 1.279 . S
O32 Cd29 2.297 . S
O32 C34 1.247 . S
O33 Cd29 2.439 . S
O33 C34 1.208 . S
C34 O32 1.247 . S
C34 O33 1.208 . S
C35 O40 1.247 . S
C35 O41 1.208 . S
C36 O28 1.315 . S
C36 O31 1.279 . S
C37 O38 1.315 . S
C37 O39 1.279 . S
O38 Cd30 2.223 . S
O38 C37 1.315 . S
O39 Cd29 2.240 . S
O39 C37 1.279 . S
O40 Cd30 2.297 . S
O40 C35 1.247 . S
O41 Cd30 2.439 . S
O41 C35 1.208 . S
O42 Cd43 2.223 . S
O42 C50 1.315 . S
Cd43 O42 2.223 . S
Cd43 O46 2.297 . S
Cd43 O47 2.439 . S
Cd43 O53 2.240 . S
Cd44 O45 2.240 . S
Cd44 O52 2.223 . S
Cd44 O54 2.297 . S
Cd44 O55 2.439 . S
O45 Cd44 2.240 . S
O45 C50 1.279 . S
O46 Cd43 2.297 . S
O46 C48 1.247 . S
O47 Cd43 2.439 . S
O47 C48 1.208 . S
C48 O46 1.247 . S
C48 O47 1.208 . S
C49 O54 1.247 . S
C49 O55 1.208 . S
C50 O42 1.315 . S
C50 O45 1.279 . S
C51 O52 1.315 . S
C51 O53 1.279 . S
O52 Cd44 2.223 . S
O52 C51 1.315 . S
O53 Cd43 2.240 . S
O53 C51 1.279 . S
O54 Cd44 2.297 . S
O54 C49 1.247 . S
O55 Cd44 2.439 . S
O55 C49 1.208 . S
O56 Cd57 2.223 . S
O56 C64 1.315 . S
Cd57 O56 2.223 . S
Cd57 O60 2.297 . S
Cd57 O61 2.439 . S
Cd57 O67 2.240 . S
Cd58 O59 2.240 . S
Cd58 O66 2.223 . S
Cd58 O68 2.297 . S
Cd58 O69 2.439 . S
O59 Cd58 2.240 . S
O59 C64 1.279 . S
O60 Cd57 2.297 . S
O60 C62 1.247 . S
O61 Cd57 2.439 . S
O61 C62 1.208 . S
C62 O60 1.247 . S
C62 O61 1.208 . S
C63 O68 1.247 . S
C63 O69 1.208 . S
C64 O56 1.315 . S
C64 O59 1.279 . S
C65 O66 1.315 . S
C65 O67 1.279 . S
O66 Cd58 2.223 . S
O66 C65 1.315 . S
O67 Cd57 2.240 . S
O67 C65 1.279 . S
O68 Cd58 2.297 . S
O68 C63 1.247 . S
O69 Cd58 2.439 . S
O69 C63 1.208 . S
O70 Cd71 2.223 . S
O70 C78 1.315 . S
Cd71 O70 2.223 . S
Cd71 O74 2.297 . S
Cd71 O75 2.439 . S
Cd71 O81 2.240 . S
Cd72 O73 2.240 . S
Cd72 O80 2.223 . S
Cd72 O82 2.297 . S
Cd72 O83 2.439 . S
O73 Cd72 2.240 . S
O73 C78 1.279 . S
O74 Cd71 2.297 . S
O74 C76 1.247 . S
O75 Cd71 2.439 . S
O75 C76 1.208 . S
C76 O74 1.247 . S
C76 O75 1.208 . S
C77 O82 1.247 . S
C77 O83 1.208 . S
C78 O70 1.315 . S
C78 O73 1.279 . S
C79 O80 1.315 . S
C79 O81 1.279 . S
O80 Cd72 2.223 . S
O80 C79 1.315 . S
O81 Cd71 2.240 . S
O81 C79 1.279 . S
O82 Cd72 2.297 . S
O82 C77 1.247 . S
O83 Cd72 2.439 . S
O83 C77 1.208 . S
O84 Cd85 2.223 . S
O84 C92 1.315 . S
Cd85 O84 2.223 . S
Cd85 O88 2.297 . S
Cd85 O89 2.439 . S
Cd85 O95 2.240 . S
Cd86 O87 2.240 . S
Cd86 O94 2.223 . S
Cd86 O96 2.297 . S
Cd86 O97 2.439 . S
O87 Cd86 2.240 . S
O87 C92 1.279 . S
O88 Cd85 2.297 . S
O88 C90 1.247 . S
O89 Cd85 2.439 . S
O89 C90 1.208 . S
C90 O88 1.247 . S
C90 O89 1.208 . S
C91 O96 1.247 . S
C91 O97 1.208 . S
C92 O84 1.315 . S
C92 O87 1.279 . S
C93 O94 1.315 . S
C93 O95 1.279 . S
O94 Cd86 2.223 . S
O94 C93 1.315 . S
O95 Cd85 2.240 . S
O95 C93 1.279 . S
O96 Cd86 2.297 . S
O96 C91 1.247 . S
O97 Cd86 2.439 . S
O97 C91 1.208 . S
O98 Cd99 2.223 . S
O98 C106 1.315 . S
Cd99 O98 2.223 . S
Cd99 O102 2.297 . S
Cd99 O103 2.439 . S
Cd99 O109 2.240 . S
Cd100 O101 2.240 . S
Cd100 O108 2.223 . S
Cd100 O110 2.297 . S
Cd100 O111 2.439 . S
O101 Cd100 2.240 . S
O101 C106 1.279 . S
O102 Cd99 2.297 . S
O102 C104 1.247 . S
O103 Cd99 2.439 . S
O103 C104 1.208 . S
C104 O102 1.247 . S
C104 O103 1.208 . S
C105 O110 1.247 . S
C105 O111 1.208 . S
C106 O98 1.315 . S
C106 O101 1.279 . S
C107 O108 1.315 . S
C107 O109 1.279 . S
O108 Cd100 2.223 . S
O108 C107 1.315 . S
O109 Cd99 2.240 . S
O109 C107 1.279 . S
O110 Cd100 2.297 . S
O110 C105 1.247 . S
O111 Cd100 2.439 . S
O111 C105 1.208 . S
O112 Cd113 2.223 . S
O112 C120 1.315 . S
Cd113 O112 2.223 . S
Cd113 O116 2.297 . S
Cd113 O117 2.439 . S
Cd113 O123 2.240 . S
Cd114 O115 2.240 . S
Cd114 O122 2.223 . S
Cd114 O124 2.297 . S
Cd114 O125 2.439 . S
O115 Cd114 2.240 . S
O115 C120 1.279 . S
O116 Cd113 2.297 . S
O116 C118 1.247 . S
O117 Cd113 2.439 . S
O117 C118 1.208 . S
C118 O116 1.247 . S
C118 O117 1.208 . S
C119 O124 1.247 . S
C119 O125 1.208 . S
C120 O112 1.315 . S
C120 O115 1.279 . S
C121 O122 1.315 . S
C121 O123 1.279 . S
O122 Cd114 2.223 . S
O122 C121 1.315 . S
O123 Cd113 2.240 . S
O123 C121 1.279 . S
O124 Cd114 2.297 . S
O124 C119 1.247 . S
O125 Cd114 2.439 . S
O125 C119 1.208 . S
O126 Cd127 2.223 . S
O126 C134 1.315 . S
Cd127 O126 2.223 . S
Cd127 O130 2.297 . S
Cd127 O131 2.439 . S
Cd127 O137 2.240 . S
Cd128 O129 2.240 . S
Cd128 O136 2.223 . S
Cd128 O138 2.297 . S
Cd128 O139 2.439 . S
O129 Cd128 2.240 . S
O129 C134 1.279 . S
O130 Cd127 2.297 . S
O130 C132 1.247 . S
O131 Cd127 2.439 . S
O131 C132 1.208 . S
C132 O130 1.247 . S
C132 O131 1.208 . S
C133 O138 1.247 . S
C133 O139 1.208 . S
C134 O126 1.315 . S
C134 O129 1.279 . S
C135 O136 1.315 . S
C135 O137 1.279 . S
O136 Cd128 2.223 . S
O136 C135 1.315 . S
O137 Cd127 2.240 . S
O137 C135 1.279 . S
O138 Cd128 2.297 . S
O138 C133 1.247 . S
O139 Cd128 2.439 . S
O139 C133 1.208 . S
O140 Cd141 2.223 . S
O140 C148 1.315 . S
Cd141 O140 2.223 . S
Cd141 O144 2.297 . S
Cd141 O145 2.439 . S
Cd141 O151 2.240 . S
Cd142 O143 2.240 . S
Cd142 O150 2.223 . S
Cd142 O152 2.297 . S
Cd142 O153 2.439 . S
O143 Cd142 2.240 . S
O143 C148 1.279 . S
O144 Cd141 2.297 . S
O144 C146 1.247 . S
O145 Cd141 2.439 . S
O145 C146 1.208 . S
C146 O144 1.247 . S
C146 O145 1.208 . S
C147 O152 1.247 . S
C147 O153 1.208 . S
C148 O140 1.315 . S
C148 O143 1.279 . S
C149 O150 1.315 . S
C149 O151 1.279 . S
O150 Cd142 2.223 . S
O150 C149 1.315 . S
O151 Cd141 2.240 . S
O151 C149 1.279 . S
O152 Cd142 2.297 . S
O152 C147 1.247 . S
O153 Cd142 2.439 . S
O153 C147 1.208 . S
O154 Cd155 2.223 . S
O154 C162 1.315 . S
Cd155 O154 2.223 . S
Cd155 O158 2.297 . S
Cd155 O159 2.439 . S
Cd155 O165 2.240 . S
Cd156 O157 2.240 . S
Cd156 O164 2.223 . S
Cd156 O166 2.297 . S
Cd156 O167 2.439 . S
O157 Cd156 2.240 . S
O157 C162 1.279 . S
O158 Cd155 2.297 . S
O158 C160 1.247 . S
O159 Cd155 2.439 . S
O159 C160 1.208 . S
C160 O158 1.247 . S
C160 O159 1.208 . S
C161 O166 1.247 . S
C161 O167 1.208 . S
C162 O154 1.315 . S
C162 O157 1.279 . S
C163 O164 1.315 . S
C163 O165 1.279 . S
O164 Cd156 2.223 . S
O164 C163 1.315 . S
O165 Cd155 2.240 . S
O165 C163 1.279 . S
O166 Cd156 2.297 . S
O166 C161 1.247 . S
O167 Cd156 2.439 . S
O167 C161 1.208 . S
H168 C174 0.930 . S
H169 C177 0.930 . S
H170 C178 0.930 . S
H171 C179 0.930 . S
H172 C182 0.930 . S
H173 C183 0.930 . S
C174 H168 0.930 . S
C174 C175 1.355 1_455 S
C174 C176 1.415 . S
C175 C174 1.355 1_655 S
C175 C177 1.419 . S
C176 C174 1.415 . S
C176 C181 1.425 1_455 S
C176 C183 1.409 . S
C177 H169 0.930 . S
C177 C175 1.419 . S
C177 C178 1.362 . S
C178 H170 0.930 . S
C178 C177 1.362 . S
C178 C181 1.409 . S
C179 H171 0.930 . S
C179 C180 1.355 1_655 S
C179 C181 1.415 . S
C180 C179 1.355 1_455 S
C180 C182 1.419 . S
C181 C176 1.425 1_655 S
C181 C178 1.409 . S
C181 C179 1.415 . S
C182 H172 0.930 . S
C182 C180 1.419 . S
C182 C183 1.362 . S
C183 H173 0.930 . S
C183 C176 1.409 . S
C183 C182 1.362 . S
H184 C190 0.930 . S
H185 C193 0.930 . S
H186 C194 0.930 . S
H187 C195 0.930 . S
H188 C198 0.930 . S
H189 C199 0.930 . S
C190 H184 0.930 . S
C190 C191 1.355 1_655 S
C190 C192 1.415 . S
C191 C190 1.355 1_455 S
C191 C193 1.419 . S
C192 C190 1.415 . S
C192 C197 1.425 1_655 S
C192 C199 1.409 . S
C193 H185 0.930 . S
C193 C191 1.419 . S
C193 C194 1.362 . S
C194 H186 0.930 . S
C194 C193 1.362 . S
C194 C197 1.409 . S
C195 H187 0.930 . S
C195 C196 1.355 1_455 S
C195 C197 1.415 . S
C196 C195 1.355 1_655 S
C196 C198 1.419 . S
C197 C192 1.425 1_455 S
C197 C194 1.409 . S
C197 C195 1.415 . S
C198 H188 0.930 . S
C198 C196 1.419 . S
C198 C199 1.362 . S
C199 H189 0.930 . S
C199 C192 1.409 . S
C199 C198 1.362 . S
H200 C206 0.930 . S
H201 C209 0.930 . S
H202 C210 0.930 . S
H203 C211 0.930 . S
H204 C214 0.930 . S
H205 C215 0.930 . S
C206 H200 0.930 . S
C206 C207 1.355 . S
C206 C208 1.415 . S
C207 C206 1.355 . S
C207 C209 1.419 1_565 S
C208 C206 1.415 . S
C208 C213 1.425 1_565 S
C208 C215 1.409 . S
C209 H201 0.930 . S
C209 C207 1.419 1_545 S
C209 C210 1.362 . S
C210 H202 0.930 . S
C210 C209 1.362 . S
C210 C213 1.409 . S
C211 H203 0.930 . S
C211 C212 1.355 . S
C211 C213 1.415 . S
C212 C211 1.355 . S
C212 C214 1.419 1_545 S
C213 C208 1.425 1_545 S
C213 C210 1.409 . S
C213 C211 1.415 . S
C214 H204 0.930 . S
C214 C212 1.419 1_565 S
C214 C215 1.362 . S
C215 H205 0.930 . S
C215 C208 1.409 . S
C215 C214 1.362 . S
H216 C222 0.930 . S
H217 C225 0.930 . S
H218 C226 0.930 . S
H219 C227 0.930 . S
H220 C230 0.930 . S
H221 C231 0.930 . S
C222 H216 0.930 . S
C222 C223 1.355 1_545 S
C222 C224 1.415 . S
C223 C222 1.355 1_565 S
C223 C225 1.419 . S
C224 C222 1.415 . S
C224 C229 1.425 1_545 S
C224 C231 1.409 . S
C225 H217 0.930 . S
C225 C223 1.419 . S
C225 C226 1.362 . S
C226 H218 0.930 . S
C226 C225 1.362 . S
C226 C229 1.409 . S
C227 H219 0.930 . S
C227 C228 1.355 1_565 S
C227 C229 1.415 . S
C228 C227 1.355 1_545 S
C228 C230 1.419 . S
C229 C224 1.425 1_565 S
C229 C226 1.409 . S
C229 C227 1.415 . S
C230 H220 0.930 . S
C230 C228 1.419 . S
C230 C231 1.362 . S
C231 H221 0.930 . S
C231 C224 1.409 . S
C231 C230 1.362 . S
H232 C238 0.930 . S
H233 C241 0.930 . S
H234 C242 0.930 . S
H235 C243 0.930 . S
H236 C246 0.930 . S
H237 C247 0.930 . S
C238 H232 0.930 . S
C238 C239 1.355 1_554 S
C238 C240 1.415 . S
C239 C238 1.355 1_556 S
C239 C241 1.419 . S
C240 C238 1.415 . S
C240 C245 1.425 1_554 S
C240 C247 1.409 . S
C241 H233 0.930 . S
C241 C239 1.419 . S
C241 C242 1.362 . S
C242 H234 0.930 . S
C242 C241 1.362 . S
C242 C245 1.409 . S
C243 H235 0.930 . S
C243 C244 1.355 1_556 S
C243 C245 1.415 . S
C244 C243 1.355 1_554 S
C244 C246 1.419 . S
C245 C240 1.425 1_556 S
C245 C242 1.409 . S
C245 C243 1.415 . S
C246 H236 0.930 . S
C246 C244 1.419 . S
C246 C247 1.362 . S
C247 H237 0.930 . S
C247 C240 1.409 . S
C247 C246 1.362 . S
H248 C254 0.930 . S
H249 C257 0.930 . S
H250 C258 0.930 . S
H251 C259 0.930 . S
H252 C262 0.930 . S
H253 C263 0.930 . S
C254 H248 0.930 . S
C254 C255 1.355 1_554 S
C254 C256 1.415 . S
C255 C254 1.355 1_556 S
C255 C257 1.419 . S
C256 C254 1.415 . S
C256 C261 1.425 1_554 S
C256 C263 1.409 . S
C257 H249 0.930 . S
C257 C255 1.419 . S
C257 C258 1.362 . S
C258 H250 0.930 . S
C258 C257 1.362 . S
C258 C261 1.409 . S
C259 H251 0.930 . S
C259 C260 1.355 1_556 S
C259 C261 1.415 . S
C260 C259 1.355 1_554 S
C260 C262 1.419 . S
C261 C256 1.425 1_556 S
C261 C258 1.409 . S
C261 C259 1.415 . S
C262 H252 0.930 . S
C262 C260 1.419 . S
C262 C263 1.362 . S
C263 H253 0.930 . S
C263 C256 1.409 . S
C263 C262 1.362 . S
H264 C270 0.930 . S
H265 C273 0.930 . S
H266 C274 0.930 . S
H267 C275 0.930 . S
H268 C278 0.930 . S
H269 C279 0.930 . S
C270 H264 0.930 . S
C270 C271 1.355 . S
C270 C272 1.415 . S
C271 C270 1.355 . S
C271 C273 1.419 . S
C272 C270 1.415 . S
C272 C277 1.425 . S
C272 C279 1.409 . S
C273 H265 0.930 . S
C273 C271 1.419 . S
C273 C274 1.362 . S
C274 H266 0.930 . S
C274 C273 1.362 . S
C274 C277 1.409 . S
C275 H267 0.930 . S
C275 C276 1.355 . S
C275 C277 1.415 . S
C276 C275 1.355 . S
C276 C278 1.419 . S
C277 C272 1.425 . S
C277 C274 1.409 . S
C277 C275 1.415 . S
C278 H268 0.930 . S
C278 C276 1.419 . S
C278 C279 1.362 . S
C279 H269 0.930 . S
C279 C272 1.409 . S
C279 C278 1.362 . S
H280 C286 0.930 . S
H281 C289 0.930 . S
H282 C290 0.930 . S
H283 C291 0.930 . S
H284 C294 0.930 . S
H285 C295 0.930 . S
C286 H280 0.930 . S
C286 C287 1.355 . S
C286 C288 1.415 . S
C287 C286 1.355 . S
C287 C289 1.419 . S
C288 C286 1.415 . S
C288 C293 1.425 . S
C288 C295 1.409 . S
C289 H281 0.930 . S
C289 C287 1.419 . S
C289 C290 1.362 . S
C290 H282 0.930 . S
C290 C289 1.362 . S
C290 C293 1.409 . S
C291 H283 0.930 . S
C291 C292 1.355 . S
C291 C293 1.415 . S
C292 C291 1.355 . S
C292 C294 1.419 . S
C293 C288 1.425 . S
C293 C290 1.409 . S
C293 C291 1.415 . S
C294 H284 0.930 . S
C294 C292 1.419 . S
C294 C295 1.362 . S
C295 H285 0.930 . S
C295 C288 1.409 . S
C295 C294 1.362 . S
H296 C302 0.930 . S
H297 C305 0.930 . S
H298 C306 0.930 . S
H299 C307 0.930 . S
H300 C310 0.930 . S
H301 C311 0.930 . S
C302 H296 0.930 . S
C302 C303 1.355 . S
C302 C304 1.415 . S
C303 C302 1.355 . S
C303 C305 1.419 . S
C304 C302 1.415 . S
C304 C309 1.425 . S
C304 C311 1.409 . S
C305 H297 0.930 . S
C305 C303 1.419 . S
C305 C306 1.362 . S
C306 H298 0.930 . S
C306 C305 1.362 . S
C306 C309 1.409 . S
C307 H299 0.930 . S
C307 C308 1.355 . S
C307 C309 1.415 . S
C308 C307 1.355 . S
C308 C310 1.419 . S
C309 C304 1.425 . S
C309 C306 1.409 . S
C309 C307 1.415 . S
C310 H300 0.930 . S
C310 C308 1.419 . S
C310 C311 1.362 . S
C311 H301 0.930 . S
C311 C304 1.409 . S
C311 C310 1.362 . S
H312 C318 0.930 . S
H313 C321 0.930 . S
H314 C322 0.930 . S
H315 C323 0.930 . S
H316 C326 0.930 . S
H317 C327 0.930 . S
C318 H312 0.930 . S
C318 C319 1.355 . S
C318 C320 1.415 . S
C319 C318 1.355 . S
C319 C321 1.419 . S
C320 C318 1.415 . S
C320 C325 1.425 . S
C320 C327 1.409 . S
C321 H313 0.930 . S
C321 C319 1.419 . S
C321 C322 1.362 . S
C322 H314 0.930 . S
C322 C321 1.362 . S
C322 C325 1.409 . S
C323 H315 0.930 . S
C323 C324 1.355 . S
C323 C325 1.415 . S
C324 C323 1.355 . S
C324 C326 1.419 . S
C325 C320 1.425 . S
C325 C322 1.409 . S
C325 C323 1.415 . S
C326 H316 0.930 . S
C326 C324 1.419 . S
C326 C327 1.362 . S
C327 H317 0.930 . S
C327 C320 1.409 . S
C327 C326 1.362 . S
H328 C334 0.930 . S
H329 C337 0.930 . S
H330 C338 0.930 . S
H331 C339 0.930 . S
H332 C342 0.930 . S
H333 C343 0.930 . S
C334 H328 0.930 . S
C334 C335 1.355 . S
C334 C336 1.415 . S
C335 C334 1.355 . S
C335 C337 1.419 . S
C336 C334 1.415 . S
C336 C341 1.425 . S
C336 C343 1.409 . S
C337 H329 0.930 . S
C337 C335 1.419 . S
C337 C338 1.362 . S
C338 H330 0.930 . S
C338 C337 1.362 . S
C338 C341 1.409 . S
C339 H331 0.930 . S
C339 C340 1.355 . S
C339 C341 1.415 . S
C340 C339 1.355 . S
C340 C342 1.419 . S
C341 C336 1.425 . S
C341 C338 1.409 . S
C341 C339 1.415 . S
C342 H332 0.930 . S
C342 C340 1.419 . S
C342 C343 1.362 . S
C343 H333 0.930 . S
C343 C336 1.409 . S
C343 C342 1.362 . S
H344 C350 0.930 . S
H345 C353 0.930 . S
H346 C354 0.930 . S
H347 C355 0.930 . S
H348 C358 0.930 . S
H349 C359 0.930 . S
C350 H344 0.930 . S
C350 C351 1.355 . S
C350 C352 1.415 . S
C351 C350 1.355 . S
C351 C353 1.419 . S
C352 C350 1.415 . S
C352 C357 1.425 . S
C352 C359 1.409 . S
C353 H345 0.930 . S
C353 C351 1.419 . S
C353 C354 1.362 . S
C354 H346 0.930 . S
C354 C353 1.362 . S
C354 C357 1.409 . S
C355 H347 0.930 . S
C355 C356 1.355 . S
C355 C357 1.415 . S
C356 C355 1.355 . S
C356 C358 1.419 . S
C357 C352 1.425 . S
C357 C354 1.409 . S
C357 C355 1.415 . S
C358 H348 0.930 . S
C358 C356 1.419 . S
C358 C359 1.362 . S
C359 H349 0.930 . S
C359 C352 1.409 . S
C359 C358 1.362 . S
H360 C366 0.930 . S
H361 C369 0.930 . S
H362 C370 0.930 . S
H363 C371 0.930 . S
H364 C374 0.930 . S
H365 C375 0.930 . S
C366 H360 0.930 . S
C366 C367 1.355 . S
C366 C368 1.415 . S
C367 C366 1.355 . S
C367 C369 1.419 . S
C368 C366 1.415 . S
C368 C373 1.425 . S
C368 C375 1.409 . S
C369 H361 0.930 . S
C369 C367 1.419 . S
C369 C370 1.362 . S
C370 H362 0.930 . S
C370 C369 1.362 . S
C370 C373 1.409 . S
C371 H363 0.930 . S
C371 C372 1.355 . S
C371 C373 1.415 . S
C372 C371 1.355 . S
C372 C374 1.419 . S
C373 C368 1.425 . S
C373 C370 1.409 . S
C373 C371 1.415 . S
C374 H364 0.930 . S
C374 C372 1.419 . S
C374 C375 1.362 . S
C375 H365 0.930 . S
C375 C368 1.409 . S
C375 C374 1.362 . S
H376 C382 0.930 . S
H377 C385 0.930 . S
H378 C386 0.930 . S
H379 C387 0.930 . S
H380 C390 0.930 . S
H381 C391 0.930 . S
C382 H376 0.930 . S
C382 C383 1.355 . S
C382 C384 1.415 . S
C383 C382 1.355 . S
C383 C385 1.419 . S
C384 C382 1.415 . S
C384 C389 1.425 . S
C384 C391 1.409 . S
C385 H377 0.930 . S
C385 C383 1.419 . S
C385 C386 1.362 . S
C386 H378 0.930 . S
C386 C385 1.362 . S
C386 C389 1.409 . S
C387 H379 0.930 . S
C387 C388 1.355 . S
C387 C389 1.415 . S
C388 C387 1.355 . S
C388 C390 1.419 . S
C389 C384 1.425 . S
C389 C386 1.409 . S
C389 C387 1.415 . S
C390 H380 0.930 . S
C390 C388 1.419 . S
C390 C391 1.362 . S
C391 H381 0.930 . S
C391 C384 1.409 . S
C391 C390 1.362 . S
H392 C398 0.930 . S
H393 C401 0.930 . S
H394 C402 0.930 . S
H395 C403 0.930 . S
H396 C406 0.930 . S
H397 C407 0.930 . S
C398 H392 0.930 . S
C398 C399 1.355 . S
C398 C400 1.415 . S
C399 C398 1.355 . S
C399 C401 1.419 . S
C400 C398 1.415 . S
C400 C405 1.425 . S
C400 C407 1.409 . S
C401 H393 0.930 . S
C401 C399 1.419 . S
C401 C402 1.362 . S
C402 H394 0.930 . S
C402 C401 1.362 . S
C402 C405 1.409 . S
C403 H395 0.930 . S
C403 C404 1.355 . S
C403 C405 1.415 . S
C404 C403 1.355 . S
C404 C406 1.419 . S
C405 C400 1.425 . S
C405 C402 1.409 . S
C405 C403 1.415 . S
C406 H396 0.930 . S
C406 C404 1.419 . S
C406 C407 1.362 . S
C407 H397 0.930 . S
C407 C400 1.409 . S
C407 C406 1.362 . S
H408 C414 0.930 . S
H409 C417 0.930 . S
H410 C418 0.930 . S
H411 C419 0.930 . S
H412 C422 0.930 . S
H413 C423 0.930 . S
C414 H408 0.930 . S
C414 C415 1.355 . S
C414 C416 1.415 . S
C415 C414 1.355 . S
C415 C417 1.419 . S
C416 C414 1.415 . S
C416 C421 1.425 . S
C416 C423 1.409 . S
C417 H409 0.930 . S
C417 C415 1.419 . S
C417 C418 1.362 . S
C418 H410 0.930 . S
C418 C417 1.362 . S
C418 C421 1.409 . S
C419 H411 0.930 . S
C419 C420 1.355 . S
C419 C421 1.415 . S
C420 C419 1.355 . S
C420 C422 1.419 . S
C421 C416 1.425 . S
C421 C418 1.409 . S
C421 C419 1.415 . S
C422 H412 0.930 . S
C422 C420 1.419 . S
C422 C423 1.362 . S
C423 H413 0.930 . S
C423 C416 1.409 . S
C423 C422 1.362 . S
H424 C430 0.930 . S
H425 C433 0.930 . S
H426 C434 0.930 . S
H427 C435 0.930 . S
H428 C438 0.930 . S
H429 C439 0.930 . S
C430 H424 0.930 . S
C430 C431 1.355 . S
C430 C432 1.415 . S
C431 C430 1.355 . S
C431 C433 1.419 . S
C432 C430 1.415 . S
C432 C437 1.425 . S
C432 C439 1.409 . S
C433 H425 0.930 . S
C433 C431 1.419 . S
C433 C434 1.362 . S
C434 H426 0.930 . S
C434 C433 1.362 . S
C434 C437 1.409 . S
C435 H427 0.930 . S
C435 C436 1.355 . S
C435 C437 1.415 . S
C436 C435 1.355 . S
C436 C438 1.419 . S
C437 C432 1.425 . S
C437 C434 1.409 . S
C437 C435 1.415 . S
C438 H428 0.930 . S
C438 C436 1.419 . S
C438 C439 1.362 . S
C439 H429 0.930 . S
C439 C432 1.409 . S
C439 C438 1.362 . S
H440 C446 0.930 . S
H441 C449 0.930 . S
H442 C450 0.930 . S
H443 C451 0.930 . S
H444 C454 0.930 . S
H445 C455 0.930 . S
C446 H440 0.930 . S
C446 C447 1.355 . S
C446 C448 1.415 . S
C447 C446 1.355 . S
C447 C449 1.419 . S
C448 C446 1.415 . S
C448 C453 1.425 . S
C448 C455 1.409 . S
C449 H441 0.930 . S
C449 C447 1.419 . S
C449 C450 1.362 . S
C450 H442 0.930 . S
C450 C449 1.362 . S
C450 C453 1.409 . S
C451 H443 0.930 . S
C451 C452 1.355 . S
C451 C453 1.415 . S
C452 C451 1.355 . S
C452 C454 1.419 . S
C453 C448 1.425 . S
C453 C450 1.409 . S
C453 C451 1.415 . S
C454 H444 0.930 . S
C454 C452 1.419 . S
C454 C455 1.362 . S
C455 H445 0.930 . S
C455 C448 1.409 . S
C455 C454 1.362 . S
H456 C462 0.930 . S
H457 C465 0.930 . S
H458 C466 0.930 1_565 S
H459 C467 0.930 . S
H460 C470 0.930 . S
H461 C471 0.930 1_545 S
C462 H456 0.930 . S
C462 C463 1.355 1_655 S
C462 C464 1.415 . S
C463 C462 1.355 1_455 S
C463 C465 1.419 . S
C464 C462 1.415 . S
C464 C469 1.425 1_645 S
C464 C471 1.409 1_545 S
C465 H457 0.930 . S
C465 C463 1.419 . S
C465 C466 1.362 . S
C466 H458 0.930 1_545 S
C466 C465 1.362 . S
C466 C469 1.409 1_545 S
C467 H459 0.930 . S
C467 C468 1.355 1_455 S
C467 C469 1.415 . S
C468 C467 1.355 1_655 S
C468 C470 1.419 . S
C469 C464 1.425 1_465 S
C469 C466 1.409 1_565 S
C469 C467 1.415 . S
C470 H460 0.930 . S
C470 C468 1.419 . S
C470 C471 1.362 . S
C471 H461 0.930 1_565 S
C471 C464 1.409 1_565 S
C471 C470 1.362 . S
H472 C478 0.930 1_455 S
H473 C481 0.930 . S
H474 C482 0.930 1_565 S
H475 C483 0.930 1_655 S
H476 C486 0.930 . S
H477 C487 0.930 1_545 S
C478 H472 0.930 1_655 S
C478 C479 1.355 . S
C478 C480 1.415 1_655 S
C479 C478 1.355 . S
C479 C481 1.419 . S
C480 C478 1.415 1_455 S
C480 C485 1.425 1_445 S
C480 C487 1.409 1_545 S
C481 H473 0.930 . S
C481 C479 1.419 . S
C481 C482 1.362 . S
C482 H474 0.930 1_545 S
C482 C481 1.362 . S
C482 C485 1.409 1_545 S
C483 H475 0.930 1_455 S
C483 C484 1.355 . S
C483 C485 1.415 1_455 S
C484 C483 1.355 . S
C484 C486 1.419 . S
C485 C480 1.425 1_665 S
C485 C482 1.409 1_565 S
C485 C483 1.415 1_655 S
C486 H476 0.930 . S
C486 C484 1.419 . S
C486 C487 1.362 . S
C487 H477 0.930 1_565 S
C487 C480 1.409 1_565 S
C487 C486 1.362 . S
H488 C494 0.930 . S
H489 C497 0.929 1_545 S
H490 C498 0.930 . S
H491 C499 0.930 . S
H492 C502 0.929 1_565 S
H493 C503 0.930 . S
C494 H488 0.930 . S
C494 C495 1.355 . S
C494 C496 1.415 . S
C495 C494 1.355 . S
C495 C497 1.419 . S
C496 C494 1.415 . S
C496 C501 1.425 1_566 S
C496 C503 1.409 1_556 S
C497 H489 0.929 1_565 S
C497 C495 1.419 . S
C497 C498 1.362 1_565 S
C498 H490 0.930 . S
C498 C497 1.362 1_545 S
C498 C501 1.409 1_556 S
C499 H491 0.930 . S
C499 C500 1.355 . S
C499 C501 1.415 . S
C500 C499 1.355 . S
C500 C502 1.419 . S
C501 C496 1.425 1_544 S
C501 C498 1.409 1_554 S
C501 C499 1.415 . S
C502 H492 0.929 1_545 S
C502 C500 1.419 . S
C502 C503 1.362 1_545 S
C503 H493 0.930 . S
C503 C496 1.409 1_554 S
C503 C502 1.362 1_565 S
H504 C510 0.930 . S
H505 C513 0.930 . S
H506 C514 0.930 . S
H507 C515 0.930 . S
H508 C518 0.930 . S
H509 C519 0.930 . S
C510 H504 0.930 . S
C510 C511 1.355 . S
C510 C512 1.415 . S
C511 C510 1.355 . S
C511 C513 1.419 . S
C512 C510 1.415 . S
C512 C517 1.425 1_564 S
C512 C519 1.409 1_554 S
C513 H505 0.930 . S
C513 C511 1.419 . S
C513 C514 1.362 1_565 S
C514 H506 0.930 . S
C514 C513 1.362 1_545 S
C514 C517 1.409 1_554 S
C515 H507 0.930 . S
C515 C516 1.355 . S
C515 C517 1.415 . S
C516 C515 1.355 . S
C516 C518 1.419 . S
C517 C512 1.425 1_546 S
C517 C514 1.409 1_556 S
C517 C515 1.415 . S
C518 H508 0.930 . S
C518 C516 1.419 . S
C518 C519 1.362 1_545 S
C519 H509 0.930 . S
C519 C512 1.409 1_556 S
C519 C518 1.362 1_565 S
H520 C526 0.930 . S
H521 C529 0.930 . S
H522 C530 0.930 . S
H523 C531 0.930 . S
H524 C534 0.930 . S
H525 C535 0.930 . S
C526 H520 0.930 . S
C526 C527 1.355 . S
C526 C528 1.415 1_556 S
C527 C526 1.355 . S
C527 C529 1.419 . S
C528 C526 1.415 1_554 S
C528 C533 1.425 1_654 S
C528 C535 1.409 1_655 S
C529 H521 0.930 . S
C529 C527 1.419 . S
C529 C530 1.362 . S
C530 H522 0.930 . S
C530 C529 1.362 . S
C530 C533 1.409 1_655 S
C531 H523 0.930 . S
C531 C532 1.355 . S
C531 C533 1.415 1_554 S
C532 C531 1.355 . S
C532 C534 1.419 . S
C533 C528 1.425 1_456 S
C533 C530 1.409 1_455 S
C533 C531 1.415 1_556 S
C534 H524 0.930 . S
C534 C532 1.419 . S
C534 C535 1.362 . S
C535 H525 0.930 . S
C535 C528 1.409 1_455 S
C535 C534 1.362 . S
H536 C542 0.930 . S
H537 C545 0.930 . S
H538 C546 0.930 1_655 S
H539 C547 0.930 . S
H540 C550 0.930 . S
H541 C551 0.930 1_455 S
C542 H536 0.930 . S
C542 C543 1.355 1_554 S
C542 C544 1.415 . S
C543 C542 1.355 1_556 S
C543 C545 1.419 . S
C544 C542 1.415 . S
C544 C549 1.425 1_454 S
C544 C551 1.409 1_455 S
C545 H537 0.930 . S
C545 C543 1.419 . S
C545 C546 1.362 . S
C546 H538 0.930 1_455 S
C546 C545 1.362 . S
C546 C549 1.409 1_455 S
C547 H539 0.930 . S
C547 C548 1.355 1_556 S
C547 C549 1.415 . S
C548 C547 1.355 1_554 S
C548 C550 1.419 . S
C549 C544 1.425 1_656 S
C549 C546 1.409 1_655 S
C549 C547 1.415 . S
C550 H540 0.930 . S
C550 C548 1.419 . S
C550 C551 1.362 . S
C551 H541 0.930 1_655 S
C551 C544 1.409 1_655 S
C551 C550 1.362 . S
C175 C48 1.074 . S
C180 C6 1.141 . S
C191 C34 1.078 . S
C196 C20 1.123 . S
C207 C76 1.138 . S
C212 C62 1.160 . S
C223 C90 1.079 . S
C228 C104 1.120 . S
C239 C132 1.075 . S
C244 C118 1.150 . S
C255 C146 1.110 . S
C260 C160 1.085 . S
C271 C9 1.211 . S
C276 C105 1.051 . S
C287 C91 1.048 . S
C292 C23 1.203 . S
C303 C77 1.140 . S
C308 C37 1.168 . S
C319 C63 1.030 . S
C324 C51 1.211 . S
C335 C65 1.164 . S
C340 C161 1.164 . S
C351 C119 1.165 . S
C356 C79 1.162 . S
C367 C147 1.021 . S
C372 C93 1.218 . S
C383 C107 1.181 . S
C388 C133 1.133 . S
C399 C35 1.041 . S
C404 C121 1.214 . S
C415 C7 1.165 . S
C420 C135 1.162 . S
C431 C149 1.202 . S
C436 C21 1.080 . S
C447 C49 1.152 . S
C452 C163 1.172 . S
C463 C8 1.450 . S
C468 C22 1.430 . S
C479 C50 1.427 . S
C484 C36 1.454 . S
C495 C92 1.428 . S
C500 C64 1.476 . S
C511 C78 1.425 . S
C516 C106 1.474 . S
C527 C148 1.424 . S
C532 C120 1.464 . S
C543 C134 1.450 . S
C548 C162 1.430 . S
