# Generated by pormake.
# Topology uox, (4)-cn, num edge types: 1
# Building blocks:
#     Node 0, Type 0, BuildingBlock: AZAVOO_clean_sbu_0, # of connection points: 4
#     Node 1, Type 0, BuildingBlock: AZAVOO_clean_sbu_0, # of connection points: 4
#     Node 2, Type 0, BuildingBlock: AZAVOO_clean_sbu_0, # of connection points: 4
#     Node 3, Type 0, BuildingBlock: AZAVOO_clean_sbu_0, # of connection points: 4
#     Node 4, Type 0, BuildingBlock: AZAVOO_clean_sbu_0, # of connection points: 4
#     Node 5, Type 0, BuildingBlock: AZAVOO_clean_sbu_0, # of connection points: 4
#     Node 6, Type 0, BuildingBlock: AZAVOO_clean_sbu_0, # of connection points: 4
#     Node 7, Type 0, BuildingBlock: AZAVOO_clean_sbu_0, # of connection points: 4
#     Node 8, Type 0, BuildingBlock: AZAVOO_clean_sbu_0, # of connection points: 4
#     Node 9, Type 0, BuildingBlock: AZAVOO_clean_sbu_0, # of connection points: 4
#     Node 10, Type 0, BuildingBlock: AZAVOO_clean_sbu_0, # of connection points: 4
#     Node 11, Type 0, BuildingBlock: AZAVOO_clean_sbu_0, # of connection points: 4
#     Node 12, Type 0, BuildingBlock: AZAVOO_clean_sbu_0, # of connection points: 4
#     Node 13, Type 0, BuildingBlock: AZAVOO_clean_sbu_0, # of connection points: 4
#     Node 14, Type 0, BuildingBlock: AZAVOO_clean_sbu_0, # of connection points: 4
#     Node 15, Type 0, BuildingBlock: AZAVOO_clean_sbu_0, # of connection points: 4
#     Node 16, Type 0, BuildingBlock: AZAVOO_clean_sbu_0, # of connection points: 4
#     Node 17, Type 0, BuildingBlock: AZAVOO_clean_sbu_0, # of connection points: 4
#     Node 18, Type 0, BuildingBlock: AZAVOO_clean_sbu_0, # of connection points: 4
#     Node 19, Type 0, BuildingBlock: AZAVOO_clean_sbu_0, # of connection points: 4
#     Node 20, Type 0, BuildingBlock: AZAVOO_clean_sbu_0, # of connection points: 4
#     Node 21, Type 0, BuildingBlock: AZAVOO_clean_sbu_0, # of connection points: 4
#     Node 22, Type 0, BuildingBlock: AZAVOO_clean_sbu_0, # of connection points: 4
#     Node 23, Type 0, BuildingBlock: AZAVOO_clean_sbu_0, # of connection points: 4
#     Node 24, Type 0, BuildingBlock: AZAVOO_clean_sbu_0, # of connection points: 4
#     Node 25, Type 0, BuildingBlock: AZAVOO_clean_sbu_0, # of connection points: 4
#     Node 26, Type 0, BuildingBlock: AZAVOO_clean_sbu_0, # of connection points: 4
#     Node 27, Type 0, BuildingBlock: AZAVOO_clean_sbu_0, # of connection points: 4
#     Node 28, Type 0, BuildingBlock: AZAVOO_clean_sbu_0, # of connection points: 4
#     Node 29, Type 0, BuildingBlock: AZAVOO_clean_sbu_0, # of connection points: 4
#     Node 30, Type 0, BuildingBlock: AZAVOO_clean_sbu_0, # of connection points: 4
#     Node 31, Type 0, BuildingBlock: AZAVOO_clean_sbu_0, # of connection points: 4
#     Edge 32, Type (0, 0), BuildingBlock: XIVTED_clean_linker_0, # of connection points: 2
#     Edge 33, Type (0, 0), BuildingBlock: XIVTED_clean_linker_0, # of connection points: 2
#     Edge 34, Type (0, 0), BuildingBlock: XIVTED_clean_linker_0, # of connection points: 2
#     Edge 35, Type (0, 0), BuildingBlock: XIVTED_clean_linker_0, # of connection points: 2
#     Edge 36, Type (0, 0), BuildingBlock: XIVTED_clean_linker_0, # of connection points: 2
#     Edge 37, Type (0, 0), BuildingBlock: XIVTED_clean_linker_0, # of connection points: 2
#     Edge 38, Type (0, 0), BuildingBlock: XIVTED_clean_linker_0, # of connection points: 2
#     Edge 39, Type (0, 0), BuildingBlock: XIVTED_clean_linker_0, # of connection points: 2
#     Edge 40, Type (0, 0), BuildingBlock: XIVTED_clean_linker_0, # of connection points: 2
#     Edge 41, Type (0, 0), BuildingBlock: XIVTED_clean_linker_0, # of connection points: 2
#     Edge 42, Type (0, 0), BuildingBlock: XIVTED_clean_linker_0, # of connection points: 2
#     Edge 43, Type (0, 0), BuildingBlock: XIVTED_clean_linker_0, # of connection points: 2
#     Edge 44, Type (0, 0), BuildingBlock: XIVTED_clean_linker_0, # of connection points: 2
#     Edge 45, Type (0, 0), BuildingBlock: XIVTED_clean_linker_0, # of connection points: 2
#     Edge 46, Type (0, 0), BuildingBlock: XIVTED_clean_linker_0, # of connection points: 2
#     Edge 47, Type (0, 0), BuildingBlock: XIVTED_clean_linker_0, # of connection points: 2
#     Edge 48, Type (0, 0), BuildingBlock: XIVTED_clean_linker_0, # of connection points: 2
#     Edge 49, Type (0, 0), BuildingBlock: XIVTED_clean_linker_0, # of connection points: 2
#     Edge 50, Type (0, 0), BuildingBlock: XIVTED_clean_linker_0, # of connection points: 2
#     Edge 51, Type (0, 0), BuildingBlock: XIVTED_clean_linker_0, # of connection points: 2
#     Edge 52, Type (0, 0), BuildingBlock: XIVTED_clean_linker_0, # of connection points: 2
#     Edge 53, Type (0, 0), BuildingBlock: XIVTED_clean_linker_0, # of connection points: 2
#     Edge 54, Type (0, 0), BuildingBlock: XIVTED_clean_linker_0, # of connection points: 2
#     Edge 55, Type (0, 0), BuildingBlock: XIVTED_clean_linker_0, # of connection points: 2
#     Edge 56, Type (0, 0), BuildingBlock: XIVTED_clean_linker_0, # of connection points: 2
#     Edge 57, Type (0, 0), BuildingBlock: XIVTED_clean_linker_0, # of connection points: 2
#     Edge 58, Type (0, 0), BuildingBlock: XIVTED_clean_linker_0, # of connection points: 2
#     Edge 59, Type (0, 0), BuildingBlock: XIVTED_clean_linker_0, # of connection points: 2
#     Edge 60, Type (0, 0), BuildingBlock: XIVTED_clean_linker_0, # of connection points: 2
#     Edge 61, Type (0, 0), BuildingBlock: XIVTED_clean_linker_0, # of connection points: 2
#     Edge 62, Type (0, 0), BuildingBlock: XIVTED_clean_linker_0, # of connection points: 2
#     Edge 63, Type (0, 0), BuildingBlock: XIVTED_clean_linker_0, # of connection points: 2
#     Edge 64, Type (0, 0), BuildingBlock: XIVTED_clean_linker_0, # of connection points: 2
#     Edge 65, Type (0, 0), BuildingBlock: XIVTED_clean_linker_0, # of connection points: 2
#     Edge 66, Type (0, 0), BuildingBlock: XIVTED_clean_linker_0, # of connection points: 2
#     Edge 67, Type (0, 0), BuildingBlock: XIVTED_clean_linker_0, # of connection points: 2
#     Edge 68, Type (0, 0), BuildingBlock: XIVTED_clean_linker_0, # of connection points: 2
#     Edge 69, Type (0, 0), BuildingBlock: XIVTED_clean_linker_0, # of connection points: 2
#     Edge 70, Type (0, 0), BuildingBlock: XIVTED_clean_linker_0, # of connection points: 2
#     Edge 71, Type (0, 0), BuildingBlock: XIVTED_clean_linker_0, # of connection points: 2
#     Edge 72, Type (0, 0), BuildingBlock: XIVTED_clean_linker_0, # of connection points: 2
#     Edge 73, Type (0, 0), BuildingBlock: XIVTED_clean_linker_0, # of connection points: 2
#     Edge 74, Type (0, 0), BuildingBlock: XIVTED_clean_linker_0, # of connection points: 2
#     Edge 75, Type (0, 0), BuildingBlock: XIVTED_clean_linker_0, # of connection points: 2
#     Edge 76, Type (0, 0), BuildingBlock: XIVTED_clean_linker_0, # of connection points: 2
#     Edge 77, Type (0, 0), BuildingBlock: XIVTED_clean_linker_0, # of connection points: 2
#     Edge 78, Type (0, 0), BuildingBlock: XIVTED_clean_linker_0, # of connection points: 2
#     Edge 79, Type (0, 0), BuildingBlock: XIVTED_clean_linker_0, # of connection points: 2
#     Edge 80, Type (0, 0), BuildingBlock: XIVTED_clean_linker_0, # of connection points: 2
#     Edge 81, Type (0, 0), BuildingBlock: XIVTED_clean_linker_0, # of connection points: 2
#     Edge 82, Type (0, 0), BuildingBlock: XIVTED_clean_linker_0, # of connection points: 2
#     Edge 83, Type (0, 0), BuildingBlock: XIVTED_clean_linker_0, # of connection points: 2
#     Edge 84, Type (0, 0), BuildingBlock: XIVTED_clean_linker_0, # of connection points: 2
#     Edge 85, Type (0, 0), BuildingBlock: XIVTED_clean_linker_0, # of connection points: 2
#     Edge 86, Type (0, 0), BuildingBlock: XIVTED_clean_linker_0, # of connection points: 2
#     Edge 87, Type (0, 0), BuildingBlock: XIVTED_clean_linker_0, # of connection points: 2
#     Edge 88, Type (0, 0), BuildingBlock: XIVTED_clean_linker_0, # of connection points: 2
#     Edge 89, Type (0, 0), BuildingBlock: XIVTED_clean_linker_0, # of connection points: 2
#     Edge 90, Type (0, 0), BuildingBlock: XIVTED_clean_linker_0, # of connection points: 2
#     Edge 91, Type (0, 0), BuildingBlock: XIVTED_clean_linker_0, # of connection points: 2
#     Edge 92, Type (0, 0), BuildingBlock: XIVTED_clean_linker_0, # of connection points: 2
#     Edge 93, Type (0, 0), BuildingBlock: XIVTED_clean_linker_0, # of connection points: 2
#     Edge 94, Type (0, 0), BuildingBlock: XIVTED_clean_linker_0, # of connection points: 2
#     Edge 95, Type (0, 0), BuildingBlock: XIVTED_clean_linker_0, # of connection points: 2
# Relax obj value: 0.135
# Max RMSD: 0.161
# Mean RMSD: 0.161
data_MOF--net-uox--node1-AZAVOO_clean_sbu_0--edge1-XIVTED_clean_linker_0
_symmetry_space_group_name_H-M    P1
_symmetry_Int_Tables_number       1
_symmetry_cell_setting            triclinic
loop_
_symmetry_equiv_pos_as_xyz
'x, y, z'
_cell_length_a     42.867898
_cell_length_b     42.85095
_cell_length_c     81.587508
_cell_angle_alpha  89.957154
_cell_angle_beta   90.035739
_cell_angle_gamma 90.013245
loop_
_atom_site_label
_atom_site_type_symbol
_atom_site_fract_x
_atom_site_fract_y
_atom_site_fract_z
_atom_type_partial_charge
Mg0 Mg 0.49909 0.99193 0.14749 0.0
O1 O 0.4609 0.0296 0.14874 0.0
O2 O 0.42247 0.01096 0.16441 0.0
Mg3 Mg 0.43465 0.96107 0.1724 0.0
C4 C 0.43429 0.03259 0.1556 0.0
C5 C 0.538 0.05465 0.14213 0.0
O6 O 0.52116 0.06479 0.15448 0.0
O7 O 0.51473 1.00188 0.17393 0.0
O8 O 0.47621 0.97758 0.18746 0.0
O9 O 0.47487 0.96999 0.12575 0.0
O10 O 0.46611 0.9572 0.15148 0.0
C11 C 0.50242 0.99168 0.18716 0.0
C12 C 0.45929 0.95365 0.13631 0.0
O13 O 0.53383 0.02704 0.13686 0.0
Mg14 Mg 0.2502 0.24421 0.39396 0.0
O15 O 0.21405 0.20464 0.39531 0.0
O16 O 0.23401 0.16672 0.4109 0.0
Mg17 Mg 0.28325 0.18099 0.41904 0.0
C18 C 0.21202 0.17783 0.40208 0.0
C19 C 0.22004 0.29318 0.37076 0.0
O20 O 0.24776 0.28979 0.36413 0.0
O21 O 0.23952 0.25949 0.42039 0.0
O22 O 0.26489 0.22183 0.43405 0.0
O23 O 0.27288 0.22048 0.37231 0.0
O24 O 0.28622 0.21248 0.39803 0.0
C25 C 0.24986 0.24751 0.43367 0.0
C26 C 0.28974 0.20549 0.38288 0.0
O27 O 0.21325 0.27719 0.38341 0.0
Mg28 Mg 0.01195 0.99525 0.65085 0.0
O29 O 0.04822 0.95635 0.64676 0.0
O30 O 0.09315 0.97106 0.65821 0.0
Mg31 Mg 0.08609 0.01879 0.66999 0.0
C32 C 0.07688 0.95141 0.65016 0.0
C33 C 0.9575 0.96884 0.62974 0.0
O34 O 0.96305 0.99538 0.62221 0.0
O35 O 0.00495 0.98188 0.6779 0.0
O36 O 0.05069 0.99859 0.68781 0.0
O37 O 0.02961 0.02046 0.6283 0.0
O38 O 0.04721 0.02838 0.65331 0.0
C39 C 0.02377 0.98645 0.68982 0.0
C40 C 0.04888 0.03467 0.63799 0.0
O41 O 0.9737 0.96177 0.64226 0.0
Mg42 Mg 0.26187 0.77312 0.89977 0.0
O43 O 0.29841 0.81281 0.89775 0.0
O44 O 0.28009 0.85333 0.912 0.0
Mg45 Mg 0.23315 0.84052 0.9232 0.0
C46 C 0.30095 0.84081 0.903 0.0
C47 C 0.28686 0.71872 0.87874 0.0
O48 O 0.25736 0.71995 0.8744 0.0
O49 O 0.27587 0.76138 0.92625 0.0
O50 O 0.25617 0.80324 0.939 0.0
O51 O 0.23553 0.79335 0.87827 0.0
O52 O 0.22654 0.80536 0.90408 0.0
C53 C 0.27025 0.777 0.93926 0.0
C54 C 0.22018 0.8097 0.8889 0.0
O55 O 0.29692 0.73826 0.88921 0.0
Mg56 Mg 0.48701 0.00418 0.34179 0.0
O57 O 0.44896 0.96657 0.34071 0.0
O58 O 0.40997 0.98459 0.32524 0.0
Mg59 Mg 0.42187 0.03459 0.31722 0.0
C60 C 0.4222 0.96322 0.33408 0.0
C61 C 0.54036 0.97561 0.36296 0.0
O62 O 0.53927 0.00412 0.36884 0.0
O63 O 0.50229 0.99489 0.31526 0.0
O64 O 0.46358 0.01924 0.30193 0.0
O65 O 0.46307 0.02614 0.36368 0.0
O66 O 0.45388 0.03898 0.33801 0.0
C67 C 0.48995 0.00544 0.30211 0.0
C68 C 0.44738 0.0426 0.35321 0.0
O69 O 0.52142 0.96796 0.35166 0.0
Mg70 Mg 0.23645 0.23928 0.58915 0.0
O71 O 0.27583 0.20274 0.58832 0.0
O72 O 0.2585 0.16183 0.57404 0.0
Mg73 Mg 0.20783 0.17108 0.56627 0.0
C74 C 0.27984 0.17555 0.58226 0.0
C75 C 0.29344 0.27254 0.60751 0.0
O76 O 0.29923 0.24423 0.61287 0.0
O77 O 0.2442 0.25285 0.5622 0.0
O78 O 0.22126 0.2121 0.54991 0.0
O79 O 0.21651 0.21606 0.61176 0.0
O80 O 0.20326 0.20427 0.58644 0.0
C81 C 0.23397 0.23902 0.5494 0.0
C82 C 0.20049 0.19879 0.6018 0.0
O83 O 0.27029 0.27714 0.59805 0.0
Mg84 Mg 0.01984 0.00654 0.84545 0.0
O85 O 0.05979 0.04257 0.84724 0.0
O86 O 0.10072 0.02384 0.83349 0.0
Mg87 Mg 0.08734 0.97686 0.82244 0.0
C88 C 0.08794 0.04494 0.84224 0.0
C89 C 0.96882 0.03581 0.86781 0.0
O90 O 0.97134 0.00786 0.87432 0.0
O91 O 0.00854 0.02034 0.81889 0.0
O92 O 0.05071 1.00044 0.8065 0.0
O93 O 0.04001 0.9807 0.86715 0.0
O94 O 0.05171 0.97077 0.84138 0.0
C95 C 0.0246 0.01472 0.80604 0.0
C96 C 0.05625 0.96499 0.85661 0.0
O97 O 0.98594 0.04283 0.85564 0.0
Mg98 Mg 0.25489 0.76058 0.09361 0.0
O99 O 0.21665 0.79873 0.09546 0.0
O100 O 0.23322 0.83965 0.08087 0.0
Mg101 Mg 0.28059 0.8288 0.0697 0.0
C102 C 0.2129 0.82645 0.08995 0.0
C103 C 0.19358 0.72069 0.1019 0.0
O104 O 0.18026 0.73908 0.09107 0.0
O105 O 0.24067 0.74773 0.06724 0.0
O106 O 0.25865 0.79032 0.05439 0.0
O107 O 0.28051 0.78219 0.11488 0.0
O108 O 0.28866 0.79441 0.08901 0.0
C109 C 0.24547 0.76362 0.05422 0.0
C110 C 0.29494 0.79918 0.10416 0.0
O111 O 0.22241 0.72417 0.10511 0.0
Mg112 Mg 0.52076 0.01505 0.84055 0.0
O113 O 0.55853 0.97721 0.8392 0.0
O114 O 0.59857 0.99618 0.82485 0.0
Mg115 Mg 0.58754 0.04689 0.81777 0.0
C116 C 0.58565 0.97418 0.83295 0.0
C117 C 0.46953 0.98418 0.86208 0.0
O118 O 0.47352 0.01103 0.86957 0.0
O119 O 0.50686 0.00813 0.81353 0.0
O120 O 0.54664 0.03304 0.80145 0.0
O121 O 0.54369 0.03492 0.86327 0.0
O122 O 0.55439 0.04994 0.8381 0.0
C123 C 0.52011 0.01956 0.80083 0.0
C124 C 0.56008 0.05216 0.85348 0.0
O125 O 0.48568 0.97833 0.84938 0.0
Mg126 Mg 0.73909 0.76887 0.59264 0.0
O127 O 0.77674 0.80738 0.59495 0.0
O128 O 0.76063 0.84829 0.58022 0.0
Mg129 Mg 0.71399 0.83672 0.56833 0.0
C130 C 0.78057 0.83516 0.58957 0.0
C131 C 0.80058 0.72958 0.60046 0.0
O132 O 0.81288 0.74751 0.5891 0.0
O133 O 0.75465 0.75621 0.56656 0.0
O134 O 0.73733 0.79859 0.55328 0.0
O135 O 0.71243 0.79024 0.61358 0.0
O136 O 0.70512 0.80233 0.5876 0.0
C137 C 0.75066 0.77197 0.55343 0.0
C138 C 0.69828 0.80712 0.6027 0.0
O139 O 0.77204 0.73312 0.60429 0.0
Mg140 Mg 0.98925 1.00221 0.34487 0.0
O141 O 0.9495 0.03833 0.34729 0.0
O142 O 0.90786 0.01995 0.33399 0.0
Mg143 Mg 0.92039 0.97301 0.32264 0.0
C144 C 0.92115 0.04091 0.34262 0.0
C145 C 0.04101 0.03218 0.36705 0.0
O146 O 0.0388 0.00457 0.37398 0.0
O147 O 0.99923 0.01634 0.31815 0.0
O148 O 0.95636 0.99654 0.30638 0.0
O149 O 0.96993 0.97542 0.36662 0.0
O150 O 0.95721 0.96652 0.34091 0.0
C151 C 0.98246 0.01078 0.30552 0.0
C152 C 0.95345 0.95994 0.35609 0.0
O153 O 0.02365 0.03845 0.35484 0.0
Mg154 Mg 0.75915 0.24502 0.09866 0.0
O155 O 0.72162 0.20685 0.10156 0.0
O156 O 0.73761 0.16408 0.08843 0.0
Mg157 Mg 0.78461 0.17457 0.07657 0.0
C158 C 0.71758 0.17855 0.09714 0.0
C159 C 0.73104 0.29677 0.12155 0.0
O160 O 0.75823 0.29274 0.12869 0.0
O161 O 0.74436 0.2551 0.07203 0.0
O162 O 0.76176 0.21115 0.06035 0.0
O163 O 0.78557 0.22488 0.12028 0.0
O164 O 0.79339 0.21138 0.09458 0.0
C165 C 0.74858 0.2378 0.05946 0.0
C166 C 0.80004 0.20751 0.10975 0.0
O167 O 0.72448 0.28073 0.1089 0.0
Mg168 Mg 0.50096 0.00746 0.64526 0.0
O169 O 0.54242 0.04167 0.64648 0.0
O170 O 0.57937 0.01915 0.66177 0.0
Mg171 Mg 0.56293 0.97055 0.66976 0.0
C172 C 0.5694 0.04199 0.65317 0.0
C173 C 0.4537 0.03846 0.62194 0.0
O174 O 0.45726 0.01047 0.61565 0.0
O175 O 0.48696 0.01866 0.67191 0.0
O176 O 0.52369 0.99105 0.68509 0.0
O177 O 0.52302 0.98362 0.62339 0.0
O178 O 0.53077 0.96984 0.64905 0.0
C179 C 0.49887 0.00747 0.68504 0.0
C180 C 0.53721 0.9659 0.63387 0.0
O181 O 0.46923 0.04561 0.63469 0.0
Mg182 Mg 0.74971 0.7648 0.39778 0.0
O183 O 0.71443 0.80557 0.39576 0.0
O184 O 0.73409 0.84592 0.40968 0.0
Mg185 Mg 0.78048 0.83172 0.42104 0.0
C186 C 0.71274 0.83375 0.40085 0.0
C187 C 0.72127 0.71349 0.37525 0.0
O188 O 0.74971 0.71564 0.36935 0.0
O189 O 0.73473 0.75397 0.42426 0.0
O190 O 0.75538 0.79576 0.43669 0.0
O191 O 0.77695 0.78441 0.37634 0.0
O192 O 0.78604 0.79597 0.40219 0.0
C193 C 0.74036 0.77007 0.43712 0.0
C194 C 0.79265 0.80027 0.38705 0.0
O195 O 0.71346 0.73111 0.38709 0.0
Mg196 Mg 0.98992 0.99769 0.15004 0.0
O197 O 0.95055 0.96133 0.14707 0.0
O198 O 0.90859 0.97884 0.16037 0.0
Mg199 Mg 0.92054 0.02559 0.17216 0.0
C200 C 0.92218 0.95831 0.15159 0.0
C201 C 0.03995 0.96777 0.12702 0.0
O202 O 0.03501 0.99433 0.11939 0.0
O203 O 0.99957 0.98292 0.17664 0.0
O204 O 0.95648 1.00195 0.18851 0.0
O205 O 0.97094 0.02494 0.12839 0.0
O206 O 0.95748 0.03305 0.15406 0.0
C207 C 0.98271 0.98795 0.18927 0.0
C208 C 0.95411 0.04006 0.1389 0.0
O209 O 0.02482 0.96199 0.14007 0.0
Mg210 Mg 0.75936 0.2451 0.90289 0.0
O211 O 0.79532 0.20498 0.90169 0.0
O212 O 0.77496 0.16381 0.91467 0.0
Mg213 Mg 0.7272 0.17713 0.9247 0.0
C214 C 0.79696 0.17666 0.90657 0.0
C215 C 0.79043 0.29532 0.88086 0.0
O216 O 0.76351 0.29114 0.87347 0.0
O217 O 0.77119 0.25541 0.92983 0.0
O218 O 0.75004 0.21296 0.94141 0.0
O219 O 0.73552 0.22574 0.88041 0.0
O220 O 0.72309 0.21305 0.90574 0.0
C221 C 0.76452 0.23891 0.9424 0.0
C222 C 0.71888 0.20901 0.89033 0.0
O223 O 0.79642 0.27943 0.89365 0.0
Mg224 Mg 0.98436 0.50773 0.6503 0.0
O225 O 0.94714 0.54581 0.64629 0.0
O226 O 0.90386 0.53174 0.65955 0.0
Mg227 Mg 0.91262 0.48491 0.67205 0.0
C228 C 0.9189 0.55083 0.65052 0.0
C229 C 0.03412 0.53612 0.62625 0.0
O230 O 0.02598 0.51119 0.61792 0.0
O231 O 0.99378 0.5233 0.67684 0.0
O232 O 0.94964 0.50646 0.68851 0.0
O233 O 0.96502 0.47976 0.62896 0.0
O234 O 0.9499 0.47429 0.65455 0.0
C235 C 0.97655 0.51911 0.68944 0.0
C236 C 0.94708 0.46612 0.63953 0.0
O237 O 0.02133 0.5412 0.64006 0.0
Mg238 Mg 0.75107 0.74725 0.8931 0.0
O239 O 0.716 0.70628 0.89152 0.0
O240 O 0.73631 0.66609 0.90534 0.0
Mg241 Mg 0.78305 0.68067 0.9162 0.0
C242 C 0.71461 0.67812 0.89667 0.0
C243 C 0.72171 0.79755 0.8704 0.0
O244 O 0.74982 0.79487 0.86415 0.0
O245 O 0.73687 0.75814 0.91972 0.0
O246 O 0.75834 0.71655 0.932 0.0
O247 O 0.77754 0.72757 0.87143 0.0
O248 O 0.78766 0.71634 0.89722 0.0
C249 C 0.74316 0.74212 0.93253 0.0
C250 C 0.79366 0.71187 0.88203 0.0
O251 O 0.71436 0.78061 0.88261 0.0
Mg252 Mg 0.51797 0.5042 0.15033 0.0
O253 O 0.55739 0.46798 0.15157 0.0
O254 O 0.5969 0.48884 0.16563 0.0
Mg255 Mg 0.58375 0.53898 0.17277 0.0
C256 C 0.5848 0.46625 0.15764 0.0
C257 C 0.46653 0.47213 0.12954 0.0
O258 O 0.46869 0.49952 0.12237 0.0
O259 O 0.50489 0.49666 0.17739 0.0
O260 O 0.54384 0.52331 0.18925 0.0
O261 O 0.53975 0.52476 0.1275 0.0
O262 O 0.5501 0.54036 0.15262 0.0
C263 C 0.51797 0.50863 0.19 0.0
C264 C 0.5556 0.5426 0.13724 0.0
O265 O 0.4841 0.46628 0.14172 0.0
Mg266 Mg 0.7549 0.26775 0.40309 0.0
O267 O 0.79121 0.3073 0.40043 0.0
O268 O 0.77216 0.34939 0.41307 0.0
Mg269 Mg 0.7246 0.33771 0.42389 0.0
C270 C 0.79351 0.33584 0.40483 0.0
C271 C 0.78262 0.21461 0.38202 0.0
O272 O 0.75445 0.21764 0.37586 0.0
O273 O 0.76804 0.25917 0.43013 0.0
O274 O 0.74678 0.30219 0.44088 0.0
O275 O 0.72923 0.28585 0.38071 0.0
O276 O 0.71921 0.30013 0.40607 0.0
C277 C 0.76117 0.2763 0.44245 0.0
C278 C 0.71341 0.30306 0.39075 0.0
O279 O 0.79074 0.23233 0.39376 0.0
Mg280 Mg 0.99426 0.51089 0.84451 0.0
O281 O 0.95588 0.473 0.84656 0.0
O282 O 0.91532 0.48924 0.83161 0.0
Mg283 Mg 0.9267 0.53631 0.82007 0.0
C284 C 0.92827 0.46916 0.84096 0.0
C285 C 0.03381 0.44947 0.85268 0.0
O286 O 0.01591 0.43667 0.84146 0.0
O287 O 0.00733 0.49574 0.81836 0.0
O288 O 0.96526 0.51374 0.80504 0.0
O289 O 0.97246 0.53735 0.86546 0.0
O290 O 0.96082 0.54485 0.83946 0.0
C291 C 0.99184 0.50036 0.8052 0.0
C292 C 0.95579 0.5516 0.85453 0.0
O293 O 0.03011 0.47813 0.85625 0.0
Mg294 Mg 0.75758 0.73292 0.08836 0.0
O295 O 0.7939 0.69304 0.08991 0.0
O296 O 0.77393 0.65177 0.07687 0.0
Mg297 Mg 0.72617 0.66449 0.06666 0.0
C298 C 0.79574 0.66471 0.08507 0.0
C299 C 0.78557 0.78496 0.10985 0.0
O300 O 0.75743 0.78144 0.11596 0.0
O301 O 0.76952 0.74321 0.0614 0.0
O302 O 0.74842 0.70065 0.04997 0.0
O303 O 0.73339 0.71379 0.11077 0.0
O304 O 0.72165 0.70063 0.08541 0.0
C305 C 0.76272 0.72669 0.04885 0.0
C306 C 0.71699 0.69692 0.10081 0.0
O307 O 0.79376 0.76785 0.09787 0.0
Mg308 Mg 0.51405 0.49998 0.34608 0.0
O309 O 0.55293 0.5368 0.34537 0.0
O310 O 0.59238 0.51782 0.33059 0.0
Mg311 Mg 0.57971 0.46809 0.32244 0.0
C312 C 0.58011 0.53955 0.33913 0.0
C313 C 0.46541 0.53215 0.36902 0.0
O314 O 0.46991 0.50582 0.37694 0.0
O315 O 0.50024 0.5097 0.31933 0.0
O316 O 0.53932 0.48484 0.30656 0.0
O317 O 0.53666 0.47759 0.36822 0.0
O318 O 0.54646 0.4644 0.34268 0.0
C319 C 0.51327 0.49923 0.30636 0.0
C320 C 0.55232 0.46073 0.35795 0.0
O321 O 0.48026 0.53697 0.35577 0.0
Mg322 Mg 0.75882 0.25574 0.5988 0.0
O323 O 0.7241 0.29672 0.59821 0.0
O324 O 0.74521 0.33567 0.5838 0.0
Mg325 Mg 0.79286 0.31954 0.57445 0.0
C326 C 0.72295 0.32432 0.59232 0.0
C327 C 0.72508 0.20605 0.62094 0.0
O328 O 0.75277 0.20595 0.62786 0.0
O329 O 0.74666 0.24219 0.57233 0.0
O330 O 0.76963 0.28184 0.55904 0.0
O331 O 0.78305 0.27811 0.62048 0.0
O332 O 0.79594 0.28617 0.5947 0.0
C333 C 0.75439 0.25628 0.55914 0.0
C334 C 0.8001 0.29274 0.60986 0.0
O335 O 0.72016 0.22419 0.60887 0.0
Mg336 Mg 0.01316 0.50618 0.34084 0.0
O337 O 0.05117 0.46853 0.3399 0.0
O338 O 0.09039 0.48656 0.32461 0.0
Mg339 Mg 0.07843 0.53634 0.31628 0.0
C340 C 0.07805 0.4652 0.3334 0.0
C341 C 0.96344 0.47708 0.3639 0.0
O342 O 0.9679 0.50443 0.37079 0.0
O343 O 0.99798 0.49626 0.31433 0.0
O344 O 0.03702 0.52013 0.30101 0.0
O345 O 0.03721 0.52818 0.36264 0.0
O346 O 0.04631 0.54093 0.33695 0.0
C347 C 0.01067 0.50629 0.30117 0.0
C348 C 0.05297 0.54446 0.35214 0.0
O349 O 0.97887 0.47024 0.3511 0.0
Mg350 Mg 0.26137 0.25633 0.09792 0.0
O351 O 0.29618 0.29746 0.09861 0.0
O352 O 0.27572 0.33661 0.08406 0.0
Mg353 Mg 0.2287 0.3211 0.07372 0.0
C354 C 0.29749 0.32524 0.09292 0.0
C355 C 0.29248 0.20669 0.12076 0.0
O356 O 0.26458 0.2085 0.12735 0.0
O357 O 0.27515 0.24386 0.07148 0.0
O358 O 0.25274 0.28401 0.05835 0.0
O359 O 0.23542 0.27744 0.11938 0.0
O360 O 0.22456 0.28688 0.09347 0.0
C361 C 0.26806 0.25851 0.05835 0.0
C362 C 0.21907 0.2925 0.10861 0.0
O363 O 0.29882 0.22389 0.10849 0.0
Mg364 Mg 0.48982 0.50471 0.83903 0.0
O365 O 0.45015 0.54074 0.84199 0.0
O366 O 0.40743 0.52155 0.83001 0.0
Mg367 Mg 0.41933 0.47432 0.81879 0.0
C368 C 0.42137 0.54295 0.83805 0.0
C369 C 0.54293 0.53457 0.85976 0.0
O370 O 0.54076 0.50686 0.86658 0.0
O371 O 0.49739 0.51803 0.81204 0.0
O372 O 0.45362 0.49773 0.80146 0.0
O373 O 0.4726 0.47896 0.8615 0.0
O374 O 0.45766 0.46873 0.83624 0.0
C375 C 0.47953 0.51208 0.79988 0.0
C376 C 0.45523 0.46297 0.85159 0.0
O377 O 0.52487 0.54127 0.84791 0.0
Mg378 Mg 0.25433 0.73333 0.59018 0.0
O379 O 0.21487 0.69667 0.591 0.0
O380 O 0.22834 0.65744 0.57447 0.0
Mg381 Mg 0.27612 0.66811 0.56335 0.0
C382 C 0.20931 0.67015 0.58447 0.0
C383 C 0.19439 0.77373 0.59912 0.0
O384 O 0.18158 0.75722 0.58734 0.0
O385 O 0.24044 0.75041 0.56467 0.0
O386 O 0.25661 0.71012 0.54936 0.0
O387 O 0.27912 0.70824 0.61041 0.0
O388 O 0.28668 0.69885 0.58413 0.0
C389 C 0.24471 0.73728 0.55081 0.0
C390 C 0.29282 0.69203 0.59911 0.0
O391 O 0.22284 0.76906 0.60283 0.0
Mg392 Mg 0.01713 0.4923 0.14602 0.0
O393 O 0.05275 0.53196 0.14498 0.0
O394 O 0.09422 0.519 0.16001 0.0
Mg395 Mg 0.08596 0.46953 0.17011 0.0
C396 C 0.0797 0.53815 0.15075 0.0
C397 C 0.96545 0.51978 0.12269 0.0
O398 O 0.97063 0.49326 0.11509 0.0
O399 O 0.00318 0.50415 0.17246 0.0
O400 O 0.04442 0.48423 0.18575 0.0
O401 O 0.04089 0.46849 0.12457 0.0
O402 O 0.0524 0.45991 0.15046 0.0
C403 C 0.01719 0.49628 0.18566 0.0
C404 C 0.05798 0.45427 0.13534 0.0
O405 O 0.98068 0.52592 0.13566 0.0
Mg406 Mg 0.25795 0.26924 0.90271 0.0
O407 O 0.21939 0.30598 0.899 0.0
O408 O 0.23471 0.35044 0.9107 0.0
Mg409 Mg 0.28296 0.34286 0.92192 0.0
C410 C 0.21473 0.33457 0.90265 0.0
C411 C 0.23026 0.21593 0.88125 0.0
O412 O 0.25658 0.22158 0.87355 0.0
O413 O 0.24531 0.26194 0.92991 0.0
O414 O 0.26392 0.30693 0.93976 0.0
O415 O 0.28312 0.28705 0.88011 0.0
O416 O 0.29158 0.30399 0.90516 0.0
C417 C 0.25144 0.28019 0.9419 0.0
C418 C 0.29781 0.30583 0.88986 0.0
O419 O 0.22383 0.23157 0.89405 0.0
Mg420 Mg 0.49 0.49369 0.64341 0.0
O421 O 0.45021 0.45758 0.64076 0.0
O422 O 0.40713 0.47821 0.65171 0.0
Mg423 Mg 0.4194 0.52521 0.66303 0.0
C424 C 0.42115 0.4562 0.64421 0.0
C425 C 0.54636 0.46561 0.62481 0.0
O426 O 0.54658 0.49464 0.61961 0.0
O427 O 0.49726 0.48115 0.67059 0.0
O428 O 0.45322 0.50181 0.68057 0.0
O429 O 0.47258 0.51904 0.62064 0.0
O430 O 0.45815 0.5297 0.64589 0.0
C431 C 0.47901 0.48742 0.68254 0.0
C432 C 0.45551 0.53528 0.63056 0.0
O433 O 0.52533 0.45719 0.63487 0.0
Mg434 Mg 0.25332 0.74056 0.39638 0.0
O435 O 0.29099 0.70249 0.39803 0.0
O436 O 0.27227 0.66381 0.4135 0.0
Mg437 Mg 0.22224 0.6757 0.42108 0.0
C438 C 0.29398 0.67582 0.40485 0.0
C439 C 0.28309 0.7902 0.37323 0.0
O440 O 0.25592 0.78589 0.36612 0.0
O441 O 0.26186 0.75671 0.42296 0.0
O442 O 0.2376 0.71765 0.43607 0.0
O443 O 0.23184 0.71598 0.37454 0.0
O444 O 0.21844 0.70745 0.40018 0.0
C445 C 0.25128 0.74408 0.43603 0.0
C446 C 0.21514 0.70058 0.38501 0.0
O447 O 0.28946 0.77478 0.38614 0.0
H448 H 0.52083 0.95589 0.28808 0.0
H449 H 0.52247 0.04504 0.2023 0.0
H450 H 0.49764 0.0528 0.28082 0.0
H451 H 0.51745 0.94519 0.2079 0.0
H452 H 0.53416 0.04965 0.23171 0.0
H453 H 0.53956 0.95355 0.25956 0.0
C454 C 0.52046 0.97679 0.2806 0.0
C455 C 0.5071 0.00435 0.28653 0.0
C456 C 0.53143 0.02666 0.22638 0.0
C457 C 0.52845 1.00205 0.25428 0.0
C458 C 0.52502 0.02409 0.20962 0.0
C459 C 0.51865 0.99477 0.2029 0.0
C460 C 0.53138 0.9997 0.23627 0.0
C461 C 0.5219 0.96823 0.21281 0.0
C462 C 0.53106 0.97549 0.26438 0.0
C463 C 0.50718 0.03091 0.27648 0.0
N464 N 0.52755 0.97132 0.22908 0.0
N465 N 0.5173 0.02903 0.26079 0.0
H466 H 0.28188 0.272 0.53509 0.0
H467 H 0.19536 0.26516 0.44846 0.0
H468 H 0.18719 0.24144 0.52737 0.0
H469 H 0.29514 0.26436 0.45478 0.0
H470 H 0.18951 0.27691 0.4778 0.0
H471 H 0.28408 0.28884 0.50623 0.0
C472 C 0.26139 0.26958 0.52742 0.0
C473 C 0.23458 0.25475 0.53337 0.0
C474 C 0.2127 0.27508 0.47264 0.0
C475 C 0.23669 0.27403 0.50073 0.0
C476 C 0.21598 0.26863 0.45593 0.0
C477 C 0.24571 0.2635 0.44941 0.0
C478 C 0.23938 0.27638 0.4827 0.0
C479 C 0.27181 0.26788 0.45952 0.0
C480 C 0.26261 0.2791 0.51101 0.0
C481 C 0.20853 0.25218 0.52305 0.0
N482 N 0.26806 0.27363 0.47574 0.0
N483 N 0.21033 0.26139 0.50719 0.0
H484 H 0.05258 0.04709 0.78195 0.0
H485 H 0.96609 0.99881 0.70319 0.0
H486 H 0.97013 0.99335 0.79273 0.0
H487 H 0.05903 0.96797 0.71542 0.0
H488 H 0.95696 0.01046 0.73248 0.0
H489 H 0.04388 0.03819 0.75273 0.0
C490 C 0.03181 0.03468 0.77809 0.0
C491 C 0.01204 0.02091 0.78964 0.0
C492 C 0.97892 1.00032 0.72867 0.0
C493 C 1.00261 0.00985 0.75647 0.0
C494 C 0.98405 0.99331 0.71208 0.0
C495 C 0.0135 0.98271 0.70693 0.0
C496 C 0.00361 0.99694 0.73981 0.0
C497 C 0.03615 0.97644 0.71886 0.0
C498 C 0.02708 0.0293 0.76149 0.0
C499 C 0.98568 0.00452 0.78407 0.0
N500 N 0.031 0.98434 0.73468 0.0
N501 N 0.98204 0.99869 0.76775 0.0
H502 H 0.29546 0.80586 0.96543 0.0
H503 H 0.27083 0.71085 0.04113 0.0
H504 H 0.25444 0.71867 0.95025 0.0
H505 H 0.21073 0.78864 0.03007 0.0
H506 H 0.28072 0.70421 0.01154 0.0
H507 H 0.28628 0.79146 0.99402 0.0
C508 C 0.28571 0.78311 0.96817 0.0
C509 C 0.27566 0.76341 0.95556 0.0
C510 C 0.26428 0.72172 0.01564 0.0
C511 C 0.26448 0.7473 0.98804 0.0
C512 C 0.25832 0.72531 0.03243 0.0
C513 C 0.23988 0.7503 0.03792 0.0
C514 C 0.25175 0.74343 0.00461 0.0
C515 C 0.22497 0.76906 0.02626 0.0
C516 C 0.28025 0.77507 0.98441 0.0
C517 C 0.26273 0.7343 0.95972 0.0
N518 N 0.23189 0.76578 0.01016 0.0
N519 N 0.25674 0.7273 0.97573 0.0
H520 H 0.48359 0.9738 0.78674 0.0
H521 H 0.48814 0.06279 0.70071 0.0
H522 H 0.51977 0.06649 0.77879 0.0
H523 H 0.4786 0.96321 0.70593 0.0
H524 H 0.48069 0.0684 0.73042 0.0
H525 H 0.46403 0.97359 0.75832 0.0
C526 C 0.48686 0.99425 0.77911 0.0
C527 C 0.50393 0.01987 0.78488 0.0
C528 C 0.47926 0.04539 0.72498 0.0
C529 C 0.48143 0.02008 0.75275 0.0
C530 C 0.48318 0.0423 0.70804 0.0
C531 C 0.48414 0.01254 0.70104 0.0
C532 C 0.47646 0.01849 0.73481 0.0
C533 C 0.47814 0.98655 0.71102 0.0
C534 C 0.47574 0.99417 0.76296 0.0
C535 C 0.50739 0.04594 0.77463 0.0
N536 N 0.47504 0.99005 0.72746 0.0
N537 N 0.49652 0.04528 0.75903 0.0
H538 H 0.75445 0.71285 0.45025 0.0
H539 H 0.78606 0.79818 0.52996 0.0
H540 H 0.71235 0.80164 0.46146 0.0
H541 H 0.72916 0.71754 0.54011 0.0
H542 H 0.78087 0.7878 0.50063 0.0
H543 H 0.76064 0.70303 0.47995 0.0
C544 C 0.74514 0.72951 0.45895 0.0
C545 C 0.73291 0.75813 0.45353 0.0
C546 C 0.7705 0.77173 0.50933 0.0
C547 C 0.74077 0.74753 0.48691 0.0
C548 C 0.7737 0.77745 0.526 0.0
C549 C 0.75807 0.75863 0.53735 0.0
C550 C 0.75133 0.74727 0.50402 0.0
C551 C 0.74178 0.73233 0.53163 0.0
C552 C 0.74902 0.72403 0.47579 0.0
C553 C 0.72192 0.77935 0.4652 0.0
N554 N 0.73808 0.72776 0.5152 0.0
N555 N 0.72678 0.77396 0.48135 0.0
H556 H 0.03964 0.99559 0.2927 0.0
H557 H 0.95255 0.95781 0.21346 0.0
H558 H 0.95063 0.03614 0.2804 0.0
H559 H 0.03802 0.00676 0.20283 0.0
H560 H 0.96153 0.96627 0.2427 0.0
H561 H 0.04904 0.98588 0.26325 0.0
C562 C 0.02283 0.00379 0.28377 0.0
C563 C 0.99425 0.01656 0.28888 0.0
C564 C 0.97884 0.97422 0.23396 0.0
C565 C 0.0043 0.00459 0.25579 0.0
C566 C 0.97393 0.96911 0.21736 0.0
C567 C 0.99456 0.98165 0.20583 0.0
C568 C 0.00441 0.99214 0.23903 0.0
C569 C 0.02176 0.99656 0.21145 0.0
C570 C 0.02805 0.99789 0.26708 0.0
C571 C 0.97287 0.02614 0.27692 0.0
N572 N 0.02565 1.00213 0.22778 0.0
N573 N 0.97798 0.01925 0.26097 0.0
H574 H 0.79513 0.20805 0.96611 0.0
H575 H 0.76296 0.29494 0.04611 0.0
H576 H 0.7456 0.29369 0.95659 0.0
H577 H 0.72218 0.20551 0.03482 0.0
H578 H 0.77032 0.30429 0.01645 0.0
H579 H 0.78842 0.21654 -0.0045 0.0
C580 C 0.78399 0.22932 0.97027 0.0
C581 C 0.77091 0.25022 0.95904 0.0
C582 C 0.75881 0.28319 0.02057 0.0
C583 C 0.76242 0.25952 0.99244 0.0
C584 C 0.75427 0.27798 0.03739 0.0
C585 C 0.74212 0.24931 0.04282 0.0
C586 C 0.75137 0.25936 0.00947 0.0
C587 C 0.73181 0.22779 0.0311 0.0
C588 C 0.7799 0.23397 0.98697 0.0
C589 C 0.75624 0.27726 0.965 0.0
N590 N 0.73737 0.23292 0.015 0.0
N591 N 0.75171 0.28092 0.98144 0.0
H592 H 0.03707 0.51251 0.70046 0.0
H593 H 0.97018 0.4591 0.78313 0.0
H594 H 0.94368 0.53435 0.71651 0.0
H595 H 0.04093 0.52914 0.79038 0.0
H596 H 0.97564 0.46552 0.75348 0.0
H597 H 0.05205 0.50358 0.72937 0.0
C598 C 0.02009 0.51653 0.71006 0.0
C599 C 0.98898 0.52386 0.70613 0.0
C600 C 0.99093 0.47848 0.76159 0.0
C601 C 0.00562 0.51276 0.73863 0.0
C602 C 0.98809 0.47456 0.77844 0.0
C603 C 0.00526 0.49349 0.78909 0.0
C604 C 0.01081 0.50165 0.75543 0.0
C605 C 0.0276 0.51389 0.78245 0.0
C606 C 0.02858 0.51109 0.72643 0.0
C607 C 0.96778 0.52836 0.71898 0.0
N608 N 0.0292 0.51815 0.76591 0.0
N609 N 0.97631 0.52207 0.7346 0.0
H610 H 0.78297 0.69367 0.02294 0.0
H611 H 0.76485 0.79496 0.9474 0.0
H612 H 0.75151 0.78558 0.0367 0.0
H613 H 0.70833 0.71319 0.95529 0.0
H614 H 0.77237 0.79936 0.97731 0.0
H615 H 0.77399 0.70679 0.99422 0.0
C616 C 0.77518 0.71701 0.01984 0.0
C617 C 0.76776 0.73852 0.03214 0.0
C618 C 0.75725 0.78135 0.97244 0.0
C619 C 0.75687 0.75331 -0.00055 0.0
C620 C 0.75261 0.77904 0.95547 0.0
C621 C 0.73587 0.75369 0.949 0.0
C622 C 0.74535 0.75788 0.98265 0.0
C623 C 0.72127 0.73308 0.95986 0.0
C624 C 0.76977 0.72432 0.00353 0.0
C625 C 0.75763 0.76847 0.02749 0.0
N626 N 0.72704 0.73512 0.97614 0.0
N627 N 0.75188 0.77496 0.01139 0.0
H628 H 0.49688 0.45117 0.28702 0.0
H629 H 0.50793 0.55797 0.20965 0.0
H630 H 0.49555 0.55156 0.28942 0.0
H631 H 0.49324 0.45866 0.20672 0.0
H632 H 0.49236 0.55698 0.23835 0.0
H633 H 0.48411 0.45377 0.25789 0.0
C634 C 0.49298 0.47379 0.28142 0.0
C635 C 0.49745 0.50123 0.29045 0.0
C636 C 0.49185 0.53543 0.23144 0.0
C637 C 0.48391 0.50449 0.25709 0.0
C638 C 0.5008 0.53599 0.21506 0.0
C639 C 0.50228 0.50825 0.20599 0.0
C640 C 0.48516 0.50675 0.23895 0.0
C641 C 0.49254 0.48047 0.2134 0.0
C642 C 0.48577 0.47528 0.2648 0.0
C643 C 0.49226 0.52994 0.28278 0.0
N644 N 0.48505 0.48028 0.22962 0.0
N645 N 0.48643 0.53087 0.26639 0.0
H646 H 0.70794 0.27477 0.53928 0.0
H647 H 0.76533 0.2156 0.45406 0.0
H648 H 0.786 0.21178 0.54221 0.0
H649 H 0.76622 0.31194 0.46958 0.0
H650 H 0.75924 0.19975 0.48309 0.0
H651 H 0.71003 0.27148 0.50936 0.0
C652 C 0.72438 0.2589 0.53361 0.0
C653 C 0.74665 0.24332 0.54307 0.0
C654 C 0.7612 0.22424 0.47996 0.0
C655 C 0.74984 0.2403 0.50911 0.0
C656 C 0.76503 0.2333 0.46353 0.0
C657 C 0.76586 0.26517 0.45941 0.0
C658 C 0.75767 0.24734 0.49199 0.0
C659 C 0.76512 0.28716 0.47213 0.0
C660 C 0.72581 0.25731 0.5166 0.0
C661 C 0.76822 0.22377 0.53519 0.0
N662 N 0.76048 0.27786 0.48777 0.0
N663 N 0.76983 0.22331 0.51852 0.0
H664 H 0.98922 0.45387 0.28556 0.0
H665 H 0.98895 0.54629 0.20067 0.0
H666 H 0.99664 0.55375 0.28088 0.0
H667 H 0.00885 0.44831 0.20638 0.0
H668 H 0.97215 0.54809 0.22954 0.0
H669 H 0.97623 0.45065 0.25624 0.0
C670 C 0.98701 0.47513 0.27846 0.0
C671 C 0.99435 0.50404 0.28541 0.0
C672 C 0.97946 0.52605 0.22431 0.0
C673 C 0.98006 0.50068 0.25215 0.0
C674 C 0.98892 0.52507 0.2079 0.0
C675 C 1.00074 0.49727 0.20141 0.0
C676 C 0.98174 0.49898 0.23406 0.0
C677 C 1.00034 0.47031 0.21115 0.0
C678 C 0.97982 0.47335 0.26176 0.0
C679 C 0.99146 0.531 0.27578 0.0
N680 N 0.99139 0.47189 0.22705 0.0
N681 N 0.98499 0.52866 0.25956 0.0
H682 H 0.31283 0.27925 0.03806 0.0
H683 H 0.24752 0.21963 0.95386 0.0
H684 H 0.23798 0.21257 0.04168 0.0
H685 H 0.25133 0.31606 0.96918 0.0
H686 H 0.25695 0.20377 0.98262 0.0
H687 H 0.30889 0.27696 0.00818 0.0
C688 C 0.29676 0.26281 0.03251 0.0
C689 C 0.27584 0.24593 0.0422 0.0
C690 C 0.25538 0.2283 0.97952 0.0
C691 C 0.2704 0.24411 0.00828 0.0
C692 C 0.24965 0.23738 0.96324 0.0
C693 C 0.24905 0.26926 0.95907 0.0
C694 C 0.26113 0.25133 0.99135 0.0
C695 C 0.25214 0.29126 0.9717 0.0
C696 C 0.29421 0.26184 0.01553 0.0
C697 C 0.25473 0.22561 0.03448 0.0
N698 N 0.2586 0.28189 0.98715 0.0
N699 N 0.25195 0.22576 0.01784 0.0
H700 H 0.44586 0.53957 0.77614 0.0
H701 H 0.53622 0.49846 0.69674 0.0
H702 H 0.53456 0.4954 0.78518 0.0
H703 H 0.44264 0.46742 0.70725 0.0
H704 H 0.54402 0.50863 0.7263 0.0
H705 H 0.45284 0.53083 0.74682 0.0
C706 C 0.46741 0.52916 0.77185 0.0
C707 C 0.48961 0.51806 0.78299 0.0
C708 C 0.5222 0.49875 0.72206 0.0
C709 C 0.49723 0.50714 0.74966 0.0
C710 C 0.51786 0.49255 0.70532 0.0
C711 C 0.48864 0.48232 0.69964 0.0
C712 C 0.49694 0.49504 0.7328 0.0
C713 C 0.46539 0.47556 0.71115 0.0
C714 C 0.47117 0.52382 0.7552 0.0
C715 C 0.51705 0.50443 0.77686 0.0
N716 N 0.46979 0.48273 0.72712 0.0
N717 N 0.51993 0.4987 0.76048 0.0
H718 H 0.2819 0.78263 0.53854 0.0
H719 H 0.3005 0.76377 0.45502 0.0
H720 H 0.19883 0.72958 0.52831 0.0
H721 H 0.20016 0.76101 0.45259 0.0
H722 H 0.2969 0.77627 0.48434 0.0
H723 H 0.28377 0.79907 0.50969 0.0
C724 C 0.26341 0.77547 0.5303 0.0
C725 C 0.24006 0.75493 0.53565 0.0
C726 C 0.27564 0.77434 0.47726 0.0
C727 C 0.24257 0.77258 0.50281 0.0
C728 C 0.27778 0.76722 0.46053 0.0
C729 C 0.25059 0.7613 0.45156 0.0
C730 C 0.24611 0.77508 0.48485 0.0
C731 C 0.22163 0.76532 0.45923 0.0
C732 C 0.26477 0.78441 0.51383 0.0
C733 C 0.21701 0.74563 0.52458 0.0
N734 N 0.22014 0.77123 0.47551 0.0
N735 N 0.21896 0.75438 0.50862 0.0
H736 H 0.42726 0.91361 0.15603 0.0
H737 H 0.33082 0.83493 0.08387 0.0
H738 H 0.43351 0.94445 0.10575 0.0
H739 H 0.31096 0.81901 0.13508 0.0
H740 H 0.36894 0.87432 0.09151 0.0
H741 H 0.38549 0.87822 0.14846 0.0
C742 C 0.4196 0.91329 0.1434 0.0
C743 C 0.4337 0.93241 0.13154 0.0
C744 C 0.35607 0.86245 0.10108 0.0
C745 C 0.38608 0.89114 0.12271 0.0
C746 C 0.33411 0.83998 0.09675 0.0
C747 C 0.31735 0.82381 0.10886 0.0
C748 C 0.36169 0.8686 0.11768 0.0
C749 C 0.32328 0.83094 0.12534 0.0
C750 C 0.39576 0.89288 0.13908 0.0
C751 C 0.42324 0.93021 0.11529 0.0
N752 N 0.34509 0.85274 0.12927 0.0
N753 N 0.40008 0.90983 0.11133 0.0
H754 H 0.29887 0.17958 0.35241 0.0
H755 H 0.4244 0.05455 0.38411 0.0
H756 H 0.33022 0.17386 0.40262 0.0
H757 H 0.41378 0.08121 0.33337 0.0
H758 H 0.38403 0.09275 0.39142 0.0
H759 H 0.3355 0.13774 0.34532 0.0
C760 C 0.31326 0.16944 0.36194 0.0
C761 C 0.31122 0.18005 0.37815 0.0
C762 C 0.39047 0.08994 0.37867 0.0
C763 C 0.35292 0.13223 0.37019 0.0
C764 C 0.41344 0.06815 0.37451 0.0
C765 C 0.4223 0.06439 0.35809 0.0
C766 C 0.37624 0.10789 0.3663 0.0
C767 C 0.4074 0.08278 0.34615 0.0
C768 C 0.33413 0.14559 0.35791 0.0
C769 C 0.33051 0.1661 0.39002 0.0
N770 N 0.38513 0.10365 0.35048 0.0
N771 N 0.35048 0.14292 0.38582 0.0
H772 H 0.06401 0.04991 0.60615 0.0
H773 H 0.19341 0.17549 0.63304 0.0
H774 H 0.08762 0.07074 0.65642 0.0
H775 H 0.16056 0.16396 0.58338 0.0
H776 H 0.15796 0.13368 0.64169 0.0
H777 H 0.10277 0.08848 0.59723 0.0
C778 C 0.07745 0.06239 0.61529 0.0
C779 C 0.07272 0.05688 0.63204 0.0
C780 C 0.15871 0.14023 0.62888 0.0
C781 C 0.11693 0.10095 0.622 0.0
C782 C 0.17894 0.16407 0.62396 0.0
C783 C 0.18016 0.17308 0.60746 0.0
C784 C 0.13961 0.1254 0.6172 0.0
C785 C 0.16081 0.15753 0.59619 0.0
C786 C 0.09954 0.0844 0.61022 0.0
C787 C 0.09073 0.0738 0.64337 0.0
N788 N 0.14136 0.13452 0.60127 0.0
N789 N 0.11196 0.09504 0.63815 0.0
H790 H 0.08848 0.92547 0.83675 0.0
H791 H 0.18208 0.84306 0.90909 0.0
H792 H 0.07907 0.95234 0.88749 0.0
H793 H 0.20409 0.82967 0.85794 0.0
H794 H 0.14304 0.88153 0.90147 0.0
H795 H 0.12919 0.88881 0.84438 0.0
C796 C 0.09516 0.92392 0.84951 0.0
C797 C 0.08059 0.9424 0.86149 0.0
C798 C 0.15652 0.87038 0.89191 0.0
C799 C 0.12703 0.89979 0.87034 0.0
C800 C 0.17901 0.84845 0.89623 0.0
C801 C 0.19677 0.83335 0.88413 0.0
C802 C 0.15137 0.87713 0.87532 0.0
C803 C 0.19106 0.84082 0.86767 0.0
C804 C 0.1184 0.90281 0.85385 0.0
C805 C 0.08975 0.93866 0.87786 0.0
N806 N 0.16877 0.86217 0.86374 0.0
N807 N 0.11241 0.91772 0.88182 0.0
H808 H 0.70858 0.18894 0.85876 0.0
H809 H 0.58155 0.06072 0.88499 0.0
H810 H 0.67855 0.17427 0.90868 0.0
H811 H 0.59493 0.09254 0.83527 0.0
H812 H 0.6218 0.0977 0.89399 0.0
H813 H 0.67135 0.14894 0.84983 0.0
C814 C 0.69432 0.17724 0.86784 0.0
C815 C 0.69692 0.18479 0.8845 0.0
C816 C 0.61599 0.09636 0.88109 0.0
C817 C 0.65446 0.13904 0.87443 0.0
C818 C 0.59307 0.07524 0.87596 0.0
C819 C 0.58502 0.07327 0.85934 0.0
C820 C 0.63095 0.11549 0.86948 0.0
C821 C 0.60064 0.09278 0.84817 0.0
C822 C 0.6731 0.15443 0.86276 0.0
C823 C 0.67779 0.16891 0.89574 0.0
N824 N 0.62282 0.113 0.85343 0.0
N825 N 0.65743 0.1468 0.89051 0.0
H826 H 0.56502 0.92243 0.65332 0.0
H827 H 0.66345 0.84335 0.58207 0.0
H828 H 0.56389 0.95653 0.60352 0.0
H829 H 0.68088 0.82653 0.63345 0.0
H830 H 0.62541 0.88308 0.58939 0.0
H831 H 0.60545 0.88539 0.64594 0.0
C832 C 0.5735 0.92242 0.64084 0.0
C833 C 0.56134 0.94305 0.62907 0.0
C834 C 0.63772 0.8709 0.59907 0.0
C835 C 0.60742 0.89993 0.62045 0.0
C836 C 0.65962 0.84824 0.59492 0.0
C837 C 0.67572 0.83176 0.60718 0.0
C838 C 0.63148 0.87691 0.61562 0.0
C839 C 0.6691 0.8387 0.6236 0.0
C840 C 0.59658 0.90109 0.63663 0.0
C841 C 0.57269 0.94117 0.61299 0.0
N842 N 0.64738 0.86069 0.62734 0.0
N843 N 0.59511 0.9199 0.60913 0.0
H844 H 0.83218 0.83151 0.40742 0.0
H845 H 0.92157 0.92074 0.33592 0.0
H846 H 0.80776 0.82224 0.35631 0.0
H847 H 0.93197 0.94488 0.387 0.0
H848 H 0.88208 0.88261 0.34325 0.0
H849 H 0.87069 0.87082 0.40021 0.0
C850 C 0.83465 0.83794 0.39466 0.0
C851 C 0.8163 0.82383 0.38246 0.0
C852 C 0.89281 0.89633 0.35287 0.0
C853 C 0.86107 0.86859 0.37411 0.0
C854 C 0.91534 0.9183 0.34871 0.0
C855 C 0.92982 0.93649 0.36086 0.0
C856 C 0.88479 0.89209 0.36935 0.0
C857 C 0.92131 0.9315 0.37724 0.0
C858 C 0.85682 0.86037 0.39057 0.0
C859 C 0.82127 0.83259 0.36611 0.0
N860 N 0.89932 0.90972 0.38102 0.0
N861 N 0.84324 0.85443 0.36241 0.0
H862 H 0.81376 0.18556 0.1407 0.0
H863 H 0.93484 0.05688 0.10789 0.0
H864 H 0.83751 0.17339 0.08969 0.0
H865 H 0.92102 0.07829 0.15907 0.0
H866 H 0.89668 0.09742 0.10083 0.0
H867 H 0.85082 0.14401 0.14773 0.0
C868 C 0.82666 0.17414 0.131 0.0
C869 C 0.82225 0.18274 0.11458 0.0
C870 C 0.90197 0.09309 0.11361 0.0
C871 C 0.86457 0.1353 0.12247 0.0
C872 C 0.92371 0.06995 0.11762 0.0
C873 C 0.93091 0.06392 0.13408 0.0
C874 C 0.88739 0.11025 0.12617 0.0
C875 C 0.91587 0.08168 0.14621 0.0
C876 C 0.84779 0.15043 0.13499 0.0
C877 C 0.83969 0.16721 0.10249 0.0
N878 N 0.89486 0.10396 0.14202 0.0
N879 N 0.85998 0.14426 0.10667 0.0
H880 H 0.84297 0.32115 0.59027 0.0
H881 H 0.90966 0.43257 0.66003 0.0
H882 H 0.8073 0.32193 0.63973 0.0
H883 H 0.93251 0.44356 0.60882 0.0
H884 H 0.87334 0.39126 0.65297 0.0
H885 H 0.87727 0.36445 0.59707 0.0
C886 C 0.84216 0.33056 0.60257 0.0
C887 C 0.82185 0.31811 0.61441 0.0
C888 C 0.88606 0.40283 0.64324 0.0
C889 C 0.86166 0.36762 0.62233 0.0
C890 C 0.90676 0.42666 0.64723 0.0
C891 C 0.92397 0.44196 0.63496 0.0
C892 C 0.88267 0.39377 0.62685 0.0
C893 C 0.91964 0.43255 0.61866 0.0
C894 C 0.86188 0.3553 0.60644 0.0
C895 C 0.82249 0.33084 0.63022 0.0
N896 N 0.89948 0.40895 0.61508 0.0
N897 N 0.8421 0.35493 0.63373 0.0
H898 H 0.93459 0.56769 0.88516 0.0
H899 H 0.8066 0.68832 0.85133 0.0
H900 H 0.92114 0.58756 0.83375 0.0
H901 H 0.83445 0.68175 0.90208 0.0
H902 H 0.84544 0.64822 0.84455 0.0
H903 H 0.89432 0.60627 0.89169 0.0
C904 C 0.92308 0.58 0.87526 0.0
C905 C 0.93107 0.57415 0.8589 0.0
C906 C 0.84288 0.65556 0.85717 0.0
C907 C 0.88508 0.61828 0.86623 0.0
C908 C 0.82077 0.67843 0.86102 0.0
C909 C 0.81699 0.68813 0.8773 0.0
C910 C 0.8612 0.64236 0.86972 0.0
C911 C 0.83605 0.6746 0.8894 0.0
C912 C 0.90013 0.60204 0.87898 0.0
C913 C 0.91544 0.59088 0.84654 0.0
N914 N 0.85721 0.65241 0.88537 0.0
N915 N 0.89321 0.61214 0.85045 0.0
H916 H 0.70491 0.67823 0.13243 0.0
H917 H 0.57882 0.54948 0.10596 0.0
H918 H 0.67734 0.66185 0.08225 0.0
H919 H 0.58811 0.58514 0.1552 0.0
H920 H 0.61963 0.58599 0.09708 0.0
H921 H 0.66662 0.63916 0.14125 0.0
C922 C 0.691 0.66633 0.12328 0.0
C923 C 0.69459 0.67311 0.10658 0.0
C924 C 0.61276 0.5856 0.10985 0.0
C925 C 0.65093 0.62848 0.11653 0.0
C926 C 0.58952 0.56479 0.1149 0.0
C927 C 0.58027 0.56397 0.13137 0.0
C928 C 0.62684 0.60553 0.12139 0.0
C929 C 0.59484 0.58444 0.14245 0.0
C930 C 0.66915 0.64407 0.1283 0.0
C931 C 0.67584 0.65704 0.09524 0.0
N932 N 0.6174 0.60429 0.13727 0.0
N933 N 0.65488 0.63546 0.10041 0.0
H934 H 0.70034 0.32285 0.35931 0.0
H935 H 0.57563 0.45048 0.38893 0.0
H936 H 0.67362 0.33651 0.40981 0.0
H937 H 0.58466 0.42009 0.33871 0.0
H938 H 0.61598 0.41271 0.39675 0.0
H939 H 0.66191 0.36252 0.35124 0.0
C940 C 0.68655 0.33423 0.36868 0.0
C941 C 0.69052 0.32664 0.38526 0.0
C942 C 0.60917 0.4145 0.384 0.0
C943 C 0.6468 0.37191 0.3762 0.0
C944 C 0.58619 0.43606 0.37955 0.0
C945 C 0.57697 0.43871 0.36313 0.0
C946 C 0.62302 0.39561 0.37192 0.0
C947 C 0.59137 0.41932 0.35148 0.0
C948 C 0.66466 0.35684 0.36409 0.0
C949 C 0.67191 0.34203 0.39691 0.0
N950 N 0.61367 0.39866 0.35609 0.0
N951 N 0.65098 0.36394 0.39217 0.0
H952 H 0.08629 0.5835 0.33239 0.0
H953 H 0.17578 0.66773 0.4048 0.0
H954 H 0.07765 0.55447 0.38287 0.0
H955 H 0.20388 0.67675 0.3542 0.0
H956 H 0.13882 0.62752 0.39702 0.0
H957 H 0.12804 0.61884 0.34012 0.0
C958 C 0.09343 0.58416 0.3451 0.0
C959 C 0.07864 0.56558 0.35698 0.0
C960 C 0.15328 0.638 0.38762 0.0
C961 C 0.12617 0.60686 0.36596 0.0
C962 C 0.17461 0.66095 0.39205 0.0
C963 C 0.1934 0.67543 0.38015 0.0
C964 C 0.15015 0.62972 0.37111 0.0
C965 C 0.18998 0.66615 0.36378 0.0
C966 C 0.11728 0.60453 0.3495 0.0
C967 C 0.08844 0.56827 0.37331 0.0
N968 N 0.1686 0.64397 0.35971 0.0
N969 N 0.11152 0.58868 0.37734 0.0
H970 H 0.20765 0.31845 0.13892 0.0
H971 H 0.07905 0.43809 0.10458 0.0
H972 H 0.178 0.32191 0.08837 0.0
H973 H 0.09405 0.41975 0.15603 0.0
H974 H 0.11955 0.39955 0.09808 0.0
H975 H 0.16974 0.3596 0.14531 0.0
C976 C 0.19328 0.32788 0.12918 0.0
C977 C 0.19626 0.31695 0.11308 0.0
C978 C 0.11404 0.40421 0.11079 0.0
C979 C 0.15308 0.36397 0.12021 0.0
C980 C 0.091 0.42623 0.11449 0.0
C981 C 0.0833 0.43241 0.13086 0.0
C982 C 0.12946 0.38838 0.12357 0.0
C983 C 0.09945 0.41621 0.14323 0.0
C984 C 0.1717 0.35137 0.1328 0.0
C985 C 0.17698 0.32998 0.10092 0.0
N986 N 0.12171 0.395 0.13934 0.0
N987 N 0.15631 0.3528 0.10472 0.0
H988 H 0.42196 0.4222 0.83293 0.0
H989 H 0.33537 0.34258 0.90855 0.0
H990 H 0.43595 0.4506 0.88315 0.0
H991 H 0.31263 0.32232 0.8581 0.0
H992 H 0.37298 0.38118 0.89945 0.0
H993 H 0.38302 0.38471 0.84193 0.0
C994 C 0.41666 0.42078 0.84588 0.0
C995 C 0.43199 0.43993 0.8573 0.0
C996 C 0.3597 0.36849 0.89034 0.0
C997 C 0.38757 0.39644 0.86771 0.0
C998 C 0.33799 0.34646 0.89551 0.0
C999 C 0.32042 0.32942 0.88405 0.0
C1000 C 0.36421 0.37346 0.87354 0.0
C1001 C 0.32555 0.33502 0.86735 0.0
C1002 C 0.39445 0.3992 0.851 0.0
C1003 C 0.42463 0.43641 0.87393 0.0
N1004 N 0.34704 0.35659 0.86258 0.0
N1005 N 0.40289 0.41506 0.87864 0.0
H1006 H 0.42625 0.57811 0.64937 0.0
H1007 H 0.32646 0.65562 0.57789 0.0
H1008 H 0.43141 0.54526 0.59943 0.0
H1009 H 0.31028 0.67125 0.62946 0.0
H1010 H 0.36568 0.61641 0.58485 0.0
H1011 H 0.38549 0.61414 0.64155 0.0
C1012 C 0.41865 0.57829 0.63671 0.0
C1013 C 0.43196 0.5582 0.62507 0.0
C1014 C 0.35334 0.62825 0.59462 0.0
C1015 C 0.38515 0.60014 0.61595 0.0
C1016 C 0.33084 0.65058 0.59068 0.0
C1017 C 0.31495 0.66673 0.60313 0.0
C1018 C 0.36022 0.62227 0.61112 0.0
C1019 C 0.32192 0.65944 0.61946 0.0
C1020 C 0.3953 0.59903 0.63225 0.0
C1021 C 0.42166 0.56025 0.60879 0.0
N1022 N 0.34415 0.63788 0.62297 0.0
N1023 N 0.39874 0.58091 0.60467 0.0
H1024 H 0.378 0.04894 0.16905 0.0
H1025 H 0.35213 0.19573 0.1098 0.0
H1026 H 0.44731 0.08112 0.13456 0.0
H1027 H 0.28534 0.16519 0.146 0.0
H1028 H 0.38847 0.15572 0.11953 0.0
H1029 H 0.34514 0.09324 0.16174 0.0
C1030 C 0.38647 0.06542 0.16002 0.0
C1031 C 0.41546 0.06105 0.15234 0.0
C1032 C 0.36593 0.1579 0.1254 0.0
C1033 C 0.37764 0.11196 0.14379 0.0
C1034 C 0.34514 0.18074 0.11985 0.0
C1035 C 0.31552 0.18375 0.12702 0.0
C1036 C 0.35703 0.13782 0.13821 0.0
C1037 C 0.30783 0.16369 0.14003 0.0
C1038 C 0.36762 0.09076 0.15583 0.0
C1039 C 0.42512 0.08339 0.14077 0.0
N1040 N 0.32836 0.14154 0.14513 0.0
N1041 N 0.40617 0.10772 0.13677 0.0
H1042 H 0.19775 0.12052 0.41513 0.0
H1043 H 0.05136 0.09186 0.35599 0.0
H1044 H 0.16321 0.18955 0.38107 0.0
H1045 H 0.08338 0.02517 0.39193 0.0
H1046 H 0.09087 0.12873 0.36564 0.0
H1047 H 0.1546 0.08629 0.40759 0.0
C1048 C 0.181 0.12863 0.40614 0.0
C1049 C 0.18433 0.15799 0.39867 0.0
C1050 C 0.08917 0.10608 0.37146 0.0
C1051 C 0.13478 0.11862 0.38987 0.0
C1052 C 0.06661 0.08498 0.36595 0.0
C1053 C 0.0641 0.05526 0.37311 0.0
C1054 C 0.10947 0.09743 0.38421 0.0
C1055 C 0.08448 0.04774 0.386 0.0
C1056 C 0.15632 0.109 0.40183 0.0
C1057 C 0.16171 0.16714 0.38715 0.0
N1058 N 0.10635 0.0686 0.39108 0.0
N1059 N 0.13806 0.14746 0.38302 0.0
H1060 H 0.05289 0.90651 0.62959 0.0
H1061 H 0.21413 0.81259 0.62365 0.0
H1062 H 0.13636 0.93112 0.65629 0.0
H1063 H 0.13327 0.79063 0.59427 0.0
H1064 H 0.18453 0.85385 0.6371 0.0
H1065 H 0.08041 0.86163 0.618 0.0
C1066 C 0.0769 0.9024 0.63312 0.0
C1067 C 0.09234 0.92282 0.64389 0.0
C1068 C 0.17319 0.83998 0.62774 0.0
C1069 C 0.124 0.87148 0.6306 0.0
C1070 C 0.19011 0.81637 0.62004 0.0
C1071 C 0.17625 0.79817 0.60773 0.0
C1072 C 0.1421 0.84555 0.62314 0.0
C1073 C 0.14497 0.80414 0.60364 0.0
C1074 C 0.09263 0.8768 0.62646 0.0
C1075 C 0.12349 0.91622 0.64799 0.0
N1076 N 0.12898 0.82738 0.61129 0.0
N1077 N 0.13826 0.89125 0.64131 0.0
H1078 H 0.45597 0.92544 0.85036 0.0
H1079 H 0.31766 0.89816 0.91473 0.0
H1080 H 0.43005 0.99101 0.88811 0.0
H1081 H 0.34588 0.82817 0.8797 0.0
H1082 H 0.35966 0.93172 0.90523 0.0
H1083 H 0.41665 0.88899 0.86087 0.0
C1084 C 0.44207 0.93218 0.86086 0.0
C1085 C 0.44629 0.96142 0.86832 0.0
C1086 C 0.35684 0.90898 0.89964 0.0
C1087 C 0.40128 0.91981 0.8804 0.0
C1088 C 0.33278 0.88972 0.90507 0.0
C1089 C 0.32803 0.86024 0.89798 0.0
C1090 C 0.37643 0.89895 0.8869 0.0
C1091 C 0.34861 0.85067 0.88555 0.0
C1092 C 0.41967 0.91133 0.86686 0.0
C1093 C 0.42766 0.96881 0.88192 0.0
N1094 N 0.3718 0.87005 0.88033 0.0
N1095 N 0.40598 0.94823 0.88746 0.0
H1096 H 0.34211 0.8041 0.38419 0.0
H1097 H 0.36542 0.94585 0.32141 0.0
H1098 H 0.27501 0.82923 0.34699 0.0
H1099 H 0.43622 0.916 0.35568 0.0
H1100 H 0.33293 0.90195 0.32991 0.0
H1101 H 0.37763 0.84383 0.37342 0.0
C1102 C 0.33486 0.81788 0.37373 0.0
C1103 C 0.30543 0.81339 0.36655 0.0
C1104 C 0.35566 0.90486 0.33549 0.0
C1105 C 0.346 0.859 0.35415 0.0
C1106 C 0.3743 0.92995 0.33062 0.0
C1107 C 0.40361 0.93485 0.33788 0.0
C1108 C 0.36624 0.88451 0.34781 0.0
C1109 C 0.4138 0.91329 0.34974 0.0
C1110 C 0.35519 0.84055 0.36756 0.0
C1111 C 0.29739 0.8319 0.35297 0.0
N1112 N 0.39506 0.88925 0.35441 0.0
N1113 N 0.31747 0.85395 0.34728 0.0
H1114 H 0.32841 0.19329 0.60232 0.0
H1115 H 0.41581 0.02868 0.59549 0.0
H1116 H 0.29776 0.11777 0.57122 0.0
H1117 H 0.4393 0.09831 0.63166 0.0
H1118 H 0.37635 0.06369 0.58432 0.0
H1119 H 0.37296 0.16166 0.61087 0.0
C1120 C 0.33112 0.17021 0.59715 0.0
C1121 C 0.30896 0.15816 0.58613 0.0
C1122 C 0.39018 0.07141 0.59466 0.0
C1123 C 0.36009 0.12173 0.59594 0.0
C1124 C 0.4128 0.05141 0.60106 0.0
C1125 C 0.43082 0.06044 0.61463 0.0
C1126 C 0.38544 0.10081 0.60183 0.0
C1127 C 0.42586 0.09029 0.62125 0.0
C1128 C 0.35658 0.15211 0.6021 0.0
C1129 C 0.31399 0.12807 0.57982 0.0
N1130 N 0.40356 0.10936 0.61482 0.0
N1131 N 0.33887 0.11089 0.58488 0.0
H1132 H 0.07363 0.09073 0.8647 0.0
H1133 H 0.2387 0.17679 0.85519 0.0
H1134 H 0.14609 0.0613 0.83137 0.0
H1135 H 0.17224 0.20002 0.89299 0.0
H1136 H 0.20307 0.13683 0.84508 0.0
H1137 H 0.10731 0.13349 0.87387 0.0
C1138 C 0.09649 0.09333 0.85922 0.0
C1139 C 0.10704 0.07222 0.84727 0.0
C1140 C 0.19622 0.15065 0.85558 0.0
C1141 C 0.14572 0.1211 0.85776 0.0
C1142 C 0.21659 0.17352 0.86137 0.0
C1143 C 0.20854 0.19176 0.87501 0.0
C1144 C 0.16744 0.14591 0.86343 0.0
C1145 C 0.17948 0.18644 0.88248 0.0
C1146 C 0.11575 0.1177 0.86451 0.0
C1147 C 0.13695 0.07681 0.84066 0.0
N1148 N 0.15999 0.16399 0.87659 0.0
N1149 N 0.15518 0.10066 0.846 0.0
H1150 H 0.16799 0.81229 0.11303 0.0
H1151 H 0.07753 0.97432 0.10018 0.0
H1152 H 0.1938 0.88253 0.07755 0.0
H1153 H 0.05615 0.91031 0.13949 0.0
H1154 H 0.11743 0.93838 0.09043 0.0
H1155 H 0.12407 0.84522 0.12154 0.0
C1156 C 0.16435 0.83447 0.10695 0.0
C1157 C 0.18483 0.84469 0.09462 0.0
C1158 C 0.104 0.93209 0.10117 0.0
C1159 C 0.13466 0.88244 0.10431 0.0
C1160 C 0.08114 0.95265 0.10675 0.0
C1161 C 0.06352 0.94545 0.12074 0.0
C1162 C 0.1094 0.90398 0.10959 0.0
C1163 C 0.06927 0.9169 0.12869 0.0
C1164 C 0.13932 0.85329 0.11185 0.0
C1165 C 0.17887 0.87368 0.08719 0.0
N1166 N 0.09177 0.89724 0.12303 0.0
N1167 N 0.15447 0.89148 0.09217 0.0
H1168 H 0.66161 0.80985 0.88025 0.0
H1169 H 0.64292 0.95737 0.82077 0.0
H1170 H 0.73145 0.8388 0.8453 0.0
H1171 H 0.57001 0.92524 0.85316 0.0
H1172 H 0.67452 0.91247 0.82868 0.0
H1173 H 0.62676 0.85047 0.86974 0.0
C1174 C 0.66959 0.82463 0.87033 0.0
C1175 C 0.69961 0.82098 0.86373 0.0
C1176 C 0.65152 0.91509 0.83397 0.0
C1177 C 0.65982 0.8676 0.85165 0.0
C1178 C 0.63339 0.94077 0.82944 0.0
C1179 C 0.60375 0.94532 0.83636 0.0
C1180 C 0.6401 0.89378 0.84561 0.0
C1181 C 0.59272 0.92283 0.84751 0.0
C1182 C 0.64965 0.84781 0.86432 0.0
C1183 C 0.70859 0.84078 0.85084 0.0
N1184 N 0.61098 0.89822 0.85188 0.0
N1185 N 0.68888 0.86329 0.8453 0.0
H1186 H 0.94078 0.91102 0.64153 0.0
H1187 H 0.79929 0.8922 0.57821 0.0
H1188 H 0.91754 0.97842 0.60412 0.0
H1189 H 0.82519 0.82013 0.61266 0.0
H1190 H 0.84306 0.92354 0.5876 0.0
H1191 H 0.89907 0.87708 0.63131 0.0
C1192 C 0.92696 0.91869 0.63117 0.0
C1193 C 0.93265 0.9477 0.62371 0.0
C1194 C 0.83931 0.90084 0.5931 0.0
C1195 C 0.8849 0.90896 0.61196 0.0
C1196 C 0.81423 0.88285 0.58774 0.0
C1197 C 0.80834 0.85344 0.5947 0.0
C1198 C 0.85878 0.88957 0.60561 0.0
C1199 C 0.82875 0.84265 0.60695 0.0
C1200 C 0.90318 0.89927 0.62533 0.0
C1201 C 0.91403 0.95634 0.61029 0.0
N1202 N 0.85297 0.86079 0.61208 0.0
N1203 N 0.89101 0.93712 0.6049 0.0
H1204 H 0.77132 0.17271 0.35751 0.0
H1205 H 0.93759 0.08797 0.36398 0.0
H1206 H 0.84273 0.20124 0.39169 0.0
H1207 H 0.86201 0.05668 0.33307 0.0
H1208 H 0.90498 0.13157 0.37313 0.0
H1209 H 0.80595 0.13208 0.34732 0.0
C1210 C 0.79433 0.1705 0.36287 0.0
C1211 C 0.80404 0.1904 0.37554 0.0
C1212 C 0.89562 0.11518 0.36431 0.0
C1213 C 0.84401 0.14367 0.36387 0.0
C1214 C 0.91425 0.09031 0.35904 0.0
C1215 C 0.90255 0.06845 0.34777 0.0
C1216 C 0.8651 0.11831 0.35822 0.0
C1217 C 0.87208 0.07276 0.34182 0.0
C1218 C 0.81414 0.14722 0.35704 0.0
C1219 C 0.83422 0.18638 0.38195 0.0
N1220 N 0.85448 0.09707 0.34714 0.0
N1221 N 0.85312 0.16343 0.37607 0.0
H1222 H 0.69844 0.12002 0.08817 0.0
H1223 H 0.55407 0.11475 0.15034 0.0
H1224 H 0.67232 0.19789 0.11881 0.0
H1225 H 0.57809 0.04002 0.1172 0.0
H1226 H 0.59626 0.14622 0.13866 0.0
H1227 H 0.65352 0.09112 0.09833 0.0
C1228 C 0.68322 0.13114 0.09701 0.0
C1229 C 0.68935 0.16146 0.10268 0.0
C1230 C 0.5922 0.12298 0.13391 0.0
C1231 C 0.63767 0.12823 0.11446 0.0
C1232 C 0.56811 0.10498 0.14058 0.0
C1233 C 0.56257 0.07461 0.1348 0.0
C1234 C 0.61095 0.11049 0.1214 0.0
C1235 C 0.5815 0.06324 0.1221 0.0
C1236 C 0.65749 0.11457 0.10281 0.0
C1237 C 0.66859 0.17458 0.11409 0.0
N1238 N 0.60486 0.08112 0.11589 0.0
N1239 N 0.64378 0.15783 0.11967 0.0
H1240 H 0.66518 0.19972 0.60939 0.0
H1241 H 0.62678 0.0531 0.66685 0.0
H1242 H 0.72874 0.1627 0.64555 0.0
H1243 H 0.56094 0.09181 0.63229 0.0
H1244 H 0.66331 0.09471 0.66003 0.0
H1245 H 0.62583 0.16199 0.61832 0.0
C1246 C 0.67085 0.18376 0.61925 0.0
C1247 C 0.70043 0.18432 0.62667 0.0
C1248 C 0.64082 0.09425 0.65399 0.0
C1249 C 0.65543 0.14097 0.63694 0.0
C1250 C 0.61986 0.07044 0.65789 0.0
C1251 C 0.59069 0.06874 0.65008 0.0
C1252 C 0.63276 0.11658 0.64211 0.0
C1253 C 0.58314 0.09207 0.63862 0.0
C1254 C 0.64834 0.16222 0.62435 0.0
C1255 C 0.70635 0.1631 0.63942 0.0
N1256 N 0.60411 0.11488 0.63491 0.0
N1257 N 0.68414 0.14226 0.64409 0.0
H1258 H 0.55001 0.91486 0.35332 0.0
H1259 H 0.69926 0.89287 0.41127 0.0
H1260 H 0.58482 0.98523 0.38646 0.0
H1261 H 0.66456 0.81999 0.37958 0.0
H1262 H 0.65637 0.92618 0.40266 0.0
H1263 H 0.59059 0.87911 0.36308 0.0
C1264 C 0.5661 0.92278 0.36268 0.0
C1265 C 0.56404 0.95318 0.36904 0.0
C1266 C 0.658 0.90288 0.3976 0.0
C1267 C 0.61055 0.91237 0.38023 0.0
C1268 C 0.68258 0.88376 0.40251 0.0
C1269 C 0.68572 0.8535 0.3961 0.0
C1270 C 0.63624 0.89189 0.38611 0.0
C1271 C 0.66315 0.84312 0.38484 0.0
C1272 C 0.58926 0.90234 0.36824 0.0
C1273 C 0.5855 0.9621 0.38116 0.0
N1274 N 0.63945 0.86233 0.38015 0.0
N1275 N 0.60785 0.94185 0.3863 0.0
H1276 H 0.77399 0.82539 0.13497 0.0
H1277 H 0.93924 0.91239 0.1297 0.0
H1278 H 0.84552 0.79948 0.10033 0.0
H1279 H 0.8632 0.94141 0.16086 0.0
H1280 H 0.90716 0.86882 0.11997 0.0
H1281 H 0.8082 0.86586 0.14571 0.0
C1282 C 0.79695 0.82814 0.12962 0.0
C1283 C 0.8068 0.80903 0.11666 0.0
C1284 C 0.89759 0.8847 0.12897 0.0
C1285 C 0.8463 0.8556 0.12897 0.0
C1286 C 0.91592 0.90956 0.13457 0.0
C1287 C 0.90392 0.93077 0.14609 0.0
C1288 C 0.86709 0.88095 0.13497 0.0
C1289 C 0.87348 0.92584 0.15193 0.0
C1290 C 0.81652 0.85134 0.13578 0.0
C1291 C 0.8369 0.81373 0.11029 0.0
N1292 N 0.85619 0.90156 0.14629 0.0
N1293 N 0.85557 0.8366 0.11649 0.0
H1294 H 0.95742 0.09585 0.85753 0.0
H1295 H 0.81187 0.11833 0.91774 0.0
H1296 H 0.92721 0.02704 0.89279 0.0
H1297 H 0.84483 0.19086 0.88531 0.0
H1298 H 0.85511 0.0854 0.90916 0.0
H1299 H 0.91747 0.13164 0.86784 0.0
C1300 C 0.94248 0.08829 0.86747 0.0
C1301 C 0.94561 0.0583 0.87425 0.0
C1302 C 0.85304 0.10856 0.90395 0.0
C1303 C 0.89981 0.09915 0.88609 0.0
C1304 C 0.82827 0.12744 0.90885 0.0
C1305 C 0.82451 0.15744 0.90218 0.0
C1306 C 0.87428 0.11954 0.89219 0.0
C1307 C 0.84673 0.16791 0.89077 0.0
C1308 C 0.91969 0.10876 0.87336 0.0
C1309 C 0.92563 0.04985 0.88714 0.0
N1310 N 0.87055 0.14891 0.88606 0.0
N1311 N 0.90356 0.07009 0.89257 0.0
H1312 H 0.8619 0.7142 0.59488 0.0
H1313 H 0.85979 0.57067 0.65785 0.0
H1314 H 0.78226 0.68854 0.62432 0.0
H1315 H 0.94038 0.5952 0.62883 0.0
H1316 H 0.83202 0.61522 0.64642 0.0
H1317 H 0.89185 0.6722 0.60779 0.0
C1318 C 0.85071 0.69983 0.60408 0.0
C1319 C 0.81944 0.70488 0.60846 0.0
C1320 C 0.85582 0.61097 0.64257 0.0
C1321 C 0.85362 0.65673 0.62329 0.0
C1322 C 0.87176 0.58547 0.64912 0.0
C1323 C 0.90251 0.57897 0.64427 0.0
C1324 C 0.87059 0.63025 0.63101 0.0
C1325 C 0.91671 0.5992 0.63292 0.0
C1326 C 0.86785 0.67584 0.61145 0.0
C1327 C 0.80624 0.68551 0.6205 0.0
N1328 N 0.90059 0.62383 0.62663 0.0
N1329 N 0.82335 0.6623 0.62744 0.0
H1330 H 0.70089 0.61952 0.90787 0.0
H1331 H 0.55381 0.59432 0.8488 0.0
H1332 H 0.66673 0.69096 0.8751 0.0
H1333 H 0.5861 0.52648 0.88407 0.0
H1334 H 0.59414 0.63053 0.85835 0.0
H1335 H 0.65815 0.58579 0.89947 0.0
C1336 C 0.68436 0.62822 0.89893 0.0
C1337 C 0.6876 0.65819 0.89215 0.0
C1338 C 0.59231 0.60776 0.86402 0.0
C1339 C 0.63835 0.61933 0.88237 0.0
C1340 C 0.56931 0.58704 0.85857 0.0
C1341 C 0.5666 0.55723 0.8656 0.0
C1342 C 0.61282 0.59856 0.87657 0.0
C1343 C 0.5873 0.54914 0.87825 0.0
C1344 C 0.65987 0.60887 0.89413 0.0
C1345 C 0.66522 0.66807 0.88066 0.0
N1346 N 0.60953 0.56962 0.88327 0.0
N1347 N 0.64164 0.64863 0.87607 0.0
H1348 H 0.57079 0.41647 0.13772 0.0
H1349 H 0.73934 0.33749 0.14706 0.0
H1350 H 0.6434 0.45241 0.16921 0.0
H1351 H 0.67147 0.30906 0.11092 0.0
H1352 H 0.70257 0.37651 0.15719 0.0
H1353 H 0.60524 0.37359 0.12988 0.0
C1354 C 0.59383 0.41523 0.14313 0.0
C1355 C 0.6042 0.43831 0.15409 0.0
C1356 C 0.69568 0.3617 0.14707 0.0
C1357 C 0.64389 0.3892 0.14505 0.0
C1358 C 0.71668 0.33937 0.14127 0.0
C1359 C 0.70858 0.32003 0.12805 0.0
C1360 C 0.66625 0.36472 0.13966 0.0
C1361 C 0.6788 0.32355 0.12109 0.0
C1362 C 0.61356 0.39076 0.13858 0.0
C1363 C 0.63437 0.43533 0.16066 0.0
N1364 N 0.65876 0.34548 0.12695 0.0
N1365 N 0.65315 0.41136 0.15599 0.0
H1366 H 0.83965 0.32019 0.3828 0.0
H1367 H 0.92505 0.48604 0.39021 0.0
H1368 H 0.81006 0.39428 0.41509 0.0
H1369 H 0.94877 0.41791 0.35331 0.0
H1370 H 0.88574 0.45042 0.40096 0.0
H1371 H 0.88272 0.3533 0.3734 0.0
C1372 C 0.8423 0.34327 0.38801 0.0
C1373 C 0.82103 0.35447 0.39971 0.0
C1374 C 0.89956 0.44317 0.39053 0.0
C1375 C 0.87023 0.39247 0.38898 0.0
C1376 C 0.92208 0.46354 0.38438 0.0
C1377 C 0.94018 0.45506 0.37077 0.0
C1378 C 0.89502 0.41398 0.38308 0.0
C1379 C 0.93526 0.42549 0.36378 0.0
C1380 C 0.86684 0.3622 0.38259 0.0
C1381 C 0.82567 0.38464 0.40598 0.0
N1382 N 0.9131 0.40603 0.36999 0.0
N1383 N 0.84966 0.40253 0.40052 0.0
H1384 H 0.87232 0.44975 0.82855 0.0
H1385 H 0.84838 0.31084 0.89301 0.0
H1386 H 0.94198 0.42496 0.86454 0.0
H1387 H 0.78347 0.33363 0.85434 0.0
H1388 H 0.88376 0.35133 0.88269 0.0
H1389 H 0.84046 0.40614 0.83765 0.0
C1390 C 0.88104 0.43508 0.83835 0.0
C1391 C 0.90989 0.44127 0.84584 0.0
C1392 C 0.86182 0.34734 0.87644 0.0
C1393 C 0.87314 0.39099 0.85644 0.0
C1394 C 0.8416 0.32425 0.88233 0.0
C1395 C 0.81281 0.31888 0.87458 0.0
C1396 C 0.85316 0.36524 0.86273 0.0
C1397 C 0.80532 0.33694 0.86077 0.0
C1398 C 0.86276 0.41007 0.84355 0.0
C1399 C 0.91989 0.42115 0.85841 0.0
N1400 N 0.82527 0.35931 0.85536 0.0
N1401 N 0.90145 0.39703 0.8634 0.0
H1402 H 0.92608 0.51221 0.09656 0.0
H1403 H 0.84283 0.67863 0.1069 0.0
H1404 H 0.95119 0.57825 0.13426 0.0
H1405 H 0.81124 0.60666 0.07378 0.0
H1406 H 0.88567 0.64445 0.11549 0.0
H1407 H 0.88672 0.5487 0.08657 0.0
C1408 C 0.92339 0.53441 0.10273 0.0
C1409 C 0.94191 0.54207 0.11633 0.0
C1410 C 0.8694 0.63624 0.1063 0.0
C1411 C 0.89679 0.58413 0.10491 0.0
C1412 C 0.845 0.65579 0.10133 0.0
C1413 C 0.82322 0.6455 0.08965 0.0
C1414 C 0.87216 0.60626 0.09947 0.0
C1415 C 0.82725 0.6156 0.0829 0.0
C1416 C 0.90086 0.55527 0.09702 0.0
C1417 C 0.93735 0.57128 0.12379 0.0
N1418 N 0.85112 0.59709 0.08793 0.0
N1419 N 0.91523 0.59122 0.11799 0.0
H1420 H 0.56462 0.58887 0.35908 0.0
H1421 H 0.73163 0.67137 0.35065 0.0
H1422 H 0.63859 0.55482 0.32795 0.0
H1423 H 0.66078 0.70174 0.38466 0.0
H1424 H 0.69614 0.63116 0.3406 0.0
H1425 H 0.59764 0.63294 0.36685 0.0
C1426 C 0.58768 0.59073 0.35375 0.0
C1427 C 0.59883 0.56787 0.34288 0.0
C1428 C 0.68828 0.64666 0.35023 0.0
C1429 C 0.63688 0.61838 0.35184 0.0
C1430 C 0.70855 0.66969 0.35598 0.0
C1431 C 0.69928 0.68992 0.3686 0.0
C1432 C 0.65839 0.64373 0.35711 0.0
C1433 C 0.66901 0.68661 0.37496 0.0
C1434 C 0.60658 0.61591 0.35825 0.0
C1435 C 0.62897 0.57169 0.33642 0.0
N1436 N 0.6497 0.6639 0.36919 0.0
N1437 N 0.64693 0.59632 0.34104 0.0
H1438 H 0.71158 0.38405 0.58179 0.0
H1439 H 0.55396 0.40407 0.63351 0.0
H1440 H 0.67175 0.31047 0.61133 0.0
H1441 H 0.59471 0.47675 0.60375 0.0
H1442 H 0.59572 0.36874 0.62488 0.0
H1443 H 0.66774 0.41752 0.58899 0.0
C1444 C 0.69358 0.37482 0.58974 0.0
C1445 C 0.69553 0.34433 0.59599 0.0
C1446 C 0.59546 0.39239 0.62021 0.0
C1447 C 0.64507 0.3828 0.60436 0.0
C1448 C 0.57161 0.41259 0.62513 0.0
C1449 C 0.57085 0.44349 0.61939 0.0
C1450 C 0.61874 0.40316 0.60948 0.0
C1451 C 0.59434 0.45319 0.60853 0.0
C1452 C 0.6685 0.39402 0.59387 0.0
C1453 C 0.67134 0.33379 0.60623 0.0
N1454 N 0.61731 0.43315 0.60398 0.0
N1455 N 0.6472 0.35302 0.61013 0.0
H1456 H 0.0631 0.41723 0.35438 0.0
H1457 H 0.22864 0.33247 0.3447 0.0
H1458 H 0.13547 0.44841 0.3214 0.0
H1459 H 0.16053 0.30653 0.38121 0.0
H1460 H 0.19266 0.3719 0.33429 0.0
H1461 H 0.09616 0.37337 0.36245 0.0
C1462 C 0.0858 0.41475 0.3487 0.0
C1463 C 0.09653 0.43678 0.33724 0.0
C1464 C 0.1855 0.35753 0.34454 0.0
C1465 C 0.13461 0.38655 0.34654 0.0
C1466 C 0.20606 0.33495 0.35051 0.0
C1467 C 0.19771 0.31622 0.36393 0.0
C1468 C 0.15627 0.3615 0.35202 0.0
C1469 C 0.16804 0.32051 0.37089 0.0
C1470 C 0.10472 0.38971 0.35338 0.0
C1471 C 0.1262 0.4322 0.33033 0.0
N1472 N 0.14845 0.34276 0.36489 0.0
N1473 N 0.14421 0.40773 0.33514 0.0
H1474 H 0.31109 0.38337 0.08094 0.0
H1475 H 0.45585 0.41274 0.1411 0.0
H1476 H 0.34509 0.31376 0.11484 0.0
H1477 H 0.42436 0.47861 0.10462 0.0
H1478 H 0.41631 0.37566 0.13153 0.0
H1479 H 0.35334 0.4179 0.08924 0.0
C1480 C 0.3275 0.37523 0.0901 0.0
C1481 C 0.32435 0.34556 0.09723 0.0
C1482 C 0.41816 0.39819 0.12559 0.0
C1483 C 0.37298 0.38531 0.1069 0.0
C1484 C 0.4407 0.4194 0.13106 0.0
C1485 C 0.44339 0.44892 0.1237 0.0
C1486 C 0.39808 0.4066 0.1127 0.0
C1487 C 0.42315 0.4562 0.11071 0.0
C1488 C 0.3517 0.39503 0.09484 0.0
C1489 C 0.34653 0.3364 0.10899 0.0
N1490 N 0.40135 0.43527 0.10568 0.0
N1491 N 0.36979 0.35626 0.11352 0.0
H1492 H 0.27188 0.67351 0.8565 0.0
H1493 H 0.4402 0.59204 0.85753 0.0
H1494 H 0.34891 0.70793 0.88541 0.0
H1495 H 0.36067 0.55707 0.83069 0.0
H1496 H 0.40844 0.63609 0.86688 0.0
H1497 H 0.30533 0.63222 0.84596 0.0
C1498 C 0.29589 0.67247 0.86061 0.0
C1499 C 0.30753 0.69422 0.87192 0.0
C1500 C 0.39803 0.6188 0.8589 0.0
C1501 C 0.34615 0.64672 0.85985 0.0
C1502 C 0.41615 0.59364 0.85353 0.0
C1503 C 0.40312 0.57065 0.84333 0.0
C1504 C 0.36665 0.62103 0.85402 0.0
C1505 C 0.3718 0.57406 0.83857 0.0
C1506 C 0.31502 0.64881 0.85458 0.0
C1507 C 0.3389 0.69163 0.87675 0.0
N1508 N 0.3547 0.59866 0.84398 0.0
N1509 N 0.35711 0.66826 0.87072 0.0
H1510 H 0.05486 0.59143 0.63943 0.0
H1511 H 0.18649 0.61614 0.5711 0.0
H1512 H 0.06829 0.53005 0.59811 0.0
H1513 H 0.16758 0.68351 0.60915 0.0
H1514 H 0.14255 0.58499 0.58066 0.0
H1515 H 0.0955 0.62585 0.62854 0.0
C1516 C 0.06629 0.58519 0.62806 0.0
C1517 C 0.05819 0.55769 0.61971 0.0
C1518 C 0.14785 0.60667 0.58688 0.0
C1519 C 0.10477 0.59702 0.60719 0.0
C1520 C 0.17301 0.62453 0.58142 0.0
C1521 C 0.18096 0.65249 0.58937 0.0
C1522 C 0.13049 0.61659 0.6005 0.0
C1523 C 0.1624 0.66213 0.60264 0.0
C1524 C 0.08945 0.60491 0.62183 0.0
C1525 C 0.07375 0.55092 0.605 0.0
N1526 N 0.1382 0.6441 0.60786 0.0
N1527 N 0.09632 0.57034 0.59926 0.0
H1528 H 0.13857 0.5588 0.15866 0.0
H1529 H 0.13187 0.70547 0.09767 0.0
H1530 H 0.05692 0.58422 0.13062 0.0
H1531 H 0.21402 0.67874 0.1249 0.0
H1532 H 0.10308 0.66303 0.11084 0.0
H1533 H 0.16544 0.60468 0.14784 0.0
C1534 C 0.12616 0.57412 0.15034 0.0
C1535 C 0.09543 0.56742 0.1455 0.0
C1536 C 0.12738 0.66651 0.11397 0.0
C1537 C 0.12625 0.62003 0.13295 0.0
C1538 C 0.14386 0.69076 0.10644 0.0
C1539 C 0.17549 0.69564 0.11011 0.0
C1540 C 0.14261 0.64694 0.12527 0.0
C1541 C 0.18972 0.67583 0.12163 0.0
C1542 C 0.14158 0.60031 0.14412 0.0
C1543 C 0.08063 0.58826 0.13468 0.0
N1544 N 0.17322 0.65234 0.12874 0.0
N1545 N 0.09622 0.61347 0.12872 0.0
H1546 H 0.19505 0.39408 0.90928 0.0
H1547 H 0.04931 0.38792 0.84785 0.0
H1548 H 0.16905 0.31143 0.88226 0.0
H1549 H 0.07517 0.46907 0.8761 0.0
H1550 H 0.09169 0.35877 0.86093 0.0
H1551 H 0.14985 0.421 0.89798 0.0
C1552 C 0.17978 0.38148 0.90103 0.0
C1553 C 0.18606 0.3504 0.89668 0.0
C1554 C 0.088 0.38292 0.8643 0.0
C1555 C 0.13407 0.38136 0.88357 0.0
C1556 C 0.06381 0.3996 0.85683 0.0
C1557 C 0.05871 0.43107 0.86082 0.0
C1558 C 0.10729 0.39781 0.87583 0.0
C1559 C 0.07823 0.44492 0.87257 0.0
C1560 C 0.1539 0.39694 0.89456 0.0
C1561 C 0.16523 0.33538 0.88596 0.0
N1562 N 0.10166 0.42825 0.8796 0.0
N1563 N 0.14028 0.35104 0.87971 0.0
H1564 H 0.35211 0.27063 0.62092 0.0
H1565 H 0.35797 0.45237 0.64056 0.0
H1566 H 0.27985 0.33481 0.60602 0.0
H1567 H 0.44198 0.39761 0.6357 0.0
H1568 H 0.32745 0.40754 0.63147 0.0
H1569 H 0.38405 0.3151 0.62976 0.0
C1570 C 0.34295 0.29404 0.61952 0.0
C1571 C 0.31326 0.29904 0.61273 0.0
C1572 C 0.35257 0.40534 0.63237 0.0
C1573 C 0.34948 0.34979 0.62296 0.0
C1574 C 0.37003 0.43087 0.63765 0.0
C1575 C 0.40263 0.42878 0.6389 0.0
C1576 C 0.36766 0.37724 0.62854 0.0
C1577 C 0.41692 0.4003 0.63485 0.0
C1578 C 0.36124 0.31936 0.6245 0.0
C1579 C 0.30263 0.32987 0.61114 0.0
N1580 N 0.39931 0.37554 0.62995 0.0
N1581 N 0.32061 0.35404 0.61633 0.0
H1582 H 0.45164 0.59 0.35641 0.0
H1583 H 0.31143 0.62046 0.41904 0.0
H1584 H 0.42722 0.52724 0.39578 0.0
H1585 H 0.34106 0.68779 0.38285 0.0
H1586 H 0.3551 0.58708 0.41136 0.0
H1587 H 0.41248 0.62692 0.36638 0.0
C1588 C 0.43813 0.58401 0.36718 0.0
C1589 C 0.44264 0.55536 0.37521 0.0
C1590 C 0.35222 0.60926 0.40517 0.0
C1591 C 0.3977 0.59755 0.38668 0.0
C1592 C 0.32725 0.6284 0.40957 0.0
C1593 C 0.32235 0.65697 0.40152 0.0
C1594 C 0.37244 0.61855 0.39253 0.0
C1595 C 0.34381 0.66598 0.38938 0.0
C1596 C 0.4158 0.60514 0.37288 0.0
C1597 C 0.42452 0.54896 0.38915 0.0
N1598 N 0.36773 0.64672 0.38517 0.0
N1599 N 0.40277 0.56978 0.39437 0.0
loop_
_geom_bond_atom_site_label_1
_geom_bond_atom_site_label_2
_geom_bond_distance
_geom_bond_site_symmetry_2
_ccdc_geom_bond_type
Mg0 O1 2.028 . S
Mg0 O7 1.986 . S
Mg0 O9 2.114 1_545 S
Mg0 O10 2.251 1_545 S
Mg0 O13 2.010 . S
O1 Mg0 2.028 . S
O1 C4 1.250 . S
O2 Mg3 2.028 . S
O2 C4 1.248 . S
Mg3 O2 2.028 . S
Mg3 O8 2.032 . S
Mg3 O10 2.079 1_545 S
C4 O1 1.250 . S
C4 O2 1.248 . S
C5 O6 1.264 . S
C5 O13 1.249 . S
O6 C5 1.264 . S
O7 Mg0 1.986 . S
O7 C11 1.246 . S
O8 Mg3 2.032 . S
O8 C11 1.259 . S
O9 Mg0 2.114 1_565 S
O9 C12 1.252 . S
O10 Mg0 2.251 1_565 S
O10 Mg3 2.079 1_565 S
O10 C12 1.273 . S
C11 O7 1.246 . S
C11 O8 1.259 . S
C12 O9 1.252 . S
C12 O10 1.273 . S
O13 Mg0 2.010 . S
O13 C5 1.249 . S
Mg14 O15 2.028 . S
Mg14 O21 1.986 . S
Mg14 O23 2.114 . S
Mg14 O24 2.251 . S
Mg14 O27 2.010 . S
O15 Mg14 2.028 . S
O15 C18 1.250 . S
O16 Mg17 2.028 . S
O16 C18 1.248 . S
Mg17 O16 2.028 . S
Mg17 O22 2.032 . S
Mg17 O24 2.079 . S
C18 O15 1.250 . S
C18 O16 1.248 . S
C19 O20 1.264 . S
C19 O27 1.249 . S
O20 C19 1.264 . S
O21 Mg14 1.986 . S
O21 C25 1.246 . S
O22 Mg17 2.032 . S
O22 C25 1.259 . S
O23 Mg14 2.114 . S
O23 C26 1.252 . S
O24 Mg14 2.251 . S
O24 Mg17 2.079 . S
O24 C26 1.273 . S
C25 O21 1.246 . S
C25 O22 1.259 . S
C26 O23 1.252 . S
C26 O24 1.273 . S
O27 Mg14 2.010 . S
O27 C19 1.249 . S
Mg28 O29 2.028 . S
Mg28 O35 1.986 . S
Mg28 O37 2.114 1_565 S
Mg28 O38 2.251 1_565 S
Mg28 O41 2.010 . S
O29 Mg28 2.028 . S
O29 C32 1.250 . S
O30 Mg31 2.028 . S
O30 C32 1.248 . S
Mg31 O30 2.028 . S
Mg31 O36 2.032 . S
Mg31 O38 2.079 1_565 S
C32 O29 1.250 . S
C32 O30 1.248 . S
C33 O34 1.264 . S
C33 O41 1.249 1_655 S
O34 C33 1.264 . S
O35 Mg28 1.986 . S
O35 C39 1.246 . S
O36 Mg31 2.032 . S
O36 C39 1.259 . S
O37 Mg28 2.114 1_545 S
O37 C40 1.252 . S
O38 Mg28 2.251 1_545 S
O38 Mg31 2.079 1_545 S
O38 C40 1.273 . S
C39 O35 1.246 . S
C39 O36 1.259 . S
C40 O37 1.252 . S
C40 O38 1.273 . S
O41 Mg28 2.010 . S
O41 C33 1.249 1_455 S
Mg42 O43 2.028 . S
Mg42 O49 1.986 . S
Mg42 O51 2.114 . S
Mg42 O52 2.251 . S
Mg42 O55 2.010 . S
O43 Mg42 2.028 . S
O43 C46 1.250 . S
O44 Mg45 2.028 . S
O44 C46 1.248 . S
Mg45 O44 2.028 . S
Mg45 O50 2.032 . S
Mg45 O52 2.079 . S
C46 O43 1.250 . S
C46 O44 1.248 . S
C47 O48 1.264 . S
C47 O55 1.249 . S
O48 C47 1.264 . S
O49 Mg42 1.986 . S
O49 C53 1.246 . S
O50 Mg45 2.032 . S
O50 C53 1.259 . S
O51 Mg42 2.114 . S
O51 C54 1.252 . S
O52 Mg42 2.251 . S
O52 Mg45 2.079 . S
O52 C54 1.273 . S
C53 O49 1.246 . S
C53 O50 1.259 . S
C54 O51 1.252 . S
C54 O52 1.273 . S
O55 Mg42 2.010 . S
O55 C47 1.249 . S
Mg56 O57 2.028 . S
Mg56 O63 1.986 . S
Mg56 O65 2.114 1_565 S
Mg56 O66 2.251 1_565 S
Mg56 O69 2.010 . S
O57 Mg56 2.028 . S
O57 C60 1.250 . S
O58 Mg59 2.028 . S
O58 C60 1.248 . S
Mg59 O58 2.028 . S
Mg59 O64 2.032 . S
Mg59 O66 2.079 1_565 S
C60 O57 1.250 . S
C60 O58 1.248 . S
C61 O62 1.264 . S
C61 O69 1.249 . S
O62 C61 1.264 . S
O63 Mg56 1.986 . S
O63 C67 1.246 . S
O64 Mg59 2.032 . S
O64 C67 1.259 . S
O65 Mg56 2.114 1_545 S
O65 C68 1.252 . S
O66 Mg56 2.251 1_545 S
O66 Mg59 2.079 1_545 S
O66 C68 1.273 . S
C67 O63 1.246 . S
C67 O64 1.259 . S
C68 O65 1.252 . S
C68 O66 1.273 . S
O69 Mg56 2.010 . S
O69 C61 1.249 . S
Mg70 O71 2.028 . S
Mg70 O77 1.986 . S
Mg70 O79 2.114 . S
Mg70 O80 2.251 . S
Mg70 O83 2.010 . S
O71 Mg70 2.028 . S
O71 C74 1.250 . S
O72 Mg73 2.028 . S
O72 C74 1.248 . S
Mg73 O72 2.028 . S
Mg73 O78 2.032 . S
Mg73 O80 2.079 . S
C74 O71 1.250 . S
C74 O72 1.248 . S
C75 O76 1.264 . S
C75 O83 1.249 . S
O76 C75 1.264 . S
O77 Mg70 1.986 . S
O77 C81 1.246 . S
O78 Mg73 2.032 . S
O78 C81 1.259 . S
O79 Mg70 2.114 . S
O79 C82 1.252 . S
O80 Mg70 2.251 . S
O80 Mg73 2.079 . S
O80 C82 1.273 . S
C81 O77 1.246 . S
C81 O78 1.259 . S
C82 O79 1.252 . S
C82 O80 1.273 . S
O83 Mg70 2.010 . S
O83 C75 1.249 . S
Mg84 O85 2.028 . S
Mg84 O91 1.986 . S
Mg84 O93 2.114 1_545 S
Mg84 O94 2.251 1_545 S
Mg84 O97 2.010 . S
O85 Mg84 2.028 . S
O85 C88 1.250 . S
O86 Mg87 2.028 . S
O86 C88 1.248 . S
Mg87 O86 2.028 . S
Mg87 O92 2.032 . S
Mg87 O94 2.079 1_545 S
C88 O85 1.250 . S
C88 O86 1.248 . S
C89 O90 1.264 . S
C89 O97 1.249 1_655 S
O90 C89 1.264 . S
O91 Mg84 1.986 . S
O91 C95 1.246 . S
O92 Mg87 2.032 . S
O92 C95 1.259 . S
O93 Mg84 2.114 1_565 S
O93 C96 1.252 . S
O94 Mg84 2.251 1_565 S
O94 Mg87 2.079 1_565 S
O94 C96 1.273 . S
C95 O91 1.246 . S
C95 O92 1.259 . S
C96 O93 1.252 . S
C96 O94 1.273 . S
O97 Mg84 2.010 . S
O97 C89 1.249 1_455 S
Mg98 O99 2.028 . S
Mg98 O105 1.986 . S
Mg98 O107 2.114 . S
Mg98 O108 2.251 . S
Mg98 O111 2.010 . S
O99 Mg98 2.028 . S
O99 C102 1.250 . S
O100 Mg101 2.028 . S
O100 C102 1.248 . S
Mg101 O100 2.028 . S
Mg101 O106 2.032 . S
Mg101 O108 2.079 . S
C102 O99 1.250 . S
C102 O100 1.248 . S
C103 O104 1.264 . S
C103 O111 1.249 . S
O104 C103 1.264 . S
O105 Mg98 1.986 . S
O105 C109 1.246 . S
O106 Mg101 2.032 . S
O106 C109 1.259 . S
O107 Mg98 2.114 . S
O107 C110 1.252 . S
O108 Mg98 2.251 . S
O108 Mg101 2.079 . S
O108 C110 1.273 . S
C109 O105 1.246 . S
C109 O106 1.259 . S
C110 O107 1.252 . S
C110 O108 1.273 . S
O111 Mg98 2.010 . S
O111 C103 1.249 . S
Mg112 O113 2.028 . S
Mg112 O119 1.986 . S
Mg112 O121 2.114 1_565 S
Mg112 O122 2.251 1_565 S
Mg112 O125 2.010 . S
O113 Mg112 2.028 . S
O113 C116 1.250 . S
O114 Mg115 2.028 . S
O114 C116 1.248 . S
Mg115 O114 2.028 . S
Mg115 O120 2.032 . S
Mg115 O122 2.079 1_565 S
C116 O113 1.250 . S
C116 O114 1.248 . S
C117 O118 1.264 . S
C117 O125 1.249 . S
O118 C117 1.264 . S
O119 Mg112 1.986 . S
O119 C123 1.246 . S
O120 Mg115 2.032 . S
O120 C123 1.259 . S
O121 Mg112 2.114 1_545 S
O121 C124 1.252 . S
O122 Mg112 2.251 1_545 S
O122 Mg115 2.079 1_545 S
O122 C124 1.273 . S
C123 O119 1.246 . S
C123 O120 1.259 . S
C124 O121 1.252 . S
C124 O122 1.273 . S
O125 Mg112 2.010 . S
O125 C117 1.249 . S
Mg126 O127 2.028 . S
Mg126 O133 1.986 . S
Mg126 O135 2.114 . S
Mg126 O136 2.251 . S
Mg126 O139 2.010 . S
O127 Mg126 2.028 . S
O127 C130 1.250 . S
O128 Mg129 2.028 . S
O128 C130 1.248 . S
Mg129 O128 2.028 . S
Mg129 O134 2.032 . S
Mg129 O136 2.079 . S
C130 O127 1.250 . S
C130 O128 1.248 . S
C131 O132 1.264 . S
C131 O139 1.249 . S
O132 C131 1.264 . S
O133 Mg126 1.986 . S
O133 C137 1.246 . S
O134 Mg129 2.032 . S
O134 C137 1.259 . S
O135 Mg126 2.114 . S
O135 C138 1.252 . S
O136 Mg126 2.251 . S
O136 Mg129 2.079 . S
O136 C138 1.273 . S
C137 O133 1.246 . S
C137 O134 1.259 . S
C138 O135 1.252 . S
C138 O136 1.273 . S
O139 Mg126 2.010 . S
O139 C131 1.249 . S
Mg140 O141 2.028 . S
Mg140 O147 1.986 . S
Mg140 O149 2.114 1_545 S
Mg140 O150 2.251 1_545 S
Mg140 O153 2.010 . S
O141 Mg140 2.028 . S
O141 C144 1.250 . S
O142 Mg143 2.028 . S
O142 C144 1.248 . S
Mg143 O142 2.028 . S
Mg143 O148 2.032 . S
Mg143 O150 2.079 1_545 S
C144 O141 1.250 . S
C144 O142 1.248 . S
C145 O146 1.264 . S
C145 O153 1.249 1_455 S
O146 C145 1.264 . S
O147 Mg140 1.986 . S
O147 C151 1.246 . S
O148 Mg143 2.032 . S
O148 C151 1.259 . S
O149 Mg140 2.114 1_565 S
O149 C152 1.252 . S
O150 Mg140 2.251 1_565 S
O150 Mg143 2.079 1_565 S
O150 C152 1.273 . S
C151 O147 1.246 . S
C151 O148 1.259 . S
C152 O149 1.252 . S
C152 O150 1.273 . S
O153 Mg140 2.010 . S
O153 C145 1.249 1_655 S
Mg154 O155 2.028 . S
Mg154 O161 1.986 . S
Mg154 O163 2.114 . S
Mg154 O164 2.251 . S
Mg154 O167 2.010 . S
O155 Mg154 2.028 . S
O155 C158 1.250 . S
O156 Mg157 2.028 . S
O156 C158 1.248 . S
Mg157 O156 2.028 . S
Mg157 O162 2.032 . S
Mg157 O164 2.079 . S
C158 O155 1.250 . S
C158 O156 1.248 . S
C159 O160 1.264 . S
C159 O167 1.249 . S
O160 C159 1.264 . S
O161 Mg154 1.986 . S
O161 C165 1.246 . S
O162 Mg157 2.032 . S
O162 C165 1.259 . S
O163 Mg154 2.114 . S
O163 C166 1.252 . S
O164 Mg154 2.251 . S
O164 Mg157 2.079 . S
O164 C166 1.273 . S
C165 O161 1.246 . S
C165 O162 1.259 . S
C166 O163 1.252 . S
C166 O164 1.273 . S
O167 Mg154 2.010 . S
O167 C159 1.249 . S
Mg168 O169 2.028 . S
Mg168 O175 1.986 . S
Mg168 O177 2.114 1_545 S
Mg168 O178 2.251 1_545 S
Mg168 O181 2.010 . S
O169 Mg168 2.028 . S
O169 C172 1.250 . S
O170 Mg171 2.028 . S
O170 C172 1.248 . S
Mg171 O170 2.028 . S
Mg171 O176 2.032 . S
Mg171 O178 2.079 1_545 S
C172 O169 1.250 . S
C172 O170 1.248 . S
C173 O174 1.264 . S
C173 O181 1.249 . S
O174 C173 1.264 . S
O175 Mg168 1.986 . S
O175 C179 1.246 . S
O176 Mg171 2.032 . S
O176 C179 1.259 . S
O177 Mg168 2.114 1_565 S
O177 C180 1.252 . S
O178 Mg168 2.251 1_565 S
O178 Mg171 2.079 1_565 S
O178 C180 1.273 . S
C179 O175 1.246 . S
C179 O176 1.259 . S
C180 O177 1.252 . S
C180 O178 1.273 . S
O181 Mg168 2.010 . S
O181 C173 1.249 . S
Mg182 O183 2.028 . S
Mg182 O189 1.986 . S
Mg182 O191 2.114 . S
Mg182 O192 2.251 . S
Mg182 O195 2.010 . S
O183 Mg182 2.028 . S
O183 C186 1.250 . S
O184 Mg185 2.028 . S
O184 C186 1.248 . S
Mg185 O184 2.028 . S
Mg185 O190 2.032 . S
Mg185 O192 2.079 . S
C186 O183 1.250 . S
C186 O184 1.248 . S
C187 O188 1.264 . S
C187 O195 1.249 . S
O188 C187 1.264 . S
O189 Mg182 1.986 . S
O189 C193 1.246 . S
O190 Mg185 2.032 . S
O190 C193 1.259 . S
O191 Mg182 2.114 . S
O191 C194 1.252 . S
O192 Mg182 2.251 . S
O192 Mg185 2.079 . S
O192 C194 1.273 . S
C193 O189 1.246 . S
C193 O190 1.259 . S
C194 O191 1.252 . S
C194 O192 1.273 . S
O195 Mg182 2.010 . S
O195 C187 1.249 . S
Mg196 O197 2.028 . S
Mg196 O203 1.986 . S
Mg196 O205 2.114 1_565 S
Mg196 O206 2.251 1_565 S
Mg196 O209 2.010 . S
O197 Mg196 2.028 . S
O197 C200 1.250 . S
O198 Mg199 2.028 . S
O198 C200 1.248 . S
Mg199 O198 2.028 . S
Mg199 O204 2.032 . S
Mg199 O206 2.079 1_565 S
C200 O197 1.250 . S
C200 O198 1.248 . S
C201 O202 1.264 . S
C201 O209 1.249 1_455 S
O202 C201 1.264 . S
O203 Mg196 1.986 . S
O203 C207 1.246 . S
O204 Mg199 2.032 . S
O204 C207 1.259 . S
O205 Mg196 2.114 1_545 S
O205 C208 1.252 . S
O206 Mg196 2.251 1_545 S
O206 Mg199 2.079 1_545 S
O206 C208 1.273 . S
C207 O203 1.246 . S
C207 O204 1.259 . S
C208 O205 1.252 . S
C208 O206 1.273 . S
O209 Mg196 2.010 . S
O209 C201 1.249 1_655 S
Mg210 O211 2.028 . S
Mg210 O217 1.986 . S
Mg210 O219 2.114 . S
Mg210 O220 2.251 . S
Mg210 O223 2.010 . S
O211 Mg210 2.028 . S
O211 C214 1.250 . S
O212 Mg213 2.028 . S
O212 C214 1.248 . S
Mg213 O212 2.028 . S
Mg213 O218 2.032 . S
Mg213 O220 2.079 . S
C214 O211 1.250 . S
C214 O212 1.248 . S
C215 O216 1.264 . S
C215 O223 1.249 . S
O216 C215 1.264 . S
O217 Mg210 1.986 . S
O217 C221 1.246 . S
O218 Mg213 2.032 . S
O218 C221 1.259 . S
O219 Mg210 2.114 . S
O219 C222 1.252 . S
O220 Mg210 2.251 . S
O220 Mg213 2.079 . S
O220 C222 1.273 . S
C221 O217 1.246 . S
C221 O218 1.259 . S
C222 O219 1.252 . S
C222 O220 1.273 . S
O223 Mg210 2.010 . S
O223 C215 1.249 . S
Mg224 O225 2.028 . S
Mg224 O231 1.986 . S
Mg224 O233 2.114 . S
Mg224 O234 2.251 . S
Mg224 O237 2.010 . S
O225 Mg224 2.028 . S
O225 C228 1.250 . S
O226 Mg227 2.028 . S
O226 C228 1.248 . S
Mg227 O226 2.028 . S
Mg227 O232 2.032 . S
Mg227 O234 2.079 . S
C228 O225 1.250 . S
C228 O226 1.248 . S
C229 O230 1.264 . S
C229 O237 1.249 1_455 S
O230 C229 1.264 . S
O231 Mg224 1.986 . S
O231 C235 1.246 . S
O232 Mg227 2.032 . S
O232 C235 1.259 . S
O233 Mg224 2.114 . S
O233 C236 1.252 . S
O234 Mg224 2.251 . S
O234 Mg227 2.079 . S
O234 C236 1.273 . S
C235 O231 1.246 . S
C235 O232 1.259 . S
C236 O233 1.252 . S
C236 O234 1.273 . S
O237 Mg224 2.010 . S
O237 C229 1.249 1_655 S
Mg238 O239 2.028 . S
Mg238 O245 1.986 . S
Mg238 O247 2.114 . S
Mg238 O248 2.251 . S
Mg238 O251 2.010 . S
O239 Mg238 2.028 . S
O239 C242 1.250 . S
O240 Mg241 2.028 . S
O240 C242 1.248 . S
Mg241 O240 2.028 . S
Mg241 O246 2.032 . S
Mg241 O248 2.079 . S
C242 O239 1.250 . S
C242 O240 1.248 . S
C243 O244 1.264 . S
C243 O251 1.249 . S
O244 C243 1.264 . S
O245 Mg238 1.986 . S
O245 C249 1.246 . S
O246 Mg241 2.032 . S
O246 C249 1.259 . S
O247 Mg238 2.114 . S
O247 C250 1.252 . S
O248 Mg238 2.251 . S
O248 Mg241 2.079 . S
O248 C250 1.273 . S
C249 O245 1.246 . S
C249 O246 1.259 . S
C250 O247 1.252 . S
C250 O248 1.273 . S
O251 Mg238 2.010 . S
O251 C243 1.249 . S
Mg252 O253 2.028 . S
Mg252 O259 1.986 . S
Mg252 O261 2.114 . S
Mg252 O262 2.251 . S
Mg252 O265 2.010 . S
O253 Mg252 2.028 . S
O253 C256 1.250 . S
O254 Mg255 2.028 . S
O254 C256 1.248 . S
Mg255 O254 2.028 . S
Mg255 O260 2.032 . S
Mg255 O262 2.079 . S
C256 O253 1.250 . S
C256 O254 1.248 . S
C257 O258 1.264 . S
C257 O265 1.249 . S
O258 C257 1.264 . S
O259 Mg252 1.986 . S
O259 C263 1.246 . S
O260 Mg255 2.032 . S
O260 C263 1.259 . S
O261 Mg252 2.114 . S
O261 C264 1.252 . S
O262 Mg252 2.251 . S
O262 Mg255 2.079 . S
O262 C264 1.273 . S
C263 O259 1.246 . S
C263 O260 1.259 . S
C264 O261 1.252 . S
C264 O262 1.273 . S
O265 Mg252 2.010 . S
O265 C257 1.249 . S
Mg266 O267 2.028 . S
Mg266 O273 1.986 . S
Mg266 O275 2.114 . S
Mg266 O276 2.251 . S
Mg266 O279 2.010 . S
O267 Mg266 2.028 . S
O267 C270 1.250 . S
O268 Mg269 2.028 . S
O268 C270 1.248 . S
Mg269 O268 2.028 . S
Mg269 O274 2.032 . S
Mg269 O276 2.079 . S
C270 O267 1.250 . S
C270 O268 1.248 . S
C271 O272 1.264 . S
C271 O279 1.249 . S
O272 C271 1.264 . S
O273 Mg266 1.986 . S
O273 C277 1.246 . S
O274 Mg269 2.032 . S
O274 C277 1.259 . S
O275 Mg266 2.114 . S
O275 C278 1.252 . S
O276 Mg266 2.251 . S
O276 Mg269 2.079 . S
O276 C278 1.273 . S
C277 O273 1.246 . S
C277 O274 1.259 . S
C278 O275 1.252 . S
C278 O276 1.273 . S
O279 Mg266 2.010 . S
O279 C271 1.249 . S
Mg280 O281 2.028 . S
Mg280 O287 1.986 . S
Mg280 O289 2.114 . S
Mg280 O290 2.251 . S
Mg280 O293 2.010 . S
O281 Mg280 2.028 . S
O281 C284 1.250 . S
O282 Mg283 2.028 . S
O282 C284 1.248 . S
Mg283 O282 2.028 . S
Mg283 O288 2.032 . S
Mg283 O290 2.079 . S
C284 O281 1.250 . S
C284 O282 1.248 . S
C285 O286 1.264 . S
C285 O293 1.249 1_455 S
O286 C285 1.264 . S
O287 Mg280 1.986 . S
O287 C291 1.246 . S
O288 Mg283 2.032 . S
O288 C291 1.259 . S
O289 Mg280 2.114 . S
O289 C292 1.252 . S
O290 Mg280 2.251 . S
O290 Mg283 2.079 . S
O290 C292 1.273 . S
C291 O287 1.246 . S
C291 O288 1.259 . S
C292 O289 1.252 . S
C292 O290 1.273 . S
O293 Mg280 2.010 . S
O293 C285 1.249 1_655 S
Mg294 O295 2.028 . S
Mg294 O301 1.986 . S
Mg294 O303 2.114 . S
Mg294 O304 2.251 . S
Mg294 O307 2.010 . S
O295 Mg294 2.028 . S
O295 C298 1.250 . S
O296 Mg297 2.028 . S
O296 C298 1.248 . S
Mg297 O296 2.028 . S
Mg297 O302 2.032 . S
Mg297 O304 2.079 . S
C298 O295 1.250 . S
C298 O296 1.248 . S
C299 O300 1.264 . S
C299 O307 1.249 . S
O300 C299 1.264 . S
O301 Mg294 1.986 . S
O301 C305 1.246 . S
O302 Mg297 2.032 . S
O302 C305 1.259 . S
O303 Mg294 2.114 . S
O303 C306 1.252 . S
O304 Mg294 2.251 . S
O304 Mg297 2.079 . S
O304 C306 1.273 . S
C305 O301 1.246 . S
C305 O302 1.259 . S
C306 O303 1.252 . S
C306 O304 1.273 . S
O307 Mg294 2.010 . S
O307 C299 1.249 . S
Mg308 O309 2.028 . S
Mg308 O315 1.986 . S
Mg308 O317 2.114 . S
Mg308 O318 2.251 . S
Mg308 O321 2.010 . S
O309 Mg308 2.028 . S
O309 C312 1.250 . S
O310 Mg311 2.028 . S
O310 C312 1.248 . S
Mg311 O310 2.028 . S
Mg311 O316 2.032 . S
Mg311 O318 2.079 . S
C312 O309 1.250 . S
C312 O310 1.248 . S
C313 O314 1.264 . S
C313 O321 1.249 . S
O314 C313 1.264 . S
O315 Mg308 1.986 . S
O315 C319 1.246 . S
O316 Mg311 2.032 . S
O316 C319 1.259 . S
O317 Mg308 2.114 . S
O317 C320 1.252 . S
O318 Mg308 2.251 . S
O318 Mg311 2.079 . S
O318 C320 1.273 . S
C319 O315 1.246 . S
C319 O316 1.259 . S
C320 O317 1.252 . S
C320 O318 1.273 . S
O321 Mg308 2.010 . S
O321 C313 1.249 . S
Mg322 O323 2.028 . S
Mg322 O329 1.986 . S
Mg322 O331 2.114 . S
Mg322 O332 2.251 . S
Mg322 O335 2.010 . S
O323 Mg322 2.028 . S
O323 C326 1.250 . S
O324 Mg325 2.028 . S
O324 C326 1.248 . S
Mg325 O324 2.028 . S
Mg325 O330 2.032 . S
Mg325 O332 2.079 . S
C326 O323 1.250 . S
C326 O324 1.248 . S
C327 O328 1.264 . S
C327 O335 1.249 . S
O328 C327 1.264 . S
O329 Mg322 1.986 . S
O329 C333 1.246 . S
O330 Mg325 2.032 . S
O330 C333 1.259 . S
O331 Mg322 2.114 . S
O331 C334 1.252 . S
O332 Mg322 2.251 . S
O332 Mg325 2.079 . S
O332 C334 1.273 . S
C333 O329 1.246 . S
C333 O330 1.259 . S
C334 O331 1.252 . S
C334 O332 1.273 . S
O335 Mg322 2.010 . S
O335 C327 1.249 . S
Mg336 O337 2.028 . S
Mg336 O343 1.986 . S
Mg336 O345 2.114 . S
Mg336 O346 2.251 . S
Mg336 O349 2.010 . S
O337 Mg336 2.028 . S
O337 C340 1.250 . S
O338 Mg339 2.028 . S
O338 C340 1.248 . S
Mg339 O338 2.028 . S
Mg339 O344 2.032 . S
Mg339 O346 2.079 . S
C340 O337 1.250 . S
C340 O338 1.248 . S
C341 O342 1.264 . S
C341 O349 1.249 1_655 S
O342 C341 1.264 . S
O343 Mg336 1.986 . S
O343 C347 1.246 . S
O344 Mg339 2.032 . S
O344 C347 1.259 . S
O345 Mg336 2.114 . S
O345 C348 1.252 . S
O346 Mg336 2.251 . S
O346 Mg339 2.079 . S
O346 C348 1.273 . S
C347 O343 1.246 . S
C347 O344 1.259 . S
C348 O345 1.252 . S
C348 O346 1.273 . S
O349 Mg336 2.010 . S
O349 C341 1.249 1_455 S
Mg350 O351 2.028 . S
Mg350 O357 1.986 . S
Mg350 O359 2.114 . S
Mg350 O360 2.251 . S
Mg350 O363 2.010 . S
O351 Mg350 2.028 . S
O351 C354 1.250 . S
O352 Mg353 2.028 . S
O352 C354 1.248 . S
Mg353 O352 2.028 . S
Mg353 O358 2.032 . S
Mg353 O360 2.079 . S
C354 O351 1.250 . S
C354 O352 1.248 . S
C355 O356 1.264 . S
C355 O363 1.249 . S
O356 C355 1.264 . S
O357 Mg350 1.986 . S
O357 C361 1.246 . S
O358 Mg353 2.032 . S
O358 C361 1.259 . S
O359 Mg350 2.114 . S
O359 C362 1.252 . S
O360 Mg350 2.251 . S
O360 Mg353 2.079 . S
O360 C362 1.273 . S
C361 O357 1.246 . S
C361 O358 1.259 . S
C362 O359 1.252 . S
C362 O360 1.273 . S
O363 Mg350 2.010 . S
O363 C355 1.249 . S
Mg364 O365 2.028 . S
Mg364 O371 1.986 . S
Mg364 O373 2.114 . S
Mg364 O374 2.251 . S
Mg364 O377 2.010 . S
O365 Mg364 2.028 . S
O365 C368 1.250 . S
O366 Mg367 2.028 . S
O366 C368 1.248 . S
Mg367 O366 2.028 . S
Mg367 O372 2.032 . S
Mg367 O374 2.079 . S
C368 O365 1.250 . S
C368 O366 1.248 . S
C369 O370 1.264 . S
C369 O377 1.249 . S
O370 C369 1.264 . S
O371 Mg364 1.986 . S
O371 C375 1.246 . S
O372 Mg367 2.032 . S
O372 C375 1.259 . S
O373 Mg364 2.114 . S
O373 C376 1.252 . S
O374 Mg364 2.251 . S
O374 Mg367 2.079 . S
O374 C376 1.273 . S
C375 O371 1.246 . S
C375 O372 1.259 . S
C376 O373 1.252 . S
C376 O374 1.273 . S
O377 Mg364 2.010 . S
O377 C369 1.249 . S
Mg378 O379 2.028 . S
Mg378 O385 1.986 . S
Mg378 O387 2.114 . S
Mg378 O388 2.251 . S
Mg378 O391 2.010 . S
O379 Mg378 2.028 . S
O379 C382 1.250 . S
O380 Mg381 2.028 . S
O380 C382 1.248 . S
Mg381 O380 2.028 . S
Mg381 O386 2.032 . S
Mg381 O388 2.079 . S
C382 O379 1.250 . S
C382 O380 1.248 . S
C383 O384 1.264 . S
C383 O391 1.249 . S
O384 C383 1.264 . S
O385 Mg378 1.986 . S
O385 C389 1.246 . S
O386 Mg381 2.032 . S
O386 C389 1.259 . S
O387 Mg378 2.114 . S
O387 C390 1.252 . S
O388 Mg378 2.251 . S
O388 Mg381 2.079 . S
O388 C390 1.273 . S
C389 O385 1.246 . S
C389 O386 1.259 . S
C390 O387 1.252 . S
C390 O388 1.273 . S
O391 Mg378 2.010 . S
O391 C383 1.249 . S
Mg392 O393 2.028 . S
Mg392 O399 1.986 . S
Mg392 O401 2.114 . S
Mg392 O402 2.251 . S
Mg392 O405 2.010 . S
O393 Mg392 2.028 . S
O393 C396 1.250 . S
O394 Mg395 2.028 . S
O394 C396 1.248 . S
Mg395 O394 2.028 . S
Mg395 O400 2.032 . S
Mg395 O402 2.079 . S
C396 O393 1.250 . S
C396 O394 1.248 . S
C397 O398 1.264 . S
C397 O405 1.249 1_655 S
O398 C397 1.264 . S
O399 Mg392 1.986 . S
O399 C403 1.246 . S
O400 Mg395 2.032 . S
O400 C403 1.259 . S
O401 Mg392 2.114 . S
O401 C404 1.252 . S
O402 Mg392 2.251 . S
O402 Mg395 2.079 . S
O402 C404 1.273 . S
C403 O399 1.246 . S
C403 O400 1.259 . S
C404 O401 1.252 . S
C404 O402 1.273 . S
O405 Mg392 2.010 . S
O405 C397 1.249 1_455 S
Mg406 O407 2.028 . S
Mg406 O413 1.986 . S
Mg406 O415 2.114 . S
Mg406 O416 2.251 . S
Mg406 O419 2.010 . S
O407 Mg406 2.028 . S
O407 C410 1.250 . S
O408 Mg409 2.028 . S
O408 C410 1.248 . S
Mg409 O408 2.028 . S
Mg409 O414 2.032 . S
Mg409 O416 2.079 . S
C410 O407 1.250 . S
C410 O408 1.248 . S
C411 O412 1.264 . S
C411 O419 1.249 . S
O412 C411 1.264 . S
O413 Mg406 1.986 . S
O413 C417 1.246 . S
O414 Mg409 2.032 . S
O414 C417 1.259 . S
O415 Mg406 2.114 . S
O415 C418 1.252 . S
O416 Mg406 2.251 . S
O416 Mg409 2.079 . S
O416 C418 1.273 . S
C417 O413 1.246 . S
C417 O414 1.259 . S
C418 O415 1.252 . S
C418 O416 1.273 . S
O419 Mg406 2.010 . S
O419 C411 1.249 . S
Mg420 O421 2.028 . S
Mg420 O427 1.986 . S
Mg420 O429 2.114 . S
Mg420 O430 2.251 . S
Mg420 O433 2.010 . S
O421 Mg420 2.028 . S
O421 C424 1.250 . S
O422 Mg423 2.028 . S
O422 C424 1.248 . S
Mg423 O422 2.028 . S
Mg423 O428 2.032 . S
Mg423 O430 2.079 . S
C424 O421 1.250 . S
C424 O422 1.248 . S
C425 O426 1.264 . S
C425 O433 1.249 . S
O426 C425 1.264 . S
O427 Mg420 1.986 . S
O427 C431 1.246 . S
O428 Mg423 2.032 . S
O428 C431 1.259 . S
O429 Mg420 2.114 . S
O429 C432 1.252 . S
O430 Mg420 2.251 . S
O430 Mg423 2.079 . S
O430 C432 1.273 . S
C431 O427 1.246 . S
C431 O428 1.259 . S
C432 O429 1.252 . S
C432 O430 1.273 . S
O433 Mg420 2.010 . S
O433 C425 1.249 . S
Mg434 O435 2.028 . S
Mg434 O441 1.986 . S
Mg434 O443 2.114 . S
Mg434 O444 2.251 . S
Mg434 O447 2.010 . S
O435 Mg434 2.028 . S
O435 C438 1.250 . S
O436 Mg437 2.028 . S
O436 C438 1.248 . S
Mg437 O436 2.028 . S
Mg437 O442 2.032 . S
Mg437 O444 2.079 . S
C438 O435 1.250 . S
C438 O436 1.248 . S
C439 O440 1.264 . S
C439 O447 1.249 . S
O440 C439 1.264 . S
O441 Mg434 1.986 . S
O441 C445 1.246 . S
O442 Mg437 2.032 . S
O442 C445 1.259 . S
O443 Mg434 2.114 . S
O443 C446 1.252 . S
O444 Mg434 2.251 . S
O444 Mg437 2.079 . S
O444 C446 1.273 . S
C445 O441 1.246 . S
C445 O442 1.259 . S
C446 O443 1.252 . S
C446 O444 1.273 . S
O447 Mg434 2.010 . S
O447 C439 1.249 . S
H448 C454 0.930 . S
H449 C458 0.930 . S
H450 C463 0.929 . S
H451 C461 0.929 . S
H452 C456 0.929 . S
H453 C462 0.929 . S
C454 H448 0.930 . S
C454 C455 1.367 . S
C454 C462 1.378 . S
C455 C454 1.367 . S
C455 C463 1.433 1_565 S
C456 H452 0.929 . S
C456 C458 1.378 . S
C456 C460 1.350 . S
C457 C460 1.463 1_565 S
C457 C462 1.350 . S
C457 N465 1.427 1_565 S
C458 H449 0.930 . S
C458 C456 1.378 . S
C458 C459 1.367 . S
C459 C458 1.367 . S
C459 C461 1.433 1_545 S
C460 C456 1.350 . S
C460 C457 1.463 1_545 S
C460 N464 1.427 1_545 S
C461 H451 0.929 . S
C461 C459 1.433 1_565 S
C461 N464 1.384 . S
C462 H453 0.929 . S
C462 C454 1.378 . S
C462 C457 1.350 . S
C463 H450 0.929 . S
C463 C455 1.433 1_545 S
C463 N465 1.384 . S
N464 C460 1.427 1_565 S
N464 C461 1.384 . S
N465 C457 1.427 1_545 S
N465 C463 1.384 . S
H466 C472 0.930 . S
H467 C476 0.930 . S
H468 C481 0.929 . S
H469 C479 0.929 . S
H470 C474 0.929 . S
H471 C480 0.929 . S
C472 H466 0.930 . S
C472 C473 1.367 . S
C472 C480 1.378 . S
C473 C472 1.367 . S
C473 C481 1.433 . S
C474 H470 0.929 . S
C474 C476 1.378 . S
C474 C478 1.350 . S
C475 C478 1.463 . S
C475 C480 1.350 . S
C475 N483 1.427 . S
C476 H467 0.930 . S
C476 C474 1.378 . S
C476 C477 1.367 . S
C477 C476 1.367 . S
C477 C479 1.433 . S
C478 C474 1.350 . S
C478 C475 1.463 . S
C478 N482 1.427 . S
C479 H469 0.929 . S
C479 C477 1.433 . S
C479 N482 1.384 . S
C480 H471 0.929 . S
C480 C472 1.378 . S
C480 C475 1.350 . S
C481 H468 0.929 . S
C481 C473 1.433 . S
C481 N483 1.384 . S
N482 C478 1.427 . S
N482 C479 1.384 . S
N483 C475 1.427 . S
N483 C481 1.384 . S
H484 C490 0.930 . S
H485 C494 0.930 . S
H486 C499 0.929 . S
H487 C497 0.929 . S
H488 C492 0.929 . S
H489 C498 0.929 . S
C490 H484 0.930 . S
C490 C491 1.367 . S
C490 C498 1.378 . S
C491 C490 1.367 . S
C491 C499 1.433 1_545 S
C492 H488 0.929 . S
C492 C494 1.378 . S
C492 C496 1.350 . S
C493 C496 1.463 1_545 S
C493 C498 1.350 . S
C493 N501 1.427 1_545 S
C494 H485 0.930 . S
C494 C492 1.378 . S
C494 C495 1.367 . S
C495 C494 1.367 . S
C495 C497 1.433 1_565 S
C496 C492 1.350 . S
C496 C493 1.463 1_565 S
C496 N500 1.427 1_565 S
C497 H487 0.929 . S
C497 C495 1.433 1_545 S
C497 N500 1.384 . S
C498 H489 0.929 . S
C498 C490 1.378 . S
C498 C493 1.350 . S
C499 H486 0.929 . S
C499 C491 1.433 1_565 S
C499 N501 1.384 . S
N500 C496 1.427 1_545 S
N500 C497 1.384 . S
N501 C493 1.427 1_565 S
N501 C499 1.384 . S
H502 C508 0.930 . S
H503 C512 0.930 . S
H504 C517 0.929 . S
H505 C515 0.929 . S
H506 C510 0.929 . S
H507 C516 0.929 . S
C508 H502 0.930 . S
C508 C509 1.367 . S
C508 C516 1.378 . S
C509 C508 1.367 . S
C509 C517 1.433 . S
C510 H506 0.929 . S
C510 C512 1.378 . S
C510 C514 1.350 . S
C511 C514 1.463 1_556 S
C511 C516 1.350 . S
C511 N519 1.427 . S
C512 H503 0.930 . S
C512 C510 1.378 . S
C512 C513 1.367 . S
C513 C512 1.367 . S
C513 C515 1.433 . S
C514 C510 1.350 . S
C514 C511 1.463 1_554 S
C514 N518 1.427 . S
C515 H505 0.929 . S
C515 C513 1.433 . S
C515 N518 1.384 . S
C516 H507 0.929 . S
C516 C508 1.378 . S
C516 C511 1.350 . S
C517 H504 0.929 . S
C517 C509 1.433 . S
C517 N519 1.384 . S
N518 C514 1.427 . S
N518 C515 1.384 . S
N519 C511 1.427 . S
N519 C517 1.384 . S
H520 C526 0.930 . S
H521 C530 0.930 . S
H522 C535 0.929 . S
H523 C533 0.929 . S
H524 C528 0.929 . S
H525 C534 0.929 . S
C526 H520 0.930 . S
C526 C527 1.367 . S
C526 C534 1.378 . S
C527 C526 1.367 . S
C527 C535 1.433 1_565 S
C528 H524 0.929 . S
C528 C530 1.378 . S
C528 C532 1.350 . S
C529 C532 1.463 1_565 S
C529 C534 1.350 . S
C529 N537 1.427 1_565 S
C530 H521 0.930 . S
C530 C528 1.378 . S
C530 C531 1.367 . S
C531 C530 1.367 . S
C531 C533 1.433 1_545 S
C532 C528 1.350 . S
C532 C529 1.463 1_545 S
C532 N536 1.427 1_545 S
C533 H523 0.929 . S
C533 C531 1.433 1_565 S
C533 N536 1.384 . S
C534 H525 0.929 . S
C534 C526 1.378 . S
C534 C529 1.350 . S
C535 H522 0.929 . S
C535 C527 1.433 1_545 S
C535 N537 1.384 . S
N536 C532 1.427 1_565 S
N536 C533 1.384 . S
N537 C529 1.427 1_545 S
N537 C535 1.384 . S
H538 C544 0.930 . S
H539 C548 0.930 . S
H540 C553 0.929 . S
H541 C551 0.929 . S
H542 C546 0.929 . S
H543 C552 0.929 . S
C544 H538 0.930 . S
C544 C545 1.367 . S
C544 C552 1.378 . S
C545 C544 1.367 . S
C545 C553 1.433 . S
C546 H542 0.929 . S
C546 C548 1.378 . S
C546 C550 1.350 . S
C547 C550 1.463 . S
C547 C552 1.350 . S
C547 N555 1.427 . S
C548 H539 0.930 . S
C548 C546 1.378 . S
C548 C549 1.367 . S
C549 C548 1.367 . S
C549 C551 1.433 . S
C550 C546 1.350 . S
C550 C547 1.463 . S
C550 N554 1.427 . S
C551 H541 0.929 . S
C551 C549 1.433 . S
C551 N554 1.384 . S
C552 H543 0.929 . S
C552 C544 1.378 . S
C552 C547 1.350 . S
C553 H540 0.929 . S
C553 C545 1.433 . S
C553 N555 1.384 . S
N554 C550 1.427 . S
N554 C551 1.384 . S
N555 C547 1.427 . S
N555 C553 1.384 . S
H556 C562 0.930 1_565 S
H557 C566 0.930 1_545 S
H558 C571 0.929 . S
H559 C569 0.929 . S
H560 C564 0.929 . S
H561 C570 0.929 . S
C562 H556 0.930 1_545 S
C562 C563 1.367 . S
C562 C570 1.378 1_545 S
C563 C562 1.367 . S
C563 C571 1.433 . S
C564 H560 0.929 . S
C564 C566 1.378 1_545 S
C564 C568 1.350 1_545 S
C565 C568 1.463 1_545 S
C565 C570 1.350 1_545 S
C565 N573 1.427 . S
C566 H557 0.930 1_565 S
C566 C564 1.378 1_565 S
C566 C567 1.367 . S
C567 C566 1.367 . S
C567 C569 1.433 . S
C568 C564 1.350 1_565 S
C568 C565 1.463 1_565 S
C568 N572 1.427 . S
C569 H559 0.929 . S
C569 C567 1.433 . S
C569 N572 1.384 . S
C570 H561 0.929 . S
C570 C562 1.378 1_565 S
C570 C565 1.350 1_565 S
C571 H558 0.929 . S
C571 C563 1.433 . S
C571 N573 1.384 . S
N572 C568 1.427 . S
N572 C569 1.384 . S
N573 C565 1.427 . S
N573 C571 1.384 . S
H574 C580 0.930 . S
H575 C584 0.930 . S
H576 C589 0.929 . S
H577 C587 0.929 . S
H578 C582 0.929 . S
H579 C588 0.929 . S
C580 H574 0.930 . S
C580 C581 1.367 . S
C580 C588 1.378 . S
C581 C580 1.367 . S
C581 C589 1.433 . S
C582 H578 0.929 . S
C582 C584 1.378 . S
C582 C586 1.350 . S
C583 C586 1.463 1_556 S
C583 C588 1.350 . S
C583 N591 1.427 . S
C584 H575 0.930 . S
C584 C582 1.378 . S
C584 C585 1.367 . S
C585 C584 1.367 . S
C585 C587 1.433 . S
C586 C582 1.350 . S
C586 C583 1.463 1_554 S
C586 N590 1.427 . S
C587 H577 0.929 . S
C587 C585 1.433 . S
C587 N590 1.384 . S
C588 H579 0.929 . S
C588 C580 1.378 . S
C588 C583 1.350 . S
C589 H576 0.929 . S
C589 C581 1.433 . S
C589 N591 1.384 . S
N590 C586 1.427 . S
N590 C587 1.384 . S
N591 C583 1.427 . S
N591 C589 1.384 . S
H592 C598 0.930 . S
H593 C602 0.930 . S
H594 C607 0.929 . S
H595 C605 0.929 . S
H596 C600 0.929 . S
H597 C606 0.929 . S
C598 H592 0.930 . S
C598 C599 1.367 . S
C598 C606 1.378 . S
C599 C598 1.367 . S
C599 C607 1.433 . S
C600 H596 0.929 . S
C600 C602 1.378 . S
C600 C604 1.350 . S
C601 C604 1.463 . S
C601 C606 1.350 . S
C601 N609 1.427 . S
C602 H593 0.930 . S
C602 C600 1.378 . S
C602 C603 1.367 . S
C603 C602 1.367 . S
C603 C605 1.433 . S
C604 C600 1.350 . S
C604 C601 1.463 . S
C604 N608 1.427 . S
C605 H595 0.929 . S
C605 C603 1.433 . S
C605 N608 1.384 . S
C606 H597 0.929 . S
C606 C598 1.378 . S
C606 C601 1.350 . S
C607 H594 0.929 . S
C607 C599 1.433 . S
C607 N609 1.384 . S
N608 C604 1.427 . S
N608 C605 1.384 . S
N609 C601 1.427 . S
N609 C607 1.384 . S
H610 C616 0.930 . S
H611 C620 0.930 . S
H612 C625 0.929 . S
H613 C623 0.929 . S
H614 C618 0.929 . S
H615 C624 0.929 . S
C616 H610 0.930 . S
C616 C617 1.367 . S
C616 C624 1.378 . S
C617 C616 1.367 . S
C617 C625 1.433 . S
C618 H614 0.929 . S
C618 C620 1.378 . S
C618 C622 1.350 . S
C619 C622 1.463 1_554 S
C619 C624 1.350 . S
C619 N627 1.427 . S
C620 H611 0.930 . S
C620 C618 1.378 . S
C620 C621 1.367 . S
C621 C620 1.367 . S
C621 C623 1.433 . S
C622 C618 1.350 . S
C622 C619 1.463 1_556 S
C622 N626 1.427 . S
C623 H613 0.929 . S
C623 C621 1.433 . S
C623 N626 1.384 . S
C624 H615 0.929 . S
C624 C616 1.378 . S
C624 C619 1.350 . S
C625 H612 0.929 . S
C625 C617 1.433 . S
C625 N627 1.384 . S
N626 C622 1.427 . S
N626 C623 1.384 . S
N627 C619 1.427 . S
N627 C625 1.384 . S
H628 C634 0.930 . S
H629 C638 0.930 . S
H630 C643 0.929 . S
H631 C641 0.929 . S
H632 C636 0.929 . S
H633 C642 0.929 . S
C634 H628 0.930 . S
C634 C635 1.367 . S
C634 C642 1.378 . S
C635 C634 1.367 . S
C635 C643 1.433 . S
C636 H632 0.929 . S
C636 C638 1.378 . S
C636 C640 1.350 . S
C637 C640 1.463 . S
C637 C642 1.350 . S
C637 N645 1.427 . S
C638 H629 0.930 . S
C638 C636 1.378 . S
C638 C639 1.367 . S
C639 C638 1.367 . S
C639 C641 1.433 . S
C640 C636 1.350 . S
C640 C637 1.463 . S
C640 N644 1.427 . S
C641 H631 0.929 . S
C641 C639 1.433 . S
C641 N644 1.384 . S
C642 H633 0.929 . S
C642 C634 1.378 . S
C642 C637 1.350 . S
C643 H630 0.929 . S
C643 C635 1.433 . S
C643 N645 1.384 . S
N644 C640 1.427 . S
N644 C641 1.384 . S
N645 C637 1.427 . S
N645 C643 1.384 . S
H646 C652 0.930 . S
H647 C656 0.930 . S
H648 C661 0.929 . S
H649 C659 0.929 . S
H650 C654 0.929 . S
H651 C660 0.929 . S
C652 H646 0.930 . S
C652 C653 1.367 . S
C652 C660 1.378 . S
C653 C652 1.367 . S
C653 C661 1.433 . S
C654 H650 0.929 . S
C654 C656 1.378 . S
C654 C658 1.350 . S
C655 C658 1.463 . S
C655 C660 1.350 . S
C655 N663 1.427 . S
C656 H647 0.930 . S
C656 C654 1.378 . S
C656 C657 1.367 . S
C657 C656 1.367 . S
C657 C659 1.433 . S
C658 C654 1.350 . S
C658 C655 1.463 . S
C658 N662 1.427 . S
C659 H649 0.929 . S
C659 C657 1.433 . S
C659 N662 1.384 . S
C660 H651 0.929 . S
C660 C652 1.378 . S
C660 C655 1.350 . S
C661 H648 0.929 . S
C661 C653 1.433 . S
C661 N663 1.384 . S
N662 C658 1.427 . S
N662 C659 1.384 . S
N663 C655 1.427 . S
N663 C661 1.384 . S
H664 C670 0.930 . S
H665 C674 0.930 . S
H666 C679 0.929 . S
H667 C677 0.929 . S
H668 C672 0.929 . S
H669 C678 0.929 . S
C670 H664 0.930 . S
C670 C671 1.367 . S
C670 C678 1.378 . S
C671 C670 1.367 . S
C671 C679 1.433 . S
C672 H668 0.929 . S
C672 C674 1.378 . S
C672 C676 1.350 . S
C673 C676 1.463 . S
C673 C678 1.350 . S
C673 N681 1.427 . S
C674 H665 0.930 . S
C674 C672 1.378 . S
C674 C675 1.367 . S
C675 C674 1.367 . S
C675 C677 1.433 . S
C676 C672 1.350 . S
C676 C673 1.463 . S
C676 N680 1.427 . S
C677 H667 0.929 . S
C677 C675 1.433 . S
C677 N680 1.384 . S
C678 H669 0.929 . S
C678 C670 1.378 . S
C678 C673 1.350 . S
C679 H666 0.929 . S
C679 C671 1.433 . S
C679 N681 1.384 . S
N680 C676 1.427 . S
N680 C677 1.384 . S
N681 C673 1.427 . S
N681 C679 1.384 . S
H682 C688 0.930 . S
H683 C692 0.930 . S
H684 C697 0.929 . S
H685 C695 0.929 . S
H686 C690 0.929 . S
H687 C696 0.929 . S
C688 H682 0.930 . S
C688 C689 1.367 . S
C688 C696 1.378 . S
C689 C688 1.367 . S
C689 C697 1.433 . S
C690 H686 0.929 . S
C690 C692 1.378 . S
C690 C694 1.350 . S
C691 C694 1.463 1_554 S
C691 C696 1.350 . S
C691 N699 1.427 . S
C692 H683 0.930 . S
C692 C690 1.378 . S
C692 C693 1.367 . S
C693 C692 1.367 . S
C693 C695 1.433 . S
C694 C690 1.350 . S
C694 C691 1.463 1_556 S
C694 N698 1.427 . S
C695 H685 0.929 . S
C695 C693 1.433 . S
C695 N698 1.384 . S
C696 H687 0.929 . S
C696 C688 1.378 . S
C696 C691 1.350 . S
C697 H684 0.929 . S
C697 C689 1.433 . S
C697 N699 1.384 . S
N698 C694 1.427 . S
N698 C695 1.384 . S
N699 C691 1.427 . S
N699 C697 1.384 . S
H700 C706 0.930 . S
H701 C710 0.930 . S
H702 C715 0.929 . S
H703 C713 0.929 . S
H704 C708 0.929 . S
H705 C714 0.929 . S
C706 H700 0.930 . S
C706 C707 1.367 . S
C706 C714 1.378 . S
C707 C706 1.367 . S
C707 C715 1.433 . S
C708 H704 0.929 . S
C708 C710 1.378 . S
C708 C712 1.350 . S
C709 C712 1.463 . S
C709 C714 1.350 . S
C709 N717 1.427 . S
C710 H701 0.930 . S
C710 C708 1.378 . S
C710 C711 1.367 . S
C711 C710 1.367 . S
C711 C713 1.433 . S
C712 C708 1.350 . S
C712 C709 1.463 . S
C712 N716 1.427 . S
C713 H703 0.929 . S
C713 C711 1.433 . S
C713 N716 1.384 . S
C714 H705 0.929 . S
C714 C706 1.378 . S
C714 C709 1.350 . S
C715 H702 0.929 . S
C715 C707 1.433 . S
C715 N717 1.384 . S
N716 C712 1.427 . S
N716 C713 1.384 . S
N717 C709 1.427 . S
N717 C715 1.384 . S
H718 C724 0.930 . S
H719 C728 0.930 . S
H720 C733 0.929 . S
H721 C731 0.929 . S
H722 C726 0.929 . S
H723 C732 0.929 . S
C724 H718 0.930 . S
C724 C725 1.367 . S
C724 C732 1.378 . S
C725 C724 1.367 . S
C725 C733 1.433 . S
C726 H722 0.929 . S
C726 C728 1.378 . S
C726 C730 1.350 . S
C727 C730 1.463 . S
C727 C732 1.350 . S
C727 N735 1.427 . S
C728 H719 0.930 . S
C728 C726 1.378 . S
C728 C729 1.367 . S
C729 C728 1.367 . S
C729 C731 1.433 . S
C730 C726 1.350 . S
C730 C727 1.463 . S
C730 N734 1.427 . S
C731 H721 0.929 . S
C731 C729 1.433 . S
C731 N734 1.384 . S
C732 H723 0.929 . S
C732 C724 1.378 . S
C732 C727 1.350 . S
C733 H720 0.929 . S
C733 C725 1.433 . S
C733 N735 1.384 . S
N734 C730 1.427 . S
N734 C731 1.384 . S
N735 C727 1.427 . S
N735 C733 1.384 . S
H736 C742 0.930 . S
H737 C746 0.930 . S
H738 C751 0.929 . S
H739 C749 0.929 . S
H740 C744 0.929 . S
H741 C750 0.929 . S
C742 H736 0.930 . S
C742 C743 1.367 . S
C742 C750 1.378 . S
C743 C742 1.367 . S
C743 C751 1.433 . S
C744 H740 0.929 . S
C744 C746 1.378 . S
C744 C748 1.350 . S
C745 C748 1.463 . S
C745 C750 1.350 . S
C745 N753 1.427 . S
C746 H737 0.930 . S
C746 C744 1.378 . S
C746 C747 1.367 . S
C747 C746 1.367 . S
C747 C749 1.433 . S
C748 C744 1.350 . S
C748 C745 1.463 . S
C748 N752 1.427 . S
C749 H739 0.929 . S
C749 C747 1.433 . S
C749 N752 1.384 . S
C750 H741 0.929 . S
C750 C742 1.378 . S
C750 C745 1.350 . S
C751 H738 0.929 . S
C751 C743 1.433 . S
C751 N753 1.384 . S
N752 C748 1.427 . S
N752 C749 1.384 . S
N753 C745 1.427 . S
N753 C751 1.384 . S
H754 C760 0.930 . S
H755 C764 0.930 . S
H756 C769 0.929 . S
H757 C767 0.929 . S
H758 C762 0.929 . S
H759 C768 0.929 . S
C760 H754 0.930 . S
C760 C761 1.367 . S
C760 C768 1.378 . S
C761 C760 1.367 . S
C761 C769 1.433 . S
C762 H758 0.929 . S
C762 C764 1.378 . S
C762 C766 1.350 . S
C763 C766 1.463 . S
C763 C768 1.350 . S
C763 N771 1.427 . S
C764 H755 0.930 . S
C764 C762 1.378 . S
C764 C765 1.367 . S
C765 C764 1.367 . S
C765 C767 1.433 . S
C766 C762 1.350 . S
C766 C763 1.463 . S
C766 N770 1.427 . S
C767 H757 0.929 . S
C767 C765 1.433 . S
C767 N770 1.384 . S
C768 H759 0.929 . S
C768 C760 1.378 . S
C768 C763 1.350 . S
C769 H756 0.929 . S
C769 C761 1.433 . S
C769 N771 1.384 . S
N770 C766 1.427 . S
N770 C767 1.384 . S
N771 C763 1.427 . S
N771 C769 1.384 . S
H772 C778 0.930 . S
H773 C782 0.930 . S
H774 C787 0.929 . S
H775 C785 0.929 . S
H776 C780 0.929 . S
H777 C786 0.929 . S
C778 H772 0.930 . S
C778 C779 1.367 . S
C778 C786 1.378 . S
C779 C778 1.367 . S
C779 C787 1.433 . S
C780 H776 0.929 . S
C780 C782 1.378 . S
C780 C784 1.350 . S
C781 C784 1.463 . S
C781 C786 1.350 . S
C781 N789 1.427 . S
C782 H773 0.930 . S
C782 C780 1.378 . S
C782 C783 1.367 . S
C783 C782 1.367 . S
C783 C785 1.433 . S
C784 C780 1.350 . S
C784 C781 1.463 . S
C784 N788 1.427 . S
C785 H775 0.929 . S
C785 C783 1.433 . S
C785 N788 1.384 . S
C786 H777 0.929 . S
C786 C778 1.378 . S
C786 C781 1.350 . S
C787 H774 0.929 . S
C787 C779 1.433 . S
C787 N789 1.384 . S
N788 C784 1.427 . S
N788 C785 1.384 . S
N789 C781 1.427 . S
N789 C787 1.384 . S
H790 C796 0.930 . S
H791 C800 0.930 . S
H792 C805 0.929 . S
H793 C803 0.929 . S
H794 C798 0.929 . S
H795 C804 0.929 . S
C796 H790 0.930 . S
C796 C797 1.367 . S
C796 C804 1.378 . S
C797 C796 1.367 . S
C797 C805 1.433 . S
C798 H794 0.929 . S
C798 C800 1.378 . S
C798 C802 1.350 . S
C799 C802 1.463 . S
C799 C804 1.350 . S
C799 N807 1.427 . S
C800 H791 0.930 . S
C800 C798 1.378 . S
C800 C801 1.367 . S
C801 C800 1.367 . S
C801 C803 1.433 . S
C802 C798 1.350 . S
C802 C799 1.463 . S
C802 N806 1.427 . S
C803 H793 0.929 . S
C803 C801 1.433 . S
C803 N806 1.384 . S
C804 H795 0.929 . S
C804 C796 1.378 . S
C804 C799 1.350 . S
C805 H792 0.929 . S
C805 C797 1.433 . S
C805 N807 1.384 . S
N806 C802 1.427 . S
N806 C803 1.384 . S
N807 C799 1.427 . S
N807 C805 1.384 . S
H808 C814 0.930 . S
H809 C818 0.930 . S
H810 C823 0.929 . S
H811 C821 0.929 . S
H812 C816 0.929 . S
H813 C822 0.929 . S
C814 H808 0.930 . S
C814 C815 1.367 . S
C814 C822 1.378 . S
C815 C814 1.367 . S
C815 C823 1.433 . S
C816 H812 0.929 . S
C816 C818 1.378 . S
C816 C820 1.350 . S
C817 C820 1.463 . S
C817 C822 1.350 . S
C817 N825 1.427 . S
C818 H809 0.930 . S
C818 C816 1.378 . S
C818 C819 1.367 . S
C819 C818 1.367 . S
C819 C821 1.433 . S
C820 C816 1.350 . S
C820 C817 1.463 . S
C820 N824 1.427 . S
C821 H811 0.929 . S
C821 C819 1.433 . S
C821 N824 1.384 . S
C822 H813 0.929 . S
C822 C814 1.378 . S
C822 C817 1.350 . S
C823 H810 0.929 . S
C823 C815 1.433 . S
C823 N825 1.384 . S
N824 C820 1.427 . S
N824 C821 1.384 . S
N825 C817 1.427 . S
N825 C823 1.384 . S
H826 C832 0.930 . S
H827 C836 0.930 . S
H828 C841 0.929 . S
H829 C839 0.929 . S
H830 C834 0.929 . S
H831 C840 0.929 . S
C832 H826 0.930 . S
C832 C833 1.367 . S
C832 C840 1.378 . S
C833 C832 1.367 . S
C833 C841 1.433 . S
C834 H830 0.929 . S
C834 C836 1.378 . S
C834 C838 1.350 . S
C835 C838 1.463 . S
C835 C840 1.350 . S
C835 N843 1.427 . S
C836 H827 0.930 . S
C836 C834 1.378 . S
C836 C837 1.367 . S
C837 C836 1.367 . S
C837 C839 1.433 . S
C838 C834 1.350 . S
C838 C835 1.463 . S
C838 N842 1.427 . S
C839 H829 0.929 . S
C839 C837 1.433 . S
C839 N842 1.384 . S
C840 H831 0.929 . S
C840 C832 1.378 . S
C840 C835 1.350 . S
C841 H828 0.929 . S
C841 C833 1.433 . S
C841 N843 1.384 . S
N842 C838 1.427 . S
N842 C839 1.384 . S
N843 C835 1.427 . S
N843 C841 1.384 . S
H844 C850 0.930 . S
H845 C854 0.930 . S
H846 C859 0.929 . S
H847 C857 0.929 . S
H848 C852 0.929 . S
H849 C858 0.929 . S
C850 H844 0.930 . S
C850 C851 1.367 . S
C850 C858 1.378 . S
C851 C850 1.367 . S
C851 C859 1.433 . S
C852 H848 0.929 . S
C852 C854 1.378 . S
C852 C856 1.350 . S
C853 C856 1.463 . S
C853 C858 1.350 . S
C853 N861 1.427 . S
C854 H845 0.930 . S
C854 C852 1.378 . S
C854 C855 1.367 . S
C855 C854 1.367 . S
C855 C857 1.433 . S
C856 C852 1.350 . S
C856 C853 1.463 . S
C856 N860 1.427 . S
C857 H847 0.929 . S
C857 C855 1.433 . S
C857 N860 1.384 . S
C858 H849 0.929 . S
C858 C850 1.378 . S
C858 C853 1.350 . S
C859 H846 0.929 . S
C859 C851 1.433 . S
C859 N861 1.384 . S
N860 C856 1.427 . S
N860 C857 1.384 . S
N861 C853 1.427 . S
N861 C859 1.384 . S
H862 C868 0.930 . S
H863 C872 0.930 . S
H864 C877 0.929 . S
H865 C875 0.929 . S
H866 C870 0.929 . S
H867 C876 0.929 . S
C868 H862 0.930 . S
C868 C869 1.367 . S
C868 C876 1.378 . S
C869 C868 1.367 . S
C869 C877 1.433 . S
C870 H866 0.929 . S
C870 C872 1.378 . S
C870 C874 1.350 . S
C871 C874 1.463 . S
C871 C876 1.350 . S
C871 N879 1.427 . S
C872 H863 0.930 . S
C872 C870 1.378 . S
C872 C873 1.367 . S
C873 C872 1.367 . S
C873 C875 1.433 . S
C874 C870 1.350 . S
C874 C871 1.463 . S
C874 N878 1.427 . S
C875 H865 0.929 . S
C875 C873 1.433 . S
C875 N878 1.384 . S
C876 H867 0.929 . S
C876 C868 1.378 . S
C876 C871 1.350 . S
C877 H864 0.929 . S
C877 C869 1.433 . S
C877 N879 1.384 . S
N878 C874 1.427 . S
N878 C875 1.384 . S
N879 C871 1.427 . S
N879 C877 1.384 . S
H880 C886 0.930 . S
H881 C890 0.930 . S
H882 C895 0.929 . S
H883 C893 0.929 . S
H884 C888 0.929 . S
H885 C894 0.929 . S
C886 H880 0.930 . S
C886 C887 1.367 . S
C886 C894 1.378 . S
C887 C886 1.367 . S
C887 C895 1.433 . S
C888 H884 0.929 . S
C888 C890 1.378 . S
C888 C892 1.350 . S
C889 C892 1.463 . S
C889 C894 1.350 . S
C889 N897 1.427 . S
C890 H881 0.930 . S
C890 C888 1.378 . S
C890 C891 1.367 . S
C891 C890 1.367 . S
C891 C893 1.433 . S
C892 C888 1.350 . S
C892 C889 1.463 . S
C892 N896 1.427 . S
C893 H883 0.929 . S
C893 C891 1.433 . S
C893 N896 1.384 . S
C894 H885 0.929 . S
C894 C886 1.378 . S
C894 C889 1.350 . S
C895 H882 0.929 . S
C895 C887 1.433 . S
C895 N897 1.384 . S
N896 C892 1.427 . S
N896 C893 1.384 . S
N897 C889 1.427 . S
N897 C895 1.384 . S
H898 C904 0.930 . S
H899 C908 0.930 . S
H900 C913 0.929 . S
H901 C911 0.929 . S
H902 C906 0.929 . S
H903 C912 0.929 . S
C904 H898 0.930 . S
C904 C905 1.367 . S
C904 C912 1.378 . S
C905 C904 1.367 . S
C905 C913 1.433 . S
C906 H902 0.929 . S
C906 C908 1.378 . S
C906 C910 1.350 . S
C907 C910 1.463 . S
C907 C912 1.350 . S
C907 N915 1.427 . S
C908 H899 0.930 . S
C908 C906 1.378 . S
C908 C909 1.367 . S
C909 C908 1.367 . S
C909 C911 1.433 . S
C910 C906 1.350 . S
C910 C907 1.463 . S
C910 N914 1.427 . S
C911 H901 0.929 . S
C911 C909 1.433 . S
C911 N914 1.384 . S
C912 H903 0.929 . S
C912 C904 1.378 . S
C912 C907 1.350 . S
C913 H900 0.929 . S
C913 C905 1.433 . S
C913 N915 1.384 . S
N914 C910 1.427 . S
N914 C911 1.384 . S
N915 C907 1.427 . S
N915 C913 1.384 . S
H916 C922 0.930 . S
H917 C926 0.930 . S
H918 C931 0.929 . S
H919 C929 0.929 . S
H920 C924 0.929 . S
H921 C930 0.929 . S
C922 H916 0.930 . S
C922 C923 1.367 . S
C922 C930 1.378 . S
C923 C922 1.367 . S
C923 C931 1.433 . S
C924 H920 0.929 . S
C924 C926 1.378 . S
C924 C928 1.350 . S
C925 C928 1.463 . S
C925 C930 1.350 . S
C925 N933 1.427 . S
C926 H917 0.930 . S
C926 C924 1.378 . S
C926 C927 1.367 . S
C927 C926 1.367 . S
C927 C929 1.433 . S
C928 C924 1.350 . S
C928 C925 1.463 . S
C928 N932 1.427 . S
C929 H919 0.929 . S
C929 C927 1.433 . S
C929 N932 1.384 . S
C930 H921 0.929 . S
C930 C922 1.378 . S
C930 C925 1.350 . S
C931 H918 0.929 . S
C931 C923 1.433 . S
C931 N933 1.384 . S
N932 C928 1.427 . S
N932 C929 1.384 . S
N933 C925 1.427 . S
N933 C931 1.384 . S
H934 C940 0.930 . S
H935 C944 0.930 . S
H936 C949 0.929 . S
H937 C947 0.929 . S
H938 C942 0.929 . S
H939 C948 0.929 . S
C940 H934 0.930 . S
C940 C941 1.367 . S
C940 C948 1.378 . S
C941 C940 1.367 . S
C941 C949 1.433 . S
C942 H938 0.929 . S
C942 C944 1.378 . S
C942 C946 1.350 . S
C943 C946 1.463 . S
C943 C948 1.350 . S
C943 N951 1.427 . S
C944 H935 0.930 . S
C944 C942 1.378 . S
C944 C945 1.367 . S
C945 C944 1.367 . S
C945 C947 1.433 . S
C946 C942 1.350 . S
C946 C943 1.463 . S
C946 N950 1.427 . S
C947 H937 0.929 . S
C947 C945 1.433 . S
C947 N950 1.384 . S
C948 H939 0.929 . S
C948 C940 1.378 . S
C948 C943 1.350 . S
C949 H936 0.929 . S
C949 C941 1.433 . S
C949 N951 1.384 . S
N950 C946 1.427 . S
N950 C947 1.384 . S
N951 C943 1.427 . S
N951 C949 1.384 . S
H952 C958 0.930 . S
H953 C962 0.930 . S
H954 C967 0.929 . S
H955 C965 0.929 . S
H956 C960 0.929 . S
H957 C966 0.929 . S
C958 H952 0.930 . S
C958 C959 1.367 . S
C958 C966 1.378 . S
C959 C958 1.367 . S
C959 C967 1.433 . S
C960 H956 0.929 . S
C960 C962 1.378 . S
C960 C964 1.350 . S
C961 C964 1.463 . S
C961 C966 1.350 . S
C961 N969 1.427 . S
C962 H953 0.930 . S
C962 C960 1.378 . S
C962 C963 1.367 . S
C963 C962 1.367 . S
C963 C965 1.433 . S
C964 C960 1.350 . S
C964 C961 1.463 . S
C964 N968 1.427 . S
C965 H955 0.929 . S
C965 C963 1.433 . S
C965 N968 1.384 . S
C966 H957 0.929 . S
C966 C958 1.378 . S
C966 C961 1.350 . S
C967 H954 0.929 . S
C967 C959 1.433 . S
C967 N969 1.384 . S
N968 C964 1.427 . S
N968 C965 1.384 . S
N969 C961 1.427 . S
N969 C967 1.384 . S
H970 C976 0.930 . S
H971 C980 0.930 . S
H972 C985 0.929 . S
H973 C983 0.929 . S
H974 C978 0.929 . S
H975 C984 0.929 . S
C976 H970 0.930 . S
C976 C977 1.367 . S
C976 C984 1.378 . S
C977 C976 1.367 . S
C977 C985 1.433 . S
C978 H974 0.929 . S
C978 C980 1.378 . S
C978 C982 1.350 . S
C979 C982 1.463 . S
C979 C984 1.350 . S
C979 N987 1.427 . S
C980 H971 0.930 . S
C980 C978 1.378 . S
C980 C981 1.367 . S
C981 C980 1.367 . S
C981 C983 1.433 . S
C982 C978 1.350 . S
C982 C979 1.463 . S
C982 N986 1.427 . S
C983 H973 0.929 . S
C983 C981 1.433 . S
C983 N986 1.384 . S
C984 H975 0.929 . S
C984 C976 1.378 . S
C984 C979 1.350 . S
C985 H972 0.929 . S
C985 C977 1.433 . S
C985 N987 1.384 . S
N986 C982 1.427 . S
N986 C983 1.384 . S
N987 C979 1.427 . S
N987 C985 1.384 . S
H988 C994 0.930 . S
H989 C998 0.930 . S
H990 C1003 0.929 . S
H991 C1001 0.929 . S
H992 C996 0.929 . S
H993 C1002 0.929 . S
C994 H988 0.930 . S
C994 C995 1.367 . S
C994 C1002 1.378 . S
C995 C994 1.367 . S
C995 C1003 1.433 . S
C996 H992 0.929 . S
C996 C998 1.378 . S
C996 C1000 1.350 . S
C997 C1000 1.463 . S
C997 C1002 1.350 . S
C997 N1005 1.427 . S
C998 H989 0.930 . S
C998 C996 1.378 . S
C998 C999 1.367 . S
C999 C998 1.367 . S
C999 C1001 1.433 . S
C1000 C996 1.350 . S
C1000 C997 1.463 . S
C1000 N1004 1.427 . S
C1001 H991 0.929 . S
C1001 C999 1.433 . S
C1001 N1004 1.384 . S
C1002 H993 0.929 . S
C1002 C994 1.378 . S
C1002 C997 1.350 . S
C1003 H990 0.929 . S
C1003 C995 1.433 . S
C1003 N1005 1.384 . S
N1004 C1000 1.427 . S
N1004 C1001 1.384 . S
N1005 C997 1.427 . S
N1005 C1003 1.384 . S
H1006 C1012 0.930 . S
H1007 C1016 0.930 . S
H1008 C1021 0.929 . S
H1009 C1019 0.929 . S
H1010 C1014 0.929 . S
H1011 C1020 0.929 . S
C1012 H1006 0.930 . S
C1012 C1013 1.367 . S
C1012 C1020 1.378 . S
C1013 C1012 1.367 . S
C1013 C1021 1.433 . S
C1014 H1010 0.929 . S
C1014 C1016 1.378 . S
C1014 C1018 1.350 . S
C1015 C1018 1.463 . S
C1015 C1020 1.350 . S
C1015 N1023 1.427 . S
C1016 H1007 0.930 . S
C1016 C1014 1.378 . S
C1016 C1017 1.367 . S
C1017 C1016 1.367 . S
C1017 C1019 1.433 . S
C1018 C1014 1.350 . S
C1018 C1015 1.463 . S
C1018 N1022 1.427 . S
C1019 H1009 0.929 . S
C1019 C1017 1.433 . S
C1019 N1022 1.384 . S
C1020 H1011 0.929 . S
C1020 C1012 1.378 . S
C1020 C1015 1.350 . S
C1021 H1008 0.929 . S
C1021 C1013 1.433 . S
C1021 N1023 1.384 . S
N1022 C1018 1.427 . S
N1022 C1019 1.384 . S
N1023 C1015 1.427 . S
N1023 C1021 1.384 . S
H1024 C1030 0.930 . S
H1025 C1034 0.930 . S
H1026 C1039 0.929 . S
H1027 C1037 0.929 . S
H1028 C1032 0.929 . S
H1029 C1038 0.929 . S
C1030 H1024 0.930 . S
C1030 C1031 1.367 . S
C1030 C1038 1.378 . S
C1031 C1030 1.367 . S
C1031 C1039 1.433 . S
C1032 H1028 0.929 . S
C1032 C1034 1.378 . S
C1032 C1036 1.350 . S
C1033 C1036 1.463 . S
C1033 C1038 1.350 . S
C1033 N1041 1.427 . S
C1034 H1025 0.930 . S
C1034 C1032 1.378 . S
C1034 C1035 1.367 . S
C1035 C1034 1.367 . S
C1035 C1037 1.433 . S
C1036 C1032 1.350 . S
C1036 C1033 1.463 . S
C1036 N1040 1.427 . S
C1037 H1027 0.929 . S
C1037 C1035 1.433 . S
C1037 N1040 1.384 . S
C1038 H1029 0.929 . S
C1038 C1030 1.378 . S
C1038 C1033 1.350 . S
C1039 H1026 0.929 . S
C1039 C1031 1.433 . S
C1039 N1041 1.384 . S
N1040 C1036 1.427 . S
N1040 C1037 1.384 . S
N1041 C1033 1.427 . S
N1041 C1039 1.384 . S
H1042 C1048 0.930 . S
H1043 C1052 0.930 . S
H1044 C1057 0.929 . S
H1045 C1055 0.929 . S
H1046 C1050 0.929 . S
H1047 C1056 0.929 . S
C1048 H1042 0.930 . S
C1048 C1049 1.367 . S
C1048 C1056 1.378 . S
C1049 C1048 1.367 . S
C1049 C1057 1.433 . S
C1050 H1046 0.929 . S
C1050 C1052 1.378 . S
C1050 C1054 1.350 . S
C1051 C1054 1.463 . S
C1051 C1056 1.350 . S
C1051 N1059 1.427 . S
C1052 H1043 0.930 . S
C1052 C1050 1.378 . S
C1052 C1053 1.367 . S
C1053 C1052 1.367 . S
C1053 C1055 1.433 . S
C1054 C1050 1.350 . S
C1054 C1051 1.463 . S
C1054 N1058 1.427 . S
C1055 H1045 0.929 . S
C1055 C1053 1.433 . S
C1055 N1058 1.384 . S
C1056 H1047 0.929 . S
C1056 C1048 1.378 . S
C1056 C1051 1.350 . S
C1057 H1044 0.929 . S
C1057 C1049 1.433 . S
C1057 N1059 1.384 . S
N1058 C1054 1.427 . S
N1058 C1055 1.384 . S
N1059 C1051 1.427 . S
N1059 C1057 1.384 . S
H1060 C1066 0.930 . S
H1061 C1070 0.930 . S
H1062 C1075 0.929 . S
H1063 C1073 0.929 . S
H1064 C1068 0.929 . S
H1065 C1074 0.929 . S
C1066 H1060 0.930 . S
C1066 C1067 1.367 . S
C1066 C1074 1.378 . S
C1067 C1066 1.367 . S
C1067 C1075 1.433 . S
C1068 H1064 0.929 . S
C1068 C1070 1.378 . S
C1068 C1072 1.350 . S
C1069 C1072 1.463 . S
C1069 C1074 1.350 . S
C1069 N1077 1.427 . S
C1070 H1061 0.930 . S
C1070 C1068 1.378 . S
C1070 C1071 1.367 . S
C1071 C1070 1.367 . S
C1071 C1073 1.433 . S
C1072 C1068 1.350 . S
C1072 C1069 1.463 . S
C1072 N1076 1.427 . S
C1073 H1063 0.929 . S
C1073 C1071 1.433 . S
C1073 N1076 1.384 . S
C1074 H1065 0.929 . S
C1074 C1066 1.378 . S
C1074 C1069 1.350 . S
C1075 H1062 0.929 . S
C1075 C1067 1.433 . S
C1075 N1077 1.384 . S
N1076 C1072 1.427 . S
N1076 C1073 1.384 . S
N1077 C1069 1.427 . S
N1077 C1075 1.384 . S
H1078 C1084 0.930 . S
H1079 C1088 0.930 . S
H1080 C1093 0.929 . S
H1081 C1091 0.929 . S
H1082 C1086 0.929 . S
H1083 C1092 0.929 . S
C1084 H1078 0.930 . S
C1084 C1085 1.367 . S
C1084 C1092 1.378 . S
C1085 C1084 1.367 . S
C1085 C1093 1.433 . S
C1086 H1082 0.929 . S
C1086 C1088 1.378 . S
C1086 C1090 1.350 . S
C1087 C1090 1.463 . S
C1087 C1092 1.350 . S
C1087 N1095 1.427 . S
C1088 H1079 0.930 . S
C1088 C1086 1.378 . S
C1088 C1089 1.367 . S
C1089 C1088 1.367 . S
C1089 C1091 1.433 . S
C1090 C1086 1.350 . S
C1090 C1087 1.463 . S
C1090 N1094 1.427 . S
C1091 H1081 0.929 . S
C1091 C1089 1.433 . S
C1091 N1094 1.384 . S
C1092 H1083 0.929 . S
C1092 C1084 1.378 . S
C1092 C1087 1.350 . S
C1093 H1080 0.929 . S
C1093 C1085 1.433 . S
C1093 N1095 1.384 . S
N1094 C1090 1.427 . S
N1094 C1091 1.384 . S
N1095 C1087 1.427 . S
N1095 C1093 1.384 . S
H1096 C1102 0.930 . S
H1097 C1106 0.930 . S
H1098 C1111 0.929 . S
H1099 C1109 0.929 . S
H1100 C1104 0.929 . S
H1101 C1110 0.929 . S
C1102 H1096 0.930 . S
C1102 C1103 1.367 . S
C1102 C1110 1.378 . S
C1103 C1102 1.367 . S
C1103 C1111 1.433 . S
C1104 H1100 0.929 . S
C1104 C1106 1.378 . S
C1104 C1108 1.350 . S
C1105 C1108 1.463 . S
C1105 C1110 1.350 . S
C1105 N1113 1.427 . S
C1106 H1097 0.930 . S
C1106 C1104 1.378 . S
C1106 C1107 1.367 . S
C1107 C1106 1.367 . S
C1107 C1109 1.433 . S
C1108 C1104 1.350 . S
C1108 C1105 1.463 . S
C1108 N1112 1.427 . S
C1109 H1099 0.929 . S
C1109 C1107 1.433 . S
C1109 N1112 1.384 . S
C1110 H1101 0.929 . S
C1110 C1102 1.378 . S
C1110 C1105 1.350 . S
C1111 H1098 0.929 . S
C1111 C1103 1.433 . S
C1111 N1113 1.384 . S
N1112 C1108 1.427 . S
N1112 C1109 1.384 . S
N1113 C1105 1.427 . S
N1113 C1111 1.384 . S
H1114 C1120 0.930 . S
H1115 C1124 0.930 . S
H1116 C1129 0.929 . S
H1117 C1127 0.929 . S
H1118 C1122 0.929 . S
H1119 C1128 0.929 . S
C1120 H1114 0.930 . S
C1120 C1121 1.367 . S
C1120 C1128 1.378 . S
C1121 C1120 1.367 . S
C1121 C1129 1.433 . S
C1122 H1118 0.929 . S
C1122 C1124 1.378 . S
C1122 C1126 1.350 . S
C1123 C1126 1.463 . S
C1123 C1128 1.350 . S
C1123 N1131 1.427 . S
C1124 H1115 0.930 . S
C1124 C1122 1.378 . S
C1124 C1125 1.367 . S
C1125 C1124 1.367 . S
C1125 C1127 1.433 . S
C1126 C1122 1.350 . S
C1126 C1123 1.463 . S
C1126 N1130 1.427 . S
C1127 H1117 0.929 . S
C1127 C1125 1.433 . S
C1127 N1130 1.384 . S
C1128 H1119 0.929 . S
C1128 C1120 1.378 . S
C1128 C1123 1.350 . S
C1129 H1116 0.929 . S
C1129 C1121 1.433 . S
C1129 N1131 1.384 . S
N1130 C1126 1.427 . S
N1130 C1127 1.384 . S
N1131 C1123 1.427 . S
N1131 C1129 1.384 . S
H1132 C1138 0.930 . S
H1133 C1142 0.930 . S
H1134 C1147 0.929 . S
H1135 C1145 0.929 . S
H1136 C1140 0.929 . S
H1137 C1146 0.929 . S
C1138 H1132 0.930 . S
C1138 C1139 1.367 . S
C1138 C1146 1.378 . S
C1139 C1138 1.367 . S
C1139 C1147 1.433 . S
C1140 H1136 0.929 . S
C1140 C1142 1.378 . S
C1140 C1144 1.350 . S
C1141 C1144 1.463 . S
C1141 C1146 1.350 . S
C1141 N1149 1.427 . S
C1142 H1133 0.930 . S
C1142 C1140 1.378 . S
C1142 C1143 1.367 . S
C1143 C1142 1.367 . S
C1143 C1145 1.433 . S
C1144 C1140 1.350 . S
C1144 C1141 1.463 . S
C1144 N1148 1.427 . S
C1145 H1135 0.929 . S
C1145 C1143 1.433 . S
C1145 N1148 1.384 . S
C1146 H1137 0.929 . S
C1146 C1138 1.378 . S
C1146 C1141 1.350 . S
C1147 H1134 0.929 . S
C1147 C1139 1.433 . S
C1147 N1149 1.384 . S
N1148 C1144 1.427 . S
N1148 C1145 1.384 . S
N1149 C1141 1.427 . S
N1149 C1147 1.384 . S
H1150 C1156 0.930 . S
H1151 C1160 0.930 . S
H1152 C1165 0.929 . S
H1153 C1163 0.929 . S
H1154 C1158 0.929 . S
H1155 C1164 0.929 . S
C1156 H1150 0.930 . S
C1156 C1157 1.367 . S
C1156 C1164 1.378 . S
C1157 C1156 1.367 . S
C1157 C1165 1.433 . S
C1158 H1154 0.929 . S
C1158 C1160 1.378 . S
C1158 C1162 1.350 . S
C1159 C1162 1.463 . S
C1159 C1164 1.350 . S
C1159 N1167 1.427 . S
C1160 H1151 0.930 . S
C1160 C1158 1.378 . S
C1160 C1161 1.367 . S
C1161 C1160 1.367 . S
C1161 C1163 1.433 . S
C1162 C1158 1.350 . S
C1162 C1159 1.463 . S
C1162 N1166 1.427 . S
C1163 H1153 0.929 . S
C1163 C1161 1.433 . S
C1163 N1166 1.384 . S
C1164 H1155 0.929 . S
C1164 C1156 1.378 . S
C1164 C1159 1.350 . S
C1165 H1152 0.929 . S
C1165 C1157 1.433 . S
C1165 N1167 1.384 . S
N1166 C1162 1.427 . S
N1166 C1163 1.384 . S
N1167 C1159 1.427 . S
N1167 C1165 1.384 . S
H1168 C1174 0.930 . S
H1169 C1178 0.930 . S
H1170 C1183 0.929 . S
H1171 C1181 0.929 . S
H1172 C1176 0.929 . S
H1173 C1182 0.929 . S
C1174 H1168 0.930 . S
C1174 C1175 1.367 . S
C1174 C1182 1.378 . S
C1175 C1174 1.367 . S
C1175 C1183 1.433 . S
C1176 H1172 0.929 . S
C1176 C1178 1.378 . S
C1176 C1180 1.350 . S
C1177 C1180 1.463 . S
C1177 C1182 1.350 . S
C1177 N1185 1.427 . S
C1178 H1169 0.930 . S
C1178 C1176 1.378 . S
C1178 C1179 1.367 . S
C1179 C1178 1.367 . S
C1179 C1181 1.433 . S
C1180 C1176 1.350 . S
C1180 C1177 1.463 . S
C1180 N1184 1.427 . S
C1181 H1171 0.929 . S
C1181 C1179 1.433 . S
C1181 N1184 1.384 . S
C1182 H1173 0.929 . S
C1182 C1174 1.378 . S
C1182 C1177 1.350 . S
C1183 H1170 0.929 . S
C1183 C1175 1.433 . S
C1183 N1185 1.384 . S
N1184 C1180 1.427 . S
N1184 C1181 1.384 . S
N1185 C1177 1.427 . S
N1185 C1183 1.384 . S
H1186 C1192 0.930 . S
H1187 C1196 0.930 . S
H1188 C1201 0.929 . S
H1189 C1199 0.929 . S
H1190 C1194 0.929 . S
H1191 C1200 0.929 . S
C1192 H1186 0.930 . S
C1192 C1193 1.367 . S
C1192 C1200 1.378 . S
C1193 C1192 1.367 . S
C1193 C1201 1.433 . S
C1194 H1190 0.929 . S
C1194 C1196 1.378 . S
C1194 C1198 1.350 . S
C1195 C1198 1.463 . S
C1195 C1200 1.350 . S
C1195 N1203 1.427 . S
C1196 H1187 0.930 . S
C1196 C1194 1.378 . S
C1196 C1197 1.367 . S
C1197 C1196 1.367 . S
C1197 C1199 1.433 . S
C1198 C1194 1.350 . S
C1198 C1195 1.463 . S
C1198 N1202 1.427 . S
C1199 H1189 0.929 . S
C1199 C1197 1.433 . S
C1199 N1202 1.384 . S
C1200 H1191 0.929 . S
C1200 C1192 1.378 . S
C1200 C1195 1.350 . S
C1201 H1188 0.929 . S
C1201 C1193 1.433 . S
C1201 N1203 1.384 . S
N1202 C1198 1.427 . S
N1202 C1199 1.384 . S
N1203 C1195 1.427 . S
N1203 C1201 1.384 . S
H1204 C1210 0.930 . S
H1205 C1214 0.930 . S
H1206 C1219 0.929 . S
H1207 C1217 0.929 . S
H1208 C1212 0.929 . S
H1209 C1218 0.929 . S
C1210 H1204 0.930 . S
C1210 C1211 1.367 . S
C1210 C1218 1.378 . S
C1211 C1210 1.367 . S
C1211 C1219 1.433 . S
C1212 H1208 0.929 . S
C1212 C1214 1.378 . S
C1212 C1216 1.350 . S
C1213 C1216 1.463 . S
C1213 C1218 1.350 . S
C1213 N1221 1.427 . S
C1214 H1205 0.930 . S
C1214 C1212 1.378 . S
C1214 C1215 1.367 . S
C1215 C1214 1.367 . S
C1215 C1217 1.433 . S
C1216 C1212 1.350 . S
C1216 C1213 1.463 . S
C1216 N1220 1.427 . S
C1217 H1207 0.929 . S
C1217 C1215 1.433 . S
C1217 N1220 1.384 . S
C1218 H1209 0.929 . S
C1218 C1210 1.378 . S
C1218 C1213 1.350 . S
C1219 H1206 0.929 . S
C1219 C1211 1.433 . S
C1219 N1221 1.384 . S
N1220 C1216 1.427 . S
N1220 C1217 1.384 . S
N1221 C1213 1.427 . S
N1221 C1219 1.384 . S
H1222 C1228 0.930 . S
H1223 C1232 0.930 . S
H1224 C1237 0.929 . S
H1225 C1235 0.929 . S
H1226 C1230 0.929 . S
H1227 C1236 0.929 . S
C1228 H1222 0.930 . S
C1228 C1229 1.367 . S
C1228 C1236 1.378 . S
C1229 C1228 1.367 . S
C1229 C1237 1.433 . S
C1230 H1226 0.929 . S
C1230 C1232 1.378 . S
C1230 C1234 1.350 . S
C1231 C1234 1.463 . S
C1231 C1236 1.350 . S
C1231 N1239 1.427 . S
C1232 H1223 0.930 . S
C1232 C1230 1.378 . S
C1232 C1233 1.367 . S
C1233 C1232 1.367 . S
C1233 C1235 1.433 . S
C1234 C1230 1.350 . S
C1234 C1231 1.463 . S
C1234 N1238 1.427 . S
C1235 H1225 0.929 . S
C1235 C1233 1.433 . S
C1235 N1238 1.384 . S
C1236 H1227 0.929 . S
C1236 C1228 1.378 . S
C1236 C1231 1.350 . S
C1237 H1224 0.929 . S
C1237 C1229 1.433 . S
C1237 N1239 1.384 . S
N1238 C1234 1.427 . S
N1238 C1235 1.384 . S
N1239 C1231 1.427 . S
N1239 C1237 1.384 . S
H1240 C1246 0.930 . S
H1241 C1250 0.930 . S
H1242 C1255 0.929 . S
H1243 C1253 0.929 . S
H1244 C1248 0.929 . S
H1245 C1254 0.929 . S
C1246 H1240 0.930 . S
C1246 C1247 1.367 . S
C1246 C1254 1.378 . S
C1247 C1246 1.367 . S
C1247 C1255 1.433 . S
C1248 H1244 0.929 . S
C1248 C1250 1.378 . S
C1248 C1252 1.350 . S
C1249 C1252 1.463 . S
C1249 C1254 1.350 . S
C1249 N1257 1.427 . S
C1250 H1241 0.930 . S
C1250 C1248 1.378 . S
C1250 C1251 1.367 . S
C1251 C1250 1.367 . S
C1251 C1253 1.433 . S
C1252 C1248 1.350 . S
C1252 C1249 1.463 . S
C1252 N1256 1.427 . S
C1253 H1243 0.929 . S
C1253 C1251 1.433 . S
C1253 N1256 1.384 . S
C1254 H1245 0.929 . S
C1254 C1246 1.378 . S
C1254 C1249 1.350 . S
C1255 H1242 0.929 . S
C1255 C1247 1.433 . S
C1255 N1257 1.384 . S
N1256 C1252 1.427 . S
N1256 C1253 1.384 . S
N1257 C1249 1.427 . S
N1257 C1255 1.384 . S
H1258 C1264 0.930 . S
H1259 C1268 0.930 . S
H1260 C1273 0.929 . S
H1261 C1271 0.929 . S
H1262 C1266 0.929 . S
H1263 C1272 0.929 . S
C1264 H1258 0.930 . S
C1264 C1265 1.367 . S
C1264 C1272 1.378 . S
C1265 C1264 1.367 . S
C1265 C1273 1.433 . S
C1266 H1262 0.929 . S
C1266 C1268 1.378 . S
C1266 C1270 1.350 . S
C1267 C1270 1.463 . S
C1267 C1272 1.350 . S
C1267 N1275 1.427 . S
C1268 H1259 0.930 . S
C1268 C1266 1.378 . S
C1268 C1269 1.367 . S
C1269 C1268 1.367 . S
C1269 C1271 1.433 . S
C1270 C1266 1.350 . S
C1270 C1267 1.463 . S
C1270 N1274 1.427 . S
C1271 H1261 0.929 . S
C1271 C1269 1.433 . S
C1271 N1274 1.384 . S
C1272 H1263 0.929 . S
C1272 C1264 1.378 . S
C1272 C1267 1.350 . S
C1273 H1260 0.929 . S
C1273 C1265 1.433 . S
C1273 N1275 1.384 . S
N1274 C1270 1.427 . S
N1274 C1271 1.384 . S
N1275 C1267 1.427 . S
N1275 C1273 1.384 . S
H1276 C1282 0.930 . S
H1277 C1286 0.930 . S
H1278 C1291 0.929 . S
H1279 C1289 0.929 . S
H1280 C1284 0.929 . S
H1281 C1290 0.929 . S
C1282 H1276 0.930 . S
C1282 C1283 1.367 . S
C1282 C1290 1.378 . S
C1283 C1282 1.367 . S
C1283 C1291 1.433 . S
C1284 H1280 0.929 . S
C1284 C1286 1.378 . S
C1284 C1288 1.350 . S
C1285 C1288 1.463 . S
C1285 C1290 1.350 . S
C1285 N1293 1.427 . S
C1286 H1277 0.930 . S
C1286 C1284 1.378 . S
C1286 C1287 1.367 . S
C1287 C1286 1.367 . S
C1287 C1289 1.433 . S
C1288 C1284 1.350 . S
C1288 C1285 1.463 . S
C1288 N1292 1.427 . S
C1289 H1279 0.929 . S
C1289 C1287 1.433 . S
C1289 N1292 1.384 . S
C1290 H1281 0.929 . S
C1290 C1282 1.378 . S
C1290 C1285 1.350 . S
C1291 H1278 0.929 . S
C1291 C1283 1.433 . S
C1291 N1293 1.384 . S
N1292 C1288 1.427 . S
N1292 C1289 1.384 . S
N1293 C1285 1.427 . S
N1293 C1291 1.384 . S
H1294 C1300 0.930 . S
H1295 C1304 0.930 . S
H1296 C1309 0.929 . S
H1297 C1307 0.929 . S
H1298 C1302 0.929 . S
H1299 C1308 0.929 . S
C1300 H1294 0.930 . S
C1300 C1301 1.367 . S
C1300 C1308 1.378 . S
C1301 C1300 1.367 . S
C1301 C1309 1.433 . S
C1302 H1298 0.929 . S
C1302 C1304 1.378 . S
C1302 C1306 1.350 . S
C1303 C1306 1.463 . S
C1303 C1308 1.350 . S
C1303 N1311 1.427 . S
C1304 H1295 0.930 . S
C1304 C1302 1.378 . S
C1304 C1305 1.367 . S
C1305 C1304 1.367 . S
C1305 C1307 1.433 . S
C1306 C1302 1.350 . S
C1306 C1303 1.463 . S
C1306 N1310 1.427 . S
C1307 H1297 0.929 . S
C1307 C1305 1.433 . S
C1307 N1310 1.384 . S
C1308 H1299 0.929 . S
C1308 C1300 1.378 . S
C1308 C1303 1.350 . S
C1309 H1296 0.929 . S
C1309 C1301 1.433 . S
C1309 N1311 1.384 . S
N1310 C1306 1.427 . S
N1310 C1307 1.384 . S
N1311 C1303 1.427 . S
N1311 C1309 1.384 . S
H1312 C1318 0.930 . S
H1313 C1322 0.930 . S
H1314 C1327 0.929 . S
H1315 C1325 0.929 . S
H1316 C1320 0.929 . S
H1317 C1326 0.929 . S
C1318 H1312 0.930 . S
C1318 C1319 1.367 . S
C1318 C1326 1.378 . S
C1319 C1318 1.367 . S
C1319 C1327 1.433 . S
C1320 H1316 0.929 . S
C1320 C1322 1.378 . S
C1320 C1324 1.350 . S
C1321 C1324 1.463 . S
C1321 C1326 1.350 . S
C1321 N1329 1.427 . S
C1322 H1313 0.930 . S
C1322 C1320 1.378 . S
C1322 C1323 1.367 . S
C1323 C1322 1.367 . S
C1323 C1325 1.433 . S
C1324 C1320 1.350 . S
C1324 C1321 1.463 . S
C1324 N1328 1.427 . S
C1325 H1315 0.929 . S
C1325 C1323 1.433 . S
C1325 N1328 1.384 . S
C1326 H1317 0.929 . S
C1326 C1318 1.378 . S
C1326 C1321 1.350 . S
C1327 H1314 0.929 . S
C1327 C1319 1.433 . S
C1327 N1329 1.384 . S
N1328 C1324 1.427 . S
N1328 C1325 1.384 . S
N1329 C1321 1.427 . S
N1329 C1327 1.384 . S
H1330 C1336 0.930 . S
H1331 C1340 0.930 . S
H1332 C1345 0.929 . S
H1333 C1343 0.929 . S
H1334 C1338 0.929 . S
H1335 C1344 0.929 . S
C1336 H1330 0.930 . S
C1336 C1337 1.367 . S
C1336 C1344 1.378 . S
C1337 C1336 1.367 . S
C1337 C1345 1.433 . S
C1338 H1334 0.929 . S
C1338 C1340 1.378 . S
C1338 C1342 1.350 . S
C1339 C1342 1.463 . S
C1339 C1344 1.350 . S
C1339 N1347 1.427 . S
C1340 H1331 0.930 . S
C1340 C1338 1.378 . S
C1340 C1341 1.367 . S
C1341 C1340 1.367 . S
C1341 C1343 1.433 . S
C1342 C1338 1.350 . S
C1342 C1339 1.463 . S
C1342 N1346 1.427 . S
C1343 H1333 0.929 . S
C1343 C1341 1.433 . S
C1343 N1346 1.384 . S
C1344 H1335 0.929 . S
C1344 C1336 1.378 . S
C1344 C1339 1.350 . S
C1345 H1332 0.929 . S
C1345 C1337 1.433 . S
C1345 N1347 1.384 . S
N1346 C1342 1.427 . S
N1346 C1343 1.384 . S
N1347 C1339 1.427 . S
N1347 C1345 1.384 . S
H1348 C1354 0.930 . S
H1349 C1358 0.930 . S
H1350 C1363 0.929 . S
H1351 C1361 0.929 . S
H1352 C1356 0.929 . S
H1353 C1362 0.929 . S
C1354 H1348 0.930 . S
C1354 C1355 1.367 . S
C1354 C1362 1.378 . S
C1355 C1354 1.367 . S
C1355 C1363 1.433 . S
C1356 H1352 0.929 . S
C1356 C1358 1.378 . S
C1356 C1360 1.350 . S
C1357 C1360 1.463 . S
C1357 C1362 1.350 . S
C1357 N1365 1.427 . S
C1358 H1349 0.930 . S
C1358 C1356 1.378 . S
C1358 C1359 1.367 . S
C1359 C1358 1.367 . S
C1359 C1361 1.433 . S
C1360 C1356 1.350 . S
C1360 C1357 1.463 . S
C1360 N1364 1.427 . S
C1361 H1351 0.929 . S
C1361 C1359 1.433 . S
C1361 N1364 1.384 . S
C1362 H1353 0.929 . S
C1362 C1354 1.378 . S
C1362 C1357 1.350 . S
C1363 H1350 0.929 . S
C1363 C1355 1.433 . S
C1363 N1365 1.384 . S
N1364 C1360 1.427 . S
N1364 C1361 1.384 . S
N1365 C1357 1.427 . S
N1365 C1363 1.384 . S
H1366 C1372 0.930 . S
H1367 C1376 0.930 . S
H1368 C1381 0.929 . S
H1369 C1379 0.929 . S
H1370 C1374 0.929 . S
H1371 C1380 0.929 . S
C1372 H1366 0.930 . S
C1372 C1373 1.367 . S
C1372 C1380 1.378 . S
C1373 C1372 1.367 . S
C1373 C1381 1.433 . S
C1374 H1370 0.929 . S
C1374 C1376 1.378 . S
C1374 C1378 1.350 . S
C1375 C1378 1.463 . S
C1375 C1380 1.350 . S
C1375 N1383 1.427 . S
C1376 H1367 0.930 . S
C1376 C1374 1.378 . S
C1376 C1377 1.367 . S
C1377 C1376 1.367 . S
C1377 C1379 1.433 . S
C1378 C1374 1.350 . S
C1378 C1375 1.463 . S
C1378 N1382 1.427 . S
C1379 H1369 0.929 . S
C1379 C1377 1.433 . S
C1379 N1382 1.384 . S
C1380 H1371 0.929 . S
C1380 C1372 1.378 . S
C1380 C1375 1.350 . S
C1381 H1368 0.929 . S
C1381 C1373 1.433 . S
C1381 N1383 1.384 . S
N1382 C1378 1.427 . S
N1382 C1379 1.384 . S
N1383 C1375 1.427 . S
N1383 C1381 1.384 . S
H1384 C1390 0.930 . S
H1385 C1394 0.930 . S
H1386 C1399 0.929 . S
H1387 C1397 0.929 . S
H1388 C1392 0.929 . S
H1389 C1398 0.929 . S
C1390 H1384 0.930 . S
C1390 C1391 1.367 . S
C1390 C1398 1.378 . S
C1391 C1390 1.367 . S
C1391 C1399 1.433 . S
C1392 H1388 0.929 . S
C1392 C1394 1.378 . S
C1392 C1396 1.350 . S
C1393 C1396 1.463 . S
C1393 C1398 1.350 . S
C1393 N1401 1.427 . S
C1394 H1385 0.930 . S
C1394 C1392 1.378 . S
C1394 C1395 1.367 . S
C1395 C1394 1.367 . S
C1395 C1397 1.433 . S
C1396 C1392 1.350 . S
C1396 C1393 1.463 . S
C1396 N1400 1.427 . S
C1397 H1387 0.929 . S
C1397 C1395 1.433 . S
C1397 N1400 1.384 . S
C1398 H1389 0.929 . S
C1398 C1390 1.378 . S
C1398 C1393 1.350 . S
C1399 H1386 0.929 . S
C1399 C1391 1.433 . S
C1399 N1401 1.384 . S
N1400 C1396 1.427 . S
N1400 C1397 1.384 . S
N1401 C1393 1.427 . S
N1401 C1399 1.384 . S
H1402 C1408 0.930 . S
H1403 C1412 0.930 . S
H1404 C1417 0.929 . S
H1405 C1415 0.929 . S
H1406 C1410 0.929 . S
H1407 C1416 0.929 . S
C1408 H1402 0.930 . S
C1408 C1409 1.367 . S
C1408 C1416 1.378 . S
C1409 C1408 1.367 . S
C1409 C1417 1.433 . S
C1410 H1406 0.929 . S
C1410 C1412 1.378 . S
C1410 C1414 1.350 . S
C1411 C1414 1.463 . S
C1411 C1416 1.350 . S
C1411 N1419 1.427 . S
C1412 H1403 0.930 . S
C1412 C1410 1.378 . S
C1412 C1413 1.367 . S
C1413 C1412 1.367 . S
C1413 C1415 1.433 . S
C1414 C1410 1.350 . S
C1414 C1411 1.463 . S
C1414 N1418 1.427 . S
C1415 H1405 0.929 . S
C1415 C1413 1.433 . S
C1415 N1418 1.384 . S
C1416 H1407 0.929 . S
C1416 C1408 1.378 . S
C1416 C1411 1.350 . S
C1417 H1404 0.929 . S
C1417 C1409 1.433 . S
C1417 N1419 1.384 . S
N1418 C1414 1.427 . S
N1418 C1415 1.384 . S
N1419 C1411 1.427 . S
N1419 C1417 1.384 . S
H1420 C1426 0.930 . S
H1421 C1430 0.930 . S
H1422 C1435 0.929 . S
H1423 C1433 0.929 . S
H1424 C1428 0.929 . S
H1425 C1434 0.929 . S
C1426 H1420 0.930 . S
C1426 C1427 1.367 . S
C1426 C1434 1.378 . S
C1427 C1426 1.367 . S
C1427 C1435 1.433 . S
C1428 H1424 0.929 . S
C1428 C1430 1.378 . S
C1428 C1432 1.350 . S
C1429 C1432 1.463 . S
C1429 C1434 1.350 . S
C1429 N1437 1.427 . S
C1430 H1421 0.930 . S
C1430 C1428 1.378 . S
C1430 C1431 1.367 . S
C1431 C1430 1.367 . S
C1431 C1433 1.433 . S
C1432 C1428 1.350 . S
C1432 C1429 1.463 . S
C1432 N1436 1.427 . S
C1433 H1423 0.929 . S
C1433 C1431 1.433 . S
C1433 N1436 1.384 . S
C1434 H1425 0.929 . S
C1434 C1426 1.378 . S
C1434 C1429 1.350 . S
C1435 H1422 0.929 . S
C1435 C1427 1.433 . S
C1435 N1437 1.384 . S
N1436 C1432 1.427 . S
N1436 C1433 1.384 . S
N1437 C1429 1.427 . S
N1437 C1435 1.384 . S
H1438 C1444 0.930 . S
H1439 C1448 0.930 . S
H1440 C1453 0.929 . S
H1441 C1451 0.929 . S
H1442 C1446 0.929 . S
H1443 C1452 0.929 . S
C1444 H1438 0.930 . S
C1444 C1445 1.367 . S
C1444 C1452 1.378 . S
C1445 C1444 1.367 . S
C1445 C1453 1.433 . S
C1446 H1442 0.929 . S
C1446 C1448 1.378 . S
C1446 C1450 1.350 . S
C1447 C1450 1.463 . S
C1447 C1452 1.350 . S
C1447 N1455 1.427 . S
C1448 H1439 0.930 . S
C1448 C1446 1.378 . S
C1448 C1449 1.367 . S
C1449 C1448 1.367 . S
C1449 C1451 1.433 . S
C1450 C1446 1.350 . S
C1450 C1447 1.463 . S
C1450 N1454 1.427 . S
C1451 H1441 0.929 . S
C1451 C1449 1.433 . S
C1451 N1454 1.384 . S
C1452 H1443 0.929 . S
C1452 C1444 1.378 . S
C1452 C1447 1.350 . S
C1453 H1440 0.929 . S
C1453 C1445 1.433 . S
C1453 N1455 1.384 . S
N1454 C1450 1.427 . S
N1454 C1451 1.384 . S
N1455 C1447 1.427 . S
N1455 C1453 1.384 . S
H1456 C1462 0.930 . S
H1457 C1466 0.930 . S
H1458 C1471 0.929 . S
H1459 C1469 0.929 . S
H1460 C1464 0.929 . S
H1461 C1470 0.929 . S
C1462 H1456 0.930 . S
C1462 C1463 1.367 . S
C1462 C1470 1.378 . S
C1463 C1462 1.367 . S
C1463 C1471 1.433 . S
C1464 H1460 0.929 . S
C1464 C1466 1.378 . S
C1464 C1468 1.350 . S
C1465 C1468 1.463 . S
C1465 C1470 1.350 . S
C1465 N1473 1.427 . S
C1466 H1457 0.930 . S
C1466 C1464 1.378 . S
C1466 C1467 1.367 . S
C1467 C1466 1.367 . S
C1467 C1469 1.433 . S
C1468 C1464 1.350 . S
C1468 C1465 1.463 . S
C1468 N1472 1.427 . S
C1469 H1459 0.929 . S
C1469 C1467 1.433 . S
C1469 N1472 1.384 . S
C1470 H1461 0.929 . S
C1470 C1462 1.378 . S
C1470 C1465 1.350 . S
C1471 H1458 0.929 . S
C1471 C1463 1.433 . S
C1471 N1473 1.384 . S
N1472 C1468 1.427 . S
N1472 C1469 1.384 . S
N1473 C1465 1.427 . S
N1473 C1471 1.384 . S
H1474 C1480 0.930 . S
H1475 C1484 0.930 . S
H1476 C1489 0.929 . S
H1477 C1487 0.929 . S
H1478 C1482 0.929 . S
H1479 C1488 0.929 . S
C1480 H1474 0.930 . S
C1480 C1481 1.367 . S
C1480 C1488 1.378 . S
C1481 C1480 1.367 . S
C1481 C1489 1.433 . S
C1482 H1478 0.929 . S
C1482 C1484 1.378 . S
C1482 C1486 1.350 . S
C1483 C1486 1.463 . S
C1483 C1488 1.350 . S
C1483 N1491 1.427 . S
C1484 H1475 0.930 . S
C1484 C1482 1.378 . S
C1484 C1485 1.367 . S
C1485 C1484 1.367 . S
C1485 C1487 1.433 . S
C1486 C1482 1.350 . S
C1486 C1483 1.463 . S
C1486 N1490 1.427 . S
C1487 H1477 0.929 . S
C1487 C1485 1.433 . S
C1487 N1490 1.384 . S
C1488 H1479 0.929 . S
C1488 C1480 1.378 . S
C1488 C1483 1.350 . S
C1489 H1476 0.929 . S
C1489 C1481 1.433 . S
C1489 N1491 1.384 . S
N1490 C1486 1.427 . S
N1490 C1487 1.384 . S
N1491 C1483 1.427 . S
N1491 C1489 1.384 . S
H1492 C1498 0.930 . S
H1493 C1502 0.930 . S
H1494 C1507 0.929 . S
H1495 C1505 0.929 . S
H1496 C1500 0.929 . S
H1497 C1506 0.929 . S
C1498 H1492 0.930 . S
C1498 C1499 1.367 . S
C1498 C1506 1.378 . S
C1499 C1498 1.367 . S
C1499 C1507 1.433 . S
C1500 H1496 0.929 . S
C1500 C1502 1.378 . S
C1500 C1504 1.350 . S
C1501 C1504 1.463 . S
C1501 C1506 1.350 . S
C1501 N1509 1.427 . S
C1502 H1493 0.930 . S
C1502 C1500 1.378 . S
C1502 C1503 1.367 . S
C1503 C1502 1.367 . S
C1503 C1505 1.433 . S
C1504 C1500 1.350 . S
C1504 C1501 1.463 . S
C1504 N1508 1.427 . S
C1505 H1495 0.929 . S
C1505 C1503 1.433 . S
C1505 N1508 1.384 . S
C1506 H1497 0.929 . S
C1506 C1498 1.378 . S
C1506 C1501 1.350 . S
C1507 H1494 0.929 . S
C1507 C1499 1.433 . S
C1507 N1509 1.384 . S
N1508 C1504 1.427 . S
N1508 C1505 1.384 . S
N1509 C1501 1.427 . S
N1509 C1507 1.384 . S
H1510 C1516 0.930 . S
H1511 C1520 0.930 . S
H1512 C1525 0.929 . S
H1513 C1523 0.929 . S
H1514 C1518 0.929 . S
H1515 C1524 0.929 . S
C1516 H1510 0.930 . S
C1516 C1517 1.367 . S
C1516 C1524 1.378 . S
C1517 C1516 1.367 . S
C1517 C1525 1.433 . S
C1518 H1514 0.929 . S
C1518 C1520 1.378 . S
C1518 C1522 1.350 . S
C1519 C1522 1.463 . S
C1519 C1524 1.350 . S
C1519 N1527 1.427 . S
C1520 H1511 0.930 . S
C1520 C1518 1.378 . S
C1520 C1521 1.367 . S
C1521 C1520 1.367 . S
C1521 C1523 1.433 . S
C1522 C1518 1.350 . S
C1522 C1519 1.463 . S
C1522 N1526 1.427 . S
C1523 H1513 0.929 . S
C1523 C1521 1.433 . S
C1523 N1526 1.384 . S
C1524 H1515 0.929 . S
C1524 C1516 1.378 . S
C1524 C1519 1.350 . S
C1525 H1512 0.929 . S
C1525 C1517 1.433 . S
C1525 N1527 1.384 . S
N1526 C1522 1.427 . S
N1526 C1523 1.384 . S
N1527 C1519 1.427 . S
N1527 C1525 1.384 . S
H1528 C1534 0.930 . S
H1529 C1538 0.930 . S
H1530 C1543 0.929 . S
H1531 C1541 0.929 . S
H1532 C1536 0.929 . S
H1533 C1542 0.929 . S
C1534 H1528 0.930 . S
C1534 C1535 1.367 . S
C1534 C1542 1.378 . S
C1535 C1534 1.367 . S
C1535 C1543 1.433 . S
C1536 H1532 0.929 . S
C1536 C1538 1.378 . S
C1536 C1540 1.350 . S
C1537 C1540 1.463 . S
C1537 C1542 1.350 . S
C1537 N1545 1.427 . S
C1538 H1529 0.930 . S
C1538 C1536 1.378 . S
C1538 C1539 1.367 . S
C1539 C1538 1.367 . S
C1539 C1541 1.433 . S
C1540 C1536 1.350 . S
C1540 C1537 1.463 . S
C1540 N1544 1.427 . S
C1541 H1531 0.929 . S
C1541 C1539 1.433 . S
C1541 N1544 1.384 . S
C1542 H1533 0.929 . S
C1542 C1534 1.378 . S
C1542 C1537 1.350 . S
C1543 H1530 0.929 . S
C1543 C1535 1.433 . S
C1543 N1545 1.384 . S
N1544 C1540 1.427 . S
N1544 C1541 1.384 . S
N1545 C1537 1.427 . S
N1545 C1543 1.384 . S
H1546 C1552 0.930 . S
H1547 C1556 0.930 . S
H1548 C1561 0.929 . S
H1549 C1559 0.929 . S
H1550 C1554 0.929 . S
H1551 C1560 0.929 . S
C1552 H1546 0.930 . S
C1552 C1553 1.367 . S
C1552 C1560 1.378 . S
C1553 C1552 1.367 . S
C1553 C1561 1.433 . S
C1554 H1550 0.929 . S
C1554 C1556 1.378 . S
C1554 C1558 1.350 . S
C1555 C1558 1.463 . S
C1555 C1560 1.350 . S
C1555 N1563 1.427 . S
C1556 H1547 0.930 . S
C1556 C1554 1.378 . S
C1556 C1557 1.367 . S
C1557 C1556 1.367 . S
C1557 C1559 1.433 . S
C1558 C1554 1.350 . S
C1558 C1555 1.463 . S
C1558 N1562 1.427 . S
C1559 H1549 0.929 . S
C1559 C1557 1.433 . S
C1559 N1562 1.384 . S
C1560 H1551 0.929 . S
C1560 C1552 1.378 . S
C1560 C1555 1.350 . S
C1561 H1548 0.929 . S
C1561 C1553 1.433 . S
C1561 N1563 1.384 . S
N1562 C1558 1.427 . S
N1562 C1559 1.384 . S
N1563 C1555 1.427 . S
N1563 C1561 1.384 . S
H1564 C1570 0.930 . S
H1565 C1574 0.930 . S
H1566 C1579 0.929 . S
H1567 C1577 0.929 . S
H1568 C1572 0.929 . S
H1569 C1578 0.929 . S
C1570 H1564 0.930 . S
C1570 C1571 1.367 . S
C1570 C1578 1.378 . S
C1571 C1570 1.367 . S
C1571 C1579 1.433 . S
C1572 H1568 0.929 . S
C1572 C1574 1.378 . S
C1572 C1576 1.350 . S
C1573 C1576 1.463 . S
C1573 C1578 1.350 . S
C1573 N1581 1.427 . S
C1574 H1565 0.930 . S
C1574 C1572 1.378 . S
C1574 C1575 1.367 . S
C1575 C1574 1.367 . S
C1575 C1577 1.433 . S
C1576 C1572 1.350 . S
C1576 C1573 1.463 . S
C1576 N1580 1.427 . S
C1577 H1567 0.929 . S
C1577 C1575 1.433 . S
C1577 N1580 1.384 . S
C1578 H1569 0.929 . S
C1578 C1570 1.378 . S
C1578 C1573 1.350 . S
C1579 H1566 0.929 . S
C1579 C1571 1.433 . S
C1579 N1581 1.384 . S
N1580 C1576 1.427 . S
N1580 C1577 1.384 . S
N1581 C1573 1.427 . S
N1581 C1579 1.384 . S
H1582 C1588 0.930 . S
H1583 C1592 0.930 . S
H1584 C1597 0.929 . S
H1585 C1595 0.929 . S
H1586 C1590 0.929 . S
H1587 C1596 0.929 . S
C1588 H1582 0.930 . S
C1588 C1589 1.367 . S
C1588 C1596 1.378 . S
C1589 C1588 1.367 . S
C1589 C1597 1.433 . S
C1590 H1586 0.929 . S
C1590 C1592 1.378 . S
C1590 C1594 1.350 . S
C1591 C1594 1.463 . S
C1591 C1596 1.350 . S
C1591 N1599 1.427 . S
C1592 H1583 0.930 . S
C1592 C1590 1.378 . S
C1592 C1593 1.367 . S
C1593 C1592 1.367 . S
C1593 C1595 1.433 . S
C1594 C1590 1.350 . S
C1594 C1591 1.463 . S
C1594 N1598 1.427 . S
C1595 H1585 0.929 . S
C1595 C1593 1.433 . S
C1595 N1598 1.384 . S
C1596 H1587 0.929 . S
C1596 C1588 1.378 . S
C1596 C1591 1.350 . S
C1597 H1584 0.929 . S
C1597 C1589 1.433 . S
C1597 N1599 1.384 . S
N1598 C1594 1.427 . S
N1598 C1595 1.384 . S
N1599 C1591 1.427 . S
N1599 C1597 1.384 . S
C455 C67 1.486 . S
C459 C11 1.480 . S
C473 C81 1.487 . S
C477 C25 1.478 . S
C491 C95 1.480 . S
C495 C39 1.485 . S
C509 C53 1.477 . S
C513 C109 1.487 . S
C527 C123 1.485 . S
C531 C179 1.481 . S
C545 C193 1.485 . S
C549 C137 1.478 . S
C563 C151 1.486 . S
C567 C207 1.477 . S
C581 C221 1.478 . S
C585 C165 1.487 . S
C599 C235 1.487 . S
C603 C291 1.477 . S
C617 C305 1.478 . S
C621 C249 1.485 . S
C635 C319 1.484 . S
C639 C263 1.478 . S
C653 C333 1.477 . S
C657 C277 1.485 . S
C671 C347 1.481 . S
C675 C403 1.485 . S
C689 C361 1.478 . S
C693 C417 1.487 . S
C707 C375 1.477 . S
C711 C431 1.485 . S
C725 C389 1.487 . S
C729 C445 1.477 . S
C743 C12 0.875 . S
C747 C110 0.873 . S
C761 C26 0.874 . S
C765 C68 0.882 . S
C779 C40 0.882 . S
C783 C82 0.884 . S
C797 C96 0.873 . S
C801 C54 0.880 . S
C815 C222 0.875 . S
C819 C124 0.883 . S
C833 C180 0.873 . S
C837 C138 0.875 . S
C851 C194 0.876 . S
C855 C152 0.873 . S
C869 C166 0.881 . S
C873 C208 0.884 . S
C887 C334 0.884 . S
C891 C236 0.877 . S
C905 C292 0.878 . S
C909 C250 0.884 . S
C923 C306 0.879 . S
C927 C264 0.884 . S
C941 C278 0.884 . S
C945 C320 0.878 . S
C959 C348 0.876 . S
C963 C446 0.872 . S
C977 C362 0.883 . S
C981 C404 0.883 . S
C995 C376 0.874 . S
C999 C418 0.874 . S
C1013 C432 0.877 . S
C1017 C390 0.872 . S
C1031 C4 1.458 . S
C1035 C355 1.385 . S
C1049 C18 1.464 . S
C1053 C145 1.367 . S
C1067 C32 1.466 . S
C1071 C383 1.365 . S
C1085 C117 1.384 . S
C1089 C46 1.457 . S
C1103 C439 1.370 . S
C1107 C60 1.463 . S
C1121 C74 1.467 . S
C1125 C173 1.372 . S
C1139 C88 1.462 . S
C1143 C411 1.381 . S
C1157 C102 1.467 . S
C1161 C201 1.372 . S
C1175 C243 1.383 . S
C1179 C116 1.457 . S
C1193 C33 1.384 . S
C1197 C130 1.457 . S
C1211 C271 1.365 . S
C1215 C144 1.469 . S
C1229 C158 1.461 . S
C1233 C5 1.383 . S
C1247 C327 1.385 . S
C1251 C172 1.458 . S
C1265 C61 1.381 . S
C1269 C186 1.458 . S
C1283 C299 1.375 . S
C1287 C200 1.466 . S
C1301 C89 1.378 . S
C1305 C214 1.459 . S
C1319 C131 1.383 . S
C1323 C228 1.461 . S
C1337 C242 1.463 . S
C1341 C369 1.370 . S
C1355 C256 1.468 . S
C1359 C159 1.363 . S
C1373 C270 1.465 . S
C1377 C341 1.375 . S
C1391 C284 1.459 . S
C1395 C215 1.379 . S
C1409 C397 1.368 . S
C1413 C298 1.468 . S
C1427 C312 1.464 . S
C1431 C187 1.379 . S
C1445 C326 1.457 . S
C1449 C425 1.384 . S
C1463 C340 1.469 . S
C1467 C19 1.366 . S
C1481 C354 1.458 . S
C1485 C257 1.382 . S
C1499 C47 1.366 . S
C1503 C368 1.466 . S
C1517 C229 1.376 . S
C1521 C382 1.460 . S
C1535 C396 1.460 . S
C1539 C103 1.384 . S
C1553 C410 1.461 . S
C1557 C285 1.383 . S
C1571 C75 1.384 . S
C1575 C424 1.460 . S
C1589 C313 1.367 . S
C1593 C438 1.465 . S
