# Generated by pormake.
# Topology whd, (6)-cn, num edge types: 1
# Building blocks:
#     Node 0, Type 0, BuildingBlock: IZENUY_clean_sbu_0, # of connection points: 6
#     Node 1, Type 0, BuildingBlock: IZENUY_clean_sbu_0, # of connection points: 6
#     Node 2, Type 0, BuildingBlock: IZENUY_clean_sbu_0, # of connection points: 6
#     Node 3, Type 0, BuildingBlock: IZENUY_clean_sbu_0, # of connection points: 6
#     Node 4, Type 0, BuildingBlock: IZENUY_clean_sbu_0, # of connection points: 6
#     Node 5, Type 0, BuildingBlock: IZENUY_clean_sbu_0, # of connection points: 6
#     Node 6, Type 0, BuildingBlock: IZENUY_clean_sbu_0, # of connection points: 6
#     Node 7, Type 0, BuildingBlock: IZENUY_clean_sbu_0, # of connection points: 6
#     Node 8, Type 0, BuildingBlock: IZENUY_clean_sbu_0, # of connection points: 6
#     Node 9, Type 0, BuildingBlock: IZENUY_clean_sbu_0, # of connection points: 6
#     Node 10, Type 0, BuildingBlock: IZENUY_clean_sbu_0, # of connection points: 6
#     Node 11, Type 0, BuildingBlock: IZENUY_clean_sbu_0, # of connection points: 6
#     Node 12, Type 0, BuildingBlock: IZENUY_clean_sbu_0, # of connection points: 6
#     Node 13, Type 0, BuildingBlock: IZENUY_clean_sbu_0, # of connection points: 6
#     Node 14, Type 0, BuildingBlock: IZENUY_clean_sbu_0, # of connection points: 6
#     Node 15, Type 0, BuildingBlock: IZENUY_clean_sbu_0, # of connection points: 6
#     Edge 16, Type (0, 0), BuildingBlock: TEMPAE_clean_linker_10, # of connection points: 2
#     Edge 17, Type (0, 0), BuildingBlock: TEMPAE_clean_linker_10, # of connection points: 2
#     Edge 18, Type (0, 0), BuildingBlock: TEMPAE_clean_linker_10, # of connection points: 2
#     Edge 19, Type (0, 0), BuildingBlock: TEMPAE_clean_linker_10, # of connection points: 2
#     Edge 20, Type (0, 0), BuildingBlock: TEMPAE_clean_linker_10, # of connection points: 2
#     Edge 21, Type (0, 0), BuildingBlock: TEMPAE_clean_linker_10, # of connection points: 2
#     Edge 22, Type (0, 0), BuildingBlock: TEMPAE_clean_linker_10, # of connection points: 2
#     Edge 23, Type (0, 0), BuildingBlock: TEMPAE_clean_linker_10, # of connection points: 2
#     Edge 24, Type (0, 0), BuildingBlock: TEMPAE_clean_linker_10, # of connection points: 2
#     Edge 25, Type (0, 0), BuildingBlock: TEMPAE_clean_linker_10, # of connection points: 2
#     Edge 26, Type (0, 0), BuildingBlock: TEMPAE_clean_linker_10, # of connection points: 2
#     Edge 27, Type (0, 0), BuildingBlock: TEMPAE_clean_linker_10, # of connection points: 2
#     Edge 28, Type (0, 0), BuildingBlock: TEMPAE_clean_linker_10, # of connection points: 2
#     Edge 29, Type (0, 0), BuildingBlock: TEMPAE_clean_linker_10, # of connection points: 2
#     Edge 30, Type (0, 0), BuildingBlock: TEMPAE_clean_linker_10, # of connection points: 2
#     Edge 31, Type (0, 0), BuildingBlock: TEMPAE_clean_linker_10, # of connection points: 2
#     Edge 32, Type (0, 0), BuildingBlock: TEMPAE_clean_linker_10, # of connection points: 2
#     Edge 33, Type (0, 0), BuildingBlock: TEMPAE_clean_linker_10, # of connection points: 2
#     Edge 34, Type (0, 0), BuildingBlock: TEMPAE_clean_linker_10, # of connection points: 2
#     Edge 35, Type (0, 0), BuildingBlock: TEMPAE_clean_linker_10, # of connection points: 2
#     Edge 36, Type (0, 0), BuildingBlock: TEMPAE_clean_linker_10, # of connection points: 2
#     Edge 37, Type (0, 0), BuildingBlock: TEMPAE_clean_linker_10, # of connection points: 2
#     Edge 38, Type (0, 0), BuildingBlock: TEMPAE_clean_linker_10, # of connection points: 2
#     Edge 39, Type (0, 0), BuildingBlock: TEMPAE_clean_linker_10, # of connection points: 2
#     Edge 40, Type (0, 0), BuildingBlock: TEMPAE_clean_linker_10, # of connection points: 2
#     Edge 41, Type (0, 0), BuildingBlock: TEMPAE_clean_linker_10, # of connection points: 2
#     Edge 42, Type (0, 0), BuildingBlock: TEMPAE_clean_linker_10, # of connection points: 2
#     Edge 43, Type (0, 0), BuildingBlock: TEMPAE_clean_linker_10, # of connection points: 2
#     Edge 44, Type (0, 0), BuildingBlock: TEMPAE_clean_linker_10, # of connection points: 2
#     Edge 45, Type (0, 0), BuildingBlock: TEMPAE_clean_linker_10, # of connection points: 2
#     Edge 46, Type (0, 0), BuildingBlock: TEMPAE_clean_linker_10, # of connection points: 2
#     Edge 47, Type (0, 0), BuildingBlock: TEMPAE_clean_linker_10, # of connection points: 2
#     Edge 48, Type (0, 0), BuildingBlock: TEMPAE_clean_linker_10, # of connection points: 2
#     Edge 49, Type (0, 0), BuildingBlock: TEMPAE_clean_linker_10, # of connection points: 2
#     Edge 50, Type (0, 0), BuildingBlock: TEMPAE_clean_linker_10, # of connection points: 2
#     Edge 51, Type (0, 0), BuildingBlock: TEMPAE_clean_linker_10, # of connection points: 2
#     Edge 52, Type (0, 0), BuildingBlock: TEMPAE_clean_linker_10, # of connection points: 2
#     Edge 53, Type (0, 0), BuildingBlock: TEMPAE_clean_linker_10, # of connection points: 2
#     Edge 54, Type (0, 0), BuildingBlock: TEMPAE_clean_linker_10, # of connection points: 2
#     Edge 55, Type (0, 0), BuildingBlock: TEMPAE_clean_linker_10, # of connection points: 2
#     Edge 56, Type (0, 0), BuildingBlock: TEMPAE_clean_linker_10, # of connection points: 2
#     Edge 57, Type (0, 0), BuildingBlock: TEMPAE_clean_linker_10, # of connection points: 2
#     Edge 58, Type (0, 0), BuildingBlock: TEMPAE_clean_linker_10, # of connection points: 2
#     Edge 59, Type (0, 0), BuildingBlock: TEMPAE_clean_linker_10, # of connection points: 2
#     Edge 60, Type (0, 0), BuildingBlock: TEMPAE_clean_linker_10, # of connection points: 2
#     Edge 61, Type (0, 0), BuildingBlock: TEMPAE_clean_linker_10, # of connection points: 2
#     Edge 62, Type (0, 0), BuildingBlock: TEMPAE_clean_linker_10, # of connection points: 2
#     Edge 63, Type (0, 0), BuildingBlock: TEMPAE_clean_linker_10, # of connection points: 2
# Relax obj value: 0.274
# Max RMSD: 0.227
# Mean RMSD: 0.227
data_MOF--net-whd--node1-IZENUY_clean_sbu_0--edge1-TEMPAE_clean_linker_10
_symmetry_space_group_name_H-M    P1
_symmetry_Int_Tables_number       1
_symmetry_cell_setting            triclinic
loop_
_symmetry_equiv_pos_as_xyz
'x, y, z'
_cell_length_a     51.878789
_cell_length_b     52.13658
_cell_length_c     29.317289
_cell_angle_alpha  89.98755
_cell_angle_beta   90.010971
_cell_angle_gamma 89.983491
loop_
_atom_site_label
_atom_site_type_symbol
_atom_site_fract_x
_atom_site_fract_y
_atom_site_fract_z
_atom_type_partial_charge
Fe0 Fe 0.17581 0.36203 0.32411 0.0
Fe1 Fe 0.15836 0.41393 0.36247 0.0
O2 O 0.18056 0.39547 0.33068 0.0
Fe3 Fe 0.20764 0.41053 0.30499 0.0
O4 O 0.19629 0.40155 0.24889 0.0
O5 O 0.18924 0.36103 0.26587 0.0
O6 O 0.1446 0.3667 0.29752 0.0
C7 C 0.12613 0.37921 0.31441 0.0
C8 C 0.22793 0.36291 0.33473 0.0
O9 O 0.12987 0.39492 0.34667 0.0
C10 C 0.20713 0.43339 0.38852 0.0
O11 O 0.16136 0.35716 0.381 0.0
O12 O 0.16387 0.39513 0.41308 0.0
O13 O 0.22875 0.38216 0.30844 0.0
O14 O 0.20674 0.35502 0.35024 0.0
C15 C 0.16816 0.4477 0.29387 0.0
O16 O 0.18294 0.43584 0.3843 0.0
O17 O 0.22023 0.42068 0.36005 0.0
C18 C 0.16155 0.37119 0.41633 0.0
O19 O 0.15135 0.43445 0.31407 0.0
O20 O 0.19176 0.44165 0.29631 0.0
C21 C 0.19137 0.37887 0.23662 0.0
Fe22 Fe 0.36045 0.82702 0.67312 0.0
Fe23 Fe 0.40909 0.79526 0.6926 0.0
O24 O 0.39402 0.82217 0.66664 0.0
Fe25 Fe 0.41261 0.84411 0.63462 0.0
O26 O 0.39356 0.87253 0.6502 0.0
O27 O 0.36528 0.85805 0.69967 0.0
O28 O 0.35933 0.81366 0.73137 0.0
C29 C 0.3772 0.81149 0.76072 0.0
C30 C 0.36967 0.84099 0.58082 0.0
O31 O 0.40002 0.80666 0.74857 0.0
C32 C 0.43198 0.79546 0.60904 0.0
O33 O 0.35337 0.79626 0.64705 0.0
O34 O 0.38055 0.77434 0.68911 0.0
O35 O 0.39371 0.83851 0.58406 0.0
O36 O 0.35562 0.8414 0.61621 0.0
C37 C 0.44641 0.83455 0.70357 0.0
O38 O 0.41925 0.78257 0.63773 0.0
O39 O 0.43459 0.81953 0.61308 0.0
C40 C 0.36132 0.77516 0.66255 0.0
O41 O 0.44038 0.81105 0.70131 0.0
O42 O 0.43318 0.85119 0.68297 0.0
C43 C 0.37797 0.87634 0.68274 0.0
Fe44 Fe 0.79721 0.59586 0.3059 0.0
Fe45 Fe 0.83219 0.64279 0.32062 0.0
O46 O 0.82494 0.61013 0.33075 0.0
Fe47 Fe 0.84556 0.59182 0.36608 0.0
O48 O 0.83998 0.56146 0.33649 0.0
O49 O 0.8165 0.57161 0.27688 0.0
O50 O 0.79889 0.61489 0.25279 0.0
C51 C 0.8173 0.6277 0.23559 0.0
C52 C 0.79876 0.57474 0.39555 0.0
O53 O 0.83466 0.63718 0.26038 0.0
C54 C 0.84407 0.63982 0.41067 0.0
O55 O 0.77578 0.61896 0.33307 0.0
O56 O 0.79861 0.65301 0.31546 0.0
O57 O 0.81963 0.58576 0.40582 0.0
O58 O 0.79094 0.57427 0.35451 0.0
C59 C 0.88086 0.61867 0.31674 0.0
O60 O 0.83021 0.65048 0.38088 0.0
O61 O 0.85509 0.6187 0.40239 0.0
C62 C 0.77774 0.64296 0.32864 0.0
O63 O 0.86725 0.63852 0.32292 0.0
O64 O 0.8728 0.59682 0.32839 0.0
C65 C 0.83204 0.55663 0.29664 0.0
Fe66 Fe 0.59478 0.20341 0.69506 0.0
Fe67 Fe 0.59023 0.15657 0.63185 0.0
O68 O 0.60884 0.17626 0.66823 0.0
Fe69 Fe 0.64166 0.16861 0.67766 0.0
O70 O 0.63567 0.1643 0.73773 0.0
O71 O 0.61408 0.2003 0.7478 0.0
O72 O 0.57034 0.18388 0.72301 0.0
C73 C 0.55513 0.16886 0.70257 0.0
C74 C 0.64218 0.22292 0.67357 0.0
O75 O 0.55989 0.16145 0.66239 0.0
C76 C 0.63788 0.16002 0.58622 0.0
O77 O 0.57294 0.21091 0.64718 0.0
O78 O 0.58392 0.1832 0.59408 0.0
O79 O 0.6521 0.20188 0.68595 0.0
O80 O 0.61809 0.22503 0.66902 0.0
C81 C 0.61748 0.12032 0.67825 0.0
O82 O 0.61709 0.14821 0.5944 0.0
O83 O 0.64931 0.17227 0.6174 0.0
C84 C 0.57314 0.20388 0.60572 0.0
O85 O 0.59546 0.12858 0.66753 0.0
O86 O 0.63738 0.13388 0.67205 0.0
C87 C 0.62564 0.18077 0.76362 0.0
Fe88 Fe 0.17027 0.64245 0.66901 0.0
Fe89 Fe 0.15245 0.59047 0.63171 0.0
O90 O 0.1752 0.60901 0.66225 0.0
Fe91 Fe 0.2028 0.59394 0.68618 0.0
O92 O 0.1931 0.60337 0.74301 0.0
O93 O 0.18447 0.64368 0.72646 0.0
O94 O 0.13945 0.6377 0.6967 0.0
C95 C 0.1207 0.62566 0.67988 0.0
C96 C 0.22221 0.64215 0.65594 0.0
O97 O 0.12418 0.60978 0.64781 0.0
C98 C 0.20048 0.57024 0.60352 0.0
O99 O 0.1553 0.64703 0.61251 0.0
O100 O 0.15766 0.60893 0.58071 0.0
O101 O 0.22409 0.6221 0.68015 0.0
O102 O 0.20062 0.64994 0.64219 0.0
C103 C 0.16299 0.55724 0.70067 0.0
O104 O 0.17641 0.568 0.6094 0.0
O105 O 0.21408 0.58334 0.63058 0.0
C106 C 0.15569 0.63289 0.57728 0.0
O107 O 0.14597 0.57047 0.68089 0.0
O108 O 0.18665 0.56304 0.69696 0.0
C109 C 0.18827 0.62603 0.75545 0.0
Fe110 Fe 0.58897 0.84589 0.36854 0.0
Fe111 Fe 0.64095 0.82759 0.33098 0.0
O112 O 0.60724 0.82348 0.33693 0.0
Fe113 Fe 0.59171 0.79689 0.31092 0.0
O114 O 0.5609 0.81348 0.30138 0.0
O115 O 0.56889 0.85347 0.31977 0.0
O116 O 0.60882 0.87385 0.35339 0.0
C117 C 0.62467 0.87731 0.32113 0.0
C118 C 0.56818 0.79779 0.3939 0.0
O119 O 0.63694 0.85872 0.3043 0.0
C120 C 0.63899 0.77572 0.34174 0.0
O121 O 0.60741 0.83976 0.41943 0.0
O122 O 0.64575 0.84184 0.38796 0.0
O123 O 0.58088 0.78459 0.36564 0.0
O124 O 0.5662 0.82191 0.38968 0.0
C125 C 0.62439 0.81226 0.24326 0.0
O126 O 0.64729 0.79672 0.35711 0.0
O127 O 0.61966 0.77526 0.31534 0.0
C128 C 0.63149 0.84156 0.4231 0.0
O129 O 0.64212 0.81418 0.27288 0.0
O130 O 0.60142 0.80789 0.25501 0.0
C131 C 0.55542 0.83712 0.29894 0.0
Fe132 Fe 0.82673 0.35966 0.6694 0.0
Fe133 Fe 0.84624 0.41047 0.63009 0.0
O134 O 0.82329 0.39323 0.66239 0.0
Fe135 Fe 0.79698 0.40964 0.68789 0.0
O136 O 0.80752 0.40002 0.74405 0.0
O137 O 0.81335 0.35927 0.72764 0.0
O138 O 0.85812 0.36327 0.69585 0.0
C139 C 0.87701 0.37473 0.67816 0.0
C140 C 0.77462 0.36254 0.65873 0.0
O141 O 0.87374 0.38991 0.645 0.0
C142 C 0.79879 0.43294 0.60469 0.0
O143 O 0.84082 0.3541 0.61235 0.0
O144 O 0.83912 0.39201 0.57986 0.0
O145 O 0.7744 0.38238 0.68377 0.0
O146 O 0.79557 0.35372 0.64369 0.0
C147 C 0.83879 0.44421 0.69945 0.0
O148 O 0.82303 0.43393 0.60904 0.0
O149 O 0.78504 0.42069 0.63282 0.0
C150 C 0.84058 0.368 0.5768 0.0
O151 O 0.85473 0.43042 0.67824 0.0
O152 O 0.8148 0.43971 0.69733 0.0
C153 C 0.8116 0.37726 0.75662 0.0
Fe154 Fe 0.41001 0.20449 0.31008 0.0
Fe155 Fe 0.41346 0.15457 0.36507 0.0
O156 O 0.39487 0.17709 0.33422 0.0
Fe157 Fe 0.36132 0.17206 0.32711 0.0
O158 O 0.36021 0.18605 0.26955 0.0
O159 O 0.40074 0.19446 0.25319 0.0
O160 O 0.44118 0.18846 0.29983 0.0
C161 C 0.44709 0.16491 0.29642 0.0
C162 C 0.36136 0.22378 0.3397 0.0
O163 O 0.43368 0.14802 0.31606 0.0
C164 C 0.3707 0.15759 0.41917 0.0
O165 O 0.4205 0.21593 0.36581 0.0
O166 O 0.43591 0.17846 0.38714 0.0
O167 O 0.35358 0.2023 0.35365 0.0
O168 O 0.38158 0.22559 0.3156 0.0
C169 C 0.37872 0.12292 0.31641 0.0
O170 O 0.39478 0.15984 0.41592 0.0
O171 O 0.3566 0.1572 0.38377 0.0
C172 C 0.43348 0.20237 0.39317 0.0
O173 O 0.39416 0.12643 0.34918 0.0
O174 O 0.36645 0.14143 0.29948 0.0
C175 C 0.37807 0.18926 0.24059 0.0
Fe176 Fe 0.67448 0.8616 0.83123 0.0
Fe177 Fe 0.65472 0.91247 0.86967 0.0
O178 O 0.67763 0.89522 0.83735 0.0
Fe179 Fe 0.70364 0.9116 0.81094 0.0
O180 O 0.69291 0.9014 0.75516 0.0
O181 O 0.6879 0.86077 0.77306 0.0
O182 O 0.64309 0.86485 0.80474 0.0
C183 C 0.62416 0.87634 0.82224 0.0
C184 C 0.72651 0.8652 0.84197 0.0
O185 O 0.62734 0.89159 0.85537 0.0
C186 C 0.7022 0.9353 0.89385 0.0
O187 O 0.66042 0.85635 0.88832 0.0
O188 O 0.66222 0.89437 0.92024 0.0
O189 O 0.72647 0.88455 0.81571 0.0
O190 O 0.70565 0.85624 0.85714 0.0
C191 C 0.66143 0.94571 0.79916 0.0
O192 O 0.67791 0.93625 0.88997 0.0
O193 O 0.71578 0.92309 0.86548 0.0
C194 C 0.66089 0.87037 0.92367 0.0
O195 O 0.64583 0.93196 0.82119 0.0
O196 O 0.68549 0.94147 0.80099 0.0
C197 C 0.68919 0.87844 0.74341 0.0
Fe198 Fe 0.91312 0.34844 0.13216 0.0
Fe199 Fe 0.86099 0.33043 0.16965 0.0
O200 O 0.89463 0.32576 0.1629 0.0
Fe201 Fe 0.90993 0.29844 0.18711 0.0
O202 O 0.94097 0.31461 0.19754 0.0
O203 O 0.93338 0.35501 0.18114 0.0
O204 O 0.89365 0.3765 0.14842 0.0
C205 C 0.87757 0.37987 0.18033 0.0
C206 C 0.93353 0.3006 0.10423 0.0
O207 O 0.86554 0.36116 0.19711 0.0
C208 C 0.8616 0.27873 0.15712 0.0
O209 O 0.89449 0.34321 0.08122 0.0
O210 O 0.85621 0.34522 0.11308 0.0
O211 O 0.92056 0.28708 0.13159 0.0
O212 O 0.93567 0.3246 0.10975 0.0
C213 C 0.87768 0.313 0.2563 0.0
O214 O 0.85369 0.30011 0.14301 0.0
O215 O 0.88172 0.27711 0.18147 0.0
C216 C 0.87039 0.34509 0.07783 0.0
O217 O 0.85989 0.31642 0.22724 0.0
O218 O 0.90048 0.30829 0.24387 0.0
C219 C 0.94681 0.33817 0.20087 0.0
Fe220 Fe 0.34587 0.08833 0.86596 0.0
Fe221 Fe 0.29664 0.09076 0.80813 0.0
O222 O 0.32329 0.10639 0.83422 0.0
Fe223 Fe 0.32711 0.13999 0.8282 0.0
O224 O 0.35854 0.13648 0.80224 0.0
O225 O 0.37395 0.108 0.85031 0.0
O226 O 0.35341 0.06807 0.81744 0.0
C227 C 0.33696 0.05447 0.79706 0.0
C228 C 0.34153 0.13084 0.92038 0.0
O229 O 0.31323 0.05999 0.79941 0.0
C230 C 0.27503 0.1378 0.83782 0.0
O231 O 0.32169 0.06586 0.88755 0.0
O232 O 0.28414 0.08024 0.863 0.0
O233 O 0.34114 0.14504 0.88529 0.0
O234 O 0.33996 0.10685 0.9168 0.0
C235 C 0.31239 0.12297 0.74022 0.0
O236 O 0.27482 0.11862 0.81136 0.0
O237 O 0.29593 0.146 0.85396 0.0
C238 C 0.29742 0.06775 0.89154 0.0
O239 O 0.30796 0.10015 0.75227 0.0
O240 O 0.31399 0.14079 0.76964 0.0
C241 C 0.37733 0.12442 0.81902 0.0
Fe242 Fe 0.09044 0.70384 0.18777 0.0
Fe243 Fe 0.09083 0.65513 0.12928 0.0
O244 O 0.10757 0.67826 0.16179 0.0
Fe245 Fe 0.14139 0.67572 0.16851 0.0
O246 O 0.14157 0.68893 0.22684 0.0
O247 O 0.1005 0.69337 0.24363 0.0
O248 O 0.06076 0.68525 0.19711 0.0
C249 C 0.05704 0.66124 0.19922 0.0
C250 C 0.13685 0.72744 0.15816 0.0
O251 O 0.07123 0.6459 0.17752 0.0
C252 C 0.1332 0.6621 0.07587 0.0
O253 O 0.07896 0.71569 0.13299 0.0
O254 O 0.06655 0.67767 0.10879 0.0
O255 O 0.14637 0.70695 0.14287 0.0
O256 O 0.11722 0.72699 0.18387 0.0
C257 C 0.12745 0.62533 0.17701 0.0
O258 O 0.10905 0.66299 0.07903 0.0
O259 O 0.1472 0.66195 0.11137 0.0
C260 C 0.06694 0.70183 0.10477 0.0
O261 O 0.11227 0.62832 0.14365 0.0
O262 O 0.13859 0.64433 0.19479 0.0
C263 C 0.12353 0.69009 0.25598 0.0
Fe264 Fe 0.65961 0.08924 0.13876 0.0
Fe265 Fe 0.70841 0.09229 0.19779 0.0
O266 O 0.6815 0.10738 0.17167 0.0
Fe267 Fe 0.67656 0.14077 0.1784 0.0
O268 O 0.64556 0.13565 0.20547 0.0
O269 O 0.63111 0.10846 0.1542 0.0
O270 O 0.65195 0.06849 0.18649 0.0
C271 C 0.66841 0.05525 0.20773 0.0
C272 C 0.66322 0.13228 0.0864 0.0
O273 O 0.69208 0.06135 0.20693 0.0
C274 C 0.72862 0.13975 0.16678 0.0
O275 O 0.68408 0.06711 0.11746 0.0
O276 O 0.7212 0.08175 0.1431 0.0
O277 O 0.6615 0.1457 0.12218 0.0
O278 O 0.6661 0.10838 0.08864 0.0
C279 C 0.69294 0.12462 0.26569 0.0
O280 O 0.72958 0.12059 0.19339 0.0
O281 O 0.70732 0.14782 0.15174 0.0
C282 C 0.70829 0.06929 0.1141 0.0
O283 O 0.69723 0.10172 0.25394 0.0
O284 O 0.69051 0.14209 0.23596 0.0
C285 C 0.62716 0.12348 0.1875 0.0
Fe286 Fe 0.1421 0.32992 0.82353 0.0
Fe287 Fe 0.09414 0.2965 0.80607 0.0
O288 O 0.1087 0.32402 0.8309 0.0
Fe289 Fe 0.08968 0.34581 0.86261 0.0
O290 O 0.10814 0.37458 0.84692 0.0
O291 O 0.13609 0.36063 0.79665 0.0
O292 O 0.14339 0.31635 0.76566 0.0
C293 C 0.12554 0.3129 0.73676 0.0
C294 C 0.13277 0.3436 0.91599 0.0
O295 O 0.10301 0.30722 0.74942 0.0
C296 C 0.07092 0.29718 0.8894 0.0
O297 O 0.15069 0.29964 0.84929 0.0
O298 O 0.12301 0.27605 0.81099 0.0
O299 O 0.10876 0.34068 0.91302 0.0
O300 O 0.1467 0.34452 0.88042 0.0
C301 C 0.05605 0.33519 0.79396 0.0
O302 O 0.08405 0.28426 0.86137 0.0
O303 O 0.06801 0.32113 0.88461 0.0
C304 C 0.14311 0.27808 0.83533 0.0
O305 O 0.06261 0.3118 0.7965 0.0
O306 O 0.06898 0.35224 0.81416 0.0
C307 C 0.12336 0.3787 0.81402 0.0
Fe308 Fe 0.29505 0.90858 0.19101 0.0
Fe309 Fe 0.3278 0.86025 0.17372 0.0
O310 O 0.32239 0.89355 0.16615 0.0
Fe311 Fe 0.34456 0.91198 0.1342 0.0
O312 O 0.35155 0.93237 0.18254 0.0
O313 O 0.31111 0.93966 0.20047 0.0
O314 O 0.30571 0.8996 0.24768 0.0
C315 C 0.31104 0.8771 0.26043 0.0
C316 C 0.29606 0.93159 0.10756 0.0
O317 O 0.31416 0.85925 0.23159 0.0
C318 C 0.34149 0.86915 0.08113 0.0
O319 O 0.27398 0.88021 0.18621 0.0
O320 O 0.29725 0.8522 0.14806 0.0
O321 O 0.32017 0.93407 0.11236 0.0
O322 O 0.28287 0.9188 0.1357 0.0
C323 C 0.37706 0.87818 0.18304 0.0
O324 O 0.34238 0.85535 0.11681 0.0
O325 O 0.33885 0.89307 0.08396 0.0
C326 C 0.27572 0.86012 0.16202 0.0
O327 O 0.35874 0.86582 0.20056 0.0
O328 O 0.37314 0.89307 0.1497 0.0
C329 C 0.33479 0.94559 0.20292 0.0
Fe330 Fe 0.90346 0.70432 0.80552 0.0
Fe331 Fe 0.90652 0.6555 0.86405 0.0
O332 O 0.88849 0.67683 0.82958 0.0
Fe333 Fe 0.85544 0.6705 0.81971 0.0
O334 O 0.86059 0.66878 0.75925 0.0
O335 O 0.88434 0.70362 0.75247 0.0
O336 O 0.9274 0.68491 0.77587 0.0
C337 C 0.94225 0.66909 0.79521 0.0
C338 C 0.85665 0.7247 0.82909 0.0
O339 O 0.93717 0.6608 0.83469 0.0
C340 C 0.85843 0.65725 0.90907 0.0
O341 O 0.92521 0.70959 0.85434 0.0
O342 O 0.91317 0.6807 0.90473 0.0
O343 O 0.8459 0.70421 0.81611 0.0
O344 O 0.88082 0.72597 0.83324 0.0
C345 C 0.87868 0.62145 0.81389 0.0
O346 O 0.8794 0.64599 0.90012 0.0
O347 O 0.84806 0.67187 0.88021 0.0
C348 C 0.92446 0.70146 0.89514 0.0
O349 O 0.90085 0.62902 0.82532 0.0
O350 O 0.85902 0.63542 0.82041 0.0
C351 C 0.87051 0.6861 0.73502 0.0
C352 C 0.13678 0.48374 0.28217 0.0
C353 C 0.16097 0.47272 0.27346 0.0
C354 C 0.13075 0.50848 0.26643 0.0
C355 C 0.14925 0.52241 0.24097 0.0
C356 C 0.17341 0.51112 0.23102 0.0
C357 C 0.17901 0.48648 0.24749 0.0
C358 C 0.10481 0.51993 0.27786 0.0
C359 C 0.19352 0.52524 0.20351 0.0
C360 C 0.12651 0.5777 0.16682 0.0
C361 C 0.13324 0.59906 0.19339 0.0
C362 C 0.13161 0.55267 0.1819 0.0
C363 C 0.14343 0.54886 0.22487 0.0
C364 C 0.15006 0.57032 0.25211 0.0
C365 C 0.14503 0.59518 0.23591 0.0
C366 C 0.12448 0.53029 0.15171 0.0
C367 C 0.16241 0.56701 0.2984 0.0
H368 H 0.12275 0.47332 0.30235 0.0
H369 H 0.1977 0.47808 0.24039 0.0
H370 H 0.10747 0.5376 0.29842 0.0
H371 H 0.0946 0.52554 0.24614 0.0
H372 H 0.0924 0.50644 0.29728 0.0
H373 H 0.21105 0.51346 0.19753 0.0
H374 H 0.18542 0.531 0.17001 0.0
H375 H 0.19926 0.54305 0.22154 0.0
H376 H 0.11743 0.58052 0.13389 0.0
H377 H 0.15005 0.61158 0.25684 0.0
H378 H 0.11094 0.51739 0.16989 0.0
H379 H 0.14194 0.5189 0.14354 0.0
H380 H 0.11535 0.53652 0.11926 0.0
H381 H 0.14993 0.55502 0.32051 0.0
H382 H 0.16586 0.58564 0.31576 0.0
H383 H 0.1811 0.55686 0.29483 0.0
C384 C 0.48225 0.86608 0.71591 0.0
C385 C 0.47135 0.84192 0.72452 0.0
C386 C 0.5069 0.87237 0.73228 0.0
C387 C 0.52085 0.85418 0.7583 0.0
C388 C 0.50965 0.83006 0.76825 0.0
C389 C 0.4851 0.82419 0.75111 0.0
C390 C 0.51826 0.89823 0.72077 0.0
C391 C 0.5238 0.81028 0.79635 0.0
C392 C 0.59391 0.85873 0.76353 0.0
C393 C 0.59775 0.87069 0.80586 0.0
C394 C 0.56897 0.85353 0.74738 0.0
C395 C 0.54737 0.86015 0.77448 0.0
C396 C 0.55111 0.87219 0.81724 0.0
C397 C 0.57624 0.87746 0.83228 0.0
C398 C 0.56576 0.84098 0.70129 0.0
C399 C 0.52857 0.87931 0.84726 0.0
H400 H 0.47183 0.87988 0.6953 0.0
H401 H 0.47677 0.80554 0.75816 0.0
H402 H 0.52378 0.90849 0.75245 0.0
H403 H 0.53607 0.89565 0.70032 0.0
H404 H 0.50466 0.91047 0.70118 0.0
H405 H 0.51199 0.79286 0.80261 0.0
H406 H 0.54176 0.80447 0.77859 0.0
H407 H 0.52949 0.81858 0.82971 0.0
H408 H 0.61042 0.85367 0.74271 0.0
H409 H 0.57904 0.88666 0.86506 0.0
H410 H 0.55379 0.85332 0.67885 0.0
H411 H 0.55551 0.82243 0.70509 0.0
H412 H 0.58452 0.8374 0.68415 0.0
H413 H 0.51553 0.89262 0.82883 0.0
H414 H 0.53476 0.88859 0.87957 0.0
H415 H 0.51722 0.86191 0.8557 0.0
C416 C 0.88321 0.42765 0.17577 0.0
C417 C 0.87109 0.40628 0.19552 0.0
C418 C 0.87695 0.45272 0.18947 0.0
C419 C 0.8581 0.45656 0.22372 0.0
C420 C 0.84574 0.43511 0.24369 0.0
C421 C 0.85239 0.41028 0.22943 0.0
C422 C 0.89074 0.47509 0.1677 0.0
C423 C 0.82562 0.43838 0.28048 0.0
C424 C 0.85944 0.51728 0.29496 0.0
C425 C 0.83939 0.53178 0.27563 0.0
C426 C 0.86602 0.49307 0.27776 0.0
C427 C 0.85217 0.48291 0.24036 0.0
C428 C 0.83224 0.4976 0.22 0.0
C429 C 0.82616 0.52195 0.23776 0.0
C430 C 0.88754 0.47816 0.30024 0.0
C431 C 0.81698 0.48733 0.18017 0.0
H432 H 0.89767 0.42482 0.14957 0.0
H433 H 0.8429 0.39395 0.24497 0.0
H434 H 0.87655 0.48856 0.1526 0.0
H435 H 0.90166 0.48585 0.19403 0.0
H436 H 0.90437 0.46892 0.14062 0.0
H437 H 0.81716 0.4198 0.29141 0.0
H438 H 0.83432 0.44781 0.31072 0.0
H439 H 0.80988 0.45101 0.26813 0.0
H440 H 0.86998 0.52478 0.32396 0.0
H441 H 0.81065 0.53299 0.22263 0.0
H442 H 0.90222 0.47264 0.27453 0.0
H443 H 0.8798 0.46018 0.31516 0.0
H444 H 0.89718 0.48926 0.32772 0.0
H445 H 0.83014 0.4819 0.15197 0.0
H446 H 0.80277 0.50149 0.16709 0.0
H447 H 0.8065 0.46974 0.19063 0.0
C448 C 0.40805 0.15041 0.77181 0.0
C449 C 0.4039 0.13091 0.80405 0.0
C450 C 0.43303 0.15687 0.75745 0.0
C451 C 0.45445 0.14345 0.77555 0.0
C452 C 0.45046 0.12381 0.80816 0.0
C453 C 0.42525 0.11781 0.82206 0.0
C454 C 0.43648 0.17789 0.72251 0.0
C455 C 0.47279 0.10889 0.82785 0.0
C456 C 0.51482 0.14268 0.70254 0.0
C457 C 0.53009 0.16159 0.72337 0.0
C458 C 0.49044 0.1363 0.71971 0.0
C459 C 0.48091 0.14919 0.75866 0.0
C460 C 0.49636 0.16796 0.78047 0.0
C461 C 0.52083 0.17388 0.76267 0.0
C462 C 0.47468 0.11603 0.69563 0.0
C463 C 0.48677 0.18219 0.82197 0.0
H464 H 0.39174 0.16068 0.75764 0.0
H465 H 0.4223 0.1027 0.84691 0.0
H466 H 0.44977 0.19278 0.73582 0.0
H467 H 0.44533 0.1699 0.69112 0.0
H468 H 0.41793 0.18716 0.71315 0.0
H469 H 0.46651 0.09472 0.85387 0.0
H470 H 0.48302 0.09854 0.80018 0.0
H471 H 0.48686 0.12218 0.84374 0.0
H472 H 0.52184 0.1329 0.67237 0.0
H473 H 0.53246 0.18851 0.77898 0.0
H474 H 0.45671 0.12466 0.68202 0.0
H475 H 0.46896 0.1008 0.72004 0.0
H476 H 0.48534 0.10702 0.66693 0.0
H477 H 0.46924 0.1933 0.81306 0.0
H478 H 0.50144 0.19559 0.83589 0.0
H479 H 0.48128 0.16839 0.84909 0.0
C480 C 0.17374 0.51843 0.74732 0.0
C481 C 0.15571 0.53236 0.72163 0.0
C482 C 0.16795 0.49383 0.76393 0.0
C483 C 0.14364 0.48276 0.75424 0.0
C484 C 0.12513 0.49694 0.72926 0.0
C485 C 0.13132 0.52162 0.71351 0.0
C486 C 0.18807 0.47946 0.79102 0.0
C487 C 0.09906 0.48573 0.71796 0.0
C488 C 0.13962 0.40995 0.7559 0.0
C489 C 0.12796 0.40533 0.79829 0.0
C490 C 0.14447 0.43506 0.74086 0.0
C491 C 0.13786 0.45607 0.76919 0.0
C492 C 0.12602 0.45154 0.81195 0.0
C493 C 0.12102 0.42624 0.82582 0.0
C494 C 0.15675 0.43909 0.69469 0.0
C495 C 0.11894 0.47341 0.8433 0.0
H496 H 0.19257 0.52662 0.75399 0.0
H497 H 0.11727 0.53217 0.69357 0.0
H498 H 0.17992 0.47315 0.82416 0.0
H499 H 0.194 0.46197 0.77221 0.0
H500 H 0.20549 0.49127 0.7977 0.0
H501 H 0.08652 0.49955 0.69953 0.0
H502 H 0.10153 0.4684 0.69643 0.0
H503 H 0.08909 0.47963 0.74962 0.0
H504 H 0.14482 0.3939 0.73427 0.0
H505 H 0.1121 0.42283 0.8587 0.0
H506 H 0.17555 0.44897 0.69873 0.0
H507 H 0.14434 0.45162 0.67337 0.0
H508 H 0.15998 0.42076 0.67623 0.0
H509 H 0.13646 0.48455 0.85219 0.0
H510 H 0.10973 0.46666 0.87534 0.0
H511 H 0.10551 0.48672 0.82577 0.0
C512 C 0.51676 0.82758 0.25089 0.0
C513 C 0.53068 0.84499 0.27781 0.0
C514 C 0.49221 0.83377 0.23405 0.0
C515 C 0.4812 0.85789 0.24466 0.0
C516 C 0.4954 0.87583 0.27079 0.0
C517 C 0.52004 0.86922 0.28685 0.0
C518 C 0.47781 0.81425 0.20579 0.0
C519 C 0.48425 0.90168 0.28298 0.0
C520 C 0.4249 0.88097 0.17255 0.0
C521 C 0.40372 0.87363 0.19931 0.0
C522 C 0.45024 0.87613 0.18701 0.0
C523 C 0.45451 0.86397 0.22952 0.0
C524 C 0.43323 0.85699 0.25713 0.0
C525 C 0.40809 0.86176 0.24156 0.0
C526 C 0.47243 0.88364 0.15646 0.0
C527 C 0.437 0.84431 0.30298 0.0
H528 H 0.52489 0.80889 0.24347 0.0
H529 H 0.53061 0.88278 0.30771 0.0
H530 H 0.46007 0.80822 0.224 0.0
H531 H 0.47173 0.82287 0.1729 0.0
H532 H 0.4896 0.79693 0.19858 0.0
H533 H 0.49817 0.91385 0.30198 0.0
H534 H 0.47823 0.91202 0.25167 0.0
H535 H 0.46678 0.89907 0.3043 0.0
H536 H 0.42169 0.89012 0.13983 0.0
H537 H 0.39183 0.85627 0.26264 0.0
H538 H 0.4836 0.86632 0.14681 0.0
H539 H 0.48575 0.89662 0.17495 0.0
H540 H 0.46586 0.89338 0.12482 0.0
H541 H 0.44692 0.82562 0.29853 0.0
H542 H 0.41846 0.84094 0.321 0.0
H543 H 0.44948 0.8564 0.32493 0.0
C544 C 0.89113 0.5751 0.81184 0.0
C545 C 0.875 0.59502 0.79709 0.0
C546 C 0.88671 0.54969 0.79793 0.0
C547 C 0.86615 0.54431 0.76761 0.0
C548 C 0.85031 0.56453 0.75162 0.0
C549 C 0.85471 0.58959 0.76708 0.0
C550 C 0.90365 0.52856 0.81643 0.0
C551 C 0.82866 0.55969 0.71824 0.0
C552 C 0.86682 0.48296 0.69792 0.0
C553 C 0.84763 0.46854 0.71968 0.0
C554 C 0.87336 0.50754 0.71357 0.0
C555 C 0.86095 0.51754 0.75272 0.0
C556 C 0.84242 0.5025 0.77608 0.0
C557 C 0.83564 0.47832 0.75877 0.0
C558 C 0.89265 0.52326 0.68697 0.0
C559 C 0.82929 0.5122 0.81866 0.0
H560 H 0.90672 0.57927 0.83531 0.0
H561 H 0.84239 0.60505 0.75532 0.0
H562 H 0.89169 0.51441 0.83519 0.0
H563 H 0.91312 0.51817 0.78799 0.0
H564 H 0.91879 0.53595 0.83978 0.0
H565 H 0.81904 0.57771 0.70729 0.0
H566 H 0.83615 0.54972 0.68754 0.0
H567 H 0.81401 0.54698 0.73398 0.0
H568 H 0.87587 0.47552 0.66732 0.0
H569 H 0.82088 0.46707 0.77566 0.0
H570 H 0.9083 0.53006 0.70971 0.0
H571 H 0.883 0.5405 0.67276 0.0
H572 H 0.90137 0.51227 0.6584 0.0
H573 H 0.84384 0.51911 0.84355 0.0
H574 H 0.81733 0.49719 0.83524 0.0
H575 H 0.8167 0.52871 0.81004 0.0
C576 C 0.57945 0.12245 0.17434 0.0
C577 C 0.60038 0.12873 0.20255 0.0
C578 C 0.55401 0.12786 0.18763 0.0
C579 C 0.54932 0.13948 0.23048 0.0
C580 C 0.57034 0.14553 0.25942 0.0
C581 C 0.59562 0.14026 0.24496 0.0
C582 C 0.53216 0.12139 0.1556 0.0
C583 C 0.56615 0.15758 0.30568 0.0
C584 C 0.48672 0.17564 0.25136 0.0
C585 C 0.47231 0.15764 0.27618 0.0
C586 C 0.51159 0.1698 0.23547 0.0
C587 C 0.52244 0.14545 0.24499 0.0
C588 C 0.5078 0.127 0.26914 0.0
C589 C 0.48287 0.13325 0.28419 0.0
C590 C 0.52644 0.18986 0.20925 0.0
C591 C 0.51874 0.10089 0.28022 0.0
H592 H 0.58295 0.11365 0.14142 0.0
H593 H 0.61167 0.14499 0.2671 0.0
H594 H 0.51854 0.10799 0.17243 0.0
H595 H 0.5212 0.13903 0.14705 0.0
H596 H 0.53905 0.11248 0.12341 0.0
H597 H 0.58448 0.16038 0.32464 0.0
H598 H 0.55657 0.17647 0.30171 0.0
H599 H 0.55319 0.14534 0.32649 0.0
H600 H 0.4787 0.19448 0.24479 0.0
H601 H 0.47196 0.11922 0.30346 0.0
H602 H 0.53293 0.18195 0.17605 0.0
H603 H 0.54396 0.1954 0.2286 0.0
H604 H 0.51481 0.20738 0.20275 0.0
H605 H 0.52492 0.09106 0.2485 0.0
H606 H 0.50464 0.08846 0.29824 0.0
H607 H 0.53608 0.10304 0.30205 0.0
C608 C 0.66589 0.98076 0.7416 0.0
C609 C 0.65194 0.9694 0.77716 0.0
C610 C 0.6582 0.00436 0.72299 0.0
C611 C 0.63644 0.01718 0.74124 0.0
C612 C 0.6219 0.00546 0.77636 0.0
C613 C 0.62964 0.98155 0.79352 0.0
C614 C 0.67386 0.01597 0.68481 0.0
C615 C 0.59895 0.01877 0.79744 0.0
C616 C 0.63818 0.08961 0.73122 0.0
C617 C 0.62074 0.09405 0.69566 0.0
C618 C 0.64279 0.06473 0.74731 0.0
C619 C 0.63025 0.04372 0.72624 0.0
C620 C 0.61241 0.04814 0.69046 0.0
C621 C 0.60754 0.07341 0.67603 0.0
C622 C 0.6613 0.06095 0.78653 0.0
C623 C 0.59911 0.02618 0.66659 0.0
H624 H 0.68299 0.97128 0.7286 0.0
H625 H 0.61887 0.97292 0.82124 0.0
H626 H 0.66105 0.02205 0.65649 0.0
H627 H 0.68399 0.03332 0.69736 0.0
H628 H 0.68846 0.00238 0.6712 0.0
H629 H 0.58867 0.00635 0.82228 0.0
H630 H 0.60545 0.03637 0.81536 0.0
H631 H 0.58514 0.02483 0.77064 0.0
H632 H 0.64816 0.1057 0.74665 0.0
H633 H 0.59416 0.07694 0.64831 0.0
H634 H 0.67841 0.05003 0.77475 0.0
H635 H 0.65201 0.04956 0.81395 0.0
H636 H 0.66796 0.07944 0.80123 0.0
H637 H 0.61371 0.01367 0.65014 0.0
H638 H 0.58534 0.03289 0.64012 0.0
H639 H 0.58853 0.01422 0.69164 0.0
C640 C 0.07826 0.38094 0.32566 0.0
C641 C 0.09946 0.37404 0.29857 0.0
C642 C 0.05293 0.37567 0.31157 0.0
C643 C 0.04862 0.36357 0.26901 0.0
C644 C 0.06992 0.35692 0.24116 0.0
C645 C 0.09508 0.36205 0.25643 0.0
C646 C 0.03077 0.3828 0.34247 0.0
C647 C 0.06616 0.34437 0.19521 0.0
C648 C 0.98595 0.32768 0.24744 0.0
C649 C 0.97192 0.34548 0.22148 0.0
C650 C 0.0107 0.33351 0.26389 0.0
C651 C 0.02186 0.35764 0.25377 0.0
C652 C 0.00761 0.37589 0.22836 0.0
C653 C 0.98277 0.36966 0.21279 0.0
C654 C 0.02511 0.31367 0.29144 0.0
C655 C 0.01889 0.40175 0.21656 0.0
H656 H 0.08147 0.39012 0.35835 0.0
H657 H 0.11134 0.35686 0.23511 0.0
H658 H 0.01748 0.39608 0.32454 0.0
H659 H 0.01954 0.36539 0.35137 0.0
H660 H 0.03736 0.39209 0.37451 0.0
H661 H 0.08469 0.341 0.17719 0.0
H662 H 0.05617 0.32571 0.19946 0.0
H663 H 0.05373 0.35658 0.17335 0.0
H664 H 0.9777 0.309 0.25453 0.0
H665 H 0.97217 0.38353 0.19261 0.0
H666 H 0.03126 0.32195 0.32455 0.0
H667 H 0.0428 0.30777 0.27296 0.0
H668 H 0.01328 0.29632 0.29819 0.0
H669 H 0.0248 0.41196 0.24807 0.0
H670 H 0.0051 0.41404 0.19751 0.0
H671 H 0.03646 0.39916 0.19546 0.0
C672 C 0.38097 0.92398 0.67258 0.0
C673 C 0.37322 0.90288 0.69896 0.0
C674 C 0.3761 0.94921 0.68703 0.0
C675 C 0.36351 0.95347 0.72919 0.0
C676 C 0.35609 0.93226 0.75641 0.0
C677 C 0.36087 0.90723 0.74083 0.0
C678 C 0.38408 0.97129 0.65685 0.0
C679 C 0.34295 0.93599 0.80191 0.0
C680 C 0.3689 0.01877 0.78646 0.0
C681 C 0.34478 0.02963 0.77657 0.0
C682 C 0.37539 0.99411 0.77088 0.0
C683 C 0.35746 0.98009 0.74432 0.0
C684 C 0.33344 0.99129 0.73296 0.0
C685 C 0.32735 0.01585 0.74937 0.0
C686 C 0.40114 0.98275 0.78393 0.0
C687 C 0.31394 0.97712 0.7042 0.0
H688 H 0.39047 0.92081 0.64015 0.0
H689 H 0.35506 0.89104 0.76164 0.0
H690 H 0.36686 0.9826 0.64685 0.0
H691 H 0.39711 0.98438 0.67576 0.0
H692 H 0.39406 0.96476 0.6254 0.0
H693 H 0.33931 0.91754 0.81974 0.0
H694 H 0.35496 0.94832 0.82426 0.0
H695 H 0.32426 0.94596 0.79695 0.0
H696 H 0.38246 0.02921 0.80759 0.0
H697 H 0.30874 0.02414 0.74131 0.0
H698 H 0.41183 0.97678 0.75294 0.0
H699 H 0.39812 0.96532 0.80498 0.0
H700 H 0.41326 0.99644 0.80349 0.0
H701 H 0.32281 0.97107 0.6715 0.0
H702 H 0.29666 0.98898 0.69662 0.0
H703 H 0.30763 0.95948 0.72219 0.0
C704 C 0.02234 0.66454 0.25769 0.0
C705 C 0.03323 0.65156 0.2206 0.0
C706 C 0.99846 0.65698 0.27563 0.0
C707 C 0.98488 0.63645 0.25504 0.0
C708 C 0.99614 0.62285 0.21832 0.0
C709 C 0.02038 0.63037 0.20191 0.0
C710 C 0.98737 0.67153 0.31561 0.0
C711 C 0.98199 0.60128 0.19476 0.0
C712 C 0.92766 0.60733 0.31734 0.0
C713 C 0.90729 0.6218 0.29942 0.0
C714 C 0.95314 0.61183 0.30322 0.0
C715 C 0.95807 0.63066 0.26949 0.0
C716 C 0.93734 0.64458 0.2501 0.0
C717 C 0.91224 0.64025 0.26585 0.0
C718 C 0.97482 0.59704 0.32534 0.0
C719 C 0.94168 0.66427 0.21306 0.0
H720 H 0.0324 0.68079 0.27238 0.0
H721 H 0.02869 0.62043 0.17295 0.0
H722 H 0.97031 0.68268 0.30433 0.0
H723 H 0.9808 0.65799 0.3424 0.0
H724 H 0.00155 0.685 0.33084 0.0
H725 H 0.99414 0.59152 0.16883 0.0
H726 H 0.9754 0.58686 0.21998 0.0
H727 H 0.96457 0.609 0.1776 0.0
H728 H 0.92377 0.59318 0.34355 0.0
H729 H 0.89637 0.65124 0.25173 0.0
H730 H 0.9879 0.61053 0.34329 0.0
H731 H 0.98643 0.58704 0.29904 0.0
H732 H 0.96769 0.58265 0.35026 0.0
H733 H 0.95321 0.68046 0.2267 0.0
H734 H 0.9233 0.67202 0.1993 0.0
H735 H 0.9528 0.65569 0.18455 0.0
C736 C 0.63649 0.01951 0.21793 0.0
C737 C 0.66067 0.03025 0.22785 0.0
C738 C 0.62987 0.99486 0.23339 0.0
C739 C 0.64772 0.98068 0.25986 0.0
C740 C 0.67184 0.99169 0.2711 0.0
C741 C 0.67806 0.01626 0.25482 0.0
C742 C 0.60401 0.98373 0.22043 0.0
C743 C 0.69128 0.97733 0.29972 0.0
C744 C 0.62304 0.92502 0.33159 0.0
C745 C 0.63025 0.90375 0.30514 0.0
C746 C 0.62861 0.95013 0.3173 0.0
C747 C 0.64136 0.95415 0.2752 0.0
C748 C 0.64833 0.93279 0.24798 0.0
C749 C 0.64285 0.90786 0.26342 0.0
C750 C 0.62108 0.97237 0.34749 0.0
C751 C 0.6616 0.93625 0.20254 0.0
H752 H 0.62293 0.03007 0.19699 0.0
H753 H 0.69674 0.02442 0.26286 0.0
H754 H 0.60685 0.96614 0.19973 0.0
H755 H 0.59322 0.97806 0.2515 0.0
H756 H 0.59206 0.99744 0.20057 0.0
H757 H 0.70872 0.98898 0.30703 0.0
H758 H 0.68245 0.97145 0.33257 0.0
H759 H 0.6973 0.95958 0.2818 0.0
H760 H 0.61336 0.92204 0.36393 0.0
H761 H 0.64827 0.89156 0.24257 0.0
H762 H 0.6081 0.98558 0.3287 0.0
H763 H 0.6385 0.98349 0.35709 0.0
H764 H 0.6112 0.96602 0.37915 0.0
H765 H 0.6497 0.94856 0.17996 0.0
H766 H 0.66515 0.9177 0.18498 0.0
H767 H 0.68033 0.94613 0.20747 0.0
C768 C 0.92485 0.37561 0.6672 0.0
C769 C 0.9035 0.3691 0.69423 0.0
C770 C 0.95007 0.37042 0.68186 0.0
C771 C 0.9541 0.35877 0.72489 0.0
C772 C 0.93265 0.35237 0.75256 0.0
C773 C 0.9076 0.35745 0.73676 0.0
C774 C 0.97242 0.37731 0.6512 0.0
C775 C 0.93617 0.34025 0.79895 0.0
C776 C 0.01702 0.32375 0.74798 0.0
C777 C 0.0308 0.34196 0.77346 0.0
C778 C 0.9922 0.32911 0.73143 0.0
C779 C 0.98076 0.35318 0.74085 0.0
C780 C 0.99471 0.37182 0.76583 0.0
C781 C 0.0196 0.36605 0.78161 0.0
C782 C 0.97807 0.30886 0.70442 0.0
C783 C 0.9831 0.39767 0.77676 0.0
H784 H 0.92185 0.38454 0.63423 0.0
H785 H 0.89122 0.35258 0.75802 0.0
H786 H 0.98543 0.39096 0.66886 0.0
H787 H 0.98388 0.35989 0.64334 0.0
H788 H 0.966 0.3861 0.6186 0.0
H789 H 0.91752 0.33677 0.81652 0.0
H790 H 0.94648 0.32171 0.79553 0.0
H791 H 0.9482 0.35283 0.82082 0.0
H792 H 0.02554 0.30514 0.74133 0.0
H793 H 0.03002 0.38022 0.80139 0.0
H794 H 0.97213 0.31669 0.67083 0.0
H795 H 0.96026 0.30314 0.72272 0.0
H796 H 0.99 0.29146 0.69865 0.0
H797 H 0.97739 0.4076 0.74485 0.0
H798 H 0.99663 0.4102 0.79588 0.0
H799 H 0.96538 0.39509 0.79744 0.0
C800 C 0.37971 0.07536 0.3277 0.0
C801 C 0.37324 0.09654 0.30048 0.0
C802 C 0.37393 0.05028 0.31366 0.0
C803 C 0.36173 0.04627 0.27106 0.0
C804 C 0.35553 0.06754 0.24307 0.0
C805 C 0.36119 0.09244 0.25827 0.0
C806 C 0.3806 0.02809 0.34462 0.0
C807 C 0.3429 0.06401 0.19706 0.0
C808 C 0.36687 0.98085 0.21484 0.0
C809 C 0.34237 0.97046 0.2234 0.0
C810 C 0.3735 0.00541 0.23049 0.0
C811 C 0.35534 0.01981 0.25581 0.0
C812 C 0.33089 0.00915 0.26579 0.0
C813 C 0.32465 0.98465 0.24928 0.0
C814 C 0.39971 0.01621 0.2189 0.0
C815 C 0.31115 0.0238 0.29323 0.0
H816 H 0.38893 0.07839 0.36045 0.0
H817 H 0.35633 0.10871 0.23689 0.0
H818 H 0.36288 0.01727 0.35343 0.0
H819 H 0.39373 0.01462 0.32679 0.0
H820 H 0.39002 0.03447 0.37671 0.0
H821 H 0.33978 0.08252 0.17909 0.0
H822 H 0.35502 0.05151 0.17521 0.0
H823 H 0.32401 0.05433 0.20121 0.0
H824 H 0.38068 0.9701 0.19476 0.0
H825 H 0.30574 0.97672 0.25626 0.0
H826 H 0.41001 0.02187 0.25049 0.0
H827 H 0.39744 0.03376 0.19784 0.0
H828 H 0.41186 0.00231 0.19988 0.0
H829 H 0.31951 0.02975 0.32642 0.0
H830 H 0.29349 0.01234 0.29982 0.0
H831 H 0.30558 0.04153 0.27476 0.0
C832 C 0.08989 0.65009 0.72957 0.0
C833 C 0.09408 0.63186 0.69511 0.0
C834 C 0.06485 0.65644 0.74386 0.0
C835 C 0.0434 0.64424 0.72331 0.0
C836 C 0.04745 0.62585 0.68851 0.0
C837 C 0.07271 0.61989 0.67484 0.0
C838 C 0.06136 0.67606 0.78126 0.0
C839 C 0.0251 0.61226 0.66607 0.0
C840 C 0.98192 0.64195 0.79337 0.0
C841 C 0.96736 0.66201 0.77437 0.0
C842 C 0.00641 0.63571 0.7765 0.0
C843 C 0.0168 0.64992 0.73975 0.0
C844 C 0.00206 0.66986 0.71971 0.0
C845 C 0.97744 0.67561 0.73713 0.0
C846 C 0.02136 0.61416 0.79861 0.0
C847 C 0.01255 0.68549 0.68056 0.0
H848 H 0.10621 0.65946 0.74554 0.0
H849 H 0.07569 0.60578 0.6482 0.0
H850 H 0.04873 0.69185 0.76921 0.0
H851 H 0.05172 0.66709 0.81104 0.0
H852 H 0.07997 0.68437 0.79277 0.0
H853 H 0.03145 0.59895 0.63871 0.0
H854 H 0.0142 0.60115 0.69195 0.0
H855 H 0.01159 0.62648 0.65116 0.0
H856 H 0.97424 0.63115 0.8219 0.0
H857 H 0.96637 0.69113 0.72226 0.0
H858 H 0.03933 0.62179 0.814 0.0
H859 H 0.02709 0.5998 0.77259 0.0
H860 H 0.01011 0.60429 0.82565 0.0
H861 H 0.03015 0.69585 0.69165 0.0
H862 H 0.99836 0.69972 0.6677 0.0
H863 H 0.0182 0.6727 0.65203 0.0
C864 C 0.19906 0.5502 0.52739 0.0
C865 C 0.21248 0.55413 0.56817 0.0
C866 C 0.20626 0.53073 0.49721 0.0
C867 C 0.22728 0.51455 0.50846 0.0
C868 C 0.24244 0.52003 0.54747 0.0
C869 C 0.23485 0.53992 0.57705 0.0
C870 C 0.18978 0.52602 0.45551 0.0
C871 C 0.26529 0.50362 0.56014 0.0
C872 C 0.20899 0.44901 0.4675 0.0
C873 C 0.21964 0.44908 0.4237 0.0
C874 C 0.21402 0.46899 0.49804 0.0
C875 C 0.22979 0.48971 0.48395 0.0
C876 C 0.24299 0.4883 0.4417 0.0
C877 C 0.23772 0.46785 0.4118 0.0
C878 C 0.19987 0.46936 0.54309 0.0
C879 C 0.26044 0.50965 0.42594 0.0
H880 H 0.18197 0.56153 0.52028 0.0
H881 H 0.24528 0.54302 0.60862 0.0
H882 H 0.20201 0.52345 0.42484 0.0
H883 H 0.17848 0.50814 0.46028 0.0
H884 H 0.1761 0.54201 0.44902 0.0
H885 H 0.27876 0.51406 0.58301 0.0
H886 H 0.25844 0.48627 0.57839 0.0
H887 H 0.27593 0.49719 0.52936 0.0
H888 H 0.19509 0.43431 0.47657 0.0
H889 H 0.24585 0.46789 0.37773 0.0
H890 H 0.18395 0.48356 0.54142 0.0
H891 H 0.21296 0.47522 0.5711 0.0
H892 H 0.19149 0.45033 0.55159 0.0
H893 H 0.2486 0.52522 0.41087 0.0
H894 H 0.27418 0.50287 0.39949 0.0
H895 H 0.27146 0.51789 0.45487 0.0
C896 C 0.46454 0.76302 0.58453 0.0
C897 C 0.44733 0.78278 0.57358 0.0
C898 C 0.48465 0.75659 0.55443 0.0
C899 C 0.4873 0.77035 0.513 0.0
C900 C 0.4679 0.78797 0.49968 0.0
C901 C 0.44824 0.79408 0.53037 0.0
C902 C 0.50446 0.73713 0.56921 0.0
C903 C 0.46955 0.80274 0.45542 0.0
C904 C 0.54975 0.79765 0.47125 0.0
C905 C 0.55227 0.78542 0.42905 0.0
C906 C 0.53016 0.79077 0.50153 0.0
C907 C 0.51245 0.77134 0.48889 0.0
C908 C 0.51665 0.75702 0.4485 0.0
C909 C 0.53668 0.76426 0.4188 0.0
C910 C 0.52684 0.80626 0.54471 0.0
C911 C 0.49867 0.73573 0.43445 0.0
H912 H 0.46373 0.75426 0.61805 0.0
H913 H 0.43463 0.80915 0.5219 0.0
H914 H 0.51217 0.72633 0.53958 0.0
H915 H 0.52082 0.74716 0.5858 0.0
H916 H 0.49624 0.72335 0.5942 0.0
H917 H 0.45128 0.81296 0.44749 0.0
H918 H 0.48523 0.81716 0.45782 0.0
H919 H 0.47418 0.78973 0.42666 0.0
H920 H 0.56218 0.81377 0.47933 0.0
H921 H 0.53875 0.75473 0.38614 0.0
H922 H 0.52344 0.79348 0.57432 0.0
H923 H 0.50977 0.81897 0.54124 0.0
H924 H 0.54393 0.81842 0.5521 0.0
H925 H 0.49134 0.72507 0.46454 0.0
H926 H 0.50834 0.72205 0.41097 0.0
H927 H 0.48186 0.74404 0.41631 0.0
C928 C 0.76606 0.46542 0.57956 0.0
C929 C 0.78723 0.44967 0.56976 0.0
C930 C 0.75986 0.48615 0.55076 0.0
C931 C 0.77535 0.49104 0.51187 0.0
C932 C 0.79499 0.47346 0.49964 0.0
C933 C 0.80063 0.453 0.52876 0.0
C934 C 0.7382 0.5039 0.5641 0.0
C935 C 0.81183 0.47759 0.4582 0.0
C936 C 0.7682 0.53937 0.41691 0.0
C937 C 0.78697 0.55738 0.42978 0.0
C938 C 0.76172 0.51887 0.44587 0.0
C939 C 0.77457 0.51625 0.48819 0.0
C940 C 0.79127 0.53598 0.50339 0.0
C941 C 0.79711 0.55638 0.47411 0.0
C942 C 0.74295 0.49884 0.4293 0.0
C943 C 0.80519 0.53419 0.54856 0.0
H944 H 0.75564 0.46279 0.61127 0.0
H945 H 0.81676 0.4405 0.52093 0.0
H946 H 0.74612 0.5202 0.58397 0.0
H947 H 0.72835 0.51186 0.53362 0.0
H948 H 0.72378 0.49392 0.58578 0.0
H949 H 0.82467 0.46096 0.45143 0.0
H950 H 0.79984 0.481 0.4275 0.0
H951 H 0.82403 0.49483 0.46343 0.0
H952 H 0.7598 0.54023 0.38308 0.0
H953 H 0.81114 0.57056 0.48487 0.0
H954 H 0.7313 0.4911 0.4579 0.0
H955 H 0.75377 0.48265 0.41394 0.0
H956 H 0.72978 0.50673 0.40291 0.0
H957 H 0.79156 0.5292 0.57629 0.0
H958 H 0.81506 0.5524 0.55763 0.0
H959 H 0.81989 0.51874 0.5468 0.0
C960 C 0.46364 0.23637 0.42186 0.0
C961 C 0.44929 0.214 0.42938 0.0
C962 C 0.48374 0.24318 0.45182 0.0
C963 C 0.48945 0.22707 0.48947 0.0
C964 C 0.47311 0.20606 0.49951 0.0
C965 C 0.45323 0.19985 0.46935 0.0
C966 C 0.50004 0.26631 0.44092 0.0
C967 C 0.47811 0.18847 0.53958 0.0
C968 C 0.5559 0.20803 0.52674 0.0
C969 C 0.55579 0.21637 0.57223 0.0
C970 C 0.53546 0.21389 0.49736 0.0
C971 C 0.51457 0.22877 0.51371 0.0
C972 C 0.51608 0.24014 0.55746 0.0
C973 C 0.53665 0.23365 0.58649 0.0
C974 C 0.53491 0.20163 0.45067 0.0
C975 C 0.49481 0.25711 0.57531 0.0
H976 H 0.4605 0.24741 0.39102 0.0
H977 H 0.44176 0.18279 0.47548 0.0
H978 H 0.50753 0.27549 0.4724 0.0
H979 H 0.51678 0.26029 0.41996 0.0
H980 H 0.48894 0.28072 0.42106 0.0
H981 H 0.46235 0.17433 0.54462 0.0
H982 H 0.49636 0.1778 0.53396 0.0
H983 H 0.48033 0.19973 0.57141 0.0
H984 H 0.571 0.19525 0.51499 0.0
H985 H 0.53666 0.24067 0.62129 0.0
H986 H 0.52939 0.21587 0.42435 0.0
H987 H 0.52025 0.18612 0.45022 0.0
H988 H 0.55384 0.1932 0.44119 0.0
H989 H 0.48649 0.26907 0.54766 0.0
H990 H 0.50186 0.26985 0.60301 0.0
H991 H 0.47914 0.24499 0.5894 0.0
C992 C 0.7106 0.05498 0.03438 0.0
C993 C 0.72098 0.05416 0.07836 0.0
C994 C 0.71591 0.0356 0.0028 0.0
C995 C 0.73173 0.01472 0.01598 0.0
C996 C 0.74477 0.01549 0.05845 0.0
C997 C 0.73918 0.03533 0.08946 0.0
C998 C 0.70194 0.03594 0.95758 0.0
C999 C 0.76238 0.99402 0.07318 0.0
C1000 C 0.70094 0.95479 0.97045 0.0
C1001 C 0.71415 0.95141 0.92929 0.0
C1002 C 0.70821 0.9739 0.00127 0.0
C1003 C 0.72917 0.99021 0.99044 0.0
C1004 C 0.74418 0.98525 0.95102 0.0
C1005 C 0.73647 0.96576 0.92069 0.0
C1006 C 0.69185 0.97808 0.04331 0.0
C1007 C 0.76704 0.00174 0.93888 0.0
H1008 H 0.69669 0.06978 0.02589 0.0
H1009 H 0.74719 0.03475 0.12361 0.0
H1010 H 0.71514 0.03055 0.92944 0.0
H1011 H 0.68605 0.0217 0.95832 0.0
H1012 H 0.69356 0.05508 0.94995 0.0
H1013 H 0.77606 1.00049 0.09996 0.0
H1014 H 0.75066 0.97814 0.08747 0.0
H1015 H 0.77346 0.98631 0.04385 0.0
H1016 H 0.68397 0.94329 0.97747 0.0
H1017 H 0.74681 0.96302 0.88893 0.0
H1018 H 0.68072 0.99614 0.03958 0.0
H1019 H 0.70417 0.98 0.07401 0.0
H1020 H 0.67803 0.96212 0.04907 0.0
H1021 H 0.76025 0.01914 0.92073 0.0
H1022 H 0.7806 0.99139 0.91602 0.0
H1023 H 0.77758 0.00804 0.96985 0.0
C1024 C 0.96486 0.26708 0.07842 0.0
C1025 C 0.94966 0.28865 0.06888 0.0
C1026 C 0.98499 0.25996 0.04883 0.0
C1027 C 0.98971 0.27478 0.00917 0.0
C1028 C 0.97249 0.29479 0.99723 0.0
C1029 C 0.95279 0.30156 0.02744 0.0
C1030 C 0.00251 0.23814 0.06222 0.0
C1031 C 0.97636 0.31084 0.95483 0.0
C1032 C 0.05472 0.29573 0.96811 0.0
C1033 C 0.05536 0.28462 0.92473 0.0
C1034 C 0.03479 0.29013 0.9986 0.0
C1035 C 0.01481 0.27328 0.98488 0.0
C1036 C 0.01703 0.25974 0.94314 0.0
C1037 C 0.03743 0.26561 0.91329 0.0
C1038 C 0.03358 0.30467 0.04313 0.0
C1039 C 0.99651 0.24117 0.92781 0.0
H1040 H 0.96236 0.25706 0.11052 0.0
H1041 H 0.94072 0.31802 0.01989 0.0
H1042 H 0.00943 0.22752 0.0318 0.0
H1043 H 0.01962 0.24593 0.0802 0.0
H1044 H 0.99264 0.22454 0.08558 0.0
H1045 H 0.9596 0.32351 0.94781 0.0
H1046 H 0.99372 0.32306 0.95908 0.0
H1047 H 0.97957 0.29841 0.92468 0.0
H1048 H 0.0688 0.31031 0.97686 0.0
H1049 H 0.03795 0.25708 0.87957 0.0
H1050 H 0.02835 0.29166 0.07158 0.0
H1051 H 0.01847 0.3197 0.04087 0.0
H1052 H 0.0522 0.31411 0.05143 0.0
H1053 H 0.98858 0.23023 0.95709 0.0
H1054 H 0.00414 0.22747 0.90211 0.0
H1055 H 0.98042 0.25198 0.91195 0.0
C1056 C 0.26443 0.03558 0.9161 0.0
C1057 C 0.28504 0.05188 0.92673 0.0
C1058 C 0.25759 0.01551 0.94586 0.0
C1059 C 0.27174 0.01196 0.98674 0.0
C1060 C 0.29052 0.0303 -0.00033 0.0
C1061 C 0.29703 0.04993 0.96932 0.0
C1062 C 0.23699 0.99681 0.93141 0.0
C1063 C 0.30582 0.02767 0.04331 0.0
C1064 C 0.26341 0.96385 0.08212 0.0
C1065 C 0.2837 0.94709 0.07185 0.0
C1066 C 0.25702 0.98391 0.052 0.0
C1067 C 0.27134 0.98697 0.01118 0.0
C1068 C 0.28969 0.96814 0.99856 0.0
C1069 C 0.29573 0.94852 0.02925 0.0
C1070 C 0.23683 0.00314 0.06607 0.0
C1071 C 0.30513 0.97026 0.95502 0.0
H1072 H 0.25512 0.03716 0.8831 0.0
H1073 H 0.31275 0.06284 0.97765 0.0
H1074 H 0.24615 0.98014 0.91437 0.0
H1075 H 0.22605 0.98954 0.96124 0.0
H1076 H 0.22332 0.00572 0.9069 0.0
H1077 H 0.31728 0.04515 0.05092 0.0
H1078 H 0.29284 0.02382 0.07257 0.0
H1079 H 0.31927 0.01119 0.04031 0.0
H1080 H 0.25409 0.96269 0.11516 0.0
H1081 H 0.31124 0.93529 0.02127 0.0
H1082 H 0.2261 0.01052 0.03607 0.0
H1083 H 0.24634 0.01968 0.0829 0.0
H1084 H 0.22294 0.99466 0.09064 0.0
H1085 H 0.29235 0.97449 0.92566 0.0
H1086 H 0.31607 0.95242 0.94754 0.0
H1087 H 0.31909 0.98631 0.95809 0.0
C1088 C 0.94278 0.70235 0.97383 0.0
C1089 C 0.94174 0.71292 0.92987 0.0
C1090 C 0.9631 0.7082 0.00348 0.0
C1091 C 0.9827 0.72527 0.98899 0.0
C1092 C 0.97999 0.73846 0.94709 0.0
C1093 C 0.95957 0.73202 0.91778 0.0
C1094 C 0.96499 0.69393 0.04823 0.0
C1095 C 0.99991 0.75757 0.93127 0.0
C1096 C 0.03361 0.73385 0.08054 0.0
C1097 C 0.04978 0.71312 0.07023 0.0
C1098 C 0.01264 0.73985 0.05197 0.0
C1099 C 0.00798 0.72462 0.01277 0.0
C1100 C 0.02594 0.70545 8e-05 0.0
C1101 C 0.0466 0.69997 0.02902 0.0
C1102 C 0.99442 0.76098 0.06587 0.0
C1103 C 0.02205 0.68895 0.95823 0.0
H1104 H 0.92872 0.68807 0.984 0.0
H1105 H 0.95864 0.74076 0.88427 0.0
H1106 H 0.98063 0.67945 0.04604 0.0
H1107 H 0.96988 0.70726 0.07638 0.0
H1108 H 0.94676 0.68389 0.05696 0.0
H1109 H 0.99191 0.77075 0.90505 0.0
H1110 H 0.00735 0.76907 0.96026 0.0
H1111 H 0.01643 0.74717 0.91595 0.0
H1112 H 0.03612 0.74407 0.11244 0.0
H1113 H 0.05943 0.68418 0.02082 0.0
H1114 H 0.97814 0.75263 0.08539 0.0
H1115 H 0.98631 0.77094 0.03565 0.0
H1116 H 0.00417 0.77528 0.08804 0.0
H1117 H 0.00492 0.67649 0.96315 0.0
H1118 H 0.03897 0.67649 0.95115 0.0
H1119 H 0.01843 0.70106 0.92782 0.0
C1120 C 0.18634 0.34767 0.17218 0.0
C1121 C 0.18783 0.37312 0.18752 0.0
C1122 C 0.18029 0.34207 0.12657 0.0
C1123 C 0.17526 0.36238 0.09578 0.0
C1124 C 0.17773 0.3881 0.11061 0.0
C1125 C 0.18413 0.39315 0.15622 0.0
C1126 C 0.17813 0.31439 0.11189 0.0
C1127 C 0.17224 0.41031 0.07897 0.0
C1128 C 0.17085 0.35015 0.96791 0.0
C1129 C 0.14411 0.34796 0.96181 0.0
C1130 C 0.1814 0.35447 0.01146 0.0
C1131 C 0.16479 0.35684 0.04958 0.0
C1132 C 0.13784 0.35446 0.04365 0.0
C1133 C 0.12787 0.34996 -1e-05 0.0
C1134 C 0.21026 0.3566 0.01668 0.0
C1135 C 0.11942 0.35697 0.08337 0.0
H1136 H 0.18935 0.33207 0.19604 0.0
H1137 H 0.18517 0.41288 0.16776 0.0
H1138 H 0.15763 0.30965 0.10525 0.0
H1139 H 0.18887 0.3112 0.07966 0.0
H1140 H 0.18561 0.30099 0.13822 0.0
H1141 H 0.17715 0.42909 0.09462 0.0
H1142 H 0.18328 0.4082 0.04679 0.0
H1143 H 0.15147 0.41042 0.06991 0.0
H1144 H 0.18354 0.34847 0.93871 0.0
H1145 H 0.10718 0.34825 0.99583 0.0
H1146 H 0.21723 0.34236 0.04197 0.0
H1147 H 0.21538 0.37588 0.02987 0.0
H1148 H 0.22057 0.35345 0.98395 0.0
H1149 H 0.1241 0.34255 0.10994 0.0
H1150 H 0.09898 0.35434 0.07303 0.0
H1151 H 0.12148 0.37619 0.09921 0.0
C1152 C 0.34779 0.83115 0.02937 0.0
C1153 C 0.34573 0.85777 0.03538 0.0
C1154 C 0.35211 0.82061 0.98587 0.0
C1155 C 0.35462 0.83711 0.94773 0.0
C1156 C 0.35233 0.86395 0.95357 0.0
C1157 C 0.34782 0.8739 0.99716 0.0
C1158 C 0.35414 0.79188 0.98071 0.0
C1159 C 0.355 0.88225 0.91381 0.0
C1160 C 0.39135 0.81815 0.84132 0.0
C1161 C 0.37129 0.81472 0.8098 0.0
C1162 C 0.38616 0.82424 0.88699 0.0
C1163 C 0.36028 0.82669 0.90162 0.0
C1164 C 0.33994 0.82187 0.87061 0.0
C1165 C 0.34568 0.81611 0.82495 0.0
C1166 C 0.40841 0.82951 0.91889 0.0
C1167 C 0.31209 0.82401 0.88508 0.0
H1168 H 0.34604 0.81855 0.05861 0.0
H1169 H 0.3462 0.89451 0.00126 0.0
H1170 H 0.33991 0.78501 0.95523 0.0
H1171 H 0.37355 0.78669 0.9678 0.0
H1172 H 0.35079 0.78164 0.01341 0.0
H1173 H 0.35241 0.9026 0.92409 0.0
H1174 H 0.37434 0.88011 0.8981 0.0
H1175 H 0.34054 0.87764 0.88716 0.0
H1176 H 0.41121 0.81716 0.82993 0.0
H1177 H 0.33006 0.81328 0.80091 0.0
H1178 H 0.40611 0.81852 0.95102 0.0
H1179 H 0.40862 0.85017 0.92798 0.0
H1180 H 0.4273 0.82451 0.90342 0.0
H1181 H 0.3088 0.81335 0.91731 0.0
H1182 H 0.29869 0.81655 0.85867 0.0
H1183 H 0.30729 0.84442 0.89163 0.0
C1184 C 0.85263 0.62947 0.97707 0.0
C1185 C 0.8456 0.65158 0.95281 0.0
C1186 C 0.84346 0.62506 0.02118 0.0
C1187 C 0.82697 0.64331 0.0417 0.0
C1188 C 0.81838 0.66481 0.01634 0.0
C1189 C 0.82778 0.66868 0.97192 0.0
C1190 C 0.85296 0.60179 0.04693 0.0
C1191 C 0.80069 0.68458 0.03714 0.0
C1192 C 0.79957 0.62302 0.15622 0.0
C1193 C 0.81812 0.6331 0.18607 0.0
C1194 C 0.80136 0.62722 0.10897 0.0
C1195 C 0.82221 0.6417 0.09147 0.0
C1196 C 0.84043 0.65264 0.1216 0.0
C1197 C 0.83816 0.64821 0.16842 0.0
C1198 C 0.78157 0.61535 0.0777 0.0
C1199 C 0.86307 0.66812 0.10432 0.0
H1200 H 0.86604 0.61591 0.9621 0.0
H1201 H 0.8222 0.68572 0.95314 0.0
H1202 H 0.86649 0.60794 0.07415 0.0
H1203 H 0.83667 0.59174 0.06367 0.0
H1204 H 0.86314 0.58798 0.02438 0.0
H1205 H 0.79249 0.69768 0.01099 0.0
H1206 H 0.78466 0.67519 0.05579 0.0
H1207 H 0.81164 0.69626 0.06217 0.0
H1208 H 0.78396 0.61143 0.16961 0.0
H1209 H 0.85254 0.65625 0.19112 0.0
H1210 H 0.79055 0.59947 0.05818 0.0
H1211 H 0.77454 0.62967 0.0526 0.0
H1212 H 0.76481 0.60757 0.09682 0.0
H1213 H 0.87601 0.65562 0.08395 0.0
H1214 H 0.87449 0.67673 0.13248 0.0
H1215 H 0.85629 0.68374 0.0816 0.0
C1216 C 0.6365 0.15888 0.03413 0.0
C1217 C 0.65848 0.14389 0.04155 0.0
C1218 C 0.63017 0.16737 0.99006 0.0
C1219 C 0.64678 0.16144 0.95317 0.0
C1220 C 0.66977 0.14748 0.96123 0.0
C1221 C 0.67506 0.13838 0.00524 0.0
C1222 C 0.60503 0.18134 0.98258 0.0
C1223 C 0.68839 0.14142 0.92312 0.0
C1224 C 0.622 0.1538 0.83252 0.0
C1225 C 0.6287 0.17735 0.813 0.0
C1226 C 0.62659 0.14893 0.87877 0.0
C1227 C 0.63916 0.16775 0.9056 0.0
C1228 C 0.6457 0.19176 0.88604 0.0
C1229 C 0.63995 0.19646 0.83992 0.0
C1230 C 0.6186 0.12338 0.89854 0.0
C1231 C 0.65991 0.2119 0.91312 0.0
H1232 H 0.62358 0.1628 0.06237 0.0
H1233 H 0.6921 0.12681 0.0113 0.0
H1234 H 0.60829 0.19941 0.96351 0.0
H1235 H 0.59201 0.16925 0.96159 0.0
H1236 H 0.59513 0.18593 0.01518 0.0
H1237 H 0.70681 0.13333 0.93607 0.0
H1238 H 0.6796 0.12728 0.89952 0.0
H1239 H 0.69267 0.15897 0.90307 0.0
H1240 H 0.61324 0.1391 0.81139 0.0
H1241 H 0.64538 0.21453 0.82435 0.0
H1242 H 0.60764 0.12626 0.93064 0.0
H1243 H 0.63597 0.11191 0.90698 0.0
H1244 H 0.60653 0.11212 0.8745 0.0
H1245 H 0.64954 0.21615 0.94532 0.0
H1246 H 0.66233 0.23004 0.8937 0.0
H1247 H 0.67926 0.20454 0.92256 0.0
C1248 C 0.18563 0.65762 0.81949 0.0
C1249 C 0.18647 0.63205 0.80465 0.0
C1250 C 0.18065 0.6636 0.86529 0.0
C1251 C 0.17606 0.64353 0.89676 0.0
C1252 C 0.17828 0.61769 0.88251 0.0
C1253 C 0.1836 0.61225 0.83664 0.0
C1254 C 0.17881 0.6914 0.87936 0.0
C1255 C 0.1733 0.59575 0.91498 0.0
C1256 C 0.17149 0.65662 0.02419 0.0
C1257 C 0.14472 0.65847 0.03009 0.0
C1258 C 0.18215 0.65223 0.98079 0.0
C1259 C 0.1656 0.64946 0.9427 0.0
C1260 C 0.13862 0.65173 0.94838 0.0
C1261 C 0.12855 0.65631 0.99186 0.0
C1262 C 0.21103 0.65024 0.97574 0.0
C1263 C 0.12027 0.64885 0.90862 0.0
H1264 H 0.18812 0.67304 0.79506 0.0
H1265 H 0.18424 0.59244 0.82546 0.0
H1266 H 0.15833 0.69645 0.88556 0.0
H1267 H 0.18945 0.69472 0.91165 0.0
H1268 H 0.18654 0.70449 0.85279 0.0
H1269 H 0.17852 0.5769 0.89992 0.0
H1270 H 0.18435 0.59839 0.94703 0.0
H1271 H 0.15254 0.59536 0.92413 0.0
H1272 H 0.18412 0.65842 0.05347 0.0
H1273 H 0.10784 0.65784 0.99589 0.0
H1274 H 0.21792 0.664 0.94956 0.0
H1275 H 0.21631 0.63074 0.96385 0.0
H1276 H 0.22129 0.65413 0.00828 0.0
H1277 H 0.12488 0.66314 0.8818 0.0
H1278 H 0.09981 0.65141 0.91882 0.0
H1279 H 0.12248 0.62954 0.89318 0.0
C1280 C 0.6564 0.81684 0.17985 0.0
C1281 C 0.63066 0.81548 0.19434 0.0
C1282 C 0.66252 0.82278 0.13443 0.0
C1283 C 0.64243 0.82778 0.103 0.0
C1284 C 0.61643 0.82533 0.11693 0.0
C1285 C 0.61086 0.81908 0.16238 0.0
C1286 C 0.69049 0.82492 0.12068 0.0
C1287 C 0.59445 0.83073 0.08451 0.0
C1288 C 0.65519 0.87513 0.00779 0.0
C1289 C 0.65728 0.85902 0.96958 0.0
C1290 C 0.65072 0.86511 0.05137 0.0
C1291 C 0.64847 0.83826 0.05712 0.0
C1292 C 0.65117 0.82179 0.01902 0.0
C1293 C 0.65547 0.83238 0.97558 0.0
C1294 C 0.6479 0.88336 0.09115 0.0
C1295 C 0.6492 0.79305 0.0241 0.0
H1296 H 0.67183 0.8139 0.20424 0.0
H1297 H 0.59091 0.81809 0.17326 0.0
H1298 H 0.69402 0.81439 0.0884 0.0
H1299 H 0.69537 0.84535 0.11452 0.0
H1300 H 0.70366 0.81732 0.14734 0.0
H1301 H 0.57542 0.8258 0.09949 0.0
H1302 H 0.59439 0.85139 0.07544 0.0
H1303 H 0.59696 0.81975 0.05241 0.0
H1304 H 0.65668 0.89574 0.00368 0.0
H1305 H 0.65724 0.81979 0.94633 0.0
H1306 H 0.66212 0.87859 0.11811 0.0
H1307 H 0.62843 0.88134 0.10639 0.0
H1308 H 0.65071 0.9037 0.08102 0.0
H1309 H 0.66305 0.7862 0.05025 0.0
H1310 H 0.65309 0.78283 0.99156 0.0
H1311 H 0.62961 0.7878 0.03603 0.0
C1312 C 0.81819 0.39192 0.83689 0.0
C1313 C 0.81499 0.3717 0.8058 0.0
C1314 C 0.8246 0.38717 0.88256 0.0
C1315 C 0.82765 0.36157 0.89767 0.0
C1316 C 0.82309 0.34103 0.86714 0.0
C1317 C 0.81696 0.34634 0.82145 0.0
C1318 C 0.82953 0.40961 0.91396 0.0
C1319 C 0.82589 0.31347 0.88216 0.0
C1320 C 0.87527 0.35101 0.99374 0.0
C1321 C 0.85904 0.34886 0.03189 0.0
C1322 C 0.86523 0.35486 0.94995 0.0
C1323 C 0.83822 0.35646 0.94391 0.0
C1324 C 0.82164 0.35392 0.98202 0.0
C1325 C 0.83226 0.35022 0.02566 0.0
C1326 C 0.8836 0.35756 0.9102 0.0
C1327 C 0.79273 0.35527 0.97667 0.0
H1328 H 0.81674 0.41159 0.82516 0.0
H1329 H 0.81437 0.33059 0.79775 0.0
H1330 H 0.8185 0.40737 0.94612 0.0
H1331 H 0.85027 0.41022 0.92312 0.0
H1332 H 0.82421 0.42823 0.89807 0.0
H1333 H 0.81867 0.29981 0.85603 0.0
H1334 H 0.84651 0.3092 0.88874 0.0
H1335 H 0.81529 0.31016 0.91448 0.0
H1336 H 0.896 0.34989 0.99803 0.0
H1337 H 0.81957 0.34841 0.05485 0.0
H1338 H 0.88113 0.37667 0.89407 0.0
H1339 H 0.87923 0.34293 0.88385 0.0
H1340 H 0.90408 0.3554 0.9206 0.0
H1341 H 0.78711 0.37437 0.96329 0.0
H1342 H 0.78247 0.35195 0.00941 0.0
H1343 H 0.78617 0.34078 0.95151 0.0
C1344 C 0.34848 0.12591 0.00433 0.0
C1345 C 0.3459 0.14207 0.96626 0.0
C1346 C 0.35336 0.13586 0.04787 0.0
C1347 C 0.35556 0.16271 0.05377 0.0
C1348 C 0.35258 0.17923 0.01576 0.0
C1349 C 0.34785 0.1687 0.97238 0.0
C1350 C 0.35643 0.11756 0.08752 0.0
C1351 C 0.35451 0.20797 0.02092 0.0
C1352 C 0.34666 0.1843 0.1763 0.0
C1353 C 0.37228 0.18605 0.19141 0.0
C1354 C 0.34092 0.1781 0.13083 0.0
C1355 C 0.36126 0.17322 0.09987 0.0
C1356 C 0.38714 0.17604 0.11438 0.0
C1357 C 0.39234 0.18256 0.15992 0.0
C1358 C 0.31307 0.17558 0.11654 0.0
C1359 C 0.40938 0.17081 0.08249 0.0
H1360 H 0.34694 0.10531 0.00015 0.0
H1361 H 0.34576 0.18135 0.94327 0.0
H1362 H 0.37584 0.11985 0.1029 0.0
H1363 H 0.34209 0.12205 0.11442 0.0
H1364 H 0.35395 0.0972 0.07723 0.0
H1365 H 0.35103 0.2182 0.98826 0.0
H1366 H 0.34032 0.21479 0.04649 0.0
H1367 H 0.37394 0.21322 0.03369 0.0
H1368 H 0.33103 0.18714 0.2003 0.0
H1369 H 0.41219 0.18378 0.17129 0.0
H1370 H 0.30854 0.15511 0.11003 0.0
H1371 H 0.30957 0.18619 0.08432 0.0
H1372 H 0.29962 0.18287 0.14301 0.0
H1373 H 0.40975 0.15011 0.07364 0.0
H1374 H 0.42825 0.17601 0.09782 0.0
H1375 H 0.40694 0.18165 0.05022 0.0
C1376 C 0.62632 0.84754 0.50714 0.0
C1377 C 0.64267 0.8455 0.46913 0.0
C1378 C 0.63617 0.85206 0.55087 0.0
C1379 C 0.66312 0.85444 0.557 0.0
C1380 C 0.67984 0.85187 0.5191 0.0
C1381 C 0.66941 0.8475 0.47551 0.0
C1382 C 0.61765 0.85474 0.5904 0.0
C1383 C 0.70869 0.85401 0.52455 0.0
C1384 C 0.68207 0.89188 0.66255 0.0
C1385 C 0.68585 0.87218 0.69448 0.0
C1386 C 0.67577 0.88634 0.61709 0.0
C1387 C 0.67344 0.86047 0.60308 0.0
C1388 C 0.67855 0.84048 0.6345 0.0
C1389 C 0.68455 0.84657 0.67993 0.0
C1390 C 0.67026 0.90821 0.58471 0.0
C1391 C 0.67652 0.81266 0.62069 0.0
H1392 H 0.60563 0.84591 0.50275 0.0
H1393 H 0.6822 0.84578 0.44644 0.0
H1394 H 0.62243 0.84062 0.61743 0.0
H1395 H 0.61948 0.87412 0.60567 0.0
H1396 H 0.59727 0.8518 0.58001 0.0
H1397 H 0.71911 0.85033 0.4921 0.0
H1398 H 0.71379 0.87349 0.5368 0.0
H1399 H 0.71556 0.84017 0.55062 0.0
H1400 H 0.68298 0.91173 0.67344 0.0
H1401 H 0.6876 0.83122 0.70428 0.0
H1402 H 0.64952 0.9081 0.5754 0.0
H1403 H 0.68143 0.90585 0.55274 0.0
H1404 H 0.67498 0.92717 0.59984 0.0
H1405 H 0.65604 0.80776 0.6142 0.0
H1406 H 0.68407 0.79955 0.64743 0.0
H1407 H 0.68727 0.80919 0.58856 0.0
C1408 C 0.84682 0.3727 0.49286 0.0
C1409 C 0.84461 0.35658 0.53105 0.0
C1410 C 0.85162 0.36275 0.44938 0.0
C1411 C 0.85407 0.33592 0.44362 0.0
C1412 C 0.85132 0.31941 0.48169 0.0
C1413 C 0.8467 0.32996 0.52509 0.0
C1414 C 0.85447 0.38106 0.40968 0.0
C1415 C 0.85349 0.29069 0.47658 0.0
C1416 C 0.84593 0.31582 0.32039 0.0
C1417 C 0.87162 0.315 0.30551 0.0
C1418 C 0.83992 0.32088 0.36616 0.0
C1419 C 0.86007 0.32556 0.39762 0.0
C1420 C 0.88605 0.32345 0.38333 0.0
C1421 C 0.89152 0.31805 0.33747 0.0
C1422 C 0.81198 0.32264 0.38024 0.0
C1423 C 0.90808 0.32853 0.41576 0.0
H1424 H 0.84513 0.3933 0.49691 0.0
H1425 H 0.84487 0.31736 0.55432 0.0
H1426 H 0.87389 0.37894 0.39427 0.0
H1427 H 0.84014 0.37645 0.38282 0.0
H1428 H 0.85183 0.4014 0.41994 0.0
H1429 H 0.84976 0.28044 0.50914 0.0
H1430 H 0.83962 0.28377 0.45054 0.0
H1431 H 0.87309 0.28557 0.46446 0.0
H1432 H 0.83044 0.31322 0.296 0.0
H1433 H 0.91143 0.31745 0.32629 0.0
H1434 H 0.80686 0.34299 0.38656 0.0
H1435 H 0.80866 0.31199 0.41248 0.0
H1436 H 0.79882 0.31495 0.35364 0.0
H1437 H 0.90835 0.34919 0.42492 0.0
H1438 H 0.92705 0.32346 0.40066 0.0
H1439 H 0.9055 0.31752 0.4478 0.0
C1440 C 0.31896 0.10889 0.65952 0.0
C1441 C 0.31589 0.12888 0.69114 0.0
C1442 C 0.32526 0.11397 0.61389 0.0
C1443 C 0.32834 0.13968 0.59933 0.0
C1444 C 0.32396 0.15998 0.63045 0.0
C1445 C 0.31794 0.15435 0.67607 0.0
C1446 C 0.33 0.09176 0.58189 0.0
C1447 C 0.32679 0.18765 0.61608 0.0
C1448 C 0.37572 0.15094 0.50308 0.0
C1449 C 0.3594 0.15346 0.46509 0.0
C1450 C 0.36578 0.1467 0.54684 0.0
C1451 C 0.33878 0.14512 0.55307 0.0
C1452 C 0.32212 0.14803 0.51514 0.0
C1453 C 0.33263 0.15208 0.47149 0.0
C1454 C 0.38426 0.14358 0.58634 0.0
C1455 C 0.29322 0.14672 0.52067 0.0
H1456 H 0.31746 0.08914 0.67078 0.0
H1457 H 0.31544 0.16992 0.70016 0.0
H1458 H 0.31888 0.0943 0.5499 0.0
H1459 H 0.35072 0.09114 0.57253 0.0
H1460 H 0.32467 0.07305 0.59738 0.0
H1461 H 0.31974 0.20113 0.64264 0.0
H1462 H 0.3474 0.19189 0.60933 0.0
H1463 H 0.31606 0.19126 0.58398 0.0
H1464 H 0.39643 0.15205 0.49869 0.0
H1465 H 0.31988 0.15417 0.44243 0.0
H1466 H 0.3817 0.12439 0.60208 0.0
H1467 H 0.38009 0.15807 0.61304 0.0
H1468 H 0.40472 0.14564 0.57577 0.0
H1469 H 0.28759 0.12754 0.53364 0.0
H1470 H 0.28289 0.15032 0.4881 0.0
H1471 H 0.28677 0.16104 0.54622 0.0
C1472 C 0.15018 0.62794 0.49322 0.0
C1473 C 0.15216 0.64414 0.53132 0.0
C1474 C 0.14655 0.63789 0.44937 0.0
C1475 C 0.14502 0.66476 0.44326 0.0
C1476 C 0.14748 0.68131 0.48129 0.0
C1477 C 0.15094 0.67079 0.525 0.0
C1478 C 0.14392 0.61957 0.40965 0.0
C1479 C 0.14621 0.71008 0.47582 0.0
C1480 C 0.15485 0.68539 0.32055 0.0
C1481 C 0.12931 0.6871 0.30512 0.0
C1482 C 0.16033 0.67962 0.3663 0.0
C1483 C 0.13978 0.67519 0.39707 0.0
C1484 C 0.114 0.67805 0.38218 0.0
C1485 C 0.10908 0.68408 0.33645 0.0
C1486 C 0.18808 0.677 0.38113 0.0
C1487 C 0.09155 0.67325 0.41386 0.0
H1488 H 0.15122 0.60732 0.49759 0.0
H1489 H 0.15267 0.68344 0.55418 0.0
H1490 H 0.12471 0.62193 0.39354 0.0
H1491 H 0.1586 0.62395 0.38328 0.0
H1492 H 0.14617 0.59921 0.42011 0.0
H1493 H 0.14972 0.72032 0.50845 0.0
H1494 H 0.16067 0.71652 0.45041 0.0
H1495 H 0.12696 0.71571 0.46269 0.0
H1496 H 0.17059 0.68786 0.29665 0.0
H1497 H 0.08927 0.68537 0.3249 0.0
H1498 H 0.19252 0.6565 0.3876 0.0
H1499 H 0.19141 0.68754 0.41348 0.0
H1500 H 0.20169 0.6843 0.35493 0.0
H1501 H 0.09096 0.65264 0.42322 0.0
H1502 H 0.07279 0.67849 0.3981 0.0
H1503 H 0.0939 0.68433 0.44588 0.0
C1504 C 0.67572 0.16091 0.53255 0.0
C1505 C 0.64929 0.15733 0.54029 0.0
C1506 C 0.68636 0.1567 0.48904 0.0
C1507 C 0.67008 0.14905 0.45267 0.0
C1508 C 0.64331 0.14619 0.46015 0.0
C1509 C 0.6333 0.15027 0.50381 0.0
C1510 C 0.715 0.15993 0.48213 0.0
C1511 C 0.62518 0.13849 0.42214 0.0
C1512 C 0.68602 0.15687 0.32761 0.0
C1513 C 0.69089 0.1314 0.31463 0.0
C1514 C 0.68091 0.16323 0.37317 0.0
C1515 C 0.68066 0.14366 0.40658 0.0
C1516 C 0.68709 0.11819 0.39422 0.0
C1517 C 0.6921 0.11235 0.34834 0.0
C1518 C 0.6741 0.19061 0.38495 0.0
C1519 C 0.6871 0.0968 0.42895 0.0
H1520 H 0.68813 0.16638 0.56066 0.0
H1521 H 0.61278 0.14786 0.5094 0.0
H1522 H 0.72367 0.14131 0.47213 0.0
H1523 H 0.71874 0.17364 0.45395 0.0
H1524 H 0.72484 0.16695 0.51338 0.0
H1525 H 0.60476 0.13775 0.43347 0.0
H1526 H 0.62667 0.15226 0.3934 0.0
H1527 H 0.63063 0.11932 0.40884 0.0
H1528 H 0.68523 0.1718 0.30191 0.0
H1529 H 0.69602 0.09265 0.33873 0.0
H1530 H 0.68455 0.1969 0.416 0.0
H1531 H 0.65317 0.19193 0.39237 0.0
H1532 H 0.67865 0.20406 0.35669 0.0
H1533 H 0.69796 0.10259 0.45988 0.0
H1534 H 0.69568 0.07888 0.4152 0.0
H1535 H 0.667 0.09269 0.43961 0.0
C1536 C 0.111 0.31957 0.65626 0.0
C1537 C 0.13118 0.3162 0.68757 0.0
C1538 C 0.11602 0.326 0.61062 0.0
C1539 C 0.14184 0.32884 0.59583 0.0
C1540 C 0.16231 0.32409 0.62664 0.0
C1541 C 0.15673 0.31799 0.67222 0.0
C1542 C 0.09366 0.33115 0.57893 0.0
C1543 C 0.1901 0.32662 0.61203 0.0
C1544 C 0.15495 0.33331 0.46824 0.0
C1545 C 0.15698 0.35993 0.46212 0.0
C1546 C 0.15026 0.3228 0.51165 0.0
C1547 C 0.14737 0.33932 0.54965 0.0
C1548 C 0.14956 0.36616 0.54372 0.0
C1549 C 0.15442 0.3761 0.50018 0.0
C1550 C 0.14835 0.29406 0.51687 0.0
C1551 C 0.14654 0.38448 0.58335 0.0
H1552 H 0.09119 0.31831 0.66783 0.0
H1553 H 0.17245 0.31523 0.69609 0.0
H1554 H 0.09321 0.35183 0.57002 0.0
H1555 H 0.09602 0.32029 0.54667 0.0
H1556 H 0.07485 0.32591 0.59447 0.0
H1557 H 0.20366 0.3194 0.63842 0.0
H1558 H 0.1935 0.31594 0.57986 0.0
H1559 H 0.19458 0.34708 0.60532 0.0
H1560 H 0.15703 0.32067 0.43913 0.0
H1561 H 0.15599 0.3967 0.496 0.0
H1562 H 0.12901 0.2888 0.53002 0.0
H1563 H 0.16271 0.28725 0.54218 0.0
H1564 H 0.15162 0.28382 0.48415 0.0
H1565 H 0.1272 0.38211 0.59896 0.0
H1566 H 0.14887 0.40485 0.57297 0.0
H1567 H 0.16101 0.3801 0.6101 0.0
C1568 C 0.37459 0.84784 0.49689 0.0
C1569 C 0.35836 0.84557 0.53503 0.0
C1570 C 0.3646 0.85273 0.45336 0.0
C1571 C 0.33764 0.85524 0.44751 0.0
C1572 C 0.32106 0.85262 0.4856 0.0
C1573 C 0.33162 0.8479 0.529 0.0
C1574 C 0.38299 0.85544 0.41364 0.0
C1575 C 0.29219 0.85488 0.48049 0.0
C1576 C 0.31808 0.89157 0.34084 0.0
C1577 C 0.31437 0.87151 0.30964 0.0
C1578 C 0.32456 0.88654 0.38646 0.0
C1579 C 0.32712 0.86082 0.40135 0.0
C1580 C 0.32203 0.84049 0.37065 0.0
C1581 C 0.31588 0.84607 0.32509 0.0
C1582 C 0.33007 0.90875 0.41804 0.0
C1583 C 0.32425 0.81282 0.38535 0.0
H1584 H 0.39527 0.84603 0.50101 0.0
H1585 H 0.31892 0.84604 0.55817 0.0
H1586 H 0.37836 0.84108 0.38696 0.0
H1587 H 0.38084 0.8747 0.39795 0.0
H1588 H 0.40344 0.85286 0.42394 0.0
H1589 H 0.28191 0.85178 0.51325 0.0
H1590 H 0.28713 0.87418 0.4673 0.0
H1591 H 0.28514 0.84067 0.45524 0.0
H1592 H 0.31703 0.91128 0.3292 0.0
H1593 H 0.31286 0.83044 0.3013 0.0
H1594 H 0.35087 0.90893 0.42686 0.0
H1595 H 0.31916 0.90659 0.45035 0.0
H1596 H 0.32502 0.92752 0.40243 0.0
H1597 H 0.34477 0.80811 0.39198 0.0
H1598 H 0.3168 0.7994 0.35905 0.0
H1599 H 0.31354 0.8096 0.41759 0.0
C1600 C 0.84472 0.67072 0.66905 0.0
C1601 C 0.86478 0.68613 0.6857 0.0
C1602 C 0.84056 0.66793 0.62224 0.0
C1603 C 0.85693 0.68082 0.59123 0.0
C1604 C 0.87613 0.69775 0.60769 0.0
C1605 C 0.87984 0.70024 0.65495 0.0
C1606 C 0.8198 0.64973 0.6061 0.0
C1607 C 0.89381 0.71191 0.57551 0.0
C1608 C 0.86706 0.64161 0.48498 0.0
C1609 C 0.84913 0.6525 0.45484 0.0
C1610 C 0.87082 0.65169 0.5286 0.0
C1611 C 0.85631 0.67326 0.54255 0.0
C1612 C 0.83916 0.68525 0.51161 0.0
C1613 C 0.83571 0.67466 0.46796 0.0
C1614 C 0.88929 0.63828 0.56062 0.0
C1615 C 0.82356 0.70843 0.52533 0.0
H1616 H 0.83266 0.6601 0.69263 0.0
H1617 H 0.89526 0.71232 0.66766 0.0
H1618 H 0.80784 0.65886 0.57927 0.0
H1619 H 0.82887 0.63244 0.5909 0.0
H1620 H 0.80697 0.64346 0.63432 0.0
H1621 H 0.90451 0.72752 0.59304 0.0
H1622 H 0.90804 0.69828 0.56097 0.0
H1623 H 0.88277 0.72022 0.54666 0.0
H1624 H 0.87778 0.62466 0.47502 0.0
H1625 H 0.82195 0.68328 0.44472 0.0
H1626 H 0.87834 0.62928 0.58892 0.0
H1627 H 0.90284 0.65228 0.57596 0.0
H1628 H 0.90067 0.62312 0.54321 0.0
H1629 H 0.80823 0.70252 0.54951 0.0
H1630 H 0.81431 0.71782 0.4955 0.0
H1631 H 0.83588 0.72267 0.54311 0.0
C1632 C 0.31716 0.24208 0.33867 0.0
C1633 C 0.34374 0.24594 0.34371 0.0
C1634 C 0.29991 0.26277 0.33899 0.0
C1635 C 0.30935 0.28793 0.34619 0.0
C1636 C 0.33614 0.29188 0.35278 0.0
C1637 C 0.35313 0.27084 0.3505 0.0
C1638 C 0.27165 0.25772 0.33029 0.0
C1639 C 0.3468 0.31828 0.36213 0.0
C1640 C 0.26629 0.34118 0.30138 0.0
C1641 C 0.25085 0.34634 0.3395 0.0
C1642 C 0.28603 0.32279 0.30346 0.0
C1643 C 0.29103 0.30995 0.34514 0.0
C1644 C 0.27651 0.31635 0.38448 0.0
C1645 C 0.25619 0.33408 0.38094 0.0
C1646 C 0.30035 0.31593 0.26031 0.0
C1647 C 0.28181 0.30377 0.42991 0.0
H1648 H 0.30989 0.22287 0.33277 0.0
H1649 H 0.37369 0.27379 0.35452 0.0
H1650 H 0.26002 0.2641 0.35992 0.0
H1651 H 0.26509 0.2689 0.30022 0.0
H1652 H 0.26758 0.2371 0.32402 0.0
H1653 H 0.36775 0.31785 0.36991 0.0
H1654 H 0.34366 0.33084 0.33211 0.0
H1655 H 0.33647 0.32711 0.39133 0.0
H1656 H 0.26195 0.35047 0.26917 0.0
H1657 H 0.24431 0.33821 0.41047 0.0
H1658 H 0.29579 0.29585 0.25061 0.0
H1659 H 0.32146 0.31702 0.26589 0.0
H1660 H 0.29519 0.32869 0.23136 0.0
H1661 H 0.27547 0.28347 0.42889 0.0
H1662 H 0.27155 0.31353 0.45829 0.0
H1663 H 0.30279 0.30385 0.43727 0.0
C1664 C 0.24058 0.68604 0.65831 0.0
C1665 C 0.24442 0.65969 0.65192 0.0
C1666 C 0.26135 0.7032 0.65808 0.0
C1667 C 0.28654 0.6939 0.64957 0.0
C1668 C 0.29046 0.66736 0.64161 0.0
C1669 C 0.26935 0.65043 0.64386 0.0
C1670 C 0.25637 0.73118 0.66826 0.0
C1671 C 0.31689 0.6569 0.63085 0.0
C1672 C 0.33225 0.74746 0.61587 0.0
C1673 C 0.34487 0.75228 0.65722 0.0
C1674 C 0.31458 0.72717 0.61189 0.0
C1675 C 0.30865 0.71211 0.65073 0.0
C1676 C 0.32191 0.71652 0.69225 0.0
C1677 C 0.34021 0.73629 0.69473 0.0
C1678 C 0.30152 0.72251 0.56663 0.0
C1679 C 0.31555 0.70155 0.73489 0.0
H1680 H 0.22133 0.69317 0.66522 0.0
H1681 H 0.27227 0.63003 0.63881 0.0
H1682 H 0.26793 0.73726 0.69822 0.0
H1683 H 0.26244 0.74319 0.63896 0.0
H1684 H 0.23572 0.73513 0.67545 0.0
H1685 H 0.31637 0.63617 0.62213 0.0
H1686 H 0.32543 0.66761 0.60183 0.0
H1687 H 0.32984 0.65958 0.66055 0.0
H1688 H 0.33602 0.75975 0.58678 0.0
H1689 H 0.3498 0.7402 0.72686 0.0
H1690 H 0.28112 0.72878 0.56855 0.0
H1691 H 0.30155 0.70174 0.55835 0.0
H1692 H 0.31103 0.73314 0.53842 0.0
H1693 H 0.2955 0.70593 0.7456 0.0
H1694 H 0.32873 0.70621 0.76359 0.0
H1695 H 0.31658 0.68065 0.7282 0.0
C1696 C 0.67418 0.75142 0.38117 0.0
C1697 C 0.65492 0.75233 0.34763 0.0
C1698 C 0.69184 0.73103 0.38286 0.0
C1699 C 0.69045 0.71129 0.34978 0.0
C1700 C 0.67005 0.71127 0.31768 0.0
C1701 C 0.65241 0.7317 0.3172 0.0
C1702 C 0.71302 0.73154 0.41819 0.0
C1703 C 0.668 0.69074 0.28154 0.0
C1704 C 0.75461 0.68378 0.31247 0.0
C1705 C 0.75488 0.65973 0.33396 0.0
C1706 C 0.73361 0.70043 0.317 0.0
C1707 C 0.71238 0.69312 0.34434 0.0
C1708 C 0.71241 0.66886 0.36618 0.0
C1709 C 0.73362 0.6523 0.3604 0.0
C1710 C 0.73424 0.72593 0.29247 0.0
C1711 C 0.69024 0.66061 0.39609 0.0
H1712 H 0.67602 0.76711 0.40523 0.0
H1713 H 0.63754 0.73218 0.29124 0.0
H1714 H 0.7154 0.71235 0.434 0.0
H1715 H 0.73155 0.73657 0.40154 0.0
H1716 H 0.70915 0.7458 0.4455 0.0
H1717 H 0.64927 0.6915 0.2632 0.0
H1718 H 0.68372 0.69332 0.25628 0.0
H1719 H 0.67032 0.67141 0.29677 0.0
H1720 H 0.77084 0.68959 0.29159 0.0
H1721 H 0.73379 0.63379 0.37724 0.0
H1722 H 0.73342 0.74182 0.31759 0.0
H1723 H 0.71714 0.7278 0.26997 0.0
H1724 H 0.75186 0.72834 0.27139 0.0
H1725 H 0.68806 0.67425 0.42489 0.0
H1726 H 0.69302 0.64101 0.41013 0.0
H1727 H 0.67198 0.66104 0.37644 0.0
C1728 C 0.73136 0.34818 0.68691 0.0
C1729 C 0.75109 0.34658 0.65428 0.0
C1730 C 0.71119 0.33018 0.68767 0.0
C1731 C 0.71051 0.3104 0.65457 0.0
C1732 C 0.72931 0.30989 0.61957 0.0
C1733 C 0.74949 0.32783 0.62008 0.0
C1734 C 0.6917 0.33128 0.72586 0.0
C1735 C 0.72904 0.28943 0.58314 0.0
C1736 C 0.68369 0.24552 0.68889 0.0
C1737 C 0.65908 0.24575 0.66903 0.0
C1738 C 0.70029 0.2666 0.68499 0.0
C1739 C 0.69235 0.28844 0.65995 0.0
C1740 C 0.66752 0.28889 0.63979 0.0
C1741 C 0.65106 0.26759 0.64489 0.0
C1742 C 0.72645 0.26542 0.70761 0.0
C1743 C 0.65853 0.31168 0.61233 0.0
H1744 H 0.73247 0.36256 0.71352 0.0
H1745 H 0.76451 0.32666 0.59445 0.0
H1746 H 0.67185 0.32925 0.71231 0.0
H1747 H 0.69508 0.31505 0.74963 0.0
H1748 H 0.69297 0.34946 0.74548 0.0
H1749 H 0.74273 0.29374 0.55502 0.0
H1750 H 0.73445 0.27071 0.5984 0.0
H1751 H 0.70941 0.28732 0.5686 0.0
H1752 H 0.68999 0.22884 0.70797 0.0
H1753 H 0.63212 0.26786 0.62929 0.0
H1754 H 0.72887 0.28192 0.73112 0.0
H1755 H 0.74183 0.26677 0.68145 0.0
H1756 H 0.7293 0.24741 0.72726 0.0
H1757 H 0.6594 0.32933 0.63339 0.0
H1758 H 0.63853 0.30925 0.5995 0.0
H1759 H 0.67156 0.31463 0.58277 0.0
C1760 C 0.75156 0.8311 0.88229 0.0
C1761 C 0.75029 0.8498 0.84794 0.0
C1762 C 0.77184 0.81331 0.88371 0.0
C1763 C 0.79115 0.81403 0.84963 0.0
C1764 C 0.79101 0.83402 0.8169 0.0
C1765 C 0.77063 0.85179 0.81661 0.0
C1766 C 0.77148 0.79258 0.91968 0.0
C1767 C 0.81116 0.83542 0.77985 0.0
C1768 C 0.84909 0.76923 0.8596 0.0
C1769 C 0.84056 0.74801 0.83434 0.0
C1770 C 0.83333 0.79104 0.86492 0.0
C1771 C 0.80874 0.79169 0.84386 0.0
C1772 C 0.80034 0.77048 0.81764 0.0
C1773 C 0.81622 0.74891 0.81354 0.0
C1774 C 0.84275 0.81315 0.89361 0.0
C1775 C 0.77443 0.77047 0.79404 0.0
H1776 H 0.7361 0.82968 0.90705 0.0
H1777 H 0.76986 0.86624 0.79004 0.0
H1778 H 0.76572 0.77412 0.90386 0.0
H1779 H 0.79097 0.7899 0.93455 0.0
H1780 H 0.75771 0.79699 0.94762 0.0
H1781 H 0.81069 0.85408 0.76156 0.0
H1782 H 0.83073 0.83251 0.79418 0.0
H1783 H 0.80769 0.81988 0.75473 0.0
H1784 H 0.86785 0.76861 0.87584 0.0
H1785 H 0.80958 0.73273 0.7935 0.0
H1786 H 0.82972 0.81588 0.92323 0.0
H1787 H 0.84231 0.83118 0.87351 0.0
H1788 H 0.86266 0.81005 0.90643 0.0
H1789 H 0.75879 0.77197 0.8197 0.0
H1790 H 0.77123 0.75285 0.77351 0.0
H1791 H 0.77282 0.78735 0.77116 0.0
C1792 C 0.75662 0.16805 0.11923 0.0
C1793 C 0.7516 0.15607 0.16105 0.0
C1794 C 0.77695 0.18568 0.11483 0.0
C1795 C 0.7918 0.19226 0.15368 0.0
C1796 C 0.78717 0.17964 0.1957 0.0
C1797 C 0.7674 0.16134 0.19864 0.0
C1798 C 0.78185 0.19802 0.06906 0.0
C1799 C 0.80189 0.1867 0.23834 0.0
C1800 C 0.8536 0.23164 0.14653 0.0
C1801 C 0.8441 0.2565 0.15336 0.0
C1802 C 0.83672 0.21052 0.14473 0.0
C1803 C 0.80996 0.21436 0.15187 0.0
C1804 C 0.80041 0.23948 0.15904 0.0
C1805 C 0.81753 0.26025 0.15886 0.0
C1806 C 0.84747 0.18415 0.13536 0.0
C1807 C 0.77219 0.2444 0.16831 0.0
H1808 H 0.74445 0.16381 0.09011 0.0
H1809 H 0.76332 0.15226 0.23112 0.0
H1810 H 0.77536 0.21829 0.06985 0.0
H1811 H 0.80278 0.19804 0.06125 0.0
H1812 H 0.77145 0.18803 0.04109 0.0
H1813 H 0.79708 0.174 0.26755 0.0
H1814 H 0.82294 0.1857 0.23214 0.0
H1815 H 0.79731 0.20678 0.24799 0.0
H1816 H 0.87415 0.22879 0.14216 0.0
H1817 H 0.8102 0.27944 0.1648 0.0
H1818 H 0.8369 0.17512 0.10662 0.0
H1819 H 0.84474 0.17169 0.16564 0.0
H1820 H 0.86833 0.18468 0.1269 0.0
H1821 H 0.76037 0.23784 0.13904 0.0
H1822 H 0.76803 0.26503 0.17441 0.0
H1823 H 0.76592 0.23332 0.19867 0.0
C1824 C 0.18717 0.25936 0.83622 0.0
C1825 C 0.1605 0.25585 0.84044 0.0
C1826 C 0.20413 0.23845 0.83755 0.0
C1827 C 0.19428 0.21346 0.84496 0.0
C1828 C 0.1674 0.20989 0.85078 0.0
C1829 C 0.15073 0.23111 0.8475 0.0
C1830 C 0.23254 0.24305 0.8297 0.0
C1831 C 0.15628 0.18369 0.86036 0.0
C1832 C 0.23701 0.15929 0.80284 0.0
C1833 C 0.25196 0.1542 0.8416 0.0
C1834 C 0.21751 0.17796 0.80382 0.0
C1835 C 0.21227 0.19117 0.84502 0.0
C1836 C 0.2262 0.18481 0.88504 0.0
C1837 C 0.24628 0.16677 0.88261 0.0
C1838 C 0.20377 0.18473 0.76003 0.0
C1839 C 0.22061 0.19779 0.92998 0.0
H1840 H 0.19472 0.27845 0.83016 0.0
H1841 H 0.13009 0.22844 0.85094 0.0
H1842 H 0.24377 0.23669 0.85983 0.0
H1843 H 0.23925 0.23161 0.80008 0.0
H1844 H 0.23696 0.26358 0.82318 0.0
H1845 H 0.13526 0.18445 0.86742 0.0
H1846 H 0.15957 0.17088 0.83073 0.0
H1847 H 0.16618 0.17492 0.89009 0.0
H1848 H 0.24163 0.14979 0.77096 0.0
H1849 H 0.25781 0.16273 0.91263 0.0
H1850 H 0.20881 0.20464 0.74997 0.0
H1851 H 0.18259 0.18409 0.76493 0.0
H1852 H 0.20898 0.17164 0.7316 0.0
H1853 H 0.22733 0.21797 0.92874 0.0
H1854 H 0.23036 0.18805 0.95895 0.0
H1855 H 0.19954 0.19814 0.93656 0.0
C1856 C 0.16551 0.75663 0.11374 0.0
C1857 C 0.15222 0.75114 0.15415 0.0
C1858 C 0.18309 0.77707 0.11162 0.0
C1859 C 0.18823 0.79163 0.1514 0.0
C1860 C 0.17407 0.78674 0.1918 0.0
C1861 C 0.15589 0.76679 0.19244 0.0
C1862 C 0.19712 0.78223 0.06745 0.0
C1863 C 0.1795 0.8012 0.23538 0.0
C1864 C 0.25653 0.81655 0.16368 0.0
C1865 C 0.25325 0.84298 0.15743 0.0
C1866 C 0.23547 0.79977 0.16216 0.0
C1867 C 0.21058 0.80954 0.1525 0.0
C1868 C 0.20724 0.83619 0.14492 0.0
C1869 C 0.2286 0.85272 0.14843 0.0
C1870 C 0.23982 0.77163 0.1719 0.0
C1871 C 0.18118 0.84716 0.13296 0.0
H1872 H 0.16255 0.74456 0.08407 0.0
H1873 H 0.14582 0.76235 0.22387 0.0
H1874 H 0.1976 0.80312 0.06019 0.0
H1875 H 0.21736 0.77556 0.07034 0.0
H1876 H 0.188 0.77221 0.03817 0.0
H1877 H 0.16535 0.79664 0.26263 0.0
H1878 H 0.19906 0.79616 0.24786 0.0
H1879 H 0.17925 0.82217 0.22922 0.0
H1880 H 0.27556 0.80905 0.17125 0.0
H1881 H 0.22614 0.87318 0.14345 0.0
H1882 H 0.23437 0.76 0.14175 0.0
H1883 H 0.22742 0.7654 0.20069 0.0
H1884 H 0.26021 0.76734 0.18063 0.0
H1885 H 0.17324 0.83715 0.10265 0.0
H1886 H 0.18209 0.86805 0.12562 0.0
H1887 H 0.1675 0.84399 0.16146 0.0
loop_
_geom_bond_atom_site_label_1
_geom_bond_atom_site_label_2
_geom_bond_distance
_geom_bond_site_symmetry_2
_ccdc_geom_bond_type
Fe0 O2 1.918 . S
Fe0 O5 1.997 . S
Fe0 O6 2.002 . S
Fe0 O11 1.976 . S
Fe0 O14 1.996 . S
Fe1 O2 1.918 . S
Fe1 O9 1.997 . S
Fe1 O12 1.996 . S
Fe1 O16 1.976 . S
Fe1 O19 2.002 . S
O2 Fe0 1.918 . S
O2 Fe1 1.918 . S
O2 Fe3 1.918 . S
Fe3 O2 1.918 . S
Fe3 O4 2.002 . S
Fe3 O13 1.976 . S
Fe3 O17 1.996 . S
Fe3 O20 1.997 . S
O4 Fe3 2.002 . S
O4 C21 1.295 . S
O5 Fe0 1.997 . S
O5 C21 1.235 . S
O6 Fe0 2.002 . S
O6 C7 1.295 . S
C7 O6 1.295 . S
C7 O9 1.235 . S
C8 O13 1.287 . S
C8 O14 1.255 . S
O9 Fe1 1.997 . S
O9 C7 1.235 . S
C10 O16 1.287 . S
C10 O17 1.255 . S
O11 Fe0 1.976 . S
O11 C18 1.287 . S
O12 Fe1 1.996 . S
O12 C18 1.255 . S
O13 Fe3 1.976 . S
O13 C8 1.287 . S
O14 Fe0 1.996 . S
O14 C8 1.255 . S
C15 O19 1.295 . S
C15 O20 1.235 . S
O16 Fe1 1.976 . S
O16 C10 1.287 . S
O17 Fe3 1.996 . S
O17 C10 1.255 . S
C18 O11 1.287 . S
C18 O12 1.255 . S
O19 Fe1 2.002 . S
O19 C15 1.295 . S
O20 Fe3 1.997 . S
O20 C15 1.235 . S
C21 O4 1.295 . S
C21 O5 1.235 . S
Fe22 O24 1.918 . S
Fe22 O27 1.997 . S
Fe22 O28 2.002 . S
Fe22 O33 1.976 . S
Fe22 O36 1.996 . S
Fe23 O24 1.918 . S
Fe23 O31 1.997 . S
Fe23 O34 1.996 . S
Fe23 O38 1.976 . S
Fe23 O41 2.002 . S
O24 Fe22 1.918 . S
O24 Fe23 1.918 . S
O24 Fe25 1.918 . S
Fe25 O24 1.918 . S
Fe25 O26 2.002 . S
Fe25 O35 1.976 . S
Fe25 O39 1.996 . S
Fe25 O42 1.997 . S
O26 Fe25 2.002 . S
O26 C43 1.295 . S
O27 Fe22 1.997 . S
O27 C43 1.235 . S
O28 Fe22 2.002 . S
O28 C29 1.295 . S
C29 O28 1.295 . S
C29 O31 1.235 . S
C30 O35 1.287 . S
C30 O36 1.255 . S
O31 Fe23 1.997 . S
O31 C29 1.235 . S
C32 O38 1.287 . S
C32 O39 1.255 . S
O33 Fe22 1.976 . S
O33 C40 1.287 . S
O34 Fe23 1.996 . S
O34 C40 1.255 . S
O35 Fe25 1.976 . S
O35 C30 1.287 . S
O36 Fe22 1.996 . S
O36 C30 1.255 . S
C37 O41 1.295 . S
C37 O42 1.235 . S
O38 Fe23 1.976 . S
O38 C32 1.287 . S
O39 Fe25 1.996 . S
O39 C32 1.255 . S
C40 O33 1.287 . S
C40 O34 1.255 . S
O41 Fe23 2.002 . S
O41 C37 1.295 . S
O42 Fe25 1.997 . S
O42 C37 1.235 . S
C43 O26 1.295 . S
C43 O27 1.235 . S
Fe44 O46 1.918 . S
Fe44 O49 1.997 . S
Fe44 O50 2.002 . S
Fe44 O55 1.976 . S
Fe44 O58 1.996 . S
Fe45 O46 1.918 . S
Fe45 O53 1.997 . S
Fe45 O56 1.996 . S
Fe45 O60 1.976 . S
Fe45 O63 2.002 . S
O46 Fe44 1.918 . S
O46 Fe45 1.918 . S
O46 Fe47 1.918 . S
Fe47 O46 1.918 . S
Fe47 O48 2.002 . S
Fe47 O57 1.976 . S
Fe47 O61 1.996 . S
Fe47 O64 1.997 . S
O48 Fe47 2.002 . S
O48 C65 1.295 . S
O49 Fe44 1.997 . S
O49 C65 1.235 . S
O50 Fe44 2.002 . S
O50 C51 1.295 . S
C51 O50 1.295 . S
C51 O53 1.235 . S
C52 O57 1.287 . S
C52 O58 1.255 . S
O53 Fe45 1.997 . S
O53 C51 1.235 . S
C54 O60 1.287 . S
C54 O61 1.255 . S
O55 Fe44 1.976 . S
O55 C62 1.287 . S
O56 Fe45 1.996 . S
O56 C62 1.255 . S
O57 Fe47 1.976 . S
O57 C52 1.287 . S
O58 Fe44 1.996 . S
O58 C52 1.255 . S
C59 O63 1.295 . S
C59 O64 1.235 . S
O60 Fe45 1.976 . S
O60 C54 1.287 . S
O61 Fe47 1.996 . S
O61 C54 1.255 . S
C62 O55 1.287 . S
C62 O56 1.255 . S
O63 Fe45 2.002 . S
O63 C59 1.295 . S
O64 Fe47 1.997 . S
O64 C59 1.235 . S
C65 O48 1.295 . S
C65 O49 1.235 . S
Fe66 O68 1.918 . S
Fe66 O71 1.997 . S
Fe66 O72 2.002 . S
Fe66 O77 1.976 . S
Fe66 O80 1.996 . S
Fe67 O68 1.918 . S
Fe67 O75 1.997 . S
Fe67 O78 1.996 . S
Fe67 O82 1.976 . S
Fe67 O85 2.002 . S
O68 Fe66 1.918 . S
O68 Fe67 1.918 . S
O68 Fe69 1.918 . S
Fe69 O68 1.918 . S
Fe69 O70 2.002 . S
Fe69 O79 1.976 . S
Fe69 O83 1.996 . S
Fe69 O86 1.997 . S
O70 Fe69 2.002 . S
O70 C87 1.295 . S
O71 Fe66 1.997 . S
O71 C87 1.235 . S
O72 Fe66 2.002 . S
O72 C73 1.295 . S
C73 O72 1.295 . S
C73 O75 1.235 . S
C74 O79 1.287 . S
C74 O80 1.255 . S
O75 Fe67 1.997 . S
O75 C73 1.235 . S
C76 O82 1.287 . S
C76 O83 1.255 . S
O77 Fe66 1.976 . S
O77 C84 1.287 . S
O78 Fe67 1.996 . S
O78 C84 1.255 . S
O79 Fe69 1.976 . S
O79 C74 1.287 . S
O80 Fe66 1.996 . S
O80 C74 1.255 . S
C81 O85 1.295 . S
C81 O86 1.235 . S
O82 Fe67 1.976 . S
O82 C76 1.287 . S
O83 Fe69 1.996 . S
O83 C76 1.255 . S
C84 O77 1.287 . S
C84 O78 1.255 . S
O85 Fe67 2.002 . S
O85 C81 1.295 . S
O86 Fe69 1.997 . S
O86 C81 1.235 . S
C87 O70 1.295 . S
C87 O71 1.235 . S
Fe88 O90 1.918 . S
Fe88 O93 1.997 . S
Fe88 O94 2.002 . S
Fe88 O99 1.976 . S
Fe88 O102 1.996 . S
Fe89 O90 1.918 . S
Fe89 O97 1.997 . S
Fe89 O100 1.996 . S
Fe89 O104 1.976 . S
Fe89 O107 2.002 . S
O90 Fe88 1.918 . S
O90 Fe89 1.918 . S
O90 Fe91 1.918 . S
Fe91 O90 1.918 . S
Fe91 O92 2.002 . S
Fe91 O101 1.976 . S
Fe91 O105 1.996 . S
Fe91 O108 1.997 . S
O92 Fe91 2.002 . S
O92 C109 1.295 . S
O93 Fe88 1.997 . S
O93 C109 1.235 . S
O94 Fe88 2.002 . S
O94 C95 1.295 . S
C95 O94 1.295 . S
C95 O97 1.235 . S
C96 O101 1.287 . S
C96 O102 1.255 . S
O97 Fe89 1.997 . S
O97 C95 1.235 . S
C98 O104 1.287 . S
C98 O105 1.255 . S
O99 Fe88 1.976 . S
O99 C106 1.287 . S
O100 Fe89 1.996 . S
O100 C106 1.255 . S
O101 Fe91 1.976 . S
O101 C96 1.287 . S
O102 Fe88 1.996 . S
O102 C96 1.255 . S
C103 O107 1.295 . S
C103 O108 1.235 . S
O104 Fe89 1.976 . S
O104 C98 1.287 . S
O105 Fe91 1.996 . S
O105 C98 1.255 . S
C106 O99 1.287 . S
C106 O100 1.255 . S
O107 Fe89 2.002 . S
O107 C103 1.295 . S
O108 Fe91 1.997 . S
O108 C103 1.235 . S
C109 O92 1.295 . S
C109 O93 1.235 . S
Fe110 O112 1.918 . S
Fe110 O115 1.997 . S
Fe110 O116 2.002 . S
Fe110 O121 1.976 . S
Fe110 O124 1.996 . S
Fe111 O112 1.918 . S
Fe111 O119 1.997 . S
Fe111 O122 1.996 . S
Fe111 O126 1.976 . S
Fe111 O129 2.002 . S
O112 Fe110 1.918 . S
O112 Fe111 1.918 . S
O112 Fe113 1.918 . S
Fe113 O112 1.918 . S
Fe113 O114 2.002 . S
Fe113 O123 1.976 . S
Fe113 O127 1.996 . S
Fe113 O130 1.997 . S
O114 Fe113 2.002 . S
O114 C131 1.295 . S
O115 Fe110 1.997 . S
O115 C131 1.235 . S
O116 Fe110 2.002 . S
O116 C117 1.295 . S
C117 O116 1.295 . S
C117 O119 1.235 . S
C118 O123 1.287 . S
C118 O124 1.255 . S
O119 Fe111 1.997 . S
O119 C117 1.235 . S
C120 O126 1.287 . S
C120 O127 1.255 . S
O121 Fe110 1.976 . S
O121 C128 1.287 . S
O122 Fe111 1.996 . S
O122 C128 1.255 . S
O123 Fe113 1.976 . S
O123 C118 1.287 . S
O124 Fe110 1.996 . S
O124 C118 1.255 . S
C125 O129 1.295 . S
C125 O130 1.235 . S
O126 Fe111 1.976 . S
O126 C120 1.287 . S
O127 Fe113 1.996 . S
O127 C120 1.255 . S
C128 O121 1.287 . S
C128 O122 1.255 . S
O129 Fe111 2.002 . S
O129 C125 1.295 . S
O130 Fe113 1.997 . S
O130 C125 1.235 . S
C131 O114 1.295 . S
C131 O115 1.235 . S
Fe132 O134 1.918 . S
Fe132 O137 1.997 . S
Fe132 O138 2.002 . S
Fe132 O143 1.976 . S
Fe132 O146 1.996 . S
Fe133 O134 1.918 . S
Fe133 O141 1.997 . S
Fe133 O144 1.996 . S
Fe133 O148 1.976 . S
Fe133 O151 2.002 . S
O134 Fe132 1.918 . S
O134 Fe133 1.918 . S
O134 Fe135 1.918 . S
Fe135 O134 1.918 . S
Fe135 O136 2.002 . S
Fe135 O145 1.976 . S
Fe135 O149 1.996 . S
Fe135 O152 1.997 . S
O136 Fe135 2.002 . S
O136 C153 1.295 . S
O137 Fe132 1.997 . S
O137 C153 1.235 . S
O138 Fe132 2.002 . S
O138 C139 1.295 . S
C139 O138 1.295 . S
C139 O141 1.235 . S
C140 O145 1.287 . S
C140 O146 1.255 . S
O141 Fe133 1.997 . S
O141 C139 1.235 . S
C142 O148 1.287 . S
C142 O149 1.255 . S
O143 Fe132 1.976 . S
O143 C150 1.287 . S
O144 Fe133 1.996 . S
O144 C150 1.255 . S
O145 Fe135 1.976 . S
O145 C140 1.287 . S
O146 Fe132 1.996 . S
O146 C140 1.255 . S
C147 O151 1.295 . S
C147 O152 1.235 . S
O148 Fe133 1.976 . S
O148 C142 1.287 . S
O149 Fe135 1.996 . S
O149 C142 1.255 . S
C150 O143 1.287 . S
C150 O144 1.255 . S
O151 Fe133 2.002 . S
O151 C147 1.295 . S
O152 Fe135 1.997 . S
O152 C147 1.235 . S
C153 O136 1.295 . S
C153 O137 1.235 . S
Fe154 O156 1.918 . S
Fe154 O159 1.997 . S
Fe154 O160 2.002 . S
Fe154 O165 1.976 . S
Fe154 O168 1.996 . S
Fe155 O156 1.918 . S
Fe155 O163 1.997 . S
Fe155 O166 1.996 . S
Fe155 O170 1.976 . S
Fe155 O173 2.002 . S
O156 Fe154 1.918 . S
O156 Fe155 1.918 . S
O156 Fe157 1.918 . S
Fe157 O156 1.918 . S
Fe157 O158 2.002 . S
Fe157 O167 1.976 . S
Fe157 O171 1.996 . S
Fe157 O174 1.997 . S
O158 Fe157 2.002 . S
O158 C175 1.295 . S
O159 Fe154 1.997 . S
O159 C175 1.235 . S
O160 Fe154 2.002 . S
O160 C161 1.295 . S
C161 O160 1.295 . S
C161 O163 1.235 . S
C162 O167 1.287 . S
C162 O168 1.255 . S
O163 Fe155 1.997 . S
O163 C161 1.235 . S
C164 O170 1.287 . S
C164 O171 1.255 . S
O165 Fe154 1.976 . S
O165 C172 1.287 . S
O166 Fe155 1.996 . S
O166 C172 1.255 . S
O167 Fe157 1.976 . S
O167 C162 1.287 . S
O168 Fe154 1.996 . S
O168 C162 1.255 . S
C169 O173 1.295 . S
C169 O174 1.235 . S
O170 Fe155 1.976 . S
O170 C164 1.287 . S
O171 Fe157 1.996 . S
O171 C164 1.255 . S
C172 O165 1.287 . S
C172 O166 1.255 . S
O173 Fe155 2.002 . S
O173 C169 1.295 . S
O174 Fe157 1.997 . S
O174 C169 1.235 . S
C175 O158 1.295 . S
C175 O159 1.235 . S
Fe176 O178 1.918 . S
Fe176 O181 1.997 . S
Fe176 O182 2.002 . S
Fe176 O187 1.976 . S
Fe176 O190 1.996 . S
Fe177 O178 1.918 . S
Fe177 O185 1.997 . S
Fe177 O188 1.996 . S
Fe177 O192 1.976 . S
Fe177 O195 2.002 . S
O178 Fe176 1.918 . S
O178 Fe177 1.918 . S
O178 Fe179 1.918 . S
Fe179 O178 1.918 . S
Fe179 O180 2.002 . S
Fe179 O189 1.976 . S
Fe179 O193 1.996 . S
Fe179 O196 1.997 . S
O180 Fe179 2.002 . S
O180 C197 1.295 . S
O181 Fe176 1.997 . S
O181 C197 1.235 . S
O182 Fe176 2.002 . S
O182 C183 1.295 . S
C183 O182 1.295 . S
C183 O185 1.235 . S
C184 O189 1.287 . S
C184 O190 1.255 . S
O185 Fe177 1.997 . S
O185 C183 1.235 . S
C186 O192 1.287 . S
C186 O193 1.255 . S
O187 Fe176 1.976 . S
O187 C194 1.287 . S
O188 Fe177 1.996 . S
O188 C194 1.255 . S
O189 Fe179 1.976 . S
O189 C184 1.287 . S
O190 Fe176 1.996 . S
O190 C184 1.255 . S
C191 O195 1.295 . S
C191 O196 1.235 . S
O192 Fe177 1.976 . S
O192 C186 1.287 . S
O193 Fe179 1.996 . S
O193 C186 1.255 . S
C194 O187 1.287 . S
C194 O188 1.255 . S
O195 Fe177 2.002 . S
O195 C191 1.295 . S
O196 Fe179 1.997 . S
O196 C191 1.235 . S
C197 O180 1.295 . S
C197 O181 1.235 . S
Fe198 O200 1.918 . S
Fe198 O203 1.997 . S
Fe198 O204 2.002 . S
Fe198 O209 1.976 . S
Fe198 O212 1.996 . S
Fe199 O200 1.918 . S
Fe199 O207 1.997 . S
Fe199 O210 1.996 . S
Fe199 O214 1.976 . S
Fe199 O217 2.002 . S
O200 Fe198 1.918 . S
O200 Fe199 1.918 . S
O200 Fe201 1.918 . S
Fe201 O200 1.918 . S
Fe201 O202 2.002 . S
Fe201 O211 1.976 . S
Fe201 O215 1.996 . S
Fe201 O218 1.997 . S
O202 Fe201 2.002 . S
O202 C219 1.295 . S
O203 Fe198 1.997 . S
O203 C219 1.235 . S
O204 Fe198 2.002 . S
O204 C205 1.295 . S
C205 O204 1.295 . S
C205 O207 1.235 . S
C206 O211 1.287 . S
C206 O212 1.255 . S
O207 Fe199 1.997 . S
O207 C205 1.235 . S
C208 O214 1.287 . S
C208 O215 1.255 . S
O209 Fe198 1.976 . S
O209 C216 1.287 . S
O210 Fe199 1.996 . S
O210 C216 1.255 . S
O211 Fe201 1.976 . S
O211 C206 1.287 . S
O212 Fe198 1.996 . S
O212 C206 1.255 . S
C213 O217 1.295 . S
C213 O218 1.235 . S
O214 Fe199 1.976 . S
O214 C208 1.287 . S
O215 Fe201 1.996 . S
O215 C208 1.255 . S
C216 O209 1.287 . S
C216 O210 1.255 . S
O217 Fe199 2.002 . S
O217 C213 1.295 . S
O218 Fe201 1.997 . S
O218 C213 1.235 . S
C219 O202 1.295 . S
C219 O203 1.235 . S
Fe220 O222 1.918 . S
Fe220 O225 1.997 . S
Fe220 O226 2.002 . S
Fe220 O231 1.976 . S
Fe220 O234 1.996 . S
Fe221 O222 1.918 . S
Fe221 O229 1.997 . S
Fe221 O232 1.996 . S
Fe221 O236 1.976 . S
Fe221 O239 2.002 . S
O222 Fe220 1.918 . S
O222 Fe221 1.918 . S
O222 Fe223 1.918 . S
Fe223 O222 1.918 . S
Fe223 O224 2.002 . S
Fe223 O233 1.976 . S
Fe223 O237 1.996 . S
Fe223 O240 1.997 . S
O224 Fe223 2.002 . S
O224 C241 1.295 . S
O225 Fe220 1.997 . S
O225 C241 1.235 . S
O226 Fe220 2.002 . S
O226 C227 1.295 . S
C227 O226 1.295 . S
C227 O229 1.235 . S
C228 O233 1.287 . S
C228 O234 1.255 . S
O229 Fe221 1.997 . S
O229 C227 1.235 . S
C230 O236 1.287 . S
C230 O237 1.255 . S
O231 Fe220 1.976 . S
O231 C238 1.287 . S
O232 Fe221 1.996 . S
O232 C238 1.255 . S
O233 Fe223 1.976 . S
O233 C228 1.287 . S
O234 Fe220 1.996 . S
O234 C228 1.255 . S
C235 O239 1.295 . S
C235 O240 1.235 . S
O236 Fe221 1.976 . S
O236 C230 1.287 . S
O237 Fe223 1.996 . S
O237 C230 1.255 . S
C238 O231 1.287 . S
C238 O232 1.255 . S
O239 Fe221 2.002 . S
O239 C235 1.295 . S
O240 Fe223 1.997 . S
O240 C235 1.235 . S
C241 O224 1.295 . S
C241 O225 1.235 . S
Fe242 O244 1.918 . S
Fe242 O247 1.997 . S
Fe242 O248 2.002 . S
Fe242 O253 1.976 . S
Fe242 O256 1.996 . S
Fe243 O244 1.918 . S
Fe243 O251 1.997 . S
Fe243 O254 1.996 . S
Fe243 O258 1.976 . S
Fe243 O261 2.002 . S
O244 Fe242 1.918 . S
O244 Fe243 1.918 . S
O244 Fe245 1.918 . S
Fe245 O244 1.918 . S
Fe245 O246 2.002 . S
Fe245 O255 1.976 . S
Fe245 O259 1.996 . S
Fe245 O262 1.997 . S
O246 Fe245 2.002 . S
O246 C263 1.295 . S
O247 Fe242 1.997 . S
O247 C263 1.235 . S
O248 Fe242 2.002 . S
O248 C249 1.295 . S
C249 O248 1.295 . S
C249 O251 1.235 . S
C250 O255 1.287 . S
C250 O256 1.255 . S
O251 Fe243 1.997 . S
O251 C249 1.235 . S
C252 O258 1.287 . S
C252 O259 1.255 . S
O253 Fe242 1.976 . S
O253 C260 1.287 . S
O254 Fe243 1.996 . S
O254 C260 1.255 . S
O255 Fe245 1.976 . S
O255 C250 1.287 . S
O256 Fe242 1.996 . S
O256 C250 1.255 . S
C257 O261 1.295 . S
C257 O262 1.235 . S
O258 Fe243 1.976 . S
O258 C252 1.287 . S
O259 Fe245 1.996 . S
O259 C252 1.255 . S
C260 O253 1.287 . S
C260 O254 1.255 . S
O261 Fe243 2.002 . S
O261 C257 1.295 . S
O262 Fe245 1.997 . S
O262 C257 1.235 . S
C263 O246 1.295 . S
C263 O247 1.235 . S
Fe264 O266 1.918 . S
Fe264 O269 1.997 . S
Fe264 O270 2.002 . S
Fe264 O275 1.976 . S
Fe264 O278 1.996 . S
Fe265 O266 1.918 . S
Fe265 O273 1.997 . S
Fe265 O276 1.996 . S
Fe265 O280 1.976 . S
Fe265 O283 2.002 . S
O266 Fe264 1.918 . S
O266 Fe265 1.918 . S
O266 Fe267 1.918 . S
Fe267 O266 1.918 . S
Fe267 O268 2.002 . S
Fe267 O277 1.976 . S
Fe267 O281 1.996 . S
Fe267 O284 1.997 . S
O268 Fe267 2.002 . S
O268 C285 1.295 . S
O269 Fe264 1.997 . S
O269 C285 1.235 . S
O270 Fe264 2.002 . S
O270 C271 1.295 . S
C271 O270 1.295 . S
C271 O273 1.235 . S
C272 O277 1.287 . S
C272 O278 1.255 . S
O273 Fe265 1.997 . S
O273 C271 1.235 . S
C274 O280 1.287 . S
C274 O281 1.255 . S
O275 Fe264 1.976 . S
O275 C282 1.287 . S
O276 Fe265 1.996 . S
O276 C282 1.255 . S
O277 Fe267 1.976 . S
O277 C272 1.287 . S
O278 Fe264 1.996 . S
O278 C272 1.255 . S
C279 O283 1.295 . S
C279 O284 1.235 . S
O280 Fe265 1.976 . S
O280 C274 1.287 . S
O281 Fe267 1.996 . S
O281 C274 1.255 . S
C282 O275 1.287 . S
C282 O276 1.255 . S
O283 Fe265 2.002 . S
O283 C279 1.295 . S
O284 Fe267 1.997 . S
O284 C279 1.235 . S
C285 O268 1.295 . S
C285 O269 1.235 . S
Fe286 O288 1.918 . S
Fe286 O291 1.997 . S
Fe286 O292 2.002 . S
Fe286 O297 1.976 . S
Fe286 O300 1.996 . S
Fe287 O288 1.918 . S
Fe287 O295 1.997 . S
Fe287 O298 1.996 . S
Fe287 O302 1.976 . S
Fe287 O305 2.002 . S
O288 Fe286 1.918 . S
O288 Fe287 1.918 . S
O288 Fe289 1.918 . S
Fe289 O288 1.918 . S
Fe289 O290 2.002 . S
Fe289 O299 1.976 . S
Fe289 O303 1.996 . S
Fe289 O306 1.997 . S
O290 Fe289 2.002 . S
O290 C307 1.295 . S
O291 Fe286 1.997 . S
O291 C307 1.235 . S
O292 Fe286 2.002 . S
O292 C293 1.295 . S
C293 O292 1.295 . S
C293 O295 1.235 . S
C294 O299 1.287 . S
C294 O300 1.255 . S
O295 Fe287 1.997 . S
O295 C293 1.235 . S
C296 O302 1.287 . S
C296 O303 1.255 . S
O297 Fe286 1.976 . S
O297 C304 1.287 . S
O298 Fe287 1.996 . S
O298 C304 1.255 . S
O299 Fe289 1.976 . S
O299 C294 1.287 . S
O300 Fe286 1.996 . S
O300 C294 1.255 . S
C301 O305 1.295 . S
C301 O306 1.235 . S
O302 Fe287 1.976 . S
O302 C296 1.287 . S
O303 Fe289 1.996 . S
O303 C296 1.255 . S
C304 O297 1.287 . S
C304 O298 1.255 . S
O305 Fe287 2.002 . S
O305 C301 1.295 . S
O306 Fe289 1.997 . S
O306 C301 1.235 . S
C307 O290 1.295 . S
C307 O291 1.235 . S
Fe308 O310 1.918 . S
Fe308 O313 1.997 . S
Fe308 O314 2.002 . S
Fe308 O319 1.976 . S
Fe308 O322 1.996 . S
Fe309 O310 1.918 . S
Fe309 O317 1.997 . S
Fe309 O320 1.996 . S
Fe309 O324 1.976 . S
Fe309 O327 2.002 . S
O310 Fe308 1.918 . S
O310 Fe309 1.918 . S
O310 Fe311 1.918 . S
Fe311 O310 1.918 . S
Fe311 O312 2.002 . S
Fe311 O321 1.976 . S
Fe311 O325 1.996 . S
Fe311 O328 1.997 . S
O312 Fe311 2.002 . S
O312 C329 1.295 . S
O313 Fe308 1.997 . S
O313 C329 1.235 . S
O314 Fe308 2.002 . S
O314 C315 1.295 . S
C315 O314 1.295 . S
C315 O317 1.235 . S
C316 O321 1.287 . S
C316 O322 1.255 . S
O317 Fe309 1.997 . S
O317 C315 1.235 . S
C318 O324 1.287 . S
C318 O325 1.255 . S
O319 Fe308 1.976 . S
O319 C326 1.287 . S
O320 Fe309 1.996 . S
O320 C326 1.255 . S
O321 Fe311 1.976 . S
O321 C316 1.287 . S
O322 Fe308 1.996 . S
O322 C316 1.255 . S
C323 O327 1.295 . S
C323 O328 1.235 . S
O324 Fe309 1.976 . S
O324 C318 1.287 . S
O325 Fe311 1.996 . S
O325 C318 1.255 . S
C326 O319 1.287 . S
C326 O320 1.255 . S
O327 Fe309 2.002 . S
O327 C323 1.295 . S
O328 Fe311 1.997 . S
O328 C323 1.235 . S
C329 O312 1.295 . S
C329 O313 1.235 . S
Fe330 O332 1.918 . S
Fe330 O335 1.997 . S
Fe330 O336 2.002 . S
Fe330 O341 1.976 . S
Fe330 O344 1.996 . S
Fe331 O332 1.918 . S
Fe331 O339 1.997 . S
Fe331 O342 1.996 . S
Fe331 O346 1.976 . S
Fe331 O349 2.002 . S
O332 Fe330 1.918 . S
O332 Fe331 1.918 . S
O332 Fe333 1.918 . S
Fe333 O332 1.918 . S
Fe333 O334 2.002 . S
Fe333 O343 1.976 . S
Fe333 O347 1.996 . S
Fe333 O350 1.997 . S
O334 Fe333 2.002 . S
O334 C351 1.295 . S
O335 Fe330 1.997 . S
O335 C351 1.235 . S
O336 Fe330 2.002 . S
O336 C337 1.295 . S
C337 O336 1.295 . S
C337 O339 1.235 . S
C338 O343 1.287 . S
C338 O344 1.255 . S
O339 Fe331 1.997 . S
O339 C337 1.235 . S
C340 O346 1.287 . S
C340 O347 1.255 . S
O341 Fe330 1.976 . S
O341 C348 1.287 . S
O342 Fe331 1.996 . S
O342 C348 1.255 . S
O343 Fe333 1.976 . S
O343 C338 1.287 . S
O344 Fe330 1.996 . S
O344 C338 1.255 . S
C345 O349 1.295 . S
C345 O350 1.235 . S
O346 Fe331 1.976 . S
O346 C340 1.287 . S
O347 Fe333 1.996 . S
O347 C340 1.255 . S
C348 O341 1.287 . S
C348 O342 1.255 . S
O349 Fe331 2.002 . S
O349 C345 1.295 . S
O350 Fe333 1.997 . S
O350 C345 1.235 . S
C351 O334 1.295 . S
C351 O335 1.235 . S
C352 C353 1.391 . S
C352 C354 1.394 . S
C352 H368 0.931 . S
C353 C352 1.391 . S
C353 C357 1.376 . S
C354 C352 1.394 . S
C354 C355 1.369 . S
C354 C358 1.531 . S
C355 C354 1.369 . S
C355 C356 1.410 . S
C355 C363 1.503 . S
C356 C355 1.410 . S
C356 C357 1.392 . S
C356 C359 1.511 . S
C357 C353 1.376 . S
C357 C356 1.392 . S
C357 H369 0.929 . S
C358 C354 1.531 . S
C358 H370 0.960 . S
C358 H371 0.962 . S
C358 H372 0.960 . S
C359 C356 1.511 . S
C359 H373 0.961 . S
C359 H374 0.961 . S
C359 H375 0.961 . S
C360 C361 1.370 . S
C360 C362 1.363 . S
C360 H376 0.931 . S
C361 C360 1.370 . S
C361 C365 1.408 . S
C362 C360 1.363 . S
C362 C363 1.370 . S
C362 C366 1.524 . S
C363 C355 1.503 . S
C363 C362 1.370 . S
C363 C364 1.403 . S
C364 C363 1.403 . S
C364 C365 1.404 . S
C364 C367 1.539 . S
C365 C361 1.408 . S
C365 C364 1.404 . S
C365 H377 0.930 . S
C366 C362 1.524 . S
C366 H378 0.956 . S
C366 H379 0.961 . S
C366 H380 0.961 . S
C367 C364 1.539 . S
C367 H381 0.958 . S
C367 H382 0.961 . S
C367 H383 0.960 . S
H368 C352 0.931 . S
H369 C357 0.929 . S
H370 C358 0.960 . S
H371 C358 0.962 . S
H372 C358 0.960 . S
H373 C359 0.961 . S
H374 C359 0.961 . S
H375 C359 0.961 . S
H376 C360 0.931 . S
H377 C365 0.930 . S
H378 C366 0.956 . S
H379 C366 0.961 . S
H380 C366 0.961 . S
H381 C367 0.958 . S
H382 C367 0.961 . S
H383 C367 0.960 . S
C384 C385 1.391 . S
C384 C386 1.394 . S
C384 H400 0.931 . S
C385 C384 1.391 . S
C385 C389 1.376 . S
C386 C384 1.394 . S
C386 C387 1.369 . S
C386 C390 1.531 . S
C387 C386 1.369 . S
C387 C388 1.410 . S
C387 C395 1.503 . S
C388 C387 1.410 . S
C388 C389 1.392 . S
C388 C391 1.511 . S
C389 C385 1.376 . S
C389 C388 1.392 . S
C389 H401 0.929 . S
C390 C386 1.531 . S
C390 H402 0.960 . S
C390 H403 0.962 . S
C390 H404 0.960 . S
C391 C388 1.511 . S
C391 H405 0.961 . S
C391 H406 0.961 . S
C391 H407 0.961 . S
C392 C393 1.370 . S
C392 C394 1.363 . S
C392 H408 0.931 . S
C393 C392 1.370 . S
C393 C397 1.408 . S
C394 C392 1.363 . S
C394 C395 1.370 . S
C394 C398 1.524 . S
C395 C387 1.503 . S
C395 C394 1.370 . S
C395 C396 1.403 . S
C396 C395 1.403 . S
C396 C397 1.404 . S
C396 C399 1.539 . S
C397 C393 1.408 . S
C397 C396 1.404 . S
C397 H409 0.930 . S
C398 C394 1.524 . S
C398 H410 0.956 . S
C398 H411 0.961 . S
C398 H412 0.961 . S
C399 C396 1.539 . S
C399 H413 0.958 . S
C399 H414 0.961 . S
C399 H415 0.960 . S
H400 C384 0.931 . S
H401 C389 0.929 . S
H402 C390 0.960 . S
H403 C390 0.962 . S
H404 C390 0.960 . S
H405 C391 0.961 . S
H406 C391 0.961 . S
H407 C391 0.961 . S
H408 C392 0.931 . S
H409 C397 0.930 . S
H410 C398 0.956 . S
H411 C398 0.961 . S
H412 C398 0.961 . S
H413 C399 0.958 . S
H414 C399 0.961 . S
H415 C399 0.960 . S
C416 C417 1.391 . S
C416 C418 1.394 . S
C416 H432 0.931 . S
C417 C416 1.391 . S
C417 C421 1.376 . S
C418 C416 1.394 . S
C418 C419 1.369 . S
C418 C422 1.531 . S
C419 C418 1.369 . S
C419 C420 1.410 . S
C419 C427 1.503 . S
C420 C419 1.410 . S
C420 C421 1.392 . S
C420 C423 1.511 . S
C421 C417 1.376 . S
C421 C420 1.392 . S
C421 H433 0.929 . S
C422 C418 1.531 . S
C422 H434 0.960 . S
C422 H435 0.962 . S
C422 H436 0.960 . S
C423 C420 1.511 . S
C423 H437 0.961 . S
C423 H438 0.961 . S
C423 H439 0.961 . S
C424 C425 1.370 . S
C424 C426 1.363 . S
C424 H440 0.931 . S
C425 C424 1.370 . S
C425 C429 1.408 . S
C426 C424 1.363 . S
C426 C427 1.370 . S
C426 C430 1.524 . S
C427 C419 1.503 . S
C427 C426 1.370 . S
C427 C428 1.403 . S
C428 C427 1.403 . S
C428 C429 1.404 . S
C428 C431 1.539 . S
C429 C425 1.408 . S
C429 C428 1.404 . S
C429 H441 0.930 . S
C430 C426 1.524 . S
C430 H442 0.956 . S
C430 H443 0.961 . S
C430 H444 0.961 . S
C431 C428 1.539 . S
C431 H445 0.958 . S
C431 H446 0.961 . S
C431 H447 0.960 . S
H432 C416 0.931 . S
H433 C421 0.929 . S
H434 C422 0.960 . S
H435 C422 0.962 . S
H436 C422 0.960 . S
H437 C423 0.961 . S
H438 C423 0.961 . S
H439 C423 0.961 . S
H440 C424 0.931 . S
H441 C429 0.930 . S
H442 C430 0.956 . S
H443 C430 0.961 . S
H444 C430 0.961 . S
H445 C431 0.958 . S
H446 C431 0.961 . S
H447 C431 0.960 . S
C448 C449 1.391 . S
C448 C450 1.394 . S
C448 H464 0.931 . S
C449 C448 1.391 . S
C449 C453 1.376 . S
C450 C448 1.394 . S
C450 C451 1.369 . S
C450 C454 1.531 . S
C451 C450 1.369 . S
C451 C452 1.410 . S
C451 C459 1.503 . S
C452 C451 1.410 . S
C452 C453 1.392 . S
C452 C455 1.511 . S
C453 C449 1.376 . S
C453 C452 1.392 . S
C453 H465 0.929 . S
C454 C450 1.531 . S
C454 H466 0.960 . S
C454 H467 0.962 . S
C454 H468 0.960 . S
C455 C452 1.511 . S
C455 H469 0.961 . S
C455 H470 0.961 . S
C455 H471 0.961 . S
C456 C457 1.370 . S
C456 C458 1.363 . S
C456 H472 0.931 . S
C457 C456 1.370 . S
C457 C461 1.408 . S
C458 C456 1.363 . S
C458 C459 1.370 . S
C458 C462 1.524 . S
C459 C451 1.503 . S
C459 C458 1.370 . S
C459 C460 1.403 . S
C460 C459 1.403 . S
C460 C461 1.404 . S
C460 C463 1.539 . S
C461 C457 1.408 . S
C461 C460 1.404 . S
C461 H473 0.930 . S
C462 C458 1.524 . S
C462 H474 0.956 . S
C462 H475 0.961 . S
C462 H476 0.961 . S
C463 C460 1.539 . S
C463 H477 0.958 . S
C463 H478 0.961 . S
C463 H479 0.960 . S
H464 C448 0.931 . S
H465 C453 0.929 . S
H466 C454 0.960 . S
H467 C454 0.962 . S
H468 C454 0.960 . S
H469 C455 0.961 . S
H470 C455 0.961 . S
H471 C455 0.961 . S
H472 C456 0.931 . S
H473 C461 0.930 . S
H474 C462 0.956 . S
H475 C462 0.961 . S
H476 C462 0.961 . S
H477 C463 0.958 . S
H478 C463 0.961 . S
H479 C463 0.960 . S
C480 C481 1.391 . S
C480 C482 1.394 . S
C480 H496 0.931 . S
C481 C480 1.391 . S
C481 C485 1.376 . S
C482 C480 1.394 . S
C482 C483 1.369 . S
C482 C486 1.531 . S
C483 C482 1.369 . S
C483 C484 1.410 . S
C483 C491 1.503 . S
C484 C483 1.410 . S
C484 C485 1.392 . S
C484 C487 1.511 . S
C485 C481 1.376 . S
C485 C484 1.392 . S
C485 H497 0.929 . S
C486 C482 1.531 . S
C486 H498 0.960 . S
C486 H499 0.962 . S
C486 H500 0.960 . S
C487 C484 1.511 . S
C487 H501 0.961 . S
C487 H502 0.961 . S
C487 H503 0.961 . S
C488 C489 1.370 . S
C488 C490 1.363 . S
C488 H504 0.931 . S
C489 C488 1.370 . S
C489 C493 1.408 . S
C490 C488 1.363 . S
C490 C491 1.370 . S
C490 C494 1.524 . S
C491 C483 1.503 . S
C491 C490 1.370 . S
C491 C492 1.403 . S
C492 C491 1.403 . S
C492 C493 1.404 . S
C492 C495 1.539 . S
C493 C489 1.408 . S
C493 C492 1.404 . S
C493 H505 0.930 . S
C494 C490 1.524 . S
C494 H506 0.956 . S
C494 H507 0.961 . S
C494 H508 0.961 . S
C495 C492 1.539 . S
C495 H509 0.958 . S
C495 H510 0.961 . S
C495 H511 0.960 . S
H496 C480 0.931 . S
H497 C485 0.929 . S
H498 C486 0.960 . S
H499 C486 0.962 . S
H500 C486 0.960 . S
H501 C487 0.961 . S
H502 C487 0.961 . S
H503 C487 0.961 . S
H504 C488 0.931 . S
H505 C493 0.930 . S
H506 C494 0.956 . S
H507 C494 0.961 . S
H508 C494 0.961 . S
H509 C495 0.958 . S
H510 C495 0.961 . S
H511 C495 0.960 . S
C512 C513 1.391 . S
C512 C514 1.394 . S
C512 H528 0.931 . S
C513 C512 1.391 . S
C513 C517 1.376 . S
C514 C512 1.394 . S
C514 C515 1.369 . S
C514 C518 1.531 . S
C515 C514 1.369 . S
C515 C516 1.410 . S
C515 C523 1.503 . S
C516 C515 1.410 . S
C516 C517 1.392 . S
C516 C519 1.511 . S
C517 C513 1.376 . S
C517 C516 1.392 . S
C517 H529 0.929 . S
C518 C514 1.531 . S
C518 H530 0.960 . S
C518 H531 0.962 . S
C518 H532 0.960 . S
C519 C516 1.511 . S
C519 H533 0.961 . S
C519 H534 0.961 . S
C519 H535 0.961 . S
C520 C521 1.370 . S
C520 C522 1.363 . S
C520 H536 0.931 . S
C521 C520 1.370 . S
C521 C525 1.408 . S
C522 C520 1.363 . S
C522 C523 1.370 . S
C522 C526 1.524 . S
C523 C515 1.503 . S
C523 C522 1.370 . S
C523 C524 1.403 . S
C524 C523 1.403 . S
C524 C525 1.404 . S
C524 C527 1.539 . S
C525 C521 1.408 . S
C525 C524 1.404 . S
C525 H537 0.930 . S
C526 C522 1.524 . S
C526 H538 0.956 . S
C526 H539 0.961 . S
C526 H540 0.961 . S
C527 C524 1.539 . S
C527 H541 0.958 . S
C527 H542 0.961 . S
C527 H543 0.960 . S
H528 C512 0.931 . S
H529 C517 0.929 . S
H530 C518 0.960 . S
H531 C518 0.962 . S
H532 C518 0.960 . S
H533 C519 0.961 . S
H534 C519 0.961 . S
H535 C519 0.961 . S
H536 C520 0.931 . S
H537 C525 0.930 . S
H538 C526 0.956 . S
H539 C526 0.961 . S
H540 C526 0.961 . S
H541 C527 0.958 . S
H542 C527 0.961 . S
H543 C527 0.960 . S
C544 C545 1.391 . S
C544 C546 1.394 . S
C544 H560 0.931 . S
C545 C544 1.391 . S
C545 C549 1.376 . S
C546 C544 1.394 . S
C546 C547 1.369 . S
C546 C550 1.531 . S
C547 C546 1.369 . S
C547 C548 1.410 . S
C547 C555 1.503 . S
C548 C547 1.410 . S
C548 C549 1.392 . S
C548 C551 1.511 . S
C549 C545 1.376 . S
C549 C548 1.392 . S
C549 H561 0.929 . S
C550 C546 1.531 . S
C550 H562 0.960 . S
C550 H563 0.962 . S
C550 H564 0.960 . S
C551 C548 1.511 . S
C551 H565 0.961 . S
C551 H566 0.961 . S
C551 H567 0.961 . S
C552 C553 1.370 . S
C552 C554 1.363 . S
C552 H568 0.931 . S
C553 C552 1.370 . S
C553 C557 1.408 . S
C554 C552 1.363 . S
C554 C555 1.370 . S
C554 C558 1.524 . S
C555 C547 1.503 . S
C555 C554 1.370 . S
C555 C556 1.403 . S
C556 C555 1.403 . S
C556 C557 1.404 . S
C556 C559 1.539 . S
C557 C553 1.408 . S
C557 C556 1.404 . S
C557 H569 0.930 . S
C558 C554 1.524 . S
C558 H570 0.956 . S
C558 H571 0.961 . S
C558 H572 0.961 . S
C559 C556 1.539 . S
C559 H573 0.958 . S
C559 H574 0.961 . S
C559 H575 0.960 . S
H560 C544 0.931 . S
H561 C549 0.929 . S
H562 C550 0.960 . S
H563 C550 0.962 . S
H564 C550 0.960 . S
H565 C551 0.961 . S
H566 C551 0.961 . S
H567 C551 0.961 . S
H568 C552 0.931 . S
H569 C557 0.930 . S
H570 C558 0.956 . S
H571 C558 0.961 . S
H572 C558 0.961 . S
H573 C559 0.958 . S
H574 C559 0.961 . S
H575 C559 0.960 . S
C576 C577 1.391 . S
C576 C578 1.394 . S
C576 H592 0.931 . S
C577 C576 1.391 . S
C577 C581 1.376 . S
C578 C576 1.394 . S
C578 C579 1.369 . S
C578 C582 1.531 . S
C579 C578 1.369 . S
C579 C580 1.410 . S
C579 C587 1.503 . S
C580 C579 1.410 . S
C580 C581 1.392 . S
C580 C583 1.511 . S
C581 C577 1.376 . S
C581 C580 1.392 . S
C581 H593 0.929 . S
C582 C578 1.531 . S
C582 H594 0.960 . S
C582 H595 0.962 . S
C582 H596 0.960 . S
C583 C580 1.511 . S
C583 H597 0.961 . S
C583 H598 0.961 . S
C583 H599 0.961 . S
C584 C585 1.370 . S
C584 C586 1.363 . S
C584 H600 0.931 . S
C585 C584 1.370 . S
C585 C589 1.408 . S
C586 C584 1.363 . S
C586 C587 1.370 . S
C586 C590 1.524 . S
C587 C579 1.503 . S
C587 C586 1.370 . S
C587 C588 1.403 . S
C588 C587 1.403 . S
C588 C589 1.404 . S
C588 C591 1.539 . S
C589 C585 1.408 . S
C589 C588 1.404 . S
C589 H601 0.930 . S
C590 C586 1.524 . S
C590 H602 0.956 . S
C590 H603 0.961 . S
C590 H604 0.961 . S
C591 C588 1.539 . S
C591 H605 0.958 . S
C591 H606 0.961 . S
C591 H607 0.960 . S
H592 C576 0.931 . S
H593 C581 0.929 . S
H594 C582 0.960 . S
H595 C582 0.962 . S
H596 C582 0.960 . S
H597 C583 0.961 . S
H598 C583 0.961 . S
H599 C583 0.961 . S
H600 C584 0.931 . S
H601 C589 0.930 . S
H602 C590 0.956 . S
H603 C590 0.961 . S
H604 C590 0.961 . S
H605 C591 0.958 . S
H606 C591 0.961 . S
H607 C591 0.960 . S
C608 C609 1.391 . S
C608 C610 1.394 1_565 S
C608 H624 0.931 . S
C609 C608 1.391 . S
C609 C613 1.376 . S
C610 C608 1.394 1_545 S
C610 C611 1.369 . S
C610 C614 1.531 . S
C611 C610 1.369 . S
C611 C612 1.410 . S
C611 C619 1.503 . S
C612 C611 1.410 . S
C612 C613 1.392 1_545 S
C612 C615 1.511 . S
C613 C609 1.376 . S
C613 C612 1.392 1_565 S
C613 H625 0.929 . S
C614 C610 1.531 . S
C614 H626 0.960 . S
C614 H627 0.962 . S
C614 H628 0.960 . S
C615 C612 1.511 . S
C615 H629 0.961 . S
C615 H630 0.961 . S
C615 H631 0.961 . S
C616 C617 1.370 . S
C616 C618 1.363 . S
C616 H632 0.931 . S
C617 C616 1.370 . S
C617 C621 1.408 . S
C618 C616 1.363 . S
C618 C619 1.370 . S
C618 C622 1.524 . S
C619 C611 1.503 . S
C619 C618 1.370 . S
C619 C620 1.403 . S
C620 C619 1.403 . S
C620 C621 1.404 . S
C620 C623 1.539 . S
C621 C617 1.408 . S
C621 C620 1.404 . S
C621 H633 0.930 . S
C622 C618 1.524 . S
C622 H634 0.956 . S
C622 H635 0.961 . S
C622 H636 0.961 . S
C623 C620 1.539 . S
C623 H637 0.958 . S
C623 H638 0.961 . S
C623 H639 0.960 . S
H624 C608 0.931 . S
H625 C613 0.929 . S
H626 C614 0.960 . S
H627 C614 0.962 . S
H628 C614 0.960 . S
H629 C615 0.961 . S
H630 C615 0.961 . S
H631 C615 0.961 . S
H632 C616 0.931 . S
H633 C621 0.930 . S
H634 C622 0.956 . S
H635 C622 0.961 . S
H636 C622 0.961 . S
H637 C623 0.958 . S
H638 C623 0.961 . S
H639 C623 0.960 . S
C640 C641 1.391 . S
C640 C642 1.394 . S
C640 H656 0.931 . S
C641 C640 1.391 . S
C641 C645 1.376 . S
C642 C640 1.394 . S
C642 C643 1.369 . S
C642 C646 1.531 . S
C643 C642 1.369 . S
C643 C644 1.410 . S
C643 C651 1.503 . S
C644 C643 1.410 . S
C644 C645 1.392 . S
C644 C647 1.511 . S
C645 C641 1.376 . S
C645 C644 1.392 . S
C645 H657 0.929 . S
C646 C642 1.531 . S
C646 H658 0.960 . S
C646 H659 0.962 . S
C646 H660 0.960 . S
C647 C644 1.511 . S
C647 H661 0.961 . S
C647 H662 0.961 . S
C647 H663 0.961 . S
C648 C649 1.370 . S
C648 C650 1.363 1_655 S
C648 H664 0.931 . S
C649 C648 1.370 . S
C649 C653 1.408 . S
C650 C648 1.363 1_455 S
C650 C651 1.370 . S
C650 C654 1.524 . S
C651 C643 1.503 . S
C651 C650 1.370 . S
C651 C652 1.403 . S
C652 C651 1.403 . S
C652 C653 1.404 1_455 S
C652 C655 1.539 . S
C653 C649 1.408 . S
C653 C652 1.404 1_655 S
C653 H665 0.930 . S
C654 C650 1.524 . S
C654 H666 0.956 . S
C654 H667 0.961 . S
C654 H668 0.961 . S
C655 C652 1.539 . S
C655 H669 0.958 . S
C655 H670 0.961 . S
C655 H671 0.960 . S
H656 C640 0.931 . S
H657 C645 0.929 . S
H658 C646 0.960 . S
H659 C646 0.962 . S
H660 C646 0.960 . S
H661 C647 0.961 . S
H662 C647 0.961 . S
H663 C647 0.961 . S
H664 C648 0.931 . S
H665 C653 0.930 . S
H666 C654 0.956 . S
H667 C654 0.961 . S
H668 C654 0.961 . S
H669 C655 0.958 . S
H670 C655 0.961 . S
H671 C655 0.960 . S
C672 C673 1.391 . S
C672 C674 1.394 . S
C672 H688 0.931 . S
C673 C672 1.391 . S
C673 C677 1.376 . S
C674 C672 1.394 . S
C674 C675 1.369 . S
C674 C678 1.531 . S
C675 C674 1.369 . S
C675 C676 1.410 . S
C675 C683 1.503 . S
C676 C675 1.410 . S
C676 C677 1.392 . S
C676 C679 1.511 . S
C677 C673 1.376 . S
C677 C676 1.392 . S
C677 H689 0.929 . S
C678 C674 1.531 . S
C678 H690 0.960 . S
C678 H691 0.962 . S
C678 H692 0.960 . S
C679 C676 1.511 . S
C679 H693 0.961 . S
C679 H694 0.961 . S
C679 H695 0.961 . S
C680 C681 1.370 . S
C680 C682 1.363 1_545 S
C680 H696 0.931 . S
C681 C680 1.370 . S
C681 C685 1.408 . S
C682 C680 1.363 1_565 S
C682 C683 1.370 . S
C682 C686 1.524 . S
C683 C675 1.503 . S
C683 C682 1.370 . S
C683 C684 1.403 . S
C684 C683 1.403 . S
C684 C685 1.404 1_565 S
C684 C687 1.539 . S
C685 C681 1.408 . S
C685 C684 1.404 1_545 S
C685 H697 0.930 . S
C686 C682 1.524 . S
C686 H698 0.956 . S
C686 H699 0.961 . S
C686 H700 0.961 . S
C687 C684 1.539 . S
C687 H701 0.958 . S
C687 H702 0.961 1_565 S
C687 H703 0.960 . S
H688 C672 0.931 . S
H689 C677 0.929 . S
H690 C678 0.960 . S
H691 C678 0.962 . S
H692 C678 0.960 . S
H693 C679 0.961 . S
H694 C679 0.961 . S
H695 C679 0.961 . S
H696 C680 0.931 . S
H697 C685 0.930 . S
H698 C686 0.956 . S
H699 C686 0.961 . S
H700 C686 0.961 . S
H701 C687 0.958 . S
H702 C687 0.961 1_545 S
H703 C687 0.960 . S
C704 C705 1.391 . S
C704 C706 1.394 1_455 S
C704 H720 0.931 . S
C705 C704 1.391 . S
C705 C709 1.376 . S
C706 C704 1.394 1_655 S
C706 C707 1.369 . S
C706 C710 1.531 . S
C707 C706 1.369 . S
C707 C708 1.410 . S
C707 C715 1.503 . S
C708 C707 1.410 . S
C708 C709 1.392 1_655 S
C708 C711 1.511 . S
C709 C705 1.376 . S
C709 C708 1.392 1_455 S
C709 H721 0.929 . S
C710 C706 1.531 . S
C710 H722 0.960 . S
C710 H723 0.962 . S
C710 H724 0.960 . S
C711 C708 1.511 . S
C711 H725 0.961 . S
C711 H726 0.961 . S
C711 H727 0.961 . S
C712 C713 1.370 . S
C712 C714 1.363 . S
C712 H728 0.931 . S
C713 C712 1.370 . S
C713 C717 1.408 . S
C714 C712 1.363 . S
C714 C715 1.370 . S
C714 C718 1.524 . S
C715 C707 1.503 . S
C715 C714 1.370 . S
C715 C716 1.403 . S
C716 C715 1.403 . S
C716 C717 1.404 . S
C716 C719 1.539 . S
C717 C713 1.408 . S
C717 C716 1.404 . S
C717 H729 0.930 . S
C718 C714 1.524 . S
C718 H730 0.956 . S
C718 H731 0.961 . S
C718 H732 0.961 . S
C719 C716 1.539 . S
C719 H733 0.958 . S
C719 H734 0.961 . S
C719 H735 0.960 . S
H720 C704 0.931 . S
H721 C709 0.929 . S
H722 C710 0.960 . S
H723 C710 0.962 . S
H724 C710 0.960 . S
H725 C711 0.961 . S
H726 C711 0.961 . S
H727 C711 0.961 . S
H728 C712 0.931 . S
H729 C717 0.930 . S
H730 C718 0.956 . S
H731 C718 0.961 . S
H732 C718 0.961 . S
H733 C719 0.958 . S
H734 C719 0.961 . S
H735 C719 0.960 . S
C736 C737 1.391 . S
C736 C738 1.394 1_545 S
C736 H752 0.931 . S
C737 C736 1.391 . S
C737 C741 1.376 . S
C738 C736 1.394 1_565 S
C738 C739 1.369 . S
C738 C742 1.531 . S
C739 C738 1.369 . S
C739 C740 1.410 . S
C739 C747 1.503 . S
C740 C739 1.410 . S
C740 C741 1.392 1_565 S
C740 C743 1.511 . S
C741 C737 1.376 . S
C741 C740 1.392 1_545 S
C741 H753 0.929 . S
C742 C738 1.531 . S
C742 H754 0.960 . S
C742 H755 0.962 . S
C742 H756 0.960 . S
C743 C740 1.511 . S
C743 H757 0.961 . S
C743 H758 0.961 . S
C743 H759 0.961 . S
C744 C745 1.370 . S
C744 C746 1.363 . S
C744 H760 0.931 . S
C745 C744 1.370 . S
C745 C749 1.408 . S
C746 C744 1.363 . S
C746 C747 1.370 . S
C746 C750 1.524 . S
C747 C739 1.503 . S
C747 C746 1.370 . S
C747 C748 1.403 . S
C748 C747 1.403 . S
C748 C749 1.404 . S
C748 C751 1.539 . S
C749 C745 1.408 . S
C749 C748 1.404 . S
C749 H761 0.930 . S
C750 C746 1.524 . S
C750 H762 0.956 . S
C750 H763 0.961 . S
C750 H764 0.961 . S
C751 C748 1.539 . S
C751 H765 0.958 . S
C751 H766 0.961 . S
C751 H767 0.960 . S
H752 C736 0.931 . S
H753 C741 0.929 . S
H754 C742 0.960 . S
H755 C742 0.962 . S
H756 C742 0.960 . S
H757 C743 0.961 . S
H758 C743 0.961 . S
H759 C743 0.961 . S
H760 C744 0.931 . S
H761 C749 0.930 . S
H762 C750 0.956 . S
H763 C750 0.961 . S
H764 C750 0.961 . S
H765 C751 0.958 . S
H766 C751 0.961 . S
H767 C751 0.960 . S
C768 C769 1.391 . S
C768 C770 1.394 . S
C768 H784 0.931 . S
C769 C768 1.391 . S
C769 C773 1.376 . S
C770 C768 1.394 . S
C770 C771 1.369 . S
C770 C774 1.531 . S
C771 C770 1.369 . S
C771 C772 1.410 . S
C771 C779 1.503 . S
C772 C771 1.410 . S
C772 C773 1.392 . S
C772 C775 1.511 . S
C773 C769 1.376 . S
C773 C772 1.392 . S
C773 H785 0.929 . S
C774 C770 1.531 . S
C774 H786 0.960 . S
C774 H787 0.962 . S
C774 H788 0.960 . S
C775 C772 1.511 . S
C775 H789 0.961 . S
C775 H790 0.961 . S
C775 H791 0.961 . S
C776 C777 1.370 . S
C776 C778 1.363 1_455 S
C776 H792 0.931 . S
C777 C776 1.370 . S
C777 C781 1.408 . S
C778 C776 1.363 1_655 S
C778 C779 1.370 . S
C778 C782 1.524 . S
C779 C771 1.503 . S
C779 C778 1.370 . S
C779 C780 1.403 . S
C780 C779 1.403 . S
C780 C781 1.404 1_655 S
C780 C783 1.539 . S
C781 C777 1.408 . S
C781 C780 1.404 1_455 S
C781 H793 0.930 . S
C782 C778 1.524 . S
C782 H794 0.956 . S
C782 H795 0.961 . S
C782 H796 0.961 . S
C783 C780 1.539 . S
C783 H797 0.958 . S
C783 H798 0.961 . S
C783 H799 0.960 . S
H784 C768 0.931 . S
H785 C773 0.929 . S
H786 C774 0.960 . S
H787 C774 0.962 . S
H788 C774 0.960 . S
H789 C775 0.961 . S
H790 C775 0.961 . S
H791 C775 0.961 . S
H792 C776 0.931 . S
H793 C781 0.930 . S
H794 C782 0.956 . S
H795 C782 0.961 . S
H796 C782 0.961 . S
H797 C783 0.958 . S
H798 C783 0.961 . S
H799 C783 0.960 . S
C800 C801 1.391 . S
C800 C802 1.394 . S
C800 H816 0.931 . S
C801 C800 1.391 . S
C801 C805 1.376 . S
C802 C800 1.394 . S
C802 C803 1.369 . S
C802 C806 1.531 . S
C803 C802 1.369 . S
C803 C804 1.410 . S
C803 C811 1.503 . S
C804 C803 1.410 . S
C804 C805 1.392 . S
C804 C807 1.511 . S
C805 C801 1.376 . S
C805 C804 1.392 . S
C805 H817 0.929 . S
C806 C802 1.531 . S
C806 H818 0.960 . S
C806 H819 0.962 . S
C806 H820 0.960 . S
C807 C804 1.511 . S
C807 H821 0.961 . S
C807 H822 0.961 . S
C807 H823 0.961 . S
C808 C809 1.370 . S
C808 C810 1.363 1_565 S
C808 H824 0.931 . S
C809 C808 1.370 . S
C809 C813 1.408 . S
C810 C808 1.363 1_545 S
C810 C811 1.370 . S
C810 C814 1.524 . S
C811 C803 1.503 . S
C811 C810 1.370 . S
C811 C812 1.403 . S
C812 C811 1.403 . S
C812 C813 1.404 1_545 S
C812 C815 1.539 . S
C813 C809 1.408 . S
C813 C812 1.404 1_565 S
C813 H825 0.930 . S
C814 C810 1.524 . S
C814 H826 0.956 . S
C814 H827 0.961 . S
C814 H828 0.961 . S
C815 C812 1.539 . S
C815 H829 0.958 . S
C815 H830 0.961 . S
C815 H831 0.960 . S
H816 C800 0.931 . S
H817 C805 0.929 . S
H818 C806 0.960 . S
H819 C806 0.962 . S
H820 C806 0.960 . S
H821 C807 0.961 . S
H822 C807 0.961 . S
H823 C807 0.961 . S
H824 C808 0.931 . S
H825 C813 0.930 . S
H826 C814 0.956 . S
H827 C814 0.961 . S
H828 C814 0.961 . S
H829 C815 0.958 . S
H830 C815 0.961 . S
H831 C815 0.960 . S
C832 C833 1.391 . S
C832 C834 1.394 . S
C832 H848 0.931 . S
C833 C832 1.391 . S
C833 C837 1.376 . S
C834 C832 1.394 . S
C834 C835 1.369 . S
C834 C838 1.531 . S
C835 C834 1.369 . S
C835 C836 1.410 . S
C835 C843 1.503 . S
C836 C835 1.410 . S
C836 C837 1.392 . S
C836 C839 1.511 . S
C837 C833 1.376 . S
C837 C836 1.392 . S
C837 H849 0.929 . S
C838 C834 1.531 . S
C838 H850 0.960 . S
C838 H851 0.962 . S
C838 H852 0.960 . S
C839 C836 1.511 . S
C839 H853 0.961 . S
C839 H854 0.961 . S
C839 H855 0.961 . S
C840 C841 1.370 . S
C840 C842 1.363 1_655 S
C840 H856 0.931 . S
C841 C840 1.370 . S
C841 C845 1.408 . S
C842 C840 1.363 1_455 S
C842 C843 1.370 . S
C842 C846 1.524 . S
C843 C835 1.503 . S
C843 C842 1.370 . S
C843 C844 1.403 . S
C844 C843 1.403 . S
C844 C845 1.404 1_455 S
C844 C847 1.539 . S
C845 C841 1.408 . S
C845 C844 1.404 1_655 S
C845 H857 0.930 . S
C846 C842 1.524 . S
C846 H858 0.956 . S
C846 H859 0.961 . S
C846 H860 0.961 . S
C847 C844 1.539 . S
C847 H861 0.958 . S
C847 H862 0.961 . S
C847 H863 0.960 . S
H848 C832 0.931 . S
H849 C837 0.929 . S
H850 C838 0.960 . S
H851 C838 0.962 . S
H852 C838 0.960 . S
H853 C839 0.961 . S
H854 C839 0.961 . S
H855 C839 0.961 . S
H856 C840 0.931 . S
H857 C845 0.930 . S
H858 C846 0.956 . S
H859 C846 0.961 . S
H860 C846 0.961 . S
H861 C847 0.958 . S
H862 C847 0.961 . S
H863 C847 0.960 . S
C864 C865 1.391 . S
C864 C866 1.394 . S
C864 H880 0.931 . S
C865 C864 1.391 . S
C865 C869 1.376 . S
C866 C864 1.394 . S
C866 C867 1.369 . S
C866 C870 1.531 . S
C867 C866 1.369 . S
C867 C868 1.410 . S
C867 C875 1.503 . S
C868 C867 1.410 . S
C868 C869 1.392 . S
C868 C871 1.511 . S
C869 C865 1.376 . S
C869 C868 1.392 . S
C869 H881 0.929 . S
C870 C866 1.531 . S
C870 H882 0.960 . S
C870 H883 0.962 . S
C870 H884 0.960 . S
C871 C868 1.511 . S
C871 H885 0.961 . S
C871 H886 0.961 . S
C871 H887 0.961 . S
C872 C873 1.370 . S
C872 C874 1.363 . S
C872 H888 0.931 . S
C873 C872 1.370 . S
C873 C877 1.408 . S
C874 C872 1.363 . S
C874 C875 1.370 . S
C874 C878 1.524 . S
C875 C867 1.503 . S
C875 C874 1.370 . S
C875 C876 1.403 . S
C876 C875 1.403 . S
C876 C877 1.404 . S
C876 C879 1.539 . S
C877 C873 1.408 . S
C877 C876 1.404 . S
C877 H889 0.930 . S
C878 C874 1.524 . S
C878 H890 0.956 . S
C878 H891 0.961 . S
C878 H892 0.961 . S
C879 C876 1.539 . S
C879 H893 0.958 . S
C879 H894 0.961 . S
C879 H895 0.960 . S
H880 C864 0.931 . S
H881 C869 0.929 . S
H882 C870 0.960 . S
H883 C870 0.962 . S
H884 C870 0.960 . S
H885 C871 0.961 . S
H886 C871 0.961 . S
H887 C871 0.961 . S
H888 C872 0.931 . S
H889 C877 0.930 . S
H890 C878 0.956 . S
H891 C878 0.961 . S
H892 C878 0.961 . S
H893 C879 0.958 . S
H894 C879 0.961 . S
H895 C879 0.960 . S
C896 C897 1.391 . S
C896 C898 1.394 . S
C896 H912 0.931 . S
C897 C896 1.391 . S
C897 C901 1.376 . S
C898 C896 1.394 . S
C898 C899 1.369 . S
C898 C902 1.531 . S
C899 C898 1.369 . S
C899 C900 1.410 . S
C899 C907 1.503 . S
C900 C899 1.410 . S
C900 C901 1.392 . S
C900 C903 1.511 . S
C901 C897 1.376 . S
C901 C900 1.392 . S
C901 H913 0.929 . S
C902 C898 1.531 . S
C902 H914 0.960 . S
C902 H915 0.962 . S
C902 H916 0.960 . S
C903 C900 1.511 . S
C903 H917 0.961 . S
C903 H918 0.961 . S
C903 H919 0.961 . S
C904 C905 1.370 . S
C904 C906 1.363 . S
C904 H920 0.931 . S
C905 C904 1.370 . S
C905 C909 1.408 . S
C906 C904 1.363 . S
C906 C907 1.370 . S
C906 C910 1.524 . S
C907 C899 1.503 . S
C907 C906 1.370 . S
C907 C908 1.403 . S
C908 C907 1.403 . S
C908 C909 1.404 . S
C908 C911 1.539 . S
C909 C905 1.408 . S
C909 C908 1.404 . S
C909 H921 0.930 . S
C910 C906 1.524 . S
C910 H922 0.956 . S
C910 H923 0.961 . S
C910 H924 0.961 . S
C911 C908 1.539 . S
C911 H925 0.958 . S
C911 H926 0.961 . S
C911 H927 0.960 . S
H912 C896 0.931 . S
H913 C901 0.929 . S
H914 C902 0.960 . S
H915 C902 0.962 . S
H916 C902 0.960 . S
H917 C903 0.961 . S
H918 C903 0.961 . S
H919 C903 0.961 . S
H920 C904 0.931 . S
H921 C909 0.930 . S
H922 C910 0.956 . S
H923 C910 0.961 . S
H924 C910 0.961 . S
H925 C911 0.958 . S
H926 C911 0.961 . S
H927 C911 0.960 . S
C928 C929 1.391 . S
C928 C930 1.394 . S
C928 H944 0.931 . S
C929 C928 1.391 . S
C929 C933 1.376 . S
C930 C928 1.394 . S
C930 C931 1.369 . S
C930 C934 1.531 . S
C931 C930 1.369 . S
C931 C932 1.410 . S
C931 C939 1.503 . S
C932 C931 1.410 . S
C932 C933 1.392 . S
C932 C935 1.511 . S
C933 C929 1.376 . S
C933 C932 1.392 . S
C933 H945 0.929 . S
C934 C930 1.531 . S
C934 H946 0.960 . S
C934 H947 0.962 . S
C934 H948 0.960 . S
C935 C932 1.511 . S
C935 H949 0.961 . S
C935 H950 0.961 . S
C935 H951 0.961 . S
C936 C937 1.370 . S
C936 C938 1.363 . S
C936 H952 0.931 . S
C937 C936 1.370 . S
C937 C941 1.408 . S
C938 C936 1.363 . S
C938 C939 1.370 . S
C938 C942 1.524 . S
C939 C931 1.503 . S
C939 C938 1.370 . S
C939 C940 1.403 . S
C940 C939 1.403 . S
C940 C941 1.404 . S
C940 C943 1.539 . S
C941 C937 1.408 . S
C941 C940 1.404 . S
C941 H953 0.930 . S
C942 C938 1.524 . S
C942 H954 0.956 . S
C942 H955 0.961 . S
C942 H956 0.961 . S
C943 C940 1.539 . S
C943 H957 0.958 . S
C943 H958 0.961 . S
C943 H959 0.960 . S
H944 C928 0.931 . S
H945 C933 0.929 . S
H946 C934 0.960 . S
H947 C934 0.962 . S
H948 C934 0.960 . S
H949 C935 0.961 . S
H950 C935 0.961 . S
H951 C935 0.961 . S
H952 C936 0.931 . S
H953 C941 0.930 . S
H954 C942 0.956 . S
H955 C942 0.961 . S
H956 C942 0.961 . S
H957 C943 0.958 . S
H958 C943 0.961 . S
H959 C943 0.960 . S
C960 C961 1.391 . S
C960 C962 1.394 . S
C960 H976 0.931 . S
C961 C960 1.391 . S
C961 C965 1.376 . S
C962 C960 1.394 . S
C962 C963 1.369 . S
C962 C966 1.531 . S
C963 C962 1.369 . S
C963 C964 1.410 . S
C963 C971 1.503 . S
C964 C963 1.410 . S
C964 C965 1.392 . S
C964 C967 1.511 . S
C965 C961 1.376 . S
C965 C964 1.392 . S
C965 H977 0.929 . S
C966 C962 1.531 . S
C966 H978 0.960 . S
C966 H979 0.962 . S
C966 H980 0.960 . S
C967 C964 1.511 . S
C967 H981 0.961 . S
C967 H982 0.961 . S
C967 H983 0.961 . S
C968 C969 1.370 . S
C968 C970 1.363 . S
C968 H984 0.931 . S
C969 C968 1.370 . S
C969 C973 1.408 . S
C970 C968 1.363 . S
C970 C971 1.370 . S
C970 C974 1.524 . S
C971 C963 1.503 . S
C971 C970 1.370 . S
C971 C972 1.403 . S
C972 C971 1.403 . S
C972 C973 1.404 . S
C972 C975 1.539 . S
C973 C969 1.408 . S
C973 C972 1.404 . S
C973 H985 0.930 . S
C974 C970 1.524 . S
C974 H986 0.956 . S
C974 H987 0.961 . S
C974 H988 0.961 . S
C975 C972 1.539 . S
C975 H989 0.958 . S
C975 H990 0.961 . S
C975 H991 0.960 . S
H976 C960 0.931 . S
H977 C965 0.929 . S
H978 C966 0.960 . S
H979 C966 0.962 . S
H980 C966 0.960 . S
H981 C967 0.961 . S
H982 C967 0.961 . S
H983 C967 0.961 . S
H984 C968 0.931 . S
H985 C973 0.930 . S
H986 C974 0.956 . S
H987 C974 0.961 . S
H988 C974 0.961 . S
H989 C975 0.958 . S
H990 C975 0.961 . S
H991 C975 0.960 . S
C992 C993 1.391 . S
C992 C994 1.394 . S
C992 H1008 0.931 . S
C993 C992 1.391 . S
C993 C997 1.376 . S
C994 C992 1.394 . S
C994 C995 1.369 . S
C994 C998 1.531 1_554 S
C995 C994 1.369 . S
C995 C996 1.410 . S
C995 C1003 1.503 1_544 S
C996 C995 1.410 . S
C996 C997 1.392 . S
C996 C999 1.511 1_545 S
C997 C993 1.376 . S
C997 C996 1.392 . S
C997 H1009 0.929 . S
C998 C994 1.531 1_556 S
C998 H1010 0.960 . S
C998 H1011 0.962 . S
C998 H1012 0.960 . S
C999 C996 1.511 1_565 S
C999 H1013 0.961 . S
C999 H1014 0.961 . S
C999 H1015 0.961 . S
C1000 C1001 1.370 . S
C1000 C1002 1.363 . S
C1000 H1016 0.931 . S
C1001 C1000 1.370 . S
C1001 C1005 1.408 . S
C1002 C1000 1.363 . S
C1002 C1003 1.370 . S
C1002 C1006 1.524 1_556 S
C1003 C995 1.503 1_566 S
C1003 C1002 1.370 . S
C1003 C1004 1.403 . S
C1004 C1003 1.403 . S
C1004 C1005 1.404 . S
C1004 C1007 1.539 1_565 S
C1005 C1001 1.408 . S
C1005 C1004 1.404 . S
C1005 H1017 0.930 . S
C1006 C1002 1.524 1_554 S
C1006 H1018 0.956 . S
C1006 H1019 0.961 . S
C1006 H1020 0.961 . S
C1007 C1004 1.539 1_545 S
C1007 H1021 0.958 . S
C1007 H1022 0.961 1_545 S
C1007 H1023 0.960 . S
H1008 C992 0.931 . S
H1009 C997 0.929 . S
H1010 C998 0.960 . S
H1011 C998 0.962 . S
H1012 C998 0.960 . S
H1013 C999 0.961 . S
H1014 C999 0.961 . S
H1015 C999 0.961 . S
H1016 C1000 0.931 . S
H1017 C1005 0.930 . S
H1018 C1006 0.956 . S
H1019 C1006 0.961 . S
H1020 C1006 0.961 . S
H1021 C1007 0.958 . S
H1022 C1007 0.961 1_565 S
H1023 C1007 0.960 . S
C1024 C1025 1.391 . S
C1024 C1026 1.394 . S
C1024 H1040 0.931 . S
C1025 C1024 1.391 . S
C1025 C1029 1.376 . S
C1026 C1024 1.394 . S
C1026 C1027 1.369 . S
C1026 C1030 1.531 1_655 S
C1027 C1026 1.369 . S
C1027 C1028 1.410 . S
C1027 C1035 1.503 1_654 S
C1028 C1027 1.410 . S
C1028 C1029 1.392 . S
C1028 C1031 1.511 1_554 S
C1029 C1025 1.376 . S
C1029 C1028 1.392 . S
C1029 H1041 0.929 . S
C1030 C1026 1.531 1_455 S
C1030 H1042 0.960 . S
C1030 H1043 0.962 . S
C1030 H1044 0.960 . S
C1031 C1028 1.511 1_556 S
C1031 H1045 0.961 . S
C1031 H1046 0.961 . S
C1031 H1047 0.961 . S
C1032 C1033 1.370 . S
C1032 C1034 1.363 . S
C1032 H1048 0.931 . S
C1033 C1032 1.370 . S
C1033 C1037 1.408 . S
C1034 C1032 1.363 . S
C1034 C1035 1.370 . S
C1034 C1038 1.524 . S
C1035 C1027 1.503 1_456 S
C1035 C1034 1.370 . S
C1035 C1036 1.403 . S
C1036 C1035 1.403 . S
C1036 C1037 1.404 . S
C1036 C1039 1.539 . S
C1037 C1033 1.408 . S
C1037 C1036 1.404 . S
C1037 H1049 0.930 . S
C1038 C1034 1.524 . S
C1038 H1050 0.956 1_556 S
C1038 H1051 0.961 1_455 S
C1038 H1052 0.961 . S
C1039 C1036 1.539 . S
C1039 H1053 0.958 . S
C1039 H1054 0.961 1_455 S
C1039 H1055 0.960 1_455 S
H1040 C1024 0.931 . S
H1041 C1029 0.929 . S
H1042 C1030 0.960 . S
H1043 C1030 0.962 . S
H1044 C1030 0.960 . S
H1045 C1031 0.961 . S
H1046 C1031 0.961 . S
H1047 C1031 0.961 . S
H1048 C1032 0.931 . S
H1049 C1037 0.930 . S
H1050 C1038 0.956 1_554 S
H1051 C1038 0.961 1_655 S
H1052 C1038 0.961 . S
H1053 C1039 0.958 . S
H1054 C1039 0.961 1_655 S
H1055 C1039 0.960 1_655 S
C1056 C1057 1.391 . S
C1056 C1058 1.394 . S
C1056 H1072 0.931 . S
C1057 C1056 1.391 . S
C1057 C1061 1.376 . S
C1058 C1056 1.394 . S
C1058 C1059 1.369 . S
C1058 C1062 1.531 1_545 S
C1059 C1058 1.369 . S
C1059 C1060 1.410 . S
C1059 C1067 1.503 1_546 S
C1060 C1059 1.410 . S
C1060 C1061 1.392 . S
C1060 C1063 1.511 1_556 S
C1061 C1057 1.376 . S
C1061 C1060 1.392 . S
C1061 H1073 0.929 . S
C1062 C1058 1.531 1_565 S
C1062 H1074 0.960 . S
C1062 H1075 0.962 . S
C1062 H1076 0.960 . S
C1063 C1060 1.511 1_554 S
C1063 H1077 0.961 . S
C1063 H1078 0.961 . S
C1063 H1079 0.961 . S
C1064 C1065 1.370 . S
C1064 C1066 1.363 . S
C1064 H1080 0.931 . S
C1065 C1064 1.370 . S
C1065 C1069 1.408 . S
C1066 C1064 1.363 . S
C1066 C1067 1.370 . S
C1066 C1070 1.524 1_565 S
C1067 C1059 1.503 1_564 S
C1067 C1066 1.370 . S
C1067 C1068 1.403 . S
C1068 C1067 1.403 . S
C1068 C1069 1.404 . S
C1068 C1071 1.539 1_554 S
C1069 C1065 1.408 . S
C1069 C1068 1.404 . S
C1069 H1081 0.930 . S
C1070 C1066 1.524 1_545 S
C1070 H1082 0.956 . S
C1070 H1083 0.961 . S
C1070 H1084 0.961 . S
C1071 C1068 1.539 1_556 S
C1071 H1085 0.958 . S
C1071 H1086 0.961 . S
C1071 H1087 0.960 . S
H1072 C1056 0.931 . S
H1073 C1061 0.929 . S
H1074 C1062 0.960 . S
H1075 C1062 0.962 . S
H1076 C1062 0.960 . S
H1077 C1063 0.961 . S
H1078 C1063 0.961 . S
H1079 C1063 0.961 . S
H1080 C1064 0.931 . S
H1081 C1069 0.930 . S
H1082 C1070 0.956 . S
H1083 C1070 0.961 . S
H1084 C1070 0.961 . S
H1085 C1071 0.958 . S
H1086 C1071 0.961 . S
H1087 C1071 0.960 . S
C1088 C1089 1.391 . S
C1088 C1090 1.394 . S
C1088 H1104 0.931 . S
C1089 C1088 1.391 . S
C1089 C1093 1.376 . S
C1090 C1088 1.394 . S
C1090 C1091 1.369 . S
C1090 C1094 1.531 1_655 S
C1091 C1090 1.369 . S
C1091 C1092 1.410 . S
C1091 C1099 1.503 1_656 S
C1092 C1091 1.410 . S
C1092 C1093 1.392 . S
C1092 C1095 1.511 . S
C1093 C1089 1.376 . S
C1093 C1092 1.392 . S
C1093 H1105 0.929 . S
C1094 C1090 1.531 1_455 S
C1094 H1106 0.960 . S
C1094 H1107 0.943 1_455 S
C1094 H1108 0.960 . S
C1095 C1092 1.511 . S
C1095 H1109 0.961 . S
C1095 H1110 0.961 1_556 S
C1095 H1111 0.961 . S
C1096 C1097 1.370 . S
C1096 C1098 1.363 . S
C1096 H1112 0.931 . S
C1097 C1096 1.370 . S
C1097 C1101 1.408 . S
C1098 C1096 1.363 . S
C1098 C1099 1.370 . S
C1098 C1102 1.524 1_455 S
C1099 C1091 1.503 1_454 S
C1099 C1098 1.370 . S
C1099 C1100 1.403 . S
C1100 C1099 1.403 . S
C1100 C1101 1.404 . S
C1100 C1103 1.539 1_554 S
C1101 C1097 1.408 . S
C1101 C1100 1.404 . S
C1101 H1113 0.930 . S
C1102 C1098 1.524 1_655 S
C1102 H1114 0.956 . S
C1102 H1115 0.961 . S
C1102 H1116 0.961 . S
C1103 C1100 1.539 1_556 S
C1103 H1117 0.958 . S
C1103 H1118 0.961 . S
C1103 H1119 0.960 . S
H1104 C1088 0.931 . S
H1105 C1093 0.929 . S
H1106 C1094 0.960 . S
H1107 C1094 0.943 1_655 S
H1108 C1094 0.960 . S
H1109 C1095 0.961 . S
H1110 C1095 0.961 1_554 S
H1111 C1095 0.961 . S
H1112 C1096 0.931 . S
H1113 C1101 0.930 . S
H1114 C1102 0.956 . S
H1115 C1102 0.961 . S
H1116 C1102 0.961 . S
H1117 C1103 0.958 . S
H1118 C1103 0.961 . S
H1119 C1103 0.960 . S
C1120 C1121 1.391 . S
C1120 C1122 1.394 . S
C1120 H1136 0.931 . S
C1121 C1120 1.391 . S
C1121 C1125 1.376 . S
C1122 C1120 1.394 . S
C1122 C1123 1.369 . S
C1122 C1126 1.531 . S
C1123 C1122 1.369 . S
C1123 C1124 1.410 . S
C1123 C1131 1.503 . S
C1124 C1123 1.410 . S
C1124 C1125 1.392 . S
C1124 C1127 1.511 . S
C1125 C1121 1.376 . S
C1125 C1124 1.392 . S
C1125 H1137 0.929 . S
C1126 C1122 1.531 . S
C1126 H1138 0.960 . S
C1126 H1139 0.962 . S
C1126 H1140 0.960 . S
C1127 C1124 1.511 . S
C1127 H1141 0.961 . S
C1127 H1142 0.961 . S
C1127 H1143 0.961 . S
C1128 C1129 1.370 . S
C1128 C1130 1.363 1_556 S
C1128 H1144 0.931 . S
C1129 C1128 1.370 . S
C1129 C1133 1.408 . S
C1130 C1128 1.363 1_554 S
C1130 C1131 1.370 . S
C1130 C1134 1.524 . S
C1131 C1123 1.503 . S
C1131 C1130 1.370 . S
C1131 C1132 1.403 . S
C1132 C1131 1.403 . S
C1132 C1133 1.404 1_554 S
C1132 C1135 1.539 . S
C1133 C1129 1.408 . S
C1133 C1132 1.404 1_556 S
C1133 H1145 0.930 . S
C1134 C1130 1.524 . S
C1134 H1146 0.956 . S
C1134 H1147 0.961 . S
C1134 H1148 0.961 1_554 S
C1135 C1132 1.539 . S
C1135 H1149 0.958 . S
C1135 H1150 0.961 . S
C1135 H1151 0.960 . S
H1136 C1120 0.931 . S
H1137 C1125 0.929 . S
H1138 C1126 0.960 . S
H1139 C1126 0.962 . S
H1140 C1126 0.960 . S
H1141 C1127 0.961 . S
H1142 C1127 0.961 . S
H1143 C1127 0.961 . S
H1144 C1128 0.931 . S
H1145 C1133 0.930 . S
H1146 C1134 0.956 . S
H1147 C1134 0.961 . S
H1148 C1134 0.961 1_556 S
H1149 C1135 0.958 . S
H1150 C1135 0.961 . S
H1151 C1135 0.960 . S
C1152 C1153 1.391 . S
C1152 C1154 1.394 1_554 S
C1152 H1168 0.931 . S
C1153 C1152 1.391 . S
C1153 C1157 1.376 . S
C1154 C1152 1.394 1_556 S
C1154 C1155 1.369 . S
C1154 C1158 1.531 . S
C1155 C1154 1.369 . S
C1155 C1156 1.410 . S
C1155 C1163 1.503 . S
C1156 C1155 1.410 . S
C1156 C1157 1.392 1_556 S
C1156 C1159 1.511 . S
C1157 C1153 1.376 . S
C1157 C1156 1.392 1_554 S
C1157 H1169 0.929 . S
C1158 C1154 1.531 . S
C1158 H1170 0.960 . S
C1158 H1171 0.962 . S
C1158 H1172 0.960 1_556 S
C1159 C1156 1.511 . S
C1159 H1173 0.961 . S
C1159 H1174 0.961 . S
C1159 H1175 0.961 . S
C1160 C1161 1.370 . S
C1160 C1162 1.363 . S
C1160 H1176 0.931 . S
C1161 C1160 1.370 . S
C1161 C1165 1.408 . S
C1162 C1160 1.363 . S
C1162 C1163 1.370 . S
C1162 C1166 1.524 . S
C1163 C1155 1.503 . S
C1163 C1162 1.370 . S
C1163 C1164 1.403 . S
C1164 C1163 1.403 . S
C1164 C1165 1.404 . S
C1164 C1167 1.539 . S
C1165 C1161 1.408 . S
C1165 C1164 1.404 . S
C1165 H1177 0.930 . S
C1166 C1162 1.524 . S
C1166 H1178 0.956 . S
C1166 H1179 0.961 . S
C1166 H1180 0.961 . S
C1167 C1164 1.539 . S
C1167 H1181 0.958 . S
C1167 H1182 0.961 . S
C1167 H1183 0.960 . S
H1168 C1152 0.931 . S
H1169 C1157 0.929 . S
H1170 C1158 0.960 . S
H1171 C1158 0.962 . S
H1172 C1158 0.960 1_554 S
H1173 C1159 0.961 . S
H1174 C1159 0.961 . S
H1175 C1159 0.961 . S
H1176 C1160 0.931 . S
H1177 C1165 0.930 . S
H1178 C1166 0.956 . S
H1179 C1166 0.961 . S
H1180 C1166 0.961 . S
H1181 C1167 0.958 . S
H1182 C1167 0.961 . S
H1183 C1167 0.960 . S
C1184 C1185 1.391 . S
C1184 C1186 1.394 1_556 S
C1184 H1200 0.931 . S
C1185 C1184 1.391 . S
C1185 C1189 1.376 . S
C1186 C1184 1.394 1_554 S
C1186 C1187 1.369 . S
C1186 C1190 1.531 . S
C1187 C1186 1.369 . S
C1187 C1188 1.410 . S
C1187 C1195 1.503 . S
C1188 C1187 1.410 . S
C1188 C1189 1.392 1_554 S
C1188 C1191 1.511 . S
C1189 C1185 1.376 . S
C1189 C1188 1.392 1_556 S
C1189 H1201 0.929 . S
C1190 C1186 1.531 . S
C1190 H1202 0.960 . S
C1190 H1203 0.962 . S
C1190 H1204 0.960 1_554 S
C1191 C1188 1.511 . S
C1191 H1205 0.961 . S
C1191 H1206 0.961 . S
C1191 H1207 0.961 . S
C1192 C1193 1.370 . S
C1192 C1194 1.363 . S
C1192 H1208 0.931 . S
C1193 C1192 1.370 . S
C1193 C1197 1.408 . S
C1194 C1192 1.363 . S
C1194 C1195 1.370 . S
C1194 C1198 1.524 . S
C1195 C1187 1.503 . S
C1195 C1194 1.370 . S
C1195 C1196 1.403 . S
C1196 C1195 1.403 . S
C1196 C1197 1.404 . S
C1196 C1199 1.539 . S
C1197 C1193 1.408 . S
C1197 C1196 1.404 . S
C1197 H1209 0.930 . S
C1198 C1194 1.524 . S
C1198 H1210 0.956 . S
C1198 H1211 0.961 . S
C1198 H1212 0.961 . S
C1199 C1196 1.539 . S
C1199 H1213 0.958 . S
C1199 H1214 0.961 . S
C1199 H1215 0.960 . S
H1200 C1184 0.931 . S
H1201 C1189 0.929 . S
H1202 C1190 0.960 . S
H1203 C1190 0.962 . S
H1204 C1190 0.960 1_556 S
H1205 C1191 0.961 . S
H1206 C1191 0.961 . S
H1207 C1191 0.961 . S
H1208 C1192 0.931 . S
H1209 C1197 0.930 . S
H1210 C1198 0.956 . S
H1211 C1198 0.961 . S
H1212 C1198 0.961 . S
H1213 C1199 0.958 . S
H1214 C1199 0.961 . S
H1215 C1199 0.960 . S
C1216 C1217 1.391 . S
C1216 C1218 1.394 1_554 S
C1216 H1232 0.931 . S
C1217 C1216 1.391 . S
C1217 C1221 1.376 . S
C1218 C1216 1.394 1_556 S
C1218 C1219 1.369 . S
C1218 C1222 1.531 . S
C1219 C1218 1.369 . S
C1219 C1220 1.410 . S
C1219 C1227 1.503 . S
C1220 C1219 1.410 . S
C1220 C1221 1.392 1_556 S
C1220 C1223 1.511 . S
C1221 C1217 1.376 . S
C1221 C1220 1.392 1_554 S
C1221 H1233 0.929 . S
C1222 C1218 1.531 . S
C1222 H1234 0.960 . S
C1222 H1235 0.962 . S
C1222 H1236 0.960 1_556 S
C1223 C1220 1.511 . S
C1223 H1237 0.961 . S
C1223 H1238 0.961 . S
C1223 H1239 0.961 . S
C1224 C1225 1.370 . S
C1224 C1226 1.363 . S
C1224 H1240 0.931 . S
C1225 C1224 1.370 . S
C1225 C1229 1.408 . S
C1226 C1224 1.363 . S
C1226 C1227 1.370 . S
C1226 C1230 1.524 . S
C1227 C1219 1.503 . S
C1227 C1226 1.370 . S
C1227 C1228 1.403 . S
C1228 C1227 1.403 . S
C1228 C1229 1.404 . S
C1228 C1231 1.539 . S
C1229 C1225 1.408 . S
C1229 C1228 1.404 . S
C1229 H1241 0.930 . S
C1230 C1226 1.524 . S
C1230 H1242 0.956 . S
C1230 H1243 0.961 . S
C1230 H1244 0.961 . S
C1231 C1228 1.539 . S
C1231 H1245 0.958 . S
C1231 H1246 0.961 . S
C1231 H1247 0.960 . S
H1232 C1216 0.931 . S
H1233 C1221 0.929 . S
H1234 C1222 0.960 . S
H1235 C1222 0.962 . S
H1236 C1222 0.960 1_554 S
H1237 C1223 0.961 . S
H1238 C1223 0.961 . S
H1239 C1223 0.961 . S
H1240 C1224 0.931 . S
H1241 C1229 0.930 . S
H1242 C1230 0.956 . S
H1243 C1230 0.961 . S
H1244 C1230 0.961 . S
H1245 C1231 0.958 . S
H1246 C1231 0.961 . S
H1247 C1231 0.960 . S
C1248 C1249 1.391 . S
C1248 C1250 1.394 . S
C1248 H1264 0.931 . S
C1249 C1248 1.391 . S
C1249 C1253 1.376 . S
C1250 C1248 1.394 . S
C1250 C1251 1.369 . S
C1250 C1254 1.531 . S
C1251 C1250 1.369 . S
C1251 C1252 1.410 . S
C1251 C1259 1.503 . S
C1252 C1251 1.410 . S
C1252 C1253 1.392 . S
C1252 C1255 1.511 . S
C1253 C1249 1.376 . S
C1253 C1252 1.392 . S
C1253 H1265 0.929 . S
C1254 C1250 1.531 . S
C1254 H1266 0.960 . S
C1254 H1267 0.962 . S
C1254 H1268 0.960 . S
C1255 C1252 1.511 . S
C1255 H1269 0.961 . S
C1255 H1270 0.961 . S
C1255 H1271 0.961 . S
C1256 C1257 1.370 . S
C1256 C1258 1.363 1_554 S
C1256 H1272 0.931 . S
C1257 C1256 1.370 . S
C1257 C1261 1.408 . S
C1258 C1256 1.363 1_556 S
C1258 C1259 1.370 . S
C1258 C1262 1.524 . S
C1259 C1251 1.503 . S
C1259 C1258 1.370 . S
C1259 C1260 1.403 . S
C1260 C1259 1.403 . S
C1260 C1261 1.404 1_556 S
C1260 C1263 1.539 . S
C1261 C1257 1.408 . S
C1261 C1260 1.404 1_554 S
C1261 H1273 0.930 . S
C1262 C1258 1.524 . S
C1262 H1274 0.956 . S
C1262 H1275 0.961 . S
C1262 H1276 0.961 1_556 S
C1263 C1260 1.539 . S
C1263 H1277 0.958 . S
C1263 H1278 0.961 . S
C1263 H1279 0.960 . S
H1264 C1248 0.931 . S
H1265 C1253 0.929 . S
H1266 C1254 0.960 . S
H1267 C1254 0.962 . S
H1268 C1254 0.960 . S
H1269 C1255 0.961 . S
H1270 C1255 0.961 . S
H1271 C1255 0.961 . S
H1272 C1256 0.931 . S
H1273 C1261 0.930 . S
H1274 C1262 0.956 . S
H1275 C1262 0.961 . S
H1276 C1262 0.961 1_554 S
H1277 C1263 0.958 . S
H1278 C1263 0.961 . S
H1279 C1263 0.960 . S
C1280 C1281 1.391 . S
C1280 C1282 1.394 . S
C1280 H1296 0.931 . S
C1281 C1280 1.391 . S
C1281 C1285 1.376 . S
C1282 C1280 1.394 . S
C1282 C1283 1.369 . S
C1282 C1286 1.531 . S
C1283 C1282 1.369 . S
C1283 C1284 1.410 . S
C1283 C1291 1.503 . S
C1284 C1283 1.410 . S
C1284 C1285 1.392 . S
C1284 C1287 1.511 . S
C1285 C1281 1.376 . S
C1285 C1284 1.392 . S
C1285 H1297 0.929 . S
C1286 C1282 1.531 . S
C1286 H1298 0.960 . S
C1286 H1299 0.962 . S
C1286 H1300 0.960 . S
C1287 C1284 1.511 . S
C1287 H1301 0.961 . S
C1287 H1302 0.961 . S
C1287 H1303 0.961 . S
C1288 C1289 1.370 . S
C1288 C1290 1.363 1_556 S
C1288 H1304 0.931 . S
C1289 C1288 1.370 . S
C1289 C1293 1.408 . S
C1290 C1288 1.363 1_554 S
C1290 C1291 1.370 . S
C1290 C1294 1.524 . S
C1291 C1283 1.503 . S
C1291 C1290 1.370 . S
C1291 C1292 1.403 . S
C1292 C1291 1.403 . S
C1292 C1293 1.404 1_554 S
C1292 C1295 1.539 . S
C1293 C1289 1.408 . S
C1293 C1292 1.404 1_556 S
C1293 H1305 0.930 . S
C1294 C1290 1.524 . S
C1294 H1306 0.956 . S
C1294 H1307 0.961 . S
C1294 H1308 0.961 . S
C1295 C1292 1.539 . S
C1295 H1309 0.958 1_554 S
C1295 H1310 0.961 1_554 S
C1295 H1311 0.960 . S
H1296 C1280 0.931 . S
H1297 C1285 0.929 . S
H1298 C1286 0.960 . S
H1299 C1286 0.962 . S
H1300 C1286 0.960 . S
H1301 C1287 0.961 . S
H1302 C1287 0.961 . S
H1303 C1287 0.961 . S
H1304 C1288 0.931 . S
H1305 C1293 0.930 . S
H1306 C1294 0.956 . S
H1307 C1294 0.961 . S
H1308 C1294 0.961 . S
H1309 C1295 0.958 1_556 S
H1310 C1295 0.961 1_556 S
H1311 C1295 0.960 . S
C1312 C1313 1.391 . S
C1312 C1314 1.394 . S
C1312 H1328 0.931 . S
C1313 C1312 1.391 . S
C1313 C1317 1.376 . S
C1314 C1312 1.394 . S
C1314 C1315 1.369 . S
C1314 C1318 1.531 . S
C1315 C1314 1.369 . S
C1315 C1316 1.410 . S
C1315 C1323 1.503 . S
C1316 C1315 1.410 . S
C1316 C1317 1.392 . S
C1316 C1319 1.511 . S
C1317 C1313 1.376 . S
C1317 C1316 1.392 . S
C1317 H1329 0.929 . S
C1318 C1314 1.531 . S
C1318 H1330 0.960 . S
C1318 H1331 0.962 . S
C1318 H1332 0.960 . S
C1319 C1316 1.511 . S
C1319 H1333 0.961 . S
C1319 H1334 0.961 . S
C1319 H1335 0.961 . S
C1320 C1321 1.370 . S
C1320 C1322 1.363 1_554 S
C1320 H1336 0.931 . S
C1321 C1320 1.370 . S
C1321 C1325 1.408 . S
C1322 C1320 1.363 1_556 S
C1322 C1323 1.370 . S
C1322 C1326 1.524 . S
C1323 C1315 1.503 . S
C1323 C1322 1.370 . S
C1323 C1324 1.402 1_556 S
C1324 C1323 1.402 1_554 S
C1324 C1325 1.404 . S
C1324 C1327 1.539 . S
C1325 C1321 1.408 . S
C1325 C1324 1.404 . S
C1325 H1337 0.930 . S
C1326 C1322 1.524 . S
C1326 H1338 0.956 . S
C1326 H1339 0.961 . S
C1326 H1340 0.961 . S
C1327 C1324 1.539 . S
C1327 H1341 0.958 . S
C1327 H1342 0.962 . S
C1327 H1343 0.959 1_554 S
H1328 C1312 0.931 . S
H1329 C1317 0.929 . S
H1330 C1318 0.960 . S
H1331 C1318 0.962 . S
H1332 C1318 0.960 . S
H1333 C1319 0.961 . S
H1334 C1319 0.961 . S
H1335 C1319 0.961 . S
H1336 C1320 0.931 . S
H1337 C1325 0.930 . S
H1338 C1326 0.956 . S
H1339 C1326 0.961 . S
H1340 C1326 0.961 . S
H1341 C1327 0.958 . S
H1342 C1327 0.962 . S
H1343 C1327 0.959 1_556 S
C1344 C1345 1.391 . S
C1344 C1346 1.394 1_556 S
C1344 H1360 0.931 . S
C1345 C1344 1.391 . S
C1345 C1349 1.376 . S
C1346 C1344 1.394 1_554 S
C1346 C1347 1.369 . S
C1346 C1350 1.531 . S
C1347 C1346 1.369 . S
C1347 C1348 1.410 . S
C1347 C1355 1.503 . S
C1348 C1347 1.410 . S
C1348 C1349 1.392 1_554 S
C1348 C1351 1.511 . S
C1349 C1345 1.376 . S
C1349 C1348 1.392 1_556 S
C1349 H1361 0.929 . S
C1350 C1346 1.531 . S
C1350 H1362 0.960 . S
C1350 H1363 0.962 . S
C1350 H1364 0.960 . S
C1351 C1348 1.511 . S
C1351 H1365 0.961 1_554 S
C1351 H1366 0.961 . S
C1351 H1367 0.961 . S
C1352 C1353 1.370 . S
C1352 C1354 1.363 . S
C1352 H1368 0.931 . S
C1353 C1352 1.370 . S
C1353 C1357 1.408 . S
C1354 C1352 1.363 . S
C1354 C1355 1.370 . S
C1354 C1358 1.524 . S
C1355 C1347 1.503 . S
C1355 C1354 1.370 . S
C1355 C1356 1.403 . S
C1356 C1355 1.403 . S
C1356 C1357 1.404 . S
C1356 C1359 1.539 . S
C1357 C1353 1.408 . S
C1357 C1356 1.404 . S
C1357 H1369 0.930 . S
C1358 C1354 1.524 . S
C1358 H1370 0.956 . S
C1358 H1371 0.961 . S
C1358 H1372 0.961 . S
C1359 C1356 1.539 . S
C1359 H1373 0.958 . S
C1359 H1374 0.961 . S
C1359 H1375 0.960 . S
H1360 C1344 0.931 . S
H1361 C1349 0.929 . S
H1362 C1350 0.960 . S
H1363 C1350 0.962 . S
H1364 C1350 0.960 . S
H1365 C1351 0.961 1_556 S
H1366 C1351 0.961 . S
H1367 C1351 0.961 . S
H1368 C1352 0.931 . S
H1369 C1357 0.930 . S
H1370 C1358 0.956 . S
H1371 C1358 0.961 . S
H1372 C1358 0.961 . S
H1373 C1359 0.958 . S
H1374 C1359 0.961 . S
H1375 C1359 0.960 . S
C1376 C1377 1.391 . S
C1376 C1378 1.394 . S
C1376 H1392 0.931 . S
C1377 C1376 1.391 . S
C1377 C1381 1.376 . S
C1378 C1376 1.394 . S
C1378 C1379 1.369 . S
C1378 C1382 1.531 . S
C1379 C1378 1.369 . S
C1379 C1380 1.410 . S
C1379 C1387 1.503 . S
C1380 C1379 1.410 . S
C1380 C1381 1.392 . S
C1380 C1383 1.511 . S
C1381 C1377 1.376 . S
C1381 C1380 1.392 . S
C1381 H1393 0.929 . S
C1382 C1378 1.531 . S
C1382 H1394 0.960 . S
C1382 H1395 0.962 . S
C1382 H1396 0.960 . S
C1383 C1380 1.511 . S
C1383 H1397 0.961 . S
C1383 H1398 0.961 . S
C1383 H1399 0.961 . S
C1384 C1385 1.370 . S
C1384 C1386 1.363 . S
C1384 H1400 0.931 . S
C1385 C1384 1.370 . S
C1385 C1389 1.408 . S
C1386 C1384 1.363 . S
C1386 C1387 1.370 . S
C1386 C1390 1.524 . S
C1387 C1379 1.503 . S
C1387 C1386 1.370 . S
C1387 C1388 1.403 . S
C1388 C1387 1.403 . S
C1388 C1389 1.404 . S
C1388 C1391 1.539 . S
C1389 C1385 1.408 . S
C1389 C1388 1.404 . S
C1389 H1401 0.930 . S
C1390 C1386 1.524 . S
C1390 H1402 0.956 . S
C1390 H1403 0.961 . S
C1390 H1404 0.961 . S
C1391 C1388 1.539 . S
C1391 H1405 0.958 . S
C1391 H1406 0.961 . S
C1391 H1407 0.960 . S
H1392 C1376 0.931 . S
H1393 C1381 0.929 . S
H1394 C1382 0.960 . S
H1395 C1382 0.962 . S
H1396 C1382 0.960 . S
H1397 C1383 0.961 . S
H1398 C1383 0.961 . S
H1399 C1383 0.961 . S
H1400 C1384 0.931 . S
H1401 C1389 0.930 . S
H1402 C1390 0.956 . S
H1403 C1390 0.961 . S
H1404 C1390 0.961 . S
H1405 C1391 0.958 . S
H1406 C1391 0.961 . S
H1407 C1391 0.960 . S
C1408 C1409 1.391 . S
C1408 C1410 1.394 . S
C1408 H1424 0.931 . S
C1409 C1408 1.391 . S
C1409 C1413 1.376 . S
C1410 C1408 1.394 . S
C1410 C1411 1.369 . S
C1410 C1414 1.531 . S
C1411 C1410 1.369 . S
C1411 C1412 1.410 . S
C1411 C1419 1.503 . S
C1412 C1411 1.410 . S
C1412 C1413 1.392 . S
C1412 C1415 1.511 . S
C1413 C1409 1.376 . S
C1413 C1412 1.392 . S
C1413 H1425 0.929 . S
C1414 C1410 1.531 . S
C1414 H1426 0.960 . S
C1414 H1427 0.962 . S
C1414 H1428 0.960 . S
C1415 C1412 1.511 . S
C1415 H1429 0.961 . S
C1415 H1430 0.961 . S
C1415 H1431 0.961 . S
C1416 C1417 1.370 . S
C1416 C1418 1.363 . S
C1416 H1432 0.931 . S
C1417 C1416 1.370 . S
C1417 C1421 1.408 . S
C1418 C1416 1.363 . S
C1418 C1419 1.370 . S
C1418 C1422 1.524 . S
C1419 C1411 1.503 . S
C1419 C1418 1.370 . S
C1419 C1420 1.403 . S
C1420 C1419 1.403 . S
C1420 C1421 1.404 . S
C1420 C1423 1.539 . S
C1421 C1417 1.408 . S
C1421 C1420 1.404 . S
C1421 H1433 0.930 . S
C1422 C1418 1.524 . S
C1422 H1434 0.956 . S
C1422 H1435 0.961 . S
C1422 H1436 0.961 . S
C1423 C1420 1.539 . S
C1423 H1437 0.958 . S
C1423 H1438 0.961 . S
C1423 H1439 0.960 . S
H1424 C1408 0.931 . S
H1425 C1413 0.929 . S
H1426 C1414 0.960 . S
H1427 C1414 0.962 . S
H1428 C1414 0.960 . S
H1429 C1415 0.961 . S
H1430 C1415 0.961 . S
H1431 C1415 0.961 . S
H1432 C1416 0.931 . S
H1433 C1421 0.930 . S
H1434 C1422 0.956 . S
H1435 C1422 0.961 . S
H1436 C1422 0.961 . S
H1437 C1423 0.958 . S
H1438 C1423 0.961 . S
H1439 C1423 0.960 . S
C1440 C1441 1.391 . S
C1440 C1442 1.394 . S
C1440 H1456 0.931 . S
C1441 C1440 1.391 . S
C1441 C1445 1.376 . S
C1442 C1440 1.394 . S
C1442 C1443 1.369 . S
C1442 C1446 1.531 . S
C1443 C1442 1.369 . S
C1443 C1444 1.410 . S
C1443 C1451 1.503 . S
C1444 C1443 1.410 . S
C1444 C1445 1.392 . S
C1444 C1447 1.511 . S
C1445 C1441 1.376 . S
C1445 C1444 1.392 . S
C1445 H1457 0.929 . S
C1446 C1442 1.531 . S
C1446 H1458 0.960 . S
C1446 H1459 0.962 . S
C1446 H1460 0.960 . S
C1447 C1444 1.511 . S
C1447 H1461 0.961 . S
C1447 H1462 0.961 . S
C1447 H1463 0.961 . S
C1448 C1449 1.370 . S
C1448 C1450 1.363 . S
C1448 H1464 0.931 . S
C1449 C1448 1.370 . S
C1449 C1453 1.408 . S
C1450 C1448 1.363 . S
C1450 C1451 1.370 . S
C1450 C1454 1.524 . S
C1451 C1443 1.503 . S
C1451 C1450 1.370 . S
C1451 C1452 1.403 . S
C1452 C1451 1.403 . S
C1452 C1453 1.404 . S
C1452 C1455 1.539 . S
C1453 C1449 1.408 . S
C1453 C1452 1.404 . S
C1453 H1465 0.930 . S
C1454 C1450 1.524 . S
C1454 H1466 0.956 . S
C1454 H1467 0.961 . S
C1454 H1468 0.961 . S
C1455 C1452 1.539 . S
C1455 H1469 0.958 . S
C1455 H1470 0.961 . S
C1455 H1471 0.960 . S
H1456 C1440 0.931 . S
H1457 C1445 0.929 . S
H1458 C1446 0.960 . S
H1459 C1446 0.962 . S
H1460 C1446 0.960 . S
H1461 C1447 0.961 . S
H1462 C1447 0.961 . S
H1463 C1447 0.961 . S
H1464 C1448 0.931 . S
H1465 C1453 0.930 . S
H1466 C1454 0.956 . S
H1467 C1454 0.961 . S
H1468 C1454 0.961 . S
H1469 C1455 0.958 . S
H1470 C1455 0.961 . S
H1471 C1455 0.960 . S
C1472 C1473 1.391 . S
C1472 C1474 1.394 . S
C1472 H1488 0.931 . S
C1473 C1472 1.391 . S
C1473 C1477 1.376 . S
C1474 C1472 1.394 . S
C1474 C1475 1.369 . S
C1474 C1478 1.531 . S
C1475 C1474 1.369 . S
C1475 C1476 1.410 . S
C1475 C1483 1.503 . S
C1476 C1475 1.410 . S
C1476 C1477 1.392 . S
C1476 C1479 1.511 . S
C1477 C1473 1.376 . S
C1477 C1476 1.392 . S
C1477 H1489 0.929 . S
C1478 C1474 1.531 . S
C1478 H1490 0.960 . S
C1478 H1491 0.962 . S
C1478 H1492 0.960 . S
C1479 C1476 1.511 . S
C1479 H1493 0.961 . S
C1479 H1494 0.961 . S
C1479 H1495 0.961 . S
C1480 C1481 1.370 . S
C1480 C1482 1.363 . S
C1480 H1496 0.931 . S
C1481 C1480 1.370 . S
C1481 C1485 1.408 . S
C1482 C1480 1.363 . S
C1482 C1483 1.370 . S
C1482 C1486 1.524 . S
C1483 C1475 1.503 . S
C1483 C1482 1.370 . S
C1483 C1484 1.403 . S
C1484 C1483 1.403 . S
C1484 C1485 1.404 . S
C1484 C1487 1.539 . S
C1485 C1481 1.408 . S
C1485 C1484 1.404 . S
C1485 H1497 0.930 . S
C1486 C1482 1.524 . S
C1486 H1498 0.956 . S
C1486 H1499 0.961 . S
C1486 H1500 0.961 . S
C1487 C1484 1.539 . S
C1487 H1501 0.958 . S
C1487 H1502 0.961 . S
C1487 H1503 0.960 . S
H1488 C1472 0.931 . S
H1489 C1477 0.929 . S
H1490 C1478 0.960 . S
H1491 C1478 0.962 . S
H1492 C1478 0.960 . S
H1493 C1479 0.961 . S
H1494 C1479 0.961 . S
H1495 C1479 0.961 . S
H1496 C1480 0.931 . S
H1497 C1485 0.930 . S
H1498 C1486 0.956 . S
H1499 C1486 0.961 . S
H1500 C1486 0.961 . S
H1501 C1487 0.958 . S
H1502 C1487 0.961 . S
H1503 C1487 0.960 . S
C1504 C1505 1.391 . S
C1504 C1506 1.394 . S
C1504 H1520 0.931 . S
C1505 C1504 1.391 . S
C1505 C1509 1.376 . S
C1506 C1504 1.394 . S
C1506 C1507 1.369 . S
C1506 C1510 1.531 . S
C1507 C1506 1.369 . S
C1507 C1508 1.410 . S
C1507 C1515 1.503 . S
C1508 C1507 1.410 . S
C1508 C1509 1.392 . S
C1508 C1511 1.511 . S
C1509 C1505 1.376 . S
C1509 C1508 1.392 . S
C1509 H1521 0.929 . S
C1510 C1506 1.531 . S
C1510 H1522 0.960 . S
C1510 H1523 0.962 . S
C1510 H1524 0.960 . S
C1511 C1508 1.511 . S
C1511 H1525 0.961 . S
C1511 H1526 0.961 . S
C1511 H1527 0.961 . S
C1512 C1513 1.370 . S
C1512 C1514 1.363 . S
C1512 H1528 0.931 . S
C1513 C1512 1.370 . S
C1513 C1517 1.408 . S
C1514 C1512 1.363 . S
C1514 C1515 1.370 . S
C1514 C1518 1.524 . S
C1515 C1507 1.503 . S
C1515 C1514 1.370 . S
C1515 C1516 1.403 . S
C1516 C1515 1.403 . S
C1516 C1517 1.404 . S
C1516 C1519 1.539 . S
C1517 C1513 1.408 . S
C1517 C1516 1.404 . S
C1517 H1529 0.930 . S
C1518 C1514 1.524 . S
C1518 H1530 0.956 . S
C1518 H1531 0.961 . S
C1518 H1532 0.961 . S
C1519 C1516 1.539 . S
C1519 H1533 0.958 . S
C1519 H1534 0.961 . S
C1519 H1535 0.960 . S
H1520 C1504 0.931 . S
H1521 C1509 0.929 . S
H1522 C1510 0.960 . S
H1523 C1510 0.962 . S
H1524 C1510 0.960 . S
H1525 C1511 0.961 . S
H1526 C1511 0.961 . S
H1527 C1511 0.961 . S
H1528 C1512 0.931 . S
H1529 C1517 0.930 . S
H1530 C1518 0.956 . S
H1531 C1518 0.961 . S
H1532 C1518 0.961 . S
H1533 C1519 0.958 . S
H1534 C1519 0.961 . S
H1535 C1519 0.960 . S
C1536 C1537 1.391 . S
C1536 C1538 1.394 . S
C1536 H1552 0.931 . S
C1537 C1536 1.391 . S
C1537 C1541 1.376 . S
C1538 C1536 1.394 . S
C1538 C1539 1.369 . S
C1538 C1542 1.531 . S
C1539 C1538 1.369 . S
C1539 C1540 1.410 . S
C1539 C1547 1.503 . S
C1540 C1539 1.410 . S
C1540 C1541 1.392 . S
C1540 C1543 1.511 . S
C1541 C1537 1.376 . S
C1541 C1540 1.392 . S
C1541 H1553 0.929 . S
C1542 C1538 1.531 . S
C1542 H1554 0.960 . S
C1542 H1555 0.962 . S
C1542 H1556 0.960 . S
C1543 C1540 1.511 . S
C1543 H1557 0.961 . S
C1543 H1558 0.961 . S
C1543 H1559 0.961 . S
C1544 C1545 1.370 . S
C1544 C1546 1.363 . S
C1544 H1560 0.931 . S
C1545 C1544 1.370 . S
C1545 C1549 1.408 . S
C1546 C1544 1.363 . S
C1546 C1547 1.370 . S
C1546 C1550 1.524 . S
C1547 C1539 1.503 . S
C1547 C1546 1.370 . S
C1547 C1548 1.403 . S
C1548 C1547 1.403 . S
C1548 C1549 1.404 . S
C1548 C1551 1.539 . S
C1549 C1545 1.408 . S
C1549 C1548 1.404 . S
C1549 H1561 0.930 . S
C1550 C1546 1.524 . S
C1550 H1562 0.956 . S
C1550 H1563 0.961 . S
C1550 H1564 0.961 . S
C1551 C1548 1.539 . S
C1551 H1565 0.958 . S
C1551 H1566 0.961 . S
C1551 H1567 0.960 . S
H1552 C1536 0.931 . S
H1553 C1541 0.929 . S
H1554 C1542 0.960 . S
H1555 C1542 0.962 . S
H1556 C1542 0.960 . S
H1557 C1543 0.961 . S
H1558 C1543 0.961 . S
H1559 C1543 0.961 . S
H1560 C1544 0.931 . S
H1561 C1549 0.930 . S
H1562 C1550 0.956 . S
H1563 C1550 0.961 . S
H1564 C1550 0.961 . S
H1565 C1551 0.958 . S
H1566 C1551 0.961 . S
H1567 C1551 0.960 . S
C1568 C1569 1.391 . S
C1568 C1570 1.394 . S
C1568 H1584 0.931 . S
C1569 C1568 1.391 . S
C1569 C1573 1.376 . S
C1570 C1568 1.394 . S
C1570 C1571 1.369 . S
C1570 C1574 1.531 . S
C1571 C1570 1.369 . S
C1571 C1572 1.410 . S
C1571 C1579 1.503 . S
C1572 C1571 1.410 . S
C1572 C1573 1.392 . S
C1572 C1575 1.511 . S
C1573 C1569 1.376 . S
C1573 C1572 1.392 . S
C1573 H1585 0.929 . S
C1574 C1570 1.531 . S
C1574 H1586 0.960 . S
C1574 H1587 0.962 . S
C1574 H1588 0.960 . S
C1575 C1572 1.511 . S
C1575 H1589 0.961 . S
C1575 H1590 0.961 . S
C1575 H1591 0.961 . S
C1576 C1577 1.370 . S
C1576 C1578 1.363 . S
C1576 H1592 0.931 . S
C1577 C1576 1.370 . S
C1577 C1581 1.408 . S
C1578 C1576 1.363 . S
C1578 C1579 1.370 . S
C1578 C1582 1.524 . S
C1579 C1571 1.503 . S
C1579 C1578 1.370 . S
C1579 C1580 1.403 . S
C1580 C1579 1.403 . S
C1580 C1581 1.404 . S
C1580 C1583 1.539 . S
C1581 C1577 1.408 . S
C1581 C1580 1.404 . S
C1581 H1593 0.930 . S
C1582 C1578 1.524 . S
C1582 H1594 0.956 . S
C1582 H1595 0.961 . S
C1582 H1596 0.961 . S
C1583 C1580 1.539 . S
C1583 H1597 0.958 . S
C1583 H1598 0.961 . S
C1583 H1599 0.960 . S
H1584 C1568 0.931 . S
H1585 C1573 0.929 . S
H1586 C1574 0.960 . S
H1587 C1574 0.962 . S
H1588 C1574 0.960 . S
H1589 C1575 0.961 . S
H1590 C1575 0.961 . S
H1591 C1575 0.961 . S
H1592 C1576 0.931 . S
H1593 C1581 0.930 . S
H1594 C1582 0.956 . S
H1595 C1582 0.961 . S
H1596 C1582 0.961 . S
H1597 C1583 0.958 . S
H1598 C1583 0.961 . S
H1599 C1583 0.960 . S
C1600 C1601 1.391 . S
C1600 C1602 1.394 . S
C1600 H1616 0.931 . S
C1601 C1600 1.391 . S
C1601 C1605 1.376 . S
C1602 C1600 1.394 . S
C1602 C1603 1.369 . S
C1602 C1606 1.531 . S
C1603 C1602 1.369 . S
C1603 C1604 1.410 . S
C1603 C1611 1.503 . S
C1604 C1603 1.410 . S
C1604 C1605 1.392 . S
C1604 C1607 1.511 . S
C1605 C1601 1.376 . S
C1605 C1604 1.392 . S
C1605 H1617 0.929 . S
C1606 C1602 1.531 . S
C1606 H1618 0.960 . S
C1606 H1619 0.962 . S
C1606 H1620 0.960 . S
C1607 C1604 1.511 . S
C1607 H1621 0.961 . S
C1607 H1622 0.961 . S
C1607 H1623 0.961 . S
C1608 C1609 1.370 . S
C1608 C1610 1.363 . S
C1608 H1624 0.931 . S
C1609 C1608 1.370 . S
C1609 C1613 1.408 . S
C1610 C1608 1.363 . S
C1610 C1611 1.370 . S
C1610 C1614 1.524 . S
C1611 C1603 1.503 . S
C1611 C1610 1.370 . S
C1611 C1612 1.403 . S
C1612 C1611 1.403 . S
C1612 C1613 1.404 . S
C1612 C1615 1.539 . S
C1613 C1609 1.408 . S
C1613 C1612 1.404 . S
C1613 H1625 0.930 . S
C1614 C1610 1.524 . S
C1614 H1626 0.956 . S
C1614 H1627 0.961 . S
C1614 H1628 0.961 . S
C1615 C1612 1.539 . S
C1615 H1629 0.958 . S
C1615 H1630 0.961 . S
C1615 H1631 0.960 . S
H1616 C1600 0.931 . S
H1617 C1605 0.929 . S
H1618 C1606 0.960 . S
H1619 C1606 0.962 . S
H1620 C1606 0.960 . S
H1621 C1607 0.961 . S
H1622 C1607 0.961 . S
H1623 C1607 0.961 . S
H1624 C1608 0.931 . S
H1625 C1613 0.930 . S
H1626 C1614 0.956 . S
H1627 C1614 0.961 . S
H1628 C1614 0.961 . S
H1629 C1615 0.958 . S
H1630 C1615 0.961 . S
H1631 C1615 0.960 . S
C1632 C1633 1.391 . S
C1632 C1634 1.394 . S
C1632 H1648 0.931 . S
C1633 C1632 1.391 . S
C1633 C1637 1.376 . S
C1634 C1632 1.394 . S
C1634 C1635 1.369 . S
C1634 C1638 1.531 . S
C1635 C1634 1.369 . S
C1635 C1636 1.410 . S
C1635 C1643 1.503 . S
C1636 C1635 1.410 . S
C1636 C1637 1.392 . S
C1636 C1639 1.511 . S
C1637 C1633 1.376 . S
C1637 C1636 1.392 . S
C1637 H1649 0.929 . S
C1638 C1634 1.531 . S
C1638 H1650 0.960 . S
C1638 H1651 0.962 . S
C1638 H1652 0.960 . S
C1639 C1636 1.511 . S
C1639 H1653 0.961 . S
C1639 H1654 0.961 . S
C1639 H1655 0.961 . S
C1640 C1641 1.370 . S
C1640 C1642 1.363 . S
C1640 H1656 0.931 . S
C1641 C1640 1.370 . S
C1641 C1645 1.408 . S
C1642 C1640 1.363 . S
C1642 C1643 1.370 . S
C1642 C1646 1.524 . S
C1643 C1635 1.503 . S
C1643 C1642 1.370 . S
C1643 C1644 1.403 . S
C1644 C1643 1.403 . S
C1644 C1645 1.404 . S
C1644 C1647 1.539 . S
C1645 C1641 1.408 . S
C1645 C1644 1.404 . S
C1645 H1657 0.930 . S
C1646 C1642 1.524 . S
C1646 H1658 0.956 . S
C1646 H1659 0.961 . S
C1646 H1660 0.961 . S
C1647 C1644 1.539 . S
C1647 H1661 0.958 . S
C1647 H1662 0.961 . S
C1647 H1663 0.960 . S
H1648 C1632 0.931 . S
H1649 C1637 0.929 . S
H1650 C1638 0.960 . S
H1651 C1638 0.962 . S
H1652 C1638 0.960 . S
H1653 C1639 0.961 . S
H1654 C1639 0.961 . S
H1655 C1639 0.961 . S
H1656 C1640 0.931 . S
H1657 C1645 0.930 . S
H1658 C1646 0.956 . S
H1659 C1646 0.961 . S
H1660 C1646 0.961 . S
H1661 C1647 0.958 . S
H1662 C1647 0.961 . S
H1663 C1647 0.960 . S
C1664 C1665 1.391 . S
C1664 C1666 1.394 . S
C1664 H1680 0.931 . S
C1665 C1664 1.391 . S
C1665 C1669 1.376 . S
C1666 C1664 1.394 . S
C1666 C1667 1.369 . S
C1666 C1670 1.531 . S
C1667 C1666 1.369 . S
C1667 C1668 1.410 . S
C1667 C1675 1.503 . S
C1668 C1667 1.410 . S
C1668 C1669 1.392 . S
C1668 C1671 1.511 . S
C1669 C1665 1.376 . S
C1669 C1668 1.392 . S
C1669 H1681 0.929 . S
C1670 C1666 1.531 . S
C1670 H1682 0.960 . S
C1670 H1683 0.962 . S
C1670 H1684 0.960 . S
C1671 C1668 1.511 . S
C1671 H1685 0.961 . S
C1671 H1686 0.961 . S
C1671 H1687 0.961 . S
C1672 C1673 1.370 . S
C1672 C1674 1.363 . S
C1672 H1688 0.931 . S
C1673 C1672 1.370 . S
C1673 C1677 1.408 . S
C1674 C1672 1.363 . S
C1674 C1675 1.370 . S
C1674 C1678 1.524 . S
C1675 C1667 1.503 . S
C1675 C1674 1.370 . S
C1675 C1676 1.403 . S
C1676 C1675 1.403 . S
C1676 C1677 1.404 . S
C1676 C1679 1.539 . S
C1677 C1673 1.408 . S
C1677 C1676 1.404 . S
C1677 H1689 0.930 . S
C1678 C1674 1.524 . S
C1678 H1690 0.956 . S
C1678 H1691 0.961 . S
C1678 H1692 0.961 . S
C1679 C1676 1.539 . S
C1679 H1693 0.958 . S
C1679 H1694 0.961 . S
C1679 H1695 0.960 . S
H1680 C1664 0.931 . S
H1681 C1669 0.929 . S
H1682 C1670 0.960 . S
H1683 C1670 0.962 . S
H1684 C1670 0.960 . S
H1685 C1671 0.961 . S
H1686 C1671 0.961 . S
H1687 C1671 0.961 . S
H1688 C1672 0.931 . S
H1689 C1677 0.930 . S
H1690 C1678 0.956 . S
H1691 C1678 0.961 . S
H1692 C1678 0.961 . S
H1693 C1679 0.958 . S
H1694 C1679 0.961 . S
H1695 C1679 0.960 . S
C1696 C1697 1.391 . S
C1696 C1698 1.394 . S
C1696 H1712 0.931 . S
C1697 C1696 1.391 . S
C1697 C1701 1.376 . S
C1698 C1696 1.394 . S
C1698 C1699 1.369 . S
C1698 C1702 1.531 . S
C1699 C1698 1.369 . S
C1699 C1700 1.410 . S
C1699 C1707 1.503 . S
C1700 C1699 1.410 . S
C1700 C1701 1.392 . S
C1700 C1703 1.511 . S
C1701 C1697 1.376 . S
C1701 C1700 1.392 . S
C1701 H1713 0.929 . S
C1702 C1698 1.531 . S
C1702 H1714 0.960 . S
C1702 H1715 0.962 . S
C1702 H1716 0.960 . S
C1703 C1700 1.511 . S
C1703 H1717 0.961 . S
C1703 H1718 0.961 . S
C1703 H1719 0.961 . S
C1704 C1705 1.370 . S
C1704 C1706 1.363 . S
C1704 H1720 0.931 . S
C1705 C1704 1.370 . S
C1705 C1709 1.408 . S
C1706 C1704 1.363 . S
C1706 C1707 1.370 . S
C1706 C1710 1.524 . S
C1707 C1699 1.503 . S
C1707 C1706 1.370 . S
C1707 C1708 1.403 . S
C1708 C1707 1.403 . S
C1708 C1709 1.404 . S
C1708 C1711 1.539 . S
C1709 C1705 1.408 . S
C1709 C1708 1.404 . S
C1709 H1721 0.930 . S
C1710 C1706 1.524 . S
C1710 H1722 0.956 . S
C1710 H1723 0.961 . S
C1710 H1724 0.961 . S
C1711 C1708 1.539 . S
C1711 H1725 0.958 . S
C1711 H1726 0.961 . S
C1711 H1727 0.960 . S
H1712 C1696 0.931 . S
H1713 C1701 0.929 . S
H1714 C1702 0.960 . S
H1715 C1702 0.962 . S
H1716 C1702 0.960 . S
H1717 C1703 0.961 . S
H1718 C1703 0.961 . S
H1719 C1703 0.961 . S
H1720 C1704 0.931 . S
H1721 C1709 0.930 . S
H1722 C1710 0.956 . S
H1723 C1710 0.961 . S
H1724 C1710 0.961 . S
H1725 C1711 0.958 . S
H1726 C1711 0.961 . S
H1727 C1711 0.960 . S
C1728 C1729 1.391 . S
C1728 C1730 1.394 . S
C1728 H1744 0.931 . S
C1729 C1728 1.391 . S
C1729 C1733 1.376 . S
C1730 C1728 1.394 . S
C1730 C1731 1.369 . S
C1730 C1734 1.531 . S
C1731 C1730 1.369 . S
C1731 C1732 1.410 . S
C1731 C1739 1.503 . S
C1732 C1731 1.410 . S
C1732 C1733 1.392 . S
C1732 C1735 1.511 . S
C1733 C1729 1.376 . S
C1733 C1732 1.392 . S
C1733 H1745 0.929 . S
C1734 C1730 1.531 . S
C1734 H1746 0.960 . S
C1734 H1747 0.962 . S
C1734 H1748 0.960 . S
C1735 C1732 1.511 . S
C1735 H1749 0.961 . S
C1735 H1750 0.961 . S
C1735 H1751 0.961 . S
C1736 C1737 1.370 . S
C1736 C1738 1.363 . S
C1736 H1752 0.931 . S
C1737 C1736 1.370 . S
C1737 C1741 1.408 . S
C1738 C1736 1.363 . S
C1738 C1739 1.370 . S
C1738 C1742 1.524 . S
C1739 C1731 1.503 . S
C1739 C1738 1.370 . S
C1739 C1740 1.403 . S
C1740 C1739 1.403 . S
C1740 C1741 1.404 . S
C1740 C1743 1.539 . S
C1741 C1737 1.408 . S
C1741 C1740 1.404 . S
C1741 H1753 0.930 . S
C1742 C1738 1.524 . S
C1742 H1754 0.956 . S
C1742 H1755 0.961 . S
C1742 H1756 0.961 . S
C1743 C1740 1.539 . S
C1743 H1757 0.958 . S
C1743 H1758 0.961 . S
C1743 H1759 0.960 . S
H1744 C1728 0.931 . S
H1745 C1733 0.929 . S
H1746 C1734 0.960 . S
H1747 C1734 0.962 . S
H1748 C1734 0.960 . S
H1749 C1735 0.961 . S
H1750 C1735 0.961 . S
H1751 C1735 0.961 . S
H1752 C1736 0.931 . S
H1753 C1741 0.930 . S
H1754 C1742 0.956 . S
H1755 C1742 0.961 . S
H1756 C1742 0.961 . S
H1757 C1743 0.958 . S
H1758 C1743 0.961 . S
H1759 C1743 0.960 . S
C1760 C1761 1.391 . S
C1760 C1762 1.394 . S
C1760 H1776 0.931 . S
C1761 C1760 1.391 . S
C1761 C1765 1.376 . S
C1762 C1760 1.394 . S
C1762 C1763 1.369 . S
C1762 C1766 1.531 . S
C1763 C1762 1.369 . S
C1763 C1764 1.410 . S
C1763 C1771 1.503 . S
C1764 C1763 1.410 . S
C1764 C1765 1.392 . S
C1764 C1767 1.511 . S
C1765 C1761 1.376 . S
C1765 C1764 1.392 . S
C1765 H1777 0.929 . S
C1766 C1762 1.531 . S
C1766 H1778 0.960 . S
C1766 H1779 0.962 . S
C1766 H1780 0.960 . S
C1767 C1764 1.511 . S
C1767 H1781 0.961 . S
C1767 H1782 0.961 . S
C1767 H1783 0.961 . S
C1768 C1769 1.370 . S
C1768 C1770 1.363 . S
C1768 H1784 0.931 . S
C1769 C1768 1.370 . S
C1769 C1773 1.408 . S
C1770 C1768 1.363 . S
C1770 C1771 1.370 . S
C1770 C1774 1.524 . S
C1771 C1763 1.503 . S
C1771 C1770 1.370 . S
C1771 C1772 1.403 . S
C1772 C1771 1.403 . S
C1772 C1773 1.404 . S
C1772 C1775 1.539 . S
C1773 C1769 1.408 . S
C1773 C1772 1.404 . S
C1773 H1785 0.930 . S
C1774 C1770 1.524 . S
C1774 H1786 0.956 . S
C1774 H1787 0.961 . S
C1774 H1788 0.961 . S
C1775 C1772 1.539 . S
C1775 H1789 0.958 . S
C1775 H1790 0.961 . S
C1775 H1791 0.960 . S
H1776 C1760 0.931 . S
H1777 C1765 0.929 . S
H1778 C1766 0.960 . S
H1779 C1766 0.962 . S
H1780 C1766 0.960 . S
H1781 C1767 0.961 . S
H1782 C1767 0.961 . S
H1783 C1767 0.961 . S
H1784 C1768 0.931 . S
H1785 C1773 0.930 . S
H1786 C1774 0.956 . S
H1787 C1774 0.961 . S
H1788 C1774 0.961 . S
H1789 C1775 0.958 . S
H1790 C1775 0.961 . S
H1791 C1775 0.960 . S
C1792 C1793 1.391 . S
C1792 C1794 1.394 . S
C1792 H1808 0.931 . S
C1793 C1792 1.391 . S
C1793 C1797 1.376 . S
C1794 C1792 1.394 . S
C1794 C1795 1.369 . S
C1794 C1798 1.531 . S
C1795 C1794 1.369 . S
C1795 C1796 1.410 . S
C1795 C1803 1.503 . S
C1796 C1795 1.410 . S
C1796 C1797 1.392 . S
C1796 C1799 1.511 . S
C1797 C1793 1.376 . S
C1797 C1796 1.392 . S
C1797 H1809 0.929 . S
C1798 C1794 1.531 . S
C1798 H1810 0.960 . S
C1798 H1811 0.962 . S
C1798 H1812 0.960 . S
C1799 C1796 1.511 . S
C1799 H1813 0.961 . S
C1799 H1814 0.961 . S
C1799 H1815 0.961 . S
C1800 C1801 1.370 . S
C1800 C1802 1.363 . S
C1800 H1816 0.931 . S
C1801 C1800 1.370 . S
C1801 C1805 1.408 . S
C1802 C1800 1.363 . S
C1802 C1803 1.370 . S
C1802 C1806 1.524 . S
C1803 C1795 1.503 . S
C1803 C1802 1.370 . S
C1803 C1804 1.403 . S
C1804 C1803 1.403 . S
C1804 C1805 1.404 . S
C1804 C1807 1.539 . S
C1805 C1801 1.408 . S
C1805 C1804 1.404 . S
C1805 H1817 0.930 . S
C1806 C1802 1.524 . S
C1806 H1818 0.956 . S
C1806 H1819 0.961 . S
C1806 H1820 0.961 . S
C1807 C1804 1.539 . S
C1807 H1821 0.958 . S
C1807 H1822 0.961 . S
C1807 H1823 0.960 . S
H1808 C1792 0.931 . S
H1809 C1797 0.929 . S
H1810 C1798 0.960 . S
H1811 C1798 0.962 . S
H1812 C1798 0.960 . S
H1813 C1799 0.961 . S
H1814 C1799 0.961 . S
H1815 C1799 0.961 . S
H1816 C1800 0.931 . S
H1817 C1805 0.930 . S
H1818 C1806 0.956 . S
H1819 C1806 0.961 . S
H1820 C1806 0.961 . S
H1821 C1807 0.958 . S
H1822 C1807 0.961 . S
H1823 C1807 0.960 . S
C1824 C1825 1.391 . S
C1824 C1826 1.394 . S
C1824 H1840 0.931 . S
C1825 C1824 1.391 . S
C1825 C1829 1.376 . S
C1826 C1824 1.394 . S
C1826 C1827 1.369 . S
C1826 C1830 1.531 . S
C1827 C1826 1.369 . S
C1827 C1828 1.410 . S
C1827 C1835 1.503 . S
C1828 C1827 1.410 . S
C1828 C1829 1.392 . S
C1828 C1831 1.511 . S
C1829 C1825 1.376 . S
C1829 C1828 1.392 . S
C1829 H1841 0.929 . S
C1830 C1826 1.531 . S
C1830 H1842 0.960 . S
C1830 H1843 0.962 . S
C1830 H1844 0.960 . S
C1831 C1828 1.511 . S
C1831 H1845 0.961 . S
C1831 H1846 0.961 . S
C1831 H1847 0.961 . S
C1832 C1833 1.370 . S
C1832 C1834 1.363 . S
C1832 H1848 0.931 . S
C1833 C1832 1.370 . S
C1833 C1837 1.408 . S
C1834 C1832 1.363 . S
C1834 C1835 1.370 . S
C1834 C1838 1.524 . S
C1835 C1827 1.503 . S
C1835 C1834 1.370 . S
C1835 C1836 1.403 . S
C1836 C1835 1.403 . S
C1836 C1837 1.404 . S
C1836 C1839 1.539 . S
C1837 C1833 1.408 . S
C1837 C1836 1.404 . S
C1837 H1849 0.930 . S
C1838 C1834 1.524 . S
C1838 H1850 0.956 . S
C1838 H1851 0.961 . S
C1838 H1852 0.961 . S
C1839 C1836 1.539 . S
C1839 H1853 0.958 . S
C1839 H1854 0.961 . S
C1839 H1855 0.960 . S
H1840 C1824 0.931 . S
H1841 C1829 0.929 . S
H1842 C1830 0.960 . S
H1843 C1830 0.962 . S
H1844 C1830 0.960 . S
H1845 C1831 0.961 . S
H1846 C1831 0.961 . S
H1847 C1831 0.961 . S
H1848 C1832 0.931 . S
H1849 C1837 0.930 . S
H1850 C1838 0.956 . S
H1851 C1838 0.961 . S
H1852 C1838 0.961 . S
H1853 C1839 0.958 . S
H1854 C1839 0.961 . S
H1855 C1839 0.960 . S
C1856 C1857 1.391 . S
C1856 C1858 1.394 . S
C1856 H1872 0.931 . S
C1857 C1856 1.391 . S
C1857 C1861 1.376 . S
C1858 C1856 1.394 . S
C1858 C1859 1.369 . S
C1858 C1862 1.531 . S
C1859 C1858 1.369 . S
C1859 C1860 1.410 . S
C1859 C1867 1.503 . S
C1860 C1859 1.410 . S
C1860 C1861 1.392 . S
C1860 C1863 1.511 . S
C1861 C1857 1.376 . S
C1861 C1860 1.392 . S
C1861 H1873 0.929 . S
C1862 C1858 1.531 . S
C1862 H1874 0.960 . S
C1862 H1875 0.962 . S
C1862 H1876 0.960 . S
C1863 C1860 1.511 . S
C1863 H1877 0.961 . S
C1863 H1878 0.961 . S
C1863 H1879 0.961 . S
C1864 C1865 1.370 . S
C1864 C1866 1.363 . S
C1864 H1880 0.931 . S
C1865 C1864 1.370 . S
C1865 C1869 1.408 . S
C1866 C1864 1.363 . S
C1866 C1867 1.370 . S
C1866 C1870 1.524 . S
C1867 C1859 1.503 . S
C1867 C1866 1.370 . S
C1867 C1868 1.403 . S
C1868 C1867 1.403 . S
C1868 C1869 1.404 . S
C1868 C1871 1.539 . S
C1869 C1865 1.408 . S
C1869 C1868 1.404 . S
C1869 H1881 0.930 . S
C1870 C1866 1.524 . S
C1870 H1882 0.956 . S
C1870 H1883 0.961 . S
C1870 H1884 0.961 . S
C1871 C1868 1.539 . S
C1871 H1885 0.958 . S
C1871 H1886 0.961 . S
C1871 H1887 0.960 . S
H1872 C1856 0.931 . S
H1873 C1861 0.929 . S
H1874 C1862 0.960 . S
H1875 C1862 0.962 . S
H1876 C1862 0.960 . S
H1877 C1863 0.961 . S
H1878 C1863 0.961 . S
H1879 C1863 0.961 . S
H1880 C1864 0.931 . S
H1881 C1869 0.930 . S
H1882 C1870 0.956 . S
H1883 C1870 0.961 . S
H1884 C1870 0.961 . S
H1885 C1871 0.958 . S
H1886 C1871 0.961 . S
H1887 C1871 0.960 . S
C353 C15 1.410 . S
C361 C257 1.452 . S
C385 C37 1.450 . S
C393 C183 1.457 . S
C417 C205 1.437 . S
C425 C65 1.439 . S
C449 C241 1.451 . S
C457 C73 1.449 . S
C481 C103 1.452 . S
C489 C307 1.450 . S
C513 C131 1.425 . S
C521 C323 1.450 . S
C545 C345 1.445 . S
C553 C147 1.443 . S
C577 C285 1.461 . S
C585 C161 1.443 . S
C609 C191 1.452 . S
C617 C81 1.449 . S
C641 C7 1.461 . S
C649 C219 1.436 . S
C673 C43 1.444 . S
C681 C227 1.443 . S
C705 C249 1.431 . S
C713 C59 1.449 . S
C737 C271 1.411 . S
C745 C117 1.451 . S
C769 C139 1.456 . S
C777 C301 1.433 . S
C801 C169 1.438 . S
C809 C329 1.441 . S
C833 C95 1.438 . S
C841 C337 1.446 . S
C865 C98 1.091 . S
C873 C10 1.081 . S
C897 C32 1.078 . S
C905 C118 1.056 . S
C929 C142 1.034 . S
C937 C52 1.057 . S
C961 C172 1.084 . S
C969 C84 1.060 . S
C993 C282 1.104 . S
C1001 C186 1.086 . S
C1025 C206 1.083 . S
C1033 C296 1.059 . S
C1057 C238 1.039 . S
C1065 C316 1.057 . S
C1089 C348 1.056 . S
C1097 C260 1.051 . S
C1121 C21 1.429 . S
C1129 C294 1.462 . S
C1153 C318 1.464 . S
C1161 C29 1.445 . S
C1185 C340 1.453 . S
C1193 C51 1.445 . S
C1217 C272 1.464 . S
C1225 C87 1.448 . S
C1249 C109 1.430 . S
C1257 C252 1.463 . S
C1281 C125 1.452 . S
C1289 C194 1.456 . S
C1313 C153 1.465 . S
C1321 C216 1.466 . S
C1345 C228 1.443 . S
C1353 C175 1.439 . S
C1377 C128 1.467 . S
C1385 C197 1.453 . S
C1409 C150 1.443 . S
C1417 C213 1.440 . S
C1441 C235 1.463 . S
C1449 C164 1.465 . S
C1473 C106 1.443 . S
C1481 C263 1.437 . S
C1505 C76 1.453 . S
C1513 C279 1.446 . S
C1537 C293 1.419 . S
C1545 C18 1.454 . S
C1569 C30 1.467 . S
C1577 C315 1.455 . S
C1601 C351 1.457 . S
C1609 C54 1.458 . S
C1633 C162 1.179 . S
C1641 C8 1.170 . S
C1665 C96 1.153 . S
C1673 C40 1.165 . S
C1697 C120 1.183 . S
C1705 C62 1.172 . S
C1729 C140 1.166 . S
C1737 C74 1.169 . S
C1761 C184 1.163 . S
C1769 C338 1.168 . S
C1793 C274 1.141 . S
C1801 C208 1.161 . S
C1825 C304 1.177 . S
C1833 C230 1.169 . S
C1857 C250 1.183 . S
C1865 C326 1.172 . S
