# Generated by pormake.
# Topology wiu, (6)-cn, num edge types: 1
# Building blocks:
#     Node 0, Type 0, BuildingBlock: PAMTOO_clean_sbu_0, # of connection points: 6
#     Node 1, Type 0, BuildingBlock: PAMTOO_clean_sbu_0, # of connection points: 6
#     Node 2, Type 0, BuildingBlock: PAMTOO_clean_sbu_0, # of connection points: 6
#     Node 3, Type 0, BuildingBlock: PAMTOO_clean_sbu_0, # of connection points: 6
#     Node 4, Type 0, BuildingBlock: PAMTOO_clean_sbu_0, # of connection points: 6
#     Node 5, Type 0, BuildingBlock: PAMTOO_clean_sbu_0, # of connection points: 6
#     Node 6, Type 0, BuildingBlock: PAMTOO_clean_sbu_0, # of connection points: 6
#     Node 7, Type 0, BuildingBlock: PAMTOO_clean_sbu_0, # of connection points: 6
#     Node 8, Type 0, BuildingBlock: PAMTOO_clean_sbu_0, # of connection points: 6
#     Node 9, Type 0, BuildingBlock: PAMTOO_clean_sbu_0, # of connection points: 6
#     Node 10, Type 0, BuildingBlock: PAMTOO_clean_sbu_0, # of connection points: 6
#     Node 11, Type 0, BuildingBlock: PAMTOO_clean_sbu_0, # of connection points: 6
#     Node 12, Type 0, BuildingBlock: PAMTOO_clean_sbu_0, # of connection points: 6
#     Node 13, Type 0, BuildingBlock: PAMTOO_clean_sbu_0, # of connection points: 6
#     Node 14, Type 0, BuildingBlock: PAMTOO_clean_sbu_0, # of connection points: 6
#     Node 15, Type 0, BuildingBlock: PAMTOO_clean_sbu_0, # of connection points: 6
#     Edge 16, Type (0, 0), BuildingBlock: UVAHIK_clean_linker_0, # of connection points: 2
#     Edge 17, Type (0, 0), BuildingBlock: UVAHIK_clean_linker_0, # of connection points: 2
#     Edge 18, Type (0, 0), BuildingBlock: UVAHIK_clean_linker_0, # of connection points: 2
#     Edge 19, Type (0, 0), BuildingBlock: UVAHIK_clean_linker_0, # of connection points: 2
#     Edge 20, Type (0, 0), BuildingBlock: UVAHIK_clean_linker_0, # of connection points: 2
#     Edge 21, Type (0, 0), BuildingBlock: UVAHIK_clean_linker_0, # of connection points: 2
#     Edge 22, Type (0, 0), BuildingBlock: UVAHIK_clean_linker_0, # of connection points: 2
#     Edge 23, Type (0, 0), BuildingBlock: UVAHIK_clean_linker_0, # of connection points: 2
#     Edge 24, Type (0, 0), BuildingBlock: UVAHIK_clean_linker_0, # of connection points: 2
#     Edge 25, Type (0, 0), BuildingBlock: UVAHIK_clean_linker_0, # of connection points: 2
#     Edge 26, Type (0, 0), BuildingBlock: UVAHIK_clean_linker_0, # of connection points: 2
#     Edge 27, Type (0, 0), BuildingBlock: UVAHIK_clean_linker_0, # of connection points: 2
#     Edge 28, Type (0, 0), BuildingBlock: UVAHIK_clean_linker_0, # of connection points: 2
#     Edge 29, Type (0, 0), BuildingBlock: UVAHIK_clean_linker_0, # of connection points: 2
#     Edge 30, Type (0, 0), BuildingBlock: UVAHIK_clean_linker_0, # of connection points: 2
#     Edge 31, Type (0, 0), BuildingBlock: UVAHIK_clean_linker_0, # of connection points: 2
#     Edge 32, Type (0, 0), BuildingBlock: UVAHIK_clean_linker_0, # of connection points: 2
#     Edge 33, Type (0, 0), BuildingBlock: UVAHIK_clean_linker_0, # of connection points: 2
#     Edge 34, Type (0, 0), BuildingBlock: UVAHIK_clean_linker_0, # of connection points: 2
#     Edge 35, Type (0, 0), BuildingBlock: UVAHIK_clean_linker_0, # of connection points: 2
#     Edge 36, Type (0, 0), BuildingBlock: UVAHIK_clean_linker_0, # of connection points: 2
#     Edge 37, Type (0, 0), BuildingBlock: UVAHIK_clean_linker_0, # of connection points: 2
#     Edge 38, Type (0, 0), BuildingBlock: UVAHIK_clean_linker_0, # of connection points: 2
#     Edge 39, Type (0, 0), BuildingBlock: UVAHIK_clean_linker_0, # of connection points: 2
#     Edge 40, Type (0, 0), BuildingBlock: UVAHIK_clean_linker_0, # of connection points: 2
#     Edge 41, Type (0, 0), BuildingBlock: UVAHIK_clean_linker_0, # of connection points: 2
#     Edge 42, Type (0, 0), BuildingBlock: UVAHIK_clean_linker_0, # of connection points: 2
#     Edge 43, Type (0, 0), BuildingBlock: UVAHIK_clean_linker_0, # of connection points: 2
#     Edge 44, Type (0, 0), BuildingBlock: UVAHIK_clean_linker_0, # of connection points: 2
#     Edge 45, Type (0, 0), BuildingBlock: UVAHIK_clean_linker_0, # of connection points: 2
#     Edge 46, Type (0, 0), BuildingBlock: UVAHIK_clean_linker_0, # of connection points: 2
#     Edge 47, Type (0, 0), BuildingBlock: UVAHIK_clean_linker_0, # of connection points: 2
#     Edge 48, Type (0, 0), BuildingBlock: UVAHIK_clean_linker_0, # of connection points: 2
#     Edge 49, Type (0, 0), BuildingBlock: UVAHIK_clean_linker_0, # of connection points: 2
#     Edge 50, Type (0, 0), BuildingBlock: UVAHIK_clean_linker_0, # of connection points: 2
#     Edge 51, Type (0, 0), BuildingBlock: UVAHIK_clean_linker_0, # of connection points: 2
#     Edge 52, Type (0, 0), BuildingBlock: UVAHIK_clean_linker_0, # of connection points: 2
#     Edge 53, Type (0, 0), BuildingBlock: UVAHIK_clean_linker_0, # of connection points: 2
#     Edge 54, Type (0, 0), BuildingBlock: UVAHIK_clean_linker_0, # of connection points: 2
#     Edge 55, Type (0, 0), BuildingBlock: UVAHIK_clean_linker_0, # of connection points: 2
#     Edge 56, Type (0, 0), BuildingBlock: UVAHIK_clean_linker_0, # of connection points: 2
#     Edge 57, Type (0, 0), BuildingBlock: UVAHIK_clean_linker_0, # of connection points: 2
#     Edge 58, Type (0, 0), BuildingBlock: UVAHIK_clean_linker_0, # of connection points: 2
#     Edge 59, Type (0, 0), BuildingBlock: UVAHIK_clean_linker_0, # of connection points: 2
#     Edge 60, Type (0, 0), BuildingBlock: UVAHIK_clean_linker_0, # of connection points: 2
#     Edge 61, Type (0, 0), BuildingBlock: UVAHIK_clean_linker_0, # of connection points: 2
#     Edge 62, Type (0, 0), BuildingBlock: UVAHIK_clean_linker_0, # of connection points: 2
#     Edge 63, Type (0, 0), BuildingBlock: UVAHIK_clean_linker_0, # of connection points: 2
# Relax obj value: 0.395
# Max RMSD: 0.291
# Mean RMSD: 0.291
data_MOF--net-wiu--node1-PAMTOO_clean_sbu_0--edge1-UVAHIK_clean_linker_0
_symmetry_space_group_name_H-M    P1
_symmetry_Int_Tables_number       1
_symmetry_cell_setting            triclinic
loop_
_symmetry_equiv_pos_as_xyz
'x, y, z'
_cell_length_a     47.272424
_cell_length_b     47.203072
_cell_length_c     72.342174
_cell_angle_alpha  89.810933
_cell_angle_beta   89.919972
_cell_angle_gamma 90.166632
loop_
_atom_site_label
_atom_site_type_symbol
_atom_site_fract_x
_atom_site_fract_y
_atom_site_fract_z
_atom_type_partial_charge
Dy0 Dy 0.36595 0.08854 0.21097 0.0
Dy1 Dy 0.33059 0.14242 0.2251 0.0
C2 C 0.39487 0.14931 0.21304 0.0
O3 O 0.3654 0.08118 0.24153 0.0
O4 O 0.34404 0.12156 0.25233 0.0
O5 O 0.39896 0.0696 0.19471 0.0
O6 O 0.3726 0.04337 0.21259 0.0
O7 O 0.30231 0.10636 0.23179 0.0
O8 O 0.31996 0.07684 0.20962 0.0
O9 O 0.313 0.13502 0.19627 0.0
O10 O 0.34719 0.10574 0.18438 0.0
O11 O 0.29418 0.16996 0.22654 0.0
O12 O 0.33478 0.18302 0.23842 0.0
C13 C 0.35616 0.09666 0.2553 0.0
O14 O 0.39873 0.12246 0.21713 0.0
O15 O 0.3691 0.15818 0.21008 0.0
C16 C 0.3875 0.02346 0.1845 0.0
C17 C 0.39338 0.98599 0.15473 0.0
C18 C 0.38437 0.01413 0.15174 0.0
C19 C 0.38149 0.0327 0.16652 0.0
C20 C 0.39189 0.99456 0.18784 0.0
C21 C 0.39423 0.97577 0.17304 0.0
C22 C 0.39155 0.04388 0.19951 0.0
C23 C 0.29966 0.08429 0.22102 0.0
C24 C 0.32404 0.12103 0.1822 0.0
C25 C 0.29431 0.21135 0.24613 0.0
C26 C 0.26613 0.25958 0.2598 0.0
C27 C 0.25119 0.23414 0.25668 0.0
C28 C 0.26513 0.21027 0.24973 0.0
C29 C 0.30951 0.2359 0.25055 0.0
C30 C 0.29564 0.25974 0.25721 0.0
C31 C 0.3086 0.18987 0.23481 0.0
H32 H 0.38284 0.02307 0.13799 0.0
H33 H 0.37691 0.05477 0.1637 0.0
H34 H 0.39549 0.98687 0.20177 0.0
H35 H 0.39979 0.95397 0.17593 0.0
H36 H 0.22855 0.23298 0.25885 0.0
H37 H 0.2529 0.19156 0.24636 0.0
H38 H 0.33196 0.23742 0.24762 0.0
H39 H 0.308 0.27886 0.25901 0.0
Dy40 Dy 0.6716 0.6156 0.46038 0.0
Dy41 Dy 0.61831 0.57882 0.4747 0.0
C42 C 0.6104 0.64371 0.46307 0.0
O43 O 0.67856 0.61553 0.49099 0.0
O44 O 0.63937 0.59184 0.5019 0.0
O45 O 0.69037 0.64883 0.44402 0.0
O46 O 0.71656 0.62318 0.46222 0.0
O47 O 0.65494 0.55154 0.48136 0.0
O48 O 0.68401 0.56982 0.45902 0.0
O49 O 0.62603 0.56184 0.4457 0.0
O50 O 0.65487 0.59664 0.43377 0.0
O51 O 0.59131 0.54186 0.47468 0.0
O52 O 0.57858 0.58013 0.48944 0.0
C53 C 0.66368 0.60518 0.5048 0.0
O54 O 0.63741 0.64794 0.46638 0.0
O55 O 0.60121 0.61778 0.46085 0.0
C56 C 0.7369 0.63829 0.43422 0.0
C57 C 0.77511 0.6449 0.40483 0.0
C58 C 0.74722 0.63542 0.40155 0.0
C59 C 0.72827 0.63218 0.41616 0.0
C60 C 0.7656 0.64318 0.43783 0.0
C61 C 0.78477 0.64591 0.42322 0.0
C62 C 0.71605 0.64201 0.44903 0.0
C63 C 0.67701 0.54939 0.47053 0.0
C64 C 0.63988 0.5732 0.4316 0.0
C65 C 0.55216 0.53748 0.49597 0.0
C66 C 0.50383 0.50778 0.50831 0.0
C67 C 0.52642 0.49323 0.49998 0.0
C68 C 0.55032 0.50798 0.49377 0.0
C69 C 0.53091 0.55151 0.50592 0.0
C70 C 0.507 0.53682 0.51205 0.0
C71 C 0.57187 0.55436 0.48455 0.0
H72 H 0.73875 0.63381 0.38771 0.0
H73 H 0.70637 0.62724 0.41313 0.0
H74 H 0.77282 0.64691 0.45183 0.0
H75 H 0.80637 0.65192 0.4263 0.0
H76 H 0.52486 0.47074 0.49722 0.0
H77 H 0.56632 0.49656 0.4861 0.0
H78 H 0.53159 0.57429 0.50765 0.0
H79 H 0.48999 0.5488 0.51828 0.0
Dy80 Dy 0.14598 0.92246 0.71016 0.0
Dy81 Dy 0.18479 0.87302 0.72802 0.0
C82 C 0.12114 0.85872 0.71544 0.0
O83 O 0.14741 0.93447 0.74012 0.0
O84 O 0.1654 0.89423 0.75322 0.0
O85 O 0.11381 0.93801 0.6917 0.0
O86 O 0.13406 0.96645 0.71128 0.0
O87 O 0.20689 0.91395 0.7326 0.0
O88 O 0.19098 0.93624 0.70686 0.0
O89 O 0.20053 0.87506 0.69805 0.0
O90 O 0.16806 0.90541 0.68489 0.0
O91 O 0.22539 0.85245 0.73144 0.0
O92 O 0.18903 0.83934 0.74786 0.0
C93 C 0.15434 0.91974 0.75483 0.0
O94 O 0.11566 0.88611 0.71593 0.0
O95 O 0.14732 0.8496 0.71657 0.0
C96 C 0.12163 0.98574 0.68245 0.0
C97 C 0.1163 0.02605 0.65406 0.0
C98 C 0.12413 0.99789 0.65001 0.0
C99 C 0.1267 0.97791 0.66409 0.0
C100 C 0.11832 0.01447 0.68678 0.0
C101 C 0.11624 0.03463 0.67267 0.0
C102 C 0.11758 0.96425 0.69695 0.0
C103 C 0.21045 0.93266 0.71947 0.0
C104 C 0.19041 0.88881 0.68345 0.0
C105 C 0.22593 0.8061 0.74434 0.0
C106 C 0.24458 0.74995 0.74895 0.0
C107 C 0.2616 0.7728 0.7546 0.0
C108 C 0.25235 0.80059 0.75226 0.0
C109 C 0.20897 0.78351 0.73836 0.0
C110 C 0.21827 0.75562 0.74061 0.0
C111 C 0.21575 0.83537 0.7442 0.0
H112 H 0.12499 0.99016 0.63595 0.0
H113 H 0.13045 0.956 0.66044 0.0
H114 H 0.11539 0.02108 0.70098 0.0
H115 H 0.11153 0.05632 0.67636 0.0
H116 H 0.28179 0.76925 0.76126 0.0
H117 H 0.26555 0.81783 0.75713 0.0
H118 H 0.18842 0.78739 0.73225 0.0
H119 H 0.20487 0.73853 0.73581 0.0
Dy120 Dy 0.84026 0.39535 0.95968 0.0
Dy121 Dy 0.89267 0.4331 0.97429 0.0
C122 C 0.90184 0.36807 0.96305 0.0
O123 O 0.83234 0.39634 0.99025 0.0
O124 O 0.87129 0.41998 1.00138 0.0
O125 O 0.82197 0.3622 0.94316 0.0
O126 O 0.79552 0.38678 0.96179 0.0
O127 O 0.85506 0.45971 0.97991 0.0
O128 O 0.82785 0.44087 0.95693 0.0
O129 O 0.88607 0.44941 0.94498 0.0
O130 O 0.85702 0.41486 0.93308 0.0
O131 O 0.91868 0.47078 0.97433 0.0
O132 O 0.93199 0.4329 0.98943 0.0
C133 C 0.84689 0.40672 1.00414 0.0
O134 O 0.87474 0.36346 0.96584 0.0
O135 O 0.91099 0.39414 0.96121 0.0
C136 C 0.77503 0.37218 0.93385 0.0
C137 C 0.73578 0.36638 0.90506 0.0
C138 C 0.76375 0.37527 0.90133 0.0
C139 C 0.78322 0.37811 0.91563 0.0
C140 C 0.74637 0.36776 0.9379 0.0
C141 C 0.7267 0.36542 0.92359 0.0
C142 C 0.79622 0.36838 0.94843 0.0
C143 C 0.83397 0.46159 0.96828 0.0
C144 C 0.87229 0.43818 0.93088 0.0
C145 C 0.95703 0.47624 0.99604 0.0
C146 C 1.00447 0.50693 1.0086 0.0
C147 C 0.98195 0.52097 0.99981 0.0
C148 C 0.9585 0.50573 0.99348 0.0
C149 C 0.97808 0.46278 1.00651 0.0
C150 C 1.00155 0.47795 1.01275 0.0
C151 C 0.93815 0.45884 0.98447 0.0
H152 H 0.7718 0.37676 0.88735 0.0
H153 H 0.8051 0.38269 0.91224 0.0
H154 H 0.73951 0.36416 0.95202 0.0
H155 H 0.70509 0.35981 0.92702 0.0
H156 H 0.98329 0.5434 0.99673 0.0
H157 H 0.94264 0.51672 0.98541 0.0
H158 H 0.97768 0.44003 1.00855 0.0
H159 H 0.0185 0.46635 1.01936 0.0
Dy160 Dy 0.68443 0.8722 0.97594 0.0
Dy161 Dy 0.64556 0.9212 0.99388 0.0
C162 C 0.71009 0.93175 0.98461 0.0
O163 O 0.70018 0.87375 1.00588 0.0
O164 O 0.66783 0.90409 1.0191 0.0
O165 O 0.72512 0.85195 0.97231 0.0
O166 O 0.68871 0.83871 0.9561 0.0
O167 O 0.61529 0.88484 0.98805 0.0
O168 O 0.64703 0.84844 0.98742 0.0
O169 O 0.6473 0.93387 0.96396 0.0
O170 O 0.665 0.89369 0.95079 0.0
O171 O 0.61346 0.93633 1.01254 0.0
O172 O 0.63315 0.96506 0.99274 0.0
C173 C 0.69014 0.88742 1.0205 0.0
O174 O 0.70661 0.91318 0.97146 0.0
O175 O 0.6905 0.93521 0.99719 0.0
C176 C 0.72591 0.80578 0.95943 0.0
C177 C 0.74505 0.74983 0.95505 0.0
C178 C 0.76146 0.77278 0.94871 0.0
C179 C 0.75197 0.80048 0.95093 0.0
C180 C 0.70954 0.78311 0.96605 0.0
C181 C 0.71909 0.75531 0.96391 0.0
C182 C 0.7155 0.83494 0.9596 0.0
C183 C 0.6208 0.85745 0.98854 0.0
C184 C 0.65414 0.9193 0.94922 0.0
C185 C 0.62089 0.98413 1.02161 0.0
C186 C 0.61544 0.02467 1.04971 0.0
C187 C 0.62268 0.9964 1.05401 0.0
C188 C 0.62531 0.97632 1.04007 0.0
C189 C 0.61811 0.0129 1.01708 0.0
C190 C 0.61596 0.03315 1.03104 0.0
C191 C 0.6169 0.96263 1.0072 0.0
H192 H 0.78134 0.76936 0.94162 0.0
H193 H 0.7647 0.81779 0.94558 0.0
H194 H 0.68927 0.78686 0.97261 0.0
H195 H 0.70617 0.73814 0.96925 0.0
H196 H 0.62304 0.98874 1.06812 0.0
H197 H 0.6286 0.95437 1.04391 0.0
H198 H 0.61565 0.01949 1.00281 0.0
H199 H 0.61168 0.0549 1.02717 0.0
Dy200 Dy 0.38797 0.43392 0.72963 0.0
Dy201 Dy 0.33742 0.39475 0.74574 0.0
C202 C 0.32873 0.46034 0.73696 0.0
O203 O 0.38321 0.44965 0.7592 0.0
O204 O 0.35444 0.41523 0.7718 0.0
O205 O 0.41137 0.47347 0.72845 0.0
O206 O 0.42541 0.4363 0.71262 0.0
O207 O 0.37268 0.36359 0.73999 0.0
O208 O 0.40915 0.39511 0.74122 0.0
O209 O 0.32825 0.3952 0.71526 0.0
O210 O 0.36614 0.41958 0.70323 0.0
O211 O 0.32009 0.3621 0.7633 0.0
O212 O 0.29306 0.38453 0.74384 0.0
C213 C 0.36985 0.4385 0.77359 0.0
O214 O 0.34863 0.45825 0.72448 0.0
O215 O 0.32416 0.4399 0.74887 0.0
C216 C 0.45437 0.47876 0.71002 0.0
C217 C 0.50601 0.50605 0.70211 0.0
C218 C 0.48424 0.52062 0.71129 0.0
C219 C 0.45864 0.50705 0.71526 0.0
C220 C 0.4752 0.46496 0.69958 0.0
C221 C 0.5008 0.47846 0.69568 0.0
C222 C 0.43007 0.46262 0.71724 0.0
C223 C 0.39998 0.36884 0.7411 0.0
C224 C 0.34207 0.40571 0.70102 0.0
C225 C 0.27272 0.37154 0.77225 0.0
C226 C 0.23196 0.36747 0.80042 0.0
C227 C 0.26033 0.37437 0.80462 0.0
C228 C 0.28052 0.37632 0.79065 0.0
C229 C 0.24399 0.36912 0.76775 0.0
C230 C 0.22363 0.36767 0.78174 0.0
C231 C 0.2942 0.36721 0.75786 0.0
H232 H 0.48746 0.54207 0.71614 0.0
H233 H 0.44281 0.51825 0.7232 0.0
H234 H 0.47243 0.44314 0.69533 0.0
H235 H 0.51717 0.46651 0.68873 0.0
H236 H 0.26793 0.37499 0.81871 0.0
H237 H 0.30248 0.37941 0.79442 0.0
H238 H 0.23746 0.36648 0.75351 0.0
H239 H 0.20184 0.36371 0.77792 0.0
Dy240 Dy 0.82801 0.13805 0.47721 0.0
Dy241 Dy 0.86566 0.08646 0.49302 0.0
C242 C 0.79998 0.07889 0.48388 0.0
O243 O 0.81216 0.13321 0.50684 0.0
O244 O 0.8454 0.10305 0.51916 0.0
O245 O 0.78917 0.16227 0.47577 0.0
O246 O 0.82747 0.17658 0.46108 0.0
O247 O 0.89719 0.1217 0.48698 0.0
O248 O 0.86618 0.15794 0.49024 0.0
O249 O 0.86388 0.07681 0.46274 0.0
O250 O 0.84337 0.11678 0.45067 0.0
O251 O 0.89886 0.06934 0.51 0.0
O252 O 0.87493 0.04177 0.4917 0.0
C253 C 0.82282 0.11922 0.5211 0.0
O254 O 0.80242 0.09953 0.47187 0.0
O255 O 0.82023 0.0735 0.49575 0.0
C256 C 0.78601 0.20676 0.45858 0.0
C257 C 0.76092 0.25994 0.45217 0.0
C258 C 0.74537 0.23796 0.4606 0.0
C259 C 0.75783 0.21161 0.46382 0.0
C260 C 0.8008 0.22794 0.4489 0.0
C261 C 0.78839 0.25429 0.44573 0.0
C262 C 0.80114 0.18162 0.46544 0.0
C263 C 0.8923 0.14891 0.48927 0.0
C264 C 0.85516 0.0916 0.44844 0.0
C265 C 0.88939 0.0225 0.52012 0.0
C266 C 0.89558 0.98426 0.54961 0.0
C267 C 0.88659 0.01231 0.55284 0.0
C268 C 0.88357 0.03127 0.5382 0.0
C269 C 0.89382 0.99369 0.51658 0.0
C270 C 0.89633 0.97452 0.53123 0.0
C271 C 0.89309 0.04327 0.50517 0.0
H272 H 0.72398 0.24152 0.46543 0.0
H273 H 0.74589 0.19559 0.47125 0.0
H274 H 0.82258 0.2248 0.44472 0.0
H275 H 0.80106 0.27078 0.43933 0.0
H276 H 0.88515 0.02088 0.56666 0.0
H277 H 0.87895 0.05325 0.54121 0.0
H278 H 0.8973 0.98636 0.50258 0.0
H279 H 0.90188 0.9528 0.52816 0.0
Dy280 Dy 0.11894 0.5766 0.22996 0.0
Dy281 Dy 0.17224 0.61271 0.2444 0.0
C282 C 0.17642 0.54596 0.23616 0.0
O283 O 0.12523 0.55977 0.25916 0.0
O284 O 0.15458 0.59412 0.27102 0.0
O285 O 0.09227 0.53935 0.22747 0.0
O286 O 0.07804 0.5806 0.21732 0.0
O287 O 0.1383 0.64503 0.2377 0.0
O288 O 0.10275 0.61502 0.24477 0.0
O289 O 0.1805 0.61097 0.21397 0.0
O290 O 0.1395 0.59112 0.20288 0.0
O291 O 0.19068 0.64659 0.26015 0.0
O292 O 0.21741 0.61948 0.24328 0.0
C293 C 0.13905 0.57099 0.27326 0.0
O294 O 0.15544 0.54831 0.22447 0.0
O295 O 0.18324 0.56678 0.2473 0.0
C296 C 0.0513 0.54029 0.20743 0.0
C297 C 1.00327 0.51329 0.19234 0.0
C298 C 0.02779 0.49761 0.19655 0.0
C299 C 0.05151 0.51097 0.20423 0.0
C300 C 0.02789 0.5562 0.20173 0.0
C301 C 1.00415 0.54293 0.19437 0.0
C302 C 0.07187 0.55389 0.21985 0.0
C303 C 0.11149 0.64093 0.24172 0.0
C304 C 0.16477 0.60261 0.20007 0.0
C305 C 0.23656 0.63634 0.27114 0.0
C306 C 0.27249 0.64542 0.30132 0.0
C307 C 0.24482 0.6349 0.30408 0.0
C308 C 0.22699 0.63042 0.28907 0.0
C309 C 0.26526 0.64222 0.26815 0.0
C310 C 0.28332 0.64618 0.28318 0.0
C311 C 0.2165 0.6392 0.25582 0.0
H312 H 0.0282 0.47485 0.1948 0.0
H313 H 0.06929 0.49815 0.20856 0.0
H314 H 0.02695 0.57879 0.20429 0.0
H315 H 0.98577 0.5559 0.19169 0.0
H316 H 0.23554 0.63345 0.31773 0.0
H317 H 0.20509 0.62478 0.29162 0.0
H318 H 0.27321 0.64585 0.25428 0.0
H319 H 0.30486 0.65298 0.28055 0.0
Dy320 Dy 0.86297 0.58714 0.70891 0.0
Dy321 Dy 0.82854 0.64054 0.72436 0.0
C322 C 0.8919 0.64805 0.71147 0.0
O323 O 0.86092 0.57727 0.73909 0.0
O324 O 0.84416 0.61896 0.75084 0.0
O325 O 0.89549 0.56918 0.69179 0.0
O326 O 0.87095 0.5422 0.7103 0.0
O327 O 0.80047 0.60401 0.7304 0.0
O328 O 0.8171 0.57553 0.70739 0.0
O329 O 0.81046 0.63561 0.69526 0.0
O330 O 0.84225 0.60398 0.68289 0.0
O331 O 0.79168 0.66689 0.72813 0.0
O332 O 0.83296 0.67966 0.73964 0.0
C333 C 0.85403 0.593 0.75329 0.0
O334 O 0.89559 0.62111 0.71541 0.0
O335 O 0.86616 0.65728 0.70896 0.0
C336 C 0.88513 0.5225 0.68199 0.0
C337 C 0.89177 0.48446 0.65264 0.0
C338 C 0.88248 0.51241 0.64932 0.0
C339 C 0.87923 0.53128 0.6639 0.0
C340 C 0.88975 0.49372 0.68563 0.0
C341 C 0.89248 0.47463 0.67103 0.0
C342 C 0.88916 0.54326 0.69679 0.0
C343 C 0.79718 0.58264 0.71913 0.0
C344 C 0.82 0.62069 0.68107 0.0
C345 C 0.79314 0.711 0.74533 0.0
C346 C 0.76753 0.761 0.75831 0.0
C347 C 0.75155 0.73602 0.75618 0.0
C348 C 0.76421 0.71135 0.74957 0.0
C349 C 0.80951 0.73534 0.74834 0.0
C350 C 0.79682 0.76014 0.75466 0.0
C351 C 0.80611 0.68536 0.73769 0.0
H352 H 0.88109 0.52099 0.63546 0.0
H353 H 0.8745 0.55325 0.66084 0.0
H354 H 0.89333 0.48638 0.69964 0.0
H355 H 0.89834 0.45298 0.67414 0.0
H356 H 0.72913 0.73562 0.75923 0.0
H357 H 0.75131 0.69258 0.74765 0.0
H358 H 0.83193 0.73551 0.74522 0.0
H359 H 0.80984 0.77895 0.75582 0.0
Dy360 Dy 0.17441 0.11286 0.96042 0.0
Dy361 Dy 0.12325 0.07478 0.97681 0.0
C362 C 0.11253 0.13952 0.96505 0.0
O363 O 0.18491 0.11032 0.99057 0.0
O364 O 0.14501 0.0902 1.00308 0.0
O365 O 0.19159 0.14671 0.94382 0.0
O366 O 0.21933 0.12105 0.961 0.0
O367 O 0.16187 0.0487 0.98086 0.0
O368 O 0.18589 0.06736 0.95634 0.0
O369 O 0.12682 0.05989 0.94697 0.0
O370 O 0.15562 0.0943 0.93437 0.0
O371 O 0.09904 0.03574 0.97842 0.0
O372 O 0.08519 0.07384 0.99332 0.0
C373 C 0.17033 0.10183 1.00502 0.0
O374 O 0.13978 0.14437 0.96707 0.0
O375 O 0.10326 0.11336 0.96417 0.0
C376 C 0.23761 0.13705 0.93261 0.0
C377 C 0.27419 0.14454 0.90241 0.0
C378 C 0.24603 0.13542 0.89968 0.0
C379 C 0.2279 0.13175 0.91467 0.0
C380 C 0.26654 0.14159 0.93559 0.0
C381 C 0.28489 0.14475 0.92057 0.0
C382 C 0.21768 0.14015 0.94802 0.0
C383 C 0.1811 0.04649 0.96793 0.0
C384 C 0.13967 0.07145 0.93252 0.0
C385 C 0.05504 0.03215 0.99605 0.0
C386 C 1.00204 0.00681 1.00308 0.0
C387 C 0.02355 0.9915 0.99415 0.0
C388 C 0.04981 1.00409 0.99064 0.0
C389 C 0.03434 0.04669 1.00619 0.0
C390 C 0.00809 0.03415 1.00966 0.0
C391 C 0.07999 0.04751 0.98896 0.0
H392 H 0.23676 0.13439 0.88603 0.0
H393 H 0.20581 0.12706 0.91209 0.0
H394 H 0.27459 0.14467 0.94946 0.0
H395 H 0.30671 0.15042 0.92323 0.0
H396 H 0.01966 0.97023 0.98917 0.0
H397 H 0.06544 0.99235 0.98285 0.0
H398 H 0.03777 0.06838 1.0105 0.0
H399 H 0.99195 0.04664 1.01643 0.0
Dy400 Dy 0.64872 0.42494 0.20906 0.0
Dy401 Dy 0.68684 0.37398 0.22516 0.0
C402 C 0.62246 0.36254 0.21354 0.0
O403 O 0.65153 0.43565 0.23918 0.0
O404 O 0.67133 0.39557 0.25154 0.0
O405 O 0.61509 0.44132 0.19212 0.0
O406 O 0.63904 0.4695 0.20997 0.0
O407 O 0.7129 0.41272 0.22931 0.0
O408 O 0.694 0.43747 0.20519 0.0
O409 O 0.70207 0.37773 0.19531 0.0
O410 O 0.66887 0.4079 0.18292 0.0
O411 O 0.72562 0.34962 0.22678 0.0
O412 O 0.68733 0.33586 0.2417 0.0
C413 C 0.65989 0.42094 0.2536 0.0
O414 O 0.6175 0.38973 0.21574 0.0
O415 O 0.64863 0.35367 0.21237 0.0
C416 C 0.6235 0.48759 0.18161 0.0
C417 C 0.61992 0.51812 0.14846 0.0
C418 C 0.64188 0.49844 0.15111 0.0
C419 C 0.6435 0.48305 0.1676 0.0
C420 C 0.60439 0.50992 0.1801 0.0
C421 C 0.60272 0.52528 0.1637 0.0
C422 C 0.62032 0.46752 0.19686 0.0
C423 C 0.71489 0.43248 0.21663 0.0
C424 C 0.69135 0.39153 0.18098 0.0
C425 C 0.72859 0.30545 0.24438 0.0
C426 C 0.75235 0.25168 0.25093 0.0
C427 C 0.76788 0.27271 0.24151 0.0
C428 C 0.75609 0.29936 0.23824 0.0
C429 C 0.714 0.28528 0.25508 0.0
C430 C 0.72576 0.25864 0.25833 0.0
C431 C 0.71358 0.33053 0.23729 0.0
H432 H 0.65584 0.49287 0.13982 0.0
H433 H 0.65892 0.46621 0.16887 0.0
H434 H 0.5892 0.51397 0.191 0.0
H435 H 0.58556 0.54028 0.16237 0.0
H436 H 0.78864 0.26813 0.23593 0.0
H437 H 0.76785 0.31456 0.23 0.0
H438 H 0.69274 0.28938 0.25997 0.0
H439 H 0.71313 0.24291 0.26552 0.0
Dy440 Dy 0.33613 0.8977 0.46071 0.0
Dy441 Dy 0.38759 0.93622 0.47628 0.0
C442 C 0.39882 0.87154 0.46419 0.0
O443 O 0.32784 0.89727 0.49129 0.0
O444 O 0.36605 0.9215 0.50288 0.0
O445 O 0.31875 0.86499 0.44342 0.0
O446 O 0.2917 0.88761 0.46273 0.0
O447 O 0.34904 0.96151 0.48173 0.0
O448 O 0.3226 0.94299 0.45834 0.0
O449 O 0.38276 0.95197 0.44665 0.0
O450 O 0.35205 0.91897 0.43453 0.0
O451 O 0.41189 0.97522 0.4773 0.0
O452 O 0.42551 0.93745 0.49281 0.0
C453 C 0.34202 0.90754 0.50537 0.0
O454 O 0.37155 0.86633 0.46581 0.0
O455 O 0.408 0.89777 0.46394 0.0
C456 C 0.27132 0.87381 0.43453 0.0
C457 C 0.2312 0.86805 0.40622 0.0
C458 C 0.25913 0.87671 0.40214 0.0
C459 C 0.27902 0.87953 0.41619 0.0
C460 C 0.24274 0.86949 0.43893 0.0
C461 C 0.22267 0.86714 0.42487 0.0
C462 C 0.29287 0.87002 0.44891 0.0
C463 C 0.32818 0.96353 0.46995 0.0
C464 C 0.36839 0.94156 0.43252 0.0
C465 C 0.45561 0.97916 0.49507 0.0
C466 C 0.50851 1.00439 0.50222 0.0
C467 C 0.48753 0.01939 0.49253 0.0
C468 C 0.46131 0.00686 0.48896 0.0
C469 C 0.47571 0.96504 0.50596 0.0
C470 C 0.50192 0.97753 0.5095 0.0
C471 C 0.43072 0.9637 0.48814 0.0
H472 H 0.26676 0.87808 0.38805 0.0
H473 H 0.30082 0.88398 0.41252 0.0
H474 H 0.23625 0.86599 0.45313 0.0
H475 H 0.20114 0.86161 0.42856 0.0
H476 H 0.49184 0.04032 0.487 0.0
H477 H 0.44611 0.01828 0.48061 0.0
H478 H 0.47187 0.94366 0.51086 0.0
H479 H 0.51765 0.96528 0.51687 0.0
Dy480 Dy 0.18391 0.37039 0.48034 0.0
Dy481 Dy 0.1481 0.42362 0.49514 0.0
C482 C 0.21458 0.4282 0.48638 0.0
O483 O 0.19984 0.3759 0.50985 0.0
O484 O 0.16686 0.40667 0.52169 0.0
O485 O 0.22144 0.34439 0.47931 0.0
O486 O 0.18235 0.33058 0.4658 0.0
O487 O 0.11566 0.38939 0.48866 0.0
O488 O 0.14536 0.35305 0.49444 0.0
O489 O 0.15072 0.43246 0.46485 0.0
O490 O 0.16903 0.39114 0.45337 0.0
O491 O 0.11482 0.44208 0.51141 0.0
O492 O 0.14057 0.46862 0.49334 0.0
C493 C 0.18917 0.39023 0.52391 0.0
O494 O 0.21153 0.4074 0.47463 0.0
O495 O 0.19406 0.43503 0.49778 0.0
C496 C 0.22466 0.30402 0.4589 0.0
C497 C 0.25167 0.25376 0.44781 0.0
C498 C 0.26714 0.27542 0.45653 0.0
C499 C 0.2537 0.30029 0.46212 0.0
C500 C 0.21002 0.28381 0.44837 0.0
C501 C 0.22341 0.25892 0.44285 0.0
C502 C 0.20854 0.32457 0.46998 0.0
C503 C 0.11958 0.36229 0.49207 0.0
C504 C 0.15837 0.41679 0.45078 0.0
C505 C 0.12482 0.48888 0.52113 0.0
C506 C 0.11693 0.52738 0.5501 0.0
C507 C 0.12616 0.49951 0.55377 0.0
C508 C 0.13003 0.48041 0.53937 0.0
C509 C 0.12016 0.51757 0.51722 0.0
C510 C 0.11678 0.53688 0.53163 0.0
C511 C 0.12157 0.46788 0.50638 0.0
H512 H 0.28911 0.27228 0.46023 0.0
H513 H 0.26555 0.31548 0.47023 0.0
H514 H 0.18757 0.286 0.44577 0.0
H515 H 0.2108 0.24267 0.43623 0.0
H516 H 0.12707 0.49118 0.56771 0.0
H517 H 0.13473 0.45851 0.54266 0.0
H518 H 0.11708 0.52466 0.5031 0.0
H519 H 0.11093 0.55846 0.52828 0.0
Dy520 Dy 0.8883 0.93343 0.2269 0.0
Dy521 Dy 0.83702 0.89488 0.24269 0.0
C522 C 0.82884 0.96046 0.23268 0.0
O523 O 0.88248 0.9496 0.2563 0.0
O524 O 0.85409 0.91487 0.26886 0.0
O525 O 0.91248 0.97253 0.22607 0.0
O526 O 0.92647 0.93506 0.21052 0.0
O527 O 0.87222 0.86334 0.23752 0.0
O528 O 0.9087 0.89476 0.23916 0.0
O529 O 0.82909 0.89388 0.21207 0.0
O530 O 0.86675 0.91903 0.20032 0.0
O531 O 0.81944 0.86184 0.2598 0.0
O532 O 0.7923 0.88586 0.24125 0.0
C533 C 0.86925 0.93828 0.27068 0.0
O534 O 0.84966 0.95824 0.22086 0.0
O535 O 0.82365 0.94027 0.24472 0.0
C536 C 0.95652 0.9769 0.20859 0.0
C537 C 0.00932 1.00295 0.20217 0.0
C538 C 0.98737 0.01797 0.21084 0.0
C539 C 0.9612 1.00502 0.21407 0.0
C540 C 0.97765 0.96266 0.19868 0.0
C541 C 1.00382 0.97554 0.19551 0.0
C542 C 0.93156 0.96123 0.21534 0.0
C543 C 0.89949 0.86853 0.23901 0.0
C544 C 0.84299 0.9046 0.19792 0.0
C545 C 0.77271 0.87164 0.26968 0.0
C546 C 0.73423 0.86618 0.29904 0.0
C547 C 0.76232 0.87504 0.30232 0.0
C548 C 0.7814 0.87771 0.28774 0.0
C549 C 0.74394 0.8672 0.26605 0.0
C550 C 0.72467 0.86501 0.28064 0.0
C551 C 0.79351 0.86773 0.25483 0.0
H552 H 0.9908 0.03931 0.21584 0.0
H553 H 0.9452 0.01655 0.22167 0.0
H554 H 0.97463 0.94093 0.19431 0.0
H555 H 0.02029 0.96325 0.18893 0.0
H556 H 0.77073 0.87666 0.31618 0.0
H557 H 0.80337 0.8823 0.2908 0.0
H558 H 0.73669 0.86347 0.25206 0.0
H559 H 0.70296 0.85938 0.27755 0.0
Dy560 Dy 0.32682 0.6407 0.97989 0.0
Dy561 Dy 0.36081 0.58645 0.99479 0.0
C562 C 0.2942 0.58364 0.98578 0.0
O563 O 0.30941 0.63516 1.00911 0.0
O564 O 0.34118 0.60319 1.02113 0.0
O565 O 0.29056 0.66829 0.97712 0.0
O566 O 0.33208 0.68128 0.96654 0.0
O567 O 0.3939 0.62005 0.98814 0.0
O568 O 0.36495 0.65614 0.99524 0.0
O569 O 0.358 0.57747 0.9646 0.0
O570 O 0.34185 0.6197 0.95302 0.0
O571 O 0.39342 0.56776 1.01156 0.0
O572 O 0.36824 0.54149 0.99319 0.0
C573 C 0.31916 0.6201 1.0232 0.0
O574 O 0.29753 0.60499 0.97436 0.0
O575 O 0.31465 0.57569 0.99693 0.0
C576 C 0.29245 0.71013 0.9577 0.0
C577 C 0.26606 0.7592 0.94356 0.0
C578 C 0.25036 0.73412 0.94647 0.0
C579 C 0.26341 0.70985 0.95366 0.0
C580 C 0.30844 0.73432 0.95345 0.0
C581 C 0.29546 0.75856 0.94656 0.0
C582 C 0.30568 0.68819 0.96927 0.0
C583 C 0.39057 0.64692 0.99226 0.0
C584 C 0.35141 0.5936 0.95047 0.0
C585 C 0.38326 0.52135 1.02111 0.0
C586 C 0.38649 0.48959 1.05378 0.0
C587 C 0.36491 0.5098 1.0515 0.0
C588 C 0.36349 0.52585 1.03526 0.0
C589 C 0.40181 0.49849 1.02218 0.0
C590 C 0.40329 0.48252 1.03834 0.0
C591 C 0.38708 0.54205 1.00629 0.0
H592 H 0.22779 0.73357 0.94398 0.0
H593 H 0.25056 0.69144 0.95687 0.0
H594 H 0.33081 0.73523 0.9567 0.0
H595 H 0.30837 0.77737 0.94491 0.0
H596 H 0.35118 0.5153 1.06294 0.0
H597 H 0.34851 0.54312 1.03434 0.0
H598 H 0.41681 0.49449 1.01116 0.0
H599 H 0.42012 0.46709 1.03935 0.0
Dy600 Dy 0.62253 0.07527 0.727 0.0
Dy601 Dy 0.67351 0.11411 0.74281 0.0
C602 C 0.68092 0.04783 0.73531 0.0
O603 O 0.62663 0.06052 0.75686 0.0
O604 O 0.65533 0.09516 0.76909 0.0
O605 O 0.59859 0.03604 0.72623 0.0
O606 O 0.58484 0.0733 0.71025 0.0
O607 O 0.63848 0.14555 0.73699 0.0
O608 O 0.6019 0.11418 0.73874 0.0
O609 O 0.68264 0.11349 0.71234 0.0
O610 O 0.64455 0.08938 0.70049 0.0
O611 O 0.69093 0.14778 0.75928 0.0
O612 O 0.71838 0.12245 0.74174 0.0
C613 C 0.6396 0.07215 0.77116 0.0
O614 O 0.66142 0.04983 0.72258 0.0
O615 O 0.68561 0.06869 0.74681 0.0
C616 C 0.55516 0.03122 0.70827 0.0
C617 C 0.50278 1.00488 0.70115 0.0
C618 C 0.52418 0.99023 0.71066 0.0
C619 C 0.55015 1.00331 0.71422 0.0
C620 C 0.53463 0.04505 0.69758 0.0
C621 C 0.50868 0.03202 0.69406 0.0
C622 C 0.5798 0.04712 0.71517 0.0
C623 C 0.61119 0.14041 0.73849 0.0
C624 C 0.66874 0.10307 0.69818 0.0
C625 C 0.7372 0.13804 0.76997 0.0
C626 C 0.77447 0.14475 0.79978 0.0
C627 C 0.74637 0.13566 0.8028 0.0
C628 C 0.72789 0.13235 0.78799 0.0
C629 C 0.76605 0.14272 0.76668 0.0
C630 C 0.78473 0.14554 0.7815 0.0
C631 C 0.71694 0.14134 0.75478 0.0
H632 H 0.52042 0.96911 0.71605 0.0
H633 H 0.56569 0.9921 0.72242 0.0
H634 H 0.53792 0.0666 0.69282 0.0
H635 H 0.4926 0.04403 0.68685 0.0
H636 H 0.73746 0.13433 0.81656 0.0
H637 H 0.70585 0.12761 0.7908 0.0
H638 H 0.77378 0.14616 0.75274 0.0
H639 H 0.80648 0.15136 0.77864 0.0
C640 C 0.41339 0.19946 0.20958 0.0
C641 C 0.41901 0.17033 0.21195 0.0
C642 C 0.4353 0.21972 0.20916 0.0
C643 C 0.51245 0.23032 0.22115 0.0
H644 H 0.5033 0.29946 0.19275 0.0
C645 C 0.60481 0.31178 0.21221 0.0
C646 C 0.59872 0.34104 0.21256 0.0
C647 C 0.58314 0.29127 0.21176 0.0
C648 C 0.50621 0.28046 0.20095 0.0
H649 H 0.4529 0.14007 0.2155 0.0
H650 H 0.49116 0.17515 0.21433 0.0
H651 H 0.46641 0.26331 0.19215 0.0
H652 H 0.56427 0.37118 0.21248 0.0
H653 H 0.52646 0.33548 0.21159 0.0
H654 H 0.55247 0.24742 0.22972 0.0
C655 C 0.46959 0.18254 0.21317 0.0
C656 C 0.48485 0.25951 0.20065 0.0
C657 C 0.44754 0.1622 0.2137 0.0
C658 C 0.56999 0.34899 0.21222 0.0
C659 C 0.54821 0.32838 0.21162 0.0
C660 C 0.53389 0.25117 0.22133 0.0
C661 C 0.46392 0.2118 0.21097 0.0
C662 C 0.48739 0.234 0.21083 0.0
C663 C 0.55438 0.29908 0.21153 0.0
C664 C 0.5312 0.27673 0.21129 0.0
H665 H 0.39182 0.20687 0.20831 0.0
H666 H 0.42953 0.2418 0.20781 0.0
H667 H 0.5154 0.21149 0.22949 0.0
H668 H 0.62653 0.30454 0.21241 0.0
H669 H 0.58905 0.26914 0.2114 0.0
C670 C 0.56035 0.66219 0.45992 0.0
C671 C 0.58951 0.66784 0.46195 0.0
C672 C 0.54026 0.68414 0.45946 0.0
C673 C 0.53027 0.76146 0.47103 0.0
H674 H 0.46119 0.75229 0.44284 0.0
C675 C 0.44943 0.85395 0.46261 0.0
C676 C 0.42018 0.84783 0.46289 0.0
C677 C 0.4698 0.83226 0.462 0.0
C678 C 0.48017 0.75522 0.45099 0.0
H679 H 0.61999 0.70184 0.46487 0.0
H680 H 0.5852 0.74016 0.4637 0.0
H681 H 0.49702 0.71528 0.44226 0.0
H682 H 0.38991 0.8133 0.4625 0.0
H683 H 0.42535 0.77549 0.4614 0.0
H684 H 0.51346 0.80154 0.4796 0.0
C685 C 0.57768 0.71853 0.4628 0.0
C686 C 0.50093 0.73379 0.45069 0.0
C687 C 0.59784 0.69645 0.46334 0.0
C688 C 0.41209 0.81906 0.46229 0.0
C689 C 0.43256 0.79728 0.46157 0.0
C690 C 0.50958 0.78295 0.47124 0.0
C691 C 0.5484 0.71283 0.46093 0.0
C692 C 0.52641 0.73635 0.46078 0.0
C693 C 0.46186 0.80346 0.46157 0.0
C694 C 0.48405 0.78025 0.46128 0.0
H695 H 0.55279 0.64057 0.45892 0.0
H696 H 0.51815 0.67839 0.45835 0.0
H697 H 0.54911 0.76441 0.4793 0.0
H698 H 0.45678 0.87568 0.46299 0.0
H699 H 0.49193 0.83822 0.4617 0.0
C700 C 0.10312 0.808 0.71411 0.0
C701 C 0.09741 0.83733 0.7139 0.0
C702 C 0.0812 0.78778 0.71305 0.0
C703 C 1.00231 0.77921 0.71904 0.0
H704 H 0.01531 0.7068 0.69544 0.0
C705 C 0.91076 0.69801 0.70802 0.0
C706 C 0.91617 0.66886 0.71051 0.0
C707 C 0.93278 0.71811 0.70787 0.0
C708 C 0.01129 0.72675 0.70229 0.0
H709 H 0.06343 0.86791 0.71209 0.0
H710 H 0.02539 0.83289 0.70998 0.0
H711 H 0.0528 0.74242 0.69579 0.0
H712 H 0.94976 0.63838 0.71456 0.0
H713 H 0.98825 0.67341 0.71422 0.0
H714 H 0.96073 0.76359 0.7254 0.0
C715 C 0.0469 0.82538 0.71131 0.0
C716 C 0.03297 0.74737 0.70252 0.0
C717 C 0.06888 0.84565 0.71241 0.0
C718 C 0.9446 0.66051 0.71258 0.0
C719 C 0.96677 0.68071 0.7123 0.0
C720 C 0.98062 0.75866 0.71873 0.0
C721 C 0.05259 0.79598 0.7117 0.0
C722 C 0.029 0.77403 0.71098 0.0
C723 C 0.96122 0.70996 0.71012 0.0
C724 C 0.98468 0.73197 0.7104 0.0
H725 H 0.12467 0.8005 0.71528 0.0
H726 H 0.08682 0.76559 0.7137 0.0
H727 H 0.99821 0.79904 0.72601 0.0
H728 H 0.88929 0.70552 0.70634 0.0
H729 H 0.92739 0.74018 0.70583 0.0
C730 C 0.09982 0.19213 0.96353 0.0
C731 C 0.09143 0.16346 0.96382 0.0
C732 C 0.07963 0.21415 0.96271 0.0
C733 C 1.00203 0.22831 0.9527 0.0
H734 H 0.0171 0.29908 0.97778 0.0
C735 C 0.91463 0.3154 0.96317 0.0
C736 C 0.9229 0.34409 0.96209 0.0
C737 C 0.93489 0.29342 0.96279 0.0
C738 C 0.0125 0.27962 0.97049 0.0
H739 H 0.05456 0.13598 0.96347 0.0
H740 H 0.01985 0.17377 0.96243 0.0
H741 H 0.05255 0.26178 0.97806 0.0
H742 H 0.95959 0.37158 0.95955 0.0
H743 H 0.99439 0.33376 0.95885 0.0
H744 H 0.96177 0.24616 0.94535 0.0
C745 C 0.04202 0.17956 0.96244 0.0
C746 C 0.03307 0.25803 0.97061 0.0
C747 C 0.06215 0.15765 0.96318 0.0
C748 C 0.95211 0.34991 0.96048 0.0
C749 C 0.97229 0.32805 0.96021 0.0
C750 C 0.98139 0.24986 0.95267 0.0
C751 C 0.05024 0.20832 0.96222 0.0
C752 C 0.0283 0.23185 0.96174 0.0
C753 C 0.96417 0.29934 0.96147 0.0
C754 C 0.9862 0.27598 0.96156 0.0
H755 H 0.12207 0.19764 0.96392 0.0
H756 H 0.08719 0.2358 0.96228 0.0
H757 H 0.99739 0.20892 0.94534 0.0
H758 H 0.89246 0.30989 0.96444 0.0
H759 H 0.92757 0.27173 0.96394 0.0
C760 C 0.56846 0.84408 0.99117 0.0
C761 C 0.5971 0.83593 0.99002 0.0
C762 C 0.54654 0.82367 0.99218 0.0
C763 C 0.53113 0.74656 0.98272 0.0
H764 H 0.46409 0.7599 1.01218 0.0
C765 C 0.44343 0.659 0.99137 0.0
C766 C 0.41503 0.66759 0.99313 0.0
C767 C 0.46579 0.67899 0.9917 0.0
C768 C 0.4824 0.75576 1.00363 0.0
H769 H 0.62459 0.79923 0.98933 0.0
H770 H 0.58686 0.7641 0.99118 0.0
H771 H 0.50156 0.79541 1.01121 0.0
H772 H 0.38842 0.70458 0.99656 0.0
H773 H 0.4267 0.73893 0.99671 0.0
H774 H 0.51193 0.70714 0.97492 0.0
C775 C 0.58111 0.78628 0.99102 0.0
C776 C 0.50412 0.77635 1.0031 0.0
C777 C 0.60295 0.80663 0.99008 0.0
C778 C 0.40988 0.69683 0.99529 0.0
C779 C 0.4321 0.71675 0.99551 0.0
C780 C 0.50935 0.72605 0.98316 0.0
C781 C 0.55241 0.79431 0.99199 0.0
C782 C 0.52896 0.77221 0.99262 0.0
C783 C 0.4606 0.70837 0.99369 0.0
C784 C 0.48444 0.73018 0.99359 0.0
H785 H 0.56287 0.86631 0.99117 0.0
H786 H 0.52488 0.831 0.99273 0.0
H787 H 0.54951 0.74247 0.97421 0.0
H788 H 0.44843 0.63678 0.98973 0.0
H789 H 0.48725 0.67126 0.99054 0.0
C790 C 0.59822 0.19301 0.73969 0.0
C791 C 0.58998 0.16427 0.73986 0.0
C792 C 0.57794 0.21495 0.74053 0.0
C793 C 0.5001 0.22911 0.73317 0.0
H794 H 0.51583 0.29904 0.75908 0.0
C795 C 0.41297 0.3163 0.74233 0.0
C796 C 0.42128 0.34501 0.74203 0.0
C797 C 0.43323 0.29432 0.74269 0.0
C798 C 0.51101 0.27985 0.75154 0.0
H799 H 0.55328 0.13664 0.74136 0.0
H800 H 0.51844 0.17435 0.74297 0.0
H801 H 0.55133 0.26169 0.75837 0.0
H802 H 0.45809 0.37255 0.74194 0.0
H803 H 0.49294 0.33476 0.74229 0.0
H804 H 0.45991 0.24725 0.72622 0.0
C805 C 0.54054 0.18019 0.74187 0.0
C806 C 0.53159 0.25823 0.75115 0.0
C807 C 0.56075 0.15835 0.74108 0.0
C808 C 0.45058 0.35086 0.74224 0.0
C809 C 0.47077 0.32896 0.74257 0.0
C810 C 0.47956 0.25073 0.73353 0.0
C811 C 0.54863 0.20898 0.7415 0.0
C812 C 0.52659 0.23238 0.74194 0.0
C813 C 0.4626 0.30017 0.74274 0.0
C814 C 0.48455 0.27663 0.74269 0.0
H815 H 0.6204 0.19863 0.73876 0.0
H816 H 0.5853 0.23667 0.74003 0.0
H817 H 0.4953 0.20993 0.72563 0.0
H818 H 0.39074 0.31072 0.74225 0.0
H819 H 0.42572 0.27264 0.74311 0.0
C820 C 0.10111 0.31208 0.49508 0.0
C821 C 0.09543 0.34125 0.49291 0.0
C822 C 0.07927 0.29177 0.4952 0.0
C823 C 1.00103 0.28206 0.50148 0.0
H824 H 0.01444 0.2104 0.47703 0.0
C825 C 0.91002 0.19958 0.49098 0.0
C826 C 0.91607 0.17032 0.49055 0.0
C827 C 0.9317 0.22005 0.49173 0.0
C828 C 0.01025 0.23002 0.48422 0.0
H829 H 0.06148 0.37149 0.48942 0.0
H830 H 0.02329 0.33607 0.48972 0.0
H831 H 0.05138 0.24641 0.47741 0.0
H832 H 0.95044 0.14012 0.49084 0.0
H833 H 0.98821 0.17561 0.49257 0.0
H834 H 0.96004 0.26562 0.50849 0.0
C835 C 0.04488 0.32893 0.49139 0.0
C836 C 0.03163 0.25092 0.48439 0.0
C837 C 0.06687 0.34936 0.49114 0.0
C838 C 0.94475 0.16232 0.49107 0.0
C839 C 0.96654 0.18288 0.49193 0.0
C840 C 0.97968 0.26108 0.50142 0.0
C841 C 0.05071 0.29967 0.49324 0.0
C842 C 0.02747 0.2774 0.49299 0.0
C843 C 0.96048 0.21224 0.49221 0.0
C844 C 0.98376 0.2346 0.49272 0.0
H845 H 0.12266 0.30471 0.49654 0.0
H846 H 0.08489 0.26971 0.497 0.0
H847 H 0.99692 0.30184 0.50852 0.0
H848 H 0.88834 0.20688 0.4905 0.0
H849 H 0.92571 0.24216 0.49156 0.0
C850 C 0.09849 0.69353 0.24023 0.0
C851 C 0.09046 0.66496 0.24264 0.0
C852 C 0.07815 0.71548 0.24054 0.0
C853 C 0.99992 0.72842 0.23508 0.0
H854 H 0.01659 0.80117 0.25714 0.0
C855 C 0.91264 0.8161 0.24175 0.0
C856 C 0.92082 0.84477 0.24038 0.0
C857 C 0.93302 0.79425 0.24265 0.0
C858 C 0.01147 0.78119 0.25064 0.0
H859 H 0.05418 0.63764 0.24747 0.0
H860 H 0.01928 0.67539 0.24805 0.0
H861 H 0.0524 0.76412 0.2572 0.0
H862 H 0.95751 0.87239 0.23887 0.0
H863 H 0.99249 0.83489 0.24 0.0
H864 H 0.9592 0.74545 0.22828 0.0
C865 C 0.04121 0.68103 0.2457 0.0
C866 C 0.03223 0.75973 0.25071 0.0
C867 C 0.06146 0.65922 0.24551 0.0
C868 C 0.95009 0.85073 0.24002 0.0
C869 C 0.97039 0.82898 0.24081 0.0
C870 C 0.97923 0.7499 0.2349 0.0
C871 C 0.04905 0.70962 0.24311 0.0
C872 C 0.02689 0.73288 0.24294 0.0
C873 C 0.96239 0.80021 0.24212 0.0
C874 C 0.98452 0.77681 0.24266 0.0
H875 H 0.12049 0.69897 0.23795 0.0
H876 H 0.08525 0.73706 0.23835 0.0
H877 H 0.99485 0.70835 0.22867 0.0
H878 H 0.89043 0.81046 0.24216 0.0
H879 H 0.92561 0.77262 0.24395 0.0
C880 C 0.43641 0.95983 0.14498 0.0
C881 C 0.41023 0.97184 0.14 0.0
C882 C 0.45961 0.96272 0.13327 0.0
C883 C 0.48527 0.99447 1.08944 0.0
H884 H 0.5357 0.03489 0.12264 0.0
C885 C 0.57349 0.05384 1.0576 0.0
C886 C 0.59892 0.04118 1.0635 0.0
C887 C 0.54974 0.05292 1.06898 0.0
C888 C 0.52181 0.02377 0.11322 0.0
H889 H 0.38575 0.98709 0.11667 0.0
H890 H 0.42649 0.99329 1.09651 0.0
H891 H 0.49676 0.00697 0.13524 0.0
H892 H 0.62187 0.02721 1.0878 0.0
H893 H 0.58022 0.02429 0.10735 0.0
H894 H 0.51042 0.01103 1.06742 0.0
C895 C 0.42948 0.98291 0.10974 0.0
C896 C 0.49977 0.00741 0.1204 0.0
C897 C 0.40611 0.97947 0.12137 0.0
C898 C 0.60204 0.03522 1.08246 0.0
C899 C 0.5781 0.03368 1.09375 0.0
C900 C 0.50736 0.01078 1.08226 0.0
C901 C 0.45675 0.97736 0.11649 0.0
C902 C 0.48142 0.99242 0.10858 0.0
C903 C 0.55131 0.03954 1.08627 0.0
C904 C 0.52589 0.02558 1.09408 0.0
H905 H 0.4405 0.95242 0.15889 0.0
H906 H 0.48035 0.9569 0.13837 0.0
H907 H 0.47138 0.98327 1.08005 0.0
H908 H 0.57029 0.06011 1.04337 0.0
H909 H 0.52947 0.05909 1.06327 0.0
C910 C 0.78292 0.65745 0.37152 0.0
C911 C 0.78945 0.66208 0.39025 0.0
C912 C 0.77989 0.68056 0.3596 0.0
C913 C 0.78239 0.75929 0.35708 0.0
H914 H 0.70312 0.75062 0.34419 0.0
C915 C 0.72566 0.85491 0.33245 0.0
C916 C 0.71932 0.8498 0.31375 0.0
C917 C 0.72814 0.83212 0.3447 0.0
C918 C 0.72518 0.75335 0.34781 0.0
H919 H 0.80679 0.69322 0.40935 0.0
H920 H 0.80243 0.73265 0.38863 0.0
H921 H 0.73015 0.70947 0.35424 0.0
H922 H 0.70164 0.81841 0.29497 0.0
H923 H 0.70512 0.77954 0.3162 0.0
H924 H 0.77746 0.80315 0.35062 0.0
C925 C 0.79787 0.71169 0.38333 0.0
C926 C 0.74084 0.72975 0.3532 0.0
C927 C 0.8005 0.68872 0.39529 0.0
C928 C 0.70783 0.82322 0.30901 0.0
C929 C 0.70994 0.80057 0.32128 0.0
C930 C 0.76674 0.78289 0.35168 0.0
C931 C 0.78456 0.70814 0.36618 0.0
C932 C 0.76963 0.73247 0.35784 0.0
C933 C 0.72316 0.80442 0.33843 0.0
C934 C 0.73796 0.78017 0.34699 0.0
H935 H 0.77597 0.6368 0.36685 0.0
H936 H 0.77079 0.67718 0.34604 0.0
H937 H 0.80446 0.76202 0.36069 0.0
H938 H 0.73296 0.87557 0.33688 0.0
H939 H 0.73715 0.83577 0.35824 0.0
C940 C 0.07399 0.0544 0.6457 0.0
C941 C 0.09974 0.04216 0.64004 0.0
C942 C 0.0504 0.05276 0.63426 0.0
C943 C 0.02349 0.02241 0.59031 0.0
H944 H 0.97387 0.98108 0.62383 0.0
C945 C 0.93867 0.95789 0.55902 0.0
C946 C 0.91247 0.96969 0.56417 0.0
C947 C 0.96194 0.9607 0.57063 0.0
C948 C 0.98753 0.99249 0.61434 0.0
H949 H 0.12331 0.02837 0.61596 0.0
H950 H 0.08196 0.02422 0.59631 0.0
H951 H 0.01233 0.00968 0.63621 0.0
H952 H 0.88804 0.98424 0.58769 0.0
H953 H 0.92887 0.99033 0.60766 0.0
H954 H 0.99876 1.00508 0.56844 0.0
C955 C 0.07948 0.03377 0.6098 0.0
C956 C 0.00929 0.00927 0.62138 0.0
C957 C 0.10324 0.03602 0.62115 0.0
C958 C 0.90841 0.97684 0.58287 0.0
C959 C 0.93185 0.9802 0.59439 0.0
C960 C 1.00177 0.0056 0.58327 0.0
C961 C 0.05248 0.03913 0.61713 0.0
C962 C 0.02748 0.02444 0.60944 0.0
C963 C 0.95911 0.97504 0.58746 0.0
C964 C 0.98368 0.99034 0.59521 0.0
H965 H 0.07047 0.06083 0.65985 0.0
H966 H 0.02993 0.05855 0.63983 0.0
H967 H 0.03716 0.03378 0.5808 0.0
H968 H 0.94269 0.95081 0.54506 0.0
H969 H 0.98267 0.95512 0.5654 0.0
C970 C 0.72647 0.35455 0.87188 0.0
C971 C 0.72053 0.34976 0.89071 0.0
C972 C 0.72872 0.33156 0.85988 0.0
C973 C 0.72544 0.25288 0.85743 0.0
H974 H 0.80465 0.26097 0.84405 0.0
C975 C 0.78189 0.15675 0.83313 0.0
C976 C 0.78866 0.16163 0.81443 0.0
C977 C 0.77915 0.17966 0.84515 0.0
C978 C 0.78259 0.2584 0.84779 0.0
H979 H 0.70328 0.31866 0.91004 0.0
H980 H 0.70631 0.27944 0.8892 0.0
H981 H 0.77805 0.30228 0.85413 0.0
H982 H 0.80639 0.19291 0.79543 0.0
H983 H 0.80244 0.23201 0.81629 0.0
H984 H 0.72997 0.209 0.85108 0.0
C985 C 0.71102 0.3004 0.88385 0.0
C986 C 0.76718 0.2821 0.8532 0.0
C987 C 0.70917 0.32325 0.89588 0.0
C988 C 0.8 0.18824 0.80948 0.0
C989 C 0.7976 0.21102 0.82153 0.0
C990 C 0.74085 0.22917 0.852 0.0
C991 C 0.72386 0.30397 0.86652 0.0
C992 C 0.73843 0.27959 0.85805 0.0
C993 C 0.78421 0.20731 0.83867 0.0
C994 C 0.7696 0.23168 0.84714 0.0
H995 H 0.73364 0.37515 0.86714 0.0
H996 H 0.73747 0.33498 0.8462 0.0
H997 H 0.7034 0.25032 0.86122 0.0
H998 H 0.77462 0.1361 0.83771 0.0
H999 H 0.76999 0.17613 0.8587 0.0
C1000 C 0.22135 0.3546 0.8333 0.0
C1001 C 0.21503 0.3515 0.8144 0.0
C1002 C 0.22306 0.33056 0.84454 0.0
C1003 C 0.24597 0.26047 0.83206 0.0
H1004 H 0.25212 0.24854 0.88483 0.0
C1005 C 0.27988 0.15853 0.86917 0.0
C1006 C 0.2879 0.1621 0.88776 0.0
C1007 C 0.27589 0.1823 0.85794 0.0
C1008 C 0.25103 0.25193 0.87003 0.0
H1009 H 0.19502 0.32306 0.7946 0.0
H1010 H 0.19637 0.28209 0.81444 0.0
H1011 H 0.22325 0.28735 0.87321 0.0
H1012 H 0.30749 0.19198 0.90681 0.0
H1013 H 0.30208 0.23259 0.88695 0.0
H1014 H 0.27382 0.22509 0.82889 0.0
C1015 C 0.20282 0.30235 0.82007 0.0
C1016 C 0.23412 0.27388 0.86342 0.0
C1017 C 0.20176 0.3262 0.80874 0.0
C1018 C 0.29978 0.18831 0.89295 0.0
C1019 C 0.29635 0.21193 0.88162 0.0
C1020 C 0.26285 0.23851 0.83867 0.0
C1021 C 0.21688 0.30379 0.83709 0.0
C1022 C 0.23142 0.27841 0.84437 0.0
C1023 C 0.28129 0.20944 0.86503 0.0
C1024 C 0.26573 0.23416 0.85772 0.0
H1025 H 0.22969 0.37441 0.83852 0.0
H1026 H 0.23292 0.33258 0.85797 0.0
H1027 H 0.24506 0.26393 0.81726 0.0
H1028 H 0.27234 0.1382 0.86429 0.0
H1029 H 0.2652 0.1796 0.84483 0.0
C1030 C 0.20413 0.82512 0.39727 0.0
C1031 C 0.21535 0.85167 0.39205 0.0
C1032 C 0.20542 0.80243 0.38507 0.0
C1033 C 0.26068 0.7848 0.35368 0.0
H1034 H 0.22424 0.71127 0.35203 0.0
C1035 C 0.29544 0.69057 0.31062 0.0
C1036 C 0.28513 0.66368 0.31589 0.0
C1037 C 0.29192 0.71366 0.32229 0.0
C1038 C 0.23489 0.73158 0.3528 0.0
H1039 H 0.22759 0.87735 0.36843 0.0
H1040 H 0.23039 0.83747 0.34718 0.0
H1041 H 0.19742 0.75237 0.36235 0.0
H1042 H 0.27139 0.63851 0.33941 0.0
H1043 H 0.26478 0.67908 0.35973 0.0
H1044 H 0.2982 0.76403 0.34429 0.0
C1045 C 0.22217 0.83389 0.36098 0.0
C1046 C 0.21934 0.75515 0.35833 0.0
C1047 C 0.22052 0.85672 0.37316 0.0
C1048 C 0.27793 0.65926 0.33456 0.0
C1049 C 0.27405 0.68248 0.3462 0.0
C1050 C 0.27623 0.76124 0.34819 0.0
C1051 C 0.21757 0.80622 0.36755 0.0
C1052 C 0.23208 0.782 0.35882 0.0
C1053 C 0.27842 0.71005 0.3394 0.0
C1054 C 0.26353 0.73438 0.34772 0.0
H1055 H 0.19885 0.82036 0.4115 0.0
H1056 H 0.20093 0.78141 0.39039 0.0
H1057 H 0.27139 0.80508 0.35451 0.0
H1058 H 0.30203 0.69499 0.29657 0.0
H1059 H 0.29619 0.73462 0.3168 0.0
C1060 C 0.07279 0.55259 0.55861 0.0
C1061 C 0.09922 0.54185 0.56422 0.0
C1062 C 0.04944 0.5501 0.57024 0.0
C1063 C 0.03044 0.49352 0.60067 0.0
H1064 H 0.95705 0.52971 0.60185 0.0
C1065 C 0.93563 0.45935 0.64344 0.0
C1066 C 0.90911 0.4703 0.6382 0.0
C1067 C 0.95874 0.4621 0.63163 0.0
C1068 C 0.97732 0.51911 0.60118 0.0
H1069 H 0.12363 0.52897 0.58817 0.0
H1070 H 0.08261 0.52406 0.6084 0.0
H1071 H 0.99843 0.5569 0.59212 0.0
H1072 H 0.88422 0.48381 0.61461 0.0
H1073 H 0.92481 0.48912 0.59404 0.0
H1074 H 0.00936 0.45571 0.60968 0.0
C1075 C 0.07971 0.53286 0.59469 0.0
C1076 C 1.00104 0.53487 0.59599 0.0
C1077 C 0.10319 0.53573 0.58309 0.0
C1078 C 0.90476 0.4769 0.61943 0.0
C1079 C 0.928 0.48002 0.60765 0.0
C1080 C 0.00673 0.47775 0.60584 0.0
C1081 C 0.05241 0.53723 0.58761 0.0
C1082 C 0.02785 0.52226 0.59573 0.0
C1083 C 0.95544 0.47541 0.61442 0.0
C1084 C 0.97992 0.49037 0.60616 0.0
H1085 H 0.06879 0.55852 0.54439 0.0
H1086 H 0.0287 0.55441 0.56455 0.0
H1087 H 0.05072 0.48293 0.60002 0.0
H1088 H 0.93994 0.45304 0.65755 0.0
H1089 H 0.97957 0.45758 0.6371 0.0
C1090 C 0.59223 0.54801 0.12647 0.0
C1091 C 0.6088 0.52377 0.12962 0.0
C1092 C 0.56815 0.54602 0.1154 0.0
C1093 C 0.52417 0.49622 1.08782 0.0
H1094 H 0.46721 0.51468 0.12457 0.0
C1095 C 0.41429 0.45884 1.07524 0.0
C1096 C 0.39784 0.48328 1.07248 0.0
C1097 C 0.43852 0.46031 1.08621 0.0
C1098 C 0.4829 0.50931 0.11424 0.0
H1099 H 0.61826 0.48163 0.11925 0.0
H1100 H 0.57719 0.47858 1.0998 0.0
H1101 H 0.51565 0.53131 0.1286 0.0
H1102 H 0.38882 0.52514 1.08349 0.0
H1103 H 0.43007 0.52729 0.10276 0.0
H1104 H 0.49141 0.47429 1.07343 0.0
C1105 C 0.58157 0.49857 0.10654 0.0
C1106 C 0.5105 0.51927 0.11633 0.0
C1107 C 0.60544 0.50046 0.11772 0.0
C1108 C 0.40151 0.50617 1.08468 0.0
C1109 C 0.42551 0.50755 1.09577 0.0
C1110 C 0.49655 0.48629 1.08572 0.0
C1111 C 0.56124 0.52013 0.10699 0.0
C1112 C 0.5314 0.5129 0.10311 0.0
C1113 C 0.4457 0.48587 1.09494 0.0
C1114 C 0.47562 0.49274 1.09891 0.0
H1115 H 0.59516 0.56682 0.13479 0.0
H1116 H 0.55328 0.56344 0.11529 0.0
H1117 H 0.53989 0.49083 1.07751 0.0
H1118 H 0.41111 0.44029 1.0667 0.0
H1119 H 0.45324 0.44276 1.08605 0.0
C1120 C 0.22506 0.29254 0.25478 0.0
C1121 C 0.25114 0.2868 0.26333 0.0
C1122 C 0.21395 0.31994 0.25478 0.0
C1123 C 0.22702 0.39386 0.2726 0.0
H1124 H 0.18896 0.41379 0.22704 0.0
C1125 C 0.19021 0.50832 0.25833 0.0
C1126 C 0.18766 0.51755 0.23997 0.0
C1127 C 0.19682 0.48016 0.26229 0.0
C1128 C 0.20008 0.40887 0.2397 0.0
H1129 H 0.28418 0.30499 0.28045 0.0
H1130 H 0.26637 0.35275 0.27909 0.0
H1131 H 0.20121 0.36511 0.23284 0.0
H1132 H 0.19112 0.50529 0.2113 0.0
H1133 H 0.20523 0.45671 0.21802 0.0
H1134 H 0.22829 0.43798 0.27864 0.0
C1135 C 0.25395 0.33625 0.27263 0.0
C1136 C 0.20647 0.38055 0.24331 0.0
C1137 C 0.26456 0.30871 0.27314 0.0
C1138 C 0.19299 0.49854 0.22558 0.0
C1139 C 0.20062 0.47057 0.22951 0.0
C1140 C 0.22147 0.42232 0.26871 0.0
C1141 C 0.229 0.34252 0.26286 0.0
C1142 C 0.22016 0.37255 0.25979 0.0
C1143 C 0.20195 0.46073 0.24794 0.0
C1144 C 0.20798 0.43031 0.25215 0.0
H1145 H 0.21393 0.27636 0.24709 0.0
H1146 H 0.19408 0.3235 0.24774 0.0
H1147 H 0.23701 0.38876 0.28563 0.0
H1148 H 0.18566 0.52251 0.26969 0.0
H1149 H 0.19691 0.47359 0.27663 0.0
C1150 C 0.46513 0.47696 0.49602 0.0
C1151 C 0.47559 0.49416 0.51031 0.0
C1152 C 0.43697 0.46809 0.49601 0.0
C1153 C 0.36753 0.49057 0.51273 0.0
H1154 H 0.34387 0.41782 0.49333 0.0
C1155 C 0.26489 0.43378 0.47649 0.0
C1156 C 0.24318 0.44024 0.48905 0.0
C1157 C 0.29289 0.44085 0.48044 0.0
C1158 C 0.35016 0.43831 0.49864 0.0
H1159 H 0.46502 0.51399 0.53642 0.0
H1160 H 0.41562 0.49844 0.53636 0.0
H1161 H 0.39384 0.42666 0.49924 0.0
H1162 H 0.2337 0.46042 0.51525 0.0
H1163 H 0.28276 0.47288 0.5221 0.0
H1164 H 0.32377 0.50228 0.51188 0.0
C1165 C 0.42925 0.49223 0.52504 0.0
C1166 C 0.37876 0.44333 0.50209 0.0
C1167 C 0.45753 0.50105 0.52509 0.0
C1168 C 0.24991 0.45528 0.50522 0.0
C1169 C 0.27802 0.46237 0.50918 0.0
C1170 C 0.33884 0.48551 0.50932 0.0
C1171 C 0.41851 0.47623 0.51026 0.0
C1172 C 0.38786 0.4697 0.50882 0.0
C1173 C 0.29986 0.45452 0.49705 0.0
C1174 C 0.32996 0.45953 0.50186 0.0
H1175 H 0.47818 0.4717 0.48421 0.0
H1176 H 0.42932 0.45613 0.48427 0.0
H1177 H 0.37389 0.51124 0.51772 0.0
H1178 H 0.26041 0.42241 0.46384 0.0
H1179 H 0.30919 0.43514 0.47061 0.0
C1180 C 0.23517 0.69889 0.75674 0.0
C1181 C 0.25435 0.72037 0.75166 0.0
C1182 C 0.24406 0.67078 0.75815 0.0
C1183 C 0.3 0.62447 0.73994 0.0
H1184 H 0.26552 0.56895 0.77259 0.0
C1185 C 0.31168 0.50665 0.725 0.0
C1186 C 0.31572 0.48818 0.73994 0.0
C1187 C 0.3034 0.53457 0.72805 0.0
C1188 C 0.2756 0.5842 0.7635 0.0
H1189 H 0.29825 0.72924 0.7449 0.0
H1190 H 0.31394 0.68055 0.74807 0.0
H1191 H 0.25504 0.61909 0.7767 0.0
H1192 H 0.31393 0.48398 0.76978 0.0
H1193 H 0.3004 0.53308 0.7752 0.0
H1194 H 0.3213 0.59 0.72713 0.0
C1195 C 0.29184 0.68526 0.75048 0.0
C1196 C 0.26935 0.61294 0.76573 0.0
C1197 C 0.28289 0.71328 0.74887 0.0
C1198 C 0.3105 0.49776 0.75798 0.0
C1199 C 0.30278 0.5259 0.76108 0.0
C1200 C 0.3065 0.59591 0.73787 0.0
C1201 C 0.27239 0.66354 0.75463 0.0
C1202 C 0.28107 0.63336 0.75373 0.0
C1203 C 0.29973 0.54481 0.74615 0.0
C1204 C 0.29387 0.57533 0.74931 0.0
H1205 H 0.21316 0.70373 0.75942 0.0
H1206 H 0.22844 0.65464 0.76128 0.0
H1207 H 0.30922 0.63946 0.73029 0.0
H1208 H 0.31548 0.49965 0.71096 0.0
H1209 H 0.3004 0.54827 0.71619 0.0
C1210 C 0.05042 0.51441 1.02554 0.0
C1211 C 0.03252 0.5209 1.0106 0.0
C1212 C 0.07871 0.5232 1.02542 0.0
C1213 C 0.12971 0.5711 1.00182 0.0
H1214 H 0.18393 0.5115 1.01193 0.0
C1215 C 0.24377 0.57913 0.97598 0.0
C1216 C 0.26538 0.57208 0.98847 0.0
C1217 C 0.21565 0.57252 0.98001 0.0
C1218 C 0.16909 0.52846 1.00927 0.0
H1219 H 0.0302 0.54281 0.9842 0.0
H1220 H 0.07905 0.55838 0.98417 0.0
H1221 H 0.13375 0.50333 1.01807 0.0
H1222 H 0.27454 0.55142 1.01463 0.0
H1223 H 0.22531 0.53986 1.02164 0.0
H1224 H 0.1649 0.59606 0.99271 0.0
C1225 C 0.07127 0.5467 0.99605 0.0
C1226 C 0.14036 0.52385 1.01287 0.0
C1227 C 0.04311 0.53784 0.99612 0.0
C1228 C 0.25841 0.55698 1.00464 0.0
C1229 C 0.23019 0.5504 1.0087 0.0
C1230 C 0.15836 0.5757 0.99822 0.0
C1231 C 0.0896 0.5388 1.01042 0.0
C1232 C 0.12031 0.54495 1.00885 0.0
C1233 C 0.20846 0.55879 0.99664 0.0
C1234 C 0.1783 0.55424 1.00155 0.0
H1235 H 0.04283 0.50171 1.03702 0.0
H1236 H 0.09224 0.51718 1.03684 0.0
H1237 H 0.11484 0.58793 0.99886 0.0
H1238 H 0.24845 0.59058 0.96333 0.0
H1239 H 0.19944 0.57864 0.97022 0.0
C1240 C 0.8178 0.5081 0.98026 0.0
C1241 C 0.82088 0.48941 0.96542 0.0
C1242 C 0.80902 0.53588 0.97716 0.0
C1243 C 0.77805 0.58438 0.94197 0.0
H1244 H 0.81252 0.64083 0.97363 0.0
C1245 C 0.73607 0.69847 0.9482 0.0
C1246 C 0.75514 0.72035 0.95254 0.0
C1247 C 0.74534 0.67048 0.94699 0.0
C1248 C 0.80304 0.62551 0.9644 0.0
H1249 H 0.81707 0.48469 0.93572 0.0
H1250 H 0.80277 0.53355 0.93017 0.0
H1251 H 0.8257 0.59168 0.97704 0.0
H1252 H 0.7992 0.73008 0.95817 0.0
H1253 H 0.81553 0.68161 0.95528 0.0
H1254 H 0.75616 0.61863 0.92889 0.0
C1255 C 0.80619 0.52665 0.94428 0.0
C1256 C 0.81018 0.59712 0.96663 0.0
C1257 C 0.81437 0.49865 0.94745 0.0
C1258 C 0.78392 0.71379 0.95476 0.0
C1259 C 0.79324 0.68589 0.95333 0.0
C1260 C 0.77117 0.61295 0.93956 0.0
C1261 C 0.80392 0.54576 0.95908 0.0
C1262 C 0.7973 0.5761 0.95577 0.0
C1263 C 0.77396 0.66379 0.94993 0.0
C1264 C 0.7832 0.63378 0.951 0.0
H1265 H 0.82261 0.50135 0.99423 0.0
H1266 H 0.80667 0.54973 0.98896 0.0
H1267 H 0.76772 0.56879 0.93334 0.0
H1268 H 0.71387 0.70289 0.94597 0.0
H1269 H 0.72984 0.65403 0.94444 0.0
C1270 C 0.54647 0.53083 0.71728 0.0
C1271 C 0.53514 0.51775 0.7015 0.0
C1272 C 0.57515 0.53749 0.71815 0.0
C1273 C 0.64041 0.54653 0.6908 0.0
H1274 H 0.67626 0.52572 0.73711 0.0
C1275 C 0.76109 0.55473 0.70171 0.0
C1276 C 0.76902 0.56933 0.7178 0.0
C1277 C 0.73315 0.54579 0.69928 0.0
C1278 C 0.66652 0.53171 0.72414 0.0
H1279 H 0.54466 0.5032 0.67378 0.0
H1280 H 0.59506 0.51451 0.67543 0.0
H1281 H 0.62574 0.51768 0.73307 0.0
H1282 H 0.75436 0.58483 0.74432 0.0
H1283 H 0.70573 0.569 0.74016 0.0
H1284 H 0.68134 0.5607 0.68196 0.0
C1285 C 0.58166 0.51959 0.6871 0.0
C1286 C 0.6376 0.52726 0.72184 0.0
C1287 C 0.55286 0.51296 0.68621 0.0
C1288 C 0.74886 0.57364 0.73177 0.0
C1289 C 0.72104 0.56448 0.72942 0.0
C1290 C 0.66944 0.55094 0.6931 0.0
C1291 C 0.59321 0.53111 0.70331 0.0
C1292 C 0.62414 0.53505 0.70528 0.0
C1293 C 0.71278 0.55102 0.71299 0.0
C1294 C 0.68266 0.54394 0.7099 0.0
H1295 H 0.53354 0.53457 0.72939 0.0
H1296 H 0.58337 0.54692 0.73068 0.0
H1297 H 0.63058 0.55281 0.67792 0.0
H1298 H 0.77613 0.55126 0.69064 0.0
H1299 H 0.72736 0.53521 0.68656 0.0
C1300 C 0.73675 0.30019 0.46798 0.0
C1301 C 0.7501 0.28942 0.45214 0.0
C1302 C 0.73001 0.32885 0.46917 0.0
C1303 C 0.72034 0.39439 0.44205 0.0
H1304 H 0.73705 0.43028 0.48898 0.0
C1305 C 0.707 0.51466 0.45339 0.0
C1306 C 0.69134 0.52174 0.46924 0.0
C1307 C 0.71705 0.4871 0.451 0.0
C1308 C 0.73221 0.42052 0.47583 0.0
H1309 H 0.76552 0.30005 0.42472 0.0
H1310 H 0.75407 0.35037 0.42692 0.0
H1311 H 0.74718 0.38012 0.48483 0.0
H1312 H 0.67511 0.50599 0.4954 0.0
H1313 H 0.69285 0.45805 0.49129 0.0
H1314 H 0.7052 0.4349 0.43313 0.0
C1315 C 0.74876 0.33654 0.43839 0.0
C1316 C 0.73787 0.39179 0.47346 0.0
C1317 C 0.75549 0.30778 0.43718 0.0
C1318 C 0.68708 0.50115 0.48303 0.0
C1319 C 0.69734 0.47373 0.48071 0.0
C1320 C 0.71474 0.42321 0.44441 0.0
C1321 C 0.73656 0.34747 0.45459 0.0
C1322 C 0.73158 0.37829 0.45666 0.0
C1323 C 0.7119 0.46626 0.46451 0.0
C1324 C 0.72024 0.43644 0.46142 0.0
H1325 H 0.73259 0.28676 0.47985 0.0
H1326 H 0.72011 0.33654 0.4817 0.0
H1327 H 0.71512 0.38455 0.42899 0.0
H1328 H 0.71049 0.53004 0.44247 0.0
H1329 H 0.72846 0.48196 0.43846 0.0
C1330 C 0.7522 0.44572 0.19402 0.0
C1331 C 0.74303 0.44416 0.21245 0.0
C1332 C 0.78038 0.45199 0.18991 0.0
C1333 C 0.85145 0.45448 0.21258 0.0
H1334 H 0.87333 0.4881 0.16578 0.0
C1335 C 0.96856 0.47352 0.19751 0.0
C1336 C 0.97567 0.49905 0.18852 0.0
C1337 C 0.94073 0.46351 0.19744 0.0
C1338 C 0.86773 0.479 0.17904 0.0
H1339 H 0.75533 0.44947 0.241 0.0
H1340 H 0.80394 0.46297 0.23391 0.0
H1341 H 0.82374 0.48164 0.17283 0.0
H1342 H 0.95942 0.53204 0.17048 0.0
H1343 H 0.91089 0.5162 0.17172 0.0
H1344 H 0.89512 0.45416 0.21955 0.0
C1345 C 0.79002 0.45776 0.22256 0.0
C1346 C 0.83907 0.4748 0.18299 0.0
C1347 C 0.76203 0.45049 0.22668 0.0
C1348 C 0.95465 0.51288 0.17815 0.0
C1349 C 0.92666 0.50341 0.17859 0.0
C1350 C 0.88 0.45949 0.20889 0.0
C1351 C 0.79988 0.45772 0.20413 0.0
C1352 C 0.83045 0.46254 0.19987 0.0
C1353 C 0.91906 0.47919 0.18888 0.0
C1354 C 0.88865 0.4719 0.19208 0.0
H1355 H 0.73799 0.44045 0.1828 0.0
H1356 H 0.78696 0.45117 0.17559 0.0
H1357 H 0.84601 0.44424 0.22552 0.0
H1358 H 0.98398 0.46205 0.20564 0.0
H1359 H 0.93611 0.44409 0.20486 0.0
C1360 C 0.76801 0.81009 0.77169 0.0
C1361 C 0.75353 0.78854 0.76222 0.0
C1362 C 0.75782 0.83781 0.77159 0.0
C1363 C 0.71023 0.88285 0.74311 0.0
H1364 H 0.73343 0.94004 0.77826 0.0
C1365 C 0.69866 1.00068 0.72513 0.0
C1366 C 0.69268 0.0197 0.73941 0.0
C1367 C 0.70631 0.97278 0.7292 0.0
C1368 C 0.72631 0.92442 0.76838 0.0
H1369 H 0.71503 0.7788 0.74709 0.0
H1370 H 0.69621 0.82631 0.74828 0.0
H1371 H 0.74176 0.89056 0.78516 0.0
H1372 H 0.68985 0.02476 0.76912 0.0
H1373 H 0.70148 0.9759 0.77626 0.0
H1374 H 0.69308 0.91636 0.7269 0.0
C1375 C 0.71642 0.82231 0.75479 0.0
C1376 C 0.73155 0.89587 0.77223 0.0
C1377 C 0.72699 0.79475 0.75446 0.0
C1378 C 0.69488 0.01058 0.75784 0.0
C1379 C 0.70164 0.98247 0.76191 0.0
C1380 C 0.70429 0.91125 0.73951 0.0
C1381 C 0.73241 0.84454 0.76247 0.0
C1382 C 0.72407 0.87468 0.75949 0.0
C1383 C 0.70712 0.96301 0.74764 0.0
C1384 C 0.71273 0.93257 0.7519 0.0
H1385 H 0.78804 0.80591 0.77841 0.0
H1386 H 0.77086 0.85409 0.77776 0.0
H1387 H 0.70453 0.86746 0.7327 0.0
H1388 H 0.69712 0.00732 0.71082 0.0
H1389 H 0.71124 0.95885 0.7178 0.0
C1390 C 0.7581 0.9431 0.97237 0.0
C1391 C 0.73809 0.94531 0.98665 0.0
C1392 C 0.78591 0.95198 0.97507 0.0
C1393 C 0.83813 0.96265 1.01185 0.0
H1394 H 0.88129 0.99782 0.97231 0.0
C1395 C 0.95483 1.00089 1.01876 0.0
C1396 C 0.97252 0.99601 1.00345 0.0
C1397 C 0.92595 0.9945 1.01786 0.0
C1398 C 0.86958 0.98775 0.98342 0.0
H1399 H 0.7313 0.95949 1.01481 0.0
H1400 H 0.78004 0.97545 1.01945 0.0
H1401 H 0.83074 0.99005 0.96843 0.0
H1402 H 0.9739 0.9796 0.97547 0.0
H1403 H 0.92385 0.96791 0.9741 0.0
H1404 H 0.87721 0.96032 1.02679 0.0
C1405 C 0.77417 0.96651 1.00622 0.0
C1406 C 0.84061 0.98339 0.98122 0.0
C1407 C 0.74621 0.95767 1.00349 0.0
C1408 C 0.96098 0.98337 0.98758 0.0
C1409 C 0.9322 0.97705 0.98669 0.0
C1410 C 0.86719 0.96712 1.01408 0.0
C1411 C 0.79441 0.96331 0.99213 0.0
C1412 C 0.82462 0.97039 0.99528 0.0
C1413 C 0.91424 0.98325 1.00162 0.0
C1414 C 0.88327 0.9793 0.99975 0.0
H1415 H 0.75254 0.93362 0.95924 0.0
H1416 H 0.80103 0.94889 0.964 0.0
H1417 H 0.82645 0.95228 1.02285 0.0
H1418 H 0.96316 0.01036 1.03124 0.0
H1419 H 0.91262 0.99948 1.02959 0.0
C1420 C 0.81664 0.00814 0.22013 0.0
C1421 C 0.81439 0.98799 0.23438 0.0
C1422 C 0.80663 0.03561 0.22266 0.0
C1423 C 0.79433 0.08727 0.25921 0.0
H1424 H 0.75778 0.12964 0.21999 0.0
C1425 C 0.75751 0.20418 0.26646 0.0
C1426 C 0.76198 0.22178 0.251 0.0
C1427 C 0.76306 0.17514 0.26546 0.0
C1428 C 0.76821 0.11815 0.23102 0.0
H1429 H 0.799 0.98051 0.26226 0.0
H1430 H 0.78145 0.02869 0.26666 0.0
H1431 H 0.76641 0.07915 0.21609 0.0
H1432 H 0.77651 0.22273 0.22252 0.0
H1433 H 0.78689 0.17243 0.22097 0.0
H1434 H 0.79655 0.12647 0.27401 0.0
C1435 C 0.79109 0.02317 0.25357 0.0
C1436 C 0.77303 0.08923 0.22881 0.0
C1437 C 0.80089 0.99554 0.25097 0.0
C1438 C 0.77315 0.20991 0.23477 0.0
C1439 C 0.77866 0.18096 0.23377 0.0
C1440 C 0.78953 0.11627 0.26143 0.0
C1441 C 0.79433 0.0436 0.23955 0.0
C1442 C 0.78656 0.07358 0.24274 0.0
C1443 C 0.77307 0.16315 0.24894 0.0
C1444 C 0.77687 0.1321 0.2472 0.0
H1445 H 0.82693 1.00294 0.20719 0.0
H1446 H 0.80966 0.05095 0.21166 0.0
H1447 H 0.8051 0.0758 0.27011 0.0
H1448 H 0.74912 0.21276 0.2792 0.0
H1449 H 0.75855 0.16194 0.27738 0.0
C1450 C 0.76447 0.05197 0.50271 0.0
C1451 C 0.77227 0.06481 0.48588 0.0
C1452 C 0.73671 0.04261 0.50552 0.0
C1453 C 0.67061 0.02453 0.48105 0.0
H1454 H 0.63339 0.05002 0.52582 0.0
C1455 C 0.55031 0.0262 0.48648 0.0
C1456 C 0.53814 0.0148 0.50261 0.0
C1457 C 0.57922 0.03192 0.48568 0.0
C1458 C 0.64359 0.04249 0.51336 0.0
H1459 H 0.75763 0.07668 0.45855 0.0
H1460 H 0.70939 0.0602 0.46339 0.0
H1461 H 0.68424 0.05774 0.5219 0.0
H1462 H 0.54646 1.00206 0.53091 0.0
H1463 H 0.59725 0.01187 0.52943 0.0
H1464 H 0.63006 0.00964 0.47236 0.0
C1465 C 0.72462 0.05732 0.4744 0.0
C1466 C 0.67268 0.04679 0.51114 0.0
C1467 C 0.75223 0.06687 0.47165 0.0
C1468 C 0.55531 0.01058 0.51823 0.0
C1469 C 0.58432 0.01634 0.51743 0.0
C1470 C 0.64163 0.02025 0.48326 0.0
C1471 C 0.71641 0.04565 0.49149 0.0
C1472 C 0.68635 0.0383 0.4948 0.0
C1473 C 0.59665 0.02631 0.50096 0.0
C1474 C 0.62771 0.02966 0.49927 0.0
H1475 H 0.77944 0.05028 0.51398 0.0
H1476 H 0.73098 0.03346 0.51876 0.0
H1477 H 0.68068 0.01734 0.46845 0.0
H1478 H 0.53781 0.02943 0.47413 0.0
H1479 H 0.58806 0.04014 0.47291 0.0
C1480 C 0.25649 0.2064 0.43217 0.0
C1481 C 0.26295 0.22447 0.44702 0.0
C1482 C 0.2625 0.17743 0.43328 0.0
C1483 C 0.27057 0.12225 0.46856 0.0
H1484 H 0.30328 0.0769 0.42945 0.0
C1485 C 0.31728 0.01209 0.48134 0.0
C1486 C 0.314 0.99115 0.46778 0.0
C1487 C 0.30763 0.03956 0.4782 0.0
C1488 C 0.29366 0.08921 0.44038 0.0
H1489 H 0.28192 0.22637 0.47433 0.0
H1490 H 0.29294 0.17627 0.476 0.0
H1491 H 0.29528 0.12752 0.42437 0.0
H1492 H 0.29711 0.9823 0.4405 0.0
H1493 H 0.28005 0.03043 0.43508 0.0
H1494 H 0.26912 0.08422 0.48466 0.0
C1495 C 0.28287 0.18439 0.46363 0.0
C1496 C 0.28921 0.11817 0.43748 0.0
C1497 C 0.27696 0.21323 0.46252 0.0
C1498 C 0.2998 0.99795 0.45128 0.0
C1499 C 0.2903 0.02555 0.44808 0.0
C1500 C 0.27493 0.09339 0.47144 0.0
C1501 C 0.2749 0.16605 0.4493 0.0
C1502 C 0.27817 0.13506 0.4517 0.0
C1503 C 0.29458 0.04676 0.46139 0.0
C1504 C 0.28703 0.07665 0.45752 0.0
H1505 H 0.24588 0.21449 0.42 0.0
H1506 H 0.25622 0.16376 0.422 0.0
H1507 H 0.26135 0.13462 0.47961 0.0
H1508 H 0.32813 0.00751 0.49418 0.0
H1509 H 0.3115 0.05548 0.48866 0.0
C1510 C 0.05693 0.00927 0.18709 0.0
C1511 C 0.03869 0.01417 0.20211 0.0
C1512 C 0.08565 0.01614 0.18831 0.0
C1513 C 0.14089 0.02613 0.22351 0.0
H1514 H 0.18443 0.05911 0.18336 0.0
C1515 C 0.2512 0.07508 0.23338 0.0
C1516 C 0.27167 0.07058 0.21962 0.0
C1517 C 0.22354 0.06545 0.23097 0.0
C1518 C 0.1726 0.0495 0.19458 0.0
H1519 H 0.03618 0.03113 0.22993 0.0
H1520 H 0.08588 0.0439 0.23179 0.0
H1521 H 0.13396 0.0498 0.17914 0.0
H1522 H 0.27945 0.05173 0.19277 0.0
H1523 H 0.23096 0.03485 0.18859 0.0
H1524 H 0.17935 0.02622 0.23905 0.0
C1525 C 0.07814 0.03423 0.21921 0.0
C1526 C 0.14372 0.04425 0.19219 0.0
C1527 C 0.04952 0.02732 0.21801 0.0
C1528 C 0.26417 0.05536 0.20368 0.0
C1529 C 0.23639 0.04595 0.20119 0.0
C1530 C 0.16967 0.03145 0.22591 0.0
C1531 C 0.09667 0.02803 0.20458 0.0
C1532 C 0.12749 0.03287 0.20672 0.0
C1533 C 0.21571 0.0513 0.2147 0.0
C1534 C 0.18575 0.0435 0.21157 0.0
H1535 H 0.04915 0.99943 0.17458 0.0
H1536 H 0.0994 0.01111 0.1768 0.0
H1537 H 0.12912 0.01668 0.23482 0.0
H1538 H 0.25635 0.08675 0.24581 0.0
H1539 H 0.20801 0.07009 0.24155 0.0
C1540 C 0.19439 0.00932 0.94532 0.0
C1541 C 0.19247 0.01825 0.96376 0.0
C1542 C 0.20093 0.98122 0.94118 0.0
C1543 C 0.20365 0.90968 0.96351 0.0
H1544 H 0.24028 0.88947 0.9175 0.0
C1545 C 0.22569 0.79311 0.94812 0.0
C1546 C 0.25188 0.78684 0.93987 0.0
C1547 C 0.21527 0.82078 0.94806 0.0
C1548 C 0.23032 0.89462 0.93054 0.0
H1549 H 0.19714 0.00552 0.99232 0.0
H1550 H 0.21087 0.95704 0.98522 0.0
H1551 H 0.23227 0.93887 0.92455 0.0
H1552 H 0.28592 0.80446 0.9232 0.0
H1553 H 0.26916 0.85267 0.92439 0.0
H1554 H 0.20384 0.86579 0.97027 0.0
C1555 C 0.2059 0.97112 0.97386 0.0
C1556 C 0.22524 0.92314 0.93447 0.0
C1557 C 0.19846 0.99903 0.97799 0.0
C1558 C 0.26616 0.80857 0.93027 0.0
C1559 C 0.25619 0.83636 0.93068 0.0
C1560 C 0.20944 0.88129 0.95982 0.0
C1561 C 0.20647 0.96156 0.9554 0.0
C1562 C 0.21195 0.93113 0.95108 0.0
C1563 C 0.23112 0.84309 0.9402 0.0
C1564 C 0.22298 0.87327 0.94331 0.0
H1565 H 0.18936 0.02366 0.93408 0.0
H1566 H 0.20057 0.97482 0.92684 0.0
H1567 H 0.19266 0.91466 0.97621 0.0
H1568 H 0.21391 0.77712 0.95566 0.0
H1569 H 0.1953 0.82477 0.9549 0.0
C1570 C 0.45606 0.99793 0.68519 0.0
C1571 C 0.47341 0.99376 0.70074 0.0
C1572 C 0.42716 0.99166 0.68604 0.0
C1573 C 0.37031 0.98714 0.72034 0.0
H1574 H 0.32723 0.95053 0.68157 0.0
C1575 C 0.25825 0.94413 0.7318 0.0
C1576 C 0.23849 0.94609 0.71739 0.0
C1577 C 0.28616 0.9527 0.72908 0.0
C1578 C 0.33891 0.96123 0.69237 0.0
H1579 H 0.47422 0.97851 0.72908 0.0
H1580 H 0.42414 0.96695 0.73037 0.0
H1581 H 0.37817 0.95761 0.67768 0.0
H1582 H 0.2322 0.95953 0.68898 0.0
H1583 H 0.28114 0.97491 0.68429 0.0
H1584 H 0.33129 0.9907 0.73509 0.0
C1585 C 0.43276 0.97551 0.71763 0.0
C1586 C 0.36806 0.96513 0.69018 0.0
C1587 C 0.46157 0.98175 0.71679 0.0
C1588 C 0.24692 0.95794 0.7004 0.0
C1589 C 0.27499 0.96643 0.69764 0.0
C1590 C 0.34126 0.98332 0.72251 0.0
C1591 C 0.41512 0.98119 0.70247 0.0
C1592 C 0.38409 0.97772 0.70429 0.0
C1593 C 0.29499 0.96341 0.71186 0.0
C1594 C 0.3253 0.96994 0.70869 0.0
H1595 H 0.46465 0.00688 0.67257 0.0
H1596 H 0.41406 0.9962 0.67413 0.0
H1597 H 0.38201 0.99755 0.73126 0.0
H1598 H 0.25241 0.93505 0.74505 0.0
H1599 H 0.30111 0.94979 0.74025 0.0
C1600 C 0.31864 0.10412 0.14884 0.0
C1601 C 0.30866 0.12049 0.16377 0.0
C1602 C 0.30342 0.10216 0.13207 0.0
C1603 C 0.23098 0.11494 0.11101 0.0
H1604 H 0.27147 0.10628 1.06483 0.0
C1605 C 0.17228 0.09342 1.04018 0.0
C1606 C 0.18417 0.1048 1.02385 0.0
C1607 C 0.18665 0.09524 1.05735 0.0
C1608 C 0.25958 0.10893 1.0775 0.0
H1609 H 0.27418 0.14774 0.17219 0.0
H1610 H 0.2481 0.14478 0.14314 0.0
H1611 H 0.29765 0.11047 1.09359 0.0
H1612 H 0.22083 0.12762 1.01342 0.0
H1613 H 0.24516 0.13108 1.0428 0.0
H1614 H 0.19288 0.11397 1.09476 0.0
C1615 C 0.26761 0.133 0.1444 0.0
C1616 C 0.27479 0.11096 1.09424 0.0
C1617 C 0.28286 0.13497 0.16116 0.0
C1618 C 0.21073 0.11836 1.02546 0.0
C1619 C 0.22501 0.12016 1.0425 0.0
C1620 C 0.21573 0.11285 1.09423 0.0
C1621 C 0.27746 0.11646 0.12947 0.0
C1622 C 0.26089 0.11411 0.1114 0.0
C1623 C 0.21351 0.10843 1.05883 0.0
C1624 C 0.22969 0.10995 1.07706 0.0
H1625 H 0.33816 0.09233 0.15015 0.0
H1626 H 0.31185 0.08881 0.12127 0.0
H1627 H 0.21912 0.11693 0.12374 0.0
H1628 H 0.15202 0.08268 1.03968 0.0
H1629 H 0.1769 0.08568 1.06939 0.0
C1630 C 0.64361 0.46128 0.27422 0.0
C1631 C 0.65693 0.43465 0.27251 0.0
C1632 C 0.64173 0.47539 0.29133 0.0
C1633 C 0.64857 0.46551 0.34313 0.0
H1634 H 0.65087 0.54756 0.3428 0.0
C1635 C 0.62636 0.53186 0.41049 0.0
C1636 C 0.64056 0.5579 0.41312 0.0
C1637 C 0.62842 0.51674 0.39367 0.0
C1638 C 0.6504 0.52466 0.34337 0.0
H1639 H 0.67855 0.40223 0.28827 0.0
H1640 H 0.67543 0.42679 0.31809 0.0
H1641 H 0.65519 0.52171 0.31394 0.0
H1642 H 0.66837 0.58796 0.39943 0.0
H1643 H 0.67205 0.56191 0.37046 0.0
H1644 H 0.64439 0.46854 0.37267 0.0
C1645 C 0.6661 0.43674 0.30606 0.0
C1646 C 0.65251 0.50962 0.32656 0.0
C1647 C 0.668 0.42254 0.28883 0.0
C1648 C 0.65678 0.56825 0.39812 0.0
C1649 C 0.65883 0.55316 0.3813 0.0
C1650 C 0.6464 0.48059 0.35998 0.0
C1651 C 0.65314 0.46367 0.30766 0.0
C1652 C 0.65152 0.47968 0.32599 0.0
C1653 C 0.64479 0.52696 0.37867 0.0
C1654 C 0.64721 0.51055 0.36051 0.0
H1655 H 0.63458 0.47156 0.26221 0.0
H1656 H 0.63098 0.49559 0.29168 0.0
H1657 H 0.64747 0.44261 0.34359 0.0
H1658 H 0.61371 0.52288 0.42155 0.0
H1659 H 0.61683 0.49704 0.39243 0.0
C1660 C 0.2283 0.86928 0.66135 0.0
C1661 C 0.20611 0.88841 0.66508 0.0
C1662 C 0.24362 0.87044 0.64448 0.0
C1663 C 0.26228 0.91961 0.6051 0.0
H1664 H 0.2837 0.85129 0.57914 0.0
C1665 C 0.33667 0.92172 0.53942 0.0
C1666 C 0.32925 0.90399 0.52452 0.0
C1667 C 0.32271 0.91959 0.55674 0.0
C1668 C 0.27793 0.87069 0.58612 0.0
H1669 H 0.18332 0.92406 0.65338 0.0
H1670 H 0.20992 0.92621 0.62453 0.0
H1671 H 0.25754 0.8479 0.60832 0.0
H1672 H 0.30117 0.86962 0.51677 0.0
H1673 H 0.27764 0.86552 0.54671 0.0
H1674 H 0.28271 0.94241 0.58294 0.0
C1675 C 0.21554 0.91016 0.63459 0.0
C1676 C 0.26301 0.86871 0.60306 0.0
C1677 C 0.19998 0.90871 0.65124 0.0
C1678 C 0.30777 0.88368 0.52776 0.0
C1679 C 0.2942 0.88123 0.5451 0.0
C1680 C 0.2776 0.92158 0.58832 0.0
C1681 C 0.23777 0.89114 0.63082 0.0
C1682 C 0.25463 0.89313 0.61285 0.0
C1683 C 0.30113 0.8993 0.55993 0.0
C1684 C 0.28558 0.89717 0.57838 0.0
H1685 H 0.23398 0.85343 0.67152 0.0
H1686 H 0.26059 0.85544 0.64233 0.0
H1687 H 0.25661 0.93901 0.61211 0.0
H1688 H 0.35284 0.93778 0.5376 0.0
H1689 H 0.32898 0.93383 0.5677 0.0
C1690 C 0.86993 0.553 0.77428 0.0
C1691 C 0.85684 0.57971 0.77237 0.0
C1692 C 0.87141 0.5389 0.79142 0.0
C1693 C 0.86393 0.54815 0.84312 0.0
H1694 H 0.86056 0.46612 0.84239 0.0
C1695 C 0.88595 0.47989 0.90995 0.0
C1696 C 0.87162 0.45385 0.91247 0.0
C1697 C 0.8838 0.49549 0.89327 0.0
C1698 C 0.86132 0.48901 0.84308 0.0
H1699 H 0.83523 0.61236 0.78785 0.0
H1700 H 0.8377 0.58773 0.81784 0.0
H1701 H 0.85652 0.49264 0.8137 0.0
H1702 H 0.8434 0.42439 0.89877 0.0
H1703 H 0.83957 0.45128 0.87003 0.0
H1704 H 0.86813 0.54441 0.87264 0.0
C1705 C 0.84713 0.57773 0.80589 0.0
C1706 C 0.85938 0.50443 0.82637 0.0
C1707 C 0.84564 0.59198 0.78858 0.0
C1708 C 0.85514 0.44405 0.89752 0.0
C1709 C 0.85299 0.45963 0.88084 0.0
C1710 C 0.86592 0.53267 0.85989 0.0
C1711 C 0.85977 0.55064 0.80763 0.0
C1712 C 0.86084 0.53436 0.82593 0.0
C1713 C 0.86719 0.48581 0.87831 0.0
C1714 C 0.86477 0.50269 0.86027 0.0
H1715 H 0.87908 0.54262 0.76237 0.0
H1716 H 0.882 0.51862 0.7919 0.0
H1717 H 0.86533 0.57102 0.84366 0.0
H1718 H 0.89877 0.48849 0.92099 0.0
H1719 H 0.89551 0.51515 0.8921 0.0
C1720 C 0.83715 0.91924 0.16394 0.0
C1721 C 0.8301 0.90117 0.17884 0.0
C1722 C 0.82302 0.91726 0.14671 0.0
C1723 C 0.7783 0.86843 0.11747 0.0
H1724 H 0.75639 0.93699 1.09172 0.0
C1725 C 0.72813 0.86771 1.04249 0.0
C1726 C 0.7059 0.88685 1.03884 0.0
C1727 C 0.74353 0.86872 1.0593 0.0
C1728 C 0.76221 0.91751 1.09867 0.0
H1729 H 0.80248 0.86636 0.18665 0.0
H1730 H 0.77865 0.86254 0.15686 0.0
H1731 H 0.78269 0.94012 0.12075 0.0
H1732 H 0.6831 0.92233 1.05062 0.0
H1733 H 0.70981 0.92422 1.07938 0.0
H1734 H 0.75786 0.84582 1.09535 0.0
C1735 C 0.79506 0.8784 0.15841 0.0
C1736 C 0.77766 0.91934 0.11537 0.0
C1737 C 0.8088 0.88068 0.17566 0.0
C1738 C 0.69979 0.90698 1.0527 0.0
C1739 C 0.71542 0.90828 1.0693 0.0
C1740 C 0.76325 0.8666 1.10061 0.0
C1741 C 0.80161 0.8968 0.14359 0.0
C1742 C 0.78588 0.89484 0.12522 0.0
C1743 C 0.7377 0.88926 1.07299 0.0
C1744 C 0.75466 0.8911 1.0909 0.0
H1745 H 0.85315 0.93546 0.16571 0.0
H1746 H 0.82901 0.93177 0.13575 0.0
H1747 H 0.78424 0.84896 0.12439 0.0
H1748 H 0.7338 0.85197 1.03229 0.0
H1749 H 0.76053 0.85373 1.06138 0.0
C1750 C 0.36773 0.55382 0.92957 0.0
C1751 C 0.35446 0.58046 0.93139 0.0
C1752 C 0.36942 0.53974 0.91249 0.0
C1753 C 0.36213 0.54887 0.86073 0.0
H1754 H 0.35903 0.46685 0.86192 0.0
C1755 C 0.38387 0.48037 0.79413 0.0
C1756 C 0.36957 0.45428 0.79189 0.0
C1757 C 0.38187 0.49607 0.81073 0.0
C1758 C 0.35971 0.48973 0.86109 0.0
H1759 H 0.3329 0.61306 0.91576 0.0
H1760 H 0.33572 0.58846 0.88585 0.0
H1761 H 0.35484 0.49341 0.89046 0.0
H1762 H 0.34158 0.42486 0.806 0.0
H1763 H 0.33798 0.45189 0.83454 0.0
H1764 H 0.36637 0.54507 0.83122 0.0
C1765 C 0.34509 0.57849 0.89785 0.0
C1766 C 0.35769 0.50519 0.87773 0.0
C1767 C 0.3434 0.59273 0.91512 0.0
C1768 C 0.3533 0.44453 0.80702 0.0
C1769 C 0.35129 0.46021 0.82361 0.0
C1770 C 0.36419 0.53336 0.84404 0.0
C1771 C 0.35784 0.55144 0.89623 0.0
C1772 C 0.35905 0.53512 0.878 0.0
C1773 C 0.36544 0.48643 0.82587 0.0
C1774 C 0.36311 0.50338 0.84382 0.0
H1775 H 0.37686 0.54343 0.94152 0.0
H1776 H 0.38012 0.51951 0.91211 0.0
H1777 H 0.36346 0.57175 0.86007 0.0
H1778 H 0.39651 0.48894 0.78293 0.0
H1779 H 0.39352 0.51577 0.81169 0.0
C1780 C 0.67472 0.08831 0.66431 0.0
C1781 C 0.68205 0.10614 0.67918 0.0
C1782 C 0.68914 0.08999 0.64715 0.0
C1783 C 0.73519 0.13794 0.61806 0.0
H1784 H 0.75633 0.06912 0.59256 0.0
C1785 C 0.7854 0.13864 0.54334 0.0
C1786 C 0.80741 0.11934 0.53955 0.0
C1787 C 0.77006 0.13751 0.56016 0.0
C1788 C 0.75074 0.08864 0.59945 0.0
H1789 H 0.71041 0.14021 0.68705 0.0
H1790 H 0.73476 0.14352 0.65738 0.0
H1791 H 0.72956 0.0663 0.62151 0.0
H1792 H 0.82993 0.08342 0.55104 0.0
H1793 H 0.80324 0.0813 0.57997 0.0
H1794 H 0.75629 0.16029 0.596 0.0
C1795 C 0.71793 0.12808 0.65889 0.0
C1796 C 0.73503 0.08701 0.61608 0.0
C1797 C 0.70389 0.12608 0.67607 0.0
C1798 C 0.81341 0.09888 0.55328 0.0
C1799 C 0.7978 0.09747 0.56995 0.0
C1800 C 0.7505 0.13958 0.60128 0.0
C1801 C 0.7111 0.10991 0.6441 0.0
C1802 C 0.72709 0.11162 0.62582 0.0
C1803 C 0.77574 0.11671 0.57375 0.0
C1804 C 0.75879 0.11497 0.59167 0.0
H1805 H 0.65826 0.07252 0.66605 0.0
H1806 H 0.68294 0.07571 0.63619 0.0
H1807 H 0.72946 0.15747 0.6249 0.0
H1808 H 0.77983 0.15463 0.53323 0.0
H1809 H 0.75322 0.15264 0.56231 0.0
C1810 C 0.16725 0.41809 0.41556 0.0
C1811 C 0.15542 0.42997 0.43169 0.0
C1812 C 0.16562 0.43232 0.39826 0.0
C1813 C 0.1517 0.50521 0.37778 0.0
H1814 H 0.14455 0.46506 0.33145 0.0
C1815 C 0.15586 0.5655 0.30667 0.0
C1816 C 0.13963 0.55544 0.29169 0.0
C1817 C 0.15808 0.54997 0.32336 0.0
C1818 C 0.1463 0.47683 0.34421 0.0
H1819 H 0.13177 0.46632 0.44154 0.0
H1820 H 0.12863 0.49028 0.41202 0.0
H1821 H 0.14757 0.43851 0.36044 0.0
H1822 H 0.11305 0.52041 0.28306 0.0
H1823 H 0.11645 0.49383 0.31198 0.0
H1824 H 0.14986 0.54348 0.36175 0.0
C1825 C 0.13985 0.47034 0.41257 0.0
C1826 C 0.14842 0.46141 0.36098 0.0
C1827 C 0.14147 0.45625 0.4297 0.0
C1828 C 0.12562 0.52922 0.29415 0.0
C1829 C 0.12787 0.51367 0.31084 0.0
C1830 C 0.14964 0.52059 0.36106 0.0
C1831 C 0.15216 0.459 0.39646 0.0
C1832 C 0.15094 0.47526 0.37818 0.0
C1833 C 0.14423 0.52362 0.32583 0.0
C1834 C 0.14676 0.50681 0.34386 0.0
H1835 H 0.17829 0.39806 0.41635 0.0
H1836 H 0.17556 0.42267 0.38637 0.0
H1837 H 0.1541 0.51705 0.39047 0.0
H1838 H 0.16734 0.5853 0.30545 0.0
H1839 H 0.1713 0.55851 0.33421 0.0
C1840 C 0.69748 0.62851 0.52742 0.0
C1841 C 0.67626 0.60804 0.52402 0.0
C1842 C 0.71147 0.6302 0.5446 0.0
C1843 C 0.72995 0.58802 0.58695 0.0
H1844 H 0.75047 0.6612 0.60716 0.0
C1845 C 0.80944 0.59991 0.64919 0.0
C1846 C 0.80389 0.62054 0.66285 0.0
C1847 C 0.79336 0.59836 0.63273 0.0
C1848 C 0.7449 0.64049 0.60187 0.0
H1849 H 0.65357 0.57311 0.53667 0.0
H1850 H 0.67814 0.57582 0.5666 0.0
H1851 H 0.72305 0.65856 0.5786 0.0
H1852 H 0.77646 0.65584 0.66925 0.0
H1853 H 0.749 0.65356 0.64058 0.0
H1854 H 0.75203 0.56997 0.61017 0.0
C1855 C 0.68388 0.59077 0.55584 0.0
C1856 C 0.72923 0.63896 0.58525 0.0
C1857 C 0.66947 0.58937 0.53866 0.0
C1858 C 0.78175 0.63976 0.6592 0.0
C1859 C 0.76591 0.63845 0.6426 0.0
C1860 C 0.74599 0.58956 0.60345 0.0
C1861 C 0.70527 0.61121 0.55915 0.0
C1862 C 0.7214 0.6127 0.5774 0.0
C1863 C 0.7712 0.61757 0.62905 0.0
C1864 C 0.75383 0.61584 0.61129 0.0
H1865 H 0.70362 0.64328 0.51664 0.0
H1866 H 0.72786 0.64606 0.54625 0.0
H1867 H 0.72473 0.56734 0.58147 0.0
H1868 H 0.82603 0.58448 0.65131 0.0
H1869 H 0.79856 0.58212 0.62276 0.0
C1870 C 0.13787 0.96023 0.77521 0.0
C1871 C 0.15093 0.93349 0.7736 0.0
C1872 C 0.13611 0.97437 0.79229 0.0
C1873 C 0.14341 0.96432 0.84404 0.0
H1874 H 0.14689 0.04633 0.8437 0.0
C1875 C 0.12422 0.03069 0.91159 0.0
C1876 C 0.13898 0.05645 0.914 0.0
C1877 C 0.12544 0.01563 0.89473 0.0
C1878 C 0.14611 0.02343 0.84426 0.0
H1879 H 0.17219 0.90086 0.7894 0.0
H1880 H 0.16938 0.92548 0.81911 0.0
H1881 H 0.15026 0.02049 0.81481 0.0
H1882 H 0.16691 0.08605 0.89998 0.0
H1883 H 0.16919 0.06006 0.87099 0.0
H1884 H 0.14003 0.96732 0.87359 0.0
C1885 C 0.16009 0.93549 0.8071 0.0
C1886 C 0.14764 0.00842 0.82744 0.0
C1887 C 0.1618 0.92126 0.78992 0.0
C1888 C 0.15487 0.06659 0.89881 0.0
C1889 C 0.15612 0.05154 0.88198 0.0
C1890 C 0.14189 0.97936 0.86089 0.0
C1891 C 0.14744 0.96253 0.80862 0.0
C1892 C 0.14621 0.97852 0.8269 0.0
C1893 C 0.14152 0.02563 0.87955 0.0
C1894 C 0.14315 0.00929 0.8614 0.0
H1895 H 0.12906 0.97055 0.76313 0.0
H1896 H 0.12561 0.9947 0.79264 0.0
H1897 H 0.14198 0.94144 0.84449 0.0
H1898 H 0.11187 0.02186 0.92284 0.0
H1899 H 0.11348 0.99612 0.89362 0.0
C1900 C 0.84074 0.42254 1.03789 0.0
C1901 C 0.83396 0.40395 1.0233 0.0
C1902 C 0.82626 0.42113 1.05507 0.0
C1903 C 0.78115 0.37291 1.08476 0.0
H1904 H 0.75778 0.44182 0.1093 0.0
C1905 C 0.72944 0.37252 0.15905 0.0
C1906 C 0.7069 0.39134 0.16255 0.0
C1907 C 0.74509 0.37375 0.14235 0.0
C1908 C 0.764 0.42226 0.10268 0.0
H1909 H 0.80651 0.36884 1.016 0.0
H1910 H 0.78216 0.36601 1.04565 0.0
H1911 H 0.78499 0.44454 1.08049 0.0
H1912 H 0.68382 0.42656 0.15062 0.0
H1913 H 0.71104 0.42887 0.1219 0.0
H1914 H 0.76026 0.35061 0.10693 0.0
C1915 C 0.79859 0.38184 1.04393 0.0
C1916 C 0.77998 0.42384 1.08612 0.0
C1917 C 0.81264 0.38356 1.02674 0.0
C1918 C 0.70073 0.41145 0.14862 0.0
C1919 C 0.71665 0.41298 0.13207 0.0
C1920 C 0.76559 0.37132 1.10146 0.0
C1921 C 0.80482 0.40073 1.05844 0.0
C1922 C 0.78871 0.39919 1.07671 0.0
C1923 C 0.73923 0.39419 0.12856 0.0
C1924 C 0.75647 0.39595 0.11073 0.0
H1925 H 0.85673 0.43874 1.03588 0.0
H1926 H 0.832 0.43602 1.06579 0.0
H1927 H 0.78748 0.35333 1.07821 0.0
H1928 H 0.73522 0.35685 0.16933 0.0
H1929 H 0.76232 0.35899 0.14046 0.0
C1930 C 0.34794 0.95175 0.40046 0.0
C1931 C 0.36857 0.95726 0.41412 0.0
C1932 C 0.34674 0.96768 0.38387 0.0
C1933 C 0.38981 0.01523 0.35273 0.0
H1934 H 0.31722 0.03681 0.33226 0.0
C1935 C 0.37859 0.06236 0.27802 0.0
C1936 C 0.35885 0.08416 0.27458 0.0
C1937 C 0.38 0.04841 0.29526 0.0
C1938 C 0.33775 0.03118 0.33776 0.0
H1939 H 0.40432 0.98438 0.42038 0.0
H1940 H 0.40266 0.01152 0.39149 0.0
H1941 H 0.31926 0.00955 0.36111 0.0
H1942 H 0.32493 0.10797 0.28722 0.0
H1943 H 0.32713 0.08345 0.31728 0.0
H1944 H 0.40831 0.03659 0.32932 0.0
C1945 C 0.38725 0.9948 0.39361 0.0
C1946 C 0.33893 0.01517 0.35434 0.0
C1947 C 0.38819 0.97915 0.41033 0.0
C1948 C 0.34063 0.0916 0.28924 0.0
C1949 C 0.34173 0.07724 0.3065 0.0
C1950 C 0.38861 0.03084 0.33603 0.0
C1951 C 0.36635 0.98959 0.38007 0.0
C1952 C 0.365 0.00685 0.3622 0.0
C1953 C 0.36143 0.05526 0.30984 0.0
C1954 C 0.36257 0.03918 0.32816 0.0
H1955 H 0.33223 0.93535 0.40271 0.0
H1956 H 0.33046 0.96258 0.3739 0.0
H1957 H 0.41035 0.00926 0.35804 0.0
H1958 H 0.39298 0.05572 0.26722 0.0
H1959 H 0.39528 0.03157 0.29696 0.0
C1960 C 0.33615 0.42064 0.66715 0.0
C1961 C 0.32876 0.40273 0.68206 0.0
C1962 C 0.32177 0.41907 0.65001 0.0
C1963 C 0.27575 0.37133 0.62109 0.0
H1964 H 0.255 0.44027 0.59531 0.0
C1965 C 0.22621 0.37075 0.54636 0.0
C1966 C 0.20433 0.39013 0.54241 0.0
C1967 C 0.24138 0.37188 0.5632 0.0
C1968 C 0.26048 0.42071 0.60229 0.0
H1969 H 0.3003 0.36871 0.69005 0.0
H1970 H 0.27599 0.36561 0.6604 0.0
H1971 H 0.28156 0.44295 0.62429 0.0
H1972 H 0.18185 0.42621 0.55361 0.0
H1973 H 0.20825 0.4283 0.5826 0.0
H1974 H 0.25475 0.34908 0.59909 0.0
C1975 C 0.29286 0.381 0.66186 0.0
C1976 C 0.27607 0.42226 0.61893 0.0
C1977 C 0.30687 0.38287 0.67903 0.0
C1978 C 0.19828 0.41068 0.55599 0.0
C1979 C 0.21372 0.41207 0.57269 0.0
C1980 C 0.26055 0.36977 0.6043 0.0
C1981 C 0.29978 0.39922 0.64702 0.0
C1982 C 0.28388 0.39761 0.62876 0.0
C1983 C 0.23564 0.39274 0.57665 0.0
C1984 C 0.25241 0.39442 0.59459 0.0
H1985 H 0.35264 0.43638 0.66884 0.0
H1986 H 0.32804 0.43339 0.63901 0.0
H1987 H 0.28139 0.35177 0.62799 0.0
H1988 H 0.23182 0.3547 0.53635 0.0
H1989 H 0.25815 0.35669 0.56547 0.0
C1990 C 0.87142 0.05153 0.42762 0.0
C1991 C 0.85782 0.078 0.42949 0.0
C1992 C 0.87274 0.03732 0.41053 0.0
C1993 C 0.86366 0.04665 0.35887 0.0
H1994 H 0.8618 0.96458 0.35956 0.0
C1995 C 0.88359 0.97978 0.29143 0.0
C1996 C 0.86933 0.95369 0.28913 0.0
C1997 C 0.88215 0.99502 0.30823 0.0
C1998 C 0.86214 0.98749 0.35889 0.0
H1999 H 0.83513 0.11002 0.41404 0.0
H2000 H 0.83735 0.08531 0.38425 0.0
H2001 H 0.8585 0.99069 0.38838 0.0
H2002 H 0.84211 0.92369 0.30337 0.0
H2003 H 0.83951 0.94996 0.3323 0.0
H2004 H 0.86671 0.04336 0.32928 0.0
C2005 C 0.8473 0.07557 0.39612 0.0
C2006 C 0.86062 1.00267 0.37567 0.0
C2007 C 0.84594 0.08987 0.41335 0.0
C2008 C 0.85372 0.94343 0.30442 0.0
C2009 C 0.85229 0.95865 0.32122 0.0
C2010 C 0.86526 0.03143 0.34205 0.0
C2011 C 0.8605 0.04878 0.39438 0.0
C2012 C 0.86147 0.03262 0.3761 0.0
C2013 C 0.86637 0.9849 0.32353 0.0
C2014 C 0.86459 1.00145 0.34165 0.0
H2015 H 0.88103 0.04142 0.4395 0.0
H2016 H 0.8837 0.01724 0.41004 0.0
H2017 H 0.86462 0.06954 0.35831 0.0
H2018 H 0.89579 0.9887 0.28014 0.0
H2019 H 0.89374 0.01476 0.30922 0.0
C2020 C 0.16917 0.58844 0.1659 0.0
C2021 C 0.17723 0.60583 0.18084 0.0
C2022 C 0.18331 0.59012 0.14861 0.0
C2023 C 0.23006 0.6377 0.11965 0.0
H2024 H 0.25029 0.56907 1.09363 0.0
C2025 C 0.28153 0.63944 1.04533 0.0
C2026 C 0.30331 0.6199 1.0415 0.0
C2027 C 0.26579 0.63805 1.06198 0.0
C2028 C 0.24495 0.58854 1.10067 0.0
H2029 H 0.20649 0.63914 0.18867 0.0
H2030 H 0.23027 0.64247 0.15886 0.0
H2031 H 0.22322 0.56611 0.12249 0.0
H2032 H 0.32496 0.58327 1.05275 0.0
H2033 H 0.29757 0.5807 1.08138 0.0
H2034 H 0.25173 0.66015 1.09788 0.0
C2035 C 0.21313 0.62737 0.16038 0.0
C2036 C 0.22906 0.58683 0.11724 0.0
C2037 C 0.19941 0.62536 0.17765 0.0
C2038 C 0.30863 0.59891 1.05502 0.0
C2039 C 0.29261 0.59725 1.07151 0.0
C2040 C 0.24554 0.63943 0.10294 0.0
C2041 C 0.20565 0.60962 0.14552 0.0
C2042 C 0.22149 0.61137 0.12718 0.0
C2043 C 0.27082 0.61676 1.07536 0.0
C2044 C 0.25354 0.61489 1.09315 0.0
H2045 H 0.15245 0.57294 0.16772 0.0
H2046 H 0.17663 0.57614 0.13761 0.0
H2047 H 0.22464 0.65719 0.12664 0.0
H2048 H 0.27646 0.65582 1.03537 0.0
H2049 H 0.24916 0.65341 1.06417 0.0
C2050 C 0.6615 0.92108 0.91409 0.0
C2051 C 0.65087 0.93331 0.93045 0.0
C2052 C 0.65989 0.93547 0.89691 0.0
C2053 C 0.64811 0.0087 0.87646 0.0
H2054 H 0.63985 0.96787 0.83044 0.0
C2055 C 0.65517 0.06715 0.80482 0.0
C2056 C 0.6391 0.05712 0.78975 0.0
C2057 C 0.65647 0.05205 0.8217 0.0
C2058 C 0.6419 0.97985 0.8431 0.0
H2059 H 0.62958 0.97059 0.94097 0.0
H2060 H 0.62628 0.99503 0.91146 0.0
H2061 H 0.64172 0.94186 0.85959 0.0
H2062 H 0.61173 0.02268 0.78119 0.0
H2063 H 0.61345 0.99689 0.81047 0.0
H2064 H 0.64762 0.04669 0.8601 0.0
C2065 C 0.63652 0.97456 0.91177 0.0
C2066 C 0.64338 0.96472 0.85999 0.0
C2067 C 0.63818 0.96025 0.92887 0.0
C2068 C 0.62424 0.03142 0.79234 0.0
C2069 C 0.62551 0.01632 0.80924 0.0
C2070 C 0.64663 0.0238 0.8596 0.0
C2071 C 0.64758 0.96269 0.8954 0.0
C2072 C 0.6464 0.9788 0.87708 0.0
C2073 C 0.64177 0.02621 0.82431 0.0
C2074 C 0.64342 0.00977 0.84251 0.0
H2075 H 0.67161 0.90054 0.91459 0.0
H2076 H 0.66898 0.92542 0.88487 0.0
H2077 H 0.65091 0.02068 0.88905 0.0
H2078 H 0.66729 0.08656 0.80351 0.0
H2079 H 0.66967 0.06048 0.8326 0.0
loop_
_geom_bond_atom_site_label_1
_geom_bond_atom_site_label_2
_geom_bond_distance
_geom_bond_site_symmetry_2
_ccdc_geom_bond_type
Dy0 O3 2.307 . S
Dy0 O5 2.395 . S
Dy0 O6 2.379 . S
Dy0 O8 2.339 . S
Dy0 O10 2.298 . S
Dy0 O14 2.275 . S
Dy0 C22 2.738 . S
Dy1 O4 2.298 . S
Dy1 O7 2.275 . S
Dy1 O9 2.307 . S
Dy1 O11 2.395 . S
Dy1 O12 2.379 . S
Dy1 O15 2.339 . S
Dy1 C31 2.738 . S
C2 O14 1.254 . S
C2 O15 1.257 . S
O3 Dy0 2.307 . S
O3 C13 1.266 . S
O4 Dy1 2.298 . S
O4 C13 1.236 . S
O5 Dy0 2.395 . S
O5 C22 1.255 . S
O6 Dy0 2.379 . S
O6 C22 1.249 . S
O7 Dy1 2.275 . S
O7 C23 1.254 . S
O8 Dy0 2.339 . S
O8 C23 1.257 . S
O9 Dy1 2.307 . S
O9 C24 1.266 . S
O10 Dy0 2.298 . S
O10 C24 1.236 . S
O11 Dy1 2.395 . S
O11 C31 1.255 . S
O12 Dy1 2.379 . S
O12 C31 1.249 . S
C13 O3 1.266 . S
C13 O4 1.236 . S
O14 Dy0 2.275 . S
O14 C2 1.254 . S
O15 Dy1 2.339 . S
O15 C2 1.257 . S
C16 C19 1.344 . S
C16 C20 1.328 . S
C16 C22 1.516 . S
C17 C18 1.304 . S
C17 C21 1.323 . S
C18 C17 1.304 . S
C18 C19 1.371 . S
C18 H32 0.930 . S
C19 C16 1.344 . S
C19 C18 1.371 . S
C19 H33 0.931 . S
C20 C16 1.328 . S
C20 C21 1.433 . S
C20 H34 0.931 . S
C21 C17 1.323 . S
C21 C20 1.433 . S
C21 H35 0.933 1_545 S
C22 Dy0 2.738 . S
C22 O5 1.255 . S
C22 O6 1.249 . S
C22 C16 1.516 . S
C23 O7 1.254 . S
C23 O8 1.257 . S
C24 O9 1.266 . S
C24 O10 1.236 . S
C25 C28 1.344 . S
C25 C29 1.328 . S
C25 C31 1.516 . S
C26 C27 1.304 . S
C26 C30 1.323 . S
C27 C26 1.304 . S
C27 C28 1.371 . S
C27 H36 0.930 . S
C28 C25 1.344 . S
C28 C27 1.371 . S
C28 H37 0.931 . S
C29 C25 1.328 . S
C29 C30 1.433 . S
C29 H38 0.931 . S
C30 C26 1.323 . S
C30 C29 1.433 . S
C30 H39 0.933 . S
C31 Dy1 2.738 . S
C31 O11 1.255 . S
C31 O12 1.249 . S
C31 C25 1.516 . S
H32 C18 0.930 . S
H33 C19 0.931 . S
H34 C20 0.931 . S
H35 C21 0.933 1_565 S
H36 C27 0.930 . S
H37 C28 0.931 . S
H38 C29 0.931 . S
H39 C30 0.933 . S
Dy40 O43 2.307 . S
Dy40 O45 2.395 . S
Dy40 O46 2.379 . S
Dy40 O48 2.339 . S
Dy40 O50 2.298 . S
Dy40 O54 2.275 . S
Dy40 C62 2.738 . S
Dy41 O44 2.298 . S
Dy41 O47 2.275 . S
Dy41 O49 2.307 . S
Dy41 O51 2.395 . S
Dy41 O52 2.379 . S
Dy41 O55 2.339 . S
Dy41 C71 2.738 . S
C42 O54 1.254 . S
C42 O55 1.257 . S
O43 Dy40 2.307 . S
O43 C53 1.266 . S
O44 Dy41 2.298 . S
O44 C53 1.236 . S
O45 Dy40 2.395 . S
O45 C62 1.255 . S
O46 Dy40 2.379 . S
O46 C62 1.249 . S
O47 Dy41 2.275 . S
O47 C63 1.254 . S
O48 Dy40 2.339 . S
O48 C63 1.257 . S
O49 Dy41 2.307 . S
O49 C64 1.266 . S
O50 Dy40 2.298 . S
O50 C64 1.236 . S
O51 Dy41 2.395 . S
O51 C71 1.255 . S
O52 Dy41 2.379 . S
O52 C71 1.249 . S
C53 O43 1.266 . S
C53 O44 1.236 . S
O54 Dy40 2.275 . S
O54 C42 1.254 . S
O55 Dy41 2.339 . S
O55 C42 1.257 . S
C56 C59 1.344 . S
C56 C60 1.328 . S
C56 C62 1.516 . S
C57 C58 1.304 . S
C57 C61 1.323 . S
C58 C57 1.304 . S
C58 C59 1.371 . S
C58 H72 0.930 . S
C59 C56 1.344 . S
C59 C58 1.371 . S
C59 H73 0.931 . S
C60 C56 1.328 . S
C60 C61 1.433 . S
C60 H74 0.931 . S
C61 C57 1.323 . S
C61 C60 1.433 . S
C61 H75 0.933 . S
C62 Dy40 2.738 . S
C62 O45 1.255 . S
C62 O46 1.249 . S
C62 C56 1.516 . S
C63 O47 1.254 . S
C63 O48 1.257 . S
C64 O49 1.266 . S
C64 O50 1.236 . S
C65 C68 1.344 . S
C65 C69 1.328 . S
C65 C71 1.516 . S
C66 C67 1.304 . S
C66 C70 1.323 . S
C67 C66 1.304 . S
C67 C68 1.371 . S
C67 H76 0.930 . S
C68 C65 1.344 . S
C68 C67 1.371 . S
C68 H77 0.931 . S
C69 C65 1.328 . S
C69 C70 1.433 . S
C69 H78 0.931 . S
C70 C66 1.323 . S
C70 C69 1.433 . S
C70 H79 0.933 . S
C71 Dy41 2.738 . S
C71 O51 1.255 . S
C71 O52 1.249 . S
C71 C65 1.516 . S
H72 C58 0.930 . S
H73 C59 0.931 . S
H74 C60 0.931 . S
H75 C61 0.933 . S
H76 C67 0.930 . S
H77 C68 0.931 . S
H78 C69 0.931 . S
H79 C70 0.933 . S
Dy80 O83 2.307 . S
Dy80 O85 2.395 . S
Dy80 O86 2.379 . S
Dy80 O88 2.339 . S
Dy80 O90 2.298 . S
Dy80 O94 2.275 . S
Dy80 C102 2.738 . S
Dy81 O84 2.298 . S
Dy81 O87 2.275 . S
Dy81 O89 2.307 . S
Dy81 O91 2.395 . S
Dy81 O92 2.379 . S
Dy81 O95 2.339 . S
Dy81 C111 2.738 . S
C82 O94 1.254 . S
C82 O95 1.257 . S
O83 Dy80 2.307 . S
O83 C93 1.266 . S
O84 Dy81 2.298 . S
O84 C93 1.236 . S
O85 Dy80 2.395 . S
O85 C102 1.255 . S
O86 Dy80 2.379 . S
O86 C102 1.249 . S
O87 Dy81 2.275 . S
O87 C103 1.254 . S
O88 Dy80 2.339 . S
O88 C103 1.257 . S
O89 Dy81 2.307 . S
O89 C104 1.266 . S
O90 Dy80 2.298 . S
O90 C104 1.236 . S
O91 Dy81 2.395 . S
O91 C111 1.255 . S
O92 Dy81 2.379 . S
O92 C111 1.249 . S
C93 O83 1.266 . S
C93 O84 1.236 . S
O94 Dy80 2.275 . S
O94 C82 1.254 . S
O95 Dy81 2.339 . S
O95 C82 1.257 . S
C96 C99 1.344 . S
C96 C100 1.328 . S
C96 C102 1.516 . S
C97 C98 1.304 . S
C97 C101 1.323 . S
C98 C97 1.304 . S
C98 C99 1.371 . S
C98 H112 0.930 . S
C99 C96 1.344 . S
C99 C98 1.371 . S
C99 H113 0.931 . S
C100 C96 1.328 . S
C100 C101 1.433 . S
C100 H114 0.931 . S
C101 C97 1.323 . S
C101 C100 1.433 . S
C101 H115 0.933 1_565 S
C102 Dy80 2.738 . S
C102 O85 1.255 . S
C102 O86 1.249 . S
C102 C96 1.516 . S
C103 O87 1.254 . S
C103 O88 1.257 . S
C104 O89 1.266 . S
C104 O90 1.236 . S
C105 C108 1.344 . S
C105 C109 1.328 . S
C105 C111 1.516 . S
C106 C107 1.304 . S
C106 C110 1.323 . S
C107 C106 1.304 . S
C107 C108 1.371 . S
C107 H116 0.930 . S
C108 C105 1.344 . S
C108 C107 1.371 . S
C108 H117 0.931 . S
C109 C105 1.328 . S
C109 C110 1.433 . S
C109 H118 0.931 . S
C110 C106 1.323 . S
C110 C109 1.433 . S
C110 H119 0.933 . S
C111 Dy81 2.738 . S
C111 O91 1.255 . S
C111 O92 1.249 . S
C111 C105 1.516 . S
H112 C98 0.930 . S
H113 C99 0.931 . S
H114 C100 0.931 . S
H115 C101 0.933 1_545 S
H116 C107 0.930 . S
H117 C108 0.931 . S
H118 C109 0.931 . S
H119 C110 0.933 . S
Dy120 O123 2.307 . S
Dy120 O125 2.395 . S
Dy120 O126 2.379 . S
Dy120 O128 2.339 . S
Dy120 O130 2.298 . S
Dy120 O134 2.275 . S
Dy120 C142 2.738 . S
Dy121 O124 2.298 . S
Dy121 O127 2.275 . S
Dy121 O129 2.307 . S
Dy121 O131 2.395 . S
Dy121 O132 2.379 . S
Dy121 O135 2.339 . S
Dy121 C151 2.738 . S
C122 O134 1.254 . S
C122 O135 1.257 . S
O123 Dy120 2.307 . S
O123 C133 1.266 . S
O124 Dy121 2.298 . S
O124 C133 1.236 . S
O125 Dy120 2.395 . S
O125 C142 1.255 . S
O126 Dy120 2.379 . S
O126 C142 1.249 . S
O127 Dy121 2.275 . S
O127 C143 1.254 . S
O128 Dy120 2.339 . S
O128 C143 1.257 . S
O129 Dy121 2.307 . S
O129 C144 1.266 . S
O130 Dy120 2.298 . S
O130 C144 1.236 . S
O131 Dy121 2.395 . S
O131 C151 1.255 . S
O132 Dy121 2.379 . S
O132 C151 1.249 . S
C133 O123 1.266 . S
C133 O124 1.236 . S
O134 Dy120 2.275 . S
O134 C122 1.254 . S
O135 Dy121 2.339 . S
O135 C122 1.257 . S
C136 C139 1.344 . S
C136 C140 1.328 . S
C136 C142 1.516 . S
C137 C138 1.304 . S
C137 C141 1.323 . S
C138 C137 1.304 . S
C138 C139 1.371 . S
C138 H152 0.930 . S
C139 C136 1.344 . S
C139 C138 1.371 . S
C139 H153 0.931 . S
C140 C136 1.328 . S
C140 C141 1.433 . S
C140 H154 0.931 . S
C141 C137 1.323 . S
C141 C140 1.433 . S
C141 H155 0.933 . S
C142 Dy120 2.738 . S
C142 O125 1.255 . S
C142 O126 1.249 . S
C142 C136 1.516 . S
C143 O127 1.254 . S
C143 O128 1.257 . S
C144 O129 1.266 . S
C144 O130 1.236 . S
C145 C148 1.344 . S
C145 C149 1.328 1_655 S
C145 C151 1.516 . S
C146 C147 1.304 1_455 S
C146 C150 1.323 . S
C147 C146 1.304 1_655 S
C147 C148 1.371 . S
C147 H156 0.930 . S
C148 C145 1.344 . S
C148 C147 1.371 . S
C148 H157 0.931 . S
C149 C145 1.328 1_455 S
C149 C150 1.433 . S
C149 H158 0.931 . S
C150 C146 1.323 . S
C150 C149 1.433 . S
C150 H159 0.933 . S
C151 Dy121 2.738 . S
C151 O131 1.255 . S
C151 O132 1.249 . S
C151 C145 1.516 . S
H152 C138 0.930 . S
H153 C139 0.931 . S
H154 C140 0.931 . S
H155 C141 0.933 . S
H156 C147 0.930 . S
H157 C148 0.931 . S
H158 C149 0.931 . S
H159 C150 0.933 . S
Dy160 O163 2.307 . S
Dy160 O165 2.395 . S
Dy160 O166 2.379 . S
Dy160 O168 2.339 . S
Dy160 O170 2.298 . S
Dy160 O174 2.275 . S
Dy160 C182 2.738 . S
Dy161 O164 2.298 . S
Dy161 O167 2.275 . S
Dy161 O169 2.307 . S
Dy161 O171 2.395 . S
Dy161 O172 2.379 . S
Dy161 O175 2.339 . S
Dy161 C191 2.738 . S
C162 O174 1.254 . S
C162 O175 1.257 . S
O163 Dy160 2.307 . S
O163 C173 1.266 . S
O164 Dy161 2.298 . S
O164 C173 1.236 . S
O165 Dy160 2.395 . S
O165 C182 1.255 . S
O166 Dy160 2.379 . S
O166 C182 1.249 . S
O167 Dy161 2.275 . S
O167 C183 1.254 . S
O168 Dy160 2.339 . S
O168 C183 1.257 . S
O169 Dy161 2.307 . S
O169 C184 1.266 . S
O170 Dy160 2.298 . S
O170 C184 1.236 . S
O171 Dy161 2.395 . S
O171 C191 1.255 . S
O172 Dy161 2.379 . S
O172 C191 1.249 . S
C173 O163 1.266 . S
C173 O164 1.236 . S
O174 Dy160 2.275 . S
O174 C162 1.254 . S
O175 Dy161 2.339 . S
O175 C162 1.257 . S
C176 C179 1.344 . S
C176 C180 1.328 . S
C176 C182 1.516 . S
C177 C178 1.304 . S
C177 C181 1.323 . S
C178 C177 1.304 . S
C178 C179 1.371 . S
C178 H192 0.930 . S
C179 C176 1.344 . S
C179 C178 1.371 . S
C179 H193 0.931 . S
C180 C176 1.328 . S
C180 C181 1.433 . S
C180 H194 0.931 . S
C181 C177 1.323 . S
C181 C180 1.433 . S
C181 H195 0.933 . S
C182 Dy160 2.738 . S
C182 O165 1.255 . S
C182 O166 1.249 . S
C182 C176 1.516 . S
C183 O167 1.254 . S
C183 O168 1.257 . S
C184 O169 1.266 . S
C184 O170 1.236 . S
C185 C188 1.344 . S
C185 C189 1.328 . S
C185 C191 1.516 . S
C186 C187 1.304 . S
C186 C190 1.323 . S
C187 C186 1.304 . S
C187 C188 1.371 . S
C187 H196 0.930 . S
C188 C185 1.344 . S
C188 C187 1.371 . S
C188 H197 0.931 . S
C189 C185 1.328 . S
C189 C190 1.433 . S
C189 H198 0.931 . S
C190 C186 1.323 . S
C190 C189 1.433 . S
C190 H199 0.933 1_565 S
C191 Dy161 2.738 . S
C191 O171 1.255 . S
C191 O172 1.249 . S
C191 C185 1.516 . S
H192 C178 0.930 . S
H193 C179 0.931 . S
H194 C180 0.931 . S
H195 C181 0.933 . S
H196 C187 0.930 . S
H197 C188 0.931 . S
H198 C189 0.931 . S
H199 C190 0.933 1_545 S
Dy200 O203 2.307 . S
Dy200 O205 2.395 . S
Dy200 O206 2.379 . S
Dy200 O208 2.339 . S
Dy200 O210 2.298 . S
Dy200 O214 2.275 . S
Dy200 C222 2.738 . S
Dy201 O204 2.298 . S
Dy201 O207 2.275 . S
Dy201 O209 2.307 . S
Dy201 O211 2.395 . S
Dy201 O212 2.379 . S
Dy201 O215 2.339 . S
Dy201 C231 2.738 . S
C202 O214 1.254 . S
C202 O215 1.257 . S
O203 Dy200 2.307 . S
O203 C213 1.266 . S
O204 Dy201 2.298 . S
O204 C213 1.236 . S
O205 Dy200 2.395 . S
O205 C222 1.255 . S
O206 Dy200 2.379 . S
O206 C222 1.249 . S
O207 Dy201 2.275 . S
O207 C223 1.254 . S
O208 Dy200 2.339 . S
O208 C223 1.257 . S
O209 Dy201 2.307 . S
O209 C224 1.266 . S
O210 Dy200 2.298 . S
O210 C224 1.236 . S
O211 Dy201 2.395 . S
O211 C231 1.255 . S
O212 Dy201 2.379 . S
O212 C231 1.249 . S
C213 O203 1.266 . S
C213 O204 1.236 . S
O214 Dy200 2.275 . S
O214 C202 1.254 . S
O215 Dy201 2.339 . S
O215 C202 1.257 . S
C216 C219 1.344 . S
C216 C220 1.328 . S
C216 C222 1.516 . S
C217 C218 1.304 . S
C217 C221 1.323 . S
C218 C217 1.304 . S
C218 C219 1.371 . S
C218 H232 0.930 . S
C219 C216 1.344 . S
C219 C218 1.371 . S
C219 H233 0.931 . S
C220 C216 1.328 . S
C220 C221 1.433 . S
C220 H234 0.931 . S
C221 C217 1.323 . S
C221 C220 1.433 . S
C221 H235 0.933 . S
C222 Dy200 2.738 . S
C222 O205 1.255 . S
C222 O206 1.249 . S
C222 C216 1.516 . S
C223 O207 1.254 . S
C223 O208 1.257 . S
C224 O209 1.266 . S
C224 O210 1.236 . S
C225 C228 1.344 . S
C225 C229 1.328 . S
C225 C231 1.516 . S
C226 C227 1.304 . S
C226 C230 1.323 . S
C227 C226 1.304 . S
C227 C228 1.371 . S
C227 H236 0.930 . S
C228 C225 1.344 . S
C228 C227 1.371 . S
C228 H237 0.931 . S
C229 C225 1.328 . S
C229 C230 1.433 . S
C229 H238 0.931 . S
C230 C226 1.323 . S
C230 C229 1.433 . S
C230 H239 0.933 . S
C231 Dy201 2.738 . S
C231 O211 1.255 . S
C231 O212 1.249 . S
C231 C225 1.516 . S
H232 C218 0.930 . S
H233 C219 0.931 . S
H234 C220 0.931 . S
H235 C221 0.933 . S
H236 C227 0.930 . S
H237 C228 0.931 . S
H238 C229 0.931 . S
H239 C230 0.933 . S
Dy240 O243 2.307 . S
Dy240 O245 2.395 . S
Dy240 O246 2.379 . S
Dy240 O248 2.339 . S
Dy240 O250 2.298 . S
Dy240 O254 2.275 . S
Dy240 C262 2.738 . S
Dy241 O244 2.298 . S
Dy241 O247 2.275 . S
Dy241 O249 2.307 . S
Dy241 O251 2.395 . S
Dy241 O252 2.379 . S
Dy241 O255 2.339 . S
Dy241 C271 2.738 . S
C242 O254 1.254 . S
C242 O255 1.257 . S
O243 Dy240 2.307 . S
O243 C253 1.266 . S
O244 Dy241 2.298 . S
O244 C253 1.236 . S
O245 Dy240 2.395 . S
O245 C262 1.255 . S
O246 Dy240 2.379 . S
O246 C262 1.249 . S
O247 Dy241 2.275 . S
O247 C263 1.254 . S
O248 Dy240 2.339 . S
O248 C263 1.257 . S
O249 Dy241 2.307 . S
O249 C264 1.266 . S
O250 Dy240 2.298 . S
O250 C264 1.236 . S
O251 Dy241 2.395 . S
O251 C271 1.255 . S
O252 Dy241 2.379 . S
O252 C271 1.249 . S
C253 O243 1.266 . S
C253 O244 1.236 . S
O254 Dy240 2.275 . S
O254 C242 1.254 . S
O255 Dy241 2.339 . S
O255 C242 1.257 . S
C256 C259 1.344 . S
C256 C260 1.328 . S
C256 C262 1.516 . S
C257 C258 1.304 . S
C257 C261 1.323 . S
C258 C257 1.304 . S
C258 C259 1.371 . S
C258 H272 0.930 . S
C259 C256 1.344 . S
C259 C258 1.371 . S
C259 H273 0.931 . S
C260 C256 1.328 . S
C260 C261 1.433 . S
C260 H274 0.931 . S
C261 C257 1.323 . S
C261 C260 1.433 . S
C261 H275 0.933 . S
C262 Dy240 2.738 . S
C262 O245 1.255 . S
C262 O246 1.249 . S
C262 C256 1.516 . S
C263 O247 1.254 . S
C263 O248 1.257 . S
C264 O249 1.266 . S
C264 O250 1.236 . S
C265 C268 1.344 . S
C265 C269 1.328 . S
C265 C271 1.516 . S
C266 C267 1.304 . S
C266 C270 1.323 . S
C267 C266 1.304 . S
C267 C268 1.371 . S
C267 H276 0.930 . S
C268 C265 1.344 . S
C268 C267 1.371 . S
C268 H277 0.931 . S
C269 C265 1.328 . S
C269 C270 1.433 . S
C269 H278 0.931 . S
C270 C266 1.323 . S
C270 C269 1.433 . S
C270 H279 0.933 1_545 S
C271 Dy241 2.738 . S
C271 O251 1.255 . S
C271 O252 1.249 . S
C271 C265 1.516 . S
H272 C258 0.930 . S
H273 C259 0.931 . S
H274 C260 0.931 . S
H275 C261 0.933 . S
H276 C267 0.930 . S
H277 C268 0.931 . S
H278 C269 0.931 . S
H279 C270 0.933 1_565 S
Dy280 O283 2.307 . S
Dy280 O285 2.395 . S
Dy280 O286 2.379 . S
Dy280 O288 2.339 . S
Dy280 O290 2.298 . S
Dy280 O294 2.275 . S
Dy280 C302 2.738 . S
Dy281 O284 2.298 . S
Dy281 O287 2.275 . S
Dy281 O289 2.307 . S
Dy281 O291 2.395 . S
Dy281 O292 2.379 . S
Dy281 O295 2.339 . S
Dy281 C311 2.738 . S
C282 O294 1.254 . S
C282 O295 1.257 . S
O283 Dy280 2.307 . S
O283 C293 1.266 . S
O284 Dy281 2.298 . S
O284 C293 1.236 . S
O285 Dy280 2.395 . S
O285 C302 1.255 . S
O286 Dy280 2.379 . S
O286 C302 1.249 . S
O287 Dy281 2.275 . S
O287 C303 1.254 . S
O288 Dy280 2.339 . S
O288 C303 1.257 . S
O289 Dy281 2.307 . S
O289 C304 1.266 . S
O290 Dy280 2.298 . S
O290 C304 1.236 . S
O291 Dy281 2.395 . S
O291 C311 1.255 . S
O292 Dy281 2.379 . S
O292 C311 1.249 . S
C293 O283 1.266 . S
C293 O284 1.236 . S
O294 Dy280 2.275 . S
O294 C282 1.254 . S
O295 Dy281 2.339 . S
O295 C282 1.257 . S
C296 C299 1.344 . S
C296 C300 1.328 1_455 S
C296 C302 1.516 . S
C297 C298 1.304 1_655 S
C297 C301 1.323 . S
C298 C297 1.304 1_455 S
C298 C299 1.371 . S
C298 H312 0.930 . S
C299 C296 1.344 . S
C299 C298 1.371 . S
C299 H313 0.931 . S
C300 C296 1.328 1_655 S
C300 C301 1.433 . S
C300 H314 0.931 . S
C301 C297 1.323 . S
C301 C300 1.433 . S
C301 H315 0.933 . S
C302 Dy280 2.738 . S
C302 O285 1.255 . S
C302 O286 1.249 . S
C302 C296 1.516 . S
C303 O287 1.254 . S
C303 O288 1.257 . S
C304 O289 1.266 . S
C304 O290 1.236 . S
C305 C308 1.344 . S
C305 C309 1.328 . S
C305 C311 1.516 . S
C306 C307 1.304 . S
C306 C310 1.323 . S
C307 C306 1.304 . S
C307 C308 1.371 . S
C307 H316 0.930 . S
C308 C305 1.344 . S
C308 C307 1.371 . S
C308 H317 0.931 . S
C309 C305 1.328 . S
C309 C310 1.433 . S
C309 H318 0.931 . S
C310 C306 1.323 . S
C310 C309 1.433 . S
C310 H319 0.933 . S
C311 Dy281 2.738 . S
C311 O291 1.255 . S
C311 O292 1.249 . S
C311 C305 1.516 . S
H312 C298 0.930 . S
H313 C299 0.931 . S
H314 C300 0.931 . S
H315 C301 0.933 . S
H316 C307 0.930 . S
H317 C308 0.931 . S
H318 C309 0.931 . S
H319 C310 0.933 . S
Dy320 O323 2.307 . S
Dy320 O325 2.395 . S
Dy320 O326 2.379 . S
Dy320 O328 2.339 . S
Dy320 O330 2.298 . S
Dy320 O334 2.275 . S
Dy320 C342 2.738 . S
Dy321 O324 2.298 . S
Dy321 O327 2.275 . S
Dy321 O329 2.307 . S
Dy321 O331 2.395 . S
Dy321 O332 2.379 . S
Dy321 O335 2.339 . S
Dy321 C351 2.738 . S
C322 O334 1.254 . S
C322 O335 1.257 . S
O323 Dy320 2.307 . S
O323 C333 1.266 . S
O324 Dy321 2.298 . S
O324 C333 1.236 . S
O325 Dy320 2.395 . S
O325 C342 1.255 . S
O326 Dy320 2.379 . S
O326 C342 1.249 . S
O327 Dy321 2.275 . S
O327 C343 1.254 . S
O328 Dy320 2.339 . S
O328 C343 1.257 . S
O329 Dy321 2.307 . S
O329 C344 1.266 . S
O330 Dy320 2.298 . S
O330 C344 1.236 . S
O331 Dy321 2.395 . S
O331 C351 1.255 . S
O332 Dy321 2.379 . S
O332 C351 1.249 . S
C333 O323 1.266 . S
C333 O324 1.236 . S
O334 Dy320 2.275 . S
O334 C322 1.254 . S
O335 Dy321 2.339 . S
O335 C322 1.257 . S
C336 C339 1.344 . S
C336 C340 1.328 . S
C336 C342 1.516 . S
C337 C338 1.304 . S
C337 C341 1.323 . S
C338 C337 1.304 . S
C338 C339 1.371 . S
C338 H352 0.930 . S
C339 C336 1.344 . S
C339 C338 1.371 . S
C339 H353 0.931 . S
C340 C336 1.328 . S
C340 C341 1.433 . S
C340 H354 0.931 . S
C341 C337 1.323 . S
C341 C340 1.433 . S
C341 H355 0.933 . S
C342 Dy320 2.738 . S
C342 O325 1.255 . S
C342 O326 1.249 . S
C342 C336 1.516 . S
C343 O327 1.254 . S
C343 O328 1.257 . S
C344 O329 1.266 . S
C344 O330 1.236 . S
C345 C348 1.344 . S
C345 C349 1.328 . S
C345 C351 1.516 . S
C346 C347 1.304 . S
C346 C350 1.323 . S
C347 C346 1.304 . S
C347 C348 1.371 . S
C347 H356 0.930 . S
C348 C345 1.344 . S
C348 C347 1.371 . S
C348 H357 0.931 . S
C349 C345 1.328 . S
C349 C350 1.433 . S
C349 H358 0.931 . S
C350 C346 1.323 . S
C350 C349 1.433 . S
C350 H359 0.933 . S
C351 Dy321 2.738 . S
C351 O331 1.255 . S
C351 O332 1.249 . S
C351 C345 1.516 . S
H352 C338 0.930 . S
H353 C339 0.931 . S
H354 C340 0.931 . S
H355 C341 0.933 . S
H356 C347 0.930 . S
H357 C348 0.931 . S
H358 C349 0.931 . S
H359 C350 0.933 . S
Dy360 O363 2.307 . S
Dy360 O365 2.395 . S
Dy360 O366 2.379 . S
Dy360 O368 2.339 . S
Dy360 O370 2.298 . S
Dy360 O374 2.275 . S
Dy360 C382 2.738 . S
Dy361 O364 2.298 . S
Dy361 O367 2.275 . S
Dy361 O369 2.307 . S
Dy361 O371 2.395 . S
Dy361 O372 2.379 . S
Dy361 O375 2.339 . S
Dy361 C391 2.738 . S
C362 O374 1.254 . S
C362 O375 1.257 . S
O363 Dy360 2.307 . S
O363 C373 1.266 . S
O364 Dy361 2.298 . S
O364 C373 1.236 . S
O365 Dy360 2.395 . S
O365 C382 1.255 . S
O366 Dy360 2.379 . S
O366 C382 1.249 . S
O367 Dy361 2.275 . S
O367 C383 1.254 . S
O368 Dy360 2.339 . S
O368 C383 1.257 . S
O369 Dy361 2.307 . S
O369 C384 1.266 . S
O370 Dy360 2.298 . S
O370 C384 1.236 . S
O371 Dy361 2.395 . S
O371 C391 1.255 . S
O372 Dy361 2.379 . S
O372 C391 1.249 . S
C373 O363 1.266 . S
C373 O364 1.236 . S
O374 Dy360 2.275 . S
O374 C362 1.254 . S
O375 Dy361 2.339 . S
O375 C362 1.257 . S
C376 C379 1.344 . S
C376 C380 1.328 . S
C376 C382 1.516 . S
C377 C378 1.304 . S
C377 C381 1.323 . S
C378 C377 1.304 . S
C378 C379 1.371 . S
C378 H392 0.930 . S
C379 C376 1.344 . S
C379 C378 1.371 . S
C379 H393 0.931 . S
C380 C376 1.328 . S
C380 C381 1.433 . S
C380 H394 0.931 . S
C381 C377 1.323 . S
C381 C380 1.433 . S
C381 H395 0.933 . S
C382 Dy360 2.738 . S
C382 O365 1.255 . S
C382 O366 1.249 . S
C382 C376 1.516 . S
C383 O367 1.254 . S
C383 O368 1.257 . S
C384 O369 1.266 . S
C384 O370 1.236 . S
C385 C388 1.331 1_545 S
C385 C389 1.333 1_455 S
C385 C391 1.524 . S
C386 C387 1.304 1_655 S
C386 C390 1.323 . S
C387 C386 1.304 1_455 S
C387 C388 1.371 . S
C387 H396 0.930 . S
C388 C385 1.331 1_565 S
C388 C387 1.371 . S
C388 H397 0.931 . S
C389 C385 1.333 1_655 S
C389 C390 1.433 1_545 S
C389 H398 0.931 . S
C390 C386 1.323 . S
C390 C389 1.433 1_565 S
C390 H399 0.933 . S
C391 Dy361 2.738 . S
C391 O371 1.255 . S
C391 O372 1.249 . S
C391 C385 1.524 . S
H392 C378 0.930 . S
H393 C379 0.931 . S
H394 C380 0.931 . S
H395 C381 0.933 . S
H396 C387 0.930 . S
H397 C388 0.931 . S
H398 C389 0.931 . S
H399 C390 0.933 . S
Dy400 O403 2.307 . S
Dy400 O405 2.395 . S
Dy400 O406 2.379 . S
Dy400 O408 2.339 . S
Dy400 O410 2.298 . S
Dy400 O414 2.275 . S
Dy400 C422 2.738 . S
Dy401 O404 2.298 . S
Dy401 O407 2.275 . S
Dy401 O409 2.307 . S
Dy401 O411 2.395 . S
Dy401 O412 2.379 . S
Dy401 O415 2.339 . S
Dy401 C431 2.738 . S
C402 O414 1.254 . S
C402 O415 1.257 . S
O403 Dy400 2.307 . S
O403 C413 1.266 . S
O404 Dy401 2.298 . S
O404 C413 1.236 . S
O405 Dy400 2.395 . S
O405 C422 1.255 . S
O406 Dy400 2.379 . S
O406 C422 1.249 . S
O407 Dy401 2.275 . S
O407 C423 1.254 . S
O408 Dy400 2.339 . S
O408 C423 1.257 . S
O409 Dy401 2.307 . S
O409 C424 1.266 . S
O410 Dy400 2.298 . S
O410 C424 1.236 . S
O411 Dy401 2.395 . S
O411 C431 1.255 . S
O412 Dy401 2.379 . S
O412 C431 1.249 . S
C413 O403 1.266 . S
C413 O404 1.236 . S
O414 Dy400 2.275 . S
O414 C402 1.254 . S
O415 Dy401 2.339 . S
O415 C402 1.257 . S
C416 C419 1.344 . S
C416 C420 1.328 . S
C416 C422 1.516 . S
C417 C418 1.304 . S
C417 C421 1.323 . S
C418 C417 1.304 . S
C418 C419 1.371 . S
C418 H432 0.930 . S
C419 C416 1.344 . S
C419 C418 1.371 . S
C419 H433 0.931 . S
C420 C416 1.328 . S
C420 C421 1.433 . S
C420 H434 0.931 . S
C421 C417 1.323 . S
C421 C420 1.433 . S
C421 H435 0.933 . S
C422 Dy400 2.738 . S
C422 O405 1.255 . S
C422 O406 1.249 . S
C422 C416 1.516 . S
C423 O407 1.254 . S
C423 O408 1.257 . S
C424 O409 1.266 . S
C424 O410 1.236 . S
C425 C428 1.344 . S
C425 C429 1.328 . S
C425 C431 1.516 . S
C426 C427 1.304 . S
C426 C430 1.323 . S
C427 C426 1.304 . S
C427 C428 1.371 . S
C427 H436 0.930 . S
C428 C425 1.344 . S
C428 C427 1.371 . S
C428 H437 0.931 . S
C429 C425 1.328 . S
C429 C430 1.433 . S
C429 H438 0.931 . S
C430 C426 1.323 . S
C430 C429 1.433 . S
C430 H439 0.933 . S
C431 Dy401 2.738 . S
C431 O411 1.255 . S
C431 O412 1.249 . S
C431 C425 1.516 . S
H432 C418 0.930 . S
H433 C419 0.931 . S
H434 C420 0.931 . S
H435 C421 0.933 . S
H436 C427 0.930 . S
H437 C428 0.931 . S
H438 C429 0.931 . S
H439 C430 0.933 . S
Dy440 O443 2.307 . S
Dy440 O445 2.395 . S
Dy440 O446 2.379 . S
Dy440 O448 2.339 . S
Dy440 O450 2.298 . S
Dy440 O454 2.275 . S
Dy440 C462 2.738 . S
Dy441 O444 2.298 . S
Dy441 O447 2.275 . S
Dy441 O449 2.307 . S
Dy441 O451 2.395 . S
Dy441 O452 2.379 . S
Dy441 O455 2.339 . S
Dy441 C471 2.738 . S
C442 O454 1.254 . S
C442 O455 1.257 . S
O443 Dy440 2.307 . S
O443 C453 1.266 . S
O444 Dy441 2.298 . S
O444 C453 1.236 . S
O445 Dy440 2.395 . S
O445 C462 1.255 . S
O446 Dy440 2.379 . S
O446 C462 1.249 . S
O447 Dy441 2.275 . S
O447 C463 1.254 . S
O448 Dy440 2.339 . S
O448 C463 1.257 . S
O449 Dy441 2.307 . S
O449 C464 1.266 . S
O450 Dy440 2.298 . S
O450 C464 1.236 . S
O451 Dy441 2.395 . S
O451 C471 1.255 . S
O452 Dy441 2.379 . S
O452 C471 1.249 . S
C453 O443 1.266 . S
C453 O444 1.236 . S
O454 Dy440 2.275 . S
O454 C442 1.254 . S
O455 Dy441 2.339 . S
O455 C442 1.257 . S
C456 C459 1.344 . S
C456 C460 1.328 . S
C456 C462 1.516 . S
C457 C458 1.304 . S
C457 C461 1.323 . S
C458 C457 1.304 . S
C458 C459 1.371 . S
C458 H472 0.930 . S
C459 C456 1.344 . S
C459 C458 1.371 . S
C459 H473 0.931 . S
C460 C456 1.328 . S
C460 C461 1.433 . S
C460 H474 0.931 . S
C461 C457 1.323 . S
C461 C460 1.433 . S
C461 H475 0.933 . S
C462 Dy440 2.738 . S
C462 O445 1.255 . S
C462 O446 1.249 . S
C462 C456 1.516 . S
C463 O447 1.254 . S
C463 O448 1.257 . S
C464 O449 1.266 . S
C464 O450 1.236 . S
C465 C468 1.331 1_565 S
C465 C469 1.333 . S
C465 C471 1.524 . S
C466 C467 1.304 . S
C466 C470 1.323 . S
C467 C466 1.304 . S
C467 C468 1.371 . S
C467 H476 0.930 . S
C468 C465 1.331 1_545 S
C468 C467 1.371 . S
C468 H477 0.931 . S
C469 C465 1.333 . S
C469 C470 1.433 1_565 S
C469 H478 0.931 . S
C470 C466 1.323 . S
C470 C469 1.433 1_545 S
C470 H479 0.933 . S
C471 Dy441 2.738 . S
C471 O451 1.255 . S
C471 O452 1.249 . S
C471 C465 1.524 . S
H472 C458 0.930 . S
H473 C459 0.931 . S
H474 C460 0.931 . S
H475 C461 0.933 . S
H476 C467 0.930 . S
H477 C468 0.931 . S
H478 C469 0.931 . S
H479 C470 0.933 . S
Dy480 O483 2.307 . S
Dy480 O485 2.395 . S
Dy480 O486 2.379 . S
Dy480 O488 2.339 . S
Dy480 O490 2.298 . S
Dy480 O494 2.275 . S
Dy480 C502 2.738 . S
Dy481 O484 2.298 . S
Dy481 O487 2.275 . S
Dy481 O489 2.307 . S
Dy481 O491 2.395 . S
Dy481 O492 2.379 . S
Dy481 O495 2.339 . S
Dy481 C511 2.738 . S
C482 O494 1.254 . S
C482 O495 1.257 . S
O483 Dy480 2.307 . S
O483 C493 1.266 . S
O484 Dy481 2.298 . S
O484 C493 1.236 . S
O485 Dy480 2.395 . S
O485 C502 1.255 . S
O486 Dy480 2.379 . S
O486 C502 1.249 . S
O487 Dy481 2.275 . S
O487 C503 1.254 . S
O488 Dy480 2.339 . S
O488 C503 1.257 . S
O489 Dy481 2.307 . S
O489 C504 1.266 . S
O490 Dy480 2.298 . S
O490 C504 1.236 . S
O491 Dy481 2.395 . S
O491 C511 1.255 . S
O492 Dy481 2.379 . S
O492 C511 1.249 . S
C493 O483 1.266 . S
C493 O484 1.236 . S
O494 Dy480 2.275 . S
O494 C482 1.254 . S
O495 Dy481 2.339 . S
O495 C482 1.257 . S
C496 C499 1.344 . S
C496 C500 1.328 . S
C496 C502 1.516 . S
C497 C498 1.304 . S
C497 C501 1.323 . S
C498 C497 1.304 . S
C498 C499 1.371 . S
C498 H512 0.930 . S
C499 C496 1.344 . S
C499 C498 1.371 . S
C499 H513 0.931 . S
C500 C496 1.328 . S
C500 C501 1.433 . S
C500 H514 0.931 . S
C501 C497 1.323 . S
C501 C500 1.433 . S
C501 H515 0.933 . S
C502 Dy480 2.738 . S
C502 O485 1.255 . S
C502 O486 1.249 . S
C502 C496 1.516 . S
C503 O487 1.254 . S
C503 O488 1.257 . S
C504 O489 1.266 . S
C504 O490 1.236 . S
C505 C508 1.344 . S
C505 C509 1.328 . S
C505 C511 1.516 . S
C506 C507 1.304 . S
C506 C510 1.323 . S
C507 C506 1.304 . S
C507 C508 1.371 . S
C507 H516 0.930 . S
C508 C505 1.344 . S
C508 C507 1.371 . S
C508 H517 0.931 . S
C509 C505 1.328 . S
C509 C510 1.433 . S
C509 H518 0.931 . S
C510 C506 1.323 . S
C510 C509 1.433 . S
C510 H519 0.933 . S
C511 Dy481 2.738 . S
C511 O491 1.255 . S
C511 O492 1.249 . S
C511 C505 1.516 . S
H512 C498 0.930 . S
H513 C499 0.931 . S
H514 C500 0.931 . S
H515 C501 0.933 . S
H516 C507 0.930 . S
H517 C508 0.931 . S
H518 C509 0.931 . S
H519 C510 0.933 . S
Dy520 O523 2.307 . S
Dy520 O525 2.395 . S
Dy520 O526 2.379 . S
Dy520 O528 2.339 . S
Dy520 O530 2.298 . S
Dy520 O534 2.275 . S
Dy520 C542 2.738 . S
Dy521 O524 2.298 . S
Dy521 O527 2.275 . S
Dy521 O529 2.307 . S
Dy521 O531 2.395 . S
Dy521 O532 2.379 . S
Dy521 O535 2.339 . S
Dy521 C551 2.738 . S
C522 O534 1.254 . S
C522 O535 1.257 . S
O523 Dy520 2.307 . S
O523 C533 1.266 . S
O524 Dy521 2.298 . S
O524 C533 1.236 . S
O525 Dy520 2.395 . S
O525 C542 1.255 . S
O526 Dy520 2.379 . S
O526 C542 1.249 . S
O527 Dy521 2.275 . S
O527 C543 1.254 . S
O528 Dy520 2.339 . S
O528 C543 1.257 . S
O529 Dy521 2.307 . S
O529 C544 1.266 . S
O530 Dy520 2.298 . S
O530 C544 1.236 . S
O531 Dy521 2.395 . S
O531 C551 1.255 . S
O532 Dy521 2.379 . S
O532 C551 1.249 . S
C533 O523 1.266 . S
C533 O524 1.236 . S
O534 Dy520 2.275 . S
O534 C522 1.254 . S
O535 Dy521 2.339 . S
O535 C522 1.257 . S
C536 C539 1.331 1_565 S
C536 C540 1.333 1_655 S
C536 C542 1.524 . S
C537 C538 1.304 1_455 S
C537 C541 1.323 . S
C538 C537 1.304 1_655 S
C538 C539 1.371 . S
C538 H552 0.930 . S
C539 C536 1.331 1_545 S
C539 C538 1.371 . S
C539 H553 0.931 . S
C540 C536 1.333 1_455 S
C540 C541 1.433 1_565 S
C540 H554 0.931 . S
C541 C537 1.323 . S
C541 C540 1.433 1_545 S
C541 H555 0.933 . S
C542 Dy520 2.738 . S
C542 O525 1.255 . S
C542 O526 1.249 . S
C542 C536 1.524 . S
C543 O527 1.254 . S
C543 O528 1.257 . S
C544 O529 1.266 . S
C544 O530 1.236 . S
C545 C548 1.344 . S
C545 C549 1.328 . S
C545 C551 1.516 . S
C546 C547 1.304 . S
C546 C550 1.323 . S
C547 C546 1.304 . S
C547 C548 1.371 . S
C547 H556 0.930 . S
C548 C545 1.344 . S
C548 C547 1.371 . S
C548 H557 0.931 . S
C549 C545 1.328 . S
C549 C550 1.433 . S
C549 H558 0.931 . S
C550 C546 1.323 . S
C550 C549 1.433 . S
C550 H559 0.933 . S
C551 Dy521 2.738 . S
C551 O531 1.255 . S
C551 O532 1.249 . S
C551 C545 1.516 . S
H552 C538 0.930 . S
H553 C539 0.931 . S
H554 C540 0.931 . S
H555 C541 0.933 . S
H556 C547 0.930 . S
H557 C548 0.931 . S
H558 C549 0.931 . S
H559 C550 0.933 . S
Dy560 O563 2.307 . S
Dy560 O565 2.395 . S
Dy560 O566 2.379 . S
Dy560 O568 2.339 . S
Dy560 O570 2.298 . S
Dy560 O574 2.275 . S
Dy560 C582 2.738 . S
Dy561 O564 2.298 . S
Dy561 O567 2.275 . S
Dy561 O569 2.307 . S
Dy561 O571 2.395 . S
Dy561 O572 2.379 . S
Dy561 O575 2.339 . S
Dy561 C591 2.738 . S
C562 O574 1.254 . S
C562 O575 1.257 . S
O563 Dy560 2.307 . S
O563 C573 1.266 . S
O564 Dy561 2.298 . S
O564 C573 1.236 . S
O565 Dy560 2.395 . S
O565 C582 1.255 . S
O566 Dy560 2.379 . S
O566 C582 1.249 . S
O567 Dy561 2.275 . S
O567 C583 1.254 . S
O568 Dy560 2.339 . S
O568 C583 1.257 . S
O569 Dy561 2.307 . S
O569 C584 1.266 . S
O570 Dy560 2.298 . S
O570 C584 1.236 . S
O571 Dy561 2.395 . S
O571 C591 1.255 . S
O572 Dy561 2.379 . S
O572 C591 1.249 . S
C573 O563 1.266 . S
C573 O564 1.236 . S
O574 Dy560 2.275 . S
O574 C562 1.254 . S
O575 Dy561 2.339 . S
O575 C562 1.257 . S
C576 C579 1.344 . S
C576 C580 1.328 . S
C576 C582 1.516 . S
C577 C578 1.304 . S
C577 C581 1.323 . S
C578 C577 1.304 . S
C578 C579 1.371 . S
C578 H592 0.930 . S
C579 C576 1.344 . S
C579 C578 1.371 . S
C579 H593 0.931 . S
C580 C576 1.328 . S
C580 C581 1.433 . S
C580 H594 0.931 . S
C581 C577 1.323 . S
C581 C580 1.433 . S
C581 H595 0.933 . S
C582 Dy560 2.738 . S
C582 O565 1.255 . S
C582 O566 1.249 . S
C582 C576 1.516 . S
C583 O567 1.254 . S
C583 O568 1.257 . S
C584 O569 1.266 . S
C584 O570 1.236 . S
C585 C588 1.344 . S
C585 C589 1.328 . S
C585 C591 1.516 . S
C586 C587 1.304 . S
C586 C590 1.323 . S
C587 C586 1.304 . S
C587 C588 1.371 . S
C587 H596 0.930 . S
C588 C585 1.344 . S
C588 C587 1.371 . S
C588 H597 0.931 . S
C589 C585 1.328 . S
C589 C590 1.433 . S
C589 H598 0.931 . S
C590 C586 1.323 . S
C590 C589 1.433 . S
C590 H599 0.933 . S
C591 Dy561 2.738 . S
C591 O571 1.255 . S
C591 O572 1.249 . S
C591 C585 1.516 . S
H592 C578 0.930 . S
H593 C579 0.931 . S
H594 C580 0.931 . S
H595 C581 0.933 . S
H596 C587 0.930 . S
H597 C588 0.931 . S
H598 C589 0.931 . S
H599 C590 0.933 . S
Dy600 O603 2.307 . S
Dy600 O605 2.395 . S
Dy600 O606 2.379 . S
Dy600 O608 2.339 . S
Dy600 O610 2.298 . S
Dy600 O614 2.275 . S
Dy600 C622 2.738 . S
Dy601 O604 2.298 . S
Dy601 O607 2.275 . S
Dy601 O609 2.307 . S
Dy601 O611 2.395 . S
Dy601 O612 2.379 . S
Dy601 O615 2.339 . S
Dy601 C631 2.738 . S
C602 O614 1.254 . S
C602 O615 1.257 . S
O603 Dy600 2.307 . S
O603 C613 1.266 . S
O604 Dy601 2.298 . S
O604 C613 1.236 . S
O605 Dy600 2.395 . S
O605 C622 1.255 . S
O606 Dy600 2.379 . S
O606 C622 1.249 . S
O607 Dy601 2.275 . S
O607 C623 1.254 . S
O608 Dy600 2.339 . S
O608 C623 1.257 . S
O609 Dy601 2.307 . S
O609 C624 1.266 . S
O610 Dy600 2.298 . S
O610 C624 1.236 . S
O611 Dy601 2.395 . S
O611 C631 1.255 . S
O612 Dy601 2.379 . S
O612 C631 1.249 . S
C613 O603 1.266 . S
C613 O604 1.236 . S
O614 Dy600 2.275 . S
O614 C602 1.254 . S
O615 Dy601 2.339 . S
O615 C602 1.257 . S
C616 C619 1.331 1_545 S
C616 C620 1.333 . S
C616 C622 1.524 . S
C617 C618 1.304 . S
C617 C621 1.323 . S
C618 C617 1.304 . S
C618 C619 1.371 . S
C618 H632 0.930 . S
C619 C616 1.331 1_565 S
C619 C618 1.371 . S
C619 H633 0.931 . S
C620 C616 1.333 . S
C620 C621 1.433 1_545 S
C620 H634 0.931 . S
C621 C617 1.323 . S
C621 C620 1.433 1_565 S
C621 H635 0.933 . S
C622 Dy600 2.738 . S
C622 O605 1.255 . S
C622 O606 1.249 . S
C622 C616 1.524 . S
C623 O607 1.254 . S
C623 O608 1.257 . S
C624 O609 1.266 . S
C624 O610 1.236 . S
C625 C628 1.344 . S
C625 C629 1.328 . S
C625 C631 1.516 . S
C626 C627 1.304 . S
C626 C630 1.323 . S
C627 C626 1.304 . S
C627 C628 1.371 . S
C627 H636 0.930 . S
C628 C625 1.344 . S
C628 C627 1.371 . S
C628 H637 0.931 . S
C629 C625 1.328 . S
C629 C630 1.433 . S
C629 H638 0.931 . S
C630 C626 1.323 . S
C630 C629 1.433 . S
C630 H639 0.933 . S
C631 Dy601 2.738 . S
C631 O611 1.255 . S
C631 O612 1.249 . S
C631 C625 1.516 . S
H632 C618 0.930 . S
H633 C619 0.931 . S
H634 C620 0.931 . S
H635 C621 0.933 . S
H636 C627 0.930 . S
H637 C628 0.931 . S
H638 C629 0.931 . S
H639 C630 0.933 . S
C640 C641 1.349 . S
C640 C642 1.327 . S
C640 H665 0.950 . S
C641 C640 1.349 . S
C641 C657 1.349 . S
C642 C640 1.327 . S
C642 C661 1.429 . S
C642 H666 0.950 . S
C643 C660 1.574 . S
C643 C662 1.368 . S
C643 H667 0.949 . S
H644 C648 0.949 . S
C645 C646 1.349 . S
C645 C647 1.327 . S
C645 H668 0.950 . S
C646 C645 1.349 . S
C646 C658 1.349 . S
C647 C645 1.327 . S
C647 C663 1.429 . S
C647 H669 0.950 . S
C648 H644 0.949 . S
C648 C656 1.574 . S
C648 C664 1.368 . S
H649 C657 0.950 . S
H650 C655 0.950 . S
H651 C656 0.949 . S
H652 C658 0.950 . S
H653 C659 0.950 . S
H654 C660 0.949 . S
C655 H650 0.950 . S
C655 C657 1.327 . S
C655 C661 1.429 . S
C656 C648 1.574 . S
C656 H651 0.949 . S
C656 C662 1.368 . S
C657 C641 1.349 . S
C657 H649 0.950 . S
C657 C655 1.327 . S
C658 C646 1.349 . S
C658 H652 0.950 . S
C658 C659 1.327 . S
C659 H653 0.950 . S
C659 C658 1.327 . S
C659 C663 1.429 . S
C660 C643 1.574 . S
C660 H654 0.949 . S
C660 C664 1.368 . S
C661 C642 1.429 . S
C661 C655 1.429 . S
C661 C662 1.523 . S
C662 C643 1.368 . S
C662 C656 1.368 . S
C662 C661 1.523 . S
C663 C647 1.429 . S
C663 C659 1.429 . S
C663 C664 1.523 . S
C664 C648 1.368 . S
C664 C660 1.368 . S
C664 C663 1.523 . S
H665 C640 0.950 . S
H666 C642 0.950 . S
H667 C643 0.949 . S
H668 C645 0.950 . S
H669 C647 0.950 . S
C670 C671 1.349 . S
C670 C672 1.327 . S
C670 H695 0.950 . S
C671 C670 1.349 . S
C671 C687 1.349 . S
C672 C670 1.327 . S
C672 C691 1.429 . S
C672 H696 0.950 . S
C673 C690 1.574 . S
C673 C692 1.368 . S
C673 H697 0.949 . S
H674 C678 0.949 . S
C675 C676 1.349 . S
C675 C677 1.327 . S
C675 H698 0.950 . S
C676 C675 1.349 . S
C676 C688 1.349 . S
C677 C675 1.327 . S
C677 C693 1.429 . S
C677 H699 0.950 . S
C678 H674 0.949 . S
C678 C686 1.574 . S
C678 C694 1.368 . S
H679 C687 0.950 . S
H680 C685 0.950 . S
H681 C686 0.949 . S
H682 C688 0.950 . S
H683 C689 0.950 . S
H684 C690 0.949 . S
C685 H680 0.950 . S
C685 C687 1.327 . S
C685 C691 1.429 . S
C686 C678 1.574 . S
C686 H681 0.949 . S
C686 C692 1.368 . S
C687 C671 1.349 . S
C687 H679 0.950 . S
C687 C685 1.327 . S
C688 C676 1.349 . S
C688 H682 0.950 . S
C688 C689 1.327 . S
C689 H683 0.950 . S
C689 C688 1.327 . S
C689 C693 1.429 . S
C690 C673 1.574 . S
C690 H684 0.949 . S
C690 C694 1.368 . S
C691 C672 1.429 . S
C691 C685 1.429 . S
C691 C692 1.523 . S
C692 C673 1.368 . S
C692 C686 1.368 . S
C692 C691 1.523 . S
C693 C677 1.429 . S
C693 C689 1.429 . S
C693 C694 1.523 . S
C694 C678 1.368 . S
C694 C690 1.368 . S
C694 C693 1.523 . S
H695 C670 0.950 . S
H696 C672 0.950 . S
H697 C673 0.949 . S
H698 C675 0.950 . S
H699 C677 0.950 . S
C700 C701 1.349 . S
C700 C702 1.327 . S
C700 H725 0.950 . S
C701 C700 1.349 . S
C701 C717 1.349 . S
C702 C700 1.327 . S
C702 C721 1.429 . S
C702 H726 0.950 . S
C703 C720 1.574 1_455 S
C703 C722 1.368 . S
C703 H727 0.949 . S
H704 C708 0.949 . S
C705 C706 1.349 . S
C705 C707 1.327 . S
C705 H728 0.950 . S
C706 C705 1.349 . S
C706 C718 1.349 . S
C707 C705 1.327 . S
C707 C723 1.429 . S
C707 H729 0.950 . S
C708 H704 0.949 . S
C708 C716 1.574 1_655 S
C708 C724 1.368 . S
H709 C717 0.950 . S
H710 C715 0.950 . S
H711 C716 0.949 . S
H712 C718 0.950 . S
H713 C719 0.950 . S
H714 C720 0.949 . S
C715 H710 0.950 . S
C715 C717 1.327 . S
C715 C721 1.429 . S
C716 C708 1.574 1_455 S
C716 H711 0.949 . S
C716 C722 1.368 . S
C717 C701 1.349 . S
C717 H709 0.950 . S
C717 C715 1.327 . S
C718 C706 1.349 . S
C718 H712 0.950 . S
C718 C719 1.327 . S
C719 H713 0.950 . S
C719 C718 1.327 . S
C719 C723 1.429 . S
C720 C703 1.574 1_655 S
C720 H714 0.949 . S
C720 C724 1.368 . S
C721 C702 1.429 . S
C721 C715 1.429 . S
C721 C722 1.523 . S
C722 C703 1.368 . S
C722 C716 1.368 . S
C722 C721 1.523 . S
C723 C707 1.429 . S
C723 C719 1.429 . S
C723 C724 1.523 . S
C724 C708 1.368 . S
C724 C720 1.368 . S
C724 C723 1.523 . S
H725 C700 0.950 . S
H726 C702 0.950 . S
H727 C703 0.949 . S
H728 C705 0.950 . S
H729 C707 0.950 . S
C730 C731 1.349 . S
C730 C732 1.327 . S
C730 H755 0.950 . S
C731 C730 1.349 . S
C731 C747 1.349 . S
C732 C730 1.327 . S
C732 C751 1.429 . S
C732 H756 0.950 . S
C733 C750 1.574 . S
C733 C752 1.368 1_655 S
C733 H757 0.949 . S
H734 C738 0.949 . S
C735 C736 1.349 . S
C735 C737 1.327 . S
C735 H758 0.950 . S
C736 C735 1.349 . S
C736 C748 1.349 . S
C737 C735 1.327 . S
C737 C753 1.429 . S
C737 H759 0.950 . S
C738 H734 0.949 . S
C738 C746 1.574 . S
C738 C754 1.368 1_455 S
H739 C747 0.950 . S
H740 C745 0.950 . S
H741 C746 0.949 . S
H742 C748 0.950 . S
H743 C749 0.950 . S
H744 C750 0.949 . S
C745 H740 0.950 . S
C745 C747 1.327 . S
C745 C751 1.429 . S
C746 C738 1.574 . S
C746 H741 0.949 . S
C746 C752 1.368 . S
C747 C731 1.349 . S
C747 H739 0.950 . S
C747 C745 1.327 . S
C748 C736 1.349 . S
C748 H742 0.950 . S
C748 C749 1.327 . S
C749 H743 0.950 . S
C749 C748 1.327 . S
C749 C753 1.429 . S
C750 C733 1.574 . S
C750 H744 0.949 . S
C750 C754 1.368 . S
C751 C732 1.429 . S
C751 C745 1.429 . S
C751 C752 1.523 . S
C752 C733 1.368 1_455 S
C752 C746 1.368 . S
C752 C751 1.523 . S
C753 C737 1.429 . S
C753 C749 1.429 . S
C753 C754 1.523 . S
C754 C738 1.368 1_655 S
C754 C750 1.368 . S
C754 C753 1.523 . S
H755 C730 0.950 . S
H756 C732 0.950 . S
H757 C733 0.949 . S
H758 C735 0.950 . S
H759 C737 0.950 . S
C760 C761 1.349 . S
C760 C762 1.327 . S
C760 H785 0.950 . S
C761 C760 1.349 . S
C761 C777 1.349 . S
C762 C760 1.327 . S
C762 C781 1.429 . S
C762 H786 0.950 . S
C763 C780 1.574 . S
C763 C782 1.368 . S
C763 H787 0.949 . S
H764 C768 0.949 . S
C765 C766 1.349 . S
C765 C767 1.327 . S
C765 H788 0.950 . S
C766 C765 1.349 . S
C766 C778 1.349 . S
C767 C765 1.327 . S
C767 C783 1.429 . S
C767 H789 0.950 . S
C768 H764 0.949 . S
C768 C776 1.574 . S
C768 C784 1.368 . S
H769 C777 0.950 . S
H770 C775 0.950 . S
H771 C776 0.949 . S
H772 C778 0.950 . S
H773 C779 0.950 . S
H774 C780 0.949 . S
C775 H770 0.950 . S
C775 C777 1.327 . S
C775 C781 1.429 . S
C776 C768 1.574 . S
C776 H771 0.949 . S
C776 C782 1.368 . S
C777 C761 1.349 . S
C777 H769 0.950 . S
C777 C775 1.327 . S
C778 C766 1.349 . S
C778 H772 0.950 . S
C778 C779 1.327 . S
C779 H773 0.950 . S
C779 C778 1.327 . S
C779 C783 1.429 . S
C780 C763 1.574 . S
C780 H774 0.949 . S
C780 C784 1.368 . S
C781 C762 1.429 . S
C781 C775 1.429 . S
C781 C782 1.523 . S
C782 C763 1.368 . S
C782 C776 1.368 . S
C782 C781 1.523 . S
C783 C767 1.429 . S
C783 C779 1.429 . S
C783 C784 1.523 . S
C784 C768 1.368 . S
C784 C780 1.368 . S
C784 C783 1.523 . S
H785 C760 0.950 . S
H786 C762 0.950 . S
H787 C763 0.949 . S
H788 C765 0.950 . S
H789 C767 0.950 . S
C790 C791 1.349 . S
C790 C792 1.327 . S
C790 H815 0.950 . S
C791 C790 1.349 . S
C791 C807 1.349 . S
C792 C790 1.327 . S
C792 C811 1.429 . S
C792 H816 0.950 . S
C793 C810 1.574 . S
C793 C812 1.368 . S
C793 H817 0.949 . S
H794 C798 0.949 . S
C795 C796 1.349 . S
C795 C797 1.327 . S
C795 H818 0.950 . S
C796 C795 1.349 . S
C796 C808 1.349 . S
C797 C795 1.327 . S
C797 C813 1.429 . S
C797 H819 0.950 . S
C798 H794 0.949 . S
C798 C806 1.574 . S
C798 C814 1.368 . S
H799 C807 0.950 . S
H800 C805 0.950 . S
H801 C806 0.949 . S
H802 C808 0.950 . S
H803 C809 0.950 . S
H804 C810 0.949 . S
C805 H800 0.950 . S
C805 C807 1.327 . S
C805 C811 1.429 . S
C806 C798 1.574 . S
C806 H801 0.949 . S
C806 C812 1.368 . S
C807 C791 1.349 . S
C807 H799 0.950 . S
C807 C805 1.327 . S
C808 C796 1.349 . S
C808 H802 0.950 . S
C808 C809 1.327 . S
C809 H803 0.950 . S
C809 C808 1.327 . S
C809 C813 1.429 . S
C810 C793 1.574 . S
C810 H804 0.949 . S
C810 C814 1.368 . S
C811 C792 1.429 . S
C811 C805 1.429 . S
C811 C812 1.523 . S
C812 C793 1.368 . S
C812 C806 1.368 . S
C812 C811 1.523 . S
C813 C797 1.429 . S
C813 C809 1.429 . S
C813 C814 1.523 . S
C814 C798 1.368 . S
C814 C810 1.368 . S
C814 C813 1.523 . S
H815 C790 0.950 . S
H816 C792 0.950 . S
H817 C793 0.949 . S
H818 C795 0.950 . S
H819 C797 0.950 . S
C820 C821 1.349 . S
C820 C822 1.327 . S
C820 H845 0.950 . S
C821 C820 1.349 . S
C821 C837 1.349 . S
C822 C820 1.327 . S
C822 C841 1.429 . S
C822 H846 0.950 . S
C823 C840 1.574 1_455 S
C823 C842 1.368 . S
C823 H847 0.949 . S
H824 C828 0.949 . S
C825 C826 1.349 . S
C825 C827 1.327 . S
C825 H848 0.950 . S
C826 C825 1.349 . S
C826 C838 1.349 . S
C827 C825 1.327 . S
C827 C843 1.429 . S
C827 H849 0.950 . S
C828 H824 0.949 . S
C828 C836 1.574 1_655 S
C828 C844 1.368 . S
H829 C837 0.950 . S
H830 C835 0.950 . S
H831 C836 0.949 . S
H832 C838 0.950 . S
H833 C839 0.950 . S
H834 C840 0.949 . S
C835 H830 0.950 . S
C835 C837 1.327 . S
C835 C841 1.429 . S
C836 C828 1.574 1_455 S
C836 H831 0.949 . S
C836 C842 1.368 . S
C837 C821 1.349 . S
C837 H829 0.950 . S
C837 C835 1.327 . S
C838 C826 1.349 . S
C838 H832 0.950 . S
C838 C839 1.327 . S
C839 H833 0.950 . S
C839 C838 1.327 . S
C839 C843 1.429 . S
C840 C823 1.574 1_655 S
C840 H834 0.949 . S
C840 C844 1.368 . S
C841 C822 1.429 . S
C841 C835 1.429 . S
C841 C842 1.523 . S
C842 C823 1.368 . S
C842 C836 1.368 . S
C842 C841 1.523 . S
C843 C827 1.429 . S
C843 C839 1.429 . S
C843 C844 1.523 . S
C844 C828 1.368 . S
C844 C840 1.368 . S
C844 C843 1.523 . S
H845 C820 0.950 . S
H846 C822 0.950 . S
H847 C823 0.949 . S
H848 C825 0.950 . S
H849 C827 0.950 . S
C850 C851 1.349 . S
C850 C852 1.327 . S
C850 H875 0.950 . S
C851 C850 1.349 . S
C851 C867 1.349 . S
C852 C850 1.327 . S
C852 C871 1.429 . S
C852 H876 0.950 . S
C853 C870 1.574 . S
C853 C872 1.368 1_655 S
C853 H877 0.949 . S
H854 C858 0.949 . S
C855 C856 1.349 . S
C855 C857 1.327 . S
C855 H878 0.950 . S
C856 C855 1.349 . S
C856 C868 1.349 . S
C857 C855 1.327 . S
C857 C873 1.429 . S
C857 H879 0.950 . S
C858 H854 0.949 . S
C858 C866 1.574 . S
C858 C874 1.368 1_455 S
H859 C867 0.950 . S
H860 C865 0.950 . S
H861 C866 0.949 . S
H862 C868 0.950 . S
H863 C869 0.950 . S
H864 C870 0.949 . S
C865 H860 0.950 . S
C865 C867 1.327 . S
C865 C871 1.429 . S
C866 C858 1.574 . S
C866 H861 0.949 . S
C866 C872 1.368 . S
C867 C851 1.349 . S
C867 H859 0.950 . S
C867 C865 1.327 . S
C868 C856 1.349 . S
C868 H862 0.950 . S
C868 C869 1.327 . S
C869 H863 0.950 . S
C869 C868 1.327 . S
C869 C873 1.429 . S
C870 C853 1.574 . S
C870 H864 0.949 . S
C870 C874 1.368 . S
C871 C852 1.429 . S
C871 C865 1.429 . S
C871 C872 1.523 . S
C872 C853 1.368 1_455 S
C872 C866 1.368 . S
C872 C871 1.523 . S
C873 C857 1.429 . S
C873 C869 1.429 . S
C873 C874 1.523 . S
C874 C858 1.368 1_655 S
C874 C870 1.368 . S
C874 C873 1.523 . S
H875 C850 0.950 . S
H876 C852 0.950 . S
H877 C853 0.949 . S
H878 C855 0.950 . S
H879 C857 0.950 . S
C880 C881 1.349 . S
C880 C882 1.327 . S
C880 H905 0.950 . S
C881 C880 1.349 . S
C881 C897 1.349 1_545 S
C882 C880 1.327 . S
C882 C901 1.429 . S
C882 H906 0.950 . S
C883 C900 1.574 . S
C883 C902 1.368 1_566 S
C883 H907 0.949 . S
H884 C888 0.949 . S
C885 C886 1.349 . S
C885 C887 1.327 . S
C885 H908 0.950 . S
C886 C885 1.349 . S
C886 C898 1.349 1_565 S
C887 C885 1.327 . S
C887 C903 1.429 . S
C887 H909 0.950 . S
C888 H884 0.949 . S
C888 C896 1.574 . S
C888 C904 1.368 1_544 S
H889 C897 0.950 . S
H890 C895 0.950 . S
H891 C896 0.949 . S
H892 C898 0.950 . S
H893 C899 0.950 . S
H894 C900 0.949 . S
C895 H890 0.950 . S
C895 C897 1.327 . S
C895 C901 1.429 1_565 S
C896 C888 1.574 . S
C896 H891 0.949 . S
C896 C902 1.368 . S
C897 C881 1.349 1_565 S
C897 H889 0.950 . S
C897 C895 1.327 . S
C898 C886 1.349 1_545 S
C898 H892 0.950 . S
C898 C899 1.327 . S
C899 H893 0.950 . S
C899 C898 1.327 . S
C899 C903 1.429 1_545 S
C900 C883 1.574 . S
C900 H894 0.949 . S
C900 C904 1.368 . S
C901 C882 1.429 . S
C901 C895 1.429 1_545 S
C901 C902 1.523 . S
C902 C883 1.368 1_544 S
C902 C896 1.368 . S
C902 C901 1.523 . S
C903 C887 1.429 . S
C903 C899 1.429 1_565 S
C903 C904 1.523 . S
C904 C888 1.368 1_566 S
C904 C900 1.368 . S
C904 C903 1.523 . S
H905 C880 0.950 . S
H906 C882 0.950 . S
H907 C883 0.949 . S
H908 C885 0.950 . S
H909 C887 0.950 . S
C910 C911 1.349 . S
C910 C912 1.327 . S
C910 H935 0.950 . S
C911 C910 1.349 . S
C911 C927 1.349 . S
C912 C910 1.327 . S
C912 C931 1.429 . S
C912 H936 0.950 . S
C913 C930 1.574 . S
C913 C932 1.368 . S
C913 H937 0.949 . S
H914 C918 0.949 . S
C915 C916 1.349 . S
C915 C917 1.327 . S
C915 H938 0.950 . S
C916 C915 1.349 . S
C916 C928 1.349 . S
C917 C915 1.327 . S
C917 C933 1.429 . S
C917 H939 0.950 . S
C918 H914 0.949 . S
C918 C926 1.574 . S
C918 C934 1.368 . S
H919 C927 0.950 . S
H920 C925 0.950 . S
H921 C926 0.949 . S
H922 C928 0.950 . S
H923 C929 0.950 . S
H924 C930 0.949 . S
C925 H920 0.950 . S
C925 C927 1.327 . S
C925 C931 1.429 . S
C926 C918 1.574 . S
C926 H921 0.949 . S
C926 C932 1.368 . S
C927 C911 1.349 . S
C927 H919 0.950 . S
C927 C925 1.327 . S
C928 C916 1.349 . S
C928 H922 0.950 . S
C928 C929 1.327 . S
C929 H923 0.950 . S
C929 C928 1.327 . S
C929 C933 1.429 . S
C930 C913 1.574 . S
C930 H924 0.949 . S
C930 C934 1.368 . S
C931 C912 1.429 . S
C931 C925 1.429 . S
C931 C932 1.523 . S
C932 C913 1.368 . S
C932 C926 1.368 . S
C932 C931 1.523 . S
C933 C917 1.429 . S
C933 C929 1.429 . S
C933 C934 1.523 . S
C934 C918 1.368 . S
C934 C930 1.368 . S
C934 C933 1.523 . S
H935 C910 0.950 . S
H936 C912 0.950 . S
H937 C913 0.949 . S
H938 C915 0.950 . S
H939 C917 0.950 . S
C940 C941 1.349 . S
C940 C942 1.327 . S
C940 H965 0.950 . S
C941 C940 1.349 . S
C941 C957 1.349 1_565 S
C942 C940 1.327 . S
C942 C961 1.429 . S
C942 H966 0.950 . S
C943 C960 1.574 1_455 S
C943 C962 1.368 1_545 S
C943 H967 0.949 . S
H944 C948 0.949 . S
C945 C946 1.349 . S
C945 C947 1.327 . S
C945 H968 0.950 . S
C946 C945 1.349 . S
C946 C958 1.349 1_545 S
C947 C945 1.327 . S
C947 C963 1.429 . S
C947 H969 0.950 . S
C948 H944 0.949 . S
C948 C956 1.574 1_655 S
C948 C964 1.368 1_565 S
H949 C957 0.950 . S
H950 C955 0.950 . S
H951 C956 0.949 . S
H952 C958 0.950 . S
H953 C959 0.950 . S
H954 C960 0.949 . S
C955 H950 0.950 . S
C955 C957 1.327 . S
C955 C961 1.429 1_545 S
C956 C948 1.574 1_455 S
C956 H951 0.949 . S
C956 C962 1.368 . S
C957 C941 1.349 1_545 S
C957 H949 0.950 . S
C957 C955 1.327 . S
C958 C946 1.349 1_565 S
C958 H952 0.950 . S
C958 C959 1.327 . S
C959 H953 0.950 . S
C959 C958 1.327 . S
C959 C963 1.429 1_565 S
C960 C943 1.574 1_655 S
C960 H954 0.949 . S
C960 C964 1.368 . S
C961 C942 1.429 . S
C961 C955 1.429 1_565 S
C961 C962 1.523 . S
C962 C943 1.368 1_565 S
C962 C956 1.368 . S
C962 C961 1.523 . S
C963 C947 1.429 . S
C963 C959 1.429 1_545 S
C963 C964 1.523 . S
C964 C948 1.368 1_545 S
C964 C960 1.368 . S
C964 C963 1.523 . S
H965 C940 0.950 . S
H966 C942 0.950 . S
H967 C943 0.949 . S
H968 C945 0.950 . S
H969 C947 0.950 . S
C970 C971 1.349 . S
C970 C972 1.327 . S
C970 H995 0.950 . S
C971 C970 1.349 . S
C971 C987 1.349 . S
C972 C970 1.327 . S
C972 C991 1.429 . S
C972 H996 0.950 . S
C973 C990 1.574 . S
C973 C992 1.368 . S
C973 H997 0.949 . S
H974 C978 0.949 . S
C975 C976 1.349 . S
C975 C977 1.327 . S
C975 H998 0.950 . S
C976 C975 1.349 . S
C976 C988 1.349 . S
C977 C975 1.327 . S
C977 C993 1.429 . S
C977 H999 0.950 . S
C978 H974 0.949 . S
C978 C986 1.574 . S
C978 C994 1.368 . S
H979 C987 0.950 . S
H980 C985 0.950 . S
H981 C986 0.949 . S
H982 C988 0.950 . S
H983 C989 0.950 . S
H984 C990 0.949 . S
C985 H980 0.950 . S
C985 C987 1.327 . S
C985 C991 1.429 . S
C986 C978 1.574 . S
C986 H981 0.949 . S
C986 C992 1.368 . S
C987 C971 1.349 . S
C987 H979 0.950 . S
C987 C985 1.327 . S
C988 C976 1.349 . S
C988 H982 0.950 . S
C988 C989 1.327 . S
C989 H983 0.950 . S
C989 C988 1.327 . S
C989 C993 1.429 . S
C990 C973 1.574 . S
C990 H984 0.949 . S
C990 C994 1.368 . S
C991 C972 1.429 . S
C991 C985 1.429 . S
C991 C992 1.523 . S
C992 C973 1.368 . S
C992 C986 1.368 . S
C992 C991 1.523 . S
C993 C977 1.429 . S
C993 C989 1.429 . S
C993 C994 1.523 . S
C994 C978 1.368 . S
C994 C990 1.368 . S
C994 C993 1.523 . S
H995 C970 0.950 . S
H996 C972 0.950 . S
H997 C973 0.949 . S
H998 C975 0.950 . S
H999 C977 0.950 . S
C1000 C1001 1.349 . S
C1000 C1002 1.327 . S
C1000 H1025 0.950 . S
C1001 C1000 1.349 . S
C1001 C1017 1.349 . S
C1002 C1000 1.327 . S
C1002 C1021 1.429 . S
C1002 H1026 0.950 . S
C1003 C1020 1.574 . S
C1003 C1022 1.368 . S
C1003 H1027 0.949 . S
H1004 C1008 0.949 . S
C1005 C1006 1.349 . S
C1005 C1007 1.327 . S
C1005 H1028 0.950 . S
C1006 C1005 1.349 . S
C1006 C1018 1.349 . S
C1007 C1005 1.327 . S
C1007 C1023 1.429 . S
C1007 H1029 0.950 . S
C1008 H1004 0.949 . S
C1008 C1016 1.574 . S
C1008 C1024 1.368 . S
H1009 C1017 0.950 . S
H1010 C1015 0.950 . S
H1011 C1016 0.949 . S
H1012 C1018 0.950 . S
H1013 C1019 0.950 . S
H1014 C1020 0.949 . S
C1015 H1010 0.950 . S
C1015 C1017 1.327 . S
C1015 C1021 1.429 . S
C1016 C1008 1.574 . S
C1016 H1011 0.949 . S
C1016 C1022 1.368 . S
C1017 C1001 1.349 . S
C1017 H1009 0.950 . S
C1017 C1015 1.327 . S
C1018 C1006 1.349 . S
C1018 H1012 0.950 . S
C1018 C1019 1.327 . S
C1019 H1013 0.950 . S
C1019 C1018 1.327 . S
C1019 C1023 1.429 . S
C1020 C1003 1.574 . S
C1020 H1014 0.949 . S
C1020 C1024 1.368 . S
C1021 C1002 1.429 . S
C1021 C1015 1.429 . S
C1021 C1022 1.523 . S
C1022 C1003 1.368 . S
C1022 C1016 1.368 . S
C1022 C1021 1.523 . S
C1023 C1007 1.429 . S
C1023 C1019 1.429 . S
C1023 C1024 1.523 . S
C1024 C1008 1.368 . S
C1024 C1020 1.368 . S
C1024 C1023 1.523 . S
H1025 C1000 0.950 . S
H1026 C1002 0.950 . S
H1027 C1003 0.949 . S
H1028 C1005 0.950 . S
H1029 C1007 0.950 . S
C1030 C1031 1.349 . S
C1030 C1032 1.327 . S
C1030 H1055 0.950 . S
C1031 C1030 1.349 . S
C1031 C1047 1.349 . S
C1032 C1030 1.327 . S
C1032 C1051 1.429 . S
C1032 H1056 0.950 . S
C1033 C1050 1.574 . S
C1033 C1052 1.368 . S
C1033 H1057 0.949 . S
H1034 C1038 0.949 . S
C1035 C1036 1.349 . S
C1035 C1037 1.327 . S
C1035 H1058 0.950 . S
C1036 C1035 1.349 . S
C1036 C1048 1.349 . S
C1037 C1035 1.327 . S
C1037 C1053 1.429 . S
C1037 H1059 0.950 . S
C1038 H1034 0.949 . S
C1038 C1046 1.574 . S
C1038 C1054 1.368 . S
H1039 C1047 0.950 . S
H1040 C1045 0.950 . S
H1041 C1046 0.949 . S
H1042 C1048 0.950 . S
H1043 C1049 0.950 . S
H1044 C1050 0.949 . S
C1045 H1040 0.950 . S
C1045 C1047 1.327 . S
C1045 C1051 1.429 . S
C1046 C1038 1.574 . S
C1046 H1041 0.949 . S
C1046 C1052 1.368 . S
C1047 C1031 1.349 . S
C1047 H1039 0.950 . S
C1047 C1045 1.327 . S
C1048 C1036 1.349 . S
C1048 H1042 0.950 . S
C1048 C1049 1.327 . S
C1049 H1043 0.950 . S
C1049 C1048 1.327 . S
C1049 C1053 1.429 . S
C1050 C1033 1.574 . S
C1050 H1044 0.949 . S
C1050 C1054 1.368 . S
C1051 C1032 1.429 . S
C1051 C1045 1.429 . S
C1051 C1052 1.523 . S
C1052 C1033 1.368 . S
C1052 C1046 1.368 . S
C1052 C1051 1.523 . S
C1053 C1037 1.429 . S
C1053 C1049 1.429 . S
C1053 C1054 1.523 . S
C1054 C1038 1.368 . S
C1054 C1050 1.368 . S
C1054 C1053 1.523 . S
H1055 C1030 0.950 . S
H1056 C1032 0.950 . S
H1057 C1033 0.949 . S
H1058 C1035 0.950 . S
H1059 C1037 0.950 . S
C1060 C1061 1.349 . S
C1060 C1062 1.327 . S
C1060 H1085 0.950 . S
C1061 C1060 1.349 . S
C1061 C1077 1.349 . S
C1062 C1060 1.327 . S
C1062 C1081 1.429 . S
C1062 H1086 0.950 . S
C1063 C1080 1.574 1_455 S
C1063 C1082 1.368 . S
C1063 H1087 0.949 . S
H1064 C1068 0.949 . S
C1065 C1066 1.349 . S
C1065 C1067 1.327 . S
C1065 H1088 0.950 . S
C1066 C1065 1.349 . S
C1066 C1078 1.349 . S
C1067 C1065 1.327 . S
C1067 C1083 1.429 . S
C1067 H1089 0.950 . S
C1068 H1064 0.949 . S
C1068 C1076 1.574 1_655 S
C1068 C1084 1.368 . S
H1069 C1077 0.950 . S
H1070 C1075 0.950 . S
H1071 C1076 0.949 . S
H1072 C1078 0.950 . S
H1073 C1079 0.950 . S
H1074 C1080 0.949 . S
C1075 H1070 0.950 . S
C1075 C1077 1.327 . S
C1075 C1081 1.429 . S
C1076 C1068 1.574 1_455 S
C1076 H1071 0.949 . S
C1076 C1082 1.368 . S
C1077 C1061 1.349 . S
C1077 H1069 0.950 . S
C1077 C1075 1.327 . S
C1078 C1066 1.349 . S
C1078 H1072 0.950 . S
C1078 C1079 1.327 . S
C1079 H1073 0.950 . S
C1079 C1078 1.327 . S
C1079 C1083 1.429 . S
C1080 C1063 1.574 1_655 S
C1080 H1074 0.949 . S
C1080 C1084 1.368 . S
C1081 C1062 1.429 . S
C1081 C1075 1.429 . S
C1081 C1082 1.523 . S
C1082 C1063 1.368 . S
C1082 C1076 1.368 . S
C1082 C1081 1.523 . S
C1083 C1067 1.429 . S
C1083 C1079 1.429 . S
C1083 C1084 1.523 . S
C1084 C1068 1.368 . S
C1084 C1080 1.368 . S
C1084 C1083 1.523 . S
H1085 C1060 0.950 . S
H1086 C1062 0.950 . S
H1087 C1063 0.949 . S
H1088 C1065 0.950 . S
H1089 C1067 0.950 . S
C1090 C1091 1.349 . S
C1090 C1092 1.327 . S
C1090 H1115 0.950 . S
C1091 C1090 1.349 . S
C1091 C1107 1.349 . S
C1092 C1090 1.327 . S
C1092 C1111 1.429 . S
C1092 H1116 0.950 . S
C1093 C1110 1.574 1_554 S
C1093 C1112 1.368 . S
C1093 H1117 0.949 . S
H1094 C1098 0.949 . S
C1095 C1096 1.349 . S
C1095 C1097 1.327 . S
C1095 H1118 0.950 . S
C1096 C1095 1.349 . S
C1096 C1108 1.349 . S
C1097 C1095 1.327 . S
C1097 C1113 1.429 . S
C1097 H1119 0.950 . S
C1098 H1094 0.949 . S
C1098 C1106 1.574 1_556 S
C1098 C1114 1.368 . S
H1099 C1107 0.950 . S
H1100 C1105 0.950 . S
H1101 C1106 0.949 . S
H1102 C1108 0.950 . S
H1103 C1109 0.950 . S
H1104 C1110 0.949 . S
C1105 H1100 0.950 . S
C1105 C1107 1.327 . S
C1105 C1111 1.429 . S
C1106 C1098 1.574 1_554 S
C1106 H1101 0.949 . S
C1106 C1112 1.368 . S
C1107 C1091 1.349 . S
C1107 H1099 0.950 . S
C1107 C1105 1.327 . S
C1108 C1096 1.349 . S
C1108 H1102 0.950 . S
C1108 C1109 1.327 . S
C1109 H1103 0.950 . S
C1109 C1108 1.327 . S
C1109 C1113 1.429 . S
C1110 C1093 1.574 1_556 S
C1110 H1104 0.949 . S
C1110 C1114 1.368 . S
C1111 C1092 1.429 . S
C1111 C1105 1.429 . S
C1111 C1112 1.523 . S
C1112 C1093 1.368 . S
C1112 C1106 1.368 . S
C1112 C1111 1.523 . S
C1113 C1097 1.429 . S
C1113 C1109 1.429 . S
C1113 C1114 1.523 . S
C1114 C1098 1.368 . S
C1114 C1110 1.368 . S
C1114 C1113 1.523 . S
H1115 C1090 0.950 . S
H1116 C1092 0.950 . S
H1117 C1093 0.949 . S
H1118 C1095 0.950 . S
H1119 C1097 0.950 . S
C1120 C1121 1.349 . S
C1120 C1122 1.327 . S
C1120 H1145 0.950 . S
C1121 C1120 1.349 . S
C1121 C1137 1.349 . S
C1122 C1120 1.327 . S
C1122 C1141 1.429 . S
C1122 H1146 0.950 . S
C1123 C1140 1.574 . S
C1123 C1142 1.368 . S
C1123 H1147 0.949 . S
H1124 C1128 0.949 . S
C1125 C1126 1.349 . S
C1125 C1127 1.327 . S
C1125 H1148 0.950 . S
C1126 C1125 1.349 . S
C1126 C1138 1.349 . S
C1127 C1125 1.327 . S
C1127 C1143 1.429 . S
C1127 H1149 0.950 . S
C1128 H1124 0.949 . S
C1128 C1136 1.574 . S
C1128 C1144 1.368 . S
H1129 C1137 0.950 . S
H1130 C1135 0.950 . S
H1131 C1136 0.949 . S
H1132 C1138 0.950 . S
H1133 C1139 0.950 . S
H1134 C1140 0.949 . S
C1135 H1130 0.950 . S
C1135 C1137 1.327 . S
C1135 C1141 1.429 . S
C1136 C1128 1.574 . S
C1136 H1131 0.949 . S
C1136 C1142 1.368 . S
C1137 C1121 1.349 . S
C1137 H1129 0.950 . S
C1137 C1135 1.327 . S
C1138 C1126 1.349 . S
C1138 H1132 0.950 . S
C1138 C1139 1.327 . S
C1139 H1133 0.950 . S
C1139 C1138 1.327 . S
C1139 C1143 1.429 . S
C1140 C1123 1.574 . S
C1140 H1134 0.949 . S
C1140 C1144 1.368 . S
C1141 C1122 1.429 . S
C1141 C1135 1.429 . S
C1141 C1142 1.523 . S
C1142 C1123 1.368 . S
C1142 C1136 1.368 . S
C1142 C1141 1.523 . S
C1143 C1127 1.429 . S
C1143 C1139 1.429 . S
C1143 C1144 1.523 . S
C1144 C1128 1.368 . S
C1144 C1140 1.368 . S
C1144 C1143 1.523 . S
H1145 C1120 0.950 . S
H1146 C1122 0.950 . S
H1147 C1123 0.949 . S
H1148 C1125 0.950 . S
H1149 C1127 0.950 . S
C1150 C1151 1.349 . S
C1150 C1152 1.327 . S
C1150 H1175 0.950 . S
C1151 C1150 1.349 . S
C1151 C1167 1.349 . S
C1152 C1150 1.327 . S
C1152 C1171 1.429 . S
C1152 H1176 0.950 . S
C1153 C1170 1.574 . S
C1153 C1172 1.368 . S
C1153 H1177 0.949 . S
H1154 C1158 0.949 . S
C1155 C1156 1.349 . S
C1155 C1157 1.327 . S
C1155 H1178 0.950 . S
C1156 C1155 1.349 . S
C1156 C1168 1.349 . S
C1157 C1155 1.327 . S
C1157 C1173 1.429 . S
C1157 H1179 0.950 . S
C1158 H1154 0.949 . S
C1158 C1166 1.574 . S
C1158 C1174 1.368 . S
H1159 C1167 0.950 . S
H1160 C1165 0.950 . S
H1161 C1166 0.949 . S
H1162 C1168 0.950 . S
H1163 C1169 0.950 . S
H1164 C1170 0.949 . S
C1165 H1160 0.950 . S
C1165 C1167 1.327 . S
C1165 C1171 1.429 . S
C1166 C1158 1.574 . S
C1166 H1161 0.949 . S
C1166 C1172 1.368 . S
C1167 C1151 1.349 . S
C1167 H1159 0.950 . S
C1167 C1165 1.327 . S
C1168 C1156 1.349 . S
C1168 H1162 0.950 . S
C1168 C1169 1.327 . S
C1169 H1163 0.950 . S
C1169 C1168 1.327 . S
C1169 C1173 1.429 . S
C1170 C1153 1.574 . S
C1170 H1164 0.949 . S
C1170 C1174 1.368 . S
C1171 C1152 1.429 . S
C1171 C1165 1.429 . S
C1171 C1172 1.523 . S
C1172 C1153 1.368 . S
C1172 C1166 1.368 . S
C1172 C1171 1.523 . S
C1173 C1157 1.429 . S
C1173 C1169 1.429 . S
C1173 C1174 1.523 . S
C1174 C1158 1.368 . S
C1174 C1170 1.368 . S
C1174 C1173 1.523 . S
H1175 C1150 0.950 . S
H1176 C1152 0.950 . S
H1177 C1153 0.949 . S
H1178 C1155 0.950 . S
H1179 C1157 0.950 . S
C1180 C1181 1.349 . S
C1180 C1182 1.327 . S
C1180 H1205 0.950 . S
C1181 C1180 1.349 . S
C1181 C1197 1.349 . S
C1182 C1180 1.327 . S
C1182 C1201 1.429 . S
C1182 H1206 0.950 . S
C1183 C1200 1.574 . S
C1183 C1202 1.368 . S
C1183 H1207 0.949 . S
H1184 C1188 0.949 . S
C1185 C1186 1.349 . S
C1185 C1187 1.327 . S
C1185 H1208 0.950 . S
C1186 C1185 1.349 . S
C1186 C1198 1.349 . S
C1187 C1185 1.327 . S
C1187 C1203 1.429 . S
C1187 H1209 0.950 . S
C1188 H1184 0.949 . S
C1188 C1196 1.574 . S
C1188 C1204 1.368 . S
H1189 C1197 0.950 . S
H1190 C1195 0.950 . S
H1191 C1196 0.949 . S
H1192 C1198 0.950 . S
H1193 C1199 0.950 . S
H1194 C1200 0.949 . S
C1195 H1190 0.950 . S
C1195 C1197 1.327 . S
C1195 C1201 1.429 . S
C1196 C1188 1.574 . S
C1196 H1191 0.949 . S
C1196 C1202 1.368 . S
C1197 C1181 1.349 . S
C1197 H1189 0.950 . S
C1197 C1195 1.327 . S
C1198 C1186 1.349 . S
C1198 H1192 0.950 . S
C1198 C1199 1.327 . S
C1199 H1193 0.950 . S
C1199 C1198 1.327 . S
C1199 C1203 1.429 . S
C1200 C1183 1.574 . S
C1200 H1194 0.949 . S
C1200 C1204 1.368 . S
C1201 C1182 1.429 . S
C1201 C1195 1.429 . S
C1201 C1202 1.523 . S
C1202 C1183 1.368 . S
C1202 C1196 1.368 . S
C1202 C1201 1.523 . S
C1203 C1187 1.429 . S
C1203 C1199 1.429 . S
C1203 C1204 1.523 . S
C1204 C1188 1.368 . S
C1204 C1200 1.368 . S
C1204 C1203 1.523 . S
H1205 C1180 0.950 . S
H1206 C1182 0.950 . S
H1207 C1183 0.949 . S
H1208 C1185 0.950 . S
H1209 C1187 0.950 . S
C1210 C1211 1.349 . S
C1210 C1212 1.327 . S
C1210 H1235 0.950 . S
C1211 C1210 1.349 . S
C1211 C1227 1.349 . S
C1212 C1210 1.327 . S
C1212 C1231 1.429 . S
C1212 H1236 0.950 . S
C1213 C1230 1.574 . S
C1213 C1232 1.368 . S
C1213 H1237 0.949 . S
H1214 C1218 0.949 . S
C1215 C1216 1.349 . S
C1215 C1217 1.327 . S
C1215 H1238 0.950 . S
C1216 C1215 1.349 . S
C1216 C1228 1.349 . S
C1217 C1215 1.327 . S
C1217 C1233 1.429 . S
C1217 H1239 0.950 . S
C1218 H1214 0.949 . S
C1218 C1226 1.574 . S
C1218 C1234 1.368 . S
H1219 C1227 0.950 . S
H1220 C1225 0.950 . S
H1221 C1226 0.949 . S
H1222 C1228 0.950 . S
H1223 C1229 0.950 . S
H1224 C1230 0.949 . S
C1225 H1220 0.950 . S
C1225 C1227 1.327 . S
C1225 C1231 1.429 . S
C1226 C1218 1.574 . S
C1226 H1221 0.949 . S
C1226 C1232 1.368 . S
C1227 C1211 1.349 . S
C1227 H1219 0.950 . S
C1227 C1225 1.327 . S
C1228 C1216 1.349 . S
C1228 H1222 0.950 . S
C1228 C1229 1.327 . S
C1229 H1223 0.950 . S
C1229 C1228 1.327 . S
C1229 C1233 1.429 . S
C1230 C1213 1.574 . S
C1230 H1224 0.949 . S
C1230 C1234 1.368 . S
C1231 C1212 1.429 . S
C1231 C1225 1.429 . S
C1231 C1232 1.523 . S
C1232 C1213 1.368 . S
C1232 C1226 1.368 . S
C1232 C1231 1.523 . S
C1233 C1217 1.429 . S
C1233 C1229 1.429 . S
C1233 C1234 1.523 . S
C1234 C1218 1.368 . S
C1234 C1230 1.368 . S
C1234 C1233 1.523 . S
H1235 C1210 0.950 . S
H1236 C1212 0.950 . S
H1237 C1213 0.949 . S
H1238 C1215 0.950 . S
H1239 C1217 0.950 . S
C1240 C1241 1.349 . S
C1240 C1242 1.327 . S
C1240 H1265 0.950 . S
C1241 C1240 1.349 . S
C1241 C1257 1.349 . S
C1242 C1240 1.327 . S
C1242 C1261 1.429 . S
C1242 H1266 0.950 . S
C1243 C1260 1.574 . S
C1243 C1262 1.368 . S
C1243 H1267 0.949 . S
H1244 C1248 0.949 . S
C1245 C1246 1.349 . S
C1245 C1247 1.327 . S
C1245 H1268 0.950 . S
C1246 C1245 1.349 . S
C1246 C1258 1.349 . S
C1247 C1245 1.327 . S
C1247 C1263 1.429 . S
C1247 H1269 0.950 . S
C1248 H1244 0.949 . S
C1248 C1256 1.574 . S
C1248 C1264 1.368 . S
H1249 C1257 0.950 . S
H1250 C1255 0.950 . S
H1251 C1256 0.949 . S
H1252 C1258 0.950 . S
H1253 C1259 0.950 . S
H1254 C1260 0.949 . S
C1255 H1250 0.950 . S
C1255 C1257 1.327 . S
C1255 C1261 1.429 . S
C1256 C1248 1.574 . S
C1256 H1251 0.949 . S
C1256 C1262 1.368 . S
C1257 C1241 1.349 . S
C1257 H1249 0.950 . S
C1257 C1255 1.327 . S
C1258 C1246 1.349 . S
C1258 H1252 0.950 . S
C1258 C1259 1.327 . S
C1259 H1253 0.950 . S
C1259 C1258 1.327 . S
C1259 C1263 1.429 . S
C1260 C1243 1.574 . S
C1260 H1254 0.949 . S
C1260 C1264 1.368 . S
C1261 C1242 1.429 . S
C1261 C1255 1.429 . S
C1261 C1262 1.523 . S
C1262 C1243 1.368 . S
C1262 C1256 1.368 . S
C1262 C1261 1.523 . S
C1263 C1247 1.429 . S
C1263 C1259 1.429 . S
C1263 C1264 1.523 . S
C1264 C1248 1.368 . S
C1264 C1260 1.368 . S
C1264 C1263 1.523 . S
H1265 C1240 0.950 . S
H1266 C1242 0.950 . S
H1267 C1243 0.949 . S
H1268 C1245 0.950 . S
H1269 C1247 0.950 . S
C1270 C1271 1.349 . S
C1270 C1272 1.327 . S
C1270 H1295 0.950 . S
C1271 C1270 1.349 . S
C1271 C1287 1.349 . S
C1272 C1270 1.327 . S
C1272 C1291 1.429 . S
C1272 H1296 0.950 . S
C1273 C1290 1.574 . S
C1273 C1292 1.368 . S
C1273 H1297 0.949 . S
H1274 C1278 0.949 . S
C1275 C1276 1.349 . S
C1275 C1277 1.327 . S
C1275 H1298 0.950 . S
C1276 C1275 1.349 . S
C1276 C1288 1.349 . S
C1277 C1275 1.327 . S
C1277 C1293 1.429 . S
C1277 H1299 0.950 . S
C1278 H1274 0.949 . S
C1278 C1286 1.574 . S
C1278 C1294 1.368 . S
H1279 C1287 0.950 . S
H1280 C1285 0.950 . S
H1281 C1286 0.949 . S
H1282 C1288 0.950 . S
H1283 C1289 0.950 . S
H1284 C1290 0.949 . S
C1285 H1280 0.950 . S
C1285 C1287 1.327 . S
C1285 C1291 1.429 . S
C1286 C1278 1.574 . S
C1286 H1281 0.949 . S
C1286 C1292 1.368 . S
C1287 C1271 1.349 . S
C1287 H1279 0.950 . S
C1287 C1285 1.327 . S
C1288 C1276 1.349 . S
C1288 H1282 0.950 . S
C1288 C1289 1.327 . S
C1289 H1283 0.950 . S
C1289 C1288 1.327 . S
C1289 C1293 1.429 . S
C1290 C1273 1.574 . S
C1290 H1284 0.949 . S
C1290 C1294 1.368 . S
C1291 C1272 1.429 . S
C1291 C1285 1.429 . S
C1291 C1292 1.523 . S
C1292 C1273 1.368 . S
C1292 C1286 1.368 . S
C1292 C1291 1.523 . S
C1293 C1277 1.429 . S
C1293 C1289 1.429 . S
C1293 C1294 1.523 . S
C1294 C1278 1.368 . S
C1294 C1290 1.368 . S
C1294 C1293 1.523 . S
H1295 C1270 0.950 . S
H1296 C1272 0.950 . S
H1297 C1273 0.949 . S
H1298 C1275 0.950 . S
H1299 C1277 0.950 . S
C1300 C1301 1.349 . S
C1300 C1302 1.327 . S
C1300 H1325 0.950 . S
C1301 C1300 1.349 . S
C1301 C1317 1.349 . S
C1302 C1300 1.327 . S
C1302 C1321 1.429 . S
C1302 H1326 0.950 . S
C1303 C1320 1.574 . S
C1303 C1322 1.368 . S
C1303 H1327 0.949 . S
H1304 C1308 0.949 . S
C1305 C1306 1.349 . S
C1305 C1307 1.327 . S
C1305 H1328 0.950 . S
C1306 C1305 1.349 . S
C1306 C1318 1.349 . S
C1307 C1305 1.327 . S
C1307 C1323 1.429 . S
C1307 H1329 0.950 . S
C1308 H1304 0.949 . S
C1308 C1316 1.574 . S
C1308 C1324 1.368 . S
H1309 C1317 0.950 . S
H1310 C1315 0.950 . S
H1311 C1316 0.949 . S
H1312 C1318 0.950 . S
H1313 C1319 0.950 . S
H1314 C1320 0.949 . S
C1315 H1310 0.950 . S
C1315 C1317 1.327 . S
C1315 C1321 1.429 . S
C1316 C1308 1.574 . S
C1316 H1311 0.949 . S
C1316 C1322 1.368 . S
C1317 C1301 1.349 . S
C1317 H1309 0.950 . S
C1317 C1315 1.327 . S
C1318 C1306 1.349 . S
C1318 H1312 0.950 . S
C1318 C1319 1.327 . S
C1319 H1313 0.950 . S
C1319 C1318 1.327 . S
C1319 C1323 1.429 . S
C1320 C1303 1.574 . S
C1320 H1314 0.949 . S
C1320 C1324 1.368 . S
C1321 C1302 1.429 . S
C1321 C1315 1.429 . S
C1321 C1322 1.523 . S
C1322 C1303 1.368 . S
C1322 C1316 1.368 . S
C1322 C1321 1.523 . S
C1323 C1307 1.429 . S
C1323 C1319 1.429 . S
C1323 C1324 1.523 . S
C1324 C1308 1.368 . S
C1324 C1320 1.368 . S
C1324 C1323 1.523 . S
H1325 C1300 0.950 . S
H1326 C1302 0.950 . S
H1327 C1303 0.949 . S
H1328 C1305 0.950 . S
H1329 C1307 0.950 . S
C1330 C1331 1.349 . S
C1330 C1332 1.327 . S
C1330 H1355 0.950 . S
C1331 C1330 1.349 . S
C1331 C1347 1.349 . S
C1332 C1330 1.327 . S
C1332 C1351 1.429 . S
C1332 H1356 0.950 . S
C1333 C1350 1.574 . S
C1333 C1352 1.368 . S
C1333 H1357 0.949 . S
H1334 C1338 0.949 . S
C1335 C1336 1.349 . S
C1335 C1337 1.327 . S
C1335 H1358 0.950 . S
C1336 C1335 1.349 . S
C1336 C1348 1.349 . S
C1337 C1335 1.327 . S
C1337 C1353 1.429 . S
C1337 H1359 0.950 . S
C1338 H1334 0.949 . S
C1338 C1346 1.574 . S
C1338 C1354 1.368 . S
H1339 C1347 0.950 . S
H1340 C1345 0.950 . S
H1341 C1346 0.949 . S
H1342 C1348 0.950 . S
H1343 C1349 0.950 . S
H1344 C1350 0.949 . S
C1345 H1340 0.950 . S
C1345 C1347 1.327 . S
C1345 C1351 1.429 . S
C1346 C1338 1.574 . S
C1346 H1341 0.949 . S
C1346 C1352 1.368 . S
C1347 C1331 1.349 . S
C1347 H1339 0.950 . S
C1347 C1345 1.327 . S
C1348 C1336 1.349 . S
C1348 H1342 0.950 . S
C1348 C1349 1.327 . S
C1349 H1343 0.950 . S
C1349 C1348 1.327 . S
C1349 C1353 1.429 . S
C1350 C1333 1.574 . S
C1350 H1344 0.949 . S
C1350 C1354 1.368 . S
C1351 C1332 1.429 . S
C1351 C1345 1.429 . S
C1351 C1352 1.523 . S
C1352 C1333 1.368 . S
C1352 C1346 1.368 . S
C1352 C1351 1.523 . S
C1353 C1337 1.429 . S
C1353 C1349 1.429 . S
C1353 C1354 1.523 . S
C1354 C1338 1.368 . S
C1354 C1350 1.368 . S
C1354 C1353 1.523 . S
H1355 C1330 0.950 . S
H1356 C1332 0.950 . S
H1357 C1333 0.949 . S
H1358 C1335 0.950 . S
H1359 C1337 0.950 . S
C1360 C1361 1.349 . S
C1360 C1362 1.327 . S
C1360 H1385 0.950 . S
C1361 C1360 1.349 . S
C1361 C1377 1.349 . S
C1362 C1360 1.327 . S
C1362 C1381 1.429 . S
C1362 H1386 0.950 . S
C1363 C1380 1.574 . S
C1363 C1382 1.368 . S
C1363 H1387 0.949 . S
H1364 C1368 0.949 . S
C1365 C1366 1.350 . S
C1365 C1367 1.327 . S
C1365 H1388 0.950 . S
C1366 C1365 1.350 . S
C1366 C1378 1.350 . S
C1367 C1365 1.327 . S
C1367 C1383 1.429 . S
C1367 H1389 0.950 . S
C1368 H1364 0.949 . S
C1368 C1376 1.574 . S
C1368 C1384 1.368 . S
H1369 C1377 0.950 . S
H1370 C1375 0.950 . S
H1371 C1376 0.949 . S
H1372 C1378 0.941 1_545 S
H1373 C1379 0.950 . S
H1374 C1380 0.949 . S
C1375 H1370 0.950 . S
C1375 C1377 1.327 . S
C1375 C1381 1.429 . S
C1376 C1368 1.574 . S
C1376 H1371 0.949 . S
C1376 C1382 1.368 . S
C1377 C1361 1.349 . S
C1377 H1369 0.950 . S
C1377 C1375 1.327 . S
C1378 C1366 1.350 . S
C1378 H1372 0.941 1_565 S
C1378 C1379 1.327 . S
C1379 H1373 0.950 . S
C1379 C1378 1.327 . S
C1379 C1383 1.429 . S
C1380 C1363 1.574 . S
C1380 H1374 0.949 . S
C1380 C1384 1.368 . S
C1381 C1362 1.429 . S
C1381 C1375 1.429 . S
C1381 C1382 1.523 . S
C1382 C1363 1.368 . S
C1382 C1376 1.368 . S
C1382 C1381 1.523 . S
C1383 C1367 1.429 . S
C1383 C1379 1.429 . S
C1383 C1384 1.523 . S
C1384 C1368 1.368 . S
C1384 C1380 1.368 . S
C1384 C1383 1.523 . S
H1385 C1360 0.950 . S
H1386 C1362 0.950 . S
H1387 C1363 0.949 . S
H1388 C1365 0.950 . S
H1389 C1367 0.950 . S
C1390 C1391 1.349 . S
C1390 C1392 1.327 . S
C1390 H1415 0.950 . S
C1391 C1390 1.349 . S
C1391 C1407 1.349 . S
C1392 C1390 1.327 . S
C1392 C1411 1.429 . S
C1392 H1416 0.950 . S
C1393 C1410 1.574 . S
C1393 C1412 1.368 . S
C1393 H1417 0.949 . S
H1394 C1398 0.949 . S
C1395 C1396 1.349 . S
C1395 C1397 1.327 . S
C1395 H1418 0.950 . S
C1396 C1395 1.349 . S
C1396 C1408 1.349 . S
C1397 C1395 1.327 . S
C1397 C1413 1.429 . S
C1397 H1419 0.950 . S
C1398 H1394 0.949 . S
C1398 C1406 1.574 . S
C1398 C1414 1.368 . S
H1399 C1407 0.950 . S
H1400 C1405 0.950 . S
H1401 C1406 0.949 . S
H1402 C1408 0.950 . S
H1403 C1409 0.950 . S
H1404 C1410 0.949 . S
C1405 H1400 0.950 . S
C1405 C1407 1.327 . S
C1405 C1411 1.429 . S
C1406 C1398 1.574 . S
C1406 H1401 0.949 . S
C1406 C1412 1.368 . S
C1407 C1391 1.349 . S
C1407 H1399 0.950 . S
C1407 C1405 1.327 . S
C1408 C1396 1.349 . S
C1408 H1402 0.950 . S
C1408 C1409 1.327 . S
C1409 H1403 0.950 . S
C1409 C1408 1.327 . S
C1409 C1413 1.429 . S
C1410 C1393 1.574 . S
C1410 H1404 0.949 . S
C1410 C1414 1.368 . S
C1411 C1392 1.429 . S
C1411 C1405 1.429 . S
C1411 C1412 1.523 . S
C1412 C1393 1.368 . S
C1412 C1406 1.368 . S
C1412 C1411 1.523 . S
C1413 C1397 1.429 . S
C1413 C1409 1.429 . S
C1413 C1414 1.523 . S
C1414 C1398 1.368 . S
C1414 C1410 1.368 . S
C1414 C1413 1.523 . S
H1415 C1390 0.950 . S
H1416 C1392 0.950 . S
H1417 C1393 0.949 . S
H1418 C1395 0.950 . S
H1419 C1397 0.950 . S
C1420 C1421 1.349 . S
C1420 C1422 1.327 . S
C1420 H1445 0.950 1_545 S
C1421 C1420 1.349 . S
C1421 C1437 1.350 . S
C1422 C1420 1.327 . S
C1422 C1441 1.429 . S
C1422 H1446 0.950 . S
C1423 C1440 1.574 . S
C1423 C1442 1.368 . S
C1423 H1447 0.949 . S
H1424 C1428 0.949 . S
C1425 C1426 1.349 . S
C1425 C1427 1.327 . S
C1425 H1448 0.950 . S
C1426 C1425 1.349 . S
C1426 C1438 1.349 . S
C1427 C1425 1.327 . S
C1427 C1443 1.429 . S
C1427 H1449 0.950 . S
C1428 H1424 0.949 . S
C1428 C1436 1.574 . S
C1428 C1444 1.368 . S
H1429 C1437 0.950 . S
H1430 C1435 0.950 . S
H1431 C1436 0.949 . S
H1432 C1438 0.950 . S
H1433 C1439 0.950 . S
H1434 C1440 0.949 . S
C1435 H1430 0.950 . S
C1435 C1437 1.327 . S
C1435 C1441 1.429 . S
C1436 C1428 1.574 . S
C1436 H1431 0.949 . S
C1436 C1442 1.368 . S
C1437 C1421 1.350 . S
C1437 H1429 0.950 . S
C1437 C1435 1.327 . S
C1438 C1426 1.349 . S
C1438 H1432 0.950 . S
C1438 C1439 1.327 . S
C1439 H1433 0.950 . S
C1439 C1438 1.327 . S
C1439 C1443 1.429 . S
C1440 C1423 1.574 . S
C1440 H1434 0.949 . S
C1440 C1444 1.368 . S
C1441 C1422 1.429 . S
C1441 C1435 1.429 . S
C1441 C1442 1.523 . S
C1442 C1423 1.368 . S
C1442 C1436 1.368 . S
C1442 C1441 1.523 . S
C1443 C1427 1.429 . S
C1443 C1439 1.429 . S
C1443 C1444 1.523 . S
C1444 C1428 1.368 . S
C1444 C1440 1.368 . S
C1444 C1443 1.523 . S
H1445 C1420 0.950 1_565 S
H1446 C1422 0.950 . S
H1447 C1423 0.949 . S
H1448 C1425 0.950 . S
H1449 C1427 0.950 . S
C1450 C1451 1.349 . S
C1450 C1452 1.327 . S
C1450 H1475 0.950 . S
C1451 C1450 1.349 . S
C1451 C1467 1.349 . S
C1452 C1450 1.327 . S
C1452 C1471 1.429 . S
C1452 H1476 0.950 . S
C1453 C1470 1.574 . S
C1453 C1472 1.368 . S
C1453 H1477 0.949 . S
H1454 C1458 0.949 . S
C1455 C1456 1.349 . S
C1455 C1457 1.327 . S
C1455 H1478 0.950 . S
C1456 C1455 1.349 . S
C1456 C1468 1.349 . S
C1457 C1455 1.327 . S
C1457 C1473 1.429 . S
C1457 H1479 0.950 . S
C1458 H1454 0.949 . S
C1458 C1466 1.574 . S
C1458 C1474 1.368 . S
H1459 C1467 0.950 . S
H1460 C1465 0.950 . S
H1461 C1466 0.949 . S
H1462 C1468 0.950 . S
H1463 C1469 0.950 . S
H1464 C1470 0.949 . S
C1465 H1460 0.950 . S
C1465 C1467 1.327 . S
C1465 C1471 1.429 . S
C1466 C1458 1.574 . S
C1466 H1461 0.949 . S
C1466 C1472 1.368 . S
C1467 C1451 1.349 . S
C1467 H1459 0.950 . S
C1467 C1465 1.327 . S
C1468 C1456 1.349 . S
C1468 H1462 0.950 . S
C1468 C1469 1.327 . S
C1469 H1463 0.950 . S
C1469 C1468 1.327 . S
C1469 C1473 1.429 . S
C1470 C1453 1.574 . S
C1470 H1464 0.949 . S
C1470 C1474 1.368 . S
C1471 C1452 1.429 . S
C1471 C1465 1.429 . S
C1471 C1472 1.523 . S
C1472 C1453 1.368 . S
C1472 C1466 1.368 . S
C1472 C1471 1.523 . S
C1473 C1457 1.429 . S
C1473 C1469 1.429 . S
C1473 C1474 1.523 . S
C1474 C1458 1.368 . S
C1474 C1470 1.368 . S
C1474 C1473 1.523 . S
H1475 C1450 0.950 . S
H1476 C1452 0.950 . S
H1477 C1453 0.949 . S
H1478 C1455 0.950 . S
H1479 C1457 0.950 . S
C1480 C1481 1.349 . S
C1480 C1482 1.327 . S
C1480 H1505 0.950 . S
C1481 C1480 1.349 . S
C1481 C1497 1.349 . S
C1482 C1480 1.327 . S
C1482 C1501 1.429 . S
C1482 H1506 0.950 . S
C1483 C1500 1.574 . S
C1483 C1502 1.368 . S
C1483 H1507 0.949 . S
H1484 C1488 0.949 . S
C1485 C1486 1.349 . S
C1485 C1487 1.327 . S
C1485 H1508 0.950 1_545 S
C1486 C1485 1.349 . S
C1486 C1498 1.351 . S
C1487 C1485 1.327 . S
C1487 C1503 1.429 . S
C1487 H1509 0.950 . S
C1488 H1484 0.949 . S
C1488 C1496 1.574 . S
C1488 C1504 1.368 . S
H1489 C1497 0.950 . S
H1490 C1495 0.950 . S
H1491 C1496 0.949 . S
H1492 C1498 0.950 . S
H1493 C1499 0.950 . S
H1494 C1500 0.949 . S
C1495 H1490 0.950 . S
C1495 C1497 1.327 . S
C1495 C1501 1.429 . S
C1496 C1488 1.574 . S
C1496 H1491 0.949 . S
C1496 C1502 1.368 . S
C1497 C1481 1.349 . S
C1497 H1489 0.950 . S
C1497 C1495 1.327 . S
C1498 C1486 1.351 . S
C1498 H1492 0.950 . S
C1498 C1499 1.327 . S
C1499 H1493 0.950 . S
C1499 C1498 1.327 . S
C1499 C1503 1.429 . S
C1500 C1483 1.574 . S
C1500 H1494 0.949 . S
C1500 C1504 1.368 . S
C1501 C1482 1.429 . S
C1501 C1495 1.429 . S
C1501 C1502 1.523 . S
C1502 C1483 1.368 . S
C1502 C1496 1.368 . S
C1502 C1501 1.523 . S
C1503 C1487 1.429 . S
C1503 C1499 1.429 . S
C1503 C1504 1.523 . S
C1504 C1488 1.368 . S
C1504 C1500 1.368 . S
C1504 C1503 1.523 . S
H1505 C1480 0.950 . S
H1506 C1482 0.950 . S
H1507 C1483 0.949 . S
H1508 C1485 0.950 1_565 S
H1509 C1487 0.950 . S
C1510 C1511 1.349 . S
C1510 C1512 1.327 . S
C1510 H1535 0.950 . S
C1511 C1510 1.349 . S
C1511 C1527 1.349 . S
C1512 C1510 1.327 . S
C1512 C1531 1.429 . S
C1512 H1536 0.950 . S
C1513 C1530 1.574 . S
C1513 C1532 1.368 . S
C1513 H1537 0.949 . S
H1514 C1518 0.949 . S
C1515 C1516 1.349 . S
C1515 C1517 1.327 . S
C1515 H1538 0.950 . S
C1516 C1515 1.349 . S
C1516 C1528 1.349 . S
C1517 C1515 1.327 . S
C1517 C1533 1.429 . S
C1517 H1539 0.950 . S
C1518 H1514 0.949 . S
C1518 C1526 1.574 . S
C1518 C1534 1.368 . S
H1519 C1527 0.950 . S
H1520 C1525 0.950 . S
H1521 C1526 0.949 . S
H1522 C1528 0.950 . S
H1523 C1529 0.950 . S
H1524 C1530 0.949 . S
C1525 H1520 0.950 . S
C1525 C1527 1.327 . S
C1525 C1531 1.429 . S
C1526 C1518 1.574 . S
C1526 H1521 0.949 . S
C1526 C1532 1.368 . S
C1527 C1511 1.349 . S
C1527 H1519 0.950 . S
C1527 C1525 1.327 . S
C1528 C1516 1.349 . S
C1528 H1522 0.950 . S
C1528 C1529 1.327 . S
C1529 H1523 0.950 . S
C1529 C1528 1.327 . S
C1529 C1533 1.429 . S
C1530 C1513 1.574 . S
C1530 H1524 0.949 . S
C1530 C1534 1.368 . S
C1531 C1512 1.429 . S
C1531 C1525 1.429 . S
C1531 C1532 1.523 . S
C1532 C1513 1.368 . S
C1532 C1526 1.368 . S
C1532 C1531 1.523 . S
C1533 C1517 1.429 . S
C1533 C1529 1.429 . S
C1533 C1534 1.523 . S
C1534 C1518 1.368 . S
C1534 C1530 1.368 . S
C1534 C1533 1.523 . S
H1535 C1510 0.950 . S
H1536 C1512 0.950 . S
H1537 C1513 0.949 . S
H1538 C1515 0.950 . S
H1539 C1517 0.950 . S
C1540 C1541 1.350 . S
C1540 C1542 1.327 . S
C1540 H1565 0.953 . S
C1541 C1540 1.350 . S
C1541 C1557 1.350 . S
C1542 C1540 1.327 . S
C1542 C1561 1.429 . S
C1542 H1566 0.950 . S
C1543 C1560 1.574 . S
C1543 C1562 1.368 . S
C1543 H1567 0.949 . S
H1544 C1548 0.949 . S
C1545 C1546 1.349 . S
C1545 C1547 1.327 . S
C1545 H1568 0.950 . S
C1546 C1545 1.349 . S
C1546 C1558 1.349 . S
C1547 C1545 1.327 . S
C1547 C1563 1.429 . S
C1547 H1569 0.950 . S
C1548 H1544 0.949 . S
C1548 C1556 1.574 . S
C1548 C1564 1.368 . S
H1549 C1557 0.950 . S
H1550 C1555 0.950 . S
H1551 C1556 0.949 . S
H1552 C1558 0.950 . S
H1553 C1559 0.950 . S
H1554 C1560 0.949 . S
C1555 H1550 0.950 . S
C1555 C1557 1.327 . S
C1555 C1561 1.429 . S
C1556 C1548 1.574 . S
C1556 H1551 0.949 . S
C1556 C1562 1.368 . S
C1557 C1541 1.350 . S
C1557 H1549 0.950 . S
C1557 C1555 1.327 . S
C1558 C1546 1.349 . S
C1558 H1552 0.950 . S
C1558 C1559 1.327 . S
C1559 H1553 0.950 . S
C1559 C1558 1.327 . S
C1559 C1563 1.429 . S
C1560 C1543 1.574 . S
C1560 H1554 0.949 . S
C1560 C1564 1.368 . S
C1561 C1542 1.429 . S
C1561 C1555 1.429 . S
C1561 C1562 1.523 . S
C1562 C1543 1.368 . S
C1562 C1556 1.368 . S
C1562 C1561 1.523 . S
C1563 C1547 1.429 . S
C1563 C1559 1.429 . S
C1563 C1564 1.523 . S
C1564 C1548 1.368 . S
C1564 C1560 1.368 . S
C1564 C1563 1.523 . S
H1565 C1540 0.953 . S
H1566 C1542 0.950 . S
H1567 C1543 0.949 . S
H1568 C1545 0.950 . S
H1569 C1547 0.950 . S
C1570 C1571 1.349 . S
C1570 C1572 1.327 . S
C1570 H1595 0.950 . S
C1571 C1570 1.349 . S
C1571 C1587 1.349 . S
C1572 C1570 1.327 . S
C1572 C1591 1.429 . S
C1572 H1596 0.950 . S
C1573 C1590 1.574 . S
C1573 C1592 1.368 . S
C1573 H1597 0.949 . S
H1574 C1578 0.949 . S
C1575 C1576 1.349 . S
C1575 C1577 1.327 . S
C1575 H1598 0.950 . S
C1576 C1575 1.349 . S
C1576 C1588 1.349 . S
C1577 C1575 1.327 . S
C1577 C1593 1.429 . S
C1577 H1599 0.950 . S
C1578 H1574 0.949 . S
C1578 C1586 1.574 . S
C1578 C1594 1.368 . S
H1579 C1587 0.950 . S
H1580 C1585 0.950 . S
H1581 C1586 0.949 . S
H1582 C1588 0.950 . S
H1583 C1589 0.950 . S
H1584 C1590 0.949 . S
C1585 H1580 0.950 . S
C1585 C1587 1.327 . S
C1585 C1591 1.429 . S
C1586 C1578 1.574 . S
C1586 H1581 0.949 . S
C1586 C1592 1.368 . S
C1587 C1571 1.349 . S
C1587 H1579 0.950 . S
C1587 C1585 1.327 . S
C1588 C1576 1.349 . S
C1588 H1582 0.950 . S
C1588 C1589 1.327 . S
C1589 H1583 0.950 . S
C1589 C1588 1.327 . S
C1589 C1593 1.429 . S
C1590 C1573 1.574 . S
C1590 H1584 0.949 . S
C1590 C1594 1.368 . S
C1591 C1572 1.429 . S
C1591 C1585 1.429 . S
C1591 C1592 1.523 . S
C1592 C1573 1.368 . S
C1592 C1586 1.368 . S
C1592 C1591 1.523 . S
C1593 C1577 1.429 . S
C1593 C1589 1.429 . S
C1593 C1594 1.523 . S
C1594 C1578 1.368 . S
C1594 C1590 1.368 . S
C1594 C1593 1.523 . S
H1595 C1570 0.950 . S
H1596 C1572 0.950 . S
H1597 C1573 0.949 . S
H1598 C1575 0.950 . S
H1599 C1577 0.950 . S
C1600 C1601 1.349 . S
C1600 C1602 1.327 1_554 S
C1600 H1625 0.950 . S
C1601 C1600 1.349 . S
C1601 C1617 1.349 . S
C1602 C1600 1.327 1_556 S
C1602 C1621 1.429 . S
C1602 H1626 0.950 . S
C1603 C1620 1.574 . S
C1603 C1622 1.368 . S
C1603 H1627 0.949 . S
H1604 C1608 0.949 . S
C1605 C1606 1.349 . S
C1605 C1607 1.327 . S
C1605 H1628 0.950 . S
C1606 C1605 1.349 . S
C1606 C1618 1.349 . S
C1607 C1605 1.327 . S
C1607 C1623 1.429 . S
C1607 H1629 0.950 . S
C1608 H1604 0.949 . S
C1608 C1616 1.574 . S
C1608 C1624 1.368 . S
H1609 C1617 0.950 . S
H1610 C1615 0.950 . S
H1611 C1616 0.949 . S
H1612 C1618 0.950 . S
H1613 C1619 0.950 . S
H1614 C1620 0.949 . S
C1615 H1610 0.950 . S
C1615 C1617 1.327 1_556 S
C1615 C1621 1.429 . S
C1616 C1608 1.574 . S
C1616 H1611 0.949 . S
C1616 C1622 1.368 . S
C1617 C1601 1.349 . S
C1617 H1609 0.950 . S
C1617 C1615 1.327 1_554 S
C1618 C1606 1.349 . S
C1618 H1612 0.950 . S
C1618 C1619 1.327 . S
C1619 H1613 0.950 . S
C1619 C1618 1.327 . S
C1619 C1623 1.429 . S
C1620 C1603 1.574 . S
C1620 H1614 0.949 . S
C1620 C1624 1.368 . S
C1621 C1602 1.429 . S
C1621 C1615 1.429 . S
C1621 C1622 1.523 . S
C1622 C1603 1.368 . S
C1622 C1616 1.368 . S
C1622 C1621 1.523 . S
C1623 C1607 1.429 . S
C1623 C1619 1.429 . S
C1623 C1624 1.523 . S
C1624 C1608 1.368 . S
C1624 C1620 1.368 . S
C1624 C1623 1.523 . S
H1625 C1600 0.950 . S
H1626 C1602 0.950 . S
H1627 C1603 0.949 . S
H1628 C1605 0.950 . S
H1629 C1607 0.950 . S
C1630 C1631 1.349 . S
C1630 C1632 1.327 . S
C1630 H1655 0.950 . S
C1631 C1630 1.349 . S
C1631 C1647 1.349 . S
C1632 C1630 1.327 . S
C1632 C1651 1.429 . S
C1632 H1656 0.950 . S
C1633 C1650 1.574 . S
C1633 C1652 1.368 . S
C1633 H1657 0.949 . S
H1634 C1638 0.949 . S
C1635 C1636 1.349 . S
C1635 C1637 1.327 . S
C1635 H1658 0.950 . S
C1636 C1635 1.349 . S
C1636 C1648 1.349 . S
C1637 C1635 1.327 . S
C1637 C1653 1.429 . S
C1637 H1659 0.950 . S
C1638 H1634 0.949 . S
C1638 C1646 1.574 . S
C1638 C1654 1.368 . S
H1639 C1647 0.950 . S
H1640 C1645 0.950 . S
H1641 C1646 0.949 . S
H1642 C1648 0.950 . S
H1643 C1649 0.950 . S
H1644 C1650 0.949 . S
C1645 H1640 0.950 . S
C1645 C1647 1.327 . S
C1645 C1651 1.429 . S
C1646 C1638 1.574 . S
C1646 H1641 0.949 . S
C1646 C1652 1.368 . S
C1647 C1631 1.349 . S
C1647 H1639 0.950 . S
C1647 C1645 1.327 . S
C1648 C1636 1.349 . S
C1648 H1642 0.950 . S
C1648 C1649 1.327 . S
C1649 H1643 0.950 . S
C1649 C1648 1.327 . S
C1649 C1653 1.429 . S
C1650 C1633 1.574 . S
C1650 H1644 0.949 . S
C1650 C1654 1.368 . S
C1651 C1632 1.429 . S
C1651 C1645 1.429 . S
C1651 C1652 1.523 . S
C1652 C1633 1.368 . S
C1652 C1646 1.368 . S
C1652 C1651 1.523 . S
C1653 C1637 1.429 . S
C1653 C1649 1.429 . S
C1653 C1654 1.523 . S
C1654 C1638 1.368 . S
C1654 C1650 1.368 . S
C1654 C1653 1.523 . S
H1655 C1630 0.950 . S
H1656 C1632 0.950 . S
H1657 C1633 0.949 . S
H1658 C1635 0.950 . S
H1659 C1637 0.950 . S
C1660 C1661 1.349 . S
C1660 C1662 1.327 . S
C1660 H1685 0.950 . S
C1661 C1660 1.349 . S
C1661 C1677 1.349 . S
C1662 C1660 1.327 . S
C1662 C1681 1.429 . S
C1662 H1686 0.950 . S
C1663 C1680 1.574 . S
C1663 C1682 1.368 . S
C1663 H1687 0.949 . S
H1664 C1668 0.949 . S
C1665 C1666 1.349 . S
C1665 C1667 1.327 . S
C1665 H1688 0.950 . S
C1666 C1665 1.349 . S
C1666 C1678 1.349 . S
C1667 C1665 1.327 . S
C1667 C1683 1.429 . S
C1667 H1689 0.950 . S
C1668 H1664 0.949 . S
C1668 C1676 1.574 . S
C1668 C1684 1.368 . S
H1669 C1677 0.950 . S
H1670 C1675 0.950 . S
H1671 C1676 0.949 . S
H1672 C1678 0.950 . S
H1673 C1679 0.950 . S
H1674 C1680 0.949 . S
C1675 H1670 0.950 . S
C1675 C1677 1.327 . S
C1675 C1681 1.429 . S
C1676 C1668 1.574 . S
C1676 H1671 0.949 . S
C1676 C1682 1.368 . S
C1677 C1661 1.349 . S
C1677 H1669 0.950 . S
C1677 C1675 1.327 . S
C1678 C1666 1.349 . S
C1678 H1672 0.950 . S
C1678 C1679 1.327 . S
C1679 H1673 0.950 . S
C1679 C1678 1.327 . S
C1679 C1683 1.429 . S
C1680 C1663 1.574 . S
C1680 H1674 0.949 . S
C1680 C1684 1.368 . S
C1681 C1662 1.429 . S
C1681 C1675 1.429 . S
C1681 C1682 1.523 . S
C1682 C1663 1.368 . S
C1682 C1676 1.368 . S
C1682 C1681 1.523 . S
C1683 C1667 1.429 . S
C1683 C1679 1.429 . S
C1683 C1684 1.523 . S
C1684 C1668 1.368 . S
C1684 C1680 1.368 . S
C1684 C1683 1.523 . S
H1685 C1660 0.950 . S
H1686 C1662 0.950 . S
H1687 C1663 0.949 . S
H1688 C1665 0.950 . S
H1689 C1667 0.950 . S
C1690 C1691 1.349 . S
C1690 C1692 1.327 . S
C1690 H1715 0.950 . S
C1691 C1690 1.349 . S
C1691 C1707 1.349 . S
C1692 C1690 1.327 . S
C1692 C1711 1.429 . S
C1692 H1716 0.950 . S
C1693 C1710 1.574 . S
C1693 C1712 1.368 . S
C1693 H1717 0.949 . S
H1694 C1698 0.949 . S
C1695 C1696 1.349 . S
C1695 C1697 1.327 . S
C1695 H1718 0.950 . S
C1696 C1695 1.349 . S
C1696 C1708 1.349 . S
C1697 C1695 1.327 . S
C1697 C1713 1.429 . S
C1697 H1719 0.950 . S
C1698 H1694 0.949 . S
C1698 C1706 1.574 . S
C1698 C1714 1.368 . S
H1699 C1707 0.950 . S
H1700 C1705 0.950 . S
H1701 C1706 0.949 . S
H1702 C1708 0.950 . S
H1703 C1709 0.950 . S
H1704 C1710 0.949 . S
C1705 H1700 0.950 . S
C1705 C1707 1.327 . S
C1705 C1711 1.429 . S
C1706 C1698 1.574 . S
C1706 H1701 0.949 . S
C1706 C1712 1.368 . S
C1707 C1691 1.349 . S
C1707 H1699 0.950 . S
C1707 C1705 1.327 . S
C1708 C1696 1.349 . S
C1708 H1702 0.950 . S
C1708 C1709 1.327 . S
C1709 H1703 0.950 . S
C1709 C1708 1.327 . S
C1709 C1713 1.429 . S
C1710 C1693 1.574 . S
C1710 H1704 0.949 . S
C1710 C1714 1.368 . S
C1711 C1692 1.429 . S
C1711 C1705 1.429 . S
C1711 C1712 1.523 . S
C1712 C1693 1.368 . S
C1712 C1706 1.368 . S
C1712 C1711 1.523 . S
C1713 C1697 1.429 . S
C1713 C1709 1.429 . S
C1713 C1714 1.523 . S
C1714 C1698 1.368 . S
C1714 C1710 1.368 . S
C1714 C1713 1.523 . S
H1715 C1690 0.950 . S
H1716 C1692 0.950 . S
H1717 C1693 0.949 . S
H1718 C1695 0.950 . S
H1719 C1697 0.950 . S
C1720 C1721 1.349 . S
C1720 C1722 1.327 . S
C1720 H1745 0.950 . S
C1721 C1720 1.349 . S
C1721 C1737 1.349 . S
C1722 C1720 1.327 . S
C1722 C1741 1.429 . S
C1722 H1746 0.950 . S
C1723 C1740 1.574 . S
C1723 C1742 1.368 . S
C1723 H1747 0.949 . S
H1724 C1728 0.949 . S
C1725 C1726 1.349 . S
C1725 C1727 1.327 1_556 S
C1725 H1748 0.950 . S
C1726 C1725 1.349 . S
C1726 C1738 1.349 . S
C1727 C1725 1.327 1_554 S
C1727 C1743 1.429 . S
C1727 H1749 0.950 . S
C1728 H1724 0.949 . S
C1728 C1736 1.574 . S
C1728 C1744 1.368 . S
H1729 C1737 0.950 . S
H1730 C1735 0.950 . S
H1731 C1736 0.949 . S
H1732 C1738 0.950 . S
H1733 C1739 0.950 . S
H1734 C1740 0.949 . S
C1735 H1730 0.950 . S
C1735 C1737 1.327 . S
C1735 C1741 1.429 . S
C1736 C1728 1.574 . S
C1736 H1731 0.949 . S
C1736 C1742 1.368 . S
C1737 C1721 1.349 . S
C1737 H1729 0.950 . S
C1737 C1735 1.327 . S
C1738 C1726 1.349 . S
C1738 H1732 0.950 . S
C1738 C1739 1.327 1_556 S
C1739 H1733 0.950 . S
C1739 C1738 1.327 1_554 S
C1739 C1743 1.429 . S
C1740 C1723 1.574 . S
C1740 H1734 0.949 . S
C1740 C1744 1.368 . S
C1741 C1722 1.429 . S
C1741 C1735 1.429 . S
C1741 C1742 1.523 . S
C1742 C1723 1.368 . S
C1742 C1736 1.368 . S
C1742 C1741 1.523 . S
C1743 C1727 1.429 . S
C1743 C1739 1.429 . S
C1743 C1744 1.523 . S
C1744 C1728 1.368 . S
C1744 C1740 1.368 . S
C1744 C1743 1.523 . S
H1745 C1720 0.950 . S
H1746 C1722 0.950 . S
H1747 C1723 0.949 . S
H1748 C1725 0.950 . S
H1749 C1727 0.950 . S
C1750 C1751 1.349 . S
C1750 C1752 1.327 . S
C1750 H1775 0.950 . S
C1751 C1750 1.349 . S
C1751 C1767 1.349 . S
C1752 C1750 1.327 . S
C1752 C1771 1.429 . S
C1752 H1776 0.950 . S
C1753 C1770 1.574 . S
C1753 C1772 1.368 . S
C1753 H1777 0.949 . S
H1754 C1758 0.949 . S
C1755 C1756 1.349 . S
C1755 C1757 1.327 . S
C1755 H1778 0.950 . S
C1756 C1755 1.349 . S
C1756 C1768 1.349 . S
C1757 C1755 1.327 . S
C1757 C1773 1.429 . S
C1757 H1779 0.950 . S
C1758 H1754 0.949 . S
C1758 C1766 1.574 . S
C1758 C1774 1.368 . S
H1759 C1767 0.950 . S
H1760 C1765 0.950 . S
H1761 C1766 0.949 . S
H1762 C1768 0.950 . S
H1763 C1769 0.950 . S
H1764 C1770 0.949 . S
C1765 H1760 0.950 . S
C1765 C1767 1.327 . S
C1765 C1771 1.429 . S
C1766 C1758 1.574 . S
C1766 H1761 0.949 . S
C1766 C1772 1.368 . S
C1767 C1751 1.349 . S
C1767 H1759 0.950 . S
C1767 C1765 1.327 . S
C1768 C1756 1.349 . S
C1768 H1762 0.950 . S
C1768 C1769 1.327 . S
C1769 H1763 0.950 . S
C1769 C1768 1.327 . S
C1769 C1773 1.429 . S
C1770 C1753 1.574 . S
C1770 H1764 0.949 . S
C1770 C1774 1.368 . S
C1771 C1752 1.429 . S
C1771 C1765 1.429 . S
C1771 C1772 1.523 . S
C1772 C1753 1.368 . S
C1772 C1766 1.368 . S
C1772 C1771 1.523 . S
C1773 C1757 1.429 . S
C1773 C1769 1.429 . S
C1773 C1774 1.523 . S
C1774 C1758 1.368 . S
C1774 C1770 1.368 . S
C1774 C1773 1.523 . S
H1775 C1750 0.950 . S
H1776 C1752 0.950 . S
H1777 C1753 0.949 . S
H1778 C1755 0.950 . S
H1779 C1757 0.950 . S
C1780 C1781 1.349 . S
C1780 C1782 1.327 . S
C1780 H1805 0.950 . S
C1781 C1780 1.349 . S
C1781 C1797 1.349 . S
C1782 C1780 1.327 . S
C1782 C1801 1.429 . S
C1782 H1806 0.950 . S
C1783 C1800 1.574 . S
C1783 C1802 1.368 . S
C1783 H1807 0.949 . S
H1784 C1788 0.949 . S
C1785 C1786 1.349 . S
C1785 C1787 1.327 . S
C1785 H1808 0.950 . S
C1786 C1785 1.349 . S
C1786 C1798 1.349 . S
C1787 C1785 1.327 . S
C1787 C1803 1.429 . S
C1787 H1809 0.950 . S
C1788 H1784 0.949 . S
C1788 C1796 1.574 . S
C1788 C1804 1.368 . S
H1789 C1797 0.950 . S
H1790 C1795 0.950 . S
H1791 C1796 0.949 . S
H1792 C1798 0.950 . S
H1793 C1799 0.950 . S
H1794 C1800 0.949 . S
C1795 H1790 0.950 . S
C1795 C1797 1.327 . S
C1795 C1801 1.429 . S
C1796 C1788 1.574 . S
C1796 H1791 0.949 . S
C1796 C1802 1.368 . S
C1797 C1781 1.349 . S
C1797 H1789 0.950 . S
C1797 C1795 1.327 . S
C1798 C1786 1.349 . S
C1798 H1792 0.950 . S
C1798 C1799 1.327 . S
C1799 H1793 0.950 . S
C1799 C1798 1.327 . S
C1799 C1803 1.429 . S
C1800 C1783 1.574 . S
C1800 H1794 0.949 . S
C1800 C1804 1.368 . S
C1801 C1782 1.429 . S
C1801 C1795 1.429 . S
C1801 C1802 1.523 . S
C1802 C1783 1.368 . S
C1802 C1796 1.368 . S
C1802 C1801 1.523 . S
C1803 C1787 1.429 . S
C1803 C1799 1.429 . S
C1803 C1804 1.523 . S
C1804 C1788 1.368 . S
C1804 C1800 1.368 . S
C1804 C1803 1.523 . S
H1805 C1780 0.950 . S
H1806 C1782 0.950 . S
H1807 C1783 0.949 . S
H1808 C1785 0.950 . S
H1809 C1787 0.950 . S
C1810 C1811 1.349 . S
C1810 C1812 1.327 . S
C1810 H1835 0.950 . S
C1811 C1810 1.349 . S
C1811 C1827 1.349 . S
C1812 C1810 1.327 . S
C1812 C1831 1.429 . S
C1812 H1836 0.950 . S
C1813 C1830 1.574 . S
C1813 C1832 1.368 . S
C1813 H1837 0.949 . S
H1814 C1818 0.949 . S
C1815 C1816 1.349 . S
C1815 C1817 1.327 . S
C1815 H1838 0.950 . S
C1816 C1815 1.349 . S
C1816 C1828 1.349 . S
C1817 C1815 1.327 . S
C1817 C1833 1.429 . S
C1817 H1839 0.950 . S
C1818 H1814 0.949 . S
C1818 C1826 1.574 . S
C1818 C1834 1.368 . S
H1819 C1827 0.950 . S
H1820 C1825 0.950 . S
H1821 C1826 0.949 . S
H1822 C1828 0.950 . S
H1823 C1829 0.950 . S
H1824 C1830 0.949 . S
C1825 H1820 0.950 . S
C1825 C1827 1.327 . S
C1825 C1831 1.429 . S
C1826 C1818 1.574 . S
C1826 H1821 0.949 . S
C1826 C1832 1.368 . S
C1827 C1811 1.349 . S
C1827 H1819 0.950 . S
C1827 C1825 1.327 . S
C1828 C1816 1.349 . S
C1828 H1822 0.950 . S
C1828 C1829 1.327 . S
C1829 H1823 0.950 . S
C1829 C1828 1.327 . S
C1829 C1833 1.429 . S
C1830 C1813 1.574 . S
C1830 H1824 0.949 . S
C1830 C1834 1.368 . S
C1831 C1812 1.429 . S
C1831 C1825 1.429 . S
C1831 C1832 1.523 . S
C1832 C1813 1.368 . S
C1832 C1826 1.368 . S
C1832 C1831 1.523 . S
C1833 C1817 1.429 . S
C1833 C1829 1.429 . S
C1833 C1834 1.523 . S
C1834 C1818 1.368 . S
C1834 C1830 1.368 . S
C1834 C1833 1.523 . S
H1835 C1810 0.950 . S
H1836 C1812 0.950 . S
H1837 C1813 0.949 . S
H1838 C1815 0.950 . S
H1839 C1817 0.950 . S
C1840 C1841 1.349 . S
C1840 C1842 1.327 . S
C1840 H1865 0.950 . S
C1841 C1840 1.349 . S
C1841 C1857 1.349 . S
C1842 C1840 1.327 . S
C1842 C1861 1.429 . S
C1842 H1866 0.950 . S
C1843 C1860 1.574 . S
C1843 C1862 1.368 . S
C1843 H1867 0.949 . S
H1844 C1848 0.949 . S
C1845 C1846 1.349 . S
C1845 C1847 1.327 . S
C1845 H1868 0.950 . S
C1846 C1845 1.349 . S
C1846 C1858 1.349 . S
C1847 C1845 1.327 . S
C1847 C1863 1.429 . S
C1847 H1869 0.950 . S
C1848 H1844 0.949 . S
C1848 C1856 1.574 . S
C1848 C1864 1.368 . S
H1849 C1857 0.950 . S
H1850 C1855 0.950 . S
H1851 C1856 0.949 . S
H1852 C1858 0.950 . S
H1853 C1859 0.950 . S
H1854 C1860 0.949 . S
C1855 H1850 0.950 . S
C1855 C1857 1.327 . S
C1855 C1861 1.429 . S
C1856 C1848 1.574 . S
C1856 H1851 0.949 . S
C1856 C1862 1.368 . S
C1857 C1841 1.349 . S
C1857 H1849 0.950 . S
C1857 C1855 1.327 . S
C1858 C1846 1.349 . S
C1858 H1852 0.950 . S
C1858 C1859 1.327 . S
C1859 H1853 0.950 . S
C1859 C1858 1.327 . S
C1859 C1863 1.429 . S
C1860 C1843 1.574 . S
C1860 H1854 0.949 . S
C1860 C1864 1.368 . S
C1861 C1842 1.429 . S
C1861 C1855 1.429 . S
C1861 C1862 1.523 . S
C1862 C1843 1.368 . S
C1862 C1856 1.368 . S
C1862 C1861 1.523 . S
C1863 C1847 1.429 . S
C1863 C1859 1.429 . S
C1863 C1864 1.523 . S
C1864 C1848 1.368 . S
C1864 C1860 1.368 . S
C1864 C1863 1.523 . S
H1865 C1840 0.950 . S
H1866 C1842 0.950 . S
H1867 C1843 0.949 . S
H1868 C1845 0.950 . S
H1869 C1847 0.950 . S
C1870 C1871 1.349 . S
C1870 C1872 1.327 . S
C1870 H1895 0.950 . S
C1871 C1870 1.349 . S
C1871 C1887 1.349 . S
C1872 C1870 1.327 . S
C1872 C1891 1.429 . S
C1872 H1896 0.950 . S
C1873 C1890 1.574 . S
C1873 C1892 1.368 . S
C1873 H1897 0.949 . S
H1874 C1878 0.949 . S
C1875 C1876 1.349 1_565 S
C1875 C1877 1.327 . S
C1875 H1898 0.950 . S
C1876 C1875 1.349 1_545 S
C1876 C1888 1.349 . S
C1877 C1875 1.327 . S
C1877 C1893 1.429 . S
C1877 H1899 0.950 . S
C1878 H1874 0.949 . S
C1878 C1886 1.574 . S
C1878 C1894 1.368 . S
H1879 C1887 0.950 . S
H1880 C1885 0.950 . S
H1881 C1886 0.949 . S
H1882 C1888 0.950 . S
H1883 C1889 0.950 . S
H1884 C1890 0.949 . S
C1885 H1880 0.950 . S
C1885 C1887 1.327 . S
C1885 C1891 1.429 . S
C1886 C1878 1.574 . S
C1886 H1881 0.949 . S
C1886 C1892 1.368 . S
C1887 C1871 1.349 . S
C1887 H1879 0.950 . S
C1887 C1885 1.327 . S
C1888 C1876 1.349 . S
C1888 H1882 0.950 . S
C1888 C1889 1.327 . S
C1889 H1883 0.950 . S
C1889 C1888 1.327 . S
C1889 C1893 1.429 1_545 S
C1890 C1873 1.574 . S
C1890 H1884 0.949 . S
C1890 C1894 1.368 . S
C1891 C1872 1.429 . S
C1891 C1885 1.429 . S
C1891 C1892 1.523 . S
C1892 C1873 1.368 . S
C1892 C1886 1.368 . S
C1892 C1891 1.523 . S
C1893 C1877 1.429 . S
C1893 C1889 1.429 1_565 S
C1893 C1894 1.523 . S
C1894 C1878 1.368 . S
C1894 C1890 1.368 . S
C1894 C1893 1.523 . S
H1895 C1870 0.950 . S
H1896 C1872 0.950 . S
H1897 C1873 0.949 . S
H1898 C1875 0.950 . S
H1899 C1877 0.950 . S
C1900 C1901 1.349 . S
C1900 C1902 1.327 . S
C1900 H1925 0.950 . S
C1901 C1900 1.349 . S
C1901 C1917 1.349 . S
C1902 C1900 1.327 . S
C1902 C1921 1.429 . S
C1902 H1926 0.950 . S
C1903 C1920 1.574 . S
C1903 C1922 1.368 . S
C1903 H1927 0.949 . S
H1904 C1908 0.949 . S
C1905 C1906 1.349 . S
C1905 C1907 1.327 1_554 S
C1905 H1928 0.950 . S
C1906 C1905 1.349 . S
C1906 C1918 1.349 . S
C1907 C1905 1.327 1_556 S
C1907 C1923 1.429 . S
C1907 H1929 0.950 . S
C1908 H1904 0.949 . S
C1908 C1916 1.574 . S
C1908 C1924 1.368 . S
H1909 C1917 0.950 . S
H1910 C1915 0.950 . S
H1911 C1916 0.949 . S
H1912 C1918 0.950 . S
H1913 C1919 0.950 . S
H1914 C1920 0.949 . S
C1915 H1910 0.950 . S
C1915 C1917 1.327 . S
C1915 C1921 1.429 . S
C1916 C1908 1.574 . S
C1916 H1911 0.949 . S
C1916 C1922 1.368 . S
C1917 C1901 1.349 . S
C1917 H1909 0.950 . S
C1917 C1915 1.327 . S
C1918 C1906 1.349 . S
C1918 H1912 0.950 . S
C1918 C1919 1.327 1_554 S
C1919 H1913 0.950 . S
C1919 C1918 1.327 1_556 S
C1919 C1923 1.429 . S
C1920 C1903 1.574 . S
C1920 H1914 0.949 . S
C1920 C1924 1.368 . S
C1921 C1902 1.429 . S
C1921 C1915 1.429 . S
C1921 C1922 1.523 . S
C1922 C1903 1.368 . S
C1922 C1916 1.368 . S
C1922 C1921 1.523 . S
C1923 C1907 1.429 . S
C1923 C1919 1.429 . S
C1923 C1924 1.523 . S
C1924 C1908 1.368 . S
C1924 C1920 1.368 . S
C1924 C1923 1.523 . S
H1925 C1900 0.950 . S
H1926 C1902 0.950 . S
H1927 C1903 0.949 . S
H1928 C1905 0.950 . S
H1929 C1907 0.950 . S
C1930 C1931 1.349 . S
C1930 C1932 1.327 1_565 S
C1930 H1955 0.950 . S
C1931 C1930 1.349 . S
C1931 C1947 1.363 . S
C1932 C1930 1.327 1_545 S
C1932 C1951 1.429 . S
C1932 H1956 0.950 . S
C1933 C1950 1.574 . S
C1933 C1952 1.368 . S
C1933 H1957 0.949 . S
H1934 C1938 0.949 . S
C1935 C1936 1.349 . S
C1935 C1937 1.327 . S
C1935 H1958 0.950 . S
C1936 C1935 1.349 . S
C1936 C1948 1.349 . S
C1937 C1935 1.327 . S
C1937 C1953 1.429 . S
C1937 H1959 0.950 . S
C1938 H1934 0.949 . S
C1938 C1946 1.574 . S
C1938 C1954 1.368 . S
H1939 C1947 0.954 . S
H1940 C1945 0.950 . S
H1941 C1946 0.949 . S
H1942 C1948 0.950 . S
H1943 C1949 0.950 . S
H1944 C1950 0.949 . S
C1945 H1940 0.950 . S
C1945 C1947 1.309 1_545 S
C1945 C1951 1.429 . S
C1946 C1938 1.574 . S
C1946 H1941 0.949 . S
C1946 C1952 1.368 . S
C1947 C1931 1.363 . S
C1947 H1939 0.954 . S
C1947 C1945 1.309 1_565 S
C1948 C1936 1.349 . S
C1948 H1942 0.950 . S
C1948 C1949 1.327 . S
C1949 H1943 0.950 . S
C1949 C1948 1.327 . S
C1949 C1953 1.429 . S
C1950 C1933 1.574 . S
C1950 H1944 0.949 . S
C1950 C1954 1.368 . S
C1951 C1932 1.429 . S
C1951 C1945 1.429 . S
C1951 C1952 1.523 . S
C1952 C1933 1.368 . S
C1952 C1946 1.368 . S
C1952 C1951 1.523 . S
C1953 C1937 1.429 . S
C1953 C1949 1.429 . S
C1953 C1954 1.523 . S
C1954 C1938 1.368 . S
C1954 C1950 1.368 . S
C1954 C1953 1.523 . S
H1955 C1930 0.950 . S
H1956 C1932 0.950 . S
H1957 C1933 0.949 . S
H1958 C1935 0.950 . S
H1959 C1937 0.950 . S
C1960 C1961 1.349 . S
C1960 C1962 1.327 . S
C1960 H1985 0.950 . S
C1961 C1960 1.349 . S
C1961 C1977 1.349 . S
C1962 C1960 1.327 . S
C1962 C1981 1.429 . S
C1962 H1986 0.950 . S
C1963 C1980 1.574 . S
C1963 C1982 1.368 . S
C1963 H1987 0.949 . S
H1964 C1968 0.949 . S
C1965 C1966 1.349 . S
C1965 C1967 1.327 . S
C1965 H1988 0.950 . S
C1966 C1965 1.349 . S
C1966 C1978 1.349 . S
C1967 C1965 1.327 . S
C1967 C1983 1.429 . S
C1967 H1989 0.950 . S
C1968 H1964 0.949 . S
C1968 C1976 1.574 . S
C1968 C1984 1.368 . S
H1969 C1977 0.950 . S
H1970 C1975 0.950 . S
H1971 C1976 0.949 . S
H1972 C1978 0.950 . S
H1973 C1979 0.950 . S
H1974 C1980 0.949 . S
C1975 H1970 0.950 . S
C1975 C1977 1.327 . S
C1975 C1981 1.429 . S
C1976 C1968 1.574 . S
C1976 H1971 0.949 . S
C1976 C1982 1.368 . S
C1977 C1961 1.349 . S
C1977 H1969 0.950 . S
C1977 C1975 1.327 . S
C1978 C1966 1.349 . S
C1978 H1972 0.950 . S
C1978 C1979 1.327 . S
C1979 H1973 0.950 . S
C1979 C1978 1.327 . S
C1979 C1983 1.429 . S
C1980 C1963 1.574 . S
C1980 H1974 0.949 . S
C1980 C1984 1.368 . S
C1981 C1962 1.429 . S
C1981 C1975 1.429 . S
C1981 C1982 1.523 . S
C1982 C1963 1.368 . S
C1982 C1976 1.368 . S
C1982 C1981 1.523 . S
C1983 C1967 1.429 . S
C1983 C1979 1.429 . S
C1983 C1984 1.523 . S
C1984 C1968 1.368 . S
C1984 C1980 1.368 . S
C1984 C1983 1.523 . S
H1985 C1960 0.950 . S
H1986 C1962 0.950 . S
H1987 C1963 0.949 . S
H1988 C1965 0.950 . S
H1989 C1967 0.950 . S
C1990 C1991 1.349 . S
C1990 C1992 1.327 . S
C1990 H2015 0.950 . S
C1991 C1990 1.349 . S
C1991 C2007 1.349 . S
C1992 C1990 1.327 . S
C1992 C2011 1.429 . S
C1992 H2016 0.950 . S
C1993 C2010 1.574 . S
C1993 C2012 1.368 . S
C1993 H2017 0.949 . S
H1994 C1998 0.949 . S
C1995 C1996 1.349 1_545 S
C1995 C1997 1.327 . S
C1995 H2018 0.950 . S
C1996 C1995 1.349 1_565 S
C1996 C2008 1.349 . S
C1997 C1995 1.327 . S
C1997 C2013 1.429 . S
C1997 H2019 0.950 . S
C1998 H1994 0.949 . S
C1998 C2006 1.574 . S
C1998 C2014 1.368 . S
H1999 C2007 0.950 . S
H2000 C2005 0.950 . S
H2001 C2006 0.949 . S
H2002 C2008 0.950 . S
H2003 C2009 0.950 . S
H2004 C2010 0.949 . S
C2005 H2000 0.950 . S
C2005 C2007 1.327 . S
C2005 C2011 1.429 . S
C2006 C1998 1.574 . S
C2006 H2001 0.949 . S
C2006 C2012 1.368 . S
C2007 C1991 1.349 . S
C2007 H1999 0.950 . S
C2007 C2005 1.327 . S
C2008 C1996 1.349 . S
C2008 H2002 0.950 . S
C2008 C2009 1.327 . S
C2009 H2003 0.950 . S
C2009 C2008 1.327 . S
C2009 C2013 1.429 1_565 S
C2010 C1993 1.574 . S
C2010 H2004 0.949 . S
C2010 C2014 1.368 . S
C2011 C1992 1.429 . S
C2011 C2005 1.429 . S
C2011 C2012 1.523 . S
C2012 C1993 1.368 . S
C2012 C2006 1.368 . S
C2012 C2011 1.523 . S
C2013 C1997 1.429 . S
C2013 C2009 1.429 1_545 S
C2013 C2014 1.523 . S
C2014 C1998 1.368 . S
C2014 C2010 1.368 . S
C2014 C2013 1.523 . S
H2015 C1990 0.950 . S
H2016 C1992 0.950 . S
H2017 C1993 0.949 . S
H2018 C1995 0.950 . S
H2019 C1997 0.950 . S
C2020 C2021 1.349 . S
C2020 C2022 1.327 . S
C2020 H2045 0.950 . S
C2021 C2020 1.349 . S
C2021 C2037 1.349 . S
C2022 C2020 1.327 . S
C2022 C2041 1.429 . S
C2022 H2046 0.950 . S
C2023 C2040 1.574 . S
C2023 C2042 1.368 . S
C2023 H2047 0.949 . S
H2024 C2028 0.949 . S
C2025 C2026 1.349 1_554 S
C2025 C2027 1.327 . S
C2025 H2048 0.953 . S
C2026 C2025 1.349 1_556 S
C2026 C2038 1.349 . S
C2027 C2025 1.327 . S
C2027 C2043 1.429 . S
C2027 H2049 0.950 . S
C2028 H2024 0.949 . S
C2028 C2036 1.574 . S
C2028 C2044 1.368 . S
H2029 C2037 0.950 . S
H2030 C2035 0.950 . S
H2031 C2036 0.949 . S
H2032 C2038 0.950 . S
H2033 C2039 0.949 . S
H2034 C2040 0.949 . S
C2035 H2030 0.950 . S
C2035 C2037 1.327 . S
C2035 C2041 1.429 . S
C2036 C2028 1.574 . S
C2036 H2031 0.949 . S
C2036 C2042 1.368 . S
C2037 C2021 1.349 . S
C2037 H2029 0.950 . S
C2037 C2035 1.327 . S
C2038 C2026 1.349 . S
C2038 H2032 0.950 . S
C2038 C2039 1.297 1_556 S
C2039 H2033 0.949 . S
C2039 C2038 1.297 1_554 S
C2039 C2043 1.461 . S
C2040 C2023 1.574 . S
C2040 H2034 0.949 . S
C2040 C2044 1.368 . S
C2041 C2022 1.429 . S
C2041 C2035 1.429 . S
C2041 C2042 1.523 . S
C2042 C2023 1.368 . S
C2042 C2036 1.368 . S
C2042 C2041 1.523 . S
C2043 C2027 1.429 . S
C2043 C2039 1.461 . S
C2043 C2044 1.523 . S
C2044 C2028 1.368 . S
C2044 C2040 1.368 . S
C2044 C2043 1.523 . S
H2045 C2020 0.950 . S
H2046 C2022 0.950 . S
H2047 C2023 0.949 . S
H2048 C2025 0.953 . S
H2049 C2027 0.950 . S
C2050 C2051 1.349 . S
C2050 C2052 1.327 . S
C2050 H2075 0.950 . S
C2051 C2050 1.349 . S
C2051 C2067 1.349 . S
C2052 C2050 1.327 . S
C2052 C2071 1.429 . S
C2052 H2076 0.950 . S
C2053 C2070 1.574 . S
C2053 C2072 1.368 . S
C2053 H2077 0.949 . S
H2054 C2058 0.949 . S
C2055 C2056 1.349 . S
C2055 C2057 1.327 . S
C2055 H2078 0.950 . S
C2056 C2055 1.349 . S
C2056 C2068 1.349 1_545 S
C2057 C2055 1.327 . S
C2057 C2073 1.429 1_545 S
C2057 H2079 0.950 . S
C2058 H2054 0.949 . S
C2058 C2066 1.574 . S
C2058 C2074 1.368 . S
H2059 C2067 0.950 . S
H2060 C2065 0.950 . S
H2061 C2066 0.949 . S
H2062 C2068 0.950 . S
H2063 C2069 0.950 . S
H2064 C2070 0.949 . S
C2065 H2060 0.950 . S
C2065 C2067 1.327 . S
C2065 C2071 1.429 . S
C2066 C2058 1.574 . S
C2066 H2061 0.949 . S
C2066 C2072 1.368 . S
C2067 C2051 1.349 . S
C2067 H2059 0.950 . S
C2067 C2065 1.327 . S
C2068 C2056 1.349 1_565 S
C2068 H2062 0.950 . S
C2068 C2069 1.327 . S
C2069 H2063 0.950 . S
C2069 C2068 1.327 . S
C2069 C2073 1.429 . S
C2070 C2053 1.574 . S
C2070 H2064 0.949 . S
C2070 C2074 1.368 . S
C2071 C2052 1.429 . S
C2071 C2065 1.429 . S
C2071 C2072 1.523 . S
C2072 C2053 1.368 . S
C2072 C2066 1.368 . S
C2072 C2071 1.523 . S
C2073 C2057 1.429 1_565 S
C2073 C2069 1.429 . S
C2073 C2074 1.523 . S
C2074 C2058 1.368 . S
C2074 C2070 1.368 . S
C2074 C2073 1.523 . S
H2075 C2050 0.950 . S
H2076 C2052 0.950 . S
H2077 C2053 0.949 . S
H2078 C2055 0.950 . S
H2079 C2057 0.950 . S
C641 C2 2.426 . S
C646 C402 2.426 . S
C671 C42 2.426 . S
C676 C442 2.426 . S
C701 C82 2.426 . S
C706 C322 2.426 . S
C731 C362 2.426 . S
C736 C122 2.426 . S
C761 C183 2.426 . S
C766 C583 2.426 . S
C791 C623 2.426 . S
C796 C223 2.426 . S
C821 C503 2.426 . S
C826 C263 2.426 . S
C851 C303 2.426 . S
C856 C543 2.426 . S
C881 C17 0.599 . S
C886 C186 0.599 . S
C911 C57 0.599 . S
C916 C546 0.599 . S
C941 C97 0.599 . S
C946 C266 0.599 . S
C971 C137 0.599 . S
C976 C626 0.599 . S
C1001 C226 0.599 . S
C1006 C377 0.599 . S
C1031 C457 0.599 . S
C1036 C306 0.599 . S
C1061 C506 0.599 . S
C1066 C337 0.599 . S
C1091 C417 0.599 . S
C1096 C586 0.599 . S
C1121 C26 0.753 . S
C1126 C282 0.753 . S
C1151 C66 0.753 . S
C1156 C482 0.753 . S
C1181 C106 0.753 . S
C1186 C202 0.753 . S
C1211 C146 0.753 . S
C1216 C562 0.753 . S
C1241 C143 0.753 . S
C1246 C177 0.753 . S
C1271 C217 0.753 . S
C1276 C343 0.753 . S
C1301 C257 0.753 . S
C1306 C63 0.753 . S
C1331 C423 0.753 . S
C1336 C297 0.753 . S
C1361 C346 0.753 . S
C1366 C602 0.751 1_565 S
C1391 C162 0.753 . S
C1396 C386 0.753 . S
C1421 C522 0.751 1_545 S
C1426 C426 0.753 . S
C1451 C242 0.753 . S
C1456 C466 0.753 . S
C1481 C497 0.753 . S
C1486 C463 0.751 1_545 S
C1511 C537 0.753 . S
C1516 C23 0.753 . S
C1541 C383 0.751 1_565 S
C1546 C577 0.753 . S
C1571 C617 0.753 . S
C1576 C103 0.753 . S
C1601 C24 4.024 . S
C1606 C373 4.060 . S
C1631 C413 4.060 . S
C1636 C64 4.024 . S
C1661 C104 4.024 . S
C1666 C453 4.060 . S
C1691 C333 4.060 . S
C1696 C144 4.024 . S
C1721 C544 4.060 . S
C1726 C173 4.024 . S
C1751 C584 4.060 . S
C1756 C213 4.024 . S
C1781 C624 4.060 . S
C1786 C253 4.024 . S
C1811 C504 4.060 . S
C1816 C293 4.024 . S
C1841 C53 4.060 . S
C1846 C344 4.024 . S
C1871 C93 4.060 . S
C1876 C384 4.024 . S
C1901 C133 4.060 . S
C1906 C424 4.024 . S
C1931 C464 4.024 . S
C1936 C13 4.060 . S
C1961 C224 4.060 . S
C1966 C493 4.024 . S
C1991 C264 4.060 . S
C1996 C533 4.024 . S
C2021 C304 4.060 . S
C2026 C573 4.024 . S
C2051 C184 4.060 . S
C2056 C613 4.024 . S
