# Generated by pormake.
# Topology umb, (4)-cn, num edge types: 1
# Building blocks:
#     Node 0, Type 0, BuildingBlock: CEKHIL_clean_sbu_0, # of connection points: 4
#     Node 1, Type 0, BuildingBlock: CEKHIL_clean_sbu_0, # of connection points: 4
#     Node 2, Type 0, BuildingBlock: CEKHIL_clean_sbu_0, # of connection points: 4
#     Node 3, Type 0, BuildingBlock: CEKHIL_clean_sbu_0, # of connection points: 4
#     Node 4, Type 0, BuildingBlock: CEKHIL_clean_sbu_0, # of connection points: 4
#     Node 5, Type 0, BuildingBlock: CEKHIL_clean_sbu_0, # of connection points: 4
#     Node 6, Type 0, BuildingBlock: CEKHIL_clean_sbu_0, # of connection points: 4
#     Node 7, Type 0, BuildingBlock: CEKHIL_clean_sbu_0, # of connection points: 4
#     Node 8, Type 0, BuildingBlock: CEKHIL_clean_sbu_0, # of connection points: 4
#     Node 9, Type 0, BuildingBlock: CEKHIL_clean_sbu_0, # of connection points: 4
#     Node 10, Type 0, BuildingBlock: CEKHIL_clean_sbu_0, # of connection points: 4
#     Node 11, Type 0, BuildingBlock: CEKHIL_clean_sbu_0, # of connection points: 4
#     Edge 12, Type (0, 0), BuildingBlock: EYOCIG_clean_linker_4, # of connection points: 2
#     Edge 13, Type (0, 0), BuildingBlock: EYOCIG_clean_linker_4, # of connection points: 2
#     Edge 14, Type (0, 0), BuildingBlock: EYOCIG_clean_linker_4, # of connection points: 2
#     Edge 15, Type (0, 0), BuildingBlock: EYOCIG_clean_linker_4, # of connection points: 2
#     Edge 16, Type (0, 0), BuildingBlock: EYOCIG_clean_linker_4, # of connection points: 2
#     Edge 17, Type (0, 0), BuildingBlock: EYOCIG_clean_linker_4, # of connection points: 2
#     Edge 18, Type (0, 0), BuildingBlock: EYOCIG_clean_linker_4, # of connection points: 2
#     Edge 19, Type (0, 0), BuildingBlock: EYOCIG_clean_linker_4, # of connection points: 2
#     Edge 20, Type (0, 0), BuildingBlock: EYOCIG_clean_linker_4, # of connection points: 2
#     Edge 21, Type (0, 0), BuildingBlock: EYOCIG_clean_linker_4, # of connection points: 2
#     Edge 22, Type (0, 0), BuildingBlock: EYOCIG_clean_linker_4, # of connection points: 2
#     Edge 23, Type (0, 0), BuildingBlock: EYOCIG_clean_linker_4, # of connection points: 2
#     Edge 24, Type (0, 0), BuildingBlock: EYOCIG_clean_linker_4, # of connection points: 2
#     Edge 25, Type (0, 0), BuildingBlock: EYOCIG_clean_linker_4, # of connection points: 2
#     Edge 26, Type (0, 0), BuildingBlock: EYOCIG_clean_linker_4, # of connection points: 2
#     Edge 27, Type (0, 0), BuildingBlock: EYOCIG_clean_linker_4, # of connection points: 2
#     Edge 28, Type (0, 0), BuildingBlock: EYOCIG_clean_linker_4, # of connection points: 2
#     Edge 29, Type (0, 0), BuildingBlock: EYOCIG_clean_linker_4, # of connection points: 2
#     Edge 30, Type (0, 0), BuildingBlock: EYOCIG_clean_linker_4, # of connection points: 2
#     Edge 31, Type (0, 0), BuildingBlock: EYOCIG_clean_linker_4, # of connection points: 2
#     Edge 32, Type (0, 0), BuildingBlock: EYOCIG_clean_linker_4, # of connection points: 2
#     Edge 33, Type (0, 0), BuildingBlock: EYOCIG_clean_linker_4, # of connection points: 2
#     Edge 34, Type (0, 0), BuildingBlock: EYOCIG_clean_linker_4, # of connection points: 2
#     Edge 35, Type (0, 0), BuildingBlock: EYOCIG_clean_linker_4, # of connection points: 2
# Relax obj value: 0.275
# Max RMSD: 0.250
# Mean RMSD: 0.250
data_MOF--net-umb--node1-CEKHIL_clean_sbu_0--edge1-EYOCIG_clean_linker_4
_symmetry_space_group_name_H-M    P1
_symmetry_Int_Tables_number       1
_symmetry_cell_setting            triclinic
loop_
_symmetry_equiv_pos_as_xyz
'x, y, z'
_cell_length_a     38.24053
_cell_length_b     38.229193
_cell_length_c     27.589394
_cell_angle_alpha  90.010018
_cell_angle_beta   89.990426
_cell_angle_gamma 119.95213
loop_
_atom_site_label
_atom_site_type_symbol
_atom_site_fract_x
_atom_site_fract_y
_atom_site_fract_z
_atom_type_partial_charge
Co0 Co 0.50307 0.14024 0.33391 0.0
O1 O 0.46201 0.08445 0.3273 0.0
O2 O 0.5282 0.1083 0.32214 0.0
C3 C 0.47553 0.16755 0.2852 0.0
O4 O 0.55398 0.19468 0.33845 0.0
Co5 Co 0.48215 0.1999 0.38462 0.0
O6 O 0.53923 0.23982 0.37123 0.0
C7 C 0.50803 0.15259 0.44374 0.0
C8 C 0.49177 0.07764 0.3214 0.0
C9 C 0.564 0.23008 0.35395 0.0
O10 O 0.50783 0.1333 0.40562 0.0
O11 O 0.49771 0.17969 0.44383 0.0
O12 O 0.49549 0.15145 0.26715 0.0
O13 O 0.46795 0.16196 0.33128 0.0
Co14 Co 0.34668 0.51045 0.66734 0.0
O15 O 0.36145 0.4694 0.66039 0.0
O16 O 0.40372 0.53561 0.65555 0.0
C17 C 0.29187 0.48308 0.61866 0.0
O18 O 0.34307 0.56135 0.6723 0.0
Co19 Co 0.26617 0.48931 0.71826 0.0
O20 O 0.2832 0.54643 0.70517 0.0
C21 C 0.33934 0.51502 0.77723 0.0
C22 C 0.39798 0.49917 0.6546 0.0
C23 C 0.31767 0.5713 0.68794 0.0
O24 O 0.35839 0.51495 0.73903 0.0
O25 O 0.30195 0.50469 0.77743 0.0
O26 O 0.32788 0.50311 0.60061 0.0
O27 O 0.28991 0.47533 0.66469 0.0
Co28 Co 0.82016 0.35413 1.00066 0.0
O29 O 0.87613 0.3694 0.99406 0.0
O30 O 0.85161 0.41122 0.98888 0.0
C31 C 0.79329 0.29926 0.95202 0.0
O32 O 0.76543 0.35002 1.0052 0.0
Co33 Co 0.76114 0.27347 0.0515 0.0
O34 O 0.7207 0.28991 0.0377 0.0
C35 C 0.80806 0.34671 0.11056 0.0
C36 C 0.88254 0.40583 0.98819 0.0
C37 C 0.73008 0.32434 1.02046 0.0
O38 O 0.82703 0.36589 0.07236 0.0
O39 O 0.7813 0.30922 0.11074 0.0
O40 O 0.80909 0.33526 0.93393 0.0
O41 O 0.79898 0.2974 0.99811 0.0
Co42 Co 0.45025 0.8279 0.33441 0.0
O43 O 0.4911 0.88371 0.32726 0.0
O44 O 0.42484 0.85958 0.32268 0.0
C45 C 0.47764 0.80047 0.28566 0.0
O46 O 0.39952 0.77337 0.33957 0.0
Co47 Co 0.47182 0.7688 0.3853 0.0
O48 O 0.41473 0.72861 0.37247 0.0
C49 C 0.44598 0.8162 0.44431 0.0
C50 C 0.46121 0.89034 0.32157 0.0
C51 C 0.38974 0.7381 0.35529 0.0
O52 O 0.4459 0.83523 0.4061 0.0
O53 O 0.45645 0.78922 0.4445 0.0
O54 O 0.45748 0.81635 0.26766 0.0
O55 O 0.48552 0.80637 0.33165 0.0
Co56 Co 0.60626 0.45768 0.66749 0.0
O57 O 0.59104 0.49838 0.66028 0.0
O58 O 0.5492 0.43207 0.65566 0.0
C59 C 0.66111 0.48527 0.61884 0.0
O60 O 0.61039 0.40709 0.67273 0.0
Co61 Co 0.68691 0.47965 0.71862 0.0
O62 O 0.67041 0.42264 0.70567 0.0
C63 C 0.61356 0.45345 0.77743 0.0
C64 C 0.55461 0.46839 0.65456 0.0
C65 C 0.63603 0.39751 0.68847 0.0
O66 O 0.59447 0.45327 0.73915 0.0
O67 O 0.65103 0.46409 0.77773 0.0
O68 O 0.62512 0.46497 0.60078 0.0
O69 O 0.66297 0.49315 0.66483 0.0
Co70 Co 0.13233 0.6141 1.00029 0.0
O71 O 0.07648 0.59945 0.99426 0.0
O72 O 0.1003 0.55708 0.98843 0.0
C73 C 0.15946 0.66903 0.95175 0.0
O74 O 0.18679 0.61756 1.00415 0.0
Co75 Co 0.19228 0.69452 0.05099 0.0
O76 O 0.23218 0.67752 0.03638 0.0
C77 C 0.1451 0.62136 0.11009 0.0
C78 C 0.06963 0.56288 0.98814 0.0
C79 C 0.22234 0.643 1.01906 0.0
O80 O 0.12579 0.60231 0.07199 0.0
O81 O 0.17214 0.65876 0.1102 0.0
O82 O 0.14319 0.63303 0.93356 0.0
O83 O 0.15408 0.67091 0.99791 0.0
Co84 Co 0.82032 0.45749 0.41395 0.0
O85 O 0.87613 0.49858 0.42028 0.0
O86 O 0.85227 0.4324 0.42585 0.0
C87 C 0.79306 0.48522 0.46245 0.0
O88 O 0.76589 0.40655 0.40973 0.0
Co89 Co 0.76059 0.47818 0.36304 0.0
O90 O 0.72069 0.42118 0.37696 0.0
C91 C 0.8079 0.45221 0.3041 0.0
C92 C 0.88294 0.46883 0.42632 0.0
C93 C 0.73046 0.39647 0.39438 0.0
O94 O 0.82713 0.45242 0.34227 0.0
O95 O 0.78085 0.46257 0.3039 0.0
O96 O 0.80923 0.46538 0.48065 0.0
O97 O 0.79859 0.4926 0.41633 0.0
Co98 Co 0.347 0.82814 0.74752 0.0
O99 O 0.3618 0.88401 0.75388 0.0
O100 O 0.40398 0.85997 0.75966 0.0
C101 C 0.29191 0.80096 0.79578 0.0
O102 O 0.34336 0.7736 0.74333 0.0
Co103 Co 0.26675 0.76864 0.69625 0.0
O104 O 0.28354 0.72853 0.71054 0.0
C105 C 0.34014 0.81594 0.63762 0.0
C106 C 0.39829 0.89072 0.76006 0.0
C107 C 0.31794 0.73816 0.72806 0.0
O108 O 0.35907 0.835 0.6759 0.0
O109 O 0.30273 0.789 0.63723 0.0
O110 O 0.32783 0.81703 0.81414 0.0
O111 O 0.29022 0.80656 0.74965 0.0
Co112 Co 0.50274 0.35416 0.08023 0.0
O113 O 0.46178 0.36904 0.08714 0.0
O114 O 0.52798 0.41118 0.09235 0.0
C115 C 0.47513 0.29915 0.1286 0.0
O116 O 0.55352 0.35034 0.0754 0.0
Co117 Co 0.48145 0.27378 1.02881 0.0
O118 O 0.53834 0.29035 0.04257 0.0
C119 C 0.50758 0.34726 0.97028 0.0
C120 C 0.49158 0.40553 0.09318 0.0
C121 C 0.56329 0.32475 0.05991 0.0
O122 O 0.50751 0.36619 1.00861 0.0
O123 O 0.49709 0.30982 0.96984 0.0
O124 O 0.49514 0.3351 0.14685 0.0
O125 O 0.46749 0.29739 0.08254 0.0
Co126 Co 0.13283 0.51066 0.41356 0.0
O127 O 0.07699 0.4696 0.41971 0.0
O128 O 0.10091 0.53578 0.4255 0.0
C129 C 0.15994 0.4828 0.46202 0.0
O130 O 0.18732 0.56155 0.40959 0.0
Co131 Co 0.1926 0.49 0.36268 0.0
O132 O 0.23262 0.54681 0.37732 0.0
C133 C 0.14537 0.51602 0.3037 0.0
C134 C 0.07022 0.49936 0.42587 0.0
C135 C 0.22285 0.57155 0.39467 0.0
O136 O 0.12618 0.51589 0.34187 0.0
O137 O 0.17237 0.50557 0.30351 0.0
O138 O 0.14375 0.50261 0.48025 0.0
O139 O 0.1545 0.4755 0.41587 0.0
Co140 Co 0.60656 0.14044 0.74719 0.0
O141 O 0.59155 0.0845 0.75346 0.0
O142 O 0.54955 0.10877 0.75921 0.0
C143 C 0.66155 0.16739 0.79559 0.0
O144 O 0.61045 0.19509 0.7431 0.0
Co145 Co 0.68698 0.19981 0.69614 0.0
O146 O 0.6705 0.24011 0.71077 0.0
C147 C 0.61366 0.1528 0.6373 0.0
C148 C 0.5551 0.07793 0.75963 0.0
C149 C 0.63607 0.23056 0.72813 0.0
O150 O 0.59461 0.13372 0.67552 0.0
O151 O 0.65111 0.17965 0.63703 0.0
O152 O 0.62561 0.15139 0.81385 0.0
O153 O 0.66332 0.16183 0.74944 0.0
Co154 Co 0.44936 0.61336 0.08044 0.0
O155 O 0.4902 0.59834 0.08764 0.0
O156 O 0.42395 0.5563 0.09233 0.0
C157 C 0.47686 0.66824 0.12905 0.0
O158 O 0.39865 0.61726 0.0752 0.0
Co159 Co 0.47103 0.69394 1.02931 0.0
O160 O 0.41394 0.67716 0.04204 0.0
C161 C 0.44505 0.6206 0.97052 0.0
C162 C 0.46032 0.56187 0.09341 0.0
C163 C 0.38892 0.64276 0.05931 0.0
O164 O 0.44496 0.60154 1.00878 0.0
O165 O 0.45556 0.65805 0.97022 0.0
O166 O 0.45664 0.63225 0.14713 0.0
O167 O 0.4847 0.67011 0.08305 0.0
C168 C 0.54455 0.14421 0.52095 0.0
C169 C 0.52779 0.14845 0.48611 0.0
C170 C 0.56864 0.14428 0.56017 0.0
C171 C 0.58973 0.14861 0.59494 0.0
C172 C 0.3844 0.55141 0.85434 0.0
C173 C 0.36327 0.5347 0.81959 0.0
C174 C 0.40854 0.57551 0.89346 0.0
C175 C 0.42531 0.59664 0.92819 0.0
C176 C 0.81644 0.41566 0.227 0.0
C177 C 0.81212 0.43243 0.26178 0.0
C178 C 0.81646 0.39159 0.1878 0.0
C179 C 0.81217 0.37053 0.153 0.0
C180 C 0.40953 0.82473 0.5215 0.0
C181 C 0.42627 0.8204 0.4867 0.0
C182 C 0.38538 0.82465 0.56064 0.0
C183 C 0.36419 0.82024 0.59535 0.0
C184 C 0.54425 0.3926 0.89344 0.0
C185 C 0.52741 0.37135 0.92807 0.0
C186 C 0.56845 0.41684 0.85444 0.0
C187 C 0.58962 0.43366 0.81976 0.0
C188 C 0.13682 0.55246 0.22652 0.0
C189 C 0.14115 0.53573 0.26133 0.0
C190 C 0.13676 0.57646 0.18728 0.0
C191 C 0.14099 0.59747 0.15245 0.0
C192 C 0.67403 0.32167 0.38115 0.0
C193 C 0.70184 0.35472 0.3892 0.0
C194 C 0.63876 0.28642 0.36767 0.0
C195 C 0.60573 0.25866 0.35942 0.0
C196 C 0.336 0.68141 0.71522 0.0
C197 C 0.3309 0.70935 0.72309 0.0
C198 C 0.33592 0.64605 0.70186 0.0
C199 C 0.33068 0.61301 0.69356 0.0
C200 C 0.6379 0.34235 0.04671 0.0
C201 C 0.60495 0.33743 0.0547 0.0
C202 C 0.67316 0.34216 0.03357 0.0
C203 C 0.70109 0.33703 1.02571 0.0
C204 C 0.31505 0.68158 0.36919 0.0
C205 C 0.34808 0.70934 0.36095 0.0
C206 C 0.27964 0.64633 0.38233 0.0
C207 C 0.25166 0.61329 0.38995 0.0
C208 C 0.61834 0.32292 0.70243 0.0
C209 C 0.6234 0.35589 0.69417 0.0
C210 C 0.61831 0.28756 0.71563 0.0
C211 C 0.62332 0.25953 0.72329 0.0
C212 C 0.27899 0.62477 1.03169 0.0
C213 C 0.25106 0.62993 1.02393 0.0
C214 C 0.3143 0.62478 0.04508 0.0
C215 C 0.34727 0.62993 0.05352 0.0
C216 C 0.47937 0.00365 0.31408 0.0
C217 C 0.48481 0.03737 0.31744 0.0
C218 C 0.47332 0.96421 0.3141 0.0
C219 C 0.46797 0.93053 0.31753 0.0
C220 C 0.45949 0.48663 0.64716 0.0
C221 C 0.43128 0.49218 0.65057 0.0
C222 C 0.49279 0.48042 0.64714 0.0
C223 C 0.5211 0.47503 0.65053 0.0
C224 C 0.95627 0.46784 0.98111 0.0
C225 C 0.92265 0.4394 0.98436 0.0
C226 C -0.00436 0.50131 0.98113 0.0
C227 C 0.02934 0.52961 0.98435 0.0
C228 C -0.00371 0.4871 0.43315 0.0
C229 C 0.02997 0.49245 0.42981 0.0
C230 C 0.95689 0.48113 0.43327 0.0
C231 C 0.9232 0.47577 0.43007 0.0
C232 C 0.49334 0.00408 0.76695 0.0
C233 C 0.52168 0.03774 0.76359 0.0
C234 C 0.45993 0.96467 0.76706 0.0
C235 C 0.43164 0.93097 0.76384 0.0
C236 C 0.47267 0.50024 0.10089 0.0
C237 C 0.46712 0.52845 0.09747 0.0
C238 C 0.47903 0.46703 0.10083 0.0
C239 C 0.48465 0.43886 0.09733 0.0
C240 C 0.46241 0.2139 0.22532 0.0
C241 C 0.46681 0.19342 0.25556 0.0
C242 C 0.46228 0.23961 0.18813 0.0
C243 C 0.4665 0.26446 0.15796 0.0
C244 C 0.2066 0.46997 0.52169 0.0
C245 C 0.186 0.47424 0.4915 0.0
C246 C 0.23241 0.47005 0.55886 0.0
C247 C 0.25727 0.47439 0.58908 0.0
C248 C 0.74692 0.2397 0.89231 0.0
C249 C 0.76742 0.2646 0.92251 0.0
C250 C 0.72114 0.21389 0.85517 0.0
C251 C 0.69623 0.19335 0.82501 0.0
C252 C 0.49017 0.72787 0.18874 0.0
C253 C 0.48572 0.70293 0.15856 0.0
C254 C 0.49035 0.75376 0.2259 0.0
C255 C 0.48619 0.77441 0.25612 0.0
C256 C 0.72065 0.49825 0.55921 0.0
C257 C 0.69577 0.49396 0.58937 0.0
C258 C 0.74647 0.4982 0.5221 0.0
C259 C 0.76704 0.49385 0.49195 0.0
C260 C 0.20624 0.7285 0.89216 0.0
C261 C 0.18558 0.7036 0.92227 0.0
C262 C 0.23219 0.75435 0.85515 0.0
C263 C 0.25719 0.77494 0.82511 0.0
loop_
_geom_bond_atom_site_label_1
_geom_bond_atom_site_label_2
_geom_bond_distance
_geom_bond_site_symmetry_2
_ccdc_geom_bond_type
Co0 O1 2.216 . S
Co0 O2 2.091 . S
Co0 O4 2.004 . S
Co0 O10 2.021 . S
Co0 O12 2.137 . S
Co0 O13 2.244 . S
O1 Co0 2.216 . S
O1 C8 1.247 . S
O2 Co0 2.091 . S
O2 C8 1.261 . S
C3 O12 1.247 . S
C3 O13 1.272 . S
O4 Co0 2.004 . S
O4 C9 1.259 . S
Co5 O6 2.061 . S
Co5 O11 2.052 . S
Co5 O13 2.135 . S
O6 Co5 2.061 . S
O6 C9 1.235 . S
C7 O10 1.238 . S
C7 O11 1.241 . S
C8 O1 1.247 . S
C8 O2 1.261 . S
C9 O4 1.259 . S
C9 O6 1.235 . S
O10 Co0 2.021 . S
O10 C7 1.238 . S
O11 Co5 2.052 . S
O11 C7 1.241 . S
O12 Co0 2.137 . S
O12 C3 1.247 . S
O13 Co0 2.244 . S
O13 C3 1.272 . S
O13 Co5 2.135 . S
Co14 O15 2.216 . S
Co14 O16 2.091 . S
Co14 O18 2.004 . S
Co14 O24 2.021 . S
Co14 O26 2.137 . S
Co14 O27 2.244 . S
O15 Co14 2.216 . S
O15 C22 1.247 . S
O16 Co14 2.091 . S
O16 C22 1.261 . S
C17 O26 1.247 . S
C17 O27 1.272 . S
O18 Co14 2.004 . S
O18 C23 1.259 . S
Co19 O20 2.061 . S
Co19 O25 2.052 . S
Co19 O27 2.135 . S
O20 Co19 2.061 . S
O20 C23 1.235 . S
C21 O24 1.238 . S
C21 O25 1.241 . S
C22 O15 1.247 . S
C22 O16 1.261 . S
C23 O18 1.259 . S
C23 O20 1.235 . S
O24 Co14 2.021 . S
O24 C21 1.238 . S
O25 Co19 2.052 . S
O25 C21 1.241 . S
O26 Co14 2.137 . S
O26 C17 1.247 . S
O27 Co14 2.244 . S
O27 C17 1.272 . S
O27 Co19 2.135 . S
Co28 O29 2.216 . S
Co28 O30 2.091 . S
Co28 O32 2.004 . S
Co28 O38 2.021 1_556 S
Co28 O40 2.137 . S
Co28 O41 2.244 . S
O29 Co28 2.216 . S
O29 C36 1.247 . S
O30 Co28 2.091 . S
O30 C36 1.261 . S
C31 O40 1.247 . S
C31 O41 1.272 . S
O32 Co28 2.004 . S
O32 C37 1.259 . S
Co33 O34 2.061 . S
Co33 O39 2.052 . S
Co33 O41 2.135 1_554 S
O34 Co33 2.061 . S
O34 C37 1.235 1_554 S
C35 O38 1.238 . S
C35 O39 1.241 . S
C36 O29 1.247 . S
C36 O30 1.261 . S
C37 O32 1.259 . S
C37 O34 1.235 1_556 S
O38 Co28 2.021 1_554 S
O38 C35 1.238 . S
O39 Co33 2.052 . S
O39 C35 1.241 . S
O40 Co28 2.137 . S
O40 C31 1.247 . S
O41 Co28 2.244 . S
O41 C31 1.272 . S
O41 Co33 2.135 1_556 S
Co42 O43 2.216 . S
Co42 O44 2.091 . S
Co42 O46 2.004 . S
Co42 O52 2.021 . S
Co42 O54 2.137 . S
Co42 O55 2.244 . S
O43 Co42 2.216 . S
O43 C50 1.247 . S
O44 Co42 2.091 . S
O44 C50 1.261 . S
C45 O54 1.247 . S
C45 O55 1.272 . S
O46 Co42 2.004 . S
O46 C51 1.259 . S
Co47 O48 2.061 . S
Co47 O53 2.052 . S
Co47 O55 2.135 . S
O48 Co47 2.061 . S
O48 C51 1.235 . S
C49 O52 1.238 . S
C49 O53 1.241 . S
C50 O43 1.247 . S
C50 O44 1.261 . S
C51 O46 1.259 . S
C51 O48 1.235 . S
O52 Co42 2.021 . S
O52 C49 1.238 . S
O53 Co47 2.052 . S
O53 C49 1.241 . S
O54 Co42 2.137 . S
O54 C45 1.247 . S
O55 Co42 2.244 . S
O55 C45 1.272 . S
O55 Co47 2.135 . S
Co56 O57 2.216 . S
Co56 O58 2.091 . S
Co56 O60 2.004 . S
Co56 O66 2.021 . S
Co56 O68 2.137 . S
Co56 O69 2.244 . S
O57 Co56 2.216 . S
O57 C64 1.247 . S
O58 Co56 2.091 . S
O58 C64 1.261 . S
C59 O68 1.247 . S
C59 O69 1.272 . S
O60 Co56 2.004 . S
O60 C65 1.259 . S
Co61 O62 2.061 . S
Co61 O67 2.052 . S
Co61 O69 2.135 . S
O62 Co61 2.061 . S
O62 C65 1.235 . S
C63 O66 1.238 . S
C63 O67 1.241 . S
C64 O57 1.247 . S
C64 O58 1.261 . S
C65 O60 1.259 . S
C65 O62 1.235 . S
O66 Co56 2.021 . S
O66 C63 1.238 . S
O67 Co61 2.052 . S
O67 C63 1.241 . S
O68 Co56 2.137 . S
O68 C59 1.247 . S
O69 Co56 2.244 . S
O69 C59 1.272 . S
O69 Co61 2.135 . S
Co70 O71 2.216 . S
Co70 O72 2.091 . S
Co70 O74 2.004 . S
Co70 O80 2.021 1_556 S
Co70 O82 2.137 . S
Co70 O83 2.244 . S
O71 Co70 2.216 . S
O71 C78 1.247 . S
O72 Co70 2.091 . S
O72 C78 1.261 . S
C73 O82 1.247 . S
C73 O83 1.272 . S
O74 Co70 2.004 . S
O74 C79 1.259 . S
Co75 O76 2.061 . S
Co75 O81 2.052 . S
Co75 O83 2.135 1_554 S
O76 Co75 2.061 . S
O76 C79 1.235 1_554 S
C77 O80 1.238 . S
C77 O81 1.241 . S
C78 O71 1.247 . S
C78 O72 1.261 . S
C79 O74 1.259 . S
C79 O76 1.235 1_556 S
O80 Co70 2.021 1_554 S
O80 C77 1.238 . S
O81 Co75 2.052 . S
O81 C77 1.241 . S
O82 Co70 2.137 . S
O82 C73 1.247 . S
O83 Co70 2.244 . S
O83 C73 1.272 . S
O83 Co75 2.135 1_556 S
Co84 O85 2.216 . S
Co84 O86 2.091 . S
Co84 O88 2.004 . S
Co84 O94 2.021 . S
Co84 O96 2.137 . S
Co84 O97 2.244 . S
O85 Co84 2.216 . S
O85 C92 1.247 . S
O86 Co84 2.091 . S
O86 C92 1.261 . S
C87 O96 1.247 . S
C87 O97 1.272 . S
O88 Co84 2.004 . S
O88 C93 1.259 . S
Co89 O90 2.061 . S
Co89 O95 2.052 . S
Co89 O97 2.135 . S
O90 Co89 2.061 . S
O90 C93 1.235 . S
C91 O94 1.238 . S
C91 O95 1.241 . S
C92 O85 1.247 . S
C92 O86 1.261 . S
C93 O88 1.259 . S
C93 O90 1.235 . S
O94 Co84 2.021 . S
O94 C91 1.238 . S
O95 Co89 2.052 . S
O95 C91 1.241 . S
O96 Co84 2.137 . S
O96 C87 1.247 . S
O97 Co84 2.244 . S
O97 C87 1.272 . S
O97 Co89 2.135 . S
Co98 O99 2.216 . S
Co98 O100 2.091 . S
Co98 O102 2.004 . S
Co98 O108 2.021 . S
Co98 O110 2.137 . S
Co98 O111 2.244 . S
O99 Co98 2.216 . S
O99 C106 1.247 . S
O100 Co98 2.091 . S
O100 C106 1.261 . S
C101 O110 1.247 . S
C101 O111 1.272 . S
O102 Co98 2.004 . S
O102 C107 1.259 . S
Co103 O104 2.061 . S
Co103 O109 2.052 . S
Co103 O111 2.135 . S
O104 Co103 2.061 . S
O104 C107 1.235 . S
C105 O108 1.238 . S
C105 O109 1.241 . S
C106 O99 1.247 . S
C106 O100 1.261 . S
C107 O102 1.259 . S
C107 O104 1.235 . S
O108 Co98 2.021 . S
O108 C105 1.238 . S
O109 Co103 2.052 . S
O109 C105 1.241 . S
O110 Co98 2.137 . S
O110 C101 1.247 . S
O111 Co98 2.244 . S
O111 C101 1.272 . S
O111 Co103 2.135 . S
Co112 O113 2.216 . S
Co112 O114 2.091 . S
Co112 O116 2.004 . S
Co112 O122 2.021 1_554 S
Co112 O124 2.137 . S
Co112 O125 2.244 . S
O113 Co112 2.216 . S
O113 C120 1.247 . S
O114 Co112 2.091 . S
O114 C120 1.261 . S
C115 O124 1.247 . S
C115 O125 1.272 . S
O116 Co112 2.004 . S
O116 C121 1.259 . S
Co117 O118 2.061 1_556 S
Co117 O123 2.052 . S
Co117 O125 2.135 1_556 S
O118 Co117 2.061 1_554 S
O118 C121 1.235 . S
C119 O122 1.238 . S
C119 O123 1.241 . S
C120 O113 1.247 . S
C120 O114 1.261 . S
C121 O116 1.259 . S
C121 O118 1.235 . S
O122 Co112 2.021 1_556 S
O122 C119 1.238 . S
O123 Co117 2.052 . S
O123 C119 1.241 . S
O124 Co112 2.137 . S
O124 C115 1.247 . S
O125 Co112 2.244 . S
O125 C115 1.272 . S
O125 Co117 2.135 1_554 S
Co126 O127 2.216 . S
Co126 O128 2.091 . S
Co126 O130 2.004 . S
Co126 O136 2.021 . S
Co126 O138 2.137 . S
Co126 O139 2.244 . S
O127 Co126 2.216 . S
O127 C134 1.247 . S
O128 Co126 2.091 . S
O128 C134 1.261 . S
C129 O138 1.247 . S
C129 O139 1.272 . S
O130 Co126 2.004 . S
O130 C135 1.259 . S
Co131 O132 2.061 . S
Co131 O137 2.052 . S
Co131 O139 2.135 . S
O132 Co131 2.061 . S
O132 C135 1.235 . S
C133 O136 1.238 . S
C133 O137 1.241 . S
C134 O127 1.247 . S
C134 O128 1.261 . S
C135 O130 1.259 . S
C135 O132 1.235 . S
O136 Co126 2.021 . S
O136 C133 1.238 . S
O137 Co131 2.052 . S
O137 C133 1.241 . S
O138 Co126 2.137 . S
O138 C129 1.247 . S
O139 Co126 2.244 . S
O139 C129 1.272 . S
O139 Co131 2.135 . S
Co140 O141 2.216 . S
Co140 O142 2.091 . S
Co140 O144 2.004 . S
Co140 O150 2.021 . S
Co140 O152 2.137 . S
Co140 O153 2.244 . S
O141 Co140 2.216 . S
O141 C148 1.247 . S
O142 Co140 2.091 . S
O142 C148 1.261 . S
C143 O152 1.247 . S
C143 O153 1.272 . S
O144 Co140 2.004 . S
O144 C149 1.259 . S
Co145 O146 2.061 . S
Co145 O151 2.052 . S
Co145 O153 2.135 . S
O146 Co145 2.061 . S
O146 C149 1.235 . S
C147 O150 1.238 . S
C147 O151 1.241 . S
C148 O141 1.247 . S
C148 O142 1.261 . S
C149 O144 1.259 . S
C149 O146 1.235 . S
O150 Co140 2.021 . S
O150 C147 1.238 . S
O151 Co145 2.052 . S
O151 C147 1.241 . S
O152 Co140 2.137 . S
O152 C143 1.247 . S
O153 Co140 2.244 . S
O153 C143 1.272 . S
O153 Co145 2.135 . S
Co154 O155 2.216 . S
Co154 O156 2.091 . S
Co154 O158 2.004 . S
Co154 O164 2.021 1_554 S
Co154 O166 2.137 . S
Co154 O167 2.244 . S
O155 Co154 2.216 . S
O155 C162 1.247 . S
O156 Co154 2.091 . S
O156 C162 1.261 . S
C157 O166 1.247 . S
C157 O167 1.272 . S
O158 Co154 2.004 . S
O158 C163 1.259 . S
Co159 O160 2.061 1_556 S
Co159 O165 2.052 . S
Co159 O167 2.135 1_556 S
O160 Co159 2.061 1_554 S
O160 C163 1.235 . S
C161 O164 1.238 . S
C161 O165 1.241 . S
C162 O155 1.247 . S
C162 O156 1.261 . S
C163 O158 1.259 . S
C163 O160 1.235 . S
O164 Co154 2.021 1_556 S
O164 C161 1.238 . S
O165 Co159 2.052 . S
O165 C161 1.241 . S
O166 Co154 2.137 . S
O166 C157 1.247 . S
O167 Co154 2.244 . S
O167 C157 1.272 . S
O167 Co159 2.135 1_554 S
C168 C169 1.170 . S
C168 C170 1.380 . S
C169 C168 1.170 . S
C170 C168 1.380 . S
C170 C171 1.170 . S
C171 C170 1.170 . S
C172 C173 1.170 . S
C172 C174 1.380 . S
C173 C172 1.170 . S
C174 C172 1.380 . S
C174 C175 1.170 . S
C175 C174 1.170 . S
C176 C177 1.170 . S
C176 C178 1.380 . S
C177 C176 1.170 . S
C178 C176 1.380 . S
C178 C179 1.170 . S
C179 C178 1.170 . S
C180 C181 1.170 . S
C180 C182 1.380 . S
C181 C180 1.170 . S
C182 C180 1.380 . S
C182 C183 1.170 . S
C183 C182 1.170 . S
C184 C185 1.170 . S
C184 C186 1.380 . S
C185 C184 1.170 . S
C186 C184 1.380 . S
C186 C187 1.170 . S
C187 C186 1.170 . S
C188 C189 1.170 . S
C188 C190 1.380 . S
C189 C188 1.170 . S
C190 C188 1.380 . S
C190 C191 1.170 . S
C191 C190 1.170 . S
C192 C193 1.170 . S
C192 C194 1.380 . S
C193 C192 1.170 . S
C194 C192 1.380 . S
C194 C195 1.170 . S
C195 C194 1.170 . S
C196 C197 1.170 . S
C196 C198 1.380 . S
C197 C196 1.170 . S
C198 C196 1.380 . S
C198 C199 1.170 . S
C199 C198 1.170 . S
C200 C201 1.170 . S
C200 C202 1.380 1_554 S
C201 C200 1.170 . S
C202 C200 1.380 1_556 S
C202 C203 1.170 . S
C203 C202 1.170 . S
C204 C205 1.170 . S
C204 C206 1.380 . S
C205 C204 1.170 . S
C206 C204 1.380 . S
C206 C207 1.170 . S
C207 C206 1.170 . S
C208 C209 1.170 . S
C208 C210 1.380 . S
C209 C208 1.170 . S
C210 C208 1.380 . S
C210 C211 1.170 . S
C211 C210 1.170 . S
C212 C213 1.170 . S
C212 C214 1.380 1_556 S
C213 C212 1.170 . S
C214 C212 1.380 1_554 S
C214 C215 1.170 . S
C215 C214 1.170 . S
C216 C217 1.170 . S
C216 C218 1.380 1_545 S
C217 C216 1.170 . S
C218 C216 1.380 1_565 S
C218 C219 1.170 . S
C219 C218 1.170 . S
C220 C221 1.170 . S
C220 C222 1.380 . S
C221 C220 1.170 . S
C222 C220 1.380 . S
C222 C223 1.170 . S
C223 C222 1.170 . S
C224 C225 1.170 . S
C224 C226 1.380 1_655 S
C225 C224 1.170 . S
C226 C224 1.380 1_455 S
C226 C227 1.170 . S
C227 C226 1.170 . S
C228 C229 1.170 . S
C228 C230 1.380 1_455 S
C229 C228 1.170 . S
C230 C228 1.380 1_655 S
C230 C231 1.170 . S
C231 C230 1.170 . S
C232 C233 1.170 . S
C232 C234 1.380 1_545 S
C233 C232 1.170 . S
C234 C232 1.380 1_565 S
C234 C235 1.170 . S
C235 C234 1.170 . S
C236 C237 1.170 . S
C236 C238 1.380 . S
C237 C236 1.170 . S
C238 C236 1.380 . S
C238 C239 1.170 . S
C239 C238 1.170 . S
C240 C241 1.170 . S
C240 C242 1.380 . S
C241 C240 1.170 . S
C242 C240 1.380 . S
C242 C243 1.170 . S
C243 C242 1.170 . S
C244 C245 1.170 . S
C244 C246 1.380 . S
C245 C244 1.170 . S
C246 C244 1.380 . S
C246 C247 1.170 . S
C247 C246 1.170 . S
C248 C249 1.170 . S
C248 C250 1.380 . S
C249 C248 1.170 . S
C250 C248 1.380 . S
C250 C251 1.170 . S
C251 C250 1.170 . S
C252 C253 1.170 . S
C252 C254 1.380 . S
C253 C252 1.170 . S
C254 C252 1.380 . S
C254 C255 1.170 . S
C255 C254 1.170 . S
C256 C257 1.170 . S
C256 C258 1.380 . S
C257 C256 1.170 . S
C258 C256 1.380 . S
C258 C259 1.170 . S
C259 C258 1.170 . S
C260 C261 1.170 . S
C260 C262 1.380 . S
C261 C260 1.170 . S
C262 C260 1.380 . S
C262 C263 1.170 . S
C263 C262 1.170 . S
C169 C7 1.738 . S
C171 C147 1.757 . S
C173 C21 1.768 . S
C175 C161 1.731 . S
C177 C91 1.739 . S
C179 C35 1.776 . S
C181 C49 1.768 . S
C183 C105 1.750 . S
C185 C119 1.729 . S
C187 C63 1.771 . S
C189 C133 1.752 . S
C191 C77 1.767 . S
C193 C93 0.726 . S
C195 C9 0.706 . S
C197 C107 0.717 . S
C199 C23 0.678 . S
C201 C121 0.646 . S
C203 C37 0.672 . S
C205 C51 0.656 . S
C207 C135 0.697 . S
C209 C65 0.653 . S
C211 C149 0.692 . S
C213 C79 0.712 . S
C215 C163 0.670 . S
C217 C8 1.492 . S
C219 C50 1.509 . S
C221 C22 1.506 . S
C223 C64 1.495 . S
C225 C36 1.494 . S
C227 C78 1.507 . S
C229 C134 1.511 . S
C231 C92 1.492 . S
C233 C148 1.508 . S
C235 C106 1.499 . S
C237 C162 1.490 . S
C239 C120 1.512 . S
C241 C3 1.597 . S
C243 C115 1.597 . S
C245 C129 1.587 . S
C247 C17 1.587 . S
C249 C31 1.619 . S
C251 C143 1.619 . S
C253 C157 1.586 . S
C255 C45 1.586 . S
C257 C59 1.586 . S
C259 C87 1.586 . S
C261 C73 1.622 . S
C263 C101 1.622 . S
