# Generated by pormake.
# Topology wio, (6)-cn, num edge types: 1
# Building blocks:
#     Node 0, Type 0, BuildingBlock: GEDQOX_clean_sbu_0, # of connection points: 6
#     Node 1, Type 0, BuildingBlock: GEDQOX_clean_sbu_0, # of connection points: 6
#     Node 2, Type 0, BuildingBlock: GEDQOX_clean_sbu_0, # of connection points: 6
#     Node 3, Type 0, BuildingBlock: GEDQOX_clean_sbu_0, # of connection points: 6
#     Node 4, Type 0, BuildingBlock: GEDQOX_clean_sbu_0, # of connection points: 6
#     Node 5, Type 0, BuildingBlock: GEDQOX_clean_sbu_0, # of connection points: 6
#     Node 6, Type 0, BuildingBlock: GEDQOX_clean_sbu_0, # of connection points: 6
#     Node 7, Type 0, BuildingBlock: GEDQOX_clean_sbu_0, # of connection points: 6
#     Node 8, Type 0, BuildingBlock: GEDQOX_clean_sbu_0, # of connection points: 6
#     Node 9, Type 0, BuildingBlock: GEDQOX_clean_sbu_0, # of connection points: 6
#     Node 10, Type 0, BuildingBlock: GEDQOX_clean_sbu_0, # of connection points: 6
#     Node 11, Type 0, BuildingBlock: GEDQOX_clean_sbu_0, # of connection points: 6
#     Node 12, Type 0, BuildingBlock: GEDQOX_clean_sbu_0, # of connection points: 6
#     Node 13, Type 0, BuildingBlock: GEDQOX_clean_sbu_0, # of connection points: 6
#     Node 14, Type 0, BuildingBlock: GEDQOX_clean_sbu_0, # of connection points: 6
#     Node 15, Type 0, BuildingBlock: GEDQOX_clean_sbu_0, # of connection points: 6
#     Node 16, Type 0, BuildingBlock: GEDQOX_clean_sbu_0, # of connection points: 6
#     Node 17, Type 0, BuildingBlock: GEDQOX_clean_sbu_0, # of connection points: 6
#     Node 18, Type 0, BuildingBlock: GEDQOX_clean_sbu_0, # of connection points: 6
#     Node 19, Type 0, BuildingBlock: GEDQOX_clean_sbu_0, # of connection points: 6
#     Node 20, Type 0, BuildingBlock: GEDQOX_clean_sbu_0, # of connection points: 6
#     Node 21, Type 0, BuildingBlock: GEDQOX_clean_sbu_0, # of connection points: 6
#     Node 22, Type 0, BuildingBlock: GEDQOX_clean_sbu_0, # of connection points: 6
#     Node 23, Type 0, BuildingBlock: GEDQOX_clean_sbu_0, # of connection points: 6
#     Node 24, Type 0, BuildingBlock: GEDQOX_clean_sbu_0, # of connection points: 6
#     Node 25, Type 0, BuildingBlock: GEDQOX_clean_sbu_0, # of connection points: 6
#     Node 26, Type 0, BuildingBlock: GEDQOX_clean_sbu_0, # of connection points: 6
#     Node 27, Type 0, BuildingBlock: GEDQOX_clean_sbu_0, # of connection points: 6
#     Node 28, Type 0, BuildingBlock: GEDQOX_clean_sbu_0, # of connection points: 6
#     Node 29, Type 0, BuildingBlock: GEDQOX_clean_sbu_0, # of connection points: 6
#     Node 30, Type 0, BuildingBlock: GEDQOX_clean_sbu_0, # of connection points: 6
#     Node 31, Type 0, BuildingBlock: GEDQOX_clean_sbu_0, # of connection points: 6
#     Edge 32, Type (0, 0), BuildingBlock: XIVTED_clean_linker_0, # of connection points: 2
#     Edge 33, Type (0, 0), BuildingBlock: XIVTED_clean_linker_0, # of connection points: 2
#     Edge 34, Type (0, 0), BuildingBlock: XIVTED_clean_linker_0, # of connection points: 2
#     Edge 35, Type (0, 0), BuildingBlock: XIVTED_clean_linker_0, # of connection points: 2
#     Edge 36, Type (0, 0), BuildingBlock: XIVTED_clean_linker_0, # of connection points: 2
#     Edge 37, Type (0, 0), BuildingBlock: XIVTED_clean_linker_0, # of connection points: 2
#     Edge 38, Type (0, 0), BuildingBlock: XIVTED_clean_linker_0, # of connection points: 2
#     Edge 39, Type (0, 0), BuildingBlock: XIVTED_clean_linker_0, # of connection points: 2
#     Edge 40, Type (0, 0), BuildingBlock: XIVTED_clean_linker_0, # of connection points: 2
#     Edge 41, Type (0, 0), BuildingBlock: XIVTED_clean_linker_0, # of connection points: 2
#     Edge 42, Type (0, 0), BuildingBlock: XIVTED_clean_linker_0, # of connection points: 2
#     Edge 43, Type (0, 0), BuildingBlock: XIVTED_clean_linker_0, # of connection points: 2
#     Edge 44, Type (0, 0), BuildingBlock: XIVTED_clean_linker_0, # of connection points: 2
#     Edge 45, Type (0, 0), BuildingBlock: XIVTED_clean_linker_0, # of connection points: 2
#     Edge 46, Type (0, 0), BuildingBlock: XIVTED_clean_linker_0, # of connection points: 2
#     Edge 47, Type (0, 0), BuildingBlock: XIVTED_clean_linker_0, # of connection points: 2
#     Edge 48, Type (0, 0), BuildingBlock: XIVTED_clean_linker_0, # of connection points: 2
#     Edge 49, Type (0, 0), BuildingBlock: XIVTED_clean_linker_0, # of connection points: 2
#     Edge 50, Type (0, 0), BuildingBlock: XIVTED_clean_linker_0, # of connection points: 2
#     Edge 51, Type (0, 0), BuildingBlock: XIVTED_clean_linker_0, # of connection points: 2
#     Edge 52, Type (0, 0), BuildingBlock: XIVTED_clean_linker_0, # of connection points: 2
#     Edge 53, Type (0, 0), BuildingBlock: XIVTED_clean_linker_0, # of connection points: 2
#     Edge 54, Type (0, 0), BuildingBlock: XIVTED_clean_linker_0, # of connection points: 2
#     Edge 55, Type (0, 0), BuildingBlock: XIVTED_clean_linker_0, # of connection points: 2
#     Edge 56, Type (0, 0), BuildingBlock: XIVTED_clean_linker_0, # of connection points: 2
#     Edge 57, Type (0, 0), BuildingBlock: XIVTED_clean_linker_0, # of connection points: 2
#     Edge 58, Type (0, 0), BuildingBlock: XIVTED_clean_linker_0, # of connection points: 2
#     Edge 59, Type (0, 0), BuildingBlock: XIVTED_clean_linker_0, # of connection points: 2
#     Edge 60, Type (0, 0), BuildingBlock: XIVTED_clean_linker_0, # of connection points: 2
#     Edge 61, Type (0, 0), BuildingBlock: XIVTED_clean_linker_0, # of connection points: 2
#     Edge 62, Type (0, 0), BuildingBlock: XIVTED_clean_linker_0, # of connection points: 2
#     Edge 63, Type (0, 0), BuildingBlock: XIVTED_clean_linker_0, # of connection points: 2
#     Edge 64, Type (0, 0), BuildingBlock: XIVTED_clean_linker_0, # of connection points: 2
#     Edge 65, Type (0, 0), BuildingBlock: XIVTED_clean_linker_0, # of connection points: 2
#     Edge 66, Type (0, 0), BuildingBlock: XIVTED_clean_linker_0, # of connection points: 2
#     Edge 67, Type (0, 0), BuildingBlock: XIVTED_clean_linker_0, # of connection points: 2
#     Edge 68, Type (0, 0), BuildingBlock: XIVTED_clean_linker_0, # of connection points: 2
#     Edge 69, Type (0, 0), BuildingBlock: XIVTED_clean_linker_0, # of connection points: 2
#     Edge 70, Type (0, 0), BuildingBlock: XIVTED_clean_linker_0, # of connection points: 2
#     Edge 71, Type (0, 0), BuildingBlock: XIVTED_clean_linker_0, # of connection points: 2
#     Edge 72, Type (0, 0), BuildingBlock: XIVTED_clean_linker_0, # of connection points: 2
#     Edge 73, Type (0, 0), BuildingBlock: XIVTED_clean_linker_0, # of connection points: 2
#     Edge 74, Type (0, 0), BuildingBlock: XIVTED_clean_linker_0, # of connection points: 2
#     Edge 75, Type (0, 0), BuildingBlock: XIVTED_clean_linker_0, # of connection points: 2
#     Edge 76, Type (0, 0), BuildingBlock: XIVTED_clean_linker_0, # of connection points: 2
#     Edge 77, Type (0, 0), BuildingBlock: XIVTED_clean_linker_0, # of connection points: 2
#     Edge 78, Type (0, 0), BuildingBlock: XIVTED_clean_linker_0, # of connection points: 2
#     Edge 79, Type (0, 0), BuildingBlock: XIVTED_clean_linker_0, # of connection points: 2
#     Edge 80, Type (0, 0), BuildingBlock: XIVTED_clean_linker_0, # of connection points: 2
#     Edge 81, Type (0, 0), BuildingBlock: XIVTED_clean_linker_0, # of connection points: 2
#     Edge 82, Type (0, 0), BuildingBlock: XIVTED_clean_linker_0, # of connection points: 2
#     Edge 83, Type (0, 0), BuildingBlock: XIVTED_clean_linker_0, # of connection points: 2
#     Edge 84, Type (0, 0), BuildingBlock: XIVTED_clean_linker_0, # of connection points: 2
#     Edge 85, Type (0, 0), BuildingBlock: XIVTED_clean_linker_0, # of connection points: 2
#     Edge 86, Type (0, 0), BuildingBlock: XIVTED_clean_linker_0, # of connection points: 2
#     Edge 87, Type (0, 0), BuildingBlock: XIVTED_clean_linker_0, # of connection points: 2
#     Edge 88, Type (0, 0), BuildingBlock: XIVTED_clean_linker_0, # of connection points: 2
#     Edge 89, Type (0, 0), BuildingBlock: XIVTED_clean_linker_0, # of connection points: 2
#     Edge 90, Type (0, 0), BuildingBlock: XIVTED_clean_linker_0, # of connection points: 2
#     Edge 91, Type (0, 0), BuildingBlock: XIVTED_clean_linker_0, # of connection points: 2
#     Edge 92, Type (0, 0), BuildingBlock: XIVTED_clean_linker_0, # of connection points: 2
#     Edge 93, Type (0, 0), BuildingBlock: XIVTED_clean_linker_0, # of connection points: 2
#     Edge 94, Type (0, 0), BuildingBlock: XIVTED_clean_linker_0, # of connection points: 2
#     Edge 95, Type (0, 0), BuildingBlock: XIVTED_clean_linker_0, # of connection points: 2
#     Edge 96, Type (0, 0), BuildingBlock: XIVTED_clean_linker_0, # of connection points: 2
#     Edge 97, Type (0, 0), BuildingBlock: XIVTED_clean_linker_0, # of connection points: 2
#     Edge 98, Type (0, 0), BuildingBlock: XIVTED_clean_linker_0, # of connection points: 2
#     Edge 99, Type (0, 0), BuildingBlock: XIVTED_clean_linker_0, # of connection points: 2
#     Edge 100, Type (0, 0), BuildingBlock: XIVTED_clean_linker_0, # of connection points: 2
#     Edge 101, Type (0, 0), BuildingBlock: XIVTED_clean_linker_0, # of connection points: 2
#     Edge 102, Type (0, 0), BuildingBlock: XIVTED_clean_linker_0, # of connection points: 2
#     Edge 103, Type (0, 0), BuildingBlock: XIVTED_clean_linker_0, # of connection points: 2
#     Edge 104, Type (0, 0), BuildingBlock: XIVTED_clean_linker_0, # of connection points: 2
#     Edge 105, Type (0, 0), BuildingBlock: XIVTED_clean_linker_0, # of connection points: 2
#     Edge 106, Type (0, 0), BuildingBlock: XIVTED_clean_linker_0, # of connection points: 2
#     Edge 107, Type (0, 0), BuildingBlock: XIVTED_clean_linker_0, # of connection points: 2
#     Edge 108, Type (0, 0), BuildingBlock: XIVTED_clean_linker_0, # of connection points: 2
#     Edge 109, Type (0, 0), BuildingBlock: XIVTED_clean_linker_0, # of connection points: 2
#     Edge 110, Type (0, 0), BuildingBlock: XIVTED_clean_linker_0, # of connection points: 2
#     Edge 111, Type (0, 0), BuildingBlock: XIVTED_clean_linker_0, # of connection points: 2
#     Edge 112, Type (0, 0), BuildingBlock: XIVTED_clean_linker_0, # of connection points: 2
#     Edge 113, Type (0, 0), BuildingBlock: XIVTED_clean_linker_0, # of connection points: 2
#     Edge 114, Type (0, 0), BuildingBlock: XIVTED_clean_linker_0, # of connection points: 2
#     Edge 115, Type (0, 0), BuildingBlock: XIVTED_clean_linker_0, # of connection points: 2
#     Edge 116, Type (0, 0), BuildingBlock: XIVTED_clean_linker_0, # of connection points: 2
#     Edge 117, Type (0, 0), BuildingBlock: XIVTED_clean_linker_0, # of connection points: 2
#     Edge 118, Type (0, 0), BuildingBlock: XIVTED_clean_linker_0, # of connection points: 2
#     Edge 119, Type (0, 0), BuildingBlock: XIVTED_clean_linker_0, # of connection points: 2
#     Edge 120, Type (0, 0), BuildingBlock: XIVTED_clean_linker_0, # of connection points: 2
#     Edge 121, Type (0, 0), BuildingBlock: XIVTED_clean_linker_0, # of connection points: 2
#     Edge 122, Type (0, 0), BuildingBlock: XIVTED_clean_linker_0, # of connection points: 2
#     Edge 123, Type (0, 0), BuildingBlock: XIVTED_clean_linker_0, # of connection points: 2
#     Edge 124, Type (0, 0), BuildingBlock: XIVTED_clean_linker_0, # of connection points: 2
#     Edge 125, Type (0, 0), BuildingBlock: XIVTED_clean_linker_0, # of connection points: 2
#     Edge 126, Type (0, 0), BuildingBlock: XIVTED_clean_linker_0, # of connection points: 2
#     Edge 127, Type (0, 0), BuildingBlock: XIVTED_clean_linker_0, # of connection points: 2
# Relax obj value: 0.152
# Max RMSD: 0.209
# Mean RMSD: 0.209
data_MOF--net-wio--node1-GEDQOX_clean_sbu_0--edge1-XIVTED_clean_linker_0
_symmetry_space_group_name_H-M    P1
_symmetry_Int_Tables_number       1
_symmetry_cell_setting            triclinic
loop_
_symmetry_equiv_pos_as_xyz
'x, y, z'
_cell_length_a     50.753901
_cell_length_b     50.755835
_cell_length_c     66.018947
_cell_angle_alpha  90.020003
_cell_angle_beta   90.01509
_cell_angle_gamma 90.031175
loop_
_atom_site_label
_atom_site_type_symbol
_atom_site_fract_x
_atom_site_fract_y
_atom_site_fract_z
_atom_type_partial_charge
Nd0 Nd 0.10736 0.12595 0.31084 0.0
Nd1 Nd 0.13751 0.10303 0.34726 0.0
C2 C 0.0868 0.13696 0.27499 0.0
C3 C 0.09431 0.13588 0.25347 0.0
C4 C 0.07493 0.13086 0.23887 0.0
C5 C 0.08131 0.13096 0.21827 0.0
C6 C 0.10724 0.13618 0.21189 0.0
C7 C 0.12677 0.14071 0.22662 0.0
C8 C 0.12038 0.14045 0.24724 0.0
C9 C 0.12066 0.16258 0.33968 0.0
C10 C 0.17092 0.11619 0.30644 0.0
C11 C 0.15694 0.09251 0.38386 0.0
C12 C 0.15186 0.07635 0.40231 0.0
C13 C 0.15377 0.08795 0.4216 0.0
C14 C 0.15159 0.07261 0.43924 0.0
C15 C 0.14762 0.04519 0.43805 0.0
C16 C 0.14488 0.03378 0.41867 0.0
C17 C 0.14693 0.04913 0.40106 0.0
C18 C 0.12222 0.06625 0.31928 0.0
C19 C 0.07196 0.11143 0.3496 0.0
O20 O 0.08325 0.11439 0.28416 0.0
O21 O 0.09905 0.1543 0.28625 0.0
O22 O 0.09878 0.16257 0.32951 0.0
O23 O 0.13573 0.14407 0.33396 0.0
O24 O 0.14787 0.11736 0.29736 0.0
O25 O 0.17289 0.11425 0.32646 0.0
O26 O 0.14128 0.11244 0.38022 0.0
O27 O 0.16395 0.08013 0.36735 0.0
O28 O 0.14321 0.06373 0.33028 0.0
O29 O 0.10898 0.08593 0.32476 0.0
O30 O 0.09429 0.10616 0.35929 0.0
O31 O 0.07151 0.11738 0.33018 0.0
H32 H 0.05471 0.12728 0.24338 0.0
H33 H 0.06576 0.12766 0.20732 0.0
H34 H 0.14698 0.14447 0.22221 0.0
H35 H 0.13571 0.14413 0.25829 0.0
H36 H 0.15767 0.10886 0.42303 0.0
H37 H 0.154 0.08212 0.45381 0.0
H38 H 0.14135 0.01284 0.41709 0.0
H39 H 0.14519 0.03955 0.38646 0.0
Nd40 Nd 0.14302 0.85517 0.56395 0.0
Nd41 Nd 0.15737 0.89092 0.5993 0.0
C42 C 0.13535 0.83185 0.52846 0.0
C43 C 0.13366 0.83822 0.50667 0.0
C44 C 0.14951 0.85771 0.49769 0.0
C45 C 0.14704 0.86338 0.47696 0.0
C46 C 0.12853 0.84983 0.46492 0.0
C47 C 0.11282 0.83032 0.47407 0.0
C48 C 0.11539 0.82461 0.49468 0.0
C49 C 0.10203 0.86737 0.58956 0.0
C50 C 0.14864 0.91875 0.55622 0.0
C51 C 0.16296 0.91348 0.63553 0.0
C52 C 0.1781 0.90846 0.65439 0.0
C53 C 0.17849 0.92738 0.66991 0.0
C54 C 0.19397 0.92363 0.68733 0.0
C55 C 0.20956 0.90084 0.68963 0.0
C56 C 0.20861 0.88166 0.67415 0.0
C57 C 0.19311 0.88544 0.65675 0.0
C58 C 0.19915 0.87858 0.57477 0.0
C59 C 0.15682 0.82512 0.60479 0.0
O60 O 0.15842 0.8336 0.5372 0.0
O61 O 0.11622 0.84058 0.53986 0.0
O62 O 0.10655 0.84401 0.58241 0.0
O63 O 0.11886 0.88385 0.58326 0.0
O64 O 0.15217 0.89477 0.5491 0.0
O65 O 0.14478 0.92281 0.57587 0.0
O66 O 0.14398 0.897 0.63111 0.0
O67 O 0.17676 0.91999 0.61961 0.0
O68 O 0.19668 0.90076 0.58427 0.0
O69 O 0.18118 0.8628 0.58 0.0
O70 O 0.15544 0.84876 0.61331 0.0
O71 O 0.15606 0.82217 0.58496 0.0
H72 H 0.16366 0.86861 0.50669 0.0
H73 H 0.15928 0.87867 0.47045 0.0
H74 H 0.09868 0.8192 0.46523 0.0
H75 H 0.103 0.80949 0.50129 0.0
H76 H 0.16716 0.94536 0.6684 0.0
H77 H 0.19432 0.939 0.69869 0.0
H78 H 0.21993 0.86366 0.67541 0.0
H79 H 0.19312 0.87052 0.64501 0.0
Nd80 Nd 0.40434 0.88455 0.81194 0.0
Nd81 Nd 0.37071 0.90395 0.84686 0.0
C82 C 0.42626 0.87233 0.77664 0.0
C83 C 0.41988 0.87174 0.75483 0.0
C84 C 0.40197 0.88952 0.74608 0.0
C85 C 0.39607 0.88803 0.72533 0.0
C86 C 0.40784 0.86863 0.71303 0.0
C87 C 0.42582 0.851 0.72196 0.0
C88 C 0.43174 0.85257 0.7426 0.0
C89 C 0.39061 0.84618 0.83943 0.0
C90 C 0.34128 0.89245 0.80452 0.0
C91 C 0.3487 0.91286 0.88291 0.0
C92 C 0.35293 0.92929 0.90129 0.0
C93 C 0.34337 0.92072 0.92014 0.0
C94 C 0.34547 0.9368 0.93741 0.0
C95 C 0.35708 0.96198 0.93622 0.0
C96 C 0.36735 0.97013 0.91737 0.0
C97 C 0.36532 0.954 0.90014 0.0
C98 C 0.38544 0.94323 0.82075 0.0
C99 C 0.43633 0.89919 0.85195 0.0
O100 O 0.42869 0.89537 0.78527 0.0
O101 O 0.41395 0.8553 0.78804 0.0
O102 O 0.41362 0.84831 0.83107 0.0
O103 O 0.37502 0.86374 0.83297 0.0
O104 O 0.36514 0.89485 0.79693 0.0
O105 O 0.33764 0.89124 0.82441 0.0
O106 O 0.36535 0.89371 0.87952 0.0
O107 O 0.34206 0.92519 0.8663 0.0
O108 O 0.36336 0.943 0.83055 0.0
O109 O 0.40009 0.92449 0.8263 0.0
O110 O 0.41285 0.90061 0.86072 0.0
O111 O 0.43877 0.89615 0.8322 0.0
H112 H 0.39243 0.90439 0.75529 0.0
H113 H 0.38196 0.90175 0.719 0.0
H114 H 0.43556 0.83609 0.71293 0.0
H115 H 0.44563 0.83869 0.74905 0.0
H116 H 0.33372 0.90175 0.92143 0.0
H117 H 0.33715 0.92986 0.95154 0.0
H118 H 0.37685 0.98913 0.91585 0.0
H119 H 0.37307 0.96104 0.88585 0.0
Nd120 Nd 0.36852 0.15405 0.06179 0.0
Nd121 Nd 0.34805 0.11996 0.09587 0.0
C122 C 0.38283 0.17571 0.0269 0.0
C123 C 0.38235 0.17043 1.00484 0.0
C124 C 0.35881 0.16538 0.99427 0.0
C125 C 0.35924 0.161 0.97328 0.0
C126 C 0.3832 0.16136 0.96252 0.0
C127 C 0.40665 0.16627 0.97323 0.0
C128 C 0.40619 0.17081 0.9941 0.0
C129 C 0.40624 0.1397 0.08962 0.0
C130 C 0.35763 0.09179 0.05301 0.0
C131 C 0.33842 0.09726 0.13157 0.0
C132 C 0.32337 0.10187 0.15063 0.0
C133 C 0.33366 0.09314 0.16921 0.0
C134 C 0.31931 0.09613 0.18727 0.0
C135 C 0.29417 0.10796 0.18728 0.0
C136 C 0.28405 0.11691 0.16858 0.0
C137 C 0.29845 0.11395 0.15053 0.0
C138 C 0.30941 0.13569 0.06949 0.0
C139 C 0.35283 0.18548 0.10172 0.0
O140 O 0.36062 0.18112 0.03603 0.0
O141 O 0.39827 0.16073 0.03775 0.0
O142 O 0.4041 0.16291 0.08165 0.0
O143 O 0.3888 0.12419 0.08273 0.0
O144 O 0.35562 0.11606 0.04616 0.0
O145 O 0.36 0.08736 0.07274 0.0
O146 O 0.35894 0.11219 0.12813 0.0
O147 O 0.32486 0.09259 0.11513 0.0
O148 O 0.30922 0.11333 0.07893 0.0
O149 O 0.32822 0.14999 0.07547 0.0
O150 O 0.35099 0.16185 0.1102 0.0
O151 O 0.35663 0.18828 0.08209 0.0
H152 H 0.34011 0.16484 1.00217 0.0
H153 H 0.34086 0.15707 0.96551 0.0
H154 H 0.42539 0.16709 0.96541 0.0
H155 H 0.42458 0.1748 1.00188 0.0
H156 H 0.35283 0.08378 0.16974 0.0
H157 H 0.32809 0.08934 0.20127 0.0
H158 H 0.26469 0.12577 0.16775 0.0
H159 H 0.28993 0.12084 0.13645 0.0
Nd160 Nd 0.11043 0.88149 0.21384 0.0
Nd161 Nd 0.14225 0.90209 0.17808 0.0
C162 C 0.09075 0.86956 0.24994 0.0
C163 C 0.09743 0.87171 0.27176 0.0
C164 C 0.08056 0.88555 0.28481 0.0
C165 C 0.0853 0.88613 0.3057 0.0
C166 C 0.10702 0.87275 0.31409 0.0
C167 C 0.12432 0.85948 0.30091 0.0
C168 C 0.11957 0.85893 0.28 0.0
C169 C 0.12334 0.84358 0.18575 0.0
C170 C 0.17364 0.89031 0.21946 0.0
C171 C 0.16311 0.91129 0.1417 0.0
C172 C 0.1597 0.92741 0.12303 0.0
C173 C 0.135 0.93129 0.1138 0.0
C174 C 0.13278 0.94636 0.09595 0.0
C175 C 0.15518 0.95798 0.08697 0.0
C176 C 0.17982 0.95382 0.09629 0.0
C177 C 0.182 0.9388 0.11402 0.0
C178 C 0.1283 0.94068 0.20504 0.0
C179 C 0.0764 0.89648 0.17472 0.0
O180 O 0.08503 0.8913 0.24029 0.0
O181 O 0.10454 0.85317 0.23894 0.0
O182 O 0.10093 0.84496 0.1951 0.0
O183 O 0.13891 0.86151 0.19172 0.0
O184 O 0.15021 0.89213 0.22787 0.0
O185 O 0.17635 0.88958 0.19949 0.0
O186 O 0.14616 0.89242 0.14532 0.0
O187 O 0.17038 0.9236 0.15816 0.0
O188 O 0.14983 0.94112 0.19452 0.0
O189 O 0.11376 0.92172 0.19975 0.0
O190 O 0.09944 0.89982 0.16556 0.0
O191 O 0.07481 0.89142 0.19428 0.0
H192 H 0.06337 0.89558 0.27888 0.0
H193 H 0.0718 0.89694 0.3153 0.0
H194 H 0.14108 0.84873 0.30678 0.0
H195 H 0.13294 0.84799 0.2704 0.0
H196 H 0.11741 0.92278 0.12038 0.0
H197 H 0.11344 0.94926 0.08941 0.0
H198 H 0.19762 0.96195 0.08976 0.0
H199 H 0.2013 0.93597 0.1207 0.0
Nd200 Nd 0.36923 0.85826 0.46238 0.0
Nd201 Nd 0.3543 0.89327 0.42629 0.0
C202 C 0.3744 0.83561 0.49837 0.0
C203 C 0.37489 0.84228 0.5202 0.0
C204 C 0.3606 0.82662 0.53381 0.0
C205 C 0.36205 0.83125 0.55467 0.0
C206 C 0.37794 0.85163 0.56246 0.0
C207 C 0.39164 0.86784 0.5487 0.0
C208 C 0.39013 0.86322 0.52779 0.0
C209 C 0.41023 0.86946 0.43643 0.0
C210 C 0.36702 0.92237 0.4688 0.0
C211 C 0.3483 0.91472 0.38977 0.0
C212 C 0.33258 0.90985 0.3711 0.0
C213 C 0.34346 0.91517 0.35198 0.0
C214 C 0.32856 0.9116 0.33424 0.0
C215 C 0.30228 0.90261 0.33516 0.0
C216 C 0.29156 0.89711 0.35443 0.0
C217 C 0.30651 0.90059 0.37212 0.0
C218 C 0.31313 0.88195 0.45159 0.0
C219 C 0.35465 0.82735 0.42172 0.0
O220 O 0.35182 0.83776 0.48899 0.0
O221 O 0.39433 0.84331 0.4873 0.0
O222 O 0.40678 0.8469 0.44531 0.0
O223 O 0.39295 0.88597 0.44196 0.0
O224 O 0.36394 0.89883 0.47684 0.0
O225 O 0.36794 0.92578 0.44885 0.0
O226 O 0.36696 0.89785 0.39408 0.0
O227 O 0.33537 0.92232 0.40586 0.0
O228 O 0.31545 0.90387 0.44172 0.0
O229 O 0.33091 0.86592 0.44645 0.0
O230 O 0.35499 0.85084 0.4129 0.0
O231 O 0.35686 0.82473 0.44151 0.0
H232 H 0.34859 0.81047 0.52832 0.0
H233 H 0.35079 0.8187 0.56472 0.0
H234 H 0.4042 0.8836 0.55409 0.0
H235 H 0.40129 0.87569 0.51761 0.0
H236 H 0.36354 0.92226 0.35075 0.0
H237 H 0.33776 0.91569 0.31979 0.0
H238 H 0.27135 0.89057 0.35596 0.0
H239 H 0.29754 0.8963 0.38664 0.0
Nd240 Nd 0.39693 0.13079 0.71213 0.0
Nd241 Nd 0.36771 0.10028 0.67848 0.0
C242 C 0.41622 0.14906 0.74659 0.0
C243 C 0.40995 0.14852 0.76855 0.0
C244 C 0.41164 0.12512 0.77991 0.0
C245 C 0.4066 0.12525 0.80076 0.0
C246 C 0.39978 0.14876 0.81078 0.0
C247 C 0.39784 0.17207 0.79935 0.0
C248 C 0.40295 0.17195 0.77851 0.0
C249 C 0.38715 0.1597 0.67777 0.0
C250 C 0.33362 0.11887 0.71867 0.0
C251 C 0.34093 0.08375 0.64621 0.0
C252 C 0.3455 0.06903 0.62708 0.0
C253 C 0.37091 0.06136 0.62108 0.0
C254 C 0.37483 0.04786 0.60272 0.0
C255 C 0.35342 0.04175 0.58987 0.0
C256 C 0.32801 0.04958 0.59604 0.0
C257 C 0.32414 0.06303 0.61439 0.0
C258 C 0.39256 0.06987 0.7073 0.0
C259 C 0.4315 0.10754 0.67538 0.0
O260 O 0.42412 0.127 0.73818 0.0
O261 O 0.40049 0.16279 0.7349 0.0
O262 O 0.40881 0.16103 0.68814 0.0
O263 O 0.37103 0.14388 0.68587 0.0
O264 O 0.35561 0.12931 0.72568 0.0
O265 O 0.33257 0.10686 0.70077 0.0
O266 O 0.35183 0.10708 0.64758 0.0
O267 O 0.34239 0.07045 0.66317 0.0
O268 O 0.39175 0.06329 0.68826 0.0
O269 O 0.37975 0.09063 0.71012 0.0
O270 O 0.40926 0.10593 0.66497 0.0
O271 O 0.43154 0.11222 0.69507 0.0
H272 H 0.41705 0.1067 0.77277 0.0
H273 H 0.40799 0.10688 0.80903 0.0
H274 H 0.39301 0.1906 0.80659 0.0
H275 H 0.40173 0.19031 0.7702 0.0
H276 H 0.38775 0.06591 0.63056 0.0
H277 H 0.39472 0.04251 0.59848 0.0
H278 H 0.31096 0.04496 0.58684 0.0
H279 H 0.30435 0.06874 0.61869 0.0
Nd280 Nd 0.12343 0.14516 0.96373 0.0
Nd281 Nd 0.154 0.11618 0.92636 0.0
C282 C 0.11424 0.1699 0.99815 0.0
C283 C 0.12064 0.16622 0.0197 0.0
C284 C 0.12905 0.14163 0.02696 0.0
C285 C 0.13217 0.13747 0.04776 0.0
C286 C 0.12692 0.15783 0.06166 0.0
C287 C 0.11952 0.18273 0.05421 0.0
C288 C 0.11637 0.18685 0.03339 0.0
C289 C 0.08759 0.12684 0.93552 0.0
C290 C 0.14007 0.08283 0.96876 0.0
C291 C 0.16935 0.08888 0.8941 0.0
C292 C 0.18325 0.09318 0.87462 0.0
C293 C 0.19146 0.07144 0.86312 0.0
C294 C 0.20503 0.075 0.8448 0.0
C295 C 0.21077 0.10046 0.83749 0.0
C296 C 0.20226 0.12224 0.84909 0.0
C297 C 0.1887 0.11864 0.86744 0.0
C298 C 0.18407 0.14143 0.95515 0.0
C299 C 0.14004 0.17938 0.92294 0.0
O300 O 0.1337 0.17637 0.98602 0.0
O301 O 0.0983 0.15224 0.99038 0.0
O302 O 0.08102 0.13872 0.95217 0.0
O303 O 0.11233 0.12512 0.93468 0.0
O304 O 0.13321 0.10517 0.97759 0.0
O305 O 0.14621 0.08127 0.94911 0.0
O306 O 0.14584 0.09932 0.89594 0.0
O307 O 0.18348 0.0911 0.91063 0.0
O308 O 0.19129 0.1399 0.93624 0.0
O309 O 0.16326 0.1286 0.95776 0.0
O310 O 0.14686 0.15759 0.91314 0.0
O311 O 0.13288 0.17959 0.94226 0.0
H312 H 0.13246 0.12543 0.01662 0.0
H313 H 0.13826 0.11819 0.05298 0.0
H314 H 0.11507 0.19875 0.06449 0.0
H315 H 0.10976 0.20592 0.02805 0.0
H316 H 0.18755 0.05161 0.86839 0.0
H317 H 0.21152 0.0577 0.8366 0.0
H318 H 0.2059 0.14216 0.84394 0.0
H319 H 0.18253 0.13573 0.87604 0.0
Nd320 Nd 0.87121 0.89995 0.6754 0.0
Nd321 Nd 0.90289 0.87684 0.70966 0.0
C322 C 0.84958 0.91045 0.6395 0.0
C323 C 0.85409 0.92648 0.62088 0.0
C324 C 0.85139 0.91479 0.60169 0.0
C325 C 0.85397 0.92983 0.58393 0.0
C326 C 0.85928 0.95708 0.58486 0.0
C327 C 0.86223 0.96865 0.60417 0.0
C328 C 0.85973 0.95358 0.62191 0.0
C329 C 0.88772 0.93733 0.70235 0.0
C330 C 0.93686 0.89233 0.67091 0.0
C331 C 0.92253 0.86071 0.74468 0.0
C332 C 0.91637 0.86337 0.76641 0.0
C333 C 0.93698 0.86488 0.7805 0.0
C334 C 0.9316 0.86592 0.80126 0.0
C335 C 0.90545 0.86536 0.80834 0.0
C336 C 0.8848 0.86443 0.79414 0.0
C337 C 0.8902 0.86355 0.77337 0.0
C338 C 0.88775 0.84137 0.68049 0.0
C339 C 0.84165 0.89185 0.71797 0.0
O340 O 0.86506 0.89027 0.6427 0.0
O341 O 0.84375 0.92301 0.6562 0.0
O342 O 0.86616 0.93916 0.69194 0.0
O343 O 0.90133 0.9178 0.69681 0.0
O344 O 0.9139 0.89703 0.66192 0.0
O345 O 0.93834 0.88662 0.69033 0.0
O346 O 0.93093 0.88181 0.73532 0.0
O347 O 0.90596 0.8469 0.73382 0.0
O348 O 0.91105 0.84228 0.68842 0.0
O349 O 0.87278 0.85875 0.68799 0.0
O350 O 0.86585 0.89235 0.72504 0.0
O351 O 0.83748 0.8897 0.69818 0.0
H352 H 0.84699 0.89397 0.60042 0.0
H353 H 0.85193 0.92001 0.56946 0.0
H354 H 0.86591 0.98956 0.60569 0.0
H355 H 0.86184 0.96328 0.63643 0.0
H356 H 0.95729 0.86476 0.77544 0.0
H357 H 0.94796 0.86638 0.81179 0.0
H358 H 0.86445 0.86433 0.7991 0.0
H359 H 0.87393 0.8626 0.76277 0.0
Nd360 Nd 0.84914 0.11261 0.42509 0.0
Nd361 Nd 0.87017 0.14739 0.45938 0.0
C362 C 0.83942 0.09 0.38939 0.0
C363 C 0.82402 0.09465 0.37057 0.0
C364 C 0.81688 0.12013 0.36431 0.0
C365 C 0.80196 0.12389 0.34659 0.0
C366 C 0.79372 0.10227 0.33468 0.0
C367 C 0.80113 0.07682 0.34103 0.0
C368 C 0.81604 0.0731 0.35872 0.0
C369 C 0.81154 0.1267 0.45263 0.0
C370 C 0.85156 0.17838 0.41976 0.0
C371 C 0.8832 0.17018 0.49412 0.0
C372 C 0.88137 0.16537 0.51623 0.0
C373 C 0.86825 0.18364 0.52859 0.0
C374 C 0.86788 0.18056 0.54965 0.0
C375 C 0.88071 0.15913 0.55891 0.0
C376 C 0.89327 0.14044 0.54646 0.0
C377 C 0.89364 0.14355 0.52538 0.0
C378 C 0.90653 0.13433 0.43025 0.0
C379 C 0.86313 0.08413 0.46737 0.0
O380 O 0.85969 0.10532 0.39285 0.0
O381 O 0.82602 0.08496 0.40583 0.0
O382 O 0.81075 0.10485 0.44251 0.0
O383 O 0.82986 0.14143 0.44649 0.0
O384 O 0.84987 0.15483 0.41108 0.0
O385 O 0.8564 0.18104 0.43927 0.0
O386 O 0.86131 0.17538 0.48446 0.0
O387 O 0.89921 0.15524 0.48366 0.0
O388 O 0.90431 0.15757 0.43822 0.0
O389 O 0.8901 0.11837 0.43783 0.0
O390 O 0.86137 0.10808 0.47497 0.0
O391 O 0.86284 0.0801 0.4475 0.0
H392 H 0.82277 0.13713 0.37315 0.0
H393 H 0.79702 0.14383 0.34218 0.0
H394 H 0.79492 0.05962 0.33258 0.0
H395 H 0.82119 0.05324 0.36325 0.0
H396 H 0.85862 0.20062 0.52195 0.0
H397 H 0.85765 0.19511 0.55871 0.0
H398 H 0.90359 0.12384 0.55303 0.0
H399 H 0.90406 0.12915 0.51632 0.0
Nd400 Nd 0.63332 0.09793 0.1763 0.0
Nd401 Nd 0.6002 0.12255 0.21385 0.0
C402 C 0.66091 0.08537 0.14348 0.0
C403 C 0.65774 0.06943 0.12456 0.0
C404 C 0.65955 0.08161 0.10546 0.0
C405 C 0.65797 0.06672 0.08751 0.0
C406 C 0.65476 0.03915 0.08816 0.0
C407 C 0.65247 0.02709 0.10733 0.0
C408 C 0.65392 0.04198 0.12523 0.0
C409 C 0.60778 0.06281 0.20137 0.0
C410 C 0.56943 0.10834 0.17167 0.0
C411 C 0.57505 0.12952 0.24858 0.0
C412 C 0.58031 0.12885 0.27064 0.0
C413 C 0.58963 0.10615 0.28054 0.0
C414 C 0.595 0.10671 0.30141 0.0
C415 C 0.5914 0.13001 0.31266 0.0
C416 C 0.58183 0.15251 0.30268 0.0
C417 C 0.57628 0.15189 0.28197 0.0
C418 C 0.61655 0.16217 0.18775 0.0
C419 C 0.66419 0.11451 0.21916 0.0
O420 O 0.64712 0.10711 0.14501 0.0
O421 O 0.66271 0.07268 0.16073 0.0
O422 O 0.61143 0.05885 0.18213 0.0
O423 O 0.61928 0.08368 0.2067 0.0
O424 O 0.5925 0.10617 0.16236 0.0
O425 O 0.56727 0.11117 0.19156 0.0
O426 O 0.57452 0.10726 0.2385 0.0
O427 O 0.58658 0.14853 0.23859 0.0
O428 O 0.60286 0.16621 0.204 0.0
O429 O 0.62072 0.13782 0.18604 0.0
O430 O 0.6411 0.11896 0.22776 0.0
O431 O 0.66671 0.10815 0.19962 0.0
H432 H 0.66261 0.10268 0.10439 0.0
H433 H 0.66004 0.07675 0.07313 0.0
H434 H 0.64954 0.00602 0.10854 0.0
H435 H 0.65228 0.03185 0.13961 0.0
H436 H 0.59298 0.08809 0.27219 0.0
H437 H 0.60245 0.08908 0.30865 0.0
H438 H 0.57839 0.17064 0.31093 0.0
H439 H 0.56895 0.1696 0.27473 0.0
Nd440 Nd 0.65716 0.88579 0.92576 0.0
Nd441 Nd 0.63799 0.85264 0.96102 0.0
C442 C 0.66558 0.90748 0.88952 0.0
C443 C 0.68154 0.90273 0.87096 0.0
C444 C 0.67284 0.91231 0.85213 0.0
C445 C 0.68853 0.90966 0.83469 0.0
C446 C 0.71344 0.89747 0.83565 0.0
C447 C 0.7217 0.88721 0.85448 0.0
C448 C 0.70597 0.88977 0.87188 0.0
C449 C 0.69696 0.86908 0.95073 0.0
C450 C 0.65059 0.8202 0.92083 0.0
C451 C 0.62654 0.83215 0.99693 0.0
C452 C 0.62843 0.83879 0.01875 0.0
C453 C 0.64017 0.82084 0.03214 0.0
C454 C 0.64012 0.82555 0.05303 0.0
C455 C 0.62812 0.84828 0.06108 0.0
C456 C 0.61713 0.86668 0.04754 0.0
C457 C 0.61733 0.86203 0.02662 0.0
C458 C 0.59897 0.86767 0.93443 0.0
C459 C 0.65067 0.91486 0.96853 0.0
O460 O 0.64615 0.89125 0.89325 0.0
O461 O 0.6784 0.91402 0.90595 0.0
O462 O 0.69732 0.89132 0.94113 0.0
O463 O 0.67726 0.85549 0.94561 0.0
O464 O 0.65251 0.84366 0.91207 0.0
O465 O 0.6477 0.8178 0.9406 0.0
O466 O 0.64845 0.8271 0.98728 0.0
O467 O 0.60985 0.84567 0.98602 0.0
O468 O 0.60071 0.84462 0.94277 0.0
O469 O 0.61725 0.88275 0.94054 0.0
O470 O 0.65261 0.89073 0.97564 0.0
O471 O 0.64687 0.91896 0.94889 0.0
H472 H 0.65409 0.92239 0.851 0.0
H473 H 0.6815 0.91799 0.82059 0.0
H474 H 0.7405 0.87728 0.85584 0.0
H475 H 0.71311 0.88199 0.88614 0.0
H476 H 0.64897 0.80285 0.02645 0.0
H477 H 0.64928 0.81119 0.0629 0.0
H478 H 0.60751 0.88429 0.0531 0.0
H479 H 0.60821 0.87634 0.01669 0.0
Nd480 Nd 0.86772 0.09677 0.84322 0.0
Nd481 Nd 0.89788 0.12421 0.80868 0.0
C482 C 0.84106 0.08175 0.87601 0.0
C483 C 0.84543 0.06675 0.89511 0.0
C484 C 0.87056 0.06467 0.90392 0.0
C485 C 0.87414 0.05103 0.92227 0.0
C486 C 0.85269 0.03903 0.93232 0.0
C487 C 0.82757 0.04118 0.92333 0.0
C488 C 0.82403 0.05483 0.905 0.0
C489 C 0.89177 0.06388 0.81565 0.0
C490 C 0.93161 0.10259 0.84635 0.0
C491 C 0.91857 0.14103 0.77421 0.0
C492 C 0.91304 0.14129 0.75231 0.0
C493 C 0.89217 0.12674 0.74394 0.0
C494 C 0.88712 0.1278 0.72306 0.0
C495 C 0.90274 0.1436 0.71026 0.0
C496 C 0.92368 0.15799 0.71882 0.0
C497 C 0.92875 0.15682 0.73961 0.0
C498 C 0.88885 0.15609 0.84172 0.0
C499 C 0.83414 0.1146 0.8026 0.0
O500 O 0.85305 0.10451 0.87433 0.0
O501 O 0.84109 0.06843 0.85902 0.0
O502 O 0.89074 0.05855 0.83488 0.0
O503 O 0.87958 0.08476 0.81195 0.0
O504 O 0.90916 0.10279 0.85653 0.0
O505 O 0.93207 0.10572 0.82649 0.0
O506 O 0.92438 0.11822 0.78237 0.0
O507 O 0.90314 0.15545 0.7856 0.0
O508 O 0.91049 0.15559 0.83131 0.0
O509 O 0.8723 0.13993 0.83447 0.0
O510 O 0.85659 0.12324 0.79503 0.0
O511 O 0.83265 0.10411 0.82103 0.0
H512 H 0.88744 0.07372 0.89668 0.0
H513 H 0.89374 0.05023 0.92869 0.0
H514 H 0.81059 0.03195 0.93028 0.0
H515 H 0.80444 0.05611 0.89854 0.0
H516 H 0.8797 0.11475 0.75356 0.0
H517 H 0.87071 0.11666 0.717 0.0
H518 H 0.93636 0.17003 0.70942 0.0
H519 H 0.94496 0.16816 0.74581 0.0
Nd520 Nd 0.65125 0.11044 0.59586 0.0
Nd521 Nd 0.62855 0.14489 0.56216 0.0
C522 C 0.66178 0.08757 0.63127 0.0
C523 C 0.67672 0.09239 0.65024 0.0
C524 C 0.68588 0.07086 0.66157 0.0
C525 C 0.70043 0.07474 0.67939 0.0
C526 C 0.70625 0.10032 0.68639 0.0
C527 C 0.69684 0.12191 0.675 0.0
C528 C 0.68228 0.11799 0.65713 0.0
C529 C 0.68782 0.12547 0.56785 0.0
C530 C 0.64788 0.17622 0.60137 0.0
C531 C 0.61348 0.16645 0.5275 0.0
C532 C 0.61389 0.15979 0.50557 0.0
C533 C 0.63636 0.16444 0.4936 0.0
C534 C 0.6361 0.15889 0.47281 0.0
C535 C 0.61338 0.14859 0.46347 0.0
C536 C 0.59102 0.14377 0.4755 0.0
C537 C 0.59125 0.1494 0.49624 0.0
C538 C 0.5936 0.131 0.59201 0.0
C539 C 0.63756 0.0819 0.55355 0.0
O540 O 0.64085 0.10199 0.62794 0.0
O541 O 0.67559 0.08362 0.61485 0.0
O542 O 0.68934 0.10361 0.57789 0.0
O543 O 0.66939 0.13982 0.5743 0.0
O544 O 0.65016 0.15266 0.60996 0.0
O545 O 0.64252 0.17886 0.58193 0.0
O546 O 0.63592 0.17198 0.53632 0.0
O547 O 0.59789 0.15241 0.539 0.0
O548 O 0.59517 0.15439 0.58422 0.0
O549 O 0.60991 0.11537 0.58391 0.0
O550 O 0.63803 0.106 0.54618 0.0
O551 O 0.63847 0.07763 0.57337 0.0
H552 H 0.68195 0.05093 0.65651 0.0
H553 H 0.70761 0.0576 0.68744 0.0
H554 H 0.70057 0.1419 0.67993 0.0
H555 H 0.67545 0.13495 0.64868 0.0
H556 H 0.65412 0.17254 0.50023 0.0
H557 H 0.65374 0.16263 0.46404 0.0
H558 H 0.57305 0.13627 0.46879 0.0
H559 H 0.5735 0.14587 0.50494 0.0
Nd560 Nd 0.63701 0.90257 0.34406 0.0
Nd561 Nd 0.60108 0.88499 0.30962 0.0
C562 C 0.66001 0.91148 0.37971 0.0
C563 C 0.65513 0.92729 0.3984 0.0
C564 C 0.65812 0.91572 0.4176 0.0
C565 C 0.65454 0.9306 0.43537 0.0
C566 C 0.64792 0.95756 0.43443 0.0
C567 C 0.64488 0.96902 0.41509 0.0
C568 C 0.64833 0.95412 0.39737 0.0
C569 C 0.6211 0.94239 0.31875 0.0
C570 C 0.57153 0.8978 0.35094 0.0
C571 C 0.57747 0.87684 0.27432 0.0
C572 C 0.58432 0.8752 0.2526 0.0
C573 C 0.60288 0.8922 0.24371 0.0
C574 C 0.60938 0.88966 0.22314 0.0
C575 C 0.59747 0.87005 0.21111 0.0
C576 C 0.57874 0.85328 0.22013 0.0
C577 C 0.5723 0.85583 0.24062 0.0
C578 C 0.61635 0.84509 0.33533 0.0
C579 C 0.66433 0.89345 0.30067 0.0
O580 O 0.64457 0.89131 0.37629 0.0
O581 O 0.66562 0.9244 0.36315 0.0
O582 O 0.64399 0.94153 0.32736 0.0
O583 O 0.6068 0.9238 0.325 0.0
O584 O 0.59548 0.89822 0.35904 0.0
O585 O 0.56804 0.89629 0.3312 0.0
O586 O 0.57891 0.89996 0.28303 0.0
O587 O 0.58626 0.85784 0.28582 0.0
O588 O 0.59301 0.84738 0.3275 0.0
O589 O 0.6316 0.86308 0.329 0.0
O590 O 0.63995 0.89489 0.29393 0.0
O591 O 0.66918 0.89112 0.32038 0.0
H592 H 0.66335 0.89509 0.41888 0.0
H593 H 0.65674 0.92085 0.44985 0.0
H594 H 0.64026 0.98974 0.41354 0.0
H595 H 0.64591 0.96373 0.38285 0.0
H596 H 0.61244 0.90732 0.25266 0.0
H597 H 0.62404 0.90277 0.21677 0.0
H598 H 0.56881 0.83828 0.21131 0.0
H599 H 0.55787 0.84257 0.24715 0.0
Nd600 Nd 0.85278 0.8848 0.09443 0.0
Nd601 Nd 0.88257 0.85586 0.05713 0.0
C602 C 0.83714 0.91061 0.12735 0.0
C603 C 0.82182 0.90573 0.14629 0.0
C604 C 0.83132 0.91504 0.16499 0.0
C605 C 0.81641 0.91209 0.18281 0.0
C606 C 0.79147 0.89991 0.18237 0.0
C607 C 0.78234 0.88999 0.16367 0.0
C608 C 0.79731 0.89281 0.14591 0.0
C609 C 0.82208 0.86115 0.06538 0.0
C610 C 0.86504 0.82115 0.09727 0.0
C611 C 0.89048 0.8314 0.02237 0.0
C612 C 0.88557 0.83599 1.00069 0.0
C613 C 0.88167 0.86158 0.99318 0.0
C614 C 0.87992 0.86597 0.9723 0.0
C615 C 0.88189 0.84484 0.95857 0.0
C616 C 0.88478 0.81914 0.96626 0.0
C617 C 0.88667 0.81479 0.98713 0.0
C618 C 0.9191 0.87146 0.08572 0.0
C619 C 0.87034 0.91919 0.05303 0.0
O620 O 0.86034 0.89944 0.12579 0.0
O621 O 0.82413 0.91064 0.11019 0.0
O622 O 0.81535 0.86181 0.08442 0.0
O623 O 0.84309 0.87368 0.06271 0.0
O624 O 0.85868 0.84294 0.10723 0.0
O625 O 0.87221 0.82115 0.07797 0.0
O626 O 0.8699 0.82677 0.03388 0.0
O627 O 0.90782 0.84705 0.03084 0.0
O628 O 0.92503 0.85941 0.069 0.0
O629 O 0.89444 0.87461 0.08666 0.0
O630 O 0.87788 0.89709 0.0442 0.0
O631 O 0.86161 0.92009 0.07215 0.0
H632 H 0.85013 0.92509 0.16575 0.0
H633 H 0.82407 0.92017 0.19681 0.0
H634 H 0.76348 0.88009 0.16272 0.0
H635 H 0.78947 0.88516 0.13182 0.0
H636 H 0.88066 0.87822 1.00343 0.0
H637 H 0.87735 0.88595 0.96688 0.0
H638 H 0.88661 0.80247 0.95611 0.0
H639 H 0.88976 0.79493 0.99265 0.0
Nd640 Nd 0.60617 0.62179 0.80838 0.0
Nd641 Nd 0.638 0.59983 0.84381 0.0
C642 C 0.58695 0.63604 0.77265 0.0
C643 C 0.59319 0.63366 0.75072 0.0
C644 C 0.58351 0.61258 0.73904 0.0
C645 C 0.58802 0.61166 0.71809 0.0
C646 C 0.60233 0.63177 0.70835 0.0
C647 C 0.61233 0.65258 0.72012 0.0
C648 C 0.60773 0.65357 0.74098 0.0
C649 C 0.62165 0.65904 0.83622 0.0
C650 C 0.66794 0.6066 0.80146 0.0
C651 C 0.65888 0.58986 0.88007 0.0
C652 C 0.65419 0.57359 0.89853 0.0
C653 C 0.65711 0.58491 0.91785 0.0
C654 C 0.65476 0.56952 0.93546 0.0
C655 C 0.64957 0.54229 0.93421 0.0
C656 C 0.64595 0.53117 0.91482 0.0
C657 C 0.64819 0.54659 0.89724 0.0
C658 C 0.62016 0.56164 0.81774 0.0
C659 C 0.57276 0.60912 0.84806 0.0
O660 O 0.57888 0.61506 0.78239 0.0
O661 O 0.60273 0.6507 0.78352 0.0
O662 O 0.59889 0.65844 0.82737 0.0
O663 O 0.63635 0.6405 0.83001 0.0
O664 O 0.64391 0.60602 0.79401 0.0
O665 O 0.67186 0.60957 0.8212 0.0
O666 O 0.64289 0.60955 0.87662 0.0
O667 O 0.66564 0.57759 0.86345 0.0
O668 O 0.6416 0.55936 0.82821 0.0
O669 O 0.60762 0.58197 0.82289 0.0
O670 O 0.59594 0.60608 0.85707 0.0
O671 O 0.57076 0.61244 0.8283 0.0
H672 H 0.57212 0.59698 0.74602 0.0
H673 H 0.58021 0.59523 0.7095 0.0
H674 H 0.62305 0.66863 0.71312 0.0
H675 H 0.61519 0.6703 0.74941 0.0
H676 H 0.66181 0.60565 0.91931 0.0
H677 H 0.65788 0.57882 0.95003 0.0
H678 H 0.64146 0.51042 0.91318 0.0
H679 H 0.64561 0.53725 0.88262 0.0
Nd680 Nd 0.6276 0.35373 0.0593 0.0
Nd681 Nd 0.64962 0.38551 0.09442 0.0
C682 C 0.61296 0.33471 0.02364 0.0
C683 C 0.61627 0.34063 1.00178 0.0
C684 C 0.63957 0.33433 0.9913 0.0
C685 C 0.64172 0.3393 0.97048 0.0
C686 C 0.62065 0.35065 0.95971 0.0
C687 C 0.59749 0.35708 0.97027 0.0
C688 C 0.5953 0.35203 0.991 0.0
C689 C 0.59036 0.36926 0.08715 0.0
C690 C 0.64304 0.41517 0.05192 0.0
C691 C 0.65915 0.40679 0.13061 0.0
C692 C 0.67542 0.40254 0.14912 0.0
C693 C 0.66441 0.40695 0.16836 0.0
C694 C 0.6799 0.4051 0.18595 0.0
C695 C 0.70692 0.39894 0.18475 0.0
C696 C 0.7177 0.39381 0.16545 0.0
C697 C 0.70218 0.39555 0.14789 0.0
C698 C 0.68784 0.36866 0.06817 0.0
C699 C 0.64163 0.31989 0.09857 0.0
O700 O 0.63322 0.32564 0.03376 0.0
O701 O 0.599 0.35153 0.03411 0.0
O702 O 0.5911 0.34637 0.0785 0.0
O703 O 0.60885 0.38391 0.08082 0.0
O704 O 0.64384 0.39107 0.04463 0.0
O705 O 0.63986 0.4192 0.07163 0.0
O706 O 0.63971 0.39046 0.12719 0.0
O707 O 0.67145 0.41354 0.114 0.0
O708 O 0.68983 0.39003 0.07878 0.0
O709 O 0.66783 0.35554 0.07332 0.0
O710 O 0.64544 0.34302 0.10754 0.0
O711 O 0.63682 0.31813 0.07898 0.0
H712 H 0.65605 0.32536 0.9991 0.0
H713 H 0.6599 0.33426 0.96282 0.0
H714 H 0.5807 0.36538 0.96241 0.0
H715 H 0.57697 0.35679 0.99857 0.0
H716 H 0.64386 0.41243 0.16976 0.0
H717 H 0.67088 0.40938 0.20045 0.0
H718 H 0.73827 0.38855 0.16387 0.0
H719 H 0.71125 0.39184 0.13332 0.0
Nd720 Nd 0.89517 0.37763 0.3101 0.0
Nd721 Nd 0.8647 0.40171 0.34468 0.0
C722 C 0.91562 0.36072 0.27556 0.0
C723 C 0.91251 0.36337 0.25356 0.0
C724 C 0.89347 0.38009 0.24506 0.0
C725 C 0.89013 0.38108 0.224 0.0
C726 C 0.90578 0.36534 0.21118 0.0
C727 C 0.92483 0.34872 0.21993 0.0
C728 C 0.92816 0.3478 0.24089 0.0
C729 C 0.8786 0.34162 0.33854 0.0
C730 C 0.83467 0.39515 0.30214 0.0
C731 C 0.84311 0.41247 0.38052 0.0
C732 C 0.8485 0.42727 0.39948 0.0
C733 C 0.83776 0.41838 0.41785 0.0
C734 C 0.84155 0.43263 0.43585 0.0
C735 C 0.85622 0.45622 0.43595 0.0
C736 C 0.8672 0.4649 0.41747 0.0
C737 C 0.86342 0.45059 0.39948 0.0
C738 C 0.88285 0.43854 0.31775 0.0
C739 C 0.92977 0.39174 0.34912 0.0
O740 O 0.92478 0.3811 0.28546 0.0
O741 O 0.89651 0.34871 0.28508 0.0
O742 O 0.90147 0.34156 0.32991 0.0
O743 O 0.86451 0.36037 0.33193 0.0
O744 O 0.85874 0.39474 0.29482 0.0
O745 O 0.83062 0.39288 0.32193 0.0
O746 O 0.85723 0.3914 0.37702 0.0
O747 O 0.83885 0.42625 0.36412 0.0
O748 O 0.86135 0.44138 0.3281 0.0
O749 O 0.89534 0.41831 0.3233 0.0
O750 O 0.90712 0.39747 0.35818 0.0
O751 O 0.93085 0.38567 0.32974 0.0
H752 H 0.88108 0.39213 0.25468 0.0
H753 H 0.87542 0.39423 0.21777 0.0
H754 H 0.93685 0.33594 0.21061 0.0
H755 H 0.94274 0.33458 0.24724 0.0
H756 H 0.82621 0.40043 0.41825 0.0
H757 H 0.83312 0.425 0.44971 0.0
H758 H 0.8783 0.48309 0.41676 0.0
H759 H 0.87192 0.45793 0.38553 0.0
Nd760 Nd 0.88032 0.64606 0.55509 0.0
Nd761 Nd 0.85156 0.6171 0.59316 0.0
C762 C 0.88776 0.67062 0.5203 0.0
C763 C 0.88259 0.66696 0.49858 0.0
C764 C 0.87454 0.64249 0.49084 0.0
C765 C 0.87242 0.63868 0.46988 0.0
C766 C 0.87841 0.65926 0.45633 0.0
C767 C 0.88579 0.68393 0.4643 0.0
C768 C 0.88783 0.68771 0.48521 0.0
C769 C 0.91738 0.63119 0.58339 0.0
C770 C 0.86991 0.58238 0.55232 0.0
C771 C 0.83686 0.59123 0.62626 0.0
C772 C 0.82109 0.59529 0.64511 0.0
C773 C 0.83296 0.59218 0.66423 0.0
C774 C 0.81802 0.59411 0.68211 0.0
C775 C 0.79072 0.59895 0.68134 0.0
C776 C 0.77902 0.60268 0.66218 0.0
C777 C 0.79396 0.60089 0.64434 0.0
C778 C 0.82017 0.63972 0.56403 0.0
C779 C 0.86309 0.68081 0.59535 0.0
O780 O 0.86745 0.67532 0.53207 0.0
O781 O 0.90488 0.65436 0.52832 0.0
O782 O 0.923 0.6431 0.56655 0.0
O783 O 0.89278 0.62795 0.5846 0.0
O784 O 0.8759 0.60446 0.54277 0.0
O785 O 0.862 0.58173 0.57162 0.0
O786 O 0.85941 0.60372 0.62476 0.0
O787 O 0.82414 0.59002 0.60899 0.0
O788 O 0.8134 0.63897 0.58306 0.0
O789 O 0.84138 0.62757 0.56144 0.0
O790 O 0.8572 0.6591 0.60554 0.0
O791 O 0.8699 0.68074 0.57597 0.0
H792 H 0.87053 0.62618 0.50096 0.0
H793 H 0.86636 0.61955 0.46431 0.0
H794 H 0.89096 0.70011 0.45439 0.0
H795 H 0.89429 0.70666 0.49093 0.0
H796 H 0.85378 0.58773 0.66534 0.0
H797 H 0.82773 0.59092 0.69651 0.0
H798 H 0.75817 0.60688 0.66092 0.0
H799 H 0.78409 0.60355 0.62994 0.0
Nd800 Nd 0.60918 0.37859 0.70939 0.0
Nd801 Nd 0.63973 0.40163 0.67436 0.0
C802 C 0.59062 0.3614 0.74453 0.0
C803 C 0.59595 0.36285 0.76644 0.0
C804 C 0.60659 0.38549 0.77558 0.0
C805 C 0.61193 0.38575 0.79644 0.0
C806 C 0.60705 0.36327 0.80837 0.0
C807 C 0.5964 0.34074 0.79906 0.0
C808 C 0.59089 0.34057 0.77834 0.0
C809 C 0.62353 0.34225 0.68043 0.0
C810 C 0.67039 0.39434 0.7163 0.0
C811 C 0.66023 0.412 0.63799 0.0
C812 C 0.65492 0.42791 0.61954 0.0
C813 C 0.67089 0.42474 0.60235 0.0
C814 C 0.66727 0.44058 0.58512 0.0
C815 C 0.64757 0.46013 0.58465 0.0
C816 C 0.63119 0.46281 0.60184 0.0
C817 C 0.63483 0.44691 0.61906 0.0
C818 C 0.62384 0.43915 0.70154 0.0
C819 C 0.57397 0.39488 0.67154 0.0
O820 O 0.58177 0.38254 0.73547 0.0
O821 O 0.60791 0.34857 0.73371 0.0
O822 O 0.60076 0.34323 0.6892 0.0
O823 O 0.63857 0.3603 0.68698 0.0
O824 O 0.64648 0.39486 0.72393 0.0
O825 O 0.67398 0.39156 0.69652 0.0
O826 O 0.64469 0.39198 0.64161 0.0
O827 O 0.66626 0.42493 0.65446 0.0
O828 O 0.64514 0.44108 0.69083 0.0
O829 O 0.61035 0.41943 0.69623 0.0
O830 O 0.59674 0.39875 0.66208 0.0
O831 O 0.57297 0.38914 0.69097 0.0
H832 H 0.61093 0.40282 0.76663 0.0
H833 H 0.6203 0.40334 0.80315 0.0
H834 H 0.59205 0.32325 0.80784 0.0
H835 H 0.58274 0.32291 0.77156 0.0
H836 H 0.68656 0.41025 0.60236 0.0
H837 H 0.6805 0.43801 0.57241 0.0
H838 H 0.61551 0.47726 0.60204 0.0
H839 H 0.62217 0.44967 0.63209 0.0
Nd840 Nd 0.87112 0.35329 0.96086 0.0
Nd841 Nd 0.84988 0.38597 0.9261 0.0
C842 C 0.88627 0.33285 0.99589 0.0
C843 C 0.88581 0.33947 0.01777 0.0
C844 C 0.86521 0.33093 0.03041 0.0
C845 C 0.86609 0.33574 0.05131 0.0
C846 C 0.88765 0.34906 0.05999 0.0
C847 C 0.90782 0.35819 0.0472 0.0
C848 C 0.907 0.35333 0.02642 0.0
C849 C 0.90847 0.36833 0.93297 0.0
C850 C 0.85757 0.41513 0.96875 0.0
C851 C 0.84108 0.4077 0.89002 0.0
C852 C 0.82512 0.40348 0.87139 0.0
C853 C 0.83672 0.40694 0.85224 0.0
C854 C 0.82157 0.40501 0.83449 0.0
C855 C 0.79436 0.39976 0.83548 0.0
C856 C 0.78298 0.39553 0.85469 0.0
C857 C 0.79815 0.39731 0.8724 0.0
C858 C 0.81126 0.36947 0.95219 0.0
C859 C 0.85608 0.32039 0.92158 0.0
O860 O 0.86409 0.32646 0.98704 0.0
O861 O 0.90136 0.3474 0.98441 0.0
O862 O 0.90692 0.34515 0.94106 0.0
O863 O 0.89054 0.38338 0.93965 0.0
O864 O 0.8567 0.39102 0.97601 0.0
O865 O 0.86036 0.41926 0.94903 0.0
O866 O 0.86042 0.39131 0.89353 0.0
O867 O 0.82853 0.41435 0.90655 0.0
O868 O 0.80973 0.39107 0.94182 0.0
O869 O 0.83098 0.35605 0.94686 0.0
O870 O 0.85402 0.34367 0.91254 0.0
O871 O 0.85963 0.31838 0.94128 0.0
H872 H 0.84867 0.32007 0.02424 0.0
H873 H 0.85031 0.32825 0.06074 0.0
H874 H 0.92448 0.36895 0.05327 0.0
H875 H 0.92327 0.36012 0.01718 0.0
H876 H 0.85747 0.41173 0.85103 0.0
H877 H 0.83101 0.40856 0.82003 0.0
H878 H 0.76221 0.39099 0.85607 0.0
H879 H 0.78864 0.39429 0.8869 0.0
Nd880 Nd 0.90219 0.62143 0.20904 0.0
Nd881 Nd 0.86782 0.59992 0.17587 0.0
C882 C 0.92416 0.63804 0.24317 0.0
C883 C 0.9186 0.63726 0.26505 0.0
C884 C 0.90324 0.61716 0.27368 0.0
C885 C 0.89697 0.6178 0.29434 0.0
C886 C 0.90571 0.63873 0.30663 0.0
C887 C 0.92124 0.65867 0.29788 0.0
C888 C 0.92763 0.6579 0.27731 0.0
C889 C 0.88738 0.6577 0.18032 0.0
C890 C 0.84058 0.60912 0.21908 0.0
C891 C 0.84487 0.59018 0.14033 0.0
C892 C 0.84902 0.57401 0.12177 0.0
C893 C 0.84478 0.58517 0.10256 0.0
C894 C 0.84685 0.56981 0.08491 0.0
C895 C 0.85304 0.5428 0.08605 0.0
C896 C 0.85797 0.53187 0.10533 0.0
C897 C 0.85603 0.54726 0.12293 0.0
C898 C 0.88424 0.56153 0.20216 0.0
C899 C 0.93336 0.60467 0.16948 0.0
O900 O 0.93057 0.61589 0.23432 0.0
O901 O 0.90803 0.65228 0.23235 0.0
O902 O 0.91108 0.65526 0.1873 0.0
O903 O 0.8719 0.64108 0.18825 0.0
O904 O 0.86507 0.60774 0.22552 0.0
O905 O 0.83557 0.61145 0.19943 0.0
O906 O 0.86082 0.61003 0.14338 0.0
O907 O 0.83911 0.57773 0.15709 0.0
O908 O 0.86208 0.56064 0.19248 0.0
O909 O 0.89823 0.58059 0.19621 0.0
O910 O 0.90963 0.6029 0.1611 0.0
O911 O 0.93627 0.60852 0.18908 0.0
H912 H 0.89578 0.60121 0.26442 0.0
H913 H 0.88478 0.60229 0.3006 0.0
H914 H 0.92856 0.67486 0.30698 0.0
H915 H 0.93939 0.67365 0.2709 0.0
H916 H 0.83932 0.60573 0.10122 0.0
H917 H 0.84273 0.57892 0.07042 0.0
H918 H 0.86324 0.5113 0.10684 0.0
H919 H 0.85967 0.53808 0.13748 0.0
Nd920 Nd 0.63229 0.65298 0.45917 0.0
Nd921 Nd 0.65272 0.61834 0.42561 0.0
C922 C 0.61785 0.67492 0.49392 0.0
C923 C 0.61782 0.66838 0.51572 0.0
C924 C 0.63866 0.6545 0.52481 0.0
C925 C 0.63774 0.64818 0.54548 0.0
C926 C 0.61586 0.65541 0.55738 0.0
C927 C 0.59508 0.66926 0.54813 0.0
C928 C 0.59609 0.67568 0.52755 0.0
C929 C 0.59526 0.63881 0.43086 0.0
C930 C 0.64092 0.59039 0.46828 0.0
C931 C 0.66286 0.59575 0.38995 0.0
C932 C 0.67907 0.60027 0.37144 0.0
C933 C 0.66972 0.592 0.35243 0.0
C934 C 0.68544 0.59442 0.33499 0.0
C935 C 0.71104 0.60509 0.33611 0.0
C936 C 0.72004 0.61401 0.35515 0.0
C937 C 0.70428 0.61167 0.37256 0.0
C938 C 0.69125 0.63367 0.45219 0.0
C939 C 0.64851 0.68392 0.4193 0.0
O940 O 0.64061 0.6793 0.48528 0.0
O941 O 0.60193 0.66114 0.48253 0.0
O942 O 0.59795 0.66241 0.43803 0.0
O943 O 0.6119 0.62309 0.43847 0.0
O944 O 0.64333 0.61461 0.47516 0.0
O945 O 0.6397 0.58591 0.44848 0.0
O946 O 0.64278 0.61137 0.39304 0.0
O947 O 0.67542 0.5902 0.40669 0.0
O948 O 0.69114 0.61124 0.44285 0.0
O949 O 0.67285 0.64831 0.44599 0.0
O950 O 0.64992 0.66015 0.41097 0.0
O951 O 0.64501 0.68695 0.43894 0.0
H952 H 0.65554 0.6484 0.51593 0.0
H953 H 0.65394 0.63728 0.55208 0.0
H954 H 0.57813 0.67546 0.55686 0.0
H955 H 0.5798 0.68636 0.52084 0.0
H956 H 0.65038 0.58311 0.35113 0.0
H957 H 0.67781 0.58713 0.32073 0.0
H958 H 0.7394 0.62277 0.35666 0.0
H959 H 0.71198 0.61844 0.38695 0.0
Nd960 Nd 0.3634 0.40756 0.17651 0.0
Nd961 Nd 0.39778 0.38662 0.21041 0.0
C962 C 0.34034 0.41672 0.14098 0.0
C963 C 0.34501 0.43245 0.12235 0.0
C964 C 0.33702 0.42256 0.10346 0.0
C965 C 0.34049 0.43746 0.08574 0.0
C966 C 0.35203 0.46271 0.08646 0.0
C967 C 0.3602 0.47243 0.10548 0.0
C968 C 0.35682 0.45748 0.12317 0.0
C969 C 0.38058 0.44624 0.20223 0.0
C970 C 0.42881 0.40166 0.17011 0.0
C971 C 0.41987 0.37298 0.2452 0.0
C972 C 0.41318 0.37538 0.26683 0.0
C973 C 0.43331 0.37709 0.28129 0.0
C974 C 0.42723 0.37765 0.30195 0.0
C975 C 0.40086 0.37644 0.30851 0.0
C976 C 0.38071 0.37544 0.2939 0.0
C977 C 0.38681 0.37493 0.27326 0.0
C978 C 0.38195 0.34907 0.18292 0.0
C979 C 0.33582 0.39895 0.21977 0.0
O980 O 0.356 0.39672 0.14425 0.0
O981 O 0.33493 0.42972 0.15756 0.0
O982 O 0.35842 0.44742 0.19257 0.0
O983 O 0.39403 0.4267 0.19656 0.0
O984 O 0.4051 0.40389 0.16177 0.0
O985 O 0.43176 0.39782 0.18972 0.0
O986 O 0.42589 0.3947 0.23561 0.0
O987 O 0.40481 0.35735 0.23454 0.0
O988 O 0.40535 0.3506 0.19067 0.0
O989 O 0.36704 0.36689 0.18996 0.0
O990 O 0.36024 0.40021 0.2264 0.0
O991 O 0.331 0.39661 0.20009 0.0
H992 H 0.32795 0.40328 0.10241 0.0
H993 H 0.3343 0.42902 0.07145 0.0
H994 H 0.36881 0.49187 0.10683 0.0
H995 H 0.3632 0.46562 0.13753 0.0
H996 H 0.45377 0.37743 0.27661 0.0
H997 H 0.44323 0.37817 0.31281 0.0
H998 H 0.3602 0.37487 0.29842 0.0
H999 H 0.37093 0.37365 0.26236 0.0
Nd1000 Nd 0.35085 0.62058 0.92793 0.0
Nd1001 Nd 0.37622 0.65312 0.96145 0.0
C1002 C 0.33739 0.5922 0.89572 0.0
C1003 C 0.3212 0.59514 0.87702 0.0
C1004 C 0.33237 0.58968 0.85798 0.0
C1005 C 0.31726 0.59151 0.8402 0.0
C1006 C 0.29048 0.59868 0.84102 0.0
C1007 C 0.27949 0.60459 0.8601 0.0
C1008 C 0.29463 0.60291 0.87784 0.0
C1009 C 0.31556 0.64604 0.95305 0.0
C1010 C 0.35676 0.68409 0.9221 0.0
C1011 C 0.39247 0.67578 0.99532 0.0
C1012 C 0.39202 0.67119 0.01733 0.0
C1013 C 0.37358 0.65418 0.02631 0.0
C1014 C 0.37378 0.65012 0.04733 0.0
C1015 C 0.39244 0.66298 0.05968 0.0
C1016 C 0.41105 0.67968 0.05043 0.0
C1017 C 0.41079 0.68374 0.02951 0.0
C1018 C 0.40961 0.64205 0.92965 0.0
C1019 C 0.36735 0.58977 0.96983 0.0
O1020 O 0.35908 0.60611 0.89673 0.0
O1021 O 0.32506 0.5909 0.91313 0.0
O1022 O 0.3118 0.64291 0.93375 0.0
O1023 O 0.33648 0.63478 0.95835 0.0
O1024 O 0.35804 0.66095 0.91298 0.0
O1025 O 0.35794 0.68589 0.94202 0.0
O1026 O 0.37 0.68142 0.98657 0.0
O1027 O 0.40706 0.65969 0.98467 0.0
O1028 O 0.40856 0.66443 0.93905 0.0
O1029 O 0.39348 0.62585 0.93732 0.0
O1030 O 0.37465 0.61292 0.97696 0.0
O1031 O 0.35833 0.58686 0.95109 0.0
H1032 H 0.35279 0.58366 0.85687 0.0
H1033 H 0.32638 0.5866 0.82586 0.0
H1034 H 0.25908 0.61059 0.86135 0.0
H1035 H 0.28543 0.60752 0.89221 0.0
H1036 H 0.35902 0.64415 0.0171 0.0
H1037 H 0.35907 0.63727 0.05393 0.0
H1038 H 0.42604 0.68949 0.05935 0.0
H1039 H 0.42535 0.6967 0.02281 0.0
Nd1040 Nd 0.13911 0.60185 0.67784 0.0
Nd1041 Nd 0.10709 0.62414 0.71235 0.0
C1042 C 0.16045 0.59235 0.6417 0.0
C1043 C 0.15523 0.57659 0.62307 0.0
C1044 C 0.15812 0.58827 0.6039 0.0
C1045 C 0.15445 0.57349 0.58612 0.0
C1046 C 0.14783 0.54653 0.587 0.0
C1047 C 0.14477 0.53497 0.60631 0.0
C1048 C 0.14834 0.54979 0.62406 0.0
C1049 C 0.12202 0.56363 0.70382 0.0
C1050 C 0.0735 0.60879 0.67337 0.0
C1051 C 0.08635 0.64086 0.74688 0.0
C1052 C 0.08972 0.63973 0.76901 0.0
C1053 C 0.10046 0.61767 0.77884 0.0
C1054 C 0.1033 0.61756 0.79999 0.0
C1055 C 0.09553 0.63955 0.81159 0.0
C1056 C 0.08522 0.66168 0.8015 0.0
C1057 C 0.0823 0.6617 0.78048 0.0
C1058 C 0.12303 0.66088 0.68417 0.0
C1059 C 0.16793 0.60799 0.72076 0.0
O1060 O 0.14502 0.61245 0.64532 0.0
O1061 O 0.16664 0.5795 0.65819 0.0
O1062 O 0.14362 0.56184 0.69346 0.0
O1063 O 0.10877 0.5836 0.6987 0.0
O1064 O 0.09668 0.60513 0.66447 0.0
O1065 O 0.07169 0.61402 0.69286 0.0
O1066 O 0.0784 0.61956 0.73752 0.0
O1067 O 0.10429 0.65385 0.73683 0.0
O1068 O 0.09979 0.65982 0.69218 0.0
O1069 O 0.13763 0.64275 0.69109 0.0
O1070 O 0.14368 0.60764 0.72776 0.0
O1071 O 0.17243 0.611 0.7011 0.0
H1072 H 0.16342 0.60889 0.60267 0.0
H1073 H 0.15662 0.58331 0.57166 0.0
H1074 H 0.14011 0.51425 0.60779 0.0
H1075 H 0.146 0.54013 0.63858 0.0
H1076 H 0.10658 0.60058 0.77023 0.0
H1077 H 0.11121 0.60015 0.80725 0.0
H1078 H 0.07962 0.6792 0.80981 0.0
H1079 H 0.07428 0.67903 0.77314 0.0
Nd1080 Nd 0.14999 0.39123 0.42748 0.0
Nd1081 Nd 0.1298 0.35691 0.46166 0.0
C1082 C 0.15974 0.4131 0.39151 0.0
C1083 C 0.17584 0.40829 0.37301 0.0
C1084 C 0.16754 0.41836 0.35424 0.0
C1085 C 0.18337 0.41571 0.33687 0.0
C1086 C 0.20803 0.40302 0.33786 0.0
C1087 C 0.21589 0.3923 0.35664 0.0
C1088 C 0.20001 0.39487 0.37396 0.0
C1089 C 0.18835 0.37744 0.45459 0.0
C1090 C 0.14745 0.32548 0.42222 0.0
C1091 C 0.11625 0.33483 0.49657 0.0
C1092 C 0.11548 0.34114 0.51845 0.0
C1093 C 0.13715 0.35232 0.52858 0.0
C1094 C 0.13588 0.3575 0.54943 0.0
C1095 C 0.11285 0.35183 0.56051 0.0
C1096 C 0.09117 0.34089 0.55022 0.0
C1097 C 0.09251 0.33557 0.52946 0.0
C1098 C 0.09288 0.36965 0.43286 0.0
C1099 C 0.13653 0.42021 0.46949 0.0
O1100 O 0.13979 0.3974 0.39489 0.0
O1101 O 0.17248 0.419 0.40811 0.0
O1102 O 0.18802 0.39959 0.44487 0.0
O1103 O 0.17026 0.3623 0.44855 0.0
O1104 O 0.14879 0.34904 0.41358 0.0
O1105 O 0.14329 0.32282 0.44182 0.0
O1106 O 0.13933 0.3317 0.48811 0.0
O1107 O 0.09969 0.34752 0.48499 0.0
O1108 O 0.09572 0.34633 0.44054 0.0
O1109 O 0.10919 0.38581 0.44036 0.0
O1110 O 0.13844 0.39632 0.47712 0.0
O1111 O 0.13646 0.42407 0.44962 0.0
H1112 H 0.149 0.42882 0.35308 0.0
H1113 H 0.17665 0.42443 0.32282 0.0
H1114 H 0.23448 0.38199 0.35802 0.0
H1115 H 0.20684 0.38672 0.38819 0.0
H1116 H 0.15508 0.357 0.52043 0.0
H1117 H 0.15283 0.36618 0.55684 0.0
H1118 H 0.07327 0.33594 0.55829 0.0
H1119 H 0.07558 0.3269 0.52199 0.0
Nd1120 Nd 0.36509 0.60363 0.34712 0.0
Nd1121 Nd 0.39486 0.62693 0.31166 0.0
C1122 C 0.34419 0.59355 0.38333 0.0
C1123 C 0.34869 0.57834 0.40229 0.0
C1124 C 0.37344 0.57733 0.41184 0.0
C1125 C 0.37677 0.56328 0.43002 0.0
C1126 C 0.35545 0.54988 0.43911 0.0
C1127 C 0.33076 0.55094 0.42939 0.0
C1128 C 0.32746 0.56498 0.41127 0.0
C1129 C 0.38153 0.56619 0.32014 0.0
C1130 C 0.43054 0.61239 0.35 0.0
C1131 C 0.4132 0.6438 0.27636 0.0
C1132 C 0.40786 0.64296 0.25427 0.0
C1133 C 0.4153 0.62136 0.24219 0.0
C1134 C 0.41212 0.62223 0.22108 0.0
C1135 C 0.40161 0.64477 0.21163 0.0
C1136 C 0.39348 0.66595 0.22386 0.0
C1137 C 0.39671 0.66511 0.24484 0.0
C1138 C 0.37998 0.66312 0.34055 0.0
C1139 C 0.33386 0.60995 0.30514 0.0
O1140 O 0.35948 0.61376 0.37962 0.0
O1141 O 0.33849 0.58017 0.367 0.0
O1142 O 0.36058 0.56374 0.33117 0.0
O1143 O 0.39461 0.58634 0.3251 0.0
O1144 O 0.40806 0.60741 0.35958 0.0
O1145 O 0.43114 0.61808 0.33053 0.0
O1146 O 0.42205 0.62259 0.28537 0.0
O1147 O 0.39645 0.65695 0.28749 0.0
O1148 O 0.40264 0.66266 0.33159 0.0
O1149 O 0.36525 0.64476 0.33408 0.0
O1150 O 0.35765 0.61012 0.29729 0.0
O1151 O 0.33047 0.61266 0.32496 0.0
H1152 H 0.3902 0.58747 0.40531 0.0
H1153 H 0.39603 0.56323 0.43706 0.0
H1154 H 0.31396 0.54057 0.4356 0.0
H1155 H 0.30818 0.5654 0.40422 0.0
H1156 H 0.4241 0.60403 0.24896 0.0
H1157 H 0.41875 0.60563 0.21212 0.0
H1158 H 0.38484 0.68342 0.21719 0.0
H1159 H 0.39089 0.68214 0.25367 0.0
Nd1160 Nd 0.15433 0.61573 0.09524 0.0
Nd1161 Nd 0.13575 0.65156 0.06139 0.0
C1162 C 0.16504 0.59274 0.13058 0.0
C1163 C 0.18038 0.59754 0.14954 0.0
C1164 C 0.16788 0.59602 0.16852 0.0
C1165 C 0.18242 0.59832 0.18658 0.0
C1166 C 0.20994 0.60195 0.18611 0.0
C1167 C 0.22227 0.60418 0.16706 0.0
C1168 C 0.20773 0.60205 0.14905 0.0
C1169 C 0.19264 0.6306 0.0682 0.0
C1170 C 0.15101 0.68114 0.10223 0.0
C1171 C 0.12838 0.67493 0.02597 0.0
C1172 C 0.12519 0.66753 1.00435 0.0
C1173 C 0.14724 0.66377 0.99176 0.0
C1174 C 0.14403 0.6582 0.97113 0.0
C1175 C 0.1187 0.65633 0.96257 0.0
C1176 C 0.09669 0.65963 0.97529 0.0
C1177 C 0.0999 0.6653 0.99586 0.0
C1178 C 0.0966 0.63768 0.08814 0.0
C1179 C 0.13914 0.58749 0.05315 0.0
O1180 O 0.14391 0.60692 0.12745 0.0
O1181 O 0.17832 0.58852 0.11394 0.0
O1182 O 0.19105 0.6072 0.07591 0.0
O1183 O 0.1752 0.64538 0.07554 0.0
O1184 O 0.15164 0.65723 0.11033 0.0
O1185 O 0.14837 0.68458 0.08257 0.0
O1186 O 0.15163 0.67156 0.03414 0.0
O1187 O 0.10914 0.66888 0.03831 0.0
O1188 O 0.09902 0.66081 0.07994 0.0
O1189 O 0.11402 0.62193 0.08157 0.0
O1190 O 0.14043 0.61153 0.04565 0.0
O1191 O 0.14019 0.5833 0.07298 0.0
H1192 H 0.14686 0.59245 0.1694 0.0
H1193 H 0.17222 0.59632 0.2009 0.0
H1194 H 0.24332 0.60743 0.16603 0.0
H1195 H 0.21807 0.6035 0.13475 0.0
H1196 H 0.16704 0.66555 0.99774 0.0
H1197 H 0.16144 0.65612 0.9618 0.0
H1198 H 0.07687 0.65791 0.96934 0.0
H1199 H 0.08249 0.66819 1.00509 0.0
Nd1200 Nd 0.13688 0.4019 0.84574 0.0
Nd1201 Nd 0.10289 0.37951 0.81158 0.0
C1202 C 0.15842 0.41294 0.88157 0.0
C1203 C 0.15337 0.42947 0.89987 0.0
C1204 C 0.15447 0.41811 0.91927 0.0
C1205 C 0.15101 0.43356 0.93675 0.0
C1206 C 0.14641 0.4609 0.93532 0.0
C1207 C 0.14518 0.47215 0.9158 0.0
C1208 C 0.14855 0.45669 0.89835 0.0
C1209 C 0.12147 0.43887 0.81803 0.0
C1210 C 0.07116 0.39756 0.85091 0.0
C1211 C 0.08148 0.3656 0.77653 0.0
C1212 C 0.08772 0.36701 0.75454 0.0
C1213 C 0.0801 0.38888 0.74283 0.0
C1214 C 0.08479 0.38941 0.72192 0.0
C1215 C 0.09719 0.36808 0.71218 0.0
C1216 C 0.1051 0.34639 0.72395 0.0
C1217 C 0.10033 0.34582 0.74483 0.0
C1218 C 0.11618 0.34396 0.84123 0.0
C1219 C 0.16603 0.38848 0.80371 0.0
O1220 O 0.14301 0.39266 0.87849 0.0
O1221 O 0.16454 0.42507 0.86475 0.0
O1222 O 0.14323 0.44054 0.82818 0.0
O1223 O 0.10746 0.42008 0.82425 0.0
O1224 O 0.09464 0.39991 0.85959 0.0
O1225 O 0.06864 0.39267 0.83139 0.0
O1226 O 0.07571 0.38759 0.78591 0.0
O1227 O 0.09586 0.34978 0.7876 0.0
O1228 O 0.09307 0.34557 0.83296 0.0
O1229 O 0.13206 0.36049 0.83358 0.0
O1230 O 0.14204 0.38925 0.79611 0.0
O1231 O 0.17 0.38907 0.82357 0.0
H1232 H 0.1582 0.39721 0.92093 0.0
H1233 H 0.15175 0.42398 0.95138 0.0
H1234 H 0.14214 0.49311 0.91391 0.0
H1235 H 0.14766 0.46617 0.88367 0.0
H1236 H 0.07024 0.40552 0.74977 0.0
H1237 H 0.07868 0.40656 0.71337 0.0
H1238 H 0.11433 0.32945 0.71695 0.0
H1239 H 0.1062 0.32852 0.7533 0.0
Nd1240 Nd 0.34939 0.38737 0.59555 0.0
Nd1241 Nd 0.37753 0.35961 0.55672 0.0
C1242 C 0.33471 0.41225 0.62912 0.0
C1243 C 0.31905 0.40729 0.64791 0.0
C1244 C 0.33067 0.41081 0.66706 0.0
C1245 C 0.31601 0.40715 0.68491 0.0
C1246 C 0.2892 0.39992 0.68414 0.0
C1247 C 0.27765 0.3964 0.66488 0.0
C1248 C 0.29233 0.39997 0.64706 0.0
C1249 C 0.31752 0.36554 0.5664 0.0
C1250 C 0.36185 0.32368 0.59659 0.0
C1251 C 0.38384 0.33627 0.52134 0.0
C1252 C 0.37876 0.34195 0.49987 0.0
C1253 C 0.37469 0.36789 0.4932 0.0
C1254 C 0.37307 0.37341 0.47248 0.0
C1255 C 0.37538 0.35307 0.4581 0.0
C1256 C 0.37836 0.32698 0.46495 0.0
C1257 C 0.3801 0.32151 0.48566 0.0
C1258 C 0.41505 0.37415 0.58471 0.0
C1259 C 0.36746 0.42332 0.55516 0.0
O1260 O 0.35736 0.40003 0.62732 0.0
O1261 O 0.3219 0.41382 0.61191 0.0
O1262 O 0.31121 0.36555 0.58552 0.0
O1263 O 0.33866 0.37783 0.56374 0.0
O1264 O 0.35582 0.34505 0.6072 0.0
O1265 O 0.36812 0.32432 0.57713 0.0
O1266 O 0.36331 0.33198 0.53296 0.0
O1267 O 0.40191 0.35095 0.52994 0.0
O1268 O 0.42042 0.36272 0.56761 0.0
O1269 O 0.39047 0.37714 0.58631 0.0
O1270 O 0.37338 0.40154 0.5452 0.0
O1271 O 0.3596 0.4234 0.5745 0.0
H1272 H 0.35119 0.41653 0.66823 0.0
H1273 H 0.32584 0.40975 0.69933 0.0
H1274 H 0.25701 0.39131 0.66347 0.0
H1275 H 0.2826 0.39719 0.63261 0.0
H1276 H 0.37353 0.38394 0.50398 0.0
H1277 H 0.37042 0.39365 0.46771 0.0
H1278 H 0.38047 0.3109 0.45428 0.0
H1279 H 0.38335 0.30139 0.49055 0.0
H1280 H 0.21483 0.08379 0.30429 0.0
H1281 H 0.26124 0.14857 0.19874 0.0
H1282 H 0.17894 0.15175 0.27669 0.0
H1283 H 0.29127 0.07411 0.22025 0.0
H1284 H 0.23469 0.15224 0.22937 0.0
H1285 H 0.24725 0.0826 0.27637 0.0
C1286 C 0.21424 0.09887 0.2927 0.0
C1287 C 0.19428 0.11802 0.29289 0.0
C1288 C 0.24714 0.1351 0.22747 0.0
C1289 C 0.23082 0.11651 0.26073 0.0
C1290 C 0.26225 0.13287 0.20981 0.0
C1291 C 0.27854 0.11085 0.20657 0.0
C1292 C 0.24812 0.11522 0.24231 0.0
C1293 C 0.27928 0.09159 0.22198 0.0
C1294 C 0.23251 0.09801 0.27662 0.0
C1295 C 0.19402 0.13667 0.27717 0.0
N1296 N 0.26426 0.09415 0.23905 0.0
N1297 N 0.21181 0.1354 0.2618 0.0
H1298 H 0.12548 0.05501 0.47579 0.0
H1299 H 0.17736 0.91827 0.52185 0.0
H1300 H 0.17056 0.99677 0.4432 0.0
H1301 H 0.12468 0.96851 0.55556 0.0
H1302 H 0.17753 0.9498 0.49439 0.0
H1303 H 0.12683 0.02656 0.506 0.0
C1304 C 0.13571 0.03633 0.47495 0.0
C1305 C 0.14776 0.02829 0.45673 0.0
C1306 C 0.16592 0.95419 0.50772 0.0
C1307 C 0.14944 0.99567 0.49136 0.0
C1308 C 0.16582 0.9361 0.52356 0.0
C1309 C 0.15072 0.9405 0.54109 0.0
C1310 C 0.15074 0.97721 0.50908 0.0
C1311 C 0.13661 0.96428 0.54237 0.0
C1312 C 0.13638 0.02007 0.49221 0.0
C1313 C 0.16055 0.00375 0.45664 0.0
N1314 N 0.13677 0.98169 0.52648 0.0
N1315 N 0.16105 0.9885 0.47357 0.0
H1316 H 0.2879 0.90498 0.80896 0.0
H1317 H 0.25938 0.87971 0.69044 0.0
H1318 H 0.34461 0.87668 0.76542 0.0
H1319 H 0.20144 0.91495 0.72985 0.0
H1320 H 0.28915 0.8755 0.71911 0.0
H1321 H 0.25435 0.90585 0.78174 0.0
C1322 C 0.29323 0.89868 0.79384 0.0
C1323 C 0.31923 0.89092 0.78953 0.0
C1324 C 0.2699 0.8841 0.72161 0.0
C1325 C 0.2811 0.89193 0.75837 0.0
C1326 C 0.2527 0.88633 0.70516 0.0
C1327 C 0.22763 0.89764 0.70754 0.0
C1328 C 0.26228 0.89322 0.74087 0.0
C1329 C 0.22061 0.90635 0.72712 0.0
C1330 C 0.27414 0.89933 0.77828 0.0
C1331 C 0.32499 0.88312 0.76956 0.0
N1332 N 0.23779 0.90398 0.74298 0.0
N1333 N 0.30626 0.88388 0.75489 0.0
H1334 H 0.34833 0.01525 0.9367 0.0
H1335 H 0.36856 0.03775 0.05652 0.0
H1336 H 0.36582 0.95058 0.9769 0.0
H1337 H 0.34416 0.0969 0.01342 0.0
H1338 H 0.36843 0.00492 0.02874 0.0
H1339 H 0.34821 0.045 0.96552 0.0
C1340 C 0.35242 0.00725 0.95158 0.0
C1341 C 0.3573 0.98023 0.95417 0.0
C1342 C 0.36305 0.02513 0.02551 0.0
C1343 C 0.35679 0.01461 0.98782 0.0
C1344 C 0.36306 0.04385 0.04138 0.0
C1345 C 0.35655 0.07031 0.03745 0.0
C1346 C 0.35649 0.03299 1.00564 0.0
C1347 C 0.34962 0.07695 0.01742 0.0
C1348 C 0.35213 0.02432 0.96818 0.0
C1349 C 0.3618 0.97119 0.97409 0.0
N1350 N 0.34988 0.05861 1.00248 0.0
N1351 N 0.36153 0.9883 0.99012 0.0
H1352 H 0.30257 0.93232 0.29986 0.0
H1353 H 0.17599 0.86102 0.25343 0.0
H1354 H 0.26465 0.86481 0.32694 0.0
H1355 H 0.22219 0.91574 0.21843 0.0
H1356 H 0.209 0.86234 0.28017 0.0
H1357 H 0.27448 0.92698 0.26991 0.0
C1358 C 0.28859 0.91621 0.29953 0.0
C1359 C 0.28602 0.89914 0.31626 0.0
C1360 C 0.21227 0.87386 0.26659 0.0
C1361 C 0.2534 0.89318 0.28186 0.0
C1362 C 0.19338 0.87306 0.25125 0.0
C1363 C 0.19636 0.88819 0.23361 0.0
C1364 C 0.23435 0.89034 0.26463 0.0
C1365 C 0.21928 0.90352 0.23167 0.0
C1366 C 0.27246 0.91327 0.28237 0.0
C1367 C 0.26715 0.87891 0.3148 0.0
N1368 N 0.23727 0.90448 0.24713 0.0
N1369 N 0.25159 0.87664 0.29808 0.0
H1370 H 0.39756 0.9228 0.5022 0.0
H1371 H 0.32798 0.04809 0.55303 0.0
H1372 H 0.34191 0.97098 0.46977 0.0
H1373 H 0.38799 1.00112 0.58199 0.0
H1374 H 0.33377 0.02215 0.522 0.0
H1375 H 0.39614 0.95361 0.53047 0.0
C1376 C 0.38541 0.94026 0.50087 0.0
C1377 C 0.37002 0.9444 0.48349 0.0
C1378 C 0.34578 0.01765 0.5351 0.0
C1379 C 0.36764 0.97975 0.51634 0.0
C1380 C 0.34237 0.03235 0.55295 0.0
C1381 C 0.35743 0.02687 0.57039 0.0
C1382 C 0.36434 0.99713 0.53457 0.0
C1383 C 0.37607 0.00644 0.56903 0.0
C1384 C 0.38448 0.95783 0.51713 0.0
C1385 C 0.35443 0.96725 0.48273 0.0
N1386 N 0.37884 0.99235 0.55158 0.0
N1387 N 0.35338 0.98392 0.49903 0.0
H1388 H 0.20913 0.07099 0.80211 0.0
H1389 H 0.32371 0.15446 0.7484 0.0
H1390 H 0.24784 0.13845 0.82862 0.0
H1391 H 0.29215 0.08334 0.72212 0.0
H1392 H 0.29201 0.15108 0.77586 0.0
H1393 H 0.23589 0.07672 0.7715 0.0
C1394 C 0.22322 0.087 0.8016 0.0
C1395 C 0.22611 0.10421 0.81821 0.0
C1396 C 0.2917 0.13628 0.76405 0.0
C1397 C 0.25667 0.11108 0.78284 0.0
C1398 C 0.30979 0.13827 0.74822 0.0
C1399 C 0.31074 0.11911 0.73285 0.0
C1400 C 0.27426 0.11484 0.76484 0.0
C1401 C 0.29205 0.09866 0.73352 0.0
C1402 C 0.23839 0.09033 0.78399 0.0
C1403 C 0.24446 0.12484 0.81627 0.0
N1404 N 0.27476 0.0969 0.74937 0.0
N1405 N 0.25897 0.12759 0.79905 0.0
H1406 H 0.12314 0.95134 0.0532 0.0
H1407 H 0.17462 0.08364 0.99947 0.0
H1408 H 0.18243 0.00328 0.07777 0.0
H1409 H 0.11703 0.03314 0.97136 0.0
H1410 H 0.17897 0.05232 0.0272 0.0
H1411 H 0.12091 0.97926 0.0228 0.0
C1412 C 0.13564 0.96859 0.05231 0.0
C1413 C 0.15311 0.97474 0.06823 0.0
C1414 C 0.16559 0.0477 0.01492 0.0
C1415 C 0.15079 0.00673 0.0332 0.0
C1416 C 0.16327 0.06555 0.99896 0.0
C1417 C 0.14574 0.06081 0.98292 0.0
C1418 C 0.14996 0.02485 0.01523 0.0
C1419 C 0.13114 0.03729 0.98324 0.0
C1420 C 0.13447 0.98442 0.03483 0.0
C1421 C 0.16897 0.99728 0.06591 0.0
N1422 N 0.1334 0.02025 0.99925 0.0
N1423 N 0.16738 0.01232 0.04888 0.0
H1424 H 0.78752 0.8807 0.715 0.0
H1425 H 0.7669 0.90502 0.83451 0.0
H1426 H 0.84675 0.90882 0.75669 0.0
H1427 H 0.70108 0.8885 0.79513 0.0
H1428 H 0.79609 0.9042 0.80537 0.0
H1429 H 0.75497 0.88217 0.74297 0.0
C1430 C 0.79367 0.88735 0.72985 0.0
C1431 C 0.8201 0.89438 0.73338 0.0
C1432 C 0.77527 0.90073 0.80296 0.0
C1433 C 0.78315 0.89587 0.76542 0.0
C1434 C 0.75852 0.90096 0.81975 0.0
C1435 C 0.73135 0.89664 0.81749 0.0
C1436 C 0.76509 0.89606 0.78345 0.0
C1437 C 0.72183 0.89211 0.79769 0.0
C1438 C 0.77513 0.88808 0.74584 0.0
C1439 C 0.82683 0.9028 0.75305 0.0
N1440 N 0.73864 0.89183 0.78147 0.0
N1441 N 0.80869 0.90314 0.76813 0.0
H1442 H 0.89024 0.08572 0.5025 0.0
H1443 H 0.83163 0.95249 0.54872 0.0
H1444 H 0.84212 0.03335 0.46682 0.0
H1445 H 0.89216 0.99927 0.57736 0.0
H1446 H 0.83481 0.98065 0.51862 0.0
H1447 H 0.89087 0.05353 0.52974 0.0
C1448 C 0.87997 0.06723 0.50032 0.0
C1449 C 0.86609 0.06231 0.4823 0.0
C1450 C 0.84747 0.98462 0.53147 0.0
C1451 C 0.86636 0.02504 0.51391 0.0
C1452 C 0.84578 0.96846 0.54871 0.0
C1453 C 0.86151 0.97344 0.5659 0.0
C1454 C 0.86495 0.00611 0.53132 0.0
C1455 C 0.87915 0.9948 0.56484 0.0
C1456 C 0.88033 0.04877 0.51595 0.0
C1457 C 0.85325 0.03789 0.48037 0.0
N1458 N 0.88025 0.01027 0.54801 0.0
N1459 N 0.85342 0.02027 0.49609 0.0
H1460 H 0.71091 0.08585 0.21829 0.0
H1461 H 0.75404 0.13844 0.32856 0.0
H1462 H 0.6698 0.1455 0.25238 0.0
H1463 H 0.79446 0.07484 0.2983 0.0
H1464 H 0.72584 0.14363 0.29897 0.0
H1465 H 0.74454 0.08404 0.24531 0.0
C1466 C 0.70923 0.09893 0.23119 0.0
C1467 C 0.68741 0.1158 0.23304 0.0
C1468 C 0.74093 0.12857 0.2987 0.0
C1469 C 0.72556 0.11363 0.26412 0.0
C1470 C 0.75727 0.1257 0.31564 0.0
C1471 C 0.77685 0.10613 0.31615 0.0
C1472 C 0.74393 0.11179 0.28188 0.0
C1473 C 0.77947 0.08997 0.29886 0.0
C1474 C 0.72828 0.09772 0.24672 0.0
C1475 C 0.68612 0.13203 0.25029 0.0
N1476 N 0.76323 0.0931 0.28253 0.0
N1477 N 0.70471 0.13045 0.26507 0.0
H1478 H 0.6804 0.91316 1.00238 0.0
H1479 H 0.63187 0.04992 0.0508 0.0
H1480 H 0.62865 0.9655 0.96977 0.0
H1481 H 0.67802 0.99104 0.08178 0.0
H1482 H 0.63237 0.02218 0.02019 0.0
H1483 H 0.68216 0.94433 0.03014 0.0
C1484 C 0.66948 0.93142 1.00095 0.0
C1485 C 0.65418 0.93652 0.98364 0.0
C1486 C 0.64238 0.0154 0.0337 0.0
C1487 C 0.65593 0.97277 0.01602 0.0
C1488 C 0.6422 0.03127 0.0512 0.0
C1489 C 0.65476 0.02284 0.06912 0.0
C1490 C 0.65541 0.99096 0.03397 0.0
C1491 C 0.66762 0.99833 0.06861 0.0
C1492 C 0.67046 0.94929 0.01696 0.0
C1493 C 0.64078 0.96075 0.98275 0.0
N1494 N 0.6676 0.98344 0.05146 0.0
N1495 N 0.64176 0.9779 0.99881 0.0
H1496 H 0.78964 0.08268 0.80207 0.0
H1497 H 0.74381 0.13839 0.69355 0.0
H1498 H 0.8265 0.1474 0.7706 0.0
H1499 H 0.70667 0.07147 0.72204 0.0
H1500 H 0.77154 0.14388 0.72338 0.0
H1501 H 0.75631 0.08032 0.77493 0.0
C1502 C 0.79044 0.09671 0.78973 0.0
C1503 C 0.81101 0.11521 0.78865 0.0
C1504 C 0.75726 0.12802 0.72321 0.0
C1505 C 0.77319 0.11242 0.75742 0.0
C1506 C 0.7412 0.12497 0.70613 0.0
C1507 C 0.72271 0.10439 0.70507 0.0
C1508 C 0.75506 0.11039 0.73956 0.0
C1509 C 0.72083 0.0874 0.72192 0.0
C1510 C 0.77155 0.09521 0.77413 0.0
C1511 C 0.81118 0.13267 0.7721 0.0
N1512 N 0.7368 0.09072 0.73838 0.0
N1513 N 0.79279 0.13075 0.75721 0.0
H1514 H 0.65883 0.03133 0.5551 0.0
H1515 H 0.61282 0.99807 0.44121 0.0
H1516 H 0.61346 0.08328 0.51699 0.0
H1517 H 0.67431 0.95419 0.47126 0.0
H1518 H 0.60856 0.02576 0.47113 0.0
H1519 H 0.66015 0.99902 0.52705 0.0
C1520 C 0.64878 0.03574 0.54103 0.0
C1521 C 0.63606 0.0601 0.53842 0.0
C1522 C 0.62298 0.01004 0.47125 0.0
C1523 C 0.63752 0.0234 0.50633 0.0
C1524 C 0.62559 0.99423 0.45401 0.0
C1525 C 0.64425 0.97377 0.45335 0.0
C1526 C 0.63897 0.00551 0.48829 0.0
C1527 C 0.65953 0.96953 0.47092 0.0
C1528 C 0.64972 0.01743 0.52497 0.0
C1529 C 0.62365 0.06488 0.51973 0.0
N1530 N 0.65664 0.98528 0.48758 0.0
N1531 N 0.6247 0.04684 0.50454 0.0
H1532 H 0.80557 0.88954 0.22232 0.0
H1533 H 0.65884 0.91358 0.26298 0.0
H1534 H 0.73818 0.90793 0.18511 0.0
H1535 H 0.71806 0.87944 0.30186 0.0
H1536 H 0.69013 0.91502 0.23559 0.0
H1537 H 0.77654 0.88857 0.25227 0.0
C1538 C 0.78474 0.89341 0.2204 0.0
C1539 C 0.7744 0.89869 0.20098 0.0
C1540 C 0.69653 0.90713 0.25001 0.0
C1541 C 0.74108 0.89771 0.23531 0.0
C1542 C 0.67851 0.90622 0.26586 0.0
C1543 C 0.68546 0.89591 0.28491 0.0
C1544 C 0.72224 0.89776 0.25285 0.0
C1545 C 0.71167 0.88744 0.28748 0.0
C1546 C 0.76818 0.89272 0.23752 0.0
C1547 C 0.74718 0.90335 0.19955 0.0
N1548 N 0.72911 0.88842 0.27159 0.0
N1549 N 0.73168 0.90283 0.21635 0.0
H1550 H 0.89478 0.00802 0.94373 0.0
H1551 H 0.83288 0.95881 0.04947 0.0
H1552 H 0.8195 0.03534 0.96568 0.0
H1553 H 0.90655 0.93189 0.02454 0.0
H1554 H 0.82908 0.99042 0.02118 0.0
H1555 H 0.90061 0.98319 0.97498 0.0
C1556 C 0.87952 0.0091 0.95516 0.0
C1557 C 0.85658 0.02401 0.95181 0.0
C1558 C 0.84629 0.97788 0.02212 0.0
C1559 C 0.86306 0.9949 0.98803 0.0
C1560 C 0.84862 0.96009 0.03844 0.0
C1561 C 0.87016 0.94275 0.0395 0.0
C1562 C 0.86567 0.97835 1.0068 0.0
C1563 C 0.88962 0.94486 0.02442 0.0
C1564 C 0.88282 0.99468 0.97307 0.0
C1565 C 0.83738 0.02393 0.96729 0.0
N1566 N 0.88684 0.96207 1.00877 0.0
N1567 N 0.84101 0.00963 0.98461 0.0
H1568 H 0.71954 0.62612 0.80146 0.0
H1569 H 0.74174 0.57738 0.68669 0.0
H1570 H 0.6655 0.57828 0.76692 0.0
H1571 H 0.80188 0.61999 0.71928 0.0
H1572 H 0.71444 0.57757 0.71692 0.0
H1573 H 0.75128 0.62341 0.77303 0.0
C1574 C 0.71453 0.61473 0.78813 0.0
C1575 C 0.6897 0.6026 0.78656 0.0
C1576 C 0.7336 0.58691 0.71761 0.0
C1577 C 0.72559 0.59968 0.754 0.0
C1578 C 0.7492 0.58699 0.70018 0.0
C1579 C 0.77417 0.59891 0.70021 0.0
C1580 C 0.74274 0.59895 0.73549 0.0
C1581 C 0.78283 0.61046 0.71849 0.0
C1582 C 0.73253 0.61334 0.77185 0.0
C1583 C 0.6842 0.58828 0.76882 0.0
N1584 N 0.76711 0.61034 0.73532 0.0
N1585 N 0.70179 0.58738 0.75336 0.0
H1586 H 0.62875 0.55321 0.97223 0.0
H1587 H 0.67091 0.41246 0.01717 0.0
H1588 H 0.66968 0.49251 0.93906 0.0
H1589 H 0.62394 0.46696 0.05191 0.0
H1590 H 0.67323 0.44415 0.98981 0.0
H1591 H 0.62879 0.52456 1.00233 0.0
C1592 C 0.63783 0.53395 0.97124 0.0
C1593 C 0.64907 0.52531 0.95287 0.0
C1594 C 0.66246 0.44945 1.00337 0.0
C1595 C 0.6492 0.49239 0.98741 0.0
C1596 C 0.66115 0.43128 0.01914 0.0
C1597 C 0.647 0.43686 0.03693 0.0
C1598 C 0.64942 0.47373 1.00505 0.0
C1599 C 0.63512 0.46181 0.03853 0.0
C1600 C 0.63774 0.51758 0.98844 0.0
C1601 C 0.66033 0.50001 0.95261 0.0
N1602 N 0.63639 0.47927 0.0227 0.0
N1603 N 0.6601 0.48464 0.96949 0.0
H1604 H 0.69569 0.38076 0.22349 0.0
H1605 H 0.83819 0.42077 0.2664 0.0
H1606 H 0.75742 0.41764 0.18866 0.0
H1607 H 0.78224 0.378 0.30297 0.0
H1608 H 0.80643 0.42247 0.23905 0.0
H1609 H 0.72459 0.38166 0.25343 0.0
C1610 C 0.71523 0.38912 0.2221 0.0
C1611 C 0.72408 0.39897 0.20332 0.0
C1612 C 0.80082 0.41278 0.25301 0.0
C1613 C 0.75729 0.40009 0.23768 0.0
C1614 C 0.81904 0.41183 0.26877 0.0
C1615 C 0.81306 0.39901 0.28708 0.0
C1616 C 0.7761 0.40074 0.25523 0.0
C1617 C 0.7877 0.38815 0.28918 0.0
C1618 C 0.73175 0.38954 0.23922 0.0
C1619 C 0.74973 0.40936 0.20256 0.0
N1620 N 0.7702 0.38905 0.27336 0.0
N1621 N 0.76525 0.40964 0.21937 0.0
H1622 H 0.83421 0.54122 0.55041 0.0
H1623 H 0.8999 0.4841 0.44852 0.0
H1624 H 0.90655 0.56972 0.52419 0.0
H1625 H 0.82102 0.464 0.46747 0.0
H1626 H 0.90487 0.51094 0.47893 0.0
H1627 H 0.8317 0.50762 0.52344 0.0
C1628 C 0.84993 0.5399 0.53936 0.0
C1629 C 0.87068 0.55821 0.5396 0.0
C1630 C 0.88648 0.50059 0.47651 0.0
C1631 C 0.86774 0.52028 0.50855 0.0
C1632 C 0.88353 0.48534 0.45899 0.0
C1633 C 0.85988 0.47181 0.45512 0.0
C1634 C 0.86568 0.50249 0.49051 0.0
C1635 C 0.83971 0.47382 0.46974 0.0
C1636 C 0.84834 0.52097 0.52382 0.0
C1637 C 0.89021 0.55599 0.52461 0.0
N1638 N 0.84302 0.48893 0.48667 0.0
N1639 N 0.8882 0.53758 0.50973 0.0
H1640 H 0.72177 0.37452 0.71578 0.0
H1641 H 0.7453 0.42121 0.83079 0.0
H1642 H 0.66857 0.42254 0.75087 0.0
H1643 H 0.8051 0.3794 0.79731 0.0
H1644 H 0.71769 0.42167 0.80072 0.0
H1645 H 0.75383 0.37669 0.74402 0.0
C1646 C 0.71703 0.38586 0.72919 0.0
C1647 C 0.69235 0.39818 0.73099 0.0
C1648 C 0.73685 0.41236 0.79981 0.0
C1649 C 0.72856 0.40047 0.76332 0.0
C1650 C 0.7526 0.41191 0.81714 0.0
C1651 C 0.77756 0.40002 0.81678 0.0
C1652 C 0.74583 0.40075 0.78173 0.0
C1653 C 0.78605 0.38887 0.79833 0.0
C1654 C 0.73521 0.38693 0.74536 0.0
C1655 C 0.68716 0.41241 0.74882 0.0
N1656 N 0.77018 0.38936 0.78159 0.0
N1657 N 0.7049 0.413 0.76418 0.0
H1658 H 0.87216 0.55404 0.0476 0.0
H1659 H 0.83085 0.41232 1.00401 0.0
H1660 H 0.83387 0.49261 0.08183 0.0
H1661 H 0.87639 0.46703 0.96831 0.0
H1662 H 0.82897 0.44418 0.03126 0.0
H1663 H 0.8717 0.52518 0.0176 0.0
C1664 C 0.86358 0.53457 0.04884 0.0
C1665 C 0.85321 0.52577 0.06745 0.0
C1666 C 0.83935 0.44948 0.01752 0.0
C1667 C 0.85257 0.49265 0.03307 0.0
C1668 C 0.84042 0.43121 1.00182 0.0
C1669 C 0.85405 0.4368 0.9838 0.0
C1670 C 0.8521 0.47387 0.01553 0.0
C1671 C 0.86565 0.46186 0.9819 0.0
C1672 C 0.86342 0.51808 0.03169 0.0
C1673 C 0.84254 0.50024 0.06805 0.0
N1674 N 0.86462 0.47943 0.99767 0.0
N1675 N 0.8425 0.48476 0.05123 0.0
H1676 H 0.84666 0.59232 0.25779 0.0
H1677 H 0.69856 0.61635 0.296 0.0
H1678 H 0.78655 0.62105 0.21716 0.0
H1679 H 0.76417 0.59512 0.3342 0.0
H1680 H 0.7284 0.61658 0.26659 0.0
H1681 H 0.81496 0.59138 0.28501 0.0
C1682 C 0.8267 0.59851 0.25448 0.0
C1683 C 0.81954 0.60708 0.23496 0.0
C1684 C 0.73621 0.61194 0.28143 0.0
C1685 C 0.78238 0.6059 0.26679 0.0
C1686 C 0.71916 0.61168 0.29827 0.0
C1687 C 0.72875 0.60585 0.31782 0.0
C1688 C 0.76307 0.60609 0.28405 0.0
C1689 C 0.75575 0.60021 0.31966 0.0
C1690 C 0.80846 0.59792 0.27022 0.0
C1691 C 0.79307 0.61434 0.23189 0.0
N1692 N 0.77176 0.60043 0.30312 0.0
N1693 N 0.77545 0.6137 0.24766 0.0
H1694 H 0.63551 0.51295 0.58465 0.0
H1695 H 0.64781 0.53582 0.46417 0.0
H1696 H 0.65386 0.44937 0.5436 0.0
H1697 H 0.63158 0.59619 0.50851 0.0
H1698 H 0.6484 0.50294 0.49186 0.0
H1699 H 0.63221 0.54274 0.55594 0.0
C1700 C 0.63857 0.50507 0.56959 0.0
C1701 C 0.64487 0.47837 0.56676 0.0
C1702 C 0.64464 0.52343 0.4954 0.0
C1703 C 0.64153 0.51299 0.53331 0.0
C1704 C 0.64421 0.54217 0.47958 0.0
C1705 C 0.63983 0.56897 0.48388 0.0
C1706 C 0.64052 0.53155 0.51561 0.0
C1707 C 0.63534 0.57594 0.50425 0.0
C1708 C 0.63688 0.52226 0.55309 0.0
C1709 C 0.64922 0.46978 0.54669 0.0
N1710 N 0.63586 0.55753 0.51915 0.0
N1711 N 0.64748 0.48697 0.53078 0.0
H1712 H 0.26171 0.40933 0.33698 0.0
H1713 H 0.28183 0.38747 0.21715 0.0
H1714 H 0.19573 0.39506 0.29724 0.0
H1715 H 0.34144 0.41489 0.25879 0.0
H1716 H 0.24957 0.38836 0.24529 0.0
H1717 H 0.291 0.40859 0.30784 0.0
C1718 C 0.25331 0.40578 0.32214 0.0
C1719 C 0.22605 0.40211 0.31977 0.0
C1720 C 0.26975 0.3942 0.24813 0.0
C1721 C 0.2599 0.40162 0.28579 0.0
C1722 C 0.28815 0.39378 0.23205 0.0
C1723 C 0.3146 0.40079 0.2355 0.0
C1724 C 0.27794 0.40163 0.26775 0.0
C1725 C 0.32152 0.40882 0.25523 0.0
C1726 C 0.27012 0.4056 0.30537 0.0
C1727 C 0.21653 0.39819 0.2999 0.0
N1728 N 0.30351 0.40886 0.27042 0.0
N1729 N 0.23339 0.39795 0.28372 0.0
H1730 H 0.31913 0.46625 0.05306 0.0
H1731 H 0.40009 0.58384 1.00207 0.0
H1732 H 0.39265 0.49642 0.07643 0.0
H1733 H 0.33575 0.54521 0.9714 0.0
H1734 H 0.39759 0.55123 0.02902 0.0
H1735 H 0.32459 0.49399 0.02299 0.0
C1736 C 0.33656 0.47845 0.05187 0.0
C1737 C 0.35536 0.47894 0.06758 0.0
C1738 C 0.38414 0.54958 0.01634 0.0
C1739 C 0.36151 0.51119 0.03307 0.0
C1740 C 0.38559 0.56824 1.00086 0.0
C1741 C 0.36811 0.56732 0.98436 0.0
C1742 C 0.36477 0.52984 0.01568 0.0
C1743 C 0.34976 0.54658 0.98372 0.0
C1744 C 0.33958 0.49441 0.03466 0.0
C1745 C 0.37728 0.49561 0.06509 0.0
N1746 N 0.34835 0.52884 0.99928 0.0
N1747 N 0.37963 0.51105 0.04832 0.0
H1748 H 0.2206 0.6244 0.72035 0.0
H1749 H 0.23978 0.58111 0.83667 0.0
H1750 H 0.16351 0.58246 0.75648 0.0
H1751 H 0.3029 0.61655 0.80242 0.0
H1752 H 0.21225 0.58183 0.80655 0.0
H1753 H 0.25211 0.62131 0.7489 0.0
C1754 C 0.21482 0.61427 0.73408 0.0
C1755 C 0.18924 0.60392 0.73602 0.0
C1756 C 0.23212 0.58947 0.80549 0.0
C1757 C 0.22491 0.60054 0.76869 0.0
C1758 C 0.24786 0.58925 0.82284 0.0
C1759 C 0.27373 0.59899 0.82228 0.0
C1760 C 0.24205 0.59961 0.78718 0.0
C1761 C 0.28313 0.60871 0.80361 0.0
C1762 C 0.23272 0.61265 0.75041 0.0
C1763 C 0.18281 0.59111 0.75426 0.0
N1764 N 0.26728 0.60892 0.78685 0.0
N1765 N 0.20032 0.58996 0.76975 0.0
H1766 H 0.17469 0.55011 0.55047 0.0
H1767 H 0.11057 0.41907 0.50516 0.0
H1768 H 0.11279 0.506 0.57983 0.0
H1769 H 0.15815 0.47064 0.46839 0.0
H1770 H 0.11152 0.45135 0.53238 0.0
H1771 H 0.16944 0.52232 0.52033 0.0
C1772 C 0.15981 0.53481 0.55061 0.0
C1773 C 0.14432 0.53044 0.56802 0.0
C1774 C 0.12156 0.45592 0.51834 0.0
C1775 C 0.13851 0.49819 0.5334 0.0
C1776 C 0.12099 0.43744 0.50271 0.0
C1777 C 0.13424 0.44214 0.48439 0.0
C1778 C 0.13591 0.47936 0.516 0.0
C1779 C 0.14744 0.46632 0.48217 0.0
C1780 C 0.15693 0.51886 0.53335 0.0
C1781 C 0.12567 0.50994 0.56714 0.0
N1782 N 0.14824 0.48391 0.4979 0.0
N1783 N 0.12345 0.49462 0.55029 0.0
H1784 H 0.19882 0.62564 0.22307 0.0
H1785 H 0.33484 0.5775 0.27291 0.0
H1786 H 0.2577 0.57844 0.19305 0.0
H1787 H 0.28337 0.63183 0.30374 0.0
H1788 H 0.30337 0.57435 0.24533 0.0
H1789 H 0.22624 0.6256 0.25387 0.0
C1790 C 0.21741 0.61518 0.22293 0.0
C1791 C 0.22598 0.60221 0.20524 0.0
C1792 C 0.29865 0.58686 0.25811 0.0
C1793 C 0.25741 0.602 0.24056 0.0
C1794 C 0.31665 0.58859 0.27399 0.0
C1795 C 0.31185 0.60505 0.29069 0.0
C1796 C 0.27545 0.60188 0.25858 0.0
C1797 C 0.2878 0.61878 0.29123 0.0
C1798 C 0.23308 0.61525 0.24053 0.0
C1799 C 0.25036 0.58914 0.20606 0.0
N1800 N 0.27057 0.61711 0.27528 0.0
N1801 N 0.26505 0.58939 0.22329 0.0
H1802 H 0.11389 0.50383 0.94076 0.0
H1803 H 0.15778 0.536 0.05534 0.0
H1804 H 0.17088 0.45645 0.97282 0.0
H1805 H 0.11581 0.58956 0.01626 0.0
H1806 H 0.15816 0.5033 0.02758 0.0
H1807 H 0.11013 0.53223 0.97034 0.0
C1808 C 0.12577 0.49937 0.95394 0.0
C1809 C 0.14301 0.47768 0.95397 0.0
C1810 C 0.14867 0.52215 0.02522 0.0
C1811 C 0.13832 0.51028 0.98848 0.0
C1812 C 0.14825 0.54071 0.04112 0.0
C1813 C 0.13677 0.5656 0.03816 0.0
C1814 C 0.13723 0.52846 1.00637 0.0
C1815 C 0.12503 0.57072 0.01927 0.0
C1816 C 0.12344 0.51559 0.97098 0.0
C1817 C 0.15719 0.47274 0.97197 0.0
N1818 N 0.12559 0.55246 1.00422 0.0
N1819 N 0.15462 0.48891 0.98841 0.0
H1820 H 0.24968 0.36385 0.69141 0.0
H1821 H 0.21603 0.41111 0.80495 0.0
H1822 H 0.29225 0.42689 0.72073 0.0
H1823 H 0.16541 0.36294 0.76778 0.0
H1824 H 0.24818 0.41267 0.7768 0.0
H1825 H 0.22248 0.35917 0.72156 0.0
C1826 C 0.25332 0.37686 0.7041 0.0
C1827 C 0.27327 0.39607 0.70317 0.0
C1828 C 0.23013 0.40155 0.77496 0.0
C1829 C 0.2421 0.39036 0.73836 0.0
C1830 C 0.21192 0.40046 0.79108 0.0
C1831 C 0.18797 0.38689 0.78874 0.0
C1832 C 0.22444 0.38866 0.75653 0.0
C1833 C 0.18352 0.37376 0.77029 0.0
C1834 C 0.2378 0.37402 0.72147 0.0
C1835 C 0.2773 0.41169 0.72061 0.0
N1836 N 0.20144 0.375 0.75503 0.0
N1837 N 0.26183 0.40858 0.73739 0.0
H1838 H 0.33135 0.46408 0.55289 0.0
H1839 H 0.39807 0.52003 0.45105 0.0
H1840 H 0.40507 0.43702 0.52814 0.0
H1841 H 0.3209 0.54409 0.47131 0.0
H1842 H 0.4029 0.4937 0.4817 0.0
H1843 H 0.32931 0.49785 0.52604 0.0
C1844 C 0.34748 0.46578 0.54223 0.0
C1845 C 0.36849 0.44782 0.54284 0.0
C1846 C 0.38492 0.50482 0.47954 0.0
C1847 C 0.36606 0.48589 0.51185 0.0
C1848 C 0.3822 0.52007 0.462 0.0
C1849 C 0.35898 0.5344 0.45835 0.0
C1850 C 0.3643 0.50367 0.49376 0.0
C1851 C 0.33901 0.53311 0.47318 0.0
C1852 C 0.34616 0.48482 0.52674 0.0
C1853 C 0.38853 0.4505 0.52829 0.0
N1854 N 0.34208 0.518 0.49012 0.0
N1855 N 0.38674 0.46894 0.51343 0.0
H1856 H 0.14154 0.32227 0.38113 0.0
H1857 H 0.15618 0.1659 0.37135 0.0
H1858 H 0.15593 0.27404 0.43383 0.0
H1859 H 0.10407 0.2127 0.3344 0.0
H1860 H 0.16661 0.20574 0.39144 0.0
H1861 H 0.13887 0.28237 0.36049 0.0
C1862 C 0.14452 0.30333 0.38835 0.0
C1863 C 0.14874 0.30154 0.40931 0.0
C1864 C 0.15305 0.20715 0.37882 0.0
C1865 C 0.14584 0.25574 0.38565 0.0
C1866 C 0.1472 0.18454 0.36737 0.0
C1867 C 0.12912 0.18603 0.35132 0.0
C1868 C 0.14128 0.23135 0.37372 0.0
C1869 C 0.11794 0.21061 0.34676 0.0
C1870 C 0.14287 0.28056 0.37655 0.0
C1871 C 0.1524 0.27634 0.41776 0.0
N1872 N 0.12429 0.23225 0.3578 0.0
N1873 N 0.15083 0.25439 0.40591 0.0
H1874 H 0.07851 0.83466 0.61627 0.0
H1875 H 0.94809 0.91592 0.63404 0.0
H1876 H 0.07305 0.9133 0.592 0.0
H1877 H 0.98223 0.86678 0.68048 0.0
H1878 H 0.98957 0.91234 0.61464 0.0
H1879 H 0.03881 0.84277 0.63631 0.0
C1880 C 0.06895 0.8537 0.61523 0.0
C1881 C 0.07908 0.87339 0.60256 0.0
C1882 C 0.98788 0.90259 0.62918 0.0
C1883 C 0.03323 0.88257 0.62507 0.0
C1884 C 0.96425 0.9045 0.64018 0.0
C1885 C 0.96167 0.89169 0.65895 0.0
C1886 C 0.00866 0.88718 0.63677 0.0
C1887 C 0.98328 0.87716 0.66618 0.0
C1888 C 0.04634 0.85832 0.62668 0.0
C1889 C 0.06592 0.89771 0.60175 0.0
N1890 N 0.00563 0.87504 0.655 0.0
N1891 N 0.04338 0.90155 0.61268 0.0
H1892 H 0.41363 0.79816 0.83824 0.0
H1893 H 0.34487 0.73511 0.93339 0.0
H1894 H 0.35021 0.84032 0.86719 0.0
H1895 H 0.3703 0.6886 0.88227 0.0
H1896 H 0.35007 0.77519 0.9127 0.0
H1897 H 0.40224 0.759 0.85775 0.0
C1898 C 0.39725 0.79917 0.84874 0.0
C1899 C 0.38279 0.82251 0.85108 0.0
C1900 C 0.35417 0.75612 0.90604 0.0
C1901 C 0.36993 0.7777 0.87378 0.0
C1902 C 0.3513 0.73328 0.91782 0.0
C1903 C 0.35722 0.70842 0.90959 0.0
C1904 C 0.36364 0.75406 0.88612 0.0
C1905 C 0.36545 0.70725 0.8893 0.0
C1906 C 0.39071 0.77675 0.8598 0.0
C1907 C 0.36175 0.82263 0.8649 0.0
N1908 N 0.36877 0.72972 0.8784 0.0
N1909 N 0.3561 0.8006 0.87597 0.0
H1910 H 0.45484 0.16095 0.08599 0.0
H1911 H 0.51836 0.09799 0.18332 0.0
H1912 H 0.41248 0.10062 0.11846 0.0
H1913 H 0.56496 0.12054 0.13148 0.0
H1914 H 0.47832 0.10218 0.16255 0.0
H1915 H 0.49446 0.15023 0.10518 0.0
C1916 C 0.4539 0.14535 0.09717 0.0
C1917 C 0.43032 0.13164 0.10066 0.0
C1918 C 0.49737 0.10591 0.15574 0.0
C1919 C 0.47568 0.11961 0.12301 0.0
C1920 C 0.5202 0.10368 0.16758 0.0
C1921 C 0.54509 0.10901 0.15916 0.0
C1922 C 0.49942 0.11417 0.13551 0.0
C1923 C 0.54627 0.11618 0.13864 0.0
C1924 C 0.47658 0.13919 0.10805 0.0
C1925 C 0.43031 0.11157 0.11529 0.0
N1926 N 0.52378 0.11891 0.12763 0.0
N1927 N 0.4526 0.10637 0.12619 0.0
H1928 H 0.16194 0.83855 0.1565 0.0
H1929 H 0.13963 0.6836 0.14271 0.0
H1930 H 0.10229 0.79465 0.18851 0.0
H1931 H 0.16314 0.73236 0.09232 0.0
H1932 H 0.13597 0.72316 0.16376 0.0
H1933 H 0.17205 0.79863 0.13649 0.0
C1934 C 0.15118 0.82051 0.15942 0.0
C1935 C 0.13116 0.8199 0.17407 0.0
C1936 C 0.14216 0.72514 0.14814 0.0
C1937 C 0.14293 0.77438 0.15174 0.0
C1938 C 0.1444 0.70256 0.13613 0.0
C1939 C 0.15152 0.70465 0.11566 0.0
C1940 C 0.14753 0.75001 0.13977 0.0
C1941 C 0.15736 0.72985 0.10798 0.0
C1942 C 0.15688 0.79785 0.148 0.0
C1943 C 0.11775 0.79606 0.17726 0.0
N1944 N 0.15525 0.75157 0.12003 0.0
N1945 N 0.12397 0.77428 0.1663 0.0
H1946 H 0.5209 0.91296 0.34199 0.0
H1947 H 0.45694 0.84332 0.43683 0.0
H1948 H 0.5684 0.88121 0.39035 0.0
H1949 H 0.4184 0.90996 0.40925 0.0
H1950 H 0.49656 0.85289 0.41708 0.0
H1951 H 0.48171 0.90858 0.3636 0.0
C1952 C 0.52313 0.90524 0.35719 0.0
C1953 C 0.54801 0.89743 0.36437 0.0
C1954 C 0.47949 0.8655 0.4154 0.0
C1955 C 0.50318 0.89188 0.38894 0.0
C1956 C 0.45681 0.86 0.42659 0.0
C1957 C 0.43431 0.87588 0.42467 0.0
C1958 C 0.47959 0.88666 0.40173 0.0
C1959 C 0.43534 0.89726 0.41119 0.0
C1960 C 0.50077 0.90284 0.3695 0.0
C1961 C 0.54968 0.88759 0.38421 0.0
N1962 N 0.45751 0.90186 0.40002 0.0
N1963 N 0.52755 0.88474 0.39567 0.0
H1964 H 0.39036 0.28047 0.58559 0.0
H1965 H 0.33955 0.18467 0.67292 0.0
H1966 H 0.33608 0.30784 0.6313 0.0
H1967 H 0.41908 0.18262 0.65011 0.0
H1968 H 0.33104 0.224 0.65196 0.0
H1969 H 0.39407 0.23853 0.60354 0.0
C1970 C 0.37898 0.27759 0.59929 0.0
C1971 C 0.36296 0.2978 0.607 0.0
C1972 C 0.35021 0.21467 0.65141 0.0
C1973 C 0.36692 0.24958 0.62745 0.0
C1974 C 0.35499 0.19217 0.66316 0.0
C1975 C 0.38004 0.18049 0.66315 0.0
C1976 C 0.37046 0.22499 0.63926 0.0
C1977 C 0.39952 0.19112 0.65051 0.0
C1978 C 0.38121 0.25366 0.60954 0.0
C1979 C 0.34881 0.29288 0.62491 0.0
N1980 N 0.3943 0.2127 0.63901 0.0
N1981 N 0.35104 0.2692 0.63451 0.0
H1982 H 0.04013 0.10752 0.94528 0.0
H1983 H 0.98249 0.11075 0.83283 0.0
H1984 H 0.08969 0.12284 0.89362 0.0
H1985 H 0.93805 0.09007 0.88625 0.0
H1986 H 0.02285 0.11152 0.85343 0.0
H1987 H 0.00391 0.09675 0.92274 0.0
C1988 C 0.04345 0.10824 0.92907 0.0
C1989 C 0.06788 0.11612 0.92128 0.0
C1990 C 0.00428 0.10654 0.86054 0.0
C1991 C 0.02601 0.10444 0.89512 0.0
C1992 C 0.98122 0.10607 0.8488 0.0
C1993 C 0.95672 0.1006 0.85784 0.0
C1994 C 0.0028 0.10148 0.88144 0.0
C1995 C 0.95634 0.09469 0.8786 0.0
C1996 C 0.02269 0.10215 0.91616 0.0
C1997 C 0.07114 0.11668 0.90018 0.0
N1998 N 0.9789 0.09546 0.88963 0.0
N1999 N 0.05024 0.11132 0.88776 0.0
H2000 H 0.84031 0.81532 0.67676 0.0
H2001 H 0.88931 0.72573 0.58477 0.0
H2002 H 0.9183 0.82044 0.65125 0.0
H2003 H 0.83763 0.69434 0.63075 0.0
H2004 H 0.89218 0.76691 0.60382 0.0
H2005 H 0.83133 0.77697 0.65469 0.0
C2006 C 0.85529 0.80868 0.66625 0.0
C2007 C 0.88008 0.82088 0.66577 0.0
C2008 C 0.88004 0.75107 0.60963 0.0
C2009 C 0.86996 0.77768 0.64059 0.0
C2010 C 0.8783 0.72756 0.59875 0.0
C2011 C 0.86335 0.70642 0.60624 0.0
C2012 C 0.86636 0.75376 0.62798 0.0
C2013 C 0.84959 0.71003 0.62452 0.0
C2014 C 0.85026 0.78677 0.65384 0.0
C2015 C 0.89898 0.81144 0.65209 0.0
N2016 N 0.85139 0.73329 0.63478 0.0
N2017 N 0.89351 0.7905 0.64001 0.0
H2018 H 0.02692 0.13655 0.33849 0.0
H2019 H 0.93464 0.08787 0.42844 0.0
H2020 H 0.05886 0.0877 0.38603 0.0
H2021 H 0.9293 0.16538 0.4021 0.0
H2022 H 0.975 0.07985 0.40839 0.0
H2023 H 0.98553 0.13938 0.35705 0.0
C2024 C 0.0252 0.12617 0.35276 0.0
C2025 C 0.04653 0.11192 0.36073 0.0
C2026 C 0.96477 0.09848 0.40696 0.0
C2027 C 0.99881 0.11495 0.38199 0.0
C2028 C 0.94171 0.10296 0.4182 0.0
C2029 C 0.92873 0.12731 0.41684 0.0
C2030 C 0.97428 0.11825 0.39396 0.0
C2031 C 0.9388 0.14637 0.40358 0.0
C2032 C 1.00154 0.12791 0.36336 0.0
C2033 C 0.043 0.09903 0.37939 0.0
N2034 N 0.96084 0.14139 0.39258 0.0
N2035 N 0.01951 0.10076 0.3894 0.0
H2036 H 0.6366 0.26837 0.08584 0.0
H2037 H 0.62361 0.21281 0.19831 0.0
H2038 H 0.64742 0.31538 0.13972 0.0
H2039 H 0.62872 0.161 0.14672 0.0
H2040 H 0.63315 0.2502 0.17653 0.0
H2041 H 0.63438 0.22875 0.10704 0.0
C2042 C 0.63869 0.27041 0.1021 0.0
C2043 C 0.64203 0.2954 0.11098 0.0
C2044 C 0.63247 0.23071 0.16986 0.0
C2045 C 0.63939 0.25001 0.13532 0.0
C2046 C 0.627 0.20929 0.18233 0.0
C2047 C 0.62536 0.18377 0.1743 0.0
C2048 C 0.63592 0.22685 0.14899 0.0
C2049 C 0.62999 0.18037 0.1535 0.0
C2050 C 0.63747 0.24772 0.11417 0.0
C2051 C 0.6447 0.29667 0.13212 0.0
N2052 N 0.63476 0.20177 0.14147 0.0
N2053 N 0.64313 0.2744 0.14351 0.0
H2054 H 0.48748 0.90955 0.84057 0.0
H2055 H 0.54978 0.84797 0.93885 0.0
H2056 H 0.44027 0.88869 0.89249 0.0
H2057 H 0.59336 0.90613 0.90505 0.0
H2058 H 0.51019 0.85926 0.91977 0.0
H2059 H 0.52729 0.9056 0.86158 0.0
C2060 C 0.48544 0.90436 0.8564 0.0
C2061 C 0.46044 0.89935 0.86475 0.0
C2062 C 0.52833 0.86973 0.9166 0.0
C2063 C 0.50592 0.8944 0.88869 0.0
C2064 C 0.55099 0.86323 0.92742 0.0
C2065 C 0.5749 0.87615 0.92352 0.0
C2066 C 0.52959 0.88882 0.90128 0.0
C2067 C 0.57527 0.8958 0.90856 0.0
C2068 C 0.50816 0.90222 0.86837 0.0
C2069 C 0.45905 0.89277 0.88538 0.0
N2070 N 0.55299 0.9013 0.89772 0.0
N2071 N 0.48144 0.8901 0.89653 0.0
H2072 H 0.84492 0.26994 0.93384 0.0
H2073 H 0.91156 0.20428 0.83933 0.0
H2074 H 0.86771 0.31514 0.88134 0.0
H2075 H 0.84983 0.16229 0.87059 0.0
H2076 H 0.89996 0.24411 0.85783 0.0
H2077 H 0.84979 0.22932 0.91392 0.0
C2078 C 0.8507 0.27135 0.91809 0.0
C2079 C 0.85604 0.29598 0.90925 0.0
C2080 C 0.88887 0.22623 0.86062 0.0
C2081 C 0.86208 0.24968 0.88663 0.0
C2082 C 0.89559 0.20338 0.85019 0.0
C2083 C 0.88165 0.17987 0.85347 0.0
C2084 C 0.86845 0.2256 0.87488 0.0
C2085 C 0.86102 0.18003 0.86764 0.0
C2086 C 0.85336 0.24819 0.90675 0.0
C2087 C 0.86336 0.29663 0.88877 0.0
N2088 N 0.85521 0.20254 0.87807 0.0
N2089 N 0.86658 0.27381 0.87826 0.0
H2090 H 0.44236 0.08513 0.63835 0.0
H2091 H 0.57546 0.16069 0.62293 0.0
H2092 H 0.47879 0.1279 0.68744 0.0
H2093 H 0.56419 0.08548 0.59388 0.0
H2094 H 0.53761 0.15161 0.64485 0.0
H2095 H 0.48422 0.08716 0.61962 0.0
C2096 C 0.45918 0.09474 0.64526 0.0
C2097 C 0.45705 0.10641 0.66449 0.0
C2098 C 0.54359 0.13694 0.63386 0.0
C2099 C 0.50464 0.10917 0.64303 0.0
C2100 C 0.56512 0.14211 0.62136 0.0
C2101 C 0.57292 0.12374 0.6067 0.0
C2102 C 0.52917 0.11358 0.63125 0.0
C2103 C 0.55886 0.10001 0.60517 0.0
C2104 C 0.48304 0.09577 0.6346 0.0
C2105 C 0.47951 0.11856 0.67271 0.0
N2106 N 0.53728 0.09577 0.61707 0.0
N2107 N 0.5022 0.11999 0.66181 0.0
H2108 H 0.59456 0.79649 0.33277 0.0
H2109 H 0.66057 0.73506 0.42955 0.0
H2110 H 0.65655 0.83903 0.36322 0.0
H2111 H 0.63617 0.68694 0.37903 0.0
H2112 H 0.65629 0.77441 0.40805 0.0
H2113 H 0.60597 0.75709 0.35208 0.0
C2114 C 0.61067 0.79752 0.34351 0.0
C2115 C 0.62464 0.82108 0.3464 0.0
C2116 C 0.65222 0.75517 0.40166 0.0
C2117 C 0.63747 0.77602 0.3689 0.0
C2118 C 0.65456 0.73273 0.4139 0.0
C2119 C 0.64869 0.70763 0.40609 0.0
C2120 C 0.64328 0.75256 0.38164 0.0
C2121 C 0.64101 0.70582 0.3857 0.0
C2122 C 0.61723 0.77496 0.35446 0.0
C2123 C 0.64536 0.82121 0.36051 0.0
N2124 N 0.63813 0.72798 0.3743 0.0
N2125 N 0.65094 0.79909 0.3715 0.0
H2126 H 0.9159 0.87965 0.12732 0.0
H2127 H 0.07157 0.9076 0.13434 0.0
H2128 H 0.96907 0.88378 0.0765 0.0
H2129 H 0.02505 0.88782 0.18692 0.0
H2130 H 0.03188 0.9061 0.11371 0.0
H2131 H 0.95332 0.88954 0.15015 0.0
C2132 C 0.93528 0.8831 0.12098 0.0
C2133 C 0.93949 0.88079 0.10005 0.0
C2134 C 0.03024 0.90219 0.12978 0.0
C2135 C 0.98206 0.892 0.12579 0.0
C2136 C 0.05299 0.90308 0.14162 0.0
C2137 C 0.05183 0.89759 0.16243 0.0
C2138 C 0.00592 0.89568 0.13867 0.0
C2139 C 0.02698 0.89204 0.17092 0.0
C2140 C 0.95661 0.88854 0.13396 0.0
C2141 C 0.96498 0.88517 0.09257 0.0
N2142 N 0.00503 0.89105 0.159 0.0
N2143 N 0.98518 0.89048 0.10537 0.0
H2144 H 0.60638 0.70922 0.82956 0.0
H2145 H 0.65817 0.76865 0.93251 0.0
H2146 H 0.65648 0.66284 0.86838 0.0
H2147 H 0.64322 0.81672 0.87984 0.0
H2148 H 0.65526 0.72912 0.91111 0.0
H2149 H 0.61702 0.74831 0.84939 0.0
C2150 C 0.61981 0.70731 0.84223 0.0
C2151 C 0.63058 0.68275 0.84735 0.0
C2152 C 0.65292 0.74837 0.90426 0.0
C2153 C 0.64244 0.72753 0.87047 0.0
C2154 C 0.65443 0.77094 0.91645 0.0
C2155 C 0.65078 0.79611 0.908 0.0
C2156 C 0.64717 0.75095 0.88356 0.0
C2157 C 0.64614 0.79781 0.88707 0.0
C2158 C 0.62593 0.72969 0.85351 0.0
C2159 C 0.64789 0.68146 0.86391 0.0
N2160 N 0.64413 0.77558 0.87566 0.0
N2161 N 0.653 0.70352 0.87513 0.0
H2162 H 0.54037 0.35255 0.08119 0.0
H2163 H 0.4801 0.411 0.18132 0.0
H2164 H 0.58595 0.40631 0.11768 0.0
H2165 H 0.43203 0.3929 0.12922 0.0
H2166 H 0.51959 0.40729 0.16006 0.0
H2167 H 0.50097 0.36452 0.10021 0.0
C2168 C 0.54205 0.36702 0.09319 0.0
C2169 C 0.56647 0.37844 0.09791 0.0
C2170 C 0.50037 0.40448 0.15327 0.0
C2171 C 0.52134 0.39189 0.12005 0.0
C2172 C 0.47781 0.40647 0.16539 0.0
C2173 C 0.45267 0.40211 0.15707 0.0
C2174 C 0.49783 0.39748 0.1328 0.0
C2175 C 0.45095 0.39643 0.1363 0.0
C2176 C 0.51949 0.37392 0.10398 0.0
C2177 C 0.56745 0.39714 0.11356 0.0
N2178 N 0.47321 0.39388 0.12498 0.0
N2179 N 0.54523 0.40301 0.12433 0.0
H2180 H 0.88942 0.29119 0.32859 0.0
H2181 H 0.8436 0.22941 0.43223 0.0
H2182 H 0.84577 0.33752 0.37179 0.0
H2183 H 0.85523 0.18254 0.37842 0.0
H2184 H 0.84502 0.26935 0.41138 0.0
H2185 H 0.87799 0.25137 0.34728 0.0
C2186 C 0.87715 0.29292 0.34196 0.0
C2187 C 0.86854 0.31767 0.3487 0.0
C2188 C 0.84689 0.2503 0.40414 0.0
C2189 C 0.85584 0.27206 0.3705 0.0
C2190 C 0.8462 0.22747 0.41602 0.0
C2191 C 0.8495 0.20251 0.4071 0.0
C2192 C 0.85143 0.24824 0.38323 0.0
C2193 C 0.85265 0.20128 0.386 0.0
C2194 C 0.87059 0.27015 0.3526 0.0
C2195 C 0.85269 0.31877 0.36608 0.0
N2196 N 0.85392 0.2238 0.37485 0.0
N2197 N 0.84719 0.29628 0.37663 0.0
H2198 H 0.96648 0.61704 0.57319 0.0
H2199 H 0.02228 0.61574 0.68597 0.0
H2200 H 0.91552 0.62445 0.62509 0.0
H2201 H 0.0687 0.59895 0.63271 0.0
H2202 H 0.98257 0.61648 0.66489 0.0
H2203 H 0.00327 0.60737 0.59546 0.0
C2204 C 0.96301 0.61634 0.58937 0.0
C2205 C 0.93799 0.62166 0.59734 0.0
C2206 C 1.00142 0.6124 0.65788 0.0
C2207 C 0.9804 0.61107 0.62317 0.0
C2208 C 0.02416 0.61202 0.66988 0.0
C2209 C 0.04901 0.6075 0.6611 0.0
C2210 C 0.00352 0.60835 0.63691 0.0
C2211 C 0.0501 0.6027 0.64019 0.0
C2212 C 0.98408 0.61082 0.60212 0.0
C2213 C 0.93454 0.62034 0.61839 0.0
N2214 N 0.02776 0.60343 0.62885 0.0
N2215 N 0.95568 0.61553 0.63067 0.0
H2216 H 0.65918 0.33713 0.64901 0.0
H2217 H 0.64244 0.18034 0.64254 0.0
H2218 H 0.60743 0.29237 0.68771 0.0
H2219 H 0.65731 0.22715 0.58919 0.0
H2220 H 0.64072 0.22082 0.6627 0.0
H2221 H 0.66928 0.29628 0.63009 0.0
C2222 C 0.65028 0.3187 0.65367 0.0
C2223 C 0.63233 0.31809 0.66982 0.0
C2224 C 0.64463 0.22217 0.64661 0.0
C2225 C 0.64407 0.2716 0.64869 0.0
C2226 C 0.64574 0.19907 0.6351 0.0
C2227 C 0.6498 0.20032 0.61409 0.0
C2228 C 0.64803 0.24675 0.63716 0.0
C2229 C 0.65387 0.22526 0.60531 0.0
C2230 C 0.65593 0.29551 0.64286 0.0
C2231 C 0.62121 0.29375 0.67523 0.0
N2232 N 0.65285 0.2475 0.61687 0.0
N2233 N 0.62732 0.27154 0.66478 0.0
H2234 H 0.95797 0.35034 0.93876 0.0
H2235 H 0.0201 0.40699 0.83901 0.0
H2236 H 0.91373 0.40566 0.90275 0.0
H2237 H 0.06726 0.39015 0.89183 0.0
H2238 H 0.98025 0.40413 0.86002 0.0
H2239 H 0.99766 0.36165 0.91983 0.0
C2240 C 0.95666 0.365 0.92688 0.0
C2241 C 0.93254 0.37707 0.92227 0.0
C2242 C 0.99937 0.40144 0.86701 0.0
C2243 C 0.97793 0.38976 0.90024 0.0
C2244 C 0.02211 0.40294 0.85504 0.0
C2245 C 0.04709 0.39869 0.86366 0.0
C2246 C 1.0016 0.395 0.88761 0.0
C2247 C 0.04848 0.39361 0.88453 0.0
C2248 C 0.97936 0.37153 0.91615 0.0
C2249 C 0.93199 0.396 0.90678 0.0
N2250 N 0.02606 0.3915 0.8957 0.0
N2251 N 0.95434 0.40149 0.89603 0.0
H2252 H 0.89084 0.77604 0.08658 0.0
H2253 H 0.84109 0.68619 0.17833 0.0
H2254 H 0.83996 0.80771 0.13296 0.0
H2255 H 0.91756 0.67821 0.15062 0.0
H2256 H 0.833 0.72557 0.15717 0.0
H2257 H 0.89326 0.73468 0.10533 0.0
C2258 C 0.87995 0.77427 0.10062 0.0
C2259 C 0.8653 0.79554 0.10824 0.0
C2260 C 0.8514 0.71496 0.15565 0.0
C2261 C 0.86783 0.74789 0.12972 0.0
C2262 C 0.85591 0.69245 0.16754 0.0
C2263 C 0.88004 0.67906 0.16618 0.0
C2264 C 0.87091 0.72355 0.14203 0.0
C2265 C 0.89874 0.68808 0.15217 0.0
C2266 C 0.88143 0.75063 0.11134 0.0
C2267 C 0.85168 0.79193 0.1266 0.0
N2268 N 0.89377 0.70964 0.14061 0.0
N2269 N 0.85322 0.76853 0.13672 0.0
H2270 H 0.57493 0.66863 0.40093 0.0
H2271 H 0.44212 0.59026 0.38722 0.0
H2272 H 0.56555 0.59329 0.43014 0.0
H2273 H 0.47662 0.6357 0.33874 0.0
H2274 H 0.48407 0.59351 0.4059 0.0
H2275 H 0.53582 0.65962 0.38041 0.0
C2276 C 0.5647 0.65005 0.40286 0.0
C2277 C 0.57347 0.63161 0.41712 0.0
C2278 C 0.48239 0.60249 0.39107 0.0
C2279 C 0.52826 0.62148 0.39413 0.0
C2280 C 0.45847 0.60078 0.38047 0.0
C2281 C 0.4558 0.61274 0.36138 0.0
C2282 C 0.50346 0.61681 0.38272 0.0
C2283 C 0.4777 0.62608 0.35335 0.0
C2284 C 0.54242 0.64492 0.39116 0.0
C2285 C 0.55948 0.60787 0.41912 0.0
N2286 N 0.50041 0.62803 0.36415 0.0
N2287 N 0.53723 0.60361 0.40795 0.0
H2288 H 0.36173 0.18856 0.1425 0.0
H2289 H 0.3429 0.34415 0.15397 0.0
H2290 H 0.34273 0.23677 0.09068 0.0
H2291 H 0.40106 0.29967 0.18707 0.0
H2292 H 0.33205 0.30397 0.13445 0.0
H2293 H 0.36503 0.22845 0.16319 0.0
C2294 C 0.35788 0.20748 0.13552 0.0
C2295 C 0.35217 0.20932 0.11477 0.0
C2296 C 0.34701 0.30313 0.14613 0.0
C2297 C 0.35567 0.25503 0.13847 0.0
C2298 C 0.35311 0.32592 0.15727 0.0
C2299 C 0.37301 0.32521 0.17202 0.0
C2300 C 0.3604 0.27947 0.15028 0.0
C2301 C 0.38573 0.30113 0.17571 0.0
C2302 C 0.35988 0.23023 0.14733 0.0
C2303 C 0.34744 0.23447 0.10658 0.0
N2304 N 0.37913 0.27926 0.16503 0.0
N2305 N 0.34929 0.25638 0.11845 0.0
H2306 H 0.56905 0.6217 0.88814 0.0
H2307 H 0.41464 0.6019 0.90164 0.0
H2308 H 0.52144 0.5996 0.83669 0.0
H2309 H 0.45763 0.66536 0.92992 0.0
H2310 H 0.45435 0.59121 0.88154 0.0
H2311 H 0.52886 0.62744 0.90814 0.0
C2312 C 0.55018 0.61771 0.88111 0.0
C2313 C 0.5486 0.61032 0.86067 0.0
C2314 C 0.4549 0.60742 0.8922 0.0
C2315 C 0.50258 0.61658 0.88358 0.0
C2316 C 0.43238 0.61346 0.90365 0.0
C2317 C 0.43284 0.63461 0.91736 0.0
C2318 C 0.47809 0.62213 0.89505 0.0
C2319 C 0.45632 0.649 0.91944 0.0
C2320 C 0.52727 0.62111 0.89251 0.0
C2321 C 0.52352 0.60553 0.85236 0.0
N2322 N 0.47802 0.64235 0.90857 0.0
N2323 N 0.50143 0.60868 0.86387 0.0
H2324 H 0.14404 0.82161 0.64494 0.0
H2325 H 0.16331 0.66582 0.65621 0.0
H2326 H 0.1697 0.77417 0.59439 0.0
H2327 H 0.10367 0.71027 0.68775 0.0
H2328 H 0.17545 0.70619 0.63739 0.0
H2329 H 0.13945 0.78156 0.66522 0.0
C2330 C 0.14909 0.80284 0.63817 0.0
C2331 C 0.15705 0.80128 0.61785 0.0
C2332 C 0.15985 0.70698 0.64856 0.0
C2333 C 0.15195 0.75531 0.6411 0.0
C2334 C 0.15302 0.68407 0.6593 0.0
C2335 C 0.13237 0.68472 0.67343 0.0
C2336 C 0.14639 0.73068 0.65247 0.0
C2337 C 0.11956 0.70882 0.67687 0.0
C2338 C 0.14634 0.77997 0.64974 0.0
C2339 C 0.16327 0.77629 0.60994 0.0
N2340 N 0.12685 0.73078 0.66657 0.0
N2341 N 0.16055 0.75425 0.62156 0.0
H2342 H 0.97475 0.36562 0.33937 0.0
H2343 H 0.0648 0.41606 0.43012 0.0
H2344 H 0.94184 0.41607 0.38552 0.0
H2345 H 0.07044 0.33787 0.405 0.0
H2346 H 0.02492 0.42369 0.4094 0.0
H2347 H 0.01549 0.3628 0.3588 0.0
C2348 C 0.97613 0.37633 0.35353 0.0
C2349 C 0.95473 0.39104 0.36085 0.0
C2350 C 0.03509 0.40498 0.4084 0.0
C2351 C 1.00168 0.38804 0.3831 0.0
C2352 C 0.05787 0.40072 0.42003 0.0
C2353 C 0.07081 0.3763 0.4192 0.0
C2354 C 0.02582 0.38492 0.39555 0.0
C2355 C 0.06096 0.35693 0.40609 0.0
C2356 C 0.9994 0.3746 0.36463 0.0
C2357 C 0.95777 0.40436 0.37939 0.0
N2358 N 0.0392 0.3617 0.39471 0.0
N2359 N 0.98091 0.40265 0.38988 0.0
H2360 H 0.36163 0.82368 0.38071 0.0
H2361 H 0.3443 0.66718 0.37211 0.0
H2362 H 0.34463 0.77613 0.43333 0.0
H2363 H 0.39573 0.7132 0.33403 0.0
H2364 H 0.33416 0.70746 0.39174 0.0
H2365 H 0.36351 0.78365 0.36021 0.0
C2366 C 0.35797 0.80488 0.38795 0.0
C2367 C 0.35322 0.80333 0.40886 0.0
C2368 C 0.34746 0.70862 0.37895 0.0
C2369 C 0.35521 0.75731 0.38533 0.0
C2370 C 0.35312 0.68576 0.36774 0.0
C2371 C 0.37098 0.68689 0.35154 0.0
C2372 C 0.35925 0.73271 0.37349 0.0
C2373 C 0.38201 0.7114 0.34651 0.0
C2374 C 0.35914 0.78201 0.37622 0.0
C2375 C 0.34861 0.77827 0.4173 0.0
N2376 N 0.37591 0.73326 0.35736 0.0
N2377 N 0.34978 0.75622 0.40553 0.0
H2378 H 0.04838 0.66042 0.08556 0.0
H2379 H 0.98403 0.59169 0.18003 0.0
H2380 H 0.0895 0.59708 0.11545 0.0
H2381 H 0.93719 0.61807 0.12943 0.0
H2382 H 0.02386 0.59641 0.15918 0.0
H2383 H 0.00838 0.64879 0.10407 0.0
C2384 C 0.04899 0.64401 0.09604 0.0
C2385 C 0.07232 0.62969 0.09899 0.0
C2386 C 0.00481 0.60081 0.15261 0.0
C2387 C 0.02655 0.61656 0.12052 0.0
C2388 C 0.98209 0.59821 0.16448 0.0
C2389 C 0.95722 0.60451 0.15646 0.0
C2390 C 0.00272 0.61047 0.13276 0.0
C2391 C 0.9559 0.61286 0.13622 0.0
C2392 C 0.02608 0.63731 0.10651 0.0
C2393 C 0.07189 0.60855 0.11271 0.0
N2394 N 0.97834 0.61601 0.12519 0.0
N2395 N 0.04942 0.60282 0.12322 0.0
H2396 H 0.08501 0.32392 0.87047 0.0
H2397 H 0.16547 0.19262 0.8874 0.0
H2398 H 0.16205 0.31493 0.84396 0.0
H2399 H 0.1133 0.22428 0.93292 0.0
H2400 H 0.1627 0.23468 0.86897 0.0
H2401 H 0.09307 0.28508 0.89149 0.0
C2402 C 0.10379 0.31387 0.86927 0.0
C2403 C 0.12296 0.32266 0.85557 0.0
C2404 C 0.15209 0.23239 0.88309 0.0
C2405 C 0.13204 0.27768 0.87916 0.0
C2406 C 0.15351 0.20837 0.89355 0.0
C2407 C 0.13954 0.20483 0.91174 0.0
C2408 C 0.13611 0.25276 0.89062 0.0
C2409 C 0.12446 0.22604 0.91901 0.0
C2410 C 0.10837 0.29172 0.88126 0.0
C2411 C 0.1469 0.30888 0.85451 0.0
N2412 N 0.12291 0.24889 0.90833 0.0
N2413 N 0.15064 0.28675 0.86593 0.0
H2414 H 0.52338 0.3867 0.68515 0.0
H2415 H 0.4632 0.39045 0.5738 0.0
H2416 H 0.56742 0.40692 0.6314 0.0
H2417 H 0.41455 0.37887 0.62656 0.0
H2418 H 0.5006 0.39999 0.59552 0.0
H2419 H 0.48283 0.38663 0.66503 0.0
C2420 C 0.52455 0.39132 0.66917 0.0
C2421 C 0.54898 0.39657 0.65993 0.0
C2422 C 0.48179 0.39566 0.6025 0.0
C2423 C 0.50256 0.39651 0.63685 0.0
C2424 C 0.46037 0.39022 0.59007 0.0
C2425 C 0.43585 0.38375 0.59844 0.0
C2426 C 0.47895 0.39413 0.6236 0.0
C2427 C 0.43319 0.38389 0.61957 0.0
C2428 C 0.50134 0.39132 0.65771 0.0
C2429 C 0.54917 0.40253 0.63919 0.0
N2430 N 0.45467 0.3886 0.63151 0.0
N2431 N 0.5264 0.40215 0.62838 0.0
H2432 H 0.1216 0.0805 0.27959 0.0
H2433 H 0.08968 0.93927 0.23419 0.0
H2434 H 0.11111 0.01389 0.31921 0.0
H2435 H 0.15183 0.98819 0.21044 0.0
H2436 H 0.08357 0.97091 0.26207 0.0
H2437 H 0.11826 0.05102 0.25028 0.0
C2438 C 0.11784 0.05979 0.28209 0.0
C2439 C 0.11635 0.04952 0.30173 0.0
C2440 C 0.09833 0.97468 0.25058 0.0
C2441 C 0.11251 0.01592 0.26849 0.0
C2442 C 0.10191 0.95665 0.2348 0.0
C2443 C 0.12172 0.96079 0.22036 0.0
C2444 C 0.11404 0.99741 0.25134 0.0
C2445 C 0.13656 0.98407 0.22145 0.0
C2446 C 0.11615 0.04301 0.26541 0.0
C2447 C 0.1122 0.02243 0.30421 0.0
N2448 N 0.13239 1.00157 0.23666 0.0
N2449 N 0.11035 0.00645 0.28772 0.0
H2450 H 0.2104 0.83402 0.5521 0.0
H2451 H 0.28198 0.91955 0.4675 0.0
H2452 H 0.22658 0.9173 0.55656 0.0
H2453 H 0.30175 0.83733 0.47417 0.0
H2454 H 0.25359 0.91648 0.49694 0.0
H2455 H 0.23745 0.8324 0.52094 0.0
C2456 C 0.21967 0.85184 0.54658 0.0
C2457 C 0.21625 0.87584 0.55684 0.0
C2458 C 0.26412 0.89905 0.49204 0.0
C2459 C 0.24654 0.87419 0.52152 0.0
C2460 C 0.28026 0.90074 0.47514 0.0
C2461 C 0.29456 0.87875 0.46859 0.0
C2462 C 0.26201 0.87514 0.50254 0.0
C2463 C 0.29135 0.85484 0.47902 0.0
C2464 C 0.23507 0.85089 0.52892 0.0
C2465 C 0.22871 0.89836 0.54919 0.0
N2466 N 0.27539 0.85362 0.49564 0.0
N2467 N 0.24306 0.897 0.53197 0.0
H2468 H 0.36036 0.98949 0.81479 0.0
H2469 H 0.41136 0.01876 0.70604 0.0
H2470 H 0.42549 0.94343 0.79245 0.0
H2471 H 0.38885 0.08089 0.74718 0.0
H2472 H 0.41513 0.98854 0.7352 0.0
H2473 H 0.3679 0.02145 0.7879 0.0
C2474 C 0.37634 0.98612 0.80422 0.0
C2475 C 0.39208 0.96354 0.80561 0.0
C2476 C 0.4099 0.00896 0.73774 0.0
C2477 C 0.40047 0.99983 0.77453 0.0
C2478 C 0.40771 0.02613 0.72118 0.0
C2479 C 0.39944 0.05221 0.72423 0.0
C2480 C 0.40333 0.01803 0.75722 0.0
C2481 C 0.395 0.06086 0.74412 0.0
C2482 C 0.38067 0.00441 0.78892 0.0
C2483 C 0.41261 0.96028 0.79159 0.0
N2484 N 0.39654 0.04371 0.75979 0.0
N2485 N 0.41597 0.97802 0.7763 0.0
H2486 H 0.17164 0.13892 0.99484 0.0
H2487 H 0.31226 0.17443 0.04032 0.0
H2488 H 0.23549 0.1597 0.95479 0.0
H2489 H 0.26202 0.11278 0.06316 0.0
H2490 H 0.28118 0.18129 0.01209 0.0
H2491 H 0.2012 0.143 0.02364 0.0
C2492 C 0.1918 0.14487 0.99212 0.0
C2493 C 0.2012 0.14868 0.97236 0.0
C2494 C 0.27701 0.16646 0.02343 0.0
C2495 C 0.23524 0.15326 1.00538 0.0
C2496 C 0.29468 0.16252 0.03946 0.0
C2497 C 0.2899 0.14273 0.05384 0.0
C2498 C 0.25408 0.15107 0.02235 0.0
C2499 C 0.26658 0.1281 0.0523 0.0
C2500 C 0.20868 0.14705 1.00859 0.0
C2501 C 0.22755 0.15642 0.96979 0.0
N2502 N 0.24952 0.13262 0.03689 0.0
N2503 N 0.24385 0.15823 0.98618 0.0
H2504 H 0.90628 0.01149 0.81846 0.0
H2505 H 0.87528 0.98895 0.70271 0.0
H2506 H 0.89389 0.07453 0.77569 0.0
H2507 H 0.91642 0.92981 0.73716 0.0
H2508 H 0.88257 0.02041 0.72999 0.0
H2509 H 0.91139 0.98067 0.78984 0.0
C2510 C 0.90516 0.0189 0.8031 0.0
C2511 C 0.89935 0.04548 0.79938 0.0
C2512 C 0.89041 1.00067 0.73156 0.0
C2513 C 0.90488 0.01064 0.76688 0.0
C2514 C 0.88619 0.98272 0.71598 0.0
C2515 C 0.89537 0.95685 0.71773 0.0
C2516 C 0.90329 0.99253 0.74932 0.0
C2517 C 0.90931 0.94969 0.73523 0.0
C2518 C 0.90806 1.00137 0.78682 0.0
C2519 C 0.89811 0.05415 0.77924 0.0
N2520 N 0.91251 0.96736 0.75059 0.0
N2521 N 0.90049 0.03676 0.76381 0.0
H2522 H 0.67509 0.14233 0.53002 0.0
H2523 H 0.82344 0.14469 0.49031 0.0
H2524 H 0.74113 0.12247 0.56798 0.0
H2525 H 0.75836 0.12138 0.4525 0.0
H2526 H 0.79298 0.15015 0.51885 0.0
H2527 H 0.70524 0.1482 0.5013 0.0
C2528 C 0.69601 0.14007 0.53241 0.0
C2529 C 0.70581 0.13236 0.55131 0.0
C2530 C 0.78535 0.14433 0.50419 0.0
C2531 C 0.74019 0.13867 0.51879 0.0
C2532 C 0.80263 0.14158 0.4879 0.0
C2533 C 0.79321 0.13305 0.46908 0.0
C2534 C 0.75849 0.13882 0.50145 0.0
C2535 C 0.76622 0.12812 0.46684 0.0
C2536 C 0.71313 0.14307 0.51603 0.0
C2537 C 0.73297 0.12856 0.55356 0.0
N2538 N 0.7497 0.13113 0.48286 0.0
N2539 N 0.74931 0.13182 0.53747 0.0
H2540 H 0.5713 0.05809 0.23164 0.0
H2541 H 0.65774 0.95721 0.29134 0.0
H2542 H 0.63691 0.01835 0.20381 0.0
H2543 H 0.57427 0.96073 0.30321 0.0
H2544 H 0.65106 0.98252 0.26038 0.0
H2545 H 0.57176 0.02536 0.25913 0.0
C2546 C 0.58557 0.0423 0.23126 0.0
C2547 C 0.60425 0.04092 0.21568 0.0
C2548 C 0.63414 0.97766 0.26966 0.0
C2549 C 0.60508 0.00384 0.24685 0.0
C2550 C 0.63796 0.96342 0.28741 0.0
C2551 C 0.61652 0.95717 0.29988 0.0
C2552 C 0.60879 0.98643 0.2646 0.0
C2553 C 0.59127 0.96535 0.29397 0.0
C2554 C 0.5857 0.02356 0.24679 0.0
C2555 C 0.62213 0.01994 0.21558 0.0
N2556 N 0.5881 0.98004 0.27685 0.0
N2557 N 0.62242 1.00245 0.23114 0.0
H2558 H 0.69649 0.82663 0.97672 0.0
H2559 H 0.77202 0.84001 0.06668 0.0
H2560 H 0.74151 0.89552 0.96057 0.0
H2561 H 0.83165 0.86819 0.02541 0.0
H2562 H 0.74121 0.83626 0.03799 0.0
H2563 H 0.72669 0.81895 1.00533 0.0
C2564 C 0.71261 0.84015 0.97926 0.0
C2565 C 0.71614 0.86211 0.96664 0.0
C2566 C 0.76125 0.84262 0.03523 0.0
C2567 C 0.75093 0.85314 0.99869 0.0
C2568 C 0.77875 0.84487 0.05157 0.0
C2569 C 0.8043 0.8546 0.04841 0.0
C2570 C 0.76945 0.85052 0.01581 0.0
C2571 C 0.81208 0.86074 0.02856 0.0
C2572 C 0.72979 0.83576 0.99552 0.0
C2573 C 0.73787 0.87854 0.97009 0.0
N2574 N 0.79458 0.85908 0.01311 0.0
N2575 N 0.75449 0.87366 0.98573 0.0
H2576 H 0.60705 0.57536 0.77915 0.0
H2577 H 0.59517 0.42988 0.73583 0.0
H2578 H 0.6199 0.50813 0.81762 0.0
H2579 H 0.63732 0.49082 0.70407 0.0
H2580 H 0.58923 0.46004 0.76465 0.0
H2581 H 0.60273 0.54588 0.74995 0.0
C2582 C 0.60804 0.55438 0.78155 0.0
C2583 C 0.61344 0.5441 0.80078 0.0
C2584 C 0.59939 0.46682 0.7512 0.0
C2585 C 0.60866 0.51036 0.76764 0.0
C2586 C 0.60268 0.44971 0.7348 0.0
C2587 C 0.61685 0.45786 0.71771 0.0
C2588 C 0.60963 0.49245 0.75008 0.0
C2589 C 0.62638 0.48378 0.71707 0.0
C2590 C 0.6059 0.53761 0.76488 0.0
C2591 C 0.61559 0.51672 0.80298 0.0
N2592 N 0.62251 0.50024 0.73302 0.0
N2593 N 0.61311 0.50069 0.78657 0.0
H2594 H 0.82352 0.35248 0.99012 0.0
H2595 H 0.67558 0.35042 0.03049 0.0
H2596 H 0.75785 0.37336 0.95216 0.0
H2597 H 0.74104 0.37372 0.06787 0.0
H2598 H 0.70563 0.34569 1.00158 0.0
H2599 H 0.7934 0.34698 0.01878 0.0
C2600 C 0.80268 0.35501 0.98768 0.0
C2601 C 0.79306 0.36284 0.96876 0.0
C2602 C 0.71343 0.35134 0.01623 0.0
C2603 C 0.75856 0.35704 1.00135 0.0
C2604 C 0.69637 0.3537 0.03273 0.0
C2605 C 0.70596 0.36207 0.05154 0.0
C2606 C 0.74031 0.35692 0.01879 0.0
C2607 C 0.73298 0.36708 0.05356 0.0
C2608 C 0.78555 0.35226 1.00407 0.0
C2609 C 0.76593 0.36711 0.96656 0.0
N2610 N 0.74929 0.36434 0.03738 0.0
N2611 N 0.74953 0.36407 0.98268 0.0
H2612 H 0.91089 0.5709 0.23732 0.0
H2613 H 0.90095 0.42501 0.28029 0.0
H2614 H 0.8727 0.5093 0.20344 0.0
H2615 H 0.88047 0.49196 0.31712 0.0
H2616 H 0.90672 0.4545 0.25108 0.0
H2617 H 0.9159 0.54048 0.26606 0.0
C2618 C 0.90424 0.55082 0.23577 0.0
C2619 C 0.8914 0.54256 0.21811 0.0
C2620 C 0.90153 0.4627 0.2657 0.0
C2621 C 0.89744 0.5077 0.25046 0.0
C2622 C 0.89846 0.44597 0.28234 0.0
C2623 C 0.89041 0.45617 0.30105 0.0
C2624 C 0.89724 0.48984 0.26807 0.0
C2625 C 0.88674 0.48343 0.30288 0.0
C2626 C 0.90694 0.53357 0.25214 0.0
C2627 C 0.88268 0.51638 0.21688 0.0
N2628 N 0.89029 0.49942 0.28658 0.0
N2629 N 0.88593 0.49979 0.23284 0.0
H2630 H 0.68932 0.67216 0.4816 0.0
H2631 H 0.83138 0.63526 0.52419 0.0
H2632 H 0.73915 0.61136 0.45697 0.0
H2633 H 0.76926 0.65899 0.56489 0.0
H2634 H 0.8012 0.63962 0.49578 0.0
H2635 H 0.72167 0.67918 0.50895 0.0
C2636 C 0.70711 0.66053 0.48185 0.0
C2637 C 0.71143 0.6409 0.46725 0.0
C2638 C 0.79423 0.6442 0.51089 0.0
C2639 C 0.74857 0.64933 0.49779 0.0
C2640 C 0.81147 0.64186 0.52712 0.0
C2641 C 0.80271 0.6465 0.54695 0.0
C2642 C 0.76795 0.65129 0.51441 0.0
C2643 C 0.77667 0.65503 0.54982 0.0
C2644 C 0.72549 0.66453 0.49739 0.0
C2645 C 0.73495 0.62653 0.46804 0.0
N2646 N 0.76001 0.65694 0.53367 0.0
N2647 N 0.75265 0.63107 0.48302 0.0
H2648 H 0.37502 0.5132 0.31968 0.0
H2649 H 0.37751 0.49963 0.202 0.0
H2650 H 0.40133 0.57799 0.2828 0.0
H2651 H 0.39745 0.43389 0.24018 0.0
H2652 H 0.38343 0.52931 0.23108 0.0
H2653 H 0.38041 0.48361 0.29061 0.0
C2654 C 0.38238 0.52107 0.30551 0.0
C2655 C 0.38813 0.54795 0.3036 0.0
C2656 C 0.38709 0.50843 0.23295 0.0
C2657 C 0.3935 0.51459 0.27027 0.0
C2658 C 0.38369 0.49156 0.21643 0.0
C2659 C 0.3876 0.46441 0.21871 0.0
C2660 C 0.3935 0.49783 0.25196 0.0
C2661 C 0.39512 0.45475 0.23771 0.0
C2662 C 0.38548 0.50424 0.28899 0.0
C2663 C 0.39729 0.55732 0.28493 0.0
N2664 N 0.39741 0.47139 0.25374 0.0
N2665 N 0.39927 0.54074 0.26881 0.0
H2666 H 0.31993 0.66863 0.99016 0.0
H2667 H 0.19995 0.59849 0.03586 0.0
H2668 H 0.26336 0.63337 0.94969 0.0
H2669 H 0.21869 0.67601 0.05835 0.0
H2670 H 0.22625 0.60752 1.00546 0.0
H2671 H 0.28645 0.66937 0.01695 0.0
C2672 C 0.30028 0.66161 0.98681 0.0
C2673 C 0.29428 0.65111 0.96772 0.0
C2674 C 0.22438 0.62262 0.01697 0.0
C2675 C 0.2564 0.65096 0.99836 0.0
C2676 C 0.20964 0.61741 0.03435 0.0
C2677 C 0.20751 0.63648 0.04961 0.0
C2678 C 0.23776 0.64668 0.01523 0.0
C2679 C 0.22007 0.66082 0.04688 0.0
C2680 C 0.28124 0.66204 1.00206 0.0
C2681 C 0.26863 0.64189 0.96418 0.0
N2682 N 0.23523 0.66507 0.03017 0.0
N2683 N 0.25074 0.64143 0.97954 0.0
H2684 H 0.10741 0.42562 0.77964 0.0
H2685 H 0.0958 0.57295 0.73918 0.0
H2686 H 0.12141 0.49234 0.81849 0.0
H2687 H 0.13251 0.51128 0.70443 0.0
H2688 H 0.09019 0.54201 0.76751 0.0
H2689 H 0.10145 0.45567 0.75088 0.0
C2690 C 0.10837 0.44662 0.7822 0.0
C2691 C 0.11452 0.45667 0.80137 0.0
C2692 C 0.099 0.53522 0.75351 0.0
C2693 C 0.10792 0.49094 0.76882 0.0
C2694 C 0.10203 0.55277 0.73737 0.0
C2695 C 0.11463 0.54459 0.71959 0.0
C2696 C 0.10801 0.50922 0.75148 0.0
C2697 C 0.12277 0.51829 0.71799 0.0
C2698 C 0.10528 0.46369 0.76581 0.0
C2699 C 0.11658 0.48399 0.80385 0.0
N2700 N 0.11928 0.50146 0.73375 0.0
N2701 N 0.11322 0.50029 0.78773 0.0
H2702 H 0.23489 0.40221 0.46028 0.0
H2703 H 0.26671 0.34611 0.56766 0.0
H2704 H 0.18832 0.33755 0.48289 0.0
H2705 H 0.32731 0.37251 0.52652 0.0
H2706 H 0.23569 0.344 0.53891 0.0
H2707 H 0.26742 0.39387 0.48663 0.0
C2708 C 0.23155 0.38616 0.47079 0.0
C2709 C 0.20876 0.3707 0.46958 0.0
C2710 C 0.25596 0.34972 0.53625 0.0
C2711 C 0.2457 0.36132 0.50001 0.0
C2712 C 0.27358 0.35096 0.55258 0.0
C2713 C 0.29948 0.35975 0.54946 0.0
C2714 C 0.26438 0.35777 0.51694 0.0
C2715 C 0.30747 0.3658 0.52966 0.0
C2716 C 0.25016 0.38135 0.48578 0.0
C2717 C 0.20548 0.35008 0.48353 0.0
N2718 N 0.2899 0.36511 0.51424 0.0
N2719 N 0.22359 0.34621 0.49847 0.0
H2720 H 0.10843 0.11448 0.08185 0.0
H2721 H 0.13788 0.17274 0.19237 0.0
H2722 H 0.14607 0.18959 0.09209 0.0
H2723 H 0.09077 0.1034 0.18136 0.0
H2724 H 0.14561 0.17665 0.1559 0.0
H2725 H 0.10647 0.10757 0.11841 0.0
C2726 C 0.11662 0.12938 0.09177 0.0
C2727 C 0.1274 0.15269 0.08385 0.0
C2728 C 0.13369 0.16051 0.16148 0.0
C2729 C 0.12486 0.14503 0.12584 0.0
C2730 C 0.12941 0.15816 0.1823 0.0
C2731 C 0.11354 0.13778 0.18993 0.0
C2732 C 0.12212 0.14227 0.14815 0.0
C2733 C 0.10282 0.11964 0.17614 0.0
C2734 C 0.11529 0.12551 0.11268 0.0
C2735 C 0.1373 0.17148 0.09752 0.0
N2736 N 0.10726 0.12234 0.15594 0.0
N2737 N 0.13573 0.16727 0.11783 0.0
H2738 H 0.08269 0.85389 0.44319 0.0
H2739 H 0.15351 0.8748 0.33578 0.0
H2740 H 0.16706 0.85945 0.43641 0.0
H2741 H 0.06937 0.86784 0.34372 0.0
H2742 H 0.15912 0.87097 0.37251 0.0
H2743 H 0.07769 0.86099 0.40686 0.0
C2744 C 0.10021 0.85655 0.43405 0.0
C2745 C 0.12536 0.85581 0.44292 0.0
C2746 C 0.13943 0.87041 0.36621 0.0
C2747 C 0.11974 0.86418 0.40107 0.0
C2748 C 0.1362 0.87247 0.3452 0.0
C2749 C 0.1109 0.87165 0.33652 0.0
C2750 C 0.11722 0.86744 0.37871 0.0
C2751 C 0.08924 0.86897 0.34962 0.0
C2752 C 0.09732 0.86074 0.41327 0.0
C2753 C 0.14728 0.85998 0.43029 0.0
N2754 N 0.09291 0.86688 0.36996 0.0
N2755 N 0.14397 0.86383 0.41001 0.0
H2756 H 0.39946 0.82376 0.69086 0.0
H2757 H 0.3816 0.89788 0.58441 0.0
H2758 H 0.40153 0.90839 0.68496 0.0
H2759 H 0.3816 0.81335 0.59167 0.0
H2760 H 0.38765 0.90261 0.62107 0.0
H2761 H 0.39131 0.82006 0.65459 0.0
C2762 C 0.39829 0.84161 0.68192 0.0
C2763 C 0.40144 0.86642 0.69103 0.0
C2764 C 0.38622 0.88304 0.61462 0.0
C2765 C 0.39185 0.86233 0.64923 0.0
C2766 C 0.3829 0.88031 0.59365 0.0
C2767 C 0.38099 0.85515 0.58482 0.0
C2768 C 0.38772 0.86048 0.62691 0.0
C2769 C 0.3825 0.83316 0.5977 0.0
C2770 C 0.3935 0.83948 0.66117 0.0
C2771 C 0.3991 0.88885 0.67865 0.0
N2772 N 0.38581 0.83635 0.61799 0.0
N2773 N 0.39459 0.88627 0.65839 0.0
H2774 H 0.36204 0.17573 0.83238 0.0
H2775 H 0.41841 0.13187 0.94066 0.0
H2776 H 0.42775 0.12279 0.84026 0.0
H2777 H 0.34989 0.18124 0.9334 0.0
H2778 H 0.42132 0.1275 0.90389 0.0
H2779 H 0.35659 0.17739 0.8692 0.0
C2780 C 0.37535 0.16447 0.84183 0.0
C2781 C 0.39545 0.14914 0.83314 0.0
C2782 C 0.40556 0.13921 0.9103 0.0
C2783 C 0.3892 0.15084 0.8754 0.0
C2784 C 0.40396 0.14181 0.93133 0.0
C2785 C 0.38398 0.15711 0.94018 0.0
C2786 C 0.38715 0.15211 0.8979 0.0
C2787 C 0.36553 0.16912 0.92728 0.0
C2788 C 0.37213 0.16531 0.86287 0.0
C2789 C 0.41181 0.13465 0.8462 0.0
N2790 N 0.36766 0.16653 0.90681 0.0
N2791 N 0.40841 0.13597 0.86662 0.0
H2792 H 0.92869 0.89449 0.83849 0.0
H2793 H 0.8573 0.81663 0.92846 0.0
H2794 H 0.86972 0.83458 0.82862 0.0
H2795 H 0.90806 0.88374 0.93798 0.0
H2796 H 0.86121 0.8231 0.89186 0.0
H2797 H 0.9211 0.8911 0.87498 0.0
C2798 C 0.91412 0.88065 0.844 0.0
C2799 C 0.8999 0.86473 0.83046 0.0
C2800 C 0.87134 0.83653 0.90195 0.0
C2801 C 0.89107 0.86073 0.87227 0.0
C2802 C 0.86921 0.83277 0.92286 0.0
C2803 C 0.88242 0.84962 0.93634 0.0
C2804 C 0.88701 0.85715 0.89441 0.0
C2805 C 0.89732 0.87041 0.92819 0.0
C2806 C 0.90969 0.8788 0.86484 0.0
C2807 C 0.88099 0.84739 0.83847 0.0
N2808 N 0.89936 0.87346 0.90778 0.0
N2809 N 0.87727 0.84572 0.85883 0.0
H2810 H 0.88931 0.1038 0.68378 0.0
H2811 H 0.88781 0.19876 0.58665 0.0
H2812 H 0.90375 0.18753 0.68612 0.0
H2813 H 0.87697 0.11456 0.58271 0.0
H2814 H 0.89121 0.19499 0.62335 0.0
H2815 H 0.88226 0.10731 0.64713 0.0
C2816 C 0.89081 0.12295 0.67663 0.0
C2817 C 0.89732 0.14537 0.68809 0.0
C2818 C 0.88801 0.17731 0.61451 0.0
C2819 C 0.88944 0.14951 0.64608 0.0
C2820 C 0.88586 0.17947 0.59349 0.0
C2821 C 0.88202 0.15696 0.58145 0.0
C2822 C 0.88633 0.15243 0.62374 0.0
C2823 C 0.88021 0.13244 0.59129 0.0
C2824 C 0.88693 0.12491 0.65568 0.0
C2825 C 0.89923 0.16962 0.67792 0.0
N2826 N 0.88239 0.13083 0.61183 0.0
N2827 N 0.89535 0.17102 0.65757 0.0
H2828 H 0.59106 0.10692 0.44301 0.0
H2829 H 0.61712 0.16909 0.33333 0.0
H2830 H 0.63361 0.17939 0.43302 0.0
H2831 H 0.5796 0.09371 0.34229 0.0
H2832 H 0.62441 0.17237 0.3698 0.0
H2833 H 0.58762 0.10095 0.40631 0.0
C2834 C 0.5997 0.12158 0.43312 0.0
C2835 C 0.61255 0.14378 0.44119 0.0
C2836 C 0.61468 0.15503 0.36383 0.0
C2837 C 0.60877 0.13698 0.39906 0.0
C2838 C 0.6104 0.1532 0.34299 0.0
C2839 C 0.59751 0.13119 0.33472 0.0
C2840 C 0.6059 0.13478 0.37666 0.0
C2841 C 0.5897 0.11099 0.34798 0.0
C2842 C 0.59784 0.11808 0.41215 0.0
C2843 C 0.62373 0.16187 0.42757 0.0
N2844 N 0.59383 0.11336 0.36829 0.0
N2845 N 0.62143 0.15815 0.40723 0.0
H2846 H 0.63155 0.89452 0.08308 0.0
H2847 H 0.6041 0.82414 0.18976 0.0
H2848 H 0.61937 0.81085 0.0904 0.0
H2849 H 0.60684 0.9086 0.18253 0.0
H2850 H 0.61306 0.81906 0.15369 0.0
H2851 H 0.62568 0.90018 0.11963 0.0
C2852 C 0.62764 0.87732 0.0923 0.0
C2853 C 0.62596 0.85213 0.08348 0.0
C2854 C 0.61175 0.83873 0.15996 0.0
C2855 C 0.6195 0.85852 0.1255 0.0
C2856 C 0.60648 0.84166 0.18059 0.0
C2857 C 0.60441 0.86686 0.18926 0.0
C2858 C 0.61504 0.86113 0.14773 0.0
C2859 C 0.60839 0.88879 0.1766 0.0
C2860 C 0.62442 0.88058 0.11322 0.0
C2861 C 0.62128 0.8306 0.09639 0.0
N2862 N 0.61338 0.88542 0.15648 0.0
N2863 N 0.61817 0.83431 0.11665 0.0
H2864 H 0.6465 0.64514 0.6865 0.0
H2865 H 0.57351 0.63718 0.57907 0.0
H2866 H 0.56619 0.61899 0.67894 0.0
H2867 H 0.65529 0.65864 0.58589 0.0
H2868 H 0.57099 0.62897 0.61548 0.0
H2869 H 0.65068 0.64868 0.6497 0.0
C2870 C 0.62974 0.64008 0.67711 0.0
C2871 C 0.60589 0.63189 0.68591 0.0
C2872 C 0.58954 0.63536 0.60903 0.0
C2873 C 0.61058 0.63585 0.64362 0.0
C2874 C 0.59096 0.64019 0.58823 0.0
C2875 C 0.6146 0.64882 0.57937 0.0
C2876 C 0.61189 0.63931 0.62122 0.0
C2877 C 0.63669 0.65188 0.592 0.0
C2878 C 0.63219 0.642 0.65607 0.0
C2879 C 0.58502 0.62518 0.6729 0.0
N2880 N 0.63475 0.64732 0.61227 0.0
N2881 N 0.58779 0.6275 0.65247 0.0
H2882 H 0.63049 0.32423 0.83058 0.0
H2883 H 0.60312 0.39304 0.9376 0.0
H2884 H 0.59658 0.40175 0.83658 0.0
H2885 H 0.6414 0.31765 0.93089 0.0
H2886 H 0.60245 0.39769 0.90072 0.0
H2887 H 0.63661 0.32256 0.86724 0.0
C2888 C 0.62435 0.34094 0.83962 0.0
C2889 C 0.61277 0.36307 0.83049 0.0
C2890 C 0.61117 0.38021 0.90731 0.0
C2891 C 0.61979 0.36133 0.8726 0.0
C2892 C 0.61146 0.37748 0.92838 0.0
C2893 C 0.62218 0.35482 0.9374 0.0
C2894 C 0.62155 0.36007 0.89509 0.0
C2895 C 0.6331 0.33553 0.92466 0.0
C2896 C 0.62796 0.34002 0.86057 0.0
C2897 C 0.60567 0.38434 0.84295 0.0
N2898 N 0.63232 0.33851 0.90419 0.0
N2899 N 0.60908 0.38285 0.86338 0.0
H2900 H 0.93186 0.3442 0.08336 0.0
H2901 H 0.85952 0.36777 0.18936 0.0
H2902 H 0.84872 0.36126 0.08767 0.0
H2903 H 0.94392 0.36363 0.18189 0.0
H2904 H 0.85446 0.36515 0.15248 0.0
H2905 H 0.93592 0.35026 0.11974 0.0
C2906 C 0.91445 0.3495 0.09192 0.0
C2907 C 0.88994 0.35248 0.08232 0.0
C2908 C 0.87407 0.36492 0.15895 0.0
C2909 C 0.89441 0.35904 0.12433 0.0
C2910 C 0.877 0.36659 0.17999 0.0
C2911 C 0.9022 0.36568 0.1888 0.0
C2912 C 0.89649 0.36226 0.14665 0.0
C2913 C 0.92408 0.36384 0.17587 0.0
C2914 C 0.91678 0.35283 0.11278 0.0
C2915 C 0.86798 0.3586 0.09441 0.0
N2916 N 0.9207 0.36206 0.15553 0.0
N2917 N 0.87073 0.36168 0.1148 0.0
H2918 H 0.90634 0.59899 0.33489 0.0
H2919 H 0.86224 0.69314 0.42631 0.0
H2920 H 0.88873 0.68165 0.32804 0.0
H2921 H 0.89471 0.6154 0.43526 0.0
H2922 H 0.86637 0.68717 0.38977 0.0
H2923 H 0.89657 0.60257 0.37117 0.0
C2924 C 0.9002 0.61782 0.34098 0.0
C2925 C 0.89857 0.64011 0.32845 0.0
C2926 C 0.87247 0.67136 0.39972 0.0
C2927 C 0.8874 0.64436 0.3699 0.0
C2928 C 0.87021 0.67478 0.42063 0.0
C2929 C 0.87838 0.65486 0.43399 0.0
C2930 C 0.88291 0.64779 0.39199 0.0
C2931 C 0.88796 0.63125 0.42562 0.0
C2932 C 0.89476 0.61989 0.3617 0.0
C2933 C 0.89067 0.66406 0.33719 0.0
N2934 N 0.8901 0.62844 0.40518 0.0
N2935 N 0.88543 0.66555 0.35734 0.0
H2936 H 0.36452 0.34485 0.32727 0.0
H2937 H 0.40166 0.39328 0.43918 0.0
H2938 H 0.42285 0.40457 0.33982 0.0
H2939 H 0.35167 0.32637 0.42681 0.0
H2940 H 0.40575 0.40099 0.40278 0.0
H2941 H 0.35584 0.34111 0.36355 0.0
C2942 C 0.37531 0.3574 0.33764 0.0
C2943 C 0.3945 0.37502 0.33047 0.0
C2944 C 0.39377 0.3847 0.40802 0.0
C2945 C 0.38483 0.37062 0.37211 0.0
C2946 C 0.39124 0.38041 0.42882 0.0
C2947 C 0.37634 0.35909 0.43608 0.0
C2948 C 0.38123 0.36763 0.39432 0.0
C2949 C 0.36363 0.34283 0.42189 0.0
C2950 C 0.37046 0.35512 0.35837 0.0
C2951 C 0.40813 0.39049 0.34467 0.0
N2952 N 0.36641 0.3474 0.40171 0.0
N2953 N 0.40306 0.3879 0.3648 0.0
H2954 H 0.41252 0.68785 0.18819 0.0
H2955 H 0.38374 0.61758 0.08175 0.0
H2956 H 0.38773 0.6067 0.18361 0.0
H2957 H 0.40125 0.7003 0.0889 0.0
H2958 H 0.38542 0.61248 0.11867 0.0
H2959 H 0.40928 0.69193 0.15159 0.0
C2960 C 0.40616 0.67089 0.17951 0.0
C2961 C 0.40011 0.64696 0.18912 0.0
C2962 C 0.38888 0.63172 0.11212 0.0
C2963 C 0.39675 0.65142 0.14682 0.0
C2964 C 0.38777 0.6347 0.09104 0.0
C2965 C 0.39254 0.6594 0.08211 0.0
C2966 C 0.39479 0.65359 0.12438 0.0
C2967 C 0.39795 0.68078 0.09498 0.0
C2968 C 0.40446 0.67321 0.15852 0.0
C2969 C 0.3927 0.6255 0.17689 0.0
N2970 N 0.39897 0.67735 0.11536 0.0
N2971 N 0.39118 0.62825 0.15638 0.0
H2972 H 0.06101 0.6601 0.83932 0.0
H2973 H 0.14758 0.62448 0.93695 0.0
H2974 H 0.13546 0.61931 0.83537 0.0
H2975 H 0.08185 0.67845 0.93737 0.0
H2976 H 0.14173 0.61879 0.90037 0.0
H2977 H 0.06638 0.66303 0.87589 0.0
C2978 C 0.07858 0.65182 0.84611 0.0
C2979 C 0.09798 0.63973 0.83411 0.0
C2980 C 0.12858 0.63182 0.90852 0.0
C2981 C 0.10406 0.6427 0.87629 0.0
C2982 C 0.13197 0.63519 0.9294 0.0
C2983 C 0.11516 0.65196 0.94038 0.0
C2984 C 0.10817 0.64523 0.89851 0.0
C2985 C 0.09502 0.66496 0.92973 0.0
C2986 C 0.08157 0.65341 0.86706 0.0
C2987 C 0.11993 0.62871 0.84396 0.0
N2988 N 0.09213 0.66132 0.90947 0.0
N2989 N 0.12243 0.63055 0.86446 0.0
H2990 H 0.14007 0.35063 0.69047 0.0
H2991 H 0.0717 0.37252 0.5823 0.0
H2992 H 0.06299 0.385 0.68264 0.0
H2993 H 0.15063 0.34243 0.58953 0.0
H2994 H 0.06867 0.37817 0.61898 0.0
H2995 H 0.14481 0.34834 0.65363 0.0
C2996 C 0.12412 0.3577 0.68103 0.0
C2997 C 0.10104 0.36794 0.68976 0.0
C2998 C 0.08671 0.37043 0.61257 0.0
C2999 C 0.10641 0.36548 0.64743 0.0
C3000 C 0.08841 0.36707 0.5916 0.0
C3001 C 0.1114 0.35682 0.58276 0.0
C3002 C 0.1081 0.36337 0.62494 0.0
C3003 C 0.13258 0.35057 0.59562 0.0
C3004 C 0.12691 0.35651 0.65996 0.0
C3005 C 0.08124 0.37719 0.67667 0.0
N3006 N 0.13035 0.35378 0.61603 0.0
N3007 N 0.08432 0.3756 0.65623 0.0
loop_
_geom_bond_atom_site_label_1
_geom_bond_atom_site_label_2
_geom_bond_distance
_geom_bond_site_symmetry_2
_ccdc_geom_bond_type
Nd0 C2 2.836 . S
Nd0 O20 2.500 . S
Nd0 O21 2.492 . S
Nd0 O22 2.487 . S
Nd0 O23 2.682 . S
Nd0 O24 2.410 . S
Nd0 O29 2.414 . S
Nd0 O31 2.424 . S
Nd1 C11 2.836 . S
Nd1 O23 2.414 . S
Nd1 O25 2.424 . S
Nd1 O26 2.500 . S
Nd1 O27 2.492 . S
Nd1 O28 2.487 . S
Nd1 O29 2.682 . S
Nd1 O30 2.410 . S
C2 Nd0 2.836 . S
C2 C3 1.498 . S
C2 O20 1.258 . S
C2 O21 1.239 . S
C3 C2 1.498 . S
C3 C4 1.366 . S
C3 C8 1.407 . S
C4 C3 1.366 . S
C4 C5 1.392 . S
C4 H32 0.930 . S
C5 C4 1.392 . S
C5 C6 1.398 . S
C5 H33 0.929 . S
C6 C5 1.398 . S
C6 C7 1.352 . S
C7 C6 1.352 . S
C7 C8 1.384 . S
C7 H34 0.930 . S
C8 C3 1.407 . S
C8 C7 1.384 . S
C8 H35 0.929 . S
C9 O22 1.241 . S
C9 O23 1.273 . S
C10 O24 1.251 . S
C10 O25 1.268 . S
C11 Nd1 2.836 . S
C11 C12 1.498 . S
C11 O26 1.258 . S
C11 O27 1.239 . S
C12 C11 1.498 . S
C12 C13 1.366 . S
C12 C17 1.407 . S
C13 C12 1.366 . S
C13 C14 1.392 . S
C13 H36 0.930 . S
C14 C13 1.392 . S
C14 C15 1.398 . S
C14 H37 0.929 . S
C15 C14 1.398 . S
C15 C16 1.352 . S
C16 C15 1.352 . S
C16 C17 1.384 . S
C16 H38 0.930 1_545 S
C17 C12 1.407 . S
C17 C16 1.384 . S
C17 H39 0.929 . S
C18 O28 1.241 . S
C18 O29 1.273 . S
C19 O30 1.251 . S
C19 O31 1.268 . S
O20 Nd0 2.500 . S
O20 C2 1.258 . S
O21 Nd0 2.492 . S
O21 C2 1.239 . S
O22 Nd0 2.487 . S
O22 C9 1.241 . S
O23 Nd0 2.682 . S
O23 Nd1 2.414 . S
O23 C9 1.273 . S
O24 Nd0 2.410 . S
O24 C10 1.251 . S
O25 Nd1 2.424 . S
O25 C10 1.268 . S
O26 Nd1 2.500 . S
O26 C11 1.258 . S
O27 Nd1 2.492 . S
O27 C11 1.239 . S
O28 Nd1 2.487 . S
O28 C18 1.241 . S
O29 Nd0 2.414 . S
O29 Nd1 2.682 . S
O29 C18 1.273 . S
O30 Nd1 2.410 . S
O30 C19 1.251 . S
O31 Nd0 2.424 . S
O31 C19 1.268 . S
H32 C4 0.930 . S
H33 C5 0.929 . S
H34 C7 0.930 . S
H35 C8 0.929 . S
H36 C13 0.930 . S
H37 C14 0.929 . S
H38 C16 0.930 1_565 S
H39 C17 0.929 . S
Nd40 C42 2.836 . S
Nd40 O60 2.500 . S
Nd40 O61 2.492 . S
Nd40 O62 2.487 . S
Nd40 O63 2.682 . S
Nd40 O64 2.410 . S
Nd40 O69 2.414 . S
Nd40 O71 2.424 . S
Nd41 C51 2.836 . S
Nd41 O63 2.414 . S
Nd41 O65 2.424 . S
Nd41 O66 2.500 . S
Nd41 O67 2.492 . S
Nd41 O68 2.487 . S
Nd41 O69 2.682 . S
Nd41 O70 2.410 . S
C42 Nd40 2.836 . S
C42 C43 1.498 . S
C42 O60 1.258 . S
C42 O61 1.239 . S
C43 C42 1.498 . S
C43 C44 1.366 . S
C43 C48 1.407 . S
C44 C43 1.366 . S
C44 C45 1.392 . S
C44 H72 0.930 . S
C45 C44 1.392 . S
C45 C46 1.398 . S
C45 H73 0.929 . S
C46 C45 1.398 . S
C46 C47 1.352 . S
C47 C46 1.352 . S
C47 C48 1.384 . S
C47 H74 0.930 . S
C48 C43 1.407 . S
C48 C47 1.384 . S
C48 H75 0.929 . S
C49 O62 1.241 . S
C49 O63 1.273 . S
C50 O64 1.251 . S
C50 O65 1.268 . S
C51 Nd41 2.836 . S
C51 C52 1.498 . S
C51 O66 1.258 . S
C51 O67 1.239 . S
C52 C51 1.498 . S
C52 C53 1.366 . S
C52 C57 1.407 . S
C53 C52 1.366 . S
C53 C54 1.392 . S
C53 H76 0.930 . S
C54 C53 1.392 . S
C54 C55 1.398 . S
C54 H77 0.929 . S
C55 C54 1.398 . S
C55 C56 1.352 . S
C56 C55 1.352 . S
C56 C57 1.384 . S
C56 H78 0.930 . S
C57 C52 1.407 . S
C57 C56 1.384 . S
C57 H79 0.929 . S
C58 O68 1.241 . S
C58 O69 1.273 . S
C59 O70 1.251 . S
C59 O71 1.268 . S
O60 Nd40 2.500 . S
O60 C42 1.258 . S
O61 Nd40 2.492 . S
O61 C42 1.239 . S
O62 Nd40 2.487 . S
O62 C49 1.241 . S
O63 Nd40 2.682 . S
O63 Nd41 2.414 . S
O63 C49 1.273 . S
O64 Nd40 2.410 . S
O64 C50 1.251 . S
O65 Nd41 2.424 . S
O65 C50 1.268 . S
O66 Nd41 2.500 . S
O66 C51 1.258 . S
O67 Nd41 2.492 . S
O67 C51 1.239 . S
O68 Nd41 2.487 . S
O68 C58 1.241 . S
O69 Nd40 2.414 . S
O69 Nd41 2.682 . S
O69 C58 1.273 . S
O70 Nd41 2.410 . S
O70 C59 1.251 . S
O71 Nd40 2.424 . S
O71 C59 1.268 . S
H72 C44 0.930 . S
H73 C45 0.929 . S
H74 C47 0.930 . S
H75 C48 0.929 . S
H76 C53 0.930 . S
H77 C54 0.929 . S
H78 C56 0.930 . S
H79 C57 0.929 . S
Nd80 C82 2.836 . S
Nd80 O100 2.500 . S
Nd80 O101 2.492 . S
Nd80 O102 2.487 . S
Nd80 O103 2.682 . S
Nd80 O104 2.410 . S
Nd80 O109 2.414 . S
Nd80 O111 2.424 . S
Nd81 C91 2.836 . S
Nd81 O103 2.414 . S
Nd81 O105 2.424 . S
Nd81 O106 2.500 . S
Nd81 O107 2.492 . S
Nd81 O108 2.487 . S
Nd81 O109 2.682 . S
Nd81 O110 2.410 . S
C82 Nd80 2.836 . S
C82 C83 1.498 . S
C82 O100 1.258 . S
C82 O101 1.239 . S
C83 C82 1.498 . S
C83 C84 1.366 . S
C83 C88 1.407 . S
C84 C83 1.366 . S
C84 C85 1.392 . S
C84 H112 0.930 . S
C85 C84 1.392 . S
C85 C86 1.398 . S
C85 H113 0.929 . S
C86 C85 1.398 . S
C86 C87 1.352 . S
C87 C86 1.352 . S
C87 C88 1.384 . S
C87 H114 0.930 . S
C88 C83 1.407 . S
C88 C87 1.384 . S
C88 H115 0.929 . S
C89 O102 1.241 . S
C89 O103 1.273 . S
C90 O104 1.251 . S
C90 O105 1.268 . S
C91 Nd81 2.836 . S
C91 C92 1.498 . S
C91 O106 1.258 . S
C91 O107 1.239 . S
C92 C91 1.498 . S
C92 C93 1.366 . S
C92 C97 1.407 . S
C93 C92 1.366 . S
C93 C94 1.392 . S
C93 H116 0.930 . S
C94 C93 1.392 . S
C94 C95 1.398 . S
C94 H117 0.929 . S
C95 C94 1.398 . S
C95 C96 1.352 . S
C96 C95 1.352 . S
C96 C97 1.384 . S
C96 H118 0.930 1_565 S
C97 C92 1.407 . S
C97 C96 1.384 . S
C97 H119 0.929 . S
C98 O108 1.241 . S
C98 O109 1.273 . S
C99 O110 1.251 . S
C99 O111 1.268 . S
O100 Nd80 2.500 . S
O100 C82 1.258 . S
O101 Nd80 2.492 . S
O101 C82 1.239 . S
O102 Nd80 2.487 . S
O102 C89 1.241 . S
O103 Nd80 2.682 . S
O103 Nd81 2.414 . S
O103 C89 1.273 . S
O104 Nd80 2.410 . S
O104 C90 1.251 . S
O105 Nd81 2.424 . S
O105 C90 1.268 . S
O106 Nd81 2.500 . S
O106 C91 1.258 . S
O107 Nd81 2.492 . S
O107 C91 1.239 . S
O108 Nd81 2.487 . S
O108 C98 1.241 . S
O109 Nd80 2.414 . S
O109 Nd81 2.682 . S
O109 C98 1.273 . S
O110 Nd81 2.410 . S
O110 C99 1.251 . S
O111 Nd80 2.424 . S
O111 C99 1.268 . S
H112 C84 0.930 . S
H113 C85 0.929 . S
H114 C87 0.930 . S
H115 C88 0.929 . S
H116 C93 0.930 . S
H117 C94 0.929 . S
H118 C96 0.930 1_545 S
H119 C97 0.929 . S
Nd120 C122 2.836 . S
Nd120 O140 2.500 . S
Nd120 O141 2.492 . S
Nd120 O142 2.487 . S
Nd120 O143 2.682 . S
Nd120 O144 2.410 . S
Nd120 O149 2.414 . S
Nd120 O151 2.424 . S
Nd121 C131 2.836 . S
Nd121 O143 2.414 . S
Nd121 O145 2.424 . S
Nd121 O146 2.500 . S
Nd121 O147 2.492 . S
Nd121 O148 2.487 . S
Nd121 O149 2.682 . S
Nd121 O150 2.410 . S
C122 Nd120 2.836 . S
C122 C123 1.498 1_554 S
C122 O140 1.258 . S
C122 O141 1.239 . S
C123 C122 1.498 1_556 S
C123 C124 1.366 . S
C123 C128 1.407 . S
C124 C123 1.366 . S
C124 C125 1.392 . S
C124 H152 0.930 . S
C125 C124 1.392 . S
C125 C126 1.398 . S
C125 H153 0.929 . S
C126 C125 1.398 . S
C126 C127 1.352 . S
C127 C126 1.352 . S
C127 C128 1.384 . S
C127 H154 0.930 . S
C128 C123 1.407 . S
C128 C127 1.384 . S
C128 H155 0.929 . S
C129 O142 1.241 . S
C129 O143 1.273 . S
C130 O144 1.251 . S
C130 O145 1.268 . S
C131 Nd121 2.836 . S
C131 C132 1.498 . S
C131 O146 1.258 . S
C131 O147 1.239 . S
C132 C131 1.498 . S
C132 C133 1.366 . S
C132 C137 1.407 . S
C133 C132 1.366 . S
C133 C134 1.392 . S
C133 H156 0.930 . S
C134 C133 1.392 . S
C134 C135 1.398 . S
C134 H157 0.929 . S
C135 C134 1.398 . S
C135 C136 1.352 . S
C136 C135 1.352 . S
C136 C137 1.384 . S
C136 H158 0.930 . S
C137 C132 1.407 . S
C137 C136 1.384 . S
C137 H159 0.929 . S
C138 O148 1.241 . S
C138 O149 1.273 . S
C139 O150 1.251 . S
C139 O151 1.268 . S
O140 Nd120 2.500 . S
O140 C122 1.258 . S
O141 Nd120 2.492 . S
O141 C122 1.239 . S
O142 Nd120 2.487 . S
O142 C129 1.241 . S
O143 Nd120 2.682 . S
O143 Nd121 2.414 . S
O143 C129 1.273 . S
O144 Nd120 2.410 . S
O144 C130 1.251 . S
O145 Nd121 2.424 . S
O145 C130 1.268 . S
O146 Nd121 2.500 . S
O146 C131 1.258 . S
O147 Nd121 2.492 . S
O147 C131 1.239 . S
O148 Nd121 2.487 . S
O148 C138 1.241 . S
O149 Nd120 2.414 . S
O149 Nd121 2.682 . S
O149 C138 1.273 . S
O150 Nd121 2.410 . S
O150 C139 1.251 . S
O151 Nd120 2.424 . S
O151 C139 1.268 . S
H152 C124 0.930 . S
H153 C125 0.929 . S
H154 C127 0.930 . S
H155 C128 0.929 . S
H156 C133 0.930 . S
H157 C134 0.929 . S
H158 C136 0.930 . S
H159 C137 0.929 . S
Nd160 C162 2.836 . S
Nd160 O180 2.500 . S
Nd160 O181 2.492 . S
Nd160 O182 2.487 . S
Nd160 O183 2.682 . S
Nd160 O184 2.410 . S
Nd160 O189 2.414 . S
Nd160 O191 2.424 . S
Nd161 C171 2.836 . S
Nd161 O183 2.414 . S
Nd161 O185 2.424 . S
Nd161 O186 2.500 . S
Nd161 O187 2.492 . S
Nd161 O188 2.487 . S
Nd161 O189 2.682 . S
Nd161 O190 2.410 . S
C162 Nd160 2.836 . S
C162 C163 1.498 . S
C162 O180 1.258 . S
C162 O181 1.239 . S
C163 C162 1.498 . S
C163 C164 1.366 . S
C163 C168 1.407 . S
C164 C163 1.366 . S
C164 C165 1.392 . S
C164 H192 0.930 . S
C165 C164 1.392 . S
C165 C166 1.398 . S
C165 H193 0.929 . S
C166 C165 1.398 . S
C166 C167 1.352 . S
C167 C166 1.352 . S
C167 C168 1.384 . S
C167 H194 0.930 . S
C168 C163 1.407 . S
C168 C167 1.384 . S
C168 H195 0.929 . S
C169 O182 1.241 . S
C169 O183 1.273 . S
C170 O184 1.251 . S
C170 O185 1.268 . S
C171 Nd161 2.836 . S
C171 C172 1.498 . S
C171 O186 1.258 . S
C171 O187 1.239 . S
C172 C171 1.498 . S
C172 C173 1.366 . S
C172 C177 1.407 . S
C173 C172 1.366 . S
C173 C174 1.392 . S
C173 H196 0.930 . S
C174 C173 1.392 . S
C174 C175 1.398 . S
C174 H197 0.929 . S
C175 C174 1.398 . S
C175 C176 1.352 . S
C176 C175 1.352 . S
C176 C177 1.384 . S
C176 H198 0.930 1_565 S
C177 C172 1.407 . S
C177 C176 1.384 . S
C177 H199 0.929 . S
C178 O188 1.241 . S
C178 O189 1.273 . S
C179 O190 1.251 . S
C179 O191 1.268 . S
O180 Nd160 2.500 . S
O180 C162 1.258 . S
O181 Nd160 2.492 . S
O181 C162 1.239 . S
O182 Nd160 2.487 . S
O182 C169 1.241 . S
O183 Nd160 2.682 . S
O183 Nd161 2.414 . S
O183 C169 1.273 . S
O184 Nd160 2.410 . S
O184 C170 1.251 . S
O185 Nd161 2.424 . S
O185 C170 1.268 . S
O186 Nd161 2.500 . S
O186 C171 1.258 . S
O187 Nd161 2.492 . S
O187 C171 1.239 . S
O188 Nd161 2.487 . S
O188 C178 1.241 . S
O189 Nd160 2.414 . S
O189 Nd161 2.682 . S
O189 C178 1.273 . S
O190 Nd161 2.410 . S
O190 C179 1.251 . S
O191 Nd160 2.424 . S
O191 C179 1.268 . S
H192 C164 0.930 . S
H193 C165 0.929 . S
H194 C167 0.930 . S
H195 C168 0.929 . S
H196 C173 0.930 . S
H197 C174 0.929 . S
H198 C176 0.930 1_545 S
H199 C177 0.929 . S
Nd200 C202 2.836 . S
Nd200 O220 2.500 . S
Nd200 O221 2.492 . S
Nd200 O222 2.487 . S
Nd200 O223 2.682 . S
Nd200 O224 2.410 . S
Nd200 O229 2.414 . S
Nd200 O231 2.424 . S
Nd201 C211 2.836 . S
Nd201 O223 2.414 . S
Nd201 O225 2.424 . S
Nd201 O226 2.500 . S
Nd201 O227 2.492 . S
Nd201 O228 2.487 . S
Nd201 O229 2.682 . S
Nd201 O230 2.410 . S
C202 Nd200 2.836 . S
C202 C203 1.498 . S
C202 O220 1.258 . S
C202 O221 1.239 . S
C203 C202 1.498 . S
C203 C204 1.366 . S
C203 C208 1.407 . S
C204 C203 1.366 . S
C204 C205 1.392 . S
C204 H232 0.930 . S
C205 C204 1.392 . S
C205 C206 1.398 . S
C205 H233 0.929 . S
C206 C205 1.398 . S
C206 C207 1.352 . S
C207 C206 1.352 . S
C207 C208 1.384 . S
C207 H234 0.930 . S
C208 C203 1.407 . S
C208 C207 1.384 . S
C208 H235 0.929 . S
C209 O222 1.241 . S
C209 O223 1.273 . S
C210 O224 1.251 . S
C210 O225 1.268 . S
C211 Nd201 2.836 . S
C211 C212 1.498 . S
C211 O226 1.258 . S
C211 O227 1.239 . S
C212 C211 1.498 . S
C212 C213 1.366 . S
C212 C217 1.407 . S
C213 C212 1.366 . S
C213 C214 1.392 . S
C213 H236 0.930 . S
C214 C213 1.392 . S
C214 C215 1.398 . S
C214 H237 0.929 . S
C215 C214 1.398 . S
C215 C216 1.352 . S
C216 C215 1.352 . S
C216 C217 1.384 . S
C216 H238 0.930 . S
C217 C212 1.407 . S
C217 C216 1.384 . S
C217 H239 0.929 . S
C218 O228 1.241 . S
C218 O229 1.273 . S
C219 O230 1.251 . S
C219 O231 1.268 . S
O220 Nd200 2.500 . S
O220 C202 1.258 . S
O221 Nd200 2.492 . S
O221 C202 1.239 . S
O222 Nd200 2.487 . S
O222 C209 1.241 . S
O223 Nd200 2.682 . S
O223 Nd201 2.414 . S
O223 C209 1.273 . S
O224 Nd200 2.410 . S
O224 C210 1.251 . S
O225 Nd201 2.424 . S
O225 C210 1.268 . S
O226 Nd201 2.500 . S
O226 C211 1.258 . S
O227 Nd201 2.492 . S
O227 C211 1.239 . S
O228 Nd201 2.487 . S
O228 C218 1.241 . S
O229 Nd200 2.414 . S
O229 Nd201 2.682 . S
O229 C218 1.273 . S
O230 Nd201 2.410 . S
O230 C219 1.251 . S
O231 Nd200 2.424 . S
O231 C219 1.268 . S
H232 C204 0.930 . S
H233 C205 0.929 . S
H234 C207 0.930 . S
H235 C208 0.929 . S
H236 C213 0.930 . S
H237 C214 0.929 . S
H238 C216 0.930 . S
H239 C217 0.929 . S
Nd240 C242 2.836 . S
Nd240 O260 2.500 . S
Nd240 O261 2.492 . S
Nd240 O262 2.487 . S
Nd240 O263 2.682 . S
Nd240 O264 2.410 . S
Nd240 O269 2.414 . S
Nd240 O271 2.424 . S
Nd241 C251 2.836 . S
Nd241 O263 2.414 . S
Nd241 O265 2.424 . S
Nd241 O266 2.500 . S
Nd241 O267 2.492 . S
Nd241 O268 2.487 . S
Nd241 O269 2.682 . S
Nd241 O270 2.410 . S
C242 Nd240 2.836 . S
C242 C243 1.498 . S
C242 O260 1.258 . S
C242 O261 1.239 . S
C243 C242 1.498 . S
C243 C244 1.366 . S
C243 C248 1.407 . S
C244 C243 1.366 . S
C244 C245 1.392 . S
C244 H272 0.930 . S
C245 C244 1.392 . S
C245 C246 1.398 . S
C245 H273 0.929 . S
C246 C245 1.398 . S
C246 C247 1.352 . S
C247 C246 1.352 . S
C247 C248 1.384 . S
C247 H274 0.930 . S
C248 C243 1.407 . S
C248 C247 1.384 . S
C248 H275 0.929 . S
C249 O262 1.241 . S
C249 O263 1.273 . S
C250 O264 1.251 . S
C250 O265 1.268 . S
C251 Nd241 2.836 . S
C251 C252 1.498 . S
C251 O266 1.258 . S
C251 O267 1.239 . S
C252 C251 1.498 . S
C252 C253 1.366 . S
C252 C257 1.407 . S
C253 C252 1.366 . S
C253 C254 1.392 . S
C253 H276 0.930 . S
C254 C253 1.392 . S
C254 C255 1.398 . S
C254 H277 0.929 . S
C255 C254 1.398 . S
C255 C256 1.352 . S
C256 C255 1.352 . S
C256 C257 1.384 . S
C256 H278 0.930 1_545 S
C257 C252 1.407 . S
C257 C256 1.384 . S
C257 H279 0.929 . S
C258 O268 1.241 . S
C258 O269 1.273 . S
C259 O270 1.251 . S
C259 O271 1.268 . S
O260 Nd240 2.500 . S
O260 C242 1.258 . S
O261 Nd240 2.492 . S
O261 C242 1.239 . S
O262 Nd240 2.487 . S
O262 C249 1.241 . S
O263 Nd240 2.682 . S
O263 Nd241 2.414 . S
O263 C249 1.273 . S
O264 Nd240 2.410 . S
O264 C250 1.251 . S
O265 Nd241 2.424 . S
O265 C250 1.268 . S
O266 Nd241 2.500 . S
O266 C251 1.258 . S
O267 Nd241 2.492 . S
O267 C251 1.239 . S
O268 Nd241 2.487 . S
O268 C258 1.241 . S
O269 Nd240 2.414 . S
O269 Nd241 2.682 . S
O269 C258 1.273 . S
O270 Nd241 2.410 . S
O270 C259 1.251 . S
O271 Nd240 2.424 . S
O271 C259 1.268 . S
H272 C244 0.930 . S
H273 C245 0.929 . S
H274 C247 0.930 . S
H275 C248 0.929 . S
H276 C253 0.930 . S
H277 C254 0.929 . S
H278 C256 0.930 1_565 S
H279 C257 0.929 . S
Nd280 C282 2.836 . S
Nd280 O300 2.500 . S
Nd280 O301 2.492 . S
Nd280 O302 2.487 . S
Nd280 O303 2.682 . S
Nd280 O304 2.410 . S
Nd280 O309 2.414 . S
Nd280 O311 2.424 . S
Nd281 C291 2.836 . S
Nd281 O303 2.414 . S
Nd281 O305 2.424 . S
Nd281 O306 2.500 . S
Nd281 O307 2.492 . S
Nd281 O308 2.487 . S
Nd281 O309 2.682 . S
Nd281 O310 2.410 . S
C282 Nd280 2.836 . S
C282 C283 1.498 1_556 S
C282 O300 1.258 . S
C282 O301 1.239 . S
C283 C282 1.498 1_554 S
C283 C284 1.366 . S
C283 C288 1.407 . S
C284 C283 1.366 . S
C284 C285 1.392 . S
C284 H312 0.930 . S
C285 C284 1.392 . S
C285 C286 1.398 . S
C285 H313 0.929 . S
C286 C285 1.398 . S
C286 C287 1.352 . S
C287 C286 1.352 . S
C287 C288 1.384 . S
C287 H314 0.930 . S
C288 C283 1.407 . S
C288 C287 1.384 . S
C288 H315 0.929 . S
C289 O302 1.241 . S
C289 O303 1.273 . S
C290 O304 1.251 . S
C290 O305 1.268 . S
C291 Nd281 2.836 . S
C291 C292 1.498 . S
C291 O306 1.258 . S
C291 O307 1.239 . S
C292 C291 1.498 . S
C292 C293 1.366 . S
C292 C297 1.407 . S
C293 C292 1.366 . S
C293 C294 1.392 . S
C293 H316 0.930 . S
C294 C293 1.392 . S
C294 C295 1.398 . S
C294 H317 0.929 . S
C295 C294 1.398 . S
C295 C296 1.352 . S
C296 C295 1.352 . S
C296 C297 1.384 . S
C296 H318 0.930 . S
C297 C292 1.407 . S
C297 C296 1.384 . S
C297 H319 0.929 . S
C298 O308 1.241 . S
C298 O309 1.273 . S
C299 O310 1.251 . S
C299 O311 1.268 . S
O300 Nd280 2.500 . S
O300 C282 1.258 . S
O301 Nd280 2.492 . S
O301 C282 1.239 . S
O302 Nd280 2.487 . S
O302 C289 1.241 . S
O303 Nd280 2.682 . S
O303 Nd281 2.414 . S
O303 C289 1.273 . S
O304 Nd280 2.410 . S
O304 C290 1.251 . S
O305 Nd281 2.424 . S
O305 C290 1.268 . S
O306 Nd281 2.500 . S
O306 C291 1.258 . S
O307 Nd281 2.492 . S
O307 C291 1.239 . S
O308 Nd281 2.487 . S
O308 C298 1.241 . S
O309 Nd280 2.414 . S
O309 Nd281 2.682 . S
O309 C298 1.273 . S
O310 Nd281 2.410 . S
O310 C299 1.251 . S
O311 Nd280 2.424 . S
O311 C299 1.268 . S
H312 C284 0.930 . S
H313 C285 0.929 . S
H314 C287 0.930 . S
H315 C288 0.929 . S
H316 C293 0.930 . S
H317 C294 0.929 . S
H318 C296 0.930 . S
H319 C297 0.929 . S
Nd320 C322 2.836 . S
Nd320 O340 2.500 . S
Nd320 O341 2.492 . S
Nd320 O342 2.487 . S
Nd320 O343 2.682 . S
Nd320 O344 2.410 . S
Nd320 O349 2.414 . S
Nd320 O351 2.424 . S
Nd321 C331 2.836 . S
Nd321 O343 2.414 . S
Nd321 O345 2.424 . S
Nd321 O346 2.500 . S
Nd321 O347 2.492 . S
Nd321 O348 2.487 . S
Nd321 O349 2.682 . S
Nd321 O350 2.410 . S
C322 Nd320 2.836 . S
C322 C323 1.498 . S
C322 O340 1.258 . S
C322 O341 1.239 . S
C323 C322 1.498 . S
C323 C324 1.366 . S
C323 C328 1.407 . S
C324 C323 1.366 . S
C324 C325 1.392 . S
C324 H352 0.930 . S
C325 C324 1.392 . S
C325 C326 1.398 . S
C325 H353 0.929 . S
C326 C325 1.398 . S
C326 C327 1.352 . S
C327 C326 1.352 . S
C327 C328 1.384 . S
C327 H354 0.930 1_565 S
C328 C323 1.407 . S
C328 C327 1.384 . S
C328 H355 0.929 . S
C329 O342 1.241 . S
C329 O343 1.273 . S
C330 O344 1.251 . S
C330 O345 1.268 . S
C331 Nd321 2.836 . S
C331 C332 1.498 . S
C331 O346 1.258 . S
C331 O347 1.239 . S
C332 C331 1.498 . S
C332 C333 1.366 . S
C332 C337 1.407 . S
C333 C332 1.366 . S
C333 C334 1.392 . S
C333 H356 0.930 . S
C334 C333 1.392 . S
C334 C335 1.398 . S
C334 H357 0.929 . S
C335 C334 1.398 . S
C335 C336 1.352 . S
C336 C335 1.352 . S
C336 C337 1.384 . S
C336 H358 0.930 . S
C337 C332 1.407 . S
C337 C336 1.384 . S
C337 H359 0.929 . S
C338 O348 1.241 . S
C338 O349 1.273 . S
C339 O350 1.251 . S
C339 O351 1.268 . S
O340 Nd320 2.500 . S
O340 C322 1.258 . S
O341 Nd320 2.492 . S
O341 C322 1.239 . S
O342 Nd320 2.487 . S
O342 C329 1.241 . S
O343 Nd320 2.682 . S
O343 Nd321 2.414 . S
O343 C329 1.273 . S
O344 Nd320 2.410 . S
O344 C330 1.251 . S
O345 Nd321 2.424 . S
O345 C330 1.268 . S
O346 Nd321 2.500 . S
O346 C331 1.258 . S
O347 Nd321 2.492 . S
O347 C331 1.239 . S
O348 Nd321 2.487 . S
O348 C338 1.241 . S
O349 Nd320 2.414 . S
O349 Nd321 2.682 . S
O349 C338 1.273 . S
O350 Nd321 2.410 . S
O350 C339 1.251 . S
O351 Nd320 2.424 . S
O351 C339 1.268 . S
H352 C324 0.930 . S
H353 C325 0.929 . S
H354 C327 0.930 1_545 S
H355 C328 0.929 . S
H356 C333 0.930 . S
H357 C334 0.929 . S
H358 C336 0.930 . S
H359 C337 0.929 . S
Nd360 C362 2.836 . S
Nd360 O380 2.500 . S
Nd360 O381 2.492 . S
Nd360 O382 2.487 . S
Nd360 O383 2.682 . S
Nd360 O384 2.410 . S
Nd360 O389 2.414 . S
Nd360 O391 2.424 . S
Nd361 C371 2.836 . S
Nd361 O383 2.414 . S
Nd361 O385 2.424 . S
Nd361 O386 2.500 . S
Nd361 O387 2.492 . S
Nd361 O388 2.487 . S
Nd361 O389 2.682 . S
Nd361 O390 2.410 . S
C362 Nd360 2.836 . S
C362 C363 1.498 . S
C362 O380 1.258 . S
C362 O381 1.239 . S
C363 C362 1.498 . S
C363 C364 1.366 . S
C363 C368 1.407 . S
C364 C363 1.366 . S
C364 C365 1.392 . S
C364 H392 0.930 . S
C365 C364 1.392 . S
C365 C366 1.398 . S
C365 H393 0.929 . S
C366 C365 1.398 . S
C366 C367 1.352 . S
C367 C366 1.352 . S
C367 C368 1.384 . S
C367 H394 0.930 . S
C368 C363 1.407 . S
C368 C367 1.384 . S
C368 H395 0.929 . S
C369 O382 1.241 . S
C369 O383 1.273 . S
C370 O384 1.251 . S
C370 O385 1.268 . S
C371 Nd361 2.836 . S
C371 C372 1.498 . S
C371 O386 1.258 . S
C371 O387 1.239 . S
C372 C371 1.498 . S
C372 C373 1.366 . S
C372 C377 1.407 . S
C373 C372 1.366 . S
C373 C374 1.392 . S
C373 H396 0.930 . S
C374 C373 1.392 . S
C374 C375 1.398 . S
C374 H397 0.929 . S
C375 C374 1.398 . S
C375 C376 1.352 . S
C376 C375 1.352 . S
C376 C377 1.384 . S
C376 H398 0.930 . S
C377 C372 1.407 . S
C377 C376 1.384 . S
C377 H399 0.929 . S
C378 O388 1.241 . S
C378 O389 1.273 . S
C379 O390 1.251 . S
C379 O391 1.268 . S
O380 Nd360 2.500 . S
O380 C362 1.258 . S
O381 Nd360 2.492 . S
O381 C362 1.239 . S
O382 Nd360 2.487 . S
O382 C369 1.241 . S
O383 Nd360 2.682 . S
O383 Nd361 2.414 . S
O383 C369 1.273 . S
O384 Nd360 2.410 . S
O384 C370 1.251 . S
O385 Nd361 2.424 . S
O385 C370 1.268 . S
O386 Nd361 2.500 . S
O386 C371 1.258 . S
O387 Nd361 2.492 . S
O387 C371 1.239 . S
O388 Nd361 2.487 . S
O388 C378 1.241 . S
O389 Nd360 2.414 . S
O389 Nd361 2.682 . S
O389 C378 1.273 . S
O390 Nd361 2.410 . S
O390 C379 1.251 . S
O391 Nd360 2.424 . S
O391 C379 1.268 . S
H392 C364 0.930 . S
H393 C365 0.929 . S
H394 C367 0.930 . S
H395 C368 0.929 . S
H396 C373 0.930 . S
H397 C374 0.929 . S
H398 C376 0.930 . S
H399 C377 0.929 . S
Nd400 C402 2.836 . S
Nd400 O420 2.500 . S
Nd400 O421 2.492 . S
Nd400 O422 2.487 . S
Nd400 O423 2.682 . S
Nd400 O424 2.410 . S
Nd400 O429 2.414 . S
Nd400 O431 2.424 . S
Nd401 C411 2.836 . S
Nd401 O423 2.414 . S
Nd401 O425 2.424 . S
Nd401 O426 2.500 . S
Nd401 O427 2.492 . S
Nd401 O428 2.487 . S
Nd401 O429 2.682 . S
Nd401 O430 2.410 . S
C402 Nd400 2.836 . S
C402 C403 1.498 . S
C402 O420 1.258 . S
C402 O421 1.239 . S
C403 C402 1.498 . S
C403 C404 1.366 . S
C403 C408 1.407 . S
C404 C403 1.366 . S
C404 C405 1.392 . S
C404 H432 0.930 . S
C405 C404 1.392 . S
C405 C406 1.398 . S
C405 H433 0.929 . S
C406 C405 1.398 . S
C406 C407 1.352 . S
C407 C406 1.352 . S
C407 C408 1.384 . S
C407 H434 0.930 1_545 S
C408 C403 1.407 . S
C408 C407 1.384 . S
C408 H435 0.929 . S
C409 O422 1.241 . S
C409 O423 1.273 . S
C410 O424 1.251 . S
C410 O425 1.268 . S
C411 Nd401 2.836 . S
C411 C412 1.498 . S
C411 O426 1.258 . S
C411 O427 1.239 . S
C412 C411 1.498 . S
C412 C413 1.366 . S
C412 C417 1.407 . S
C413 C412 1.366 . S
C413 C414 1.392 . S
C413 H436 0.930 . S
C414 C413 1.392 . S
C414 C415 1.398 . S
C414 H437 0.929 . S
C415 C414 1.398 . S
C415 C416 1.352 . S
C416 C415 1.352 . S
C416 C417 1.384 . S
C416 H438 0.930 . S
C417 C412 1.407 . S
C417 C416 1.384 . S
C417 H439 0.929 . S
C418 O428 1.241 . S
C418 O429 1.273 . S
C419 O430 1.251 . S
C419 O431 1.268 . S
O420 Nd400 2.500 . S
O420 C402 1.258 . S
O421 Nd400 2.492 . S
O421 C402 1.239 . S
O422 Nd400 2.487 . S
O422 C409 1.241 . S
O423 Nd400 2.682 . S
O423 Nd401 2.414 . S
O423 C409 1.273 . S
O424 Nd400 2.410 . S
O424 C410 1.251 . S
O425 Nd401 2.424 . S
O425 C410 1.268 . S
O426 Nd401 2.500 . S
O426 C411 1.258 . S
O427 Nd401 2.492 . S
O427 C411 1.239 . S
O428 Nd401 2.487 . S
O428 C418 1.241 . S
O429 Nd400 2.414 . S
O429 Nd401 2.682 . S
O429 C418 1.273 . S
O430 Nd401 2.410 . S
O430 C419 1.251 . S
O431 Nd400 2.424 . S
O431 C419 1.268 . S
H432 C404 0.930 . S
H433 C405 0.929 . S
H434 C407 0.930 1_565 S
H435 C408 0.929 . S
H436 C413 0.930 . S
H437 C414 0.929 . S
H438 C416 0.930 . S
H439 C417 0.929 . S
Nd440 C442 2.836 . S
Nd440 O460 2.500 . S
Nd440 O461 2.492 . S
Nd440 O462 2.487 . S
Nd440 O463 2.682 . S
Nd440 O464 2.410 . S
Nd440 O469 2.414 . S
Nd440 O471 2.424 . S
Nd441 C451 2.836 . S
Nd441 O463 2.414 . S
Nd441 O465 2.424 . S
Nd441 O466 2.500 . S
Nd441 O467 2.492 . S
Nd441 O468 2.487 . S
Nd441 O469 2.682 . S
Nd441 O470 2.410 . S
C442 Nd440 2.836 . S
C442 C443 1.498 . S
C442 O460 1.258 . S
C442 O461 1.239 . S
C443 C442 1.498 . S
C443 C444 1.366 . S
C443 C448 1.407 . S
C444 C443 1.366 . S
C444 C445 1.392 . S
C444 H472 0.930 . S
C445 C444 1.392 . S
C445 C446 1.398 . S
C445 H473 0.929 . S
C446 C445 1.398 . S
C446 C447 1.352 . S
C447 C446 1.352 . S
C447 C448 1.384 . S
C447 H474 0.930 . S
C448 C443 1.407 . S
C448 C447 1.384 . S
C448 H475 0.929 . S
C449 O462 1.241 . S
C449 O463 1.273 . S
C450 O464 1.251 . S
C450 O465 1.268 . S
C451 Nd441 2.836 . S
C451 C452 1.498 1_556 S
C451 O466 1.258 . S
C451 O467 1.239 . S
C452 C451 1.498 1_554 S
C452 C453 1.366 . S
C452 C457 1.407 . S
C453 C452 1.366 . S
C453 C454 1.392 . S
C453 H476 0.930 . S
C454 C453 1.392 . S
C454 C455 1.398 . S
C454 H477 0.929 . S
C455 C454 1.398 . S
C455 C456 1.352 . S
C456 C455 1.352 . S
C456 C457 1.384 . S
C456 H478 0.930 . S
C457 C452 1.407 . S
C457 C456 1.384 . S
C457 H479 0.929 . S
C458 O468 1.241 . S
C458 O469 1.273 . S
C459 O470 1.251 . S
C459 O471 1.268 . S
O460 Nd440 2.500 . S
O460 C442 1.258 . S
O461 Nd440 2.492 . S
O461 C442 1.239 . S
O462 Nd440 2.487 . S
O462 C449 1.241 . S
O463 Nd440 2.682 . S
O463 Nd441 2.414 . S
O463 C449 1.273 . S
O464 Nd440 2.410 . S
O464 C450 1.251 . S
O465 Nd441 2.424 . S
O465 C450 1.268 . S
O466 Nd441 2.500 . S
O466 C451 1.258 . S
O467 Nd441 2.492 . S
O467 C451 1.239 . S
O468 Nd441 2.487 . S
O468 C458 1.241 . S
O469 Nd440 2.414 . S
O469 Nd441 2.682 . S
O469 C458 1.273 . S
O470 Nd441 2.410 . S
O470 C459 1.251 . S
O471 Nd440 2.424 . S
O471 C459 1.268 . S
H472 C444 0.930 . S
H473 C445 0.929 . S
H474 C447 0.930 . S
H475 C448 0.929 . S
H476 C453 0.930 . S
H477 C454 0.929 . S
H478 C456 0.930 . S
H479 C457 0.929 . S
Nd480 C482 2.836 . S
Nd480 O500 2.500 . S
Nd480 O501 2.492 . S
Nd480 O502 2.487 . S
Nd480 O503 2.682 . S
Nd480 O504 2.410 . S
Nd480 O509 2.414 . S
Nd480 O511 2.424 . S
Nd481 C491 2.836 . S
Nd481 O503 2.414 . S
Nd481 O505 2.424 . S
Nd481 O506 2.500 . S
Nd481 O507 2.492 . S
Nd481 O508 2.487 . S
Nd481 O509 2.682 . S
Nd481 O510 2.410 . S
C482 Nd480 2.836 . S
C482 C483 1.498 . S
C482 O500 1.258 . S
C482 O501 1.239 . S
C483 C482 1.498 . S
C483 C484 1.366 . S
C483 C488 1.407 . S
C484 C483 1.366 . S
C484 C485 1.392 . S
C484 H512 0.930 . S
C485 C484 1.392 . S
C485 C486 1.398 . S
C485 H513 0.929 . S
C486 C485 1.398 . S
C486 C487 1.352 . S
C487 C486 1.352 . S
C487 C488 1.384 . S
C487 H514 0.930 1_545 S
C488 C483 1.407 . S
C488 C487 1.384 . S
C488 H515 0.929 . S
C489 O502 1.241 . S
C489 O503 1.273 . S
C490 O504 1.251 . S
C490 O505 1.268 . S
C491 Nd481 2.836 . S
C491 C492 1.498 . S
C491 O506 1.258 . S
C491 O507 1.239 . S
C492 C491 1.498 . S
C492 C493 1.366 . S
C492 C497 1.407 . S
C493 C492 1.366 . S
C493 C494 1.392 . S
C493 H516 0.930 . S
C494 C493 1.392 . S
C494 C495 1.398 . S
C494 H517 0.929 . S
C495 C494 1.398 . S
C495 C496 1.352 . S
C496 C495 1.352 . S
C496 C497 1.384 . S
C496 H518 0.930 . S
C497 C492 1.407 . S
C497 C496 1.384 . S
C497 H519 0.929 . S
C498 O508 1.241 . S
C498 O509 1.273 . S
C499 O510 1.251 . S
C499 O511 1.268 . S
O500 Nd480 2.500 . S
O500 C482 1.258 . S
O501 Nd480 2.492 . S
O501 C482 1.239 . S
O502 Nd480 2.487 . S
O502 C489 1.241 . S
O503 Nd480 2.682 . S
O503 Nd481 2.414 . S
O503 C489 1.273 . S
O504 Nd480 2.410 . S
O504 C490 1.251 . S
O505 Nd481 2.424 . S
O505 C490 1.268 . S
O506 Nd481 2.500 . S
O506 C491 1.258 . S
O507 Nd481 2.492 . S
O507 C491 1.239 . S
O508 Nd481 2.487 . S
O508 C498 1.241 . S
O509 Nd480 2.414 . S
O509 Nd481 2.682 . S
O509 C498 1.273 . S
O510 Nd481 2.410 . S
O510 C499 1.251 . S
O511 Nd480 2.424 . S
O511 C499 1.268 . S
H512 C484 0.930 . S
H513 C485 0.929 . S
H514 C487 0.930 1_565 S
H515 C488 0.929 . S
H516 C493 0.930 . S
H517 C494 0.929 . S
H518 C496 0.930 . S
H519 C497 0.929 . S
Nd520 C522 2.836 . S
Nd520 O540 2.500 . S
Nd520 O541 2.492 . S
Nd520 O542 2.487 . S
Nd520 O543 2.682 . S
Nd520 O544 2.410 . S
Nd520 O549 2.414 . S
Nd520 O551 2.424 . S
Nd521 C531 2.836 . S
Nd521 O543 2.414 . S
Nd521 O545 2.424 . S
Nd521 O546 2.500 . S
Nd521 O547 2.492 . S
Nd521 O548 2.487 . S
Nd521 O549 2.682 . S
Nd521 O550 2.410 . S
C522 Nd520 2.836 . S
C522 C523 1.498 . S
C522 O540 1.258 . S
C522 O541 1.239 . S
C523 C522 1.498 . S
C523 C524 1.366 . S
C523 C528 1.407 . S
C524 C523 1.366 . S
C524 C525 1.392 . S
C524 H552 0.930 . S
C525 C524 1.392 . S
C525 C526 1.398 . S
C525 H553 0.929 . S
C526 C525 1.398 . S
C526 C527 1.352 . S
C527 C526 1.352 . S
C527 C528 1.384 . S
C527 H554 0.930 . S
C528 C523 1.407 . S
C528 C527 1.384 . S
C528 H555 0.929 . S
C529 O542 1.241 . S
C529 O543 1.273 . S
C530 O544 1.251 . S
C530 O545 1.268 . S
C531 Nd521 2.836 . S
C531 C532 1.498 . S
C531 O546 1.258 . S
C531 O547 1.239 . S
C532 C531 1.498 . S
C532 C533 1.366 . S
C532 C537 1.407 . S
C533 C532 1.366 . S
C533 C534 1.392 . S
C533 H556 0.930 . S
C534 C533 1.392 . S
C534 C535 1.398 . S
C534 H557 0.929 . S
C535 C534 1.398 . S
C535 C536 1.352 . S
C536 C535 1.352 . S
C536 C537 1.384 . S
C536 H558 0.930 . S
C537 C532 1.407 . S
C537 C536 1.384 . S
C537 H559 0.929 . S
C538 O548 1.241 . S
C538 O549 1.273 . S
C539 O550 1.251 . S
C539 O551 1.268 . S
O540 Nd520 2.500 . S
O540 C522 1.258 . S
O541 Nd520 2.492 . S
O541 C522 1.239 . S
O542 Nd520 2.487 . S
O542 C529 1.241 . S
O543 Nd520 2.682 . S
O543 Nd521 2.414 . S
O543 C529 1.273 . S
O544 Nd520 2.410 . S
O544 C530 1.251 . S
O545 Nd521 2.424 . S
O545 C530 1.268 . S
O546 Nd521 2.500 . S
O546 C531 1.258 . S
O547 Nd521 2.492 . S
O547 C531 1.239 . S
O548 Nd521 2.487 . S
O548 C538 1.241 . S
O549 Nd520 2.414 . S
O549 Nd521 2.682 . S
O549 C538 1.273 . S
O550 Nd521 2.410 . S
O550 C539 1.251 . S
O551 Nd520 2.424 . S
O551 C539 1.268 . S
H552 C524 0.930 . S
H553 C525 0.929 . S
H554 C527 0.930 . S
H555 C528 0.929 . S
H556 C533 0.930 . S
H557 C534 0.929 . S
H558 C536 0.930 . S
H559 C537 0.929 . S
Nd560 C562 2.836 . S
Nd560 O580 2.500 . S
Nd560 O581 2.492 . S
Nd560 O582 2.487 . S
Nd560 O583 2.682 . S
Nd560 O584 2.410 . S
Nd560 O589 2.414 . S
Nd560 O591 2.424 . S
Nd561 C571 2.836 . S
Nd561 O583 2.414 . S
Nd561 O585 2.424 . S
Nd561 O586 2.500 . S
Nd561 O587 2.492 . S
Nd561 O588 2.487 . S
Nd561 O589 2.682 . S
Nd561 O590 2.410 . S
C562 Nd560 2.836 . S
C562 C563 1.498 . S
C562 O580 1.258 . S
C562 O581 1.239 . S
C563 C562 1.498 . S
C563 C564 1.366 . S
C563 C568 1.407 . S
C564 C563 1.366 . S
C564 C565 1.392 . S
C564 H592 0.930 . S
C565 C564 1.392 . S
C565 C566 1.398 . S
C565 H593 0.929 . S
C566 C565 1.398 . S
C566 C567 1.352 . S
C567 C566 1.352 . S
C567 C568 1.384 . S
C567 H594 0.930 1_565 S
C568 C563 1.407 . S
C568 C567 1.384 . S
C568 H595 0.929 . S
C569 O582 1.241 . S
C569 O583 1.273 . S
C570 O584 1.251 . S
C570 O585 1.268 . S
C571 Nd561 2.836 . S
C571 C572 1.498 . S
C571 O586 1.258 . S
C571 O587 1.239 . S
C572 C571 1.498 . S
C572 C573 1.366 . S
C572 C577 1.407 . S
C573 C572 1.366 . S
C573 C574 1.392 . S
C573 H596 0.930 . S
C574 C573 1.392 . S
C574 C575 1.398 . S
C574 H597 0.929 . S
C575 C574 1.398 . S
C575 C576 1.352 . S
C576 C575 1.352 . S
C576 C577 1.384 . S
C576 H598 0.930 . S
C577 C572 1.407 . S
C577 C576 1.384 . S
C577 H599 0.929 . S
C578 O588 1.241 . S
C578 O589 1.273 . S
C579 O590 1.251 . S
C579 O591 1.268 . S
O580 Nd560 2.500 . S
O580 C562 1.258 . S
O581 Nd560 2.492 . S
O581 C562 1.239 . S
O582 Nd560 2.487 . S
O582 C569 1.241 . S
O583 Nd560 2.682 . S
O583 Nd561 2.414 . S
O583 C569 1.273 . S
O584 Nd560 2.410 . S
O584 C570 1.251 . S
O585 Nd561 2.424 . S
O585 C570 1.268 . S
O586 Nd561 2.500 . S
O586 C571 1.258 . S
O587 Nd561 2.492 . S
O587 C571 1.239 . S
O588 Nd561 2.487 . S
O588 C578 1.241 . S
O589 Nd560 2.414 . S
O589 Nd561 2.682 . S
O589 C578 1.273 . S
O590 Nd561 2.410 . S
O590 C579 1.251 . S
O591 Nd560 2.424 . S
O591 C579 1.268 . S
H592 C564 0.930 . S
H593 C565 0.929 . S
H594 C567 0.930 1_545 S
H595 C568 0.929 . S
H596 C573 0.930 . S
H597 C574 0.929 . S
H598 C576 0.930 . S
H599 C577 0.929 . S
Nd600 C602 2.836 . S
Nd600 O620 2.500 . S
Nd600 O621 2.492 . S
Nd600 O622 2.487 . S
Nd600 O623 2.682 . S
Nd600 O624 2.410 . S
Nd600 O629 2.414 . S
Nd600 O631 2.424 . S
Nd601 C611 2.836 . S
Nd601 O623 2.414 . S
Nd601 O625 2.424 . S
Nd601 O626 2.500 . S
Nd601 O627 2.492 . S
Nd601 O628 2.487 . S
Nd601 O629 2.682 . S
Nd601 O630 2.410 . S
C602 Nd600 2.836 . S
C602 C603 1.498 . S
C602 O620 1.258 . S
C602 O621 1.239 . S
C603 C602 1.498 . S
C603 C604 1.366 . S
C603 C608 1.407 . S
C604 C603 1.366 . S
C604 C605 1.392 . S
C604 H632 0.930 . S
C605 C604 1.392 . S
C605 C606 1.398 . S
C605 H633 0.929 . S
C606 C605 1.398 . S
C606 C607 1.352 . S
C607 C606 1.352 . S
C607 C608 1.384 . S
C607 H634 0.930 . S
C608 C603 1.407 . S
C608 C607 1.384 . S
C608 H635 0.929 . S
C609 O622 1.241 . S
C609 O623 1.273 . S
C610 O624 1.251 . S
C610 O625 1.268 . S
C611 Nd601 2.836 . S
C611 C612 1.498 1_554 S
C611 O626 1.258 . S
C611 O627 1.239 . S
C612 C611 1.498 1_556 S
C612 C613 1.366 . S
C612 C617 1.407 . S
C613 C612 1.366 . S
C613 C614 1.392 . S
C613 H636 0.930 . S
C614 C613 1.392 . S
C614 C615 1.398 . S
C614 H637 0.929 . S
C615 C614 1.398 . S
C615 C616 1.352 . S
C616 C615 1.352 . S
C616 C617 1.384 . S
C616 H638 0.930 . S
C617 C612 1.407 . S
C617 C616 1.384 . S
C617 H639 0.929 . S
C618 O628 1.241 . S
C618 O629 1.273 . S
C619 O630 1.251 . S
C619 O631 1.268 . S
O620 Nd600 2.500 . S
O620 C602 1.258 . S
O621 Nd600 2.492 . S
O621 C602 1.239 . S
O622 Nd600 2.487 . S
O622 C609 1.241 . S
O623 Nd600 2.682 . S
O623 Nd601 2.414 . S
O623 C609 1.273 . S
O624 Nd600 2.410 . S
O624 C610 1.251 . S
O625 Nd601 2.424 . S
O625 C610 1.268 . S
O626 Nd601 2.500 . S
O626 C611 1.258 . S
O627 Nd601 2.492 . S
O627 C611 1.239 . S
O628 Nd601 2.487 . S
O628 C618 1.241 . S
O629 Nd600 2.414 . S
O629 Nd601 2.682 . S
O629 C618 1.273 . S
O630 Nd601 2.410 . S
O630 C619 1.251 . S
O631 Nd600 2.424 . S
O631 C619 1.268 . S
H632 C604 0.930 . S
H633 C605 0.929 . S
H634 C607 0.930 . S
H635 C608 0.929 . S
H636 C613 0.930 . S
H637 C614 0.929 . S
H638 C616 0.930 . S
H639 C617 0.929 . S
Nd640 C642 2.836 . S
Nd640 O660 2.500 . S
Nd640 O661 2.492 . S
Nd640 O662 2.487 . S
Nd640 O663 2.682 . S
Nd640 O664 2.410 . S
Nd640 O669 2.414 . S
Nd640 O671 2.424 . S
Nd641 C651 2.836 . S
Nd641 O663 2.414 . S
Nd641 O665 2.424 . S
Nd641 O666 2.500 . S
Nd641 O667 2.492 . S
Nd641 O668 2.487 . S
Nd641 O669 2.682 . S
Nd641 O670 2.410 . S
C642 Nd640 2.836 . S
C642 C643 1.498 . S
C642 O660 1.258 . S
C642 O661 1.239 . S
C643 C642 1.498 . S
C643 C644 1.366 . S
C643 C648 1.407 . S
C644 C643 1.366 . S
C644 C645 1.392 . S
C644 H672 0.930 . S
C645 C644 1.392 . S
C645 C646 1.398 . S
C645 H673 0.929 . S
C646 C645 1.398 . S
C646 C647 1.352 . S
C647 C646 1.352 . S
C647 C648 1.384 . S
C647 H674 0.930 . S
C648 C643 1.407 . S
C648 C647 1.384 . S
C648 H675 0.929 . S
C649 O662 1.241 . S
C649 O663 1.273 . S
C650 O664 1.251 . S
C650 O665 1.268 . S
C651 Nd641 2.836 . S
C651 C652 1.498 . S
C651 O666 1.258 . S
C651 O667 1.239 . S
C652 C651 1.498 . S
C652 C653 1.366 . S
C652 C657 1.407 . S
C653 C652 1.366 . S
C653 C654 1.392 . S
C653 H676 0.930 . S
C654 C653 1.392 . S
C654 C655 1.398 . S
C654 H677 0.929 . S
C655 C654 1.398 . S
C655 C656 1.352 . S
C656 C655 1.352 . S
C656 C657 1.384 . S
C656 H678 0.930 . S
C657 C652 1.407 . S
C657 C656 1.384 . S
C657 H679 0.929 . S
C658 O668 1.241 . S
C658 O669 1.273 . S
C659 O670 1.251 . S
C659 O671 1.268 . S
O660 Nd640 2.500 . S
O660 C642 1.258 . S
O661 Nd640 2.492 . S
O661 C642 1.239 . S
O662 Nd640 2.487 . S
O662 C649 1.241 . S
O663 Nd640 2.682 . S
O663 Nd641 2.414 . S
O663 C649 1.273 . S
O664 Nd640 2.410 . S
O664 C650 1.251 . S
O665 Nd641 2.424 . S
O665 C650 1.268 . S
O666 Nd641 2.500 . S
O666 C651 1.258 . S
O667 Nd641 2.492 . S
O667 C651 1.239 . S
O668 Nd641 2.487 . S
O668 C658 1.241 . S
O669 Nd640 2.414 . S
O669 Nd641 2.682 . S
O669 C658 1.273 . S
O670 Nd641 2.410 . S
O670 C659 1.251 . S
O671 Nd640 2.424 . S
O671 C659 1.268 . S
H672 C644 0.930 . S
H673 C645 0.929 . S
H674 C647 0.930 . S
H675 C648 0.929 . S
H676 C653 0.930 . S
H677 C654 0.929 . S
H678 C656 0.930 . S
H679 C657 0.929 . S
Nd680 C682 2.836 . S
Nd680 O700 2.500 . S
Nd680 O701 2.492 . S
Nd680 O702 2.487 . S
Nd680 O703 2.682 . S
Nd680 O704 2.410 . S
Nd680 O709 2.414 . S
Nd680 O711 2.424 . S
Nd681 C691 2.836 . S
Nd681 O703 2.414 . S
Nd681 O705 2.424 . S
Nd681 O706 2.500 . S
Nd681 O707 2.492 . S
Nd681 O708 2.487 . S
Nd681 O709 2.682 . S
Nd681 O710 2.410 . S
C682 Nd680 2.836 . S
C682 C683 1.498 1_554 S
C682 O700 1.258 . S
C682 O701 1.239 . S
C683 C682 1.498 1_556 S
C683 C684 1.366 . S
C683 C688 1.407 . S
C684 C683 1.366 . S
C684 C685 1.392 . S
C684 H712 0.930 . S
C685 C684 1.392 . S
C685 C686 1.398 . S
C685 H713 0.929 . S
C686 C685 1.398 . S
C686 C687 1.352 . S
C687 C686 1.352 . S
C687 C688 1.384 . S
C687 H714 0.930 . S
C688 C683 1.407 . S
C688 C687 1.384 . S
C688 H715 0.929 . S
C689 O702 1.241 . S
C689 O703 1.273 . S
C690 O704 1.251 . S
C690 O705 1.268 . S
C691 Nd681 2.836 . S
C691 C692 1.498 . S
C691 O706 1.258 . S
C691 O707 1.239 . S
C692 C691 1.498 . S
C692 C693 1.366 . S
C692 C697 1.407 . S
C693 C692 1.366 . S
C693 C694 1.392 . S
C693 H716 0.930 . S
C694 C693 1.392 . S
C694 C695 1.398 . S
C694 H717 0.929 . S
C695 C694 1.398 . S
C695 C696 1.352 . S
C696 C695 1.352 . S
C696 C697 1.384 . S
C696 H718 0.930 . S
C697 C692 1.407 . S
C697 C696 1.384 . S
C697 H719 0.929 . S
C698 O708 1.241 . S
C698 O709 1.273 . S
C699 O710 1.251 . S
C699 O711 1.268 . S
O700 Nd680 2.500 . S
O700 C682 1.258 . S
O701 Nd680 2.492 . S
O701 C682 1.239 . S
O702 Nd680 2.487 . S
O702 C689 1.241 . S
O703 Nd680 2.682 . S
O703 Nd681 2.414 . S
O703 C689 1.273 . S
O704 Nd680 2.410 . S
O704 C690 1.251 . S
O705 Nd681 2.424 . S
O705 C690 1.268 . S
O706 Nd681 2.500 . S
O706 C691 1.258 . S
O707 Nd681 2.492 . S
O707 C691 1.239 . S
O708 Nd681 2.487 . S
O708 C698 1.241 . S
O709 Nd680 2.414 . S
O709 Nd681 2.682 . S
O709 C698 1.273 . S
O710 Nd681 2.410 . S
O710 C699 1.251 . S
O711 Nd680 2.424 . S
O711 C699 1.268 . S
H712 C684 0.930 . S
H713 C685 0.929 . S
H714 C687 0.930 . S
H715 C688 0.929 . S
H716 C693 0.930 . S
H717 C694 0.929 . S
H718 C696 0.930 . S
H719 C697 0.929 . S
Nd720 C722 2.836 . S
Nd720 O740 2.500 . S
Nd720 O741 2.492 . S
Nd720 O742 2.487 . S
Nd720 O743 2.682 . S
Nd720 O744 2.410 . S
Nd720 O749 2.414 . S
Nd720 O751 2.424 . S
Nd721 C731 2.836 . S
Nd721 O743 2.414 . S
Nd721 O745 2.424 . S
Nd721 O746 2.500 . S
Nd721 O747 2.492 . S
Nd721 O748 2.487 . S
Nd721 O749 2.682 . S
Nd721 O750 2.410 . S
C722 Nd720 2.836 . S
C722 C723 1.498 . S
C722 O740 1.258 . S
C722 O741 1.239 . S
C723 C722 1.498 . S
C723 C724 1.366 . S
C723 C728 1.407 . S
C724 C723 1.366 . S
C724 C725 1.392 . S
C724 H752 0.930 . S
C725 C724 1.392 . S
C725 C726 1.398 . S
C725 H753 0.929 . S
C726 C725 1.398 . S
C726 C727 1.352 . S
C727 C726 1.352 . S
C727 C728 1.384 . S
C727 H754 0.930 . S
C728 C723 1.407 . S
C728 C727 1.384 . S
C728 H755 0.929 . S
C729 O742 1.241 . S
C729 O743 1.273 . S
C730 O744 1.251 . S
C730 O745 1.268 . S
C731 Nd721 2.836 . S
C731 C732 1.498 . S
C731 O746 1.258 . S
C731 O747 1.239 . S
C732 C731 1.498 . S
C732 C733 1.366 . S
C732 C737 1.407 . S
C733 C732 1.366 . S
C733 C734 1.392 . S
C733 H756 0.930 . S
C734 C733 1.392 . S
C734 C735 1.398 . S
C734 H757 0.929 . S
C735 C734 1.398 . S
C735 C736 1.352 . S
C736 C735 1.352 . S
C736 C737 1.384 . S
C736 H758 0.930 . S
C737 C732 1.407 . S
C737 C736 1.384 . S
C737 H759 0.929 . S
C738 O748 1.241 . S
C738 O749 1.273 . S
C739 O750 1.251 . S
C739 O751 1.268 . S
O740 Nd720 2.500 . S
O740 C722 1.258 . S
O741 Nd720 2.492 . S
O741 C722 1.239 . S
O742 Nd720 2.487 . S
O742 C729 1.241 . S
O743 Nd720 2.682 . S
O743 Nd721 2.414 . S
O743 C729 1.273 . S
O744 Nd720 2.410 . S
O744 C730 1.251 . S
O745 Nd721 2.424 . S
O745 C730 1.268 . S
O746 Nd721 2.500 . S
O746 C731 1.258 . S
O747 Nd721 2.492 . S
O747 C731 1.239 . S
O748 Nd721 2.487 . S
O748 C738 1.241 . S
O749 Nd720 2.414 . S
O749 Nd721 2.682 . S
O749 C738 1.273 . S
O750 Nd721 2.410 . S
O750 C739 1.251 . S
O751 Nd720 2.424 . S
O751 C739 1.268 . S
H752 C724 0.930 . S
H753 C725 0.929 . S
H754 C727 0.930 . S
H755 C728 0.929 . S
H756 C733 0.930 . S
H757 C734 0.929 . S
H758 C736 0.930 . S
H759 C737 0.929 . S
Nd760 C762 2.836 . S
Nd760 O780 2.500 . S
Nd760 O781 2.492 . S
Nd760 O782 2.487 . S
Nd760 O783 2.682 . S
Nd760 O784 2.410 . S
Nd760 O789 2.414 . S
Nd760 O791 2.424 . S
Nd761 C771 2.836 . S
Nd761 O783 2.414 . S
Nd761 O785 2.424 . S
Nd761 O786 2.500 . S
Nd761 O787 2.492 . S
Nd761 O788 2.487 . S
Nd761 O789 2.682 . S
Nd761 O790 2.410 . S
C762 Nd760 2.836 . S
C762 C763 1.498 . S
C762 O780 1.258 . S
C762 O781 1.239 . S
C763 C762 1.498 . S
C763 C764 1.366 . S
C763 C768 1.407 . S
C764 C763 1.366 . S
C764 C765 1.392 . S
C764 H792 0.930 . S
C765 C764 1.392 . S
C765 C766 1.398 . S
C765 H793 0.929 . S
C766 C765 1.398 . S
C766 C767 1.352 . S
C767 C766 1.352 . S
C767 C768 1.384 . S
C767 H794 0.930 . S
C768 C763 1.407 . S
C768 C767 1.384 . S
C768 H795 0.929 . S
C769 O782 1.241 . S
C769 O783 1.273 . S
C770 O784 1.251 . S
C770 O785 1.268 . S
C771 Nd761 2.836 . S
C771 C772 1.498 . S
C771 O786 1.258 . S
C771 O787 1.239 . S
C772 C771 1.498 . S
C772 C773 1.366 . S
C772 C777 1.407 . S
C773 C772 1.366 . S
C773 C774 1.392 . S
C773 H796 0.930 . S
C774 C773 1.392 . S
C774 C775 1.398 . S
C774 H797 0.929 . S
C775 C774 1.398 . S
C775 C776 1.352 . S
C776 C775 1.352 . S
C776 C777 1.384 . S
C776 H798 0.930 . S
C777 C772 1.407 . S
C777 C776 1.384 . S
C777 H799 0.929 . S
C778 O788 1.241 . S
C778 O789 1.273 . S
C779 O790 1.251 . S
C779 O791 1.268 . S
O780 Nd760 2.500 . S
O780 C762 1.258 . S
O781 Nd760 2.492 . S
O781 C762 1.239 . S
O782 Nd760 2.487 . S
O782 C769 1.241 . S
O783 Nd760 2.682 . S
O783 Nd761 2.414 . S
O783 C769 1.273 . S
O784 Nd760 2.410 . S
O784 C770 1.251 . S
O785 Nd761 2.424 . S
O785 C770 1.268 . S
O786 Nd761 2.500 . S
O786 C771 1.258 . S
O787 Nd761 2.492 . S
O787 C771 1.239 . S
O788 Nd761 2.487 . S
O788 C778 1.241 . S
O789 Nd760 2.414 . S
O789 Nd761 2.682 . S
O789 C778 1.273 . S
O790 Nd761 2.410 . S
O790 C779 1.251 . S
O791 Nd760 2.424 . S
O791 C779 1.268 . S
H792 C764 0.930 . S
H793 C765 0.929 . S
H794 C767 0.930 . S
H795 C768 0.929 . S
H796 C773 0.930 . S
H797 C774 0.929 . S
H798 C776 0.930 . S
H799 C777 0.929 . S
Nd800 C802 2.836 . S
Nd800 O820 2.500 . S
Nd800 O821 2.492 . S
Nd800 O822 2.487 . S
Nd800 O823 2.682 . S
Nd800 O824 2.410 . S
Nd800 O829 2.414 . S
Nd800 O831 2.424 . S
Nd801 C811 2.836 . S
Nd801 O823 2.414 . S
Nd801 O825 2.424 . S
Nd801 O826 2.500 . S
Nd801 O827 2.492 . S
Nd801 O828 2.487 . S
Nd801 O829 2.682 . S
Nd801 O830 2.410 . S
C802 Nd800 2.836 . S
C802 C803 1.498 . S
C802 O820 1.258 . S
C802 O821 1.239 . S
C803 C802 1.498 . S
C803 C804 1.366 . S
C803 C808 1.407 . S
C804 C803 1.366 . S
C804 C805 1.392 . S
C804 H832 0.930 . S
C805 C804 1.392 . S
C805 C806 1.398 . S
C805 H833 0.929 . S
C806 C805 1.398 . S
C806 C807 1.352 . S
C807 C806 1.352 . S
C807 C808 1.384 . S
C807 H834 0.930 . S
C808 C803 1.407 . S
C808 C807 1.384 . S
C808 H835 0.929 . S
C809 O822 1.241 . S
C809 O823 1.273 . S
C810 O824 1.251 . S
C810 O825 1.268 . S
C811 Nd801 2.836 . S
C811 C812 1.498 . S
C811 O826 1.258 . S
C811 O827 1.239 . S
C812 C811 1.498 . S
C812 C813 1.366 . S
C812 C817 1.407 . S
C813 C812 1.366 . S
C813 C814 1.392 . S
C813 H836 0.930 . S
C814 C813 1.392 . S
C814 C815 1.398 . S
C814 H837 0.929 . S
C815 C814 1.398 . S
C815 C816 1.352 . S
C816 C815 1.352 . S
C816 C817 1.384 . S
C816 H838 0.930 . S
C817 C812 1.407 . S
C817 C816 1.384 . S
C817 H839 0.929 . S
C818 O828 1.241 . S
C818 O829 1.273 . S
C819 O830 1.251 . S
C819 O831 1.268 . S
O820 Nd800 2.500 . S
O820 C802 1.258 . S
O821 Nd800 2.492 . S
O821 C802 1.239 . S
O822 Nd800 2.487 . S
O822 C809 1.241 . S
O823 Nd800 2.682 . S
O823 Nd801 2.414 . S
O823 C809 1.273 . S
O824 Nd800 2.410 . S
O824 C810 1.251 . S
O825 Nd801 2.424 . S
O825 C810 1.268 . S
O826 Nd801 2.500 . S
O826 C811 1.258 . S
O827 Nd801 2.492 . S
O827 C811 1.239 . S
O828 Nd801 2.487 . S
O828 C818 1.241 . S
O829 Nd800 2.414 . S
O829 Nd801 2.682 . S
O829 C818 1.273 . S
O830 Nd801 2.410 . S
O830 C819 1.251 . S
O831 Nd800 2.424 . S
O831 C819 1.268 . S
H832 C804 0.930 . S
H833 C805 0.929 . S
H834 C807 0.930 . S
H835 C808 0.929 . S
H836 C813 0.930 . S
H837 C814 0.929 . S
H838 C816 0.930 . S
H839 C817 0.929 . S
Nd840 C842 2.836 . S
Nd840 O860 2.500 . S
Nd840 O861 2.492 . S
Nd840 O862 2.487 . S
Nd840 O863 2.682 . S
Nd840 O864 2.410 . S
Nd840 O869 2.414 . S
Nd840 O871 2.424 . S
Nd841 C851 2.836 . S
Nd841 O863 2.414 . S
Nd841 O865 2.424 . S
Nd841 O866 2.500 . S
Nd841 O867 2.492 . S
Nd841 O868 2.487 . S
Nd841 O869 2.682 . S
Nd841 O870 2.410 . S
C842 Nd840 2.836 . S
C842 C843 1.498 1_556 S
C842 O860 1.258 . S
C842 O861 1.239 . S
C843 C842 1.498 1_554 S
C843 C844 1.366 . S
C843 C848 1.407 . S
C844 C843 1.366 . S
C844 C845 1.392 . S
C844 H872 0.930 . S
C845 C844 1.392 . S
C845 C846 1.398 . S
C845 H873 0.929 . S
C846 C845 1.398 . S
C846 C847 1.352 . S
C847 C846 1.352 . S
C847 C848 1.384 . S
C847 H874 0.930 . S
C848 C843 1.407 . S
C848 C847 1.384 . S
C848 H875 0.929 . S
C849 O862 1.241 . S
C849 O863 1.273 . S
C850 O864 1.251 . S
C850 O865 1.268 . S
C851 Nd841 2.836 . S
C851 C852 1.498 . S
C851 O866 1.258 . S
C851 O867 1.239 . S
C852 C851 1.498 . S
C852 C853 1.366 . S
C852 C857 1.407 . S
C853 C852 1.366 . S
C853 C854 1.392 . S
C853 H876 0.930 . S
C854 C853 1.392 . S
C854 C855 1.398 . S
C854 H877 0.929 . S
C855 C854 1.398 . S
C855 C856 1.352 . S
C856 C855 1.352 . S
C856 C857 1.384 . S
C856 H878 0.930 . S
C857 C852 1.407 . S
C857 C856 1.384 . S
C857 H879 0.929 . S
C858 O868 1.241 . S
C858 O869 1.273 . S
C859 O870 1.251 . S
C859 O871 1.268 . S
O860 Nd840 2.500 . S
O860 C842 1.258 . S
O861 Nd840 2.492 . S
O861 C842 1.239 . S
O862 Nd840 2.487 . S
O862 C849 1.241 . S
O863 Nd840 2.682 . S
O863 Nd841 2.414 . S
O863 C849 1.273 . S
O864 Nd840 2.410 . S
O864 C850 1.251 . S
O865 Nd841 2.424 . S
O865 C850 1.268 . S
O866 Nd841 2.500 . S
O866 C851 1.258 . S
O867 Nd841 2.492 . S
O867 C851 1.239 . S
O868 Nd841 2.487 . S
O868 C858 1.241 . S
O869 Nd840 2.414 . S
O869 Nd841 2.682 . S
O869 C858 1.273 . S
O870 Nd841 2.410 . S
O870 C859 1.251 . S
O871 Nd840 2.424 . S
O871 C859 1.268 . S
H872 C844 0.930 . S
H873 C845 0.929 . S
H874 C847 0.930 . S
H875 C848 0.929 . S
H876 C853 0.930 . S
H877 C854 0.929 . S
H878 C856 0.930 . S
H879 C857 0.929 . S
Nd880 C882 2.836 . S
Nd880 O900 2.500 . S
Nd880 O901 2.492 . S
Nd880 O902 2.487 . S
Nd880 O903 2.682 . S
Nd880 O904 2.410 . S
Nd880 O909 2.414 . S
Nd880 O911 2.424 . S
Nd881 C891 2.836 . S
Nd881 O903 2.414 . S
Nd881 O905 2.424 . S
Nd881 O906 2.500 . S
Nd881 O907 2.492 . S
Nd881 O908 2.487 . S
Nd881 O909 2.682 . S
Nd881 O910 2.410 . S
C882 Nd880 2.836 . S
C882 C883 1.498 . S
C882 O900 1.258 . S
C882 O901 1.239 . S
C883 C882 1.498 . S
C883 C884 1.366 . S
C883 C888 1.407 . S
C884 C883 1.366 . S
C884 C885 1.392 . S
C884 H912 0.930 . S
C885 C884 1.392 . S
C885 C886 1.398 . S
C885 H913 0.929 . S
C886 C885 1.398 . S
C886 C887 1.352 . S
C887 C886 1.352 . S
C887 C888 1.384 . S
C887 H914 0.930 . S
C888 C883 1.407 . S
C888 C887 1.384 . S
C888 H915 0.929 . S
C889 O902 1.241 . S
C889 O903 1.273 . S
C890 O904 1.251 . S
C890 O905 1.268 . S
C891 Nd881 2.836 . S
C891 C892 1.498 . S
C891 O906 1.258 . S
C891 O907 1.239 . S
C892 C891 1.498 . S
C892 C893 1.366 . S
C892 C897 1.407 . S
C893 C892 1.366 . S
C893 C894 1.392 . S
C893 H916 0.930 . S
C894 C893 1.392 . S
C894 C895 1.398 . S
C894 H917 0.929 . S
C895 C894 1.398 . S
C895 C896 1.352 . S
C896 C895 1.352 . S
C896 C897 1.384 . S
C896 H918 0.930 . S
C897 C892 1.407 . S
C897 C896 1.384 . S
C897 H919 0.929 . S
C898 O908 1.241 . S
C898 O909 1.273 . S
C899 O910 1.251 . S
C899 O911 1.268 . S
O900 Nd880 2.500 . S
O900 C882 1.258 . S
O901 Nd880 2.492 . S
O901 C882 1.239 . S
O902 Nd880 2.487 . S
O902 C889 1.241 . S
O903 Nd880 2.682 . S
O903 Nd881 2.414 . S
O903 C889 1.273 . S
O904 Nd880 2.410 . S
O904 C890 1.251 . S
O905 Nd881 2.424 . S
O905 C890 1.268 . S
O906 Nd881 2.500 . S
O906 C891 1.258 . S
O907 Nd881 2.492 . S
O907 C891 1.239 . S
O908 Nd881 2.487 . S
O908 C898 1.241 . S
O909 Nd880 2.414 . S
O909 Nd881 2.682 . S
O909 C898 1.273 . S
O910 Nd881 2.410 . S
O910 C899 1.251 . S
O911 Nd880 2.424 . S
O911 C899 1.268 . S
H912 C884 0.930 . S
H913 C885 0.929 . S
H914 C887 0.930 . S
H915 C888 0.929 . S
H916 C893 0.930 . S
H917 C894 0.929 . S
H918 C896 0.930 . S
H919 C897 0.929 . S
Nd920 C922 2.836 . S
Nd920 O940 2.500 . S
Nd920 O941 2.492 . S
Nd920 O942 2.487 . S
Nd920 O943 2.682 . S
Nd920 O944 2.410 . S
Nd920 O949 2.414 . S
Nd920 O951 2.424 . S
Nd921 C931 2.836 . S
Nd921 O943 2.414 . S
Nd921 O945 2.424 . S
Nd921 O946 2.500 . S
Nd921 O947 2.492 . S
Nd921 O948 2.487 . S
Nd921 O949 2.682 . S
Nd921 O950 2.410 . S
C922 Nd920 2.836 . S
C922 C923 1.498 . S
C922 O940 1.258 . S
C922 O941 1.239 . S
C923 C922 1.498 . S
C923 C924 1.366 . S
C923 C928 1.407 . S
C924 C923 1.366 . S
C924 C925 1.392 . S
C924 H952 0.930 . S
C925 C924 1.392 . S
C925 C926 1.398 . S
C925 H953 0.929 . S
C926 C925 1.398 . S
C926 C927 1.352 . S
C927 C926 1.352 . S
C927 C928 1.384 . S
C927 H954 0.930 . S
C928 C923 1.407 . S
C928 C927 1.384 . S
C928 H955 0.929 . S
C929 O942 1.241 . S
C929 O943 1.273 . S
C930 O944 1.251 . S
C930 O945 1.268 . S
C931 Nd921 2.836 . S
C931 C932 1.498 . S
C931 O946 1.258 . S
C931 O947 1.239 . S
C932 C931 1.498 . S
C932 C933 1.366 . S
C932 C937 1.407 . S
C933 C932 1.366 . S
C933 C934 1.392 . S
C933 H956 0.930 . S
C934 C933 1.392 . S
C934 C935 1.398 . S
C934 H957 0.929 . S
C935 C934 1.398 . S
C935 C936 1.352 . S
C936 C935 1.352 . S
C936 C937 1.384 . S
C936 H958 0.930 . S
C937 C932 1.407 . S
C937 C936 1.384 . S
C937 H959 0.929 . S
C938 O948 1.241 . S
C938 O949 1.273 . S
C939 O950 1.251 . S
C939 O951 1.268 . S
O940 Nd920 2.500 . S
O940 C922 1.258 . S
O941 Nd920 2.492 . S
O941 C922 1.239 . S
O942 Nd920 2.487 . S
O942 C929 1.241 . S
O943 Nd920 2.682 . S
O943 Nd921 2.414 . S
O943 C929 1.273 . S
O944 Nd920 2.410 . S
O944 C930 1.251 . S
O945 Nd921 2.424 . S
O945 C930 1.268 . S
O946 Nd921 2.500 . S
O946 C931 1.258 . S
O947 Nd921 2.492 . S
O947 C931 1.239 . S
O948 Nd921 2.487 . S
O948 C938 1.241 . S
O949 Nd920 2.414 . S
O949 Nd921 2.682 . S
O949 C938 1.273 . S
O950 Nd921 2.410 . S
O950 C939 1.251 . S
O951 Nd920 2.424 . S
O951 C939 1.268 . S
H952 C924 0.930 . S
H953 C925 0.929 . S
H954 C927 0.930 . S
H955 C928 0.929 . S
H956 C933 0.930 . S
H957 C934 0.929 . S
H958 C936 0.930 . S
H959 C937 0.929 . S
Nd960 C962 2.836 . S
Nd960 O980 2.500 . S
Nd960 O981 2.492 . S
Nd960 O982 2.487 . S
Nd960 O983 2.682 . S
Nd960 O984 2.410 . S
Nd960 O989 2.414 . S
Nd960 O991 2.424 . S
Nd961 C971 2.836 . S
Nd961 O983 2.414 . S
Nd961 O985 2.424 . S
Nd961 O986 2.500 . S
Nd961 O987 2.492 . S
Nd961 O988 2.487 . S
Nd961 O989 2.682 . S
Nd961 O990 2.410 . S
C962 Nd960 2.836 . S
C962 C963 1.498 . S
C962 O980 1.258 . S
C962 O981 1.239 . S
C963 C962 1.498 . S
C963 C964 1.366 . S
C963 C968 1.407 . S
C964 C963 1.366 . S
C964 C965 1.392 . S
C964 H992 0.930 . S
C965 C964 1.392 . S
C965 C966 1.398 . S
C965 H993 0.929 . S
C966 C965 1.398 . S
C966 C967 1.352 . S
C967 C966 1.352 . S
C967 C968 1.384 . S
C967 H994 0.930 . S
C968 C963 1.407 . S
C968 C967 1.384 . S
C968 H995 0.929 . S
C969 O982 1.241 . S
C969 O983 1.273 . S
C970 O984 1.251 . S
C970 O985 1.268 . S
C971 Nd961 2.836 . S
C971 C972 1.498 . S
C971 O986 1.258 . S
C971 O987 1.239 . S
C972 C971 1.498 . S
C972 C973 1.366 . S
C972 C977 1.407 . S
C973 C972 1.366 . S
C973 C974 1.392 . S
C973 H996 0.930 . S
C974 C973 1.392 . S
C974 C975 1.398 . S
C974 H997 0.929 . S
C975 C974 1.398 . S
C975 C976 1.352 . S
C976 C975 1.352 . S
C976 C977 1.384 . S
C976 H998 0.930 . S
C977 C972 1.407 . S
C977 C976 1.384 . S
C977 H999 0.929 . S
C978 O988 1.241 . S
C978 O989 1.273 . S
C979 O990 1.251 . S
C979 O991 1.268 . S
O980 Nd960 2.500 . S
O980 C962 1.258 . S
O981 Nd960 2.492 . S
O981 C962 1.239 . S
O982 Nd960 2.487 . S
O982 C969 1.241 . S
O983 Nd960 2.682 . S
O983 Nd961 2.414 . S
O983 C969 1.273 . S
O984 Nd960 2.410 . S
O984 C970 1.251 . S
O985 Nd961 2.424 . S
O985 C970 1.268 . S
O986 Nd961 2.500 . S
O986 C971 1.258 . S
O987 Nd961 2.492 . S
O987 C971 1.239 . S
O988 Nd961 2.487 . S
O988 C978 1.241 . S
O989 Nd960 2.414 . S
O989 Nd961 2.682 . S
O989 C978 1.273 . S
O990 Nd961 2.410 . S
O990 C979 1.251 . S
O991 Nd960 2.424 . S
O991 C979 1.268 . S
H992 C964 0.930 . S
H993 C965 0.929 . S
H994 C967 0.930 . S
H995 C968 0.929 . S
H996 C973 0.930 . S
H997 C974 0.929 . S
H998 C976 0.930 . S
H999 C977 0.929 . S
Nd1000 C1002 2.836 . S
Nd1000 O1020 2.500 . S
Nd1000 O1021 2.492 . S
Nd1000 O1022 2.487 . S
Nd1000 O1023 2.682 . S
Nd1000 O1024 2.410 . S
Nd1000 O1029 2.414 . S
Nd1000 O1031 2.424 . S
Nd1001 C1011 2.836 . S
Nd1001 O1023 2.414 . S
Nd1001 O1025 2.424 . S
Nd1001 O1026 2.500 . S
Nd1001 O1027 2.492 . S
Nd1001 O1028 2.487 . S
Nd1001 O1029 2.682 . S
Nd1001 O1030 2.410 . S
C1002 Nd1000 2.836 . S
C1002 C1003 1.498 . S
C1002 O1020 1.258 . S
C1002 O1021 1.239 . S
C1003 C1002 1.498 . S
C1003 C1004 1.366 . S
C1003 C1008 1.407 . S
C1004 C1003 1.366 . S
C1004 C1005 1.392 . S
C1004 H1032 0.930 . S
C1005 C1004 1.392 . S
C1005 C1006 1.398 . S
C1005 H1033 0.929 . S
C1006 C1005 1.398 . S
C1006 C1007 1.352 . S
C1007 C1006 1.352 . S
C1007 C1008 1.384 . S
C1007 H1034 0.930 . S
C1008 C1003 1.407 . S
C1008 C1007 1.384 . S
C1008 H1035 0.929 . S
C1009 O1022 1.241 . S
C1009 O1023 1.273 . S
C1010 O1024 1.251 . S
C1010 O1025 1.268 . S
C1011 Nd1001 2.836 . S
C1011 C1012 1.498 1_556 S
C1011 O1026 1.258 . S
C1011 O1027 1.239 . S
C1012 C1011 1.498 1_554 S
C1012 C1013 1.366 . S
C1012 C1017 1.407 . S
C1013 C1012 1.366 . S
C1013 C1014 1.392 . S
C1013 H1036 0.930 . S
C1014 C1013 1.392 . S
C1014 C1015 1.398 . S
C1014 H1037 0.929 . S
C1015 C1014 1.398 . S
C1015 C1016 1.352 . S
C1016 C1015 1.352 . S
C1016 C1017 1.384 . S
C1016 H1038 0.930 . S
C1017 C1012 1.407 . S
C1017 C1016 1.384 . S
C1017 H1039 0.929 . S
C1018 O1028 1.241 . S
C1018 O1029 1.273 . S
C1019 O1030 1.251 . S
C1019 O1031 1.268 . S
O1020 Nd1000 2.500 . S
O1020 C1002 1.258 . S
O1021 Nd1000 2.492 . S
O1021 C1002 1.239 . S
O1022 Nd1000 2.487 . S
O1022 C1009 1.241 . S
O1023 Nd1000 2.682 . S
O1023 Nd1001 2.414 . S
O1023 C1009 1.273 . S
O1024 Nd1000 2.410 . S
O1024 C1010 1.251 . S
O1025 Nd1001 2.424 . S
O1025 C1010 1.268 . S
O1026 Nd1001 2.500 . S
O1026 C1011 1.258 . S
O1027 Nd1001 2.492 . S
O1027 C1011 1.239 . S
O1028 Nd1001 2.487 . S
O1028 C1018 1.241 . S
O1029 Nd1000 2.414 . S
O1029 Nd1001 2.682 . S
O1029 C1018 1.273 . S
O1030 Nd1001 2.410 . S
O1030 C1019 1.251 . S
O1031 Nd1000 2.424 . S
O1031 C1019 1.268 . S
H1032 C1004 0.930 . S
H1033 C1005 0.929 . S
H1034 C1007 0.930 . S
H1035 C1008 0.929 . S
H1036 C1013 0.930 . S
H1037 C1014 0.929 . S
H1038 C1016 0.930 . S
H1039 C1017 0.929 . S
Nd1040 C1042 2.836 . S
Nd1040 O1060 2.500 . S
Nd1040 O1061 2.492 . S
Nd1040 O1062 2.487 . S
Nd1040 O1063 2.682 . S
Nd1040 O1064 2.410 . S
Nd1040 O1069 2.414 . S
Nd1040 O1071 2.424 . S
Nd1041 C1051 2.836 . S
Nd1041 O1063 2.414 . S
Nd1041 O1065 2.424 . S
Nd1041 O1066 2.500 . S
Nd1041 O1067 2.492 . S
Nd1041 O1068 2.487 . S
Nd1041 O1069 2.682 . S
Nd1041 O1070 2.410 . S
C1042 Nd1040 2.836 . S
C1042 C1043 1.498 . S
C1042 O1060 1.258 . S
C1042 O1061 1.239 . S
C1043 C1042 1.498 . S
C1043 C1044 1.366 . S
C1043 C1048 1.407 . S
C1044 C1043 1.366 . S
C1044 C1045 1.392 . S
C1044 H1072 0.930 . S
C1045 C1044 1.392 . S
C1045 C1046 1.398 . S
C1045 H1073 0.929 . S
C1046 C1045 1.398 . S
C1046 C1047 1.352 . S
C1047 C1046 1.352 . S
C1047 C1048 1.384 . S
C1047 H1074 0.930 . S
C1048 C1043 1.407 . S
C1048 C1047 1.384 . S
C1048 H1075 0.929 . S
C1049 O1062 1.241 . S
C1049 O1063 1.273 . S
C1050 O1064 1.251 . S
C1050 O1065 1.268 . S
C1051 Nd1041 2.836 . S
C1051 C1052 1.498 . S
C1051 O1066 1.258 . S
C1051 O1067 1.239 . S
C1052 C1051 1.498 . S
C1052 C1053 1.366 . S
C1052 C1057 1.407 . S
C1053 C1052 1.366 . S
C1053 C1054 1.392 . S
C1053 H1076 0.930 . S
C1054 C1053 1.392 . S
C1054 C1055 1.398 . S
C1054 H1077 0.929 . S
C1055 C1054 1.398 . S
C1055 C1056 1.352 . S
C1056 C1055 1.352 . S
C1056 C1057 1.384 . S
C1056 H1078 0.930 . S
C1057 C1052 1.407 . S
C1057 C1056 1.384 . S
C1057 H1079 0.929 . S
C1058 O1068 1.241 . S
C1058 O1069 1.273 . S
C1059 O1070 1.251 . S
C1059 O1071 1.268 . S
O1060 Nd1040 2.500 . S
O1060 C1042 1.258 . S
O1061 Nd1040 2.492 . S
O1061 C1042 1.239 . S
O1062 Nd1040 2.487 . S
O1062 C1049 1.241 . S
O1063 Nd1040 2.682 . S
O1063 Nd1041 2.414 . S
O1063 C1049 1.273 . S
O1064 Nd1040 2.410 . S
O1064 C1050 1.251 . S
O1065 Nd1041 2.424 . S
O1065 C1050 1.268 . S
O1066 Nd1041 2.500 . S
O1066 C1051 1.258 . S
O1067 Nd1041 2.492 . S
O1067 C1051 1.239 . S
O1068 Nd1041 2.487 . S
O1068 C1058 1.241 . S
O1069 Nd1040 2.414 . S
O1069 Nd1041 2.682 . S
O1069 C1058 1.273 . S
O1070 Nd1041 2.410 . S
O1070 C1059 1.251 . S
O1071 Nd1040 2.424 . S
O1071 C1059 1.268 . S
H1072 C1044 0.930 . S
H1073 C1045 0.929 . S
H1074 C1047 0.930 . S
H1075 C1048 0.929 . S
H1076 C1053 0.930 . S
H1077 C1054 0.929 . S
H1078 C1056 0.930 . S
H1079 C1057 0.929 . S
Nd1080 C1082 2.836 . S
Nd1080 O1100 2.500 . S
Nd1080 O1101 2.492 . S
Nd1080 O1102 2.487 . S
Nd1080 O1103 2.682 . S
Nd1080 O1104 2.410 . S
Nd1080 O1109 2.414 . S
Nd1080 O1111 2.424 . S
Nd1081 C1091 2.836 . S
Nd1081 O1103 2.414 . S
Nd1081 O1105 2.424 . S
Nd1081 O1106 2.500 . S
Nd1081 O1107 2.492 . S
Nd1081 O1108 2.487 . S
Nd1081 O1109 2.682 . S
Nd1081 O1110 2.410 . S
C1082 Nd1080 2.836 . S
C1082 C1083 1.498 . S
C1082 O1100 1.258 . S
C1082 O1101 1.239 . S
C1083 C1082 1.498 . S
C1083 C1084 1.366 . S
C1083 C1088 1.407 . S
C1084 C1083 1.366 . S
C1084 C1085 1.392 . S
C1084 H1112 0.930 . S
C1085 C1084 1.392 . S
C1085 C1086 1.398 . S
C1085 H1113 0.929 . S
C1086 C1085 1.398 . S
C1086 C1087 1.352 . S
C1087 C1086 1.352 . S
C1087 C1088 1.384 . S
C1087 H1114 0.930 . S
C1088 C1083 1.407 . S
C1088 C1087 1.384 . S
C1088 H1115 0.929 . S
C1089 O1102 1.241 . S
C1089 O1103 1.273 . S
C1090 O1104 1.251 . S
C1090 O1105 1.268 . S
C1091 Nd1081 2.836 . S
C1091 C1092 1.498 . S
C1091 O1106 1.258 . S
C1091 O1107 1.239 . S
C1092 C1091 1.498 . S
C1092 C1093 1.366 . S
C1092 C1097 1.407 . S
C1093 C1092 1.366 . S
C1093 C1094 1.392 . S
C1093 H1116 0.930 . S
C1094 C1093 1.392 . S
C1094 C1095 1.398 . S
C1094 H1117 0.929 . S
C1095 C1094 1.398 . S
C1095 C1096 1.352 . S
C1096 C1095 1.352 . S
C1096 C1097 1.384 . S
C1096 H1118 0.930 . S
C1097 C1092 1.407 . S
C1097 C1096 1.384 . S
C1097 H1119 0.929 . S
C1098 O1108 1.241 . S
C1098 O1109 1.273 . S
C1099 O1110 1.251 . S
C1099 O1111 1.268 . S
O1100 Nd1080 2.500 . S
O1100 C1082 1.258 . S
O1101 Nd1080 2.492 . S
O1101 C1082 1.239 . S
O1102 Nd1080 2.487 . S
O1102 C1089 1.241 . S
O1103 Nd1080 2.682 . S
O1103 Nd1081 2.414 . S
O1103 C1089 1.273 . S
O1104 Nd1080 2.410 . S
O1104 C1090 1.251 . S
O1105 Nd1081 2.424 . S
O1105 C1090 1.268 . S
O1106 Nd1081 2.500 . S
O1106 C1091 1.258 . S
O1107 Nd1081 2.492 . S
O1107 C1091 1.239 . S
O1108 Nd1081 2.487 . S
O1108 C1098 1.241 . S
O1109 Nd1080 2.414 . S
O1109 Nd1081 2.682 . S
O1109 C1098 1.273 . S
O1110 Nd1081 2.410 . S
O1110 C1099 1.251 . S
O1111 Nd1080 2.424 . S
O1111 C1099 1.268 . S
H1112 C1084 0.930 . S
H1113 C1085 0.929 . S
H1114 C1087 0.930 . S
H1115 C1088 0.929 . S
H1116 C1093 0.930 . S
H1117 C1094 0.929 . S
H1118 C1096 0.930 . S
H1119 C1097 0.929 . S
Nd1120 C1122 2.836 . S
Nd1120 O1140 2.500 . S
Nd1120 O1141 2.492 . S
Nd1120 O1142 2.487 . S
Nd1120 O1143 2.682 . S
Nd1120 O1144 2.410 . S
Nd1120 O1149 2.414 . S
Nd1120 O1151 2.424 . S
Nd1121 C1131 2.836 . S
Nd1121 O1143 2.414 . S
Nd1121 O1145 2.424 . S
Nd1121 O1146 2.500 . S
Nd1121 O1147 2.492 . S
Nd1121 O1148 2.487 . S
Nd1121 O1149 2.682 . S
Nd1121 O1150 2.410 . S
C1122 Nd1120 2.836 . S
C1122 C1123 1.498 . S
C1122 O1140 1.258 . S
C1122 O1141 1.239 . S
C1123 C1122 1.498 . S
C1123 C1124 1.366 . S
C1123 C1128 1.407 . S
C1124 C1123 1.366 . S
C1124 C1125 1.392 . S
C1124 H1152 0.930 . S
C1125 C1124 1.392 . S
C1125 C1126 1.398 . S
C1125 H1153 0.929 . S
C1126 C1125 1.398 . S
C1126 C1127 1.352 . S
C1127 C1126 1.352 . S
C1127 C1128 1.384 . S
C1127 H1154 0.930 . S
C1128 C1123 1.407 . S
C1128 C1127 1.384 . S
C1128 H1155 0.929 . S
C1129 O1142 1.241 . S
C1129 O1143 1.273 . S
C1130 O1144 1.251 . S
C1130 O1145 1.268 . S
C1131 Nd1121 2.836 . S
C1131 C1132 1.498 . S
C1131 O1146 1.258 . S
C1131 O1147 1.239 . S
C1132 C1131 1.498 . S
C1132 C1133 1.366 . S
C1132 C1137 1.407 . S
C1133 C1132 1.366 . S
C1133 C1134 1.392 . S
C1133 H1156 0.930 . S
C1134 C1133 1.392 . S
C1134 C1135 1.398 . S
C1134 H1157 0.929 . S
C1135 C1134 1.398 . S
C1135 C1136 1.352 . S
C1136 C1135 1.352 . S
C1136 C1137 1.384 . S
C1136 H1158 0.930 . S
C1137 C1132 1.407 . S
C1137 C1136 1.384 . S
C1137 H1159 0.929 . S
C1138 O1148 1.241 . S
C1138 O1149 1.273 . S
C1139 O1150 1.251 . S
C1139 O1151 1.268 . S
O1140 Nd1120 2.500 . S
O1140 C1122 1.258 . S
O1141 Nd1120 2.492 . S
O1141 C1122 1.239 . S
O1142 Nd1120 2.487 . S
O1142 C1129 1.241 . S
O1143 Nd1120 2.682 . S
O1143 Nd1121 2.414 . S
O1143 C1129 1.273 . S
O1144 Nd1120 2.410 . S
O1144 C1130 1.251 . S
O1145 Nd1121 2.424 . S
O1145 C1130 1.268 . S
O1146 Nd1121 2.500 . S
O1146 C1131 1.258 . S
O1147 Nd1121 2.492 . S
O1147 C1131 1.239 . S
O1148 Nd1121 2.487 . S
O1148 C1138 1.241 . S
O1149 Nd1120 2.414 . S
O1149 Nd1121 2.682 . S
O1149 C1138 1.273 . S
O1150 Nd1121 2.410 . S
O1150 C1139 1.251 . S
O1151 Nd1120 2.424 . S
O1151 C1139 1.268 . S
H1152 C1124 0.930 . S
H1153 C1125 0.929 . S
H1154 C1127 0.930 . S
H1155 C1128 0.929 . S
H1156 C1133 0.930 . S
H1157 C1134 0.929 . S
H1158 C1136 0.930 . S
H1159 C1137 0.929 . S
Nd1160 C1162 2.836 . S
Nd1160 O1180 2.500 . S
Nd1160 O1181 2.492 . S
Nd1160 O1182 2.487 . S
Nd1160 O1183 2.682 . S
Nd1160 O1184 2.410 . S
Nd1160 O1189 2.414 . S
Nd1160 O1191 2.424 . S
Nd1161 C1171 2.836 . S
Nd1161 O1183 2.414 . S
Nd1161 O1185 2.424 . S
Nd1161 O1186 2.500 . S
Nd1161 O1187 2.492 . S
Nd1161 O1188 2.487 . S
Nd1161 O1189 2.682 . S
Nd1161 O1190 2.410 . S
C1162 Nd1160 2.836 . S
C1162 C1163 1.498 . S
C1162 O1180 1.258 . S
C1162 O1181 1.239 . S
C1163 C1162 1.498 . S
C1163 C1164 1.366 . S
C1163 C1168 1.407 . S
C1164 C1163 1.366 . S
C1164 C1165 1.392 . S
C1164 H1192 0.930 . S
C1165 C1164 1.392 . S
C1165 C1166 1.398 . S
C1165 H1193 0.929 . S
C1166 C1165 1.398 . S
C1166 C1167 1.352 . S
C1167 C1166 1.352 . S
C1167 C1168 1.384 . S
C1167 H1194 0.930 . S
C1168 C1163 1.407 . S
C1168 C1167 1.384 . S
C1168 H1195 0.929 . S
C1169 O1182 1.241 . S
C1169 O1183 1.273 . S
C1170 O1184 1.251 . S
C1170 O1185 1.268 . S
C1171 Nd1161 2.836 . S
C1171 C1172 1.498 1_554 S
C1171 O1186 1.258 . S
C1171 O1187 1.239 . S
C1172 C1171 1.498 1_556 S
C1172 C1173 1.366 . S
C1172 C1177 1.407 . S
C1173 C1172 1.366 . S
C1173 C1174 1.392 . S
C1173 H1196 0.930 . S
C1174 C1173 1.392 . S
C1174 C1175 1.398 . S
C1174 H1197 0.929 . S
C1175 C1174 1.398 . S
C1175 C1176 1.352 . S
C1176 C1175 1.352 . S
C1176 C1177 1.384 . S
C1176 H1198 0.930 . S
C1177 C1172 1.407 . S
C1177 C1176 1.384 . S
C1177 H1199 0.929 . S
C1178 O1188 1.241 . S
C1178 O1189 1.273 . S
C1179 O1190 1.251 . S
C1179 O1191 1.268 . S
O1180 Nd1160 2.500 . S
O1180 C1162 1.258 . S
O1181 Nd1160 2.492 . S
O1181 C1162 1.239 . S
O1182 Nd1160 2.487 . S
O1182 C1169 1.241 . S
O1183 Nd1160 2.682 . S
O1183 Nd1161 2.414 . S
O1183 C1169 1.273 . S
O1184 Nd1160 2.410 . S
O1184 C1170 1.251 . S
O1185 Nd1161 2.424 . S
O1185 C1170 1.268 . S
O1186 Nd1161 2.500 . S
O1186 C1171 1.258 . S
O1187 Nd1161 2.492 . S
O1187 C1171 1.239 . S
O1188 Nd1161 2.487 . S
O1188 C1178 1.241 . S
O1189 Nd1160 2.414 . S
O1189 Nd1161 2.682 . S
O1189 C1178 1.273 . S
O1190 Nd1161 2.410 . S
O1190 C1179 1.251 . S
O1191 Nd1160 2.424 . S
O1191 C1179 1.268 . S
H1192 C1164 0.930 . S
H1193 C1165 0.929 . S
H1194 C1167 0.930 . S
H1195 C1168 0.929 . S
H1196 C1173 0.930 . S
H1197 C1174 0.929 . S
H1198 C1176 0.930 . S
H1199 C1177 0.929 . S
Nd1200 C1202 2.836 . S
Nd1200 O1220 2.500 . S
Nd1200 O1221 2.492 . S
Nd1200 O1222 2.487 . S
Nd1200 O1223 2.682 . S
Nd1200 O1224 2.410 . S
Nd1200 O1229 2.414 . S
Nd1200 O1231 2.424 . S
Nd1201 C1211 2.836 . S
Nd1201 O1223 2.414 . S
Nd1201 O1225 2.424 . S
Nd1201 O1226 2.500 . S
Nd1201 O1227 2.492 . S
Nd1201 O1228 2.487 . S
Nd1201 O1229 2.682 . S
Nd1201 O1230 2.410 . S
C1202 Nd1200 2.836 . S
C1202 C1203 1.498 . S
C1202 O1220 1.258 . S
C1202 O1221 1.239 . S
C1203 C1202 1.498 . S
C1203 C1204 1.366 . S
C1203 C1208 1.407 . S
C1204 C1203 1.366 . S
C1204 C1205 1.392 . S
C1204 H1232 0.930 . S
C1205 C1204 1.392 . S
C1205 C1206 1.398 . S
C1205 H1233 0.929 . S
C1206 C1205 1.398 . S
C1206 C1207 1.352 . S
C1207 C1206 1.352 . S
C1207 C1208 1.384 . S
C1207 H1234 0.930 . S
C1208 C1203 1.407 . S
C1208 C1207 1.384 . S
C1208 H1235 0.929 . S
C1209 O1222 1.241 . S
C1209 O1223 1.273 . S
C1210 O1224 1.251 . S
C1210 O1225 1.268 . S
C1211 Nd1201 2.836 . S
C1211 C1212 1.498 . S
C1211 O1226 1.258 . S
C1211 O1227 1.239 . S
C1212 C1211 1.498 . S
C1212 C1213 1.366 . S
C1212 C1217 1.407 . S
C1213 C1212 1.366 . S
C1213 C1214 1.392 . S
C1213 H1236 0.930 . S
C1214 C1213 1.392 . S
C1214 C1215 1.398 . S
C1214 H1237 0.929 . S
C1215 C1214 1.398 . S
C1215 C1216 1.352 . S
C1216 C1215 1.352 . S
C1216 C1217 1.384 . S
C1216 H1238 0.930 . S
C1217 C1212 1.407 . S
C1217 C1216 1.384 . S
C1217 H1239 0.929 . S
C1218 O1228 1.241 . S
C1218 O1229 1.273 . S
C1219 O1230 1.251 . S
C1219 O1231 1.268 . S
O1220 Nd1200 2.500 . S
O1220 C1202 1.258 . S
O1221 Nd1200 2.492 . S
O1221 C1202 1.239 . S
O1222 Nd1200 2.487 . S
O1222 C1209 1.241 . S
O1223 Nd1200 2.682 . S
O1223 Nd1201 2.414 . S
O1223 C1209 1.273 . S
O1224 Nd1200 2.410 . S
O1224 C1210 1.251 . S
O1225 Nd1201 2.424 . S
O1225 C1210 1.268 . S
O1226 Nd1201 2.500 . S
O1226 C1211 1.258 . S
O1227 Nd1201 2.492 . S
O1227 C1211 1.239 . S
O1228 Nd1201 2.487 . S
O1228 C1218 1.241 . S
O1229 Nd1200 2.414 . S
O1229 Nd1201 2.682 . S
O1229 C1218 1.273 . S
O1230 Nd1201 2.410 . S
O1230 C1219 1.251 . S
O1231 Nd1200 2.424 . S
O1231 C1219 1.268 . S
H1232 C1204 0.930 . S
H1233 C1205 0.929 . S
H1234 C1207 0.930 . S
H1235 C1208 0.929 . S
H1236 C1213 0.930 . S
H1237 C1214 0.929 . S
H1238 C1216 0.930 . S
H1239 C1217 0.929 . S
Nd1240 C1242 2.836 . S
Nd1240 O1260 2.500 . S
Nd1240 O1261 2.492 . S
Nd1240 O1262 2.487 . S
Nd1240 O1263 2.682 . S
Nd1240 O1264 2.410 . S
Nd1240 O1269 2.414 . S
Nd1240 O1271 2.424 . S
Nd1241 C1251 2.836 . S
Nd1241 O1263 2.414 . S
Nd1241 O1265 2.424 . S
Nd1241 O1266 2.500 . S
Nd1241 O1267 2.492 . S
Nd1241 O1268 2.487 . S
Nd1241 O1269 2.682 . S
Nd1241 O1270 2.410 . S
C1242 Nd1240 2.836 . S
C1242 C1243 1.498 . S
C1242 O1260 1.258 . S
C1242 O1261 1.239 . S
C1243 C1242 1.498 . S
C1243 C1244 1.366 . S
C1243 C1248 1.407 . S
C1244 C1243 1.366 . S
C1244 C1245 1.392 . S
C1244 H1272 0.930 . S
C1245 C1244 1.392 . S
C1245 C1246 1.398 . S
C1245 H1273 0.929 . S
C1246 C1245 1.398 . S
C1246 C1247 1.352 . S
C1247 C1246 1.352 . S
C1247 C1248 1.384 . S
C1247 H1274 0.930 . S
C1248 C1243 1.407 . S
C1248 C1247 1.384 . S
C1248 H1275 0.929 . S
C1249 O1262 1.241 . S
C1249 O1263 1.273 . S
C1250 O1264 1.251 . S
C1250 O1265 1.268 . S
C1251 Nd1241 2.836 . S
C1251 C1252 1.498 . S
C1251 O1266 1.258 . S
C1251 O1267 1.239 . S
C1252 C1251 1.498 . S
C1252 C1253 1.366 . S
C1252 C1257 1.407 . S
C1253 C1252 1.366 . S
C1253 C1254 1.392 . S
C1253 H1276 0.930 . S
C1254 C1253 1.392 . S
C1254 C1255 1.398 . S
C1254 H1277 0.929 . S
C1255 C1254 1.398 . S
C1255 C1256 1.352 . S
C1256 C1255 1.352 . S
C1256 C1257 1.384 . S
C1256 H1278 0.930 . S
C1257 C1252 1.407 . S
C1257 C1256 1.384 . S
C1257 H1279 0.929 . S
C1258 O1268 1.241 . S
C1258 O1269 1.273 . S
C1259 O1270 1.251 . S
C1259 O1271 1.268 . S
O1260 Nd1240 2.500 . S
O1260 C1242 1.258 . S
O1261 Nd1240 2.492 . S
O1261 C1242 1.239 . S
O1262 Nd1240 2.487 . S
O1262 C1249 1.241 . S
O1263 Nd1240 2.682 . S
O1263 Nd1241 2.414 . S
O1263 C1249 1.273 . S
O1264 Nd1240 2.410 . S
O1264 C1250 1.251 . S
O1265 Nd1241 2.424 . S
O1265 C1250 1.268 . S
O1266 Nd1241 2.500 . S
O1266 C1251 1.258 . S
O1267 Nd1241 2.492 . S
O1267 C1251 1.239 . S
O1268 Nd1241 2.487 . S
O1268 C1258 1.241 . S
O1269 Nd1240 2.414 . S
O1269 Nd1241 2.682 . S
O1269 C1258 1.273 . S
O1270 Nd1241 2.410 . S
O1270 C1259 1.251 . S
O1271 Nd1240 2.424 . S
O1271 C1259 1.268 . S
H1272 C1244 0.930 . S
H1273 C1245 0.929 . S
H1274 C1247 0.930 . S
H1275 C1248 0.929 . S
H1276 C1253 0.930 . S
H1277 C1254 0.929 . S
H1278 C1256 0.930 . S
H1279 C1257 0.929 . S
H1280 C1286 0.930 . S
H1281 C1290 0.930 . S
H1282 C1295 0.929 . S
H1283 C1293 0.929 . S
H1284 C1288 0.929 . S
H1285 C1294 0.929 . S
C1286 H1280 0.930 . S
C1286 C1287 1.367 . S
C1286 C1294 1.378 . S
C1287 C1286 1.367 . S
C1287 C1295 1.433 . S
C1288 H1284 0.929 . S
C1288 C1290 1.378 . S
C1288 C1292 1.350 . S
C1289 C1292 1.463 . S
C1289 C1294 1.350 . S
C1289 N1297 1.427 . S
C1290 H1281 0.930 . S
C1290 C1288 1.378 . S
C1290 C1291 1.367 . S
C1291 C1290 1.367 . S
C1291 C1293 1.433 . S
C1292 C1288 1.350 . S
C1292 C1289 1.463 . S
C1292 N1296 1.427 . S
C1293 H1283 0.929 . S
C1293 C1291 1.433 . S
C1293 N1296 1.384 . S
C1294 H1285 0.929 . S
C1294 C1286 1.378 . S
C1294 C1289 1.350 . S
C1295 H1282 0.929 . S
C1295 C1287 1.433 . S
C1295 N1297 1.384 . S
N1296 C1292 1.427 . S
N1296 C1293 1.384 . S
N1297 C1289 1.427 . S
N1297 C1295 1.384 . S
H1298 C1304 0.930 . S
H1299 C1308 0.930 . S
H1300 C1313 0.929 . S
H1301 C1311 0.929 . S
H1302 C1306 0.929 . S
H1303 C1312 0.929 . S
C1304 H1298 0.930 . S
C1304 C1305 1.367 . S
C1304 C1312 1.378 1_545 S
C1305 C1304 1.367 . S
C1305 C1313 1.433 1_545 S
C1306 H1302 0.929 . S
C1306 C1308 1.378 . S
C1306 C1310 1.350 . S
C1307 C1310 1.463 . S
C1307 C1312 1.350 . S
C1307 N1315 1.427 . S
C1308 H1299 0.930 . S
C1308 C1306 1.378 . S
C1308 C1309 1.367 . S
C1309 C1308 1.367 . S
C1309 C1311 1.433 . S
C1310 C1306 1.350 . S
C1310 C1307 1.463 . S
C1310 N1314 1.427 . S
C1311 H1301 0.929 . S
C1311 C1309 1.433 . S
C1311 N1314 1.384 . S
C1312 H1303 0.929 . S
C1312 C1304 1.378 1_565 S
C1312 C1307 1.350 . S
C1313 H1300 0.929 . S
C1313 C1305 1.433 1_565 S
C1313 N1315 1.384 . S
N1314 C1310 1.427 . S
N1314 C1311 1.384 . S
N1315 C1307 1.427 . S
N1315 C1313 1.384 . S
H1316 C1322 0.930 . S
H1317 C1326 0.930 . S
H1318 C1331 0.929 . S
H1319 C1329 0.929 . S
H1320 C1324 0.929 . S
H1321 C1330 0.929 . S
C1322 H1316 0.930 . S
C1322 C1323 1.367 . S
C1322 C1330 1.378 . S
C1323 C1322 1.367 . S
C1323 C1331 1.433 . S
C1324 H1320 0.929 . S
C1324 C1326 1.378 . S
C1324 C1328 1.350 . S
C1325 C1328 1.463 . S
C1325 C1330 1.350 . S
C1325 N1333 1.427 . S
C1326 H1317 0.930 . S
C1326 C1324 1.378 . S
C1326 C1327 1.367 . S
C1327 C1326 1.367 . S
C1327 C1329 1.433 . S
C1328 C1324 1.350 . S
C1328 C1325 1.463 . S
C1328 N1332 1.427 . S
C1329 H1319 0.929 . S
C1329 C1327 1.433 . S
C1329 N1332 1.384 . S
C1330 H1321 0.929 . S
C1330 C1322 1.378 . S
C1330 C1325 1.350 . S
C1331 H1318 0.929 . S
C1331 C1323 1.433 . S
C1331 N1333 1.384 . S
N1332 C1328 1.427 . S
N1332 C1329 1.384 . S
N1333 C1325 1.427 . S
N1333 C1331 1.384 . S
H1334 C1340 0.930 1_565 S
H1335 C1344 0.930 . S
H1336 C1349 0.929 . S
H1337 C1347 0.932 . S
H1338 C1342 0.929 . S
H1339 C1348 0.929 . S
C1340 H1334 0.930 1_545 S
C1340 C1341 1.367 1_545 S
C1340 C1348 1.378 . S
C1341 C1340 1.367 1_565 S
C1341 C1349 1.433 . S
C1342 H1338 0.929 . S
C1342 C1344 1.378 . S
C1342 C1346 1.350 1_554 S
C1343 C1346 1.463 . S
C1343 C1348 1.350 . S
C1343 N1351 1.427 . S
C1344 H1335 0.930 . S
C1344 C1342 1.378 . S
C1344 C1345 1.367 . S
C1345 C1344 1.367 . S
C1345 C1347 1.433 . S
C1346 C1342 1.350 1_556 S
C1346 C1343 1.463 . S
C1346 N1350 1.427 . S
C1347 H1337 0.932 . S
C1347 C1345 1.433 . S
C1347 N1350 1.384 1_554 S
C1348 H1339 0.929 . S
C1348 C1340 1.378 . S
C1348 C1343 1.350 . S
C1349 H1336 0.929 . S
C1349 C1341 1.433 . S
C1349 N1351 1.384 1_565 S
N1350 C1346 1.427 . S
N1350 C1347 1.384 1_556 S
N1351 C1343 1.427 . S
N1351 C1349 1.384 1_545 S
H1352 C1358 0.930 . S
H1353 C1362 0.930 . S
H1354 C1367 0.929 . S
H1355 C1365 0.929 . S
H1356 C1360 0.929 . S
H1357 C1366 0.929 . S
C1358 H1352 0.930 . S
C1358 C1359 1.367 . S
C1358 C1366 1.378 . S
C1359 C1358 1.367 . S
C1359 C1367 1.433 . S
C1360 H1356 0.929 . S
C1360 C1362 1.378 . S
C1360 C1364 1.350 . S
C1361 C1364 1.463 . S
C1361 C1366 1.350 . S
C1361 N1369 1.427 . S
C1362 H1353 0.930 . S
C1362 C1360 1.378 . S
C1362 C1363 1.367 . S
C1363 C1362 1.367 . S
C1363 C1365 1.433 . S
C1364 C1360 1.350 . S
C1364 C1361 1.463 . S
C1364 N1368 1.427 . S
C1365 H1355 0.929 . S
C1365 C1363 1.433 . S
C1365 N1368 1.384 . S
C1366 H1357 0.929 . S
C1366 C1358 1.378 . S
C1366 C1361 1.350 . S
C1367 H1354 0.929 . S
C1367 C1359 1.433 . S
C1367 N1369 1.384 . S
N1368 C1364 1.427 . S
N1368 C1365 1.384 . S
N1369 C1361 1.427 . S
N1369 C1367 1.384 . S
H1370 C1376 0.930 . S
H1371 C1380 0.930 . S
H1372 C1385 0.929 . S
H1373 C1383 0.927 1_545 S
H1374 C1378 0.929 . S
H1375 C1384 0.929 . S
C1376 H1370 0.930 . S
C1376 C1377 1.367 . S
C1376 C1384 1.378 . S
C1377 C1376 1.367 . S
C1377 C1385 1.433 . S
C1378 H1374 0.929 . S
C1378 C1380 1.378 1_565 S
C1378 C1382 1.350 . S
C1379 C1382 1.463 . S
C1379 C1384 1.350 . S
C1379 N1387 1.427 . S
C1380 H1371 0.930 . S
C1380 C1378 1.378 1_545 S
C1380 C1381 1.367 . S
C1381 C1380 1.367 . S
C1381 C1383 1.431 1_545 S
C1382 C1378 1.350 . S
C1382 C1379 1.463 . S
C1382 N1386 1.427 . S
C1383 H1373 0.927 1_565 S
C1383 C1381 1.431 1_565 S
C1383 N1386 1.388 . S
C1384 H1375 0.929 . S
C1384 C1376 1.378 . S
C1384 C1379 1.350 . S
C1385 H1372 0.929 . S
C1385 C1377 1.433 . S
C1385 N1387 1.384 . S
N1386 C1382 1.427 . S
N1386 C1383 1.388 . S
N1387 C1379 1.427 . S
N1387 C1385 1.384 . S
H1388 C1394 0.930 . S
H1389 C1398 0.930 . S
H1390 C1403 0.929 . S
H1391 C1401 0.929 . S
H1392 C1396 0.929 . S
H1393 C1402 0.929 . S
C1394 H1388 0.930 . S
C1394 C1395 1.367 . S
C1394 C1402 1.378 . S
C1395 C1394 1.367 . S
C1395 C1403 1.433 . S
C1396 H1392 0.929 . S
C1396 C1398 1.378 . S
C1396 C1400 1.350 . S
C1397 C1400 1.463 . S
C1397 C1402 1.350 . S
C1397 N1405 1.427 . S
C1398 H1389 0.930 . S
C1398 C1396 1.378 . S
C1398 C1399 1.367 . S
C1399 C1398 1.367 . S
C1399 C1401 1.433 . S
C1400 C1396 1.350 . S
C1400 C1397 1.463 . S
C1400 N1404 1.427 . S
C1401 H1391 0.929 . S
C1401 C1399 1.433 . S
C1401 N1404 1.384 . S
C1402 H1393 0.929 . S
C1402 C1394 1.378 . S
C1402 C1397 1.350 . S
C1403 H1390 0.929 . S
C1403 C1395 1.433 . S
C1403 N1405 1.384 . S
N1404 C1400 1.427 . S
N1404 C1401 1.384 . S
N1405 C1397 1.427 . S
N1405 C1403 1.384 . S
H1406 C1412 0.930 . S
H1407 C1416 0.930 . S
H1408 C1421 0.929 . S
H1409 C1419 0.929 . S
H1410 C1414 0.929 . S
H1411 C1420 0.929 1_565 S
C1412 H1406 0.930 . S
C1412 C1413 1.367 . S
C1412 C1420 1.378 1_565 S
C1413 C1412 1.367 . S
C1413 C1421 1.433 1_565 S
C1414 H1410 0.929 . S
C1414 C1416 1.378 . S
C1414 C1418 1.350 . S
C1415 C1418 1.463 . S
C1415 C1420 1.350 . S
C1415 N1423 1.427 . S
C1416 H1407 0.930 . S
C1416 C1414 1.378 . S
C1416 C1417 1.367 1_554 S
C1417 C1416 1.367 1_556 S
C1417 C1419 1.433 . S
C1418 C1414 1.350 . S
C1418 C1415 1.463 . S
C1418 N1422 1.427 1_554 S
C1419 H1409 0.929 . S
C1419 C1417 1.433 . S
C1419 N1422 1.384 . S
C1420 H1411 0.929 1_545 S
C1420 C1412 1.378 1_545 S
C1420 C1415 1.350 . S
C1421 H1408 0.929 . S
C1421 C1413 1.433 1_545 S
C1421 N1423 1.384 . S
N1422 C1418 1.427 1_556 S
N1422 C1419 1.384 . S
N1423 C1415 1.427 . S
N1423 C1421 1.384 . S
H1424 C1430 0.930 . S
H1425 C1434 0.930 . S
H1426 C1439 0.929 . S
H1427 C1437 0.929 . S
H1428 C1432 0.929 . S
H1429 C1438 0.929 . S
C1430 H1424 0.930 . S
C1430 C1431 1.367 . S
C1430 C1438 1.378 . S
C1431 C1430 1.367 . S
C1431 C1439 1.433 . S
C1432 H1428 0.929 . S
C1432 C1434 1.378 . S
C1432 C1436 1.350 . S
C1433 C1436 1.463 . S
C1433 C1438 1.350 . S
C1433 N1441 1.427 . S
C1434 H1425 0.930 . S
C1434 C1432 1.378 . S
C1434 C1435 1.367 . S
C1435 C1434 1.367 . S
C1435 C1437 1.433 . S
C1436 C1432 1.350 . S
C1436 C1433 1.463 . S
C1436 N1440 1.427 . S
C1437 H1427 0.929 . S
C1437 C1435 1.433 . S
C1437 N1440 1.384 . S
C1438 H1429 0.929 . S
C1438 C1430 1.378 . S
C1438 C1433 1.350 . S
C1439 H1426 0.929 . S
C1439 C1431 1.433 . S
C1439 N1441 1.384 . S
N1440 C1436 1.427 . S
N1440 C1437 1.384 . S
N1441 C1433 1.427 . S
N1441 C1439 1.384 . S
H1442 C1448 0.930 . S
H1443 C1452 0.930 . S
H1444 C1457 0.929 . S
H1445 C1455 0.929 . S
H1446 C1450 0.928 1_565 S
H1447 C1456 0.929 . S
C1448 H1442 0.930 . S
C1448 C1449 1.367 . S
C1448 C1456 1.378 . S
C1449 C1448 1.367 . S
C1449 C1457 1.433 . S
C1450 H1446 0.928 1_545 S
C1450 C1452 1.378 1_545 S
C1450 C1454 1.350 . S
C1451 C1454 1.463 . S
C1451 C1456 1.350 . S
C1451 N1459 1.427 . S
C1452 H1443 0.930 . S
C1452 C1450 1.378 1_565 S
C1452 C1453 1.367 . S
C1453 C1452 1.367 . S
C1453 C1455 1.433 1_565 S
C1454 C1450 1.350 . S
C1454 C1451 1.463 . S
C1454 N1458 1.427 . S
C1455 H1445 0.929 . S
C1455 C1453 1.433 1_545 S
C1455 N1458 1.384 . S
C1456 H1447 0.929 . S
C1456 C1448 1.378 . S
C1456 C1451 1.350 . S
C1457 H1444 0.929 . S
C1457 C1449 1.433 . S
C1457 N1459 1.384 . S
N1458 C1454 1.427 . S
N1458 C1455 1.384 . S
N1459 C1451 1.427 . S
N1459 C1457 1.384 . S
H1460 C1466 0.930 . S
H1461 C1470 0.930 . S
H1462 C1475 0.929 . S
H1463 C1473 0.929 . S
H1464 C1468 0.929 . S
H1465 C1474 0.929 . S
C1466 H1460 0.930 . S
C1466 C1467 1.367 . S
C1466 C1474 1.378 . S
C1467 C1466 1.367 . S
C1467 C1475 1.433 . S
C1468 H1464 0.929 . S
C1468 C1470 1.378 . S
C1468 C1472 1.350 . S
C1469 C1472 1.463 . S
C1469 C1474 1.350 . S
C1469 N1477 1.427 . S
C1470 H1461 0.930 . S
C1470 C1468 1.378 . S
C1470 C1471 1.367 . S
C1471 C1470 1.367 . S
C1471 C1473 1.433 . S
C1472 C1468 1.350 . S
C1472 C1469 1.463 . S
C1472 N1476 1.427 . S
C1473 H1463 0.929 . S
C1473 C1471 1.433 . S
C1473 N1476 1.384 . S
C1474 H1465 0.929 . S
C1474 C1466 1.378 . S
C1474 C1469 1.350 . S
C1475 H1462 0.929 . S
C1475 C1467 1.433 . S
C1475 N1477 1.384 . S
N1476 C1472 1.427 . S
N1476 C1473 1.384 . S
N1477 C1469 1.427 . S
N1477 C1475 1.384 . S
H1478 C1484 0.930 . S
H1479 C1488 0.930 . S
H1480 C1493 0.929 . S
H1481 C1491 0.929 . S
H1482 C1486 0.929 . S
H1483 C1492 0.929 . S
C1484 H1478 0.930 . S
C1484 C1485 1.367 1_554 S
C1484 C1492 1.378 . S
C1485 C1484 1.367 1_556 S
C1485 C1493 1.433 . S
C1486 H1482 0.929 . S
C1486 C1488 1.378 1_565 S
C1486 C1490 1.350 . S
C1487 C1490 1.463 . S
C1487 C1492 1.350 . S
C1487 N1495 1.427 1_554 S
C1488 H1479 0.930 . S
C1488 C1486 1.378 1_545 S
C1488 C1489 1.367 . S
C1489 C1488 1.367 . S
C1489 C1491 1.433 1_545 S
C1490 C1486 1.350 . S
C1490 C1487 1.463 . S
C1490 N1494 1.427 . S
C1491 H1481 0.929 . S
C1491 C1489 1.433 1_565 S
C1491 N1494 1.384 . S
C1492 H1483 0.929 . S
C1492 C1484 1.378 . S
C1492 C1487 1.350 . S
C1493 H1480 0.929 . S
C1493 C1485 1.433 . S
C1493 N1495 1.384 . S
N1494 C1490 1.427 . S
N1494 C1491 1.384 . S
N1495 C1487 1.427 1_556 S
N1495 C1493 1.384 . S
H1496 C1502 0.930 . S
H1497 C1506 0.930 . S
H1498 C1511 0.929 . S
H1499 C1509 0.929 . S
H1500 C1504 0.929 . S
H1501 C1510 0.929 . S
C1502 H1496 0.930 . S
C1502 C1503 1.367 . S
C1502 C1510 1.378 . S
C1503 C1502 1.367 . S
C1503 C1511 1.433 . S
C1504 H1500 0.929 . S
C1504 C1506 1.378 . S
C1504 C1508 1.350 . S
C1505 C1508 1.463 . S
C1505 C1510 1.350 . S
C1505 N1513 1.427 . S
C1506 H1497 0.930 . S
C1506 C1504 1.378 . S
C1506 C1507 1.367 . S
C1507 C1506 1.367 . S
C1507 C1509 1.433 . S
C1508 C1504 1.350 . S
C1508 C1505 1.463 . S
C1508 N1512 1.427 . S
C1509 H1499 0.929 . S
C1509 C1507 1.433 . S
C1509 N1512 1.384 . S
C1510 H1501 0.929 . S
C1510 C1502 1.378 . S
C1510 C1505 1.350 . S
C1511 H1498 0.929 . S
C1511 C1503 1.433 . S
C1511 N1513 1.384 . S
N1512 C1508 1.427 . S
N1512 C1509 1.384 . S
N1513 C1505 1.427 . S
N1513 C1511 1.384 . S
H1514 C1520 0.930 . S
H1515 C1524 0.930 . S
H1516 C1529 0.929 . S
H1517 C1527 0.929 . S
H1518 C1522 0.929 . S
H1519 C1528 0.929 . S
C1520 H1514 0.930 . S
C1520 C1521 1.367 . S
C1520 C1528 1.378 . S
C1521 C1520 1.367 . S
C1521 C1529 1.433 . S
C1522 H1518 0.929 . S
C1522 C1524 1.378 . S
C1522 C1526 1.350 . S
C1523 C1526 1.463 . S
C1523 C1528 1.350 . S
C1523 N1531 1.427 . S
C1524 H1515 0.930 . S
C1524 C1522 1.378 . S
C1524 C1525 1.367 1_545 S
C1525 C1524 1.367 1_565 S
C1525 C1527 1.433 . S
C1526 C1522 1.350 . S
C1526 C1523 1.463 . S
C1526 N1530 1.427 . S
C1527 H1517 0.929 . S
C1527 C1525 1.433 . S
C1527 N1530 1.384 1_565 S
C1528 H1519 0.929 . S
C1528 C1520 1.378 . S
C1528 C1523 1.350 . S
C1529 H1516 0.929 . S
C1529 C1521 1.433 . S
C1529 N1531 1.384 . S
N1530 C1526 1.427 . S
N1530 C1527 1.384 1_545 S
N1531 C1523 1.427 . S
N1531 C1529 1.384 . S
H1532 C1538 0.930 . S
H1533 C1542 0.930 . S
H1534 C1547 0.929 . S
H1535 C1545 0.929 . S
H1536 C1540 0.929 . S
H1537 C1546 0.929 . S
C1538 H1532 0.930 . S
C1538 C1539 1.367 . S
C1538 C1546 1.378 . S
C1539 C1538 1.367 . S
C1539 C1547 1.433 . S
C1540 H1536 0.929 . S
C1540 C1542 1.378 . S
C1540 C1544 1.350 . S
C1541 C1544 1.463 . S
C1541 C1546 1.350 . S
C1541 N1549 1.427 . S
C1542 H1533 0.930 . S
C1542 C1540 1.378 . S
C1542 C1543 1.367 . S
C1543 C1542 1.367 . S
C1543 C1545 1.433 . S
C1544 C1540 1.350 . S
C1544 C1541 1.463 . S
C1544 N1548 1.427 . S
C1545 H1535 0.929 . S
C1545 C1543 1.433 . S
C1545 N1548 1.384 . S
C1546 H1537 0.929 . S
C1546 C1538 1.378 . S
C1546 C1541 1.350 . S
C1547 H1534 0.929 . S
C1547 C1539 1.433 . S
C1547 N1549 1.384 . S
N1548 C1544 1.427 . S
N1548 C1545 1.384 . S
N1549 C1541 1.427 . S
N1549 C1547 1.384 . S
H1550 C1556 0.930 . S
H1551 C1560 0.930 . S
H1552 C1565 0.942 . S
H1553 C1563 0.929 . S
H1554 C1558 0.929 . S
H1555 C1564 0.929 . S
C1556 H1550 0.930 . S
C1556 C1557 1.367 . S
C1556 C1564 1.378 1_545 S
C1557 C1556 1.367 . S
C1557 C1565 1.447 . S
C1558 H1554 0.929 . S
C1558 C1560 1.378 1_556 S
C1558 C1562 1.350 . S
C1559 C1562 1.463 . S
C1559 C1564 1.350 . S
C1559 N1567 1.427 . S
C1560 H1551 0.930 . S
C1560 C1558 1.378 1_554 S
C1560 C1561 1.367 . S
C1561 C1560 1.367 . S
C1561 C1563 1.433 . S
C1562 C1558 1.350 . S
C1562 C1559 1.463 . S
C1562 N1566 1.427 1_556 S
C1563 H1553 0.929 . S
C1563 C1561 1.433 . S
C1563 N1566 1.384 . S
C1564 H1555 0.929 . S
C1564 C1556 1.378 1_565 S
C1564 C1559 1.350 . S
C1565 H1552 0.942 . S
C1565 C1557 1.447 . S
C1565 N1567 1.358 1_545 S
N1566 C1562 1.427 1_554 S
N1566 C1563 1.384 . S
N1567 C1559 1.427 . S
N1567 C1565 1.358 1_565 S
H1568 C1574 0.930 . S
H1569 C1578 0.930 . S
H1570 C1583 0.929 . S
H1571 C1581 0.929 . S
H1572 C1576 0.929 . S
H1573 C1582 0.929 . S
C1574 H1568 0.930 . S
C1574 C1575 1.367 . S
C1574 C1582 1.378 . S
C1575 C1574 1.367 . S
C1575 C1583 1.433 . S
C1576 H1572 0.929 . S
C1576 C1578 1.378 . S
C1576 C1580 1.350 . S
C1577 C1580 1.463 . S
C1577 C1582 1.350 . S
C1577 N1585 1.427 . S
C1578 H1569 0.930 . S
C1578 C1576 1.378 . S
C1578 C1579 1.367 . S
C1579 C1578 1.367 . S
C1579 C1581 1.433 . S
C1580 C1576 1.350 . S
C1580 C1577 1.463 . S
C1580 N1584 1.427 . S
C1581 H1571 0.929 . S
C1581 C1579 1.433 . S
C1581 N1584 1.384 . S
C1582 H1573 0.929 . S
C1582 C1574 1.378 . S
C1582 C1577 1.350 . S
C1583 H1570 0.929 . S
C1583 C1575 1.433 . S
C1583 N1585 1.384 . S
N1584 C1580 1.427 . S
N1584 C1581 1.384 . S
N1585 C1577 1.427 . S
N1585 C1583 1.384 . S
H1586 C1592 0.930 . S
H1587 C1596 0.930 . S
H1588 C1601 0.929 . S
H1589 C1599 0.929 . S
H1590 C1594 0.929 . S
H1591 C1600 0.929 . S
C1592 H1586 0.930 . S
C1592 C1593 1.367 . S
C1592 C1600 1.378 . S
C1593 C1592 1.367 . S
C1593 C1601 1.433 . S
C1594 H1590 0.929 . S
C1594 C1596 1.378 1_556 S
C1594 C1598 1.350 . S
C1595 C1598 1.463 . S
C1595 C1600 1.350 . S
C1595 N1603 1.427 . S
C1596 H1587 0.930 . S
C1596 C1594 1.378 1_554 S
C1596 C1597 1.367 . S
C1597 C1596 1.367 . S
C1597 C1599 1.433 . S
C1598 C1594 1.350 . S
C1598 C1595 1.463 . S
C1598 N1602 1.427 1_556 S
C1599 H1589 0.929 . S
C1599 C1597 1.433 . S
C1599 N1602 1.384 . S
C1600 H1591 0.929 . S
C1600 C1592 1.378 . S
C1600 C1595 1.350 . S
C1601 H1588 0.929 . S
C1601 C1593 1.433 . S
C1601 N1603 1.384 . S
N1602 C1598 1.427 1_554 S
N1602 C1599 1.384 . S
N1603 C1595 1.427 . S
N1603 C1601 1.384 . S
H1604 C1610 0.930 . S
H1605 C1614 0.930 . S
H1606 C1619 0.929 . S
H1607 C1617 0.929 . S
H1608 C1612 0.929 . S
H1609 C1618 0.929 . S
C1610 H1604 0.930 . S
C1610 C1611 1.367 . S
C1610 C1618 1.378 . S
C1611 C1610 1.367 . S
C1611 C1619 1.433 . S
C1612 H1608 0.929 . S
C1612 C1614 1.378 . S
C1612 C1616 1.350 . S
C1613 C1616 1.463 . S
C1613 C1618 1.350 . S
C1613 N1621 1.427 . S
C1614 H1605 0.930 . S
C1614 C1612 1.378 . S
C1614 C1615 1.367 . S
C1615 C1614 1.367 . S
C1615 C1617 1.433 . S
C1616 C1612 1.350 . S
C1616 C1613 1.463 . S
C1616 N1620 1.427 . S
C1617 H1607 0.929 . S
C1617 C1615 1.433 . S
C1617 N1620 1.384 . S
C1618 H1609 0.929 . S
C1618 C1610 1.378 . S
C1618 C1613 1.350 . S
C1619 H1606 0.929 . S
C1619 C1611 1.433 . S
C1619 N1621 1.384 . S
N1620 C1616 1.427 . S
N1620 C1617 1.384 . S
N1621 C1613 1.427 . S
N1621 C1619 1.384 . S
H1622 C1628 0.930 . S
H1623 C1632 0.930 . S
H1624 C1637 0.929 . S
H1625 C1635 0.929 . S
H1626 C1630 0.929 . S
H1627 C1636 0.929 . S
C1628 H1622 0.930 . S
C1628 C1629 1.367 . S
C1628 C1636 1.378 . S
C1629 C1628 1.367 . S
C1629 C1637 1.433 . S
C1630 H1626 0.929 . S
C1630 C1632 1.378 . S
C1630 C1634 1.350 . S
C1631 C1634 1.463 . S
C1631 C1636 1.350 . S
C1631 N1639 1.427 . S
C1632 H1623 0.930 . S
C1632 C1630 1.378 . S
C1632 C1633 1.367 . S
C1633 C1632 1.367 . S
C1633 C1635 1.433 . S
C1634 C1630 1.350 . S
C1634 C1631 1.463 . S
C1634 N1638 1.427 . S
C1635 H1625 0.929 . S
C1635 C1633 1.433 . S
C1635 N1638 1.384 . S
C1636 H1627 0.929 . S
C1636 C1628 1.378 . S
C1636 C1631 1.350 . S
C1637 H1624 0.929 . S
C1637 C1629 1.433 . S
C1637 N1639 1.384 . S
N1638 C1634 1.427 . S
N1638 C1635 1.384 . S
N1639 C1631 1.427 . S
N1639 C1637 1.384 . S
H1640 C1646 0.930 . S
H1641 C1650 0.930 . S
H1642 C1655 0.929 . S
H1643 C1653 0.929 . S
H1644 C1648 0.929 . S
H1645 C1654 0.929 . S
C1646 H1640 0.930 . S
C1646 C1647 1.367 . S
C1646 C1654 1.378 . S
C1647 C1646 1.367 . S
C1647 C1655 1.433 . S
C1648 H1644 0.929 . S
C1648 C1650 1.378 . S
C1648 C1652 1.350 . S
C1649 C1652 1.463 . S
C1649 C1654 1.350 . S
C1649 N1657 1.427 . S
C1650 H1641 0.930 . S
C1650 C1648 1.378 . S
C1650 C1651 1.367 . S
C1651 C1650 1.367 . S
C1651 C1653 1.433 . S
C1652 C1648 1.350 . S
C1652 C1649 1.463 . S
C1652 N1656 1.427 . S
C1653 H1643 0.929 . S
C1653 C1651 1.433 . S
C1653 N1656 1.384 . S
C1654 H1645 0.929 . S
C1654 C1646 1.378 . S
C1654 C1649 1.350 . S
C1655 H1642 0.929 . S
C1655 C1647 1.433 . S
C1655 N1657 1.384 . S
N1656 C1652 1.427 . S
N1656 C1653 1.384 . S
N1657 C1649 1.427 . S
N1657 C1655 1.384 . S
H1658 C1664 0.930 . S
H1659 C1668 0.930 . S
H1660 C1673 0.929 . S
H1661 C1671 0.929 . S
H1662 C1666 0.929 . S
H1663 C1672 0.929 . S
C1664 H1658 0.930 . S
C1664 C1665 1.367 . S
C1664 C1672 1.378 . S
C1665 C1664 1.367 . S
C1665 C1673 1.433 . S
C1666 H1662 0.929 . S
C1666 C1668 1.378 . S
C1666 C1670 1.350 . S
C1667 C1670 1.463 . S
C1667 C1672 1.350 . S
C1667 N1675 1.427 . S
C1668 H1659 0.930 . S
C1668 C1666 1.378 . S
C1668 C1669 1.367 1_554 S
C1669 C1668 1.367 1_556 S
C1669 C1671 1.433 . S
C1670 C1666 1.350 . S
C1670 C1667 1.463 . S
C1670 N1674 1.427 1_554 S
C1671 H1661 0.929 . S
C1671 C1669 1.433 . S
C1671 N1674 1.384 . S
C1672 H1663 0.929 . S
C1672 C1664 1.378 . S
C1672 C1667 1.350 . S
C1673 H1660 0.929 . S
C1673 C1665 1.433 . S
C1673 N1675 1.384 . S
N1674 C1670 1.427 1_556 S
N1674 C1671 1.384 . S
N1675 C1667 1.427 . S
N1675 C1673 1.384 . S
H1676 C1682 0.930 . S
H1677 C1686 0.930 . S
H1678 C1691 0.929 . S
H1679 C1689 0.929 . S
H1680 C1684 0.929 . S
H1681 C1690 0.929 . S
C1682 H1676 0.930 . S
C1682 C1683 1.367 . S
C1682 C1690 1.378 . S
C1683 C1682 1.367 . S
C1683 C1691 1.433 . S
C1684 H1680 0.929 . S
C1684 C1686 1.378 . S
C1684 C1688 1.350 . S
C1685 C1688 1.463 . S
C1685 C1690 1.350 . S
C1685 N1693 1.427 . S
C1686 H1677 0.930 . S
C1686 C1684 1.378 . S
C1686 C1687 1.367 . S
C1687 C1686 1.367 . S
C1687 C1689 1.433 . S
C1688 C1684 1.350 . S
C1688 C1685 1.463 . S
C1688 N1692 1.427 . S
C1689 H1679 0.929 . S
C1689 C1687 1.433 . S
C1689 N1692 1.384 . S
C1690 H1681 0.929 . S
C1690 C1682 1.378 . S
C1690 C1685 1.350 . S
C1691 H1678 0.929 . S
C1691 C1683 1.433 . S
C1691 N1693 1.384 . S
N1692 C1688 1.427 . S
N1692 C1689 1.384 . S
N1693 C1685 1.427 . S
N1693 C1691 1.384 . S
H1694 C1700 0.930 . S
H1695 C1704 0.930 . S
H1696 C1709 0.929 . S
H1697 C1707 0.929 . S
H1698 C1702 0.929 . S
H1699 C1708 0.929 . S
C1700 H1694 0.930 . S
C1700 C1701 1.367 . S
C1700 C1708 1.378 . S
C1701 C1700 1.367 . S
C1701 C1709 1.433 . S
C1702 H1698 0.929 . S
C1702 C1704 1.378 . S
C1702 C1706 1.350 . S
C1703 C1706 1.463 . S
C1703 C1708 1.350 . S
C1703 N1711 1.427 . S
C1704 H1695 0.930 . S
C1704 C1702 1.378 . S
C1704 C1705 1.367 . S
C1705 C1704 1.367 . S
C1705 C1707 1.433 . S
C1706 C1702 1.350 . S
C1706 C1703 1.463 . S
C1706 N1710 1.427 . S
C1707 H1697 0.929 . S
C1707 C1705 1.433 . S
C1707 N1710 1.384 . S
C1708 H1699 0.929 . S
C1708 C1700 1.378 . S
C1708 C1703 1.350 . S
C1709 H1696 0.929 . S
C1709 C1701 1.433 . S
C1709 N1711 1.384 . S
N1710 C1706 1.427 . S
N1710 C1707 1.384 . S
N1711 C1703 1.427 . S
N1711 C1709 1.384 . S
H1712 C1718 0.930 . S
H1713 C1722 0.930 . S
H1714 C1727 0.929 . S
H1715 C1725 0.929 . S
H1716 C1720 0.929 . S
H1717 C1726 0.929 . S
C1718 H1712 0.930 . S
C1718 C1719 1.367 . S
C1718 C1726 1.378 . S
C1719 C1718 1.367 . S
C1719 C1727 1.433 . S
C1720 H1716 0.929 . S
C1720 C1722 1.378 . S
C1720 C1724 1.350 . S
C1721 C1724 1.463 . S
C1721 C1726 1.350 . S
C1721 N1729 1.427 . S
C1722 H1713 0.930 . S
C1722 C1720 1.378 . S
C1722 C1723 1.367 . S
C1723 C1722 1.367 . S
C1723 C1725 1.433 . S
C1724 C1720 1.350 . S
C1724 C1721 1.463 . S
C1724 N1728 1.427 . S
C1725 H1715 0.929 . S
C1725 C1723 1.433 . S
C1725 N1728 1.384 . S
C1726 H1717 0.929 . S
C1726 C1718 1.378 . S
C1726 C1721 1.350 . S
C1727 H1714 0.929 . S
C1727 C1719 1.433 . S
C1727 N1729 1.384 . S
N1728 C1724 1.427 . S
N1728 C1725 1.384 . S
N1729 C1721 1.427 . S
N1729 C1727 1.384 . S
H1730 C1736 0.930 . S
H1731 C1740 0.930 . S
H1732 C1745 0.929 . S
H1733 C1743 0.929 . S
H1734 C1738 0.929 . S
H1735 C1744 0.929 . S
C1736 H1730 0.930 . S
C1736 C1737 1.367 . S
C1736 C1744 1.378 . S
C1737 C1736 1.367 . S
C1737 C1745 1.433 . S
C1738 H1734 0.929 . S
C1738 C1740 1.378 . S
C1738 C1742 1.350 . S
C1739 C1742 1.463 . S
C1739 C1744 1.350 . S
C1739 N1747 1.427 . S
C1740 H1731 0.930 . S
C1740 C1738 1.378 . S
C1740 C1741 1.367 1_554 S
C1741 C1740 1.367 1_556 S
C1741 C1743 1.433 . S
C1742 C1738 1.350 . S
C1742 C1739 1.463 . S
C1742 N1746 1.427 1_554 S
C1743 H1733 0.929 . S
C1743 C1741 1.433 . S
C1743 N1746 1.384 . S
C1744 H1735 0.929 . S
C1744 C1736 1.378 . S
C1744 C1739 1.350 . S
C1745 H1732 0.929 . S
C1745 C1737 1.433 . S
C1745 N1747 1.384 . S
N1746 C1742 1.427 1_556 S
N1746 C1743 1.384 . S
N1747 C1739 1.427 . S
N1747 C1745 1.384 . S
H1748 C1754 0.930 . S
H1749 C1758 0.930 . S
H1750 C1763 0.929 . S
H1751 C1761 0.929 . S
H1752 C1756 0.929 . S
H1753 C1762 0.929 . S
C1754 H1748 0.930 . S
C1754 C1755 1.367 . S
C1754 C1762 1.378 . S
C1755 C1754 1.367 . S
C1755 C1763 1.433 . S
C1756 H1752 0.929 . S
C1756 C1758 1.378 . S
C1756 C1760 1.350 . S
C1757 C1760 1.463 . S
C1757 C1762 1.350 . S
C1757 N1765 1.427 . S
C1758 H1749 0.930 . S
C1758 C1756 1.378 . S
C1758 C1759 1.367 . S
C1759 C1758 1.367 . S
C1759 C1761 1.433 . S
C1760 C1756 1.350 . S
C1760 C1757 1.463 . S
C1760 N1764 1.427 . S
C1761 H1751 0.929 . S
C1761 C1759 1.433 . S
C1761 N1764 1.384 . S
C1762 H1753 0.929 . S
C1762 C1754 1.378 . S
C1762 C1757 1.350 . S
C1763 H1750 0.929 . S
C1763 C1755 1.433 . S
C1763 N1765 1.384 . S
N1764 C1760 1.427 . S
N1764 C1761 1.384 . S
N1765 C1757 1.427 . S
N1765 C1763 1.384 . S
H1766 C1772 0.930 . S
H1767 C1776 0.930 . S
H1768 C1781 0.929 . S
H1769 C1779 0.929 . S
H1770 C1774 0.929 . S
H1771 C1780 0.929 . S
C1772 H1766 0.930 . S
C1772 C1773 1.367 . S
C1772 C1780 1.378 . S
C1773 C1772 1.367 . S
C1773 C1781 1.433 . S
C1774 H1770 0.929 . S
C1774 C1776 1.378 . S
C1774 C1778 1.350 . S
C1775 C1778 1.463 . S
C1775 C1780 1.350 . S
C1775 N1783 1.427 . S
C1776 H1767 0.930 . S
C1776 C1774 1.378 . S
C1776 C1777 1.367 . S
C1777 C1776 1.367 . S
C1777 C1779 1.433 . S
C1778 C1774 1.350 . S
C1778 C1775 1.463 . S
C1778 N1782 1.427 . S
C1779 H1769 0.929 . S
C1779 C1777 1.433 . S
C1779 N1782 1.384 . S
C1780 H1771 0.929 . S
C1780 C1772 1.378 . S
C1780 C1775 1.350 . S
C1781 H1768 0.929 . S
C1781 C1773 1.433 . S
C1781 N1783 1.384 . S
N1782 C1778 1.427 . S
N1782 C1779 1.384 . S
N1783 C1775 1.427 . S
N1783 C1781 1.384 . S
H1784 C1790 0.930 . S
H1785 C1794 0.930 . S
H1786 C1799 0.929 . S
H1787 C1797 0.929 . S
H1788 C1792 0.929 . S
H1789 C1798 0.929 . S
C1790 H1784 0.930 . S
C1790 C1791 1.367 . S
C1790 C1798 1.378 . S
C1791 C1790 1.367 . S
C1791 C1799 1.433 . S
C1792 H1788 0.929 . S
C1792 C1794 1.378 . S
C1792 C1796 1.350 . S
C1793 C1796 1.463 . S
C1793 C1798 1.350 . S
C1793 N1801 1.427 . S
C1794 H1785 0.930 . S
C1794 C1792 1.378 . S
C1794 C1795 1.367 . S
C1795 C1794 1.367 . S
C1795 C1797 1.433 . S
C1796 C1792 1.350 . S
C1796 C1793 1.463 . S
C1796 N1800 1.427 . S
C1797 H1787 0.929 . S
C1797 C1795 1.433 . S
C1797 N1800 1.384 . S
C1798 H1789 0.929 . S
C1798 C1790 1.378 . S
C1798 C1793 1.350 . S
C1799 H1786 0.929 . S
C1799 C1791 1.433 . S
C1799 N1801 1.384 . S
N1800 C1796 1.427 . S
N1800 C1797 1.384 . S
N1801 C1793 1.427 . S
N1801 C1799 1.384 . S
H1802 C1808 0.930 . S
H1803 C1812 0.930 . S
H1804 C1817 0.929 . S
H1805 C1815 0.926 1_556 S
H1806 C1810 0.929 . S
H1807 C1816 0.929 . S
C1808 H1802 0.930 . S
C1808 C1809 1.367 . S
C1808 C1816 1.378 . S
C1809 C1808 1.367 . S
C1809 C1817 1.433 . S
C1810 H1806 0.929 . S
C1810 C1812 1.378 . S
C1810 C1814 1.350 1_554 S
C1811 C1814 1.463 . S
C1811 C1816 1.350 . S
C1811 N1819 1.427 . S
C1812 H1803 0.930 . S
C1812 C1810 1.378 . S
C1812 C1813 1.367 . S
C1813 C1812 1.367 . S
C1813 C1815 1.449 . S
C1814 C1810 1.350 1_556 S
C1814 C1811 1.463 . S
C1814 N1818 1.427 . S
C1815 H1805 0.926 1_554 S
C1815 C1813 1.449 . S
C1815 N1818 1.371 1_554 S
C1816 H1807 0.929 . S
C1816 C1808 1.378 . S
C1816 C1811 1.350 . S
C1817 H1804 0.929 . S
C1817 C1809 1.433 . S
C1817 N1819 1.384 . S
N1818 C1814 1.427 . S
N1818 C1815 1.371 1_556 S
N1819 C1811 1.427 . S
N1819 C1817 1.384 . S
H1820 C1826 0.930 . S
H1821 C1830 0.930 . S
H1822 C1835 0.929 . S
H1823 C1833 0.929 . S
H1824 C1828 0.929 . S
H1825 C1834 0.929 . S
C1826 H1820 0.930 . S
C1826 C1827 1.367 . S
C1826 C1834 1.378 . S
C1827 C1826 1.367 . S
C1827 C1835 1.433 . S
C1828 H1824 0.929 . S
C1828 C1830 1.378 . S
C1828 C1832 1.350 . S
C1829 C1832 1.463 . S
C1829 C1834 1.350 . S
C1829 N1837 1.427 . S
C1830 H1821 0.930 . S
C1830 C1828 1.378 . S
C1830 C1831 1.367 . S
C1831 C1830 1.367 . S
C1831 C1833 1.433 . S
C1832 C1828 1.350 . S
C1832 C1829 1.463 . S
C1832 N1836 1.427 . S
C1833 H1823 0.929 . S
C1833 C1831 1.433 . S
C1833 N1836 1.384 . S
C1834 H1825 0.929 . S
C1834 C1826 1.378 . S
C1834 C1829 1.350 . S
C1835 H1822 0.929 . S
C1835 C1827 1.433 . S
C1835 N1837 1.384 . S
N1836 C1832 1.427 . S
N1836 C1833 1.384 . S
N1837 C1829 1.427 . S
N1837 C1835 1.384 . S
H1838 C1844 0.930 . S
H1839 C1848 0.930 . S
H1840 C1853 0.929 . S
H1841 C1851 0.929 . S
H1842 C1846 0.929 . S
H1843 C1852 0.929 . S
C1844 H1838 0.930 . S
C1844 C1845 1.367 . S
C1844 C1852 1.378 . S
C1845 C1844 1.367 . S
C1845 C1853 1.433 . S
C1846 H1842 0.929 . S
C1846 C1848 1.378 . S
C1846 C1850 1.350 . S
C1847 C1850 1.463 . S
C1847 C1852 1.350 . S
C1847 N1855 1.427 . S
C1848 H1839 0.930 . S
C1848 C1846 1.378 . S
C1848 C1849 1.367 . S
C1849 C1848 1.367 . S
C1849 C1851 1.433 . S
C1850 C1846 1.350 . S
C1850 C1847 1.463 . S
C1850 N1854 1.427 . S
C1851 H1841 0.929 . S
C1851 C1849 1.433 . S
C1851 N1854 1.384 . S
C1852 H1843 0.929 . S
C1852 C1844 1.378 . S
C1852 C1847 1.350 . S
C1853 H1840 0.929 . S
C1853 C1845 1.433 . S
C1853 N1855 1.384 . S
N1854 C1850 1.427 . S
N1854 C1851 1.384 . S
N1855 C1847 1.427 . S
N1855 C1853 1.384 . S
H1856 C1862 0.930 . S
H1857 C1866 0.930 . S
H1858 C1871 0.929 . S
H1859 C1869 0.929 . S
H1860 C1864 0.929 . S
H1861 C1870 0.929 . S
C1862 H1856 0.930 . S
C1862 C1863 1.367 . S
C1862 C1870 1.378 . S
C1863 C1862 1.367 . S
C1863 C1871 1.433 . S
C1864 H1860 0.929 . S
C1864 C1866 1.378 . S
C1864 C1868 1.350 . S
C1865 C1868 1.463 . S
C1865 C1870 1.350 . S
C1865 N1873 1.427 . S
C1866 H1857 0.930 . S
C1866 C1864 1.378 . S
C1866 C1867 1.367 . S
C1867 C1866 1.367 . S
C1867 C1869 1.433 . S
C1868 C1864 1.350 . S
C1868 C1865 1.463 . S
C1868 N1872 1.427 . S
C1869 H1859 0.929 . S
C1869 C1867 1.433 . S
C1869 N1872 1.384 . S
C1870 H1861 0.929 . S
C1870 C1862 1.378 . S
C1870 C1865 1.350 . S
C1871 H1858 0.929 . S
C1871 C1863 1.433 . S
C1871 N1873 1.384 . S
N1872 C1868 1.427 . S
N1872 C1869 1.384 . S
N1873 C1865 1.427 . S
N1873 C1871 1.384 . S
H1874 C1880 0.930 . S
H1875 C1884 0.930 . S
H1876 C1889 0.929 . S
H1877 C1887 0.929 . S
H1878 C1882 0.929 1_455 S
H1879 C1888 0.929 . S
C1880 H1874 0.930 . S
C1880 C1881 1.367 . S
C1880 C1888 1.378 . S
C1881 C1880 1.367 . S
C1881 C1889 1.433 . S
C1882 H1878 0.929 1_655 S
C1882 C1884 1.378 . S
C1882 C1886 1.350 1_655 S
C1883 C1886 1.463 . S
C1883 C1888 1.350 . S
C1883 N1891 1.427 . S
C1884 H1875 0.930 . S
C1884 C1882 1.378 . S
C1884 C1885 1.367 . S
C1885 C1884 1.367 . S
C1885 C1887 1.433 . S
C1886 C1882 1.350 1_455 S
C1886 C1883 1.463 . S
C1886 N1890 1.427 . S
C1887 H1877 0.929 . S
C1887 C1885 1.433 . S
C1887 N1890 1.384 1_655 S
C1888 H1879 0.929 . S
C1888 C1880 1.378 . S
C1888 C1883 1.350 . S
C1889 H1876 0.929 . S
C1889 C1881 1.433 . S
C1889 N1891 1.384 . S
N1890 C1886 1.427 . S
N1890 C1887 1.384 1_455 S
N1891 C1883 1.427 . S
N1891 C1889 1.384 . S
H1892 C1898 0.930 . S
H1893 C1902 0.930 . S
H1894 C1907 0.929 . S
H1895 C1905 0.929 . S
H1896 C1900 0.929 . S
H1897 C1906 0.929 . S
C1898 H1892 0.930 . S
C1898 C1899 1.367 . S
C1898 C1906 1.378 . S
C1899 C1898 1.367 . S
C1899 C1907 1.433 . S
C1900 H1896 0.929 . S
C1900 C1902 1.378 . S
C1900 C1904 1.350 . S
C1901 C1904 1.463 . S
C1901 C1906 1.350 . S
C1901 N1909 1.427 . S
C1902 H1893 0.930 . S
C1902 C1900 1.378 . S
C1902 C1903 1.367 . S
C1903 C1902 1.367 . S
C1903 C1905 1.433 . S
C1904 C1900 1.350 . S
C1904 C1901 1.463 . S
C1904 N1908 1.427 . S
C1905 H1895 0.929 . S
C1905 C1903 1.433 . S
C1905 N1908 1.384 . S
C1906 H1897 0.929 . S
C1906 C1898 1.378 . S
C1906 C1901 1.350 . S
C1907 H1894 0.929 . S
C1907 C1899 1.433 . S
C1907 N1909 1.384 . S
N1908 C1904 1.427 . S
N1908 C1905 1.384 . S
N1909 C1901 1.427 . S
N1909 C1907 1.384 . S
H1910 C1916 0.930 . S
H1911 C1920 0.930 . S
H1912 C1925 0.929 . S
H1913 C1923 0.929 . S
H1914 C1918 0.929 . S
H1915 C1924 0.929 . S
C1916 H1910 0.930 . S
C1916 C1917 1.367 . S
C1916 C1924 1.378 . S
C1917 C1916 1.367 . S
C1917 C1925 1.433 . S
C1918 H1914 0.929 . S
C1918 C1920 1.378 . S
C1918 C1922 1.350 . S
C1919 C1922 1.463 . S
C1919 C1924 1.350 . S
C1919 N1927 1.427 . S
C1920 H1911 0.930 . S
C1920 C1918 1.378 . S
C1920 C1921 1.367 . S
C1921 C1920 1.367 . S
C1921 C1923 1.433 . S
C1922 C1918 1.350 . S
C1922 C1919 1.463 . S
C1922 N1926 1.427 . S
C1923 H1913 0.929 . S
C1923 C1921 1.433 . S
C1923 N1926 1.384 . S
C1924 H1915 0.929 . S
C1924 C1916 1.378 . S
C1924 C1919 1.350 . S
C1925 H1912 0.929 . S
C1925 C1917 1.433 . S
C1925 N1927 1.384 . S
N1926 C1922 1.427 . S
N1926 C1923 1.384 . S
N1927 C1919 1.427 . S
N1927 C1925 1.384 . S
H1928 C1934 0.930 . S
H1929 C1938 0.930 . S
H1930 C1943 0.929 . S
H1931 C1941 0.929 . S
H1932 C1936 0.929 . S
H1933 C1942 0.929 . S
C1934 H1928 0.930 . S
C1934 C1935 1.367 . S
C1934 C1942 1.378 . S
C1935 C1934 1.367 . S
C1935 C1943 1.433 . S
C1936 H1932 0.929 . S
C1936 C1938 1.378 . S
C1936 C1940 1.350 . S
C1937 C1940 1.463 . S
C1937 C1942 1.350 . S
C1937 N1945 1.427 . S
C1938 H1929 0.930 . S
C1938 C1936 1.378 . S
C1938 C1939 1.367 . S
C1939 C1938 1.367 . S
C1939 C1941 1.433 . S
C1940 C1936 1.350 . S
C1940 C1937 1.463 . S
C1940 N1944 1.427 . S
C1941 H1931 0.929 . S
C1941 C1939 1.433 . S
C1941 N1944 1.384 . S
C1942 H1933 0.929 . S
C1942 C1934 1.378 . S
C1942 C1937 1.350 . S
C1943 H1930 0.929 . S
C1943 C1935 1.433 . S
C1943 N1945 1.384 . S
N1944 C1940 1.427 . S
N1944 C1941 1.384 . S
N1945 C1937 1.427 . S
N1945 C1943 1.384 . S
H1946 C1952 0.930 . S
H1947 C1956 0.930 . S
H1948 C1961 0.929 . S
H1949 C1959 0.929 . S
H1950 C1954 0.929 . S
H1951 C1960 0.929 . S
C1952 H1946 0.930 . S
C1952 C1953 1.367 . S
C1952 C1960 1.378 . S
C1953 C1952 1.367 . S
C1953 C1961 1.433 . S
C1954 H1950 0.929 . S
C1954 C1956 1.378 . S
C1954 C1958 1.350 . S
C1955 C1958 1.463 . S
C1955 C1960 1.350 . S
C1955 N1963 1.427 . S
C1956 H1947 0.930 . S
C1956 C1954 1.378 . S
C1956 C1957 1.367 . S
C1957 C1956 1.367 . S
C1957 C1959 1.433 . S
C1958 C1954 1.350 . S
C1958 C1955 1.463 . S
C1958 N1962 1.427 . S
C1959 H1949 0.929 . S
C1959 C1957 1.433 . S
C1959 N1962 1.384 . S
C1960 H1951 0.929 . S
C1960 C1952 1.378 . S
C1960 C1955 1.350 . S
C1961 H1948 0.929 . S
C1961 C1953 1.433 . S
C1961 N1963 1.384 . S
N1962 C1958 1.427 . S
N1962 C1959 1.384 . S
N1963 C1955 1.427 . S
N1963 C1961 1.384 . S
H1964 C1970 0.930 . S
H1965 C1974 0.930 . S
H1966 C1979 0.929 . S
H1967 C1977 0.929 . S
H1968 C1972 0.929 . S
H1969 C1978 0.929 . S
C1970 H1964 0.930 . S
C1970 C1971 1.367 . S
C1970 C1978 1.378 . S
C1971 C1970 1.367 . S
C1971 C1979 1.433 . S
C1972 H1968 0.929 . S
C1972 C1974 1.378 . S
C1972 C1976 1.350 . S
C1973 C1976 1.463 . S
C1973 C1978 1.350 . S
C1973 N1981 1.427 . S
C1974 H1965 0.930 . S
C1974 C1972 1.378 . S
C1974 C1975 1.367 . S
C1975 C1974 1.367 . S
C1975 C1977 1.433 . S
C1976 C1972 1.350 . S
C1976 C1973 1.463 . S
C1976 N1980 1.427 . S
C1977 H1967 0.929 . S
C1977 C1975 1.433 . S
C1977 N1980 1.384 . S
C1978 H1969 0.929 . S
C1978 C1970 1.378 . S
C1978 C1973 1.350 . S
C1979 H1966 0.929 . S
C1979 C1971 1.433 . S
C1979 N1981 1.384 . S
N1980 C1976 1.427 . S
N1980 C1977 1.384 . S
N1981 C1973 1.427 . S
N1981 C1979 1.384 . S
H1982 C1988 0.930 . S
H1983 C1992 0.930 . S
H1984 C1997 0.929 . S
H1985 C1995 0.929 . S
H1986 C1990 0.929 . S
H1987 C1996 0.929 . S
C1988 H1982 0.930 . S
C1988 C1989 1.367 . S
C1988 C1996 1.378 . S
C1989 C1988 1.367 . S
C1989 C1997 1.433 . S
C1990 H1986 0.929 . S
C1990 C1992 1.378 1_455 S
C1990 C1994 1.350 . S
C1991 C1994 1.463 . S
C1991 C1996 1.350 . S
C1991 N1999 1.427 . S
C1992 H1983 0.930 . S
C1992 C1990 1.378 1_655 S
C1992 C1993 1.367 . S
C1993 C1992 1.367 . S
C1993 C1995 1.433 . S
C1994 C1990 1.350 . S
C1994 C1991 1.463 . S
C1994 N1998 1.427 1_455 S
C1995 H1985 0.929 . S
C1995 C1993 1.433 . S
C1995 N1998 1.384 . S
C1996 H1987 0.929 . S
C1996 C1988 1.378 . S
C1996 C1991 1.350 . S
C1997 H1984 0.929 . S
C1997 C1989 1.433 . S
C1997 N1999 1.384 . S
N1998 C1994 1.427 1_655 S
N1998 C1995 1.384 . S
N1999 C1991 1.427 . S
N1999 C1997 1.384 . S
H2000 C2006 0.930 . S
H2001 C2010 0.930 . S
H2002 C2015 0.929 . S
H2003 C2013 0.929 . S
H2004 C2008 0.929 . S
H2005 C2014 0.929 . S
C2006 H2000 0.930 . S
C2006 C2007 1.367 . S
C2006 C2014 1.378 . S
C2007 C2006 1.367 . S
C2007 C2015 1.433 . S
C2008 H2004 0.929 . S
C2008 C2010 1.378 . S
C2008 C2012 1.350 . S
C2009 C2012 1.463 . S
C2009 C2014 1.350 . S
C2009 N2017 1.427 . S
C2010 H2001 0.930 . S
C2010 C2008 1.378 . S
C2010 C2011 1.367 . S
C2011 C2010 1.367 . S
C2011 C2013 1.433 . S
C2012 C2008 1.350 . S
C2012 C2009 1.463 . S
C2012 N2016 1.427 . S
C2013 H2003 0.929 . S
C2013 C2011 1.433 . S
C2013 N2016 1.384 . S
C2014 H2005 0.929 . S
C2014 C2006 1.378 . S
C2014 C2009 1.350 . S
C2015 H2002 0.929 . S
C2015 C2007 1.433 . S
C2015 N2017 1.384 . S
N2016 C2012 1.427 . S
N2016 C2013 1.384 . S
N2017 C2009 1.427 . S
N2017 C2015 1.384 . S
H2018 C2024 0.930 . S
H2019 C2028 0.930 . S
H2020 C2033 0.929 . S
H2021 C2031 0.929 . S
H2022 C2026 0.929 . S
H2023 C2032 0.929 . S
C2024 H2018 0.930 . S
C2024 C2025 1.367 . S
C2024 C2032 1.378 1_455 S
C2025 C2024 1.367 . S
C2025 C2033 1.433 . S
C2026 H2022 0.929 . S
C2026 C2028 1.378 . S
C2026 C2030 1.350 . S
C2027 C2030 1.463 . S
C2027 C2032 1.350 . S
C2027 N2035 1.427 1_655 S
C2028 H2019 0.930 . S
C2028 C2026 1.378 . S
C2028 C2029 1.367 . S
C2029 C2028 1.367 . S
C2029 C2031 1.433 . S
C2030 C2026 1.350 . S
C2030 C2027 1.463 . S
C2030 N2034 1.427 . S
C2031 H2021 0.929 . S
C2031 C2029 1.433 . S
C2031 N2034 1.384 . S
C2032 H2023 0.929 . S
C2032 C2024 1.378 1_655 S
C2032 C2027 1.350 . S
C2033 H2020 0.929 . S
C2033 C2025 1.433 . S
C2033 N2035 1.384 . S
N2034 C2030 1.427 . S
N2034 C2031 1.384 . S
N2035 C2027 1.427 1_455 S
N2035 C2033 1.384 . S
H2036 C2042 0.930 . S
H2037 C2046 0.930 . S
H2038 C2051 0.929 . S
H2039 C2049 0.929 . S
H2040 C2044 0.929 . S
H2041 C2050 0.929 . S
C2042 H2036 0.930 . S
C2042 C2043 1.367 . S
C2042 C2050 1.378 . S
C2043 C2042 1.367 . S
C2043 C2051 1.433 . S
C2044 H2040 0.929 . S
C2044 C2046 1.378 . S
C2044 C2048 1.350 . S
C2045 C2048 1.463 . S
C2045 C2050 1.350 . S
C2045 N2053 1.427 . S
C2046 H2037 0.930 . S
C2046 C2044 1.378 . S
C2046 C2047 1.367 . S
C2047 C2046 1.367 . S
C2047 C2049 1.433 . S
C2048 C2044 1.350 . S
C2048 C2045 1.463 . S
C2048 N2052 1.427 . S
C2049 H2039 0.929 . S
C2049 C2047 1.433 . S
C2049 N2052 1.384 . S
C2050 H2041 0.929 . S
C2050 C2042 1.378 . S
C2050 C2045 1.350 . S
C2051 H2038 0.929 . S
C2051 C2043 1.433 . S
C2051 N2053 1.384 . S
N2052 C2048 1.427 . S
N2052 C2049 1.384 . S
N2053 C2045 1.427 . S
N2053 C2051 1.384 . S
H2054 C2060 0.930 . S
H2055 C2064 0.930 . S
H2056 C2069 0.929 . S
H2057 C2067 0.929 . S
H2058 C2062 0.929 . S
H2059 C2068 0.929 . S
C2060 H2054 0.930 . S
C2060 C2061 1.367 . S
C2060 C2068 1.378 . S
C2061 C2060 1.367 . S
C2061 C2069 1.433 . S
C2062 H2058 0.929 . S
C2062 C2064 1.378 . S
C2062 C2066 1.350 . S
C2063 C2066 1.463 . S
C2063 C2068 1.350 . S
C2063 N2071 1.427 . S
C2064 H2055 0.930 . S
C2064 C2062 1.378 . S
C2064 C2065 1.367 . S
C2065 C2064 1.367 . S
C2065 C2067 1.433 . S
C2066 C2062 1.350 . S
C2066 C2063 1.463 . S
C2066 N2070 1.427 . S
C2067 H2057 0.929 . S
C2067 C2065 1.433 . S
C2067 N2070 1.384 . S
C2068 H2059 0.929 . S
C2068 C2060 1.378 . S
C2068 C2063 1.350 . S
C2069 H2056 0.929 . S
C2069 C2061 1.433 . S
C2069 N2071 1.384 . S
N2070 C2066 1.427 . S
N2070 C2067 1.384 . S
N2071 C2063 1.427 . S
N2071 C2069 1.384 . S
H2072 C2078 0.930 . S
H2073 C2082 0.930 . S
H2074 C2087 0.929 . S
H2075 C2085 0.929 . S
H2076 C2080 0.929 . S
H2077 C2086 0.929 . S
C2078 H2072 0.930 . S
C2078 C2079 1.367 . S
C2078 C2086 1.378 . S
C2079 C2078 1.367 . S
C2079 C2087 1.433 . S
C2080 H2076 0.929 . S
C2080 C2082 1.378 . S
C2080 C2084 1.350 . S
C2081 C2084 1.463 . S
C2081 C2086 1.350 . S
C2081 N2089 1.427 . S
C2082 H2073 0.930 . S
C2082 C2080 1.378 . S
C2082 C2083 1.367 . S
C2083 C2082 1.367 . S
C2083 C2085 1.433 . S
C2084 C2080 1.350 . S
C2084 C2081 1.463 . S
C2084 N2088 1.427 . S
C2085 H2075 0.929 . S
C2085 C2083 1.433 . S
C2085 N2088 1.384 . S
C2086 H2077 0.929 . S
C2086 C2078 1.378 . S
C2086 C2081 1.350 . S
C2087 H2074 0.929 . S
C2087 C2079 1.433 . S
C2087 N2089 1.384 . S
N2088 C2084 1.427 . S
N2088 C2085 1.384 . S
N2089 C2081 1.427 . S
N2089 C2087 1.384 . S
H2090 C2096 0.930 . S
H2091 C2100 0.930 . S
H2092 C2105 0.929 . S
H2093 C2103 0.929 . S
H2094 C2098 0.929 . S
H2095 C2104 0.929 . S
C2096 H2090 0.930 . S
C2096 C2097 1.367 . S
C2096 C2104 1.378 . S
C2097 C2096 1.367 . S
C2097 C2105 1.433 . S
C2098 H2094 0.929 . S
C2098 C2100 1.378 . S
C2098 C2102 1.350 . S
C2099 C2102 1.463 . S
C2099 C2104 1.350 . S
C2099 N2107 1.427 . S
C2100 H2091 0.930 . S
C2100 C2098 1.378 . S
C2100 C2101 1.367 . S
C2101 C2100 1.367 . S
C2101 C2103 1.433 . S
C2102 C2098 1.350 . S
C2102 C2099 1.463 . S
C2102 N2106 1.427 . S
C2103 H2093 0.929 . S
C2103 C2101 1.433 . S
C2103 N2106 1.384 . S
C2104 H2095 0.929 . S
C2104 C2096 1.378 . S
C2104 C2099 1.350 . S
C2105 H2092 0.929 . S
C2105 C2097 1.433 . S
C2105 N2107 1.384 . S
N2106 C2102 1.427 . S
N2106 C2103 1.384 . S
N2107 C2099 1.427 . S
N2107 C2105 1.384 . S
H2108 C2114 0.930 . S
H2109 C2118 0.930 . S
H2110 C2123 0.929 . S
H2111 C2121 0.929 . S
H2112 C2116 0.929 . S
H2113 C2122 0.929 . S
C2114 H2108 0.930 . S
C2114 C2115 1.367 . S
C2114 C2122 1.378 . S
C2115 C2114 1.367 . S
C2115 C2123 1.433 . S
C2116 H2112 0.929 . S
C2116 C2118 1.378 . S
C2116 C2120 1.350 . S
C2117 C2120 1.463 . S
C2117 C2122 1.350 . S
C2117 N2125 1.427 . S
C2118 H2109 0.930 . S
C2118 C2116 1.378 . S
C2118 C2119 1.367 . S
C2119 C2118 1.367 . S
C2119 C2121 1.433 . S
C2120 C2116 1.350 . S
C2120 C2117 1.463 . S
C2120 N2124 1.427 . S
C2121 H2111 0.929 . S
C2121 C2119 1.433 . S
C2121 N2124 1.384 . S
C2122 H2113 0.929 . S
C2122 C2114 1.378 . S
C2122 C2117 1.350 . S
C2123 H2110 0.929 . S
C2123 C2115 1.433 . S
C2123 N2125 1.384 . S
N2124 C2120 1.427 . S
N2124 C2121 1.384 . S
N2125 C2117 1.427 . S
N2125 C2123 1.384 . S
H2126 C2132 0.930 . S
H2127 C2136 0.930 . S
H2128 C2141 0.929 . S
H2129 C2139 0.929 . S
H2130 C2134 0.929 . S
H2131 C2140 0.929 . S
C2132 H2126 0.930 . S
C2132 C2133 1.367 . S
C2132 C2140 1.378 . S
C2133 C2132 1.367 . S
C2133 C2141 1.433 . S
C2134 H2130 0.929 . S
C2134 C2136 1.378 . S
C2134 C2138 1.350 1_455 S
C2135 C2138 1.463 . S
C2135 C2140 1.350 . S
C2135 N2143 1.427 . S
C2136 H2127 0.930 . S
C2136 C2134 1.378 . S
C2136 C2137 1.367 . S
C2137 C2136 1.367 . S
C2137 C2139 1.433 . S
C2138 C2134 1.350 1_655 S
C2138 C2135 1.463 . S
C2138 N2142 1.427 . S
C2139 H2129 0.929 . S
C2139 C2137 1.433 . S
C2139 N2142 1.384 1_455 S
C2140 H2131 0.929 . S
C2140 C2132 1.378 . S
C2140 C2135 1.350 . S
C2141 H2128 0.929 . S
C2141 C2133 1.433 . S
C2141 N2143 1.384 . S
N2142 C2138 1.427 . S
N2142 C2139 1.384 1_655 S
N2143 C2135 1.427 . S
N2143 C2141 1.384 . S
H2144 C2150 0.930 . S
H2145 C2154 0.930 . S
H2146 C2159 0.929 . S
H2147 C2157 0.929 . S
H2148 C2152 0.929 . S
H2149 C2158 0.929 . S
C2150 H2144 0.930 . S
C2150 C2151 1.367 . S
C2150 C2158 1.378 . S
C2151 C2150 1.367 . S
C2151 C2159 1.433 . S
C2152 H2148 0.929 . S
C2152 C2154 1.378 . S
C2152 C2156 1.350 . S
C2153 C2156 1.463 . S
C2153 C2158 1.350 . S
C2153 N2161 1.427 . S
C2154 H2145 0.930 . S
C2154 C2152 1.378 . S
C2154 C2155 1.367 . S
C2155 C2154 1.367 . S
C2155 C2157 1.433 . S
C2156 C2152 1.350 . S
C2156 C2153 1.463 . S
C2156 N2160 1.427 . S
C2157 H2147 0.929 . S
C2157 C2155 1.433 . S
C2157 N2160 1.384 . S
C2158 H2149 0.929 . S
C2158 C2150 1.378 . S
C2158 C2153 1.350 . S
C2159 H2146 0.929 . S
C2159 C2151 1.433 . S
C2159 N2161 1.384 . S
N2160 C2156 1.427 . S
N2160 C2157 1.384 . S
N2161 C2153 1.427 . S
N2161 C2159 1.384 . S
H2162 C2168 0.930 . S
H2163 C2172 0.930 . S
H2164 C2177 0.929 . S
H2165 C2175 0.929 . S
H2166 C2170 0.929 . S
H2167 C2176 0.929 . S
C2168 H2162 0.930 . S
C2168 C2169 1.367 . S
C2168 C2176 1.378 . S
C2169 C2168 1.367 . S
C2169 C2177 1.433 . S
C2170 H2166 0.929 . S
C2170 C2172 1.378 . S
C2170 C2174 1.350 . S
C2171 C2174 1.463 . S
C2171 C2176 1.350 . S
C2171 N2179 1.427 . S
C2172 H2163 0.930 . S
C2172 C2170 1.378 . S
C2172 C2173 1.367 . S
C2173 C2172 1.367 . S
C2173 C2175 1.433 . S
C2174 C2170 1.350 . S
C2174 C2171 1.463 . S
C2174 N2178 1.427 . S
C2175 H2165 0.929 . S
C2175 C2173 1.433 . S
C2175 N2178 1.384 . S
C2176 H2167 0.929 . S
C2176 C2168 1.378 . S
C2176 C2171 1.350 . S
C2177 H2164 0.929 . S
C2177 C2169 1.433 . S
C2177 N2179 1.384 . S
N2178 C2174 1.427 . S
N2178 C2175 1.384 . S
N2179 C2171 1.427 . S
N2179 C2177 1.384 . S
H2180 C2186 0.930 . S
H2181 C2190 0.930 . S
H2182 C2195 0.929 . S
H2183 C2193 0.929 . S
H2184 C2188 0.929 . S
H2185 C2194 0.929 . S
C2186 H2180 0.930 . S
C2186 C2187 1.367 . S
C2186 C2194 1.378 . S
C2187 C2186 1.367 . S
C2187 C2195 1.433 . S
C2188 H2184 0.929 . S
C2188 C2190 1.378 . S
C2188 C2192 1.350 . S
C2189 C2192 1.463 . S
C2189 C2194 1.350 . S
C2189 N2197 1.427 . S
C2190 H2181 0.930 . S
C2190 C2188 1.378 . S
C2190 C2191 1.367 . S
C2191 C2190 1.367 . S
C2191 C2193 1.433 . S
C2192 C2188 1.350 . S
C2192 C2189 1.463 . S
C2192 N2196 1.427 . S
C2193 H2183 0.929 . S
C2193 C2191 1.433 . S
C2193 N2196 1.384 . S
C2194 H2185 0.929 . S
C2194 C2186 1.378 . S
C2194 C2189 1.350 . S
C2195 H2182 0.929 . S
C2195 C2187 1.433 . S
C2195 N2197 1.384 . S
N2196 C2192 1.427 . S
N2196 C2193 1.384 . S
N2197 C2189 1.427 . S
N2197 C2195 1.384 . S
H2198 C2204 0.930 . S
H2199 C2208 0.930 . S
H2200 C2213 0.929 . S
H2201 C2211 0.929 . S
H2202 C2206 0.929 . S
H2203 C2212 0.929 . S
C2204 H2198 0.930 . S
C2204 C2205 1.367 . S
C2204 C2212 1.378 . S
C2205 C2204 1.367 . S
C2205 C2213 1.433 . S
C2206 H2202 0.929 . S
C2206 C2208 1.378 1_655 S
C2206 C2210 1.350 . S
C2207 C2210 1.463 . S
C2207 C2212 1.350 . S
C2207 N2215 1.427 . S
C2208 H2199 0.930 . S
C2208 C2206 1.378 1_455 S
C2208 C2209 1.367 . S
C2209 C2208 1.367 . S
C2209 C2211 1.433 . S
C2210 C2206 1.350 . S
C2210 C2207 1.463 . S
C2210 N2214 1.427 1_655 S
C2211 H2201 0.929 . S
C2211 C2209 1.433 . S
C2211 N2214 1.384 . S
C2212 H2203 0.929 . S
C2212 C2204 1.378 . S
C2212 C2207 1.350 . S
C2213 H2200 0.929 . S
C2213 C2205 1.433 . S
C2213 N2215 1.384 . S
N2214 C2210 1.427 1_455 S
N2214 C2211 1.384 . S
N2215 C2207 1.427 . S
N2215 C2213 1.384 . S
H2216 C2222 0.930 . S
H2217 C2226 0.930 . S
H2218 C2231 0.929 . S
H2219 C2229 0.929 . S
H2220 C2224 0.929 . S
H2221 C2230 0.929 . S
C2222 H2216 0.930 . S
C2222 C2223 1.367 . S
C2222 C2230 1.378 . S
C2223 C2222 1.367 . S
C2223 C2231 1.433 . S
C2224 H2220 0.929 . S
C2224 C2226 1.378 . S
C2224 C2228 1.350 . S
C2225 C2228 1.463 . S
C2225 C2230 1.350 . S
C2225 N2233 1.427 . S
C2226 H2217 0.930 . S
C2226 C2224 1.378 . S
C2226 C2227 1.367 . S
C2227 C2226 1.367 . S
C2227 C2229 1.433 . S
C2228 C2224 1.350 . S
C2228 C2225 1.463 . S
C2228 N2232 1.427 . S
C2229 H2219 0.929 . S
C2229 C2227 1.433 . S
C2229 N2232 1.384 . S
C2230 H2221 0.929 . S
C2230 C2222 1.378 . S
C2230 C2225 1.350 . S
C2231 H2218 0.929 . S
C2231 C2223 1.433 . S
C2231 N2233 1.384 . S
N2232 C2228 1.427 . S
N2232 C2229 1.384 . S
N2233 C2225 1.427 . S
N2233 C2231 1.384 . S
H2234 C2240 0.930 . S
H2235 C2244 0.930 . S
H2236 C2249 0.929 . S
H2237 C2247 0.929 . S
H2238 C2242 0.929 . S
H2239 C2248 0.929 . S
C2240 H2234 0.930 . S
C2240 C2241 1.367 . S
C2240 C2248 1.378 . S
C2241 C2240 1.367 . S
C2241 C2249 1.433 . S
C2242 H2238 0.929 . S
C2242 C2244 1.378 1_655 S
C2242 C2246 1.350 . S
C2243 C2246 1.463 . S
C2243 C2248 1.350 . S
C2243 N2251 1.427 . S
C2244 H2235 0.930 . S
C2244 C2242 1.378 1_455 S
C2244 C2245 1.367 . S
C2245 C2244 1.367 . S
C2245 C2247 1.433 . S
C2246 C2242 1.350 . S
C2246 C2243 1.463 . S
C2246 N2250 1.427 1_655 S
C2247 H2237 0.929 . S
C2247 C2245 1.433 . S
C2247 N2250 1.384 . S
C2248 H2239 0.929 . S
C2248 C2240 1.378 . S
C2248 C2243 1.350 . S
C2249 H2236 0.929 . S
C2249 C2241 1.433 . S
C2249 N2251 1.384 . S
N2250 C2246 1.427 1_455 S
N2250 C2247 1.384 . S
N2251 C2243 1.427 . S
N2251 C2249 1.384 . S
H2252 C2258 0.930 . S
H2253 C2262 0.930 . S
H2254 C2267 0.929 . S
H2255 C2265 0.929 . S
H2256 C2260 0.929 . S
H2257 C2266 0.929 . S
C2258 H2252 0.930 . S
C2258 C2259 1.367 . S
C2258 C2266 1.378 . S
C2259 C2258 1.367 . S
C2259 C2267 1.433 . S
C2260 H2256 0.929 . S
C2260 C2262 1.378 . S
C2260 C2264 1.350 . S
C2261 C2264 1.463 . S
C2261 C2266 1.350 . S
C2261 N2269 1.427 . S
C2262 H2253 0.930 . S
C2262 C2260 1.378 . S
C2262 C2263 1.367 . S
C2263 C2262 1.367 . S
C2263 C2265 1.433 . S
C2264 C2260 1.350 . S
C2264 C2261 1.463 . S
C2264 N2268 1.427 . S
C2265 H2255 0.929 . S
C2265 C2263 1.433 . S
C2265 N2268 1.384 . S
C2266 H2257 0.929 . S
C2266 C2258 1.378 . S
C2266 C2261 1.350 . S
C2267 H2254 0.929 . S
C2267 C2259 1.433 . S
C2267 N2269 1.384 . S
N2268 C2264 1.427 . S
N2268 C2265 1.384 . S
N2269 C2261 1.427 . S
N2269 C2267 1.384 . S
H2270 C2276 0.930 . S
H2271 C2280 0.930 . S
H2272 C2285 0.929 . S
H2273 C2283 0.929 . S
H2274 C2278 0.929 . S
H2275 C2284 0.929 . S
C2276 H2270 0.930 . S
C2276 C2277 1.367 . S
C2276 C2284 1.378 . S
C2277 C2276 1.367 . S
C2277 C2285 1.433 . S
C2278 H2274 0.929 . S
C2278 C2280 1.378 . S
C2278 C2282 1.350 . S
C2279 C2282 1.463 . S
C2279 C2284 1.350 . S
C2279 N2287 1.427 . S
C2280 H2271 0.930 . S
C2280 C2278 1.378 . S
C2280 C2281 1.367 . S
C2281 C2280 1.367 . S
C2281 C2283 1.433 . S
C2282 C2278 1.350 . S
C2282 C2279 1.463 . S
C2282 N2286 1.427 . S
C2283 H2273 0.929 . S
C2283 C2281 1.433 . S
C2283 N2286 1.384 . S
C2284 H2275 0.929 . S
C2284 C2276 1.378 . S
C2284 C2279 1.350 . S
C2285 H2272 0.929 . S
C2285 C2277 1.433 . S
C2285 N2287 1.384 . S
N2286 C2282 1.427 . S
N2286 C2283 1.384 . S
N2287 C2279 1.427 . S
N2287 C2285 1.384 . S
H2288 C2294 0.930 . S
H2289 C2298 0.930 . S
H2290 C2303 0.929 . S
H2291 C2301 0.929 . S
H2292 C2296 0.929 . S
H2293 C2302 0.929 . S
C2294 H2288 0.930 . S
C2294 C2295 1.367 . S
C2294 C2302 1.378 . S
C2295 C2294 1.367 . S
C2295 C2303 1.433 . S
C2296 H2292 0.929 . S
C2296 C2298 1.378 . S
C2296 C2300 1.350 . S
C2297 C2300 1.463 . S
C2297 C2302 1.350 . S
C2297 N2305 1.427 . S
C2298 H2289 0.930 . S
C2298 C2296 1.378 . S
C2298 C2299 1.367 . S
C2299 C2298 1.367 . S
C2299 C2301 1.433 . S
C2300 C2296 1.350 . S
C2300 C2297 1.463 . S
C2300 N2304 1.427 . S
C2301 H2291 0.929 . S
C2301 C2299 1.433 . S
C2301 N2304 1.384 . S
C2302 H2293 0.929 . S
C2302 C2294 1.378 . S
C2302 C2297 1.350 . S
C2303 H2290 0.929 . S
C2303 C2295 1.433 . S
C2303 N2305 1.384 . S
N2304 C2300 1.427 . S
N2304 C2301 1.384 . S
N2305 C2297 1.427 . S
N2305 C2303 1.384 . S
H2306 C2312 0.930 . S
H2307 C2316 0.930 . S
H2308 C2321 0.929 . S
H2309 C2319 0.929 . S
H2310 C2314 0.929 . S
H2311 C2320 0.929 . S
C2312 H2306 0.930 . S
C2312 C2313 1.367 . S
C2312 C2320 1.378 . S
C2313 C2312 1.367 . S
C2313 C2321 1.433 . S
C2314 H2310 0.929 . S
C2314 C2316 1.378 . S
C2314 C2318 1.350 . S
C2315 C2318 1.463 . S
C2315 C2320 1.350 . S
C2315 N2323 1.427 . S
C2316 H2307 0.930 . S
C2316 C2314 1.378 . S
C2316 C2317 1.367 . S
C2317 C2316 1.367 . S
C2317 C2319 1.433 . S
C2318 C2314 1.350 . S
C2318 C2315 1.463 . S
C2318 N2322 1.427 . S
C2319 H2309 0.929 . S
C2319 C2317 1.433 . S
C2319 N2322 1.384 . S
C2320 H2311 0.929 . S
C2320 C2312 1.378 . S
C2320 C2315 1.350 . S
C2321 H2308 0.929 . S
C2321 C2313 1.433 . S
C2321 N2323 1.384 . S
N2322 C2318 1.427 . S
N2322 C2319 1.384 . S
N2323 C2315 1.427 . S
N2323 C2321 1.384 . S
H2324 C2330 0.930 . S
H2325 C2334 0.930 . S
H2326 C2339 0.929 . S
H2327 C2337 0.929 . S
H2328 C2332 0.929 . S
H2329 C2338 0.929 . S
C2330 H2324 0.930 . S
C2330 C2331 1.367 . S
C2330 C2338 1.378 . S
C2331 C2330 1.367 . S
C2331 C2339 1.433 . S
C2332 H2328 0.929 . S
C2332 C2334 1.378 . S
C2332 C2336 1.350 . S
C2333 C2336 1.463 . S
C2333 C2338 1.350 . S
C2333 N2341 1.427 . S
C2334 H2325 0.930 . S
C2334 C2332 1.378 . S
C2334 C2335 1.367 . S
C2335 C2334 1.367 . S
C2335 C2337 1.433 . S
C2336 C2332 1.350 . S
C2336 C2333 1.463 . S
C2336 N2340 1.427 . S
C2337 H2327 0.929 . S
C2337 C2335 1.433 . S
C2337 N2340 1.384 . S
C2338 H2329 0.929 . S
C2338 C2330 1.378 . S
C2338 C2333 1.350 . S
C2339 H2326 0.929 . S
C2339 C2331 1.433 . S
C2339 N2341 1.384 . S
N2340 C2336 1.427 . S
N2340 C2337 1.384 . S
N2341 C2333 1.427 . S
N2341 C2339 1.384 . S
H2342 C2348 0.930 . S
H2343 C2352 0.930 . S
H2344 C2357 0.929 . S
H2345 C2355 0.929 . S
H2346 C2350 0.929 . S
H2347 C2356 0.929 1_455 S
C2348 H2342 0.930 . S
C2348 C2349 1.367 . S
C2348 C2356 1.378 . S
C2349 C2348 1.367 . S
C2349 C2357 1.433 . S
C2350 H2346 0.929 . S
C2350 C2352 1.378 . S
C2350 C2354 1.350 . S
C2351 C2354 1.463 . S
C2351 C2356 1.350 1_455 S
C2351 N2359 1.427 . S
C2352 H2343 0.930 . S
C2352 C2350 1.378 . S
C2352 C2353 1.367 . S
C2353 C2352 1.367 . S
C2353 C2355 1.433 . S
C2354 C2350 1.350 . S
C2354 C2351 1.463 . S
C2354 N2358 1.427 . S
C2355 H2345 0.929 . S
C2355 C2353 1.433 . S
C2355 N2358 1.384 . S
C2356 H2347 0.929 1_655 S
C2356 C2348 1.378 . S
C2356 C2351 1.350 1_655 S
C2357 H2344 0.929 . S
C2357 C2349 1.433 . S
C2357 N2359 1.384 1_655 S
N2358 C2354 1.427 . S
N2358 C2355 1.384 . S
N2359 C2351 1.427 . S
N2359 C2357 1.384 1_455 S
H2360 C2366 0.930 . S
H2361 C2370 0.930 . S
H2362 C2375 0.929 . S
H2363 C2373 0.929 . S
H2364 C2368 0.929 . S
H2365 C2374 0.929 . S
C2366 H2360 0.930 . S
C2366 C2367 1.367 . S
C2366 C2374 1.378 . S
C2367 C2366 1.367 . S
C2367 C2375 1.433 . S
C2368 H2364 0.929 . S
C2368 C2370 1.378 . S
C2368 C2372 1.350 . S
C2369 C2372 1.463 . S
C2369 C2374 1.350 . S
C2369 N2377 1.427 . S
C2370 H2361 0.930 . S
C2370 C2368 1.378 . S
C2370 C2371 1.367 . S
C2371 C2370 1.367 . S
C2371 C2373 1.433 . S
C2372 C2368 1.350 . S
C2372 C2369 1.463 . S
C2372 N2376 1.427 . S
C2373 H2363 0.929 . S
C2373 C2371 1.433 . S
C2373 N2376 1.384 . S
C2374 H2365 0.929 . S
C2374 C2366 1.378 . S
C2374 C2369 1.350 . S
C2375 H2362 0.929 . S
C2375 C2367 1.433 . S
C2375 N2377 1.384 . S
N2376 C2372 1.427 . S
N2376 C2373 1.384 . S
N2377 C2369 1.427 . S
N2377 C2375 1.384 . S
H2378 C2384 0.930 . S
H2379 C2388 0.930 . S
H2380 C2393 0.929 . S
H2381 C2391 0.929 . S
H2382 C2386 0.929 . S
H2383 C2392 0.929 . S
C2384 H2378 0.930 . S
C2384 C2385 1.367 . S
C2384 C2392 1.378 . S
C2385 C2384 1.367 . S
C2385 C2393 1.433 . S
C2386 H2382 0.929 . S
C2386 C2388 1.378 1_455 S
C2386 C2390 1.350 . S
C2387 C2390 1.463 . S
C2387 C2392 1.350 . S
C2387 N2395 1.427 . S
C2388 H2379 0.930 . S
C2388 C2386 1.378 1_655 S
C2388 C2389 1.367 . S
C2389 C2388 1.367 . S
C2389 C2391 1.433 . S
C2390 C2386 1.350 . S
C2390 C2387 1.463 . S
C2390 N2394 1.427 1_455 S
C2391 H2381 0.929 . S
C2391 C2389 1.433 . S
C2391 N2394 1.384 . S
C2392 H2383 0.929 . S
C2392 C2384 1.378 . S
C2392 C2387 1.350 . S
C2393 H2380 0.929 . S
C2393 C2385 1.433 . S
C2393 N2395 1.384 . S
N2394 C2390 1.427 1_655 S
N2394 C2391 1.384 . S
N2395 C2387 1.427 . S
N2395 C2393 1.384 . S
H2396 C2402 0.930 . S
H2397 C2406 0.930 . S
H2398 C2411 0.929 . S
H2399 C2409 0.929 . S
H2400 C2404 0.929 . S
H2401 C2410 0.929 . S
C2402 H2396 0.930 . S
C2402 C2403 1.367 . S
C2402 C2410 1.378 . S
C2403 C2402 1.367 . S
C2403 C2411 1.433 . S
C2404 H2400 0.929 . S
C2404 C2406 1.378 . S
C2404 C2408 1.350 . S
C2405 C2408 1.463 . S
C2405 C2410 1.350 . S
C2405 N2413 1.427 . S
C2406 H2397 0.930 . S
C2406 C2404 1.378 . S
C2406 C2407 1.367 . S
C2407 C2406 1.367 . S
C2407 C2409 1.433 . S
C2408 C2404 1.350 . S
C2408 C2405 1.463 . S
C2408 N2412 1.427 . S
C2409 H2399 0.929 . S
C2409 C2407 1.433 . S
C2409 N2412 1.384 . S
C2410 H2401 0.929 . S
C2410 C2402 1.378 . S
C2410 C2405 1.350 . S
C2411 H2398 0.929 . S
C2411 C2403 1.433 . S
C2411 N2413 1.384 . S
N2412 C2408 1.427 . S
N2412 C2409 1.384 . S
N2413 C2405 1.427 . S
N2413 C2411 1.384 . S
H2414 C2420 0.930 . S
H2415 C2424 0.930 . S
H2416 C2429 0.929 . S
H2417 C2427 0.929 . S
H2418 C2422 0.929 . S
H2419 C2428 0.929 . S
C2420 H2414 0.930 . S
C2420 C2421 1.367 . S
C2420 C2428 1.378 . S
C2421 C2420 1.367 . S
C2421 C2429 1.433 . S
C2422 H2418 0.929 . S
C2422 C2424 1.378 . S
C2422 C2426 1.350 . S
C2423 C2426 1.463 . S
C2423 C2428 1.350 . S
C2423 N2431 1.427 . S
C2424 H2415 0.930 . S
C2424 C2422 1.378 . S
C2424 C2425 1.367 . S
C2425 C2424 1.367 . S
C2425 C2427 1.433 . S
C2426 C2422 1.350 . S
C2426 C2423 1.463 . S
C2426 N2430 1.427 . S
C2427 H2417 0.929 . S
C2427 C2425 1.433 . S
C2427 N2430 1.384 . S
C2428 H2419 0.929 . S
C2428 C2420 1.378 . S
C2428 C2423 1.350 . S
C2429 H2416 0.929 . S
C2429 C2421 1.433 . S
C2429 N2431 1.384 . S
N2430 C2426 1.427 . S
N2430 C2427 1.384 . S
N2431 C2423 1.427 . S
N2431 C2429 1.384 . S
H2432 C2438 0.930 . S
H2433 C2442 0.930 . S
H2434 C2447 0.929 . S
H2435 C2445 0.929 . S
H2436 C2440 0.929 . S
H2437 C2446 0.929 . S
C2438 H2432 0.930 . S
C2438 C2439 1.367 . S
C2438 C2446 1.378 . S
C2439 C2438 1.367 . S
C2439 C2447 1.433 . S
C2440 H2436 0.929 . S
C2440 C2442 1.378 . S
C2440 C2444 1.350 . S
C2441 C2444 1.463 1_545 S
C2441 C2446 1.350 . S
C2441 N2449 1.427 . S
C2442 H2433 0.930 . S
C2442 C2440 1.378 . S
C2442 C2443 1.367 . S
C2443 C2442 1.367 . S
C2443 C2445 1.433 . S
C2444 C2440 1.350 . S
C2444 C2441 1.463 1_565 S
C2444 N2448 1.427 . S
C2445 H2435 0.929 . S
C2445 C2443 1.433 . S
C2445 N2448 1.384 . S
C2446 H2437 0.929 . S
C2446 C2438 1.378 . S
C2446 C2441 1.350 . S
C2447 H2434 0.929 . S
C2447 C2439 1.433 . S
C2447 N2449 1.384 . S
N2448 C2444 1.427 . S
N2448 C2445 1.384 . S
N2449 C2441 1.427 . S
N2449 C2447 1.384 . S
H2450 C2456 0.930 . S
H2451 C2460 0.930 . S
H2452 C2465 0.929 . S
H2453 C2463 0.929 . S
H2454 C2458 0.929 . S
H2455 C2464 0.929 . S
C2456 H2450 0.930 . S
C2456 C2457 1.367 . S
C2456 C2464 1.378 . S
C2457 C2456 1.367 . S
C2457 C2465 1.433 . S
C2458 H2454 0.929 . S
C2458 C2460 1.378 . S
C2458 C2462 1.350 . S
C2459 C2462 1.463 . S
C2459 C2464 1.350 . S
C2459 N2467 1.427 . S
C2460 H2451 0.930 . S
C2460 C2458 1.378 . S
C2460 C2461 1.367 . S
C2461 C2460 1.367 . S
C2461 C2463 1.433 . S
C2462 C2458 1.350 . S
C2462 C2459 1.463 . S
C2462 N2466 1.427 . S
C2463 H2453 0.929 . S
C2463 C2461 1.433 . S
C2463 N2466 1.384 . S
C2464 H2455 0.929 . S
C2464 C2456 1.378 . S
C2464 C2459 1.350 . S
C2465 H2452 0.929 . S
C2465 C2457 1.433 . S
C2465 N2467 1.384 . S
N2466 C2462 1.427 . S
N2466 C2463 1.384 . S
N2467 C2459 1.427 . S
N2467 C2465 1.384 . S
H2468 C2474 0.930 . S
H2469 C2478 0.930 . S
H2470 C2483 0.929 . S
H2471 C2481 0.929 . S
H2472 C2476 0.929 1_565 S
H2473 C2482 0.929 1_545 S
C2474 H2468 0.930 . S
C2474 C2475 1.367 . S
C2474 C2482 1.378 . S
C2475 C2474 1.367 . S
C2475 C2483 1.433 . S
C2476 H2472 0.929 1_545 S
C2476 C2478 1.378 . S
C2476 C2480 1.350 . S
C2477 C2480 1.463 1_565 S
C2477 C2482 1.350 . S
C2477 N2485 1.427 . S
C2478 H2469 0.930 . S
C2478 C2476 1.378 . S
C2478 C2479 1.367 . S
C2479 C2478 1.367 . S
C2479 C2481 1.433 . S
C2480 C2476 1.350 . S
C2480 C2477 1.463 1_545 S
C2480 N2484 1.427 . S
C2481 H2471 0.929 . S
C2481 C2479 1.433 . S
C2481 N2484 1.384 . S
C2482 H2473 0.929 1_565 S
C2482 C2474 1.378 . S
C2482 C2477 1.350 . S
C2483 H2470 0.929 . S
C2483 C2475 1.433 . S
C2483 N2485 1.384 . S
N2484 C2480 1.427 . S
N2484 C2481 1.384 . S
N2485 C2477 1.427 . S
N2485 C2483 1.384 . S
H2486 C2492 0.930 . S
H2487 C2496 0.930 . S
H2488 C2501 0.929 . S
H2489 C2499 0.929 . S
H2490 C2494 0.936 . S
H2491 C2500 0.935 . S
C2492 H2486 0.930 . S
C2492 C2493 1.367 . S
C2492 C2500 1.378 . S
C2493 C2492 1.367 . S
C2493 C2501 1.433 . S
C2494 H2490 0.936 . S
C2494 C2496 1.378 . S
C2494 C2498 1.350 . S
C2495 C2498 1.463 1_556 S
C2495 C2500 1.350 . S
C2495 N2503 1.427 . S
C2496 H2487 0.930 . S
C2496 C2494 1.378 . S
C2496 C2497 1.367 . S
C2497 C2496 1.367 . S
C2497 C2499 1.433 . S
C2498 C2494 1.350 . S
C2498 C2495 1.463 1_554 S
C2498 N2502 1.427 . S
C2499 H2489 0.929 . S
C2499 C2497 1.433 . S
C2499 N2502 1.384 . S
C2500 H2491 0.935 . S
C2500 C2492 1.378 . S
C2500 C2495 1.350 . S
C2501 H2488 0.929 . S
C2501 C2493 1.433 . S
C2501 N2503 1.384 . S
N2502 C2498 1.427 . S
N2502 C2499 1.384 . S
N2503 C2495 1.427 . S
N2503 C2501 1.384 . S
H2504 C2510 0.930 . S
H2505 C2514 0.930 . S
H2506 C2519 0.929 . S
H2507 C2517 0.929 . S
H2508 C2512 0.910 1_545 S
H2509 C2518 0.909 1_565 S
C2510 H2504 0.930 . S
C2510 C2511 1.367 . S
C2510 C2518 1.378 . S
C2511 C2510 1.367 . S
C2511 C2519 1.433 . S
C2512 H2508 0.910 1_565 S
C2512 C2514 1.378 . S
C2512 C2516 1.350 . S
C2513 C2516 1.463 1_545 S
C2513 C2518 1.350 . S
C2513 N2521 1.427 . S
C2514 H2505 0.930 . S
C2514 C2512 1.378 . S
C2514 C2515 1.367 . S
C2515 C2514 1.367 . S
C2515 C2517 1.433 . S
C2516 C2512 1.350 . S
C2516 C2513 1.463 1_565 S
C2516 N2520 1.427 . S
C2517 H2507 0.929 . S
C2517 C2515 1.433 . S
C2517 N2520 1.384 . S
C2518 H2509 0.909 1_545 S
C2518 C2510 1.378 . S
C2518 C2513 1.350 . S
C2519 H2506 0.929 . S
C2519 C2511 1.433 . S
C2519 N2521 1.384 . S
N2520 C2516 1.427 . S
N2520 C2517 1.384 . S
N2521 C2513 1.427 . S
N2521 C2519 1.384 . S
H2522 C2528 0.930 . S
H2523 C2532 0.930 . S
H2524 C2537 0.929 . S
H2525 C2535 0.929 . S
H2526 C2530 0.929 . S
H2527 C2536 0.929 . S
C2528 H2522 0.930 . S
C2528 C2529 1.367 . S
C2528 C2536 1.378 . S
C2529 C2528 1.367 . S
C2529 C2537 1.433 . S
C2530 H2526 0.929 . S
C2530 C2532 1.378 . S
C2530 C2534 1.350 . S
C2531 C2534 1.463 . S
C2531 C2536 1.350 . S
C2531 N2539 1.427 . S
C2532 H2523 0.930 . S
C2532 C2530 1.378 . S
C2532 C2533 1.367 . S
C2533 C2532 1.367 . S
C2533 C2535 1.433 . S
C2534 C2530 1.350 . S
C2534 C2531 1.463 . S
C2534 N2538 1.427 . S
C2535 H2525 0.929 . S
C2535 C2533 1.433 . S
C2535 N2538 1.384 . S
C2536 H2527 0.929 . S
C2536 C2528 1.378 . S
C2536 C2531 1.350 . S
C2537 H2524 0.929 . S
C2537 C2529 1.433 . S
C2537 N2539 1.384 . S
N2538 C2534 1.427 . S
N2538 C2535 1.384 . S
N2539 C2531 1.427 . S
N2539 C2537 1.384 . S
H2540 C2546 0.930 . S
H2541 C2550 0.930 . S
H2542 C2555 0.929 . S
H2543 C2553 0.929 . S
H2544 C2548 0.929 . S
H2545 C2554 0.929 . S
C2546 H2540 0.930 . S
C2546 C2547 1.367 . S
C2546 C2554 1.378 . S
C2547 C2546 1.367 . S
C2547 C2555 1.433 . S
C2548 H2544 0.929 . S
C2548 C2550 1.378 . S
C2548 C2552 1.350 . S
C2549 C2552 1.463 1_545 S
C2549 C2554 1.350 . S
C2549 N2557 1.427 . S
C2550 H2541 0.930 . S
C2550 C2548 1.378 . S
C2550 C2551 1.367 . S
C2551 C2550 1.367 . S
C2551 C2553 1.433 . S
C2552 C2548 1.350 . S
C2552 C2549 1.463 1_565 S
C2552 N2556 1.427 . S
C2553 H2543 0.929 . S
C2553 C2551 1.433 . S
C2553 N2556 1.384 . S
C2554 H2545 0.929 . S
C2554 C2546 1.378 . S
C2554 C2549 1.350 . S
C2555 H2542 0.929 . S
C2555 C2547 1.433 . S
C2555 N2557 1.384 . S
N2556 C2552 1.427 . S
N2556 C2553 1.384 . S
N2557 C2549 1.427 . S
N2557 C2555 1.384 . S
H2558 C2564 0.930 . S
H2559 C2568 0.930 . S
H2560 C2573 0.929 . S
H2561 C2571 0.929 . S
H2562 C2566 0.929 . S
H2563 C2572 0.929 . S
C2564 H2558 0.930 . S
C2564 C2565 1.367 . S
C2564 C2572 1.378 . S
C2565 C2564 1.367 . S
C2565 C2573 1.433 . S
C2566 H2562 0.929 . S
C2566 C2568 1.378 . S
C2566 C2570 1.350 . S
C2567 C2570 1.463 1_556 S
C2567 C2572 1.350 . S
C2567 N2575 1.427 . S
C2568 H2559 0.930 . S
C2568 C2566 1.378 . S
C2568 C2569 1.367 . S
C2569 C2568 1.367 . S
C2569 C2571 1.433 . S
C2570 C2566 1.350 . S
C2570 C2567 1.463 1_554 S
C2570 N2574 1.427 . S
C2571 H2561 0.929 . S
C2571 C2569 1.433 . S
C2571 N2574 1.384 . S
C2572 H2563 0.929 . S
C2572 C2564 1.378 . S
C2572 C2567 1.350 . S
C2573 H2560 0.929 . S
C2573 C2565 1.433 . S
C2573 N2575 1.384 . S
N2574 C2570 1.427 . S
N2574 C2571 1.384 . S
N2575 C2567 1.427 . S
N2575 C2573 1.384 . S
H2576 C2582 0.930 . S
H2577 C2586 0.930 . S
H2578 C2591 0.929 . S
H2579 C2589 0.929 . S
H2580 C2584 0.929 . S
H2581 C2590 0.929 . S
C2582 H2576 0.930 . S
C2582 C2583 1.367 . S
C2582 C2590 1.378 . S
C2583 C2582 1.367 . S
C2583 C2591 1.433 . S
C2584 H2580 0.929 . S
C2584 C2586 1.378 . S
C2584 C2588 1.350 . S
C2585 C2588 1.463 . S
C2585 C2590 1.350 . S
C2585 N2593 1.427 . S
C2586 H2577 0.930 . S
C2586 C2584 1.378 . S
C2586 C2587 1.367 . S
C2587 C2586 1.367 . S
C2587 C2589 1.433 . S
C2588 C2584 1.350 . S
C2588 C2585 1.463 . S
C2588 N2592 1.427 . S
C2589 H2579 0.929 . S
C2589 C2587 1.433 . S
C2589 N2592 1.384 . S
C2590 H2581 0.929 . S
C2590 C2582 1.378 . S
C2590 C2585 1.350 . S
C2591 H2578 0.929 . S
C2591 C2583 1.433 . S
C2591 N2593 1.384 . S
N2592 C2588 1.427 . S
N2592 C2589 1.384 . S
N2593 C2585 1.427 . S
N2593 C2591 1.384 . S
H2594 C2600 0.930 . S
H2595 C2604 0.930 . S
H2596 C2609 0.929 . S
H2597 C2607 0.929 . S
H2598 C2602 0.929 1_556 S
H2599 C2608 0.929 1_554 S
C2600 H2594 0.930 . S
C2600 C2601 1.367 . S
C2600 C2608 1.378 . S
C2601 C2600 1.367 . S
C2601 C2609 1.433 . S
C2602 H2598 0.929 1_554 S
C2602 C2604 1.378 . S
C2602 C2606 1.350 . S
C2603 C2606 1.463 1_556 S
C2603 C2608 1.350 . S
C2603 N2611 1.427 . S
C2604 H2595 0.930 . S
C2604 C2602 1.378 . S
C2604 C2605 1.367 . S
C2605 C2604 1.367 . S
C2605 C2607 1.433 . S
C2606 C2602 1.350 . S
C2606 C2603 1.463 1_554 S
C2606 N2610 1.427 . S
C2607 H2597 0.929 . S
C2607 C2605 1.433 . S
C2607 N2610 1.384 . S
C2608 H2599 0.929 1_556 S
C2608 C2600 1.378 . S
C2608 C2603 1.350 . S
C2609 H2596 0.929 . S
C2609 C2601 1.433 . S
C2609 N2611 1.384 . S
N2610 C2606 1.427 . S
N2610 C2607 1.384 . S
N2611 C2603 1.427 . S
N2611 C2609 1.384 . S
H2612 C2618 0.930 . S
H2613 C2622 0.930 . S
H2614 C2627 0.929 . S
H2615 C2625 0.929 . S
H2616 C2620 0.929 . S
H2617 C2626 0.929 . S
C2618 H2612 0.930 . S
C2618 C2619 1.367 . S
C2618 C2626 1.378 . S
C2619 C2618 1.367 . S
C2619 C2627 1.433 . S
C2620 H2616 0.929 . S
C2620 C2622 1.378 . S
C2620 C2624 1.350 . S
C2621 C2624 1.463 . S
C2621 C2626 1.350 . S
C2621 N2629 1.427 . S
C2622 H2613 0.930 . S
C2622 C2620 1.378 . S
C2622 C2623 1.367 . S
C2623 C2622 1.367 . S
C2623 C2625 1.433 . S
C2624 C2620 1.350 . S
C2624 C2621 1.463 . S
C2624 N2628 1.427 . S
C2625 H2615 0.929 . S
C2625 C2623 1.433 . S
C2625 N2628 1.384 . S
C2626 H2617 0.929 . S
C2626 C2618 1.378 . S
C2626 C2621 1.350 . S
C2627 H2614 0.929 . S
C2627 C2619 1.433 . S
C2627 N2629 1.384 . S
N2628 C2624 1.427 . S
N2628 C2625 1.384 . S
N2629 C2621 1.427 . S
N2629 C2627 1.384 . S
H2630 C2636 0.930 . S
H2631 C2640 0.930 . S
H2632 C2645 0.929 . S
H2633 C2643 0.929 . S
H2634 C2638 0.929 . S
H2635 C2644 0.929 . S
C2636 H2630 0.930 . S
C2636 C2637 1.367 . S
C2636 C2644 1.378 . S
C2637 C2636 1.367 . S
C2637 C2645 1.433 . S
C2638 H2634 0.929 . S
C2638 C2640 1.378 . S
C2638 C2642 1.350 . S
C2639 C2642 1.463 . S
C2639 C2644 1.350 . S
C2639 N2647 1.427 . S
C2640 H2631 0.930 . S
C2640 C2638 1.378 . S
C2640 C2641 1.367 . S
C2641 C2640 1.367 . S
C2641 C2643 1.433 . S
C2642 C2638 1.350 . S
C2642 C2639 1.463 . S
C2642 N2646 1.427 . S
C2643 H2633 0.929 . S
C2643 C2641 1.433 . S
C2643 N2646 1.384 . S
C2644 H2635 0.929 . S
C2644 C2636 1.378 . S
C2644 C2639 1.350 . S
C2645 H2632 0.929 . S
C2645 C2637 1.433 . S
C2645 N2647 1.384 . S
N2646 C2642 1.427 . S
N2646 C2643 1.384 . S
N2647 C2639 1.427 . S
N2647 C2645 1.384 . S
H2648 C2654 0.930 . S
H2649 C2658 0.930 . S
H2650 C2663 0.929 . S
H2651 C2661 0.929 . S
H2652 C2656 0.929 . S
H2653 C2662 0.929 . S
C2654 H2648 0.930 . S
C2654 C2655 1.367 . S
C2654 C2662 1.378 . S
C2655 C2654 1.367 . S
C2655 C2663 1.433 . S
C2656 H2652 0.929 . S
C2656 C2658 1.378 . S
C2656 C2660 1.350 . S
C2657 C2660 1.463 . S
C2657 C2662 1.350 . S
C2657 N2665 1.427 . S
C2658 H2649 0.930 . S
C2658 C2656 1.378 . S
C2658 C2659 1.367 . S
C2659 C2658 1.367 . S
C2659 C2661 1.433 . S
C2660 C2656 1.350 . S
C2660 C2657 1.463 . S
C2660 N2664 1.427 . S
C2661 H2651 0.929 . S
C2661 C2659 1.433 . S
C2661 N2664 1.384 . S
C2662 H2653 0.929 . S
C2662 C2654 1.378 . S
C2662 C2657 1.350 . S
C2663 H2650 0.929 . S
C2663 C2655 1.433 . S
C2663 N2665 1.384 . S
N2664 C2660 1.427 . S
N2664 C2661 1.384 . S
N2665 C2657 1.427 . S
N2665 C2663 1.384 . S
H2666 C2672 0.930 . S
H2667 C2676 0.930 . S
H2668 C2681 0.929 . S
H2669 C2679 0.929 . S
H2670 C2674 0.889 1_556 S
H2671 C2680 0.888 1_554 S
C2672 H2666 0.930 . S
C2672 C2673 1.367 . S
C2672 C2680 1.378 . S
C2673 C2672 1.367 . S
C2673 C2681 1.433 . S
C2674 H2670 0.889 1_554 S
C2674 C2676 1.378 . S
C2674 C2678 1.350 . S
C2675 C2678 1.463 1_556 S
C2675 C2680 1.350 . S
C2675 N2683 1.427 . S
C2676 H2667 0.930 . S
C2676 C2674 1.378 . S
C2676 C2677 1.367 . S
C2677 C2676 1.367 . S
C2677 C2679 1.433 . S
C2678 C2674 1.350 . S
C2678 C2675 1.463 1_554 S
C2678 N2682 1.427 . S
C2679 H2669 0.929 . S
C2679 C2677 1.433 . S
C2679 N2682 1.384 . S
C2680 H2671 0.888 1_556 S
C2680 C2672 1.378 . S
C2680 C2675 1.350 . S
C2681 H2668 0.929 . S
C2681 C2673 1.433 . S
C2681 N2683 1.384 . S
N2682 C2678 1.427 . S
N2682 C2679 1.384 . S
N2683 C2675 1.427 . S
N2683 C2681 1.384 . S
H2684 C2690 0.930 . S
H2685 C2694 0.930 . S
H2686 C2699 0.929 . S
H2687 C2697 0.929 . S
H2688 C2692 0.929 . S
H2689 C2698 0.929 . S
C2690 H2684 0.930 . S
C2690 C2691 1.367 . S
C2690 C2698 1.378 . S
C2691 C2690 1.367 . S
C2691 C2699 1.433 . S
C2692 H2688 0.929 . S
C2692 C2694 1.378 . S
C2692 C2696 1.350 . S
C2693 C2696 1.463 . S
C2693 C2698 1.350 . S
C2693 N2701 1.427 . S
C2694 H2685 0.930 . S
C2694 C2692 1.378 . S
C2694 C2695 1.367 . S
C2695 C2694 1.367 . S
C2695 C2697 1.433 . S
C2696 C2692 1.350 . S
C2696 C2693 1.463 . S
C2696 N2700 1.427 . S
C2697 H2687 0.929 . S
C2697 C2695 1.433 . S
C2697 N2700 1.384 . S
C2698 H2689 0.929 . S
C2698 C2690 1.378 . S
C2698 C2693 1.350 . S
C2699 H2686 0.929 . S
C2699 C2691 1.433 . S
C2699 N2701 1.384 . S
N2700 C2696 1.427 . S
N2700 C2697 1.384 . S
N2701 C2693 1.427 . S
N2701 C2699 1.384 . S
H2702 C2708 0.930 . S
H2703 C2712 0.930 . S
H2704 C2717 0.929 . S
H2705 C2715 0.929 . S
H2706 C2710 0.929 . S
H2707 C2716 0.929 . S
C2708 H2702 0.930 . S
C2708 C2709 1.367 . S
C2708 C2716 1.378 . S
C2709 C2708 1.367 . S
C2709 C2717 1.433 . S
C2710 H2706 0.929 . S
C2710 C2712 1.378 . S
C2710 C2714 1.350 . S
C2711 C2714 1.463 . S
C2711 C2716 1.350 . S
C2711 N2719 1.427 . S
C2712 H2703 0.930 . S
C2712 C2710 1.378 . S
C2712 C2713 1.367 . S
C2713 C2712 1.367 . S
C2713 C2715 1.433 . S
C2714 C2710 1.350 . S
C2714 C2711 1.463 . S
C2714 N2718 1.427 . S
C2715 H2705 0.929 . S
C2715 C2713 1.433 . S
C2715 N2718 1.384 . S
C2716 H2707 0.929 . S
C2716 C2708 1.378 . S
C2716 C2711 1.350 . S
C2717 H2704 0.929 . S
C2717 C2709 1.433 . S
C2717 N2719 1.384 . S
N2718 C2714 1.427 . S
N2718 C2715 1.384 . S
N2719 C2711 1.427 . S
N2719 C2717 1.384 . S
H2720 C2726 0.930 . S
H2721 C2730 0.930 . S
H2722 C2735 0.929 . S
H2723 C2733 0.929 . S
H2724 C2728 0.929 . S
H2725 C2734 0.929 . S
C2726 H2720 0.930 . S
C2726 C2727 1.367 . S
C2726 C2734 1.378 . S
C2727 C2726 1.367 . S
C2727 C2735 1.433 . S
C2728 H2724 0.929 . S
C2728 C2730 1.378 . S
C2728 C2732 1.350 . S
C2729 C2732 1.463 . S
C2729 C2734 1.350 . S
C2729 N2737 1.427 . S
C2730 H2721 0.930 . S
C2730 C2728 1.378 . S
C2730 C2731 1.367 . S
C2731 C2730 1.367 . S
C2731 C2733 1.433 . S
C2732 C2728 1.350 . S
C2732 C2729 1.463 . S
C2732 N2736 1.427 . S
C2733 H2723 0.929 . S
C2733 C2731 1.433 . S
C2733 N2736 1.384 . S
C2734 H2725 0.929 . S
C2734 C2726 1.378 . S
C2734 C2729 1.350 . S
C2735 H2722 0.929 . S
C2735 C2727 1.433 . S
C2735 N2737 1.384 . S
N2736 C2732 1.427 . S
N2736 C2733 1.384 . S
N2737 C2729 1.427 . S
N2737 C2735 1.384 . S
H2738 C2744 0.930 . S
H2739 C2748 0.930 . S
H2740 C2753 0.929 . S
H2741 C2751 0.929 . S
H2742 C2746 0.929 . S
H2743 C2752 0.929 . S
C2744 H2738 0.930 . S
C2744 C2745 1.367 . S
C2744 C2752 1.378 . S
C2745 C2744 1.367 . S
C2745 C2753 1.433 . S
C2746 H2742 0.929 . S
C2746 C2748 1.378 . S
C2746 C2750 1.350 . S
C2747 C2750 1.463 . S
C2747 C2752 1.350 . S
C2747 N2755 1.427 . S
C2748 H2739 0.930 . S
C2748 C2746 1.378 . S
C2748 C2749 1.367 . S
C2749 C2748 1.367 . S
C2749 C2751 1.433 . S
C2750 C2746 1.350 . S
C2750 C2747 1.463 . S
C2750 N2754 1.427 . S
C2751 H2741 0.929 . S
C2751 C2749 1.433 . S
C2751 N2754 1.384 . S
C2752 H2743 0.929 . S
C2752 C2744 1.378 . S
C2752 C2747 1.350 . S
C2753 H2740 0.929 . S
C2753 C2745 1.433 . S
C2753 N2755 1.384 . S
N2754 C2750 1.427 . S
N2754 C2751 1.384 . S
N2755 C2747 1.427 . S
N2755 C2753 1.384 . S
H2756 C2762 0.930 . S
H2757 C2766 0.930 . S
H2758 C2771 0.929 . S
H2759 C2769 0.929 . S
H2760 C2764 0.929 . S
H2761 C2770 0.929 . S
C2762 H2756 0.930 . S
C2762 C2763 1.367 . S
C2762 C2770 1.378 . S
C2763 C2762 1.367 . S
C2763 C2771 1.433 . S
C2764 H2760 0.929 . S
C2764 C2766 1.378 . S
C2764 C2768 1.350 . S
C2765 C2768 1.463 . S
C2765 C2770 1.350 . S
C2765 N2773 1.427 . S
C2766 H2757 0.930 . S
C2766 C2764 1.378 . S
C2766 C2767 1.367 . S
C2767 C2766 1.367 . S
C2767 C2769 1.433 . S
C2768 C2764 1.350 . S
C2768 C2765 1.463 . S
C2768 N2772 1.427 . S
C2769 H2759 0.929 . S
C2769 C2767 1.433 . S
C2769 N2772 1.384 . S
C2770 H2761 0.929 . S
C2770 C2762 1.378 . S
C2770 C2765 1.350 . S
C2771 H2758 0.929 . S
C2771 C2763 1.433 . S
C2771 N2773 1.384 . S
N2772 C2768 1.427 . S
N2772 C2769 1.384 . S
N2773 C2765 1.427 . S
N2773 C2771 1.384 . S
H2774 C2780 0.930 . S
H2775 C2784 0.930 . S
H2776 C2789 0.929 . S
H2777 C2787 0.929 . S
H2778 C2782 0.929 . S
H2779 C2788 0.929 . S
C2780 H2774 0.930 . S
C2780 C2781 1.367 . S
C2780 C2788 1.378 . S
C2781 C2780 1.367 . S
C2781 C2789 1.433 . S
C2782 H2778 0.929 . S
C2782 C2784 1.378 . S
C2782 C2786 1.350 . S
C2783 C2786 1.463 . S
C2783 C2788 1.350 . S
C2783 N2791 1.427 . S
C2784 H2775 0.930 . S
C2784 C2782 1.378 . S
C2784 C2785 1.367 . S
C2785 C2784 1.367 . S
C2785 C2787 1.433 . S
C2786 C2782 1.350 . S
C2786 C2783 1.463 . S
C2786 N2790 1.427 . S
C2787 H2777 0.929 . S
C2787 C2785 1.433 . S
C2787 N2790 1.384 . S
C2788 H2779 0.929 . S
C2788 C2780 1.378 . S
C2788 C2783 1.350 . S
C2789 H2776 0.929 . S
C2789 C2781 1.433 . S
C2789 N2791 1.384 . S
N2790 C2786 1.427 . S
N2790 C2787 1.384 . S
N2791 C2783 1.427 . S
N2791 C2789 1.384 . S
H2792 C2798 0.930 . S
H2793 C2802 0.930 . S
H2794 C2807 0.929 . S
H2795 C2805 0.929 . S
H2796 C2800 0.929 . S
H2797 C2806 0.929 . S
C2798 H2792 0.930 . S
C2798 C2799 1.367 . S
C2798 C2806 1.378 . S
C2799 C2798 1.367 . S
C2799 C2807 1.433 . S
C2800 H2796 0.929 . S
C2800 C2802 1.378 . S
C2800 C2804 1.350 . S
C2801 C2804 1.463 . S
C2801 C2806 1.350 . S
C2801 N2809 1.427 . S
C2802 H2793 0.930 . S
C2802 C2800 1.378 . S
C2802 C2803 1.367 . S
C2803 C2802 1.367 . S
C2803 C2805 1.433 . S
C2804 C2800 1.350 . S
C2804 C2801 1.463 . S
C2804 N2808 1.427 . S
C2805 H2795 0.929 . S
C2805 C2803 1.433 . S
C2805 N2808 1.384 . S
C2806 H2797 0.929 . S
C2806 C2798 1.378 . S
C2806 C2801 1.350 . S
C2807 H2794 0.929 . S
C2807 C2799 1.433 . S
C2807 N2809 1.384 . S
N2808 C2804 1.427 . S
N2808 C2805 1.384 . S
N2809 C2801 1.427 . S
N2809 C2807 1.384 . S
H2810 C2816 0.930 . S
H2811 C2820 0.930 . S
H2812 C2825 0.929 . S
H2813 C2823 0.929 . S
H2814 C2818 0.929 . S
H2815 C2824 0.929 . S
C2816 H2810 0.930 . S
C2816 C2817 1.367 . S
C2816 C2824 1.378 . S
C2817 C2816 1.367 . S
C2817 C2825 1.433 . S
C2818 H2814 0.929 . S
C2818 C2820 1.378 . S
C2818 C2822 1.350 . S
C2819 C2822 1.463 . S
C2819 C2824 1.350 . S
C2819 N2827 1.427 . S
C2820 H2811 0.930 . S
C2820 C2818 1.378 . S
C2820 C2821 1.367 . S
C2821 C2820 1.367 . S
C2821 C2823 1.433 . S
C2822 C2818 1.350 . S
C2822 C2819 1.463 . S
C2822 N2826 1.427 . S
C2823 H2813 0.929 . S
C2823 C2821 1.433 . S
C2823 N2826 1.384 . S
C2824 H2815 0.929 . S
C2824 C2816 1.378 . S
C2824 C2819 1.350 . S
C2825 H2812 0.929 . S
C2825 C2817 1.433 . S
C2825 N2827 1.384 . S
N2826 C2822 1.427 . S
N2826 C2823 1.384 . S
N2827 C2819 1.427 . S
N2827 C2825 1.384 . S
H2828 C2834 0.930 . S
H2829 C2838 0.930 . S
H2830 C2843 0.929 . S
H2831 C2841 0.929 . S
H2832 C2836 0.929 . S
H2833 C2842 0.929 . S
C2834 H2828 0.930 . S
C2834 C2835 1.367 . S
C2834 C2842 1.378 . S
C2835 C2834 1.367 . S
C2835 C2843 1.433 . S
C2836 H2832 0.929 . S
C2836 C2838 1.378 . S
C2836 C2840 1.350 . S
C2837 C2840 1.463 . S
C2837 C2842 1.350 . S
C2837 N2845 1.427 . S
C2838 H2829 0.930 . S
C2838 C2836 1.378 . S
C2838 C2839 1.367 . S
C2839 C2838 1.367 . S
C2839 C2841 1.433 . S
C2840 C2836 1.350 . S
C2840 C2837 1.463 . S
C2840 N2844 1.427 . S
C2841 H2831 0.929 . S
C2841 C2839 1.433 . S
C2841 N2844 1.384 . S
C2842 H2833 0.929 . S
C2842 C2834 1.378 . S
C2842 C2837 1.350 . S
C2843 H2830 0.929 . S
C2843 C2835 1.433 . S
C2843 N2845 1.384 . S
N2844 C2840 1.427 . S
N2844 C2841 1.384 . S
N2845 C2837 1.427 . S
N2845 C2843 1.384 . S
H2846 C2852 0.930 . S
H2847 C2856 0.930 . S
H2848 C2861 0.929 . S
H2849 C2859 0.929 . S
H2850 C2854 0.929 . S
H2851 C2860 0.929 . S
C2852 H2846 0.930 . S
C2852 C2853 1.367 . S
C2852 C2860 1.378 . S
C2853 C2852 1.367 . S
C2853 C2861 1.433 . S
C2854 H2850 0.929 . S
C2854 C2856 1.378 . S
C2854 C2858 1.350 . S
C2855 C2858 1.463 . S
C2855 C2860 1.350 . S
C2855 N2863 1.427 . S
C2856 H2847 0.930 . S
C2856 C2854 1.378 . S
C2856 C2857 1.367 . S
C2857 C2856 1.367 . S
C2857 C2859 1.433 . S
C2858 C2854 1.350 . S
C2858 C2855 1.463 . S
C2858 N2862 1.427 . S
C2859 H2849 0.929 . S
C2859 C2857 1.433 . S
C2859 N2862 1.384 . S
C2860 H2851 0.929 . S
C2860 C2852 1.378 . S
C2860 C2855 1.350 . S
C2861 H2848 0.929 . S
C2861 C2853 1.433 . S
C2861 N2863 1.384 . S
N2862 C2858 1.427 . S
N2862 C2859 1.384 . S
N2863 C2855 1.427 . S
N2863 C2861 1.384 . S
H2864 C2870 0.930 . S
H2865 C2874 0.930 . S
H2866 C2879 0.929 . S
H2867 C2877 0.929 . S
H2868 C2872 0.929 . S
H2869 C2878 0.929 . S
C2870 H2864 0.930 . S
C2870 C2871 1.367 . S
C2870 C2878 1.378 . S
C2871 C2870 1.367 . S
C2871 C2879 1.433 . S
C2872 H2868 0.929 . S
C2872 C2874 1.378 . S
C2872 C2876 1.350 . S
C2873 C2876 1.463 . S
C2873 C2878 1.350 . S
C2873 N2881 1.427 . S
C2874 H2865 0.930 . S
C2874 C2872 1.378 . S
C2874 C2875 1.367 . S
C2875 C2874 1.367 . S
C2875 C2877 1.433 . S
C2876 C2872 1.350 . S
C2876 C2873 1.463 . S
C2876 N2880 1.427 . S
C2877 H2867 0.929 . S
C2877 C2875 1.433 . S
C2877 N2880 1.384 . S
C2878 H2869 0.929 . S
C2878 C2870 1.378 . S
C2878 C2873 1.350 . S
C2879 H2866 0.929 . S
C2879 C2871 1.433 . S
C2879 N2881 1.384 . S
N2880 C2876 1.427 . S
N2880 C2877 1.384 . S
N2881 C2873 1.427 . S
N2881 C2879 1.384 . S
H2882 C2888 0.930 . S
H2883 C2892 0.930 . S
H2884 C2897 0.929 . S
H2885 C2895 0.929 . S
H2886 C2890 0.929 . S
H2887 C2896 0.929 . S
C2888 H2882 0.930 . S
C2888 C2889 1.367 . S
C2888 C2896 1.378 . S
C2889 C2888 1.367 . S
C2889 C2897 1.433 . S
C2890 H2886 0.929 . S
C2890 C2892 1.378 . S
C2890 C2894 1.350 . S
C2891 C2894 1.463 . S
C2891 C2896 1.350 . S
C2891 N2899 1.427 . S
C2892 H2883 0.930 . S
C2892 C2890 1.378 . S
C2892 C2893 1.367 . S
C2893 C2892 1.367 . S
C2893 C2895 1.433 . S
C2894 C2890 1.350 . S
C2894 C2891 1.463 . S
C2894 N2898 1.427 . S
C2895 H2885 0.929 . S
C2895 C2893 1.433 . S
C2895 N2898 1.384 . S
C2896 H2887 0.929 . S
C2896 C2888 1.378 . S
C2896 C2891 1.350 . S
C2897 H2884 0.929 . S
C2897 C2889 1.433 . S
C2897 N2899 1.384 . S
N2898 C2894 1.427 . S
N2898 C2895 1.384 . S
N2899 C2891 1.427 . S
N2899 C2897 1.384 . S
H2900 C2906 0.930 . S
H2901 C2910 0.930 . S
H2902 C2915 0.929 . S
H2903 C2913 0.929 . S
H2904 C2908 0.929 . S
H2905 C2914 0.929 . S
C2906 H2900 0.930 . S
C2906 C2907 1.367 . S
C2906 C2914 1.378 . S
C2907 C2906 1.367 . S
C2907 C2915 1.433 . S
C2908 H2904 0.929 . S
C2908 C2910 1.378 . S
C2908 C2912 1.350 . S
C2909 C2912 1.463 . S
C2909 C2914 1.350 . S
C2909 N2917 1.427 . S
C2910 H2901 0.930 . S
C2910 C2908 1.378 . S
C2910 C2911 1.367 . S
C2911 C2910 1.367 . S
C2911 C2913 1.433 . S
C2912 C2908 1.350 . S
C2912 C2909 1.463 . S
C2912 N2916 1.427 . S
C2913 H2903 0.929 . S
C2913 C2911 1.433 . S
C2913 N2916 1.384 . S
C2914 H2905 0.929 . S
C2914 C2906 1.378 . S
C2914 C2909 1.350 . S
C2915 H2902 0.929 . S
C2915 C2907 1.433 . S
C2915 N2917 1.384 . S
N2916 C2912 1.427 . S
N2916 C2913 1.384 . S
N2917 C2909 1.427 . S
N2917 C2915 1.384 . S
H2918 C2924 0.930 . S
H2919 C2928 0.930 . S
H2920 C2933 0.929 . S
H2921 C2931 0.929 . S
H2922 C2926 0.929 . S
H2923 C2932 0.929 . S
C2924 H2918 0.930 . S
C2924 C2925 1.367 . S
C2924 C2932 1.378 . S
C2925 C2924 1.367 . S
C2925 C2933 1.433 . S
C2926 H2922 0.929 . S
C2926 C2928 1.378 . S
C2926 C2930 1.350 . S
C2927 C2930 1.463 . S
C2927 C2932 1.350 . S
C2927 N2935 1.427 . S
C2928 H2919 0.930 . S
C2928 C2926 1.378 . S
C2928 C2929 1.367 . S
C2929 C2928 1.367 . S
C2929 C2931 1.433 . S
C2930 C2926 1.350 . S
C2930 C2927 1.463 . S
C2930 N2934 1.427 . S
C2931 H2921 0.929 . S
C2931 C2929 1.433 . S
C2931 N2934 1.384 . S
C2932 H2923 0.929 . S
C2932 C2924 1.378 . S
C2932 C2927 1.350 . S
C2933 H2920 0.929 . S
C2933 C2925 1.433 . S
C2933 N2935 1.384 . S
N2934 C2930 1.427 . S
N2934 C2931 1.384 . S
N2935 C2927 1.427 . S
N2935 C2933 1.384 . S
H2936 C2942 0.930 . S
H2937 C2946 0.930 . S
H2938 C2951 0.929 . S
H2939 C2949 0.929 . S
H2940 C2944 0.929 . S
H2941 C2950 0.929 . S
C2942 H2936 0.930 . S
C2942 C2943 1.367 . S
C2942 C2950 1.378 . S
C2943 C2942 1.367 . S
C2943 C2951 1.433 . S
C2944 H2940 0.929 . S
C2944 C2946 1.378 . S
C2944 C2948 1.350 . S
C2945 C2948 1.463 . S
C2945 C2950 1.350 . S
C2945 N2953 1.427 . S
C2946 H2937 0.930 . S
C2946 C2944 1.378 . S
C2946 C2947 1.367 . S
C2947 C2946 1.367 . S
C2947 C2949 1.433 . S
C2948 C2944 1.350 . S
C2948 C2945 1.463 . S
C2948 N2952 1.427 . S
C2949 H2939 0.929 . S
C2949 C2947 1.433 . S
C2949 N2952 1.384 . S
C2950 H2941 0.929 . S
C2950 C2942 1.378 . S
C2950 C2945 1.350 . S
C2951 H2938 0.929 . S
C2951 C2943 1.433 . S
C2951 N2953 1.384 . S
N2952 C2948 1.427 . S
N2952 C2949 1.384 . S
N2953 C2945 1.427 . S
N2953 C2951 1.384 . S
H2954 C2960 0.930 . S
H2955 C2964 0.930 . S
H2956 C2969 0.929 . S
H2957 C2967 0.929 . S
H2958 C2962 0.929 . S
H2959 C2968 0.929 . S
C2960 H2954 0.930 . S
C2960 C2961 1.367 . S
C2960 C2968 1.378 . S
C2961 C2960 1.367 . S
C2961 C2969 1.433 . S
C2962 H2958 0.929 . S
C2962 C2964 1.378 . S
C2962 C2966 1.350 . S
C2963 C2966 1.463 . S
C2963 C2968 1.350 . S
C2963 N2971 1.427 . S
C2964 H2955 0.930 . S
C2964 C2962 1.378 . S
C2964 C2965 1.367 . S
C2965 C2964 1.367 . S
C2965 C2967 1.433 . S
C2966 C2962 1.350 . S
C2966 C2963 1.463 . S
C2966 N2970 1.427 . S
C2967 H2957 0.929 . S
C2967 C2965 1.433 . S
C2967 N2970 1.384 . S
C2968 H2959 0.929 . S
C2968 C2960 1.378 . S
C2968 C2963 1.350 . S
C2969 H2956 0.929 . S
C2969 C2961 1.433 . S
C2969 N2971 1.384 . S
N2970 C2966 1.427 . S
N2970 C2967 1.384 . S
N2971 C2963 1.427 . S
N2971 C2969 1.384 . S
H2972 C2978 0.930 . S
H2973 C2982 0.930 . S
H2974 C2987 0.929 . S
H2975 C2985 0.929 . S
H2976 C2980 0.929 . S
H2977 C2986 0.929 . S
C2978 H2972 0.930 . S
C2978 C2979 1.367 . S
C2978 C2986 1.378 . S
C2979 C2978 1.367 . S
C2979 C2987 1.433 . S
C2980 H2976 0.929 . S
C2980 C2982 1.378 . S
C2980 C2984 1.350 . S
C2981 C2984 1.463 . S
C2981 C2986 1.350 . S
C2981 N2989 1.427 . S
C2982 H2973 0.930 . S
C2982 C2980 1.378 . S
C2982 C2983 1.367 . S
C2983 C2982 1.367 . S
C2983 C2985 1.433 . S
C2984 C2980 1.350 . S
C2984 C2981 1.463 . S
C2984 N2988 1.427 . S
C2985 H2975 0.929 . S
C2985 C2983 1.433 . S
C2985 N2988 1.384 . S
C2986 H2977 0.929 . S
C2986 C2978 1.378 . S
C2986 C2981 1.350 . S
C2987 H2974 0.929 . S
C2987 C2979 1.433 . S
C2987 N2989 1.384 . S
N2988 C2984 1.427 . S
N2988 C2985 1.384 . S
N2989 C2981 1.427 . S
N2989 C2987 1.384 . S
H2990 C2996 0.930 . S
H2991 C3000 0.930 . S
H2992 C3005 0.929 . S
H2993 C3003 0.929 . S
H2994 C2998 0.929 . S
H2995 C3004 0.929 . S
C2996 H2990 0.930 . S
C2996 C2997 1.367 . S
C2996 C3004 1.378 . S
C2997 C2996 1.367 . S
C2997 C3005 1.433 . S
C2998 H2994 0.929 . S
C2998 C3000 1.378 . S
C2998 C3002 1.350 . S
C2999 C3002 1.463 . S
C2999 C3004 1.350 . S
C2999 N3007 1.427 . S
C3000 H2991 0.930 . S
C3000 C2998 1.378 . S
C3000 C3001 1.367 . S
C3001 C3000 1.367 . S
C3001 C3003 1.433 . S
C3002 C2998 1.350 . S
C3002 C2999 1.463 . S
C3002 N3006 1.427 . S
C3003 H2993 0.929 . S
C3003 C3001 1.433 . S
C3003 N3006 1.384 . S
C3004 H2995 0.929 . S
C3004 C2996 1.378 . S
C3004 C2999 1.350 . S
C3005 H2992 0.929 . S
C3005 C2997 1.433 . S
C3005 N3007 1.384 . S
N3006 C3002 1.427 . S
N3006 C3003 1.384 . S
N3007 C2999 1.427 . S
N3007 C3005 1.384 . S
C1287 C10 1.912 . S
C1291 C135 1.864 . S
C1305 C15 1.867 . S
C1309 C50 1.912 . S
C1323 C90 1.905 . S
C1327 C55 1.856 . S
C1341 C95 1.856 . S
C1345 C130 1.905 . S
C1359 C215 1.860 . S
C1363 C170 1.906 . S
C1377 C210 1.905 . S
C1381 C255 1.857 . S
C1395 C295 1.867 . S
C1399 C250 1.912 . S
C1413 C175 1.866 . S
C1417 C290 1.910 . S
C1431 C339 1.905 . S
C1435 C446 1.856 . S
C1449 C379 1.908 . S
C1453 C326 1.863 . S
C1467 C419 1.912 . S
C1471 C366 1.866 . S
C1485 C459 1.911 . S
C1489 C406 1.867 . S
C1503 C499 1.905 . S
C1507 C526 1.856 . S
C1521 C539 1.910 . S
C1525 C566 1.859 . S
C1539 C606 1.868 . S
C1543 C579 1.912 . S
C1557 C486 1.866 . S
C1561 C619 1.912 . S
C1575 C650 1.905 . S
C1579 C775 1.856 . S
C1593 C655 1.865 . S
C1597 C690 1.912 . S
C1611 C695 1.867 . S
C1615 C730 1.911 . S
C1629 C770 1.907 . S
C1633 C735 1.856 . S
C1647 C810 1.906 . S
C1651 C855 1.858 . S
C1665 C895 1.867 . S
C1669 C850 1.912 . S
C1683 C890 1.911 . S
C1687 C935 1.867 . S
C1701 C815 1.856 . S
C1705 C930 1.905 . S
C1719 C1086 1.855 . S
C1723 C979 1.905 . S
C1737 C966 1.865 . S
C1741 C1019 1.909 . S
C1755 C1059 1.906 . S
C1759 C1006 1.856 . S
C1773 C1046 1.861 . S
C1777 C1099 1.907 . S
C1791 C1166 1.867 . S
C1795 C1139 1.911 . S
C1809 C1206 1.858 . S
C1813 C1179 1.909 . S
C1827 C1246 1.863 . S
C1831 C1219 1.911 . S
C1845 C1259 1.912 . S
C1849 C1126 1.867 . S
C1863 C1090 1.620 . S
C1867 C9 1.615 . S
C1881 C49 1.613 . S
C1885 C330 1.620 . S
C1899 C89 1.607 . S
C1903 C1010 1.615 . S
C1917 C129 1.609 . S
C1921 C410 1.617 . S
C1935 C169 1.615 . S
C1939 C1170 1.619 . S
C1953 C570 1.611 . S
C1957 C209 1.607 . S
C1971 C1250 1.611 . S
C1975 C249 1.612 . S
C1989 C289 1.608 . S
C1993 C490 1.615 . S
C2007 C338 1.608 . S
C2011 C779 1.611 . S
C2025 C19 1.610 . S
C2029 C378 1.609 . S
C2043 C699 1.613 . S
C2047 C418 1.607 . S
C2061 C99 1.617 . S
C2065 C458 1.609 . S
C2079 C859 1.617 . S
C2083 C498 1.608 . S
C2097 C259 1.620 . S
C2101 C538 1.615 . S
C2115 C578 1.608 . S
C2119 C939 1.616 . S
C2133 C618 1.617 . S
C2137 C179 1.619 . S
C2151 C649 1.606 . S
C2155 C450 1.612 . S
C2169 C689 1.607 . S
C2173 C970 1.613 . S
C2187 C729 1.606 . S
C2191 C370 1.614 . S
C2205 C769 1.606 . S
C2209 C1050 1.613 . S
C2223 C809 1.616 . S
C2227 C530 1.618 . S
C2241 C849 1.608 . S
C2245 C1210 1.615 . S
C2259 C610 1.611 . S
C2263 C889 1.608 . S
C2277 C929 1.614 . S
C2281 C1130 1.620 . S
C2295 C139 1.617 . S
C2299 C978 1.616 . S
C2313 C659 1.616 . S
C2317 C1018 1.616 . S
C2331 C59 1.615 . S
C2335 C1058 1.616 . S
C2349 C739 1.612 . S
C2353 C1098 1.613 . S
C2367 C219 1.617 . S
C2371 C1138 1.616 . S
C2385 C1178 1.607 . S
C2389 C899 1.614 . S
C2403 C1218 1.614 . S
C2407 C299 1.620 . S
C2421 C819 1.611 . S
C2425 C1258 1.611 . S
C2439 C18 0.826 . S
C2443 C178 0.837 . S
C2457 C58 0.839 . S
C2461 C218 0.819 . S
C2475 C98 0.833 . S
C2479 C258 0.819 . S
C2493 C298 0.839 . S
C2497 C138 0.822 . S
C2511 C489 0.818 . S
C2515 C329 0.836 . S
C2529 C529 0.820 . S
C2533 C369 0.840 . S
C2547 C409 0.839 . S
C2551 C569 0.824 . S
C2565 C449 0.837 . S
C2569 C609 0.818 . S
C2583 C658 0.837 . S
C2587 C818 0.827 . S
C2601 C858 0.838 . S
C2605 C698 0.825 . S
C2619 C898 0.826 . S
C2623 C738 0.837 . S
C2637 C938 0.824 . S
C2641 C778 0.839 . S
C2655 C1129 0.825 . S
C2659 C969 0.825 . S
C2673 C1009 0.839 . S
C2677 C1169 0.823 . S
C2691 C1209 0.829 . S
C2695 C1049 0.835 . S
C2709 C1089 0.834 . S
C2713 C1249 0.819 . S
C2727 C286 1.327 . S
C2731 C6 1.333 . S
C2745 C46 1.336 . S
C2749 C166 1.333 . S
C2763 C86 1.336 . S
C2767 C206 1.334 . S
C2781 C246 1.336 . S
C2785 C126 1.335 . S
C2799 C335 1.323 . S
C2803 C615 1.329 . S
C2817 C495 1.321 . S
C2821 C375 1.324 . S
C2835 C535 1.335 . S
C2839 C415 1.335 . S
C2853 C455 1.334 . S
C2857 C575 1.336 . S
C2871 C646 1.335 . S
C2875 C926 1.335 . S
C2889 C806 1.336 . S
C2893 C686 1.334 . S
C2907 C846 1.331 . S
C2911 C726 1.325 . S
C2925 C886 1.321 . S
C2929 C766 1.325 . S
C2943 C975 1.334 . S
C2947 C1255 1.328 . S
C2961 C1135 1.333 . S
C2965 C1015 1.326 . S
C2979 C1055 1.333 . S
C2983 C1175 1.326 . S
C2997 C1215 1.335 . S
C3001 C1095 1.334 . S
