# Generated by pormake.
# Topology uou, (4)-cn, num edge types: 1
# Building blocks:
#     Node 0, Type 0, BuildingBlock: QUQFOY_clean_sbu_1, # of connection points: 4
#     Node 1, Type 0, BuildingBlock: QUQFOY_clean_sbu_1, # of connection points: 4
#     Node 2, Type 0, BuildingBlock: QUQFOY_clean_sbu_1, # of connection points: 4
#     Node 3, Type 0, BuildingBlock: QUQFOY_clean_sbu_1, # of connection points: 4
#     Node 4, Type 0, BuildingBlock: QUQFOY_clean_sbu_1, # of connection points: 4
#     Node 5, Type 0, BuildingBlock: QUQFOY_clean_sbu_1, # of connection points: 4
#     Node 6, Type 0, BuildingBlock: QUQFOY_clean_sbu_1, # of connection points: 4
#     Node 7, Type 0, BuildingBlock: QUQFOY_clean_sbu_1, # of connection points: 4
#     Node 8, Type 0, BuildingBlock: QUQFOY_clean_sbu_1, # of connection points: 4
#     Node 9, Type 0, BuildingBlock: QUQFOY_clean_sbu_1, # of connection points: 4
#     Node 10, Type 0, BuildingBlock: QUQFOY_clean_sbu_1, # of connection points: 4
#     Node 11, Type 0, BuildingBlock: QUQFOY_clean_sbu_1, # of connection points: 4
#     Node 12, Type 0, BuildingBlock: QUQFOY_clean_sbu_1, # of connection points: 4
#     Node 13, Type 0, BuildingBlock: QUQFOY_clean_sbu_1, # of connection points: 4
#     Node 14, Type 0, BuildingBlock: QUQFOY_clean_sbu_1, # of connection points: 4
#     Node 15, Type 0, BuildingBlock: QUQFOY_clean_sbu_1, # of connection points: 4
#     Edge 16, Type (0, 0), BuildingBlock: KIFKEQ_clean_linker_1, # of connection points: 2
#     Edge 17, Type (0, 0), BuildingBlock: KIFKEQ_clean_linker_1, # of connection points: 2
#     Edge 18, Type (0, 0), BuildingBlock: KIFKEQ_clean_linker_1, # of connection points: 2
#     Edge 19, Type (0, 0), BuildingBlock: KIFKEQ_clean_linker_1, # of connection points: 2
#     Edge 20, Type (0, 0), BuildingBlock: KIFKEQ_clean_linker_1, # of connection points: 2
#     Edge 21, Type (0, 0), BuildingBlock: KIFKEQ_clean_linker_1, # of connection points: 2
#     Edge 22, Type (0, 0), BuildingBlock: KIFKEQ_clean_linker_1, # of connection points: 2
#     Edge 23, Type (0, 0), BuildingBlock: KIFKEQ_clean_linker_1, # of connection points: 2
#     Edge 24, Type (0, 0), BuildingBlock: KIFKEQ_clean_linker_1, # of connection points: 2
#     Edge 25, Type (0, 0), BuildingBlock: KIFKEQ_clean_linker_1, # of connection points: 2
#     Edge 26, Type (0, 0), BuildingBlock: KIFKEQ_clean_linker_1, # of connection points: 2
#     Edge 27, Type (0, 0), BuildingBlock: KIFKEQ_clean_linker_1, # of connection points: 2
#     Edge 28, Type (0, 0), BuildingBlock: KIFKEQ_clean_linker_1, # of connection points: 2
#     Edge 29, Type (0, 0), BuildingBlock: KIFKEQ_clean_linker_1, # of connection points: 2
#     Edge 30, Type (0, 0), BuildingBlock: KIFKEQ_clean_linker_1, # of connection points: 2
#     Edge 31, Type (0, 0), BuildingBlock: KIFKEQ_clean_linker_1, # of connection points: 2
#     Edge 32, Type (0, 0), BuildingBlock: KIFKEQ_clean_linker_1, # of connection points: 2
#     Edge 33, Type (0, 0), BuildingBlock: KIFKEQ_clean_linker_1, # of connection points: 2
#     Edge 34, Type (0, 0), BuildingBlock: KIFKEQ_clean_linker_1, # of connection points: 2
#     Edge 35, Type (0, 0), BuildingBlock: KIFKEQ_clean_linker_1, # of connection points: 2
#     Edge 36, Type (0, 0), BuildingBlock: KIFKEQ_clean_linker_1, # of connection points: 2
#     Edge 37, Type (0, 0), BuildingBlock: KIFKEQ_clean_linker_1, # of connection points: 2
#     Edge 38, Type (0, 0), BuildingBlock: KIFKEQ_clean_linker_1, # of connection points: 2
#     Edge 39, Type (0, 0), BuildingBlock: KIFKEQ_clean_linker_1, # of connection points: 2
#     Edge 40, Type (0, 0), BuildingBlock: KIFKEQ_clean_linker_1, # of connection points: 2
#     Edge 41, Type (0, 0), BuildingBlock: KIFKEQ_clean_linker_1, # of connection points: 2
#     Edge 42, Type (0, 0), BuildingBlock: KIFKEQ_clean_linker_1, # of connection points: 2
#     Edge 43, Type (0, 0), BuildingBlock: KIFKEQ_clean_linker_1, # of connection points: 2
#     Edge 44, Type (0, 0), BuildingBlock: KIFKEQ_clean_linker_1, # of connection points: 2
#     Edge 45, Type (0, 0), BuildingBlock: KIFKEQ_clean_linker_1, # of connection points: 2
#     Edge 46, Type (0, 0), BuildingBlock: KIFKEQ_clean_linker_1, # of connection points: 2
#     Edge 47, Type (0, 0), BuildingBlock: KIFKEQ_clean_linker_1, # of connection points: 2
# Relax obj value: 0.062
# Max RMSD: 0.100
# Mean RMSD: 0.100
data_MOF--net-uou--node1-QUQFOY_clean_sbu_1--edge1-KIFKEQ_clean_linker_1
_symmetry_space_group_name_H-M    P1
_symmetry_Int_Tables_number       1
_symmetry_cell_setting            triclinic
loop_
_symmetry_equiv_pos_as_xyz
'x, y, z'
_cell_length_a     41.42801
_cell_length_b     38.30902
_cell_length_c     57.239599
_cell_angle_alpha  89.991797
_cell_angle_beta   90.005995
_cell_angle_gamma 90.00584
loop_
_atom_site_label
_atom_site_type_symbol
_atom_site_fract_x
_atom_site_fract_y
_atom_site_fract_z
_atom_type_partial_charge
O0 O 0.04424 0.09534 0.14251 0.0
Cd1 Cd 0.05551 0.04295 0.14243 0.0
Cd2 Cd 0.11085 0.06718 0.12581 0.0
O3 O 0.09396 0.11469 0.13795 0.0
O4 O 1.02511 0.02072 0.16487 0.0
O5 O 0.0779 0.02384 0.17072 0.0
C6 C 0.0496 0.01518 0.17829 0.0
C7 C 0.16399 0.04905 0.13277 0.0
C8 C 0.06423 0.12049 0.14193 0.0
C9 C 0.06705 0.02735 0.09304 0.0
O10 O 0.09032 0.04877 0.09519 0.0
O11 O 0.05129 0.0176 0.11092 0.0
O12 O 0.15738 0.07312 0.11776 0.0
O13 O 0.14037 0.03599 0.14464 0.0
O14 O 0.50341 0.89384 0.14501 0.0
Cd15 Cd 0.49622 0.94684 0.14307 0.0
Cd16 Cd 0.44019 0.92648 0.12291 0.0
O17 O 0.45562 0.87693 0.13231 0.0
O18 O 0.52751 0.96724 0.16569 0.0
O19 O 0.47452 0.96982 0.17043 0.0
C20 C 0.50315 0.97601 0.17841 0.0
C21 C 0.38717 0.94465 0.13027 0.0
C22 C 0.48345 0.86963 0.14037 0.0
C23 C 0.48831 0.96562 0.09297 0.0
O24 O 0.46197 0.94866 0.09399 0.0
O25 O 0.50532 0.96995 0.11122 0.0
O26 O 0.39383 0.92283 0.11381 0.0
O27 O 0.41066 0.95541 0.14327 0.0
O28 O 0.55028 0.89162 0.3797 0.0
Cd29 Cd 0.55808 0.94446 0.38211 0.0
Cd30 Cd 0.61397 0.92293 0.4018 0.0
O31 O 0.59806 0.87376 0.3918 0.0
O32 O 0.52684 0.96572 0.3598 0.0
O33 O 0.57982 0.96774 0.35488 0.0
C34 C 0.55121 0.97442 0.34705 0.0
C35 C 0.66677 0.9416 0.39415 0.0
C36 C 0.57002 0.86703 0.38389 0.0
C37 C 0.56651 0.96176 0.4324 0.0
O38 O 0.59261 0.94441 0.43112 0.0
O39 O 0.54952 0.9669 0.41423 0.0
O40 O 0.66054 0.91921 0.41035 0.0
O41 O 0.64299 0.95259 0.38152 0.0
O42 O 1.00851 0.09665 0.38329 0.0
Cd43 Cd 0.99727 0.04425 0.38338 0.0
Cd44 Cd 0.94143 0.0683 0.39902 0.0
O45 O 0.95846 0.11563 0.38653 0.0
O46 O 0.02777 0.02173 0.36113 0.0
O47 O 0.97503 0.02511 0.35506 0.0
C48 C 1.00335 0.01625 0.34763 0.0
C49 C 0.88852 0.04956 0.39175 0.0
C50 C 0.98832 0.12161 0.38317 0.0
C51 C 0.98458 0.02919 0.43263 0.0
O52 O 0.96141 0.05062 0.43004 0.0
O53 O 1.00072 0.01912 0.41501 0.0
O54 O 0.89468 0.07407 0.40653 0.0
O55 O 0.91245 0.03645 0.38024 0.0
O56 O 0.95867 0.94294 0.93165 0.0
Cd57 Cd 0.93857 0.92203 0.90165 0.0
Cd58 Cd 0.9942 0.94423 0.88277 0.0
O59 O 1.00107 0.9672 0.91488 0.0
O60 O 0.89105 0.91804 0.90717 0.0
O61 O 0.91232 0.95375 0.88099 0.0
C62 C 0.88699 0.9418 0.89146 0.0
C63 C 1.00082 0.97399 0.84764 0.0
C64 C 0.98421 0.96128 0.93301 0.0
C65 C 0.98387 0.86688 0.88432 0.0
O66 O 1.00361 0.89169 0.88081 0.0
O67 O 0.95533 0.87333 0.89133 0.0
O68 O 1.02521 0.96634 0.86067 0.0
O69 O 0.9723 0.96638 0.85524 0.0
O70 O 0.5949 0.05061 0.93017 0.0
Cd71 Cd 0.61399 0.0685 0.89905 0.0
Cd72 Cd 0.5585 0.04356 0.88244 0.0
O73 O 0.55494 0.0202 0.91487 0.0
O74 O 0.66157 0.07359 0.90382 0.0
O75 O 0.64012 0.03503 0.87959 0.0
C76 C 0.66553 0.04826 0.88925 0.0
C77 C 0.55153 0.01399 0.84723 0.0
C78 C 0.57127 0.02971 0.93258 0.0
C79 C 0.56687 0.12128 0.88203 0.0
O80 O 0.54722 0.09588 0.88074 0.0
O81 O 0.59633 0.11582 0.88716 0.0
O82 O 0.52744 0.02013 0.86091 0.0
O83 O 0.58003 0.02281 0.85429 0.0
O84 O 0.45997 0.0463 0.59503 0.0
Cd85 Cd 0.43971 0.06571 0.62531 0.0
Cd86 Cd 0.49525 0.04162 0.64289 0.0
O87 O 0.50048 0.01747 0.61084 0.0
O88 O 0.39311 0.07125 0.61733 0.0
O89 O 0.41036 0.03533 0.64486 0.0
C90 C 0.38664 0.04783 0.63281 0.0
C91 C 0.50182 0.01282 0.67842 0.0
C92 C 0.48409 0.02604 0.59296 0.0
C93 C 0.48599 0.11949 0.64193 0.0
O94 O 0.50564 0.09423 0.64418 0.0
O95 O 0.45679 0.11373 0.6362 0.0
O96 O 0.52613 0.01931 0.66502 0.0
O97 O 0.47334 0.02094 0.67095 0.0
O98 O 0.08968 0.94619 0.59528 0.0
Cd99 Cd 0.11055 0.92493 0.625 0.0
Cd100 Cd 0.05416 0.94602 0.64315 0.0
O101 O 0.04727 0.9707 0.61175 0.0
O102 O 0.15704 0.92032 0.61642 0.0
O103 O 0.14007 0.95455 0.64496 0.0
C104 C 0.16364 0.94294 0.63239 0.0
C105 C 0.04785 0.97412 0.67887 0.0
C106 C 0.06432 0.96477 0.59375 0.0
C107 C 0.06546 0.86894 0.64086 0.0
O108 O 0.04502 0.89334 0.64344 0.0
O109 O 0.09453 0.8759 0.63535 0.0
O110 O 1.02334 0.96694 0.66584 0.0
O111 O 0.07633 0.96674 0.67106 0.0
O112 O 0.54472 0.59632 0.14063 0.0
Cd113 Cd 0.55587 0.54395 0.13905 0.0
Cd114 Cd 0.61151 0.56855 0.12255 0.0
O115 O 0.59392 0.61596 0.13421 0.0
O116 O 0.52505 0.52058 0.16078 0.0
O117 O 0.57771 0.52342 0.16714 0.0
C118 C 0.5493 0.51457 0.17435 0.0
C119 C 0.663 0.54855 0.13264 0.0
C120 C 0.56449 0.6216 0.1393 0.0
C121 C 0.56892 0.52963 0.08901 0.0
O122 O 0.59263 0.5504 0.09144 0.0
O123 O 0.55238 0.52039 0.10668 0.0
O124 O 0.65908 0.57362 0.11785 0.0
O125 O 0.63756 0.53543 0.1423 0.0
O126 O 1.00313 0.39374 0.13814 0.0
Cd127 Cd 0.99102 0.44583 0.13739 0.0
Cd128 Cd 0.9354 0.42063 0.12258 0.0
O129 O 0.95323 0.37413 0.13587 0.0
O130 O 1.02187 0.46961 0.15887 0.0
O131 O 0.96943 0.46525 0.16584 0.0
C132 C 0.9978 0.47479 0.17275 0.0
C133 C 0.88413 0.4414 0.13257 0.0
C134 C 0.98319 0.36858 0.13899 0.0
C135 C 0.97664 0.45897 0.08784 0.0
O136 O 0.95393 0.43705 0.09077 0.0
O137 O 0.99278 0.46983 0.10528 0.0
O138 O 0.88772 0.41537 0.1185 0.0
O139 O 0.90979 0.45511 0.14154 0.0
O140 O 0.04441 0.39601 0.37793 0.0
Cd141 Cd 0.0533 0.44875 0.37763 0.0
Cd142 Cd 0.1097 0.42826 0.39629 0.0
O143 O 0.09396 0.37896 0.38627 0.0
O144 O 1.02224 0.46881 0.35478 0.0
O145 O 0.0752 0.46907 0.34946 0.0
C146 C 0.04663 0.47598 0.34162 0.0
C147 C 0.16304 0.44604 0.38941 0.0
C148 C 0.06493 0.37176 0.38079 0.0
C149 C 0.06278 0.46846 0.4269 0.0
O150 O 0.08822 0.44995 0.42565 0.0
O151 O 0.04595 0.47409 0.40875 0.0
O152 O 0.15599 0.42376 0.4055 0.0
O153 O 0.13978 0.45747 0.37646 0.0
O154 O 0.50654 0.59435 0.37844 0.0
Cd155 Cd 0.49597 0.54176 0.37931 0.0
Cd156 Cd 0.44056 0.56567 0.39726 0.0
O157 O 0.45777 0.61383 0.38671 0.0
O158 O 0.52649 0.51968 0.35684 0.0
O159 O 0.47363 0.52163 0.35125 0.0
C160 C 0.50199 0.51346 0.34357 0.0
C161 C 0.38726 0.54831 0.38987 0.0
C162 C 0.48697 0.61963 0.38098 0.0
C163 C 0.48519 0.52528 0.42912 0.0
O164 O 0.46107 0.54559 0.42728 0.0
O165 O 0.50145 0.517 0.41112 0.0
O166 O 0.39404 0.57136 0.40553 0.0
O167 O 0.41079 0.53588 0.37761 0.0
O168 O 0.46116 0.44704 0.9274 0.0
Cd169 Cd 0.43954 0.42479 0.89845 0.0
Cd170 Cd 0.49553 0.44588 0.87836 0.0
O171 O 0.50429 0.46898 0.91025 0.0
O172 O 0.39328 0.42036 0.9077 0.0
O173 O 0.40943 0.4536 0.8784 0.0
C174 C 0.3862 0.44236 0.89145 0.0
C175 C 0.50248 0.47526 0.84308 0.0
C176 C 0.48731 0.46434 0.92848 0.0
C177 C 0.48349 0.36851 0.88093 0.0
O178 O 0.50324 0.39296 0.8764 0.0
O179 O 0.45552 0.37547 0.88889 0.0
O180 O 0.52681 0.46665 0.85589 0.0
O181 O 0.47384 0.46876 0.85094 0.0
O182 O 0.08648 0.53873 0.92681 0.0
Cd183 Cd 0.10837 0.56169 0.8982 0.0
Cd184 Cd 0.05276 0.54107 0.87777 0.0
O185 O 0.04369 0.51685 0.9092 0.0
O186 O 0.15452 0.56606 0.90778 0.0
O187 O 0.1388 0.53351 0.87802 0.0
C188 C 0.16186 0.54451 0.89133 0.0
C189 C 0.04673 0.51265 0.8421 0.0
C190 C 0.06043 0.52121 0.92757 0.0
C191 C 0.06427 0.61833 0.88147 0.0
O192 O 0.04458 0.59395 0.87666 0.0
O193 O 0.09234 0.61121 0.88918 0.0
O194 O 1.02209 0.5207 0.85475 0.0
O195 O 0.07516 0.51924 0.85029 0.0
O196 O 0.95818 0.55133 0.59096 0.0
Cd197 Cd 0.93952 0.56752 0.62279 0.0
Cd198 Cd 0.99519 0.54229 0.6374 0.0
O199 O 0.99687 0.51818 0.60534 0.0
O200 O 0.89189 0.57324 0.61845 0.0
O201 O 0.91337 0.53304 0.64142 0.0
C202 C 0.88792 0.54707 0.63235 0.0
C203 C 1.00119 0.51349 0.67288 0.0
C204 C 0.9808 0.52931 0.58794 0.0
C205 C 0.98754 0.61946 0.63903 0.0
O206 O 1.00749 0.59435 0.63795 0.0
O207 O 0.95751 0.61387 0.63623 0.0
O208 O 0.02552 0.51834 0.65918 0.0
O209 O 0.97301 0.52331 0.66573 0.0
O210 O 0.59402 0.44166 0.59079 0.0
Cd211 Cd 0.61435 0.42145 0.62091 0.0
Cd212 Cd 0.55866 0.44385 0.63992 0.0
O213 O 0.55137 0.46564 0.60742 0.0
O214 O 0.66179 0.4174 0.61517 0.0
O215 O 0.64077 0.45353 0.6412 0.0
C216 C 0.666 0.44139 0.63069 0.0
C217 C 0.55161 0.47445 0.67471 0.0
C218 C 0.56825 0.45957 0.58931 0.0
C219 C 0.56962 0.36648 0.63926 0.0
O220 O 0.54986 0.39127 0.64276 0.0
O221 O 0.59792 0.37288 0.63172 0.0
O222 O 0.52735 0.46617 0.66173 0.0
O223 O 0.58024 0.46711 0.6672 0.0
H224 H 0.3613 0.98071 0.16739 0.0
H225 H 0.33788 0.93989 0.09908 0.0
H226 H 0.30697 0.00626 0.1701 0.0
H227 H 0.28432 0.96593 0.10168 0.0
H228 H 0.21403 0.0596 0.10286 0.0
H229 H 0.2677 0.03361 0.10416 0.0
H230 H 0.24378 0.9819 0.16882 0.0
H231 H 0.18936 0.00742 0.16737 0.0
C232 C 0.34457 0.97703 0.15306 0.0
C233 C 0.35391 0.95834 0.13301 0.0
C234 C 0.31354 0.99154 0.15465 0.0
C235 C 0.29166 0.9882 0.13602 0.0
C236 C 0.30085 0.96907 0.1162 0.0
C237 C 0.33149 0.95406 0.11479 0.0
C238 C 0.22018 0.04295 0.1175 0.0
C239 C 0.19736 0.03547 0.13498 0.0
C240 C 0.25088 0.02798 0.11816 0.0
C241 C 0.25974 0.00567 0.13652 0.0
C242 C 0.23748 -0.00088 0.15452 0.0
C243 C 0.20639 0.01362 0.15363 0.0
H244 H 0.69191 0.97862 0.35718 0.0
H245 H 0.7164 0.93698 0.42506 0.0
H246 H 0.74589 0.00503 0.35443 0.0
H247 H 0.76959 0.96394 0.42245 0.0
H248 H 0.8381 0.05964 0.4214 0.0
H249 H 0.7848 0.03272 0.42004 0.0
H250 H 0.80986 0.98085 0.35568 0.0
H251 H 0.86393 0.00724 0.35722 0.0
C252 C 0.70881 0.97493 0.3714 0.0
C253 C 0.69987 0.95574 0.39135 0.0
C254 C 0.73964 0.98995 0.36979 0.0
C255 C 0.7617 0.98663 0.3883 0.0
C256 C 0.75292 0.96703 0.40801 0.0
C257 C 0.72249 0.9515 0.40943 0.0
C258 C 0.83228 0.04277 0.40681 0.0
C259 C 0.85532 0.03549 0.38945 0.0
C260 C 0.80179 0.02728 0.40611 0.0
C261 C 0.79336 0.00465 0.38782 0.0
C262 C 0.81583 -0.0017 0.36993 0.0
C263 C 0.84671 0.01331 0.37087 0.0
H264 H 0.87143 0.00305 0.86951 0.0
H265 H 0.82885 0.91307 0.90296 0.0
H266 H 0.81776 0.02916 0.86538 0.0
H267 H 0.77535 0.93898 0.89856 0.0
H268 H 0.68107 0.98486 0.87025 0.0
H269 H 0.73474 0.95844 0.86726 0.0
H270 H 0.77724 0.05214 0.89566 0.0
H271 H 0.72371 0.0784 0.89893 0.0
C272 C 0.8506 0.98861 0.87565 0.0
C273 C 0.85439 0.95606 0.88666 0.0
C274 C 0.81992 0.00364 0.87337 0.0
C275 C 0.79238 0.98613 0.88168 0.0
C276 C 0.79608 0.95296 0.89182 0.0
C277 C 0.82675 0.93822 0.89444 0.0
C278 C 0.70191 -2e-05 0.87556 0.0
C279 C 0.69813 0.03366 0.88493 0.0
C280 C 0.73259 0.98478 0.87395 0.0
C281 C 0.76016 0.0032 0.88127 0.0
C282 C 0.75648 0.03742 0.8897 0.0
C283 C 0.7258 0.05237 0.89168 0.0
H284 H 0.21324 0.93619 0.60163 0.0
H285 H 0.18929 0.98098 0.66871 0.0
H286 H 0.26678 0.96239 0.60377 0.0
H287 H 0.24361 0.00667 0.67098 0.0
H288 H 0.36149 0.00769 0.6683 0.0
H289 H 0.30715 0.98204 0.67034 0.0
H290 H 0.28289 0.03066 0.60469 0.0
H291 H 0.33647 0.05682 0.60279 0.0
C292 C 0.21952 0.95124 0.617 0.0
C293 C 0.19694 0.9566 0.63498 0.0
C294 C 0.25015 0.96634 0.61814 0.0
C295 C 0.25918 0.98663 0.63747 0.0
C296 C 0.23717 0.99104 0.65592 0.0
C297 C 0.20614 0.97644 0.65457 0.0
C298 C 0.34439 0.0132 0.65447 0.0
C299 C 0.35331 0.03424 0.63537 0.0
C300 C 0.31336 -0.00138 0.65569 0.0
C301 C 0.29103 0.00425 0.63759 0.0
C302 C 0.29977 0.02576 0.61878 0.0
C303 C 0.33042 0.04083 0.61778 0.0
H304 H 0.86908 0.50467 0.15196 0.0
H305 H 0.82571 0.41163 0.12311 0.0
H306 H 0.81556 0.53116 0.15565 0.0
H307 H 0.77236 0.438 0.12696 0.0
H308 H 0.67857 0.48645 0.15348 0.0
H309 H 0.73221 0.46017 0.15711 0.0
H310 H 0.77461 0.55169 0.12556 0.0
H311 H 0.72115 0.57784 0.12178 0.0
C312 C 0.84812 0.48968 0.14673 0.0
C313 C 0.85165 0.45612 0.13713 0.0
C314 C 0.81752 0.50492 0.14874 0.0
C315 C 0.78978 0.48668 0.14155 0.0
C316 C 0.79323 0.45259 0.13285 0.0
C317 C 0.82383 0.43756 0.13052 0.0
C318 C 0.69939 0.50114 0.14761 0.0
C319 C 0.6956 0.53415 0.13723 0.0
C320 C 0.73005 0.48602 0.14959 0.0
C321 C 0.75759 0.50384 0.14156 0.0
C322 C 0.7539 0.53744 0.13209 0.0
C323 C 0.72324 0.55233 0.1298 0.0
H324 H 0.3616 0.50889 0.35421 0.0
H325 H 0.33723 0.55752 0.42 0.0
H326 H 0.30698 0.48398 0.35207 0.0
H327 H 0.28336 0.53214 0.41799 0.0
H328 H 0.21201 0.43943 0.42072 0.0
H329 H 0.26581 0.46501 0.41889 0.0
H330 H 0.24419 0.50852 0.35117 0.0
H331 H 0.18962 0.48341 0.35311 0.0
C332 C 0.34459 0.51445 0.36809 0.0
C333 C 0.35378 0.53512 0.3873 0.0
C334 C 0.31338 0.50029 0.36681 0.0
C335 C 0.29113 0.506 0.38495 0.0
C336 C 0.30015 0.52715 0.40387 0.0
C337 C 0.33099 0.54178 0.40494 0.0
C338 C 0.21868 0.4542 0.40532 0.0
C339 C 0.19646 0.45948 0.38708 0.0
C340 C 0.24946 0.46896 0.40435 0.0
C341 C 0.25903 0.48884 0.38495 0.0
C342 C 0.23735 0.4932 0.36629 0.0
C343 C 0.20618 0.47894 0.36745 0.0
H344 H 0.21093 0.55156 0.92254 0.0
H345 H 0.18858 0.50733 0.855 0.0
H346 H 0.26481 0.52625 0.92068 0.0
H347 H 0.24319 0.4824 0.85306 0.0
H348 H 0.35995 0.48046 0.85536 0.0
H349 H 0.30541 0.50557 0.85335 0.0
H350 H 0.28302 0.46034 0.92044 0.0
H351 H 0.33682 0.43485 0.92234 0.0
C352 C 0.21761 0.53678 0.90715 0.0
C353 C 0.19538 0.53135 0.88895 0.0
C354 C 0.24845 0.52217 0.90617 0.0
C355 C 0.25805 0.50222 0.88681 0.0
C356 C 0.23636 0.49775 0.86816 0.0
C357 C 0.20515 0.51192 0.86932 0.0
C358 C 0.34323 0.47561 0.86954 0.0
C359 C 0.35275 0.45572 0.88903 0.0
C360 C 0.31207 0.48989 0.86834 0.0
C361 C 0.29017 0.48507 0.88683 0.0
C362 C 0.29954 0.4647 0.90605 0.0
C363 C 0.33033 0.44998 0.90706 0.0
H364 H 0.68195 0.50261 0.65256 0.0
H365 H 0.72393 0.41259 0.6188 0.0
H366 H 0.73573 0.52853 0.65646 0.0
H367 H 0.77753 0.43832 0.62292 0.0
H368 H 0.87223 0.48332 0.65074 0.0
H369 H 0.81847 0.45718 0.65381 0.0
H370 H 0.77617 0.55168 0.62643 0.0
H371 H 0.82979 0.5777 0.62315 0.0
C372 C 0.70267 0.48814 0.64629 0.0
C373 C 0.69867 0.45562 0.63528 0.0
C374 C 0.73341 0.50305 0.64843 0.0
C375 C 0.76082 0.48547 0.63996 0.0
C376 C 0.75691 0.45236 0.62979 0.0
C377 C 0.72618 0.43772 0.62732 0.0
C378 C 0.85142 0.49867 0.64566 0.0
C379 C 0.85528 0.53252 0.63659 0.0
C380 C 0.82068 0.48363 0.64732 0.0
C381 C 0.79314 0.50236 0.64031 0.0
C382 C 0.79691 0.53671 0.63215 0.0
C383 C 0.82765 0.55154 0.63016 0.0
H384 H 0.05722 0.98562 0.32931 0.0
H385 H 0.9611 0.01971 0.31114 0.0
H386 H 0.06883 0.97475 0.28821 0.0
H387 H 0.97302 0.01045 0.27007 0.0
H388 H 0.99582 0.98465 0.19681 0.0
H389 H 0.98427 0.97431 0.23798 0.0
H390 H 0.08008 0.01037 0.25585 0.0
H391 H 0.09194 0.01909 0.2147 0.0
C392 C 0.03843 0.99038 0.31654 0.0
C393 C 1.00835 0.00384 0.32343 0.0
C394 C 0.04516 0.98441 0.29294 0.0
C395 C 1.02211 0.99224 0.27566 0.0
C396 C 0.99133 0.00371 0.28278 0.0
C397 C 0.98448 0.00922 0.3064 0.0
C398 C 1.01463 0.98959 0.20954 0.0
C399 C 0.04469 0.003 0.20255 0.0
C400 C 1.00793 0.98393 0.23318 0.0
C401 C 0.03099 0.99205 0.2504 0.0
C402 C 0.06175 0.00343 0.24319 0.0
C403 C 0.06858 0.00862 0.21952 0.0
H404 H 0.46092 0.97378 0.21489 0.0
H405 H 0.55737 0.00622 0.1964 0.0
H406 H 0.47324 0.98275 0.25592 0.0
H407 H 0.56937 0.01719 0.23742 0.0
H408 H 0.59337 0.97276 0.31053 0.0
H409 H 0.58103 0.9825 0.26959 0.0
H410 H 0.48499 0.01679 0.2884 0.0
H411 H 0.49701 0.00506 0.32933 0.0
C412 C 0.48444 0.98398 0.21957 0.0
C413 C 0.5083 0.98886 0.20248 0.0
C414 C 0.49156 0.98932 0.24318 0.0
C415 C 0.52257 0.00026 0.25021 0.0
C416 C 0.54554 0.00783 0.23282 0.0
C417 C 0.53859 0.00185 0.20925 0.0
C418 C 0.56986 0.98309 0.30595 0.0
C419 C 0.54604 0.98771 0.32309 0.0
C420 C 0.56274 0.98887 0.28239 0.0
C421 C 0.53174 0.0 0.27546 0.0
C422 C 0.50879 0.0073 0.29292 0.0
C423 C 0.51576 0.00089 0.31644 0.0
H424 H 0.09007 0.97082 0.71534 0.0
H425 H 0.99415 0.00525 0.69697 0.0
H426 H 0.07808 0.98029 0.75638 0.0
H427 H 0.9825 0.01656 0.73799 0.0
H428 H 0.95845 0.97226 0.81123 0.0
H429 H 0.97063 0.98163 0.77023 0.0
H430 H 0.06694 0.0155 0.78866 0.0
H431 H 0.05506 0.00429 0.82968 0.0
C432 C 0.06674 0.98149 0.72004 0.0
C433 C 0.04291 0.98683 0.70298 0.0
C434 C 0.05983 0.98713 0.74364 0.0
C435 C 0.02907 -0.00122 0.7507 0.0
C436 C 1.00614 0.0067 0.73335 0.0
C437 C 1.01289 0.0005 0.70978 0.0
C438 C 0.98199 0.98243 0.80657 0.0
C439 C 1.00593 0.98708 0.82363 0.0
C440 C 0.98901 0.988 0.78298 0.0
C441 C 1.02002 -0.00112 0.77594 0.0
C442 C 0.0431 0.00622 0.7933 0.0
C443 C 0.03622 9e-05 0.81686 0.0
H444 H 0.55589 0.98213 0.69638 0.0
H445 H 0.46007 0.01633 0.7152 0.0
H446 H 0.56818 0.9716 0.73741 0.0
H447 H 0.47269 0.00754 0.75623 0.0
H448 H 0.49702 0.98364 0.82959 0.0
H449 H 0.48448 0.9726 0.78865 0.0
H450 H 0.58026 0.00714 0.76941 0.0
H451 H 0.59309 0.01647 0.81032 0.0
C452 C 0.5373 0.98697 0.70929 0.0
C453 C 0.50711 0.00036 0.70259 0.0
C454 C 0.54443 0.98123 0.73286 0.0
C455 C 0.52171 0.98929 0.75033 0.0
C456 C 0.49079 0.00063 0.7434 0.0
C457 C 0.48352 0.00586 0.7198 0.0
C458 C 0.51561 0.98807 0.81661 0.0
C459 C 0.54596 0.00122 0.82316 0.0
C460 C 0.50834 0.98203 0.79309 0.0
C461 C 0.53109 0.98951 0.77553 0.0
C462 C 0.56213 0.00065 0.78232 0.0
C463 C 0.56952 0.0062 0.80586 0.0
H464 H 0.59137 0.51701 0.21096 0.0
H465 H 0.49493 0.48447 0.19242 0.0
H466 H 0.57909 0.50778 0.25196 0.0
H467 H 0.48294 0.47353 0.23346 0.0
H468 H 0.45976 0.51736 0.30708 0.0
H469 H 0.47176 0.50861 0.26595 0.0
H470 H 0.56737 0.47219 0.28404 0.0
H471 H 0.55571 0.48266 0.32517 0.0
C472 C 0.56783 0.50683 0.2156 0.0
C473 C 0.54401 0.5019 0.19848 0.0
C474 C 0.56076 0.50133 0.2392 0.0
C475 C 0.52979 0.4903 0.24622 0.0
C476 C 0.50676 0.48287 0.22883 0.0
C477 C 0.51372 0.48885 0.20525 0.0
C478 C 0.48311 0.50681 0.3023 0.0
C479 C 0.50692 0.50114 0.31933 0.0
C480 C 0.49002 0.5016 0.27864 0.0
C481 C 0.52078 0.49012 0.27149 0.0
C482 C 0.54373 0.48192 0.28878 0.0
C483 C 0.53696 0.48764 0.3124 0.0
H484 H 0.99258 0.50626 0.32348 0.0
H485 H 0.08865 0.47248 0.30501 0.0
H486 H 0.98055 0.51684 0.28243 0.0
H487 H 0.07629 0.4813 0.26392 0.0
H488 H 0.05211 0.50546 0.1905 0.0
H489 H 0.06446 0.51644 0.23149 0.0
H490 H 0.96889 0.48095 0.25051 0.0
H491 H 0.95624 0.47166 0.2096 0.0
C492 C 1.01126 0.50149 0.31063 0.0
C493 C 0.04145 0.48821 0.31742 0.0
C494 C 1.0043 0.50728 0.28706 0.0
C495 C 0.02717 0.49934 0.26968 0.0
C496 C 0.05808 0.4881 0.27669 0.0
C497 C 0.0652 0.48285 0.30032 0.0
C498 C 0.03352 0.50081 0.20344 0.0
C499 C 1.00329 0.4874 0.19685 0.0
C500 C 0.04068 0.50682 0.22698 0.0
C501 C 1.01792 0.49908 0.24448 0.0
C502 C 0.98701 0.48766 0.23765 0.0
C503 C 0.97972 0.48212 0.2141 0.0
H504 H 0.59352 0.47299 0.71139 0.0
H505 H 0.49723 0.50511 0.69221 0.0
H506 H 0.58087 0.48264 0.75227 0.0
H507 H 0.48489 0.51671 0.7331 0.0
H508 H 0.46048 0.47304 0.80645 0.0
H509 H 0.47302 0.48238 0.76548 0.0
H510 H 0.56885 0.51725 0.78442 0.0
H511 H 0.55664 0.50594 0.82537 0.0
C512 C 0.56996 0.48327 0.71586 0.0
C513 C 0.54625 0.48785 0.69862 0.0
C514 C 0.56265 0.489 0.73939 0.0
C515 C 0.53159 0.50003 0.74621 0.0
C516 C 0.50875 0.50731 0.72866 0.0
C517 C 0.51591 0.50098 0.70516 0.0
C518 C 0.48398 0.48341 0.80188 0.0
C519 C 0.50771 0.4883 0.81907 0.0
C520 C 0.49122 0.48896 0.77831 0.0
C521 C 0.52222 0.50012 0.77142 0.0
C522 C 0.54504 0.50772 0.78892 0.0
C523 C 0.53797 0.50155 0.81244 0.0
H524 H 0.99287 0.48253 0.82354 0.0
H525 H 0.08965 0.51504 0.806 0.0
H526 H 0.98159 0.47174 0.78241 0.0
H527 H 0.07805 0.50604 0.76481 0.0
H528 H 0.05493 0.48231 0.69115 0.0
H529 H 0.06645 0.47116 0.73225 0.0
H530 H 0.97088 0.50766 0.75038 0.0
H531 H 0.95905 0.51711 0.70936 0.0
C532 C 1.01188 0.48695 0.81089 0.0
C533 C 0.04204 0.49996 0.81795 0.0
C534 C 1.00534 0.48104 0.78726 0.0
C535 C 0.02864 0.48864 0.7701 0.0
C536 C 0.05952 0.49953 0.77741 0.0
C537 C 0.06621 0.50487 0.80109 0.0
C538 C 0.03616 0.48715 0.70392 0.0
C539 C 1.00618 0.50089 0.69704 0.0
C540 C 0.04285 0.48104 0.72752 0.0
C541 C 1.01985 0.489 0.74481 0.0
C542 C 0.98917 0.50077 0.73769 0.0
C543 C 0.98236 0.5064 0.71408 0.0
H544 H 0.09858 0.17871 0.15425 0.0
H545 H 1.00296 0.14399 0.13525 0.0
H546 H 0.07898 0.23858 0.15687 0.0
H547 H 0.98372 0.20375 0.13641 0.0
H548 H 0.9498 0.31146 0.15451 0.0
H549 H 0.96964 0.25186 0.15857 0.0
H550 H 0.06334 0.28489 0.13352 0.0
H551 H 0.04395 0.3445 0.1309 0.0
C552 C 0.07339 0.18393 0.15055 0.0
C553 C 0.05234 0.15667 0.14454 0.0
C554 C 0.06214 0.21831 0.15187 0.0
C555 C 0.0297 0.22632 0.14671 0.0
C556 C 1.00865 0.19879 0.14098 0.0
C557 C 1.01976 0.16441 0.14013 0.0
C558 C 0.97471 0.30591 0.1501 0.0
C559 C 0.99529 0.33262 0.14237 0.0
C560 C 0.98609 0.27168 0.15226 0.0
C561 C 1.01815 0.26323 0.14624 0.0
C562 C 0.03874 0.29024 0.13878 0.0
C563 C 0.02754 0.32452 0.13709 0.0
H564 H 0.53873 0.84544 0.16067 0.0
H565 H 0.45145 0.81043 0.12655 0.0
H566 H 0.55772 0.78546 0.16292 0.0
H567 H 0.47087 0.75038 0.12833 0.0
H568 H 0.59832 0.68248 0.13395 0.0
H569 H 0.5777 0.74189 0.13617 0.0
H570 H 0.48332 0.70226 0.15431 0.0
H571 H 0.50373 0.64276 0.15157 0.0
C572 C 0.52352 0.82494 0.1537 0.0
C573 C 0.49362 0.8328 0.1433 0.0
C574 C 0.53453 0.79054 0.15487 0.0
C575 C 0.51598 0.76312 0.14562 0.0
C576 C 0.48564 0.77083 0.13584 0.0
C577 C 0.47455 0.80529 0.13472 0.0
C578 C 0.57323 0.6864 0.13859 0.0
C579 C 0.55267 0.65781 0.14248 0.0
C580 C 0.56143 0.72051 0.13998 0.0
C581 C 0.52881 0.72686 0.14536 0.0
C582 C 0.50844 0.69828 0.14978 0.0
C583 C 0.52022 0.66416 0.14835 0.0
H584 H 0.45378 0.68041 0.3886 0.0
H585 H 0.54735 0.6411 0.36802 0.0
H586 H 0.47475 0.73978 0.3875 0.0
H587 H 0.56809 0.70055 0.36645 0.0
H588 H 0.51373 0.84426 0.36432 0.0
H589 H 0.49409 0.78462 0.36129 0.0
H590 H 0.58185 0.74713 0.39344 0.0
H591 H 0.6019 0.8069 0.39604 0.0
C592 C 0.4787 0.68443 0.38356 0.0
C593 C 0.49888 0.65593 0.37849 0.0
C594 C 0.49071 0.71852 0.38282 0.0
C595 C 0.52316 0.72494 0.37695 0.0
C596 C 0.54313 0.69649 0.37138 0.0
C597 C 0.53114 0.66241 0.37213 0.0
C598 C 0.52901 0.82332 0.3706 0.0
C599 C 0.55936 0.83042 0.38055 0.0
C600 C 0.51761 0.7891 0.36898 0.0
C601 C 0.53624 0.7611 0.3773 0.0
C602 C 0.567 0.76807 0.38666 0.0
C603 C 0.57845 0.80236 0.38824 0.0
H604 H 1.0041 0.34678 0.38645 0.0
H605 H 0.10148 0.31389 0.37114 0.0
H606 H 0.98617 0.28659 0.38569 0.0
H607 H 0.08327 0.25343 0.3688 0.0
H608 H 0.04824 0.14662 0.39299 0.0
H609 H 0.06692 0.20661 0.39112 0.0
H610 H 0.97403 0.2382 0.3637 0.0
H611 H 0.95485 0.1783 0.36715 0.0
C612 C 1.0216 0.32662 0.38248 0.0
C613 C 0.05422 0.33505 0.37891 0.0
C614 C 1.01126 0.29197 0.38185 0.0
C615 C 0.03313 0.26477 0.3771 0.0
C616 C 0.06574 0.27341 0.37298 0.0
C617 C 0.07622 0.30812 0.37414 0.0
C618 C 0.03188 0.16641 0.38648 0.0
C619 C 1.00002 0.15782 0.38034 0.0
C620 C 0.04267 0.2009 0.38522 0.0
C621 C 1.02208 0.22764 0.3773 0.0
C622 C 0.99045 0.21867 0.37044 0.0
C623 C 0.97944 0.18425 0.37223 0.0
H624 H 1.0067 0.64217 0.86449 0.0
H625 H 0.09724 0.67778 0.89354 0.0
H626 H 0.98728 0.70207 0.86318 0.0
H627 H 0.07747 0.73774 0.8926 0.0
H628 H 0.95037 0.80653 0.89312 0.0
H629 H 0.97036 0.74676 0.89079 0.0
H630 H 0.06245 0.7848 0.86616 0.0
H631 H 0.04275 0.8445 0.86887 0.0
C632 C 1.02255 0.66277 0.87053 0.0
C633 C 0.05354 0.6551 0.8792 0.0
C634 C 1.01128 0.69712 0.86991 0.0
C635 C 0.03071 0.72468 0.87793 0.0
C636 C 0.062 0.71715 0.88607 0.0
C637 C 0.0733 0.68274 0.8867 0.0
C638 C 0.97479 0.80215 0.88704 0.0
C639 C 0.99496 0.83036 0.88128 0.0
C640 C 0.98623 0.76785 0.88561 0.0
C641 C 1.01807 0.76101 0.87838 0.0
C642 C 0.03798 0.78919 0.87214 0.0
C643 C 0.02657 0.82343 0.87356 0.0
H644 H 0.45197 0.30885 0.89449 0.0
H645 H 0.53926 0.34504 0.86095 0.0
H646 H 0.47204 0.24905 0.89274 0.0
H647 H 0.5589 0.28531 0.85873 0.0
H648 H 0.50608 0.14193 0.86948 0.0
H649 H 0.48519 0.20122 0.86677 0.0
H650 H 0.57908 0.24172 0.88539 0.0
H651 H 0.60018 0.18248 0.88759 0.0
C652 C 0.47522 0.30403 0.88645 0.0
C653 C 0.49408 0.3318 0.87802 0.0
C654 C 0.48668 0.26971 0.88536 0.0
C655 C 0.51721 0.26239 0.87574 0.0
C656 C 0.53557 0.29007 0.86665 0.0
C657 C 0.52418 0.32433 0.8678 0.0
C658 C 0.52237 0.16348 0.87281 0.0
C659 C 0.55483 0.15741 0.87882 0.0
C660 C 0.5103 0.19748 0.8714 0.0
C661 C 0.53038 0.22625 0.87598 0.0
C662 C 0.56301 0.2202 0.88147 0.0
C663 C 0.57511 0.18619 0.88284 0.0
H664 H 0.45299 0.18032 0.63407 0.0
H665 H 0.546 0.14083 0.65582 0.0
H666 H 0.47399 0.23966 0.63548 0.0
H667 H 0.56675 0.20024 0.65774 0.0
H668 H 0.60162 0.30606 0.62812 0.0
H669 H 0.58131 0.24645 0.63088 0.0
H670 H 0.49285 0.28477 0.66155 0.0
H671 H 0.51277 0.34431 0.65831 0.0
C672 C 0.47778 0.1843 0.63946 0.0
C673 C 0.49782 0.15577 0.64471 0.0
C674 C 0.48981 0.21837 0.64037 0.0
C675 C 0.52213 0.22473 0.64664 0.0
C676 C 0.54191 0.19624 0.65248 0.0
C677 C 0.52991 0.16218 0.65152 0.0
C678 C 0.57796 0.30174 0.63564 0.0
C679 C 0.55876 0.33001 0.64284 0.0
C680 C 0.56636 0.26754 0.63732 0.0
C681 C 0.53534 0.26083 0.6463 0.0
C682 C 0.51659 0.28904 0.65416 0.0
C683 C 0.52813 0.32319 0.65242 0.0
H684 H 0.10197 0.811 0.65042 0.0
H685 H 1.00437 0.8442 0.63612 0.0
H686 H 0.08359 0.75063 0.65318 0.0
H687 H 0.98624 0.7841 0.63734 0.0
H688 H 0.95494 0.67604 0.65611 0.0
H689 H 0.97455 0.73577 0.65966 0.0
H690 H 0.06654 0.70397 0.63084 0.0
H691 H 0.04748 0.64413 0.62882 0.0
C692 C 0.07662 0.80533 0.64775 0.0
C693 C 0.05462 0.83231 0.64311 0.0
C694 C 0.06604 0.77068 0.64916 0.0
C695 C 0.03332 0.76216 0.64543 0.0
C696 C 1.01143 0.78941 0.64087 0.0
C697 C 1.02189 0.82401 0.63997 0.0
C698 C 0.97944 0.68189 0.65077 0.0
C699 C 0.99964 0.65546 0.64217 0.0
C700 C 0.99069 0.71621 0.65262 0.0
C701 C 1.02216 0.72508 0.64535 0.0
C702 C 0.04242 0.69832 0.63704 0.0
C703 C 0.0314 0.66392 0.6357 0.0
H704 H 0.95076 0.96358 0.97422 0.0
H705 H 0.04424 0.98544 0.94413 0.0
H706 H 0.97123 0.97954 0.01268 0.0
H707 H 0.06512 -0.00015 0.98259 0.0
H708 H 0.08472 0.0555 0.05119 0.0
H709 H 0.06399 0.04126 0.01267 0.0
H710 H 1.00552 0.95926 0.04275 0.0
H711 H 1.02526 0.97468 0.08152 0.0
C712 C 0.97568 0.9718 0.97582 0.0
C713 C 0.99583 0.97333 0.9561 0.0
C714 C 0.98754 0.98062 0.99792 0.0
C715 C 1.01995 0.99075 1.00087 0.0
C716 C 0.03993 0.99268 0.98103 0.0
C717 C 0.02796 0.98431 0.95892 0.0
C718 C 0.06762 0.03424 0.04958 0.0
C719 C 0.05663 0.01623 0.06944 0.0
C720 C 0.05577 0.02598 0.02742 0.0
C721 C 0.03293 -0.00085 0.0245 0.0
C722 C 1.02255 0.98056 0.04434 0.0
C723 C 0.03411 0.98915 0.06657 0.0
H724 H 0.52789 0.9788 0.94454 0.0
H725 H 0.5913 0.05648 0.97436 0.0
H726 H 0.5085 0.964 0.98348 0.0
H727 H 0.57101 0.04278 0.01313 0.0
H728 H 0.5494 0.98693 0.08184 0.0
H729 H 0.57058 0.00096 0.04331 0.0
H730 H 0.47552 0.98651 0.01364 0.0
H731 H 0.45471 0.97111 0.05204 0.0
C732 C 0.53771 0.99271 0.9594 0.0
C733 C 0.56116 0.01879 0.95632 0.0
C734 C 0.52636 0.98448 0.98174 0.0
C735 C 0.53791 0.00242 1.00152 0.0
C736 C 0.5618 0.02809 0.99841 0.0
C737 C 0.5734 0.03603 0.97611 0.0
C738 C 0.53296 0.98705 0.06712 0.0
C739 C 0.50038 0.97781 0.07002 0.0
C740 C 0.5451 -0.00483 0.04498 0.0
C741 C 0.52486 0.99463 0.02523 0.0
C742 C 0.49203 0.98641 0.02831 0.0
C743 C 0.47999 0.97791 0.0504 0.0
H744 H 0.46388 0.05185 0.55105 0.0
H745 H 0.52843 0.97575 0.5814 0.0
H746 H 0.48421 0.03792 0.51242 0.0
H747 H 0.54785 0.96054 0.54249 0.0
H748 H 0.60055 0.96687 0.47319 0.0
H749 H 0.58013 0.98211 0.51175 0.0
H750 H 0.48467 -0.0039 0.48264 0.0
H751 H 0.50547 0.98241 0.44399 0.0
C752 C 0.48205 0.03166 0.54944 0.0
C753 C 0.49455 0.01493 0.56935 0.0
C754 C 0.49367 0.02356 0.5272 0.0
C755 C 0.51782 -0.00185 0.52421 0.0
C756 C 0.52974 0.98077 0.54411 0.0
C757 C 0.51839 0.98922 0.56643 0.0
C758 C 0.57526 0.97354 0.47501 0.0
C759 C 0.55467 0.97353 0.4555 0.0
C760 C 0.56344 0.98193 0.49719 0.0
C761 C 0.53063 0.99008 0.50046 0.0
C762 C 0.51015 0.99047 0.48083 0.0
C763 C 0.52207 0.98254 0.45861 0.0
H764 H 0.09851 0.96701 0.55289 0.0
H765 H 1.00454 0.98915 0.58206 0.0
H766 H 0.07873 0.98266 0.51421 0.0
H767 H 0.98434 0.00329 0.54334 0.0
H768 H 0.96605 0.05798 0.47409 0.0
H769 H 0.98597 0.04428 0.51294 0.0
H770 H 0.04494 0.96177 0.48403 0.0
H771 H 0.02601 0.97663 0.44497 0.0
C772 C 0.07363 0.97525 0.55104 0.0
C773 C 0.05313 0.97691 0.57057 0.0
C774 C 0.06216 0.98389 0.52881 0.0
C775 C 0.0298 0.99396 0.52552 0.0
C776 C 1.00949 -0.00387 0.54517 0.0
C777 C 1.02107 0.98792 0.56743 0.0
C778 C 0.98309 0.03673 0.47603 0.0
C779 C 0.99447 0.01841 0.45642 0.0
C780 C 0.99448 0.02878 0.49837 0.0
C781 C 1.01724 0.00199 0.50172 0.0
C782 C 0.02797 0.98307 0.48212 0.0
C783 C 1.01687 0.99133 0.45971 0.0
H784 H 0.58918 0.55616 0.04723 0.0
H785 H 0.52575 0.47851 0.07706 0.0
H786 H 0.56923 0.54212 1.00843 0.0
H787 H 0.50671 0.46334 0.03809 0.0
H788 H 0.54824 0.48594 0.93979 0.0
H789 H 0.56912 0.5002 0.97837 0.0
H790 H 0.47392 0.4854 1.00772 0.0
H791 H 0.45344 0.46972 0.96928 0.0
C792 C 0.57135 0.53564 0.04547 0.0
C793 C 0.55899 0.51852 0.06528 0.0
C794 C 0.55995 0.52749 0.02316 0.0
C795 C 0.53615 0.50172 0.02003 0.0
C796 C 0.5245 0.48389 0.03983 0.0
C797 C 0.53564 0.49233 0.06219 0.0
C798 C 0.53172 0.48603 0.95445 0.0
C799 C 0.49919 0.47661 0.95146 0.0
C800 C 0.54368 0.49428 0.97662 0.0
C801 C 0.52331 0.49372 0.9963 0.0
C802 C 0.49053 0.48531 0.99312 0.0
C803 C 0.47867 0.47666 0.97101 0.0
H804 H 1.01791 0.51134 0.07516 0.0
H805 H 0.95767 0.42986 0.04644 0.0
H806 H 0.03741 0.52519 0.03614 0.0
H807 H 0.97807 0.44281 1.00751 0.0
H808 H 0.99971 0.49789 0.93805 0.0
H809 H 0.978 0.48391 0.97646 0.0
H810 H 0.07197 0.50163 1.0071 0.0
H811 H 0.09332 0.51686 0.96883 0.0
C812 C 1.00878 0.49641 0.0605 0.0
C813 C 0.98627 0.46947 0.06393 0.0
C814 C 1.02021 0.50411 0.03813 0.0
C815 C 1.00967 0.48482 0.01864 0.0
C816 C 0.98653 0.45843 0.02203 0.0
C817 C 0.97486 0.45095 0.0444 0.0
C818 C 1.01581 0.49846 0.95296 0.0
C819 C 0.04822 0.50865 0.95039 0.0
C820 C 1.00336 0.49038 0.97501 0.0
C821 C 1.02311 0.492 0.99498 0.0
C822 C 0.05582 0.50096 0.99222 0.0
C823 C 0.06818 0.50935 0.97023 0.0
H824 H 0.9628 0.5598 0.54681 0.0
H825 H 1.02115 0.47629 0.57491 0.0
H826 H 0.9831 0.54723 0.50783 0.0
H827 H 0.04049 0.46272 0.53579 0.0
H828 H 0.09605 0.47014 0.46815 0.0
H829 H 0.07541 0.4851 0.50669 0.0
H830 H 0.98191 0.50718 0.47654 0.0
H831 H 1.00297 0.4936 0.43794 0.0
C832 C 0.97954 0.53833 0.54461 0.0
C833 C 0.99043 0.51911 0.56399 0.0
C834 C 0.99116 0.53106 0.52221 0.0
C835 C 1.0137 0.50412 0.5186 0.0
C836 C 1.02377 0.4842 0.53794 0.0
C837 C 1.01242 0.49173 0.56037 0.0
C838 C 0.07119 0.47857 0.46973 0.0
C839 C 0.05118 0.48067 0.44996 0.0
C840 C 0.05922 0.48681 0.49188 0.0
C841 C 0.02683 0.49696 0.49485 0.0
C842 C 1.00705 0.49983 0.47496 0.0
C843 C 1.01913 0.49197 0.45278 0.0
H844 H 0.60205 0.46301 0.54827 0.0
H845 H 0.50757 0.48121 0.57777 0.0
H846 H 0.58161 0.47849 0.50971 0.0
H847 H 0.48673 0.49503 0.53921 0.0
H848 H 0.46613 0.55129 0.4712 0.0
H849 H 0.48682 0.53682 0.50963 0.0
H850 H 0.54869 0.45832 0.47894 0.0
H851 H 0.52895 0.47414 0.4402 0.0
C852 C 0.5769 0.47029 0.54651 0.0
C853 C 0.55649 0.47104 0.56611 0.0
C854 C 0.56506 0.47883 0.52434 0.0
C855 C 0.5324 0.48786 0.52119 0.0
C856 C 0.51211 0.48881 0.54091 0.0
C857 C 0.52406 0.48077 0.56309 0.0
C858 C 0.48397 0.53074 0.47263 0.0
C859 C 0.49587 0.51386 0.4526 0.0
C860 C 0.4958 0.52231 0.49476 0.0
C861 C 0.51953 0.49638 0.49753 0.0
C862 C 0.5309 0.47891 0.4775 0.0
C863 C 0.51936 0.48771 0.45528 0.0
loop_
_geom_bond_atom_site_label_1
_geom_bond_atom_site_label_2
_geom_bond_distance
_geom_bond_site_symmetry_2
_ccdc_geom_bond_type
O0 Cd1 2.223 . S
O0 C8 1.315 . S
Cd1 O0 2.223 . S
Cd1 O4 2.297 . S
Cd1 O5 2.439 . S
Cd1 O11 2.240 . S
Cd2 O3 2.240 . S
Cd2 O10 2.223 . S
Cd2 O12 2.297 . S
Cd2 O13 2.439 . S
O3 Cd2 2.240 . S
O3 C8 1.279 . S
O4 Cd1 2.297 . S
O4 C6 1.247 . S
O5 Cd1 2.439 . S
O5 C6 1.208 . S
C6 O4 1.247 . S
C6 O5 1.208 . S
C7 O12 1.247 . S
C7 O13 1.208 . S
C8 O0 1.315 . S
C8 O3 1.279 . S
C9 O10 1.315 . S
C9 O11 1.279 . S
O10 Cd2 2.223 . S
O10 C9 1.315 . S
O11 Cd1 2.240 . S
O11 C9 1.279 . S
O12 Cd2 2.297 . S
O12 C7 1.247 . S
O13 Cd2 2.439 . S
O13 C7 1.208 . S
O14 Cd15 2.223 . S
O14 C22 1.315 . S
Cd15 O14 2.223 . S
Cd15 O18 2.297 . S
Cd15 O19 2.439 . S
Cd15 O25 2.240 . S
Cd16 O17 2.240 . S
Cd16 O24 2.223 . S
Cd16 O26 2.297 . S
Cd16 O27 2.439 . S
O17 Cd16 2.240 . S
O17 C22 1.279 . S
O18 Cd15 2.297 . S
O18 C20 1.247 . S
O19 Cd15 2.439 . S
O19 C20 1.208 . S
C20 O18 1.247 . S
C20 O19 1.208 . S
C21 O26 1.247 . S
C21 O27 1.208 . S
C22 O14 1.315 . S
C22 O17 1.279 . S
C23 O24 1.315 . S
C23 O25 1.279 . S
O24 Cd16 2.223 . S
O24 C23 1.315 . S
O25 Cd15 2.240 . S
O25 C23 1.279 . S
O26 Cd16 2.297 . S
O26 C21 1.247 . S
O27 Cd16 2.439 . S
O27 C21 1.208 . S
O28 Cd29 2.223 . S
O28 C36 1.315 . S
Cd29 O28 2.223 . S
Cd29 O32 2.297 . S
Cd29 O33 2.439 . S
Cd29 O39 2.240 . S
Cd30 O31 2.240 . S
Cd30 O38 2.223 . S
Cd30 O40 2.297 . S
Cd30 O41 2.439 . S
O31 Cd30 2.240 . S
O31 C36 1.279 . S
O32 Cd29 2.297 . S
O32 C34 1.247 . S
O33 Cd29 2.439 . S
O33 C34 1.208 . S
C34 O32 1.247 . S
C34 O33 1.208 . S
C35 O40 1.247 . S
C35 O41 1.208 . S
C36 O28 1.315 . S
C36 O31 1.279 . S
C37 O38 1.315 . S
C37 O39 1.279 . S
O38 Cd30 2.223 . S
O38 C37 1.315 . S
O39 Cd29 2.240 . S
O39 C37 1.279 . S
O40 Cd30 2.297 . S
O40 C35 1.247 . S
O41 Cd30 2.439 . S
O41 C35 1.208 . S
O42 Cd43 2.223 . S
O42 C50 1.315 . S
Cd43 O42 2.223 . S
Cd43 O46 2.297 . S
Cd43 O47 2.439 . S
Cd43 O53 2.240 . S
Cd44 O45 2.240 . S
Cd44 O52 2.223 . S
Cd44 O54 2.297 . S
Cd44 O55 2.439 . S
O45 Cd44 2.240 . S
O45 C50 1.279 . S
O46 Cd43 2.297 . S
O46 C48 1.247 . S
O47 Cd43 2.439 . S
O47 C48 1.208 . S
C48 O46 1.247 . S
C48 O47 1.208 . S
C49 O54 1.247 . S
C49 O55 1.208 . S
C50 O42 1.315 . S
C50 O45 1.279 . S
C51 O52 1.315 . S
C51 O53 1.279 . S
O52 Cd44 2.223 . S
O52 C51 1.315 . S
O53 Cd43 2.240 . S
O53 C51 1.279 . S
O54 Cd44 2.297 . S
O54 C49 1.247 . S
O55 Cd44 2.439 . S
O55 C49 1.208 . S
O56 Cd57 2.223 . S
O56 C64 1.315 . S
Cd57 O56 2.223 . S
Cd57 O60 2.297 . S
Cd57 O61 2.439 . S
Cd57 O67 2.240 . S
Cd58 O59 2.240 . S
Cd58 O66 2.223 . S
Cd58 O68 2.297 . S
Cd58 O69 2.439 . S
O59 Cd58 2.240 . S
O59 C64 1.279 . S
O60 Cd57 2.297 . S
O60 C62 1.247 . S
O61 Cd57 2.439 . S
O61 C62 1.208 . S
C62 O60 1.247 . S
C62 O61 1.208 . S
C63 O68 1.247 . S
C63 O69 1.208 . S
C64 O56 1.315 . S
C64 O59 1.279 . S
C65 O66 1.315 . S
C65 O67 1.279 . S
O66 Cd58 2.223 . S
O66 C65 1.315 . S
O67 Cd57 2.240 . S
O67 C65 1.279 . S
O68 Cd58 2.297 . S
O68 C63 1.247 . S
O69 Cd58 2.439 . S
O69 C63 1.208 . S
O70 Cd71 2.223 . S
O70 C78 1.315 . S
Cd71 O70 2.223 . S
Cd71 O74 2.297 . S
Cd71 O75 2.439 . S
Cd71 O81 2.240 . S
Cd72 O73 2.240 . S
Cd72 O80 2.223 . S
Cd72 O82 2.297 . S
Cd72 O83 2.439 . S
O73 Cd72 2.240 . S
O73 C78 1.279 . S
O74 Cd71 2.297 . S
O74 C76 1.247 . S
O75 Cd71 2.439 . S
O75 C76 1.208 . S
C76 O74 1.247 . S
C76 O75 1.208 . S
C77 O82 1.247 . S
C77 O83 1.208 . S
C78 O70 1.315 . S
C78 O73 1.279 . S
C79 O80 1.315 . S
C79 O81 1.279 . S
O80 Cd72 2.223 . S
O80 C79 1.315 . S
O81 Cd71 2.240 . S
O81 C79 1.279 . S
O82 Cd72 2.297 . S
O82 C77 1.247 . S
O83 Cd72 2.439 . S
O83 C77 1.208 . S
O84 Cd85 2.223 . S
O84 C92 1.315 . S
Cd85 O84 2.223 . S
Cd85 O88 2.297 . S
Cd85 O89 2.439 . S
Cd85 O95 2.240 . S
Cd86 O87 2.240 . S
Cd86 O94 2.223 . S
Cd86 O96 2.297 . S
Cd86 O97 2.439 . S
O87 Cd86 2.240 . S
O87 C92 1.279 . S
O88 Cd85 2.297 . S
O88 C90 1.247 . S
O89 Cd85 2.439 . S
O89 C90 1.208 . S
C90 O88 1.247 . S
C90 O89 1.208 . S
C91 O96 1.247 . S
C91 O97 1.208 . S
C92 O84 1.315 . S
C92 O87 1.279 . S
C93 O94 1.315 . S
C93 O95 1.279 . S
O94 Cd86 2.223 . S
O94 C93 1.315 . S
O95 Cd85 2.240 . S
O95 C93 1.279 . S
O96 Cd86 2.297 . S
O96 C91 1.247 . S
O97 Cd86 2.439 . S
O97 C91 1.208 . S
O98 Cd99 2.223 . S
O98 C106 1.315 . S
Cd99 O98 2.223 . S
Cd99 O102 2.297 . S
Cd99 O103 2.439 . S
Cd99 O109 2.240 . S
Cd100 O101 2.240 . S
Cd100 O108 2.223 . S
Cd100 O110 2.297 . S
Cd100 O111 2.439 . S
O101 Cd100 2.240 . S
O101 C106 1.279 . S
O102 Cd99 2.297 . S
O102 C104 1.247 . S
O103 Cd99 2.439 . S
O103 C104 1.208 . S
C104 O102 1.247 . S
C104 O103 1.208 . S
C105 O110 1.247 . S
C105 O111 1.208 . S
C106 O98 1.315 . S
C106 O101 1.279 . S
C107 O108 1.315 . S
C107 O109 1.279 . S
O108 Cd100 2.223 . S
O108 C107 1.315 . S
O109 Cd99 2.240 . S
O109 C107 1.279 . S
O110 Cd100 2.297 . S
O110 C105 1.247 . S
O111 Cd100 2.439 . S
O111 C105 1.208 . S
O112 Cd113 2.223 . S
O112 C120 1.315 . S
Cd113 O112 2.223 . S
Cd113 O116 2.297 . S
Cd113 O117 2.439 . S
Cd113 O123 2.240 . S
Cd114 O115 2.240 . S
Cd114 O122 2.223 . S
Cd114 O124 2.297 . S
Cd114 O125 2.439 . S
O115 Cd114 2.240 . S
O115 C120 1.279 . S
O116 Cd113 2.297 . S
O116 C118 1.247 . S
O117 Cd113 2.439 . S
O117 C118 1.208 . S
C118 O116 1.247 . S
C118 O117 1.208 . S
C119 O124 1.247 . S
C119 O125 1.208 . S
C120 O112 1.315 . S
C120 O115 1.279 . S
C121 O122 1.315 . S
C121 O123 1.279 . S
O122 Cd114 2.223 . S
O122 C121 1.315 . S
O123 Cd113 2.240 . S
O123 C121 1.279 . S
O124 Cd114 2.297 . S
O124 C119 1.247 . S
O125 Cd114 2.439 . S
O125 C119 1.208 . S
O126 Cd127 2.223 . S
O126 C134 1.315 . S
Cd127 O126 2.223 . S
Cd127 O130 2.297 . S
Cd127 O131 2.439 . S
Cd127 O137 2.240 . S
Cd128 O129 2.240 . S
Cd128 O136 2.223 . S
Cd128 O138 2.297 . S
Cd128 O139 2.439 . S
O129 Cd128 2.240 . S
O129 C134 1.279 . S
O130 Cd127 2.297 . S
O130 C132 1.247 . S
O131 Cd127 2.439 . S
O131 C132 1.208 . S
C132 O130 1.247 . S
C132 O131 1.208 . S
C133 O138 1.247 . S
C133 O139 1.208 . S
C134 O126 1.315 . S
C134 O129 1.279 . S
C135 O136 1.315 . S
C135 O137 1.279 . S
O136 Cd128 2.223 . S
O136 C135 1.315 . S
O137 Cd127 2.240 . S
O137 C135 1.279 . S
O138 Cd128 2.297 . S
O138 C133 1.247 . S
O139 Cd128 2.439 . S
O139 C133 1.208 . S
O140 Cd141 2.223 . S
O140 C148 1.315 . S
Cd141 O140 2.223 . S
Cd141 O144 2.297 . S
Cd141 O145 2.439 . S
Cd141 O151 2.240 . S
Cd142 O143 2.240 . S
Cd142 O150 2.223 . S
Cd142 O152 2.297 . S
Cd142 O153 2.439 . S
O143 Cd142 2.240 . S
O143 C148 1.279 . S
O144 Cd141 2.297 . S
O144 C146 1.247 . S
O145 Cd141 2.439 . S
O145 C146 1.208 . S
C146 O144 1.247 . S
C146 O145 1.208 . S
C147 O152 1.247 . S
C147 O153 1.208 . S
C148 O140 1.315 . S
C148 O143 1.279 . S
C149 O150 1.315 . S
C149 O151 1.279 . S
O150 Cd142 2.223 . S
O150 C149 1.315 . S
O151 Cd141 2.240 . S
O151 C149 1.279 . S
O152 Cd142 2.297 . S
O152 C147 1.247 . S
O153 Cd142 2.439 . S
O153 C147 1.208 . S
O154 Cd155 2.223 . S
O154 C162 1.315 . S
Cd155 O154 2.223 . S
Cd155 O158 2.297 . S
Cd155 O159 2.439 . S
Cd155 O165 2.240 . S
Cd156 O157 2.240 . S
Cd156 O164 2.223 . S
Cd156 O166 2.297 . S
Cd156 O167 2.439 . S
O157 Cd156 2.240 . S
O157 C162 1.279 . S
O158 Cd155 2.297 . S
O158 C160 1.247 . S
O159 Cd155 2.439 . S
O159 C160 1.208 . S
C160 O158 1.247 . S
C160 O159 1.208 . S
C161 O166 1.247 . S
C161 O167 1.208 . S
C162 O154 1.315 . S
C162 O157 1.279 . S
C163 O164 1.315 . S
C163 O165 1.279 . S
O164 Cd156 2.223 . S
O164 C163 1.315 . S
O165 Cd155 2.240 . S
O165 C163 1.279 . S
O166 Cd156 2.297 . S
O166 C161 1.247 . S
O167 Cd156 2.439 . S
O167 C161 1.208 . S
O168 Cd169 2.223 . S
O168 C176 1.315 . S
Cd169 O168 2.223 . S
Cd169 O172 2.297 . S
Cd169 O173 2.439 . S
Cd169 O179 2.240 . S
Cd170 O171 2.240 . S
Cd170 O178 2.223 . S
Cd170 O180 2.297 . S
Cd170 O181 2.439 . S
O171 Cd170 2.240 . S
O171 C176 1.279 . S
O172 Cd169 2.297 . S
O172 C174 1.247 . S
O173 Cd169 2.439 . S
O173 C174 1.208 . S
C174 O172 1.247 . S
C174 O173 1.208 . S
C175 O180 1.247 . S
C175 O181 1.208 . S
C176 O168 1.315 . S
C176 O171 1.279 . S
C177 O178 1.315 . S
C177 O179 1.279 . S
O178 Cd170 2.223 . S
O178 C177 1.315 . S
O179 Cd169 2.240 . S
O179 C177 1.279 . S
O180 Cd170 2.297 . S
O180 C175 1.247 . S
O181 Cd170 2.439 . S
O181 C175 1.208 . S
O182 Cd183 2.223 . S
O182 C190 1.315 . S
Cd183 O182 2.223 . S
Cd183 O186 2.297 . S
Cd183 O187 2.439 . S
Cd183 O193 2.240 . S
Cd184 O185 2.240 . S
Cd184 O192 2.223 . S
Cd184 O194 2.297 . S
Cd184 O195 2.439 . S
O185 Cd184 2.240 . S
O185 C190 1.279 . S
O186 Cd183 2.297 . S
O186 C188 1.247 . S
O187 Cd183 2.439 . S
O187 C188 1.208 . S
C188 O186 1.247 . S
C188 O187 1.208 . S
C189 O194 1.247 . S
C189 O195 1.208 . S
C190 O182 1.315 . S
C190 O185 1.279 . S
C191 O192 1.315 . S
C191 O193 1.279 . S
O192 Cd184 2.223 . S
O192 C191 1.315 . S
O193 Cd183 2.240 . S
O193 C191 1.279 . S
O194 Cd184 2.297 . S
O194 C189 1.247 . S
O195 Cd184 2.439 . S
O195 C189 1.208 . S
O196 Cd197 2.223 . S
O196 C204 1.315 . S
Cd197 O196 2.223 . S
Cd197 O200 2.297 . S
Cd197 O201 2.439 . S
Cd197 O207 2.240 . S
Cd198 O199 2.240 . S
Cd198 O206 2.223 . S
Cd198 O208 2.297 . S
Cd198 O209 2.439 . S
O199 Cd198 2.240 . S
O199 C204 1.279 . S
O200 Cd197 2.297 . S
O200 C202 1.247 . S
O201 Cd197 2.439 . S
O201 C202 1.208 . S
C202 O200 1.247 . S
C202 O201 1.208 . S
C203 O208 1.247 . S
C203 O209 1.208 . S
C204 O196 1.315 . S
C204 O199 1.279 . S
C205 O206 1.315 . S
C205 O207 1.279 . S
O206 Cd198 2.223 . S
O206 C205 1.315 . S
O207 Cd197 2.240 . S
O207 C205 1.279 . S
O208 Cd198 2.297 . S
O208 C203 1.247 . S
O209 Cd198 2.439 . S
O209 C203 1.208 . S
O210 Cd211 2.223 . S
O210 C218 1.315 . S
Cd211 O210 2.223 . S
Cd211 O214 2.297 . S
Cd211 O215 2.439 . S
Cd211 O221 2.240 . S
Cd212 O213 2.240 . S
Cd212 O220 2.223 . S
Cd212 O222 2.297 . S
Cd212 O223 2.439 . S
O213 Cd212 2.240 . S
O213 C218 1.279 . S
O214 Cd211 2.297 . S
O214 C216 1.247 . S
O215 Cd211 2.439 . S
O215 C216 1.208 . S
C216 O214 1.247 . S
C216 O215 1.208 . S
C217 O222 1.247 . S
C217 O223 1.208 . S
C218 O210 1.315 . S
C218 O213 1.279 . S
C219 O220 1.315 . S
C219 O221 1.279 . S
O220 Cd212 2.223 . S
O220 C219 1.315 . S
O221 Cd211 2.240 . S
O221 C219 1.279 . S
O222 Cd212 2.297 . S
O222 C217 1.247 . S
O223 Cd212 2.439 . S
O223 C217 1.208 . S
H224 C232 0.950 . S
H225 C237 0.950 . S
H226 C234 0.950 . S
H227 C236 0.950 . S
H228 C238 0.950 . S
H229 C240 0.950 . S
H230 C242 0.950 . S
H231 C243 0.950 . S
C232 H224 0.950 . S
C232 C233 1.386 . S
C232 C234 1.391 . S
C233 C232 1.386 . S
C233 C237 1.393 1_565 S
C234 H226 0.950 . S
C234 C232 1.391 . S
C234 C235 1.400 . S
C235 C234 1.400 . S
C235 C236 1.398 1_565 S
C235 C241 1.491 1_565 S
C236 H227 0.950 . S
C236 C235 1.398 1_545 S
C236 C237 1.391 . S
C237 H225 0.950 . S
C237 C233 1.393 1_545 S
C237 C236 1.391 . S
C238 H228 0.950 . S
C238 C239 1.386 . S
C238 C240 1.391 . S
C239 C238 1.386 . S
C239 C243 1.393 1_545 S
C240 H229 0.950 . S
C240 C238 1.391 . S
C240 C241 1.400 . S
C241 C235 1.491 1_545 S
C241 C240 1.400 . S
C241 C242 1.398 1_545 S
C242 H230 0.950 . S
C242 C241 1.398 1_565 S
C242 C243 1.391 . S
C243 H231 0.950 . S
C243 C239 1.393 1_565 S
C243 C242 1.391 . S
H244 C252 0.950 . S
H245 C257 0.950 . S
H246 C254 0.950 . S
H247 C256 0.950 . S
H248 C258 0.950 . S
H249 C260 0.950 . S
H250 C262 0.950 . S
H251 C263 0.950 . S
C252 H244 0.950 . S
C252 C253 1.386 . S
C252 C254 1.391 . S
C253 C252 1.386 . S
C253 C257 1.393 1_565 S
C254 H246 0.950 . S
C254 C252 1.391 . S
C254 C255 1.400 . S
C255 C254 1.400 . S
C255 C256 1.398 1_565 S
C255 C261 1.491 1_565 S
C256 H247 0.950 . S
C256 C255 1.398 1_545 S
C256 C257 1.391 . S
C257 H245 0.950 . S
C257 C253 1.393 1_545 S
C257 C256 1.391 . S
C258 H248 0.950 . S
C258 C259 1.386 . S
C258 C260 1.391 . S
C259 C258 1.386 . S
C259 C263 1.393 1_545 S
C260 H249 0.950 . S
C260 C258 1.391 . S
C260 C261 1.400 . S
C261 C255 1.491 1_545 S
C261 C260 1.400 . S
C261 C262 1.398 1_545 S
C262 H250 0.950 . S
C262 C261 1.398 1_565 S
C262 C263 1.391 . S
C263 H251 0.950 . S
C263 C259 1.393 1_565 S
C263 C262 1.391 . S
H264 C272 0.950 . S
H265 C277 0.950 . S
H266 C274 0.950 . S
H267 C276 0.950 . S
H268 C278 0.950 . S
H269 C280 0.950 . S
H270 C282 0.950 . S
H271 C283 0.950 . S
C272 H264 0.950 . S
C272 C273 1.386 1_545 S
C272 C274 1.391 . S
C273 C272 1.386 1_565 S
C273 C277 1.393 . S
C274 H266 0.950 . S
C274 C272 1.391 . S
C274 C275 1.400 1_545 S
C275 C274 1.400 1_565 S
C275 C276 1.398 . S
C275 C281 1.491 1_565 S
C276 H267 0.950 . S
C276 C275 1.398 . S
C276 C277 1.391 . S
C277 H265 0.950 . S
C277 C273 1.393 . S
C277 C276 1.391 . S
C278 H268 0.950 . S
C278 C279 1.386 1_565 S
C278 C280 1.391 . S
C279 C278 1.386 1_545 S
C279 C283 1.393 . S
C280 H269 0.950 . S
C280 C278 1.391 . S
C280 C281 1.400 1_565 S
C281 C275 1.491 1_545 S
C281 C280 1.400 1_545 S
C281 C282 1.398 . S
C282 H270 0.950 . S
C282 C281 1.398 . S
C282 C283 1.391 . S
C283 H271 0.950 . S
C283 C279 1.393 . S
C283 C282 1.391 . S
H284 C292 0.950 . S
H285 C297 0.950 . S
H286 C294 0.950 . S
H287 C296 0.950 . S
H288 C298 0.950 . S
H289 C300 0.950 . S
H290 C302 0.950 . S
H291 C303 0.950 . S
C292 H284 0.950 . S
C292 C293 1.386 . S
C292 C294 1.391 . S
C293 C292 1.386 . S
C293 C297 1.393 1_565 S
C294 H286 0.950 . S
C294 C292 1.391 . S
C294 C295 1.400 . S
C295 C294 1.400 . S
C295 C296 1.398 1_565 S
C295 C301 1.491 1_565 S
C296 H287 0.950 . S
C296 C295 1.398 1_545 S
C296 C297 1.391 . S
C297 H285 0.950 . S
C297 C293 1.393 1_545 S
C297 C296 1.391 . S
C298 H288 0.950 . S
C298 C299 1.386 . S
C298 C300 1.391 . S
C299 C298 1.386 . S
C299 C303 1.393 1_545 S
C300 H289 0.950 . S
C300 C298 1.391 . S
C300 C301 1.400 . S
C301 C295 1.491 1_545 S
C301 C300 1.400 . S
C301 C302 1.398 1_545 S
C302 H290 0.950 . S
C302 C301 1.398 1_565 S
C302 C303 1.391 . S
C303 H291 0.950 . S
C303 C299 1.393 1_565 S
C303 C302 1.391 . S
H304 C312 0.950 . S
H305 C317 0.950 . S
H306 C314 0.950 . S
H307 C316 0.950 . S
H308 C318 0.950 . S
H309 C320 0.950 . S
H310 C322 0.950 . S
H311 C323 0.950 . S
C312 H304 0.950 . S
C312 C313 1.386 . S
C312 C314 1.391 . S
C313 C312 1.386 . S
C313 C317 1.393 . S
C314 H306 0.950 . S
C314 C312 1.391 . S
C314 C315 1.400 . S
C315 C314 1.400 . S
C315 C316 1.398 . S
C315 C321 1.491 . S
C316 H307 0.950 . S
C316 C315 1.398 . S
C316 C317 1.391 . S
C317 H305 0.950 . S
C317 C313 1.393 . S
C317 C316 1.391 . S
C318 H308 0.950 . S
C318 C319 1.386 . S
C318 C320 1.391 . S
C319 C318 1.386 . S
C319 C323 1.393 . S
C320 H309 0.950 . S
C320 C318 1.391 . S
C320 C321 1.400 . S
C321 C315 1.491 . S
C321 C320 1.400 . S
C321 C322 1.398 . S
C322 H310 0.950 . S
C322 C321 1.398 . S
C322 C323 1.391 . S
C323 H311 0.950 . S
C323 C319 1.393 . S
C323 C322 1.391 . S
H324 C332 0.950 . S
H325 C337 0.950 . S
H326 C334 0.950 . S
H327 C336 0.950 . S
H328 C338 0.950 . S
H329 C340 0.950 . S
H330 C342 0.950 . S
H331 C343 0.950 . S
C332 H324 0.950 . S
C332 C333 1.386 . S
C332 C334 1.391 . S
C333 C332 1.386 . S
C333 C337 1.393 . S
C334 H326 0.950 . S
C334 C332 1.391 . S
C334 C335 1.400 . S
C335 C334 1.400 . S
C335 C336 1.398 . S
C335 C341 1.491 . S
C336 H327 0.950 . S
C336 C335 1.398 . S
C336 C337 1.391 . S
C337 H325 0.950 . S
C337 C333 1.393 . S
C337 C336 1.391 . S
C338 H328 0.950 . S
C338 C339 1.386 . S
C338 C340 1.391 . S
C339 C338 1.386 . S
C339 C343 1.393 . S
C340 H329 0.950 . S
C340 C338 1.391 . S
C340 C341 1.400 . S
C341 C335 1.491 . S
C341 C340 1.400 . S
C341 C342 1.398 . S
C342 H330 0.950 . S
C342 C341 1.398 . S
C342 C343 1.391 . S
C343 H331 0.950 . S
C343 C339 1.393 . S
C343 C342 1.391 . S
H344 C352 0.950 . S
H345 C357 0.950 . S
H346 C354 0.950 . S
H347 C356 0.950 . S
H348 C358 0.950 . S
H349 C360 0.950 . S
H350 C362 0.950 . S
H351 C363 0.950 . S
C352 H344 0.950 . S
C352 C353 1.386 . S
C352 C354 1.391 . S
C353 C352 1.386 . S
C353 C357 1.393 . S
C354 H346 0.950 . S
C354 C352 1.391 . S
C354 C355 1.400 . S
C355 C354 1.400 . S
C355 C356 1.398 . S
C355 C361 1.491 . S
C356 H347 0.950 . S
C356 C355 1.398 . S
C356 C357 1.391 . S
C357 H345 0.950 . S
C357 C353 1.393 . S
C357 C356 1.391 . S
C358 H348 0.950 . S
C358 C359 1.386 . S
C358 C360 1.391 . S
C359 C358 1.386 . S
C359 C363 1.393 . S
C360 H349 0.950 . S
C360 C358 1.391 . S
C360 C361 1.400 . S
C361 C355 1.491 . S
C361 C360 1.400 . S
C361 C362 1.398 . S
C362 H350 0.950 . S
C362 C361 1.398 . S
C362 C363 1.391 . S
C363 H351 0.950 . S
C363 C359 1.393 . S
C363 C362 1.391 . S
H364 C372 0.950 . S
H365 C377 0.950 . S
H366 C374 0.950 . S
H367 C376 0.950 . S
H368 C378 0.950 . S
H369 C380 0.950 . S
H370 C382 0.950 . S
H371 C383 0.950 . S
C372 H364 0.950 . S
C372 C373 1.386 . S
C372 C374 1.391 . S
C373 C372 1.386 . S
C373 C377 1.393 . S
C374 H366 0.950 . S
C374 C372 1.391 . S
C374 C375 1.400 . S
C375 C374 1.400 . S
C375 C376 1.398 . S
C375 C381 1.491 . S
C376 H367 0.950 . S
C376 C375 1.398 . S
C376 C377 1.391 . S
C377 H365 0.950 . S
C377 C373 1.393 . S
C377 C376 1.391 . S
C378 H368 0.950 . S
C378 C379 1.386 . S
C378 C380 1.391 . S
C379 C378 1.386 . S
C379 C383 1.393 . S
C380 H369 0.950 . S
C380 C378 1.391 . S
C380 C381 1.400 . S
C381 C375 1.491 . S
C381 C380 1.400 . S
C381 C382 1.398 . S
C382 H370 0.950 . S
C382 C381 1.398 . S
C382 C383 1.391 . S
C383 H371 0.950 . S
C383 C379 1.393 . S
C383 C382 1.391 . S
H384 C392 0.950 . S
H385 C397 0.950 . S
H386 C394 0.950 1_455 S
H387 C396 0.950 . S
H388 C398 0.950 . S
H389 C400 0.950 1_655 S
H390 C402 0.950 . S
H391 C403 0.950 . S
C392 H384 0.950 . S
C392 C393 1.386 . S
C392 C394 1.391 . S
C393 C392 1.386 . S
C393 C397 1.393 . S
C394 H386 0.950 1_655 S
C394 C392 1.391 . S
C394 C395 1.400 . S
C395 C394 1.400 . S
C395 C396 1.398 . S
C395 C401 1.491 1_655 S
C396 H387 0.950 . S
C396 C395 1.398 . S
C396 C397 1.391 . S
C397 H385 0.950 . S
C397 C393 1.393 . S
C397 C396 1.391 . S
C398 H388 0.950 . S
C398 C399 1.386 . S
C398 C400 1.391 . S
C399 C398 1.386 . S
C399 C403 1.393 . S
C400 H389 0.950 1_455 S
C400 C398 1.391 . S
C400 C401 1.400 . S
C401 C395 1.491 1_455 S
C401 C400 1.400 . S
C401 C402 1.398 . S
C402 H390 0.950 . S
C402 C401 1.398 . S
C402 C403 1.391 . S
C403 H391 0.950 . S
C403 C399 1.393 . S
C403 C402 1.391 . S
H404 C412 0.950 . S
H405 C417 0.950 . S
H406 C414 0.950 . S
H407 C416 0.950 . S
H408 C418 0.950 . S
H409 C420 0.950 . S
H410 C422 0.950 . S
H411 C423 0.950 . S
C412 H404 0.950 . S
C412 C413 1.386 . S
C412 C414 1.391 . S
C413 C412 1.386 . S
C413 C417 1.393 . S
C414 H406 0.950 . S
C414 C412 1.391 . S
C414 C415 1.400 . S
C415 C414 1.400 . S
C415 C416 1.398 . S
C415 C421 1.491 . S
C416 H407 0.950 . S
C416 C415 1.398 . S
C416 C417 1.391 . S
C417 H405 0.950 . S
C417 C413 1.393 . S
C417 C416 1.391 . S
C418 H408 0.950 . S
C418 C419 1.386 . S
C418 C420 1.391 . S
C419 C418 1.386 . S
C419 C423 1.393 . S
C420 H409 0.950 . S
C420 C418 1.391 . S
C420 C421 1.400 . S
C421 C415 1.491 . S
C421 C420 1.400 . S
C421 C422 1.398 . S
C422 H410 0.950 . S
C422 C421 1.398 . S
C422 C423 1.391 . S
C423 H411 0.950 . S
C423 C419 1.393 . S
C423 C422 1.391 . S
H424 C432 0.950 . S
H425 C437 0.950 . S
H426 C434 0.950 . S
H427 C436 0.933 1_655 S
H428 C438 0.950 . S
H429 C440 0.950 . S
H430 C442 0.933 1_455 S
H431 C443 0.950 . S
C432 H424 0.950 . S
C432 C433 1.386 . S
C432 C434 1.391 . S
C433 C432 1.386 . S
C433 C437 1.393 . S
C434 H426 0.950 . S
C434 C432 1.391 . S
C434 C435 1.400 . S
C435 C434 1.400 . S
C435 C436 1.405 . S
C435 C441 1.491 1_455 S
C436 H427 0.933 1_455 S
C436 C435 1.405 . S
C436 C437 1.403 . S
C437 H425 0.950 . S
C437 C433 1.393 . S
C437 C436 1.403 . S
C438 H428 0.950 . S
C438 C439 1.386 . S
C438 C440 1.391 . S
C439 C438 1.386 . S
C439 C443 1.393 . S
C440 H429 0.950 . S
C440 C438 1.391 . S
C440 C441 1.400 . S
C441 C435 1.491 1_655 S
C441 C440 1.400 . S
C441 C442 1.405 . S
C442 H430 0.933 1_655 S
C442 C441 1.405 . S
C442 C443 1.403 . S
C443 H431 0.950 . S
C443 C439 1.393 . S
C443 C442 1.403 . S
H444 C452 0.950 . S
H445 C457 0.950 . S
H446 C454 0.950 . S
H447 C456 0.950 . S
H448 C458 0.950 . S
H449 C460 0.950 . S
H450 C462 0.950 . S
H451 C463 0.950 . S
C452 H444 0.950 . S
C452 C453 1.386 . S
C452 C454 1.391 . S
C453 C452 1.386 . S
C453 C457 1.393 . S
C454 H446 0.950 . S
C454 C452 1.391 . S
C454 C455 1.400 . S
C455 C454 1.400 . S
C455 C456 1.398 . S
C455 C461 1.491 . S
C456 H447 0.950 . S
C456 C455 1.398 . S
C456 C457 1.391 . S
C457 H445 0.950 . S
C457 C453 1.393 . S
C457 C456 1.391 . S
C458 H448 0.950 . S
C458 C459 1.386 . S
C458 C460 1.391 . S
C459 C458 1.386 . S
C459 C463 1.393 . S
C460 H449 0.950 . S
C460 C458 1.391 . S
C460 C461 1.400 . S
C461 C455 1.491 . S
C461 C460 1.400 . S
C461 C462 1.398 . S
C462 H450 0.950 . S
C462 C461 1.398 . S
C462 C463 1.391 . S
C463 H451 0.950 . S
C463 C459 1.393 . S
C463 C462 1.391 . S
H464 C472 0.950 . S
H465 C477 0.950 . S
H466 C474 0.950 . S
H467 C476 0.950 . S
H468 C478 0.950 . S
H469 C480 0.950 . S
H470 C482 0.950 . S
H471 C483 0.950 . S
C472 H464 0.950 . S
C472 C473 1.386 . S
C472 C474 1.391 . S
C473 C472 1.386 . S
C473 C477 1.393 . S
C474 H466 0.950 . S
C474 C472 1.391 . S
C474 C475 1.400 . S
C475 C474 1.400 . S
C475 C476 1.398 . S
C475 C481 1.491 . S
C476 H467 0.950 . S
C476 C475 1.398 . S
C476 C477 1.391 . S
C477 H465 0.950 . S
C477 C473 1.393 . S
C477 C476 1.391 . S
C478 H468 0.950 . S
C478 C479 1.386 . S
C478 C480 1.391 . S
C479 C478 1.386 . S
C479 C483 1.393 . S
C480 H469 0.950 . S
C480 C478 1.391 . S
C480 C481 1.400 . S
C481 C475 1.491 . S
C481 C480 1.400 . S
C481 C482 1.398 . S
C482 H470 0.950 . S
C482 C481 1.398 . S
C482 C483 1.391 . S
C483 H471 0.950 . S
C483 C479 1.393 . S
C483 C482 1.391 . S
H484 C492 0.963 . S
H485 C497 0.950 . S
H486 C494 0.950 . S
H487 C496 0.950 . S
H488 C498 0.963 . S
H489 C500 0.950 . S
H490 C502 0.950 . S
H491 C503 0.950 . S
C492 H484 0.963 . S
C492 C493 1.364 1_655 S
C492 C494 1.400 . S
C493 C492 1.364 1_455 S
C493 C497 1.393 . S
C494 H486 0.950 . S
C494 C492 1.400 . S
C494 C495 1.400 1_655 S
C495 C494 1.400 1_455 S
C495 C496 1.398 . S
C495 C501 1.491 1_455 S
C496 H487 0.950 . S
C496 C495 1.398 . S
C496 C497 1.391 . S
C497 H485 0.950 . S
C497 C493 1.393 . S
C497 C496 1.391 . S
C498 H488 0.963 . S
C498 C499 1.364 1_455 S
C498 C500 1.400 . S
C499 C498 1.364 1_655 S
C499 C503 1.393 . S
C500 H489 0.950 . S
C500 C498 1.400 . S
C500 C501 1.400 1_455 S
C501 C495 1.491 1_655 S
C501 C500 1.400 1_655 S
C501 C502 1.398 . S
C502 H490 0.950 . S
C502 C501 1.398 . S
C502 C503 1.391 . S
C503 H491 0.950 . S
C503 C499 1.393 . S
C503 C502 1.391 . S
H504 C512 0.950 . S
H505 C517 0.950 . S
H506 C514 0.950 . S
H507 C516 0.950 . S
H508 C518 0.950 . S
H509 C520 0.950 . S
H510 C522 0.950 . S
H511 C523 0.950 . S
C512 H504 0.950 . S
C512 C513 1.386 . S
C512 C514 1.391 . S
C513 C512 1.386 . S
C513 C517 1.393 . S
C514 H506 0.950 . S
C514 C512 1.391 . S
C514 C515 1.400 . S
C515 C514 1.400 . S
C515 C516 1.398 . S
C515 C521 1.491 . S
C516 H507 0.950 . S
C516 C515 1.398 . S
C516 C517 1.391 . S
C517 H505 0.950 . S
C517 C513 1.393 . S
C517 C516 1.391 . S
C518 H508 0.950 . S
C518 C519 1.386 . S
C518 C520 1.391 . S
C519 C518 1.386 . S
C519 C523 1.393 . S
C520 H509 0.950 . S
C520 C518 1.391 . S
C520 C521 1.400 . S
C521 C515 1.491 . S
C521 C520 1.400 . S
C521 C522 1.398 . S
C522 H510 0.950 . S
C522 C521 1.398 . S
C522 C523 1.391 . S
C523 H511 0.950 . S
C523 C519 1.393 . S
C523 C522 1.391 . S
H524 C532 0.957 . S
H525 C537 0.950 . S
H526 C534 0.950 . S
H527 C536 0.950 . S
H528 C538 0.957 . S
H529 C540 0.950 . S
H530 C542 0.950 . S
H531 C543 0.950 . S
C532 H524 0.957 . S
C532 C533 1.373 1_655 S
C532 C534 1.396 . S
C533 C532 1.373 1_455 S
C533 C537 1.393 . S
C534 H526 0.950 . S
C534 C532 1.396 . S
C534 C535 1.400 1_655 S
C535 C534 1.400 1_455 S
C535 C536 1.398 . S
C535 C541 1.491 1_455 S
C536 H527 0.950 . S
C536 C535 1.398 . S
C536 C537 1.391 . S
C537 H525 0.950 . S
C537 C533 1.393 . S
C537 C536 1.391 . S
C538 H528 0.957 . S
C538 C539 1.373 1_455 S
C538 C540 1.396 . S
C539 C538 1.373 1_655 S
C539 C543 1.393 . S
C540 H529 0.950 . S
C540 C538 1.396 . S
C540 C541 1.400 1_455 S
C541 C535 1.491 1_655 S
C541 C540 1.400 1_655 S
C541 C542 1.398 . S
C542 H530 0.950 . S
C542 C541 1.398 . S
C542 C543 1.391 . S
C543 H531 0.950 . S
C543 C539 1.393 . S
C543 C542 1.391 . S
H544 C552 0.950 . S
H545 C557 0.950 . S
H546 C554 0.950 . S
H547 C556 0.950 . S
H548 C558 0.950 . S
H549 C560 0.950 . S
H550 C562 0.950 . S
H551 C563 0.950 . S
C552 H544 0.950 . S
C552 C553 1.386 . S
C552 C554 1.391 . S
C553 C552 1.386 . S
C553 C557 1.393 1_455 S
C554 H546 0.950 . S
C554 C552 1.391 . S
C554 C555 1.400 . S
C555 C554 1.400 . S
C555 C556 1.398 1_455 S
C555 C561 1.491 1_455 S
C556 H547 0.950 . S
C556 C555 1.398 1_655 S
C556 C557 1.391 . S
C557 H545 0.950 . S
C557 C553 1.393 1_655 S
C557 C556 1.391 . S
C558 H548 0.950 . S
C558 C559 1.386 . S
C558 C560 1.391 . S
C559 C558 1.386 . S
C559 C563 1.393 1_655 S
C560 H549 0.950 . S
C560 C558 1.391 . S
C560 C561 1.400 . S
C561 C555 1.491 1_655 S
C561 C560 1.400 . S
C561 C562 1.398 1_655 S
C562 H550 0.950 . S
C562 C561 1.398 1_455 S
C562 C563 1.391 . S
C563 H551 0.950 . S
C563 C559 1.393 1_455 S
C563 C562 1.391 . S
H564 C572 0.950 . S
H565 C577 0.950 . S
H566 C574 0.950 . S
H567 C576 0.950 . S
H568 C578 0.950 . S
H569 C580 0.950 . S
H570 C582 0.950 . S
H571 C583 0.950 . S
C572 H564 0.950 . S
C572 C573 1.386 . S
C572 C574 1.391 . S
C573 C572 1.386 . S
C573 C577 1.393 . S
C574 H566 0.950 . S
C574 C572 1.391 . S
C574 C575 1.400 . S
C575 C574 1.400 . S
C575 C576 1.398 . S
C575 C581 1.491 . S
C576 H567 0.950 . S
C576 C575 1.398 . S
C576 C577 1.391 . S
C577 H565 0.950 . S
C577 C573 1.393 . S
C577 C576 1.391 . S
C578 H568 0.950 . S
C578 C579 1.386 . S
C578 C580 1.391 . S
C579 C578 1.386 . S
C579 C583 1.393 . S
C580 H569 0.950 . S
C580 C578 1.391 . S
C580 C581 1.400 . S
C581 C575 1.491 . S
C581 C580 1.400 . S
C581 C582 1.398 . S
C582 H570 0.950 . S
C582 C581 1.398 . S
C582 C583 1.391 . S
C583 H571 0.950 . S
C583 C579 1.393 . S
C583 C582 1.391 . S
H584 C592 0.950 . S
H585 C597 0.950 . S
H586 C594 0.950 . S
H587 C596 0.950 . S
H588 C598 0.950 . S
H589 C600 0.950 . S
H590 C602 0.950 . S
H591 C603 0.950 . S
C592 H584 0.950 . S
C592 C593 1.386 . S
C592 C594 1.391 . S
C593 C592 1.386 . S
C593 C597 1.393 . S
C594 H586 0.950 . S
C594 C592 1.391 . S
C594 C595 1.400 . S
C595 C594 1.400 . S
C595 C596 1.398 . S
C595 C601 1.491 . S
C596 H587 0.950 . S
C596 C595 1.398 . S
C596 C597 1.391 . S
C597 H585 0.950 . S
C597 C593 1.393 . S
C597 C596 1.391 . S
C598 H588 0.950 . S
C598 C599 1.386 . S
C598 C600 1.391 . S
C599 C598 1.386 . S
C599 C603 1.393 . S
C600 H589 0.950 . S
C600 C598 1.391 . S
C600 C601 1.400 . S
C601 C595 1.491 . S
C601 C600 1.400 . S
C601 C602 1.398 . S
C602 H590 0.950 . S
C602 C601 1.398 . S
C602 C603 1.391 . S
C603 H591 0.950 . S
C603 C599 1.393 . S
C603 C602 1.391 . S
H604 C612 0.950 1_655 S
H605 C617 0.950 . S
H606 C614 0.950 . S
H607 C616 0.950 . S
H608 C618 0.950 1_455 S
H609 C620 0.950 . S
H610 C622 0.950 . S
H611 C623 0.950 . S
C612 H604 0.950 1_455 S
C612 C613 1.386 . S
C612 C614 1.391 1_455 S
C613 C612 1.386 . S
C613 C617 1.393 . S
C614 H606 0.950 . S
C614 C612 1.391 1_655 S
C614 C615 1.400 1_655 S
C615 C614 1.400 1_455 S
C615 C616 1.398 . S
C615 C621 1.491 1_455 S
C616 H607 0.950 . S
C616 C615 1.398 . S
C616 C617 1.391 . S
C617 H605 0.950 . S
C617 C613 1.393 . S
C617 C616 1.391 . S
C618 H608 0.950 1_655 S
C618 C619 1.386 . S
C618 C620 1.391 1_655 S
C619 C618 1.386 . S
C619 C623 1.393 . S
C620 H609 0.950 . S
C620 C618 1.391 1_455 S
C620 C621 1.400 1_455 S
C621 C615 1.491 1_655 S
C621 C620 1.400 1_655 S
C621 C622 1.398 . S
C622 H610 0.950 . S
C622 C621 1.398 . S
C622 C623 1.391 . S
C623 H611 0.950 . S
C623 C619 1.393 . S
C623 C622 1.391 . S
H624 C632 0.950 . S
H625 C637 0.950 . S
H626 C634 0.950 . S
H627 C636 0.950 . S
H628 C638 0.950 . S
H629 C640 0.950 . S
H630 C642 0.950 . S
H631 C643 0.950 . S
C632 H624 0.950 . S
C632 C633 1.386 . S
C632 C634 1.391 . S
C633 C632 1.386 . S
C633 C637 1.393 . S
C634 H626 0.950 . S
C634 C632 1.391 . S
C634 C635 1.400 . S
C635 C634 1.400 . S
C635 C636 1.398 . S
C635 C641 1.491 1_455 S
C636 H627 0.950 . S
C636 C635 1.398 . S
C636 C637 1.391 . S
C637 H625 0.950 . S
C637 C633 1.393 . S
C637 C636 1.391 . S
C638 H628 0.950 . S
C638 C639 1.386 . S
C638 C640 1.391 . S
C639 C638 1.386 . S
C639 C643 1.393 . S
C640 H629 0.950 . S
C640 C638 1.391 . S
C640 C641 1.400 . S
C641 C635 1.491 1_655 S
C641 C640 1.400 . S
C641 C642 1.398 . S
C642 H630 0.950 . S
C642 C641 1.398 . S
C642 C643 1.391 . S
C643 H631 0.950 . S
C643 C639 1.393 . S
C643 C642 1.391 . S
H644 C652 0.950 . S
H645 C657 0.950 . S
H646 C654 0.950 . S
H647 C656 0.950 . S
H648 C658 0.950 . S
H649 C660 0.950 . S
H650 C662 0.950 . S
H651 C663 0.950 . S
C652 H644 0.950 . S
C652 C653 1.386 . S
C652 C654 1.391 . S
C653 C652 1.386 . S
C653 C657 1.393 . S
C654 H646 0.950 . S
C654 C652 1.391 . S
C654 C655 1.400 . S
C655 C654 1.400 . S
C655 C656 1.398 . S
C655 C661 1.491 . S
C656 H647 0.950 . S
C656 C655 1.398 . S
C656 C657 1.391 . S
C657 H645 0.950 . S
C657 C653 1.393 . S
C657 C656 1.391 . S
C658 H648 0.950 . S
C658 C659 1.386 . S
C658 C660 1.391 . S
C659 C658 1.386 . S
C659 C663 1.393 . S
C660 H649 0.950 . S
C660 C658 1.391 . S
C660 C661 1.400 . S
C661 C655 1.491 . S
C661 C660 1.400 . S
C661 C662 1.398 . S
C662 H650 0.950 . S
C662 C661 1.398 . S
C662 C663 1.391 . S
C663 H651 0.950 . S
C663 C659 1.393 . S
C663 C662 1.391 . S
H664 C672 0.950 . S
H665 C677 0.950 . S
H666 C674 0.950 . S
H667 C676 0.950 . S
H668 C678 0.950 . S
H669 C680 0.950 . S
H670 C682 0.950 . S
H671 C683 0.950 . S
C672 H664 0.950 . S
C672 C673 1.386 . S
C672 C674 1.391 . S
C673 C672 1.386 . S
C673 C677 1.393 . S
C674 H666 0.950 . S
C674 C672 1.391 . S
C674 C675 1.400 . S
C675 C674 1.400 . S
C675 C676 1.398 . S
C675 C681 1.491 . S
C676 H667 0.950 . S
C676 C675 1.398 . S
C676 C677 1.391 . S
C677 H665 0.950 . S
C677 C673 1.393 . S
C677 C676 1.391 . S
C678 H668 0.950 . S
C678 C679 1.386 . S
C678 C680 1.391 . S
C679 C678 1.386 . S
C679 C683 1.393 . S
C680 H669 0.950 . S
C680 C678 1.391 . S
C680 C681 1.400 . S
C681 C675 1.491 . S
C681 C680 1.400 . S
C681 C682 1.398 . S
C682 H670 0.950 . S
C682 C681 1.398 . S
C682 C683 1.391 . S
C683 H671 0.950 . S
C683 C679 1.393 . S
C683 C682 1.391 . S
H684 C692 0.950 . S
H685 C697 0.950 . S
H686 C694 0.950 . S
H687 C696 0.950 1_655 S
H688 C698 0.950 . S
H689 C700 0.950 . S
H690 C702 0.950 1_455 S
H691 C703 0.950 . S
C692 H684 0.950 . S
C692 C693 1.386 . S
C692 C694 1.391 . S
C693 C692 1.386 . S
C693 C697 1.393 . S
C694 H686 0.950 . S
C694 C692 1.391 . S
C694 C695 1.400 . S
C695 C694 1.400 . S
C695 C696 1.398 . S
C695 C701 1.491 1_455 S
C696 H687 0.950 1_455 S
C696 C695 1.398 . S
C696 C697 1.391 . S
C697 H685 0.950 . S
C697 C693 1.393 . S
C697 C696 1.391 . S
C698 H688 0.950 . S
C698 C699 1.386 . S
C698 C700 1.391 . S
C699 C698 1.386 . S
C699 C703 1.393 . S
C700 H689 0.950 . S
C700 C698 1.391 . S
C700 C701 1.400 . S
C701 C695 1.491 1_655 S
C701 C700 1.400 . S
C701 C702 1.398 . S
C702 H690 0.950 1_655 S
C702 C701 1.398 . S
C702 C703 1.391 . S
C703 H691 0.950 . S
C703 C699 1.393 . S
C703 C702 1.391 . S
H704 C712 0.950 . S
H705 C717 0.951 1_545 S
H706 C714 0.976 . S
H707 C716 0.950 . S
H708 C718 0.950 . S
H709 C720 0.976 . S
H710 C722 0.950 . S
H711 C723 0.951 1_565 S
C712 H704 0.950 . S
C712 C713 1.386 . S
C712 C714 1.391 . S
C713 C712 1.386 . S
C713 C717 1.391 . S
C714 H706 0.976 . S
C714 C712 1.391 . S
C714 C715 1.400 . S
C715 C714 1.400 . S
C715 C716 1.398 1_565 S
C715 C721 1.491 1_666 S
C716 H707 0.950 . S
C716 C715 1.398 1_545 S
C716 C717 1.391 1_545 S
C717 H705 0.951 1_565 S
C717 C713 1.391 . S
C717 C716 1.391 1_565 S
C718 H708 0.950 . S
C718 C719 1.386 . S
C718 C720 1.391 . S
C719 C718 1.386 . S
C719 C723 1.391 . S
C720 H709 0.976 . S
C720 C718 1.391 . S
C720 C721 1.400 . S
C721 C715 1.491 1_444 S
C721 C720 1.400 . S
C721 C722 1.398 1_545 S
C722 H710 0.950 . S
C722 C721 1.398 1_565 S
C722 C723 1.391 1_565 S
C723 H711 0.951 1_545 S
C723 C719 1.391 . S
C723 C722 1.391 1_545 S
H724 C732 0.949 1_565 S
H725 C737 0.950 . S
H726 C734 0.950 . S
H727 C736 0.937 1_554 S
H728 C738 0.949 1_545 S
H729 C740 0.950 . S
H730 C742 0.938 1_556 S
H731 C743 0.950 . S
C732 H724 0.949 1_545 S
C732 C733 1.386 . S
C732 C734 1.391 1_545 S
C733 C732 1.386 . S
C733 C737 1.393 . S
C734 H726 0.950 . S
C734 C732 1.391 1_565 S
C734 C735 1.400 1_565 S
C735 C734 1.400 1_545 S
C735 C736 1.398 . S
C735 C741 1.491 1_546 S
C736 H727 0.937 1_556 S
C736 C735 1.398 . S
C736 C737 1.391 . S
C737 H725 0.950 . S
C737 C733 1.393 . S
C737 C736 1.391 . S
C738 H728 0.949 1_565 S
C738 C739 1.386 . S
C738 C740 1.391 1_565 S
C739 C738 1.386 . S
C739 C743 1.393 . S
C740 H729 0.950 . S
C740 C738 1.391 1_545 S
C740 C741 1.400 1_545 S
C741 C735 1.491 1_564 S
C741 C740 1.400 1_565 S
C741 C742 1.398 . S
C742 H730 0.938 1_554 S
C742 C741 1.398 . S
C742 C743 1.391 . S
C743 H731 0.950 . S
C743 C739 1.393 . S
C743 C742 1.391 . S
H744 C752 0.950 . S
H745 C757 0.950 . S
H746 C754 0.950 1_565 S
H747 C756 0.950 . S
H748 C758 0.950 . S
H749 C760 0.950 1_545 S
H750 C762 0.950 . S
H751 C763 0.950 . S
C752 H744 0.950 . S
C752 C753 1.386 . S
C752 C754 1.391 . S
C753 C752 1.386 . S
C753 C757 1.393 . S
C754 H746 0.950 1_545 S
C754 C752 1.391 . S
C754 C755 1.400 . S
C755 C754 1.400 . S
C755 C756 1.398 . S
C755 C761 1.491 1_545 S
C756 H747 0.950 . S
C756 C755 1.398 . S
C756 C757 1.391 . S
C757 H745 0.950 . S
C757 C753 1.393 . S
C757 C756 1.391 . S
C758 H748 0.950 . S
C758 C759 1.386 . S
C758 C760 1.391 . S
C759 C758 1.386 . S
C759 C763 1.393 . S
C760 H749 0.950 1_565 S
C760 C758 1.391 . S
C760 C761 1.400 . S
C761 C755 1.491 1_565 S
C761 C760 1.400 . S
C761 C762 1.398 . S
C762 H750 0.950 . S
C762 C761 1.398 . S
C762 C763 1.391 . S
C763 H751 0.950 . S
C763 C759 1.393 . S
C763 C762 1.391 . S
H764 C772 0.950 . S
H765 C777 0.950 1_545 S
H766 C774 0.950 . S
H767 C776 0.950 1_655 S
H768 C778 0.950 . S
H769 C780 0.950 . S
H770 C782 0.950 1_455 S
H771 C783 0.950 1_565 S
C772 H764 0.950 . S
C772 C773 1.386 . S
C772 C774 1.391 . S
C773 C772 1.386 . S
C773 C777 1.393 . S
C774 H766 0.950 . S
C774 C772 1.391 . S
C774 C775 1.400 . S
C775 C774 1.400 . S
C775 C776 1.398 1_565 S
C775 C781 1.491 1_465 S
C776 H767 0.950 1_455 S
C776 C775 1.398 1_545 S
C776 C777 1.391 1_545 S
C777 H765 0.950 1_565 S
C777 C773 1.393 . S
C777 C776 1.391 1_565 S
C778 H768 0.950 . S
C778 C779 1.386 . S
C778 C780 1.391 . S
C779 C778 1.386 . S
C779 C783 1.393 . S
C780 H769 0.950 . S
C780 C778 1.391 . S
C780 C781 1.400 . S
C781 C775 1.491 1_645 S
C781 C780 1.400 . S
C781 C782 1.398 1_545 S
C782 H770 0.950 1_655 S
C782 C781 1.398 1_565 S
C782 C783 1.391 1_565 S
C783 H771 0.950 1_545 S
C783 C779 1.393 . S
C783 C782 1.391 1_545 S
H784 C792 0.950 . S
H785 C797 0.950 . S
H786 C794 0.950 . S
H787 C796 0.950 . S
H788 C798 0.950 . S
H789 C800 0.950 . S
H790 C802 0.950 . S
H791 C803 0.950 . S
C792 H784 0.950 . S
C792 C793 1.386 . S
C792 C794 1.391 . S
C793 C792 1.386 . S
C793 C797 1.393 . S
C794 H786 0.950 . S
C794 C792 1.391 . S
C794 C795 1.400 . S
C795 C794 1.400 . S
C795 C796 1.398 . S
C795 C801 1.491 1_554 S
C796 H787 0.950 . S
C796 C795 1.398 . S
C796 C797 1.391 . S
C797 H785 0.950 . S
C797 C793 1.393 . S
C797 C796 1.391 . S
C798 H788 0.950 . S
C798 C799 1.386 . S
C798 C800 1.391 . S
C799 C798 1.386 . S
C799 C803 1.393 . S
C800 H789 0.950 . S
C800 C798 1.391 . S
C800 C801 1.400 . S
C801 C795 1.491 1_556 S
C801 C800 1.400 . S
C801 C802 1.398 . S
C802 H790 0.950 . S
C802 C801 1.398 . S
C802 C803 1.391 . S
C803 H791 0.950 . S
C803 C799 1.393 . S
C803 C802 1.391 . S
H804 C812 0.950 1_455 S
H805 C817 0.950 . S
H806 C814 0.950 . S
H807 C816 0.950 . S
H808 C818 0.950 1_655 S
H809 C820 0.950 . S
H810 C822 0.950 . S
H811 C823 0.950 . S
C812 H804 0.950 1_655 S
C812 C813 1.386 . S
C812 C814 1.391 1_655 S
C813 C812 1.386 . S
C813 C817 1.393 . S
C814 H806 0.950 . S
C814 C812 1.391 1_455 S
C814 C815 1.400 1_455 S
C815 C814 1.400 1_655 S
C815 C816 1.398 . S
C815 C821 1.491 1_654 S
C816 H807 0.950 . S
C816 C815 1.398 . S
C816 C817 1.391 . S
C817 H805 0.950 . S
C817 C813 1.393 . S
C817 C816 1.391 . S
C818 H808 0.950 1_455 S
C818 C819 1.386 . S
C818 C820 1.391 1_455 S
C819 C818 1.386 . S
C819 C823 1.393 . S
C820 H809 0.950 . S
C820 C818 1.391 1_655 S
C820 C821 1.400 1_655 S
C821 C815 1.491 1_456 S
C821 C820 1.400 1_455 S
C821 C822 1.398 . S
C822 H810 0.950 . S
C822 C821 1.398 . S
C822 C823 1.391 . S
C823 H811 0.950 . S
C823 C819 1.393 . S
C823 C822 1.391 . S
H824 C832 0.950 . S
H825 C837 0.950 . S
H826 C834 0.950 . S
H827 C836 0.950 . S
H828 C838 0.950 . S
H829 C840 0.950 . S
H830 C842 0.950 . S
H831 C843 0.950 . S
C832 H824 0.950 . S
C832 C833 1.386 . S
C832 C834 1.391 . S
C833 C832 1.386 . S
C833 C837 1.393 . S
C834 H826 0.950 . S
C834 C832 1.391 . S
C834 C835 1.400 . S
C835 C834 1.400 . S
C835 C836 1.398 1_655 S
C835 C841 1.491 1_655 S
C836 H827 0.950 . S
C836 C835 1.398 1_455 S
C836 C837 1.391 1_455 S
C837 H825 0.950 . S
C837 C833 1.393 . S
C837 C836 1.391 1_655 S
C838 H828 0.950 . S
C838 C839 1.386 . S
C838 C840 1.391 . S
C839 C838 1.386 . S
C839 C843 1.393 . S
C840 H829 0.950 . S
C840 C838 1.391 . S
C840 C841 1.400 . S
C841 C835 1.491 1_455 S
C841 C840 1.400 . S
C841 C842 1.398 1_455 S
C842 H830 0.950 . S
C842 C841 1.398 1_655 S
C842 C843 1.391 1_655 S
C843 H831 0.950 . S
C843 C839 1.393 . S
C843 C842 1.391 1_455 S
H844 C852 0.950 . S
H845 C857 0.950 . S
H846 C854 0.950 . S
H847 C856 0.950 . S
H848 C858 0.950 . S
H849 C860 0.950 . S
H850 C862 0.950 . S
H851 C863 0.950 . S
C852 H844 0.950 . S
C852 C853 1.386 . S
C852 C854 1.391 . S
C853 C852 1.386 . S
C853 C857 1.393 . S
C854 H846 0.950 . S
C854 C852 1.391 . S
C854 C855 1.400 . S
C855 C854 1.400 . S
C855 C856 1.398 . S
C855 C861 1.491 . S
C856 H847 0.950 . S
C856 C855 1.398 . S
C856 C857 1.391 . S
C857 H845 0.950 . S
C857 C853 1.393 . S
C857 C856 1.391 . S
C858 H848 0.950 . S
C858 C859 1.386 . S
C858 C860 1.391 . S
C859 C858 1.386 . S
C859 C863 1.393 . S
C860 H849 0.950 . S
C860 C858 1.391 . S
C860 C861 1.400 . S
C861 C855 1.491 . S
C861 C860 1.400 . S
C861 C862 1.398 . S
C862 H850 0.950 . S
C862 C861 1.398 . S
C862 C863 1.391 . S
C863 H851 0.950 . S
C863 C859 1.393 . S
C863 C862 1.391 . S
C233 C21 1.533 . S
C239 C7 1.529 . S
C253 C35 1.534 . S
C259 C49 1.531 . S
C273 C62 1.525 . S
C279 C76 1.518 . S
C293 C104 1.529 . S
C299 C90 1.533 . S
C313 C133 1.520 . S
C319 C119 1.527 . S
C333 C161 1.534 . S
C339 C147 1.532 . S
C353 C188 1.532 . S
C359 C174 1.528 . S
C373 C216 1.518 . S
C379 C202 1.513 . S
C393 C48 1.524 . S
C399 C6 1.524 . S
C413 C20 1.519 . S
C419 C34 1.519 . S
C433 C105 1.523 . S
C439 C63 1.523 . S
C453 C91 1.513 . S
C459 C77 1.512 . S
C473 C118 1.508 . S
C479 C160 1.508 . S
C493 C146 1.511 . S
C499 C132 1.512 . S
C513 C217 1.507 . S
C519 C175 1.507 . S
C533 C189 1.521 . S
C539 C203 1.521 . S
C553 C8 1.459 . S
C559 C134 1.446 . S
C573 C22 1.463 . S
C579 C120 1.457 . S
C593 C162 1.450 . S
C599 C36 1.452 . S
C613 C148 1.447 . S
C619 C50 1.458 . S
C633 C191 1.452 . S
C639 C65 1.450 . S
C653 C177 1.457 . S
C659 C79 1.463 . S
C673 C93 1.454 . S
C679 C219 1.464 . S
C693 C107 1.456 . S
C699 C205 1.463 . S
C713 C64 1.575 . S
C719 C9 1.575 . S
C733 C78 1.563 . S
C739 C23 1.563 . S
C753 C92 1.567 . S
C759 C37 1.567 . S
C773 C106 1.574 . S
C779 C51 1.574 . S
C793 C121 1.563 . S
C799 C176 1.563 . S
C813 C135 1.566 . S
C819 C190 1.566 . S
C833 C204 1.573 . S
C839 C149 1.573 . S
C853 C218 1.574 . S
C859 C163 1.574 . S
