# Generated by pormake.
# Topology uou, (4)-cn, num edge types: 1
# Building blocks:
#     Node 0, Type 0, BuildingBlock: ICAMEG_clean_sbu_1, # of connection points: 4
#     Node 1, Type 0, BuildingBlock: ICAMEG_clean_sbu_1, # of connection points: 4
#     Node 2, Type 0, BuildingBlock: ICAMEG_clean_sbu_1, # of connection points: 4
#     Node 3, Type 0, BuildingBlock: ICAMEG_clean_sbu_1, # of connection points: 4
#     Node 4, Type 0, BuildingBlock: ICAMEG_clean_sbu_1, # of connection points: 4
#     Node 5, Type 0, BuildingBlock: ICAMEG_clean_sbu_1, # of connection points: 4
#     Node 6, Type 0, BuildingBlock: ICAMEG_clean_sbu_1, # of connection points: 4
#     Node 7, Type 0, BuildingBlock: ICAMEG_clean_sbu_1, # of connection points: 4
#     Node 8, Type 0, BuildingBlock: ICAMEG_clean_sbu_1, # of connection points: 4
#     Node 9, Type 0, BuildingBlock: ICAMEG_clean_sbu_1, # of connection points: 4
#     Node 10, Type 0, BuildingBlock: ICAMEG_clean_sbu_1, # of connection points: 4
#     Node 11, Type 0, BuildingBlock: ICAMEG_clean_sbu_1, # of connection points: 4
#     Node 12, Type 0, BuildingBlock: ICAMEG_clean_sbu_1, # of connection points: 4
#     Node 13, Type 0, BuildingBlock: ICAMEG_clean_sbu_1, # of connection points: 4
#     Node 14, Type 0, BuildingBlock: ICAMEG_clean_sbu_1, # of connection points: 4
#     Node 15, Type 0, BuildingBlock: ICAMEG_clean_sbu_1, # of connection points: 4
#     Edge 16, Type (0, 0), BuildingBlock: KIFKEQ_clean_linker_1, # of connection points: 2
#     Edge 17, Type (0, 0), BuildingBlock: KIFKEQ_clean_linker_1, # of connection points: 2
#     Edge 18, Type (0, 0), BuildingBlock: KIFKEQ_clean_linker_1, # of connection points: 2
#     Edge 19, Type (0, 0), BuildingBlock: KIFKEQ_clean_linker_1, # of connection points: 2
#     Edge 20, Type (0, 0), BuildingBlock: KIFKEQ_clean_linker_1, # of connection points: 2
#     Edge 21, Type (0, 0), BuildingBlock: KIFKEQ_clean_linker_1, # of connection points: 2
#     Edge 22, Type (0, 0), BuildingBlock: KIFKEQ_clean_linker_1, # of connection points: 2
#     Edge 23, Type (0, 0), BuildingBlock: KIFKEQ_clean_linker_1, # of connection points: 2
#     Edge 24, Type (0, 0), BuildingBlock: KIFKEQ_clean_linker_1, # of connection points: 2
#     Edge 25, Type (0, 0), BuildingBlock: KIFKEQ_clean_linker_1, # of connection points: 2
#     Edge 26, Type (0, 0), BuildingBlock: KIFKEQ_clean_linker_1, # of connection points: 2
#     Edge 27, Type (0, 0), BuildingBlock: KIFKEQ_clean_linker_1, # of connection points: 2
#     Edge 28, Type (0, 0), BuildingBlock: KIFKEQ_clean_linker_1, # of connection points: 2
#     Edge 29, Type (0, 0), BuildingBlock: KIFKEQ_clean_linker_1, # of connection points: 2
#     Edge 30, Type (0, 0), BuildingBlock: KIFKEQ_clean_linker_1, # of connection points: 2
#     Edge 31, Type (0, 0), BuildingBlock: KIFKEQ_clean_linker_1, # of connection points: 2
#     Edge 32, Type (0, 0), BuildingBlock: KIFKEQ_clean_linker_1, # of connection points: 2
#     Edge 33, Type (0, 0), BuildingBlock: KIFKEQ_clean_linker_1, # of connection points: 2
#     Edge 34, Type (0, 0), BuildingBlock: KIFKEQ_clean_linker_1, # of connection points: 2
#     Edge 35, Type (0, 0), BuildingBlock: KIFKEQ_clean_linker_1, # of connection points: 2
#     Edge 36, Type (0, 0), BuildingBlock: KIFKEQ_clean_linker_1, # of connection points: 2
#     Edge 37, Type (0, 0), BuildingBlock: KIFKEQ_clean_linker_1, # of connection points: 2
#     Edge 38, Type (0, 0), BuildingBlock: KIFKEQ_clean_linker_1, # of connection points: 2
#     Edge 39, Type (0, 0), BuildingBlock: KIFKEQ_clean_linker_1, # of connection points: 2
#     Edge 40, Type (0, 0), BuildingBlock: KIFKEQ_clean_linker_1, # of connection points: 2
#     Edge 41, Type (0, 0), BuildingBlock: KIFKEQ_clean_linker_1, # of connection points: 2
#     Edge 42, Type (0, 0), BuildingBlock: KIFKEQ_clean_linker_1, # of connection points: 2
#     Edge 43, Type (0, 0), BuildingBlock: KIFKEQ_clean_linker_1, # of connection points: 2
#     Edge 44, Type (0, 0), BuildingBlock: KIFKEQ_clean_linker_1, # of connection points: 2
#     Edge 45, Type (0, 0), BuildingBlock: KIFKEQ_clean_linker_1, # of connection points: 2
#     Edge 46, Type (0, 0), BuildingBlock: KIFKEQ_clean_linker_1, # of connection points: 2
#     Edge 47, Type (0, 0), BuildingBlock: KIFKEQ_clean_linker_1, # of connection points: 2
# Relax obj value: 0.027
# Max RMSD: 0.082
# Mean RMSD: 0.082
data_MOF--net-uou--node1-ICAMEG_clean_sbu_1--edge1-KIFKEQ_clean_linker_1
_symmetry_space_group_name_H-M    P1
_symmetry_Int_Tables_number       1
_symmetry_cell_setting            triclinic
loop_
_symmetry_equiv_pos_as_xyz
'x, y, z'
_cell_length_a     42.23494
_cell_length_b     40.941211
_cell_length_c     58.856884
_cell_angle_alpha  89.989067
_cell_angle_beta   90.094546
_cell_angle_gamma 89.974159
loop_
_atom_site_label
_atom_site_type_symbol
_atom_site_fract_x
_atom_site_fract_y
_atom_site_fract_z
_atom_type_partial_charge
Co0 Co 0.02978 0.06909 0.1328 0.0
Co1 Co 0.10211 0.10188 0.14633 0.0
O2 O 0.07641 0.06765 0.13176 0.0
C3 C 0.04043 0.05701 0.08326 0.0
O4 O 0.061 0.08105 0.0829 0.0
C5 C 0.13936 0.03944 0.15471 0.0
O6 O 0.11575 0.02066 0.14845 0.0
O7 O 0.08056 0.09322 0.17591 0.0
O8 O 0.03032 0.08869 0.16399 0.0
H9 H 0.11797 0.20009 0.19624 0.0
H10 H 0.06086 0.00639 0.12126 0.0
O11 O 0.02699 0.04902 0.10178 0.0
H12 H 0.99928 0.98403 0.19065 0.0
H13 H 0.91993 0.02486 0.11982 0.0
H14 H 0.98258 0.11835 0.14756 0.0
H15 H 0.99866 0.03878 0.17323 0.0
H16 H 0.97828 0.02296 0.11936 0.0
O17 O 0.13639 0.07034 0.15484 0.0
H18 H 0.0871 0.15696 0.17714 0.0
H19 H 0.17095 0.11923 0.1472 0.0
H20 H 0.92429 0.12117 0.14849 0.0
H21 H 0.06181 0.95112 0.13796 0.0
H22 H 0.89254 0.07419 0.13454 0.0
H23 H 0.03095 0.9397 0.17296 0.0
O24 O 0.02975 0.11366 0.11918 0.0
H25 H 0.15443 0.0684 0.07325 0.0
H26 H 0.11927 0.16161 0.11977 0.0
H27 H 0.14418 0.17183 0.08264 0.0
H28 H 0.1621 0.125 0.05911 0.0
H29 H 0.12901 0.05933 0.11034 0.0
H30 H 0.20273 0.16174 0.16617 0.0
H31 H 0.17622 0.20267 0.19082 0.0
O32 O 0.07006 0.13584 0.13845 0.0
C33 C 0.05081 0.09243 0.17971 0.0
C34 C 0.12978 0.18244 0.18551 0.0
C35 C 0.17736 0.16089 0.16866 0.0
N36 N 0.12714 0.13567 0.16097 0.0
C37 C 0.11242 0.15799 0.17461 0.0
C38 C 0.15923 0.1368 0.15802 0.0
C39 C 0.16247 0.18385 0.18247 0.0
C40 C 0.0472 1.00153 0.1364 0.0
N41 N 0.0298 0.02581 0.14627 0.0
C42 C 0.0479 0.97023 0.14582 0.0
C43 C 0.03061 0.96385 0.16547 0.0
C44 C 0.01287 0.98872 0.17542 0.0
C45 C 0.01274 0.01973 0.16553 0.0
C46 C 0.9335 0.04548 0.12596 0.0
C47 C 0.96895 0.09774 0.14155 0.0
C48 C 0.96655 0.04458 0.12568 0.0
N49 N 0.98385 0.07047 0.13351 0.0
C50 C 0.93594 0.09951 0.14208 0.0
C51 C 0.91815 0.07316 0.13423 0.0
C52 C 0.04574 0.13833 0.12576 0.0
C53 C 0.14685 0.08902 0.08338 0.0
C54 C 0.1268 0.14111 0.10962 0.0
C55 C 0.14101 0.14705 0.08862 0.0
C56 C 0.15109 0.12077 0.07544 0.0
N57 N 0.12282 0.1099 0.11738 0.0
C58 C 0.13256 0.08404 0.10449 0.0
Co59 Co 0.47056 0.93531 0.13063 0.0
Co60 Co 0.40319 0.89625 0.14958 0.0
O61 O 0.42426 0.92993 0.1311 0.0
C62 C 0.48716 0.93474 0.08192 0.0
O63 O 0.50647 0.91076 0.08723 0.0
C64 C 0.36402 0.95648 0.15867 0.0
O65 O 0.38882 0.9756 0.15693 0.0
O66 O 0.42572 0.91163 0.1775 0.0
O67 O 0.47364 0.92462 0.16379 0.0
H68 H 0.39971 0.80673 0.20795 0.0
H69 H 0.43053 0.98842 0.11213 0.0
O70 O 0.46881 0.94657 0.09713 0.0
H71 H 0.4896 0.03831 0.17556 0.0
H72 H 0.57299 0.99206 0.11101 0.0
H73 H 0.5244 0.89725 0.14909 0.0
H74 H 0.49783 0.9805 0.16554 0.0
H75 H 0.51498 0.98523 0.1114 0.0
O76 O 0.36674 0.92578 0.15628 0.0
H77 H 0.42519 0.84879 0.18423 0.0
H78 H 0.33652 0.87257 0.15431 0.0
H79 H 0.58251 0.90316 0.14912 0.0
H80 H 0.42196 0.04652 0.12133 0.0
H81 H 0.60717 0.95084 0.12997 0.0
H82 H 0.45153 0.0718 0.15332 0.0
O83 O 0.47604 0.88807 0.12292 0.0
H84 H 0.34147 0.91167 0.07733 0.0
H85 H 0.39119 0.83099 0.1283 0.0
H86 H 0.3646 0.81219 0.09339 0.0
H87 H 0.33936 0.85266 0.06765 0.0
H88 H 0.3687 0.92943 0.11231 0.0
H89 H 0.31006 0.83097 0.17785 0.0
H90 H 0.34172 0.7976 0.20485 0.0
O91 O 0.43768 0.86458 0.14339 0.0
C92 C 0.45495 0.91864 0.1803 0.0
C93 C 0.38566 0.82107 0.19622 0.0
C94 C 0.33534 0.83471 0.17935 0.0
N95 N 0.38241 0.86308 0.16784 0.0
C96 C 0.39997 0.8449 0.18272 0.0
C97 C 0.35046 0.85832 0.16612 0.0
C98 C 0.35312 0.81598 0.19449 0.0
C99 C 0.44374 0.99934 0.12591 0.0
N100 N 0.46471 0.98107 0.13823 0.0
C101 C 0.43868 0.03221 0.13112 0.0
C102 C 0.45523 0.04636 0.14909 0.0
C103 C 0.47656 0.02757 0.1616 0.0
C104 C 0.48099 0.99477 0.15591 0.0
C105 C 0.56252 0.9712 0.11943 0.0
C106 C 0.53495 0.91809 0.14074 0.0
C107 C 0.52969 0.96721 0.11973 0.0
N108 N 0.51629 0.94087 0.1303 0.0
C109 C 0.56787 0.9213 0.14081 0.0
C110 C 0.58169 0.94805 0.13007 0.0
C111 C 0.46229 0.86293 0.13104 0.0
C112 C 0.35235 0.89379 0.08842 0.0
C113 C 0.38055 0.84878 0.11712 0.0
C114 C 0.36538 0.83797 0.09741 0.0
C115 C 0.3512 0.86069 0.08299 0.0
N116 N 0.38153 0.88128 0.12237 0.0
C117 C 0.36774 0.9037 0.10828 0.0
Co118 Co 0.53982 0.93537 0.38765 0.0
Co119 Co 0.60748 0.89846 0.36764 0.0
O120 O 0.58625 0.93209 0.38607 0.0
C121 C 0.52757 0.93724 0.43726 0.0
O122 O 0.51035 0.91087 0.43432 0.0
C123 C 0.64587 0.95946 0.35878 0.0
O124 O 0.6214 0.9785 0.36242 0.0
O125 O 0.58358 0.913 0.34015 0.0
O126 O 0.53542 0.92234 0.35487 0.0
H127 H 0.61088 0.80812 0.30991 0.0
H128 H 0.5782 0.99173 0.40307 0.0
O129 O 0.54296 0.94926 0.42054 0.0
H130 H 0.51248 0.03413 0.34033 0.0
H131 H 0.43611 0.9878 0.40941 0.0
H132 H 0.48686 0.89373 0.37188 0.0
H133 H 0.50807 0.97667 0.35236 0.0
H134 H 0.49428 0.98392 0.40715 0.0
O135 O 0.64313 0.92861 0.35999 0.0
H136 H 0.58533 0.85001 0.33374 0.0
H137 H 0.67446 0.87614 0.3619 0.0
H138 H 0.42859 0.89668 0.37372 0.0
H139 H 0.58295 0.04957 0.39187 0.0
H140 H 0.40284 0.94398 0.3926 0.0
H141 H 0.55003 0.07108 0.36021 0.0
O142 O 0.5371 0.88855 0.397 0.0
H143 H 0.67085 0.91647 0.43886 0.0
H144 H 0.62197 0.83382 0.38908 0.0
H145 H 0.6501 0.81618 0.42367 0.0
H146 H 0.67493 0.85765 0.44881 0.0
H147 H 0.6421 0.93303 0.40423 0.0
H148 H 0.70099 0.83473 0.33822 0.0
H149 H 0.66913 0.80026 0.31205 0.0
O150 O 0.57389 0.86599 0.37468 0.0
C151 C 0.55383 0.91785 0.33794 0.0
C152 C 0.62501 0.82294 0.32127 0.0
C153 C 0.67559 0.8379 0.33714 0.0
N154 N 0.62833 0.86545 0.34927 0.0
C155 C 0.61067 0.84667 0.33484 0.0
C156 C 0.66043 0.8614 0.35046 0.0
C157 C 0.6577 0.81856 0.32247 0.0
C158 C 0.56356 1.00099 0.38944 0.0
N159 N 0.54289 0.98079 0.3784 0.0
C160 C 0.56646 0.03373 0.3831 0.0
C161 C 0.54802 0.04577 0.36531 0.0
C162 C 0.52699 0.02504 0.35413 0.0
C163 C 0.52474 0.99244 0.36093 0.0
C164 C 0.44704 0.96708 0.40113 0.0
C165 C 0.47583 0.91441 0.38009 0.0
C166 C 0.47997 0.96475 0.39979 0.0
N167 N 0.49397 0.93864 0.38935 0.0
C168 C 0.44283 0.91594 0.3811 0.0
C169 C 0.4284 0.94249 0.39169 0.0
C170 C 0.55071 0.86371 0.38834 0.0
C171 C 0.66017 0.89816 0.42803 0.0
C172 C 0.63243 0.85203 0.4 0.0
C173 C 0.64848 0.84188 0.41953 0.0
C174 C 0.66243 0.86516 0.43361 0.0
N175 N 0.63039 0.88443 0.39458 0.0
C176 C 0.64393 0.90739 0.40836 0.0
Co177 Co 0.97951 0.06769 0.38643 0.0
Co178 Co 0.90867 0.10334 0.37183 0.0
O179 O 0.9329 0.0686 0.38707 0.0
C180 C 0.97145 0.06127 0.43681 0.0
O181 O 0.95671 0.08951 0.4372 0.0
C182 C 0.87065 0.04201 0.36211 0.0
O183 O 0.89481 0.02276 0.36627 0.0
O184 O 0.93048 0.09338 0.34253 0.0
O185 O 0.98026 0.08553 0.35475 0.0
H186 H 0.89676 0.20082 0.32063 0.0
H187 H 0.94539 0.00727 0.39947 0.0
O188 O 0.98061 0.04911 0.41802 0.0
H189 H 0.00693 0.97793 0.33132 0.0
H190 H 0.08679 0.01869 0.40206 0.0
H191 H 0.02933 0.11337 0.37061 0.0
H192 H 0.00964 0.03361 0.34713 0.0
H193 H 0.02842 0.01994 0.40202 0.0
O194 O 0.87351 0.07284 0.36352 0.0
H195 H 0.92592 0.15708 0.34047 0.0
H196 H 0.84049 0.1232 0.37029 0.0
H197 H 0.0877 0.113 0.37016 0.0
H198 H 0.94237 0.95113 0.38442 0.0
H199 H 0.11683 0.0654 0.38597 0.0
H200 H 0.97319 0.93619 0.35004 0.0
O201 O 0.98166 0.11311 0.39865 0.0
H202 H 0.85395 0.07298 0.44457 0.0
H203 H 0.89318 0.16416 0.39779 0.0
H204 H 0.86812 0.17582 0.43467 0.0
H205 H 0.84817 0.13001 0.45833 0.0
H206 H 0.87953 0.06246 0.40769 0.0
H207 H 0.81039 0.16637 0.35059 0.0
H208 H 0.83856 0.20566 0.32563 0.0
O209 O 0.94163 0.13626 0.37958 0.0
C210 C 0.9602 0.09073 0.33893 0.0
C211 C 0.88423 0.18389 0.3315 0.0
C212 C 0.83575 0.16452 0.34829 0.0
N213 N 0.88499 0.13766 0.35661 0.0
C214 C 0.90062 0.15909 0.34281 0.0
C215 C 0.85292 0.14005 0.35934 0.0
C216 C 0.85157 0.18657 0.33429 0.0
C217 C 0.95908 1.00088 0.38462 0.0
N218 N 0.97762 0.02371 0.3742 0.0
C219 C 0.95718 0.96908 0.37612 0.0
C220 C 0.97445 0.96073 0.35682 0.0
C221 C 0.99334 0.98415 0.34629 0.0
C222 C 0.99466 0.0157 0.35526 0.0
C223 C 0.07436 0.03954 0.39508 0.0
C224 C 0.04181 0.09248 0.3774 0.0
C225 C 0.0413 0.04042 0.39505 0.0
N226 N 0.02545 0.0666 0.38616 0.0
C227 C 0.07488 0.09245 0.37715 0.0
C228 C 0.09121 0.06575 0.38605 0.0
C229 C 0.96634 0.13816 0.3919 0.0
C230 C 0.86248 0.09316 0.4344 0.0
C231 C 0.8848 0.14411 0.40802 0.0
C232 C 0.87049 0.15086 0.42887 0.0
C233 C 0.85928 0.12515 0.44213 0.0
N234 N 0.88778 0.11267 0.4005 0.0
C235 C 0.8769 0.08736 0.41344 0.0
Co236 Co 0.97971 0.94018 0.88724 0.0
Co237 Co 0.90959 0.90203 0.87253 0.0
O238 O 0.93314 0.93756 0.88747 0.0
C239 C 0.97184 0.94403 0.93788 0.0
O240 O 0.95881 0.91492 0.93798 0.0
C241 C 0.87143 0.96282 0.86134 0.0
O242 O 0.89495 0.98237 0.86652 0.0
O243 O 0.93255 0.91007 0.84333 0.0
O244 O 0.98124 0.924 0.85523 0.0
H245 H 0.90001 0.8017 0.82384 0.0
H246 H 0.94308 0.99845 0.90147 0.0
O247 O 0.9799 0.95735 0.91921 0.0
H248 H 1.00449 0.03391 0.8347 0.0
H249 H 0.08506 0.99229 0.90459 0.0
H250 H 0.03122 0.8974 0.87035 0.0
H251 H 0.00913 0.9776 0.84912 0.0
H252 H 0.02678 0.98886 0.90428 0.0
O253 O 0.87472 0.93201 0.8626 0.0
H254 H 0.92826 0.84652 0.84315 0.0
H255 H 0.8415 0.88208 0.86995 0.0
H256 H 0.08955 0.89998 0.87014 0.0
H257 H 0.93813 0.0552 0.88785 0.0
H258 H 0.11685 0.94769 0.88736 0.0
H259 H 0.96887 0.07322 0.85416 0.0
O260 O 0.98365 0.89427 0.89853 0.0
H261 H 0.85209 0.93626 0.94336 0.0
H262 H 0.8928 0.84268 0.89962 0.0
H263 H 0.8662 0.83294 0.93621 0.0
H264 H 0.84549 0.87995 0.95834 0.0
H265 H 0.87921 0.94487 0.90684 0.0
H266 H 0.8123 0.83785 0.85074 0.0
H267 H 0.8416 0.79717 0.82756 0.0
O268 O 0.94221 0.86985 0.88191 0.0
C269 C 0.96188 0.91566 0.83963 0.0
C270 C 0.88698 0.81924 0.83393 0.0
C271 C 0.83776 0.83955 0.849 0.0
N272 N 0.8866 0.86684 0.85775 0.0
C273 C 0.90286 0.84463 0.84495 0.0
C274 C 0.85442 0.86462 0.85978 0.0
C275 C 0.85421 0.81673 0.83601 0.0
C276 C 0.95672 0.00618 0.88691 0.0
N277 N 0.97626 0.98466 0.87605 0.0
C278 C 0.95373 0.03831 0.87922 0.0
C279 C 0.97095 0.04839 0.8603 0.0
C280 C 0.9909 0.02634 0.84935 0.0
C281 C 0.99327 0.99439 0.85751 0.0
C282 C 0.07343 0.9714 0.89701 0.0
C283 C 0.04291 0.91833 0.87777 0.0
C284 C 0.04043 0.96928 0.89683 0.0
N285 N 0.02558 0.94303 0.88719 0.0
C286 C 0.07596 0.91961 0.87765 0.0
C287 C 0.09126 0.94637 0.88733 0.0
C288 C 0.96792 0.86881 0.89315 0.0
C289 C 0.86093 0.91556 0.93386 0.0
C290 C 0.8841 0.86326 0.90918 0.0
C291 C 0.86892 0.85759 0.92987 0.0
C292 C 0.85728 0.88397 0.94227 0.0
N293 N 0.88751 0.89429 0.90098 0.0
C294 C 0.87622 0.92027 0.91309 0.0
Co295 Co 0.53892 0.06264 0.88703 0.0
Co296 Co 0.60614 0.10183 0.86789 0.0
O297 O 0.58527 0.06757 0.88596 0.0
C298 C 0.52554 0.06175 0.9365 0.0
O299 O 0.50754 0.08742 0.93297 0.0
C300 C 0.64548 0.04167 0.85828 0.0
O301 O 0.62122 0.02217 0.86137 0.0
O302 O 0.58277 0.08757 0.84007 0.0
O303 O 0.53495 0.07477 0.85413 0.0
H304 H 0.60854 0.19351 0.81115 0.0
H305 H 0.57892 0.00819 0.9037 0.0
O306 O 0.54169 0.04973 0.92014 0.0
H307 H 0.51681 0.96187 0.84045 0.0
H308 H 0.43676 0.00668 0.90817 0.0
H309 H 0.4848 0.1017 0.86999 0.0
H310 H 0.50987 0.01938 0.85174 0.0
H311 H 0.49479 0.01284 0.90658 0.0
O312 O 0.64232 0.07242 0.8601 0.0
H313 H 0.58348 0.15069 0.83444 0.0
H314 H 0.67282 0.12531 0.86264 0.0
H315 H 0.42666 0.09644 0.87113 0.0
H316 H 0.58621 0.95036 0.89323 0.0
H317 H 0.40227 0.04866 0.89033 0.0
H318 H 0.55511 0.92687 0.86133 0.0
O319 O 0.534 0.10955 0.89569 0.0
H320 H 0.66917 0.08317 0.9392 0.0
H321 H 0.61963 0.1662 0.89002 0.0
H322 H 0.6472 0.18349 0.92491 0.0
H323 H 0.67237 0.14182 0.94975 0.0
H324 H 0.64094 0.06696 0.90428 0.0
H325 H 0.69886 0.16766 0.83949 0.0
H326 H 0.66664 0.20221 0.81358 0.0
O327 O 0.57199 0.13351 0.87513 0.0
C328 C 0.55339 0.08099 0.8375 0.0
C329 C 0.62282 0.17865 0.82241 0.0
C330 C 0.67352 0.16411 0.83829 0.0
N331 N 0.62661 0.13557 0.84996 0.0
C332 C 0.60876 0.1544 0.83567 0.0
C333 C 0.65864 0.14009 0.8513 0.0
C334 C 0.65543 0.1835 0.82376 0.0
C335 C 0.56505 0.99806 0.88996 0.0
N336 N 0.54396 0.01717 0.87839 0.0
C337 C 0.56939 0.96534 0.88404 0.0
C338 C 0.55198 0.95219 0.86611 0.0
C339 C 0.53053 0.97182 0.85437 0.0
C340 C 0.52682 0.00445 0.86076 0.0
C341 C 0.4471 0.02759 0.89973 0.0
C342 C 0.47437 0.0808 0.87834 0.0
C343 C 0.47994 0.03122 0.89878 0.0
N344 N 0.49319 0.05759 0.88816 0.0
C345 C 0.44143 0.07797 0.87895 0.0
C346 C 0.42777 0.05116 0.88973 0.0
C347 C 0.54754 0.13486 0.88766 0.0
C348 C 0.65832 0.10157 0.92851 0.0
C349 C 0.63019 0.14791 0.90083 0.0
C350 C 0.64594 0.15785 0.92052 0.0
C351 C 0.66008 0.13447 0.93444 0.0
N352 N 0.62861 0.1156 0.89508 0.0
C353 C 0.64236 0.09254 0.90868 0.0
Co354 Co 0.47128 0.06667 0.62988 0.0
Co355 Co 0.40392 0.10575 0.64893 0.0
O356 O 0.42497 0.07217 0.63034 0.0
C357 C 0.48785 0.06734 0.58114 0.0
O358 O 0.50717 0.09132 0.5864 0.0
C359 C 0.3645 0.04552 0.65772 0.0
O360 O 0.38915 0.02624 0.6556 0.0
O361 O 0.42645 0.09013 0.67679 0.0
O362 O 0.47437 0.07713 0.66306 0.0
H363 H 0.40065 0.19492 0.70753 0.0
H364 H 0.4312 0.01376 0.61119 0.0
O365 O 0.46951 0.05559 0.59638 0.0
H366 H 0.49002 0.96336 0.67459 0.0
H367 H 0.57355 0.00965 0.61012 0.0
H368 H 0.52524 0.10439 0.64849 0.0
H369 H 0.49835 0.02121 0.66473 0.0
H370 H 0.51557 0.01671 0.61052 0.0
O371 O 0.3674 0.07625 0.6556 0.0
H372 H 0.42604 0.15296 0.68366 0.0
H373 H 0.33726 0.1295 0.65381 0.0
H374 H 0.58333 0.09824 0.64851 0.0
H375 H 0.42254 0.95562 0.62023 0.0
H376 H 0.60785 0.0506 0.62921 0.0
H377 H 0.45198 0.93009 0.65219 0.0
O378 O 0.47696 0.11397 0.62236 0.0
H379 H 0.34218 0.09079 0.57665 0.0
H380 H 0.39174 0.17115 0.62787 0.0
H381 H 0.3651 0.19019 0.59304 0.0
H382 H 0.33993 0.14987 0.56717 0.0
H383 H 0.36947 0.07281 0.61155 0.0
H384 H 0.3109 0.171 0.67751 0.0
H385 H 0.34266 0.20415 0.70455 0.0
O386 O 0.43847 0.1374 0.64278 0.0
C387 C 0.45567 0.08301 0.67958 0.0
C388 C 0.38656 0.18067 0.69578 0.0
C389 C 0.33618 0.16722 0.67896 0.0
N390 N 0.3832 0.13884 0.66729 0.0
C391 C 0.40081 0.15691 0.68219 0.0
C392 C 0.35124 0.14366 0.66563 0.0
C393 C 0.35402 0.18582 0.69411 0.0
C394 C 0.44436 0.00273 0.62496 0.0
N395 N 0.46532 0.02088 0.63736 0.0
C396 C 0.43924 0.96984 0.63007 0.0
C397 C 0.45572 0.95554 0.64803 0.0
C398 C 0.47703 0.97421 0.66063 0.0
C399 C 0.48153 0.00703 0.65504 0.0
C400 C 0.56315 0.0305 0.6186 0.0
C401 C 0.53572 0.08357 0.64007 0.0
C402 C 0.53033 0.03462 0.6189 0.0
N403 N 0.517 0.06094 0.62955 0.0
C404 C 0.56863 0.08023 0.64013 0.0
C405 C 0.58238 0.05349 0.62931 0.0
C406 C 0.46326 0.13907 0.6306 0.0
C407 C 0.35303 0.1086 0.58779 0.0
C408 C 0.38116 0.15344 0.61663 0.0
C409 C 0.36595 0.16437 0.59696 0.0
C410 C 0.35181 0.14175 0.58247 0.0
N411 N 0.38222 0.1209 0.62177 0.0
C412 C 0.36846 0.09857 0.60761 0.0
Co413 Co 0.02973 0.93896 0.63221 0.0
Co414 Co 0.10108 0.90284 0.64574 0.0
O415 O 0.07639 0.93807 0.63127 0.0
C416 C 0.04052 0.94862 0.5823 0.0
O417 O 0.06058 0.92409 0.58221 0.0
C418 C 0.13914 0.96422 0.65556 0.0
O419 O 0.11551 0.98349 0.65008 0.0
O420 O 0.07922 0.91075 0.67538 0.0
O421 O 0.02961 0.92098 0.66378 0.0
H422 H 0.11409 0.80279 0.69434 0.0
H423 H 0.06375 0.99929 0.61911 0.0
O424 O 0.02757 0.95765 0.60077 0.0
H425 H 1.00327 0.02861 0.68773 0.0
H426 H 0.92188 0.98793 0.61857 0.0
H427 H 0.98051 0.89275 0.64814 0.0
H428 H 1.00005 0.97307 0.67177 0.0
H429 H 0.98025 0.987 0.61795 0.0
O430 O 0.13592 0.93335 0.65494 0.0
H431 H 0.08443 0.84717 0.6756 0.0
H432 H 0.16953 0.88387 0.64691 0.0
H433 H 0.92215 0.89279 0.64926 0.0
H434 H 0.06727 0.05533 0.63428 0.0
H435 H 0.89243 0.94063 0.6344 0.0
H436 H 0.03699 0.07025 0.66891 0.0
O437 O 0.02747 0.89378 0.61953 0.0
H438 H 0.15541 0.93745 0.57368 0.0
H439 H 0.11739 0.84361 0.61838 0.0
H440 H 0.14267 0.83402 0.5813 0.0
H441 H 0.16202 0.88116 0.55868 0.0
H442 H 0.1296 0.94591 0.6107 0.0
H443 H 0.20012 0.84008 0.66553 0.0
H444 H 0.17237 0.79905 0.68936 0.0
O445 O 0.06851 0.87002 0.63709 0.0
C446 C 0.04967 0.91432 0.67932 0.0
C447 C 0.12644 0.82048 0.68395 0.0
C448 C 0.17473 0.84144 0.66781 0.0
N449 N 0.12516 0.86803 0.66008 0.0
C450 C 0.10976 0.84564 0.67326 0.0
C451 C 0.15727 0.86625 0.65737 0.0
C452 C 0.15914 0.81841 0.68117 0.0
C453 C 0.05032 0.00567 0.63408 0.0
N454 N 0.03184 0.98286 0.64459 0.0
C455 C 0.05249 0.03741 0.64264 0.0
C456 C 0.03554 0.04575 0.66208 0.0
C457 C 0.01665 0.02238 0.67268 0.0
C458 C 0.01508 0.99089 0.66364 0.0
C459 C 0.93456 0.96695 0.62511 0.0
C460 C 0.96776 0.91371 0.6417 0.0
C461 C 0.96762 0.96623 0.62473 0.0
N462 N 0.9838 0.93987 0.63304 0.0
C463 C 0.93471 0.91357 0.64236 0.0
C464 C 0.91805 0.94041 0.634 0.0
C465 C 0.04331 0.86856 0.62526 0.0
C466 C 0.14718 0.91669 0.58341 0.0
C467 C 0.12553 0.86425 0.60863 0.0
C468 C 0.13996 0.85867 0.58765 0.0
C469 C 0.15083 0.88512 0.57498 0.0
N470 N 0.12212 0.89528 0.61685 0.0
C471 C 0.13266 0.92132 0.60447 0.0
Co472 Co 0.53467 0.56435 0.13279 0.0
Co473 Co 0.60446 0.60215 0.1482 0.0
O474 O 0.58123 0.5668 0.13281 0.0
C475 C 0.54184 0.55966 0.08191 0.0
O476 O 0.55337 0.58942 0.08108 0.0
C477 C 0.6427 0.54141 0.15909 0.0
O478 O 0.61884 0.52196 0.15459 0.0
O479 O 0.58158 0.59293 0.17725 0.0
O480 O 0.53273 0.58091 0.16474 0.0
H481 H 0.61323 0.70107 0.19833 0.0
H482 H 0.57127 0.50572 0.11923 0.0
O483 O 0.53489 0.54666 0.10093 0.0
H484 H 0.5087 0.47144 0.18574 0.0
H485 H 0.42933 0.51252 0.11503 0.0
H486 H 0.48312 0.60761 0.14903 0.0
H487 H 0.50452 0.52758 0.17092 0.0
H488 H 0.48761 0.51565 0.11575 0.0
O489 O 0.63959 0.57221 0.15759 0.0
H490 H 0.58535 0.65654 0.17843 0.0
H491 H 0.67237 0.6227 0.15098 0.0
H492 H 0.42478 0.60533 0.14881 0.0
H493 H 0.57577 0.44913 0.13325 0.0
H494 H 0.3975 0.55752 0.13172 0.0
H495 H 0.54444 0.43171 0.16681 0.0
O496 O 0.53119 0.61013 0.12126 0.0
H497 H 0.66223 0.57045 0.07694 0.0
H498 H 0.62073 0.66244 0.12191 0.0
H499 H 0.64718 0.67342 0.08543 0.0
H500 H 0.66828 0.62721 0.06269 0.0
H501 H 0.63524 0.5606 0.11337 0.0
H502 H 0.70119 0.66666 0.17078 0.0
H503 H 0.67158 0.70633 0.19458 0.0
O504 O 0.57153 0.63435 0.13934 0.0
C505 C 0.55206 0.58808 0.18065 0.0
C506 C 0.62639 0.68397 0.18797 0.0
C507 C 0.67576 0.66464 0.17253 0.0
N508 N 0.62716 0.6371 0.16347 0.0
C509 C 0.61073 0.65874 0.17662 0.0
C510 C 0.65931 0.63972 0.16143 0.0
C511 C 0.65913 0.6869 0.18588 0.0
C512 C 0.55736 0.49825 0.13372 0.0
N513 N 0.53775 0.52 0.14428 0.0
C514 C 0.5601 0.46621 0.14164 0.0
C515 C 0.54255 0.45647 0.16049 0.0
C516 C 0.52254 0.47876 0.17114 0.0
C517 C 0.52042 0.5106 0.16275 0.0
C518 C 0.44094 0.53346 0.12255 0.0
C519 C 0.47144 0.58665 0.14165 0.0
C520 C 0.47395 0.53542 0.12296 0.0
N521 N 0.48879 0.56172 0.13253 0.0
C522 C 0.43839 0.58553 0.14154 0.0
C523 C 0.4231 0.55871 0.13192 0.0
C524 C 0.54639 0.63554 0.12745 0.0
C525 C 0.65319 0.59081 0.08671 0.0
C526 C 0.62957 0.64221 0.11206 0.0
C527 C 0.64468 0.64857 0.09145 0.0
C528 C 0.65654 0.62265 0.07871 0.0
N529 N 0.62643 0.61092 0.11985 0.0
C530 C 0.63796 0.58539 0.10741 0.0
Co531 Co 0.9747 0.43932 0.13104 0.0
Co532 Co 0.90684 0.40075 0.14975 0.0
O533 O 0.92828 0.43479 0.13179 0.0
C534 C 0.98928 0.43943 0.08187 0.0
O535 O 0.0072 0.41391 0.08609 0.0
C536 C 0.86819 0.46132 0.15952 0.0
O537 O 0.89266 0.48059 0.15659 0.0
O538 O 0.93004 0.41466 0.17772 0.0
O539 O 0.97805 0.42749 0.16403 0.0
H540 H 0.90275 0.309 0.2064 0.0
H541 H 0.93538 0.49389 0.11377 0.0
O542 O 0.97263 0.45189 0.09781 0.0
H543 H 0.99673 0.54039 0.17735 0.0
H544 H 0.07768 0.49434 0.11072 0.0
H545 H 0.02819 0.39992 0.14867 0.0
H546 H 1.00348 0.48272 0.16637 0.0
H547 H 0.01957 0.48864 0.11175 0.0
O548 O 0.87098 0.43058 0.15744 0.0
H549 H 0.92856 0.35156 0.1833 0.0
H550 H 0.83984 0.37809 0.1546 0.0
H551 H 0.0864 0.4047 0.14809 0.0
H552 H 0.92829 0.55187 0.12393 0.0
H553 H 0.11151 0.45218 0.129 0.0
H554 H 0.959 0.57545 0.15599 0.0
O555 O 0.97935 0.39226 0.12261 0.0
H556 H 0.84441 0.42028 0.0783 0.0
H557 H 0.89319 0.33661 0.12736 0.0
H558 H 0.86569 0.31973 0.09233 0.0
H559 H 0.84092 0.36173 0.06755 0.0
H560 H 0.87253 0.43609 0.11336 0.0
H561 H 0.81306 0.33602 0.17754 0.0
H562 H 0.84457 0.30102 0.20361 0.0
O563 O 0.94065 0.36868 0.14267 0.0
C564 C 0.95937 0.42126 0.18051 0.0
C565 C 0.88876 0.32406 0.19507 0.0
C566 C 0.83842 0.33924 0.1789 0.0
N567 N 0.88578 0.36724 0.16753 0.0
C568 C 0.90326 0.34817 0.18191 0.0
C569 C 0.85372 0.36311 0.166 0.0
C570 C 0.85612 0.31961 0.19351 0.0
C571 C 0.94908 0.50405 0.12759 0.0
N572 N 0.96986 0.48491 0.13943 0.0
C573 C 0.94485 0.53686 0.13333 0.0
C574 C 0.96205 0.55006 0.15135 0.0
C575 C 0.98318 0.53039 0.16336 0.0
C576 C 0.98678 0.49768 0.15714 0.0
C577 C 0.06702 0.47355 0.11911 0.0
C578 C 0.03894 0.42068 0.14037 0.0
C579 C 0.03413 0.47019 0.11975 0.0
N580 N 0.02049 0.44399 0.13031 0.0
C581 C 0.07191 0.42324 0.14008 0.0
C582 C 0.08598 0.44989 0.12936 0.0
C583 C 0.96529 0.36707 0.13035 0.0
C584 C 0.85507 0.40175 0.08896 0.0
C585 C 0.88276 0.35505 0.11659 0.0
C586 C 0.86707 0.34533 0.09682 0.0
C587 C 0.85315 0.3689 0.08293 0.0
N588 N 0.88449 0.38731 0.12244 0.0
C589 C 0.87096 0.41055 0.10888 0.0
Co590 Co 0.03925 0.43853 0.38856 0.0
Co591 Co 0.10745 0.40044 0.36995 0.0
O592 O 0.08571 0.43423 0.38797 0.0
C593 C 0.02408 0.43842 0.43763 0.0
O594 O 0.00636 0.41283 0.43324 0.0
C595 C 0.14592 0.46129 0.36072 0.0
O596 O 0.12138 0.48042 0.36387 0.0
O597 O 0.08436 0.41447 0.34194 0.0
O598 O 0.03621 0.42687 0.35555 0.0
H599 H 0.11236 0.30915 0.313 0.0
H600 H 0.07807 0.49323 0.40614 0.0
O601 O 0.04095 0.45094 0.42184 0.0
H602 H 0.01699 0.53974 0.34241 0.0
H603 H 0.93576 0.49292 0.40849 0.0
H604 H 0.98614 0.39888 0.37067 0.0
H605 H 0.01051 0.48197 0.3532 0.0
H606 H 0.9939 0.48756 0.40771 0.0
O607 O 0.14323 0.43049 0.36249 0.0
H608 H 0.08619 0.35141 0.33617 0.0
H609 H 0.17461 0.37815 0.36521 0.0
H610 H 0.9279 0.40333 0.37102 0.0
H611 H 0.08486 0.55131 0.39618 0.0
H612 H 0.90234 0.45061 0.39004 0.0
H613 H 0.05428 0.5749 0.36404 0.0
O614 O 0.03484 0.3914 0.39686 0.0
H615 H 0.16929 0.41962 0.44171 0.0
H616 H 0.12129 0.33617 0.39213 0.0
H617 H 0.14864 0.3191 0.42718 0.0
H618 H 0.17302 0.36098 0.45222 0.0
H619 H 0.14132 0.43561 0.40661 0.0
H620 H 0.20175 0.33638 0.3422 0.0
H621 H 0.17056 0.30143 0.31593 0.0
O622 O 0.07375 0.36815 0.37681 0.0
C623 C 0.05501 0.4209 0.33909 0.0
C624 C 0.1262 0.32419 0.32442 0.0
C625 C 0.17637 0.3395 0.34079 0.0
N626 N 0.12879 0.36716 0.35211 0.0
C627 C 0.11151 0.34812 0.33762 0.0
C628 C 0.16087 0.36319 0.35372 0.0
C629 C 0.15886 0.31988 0.32606 0.0
C630 C 0.06442 0.50339 0.39229 0.0
N631 N 0.04388 0.4842 0.3803 0.0
C632 C 0.06848 0.53626 0.38666 0.0
C633 C 0.05136 0.54947 0.3686 0.0
C634 C 0.03047 0.52974 0.35643 0.0
C635 C 0.02703 0.49697 0.36254 0.0
C636 C 0.94661 0.47222 0.40013 0.0
C637 C 0.97519 0.41956 0.37895 0.0
C638 C 0.97953 0.46905 0.39963 0.0
N639 N 0.99342 0.44295 0.38911 0.0
C640 C 0.94221 0.42193 0.3791 0.0
C641 C 0.92788 0.44847 0.38978 0.0
C642 C 0.04907 0.36633 0.38906 0.0
C643 C 0.15879 0.40113 0.43092 0.0
C644 C 0.13155 0.35456 0.403 0.0
C645 C 0.14716 0.34473 0.4228 0.0
C646 C 0.16085 0.36824 0.43683 0.0
N647 N 0.1297 0.38686 0.39728 0.0
C648 C 0.143 0.41004 0.41099 0.0
Co649 Co 0.47873 0.56408 0.38814 0.0
Co650 Co 0.40925 0.60306 0.37296 0.0
O651 O 0.43222 0.56758 0.38844 0.0
C652 C 0.47204 0.56178 0.43901 0.0
O653 O 0.46052 0.59157 0.43903 0.0
C654 C 0.37101 0.5427 0.36146 0.0
O655 O 0.39531 0.52329 0.36476 0.0
O656 O 0.43185 0.59354 0.34382 0.0
O657 O 0.48039 0.57939 0.35593 0.0
H658 H 0.40103 0.70184 0.32262 0.0
H659 H 0.44105 0.50695 0.40313 0.0
O660 O 0.47878 0.54766 0.42035 0.0
H661 H 0.50158 0.46858 0.33672 0.0
H662 H 0.58325 0.51042 0.40592 0.0
H663 H 0.53088 0.60543 0.37059 0.0
H664 H 0.50733 0.52513 0.35045 0.0
H665 H 0.52504 0.51495 0.40569 0.0
O666 O 0.37383 0.5734 0.36381 0.0
H667 H 0.42865 0.65715 0.34257 0.0
H668 H 0.34149 0.62424 0.3703 0.0
H669 H 0.58915 0.60173 0.37029 0.0
H670 H 0.43499 0.44999 0.39021 0.0
H671 H 0.61572 0.55396 0.38805 0.0
H672 H 0.46528 0.43051 0.3567 0.0
O673 O 0.48348 0.61025 0.39876 0.0
H674 H 0.35131 0.57216 0.44429 0.0
H675 H 0.39369 0.66359 0.39922 0.0
H676 H 0.36747 0.67493 0.43573 0.0
H677 H 0.34593 0.629 0.45853 0.0
H678 H 0.37809 0.56196 0.40781 0.0
H679 H 0.31293 0.66838 0.35046 0.0
H680 H 0.34274 0.70766 0.32649 0.0
O681 O 0.44251 0.63491 0.38165 0.0
C682 C 0.46111 0.58745 0.34019 0.0
C683 C 0.38778 0.68492 0.33305 0.0
C684 C 0.33833 0.66611 0.34865 0.0
N685 N 0.38676 0.63816 0.35767 0.0
C686 C 0.4033 0.6596 0.34443 0.0
C687 C 0.35464 0.64109 0.35978 0.0
C688 C 0.35508 0.68815 0.33521 0.0
C689 C 0.45453 0.49858 0.38866 0.0
N690 N 0.47446 0.5194 0.37753 0.0
C691 C 0.4509 0.46633 0.38137 0.0
C692 C 0.46787 0.45543 0.36255 0.0
C693 C 0.4882 0.47679 0.35131 0.0
C694 C 0.49122 0.50887 0.35908 0.0
C695 C 0.57195 0.53134 0.3981 0.0
C696 C 0.54225 0.58448 0.37826 0.0
C697 C 0.53899 0.53409 0.39797 0.0
N698 N 0.52454 0.56036 0.38803 0.0
C699 C 0.57526 0.58256 0.37808 0.0
C700 C 0.59015 0.55577 0.38806 0.0
C701 C 0.46824 0.63582 0.39288 0.0
C702 C 0.36057 0.5924 0.43451 0.0
C703 C 0.3847 0.64348 0.4091 0.0
C704 C 0.3697 0.65005 0.42973 0.0
C705 C 0.35759 0.62428 0.4425 0.0
N706 N 0.3875 0.61216 0.40134 0.0
C707 C 0.37569 0.58678 0.41379 0.0
Co708 Co 0.4733 0.43342 0.88925 0.0
Co709 Co 0.40398 0.39778 0.87086 0.0
O710 O 0.42672 0.43106 0.88871 0.0
C711 C 0.48846 0.4348 0.93827 0.0
O712 O 0.50539 0.40848 0.93436 0.0
C713 C 0.36599 0.4595 0.86269 0.0
O714 O 0.39042 0.4784 0.86676 0.0
O715 O 0.427 0.4115 0.84281 0.0
O716 O 0.47593 0.41994 0.85656 0.0
H717 H 0.39641 0.30677 0.81384 0.0
H718 H 0.43712 0.4908 0.90559 0.0
O719 O 0.47206 0.44739 0.92221 0.0
H720 H 0.49938 0.53102 0.84055 0.0
H721 H 0.57883 0.48438 0.90817 0.0
H722 H 0.52486 0.39055 0.87264 0.0
H723 H 0.50338 0.47356 0.85271 0.0
H724 H 0.52052 0.48144 0.9073 0.0
O725 O 0.36867 0.42861 0.86357 0.0
H726 H 0.42376 0.34838 0.83692 0.0
H727 H 0.33631 0.37697 0.86646 0.0
H728 H 0.58321 0.39253 0.87311 0.0
H729 H 0.43284 0.54863 0.89424 0.0
H730 H 0.61058 0.43971 0.89098 0.0
H731 H 0.46402 0.56904 0.86143 0.0
O732 O 0.47577 0.38663 0.89854 0.0
H733 H 0.34399 0.4183 0.94311 0.0
H734 H 0.38868 0.33379 0.89291 0.0
H735 H 0.36149 0.3173 0.92809 0.0
H736 H 0.33876 0.35973 0.95344 0.0
H737 H 0.37177 0.43368 0.9079 0.0
H738 H 0.30801 0.3359 0.84352 0.0
H739 H 0.33811 0.30033 0.81705 0.0
O740 O 0.43714 0.36456 0.87753 0.0
C741 C 0.45675 0.41552 0.84006 0.0
C742 C 0.38304 0.32208 0.82534 0.0
C743 C 0.33343 0.33845 0.84198 0.0
N744 N 0.38171 0.36504 0.8531 0.0
C745 C 0.3984 0.34565 0.83849 0.0
C746 C 0.34958 0.36176 0.85487 0.0
C747 C 0.35033 0.3185 0.82714 0.0
C748 C 0.45104 0.49958 0.89146 0.0
N749 N 0.47053 0.47882 0.87989 0.0
C750 C 0.44839 0.53232 0.88504 0.0
C751 C 0.46585 0.54374 0.86661 0.0
C752 C 0.48565 0.52241 0.85486 0.0
C753 C 0.4877 0.48984 0.86176 0.0
C754 C 0.56718 0.46372 0.9003 0.0
C755 C 0.53658 0.4112 0.8804 0.0
C756 C 0.53417 0.46193 0.89974 0.0
N757 N 0.51927 0.4359 0.88984 0.0
C758 C 0.56963 0.41217 0.88063 0.0
C759 C 0.58498 0.43864 0.89066 0.0
C760 C 0.46132 0.362 0.89032 0.0
C761 C 0.35375 0.39958 0.9322 0.0
C762 C 0.37916 0.3524 0.90393 0.0
C763 C 0.36363 0.34291 0.92379 0.0
C764 C 0.35086 0.36672 0.93799 0.0
N765 N 0.38184 0.38467 0.8983 0.0
C766 C 0.36945 0.40814 0.91219 0.0
Co767 Co 0.03241 0.56989 0.88686 0.0
Co768 Co 0.10269 0.60409 0.87068 0.0
O769 O 0.079 0.57 0.88692 0.0
C770 C 0.04101 0.56277 0.93742 0.0
O771 O 0.05509 0.59134 0.93829 0.0
C772 C 0.14116 0.54254 0.86271 0.0
O773 O 0.11708 0.52341 0.86728 0.0
O774 O 0.08053 0.59201 0.84189 0.0
O775 O 0.0309 0.58782 0.85506 0.0
H776 H 0.11309 0.69824 0.81641 0.0
H777 H 0.06606 0.50881 0.89908 0.0
O778 O 0.03205 0.55102 0.91842 0.0
H779 H 1.00116 0.48088 0.83213 0.0
H780 H 0.92471 0.52324 0.90399 0.0
H781 H 0.98304 0.61668 0.8718 0.0
H782 H 1.0 0.53652 0.84811 0.0
H783 H 0.98307 0.52318 0.9031 0.0
O784 O 0.13808 0.57341 0.86321 0.0
H785 H 0.08458 0.65554 0.83768 0.0
H786 H 0.17063 0.62457 0.86836 0.0
H787 H 0.92467 0.61763 0.87219 0.0
H788 H 0.06758 0.45271 0.88385 0.0
H789 H 0.8951 0.57065 0.88837 0.0
H790 H 0.03505 0.43848 0.85008 0.0
O791 O 0.03179 0.61521 0.89926 0.0
H792 H 0.15846 0.57891 0.9441 0.0
H793 H 0.11781 0.66667 0.89469 0.0
H794 H 0.14314 0.68088 0.9311 0.0
H795 H 0.1638 0.63682 0.95608 0.0
H796 H 0.13262 0.56581 0.90766 0.0
H797 H 0.20008 0.66672 0.84725 0.0
H798 H 0.17127 0.70403 0.82112 0.0
O799 O 0.06951 0.63729 0.87755 0.0
C800 C 0.05063 0.59053 0.83874 0.0
C801 C 0.12591 0.68216 0.82777 0.0
C802 C 0.17473 0.66445 0.84506 0.0
N803 N 0.12586 0.63763 0.85432 0.0
C804 C 0.10988 0.65796 0.83989 0.0
C805 C 0.15792 0.64054 0.85691 0.0
C806 C 0.15855 0.68539 0.83041 0.0
C807 C 0.05166 0.50274 0.88449 0.0
N808 N 0.03303 0.52594 0.87449 0.0
C809 C 0.0527 0.47096 0.87589 0.0
C810 C 0.03447 0.463 0.85692 0.0
C811 C 0.01548 0.48679 0.84683 0.0
C812 C 0.01505 0.51831 0.8559 0.0
C813 C 0.93732 0.54383 0.89685 0.0
C814 C 0.97035 0.59607 0.87876 0.0
C815 C 0.97038 0.54397 0.89635 0.0
N816 N 0.98647 0.56982 0.88726 0.0
C817 C 0.93729 0.59678 0.87898 0.0
C818 C 0.92072 0.57043 0.88808 0.0
C819 C 0.04649 0.63991 0.89136 0.0
C820 C 0.14964 0.59834 0.93334 0.0
C821 C 0.12655 0.64735 0.90548 0.0
C822 C 0.14099 0.65556 0.92607 0.0
C823 C 0.15259 0.63083 0.94006 0.0
N824 N 0.12382 0.61543 0.89895 0.0
C825 C 0.13507 0.59107 0.91263 0.0
Co826 Co 0.97552 0.56969 0.63164 0.0
Co827 Co 0.90581 0.60561 0.64741 0.0
O828 O 0.92894 0.57097 0.6313 0.0
C829 C 0.96858 0.56314 0.58085 0.0
O830 O 0.9562 0.59251 0.57963 0.0
C831 C 0.86625 0.54503 0.65609 0.0
O832 O 0.89033 0.52533 0.65283 0.0
O833 O 0.9274 0.59305 0.67635 0.0
O834 O 0.97704 0.58751 0.66345 0.0
H835 H 0.89679 0.69996 0.70162 0.0
H836 H 0.94047 0.50959 0.61918 0.0
O837 O 0.97587 0.55084 0.60005 0.0
H838 H 1.00399 0.47974 0.68644 0.0
H839 H 0.08231 0.52032 0.61514 0.0
H840 H 0.02579 0.61518 0.64705 0.0
H841 H 0.00669 0.53537 0.67053 0.0
H842 H 0.02396 0.52175 0.61568 0.0
O843 O 0.8697 0.57579 0.65463 0.0
H844 H 0.92463 0.6566 0.68053 0.0
H845 H 0.83833 0.62778 0.64925 0.0
H846 H 0.08416 0.61463 0.647 0.0
H847 H 0.93741 0.45351 0.63435 0.0
H848 H 0.11282 0.56694 0.63096 0.0
H849 H 0.96924 0.43832 0.66827 0.0
O850 O 0.97738 0.61507 0.61934 0.0
H851 H 0.85005 0.58155 0.57385 0.0
H852 H 0.89236 0.66848 0.62318 0.0
H853 H 0.86766 0.68316 0.58663 0.0
H854 H 0.84617 0.63951 0.56169 0.0
H855 H 0.87529 0.56797 0.61044 0.0
H856 H 0.80954 0.67062 0.67017 0.0
H857 H 0.83882 0.70718 0.69651 0.0
O858 O 0.93978 0.638 0.64073 0.0
C859 C 0.95723 0.59085 0.67965 0.0
C860 C 0.88377 0.68422 0.69017 0.0
C861 C 0.8348 0.66772 0.67254 0.0
N862 N 0.88318 0.63971 0.66361 0.0
C863 C 0.89942 0.65964 0.67815 0.0
C864 C 0.85123 0.64342 0.6608 0.0
C865 C 0.85124 0.68824 0.68731 0.0
C866 C 0.95458 0.50309 0.63384 0.0
N867 N 0.9737 0.52575 0.64395 0.0
C868 C 0.95267 0.47133 0.6424 0.0
C869 C 0.9705 0.46284 0.66145 0.0
C870 C 0.98997 0.48607 0.67167 0.0
C871 C 0.99129 0.51759 0.66263 0.0
C872 C 0.0701 0.54121 0.62221 0.0
C873 C 0.03807 0.59425 0.64015 0.0
C874 C 0.03704 0.5422 0.62252 0.0
N875 N 0.02145 0.56843 0.63153 0.0
C876 C 0.07114 0.59412 0.64012 0.0
C877 C 0.0872 0.56738 0.6311 0.0
C878 C 0.96313 0.6401 0.62717 0.0
C879 C 0.85926 0.6008 0.58458 0.0
C880 C 0.8833 0.64934 0.61239 0.0
C881 C 0.86921 0.65781 0.59173 0.0
C882 C 0.85713 0.63332 0.57776 0.0
N883 N 0.88525 0.6174 0.61901 0.0
C884 C 0.87351 0.59326 0.60537 0.0
Co885 Co 0.52962 0.43723 0.63432 0.0
Co886 Co 0.60165 0.40422 0.64823 0.0
O887 O 0.57624 0.43835 0.63327 0.0
C888 C 0.54005 0.44861 0.58461 0.0
O889 O 0.56019 0.42417 0.58426 0.0
C890 C 0.63998 0.46638 0.65521 0.0
O891 O 0.6168 0.48531 0.64833 0.0
O892 O 0.58025 0.41398 0.67772 0.0
O893 O 0.53005 0.41799 0.66565 0.0
H894 H 0.61667 0.30726 0.69949 0.0
H895 H 0.5611 0.49956 0.62248 0.0
O896 O 0.52694 0.45701 0.60317 0.0
H897 H 0.49939 0.52316 0.69161 0.0
H898 H 0.41997 0.48188 0.621 0.0
H899 H 0.4822 0.38841 0.64937 0.0
H900 H 0.4985 0.46822 0.67451 0.0
H901 H 0.47832 0.48347 0.62057 0.0
O902 O 0.63634 0.43558 0.65623 0.0
H903 H 0.58618 0.35021 0.67984 0.0
H904 H 0.67031 0.38602 0.6492 0.0
H905 H 0.42389 0.38591 0.65028 0.0
H906 H 0.56235 0.555 0.63888 0.0
H907 H 0.39236 0.43288 0.63601 0.0
H908 H 0.53141 0.56705 0.67374 0.0
O909 O 0.52944 0.39248 0.62098 0.0
H910 H 0.65364 0.43492 0.57442 0.0
H911 H 0.61837 0.34352 0.62259 0.0
H912 H 0.64297 0.33191 0.58556 0.0
H913 H 0.66095 0.37782 0.5612 0.0
H914 H 0.62851 0.4454 0.61142 0.0
H915 H 0.70171 0.34367 0.66871 0.0
H916 H 0.67487 0.3038 0.69399 0.0
O917 O 0.56923 0.37036 0.64086 0.0
C918 C 0.55049 0.41481 0.68147 0.0
C919 C 0.62863 0.32445 0.68849 0.0
C920 C 0.67636 0.34491 0.67124 0.0
N921 N 0.62638 0.37055 0.66331 0.0
C922 C 0.61148 0.3488 0.67728 0.0
C923 C 0.65845 0.36892 0.6603 0.0
C924 C 0.66128 0.32254 0.68541 0.0
C925 C 0.54742 0.50468 0.63757 0.0
N926 N 0.52983 0.48066 0.64753 0.0
C927 C 0.54829 0.53609 0.64682 0.0
C928 C 0.53095 0.54282 0.66639 0.0
C929 C 0.51301 0.5182 0.67644 0.0
C930 C 0.51273 0.48708 0.66673 0.0
C931 C 0.43344 0.46127 0.62728 0.0
C932 C 0.46866 0.40902 0.64323 0.0
C933 C 0.4665 0.46199 0.62702 0.0
N934 N 0.48368 0.43611 0.63502 0.0
C935 C 0.43564 0.40742 0.64374 0.0
C936 C 0.41797 0.43377 0.63571 0.0
C937 C 0.54512 0.36781 0.62796 0.0
C938 C 0.64604 0.41469 0.58493 0.0
C939 C 0.62593 0.36363 0.61209 0.0
C940 C 0.63997 0.3569 0.59114 0.0
C941 C 0.65008 0.38266 0.5775 0.0
N942 N 0.62217 0.39512 0.61935 0.0
C943 C 0.63193 0.42048 0.60599 0.0
H944 H 0.34318 0.0194 0.15171 0.0
H945 H 0.31147 0.92356 0.17226 0.0
H946 H 0.2884 0.03885 0.1527 0.0
H947 H 0.25722 0.94298 0.17366 0.0
H948 H 0.18984 0.07035 0.17396 0.0
H949 H 0.24405 0.05094 0.17715 0.0
H950 H 0.21624 0.95876 0.14747 0.0
H951 H 0.16165 0.97807 0.14464 0.0
C952 C 0.32464 0.00266 0.15679 0.0
C953 C 0.33169 0.9699 0.16168 0.0
C954 C 0.29323 0.01376 0.15739 0.0
C955 C 0.26829 0.99235 0.16303 0.0
C956 C 0.27565 0.95994 0.16874 0.0
C957 C 0.30687 0.94887 0.16806 0.0
C958 C 0.19517 0.04581 0.16826 0.0
C959 C 0.17137 0.02579 0.15892 0.0
C960 C 0.22638 0.03478 0.16996 0.0
C961 C 0.23467 0.00343 0.16237 0.0
C962 C 0.21067 0.98298 0.15369 0.0
C963 C 0.17934 0.99401 0.15204 0.0
H964 H 0.66712 0.02161 0.36781 0.0
H965 H 0.69781 0.92765 0.34271 0.0
H966 H 0.72185 0.04097 0.36669 0.0
H967 H 0.7521 0.94705 0.34118 0.0
H968 H 0.84885 0.97973 0.36987 0.0
H969 H 0.79418 0.96053 0.36711 0.0
H970 H 0.76521 0.05522 0.34216 0.0
H971 H 0.81943 0.07447 0.34532 0.0
C972 C 0.68542 0.00529 0.36169 0.0
C973 C 0.6781 0.97304 0.35554 0.0
C974 C 0.71682 0.01635 0.36102 0.0
C975 C 0.74151 0.99543 0.35406 0.0
C976 C 0.73388 0.9636 0.34711 0.0
C977 C 0.70263 0.95255 0.34786 0.0
C978 C 0.83086 0.99627 0.36354 0.0
C979 C 0.8385 0.02867 0.358 0.0
C980 C 0.79949 0.9853 0.36191 0.0
C981 C 0.77516 0.00645 0.3546 0.0
C982 C 0.78313 0.03848 0.34831 0.0
C983 C 0.81434 0.04944 0.35001 0.0
H984 H 0.82114 0.92997 0.84344 0.0
H985 H 0.84847 0.02452 0.86947 0.0
H986 H 0.76659 0.94834 0.84015 0.0
H987 H 0.79355 0.0428 0.86658 0.0
H988 H 0.6677 0.97952 0.86622 0.0
H989 H 0.72273 0.96106 0.86472 0.0
H990 H 0.75144 0.05631 0.84077 0.0
H991 H 0.69687 0.0748 0.84269 0.0
C992 C 0.81554 0.95479 0.84838 0.0
C993 C 0.8392 0.97575 0.85685 0.0
C994 C 0.78414 0.96523 0.84662 0.0
C995 C 0.7755 0.99692 0.85332 0.0
C996 C 0.79937 0.0183 0.86106 0.0
C997 C 0.83089 0.00785 0.86275 0.0
C998 C 0.68573 0.99633 0.86036 0.0
C999 C 0.6779 0.02868 0.85479 0.0
C1000 C 0.7173 0.98578 0.85946 0.0
C1001 C 0.74165 0.00733 0.85285 0.0
C1002 C 0.7335 0.03927 0.84643 0.0
C1003 C 0.70209 0.0498 0.84741 0.0
H1004 H 0.19002 0.93211 0.67337 0.0
H1005 H 0.16152 0.02583 0.64647 0.0
H1006 H 0.24443 0.95107 0.67618 0.0
H1007 H 0.21626 0.04465 0.64883 0.0
H1008 H 0.31245 0.07844 0.67234 0.0
H1009 H 0.25814 0.05931 0.67428 0.0
H1010 H 0.28826 0.96381 0.65171 0.0
H1011 H 0.3431 0.98294 0.65025 0.0
C1012 C 0.19533 0.95687 0.66812 0.0
C1013 C 0.17137 0.97743 0.65959 0.0
C1014 C 0.22665 0.96764 0.66959 0.0
C1015 C 0.23492 0.99927 0.66253 0.0
C1016 C 0.21076 0.02022 0.65465 0.0
C1017 C 0.17932 0.00946 0.65326 0.0
C1018 C 0.3076 0.05327 0.6679 0.0
C1019 C 0.33214 0.03226 0.66096 0.0
C1020 C 0.27633 0.04236 0.66889 0.0
C1021 C 0.26863 0.01014 0.66288 0.0
C1022 C 0.29333 0.98874 0.65664 0.0
C1023 C 0.32478 0.99967 0.65576 0.0
H1024 H 0.8462 0.52357 0.15163 0.0
H1025 H 0.81703 0.42865 0.17585 0.0
H1026 H 0.7913 0.54239 0.15374 0.0
H1027 H 0.76264 0.44749 0.17839 0.0
H1028 H 0.66512 0.47954 0.15087 0.0
H1029 H 0.72001 0.461 0.15308 0.0
H1030 H 0.74812 0.55553 0.17879 0.0
H1031 H 0.69358 0.57414 0.17616 0.0
C1032 C 0.82821 0.50693 0.15777 0.0
C1033 C 0.83597 0.47457 0.16335 0.0
C1034 C 0.79672 0.51767 0.15902 0.0
C1035 C 0.77241 0.49631 0.16601 0.0
C1036 C 0.78054 0.46437 0.17244 0.0
C1037 C 0.81184 0.45365 0.1711 0.0
C1038 C 0.68295 0.49616 0.15729 0.0
C1039 C 0.67496 0.52835 0.16317 0.0
C1040 C 0.71446 0.48558 0.15859 0.0
C1041 C 0.73863 0.5069 0.16592 0.0
C1042 C 0.73032 0.53868 0.17261 0.0
C1043 C 0.69894 0.54926 0.17124 0.0
H1044 H 0.31965 0.57565 0.34542 0.0
H1045 H 0.3492 0.48035 0.36876 0.0
H1046 H 0.26526 0.55671 0.34274 0.0
H1047 H 0.29441 0.46147 0.36658 0.0
H1048 H 0.19724 0.42922 0.34401 0.0
H1049 H 0.25152 0.4484 0.3416 0.0
H1050 H 0.22241 0.5425 0.36748 0.0
H1051 H 0.16763 0.52337 0.36939 0.0
C1052 C 0.31455 0.55055 0.34992 0.0
C1053 C 0.33879 0.52953 0.35743 0.0
C1054 C 0.28325 0.53977 0.34853 0.0
C1055 C 0.27526 0.50768 0.35468 0.0
C1056 C 0.29969 0.48629 0.36149 0.0
C1057 C 0.33114 0.49707 0.36277 0.0
C1058 C 0.20231 0.45412 0.34905 0.0
C1059 C 0.17809 0.47474 0.35705 0.0
C1060 C 0.23356 0.46504 0.34779 0.0
C1061 C 0.24154 0.49686 0.35459 0.0
C1062 C 0.21712 0.5179 0.3619 0.0
C1063 C 0.1857 0.50698 0.36303 0.0
H1064 H 0.16284 0.48044 0.87148 0.0
H1065 H 0.19284 0.57469 0.84646 0.0
H1066 H 0.21757 0.46117 0.86968 0.0
H1067 H 0.24714 0.55538 0.84437 0.0
H1068 H 0.34466 0.52168 0.87168 0.0
H1069 H 0.28996 0.54121 0.8699 0.0
H1070 H 0.26004 0.44744 0.84395 0.0
H1071 H 0.31425 0.4279 0.84604 0.0
C1072 C 0.18098 0.49687 0.86527 0.0
C1073 C 0.17344 0.52915 0.85929 0.0
C1074 C 0.21237 0.48585 0.86422 0.0
C1075 C 0.23687 0.50686 0.85707 0.0
C1076 C 0.22906 0.53877 0.85039 0.0
C1077 C 0.1978 0.54976 0.85148 0.0
C1078 C 0.32644 0.50543 0.86533 0.0
C1079 C 0.33382 0.47318 0.85921 0.0
C1080 C 0.29507 0.51659 0.86429 0.0
C1081 C 0.27049 0.49575 0.85701 0.0
C1082 C 0.27818 0.46391 0.85012 0.0
C1083 C 0.30939 0.45279 0.85121 0.0
H1084 H 0.69043 0.4349 0.67419 0.0
H1085 H 0.66311 0.52716 0.64433 0.0
H1086 H 0.74504 0.45331 0.67646 0.0
H1087 H 0.71809 0.54549 0.64638 0.0
H1088 H 0.81459 0.57895 0.67049 0.0
H1089 H 0.76 0.56066 0.67245 0.0
H1090 H 0.78885 0.46432 0.65083 0.0
H1091 H 0.84394 0.48264 0.64912 0.0
C1092 C 0.69602 0.45922 0.66817 0.0
C1093 C 0.67233 0.4795 0.65892 0.0
C1094 C 0.72745 0.46967 0.66936 0.0
C1095 C 0.73609 0.50072 0.66139 0.0
C1096 C 0.71224 0.52148 0.65285 0.0
C1097 C 0.68069 0.51101 0.65165 0.0
C1098 C 0.80942 0.55378 0.66623 0.0
C1099 C 0.83369 0.5323 0.65945 0.0
C1100 C 0.778 0.54336 0.66726 0.0
C1101 C 0.7699 0.51115 0.66155 0.0
C1102 C 0.79428 0.48928 0.6555 0.0
C1103 C 0.82587 0.49974 0.65449 0.0
H1104 H 0.02016 0.10715 0.32639 0.0
H1105 H 0.92899 0.08121 0.29847 0.0
H1106 H 0.04219 0.11024 0.28843 0.0
H1107 H 0.9514 0.08261 0.2603 0.0
H1108 H 0.99239 0.11311 0.19291 0.0
H1109 H 0.9706 0.11512 0.23101 0.0
H1110 H 0.05925 0.07886 0.25794 0.0
H1111 H 0.0815 0.0785 0.21971 0.0
C1112 C 1.0048 0.1019 0.3121 0.0
C1113 C 0.97276 0.09387 0.31549 0.0
C1114 C 0.01757 0.10341 0.29024 0.0
C1115 C 0.99882 0.09642 0.27108 0.0
C1116 C 0.9666 0.08869 0.2745 0.0
C1117 C 0.95368 0.08771 0.29643 0.0
C1118 C 0.00735 0.10582 0.20699 0.0
C1119 C 0.03873 0.09562 0.20326 0.0
C1120 C 0.99471 0.10667 0.22891 0.0
C1121 C 0.01289 0.09685 0.24775 0.0
C1122 C 0.04453 0.0871 0.244 0.0
C1123 C 0.05736 0.08677 0.22204 0.0
H1124 H 0.427 0.89986 0.22053 0.0
H1125 H 0.51447 0.93774 0.19311 0.0
H1126 H 0.45088 0.89855 0.25833 0.0
H1127 H 0.53776 0.93758 0.23077 0.0
H1128 H 0.58219 0.90349 0.29705 0.0
H1129 H 0.55793 0.90278 0.25943 0.0
H1130 H 0.46854 0.93197 0.28873 0.0
H1131 H 0.49236 0.93146 0.32627 0.0
C1132 C 0.45116 0.90826 0.22255 0.0
C1133 C 0.46865 0.91902 0.20366 0.0
C1134 C 0.46488 0.90763 0.24429 0.0
C1135 C 0.49639 0.9179 0.24774 0.0
C1136 C 0.51369 0.9289 0.22884 0.0
C1137 C 0.50011 0.92932 0.20716 0.0
C1138 C 0.55737 0.90978 0.29548 0.0
C1139 C 0.53941 0.91774 0.3148 0.0
C1140 C 0.54343 0.90954 0.27384 0.0
C1141 C 0.51117 0.91743 0.27088 0.0
C1142 C 0.49326 0.92529 0.29025 0.0
C1143 C 0.50711 0.92531 0.31186 0.0
H1144 H 0.98878 0.92328 0.6937 0.0
H1145 H 0.08197 0.89784 0.71853 0.0
H1146 H 0.96825 0.92147 0.73194 0.0
H1147 H 0.06084 0.89445 0.75709 0.0
H1148 H 0.02154 0.93077 0.82492 0.0
H1149 H 0.04257 0.92798 0.78676 0.0
H1150 H 0.95362 0.88866 0.76281 0.0
H1151 H 0.9319 0.89296 0.80109 0.0
C1152 C 1.00498 0.91704 0.70729 0.0
C1153 C 0.03729 0.91117 0.70291 0.0
C1154 C 0.99298 0.9156 0.72935 0.0
C1155 C 0.01274 0.90783 0.7478 0.0
C1156 C 0.04493 0.9011 0.74341 0.0
C1157 C 0.05708 0.90286 0.72125 0.0
C1158 C 0.00625 0.92166 0.81157 0.0
C1159 C 0.97472 0.91257 0.81616 0.0
C1160 C 0.01857 0.91967 0.7896 0.0
C1161 C 0.99993 0.90814 0.77151 0.0
C1162 C 0.9686 0.89827 0.77617 0.0
C1163 C 0.95611 0.90059 0.79819 0.0
H1164 H 0.42718 0.09983 0.72004 0.0
H1165 H 0.51561 0.065 0.69218 0.0
H1166 H 0.45087 0.10022 0.75791 0.0
H1167 H 0.53877 0.06445 0.72989 0.0
H1168 H 0.58164 0.09807 0.79706 0.0
H1169 H 0.55768 0.09936 0.75932 0.0
H1170 H 0.46934 0.06507 0.7875 0.0
H1171 H 0.49283 0.06474 0.82515 0.0
C1172 C 0.45152 0.09195 0.72197 0.0
C1173 C 0.46932 0.08227 0.70294 0.0
C1174 C 0.46513 0.09206 0.74374 0.0
C1175 C 0.49686 0.08241 0.74707 0.0
C1176 C 0.51451 0.07258 0.72803 0.0
C1177 C 0.50101 0.0726 0.70633 0.0
C1178 C 0.55713 0.09074 0.79521 0.0
C1179 C 0.53934 0.08115 0.81425 0.0
C1180 C 0.54337 0.09135 0.77351 0.0
C1181 C 0.51148 0.08229 0.77024 0.0
C1182 C 0.49376 0.0727 0.78931 0.0
C1183 C 0.50743 0.07222 0.81097 0.0
H1184 H 0.58261 0.60601 0.22019 0.0
H1185 H 0.49123 0.57623 0.1943 0.0
H1186 H 0.5604 0.60895 0.25842 0.0
H1187 H 0.46959 0.57788 0.23232 0.0
H1188 H 0.43112 0.60818 0.30106 0.0
H1189 H 0.45327 0.61155 0.26281 0.0
H1190 H 0.54252 0.57449 0.28797 0.0
H1191 H 0.521 0.57237 0.326 0.0
C1192 C 0.55789 0.59992 0.22261 0.0
C1193 C 0.53892 0.59058 0.20407 0.0
C1194 C 0.54513 0.60145 0.24459 0.0
C1195 C 0.51312 0.59352 0.24861 0.0
C1196 C 0.49415 0.58464 0.22998 0.0
C1197 C 0.50679 0.58335 0.20808 0.0
C1198 C 0.45547 0.60082 0.29842 0.0
C1199 C 0.47406 0.58975 0.3167 0.0
C1200 C 0.4682 0.60262 0.27643 0.0
C1201 C 0.49979 0.59324 0.27216 0.0
C1202 C 0.51833 0.58245 0.29052 0.0
C1203 C 0.50574 0.58088 0.31243 0.0
H1204 H 0.08405 0.40408 0.29887 0.0
H1205 H 0.99472 0.4373 0.32619 0.0
H1206 H 0.06081 0.40308 0.26088 0.0
H1207 H 0.97198 0.43734 0.28834 0.0
H1208 H 0.93061 0.40379 0.22068 0.0
H1209 H 0.95394 0.40261 0.25862 0.0
H1210 H 0.04242 0.43786 0.23124 0.0
H1211 H 0.01958 0.43801 0.1934 0.0
C1212 C 0.05958 0.41145 0.2968 0.0
C1213 C 0.04143 0.42092 0.3157 0.0
C1214 C 0.04624 0.41101 0.27496 0.0
C1215 C 0.01441 0.42015 0.27142 0.0
C1216 C 0.99635 0.42964 0.29034 0.0
C1217 C 0.0096 0.42992 0.31213 0.0
C1218 C 0.95502 0.41134 0.22275 0.0
C1219 C 0.97304 0.42115 0.20387 0.0
C1220 C 0.96842 0.4108 0.24457 0.0
C1221 C 1.00016 0.42017 0.24812 0.0
C1222 C 0.01811 0.42999 0.22922 0.0
C1223 C 1.00481 0.43037 0.20744 0.0
H1224 H 0.49277 0.3925 0.6948 0.0
H1225 H 0.58021 0.43159 0.72133 0.0
H1226 H 0.4706 0.39127 0.73279 0.0
H1227 H 0.5575 0.4321 0.75944 0.0
H1228 H 0.51825 0.40418 0.82831 0.0
H1229 H 0.54126 0.40194 0.79063 0.0
H1230 H 0.44966 0.42362 0.76129 0.0
H1231 H 0.42635 0.42406 0.79915 0.0
C1232 C 0.50726 0.40097 0.70881 0.0
C1233 C 0.5383 0.41215 0.70503 0.0
C1234 C 0.49439 0.40059 0.73067 0.0
C1235 C 0.51194 0.41194 0.74941 0.0
C1236 C 0.54325 0.4227 0.74562 0.0
C1237 C 0.55636 0.42253 0.72372 0.0
C1238 C 0.50294 0.40842 0.81382 0.0
C1239 C 0.47038 0.41431 0.8168 0.0
C1240 C 0.51626 0.40737 0.7921 0.0
C1241 C 0.49754 0.4127 0.77266 0.0
C1242 C 0.4649 0.41874 0.7757 0.0
C1243 C 0.45146 0.41923 0.79747 0.0
H1244 H 0.08066 0.57747 0.79838 0.0
H1245 H 0.99072 0.60772 0.82607 0.0
H1246 H 0.05776 0.57752 0.76033 0.0
H1247 H 0.96823 0.60954 0.78813 0.0
H1248 H 0.92681 0.57848 0.71999 0.0
H1249 H 0.9496 0.57839 0.7581 0.0
H1250 H 0.0396 0.60899 0.73037 0.0
H1251 H 0.01722 0.60732 0.69241 0.0
C1252 C 0.05613 0.58461 0.79631 0.0
C1253 C 0.03757 0.59248 0.81531 0.0
C1254 C 0.04292 0.58482 0.77442 0.0
C1255 C 0.01093 0.59349 0.77091 0.0
C1256 C 0.99266 0.60199 0.78999 0.0
C1257 C 0.0057 0.60123 0.81185 0.0
C1258 C 0.95142 0.58528 0.72211 0.0
C1259 C 0.97016 0.59276 0.70312 0.0
C1260 C 0.96456 0.5854 0.74402 0.0
C1261 C 0.99667 0.59359 0.74755 0.0
C1262 C 0.01509 0.60177 0.72848 0.0
C1263 C 1.00212 0.6011 0.70662 0.0
H1264 H 0.07813 0.1952 0.13209 0.0
H1265 H 0.98881 0.15773 0.10723 0.0
H1266 H 0.05906 0.25051 0.12759 0.0
H1267 H 0.96952 0.21385 0.10302 0.0
H1268 H 0.93812 0.30886 0.14146 0.0
H1269 H 0.95734 0.25439 0.13408 0.0
H1270 H 0.03952 0.29421 0.10053 0.0
H1271 H 0.01989 0.3497 0.10758 0.0
C1272 C 0.05464 0.19865 0.12515 0.0
C1273 C 0.03497 0.17182 0.12009 0.0
C1274 C 0.0438 0.23055 0.12247 0.0
C1275 C 0.01284 0.23651 0.11498 0.0
C1276 C 0.99352 0.20987 0.10892 0.0
C1277 C 1.00456 0.17778 0.11131 0.0
C1278 C 0.96001 0.30636 0.1321 0.0
C1279 C 0.97736 0.33392 0.12502 0.0
C1280 C 0.9709 0.27491 0.12774 0.0
C1281 C 0.99971 0.27001 0.11651 0.0
C1282 C 0.0171 0.29737 0.10916 0.0
C1283 C 0.00591 0.32909 0.11324 0.0
H1284 H 0.51574 0.84547 0.10697 0.0
H1285 H 0.43657 0.80478 0.14399 0.0
H1286 H 0.53546 0.79002 0.10003 0.0
H1287 H 0.45591 0.75029 0.13676 0.0
H1288 H 0.48774 0.65294 0.11066 0.0
H1289 H 0.46694 0.70853 0.10619 0.0
H1290 H 0.55716 0.74795 0.12713 0.0
H1291 H 0.57762 0.69338 0.13194 0.0
C1292 C 0.50236 0.82489 0.11338 0.0
C1293 C 0.47454 0.82976 0.12601 0.0
C1294 C 0.51357 0.79319 0.10934 0.0
C1295 C 0.49696 0.76586 0.11762 0.0
C1296 C 0.46883 0.77077 0.1297 0.0
C1297 C 0.45791 0.80223 0.13399 0.0
C1298 C 0.50326 0.67349 0.11388 0.0
C1299 C 0.53433 0.66854 0.12171 0.0
C1300 C 0.49137 0.70526 0.11134 0.0
C1301 C 0.51052 0.73254 0.11627 0.0
C1302 C 0.54201 0.72751 0.12284 0.0
C1303 C 0.55367 0.69599 0.1257 0.0
H1304 H 0.52785 0.65286 0.40812 0.0
H1305 H 0.43706 0.69385 0.38944 0.0
H1306 H 0.54895 0.70837 0.41246 0.0
H1307 H 0.45778 0.74826 0.39415 0.0
H1308 H 0.49923 0.84528 0.41413 0.0
H1309 H 0.48054 0.78954 0.42128 0.0
H1310 H 0.55855 0.75115 0.3822 0.0
H1311 H 0.57687 0.80601 0.37477 0.0
C1312 C 0.51222 0.6735 0.40545 0.0
C1313 C 0.48075 0.66873 0.39841 0.0
C1314 C 0.52428 0.70522 0.40791 0.0
C1315 C 0.50491 0.73262 0.40374 0.0
C1316 C 0.47313 0.72773 0.39789 0.0
C1317 C 0.4613 0.69629 0.39508 0.0
C1318 C 0.51254 0.82493 0.40728 0.0
C1319 C 0.53955 0.83029 0.39388 0.0
C1320 C 0.50192 0.79306 0.41143 0.0
C1321 C 0.51832 0.76602 0.40247 0.0
C1322 C 0.5458 0.7714 0.38974 0.0
C1323 C 0.55614 0.80306 0.38535 0.0
H1324 H 0.99426 0.34869 0.4114 0.0
H1325 H 0.07653 0.30824 0.37789 0.0
H1326 H 0.97443 0.29317 0.41783 0.0
H1327 H 0.05706 0.25366 0.38463 0.0
H1328 H 0.02372 0.1564 0.41038 0.0
H1329 H 0.04387 0.21218 0.41494 0.0
H1330 H 0.95516 0.2506 0.39005 0.0
H1331 H 0.93531 0.19574 0.38516 0.0
C1332 C 0.00831 0.32814 0.4057 0.0
C1333 C 0.03702 0.3331 0.39416 0.0
C1334 C 0.997 0.2964 0.40942 0.0
C1335 C 0.01441 0.26911 0.40193 0.0
C1336 C 0.04345 0.27411 0.39103 0.0
C1337 C 0.05449 0.30562 0.38705 0.0
C1338 C 0.00837 0.17677 0.40627 0.0
C1339 C 0.97791 0.17144 0.39737 0.0
C1340 C 0.01989 0.20866 0.40887 0.0
C1341 C 1.00099 0.2357 0.40291 0.0
C1342 C 0.97008 0.23033 0.39514 0.0
C1343 C 0.95878 0.19868 0.39224 0.0
H1344 H 0.07506 0.69704 0.87936 0.0
H1345 H 0.99465 0.65926 0.91646 0.0
H1346 H 0.05744 0.75221 0.8864 0.0
H1347 H 0.97674 0.71537 0.92331 0.0
H1348 H 0.93601 0.81119 0.89005 0.0
H1349 H 0.9558 0.75662 0.89592 0.0
H1350 H 0.04684 0.79566 0.91537 0.0
H1351 H 0.02672 0.85131 0.90972 0.0
C1352 C 0.05388 0.70039 0.88942 0.0
C1353 C 0.03623 0.67349 0.89731 0.0
C1354 C 0.04394 0.73224 0.89359 0.0
C1355 C 0.01584 0.73817 0.90551 0.0
C1356 C 0.99855 0.71145 0.91405 0.0
C1357 C 0.00875 0.67936 0.91009 0.0
C1358 C 0.96003 0.80853 0.89615 0.0
C1359 C 0.97977 0.83588 0.89937 0.0
C1360 C 0.97131 0.77701 0.89964 0.0
C1361 C 1.00281 0.7718 0.90616 0.0
C1362 C 0.02239 0.79903 0.91029 0.0
C1363 C 0.0109 0.83085 0.90707 0.0
H1364 H 0.51728 0.3436 0.91072 0.0
H1365 H 0.43236 0.30434 0.87992 0.0
H1366 H 0.5378 0.28795 0.9151 0.0
H1367 H 0.45252 0.24944 0.8848 0.0
H1368 H 0.57459 0.19346 0.87744 0.0
H1369 H 0.55381 0.24765 0.88375 0.0
H1370 H 0.47006 0.20653 0.91439 0.0
H1371 H 0.49135 0.15135 0.90863 0.0
C1372 C 0.50275 0.32325 0.90529 0.0
C1373 C 0.47316 0.32858 0.89497 0.0
C1374 C 0.51446 0.29144 0.90783 0.0
C1375 C 0.49658 0.26445 0.90043 0.0
C1376 C 0.46654 0.26972 0.89103 0.0
C1377 C 0.45509 0.30136 0.88815 0.0
C1378 C 0.55207 0.19564 0.88602 0.0
C1379 C 0.53476 0.16782 0.89266 0.0
C1380 C 0.54025 0.2269 0.88972 0.0
C1381 C 0.51052 0.2313 0.89974 0.0
C1382 C 0.49319 0.20371 0.9067 0.0
C1383 C 0.50533 0.17219 0.90337 0.0
H1384 H 0.51831 0.15657 0.6084 0.0
H1385 H 0.43683 0.19722 0.64279 0.0
H1386 H 0.53851 0.21211 0.60226 0.0
H1387 H 0.45652 0.25172 0.63617 0.0
H1388 H 0.57698 0.31075 0.63514 0.0
H1389 H 0.55785 0.25547 0.63043 0.0
H1390 H 0.46904 0.29246 0.60472 0.0
H1391 H 0.48844 0.34852 0.60902 0.0
C1392 C 0.50452 0.17716 0.61436 0.0
C1393 C 0.47585 0.17226 0.62598 0.0
C1394 C 0.51603 0.20889 0.6108 0.0
C1395 C 0.4988 0.23619 0.61846 0.0
C1396 C 0.46994 0.23124 0.6296 0.0
C1397 C 0.45877 0.19978 0.63349 0.0
C1398 C 0.55366 0.30737 0.6279 0.0
C1399 C 0.53424 0.33428 0.62248 0.0
C1400 C 0.54278 0.2755 0.62511 0.0
C1401 C 0.51202 0.26966 0.6172 0.0
C1402 C 0.49291 0.29637 0.61091 0.0
C1403 C 0.50401 0.32842 0.61336 0.0
H1404 H 0.07523 0.81099 0.6296 0.0
H1405 H 0.98535 0.8507 0.60756 0.0
H1406 H 0.05559 0.75623 0.6239 0.0
H1407 H 0.96546 0.79501 0.6021 0.0
H1408 H 0.93524 0.69777 0.63868 0.0
H1409 H 0.9538 0.75257 0.6317 0.0
H1410 H 0.03523 0.71425 0.59635 0.0
H1411 H 0.01625 0.65843 0.60304 0.0
C1412 C 0.05146 0.80818 0.62302 0.0
C1413 C 0.03186 0.83548 0.6191 0.0
C1414 C 0.04028 0.77657 0.61963 0.0
C1415 C 0.00904 0.77128 0.61253 0.0
C1416 C 0.98969 0.79844 0.60766 0.0
C1417 C 1.00107 0.83029 0.61077 0.0
C1418 C 0.95676 0.7007 0.62895 0.0
C1419 C 0.97422 0.67345 0.62139 0.0
C1420 C 0.96728 0.73234 0.62483 0.0
C1421 C 0.99581 0.73776 0.61334 0.0
C1422 C 0.01306 0.71071 0.60525 0.0
C1423 C 1.00225 0.67881 0.60911 0.0
H1424 H 0.99179 0.00699 0.94354 0.0
H1425 H 0.97108 0.91895 0.98114 0.0
H1426 H 0.00846 0.03378 0.97843 0.0
H1427 H 0.9888 0.94541 0.01603 0.0
H1428 H 0.99302 0.01237 0.07773 0.0
H1429 H 0.97574 0.98576 0.04307 0.0
H1430 H 0.04978 0.03502 1.00582 0.0
H1431 H 0.06642 0.06272 0.0406 0.0
C1432 C 0.9908 0.9933 0.95928 0.0
C1433 C 0.98001 0.96078 0.95951 0.0
C1434 C 1.00069 0.00861 0.97931 0.0
C1435 C 1.0003 0.9918 1.00015 0.0
C1436 C 0.98912 0.95936 1.0004 0.0
C1437 C 0.97898 0.94409 0.98036 0.0
C1438 C 0.00575 0.01755 0.06219 0.0
C1439 C 0.03114 0.03982 0.06201 0.0
C1440 C 0.99589 1.00205 0.04225 0.0
C1441 C 0.01127 0.00811 0.0215 0.0
C1442 C 0.03697 0.0301 0.02136 0.0
C1443 C 0.0467 0.04585 0.04135 0.0
H1444 H 0.54044 0.99779 0.9449 0.0
H1445 H 0.50261 0.08416 0.97701 0.0
H1446 H 0.5295 0.96632 0.97906 0.0
H1447 H 0.49298 0.05315 0.01164 0.0
H1448 H 0.4505 0.98351 0.06329 0.0
H1449 H 0.46011 0.01369 0.02818 0.0
H1450 H 0.54424 0.95596 0.01634 0.0
H1451 H 0.53372 0.92501 0.05059 0.0
C1452 C 0.53041 0.01024 0.95945 0.0
C1453 C 0.5225 0.04354 0.95822 0.0
C1454 C 0.52411 0.99216 0.97914 0.0
C1455 C 0.51014 0.00698 0.99829 0.0
C1456 C 0.50306 0.04057 0.99718 0.0
C1457 C 0.50894 0.05852 0.97737 0.0
C1458 C 0.47078 0.97703 0.05299 0.0
C1459 C 0.49118 0.95168 0.05975 0.0
C1460 C 0.47656 0.99459 0.03294 0.0
C1461 C 0.50314 0.98756 0.01929 0.0
C1462 C 0.52324 0.96189 0.02603 0.0
C1463 C 0.51724 0.94412 0.04585 0.0
H1464 H 0.45174 0.01781 0.56304 0.0
H1465 H 0.53398 0.07731 0.54948 0.0
H1466 H 0.46167 0.98699 0.52827 0.0
H1467 H 0.54479 0.04577 0.51552 0.0
H1468 H 0.54124 1.00176 0.44462 0.0
H1469 H 0.52994 0.03407 0.47835 0.0
H1470 H 0.49537 0.94758 0.51238 0.0
H1471 H 0.5054 0.91567 0.47822 0.0
C1472 C 0.47186 0.0244 0.55261 0.0
C1473 C 0.49193 0.05018 0.55906 0.0
C1474 C 0.47783 0.00646 0.53276 0.0
C1475 C 0.50424 0.01357 0.51898 0.0
C1476 C 0.52395 0.03973 0.52535 0.0
C1477 C 0.51778 0.05785 0.54499 0.0
C1478 C 0.53156 0.98957 0.4594 0.0
C1479 C 0.52432 0.95607 0.45871 0.0
C1480 C 0.52506 0.00813 0.47883 0.0
C1481 C 0.51151 0.99365 0.49826 0.0
C1482 C 0.5051 0.95989 0.49769 0.0
C1483 C 0.51122 0.94143 0.47815 0.0
H1484 H 0.06738 0.94327 0.53984 0.0
H1485 H 0.99191 0.99157 0.57614 0.0
H1486 H 0.05081 0.9707 0.50487 0.0
H1487 H 0.97467 0.01775 0.54138 0.0
H1488 H 0.96908 0.0852 0.48028 0.0
H1489 H 0.98705 0.05863 0.51502 0.0
H1490 H 0.01078 0.97198 0.47669 0.0
H1491 H 0.99396 0.99906 0.44189 0.0
C1492 C 0.04721 0.95959 0.54036 0.0
C1493 C 0.03112 0.96525 0.56086 0.0
C1494 C 0.03752 0.97519 0.52027 0.0
C1495 C 0.01132 0.99659 0.52017 0.0
C1496 C 0.99529 1.00205 0.54073 0.0
C1497 C 1.00513 0.98678 0.56076 0.0
C1498 C 0.97794 0.06041 0.47929 0.0
C1499 C 0.98002 0.04431 0.45828 0.0
C1500 C 0.98821 0.04506 0.49927 0.0
C1501 C 1.00051 0.01304 0.4988 0.0
C1502 C 1.00208 0.99681 0.47776 0.0
C1503 C 0.99211 0.01227 0.45778 0.0
H1504 H 0.54521 0.58108 0.03762 0.0
H1505 H 0.52113 0.49673 0.07822 0.0
H1506 H 0.53048 0.55107 1.00321 0.0
H1507 H 0.50605 0.4672 0.04408 0.0
H1508 H 0.51739 0.41253 0.9767 0.0
H1509 H 0.53043 0.44298 0.01091 0.0
H1510 H 0.48357 0.52814 0.98353 0.0
H1511 H 0.47084 0.49765 0.94893 0.0
C1512 C 0.5369 0.55617 0.03923 0.0
C1513 C 0.53449 0.54135 0.06072 0.0
C1514 C 0.52816 0.53907 0.01953 0.0
C1515 C 0.517 0.50671 0.02086 0.0
C1516 C 0.51485 0.49192 0.04236 0.0
C1517 C 0.52344 0.50897 0.06198 0.0
C1518 C 0.50955 0.43765 0.978 0.0
C1519 C 0.49298 0.45257 0.96004 0.0
C1520 C 0.51699 0.45513 0.9977 0.0
C1521 C 0.50817 0.48808 0.99999 0.0
C1522 C 0.49107 0.50291 0.98221 0.0
C1523 C 0.48345 0.48532 0.96248 0.0
H1524 H 0.97218 0.50237 0.07116 0.0
H1525 H 0.01602 0.41611 0.04297 0.0
H1526 H 0.98425 0.53238 0.03624 0.0
H1527 H 0.02822 0.44606 1.00833 0.0
H1528 H 0.01748 0.50085 0.94106 0.0
H1529 H 1.0026 0.47145 0.97536 0.0
H1530 H 0.03214 0.55358 0.0162 0.0
H1531 H 0.04689 0.58333 0.98173 0.0
C1532 C 0.98398 0.48967 0.05742 0.0
C1533 C 0.99303 0.45678 0.05985 0.0
C1534 C 0.99122 0.50698 0.03752 0.0
C1535 C 0.00738 0.49169 0.01951 0.0
C1536 C 0.01556 0.45855 0.02175 0.0
C1537 C 0.0086 0.44138 0.04167 0.0
C1538 C 0.02094 0.51271 0.95733 0.0
C1539 C 0.0335 0.5445 0.95859 0.0
C1540 C 0.01245 0.49575 0.97703 0.0
C1541 C 0.01609 0.51014 0.99856 0.0
C1542 C 0.02867 0.54193 0.99987 0.0
C1543 C 0.03741 0.55886 0.98012 0.0
H1544 H 0.96543 0.58389 0.53643 0.0
H1545 H 0.99022 0.50038 0.5777 0.0
H1546 H 0.98099 0.55375 0.50232 0.0
H1547 H 0.00602 0.47061 0.54379 0.0
H1548 H 0.99536 0.41566 0.47596 0.0
H1549 H 0.9821 0.44587 0.51026 0.0
H1550 H 0.02874 0.53132 0.48332 0.0
H1551 H 0.04178 0.50107 0.4487 0.0
C1552 C 0.97407 0.55912 0.53825 0.0
C1553 C 0.97644 0.5446 0.55985 0.0
C1554 C 0.98328 0.54194 0.51871 0.0
C1555 C 0.99487 0.50976 0.52029 0.0
C1556 C 0.99694 0.49521 0.54189 0.0
C1557 C 0.98793 0.51239 0.56137 0.0
C1558 C 1.00314 0.44078 0.47741 0.0
C1559 C 0.01972 0.45587 0.45956 0.0
C1560 C 0.99558 0.45812 0.49714 0.0
C1561 C 1.00419 0.49111 0.49955 0.0
C1562 C 0.02138 0.50606 0.4819 0.0
C1563 C 0.02919 0.4886 0.46218 0.0
H1564 H 0.56487 0.4413 0.5417 0.0
H1565 H 0.49407 0.49493 0.57924 0.0
H1566 H 0.54835 0.469 0.50687 0.0
H1567 H 0.4769 0.5216 0.54454 0.0
H1568 H 0.47322 0.58756 0.48207 0.0
H1569 H 0.49078 0.56101 0.51698 0.0
H1570 H 0.50641 0.47132 0.47994 0.0
H1571 H 0.48987 0.49815 0.44501 0.0
C1572 C 0.54575 0.4589 0.54254 0.0
C1573 C 0.53087 0.46582 0.56333 0.0
C1574 C 0.53608 0.47465 0.52252 0.0
C1575 C 0.51115 0.49758 0.52276 0.0
C1576 C 0.49647 0.50455 0.54363 0.0
C1577 C 0.50625 0.48901 0.5636 0.0
C1578 C 0.48019 0.56212 0.48141 0.0
C1579 C 0.48012 0.54506 0.4607 0.0
C1580 C 0.49024 0.5468 0.50148 0.0
C1581 C 0.50025 0.51394 0.50139 0.0
C1582 C 0.49955 0.49678 0.48069 0.0
C1583 C 0.48973 0.51214 0.46063 0.0
loop_
_geom_bond_atom_site_label_1
_geom_bond_atom_site_label_2
_geom_bond_distance
_geom_bond_site_symmetry_2
_ccdc_geom_bond_type
Co0 O2 2.143 . S
Co0 O8 2.074 . S
Co0 O11 2.093 . S
Co0 O24 2.097 . S
Co0 N41 2.151 . S
Co0 N49 2.214 1_455 S
Co1 O2 2.160 . S
Co1 O7 2.058 . S
Co1 O17 2.057 . S
Co1 O32 2.037 . S
Co1 N36 2.145 . S
Co1 N57 2.257 . S
O2 Co0 2.143 . S
O2 Co1 2.160 . S
C3 O4 1.278 . S
C3 O11 1.224 . S
O4 C3 1.278 . S
C5 O6 1.245 . S
C5 O17 1.232 . S
O6 C5 1.245 . S
O7 Co1 2.058 . S
O7 C33 1.269 . S
O8 Co0 2.074 . S
O8 C33 1.257 . S
H9 C34 0.930 . S
H10 C40 0.930 . S
O11 Co0 2.093 . S
O11 C3 1.224 . S
H12 C44 0.929 . S
H13 C46 0.930 . S
H14 C47 0.930 . S
H15 C45 0.929 1_545 S
H16 C48 0.928 . S
O17 Co1 2.057 . S
O17 C5 1.232 . S
H18 C37 0.929 . S
H19 C38 0.929 . S
H20 C50 0.931 . S
H21 C42 0.929 . S
H22 C51 0.930 . S
H23 C43 0.923 1_655 S
O24 Co0 2.097 . S
O24 C52 1.214 . S
H25 C53 0.929 . S
H26 C54 0.929 . S
H27 C55 0.930 . S
H28 C56 0.929 . S
H29 C58 0.930 . S
H30 C35 0.930 . S
H31 C39 0.930 . S
O32 Co1 2.037 . S
O32 C52 1.234 . S
C33 O7 1.269 . S
C33 O8 1.257 . S
C34 H9 0.930 . S
C34 C37 1.388 . S
C34 C39 1.418 . S
C35 H30 0.930 . S
C35 C38 1.404 . S
C35 C39 1.353 . S
N36 Co1 2.145 . S
N36 C37 1.397 . S
N36 C38 1.334 . S
C37 H18 0.929 . S
C37 C34 1.388 . S
C37 N36 1.397 . S
C38 H19 0.929 . S
C38 C35 1.404 . S
C38 N36 1.334 . S
C39 H31 0.930 . S
C39 C34 1.418 . S
C39 C35 1.353 . S
C40 H10 0.930 . S
C40 N41 1.330 1_565 S
C40 C42 1.446 . S
N41 Co0 2.151 . S
N41 C40 1.330 1_545 S
N41 C45 1.418 1_445 S
C42 H21 0.929 . S
C42 C40 1.446 . S
C42 C43 1.351 . S
C43 H23 0.923 1_455 S
C43 C42 1.351 . S
C43 C44 1.256 1_455 S
C44 H12 0.929 . S
C44 C43 1.256 1_655 S
C44 C45 1.251 . S
C45 H15 0.929 1_565 S
C45 N41 1.418 1_665 S
C45 C44 1.251 . S
C46 H13 0.930 . S
C46 C48 1.406 . S
C46 C51 1.261 . S
C47 H14 0.930 . S
C47 N49 1.325 . S
C47 C50 1.357 . S
C48 H16 0.928 . S
C48 C46 1.406 . S
C48 N49 1.261 . S
N49 Co0 2.214 1_655 S
N49 C47 1.325 . S
N49 C48 1.261 . S
C50 H20 0.931 . S
C50 C47 1.357 . S
C50 C51 1.312 . S
C51 H22 0.930 . S
C51 C46 1.261 . S
C51 C50 1.312 . S
C52 O24 1.214 . S
C52 O32 1.234 . S
C53 H25 0.929 . S
C53 C56 1.391 . S
C53 C58 1.391 . S
C54 H26 0.929 . S
C54 C55 1.390 . S
C54 N57 1.391 . S
C55 H27 0.930 . S
C55 C54 1.390 . S
C55 C56 1.392 . S
C56 H28 0.929 . S
C56 C53 1.391 . S
C56 C55 1.392 . S
N57 Co1 2.257 . S
N57 C54 1.391 . S
N57 C58 1.388 . S
C58 H29 0.930 . S
C58 C53 1.391 . S
C58 N57 1.388 . S
Co59 O61 2.143 . S
Co59 O67 2.074 . S
Co59 O70 2.093 . S
Co59 O83 2.097 . S
Co59 N100 2.151 . S
Co59 N108 2.214 . S
Co60 O61 2.160 . S
Co60 O66 2.058 . S
Co60 O76 2.057 . S
Co60 O91 2.037 . S
Co60 N95 2.145 . S
Co60 N116 2.257 . S
O61 Co59 2.143 . S
O61 Co60 2.160 . S
C62 O63 1.278 . S
C62 O70 1.224 . S
O63 C62 1.278 . S
C64 O65 1.245 . S
C64 O76 1.232 . S
O65 C64 1.245 . S
O66 Co60 2.058 . S
O66 C92 1.269 . S
O67 Co59 2.074 . S
O67 C92 1.257 . S
H68 C93 0.930 . S
H69 C99 0.930 . S
O70 Co59 2.093 . S
O70 C62 1.224 . S
H71 C103 0.929 . S
H72 C105 0.930 . S
H73 C106 0.930 . S
H74 C104 0.929 1_565 S
H75 C107 0.928 . S
O76 Co60 2.057 . S
O76 C64 1.232 . S
H77 C96 0.929 . S
H78 C97 0.929 . S
H79 C109 0.931 . S
H80 C101 0.929 . S
H81 C110 0.930 . S
H82 C102 0.931 . S
O83 Co59 2.097 . S
O83 C111 1.214 . S
H84 C112 0.929 . S
H85 C113 0.929 . S
H86 C114 0.930 . S
H87 C115 0.929 . S
H88 C117 0.930 . S
H89 C94 0.930 . S
H90 C98 0.930 . S
O91 Co60 2.037 . S
O91 C111 1.234 . S
C92 O66 1.269 . S
C92 O67 1.257 . S
C93 H68 0.930 . S
C93 C96 1.388 . S
C93 C98 1.418 . S
C94 H89 0.930 . S
C94 C97 1.404 . S
C94 C98 1.353 . S
N95 Co60 2.145 . S
N95 C96 1.397 . S
N95 C97 1.334 . S
C96 H77 0.929 . S
C96 C93 1.388 . S
C96 N95 1.397 . S
C97 H78 0.929 . S
C97 C94 1.404 . S
C97 N95 1.334 . S
C98 H90 0.930 . S
C98 C93 1.418 . S
C98 C94 1.353 . S
C99 H69 0.930 . S
C99 N100 1.330 1_545 S
C99 C101 1.446 . S
N100 Co59 2.151 . S
N100 C99 1.330 1_565 S
N100 C104 1.418 1_565 S
C101 H80 0.929 . S
C101 C99 1.446 . S
C101 C102 1.332 . S
C102 H82 0.931 . S
C102 C101 1.332 . S
C102 C103 1.267 . S
C103 H71 0.929 . S
C103 C102 1.267 . S
C103 C104 1.251 . S
C104 H74 0.929 1_545 S
C104 N100 1.418 1_545 S
C104 C103 1.251 . S
C105 H72 0.930 . S
C105 C107 1.406 . S
C105 C110 1.261 . S
C106 H73 0.930 . S
C106 N108 1.325 . S
C106 C109 1.357 . S
C107 H75 0.928 . S
C107 C105 1.406 . S
C107 N108 1.261 . S
N108 Co59 2.214 . S
N108 C106 1.325 . S
N108 C107 1.261 . S
C109 H79 0.931 . S
C109 C106 1.357 . S
C109 C110 1.312 . S
C110 H81 0.930 . S
C110 C105 1.261 . S
C110 C109 1.312 . S
C111 O83 1.214 . S
C111 O91 1.234 . S
C112 H84 0.929 . S
C112 C115 1.391 . S
C112 C117 1.391 . S
C113 H85 0.929 . S
C113 C114 1.390 . S
C113 N116 1.391 . S
C114 H86 0.930 . S
C114 C113 1.390 . S
C114 C115 1.392 . S
C115 H87 0.929 . S
C115 C112 1.391 . S
C115 C114 1.392 . S
N116 Co60 2.257 . S
N116 C113 1.391 . S
N116 C117 1.388 . S
C117 H88 0.930 . S
C117 C112 1.391 . S
C117 N116 1.388 . S
Co118 O120 2.143 . S
Co118 O126 2.074 . S
Co118 O129 2.093 . S
Co118 O142 2.097 . S
Co118 N159 2.151 . S
Co118 N167 2.214 . S
Co119 O120 2.160 . S
Co119 O125 2.058 . S
Co119 O135 2.057 . S
Co119 O150 2.037 . S
Co119 N154 2.145 . S
Co119 N175 2.257 . S
O120 Co118 2.143 . S
O120 Co119 2.160 . S
C121 O122 1.278 . S
C121 O129 1.224 . S
O122 C121 1.278 . S
C123 O124 1.245 . S
C123 O135 1.232 . S
O124 C123 1.245 . S
O125 Co119 2.058 . S
O125 C151 1.269 . S
O126 Co118 2.074 . S
O126 C151 1.257 . S
H127 C152 0.930 . S
H128 C158 0.930 . S
O129 Co118 2.093 . S
O129 C121 1.224 . S
H130 C162 0.929 . S
H131 C164 0.930 . S
H132 C165 0.930 . S
H133 C163 0.929 1_565 S
H134 C166 0.928 . S
O135 Co119 2.057 . S
O135 C123 1.232 . S
H136 C155 0.929 . S
H137 C156 0.929 . S
H138 C168 0.931 . S
H139 C160 0.929 . S
H140 C169 0.930 . S
H141 C161 0.931 . S
O142 Co118 2.097 . S
O142 C170 1.214 . S
H143 C171 0.929 . S
H144 C172 0.929 . S
H145 C173 0.930 . S
H146 C174 0.929 . S
H147 C176 0.930 . S
H148 C153 0.930 . S
H149 C157 0.930 . S
O150 Co119 2.037 . S
O150 C170 1.234 . S
C151 O125 1.269 . S
C151 O126 1.257 . S
C152 H127 0.930 . S
C152 C155 1.388 . S
C152 C157 1.418 . S
C153 H148 0.930 . S
C153 C156 1.404 . S
C153 C157 1.353 . S
N154 Co119 2.145 . S
N154 C155 1.397 . S
N154 C156 1.334 . S
C155 H136 0.929 . S
C155 C152 1.388 . S
C155 N154 1.397 . S
C156 H137 0.929 . S
C156 C153 1.404 . S
C156 N154 1.334 . S
C157 H149 0.930 . S
C157 C152 1.418 . S
C157 C153 1.353 . S
C158 H128 0.930 . S
C158 N159 1.330 1_545 S
C158 C160 1.446 . S
N159 Co118 2.151 . S
N159 C158 1.330 1_565 S
N159 C163 1.418 1_565 S
C160 H139 0.929 . S
C160 C158 1.446 . S
C160 C161 1.332 . S
C161 H141 0.931 . S
C161 C160 1.332 . S
C161 C162 1.267 . S
C162 H130 0.929 . S
C162 C161 1.267 . S
C162 C163 1.251 . S
C163 H133 0.929 1_545 S
C163 N159 1.418 1_545 S
C163 C162 1.251 . S
C164 H131 0.930 . S
C164 C166 1.406 . S
C164 C169 1.261 . S
C165 H132 0.930 . S
C165 N167 1.325 . S
C165 C168 1.357 . S
C166 H134 0.928 . S
C166 C164 1.406 . S
C166 N167 1.261 . S
N167 Co118 2.214 . S
N167 C165 1.325 . S
N167 C166 1.261 . S
C168 H138 0.931 . S
C168 C165 1.357 . S
C168 C169 1.312 . S
C169 H140 0.930 . S
C169 C164 1.261 . S
C169 C168 1.312 . S
C170 O142 1.214 . S
C170 O150 1.234 . S
C171 H143 0.929 . S
C171 C174 1.391 . S
C171 C176 1.391 . S
C172 H144 0.929 . S
C172 C173 1.390 . S
C172 N175 1.391 . S
C173 H145 0.930 . S
C173 C172 1.390 . S
C173 C174 1.392 . S
C174 H146 0.929 . S
C174 C171 1.391 . S
C174 C173 1.392 . S
N175 Co119 2.257 . S
N175 C172 1.391 . S
N175 C176 1.388 . S
C176 H147 0.930 . S
C176 C171 1.391 . S
C176 N175 1.388 . S
Co177 O179 2.143 . S
Co177 O185 2.074 . S
Co177 O188 2.093 . S
Co177 O201 2.097 . S
Co177 N218 2.151 . S
Co177 N226 2.214 1_655 S
Co178 O179 2.160 . S
Co178 O184 2.058 . S
Co178 O194 2.057 . S
Co178 O209 2.037 . S
Co178 N213 2.145 . S
Co178 N234 2.257 . S
O179 Co177 2.143 . S
O179 Co178 2.160 . S
C180 O181 1.278 . S
C180 O188 1.224 . S
O181 C180 1.278 . S
C182 O183 1.245 . S
C182 O194 1.232 . S
O183 C182 1.245 . S
O184 Co178 2.058 . S
O184 C210 1.269 . S
O185 Co177 2.074 . S
O185 C210 1.257 . S
H186 C211 0.930 . S
H187 C217 0.930 . S
O188 Co177 2.093 . S
O188 C180 1.224 . S
H189 C221 0.929 . S
H190 C223 0.930 . S
H191 C224 0.930 . S
H192 C222 0.929 1_545 S
H193 C225 0.928 . S
O194 Co178 2.057 . S
O194 C182 1.232 . S
H195 C214 0.929 . S
H196 C215 0.929 . S
H197 C227 0.931 . S
H198 C219 0.929 . S
H199 C228 0.930 . S
H200 C220 0.923 1_455 S
O201 Co177 2.097 . S
O201 C229 1.214 . S
H202 C230 0.929 . S
H203 C231 0.929 . S
H204 C232 0.930 . S
H205 C233 0.929 . S
H206 C235 0.930 . S
H207 C212 0.930 . S
H208 C216 0.930 . S
O209 Co178 2.037 . S
O209 C229 1.234 . S
C210 O184 1.269 . S
C210 O185 1.257 . S
C211 H186 0.930 . S
C211 C214 1.388 . S
C211 C216 1.418 . S
C212 H207 0.930 . S
C212 C215 1.404 . S
C212 C216 1.353 . S
N213 Co178 2.145 . S
N213 C214 1.397 . S
N213 C215 1.334 . S
C214 H195 0.929 . S
C214 C211 1.388 . S
C214 N213 1.397 . S
C215 H196 0.929 . S
C215 C212 1.404 . S
C215 N213 1.334 . S
C216 H208 0.930 . S
C216 C211 1.418 . S
C216 C212 1.353 . S
C217 H187 0.930 . S
C217 N218 1.330 1_565 S
C217 C219 1.446 . S
N218 Co177 2.151 . S
N218 C217 1.330 1_545 S
N218 C222 1.418 1_645 S
C219 H198 0.929 . S
C219 C217 1.446 . S
C219 C220 1.351 . S
C220 H200 0.923 1_655 S
C220 C219 1.351 . S
C220 C221 1.256 1_655 S
C221 H189 0.929 . S
C221 C220 1.256 1_455 S
C221 C222 1.251 . S
C222 H192 0.929 1_565 S
C222 N218 1.418 1_465 S
C222 C221 1.251 . S
C223 H190 0.930 . S
C223 C225 1.406 . S
C223 C228 1.261 . S
C224 H191 0.930 . S
C224 N226 1.325 . S
C224 C227 1.357 . S
C225 H193 0.928 . S
C225 C223 1.406 . S
C225 N226 1.261 . S
N226 Co177 2.214 1_455 S
N226 C224 1.325 . S
N226 C225 1.261 . S
C227 H197 0.931 . S
C227 C224 1.357 . S
C227 C228 1.312 . S
C228 H199 0.930 . S
C228 C223 1.261 . S
C228 C227 1.312 . S
C229 O201 1.214 . S
C229 O209 1.234 . S
C230 H202 0.929 . S
C230 C233 1.391 . S
C230 C235 1.391 . S
C231 H203 0.929 . S
C231 C232 1.390 . S
C231 N234 1.391 . S
C232 H204 0.930 . S
C232 C231 1.390 . S
C232 C233 1.392 . S
C233 H205 0.929 . S
C233 C230 1.391 . S
C233 C232 1.392 . S
N234 Co178 2.257 . S
N234 C231 1.391 . S
N234 C235 1.388 . S
C235 H206 0.930 . S
C235 C230 1.391 . S
C235 N234 1.388 . S
Co236 O238 2.143 . S
Co236 O244 2.074 . S
Co236 O247 2.093 . S
Co236 O260 2.097 . S
Co236 N277 2.151 . S
Co236 N285 2.214 1_655 S
Co237 O238 2.160 . S
Co237 O243 2.058 . S
Co237 O253 2.057 . S
Co237 O268 2.037 . S
Co237 N272 2.145 . S
Co237 N293 2.257 . S
O238 Co236 2.143 . S
O238 Co237 2.160 . S
C239 O240 1.278 . S
C239 O247 1.224 . S
O240 C239 1.278 . S
C241 O242 1.245 . S
C241 O253 1.232 . S
O242 C241 1.245 . S
O243 Co237 2.058 . S
O243 C269 1.269 . S
O244 Co236 2.074 . S
O244 C269 1.257 . S
H245 C270 0.930 . S
H246 C276 0.930 . S
O247 Co236 2.093 . S
O247 C239 1.224 . S
H248 C280 0.929 . S
H249 C282 0.930 . S
H250 C283 0.930 . S
H251 C281 0.929 1_565 S
H252 C284 0.928 . S
O253 Co237 2.057 . S
O253 C241 1.232 . S
H254 C273 0.929 . S
H255 C274 0.929 . S
H256 C286 0.931 . S
H257 C278 0.929 . S
H258 C287 0.930 . S
H259 C279 0.923 1_455 S
O260 Co236 2.097 . S
O260 C288 1.214 . S
H261 C289 0.929 . S
H262 C290 0.929 . S
H263 C291 0.930 . S
H264 C292 0.929 . S
H265 C294 0.930 . S
H266 C271 0.930 . S
H267 C275 0.930 . S
O268 Co237 2.037 . S
O268 C288 1.234 . S
C269 O243 1.269 . S
C269 O244 1.257 . S
C270 H245 0.930 . S
C270 C273 1.388 . S
C270 C275 1.418 . S
C271 H266 0.930 . S
C271 C274 1.404 . S
C271 C275 1.353 . S
N272 Co237 2.145 . S
N272 C273 1.397 . S
N272 C274 1.334 . S
C273 H254 0.929 . S
C273 C270 1.388 . S
C273 N272 1.397 . S
C274 H255 0.929 . S
C274 C271 1.404 . S
C274 N272 1.334 . S
C275 H267 0.930 . S
C275 C270 1.418 . S
C275 C271 1.353 . S
C276 H246 0.930 . S
C276 N277 1.330 1_545 S
C276 C278 1.446 . S
N277 Co236 2.151 . S
N277 C276 1.330 1_565 S
N277 C281 1.418 1_665 S
C278 H257 0.929 . S
C278 C276 1.446 . S
C278 C279 1.351 . S
C279 H259 0.923 1_655 S
C279 C278 1.351 . S
C279 C280 1.256 1_655 S
C280 H248 0.929 . S
C280 C279 1.256 1_455 S
C280 C281 1.251 . S
C281 H251 0.929 1_545 S
C281 N277 1.418 1_445 S
C281 C280 1.251 . S
C282 H249 0.930 . S
C282 C284 1.406 . S
C282 C287 1.261 . S
C283 H250 0.930 . S
C283 N285 1.325 . S
C283 C286 1.357 . S
C284 H252 0.928 . S
C284 C282 1.406 . S
C284 N285 1.261 . S
N285 Co236 2.214 1_455 S
N285 C283 1.325 . S
N285 C284 1.261 . S
C286 H256 0.931 . S
C286 C283 1.357 . S
C286 C287 1.312 . S
C287 H258 0.930 . S
C287 C282 1.261 . S
C287 C286 1.312 . S
C288 O260 1.214 . S
C288 O268 1.234 . S
C289 H261 0.929 . S
C289 C292 1.391 . S
C289 C294 1.391 . S
C290 H262 0.929 . S
C290 C291 1.390 . S
C290 N293 1.391 . S
C291 H263 0.930 . S
C291 C290 1.390 . S
C291 C292 1.392 . S
C292 H264 0.929 . S
C292 C289 1.391 . S
C292 C291 1.392 . S
N293 Co237 2.257 . S
N293 C290 1.391 . S
N293 C294 1.388 . S
C294 H265 0.930 . S
C294 C289 1.391 . S
C294 N293 1.388 . S
Co295 O297 2.143 . S
Co295 O303 2.074 . S
Co295 O306 2.093 . S
Co295 O319 2.097 . S
Co295 N336 2.151 . S
Co295 N344 2.214 . S
Co296 O297 2.160 . S
Co296 O302 2.058 . S
Co296 O312 2.057 . S
Co296 O327 2.037 . S
Co296 N331 2.145 . S
Co296 N352 2.257 . S
O297 Co295 2.143 . S
O297 Co296 2.160 . S
C298 O299 1.278 . S
C298 O306 1.224 . S
O299 C298 1.278 . S
C300 O301 1.245 . S
C300 O312 1.232 . S
O301 C300 1.245 . S
O302 Co296 2.058 . S
O302 C328 1.269 . S
O303 Co295 2.074 . S
O303 C328 1.257 . S
H304 C329 0.930 . S
H305 C335 0.930 . S
O306 Co295 2.093 . S
O306 C298 1.224 . S
H307 C339 0.929 . S
H308 C341 0.930 . S
H309 C342 0.930 . S
H310 C340 0.929 1_545 S
H311 C343 0.928 . S
O312 Co296 2.057 . S
O312 C300 1.232 . S
H313 C332 0.929 . S
H314 C333 0.929 . S
H315 C345 0.931 . S
H316 C337 0.929 . S
H317 C346 0.930 . S
H318 C338 0.931 . S
O319 Co295 2.097 . S
O319 C347 1.214 . S
H320 C348 0.929 . S
H321 C349 0.929 . S
H322 C350 0.930 . S
H323 C351 0.929 . S
H324 C353 0.930 . S
H325 C330 0.930 . S
H326 C334 0.930 . S
O327 Co296 2.037 . S
O327 C347 1.234 . S
C328 O302 1.269 . S
C328 O303 1.257 . S
C329 H304 0.930 . S
C329 C332 1.388 . S
C329 C334 1.418 . S
C330 H325 0.930 . S
C330 C333 1.404 . S
C330 C334 1.353 . S
N331 Co296 2.145 . S
N331 C332 1.397 . S
N331 C333 1.334 . S
C332 H313 0.929 . S
C332 C329 1.388 . S
C332 N331 1.397 . S
C333 H314 0.929 . S
C333 C330 1.404 . S
C333 N331 1.334 . S
C334 H326 0.930 . S
C334 C329 1.418 . S
C334 C330 1.353 . S
C335 H305 0.930 . S
C335 N336 1.330 1_565 S
C335 C337 1.446 . S
N336 Co295 2.151 . S
N336 C335 1.330 1_545 S
N336 C340 1.418 1_545 S
C337 H316 0.929 . S
C337 C335 1.446 . S
C337 C338 1.332 . S
C338 H318 0.931 . S
C338 C337 1.332 . S
C338 C339 1.267 . S
C339 H307 0.929 . S
C339 C338 1.267 . S
C339 C340 1.251 . S
C340 H310 0.929 1_565 S
C340 N336 1.418 1_565 S
C340 C339 1.251 . S
C341 H308 0.930 . S
C341 C343 1.406 . S
C341 C346 1.261 . S
C342 H309 0.930 . S
C342 N344 1.325 . S
C342 C345 1.357 . S
C343 H311 0.928 . S
C343 C341 1.406 . S
C343 N344 1.261 . S
N344 Co295 2.214 . S
N344 C342 1.325 . S
N344 C343 1.261 . S
C345 H315 0.931 . S
C345 C342 1.357 . S
C345 C346 1.312 . S
C346 H317 0.930 . S
C346 C341 1.261 . S
C346 C345 1.312 . S
C347 O319 1.214 . S
C347 O327 1.234 . S
C348 H320 0.929 . S
C348 C351 1.391 . S
C348 C353 1.391 . S
C349 H321 0.929 . S
C349 C350 1.390 . S
C349 N352 1.391 . S
C350 H322 0.930 . S
C350 C349 1.390 . S
C350 C351 1.392 . S
C351 H323 0.929 . S
C351 C348 1.391 . S
C351 C350 1.392 . S
N352 Co296 2.257 . S
N352 C349 1.391 . S
N352 C353 1.388 . S
C353 H324 0.930 . S
C353 C348 1.391 . S
C353 N352 1.388 . S
Co354 O356 2.143 . S
Co354 O362 2.074 . S
Co354 O365 2.093 . S
Co354 O378 2.097 . S
Co354 N395 2.151 . S
Co354 N403 2.214 . S
Co355 O356 2.160 . S
Co355 O361 2.058 . S
Co355 O371 2.057 . S
Co355 O386 2.037 . S
Co355 N390 2.145 . S
Co355 N411 2.257 . S
O356 Co354 2.143 . S
O356 Co355 2.160 . S
C357 O358 1.278 . S
C357 O365 1.224 . S
O358 C357 1.278 . S
C359 O360 1.245 . S
C359 O371 1.232 . S
O360 C359 1.245 . S
O361 Co355 2.058 . S
O361 C387 1.269 . S
O362 Co354 2.074 . S
O362 C387 1.257 . S
H363 C388 0.930 . S
H364 C394 0.930 . S
O365 Co354 2.093 . S
O365 C357 1.224 . S
H366 C398 0.929 . S
H367 C400 0.930 . S
H368 C401 0.930 . S
H369 C399 0.929 1_545 S
H370 C402 0.928 . S
O371 Co355 2.057 . S
O371 C359 1.232 . S
H372 C391 0.929 . S
H373 C392 0.929 . S
H374 C404 0.931 . S
H375 C396 0.929 . S
H376 C405 0.930 . S
H377 C397 0.931 . S
O378 Co354 2.097 . S
O378 C406 1.214 . S
H379 C407 0.929 . S
H380 C408 0.929 . S
H381 C409 0.930 . S
H382 C410 0.929 . S
H383 C412 0.930 . S
H384 C389 0.930 . S
H385 C393 0.930 . S
O386 Co355 2.037 . S
O386 C406 1.234 . S
C387 O361 1.269 . S
C387 O362 1.257 . S
C388 H363 0.930 . S
C388 C391 1.388 . S
C388 C393 1.418 . S
C389 H384 0.930 . S
C389 C392 1.404 . S
C389 C393 1.353 . S
N390 Co355 2.145 . S
N390 C391 1.397 . S
N390 C392 1.334 . S
C391 H372 0.929 . S
C391 C388 1.388 . S
C391 N390 1.397 . S
C392 H373 0.929 . S
C392 C389 1.404 . S
C392 N390 1.334 . S
C393 H385 0.930 . S
C393 C388 1.418 . S
C393 C389 1.353 . S
C394 H364 0.930 . S
C394 N395 1.330 1_565 S
C394 C396 1.446 . S
N395 Co354 2.151 . S
N395 C394 1.330 1_545 S
N395 C399 1.418 1_545 S
C396 H375 0.929 . S
C396 C394 1.446 . S
C396 C397 1.332 . S
C397 H377 0.931 . S
C397 C396 1.332 . S
C397 C398 1.267 . S
C398 H366 0.929 . S
C398 C397 1.267 . S
C398 C399 1.251 . S
C399 H369 0.929 1_565 S
C399 N395 1.418 1_565 S
C399 C398 1.251 . S
C400 H367 0.930 . S
C400 C402 1.406 . S
C400 C405 1.261 . S
C401 H368 0.930 . S
C401 N403 1.325 . S
C401 C404 1.357 . S
C402 H370 0.928 . S
C402 C400 1.406 . S
C402 N403 1.261 . S
N403 Co354 2.214 . S
N403 C401 1.325 . S
N403 C402 1.261 . S
C404 H374 0.931 . S
C404 C401 1.357 . S
C404 C405 1.312 . S
C405 H376 0.930 . S
C405 C400 1.261 . S
C405 C404 1.312 . S
C406 O378 1.214 . S
C406 O386 1.234 . S
C407 H379 0.929 . S
C407 C410 1.391 . S
C407 C412 1.391 . S
C408 H380 0.929 . S
C408 C409 1.390 . S
C408 N411 1.391 . S
C409 H381 0.930 . S
C409 C408 1.390 . S
C409 C410 1.392 . S
C410 H382 0.929 . S
C410 C407 1.391 . S
C410 C409 1.392 . S
N411 Co355 2.257 . S
N411 C408 1.391 . S
N411 C412 1.388 . S
C412 H383 0.930 . S
C412 C407 1.391 . S
C412 N411 1.388 . S
Co413 O415 2.143 . S
Co413 O421 2.074 . S
Co413 O424 2.093 . S
Co413 O437 2.097 . S
Co413 N454 2.151 . S
Co413 N462 2.214 1_455 S
Co414 O415 2.160 . S
Co414 O420 2.058 . S
Co414 O430 2.057 . S
Co414 O445 2.037 . S
Co414 N449 2.145 . S
Co414 N470 2.257 . S
O415 Co413 2.143 . S
O415 Co414 2.160 . S
C416 O417 1.278 . S
C416 O424 1.224 . S
O417 C416 1.278 . S
C418 O419 1.245 . S
C418 O430 1.232 . S
O419 C418 1.245 . S
O420 Co414 2.058 . S
O420 C446 1.269 . S
O421 Co413 2.074 . S
O421 C446 1.257 . S
H422 C447 0.930 . S
H423 C453 0.930 . S
O424 Co413 2.093 . S
O424 C416 1.224 . S
H425 C457 0.929 . S
H426 C459 0.930 . S
H427 C460 0.930 . S
H428 C458 0.929 1_565 S
H429 C461 0.928 . S
O430 Co414 2.057 . S
O430 C418 1.232 . S
H431 C450 0.929 . S
H432 C451 0.929 . S
H433 C463 0.931 . S
H434 C455 0.929 . S
H435 C464 0.930 . S
H436 C456 0.923 1_655 S
O437 Co413 2.097 . S
O437 C465 1.214 . S
H438 C466 0.929 . S
H439 C467 0.929 . S
H440 C468 0.930 . S
H441 C469 0.929 . S
H442 C471 0.930 . S
H443 C448 0.930 . S
H444 C452 0.930 . S
O445 Co414 2.037 . S
O445 C465 1.234 . S
C446 O420 1.269 . S
C446 O421 1.257 . S
C447 H422 0.930 . S
C447 C450 1.388 . S
C447 C452 1.418 . S
C448 H443 0.930 . S
C448 C451 1.404 . S
C448 C452 1.353 . S
N449 Co414 2.145 . S
N449 C450 1.397 . S
N449 C451 1.334 . S
C450 H431 0.929 . S
C450 C447 1.388 . S
C450 N449 1.397 . S
C451 H432 0.929 . S
C451 C448 1.404 . S
C451 N449 1.334 . S
C452 H444 0.930 . S
C452 C447 1.418 . S
C452 C448 1.353 . S
C453 H423 0.930 . S
C453 N454 1.330 1_545 S
C453 C455 1.446 . S
N454 Co413 2.151 . S
N454 C453 1.330 1_565 S
N454 C458 1.418 1_465 S
C455 H434 0.929 . S
C455 C453 1.446 . S
C455 C456 1.351 . S
C456 H436 0.923 1_455 S
C456 C455 1.351 . S
C456 C457 1.256 1_455 S
C457 H425 0.929 . S
C457 C456 1.256 1_655 S
C457 C458 1.251 . S
C458 H428 0.929 1_545 S
C458 N454 1.418 1_645 S
C458 C457 1.251 . S
C459 H426 0.930 . S
C459 C461 1.406 . S
C459 C464 1.261 . S
C460 H427 0.930 . S
C460 N462 1.325 . S
C460 C463 1.357 . S
C461 H429 0.928 . S
C461 C459 1.406 . S
C461 N462 1.261 . S
N462 Co413 2.214 1_655 S
N462 C460 1.325 . S
N462 C461 1.261 . S
C463 H433 0.931 . S
C463 C460 1.357 . S
C463 C464 1.312 . S
C464 H435 0.930 . S
C464 C459 1.261 . S
C464 C463 1.312 . S
C465 O437 1.214 . S
C465 O445 1.234 . S
C466 H438 0.929 . S
C466 C469 1.391 . S
C466 C471 1.391 . S
C467 H439 0.929 . S
C467 C468 1.390 . S
C467 N470 1.391 . S
C468 H440 0.930 . S
C468 C467 1.390 . S
C468 C469 1.392 . S
C469 H441 0.929 . S
C469 C466 1.391 . S
C469 C468 1.392 . S
N470 Co414 2.257 . S
N470 C467 1.391 . S
N470 C471 1.388 . S
C471 H442 0.930 . S
C471 C466 1.391 . S
C471 N470 1.388 . S
Co472 O474 2.143 . S
Co472 O480 2.074 . S
Co472 O483 2.093 . S
Co472 O496 2.097 . S
Co472 N513 2.151 . S
Co472 N521 2.214 . S
Co473 O474 2.160 . S
Co473 O479 2.058 . S
Co473 O489 2.057 . S
Co473 O504 2.037 . S
Co473 N508 2.145 . S
Co473 N529 2.257 . S
O474 Co472 2.143 . S
O474 Co473 2.160 . S
C475 O476 1.278 . S
C475 O483 1.224 . S
O476 C475 1.278 . S
C477 O478 1.245 . S
C477 O489 1.232 . S
O478 C477 1.245 . S
O479 Co473 2.058 . S
O479 C505 1.269 . S
O480 Co472 2.074 . S
O480 C505 1.257 . S
H481 C506 0.930 . S
H482 C512 0.930 . S
O483 Co472 2.093 . S
O483 C475 1.224 . S
H484 C516 0.929 . S
H485 C518 0.930 . S
H486 C519 0.930 . S
H487 C517 0.929 . S
H488 C520 0.928 . S
O489 Co473 2.057 . S
O489 C477 1.232 . S
H490 C509 0.929 . S
H491 C510 0.929 . S
H492 C522 0.931 . S
H493 C514 0.929 . S
H494 C523 0.930 . S
H495 C515 0.931 . S
O496 Co472 2.097 . S
O496 C524 1.214 . S
H497 C525 0.929 . S
H498 C526 0.929 . S
H499 C527 0.930 . S
H500 C528 0.929 . S
H501 C530 0.930 . S
H502 C507 0.930 . S
H503 C511 0.930 . S
O504 Co473 2.037 . S
O504 C524 1.234 . S
C505 O479 1.269 . S
C505 O480 1.257 . S
C506 H481 0.930 . S
C506 C509 1.388 . S
C506 C511 1.418 . S
C507 H502 0.930 . S
C507 C510 1.404 . S
C507 C511 1.353 . S
N508 Co473 2.145 . S
N508 C509 1.397 . S
N508 C510 1.334 . S
C509 H490 0.929 . S
C509 C506 1.388 . S
C509 N508 1.397 . S
C510 H491 0.929 . S
C510 C507 1.404 . S
C510 N508 1.334 . S
C511 H503 0.930 . S
C511 C506 1.418 . S
C511 C507 1.353 . S
C512 H482 0.930 . S
C512 N513 1.330 . S
C512 C514 1.446 . S
N513 Co472 2.151 . S
N513 C512 1.330 . S
N513 C517 1.418 . S
C514 H493 0.929 . S
C514 C512 1.446 . S
C514 C515 1.332 . S
C515 H495 0.931 . S
C515 C514 1.332 . S
C515 C516 1.267 . S
C516 H484 0.929 . S
C516 C515 1.267 . S
C516 C517 1.251 . S
C517 H487 0.929 . S
C517 N513 1.418 . S
C517 C516 1.251 . S
C518 H485 0.930 . S
C518 C520 1.406 . S
C518 C523 1.261 . S
C519 H486 0.930 . S
C519 N521 1.325 . S
C519 C522 1.357 . S
C520 H488 0.928 . S
C520 C518 1.406 . S
C520 N521 1.261 . S
N521 Co472 2.214 . S
N521 C519 1.325 . S
N521 C520 1.261 . S
C522 H492 0.931 . S
C522 C519 1.357 . S
C522 C523 1.312 . S
C523 H494 0.930 . S
C523 C518 1.261 . S
C523 C522 1.312 . S
C524 O496 1.214 . S
C524 O504 1.234 . S
C525 H497 0.929 . S
C525 C528 1.391 . S
C525 C530 1.391 . S
C526 H498 0.929 . S
C526 C527 1.390 . S
C526 N529 1.391 . S
C527 H499 0.930 . S
C527 C526 1.390 . S
C527 C528 1.392 . S
C528 H500 0.929 . S
C528 C525 1.391 . S
C528 C527 1.392 . S
N529 Co473 2.257 . S
N529 C526 1.391 . S
N529 C530 1.388 . S
C530 H501 0.930 . S
C530 C525 1.391 . S
C530 N529 1.388 . S
Co531 O533 2.143 . S
Co531 O539 2.074 . S
Co531 O542 2.093 . S
Co531 O555 2.097 . S
Co531 N572 2.151 . S
Co531 N580 2.214 1_655 S
Co532 O533 2.160 . S
Co532 O538 2.058 . S
Co532 O548 2.057 . S
Co532 O563 2.037 . S
Co532 N567 2.145 . S
Co532 N588 2.257 . S
O533 Co531 2.143 . S
O533 Co532 2.160 . S
C534 O535 1.278 . S
C534 O542 1.224 . S
O535 C534 1.278 . S
C536 O537 1.245 . S
C536 O548 1.232 . S
O537 C536 1.245 . S
O538 Co532 2.058 . S
O538 C564 1.269 . S
O539 Co531 2.074 . S
O539 C564 1.257 . S
H540 C565 0.930 . S
H541 C571 0.930 . S
O542 Co531 2.093 . S
O542 C534 1.224 . S
H543 C575 0.929 . S
H544 C577 0.930 . S
H545 C578 0.930 . S
H546 C576 0.929 . S
H547 C579 0.928 . S
O548 Co532 2.057 . S
O548 C536 1.232 . S
H549 C568 0.929 . S
H550 C569 0.929 . S
H551 C581 0.931 . S
H552 C573 0.929 . S
H553 C582 0.930 . S
H554 C574 0.923 1_455 S
O555 Co531 2.097 . S
O555 C583 1.214 . S
H556 C584 0.929 . S
H557 C585 0.929 . S
H558 C586 0.930 . S
H559 C587 0.929 . S
H560 C589 0.930 . S
H561 C566 0.930 . S
H562 C570 0.930 . S
O563 Co532 2.037 . S
O563 C583 1.234 . S
C564 O538 1.269 . S
C564 O539 1.257 . S
C565 H540 0.930 . S
C565 C568 1.388 . S
C565 C570 1.418 . S
C566 H561 0.930 . S
C566 C569 1.404 . S
C566 C570 1.353 . S
N567 Co532 2.145 . S
N567 C568 1.397 . S
N567 C569 1.334 . S
C568 H549 0.929 . S
C568 C565 1.388 . S
C568 N567 1.397 . S
C569 H550 0.929 . S
C569 C566 1.404 . S
C569 N567 1.334 . S
C570 H562 0.930 . S
C570 C565 1.418 . S
C570 C566 1.353 . S
C571 H541 0.930 . S
C571 N572 1.330 . S
C571 C573 1.446 . S
N572 Co531 2.151 . S
N572 C571 1.330 . S
N572 C576 1.418 1_655 S
C573 H552 0.929 . S
C573 C571 1.446 . S
C573 C574 1.351 . S
C574 H554 0.923 1_655 S
C574 C573 1.351 . S
C574 C575 1.256 1_655 S
C575 H543 0.929 . S
C575 C574 1.256 1_455 S
C575 C576 1.251 . S
C576 H546 0.929 . S
C576 N572 1.418 1_455 S
C576 C575 1.251 . S
C577 H544 0.930 . S
C577 C579 1.406 . S
C577 C582 1.261 . S
C578 H545 0.930 . S
C578 N580 1.325 . S
C578 C581 1.357 . S
C579 H547 0.928 . S
C579 C577 1.406 . S
C579 N580 1.261 . S
N580 Co531 2.214 1_455 S
N580 C578 1.325 . S
N580 C579 1.261 . S
C581 H551 0.931 . S
C581 C578 1.357 . S
C581 C582 1.312 . S
C582 H553 0.930 . S
C582 C577 1.261 . S
C582 C581 1.312 . S
C583 O555 1.214 . S
C583 O563 1.234 . S
C584 H556 0.929 . S
C584 C587 1.391 . S
C584 C589 1.391 . S
C585 H557 0.929 . S
C585 C586 1.390 . S
C585 N588 1.391 . S
C586 H558 0.930 . S
C586 C585 1.390 . S
C586 C587 1.392 . S
C587 H559 0.929 . S
C587 C584 1.391 . S
C587 C586 1.392 . S
N588 Co532 2.257 . S
N588 C585 1.391 . S
N588 C589 1.388 . S
C589 H560 0.930 . S
C589 C584 1.391 . S
C589 N588 1.388 . S
Co590 O592 2.143 . S
Co590 O598 2.074 . S
Co590 O601 2.093 . S
Co590 O614 2.097 . S
Co590 N631 2.151 . S
Co590 N639 2.214 1_455 S
Co591 O592 2.160 . S
Co591 O597 2.058 . S
Co591 O607 2.057 . S
Co591 O622 2.037 . S
Co591 N626 2.145 . S
Co591 N647 2.257 . S
O592 Co590 2.143 . S
O592 Co591 2.160 . S
C593 O594 1.278 . S
C593 O601 1.224 . S
O594 C593 1.278 . S
C595 O596 1.245 . S
C595 O607 1.232 . S
O596 C595 1.245 . S
O597 Co591 2.058 . S
O597 C623 1.269 . S
O598 Co590 2.074 . S
O598 C623 1.257 . S
H599 C624 0.930 . S
H600 C630 0.930 . S
O601 Co590 2.093 . S
O601 C593 1.224 . S
H602 C634 0.929 . S
H603 C636 0.930 . S
H604 C637 0.930 . S
H605 C635 0.929 . S
H606 C638 0.928 . S
O607 Co591 2.057 . S
O607 C595 1.232 . S
H608 C627 0.929 . S
H609 C628 0.929 . S
H610 C640 0.931 . S
H611 C632 0.929 . S
H612 C641 0.930 . S
H613 C633 0.923 1_655 S
O614 Co590 2.097 . S
O614 C642 1.214 . S
H615 C643 0.929 . S
H616 C644 0.929 . S
H617 C645 0.930 . S
H618 C646 0.929 . S
H619 C648 0.930 . S
H620 C625 0.930 . S
H621 C629 0.930 . S
O622 Co591 2.037 . S
O622 C642 1.234 . S
C623 O597 1.269 . S
C623 O598 1.257 . S
C624 H599 0.930 . S
C624 C627 1.388 . S
C624 C629 1.418 . S
C625 H620 0.930 . S
C625 C628 1.404 . S
C625 C629 1.353 . S
N626 Co591 2.145 . S
N626 C627 1.397 . S
N626 C628 1.334 . S
C627 H608 0.929 . S
C627 C624 1.388 . S
C627 N626 1.397 . S
C628 H609 0.929 . S
C628 C625 1.404 . S
C628 N626 1.334 . S
C629 H621 0.930 . S
C629 C624 1.418 . S
C629 C625 1.353 . S
C630 H600 0.930 . S
C630 N631 1.330 . S
C630 C632 1.446 . S
N631 Co590 2.151 . S
N631 C630 1.330 . S
N631 C635 1.418 1_455 S
C632 H611 0.929 . S
C632 C630 1.446 . S
C632 C633 1.351 . S
C633 H613 0.923 1_455 S
C633 C632 1.351 . S
C633 C634 1.256 1_455 S
C634 H602 0.929 . S
C634 C633 1.256 1_655 S
C634 C635 1.251 . S
C635 H605 0.929 . S
C635 N631 1.418 1_655 S
C635 C634 1.251 . S
C636 H603 0.930 . S
C636 C638 1.406 . S
C636 C641 1.261 . S
C637 H604 0.930 . S
C637 N639 1.325 . S
C637 C640 1.357 . S
C638 H606 0.928 . S
C638 C636 1.406 . S
C638 N639 1.261 . S
N639 Co590 2.214 1_655 S
N639 C637 1.325 . S
N639 C638 1.261 . S
C640 H610 0.931 . S
C640 C637 1.357 . S
C640 C641 1.312 . S
C641 H612 0.930 . S
C641 C636 1.261 . S
C641 C640 1.312 . S
C642 O614 1.214 . S
C642 O622 1.234 . S
C643 H615 0.929 . S
C643 C646 1.391 . S
C643 C648 1.391 . S
C644 H616 0.929 . S
C644 C645 1.390 . S
C644 N647 1.391 . S
C645 H617 0.930 . S
C645 C644 1.390 . S
C645 C646 1.392 . S
C646 H618 0.929 . S
C646 C643 1.391 . S
C646 C645 1.392 . S
N647 Co591 2.257 . S
N647 C644 1.391 . S
N647 C648 1.388 . S
C648 H619 0.930 . S
C648 C643 1.391 . S
C648 N647 1.388 . S
Co649 O651 2.143 . S
Co649 O657 2.074 . S
Co649 O660 2.093 . S
Co649 O673 2.097 . S
Co649 N690 2.151 . S
Co649 N698 2.214 . S
Co650 O651 2.160 . S
Co650 O656 2.058 . S
Co650 O666 2.057 . S
Co650 O681 2.037 . S
Co650 N685 2.145 . S
Co650 N706 2.257 . S
O651 Co649 2.143 . S
O651 Co650 2.160 . S
C652 O653 1.278 . S
C652 O660 1.224 . S
O653 C652 1.278 . S
C654 O655 1.245 . S
C654 O666 1.232 . S
O655 C654 1.245 . S
O656 Co650 2.058 . S
O656 C682 1.269 . S
O657 Co649 2.074 . S
O657 C682 1.257 . S
H658 C683 0.930 . S
H659 C689 0.930 . S
O660 Co649 2.093 . S
O660 C652 1.224 . S
H661 C693 0.929 . S
H662 C695 0.930 . S
H663 C696 0.930 . S
H664 C694 0.929 . S
H665 C697 0.928 . S
O666 Co650 2.057 . S
O666 C654 1.232 . S
H667 C686 0.929 . S
H668 C687 0.929 . S
H669 C699 0.931 . S
H670 C691 0.929 . S
H671 C700 0.930 . S
H672 C692 0.931 . S
O673 Co649 2.097 . S
O673 C701 1.214 . S
H674 C702 0.929 . S
H675 C703 0.929 . S
H676 C704 0.930 . S
H677 C705 0.929 . S
H678 C707 0.930 . S
H679 C684 0.930 . S
H680 C688 0.930 . S
O681 Co650 2.037 . S
O681 C701 1.234 . S
C682 O656 1.269 . S
C682 O657 1.257 . S
C683 H658 0.930 . S
C683 C686 1.388 . S
C683 C688 1.418 . S
C684 H679 0.930 . S
C684 C687 1.404 . S
C684 C688 1.353 . S
N685 Co650 2.145 . S
N685 C686 1.397 . S
N685 C687 1.334 . S
C686 H667 0.929 . S
C686 C683 1.388 . S
C686 N685 1.397 . S
C687 H668 0.929 . S
C687 C684 1.404 . S
C687 N685 1.334 . S
C688 H680 0.930 . S
C688 C683 1.418 . S
C688 C684 1.353 . S
C689 H659 0.930 . S
C689 N690 1.330 . S
C689 C691 1.446 . S
N690 Co649 2.151 . S
N690 C689 1.330 . S
N690 C694 1.418 . S
C691 H670 0.929 . S
C691 C689 1.446 . S
C691 C692 1.332 . S
C692 H672 0.931 . S
C692 C691 1.332 . S
C692 C693 1.267 . S
C693 H661 0.929 . S
C693 C692 1.267 . S
C693 C694 1.251 . S
C694 H664 0.929 . S
C694 N690 1.418 . S
C694 C693 1.251 . S
C695 H662 0.930 . S
C695 C697 1.406 . S
C695 C700 1.261 . S
C696 H663 0.930 . S
C696 N698 1.325 . S
C696 C699 1.357 . S
C697 H665 0.928 . S
C697 C695 1.406 . S
C697 N698 1.261 . S
N698 Co649 2.214 . S
N698 C696 1.325 . S
N698 C697 1.261 . S
C699 H669 0.931 . S
C699 C696 1.357 . S
C699 C700 1.312 . S
C700 H671 0.930 . S
C700 C695 1.261 . S
C700 C699 1.312 . S
C701 O673 1.214 . S
C701 O681 1.234 . S
C702 H674 0.929 . S
C702 C705 1.391 . S
C702 C707 1.391 . S
C703 H675 0.929 . S
C703 C704 1.390 . S
C703 N706 1.391 . S
C704 H676 0.930 . S
C704 C703 1.390 . S
C704 C705 1.392 . S
C705 H677 0.929 . S
C705 C702 1.391 . S
C705 C704 1.392 . S
N706 Co650 2.257 . S
N706 C703 1.391 . S
N706 C707 1.388 . S
C707 H678 0.930 . S
C707 C702 1.391 . S
C707 N706 1.388 . S
Co708 O710 2.143 . S
Co708 O716 2.074 . S
Co708 O719 2.093 . S
Co708 O732 2.097 . S
Co708 N749 2.151 . S
Co708 N757 2.214 . S
Co709 O710 2.160 . S
Co709 O715 2.058 . S
Co709 O725 2.057 . S
Co709 O740 2.037 . S
Co709 N744 2.145 . S
Co709 N765 2.257 . S
O710 Co708 2.143 . S
O710 Co709 2.160 . S
C711 O712 1.278 . S
C711 O719 1.224 . S
O712 C711 1.278 . S
C713 O714 1.245 . S
C713 O725 1.232 . S
O714 C713 1.245 . S
O715 Co709 2.058 . S
O715 C741 1.269 . S
O716 Co708 2.074 . S
O716 C741 1.257 . S
H717 C742 0.930 . S
H718 C748 0.930 . S
O719 Co708 2.093 . S
O719 C711 1.224 . S
H720 C752 0.929 . S
H721 C754 0.930 . S
H722 C755 0.930 . S
H723 C753 0.929 . S
H724 C756 0.928 . S
O725 Co709 2.057 . S
O725 C713 1.232 . S
H726 C745 0.929 . S
H727 C746 0.929 . S
H728 C758 0.931 . S
H729 C750 0.929 . S
H730 C759 0.930 . S
H731 C751 0.931 . S
O732 Co708 2.097 . S
O732 C760 1.214 . S
H733 C761 0.929 . S
H734 C762 0.929 . S
H735 C763 0.930 . S
H736 C764 0.929 . S
H737 C766 0.930 . S
H738 C743 0.930 . S
H739 C747 0.930 . S
O740 Co709 2.037 . S
O740 C760 1.234 . S
C741 O715 1.269 . S
C741 O716 1.257 . S
C742 H717 0.930 . S
C742 C745 1.388 . S
C742 C747 1.418 . S
C743 H738 0.930 . S
C743 C746 1.404 . S
C743 C747 1.353 . S
N744 Co709 2.145 . S
N744 C745 1.397 . S
N744 C746 1.334 . S
C745 H726 0.929 . S
C745 C742 1.388 . S
C745 N744 1.397 . S
C746 H727 0.929 . S
C746 C743 1.404 . S
C746 N744 1.334 . S
C747 H739 0.930 . S
C747 C742 1.418 . S
C747 C743 1.353 . S
C748 H718 0.930 . S
C748 N749 1.330 . S
C748 C750 1.446 . S
N749 Co708 2.151 . S
N749 C748 1.330 . S
N749 C753 1.418 . S
C750 H729 0.929 . S
C750 C748 1.446 . S
C750 C751 1.332 . S
C751 H731 0.931 . S
C751 C750 1.332 . S
C751 C752 1.267 . S
C752 H720 0.929 . S
C752 C751 1.267 . S
C752 C753 1.251 . S
C753 H723 0.929 . S
C753 N749 1.418 . S
C753 C752 1.251 . S
C754 H721 0.930 . S
C754 C756 1.406 . S
C754 C759 1.261 . S
C755 H722 0.930 . S
C755 N757 1.325 . S
C755 C758 1.357 . S
C756 H724 0.928 . S
C756 C754 1.406 . S
C756 N757 1.261 . S
N757 Co708 2.214 . S
N757 C755 1.325 . S
N757 C756 1.261 . S
C758 H728 0.931 . S
C758 C755 1.357 . S
C758 C759 1.312 . S
C759 H730 0.930 . S
C759 C754 1.261 . S
C759 C758 1.312 . S
C760 O732 1.214 . S
C760 O740 1.234 . S
C761 H733 0.929 . S
C761 C764 1.391 . S
C761 C766 1.391 . S
C762 H734 0.929 . S
C762 C763 1.390 . S
C762 N765 1.391 . S
C763 H735 0.930 . S
C763 C762 1.390 . S
C763 C764 1.392 . S
C764 H736 0.929 . S
C764 C761 1.391 . S
C764 C763 1.392 . S
N765 Co709 2.257 . S
N765 C762 1.391 . S
N765 C766 1.388 . S
C766 H737 0.930 . S
C766 C761 1.391 . S
C766 N765 1.388 . S
Co767 O769 2.143 . S
Co767 O775 2.074 . S
Co767 O778 2.093 . S
Co767 O791 2.097 . S
Co767 N808 2.151 . S
Co767 N816 2.214 1_455 S
Co768 O769 2.160 . S
Co768 O774 2.058 . S
Co768 O784 2.057 . S
Co768 O799 2.037 . S
Co768 N803 2.145 . S
Co768 N824 2.257 . S
O769 Co767 2.143 . S
O769 Co768 2.160 . S
C770 O771 1.278 . S
C770 O778 1.224 . S
O771 C770 1.278 . S
C772 O773 1.245 . S
C772 O784 1.232 . S
O773 C772 1.245 . S
O774 Co768 2.058 . S
O774 C800 1.269 . S
O775 Co767 2.074 . S
O775 C800 1.257 . S
H776 C801 0.930 . S
H777 C807 0.930 . S
O778 Co767 2.093 . S
O778 C770 1.224 . S
H779 C811 0.929 . S
H780 C813 0.930 . S
H781 C814 0.930 . S
H782 C812 0.929 . S
H783 C815 0.928 . S
O784 Co768 2.057 . S
O784 C772 1.232 . S
H785 C804 0.929 . S
H786 C805 0.929 . S
H787 C817 0.931 . S
H788 C809 0.929 . S
H789 C818 0.930 . S
H790 C810 0.923 1_655 S
O791 Co767 2.097 . S
O791 C819 1.214 . S
H792 C820 0.929 . S
H793 C821 0.929 . S
H794 C822 0.930 . S
H795 C823 0.929 . S
H796 C825 0.930 . S
H797 C802 0.930 . S
H798 C806 0.930 . S
O799 Co768 2.037 . S
O799 C819 1.234 . S
C800 O774 1.269 . S
C800 O775 1.257 . S
C801 H776 0.930 . S
C801 C804 1.388 . S
C801 C806 1.418 . S
C802 H797 0.930 . S
C802 C805 1.404 . S
C802 C806 1.353 . S
N803 Co768 2.145 . S
N803 C804 1.397 . S
N803 C805 1.334 . S
C804 H785 0.929 . S
C804 C801 1.388 . S
C804 N803 1.397 . S
C805 H786 0.929 . S
C805 C802 1.404 . S
C805 N803 1.334 . S
C806 H798 0.930 . S
C806 C801 1.418 . S
C806 C802 1.353 . S
C807 H777 0.930 . S
C807 N808 1.330 . S
C807 C809 1.446 . S
N808 Co767 2.151 . S
N808 C807 1.330 . S
N808 C812 1.418 1_455 S
C809 H788 0.929 . S
C809 C807 1.446 . S
C809 C810 1.351 . S
C810 H790 0.923 1_455 S
C810 C809 1.351 . S
C810 C811 1.256 1_455 S
C811 H779 0.929 . S
C811 C810 1.256 1_655 S
C811 C812 1.251 . S
C812 H782 0.929 . S
C812 N808 1.418 1_655 S
C812 C811 1.251 . S
C813 H780 0.930 . S
C813 C815 1.406 . S
C813 C818 1.261 . S
C814 H781 0.930 . S
C814 N816 1.325 . S
C814 C817 1.357 . S
C815 H783 0.928 . S
C815 C813 1.406 . S
C815 N816 1.261 . S
N816 Co767 2.214 1_655 S
N816 C814 1.325 . S
N816 C815 1.261 . S
C817 H787 0.931 . S
C817 C814 1.357 . S
C817 C818 1.312 . S
C818 H789 0.930 . S
C818 C813 1.261 . S
C818 C817 1.312 . S
C819 O791 1.214 . S
C819 O799 1.234 . S
C820 H792 0.929 . S
C820 C823 1.391 . S
C820 C825 1.391 . S
C821 H793 0.929 . S
C821 C822 1.390 . S
C821 N824 1.391 . S
C822 H794 0.930 . S
C822 C821 1.390 . S
C822 C823 1.392 . S
C823 H795 0.929 . S
C823 C820 1.391 . S
C823 C822 1.392 . S
N824 Co768 2.257 . S
N824 C821 1.391 . S
N824 C825 1.388 . S
C825 H796 0.930 . S
C825 C820 1.391 . S
C825 N824 1.388 . S
Co826 O828 2.143 . S
Co826 O834 2.074 . S
Co826 O837 2.093 . S
Co826 O850 2.097 . S
Co826 N867 2.151 . S
Co826 N875 2.214 1_655 S
Co827 O828 2.160 . S
Co827 O833 2.058 . S
Co827 O843 2.057 . S
Co827 O858 2.037 . S
Co827 N862 2.145 . S
Co827 N883 2.257 . S
O828 Co826 2.143 . S
O828 Co827 2.160 . S
C829 O830 1.278 . S
C829 O837 1.224 . S
O830 C829 1.278 . S
C831 O832 1.245 . S
C831 O843 1.232 . S
O832 C831 1.245 . S
O833 Co827 2.058 . S
O833 C859 1.269 . S
O834 Co826 2.074 . S
O834 C859 1.257 . S
H835 C860 0.930 . S
H836 C866 0.930 . S
O837 Co826 2.093 . S
O837 C829 1.224 . S
H838 C870 0.929 . S
H839 C872 0.930 . S
H840 C873 0.930 . S
H841 C871 0.929 . S
H842 C874 0.928 . S
O843 Co827 2.057 . S
O843 C831 1.232 . S
H844 C863 0.929 . S
H845 C864 0.929 . S
H846 C876 0.931 . S
H847 C868 0.929 . S
H848 C877 0.930 . S
H849 C869 0.923 1_455 S
O850 Co826 2.097 . S
O850 C878 1.214 . S
H851 C879 0.929 . S
H852 C880 0.929 . S
H853 C881 0.930 . S
H854 C882 0.929 . S
H855 C884 0.930 . S
H856 C861 0.930 . S
H857 C865 0.930 . S
O858 Co827 2.037 . S
O858 C878 1.234 . S
C859 O833 1.269 . S
C859 O834 1.257 . S
C860 H835 0.930 . S
C860 C863 1.388 . S
C860 C865 1.418 . S
C861 H856 0.930 . S
C861 C864 1.404 . S
C861 C865 1.353 . S
N862 Co827 2.145 . S
N862 C863 1.397 . S
N862 C864 1.334 . S
C863 H844 0.929 . S
C863 C860 1.388 . S
C863 N862 1.397 . S
C864 H845 0.929 . S
C864 C861 1.404 . S
C864 N862 1.334 . S
C865 H857 0.930 . S
C865 C860 1.418 . S
C865 C861 1.353 . S
C866 H836 0.930 . S
C866 N867 1.330 . S
C866 C868 1.446 . S
N867 Co826 2.151 . S
N867 C866 1.330 . S
N867 C871 1.418 1_655 S
C868 H847 0.929 . S
C868 C866 1.446 . S
C868 C869 1.351 . S
C869 H849 0.923 1_655 S
C869 C868 1.351 . S
C869 C870 1.256 1_655 S
C870 H838 0.929 . S
C870 C869 1.256 1_455 S
C870 C871 1.251 . S
C871 H841 0.929 . S
C871 N867 1.418 1_455 S
C871 C870 1.251 . S
C872 H839 0.930 . S
C872 C874 1.406 . S
C872 C877 1.261 . S
C873 H840 0.930 . S
C873 N875 1.325 . S
C873 C876 1.357 . S
C874 H842 0.928 . S
C874 C872 1.406 . S
C874 N875 1.261 . S
N875 Co826 2.214 1_455 S
N875 C873 1.325 . S
N875 C874 1.261 . S
C876 H846 0.931 . S
C876 C873 1.357 . S
C876 C877 1.312 . S
C877 H848 0.930 . S
C877 C872 1.261 . S
C877 C876 1.312 . S
C878 O850 1.214 . S
C878 O858 1.234 . S
C879 H851 0.929 . S
C879 C882 1.391 . S
C879 C884 1.391 . S
C880 H852 0.929 . S
C880 C881 1.390 . S
C880 N883 1.391 . S
C881 H853 0.930 . S
C881 C880 1.390 . S
C881 C882 1.392 . S
C882 H854 0.929 . S
C882 C879 1.391 . S
C882 C881 1.392 . S
N883 Co827 2.257 . S
N883 C880 1.391 . S
N883 C884 1.388 . S
C884 H855 0.930 . S
C884 C879 1.391 . S
C884 N883 1.388 . S
Co885 O887 2.143 . S
Co885 O893 2.074 . S
Co885 O896 2.093 . S
Co885 O909 2.097 . S
Co885 N926 2.151 . S
Co885 N934 2.214 . S
Co886 O887 2.160 . S
Co886 O892 2.058 . S
Co886 O902 2.057 . S
Co886 O917 2.037 . S
Co886 N921 2.145 . S
Co886 N942 2.257 . S
O887 Co885 2.143 . S
O887 Co886 2.160 . S
C888 O889 1.278 . S
C888 O896 1.224 . S
O889 C888 1.278 . S
C890 O891 1.245 . S
C890 O902 1.232 . S
O891 C890 1.245 . S
O892 Co886 2.058 . S
O892 C918 1.269 . S
O893 Co885 2.074 . S
O893 C918 1.257 . S
H894 C919 0.930 . S
H895 C925 0.930 . S
O896 Co885 2.093 . S
O896 C888 1.224 . S
H897 C929 0.929 . S
H898 C931 0.930 . S
H899 C932 0.930 . S
H900 C930 0.929 . S
H901 C933 0.928 . S
O902 Co886 2.057 . S
O902 C890 1.232 . S
H903 C922 0.929 . S
H904 C923 0.929 . S
H905 C935 0.931 . S
H906 C927 0.929 . S
H907 C936 0.930 . S
H908 C928 0.931 . S
O909 Co885 2.097 . S
O909 C937 1.214 . S
H910 C938 0.929 . S
H911 C939 0.929 . S
H912 C940 0.930 . S
H913 C941 0.929 . S
H914 C943 0.930 . S
H915 C920 0.930 . S
H916 C924 0.930 . S
O917 Co886 2.037 . S
O917 C937 1.234 . S
C918 O892 1.269 . S
C918 O893 1.257 . S
C919 H894 0.930 . S
C919 C922 1.388 . S
C919 C924 1.418 . S
C920 H915 0.930 . S
C920 C923 1.404 . S
C920 C924 1.353 . S
N921 Co886 2.145 . S
N921 C922 1.397 . S
N921 C923 1.334 . S
C922 H903 0.929 . S
C922 C919 1.388 . S
C922 N921 1.397 . S
C923 H904 0.929 . S
C923 C920 1.404 . S
C923 N921 1.334 . S
C924 H916 0.930 . S
C924 C919 1.418 . S
C924 C920 1.353 . S
C925 H895 0.930 . S
C925 N926 1.330 . S
C925 C927 1.446 . S
N926 Co885 2.151 . S
N926 C925 1.330 . S
N926 C930 1.418 . S
C927 H906 0.929 . S
C927 C925 1.446 . S
C927 C928 1.332 . S
C928 H908 0.931 . S
C928 C927 1.332 . S
C928 C929 1.267 . S
C929 H897 0.929 . S
C929 C928 1.267 . S
C929 C930 1.251 . S
C930 H900 0.929 . S
C930 N926 1.418 . S
C930 C929 1.251 . S
C931 H898 0.930 . S
C931 C933 1.406 . S
C931 C936 1.261 . S
C932 H899 0.930 . S
C932 N934 1.325 . S
C932 C935 1.357 . S
C933 H901 0.928 . S
C933 C931 1.406 . S
C933 N934 1.261 . S
N934 Co885 2.214 . S
N934 C932 1.325 . S
N934 C933 1.261 . S
C935 H905 0.931 . S
C935 C932 1.357 . S
C935 C936 1.312 . S
C936 H907 0.930 . S
C936 C931 1.261 . S
C936 C935 1.312 . S
C937 O909 1.214 . S
C937 O917 1.234 . S
C938 H910 0.929 . S
C938 C941 1.391 . S
C938 C943 1.391 . S
C939 H911 0.929 . S
C939 C940 1.390 . S
C939 N942 1.391 . S
C940 H912 0.930 . S
C940 C939 1.390 . S
C940 C941 1.392 . S
C941 H913 0.929 . S
C941 C938 1.391 . S
C941 C940 1.392 . S
N942 Co886 2.257 . S
N942 C939 1.391 . S
N942 C943 1.388 . S
C943 H914 0.930 . S
C943 C938 1.391 . S
C943 N942 1.388 . S
H944 C952 0.955 . S
H945 C957 0.950 . S
H946 C954 0.950 . S
H947 C956 0.950 . S
H948 C958 0.955 . S
H949 C960 0.950 . S
H950 C962 0.950 . S
H951 C963 0.950 . S
C952 H944 0.955 . S
C952 C953 1.386 . S
C952 C954 1.391 1_565 S
C953 C952 1.386 . S
C953 C957 1.393 . S
C954 H946 0.950 . S
C954 C952 1.391 1_545 S
C954 C955 1.400 1_545 S
C955 C954 1.400 1_565 S
C955 C956 1.398 . S
C955 C961 1.491 1_565 S
C956 H947 0.950 . S
C956 C955 1.398 . S
C956 C957 1.391 . S
C957 H945 0.950 . S
C957 C953 1.393 . S
C957 C956 1.391 . S
C958 H948 0.955 . S
C958 C959 1.386 . S
C958 C960 1.391 1_545 S
C959 C958 1.386 . S
C959 C963 1.393 . S
C960 H949 0.950 . S
C960 C958 1.391 1_565 S
C960 C961 1.400 1_565 S
C961 C955 1.491 1_545 S
C961 C960 1.400 1_545 S
C961 C962 1.398 . S
C962 H950 0.950 . S
C962 C961 1.398 . S
C962 C963 1.391 . S
C963 H951 0.950 . S
C963 C959 1.393 . S
C963 C962 1.391 . S
H964 C972 0.950 . S
H965 C977 0.950 . S
H966 C974 0.950 . S
H967 C976 0.950 . S
H968 C978 0.950 . S
H969 C980 0.950 . S
H970 C982 0.950 . S
H971 C983 0.950 . S
C972 H964 0.950 . S
C972 C973 1.386 1_545 S
C972 C974 1.391 . S
C973 C972 1.386 1_565 S
C973 C977 1.393 . S
C974 H966 0.950 . S
C974 C972 1.391 . S
C974 C975 1.400 1_545 S
C975 C974 1.400 1_565 S
C975 C976 1.398 . S
C975 C981 1.491 1_565 S
C976 H967 0.950 . S
C976 C975 1.398 . S
C976 C977 1.391 . S
C977 H965 0.950 . S
C977 C973 1.393 . S
C977 C976 1.391 . S
C978 H968 0.950 . S
C978 C979 1.386 1_565 S
C978 C980 1.391 . S
C979 C978 1.386 1_545 S
C979 C983 1.393 . S
C980 H969 0.950 . S
C980 C978 1.391 . S
C980 C981 1.400 1_565 S
C981 C975 1.491 1_545 S
C981 C980 1.400 1_545 S
C981 C982 1.398 . S
C982 H970 0.950 . S
C982 C981 1.398 . S
C982 C983 1.391 . S
C983 H971 0.950 . S
C983 C979 1.393 . S
C983 C982 1.391 . S
H984 C992 0.950 . S
H985 C997 0.950 . S
H986 C994 0.950 . S
H987 C996 0.950 1_545 S
H988 C998 0.950 . S
H989 C1000 0.950 . S
H990 C1002 0.950 1_565 S
H991 C1003 0.950 . S
C992 H984 0.950 . S
C992 C993 1.386 . S
C992 C994 1.391 . S
C993 C992 1.386 . S
C993 C997 1.393 . S
C994 H986 0.950 . S
C994 C992 1.391 . S
C994 C995 1.400 . S
C995 C994 1.400 . S
C995 C996 1.398 . S
C995 C1001 1.491 1_565 S
C996 H987 0.950 1_565 S
C996 C995 1.398 . S
C996 C997 1.391 . S
C997 H985 0.950 . S
C997 C993 1.393 . S
C997 C996 1.391 . S
C998 H988 0.950 . S
C998 C999 1.386 . S
C998 C1000 1.391 . S
C999 C998 1.386 . S
C999 C1003 1.393 . S
C1000 H989 0.950 . S
C1000 C998 1.391 . S
C1000 C1001 1.400 . S
C1001 C995 1.491 1_545 S
C1001 C1000 1.400 . S
C1001 C1002 1.398 . S
C1002 H990 0.950 1_545 S
C1002 C1001 1.398 . S
C1002 C1003 1.391 . S
C1003 H991 0.950 . S
C1003 C999 1.393 . S
C1003 C1002 1.391 . S
H1004 C1012 0.950 . S
H1005 C1017 0.950 . S
H1006 C1014 0.950 . S
H1007 C1016 0.950 . S
H1008 C1018 0.950 . S
H1009 C1020 0.950 . S
H1010 C1022 0.950 . S
H1011 C1023 0.950 . S
C1012 H1004 0.950 . S
C1012 C1013 1.386 . S
C1012 C1014 1.391 . S
C1013 C1012 1.386 . S
C1013 C1017 1.393 1_565 S
C1014 H1006 0.950 . S
C1014 C1012 1.391 . S
C1014 C1015 1.400 . S
C1015 C1014 1.400 . S
C1015 C1016 1.398 1_565 S
C1015 C1021 1.491 1_565 S
C1016 H1007 0.950 . S
C1016 C1015 1.398 1_545 S
C1016 C1017 1.391 . S
C1017 H1005 0.950 . S
C1017 C1013 1.393 1_545 S
C1017 C1016 1.391 . S
C1018 H1008 0.950 . S
C1018 C1019 1.386 . S
C1018 C1020 1.391 . S
C1019 C1018 1.386 . S
C1019 C1023 1.393 1_545 S
C1020 H1009 0.950 . S
C1020 C1018 1.391 . S
C1020 C1021 1.400 . S
C1021 C1015 1.491 1_545 S
C1021 C1020 1.400 . S
C1021 C1022 1.398 1_545 S
C1022 H1010 0.950 . S
C1022 C1021 1.398 1_565 S
C1022 C1023 1.391 . S
C1023 H1011 0.950 . S
C1023 C1019 1.393 1_565 S
C1023 C1022 1.391 . S
H1024 C1032 0.950 . S
H1025 C1037 0.950 . S
H1026 C1034 0.950 . S
H1027 C1036 0.950 . S
H1028 C1038 0.950 . S
H1029 C1040 0.950 . S
H1030 C1042 0.950 . S
H1031 C1043 0.950 . S
C1032 H1024 0.950 . S
C1032 C1033 1.386 . S
C1032 C1034 1.391 . S
C1033 C1032 1.386 . S
C1033 C1037 1.393 . S
C1034 H1026 0.950 . S
C1034 C1032 1.391 . S
C1034 C1035 1.400 . S
C1035 C1034 1.400 . S
C1035 C1036 1.398 . S
C1035 C1041 1.491 . S
C1036 H1027 0.950 . S
C1036 C1035 1.398 . S
C1036 C1037 1.391 . S
C1037 H1025 0.950 . S
C1037 C1033 1.393 . S
C1037 C1036 1.391 . S
C1038 H1028 0.950 . S
C1038 C1039 1.386 . S
C1038 C1040 1.391 . S
C1039 C1038 1.386 . S
C1039 C1043 1.393 . S
C1040 H1029 0.950 . S
C1040 C1038 1.391 . S
C1040 C1041 1.400 . S
C1041 C1035 1.491 . S
C1041 C1040 1.400 . S
C1041 C1042 1.398 . S
C1042 H1030 0.950 . S
C1042 C1041 1.398 . S
C1042 C1043 1.391 . S
C1043 H1031 0.950 . S
C1043 C1039 1.393 . S
C1043 C1042 1.391 . S
H1044 C1052 0.950 . S
H1045 C1057 0.950 . S
H1046 C1054 0.950 . S
H1047 C1056 0.950 . S
H1048 C1058 0.950 . S
H1049 C1060 0.950 . S
H1050 C1062 0.950 . S
H1051 C1063 0.950 . S
C1052 H1044 0.950 . S
C1052 C1053 1.386 . S
C1052 C1054 1.391 . S
C1053 C1052 1.386 . S
C1053 C1057 1.393 . S
C1054 H1046 0.950 . S
C1054 C1052 1.391 . S
C1054 C1055 1.400 . S
C1055 C1054 1.400 . S
C1055 C1056 1.398 . S
C1055 C1061 1.491 . S
C1056 H1047 0.950 . S
C1056 C1055 1.398 . S
C1056 C1057 1.391 . S
C1057 H1045 0.950 . S
C1057 C1053 1.393 . S
C1057 C1056 1.391 . S
C1058 H1048 0.950 . S
C1058 C1059 1.386 . S
C1058 C1060 1.391 . S
C1059 C1058 1.386 . S
C1059 C1063 1.393 . S
C1060 H1049 0.950 . S
C1060 C1058 1.391 . S
C1060 C1061 1.400 . S
C1061 C1055 1.491 . S
C1061 C1060 1.400 . S
C1061 C1062 1.398 . S
C1062 H1050 0.950 . S
C1062 C1061 1.398 . S
C1062 C1063 1.391 . S
C1063 H1051 0.950 . S
C1063 C1059 1.393 . S
C1063 C1062 1.391 . S
H1064 C1072 0.950 . S
H1065 C1077 0.950 . S
H1066 C1074 0.950 . S
H1067 C1076 0.950 . S
H1068 C1078 0.950 . S
H1069 C1080 0.950 . S
H1070 C1082 0.950 . S
H1071 C1083 0.950 . S
C1072 H1064 0.950 . S
C1072 C1073 1.386 . S
C1072 C1074 1.391 . S
C1073 C1072 1.386 . S
C1073 C1077 1.393 . S
C1074 H1066 0.950 . S
C1074 C1072 1.391 . S
C1074 C1075 1.400 . S
C1075 C1074 1.400 . S
C1075 C1076 1.398 . S
C1075 C1081 1.491 . S
C1076 H1067 0.950 . S
C1076 C1075 1.398 . S
C1076 C1077 1.391 . S
C1077 H1065 0.950 . S
C1077 C1073 1.393 . S
C1077 C1076 1.391 . S
C1078 H1068 0.950 . S
C1078 C1079 1.386 . S
C1078 C1080 1.391 . S
C1079 C1078 1.386 . S
C1079 C1083 1.393 . S
C1080 H1069 0.950 . S
C1080 C1078 1.391 . S
C1080 C1081 1.400 . S
C1081 C1075 1.491 . S
C1081 C1080 1.400 . S
C1081 C1082 1.398 . S
C1082 H1070 0.950 . S
C1082 C1081 1.398 . S
C1082 C1083 1.391 . S
C1083 H1071 0.950 . S
C1083 C1079 1.393 . S
C1083 C1082 1.391 . S
H1084 C1092 0.950 . S
H1085 C1097 0.950 . S
H1086 C1094 0.950 . S
H1087 C1096 0.950 . S
H1088 C1098 0.950 . S
H1089 C1100 0.950 . S
H1090 C1102 0.950 . S
H1091 C1103 0.950 . S
C1092 H1084 0.950 . S
C1092 C1093 1.386 . S
C1092 C1094 1.391 . S
C1093 C1092 1.386 . S
C1093 C1097 1.393 . S
C1094 H1086 0.950 . S
C1094 C1092 1.391 . S
C1094 C1095 1.400 . S
C1095 C1094 1.400 . S
C1095 C1096 1.398 . S
C1095 C1101 1.491 . S
C1096 H1087 0.950 . S
C1096 C1095 1.398 . S
C1096 C1097 1.391 . S
C1097 H1085 0.950 . S
C1097 C1093 1.393 . S
C1097 C1096 1.391 . S
C1098 H1088 0.950 . S
C1098 C1099 1.386 . S
C1098 C1100 1.391 . S
C1099 C1098 1.386 . S
C1099 C1103 1.393 . S
C1100 H1089 0.950 . S
C1100 C1098 1.391 . S
C1100 C1101 1.400 . S
C1101 C1095 1.491 . S
C1101 C1100 1.400 . S
C1101 C1102 1.398 . S
C1102 H1090 0.950 . S
C1102 C1101 1.398 . S
C1102 C1103 1.391 . S
C1103 H1091 0.950 . S
C1103 C1099 1.393 . S
C1103 C1102 1.391 . S
H1104 C1112 0.950 . S
H1105 C1117 0.950 . S
H1106 C1114 0.950 . S
H1107 C1116 0.950 . S
H1108 C1118 0.950 . S
H1109 C1120 0.950 . S
H1110 C1122 0.950 . S
H1111 C1123 0.950 . S
C1112 H1104 0.950 . S
C1112 C1113 1.386 . S
C1112 C1114 1.391 . S
C1113 C1112 1.386 . S
C1113 C1117 1.393 . S
C1114 H1106 0.950 . S
C1114 C1112 1.391 . S
C1114 C1115 1.400 . S
C1115 C1114 1.400 . S
C1115 C1116 1.398 . S
C1115 C1121 1.491 1_655 S
C1116 H1107 0.950 . S
C1116 C1115 1.398 . S
C1116 C1117 1.391 . S
C1117 H1105 0.950 . S
C1117 C1113 1.393 . S
C1117 C1116 1.391 . S
C1118 H1108 0.950 . S
C1118 C1119 1.386 . S
C1118 C1120 1.391 . S
C1119 C1118 1.386 . S
C1119 C1123 1.393 . S
C1120 H1109 0.950 . S
C1120 C1118 1.391 . S
C1120 C1121 1.400 . S
C1121 C1115 1.491 1_455 S
C1121 C1120 1.400 . S
C1121 C1122 1.398 . S
C1122 H1110 0.950 . S
C1122 C1121 1.398 . S
C1122 C1123 1.391 . S
C1123 H1111 0.950 . S
C1123 C1119 1.393 . S
C1123 C1122 1.391 . S
H1124 C1132 0.950 . S
H1125 C1137 0.950 . S
H1126 C1134 0.950 . S
H1127 C1136 0.950 . S
H1128 C1138 0.950 . S
H1129 C1140 0.950 . S
H1130 C1142 0.950 . S
H1131 C1143 0.950 . S
C1132 H1124 0.950 . S
C1132 C1133 1.386 . S
C1132 C1134 1.391 . S
C1133 C1132 1.386 . S
C1133 C1137 1.393 . S
C1134 H1126 0.950 . S
C1134 C1132 1.391 . S
C1134 C1135 1.400 . S
C1135 C1134 1.400 . S
C1135 C1136 1.398 . S
C1135 C1141 1.491 . S
C1136 H1127 0.950 . S
C1136 C1135 1.398 . S
C1136 C1137 1.391 . S
C1137 H1125 0.950 . S
C1137 C1133 1.393 . S
C1137 C1136 1.391 . S
C1138 H1128 0.950 . S
C1138 C1139 1.386 . S
C1138 C1140 1.391 . S
C1139 C1138 1.386 . S
C1139 C1143 1.393 . S
C1140 H1129 0.950 . S
C1140 C1138 1.391 . S
C1140 C1141 1.400 . S
C1141 C1135 1.491 . S
C1141 C1140 1.400 . S
C1141 C1142 1.398 . S
C1142 H1130 0.950 . S
C1142 C1141 1.398 . S
C1142 C1143 1.391 . S
C1143 H1131 0.950 . S
C1143 C1139 1.393 . S
C1143 C1142 1.391 . S
H1144 C1152 0.950 . S
H1145 C1157 0.950 . S
H1146 C1154 0.944 1_655 S
H1147 C1156 0.950 . S
H1148 C1158 0.950 . S
H1149 C1160 0.944 1_455 S
H1150 C1162 0.950 . S
H1151 C1163 0.950 . S
C1152 H1144 0.950 . S
C1152 C1153 1.386 . S
C1152 C1154 1.395 . S
C1153 C1152 1.386 . S
C1153 C1157 1.393 . S
C1154 H1146 0.944 1_455 S
C1154 C1152 1.395 . S
C1154 C1155 1.402 . S
C1155 C1154 1.402 . S
C1155 C1156 1.398 . S
C1155 C1161 1.491 1_455 S
C1156 H1147 0.950 . S
C1156 C1155 1.398 . S
C1156 C1157 1.391 . S
C1157 H1145 0.950 . S
C1157 C1153 1.393 . S
C1157 C1156 1.391 . S
C1158 H1148 0.950 . S
C1158 C1159 1.386 . S
C1158 C1160 1.395 . S
C1159 C1158 1.386 . S
C1159 C1163 1.393 . S
C1160 H1149 0.944 1_655 S
C1160 C1158 1.395 . S
C1160 C1161 1.402 . S
C1161 C1155 1.491 1_655 S
C1161 C1160 1.402 . S
C1161 C1162 1.398 . S
C1162 H1150 0.950 . S
C1162 C1161 1.398 . S
C1162 C1163 1.391 . S
C1163 H1151 0.950 . S
C1163 C1159 1.393 . S
C1163 C1162 1.391 . S
H1164 C1172 0.950 . S
H1165 C1177 0.950 . S
H1166 C1174 0.950 . S
H1167 C1176 0.950 . S
H1168 C1178 0.950 . S
H1169 C1180 0.950 . S
H1170 C1182 0.950 . S
H1171 C1183 0.950 . S
C1172 H1164 0.950 . S
C1172 C1173 1.386 . S
C1172 C1174 1.391 . S
C1173 C1172 1.386 . S
C1173 C1177 1.393 . S
C1174 H1166 0.950 . S
C1174 C1172 1.391 . S
C1174 C1175 1.400 . S
C1175 C1174 1.400 . S
C1175 C1176 1.398 . S
C1175 C1181 1.491 . S
C1176 H1167 0.950 . S
C1176 C1175 1.398 . S
C1176 C1177 1.391 . S
C1177 H1165 0.950 . S
C1177 C1173 1.393 . S
C1177 C1176 1.391 . S
C1178 H1168 0.950 . S
C1178 C1179 1.386 . S
C1178 C1180 1.391 . S
C1179 C1178 1.386 . S
C1179 C1183 1.393 . S
C1180 H1169 0.950 . S
C1180 C1178 1.391 . S
C1180 C1181 1.400 . S
C1181 C1175 1.491 . S
C1181 C1180 1.400 . S
C1181 C1182 1.398 . S
C1182 H1170 0.950 . S
C1182 C1181 1.398 . S
C1182 C1183 1.391 . S
C1183 H1171 0.950 . S
C1183 C1179 1.393 . S
C1183 C1182 1.391 . S
H1184 C1192 0.950 . S
H1185 C1197 0.950 . S
H1186 C1194 0.950 . S
H1187 C1196 0.950 . S
H1188 C1198 0.950 . S
H1189 C1200 0.950 . S
H1190 C1202 0.950 . S
H1191 C1203 0.950 . S
C1192 H1184 0.950 . S
C1192 C1193 1.386 . S
C1192 C1194 1.391 . S
C1193 C1192 1.386 . S
C1193 C1197 1.393 . S
C1194 H1186 0.950 . S
C1194 C1192 1.391 . S
C1194 C1195 1.400 . S
C1195 C1194 1.400 . S
C1195 C1196 1.398 . S
C1195 C1201 1.491 . S
C1196 H1187 0.950 . S
C1196 C1195 1.398 . S
C1196 C1197 1.391 . S
C1197 H1185 0.950 . S
C1197 C1193 1.393 . S
C1197 C1196 1.391 . S
C1198 H1188 0.950 . S
C1198 C1199 1.386 . S
C1198 C1200 1.391 . S
C1199 C1198 1.386 . S
C1199 C1203 1.393 . S
C1200 H1189 0.950 . S
C1200 C1198 1.391 . S
C1200 C1201 1.400 . S
C1201 C1195 1.491 . S
C1201 C1200 1.400 . S
C1201 C1202 1.398 . S
C1202 H1190 0.950 . S
C1202 C1201 1.398 . S
C1202 C1203 1.391 . S
C1203 H1191 0.950 . S
C1203 C1199 1.393 . S
C1203 C1202 1.391 . S
H1204 C1212 0.950 . S
H1205 C1217 0.928 1_655 S
H1206 C1214 0.950 . S
H1207 C1216 0.950 . S
H1208 C1218 0.950 . S
H1209 C1220 0.950 . S
H1210 C1222 0.950 . S
H1211 C1223 0.928 1_455 S
C1212 H1204 0.950 . S
C1212 C1213 1.386 . S
C1212 C1214 1.391 . S
C1213 C1212 1.386 . S
C1213 C1217 1.429 . S
C1214 H1206 0.950 . S
C1214 C1212 1.391 . S
C1214 C1215 1.400 . S
C1215 C1214 1.400 . S
C1215 C1216 1.398 1_455 S
C1215 C1221 1.491 1_455 S
C1216 H1207 0.950 . S
C1216 C1215 1.398 1_655 S
C1216 C1217 1.377 1_655 S
C1217 H1205 0.928 1_455 S
C1217 C1213 1.429 . S
C1217 C1216 1.377 1_455 S
C1218 H1208 0.950 . S
C1218 C1219 1.386 . S
C1218 C1220 1.391 . S
C1219 C1218 1.386 . S
C1219 C1223 1.429 . S
C1220 H1209 0.950 . S
C1220 C1218 1.391 . S
C1220 C1221 1.400 . S
C1221 C1215 1.491 1_655 S
C1221 C1220 1.400 . S
C1221 C1222 1.398 1_655 S
C1222 H1210 0.950 . S
C1222 C1221 1.398 1_455 S
C1222 C1223 1.377 1_455 S
C1223 H1211 0.928 1_655 S
C1223 C1219 1.429 . S
C1223 C1222 1.377 1_655 S
H1224 C1232 0.950 . S
H1225 C1237 0.950 . S
H1226 C1234 0.950 . S
H1227 C1236 0.950 . S
H1228 C1238 0.950 . S
H1229 C1240 0.950 . S
H1230 C1242 0.950 . S
H1231 C1243 0.950 . S
C1232 H1224 0.950 . S
C1232 C1233 1.386 . S
C1232 C1234 1.391 . S
C1233 C1232 1.386 . S
C1233 C1237 1.393 . S
C1234 H1226 0.950 . S
C1234 C1232 1.391 . S
C1234 C1235 1.400 . S
C1235 C1234 1.400 . S
C1235 C1236 1.398 . S
C1235 C1241 1.491 . S
C1236 H1227 0.950 . S
C1236 C1235 1.398 . S
C1236 C1237 1.391 . S
C1237 H1225 0.950 . S
C1237 C1233 1.393 . S
C1237 C1236 1.391 . S
C1238 H1228 0.950 . S
C1238 C1239 1.386 . S
C1238 C1240 1.391 . S
C1239 C1238 1.386 . S
C1239 C1243 1.393 . S
C1240 H1229 0.950 . S
C1240 C1238 1.391 . S
C1240 C1241 1.400 . S
C1241 C1235 1.491 . S
C1241 C1240 1.400 . S
C1241 C1242 1.398 . S
C1242 H1230 0.950 . S
C1242 C1241 1.398 . S
C1242 C1243 1.391 . S
C1243 H1231 0.950 . S
C1243 C1239 1.393 . S
C1243 C1242 1.391 . S
H1244 C1252 0.950 . S
H1245 C1257 0.950 . S
H1246 C1254 0.950 . S
H1247 C1256 0.950 . S
H1248 C1258 0.950 . S
H1249 C1260 0.950 . S
H1250 C1262 0.950 . S
H1251 C1263 0.950 . S
C1252 H1244 0.950 . S
C1252 C1253 1.386 . S
C1252 C1254 1.391 . S
C1253 C1252 1.386 . S
C1253 C1257 1.393 . S
C1254 H1246 0.950 . S
C1254 C1252 1.391 . S
C1254 C1255 1.400 . S
C1255 C1254 1.400 . S
C1255 C1256 1.398 . S
C1255 C1261 1.491 1_455 S
C1256 H1247 0.950 . S
C1256 C1255 1.398 . S
C1256 C1257 1.391 . S
C1257 H1245 0.950 . S
C1257 C1253 1.393 . S
C1257 C1256 1.391 . S
C1258 H1248 0.950 . S
C1258 C1259 1.386 . S
C1258 C1260 1.391 . S
C1259 C1258 1.386 . S
C1259 C1263 1.393 . S
C1260 H1249 0.950 . S
C1260 C1258 1.391 . S
C1260 C1261 1.400 . S
C1261 C1255 1.491 1_655 S
C1261 C1260 1.400 . S
C1261 C1262 1.398 . S
C1262 H1250 0.950 . S
C1262 C1261 1.398 . S
C1262 C1263 1.391 . S
C1263 H1251 0.950 . S
C1263 C1259 1.393 . S
C1263 C1262 1.391 . S
H1264 C1272 0.950 . S
H1265 C1277 0.950 . S
H1266 C1274 0.950 . S
H1267 C1276 0.950 . S
H1268 C1278 0.950 . S
H1269 C1280 0.950 . S
H1270 C1282 0.950 . S
H1271 C1283 0.950 . S
C1272 H1264 0.950 . S
C1272 C1273 1.386 . S
C1272 C1274 1.391 . S
C1273 C1272 1.386 . S
C1273 C1277 1.393 1_455 S
C1274 H1266 0.950 . S
C1274 C1272 1.391 . S
C1274 C1275 1.400 . S
C1275 C1274 1.400 . S
C1275 C1276 1.398 1_455 S
C1275 C1281 1.491 1_455 S
C1276 H1267 0.950 . S
C1276 C1275 1.398 1_655 S
C1276 C1277 1.391 . S
C1277 H1265 0.950 . S
C1277 C1273 1.393 1_655 S
C1277 C1276 1.391 . S
C1278 H1268 0.950 . S
C1278 C1279 1.386 . S
C1278 C1280 1.391 . S
C1279 C1278 1.386 . S
C1279 C1283 1.393 1_655 S
C1280 H1269 0.950 . S
C1280 C1278 1.391 . S
C1280 C1281 1.400 . S
C1281 C1275 1.491 1_655 S
C1281 C1280 1.400 . S
C1281 C1282 1.398 1_655 S
C1282 H1270 0.950 . S
C1282 C1281 1.398 1_455 S
C1282 C1283 1.391 . S
C1283 H1271 0.950 . S
C1283 C1279 1.393 1_455 S
C1283 C1282 1.391 . S
H1284 C1292 0.950 . S
H1285 C1297 0.950 . S
H1286 C1294 0.950 . S
H1287 C1296 0.950 . S
H1288 C1298 0.950 . S
H1289 C1300 0.950 . S
H1290 C1302 0.950 . S
H1291 C1303 0.950 . S
C1292 H1284 0.950 . S
C1292 C1293 1.386 . S
C1292 C1294 1.391 . S
C1293 C1292 1.386 . S
C1293 C1297 1.393 . S
C1294 H1286 0.950 . S
C1294 C1292 1.391 . S
C1294 C1295 1.400 . S
C1295 C1294 1.400 . S
C1295 C1296 1.398 . S
C1295 C1301 1.491 . S
C1296 H1287 0.950 . S
C1296 C1295 1.398 . S
C1296 C1297 1.391 . S
C1297 H1285 0.950 . S
C1297 C1293 1.393 . S
C1297 C1296 1.391 . S
C1298 H1288 0.950 . S
C1298 C1299 1.386 . S
C1298 C1300 1.391 . S
C1299 C1298 1.386 . S
C1299 C1303 1.393 . S
C1300 H1289 0.950 . S
C1300 C1298 1.391 . S
C1300 C1301 1.400 . S
C1301 C1295 1.491 . S
C1301 C1300 1.400 . S
C1301 C1302 1.398 . S
C1302 H1290 0.950 . S
C1302 C1301 1.398 . S
C1302 C1303 1.391 . S
C1303 H1291 0.950 . S
C1303 C1299 1.393 . S
C1303 C1302 1.391 . S
H1304 C1312 0.950 . S
H1305 C1317 0.950 . S
H1306 C1314 0.950 . S
H1307 C1316 0.950 . S
H1308 C1318 0.950 . S
H1309 C1320 0.950 . S
H1310 C1322 0.950 . S
H1311 C1323 0.950 . S
C1312 H1304 0.950 . S
C1312 C1313 1.386 . S
C1312 C1314 1.391 . S
C1313 C1312 1.386 . S
C1313 C1317 1.393 . S
C1314 H1306 0.950 . S
C1314 C1312 1.391 . S
C1314 C1315 1.400 . S
C1315 C1314 1.400 . S
C1315 C1316 1.398 . S
C1315 C1321 1.491 . S
C1316 H1307 0.950 . S
C1316 C1315 1.398 . S
C1316 C1317 1.391 . S
C1317 H1305 0.950 . S
C1317 C1313 1.393 . S
C1317 C1316 1.391 . S
C1318 H1308 0.950 . S
C1318 C1319 1.386 . S
C1318 C1320 1.391 . S
C1319 C1318 1.386 . S
C1319 C1323 1.393 . S
C1320 H1309 0.950 . S
C1320 C1318 1.391 . S
C1320 C1321 1.400 . S
C1321 C1315 1.491 . S
C1321 C1320 1.400 . S
C1321 C1322 1.398 . S
C1322 H1310 0.950 . S
C1322 C1321 1.398 . S
C1322 C1323 1.391 . S
C1323 H1311 0.950 . S
C1323 C1319 1.393 . S
C1323 C1322 1.391 . S
H1324 C1332 0.950 . S
H1325 C1337 0.950 . S
H1326 C1334 0.950 . S
H1327 C1336 0.950 . S
H1328 C1338 0.950 . S
H1329 C1340 0.950 . S
H1330 C1342 0.950 . S
H1331 C1343 0.950 . S
C1332 H1324 0.950 . S
C1332 C1333 1.386 1_655 S
C1332 C1334 1.391 . S
C1333 C1332 1.386 1_455 S
C1333 C1337 1.393 . S
C1334 H1326 0.950 . S
C1334 C1332 1.391 . S
C1334 C1335 1.400 1_655 S
C1335 C1334 1.400 1_455 S
C1335 C1336 1.398 . S
C1335 C1341 1.491 1_455 S
C1336 H1327 0.950 . S
C1336 C1335 1.398 . S
C1336 C1337 1.391 . S
C1337 H1325 0.950 . S
C1337 C1333 1.393 . S
C1337 C1336 1.391 . S
C1338 H1328 0.950 . S
C1338 C1339 1.386 1_455 S
C1338 C1340 1.391 . S
C1339 C1338 1.386 1_655 S
C1339 C1343 1.393 . S
C1340 H1329 0.950 . S
C1340 C1338 1.391 . S
C1340 C1341 1.400 1_455 S
C1341 C1335 1.491 1_655 S
C1341 C1340 1.400 1_655 S
C1341 C1342 1.398 . S
C1342 H1330 0.950 . S
C1342 C1341 1.398 . S
C1342 C1343 1.391 . S
C1343 H1331 0.950 . S
C1343 C1339 1.393 . S
C1343 C1342 1.391 . S
H1344 C1352 0.950 . S
H1345 C1357 0.950 . S
H1346 C1354 0.950 . S
H1347 C1356 0.950 . S
H1348 C1358 0.950 . S
H1349 C1360 0.950 . S
H1350 C1362 0.950 . S
H1351 C1363 0.950 . S
C1352 H1344 0.950 . S
C1352 C1353 1.386 . S
C1352 C1354 1.391 . S
C1353 C1352 1.386 . S
C1353 C1357 1.393 1_455 S
C1354 H1346 0.950 . S
C1354 C1352 1.391 . S
C1354 C1355 1.400 . S
C1355 C1354 1.400 . S
C1355 C1356 1.398 1_455 S
C1355 C1361 1.491 1_455 S
C1356 H1347 0.950 . S
C1356 C1355 1.398 1_655 S
C1356 C1357 1.391 . S
C1357 H1345 0.950 . S
C1357 C1353 1.393 1_655 S
C1357 C1356 1.391 . S
C1358 H1348 0.950 . S
C1358 C1359 1.386 . S
C1358 C1360 1.391 . S
C1359 C1358 1.386 . S
C1359 C1363 1.393 1_655 S
C1360 H1349 0.950 . S
C1360 C1358 1.391 . S
C1360 C1361 1.400 . S
C1361 C1355 1.491 1_655 S
C1361 C1360 1.400 . S
C1361 C1362 1.398 1_655 S
C1362 H1350 0.950 . S
C1362 C1361 1.398 1_455 S
C1362 C1363 1.391 . S
C1363 H1351 0.950 . S
C1363 C1359 1.393 1_455 S
C1363 C1362 1.391 . S
H1364 C1372 0.950 . S
H1365 C1377 0.950 . S
H1366 C1374 0.950 . S
H1367 C1376 0.950 . S
H1368 C1378 0.950 . S
H1369 C1380 0.950 . S
H1370 C1382 0.950 . S
H1371 C1383 0.950 . S
C1372 H1364 0.950 . S
C1372 C1373 1.386 . S
C1372 C1374 1.391 . S
C1373 C1372 1.386 . S
C1373 C1377 1.393 . S
C1374 H1366 0.950 . S
C1374 C1372 1.391 . S
C1374 C1375 1.400 . S
C1375 C1374 1.400 . S
C1375 C1376 1.398 . S
C1375 C1381 1.491 . S
C1376 H1367 0.950 . S
C1376 C1375 1.398 . S
C1376 C1377 1.391 . S
C1377 H1365 0.950 . S
C1377 C1373 1.393 . S
C1377 C1376 1.391 . S
C1378 H1368 0.950 . S
C1378 C1379 1.386 . S
C1378 C1380 1.391 . S
C1379 C1378 1.386 . S
C1379 C1383 1.393 . S
C1380 H1369 0.950 . S
C1380 C1378 1.391 . S
C1380 C1381 1.400 . S
C1381 C1375 1.491 . S
C1381 C1380 1.400 . S
C1381 C1382 1.398 . S
C1382 H1370 0.950 . S
C1382 C1381 1.398 . S
C1382 C1383 1.391 . S
C1383 H1371 0.950 . S
C1383 C1379 1.393 . S
C1383 C1382 1.391 . S
H1384 C1392 0.950 . S
H1385 C1397 0.950 . S
H1386 C1394 0.950 . S
H1387 C1396 0.950 . S
H1388 C1398 0.950 . S
H1389 C1400 0.950 . S
H1390 C1402 0.950 . S
H1391 C1403 0.950 . S
C1392 H1384 0.950 . S
C1392 C1393 1.386 . S
C1392 C1394 1.391 . S
C1393 C1392 1.386 . S
C1393 C1397 1.393 . S
C1394 H1386 0.950 . S
C1394 C1392 1.391 . S
C1394 C1395 1.400 . S
C1395 C1394 1.400 . S
C1395 C1396 1.398 . S
C1395 C1401 1.491 . S
C1396 H1387 0.950 . S
C1396 C1395 1.398 . S
C1396 C1397 1.391 . S
C1397 H1385 0.950 . S
C1397 C1393 1.393 . S
C1397 C1396 1.391 . S
C1398 H1388 0.950 . S
C1398 C1399 1.386 . S
C1398 C1400 1.391 . S
C1399 C1398 1.386 . S
C1399 C1403 1.393 . S
C1400 H1389 0.950 . S
C1400 C1398 1.391 . S
C1400 C1401 1.400 . S
C1401 C1395 1.491 . S
C1401 C1400 1.400 . S
C1401 C1402 1.398 . S
C1402 H1390 0.950 . S
C1402 C1401 1.398 . S
C1402 C1403 1.391 . S
C1403 H1391 0.950 . S
C1403 C1399 1.393 . S
C1403 C1402 1.391 . S
H1404 C1412 0.950 . S
H1405 C1417 0.950 . S
H1406 C1414 0.950 . S
H1407 C1416 0.950 . S
H1408 C1418 0.950 . S
H1409 C1420 0.950 . S
H1410 C1422 0.950 . S
H1411 C1423 0.950 . S
C1412 H1404 0.950 . S
C1412 C1413 1.386 . S
C1412 C1414 1.391 . S
C1413 C1412 1.386 . S
C1413 C1417 1.393 1_455 S
C1414 H1406 0.950 . S
C1414 C1412 1.391 . S
C1414 C1415 1.400 . S
C1415 C1414 1.400 . S
C1415 C1416 1.398 1_455 S
C1415 C1421 1.491 1_455 S
C1416 H1407 0.950 . S
C1416 C1415 1.398 1_655 S
C1416 C1417 1.391 . S
C1417 H1405 0.950 . S
C1417 C1413 1.393 1_655 S
C1417 C1416 1.391 . S
C1418 H1408 0.950 . S
C1418 C1419 1.386 . S
C1418 C1420 1.391 . S
C1419 C1418 1.386 . S
C1419 C1423 1.393 1_655 S
C1420 H1409 0.950 . S
C1420 C1418 1.391 . S
C1420 C1421 1.400 . S
C1421 C1415 1.491 1_655 S
C1421 C1420 1.400 . S
C1421 C1422 1.398 1_655 S
C1422 H1410 0.950 . S
C1422 C1421 1.398 1_455 S
C1422 C1423 1.391 . S
C1423 H1411 0.950 . S
C1423 C1419 1.393 1_455 S
C1423 C1422 1.391 . S
H1424 C1432 0.950 . S
H1425 C1437 0.950 1_545 S
H1426 C1434 0.950 . S
H1427 C1436 0.950 . S
H1428 C1438 0.950 . S
H1429 C1440 0.950 . S
H1430 C1442 0.950 . S
H1431 C1443 0.950 1_565 S
C1432 H1424 0.950 . S
C1432 C1433 1.386 1_455 S
C1432 C1434 1.391 . S
C1433 C1432 1.386 1_655 S
C1433 C1437 1.393 . S
C1434 H1426 0.950 . S
C1434 C1432 1.391 . S
C1434 C1435 1.400 1_455 S
C1435 C1434 1.400 1_655 S
C1435 C1436 1.398 1_565 S
C1435 C1441 1.491 1_666 S
C1436 H1427 0.950 . S
C1436 C1435 1.398 1_545 S
C1436 C1437 1.391 1_545 S
C1437 H1425 0.950 1_565 S
C1437 C1433 1.393 . S
C1437 C1436 1.391 1_565 S
C1438 H1428 0.950 . S
C1438 C1439 1.386 1_655 S
C1438 C1440 1.391 . S
C1439 C1438 1.386 1_455 S
C1439 C1443 1.393 . S
C1440 H1429 0.950 . S
C1440 C1438 1.391 . S
C1440 C1441 1.400 1_655 S
C1441 C1435 1.491 1_444 S
C1441 C1440 1.400 1_455 S
C1441 C1442 1.398 1_545 S
C1442 H1430 0.950 . S
C1442 C1441 1.398 1_565 S
C1442 C1443 1.391 1_565 S
C1443 H1431 0.950 1_545 S
C1443 C1439 1.393 . S
C1443 C1442 1.391 1_545 S
H1444 C1452 0.950 . S
H1445 C1457 0.950 . S
H1446 C1454 0.950 . S
H1447 C1456 0.950 . S
H1448 C1458 0.950 . S
H1449 C1460 0.950 . S
H1450 C1462 0.950 . S
H1451 C1463 0.950 . S
C1452 H1444 0.950 . S
C1452 C1453 1.386 . S
C1452 C1454 1.391 . S
C1453 C1452 1.386 . S
C1453 C1457 1.393 . S
C1454 H1446 0.950 . S
C1454 C1452 1.391 . S
C1454 C1455 1.400 . S
C1455 C1454 1.400 . S
C1455 C1456 1.398 . S
C1455 C1461 1.491 1_546 S
C1456 H1447 0.950 . S
C1456 C1455 1.398 . S
C1456 C1457 1.391 . S
C1457 H1445 0.950 . S
C1457 C1453 1.393 . S
C1457 C1456 1.391 . S
C1458 H1448 0.950 . S
C1458 C1459 1.386 . S
C1458 C1460 1.391 . S
C1459 C1458 1.386 . S
C1459 C1463 1.393 . S
C1460 H1449 0.950 . S
C1460 C1458 1.391 . S
C1460 C1461 1.400 . S
C1461 C1455 1.491 1_564 S
C1461 C1460 1.400 . S
C1461 C1462 1.398 . S
C1462 H1450 0.950 . S
C1462 C1461 1.398 . S
C1462 C1463 1.391 . S
C1463 H1451 0.950 . S
C1463 C1459 1.393 . S
C1463 C1462 1.391 . S
H1464 C1472 0.950 . S
H1465 C1477 0.950 . S
H1466 C1474 0.950 . S
H1467 C1476 0.950 1_565 S
H1468 C1478 0.950 . S
H1469 C1480 0.950 . S
H1470 C1482 0.950 1_545 S
H1471 C1483 0.950 . S
C1472 H1464 0.950 . S
C1472 C1473 1.386 . S
C1472 C1474 1.391 . S
C1473 C1472 1.386 . S
C1473 C1477 1.393 . S
C1474 H1466 0.950 . S
C1474 C1472 1.391 . S
C1474 C1475 1.400 . S
C1475 C1474 1.400 . S
C1475 C1476 1.398 . S
C1475 C1481 1.491 1_545 S
C1476 H1467 0.950 1_545 S
C1476 C1475 1.398 . S
C1476 C1477 1.391 . S
C1477 H1465 0.950 . S
C1477 C1473 1.393 . S
C1477 C1476 1.391 . S
C1478 H1468 0.950 . S
C1478 C1479 1.386 . S
C1478 C1480 1.391 . S
C1479 C1478 1.386 . S
C1479 C1483 1.393 . S
C1480 H1469 0.950 . S
C1480 C1478 1.391 . S
C1480 C1481 1.400 . S
C1481 C1475 1.491 1_565 S
C1481 C1480 1.400 . S
C1481 C1482 1.398 . S
C1482 H1470 0.950 1_565 S
C1482 C1481 1.398 . S
C1482 C1483 1.391 . S
C1483 H1471 0.950 . S
C1483 C1479 1.393 . S
C1483 C1482 1.391 . S
H1484 C1492 0.950 . S
H1485 C1497 0.950 . S
H1486 C1494 0.950 . S
H1487 C1496 0.950 . S
H1488 C1498 0.950 . S
H1489 C1500 0.950 . S
H1490 C1502 0.950 . S
H1491 C1503 0.950 . S
C1492 H1484 0.950 . S
C1492 C1493 1.386 . S
C1492 C1494 1.391 . S
C1493 C1492 1.386 . S
C1493 C1497 1.393 1_455 S
C1494 H1486 0.950 . S
C1494 C1492 1.391 . S
C1494 C1495 1.400 . S
C1495 C1494 1.400 . S
C1495 C1496 1.398 1_455 S
C1495 C1501 1.491 1_465 S
C1496 H1487 0.950 . S
C1496 C1495 1.398 1_655 S
C1496 C1497 1.391 . S
C1497 H1485 0.950 . S
C1497 C1493 1.393 1_655 S
C1497 C1496 1.391 . S
C1498 H1488 0.950 . S
C1498 C1499 1.386 . S
C1498 C1500 1.391 . S
C1499 C1498 1.386 . S
C1499 C1503 1.393 1_655 S
C1500 H1489 0.950 . S
C1500 C1498 1.391 . S
C1500 C1501 1.400 . S
C1501 C1495 1.491 1_645 S
C1501 C1500 1.400 . S
C1501 C1502 1.398 1_655 S
C1502 H1490 0.950 . S
C1502 C1501 1.398 1_455 S
C1502 C1503 1.391 . S
C1503 H1491 0.950 . S
C1503 C1499 1.393 1_455 S
C1503 C1502 1.391 . S
H1504 C1512 0.950 . S
H1505 C1517 0.950 . S
H1506 C1514 0.950 . S
H1507 C1516 0.950 . S
H1508 C1518 0.950 . S
H1509 C1520 0.950 . S
H1510 C1522 0.950 . S
H1511 C1523 0.950 . S
C1512 H1504 0.950 . S
C1512 C1513 1.386 . S
C1512 C1514 1.391 . S
C1513 C1512 1.386 . S
C1513 C1517 1.393 . S
C1514 H1506 0.950 . S
C1514 C1512 1.391 . S
C1514 C1515 1.400 . S
C1515 C1514 1.400 . S
C1515 C1516 1.398 . S
C1515 C1521 1.491 1_554 S
C1516 H1507 0.950 . S
C1516 C1515 1.398 . S
C1516 C1517 1.391 . S
C1517 H1505 0.950 . S
C1517 C1513 1.393 . S
C1517 C1516 1.391 . S
C1518 H1508 0.950 . S
C1518 C1519 1.386 . S
C1518 C1520 1.391 . S
C1519 C1518 1.386 . S
C1519 C1523 1.393 . S
C1520 H1509 0.950 . S
C1520 C1518 1.391 . S
C1520 C1521 1.400 . S
C1521 C1515 1.491 1_556 S
C1521 C1520 1.400 . S
C1521 C1522 1.398 . S
C1522 H1510 0.950 . S
C1522 C1521 1.398 . S
C1522 C1523 1.391 . S
C1523 H1511 0.950 . S
C1523 C1519 1.393 . S
C1523 C1522 1.391 . S
H1524 C1532 0.950 . S
H1525 C1537 0.950 . S
H1526 C1534 0.950 . S
H1527 C1536 0.950 . S
H1528 C1538 0.950 . S
H1529 C1540 0.950 . S
H1530 C1542 0.950 . S
H1531 C1543 0.950 . S
C1532 H1524 0.950 . S
C1532 C1533 1.386 . S
C1532 C1534 1.391 1_655 S
C1533 C1532 1.386 . S
C1533 C1537 1.393 . S
C1534 H1526 0.950 . S
C1534 C1532 1.391 1_455 S
C1534 C1535 1.400 1_455 S
C1535 C1534 1.400 1_655 S
C1535 C1536 1.398 . S
C1535 C1541 1.491 1_654 S
C1536 H1527 0.950 . S
C1536 C1535 1.398 . S
C1536 C1537 1.391 . S
C1537 H1525 0.950 . S
C1537 C1533 1.393 . S
C1537 C1536 1.391 . S
C1538 H1528 0.950 . S
C1538 C1539 1.386 . S
C1538 C1540 1.391 1_455 S
C1539 C1538 1.386 . S
C1539 C1543 1.393 . S
C1540 H1529 0.950 . S
C1540 C1538 1.391 1_655 S
C1540 C1541 1.400 1_655 S
C1541 C1535 1.491 1_456 S
C1541 C1540 1.400 1_455 S
C1541 C1542 1.398 . S
C1542 H1530 0.950 . S
C1542 C1541 1.398 . S
C1542 C1543 1.391 . S
C1543 H1531 0.950 . S
C1543 C1539 1.393 . S
C1543 C1542 1.391 . S
H1544 C1552 0.950 . S
H1545 C1557 0.950 . S
H1546 C1554 0.950 . S
H1547 C1556 0.950 . S
H1548 C1558 0.950 . S
H1549 C1560 0.950 . S
H1550 C1562 0.950 . S
H1551 C1563 0.950 . S
C1552 H1544 0.950 . S
C1552 C1553 1.386 . S
C1552 C1554 1.391 . S
C1553 C1552 1.386 . S
C1553 C1557 1.393 . S
C1554 H1546 0.950 . S
C1554 C1552 1.391 . S
C1554 C1555 1.400 . S
C1555 C1554 1.400 . S
C1555 C1556 1.398 1_655 S
C1555 C1561 1.491 1_655 S
C1556 H1547 0.950 . S
C1556 C1555 1.398 1_455 S
C1556 C1557 1.391 1_455 S
C1557 H1545 0.950 . S
C1557 C1553 1.393 . S
C1557 C1556 1.391 1_655 S
C1558 H1548 0.950 . S
C1558 C1559 1.386 . S
C1558 C1560 1.391 . S
C1559 C1558 1.386 . S
C1559 C1563 1.393 . S
C1560 H1549 0.950 . S
C1560 C1558 1.391 . S
C1560 C1561 1.400 . S
C1561 C1555 1.491 1_455 S
C1561 C1560 1.400 . S
C1561 C1562 1.398 1_455 S
C1562 H1550 0.950 . S
C1562 C1561 1.398 1_655 S
C1562 C1563 1.391 1_655 S
C1563 H1551 0.950 . S
C1563 C1559 1.393 . S
C1563 C1562 1.391 1_455 S
H1564 C1572 0.950 . S
H1565 C1577 0.950 . S
H1566 C1574 0.950 . S
H1567 C1576 0.950 . S
H1568 C1578 0.950 . S
H1569 C1580 0.950 . S
H1570 C1582 0.950 . S
H1571 C1583 0.950 . S
C1572 H1564 0.950 . S
C1572 C1573 1.386 . S
C1572 C1574 1.391 . S
C1573 C1572 1.386 . S
C1573 C1577 1.393 . S
C1574 H1566 0.950 . S
C1574 C1572 1.391 . S
C1574 C1575 1.400 . S
C1575 C1574 1.400 . S
C1575 C1576 1.398 . S
C1575 C1581 1.491 . S
C1576 H1567 0.950 . S
C1576 C1575 1.398 . S
C1576 C1577 1.391 . S
C1577 H1565 0.950 . S
C1577 C1573 1.393 . S
C1577 C1576 1.391 . S
C1578 H1568 0.950 . S
C1578 C1579 1.386 . S
C1578 C1580 1.391 . S
C1579 C1578 1.386 . S
C1579 C1583 1.393 . S
C1580 H1569 0.950 . S
C1580 C1578 1.391 . S
C1580 C1581 1.400 . S
C1581 C1575 1.491 . S
C1581 C1580 1.400 . S
C1581 C1582 1.398 . S
C1582 H1570 0.950 . S
C1582 C1581 1.398 . S
C1582 C1583 1.391 . S
C1583 H1571 0.950 . S
C1583 C1579 1.393 . S
C1583 C1582 1.391 . S
C953 C64 1.551 . S
C959 C5 1.551 . S
C973 C123 1.555 . S
C979 C182 1.555 . S
C993 C241 1.551 . S
C999 C300 1.551 . S
C1013 C418 1.557 . S
C1019 C359 1.557 . S
C1033 C536 1.551 . S
C1039 C477 1.551 . S
C1053 C654 1.553 . S
C1059 C595 1.554 . S
C1073 C772 1.552 . S
C1079 C713 1.552 . S
C1093 C890 1.552 . S
C1099 C831 1.552 . S
C1113 C210 1.569 . S
C1119 C33 1.569 . S
C1133 C92 1.569 . S
C1139 C151 1.573 . S
C1153 C446 1.568 . S
C1159 C269 1.571 . S
C1173 C387 1.571 . S
C1179 C328 1.568 . S
C1193 C505 1.572 . S
C1199 C682 1.575 . S
C1213 C623 1.570 . S
C1219 C564 1.574 . S
C1233 C918 1.574 . S
C1239 C741 1.575 . S
C1253 C800 1.569 . S
C1259 C859 1.569 . S
C1273 C52 1.571 . S
C1279 C583 1.573 . S
C1293 C111 1.572 . S
C1299 C524 1.570 . S
C1313 C701 1.571 . S
C1319 C170 1.569 . S
C1333 C642 1.571 . S
C1339 C229 1.569 . S
C1353 C819 1.573 . S
C1359 C288 1.571 . S
C1373 C760 1.568 . S
C1379 C347 1.570 . S
C1393 C406 1.568 . S
C1399 C937 1.570 . S
C1413 C465 1.574 . S
C1419 C878 1.572 . S
C1433 C239 1.547 . S
C1439 C3 1.547 . S
C1453 C298 1.550 . S
C1459 C62 1.550 . S
C1473 C357 1.549 . S
C1479 C121 1.549 . S
C1493 C416 1.542 . S
C1499 C180 1.542 . S
C1513 C475 1.544 . S
C1519 C711 1.544 . S
C1533 C534 1.547 . S
C1539 C770 1.547 . S
C1553 C829 1.542 . S
C1559 C593 1.542 . S
C1573 C888 1.546 . S
C1579 C652 1.546 . S
