# Generated by pormake.
# Topology fcu, (12)-cn, num edge types: 1
# Building blocks:
#     Node 0, Type 0, BuildingBlock: ENOWUB_clean_sbu_0, # of connection points: 12
#     Node 1, Type 0, BuildingBlock: ENOWUB_clean_sbu_0, # of connection points: 12
#     Node 2, Type 0, BuildingBlock: ENOWUB_clean_sbu_0, # of connection points: 12
#     Node 3, Type 0, BuildingBlock: ENOWUB_clean_sbu_0, # of connection points: 12
#     Edge 4, Type (0, 0), BuildingBlock: XUDNAN_clean_linker_2, # of connection points: 2
#     Edge 5, Type (0, 0), BuildingBlock: XUDNAN_clean_linker_2, # of connection points: 2
#     Edge 6, Type (0, 0), BuildingBlock: XUDNAN_clean_linker_2, # of connection points: 2
#     Edge 7, Type (0, 0), BuildingBlock: XUDNAN_clean_linker_2, # of connection points: 2
#     Edge 8, Type (0, 0), BuildingBlock: XUDNAN_clean_linker_2, # of connection points: 2
#     Edge 9, Type (0, 0), BuildingBlock: XUDNAN_clean_linker_2, # of connection points: 2
#     Edge 10, Type (0, 0), BuildingBlock: XUDNAN_clean_linker_2, # of connection points: 2
#     Edge 11, Type (0, 0), BuildingBlock: XUDNAN_clean_linker_2, # of connection points: 2
#     Edge 12, Type (0, 0), BuildingBlock: XUDNAN_clean_linker_2, # of connection points: 2
#     Edge 13, Type (0, 0), BuildingBlock: XUDNAN_clean_linker_2, # of connection points: 2
#     Edge 14, Type (0, 0), BuildingBlock: XUDNAN_clean_linker_2, # of connection points: 2
#     Edge 15, Type (0, 0), BuildingBlock: XUDNAN_clean_linker_2, # of connection points: 2
#     Edge 16, Type (0, 0), BuildingBlock: XUDNAN_clean_linker_2, # of connection points: 2
#     Edge 17, Type (0, 0), BuildingBlock: XUDNAN_clean_linker_2, # of connection points: 2
#     Edge 18, Type (0, 0), BuildingBlock: XUDNAN_clean_linker_2, # of connection points: 2
#     Edge 19, Type (0, 0), BuildingBlock: XUDNAN_clean_linker_2, # of connection points: 2
#     Edge 20, Type (0, 0), BuildingBlock: XUDNAN_clean_linker_2, # of connection points: 2
#     Edge 21, Type (0, 0), BuildingBlock: XUDNAN_clean_linker_2, # of connection points: 2
#     Edge 22, Type (0, 0), BuildingBlock: XUDNAN_clean_linker_2, # of connection points: 2
#     Edge 23, Type (0, 0), BuildingBlock: XUDNAN_clean_linker_2, # of connection points: 2
#     Edge 24, Type (0, 0), BuildingBlock: XUDNAN_clean_linker_2, # of connection points: 2
#     Edge 25, Type (0, 0), BuildingBlock: XUDNAN_clean_linker_2, # of connection points: 2
#     Edge 26, Type (0, 0), BuildingBlock: XUDNAN_clean_linker_2, # of connection points: 2
#     Edge 27, Type (0, 0), BuildingBlock: XUDNAN_clean_linker_2, # of connection points: 2
# Relax obj value: 0.000
# Max RMSD: 0.000
# Mean RMSD: 0.000
data_MOF--net-fcu--node1-ENOWUB_clean_sbu_0--edge1-XUDNAN_clean_linker_2
_symmetry_space_group_name_H-M    P1
_symmetry_Int_Tables_number       1
_symmetry_cell_setting            triclinic
loop_
_symmetry_equiv_pos_as_xyz
'x, y, z'
_cell_length_a     26.696777
_cell_length_b     26.714617
_cell_length_c     26.723934
_cell_angle_alpha  90.127651
_cell_angle_beta   90.013393
_cell_angle_gamma 90.086831
loop_
_atom_site_label
_atom_site_type_symbol
_atom_site_fract_x
_atom_site_fract_y
_atom_site_fract_z
_atom_type_partial_charge
O0 O 0.114 0.88489 0.99348 0.0
O1 O 0.04473 0.94588 0.04752 0.0
O2 O 0.04144 0.02274 0.92698 0.0
O3 O 0.02149 0.92541 0.95112 0.0
O4 O 0.06553 0.04197 0.02441 0.0
Zr5 Zr 0.09053 0.97183 0.97827 0.0
Zr6 Zr 0.01868 0.01533 0.09322 0.0
Zr7 Zr 0.97532 0.90025 0.02111 0.0
O8 O 0.96833 0.0667 0.0437 0.0
O9 O 0.92447 0.95003 0.97047 0.0
O10 O 0.94853 0.96911 0.06804 0.0
Zr11 Zr 0.01471 0.09171 0.97369 0.0
Zr12 Zr 0.97117 0.97689 0.9016 0.0
Zr13 Zr 0.89934 0.01993 0.01688 0.0
O14 O 0.94519 0.04606 0.94764 0.0
O15 O 0.87581 0.10672 0.00089 0.0
O16 O 0.8426 0.95126 0.03699 0.0
O17 O 0.14712 0.03994 0.95689 0.0
O18 O -0.00046 0.11572 0.88679 0.0
O19 O 0.99057 0.87656 0.10803 0.0
O20 O 0.95404 0.84411 0.95229 0.0
O21 O 0.03643 0.14795 0.04227 0.0
O22 O 0.95016 0.03706 0.14954 0.0
O23 O 0.03975 0.95515 0.84541 0.0
O24 O 0.8842 0.9926 0.87807 0.0
O25 O 0.10569 0.00024 0.11691 0.0
O26 O 0.94547 0.14963 0.97481 0.0
O27 O 0.04435 0.842 0.01953 0.0
O28 O 0.88954 0.87971 0.04158 0.0
O29 O 0.10048 0.11168 0.95229 0.0
O30 O 0.14865 0.97383 0.04745 0.0
O31 O 0.8413 0.01832 0.94785 0.0
O32 O 0.87864 0.0414 0.1024 0.0
O33 O 0.11106 0.95019 0.89283 0.0
C34 C 0.0913 0.84498 0.00887 0.0
O35 O 0.04055 0.1008 0.11365 0.0
O36 O 0.01684 0.94615 0.15108 0.0
C37 C 0.89847 0.14655 0.98523 0.0
C38 C 0.84769 0.90366 0.04382 0.0
C39 C 0.14215 0.08745 0.94962 0.0
C40 C 0.98399 0.09317 0.84679 0.0
C41 C 0.00606 0.89924 0.14799 0.0
C42 C 0.94675 0.84955 0.90481 0.0
C43 C 0.04359 0.14259 0.08978 0.0
C44 C 0.90259 0.04425 0.14423 0.0
C45 C 0.08724 0.94763 0.85091 0.0
C46 C 0.84431 0.00787 0.9009 0.0
C47 C 0.14565 0.9848 0.09432 0.0
O48 O 0.9494 0.89143 0.88104 0.0
O49 O 0.9731 0.04625 0.84369 0.0
O50 O 0.11524 0.38633 0.49988 0.0
O51 O 0.02262 0.42624 0.54271 0.0
O52 O 0.0664 0.54302 0.47009 0.0
O53 O 0.04575 0.44695 0.4469 0.0
O54 O 0.04199 0.52377 0.56746 0.0
Zr55 Zr 0.09155 0.4731 0.51625 0.0
Zr56 Zr 0.9719 0.47733 0.59217 0.0
Zr57 Zr 0.97641 0.40097 0.4727 0.0
O58 O 0.94577 0.54666 0.5466 0.0
O59 O 0.94974 0.46978 0.42594 0.0
O60 O 0.92516 0.45056 0.5232 0.0
Zr61 Zr 0.01512 0.59255 0.52073 0.0
Zr62 Zr 0.01983 0.51608 0.40102 0.0
Zr63 Zr 0.90026 0.52061 0.47702 0.0
O64 O 0.96916 0.56741 0.45046 0.0
O65 O 0.87638 0.60752 0.49258 0.0
O66 O 0.84392 0.45216 0.45544 0.0
O67 O 0.14785 0.54183 0.53751 0.0
O68 O 0.03627 0.64887 0.45226 0.0
O69 O 0.95613 0.34439 0.54146 0.0
O70 O 0.99235 0.37723 0.38586 0.0
O71 O -0.00051 0.61613 0.60768 0.0
O72 O 0.88458 0.49143 0.615 0.0
O73 O 0.10687 0.50064 0.37767 0.0
O74 O 0.95133 0.53691 0.34437 0.0
O75 O 0.04015 0.45535 0.64851 0.0
O76 O 0.94586 0.65051 0.51918 0.0
O77 O 0.04566 0.34324 0.47363 0.0
O78 O 0.89081 0.38054 0.45122 0.0
O79 O 0.1007 0.61327 0.54195 0.0
O80 O 0.1118 0.45081 0.60161 0.0
O81 O 0.87981 0.54163 0.39147 0.0
O82 O 0.8419 0.51842 0.54572 0.0
O83 O 0.14974 0.47472 0.44729 0.0
C84 C 0.09262 0.34644 0.48412 0.0
O85 O 0.97325 0.5465 0.65035 0.0
O86 O 0.95145 0.39164 0.61292 0.0
C87 C 0.89895 0.64746 0.50829 0.0
C88 C 0.84907 0.40461 0.44834 0.0
C89 C 0.14256 0.5894 0.54458 0.0
C90 C 0.04355 0.64354 0.40475 0.0
C91 C 0.94926 0.34968 0.58907 0.0
C92 C 0.00816 0.39978 0.34607 0.0
C93 C 0.98391 0.59344 0.64748 0.0
C94 C 0.84471 0.50699 0.59239 0.0
C95 C 0.14676 0.48527 0.4004 0.0
C96 C 0.90375 0.54407 0.34963 0.0
C97 C 0.08765 0.44776 0.6433 0.0
O98 O 0.01879 0.44672 0.34308 0.0
O99 O 0.04109 0.60167 0.38076 0.0
O100 O 0.64927 0.02197 0.44902 0.0
O101 O 0.5453 0.04906 0.45005 0.0
O102 O 0.54165 0.9699 0.56853 0.0
O103 O 0.56627 0.95242 0.47082 0.0
O104 O 0.52238 0.06783 0.54666 0.0
Zr105 Zr 0.59131 0.02166 0.5185 0.0
Zr106 Zr 0.47619 0.09455 0.47725 0.0
Zr107 Zr 0.51928 0.98058 0.40281 0.0
O108 O 0.42482 0.04357 0.52633 0.0
O109 O 0.46858 0.92824 0.45091 0.0
O110 O 0.44941 0.02636 0.42904 0.0
Zr111 Zr 0.47138 0.01534 0.59457 0.0
Zr112 Zr 0.51492 0.90187 0.52026 0.0
Zr113 Zr 0.39972 0.97435 0.47871 0.0
O114 O 0.44554 0.94693 0.54729 0.0
O115 O 0.34148 0.97416 0.54778 0.0
O116 O 0.37943 0.95419 0.39287 0.0
O117 O 0.61123 0.0422 0.60433 0.0
O118 O 0.47249 0.94473 0.65073 0.0
O119 O 0.51814 0.05093 0.34686 0.0
O120 O 0.53977 0.8955 0.37975 0.0
O121 O 0.44478 0.09919 0.6159 0.0
O122 O 0.39095 0.11453 0.45436 0.0
O123 O 0.60054 0.88108 0.54083 0.0
O124 O 0.44564 0.84386 0.51775 0.0
O125 O 0.54543 0.15246 0.48036 0.0
O126 O 0.38471 -0.00211 0.61806 0.0
O127 O 0.60618 -0.00343 0.37921 0.0
O128 O 0.45083 0.9605 0.34579 0.0
O129 O 0.5395 0.03734 0.65114 0.0
O130 O 0.61522 0.10875 0.50443 0.0
O131 O 0.37598 0.88713 0.49259 0.0
O132 O 0.3437 0.04294 0.45753 0.0
O133 O 0.64776 0.9527 0.53813 0.0
C134 C 0.64612 0.01206 0.40191 0.0
O135 O 0.45267 0.14948 0.54679 0.0
O136 O 0.49266 0.12006 0.39093 0.0
C137 C 0.34468 0.98311 0.59506 0.0
C138 C 0.40334 0.95271 0.35098 0.0
C139 C 0.58706 0.04476 0.64603 0.0
C140 C 0.48324 0.8979 0.64673 0.0
C141 C 0.50809 0.09787 0.3507 0.0
C142 C 0.54206 0.85317 0.40271 0.0
C143 C 0.44209 0.14171 0.59335 0.0
C144 C 0.34918 0.09048 0.45067 0.0
C145 C 0.64243 0.90497 0.54404 0.0
C146 C 0.39866 0.84701 0.50729 0.0
C147 C 0.5925 0.14905 0.49026 0.0
O148 O 0.53527 0.84697 0.45018 0.0
O149 O 0.49931 0.87624 0.60649 0.0
O150 O 0.64686 0.44928 0.95572 0.0
O151 O 0.56593 0.44949 0.02487 0.0
O152 O 0.52152 0.5632 0.94819 0.0
O153 O 0.54156 0.46527 0.92657 0.0
O154 O 0.54505 0.54637 0.04501 0.0
Zr155 Zr 0.59072 0.51804 0.97654 0.0
Zr156 Zr 0.51906 0.47849 0.0927 0.0
Zr157 Zr 0.51466 0.39828 0.97588 0.0
O158 O 0.44875 0.52351 0.06633 0.0
O159 O 0.44543 0.44296 0.94845 0.0
O160 O 0.46833 0.42556 0.04495 0.0
Zr161 Zr 0.47553 0.59079 0.0175 0.0
Zr162 Zr 0.47119 0.51012 0.8998 0.0
Zr163 Zr 0.39931 0.47116 0.01654 0.0
O164 O 0.42457 0.53946 0.968 0.0
O165 O 0.34277 0.54004 0.03601 0.0
O166 O 0.37579 0.38385 0.00322 0.0
O167 O 0.61449 0.60543 0.98962 0.0
O168 O 0.45383 0.64437 0.94725 0.0
O169 O 0.53781 0.34488 0.04578 0.0
O170 O 0.49294 0.37009 0.89185 0.0
O171 O 0.4904 0.6177 0.1039 0.0
O172 O 0.45091 0.45735 0.14943 0.0
O173 O 0.53964 0.52982 0.843 0.0
O174 O 0.38412 0.49389 0.87695 0.0
O175 O 0.60594 0.49528 0.116 0.0
O176 O 0.38996 0.61168 0.03826 0.0
O177 O 0.59954 0.37775 0.95204 0.0
O178 O 0.44589 0.33983 0.98051 0.0
O179 O 0.54472 0.64895 0.01421 0.0
O180 O 0.64909 0.51878 0.0457 0.0
O181 O 0.34123 0.46974 0.94722 0.0
O182 O 0.37933 0.45139 0.10249 0.0
O183 O 0.61057 0.53765 0.8907 0.0
C184 C 0.64137 0.40173 0.94865 0.0
O185 O 0.51661 0.5494 0.14849 0.0
O186 O 0.54192 0.39422 0.11586 0.0
C187 C 0.34811 0.58779 0.04177 0.0
C188 C 0.39872 0.34334 0.98994 0.0
C189 C 0.59172 0.64574 0.00385 0.0
C190 C 0.447 0.63759 0.89987 0.0
C191 C 0.54531 0.3518 0.09303 0.0
C192 C 0.47711 0.39061 0.8511 0.0
C193 C 0.50571 0.59615 0.14444 0.0
C194 C 0.40343 0.44954 0.14428 0.0
C195 C 0.58693 0.53831 0.84865 0.0
C196 C 0.34427 0.4788 0.89999 0.0
C197 C 0.64597 0.50991 0.09298 0.0
O198 O 0.46908 0.43773 0.84461 0.0
O199 O 0.45 0.59514 0.87695 0.0
H200 H 0.04442 0.14896 0.19179 0.0
H201 H 0.0568 0.23965 0.05748 0.0
H202 H 0.05472 0.31608 0.10959 0.0
H203 H 0.95622 0.22076 0.25006 0.0
H204 H 0.98012 0.21304 0.31266 0.0
H205 H 0.99118 0.16544 0.26631 0.0
H206 H 0.08702 0.17229 0.28083 0.0
H207 H 0.07624 0.21932 0.32805 0.0
H208 H 0.11728 0.23247 0.27616 0.0
H209 H 0.04211 0.38214 0.17547 0.0
H210 H 0.0228 0.43295 0.25011 0.0
H211 H 0.01593 0.29774 0.33999 0.0
C212 C 0.04811 0.18471 0.17312 0.0
C213 C 0.05081 0.18819 0.12041 0.0
C214 C 0.05477 0.23596 0.09778 0.0
C215 C 0.05367 0.27958 0.12706 0.0
C216 C 0.04883 0.27464 0.17876 0.0
C217 C 0.04667 0.22837 0.2016 0.0
C218 C 0.03727 0.23295 0.25722 0.0
C219 C 0.98829 0.20649 0.27241 0.0
C220 C 0.08213 0.2131 0.28733 0.0
C221 C 0.03278 0.28907 0.2619 0.0
C222 C 0.04031 0.31253 0.21645 0.0
C223 C 0.03664 0.36422 0.21134 0.0
C224 C 0.02543 0.39269 0.25395 0.0
C225 C 0.01753 0.36929 0.30092 0.0
C226 C 0.02127 0.31677 0.30465 0.0
H227 H 0.80041 0.04565 0.15076 0.0
H228 H 0.93523 0.05726 0.24129 0.0
H229 H 0.88327 0.05616 0.31774 0.0
H230 H 0.71732 0.12013 0.23387 0.0
H231 H 0.66468 0.07977 0.22108 0.0
H232 H 0.71194 0.08949 0.17393 0.0
H233 H 0.72499 0.99349 0.16775 0.0
H234 H 0.67852 0.98348 0.21538 0.0
H235 H 0.7408 0.95875 0.2233 0.0
H236 H 0.81723 0.04497 0.38403 0.0
H237 H 0.7424 0.02674 0.43498 0.0
H238 H 0.65204 0.01988 0.29985 0.0
C239 C 0.81923 0.04932 0.18648 0.0
C240 C 0.87205 0.05159 0.18988 0.0
C241 C 0.89486 0.05555 0.23763 0.0
C242 C 0.86566 0.05502 0.28128 0.0
C243 C 0.81383 0.05075 0.27643 0.0
C244 C 0.79082 0.04849 0.23019 0.0
C245 C 0.735 0.03992 0.23491 0.0
C246 C 0.7055 0.08501 0.21477 0.0
C247 C 0.71893 0.99101 0.2088 0.0
C248 C 0.73038 0.03594 0.29106 0.0
C249 C 0.77604 0.04308 0.31443 0.0
C250 C 0.78121 0.03978 0.36615 0.0
C251 C 0.73848 0.0292 0.39472 0.0
C252 C 0.69132 0.02151 0.3714 0.0
C253 C 0.68752 0.02506 0.31886 0.0
H254 H 0.01578 0.79737 0.15403 0.0
H255 H 0.01747 0.93286 0.2443 0.0
H256 H 0.03632 0.88268 0.31928 0.0
H257 H 0.95602 0.71957 0.24246 0.0
H258 H 0.99239 0.66491 0.22696 0.0
H259 H 0.98149 0.71216 0.18041 0.0
H260 H 0.07738 0.72076 0.16694 0.0
H261 H 0.08858 0.67392 0.21404 0.0
H262 H 0.11724 0.73481 0.2196 0.0
H263 H 0.04985 0.81721 0.38524 0.0
H264 H 0.05356 0.74103 0.43728 0.0
H265 H 0.04571 0.64964 0.30268 0.0
C266 C 0.01987 0.81655 0.18955 0.0
C267 C 0.01487 0.86899 0.19329 0.0
C268 C 0.02114 0.89266 0.24046 0.0
C269 C 0.03207 0.86456 0.28327 0.0
C270 C 0.03713 0.81297 0.27815 0.0
C271 C 0.03121 0.78922 0.2325 0.0
C272 C 0.03698 0.73321 0.23728 0.0
C273 C 0.98886 0.70588 0.22083 0.0
C274 C 0.08277 0.7146 0.20771 0.0
C275 C 0.0454 0.72906 0.29305 0.0
C276 C 0.04594 0.77543 0.31597 0.0
C277 C 0.05005 0.78065 0.36772 0.0
C278 C 0.05215 0.73716 0.39696 0.0
C279 C 0.04995 0.68922 0.37422 0.0
C280 C 0.04801 0.68553 0.32146 0.0
H281 H 0.30126 0.95244 0.34468 0.0
H282 H 0.43572 0.94082 0.2537 0.0
H283 H 0.38349 0.94306 0.17738 0.0
H284 H 0.21759 0.8791 0.26209 0.0
H285 H 0.16523 0.91957 0.27518 0.0
H286 H 0.21273 0.90977 0.32205 0.0
H287 H 0.22633 0.00575 0.32812 0.0
H288 H 0.17961 0.01585 0.28073 0.0
H289 H 0.24197 0.04044 0.27247 0.0
H290 H 0.31713 0.95445 0.11142 0.0
H291 H 0.24187 0.97162 0.0608 0.0
H292 H 0.15225 0.97837 0.19638 0.0
C293 C 0.31995 0.94906 0.30888 0.0
C294 C 0.37271 0.94637 0.30529 0.0
C295 C 0.39538 0.94284 0.25746 0.0
C296 C 0.36603 0.94404 0.21391 0.0
C297 C 0.31427 0.94863 0.21899 0.0
C298 C 0.29144 0.95061 0.26531 0.0
C299 C 0.23566 0.95927 0.26092 0.0
C300 C 0.20607 0.91424 0.28125 0.0
C301 C 0.22002 0.00823 0.2871 0.0
C302 C 0.23077 0.96327 0.20482 0.0
C303 C 0.27633 0.95639 0.18121 0.0
C304 C 0.28119 0.95948 0.12947 0.0
C305 C 0.23822 0.96943 0.1011 0.0
C306 C 0.19113 0.97662 0.12465 0.0
C307 C 0.18767 0.97353 0.17722 0.0
H308 H 0.94612 0.84349 0.80278 0.0
H309 H 0.93454 0.75226 0.9368 0.0
H310 H 0.93771 0.67602 0.88446 0.0
H311 H 0.87438 0.75963 0.71815 0.0
H312 H 0.9153 0.77335 0.66632 0.0
H313 H 0.9041 0.8201 0.71372 0.0
H314 H -0.00013 0.82775 0.72829 0.0
H315 H 0.01137 0.78041 0.68176 0.0
H316 H 0.03532 0.77268 0.74434 0.0
H317 H 0.95107 0.6103 0.81836 0.0
H318 H 0.97031 0.55988 0.74343 0.0
H319 H 0.97583 0.69545 0.65399 0.0
C320 C 0.94284 0.80764 0.82133 0.0
C321 C 0.94004 0.80398 0.87403 0.0
C322 C 0.93664 0.7561 0.89651 0.0
C323 C 0.93838 0.71258 0.8671 0.0
C324 C 0.94331 0.71773 0.81544 0.0
C325 C 0.94493 0.76409 0.79274 0.0
C326 C 0.95438 0.75979 0.73711 0.0
C327 C 0.90936 0.77937 0.70706 0.0
C328 C 0.00312 0.78674 0.72204 0.0
C329 C 0.95938 0.70374 0.73223 0.0
C330 C 0.95221 0.68006 0.77762 0.0
C331 C 0.95627 0.62838 0.78253 0.0
C332 C 0.96743 0.60014 0.73976 0.0
C333 C 0.97485 0.62375 0.69282 0.0
C334 C 0.97084 0.67626 0.68931 0.0
H335 H 0.18938 0.94659 0.84498 0.0
H336 H 0.0551 0.93476 0.75365 0.0
H337 H 0.10749 0.93664 0.6775 0.0
H338 H 0.24844 0.0345 0.77343 0.0
H339 H 0.31093 0.01037 0.78154 0.0
H340 H 0.2643 -0.00043 0.82885 0.0
H341 H 0.27835 0.90374 0.82213 0.0
H342 H 0.3258 0.91426 0.77534 0.0
H343 H 0.27366 0.87344 0.76196 0.0
H344 H 0.17376 0.94892 0.61176 0.0
H345 H 0.24867 0.96817 0.56139 0.0
H346 H 0.33831 0.97462 0.69704 0.0
C347 C 0.17077 0.94298 0.80914 0.0
C348 C 0.11799 0.94046 0.80542 0.0
C349 C 0.09544 0.93664 0.75754 0.0
C350 C 0.12489 0.93762 0.71407 0.0
C351 C 0.17666 0.94222 0.71925 0.0
C352 C 0.19941 0.94431 0.76563 0.0
C353 C 0.25516 0.95347 0.76133 0.0
C354 C 0.27056 0.00238 0.78785 0.0
C355 C 0.28499 0.90855 0.78136 0.0
C356 C 0.26005 0.95787 0.70525 0.0
C357 C 0.21458 0.95053 0.68156 0.0
C358 C 0.20965 0.95425 0.62987 0.0
C359 C 0.25243 0.96542 0.60164 0.0
C360 C 0.29941 0.97323 0.62528 0.0
C361 C 0.30298 0.96931 0.6778 0.0
H362 H 0.94965 0.3436 0.69121 0.0
H363 H 0.93792 0.25211 0.55699 0.0
H364 H 0.94108 0.17594 0.60918 0.0
H365 H 0.03853 0.27192 0.75046 0.0
H366 H 0.01404 0.28017 0.81278 0.0
H367 H 0.00347 0.32741 0.76612 0.0
H368 H 0.90752 0.32076 0.77985 0.0
H369 H 0.9178 0.27403 0.82727 0.0
H370 H 0.87724 0.26058 0.77501 0.0
H371 H 0.9531 0.11013 0.67547 0.0
H372 H 0.97066 0.05967 0.75058 0.0
H373 H 0.97715 0.19542 0.84024 0.0
C374 C 0.94646 0.3077 0.67257 0.0
C375 C 0.94341 0.30399 0.61983 0.0
C376 C 0.94014 0.25603 0.59727 0.0
C377 C 0.9419 0.21254 0.62661 0.0
C378 C 0.94678 0.21775 0.67832 0.0
C379 C 0.94853 0.26416 0.7011 0.0
C380 C 0.95742 0.25988 0.75685 0.0
C381 C 0.00626 0.28641 0.77242 0.0
C382 C 0.91231 0.27999 0.78648 0.0
C383 C 0.96182 0.20375 0.76176 0.0
C384 C 0.95492 0.18004 0.71623 0.0
C385 C 0.95818 0.12827 0.71137 0.0
C386 C 0.96835 0.09998 0.75428 0.0
C387 C 0.9756 0.12358 0.80137 0.0
C388 C 0.97232 0.1762 0.80484 0.0
H389 H 0.68906 0.05068 0.65228 0.0
H390 H 0.55423 0.0522 0.74349 0.0
H391 H 0.60644 0.04899 0.81962 0.0
H392 H 0.75098 0.96187 0.71917 0.0
H393 H 0.81263 0.98875 0.71293 0.0
H394 H 0.76593 0.00042 0.66592 0.0
H395 H 0.77644 0.09623 0.67805 0.0
H396 H 0.82406 0.0849 0.72446 0.0
H397 H 0.77047 0.1229 0.73978 0.0
H398 H 0.67255 0.03578 0.88479 0.0
H399 H 0.74785 0.01664 0.93459 0.0
H400 H 0.83833 0.02069 0.79951 0.0
C401 C 0.67024 0.05177 0.68816 0.0
C402 C 0.61741 0.05171 0.69178 0.0
C403 C 0.59461 0.0524 0.73966 0.0
C404 C 0.62394 0.05062 0.78314 0.0
C405 C 0.67583 0.04843 0.77796 0.0
C406 C 0.69879 0.0496 0.73168 0.0
C407 C 0.7548 0.04231 0.73581 0.0
C408 C 0.77205 0.99556 0.70675 0.0
C409 C 0.7831 0.08939 0.71851 0.0
C410 C 0.75957 0.035 0.79158 0.0
C411 C 0.7138 0.03948 0.81534 0.0
C412 C 0.70868 0.03275 0.86669 0.0
C413 C 0.75164 0.02165 0.89456 0.0
C414 C 0.79894 0.01688 0.87084 0.0
C415 C 0.80269 0.02359 0.81866 0.0
H416 H 0.29736 0.33783 0.97584 0.0
H417 H 0.43165 0.24645 0.98339 0.0
H418 H 0.38142 0.17136 0.96387 0.0
H419 H 0.21573 0.25182 0.03392 0.0
H420 H 0.16299 0.26679 0.99462 0.0
H421 H 0.21037 0.31321 0.00656 0.0
H422 H 0.22347 0.32386 0.91096 0.0
H423 H 0.17659 0.27679 0.89872 0.0
H424 H 0.23872 0.27 0.87322 0.0
H425 H 0.316 0.10577 0.94837 0.0
H426 H 0.2395 0.05412 0.94328 0.0
H427 H 0.14914 0.18941 0.94357 0.0
C428 C 0.31626 0.30204 0.97368 0.0
C429 C 0.36836 0.29798 0.98141 0.0
C430 C 0.3917 0.25048 0.97759 0.0
C431 C 0.36359 0.20764 0.96624 0.0
C432 C 0.31238 0.21309 0.95831 0.0
C433 C 0.28893 0.25906 0.96198 0.0
C434 C 0.23316 0.25458 0.95368 0.0
C435 C 0.20386 0.27264 -5e-05 0.0
C436 C 0.21706 0.28299 0.90633 0.0
C437 C 0.22869 0.19861 0.94653 0.0
C438 C 0.27481 0.17538 0.9486 0.0
C439 C 0.27965 0.12351 0.94615 0.0
C440 C 0.23595 0.0945 0.94323 0.0
C441 C 0.18817 0.11758 0.94314 0.0
C442 C 0.18493 0.17039 0.94316 0.0
H443 H 0.34201 0.68982 0.04053 0.0
H444 H 0.25082 0.55572 0.0554 0.0
H445 H 0.17452 0.60792 0.05339 0.0
H446 H 0.26068 0.77464 0.11362 0.0
H447 H 0.27327 0.8263 0.0722 0.0
H448 H 0.32023 0.77896 0.08211 0.0
H449 H 0.32477 0.76382 0.9863 0.0
H450 H 0.2773 0.81038 0.97611 0.0
H451 H 0.26849 0.74768 0.95261 0.0
H452 H 0.10846 0.67413 0.04187 0.0
H453 H 0.05771 0.74907 0.02412 0.0
H454 H 0.19355 0.83835 0.01418 0.0
C455 C 0.30619 0.67121 0.04464 0.0
C456 C 0.30253 0.61854 0.0482 0.0
C457 C 0.25466 0.59599 0.05272 0.0
C458 C 0.21111 0.62532 0.05165 0.0
C459 C 0.21623 0.67697 0.0462 0.0
C460 C 0.26262 0.69971 0.04325 0.0
C461 C 0.25822 0.7553 0.03378 0.0
C462 C 0.27934 0.78558 0.07807 0.0
C463 C 0.28369 0.77012 0.98427 0.0
C464 C 0.20201 0.76016 0.03046 0.0
C465 C 0.17838 0.71478 0.03837 0.0
C466 C 0.12653 0.70993 0.03603 0.0
C467 C 0.09809 0.75272 0.02572 0.0
C468 C 0.12166 0.79963 0.01745 0.0
C469 C 0.17434 0.80308 0.01985 0.0
H470 H 0.64762 0.29969 0.9474 0.0
H471 H 0.73841 0.43432 0.93512 0.0
H472 H 0.81487 0.38247 0.93728 0.0
H473 H 0.71906 0.24195 0.03557 0.0
H474 H 0.71153 0.1792 0.01176 0.0
H475 H 0.6639 0.22528 0.00031 0.0
H476 H 0.67123 0.21049 0.90463 0.0
H477 H 0.71827 0.1635 0.91578 0.0
H478 H 0.73159 0.21532 0.8748 0.0
H479 H 0.88093 0.31695 0.95059 0.0
H480 H 0.93171 0.24262 0.97058 0.0
H481 H 0.79642 0.15217 0.97678 0.0
C482 C 0.6834 0.31847 0.94372 0.0
C483 C 0.6869 0.3712 0.94112 0.0
C484 C 0.7347 0.394 0.93712 0.0
C485 C 0.77835 0.36486 0.93826 0.0
C486 C 0.7734 0.31315 0.94313 0.0
C487 C 0.72709 0.29013 0.94517 0.0
C488 C 0.73167 0.23455 0.9547 0.0
C489 C 0.70497 0.2194 0.00348 0.0
C490 C 0.71204 0.20418 0.9098 0.0
C491 C 0.7878 0.23014 0.95954 0.0
C492 C 0.81129 0.27565 0.95198 0.0
C493 C 0.86299 0.28102 0.95604 0.0
C494 C 0.89144 0.23859 0.96767 0.0
C495 C 0.868 0.19156 0.97558 0.0
C496 C 0.81548 0.18758 0.97145 0.0
H497 H 0.84138 0.80153 0.04559 0.0
H498 H 0.75001 0.93597 0.05206 0.0
H499 H 0.67378 0.88375 0.04678 0.0
H500 H 0.77313 0.74146 0.9548 0.0
H501 H 0.77997 0.67933 0.98005 0.0
H502 H 0.82707 0.72599 0.99228 0.0
H503 H 0.81643 0.71331 0.08789 0.0
H504 H 0.76994 0.66579 0.07598 0.0
H505 H 0.75504 0.71846 0.11549 0.0
H506 H 0.60831 0.81753 0.03236 0.0
H507 H 0.55817 0.74221 0.01359 0.0
H508 H 0.69368 0.6523 0.01386 0.0
C509 C 0.80545 0.82023 0.04726 0.0
C510 C 0.80183 0.873 0.0493 0.0
C511 C 0.75386 0.89564 0.05064 0.0
C512 C 0.71033 0.86629 0.04764 0.0
C513 C 0.71553 0.81453 0.04352 0.0
C514 C 0.76189 0.79169 0.04391 0.0
C515 C 0.75773 0.73586 0.0353 0.0
C516 C 0.78615 0.71975 0.98779 0.0
C517 C 0.77584 0.70664 0.08141 0.0
C518 C 0.70179 0.73099 0.02854 0.0
C519 C 0.67803 0.77662 0.03403 0.0
C520 C 0.62645 0.78154 0.02843 0.0
C521 C 0.59837 0.73854 0.01755 0.0
C522 C 0.62203 0.69133 0.01197 0.0
C523 C 0.67448 0.68782 0.01737 0.0
H524 H 0.68832 0.53076 0.84264 0.0
H525 H 0.5557 0.55718 0.75215 0.0
H526 H 0.60829 0.55575 0.67591 0.0
H527 H 0.77734 0.60277 0.76689 0.0
H528 H 0.82661 0.5579 0.77721 0.0
H529 H 0.77926 0.56746 0.82428 0.0
H530 H 0.75896 0.47247 0.82258 0.0
H531 H 0.80556 0.46268 0.77497 0.0
H532 H 0.74179 0.44318 0.7642 0.0
H533 H 0.67479 0.54493 0.60975 0.0
H534 H 0.74972 0.52754 0.55876 0.0
H535 H 0.83675 0.50553 0.69444 0.0
C536 C 0.67019 0.53756 0.80704 0.0
C537 C 0.61787 0.54434 0.80337 0.0
C538 C 0.59576 0.55198 0.75581 0.0
C539 C 0.6253 0.55129 0.71239 0.0
C540 C 0.67658 0.54285 0.71746 0.0
C541 C 0.69879 0.53645 0.76366 0.0
C542 C 0.75384 0.52435 0.75919 0.0
C543 C 0.78616 0.56559 0.78331 0.0
C544 C 0.76569 0.47261 0.78155 0.0
C545 C 0.75913 0.52415 0.70304 0.0
C546 C 0.71438 0.53532 0.67957 0.0
C547 C 0.71009 0.53644 0.62771 0.0
C548 C 0.75287 0.52632 0.59914 0.0
C549 C 0.79918 0.51492 0.62261 0.0
C550 C 0.80198 0.51372 0.67526 0.0
H551 H 0.18965 0.44098 0.64982 0.0
H552 H 0.05449 0.43783 0.74043 0.0
H553 H 0.10642 0.43816 0.81684 0.0
H554 H 0.26964 0.36491 0.73572 0.0
H555 H 0.32391 0.40257 0.72185 0.0
H556 H 0.27642 0.39299 0.67481 0.0
H557 H 0.26739 0.48917 0.66533 0.0
H558 H 0.31404 0.49911 0.71284 0.0
H559 H 0.2528 0.52663 0.7196 0.0
H560 H 0.17255 0.44927 0.88282 0.0
H561 H 0.24771 0.46777 0.93331 0.0
H562 H 0.33858 0.46612 0.79846 0.0
C563 C 0.17071 0.43895 0.68558 0.0
C564 C 0.11786 0.43946 0.68897 0.0
C565 C 0.09489 0.43743 0.73674 0.0
C566 C 0.12407 0.43751 0.7804 0.0
C567 C 0.17603 0.43923 0.77555 0.0
C568 C 0.19914 0.43928 0.7293 0.0
C569 C 0.25525 0.44577 0.73396 0.0
C570 C 0.28293 0.39876 0.7155 0.0
C571 C 0.27338 0.49297 0.70631 0.0
C572 C 0.25988 0.45165 0.78996 0.0
C573 C 0.21399 0.4468 0.81341 0.0
C574 C 0.20876 0.45255 0.86493 0.0
C575 C 0.25166 0.4633 0.89322 0.0
C576 C 0.29902 0.4688 0.86978 0.0
C577 C 0.30292 0.46266 0.81748 0.0
H578 H 0.15266 0.47436 0.29875 0.0
H579 H 0.2432 0.47462 0.43389 0.0
H580 H 0.31831 0.45589 0.38357 0.0
H581 H 0.21929 0.37295 0.23623 0.0
H582 H 0.21323 0.40121 0.17535 0.0
H583 H 0.16605 0.41195 0.22237 0.0
H584 H 0.17827 0.50792 0.21355 0.0
H585 H 0.22491 0.49748 0.16616 0.0
H586 H 0.24006 0.53432 0.2207 0.0
H587 H 0.38435 0.44303 0.31791 0.0
H588 H 0.43636 0.44024 0.24156 0.0
H589 H 0.30136 0.44569 0.1507 0.0
C590 C 0.18826 0.47067 0.31783 0.0
C591 C 0.19208 0.47627 0.37017 0.0
C592 C 0.23934 0.4705 0.39374 0.0
C593 C 0.2822 0.45962 0.36557 0.0
C594 C 0.27701 0.45407 0.31404 0.0
C595 C 0.23124 0.45938 0.29044 0.0
C596 C 0.23596 0.45341 0.23445 0.0
C597 C 0.20691 0.40713 0.21604 0.0
C598 C 0.21881 0.50112 0.20714 0.0
C599 C 0.29187 0.44579 0.23012 0.0
C600 C 0.31489 0.44564 0.27639 0.0
C601 C 0.36675 0.44249 0.28142 0.0
C602 C 0.39597 0.44094 0.23784 0.0
C603 C 0.37307 0.44278 0.19002 0.0
C604 C 0.32025 0.44373 0.18651 0.0
H605 H 0.65254 0.51798 0.19502 0.0
H606 H 0.7421 0.52445 0.05941 0.0
H607 H 0.81727 0.54258 0.11 0.0
H608 H 0.71791 0.61808 0.26098 0.0
H609 H 0.71268 0.58739 0.32075 0.0
H610 H 0.66542 0.5775 0.27358 0.0
H611 H 0.67935 0.48154 0.27874 0.0
H612 H 0.72619 0.49111 0.3262 0.0
H613 H 0.74153 0.45668 0.2702 0.0
H614 H 0.88377 0.55418 0.17604 0.0
H615 H 0.93605 0.55617 0.25234 0.0
H616 H 0.80158 0.54475 0.34333 0.0
C617 C 0.6879 0.52311 0.17582 0.0
C618 C 0.69137 0.51947 0.12325 0.0
C619 C 0.73841 0.527 0.0997 0.0
C620 C 0.78134 0.53753 0.12805 0.0
C621 C 0.77651 0.54092 0.17981 0.0
C622 C 0.73095 0.53402 0.20342 0.0
C623 C 0.73595 0.53796 0.25958 0.0
C624 C 0.70623 0.58291 0.2799 0.0
C625 C 0.71983 0.48891 0.28516 0.0
C626 C 0.79176 0.54655 0.26396 0.0
C627 C 0.81453 0.54866 0.21762 0.0
C628 C 0.86632 0.55318 0.21257 0.0
C629 C 0.89571 0.55426 0.25613 0.0
C630 C 0.87308 0.55071 0.30398 0.0
C631 C 0.82029 0.54814 0.30755 0.0
H632 H 0.29669 0.84066 0.51692 0.0
H633 H 0.43216 0.75068 0.51799 0.0
H634 H 0.38187 0.67554 0.53662 0.0
H635 H 0.23412 0.77501 0.61811 0.0
H636 H 0.17316 0.78036 0.58964 0.0
H637 H 0.22007 0.82758 0.57837 0.0
H638 H 0.21133 0.81395 0.48259 0.0
H639 H 0.16401 0.76727 0.49355 0.0
H640 H 0.21865 0.75186 0.45706 0.0
H641 H 0.31635 0.60943 0.55024 0.0
H642 H 0.2401 0.55716 0.55419 0.0
H643 H 0.14872 0.69154 0.54689 0.0
C644 C 0.31585 0.80517 0.52079 0.0
C645 C 0.36831 0.80157 0.51571 0.0
C646 C 0.39194 0.75442 0.5217 0.0
C647 C 0.36377 0.71152 0.53252 0.0
C648 C 0.31217 0.71651 0.53771 0.0
C649 C 0.28845 0.76211 0.53199 0.0
C650 C 0.2324 0.75719 0.53791 0.0
C651 C 0.21387 0.78679 0.58373 0.0
C652 C 0.20501 0.7735 0.48992 0.0
C653 C 0.22821 0.70139 0.54626 0.0
C654 C 0.27459 0.6786 0.54658 0.0
C655 C 0.27978 0.62685 0.55061 0.0
C656 C 0.23624 0.59749 0.55286 0.0
C657 C 0.18828 0.6201 0.55088 0.0
C658 C 0.18463 0.67286 0.54901 0.0
H659 H 0.1946 0.34071 0.47543 0.0
H660 H 0.05923 0.25031 0.4702 0.0
H661 H 0.10988 0.17564 0.45097 0.0
H662 H 0.25976 0.27577 0.37429 0.0
H663 H 0.3199 0.28131 0.40447 0.0
H664 H 0.27264 0.32833 0.41473 0.0
H665 H 0.27879 0.31456 0.51065 0.0
H666 H 0.3264 0.26808 0.50069 0.0
H667 H 0.2708 0.25239 0.53557 0.0
H668 H 0.17574 0.10983 0.43866 0.0
H669 H 0.25209 0.05779 0.4375 0.0
H670 H 0.34312 0.19249 0.44816 0.0
C671 C 0.17552 0.30525 0.47037 0.0
C672 C 0.12301 0.30136 0.47462 0.0
C673 C 0.09949 0.25426 0.46715 0.0
C674 C 0.12786 0.21165 0.45595 0.0
C675 C 0.17954 0.2169 0.45182 0.0
C676 C 0.20311 0.26251 0.45877 0.0
C677 C 0.25927 0.25783 0.4544 0.0
C678 C 0.27904 0.28757 0.40928 0.0
C679 C 0.28532 0.27415 0.50323 0.0
C680 C 0.2637 0.20209 0.44579 0.0
C681 C 0.21736 0.17915 0.44376 0.0
C682 C 0.2123 0.12737 0.43957 0.0
C683 C 0.25588 0.09814 0.43898 0.0
C684 C 0.30371 0.12093 0.4428 0.0
C685 C 0.30732 0.17369 0.44469 0.0
H686 H 0.79668 0.65405 0.51443 0.0
H687 H 0.93255 0.74347 0.52299 0.0
H688 H 0.88199 0.81847 0.54118 0.0
H689 H 0.72164 0.74425 0.45346 0.0
H690 H 0.66549 0.7284 0.48738 0.0
H691 H 0.71292 0.68172 0.47722 0.0
H692 H 0.7178 0.66625 0.57293 0.0
H693 H 0.67072 0.71339 0.58341 0.0
H694 H 0.73051 0.71803 0.61442 0.0
H695 H 0.81613 0.88471 0.55363 0.0
H696 H 0.7399 0.93696 0.55669 0.0
H697 H 0.64845 0.80287 0.54262 0.0
C698 C 0.81591 0.68938 0.5199 0.0
C699 C 0.86857 0.69283 0.517 0.0
C700 C 0.89219 0.7398 0.525 0.0
C701 C 0.86386 0.78263 0.53556 0.0
C702 C 0.81204 0.77779 0.53844 0.0
C703 C 0.78832 0.73235 0.53085 0.0
C704 C 0.73211 0.73734 0.53465 0.0
C705 C 0.70656 0.72205 0.48524 0.0
C706 C 0.7116 0.70695 0.57899 0.0
C707 C 0.72788 0.79298 0.54413 0.0
C708 C 0.7743 0.81568 0.54666 0.0
C709 C 0.77952 0.86733 0.55224 0.0
C710 C 0.736 0.89669 0.55396 0.0
C711 C 0.68805 0.87418 0.54999 0.0
C712 C 0.68433 0.82148 0.54632 0.0
H713 H 0.69421 0.15461 0.47849 0.0
H714 H 0.55942 0.24559 0.48045 0.0
H715 H 0.60974 0.32024 0.46 0.0
H716 H 0.77417 0.243 0.536 0.0
H717 H 0.82783 0.22698 0.49835 0.0
H718 H 0.7804 0.18074 0.51058 0.0
H719 H 0.76946 0.1668 0.41506 0.0
H720 H 0.81641 0.21366 0.40253 0.0
H721 H 0.75484 0.21931 0.37543 0.0
H722 H 0.67527 0.38567 0.44426 0.0
H723 H 0.75173 0.43745 0.43928 0.0
H724 H 0.84243 0.30254 0.44515 0.0
C725 C 0.67522 0.19022 0.47492 0.0
C726 C 0.62294 0.19426 0.4813 0.0
C727 C 0.5995 0.24155 0.4757 0.0
C728 C 0.62767 0.28414 0.46382 0.0
C729 C 0.67907 0.27869 0.45723 0.0
C730 C 0.70261 0.23297 0.4627 0.0
C731 C 0.75853 0.23744 0.4555 0.0
C732 C 0.78688 0.2211 0.50293 0.0
C733 C 0.7758 0.20753 0.40939 0.0
C734 C 0.76291 0.29316 0.44682 0.0
C735 C 0.71668 0.31626 0.44729 0.0
C736 C 0.71172 0.36801 0.44329 0.0
C737 C 0.75538 0.3971 0.44045 0.0
C738 C 0.80322 0.37419 0.4419 0.0
C739 C 0.80661 0.32142 0.44348 0.0
H740 H 0.51158 0.37964 0.75468 0.0
H741 H 0.40176 0.325 0.86083 0.0
H742 H 0.36974 0.26539 0.79777 0.0
H743 H 0.4344 0.36115 0.63833 0.0
H744 H 0.48751 0.33977 0.60258 0.0
H745 H 0.49618 0.38462 0.65238 0.0
H746 H 0.56118 0.3262 0.69435 0.0
H747 H 0.55308 0.28164 0.6445 0.0
H748 H 0.54385 0.26251 0.70849 0.0
H749 H 0.35661 0.20576 0.72938 0.0
H750 H 0.36799 0.14364 0.66209 0.0
H751 H 0.4872 0.23373 0.59866 0.0
C752 C 0.4802 0.35565 0.76391 0.0
C753 C 0.45876 0.3566 0.81211 0.0
C754 C 0.41848 0.32436 0.82386 0.0
C755 C 0.39977 0.29088 0.7882 0.0
C756 C 0.422 0.29003 0.74106 0.0
C757 C 0.46159 0.32119 0.72881 0.0
C758 C 0.48273 0.30793 0.67778 0.0
C759 C 0.47471 0.35094 0.64056 0.0
C760 C 0.53849 0.2937 0.68154 0.0
C761 C 0.4504 0.26305 0.66447 0.0
C762 C 0.41475 0.25441 0.70102 0.0
C763 C 0.38361 0.21259 0.69997 0.0
C764 C 0.39035 0.17753 0.66169 0.0
C765 C 0.42795 0.18445 0.62507 0.0
C766 C 0.45718 0.22854 0.62543 0.0
H767 H 0.48802 0.79548 0.6532 0.0
H768 H 0.45528 0.92891 0.74068 0.0
H769 H 0.43496 0.87619 0.81334 0.0
H770 H 0.38985 0.71826 0.70581 0.0
H771 H 0.42757 0.66236 0.70508 0.0
H772 H 0.43804 0.71057 0.65919 0.0
H773 H 0.53147 0.71629 0.68555 0.0
H774 H 0.52136 0.66775 0.731 0.0
H775 H 0.54698 0.72718 0.75033 0.0
H776 H 0.42242 0.80921 0.87787 0.0
H777 H 0.42129 0.73276 0.92977 0.0
H778 H 0.45994 0.64411 0.79885 0.0
C779 C 0.47678 0.81378 0.6876 0.0
C780 C 0.47354 0.8664 0.69111 0.0
C781 C 0.45826 0.88865 0.73692 0.0
C782 C 0.44636 0.85906 0.77843 0.0
C783 C 0.44965 0.80733 0.77349 0.0
C784 C 0.46456 0.7849 0.72928 0.0
C785 C 0.46637 0.72861 0.7341 0.0
C786 C 0.42818 0.70349 0.69896 0.0
C787 C 0.5197 0.70882 0.72472 0.0
C788 C 0.45126 0.72301 0.7883 0.0
C789 C 0.4414 0.76874 0.81034 0.0
C790 C 0.42957 0.77307 0.86097 0.0
C791 C 0.42906 0.7295 0.89012 0.0
C792 C 0.44028 0.6824 0.86839 0.0
C793 C 0.45034 0.67931 0.81656 0.0
H794 H 0.50817 0.69891 0.15111 0.0
H795 H 0.52287 0.56363 0.24003 0.0
H796 H 0.54134 0.61466 0.31448 0.0
H797 H 0.60756 0.7682 0.21251 0.0
H798 H 0.57475 0.82703 0.20941 0.0
H799 H 0.56408 0.77986 0.16228 0.0
H800 H 0.46872 0.78179 0.181 0.0
H801 H 0.47907 0.82935 0.22766 0.0
H802 H 0.44721 0.77221 0.24421 0.0
H803 H 0.55465 0.68016 0.38025 0.0
H804 H 0.55807 0.75607 0.43304 0.0
H805 H 0.5366 0.84786 0.30064 0.0
C806 C 0.515 0.67995 0.18623 0.0
C807 C 0.51392 0.62723 0.18956 0.0
C808 C 0.52353 0.60398 0.23632 0.0
C809 C 0.53427 0.6326 0.27891 0.0
C810 C 0.53555 0.68439 0.27418 0.0
C811 C 0.52604 0.70789 0.22912 0.0
C812 C 0.52846 0.76417 0.23447 0.0
C813 C 0.57126 0.78609 0.20279 0.0
C814 C 0.47786 0.78827 0.22106 0.0
C815 C 0.5396 0.76854 0.28982 0.0
C816 C 0.544 0.72215 0.31201 0.0
C817 C 0.55169 0.71679 0.36331 0.0
C818 C 0.5536 0.76012 0.39297 0.0
C819 C 0.54774 0.80803 0.37111 0.0
C820 C 0.54188 0.81198 0.31866 0.0
H821 H 0.51471 0.20027 0.34461 0.0
H822 H 0.52483 0.06444 0.25528 0.0
H823 H 0.54586 0.11466 0.18118 0.0
H824 H 0.45637 0.27472 0.25301 0.0
H825 H 0.48989 0.33105 0.26935 0.0
H826 H 0.47896 0.28385 0.31597 0.0
H827 H 0.57451 0.27951 0.33341 0.0
H828 H 0.58574 0.32631 0.28623 0.0
H829 H 0.617 0.26666 0.28259 0.0
H830 H 0.56003 0.17936 0.11563 0.0
H831 H 0.5618 0.25478 0.06254 0.0
H832 H 0.5445 0.34769 0.1952 0.0
C833 C 0.5212 0.18103 0.30949 0.0
C834 C 0.51794 0.12845 0.30585 0.0
C835 C 0.52713 0.10474 0.25915 0.0
C836 C 0.53941 0.13286 0.21682 0.0
C837 C 0.54272 0.18455 0.22183 0.0
C838 C 0.53378 0.20845 0.26689 0.0
C839 C 0.53751 0.26461 0.26166 0.0
C840 C 0.48773 0.29003 0.27581 0.0
C841 C 0.5813 0.28549 0.29282 0.0
C842 C 0.54805 0.2685 0.2062 0.0
C843 C 0.55166 0.22193 0.18402 0.0
C844 C 0.55786 0.21613 0.13256 0.0
C845 C 0.55878 0.25918 0.10273 0.0
C846 C 0.55325 0.30722 0.12459 0.0
C847 C 0.54941 0.31168 0.17718 0.0
loop_
_geom_bond_atom_site_label_1
_geom_bond_atom_site_label_2
_geom_bond_distance
_geom_bond_site_symmetry_2
_ccdc_geom_bond_type
O0 Zr5 2.207 1_565 S
O0 C34 1.295 . S
O1 Zr5 2.133 1_565 S
O1 Zr6 2.133 1_565 S
O1 Zr7 2.133 . S
O2 Zr5 2.133 1_556 S
O2 Zr11 2.133 1_556 S
O2 Zr12 2.133 . S
O3 Zr5 2.133 1_566 S
O3 Zr7 2.133 1_556 S
O3 Zr12 2.133 1_565 S
O4 Zr5 2.133 . S
O4 Zr6 2.133 . S
O4 Zr11 2.133 . S
Zr5 O0 2.207 1_545 S
Zr5 O1 2.133 1_545 S
Zr5 O2 2.133 1_554 S
Zr5 O3 2.133 1_544 S
Zr5 O4 2.133 . S
Zr5 O17 2.207 . S
Zr5 O30 2.207 . S
Zr5 O33 2.207 1_554 S
Zr6 O1 2.133 1_545 S
Zr6 O4 2.133 . S
Zr6 O8 2.133 1_455 S
Zr6 O10 2.133 1_445 S
Zr6 O22 2.207 1_455 S
Zr6 O25 2.207 . S
Zr6 O35 2.207 . S
Zr6 O36 2.207 1_545 S
Zr7 O1 2.133 . S
Zr7 O3 2.133 1_554 S
Zr7 O9 2.133 1_454 S
Zr7 O10 2.133 1_455 S
Zr7 O19 2.207 . S
Zr7 O20 2.207 1_554 S
Zr7 O27 2.207 . S
Zr7 O28 2.207 1_455 S
O8 Zr6 2.133 1_655 S
O8 Zr11 2.133 1_655 S
O8 Zr13 2.133 . S
O9 Zr7 2.133 1_656 S
O9 Zr12 2.133 1_665 S
O9 Zr13 2.133 1_566 S
O10 Zr6 2.133 1_665 S
O10 Zr7 2.133 1_655 S
O10 Zr13 2.133 1_565 S
Zr11 O2 2.133 1_554 S
Zr11 O4 2.133 . S
Zr11 O8 2.133 1_455 S
Zr11 O14 2.133 1_454 S
Zr11 O18 2.207 1_554 S
Zr11 O21 2.207 . S
Zr11 O26 2.207 1_455 S
Zr11 O29 2.207 . S
Zr12 O2 2.133 . S
Zr12 O3 2.133 1_545 S
Zr12 O9 2.133 1_445 S
Zr12 O14 2.133 1_455 S
Zr12 O23 2.207 . S
Zr12 O24 2.207 1_455 S
Zr12 O48 2.207 1_545 S
Zr12 O49 2.207 . S
Zr13 O8 2.133 . S
Zr13 O9 2.133 1_544 S
Zr13 O10 2.133 1_545 S
Zr13 O14 2.133 1_554 S
Zr13 O15 2.207 . S
Zr13 O16 2.207 1_545 S
Zr13 O31 2.207 1_554 S
Zr13 O32 2.207 . S
O14 Zr11 2.133 1_656 S
O14 Zr12 2.133 1_655 S
O14 Zr13 2.133 1_556 S
O15 Zr13 2.207 . S
O15 C37 1.295 . S
O16 Zr13 2.207 1_565 S
O16 C38 1.295 . S
O17 Zr5 2.207 . S
O17 C39 1.295 . S
O18 Zr11 2.207 1_556 S
O18 C40 1.295 . S
O19 Zr7 2.207 . S
O19 C41 1.295 . S
O20 Zr7 2.207 1_556 S
O20 C42 1.295 . S
O21 Zr11 2.207 . S
O21 C43 1.295 . S
O22 Zr6 2.207 1_655 S
O22 C44 1.295 . S
O23 Zr12 2.207 . S
O23 C45 1.295 . S
O24 Zr12 2.207 1_655 S
O24 C46 1.295 . S
O25 Zr6 2.207 . S
O25 C47 1.295 . S
O26 Zr11 2.207 1_655 S
O26 C37 1.295 . S
O27 Zr7 2.207 . S
O27 C34 1.295 . S
O28 Zr7 2.207 1_655 S
O28 C38 1.295 . S
O29 Zr11 2.207 . S
O29 C39 1.295 . S
O30 Zr5 2.207 . S
O30 C47 1.295 . S
O31 Zr13 2.207 1_556 S
O31 C46 1.295 . S
O32 Zr13 2.207 . S
O32 C44 1.295 . S
O33 Zr5 2.207 1_556 S
O33 C45 1.295 . S
C34 O0 1.295 . S
C34 O27 1.295 . S
O35 Zr6 2.207 . S
O35 C43 1.295 . S
O36 Zr6 2.207 1_565 S
O36 C41 1.295 . S
C37 O15 1.295 . S
C37 O26 1.295 . S
C38 O16 1.295 . S
C38 O28 1.295 . S
C39 O17 1.295 . S
C39 O29 1.295 . S
C40 O18 1.295 . S
C40 O49 1.295 . S
C41 O19 1.295 . S
C41 O36 1.295 . S
C42 O20 1.295 . S
C42 O48 1.295 . S
C43 O21 1.295 . S
C43 O35 1.295 . S
C44 O22 1.295 . S
C44 O32 1.295 . S
C45 O23 1.295 . S
C45 O33 1.295 . S
C46 O24 1.295 . S
C46 O31 1.295 . S
C47 O25 1.295 . S
C47 O30 1.295 . S
O48 Zr12 2.207 1_565 S
O48 C42 1.295 . S
O49 Zr12 2.207 . S
O49 C40 1.295 . S
O50 Zr55 2.207 . S
O50 C84 1.295 . S
O51 Zr55 2.133 . S
O51 Zr56 2.133 . S
O51 Zr57 2.133 . S
O52 Zr55 2.133 . S
O52 Zr61 2.133 . S
O52 Zr62 2.133 . S
O53 Zr55 2.133 . S
O53 Zr57 2.133 . S
O53 Zr62 2.133 . S
O54 Zr55 2.133 . S
O54 Zr56 2.133 . S
O54 Zr61 2.133 . S
Zr55 O50 2.207 . S
Zr55 O51 2.133 . S
Zr55 O52 2.133 . S
Zr55 O53 2.133 . S
Zr55 O54 2.133 . S
Zr55 O67 2.207 . S
Zr55 O80 2.207 . S
Zr55 O83 2.207 . S
Zr56 O51 2.133 . S
Zr56 O54 2.133 . S
Zr56 O58 2.133 1_455 S
Zr56 O60 2.133 1_455 S
Zr56 O72 2.207 1_455 S
Zr56 O75 2.207 . S
Zr56 O85 2.207 . S
Zr56 O86 2.207 . S
Zr57 O51 2.133 . S
Zr57 O53 2.133 . S
Zr57 O59 2.133 1_455 S
Zr57 O60 2.133 1_455 S
Zr57 O69 2.207 . S
Zr57 O70 2.207 . S
Zr57 O77 2.207 . S
Zr57 O78 2.207 1_455 S
O58 Zr56 2.133 1_655 S
O58 Zr61 2.133 1_655 S
O58 Zr63 2.133 . S
O59 Zr57 2.133 1_655 S
O59 Zr62 2.133 1_655 S
O59 Zr63 2.133 . S
O60 Zr56 2.133 1_655 S
O60 Zr57 2.133 1_655 S
O60 Zr63 2.133 . S
Zr61 O52 2.133 . S
Zr61 O54 2.133 . S
Zr61 O58 2.133 1_455 S
Zr61 O64 2.133 1_455 S
Zr61 O68 2.207 . S
Zr61 O71 2.207 . S
Zr61 O76 2.207 1_455 S
Zr61 O79 2.207 . S
Zr62 O52 2.133 . S
Zr62 O53 2.133 . S
Zr62 O59 2.133 1_455 S
Zr62 O64 2.133 1_455 S
Zr62 O73 2.207 . S
Zr62 O74 2.207 1_455 S
Zr62 O98 2.207 . S
Zr62 O99 2.207 . S
Zr63 O58 2.133 . S
Zr63 O59 2.133 . S
Zr63 O60 2.133 . S
Zr63 O64 2.133 . S
Zr63 O65 2.207 . S
Zr63 O66 2.207 . S
Zr63 O81 2.207 . S
Zr63 O82 2.207 . S
O64 Zr61 2.133 1_655 S
O64 Zr62 2.133 1_655 S
O64 Zr63 2.133 . S
O65 Zr63 2.207 . S
O65 C87 1.295 . S
O66 Zr63 2.207 . S
O66 C88 1.295 . S
O67 Zr55 2.207 . S
O67 C89 1.295 . S
O68 Zr61 2.207 . S
O68 C90 1.295 . S
O69 Zr57 2.207 . S
O69 C91 1.295 . S
O70 Zr57 2.207 . S
O70 C92 1.295 . S
O71 Zr61 2.207 . S
O71 C93 1.295 . S
O72 Zr56 2.207 1_655 S
O72 C94 1.295 . S
O73 Zr62 2.207 . S
O73 C95 1.295 . S
O74 Zr62 2.207 1_655 S
O74 C96 1.295 . S
O75 Zr56 2.207 . S
O75 C97 1.295 . S
O76 Zr61 2.207 1_655 S
O76 C87 1.295 . S
O77 Zr57 2.207 . S
O77 C84 1.295 . S
O78 Zr57 2.207 1_655 S
O78 C88 1.295 . S
O79 Zr61 2.207 . S
O79 C89 1.295 . S
O80 Zr55 2.207 . S
O80 C97 1.295 . S
O81 Zr63 2.207 . S
O81 C96 1.295 . S
O82 Zr63 2.207 . S
O82 C94 1.295 . S
O83 Zr55 2.207 . S
O83 C95 1.295 . S
C84 O50 1.295 . S
C84 O77 1.295 . S
O85 Zr56 2.207 . S
O85 C93 1.295 . S
O86 Zr56 2.207 . S
O86 C91 1.295 . S
C87 O65 1.295 . S
C87 O76 1.295 . S
C88 O66 1.295 . S
C88 O78 1.295 . S
C89 O67 1.295 . S
C89 O79 1.295 . S
C90 O68 1.295 . S
C90 O99 1.295 . S
C91 O69 1.295 . S
C91 O86 1.295 . S
C92 O70 1.295 . S
C92 O98 1.295 . S
C93 O71 1.295 . S
C93 O85 1.295 . S
C94 O72 1.295 . S
C94 O82 1.295 . S
C95 O73 1.295 . S
C95 O83 1.295 . S
C96 O74 1.295 . S
C96 O81 1.295 . S
C97 O75 1.295 . S
C97 O80 1.295 . S
O98 Zr62 2.207 . S
O98 C92 1.295 . S
O99 Zr62 2.207 . S
O99 C90 1.295 . S
O100 Zr105 2.207 . S
O100 C134 1.295 . S
O101 Zr105 2.133 . S
O101 Zr106 2.133 . S
O101 Zr107 2.133 . S
O102 Zr105 2.133 1_565 S
O102 Zr111 2.133 1_565 S
O102 Zr112 2.133 . S
O103 Zr105 2.133 1_565 S
O103 Zr107 2.133 1_565 S
O103 Zr112 2.133 . S
O104 Zr105 2.133 . S
O104 Zr106 2.133 . S
O104 Zr111 2.133 . S
Zr105 O100 2.207 . S
Zr105 O101 2.133 . S
Zr105 O102 2.133 1_545 S
Zr105 O103 2.133 1_545 S
Zr105 O104 2.133 . S
Zr105 O117 2.207 . S
Zr105 O130 2.207 . S
Zr105 O133 2.207 1_545 S
Zr106 O101 2.133 . S
Zr106 O104 2.133 . S
Zr106 O108 2.133 . S
Zr106 O110 2.133 . S
Zr106 O122 2.207 . S
Zr106 O125 2.207 . S
Zr106 O135 2.207 . S
Zr106 O136 2.207 . S
Zr107 O101 2.133 . S
Zr107 O103 2.133 1_545 S
Zr107 O109 2.133 1_545 S
Zr107 O110 2.133 . S
Zr107 O119 2.207 . S
Zr107 O120 2.207 1_545 S
Zr107 O127 2.207 . S
Zr107 O128 2.207 . S
O108 Zr106 2.133 . S
O108 Zr111 2.133 . S
O108 Zr113 2.133 . S
O109 Zr107 2.133 1_565 S
O109 Zr112 2.133 . S
O109 Zr113 2.133 1_565 S
O110 Zr106 2.133 . S
O110 Zr107 2.133 . S
O110 Zr113 2.133 . S
Zr111 O102 2.133 1_545 S
Zr111 O104 2.133 . S
Zr111 O108 2.133 . S
Zr111 O114 2.133 1_545 S
Zr111 O118 2.207 1_545 S
Zr111 O121 2.207 . S
Zr111 O126 2.207 . S
Zr111 O129 2.207 . S
Zr112 O102 2.133 . S
Zr112 O103 2.133 . S
Zr112 O109 2.133 . S
Zr112 O114 2.133 . S
Zr112 O123 2.207 . S
Zr112 O124 2.207 . S
Zr112 O148 2.207 . S
Zr112 O149 2.207 . S
Zr113 O108 2.133 . S
Zr113 O109 2.133 1_545 S
Zr113 O110 2.133 . S
Zr113 O114 2.133 1_545 S
Zr113 O115 2.207 . S
Zr113 O116 2.207 . S
Zr113 O131 2.207 1_545 S
Zr113 O132 2.207 . S
O114 Zr111 2.133 1_565 S
O114 Zr112 2.133 . S
O114 Zr113 2.133 1_565 S
O115 Zr113 2.207 . S
O115 C137 1.295 . S
O116 Zr113 2.207 . S
O116 C138 1.295 . S
O117 Zr105 2.207 . S
O117 C139 1.295 . S
O118 Zr111 2.207 1_565 S
O118 C140 1.295 . S
O119 Zr107 2.207 . S
O119 C141 1.295 . S
O120 Zr107 2.207 1_565 S
O120 C142 1.295 . S
O121 Zr111 2.207 . S
O121 C143 1.295 . S
O122 Zr106 2.207 . S
O122 C144 1.295 . S
O123 Zr112 2.207 . S
O123 C145 1.295 . S
O124 Zr112 2.207 . S
O124 C146 1.295 . S
O125 Zr106 2.207 . S
O125 C147 1.295 . S
O126 Zr111 2.207 . S
O126 C137 1.295 . S
O127 Zr107 2.207 . S
O127 C134 1.295 . S
O128 Zr107 2.207 . S
O128 C138 1.295 . S
O129 Zr111 2.207 . S
O129 C139 1.295 . S
O130 Zr105 2.207 . S
O130 C147 1.295 . S
O131 Zr113 2.207 1_565 S
O131 C146 1.295 . S
O132 Zr113 2.207 . S
O132 C144 1.295 . S
O133 Zr105 2.207 1_565 S
O133 C145 1.295 . S
C134 O100 1.295 . S
C134 O127 1.295 . S
O135 Zr106 2.207 . S
O135 C143 1.295 . S
O136 Zr106 2.207 . S
O136 C141 1.295 . S
C137 O115 1.295 . S
C137 O126 1.295 . S
C138 O116 1.295 . S
C138 O128 1.295 . S
C139 O117 1.295 . S
C139 O129 1.295 . S
C140 O118 1.295 . S
C140 O149 1.295 . S
C141 O119 1.295 . S
C141 O136 1.295 . S
C142 O120 1.295 . S
C142 O148 1.295 . S
C143 O121 1.295 . S
C143 O135 1.295 . S
C144 O122 1.295 . S
C144 O132 1.295 . S
C145 O123 1.295 . S
C145 O133 1.295 . S
C146 O124 1.295 . S
C146 O131 1.295 . S
C147 O125 1.295 . S
C147 O130 1.295 . S
O148 Zr112 2.207 . S
O148 C142 1.295 . S
O149 Zr112 2.207 . S
O149 C140 1.295 . S
O150 Zr155 2.207 . S
O150 C184 1.295 . S
O151 Zr155 2.133 . S
O151 Zr156 2.133 . S
O151 Zr157 2.133 . S
O152 Zr155 2.133 1_556 S
O152 Zr161 2.133 1_556 S
O152 Zr162 2.133 . S
O153 Zr155 2.133 1_556 S
O153 Zr157 2.133 1_556 S
O153 Zr162 2.133 . S
O154 Zr155 2.133 . S
O154 Zr156 2.133 . S
O154 Zr161 2.133 . S
Zr155 O150 2.207 . S
Zr155 O151 2.133 . S
Zr155 O152 2.133 1_554 S
Zr155 O153 2.133 1_554 S
Zr155 O154 2.133 . S
Zr155 O167 2.207 . S
Zr155 O180 2.207 . S
Zr155 O183 2.207 1_554 S
Zr156 O151 2.133 . S
Zr156 O154 2.133 . S
Zr156 O158 2.133 . S
Zr156 O160 2.133 . S
Zr156 O172 2.207 . S
Zr156 O175 2.207 . S
Zr156 O185 2.207 . S
Zr156 O186 2.207 . S
Zr157 O151 2.133 . S
Zr157 O153 2.133 1_554 S
Zr157 O159 2.133 1_554 S
Zr157 O160 2.133 . S
Zr157 O169 2.207 . S
Zr157 O170 2.207 1_554 S
Zr157 O177 2.207 . S
Zr157 O178 2.207 . S
O158 Zr156 2.133 . S
O158 Zr161 2.133 . S
O158 Zr163 2.133 . S
O159 Zr157 2.133 1_556 S
O159 Zr162 2.133 . S
O159 Zr163 2.133 1_556 S
O160 Zr156 2.133 . S
O160 Zr157 2.133 . S
O160 Zr163 2.133 . S
Zr161 O152 2.133 1_554 S
Zr161 O154 2.133 . S
Zr161 O158 2.133 . S
Zr161 O164 2.133 1_554 S
Zr161 O168 2.207 1_554 S
Zr161 O171 2.207 . S
Zr161 O176 2.207 . S
Zr161 O179 2.207 . S
Zr162 O152 2.133 . S
Zr162 O153 2.133 . S
Zr162 O159 2.133 . S
Zr162 O164 2.133 . S
Zr162 O173 2.207 . S
Zr162 O174 2.207 . S
Zr162 O198 2.207 . S
Zr162 O199 2.207 . S
Zr163 O158 2.133 . S
Zr163 O159 2.133 1_554 S
Zr163 O160 2.133 . S
Zr163 O164 2.133 1_554 S
Zr163 O165 2.207 . S
Zr163 O166 2.207 . S
Zr163 O181 2.207 1_554 S
Zr163 O182 2.207 . S
O164 Zr161 2.133 1_556 S
O164 Zr162 2.133 . S
O164 Zr163 2.133 1_556 S
O165 Zr163 2.207 . S
O165 C187 1.295 . S
O166 Zr163 2.207 . S
O166 C188 1.295 . S
O167 Zr155 2.207 . S
O167 C189 1.295 . S
O168 Zr161 2.207 1_556 S
O168 C190 1.295 . S
O169 Zr157 2.207 . S
O169 C191 1.295 . S
O170 Zr157 2.207 1_556 S
O170 C192 1.295 . S
O171 Zr161 2.207 . S
O171 C193 1.295 . S
O172 Zr156 2.207 . S
O172 C194 1.295 . S
O173 Zr162 2.207 . S
O173 C195 1.295 . S
O174 Zr162 2.207 . S
O174 C196 1.295 . S
O175 Zr156 2.207 . S
O175 C197 1.295 . S
O176 Zr161 2.207 . S
O176 C187 1.295 . S
O177 Zr157 2.207 . S
O177 C184 1.295 . S
O178 Zr157 2.207 . S
O178 C188 1.295 . S
O179 Zr161 2.207 . S
O179 C189 1.295 . S
O180 Zr155 2.207 . S
O180 C197 1.295 . S
O181 Zr163 2.207 1_556 S
O181 C196 1.295 . S
O182 Zr163 2.207 . S
O182 C194 1.295 . S
O183 Zr155 2.207 1_556 S
O183 C195 1.295 . S
C184 O150 1.295 . S
C184 O177 1.295 . S
O185 Zr156 2.207 . S
O185 C193 1.295 . S
O186 Zr156 2.207 . S
O186 C191 1.295 . S
C187 O165 1.295 . S
C187 O176 1.295 . S
C188 O166 1.295 . S
C188 O178 1.295 . S
C189 O167 1.295 . S
C189 O179 1.295 . S
C190 O168 1.295 . S
C190 O199 1.295 . S
C191 O169 1.295 . S
C191 O186 1.295 . S
C192 O170 1.295 . S
C192 O198 1.295 . S
C193 O171 1.295 . S
C193 O185 1.295 . S
C194 O172 1.295 . S
C194 O182 1.295 . S
C195 O173 1.295 . S
C195 O183 1.295 . S
C196 O174 1.295 . S
C196 O181 1.295 . S
C197 O175 1.295 . S
C197 O180 1.295 . S
O198 Zr162 2.207 . S
O198 C192 1.295 . S
O199 Zr162 2.207 . S
O199 C190 1.295 . S
H200 C212 0.930 . S
H201 C214 0.930 . S
H202 C215 0.930 . S
H203 C219 0.959 . S
H204 C219 0.959 . S
H205 C219 0.961 . S
H206 C220 0.960 . S
H207 C220 0.961 . S
H208 C220 0.959 . S
H209 C223 0.929 . S
H210 C224 0.931 . S
H211 C226 0.930 . S
C212 H200 0.930 . S
C212 C213 1.399 1_655 S
C212 C217 1.399 . S
C213 C212 1.399 1_455 S
C213 C214 1.376 . S
C214 H201 0.930 . S
C214 C213 1.376 . S
C214 C215 1.388 . S
C215 H202 0.930 . S
C215 C214 1.388 . S
C215 C216 1.390 . S
C216 C215 1.390 . S
C216 C217 1.394 1_455 S
C216 C222 1.465 . S
C217 C212 1.399 . S
C217 C216 1.394 1_655 S
C217 C218 1.516 . S
C218 C217 1.516 . S
C218 C219 1.502 . S
C218 C220 1.561 . S
C218 C221 1.526 . S
C219 H203 0.959 . S
C219 H204 0.959 . S
C219 H205 0.961 . S
C219 C218 1.502 . S
C220 H206 0.960 . S
C220 H207 0.961 . S
C220 H208 0.959 . S
C220 C218 1.561 . S
C221 C218 1.526 . S
C221 C222 1.396 1_655 S
C221 C226 1.390 . S
C222 C216 1.465 . S
C222 C221 1.396 1_455 S
C222 C223 1.399 . S
C223 H209 0.929 . S
C223 C222 1.399 . S
C223 C224 1.385 . S
C224 H210 0.931 . S
C224 C223 1.385 . S
C224 C225 1.389 . S
C225 C224 1.389 . S
C225 C226 1.387 1_455 S
C226 H211 0.930 . S
C226 C221 1.390 . S
C226 C225 1.387 1_655 S
H227 C239 0.930 . S
H228 C241 0.930 . S
H229 C242 0.930 . S
H230 C246 0.959 . S
H231 C246 0.959 . S
H232 C246 0.961 . S
H233 C247 0.960 . S
H234 C247 0.961 . S
H235 C247 0.959 . S
H236 C250 0.929 . S
H237 C251 0.931 . S
H238 C253 0.930 . S
C239 H227 0.930 . S
C239 C240 1.399 1_565 S
C239 C244 1.399 . S
C240 C239 1.399 1_545 S
C240 C241 1.376 . S
C241 H228 0.930 . S
C241 C240 1.376 . S
C241 C242 1.388 . S
C242 H229 0.930 . S
C242 C241 1.388 . S
C242 C243 1.390 . S
C243 C242 1.390 . S
C243 C244 1.394 1_545 S
C243 C249 1.465 . S
C244 C239 1.399 . S
C244 C243 1.394 1_565 S
C244 C245 1.516 . S
C245 C244 1.516 . S
C245 C246 1.502 . S
C245 C247 1.561 . S
C245 C248 1.526 . S
C246 H230 0.959 . S
C246 H231 0.959 . S
C246 H232 0.961 . S
C246 C245 1.502 . S
C247 H233 0.960 . S
C247 H234 0.961 . S
C247 H235 0.959 . S
C247 C245 1.561 . S
C248 C245 1.526 . S
C248 C249 1.396 1_565 S
C248 C253 1.390 . S
C249 C243 1.465 . S
C249 C248 1.396 1_545 S
C249 C250 1.399 . S
C250 H236 0.929 . S
C250 C249 1.399 . S
C250 C251 1.385 . S
C251 H237 0.931 . S
C251 C250 1.385 . S
C251 C252 1.389 . S
C252 C251 1.389 . S
C252 C253 1.387 1_545 S
C253 H238 0.930 . S
C253 C248 1.390 . S
C253 C252 1.387 1_565 S
H254 C266 0.930 . S
H255 C268 0.930 . S
H256 C269 0.930 . S
H257 C273 0.959 . S
H258 C273 0.959 . S
H259 C273 0.961 . S
H260 C274 0.960 . S
H261 C274 0.961 . S
H262 C274 0.959 . S
H263 C277 0.929 . S
H264 C278 0.931 . S
H265 C280 0.930 . S
C266 H254 0.930 . S
C266 C267 1.399 1_455 S
C266 C271 1.399 . S
C267 C266 1.399 1_655 S
C267 C268 1.376 . S
C268 H255 0.930 . S
C268 C267 1.376 . S
C268 C269 1.388 . S
C269 H256 0.930 . S
C269 C268 1.388 . S
C269 C270 1.390 . S
C270 C269 1.390 . S
C270 C271 1.394 1_655 S
C270 C276 1.465 . S
C271 C266 1.399 . S
C271 C270 1.394 1_455 S
C271 C272 1.516 . S
C272 C271 1.516 . S
C272 C273 1.502 . S
C272 C274 1.561 1_455 S
C272 C275 1.526 . S
C273 H257 0.959 . S
C273 H258 0.959 . S
C273 H259 0.961 . S
C273 C272 1.502 . S
C274 H260 0.960 . S
C274 H261 0.961 . S
C274 H262 0.959 . S
C274 C272 1.561 1_655 S
C275 C272 1.526 . S
C275 C276 1.396 1_455 S
C275 C280 1.390 . S
C276 C270 1.465 . S
C276 C275 1.396 1_655 S
C276 C277 1.399 . S
C277 H263 0.929 . S
C277 C276 1.399 . S
C277 C278 1.385 . S
C278 H264 0.931 . S
C278 C277 1.385 . S
C278 C279 1.389 . S
C279 C278 1.389 . S
C279 C280 1.387 1_655 S
C280 H265 0.930 . S
C280 C275 1.390 . S
C280 C279 1.387 1_455 S
H281 C293 0.930 . S
H282 C295 0.930 . S
H283 C296 0.930 . S
H284 C300 0.959 . S
H285 C300 0.959 . S
H286 C300 0.961 . S
H287 C301 0.960 . S
H288 C301 0.961 . S
H289 C301 0.959 . S
H290 C304 0.929 . S
H291 C305 0.931 . S
H292 C307 0.930 . S
C293 H281 0.930 . S
C293 C294 1.399 1_545 S
C293 C298 1.399 . S
C294 C293 1.399 1_565 S
C294 C295 1.376 . S
C295 H282 0.930 . S
C295 C294 1.376 . S
C295 C296 1.388 . S
C296 H283 0.930 . S
C296 C295 1.388 . S
C296 C297 1.390 . S
C297 C296 1.390 . S
C297 C298 1.394 1_565 S
C297 C303 1.465 . S
C298 C293 1.399 . S
C298 C297 1.394 1_545 S
C298 C299 1.516 . S
C299 C298 1.516 . S
C299 C300 1.502 . S
C299 C301 1.561 . S
C299 C302 1.526 . S
C300 H284 0.959 . S
C300 H285 0.959 . S
C300 H286 0.961 . S
C300 C299 1.502 . S
C301 H287 0.960 . S
C301 H288 0.961 . S
C301 H289 0.959 . S
C301 C299 1.561 . S
C302 C299 1.526 . S
C302 C303 1.396 1_545 S
C302 C307 1.390 . S
C303 C297 1.465 . S
C303 C302 1.396 1_565 S
C303 C304 1.399 . S
C304 H290 0.929 . S
C304 C303 1.399 . S
C304 C305 1.385 . S
C305 H291 0.931 . S
C305 C304 1.385 . S
C305 C306 1.389 . S
C306 C305 1.389 . S
C306 C307 1.387 1_565 S
C307 H292 0.930 . S
C307 C302 1.390 . S
C307 C306 1.387 1_545 S
H308 C320 0.930 . S
H309 C322 0.930 . S
H310 C323 0.930 . S
H311 C327 0.959 . S
H312 C327 0.959 . S
H313 C327 0.961 . S
H314 C328 0.960 . S
H315 C328 0.961 . S
H316 C328 0.959 . S
H317 C331 0.929 . S
H318 C332 0.931 . S
H319 C334 0.930 . S
C320 H308 0.930 . S
C320 C321 1.399 1_655 S
C320 C325 1.399 . S
C321 C320 1.399 1_455 S
C321 C322 1.376 . S
C322 H309 0.930 . S
C322 C321 1.376 . S
C322 C323 1.388 . S
C323 H310 0.930 . S
C323 C322 1.388 . S
C323 C324 1.390 . S
C324 C323 1.390 . S
C324 C325 1.394 1_455 S
C324 C330 1.465 . S
C325 C320 1.399 . S
C325 C324 1.394 1_655 S
C325 C326 1.516 . S
C326 C325 1.516 . S
C326 C327 1.502 . S
C326 C328 1.561 1_655 S
C326 C329 1.526 . S
C327 H311 0.959 . S
C327 H312 0.959 . S
C327 H313 0.961 . S
C327 C326 1.502 . S
C328 H314 0.960 . S
C328 H315 0.961 . S
C328 H316 0.959 . S
C328 C326 1.561 1_455 S
C329 C326 1.526 . S
C329 C330 1.396 1_655 S
C329 C334 1.390 . S
C330 C324 1.465 . S
C330 C329 1.396 1_455 S
C330 C331 1.399 . S
C331 H317 0.929 . S
C331 C330 1.399 . S
C331 C332 1.385 . S
C332 H318 0.931 . S
C332 C331 1.385 . S
C332 C333 1.389 . S
C333 C332 1.389 . S
C333 C334 1.387 1_455 S
C334 H319 0.930 . S
C334 C329 1.390 . S
C334 C333 1.387 1_655 S
H335 C347 0.930 . S
H336 C349 0.930 . S
H337 C350 0.930 . S
H338 C354 0.959 . S
H339 C354 0.959 . S
H340 C354 0.961 . S
H341 C355 0.960 . S
H342 C355 0.961 . S
H343 C355 0.959 . S
H344 C358 0.929 . S
H345 C359 0.931 . S
H346 C361 0.930 . S
C347 H335 0.930 . S
C347 C348 1.399 1_565 S
C347 C352 1.399 . S
C348 C347 1.399 1_545 S
C348 C349 1.376 . S
C349 H336 0.930 . S
C349 C348 1.376 . S
C349 C350 1.388 . S
C350 H337 0.930 . S
C350 C349 1.388 . S
C350 C351 1.390 . S
C351 C350 1.390 . S
C351 C352 1.394 1_545 S
C351 C357 1.465 . S
C352 C347 1.399 . S
C352 C351 1.394 1_565 S
C352 C353 1.516 . S
C353 C352 1.516 . S
C353 C354 1.502 . S
C353 C355 1.561 . S
C353 C356 1.526 . S
C354 H338 0.959 . S
C354 H339 0.959 . S
C354 H340 0.961 . S
C354 C353 1.502 . S
C355 H341 0.960 . S
C355 H342 0.961 . S
C355 H343 0.959 . S
C355 C353 1.561 . S
C356 C353 1.526 . S
C356 C357 1.396 1_565 S
C356 C361 1.390 . S
C357 C351 1.465 . S
C357 C356 1.396 1_545 S
C357 C358 1.399 . S
C358 H344 0.929 . S
C358 C357 1.399 . S
C358 C359 1.385 . S
C359 H345 0.931 . S
C359 C358 1.385 . S
C359 C360 1.389 . S
C360 C359 1.389 . S
C360 C361 1.387 1_545 S
C361 H346 0.930 . S
C361 C356 1.390 . S
C361 C360 1.387 1_565 S
H362 C374 0.930 . S
H363 C376 0.930 . S
H364 C377 0.930 . S
H365 C381 0.959 . S
H366 C381 0.959 . S
H367 C381 0.961 . S
H368 C382 0.960 . S
H369 C382 0.961 . S
H370 C382 0.959 . S
H371 C385 0.929 . S
H372 C386 0.931 . S
H373 C388 0.930 . S
C374 H362 0.930 . S
C374 C375 1.399 1_655 S
C374 C379 1.399 . S
C375 C374 1.399 1_455 S
C375 C376 1.376 . S
C376 H363 0.930 . S
C376 C375 1.376 . S
C376 C377 1.388 . S
C377 H364 0.930 . S
C377 C376 1.388 . S
C377 C378 1.390 . S
C378 C377 1.390 . S
C378 C379 1.394 1_455 S
C378 C384 1.465 . S
C379 C374 1.399 . S
C379 C378 1.394 1_655 S
C379 C380 1.516 . S
C380 C379 1.516 . S
C380 C381 1.502 . S
C380 C382 1.561 . S
C380 C383 1.526 . S
C381 H365 0.959 . S
C381 H366 0.959 . S
C381 H367 0.961 . S
C381 C380 1.502 . S
C382 H368 0.960 . S
C382 H369 0.961 . S
C382 H370 0.959 . S
C382 C380 1.561 . S
C383 C380 1.526 . S
C383 C384 1.396 1_655 S
C383 C388 1.390 . S
C384 C378 1.465 . S
C384 C383 1.396 1_455 S
C384 C385 1.399 . S
C385 H371 0.929 . S
C385 C384 1.399 . S
C385 C386 1.385 . S
C386 H372 0.931 . S
C386 C385 1.385 . S
C386 C387 1.389 . S
C387 C386 1.389 . S
C387 C388 1.387 1_455 S
C388 H373 0.930 . S
C388 C383 1.390 . S
C388 C387 1.387 1_655 S
H389 C401 0.930 . S
H390 C403 0.930 . S
H391 C404 0.930 . S
H392 C408 0.959 . S
H393 C408 0.959 . S
H394 C408 0.961 . S
H395 C409 0.960 . S
H396 C409 0.961 . S
H397 C409 0.959 . S
H398 C412 0.929 . S
H399 C413 0.931 . S
H400 C415 0.930 . S
C401 H389 0.930 . S
C401 C402 1.399 1_545 S
C401 C406 1.399 . S
C402 C401 1.399 1_565 S
C402 C403 1.376 . S
C403 H390 0.930 . S
C403 C402 1.376 . S
C403 C404 1.388 . S
C404 H391 0.930 . S
C404 C403 1.388 . S
C404 C405 1.390 . S
C405 C404 1.390 . S
C405 C406 1.394 1_565 S
C405 C411 1.465 . S
C406 C401 1.399 . S
C406 C405 1.394 1_545 S
C406 C407 1.516 . S
C407 C406 1.516 . S
C407 C408 1.502 . S
C407 C409 1.561 . S
C407 C410 1.526 . S
C408 H392 0.959 . S
C408 H393 0.959 . S
C408 H394 0.961 . S
C408 C407 1.502 . S
C409 H395 0.960 . S
C409 H396 0.961 . S
C409 H397 0.959 . S
C409 C407 1.561 . S
C410 C407 1.526 . S
C410 C411 1.396 1_545 S
C410 C415 1.390 . S
C411 C405 1.465 . S
C411 C410 1.396 1_565 S
C411 C412 1.399 . S
C412 H398 0.929 . S
C412 C411 1.399 . S
C412 C413 1.385 . S
C413 H399 0.931 . S
C413 C412 1.385 . S
C413 C414 1.389 . S
C414 C413 1.389 . S
C414 C415 1.387 1_565 S
C415 H400 0.930 . S
C415 C410 1.390 . S
C415 C414 1.387 1_545 S
H416 C428 0.930 . S
H417 C430 0.930 . S
H418 C431 0.930 . S
H419 C435 0.959 . S
H420 C435 0.959 . S
H421 C435 0.961 . S
H422 C436 0.960 . S
H423 C436 0.961 . S
H424 C436 0.959 . S
H425 C439 0.929 . S
H426 C440 0.931 . S
H427 C442 0.930 . S
C428 H416 0.930 . S
C428 C429 1.399 1_556 S
C428 C433 1.399 . S
C429 C428 1.399 1_554 S
C429 C430 1.376 . S
C430 H417 0.930 . S
C430 C429 1.376 . S
C430 C431 1.388 . S
C431 H418 0.930 . S
C431 C430 1.388 . S
C431 C432 1.390 . S
C432 C431 1.390 . S
C432 C433 1.394 1_554 S
C432 C438 1.465 . S
C433 C428 1.399 . S
C433 C432 1.394 1_556 S
C433 C434 1.516 . S
C434 C433 1.516 . S
C434 C435 1.502 . S
C434 C436 1.561 . S
C434 C437 1.526 . S
C435 H419 0.959 . S
C435 H420 0.959 . S
C435 H421 0.961 . S
C435 C434 1.502 . S
C436 H422 0.960 . S
C436 H423 0.961 . S
C436 H424 0.959 . S
C436 C434 1.561 . S
C437 C434 1.526 . S
C437 C438 1.396 1_556 S
C437 C442 1.390 . S
C438 C432 1.465 . S
C438 C437 1.396 1_554 S
C438 C439 1.399 . S
C439 H425 0.929 . S
C439 C438 1.399 . S
C439 C440 1.385 . S
C440 H426 0.931 . S
C440 C439 1.385 . S
C440 C441 1.389 . S
C441 C440 1.389 . S
C441 C442 1.387 1_554 S
C442 H427 0.930 . S
C442 C437 1.390 . S
C442 C441 1.387 1_556 S
H443 C455 0.930 . S
H444 C457 0.930 . S
H445 C458 0.930 . S
H446 C462 0.959 . S
H447 C462 0.959 . S
H448 C462 0.961 . S
H449 C463 0.960 . S
H450 C463 0.961 . S
H451 C463 0.959 . S
H452 C466 0.929 . S
H453 C467 0.931 . S
H454 C469 0.930 . S
C455 H443 0.930 . S
C455 C456 1.399 1_556 S
C455 C460 1.399 . S
C456 C455 1.399 1_554 S
C456 C457 1.376 . S
C457 H444 0.930 . S
C457 C456 1.376 . S
C457 C458 1.388 . S
C458 H445 0.930 . S
C458 C457 1.388 . S
C458 C459 1.390 . S
C459 C458 1.390 . S
C459 C460 1.394 1_554 S
C459 C465 1.465 . S
C460 C455 1.399 . S
C460 C459 1.394 1_556 S
C460 C461 1.516 . S
C461 C460 1.516 . S
C461 C462 1.502 . S
C461 C463 1.561 . S
C461 C464 1.526 . S
C462 H446 0.959 . S
C462 H447 0.959 . S
C462 H448 0.961 . S
C462 C461 1.502 . S
C463 H449 0.960 . S
C463 H450 0.961 . S
C463 H451 0.959 . S
C463 C461 1.561 . S
C464 C461 1.526 . S
C464 C465 1.396 1_556 S
C464 C469 1.390 . S
C465 C459 1.465 . S
C465 C464 1.396 1_554 S
C465 C466 1.399 . S
C466 H452 0.929 . S
C466 C465 1.399 . S
C466 C467 1.385 . S
C467 H453 0.931 . S
C467 C466 1.385 . S
C467 C468 1.389 . S
C468 C467 1.389 . S
C468 C469 1.387 1_554 S
C469 H454 0.930 . S
C469 C464 1.390 . S
C469 C468 1.387 1_556 S
H470 C482 0.930 . S
H471 C484 0.930 . S
H472 C485 0.930 . S
H473 C489 0.959 . S
H474 C489 0.959 . S
H475 C489 0.961 . S
H476 C490 0.960 . S
H477 C490 0.961 . S
H478 C490 0.959 . S
H479 C493 0.929 . S
H480 C494 0.931 . S
H481 C496 0.930 . S
C482 H470 0.930 . S
C482 C483 1.399 1_556 S
C482 C487 1.399 . S
C483 C482 1.399 1_554 S
C483 C484 1.376 . S
C484 H471 0.930 . S
C484 C483 1.376 . S
C484 C485 1.388 . S
C485 H472 0.930 . S
C485 C484 1.388 . S
C485 C486 1.390 . S
C486 C485 1.390 . S
C486 C487 1.394 1_554 S
C486 C492 1.465 . S
C487 C482 1.399 . S
C487 C486 1.394 1_556 S
C487 C488 1.516 . S
C488 C487 1.516 . S
C488 C489 1.502 . S
C488 C490 1.561 . S
C488 C491 1.526 . S
C489 H473 0.959 . S
C489 H474 0.959 . S
C489 H475 0.961 . S
C489 C488 1.502 . S
C490 H476 0.960 . S
C490 H477 0.961 . S
C490 H478 0.959 . S
C490 C488 1.561 . S
C491 C488 1.526 . S
C491 C492 1.396 1_556 S
C491 C496 1.390 . S
C492 C486 1.465 . S
C492 C491 1.396 1_554 S
C492 C493 1.399 . S
C493 H479 0.929 . S
C493 C492 1.399 . S
C493 C494 1.385 . S
C494 H480 0.931 . S
C494 C493 1.385 . S
C494 C495 1.389 . S
C495 C494 1.389 . S
C495 C496 1.387 1_554 S
C496 H481 0.930 . S
C496 C491 1.390 . S
C496 C495 1.387 1_556 S
H497 C509 0.930 . S
H498 C511 0.930 . S
H499 C512 0.930 . S
H500 C516 0.959 . S
H501 C516 0.959 . S
H502 C516 0.961 . S
H503 C517 0.960 . S
H504 C517 0.961 . S
H505 C517 0.959 . S
H506 C520 0.929 . S
H507 C521 0.931 . S
H508 C523 0.930 . S
C509 H497 0.930 . S
C509 C510 1.399 1_554 S
C509 C514 1.399 . S
C510 C509 1.399 1_556 S
C510 C511 1.376 . S
C511 H498 0.930 . S
C511 C510 1.376 . S
C511 C512 1.388 . S
C512 H499 0.930 . S
C512 C511 1.388 . S
C512 C513 1.390 . S
C513 C512 1.390 . S
C513 C514 1.394 1_556 S
C513 C519 1.465 . S
C514 C509 1.399 . S
C514 C513 1.394 1_554 S
C514 C515 1.516 . S
C515 C514 1.516 . S
C515 C516 1.502 . S
C515 C517 1.561 . S
C515 C518 1.526 . S
C516 H500 0.959 . S
C516 H501 0.959 . S
C516 H502 0.961 . S
C516 C515 1.502 . S
C517 H503 0.960 . S
C517 H504 0.961 . S
C517 H505 0.959 . S
C517 C515 1.561 . S
C518 C515 1.526 . S
C518 C519 1.396 1_554 S
C518 C523 1.390 . S
C519 C513 1.465 . S
C519 C518 1.396 1_556 S
C519 C520 1.399 . S
C520 H506 0.929 . S
C520 C519 1.399 . S
C520 C521 1.385 . S
C521 H507 0.931 . S
C521 C520 1.385 . S
C521 C522 1.389 . S
C522 C521 1.389 . S
C522 C523 1.387 1_556 S
C523 H508 0.930 . S
C523 C518 1.390 . S
C523 C522 1.387 1_554 S
H524 C536 0.930 . S
H525 C538 0.930 . S
H526 C539 0.930 . S
H527 C543 0.959 . S
H528 C543 0.959 . S
H529 C543 0.961 . S
H530 C544 0.960 . S
H531 C544 0.961 . S
H532 C544 0.959 . S
H533 C547 0.929 . S
H534 C548 0.931 . S
H535 C550 0.930 . S
C536 H524 0.930 . S
C536 C537 1.399 . S
C536 C541 1.399 . S
C537 C536 1.399 . S
C537 C538 1.376 . S
C538 H525 0.930 . S
C538 C537 1.376 . S
C538 C539 1.388 . S
C539 H526 0.930 . S
C539 C538 1.388 . S
C539 C540 1.390 . S
C540 C539 1.390 . S
C540 C541 1.394 . S
C540 C546 1.465 . S
C541 C536 1.399 . S
C541 C540 1.394 . S
C541 C542 1.516 . S
C542 C541 1.516 . S
C542 C543 1.502 . S
C542 C544 1.561 . S
C542 C545 1.526 . S
C543 H527 0.959 . S
C543 H528 0.959 . S
C543 H529 0.961 . S
C543 C542 1.502 . S
C544 H530 0.960 . S
C544 H531 0.961 . S
C544 H532 0.959 . S
C544 C542 1.561 . S
C545 C542 1.526 . S
C545 C546 1.396 . S
C545 C550 1.390 . S
C546 C540 1.465 . S
C546 C545 1.396 . S
C546 C547 1.399 . S
C547 H533 0.929 . S
C547 C546 1.399 . S
C547 C548 1.385 . S
C548 H534 0.931 . S
C548 C547 1.385 . S
C548 C549 1.389 . S
C549 C548 1.389 . S
C549 C550 1.387 . S
C550 H535 0.930 . S
C550 C545 1.390 . S
C550 C549 1.387 . S
H551 C563 0.930 . S
H552 C565 0.930 . S
H553 C566 0.930 . S
H554 C570 0.959 . S
H555 C570 0.959 . S
H556 C570 0.961 . S
H557 C571 0.960 . S
H558 C571 0.961 . S
H559 C571 0.959 . S
H560 C574 0.929 . S
H561 C575 0.931 . S
H562 C577 0.930 . S
C563 H551 0.930 . S
C563 C564 1.399 . S
C563 C568 1.399 . S
C564 C563 1.399 . S
C564 C565 1.376 . S
C565 H552 0.930 . S
C565 C564 1.376 . S
C565 C566 1.388 . S
C566 H553 0.930 . S
C566 C565 1.388 . S
C566 C567 1.390 . S
C567 C566 1.390 . S
C567 C568 1.394 . S
C567 C573 1.465 . S
C568 C563 1.399 . S
C568 C567 1.394 . S
C568 C569 1.516 . S
C569 C568 1.516 . S
C569 C570 1.502 . S
C569 C571 1.561 . S
C569 C572 1.526 . S
C570 H554 0.959 . S
C570 H555 0.959 . S
C570 H556 0.961 . S
C570 C569 1.502 . S
C571 H557 0.960 . S
C571 H558 0.961 . S
C571 H559 0.959 . S
C571 C569 1.561 . S
C572 C569 1.526 . S
C572 C573 1.396 . S
C572 C577 1.390 . S
C573 C567 1.465 . S
C573 C572 1.396 . S
C573 C574 1.399 . S
C574 H560 0.929 . S
C574 C573 1.399 . S
C574 C575 1.385 . S
C575 H561 0.931 . S
C575 C574 1.385 . S
C575 C576 1.389 . S
C576 C575 1.389 . S
C576 C577 1.387 . S
C577 H562 0.930 . S
C577 C572 1.390 . S
C577 C576 1.387 . S
H578 C590 0.930 . S
H579 C592 0.930 . S
H580 C593 0.930 . S
H581 C597 0.959 . S
H582 C597 0.959 . S
H583 C597 0.961 . S
H584 C598 0.960 . S
H585 C598 0.961 . S
H586 C598 0.959 . S
H587 C601 0.929 . S
H588 C602 0.931 . S
H589 C604 0.930 . S
C590 H578 0.930 . S
C590 C591 1.399 . S
C590 C595 1.399 . S
C591 C590 1.399 . S
C591 C592 1.376 . S
C592 H579 0.930 . S
C592 C591 1.376 . S
C592 C593 1.388 . S
C593 H580 0.930 . S
C593 C592 1.388 . S
C593 C594 1.390 . S
C594 C593 1.390 . S
C594 C595 1.394 . S
C594 C600 1.465 . S
C595 C590 1.399 . S
C595 C594 1.394 . S
C595 C596 1.516 . S
C596 C595 1.516 . S
C596 C597 1.502 . S
C596 C598 1.561 . S
C596 C599 1.526 . S
C597 H581 0.959 . S
C597 H582 0.959 . S
C597 H583 0.961 . S
C597 C596 1.502 . S
C598 H584 0.960 . S
C598 H585 0.961 . S
C598 H586 0.959 . S
C598 C596 1.561 . S
C599 C596 1.526 . S
C599 C600 1.396 . S
C599 C604 1.390 . S
C600 C594 1.465 . S
C600 C599 1.396 . S
C600 C601 1.399 . S
C601 H587 0.929 . S
C601 C600 1.399 . S
C601 C602 1.385 . S
C602 H588 0.931 . S
C602 C601 1.385 . S
C602 C603 1.389 . S
C603 C602 1.389 . S
C603 C604 1.387 . S
C604 H589 0.930 . S
C604 C599 1.390 . S
C604 C603 1.387 . S
H605 C617 0.930 . S
H606 C619 0.930 . S
H607 C620 0.930 . S
H608 C624 0.959 . S
H609 C624 0.959 . S
H610 C624 0.961 . S
H611 C625 0.960 . S
H612 C625 0.961 . S
H613 C625 0.959 . S
H614 C628 0.929 . S
H615 C629 0.931 . S
H616 C631 0.930 . S
C617 H605 0.930 . S
C617 C618 1.399 . S
C617 C622 1.399 . S
C618 C617 1.399 . S
C618 C619 1.376 . S
C619 H606 0.930 . S
C619 C618 1.376 . S
C619 C620 1.388 . S
C620 H607 0.930 . S
C620 C619 1.388 . S
C620 C621 1.390 . S
C621 C620 1.390 . S
C621 C622 1.394 . S
C621 C627 1.465 . S
C622 C617 1.399 . S
C622 C621 1.394 . S
C622 C623 1.516 . S
C623 C622 1.516 . S
C623 C624 1.502 . S
C623 C625 1.561 . S
C623 C626 1.526 . S
C624 H608 0.959 . S
C624 H609 0.959 . S
C624 H610 0.961 . S
C624 C623 1.502 . S
C625 H611 0.960 . S
C625 H612 0.961 . S
C625 H613 0.959 . S
C625 C623 1.561 . S
C626 C623 1.526 . S
C626 C627 1.396 . S
C626 C631 1.390 . S
C627 C621 1.465 . S
C627 C626 1.396 . S
C627 C628 1.399 . S
C628 H614 0.929 . S
C628 C627 1.399 . S
C628 C629 1.385 . S
C629 H615 0.931 . S
C629 C628 1.385 . S
C629 C630 1.389 . S
C630 C629 1.389 . S
C630 C631 1.387 . S
C631 H616 0.930 . S
C631 C626 1.390 . S
C631 C630 1.387 . S
H632 C644 0.930 . S
H633 C646 0.930 . S
H634 C647 0.930 . S
H635 C651 0.959 . S
H636 C651 0.959 . S
H637 C651 0.961 . S
H638 C652 0.960 . S
H639 C652 0.961 . S
H640 C652 0.959 . S
H641 C655 0.929 . S
H642 C656 0.931 . S
H643 C658 0.930 . S
C644 H632 0.930 . S
C644 C645 1.399 . S
C644 C649 1.399 . S
C645 C644 1.399 . S
C645 C646 1.376 . S
C646 H633 0.930 . S
C646 C645 1.376 . S
C646 C647 1.388 . S
C647 H634 0.930 . S
C647 C646 1.388 . S
C647 C648 1.390 . S
C648 C647 1.390 . S
C648 C649 1.394 . S
C648 C654 1.465 . S
C649 C644 1.399 . S
C649 C648 1.394 . S
C649 C650 1.516 . S
C650 C649 1.516 . S
C650 C651 1.502 . S
C650 C652 1.561 . S
C650 C653 1.526 . S
C651 H635 0.959 . S
C651 H636 0.959 . S
C651 H637 0.961 . S
C651 C650 1.502 . S
C652 H638 0.960 . S
C652 H639 0.961 . S
C652 H640 0.959 . S
C652 C650 1.561 . S
C653 C650 1.526 . S
C653 C654 1.396 . S
C653 C658 1.390 . S
C654 C648 1.465 . S
C654 C653 1.396 . S
C654 C655 1.399 . S
C655 H641 0.929 . S
C655 C654 1.399 . S
C655 C656 1.385 . S
C656 H642 0.931 . S
C656 C655 1.385 . S
C656 C657 1.389 . S
C657 C656 1.389 . S
C657 C658 1.387 . S
C658 H643 0.930 . S
C658 C653 1.390 . S
C658 C657 1.387 . S
H659 C671 0.930 . S
H660 C673 0.930 . S
H661 C674 0.930 . S
H662 C678 0.959 . S
H663 C678 0.959 . S
H664 C678 0.961 . S
H665 C679 0.960 . S
H666 C679 0.961 . S
H667 C679 0.959 . S
H668 C682 0.929 . S
H669 C683 0.931 . S
H670 C685 0.930 . S
C671 H659 0.930 . S
C671 C672 1.399 . S
C671 C676 1.399 . S
C672 C671 1.399 . S
C672 C673 1.376 . S
C673 H660 0.930 . S
C673 C672 1.376 . S
C673 C674 1.388 . S
C674 H661 0.930 . S
C674 C673 1.388 . S
C674 C675 1.390 . S
C675 C674 1.390 . S
C675 C676 1.394 . S
C675 C681 1.465 . S
C676 C671 1.399 . S
C676 C675 1.394 . S
C676 C677 1.516 . S
C677 C676 1.516 . S
C677 C678 1.502 . S
C677 C679 1.561 . S
C677 C680 1.526 . S
C678 H662 0.959 . S
C678 H663 0.959 . S
C678 H664 0.961 . S
C678 C677 1.502 . S
C679 H665 0.960 . S
C679 H666 0.961 . S
C679 H667 0.959 . S
C679 C677 1.561 . S
C680 C677 1.526 . S
C680 C681 1.396 . S
C680 C685 1.390 . S
C681 C675 1.465 . S
C681 C680 1.396 . S
C681 C682 1.399 . S
C682 H668 0.929 . S
C682 C681 1.399 . S
C682 C683 1.385 . S
C683 H669 0.931 . S
C683 C682 1.385 . S
C683 C684 1.389 . S
C684 C683 1.389 . S
C684 C685 1.387 . S
C685 H670 0.930 . S
C685 C680 1.390 . S
C685 C684 1.387 . S
H686 C698 0.930 . S
H687 C700 0.930 . S
H688 C701 0.930 . S
H689 C705 0.959 . S
H690 C705 0.959 . S
H691 C705 0.961 . S
H692 C706 0.960 . S
H693 C706 0.961 . S
H694 C706 0.959 . S
H695 C709 0.929 . S
H696 C710 0.931 . S
H697 C712 0.930 . S
C698 H686 0.930 . S
C698 C699 1.399 . S
C698 C703 1.399 . S
C699 C698 1.399 . S
C699 C700 1.376 . S
C700 H687 0.930 . S
C700 C699 1.376 . S
C700 C701 1.388 . S
C701 H688 0.930 . S
C701 C700 1.388 . S
C701 C702 1.390 . S
C702 C701 1.390 . S
C702 C703 1.394 . S
C702 C708 1.465 . S
C703 C698 1.399 . S
C703 C702 1.394 . S
C703 C704 1.516 . S
C704 C703 1.516 . S
C704 C705 1.502 . S
C704 C706 1.561 . S
C704 C707 1.526 . S
C705 H689 0.959 . S
C705 H690 0.959 . S
C705 H691 0.961 . S
C705 C704 1.502 . S
C706 H692 0.960 . S
C706 H693 0.961 . S
C706 H694 0.959 . S
C706 C704 1.561 . S
C707 C704 1.526 . S
C707 C708 1.396 . S
C707 C712 1.390 . S
C708 C702 1.465 . S
C708 C707 1.396 . S
C708 C709 1.399 . S
C709 H695 0.929 . S
C709 C708 1.399 . S
C709 C710 1.385 . S
C710 H696 0.931 . S
C710 C709 1.385 . S
C710 C711 1.389 . S
C711 C710 1.389 . S
C711 C712 1.387 . S
C712 H697 0.930 . S
C712 C707 1.390 . S
C712 C711 1.387 . S
H713 C725 0.930 . S
H714 C727 0.930 . S
H715 C728 0.930 . S
H716 C732 0.959 . S
H717 C732 0.959 . S
H718 C732 0.961 . S
H719 C733 0.960 . S
H720 C733 0.961 . S
H721 C733 0.959 . S
H722 C736 0.929 . S
H723 C737 0.931 . S
H724 C739 0.930 . S
C725 H713 0.930 . S
C725 C726 1.399 . S
C725 C730 1.399 . S
C726 C725 1.399 . S
C726 C727 1.376 . S
C727 H714 0.930 . S
C727 C726 1.376 . S
C727 C728 1.388 . S
C728 H715 0.930 . S
C728 C727 1.388 . S
C728 C729 1.390 . S
C729 C728 1.390 . S
C729 C730 1.394 . S
C729 C735 1.465 . S
C730 C725 1.399 . S
C730 C729 1.394 . S
C730 C731 1.516 . S
C731 C730 1.516 . S
C731 C732 1.502 . S
C731 C733 1.561 . S
C731 C734 1.526 . S
C732 H716 0.959 . S
C732 H717 0.959 . S
C732 H718 0.961 . S
C732 C731 1.502 . S
C733 H719 0.960 . S
C733 H720 0.961 . S
C733 H721 0.959 . S
C733 C731 1.561 . S
C734 C731 1.526 . S
C734 C735 1.396 . S
C734 C739 1.390 . S
C735 C729 1.465 . S
C735 C734 1.396 . S
C735 C736 1.399 . S
C736 H722 0.929 . S
C736 C735 1.399 . S
C736 C737 1.385 . S
C737 H723 0.931 . S
C737 C736 1.385 . S
C737 C738 1.389 . S
C738 C737 1.389 . S
C738 C739 1.387 . S
C739 H724 0.930 . S
C739 C734 1.390 . S
C739 C738 1.387 . S
H740 C752 0.930 . S
H741 C754 0.930 . S
H742 C755 0.930 . S
H743 C759 0.959 . S
H744 C759 0.959 . S
H745 C759 0.961 . S
H746 C760 0.960 . S
H747 C760 0.961 . S
H748 C760 0.959 . S
H749 C763 0.929 . S
H750 C764 0.931 . S
H751 C766 0.930 . S
C752 H740 0.930 . S
C752 C753 1.399 . S
C752 C757 1.399 . S
C753 C752 1.399 . S
C753 C754 1.376 . S
C754 H741 0.930 . S
C754 C753 1.376 . S
C754 C755 1.388 . S
C755 H742 0.930 . S
C755 C754 1.388 . S
C755 C756 1.390 . S
C756 C755 1.390 . S
C756 C757 1.394 . S
C756 C762 1.465 . S
C757 C752 1.399 . S
C757 C756 1.394 . S
C757 C758 1.516 . S
C758 C757 1.516 . S
C758 C759 1.502 . S
C758 C760 1.561 . S
C758 C761 1.526 . S
C759 H743 0.959 . S
C759 H744 0.959 . S
C759 H745 0.961 . S
C759 C758 1.502 . S
C760 H746 0.960 . S
C760 H747 0.961 . S
C760 H748 0.959 . S
C760 C758 1.561 . S
C761 C758 1.526 . S
C761 C762 1.396 . S
C761 C766 1.390 . S
C762 C756 1.465 . S
C762 C761 1.396 . S
C762 C763 1.399 . S
C763 H749 0.929 . S
C763 C762 1.399 . S
C763 C764 1.385 . S
C764 H750 0.931 . S
C764 C763 1.385 . S
C764 C765 1.389 . S
C765 C764 1.389 . S
C765 C766 1.387 . S
C766 H751 0.930 . S
C766 C761 1.390 . S
C766 C765 1.387 . S
H767 C779 0.930 . S
H768 C781 0.930 . S
H769 C782 0.930 . S
H770 C786 0.959 . S
H771 C786 0.959 . S
H772 C786 0.961 . S
H773 C787 0.960 . S
H774 C787 0.961 . S
H775 C787 0.959 . S
H776 C790 0.929 . S
H777 C791 0.931 . S
H778 C793 0.930 . S
C779 H767 0.930 . S
C779 C780 1.399 . S
C779 C784 1.399 . S
C780 C779 1.399 . S
C780 C781 1.376 . S
C781 H768 0.930 . S
C781 C780 1.376 . S
C781 C782 1.388 . S
C782 H769 0.930 . S
C782 C781 1.388 . S
C782 C783 1.390 . S
C783 C782 1.390 . S
C783 C784 1.394 . S
C783 C789 1.465 . S
C784 C779 1.399 . S
C784 C783 1.394 . S
C784 C785 1.516 . S
C785 C784 1.516 . S
C785 C786 1.502 . S
C785 C787 1.561 . S
C785 C788 1.526 . S
C786 H770 0.959 . S
C786 H771 0.959 . S
C786 H772 0.961 . S
C786 C785 1.502 . S
C787 H773 0.960 . S
C787 H774 0.961 . S
C787 H775 0.959 . S
C787 C785 1.561 . S
C788 C785 1.526 . S
C788 C789 1.396 . S
C788 C793 1.390 . S
C789 C783 1.465 . S
C789 C788 1.396 . S
C789 C790 1.399 . S
C790 H776 0.929 . S
C790 C789 1.399 . S
C790 C791 1.385 . S
C791 H777 0.931 . S
C791 C790 1.385 . S
C791 C792 1.389 . S
C792 C791 1.389 . S
C792 C793 1.387 . S
C793 H778 0.930 . S
C793 C788 1.390 . S
C793 C792 1.387 . S
H794 C806 0.930 . S
H795 C808 0.930 . S
H796 C809 0.930 . S
H797 C813 0.959 . S
H798 C813 0.959 . S
H799 C813 0.961 . S
H800 C814 0.960 . S
H801 C814 0.961 . S
H802 C814 0.959 . S
H803 C817 0.929 . S
H804 C818 0.931 . S
H805 C820 0.930 . S
C806 H794 0.930 . S
C806 C807 1.399 . S
C806 C811 1.399 . S
C807 C806 1.399 . S
C807 C808 1.376 . S
C808 H795 0.930 . S
C808 C807 1.376 . S
C808 C809 1.388 . S
C809 H796 0.930 . S
C809 C808 1.388 . S
C809 C810 1.390 . S
C810 C809 1.390 . S
C810 C811 1.394 . S
C810 C816 1.465 . S
C811 C806 1.399 . S
C811 C810 1.394 . S
C811 C812 1.516 . S
C812 C811 1.516 . S
C812 C813 1.502 . S
C812 C814 1.561 . S
C812 C815 1.526 . S
C813 H797 0.959 . S
C813 H798 0.959 . S
C813 H799 0.961 . S
C813 C812 1.502 . S
C814 H800 0.960 . S
C814 H801 0.961 . S
C814 H802 0.959 . S
C814 C812 1.561 . S
C815 C812 1.526 . S
C815 C816 1.396 . S
C815 C820 1.390 . S
C816 C810 1.465 . S
C816 C815 1.396 . S
C816 C817 1.399 . S
C817 H803 0.929 . S
C817 C816 1.399 . S
C817 C818 1.385 . S
C818 H804 0.931 . S
C818 C817 1.385 . S
C818 C819 1.389 . S
C819 C818 1.389 . S
C819 C820 1.387 . S
C820 H805 0.930 . S
C820 C815 1.390 . S
C820 C819 1.387 . S
H821 C833 0.930 . S
H822 C835 0.930 . S
H823 C836 0.930 . S
H824 C840 0.959 . S
H825 C840 0.959 . S
H826 C840 0.961 . S
H827 C841 0.960 . S
H828 C841 0.961 . S
H829 C841 0.959 . S
H830 C844 0.929 . S
H831 C845 0.931 . S
H832 C847 0.930 . S
C833 H821 0.930 . S
C833 C834 1.399 . S
C833 C838 1.399 . S
C834 C833 1.399 . S
C834 C835 1.376 . S
C835 H822 0.930 . S
C835 C834 1.376 . S
C835 C836 1.388 . S
C836 H823 0.930 . S
C836 C835 1.388 . S
C836 C837 1.390 . S
C837 C836 1.390 . S
C837 C838 1.394 . S
C837 C843 1.465 . S
C838 C833 1.399 . S
C838 C837 1.394 . S
C838 C839 1.516 . S
C839 C838 1.516 . S
C839 C840 1.502 . S
C839 C841 1.561 . S
C839 C842 1.526 . S
C840 H824 0.959 . S
C840 H825 0.959 . S
C840 H826 0.961 . S
C840 C839 1.502 . S
C841 H827 0.960 . S
C841 H828 0.961 . S
C841 H829 0.959 . S
C841 C839 1.561 . S
C842 C839 1.526 . S
C842 C843 1.396 . S
C842 C847 1.390 . S
C843 C837 1.465 . S
C843 C842 1.396 . S
C843 C844 1.399 . S
C844 H830 0.929 . S
C844 C843 1.399 . S
C844 C845 1.385 . S
C845 H831 0.931 . S
C845 C844 1.385 . S
C845 C846 1.389 . S
C846 C845 1.389 . S
C846 C847 1.387 . S
C847 H832 0.930 . S
C847 C842 1.390 . S
C847 C846 1.387 . S
C213 C43 1.493 . S
C225 C92 1.489 . S
C240 C44 1.493 . S
C252 C134 1.493 . S
C267 C41 1.493 1_655 S
C279 C90 1.493 1_655 S
C294 C138 1.493 1_565 S
C306 C47 1.489 1_565 S
C321 C42 1.493 . S
C333 C93 1.497 . S
C348 C45 1.493 . S
C360 C137 1.493 . S
C375 C91 1.493 . S
C387 C40 1.493 . S
C402 C139 1.493 1_565 S
C414 C46 1.497 1_565 S
C429 C188 1.493 . S
C441 C39 1.489 . S
C456 C187 1.493 . S
C468 C34 1.493 . S
C483 C184 1.493 . S
C495 C37 1.493 . S
C510 C38 1.493 1_556 S
C522 C189 1.497 1_556 S
C537 C195 1.493 . S
C549 C94 1.497 . S
C564 C97 1.493 . S
C576 C196 1.493 . S
C591 C95 1.493 . S
C603 C194 1.489 . S
C618 C197 1.493 . S
C630 C96 1.493 . S
C645 C146 1.493 . S
C657 C89 1.493 . S
C672 C84 1.493 . S
C684 C144 1.489 . S
C699 C87 1.493 . S
C711 C145 1.497 . S
C726 C147 1.493 . S
C738 C88 1.493 . S
C753 C192 1.493 . S
C765 C143 1.493 . S
C780 C140 1.493 . S
C792 C190 1.497 . S
C807 C193 1.493 . S
C819 C142 1.493 . S
C834 C141 1.493 . S
C846 C191 1.489 . S
