# Generated by pormake.
# Topology sml, (6)-cn, num edge types: 1
# Building blocks:
#     Node 0, Type 0, BuildingBlock: VOLQOD_clean_sbu_1, # of connection points: 6
#     Node 1, Type 0, BuildingBlock: VOLQOD_clean_sbu_1, # of connection points: 6
#     Node 2, Type 0, BuildingBlock: VOLQOD_clean_sbu_1, # of connection points: 6
#     Node 3, Type 0, BuildingBlock: VOLQOD_clean_sbu_1, # of connection points: 6
#     Node 4, Type 0, BuildingBlock: VOLQOD_clean_sbu_1, # of connection points: 6
#     Node 5, Type 0, BuildingBlock: VOLQOD_clean_sbu_1, # of connection points: 6
#     Edge 6, Type (0, 0), BuildingBlock: EZIPEK_clean_linker_0, # of connection points: 2
#     Edge 7, Type (0, 0), BuildingBlock: EZIPEK_clean_linker_0, # of connection points: 2
#     Edge 8, Type (0, 0), BuildingBlock: EZIPEK_clean_linker_0, # of connection points: 2
#     Edge 9, Type (0, 0), BuildingBlock: EZIPEK_clean_linker_0, # of connection points: 2
#     Edge 10, Type (0, 0), BuildingBlock: EZIPEK_clean_linker_0, # of connection points: 2
#     Edge 11, Type (0, 0), BuildingBlock: EZIPEK_clean_linker_0, # of connection points: 2
#     Edge 12, Type (0, 0), BuildingBlock: EZIPEK_clean_linker_0, # of connection points: 2
#     Edge 13, Type (0, 0), BuildingBlock: EZIPEK_clean_linker_0, # of connection points: 2
#     Edge 14, Type (0, 0), BuildingBlock: EZIPEK_clean_linker_0, # of connection points: 2
#     Edge 15, Type (0, 0), BuildingBlock: EZIPEK_clean_linker_0, # of connection points: 2
#     Edge 16, Type (0, 0), BuildingBlock: EZIPEK_clean_linker_0, # of connection points: 2
#     Edge 17, Type (0, 0), BuildingBlock: EZIPEK_clean_linker_0, # of connection points: 2
#     Edge 18, Type (0, 0), BuildingBlock: EZIPEK_clean_linker_0, # of connection points: 2
#     Edge 19, Type (0, 0), BuildingBlock: EZIPEK_clean_linker_0, # of connection points: 2
#     Edge 20, Type (0, 0), BuildingBlock: EZIPEK_clean_linker_0, # of connection points: 2
#     Edge 21, Type (0, 0), BuildingBlock: EZIPEK_clean_linker_0, # of connection points: 2
#     Edge 22, Type (0, 0), BuildingBlock: EZIPEK_clean_linker_0, # of connection points: 2
#     Edge 23, Type (0, 0), BuildingBlock: EZIPEK_clean_linker_0, # of connection points: 2
# Relax obj value: 0.292
# Max RMSD: 0.187
# Mean RMSD: 0.187
data_MOF--net-sml--node1-VOLQOD_clean_sbu_1--edge1-EZIPEK_clean_linker_0
_symmetry_space_group_name_H-M    P1
_symmetry_Int_Tables_number       1
_symmetry_cell_setting            triclinic
loop_
_symmetry_equiv_pos_as_xyz
'x, y, z'
_cell_length_a     33.300781
_cell_length_b     33.081728
_cell_length_c     11.992086
_cell_angle_alpha  89.965408
_cell_angle_beta   89.99262
_cell_angle_gamma 119.94433
loop_
_atom_site_label
_atom_site_type_symbol
_atom_site_fract_x
_atom_site_fract_y
_atom_site_fract_z
_atom_type_partial_charge
O0 O 0.09576 0.38715 0.01826 0.0
Zn1 Zn 0.15123 0.43419 0.93277 0.0
O2 O 0.19998 0.42172 -0.03126 0.0
Zn3 Zn 0.24253 0.46483 0.07422 0.0
Zn4 Zn 0.16931 0.35806 0.01918 0.0
Zn5 Zn 0.23524 0.42616 0.84499 0.0
O6 O 0.30989 0.49596 0.01735 0.0
O7 O 0.29274 0.48665 0.83697 0.0
O8 O 0.16636 0.49871 -0.01237 0.0
O9 O 0.22717 0.51567 0.09561 0.0
O10 O 0.22732 0.43358 0.22417 0.0
O11 O 0.16759 0.36326 0.18375 0.0
O12 O 0.20207 0.32341 0.96579 0.0
O13 O 0.13673 0.42189 0.7662 0.0
O14 O 0.25142 0.37651 0.84618 0.0
O15 O 0.19805 0.41618 0.7146 0.0
C16 C 0.07788 0.34295 0.01663 0.0
C17 C 0.32158 0.50685 0.91523 0.0
C18 C 0.19208 0.39503 0.25353 0.0
C19 C 0.19687 0.52503 0.05866 0.0
C20 C 0.23486 0.33729 0.89463 0.0
C21 C 0.16004 0.41441 0.69267 0.0
O22 O 0.10117 0.32457 -0.01886 0.0
O23 O 0.71074 0.09028 0.32515 0.0
Zn24 Zn 0.7121 0.14118 0.23256 0.0
O25 O 0.77027 0.19601 0.26625 0.0
Zn26 Zn 0.76227 0.23666 0.36639 0.0
Zn27 Zn 0.80928 0.17374 0.32814 0.0
Zn28 Zn 0.79903 0.23003 0.13821 0.0
O29 O 0.79038 0.30352 0.30571 0.0
O30 O 0.79688 0.28837 0.1278 0.0
O31 O 0.65736 0.14837 0.28022 0.0
O32 O 0.69473 0.21354 0.37961 0.0
O33 O 0.778 0.2262 0.52215 0.0
O34 O 0.80002 0.17377 0.4899 0.0
O35 O 0.87698 0.21356 0.27966 0.0
O36 O 0.70991 0.12503 0.06759 0.0
O37 O 0.8642 0.24632 0.13282 0.0
O38 O 0.77023 0.19188 0.01003 0.0
C39 C 0.74098 0.07771 0.33698 0.0
C40 C 0.79716 0.3155 0.2029 0.0
C41 C 0.78679 0.19477 0.55581 0.0
C42 C 0.65725 0.17904 0.34444 0.0
C43 C 0.89159 0.23968 0.19345 0.0
C44 C 0.73694 0.15128 -0.00905 0.0
O45 O 0.78268 0.10425 0.30518 0.0
O46 O 0.62978 0.7227 0.64919 0.0
Zn47 Zn 0.57099 0.71929 0.59907 0.0
O48 O 0.57432 0.77838 0.63575 0.0
Zn49 Zn 0.51738 0.76354 0.70916 0.0
Zn50 Zn 0.62904 0.82077 0.72231 0.0
Zn51 Zn 0.57823 0.81202 0.50705 0.0
O52 O 0.48539 0.79761 0.64691 0.0
O53 O 0.52818 0.82753 0.49492 0.0
O54 O 0.51866 0.66596 0.68513 0.0
O55 O 0.47176 0.69488 0.70875 0.0
O56 O 0.53322 0.77157 0.86835 0.0
O57 O 0.60949 0.81768 0.88266 0.0
O58 O 0.66164 0.88834 0.65978 0.0
O59 O 0.56089 0.70565 0.43303 0.0
O60 O 0.6379 0.86876 0.48572 0.0
O61 O 0.56928 0.774 0.38157 0.0
C62 C 0.66548 0.7527 0.70214 0.0
C63 C 0.4941 0.82033 0.55568 0.0
C64 C 0.57007 0.79067 0.92625 0.0
C65 C 0.4798 0.66115 0.71512 0.0
C66 C 0.66323 0.89909 0.55684 0.0
C67 C 0.56189 0.73367 0.35883 0.0
O68 O 0.67124 0.79262 0.72946 0.0
O69 O 0.91073 0.62458 0.00537 0.0
Zn70 Zn 0.85514 0.57827 0.91967 0.0
O71 O 0.80463 0.58783 0.95828 0.0
Zn72 Zn 0.76405 0.54286 0.06403 0.0
Zn73 Zn 0.83441 0.65169 0.00851 0.0
Zn74 Zn 0.76685 0.58106 0.83697 0.0
O75 O 0.69589 0.50856 0.01523 0.0
O76 O 0.70958 0.51884 0.83349 0.0
O77 O 0.84206 0.51377 0.9652 0.0
O78 O 0.78138 0.49321 0.07695 0.0
O79 O 0.77936 0.57352 0.21312 0.0
O80 O 0.83379 0.64675 0.17322 0.0
O81 O 0.80214 0.68587 0.94947 0.0
O82 O 0.86884 0.59282 0.7552 0.0
O83 O 0.75026 0.63088 0.83727 0.0
O84 O 0.80369 0.59151 0.70458 0.0
C85 C 0.92763 0.66859 0.00895 0.0
C86 C 0.68276 0.49691 0.91436 0.0
C87 C 0.81144 0.61395 0.24259 0.0
C88 C 0.81197 0.48557 0.03438 0.0
C89 C 0.76836 0.67119 0.88108 0.0
C90 C 0.84335 0.59711 0.6822 0.0
O91 O 0.90356 0.68681 -0.02195 0.0
O92 O 0.27397 0.91449 0.38476 0.0
Zn93 Zn 0.2777 0.86585 0.29206 0.0
O94 O 0.22542 0.80527 0.32841 0.0
Zn95 Zn 0.24172 0.76836 0.42084 0.0
Zn96 Zn 0.17818 0.81528 0.39466 0.0
Zn97 Zn 0.20402 0.77218 0.19342 0.0
O98 O 0.21807 0.70144 0.36599 0.0
O99 O 0.19929 0.71038 0.19403 0.0
O100 O 0.33824 0.8668 0.32824 0.0
O101 O 0.31023 0.79915 0.41935 0.0
O102 O 0.22653 0.77587 0.57707 0.0
O103 O 0.17807 0.80364 0.55813 0.0
O104 O 0.11617 0.77698 0.31423 0.0
O105 O 0.27092 0.87844 0.12826 0.0
O106 O 0.14186 0.76262 0.15631 0.0
O107 O 0.2471 0.80619 0.07317 0.0
C108 C 0.23893 0.91791 0.41312 0.0
C109 C 0.2047 0.68602 0.26742 0.0
C110 C 0.20304 0.79307 0.61819 0.0
C111 C 0.34406 0.83696 0.38303 0.0
C112 C 0.10939 0.76174 0.21399 0.0
C113 C 0.26069 0.84842 0.05108 0.0
O114 O 0.19764 0.88414 0.40074 0.0
O115 O 0.37309 0.28034 0.66517 0.0
Zn116 Zn 0.43057 0.27774 0.62717 0.0
O117 O 0.42296 0.21741 0.66695 0.0
Zn118 Zn 0.4803 0.23025 0.73661 0.0
Zn119 Zn 0.36813 0.18154 0.75757 0.0
Zn120 Zn 0.41576 0.18166 0.53815 0.0
O121 O 0.51174 0.19811 0.66466 0.0
O122 O 0.47172 0.17638 0.50657 0.0
O123 O 0.48315 0.33013 0.71391 0.0
O124 O 0.52746 0.2986 0.74022 0.0
O125 O 0.46712 0.21951 0.89657 0.0
O126 O 0.39009 0.18359 0.9133 0.0
O127 O 0.32449 0.1154 0.69867 0.0
O128 O 0.44548 0.288 0.46344 0.0
O129 O 0.36127 0.11855 0.54189 0.0
O130 O 0.40843 0.21345 0.41097 0.0
C131 C 0.339 0.25475 0.72866 0.0
C132 C 0.50557 0.18178 0.56604 0.0
C133 C 0.43068 0.20444 0.95535 0.0
C134 C 0.52125 0.3335 0.74495 0.0
C135 C 0.32772 0.09661 0.60867 0.0
C136 C 0.42953 0.25661 0.38849 0.0
O137 O 0.3331 0.21649 0.76873 0.0
C138 C 0.26195 0.25048 0.75598 0.0
C139 C 0.31062 0.27394 0.77409 0.0
C140 C 0.30447 0.32919 0.89903 0.0
C141 C 0.25732 0.30963 0.86966 0.0
N142 N 0.19098 0.25428 0.76425 0.0
N143 N 0.37945 0.33933 0.85389 0.0
C144 C 0.23572 0.27054 0.79757 0.0
C145 C 0.33227 0.31439 0.8429 0.0
N146 N 0.24099 0.20949 0.69784 0.0
N147 N 0.32235 0.36139 -0.01695 0.0
H148 H 0.40175 0.32847 0.82318 0.0
H149 H 0.39701 0.37244 0.88944 0.0
H150 H 0.30248 0.37245 0.02687 0.0
H151 H 0.35518 0.37345 0.01699 0.0
H152 H 0.2052 0.18806 0.69259 0.0
H153 H 0.25944 0.1955 0.6594 0.0
H154 H 0.17491 0.22969 0.70134 0.0
H155 H 0.17053 0.2674 0.79558 0.0
C156 C 0.01707 0.27313 0.12698 0.0
C157 C 0.03007 0.31377 0.06098 0.0
C158 C 0.95867 0.31133 0.11666 0.0
C159 C 0.94142 0.26607 0.16241 0.0
N160 N 0.95278 0.19985 0.18976 0.0
N161 N 0.00427 0.36173 -0.03269 0.0
C162 C 0.97012 0.2456 0.16187 0.0
C163 C 0.99819 0.32997 0.04797 0.0
N164 N 0.04925 0.26182 0.16199 0.0
N165 N 0.93801 0.33709 0.14042 0.0
H166 H 0.03033 0.373 0.9072 0.0
H167 H 0.97973 0.37185 0.95159 0.0
H168 H 0.91105 0.32615 0.19799 0.0
H169 H 0.95165 0.37152 0.1138 0.0
H170 H 0.0413 0.23474 0.21806 0.0
H171 H 0.08459 0.28243 0.14681 0.0
H172 H 0.97181 0.18284 0.17991 0.0
H173 H 0.91833 0.1777 0.21179 0.0
C174 C 0.67959 0.99592 0.37093 0.0
C175 C 0.72573 0.03166 0.39085 0.0
C176 C 0.73329 0.98028 0.52815 0.0
C177 C 0.68529 0.94813 0.51734 0.0
N178 N 0.61071 0.93636 0.4598 0.0
N179 N 0.79345 0.0611 0.51106 0.0
C180 C 0.6578 0.95961 0.44883 0.0
C181 C 0.7521 0.02494 0.47566 0.0
N182 N 0.65669 0.99577 0.27626 0.0
N183 N 0.76101 0.96816 0.58583 0.0
H184 H 0.80803 0.0948 0.47948 0.0
H185 H 0.81114 0.05854 0.57994 0.0
H186 H 0.74807 0.93613 0.62632 0.0
H187 H 0.79703 0.98861 0.5864 0.0
H188 H 0.62379 0.96835 0.25634 0.0
H189 H 0.67281 0.01981 0.21188 0.0
H190 H 0.58958 0.94573 0.41565 0.0
H191 H 0.59392 0.91212 0.52336 0.0
C192 C 0.74254 0.75671 0.73003 0.0
C193 C 0.69471 0.73616 0.7561 0.0
C194 C 0.70169 0.68419 0.89104 0.0
C195 C 0.74723 0.69988 0.85323 0.0
N196 N 0.81154 0.7492 0.73415 0.0
N197 N 0.62728 0.67737 0.85657 0.0
C198 C 0.76817 0.73618 0.77312 0.0
C199 C 0.67388 0.69911 0.83536 0.0
N200 N 0.76317 0.79522 0.66291 0.0
N201 N 0.68542 0.65563 -0.01769 0.0
H202 H 0.60552 0.68925 0.8277 0.0
H203 H 0.60951 0.64602 0.90008 0.0
H204 H 0.7054 0.64451 0.02551 0.0
H205 H 0.65431 0.6469 0.02199 0.0
H206 H 0.7988 0.81471 0.65 0.0
H207 H 0.74486 0.80949 0.62509 0.0
H208 H 0.82671 0.77125 0.66616 0.0
H209 H 0.83164 0.73589 0.7667 0.0
C210 C 0.03313 0.75893 0.17415 0.0
C211 C 0.06245 0.73943 0.16283 0.0
C212 C 0.00879 0.68443 0.02572 0.0
C213 C 0.97554 0.69765 0.05271 0.0
N214 N 0.95387 0.74234 0.17455 0.0
N215 N 0.06957 0.67346 0.10085 0.0
C216 C 0.98698 0.73366 0.13271 0.0
C217 C 0.04792 0.69927 0.09501 0.0
N218 N 0.04937 0.80203 0.22039 0.0
N219 N 0.00355 0.65827 0.93303 0.0
H220 H 0.09541 0.67992 0.15886 0.0
H221 H 0.0575 0.642 0.05832 0.0
H222 H 0.97665 0.64905 0.87608 0.0
H223 H 0.02901 0.65088 0.90629 0.0
H224 H 0.03019 0.81911 0.22095 0.0
H225 H 0.08355 0.82286 0.24653 0.0
H226 H 0.96025 0.76507 0.24101 0.0
H227 H 0.91913 0.72366 0.15187 0.0
C228 C 0.28162 0.00933 0.63713 0.0
C229 C 0.29133 0.04933 0.57347 0.0
C230 C 0.25495 1.00045 0.40886 0.0
C231 C 0.24738 0.96097 0.47105 0.0
N232 N 0.23774 0.92502 0.65074 0.0
N233 N 0.2736 0.08134 0.4128 0.0
C234 C 0.25535 0.96455 0.58767 0.0
C235 C 0.2732 0.04419 0.46378 0.0
N236 N 0.30008 0.01402 0.74124 0.0
N237 N 0.24642 0.99644 0.29682 0.0
H238 H 0.28583 0.11341 0.45277 0.0
H239 H 0.25779 0.0791 0.33637 0.0
H240 H 0.23115 0.96436 0.2557 0.0
H241 H 0.25636 0.02493 0.24416 0.0
H242 H 0.29892 0.98632 0.7854 0.0
H243 H 0.31916 0.04609 0.78105 0.0
H244 H 0.2388 0.92524 0.73757 0.0
H245 H 0.21753 0.89205 0.61599 0.0
C246 C 0.15038 0.43456 0.5004 0.0
C247 C 0.14342 0.39996 0.57865 0.0
C248 C 0.15903 0.35615 0.43811 0.0
C249 C 0.17086 0.39333 0.36263 0.0
N250 N 0.15707 0.45551 0.30563 0.0
N251 N 0.12326 0.32086 0.61553 0.0
C252 C 0.15985 0.42869 0.38846 0.0
C253 C 0.14075 0.35782 0.54375 0.0
N254 N 0.15086 0.47415 0.53459 0.0
N255 N 0.16788 0.32115 0.41191 0.0
H256 H 0.11053 0.32268 0.69393 0.0
H257 H 0.11765 0.28794 0.59413 0.0
H258 H 0.18195 0.31943 0.33557 0.0
H259 H 0.16407 0.29549 0.46817 0.0
H260 H 0.16184 0.50349 0.48422 0.0
H261 H 0.14177 0.47793 0.61561 0.0
H262 H 0.14623 0.47964 0.3194 0.0
H263 H 0.1603 0.44962 0.22156 0.0
C264 C 0.77527 0.13736 0.83742 0.0
C265 C 0.7344 0.1356 0.87611 0.0
C266 C 0.72106 0.15623 0.69114 0.0
C267 C 0.76842 0.17225 0.66472 0.0
N268 N 0.84067 0.17567 0.7119 0.0
N269 N 0.66514 0.13843 0.83934 0.0
C270 C 0.79538 0.16109 0.73639 0.0
C271 C 0.70566 0.14245 0.80189 0.0
N272 N 0.79612 0.11935 0.9026 0.0
N273 N 0.69052 0.1521 0.60992 0.0
H274 H 0.65265 0.12633 0.91951 0.0
H275 H 0.64534 0.14871 0.79278 0.0
H276 H 0.6996 0.15739 0.52588 0.0
H277 H 0.65514 0.13777 0.62418 0.0
H278 H 0.82466 0.11678 0.87706 0.0
H279 H 0.78153 0.10306 -0.02151 0.0
H280 H 0.86292 0.17192 0.76646 0.0
H281 H 0.85722 0.19501 0.64081 0.0
C282 C 0.51801 0.72599 0.19497 0.0
C283 C 0.55493 0.7224 0.24081 0.0
C284 C 0.59923 0.7551 0.07064 0.0
C285 C 0.5672 0.77008 0.03822 0.0
N286 N 0.49839 0.77421 0.083 0.0
N287 N 0.63036 0.73108 0.22381 0.0
C288 C 0.52686 0.75637 0.10377 0.0
C289 C 0.59516 0.73543 0.17792 0.0
N290 N 0.47577 0.7034 0.24571 0.0
N291 N 0.63191 0.75718 -0.00138 0.0
H292 H 0.62642 0.71403 0.29977 0.0
H293 H 0.66353 0.7461 0.18981 0.0
H294 H 0.63319 0.76552 0.91506 0.0
H295 H 0.65429 0.74477 0.01803 0.0
H296 H 0.44625 0.70196 0.2119 0.0
H297 H 0.47011 0.68239 0.31577 0.0
H298 H 0.47043 0.76766 0.134 0.0
H299 H 0.50573 0.79959 0.02237 0.0
C300 C 0.85794 0.65323 0.53472 0.0
C301 C 0.85972 0.61322 0.56906 0.0
C302 C 0.84869 0.58614 0.37799 0.0
C303 C 0.833 0.61794 0.35184 0.0
N304 N 0.82659 0.6852 0.40117 0.0
N305 N 0.86184 0.5436 0.52441 0.0
C306 C 0.83992 0.65348 0.42794 0.0
C307 C 0.85792 0.58087 0.4904 0.0
N308 N 0.87109 0.68932 0.6077 0.0
N309 N 0.85571 0.56195 0.29532 0.0
H310 H 0.87072 0.54039 0.60605 0.0
H311 H 0.85461 0.51536 0.47307 0.0
H312 H 0.85155 0.56672 0.21098 0.0
H313 H 0.87064 0.54131 0.30981 0.0
H314 H 0.87349 0.72098 0.58645 0.0
H315 H 0.88369 0.68855 0.68704 0.0
H316 H 0.82663 0.70905 0.45785 0.0
H317 H 0.81266 0.68579 0.32372 0.0
C318 C 0.18565 0.81119 0.81051 0.0
C319 C 0.21815 0.81655 0.72738 0.0
C320 C 0.28247 0.86472 0.85321 0.0
C321 C 0.25005 0.8565 0.9377 0.0
N322 N 0.17326 0.83878 -0.01218 0.0
N323 N 0.29591 0.86622 0.65541 0.0
C324 C 0.20235 0.83599 0.91211 0.0
C325 C 0.26625 0.84887 0.74403 0.0
N326 N 0.13949 0.78068 0.79525 0.0
N327 N 0.32848 0.88566 0.87876 0.0
H328 H 0.28509 0.8582 0.57276 0.0
H329 H 0.33005 0.89312 0.66355 0.0
H330 H 0.34092 0.89942 0.95788 0.0
H331 H 0.35345 0.88746 0.82336 0.0
H332 H 0.11482 0.77204 0.85781 0.0
H333 H 0.12631 0.76121 0.72247 0.0
H334 H 0.13842 0.82716 -0.02798 0.0
H335 H 0.18563 0.85684 0.06286 0.0
C336 C 0.47779 0.25577 0.23978 0.0
C337 C 0.44424 0.26747 0.27318 0.0
C338 C 0.41272 0.25193 0.08661 0.0
C339 C 0.43653 0.22688 0.06472 0.0
N340 N 0.49291 0.20537 0.12286 0.0
N341 N 0.3809 0.2796 0.22957 0.0
C342 C 0.47025 0.22965 0.14104 0.0
C343 C 0.41239 0.26712 0.19627 0.0
N344 N 0.51519 0.2676 0.30632 0.0
N345 N 0.39291 0.26361 0.00234 0.0
H346 H 0.3821 0.29312 0.30899 0.0
H347 H 0.35291 0.27457 0.18058 0.0
H348 H 0.39793 0.25905 0.91862 0.0
H349 H 0.37701 0.28347 0.01509 0.0
H350 H 0.54285 0.26324 0.28222 0.0
H351 H 0.52021 0.28636 0.38 0.0
H352 H 0.51483 0.20315 0.18146 0.0
H353 H 0.48658 0.18399 0.05356 0.0
C354 C 0.15628 0.56206 0.15953 0.0
C355 C 0.19661 0.56643 0.10655 0.0
C356 C 0.24294 0.64503 0.18477 0.0
C357 C 0.20215 0.64237 0.22854 0.0
N358 N 0.119 0.60156 0.24416 0.0
N359 N 0.27553 0.61625 0.04679 0.0
C360 C 0.15847 0.60182 0.21169 0.0
C361 C 0.23922 0.60912 0.11333 0.0
N362 N 0.11655 0.51968 0.16528 0.0
N363 N 0.28535 0.68208 0.2111 0.0
H364 H 0.27317 0.59166 -0.01126 0.0
H365 H 0.30605 0.64822 0.04002 0.0
H366 H 0.2894 0.70935 0.26225 0.0
H367 H 0.3165 0.68358 0.19096 0.0
H368 H 0.08807 0.5136 0.21359 0.0
H369 H 0.11313 0.48932 0.13039 0.0
H370 H 0.08587 0.5755 0.22151 0.0
H371 H 0.11958 0.62902 0.28834 0.0
C372 C 0.57991 0.13481 0.44433 0.0
C373 C 0.61337 0.17508 0.38544 0.0
C374 C 0.57886 0.2198 0.45822 0.0
C375 C 0.54344 0.17901 0.50971 0.0
N376 N 0.50471 0.09575 0.53554 0.0
N377 N 0.63538 0.25084 0.31003 0.0
C378 C 0.54203 0.13576 0.49703 0.0
C379 C 0.60985 0.21601 0.38434 0.0
N380 N 0.58559 0.09688 0.45637 0.0
N381 N 0.58363 0.26245 0.48143 0.0
H382 H 0.65662 0.24779 0.25084 0.0
H383 H 0.63129 0.27982 0.29863 0.0
H384 H 0.56131 0.26695 0.53432 0.0
H385 H 0.61197 0.29372 0.45498 0.0
H386 H 0.56512 0.06904 0.50908 0.0
H387 H 0.61299 0.0946 0.42142 0.0
H388 H 0.49936 0.06258 0.51798 0.0
H389 H 0.4774 0.09568 0.57843 0.0
C390 C 0.39002 0.53529 0.7884 0.0
C391 C 0.36896 0.54359 0.88239 0.0
C392 C 0.43209 0.62425 0.8848 0.0
C393 C 0.44585 0.6187 0.77669 0.0
N394 N 0.437 0.56816 0.62256 0.0
N395 N 0.36875 0.59908 0.01429 0.0
C396 C 0.42507 0.57382 0.72795 0.0
C397 C 0.38991 0.58875 0.93033 0.0
N398 N 0.37685 0.49056 0.75814 0.0
N399 N 0.46026 0.66291 0.94575 0.0
H400 H 0.33744 0.57489 0.05036 0.0
H401 H 0.38057 0.63307 0.04188 0.0
H402 H 0.49325 0.6874 0.91816 0.0
H403 H 0.45345 0.66685 0.02848 0.0
H404 H 0.39348 0.48239 0.69596 0.0
H405 H 0.35268 0.46174 0.80384 0.0
H406 H 0.41924 0.53695 0.57858 0.0
H407 H 0.46248 0.59564 0.57598 0.0
C408 C 0.76489 0.35816 0.09934 0.0
C409 C 0.8012 0.35995 0.16521 0.0
C410 C 0.84742 0.4446 0.13675 0.0
C411 C 0.81154 0.44234 0.06811 0.0
N412 N 0.74111 0.39677 0.96455 0.0
N413 N 0.87938 0.40264 0.23463 0.0
C414 C 0.77164 0.399 0.04399 0.0
C415 C 0.84317 0.40261 0.18082 0.0
N416 N 0.72346 0.31745 0.09179 0.0
N417 N 0.8848 0.48695 0.16265 0.0
H418 H 0.87673 0.37288 0.27171 0.0
H419 H 0.91277 0.43126 0.23724 0.0
H420 H 0.89019 0.51822 0.12825 0.0
H421 H 0.90929 0.49165 0.22277 0.0
H422 H 0.69376 0.3151 0.05675 0.0
H423 H 0.71761 0.28638 0.12831 0.0
H424 H 0.71371 0.3657 0.93451 0.0
H425 H 0.74564 0.42602 0.92067 0.0
C426 C 0.41761 0.87329 0.4946 0.0
C427 C 0.39075 0.84409 0.40547 0.0
C428 C 0.43221 0.8008 0.41505 0.0
C429 C 0.45895 0.82944 0.5052 0.0
N430 N 0.48456 0.8987 0.61595 0.0
N431 N 0.38178 0.79083 0.25914 0.0
C432 C 0.45407 0.86768 0.54034 0.0
C433 C 0.4014 0.8115 0.35841 0.0
N434 N 0.40694 0.90493 0.53798 0.0
N435 N 0.43425 0.76175 0.38745 0.0
H436 H 0.35925 0.79865 0.21601 0.0
H437 H 0.39138 0.76995 0.21461 0.0
H438 H 0.45599 0.75203 0.42729 0.0
H439 H 0.41125 0.73664 0.33201 0.0
H440 H 0.42119 0.92339 0.61134 0.0
H441 H 0.38234 0.91155 0.50165 0.0
H442 H 0.48574 0.92975 0.6374 0.0
H443 H 0.51098 0.8948 0.65184 0.0
C444 C 0.6199 0.41233 0.93719 0.0
C445 C 0.63618 0.45679 0.88715 0.0
C446 C 0.57521 0.42112 0.74484 0.0
C447 C 0.55785 0.37717 0.79784 0.0
N448 N 0.55373 0.33565 -0.03285 0.0
N449 N 0.61953 0.50505 0.7666 0.0
C450 C 0.57705 0.37427 0.90133 0.0
C451 C 0.61056 0.46165 0.79844 0.0
N452 N 0.6462 0.40519 0.01355 0.0
N453 N 0.56009 0.42417 0.64096 0.0
H454 H 0.64385 0.53535 0.80734 0.0
H455 H 0.59929 0.51045 0.70886 0.0
H456 H 0.53535 0.39529 0.59689 0.0
H457 H 0.57531 0.45486 0.59432 0.0
H458 H 0.63764 0.37208 0.04226 0.0
H459 H 0.67861 0.43116 0.04046 0.0
H460 H 0.56432 0.33353 0.04769 0.0
H461 H 0.52092 0.3083 0.94667 0.0
loop_
_geom_bond_atom_site_label_1
_geom_bond_atom_site_label_2
_geom_bond_distance
_geom_bond_site_symmetry_2
_ccdc_geom_bond_type
O0 Zn1 1.953 1_554 S
O0 C16 1.225 . S
Zn1 O0 1.953 1_556 S
Zn1 O2 1.949 1_556 S
Zn1 O8 1.919 1_556 S
Zn1 O13 1.924 . S
O2 Zn1 1.949 1_554 S
O2 Zn3 1.923 . S
O2 Zn4 1.950 . S
O2 Zn5 1.945 1_554 S
Zn3 O2 1.923 . S
Zn3 O6 1.933 . S
Zn3 O9 1.941 . S
Zn3 O10 1.965 . S
Zn4 O2 1.950 . S
Zn4 O11 1.938 . S
Zn4 O12 1.906 . S
Zn4 O22 1.953 . S
Zn5 O2 1.945 1_556 S
Zn5 O7 1.932 . S
Zn5 O14 1.977 . S
Zn5 O15 1.910 . S
O6 Zn3 1.933 . S
O6 C17 1.226 1_554 S
O7 Zn5 1.932 . S
O7 C17 1.307 . S
O8 Zn1 1.919 1_554 S
O8 C19 1.253 . S
O9 Zn3 1.941 . S
O9 C19 1.283 . S
O10 Zn3 1.965 . S
O10 C18 1.303 . S
O11 Zn4 1.938 . S
O11 C18 1.247 . S
O12 Zn4 1.906 . S
O12 C20 1.304 1_554 S
O13 Zn1 1.924 . S
O13 C21 1.311 . S
O14 Zn5 1.977 . S
O14 C20 1.272 . S
O15 Zn5 1.910 . S
O15 C21 1.231 . S
C16 O0 1.225 . S
C16 O22 1.298 . S
C17 O6 1.226 1_556 S
C17 O7 1.307 . S
C18 O10 1.303 . S
C18 O11 1.247 . S
C19 O8 1.253 . S
C19 O9 1.283 . S
C20 O12 1.304 1_556 S
C20 O14 1.272 . S
C21 O13 1.311 . S
C21 O15 1.231 . S
O22 Zn4 1.953 . S
O22 C16 1.298 . S
O23 Zn24 1.953 . S
O23 C39 1.225 . S
Zn24 O23 1.953 . S
Zn24 O25 1.949 . S
Zn24 O31 1.919 . S
Zn24 O36 1.924 . S
O25 Zn24 1.949 . S
O25 Zn26 1.923 . S
O25 Zn27 1.950 . S
O25 Zn28 1.945 . S
Zn26 O25 1.923 . S
Zn26 O29 1.933 . S
Zn26 O32 1.941 . S
Zn26 O33 1.965 . S
Zn27 O25 1.950 . S
Zn27 O34 1.938 . S
Zn27 O35 1.906 . S
Zn27 O45 1.953 . S
Zn28 O25 1.945 . S
Zn28 O30 1.932 . S
Zn28 O37 1.977 . S
Zn28 O38 1.910 . S
O29 Zn26 1.933 . S
O29 C40 1.226 . S
O30 Zn28 1.932 . S
O30 C40 1.307 . S
O31 Zn24 1.919 . S
O31 C42 1.253 . S
O32 Zn26 1.941 . S
O32 C42 1.283 . S
O33 Zn26 1.965 . S
O33 C41 1.303 . S
O34 Zn27 1.938 . S
O34 C41 1.247 . S
O35 Zn27 1.906 . S
O35 C43 1.304 . S
O36 Zn24 1.924 . S
O36 C44 1.311 . S
O37 Zn28 1.977 . S
O37 C43 1.272 . S
O38 Zn28 1.910 . S
O38 C44 1.231 . S
C39 O23 1.225 . S
C39 O45 1.298 . S
C40 O29 1.226 . S
C40 O30 1.307 . S
C41 O33 1.303 . S
C41 O34 1.247 . S
C42 O31 1.253 . S
C42 O32 1.283 . S
C43 O35 1.304 . S
C43 O37 1.272 . S
C44 O36 1.311 . S
C44 O38 1.231 . S
O45 Zn27 1.953 . S
O45 C39 1.298 . S
O46 Zn47 1.953 . S
O46 C62 1.225 . S
Zn47 O46 1.953 . S
Zn47 O48 1.949 . S
Zn47 O54 1.919 . S
Zn47 O59 1.924 . S
O48 Zn47 1.949 . S
O48 Zn49 1.923 . S
O48 Zn50 1.950 . S
O48 Zn51 1.945 . S
Zn49 O48 1.923 . S
Zn49 O52 1.933 . S
Zn49 O55 1.941 . S
Zn49 O56 1.965 . S
Zn50 O48 1.950 . S
Zn50 O57 1.938 . S
Zn50 O58 1.906 . S
Zn50 O68 1.953 . S
Zn51 O48 1.945 . S
Zn51 O53 1.932 . S
Zn51 O60 1.977 . S
Zn51 O61 1.910 . S
O52 Zn49 1.933 . S
O52 C63 1.226 . S
O53 Zn51 1.932 . S
O53 C63 1.307 . S
O54 Zn47 1.919 . S
O54 C65 1.253 . S
O55 Zn49 1.941 . S
O55 C65 1.283 . S
O56 Zn49 1.965 . S
O56 C64 1.303 . S
O57 Zn50 1.938 . S
O57 C64 1.247 . S
O58 Zn50 1.906 . S
O58 C66 1.304 . S
O59 Zn47 1.924 . S
O59 C67 1.311 . S
O60 Zn51 1.977 . S
O60 C66 1.272 . S
O61 Zn51 1.910 . S
O61 C67 1.231 . S
C62 O46 1.225 . S
C62 O68 1.298 . S
C63 O52 1.226 . S
C63 O53 1.307 . S
C64 O56 1.303 . S
C64 O57 1.247 . S
C65 O54 1.253 . S
C65 O55 1.283 . S
C66 O58 1.304 . S
C66 O60 1.272 . S
C67 O59 1.311 . S
C67 O61 1.231 . S
O68 Zn50 1.953 . S
O68 C62 1.298 . S
O69 Zn70 1.953 1_554 S
O69 C85 1.225 . S
Zn70 O69 1.953 1_556 S
Zn70 O71 1.949 1_556 S
Zn70 O77 1.919 1_556 S
Zn70 O82 1.924 . S
O71 Zn70 1.949 1_554 S
O71 Zn72 1.923 . S
O71 Zn73 1.950 . S
O71 Zn74 1.945 1_554 S
Zn72 O71 1.923 . S
Zn72 O75 1.933 . S
Zn72 O78 1.941 . S
Zn72 O79 1.965 . S
Zn73 O71 1.950 . S
Zn73 O80 1.938 . S
Zn73 O81 1.906 . S
Zn73 O91 1.953 . S
Zn74 O71 1.945 1_556 S
Zn74 O76 1.932 . S
Zn74 O83 1.977 . S
Zn74 O84 1.910 . S
O75 Zn72 1.933 . S
O75 C86 1.226 1_554 S
O76 Zn74 1.932 . S
O76 C86 1.307 . S
O77 Zn70 1.919 1_554 S
O77 C88 1.253 . S
O78 Zn72 1.941 . S
O78 C88 1.283 . S
O79 Zn72 1.965 . S
O79 C87 1.303 . S
O80 Zn73 1.938 . S
O80 C87 1.247 . S
O81 Zn73 1.906 . S
O81 C89 1.304 1_554 S
O82 Zn70 1.924 . S
O82 C90 1.311 . S
O83 Zn74 1.977 . S
O83 C89 1.272 . S
O84 Zn74 1.910 . S
O84 C90 1.231 . S
C85 O69 1.225 . S
C85 O91 1.298 . S
C86 O75 1.226 1_556 S
C86 O76 1.307 . S
C87 O79 1.303 . S
C87 O80 1.247 . S
C88 O77 1.253 . S
C88 O78 1.283 . S
C89 O81 1.304 1_556 S
C89 O83 1.272 . S
C90 O82 1.311 . S
C90 O84 1.231 . S
O91 Zn73 1.953 . S
O91 C85 1.298 . S
O92 Zn93 1.953 . S
O92 C108 1.225 . S
Zn93 O92 1.953 . S
Zn93 O94 1.949 . S
Zn93 O100 1.919 . S
Zn93 O105 1.924 . S
O94 Zn93 1.949 . S
O94 Zn95 1.923 . S
O94 Zn96 1.950 . S
O94 Zn97 1.945 . S
Zn95 O94 1.923 . S
Zn95 O98 1.933 . S
Zn95 O101 1.941 . S
Zn95 O102 1.965 . S
Zn96 O94 1.950 . S
Zn96 O103 1.938 . S
Zn96 O104 1.906 . S
Zn96 O114 1.953 . S
Zn97 O94 1.945 . S
Zn97 O99 1.932 . S
Zn97 O106 1.977 . S
Zn97 O107 1.910 . S
O98 Zn95 1.933 . S
O98 C109 1.226 . S
O99 Zn97 1.932 . S
O99 C109 1.307 . S
O100 Zn93 1.919 . S
O100 C111 1.253 . S
O101 Zn95 1.941 . S
O101 C111 1.283 . S
O102 Zn95 1.965 . S
O102 C110 1.303 . S
O103 Zn96 1.938 . S
O103 C110 1.247 . S
O104 Zn96 1.906 . S
O104 C112 1.304 . S
O105 Zn93 1.924 . S
O105 C113 1.311 . S
O106 Zn97 1.977 . S
O106 C112 1.272 . S
O107 Zn97 1.910 . S
O107 C113 1.231 . S
C108 O92 1.225 . S
C108 O114 1.298 . S
C109 O98 1.226 . S
C109 O99 1.307 . S
C110 O102 1.303 . S
C110 O103 1.247 . S
C111 O100 1.253 . S
C111 O101 1.283 . S
C112 O104 1.304 . S
C112 O106 1.272 . S
C113 O105 1.311 . S
C113 O107 1.231 . S
O114 Zn96 1.953 . S
O114 C108 1.298 . S
O115 Zn116 1.953 . S
O115 C131 1.225 . S
Zn116 O115 1.953 . S
Zn116 O117 1.949 . S
Zn116 O123 1.919 . S
Zn116 O128 1.924 . S
O117 Zn116 1.949 . S
O117 Zn118 1.923 . S
O117 Zn119 1.950 . S
O117 Zn120 1.945 . S
Zn118 O117 1.923 . S
Zn118 O121 1.933 . S
Zn118 O124 1.941 . S
Zn118 O125 1.965 . S
Zn119 O117 1.950 . S
Zn119 O126 1.938 . S
Zn119 O127 1.906 . S
Zn119 O137 1.953 . S
Zn120 O117 1.945 . S
Zn120 O122 1.932 . S
Zn120 O129 1.977 . S
Zn120 O130 1.910 . S
O121 Zn118 1.933 . S
O121 C132 1.226 . S
O122 Zn120 1.932 . S
O122 C132 1.307 . S
O123 Zn116 1.919 . S
O123 C134 1.253 . S
O124 Zn118 1.941 . S
O124 C134 1.283 . S
O125 Zn118 1.965 . S
O125 C133 1.303 . S
O126 Zn119 1.938 . S
O126 C133 1.247 . S
O127 Zn119 1.906 . S
O127 C135 1.304 . S
O128 Zn116 1.924 . S
O128 C136 1.311 . S
O129 Zn120 1.977 . S
O129 C135 1.272 . S
O130 Zn120 1.910 . S
O130 C136 1.231 . S
C131 O115 1.225 . S
C131 O137 1.298 . S
C132 O121 1.226 . S
C132 O122 1.307 . S
C133 O125 1.303 . S
C133 O126 1.247 . S
C134 O123 1.253 . S
C134 O124 1.283 . S
C135 O127 1.304 . S
C135 O129 1.272 . S
C136 O128 1.311 . S
C136 O130 1.231 . S
O137 Zn119 1.953 . S
O137 C131 1.298 . S
C138 C139 1.363 . S
C138 C144 1.379 . S
C138 N146 1.356 . S
C139 C138 1.363 . S
C139 C145 1.363 . S
C140 C141 1.363 . S
C140 C145 1.379 . S
C140 N147 1.356 . S
C141 C140 1.363 . S
C141 C144 1.363 . S
N142 C144 1.356 . S
N142 H154 0.984 . S
N142 H155 0.985 . S
N143 C145 1.356 . S
N143 H148 0.984 . S
N143 H149 0.985 . S
C144 C138 1.379 . S
C144 C141 1.363 . S
C144 N142 1.356 . S
C145 C139 1.363 . S
C145 C140 1.379 . S
C145 N143 1.356 . S
N146 C138 1.356 . S
N146 H152 0.984 . S
N146 H153 0.984 . S
N147 C140 1.356 . S
N147 H150 0.984 . S
N147 H151 0.985 . S
H148 N143 0.984 . S
H149 N143 0.985 . S
H150 N147 0.984 . S
H151 N147 0.985 . S
H152 N146 0.984 . S
H153 N146 0.984 . S
H154 N142 0.984 . S
H155 N142 0.985 . S
C156 C157 1.363 . S
C156 C162 1.379 1_455 S
C156 N164 1.356 . S
C157 C156 1.363 . S
C157 C163 1.363 1_455 S
C158 C159 1.363 . S
C158 C163 1.379 . S
C158 N165 1.356 . S
C159 C158 1.363 . S
C159 C162 1.363 . S
N160 C162 1.356 . S
N160 H172 0.984 . S
N160 H173 0.985 . S
N161 C163 1.356 1_456 S
N161 H166 0.984 . S
N161 H167 0.985 1_455 S
C162 C156 1.379 1_655 S
C162 C159 1.363 . S
C162 N160 1.356 . S
C163 C157 1.363 1_655 S
C163 C158 1.379 . S
C163 N161 1.356 1_654 S
N164 C156 1.356 . S
N164 H170 0.984 . S
N164 H171 0.984 . S
N165 C158 1.356 . S
N165 H168 0.984 . S
N165 H169 0.985 . S
H166 N161 0.984 . S
H167 N161 0.985 1_655 S
H168 N165 0.984 . S
H169 N165 0.985 . S
H170 N164 0.984 . S
H171 N164 0.984 . S
H172 N160 0.984 . S
H173 N160 0.985 . S
C174 C175 1.363 1_565 S
C174 C180 1.379 . S
C174 N182 1.356 1_565 S
C175 C174 1.363 1_545 S
C175 C181 1.363 . S
C176 C177 1.363 . S
C176 C181 1.379 1_565 S
C176 N183 1.356 . S
C177 C176 1.363 . S
C177 C180 1.363 . S
N178 C180 1.356 . S
N178 H190 0.984 . S
N178 H191 0.985 . S
N179 C181 1.356 . S
N179 H184 0.984 . S
N179 H185 0.985 . S
C180 C174 1.379 . S
C180 C177 1.363 . S
C180 N178 1.356 . S
C181 C175 1.363 . S
C181 C176 1.379 1_545 S
C181 N179 1.356 . S
N182 C174 1.356 1_545 S
N182 H188 0.984 . S
N182 H189 0.984 . S
N183 C176 1.356 . S
N183 H186 0.984 . S
N183 H187 0.985 . S
H184 N179 0.984 . S
H185 N179 0.985 . S
H186 N183 0.984 . S
H187 N183 0.985 . S
H188 N182 0.984 . S
H189 N182 0.984 . S
H190 N178 0.984 . S
H191 N178 0.985 . S
C192 C193 1.363 . S
C192 C198 1.379 . S
C192 N200 1.356 . S
C193 C192 1.363 . S
C193 C199 1.363 . S
C194 C195 1.363 . S
C194 C199 1.379 . S
C194 N201 1.356 . S
C195 C194 1.363 . S
C195 C198 1.363 . S
N196 C198 1.356 . S
N196 H208 0.984 . S
N196 H209 0.985 1_556 S
N197 C199 1.356 . S
N197 H202 0.984 . S
N197 H203 0.985 . S
C198 C192 1.379 . S
C198 C195 1.363 . S
C198 N196 1.356 . S
C199 C193 1.363 . S
C199 C194 1.379 . S
C199 N197 1.356 . S
N200 C192 1.356 . S
N200 H206 0.984 . S
N200 H207 0.984 . S
N201 C194 1.356 . S
N201 H204 0.984 . S
N201 H205 0.985 . S
H202 N197 0.984 . S
H203 N197 0.985 . S
H204 N201 0.984 . S
H205 N201 0.985 . S
H206 N200 0.984 . S
H207 N200 0.984 . S
H208 N196 0.984 . S
H209 N196 0.985 1_554 S
C210 C211 1.363 . S
C210 C216 1.379 1_455 S
C210 N218 1.356 . S
C211 C210 1.363 . S
C211 C217 1.363 . S
C212 C213 1.339 1_455 S
C212 C217 1.399 . S
C212 N219 1.352 1_455 S
C213 C212 1.339 1_655 S
C213 C216 1.363 . S
N214 C216 1.356 . S
N214 H226 0.984 . S
N214 H227 0.985 . S
N215 C217 1.356 . S
N215 H220 0.984 . S
N215 H221 0.985 . S
C216 C210 1.379 1_655 S
C216 C213 1.363 . S
C216 N214 1.356 . S
C217 C211 1.363 . S
C217 C212 1.399 . S
C217 N215 1.356 . S
N218 C210 1.356 . S
N218 H224 0.984 . S
N218 H225 0.984 . S
N219 C212 1.352 1_655 S
N219 H222 0.984 . S
N219 H223 0.985 . S
H220 N215 0.984 . S
H221 N215 0.985 . S
H222 N219 0.984 . S
H223 N219 0.985 . S
H224 N218 0.984 . S
H225 N218 0.984 . S
H226 N214 0.984 . S
H227 N214 0.985 . S
C228 C229 1.363 . S
C228 C234 1.379 1_545 S
C228 N236 1.356 . S
C229 C228 1.363 . S
C229 C235 1.363 . S
C230 C231 1.363 1_545 S
C230 C235 1.379 . S
C230 N237 1.356 1_545 S
C231 C230 1.363 1_565 S
C231 C234 1.363 . S
N232 C234 1.356 . S
N232 H244 0.984 . S
N232 H245 0.985 . S
N233 C235 1.356 . S
N233 H238 0.984 . S
N233 H239 0.985 . S
C234 C228 1.379 1_565 S
C234 C231 1.363 . S
C234 N232 1.356 . S
C235 C229 1.363 . S
C235 C230 1.379 . S
C235 N233 1.356 . S
N236 C228 1.356 . S
N236 H242 0.984 . S
N236 H243 0.984 . S
N237 C230 1.356 1_565 S
N237 H240 0.984 . S
N237 H241 0.985 1_565 S
H238 N233 0.984 . S
H239 N233 0.985 . S
H240 N237 0.984 . S
H241 N237 0.985 1_545 S
H242 N236 0.984 . S
H243 N236 0.984 . S
H244 N232 0.984 . S
H245 N232 0.985 . S
C246 C247 1.363 . S
C246 C252 1.379 . S
C246 N254 1.356 . S
C247 C246 1.363 . S
C247 C253 1.363 . S
C248 C249 1.363 . S
C248 C253 1.379 . S
C248 N255 1.356 . S
C249 C248 1.363 . S
C249 C252 1.363 . S
N250 C252 1.356 . S
N250 H262 0.984 . S
N250 H263 0.985 . S
N251 C253 1.356 . S
N251 H256 0.984 . S
N251 H257 0.985 . S
C252 C246 1.379 . S
C252 C249 1.363 . S
C252 N250 1.356 . S
C253 C247 1.363 . S
C253 C248 1.379 . S
C253 N251 1.356 . S
N254 C246 1.356 . S
N254 H260 0.984 . S
N254 H261 0.984 . S
N255 C248 1.356 . S
N255 H258 0.984 . S
N255 H259 0.985 . S
H256 N251 0.984 . S
H257 N251 0.985 . S
H258 N255 0.984 . S
H259 N255 0.985 . S
H260 N254 0.984 . S
H261 N254 0.984 . S
H262 N250 0.984 . S
H263 N250 0.985 . S
C264 C265 1.363 . S
C264 C270 1.379 . S
C264 N272 1.356 . S
C265 C264 1.363 . S
C265 C271 1.363 . S
C266 C267 1.363 . S
C266 C271 1.379 . S
C266 N273 1.356 . S
C267 C266 1.363 . S
C267 C270 1.363 . S
N268 C270 1.356 . S
N268 H280 0.984 . S
N268 H281 0.985 . S
N269 C271 1.356 1_554 S
N269 H274 0.984 . S
N269 H275 0.985 . S
C270 C264 1.379 . S
C270 C267 1.363 . S
C270 N268 1.356 . S
C271 C265 1.363 . S
C271 C266 1.379 . S
C271 N269 1.356 1_556 S
N272 C264 1.356 . S
N272 H278 0.984 . S
N272 H279 0.984 1_556 S
N273 C266 1.356 . S
N273 H276 0.984 . S
N273 H277 0.985 . S
H274 N269 0.984 . S
H275 N269 0.985 . S
H276 N273 0.984 . S
H277 N273 0.985 . S
H278 N272 0.984 . S
H279 N272 0.984 1_554 S
H280 N268 0.984 . S
H281 N268 0.985 . S
C282 C283 1.363 . S
C282 C288 1.379 . S
C282 N290 1.356 . S
C283 C282 1.363 . S
C283 C289 1.363 . S
C284 C285 1.363 . S
C284 C289 1.379 . S
C284 N291 1.356 1_554 S
C285 C284 1.363 . S
C285 C288 1.363 . S
N286 C288 1.356 . S
N286 H298 0.984 . S
N286 H299 0.985 . S
N287 C289 1.356 . S
N287 H292 0.984 . S
N287 H293 0.985 . S
C288 C282 1.379 . S
C288 C285 1.363 . S
C288 N286 1.356 . S
C289 C283 1.363 . S
C289 C284 1.379 . S
C289 N287 1.356 . S
N290 C282 1.356 . S
N290 H296 0.984 . S
N290 H297 0.984 . S
N291 C284 1.356 1_556 S
N291 H294 0.984 . S
N291 H295 0.985 . S
H292 N287 0.984 . S
H293 N287 0.985 . S
H294 N291 0.984 . S
H295 N291 0.985 . S
H296 N290 0.984 . S
H297 N290 0.984 . S
H298 N286 0.984 . S
H299 N286 0.985 . S
C300 C301 1.363 . S
C300 C306 1.379 . S
C300 N308 1.356 . S
C301 C300 1.363 . S
C301 C307 1.363 . S
C302 C303 1.363 . S
C302 C307 1.379 . S
C302 N309 1.356 . S
C303 C302 1.363 . S
C303 C306 1.363 . S
N304 C306 1.356 . S
N304 H316 0.984 . S
N304 H317 0.985 . S
N305 C307 1.356 . S
N305 H310 0.984 . S
N305 H311 0.985 . S
C306 C300 1.379 . S
C306 C303 1.363 . S
C306 N304 1.356 . S
C307 C301 1.363 . S
C307 C302 1.379 . S
C307 N305 1.356 . S
N308 C300 1.356 . S
N308 H314 0.984 . S
N308 H315 0.984 . S
N309 C302 1.356 . S
N309 H312 0.984 . S
N309 H313 0.985 . S
H310 N305 0.984 . S
H311 N305 0.985 . S
H312 N309 0.984 . S
H313 N309 0.985 . S
H314 N308 0.984 . S
H315 N308 0.984 . S
H316 N304 0.984 . S
H317 N304 0.985 . S
C318 C319 1.363 . S
C318 C324 1.379 . S
C318 N326 1.356 . S
C319 C318 1.363 . S
C319 C325 1.363 . S
C320 C321 1.363 . S
C320 C325 1.379 . S
C320 N327 1.356 . S
C321 C320 1.363 . S
C321 C324 1.363 . S
N322 C324 1.356 1_554 S
N322 H334 0.984 . S
N322 H335 0.985 . S
N323 C325 1.356 . S
N323 H328 0.984 . S
N323 H329 0.985 . S
C324 C318 1.379 . S
C324 C321 1.363 . S
C324 N322 1.356 1_556 S
C325 C319 1.363 . S
C325 C320 1.379 . S
C325 N323 1.356 . S
N326 C318 1.356 . S
N326 H332 0.984 . S
N326 H333 0.984 . S
N327 C320 1.356 . S
N327 H330 0.984 . S
N327 H331 0.985 . S
H328 N323 0.984 . S
H329 N323 0.985 . S
H330 N327 0.984 . S
H331 N327 0.985 . S
H332 N326 0.984 . S
H333 N326 0.984 . S
H334 N322 0.984 . S
H335 N322 0.985 . S
C336 C337 1.363 . S
C336 C342 1.379 . S
C336 N344 1.356 . S
C337 C336 1.363 . S
C337 C343 1.363 . S
C338 C339 1.363 . S
C338 C343 1.379 . S
C338 N345 1.356 1_554 S
C339 C338 1.363 . S
C339 C342 1.363 . S
N340 C342 1.356 . S
N340 H352 0.984 . S
N340 H353 0.985 . S
N341 C343 1.356 . S
N341 H346 0.984 . S
N341 H347 0.985 . S
C342 C336 1.379 . S
C342 C339 1.363 . S
C342 N340 1.356 . S
C343 C337 1.363 . S
C343 C338 1.379 . S
C343 N341 1.356 . S
N344 C336 1.356 . S
N344 H350 0.984 . S
N344 H351 0.984 . S
N345 C338 1.356 1_556 S
N345 H348 0.984 . S
N345 H349 0.985 . S
H346 N341 0.984 . S
H347 N341 0.985 . S
H348 N345 0.984 . S
H349 N345 0.985 . S
H350 N344 0.984 . S
H351 N344 0.984 . S
H352 N340 0.984 . S
H353 N340 0.985 . S
C354 C355 1.363 . S
C354 C360 1.379 . S
C354 N362 1.356 . S
C355 C354 1.363 . S
C355 C361 1.363 . S
C356 C357 1.363 . S
C356 C361 1.379 . S
C356 N363 1.356 . S
C357 C356 1.363 . S
C357 C360 1.363 . S
N358 C360 1.356 . S
N358 H370 0.984 . S
N358 H371 0.985 . S
N359 C361 1.356 . S
N359 H364 0.984 . S
N359 H365 0.985 . S
C360 C354 1.379 . S
C360 C357 1.363 . S
C360 N358 1.356 . S
C361 C355 1.363 . S
C361 C356 1.379 . S
C361 N359 1.356 . S
N362 C354 1.356 . S
N362 H368 0.984 1_554 S
N362 H369 0.984 1_554 S
N363 C356 1.356 . S
N363 H366 0.984 . S
N363 H367 0.985 . S
H364 N359 0.984 . S
H365 N359 0.985 . S
H366 N363 0.984 . S
H367 N363 0.985 . S
H368 N362 0.984 1_556 S
H369 N362 0.984 1_556 S
H370 N358 0.984 . S
H371 N358 0.985 . S
C372 C373 1.363 . S
C372 C378 1.379 . S
C372 N380 1.356 . S
C373 C372 1.363 . S
C373 C379 1.363 . S
C374 C375 1.363 . S
C374 C379 1.379 . S
C374 N381 1.356 . S
C375 C374 1.363 . S
C375 C378 1.363 . S
N376 C378 1.356 . S
N376 H388 0.984 . S
N376 H389 0.985 . S
N377 C379 1.356 . S
N377 H382 0.984 . S
N377 H383 0.985 . S
C378 C372 1.379 . S
C378 C375 1.363 . S
C378 N376 1.356 . S
C379 C373 1.363 . S
C379 C374 1.379 . S
C379 N377 1.356 . S
N380 C372 1.356 . S
N380 H386 0.984 . S
N380 H387 0.984 . S
N381 C374 1.356 . S
N381 H384 0.984 . S
N381 H385 0.985 . S
H382 N377 0.984 . S
H383 N377 0.985 . S
H384 N381 0.984 . S
H385 N381 0.985 . S
H386 N380 0.984 . S
H387 N380 0.984 . S
H388 N376 0.984 . S
H389 N376 0.985 . S
C390 C391 1.363 . S
C390 C396 1.379 . S
C390 N398 1.356 . S
C391 C390 1.363 . S
C391 C397 1.363 . S
C392 C393 1.363 . S
C392 C397 1.379 . S
C392 N399 1.356 . S
C393 C392 1.363 . S
C393 C396 1.363 . S
N394 C396 1.356 . S
N394 H406 0.984 . S
N394 H407 0.985 . S
N395 C397 1.356 1_554 S
N395 H400 0.984 . S
N395 H401 0.985 . S
C396 C390 1.379 . S
C396 C393 1.363 . S
C396 N394 1.356 . S
C397 C391 1.363 . S
C397 C392 1.379 . S
C397 N395 1.356 1_556 S
N398 C390 1.356 . S
N398 H404 0.984 . S
N398 H405 0.984 . S
N399 C392 1.356 . S
N399 H402 0.984 . S
N399 H403 0.985 . S
H400 N395 0.984 . S
H401 N395 0.985 . S
H402 N399 0.984 . S
H403 N399 0.985 . S
H404 N398 0.984 . S
H405 N398 0.984 . S
H406 N394 0.984 . S
H407 N394 0.985 . S
C408 C409 1.363 . S
C408 C414 1.379 . S
C408 N416 1.356 . S
C409 C408 1.363 . S
C409 C415 1.363 . S
C410 C411 1.363 . S
C410 C415 1.379 . S
C410 N417 1.356 . S
C411 C410 1.363 . S
C411 C414 1.363 . S
N412 C414 1.356 1_556 S
N412 H424 0.984 . S
N412 H425 0.985 . S
N413 C415 1.356 . S
N413 H418 0.984 . S
N413 H419 0.985 . S
C414 C408 1.379 . S
C414 C411 1.363 . S
C414 N412 1.356 1_554 S
C415 C409 1.363 . S
C415 C410 1.379 . S
C415 N413 1.356 . S
N416 C408 1.356 . S
N416 H422 0.984 . S
N416 H423 0.984 . S
N417 C410 1.356 . S
N417 H420 0.984 . S
N417 H421 0.985 . S
H418 N413 0.984 . S
H419 N413 0.985 . S
H420 N417 0.984 . S
H421 N417 0.985 . S
H422 N416 0.984 . S
H423 N416 0.984 . S
H424 N412 0.984 . S
H425 N412 0.985 . S
C426 C427 1.363 . S
C426 C432 1.379 . S
C426 N434 1.356 . S
C427 C426 1.363 . S
C427 C433 1.363 . S
C428 C429 1.363 . S
C428 C433 1.379 . S
C428 N435 1.356 . S
C429 C428 1.363 . S
C429 C432 1.363 . S
N430 C432 1.356 . S
N430 H442 0.984 . S
N430 H443 0.985 . S
N431 C433 1.356 . S
N431 H436 0.984 . S
N431 H437 0.985 . S
C432 C426 1.379 . S
C432 C429 1.363 . S
C432 N430 1.356 . S
C433 C427 1.363 . S
C433 C428 1.379 . S
C433 N431 1.356 . S
N434 C426 1.356 . S
N434 H440 0.984 . S
N434 H441 0.984 . S
N435 C428 1.356 . S
N435 H438 0.984 . S
N435 H439 0.985 . S
H436 N431 0.984 . S
H437 N431 0.985 . S
H438 N435 0.984 . S
H439 N435 0.985 . S
H440 N434 0.984 . S
H441 N434 0.984 . S
H442 N430 0.984 . S
H443 N430 0.985 . S
C444 C445 1.363 . S
C444 C450 1.379 . S
C444 N452 1.356 1_556 S
C445 C444 1.363 . S
C445 C451 1.363 . S
C446 C447 1.363 . S
C446 C451 1.379 . S
C446 N453 1.356 . S
C447 C446 1.363 . S
C447 C450 1.363 . S
N448 C450 1.356 . S
N448 H460 0.984 . S
N448 H461 0.985 . S
N449 C451 1.356 . S
N449 H454 0.984 . S
N449 H455 0.985 . S
C450 C444 1.379 . S
C450 C447 1.363 . S
C450 N448 1.356 . S
C451 C445 1.363 . S
C451 C446 1.379 . S
C451 N449 1.356 . S
N452 C444 1.356 1_554 S
N452 H458 0.984 . S
N452 H459 0.984 . S
N453 C446 1.356 . S
N453 H456 0.984 . S
N453 H457 0.985 . S
H454 N449 0.984 . S
H455 N449 0.985 . S
H456 N453 0.984 . S
H457 N453 0.985 . S
H458 N452 0.984 . S
H459 N452 0.984 . S
H460 N448 0.984 . S
H461 N448 0.985 . S
C139 C131 1.522 . S
C141 C20 1.509 . S
C157 C16 1.522 . S
C159 C43 1.509 . S
C175 C39 1.522 . S
C177 C66 1.508 . S
C193 C62 1.522 . S
C195 C89 1.509 . S
C211 C112 1.509 . S
C213 C85 1.522 . S
C229 C135 1.508 . S
C231 C108 1.522 . S
C247 C21 0.973 . S
C249 C18 1.074 . S
C265 C44 0.973 1_556 S
C267 C41 1.074 . S
C283 C67 0.973 . S
C285 C64 1.074 1_554 S
C301 C90 0.973 . S
C303 C87 1.074 . S
C319 C110 1.074 . S
C321 C113 0.973 1_556 S
C337 C136 0.973 . S
C339 C133 1.074 1_554 S
C355 C19 1.584 . S
C357 C109 1.633 . S
C373 C42 1.584 . S
C375 C132 1.633 . S
C391 C17 1.633 . S
C393 C65 1.584 . S
C409 C40 1.633 . S
C411 C88 1.584 . S
C427 C111 1.584 . S
C429 C63 1.633 . S
C445 C86 1.633 . S
C447 C134 1.584 . S
