# Generated by pormake.
# Topology ure, (4)-cn, num edge types: 1
# Building blocks:
#     Node 0, Type 0, BuildingBlock: QUQFOY_clean_sbu_1, # of connection points: 4
#     Node 1, Type 0, BuildingBlock: QUQFOY_clean_sbu_1, # of connection points: 4
#     Node 2, Type 0, BuildingBlock: QUQFOY_clean_sbu_1, # of connection points: 4
#     Node 3, Type 0, BuildingBlock: QUQFOY_clean_sbu_1, # of connection points: 4
#     Node 4, Type 0, BuildingBlock: QUQFOY_clean_sbu_1, # of connection points: 4
#     Node 5, Type 0, BuildingBlock: QUQFOY_clean_sbu_1, # of connection points: 4
#     Node 6, Type 0, BuildingBlock: QUQFOY_clean_sbu_1, # of connection points: 4
#     Node 7, Type 0, BuildingBlock: QUQFOY_clean_sbu_1, # of connection points: 4
#     Node 8, Type 0, BuildingBlock: QUQFOY_clean_sbu_1, # of connection points: 4
#     Node 9, Type 0, BuildingBlock: QUQFOY_clean_sbu_1, # of connection points: 4
#     Node 10, Type 0, BuildingBlock: QUQFOY_clean_sbu_1, # of connection points: 4
#     Node 11, Type 0, BuildingBlock: QUQFOY_clean_sbu_1, # of connection points: 4
#     Node 12, Type 0, BuildingBlock: QUQFOY_clean_sbu_1, # of connection points: 4
#     Node 13, Type 0, BuildingBlock: QUQFOY_clean_sbu_1, # of connection points: 4
#     Node 14, Type 0, BuildingBlock: QUQFOY_clean_sbu_1, # of connection points: 4
#     Node 15, Type 0, BuildingBlock: QUQFOY_clean_sbu_1, # of connection points: 4
#     Edge 16, Type (0, 0), BuildingBlock: OJICUG_clean_linker_0, # of connection points: 2
#     Edge 17, Type (0, 0), BuildingBlock: OJICUG_clean_linker_0, # of connection points: 2
#     Edge 18, Type (0, 0), BuildingBlock: OJICUG_clean_linker_0, # of connection points: 2
#     Edge 19, Type (0, 0), BuildingBlock: OJICUG_clean_linker_0, # of connection points: 2
#     Edge 20, Type (0, 0), BuildingBlock: OJICUG_clean_linker_0, # of connection points: 2
#     Edge 21, Type (0, 0), BuildingBlock: OJICUG_clean_linker_0, # of connection points: 2
#     Edge 22, Type (0, 0), BuildingBlock: OJICUG_clean_linker_0, # of connection points: 2
#     Edge 23, Type (0, 0), BuildingBlock: OJICUG_clean_linker_0, # of connection points: 2
#     Edge 24, Type (0, 0), BuildingBlock: OJICUG_clean_linker_0, # of connection points: 2
#     Edge 25, Type (0, 0), BuildingBlock: OJICUG_clean_linker_0, # of connection points: 2
#     Edge 26, Type (0, 0), BuildingBlock: OJICUG_clean_linker_0, # of connection points: 2
#     Edge 27, Type (0, 0), BuildingBlock: OJICUG_clean_linker_0, # of connection points: 2
#     Edge 28, Type (0, 0), BuildingBlock: OJICUG_clean_linker_0, # of connection points: 2
#     Edge 29, Type (0, 0), BuildingBlock: OJICUG_clean_linker_0, # of connection points: 2
#     Edge 30, Type (0, 0), BuildingBlock: OJICUG_clean_linker_0, # of connection points: 2
#     Edge 31, Type (0, 0), BuildingBlock: OJICUG_clean_linker_0, # of connection points: 2
#     Edge 32, Type (0, 0), BuildingBlock: OJICUG_clean_linker_0, # of connection points: 2
#     Edge 33, Type (0, 0), BuildingBlock: OJICUG_clean_linker_0, # of connection points: 2
#     Edge 34, Type (0, 0), BuildingBlock: OJICUG_clean_linker_0, # of connection points: 2
#     Edge 35, Type (0, 0), BuildingBlock: OJICUG_clean_linker_0, # of connection points: 2
#     Edge 36, Type (0, 0), BuildingBlock: OJICUG_clean_linker_0, # of connection points: 2
#     Edge 37, Type (0, 0), BuildingBlock: OJICUG_clean_linker_0, # of connection points: 2
#     Edge 38, Type (0, 0), BuildingBlock: OJICUG_clean_linker_0, # of connection points: 2
#     Edge 39, Type (0, 0), BuildingBlock: OJICUG_clean_linker_0, # of connection points: 2
#     Edge 40, Type (0, 0), BuildingBlock: OJICUG_clean_linker_0, # of connection points: 2
#     Edge 41, Type (0, 0), BuildingBlock: OJICUG_clean_linker_0, # of connection points: 2
#     Edge 42, Type (0, 0), BuildingBlock: OJICUG_clean_linker_0, # of connection points: 2
#     Edge 43, Type (0, 0), BuildingBlock: OJICUG_clean_linker_0, # of connection points: 2
#     Edge 44, Type (0, 0), BuildingBlock: OJICUG_clean_linker_0, # of connection points: 2
#     Edge 45, Type (0, 0), BuildingBlock: OJICUG_clean_linker_0, # of connection points: 2
#     Edge 46, Type (0, 0), BuildingBlock: OJICUG_clean_linker_0, # of connection points: 2
#     Edge 47, Type (0, 0), BuildingBlock: OJICUG_clean_linker_0, # of connection points: 2
# Relax obj value: 0.276
# Max RMSD: 0.318
# Mean RMSD: 0.225
data_MOF--net-ure--node1-QUQFOY_clean_sbu_1--edge1-OJICUG_clean_linker_0
_symmetry_space_group_name_H-M    P1
_symmetry_Int_Tables_number       1
_symmetry_cell_setting            triclinic
loop_
_symmetry_equiv_pos_as_xyz
'x, y, z'
_cell_length_a     23.128675
_cell_length_b     25.540018
_cell_length_c     24.219952
_cell_angle_alpha  92.817363
_cell_angle_beta   92.601281
_cell_angle_gamma 96.505773
loop_
_atom_site_label
_atom_site_type_symbol
_atom_site_fract_x
_atom_site_fract_y
_atom_site_fract_z
_atom_type_partial_charge
O0 O 0.33571 0.195 0.27576 0.0
Cd1 Cd 0.24821 0.18158 0.28767 0.0
Cd2 Cd 0.25446 0.29154 0.30309 0.0
O3 O 0.33958 0.28176 0.28515 0.0
O4 O 0.21019 0.1226 0.23745 0.0
O5 O 0.19525 0.20645 0.22996 0.0
C6 C 0.18525 0.1577 0.21146 0.0
C7 C 0.22925 0.37616 0.2869 0.0
C8 C 0.36439 0.24046 0.27578 0.0
C9 C 0.21171 0.21864 0.39507 0.0
O10 O 0.22023 0.26357 0.37464 0.0
O11 O 0.22194 0.17737 0.36764 0.0
O12 O 0.26354 0.36752 0.32776 0.0
O13 O 0.20908 0.33662 0.25369 0.0
O14 O 0.05786 0.99665 0.56852 0.0
Cd15 Cd 0.02566 0.97376 0.48925 0.0
Cd16 Cd 0.02474 0.0921 0.49482 0.0
O17 O 0.06992 0.08384 0.56873 0.0
O18 O 0.04424 0.89964 0.48025 0.0
O19 O 0.07869 0.9623 0.42673 0.0
C20 C 0.07639 0.91383 0.44029 0.0
C21 C 0.01858 0.18004 0.47122 0.0
C22 C 0.07393 0.04139 0.59322 0.0
C23 C 0.91118 0.0118 0.4824 0.0
O24 O 0.94082 0.05673 0.48856 0.0
O25 O 0.93625 0.97018 0.47802 0.0
O26 O -0.00066 0.16148 0.51585 0.0
O27 O 0.04597 0.14976 0.44024 0.0
O28 O 0.2041 0.78407 0.74854 0.0
Cd29 Cd 0.29163 0.79566 0.76931 0.0
Cd30 Cd 0.27147 0.67748 0.7702 0.0
O31 O 0.19118 0.69666 0.74181 0.0
O32 O 0.32477 0.86283 0.73829 0.0
O33 O 0.34671 0.78395 0.70977 0.0
C34 C 0.35211 0.8345 0.70491 0.0
C35 C 0.28073 0.58624 0.76698 0.0
C36 C 0.17136 0.74095 0.73824 0.0
C37 C 0.31545 0.75029 0.87518 0.0
O38 O 0.30213 0.70695 0.84728 0.0
O39 O 0.31445 0.79403 0.85263 0.0
O40 O 0.24549 0.60705 0.79838 0.0
O41 O 0.3094 0.6165 0.73416 0.0
O42 O 0.58453 0.99271 0.89894 0.0
Cd43 Cd 0.49746 0.96896 0.90609 0.0
Cd44 Cd 0.5303 0.97818 0.01908 0.0
O45 O 0.60572 0.01434 0.98772 0.0
O46 O 0.44826 1.0004 0.84964 0.0
O47 O 0.44969 0.02142 0.93978 0.0
C48 C 0.43056 0.0286 0.88996 0.0
C49 C 0.51791 0.994 0.11386 0.0
C50 C 0.62057 0.01212 0.93781 0.0
C51 C 0.48793 0.86917 0.95888 0.0
O52 O 0.50827 0.89871 0.00054 0.0
O53 O 0.47651 0.8889 0.91309 0.0
O54 O 0.55839 0.96816 0.09617 0.0
O55 O 0.48567 0.01439 0.07782 0.0
O56 O 0.24583 0.62727 0.30011 0.0
Cd57 Cd 0.27876 0.70616 0.30661 0.0
Cd58 Cd 0.296 0.68179 0.19593 0.0
O59 O 0.24485 0.61269 0.20957 0.0
O60 O 0.24464 0.73603 0.37342 0.0
O61 O 0.22908 0.76383 0.28942 0.0
C62 C 0.21989 0.76694 0.34167 0.0
C63 C 0.30183 0.70778 0.1045 0.0
C64 C 0.23382 0.59655 0.25716 0.0
C65 C 0.40064 0.708 0.27863 0.0
O66 O 0.37836 0.68989 0.23184 0.0
O67 O 0.36837 0.72204 0.31639 0.0
O68 O 0.31897 0.66452 0.12004 0.0
O69 O 0.27759 0.73596 0.14041 0.0
O70 O 0.50975 0.96941 0.37926 0.0
Cd71 Cd 0.53857 0.96734 0.46095 0.0
Cd72 Cd 0.56248 0.07764 0.45222 0.0
O73 O 0.53274 0.05515 0.37207 0.0
O74 O 0.50339 0.90105 0.49223 0.0
O75 O 0.48942 0.98083 0.52522 0.0
C76 C 0.48077 0.93016 0.52856 0.0
C77 C 0.54613 0.16414 0.4791 0.0
C78 C 0.51333 0.00989 0.35043 0.0
C79 C 0.66165 0.0122 0.48086 0.0
O80 O 0.64268 0.05679 0.47718 0.0
O81 O 0.62713 0.96985 0.47421 0.0
O82 O 0.58579 0.15473 0.44579 0.0
O83 O 0.51552 0.12434 0.4983 0.0
O84 O 0.26176 0.3386 0.82184 0.0
Cd85 Cd 0.22664 0.26109 0.83099 0.0
Cd86 Cd 0.18858 0.2674 0.72178 0.0
O87 O 0.24089 0.33808 0.73207 0.0
O88 O 0.27368 0.22651 0.88654 0.0
O89 O 0.2634 0.2003 0.79764 0.0
C90 C 0.2849 0.19409 0.84684 0.0
C91 C 0.17818 0.2377 0.62787 0.0
C92 C 0.26352 0.36173 0.77645 0.0
C93 C 0.10012 0.25638 0.81252 0.0
O94 O 0.11213 0.26328 0.76253 0.0
O95 O 0.13981 0.25075 0.84893 0.0
O96 O 0.15547 0.27808 0.64665 0.0
O97 O 0.20584 0.21201 0.66297 0.0
O98 O 0.03069 0.0772 0.85198 0.0
Cd99 Cd 0.99142 0.07677 0.92698 0.0
Cd100 Cd 0.9716 0.96952 0.90447 0.0
O101 O 0.02004 0.99051 0.83795 0.0
O102 O 0.0286 0.1352 0.9784 0.0
O103 O 0.03293 0.05037 0.99203 0.0
C104 C 0.04626 0.09932 0.00875 0.0
C105 C 0.98555 0.88834 0.94046 0.0
C106 C 0.03884 0.03609 0.82292 0.0
C107 C 0.86771 0.03248 0.91602 0.0
O108 O 0.88749 0.98881 0.90569 0.0
O109 O 0.90209 0.07437 0.92739 0.0
O110 O 0.95624 0.89111 0.89454 0.0
O111 O 0.00781 0.93172 0.96654 0.0
O112 O 0.71366 0.11525 0.7848 0.0
Cd113 Cd 0.73504 0.19068 0.81912 0.0
Cd114 Cd 0.77398 0.21667 0.71696 0.0
O115 O 0.76627 0.13482 0.71346 0.0
O116 O 0.68403 0.20543 0.88069 0.0
O117 O 0.68727 0.24977 0.80412 0.0
C118 C 0.66639 0.24263 0.85221 0.0
C119 C 0.77731 0.25044 0.62809 0.0
C120 C 0.73853 0.10075 0.7419 0.0
C121 C 0.85513 0.24121 0.81693 0.0
O122 O 0.83732 0.25594 0.7705 0.0
O123 O 0.82234 0.20921 0.84349 0.0
O124 O 0.8176 0.22542 0.64839 0.0
O125 O 0.73401 0.25709 0.65835 0.0
O126 O 0.95022 0.47106 0.88747 0.0
Cd127 Cd 0.98089 0.47052 0.96891 0.0
Cd128 Cd 0.01477 0.58096 0.95385 0.0
O129 O 0.97831 0.5555 0.87688 0.0
O130 O 0.94242 0.40711 0.00357 0.0
O131 O 0.93453 0.48902 0.03396 0.0
C132 C 0.92253 0.43885 0.03922 0.0
C133 C 0.01291 0.67249 0.97045 0.0
C134 C 0.95534 0.51054 0.85724 0.0
C135 C 0.10756 0.50775 0.9806 0.0
O136 O 0.09288 0.55382 0.97524 0.0
O137 O 0.06929 0.46787 0.97906 0.0
O138 O 0.0476 0.65381 0.93677 0.0
O139 O 0.9794 0.63928 0.9964 0.0
O140 O 0.78906 0.8785 0.32527 0.0
Cd141 Cd 0.76776 0.79811 0.327 0.0
Cd142 Cd 0.74616 0.80083 0.21299 0.0
O143 O 0.76908 0.87973 0.23542 0.0
O144 O 0.81093 0.76541 0.38666 0.0
O145 O 0.819 0.74662 0.29705 0.0
C146 C 0.83243 0.73795 0.34801 0.0
C147 C 0.7609 0.78263 0.11922 0.0
C148 C 0.78442 0.90389 0.28172 0.0
C149 C 0.64875 0.75878 0.28636 0.0
O150 O 0.66863 0.76409 0.23862 0.0
O151 O 0.68062 0.773 0.32968 0.0
O152 O 0.7221 0.81144 0.13494 0.0
O153 O 0.79152 0.76258 0.15683 0.0
O154 O 0.11882 0.53638 0.44799 0.0
Cd155 Cd 0.03361 0.50949 0.42626 0.0
Cd156 Cd 0.02675 0.49068 0.53847 0.0
O157 O 0.11424 0.51816 0.53612 0.0
O158 O 0.00311 0.55103 0.36621 0.0
O159 O 0.97361 0.55407 0.45219 0.0
C160 C 0.97137 0.57085 0.40264 0.0
C161 C 0.98798 0.49513 0.62648 0.0
C162 C 0.1432 0.53492 0.49587 0.0
C163 C 0.00136 0.39907 0.45055 0.0
O164 O 0.00058 0.41859 0.49963 0.0
O165 O 0.01531 0.42844 0.4113 0.0
O166 O 0.0258 0.46399 0.61426 0.0
O167 O 0.97277 0.52592 0.58916 0.0
O168 O 0.48994 0.45402 0.08629 0.0
Cd169 Cd 0.46206 0.43748 0.00462 0.0
Cd170 Cd 0.47351 0.55672 0.01256 0.0
O171 O 0.51385 0.54036 0.08643 0.0
O172 O 0.4774 0.3631 0.98815 0.0
O173 O 0.52004 0.43071 0.94567 0.0
C174 C 0.51409 0.3806 0.95295 0.0
C175 C 0.4847 0.64717 0.99426 0.0
C176 C 0.51112 0.49745 0.11114 0.0
C177 C 0.35398 0.4868 0.98895 0.0
O178 O 0.387 0.52971 -0.00123 0.0
O179 O 0.37484 0.44285 0.98652 0.0
O180 O 0.4604 0.62966 0.0372 0.0
O181 O 0.50561 0.61356 0.96154 0.0
O182 O 0.89346 0.70757 0.75767 0.0
Cd183 Cd 0.80834 0.70542 0.77759 0.0
Cd184 Cd 0.82754 0.8128 0.77923 0.0
O185 O 0.90562 0.7937 0.74979 0.0
O186 O 0.76173 0.64247 0.74027 0.0
O187 O 0.75227 0.72501 0.71965 0.0
C188 C 0.73728 0.67491 0.71 0.0
C189 C 0.79435 0.88999 0.7481 0.0
C190 C 0.92514 0.74914 0.74629 0.0
C191 C 0.79724 0.75939 0.886 0.0
O192 O 0.8114 0.8013 0.86116 0.0
O193 O 0.79198 0.71457 0.85999 0.0
O194 O 0.84132 0.89105 0.77877 0.0
O195 O 0.76574 0.84471 0.73367 0.0
O196 O 0.64338 0.3059 0.27205 0.0
Cd197 Cd 0.7314 0.32307 0.28909 0.0
Cd198 Cd 0.72516 0.20995 0.29675 0.0
O199 O 0.63984 0.21905 0.27326 0.0
O200 O 0.76213 0.38715 0.25076 0.0
O201 O 0.78562 0.30696 0.22998 0.0
C202 C 0.79005 0.35662 0.22027 0.0
C203 C 0.74952 0.12299 0.28775 0.0
C204 C 0.61458 0.26032 0.26731 0.0
C205 C 0.76557 0.28689 0.39754 0.0
O206 O 0.75711 0.24152 0.37294 0.0
O207 O 0.75723 0.32795 0.3722 0.0
O208 O 0.71257 0.13674 0.32193 0.0
O209 O 0.77137 0.15808 0.25569 0.0
O210 O 0.53182 0.55477 0.37601 0.0
Cd211 Cd 0.509 0.56768 0.45584 0.0
Cd212 Cd 0.47521 0.46131 0.45478 0.0
O213 O 0.49175 0.47203 0.37236 0.0
O214 O 0.55732 0.62958 0.49306 0.0
O215 O 0.55819 0.54748 0.51921 0.0
C216 C 0.57656 0.5972 0.5269 0.0
C217 C 0.49477 0.378 0.48196 0.0
C218 C 0.5169 0.51121 0.34881 0.0
C219 C 0.38877 0.53711 0.48566 0.0
O220 O 0.40429 0.49111 0.48867 0.0
O221 O 0.42292 0.57428 0.46801 0.0
O222 O 0.44838 0.38414 0.45289 0.0
O223 O 0.52999 0.41955 0.49732 0.0
C224 C 0.13591 0.08935 0.14188 0.0
C225 C 0.14784 0.1426 0.16073 0.0
H226 H 0.09444 0.03388 0.07915 0.0
C227 C 0.12532 0.18138 0.12964 0.0
H228 H 0.15264 0.05851 0.16488 0.0
C229 C 0.09221 0.16727 0.08037 0.0
C230 C 0.08073 0.11407 0.06124 0.0
H231 H 0.13382 0.22276 0.14297 0.0
H232 H 0.07583 0.19816 0.05718 0.0
C233 C 0.10261 0.07522 0.0927 0.0
C234 C 0.12178 0.8298 0.43948 0.0
C235 C 0.1114 0.87588 0.41312 0.0
H236 H 0.16459 0.75987 0.43784 0.0
C237 C 0.13597 0.88548 0.36201 0.0
H238 H 0.10367 0.82128 0.47896 0.0
C239 C 0.17034 0.84959 0.33786 0.0
C240 C 0.18172 0.80418 0.36509 0.0
H241 H 0.12861 0.92063 0.34071 0.0
H242 H 0.18897 0.85791 0.29856 0.0
C243 C 0.15695 0.79467 0.41603 0.0
C244 C 0.4416 0.85087 0.57815 0.0
C245 C 0.44757 0.90591 0.57364 0.0
H246 H 0.40738 0.78525 0.62324 0.0
C247 C 0.42289 0.93735 0.61338 0.0
H248 H 0.46029 0.82546 0.5484 0.0
C249 C 0.3926 0.91423 0.65644 0.0
C250 C 0.38647 0.85916 0.66081 0.0
H251 H 0.42689 0.97986 0.61126 0.0
H252 H 0.37377 0.93957 0.68616 0.0
C253 C 0.41148 0.82778 0.62126 0.0
C254 C 0.36986 0.07644 0.82499 0.0
C255 C 0.39135 0.06951 0.87911 0.0
H256 H 0.31946 0.12106 0.77229 0.0
C257 C 0.37681 0.10342 0.92248 0.0
H258 H 0.38026 0.05104 0.79059 0.0
C259 C 0.34222 0.14371 0.91194 0.0
C260 C 0.32116 0.15098 0.85778 0.0
H261 H 0.39273 0.09932 0.96462 0.0
H262 H 0.33221 0.1693 0.94633 0.0
C263 C 0.33508 0.11667 0.81446 0.0
C264 C 0.59125 0.26063 0.91955 0.0
C265 C 0.62464 0.27686 0.87512 0.0
H266 H 0.52961 0.28021 0.97816 0.0
C267 C 0.61944 0.32678 0.8546 0.0
H268 H 0.59407 0.22233 0.93615 0.0
C269 C 0.58298 0.36044 0.87928 0.0
C270 C 0.55023 0.3444 0.92428 0.0
H271 H 0.64476 0.34044 0.82048 0.0
H272 H 0.58083 0.39914 0.86345 0.0
C273 C 0.55413 0.2938 0.94352 0.0
C274 C 0.86395 0.45224 0.12271 0.0
C275 C 0.88832 0.41803 0.08545 0.0
H276 H 0.81395 0.45979 0.19443 0.0
C277 C 0.8807 0.36352 0.09338 0.0
H278 H 0.86911 0.49443 0.11791 0.0
C279 C 0.84947 0.34368 0.13748 0.0
C280 C 0.8248 0.37782 0.17456 0.0
H281 H 0.89908 0.33602 0.06562 0.0
H282 H 0.84433 0.30148 0.14221 0.0
C283 C 0.8324 0.43235 0.16666 0.0
C284 C 0.90834 0.64047 0.43003 0.0
C285 C 0.93519 0.61309 0.38846 0.0
H286 H 0.85562 0.70172 0.45001 0.0
C287 C 0.92874 0.62769 0.33347 0.0
H288 H 0.91272 0.63044 0.47284 0.0
C289 C 0.89587 0.66856 0.32031 0.0
C290 C 0.86915 0.69602 0.36194 0.0
H291 H 0.94899 0.60748 0.30045 0.0
H292 H 0.89137 0.67856 0.27751 0.0
C293 C 0.8759 0.68159 0.41696 0.0
C294 C 0.64002 0.58171 0.60971 0.0
C295 C 0.61756 0.61692 0.57387 0.0
H296 H 0.69529 0.57242 0.68098 0.0
C297 C 0.63386 0.6714 0.58386 0.0
H298 H 0.62817 0.53952 0.60322 0.0
C299 C 0.67203 0.69027 0.62859 0.0
C300 C 0.69486 0.65507 0.66417 0.0
H301 H 0.61712 0.6996 0.55716 0.0
H302 H 0.684 0.73246 0.63492 0.0
C303 C 0.67837 0.60059 0.65436 0.0
C304 C 0.16685 0.25863 0.47553 0.0
C305 C 0.19379 0.21663 0.45279 0.0
H306 H 0.13872 0.29685 0.5478 0.0
C307 C 0.2092 0.17722 0.48738 0.0
H308 H 0.15458 0.28969 0.45006 0.0
C309 C 0.20168 0.18217 0.54455 0.0
C310 C 0.17759 0.226 0.56742 0.0
H311 H 0.23028 0.14448 0.47092 0.0
H312 H 0.21684 0.153 0.57097 0.0
C313 C 0.15796 0.2628 0.53185 0.0
C314 C 0.06967 0.08913 0.7424 0.0
C315 C 0.06414 0.0407 0.76802 0.0
H316 H 0.07883 0.12777 0.66628 0.0
C317 C 0.07583 0.99503 0.73777 0.0
H318 H 0.0618 0.1252 0.7648 0.0
C319 C 0.08593 0.99653 0.68151 0.0
C320 C 0.08427 0.04367 0.65418 0.0
H321 H 0.07328 0.95726 0.75656 0.0
H322 H 0.0903 0.95978 0.6586 0.0
C323 C 0.07974 0.09062 0.68588 0.0
C324 C 0.34154 0.70062 0.95565 0.0
C325 C 0.32344 0.74704 0.93562 0.0
H326 H 0.34872 0.65226 0.02397 0.0
C327 C 0.30224 0.78347 0.97279 0.0
H328 H 0.35813 0.67177 0.92807 0.0
C329 C 0.29584 0.77169 0.02843 0.0
C330 C 0.31093 0.72354 0.04731 0.0
H331 H 0.28718 0.81924 0.95821 0.0
H332 H 0.27752 0.79933 0.05604 0.0
C333 C 0.33549 0.68913 0.01064 0.0
C334 C 0.51365 0.95616 0.26192 0.0
C335 C 0.50359 1.00355 0.28965 0.0
H336 H 0.52694 0.91676 0.18439 0.0
C337 C 0.49235 0.04669 0.25842 0.0
H338 H 0.52281 0.92235 0.28475 0.0
C339 C 0.49375 0.04319 0.20056 0.0
C340 C 0.508 0.99691 0.1735 0.0
H341 H 0.48439 0.08358 0.27896 0.0
H342 H 0.48684 0.07738 0.17743 0.0
C343 C 0.51657 0.95313 0.20451 0.0
C344 C 0.45685 0.20051 0.25994 0.0
C345 C 0.42774 0.24558 0.26718 0.0
H346 H 0.53874 0.1698 0.25347 0.0
C347 C 0.4602 0.29566 0.26852 0.0
H348 H 0.43304 0.16139 0.25803 0.0
C349 C 0.52072 0.30049 0.26553 0.0
C350 C 0.55017 0.25537 0.26135 0.0
H351 H 0.4391 0.33123 0.27349 0.0
H352 H 0.54462 0.33959 0.2687 0.0
C353 C 0.51743 0.20535 0.25714 0.0
C354 C 0.96265 0.3125 0.48249 0.0
C355 C 0.99425 0.34093 0.44344 0.0
H356 H 0.94692 0.24046 0.52241 0.0
C357 C 0.02847 0.31403 0.40752 0.0
H358 H 0.93548 0.33195 0.51041 0.0
C359 C 0.03463 0.26047 0.41408 0.0
C360 C 0.00751 0.23389 0.45723 0.0
H361 H 0.05375 0.33516 0.37734 0.0
H362 H 0.06324 0.24097 0.38779 0.0
C363 C 0.96964 0.25998 0.48964 0.0
C364 C 0.02482 0.79285 0.72966 0.0
C365 C 0.98684 0.74641 0.73418 0.0
H366 H 0.11308 0.82756 0.72664 0.0
C367 C 0.00957 0.69766 0.73222 0.0
H368 H 0.00872 0.83108 0.73063 0.0
C369 C 0.06941 0.69556 0.72964 0.0
C370 C 0.10786 0.74229 0.72932 0.0
H371 H 0.98145 0.66121 0.73527 0.0
H372 H 0.08564 0.65746 0.73094 0.0
C373 C 0.08474 0.79082 0.72733 0.0
C374 C 0.49234 0.72217 0.92996 0.0
C375 C 0.48606 0.70372 0.9834 0.0
H376 H 0.4959 0.78945 0.87953 0.0
C377 C 0.47674 0.73951 0.02705 0.0
H378 H 0.4986 0.6952 0.89541 0.0
C379 C 0.47479 0.79263 0.018 0.0
C380 C 0.48186 0.81156 0.96499 0.0
H381 H 0.47107 0.72652 0.06859 0.0
H382 H 0.46845 0.81917 0.05295 0.0
C383 C 0.48979 0.77577 0.92072 0.0
C384 C 0.55462 0.75555 0.33438 0.0
C385 C 0.58683 0.73902 0.29018 0.0
H386 H 0.46954 0.75902 0.36548 0.0
C387 C 0.55811 0.70742 0.24609 0.0
H388 H 0.57591 0.78 0.36891 0.0
C389 C 0.49797 0.69521 0.24431 0.0
C390 C 0.46486 0.71486 0.28629 0.0
H391 H 0.58198 0.69342 0.21191 0.0
H392 H 0.47731 0.67191 0.2087 0.0
C393 C 0.49385 0.74371 0.33234 0.0
C394 C 0.5792 0.2606 0.49055 0.0
C395 C 0.53398 0.21891 0.49075 0.0
H396 H 0.60221 0.34428 0.48966 0.0
C397 C 0.47645 0.23045 0.49516 0.0
H398 H 0.62393 0.25257 0.48713 0.0
C399 C 0.46391 0.28276 0.49509 0.0
C400 C 0.50889 0.32434 0.49232 0.0
H401 H 0.44083 0.19899 0.49495 0.0
H402 H 0.41884 0.29056 0.49518 0.0
C403 C 0.56683 0.31298 0.49221 0.0
C404 C 0.00937 0.29821 0.80487 0.0
C405 C 0.03958 0.25904 0.82742 0.0
H406 H 0.92678 0.32449 0.78642 0.0
C407 C 0.00955 0.2201 0.8577 0.0
H408 H 0.0319 0.32918 0.78215 0.0
C409 C 0.94871 0.2172 0.86 0.0
C410 C 0.91788 0.25351 0.83232 0.0
H411 H 0.03228 0.18965 0.87554 0.0
H412 H 0.92563 0.18402 0.87903 0.0
C413 C 0.94925 0.29575 0.8077 0.0
C414 C 0.94866 0.80188 0.9763 0.0
C415 C 0.99553 0.83651 0.96002 0.0
H416 H 0.91833 0.72241 0.99485 0.0
C417 C 0.04994 0.81838 0.9541 0.0
H418 H 0.90624 0.8153 0.98065 0.0
C419 C 0.05643 0.76528 0.96072 0.0
C420 C 0.00885 0.72981 0.97443 0.0
H421 H 0.08638 0.84444 0.94086 0.0
H422 H 0.09806 0.7515 0.95283 0.0
C423 C 0.95555 0.749 0.98442 0.0
C424 C 0.21763 0.46634 0.32426 0.0
C425 C 0.21647 0.4305 0.27829 0.0
H426 H 0.22152 0.54679 0.35345 0.0
C427 C 0.21034 0.44882 0.22489 0.0
H428 H 0.2215 0.45309 0.36596 0.0
C429 C 0.21121 0.50304 0.21762 0.0
C430 C 0.21739 0.53944 0.26375 0.0
H431 H 0.20922 0.42185 0.1888 0.0
H432 H 0.21072 0.51655 0.17592 0.0
C433 C 0.21744 0.52011 0.31707 0.0
C434 C 0.79935 0.03135 0.71251 0.0
C435 C 0.746 0.04447 0.73152 0.0
H436 H 0.85662 0.97157 0.70373 0.0
C437 C 0.7047 1.00401 0.74734 0.0
H438 H 0.83224 0.06166 0.70033 0.0
C439 C 0.71808 0.95177 0.74717 0.0
C440 C 0.77363 0.94 0.73323 0.0
H441 H 0.66335 0.01314 0.76229 0.0
H442 H 0.68703 0.9216 0.76247 0.0
C443 C 0.81343 0.97981 0.71439 0.0
C444 C 0.24946 0.44536 0.98806 0.0
C445 C 0.29048 0.48982 0.98387 0.0
H446 H 0.15895 0.41604 0.99105 0.0
C447 C 0.27061 0.53941 0.97863 0.0
H448 H 0.26347 0.40665 0.99233 0.0
C449 C 0.21159 0.54496 0.97882 0.0
C450 C 0.17032 0.50093 0.9837 0.0
H451 H 0.30079 0.57437 0.97432 0.0
H452 H 0.19845 0.58402 0.97459 0.0
C453 C 0.18976 0.45087 0.98789 0.0
C454 C 0.78765 0.04515 0.24004 0.0
C455 C 0.76626 0.06888 0.28723 0.0
H456 H 0.81044 0.97345 0.20119 0.0
C457 C 0.75811 0.03954 0.33441 0.0
H458 H 0.79444 0.06696 0.20319 0.0
C459 C 0.76862 0.98686 0.33378 0.0
C460 C 0.78649 0.96198 0.28568 0.0
H461 H 0.74195 0.05692 0.37148 0.0
H462 H 0.7589 0.96462 0.36969 0.0
C463 C 0.79699 0.99182 0.23903 0.0
C464 C 0.76733 0.9945 0.88434 0.0
C465 C 0.80404 0.0331 0.91634 0.0
H466 H 0.68021 0.95873 0.86529 0.0
C467 C 0.77928 0.06885 0.95155 0.0
H468 H 0.78531 0.96644 0.85694 0.0
C469 C 0.7189 0.0637 0.95721 0.0
C470 C 0.68255 0.02386 0.92637 0.0
H471 H 0.8067 0.09887 0.97683 0.0
H472 H 0.70079 0.08983 0.98667 0.0
C473 C 0.70718 0.99033 0.88881 0.0
C474 C 0.28021 0.50604 0.82105 0.0
C475 C 0.28754 0.52972 0.77027 0.0
H476 H 0.26925 0.4343 0.86331 0.0
C477 C 0.29639 0.49819 0.72307 0.0
H478 H 0.274 0.5297 0.85818 0.0
C479 C 0.29288 0.44323 0.72581 0.0
C480 C 0.28178 0.4192 0.77606 0.0
H481 H 0.30227 0.51557 0.68349 0.0
H482 H 0.29595 0.41938 0.68805 0.0
C483 C 0.27808 0.45143 0.8241 0.0
C484 C 0.2385 0.57923 0.46813 0.0
C485 C 0.20715 0.54483 0.50245 0.0
H486 H 0.32158 0.60452 0.43673 0.0
C487 C 0.2375 0.51391 0.53746 0.0
H488 H 0.21601 0.60376 0.44113 0.0
C489 C 0.29755 0.51361 0.53427 0.0
C490 C 0.32833 0.5452 0.49704 0.0
H491 H 0.21436 0.48701 0.56433 0.0
H492 H 0.31947 0.48695 0.55914 0.0
C493 C 0.29883 0.5798 0.46581 0.0
C494 C 0.79531 0.72233 0.98015 0.0
C495 C 0.78674 0.76372 0.94556 0.0
H496 H 0.79585 0.69649 0.06335 0.0
C497 C 0.76965 0.8107 0.96862 0.0
H498 H 0.8088 0.6858 0.96335 0.0
C499 C 0.761 0.81621 0.02501 0.0
C500 C 0.77074 0.77545 0.05986 0.0
H501 H 0.76254 0.84321 0.94297 0.0
H502 H 0.74748 0.85285 0.04152 0.0
C503 C 0.78838 0.72853 0.03721 0.0
C504 C 0.54156 0.55156 0.25915 0.0
C505 C 0.52491 0.50665 0.28854 0.0
H506 H 0.55104 0.58387 0.1798 0.0
C507 C 0.51167 0.45762 0.25917 0.0
H508 H 0.55239 0.5899 0.28057 0.0
C509 C 0.51147 0.45397 0.20149 0.0
C510 C 0.52398 0.49945 0.17176 0.0
H511 H 0.49912 0.42225 0.28064 0.0
H512 H 0.49844 0.41586 0.18022 0.0
C513 C 0.54097 0.54803 0.20132 0.0
C514 C 0.74434 0.31524 0.49404 0.0
C515 C 0.77835 0.28882 0.45767 0.0
H516 H 0.71598 0.32282 0.57712 0.0
C517 C 0.81548 0.25409 0.47879 0.0
H518 H 0.71439 0.34131 0.47834 0.0
C519 C 0.81675 0.24387 0.5347 0.0
C520 C 0.77995 0.2673 0.57067 0.0
H521 H 0.84138 0.23262 0.45137 0.0
H522 H 0.84428 0.21518 0.54902 0.0
C523 C 0.74464 0.30408 0.55023 0.0
C524 C 0.94856 0.54244 0.70703 0.0
C525 C 0.96557 0.49608 0.68252 0.0
H526 H 0.93114 0.58335 0.78286 0.0
C527 C 0.96729 0.45156 0.7142 0.0
H528 H 0.94631 0.57703 0.68326 0.0
C529 C 0.95728 0.45467 0.77056 0.0
C530 C 0.94652 0.50269 0.7965 0.0
H531 H 0.97942 0.415 0.69604 0.0
H532 H 0.9632 0.42086 0.79459 0.0
C533 C 0.93972 0.54592 0.76385 0.0
C534 C 0.82236 0.05768 0.48901 0.0
C535 C 0.84707 0.00992 0.48366 0.0
H536 H 0.74547 0.0957 0.49382 0.0
C537 C 0.81025 0.96209 0.48192 0.0
H538 H 0.84918 0.09544 0.49121 0.0
C539 C 0.74971 0.96234 0.48366 0.0
C540 C 0.72528 0.01041 0.48701 0.0
H541 H 0.82801 0.92468 0.47852 0.0
H542 H 0.72207 0.92503 0.48051 0.0
C543 C 0.76252 0.05791 0.49095 0.0
loop_
_geom_bond_atom_site_label_1
_geom_bond_atom_site_label_2
_geom_bond_distance
_geom_bond_site_symmetry_2
_ccdc_geom_bond_type
O0 Cd1 2.223 . S
O0 C8 1.315 . S
Cd1 O0 2.223 . S
Cd1 O4 2.297 . S
Cd1 O5 2.439 . S
Cd1 O11 2.240 . S
Cd2 O3 2.240 . S
Cd2 O10 2.223 . S
Cd2 O12 2.297 . S
Cd2 O13 2.439 . S
O3 Cd2 2.240 . S
O3 C8 1.279 . S
O4 Cd1 2.297 . S
O4 C6 1.247 . S
O5 Cd1 2.439 . S
O5 C6 1.208 . S
C6 O4 1.247 . S
C6 O5 1.208 . S
C7 O12 1.247 . S
C7 O13 1.208 . S
C8 O0 1.315 . S
C8 O3 1.279 . S
C9 O10 1.315 . S
C9 O11 1.279 . S
O10 Cd2 2.223 . S
O10 C9 1.315 . S
O11 Cd1 2.240 . S
O11 C9 1.279 . S
O12 Cd2 2.297 . S
O12 C7 1.247 . S
O13 Cd2 2.439 . S
O13 C7 1.208 . S
O14 Cd15 2.223 . S
O14 C22 1.315 . S
Cd15 O14 2.223 . S
Cd15 O18 2.297 1_655 S
Cd15 O19 2.439 1_655 S
Cd15 O25 2.240 1_565 S
Cd16 O17 2.240 1_655 S
Cd16 O24 2.223 . S
Cd16 O26 2.297 . S
Cd16 O27 2.439 1_655 S
O17 Cd16 2.240 1_455 S
O17 C22 1.279 1_445 S
O18 Cd15 2.297 1_455 S
O18 C20 1.247 . S
O19 Cd15 2.439 1_455 S
O19 C20 1.208 . S
C20 O18 1.247 . S
C20 O19 1.208 . S
C21 O26 1.247 . S
C21 O27 1.208 1_655 S
C22 O14 1.315 . S
C22 O17 1.279 1_665 S
C23 O24 1.315 . S
C23 O25 1.279 . S
O24 Cd16 2.223 . S
O24 C23 1.315 . S
O25 Cd15 2.240 1_545 S
O25 C23 1.279 . S
O26 Cd16 2.297 . S
O26 C21 1.247 . S
O27 Cd16 2.439 1_455 S
O27 C21 1.208 1_455 S
O28 Cd29 2.223 . S
O28 C36 1.315 . S
Cd29 O28 2.223 . S
Cd29 O32 2.297 . S
Cd29 O33 2.439 . S
Cd29 O39 2.240 . S
Cd30 O31 2.240 . S
Cd30 O38 2.223 . S
Cd30 O40 2.297 . S
Cd30 O41 2.439 . S
O31 Cd30 2.240 . S
O31 C36 1.279 . S
O32 Cd29 2.297 . S
O32 C34 1.247 . S
O33 Cd29 2.439 . S
O33 C34 1.208 . S
C34 O32 1.247 . S
C34 O33 1.208 . S
C35 O40 1.247 . S
C35 O41 1.208 . S
C36 O28 1.315 . S
C36 O31 1.279 . S
C37 O38 1.315 . S
C37 O39 1.279 . S
O38 Cd30 2.223 . S
O38 C37 1.315 . S
O39 Cd29 2.240 . S
O39 C37 1.279 . S
O40 Cd30 2.297 . S
O40 C35 1.247 . S
O41 Cd30 2.439 . S
O41 C35 1.208 . S
O42 Cd43 2.223 . S
O42 C50 1.315 . S
Cd43 O42 2.223 . S
Cd43 O46 2.299 . S
Cd43 O47 2.439 1_565 S
Cd43 O53 2.240 . S
Cd44 O45 2.240 1_554 S
Cd44 O52 2.223 . S
Cd44 O54 2.297 . S
Cd44 O55 2.439 . S
O45 Cd44 2.240 1_556 S
O45 C50 1.279 . S
O46 Cd43 2.299 . S
O46 C48 1.246 1_565 S
O47 Cd43 2.439 1_545 S
O47 C48 1.208 . S
C48 O46 1.246 1_545 S
C48 O47 1.208 . S
C49 O54 1.247 . S
C49 O55 1.208 . S
C50 O42 1.315 . S
C50 O45 1.279 . S
C51 O52 1.315 . S
C51 O53 1.279 1_554 S
O52 Cd44 2.223 . S
O52 C51 1.315 . S
O53 Cd43 2.240 . S
O53 C51 1.279 1_556 S
O54 Cd44 2.297 . S
O54 C49 1.247 . S
O55 Cd44 2.439 . S
O55 C49 1.208 . S
O56 Cd57 2.223 . S
O56 C64 1.315 . S
Cd57 O56 2.223 . S
Cd57 O60 2.297 . S
Cd57 O61 2.439 . S
Cd57 O67 2.240 . S
Cd58 O59 2.240 . S
Cd58 O66 2.223 . S
Cd58 O68 2.297 . S
Cd58 O69 2.439 . S
O59 Cd58 2.240 . S
O59 C64 1.279 . S
O60 Cd57 2.297 . S
O60 C62 1.247 . S
O61 Cd57 2.439 . S
O61 C62 1.208 . S
C62 O60 1.247 . S
C62 O61 1.208 . S
C63 O68 1.247 . S
C63 O69 1.208 . S
C64 O56 1.315 . S
C64 O59 1.279 . S
C65 O66 1.315 . S
C65 O67 1.279 . S
O66 Cd58 2.223 . S
O66 C65 1.315 . S
O67 Cd57 2.240 . S
O67 C65 1.279 . S
O68 Cd58 2.297 . S
O68 C63 1.247 . S
O69 Cd58 2.439 . S
O69 C63 1.208 . S
O70 Cd71 2.223 . S
O70 C78 1.315 . S
Cd71 O70 2.223 . S
Cd71 O74 2.297 . S
Cd71 O75 2.439 . S
Cd71 O81 2.240 1_565 S
Cd72 O73 2.240 1_545 S
Cd72 O80 2.223 . S
Cd72 O82 2.297 . S
Cd72 O83 2.439 . S
O73 Cd72 2.240 1_565 S
O73 C78 1.279 . S
O74 Cd71 2.297 . S
O74 C76 1.247 . S
O75 Cd71 2.439 . S
O75 C76 1.208 . S
C76 O74 1.247 . S
C76 O75 1.208 . S
C77 O82 1.247 . S
C77 O83 1.208 . S
C78 O70 1.315 . S
C78 O73 1.279 . S
C79 O80 1.315 . S
C79 O81 1.279 . S
O80 Cd72 2.223 . S
O80 C79 1.315 . S
O81 Cd71 2.240 1_545 S
O81 C79 1.279 . S
O82 Cd72 2.297 . S
O82 C77 1.247 . S
O83 Cd72 2.439 . S
O83 C77 1.208 . S
O84 Cd85 2.223 . S
O84 C92 1.315 . S
Cd85 O84 2.223 . S
Cd85 O88 2.297 . S
Cd85 O89 2.439 . S
Cd85 O95 2.240 . S
Cd86 O87 2.240 . S
Cd86 O94 2.223 . S
Cd86 O96 2.297 . S
Cd86 O97 2.439 . S
O87 Cd86 2.240 . S
O87 C92 1.279 . S
O88 Cd85 2.297 . S
O88 C90 1.247 . S
O89 Cd85 2.439 . S
O89 C90 1.208 . S
C90 O88 1.247 . S
C90 O89 1.208 . S
C91 O96 1.247 . S
C91 O97 1.208 . S
C92 O84 1.315 . S
C92 O87 1.279 . S
C93 O94 1.315 . S
C93 O95 1.279 . S
O94 Cd86 2.223 . S
O94 C93 1.315 . S
O95 Cd85 2.240 . S
O95 C93 1.279 . S
O96 Cd86 2.297 . S
O96 C91 1.247 . S
O97 Cd86 2.439 . S
O97 C91 1.208 . S
O98 Cd99 2.223 . S
O98 C106 1.315 . S
Cd99 O98 2.223 . S
Cd99 O102 2.298 1_655 S
Cd99 O103 2.439 1_656 S
Cd99 O109 2.240 1_545 S
Cd100 O101 2.240 1_655 S
Cd100 O108 2.223 . S
Cd100 O110 2.297 . S
Cd100 O111 2.439 1_655 S
O101 Cd100 2.240 1_455 S
O101 C106 1.279 1_465 S
O102 Cd99 2.298 1_455 S
O102 C104 1.247 1_556 S
O103 Cd99 2.439 1_454 S
O103 C104 1.208 . S
C104 O102 1.247 1_554 S
C104 O103 1.208 . S
C105 O110 1.247 . S
C105 O111 1.208 1_655 S
C106 O98 1.315 . S
C106 O101 1.279 1_645 S
C107 O108 1.315 . S
C107 O109 1.279 . S
O108 Cd100 2.223 . S
O108 C107 1.315 . S
O109 Cd99 2.240 1_565 S
O109 C107 1.279 . S
O110 Cd100 2.297 . S
O110 C105 1.247 . S
O111 Cd100 2.439 1_455 S
O111 C105 1.208 1_455 S
O112 Cd113 2.223 . S
O112 C120 1.315 . S
Cd113 O112 2.223 . S
Cd113 O116 2.297 . S
Cd113 O117 2.439 . S
Cd113 O123 2.240 . S
Cd114 O115 2.240 . S
Cd114 O122 2.223 . S
Cd114 O124 2.297 . S
Cd114 O125 2.439 . S
O115 Cd114 2.240 . S
O115 C120 1.279 . S
O116 Cd113 2.297 . S
O116 C118 1.247 . S
O117 Cd113 2.439 . S
O117 C118 1.208 . S
C118 O116 1.247 . S
C118 O117 1.208 . S
C119 O124 1.247 . S
C119 O125 1.208 . S
C120 O112 1.315 . S
C120 O115 1.279 . S
C121 O122 1.315 . S
C121 O123 1.279 . S
O122 Cd114 2.223 . S
O122 C121 1.315 . S
O123 Cd113 2.240 . S
O123 C121 1.279 . S
O124 Cd114 2.297 . S
O124 C119 1.247 . S
O125 Cd114 2.439 . S
O125 C119 1.208 . S
O126 Cd127 2.223 1_556 S
O126 C134 1.315 1_455 S
Cd127 O126 2.223 1_554 S
Cd127 O130 2.297 1_455 S
Cd127 O131 2.439 1_455 S
Cd127 O137 2.240 . S
Cd128 O129 2.240 1_455 S
Cd128 O136 2.223 . S
Cd128 O138 2.297 . S
Cd128 O139 2.439 1_456 S
O129 Cd128 2.240 1_655 S
O129 C134 1.279 . S
O130 Cd127 2.297 1_655 S
O130 C132 1.247 . S
O131 Cd127 2.439 1_655 S
O131 C132 1.208 . S
C132 O130 1.247 . S
C132 O131 1.208 . S
C133 O138 1.247 1_654 S
C133 O139 1.208 . S
C134 O126 1.315 1_655 S
C134 O129 1.279 . S
C135 O136 1.315 . S
C135 O137 1.279 1_556 S
O136 Cd128 2.223 . S
O136 C135 1.315 . S
O137 Cd127 2.240 . S
O137 C135 1.279 1_554 S
O138 Cd128 2.297 . S
O138 C133 1.247 1_456 S
O139 Cd128 2.439 1_654 S
O139 C133 1.208 . S
O140 Cd141 2.223 . S
O140 C148 1.315 . S
Cd141 O140 2.223 . S
Cd141 O144 2.297 . S
Cd141 O145 2.439 . S
Cd141 O151 2.240 . S
Cd142 O143 2.240 . S
Cd142 O150 2.223 . S
Cd142 O152 2.297 . S
Cd142 O153 2.439 . S
O143 Cd142 2.240 . S
O143 C148 1.279 . S
O144 Cd141 2.297 . S
O144 C146 1.247 . S
O145 Cd141 2.439 . S
O145 C146 1.208 . S
C146 O144 1.247 . S
C146 O145 1.208 . S
C147 O152 1.247 . S
C147 O153 1.208 . S
C148 O140 1.315 . S
C148 O143 1.279 . S
C149 O150 1.315 . S
C149 O151 1.279 . S
O150 Cd142 2.223 . S
O150 C149 1.315 . S
O151 Cd141 2.240 . S
O151 C149 1.279 . S
O152 Cd142 2.297 . S
O152 C147 1.247 . S
O153 Cd142 2.439 . S
O153 C147 1.208 . S
O154 Cd155 2.223 1_455 S
O154 C162 1.315 . S
Cd155 O154 2.223 1_655 S
Cd155 O158 2.297 . S
Cd155 O159 2.439 . S
Cd155 O165 2.240 . S
Cd156 O157 2.240 . S
Cd156 O164 2.223 . S
Cd156 O166 2.297 . S
Cd156 O167 2.439 1_455 S
O157 Cd156 2.240 . S
O157 C162 1.279 . S
O158 Cd155 2.297 . S
O158 C160 1.247 . S
O159 Cd155 2.439 . S
O159 C160 1.208 . S
C160 O158 1.247 . S
C160 O159 1.208 . S
C161 O166 1.247 1_655 S
C161 O167 1.208 . S
C162 O154 1.315 . S
C162 O157 1.279 . S
C163 O164 1.315 . S
C163 O165 1.279 1_455 S
O164 Cd156 2.223 . S
O164 C163 1.315 . S
O165 Cd155 2.240 . S
O165 C163 1.279 1_655 S
O166 Cd156 2.297 . S
O166 C161 1.247 1_455 S
O167 Cd156 2.439 1_655 S
O167 C161 1.208 . S
O168 Cd169 2.223 1_554 S
O168 C176 1.315 . S
Cd169 O168 2.223 1_556 S
Cd169 O172 2.297 . S
Cd169 O173 2.439 . S
Cd169 O179 2.240 . S
Cd170 O171 2.240 . S
Cd170 O178 2.223 . S
Cd170 O180 2.297 . S
Cd170 O181 2.439 1_554 S
O171 Cd170 2.240 . S
O171 C176 1.279 . S
O172 Cd169 2.297 . S
O172 C174 1.247 . S
O173 Cd169 2.439 . S
O173 C174 1.208 . S
C174 O172 1.247 . S
C174 O173 1.208 . S
C175 O180 1.247 1_556 S
C175 O181 1.208 . S
C176 O168 1.315 . S
C176 O171 1.279 . S
C177 O178 1.315 . S
C177 O179 1.279 1_554 S
O178 Cd170 2.223 . S
O178 C177 1.315 . S
O179 Cd169 2.240 . S
O179 C177 1.279 1_556 S
O180 Cd170 2.297 . S
O180 C175 1.247 1_554 S
O181 Cd170 2.439 1_556 S
O181 C175 1.208 . S
O182 Cd183 2.223 . S
O182 C190 1.315 . S
Cd183 O182 2.223 . S
Cd183 O186 2.297 . S
Cd183 O187 2.439 . S
Cd183 O193 2.240 . S
Cd184 O185 2.240 . S
Cd184 O192 2.223 . S
Cd184 O194 2.297 . S
Cd184 O195 2.439 . S
O185 Cd184 2.240 . S
O185 C190 1.279 . S
O186 Cd183 2.297 . S
O186 C188 1.247 . S
O187 Cd183 2.439 . S
O187 C188 1.208 . S
C188 O186 1.247 . S
C188 O187 1.208 . S
C189 O194 1.247 . S
C189 O195 1.208 . S
C190 O182 1.315 . S
C190 O185 1.279 . S
C191 O192 1.315 . S
C191 O193 1.279 . S
O192 Cd184 2.223 . S
O192 C191 1.315 . S
O193 Cd183 2.240 . S
O193 C191 1.279 . S
O194 Cd184 2.297 . S
O194 C189 1.247 . S
O195 Cd184 2.439 . S
O195 C189 1.208 . S
O196 Cd197 2.223 . S
O196 C204 1.315 . S
Cd197 O196 2.223 . S
Cd197 O200 2.297 . S
Cd197 O201 2.439 . S
Cd197 O207 2.240 . S
Cd198 O199 2.240 . S
Cd198 O206 2.223 . S
Cd198 O208 2.297 . S
Cd198 O209 2.439 . S
O199 Cd198 2.240 . S
O199 C204 1.279 . S
O200 Cd197 2.297 . S
O200 C202 1.247 . S
O201 Cd197 2.439 . S
O201 C202 1.208 . S
C202 O200 1.247 . S
C202 O201 1.208 . S
C203 O208 1.247 . S
C203 O209 1.208 . S
C204 O196 1.315 . S
C204 O199 1.279 . S
C205 O206 1.315 . S
C205 O207 1.279 . S
O206 Cd198 2.223 . S
O206 C205 1.315 . S
O207 Cd197 2.240 . S
O207 C205 1.279 . S
O208 Cd198 2.297 . S
O208 C203 1.247 . S
O209 Cd198 2.439 . S
O209 C203 1.208 . S
O210 Cd211 2.223 . S
O210 C218 1.315 . S
Cd211 O210 2.223 . S
Cd211 O214 2.297 . S
Cd211 O215 2.439 . S
Cd211 O221 2.240 . S
Cd212 O213 2.240 . S
Cd212 O220 2.223 . S
Cd212 O222 2.297 . S
Cd212 O223 2.439 . S
O213 Cd212 2.240 . S
O213 C218 1.279 . S
O214 Cd211 2.297 . S
O214 C216 1.247 . S
O215 Cd211 2.439 . S
O215 C216 1.208 . S
C216 O214 1.247 . S
C216 O215 1.208 . S
C217 O222 1.247 . S
C217 O223 1.208 . S
C218 O210 1.315 . S
C218 O213 1.279 . S
C219 O220 1.315 . S
C219 O221 1.279 . S
O220 Cd212 2.223 . S
O220 C219 1.315 . S
O221 Cd211 2.240 . S
O221 C219 1.279 . S
O222 Cd212 2.297 . S
O222 C217 1.247 . S
O223 Cd212 2.439 . S
O223 C217 1.208 . S
C224 C225 1.387 . S
C224 H228 0.950 . S
C224 C233 1.390 . S
C225 C224 1.387 . S
C225 C227 1.387 . S
H226 C233 0.950 . S
C227 C225 1.387 . S
C227 C229 1.390 . S
C227 H231 0.950 . S
H228 C224 0.950 . S
C229 C227 1.390 . S
C229 C230 1.387 . S
C229 H232 0.950 . S
C230 C229 1.387 . S
C230 C233 1.387 . S
H231 C227 0.950 . S
H232 C229 0.950 . S
C233 C224 1.390 . S
C233 H226 0.950 . S
C233 C230 1.387 . S
C234 C235 1.387 . S
C234 H238 0.950 . S
C234 C243 1.390 . S
C235 C234 1.387 . S
C235 C237 1.387 . S
H236 C243 0.950 . S
C237 C235 1.387 . S
C237 C239 1.390 . S
C237 H241 0.950 . S
H238 C234 0.950 . S
C239 C237 1.390 . S
C239 C240 1.387 . S
C239 H242 0.950 . S
C240 C239 1.387 . S
C240 C243 1.387 . S
H241 C237 0.950 . S
H242 C239 0.950 . S
C243 C234 1.390 . S
C243 H236 0.950 . S
C243 C240 1.387 . S
C244 C245 1.387 . S
C244 H248 0.950 . S
C244 C253 1.390 . S
C245 C244 1.387 . S
C245 C247 1.387 . S
H246 C253 0.950 . S
C247 C245 1.387 . S
C247 C249 1.390 . S
C247 H251 0.950 . S
H248 C244 0.950 . S
C249 C247 1.390 . S
C249 C250 1.387 . S
C249 H252 0.950 . S
C250 C249 1.387 . S
C250 C253 1.387 . S
H251 C247 0.950 . S
H252 C249 0.950 . S
C253 C244 1.390 . S
C253 H246 0.950 . S
C253 C250 1.387 . S
C254 C255 1.387 . S
C254 H258 0.950 . S
C254 C263 1.390 . S
C255 C254 1.387 . S
C255 C257 1.387 . S
H256 C263 0.950 . S
C257 C255 1.387 . S
C257 C259 1.390 . S
C257 H261 0.950 . S
H258 C254 0.950 . S
C259 C257 1.390 . S
C259 C260 1.387 . S
C259 H262 0.950 . S
C260 C259 1.387 . S
C260 C263 1.387 . S
H261 C257 0.950 . S
H262 C259 0.950 . S
C263 C254 1.390 . S
C263 H256 0.950 . S
C263 C260 1.387 . S
C264 C265 1.387 . S
C264 H268 0.950 . S
C264 C273 1.390 . S
C265 C264 1.387 . S
C265 C267 1.387 . S
H266 C273 0.950 . S
C267 C265 1.387 . S
C267 C269 1.390 . S
C267 H271 0.950 . S
H268 C264 0.950 . S
C269 C267 1.390 . S
C269 C270 1.387 . S
C269 H272 0.950 . S
C270 C269 1.387 . S
C270 C273 1.387 . S
H271 C267 0.950 . S
H272 C269 0.950 . S
C273 C264 1.390 . S
C273 H266 0.950 . S
C273 C270 1.387 . S
C274 C275 1.387 . S
C274 H278 0.950 . S
C274 C283 1.390 . S
C275 C274 1.387 . S
C275 C277 1.387 . S
H276 C283 0.950 . S
C277 C275 1.387 . S
C277 C279 1.390 . S
C277 H281 0.950 . S
H278 C274 0.950 . S
C279 C277 1.390 . S
C279 C280 1.387 . S
C279 H282 0.950 . S
C280 C279 1.387 . S
C280 C283 1.387 . S
H281 C277 0.950 . S
H282 C279 0.950 . S
C283 C274 1.390 . S
C283 H276 0.950 . S
C283 C280 1.387 . S
C284 C285 1.387 . S
C284 H288 0.950 . S
C284 C293 1.390 . S
C285 C284 1.387 . S
C285 C287 1.387 . S
H286 C293 0.950 . S
C287 C285 1.387 . S
C287 C289 1.390 . S
C287 H291 0.950 1_655 S
H288 C284 0.950 . S
C289 C287 1.390 . S
C289 C290 1.387 . S
C289 H292 0.953 . S
C290 C289 1.387 . S
C290 C293 1.387 . S
H291 C287 0.950 1_455 S
H292 C289 0.953 . S
C293 C284 1.390 . S
C293 H286 0.950 . S
C293 C290 1.387 . S
C294 C295 1.387 . S
C294 H298 0.950 . S
C294 C303 1.390 . S
C295 C294 1.387 . S
C295 C297 1.387 . S
H296 C303 0.950 . S
C297 C295 1.387 . S
C297 C299 1.390 . S
C297 H301 0.950 . S
H298 C294 0.950 . S
C299 C297 1.390 . S
C299 C300 1.387 . S
C299 H302 0.950 . S
C300 C299 1.387 . S
C300 C303 1.387 . S
H301 C297 0.950 . S
H302 C299 0.950 . S
C303 C294 1.390 . S
C303 H296 0.950 . S
C303 C300 1.387 . S
C304 C305 1.387 . S
C304 H308 0.950 . S
C304 C313 1.390 . S
C305 C304 1.387 . S
C305 C307 1.387 . S
H306 C313 0.950 . S
C307 C305 1.387 . S
C307 C309 1.390 . S
C307 H311 0.950 . S
H308 C304 0.950 . S
C309 C307 1.390 . S
C309 C310 1.387 . S
C309 H312 0.950 . S
C310 C309 1.387 . S
C310 C313 1.387 . S
H311 C307 0.950 . S
H312 C309 0.950 . S
C313 C304 1.390 . S
C313 H306 0.950 . S
C313 C310 1.387 . S
C314 C315 1.387 . S
C314 H318 0.951 . S
C314 C323 1.390 . S
C315 C314 1.387 . S
C315 C317 1.387 1_545 S
H316 C323 0.948 1_455 S
C317 C315 1.387 1_565 S
C317 C319 1.390 . S
C317 H321 0.950 . S
H318 C314 0.951 . S
C319 C317 1.390 . S
C319 C320 1.387 . S
C319 H322 0.950 . S
C320 C319 1.387 . S
C320 C323 1.387 1_565 S
H321 C317 0.950 . S
H322 C319 0.950 . S
C323 C314 1.390 . S
C323 H316 0.948 1_655 S
C323 C320 1.387 1_545 S
C324 C325 1.387 . S
C324 H328 0.950 . S
C324 C333 1.390 1_556 S
C325 C324 1.387 . S
C325 C327 1.387 . S
H326 C333 0.950 . S
C327 C325 1.387 . S
C327 C329 1.390 1_556 S
C327 H331 0.950 . S
H328 C324 0.950 . S
C329 C327 1.390 1_554 S
C329 C330 1.387 . S
C329 H332 0.950 . S
C330 C329 1.387 . S
C330 C333 1.387 . S
H331 C327 0.950 . S
H332 C329 0.950 . S
C333 C324 1.390 1_554 S
C333 H326 0.950 . S
C333 C330 1.387 . S
C334 C335 1.387 . S
C334 H338 0.950 . S
C334 C343 1.390 . S
C335 C334 1.387 . S
C335 C337 1.397 . S
H336 C343 0.950 . S
C337 C335 1.397 . S
C337 C339 1.388 1_565 S
C337 H341 0.942 1_565 S
H338 C334 0.950 . S
C339 C337 1.388 1_545 S
C339 C340 1.387 1_545 S
C339 H342 0.950 . S
C340 C339 1.387 1_565 S
C340 C343 1.387 . S
H341 C337 0.942 1_545 S
H342 C339 0.950 . S
C343 C334 1.390 . S
C343 H336 0.950 . S
C343 C340 1.387 . S
C344 C345 1.387 . S
C344 H348 0.950 . S
C344 C353 1.390 . S
C345 C344 1.387 . S
C345 C347 1.387 . S
H346 C353 0.950 . S
C347 C345 1.387 . S
C347 C349 1.390 . S
C347 H351 0.950 . S
H348 C344 0.950 . S
C349 C347 1.390 . S
C349 C350 1.387 . S
C349 H352 0.950 . S
C350 C349 1.387 . S
C350 C353 1.387 . S
H351 C347 0.950 . S
H352 C349 0.950 . S
C353 C344 1.390 . S
C353 H346 0.950 . S
C353 C350 1.387 . S
C354 C355 1.387 1_655 S
C354 H358 0.950 . S
C354 C363 1.390 . S
C355 C354 1.387 1_455 S
C355 C357 1.387 . S
H356 C363 0.950 . S
C357 C355 1.387 . S
C357 C359 1.390 . S
C357 H361 0.950 . S
H358 C354 0.950 . S
C359 C357 1.390 . S
C359 C360 1.387 . S
C359 H362 0.950 . S
C360 C359 1.387 . S
C360 C363 1.387 1_455 S
H361 C357 0.950 . S
H362 C359 0.950 . S
C363 C354 1.390 . S
C363 H356 0.950 . S
C363 C360 1.387 1_655 S
C364 C365 1.387 . S
C364 H368 0.950 . S
C364 C373 1.390 1_655 S
C365 C364 1.387 . S
C365 C367 1.387 . S
H366 C373 0.950 . S
C367 C365 1.387 . S
C367 C369 1.390 1_655 S
C367 H371 0.950 . S
H368 C364 0.950 . S
C369 C367 1.390 1_455 S
C369 C370 1.387 . S
C369 H372 0.950 . S
C370 C369 1.387 . S
C370 C373 1.387 . S
H371 C367 0.950 . S
H372 C369 0.950 . S
C373 C364 1.390 1_455 S
C373 H366 0.950 . S
C373 C370 1.387 . S
C374 C375 1.387 . S
C374 H378 0.950 . S
C374 C383 1.390 . S
C375 C374 1.387 . S
C375 C377 1.387 . S
H376 C383 0.950 . S
C377 C375 1.387 . S
C377 C379 1.389 1_556 S
C377 H381 0.950 . S
H378 C374 0.950 . S
C379 C377 1.389 1_554 S
C379 C380 1.384 1_554 S
C379 H382 0.955 . S
C380 C379 1.384 1_556 S
C380 C383 1.387 . S
H381 C377 0.950 . S
H382 C379 0.955 . S
C383 C374 1.390 . S
C383 H376 0.950 . S
C383 C380 1.387 . S
C384 C385 1.387 . S
C384 H388 0.950 . S
C384 C393 1.390 . S
C385 C384 1.387 . S
C385 C387 1.387 . S
H386 C393 0.950 . S
C387 C385 1.387 . S
C387 C389 1.390 . S
C387 H391 0.950 . S
H388 C384 0.950 . S
C389 C387 1.390 . S
C389 C390 1.387 . S
C389 H392 0.950 . S
C390 C389 1.387 . S
C390 C393 1.387 . S
H391 C387 0.950 . S
H392 C389 0.950 . S
C393 C384 1.390 . S
C393 H386 0.950 . S
C393 C390 1.387 . S
C394 C395 1.387 . S
C394 H398 0.950 . S
C394 C403 1.390 . S
C395 C394 1.387 . S
C395 C397 1.387 . S
H396 C403 0.950 . S
C397 C395 1.387 . S
C397 C399 1.390 . S
C397 H401 0.950 . S
H398 C394 0.950 . S
C399 C397 1.390 . S
C399 C400 1.387 . S
C399 H402 0.950 . S
C400 C399 1.387 . S
C400 C403 1.387 . S
H401 C397 0.950 . S
H402 C399 0.950 . S
C403 C394 1.390 . S
C403 H396 0.950 . S
C403 C400 1.387 . S
C404 C405 1.387 . S
C404 H408 0.950 . S
C404 C413 1.390 . S
C405 C404 1.387 . S
C405 C407 1.387 . S
H406 C413 0.950 1_655 S
C407 C405 1.387 . S
C407 C409 1.390 . S
C407 H411 0.950 . S
H408 C404 0.950 . S
C409 C407 1.390 . S
C409 C410 1.387 1_455 S
C409 H412 0.950 1_455 S
C410 C409 1.387 1_655 S
C410 C413 1.387 1_655 S
H411 C407 0.950 . S
H412 C409 0.950 1_655 S
C413 C404 1.390 . S
C413 H406 0.950 1_455 S
C413 C410 1.387 1_455 S
C414 C415 1.387 . S
C414 H418 0.950 . S
C414 C423 1.390 1_556 S
C415 C414 1.387 . S
C415 C417 1.387 1_656 S
H416 C423 0.950 . S
C417 C415 1.387 1_454 S
C417 C419 1.390 . S
C417 H421 0.950 . S
H418 C414 0.950 . S
C419 C417 1.390 . S
C419 C420 1.387 1_455 S
C419 H422 0.950 . S
C420 C419 1.387 1_655 S
C420 C423 1.387 . S
H421 C417 0.950 . S
H422 C419 0.950 . S
C423 C414 1.390 1_554 S
C423 H416 0.950 . S
C423 C420 1.387 . S
C424 C425 1.387 . S
C424 H428 0.950 . S
C424 C433 1.390 . S
C425 C424 1.387 . S
C425 C427 1.387 . S
H426 C433 0.950 . S
C427 C425 1.387 . S
C427 C429 1.390 . S
C427 H431 0.950 . S
H428 C424 0.950 . S
C429 C427 1.390 . S
C429 C430 1.387 . S
C429 H432 0.950 . S
C430 C429 1.387 . S
C430 C433 1.387 . S
H431 C427 0.950 . S
H432 C429 0.950 . S
C433 C424 1.390 . S
C433 H426 0.950 . S
C433 C430 1.387 . S
C434 C435 1.387 . S
C434 H438 0.950 . S
C434 C443 1.390 . S
C435 C434 1.387 . S
C435 C437 1.387 . S
H436 C443 0.950 . S
C437 C435 1.387 . S
C437 C439 1.390 . S
C437 H441 0.950 . S
H438 C434 0.950 . S
C439 C437 1.390 . S
C439 C440 1.387 1_545 S
C439 H442 0.950 1_545 S
C440 C439 1.387 1_565 S
C440 C443 1.387 1_565 S
H441 C437 0.950 . S
H442 C439 0.950 1_565 S
C443 C434 1.390 . S
C443 H436 0.950 . S
C443 C440 1.387 1_545 S
C444 C445 1.387 1_556 S
C444 H448 0.950 . S
C444 C453 1.390 . S
C445 C444 1.387 1_554 S
C445 C447 1.387 . S
H446 C453 0.950 . S
C447 C445 1.387 . S
C447 C449 1.390 . S
C447 H451 0.950 . S
H448 C444 0.950 . S
C449 C447 1.390 . S
C449 C450 1.387 1_554 S
C449 H452 0.950 . S
C450 C449 1.387 1_556 S
C450 C453 1.387 . S
H451 C447 0.950 . S
H452 C449 0.950 . S
C453 C444 1.390 . S
C453 H446 0.950 . S
C453 C450 1.387 . S
C454 C455 1.387 1_565 S
C454 H458 0.950 . S
C454 C463 1.390 . S
C455 C454 1.387 1_545 S
C455 C457 1.387 . S
H456 C463 0.950 . S
C457 C455 1.387 . S
C457 C459 1.390 1_545 S
C457 H461 0.950 . S
H458 C454 0.950 . S
C459 C457 1.390 1_565 S
C459 C460 1.387 . S
C459 H462 0.950 . S
C460 C459 1.387 . S
C460 C463 1.387 . S
H461 C457 0.950 . S
H462 C459 0.950 . S
C463 C454 1.390 . S
C463 H456 0.950 . S
C463 C460 1.387 . S
C464 C465 1.387 . S
C464 H468 0.950 . S
C464 C473 1.390 . S
C465 C464 1.387 . S
C465 C467 1.387 . S
H466 C473 0.950 . S
C467 C465 1.387 . S
C467 C469 1.390 . S
C467 H471 0.950 1_565 S
H468 C464 0.950 . S
C469 C467 1.390 . S
C469 C470 1.387 . S
C469 H472 0.950 1_565 S
C470 C469 1.387 . S
C470 C473 1.387 . S
H471 C467 0.950 1_545 S
H472 C469 0.950 1_545 S
C473 C464 1.390 . S
C473 H466 0.950 . S
C473 C470 1.387 . S
C474 C475 1.387 . S
C474 H478 0.950 . S
C474 C483 1.390 . S
C475 C474 1.387 . S
C475 C477 1.387 . S
H476 C483 0.950 . S
C477 C475 1.387 . S
C477 C479 1.390 . S
C477 H481 0.950 . S
H478 C474 0.950 . S
C479 C477 1.390 . S
C479 C480 1.387 . S
C479 H482 0.950 . S
C480 C479 1.387 . S
C480 C483 1.387 . S
H481 C477 0.950 . S
H482 C479 0.950 . S
C483 C474 1.390 . S
C483 H476 0.950 . S
C483 C480 1.387 . S
C484 C485 1.387 . S
C484 H488 0.950 . S
C484 C493 1.390 . S
C485 C484 1.387 . S
C485 C487 1.387 . S
H486 C493 0.950 . S
C487 C485 1.387 . S
C487 C489 1.390 . S
C487 H491 0.950 . S
H488 C484 0.950 . S
C489 C487 1.390 . S
C489 C490 1.387 . S
C489 H492 0.950 . S
C490 C489 1.387 . S
C490 C493 1.387 . S
H491 C487 0.950 . S
H492 C489 0.950 . S
C493 C484 1.390 . S
C493 H486 0.950 . S
C493 C490 1.387 . S
C494 C495 1.387 . S
C494 H498 0.950 . S
C494 C503 1.390 . S
C495 C494 1.387 . S
C495 C497 1.387 . S
H496 C503 0.950 . S
C497 C495 1.387 . S
C497 C499 1.390 1_556 S
C497 H501 0.950 . S
H498 C494 0.950 . S
C499 C497 1.390 1_554 S
C499 C500 1.387 . S
C499 H502 0.950 . S
C500 C499 1.387 . S
C500 C503 1.387 1_554 S
H501 C497 0.950 . S
H502 C499 0.950 . S
C503 C494 1.390 . S
C503 H496 0.950 . S
C503 C500 1.387 1_556 S
C504 C505 1.387 . S
C504 H508 0.950 . S
C504 C513 1.390 . S
C505 C504 1.387 . S
C505 C507 1.387 . S
H506 C513 0.950 . S
C507 C505 1.387 . S
C507 C509 1.390 . S
C507 H511 0.950 . S
H508 C504 0.950 . S
C509 C507 1.390 . S
C509 C510 1.387 . S
C509 H512 0.950 . S
C510 C509 1.387 . S
C510 C513 1.387 . S
H511 C507 0.950 . S
H512 C509 0.950 . S
C513 C504 1.390 . S
C513 H506 0.950 . S
C513 C510 1.387 . S
C514 C515 1.387 . S
C514 H518 0.950 . S
C514 C523 1.390 . S
C515 C514 1.387 . S
C515 C517 1.387 . S
H516 C523 0.950 . S
C517 C515 1.387 . S
C517 C519 1.390 . S
C517 H521 0.950 . S
H518 C514 0.950 . S
C519 C517 1.390 . S
C519 C520 1.387 . S
C519 H522 0.950 . S
C520 C519 1.387 . S
C520 C523 1.387 . S
H521 C517 0.950 . S
H522 C519 0.950 . S
C523 C514 1.390 . S
C523 H516 0.950 . S
C523 C520 1.387 . S
C524 C525 1.387 . S
C524 H528 0.950 1_655 S
C524 C533 1.390 1_655 S
C525 C524 1.387 . S
C525 C527 1.387 . S
H526 C533 0.950 . S
C527 C525 1.387 . S
C527 C529 1.390 . S
C527 H531 0.950 . S
H528 C524 0.950 1_455 S
C529 C527 1.390 . S
C529 C530 1.387 . S
C529 H532 0.950 . S
C530 C529 1.387 . S
C530 C533 1.387 1_655 S
H531 C527 0.950 . S
H532 C529 0.950 . S
C533 C524 1.390 1_455 S
C533 H526 0.950 . S
C533 C530 1.387 1_455 S
C534 C535 1.387 . S
C534 H538 0.950 . S
C534 C543 1.390 . S
C535 C534 1.387 . S
C535 C537 1.387 1_545 S
H536 C543 0.950 . S
C537 C535 1.387 1_565 S
C537 C539 1.390 . S
C537 H541 0.950 . S
H538 C534 0.950 . S
C539 C537 1.390 . S
C539 C540 1.387 1_565 S
C539 H542 0.950 . S
C540 C539 1.387 1_545 S
C540 C543 1.387 . S
H541 C537 0.950 . S
H542 C539 0.950 . S
C543 C534 1.390 . S
C543 H536 0.950 . S
C543 C540 1.387 . S
C225 C6 1.672 . S
C230 C104 1.626 . S
C235 C20 1.749 . S
C240 C62 1.755 . S
C245 C76 1.550 . S
C250 C34 1.620 . S
C255 C48 1.881 . S
C260 C90 1.732 . S
C265 C118 1.755 . S
C270 C174 1.750 . S
C275 C132 1.548 . S
C280 C202 1.621 . S
C285 C160 1.881 . S
C290 C146 1.734 . S
C295 C216 1.625 . S
C300 C188 1.672 . S
C305 C9 1.318 . S
C310 C91 1.145 . S
C315 C106 1.792 . S
C320 C22 1.795 . S
C325 C37 1.325 . S
C330 C63 1.159 . S
C335 C78 1.793 . S
C340 C49 1.669 . S
C345 C8 1.485 . S
C350 C204 1.488 . S
C355 C163 1.021 . S
C360 C21 0.960 1_455 S
C365 C190 1.485 . S
C370 C36 1.488 . S
C375 C175 0.953 . S
C380 C51 1.023 1_556 S
C385 C149 1.853 . S
C390 C65 1.819 . S
C395 C77 1.056 . S
C400 C217 1.138 . S
C405 C93 1.853 . S
C410 C121 1.821 . S
C415 C105 1.141 . S
C420 C133 1.051 . S
C425 C7 1.579 . S
C430 C64 1.684 . S
C435 C120 1.683 . S
C440 C189 1.575 . S
C445 C177 1.607 . S
C450 C135 1.633 . S
C455 C203 1.405 . S
C460 C148 1.451 . S
C465 C107 1.580 . S
C470 C50 1.591 . S
C475 C35 1.409 . S
C480 C92 1.450 . S
C485 C162 1.591 . S
C490 C219 1.581 . S
C495 C191 1.318 . S
C500 C147 1.149 . S
C505 C218 1.792 . S
C510 C176 1.794 . S
C515 C205 1.325 . S
C520 C119 1.160 . S
C525 C161 1.665 . S
C530 C134 1.792 . S
C535 C23 1.608 . S
C540 C79 1.635 . S
