# Generated by pormake.
# Topology afw, (4)-cn, num edge types: 1
# Building blocks:
#     Node 0, Type 0, BuildingBlock: UXUYUI_clean_sbu_0, # of connection points: 4
#     Node 1, Type 0, BuildingBlock: UXUYUI_clean_sbu_0, # of connection points: 4
#     Node 2, Type 0, BuildingBlock: UXUYUI_clean_sbu_0, # of connection points: 4
#     Node 3, Type 0, BuildingBlock: UXUYUI_clean_sbu_0, # of connection points: 4
#     Node 4, Type 0, BuildingBlock: UXUYUI_clean_sbu_0, # of connection points: 4
#     Node 5, Type 0, BuildingBlock: UXUYUI_clean_sbu_0, # of connection points: 4
#     Node 6, Type 0, BuildingBlock: UXUYUI_clean_sbu_0, # of connection points: 4
#     Node 7, Type 0, BuildingBlock: UXUYUI_clean_sbu_0, # of connection points: 4
#     Node 8, Type 0, BuildingBlock: UXUYUI_clean_sbu_0, # of connection points: 4
#     Edge 9, Type (0, 0), BuildingBlock: MIFKUJ_clean_linker_0, # of connection points: 2
#     Edge 10, Type (0, 0), BuildingBlock: MIFKUJ_clean_linker_0, # of connection points: 2
#     Edge 11, Type (0, 0), BuildingBlock: MIFKUJ_clean_linker_0, # of connection points: 2
#     Edge 12, Type (0, 0), BuildingBlock: MIFKUJ_clean_linker_0, # of connection points: 2
#     Edge 13, Type (0, 0), BuildingBlock: MIFKUJ_clean_linker_0, # of connection points: 2
#     Edge 14, Type (0, 0), BuildingBlock: MIFKUJ_clean_linker_0, # of connection points: 2
#     Edge 15, Type (0, 0), BuildingBlock: MIFKUJ_clean_linker_0, # of connection points: 2
#     Edge 16, Type (0, 0), BuildingBlock: MIFKUJ_clean_linker_0, # of connection points: 2
#     Edge 17, Type (0, 0), BuildingBlock: MIFKUJ_clean_linker_0, # of connection points: 2
#     Edge 18, Type (0, 0), BuildingBlock: MIFKUJ_clean_linker_0, # of connection points: 2
#     Edge 19, Type (0, 0), BuildingBlock: MIFKUJ_clean_linker_0, # of connection points: 2
#     Edge 20, Type (0, 0), BuildingBlock: MIFKUJ_clean_linker_0, # of connection points: 2
#     Edge 21, Type (0, 0), BuildingBlock: MIFKUJ_clean_linker_0, # of connection points: 2
#     Edge 22, Type (0, 0), BuildingBlock: MIFKUJ_clean_linker_0, # of connection points: 2
#     Edge 23, Type (0, 0), BuildingBlock: MIFKUJ_clean_linker_0, # of connection points: 2
#     Edge 24, Type (0, 0), BuildingBlock: MIFKUJ_clean_linker_0, # of connection points: 2
#     Edge 25, Type (0, 0), BuildingBlock: MIFKUJ_clean_linker_0, # of connection points: 2
#     Edge 26, Type (0, 0), BuildingBlock: MIFKUJ_clean_linker_0, # of connection points: 2
# Relax obj value: 0.350
# Max RMSD: 0.270
# Mean RMSD: 0.270
data_MOF--net-afw--node1-UXUYUI_clean_sbu_0--edge1-MIFKUJ_clean_linker_0
_symmetry_space_group_name_H-M    P1
_symmetry_Int_Tables_number       1
_symmetry_cell_setting            triclinic
loop_
_symmetry_equiv_pos_as_xyz
'x, y, z'
_cell_length_a     68.845976
_cell_length_b     68.787205
_cell_length_c     64.497795
_cell_angle_alpha  90.029689
_cell_angle_beta   89.984375
_cell_angle_gamma 120.00911
loop_
_atom_site_label
_atom_site_type_symbol
_atom_site_fract_x
_atom_site_fract_y
_atom_site_fract_z
_atom_type_partial_charge
Li0 Li 0.01351 0.23448 0.02137 0.0
Li1 Li 0.99198 0.20048 0.0007 0.0
Li2 Li 0.03278 0.21832 0.00426 0.0
Li3 Li 0.01561 0.23558 0.98378 0.0
C4 C 0.01626 0.19165 0.03658 0.0
N5 N 0.03115 0.16576 0.05607 0.0
C6 C 0.00526 0.16847 0.03328 0.0
C7 C 0.03472 0.20165 0.04993 0.0
C8 C 0.01306 0.15568 0.04326 0.0
C9 C 0.04204 0.18828 0.05958 0.0
C10 C 0.96689 0.21956 0.00228 0.0
C11 C 0.93029 0.20092 0.98635 0.0
N12 N 0.92093 0.20101 0.0049 0.0
C13 C 0.95693 0.21954 0.02116 0.0
C14 C 0.95351 0.21029 0.98469 0.0
C15 C 0.93365 0.21007 0.02217 0.0
C16 C 0.01159 0.26931 0.04202 0.0
N17 N 0.0128 0.25037 0.0449 0.0
C18 C 0.01174 0.25376 0.08161 0.0
C19 C 0.01295 0.24246 0.06415 0.0
C20 C 0.0105 0.27338 0.07911 0.0
C21 C 0.01067 0.28131 0.05904 0.0
H22 H 0.01106 0.2749 0.02647 0.0
H23 H 0.01363 0.2272 0.06593 0.0
C24 C 0.96226 0.15937 0.98192 0.0
N25 N 0.96498 0.17244 -0.00132 0.0
C26 C 0.94317 0.13826 0.98005 0.0
C27 C 0.92984 0.1445 0.01267 0.0
C28 C 0.94936 0.16543 0.01401 0.0
C29 C 0.92661 0.13049 0.99557 0.0
H30 H 0.97518 0.16512 0.97021 0.0
H31 H 0.95218 0.176 0.02739 0.0
C32 C 0.05222 0.2705 0.01277 0.0
N33 N 0.07411 0.31193 0.032 0.0
C34 C 0.05234 0.289 0.00367 0.0
C35 C 0.06337 0.27311 0.03157 0.0
C36 C 0.06349 0.3098 0.01365 0.0
C37 C 0.07428 0.29417 0.04108 0.0
C38 C 0.0184 0.20705 0.95828 0.0
C39 C 0.03943 0.21148 0.95125 0.0
C40 C 0.00185 0.20395 0.94396 0.0
C41 C 0.04363 0.21294 0.92994 0.0
C42 C 0.00672 0.20559 0.92279 0.0
N43 N 0.02733 0.21002 0.91628 0.0
C44 C 0.053 0.19167 0.00217 0.0
C45 C 0.07816 0.23003 0.00967 0.0
C46 C 0.07039 0.18688 0.00328 0.0
N47 N 0.05713 0.21289 0.00561 0.0
C48 C 0.09612 0.22604 0.01074 0.0
C49 C 0.09228 0.20419 0.00764 0.0
H50 H 0.03616 0.17849 -0.00144 0.0
H51 H 0.08101 0.24681 0.01202 0.0
C52 C 0.00307 0.25862 0.95556 0.0
N53 N 0.01918 0.25349 0.9604 0.0
C54 C 0.0059 0.27241 0.93864 0.0
C55 C 0.04181 0.27523 0.93204 0.0
C56 C 0.03841 0.26167 0.94924 0.0
C57 C 0.02549 0.28091 0.92659 0.0
H58 H 0.98817 0.25227 0.96503 0.0
H59 H 0.05113 0.25767 0.95376 0.0
O60 O 0.00912 0.20453 0.02668 0.0
O61 O 0.98962 0.22854 0.001 0.0
O62 O 0.04111 0.24991 0.0034 0.0
O63 O 0.01406 0.20583 0.97908 0.0
H64 H 0.99097 0.16046 0.02298 0.0
H65 H 0.04349 0.21958 0.05257 0.0
H66 H 0.00478 0.13773 0.04078 0.0
H67 H 0.05641 0.19581 0.06981 0.0
H68 H 0.91972 0.19356 0.9729 0.0
H69 H 0.96701 0.2266 0.03494 0.0
H70 H 0.96096 0.21012 0.96997 0.0
H71 H 0.92569 0.20985 0.0367 0.0
H72 H 0.01159 0.24717 0.0969 0.0
H73 H 0.00932 0.29617 0.05655 0.0
H74 H 0.94179 0.12789 0.96687 0.0
H75 H 0.91752 0.13932 0.02495 0.0
H76 H 0.04376 0.28729 0.98916 0.0
H77 H 0.06333 0.25893 0.03889 0.0
H78 H 0.06363 0.32424 0.00684 0.0
H79 H 0.08283 0.2964 0.05571 0.0
H80 H 0.05245 0.21397 0.96211 0.0
H81 H 0.98551 0.20056 0.94915 0.0
H82 H 0.05986 0.21647 0.92428 0.0
H83 H 0.99413 0.20339 0.91154 0.0
H84 H 0.06682 0.16989 0.00042 0.0
H85 H 0.11276 0.23982 0.01416 0.0
H86 H 0.99307 0.27667 0.93528 0.0
H87 H 0.05702 0.28108 0.92307 0.0
Li88 Li 0.81752 0.80768 -0.00256 0.0
Li89 Li 0.78415 0.7916 0.01931 0.0
Li90 Li 0.78124 0.78899 0.98176 0.0
Li91 Li 0.79357 0.8246 -0.00046 0.0
C92 C 0.78534 0.75466 0.99314 0.0
N93 N 0.76514 0.71164 0.97715 0.0
C94 C 0.76713 0.7371 0.0034 0.0
C95 C 0.79335 0.75032 0.97481 0.0
C96 C 0.75715 0.71547 0.99506 0.0
C97 C 0.78287 0.72847 0.96695 0.0
C98 C 0.81604 0.82317 0.04225 0.0
C99 C 0.80736 0.82814 0.0774 0.0
N100 N 0.82403 0.82468 0.08435 0.0
C101 C 0.83316 0.81977 0.04972 0.0
C102 C 0.8031 0.82752 0.05616 0.0
C103 C 0.83692 0.82057 0.07107 0.0
C104 C 0.86418 0.8358 -0.00215 0.0
N105 N 0.84762 0.8141 0.9957 0.0
C106 C 0.8745 0.80224 0.99065 0.0
C107 C 0.85229 0.79734 0.99238 0.0
C108 C 0.89196 0.82459 0.99233 0.0
C109 C 0.88659 0.84148 0.99608 0.0
H110 H 0.85992 0.84869 0.00084 0.0
H111 H 0.83878 0.7802 0.99104 0.0
C112 C 0.75132 0.77139 0.05086 0.0
N113 N 0.77196 0.77602 0.04432 0.0
C114 C 0.74229 0.7592 0.06907 0.0
C115 C 0.77608 0.75708 0.07345 0.0
C116 C 0.78428 0.76901 0.05506 0.0
C117 C 0.7547 0.7518 0.08061 0.0
H118 H 0.74174 0.77684 0.04177 0.0
H119 H 0.80049 0.77265 0.04924 0.0
C120 C 0.82554 0.83125 0.96334 0.0
N121 N 0.86551 0.85664 0.94242 0.0
C122 C 0.83688 0.85467 0.96473 0.0
C123 C 0.83446 0.82075 0.95119 0.0
C124 C 0.85707 0.8672 0.95404 0.0
C125 C 0.85472 0.83388 0.94079 0.0
C126 C 0.74935 0.80434 -0.00027 0.0
C127 C 0.73823 0.80213 0.98099 0.0
C128 C 0.74583 0.81511 0.01649 0.0
C129 C 0.72386 0.81091 0.97929 0.0
C130 C 0.73138 0.82371 0.01414 0.0
N131 N 0.72079 0.82145 0.99575 0.0
C132 C 0.74383 0.75226 0.96327 0.0
C133 C 0.77244 0.77615 0.93986 0.0
C134 C 0.73103 0.73837 0.94701 0.0
N135 N 0.76413 0.77064 0.9594 0.0
C136 C 0.76021 0.76279 0.92315 0.0
C137 C 0.73919 0.74362 0.92661 0.0
H138 H 0.73761 0.74843 0.979 0.0
H139 H 0.78847 0.79105 0.93723 0.0
C140 C 0.80598 0.86761 0.01405 0.0
N141 N 0.79405 0.85242 -0.00095 0.0
C142 C 0.80875 0.8891 0.01341 0.0
C143 C 0.78639 0.87878 0.98216 0.0
C144 C 0.7843 0.85753 0.98327 0.0
C145 C 0.79909 0.89506 -0.00281 0.0
H146 H 0.81407 0.86333 0.0261 0.0
H147 H 0.77537 0.8453 0.97125 0.0
O148 O 0.79508 0.77603 0.00084 0.0
O149 O 0.81186 0.82212 0.02143 0.0
O150 O 0.80596 0.81865 0.974 0.0
O151 O 0.76361 0.79602 0.00167 0.0
H152 H 0.76062 0.74015 0.01753 0.0
H153 H 0.80727 0.76376 0.96655 0.0
H154 H 0.74299 0.70173 0.00279 0.0
H155 H 0.78878 0.72491 0.9527 0.0
H156 H 0.79738 0.83134 0.08835 0.0
H157 H 0.84329 0.81631 0.03919 0.0
H158 H 0.78976 0.83016 0.05062 0.0
H159 H 0.85004 0.81785 0.07709 0.0
H160 H 0.87796 0.78877 0.98771 0.0
H161 H 0.89958 0.85886 -0.00214 0.0
H162 H 0.7256 0.7552 0.07379 0.0
H163 H 0.78642 0.75206 0.08194 0.0
H164 H 0.8303 0.8631 0.97409 0.0
H165 H 0.82605 0.80264 0.95011 0.0
H166 H 0.86607 0.88533 0.95505 0.0
H167 H 0.86192 0.82597 0.93149 0.0
H168 H 0.7408 0.7939 0.96785 0.0
H169 H 0.75435 0.817 0.03108 0.0
H170 H 0.71522 0.8094 0.96485 0.0
H171 H 0.7286 0.8322 0.02694 0.0
H172 H 0.71496 0.72369 0.95037 0.0
H173 H 0.76692 0.76775 0.90764 0.0
H174 H 0.81921 0.90117 0.02504 0.0
H175 H 0.77852 0.88251 0.96944 0.0
Li176 Li 0.22527 0.03052 -0.00092 0.0
Li177 Li 0.2369 0.00873 0.02023 0.0
Li178 Li 0.23965 0.00969 0.98167 0.0
Li179 Li 0.20316 0.98859 -0.0014 0.0
C180 C 0.2682 0.05728 0.00414 0.0
N181 N 0.29215 0.10332 0.00928 0.0
C182 C 0.27615 0.0665 0.02374 0.0
C183 C 0.2726 0.07146 0.98712 0.0
C184 C 0.2882 0.08983 0.02603 0.0
C185 C 0.28467 0.09469 0.99005 0.0
C186 C 0.1971 0.00305 0.04034 0.0
C187 C 0.17443 0.97415 0.06503 0.0
N188 N 0.17351 0.98981 0.07722 0.0
C189 C 0.19568 0.0188 0.05299 0.0
C190 C 0.18618 0.9805 0.04631 0.0
C191 C 0.18378 0.01181 0.07162 0.0
C192 C 0.21427 0.06076 0.98081 0.0
N193 N 0.22239 0.05655 -0.00161 0.0
C194 C 0.22366 0.08808 0.0153 0.0
C195 C 0.22738 0.06989 0.0154 0.0
C196 C 0.21469 0.09248 -0.00249 0.0
C197 C 0.21042 0.07879 0.97998 0.0
H198 H 0.21029 0.04981 0.96757 0.0
H199 H 0.2338 0.06613 0.02918 0.0
C200 C 0.26656 0.00095 0.04306 0.0
N201 N 0.25162 0.0083 0.04479 0.0
C202 C 0.27927 0.00159 0.06015 0.0
C203 C 0.26081 0.0172 0.0805 0.0
C204 C 0.24848 0.01627 0.06301 0.0
C205 C 0.27663 0.01003 0.07912 0.0
H206 H 0.26885 0.99494 0.02828 0.0
H207 H 0.23699 0.02262 0.06381 0.0
C208 C 0.20991 0.00753 0.95419 0.0
N209 N 0.20711 0.00207 0.91164 0.0
C210 C 0.19418 0.98699 0.94547 0.0
C211 C 0.22407 0.02536 0.94125 0.0
C212 C 0.19305 0.98456 0.92392 0.0
C213 C 0.22245 0.02224 0.91978 0.0
C214 C 0.22407 0.96217 0.00555 0.0
C215 C 0.22483 0.94806 0.99036 0.0
C216 C 0.21865 0.95446 0.02596 0.0
C217 C 0.21969 0.92632 0.99575 0.0
C218 C 0.21362 0.93263 0.03073 0.0
N219 N 0.21421 0.91911 0.01565 0.0
C220 C 0.27788 0.02726 0.95581 0.0
C221 C 0.24734 0.99223 0.94523 0.0
C222 C 0.29003 0.02813 0.93816 0.0
N223 N 0.25685 0.00964 0.9588 0.0
C224 C 0.25878 0.99248 0.92734 0.0
C225 C 0.28029 0.01073 0.92352 0.0
H226 H 0.28509 0.04079 0.96697 0.0
H227 H 0.23063 0.9784 0.94806 0.0
C228 C 0.15778 0.97101 -0.00232 0.0
N229 N 0.17329 0.96436 -0.00325 0.0
C230 C 0.13504 0.95536 0.99581 0.0
C231 C 0.14455 0.92611 0.99227 0.0
C232 C 0.1672 0.94241 0.99411 0.0
C233 C 0.12819 0.93259 0.99293 0.0
H234 H 0.16318 0.9886 -0.00024 0.0
H235 H 0.1798 0.93751 0.99316 0.0
O236 O 0.25605 0.03449 0.00165 0.0
O237 O 0.20861 0.00967 0.02198 0.0
O238 O 0.21147 0.01014 0.97527 0.0
O239 O 0.22919 0.98355 0.0005 0.0
H240 H 0.27295 0.05579 0.03707 0.0
H241 H 0.26653 0.0646 0.97185 0.0
H242 H 0.29437 0.0972 0.04113 0.0
H243 H 0.28805 0.10586 0.97704 0.0
H244 H 0.16595 0.95676 0.06983 0.0
H245 H 0.20375 0.03627 0.04854 0.0
H246 H 0.1865 0.96794 0.03651 0.0
H247 H 0.18269 0.02386 0.08161 0.0
H248 H 0.22697 0.09802 0.02925 0.0
H249 H 0.20382 0.08175 0.96584 0.0
H250 H 0.29119 0.99578 0.05848 0.0
H251 H 0.25861 0.02425 0.09472 0.0
H252 H 0.18308 0.97301 0.95521 0.0
H253 H 0.23638 0.04135 0.94772 0.0
H254 H 0.18103 0.96873 0.91697 0.0
H255 H 0.23343 0.03583 0.9096 0.0
H256 H 0.22926 0.95376 0.97455 0.0
H257 H 0.21853 0.96525 0.03807 0.0
H258 H 0.22008 0.9152 0.9841 0.0
H259 H 0.20934 0.92646 0.04645 0.0
H260 H 0.30657 0.0425 0.93572 0.0
H261 H 0.25084 0.97856 0.91658 0.0
H262 H 0.12295 0.96102 -0.00329 0.0
H263 H 0.13992 0.90873 0.9899 0.0
Li264 Li 0.65351 0.53705 0.34199 0.0
Li265 Li 0.67747 0.57396 0.35687 0.0
Li266 Li 0.67452 0.56929 0.31869 0.0
Li267 Li 0.69552 0.55651 0.33982 0.0
C268 C 0.63026 0.56052 0.33192 0.0
N269 N 0.5893 0.55318 0.31752 0.0
C270 C 0.61649 0.56496 0.34465 0.0
C271 C 0.62332 0.5527 0.31175 0.0
C272 C 0.59581 0.56104 0.33713 0.0
C273 C 0.60253 0.549 0.30479 0.0
C274 C 0.67445 0.54593 0.38563 0.0
C275 C 0.69155 0.56058 0.41889 0.0
N276 N 0.67117 0.54839 0.42813 0.0
C277 C 0.65369 0.53347 0.39545 0.0
C278 C 0.69357 0.55951 0.39743 0.0
C279 C 0.65238 0.53496 0.41696 0.0
C280 C 0.63208 0.49114 0.34453 0.0
N281 N 0.62777 0.50834 0.34547 0.0
C282 C 0.58878 0.48276 0.35119 0.0
C283 C 0.60669 0.50466 0.34884 0.0
C284 C 0.59277 0.46465 0.35027 0.0
C285 C 0.61476 0.46907 0.34686 0.0
H286 H 0.64904 0.49464 0.34186 0.0
H287 H 0.60373 0.51862 0.34986 0.0
C288 C 0.69876 0.61213 0.38326 0.0
N289 N 0.6793 0.59292 0.37894 0.0
C290 C 0.69977 0.62573 0.39978 0.0
C291 C 0.66061 0.59963 0.40677 0.0
C292 C 0.66044 0.58646 0.3903 0.0
C293 C 0.68045 0.61954 0.41164 0.0
H294 H 0.71346 0.61693 0.37387 0.0
H295 H 0.64532 0.57092 0.38665 0.0
C296 C 0.66608 0.52667 0.30051 0.0
N297 N 0.65233 0.50006 0.26533 0.0
C298 C 0.68177 0.52505 0.28794 0.0
C299 C 0.64333 0.51443 0.29528 0.0
C300 C 0.67451 0.51161 0.27019 0.0
C301 C 0.63673 0.50116 0.27742 0.0
C302 C 0.72407 0.59904 0.33202 0.0
C303 C 0.73188 0.6062 0.31188 0.0
C304 C 0.7394 0.60323 0.348 0.0
C305 C 0.75494 0.61731 0.30804 0.0
C306 C 0.76232 0.61434 0.34351 0.0
N307 N 0.76955 0.62109 0.32379 0.0
C308 C 0.67615 0.60419 0.2963 0.0
C309 C 0.6749 0.5757 0.27469 0.0
C310 C 0.67866 0.61754 0.27912 0.0
N311 N 0.67469 0.5839 0.29381 0.0
C312 C 0.67728 0.58843 0.25707 0.0
C313 C 0.67966 0.60985 0.25919 0.0
H314 H 0.6761 0.61029 0.31176 0.0
H315 H 0.67379 0.55958 0.27306 0.0
C316 C 0.7249 0.5436 0.35726 0.0
N317 N 0.7205 0.55187 0.33989 0.0
C318 C 0.74263 0.53924 0.35755 0.0
C319 C 0.75102 0.55206 0.32206 0.0
C320 C 0.73329 0.55641 0.32256 0.0
C321 C 0.75575 0.54309 0.33966 0.0
H322 H 0.71447 0.54012 0.37083 0.0
H323 H 0.72956 0.56318 0.30901 0.0
O324 O 0.6506 0.56433 0.3391 0.0
O325 O 0.67598 0.54505 0.36454 0.0
O326 O 0.67296 0.53969 0.31805 0.0
O327 O 0.70154 0.58793 0.33605 0.0
H328 H 0.62165 0.57132 0.3602 0.0
H329 H 0.6339 0.5497 0.30148 0.0
H330 H 0.58494 0.56429 0.34687 0.0
H331 H 0.59696 0.54289 0.28922 0.0
H332 H 0.70617 0.57115 0.4282 0.0
H333 H 0.63872 0.52292 0.38656 0.0
H334 H 0.70974 0.56935 0.39005 0.0
H335 H 0.63641 0.5255 0.42477 0.0
H336 H 0.57209 0.48004 0.35399 0.0
H337 H 0.61853 0.45558 0.34574 0.0
H338 H 0.71533 0.64105 0.40307 0.0
H339 H 0.64547 0.59415 0.41578 0.0
H340 H 0.69939 0.53412 0.29174 0.0
H341 H 0.63079 0.51496 0.30492 0.0
H342 H 0.68652 0.51035 0.2603 0.0
H343 H 0.61918 0.49168 0.27321 0.0
H344 H 0.7203 0.6031 0.29931 0.0
H345 H 0.73364 0.59764 0.36363 0.0
H346 H 0.76122 0.62287 0.29252 0.0
H347 H 0.77435 0.61753 0.35569 0.0
H348 H 0.68075 0.63406 0.2815 0.0
H349 H 0.67766 0.58174 0.24197 0.0
H350 H 0.74586 0.53273 0.37161 0.0
H351 H 0.76043 0.55506 0.30782 0.0
Li352 Li 0.48104 0.13772 0.34152 0.0
Li353 Li 0.44306 0.12161 0.35565 0.0
Li354 Li 0.44924 0.12363 0.31873 0.0
Li355 Li 0.46014 0.15674 0.338 0.0
C356 C 0.45864 0.0917 0.35143 0.0
N357 N 0.46381 0.0622 0.37673 0.0
C358 C 0.46974 0.09899 0.37044 0.0
C359 C 0.45015 0.06941 0.3453 0.0
C360 C 0.47219 0.08382 0.383 0.0
C361 C 0.45295 0.05475 0.3583 0.0
C362 C 0.46982 0.16416 0.37798 0.0
C363 C 0.4491 0.17764 0.39762 0.0
N364 N 0.46874 0.1951 0.40461 0.0
C365 C 0.4898 0.18219 0.38541 0.0
C366 C 0.44929 0.16183 0.38415 0.0
C367 C 0.4889 0.19767 0.39884 0.0
C368 C 0.52619 0.16361 0.35031 0.0
N369 N 0.51042 0.14238 0.34507 0.0
C370 C 0.53802 0.131 0.34411 0.0
C371 C 0.51587 0.12615 0.3417 0.0
C372 C 0.5546 0.15274 0.34995 0.0
C373 C 0.54845 0.16917 0.35297 0.0
H374 H 0.52147 0.17632 0.35207 0.0
H375 H 0.50312 0.10953 0.33694 0.0
C376 C 0.40313 0.08669 0.37212 0.0
N377 N 0.42398 0.10359 0.37708 0.0
C378 C 0.38938 0.07175 0.38738 0.0
C379 C 0.41875 0.09228 0.41252 0.0
C380 C 0.4319 0.10676 0.3968 0.0
C381 C 0.39728 0.07433 0.40785 0.0
H382 H 0.39743 0.08454 0.35621 0.0
H383 H 0.44871 0.12015 0.40019 0.0
C384 C 0.49107 0.15122 0.30106 0.0
N385 N 0.51777 0.14898 0.27025 0.0
C386 C 0.50479 0.17016 0.28913 0.0
C387 C 0.49093 0.13113 0.29733 0.0
C388 C 0.51816 0.16869 0.27361 0.0
C389 C 0.50455 0.13034 0.28169 0.0
C390 C 0.41741 0.13675 0.32065 0.0
C391 C 0.42848 0.15157 0.3043 0.0
C392 C 0.39421 0.12718 0.32275 0.0
C393 C 0.41611 0.15656 0.29031 0.0
C394 C 0.38243 0.1326 0.30844 0.0
N395 N 0.39353 0.14705 0.29265 0.0
C396 C 0.42061 0.08584 0.29576 0.0
C397 C 0.44136 0.1185 0.27524 0.0
C398 C 0.4092 0.07342 0.27829 0.0
N399 N 0.4362 0.10794 0.29391 0.0
C400 C 0.43045 0.10669 0.25736 0.0
C401 C 0.41398 0.08391 0.25882 0.0
H402 H 0.41678 0.07802 0.31089 0.0
H403 H 0.45356 0.13619 0.27428 0.0
C404 C 0.48561 0.20294 0.33566 0.0
N405 N 0.46418 0.18609 0.33848 0.0
C406 C 0.49096 0.22522 0.33781 0.0
C407 C 0.45194 0.21244 0.34519 0.0
C408 C 0.44735 0.19032 0.34303 0.0
C409 C 0.47407 0.23018 0.34289 0.0
H410 H 0.49863 0.19897 0.33227 0.0
H411 H 0.43053 0.17655 0.3456 0.0
O412 O 0.4557 0.10609 0.33892 0.0
O413 O 0.4703 0.14924 0.36423 0.0
O414 O 0.47805 0.15262 0.31638 0.0
O415 O 0.42902 0.13133 0.33449 0.0
H416 H 0.47645 0.11616 0.37546 0.0
H417 H 0.44147 0.0635 0.33065 0.0
H418 H 0.48074 0.08923 0.39774 0.0
H419 H 0.44647 0.03745 0.35375 0.0
H420 H 0.43333 0.17612 0.40241 0.0
H421 H 0.50584 0.18429 0.38085 0.0
H422 H 0.43366 0.1482 0.37828 0.0
H423 H 0.50423 0.21174 0.40466 0.0
H424 H 0.54211 0.1179 0.34154 0.0
H425 H 0.56081 0.1863 0.3569 0.0
H426 H 0.37289 0.05819 0.38318 0.0
H427 H 0.42568 0.09462 0.42799 0.0
H428 H 0.5051 0.18585 0.29185 0.0
H429 H 0.48044 0.11627 0.30635 0.0
H430 H 0.52887 0.18322 0.26426 0.0
H431 H 0.50461 0.1149 0.27864 0.0
H432 H 0.44642 0.15916 0.30238 0.0
H433 H 0.38539 0.11563 0.3353 0.0
H434 H 0.42446 0.16798 0.27759 0.0
H435 H 0.36446 0.1253 0.30987 0.0
H436 H 0.39666 0.05586 0.28002 0.0
H437 H 0.43432 0.11548 0.24267 0.0
H438 H 0.50819 0.23844 0.33567 0.0
H439 H 0.43852 0.21561 0.3493 0.0
Li440 Li 0.90038 0.34519 0.35235 0.0
Li441 Li 0.8844 0.36295 0.33304 0.0
Li442 Li 0.86491 0.32288 0.33545 0.0
Li443 Li 0.89953 0.34342 0.31483 0.0
C444 C 0.8625 0.33309 0.37604 0.0
N445 N 0.84306 0.30949 0.41201 0.0
C446 C 0.85135 0.34022 0.38945 0.0
C447 C 0.86373 0.31392 0.38091 0.0
C448 C 0.84165 0.32807 0.40756 0.0
C449 C 0.8538 0.30224 0.39917 0.0
C450 C 0.93033 0.38953 0.34279 0.0
C451 C 0.9674 0.42114 0.34833 0.0
N452 N 0.95935 0.4281 0.36421 0.0
C453 C 0.92243 0.39701 0.35915 0.0
C454 C 0.95299 0.40167 0.33731 0.0
C455 C 0.93736 0.41654 0.36979 0.0
C456 C 0.9317 0.33907 0.37555 0.0
N457 N 0.91761 0.34755 0.37601 0.0
C458 C 0.92901 0.36116 0.41042 0.0
C459 C 0.91589 0.35824 0.39303 0.0
C460 C 0.94397 0.35291 0.41033 0.0
C461 C 0.94507 0.34147 0.39274 0.0
H462 H 0.93273 0.33072 0.36173 0.0
H463 H 0.90448 0.36473 0.39304 0.0
C464 C 0.85911 0.38385 0.33849 0.0
N465 N 0.87926 0.38754 0.33144 0.0
C466 C 0.85355 0.40069 0.33707 0.0
C467 C 0.88978 0.42498 0.32148 0.0
C468 C 0.89455 0.40754 0.32298 0.0
C469 C 0.86898 0.42155 0.32847 0.0
H470 H 0.84728 0.36769 0.345 0.0
H471 H 0.91031 0.40986 0.3172 0.0
C472 C 0.88737 0.29936 0.32438 0.0
N473 N 0.87973 0.2616 0.30255 0.0
C474 C 0.87381 0.29276 0.30669 0.0
C475 C 0.89705 0.28676 0.33095 0.0
C476 C 0.87016 0.27362 0.29587 0.0
C477 C 0.89296 0.26771 0.31971 0.0
C478 C 0.86423 0.35266 0.29701 0.0
C479 C 0.84203 0.34802 0.29607 0.0
C480 C 0.88062 0.36995 0.28491 0.0
C481 C 0.83663 0.36093 0.28316 0.0
C482 C 0.87453 0.38246 0.27218 0.0
N483 N 0.85285 0.37775 0.2716 0.0
C484 C 0.81972 0.30356 0.34116 0.0
C485 C 0.83049 0.2758 0.33941 0.0
C486 C 0.79752 0.28725 0.34481 0.0
N487 N 0.83564 0.29764 0.33843 0.0
C488 C 0.80831 0.25881 0.34264 0.0
C489 C 0.79164 0.26458 0.34555 0.0
H490 H 0.82444 0.3211 0.34088 0.0
H491 H 0.8435 0.27149 0.3381 0.0
C492 C 0.93694 0.34973 0.29181 0.0
N493 N 0.91468 0.34273 0.29084 0.0
C494 C 0.94819 0.34864 0.27421 0.0
C495 C 0.91333 0.33336 0.2551 0.0
C496 C 0.90284 0.33485 0.27298 0.0
C497 C 0.93624 0.34011 0.25564 0.0
H498 H 0.94584 0.35587 0.30631 0.0
H499 H 0.88516 0.32949 0.27268 0.0
O500 O 0.87183 0.34478 0.35816 0.0
O501 O 0.91615 0.37034 0.33219 0.0
O502 O 0.89169 0.31833 0.33503 0.0
O503 O 0.87001 0.34068 0.31002 0.0
H504 H 0.8502 0.35498 0.38586 0.0
H505 H 0.8722 0.30806 0.37075 0.0
H506 H 0.83297 0.3334 0.41808 0.0
H507 H 0.85463 0.28738 0.40312 0.0
H508 H 0.98498 0.43069 0.34427 0.0
H509 H 0.90498 0.38783 0.36367 0.0
H510 H 0.95937 0.39609 0.32469 0.0
H511 H 0.93147 0.4225 0.38251 0.0
H512 H 0.92748 0.36981 0.42382 0.0
H513 H 0.95654 0.33501 0.39209 0.0
H514 H 0.83742 0.3975 0.3428 0.0
H515 H 0.90199 0.44078 0.31458 0.0
H516 H 0.86599 0.30213 0.30145 0.0
H517 H 0.90764 0.29169 0.34457 0.0
H518 H 0.85967 0.26831 0.28218 0.0
H519 H 0.90035 0.2578 0.32463 0.0
H520 H 0.82913 0.33468 0.30528 0.0
H521 H 0.89793 0.37394 0.28563 0.0
H522 H 0.81954 0.3576 0.28236 0.0
H523 H 0.88707 0.396 0.26286 0.0
H524 H 0.78503 0.29227 0.34692 0.0
H525 H 0.80431 0.24147 0.34337 0.0
H526 H 0.96583 0.35383 0.27524 0.0
H527 H 0.90363 0.32694 0.241 0.0
Li528 Li 0.34363 0.90603 0.68458 0.0
Li529 Li 0.32219 0.86877 0.66917 0.0
Li530 Li 0.36436 0.89025 0.66967 0.0
Li531 Li 0.34365 0.90138 0.64631 0.0
C532 C 0.34049 0.87834 0.7142 0.0
N533 N 0.3351 0.88003 0.7565 0.0
C534 C 0.31977 0.86406 0.72343 0.0
C535 C 0.35855 0.89329 0.72652 0.0
C536 C 0.31737 0.8652 0.74484 0.0
C537 C 0.35546 0.89396 0.74786 0.0
C538 C 0.29711 0.88997 0.6585 0.0
C539 C 0.26859 0.87721 0.632 0.0
N540 N 0.25484 0.87991 0.64538 0.0
C541 C 0.28281 0.89292 0.67188 0.0
C542 C 0.29003 0.88231 0.63831 0.0
C543 C 0.26147 0.88762 0.665 0.0
C544 C 0.3612 0.94545 0.70895 0.0
N545 N 0.34316 0.92469 0.70589 0.0
C546 C 0.32377 0.92958 0.73423 0.0
C547 C 0.32461 0.91664 0.71803 0.0
C548 C 0.34222 0.95103 0.73792 0.0
C549 C 0.36114 0.95897 0.72507 0.0
H550 H 0.37565 0.95149 0.69892 0.0
H551 H 0.31061 0.89998 0.71534 0.0
C552 C 0.2993 0.82235 0.665 0.0
N553 N 0.2965 0.83971 0.67101 0.0
C554 C 0.28116 0.80052 0.66491 0.0
C555 C 0.25771 0.81461 0.67821 0.0
C556 C 0.27633 0.83627 0.67787 0.0
C557 C 0.25999 0.79646 0.67139 0.0
H558 H 0.31565 0.82554 0.66005 0.0
H559 H 0.27467 0.85027 0.68312 0.0
C560 C 0.39174 0.93326 0.66241 0.0
N561 N 0.43771 0.9575 0.65714 0.0
C562 C 0.40087 0.94048 0.64265 0.0
C563 C 0.40598 0.93856 0.67952 0.0
C564 C 0.42416 0.95268 0.64031 0.0
C565 C 0.42917 0.95075 0.67652 0.0
C566 C 0.33947 0.8614 0.62822 0.0
C567 C 0.35679 0.86091 0.61733 0.0
C568 C 0.31765 0.84988 0.62029 0.0
C569 C 0.3521 0.84942 0.59848 0.0
C570 C 0.31362 0.83856 0.6014 0.0
N571 N 0.3308 0.8386 0.59095 0.0
C572 C 0.39328 0.87901 0.69051 0.0
C573 C 0.40496 0.89275 0.65643 0.0
C574 C 0.41159 0.87578 0.693 0.0
N575 N 0.39025 0.88722 0.67241 0.0
C576 C 0.42343 0.88964 0.65818 0.0
C577 C 0.4268 0.88079 0.67659 0.0
H578 H 0.3813 0.87466 0.70295 0.0
H579 H 0.40221 0.89933 0.64222 0.0
C580 C 0.33542 0.92922 0.62129 0.0
N581 N 0.34338 0.9147 0.6207 0.0
C582 C 0.33439 0.93978 0.60323 0.0
C583 C 0.35013 0.92053 0.58431 0.0
C584 C 0.35086 0.91034 0.60277 0.0
C585 C 0.3418 0.93547 0.58442 0.0
H586 H 0.3298 0.93253 0.63584 0.0
H587 H 0.35771 0.89927 0.60278 0.0
O588 O 0.34305 0.87774 0.69321 0.0
O589 O 0.3181 0.89512 0.66504 0.0
O590 O 0.36898 0.92109 0.66498 0.0
O591 O 0.34382 0.87256 0.64677 0.0
H592 H 0.30565 0.85234 0.71415 0.0
H593 H 0.3747 0.90447 0.71963 0.0
H594 H 0.30139 0.85434 0.75217 0.0
H595 H 0.36922 0.90559 0.75754 0.0
H596 H 0.26292 0.87123 0.61642 0.0
H597 H 0.28804 0.89916 0.68744 0.0
H598 H 0.30105 0.88064 0.62748 0.0
H599 H 0.25019 0.88968 0.67526 0.0
H600 H 0.30902 0.9227 0.74403 0.0
H601 H 0.37562 0.97549 0.72736 0.0
H602 H 0.28373 0.78691 0.65998 0.0
H603 H 0.24167 0.81213 0.68343 0.0
H604 H 0.39011 0.9366 0.62926 0.0
H605 H 0.3992 0.93308 0.69491 0.0
H606 H 0.43146 0.95829 0.6251 0.0
H607 H 0.44039 0.95482 0.6896 0.0
H608 H 0.3737 0.86939 0.6233 0.0
H609 H 0.30385 0.84933 0.62874 0.0
H610 H 0.3654 0.84908 0.58985 0.0
H611 H 0.29681 0.82963 0.59511 0.0
H612 H 0.41367 0.86922 0.70758 0.0
H613 H 0.43452 0.89347 0.645 0.0
H614 H 0.32775 0.9511 0.60397 0.0
H615 H 0.35648 0.91715 0.57022 0.0
Li616 Li 0.12515 0.45845 0.68501 0.0
Li617 Li 0.16012 0.47516 0.6654 0.0
Li618 Li 0.1371 0.49308 0.66748 0.0
Li619 Li 0.12501 0.45892 0.64735 0.0
C620 C 0.15596 0.48655 0.71079 0.0
N621 N 0.16074 0.48247 0.75284 0.0
C622 C 0.17245 0.48207 0.71805 0.0
C623 C 0.14201 0.48913 0.72493 0.0
C624 C 0.17458 0.48005 0.73937 0.0
C625 C 0.14464 0.48693 0.74612 0.0
C626 C 0.12733 0.42302 0.65704 0.0
C627 C 0.12713 0.39886 0.62983 0.0
N628 N 0.1083 0.38144 0.63813 0.0
C629 C 0.10803 0.40487 0.66536 0.0
C630 C 0.13705 0.41999 0.63919 0.0
C631 C 0.09865 0.38398 0.65556 0.0
C632 C 0.08997 0.43695 0.71425 0.0
N633 N 0.11055 0.44078 0.70843 0.0
C634 C 0.11125 0.41827 0.73617 0.0
C635 C 0.12119 0.43163 0.71882 0.0
C636 C 0.08995 0.41394 0.74264 0.0
C637 C 0.07928 0.42349 0.73145 0.0
H638 H 0.08177 0.44414 0.70543 0.0
H639 H 0.13744 0.43479 0.7136 0.0
C640 C 0.20731 0.50129 0.66546 0.0
N641 N 0.18972 0.47994 0.66485 0.0
C642 C 0.22922 0.50525 0.66435 0.0
C643 C 0.21453 0.46512 0.66342 0.0
C644 C 0.19287 0.46195 0.6641 0.0
C645 C 0.23295 0.48701 0.66327 0.0
H646 H 0.2043 0.51523 0.6667 0.0
H647 H 0.17856 0.44514 0.66407 0.0
C648 C 0.09365 0.47502 0.66457 0.0
N649 N 0.06837 0.4957 0.6597 0.0
C650 C 0.08531 0.47586 0.64504 0.0
C651 C 0.08904 0.48457 0.68164 0.0
C652 C 0.07256 0.4864 0.6429 0.0
C653 C 0.07627 0.49501 0.67885 0.0
C654 C 0.17072 0.50092 0.63186 0.0
C655 C 0.18271 0.5243 0.63371 0.0
C656 C 0.17914 0.49017 0.61942 0.0
C657 C 0.20305 0.53654 0.62316 0.0
C658 C 0.19956 0.503 0.60918 0.0
N659 N 0.21099 0.52572 0.61124 0.0
C660 C 0.14416 0.53333 0.68587 0.0
C661 C 0.13279 0.52857 0.65066 0.0
C662 C 0.14568 0.5543 0.68646 0.0
N663 N 0.1379 0.52103 0.66814 0.0
C664 C 0.1341 0.54949 0.65053 0.0
C665 C 0.14084 0.56273 0.66856 0.0
H666 H 0.14843 0.52706 0.69944 0.0
H667 H 0.12803 0.51846 0.63673 0.0
C668 C 0.08859 0.42443 0.62584 0.0
N669 N 0.10913 0.443 0.62351 0.0
C670 C 0.07602 0.41296 0.60846 0.0
C671 C 0.1059 0.44015 0.58669 0.0
C672 C 0.11797 0.45095 0.60448 0.0
C673 C 0.08457 0.42103 0.5886 0.0
H674 H 0.08181 0.41884 0.64121 0.0
H675 H 0.13416 0.46598 0.6031 0.0
O676 O 0.15337 0.48823 0.68996 0.0
O677 O 0.13658 0.44369 0.6662 0.0
O678 O 0.10654 0.46516 0.66691 0.0
O679 O 0.15088 0.48862 0.64222 0.0
H680 H 0.18338 0.48 0.70735 0.0
H681 H 0.12902 0.4924 0.71958 0.0
H682 H 0.18721 0.47649 0.7452 0.0
H683 H 0.13383 0.48869 0.75722 0.0
H684 H 0.13439 0.39631 0.61594 0.0
H685 H 0.10023 0.40691 0.67911 0.0
H686 H 0.15196 0.43388 0.63254 0.0
H687 H 0.08365 0.36981 0.66177 0.0
H688 H 0.12025 0.41156 0.74449 0.0
H689 H 0.06273 0.42032 0.73571 0.0
H690 H 0.24311 0.52235 0.66461 0.0
H691 H 0.21689 0.4507 0.66272 0.0
H692 H 0.08881 0.46865 0.63164 0.0
H693 H 0.09553 0.48424 0.69683 0.0
H694 H 0.06607 0.48726 0.62787 0.0
H695 H 0.07271 0.50263 0.69189 0.0
H696 H 0.17653 0.53291 0.64333 0.0
H697 H 0.17014 0.47208 0.61791 0.0
H698 H 0.21255 0.55463 0.62452 0.0
H699 H 0.20636 0.49488 0.59963 0.0
H700 H 0.15137 0.56415 0.70056 0.0
H701 H 0.13014 0.55533 0.63644 0.0
H702 H 0.05945 0.3985 0.61053 0.0
H703 H 0.11301 0.44684 0.5716 0.0
Li704 Li 0.55645 0.70267 0.66662 0.0
Li705 Li 0.5706 0.68178 0.68601 0.0
Li706 Li 0.57202 0.68353 0.64701 0.0
Li707 Li 0.53678 0.66027 0.66544 0.0
C708 C 0.60104 0.73102 0.66892 0.0
N709 N 0.62754 0.77716 0.67181 0.0
C710 C 0.60925 0.74119 0.68816 0.0
C711 C 0.60669 0.74431 0.6511 0.0
C712 C 0.62252 0.76454 0.68932 0.0
C713 C 0.62 0.76761 0.65289 0.0
C714 C 0.53592 0.67818 0.71001 0.0
C715 C 0.5266 0.65675 0.74173 0.0
N716 N 0.52562 0.6736 0.75182 0.0
C717 C 0.5345 0.69514 0.72065 0.0
C718 C 0.53166 0.65871 0.72059 0.0
C719 C 0.52938 0.69256 0.74179 0.0
C720 C 0.54108 0.73073 0.65091 0.0
N721 N 0.55243 0.72816 0.6669 0.0
C722 C 0.55618 0.76093 0.68357 0.0
C723 C 0.56018 0.74294 0.68297 0.0
C724 C 0.54422 0.76386 0.66735 0.0
C725 C 0.53703 0.74865 0.65068 0.0
H726 H 0.53479 0.71866 0.63846 0.0
H727 H 0.56897 0.74043 0.69563 0.0
C728 C 0.59595 0.66839 0.70984 0.0
N729 N 0.58594 0.68112 0.71019 0.0
C730 C 0.60726 0.66716 0.72729 0.0
C731 C 0.59808 0.69252 0.74499 0.0
C732 C 0.58694 0.69322 0.72722 0.0
C733 C 0.60839 0.67932 0.74519 0.0
H734 H 0.59519 0.6592 0.69598 0.0
H735 H 0.57929 0.70362 0.72697 0.0
C736 C 0.54018 0.6835 0.62167 0.0
N737 N 0.53549 0.68641 0.57938 0.0
C738 C 0.52286 0.66555 0.61091 0.0
C739 C 0.55483 0.70309 0.61093 0.0
C740 C 0.52084 0.6673 0.58954 0.0
C741 C 0.55228 0.7042 0.58956 0.0
C742 C 0.55696 0.63504 0.66513 0.0
C743 C 0.55635 0.62455 0.64638 0.0
C744 C 0.5504 0.6224 0.68338 0.0
C745 C 0.54863 0.60151 0.64612 0.0
C746 C 0.54279 0.5994 0.6825 0.0
N747 N 0.54203 0.5895 0.66403 0.0
C748 C 0.6117 0.70022 0.62358 0.0
C749 C 0.5792 0.67179 0.60684 0.0
C750 C 0.62493 0.70193 0.6065 0.0
N751 N 0.58928 0.68539 0.62338 0.0
C752 C 0.59174 0.67292 0.58947 0.0
C753 C 0.61493 0.68815 0.58914 0.0
H754 H 0.61933 0.71065 0.63705 0.0
H755 H 0.56142 0.65987 0.60719 0.0
C756 C 0.49342 0.62956 0.67974 0.0
N757 N 0.50854 0.63321 0.66452 0.0
C758 C 0.47237 0.61024 0.67955 0.0
C759 C 0.48245 0.59897 0.64768 0.0
C760 C 0.50353 0.61834 0.64872 0.0
C761 C 0.46664 0.59482 0.66327 0.0
H762 H 0.49747 0.64187 0.69179 0.0
H763 H 0.5157 0.62177 0.63663 0.0
O764 O 0.58782 0.70816 0.66752 0.0
O765 O 0.54117 0.68054 0.68932 0.0
O766 O 0.54257 0.68198 0.6426 0.0
O767 O 0.56431 0.65759 0.66564 0.0
H768 H 0.60529 0.73123 0.70208 0.0
H769 H 0.60103 0.73676 0.63603 0.0
H770 H 0.62881 0.77263 0.70415 0.0
H771 H 0.62439 0.77808 0.63922 0.0
H772 H 0.52341 0.64181 0.7501 0.0
H773 H 0.53718 0.71008 0.71269 0.0
H774 H 0.53215 0.64522 0.71256 0.0
H775 H 0.52834 0.70561 0.75021 0.0
H776 H 0.56177 0.77196 0.69691 0.0
H777 H 0.52813 0.75038 0.63763 0.0
H778 H 0.61494 0.65674 0.72681 0.0
H779 H 0.59899 0.70259 0.75826 0.0
H780 H 0.51102 0.65046 0.61896 0.0
H781 H 0.56803 0.71728 0.61902 0.0
H782 H 0.50757 0.65348 0.58103 0.0
H783 H 0.56362 0.71922 0.58107 0.0
H784 H 0.56161 0.63402 0.63214 0.0
H785 H 0.55138 0.63025 0.69813 0.0
H786 H 0.5479 0.59318 0.63166 0.0
H787 H 0.53757 0.58944 0.69652 0.0
H788 H 0.64274 0.71393 0.60685 0.0
H789 H 0.58342 0.66163 0.57662 0.0
H790 H 0.46036 0.60782 0.69157 0.0
H791 H 0.47846 0.58748 0.63479 0.0
H792 H 0.17714 0.0901 0.98097 0.0
H793 H 0.16548 0.1181 0.98245 0.0
H794 H 0.22543 0.16265 0.01654 0.0
H795 H 0.23751 0.13463 0.01486 0.0
H796 H 0.18848 0.15922 0.03454 0.0
H797 H 0.22037 0.17596 0.96749 0.0
H798 H 0.22835 0.16834 0.93209 0.0
H799 H 0.15881 0.13956 0.91605 0.0
H800 H 0.15032 0.14668 0.95145 0.0
H801 H 0.1339 0.22818 0.99012 0.0
H802 H 0.16374 0.21858 0.98975 0.0
H803 H 0.12233 0.15962 0.02645 0.0
H804 H 0.09271 0.16931 0.02717 0.0
H805 H 0.16133 0.18186 0.97293 0.0
H806 H 0.15405 0.14766 0.05724 0.0
H807 H 0.14788 0.15718 0.09258 0.0
H808 H 0.17262 0.22552 0.07399 0.0
H809 H 0.17927 0.21652 0.03863 0.0
C810 C 0.18816 0.10602 0.98838 0.0
C811 C 0.20836 0.11018 -0.00234 0.0
C812 C 0.18143 0.12202 0.98925 0.0
C813 C 0.19475 0.14258 -0.00066 0.0
C814 C 0.21498 0.14691 0.00859 0.0
C815 C 0.22178 0.13086 0.0077 0.0
C816 C 0.18654 0.15871 0.0012 0.0
C817 C 0.18279 0.16444 0.02108 0.0
C818 C 0.17972 0.16604 0.98359 0.0
C819 C 0.18471 0.16181 0.96219 0.0
C820 C 0.20675 0.16788 0.95646 0.0
C821 C 0.21137 0.16367 0.93638 0.0
C822 C 0.1941 0.15346 0.92183 0.0
C823 C 0.17217 0.14748 0.92733 0.0
C824 C 0.16746 0.15164 0.9474 0.0
C825 C 0.13137 0.21341 -0.00157 0.0
C826 C 0.11097 0.19942 0.0086 0.0
C827 C 0.14837 0.20791 -0.00187 0.0
C828 C 0.14532 0.18852 0.00822 0.0
C829 C 0.12518 0.17486 0.01883 0.0
C830 C 0.10818 0.18026 0.01904 0.0
C831 C 0.16219 0.18127 0.0063 0.0
C832 C 0.16752 0.17717 0.98639 0.0
C833 C 0.17076 0.17576 0.02388 0.0
C834 C 0.16705 0.18136 0.04522 0.0
C835 C 0.15832 0.16475 0.06071 0.0
C836 C 0.1547 0.17005 0.08075 0.0
C837 C 0.15982 0.19193 0.08552 0.0
C838 C 0.16861 0.20856 0.07027 0.0
C839 C 0.17227 0.20336 0.05021 0.0
H840 H 0.15699 0.19599 0.10103 0.0
H841 H 0.19771 0.1502 0.9063 0.0
H842 H 0.80614 0.91949 0.96152 0.0
H843 H 0.81965 0.95953 0.95858 0.0
H844 H 0.81839 0.96468 0.02517 0.0
H845 H 0.80329 0.9243 0.02822 0.0
H846 H 0.80896 0.99376 0.00818 0.0
H847 H 0.86605 0.97357 -0.00111 0.0
H848 H 0.88339 0.95336 0.98285 0.0
H849 H 0.88456 0.98288 0.92387 0.0
H850 H 0.86692 0.00302 0.93953 0.0
H851 H 0.90586 0.10074 0.02743 0.0
H852 H 0.87642 0.0615 0.02491 0.0
H853 H 0.87393 0.06809 0.95865 0.0
H854 H 0.90276 0.10769 0.96103 0.0
H855 H 0.88222 0.03377 0.97182 0.0
H856 H 0.8301 0.05908 0.9847 0.0
H857 H 0.81472 0.0798 0.00314 0.0
H858 H 0.80678 0.04159 0.05829 0.0
H859 H 0.82244 0.02085 0.04028 0.0
C860 C 0.80797 0.92891 0.97554 0.0
C861 C 0.80399 0.91865 0.99516 0.0
C862 C 0.81596 0.95192 0.97383 0.0
C863 C 0.82065 0.96522 0.99168 0.0
C864 C 0.81513 0.9548 0.01118 0.0
C865 C 0.80678 0.93173 0.0129 0.0
C866 C 0.83335 0.99007 0.99025 0.0
C867 C 0.82501 0.00252 0.00028 0.0
C868 C 0.85418 0.00153 0.97974 0.0
C869 C 0.86493 0.98957 0.97032 0.0
C870 C 0.86987 0.97562 0.98247 0.0
C871 C 0.87976 0.9642 0.97346 0.0
C872 C 0.88501 0.96678 0.95234 0.0
C873 C 0.88044 0.98085 0.94022 0.0
C874 C 0.8705 0.99228 0.94915 0.0
C875 C 0.89862 0.09413 0.01237 0.0
C876 C 0.90688 0.10741 0.9944 0.0
C877 C 0.88181 0.07163 0.01097 0.0
C878 C 0.87303 0.06196 0.9916 0.0
C879 C 0.88056 0.0753 0.97373 0.0
C880 C 0.89717 0.09787 0.97513 0.0
C881 C 0.85793 0.03743 0.98986 0.0
C882 C 0.86594 0.02503 0.97934 0.0
C883 C 0.83709 0.02611 0.00027 0.0
C884 C 0.82762 0.03852 0.01116 0.0
C885 C 0.82526 0.05522 0.00081 0.0
C886 C 0.81645 0.06695 0.01118 0.0
C887 C 0.80981 0.06205 0.03188 0.0
C888 C 0.81194 0.04537 0.04225 0.0
C889 C 0.82075 0.03361 0.03196 0.0
H890 H 0.80299 0.07114 0.03988 0.0
H891 H 0.89267 0.95792 0.94539 0.0
H892 H 0.91238 0.80303 0.00952 0.0
H893 H 0.95216 0.81411 0.00758 0.0
H894 H 0.96476 0.87041 0.96892 0.0
H895 H 0.92504 0.8592 0.97045 0.0
H896 H 0.98746 0.84932 0.95542 0.0
H897 H 0.97435 0.87732 0.02015 0.0
H898 H 0.95611 0.8731 0.05407 0.0
H899 H 0.97989 0.82929 0.07452 0.0
H900 H -0.00197 0.83303 0.04057 0.0
H901 H 0.09756 0.93651 0.96931 0.0
H902 H 0.05726 0.91071 0.9674 0.0
H903 H 0.06383 0.86497 0.00866 0.0
H904 H 0.10435 0.89115 0.01104 0.0
H905 H 0.031 0.87264 0.02097 0.0
H906 H 0.05032 0.85071 0.95823 0.0
H907 H 0.06898 0.85556 0.92447 0.0
H908 H 0.03406 0.88764 0.90009 0.0
H909 H 0.01543 0.8833 0.9338 0.0
C910 C 0.9236 0.81757 0.00036 0.0
C911 C 0.91568 0.83039 0.99028 0.0
C912 C 0.94629 0.82392 -0.00065 0.0
C913 C 0.96139 0.84317 0.98825 0.0
C914 C 0.95336 0.8555 0.97758 0.0
C915 C 0.93074 0.84922 0.97863 0.0
C916 C 0.98578 0.85142 0.98861 0.0
C917 C -0.00296 0.85446 0.96972 0.0
C918 C -0.0019 0.85738 0.00735 0.0
C919 C 0.98728 0.85522 0.02776 0.0
C920 C 0.97552 0.86664 0.03182 0.0
C921 C 0.96524 0.86437 0.05106 0.0
C922 C 0.96677 0.85088 0.06642 0.0
C923 C 0.97867 0.83969 0.06259 0.0
C924 C 0.98895 0.84188 0.04336 0.0
C925 C 0.09045 0.92093 0.97793 0.0
C926 C 0.10406 0.91591 0.99045 0.0
C927 C 0.06745 0.90607 0.97663 0.0
C928 C 0.05758 0.88579 0.9877 0.0
C929 C 0.07116 0.88047 -0.0001 0.0
C930 C 0.09428 0.89536 0.00117 0.0
C931 C 0.03286 0.87124 0.98768 0.0
C932 C 0.02148 0.867 0.00666 0.0
C933 C 0.02045 0.86416 0.969 0.0
C934 C 0.03154 0.86676 0.94862 0.0
C935 C 0.04672 0.85894 0.94572 0.0
C936 C 0.05729 0.86158 0.92658 0.0
C937 C 0.05273 0.87192 0.91015 0.0
C938 C 0.03757 0.87962 0.91283 0.0
C939 C 0.02697 0.87704 0.93195 0.0
H940 H 0.06092 0.87395 0.89534 0.0
H941 H 0.9588 0.84914 0.0813 0.0
H942 H 0.83019 0.41786 0.31393 0.0
H943 H 0.81939 0.44672 0.31369 0.0
H944 H 0.88389 0.49464 0.33906 0.0
H945 H 0.89475 0.46565 0.33949 0.0
H946 H 0.84902 0.49331 0.36059 0.0
H947 H 0.87289 0.50184 0.29064 0.0
H948 H 0.87602 0.48969 0.25544 0.0
H949 H 0.80516 0.46154 0.24643 0.0
H950 H 0.80153 0.47321 0.2817 0.0
H951 H 0.79659 0.56465 0.31974 0.0
H952 H 0.82402 0.55203 0.31659 0.0
H953 H 0.78257 0.49477 0.35509 0.0
H954 H 0.75476 0.50661 0.35768 0.0
H955 H 0.81639 0.51123 0.29996 0.0
H956 H 0.81662 0.48472 0.38566 0.0
H957 H 0.81438 0.49773 0.42074 0.0
H958 H 0.84014 0.56477 0.39777 0.0
H959 H 0.84286 0.55226 0.36261 0.0
C960 C 0.84211 0.43459 0.31935 0.0
C961 C 0.86324 0.43953 0.32684 0.0
C962 C 0.83601 0.4511 0.31902 0.0
C963 C 0.85092 0.47284 0.3262 0.0
C964 C 0.87221 0.47797 0.33336 0.0
C965 C 0.87841 0.46147 0.33352 0.0
C966 C 0.84338 0.48951 0.32762 0.0
C967 C 0.84214 0.49749 0.34731 0.0
C968 C 0.83486 0.4953 0.31019 0.0
C969 C 0.83694 0.48834 0.28888 0.0
C970 C 0.85795 0.49293 0.28121 0.0
C971 C 0.85981 0.48614 0.26123 0.0
C972 C 0.8408 0.47483 0.24871 0.0
C973 C 0.81988 0.47032 0.25614 0.0
C974 C 0.81792 0.47705 0.27612 0.0
C975 C 0.79326 0.54933 0.32749 0.0
C976 C 0.7734 0.53666 0.33897 0.0
C977 C 0.80902 0.54225 0.32576 0.0
C978 C 0.80538 0.52262 0.33577 0.0
C979 C 0.78586 0.5102 0.34755 0.0
C980 C 0.77001 0.51709 0.34909 0.0
C981 C 0.82112 0.51409 0.33306 0.0
C982 C 0.82379 0.50754 0.31315 0.0
C983 C 0.83112 0.50978 0.35026 0.0
C984 C 0.82982 0.5175 0.37145 0.0
C985 C 0.82194 0.50227 0.38811 0.0
C986 C 0.82056 0.50955 0.40801 0.0
C987 C 0.82707 0.53205 0.41148 0.0
C988 C 0.83503 0.54733 0.39505 0.0
C989 C 0.83647 0.54015 0.37513 0.0
H990 H 0.82597 0.53765 0.42689 0.0
H991 H 0.84228 0.46958 0.23325 0.0
H992 H 0.45221 0.25151 0.32831 0.0
H993 H 0.46372 0.29136 0.33226 0.0
H994 H 0.52047 0.3016 0.36898 0.0
H995 H 0.50889 0.26194 0.3654 0.0
H996 H 0.50053 0.32445 0.3847 0.0
H997 H 0.52604 0.31253 0.31766 0.0
H998 H 0.52002 0.2954 0.28293 0.0
H999 H 0.47749 0.32213 0.2667 0.0
H1000 H 0.48306 0.33919 0.30145 0.0
H1001 H 0.59305 0.43139 0.37295 0.0
H1002 H 0.5643 0.39187 0.37417 0.0
H1003 H 0.52164 0.40516 0.33473 0.0
H1004 H 0.55082 0.44486 0.33295 0.0
H1005 H 0.52482 0.3705 0.32063 0.0
H1006 H 0.50703 0.38997 0.38533 0.0
H1007 H 0.51394 0.40761 0.41985 0.0
H1008 H 0.54164 0.36734 0.44082 0.0
H1009 H 0.53523 0.34967 0.40634 0.0
C1010 C 0.46694 0.26224 0.33747 0.0
C1011 C 0.47985 0.25375 0.34633 0.0
C1012 C 0.47352 0.28496 0.33966 0.0
C1013 C 0.49304 0.29943 0.35077 0.0
C1014 C 0.50535 0.29072 0.36035 0.0
C1015 C 0.49886 0.26813 0.3581 0.0
C1016 C 0.50182 0.32394 0.35138 0.0
C1017 C 0.50582 0.33459 0.37073 0.0
C1018 C 0.50797 0.33703 0.33309 0.0
C1019 C 0.50472 0.32686 0.31221 0.0
C1020 C 0.51527 0.31459 0.30673 0.0
C1021 C 0.51196 0.30493 0.28704 0.0
C1022 C 0.49832 0.30761 0.27264 0.0
C1023 C 0.48801 0.32002 0.27788 0.0
C1024 C 0.49123 0.32969 0.29757 0.0
C1025 C 0.57751 0.42595 0.36461 0.0
C1026 C 0.57426 0.44118 0.35271 0.0
C1027 C 0.56095 0.40339 0.36554 0.0
C1028 C 0.54069 0.39559 0.35475 0.0
C1029 C 0.5371 0.41087 0.34328 0.0
C1030 C 0.55371 0.43353 0.34236 0.0
C1031 C 0.52438 0.37117 0.35405 0.0
C1032 C 0.51896 0.36048 0.33465 0.0
C1033 C 0.51691 0.35807 0.37232 0.0
C1034 C 0.52071 0.36854 0.39318 0.0
C1035 C 0.51473 0.38496 0.39726 0.0
C1036 C 0.51854 0.39496 0.41683 0.0
C1037 C 0.52823 0.38861 0.43251 0.0
C1038 C 0.53411 0.37222 0.42866 0.0
C1039 C 0.53035 0.36218 0.40911 0.0
H1040 H 0.53118 0.39638 0.44765 0.0
H1041 H 0.49578 0.30012 0.2574 0.0
H1042 H 0.57917 0.14121 0.32459 0.0
H1043 H 0.6195 0.15482 0.32649 0.0
H1044 H 0.62396 0.19155 0.38221 0.0
H1045 H 0.58373 0.17793 0.38049 0.0
H1046 H 0.65321 0.21792 0.35274 0.0
H1047 H 0.63071 0.14608 0.38385 0.0
H1048 H 0.61012 0.10474 0.38566 0.0
H1049 H 0.64277 0.10155 0.33008 0.0
H1050 H 0.66333 0.14289 0.32777 0.0
H1051 H 0.76514 0.26293 0.37737 0.0
H1052 H 0.72463 0.23808 0.38072 0.0
H1053 H 0.72438 0.20304 0.32511 0.0
H1054 H 0.76519 0.22761 0.32206 0.0
H1055 H 0.69304 0.1745 0.35358 0.0
H1056 H 0.71413 0.245 0.32122 0.0
H1057 H 0.73492 0.28626 0.3182 0.0
H1058 H 0.70419 0.29165 0.3742 0.0
H1059 H 0.6835 0.2504 0.37775 0.0
C1060 C 0.58867 0.15177 0.3375 0.0
C1061 C 0.57836 0.1587 0.35229 0.0
C1062 C 0.61169 0.15953 0.33856 0.0
C1063 C 0.62468 0.17419 0.35449 0.0
C1064 C 0.61423 0.18033 0.36974 0.0
C1065 C 0.59129 0.17262 0.36868 0.0
C1066 C 0.64943 0.18491 0.35427 0.0
C1067 C 0.66189 0.20841 0.35327 0.0
C1068 C 0.6607 0.17244 0.35412 0.0
C1069 C 0.64839 0.14759 0.35552 0.0
C1070 C 0.63335 0.13657 0.37191 0.0
C1071 C 0.62172 0.11313 0.37305 0.0
C1072 C 0.62509 0.10052 0.35797 0.0
C1073 C 0.64015 0.11133 0.34174 0.0
C1074 C 0.65182 0.13477 0.34052 0.0
C1075 C 0.75646 0.24962 0.36612 0.0
C1076 C 0.76807 0.24729 0.3493 0.0
C1077 C 0.73339 0.23545 0.36803 0.0
C1078 C 0.72148 0.21907 0.3529 0.0
C1079 C 0.73328 0.21564 0.3369 0.0
C1080 C 0.75651 0.22967 0.33514 0.0
C1081 C 0.69668 0.20745 0.35258 0.0
C1082 C 0.68426 0.18391 0.3532 0.0
C1083 C 0.68531 0.21982 0.35214 0.0
C1084 C 0.69742 0.24462 0.34985 0.0
C1085 C 0.71191 0.25499 0.33296 0.0
C1086 C 0.72367 0.27837 0.33115 0.0
C1087 C 0.72091 0.29157 0.34602 0.0
C1088 C 0.70633 0.28141 0.3627 0.0
C1089 C 0.69457 0.25802 0.36462 0.0
H1090 H 0.73004 0.30968 0.34459 0.0
H1091 H 0.61607 0.08238 0.35888 0.0
H1092 H 0.42534 0.84429 0.69495 0.0
H1093 H 0.45439 0.83401 0.69545 0.0
H1094 H 0.49879 0.89423 0.66163 0.0
H1095 H 0.46984 0.90503 0.66147 0.0
H1096 H 0.49574 0.85719 0.64389 0.0
H1097 H 0.51153 0.88961 0.71083 0.0
H1098 H 0.50332 0.89742 0.74607 0.0
H1099 H 0.47598 0.82807 0.76242 0.0
H1100 H 0.4837 0.81975 0.72718 0.0
H1101 H 0.56913 0.80678 0.683 0.0
H1102 H 0.55799 0.83544 0.68559 0.0
H1103 H 0.49506 0.79057 0.65594 0.0
H1104 H 0.50539 0.76162 0.65413 0.0
H1105 H 0.51915 0.83137 0.70592 0.0
H1106 H 0.48404 0.82178 0.62211 0.0
H1107 H 0.49306 0.81472 0.5869 0.0
H1108 H 0.56195 0.84146 0.60448 0.0
H1109 H 0.55344 0.84902 0.63969 0.0
C1110 C 0.44145 0.85571 0.68809 0.0
C1111 C 0.44523 0.87552 0.67819 0.0
C1112 C 0.45806 0.84977 0.68836 0.0
C1113 C 0.47883 0.86348 0.67877 0.0
C1114 C 0.48288 0.88347 0.66918 0.0
C1115 C 0.46627 0.88952 0.66899 0.0
C1116 C 0.49528 0.85566 0.67725 0.0
C1117 C 0.50115 0.85185 0.65745 0.0
C1118 C 0.50273 0.84915 0.695 0.0
C1119 C 0.49814 0.85405 0.7163 0.0
C1120 C 0.50364 0.87599 0.72189 0.0
C1121 C 0.49909 0.88051 0.74188 0.0
C1122 C 0.48912 0.86325 0.75647 0.0
C1123 C 0.48372 0.84143 0.75111 0.0
C1124 C 0.48822 0.83681 0.73113 0.0
C1125 C 0.55285 0.80294 0.67716 0.0
C1126 C 0.53823 0.78185 0.66824 0.0
C1127 C 0.54661 0.81939 0.67855 0.0
C1128 C 0.52586 0.81516 0.67071 0.0
C1129 C 0.51133 0.79428 0.66173 0.0
C1130 C 0.51738 0.77777 0.66059 0.0
C1131 C 0.51854 0.83195 0.67258 0.0
C1132 C 0.51429 0.83732 0.69241 0.0
C1133 C 0.51274 0.84008 0.65488 0.0
C1134 C 0.51805 0.83586 0.6336 0.0
C1135 C 0.50114 0.8263 0.61844 0.0
C1136 C 0.50617 0.82217 0.59848 0.0
C1137 C 0.52806 0.8276 0.59347 0.0
C1138 C 0.54499 0.83721 0.60839 0.0
C1139 C 0.54006 0.84138 0.62837 0.0
H1140 H 0.5319 0.82438 0.57801 0.0
H1141 H 0.48561 0.86678 0.77194 0.0
H1142 H 0.24781 0.7655 0.64054 0.0
H1143 H 0.21836 0.72615 0.64142 0.0
H1144 H 0.19867 0.7357 0.7024 0.0
H1145 H 0.22854 0.77517 0.70175 0.0
H1146 H 0.20557 0.70061 0.70126 0.0
H1147 H 0.16328 0.72446 0.66185 0.0
H1148 H 0.15564 0.74443 0.63418 0.0
H1149 H 0.16654 0.70587 0.58804 0.0
H1150 H 0.17458 0.68589 0.61541 0.0
H1151 H 0.12962 0.58364 0.69855 0.0
H1152 H 0.14065 0.62344 0.70013 0.0
H1153 H 0.17166 0.63389 0.63993 0.0
H1154 H 0.16074 0.59429 0.63825 0.0
H1155 H 0.15154 0.6591 0.64479 0.0
H1156 H 0.20196 0.64237 0.68376 0.0
H1157 H 0.21091 0.62285 0.71093 0.0
H1158 H 0.18547 0.64891 0.75752 0.0
H1159 H 0.17608 0.66834 0.73055 0.0
C1160 C 0.23709 0.75926 0.65407 0.0
C1161 C 0.24057 0.77332 0.67115 0.0
C1162 C 0.22009 0.73684 0.65446 0.0
C1163 C 0.20617 0.72805 0.67189 0.0
C1164 C 0.20914 0.74221 0.68874 0.0
C1165 C 0.22614 0.76473 0.68832 0.0
C1166 C 0.19026 0.70359 0.6732 0.0
C1167 C 0.19328 0.69158 0.68923 0.0
C1168 C 0.17453 0.6918 0.6573 0.0
C1169 C 0.16965 0.70373 0.64073 0.0
C1170 C 0.16421 0.72034 0.64581 0.0
C1171 C 0.15978 0.73165 0.63017 0.0
C1172 C 0.16062 0.72644 0.60937 0.0
C1173 C 0.16587 0.70988 0.60417 0.0
C1174 C 0.17034 0.69853 0.61974 0.0
C1175 C 0.13857 0.5944 0.68557 0.0
C1176 C 0.14454 0.5859 0.66838 0.0
C1177 C 0.14477 0.61708 0.68645 0.0
C1178 C 0.15722 0.63164 0.67027 0.0
C1179 C 0.16199 0.62291 0.65256 0.0
C1180 C 0.15573 0.60026 0.65163 0.0
C1181 C 0.16738 0.65626 0.67249 0.0
C1182 C 0.16334 0.66824 0.65712 0.0
C1183 C 0.18228 0.66808 0.68893 0.0
C1184 C 0.18806 0.65655 0.70514 0.0
C1185 C 0.19813 0.6438 0.69979 0.0
C1186 C 0.2033 0.63277 0.71514 0.0
C1187 C 0.19869 0.63458 0.73593 0.0
C1188 C 0.18897 0.64748 0.74141 0.0
C1189 C 0.18372 0.6585 0.72609 0.0
H1190 H 0.20271 0.62603 0.7478 0.0
H1191 H 0.15719 0.73522 0.59729 0.0
H1192 H 0.26517 0.5127 0.63536 0.0
H1193 H 0.30443 0.52174 0.63513 0.0
H1194 H 0.29211 0.47994 0.68895 0.0
H1195 H 0.2526 0.47045 0.68896 0.0
H1196 H 0.32848 0.52636 0.69192 0.0
H1197 H 0.30277 0.4618 0.64863 0.0
H1198 H 0.28233 0.43692 0.61931 0.0
H1199 H 0.32287 0.48947 0.57638 0.0
H1200 H 0.34334 0.5148 0.60546 0.0
H1201 H 0.44338 0.56318 0.69272 0.0
H1202 H 0.40323 0.53548 0.69248 0.0
H1203 H 0.39767 0.55682 0.6309 0.0
H1204 H 0.43793 0.58375 0.6308 0.0
H1205 H 0.36915 0.51388 0.63462 0.0
H1206 H 0.38882 0.57999 0.6756 0.0
H1207 H 0.40866 0.60749 0.70346 0.0
H1208 H 0.37861 0.55509 0.74898 0.0
H1209 H 0.35884 0.52722 0.72133 0.0
C1210 C 0.27083 0.50523 0.64695 0.0
C1211 C 0.25604 0.49097 0.66221 0.0
C1212 C 0.29313 0.51027 0.64673 0.0
C1213 C 0.30103 0.50137 0.66195 0.0
C1214 C 0.2862 0.4868 0.67701 0.0
C1215 C 0.26374 0.4814 0.67699 0.0
C1216 C 0.32524 0.50915 0.66314 0.0
C1217 C 0.33737 0.52318 0.67969 0.0
C1218 C 0.33672 0.50545 0.64683 0.0
C1219 C 0.32449 0.49026 0.62926 0.0
C1220 C 0.30721 0.46813 0.63295 0.0
C1221 C 0.29564 0.45393 0.61636 0.0
C1222 C 0.30127 0.46162 0.59599 0.0
C1223 C 0.31852 0.48353 0.59217 0.0
C1224 C 0.33013 0.49781 0.6087 0.0
C1225 C 0.4336 0.56151 0.67898 0.0
C1226 C 0.44356 0.57564 0.66185 0.0
C1227 C 0.41071 0.54577 0.67887 0.0
C1228 C 0.39734 0.54447 0.66188 0.0
C1229 C 0.40762 0.55754 0.6442 0.0
C1230 C 0.4306 0.57295 0.64415 0.0
C1231 C 0.37251 0.53146 0.66325 0.0
C1232 C 0.36026 0.5166 0.64714 0.0
C1233 C 0.36085 0.53475 0.67976 0.0
C1234 C 0.37259 0.5515 0.6964 0.0
C1235 C 0.38657 0.57432 0.69155 0.0
C1236 C 0.39779 0.58997 0.70729 0.0
C1237 C 0.39495 0.58303 0.72797 0.0
C1238 C 0.38083 0.56043 0.73295 0.0
C1239 C 0.36962 0.5447 0.71725 0.0
H1240 H 0.40365 0.59517 0.74014 0.0
H1241 H 0.2923 0.4506 0.58317 0.0
H1242 H 0.99418 0.27826 0.8986 0.0
H1243 H 0.00053 0.30186 0.86822 0.0
H1244 H 0.07118 0.33959 0.88257 0.0
H1245 H 0.06476 0.31722 0.9137 0.0
H1246 H 0.05876 0.36688 0.86919 0.0
H1247 H 0.04824 0.29539 0.84635 0.0
H1248 H 0.02787 0.25414 0.8429 0.0
H1249 H 0.9735 0.25633 0.81251 0.0
H1250 H 0.99346 0.29759 0.81602 0.0
H1251 H 0.08993 0.3756 0.75363 0.0
H1252 H 0.07478 0.35354 0.78509 0.0
H1253 H 0.04879 0.39638 0.80389 0.0
H1254 H 0.06508 0.4194 0.77293 0.0
H1255 H 0.03507 0.32905 0.80083 0.0
H1256 H 0.05194 0.40143 0.85663 0.0
H1257 H 0.07718 0.44235 0.85986 0.0
H1258 H 0.12721 0.43787 0.82375 0.0
H1259 H 0.1024 0.39691 0.82055 0.0
C1260 C 0.011 0.29187 0.89555 0.0
C1261 C 0.02901 0.29565 0.9085 0.0
C1262 C 0.01463 0.30519 0.87803 0.0
C1263 C 0.03639 0.32223 0.87292 0.0
C1264 C 0.05425 0.32648 0.88616 0.0
C1265 C 0.0506 0.31343 0.90381 0.0
C1266 C 0.04093 0.33508 0.85336 0.0
C1267 C 0.05341 0.35861 0.85425 0.0
C1268 C 0.03419 0.3243 0.83385 0.0
C1269 C 0.02221 0.29952 0.83167 0.0
C1270 C 0.03187 0.28705 0.83907 0.0
C1271 C 0.02042 0.26368 0.83708 0.0
C1272 C -0.00063 0.25262 0.82755 0.0
C1273 C 0.98978 0.26492 0.81993 0.0
C1274 C 0.00116 0.28829 0.82191 0.0
C1275 C 0.08118 0.38048 0.76453 0.0
C1276 C 0.07904 0.39948 0.76093 0.0
C1277 C 0.07226 0.36767 0.78239 0.0
C1278 C 0.06088 0.37346 0.79695 0.0
C1279 C 0.05781 0.39181 0.79299 0.0
C1280 C 0.06695 0.40482 0.77519 0.0
C1281 C 0.05326 0.36081 0.81665 0.0
C1282 C 0.04008 0.33733 0.81579 0.0
C1283 C 0.06005 0.37159 0.83615 0.0
C1284 C 0.07519 0.39617 0.83813 0.0
C1285 C 0.06835 0.40919 0.84942 0.0
C1286 C 0.08258 0.43238 0.85125 0.0
C1287 C 0.10375 0.44272 0.84194 0.0
C1288 C 0.11078 0.42986 0.83087 0.0
C1289 C 0.09663 0.40666 0.82903 0.0
H1290 H 0.11473 0.46067 0.84336 0.0
H1291 H 0.99053 0.23452 0.82602 0.0
H1292 H 0.6941 0.72563 0.9209 0.0
H1293 H 0.67228 0.70682 0.89004 0.0
H1294 H 0.73136 0.71243 0.86105 0.0
H1295 H 0.75331 0.73105 0.89206 0.0
H1296 H 0.71135 0.72936 0.83714 0.0
H1297 H 0.68837 0.66132 0.87389 0.0
H1298 H 0.67395 0.63518 0.90348 0.0
H1299 H 0.61154 0.63497 0.90054 0.0
H1300 H 0.62569 0.66138 0.87112 0.0
H1301 H 0.64874 0.68057 0.74644 0.0
H1302 H 0.67098 0.68371 0.77709 0.0
H1303 H 0.61915 0.68143 0.81639 0.0
H1304 H 0.59643 0.67741 0.78586 0.0
H1305 H 0.63797 0.65874 0.83361 0.0
H1306 H 0.66306 0.73113 0.80171 0.0
H1307 H 0.67713 0.75837 0.77292 0.0
H1308 H 0.73544 0.75121 0.76783 0.0
H1309 H 0.72153 0.72367 0.79643 0.0
C1310 C 0.70234 0.72234 0.9082 0.0
C1311 C 0.72547 0.72996 0.90887 0.0
C1312 C 0.68984 0.71157 0.89056 0.0
C1313 C 0.70019 0.70812 0.87332 0.0
C1314 C 0.72308 0.71495 0.87421 0.0
C1315 C 0.7356 0.72569 0.89187 0.0
C1316 C 0.68763 0.69965 0.85368 0.0
C1317 C 0.69558 0.71363 0.83622 0.0
C1318 C 0.66681 0.6794 0.85268 0.0
C1319 C 0.65817 0.66346 0.87036 0.0
C1320 C 0.67163 0.65584 0.87965 0.0
C1321 C 0.66349 0.64095 0.89638 0.0
C1322 C 0.64185 0.63345 0.90391 0.0
C1323 C 0.6283 0.6408 0.89469 0.0
C1324 C 0.63636 0.6557 0.87796 0.0
C1325 C 0.64184 0.6802 0.76162 0.0
C1326 C 0.62094 0.67902 0.76373 0.0
C1327 C 0.65463 0.68213 0.7791 0.0
C1328 C 0.64684 0.68314 0.79896 0.0
C1329 C 0.62549 0.68076 0.80118 0.0
C1330 C 0.61266 0.67873 0.78373 0.0
C1331 C 0.66159 0.68863 0.81728 0.0
C1332 C 0.654 0.67418 0.83446 0.0
C1333 C 0.68271 0.70855 0.81814 0.0
C1334 C 0.69113 0.72515 0.80101 0.0
C1335 C 0.67879 0.73524 0.79433 0.0
C1336 C 0.68675 0.75074 0.77807 0.0
C1337 C 0.70713 0.75646 0.7685 0.0
C1338 C 0.71963 0.74672 0.77522 0.0
C1339 C 0.71172 0.73117 0.79145 0.0
H1340 H 0.71327 0.76847 0.75592 0.0
H1341 H 0.63558 0.62192 0.91686 0.0
H1342 H 0.37532 0.97478 0.76626 0.0
H1343 H 0.37282 0.99407 0.79724 0.0
H1344 H 0.30545 0.97678 0.78023 0.0
H1345 H 0.30801 0.95795 0.7491 0.0
H1346 H 0.32912 0.01929 0.79645 0.0
H1347 H 0.31412 0.94397 0.81275 0.0
H1348 H 0.32373 0.91393 0.81426 0.0
H1349 H 0.38118 0.95573 0.85195 0.0
H1350 H 0.37206 0.98616 0.85038 0.0
H1351 H 0.2632 0.00154 0.88445 0.0
H1352 H 0.28186 0.0004 0.85271 0.0
H1353 H 0.34304 0.02117 0.88689 0.0
H1354 H 0.3242 0.0219 0.91895 0.0
H1355 H 0.33171 0.98462 0.86308 0.0
H1356 H 0.34085 0.05695 0.85265 0.0
H1357 H 0.32967 0.08583 0.85142 0.0
H1358 H 0.28229 0.04941 0.80314 0.0
H1359 H 0.29293 0.02011 0.80428 0.0
C1360 C 0.36017 0.97553 0.76893 0.0
C1361 C 0.34175 0.96467 0.75543 0.0
C1362 C 0.35874 0.98645 0.78664 0.0
C1363 C 0.33887 0.98662 0.79108 0.0
C1364 C 0.32093 0.97682 0.77706 0.0
C1365 C 0.32232 0.96588 0.75941 0.0
C1366 C 0.33578 0.99514 0.81113 0.0
C1367 C 0.32971 0.01179 0.81105 0.0
C1368 C 0.3372 0.98573 0.83018 0.0
C1369 C 0.34259 0.96742 0.83122 0.0
C1370 C 0.3289 0.94681 0.82121 0.0
C1371 C 0.33424 0.92971 0.8221 0.0
C1372 C 0.3531 0.93295 0.83313 0.0
C1373 C 0.36661 0.95327 0.84336 0.0
C1374 C 0.36137 0.97045 0.84248 0.0
C1375 C 0.28064 0.00592 0.8852 0.0
C1376 C 0.29222 0.01164 0.90416 0.0
C1377 C 0.29137 0.00554 0.86702 0.0
C1378 C 0.31391 0.01097 0.86742 0.0
C1379 C 0.32568 0.01708 0.88627 0.0
C1380 C 0.31494 0.01757 0.9045 0.0
C1381 C 0.32434 0.00833 0.84838 0.0
C1382 C 0.33175 0.99269 0.84861 0.0
C1383 C 0.32404 0.01861 0.82948 0.0
C1384 C 0.31764 0.03626 0.82862 0.0
C1385 C 0.32794 0.05501 0.84186 0.0
C1386 C 0.32171 0.07147 0.84116 0.0
C1387 C 0.30527 0.06945 0.82723 0.0
C1388 C 0.29504 0.05096 0.81392 0.0
C1389 C 0.3012 0.03444 0.81456 0.0
H1390 H 0.30046 0.08221 0.82672 0.0
H1391 H 0.3572 0.91969 0.83381 0.0
H1392 H 0.4299 0.08396 0.21999 0.0
H1393 H 0.40791 0.06669 0.18863 0.0
H1394 H 0.34686 0.03928 0.22443 0.0
H1395 H 0.36874 0.05631 0.25581 0.0
H1396 H 0.34415 0.0098 0.19541 0.0
H1397 H 0.36594 0.08813 0.19829 0.0
H1398 H 0.39273 0.12874 0.201 0.0
H1399 H 0.42577 0.12607 0.14548 0.0
H1400 H 0.39935 0.08535 0.14262 0.0
H1401 H 0.26472 0.00098 0.11996 0.0
H1402 H 0.28965 0.00902 0.14969 0.0
H1403 H 0.3464 0.033 0.10844 0.0
H1404 H 0.32168 0.02557 0.0787 0.0
H1405 H 0.35336 0.06262 0.13884 0.0
H1406 H 0.3279 0.98408 0.13429 0.0
H1407 H 0.29996 0.94376 0.13197 0.0
H1408 H 0.27239 0.94694 0.19075 0.0
H1409 H 0.29997 0.98737 0.1933 0.0
C1410 C 0.41179 0.0741 0.22116 0.0
C1411 C 0.40099 0.07162 0.24027 0.0
C1412 C 0.39927 0.06422 0.20328 0.0
C1413 C 0.37575 0.052 0.20419 0.0
C1414 C 0.365 0.04862 0.22341 0.0
C1415 C 0.37751 0.05835 0.24132 0.0
C1416 C 0.36225 0.04413 0.18497 0.0
C1417 C 0.34604 0.02133 0.18306 0.0
C1418 C 0.36503 0.05916 0.16876 0.0
C1419 C 0.38083 0.08366 0.17038 0.0
C1420 C 0.37902 0.09618 0.18675 0.0
C1421 C 0.39413 0.11922 0.1883 0.0
C1422 C 0.41099 0.12997 0.17346 0.0
C1423 C 0.41273 0.11771 0.15699 0.0
C1424 C 0.39769 0.09466 0.1554 0.0
C1425 C 0.28249 0.00784 0.11724 0.0
C1426 C 0.29125 0.0127 0.09701 0.0
C1427 C 0.29668 0.01221 0.13421 0.0
C1428 C 0.31984 0.02144 0.13123 0.0
C1429 C 0.32855 0.02578 0.11104 0.0
C1430 C 0.31438 0.02138 0.09406 0.0
C1431 C 0.33515 0.02827 0.14925 0.0
C1432 C 0.35165 0.05097 0.151 0.0
C1433 C 0.33247 0.01316 0.16534 0.0
C1434 C 0.31591 0.98881 0.1639 0.0
C1435 C 0.31578 0.97623 0.14665 0.0
C1436 C 0.30002 0.95334 0.14531 0.0
C1437 C 0.28439 0.9428 0.16118 0.0
C1438 C 0.28451 0.95513 0.17846 0.0
C1439 C 0.30022 0.97802 0.17987 0.0
H1440 H 0.2722 0.92508 0.16011 0.0
H1441 H 0.42266 0.14781 0.17468 0.0
H1442 H 0.9802 0.25383 0.11005 0.0
H1443 H 0.97279 0.27235 0.13883 0.0
H1444 H 0.02599 0.33663 0.11787 0.0
H1445 H 0.03338 0.31812 0.08871 0.0
H1446 H 0.0222 0.32451 0.16485 0.0
H1447 H 0.983 0.33268 0.10704 0.0
H1448 H 0.9589 0.31958 0.07599 0.0
H1449 H 0.90442 0.27012 0.11254 0.0
H1450 H 0.92833 0.28268 0.14375 0.0
H1451 H 0.97703 0.37032 0.23904 0.0
H1452 H 0.99449 0.36556 0.20771 0.0
H1453 H 0.93773 0.29895 0.19951 0.0
H1454 H 0.92025 0.30368 0.23049 0.0
H1455 H 0.94853 0.32123 0.16398 0.0
H1456 H 0.98819 0.30849 0.21989 0.0
H1457 H 0.01181 0.31906 0.25126 0.0
H1458 H 0.06477 0.37511 0.21897 0.0
H1459 H 0.04133 0.36501 0.18746 0.0
C1460 C 0.99053 0.27186 0.11174 0.0
C1461 C 0.00736 0.28459 0.09724 0.0
C1462 C 0.98623 0.2824 0.12809 0.0
C1463 C -0.00117 0.30578 0.13031 0.0
C1464 C 0.01617 0.31854 0.11631 0.0
C1465 C 0.02027 0.30801 0.0997 0.0
C1466 C 0.99283 0.31658 0.14685 0.0
C1467 C 0.00638 0.32438 0.16456 0.0
C1468 C 0.97206 0.31601 0.1464 0.0
C1469 C 0.95752 0.30852 0.1277 0.0
C1470 C 0.96594 0.31888 0.10842 0.0
C1471 C 0.9523 0.31158 0.0908 0.0
C1472 C 0.93015 0.294 0.09229 0.0
C1473 C 0.92158 0.28373 0.11141 0.0
C1474 C 0.93517 0.29095 0.12908 0.0
C1475 C 0.9684 0.35465 0.23055 0.0
C1476 C 0.94724 0.33741 0.23707 0.0
C1477 C 0.97836 0.35196 0.2127 0.0
C1478 C 0.9674 0.33189 0.20132 0.0
C1479 C 0.94637 0.31465 0.20795 0.0
C1480 C 0.93639 0.31738 0.22563 0.0
C1481 C 0.9775 0.32846 0.18243 0.0
C1482 C 0.96466 0.322 0.16419 0.0
C1483 C -0.00115 0.33013 0.18252 0.0
C1484 C 0.01291 0.33618 0.20143 0.0
C1485 C 0.0048 0.32318 0.21954 0.0
C1486 C 0.01816 0.32906 0.23733 0.0
C1487 C 0.03974 0.34779 0.23713 0.0
C1488 C 0.04803 0.36064 0.21911 0.0
C1489 C 0.03472 0.35484 0.20129 0.0
H1490 H 0.05007 0.35231 0.25092 0.0
H1491 H 0.91962 0.28837 0.07862 0.0
H1492 H 0.70777 0.61539 0.22712 0.0
H1493 H 0.71824 0.6414 0.19816 0.0
H1494 H 0.67491 0.66501 0.22134 0.0
H1495 H 0.66359 0.63824 0.25013 0.0
H1496 H 0.67199 0.66025 0.17947 0.0
H1497 H 0.73005 0.69616 0.22921 0.0
H1498 H 0.75857 0.69983 0.25447 0.0
H1499 H 0.79469 0.68854 0.20613 0.0
H1500 H 0.7662 0.68444 0.18061 0.0
H1501 H 0.72883 0.7562 0.11068 0.0
H1502 H 0.71374 0.73367 0.14218 0.0
H1503 H 0.74476 0.69477 0.12554 0.0
H1504 H 0.7591 0.71641 0.09373 0.0
H1505 H 0.75318 0.71182 0.16706 0.0
H1506 H 0.69176 0.67225 0.11838 0.0
H1507 H 0.66308 0.66949 0.09376 0.0
H1508 H 0.63355 0.68993 0.14149 0.0
H1509 H 0.66228 0.69312 0.16633 0.0
C1510 C 0.7001 0.62577 0.2259 0.0
C1511 C 0.68485 0.62475 0.24095 0.0
C1512 C 0.70632 0.64084 0.20946 0.0
C1513 C 0.69766 0.6554 0.20784 0.0
C1514 C 0.6819 0.65401 0.22243 0.0
C1515 C 0.67559 0.63884 0.23891 0.0
C1516 C 0.70547 0.67222 0.19099 0.0
C1517 C 0.68971 0.67183 0.17697 0.0
C1518 C 0.7286 0.68729 0.18775 0.0
C1519 C 0.74587 0.68983 0.20302 0.0
C1520 C 0.74398 0.69429 0.22398 0.0
C1521 C 0.76016 0.69647 0.23835 0.0
C1522 C 0.77841 0.69438 0.23191 0.0
C1523 C 0.78054 0.69014 0.21109 0.0
C1524 C 0.76439 0.68791 0.19666 0.0
C1525 C 0.73219 0.74266 0.11357 0.0
C1526 C 0.74531 0.73822 0.0997 0.0
C1527 C 0.72365 0.72991 0.13162 0.0
C1528 C 0.72823 0.71267 0.13612 0.0
C1529 C 0.74123 0.70816 0.12236 0.0
C1530 C 0.74953 0.72067 0.10425 0.0
C1531 C 0.71977 0.69929 0.15526 0.0
C1532 C 0.73545 0.70043 0.16976 0.0
C1533 C 0.6966 0.68516 0.15904 0.0
C1534 C 0.67933 0.6832 0.14413 0.0
C1535 C 0.67928 0.67637 0.12357 0.0
C1536 C 0.66299 0.67468 0.10959 0.0
C1537 C 0.64655 0.6796 0.11604 0.0
C1538 C 0.64633 0.68617 0.1365 0.0
C1539 C 0.6626 0.68791 0.15054 0.0
H1540 H 0.63395 0.67827 0.10519 0.0
H1541 H 0.79092 0.69608 0.24305 0.0
H1542 H 0.07708 0.44233 0.55689 0.0
H1543 H 0.05199 0.42537 0.52732 0.0
H1544 H 0.03507 0.35941 0.54891 0.0
H1545 H 0.06028 0.37636 0.57875 0.0
H1546 H 0.04427 0.36856 0.50351 0.0
H1547 H -0.0014 0.37103 0.5584 0.0
H1548 H 0.98952 0.3887 0.5872 0.0
H1549 H 0.99178 0.4385 0.54559 0.0
H1550 H 0.00125 0.42134 0.51658 0.0
H1551 H 0.95243 0.32281 0.43033 0.0
H1552 H 0.97549 0.32957 0.46145 0.0
H1553 H 0.9919 0.3989 0.46166 0.0
H1554 H 0.96878 0.39217 0.43091 0.0
H1555 H 0.97952 0.3813 0.49901 0.0
H1556 H 0.02931 0.38237 0.44541 0.0
H1557 H 0.04019 0.36661 0.41625 0.0
H1558 H 0.03145 0.31184 0.45467 0.0
H1559 H 0.02023 0.32714 0.48401 0.0
C1560 C 0.0683 0.42424 0.55518 0.0
C1561 C 0.07059 0.41062 0.57005 0.0
C1562 C 0.05392 0.41459 0.53837 0.0
C1563 C 0.04168 0.3912 0.5361 0.0
C1564 C 0.04444 0.37751 0.5505 0.0
C1565 C 0.05868 0.38717 0.56752 0.0
C1566 C 0.0253 0.38135 0.51908 0.0
C1567 C 0.02981 0.37086 0.50263 0.0
C1568 C 0.00672 0.38473 0.51797 0.0
C1569 C 0.0008 0.39498 0.53534 0.0
C1570 C -0.00266 0.38586 0.55542 0.0
C1571 C 0.99209 0.39577 0.57178 0.0
C1572 C 0.99011 0.41474 0.56824 0.0
C1573 C 0.99333 0.42381 0.54831 0.0
C1574 C -0.00139 0.41398 0.5319 0.0
C1575 C 0.96116 0.3395 0.43697 0.0
C1576 C 0.95874 0.35694 0.42836 0.0
C1577 C 0.97429 0.34334 0.4547 0.0
C1578 C 0.9854 0.36474 0.46385 0.0
C1579 C 0.98331 0.38222 0.45497 0.0
C1580 C 0.9701 0.37836 0.43742 0.0
C1581 C -0.00117 0.36914 0.48297 0.0
C1582 C 0.99372 0.37857 0.49993 0.0
C1583 C 0.01692 0.36492 0.48442 0.0
C1584 C 0.02366 0.35574 0.46681 0.0
C1585 C 0.02952 0.36686 0.44758 0.0
C1586 C 0.03578 0.35804 0.43104 0.0
C1587 C 0.03643 0.3382 0.43358 0.0
C1588 C 0.03089 0.32718 0.45271 0.0
C1589 C 0.02458 0.33592 0.4693 0.0
H1590 H 0.0413 0.3314 0.42076 0.0
H1591 H 0.98605 0.42239 0.58093 0.0
H1592 H 0.65045 0.63331 0.41956 0.0
H1593 H 0.64888 0.65366 0.44996 0.0
H1594 H 0.70944 0.65774 0.4736 0.0
H1595 H 0.71103 0.63719 0.44309 0.0
H1596 H 0.67463 0.64054 0.50183 0.0
H1597 H 0.71177 0.70488 0.45876 0.0
H1598 H 0.71892 0.72735 0.42697 0.0
H1599 H 0.6545 0.72249 0.43268 0.0
H1600 H 0.6468 0.69971 0.46434 0.0
H1601 H 0.65635 0.69164 0.58916 0.0
H1602 H 0.67677 0.68884 0.55932 0.0
H1603 H 0.62428 0.68272 0.51858 0.0
H1604 H 0.60427 0.68641 0.54817 0.0
H1605 H 0.66462 0.70714 0.50068 0.0
H1606 H 0.62436 0.63642 0.53775 0.0
H1607 H 0.61499 0.61196 0.56846 0.0
H1608 H 0.68345 0.62726 0.57281 0.0
H1609 H 0.69328 0.65205 0.54226 0.0
C1610 C 0.66354 0.63874 0.43115 0.0
C1611 C 0.68079 0.63363 0.42909 0.0
C1612 C 0.66275 0.65054 0.44839 0.0
C1613 C 0.67917 0.65738 0.4639 0.0
C1614 C 0.69672 0.65273 0.46169 0.0
C1615 C 0.69764 0.64109 0.44429 0.0
C1616 C 0.67655 0.66743 0.4832 0.0
C1617 C 0.67308 0.65549 0.50173 0.0
C1618 C 0.67409 0.68664 0.48289 0.0
C1619 C 0.67867 0.70048 0.46391 0.0
C1620 C 0.69905 0.70847 0.45317 0.0
C1621 C 0.70322 0.72129 0.43518 0.0
C1622 C 0.68716 0.72633 0.4278 0.0
C1623 C 0.66692 0.71859 0.43842 0.0
C1624 C 0.66267 0.70575 0.45642 0.0
C1625 C 0.64943 0.69025 0.57379 0.0
C1626 C 0.62854 0.68893 0.57102 0.0
C1627 C 0.66105 0.6885 0.55678 0.0
C1628 C 0.65186 0.68522 0.5368 0.0
C1629 C 0.63164 0.68517 0.53389 0.0
C1630 C 0.62009 0.68701 0.55083 0.0
C1631 C 0.66205 0.67985 0.5191 0.0
C1632 C 0.66686 0.69261 0.5009 0.0
C1633 C 0.66551 0.66122 0.51961 0.0
C1634 C 0.65961 0.6463 0.53792 0.0
C1635 C 0.63745 0.6347 0.54537 0.0
C1636 C 0.63205 0.62076 0.56272 0.0
C1637 C 0.64863 0.61812 0.57262 0.0
C1638 C 0.67064 0.62937 0.56515 0.0
C1639 C 0.67613 0.64336 0.54783 0.0
H1640 H 0.64442 0.60732 0.58605 0.0
H1641 H 0.69042 0.73625 0.41386 0.0
H1642 H 0.32934 0.91767 0.5455 0.0
H1643 H 0.33137 0.9376 0.5134 0.0
H1644 H 0.35582 -0.00071 0.54781 0.0
H1645 H 0.35388 0.97955 0.57987 0.0
H1646 H 0.32571 0.99505 0.51826 0.0
H1647 H 0.39181 0.98746 0.52308 0.0
H1648 H 0.41189 0.96633 0.52649 0.0
H1649 H 0.3805 0.9297 0.47087 0.0
H1650 H 0.35999 0.95042 0.46729 0.0
H1651 H 0.39165 0.08231 0.4483 0.0
H1652 H 0.37445 0.05474 0.47603 0.0
H1653 H 0.35547 0.00108 0.43183 0.0
H1654 H 0.37338 0.02865 0.4041 0.0
H1655 H 0.37718 0.99659 0.46361 0.0
H1656 H 0.31557 0.00913 0.45607 0.0
H1657 H 0.29653 0.03127 0.45281 0.0
H1658 H 0.31994 0.05944 0.51327 0.0
H1659 H 0.3394 0.03772 0.51679 0.0
C1660 C 0.33512 0.93548 0.5462 0.0
C1661 C 0.34161 0.94709 0.56516 0.0
C1662 C 0.33616 0.94679 0.52789 0.0
C1663 C 0.34393 0.96994 0.52824 0.0
C1664 C 0.34968 0.9814 0.54724 0.0
C1665 C 0.34856 0.97009 0.56554 0.0
C1666 C 0.34748 0.98262 0.50876 0.0
C1667 C 0.337 0.99549 0.5063 0.0
C1668 C 0.36177 0.98266 0.49297 0.0
C1669 C 0.37417 0.97029 0.49506 0.0
C1670 C 0.38906 0.97477 0.51167 0.0
C1671 C 0.40054 0.96289 0.51362 0.0
C1672 C 0.39742 0.94663 0.49894 0.0
C1673 C 0.38286 0.94226 0.48225 0.0
C1674 C 0.37131 0.95407 0.48025 0.0
C1675 C 0.38363 0.06464 0.44446 0.0
C1676 C 0.38401 0.05765 0.42406 0.0
C1677 C 0.37357 0.04888 0.46028 0.0
C1678 C 0.36352 0.02584 0.45596 0.0
C1679 C 0.36305 0.01879 0.43546 0.0
C1680 C 0.37316 0.03455 0.41962 0.0
C1681 C 0.3557 0.00941 0.47317 0.0
C1682 C 0.36547 0.99585 0.47528 0.0
C1683 C 0.34084 0.00884 0.48863 0.0
C1684 C 0.32906 0.02187 0.48664 0.0
C1685 C 0.31679 0.02016 0.46862 0.0
C1686 C 0.3059 0.03262 0.46673 0.0
C1687 C 0.30705 0.04678 0.48281 0.0
C1688 C 0.31906 0.04847 0.50083 0.0
C1689 C 0.33 0.03606 0.50279 0.0
H1690 H 0.29862 0.05641 0.48132 0.0
H1691 H 0.40632 0.93745 0.50048 0.0
loop_
_geom_bond_atom_site_label_1
_geom_bond_atom_site_label_2
_geom_bond_distance
_geom_bond_site_symmetry_2
_ccdc_geom_bond_type
Li0 N17 1.990 . S
Li0 O60 1.956 . S
Li0 O61 2.012 1_455 S
Li0 O62 1.961 . S
Li1 N25 1.986 1_554 S
Li1 O60 1.989 1_655 S
Li1 O61 1.956 . S
Li1 O63 1.949 1_654 S
Li2 N47 1.990 . S
Li2 O60 1.961 . S
Li2 O62 1.956 . S
Li2 O63 1.970 1_554 S
Li3 N53 1.990 . S
Li3 O61 1.934 1_456 S
Li3 O62 1.970 1_556 S
Li3 O63 1.956 . S
C4 C6 1.348 1_455 S
C4 C7 1.356 . S
C4 O60 1.325 . S
N5 C8 1.314 . S
N5 C9 1.279 1_655 S
C6 C4 1.348 1_655 S
C6 C8 1.353 . S
C6 H64 0.929 . S
C7 C4 1.356 . S
C7 C9 1.358 . S
C7 H65 0.930 . S
C8 N5 1.314 . S
C8 C6 1.353 . S
C8 H66 0.930 . S
C9 N5 1.279 1_455 S
C9 C7 1.358 . S
C9 H67 0.930 . S
C10 C13 1.348 1_556 S
C10 C14 1.356 . S
C10 O61 1.317 1_556 S
C11 N12 1.279 . S
C11 C14 1.358 . S
C11 H68 0.930 . S
N12 C11 1.279 . S
N12 C15 1.314 1_556 S
C13 C10 1.348 1_554 S
C13 C15 1.353 . S
C13 H69 0.929 . S
C14 C10 1.356 . S
C14 C11 1.358 . S
C14 H70 0.930 . S
C15 N12 1.314 1_554 S
C15 C13 1.353 . S
C15 H71 0.930 . S
C16 N17 1.314 . S
C16 C21 1.353 . S
C16 H22 0.930 . S
N17 Li0 1.990 . S
N17 C16 1.314 . S
N17 C19 1.279 1_455 S
C18 C19 1.358 . S
C18 C20 1.356 . S
C18 H72 0.930 . S
C19 N17 1.279 1_655 S
C19 C18 1.358 . S
C19 H23 0.930 . S
C20 C18 1.356 . S
C20 C21 1.348 1_655 S
C21 C16 1.353 . S
C21 C20 1.348 1_455 S
C21 H73 0.929 . S
H22 C16 0.930 . S
H23 C19 0.930 . S
C24 N25 1.314 . S
C24 C26 1.353 . S
C24 H30 0.930 . S
N25 Li1 1.986 1_556 S
N25 C24 1.314 . S
N25 C28 1.279 . S
C26 C24 1.353 . S
C26 C29 1.348 . S
C26 H74 0.929 . S
C27 C28 1.358 . S
C27 C29 1.356 . S
C27 H75 0.930 . S
C28 N25 1.279 . S
C28 C27 1.358 . S
C28 H31 0.930 . S
C29 C26 1.348 . S
C29 C27 1.356 . S
H30 C24 0.930 . S
H31 C28 0.930 . S
C32 C34 1.348 1_554 S
C32 C35 1.356 . S
C32 O62 1.325 . S
N33 C36 1.314 . S
N33 C37 1.279 . S
C34 C32 1.348 1_556 S
C34 C36 1.353 1_556 S
C34 H76 0.929 . S
C35 C32 1.356 . S
C35 C37 1.358 . S
C35 H77 0.930 . S
C36 N33 1.314 . S
C36 C34 1.353 1_554 S
C36 H78 0.930 1_554 S
C37 N33 1.279 . S
C37 C35 1.358 . S
C37 H79 0.930 . S
C38 C39 1.348 . S
C38 C40 1.356 . S
C38 O63 1.325 . S
C39 C38 1.348 . S
C39 C41 1.353 . S
C39 H80 0.929 . S
C40 C38 1.356 . S
C40 C42 1.358 . S
C40 H81 0.930 1_455 S
C41 C39 1.353 . S
C41 N43 1.314 . S
C41 H82 0.930 . S
C42 C40 1.358 . S
C42 N43 1.279 . S
C42 H83 0.934 . S
N43 C41 1.314 . S
N43 C42 1.279 . S
C44 C46 1.353 . S
C44 N47 1.314 . S
C44 H50 0.930 . S
C45 N47 1.279 . S
C45 C48 1.358 . S
C45 H51 0.930 . S
C46 C44 1.353 . S
C46 C49 1.348 . S
C46 H84 0.929 . S
N47 Li2 1.990 . S
N47 C44 1.314 . S
N47 C45 1.279 . S
C48 C45 1.358 . S
C48 C49 1.356 . S
C48 H85 0.930 . S
C49 C46 1.348 . S
C49 C48 1.356 . S
H50 C44 0.930 . S
H51 C45 0.930 . S
C52 N53 1.314 . S
C52 C54 1.353 . S
C52 H58 0.930 . S
N53 Li3 1.990 . S
N53 C52 1.314 . S
N53 C56 1.279 . S
C54 C52 1.353 . S
C54 C57 1.348 . S
C54 H86 0.929 . S
C55 C56 1.358 . S
C55 C57 1.356 . S
C55 H87 0.930 . S
C56 N53 1.279 . S
C56 C55 1.358 . S
C56 H59 0.930 . S
C57 C54 1.348 . S
C57 C55 1.356 . S
H58 C52 0.930 . S
H59 C56 0.930 . S
O60 Li0 1.956 . S
O60 Li1 1.989 1_455 S
O60 Li2 1.961 . S
O60 C4 1.325 . S
O61 Li0 2.012 1_655 S
O61 Li1 1.956 . S
O61 Li3 1.934 1_654 S
O61 C10 1.317 1_554 S
O62 Li0 1.961 . S
O62 Li2 1.956 . S
O62 Li3 1.970 1_554 S
O62 C32 1.325 . S
O63 Li1 1.949 1_456 S
O63 Li2 1.970 1_556 S
O63 Li3 1.956 . S
O63 C38 1.325 . S
H64 C6 0.929 . S
H65 C7 0.930 . S
H66 C8 0.930 . S
H67 C9 0.930 . S
H68 C11 0.930 . S
H69 C13 0.929 . S
H70 C14 0.930 . S
H71 C15 0.930 . S
H72 C18 0.930 . S
H73 C21 0.929 . S
H74 C26 0.929 . S
H75 C27 0.930 . S
H76 C34 0.929 . S
H77 C35 0.930 . S
H78 C36 0.930 1_556 S
H79 C37 0.930 . S
H80 C39 0.929 . S
H81 C40 0.930 1_655 S
H82 C41 0.930 . S
H83 C42 0.934 . S
H84 C46 0.929 . S
H85 C48 0.930 . S
H86 C54 0.929 . S
H87 C55 0.930 . S
Li88 N105 1.986 1_554 S
Li88 O148 1.956 . S
Li88 O149 1.989 . S
Li88 O150 1.949 1_554 S
Li89 N113 1.990 . S
Li89 O148 2.012 . S
Li89 O149 1.956 . S
Li89 O151 1.961 . S
Li90 N135 1.990 . S
Li90 O148 1.934 1_556 S
Li90 O150 1.956 . S
Li90 O151 1.970 1_556 S
Li91 N141 1.990 . S
Li91 O149 1.961 . S
Li91 O150 1.970 1_554 S
Li91 O151 1.956 . S
C92 C94 1.348 1_556 S
C92 C95 1.356 . S
C92 O148 1.317 1_556 S
N93 C96 1.314 1_556 S
N93 C97 1.279 . S
C94 C92 1.348 1_554 S
C94 C96 1.353 . S
C94 H152 0.929 . S
C95 C92 1.356 . S
C95 C97 1.358 . S
C95 H153 0.930 . S
C96 N93 1.314 1_554 S
C96 C94 1.353 . S
C96 H154 0.930 . S
C97 N93 1.279 . S
C97 C95 1.358 . S
C97 H155 0.930 . S
C98 C101 1.348 . S
C98 C102 1.356 . S
C98 O149 1.325 . S
C99 N100 1.279 . S
C99 C102 1.358 . S
C99 H156 0.930 . S
N100 C99 1.279 . S
N100 C103 1.314 . S
C101 C98 1.348 . S
C101 C103 1.353 . S
C101 H157 0.929 . S
C102 C98 1.356 . S
C102 C99 1.358 . S
C102 H158 0.930 . S
C103 N100 1.314 . S
C103 C101 1.353 . S
C103 H159 0.930 . S
C104 N105 1.314 . S
C104 C109 1.353 . S
C104 H110 0.930 . S
N105 Li88 1.986 1_556 S
N105 C104 1.314 . S
N105 C107 1.279 . S
C106 C107 1.358 . S
C106 C108 1.356 . S
C106 H160 0.930 . S
C107 N105 1.279 . S
C107 C106 1.358 . S
C107 H111 0.930 . S
C108 C106 1.356 . S
C108 C109 1.348 . S
C109 C104 1.353 . S
C109 C108 1.348 . S
C109 H161 0.929 . S
H110 C104 0.930 . S
H111 C107 0.930 . S
C112 N113 1.314 . S
C112 C114 1.353 . S
C112 H118 0.930 . S
N113 Li89 1.990 . S
N113 C112 1.314 . S
N113 C116 1.279 . S
C114 C112 1.353 . S
C114 C117 1.348 . S
C114 H162 0.929 . S
C115 C116 1.358 . S
C115 C117 1.356 . S
C115 H163 0.930 . S
C116 N113 1.279 . S
C116 C115 1.358 . S
C116 H119 0.930 . S
C117 C114 1.348 . S
C117 C115 1.356 . S
H118 C112 0.930 . S
H119 C116 0.930 . S
C120 C122 1.348 . S
C120 C123 1.356 . S
C120 O150 1.325 . S
N121 C124 1.314 . S
N121 C125 1.279 . S
C122 C120 1.348 . S
C122 C124 1.353 . S
C122 H164 0.929 . S
C123 C120 1.356 . S
C123 C125 1.358 . S
C123 H165 0.930 . S
C124 N121 1.314 . S
C124 C122 1.353 . S
C124 H166 0.930 . S
C125 N121 1.279 . S
C125 C123 1.358 . S
C125 H167 0.930 . S
C126 C127 1.348 1_554 S
C126 C128 1.356 . S
C126 O151 1.325 . S
C127 C126 1.348 1_556 S
C127 C129 1.353 1_556 S
C127 H168 0.929 . S
C128 C126 1.356 . S
C128 C130 1.358 . S
C128 H169 0.930 . S
C129 C127 1.353 1_554 S
C129 N131 1.314 . S
C129 H170 0.930 1_554 S
C130 C128 1.358 . S
C130 N131 1.279 . S
C130 H171 0.930 . S
N131 C129 1.314 . S
N131 C130 1.279 . S
C132 C134 1.353 . S
C132 N135 1.314 . S
C132 H138 0.930 . S
C133 N135 1.279 . S
C133 C136 1.358 . S
C133 H139 0.930 . S
C134 C132 1.353 . S
C134 C137 1.348 . S
C134 H172 0.929 . S
N135 Li90 1.990 . S
N135 C132 1.314 . S
N135 C133 1.279 . S
C136 C133 1.358 . S
C136 C137 1.356 . S
C136 H173 0.930 . S
C137 C134 1.348 . S
C137 C136 1.356 . S
H138 C132 0.930 . S
H139 C133 0.930 . S
C140 N141 1.314 . S
C140 C142 1.353 . S
C140 H146 0.930 . S
N141 Li91 1.990 . S
N141 C140 1.314 . S
N141 C144 1.279 . S
C142 C140 1.353 . S
C142 C145 1.348 . S
C142 H174 0.929 . S
C143 C144 1.358 . S
C143 C145 1.356 . S
C143 H175 0.930 . S
C144 N141 1.279 . S
C144 C143 1.358 . S
C144 H147 0.930 . S
C145 C142 1.348 . S
C145 C143 1.356 . S
H146 C140 0.930 . S
H147 C144 0.930 . S
O148 Li88 1.956 . S
O148 Li89 2.012 . S
O148 Li90 1.934 1_554 S
O148 C92 1.317 1_554 S
O149 Li88 1.989 . S
O149 Li89 1.956 . S
O149 Li91 1.961 . S
O149 C98 1.325 . S
O150 Li88 1.949 1_556 S
O150 Li90 1.956 . S
O150 Li91 1.970 1_556 S
O150 C120 1.325 . S
O151 Li89 1.961 . S
O151 Li90 1.970 1_554 S
O151 Li91 1.956 . S
O151 C126 1.325 . S
H152 C94 0.929 . S
H153 C95 0.930 . S
H154 C96 0.930 . S
H155 C97 0.930 . S
H156 C99 0.930 . S
H157 C101 0.929 . S
H158 C102 0.930 . S
H159 C103 0.930 . S
H160 C106 0.930 . S
H161 C109 0.929 . S
H162 C114 0.929 . S
H163 C115 0.930 . S
H164 C122 0.929 . S
H165 C123 0.930 . S
H166 C124 0.930 . S
H167 C125 0.930 . S
H168 C127 0.929 . S
H169 C128 0.930 . S
H170 C129 0.930 1_556 S
H171 C130 0.930 . S
H172 C134 0.929 . S
H173 C136 0.930 . S
H174 C142 0.929 . S
H175 C143 0.930 . S
Li176 N193 1.986 1_554 S
Li176 O236 1.956 . S
Li176 O237 1.989 . S
Li176 O238 1.949 1_554 S
Li177 N201 1.990 . S
Li177 O236 2.012 . S
Li177 O237 1.956 . S
Li177 O239 1.961 1_545 S
Li178 N223 1.990 . S
Li178 O236 1.934 1_556 S
Li178 O238 1.956 . S
Li178 O239 1.970 1_546 S
Li179 N229 1.990 . S
Li179 O237 1.961 1_565 S
Li179 O238 1.970 1_564 S
Li179 O239 1.956 . S
C180 C182 1.348 1_556 S
C180 C183 1.356 . S
C180 O236 1.317 1_556 S
N181 C184 1.314 1_556 S
N181 C185 1.279 . S
C182 C180 1.348 1_554 S
C182 C184 1.353 . S
C182 H240 0.929 . S
C183 C180 1.356 . S
C183 C185 1.358 . S
C183 H241 0.930 . S
C184 N181 1.314 1_554 S
C184 C182 1.353 . S
C184 H242 0.930 . S
C185 N181 1.279 . S
C185 C183 1.358 . S
C185 H243 0.930 . S
C186 C189 1.348 . S
C186 C190 1.356 . S
C186 O237 1.325 . S
C187 N188 1.279 . S
C187 C190 1.358 . S
C187 H244 0.930 . S
N188 C187 1.279 . S
N188 C191 1.314 . S
C189 C186 1.348 . S
C189 C191 1.353 . S
C189 H245 0.929 . S
C190 C186 1.356 . S
C190 C187 1.358 . S
C190 H246 0.930 1_545 S
C191 N188 1.314 . S
C191 C189 1.353 . S
C191 H247 0.930 . S
C192 N193 1.314 . S
C192 C197 1.353 . S
C192 H198 0.930 . S
N193 Li176 1.986 1_556 S
N193 C192 1.314 . S
N193 C195 1.279 . S
C194 C195 1.358 . S
C194 C196 1.356 . S
C194 H248 0.930 . S
C195 N193 1.279 . S
C195 C194 1.358 . S
C195 H199 0.930 . S
C196 C194 1.356 . S
C196 C197 1.348 . S
C197 C192 1.353 . S
C197 C196 1.348 . S
C197 H249 0.929 . S
H198 C192 0.930 . S
H199 C195 0.930 . S
C200 N201 1.314 . S
C200 C202 1.353 . S
C200 H206 0.930 . S
N201 Li177 1.990 . S
N201 C200 1.314 . S
N201 C204 1.279 . S
C202 C200 1.353 . S
C202 C205 1.348 . S
C202 H250 0.929 . S
C203 C204 1.358 . S
C203 C205 1.356 . S
C203 H251 0.930 . S
C204 N201 1.279 . S
C204 C203 1.358 . S
C204 H207 0.930 . S
C205 C202 1.348 . S
C205 C203 1.356 . S
H206 C200 0.930 . S
H207 C204 0.930 . S
C208 C210 1.348 1_545 S
C208 C211 1.356 . S
C208 O238 1.325 . S
N209 C212 1.304 1_545 S
N209 C213 1.287 . S
C210 C208 1.348 1_565 S
C210 C212 1.353 . S
C210 H252 0.929 . S
C211 C208 1.356 . S
C211 C213 1.358 . S
C211 H253 0.930 . S
C212 N209 1.304 1_565 S
C212 C210 1.353 . S
C212 H254 0.930 . S
C213 N209 1.287 . S
C213 C211 1.358 . S
C213 H255 0.930 . S
C214 C215 1.348 1_554 S
C214 C216 1.356 . S
C214 O239 1.325 . S
C215 C214 1.348 1_556 S
C215 C217 1.353 1_556 S
C215 H256 0.929 . S
C216 C214 1.356 . S
C216 C218 1.358 . S
C216 H257 0.930 . S
C217 C215 1.353 1_554 S
C217 N219 1.314 . S
C217 H258 0.930 1_554 S
C218 C216 1.358 . S
C218 N219 1.279 . S
C218 H259 0.930 . S
N219 C217 1.314 . S
N219 C218 1.279 . S
C220 C222 1.353 . S
C220 N223 1.314 . S
C220 H226 0.930 . S
C221 N223 1.279 1_565 S
C221 C224 1.358 . S
C221 H227 0.930 . S
C222 C220 1.353 . S
C222 C225 1.348 1_545 S
C222 H260 0.929 . S
N223 Li178 1.990 . S
N223 C220 1.314 . S
N223 C221 1.279 1_545 S
C224 C221 1.358 . S
C224 C225 1.356 . S
C224 H261 0.930 . S
C225 C222 1.348 1_565 S
C225 C224 1.356 . S
H226 C220 0.930 . S
H227 C221 0.930 . S
C228 N229 1.314 . S
C228 C230 1.353 . S
C228 H234 0.930 . S
N229 Li179 1.990 . S
N229 C228 1.314 . S
N229 C232 1.279 . S
C230 C228 1.353 . S
C230 C233 1.348 . S
C230 H262 0.929 . S
C231 C232 1.358 . S
C231 C233 1.356 . S
C231 H263 0.930 . S
C232 N229 1.279 . S
C232 C231 1.358 . S
C232 H235 0.930 . S
C233 C230 1.348 . S
C233 C231 1.356 . S
H234 C228 0.930 . S
H235 C232 0.930 . S
O236 Li176 1.956 . S
O236 Li177 2.012 . S
O236 Li178 1.934 1_554 S
O236 C180 1.317 1_554 S
O237 Li176 1.989 . S
O237 Li177 1.956 . S
O237 Li179 1.961 1_545 S
O237 C186 1.325 . S
O238 Li176 1.949 1_556 S
O238 Li178 1.956 . S
O238 Li179 1.970 1_546 S
O238 C208 1.325 . S
O239 Li177 1.961 1_565 S
O239 Li178 1.970 1_564 S
O239 Li179 1.956 . S
O239 C214 1.325 . S
H240 C182 0.929 . S
H241 C183 0.930 . S
H242 C184 0.930 . S
H243 C185 0.930 . S
H244 C187 0.930 . S
H245 C189 0.929 . S
H246 C190 0.930 1_565 S
H247 C191 0.930 . S
H248 C194 0.930 . S
H249 C197 0.929 . S
H250 C202 0.929 . S
H251 C203 0.930 . S
H252 C210 0.929 . S
H253 C211 0.930 . S
H254 C212 0.930 . S
H255 C213 0.930 . S
H256 C215 0.929 . S
H257 C216 0.930 . S
H258 C217 0.930 1_556 S
H259 C218 0.930 . S
H260 C222 0.929 . S
H261 C224 0.930 . S
H262 C230 0.929 . S
H263 C231 0.930 . S
Li264 N281 1.990 . S
Li264 O324 1.956 . S
Li264 O325 1.970 . S
Li264 O326 1.961 . S
Li265 N289 1.990 . S
Li265 O324 1.970 . S
Li265 O325 1.956 . S
Li265 O327 1.961 . S
Li266 N311 1.990 . S
Li266 O324 1.961 . S
Li266 O326 1.956 . S
Li266 O327 1.970 . S
Li267 N317 1.990 . S
Li267 O325 1.961 . S
Li267 O326 1.970 . S
Li267 O327 1.956 . S
C268 C270 1.348 . S
C268 C271 1.356 . S
C268 O324 1.325 . S
N269 C272 1.314 . S
N269 C273 1.279 . S
C270 C268 1.348 . S
C270 C272 1.353 . S
C270 H328 0.929 . S
C271 C268 1.356 . S
C271 C273 1.358 . S
C271 H329 0.930 . S
C272 N269 1.314 . S
C272 C270 1.353 . S
C272 H330 0.930 . S
C273 N269 1.279 . S
C273 C271 1.358 . S
C273 H331 0.930 . S
C274 C277 1.348 . S
C274 C278 1.356 . S
C274 O325 1.325 . S
C275 N276 1.279 . S
C275 C278 1.358 . S
C275 H332 0.930 . S
N276 C275 1.279 . S
N276 C279 1.314 . S
C277 C274 1.348 . S
C277 C279 1.353 . S
C277 H333 0.929 . S
C278 C274 1.356 . S
C278 C275 1.358 . S
C278 H334 0.930 . S
C279 N276 1.314 . S
C279 C277 1.353 . S
C279 H335 0.930 . S
C280 N281 1.314 . S
C280 C285 1.353 . S
C280 H286 0.930 . S
N281 Li264 1.990 . S
N281 C280 1.314 . S
N281 C283 1.279 . S
C282 C283 1.358 . S
C282 C284 1.356 . S
C282 H336 0.930 . S
C283 N281 1.279 . S
C283 C282 1.358 . S
C283 H287 0.930 . S
C284 C282 1.356 . S
C284 C285 1.348 . S
C285 C280 1.353 . S
C285 C284 1.348 . S
C285 H337 0.929 . S
H286 C280 0.930 . S
H287 C283 0.930 . S
C288 N289 1.314 . S
C288 C290 1.353 . S
C288 H294 0.930 . S
N289 Li265 1.990 . S
N289 C288 1.314 . S
N289 C292 1.279 . S
C290 C288 1.353 . S
C290 C293 1.348 . S
C290 H338 0.929 . S
C291 C292 1.358 . S
C291 C293 1.356 . S
C291 H339 0.930 . S
C292 N289 1.279 . S
C292 C291 1.358 . S
C292 H295 0.930 . S
C293 C290 1.348 . S
C293 C291 1.356 . S
H294 C288 0.930 . S
H295 C292 0.930 . S
C296 C298 1.348 . S
C296 C299 1.356 . S
C296 O326 1.325 . S
N297 C300 1.314 . S
N297 C301 1.279 . S
C298 C296 1.348 . S
C298 C300 1.353 . S
C298 H340 0.929 . S
C299 C296 1.356 . S
C299 C301 1.358 . S
C299 H341 0.930 . S
C300 N297 1.314 . S
C300 C298 1.353 . S
C300 H342 0.930 . S
C301 N297 1.279 . S
C301 C299 1.358 . S
C301 H343 0.930 . S
C302 C303 1.348 . S
C302 C304 1.356 . S
C302 O327 1.325 . S
C303 C302 1.348 . S
C303 C305 1.353 . S
C303 H344 0.929 . S
C304 C302 1.356 . S
C304 C306 1.358 . S
C304 H345 0.930 . S
C305 C303 1.353 . S
C305 N307 1.314 . S
C305 H346 0.930 . S
C306 C304 1.358 . S
C306 N307 1.279 . S
C306 H347 0.930 . S
N307 C305 1.314 . S
N307 C306 1.279 . S
C308 C310 1.353 . S
C308 N311 1.314 . S
C308 H314 0.930 . S
C309 N311 1.279 . S
C309 C312 1.358 . S
C309 H315 0.930 . S
C310 C308 1.353 . S
C310 C313 1.348 . S
C310 H348 0.929 . S
N311 Li266 1.990 . S
N311 C308 1.314 . S
N311 C309 1.279 . S
C312 C309 1.358 . S
C312 C313 1.356 . S
C312 H349 0.930 . S
C313 C310 1.348 . S
C313 C312 1.356 . S
H314 C308 0.930 . S
H315 C309 0.930 . S
C316 N317 1.314 . S
C316 C318 1.353 . S
C316 H322 0.930 . S
N317 Li267 1.990 . S
N317 C316 1.314 . S
N317 C320 1.279 . S
C318 C316 1.353 . S
C318 C321 1.348 . S
C318 H350 0.929 . S
C319 C320 1.358 . S
C319 C321 1.356 . S
C319 H351 0.930 . S
C320 N317 1.279 . S
C320 C319 1.358 . S
C320 H323 0.930 . S
C321 C318 1.348 . S
C321 C319 1.356 . S
H322 C316 0.930 . S
H323 C320 0.930 . S
O324 Li264 1.956 . S
O324 Li265 1.970 . S
O324 Li266 1.961 . S
O324 C268 1.325 . S
O325 Li264 1.970 . S
O325 Li265 1.956 . S
O325 Li267 1.961 . S
O325 C274 1.325 . S
O326 Li264 1.961 . S
O326 Li266 1.956 . S
O326 Li267 1.970 . S
O326 C296 1.325 . S
O327 Li265 1.961 . S
O327 Li266 1.970 . S
O327 Li267 1.956 . S
O327 C302 1.325 . S
H328 C270 0.929 . S
H329 C271 0.930 . S
H330 C272 0.930 . S
H331 C273 0.930 . S
H332 C275 0.930 . S
H333 C277 0.929 . S
H334 C278 0.930 . S
H335 C279 0.930 . S
H336 C282 0.930 . S
H337 C285 0.929 . S
H338 C290 0.929 . S
H339 C291 0.930 . S
H340 C298 0.929 . S
H341 C299 0.930 . S
H342 C300 0.930 . S
H343 C301 0.930 . S
H344 C303 0.929 . S
H345 C304 0.930 . S
H346 C305 0.930 . S
H347 C306 0.930 . S
H348 C310 0.929 . S
H349 C312 0.930 . S
H350 C318 0.929 . S
H351 C319 0.930 . S
Li352 N369 1.990 . S
Li352 O412 1.956 . S
Li352 O413 1.970 . S
Li352 O414 1.961 . S
Li353 N377 1.990 . S
Li353 O412 1.970 . S
Li353 O413 1.956 . S
Li353 O415 1.961 . S
Li354 N399 1.990 . S
Li354 O412 1.961 . S
Li354 O414 1.956 . S
Li354 O415 1.970 . S
Li355 N405 1.990 . S
Li355 O413 1.961 . S
Li355 O414 1.970 . S
Li355 O415 1.956 . S
C356 C358 1.348 . S
C356 C359 1.356 . S
C356 O412 1.325 . S
N357 C360 1.314 . S
N357 C361 1.279 . S
C358 C356 1.348 . S
C358 C360 1.353 . S
C358 H416 0.929 . S
C359 C356 1.356 . S
C359 C361 1.358 . S
C359 H417 0.930 . S
C360 N357 1.314 . S
C360 C358 1.353 . S
C360 H418 0.930 . S
C361 N357 1.279 . S
C361 C359 1.358 . S
C361 H419 0.930 . S
C362 C365 1.348 . S
C362 C366 1.356 . S
C362 O413 1.325 . S
C363 N364 1.279 . S
C363 C366 1.358 . S
C363 H420 0.930 . S
N364 C363 1.279 . S
N364 C367 1.314 . S
C365 C362 1.348 . S
C365 C367 1.353 . S
C365 H421 0.929 . S
C366 C362 1.356 . S
C366 C363 1.358 . S
C366 H422 0.930 . S
C367 N364 1.314 . S
C367 C365 1.353 . S
C367 H423 0.930 . S
C368 N369 1.314 . S
C368 C373 1.353 . S
C368 H374 0.930 . S
N369 Li352 1.990 . S
N369 C368 1.314 . S
N369 C371 1.279 . S
C370 C371 1.358 . S
C370 C372 1.356 . S
C370 H424 0.930 . S
C371 N369 1.279 . S
C371 C370 1.358 . S
C371 H375 0.930 . S
C372 C370 1.356 . S
C372 C373 1.348 . S
C373 C368 1.353 . S
C373 C372 1.348 . S
C373 H425 0.929 . S
H374 C368 0.930 . S
H375 C371 0.930 . S
C376 N377 1.314 . S
C376 C378 1.353 . S
C376 H382 0.930 . S
N377 Li353 1.990 . S
N377 C376 1.314 . S
N377 C380 1.279 . S
C378 C376 1.353 . S
C378 C381 1.348 . S
C378 H426 0.929 . S
C379 C380 1.358 . S
C379 C381 1.356 . S
C379 H427 0.930 . S
C380 N377 1.279 . S
C380 C379 1.358 . S
C380 H383 0.930 . S
C381 C378 1.348 . S
C381 C379 1.356 . S
H382 C376 0.930 . S
H383 C380 0.930 . S
C384 C386 1.348 . S
C384 C387 1.356 . S
C384 O414 1.325 . S
N385 C388 1.314 . S
N385 C389 1.279 . S
C386 C384 1.348 . S
C386 C388 1.353 . S
C386 H428 0.929 . S
C387 C384 1.356 . S
C387 C389 1.358 . S
C387 H429 0.930 . S
C388 N385 1.314 . S
C388 C386 1.353 . S
C388 H430 0.930 . S
C389 N385 1.279 . S
C389 C387 1.358 . S
C389 H431 0.930 . S
C390 C391 1.348 . S
C390 C392 1.356 . S
C390 O415 1.325 . S
C391 C390 1.348 . S
C391 C393 1.353 . S
C391 H432 0.929 . S
C392 C390 1.356 . S
C392 C394 1.358 . S
C392 H433 0.930 . S
C393 C391 1.353 . S
C393 N395 1.314 . S
C393 H434 0.930 . S
C394 C392 1.358 . S
C394 N395 1.279 . S
C394 H435 0.930 . S
N395 C393 1.314 . S
N395 C394 1.279 . S
C396 C398 1.353 . S
C396 N399 1.314 . S
C396 H402 0.930 . S
C397 N399 1.279 . S
C397 C400 1.358 . S
C397 H403 0.930 . S
C398 C396 1.353 . S
C398 C401 1.348 . S
C398 H436 0.929 . S
N399 Li354 1.990 . S
N399 C396 1.314 . S
N399 C397 1.279 . S
C400 C397 1.358 . S
C400 C401 1.356 . S
C400 H437 0.930 . S
C401 C398 1.348 . S
C401 C400 1.356 . S
H402 C396 0.930 . S
H403 C397 0.930 . S
C404 N405 1.314 . S
C404 C406 1.353 . S
C404 H410 0.930 . S
N405 Li355 1.990 . S
N405 C404 1.314 . S
N405 C408 1.279 . S
C406 C404 1.353 . S
C406 C409 1.348 . S
C406 H438 0.929 . S
C407 C408 1.358 . S
C407 C409 1.356 . S
C407 H439 0.930 . S
C408 N405 1.279 . S
C408 C407 1.358 . S
C408 H411 0.930 . S
C409 C406 1.348 . S
C409 C407 1.356 . S
H410 C404 0.930 . S
H411 C408 0.930 . S
O412 Li352 1.956 . S
O412 Li353 1.970 . S
O412 Li354 1.961 . S
O412 C356 1.325 . S
O413 Li352 1.970 . S
O413 Li353 1.956 . S
O413 Li355 1.961 . S
O413 C362 1.325 . S
O414 Li352 1.961 . S
O414 Li354 1.956 . S
O414 Li355 1.970 . S
O414 C384 1.325 . S
O415 Li353 1.961 . S
O415 Li354 1.970 . S
O415 Li355 1.956 . S
O415 C390 1.325 . S
H416 C358 0.929 . S
H417 C359 0.930 . S
H418 C360 0.930 . S
H419 C361 0.930 . S
H420 C363 0.930 . S
H421 C365 0.929 . S
H422 C366 0.930 . S
H423 C367 0.930 . S
H424 C370 0.930 . S
H425 C373 0.929 . S
H426 C378 0.929 . S
H427 C379 0.930 . S
H428 C386 0.929 . S
H429 C387 0.930 . S
H430 C388 0.930 . S
H431 C389 0.930 . S
H432 C391 0.929 . S
H433 C392 0.930 . S
H434 C393 0.930 . S
H435 C394 0.930 . S
H436 C398 0.929 . S
H437 C400 0.930 . S
H438 C406 0.929 . S
H439 C407 0.930 . S
Li440 N457 1.990 . S
Li440 O500 1.956 . S
Li440 O501 1.970 . S
Li440 O502 1.961 . S
Li441 N465 1.990 . S
Li441 O500 1.970 . S
Li441 O501 1.956 . S
Li441 O503 1.961 . S
Li442 N487 1.990 . S
Li442 O500 1.961 . S
Li442 O502 1.956 . S
Li442 O503 1.970 . S
Li443 N493 1.990 . S
Li443 O501 1.961 . S
Li443 O502 1.970 . S
Li443 O503 1.956 . S
C444 C446 1.348 . S
C444 C447 1.356 . S
C444 O500 1.325 . S
N445 C448 1.314 . S
N445 C449 1.279 . S
C446 C444 1.348 . S
C446 C448 1.353 . S
C446 H504 0.929 . S
C447 C444 1.356 . S
C447 C449 1.358 . S
C447 H505 0.930 . S
C448 N445 1.314 . S
C448 C446 1.353 . S
C448 H506 0.930 . S
C449 N445 1.279 . S
C449 C447 1.358 . S
C449 H507 0.930 . S
C450 C453 1.348 . S
C450 C454 1.356 . S
C450 O501 1.325 . S
C451 N452 1.279 . S
C451 C454 1.358 . S
C451 H508 0.930 . S
N452 C451 1.279 . S
N452 C455 1.314 . S
C453 C450 1.348 . S
C453 C455 1.353 . S
C453 H509 0.929 . S
C454 C450 1.356 . S
C454 C451 1.358 . S
C454 H510 0.930 . S
C455 N452 1.314 . S
C455 C453 1.353 . S
C455 H511 0.930 . S
C456 N457 1.314 . S
C456 C461 1.353 . S
C456 H462 0.930 . S
N457 Li440 1.990 . S
N457 C456 1.314 . S
N457 C459 1.279 . S
C458 C459 1.358 . S
C458 C460 1.356 . S
C458 H512 0.930 . S
C459 N457 1.279 . S
C459 C458 1.358 . S
C459 H463 0.930 . S
C460 C458 1.356 . S
C460 C461 1.348 . S
C461 C456 1.353 . S
C461 C460 1.348 . S
C461 H513 0.929 . S
H462 C456 0.930 . S
H463 C459 0.930 . S
C464 N465 1.314 . S
C464 C466 1.353 . S
C464 H470 0.930 . S
N465 Li441 1.990 . S
N465 C464 1.314 . S
N465 C468 1.279 . S
C466 C464 1.353 . S
C466 C469 1.348 . S
C466 H514 0.929 . S
C467 C468 1.358 . S
C467 C469 1.356 . S
C467 H515 0.930 . S
C468 N465 1.279 . S
C468 C467 1.358 . S
C468 H471 0.930 . S
C469 C466 1.348 . S
C469 C467 1.356 . S
H470 C464 0.930 . S
H471 C468 0.930 . S
C472 C474 1.348 . S
C472 C475 1.356 . S
C472 O502 1.325 . S
N473 C476 1.314 . S
N473 C477 1.279 . S
C474 C472 1.348 . S
C474 C476 1.353 . S
C474 H516 0.929 . S
C475 C472 1.356 . S
C475 C477 1.358 . S
C475 H517 0.930 . S
C476 N473 1.314 . S
C476 C474 1.353 . S
C476 H518 0.930 . S
C477 N473 1.279 . S
C477 C475 1.358 . S
C477 H519 0.930 . S
C478 C479 1.348 . S
C478 C480 1.356 . S
C478 O503 1.325 . S
C479 C478 1.348 . S
C479 C481 1.353 . S
C479 H520 0.929 . S
C480 C478 1.356 . S
C480 C482 1.358 . S
C480 H521 0.930 . S
C481 C479 1.353 . S
C481 N483 1.314 . S
C481 H522 0.930 . S
C482 C480 1.358 . S
C482 N483 1.279 . S
C482 H523 0.930 . S
N483 C481 1.314 . S
N483 C482 1.279 . S
C484 C486 1.353 . S
C484 N487 1.314 . S
C484 H490 0.930 . S
C485 N487 1.279 . S
C485 C488 1.358 . S
C485 H491 0.930 . S
C486 C484 1.353 . S
C486 C489 1.348 . S
C486 H524 0.929 . S
N487 Li442 1.990 . S
N487 C484 1.314 . S
N487 C485 1.279 . S
C488 C485 1.358 . S
C488 C489 1.356 . S
C488 H525 0.930 . S
C489 C486 1.348 . S
C489 C488 1.356 . S
H490 C484 0.930 . S
H491 C485 0.930 . S
C492 N493 1.314 . S
C492 C494 1.353 . S
C492 H498 0.930 . S
N493 Li443 1.990 . S
N493 C492 1.314 . S
N493 C496 1.279 . S
C494 C492 1.353 . S
C494 C497 1.348 . S
C494 H526 0.929 . S
C495 C496 1.358 . S
C495 C497 1.356 . S
C495 H527 0.930 . S
C496 N493 1.279 . S
C496 C495 1.358 . S
C496 H499 0.930 . S
C497 C494 1.348 . S
C497 C495 1.356 . S
H498 C492 0.930 . S
H499 C496 0.930 . S
O500 Li440 1.956 . S
O500 Li441 1.970 . S
O500 Li442 1.961 . S
O500 C444 1.325 . S
O501 Li440 1.970 . S
O501 Li441 1.956 . S
O501 Li443 1.961 . S
O501 C450 1.325 . S
O502 Li440 1.961 . S
O502 Li442 1.956 . S
O502 Li443 1.970 . S
O502 C472 1.325 . S
O503 Li441 1.961 . S
O503 Li442 1.970 . S
O503 Li443 1.956 . S
O503 C478 1.325 . S
H504 C446 0.929 . S
H505 C447 0.930 . S
H506 C448 0.930 . S
H507 C449 0.930 . S
H508 C451 0.930 . S
H509 C453 0.929 . S
H510 C454 0.930 . S
H511 C455 0.930 . S
H512 C458 0.930 . S
H513 C461 0.929 . S
H514 C466 0.929 . S
H515 C467 0.930 . S
H516 C474 0.929 . S
H517 C475 0.930 . S
H518 C476 0.930 . S
H519 C477 0.930 . S
H520 C479 0.929 . S
H521 C480 0.930 . S
H522 C481 0.930 . S
H523 C482 0.930 . S
H524 C486 0.929 . S
H525 C488 0.930 . S
H526 C494 0.929 . S
H527 C495 0.930 . S
Li528 N545 1.990 . S
Li528 O588 1.956 . S
Li528 O589 1.970 . S
Li528 O590 1.961 . S
Li529 N553 1.990 . S
Li529 O588 1.970 . S
Li529 O589 1.956 . S
Li529 O591 1.961 . S
Li530 N575 1.990 . S
Li530 O588 1.961 . S
Li530 O590 1.956 . S
Li530 O591 1.970 . S
Li531 N581 1.990 . S
Li531 O589 1.961 . S
Li531 O590 1.970 . S
Li531 O591 1.956 . S
C532 C534 1.348 . S
C532 C535 1.356 . S
C532 O588 1.325 . S
N533 C536 1.314 . S
N533 C537 1.279 . S
C534 C532 1.348 . S
C534 C536 1.353 . S
C534 H592 0.929 . S
C535 C532 1.356 . S
C535 C537 1.358 . S
C535 H593 0.930 . S
C536 N533 1.314 . S
C536 C534 1.353 . S
C536 H594 0.930 . S
C537 N533 1.279 . S
C537 C535 1.358 . S
C537 H595 0.930 . S
C538 C541 1.348 . S
C538 C542 1.356 . S
C538 O589 1.325 . S
C539 N540 1.279 . S
C539 C542 1.358 . S
C539 H596 0.930 . S
N540 C539 1.279 . S
N540 C543 1.314 . S
C541 C538 1.348 . S
C541 C543 1.353 . S
C541 H597 0.929 . S
C542 C538 1.356 . S
C542 C539 1.358 . S
C542 H598 0.930 . S
C543 N540 1.314 . S
C543 C541 1.353 . S
C543 H599 0.930 . S
C544 N545 1.314 . S
C544 C549 1.353 . S
C544 H550 0.930 . S
N545 Li528 1.990 . S
N545 C544 1.314 . S
N545 C547 1.279 . S
C546 C547 1.358 . S
C546 C548 1.356 . S
C546 H600 0.930 . S
C547 N545 1.279 . S
C547 C546 1.358 . S
C547 H551 0.930 . S
C548 C546 1.356 . S
C548 C549 1.348 . S
C549 C544 1.353 . S
C549 C548 1.348 . S
C549 H601 0.929 . S
H550 C544 0.930 . S
H551 C547 0.930 . S
C552 N553 1.314 . S
C552 C554 1.353 . S
C552 H558 0.930 . S
N553 Li529 1.990 . S
N553 C552 1.314 . S
N553 C556 1.279 . S
C554 C552 1.353 . S
C554 C557 1.348 . S
C554 H602 0.929 . S
C555 C556 1.358 . S
C555 C557 1.356 . S
C555 H603 0.930 . S
C556 N553 1.279 . S
C556 C555 1.358 . S
C556 H559 0.930 . S
C557 C554 1.348 . S
C557 C555 1.356 . S
H558 C552 0.930 . S
H559 C556 0.930 . S
C560 C562 1.348 . S
C560 C563 1.356 . S
C560 O590 1.325 . S
N561 C564 1.314 . S
N561 C565 1.279 . S
C562 C560 1.348 . S
C562 C564 1.353 . S
C562 H604 0.929 . S
C563 C560 1.356 . S
C563 C565 1.358 . S
C563 H605 0.930 . S
C564 N561 1.314 . S
C564 C562 1.353 . S
C564 H606 0.930 . S
C565 N561 1.279 . S
C565 C563 1.358 . S
C565 H607 0.930 . S
C566 C567 1.348 . S
C566 C568 1.356 . S
C566 O591 1.325 . S
C567 C566 1.348 . S
C567 C569 1.353 . S
C567 H608 0.929 . S
C568 C566 1.356 . S
C568 C570 1.358 . S
C568 H609 0.930 . S
C569 C567 1.353 . S
C569 N571 1.314 . S
C569 H610 0.930 . S
C570 C568 1.358 . S
C570 N571 1.279 . S
C570 H611 0.930 . S
N571 C569 1.314 . S
N571 C570 1.279 . S
C572 C574 1.353 . S
C572 N575 1.314 . S
C572 H578 0.930 . S
C573 N575 1.279 . S
C573 C576 1.358 . S
C573 H579 0.930 . S
C574 C572 1.353 . S
C574 C577 1.348 . S
C574 H612 0.929 . S
N575 Li530 1.990 . S
N575 C572 1.314 . S
N575 C573 1.279 . S
C576 C573 1.358 . S
C576 C577 1.356 . S
C576 H613 0.930 . S
C577 C574 1.348 . S
C577 C576 1.356 . S
H578 C572 0.930 . S
H579 C573 0.930 . S
C580 N581 1.314 . S
C580 C582 1.353 . S
C580 H586 0.930 . S
N581 Li531 1.990 . S
N581 C580 1.314 . S
N581 C584 1.279 . S
C582 C580 1.353 . S
C582 C585 1.348 . S
C582 H614 0.929 . S
C583 C584 1.358 . S
C583 C585 1.356 . S
C583 H615 0.930 . S
C584 N581 1.279 . S
C584 C583 1.358 . S
C584 H587 0.930 . S
C585 C582 1.348 . S
C585 C583 1.356 . S
H586 C580 0.930 . S
H587 C584 0.930 . S
O588 Li528 1.956 . S
O588 Li529 1.970 . S
O588 Li530 1.961 . S
O588 C532 1.325 . S
O589 Li528 1.970 . S
O589 Li529 1.956 . S
O589 Li531 1.961 . S
O589 C538 1.325 . S
O590 Li528 1.961 . S
O590 Li530 1.956 . S
O590 Li531 1.970 . S
O590 C560 1.325 . S
O591 Li529 1.961 . S
O591 Li530 1.970 . S
O591 Li531 1.956 . S
O591 C566 1.325 . S
H592 C534 0.929 . S
H593 C535 0.930 . S
H594 C536 0.930 . S
H595 C537 0.930 . S
H596 C539 0.930 . S
H597 C541 0.929 . S
H598 C542 0.930 . S
H599 C543 0.930 . S
H600 C546 0.930 . S
H601 C549 0.929 . S
H602 C554 0.929 . S
H603 C555 0.930 . S
H604 C562 0.929 . S
H605 C563 0.930 . S
H606 C564 0.930 . S
H607 C565 0.930 . S
H608 C567 0.929 . S
H609 C568 0.930 . S
H610 C569 0.930 . S
H611 C570 0.930 . S
H612 C574 0.929 . S
H613 C576 0.930 . S
H614 C582 0.929 . S
H615 C583 0.930 . S
Li616 N633 1.990 . S
Li616 O676 1.956 . S
Li616 O677 1.970 . S
Li616 O678 1.961 . S
Li617 N641 1.990 . S
Li617 O676 1.970 . S
Li617 O677 1.956 . S
Li617 O679 1.961 . S
Li618 N663 1.990 . S
Li618 O676 1.961 . S
Li618 O678 1.956 . S
Li618 O679 1.970 . S
Li619 N669 1.990 . S
Li619 O677 1.961 . S
Li619 O678 1.970 . S
Li619 O679 1.956 . S
C620 C622 1.348 . S
C620 C623 1.356 . S
C620 O676 1.325 . S
N621 C624 1.314 . S
N621 C625 1.279 . S
C622 C620 1.348 . S
C622 C624 1.353 . S
C622 H680 0.929 . S
C623 C620 1.356 . S
C623 C625 1.358 . S
C623 H681 0.930 . S
C624 N621 1.314 . S
C624 C622 1.353 . S
C624 H682 0.930 . S
C625 N621 1.279 . S
C625 C623 1.358 . S
C625 H683 0.930 . S
C626 C629 1.348 . S
C626 C630 1.356 . S
C626 O677 1.325 . S
C627 N628 1.279 . S
C627 C630 1.358 . S
C627 H684 0.930 . S
N628 C627 1.279 . S
N628 C631 1.314 . S
C629 C626 1.348 . S
C629 C631 1.353 . S
C629 H685 0.929 . S
C630 C626 1.356 . S
C630 C627 1.358 . S
C630 H686 0.930 . S
C631 N628 1.314 . S
C631 C629 1.353 . S
C631 H687 0.930 . S
C632 N633 1.314 . S
C632 C637 1.353 . S
C632 H638 0.930 . S
N633 Li616 1.990 . S
N633 C632 1.314 . S
N633 C635 1.279 . S
C634 C635 1.358 . S
C634 C636 1.356 . S
C634 H688 0.930 . S
C635 N633 1.279 . S
C635 C634 1.358 . S
C635 H639 0.930 . S
C636 C634 1.356 . S
C636 C637 1.348 . S
C637 C632 1.353 . S
C637 C636 1.348 . S
C637 H689 0.929 . S
H638 C632 0.930 . S
H639 C635 0.930 . S
C640 N641 1.314 . S
C640 C642 1.353 . S
C640 H646 0.930 . S
N641 Li617 1.990 . S
N641 C640 1.314 . S
N641 C644 1.279 . S
C642 C640 1.353 . S
C642 C645 1.348 . S
C642 H690 0.929 . S
C643 C644 1.358 . S
C643 C645 1.356 . S
C643 H691 0.930 . S
C644 N641 1.279 . S
C644 C643 1.358 . S
C644 H647 0.930 . S
C645 C642 1.348 . S
C645 C643 1.356 . S
H646 C640 0.930 . S
H647 C644 0.930 . S
C648 C650 1.348 . S
C648 C651 1.356 . S
C648 O678 1.325 . S
N649 C652 1.314 . S
N649 C653 1.279 . S
C650 C648 1.348 . S
C650 C652 1.353 . S
C650 H692 0.929 . S
C651 C648 1.356 . S
C651 C653 1.358 . S
C651 H693 0.930 . S
C652 N649 1.314 . S
C652 C650 1.353 . S
C652 H694 0.930 . S
C653 N649 1.279 . S
C653 C651 1.358 . S
C653 H695 0.930 . S
C654 C655 1.348 . S
C654 C656 1.356 . S
C654 O679 1.325 . S
C655 C654 1.348 . S
C655 C657 1.353 . S
C655 H696 0.929 . S
C656 C654 1.356 . S
C656 C658 1.358 . S
C656 H697 0.930 . S
C657 C655 1.353 . S
C657 N659 1.314 . S
C657 H698 0.930 . S
C658 C656 1.358 . S
C658 N659 1.279 . S
C658 H699 0.930 . S
N659 C657 1.314 . S
N659 C658 1.279 . S
C660 C662 1.353 . S
C660 N663 1.314 . S
C660 H666 0.930 . S
C661 N663 1.279 . S
C661 C664 1.358 . S
C661 H667 0.930 . S
C662 C660 1.353 . S
C662 C665 1.348 . S
C662 H700 0.929 . S
N663 Li618 1.990 . S
N663 C660 1.314 . S
N663 C661 1.279 . S
C664 C661 1.358 . S
C664 C665 1.356 . S
C664 H701 0.930 . S
C665 C662 1.348 . S
C665 C664 1.356 . S
H666 C660 0.930 . S
H667 C661 0.930 . S
C668 N669 1.314 . S
C668 C670 1.353 . S
C668 H674 0.930 . S
N669 Li619 1.990 . S
N669 C668 1.314 . S
N669 C672 1.279 . S
C670 C668 1.353 . S
C670 C673 1.348 . S
C670 H702 0.929 . S
C671 C672 1.358 . S
C671 C673 1.356 . S
C671 H703 0.930 . S
C672 N669 1.279 . S
C672 C671 1.358 . S
C672 H675 0.930 . S
C673 C670 1.348 . S
C673 C671 1.356 . S
H674 C668 0.930 . S
H675 C672 0.930 . S
O676 Li616 1.956 . S
O676 Li617 1.970 . S
O676 Li618 1.961 . S
O676 C620 1.325 . S
O677 Li616 1.970 . S
O677 Li617 1.956 . S
O677 Li619 1.961 . S
O677 C626 1.325 . S
O678 Li616 1.961 . S
O678 Li618 1.956 . S
O678 Li619 1.970 . S
O678 C648 1.325 . S
O679 Li617 1.961 . S
O679 Li618 1.970 . S
O679 Li619 1.956 . S
O679 C654 1.325 . S
H680 C622 0.929 . S
H681 C623 0.930 . S
H682 C624 0.930 . S
H683 C625 0.930 . S
H684 C627 0.930 . S
H685 C629 0.929 . S
H686 C630 0.930 . S
H687 C631 0.930 . S
H688 C634 0.930 . S
H689 C637 0.929 . S
H690 C642 0.929 . S
H691 C643 0.930 . S
H692 C650 0.929 . S
H693 C651 0.930 . S
H694 C652 0.930 . S
H695 C653 0.930 . S
H696 C655 0.929 . S
H697 C656 0.930 . S
H698 C657 0.930 . S
H699 C658 0.930 . S
H700 C662 0.929 . S
H701 C664 0.930 . S
H702 C670 0.929 . S
H703 C671 0.930 . S
Li704 N721 1.990 . S
Li704 O764 1.956 . S
Li704 O765 1.970 . S
Li704 O766 1.961 . S
Li705 N729 1.990 . S
Li705 O764 1.970 . S
Li705 O765 1.956 . S
Li705 O767 1.961 . S
Li706 N751 1.990 . S
Li706 O764 1.961 . S
Li706 O766 1.956 . S
Li706 O767 1.970 . S
Li707 N757 1.990 . S
Li707 O765 1.961 . S
Li707 O766 1.970 . S
Li707 O767 1.956 . S
C708 C710 1.348 . S
C708 C711 1.356 . S
C708 O764 1.325 . S
N709 C712 1.314 . S
N709 C713 1.279 . S
C710 C708 1.348 . S
C710 C712 1.353 . S
C710 H768 0.929 . S
C711 C708 1.356 . S
C711 C713 1.358 . S
C711 H769 0.930 . S
C712 N709 1.314 . S
C712 C710 1.353 . S
C712 H770 0.930 . S
C713 N709 1.279 . S
C713 C711 1.358 . S
C713 H771 0.930 . S
C714 C717 1.348 . S
C714 C718 1.356 . S
C714 O765 1.325 . S
C715 N716 1.279 . S
C715 C718 1.358 . S
C715 H772 0.930 . S
N716 C715 1.279 . S
N716 C719 1.314 . S
C717 C714 1.348 . S
C717 C719 1.353 . S
C717 H773 0.929 . S
C718 C714 1.356 . S
C718 C715 1.358 . S
C718 H774 0.930 . S
C719 N716 1.314 . S
C719 C717 1.353 . S
C719 H775 0.930 . S
C720 N721 1.314 . S
C720 C725 1.353 . S
C720 H726 0.930 . S
N721 Li704 1.990 . S
N721 C720 1.314 . S
N721 C723 1.279 . S
C722 C723 1.358 . S
C722 C724 1.356 . S
C722 H776 0.930 . S
C723 N721 1.279 . S
C723 C722 1.358 . S
C723 H727 0.930 . S
C724 C722 1.356 . S
C724 C725 1.348 . S
C725 C720 1.353 . S
C725 C724 1.348 . S
C725 H777 0.929 . S
H726 C720 0.930 . S
H727 C723 0.930 . S
C728 N729 1.314 . S
C728 C730 1.353 . S
C728 H734 0.930 . S
N729 Li705 1.990 . S
N729 C728 1.314 . S
N729 C732 1.279 . S
C730 C728 1.353 . S
C730 C733 1.348 . S
C730 H778 0.929 . S
C731 C732 1.358 . S
C731 C733 1.356 . S
C731 H779 0.930 . S
C732 N729 1.279 . S
C732 C731 1.358 . S
C732 H735 0.930 . S
C733 C730 1.348 . S
C733 C731 1.356 . S
H734 C728 0.930 . S
H735 C732 0.930 . S
C736 C738 1.348 . S
C736 C739 1.356 . S
C736 O766 1.325 . S
N737 C740 1.314 . S
N737 C741 1.279 . S
C738 C736 1.348 . S
C738 C740 1.353 . S
C738 H780 0.929 . S
C739 C736 1.356 . S
C739 C741 1.358 . S
C739 H781 0.930 . S
C740 N737 1.314 . S
C740 C738 1.353 . S
C740 H782 0.930 . S
C741 N737 1.279 . S
C741 C739 1.358 . S
C741 H783 0.930 . S
C742 C743 1.348 . S
C742 C744 1.356 . S
C742 O767 1.325 . S
C743 C742 1.348 . S
C743 C745 1.353 . S
C743 H784 0.929 . S
C744 C742 1.356 . S
C744 C746 1.358 . S
C744 H785 0.930 . S
C745 C743 1.353 . S
C745 N747 1.314 . S
C745 H786 0.930 . S
C746 C744 1.358 . S
C746 N747 1.279 . S
C746 H787 0.930 . S
N747 C745 1.314 . S
N747 C746 1.279 . S
C748 C750 1.353 . S
C748 N751 1.314 . S
C748 H754 0.930 . S
C749 N751 1.279 . S
C749 C752 1.358 . S
C749 H755 0.930 . S
C750 C748 1.353 . S
C750 C753 1.348 . S
C750 H788 0.929 . S
N751 Li706 1.990 . S
N751 C748 1.314 . S
N751 C749 1.279 . S
C752 C749 1.358 . S
C752 C753 1.356 . S
C752 H789 0.930 . S
C753 C750 1.348 . S
C753 C752 1.356 . S
H754 C748 0.930 . S
H755 C749 0.930 . S
C756 N757 1.314 . S
C756 C758 1.353 . S
C756 H762 0.930 . S
N757 Li707 1.990 . S
N757 C756 1.314 . S
N757 C760 1.279 . S
C758 C756 1.353 . S
C758 C761 1.348 . S
C758 H790 0.929 . S
C759 C760 1.358 . S
C759 C761 1.356 . S
C759 H791 0.930 . S
C760 N757 1.279 . S
C760 C759 1.358 . S
C760 H763 0.930 . S
C761 C758 1.348 . S
C761 C759 1.356 . S
H762 C756 0.930 . S
H763 C760 0.930 . S
O764 Li704 1.956 . S
O764 Li705 1.970 . S
O764 Li706 1.961 . S
O764 C708 1.325 . S
O765 Li704 1.970 . S
O765 Li705 1.956 . S
O765 Li707 1.961 . S
O765 C714 1.325 . S
O766 Li704 1.961 . S
O766 Li706 1.956 . S
O766 Li707 1.970 . S
O766 C736 1.325 . S
O767 Li705 1.961 . S
O767 Li706 1.970 . S
O767 Li707 1.956 . S
O767 C742 1.325 . S
H768 C710 0.929 . S
H769 C711 0.930 . S
H770 C712 0.930 . S
H771 C713 0.930 . S
H772 C715 0.930 . S
H773 C717 0.929 . S
H774 C718 0.930 . S
H775 C719 0.930 . S
H776 C722 0.930 . S
H777 C725 0.929 . S
H778 C730 0.929 . S
H779 C731 0.930 . S
H780 C738 0.929 . S
H781 C739 0.930 . S
H782 C740 0.930 . S
H783 C741 0.930 . S
H784 C743 0.929 . S
H785 C744 0.930 . S
H786 C745 0.930 . S
H787 C746 0.930 . S
H788 C750 0.929 . S
H789 C752 0.930 . S
H790 C758 0.929 . S
H791 C759 0.930 . S
H792 C810 0.951 . S
H793 C812 0.951 . S
H794 C814 0.950 . S
H795 C815 0.950 . S
H796 C817 0.950 . S
H797 C820 0.950 . S
H798 C821 0.950 . S
H799 C823 0.950 . S
H800 C824 0.950 . S
H801 C825 0.951 . S
H802 C827 0.951 . S
H803 C829 0.950 . S
H804 C830 0.950 . S
H805 C832 0.950 . S
H806 C835 0.950 . S
H807 C836 0.950 . S
H808 C838 0.950 . S
H809 C839 0.950 . S
C810 H792 0.951 . S
C810 C811 1.366 . S
C810 C812 1.388 . S
C811 C810 1.366 . S
C811 C815 1.385 . S
C812 H793 0.951 . S
C812 C810 1.388 . S
C812 C813 1.366 . S
C813 C812 1.366 . S
C813 C814 1.414 . S
C813 C816 1.506 . S
C814 H794 0.950 . S
C814 C813 1.414 . S
C814 C815 1.374 . S
C815 H795 0.950 . S
C815 C811 1.385 . S
C815 C814 1.374 . S
C816 C813 1.506 . S
C816 C817 1.350 1_556 S
C816 C818 1.404 . S
C817 H796 0.950 . S
C817 C816 1.350 1_554 S
C817 C833 1.377 . S
C818 C816 1.404 . S
C818 C819 1.524 . S
C818 C832 1.377 . S
C819 C818 1.524 . S
C819 C820 1.397 . S
C819 C824 1.363 . S
C820 H797 0.950 . S
C820 C819 1.397 . S
C820 C821 1.334 . S
C821 H798 0.950 . S
C821 C820 1.334 . S
C821 C822 1.287 . S
C822 C821 1.287 . S
C822 C823 1.524 . S
C822 H841 0.913 . S
C823 H799 0.950 . S
C823 C822 1.524 . S
C823 C824 1.415 . S
C824 H800 0.950 . S
C824 C819 1.363 . S
C824 C823 1.415 . S
C825 H801 0.951 . S
C825 C826 1.366 . S
C825 C827 1.388 . S
C826 C825 1.366 . S
C826 C830 1.385 . S
C827 H802 0.951 . S
C827 C825 1.388 . S
C827 C828 1.366 . S
C828 C827 1.366 . S
C828 C829 1.414 . S
C828 C831 1.499 . S
C829 H803 0.950 . S
C829 C828 1.414 . S
C829 C830 1.374 . S
C830 H804 0.950 . S
C830 C826 1.385 . S
C830 C829 1.374 . S
C831 C828 1.499 . S
C831 C832 1.373 1_554 S
C831 C833 1.389 . S
C832 H805 0.950 . S
C832 C818 1.377 . S
C832 C831 1.373 1_556 S
C833 C817 1.377 . S
C833 C831 1.389 . S
C833 C834 1.524 . S
C834 C833 1.524 . S
C834 C835 1.397 . S
C834 C839 1.363 . S
C835 H806 0.950 . S
C835 C834 1.397 . S
C835 C836 1.334 . S
C836 H807 0.950 . S
C836 C835 1.334 . S
C836 C837 1.287 . S
C837 C836 1.287 . S
C837 C838 1.524 . S
C837 H840 0.999 . S
C838 H808 0.950 . S
C838 C837 1.524 . S
C838 C839 1.415 . S
C839 H809 0.950 . S
C839 C834 1.363 . S
C839 C838 1.415 . S
H840 C837 0.999 . S
H841 C822 0.913 . S
H842 C860 0.951 1_556 S
H843 C862 0.951 1_556 S
H844 C864 0.950 . S
H845 C865 0.950 . S
H846 C867 0.950 1_565 S
H847 C870 0.950 . S
H848 C871 0.950 . S
H849 C873 0.950 . S
H850 C874 0.950 1_545 S
H851 C875 0.951 . S
H852 C877 0.951 . S
H853 C879 0.950 . S
H854 C880 0.950 . S
H855 C882 0.953 . S
H856 C885 0.950 . S
H857 C886 0.950 . S
H858 C888 0.950 . S
H859 C889 0.950 . S
C860 H842 0.951 1_554 S
C860 C861 1.366 . S
C860 C862 1.388 . S
C861 C860 1.366 . S
C861 C865 1.385 . S
C862 H843 0.951 1_554 S
C862 C860 1.388 . S
C862 C863 1.366 . S
C863 C862 1.366 . S
C863 C864 1.414 . S
C863 C866 1.499 . S
C864 H844 0.950 . S
C864 C863 1.414 . S
C864 C865 1.374 . S
C865 H845 0.950 . S
C865 C861 1.385 . S
C865 C864 1.374 . S
C866 C863 1.499 . S
C866 C867 1.373 1_565 S
C866 C868 1.389 1_565 S
C867 H846 0.950 1_545 S
C867 C866 1.373 1_545 S
C867 C883 1.377 . S
C868 C866 1.389 1_545 S
C868 C869 1.524 1_545 S
C868 C882 1.373 1_554 S
C869 C868 1.524 1_565 S
C869 C870 1.397 . S
C869 C874 1.363 1_554 S
C870 H847 0.950 . S
C870 C869 1.397 . S
C870 C871 1.334 . S
C871 H848 0.950 . S
C871 C870 1.334 . S
C871 C872 1.287 . S
C872 C871 1.287 . S
C872 C873 1.524 1_554 S
C872 H891 0.913 . S
C873 H849 0.950 . S
C873 C872 1.524 1_556 S
C873 C874 1.415 . S
C874 H850 0.950 1_565 S
C874 C869 1.363 1_556 S
C874 C873 1.415 . S
C875 H851 0.951 . S
C875 C876 1.366 1_554 S
C875 C877 1.388 . S
C876 C875 1.366 1_556 S
C876 C880 1.385 . S
C877 H852 0.951 . S
C877 C875 1.388 . S
C877 C878 1.366 1_554 S
C878 C877 1.366 1_556 S
C878 C879 1.414 . S
C878 C881 1.504 . S
C879 H853 0.950 . S
C879 C878 1.414 . S
C879 C880 1.374 . S
C880 H854 0.950 . S
C880 C876 1.385 . S
C880 C879 1.374 . S
C881 C878 1.504 . S
C881 C882 1.373 . S
C881 C883 1.382 1_556 S
C882 H855 0.953 . S
C882 C868 1.373 1_556 S
C882 C881 1.373 . S
C883 C867 1.377 . S
C883 C881 1.382 1_554 S
C883 C884 1.524 . S
C884 C883 1.524 . S
C884 C885 1.397 1_554 S
C884 C889 1.363 . S
C885 H856 0.950 . S
C885 C884 1.397 1_556 S
C885 C886 1.334 . S
C886 H857 0.950 . S
C886 C885 1.334 . S
C886 C887 1.287 . S
C887 C886 1.287 . S
C887 C888 1.524 1_556 S
C887 H890 0.999 . S
C888 H858 0.950 . S
C888 C887 1.524 1_554 S
C888 C889 1.415 . S
C889 H859 0.950 . S
C889 C884 1.363 . S
C889 C888 1.415 . S
H890 C887 0.999 . S
H891 C872 0.913 . S
H892 C910 0.951 . S
H893 C912 0.951 . S
H894 C914 0.950 . S
H895 C915 0.950 . S
H896 C917 0.950 . S
H897 C920 0.950 . S
H898 C921 0.950 . S
H899 C923 0.950 . S
H900 C924 0.950 . S
H901 C925 0.951 . S
H902 C927 0.951 1_556 S
H903 C929 0.950 . S
H904 C930 0.950 . S
H905 C932 0.950 . S
H906 C935 0.950 . S
H907 C936 0.950 . S
H908 C938 0.950 . S
H909 C939 0.950 . S
C910 H892 0.951 . S
C910 C911 1.366 1_554 S
C910 C912 1.388 . S
C911 C910 1.366 1_556 S
C911 C915 1.385 . S
C912 H893 0.951 . S
C912 C910 1.388 . S
C912 C913 1.366 1_554 S
C913 C912 1.366 1_556 S
C913 C914 1.414 . S
C913 C916 1.499 1_556 S
C914 H894 0.950 . S
C914 C913 1.414 . S
C914 C915 1.374 . S
C915 H895 0.950 . S
C915 C911 1.385 . S
C915 C914 1.374 . S
C916 C913 1.499 1_554 S
C916 C917 1.373 1_654 S
C916 C918 1.393 . S
C917 H896 0.950 . S
C917 C916 1.373 1_456 S
C917 C933 1.377 . S
C918 C916 1.393 . S
C918 C919 1.530 . S
C918 C932 1.367 1_655 S
C919 C918 1.530 . S
C919 C920 1.397 . S
C919 C924 1.363 . S
C920 H897 0.950 . S
C920 C919 1.397 . S
C920 C921 1.334 . S
C921 H898 0.950 . S
C921 C920 1.334 . S
C921 C922 1.287 . S
C922 C921 1.287 . S
C922 C923 1.524 . S
C922 H941 0.913 . S
C923 H899 0.950 . S
C923 C922 1.524 . S
C923 C924 1.415 . S
C924 H900 0.950 . S
C924 C919 1.363 . S
C924 C923 1.415 . S
C925 H901 0.951 . S
C925 C926 1.366 . S
C925 C927 1.388 . S
C926 C925 1.366 . S
C926 C930 1.385 . S
C927 H902 0.951 1_554 S
C927 C925 1.388 . S
C927 C928 1.366 . S
C928 C927 1.366 . S
C928 C929 1.414 . S
C928 C931 1.499 . S
C929 H903 0.950 . S
C929 C928 1.414 . S
C929 C930 1.374 . S
C930 H904 0.950 . S
C930 C926 1.385 . S
C930 C929 1.374 . S
C931 C928 1.499 . S
C931 C932 1.373 . S
C931 C933 1.389 1_554 S
C932 H905 0.950 . S
C932 C918 1.367 1_455 S
C932 C931 1.373 . S
C933 C917 1.377 . S
C933 C931 1.389 1_556 S
C933 C934 1.524 . S
C934 C933 1.524 . S
C934 C935 1.397 . S
C934 C939 1.363 . S
C935 H906 0.950 . S
C935 C934 1.397 . S
C935 C936 1.334 . S
C936 H907 0.950 . S
C936 C935 1.334 . S
C936 C937 1.287 . S
C937 C936 1.287 . S
C937 C938 1.524 . S
C937 H940 0.999 . S
C938 H908 0.950 . S
C938 C937 1.524 . S
C938 C939 1.415 . S
C939 H909 0.950 . S
C939 C934 1.363 . S
C939 C938 1.415 . S
H940 C937 0.999 . S
H941 C922 0.913 . S
H942 C960 0.951 . S
H943 C962 0.951 . S
H944 C964 0.950 . S
H945 C965 0.950 . S
H946 C967 0.950 . S
H947 C970 0.950 . S
H948 C971 0.950 . S
H949 C973 0.950 . S
H950 C974 0.950 . S
H951 C975 0.951 . S
H952 C977 0.951 . S
H953 C979 0.950 . S
H954 C980 0.950 . S
H955 C982 0.950 . S
H956 C985 0.950 . S
H957 C986 0.950 . S
H958 C988 0.950 . S
H959 C989 0.950 . S
C960 H942 0.951 . S
C960 C961 1.366 . S
C960 C962 1.388 . S
C961 C960 1.366 . S
C961 C965 1.385 . S
C962 H943 0.951 . S
C962 C960 1.388 . S
C962 C963 1.366 . S
C963 C962 1.366 . S
C963 C964 1.414 . S
C963 C966 1.499 . S
C964 H944 0.950 . S
C964 C963 1.414 . S
C964 C965 1.374 . S
C965 H945 0.950 . S
C965 C961 1.385 . S
C965 C964 1.374 . S
C966 C963 1.499 . S
C966 C967 1.373 . S
C966 C968 1.389 . S
C967 H946 0.950 . S
C967 C966 1.373 . S
C967 C983 1.377 . S
C968 C966 1.389 . S
C968 C969 1.524 . S
C968 C982 1.377 . S
C969 C968 1.524 . S
C969 C970 1.397 . S
C969 C974 1.363 . S
C970 H947 0.950 . S
C970 C969 1.397 . S
C970 C971 1.334 . S
C971 H948 0.950 . S
C971 C970 1.334 . S
C971 C972 1.287 . S
C972 C971 1.287 . S
C972 C973 1.524 . S
C972 H991 0.913 . S
C973 H949 0.950 . S
C973 C972 1.524 . S
C973 C974 1.415 . S
C974 H950 0.950 . S
C974 C969 1.363 . S
C974 C973 1.415 . S
C975 H951 0.951 . S
C975 C976 1.366 . S
C975 C977 1.388 . S
C976 C975 1.366 . S
C976 C980 1.385 . S
C977 H952 0.951 . S
C977 C975 1.388 . S
C977 C978 1.366 . S
C978 C977 1.366 . S
C978 C979 1.414 . S
C978 C981 1.499 . S
C979 H953 0.950 . S
C979 C978 1.414 . S
C979 C980 1.374 . S
C980 H954 0.950 . S
C980 C976 1.385 . S
C980 C979 1.374 . S
C981 C978 1.499 . S
C981 C982 1.373 . S
C981 C983 1.389 . S
C982 H955 0.950 . S
C982 C968 1.377 . S
C982 C981 1.373 . S
C983 C967 1.377 . S
C983 C981 1.389 . S
C983 C984 1.524 . S
C984 C983 1.524 . S
C984 C985 1.397 . S
C984 C989 1.363 . S
C985 H956 0.950 . S
C985 C984 1.397 . S
C985 C986 1.334 . S
C986 H957 0.950 . S
C986 C985 1.334 . S
C986 C987 1.287 . S
C987 C986 1.287 . S
C987 C988 1.524 . S
C987 H990 0.999 . S
C988 H958 0.950 . S
C988 C987 1.524 . S
C988 C989 1.415 . S
C989 H959 0.950 . S
C989 C984 1.363 . S
C989 C988 1.415 . S
H990 C987 0.999 . S
H991 C972 0.913 . S
H992 C1010 0.951 . S
H993 C1012 0.951 . S
H994 C1014 0.950 . S
H995 C1015 0.950 . S
H996 C1017 0.950 . S
H997 C1020 0.950 . S
H998 C1021 0.950 . S
H999 C1023 0.950 . S
H1000 C1024 0.950 . S
H1001 C1025 0.951 . S
H1002 C1027 0.951 . S
H1003 C1029 0.950 . S
H1004 C1030 0.950 . S
H1005 C1032 0.950 . S
H1006 C1035 0.950 . S
H1007 C1036 0.950 . S
H1008 C1038 0.950 . S
H1009 C1039 0.950 . S
C1010 H992 0.951 . S
C1010 C1011 1.366 . S
C1010 C1012 1.388 . S
C1011 C1010 1.366 . S
C1011 C1015 1.385 . S
C1012 H993 0.951 . S
C1012 C1010 1.388 . S
C1012 C1013 1.366 . S
C1013 C1012 1.366 . S
C1013 C1014 1.414 . S
C1013 C1016 1.499 . S
C1014 H994 0.950 . S
C1014 C1013 1.414 . S
C1014 C1015 1.374 . S
C1015 H995 0.950 . S
C1015 C1011 1.385 . S
C1015 C1014 1.374 . S
C1016 C1013 1.499 . S
C1016 C1017 1.373 . S
C1016 C1018 1.389 . S
C1017 H996 0.950 . S
C1017 C1016 1.373 . S
C1017 C1033 1.377 . S
C1018 C1016 1.389 . S
C1018 C1019 1.524 . S
C1018 C1032 1.377 . S
C1019 C1018 1.524 . S
C1019 C1020 1.397 . S
C1019 C1024 1.363 . S
C1020 H997 0.950 . S
C1020 C1019 1.397 . S
C1020 C1021 1.334 . S
C1021 H998 0.950 . S
C1021 C1020 1.334 . S
C1021 C1022 1.287 . S
C1022 C1021 1.287 . S
C1022 C1023 1.524 . S
C1022 H1041 0.913 . S
C1023 H999 0.950 . S
C1023 C1022 1.524 . S
C1023 C1024 1.415 . S
C1024 H1000 0.950 . S
C1024 C1019 1.363 . S
C1024 C1023 1.415 . S
C1025 H1001 0.951 . S
C1025 C1026 1.366 . S
C1025 C1027 1.388 . S
C1026 C1025 1.366 . S
C1026 C1030 1.385 . S
C1027 H1002 0.951 . S
C1027 C1025 1.388 . S
C1027 C1028 1.366 . S
C1028 C1027 1.366 . S
C1028 C1029 1.414 . S
C1028 C1031 1.499 . S
C1029 H1003 0.950 . S
C1029 C1028 1.414 . S
C1029 C1030 1.374 . S
C1030 H1004 0.950 . S
C1030 C1026 1.385 . S
C1030 C1029 1.374 . S
C1031 C1028 1.499 . S
C1031 C1032 1.373 . S
C1031 C1033 1.389 . S
C1032 H1005 0.950 . S
C1032 C1018 1.377 . S
C1032 C1031 1.373 . S
C1033 C1017 1.377 . S
C1033 C1031 1.389 . S
C1033 C1034 1.524 . S
C1034 C1033 1.524 . S
C1034 C1035 1.397 . S
C1034 C1039 1.363 . S
C1035 H1006 0.950 . S
C1035 C1034 1.397 . S
C1035 C1036 1.334 . S
C1036 H1007 0.950 . S
C1036 C1035 1.334 . S
C1036 C1037 1.287 . S
C1037 C1036 1.287 . S
C1037 C1038 1.524 . S
C1037 H1040 0.999 . S
C1038 H1008 0.950 . S
C1038 C1037 1.524 . S
C1038 C1039 1.415 . S
C1039 H1009 0.950 . S
C1039 C1034 1.363 . S
C1039 C1038 1.415 . S
H1040 C1037 0.999 . S
H1041 C1022 0.913 . S
H1042 C1060 0.951 . S
H1043 C1062 0.951 . S
H1044 C1064 0.950 . S
H1045 C1065 0.950 . S
H1046 C1067 0.950 . S
H1047 C1070 0.950 . S
H1048 C1071 0.950 . S
H1049 C1073 0.950 . S
H1050 C1074 0.950 . S
H1051 C1075 0.951 . S
H1052 C1077 0.951 . S
H1053 C1079 0.950 . S
H1054 C1080 0.950 . S
H1055 C1082 0.950 . S
H1056 C1085 0.950 . S
H1057 C1086 0.950 . S
H1058 C1088 0.950 . S
H1059 C1089 0.950 . S
C1060 H1042 0.951 . S
C1060 C1061 1.366 . S
C1060 C1062 1.388 . S
C1061 C1060 1.366 . S
C1061 C1065 1.385 . S
C1062 H1043 0.951 . S
C1062 C1060 1.388 . S
C1062 C1063 1.366 . S
C1063 C1062 1.366 . S
C1063 C1064 1.414 . S
C1063 C1066 1.499 . S
C1064 H1044 0.950 . S
C1064 C1063 1.414 . S
C1064 C1065 1.374 . S
C1065 H1045 0.950 . S
C1065 C1061 1.385 . S
C1065 C1064 1.374 . S
C1066 C1063 1.499 . S
C1066 C1067 1.373 . S
C1066 C1068 1.389 . S
C1067 H1046 0.950 . S
C1067 C1066 1.373 . S
C1067 C1083 1.377 . S
C1068 C1066 1.389 . S
C1068 C1069 1.524 . S
C1068 C1082 1.377 . S
C1069 C1068 1.524 . S
C1069 C1070 1.397 . S
C1069 C1074 1.363 . S
C1070 H1047 0.950 . S
C1070 C1069 1.397 . S
C1070 C1071 1.334 . S
C1071 H1048 0.950 . S
C1071 C1070 1.334 . S
C1071 C1072 1.287 . S
C1072 C1071 1.287 . S
C1072 C1073 1.524 . S
C1072 H1091 0.913 . S
C1073 H1049 0.950 . S
C1073 C1072 1.524 . S
C1073 C1074 1.415 . S
C1074 H1050 0.950 . S
C1074 C1069 1.363 . S
C1074 C1073 1.415 . S
C1075 H1051 0.951 . S
C1075 C1076 1.366 . S
C1075 C1077 1.388 . S
C1076 C1075 1.366 . S
C1076 C1080 1.385 . S
C1077 H1052 0.951 . S
C1077 C1075 1.388 . S
C1077 C1078 1.366 . S
C1078 C1077 1.366 . S
C1078 C1079 1.414 . S
C1078 C1081 1.499 . S
C1079 H1053 0.950 . S
C1079 C1078 1.414 . S
C1079 C1080 1.374 . S
C1080 H1054 0.950 . S
C1080 C1076 1.385 . S
C1080 C1079 1.374 . S
C1081 C1078 1.499 . S
C1081 C1082 1.373 . S
C1081 C1083 1.389 . S
C1082 H1055 0.950 . S
C1082 C1068 1.377 . S
C1082 C1081 1.373 . S
C1083 C1067 1.377 . S
C1083 C1081 1.389 . S
C1083 C1084 1.524 . S
C1084 C1083 1.524 . S
C1084 C1085 1.397 . S
C1084 C1089 1.363 . S
C1085 H1056 0.950 . S
C1085 C1084 1.397 . S
C1085 C1086 1.334 . S
C1086 H1057 0.950 . S
C1086 C1085 1.334 . S
C1086 C1087 1.287 . S
C1087 C1086 1.287 . S
C1087 C1088 1.524 . S
C1087 H1090 0.999 . S
C1088 H1058 0.950 . S
C1088 C1087 1.524 . S
C1088 C1089 1.415 . S
C1089 H1059 0.950 . S
C1089 C1084 1.363 . S
C1089 C1088 1.415 . S
H1090 C1087 0.999 . S
H1091 C1072 0.913 . S
H1092 C1110 0.951 . S
H1093 C1112 0.951 . S
H1094 C1114 0.950 . S
H1095 C1115 0.950 . S
H1096 C1117 0.950 . S
H1097 C1120 0.950 . S
H1098 C1121 0.950 . S
H1099 C1123 0.950 . S
H1100 C1124 0.950 . S
H1101 C1125 0.951 . S
H1102 C1127 0.951 . S
H1103 C1129 0.950 . S
H1104 C1130 0.950 . S
H1105 C1132 0.950 . S
H1106 C1135 0.950 . S
H1107 C1136 0.950 . S
H1108 C1138 0.950 . S
H1109 C1139 0.950 . S
C1110 H1092 0.951 . S
C1110 C1111 1.366 . S
C1110 C1112 1.388 . S
C1111 C1110 1.366 . S
C1111 C1115 1.385 . S
C1112 H1093 0.951 . S
C1112 C1110 1.388 . S
C1112 C1113 1.366 . S
C1113 C1112 1.366 . S
C1113 C1114 1.414 . S
C1113 C1116 1.499 . S
C1114 H1094 0.950 . S
C1114 C1113 1.414 . S
C1114 C1115 1.374 . S
C1115 H1095 0.950 . S
C1115 C1111 1.385 . S
C1115 C1114 1.374 . S
C1116 C1113 1.499 . S
C1116 C1117 1.373 . S
C1116 C1118 1.389 . S
C1117 H1096 0.950 . S
C1117 C1116 1.373 . S
C1117 C1133 1.377 . S
C1118 C1116 1.389 . S
C1118 C1119 1.524 . S
C1118 C1132 1.377 . S
C1119 C1118 1.524 . S
C1119 C1120 1.397 . S
C1119 C1124 1.363 . S
C1120 H1097 0.950 . S
C1120 C1119 1.397 . S
C1120 C1121 1.334 . S
C1121 H1098 0.950 . S
C1121 C1120 1.334 . S
C1121 C1122 1.287 . S
C1122 C1121 1.287 . S
C1122 C1123 1.524 . S
C1122 H1141 0.913 . S
C1123 H1099 0.950 . S
C1123 C1122 1.524 . S
C1123 C1124 1.415 . S
C1124 H1100 0.950 . S
C1124 C1119 1.363 . S
C1124 C1123 1.415 . S
C1125 H1101 0.951 . S
C1125 C1126 1.366 . S
C1125 C1127 1.388 . S
C1126 C1125 1.366 . S
C1126 C1130 1.385 . S
C1127 H1102 0.951 . S
C1127 C1125 1.388 . S
C1127 C1128 1.366 . S
C1128 C1127 1.366 . S
C1128 C1129 1.414 . S
C1128 C1131 1.499 . S
C1129 H1103 0.950 . S
C1129 C1128 1.414 . S
C1129 C1130 1.374 . S
C1130 H1104 0.950 . S
C1130 C1126 1.385 . S
C1130 C1129 1.374 . S
C1131 C1128 1.499 . S
C1131 C1132 1.373 . S
C1131 C1133 1.389 . S
C1132 H1105 0.950 . S
C1132 C1118 1.377 . S
C1132 C1131 1.373 . S
C1133 C1117 1.377 . S
C1133 C1131 1.389 . S
C1133 C1134 1.524 . S
C1134 C1133 1.524 . S
C1134 C1135 1.397 . S
C1134 C1139 1.363 . S
C1135 H1106 0.950 . S
C1135 C1134 1.397 . S
C1135 C1136 1.334 . S
C1136 H1107 0.950 . S
C1136 C1135 1.334 . S
C1136 C1137 1.287 . S
C1137 C1136 1.287 . S
C1137 C1138 1.524 . S
C1137 H1140 0.999 . S
C1138 H1108 0.950 . S
C1138 C1137 1.524 . S
C1138 C1139 1.415 . S
C1139 H1109 0.950 . S
C1139 C1134 1.363 . S
C1139 C1138 1.415 . S
H1140 C1137 0.999 . S
H1141 C1122 0.913 . S
H1142 C1160 0.951 . S
H1143 C1162 0.951 . S
H1144 C1164 0.950 . S
H1145 C1165 0.950 . S
H1146 C1167 0.950 . S
H1147 C1170 0.950 . S
H1148 C1171 0.950 . S
H1149 C1173 0.950 . S
H1150 C1174 0.950 . S
H1151 C1175 0.951 . S
H1152 C1177 0.951 . S
H1153 C1179 0.950 . S
H1154 C1180 0.950 . S
H1155 C1182 0.950 . S
H1156 C1185 0.950 . S
H1157 C1186 0.950 . S
H1158 C1188 0.950 . S
H1159 C1189 0.950 . S
C1160 H1142 0.951 . S
C1160 C1161 1.366 . S
C1160 C1162 1.388 . S
C1161 C1160 1.366 . S
C1161 C1165 1.385 . S
C1162 H1143 0.951 . S
C1162 C1160 1.388 . S
C1162 C1163 1.366 . S
C1163 C1162 1.366 . S
C1163 C1164 1.414 . S
C1163 C1166 1.499 . S
C1164 H1144 0.950 . S
C1164 C1163 1.414 . S
C1164 C1165 1.374 . S
C1165 H1145 0.950 . S
C1165 C1161 1.385 . S
C1165 C1164 1.374 . S
C1166 C1163 1.499 . S
C1166 C1167 1.373 . S
C1166 C1168 1.389 . S
C1167 H1146 0.950 . S
C1167 C1166 1.373 . S
C1167 C1183 1.377 . S
C1168 C1166 1.389 . S
C1168 C1169 1.524 . S
C1168 C1182 1.377 . S
C1169 C1168 1.524 . S
C1169 C1170 1.397 . S
C1169 C1174 1.363 . S
C1170 H1147 0.950 . S
C1170 C1169 1.397 . S
C1170 C1171 1.334 . S
C1171 H1148 0.950 . S
C1171 C1170 1.334 . S
C1171 C1172 1.287 . S
C1172 C1171 1.287 . S
C1172 C1173 1.524 . S
C1172 H1191 0.913 . S
C1173 H1149 0.950 . S
C1173 C1172 1.524 . S
C1173 C1174 1.415 . S
C1174 H1150 0.950 . S
C1174 C1169 1.363 . S
C1174 C1173 1.415 . S
C1175 H1151 0.951 . S
C1175 C1176 1.366 . S
C1175 C1177 1.388 . S
C1176 C1175 1.366 . S
C1176 C1180 1.385 . S
C1177 H1152 0.951 . S
C1177 C1175 1.388 . S
C1177 C1178 1.366 . S
C1178 C1177 1.366 . S
C1178 C1179 1.414 . S
C1178 C1181 1.499 . S
C1179 H1153 0.950 . S
C1179 C1178 1.414 . S
C1179 C1180 1.374 . S
C1180 H1154 0.950 . S
C1180 C1176 1.385 . S
C1180 C1179 1.374 . S
C1181 C1178 1.499 . S
C1181 C1182 1.373 . S
C1181 C1183 1.389 . S
C1182 H1155 0.950 . S
C1182 C1168 1.377 . S
C1182 C1181 1.373 . S
C1183 C1167 1.377 . S
C1183 C1181 1.389 . S
C1183 C1184 1.524 . S
C1184 C1183 1.524 . S
C1184 C1185 1.397 . S
C1184 C1189 1.363 . S
C1185 H1156 0.950 . S
C1185 C1184 1.397 . S
C1185 C1186 1.334 . S
C1186 H1157 0.950 . S
C1186 C1185 1.334 . S
C1186 C1187 1.287 . S
C1187 C1186 1.287 . S
C1187 C1188 1.524 . S
C1187 H1190 0.999 . S
C1188 H1158 0.950 . S
C1188 C1187 1.524 . S
C1188 C1189 1.415 . S
C1189 H1159 0.950 . S
C1189 C1184 1.363 . S
C1189 C1188 1.415 . S
H1190 C1187 0.999 . S
H1191 C1172 0.913 . S
H1192 C1210 0.951 . S
H1193 C1212 0.951 . S
H1194 C1214 0.950 . S
H1195 C1215 0.950 . S
H1196 C1217 0.950 . S
H1197 C1220 0.950 . S
H1198 C1221 0.950 . S
H1199 C1223 0.950 . S
H1200 C1224 0.950 . S
H1201 C1225 0.951 . S
H1202 C1227 0.951 . S
H1203 C1229 0.950 . S
H1204 C1230 0.950 . S
H1205 C1232 0.950 . S
H1206 C1235 0.950 . S
H1207 C1236 0.950 . S
H1208 C1238 0.950 . S
H1209 C1239 0.950 . S
C1210 H1192 0.951 . S
C1210 C1211 1.366 . S
C1210 C1212 1.388 . S
C1211 C1210 1.366 . S
C1211 C1215 1.385 . S
C1212 H1193 0.951 . S
C1212 C1210 1.388 . S
C1212 C1213 1.366 . S
C1213 C1212 1.366 . S
C1213 C1214 1.414 . S
C1213 C1216 1.499 . S
C1214 H1194 0.950 . S
C1214 C1213 1.414 . S
C1214 C1215 1.374 . S
C1215 H1195 0.950 . S
C1215 C1211 1.385 . S
C1215 C1214 1.374 . S
C1216 C1213 1.499 . S
C1216 C1217 1.373 . S
C1216 C1218 1.389 . S
C1217 H1196 0.950 . S
C1217 C1216 1.373 . S
C1217 C1233 1.377 . S
C1218 C1216 1.389 . S
C1218 C1219 1.524 . S
C1218 C1232 1.377 . S
C1219 C1218 1.524 . S
C1219 C1220 1.397 . S
C1219 C1224 1.363 . S
C1220 H1197 0.950 . S
C1220 C1219 1.397 . S
C1220 C1221 1.334 . S
C1221 H1198 0.950 . S
C1221 C1220 1.334 . S
C1221 C1222 1.287 . S
C1222 C1221 1.287 . S
C1222 C1223 1.524 . S
C1222 H1241 0.913 . S
C1223 H1199 0.950 . S
C1223 C1222 1.524 . S
C1223 C1224 1.415 . S
C1224 H1200 0.950 . S
C1224 C1219 1.363 . S
C1224 C1223 1.415 . S
C1225 H1201 0.951 . S
C1225 C1226 1.366 . S
C1225 C1227 1.388 . S
C1226 C1225 1.366 . S
C1226 C1230 1.385 . S
C1227 H1202 0.951 . S
C1227 C1225 1.388 . S
C1227 C1228 1.366 . S
C1228 C1227 1.366 . S
C1228 C1229 1.414 . S
C1228 C1231 1.499 . S
C1229 H1203 0.950 . S
C1229 C1228 1.414 . S
C1229 C1230 1.374 . S
C1230 H1204 0.950 . S
C1230 C1226 1.385 . S
C1230 C1229 1.374 . S
C1231 C1228 1.499 . S
C1231 C1232 1.373 . S
C1231 C1233 1.389 . S
C1232 H1205 0.950 . S
C1232 C1218 1.377 . S
C1232 C1231 1.373 . S
C1233 C1217 1.377 . S
C1233 C1231 1.389 . S
C1233 C1234 1.524 . S
C1234 C1233 1.524 . S
C1234 C1235 1.397 . S
C1234 C1239 1.363 . S
C1235 H1206 0.950 . S
C1235 C1234 1.397 . S
C1235 C1236 1.334 . S
C1236 H1207 0.950 . S
C1236 C1235 1.334 . S
C1236 C1237 1.287 . S
C1237 C1236 1.287 . S
C1237 C1238 1.524 . S
C1237 H1240 0.999 . S
C1238 H1208 0.950 . S
C1238 C1237 1.524 . S
C1238 C1239 1.415 . S
C1239 H1209 0.950 . S
C1239 C1234 1.363 . S
C1239 C1238 1.415 . S
H1240 C1237 0.999 . S
H1241 C1222 0.913 . S
H1242 C1260 0.951 . S
H1243 C1262 0.951 . S
H1244 C1264 0.950 . S
H1245 C1265 0.950 . S
H1246 C1267 0.950 . S
H1247 C1270 0.950 . S
H1248 C1271 0.950 . S
H1249 C1273 0.950 . S
H1250 C1274 0.950 . S
H1251 C1275 0.951 . S
H1252 C1277 0.951 . S
H1253 C1279 0.950 . S
H1254 C1280 0.950 . S
H1255 C1282 0.950 . S
H1256 C1285 0.950 . S
H1257 C1286 0.950 . S
H1258 C1288 0.950 . S
H1259 C1289 0.950 . S
C1260 H1242 0.951 . S
C1260 C1261 1.366 . S
C1260 C1262 1.388 . S
C1261 C1260 1.366 . S
C1261 C1265 1.385 . S
C1262 H1243 0.951 . S
C1262 C1260 1.388 . S
C1262 C1263 1.366 . S
C1263 C1262 1.366 . S
C1263 C1264 1.414 . S
C1263 C1266 1.499 . S
C1264 H1244 0.950 . S
C1264 C1263 1.414 . S
C1264 C1265 1.374 . S
C1265 H1245 0.950 . S
C1265 C1261 1.385 . S
C1265 C1264 1.374 . S
C1266 C1263 1.499 . S
C1266 C1267 1.373 . S
C1266 C1268 1.389 . S
C1267 H1246 0.950 . S
C1267 C1266 1.373 . S
C1267 C1283 1.377 . S
C1268 C1266 1.389 . S
C1268 C1269 1.524 . S
C1268 C1282 1.377 . S
C1269 C1268 1.524 . S
C1269 C1270 1.397 . S
C1269 C1274 1.363 . S
C1270 H1247 0.950 . S
C1270 C1269 1.397 . S
C1270 C1271 1.334 . S
C1271 H1248 0.950 . S
C1271 C1270 1.334 . S
C1271 C1272 1.287 1_455 S
C1272 C1271 1.287 1_655 S
C1272 C1273 1.524 . S
C1272 H1291 0.913 . S
C1273 H1249 0.950 . S
C1273 C1272 1.524 . S
C1273 C1274 1.415 1_655 S
C1274 H1250 0.950 . S
C1274 C1269 1.363 . S
C1274 C1273 1.415 1_455 S
C1275 H1251 0.951 . S
C1275 C1276 1.366 . S
C1275 C1277 1.388 . S
C1276 C1275 1.366 . S
C1276 C1280 1.385 . S
C1277 H1252 0.951 . S
C1277 C1275 1.388 . S
C1277 C1278 1.366 . S
C1278 C1277 1.366 . S
C1278 C1279 1.414 . S
C1278 C1281 1.499 . S
C1279 H1253 0.950 . S
C1279 C1278 1.414 . S
C1279 C1280 1.374 . S
C1280 H1254 0.950 . S
C1280 C1276 1.385 . S
C1280 C1279 1.374 . S
C1281 C1278 1.499 . S
C1281 C1282 1.373 . S
C1281 C1283 1.389 . S
C1282 H1255 0.950 . S
C1282 C1268 1.377 . S
C1282 C1281 1.373 . S
C1283 C1267 1.377 . S
C1283 C1281 1.389 . S
C1283 C1284 1.524 . S
C1284 C1283 1.524 . S
C1284 C1285 1.397 . S
C1284 C1289 1.363 . S
C1285 H1256 0.950 . S
C1285 C1284 1.397 . S
C1285 C1286 1.334 . S
C1286 H1257 0.950 . S
C1286 C1285 1.334 . S
C1286 C1287 1.287 . S
C1287 C1286 1.287 . S
C1287 C1288 1.524 . S
C1287 H1290 0.999 . S
C1288 H1258 0.950 . S
C1288 C1287 1.524 . S
C1288 C1289 1.415 . S
C1289 H1259 0.950 . S
C1289 C1284 1.363 . S
C1289 C1288 1.415 . S
H1290 C1287 0.999 . S
H1291 C1272 0.913 . S
H1292 C1310 0.951 . S
H1293 C1312 0.951 . S
H1294 C1314 0.950 . S
H1295 C1315 0.950 . S
H1296 C1317 0.950 . S
H1297 C1320 0.950 . S
H1298 C1321 0.950 . S
H1299 C1323 0.950 . S
H1300 C1324 0.950 . S
H1301 C1325 0.951 . S
H1302 C1327 0.951 . S
H1303 C1329 0.950 . S
H1304 C1330 0.950 . S
H1305 C1332 0.950 . S
H1306 C1335 0.950 . S
H1307 C1336 0.950 . S
H1308 C1338 0.950 . S
H1309 C1339 0.950 . S
C1310 H1292 0.951 . S
C1310 C1311 1.366 . S
C1310 C1312 1.388 . S
C1311 C1310 1.366 . S
C1311 C1315 1.385 . S
C1312 H1293 0.951 . S
C1312 C1310 1.388 . S
C1312 C1313 1.366 . S
C1313 C1312 1.366 . S
C1313 C1314 1.414 . S
C1313 C1316 1.499 . S
C1314 H1294 0.950 . S
C1314 C1313 1.414 . S
C1314 C1315 1.374 . S
C1315 H1295 0.950 . S
C1315 C1311 1.385 . S
C1315 C1314 1.374 . S
C1316 C1313 1.499 . S
C1316 C1317 1.373 . S
C1316 C1318 1.389 . S
C1317 H1296 0.950 . S
C1317 C1316 1.373 . S
C1317 C1333 1.377 . S
C1318 C1316 1.389 . S
C1318 C1319 1.524 . S
C1318 C1332 1.377 . S
C1319 C1318 1.524 . S
C1319 C1320 1.397 . S
C1319 C1324 1.363 . S
C1320 H1297 0.950 . S
C1320 C1319 1.397 . S
C1320 C1321 1.334 . S
C1321 H1298 0.950 . S
C1321 C1320 1.334 . S
C1321 C1322 1.287 . S
C1322 C1321 1.287 . S
C1322 C1323 1.524 . S
C1322 H1341 0.913 . S
C1323 H1299 0.950 . S
C1323 C1322 1.524 . S
C1323 C1324 1.415 . S
C1324 H1300 0.950 . S
C1324 C1319 1.363 . S
C1324 C1323 1.415 . S
C1325 H1301 0.951 . S
C1325 C1326 1.366 . S
C1325 C1327 1.388 . S
C1326 C1325 1.366 . S
C1326 C1330 1.385 . S
C1327 H1302 0.951 . S
C1327 C1325 1.388 . S
C1327 C1328 1.366 . S
C1328 C1327 1.366 . S
C1328 C1329 1.414 . S
C1328 C1331 1.499 . S
C1329 H1303 0.950 . S
C1329 C1328 1.414 . S
C1329 C1330 1.374 . S
C1330 H1304 0.950 . S
C1330 C1326 1.385 . S
C1330 C1329 1.374 . S
C1331 C1328 1.499 . S
C1331 C1332 1.373 . S
C1331 C1333 1.389 . S
C1332 H1305 0.950 . S
C1332 C1318 1.377 . S
C1332 C1331 1.373 . S
C1333 C1317 1.377 . S
C1333 C1331 1.389 . S
C1333 C1334 1.524 . S
C1334 C1333 1.524 . S
C1334 C1335 1.397 . S
C1334 C1339 1.363 . S
C1335 H1306 0.950 . S
C1335 C1334 1.397 . S
C1335 C1336 1.334 . S
C1336 H1307 0.950 . S
C1336 C1335 1.334 . S
C1336 C1337 1.287 . S
C1337 C1336 1.287 . S
C1337 C1338 1.524 . S
C1337 H1340 0.999 . S
C1338 H1308 0.950 . S
C1338 C1337 1.524 . S
C1338 C1339 1.415 . S
C1339 H1309 0.950 . S
C1339 C1334 1.363 . S
C1339 C1338 1.415 . S
H1340 C1337 0.999 . S
H1341 C1322 0.913 . S
H1342 C1360 0.951 . S
H1343 C1362 0.951 . S
H1344 C1364 0.950 . S
H1345 C1365 0.950 . S
H1346 C1367 0.950 . S
H1347 C1370 0.950 . S
H1348 C1371 0.950 . S
H1349 C1373 0.950 . S
H1350 C1374 0.950 . S
H1351 C1375 0.987 . S
H1352 C1377 0.951 . S
H1353 C1379 0.950 . S
H1354 C1380 0.950 . S
H1355 C1382 0.950 . S
H1356 C1385 0.950 . S
H1357 C1386 0.950 . S
H1358 C1388 0.950 . S
H1359 C1389 0.950 . S
C1360 H1342 0.951 . S
C1360 C1361 1.366 . S
C1360 C1362 1.388 . S
C1361 C1360 1.366 . S
C1361 C1365 1.385 . S
C1362 H1343 0.951 . S
C1362 C1360 1.388 . S
C1362 C1363 1.366 . S
C1363 C1362 1.366 . S
C1363 C1364 1.414 . S
C1363 C1366 1.499 . S
C1364 H1344 0.950 . S
C1364 C1363 1.414 . S
C1364 C1365 1.374 . S
C1365 H1345 0.950 . S
C1365 C1361 1.385 . S
C1365 C1364 1.374 . S
C1366 C1363 1.499 . S
C1366 C1367 1.373 . S
C1366 C1368 1.389 . S
C1367 H1346 0.950 . S
C1367 C1366 1.373 . S
C1367 C1383 1.377 . S
C1368 C1366 1.389 . S
C1368 C1369 1.524 . S
C1368 C1382 1.377 . S
C1369 C1368 1.524 . S
C1369 C1370 1.397 . S
C1369 C1374 1.363 . S
C1370 H1347 0.950 . S
C1370 C1369 1.397 . S
C1370 C1371 1.334 . S
C1371 H1348 0.950 . S
C1371 C1370 1.334 . S
C1371 C1372 1.287 . S
C1372 C1371 1.287 . S
C1372 C1373 1.524 . S
C1372 H1391 0.913 . S
C1373 H1349 0.950 . S
C1373 C1372 1.524 . S
C1373 C1374 1.415 . S
C1374 H1350 0.950 . S
C1374 C1369 1.363 . S
C1374 C1373 1.415 . S
C1375 H1351 0.987 . S
C1375 C1376 1.366 . S
C1375 C1377 1.388 . S
C1376 C1375 1.366 . S
C1376 C1380 1.385 . S
C1377 H1352 0.951 . S
C1377 C1375 1.388 . S
C1377 C1378 1.366 . S
C1378 C1377 1.366 . S
C1378 C1379 1.414 . S
C1378 C1381 1.499 . S
C1379 H1353 0.950 . S
C1379 C1378 1.414 . S
C1379 C1380 1.374 . S
C1380 H1354 0.950 . S
C1380 C1376 1.385 . S
C1380 C1379 1.374 . S
C1381 C1378 1.499 . S
C1381 C1382 1.373 . S
C1381 C1383 1.389 . S
C1382 H1355 0.950 . S
C1382 C1368 1.377 . S
C1382 C1381 1.373 . S
C1383 C1367 1.377 . S
C1383 C1381 1.389 . S
C1383 C1384 1.524 1_565 S
C1384 C1383 1.524 1_545 S
C1384 C1385 1.397 . S
C1384 C1389 1.363 . S
C1385 H1356 0.950 . S
C1385 C1384 1.397 . S
C1385 C1386 1.334 . S
C1386 H1357 0.950 . S
C1386 C1385 1.334 . S
C1386 C1387 1.287 . S
C1387 C1386 1.287 . S
C1387 C1388 1.524 . S
C1387 H1390 0.999 . S
C1388 H1358 0.950 . S
C1388 C1387 1.524 . S
C1388 C1389 1.415 . S
C1389 H1359 0.950 . S
C1389 C1384 1.363 . S
C1389 C1388 1.415 . S
H1390 C1387 0.999 . S
H1391 C1372 0.913 . S
H1392 C1410 0.951 . S
H1393 C1412 0.951 . S
H1394 C1414 0.950 . S
H1395 C1415 0.950 . S
H1396 C1417 0.950 . S
H1397 C1420 0.950 . S
H1398 C1421 0.950 . S
H1399 C1423 0.950 . S
H1400 C1424 0.950 . S
H1401 C1425 0.951 . S
H1402 C1427 0.951 . S
H1403 C1429 0.950 . S
H1404 C1430 0.950 . S
H1405 C1432 0.950 . S
H1406 C1435 0.950 . S
H1407 C1436 0.950 . S
H1408 C1438 0.950 . S
H1409 C1439 0.950 . S
C1410 H1392 0.951 . S
C1410 C1411 1.366 . S
C1410 C1412 1.388 . S
C1411 C1410 1.366 . S
C1411 C1415 1.385 . S
C1412 H1393 0.951 . S
C1412 C1410 1.388 . S
C1412 C1413 1.366 . S
C1413 C1412 1.366 . S
C1413 C1414 1.414 . S
C1413 C1416 1.499 . S
C1414 H1394 0.950 . S
C1414 C1413 1.414 . S
C1414 C1415 1.374 . S
C1415 H1395 0.950 . S
C1415 C1411 1.385 . S
C1415 C1414 1.374 . S
C1416 C1413 1.499 . S
C1416 C1417 1.373 . S
C1416 C1418 1.389 . S
C1417 H1396 0.950 . S
C1417 C1416 1.373 . S
C1417 C1433 1.377 . S
C1418 C1416 1.389 . S
C1418 C1419 1.524 . S
C1418 C1432 1.377 . S
C1419 C1418 1.524 . S
C1419 C1420 1.397 . S
C1419 C1424 1.363 . S
C1420 H1397 0.950 . S
C1420 C1419 1.397 . S
C1420 C1421 1.334 . S
C1421 H1398 0.950 . S
C1421 C1420 1.334 . S
C1421 C1422 1.287 . S
C1422 C1421 1.287 . S
C1422 C1423 1.524 . S
C1422 H1441 0.913 . S
C1423 H1399 0.950 . S
C1423 C1422 1.524 . S
C1423 C1424 1.415 . S
C1424 H1400 0.950 . S
C1424 C1419 1.363 . S
C1424 C1423 1.415 . S
C1425 H1401 0.951 . S
C1425 C1426 1.366 . S
C1425 C1427 1.388 . S
C1426 C1425 1.366 . S
C1426 C1430 1.385 . S
C1427 H1402 0.951 . S
C1427 C1425 1.388 . S
C1427 C1428 1.366 . S
C1428 C1427 1.366 . S
C1428 C1429 1.414 . S
C1428 C1431 1.499 . S
C1429 H1403 0.950 . S
C1429 C1428 1.414 . S
C1429 C1430 1.374 . S
C1430 H1404 0.950 . S
C1430 C1426 1.385 . S
C1430 C1429 1.374 . S
C1431 C1428 1.499 . S
C1431 C1432 1.373 . S
C1431 C1433 1.389 . S
C1432 H1405 0.950 . S
C1432 C1418 1.377 . S
C1432 C1431 1.373 . S
C1433 C1417 1.377 . S
C1433 C1431 1.389 . S
C1433 C1434 1.524 . S
C1434 C1433 1.524 . S
C1434 C1435 1.397 . S
C1434 C1439 1.363 . S
C1435 H1406 0.950 . S
C1435 C1434 1.397 . S
C1435 C1436 1.334 1_545 S
C1436 H1407 0.950 . S
C1436 C1435 1.334 1_565 S
C1436 C1437 1.287 . S
C1437 C1436 1.287 . S
C1437 C1438 1.524 . S
C1437 H1440 0.999 . S
C1438 H1408 0.950 . S
C1438 C1437 1.524 . S
C1438 C1439 1.415 1_565 S
C1439 H1409 0.950 . S
C1439 C1434 1.363 . S
C1439 C1438 1.415 1_545 S
H1440 C1437 0.999 . S
H1441 C1422 0.913 . S
H1442 C1460 0.951 . S
H1443 C1462 0.951 . S
H1444 C1464 0.950 . S
H1445 C1465 0.950 . S
H1446 C1467 0.950 . S
H1447 C1470 0.950 . S
H1448 C1471 0.950 . S
H1449 C1473 0.950 . S
H1450 C1474 0.950 . S
H1451 C1475 0.951 . S
H1452 C1477 0.951 . S
H1453 C1479 0.950 . S
H1454 C1480 0.950 . S
H1455 C1482 0.950 . S
H1456 C1485 0.950 . S
H1457 C1486 0.950 . S
H1458 C1488 0.950 . S
H1459 C1489 0.950 . S
C1460 H1442 0.951 . S
C1460 C1461 1.366 . S
C1460 C1462 1.388 . S
C1461 C1460 1.366 . S
C1461 C1465 1.385 1_655 S
C1462 H1443 0.951 . S
C1462 C1460 1.388 . S
C1462 C1463 1.366 . S
C1463 C1462 1.366 . S
C1463 C1464 1.414 1_655 S
C1463 C1466 1.499 . S
C1464 H1444 0.950 . S
C1464 C1463 1.414 1_455 S
C1464 C1465 1.374 . S
C1465 H1445 0.950 . S
C1465 C1461 1.385 1_455 S
C1465 C1464 1.374 . S
C1466 C1463 1.499 . S
C1466 C1467 1.373 . S
C1466 C1468 1.389 . S
C1467 H1446 0.950 . S
C1467 C1466 1.373 . S
C1467 C1483 1.377 . S
C1468 C1466 1.389 . S
C1468 C1469 1.524 . S
C1468 C1482 1.377 . S
C1469 C1468 1.524 . S
C1469 C1470 1.397 . S
C1469 C1474 1.363 . S
C1470 H1447 0.950 . S
C1470 C1469 1.397 . S
C1470 C1471 1.334 . S
C1471 H1448 0.950 . S
C1471 C1470 1.334 . S
C1471 C1472 1.287 . S
C1472 C1471 1.287 . S
C1472 C1473 1.524 . S
C1472 H1491 0.913 . S
C1473 H1449 0.950 . S
C1473 C1472 1.524 . S
C1473 C1474 1.415 . S
C1474 H1450 0.950 . S
C1474 C1469 1.363 . S
C1474 C1473 1.415 . S
C1475 H1451 0.951 . S
C1475 C1476 1.366 . S
C1475 C1477 1.388 . S
C1476 C1475 1.366 . S
C1476 C1480 1.385 . S
C1477 H1452 0.951 . S
C1477 C1475 1.388 . S
C1477 C1478 1.366 . S
C1478 C1477 1.366 . S
C1478 C1479 1.414 . S
C1478 C1481 1.499 . S
C1479 H1453 0.950 . S
C1479 C1478 1.414 . S
C1479 C1480 1.374 . S
C1480 H1454 0.950 . S
C1480 C1476 1.385 . S
C1480 C1479 1.374 . S
C1481 C1478 1.499 . S
C1481 C1482 1.373 . S
C1481 C1483 1.389 . S
C1482 H1455 0.950 . S
C1482 C1468 1.377 . S
C1482 C1481 1.373 . S
C1483 C1467 1.377 . S
C1483 C1481 1.389 . S
C1483 C1484 1.524 . S
C1484 C1483 1.524 . S
C1484 C1485 1.397 . S
C1484 C1489 1.363 1_655 S
C1485 H1456 0.950 . S
C1485 C1484 1.397 . S
C1485 C1486 1.334 . S
C1486 H1457 0.950 . S
C1486 C1485 1.334 . S
C1486 C1487 1.291 1_655 S
C1487 C1486 1.291 1_455 S
C1487 C1488 1.522 . S
C1487 H1490 0.996 . S
C1488 H1458 0.950 . S
C1488 C1487 1.522 . S
C1488 C1489 1.415 . S
C1489 H1459 0.950 . S
C1489 C1484 1.363 1_455 S
C1489 C1488 1.415 . S
H1490 C1487 0.996 . S
H1491 C1472 0.913 . S
H1492 C1510 0.951 . S
H1493 C1512 0.951 . S
H1494 C1514 0.950 . S
H1495 C1515 0.950 . S
H1496 C1517 0.950 . S
H1497 C1520 0.950 . S
H1498 C1521 0.950 . S
H1499 C1523 0.950 . S
H1500 C1524 0.950 . S
H1501 C1525 0.951 . S
H1502 C1527 0.951 . S
H1503 C1529 0.950 . S
H1504 C1530 0.950 . S
H1505 C1532 0.950 . S
H1506 C1535 0.950 . S
H1507 C1536 0.950 . S
H1508 C1538 0.950 . S
H1509 C1539 0.950 . S
C1510 H1492 0.951 . S
C1510 C1511 1.366 . S
C1510 C1512 1.388 . S
C1511 C1510 1.366 . S
C1511 C1515 1.385 . S
C1512 H1493 0.951 . S
C1512 C1510 1.388 . S
C1512 C1513 1.366 . S
C1513 C1512 1.366 . S
C1513 C1514 1.414 . S
C1513 C1516 1.499 . S
C1514 H1494 0.950 . S
C1514 C1513 1.414 . S
C1514 C1515 1.374 . S
C1515 H1495 0.950 . S
C1515 C1511 1.385 . S
C1515 C1514 1.374 . S
C1516 C1513 1.499 . S
C1516 C1517 1.373 . S
C1516 C1518 1.389 . S
C1517 H1496 0.950 . S
C1517 C1516 1.373 . S
C1517 C1533 1.377 . S
C1518 C1516 1.389 . S
C1518 C1519 1.524 . S
C1518 C1532 1.377 . S
C1519 C1518 1.524 . S
C1519 C1520 1.397 . S
C1519 C1524 1.363 . S
C1520 H1497 0.950 . S
C1520 C1519 1.397 . S
C1520 C1521 1.334 . S
C1521 H1498 0.950 . S
C1521 C1520 1.334 . S
C1521 C1522 1.287 . S
C1522 C1521 1.287 . S
C1522 C1523 1.524 . S
C1522 H1541 0.913 . S
C1523 H1499 0.950 . S
C1523 C1522 1.524 . S
C1523 C1524 1.415 . S
C1524 H1500 0.950 . S
C1524 C1519 1.363 . S
C1524 C1523 1.415 . S
C1525 H1501 0.951 . S
C1525 C1526 1.366 . S
C1525 C1527 1.388 . S
C1526 C1525 1.366 . S
C1526 C1530 1.385 . S
C1527 H1502 0.951 . S
C1527 C1525 1.388 . S
C1527 C1528 1.366 . S
C1528 C1527 1.366 . S
C1528 C1529 1.414 . S
C1528 C1531 1.499 . S
C1529 H1503 0.950 . S
C1529 C1528 1.414 . S
C1529 C1530 1.374 . S
C1530 H1504 0.950 . S
C1530 C1526 1.385 . S
C1530 C1529 1.374 . S
C1531 C1528 1.499 . S
C1531 C1532 1.373 . S
C1531 C1533 1.389 . S
C1532 H1505 0.950 . S
C1532 C1518 1.377 . S
C1532 C1531 1.373 . S
C1533 C1517 1.377 . S
C1533 C1531 1.389 . S
C1533 C1534 1.524 . S
C1534 C1533 1.524 . S
C1534 C1535 1.397 . S
C1534 C1539 1.363 . S
C1535 H1506 0.950 . S
C1535 C1534 1.397 . S
C1535 C1536 1.334 . S
C1536 H1507 0.950 . S
C1536 C1535 1.334 . S
C1536 C1537 1.287 . S
C1537 C1536 1.287 . S
C1537 C1538 1.524 . S
C1537 H1540 0.999 . S
C1538 H1508 0.950 . S
C1538 C1537 1.524 . S
C1538 C1539 1.415 . S
C1539 H1509 0.950 . S
C1539 C1534 1.363 . S
C1539 C1538 1.415 . S
H1540 C1537 0.999 . S
H1541 C1522 0.913 . S
H1542 C1560 0.951 . S
H1543 C1562 0.951 . S
H1544 C1564 0.950 . S
H1545 C1565 0.950 . S
H1546 C1567 0.950 . S
H1547 C1570 0.950 . S
H1548 C1571 0.950 . S
H1549 C1573 0.950 . S
H1550 C1574 0.950 1_455 S
H1551 C1575 0.951 . S
H1552 C1577 0.951 . S
H1553 C1579 0.950 . S
H1554 C1580 0.950 . S
H1555 C1582 0.950 . S
H1556 C1585 0.950 . S
H1557 C1586 0.950 . S
H1558 C1588 0.950 . S
H1559 C1589 0.950 . S
C1560 H1542 0.951 . S
C1560 C1561 1.366 . S
C1560 C1562 1.388 . S
C1561 C1560 1.366 . S
C1561 C1565 1.385 . S
C1562 H1543 0.951 . S
C1562 C1560 1.388 . S
C1562 C1563 1.366 . S
C1563 C1562 1.366 . S
C1563 C1564 1.414 . S
C1563 C1566 1.499 . S
C1564 H1544 0.950 . S
C1564 C1563 1.414 . S
C1564 C1565 1.374 . S
C1565 H1545 0.950 . S
C1565 C1561 1.385 . S
C1565 C1564 1.374 . S
C1566 C1563 1.499 . S
C1566 C1567 1.373 . S
C1566 C1568 1.389 . S
C1567 H1546 0.950 . S
C1567 C1566 1.373 . S
C1567 C1583 1.377 . S
C1568 C1566 1.389 . S
C1568 C1569 1.524 . S
C1568 C1582 1.377 1_455 S
C1569 C1568 1.524 . S
C1569 C1570 1.397 1_455 S
C1569 C1574 1.357 1_455 S
C1570 H1547 0.950 . S
C1570 C1569 1.397 1_655 S
C1570 C1571 1.334 . S
C1571 H1548 0.950 . S
C1571 C1570 1.334 . S
C1571 C1572 1.287 . S
C1572 C1571 1.287 . S
C1572 C1573 1.524 . S
C1572 H1591 0.913 . S
C1573 H1549 0.950 . S
C1573 C1572 1.524 . S
C1573 C1574 1.421 . S
C1574 H1550 0.950 1_655 S
C1574 C1569 1.357 1_655 S
C1574 C1573 1.421 . S
C1575 H1551 0.951 . S
C1575 C1576 1.366 . S
C1575 C1577 1.388 . S
C1576 C1575 1.366 . S
C1576 C1580 1.385 . S
C1577 H1552 0.951 . S
C1577 C1575 1.388 . S
C1577 C1578 1.366 . S
C1578 C1577 1.366 . S
C1578 C1579 1.414 . S
C1578 C1581 1.499 1_655 S
C1579 H1553 0.950 . S
C1579 C1578 1.414 . S
C1579 C1580 1.374 . S
C1580 H1554 0.950 . S
C1580 C1576 1.385 . S
C1580 C1579 1.374 . S
C1581 C1578 1.499 1_455 S
C1581 C1582 1.373 1_455 S
C1581 C1583 1.389 . S
C1582 H1555 0.950 . S
C1582 C1568 1.377 1_655 S
C1582 C1581 1.373 1_655 S
C1583 C1567 1.377 . S
C1583 C1581 1.389 . S
C1583 C1584 1.524 . S
C1584 C1583 1.524 . S
C1584 C1585 1.397 . S
C1584 C1589 1.363 . S
C1585 H1556 0.950 . S
C1585 C1584 1.397 . S
C1585 C1586 1.334 . S
C1586 H1557 0.950 . S
C1586 C1585 1.334 . S
C1586 C1587 1.287 . S
C1587 C1586 1.287 . S
C1587 C1588 1.524 . S
C1587 H1590 0.999 . S
C1588 H1558 0.950 . S
C1588 C1587 1.524 . S
C1588 C1589 1.415 . S
C1589 H1559 0.950 . S
C1589 C1584 1.363 . S
C1589 C1588 1.415 . S
H1590 C1587 0.999 . S
H1591 C1572 0.913 . S
H1592 C1610 0.951 . S
H1593 C1612 0.951 . S
H1594 C1614 0.950 . S
H1595 C1615 0.950 . S
H1596 C1617 0.950 . S
H1597 C1620 0.950 . S
H1598 C1621 0.950 . S
H1599 C1623 0.950 . S
H1600 C1624 0.950 . S
H1601 C1625 0.951 . S
H1602 C1627 0.951 . S
H1603 C1629 0.950 . S
H1604 C1630 0.950 . S
H1605 C1632 0.950 . S
H1606 C1635 0.950 . S
H1607 C1636 0.950 . S
H1608 C1638 0.950 . S
H1609 C1639 0.950 . S
C1610 H1592 0.951 . S
C1610 C1611 1.366 . S
C1610 C1612 1.388 . S
C1611 C1610 1.366 . S
C1611 C1615 1.385 . S
C1612 H1593 0.951 . S
C1612 C1610 1.388 . S
C1612 C1613 1.366 . S
C1613 C1612 1.366 . S
C1613 C1614 1.414 . S
C1613 C1616 1.499 . S
C1614 H1594 0.950 . S
C1614 C1613 1.414 . S
C1614 C1615 1.374 . S
C1615 H1595 0.950 . S
C1615 C1611 1.385 . S
C1615 C1614 1.374 . S
C1616 C1613 1.499 . S
C1616 C1617 1.373 . S
C1616 C1618 1.389 . S
C1617 H1596 0.950 . S
C1617 C1616 1.373 . S
C1617 C1633 1.377 . S
C1618 C1616 1.389 . S
C1618 C1619 1.524 . S
C1618 C1632 1.377 . S
C1619 C1618 1.524 . S
C1619 C1620 1.397 . S
C1619 C1624 1.363 . S
C1620 H1597 0.950 . S
C1620 C1619 1.397 . S
C1620 C1621 1.334 . S
C1621 H1598 0.950 . S
C1621 C1620 1.334 . S
C1621 C1622 1.287 . S
C1622 C1621 1.287 . S
C1622 C1623 1.524 . S
C1622 H1641 0.913 . S
C1623 H1599 0.950 . S
C1623 C1622 1.524 . S
C1623 C1624 1.415 . S
C1624 H1600 0.950 . S
C1624 C1619 1.363 . S
C1624 C1623 1.415 . S
C1625 H1601 0.951 . S
C1625 C1626 1.366 . S
C1625 C1627 1.388 . S
C1626 C1625 1.366 . S
C1626 C1630 1.385 . S
C1627 H1602 0.951 . S
C1627 C1625 1.388 . S
C1627 C1628 1.366 . S
C1628 C1627 1.366 . S
C1628 C1629 1.414 . S
C1628 C1631 1.499 . S
C1629 H1603 0.950 . S
C1629 C1628 1.414 . S
C1629 C1630 1.374 . S
C1630 H1604 0.950 . S
C1630 C1626 1.385 . S
C1630 C1629 1.374 . S
C1631 C1628 1.499 . S
C1631 C1632 1.373 . S
C1631 C1633 1.389 . S
C1632 H1605 0.950 . S
C1632 C1618 1.377 . S
C1632 C1631 1.373 . S
C1633 C1617 1.377 . S
C1633 C1631 1.389 . S
C1633 C1634 1.524 . S
C1634 C1633 1.524 . S
C1634 C1635 1.397 . S
C1634 C1639 1.363 . S
C1635 H1606 0.950 . S
C1635 C1634 1.397 . S
C1635 C1636 1.334 . S
C1636 H1607 0.950 . S
C1636 C1635 1.334 . S
C1636 C1637 1.287 . S
C1637 C1636 1.287 . S
C1637 C1638 1.524 . S
C1637 H1640 0.999 . S
C1638 H1608 0.950 . S
C1638 C1637 1.524 . S
C1638 C1639 1.415 . S
C1639 H1609 0.950 . S
C1639 C1634 1.363 . S
C1639 C1638 1.415 . S
H1640 C1637 0.999 . S
H1641 C1622 0.913 . S
H1642 C1660 0.951 . S
H1643 C1662 0.951 . S
H1644 C1664 0.950 1_545 S
H1645 C1665 0.950 . S
H1646 C1667 0.950 . S
H1647 C1670 0.950 . S
H1648 C1671 0.950 . S
H1649 C1673 0.950 . S
H1650 C1674 0.950 . S
H1651 C1675 0.951 . S
H1652 C1677 0.951 . S
H1653 C1679 0.950 . S
H1654 C1680 0.950 . S
H1655 C1682 0.950 . S
H1656 C1685 0.950 . S
H1657 C1686 0.950 . S
H1658 C1688 0.950 . S
H1659 C1689 0.950 . S
C1660 H1642 0.951 . S
C1660 C1661 1.366 . S
C1660 C1662 1.388 . S
C1661 C1660 1.366 . S
C1661 C1665 1.385 . S
C1662 H1643 0.951 . S
C1662 C1660 1.388 . S
C1662 C1663 1.366 . S
C1663 C1662 1.366 . S
C1663 C1664 1.414 . S
C1663 C1666 1.499 1_565 S
C1664 H1644 0.950 1_565 S
C1664 C1663 1.414 . S
C1664 C1665 1.374 . S
C1665 H1645 0.950 . S
C1665 C1661 1.385 . S
C1665 C1664 1.374 . S
C1666 C1663 1.499 1_545 S
C1666 C1667 1.373 . S
C1666 C1668 1.389 1_545 S
C1667 H1646 0.950 . S
C1667 C1666 1.373 . S
C1667 C1683 1.377 . S
C1668 C1666 1.389 1_565 S
C1668 C1669 1.524 . S
C1668 C1682 1.377 1_565 S
C1669 C1668 1.524 . S
C1669 C1670 1.397 . S
C1669 C1674 1.363 . S
C1670 H1647 0.950 . S
C1670 C1669 1.397 . S
C1670 C1671 1.334 . S
C1671 H1648 0.950 . S
C1671 C1670 1.334 . S
C1671 C1672 1.287 . S
C1672 C1671 1.287 . S
C1672 C1673 1.524 . S
C1672 H1691 0.913 . S
C1673 H1649 0.950 . S
C1673 C1672 1.524 . S
C1673 C1674 1.415 . S
C1674 H1650 0.950 . S
C1674 C1669 1.363 . S
C1674 C1673 1.415 . S
C1675 H1651 0.951 . S
C1675 C1676 1.366 . S
C1675 C1677 1.388 . S
C1676 C1675 1.366 . S
C1676 C1680 1.385 . S
C1677 H1652 0.951 . S
C1677 C1675 1.388 . S
C1677 C1678 1.366 . S
C1678 C1677 1.366 . S
C1678 C1679 1.414 . S
C1678 C1681 1.499 . S
C1679 H1653 0.950 . S
C1679 C1678 1.414 . S
C1679 C1680 1.374 . S
C1680 H1654 0.950 . S
C1680 C1676 1.385 . S
C1680 C1679 1.374 . S
C1681 C1678 1.499 . S
C1681 C1682 1.373 . S
C1681 C1683 1.389 . S
C1682 H1655 0.950 . S
C1682 C1668 1.377 1_545 S
C1682 C1681 1.373 . S
C1683 C1667 1.377 . S
C1683 C1681 1.389 . S
C1683 C1684 1.524 . S
C1684 C1683 1.524 . S
C1684 C1685 1.397 . S
C1684 C1689 1.363 . S
C1685 H1656 0.950 . S
C1685 C1684 1.397 . S
C1685 C1686 1.334 . S
C1686 H1657 0.950 . S
C1686 C1685 1.334 . S
C1686 C1687 1.287 . S
C1687 C1686 1.287 . S
C1687 C1688 1.524 . S
C1687 H1690 0.999 . S
C1688 H1658 0.950 . S
C1688 C1687 1.524 . S
C1688 C1689 1.415 . S
C1689 H1659 0.950 . S
C1689 C1684 1.363 . S
C1689 C1688 1.415 . S
H1690 C1687 0.999 . S
H1691 C1672 0.913 . S
C811 C196 0.747 . S
C826 C49 0.746 . S
C861 C145 0.748 . S
C876 C29 0.746 . S
C911 C108 0.748 . S
C926 C233 0.747 . S
C961 C469 0.746 . S
C976 C321 0.746 . S
C1011 C409 0.748 . S
C1026 C284 0.748 . S
C1061 C372 0.747 . S
C1076 C489 0.748 . S
C1111 C577 0.747 . S
C1126 C724 0.746 . S
C1161 C557 0.746 . S
C1176 C665 0.748 . S
C1211 C645 0.746 . S
C1226 C761 0.748 . S
C1261 C57 1.141 . S
C1276 C636 1.141 . S
C1311 C137 1.140 . S
C1326 C733 1.141 . S
C1361 C548 1.140 . S
C1376 C225 1.140 . S
C1411 C401 1.141 . S
C1426 C205 1.141 . S
C1461 C20 1.140 . S
C1476 C497 1.140 . S
C1511 C313 1.141 . S
C1526 C117 1.140 . S
C1561 C673 1.141 . S
C1576 C460 1.140 . S
C1611 C293 1.140 . S
C1626 C753 1.141 . S
C1661 C585 1.141 . S
C1676 C381 1.140 . S
