# Generated by pormake.
# Topology sxb, (6)-cn, num edge types: 1
# Building blocks:
#     Node 0, Type 0, BuildingBlock: JUFBIX_clean_sbu_0, # of connection points: 6
#     Node 1, Type 0, BuildingBlock: JUFBIX_clean_sbu_0, # of connection points: 6
#     Node 2, Type 0, BuildingBlock: JUFBIX_clean_sbu_0, # of connection points: 6
#     Node 3, Type 0, BuildingBlock: JUFBIX_clean_sbu_0, # of connection points: 6
#     Edge 4, Type (0, 0), BuildingBlock: XIVTED_clean_linker_0, # of connection points: 2
#     Edge 5, Type (0, 0), BuildingBlock: XIVTED_clean_linker_0, # of connection points: 2
#     Edge 6, Type (0, 0), BuildingBlock: XIVTED_clean_linker_0, # of connection points: 2
#     Edge 7, Type (0, 0), BuildingBlock: XIVTED_clean_linker_0, # of connection points: 2
#     Edge 8, Type (0, 0), BuildingBlock: XIVTED_clean_linker_0, # of connection points: 2
#     Edge 9, Type (0, 0), BuildingBlock: XIVTED_clean_linker_0, # of connection points: 2
#     Edge 10, Type (0, 0), BuildingBlock: XIVTED_clean_linker_0, # of connection points: 2
#     Edge 11, Type (0, 0), BuildingBlock: XIVTED_clean_linker_0, # of connection points: 2
#     Edge 12, Type (0, 0), BuildingBlock: XIVTED_clean_linker_0, # of connection points: 2
#     Edge 13, Type (0, 0), BuildingBlock: XIVTED_clean_linker_0, # of connection points: 2
#     Edge 14, Type (0, 0), BuildingBlock: XIVTED_clean_linker_0, # of connection points: 2
#     Edge 15, Type (0, 0), BuildingBlock: XIVTED_clean_linker_0, # of connection points: 2
# Relax obj value: 0.055
# Max RMSD: 0.078
# Mean RMSD: 0.078
data_MOF--net-sxb--node1-JUFBIX_clean_sbu_0--edge1-XIVTED_clean_linker_0
_symmetry_space_group_name_H-M    P1
_symmetry_Int_Tables_number       1
_symmetry_cell_setting            triclinic
loop_
_symmetry_equiv_pos_as_xyz
'x, y, z'
_cell_length_a     14.755434
_cell_length_b     37.018413
_cell_length_c     29.921222
_cell_angle_alpha  90.067792
_cell_angle_beta   93.295779
_cell_angle_gamma 89.752027
loop_
_atom_site_label
_atom_site_type_symbol
_atom_site_fract_x
_atom_site_fract_y
_atom_site_fract_z
_atom_type_partial_charge
Co0 Co -0.02243 1.00525 0.00521 0.0
C1 C 0.95361 0.04037 0.08628 0.0
Co2 Co -0.02787 0.06559 1.00137 0.0
C3 C 0.05046 0.93138 1.00071 0.0
C4 C 0.92208 0.93389 0.03033 0.0
N5 N -0.01626 0.95472 0.01121 0.0
N6 N 0.03272 0.89684 0.01254 0.0
C7 C 0.95163 0.89857 0.03111 0.0
H8 H 0.1112 0.93969 0.98498 0.0
H9 H 0.8604 0.94388 0.04394 0.0
C10 C -0.00389 1.03048 0.92031 0.0
N11 N 0.96605 0.11611 0.99536 0.0
C12 C 0.8995 0.13954 0.00584 0.0
C13 C 0.02794 0.13686 0.97629 0.0
N14 N 0.91766 0.17405 0.99408 0.0
C15 C -0.00124 0.17221 0.97556 0.0
C16 C 0.14309 0.03823 0.0176 0.0
O17 O -0.00692 1.00158 0.94314 0.0
O18 O -0.01201 0.06094 0.93945 0.0
O19 O 0.09824 0.06741 0.01238 0.0
O20 O 0.10252 1.0081 0.01605 0.0
O21 O 0.95648 0.06926 0.06341 0.0
H22 H 0.08958 0.12679 0.96272 0.0
H23 H 0.83864 0.13132 0.02154 0.0
O24 O 0.96186 1.0099 0.06717 0.0
O25 O 0.85146 1.00342 0.99427 0.0
O26 O 0.84719 0.06273 0.99047 0.0
C27 C 0.80661 1.03259 0.98898 0.0
H28 H 0.91707 0.87613 0.04568 0.0
H29 H 0.03359 0.19463 0.96106 0.0
Co30 Co 0.97182 1.00203 0.50151 0.0
C31 C 0.94921 0.03813 0.41929 0.0
Co32 Co -0.02494 0.06275 0.50497 0.0
C33 C 0.90293 0.92742 0.50852 0.0
C34 C 0.02095 0.93097 0.47057 0.0
N35 N 0.96553 0.95123 0.49482 0.0
N36 N 0.91734 0.89327 0.49375 0.0
C37 C -0.00799 0.89568 0.47 0.0
H38 H 0.84709 0.93511 0.52846 0.0
H39 H 0.0773 0.94137 0.453 0.0
C40 C -0.00238 1.02665 0.5872 0.0
N41 N -0.01874 0.11364 0.51176 0.0
C42 C 0.0456 0.13738 0.49971 0.0
C43 C 0.92372 0.13395 0.53471 0.0
N44 N 0.03073 0.17148 0.51461 0.0
C45 C 0.95335 0.16914 0.53634 0.0
C46 C 0.80728 1.03369 0.51054 0.0
O47 O -0.01013 0.99774 0.56424 0.0
O48 O -0.00698 0.05721 0.56764 0.0
O49 O 0.84991 0.06336 0.51007 0.0
O50 O 0.84879 1.00394 0.50695 0.0
O51 O 0.95728 0.06705 0.44223 0.0
H52 H 0.86496 0.12374 0.55053 0.0
H53 H 0.10402 0.1295 0.48171 0.0
O54 O 0.95356 1.00758 0.43885 0.0
O55 O 0.09686 1.00135 0.49626 0.0
O56 O 0.09821 0.06077 0.49964 0.0
C57 C 0.13959 1.031 0.49588 0.0
H58 H 0.02189 0.87378 0.45181 0.0
H59 H 0.92026 0.19118 0.55279 0.0
Co60 Co 0.4724 0.50386 0.00512 0.0
C61 C 0.45877 0.53818 0.0872 0.0
Co62 Co 0.46928 0.56434 1.00263 0.0
C63 C 0.54304 0.42969 0.99928 0.0
C64 C 0.41528 0.43249 0.02945 0.0
N65 N 0.47708 0.45322 0.01026 0.0
N66 N 0.52468 0.39517 0.01089 0.0
C67 C 0.44397 0.39707 0.02978 0.0
H68 H 0.60381 0.43786 0.98346 0.0
H69 H 0.35422 0.44262 0.04353 0.0
C70 C 0.48288 0.52998 0.92054 0.0
N71 N 0.46451 0.61498 0.9975 0.0
C72 C 0.39838 0.63843 0.00849 0.0
C73 C 0.52603 0.63578 0.97821 0.0
N74 N 0.4163 0.67297 0.99677 0.0
C75 C 0.49697 0.67116 0.97782 0.0
C76 C 0.63898 0.53571 0.0149 0.0
O77 O 0.4817 0.50079 0.94286 0.0
O78 O 0.47862 0.56025 0.94048 0.0
O79 O 0.59541 0.56527 0.01088 0.0
O80 O 0.59728 0.50586 0.01332 0.0
O81 O 0.46003 0.56739 0.06493 0.0
H82 H 0.58711 0.62572 0.96409 0.0
H83 H 0.33775 0.63017 0.02436 0.0
O84 O 0.463 0.50793 0.06723 0.0
O85 O 0.34626 0.50294 0.99684 0.0
O86 O 0.34441 0.56233 0.99446 0.0
C87 C 0.3027 0.53249 0.99283 0.0
H88 H 0.40924 0.37467 0.04435 0.0
H89 H 0.53139 0.69359 0.96313 0.0
Co90 Co 0.46829 0.50337 0.50193 0.0
C91 C 0.48087 0.53891 0.42059 0.0
Co92 Co 0.47168 0.56396 0.50581 0.0
C93 C 0.39511 0.42939 0.50565 0.0
C94 C 0.52266 0.43181 0.47534 0.0
N95 N 0.46188 0.45265 0.49545 0.0
N96 N 0.41163 0.39499 0.49234 0.0
C97 C 0.49241 0.39668 0.47349 0.0
H98 H 0.33407 0.43782 0.52122 0.0
H99 H 0.58436 0.44165 0.46186 0.0
C100 C 0.4591 0.52844 0.58715 0.0
N101 N 0.478 0.61464 0.51228 0.0
C102 C 0.54371 0.63807 0.50118 0.0
C103 C 0.41794 0.63532 0.5331 0.0
N104 N 0.52681 0.67251 0.51426 0.0
C105 C 0.44732 0.67056 0.53429 0.0
C106 C 0.30186 0.53636 0.49338 0.0
O107 O 0.45979 0.49951 0.5642 0.0
O108 O 0.46319 0.55895 0.56786 0.0
O109 O 0.34533 0.56577 0.49803 0.0
O110 O 0.3436 0.50637 0.49421 0.0
O111 O 0.48011 0.56782 0.44357 0.0
H112 H 0.35763 0.62524 0.5477 0.0
H113 H 0.60327 0.62987 0.48422 0.0
O114 O 0.47685 0.50838 0.43984 0.0
O115 O 0.59469 0.50159 0.50974 0.0
O116 O 0.59632 0.561 0.51349 0.0
C117 C 0.63811 0.53103 0.51435 0.0
H118 H 0.52756 0.37417 0.45909 0.0
H119 H 0.41378 0.69278 0.55019 0.0
H120 H 0.23262 0.67631 0.00424 0.0
H121 H 0.21651 0.89357 0.00535 0.0
H122 H 0.47013 0.74335 0.99826 0.0
H123 H -0.0209 0.82643 0.01107 0.0
H124 H 0.31027 0.83901 1.00198 0.0
H125 H 0.13902 0.73089 0.00772 0.0
C126 C 0.26543 0.70239 0.00399 0.0
C127 C 0.35989 0.70494 1.00077 0.0
C128 C 0.23759 0.83622 0.00396 0.0
C129 C 0.25229 0.76794 0.00423 0.0
C130 C 0.18377 0.86748 0.00559 0.0
C131 C 0.08928 0.8649 0.0087 0.0
C132 C 0.19704 0.80192 0.00535 0.0
C133 C 0.05148 0.83003 0.00941 0.0
C134 C 0.21168 0.73365 0.00567 0.0
C135 C 0.39776 0.73979 1.00002 0.0
N136 N 0.10524 0.8001 0.0078 0.0
N137 N 0.34407 0.76974 1.00168 0.0
H138 H 0.46934 0.32502 0.00827 0.0
H139 H -0.02725 0.24422 0.99663 0.0
H140 H 0.70856 0.39129 0.00416 0.0
H141 H 0.73368 0.17785 1.00056 0.0
H142 H 0.87736 0.29806 0.99942 0.0
H143 H 0.56462 0.27113 0.00534 0.0
C144 C 0.54191 0.32838 0.00689 0.0
C145 C 0.58055 0.36308 0.00674 0.0
C146 C 0.84561 0.27176 0.9997 0.0
C147 C 0.69083 0.30086 1.00301 0.0
C148 C 0.90018 0.24083 0.99791 0.0
C149 C 0.86162 0.20612 0.99806 0.0
C150 C 0.75118 0.2683 1.00166 0.0
C151 C 0.76693 0.20383 1.0007 0.0
C152 C 0.5964 0.29743 0.00504 0.0
C153 C 0.67522 0.36533 0.00401 0.0
N154 N 0.71517 0.2344 1.00224 0.0
N155 N 0.7269 0.33475 1.00241 0.0
H156 H 0.16061 0.18415 0.45469 0.0
H157 H 0.27777 0.38312 0.55015 0.0
H158 H 0.03136 0.23268 0.56595 0.0
H159 H 0.41357 0.33355 0.44166 0.0
H160 H 0.18472 0.32878 0.55533 0.0
H161 H 0.2531 0.23859 0.449 0.0
C162 C 0.15153 0.20602 0.47803 0.0
C163 C 0.08699 0.20344 0.51071 0.0
C164 C 0.23501 0.3298 0.53041 0.0
C165 C 0.19304 0.26645 0.5041 0.0
C166 C 0.28803 0.36101 0.52728 0.0
C167 C 0.35458 0.36322 0.49558 0.0
C168 C 0.2479 0.30036 0.50155 0.0
C169 C 0.36465 0.33321 0.46717 0.0
C170 C 0.2043 0.2373 0.47462 0.0
C171 C 0.07854 0.23322 0.53967 0.0
N172 N 0.3122 0.30325 0.47084 0.0
N173 N 0.13058 0.26325 0.53565 0.0
H174 H 0.97107 0.8229 0.48865 0.0
H175 H 0.47322 0.74309 0.51803 0.0
H176 H 0.73719 0.88952 0.51069 0.0
H177 H 0.70898 0.6761 0.50125 0.0
H178 H 0.5683 0.7966 0.51491 0.0
H179 H 0.87652 0.76919 0.49283 0.0
C180 C 0.8998 0.82638 0.49427 0.0
C181 C 0.86246 0.86116 0.49901 0.0
C182 C 0.5994 0.77023 0.51191 0.0
C183 C 0.75295 0.79907 0.50415 0.0
C184 C 0.54499 0.73942 0.51388 0.0
C185 C 0.58258 0.70456 0.51023 0.0
C186 C 0.69277 0.76659 0.50612 0.0
C187 C 0.67624 0.70213 0.50393 0.0
C188 C 0.84575 0.79552 0.49684 0.0
C189 C 0.7696 0.8635 0.50712 0.0
N190 N 0.72784 0.73259 0.50218 0.0
N191 N 0.71824 0.833 0.50922 0.0
H192 H 0.25291 0.09655 0.00915 0.0
H193 H 0.6968 0.97428 0.99742 0.0
H194 H 0.25754 0.98087 0.02915 0.0
H195 H 0.69215 0.08995 0.97738 0.0
H196 H 0.53411 0.97591 0.00709 0.0
H197 H 0.41558 0.09492 0.99944 0.0
C198 C 0.28845 0.07092 0.01215 0.0
C199 C 0.24202 0.03876 0.01949 0.0
C200 C 0.5687 1.00088 1.0003 0.0
C201 C 0.42666 0.0366 0.00767 0.0
C202 C 0.66125 0.99991 0.9944 0.0
C203 C 0.70768 1.03207 0.98707 0.0
C204 C 0.52302 0.03422 0.99884 0.0
C205 C 0.65878 0.06456 0.98339 0.0
C206 C 0.38099 0.06994 0.00623 0.0
C207 C 0.29092 1.00626 0.02314 0.0
N208 N 0.56885 0.06484 0.98969 0.0
N209 N 0.38084 1.00598 0.01682 0.0
H210 H 0.24627 0.08944 0.48586 0.0
H211 H 0.70066 0.97511 0.51967 0.0
H212 H 0.25408 0.9733 0.50169 0.0
H213 H 0.69262 0.09135 0.50507 0.0
H214 H 0.5363 0.97402 0.51416 0.0
H215 H 0.41063 0.09046 0.49103 0.0
C216 C 0.28278 0.06412 0.49018 0.0
C217 C 0.23731 1.03124 0.49392 0.0
C218 C 0.57045 0.99977 0.5123 0.0
C219 C 0.42418 1.0323 0.50014 0.0
C220 C 0.6641 1.00044 0.51557 0.0
C221 C 0.70951 1.03338 0.51229 0.0
C222 C 0.52266 1.03224 0.50568 0.0
C223 C 0.6596 0.06542 0.50751 0.0
C224 C 0.37643 0.06475 0.49325 0.0
C225 C 0.28716 0.99919 0.49891 0.0
N226 N 0.56811 0.06403 0.50403 0.0
N227 N 0.37866 1.00055 0.5022 0.0
H228 H 0.7504 0.47769 0.0277 0.0
H229 H 0.19131 0.59052 0.98008 0.0
H230 H 0.75062 0.59318 0.00587 0.0
H231 H 0.19103 0.47503 1.00178 0.0
H232 H 0.02849 0.59179 0.98774 0.0
H233 H 0.91321 0.47643 0.02002 0.0
C234 C 0.78501 0.50284 0.02173 0.0
C235 C 0.73749 0.53557 0.0169 0.0
C236 C 0.06398 0.56616 0.99061 0.0
C237 C 0.92247 0.5342 0.00761 0.0
C238 C 0.15668 0.56537 0.98602 0.0
C239 C 0.20419 0.53264 0.99082 0.0
C240 C 0.0192 0.53401 1.00009 0.0
C241 C 0.15654 0.50082 0.9981 0.0
C242 C 0.87771 0.50206 0.01713 0.0
C243 C 0.78512 0.56739 0.00958 0.0
N244 N 0.06616 0.50234 1.00288 0.0
N245 N 0.8755 0.56586 0.00479 0.0
H246 H 0.19161 0.4792 0.47516 0.0
H247 H 0.74819 0.58831 0.53211 0.0
H248 H 0.18914 0.5931 0.50741 0.0
H249 H 0.751 0.47427 0.50064 0.0
H250 H 0.91092 0.59029 0.5247 0.0
H251 H 0.02884 0.47726 0.4825 0.0
C252 C 0.15648 0.50389 0.48338 0.0
C253 C 0.20336 0.53631 0.49122 0.0
C254 C 0.87605 0.5648 0.51963 0.0
C255 C 0.01835 0.53414 0.5001 0.0
C256 C 0.78338 0.5636 0.52406 0.0
C257 C 0.73661 0.53112 0.51647 0.0
C258 C 0.92158 0.53334 0.50749 0.0
C259 C 0.78496 0.49984 0.50657 0.0
C260 C 0.0638 0.50271 0.48776 0.0
C261 C 0.1551 0.56757 0.5013 0.0
N262 N 0.87535 0.50179 0.50199 0.0
N263 N 0.06469 0.56564 0.50583 0.0
H264 H 0.91729 0.98177 0.36209 0.0
H265 H 0.95034 0.10018 0.14049 0.0
H266 H 0.95474 0.09744 0.36449 0.0
H267 H 0.93074 0.9838 0.14255 0.0
H268 H 0.9385 0.10097 0.22179 0.0
H269 H 0.90772 0.98336 0.28079 0.0
C270 C 0.92317 1.00758 0.34549 0.0
C271 C 0.93763 0.0395 0.3701 0.0
C272 C 0.93641 0.07533 0.20433 0.0
C273 C 0.92711 0.04148 0.27677 0.0
C274 C 0.94311 0.07485 0.15799 0.0
C275 C 0.9423 0.04185 0.13483 0.0
C276 C 0.92862 0.04259 0.22745 0.0
C277 C 0.93246 1.00985 0.15907 0.0
C278 C 0.91769 1.00846 0.29899 0.0
C279 C 0.94395 0.07217 0.34676 0.0
N280 N 0.92634 1.01104 0.20404 0.0
N281 N 0.93924 0.07231 0.30126 0.0
H282 H 0.02229 0.087 0.86443 0.0
H283 H -0.00454 0.96715 0.64186 0.0
H284 H -0.00396 0.97084 0.86574 0.0
H285 H 0.02578 0.08317 0.64455 0.0
H286 H 0.00536 0.96681 0.72385 0.0
H287 H 0.03351 0.085 0.78376 0.0
C288 C 0.01908 0.06101 0.84772 0.0
C289 C 0.0074 1.02905 0.87176 0.0
C290 C 0.01038 0.99227 0.7064 0.0
C291 C 0.02 1.02657 0.77916 0.0
C292 C 0.00479 0.99249 0.65966 0.0
C293 C 0.00908 1.02527 0.63639 0.0
C294 C 0.02026 1.02506 0.72981 0.0
C295 C 0.02142 0.05728 0.66106 0.0
C296 C 0.02565 0.05988 0.8016 0.0
C297 C 0.00457 0.99614 0.8484 0.0
N298 N 0.02613 0.05636 0.70638 0.0
N299 N 0.01021 0.99575 0.80323 0.0
H300 H 0.47872 0.59886 0.36681 0.0
H301 H 0.45038 0.48067 0.14315 0.0
H302 H 0.48416 0.48216 0.36301 0.0
H303 H 0.46365 0.59727 0.14257 0.0
H304 H 0.45709 0.48159 0.22432 0.0
H305 H 0.47075 0.5997 0.28489 0.0
C306 C 0.47874 0.57347 0.34877 0.0
C307 C 0.48179 0.54039 0.37163 0.0
C308 C 0.45844 0.50703 0.20655 0.0
C309 C 0.47208 0.54118 0.27849 0.0
C310 C 0.45436 0.50653 0.16014 0.0
C311 C 0.45689 0.53896 0.13616 0.0
C312 C 0.46513 0.54018 0.22923 0.0
C313 C 0.46168 0.57165 0.1599 0.0
C314 C 0.47395 0.57398 0.30211 0.0
C315 C 0.4816 0.50829 0.34676 0.0
N316 N 0.46596 0.57145 0.20533 0.0
N317 N 0.47653 0.50952 0.30152 0.0
H318 H 0.46218 0.4686 0.64116 0.0
H319 H 0.4903 0.58739 0.86436 0.0
H320 H 0.45504 0.58529 0.64452 0.0
H321 H 0.47843 0.47077 0.86541 0.0
H322 H 0.48307 0.58627 0.78317 0.0
H323 H 0.47054 0.46797 0.7231 0.0
C324 C 0.46185 0.49403 0.65911 0.0
C325 C 0.45825 0.52705 0.63612 0.0
C326 C 0.48214 0.56087 0.80105 0.0
C327 C 0.46842 0.5265 0.72926 0.0
C328 C 0.48653 0.56149 0.84747 0.0
C329 C 0.48454 0.52911 0.87159 0.0
C330 C 0.47568 0.52764 0.77851 0.0
C331 C 0.47998 0.49635 0.84798 0.0
C332 C 0.46688 0.49364 0.70577 0.0
C333 C 0.45806 0.5592 0.66087 0.0
N334 N 0.4754 0.49644 0.80255 0.0
N335 N 0.46337 0.55809 0.70611 0.0
loop_
_geom_bond_atom_site_label_1
_geom_bond_atom_site_label_2
_geom_bond_distance
_geom_bond_site_symmetry_2
_ccdc_geom_bond_type
Co0 N5 2.057 1_556 S
Co0 O17 2.021 . S
Co0 O20 2.062 . S
Co0 O24 2.117 1_556 S
Co0 O25 2.020 1_455 S
C1 O21 1.259 1_455 S
C1 O24 1.258 1_545 S
Co2 N11 2.057 1_554 S
Co2 O18 2.117 1_554 S
Co2 O19 2.020 1_655 S
Co2 O21 2.021 . S
Co2 O26 2.062 . S
C3 N5 1.316 1_556 S
C3 N6 1.347 1_556 S
C3 H8 0.931 . S
C4 N5 1.375 . S
C4 C7 1.350 . S
C4 H9 0.930 . S
N5 Co0 2.057 1_554 S
N5 C3 1.316 1_554 S
N5 C4 1.375 . S
N6 C3 1.347 1_554 S
N6 C7 1.373 . S
C7 C4 1.350 . S
C7 N6 1.373 . S
C7 H28 0.931 . S
H8 C3 0.931 . S
H9 C4 0.930 . S
C10 O17 1.259 1_655 S
C10 O18 1.258 1_565 S
N11 Co2 2.057 1_556 S
N11 C12 1.316 1_556 S
N11 C13 1.375 . S
C12 N11 1.316 1_554 S
C12 N14 1.347 1_554 S
C12 H23 0.931 . S
C13 N11 1.375 . S
C13 C15 1.350 . S
C13 H22 0.930 . S
N14 C12 1.347 1_556 S
N14 C15 1.373 . S
C15 C13 1.350 . S
C15 N14 1.373 . S
C15 H29 0.931 . S
C16 O19 1.257 . S
C16 O20 1.254 1_544 S
O17 Co0 2.021 . S
O17 C10 1.259 1_455 S
O18 Co2 2.117 1_556 S
O18 C10 1.258 1_545 S
O19 Co2 2.020 1_455 S
O19 C16 1.257 . S
O20 Co0 2.062 . S
O20 C16 1.254 1_566 S
O21 C1 1.259 1_655 S
O21 Co2 2.021 . S
H22 C13 0.930 . S
H23 C12 0.931 . S
O24 Co0 2.117 1_554 S
O24 C1 1.258 1_565 S
O25 Co0 2.020 1_655 S
O25 C27 1.257 . S
O26 Co2 2.062 . S
O26 C27 1.254 1_544 S
C27 O25 1.257 . S
C27 O26 1.254 1_566 S
H28 C7 0.931 . S
H29 C15 0.931 . S
Co30 N35 2.057 . S
Co30 O47 2.021 . S
Co30 O50 2.062 . S
Co30 O54 2.117 . S
Co30 O55 2.020 1_655 S
C31 O51 1.259 1_655 S
C31 O54 1.258 1_545 S
Co32 N41 2.057 . S
Co32 O48 2.117 . S
Co32 O49 2.020 1_455 S
Co32 O51 2.021 . S
Co32 O56 2.062 . S
C33 N35 1.316 . S
C33 N36 1.347 . S
C33 H38 0.931 . S
C34 N35 1.375 . S
C34 C37 1.350 . S
C34 H39 0.930 . S
N35 Co30 2.057 . S
N35 C33 1.316 . S
N35 C34 1.375 . S
N36 C33 1.347 . S
N36 C37 1.373 . S
C37 C34 1.350 . S
C37 N36 1.373 . S
C37 H58 0.931 . S
H38 C33 0.931 . S
H39 C34 0.930 . S
C40 O47 1.259 1_455 S
C40 O48 1.258 1_565 S
N41 Co32 2.057 . S
N41 C42 1.316 . S
N41 C43 1.375 . S
C42 N41 1.316 . S
C42 N44 1.347 . S
C42 H53 0.931 . S
C43 N41 1.375 . S
C43 C45 1.350 . S
C43 H52 0.930 . S
N44 C42 1.347 . S
N44 C45 1.373 . S
C45 C43 1.350 . S
C45 N44 1.373 . S
C45 H59 0.931 . S
C46 O49 1.256 . S
C46 O50 1.255 1_545 S
O47 Co30 2.021 . S
O47 C40 1.259 1_655 S
O48 Co32 2.117 . S
O48 C40 1.258 1_545 S
O49 Co32 2.020 1_655 S
O49 C46 1.256 . S
O50 Co30 2.062 . S
O50 C46 1.255 1_565 S
O51 C31 1.259 1_455 S
O51 Co32 2.021 . S
H52 C43 0.930 . S
H53 C42 0.931 . S
O54 Co30 2.117 . S
O54 C31 1.258 1_565 S
O55 Co30 2.020 1_455 S
O55 C57 1.256 . S
O56 Co32 2.062 . S
O56 C57 1.255 1_545 S
C57 O55 1.256 . S
C57 O56 1.255 1_565 S
H58 C37 0.931 . S
H59 C45 0.931 . S
Co60 N65 2.057 1_556 S
Co60 O77 2.021 . S
Co60 O80 2.062 . S
Co60 O84 2.117 1_556 S
Co60 O85 2.020 . S
C61 O81 1.259 . S
C61 O84 1.258 . S
Co62 N71 2.057 1_554 S
Co62 O78 2.117 1_554 S
Co62 O79 2.020 . S
Co62 O81 2.021 . S
Co62 O86 2.062 . S
C63 N65 1.316 1_556 S
C63 N66 1.347 1_556 S
C63 H68 0.931 . S
C64 N65 1.375 . S
C64 C67 1.350 . S
C64 H69 0.930 . S
N65 Co60 2.057 1_554 S
N65 C63 1.316 1_554 S
N65 C64 1.375 . S
N66 C63 1.347 1_554 S
N66 C67 1.373 . S
C67 C64 1.350 . S
C67 N66 1.373 . S
C67 H88 0.931 . S
H68 C63 0.931 . S
H69 C64 0.930 . S
C70 O77 1.259 . S
C70 O78 1.258 . S
N71 Co62 2.057 1_556 S
N71 C72 1.316 1_556 S
N71 C73 1.375 . S
C72 N71 1.316 1_554 S
C72 N74 1.347 1_554 S
C72 H83 0.931 . S
C73 N71 1.375 . S
C73 C75 1.350 . S
C73 H82 0.930 . S
N74 C72 1.347 1_556 S
N74 C75 1.373 . S
C75 C73 1.350 . S
C75 N74 1.373 . S
C75 H89 0.931 . S
C76 O79 1.257 . S
C76 O80 1.254 1_554 S
O77 Co60 2.021 . S
O77 C70 1.259 . S
O78 Co62 2.117 1_556 S
O78 C70 1.258 . S
O79 Co62 2.020 . S
O79 C76 1.257 . S
O80 Co60 2.062 . S
O80 C76 1.254 1_556 S
O81 C61 1.259 . S
O81 Co62 2.021 . S
H82 C73 0.930 . S
H83 C72 0.931 . S
O84 Co60 2.117 1_554 S
O84 C61 1.258 . S
O85 Co60 2.020 . S
O85 C87 1.257 . S
O86 Co62 2.062 . S
O86 C87 1.254 1_554 S
C87 O85 1.257 . S
C87 O86 1.254 1_556 S
H88 C67 0.931 . S
H89 C75 0.931 . S
Co90 N95 2.057 . S
Co90 O107 2.021 . S
Co90 O110 2.062 . S
Co90 O114 2.117 . S
Co90 O115 2.020 . S
C91 O111 1.259 . S
C91 O114 1.258 . S
Co92 N101 2.057 . S
Co92 O108 2.117 . S
Co92 O109 2.020 . S
Co92 O111 2.021 . S
Co92 O116 2.062 . S
C93 N95 1.316 . S
C93 N96 1.347 . S
C93 H98 0.931 . S
C94 N95 1.375 . S
C94 C97 1.350 . S
C94 H99 0.930 . S
N95 Co90 2.057 . S
N95 C93 1.316 . S
N95 C94 1.375 . S
N96 C93 1.347 . S
N96 C97 1.373 . S
C97 C94 1.350 . S
C97 N96 1.373 . S
C97 H118 0.931 . S
H98 C93 0.931 . S
H99 C94 0.930 . S
C100 O107 1.259 . S
C100 O108 1.258 . S
N101 Co92 2.057 . S
N101 C102 1.316 . S
N101 C103 1.375 . S
C102 N101 1.316 . S
C102 N104 1.347 . S
C102 H113 0.931 . S
C103 N101 1.375 . S
C103 C105 1.350 . S
C103 H112 0.930 . S
N104 C102 1.347 . S
N104 C105 1.373 . S
C105 C103 1.350 . S
C105 N104 1.373 . S
C105 H119 0.931 . S
C106 O109 1.256 . S
C106 O110 1.255 . S
O107 Co90 2.021 . S
O107 C100 1.259 . S
O108 Co92 2.117 . S
O108 C100 1.258 . S
O109 Co92 2.020 . S
O109 C106 1.256 . S
O110 Co90 2.062 . S
O110 C106 1.255 . S
O111 C91 1.259 . S
O111 Co92 2.021 . S
H112 C103 0.930 . S
H113 C102 0.931 . S
O114 Co90 2.117 . S
O114 C91 1.258 . S
O115 Co90 2.020 . S
O115 C117 1.256 . S
O116 Co92 2.062 . S
O116 C117 1.255 . S
C117 O115 1.256 . S
C117 O116 1.255 . S
H118 C97 0.931 . S
H119 C105 0.931 . S
H120 C126 0.930 . S
H121 C130 0.930 . S
H122 C135 0.929 . S
H123 C133 0.929 . S
H124 C128 0.929 . S
H125 C134 0.929 . S
C126 H120 0.930 . S
C126 C127 1.367 . S
C126 C134 1.378 . S
C127 C126 1.367 . S
C127 C135 1.433 1_554 S
C128 H124 0.929 . S
C128 C130 1.378 . S
C128 C132 1.350 . S
C129 C132 1.463 1_554 S
C129 C134 1.350 . S
C129 N137 1.427 1_554 S
C130 H121 0.930 . S
C130 C128 1.378 . S
C130 C131 1.367 . S
C131 C130 1.367 . S
C131 C133 1.433 1_556 S
C132 C128 1.350 . S
C132 C129 1.463 1_556 S
C132 N136 1.427 1_556 S
C133 H123 0.929 . S
C133 C131 1.433 1_554 S
C133 N136 1.384 . S
C134 H125 0.929 . S
C134 C126 1.378 . S
C134 C129 1.350 . S
C135 H122 0.929 . S
C135 C127 1.433 1_556 S
C135 N137 1.384 . S
N136 C132 1.427 1_554 S
N136 C133 1.384 . S
N137 C129 1.427 1_556 S
N137 C135 1.384 . S
H138 C144 0.930 . S
H139 C148 0.930 . S
H140 C153 0.929 . S
H141 C151 0.929 . S
H142 C146 0.929 . S
H143 C152 0.929 . S
C144 H138 0.930 . S
C144 C145 1.367 1_554 S
C144 C152 1.378 . S
C145 C144 1.367 1_556 S
C145 C153 1.433 . S
C146 H142 0.929 . S
C146 C148 1.378 . S
C146 C150 1.354 . S
C147 C150 1.462 1_554 S
C147 C152 1.359 . S
C147 N155 1.419 1_554 S
C148 H139 0.930 . S
C148 C146 1.378 . S
C148 C149 1.367 1_556 S
C149 C148 1.367 1_554 S
C149 C151 1.433 . S
C150 C146 1.354 . S
C150 C147 1.462 1_556 S
C150 N154 1.423 1_556 S
C151 H141 0.929 . S
C151 C149 1.433 . S
C151 N154 1.384 . S
C152 H143 0.929 . S
C152 C144 1.378 . S
C152 C147 1.359 . S
C153 H140 0.929 . S
C153 C145 1.433 . S
C153 N155 1.384 . S
N154 C150 1.423 1_554 S
N154 C151 1.384 . S
N155 C147 1.419 1_556 S
N155 C153 1.384 . S
H156 C162 0.930 . S
H157 C166 0.930 . S
H158 C171 0.929 . S
H159 C169 0.929 . S
H160 C164 0.929 . S
H161 C170 0.929 . S
C162 H156 0.930 . S
C162 C163 1.367 . S
C162 C170 1.378 . S
C163 C162 1.367 . S
C163 C171 1.433 . S
C164 H160 0.929 . S
C164 C166 1.378 . S
C164 C168 1.350 . S
C165 C168 1.463 . S
C165 C170 1.350 . S
C165 N173 1.427 . S
C166 H157 0.930 . S
C166 C164 1.378 . S
C166 C167 1.367 . S
C167 C166 1.367 . S
C167 C169 1.433 . S
C168 C164 1.350 . S
C168 C165 1.463 . S
C168 N172 1.427 . S
C169 H159 0.929 . S
C169 C167 1.433 . S
C169 N172 1.384 . S
C170 H161 0.929 . S
C170 C162 1.378 . S
C170 C165 1.350 . S
C171 H158 0.929 . S
C171 C163 1.433 . S
C171 N173 1.384 . S
N172 C168 1.427 . S
N172 C169 1.384 . S
N173 C165 1.427 . S
N173 C171 1.384 . S
H174 C180 0.930 . S
H175 C184 0.930 . S
H176 C189 0.929 . S
H177 C187 0.929 . S
H178 C182 0.929 . S
H179 C188 0.929 . S
C180 H174 0.930 . S
C180 C181 1.367 . S
C180 C188 1.378 . S
C181 C180 1.367 . S
C181 C189 1.433 . S
C182 H178 0.929 . S
C182 C184 1.378 . S
C182 C186 1.350 . S
C183 C186 1.463 . S
C183 C188 1.350 . S
C183 N191 1.427 . S
C184 H175 0.930 . S
C184 C182 1.378 . S
C184 C185 1.367 . S
C185 C184 1.367 . S
C185 C187 1.433 . S
C186 C182 1.350 . S
C186 C183 1.463 . S
C186 N190 1.427 . S
C187 H177 0.929 . S
C187 C185 1.433 . S
C187 N190 1.384 . S
C188 H179 0.929 . S
C188 C180 1.378 . S
C188 C183 1.350 . S
C189 H176 0.929 . S
C189 C181 1.433 . S
C189 N191 1.384 . S
N190 C186 1.427 . S
N190 C187 1.384 . S
N191 C183 1.427 . S
N191 C189 1.384 . S
H192 C198 0.930 . S
H193 C202 0.930 . S
H194 C207 0.929 . S
H195 C205 0.929 . S
H196 C200 0.929 . S
H197 C206 0.929 . S
C198 H192 0.930 . S
C198 C199 1.354 1_556 S
C198 C206 1.378 . S
C199 C198 1.354 1_554 S
C199 C207 1.445 1_545 S
C200 H196 0.929 . S
C200 C202 1.378 . S
C200 C204 1.350 . S
C201 C204 1.463 1_546 S
C201 C206 1.370 . S
C201 N209 1.405 1_546 S
C202 H193 0.930 . S
C202 C200 1.378 . S
C202 C203 1.359 1_554 S
C203 C202 1.359 1_556 S
C203 C205 1.440 1_565 S
C204 C200 1.350 . S
C204 C201 1.463 1_564 S
C204 N208 1.427 1_564 S
C205 H195 0.929 . S
C205 C203 1.440 1_545 S
C205 N208 1.384 . S
C206 H197 0.929 . S
C206 C198 1.378 . S
C206 C201 1.370 . S
C207 H194 0.929 . S
C207 C199 1.445 1_565 S
C207 N209 1.384 . S
N208 C204 1.427 1_546 S
N208 C205 1.384 . S
N209 C201 1.405 1_564 S
N209 C207 1.384 . S
H210 C216 0.930 . S
H211 C220 0.930 . S
H212 C225 0.929 . S
H213 C223 0.929 . S
H214 C218 0.929 . S
H215 C224 0.929 . S
C216 H210 0.930 . S
C216 C217 1.367 1_545 S
C216 C224 1.378 . S
C217 C216 1.367 1_565 S
C217 C225 1.433 . S
C218 H214 0.929 . S
C218 C220 1.378 . S
C218 C222 1.331 1_565 S
C219 C222 1.461 1_565 S
C219 C224 1.336 1_565 S
C219 N227 1.444 . S
C220 H211 0.930 . S
C220 C218 1.378 . S
C220 C221 1.367 1_565 S
C221 C220 1.367 1_545 S
C221 C223 1.433 . S
C222 C218 1.331 1_545 S
C222 C219 1.461 1_545 S
C222 N226 1.450 . S
C223 H213 0.929 . S
C223 C221 1.433 . S
C223 N226 1.384 . S
C224 H215 0.929 . S
C224 C216 1.378 . S
C224 C219 1.336 1_545 S
C225 H212 0.929 . S
C225 C217 1.433 . S
C225 N227 1.384 . S
N226 C222 1.450 . S
N226 C223 1.384 . S
N227 C219 1.444 . S
N227 C225 1.384 . S
H228 C234 0.930 . S
H229 C238 0.930 . S
H230 C243 0.929 . S
H231 C241 0.929 . S
H232 C236 0.929 . S
H233 C242 0.929 . S
C234 H228 0.930 . S
C234 C235 1.367 . S
C234 C242 1.378 . S
C235 C234 1.367 . S
C235 C243 1.433 1_554 S
C236 H232 0.929 . S
C236 C238 1.378 . S
C236 C240 1.350 . S
C237 C240 1.463 1_654 S
C237 C242 1.350 . S
C237 N245 1.427 1_554 S
C238 H229 0.930 . S
C238 C236 1.378 . S
C238 C239 1.367 . S
C239 C238 1.367 . S
C239 C241 1.433 1_556 S
C240 C236 1.350 . S
C240 C237 1.463 1_456 S
C240 N244 1.427 1_556 S
C241 H231 0.929 . S
C241 C239 1.433 1_554 S
C241 N244 1.384 . S
C242 H233 0.929 . S
C242 C234 1.378 . S
C242 C237 1.350 . S
C243 H230 0.929 . S
C243 C235 1.433 1_556 S
C243 N245 1.384 . S
N244 C240 1.427 1_554 S
N244 C241 1.384 . S
N245 C237 1.427 1_556 S
N245 C243 1.384 . S
H246 C252 0.930 . S
H247 C256 0.930 . S
H248 C261 0.929 . S
H249 C259 0.929 . S
H250 C254 0.929 . S
H251 C260 0.929 . S
C252 H246 0.930 . S
C252 C253 1.367 . S
C252 C260 1.378 . S
C253 C252 1.367 . S
C253 C261 1.433 . S
C254 H250 0.929 . S
C254 C256 1.378 . S
C254 C258 1.350 . S
C255 C258 1.463 1_455 S
C255 C260 1.350 . S
C255 N263 1.427 . S
C256 H247 0.930 . S
C256 C254 1.378 . S
C256 C257 1.367 . S
C257 C256 1.367 . S
C257 C259 1.433 . S
C258 C254 1.350 . S
C258 C255 1.463 1_655 S
C258 N262 1.427 . S
C259 H249 0.929 . S
C259 C257 1.433 . S
C259 N262 1.384 . S
C260 H251 0.929 . S
C260 C252 1.378 . S
C260 C255 1.350 . S
C261 H248 0.929 . S
C261 C253 1.433 . S
C261 N263 1.384 . S
N262 C258 1.427 . S
N262 C259 1.384 . S
N263 C255 1.427 . S
N263 C261 1.384 . S
H264 C270 0.930 . S
H265 C274 0.930 . S
H266 C279 0.929 . S
H267 C277 0.929 . S
H268 C272 0.929 . S
H269 C278 0.929 . S
C270 H264 0.930 . S
C270 C271 1.346 1_565 S
C270 C278 1.378 . S
C271 C270 1.346 1_545 S
C271 C279 1.455 1_655 S
C272 H268 0.929 . S
C272 C274 1.378 . S
C272 C276 1.350 . S
C273 C276 1.464 1_655 S
C273 C278 1.335 1_545 S
C273 N281 1.443 1_655 S
C274 H265 0.930 . S
C274 C272 1.378 . S
C274 C275 1.367 . S
C275 C274 1.367 . S
C275 C277 1.433 1_445 S
C276 C272 1.350 . S
C276 C273 1.464 1_455 S
C276 N280 1.427 1_445 S
C277 H267 0.929 . S
C277 C275 1.433 1_665 S
C277 N280 1.384 . S
C278 H269 0.929 . S
C278 C270 1.378 . S
C278 C273 1.335 1_565 S
C279 H266 0.929 . S
C279 C271 1.455 1_455 S
C279 N281 1.384 . S
N280 C276 1.427 1_665 S
N280 C277 1.384 . S
N281 C273 1.443 1_455 S
N281 C279 1.384 . S
H282 C288 0.930 . S
H283 C292 0.930 . S
H284 C297 0.929 . S
H285 C295 0.929 . S
H286 C290 0.929 . S
H287 C296 0.929 . S
C288 H282 0.930 . S
C288 C289 1.350 1_545 S
C288 C296 1.378 . S
C289 C288 1.350 1_565 S
C289 C297 1.451 1_455 S
C290 H286 0.929 . S
C290 C292 1.378 . S
C290 C294 1.350 . S
C291 C294 1.463 1_455 S
C291 C296 1.340 1_565 S
C291 N299 1.438 1_455 S
C292 H283 0.930 . S
C292 C290 1.378 . S
C292 C293 1.366 1_655 S
C293 C292 1.366 1_455 S
C293 C295 1.434 1_565 S
C294 C290 1.350 . S
C294 C291 1.463 1_655 S
C294 N298 1.427 1_665 S
C295 H285 0.929 . S
C295 C293 1.434 1_545 S
C295 N298 1.384 . S
C296 H287 0.929 . S
C296 C288 1.378 . S
C296 C291 1.340 1_545 S
C297 H284 0.929 . S
C297 C289 1.451 1_655 S
C297 N299 1.384 . S
N298 C294 1.427 1_445 S
N298 C295 1.384 . S
N299 C291 1.438 1_655 S
N299 C297 1.384 . S
H300 C306 0.930 . S
H301 C310 0.930 . S
H302 C315 0.929 . S
H303 C313 0.929 . S
H304 C308 0.929 . S
H305 C314 0.929 . S
C306 H300 0.930 . S
C306 C307 1.367 . S
C306 C314 1.378 . S
C307 C306 1.367 . S
C307 C315 1.433 . S
C308 H304 0.929 . S
C308 C310 1.378 . S
C308 C312 1.350 . S
C309 C312 1.463 . S
C309 C314 1.350 . S
C309 N317 1.427 . S
C310 H301 0.930 . S
C310 C308 1.378 . S
C310 C311 1.367 . S
C311 C310 1.367 . S
C311 C313 1.433 . S
C312 C308 1.350 . S
C312 C309 1.463 . S
C312 N316 1.427 . S
C313 H303 0.929 . S
C313 C311 1.433 . S
C313 N316 1.384 . S
C314 H305 0.929 . S
C314 C306 1.378 . S
C314 C309 1.350 . S
C315 H302 0.929 . S
C315 C307 1.433 . S
C315 N317 1.384 . S
N316 C312 1.427 . S
N316 C313 1.384 . S
N317 C309 1.427 . S
N317 C315 1.384 . S
H318 C324 0.930 . S
H319 C328 0.930 . S
H320 C333 0.929 . S
H321 C331 0.929 . S
H322 C326 0.929 . S
H323 C332 0.929 . S
C324 H318 0.930 . S
C324 C325 1.367 . S
C324 C332 1.378 . S
C325 C324 1.367 . S
C325 C333 1.433 . S
C326 H322 0.929 . S
C326 C328 1.378 . S
C326 C330 1.350 . S
C327 C330 1.463 . S
C327 C332 1.350 . S
C327 N335 1.427 . S
C328 H319 0.930 . S
C328 C326 1.378 . S
C328 C329 1.367 . S
C329 C328 1.367 . S
C329 C331 1.433 . S
C330 C326 1.350 . S
C330 C327 1.463 . S
C330 N334 1.427 . S
C331 H321 0.929 . S
C331 C329 1.433 . S
C331 N334 1.384 . S
C332 H323 0.929 . S
C332 C324 1.378 . S
C332 C327 1.350 . S
C333 H320 0.929 . S
C333 C325 1.433 . S
C333 N335 1.384 . S
N334 C330 1.427 . S
N334 C331 1.384 . S
N335 C327 1.427 . S
N335 C333 1.384 . S
C127 N74 1.540 1_554 S
C131 N6 1.543 1_556 S
C145 N66 1.533 1_556 S
C149 N14 1.530 1_554 S
C163 N44 1.542 . S
C167 N96 1.538 . S
C181 N36 1.532 . S
C185 N104 1.536 . S
C199 C16 0.961 . S
C203 C27 0.961 . S
C217 C57 0.957 . S
C221 C46 0.957 . S
C235 C76 0.962 . S
C239 C87 0.962 . S
C253 C106 0.957 . S
C257 C117 0.957 . S
C271 C31 1.501 . S
C275 C1 1.493 . S
C289 C10 1.501 1_455 S
C293 C40 1.499 . S
C307 C91 1.495 . S
C311 C61 1.496 . S
C325 C100 1.497 . S
C329 C70 1.501 . S
