# Generated by pormake.
# Topology uni, (4)-cn, num edge types: 1
# Building blocks:
#     Node 0, Type 0, BuildingBlock: CEKHIL_clean_sbu_0, # of connection points: 4
#     Node 1, Type 0, BuildingBlock: CEKHIL_clean_sbu_0, # of connection points: 4
#     Node 2, Type 0, BuildingBlock: CEKHIL_clean_sbu_0, # of connection points: 4
#     Node 3, Type 0, BuildingBlock: CEKHIL_clean_sbu_0, # of connection points: 4
#     Node 4, Type 0, BuildingBlock: CEKHIL_clean_sbu_0, # of connection points: 4
#     Node 5, Type 0, BuildingBlock: CEKHIL_clean_sbu_0, # of connection points: 4
#     Edge 6, Type (0, 0), BuildingBlock: FUNLAD_clean_linker_0, # of connection points: 2
#     Edge 7, Type (0, 0), BuildingBlock: FUNLAD_clean_linker_0, # of connection points: 2
#     Edge 8, Type (0, 0), BuildingBlock: FUNLAD_clean_linker_0, # of connection points: 2
#     Edge 9, Type (0, 0), BuildingBlock: FUNLAD_clean_linker_0, # of connection points: 2
#     Edge 10, Type (0, 0), BuildingBlock: FUNLAD_clean_linker_0, # of connection points: 2
#     Edge 11, Type (0, 0), BuildingBlock: FUNLAD_clean_linker_0, # of connection points: 2
#     Edge 12, Type (0, 0), BuildingBlock: FUNLAD_clean_linker_0, # of connection points: 2
#     Edge 13, Type (0, 0), BuildingBlock: FUNLAD_clean_linker_0, # of connection points: 2
#     Edge 14, Type (0, 0), BuildingBlock: FUNLAD_clean_linker_0, # of connection points: 2
#     Edge 15, Type (0, 0), BuildingBlock: FUNLAD_clean_linker_0, # of connection points: 2
#     Edge 16, Type (0, 0), BuildingBlock: FUNLAD_clean_linker_0, # of connection points: 2
#     Edge 17, Type (0, 0), BuildingBlock: FUNLAD_clean_linker_0, # of connection points: 2
# Relax obj value: 0.072
# Max RMSD: 0.101
# Mean RMSD: 0.095
data_MOF--net-uni--node1-CEKHIL_clean_sbu_0--edge1-FUNLAD_clean_linker_0
_symmetry_space_group_name_H-M    P1
_symmetry_Int_Tables_number       1
_symmetry_cell_setting            triclinic
loop_
_symmetry_equiv_pos_as_xyz
'x, y, z'
_cell_length_a     44.75378
_cell_length_b     44.398661
_cell_length_c     26.804792
_cell_angle_alpha  89.94053
_cell_angle_beta   90.10715
_cell_angle_gamma 120.79167
loop_
_atom_site_label
_atom_site_type_symbol
_atom_site_fract_x
_atom_site_fract_y
_atom_site_fract_z
_atom_type_partial_charge
Co0 Co 0.66771 0.03858 0.07649 0.0
O1 O 0.68508 0.01594 0.11947 0.0
O2 O 0.64094 0.98834 0.06707 0.0
C3 C 0.72046 0.08066 0.04849 0.0
O4 O 0.64316 0.05187 0.02424 0.0
Co5 Co 0.68639 0.11555 0.08957 0.0
O6 O 0.66511 0.11001 0.02268 0.0
C7 C 0.63625 0.06071 0.15863 0.0
C8 C 0.6616 0.98656 0.09952 0.0
C9 C 0.64563 0.07952 0.00446 0.0
O10 O 0.63537 0.03643 0.13114 0.0
O11 O 0.65687 0.09345 0.15021 0.0
O12 O 0.70487 0.0496 0.0286 0.0
O13 O 0.70492 0.08462 0.08622 0.0
Co14 Co 0.66025 0.66716 0.24606 0.0
O15 O 0.70013 0.68751 0.29033 0.0
O16 O 0.68873 0.6468 0.23368 0.0
C17 C 0.66427 0.71848 0.2246 0.0
O18 O 0.62408 0.64076 0.19192 0.0
Co19 Co 0.59461 0.67249 0.26108 0.0
O20 O 0.58027 0.65144 0.19361 0.0
C21 C 0.60611 0.62468 0.32473 0.0
C22 C 0.70924 0.66727 0.26856 0.0
C23 C 0.59607 0.63759 0.17333 0.0
O24 O 0.63181 0.62962 0.29713 0.0
O25 O 0.59015 0.64151 0.31861 0.0
O26 O 0.68348 0.70839 0.20232 0.0
O27 O 0.64505 0.69855 0.26033 0.0
Co28 Co 0.02674 0.66261 0.3896 0.0
O29 O 1.00374 0.67888 0.34537 0.0
O30 O 0.9771 0.63664 0.40123 0.0
C31 C 0.07025 0.71644 0.41264 0.0
O32 O 0.04078 0.63961 0.4436 0.0
Co33 Co 0.10234 0.6791 0.3734 0.0
O34 O 0.09842 0.6612 0.4423 0.0
C35 C 0.04497 0.62429 0.31227 0.0
C36 C 0.97486 0.65603 0.3668 0.0
C37 C 0.06871 0.64263 0.46255 0.0
O38 O 0.02223 0.62705 0.33821 0.0
O39 O 0.07782 0.6442 0.31861 0.0
O40 O 0.03994 0.70267 0.43388 0.0
O41 O 0.07241 0.69863 0.37631 0.0
Co42 Co 0.39851 0.02035 0.57675 0.0
O43 O 0.3795 0.04121 0.62014 0.0
O44 O 0.42223 0.07042 0.56626 0.0
C45 C 0.34673 0.97527 0.55052 0.0
O46 O 0.42419 0.00903 0.52384 0.0
Co47 Co 0.38562 0.94523 0.59118 0.0
O48 O 0.40662 0.95174 0.52407 0.0
C49 C 0.43285 1.00237 0.6597 0.0
C50 C 0.40136 0.07097 0.59938 0.0
C51 C 0.42384 0.98219 0.50479 0.0
O52 O 0.43278 0.02555 0.63067 0.0
O53 O 0.41346 0.96932 0.65235 0.0
O54 O 0.3596 0.00607 0.53025 0.0
O55 O 0.36407 0.97343 0.58766 0.0
Co56 Co 0.39684 0.38724 0.74461 0.0
O57 O 0.35741 0.36834 0.78951 0.0
O58 O 0.36862 0.40768 0.73066 0.0
C59 C 0.3921 0.33522 0.72573 0.0
O60 O 0.43244 0.41199 0.68931 0.0
Co61 Co 0.46225 0.3815 0.76035 0.0
O62 O 0.47572 0.40052 0.69179 0.0
C63 C 0.45358 0.43316 0.81893 0.0
C64 C 0.34831 0.38818 0.76635 0.0
C65 C 0.46 0.41421 0.67069 0.0
O66 O 0.42614 0.42605 0.79377 0.0
O67 O 0.46992 0.4167 0.81316 0.0
O68 O 0.37283 0.34506 0.7029 0.0
O69 O 0.4118 0.3558 0.76068 0.0
Co70 Co 0.03387 0.3989 0.88377 0.0
O71 O 0.05489 0.38005 0.84033 0.0
O72 O 0.08392 0.42583 0.89007 0.0
C73 C 0.99212 0.34662 0.9145 0.0
O74 O 0.02283 0.42515 0.93598 0.0
Co75 Co 0.95744 0.38123 0.87537 0.0
O76 O 0.96563 0.40516 0.94081 0.0
C77 C 1.01 0.42942 0.80236 0.0
C78 C 0.08468 0.40432 0.85799 0.0
C79 C 0.99657 0.42437 0.95696 0.0
O80 O 0.03484 0.43068 0.82857 0.0
O81 O 0.97778 0.40909 0.81279 0.0
O82 O 0.02344 0.36197 0.93286 0.0
O83 O 0.98776 0.36206 0.87684 0.0
C84 C 0.58446 0.0167 0.20939 0.0
C85 C 0.61222 0.05118 0.20185 0.0
C86 C 0.56138 0.00881 0.24945 0.0
C87 C 0.56572 0.03531 0.28288 0.0
C88 C 0.59388 0.06945 0.27567 0.0
C89 C 0.61667 0.07731 0.2358 0.0
C90 C 0.54225 0.02922 0.32605 0.0
C91 C 0.51076 1.00029 0.33316 0.0
C92 C 0.48819 0.99632 0.37654 0.0
C93 C 0.46481 0.96262 0.39474 0.0
C94 C 0.44377 0.958 0.43603 0.0
C95 C 0.44526 0.98703 0.45979 0.0
H96 H 0.50572 0.05164 0.38541 0.0
C97 C 0.4679 0.02071 0.44055 0.0
C98 C 0.48906 0.02532 0.39942 0.0
H99 H 0.46953 0.04365 0.45746 0.0
H100 H 0.58033 0.99589 0.18411 0.0
H101 H 0.54053 0.98196 0.25397 0.0
H102 H 0.59817 0.09041 0.30079 0.0
H103 H 0.63784 0.10414 0.23167 0.0
H104 H 0.55154 0.05025 0.35326 0.0
H105 H 0.50125 0.9784 0.30752 0.0
H106 H 0.46322 0.93979 0.37749 0.0
H107 H 0.42645 0.93162 0.44944 0.0
C108 C 0.56725 0.59458 0.39766 0.0
C109 C 0.59344 0.59797 0.36512 0.0
C110 C 0.55409 0.56905 0.43486 0.0
C111 C 0.56646 0.54582 0.44042 0.0
C112 C 0.59333 0.54973 0.40896 0.0
C113 C 0.60662 0.57544 0.37149 0.0
C114 C 0.55258 0.51837 0.48 0.0
C115 C 0.5196 0.50361 0.49694 0.0
C116 C 0.50469 0.47877 0.53978 0.0
C117 C 0.47164 0.47018 0.55714 0.0
C118 C 0.45694 0.44874 0.59886 0.0
C119 C 0.47482 0.43504 0.62438 0.0
H120 H 0.54755 0.46965 0.55229 0.0
C121 C 0.50747 0.44268 0.60625 0.0
C122 C 0.5223 0.46432 0.56448 0.0
H123 H 0.52195 0.43247 0.62486 0.0
H124 H 0.55678 0.61175 0.39462 0.0
H125 H 0.53456 0.56806 0.45967 0.0
H126 H 0.60375 0.53256 0.41295 0.0
H127 H 0.62693 0.57743 0.34735 0.0
H128 H 0.5701 0.51056 0.49499 0.0
H129 H 0.50233 0.51085 0.47917 0.0
H130 H 0.45728 0.48069 0.53893 0.0
H131 H 0.43167 0.44333 0.61143 0.0
C132 C 0.05107 0.48322 0.7523 0.0
C133 C 0.01817 0.45293 0.75863 0.0
C134 C 0.05711 0.50642 0.71271 0.0
C135 C 0.03031 0.49956 0.67854 0.0
C136 C 0.99797 0.46868 0.68416 0.0
C137 C 0.9919 0.44582 0.72363 0.0
C138 C 0.0343 0.52326 0.63637 0.0
C139 C 0.05986 0.55709 0.63225 0.0
C140 C 0.06142 0.57969 0.59 0.0
C141 C 0.0939 0.60666 0.57327 0.0
C142 C 0.09627 0.62746 0.53247 0.0
C143 C 0.06608 0.62213 0.50791 0.0
H144 H 1.00557 0.55547 0.57959 0.0
C145 C 0.03348 0.59606 0.52603 0.0
C146 C 0.03115 0.5751 0.56658 0.0
H147 H 1.00968 0.59139 0.50841 0.0
H148 H 0.07189 0.4894 0.7785 0.0
H149 H 0.08272 0.52943 0.70917 0.0
H150 H 0.97692 0.46242 0.65831 0.0
H151 H 0.96632 0.42258 0.72686 0.0
H152 H 0.01437 0.5122 0.60762 0.0
H153 H 0.08068 0.56862 0.65955 0.0
H154 H 0.1176 0.61113 0.59107 0.0
H155 H 0.12183 0.64752 0.51992 0.0
C156 C 0.59918 0.04215 0.94228 0.0
C157 C 0.62408 0.07562 0.95989 0.0
C158 C 0.57803 0.03837 0.90146 0.0
C159 C 0.58115 0.06802 0.87722 0.0
C160 C 0.60673 0.10144 0.89376 0.0
C161 C 0.62779 0.10525 0.93483 0.0
C162 C 0.55864 0.06471 0.83399 0.0
C163 C 0.52575 0.03755 0.82942 0.0
C164 C 0.50231 0.03098 0.78596 0.0
C165 C 0.47221 0.99774 0.78236 0.0
C166 C 0.44969 0.98903 0.74191 0.0
C167 C 0.45633 0.01343 0.70375 0.0
H168 H 0.53122 0.08213 0.75011 0.0
C169 C 0.48583 0.04724 0.70783 0.0
C170 C 0.50874 0.05595 0.74847 0.0
H171 H 0.49161 0.06668 0.67917 0.0
H172 H 0.59578 0.01872 0.9602 0.0
H173 H 0.55957 0.01214 0.88869 0.0
H174 H 0.61005 0.12471 0.87538 0.0
H175 H 0.64689 0.13146 0.947 0.0
H176 H 0.56949 0.08535 0.80618 0.0
H177 H 0.51533 0.01807 0.85899 0.0
H178 H 0.46628 0.97801 0.81066 0.0
H179 H 0.42702 0.96286 0.74053 0.0
C180 C 0.54935 0.60949 0.10739 0.0
C181 C 0.58091 0.61552 0.12806 0.0
C182 C 0.53432 0.58701 0.0664 0.0
C183 C 0.55064 0.57011 0.04512 0.0
C184 C 0.58237 0.57664 0.06544 0.0
C185 C 0.59736 0.59905 0.10615 0.0
C186 C 0.53543 0.5445 0.00324 0.0
C187 C 0.5089 0.53975 0.97356 0.0
C188 C 0.49535 0.51368 0.932 0.0
C189 C 0.4608 0.49941 0.91558 0.0
C190 C 0.44712 0.47376 0.87801 0.0
C191 C 0.4678 0.4619 0.85624 0.0
H192 H 0.5436 0.51445 0.9176 0.0
C193 C 0.5027 0.47725 0.87132 0.0
C194 C 0.51639 0.50297 0.90823 0.0
H195 H 0.51968 0.46943 0.85447 0.0
H196 H 0.53588 0.62164 0.12338 0.0
H197 H 0.50965 0.58247 0.0526 0.0
H198 H 0.59563 0.56408 0.04997 0.0
H199 H 0.62167 0.603 0.12084 0.0
H200 H 0.54702 0.52853 0.99697 0.0
H201 H 0.4961 0.55452 0.98011 0.0
H202 H 0.44413 0.50756 0.9326 0.0
H203 H 0.42019 0.46263 0.86697 0.0
C204 C 0.97533 0.44829 0.02462 0.0
C205 C 1.00293 0.44766 1.00048 0.0
C206 C 0.98172 0.47116 0.06461 0.0
C207 C 0.01596 0.49393 0.08142 0.0
C208 C 0.04337 0.49303 0.05741 0.0
C209 C 0.037 0.4702 0.01768 0.0
C210 C 0.02488 0.51978 0.12254 0.0
C211 C 1.0021 0.51967 0.15565 0.0
C212 C 0.01307 0.5459 0.19679 0.0
C213 C 0.98895 0.55378 0.21733 0.0
C214 C 0.99891 0.57892 0.25527 0.0
C215 C 0.03324 0.59664 0.27347 0.0
H216 H 0.06601 0.55634 0.20375 0.0
C217 C 0.05697 0.58788 0.25391 0.0
C218 C 0.047 0.56272 0.2165 0.0
H219 H 0.08342 0.60034 0.26774 0.0
H220 H 0.94874 0.43137 0.01231 0.0
H221 H 0.9598 0.47125 0.08126 0.0
H222 H 0.07002 0.51021 0.06936 0.0
H223 H 0.05897 0.47054 1.00017 0.0
H224 H 0.05211 0.54004 0.12541 0.0
H225 H 0.9746 0.50038 0.15262 0.0
H226 H 0.96249 0.54086 0.20345 0.0
H227 H 0.97991 0.58485 0.26973 0.0
C228 C 0.67824 0.7686 0.16619 0.0
C229 C 0.66435 0.75093 0.21146 0.0
C230 C 0.67808 0.79945 0.15505 0.0
C231 C 0.6645 0.81334 0.18943 0.0
C232 C 0.65104 0.79578 0.23472 0.0
C233 C 0.65056 0.76477 0.24536 0.0
C234 C 0.66529 0.84682 0.18068 0.0
C235 C 0.66175 0.85775 0.13534 0.0
C236 C 0.66106 0.89065 0.12796 0.0
C237 C 0.64138 0.89271 0.08869 0.0
C238 C 0.64064 0.92347 0.0804 0.0
C239 C 0.66017 0.95313 0.11067 0.0
H240 H 0.69658 0.91999 0.18837 0.0
C241 C 0.68001 0.95115 0.14985 0.0
C242 C 0.6804 0.92026 0.15852 0.0
H243 H 0.69559 0.97363 0.17355 0.0
H244 H 0.68912 0.75858 0.13944 0.0
H245 H 0.68932 0.81277 0.12019 0.0
H246 H 0.64064 0.806 0.26198 0.0
H247 H 0.63985 0.75192 0.28072 0.0
H248 H 0.66643 0.86177 0.21344 0.0
H249 H 0.65706 0.8411 0.10306 0.0
H250 H 0.62642 0.87039 0.0644 0.0
H251 H 0.62535 0.92425 0.04958 0.0
C252 C 0.94047 0.67954 0.32589 0.0
C253 C 0.94124 0.65312 0.35383 0.0
C254 C 0.90885 0.67752 0.31522 0.0
C255 C 0.87722 0.64882 0.3319 0.0
C256 C 0.87798 0.62204 0.35877 0.0
C257 C 0.90964 0.62433 0.37013 0.0
C258 C 0.84308 0.64553 0.32046 0.0
C259 C 0.83884 0.67341 0.31633 0.0
C260 C 0.80475 0.67038 0.30527 0.0
C261 C 0.79848 0.69648 0.32267 0.0
C262 C 0.76721 0.69511 0.31164 0.0
C263 C 0.74175 0.66795 0.28203 0.0
H264 H 0.78336 0.6229 0.26077 0.0
C265 C 0.74806 0.64191 0.2643 0.0
C266 C 0.77914 0.643 0.27592 0.0
H267 H 0.72904 0.6207 0.2412 0.0
H268 H 0.96437 0.70202 0.31269 0.0
H269 H 0.90923 0.69819 0.29326 0.0
H270 H 0.854 0.59947 0.37164 0.0
H271 H 0.90934 0.60346 0.39153 0.0
H272 H 0.82049 0.61924 0.31811 0.0
H273 H 0.86082 0.69949 0.32368 0.0
H274 H 0.81785 0.71802 0.34499 0.0
H275 H 0.76326 0.7157 0.32561 0.0
C276 C 0.13402 0.75977 0.41053 0.0
C277 C 0.10096 0.74954 0.42974 0.0
C278 C 0.16327 0.79109 0.42572 0.0
C279 C 0.16016 0.81305 0.46041 0.0
C280 C 0.12704 0.80319 0.47901 0.0
C281 C 0.09772 0.77152 0.46421 0.0
C282 C 0.19104 0.84659 0.47681 0.0
C283 C 0.22269 0.85024 0.48176 0.0
C284 C 0.25389 0.88295 0.49925 0.0
C285 C 0.27884 0.88027 0.52745 0.0
C286 C 0.30885 0.91031 0.54407 0.0
C287 C 0.31509 0.9438 0.53168 0.0
H288 H 0.24156 0.91932 0.46404 0.0
C289 C 0.29054 0.94664 0.50247 0.0
C290 C 0.25999 0.91644 0.4867 0.0
H291 H 0.29471 0.97214 0.4924 0.0
H292 H 0.13739 0.7436 0.38359 0.0
H293 H 0.18821 0.7983 0.40952 0.0
H294 H 0.12391 0.8198 0.50547 0.0
H295 H 0.07253 0.76445 0.47935 0.0
H296 H 0.18721 0.86795 0.48768 0.0
H297 H 0.22555 0.82763 0.47588 0.0
H298 H 0.2749 0.85479 0.5372 0.0
H299 H 0.3273 0.90722 0.56638 0.0
C300 C 0.37793 0.28472 0.66816 0.0
C301 C 0.39214 0.30276 0.71312 0.0
C302 C 0.37843 0.25406 0.65718 0.0
C303 C 0.39273 0.24071 0.69137 0.0
C304 C 0.40643 0.25857 0.73644 0.0
C305 C 0.40653 0.28942 0.74695 0.0
C306 C 0.39269 0.20761 0.68244 0.0
C307 C 0.39598 0.19684 0.6369 0.0
C308 C 0.39779 0.16459 0.62903 0.0
C309 C 0.41719 0.16328 0.58887 0.0
C310 C 0.41912 0.13324 0.58008 0.0
C311 C 0.40108 0.10352 0.61072 0.0
H312 H 0.36396 0.1346 0.69049 0.0
C313 C 0.38144 0.10468 0.65073 0.0
C314 C 0.37988 0.1349 0.65992 0.0
H315 H 0.36701 0.08213 0.67477 0.0
H316 H 0.36659 0.29436 0.64146 0.0
H317 H 0.36698 0.2405 0.62251 0.0
H318 H 0.41737 0.24877 0.76357 0.0
H319 H 0.41751 0.30257 0.78205 0.0
H320 H 0.39245 0.19297 0.7151 0.0
H321 H 0.39977 0.21328 0.60468 0.0
H322 H 0.43105 0.18565 0.5643 0.0
H323 H 0.43422 0.1331 0.54865 0.0
C324 C 0.11768 0.37828 0.82002 0.0
C325 C 0.11778 0.40644 0.84413 0.0
C326 C 0.14897 0.37958 0.8094 0.0
C327 C 0.18109 0.40927 0.8223 0.0
C328 C 0.18115 0.43775 0.84516 0.0
C329 C 0.14988 0.43623 0.85647 0.0
C330 C 0.21493 0.41184 0.81108 0.0
C331 C 0.21919 0.38388 0.8107 0.0
C332 C 0.25314 0.38642 0.80031 0.0
C333 C 0.25974 0.36122 0.82071 0.0
C334 C 0.29092 0.36218 0.81059 0.0
C335 C 0.31596 0.38803 0.77899 0.0
H336 H 0.27386 0.43178 0.75142 0.0
C337 C 0.30932 0.41316 0.75831 0.0
C338 C 0.27833 0.41245 0.76891 0.0
H339 H 0.32799 0.43331 0.73359 0.0
H340 H 0.09338 0.35497 0.80996 0.0
H341 H 0.14792 0.35751 0.79053 0.0
H342 H 0.20549 0.46108 0.85504 0.0
H343 H 0.15087 0.45842 0.87489 0.0
H344 H 0.23741 0.43793 0.80592 0.0
H345 H 0.19744 0.35827 0.8208 0.0
H346 H 0.24072 0.34071 0.84469 0.0
H347 H 0.29512 0.34231 0.82686 0.0
C348 C 0.93061 0.29734 0.91028 0.0
C349 C 0.96253 0.31442 0.93589 0.0
C350 C 0.90215 0.26713 0.92979 0.0
C351 C 0.90488 0.2532 0.97554 0.0
C352 C 0.93669 0.27047 1.00148 0.0
C353 C 0.96539 0.30064 0.98164 0.0
C354 C 0.87439 0.22198 0.99807 0.0
C355 C 0.84863 0.19647 0.97048 0.0
C356 C 0.81664 0.16653 0.99227 0.0
C357 C 0.79837 0.13512 0.96514 0.0
C358 C 0.76727 0.10701 0.98348 0.0
C359 C 0.75349 0.11002 0.02896 0.0
H360 H 0.81557 0.19358 0.05915 0.0
C361 C 0.77159 0.14153 0.05593 0.0
C362 C 0.80284 0.16947 0.03789 0.0
H363 H 0.76156 0.1447 0.09104 0.0
H364 H 0.92747 0.3074 0.87506 0.0
H365 H 0.87783 0.25531 0.90945 0.0
H366 H 0.93936 0.26052 0.03711 0.0
H367 H 0.98961 0.31336 1.00234 0.0
H368 H 0.87362 0.21972 0.03846 0.0
H369 H 0.85123 0.197 0.93015 0.0
H370 H 0.8082 0.13231 0.92961 0.0
H371 H 0.75384 0.0831 0.96178 0.0
loop_
_geom_bond_atom_site_label_1
_geom_bond_atom_site_label_2
_geom_bond_distance
_geom_bond_site_symmetry_2
_ccdc_geom_bond_type
Co0 O1 2.218 1_545 S
Co0 O2 2.091 1_545 S
Co0 O4 2.004 1_554 S
Co0 O10 2.021 . S
Co0 O12 2.137 . S
Co0 O13 2.244 . S
O1 Co0 2.218 1_565 S
O1 C8 1.244 . S
O2 Co0 2.091 1_565 S
O2 C8 1.261 . S
C3 O12 1.247 . S
C3 O13 1.272 . S
O4 Co0 2.004 1_556 S
O4 C9 1.259 . S
Co5 O6 2.061 . S
Co5 O11 2.052 . S
Co5 O13 2.135 . S
O6 Co5 2.061 . S
O6 C9 1.235 1_554 S
C7 O10 1.238 . S
C7 O11 1.241 . S
C8 O1 1.244 . S
C8 O2 1.261 . S
C9 O4 1.259 . S
C9 O6 1.235 1_556 S
O10 Co0 2.021 . S
O10 C7 1.238 . S
O11 Co5 2.052 . S
O11 C7 1.241 . S
O12 Co0 2.137 . S
O12 C3 1.247 . S
O13 Co0 2.244 . S
O13 C3 1.272 . S
O13 Co5 2.135 . S
Co14 O15 2.216 . S
Co14 O16 2.091 . S
Co14 O18 2.004 . S
Co14 O24 2.021 . S
Co14 O26 2.137 . S
Co14 O27 2.244 . S
O15 Co14 2.216 . S
O15 C22 1.247 . S
O16 Co14 2.091 . S
O16 C22 1.261 . S
C17 O26 1.247 . S
C17 O27 1.272 . S
O18 Co14 2.004 . S
O18 C23 1.259 . S
Co19 O20 2.061 . S
Co19 O25 2.052 . S
Co19 O27 2.135 . S
O20 Co19 2.061 . S
O20 C23 1.235 . S
C21 O24 1.238 . S
C21 O25 1.241 . S
C22 O15 1.247 . S
C22 O16 1.261 . S
C23 O18 1.259 . S
C23 O20 1.235 . S
O24 Co14 2.021 . S
O24 C21 1.238 . S
O25 Co19 2.052 . S
O25 C21 1.241 . S
O26 Co14 2.137 . S
O26 C17 1.247 . S
O27 Co14 2.244 . S
O27 C17 1.272 . S
O27 Co19 2.135 . S
Co28 O29 2.216 1_455 S
Co28 O30 2.091 1_455 S
Co28 O32 2.004 . S
Co28 O38 2.021 . S
Co28 O40 2.137 . S
Co28 O41 2.244 . S
O29 Co28 2.216 1_655 S
O29 C36 1.247 . S
O30 Co28 2.091 1_655 S
O30 C36 1.261 . S
C31 O40 1.247 . S
C31 O41 1.272 . S
O32 Co28 2.004 . S
O32 C37 1.259 . S
Co33 O34 2.061 . S
Co33 O39 2.052 . S
Co33 O41 2.135 . S
O34 Co33 2.061 . S
O34 C37 1.235 . S
C35 O38 1.238 . S
C35 O39 1.241 . S
C36 O29 1.247 . S
C36 O30 1.261 . S
C37 O32 1.259 . S
C37 O34 1.235 . S
O38 Co28 2.021 . S
O38 C35 1.238 . S
O39 Co33 2.052 . S
O39 C35 1.241 . S
O40 Co28 2.137 . S
O40 C31 1.247 . S
O41 Co28 2.244 . S
O41 C31 1.272 . S
O41 Co33 2.135 . S
Co42 O43 2.216 . S
Co42 O44 2.091 . S
Co42 O46 2.004 . S
Co42 O52 2.021 . S
Co42 O54 2.137 . S
Co42 O55 2.244 1_545 S
O43 Co42 2.216 . S
O43 C50 1.247 . S
O44 Co42 2.091 . S
O44 C50 1.261 . S
C45 O54 1.247 1_565 S
C45 O55 1.272 . S
O46 Co42 2.004 . S
O46 C51 1.259 . S
Co47 O48 2.061 . S
Co47 O53 2.052 . S
Co47 O55 2.135 . S
O48 Co47 2.061 . S
O48 C51 1.235 1_565 S
C49 O52 1.238 . S
C49 O53 1.241 1_545 S
C50 O43 1.247 . S
C50 O44 1.261 . S
C51 O46 1.259 . S
C51 O48 1.235 1_545 S
O52 Co42 2.021 . S
O52 C49 1.238 . S
O53 Co47 2.052 . S
O53 C49 1.241 1_565 S
O54 Co42 2.137 . S
O54 C45 1.247 1_545 S
O55 Co42 2.244 1_565 S
O55 C45 1.272 . S
O55 Co47 2.135 . S
Co56 O57 2.216 . S
Co56 O58 2.091 . S
Co56 O60 2.004 . S
Co56 O66 2.021 . S
Co56 O68 2.137 . S
Co56 O69 2.244 . S
O57 Co56 2.216 . S
O57 C64 1.247 . S
O58 Co56 2.091 . S
O58 C64 1.261 . S
C59 O68 1.247 . S
C59 O69 1.272 . S
O60 Co56 2.004 . S
O60 C65 1.259 . S
Co61 O62 2.061 . S
Co61 O67 2.052 . S
Co61 O69 2.135 . S
O62 Co61 2.061 . S
O62 C65 1.235 . S
C63 O66 1.238 . S
C63 O67 1.241 . S
C64 O57 1.247 . S
C64 O58 1.261 . S
C65 O60 1.259 . S
C65 O62 1.235 . S
O66 Co56 2.021 . S
O66 C63 1.238 . S
O67 Co61 2.052 . S
O67 C63 1.241 . S
O68 Co56 2.137 . S
O68 C59 1.247 . S
O69 Co56 2.244 . S
O69 C59 1.272 . S
O69 Co61 2.135 . S
Co70 O71 2.216 . S
Co70 O72 2.091 . S
Co70 O74 2.004 . S
Co70 O80 2.021 . S
Co70 O82 2.137 . S
Co70 O83 2.244 1_455 S
O71 Co70 2.216 . S
O71 C78 1.247 . S
O72 Co70 2.091 . S
O72 C78 1.261 . S
C73 O82 1.249 1_655 S
C73 O83 1.272 . S
O74 Co70 2.004 . S
O74 C79 1.259 . S
Co75 O76 2.061 . S
Co75 O81 2.052 . S
Co75 O83 2.135 . S
O76 Co75 2.061 . S
O76 C79 1.235 1_655 S
C77 O80 1.238 . S
C77 O81 1.241 1_455 S
C78 O71 1.247 . S
C78 O72 1.261 . S
C79 O74 1.259 . S
C79 O76 1.235 1_455 S
O80 Co70 2.021 . S
O80 C77 1.238 . S
O81 Co75 2.052 . S
O81 C77 1.241 1_655 S
O82 Co70 2.137 . S
O82 C73 1.249 1_455 S
O83 Co70 2.244 1_655 S
O83 C73 1.272 . S
O83 Co75 2.135 . S
C84 C85 1.386 1_565 S
C84 C86 1.380 1_565 S
C84 H100 0.952 . S
C85 C84 1.386 1_545 S
C85 C89 1.383 . S
C86 C84 1.380 1_545 S
C86 C87 1.404 . S
C86 H101 0.950 1_545 S
C87 C86 1.404 . S
C87 C88 1.375 . S
C87 C90 1.481 . S
C88 C87 1.375 . S
C88 C89 1.367 . S
C88 H102 0.951 . S
C89 C85 1.383 . S
C89 C88 1.367 . S
C89 H103 0.950 . S
C90 C87 1.481 . S
C90 C91 1.297 . S
C90 H104 0.950 . S
C91 C90 1.297 . S
C91 C92 1.479 . S
C91 H105 0.950 1_545 S
C92 C91 1.479 . S
C92 C93 1.375 1_545 S
C92 C98 1.404 . S
C93 C92 1.375 1_565 S
C93 C94 1.369 . S
C93 H106 0.950 . S
C94 C93 1.369 . S
C94 C95 1.392 1_565 S
C94 H107 0.951 . S
C95 C94 1.392 1_545 S
C95 C97 1.384 . S
H96 C98 0.949 . S
C97 C95 1.384 . S
C97 C98 1.385 . S
C97 H99 0.950 . S
C98 C92 1.404 . S
C98 H96 0.949 . S
C98 C97 1.385 . S
H99 C97 0.950 . S
H100 C84 0.952 . S
H101 C86 0.950 1_565 S
H102 C88 0.951 . S
H103 C89 0.950 . S
H104 C90 0.950 . S
H105 C91 0.950 1_565 S
H106 C93 0.950 . S
H107 C94 0.951 . S
C108 C109 1.386 . S
C108 C110 1.383 . S
C108 H124 0.951 . S
C109 C108 1.386 . S
C109 C113 1.383 . S
C110 C108 1.383 . S
C110 C111 1.402 . S
C110 H125 0.951 . S
C111 C110 1.402 . S
C111 C112 1.375 . S
C111 C114 1.481 . S
C112 C111 1.375 . S
C112 C113 1.367 . S
C112 H126 0.951 . S
C113 C109 1.383 . S
C113 C112 1.367 . S
C113 H127 0.950 . S
C114 C111 1.481 . S
C114 C115 1.297 . S
C114 H128 0.950 . S
C115 C114 1.297 . S
C115 C116 1.479 . S
C115 H129 0.950 . S
C116 C115 1.479 . S
C116 C117 1.375 . S
C116 C122 1.404 . S
C117 C116 1.375 . S
C117 C118 1.369 . S
C117 H130 0.950 . S
C118 C117 1.369 . S
C118 C119 1.392 . S
C118 H131 0.951 . S
C119 C118 1.392 . S
C119 C121 1.384 . S
H120 C122 0.949 . S
C121 C119 1.384 . S
C121 C122 1.385 . S
C121 H123 0.950 . S
C122 C116 1.404 . S
C122 H120 0.949 . S
C122 C121 1.385 . S
H123 C121 0.950 . S
H124 C108 0.951 . S
H125 C110 0.951 . S
H126 C112 0.951 . S
H127 C113 0.950 . S
H128 C114 0.950 . S
H129 C115 0.950 . S
H130 C117 0.950 . S
H131 C118 0.951 . S
C132 C133 1.386 . S
C132 C134 1.383 . S
C132 H148 0.951 . S
C133 C132 1.386 . S
C133 C137 1.383 . S
C134 C132 1.383 . S
C134 C135 1.402 . S
C134 H149 0.951 . S
C135 C134 1.402 . S
C135 C136 1.375 . S
C135 C138 1.481 . S
C136 C135 1.375 . S
C136 C137 1.367 . S
C136 H150 0.946 1_455 S
C137 C133 1.383 . S
C137 C136 1.367 . S
C137 H151 0.950 1_455 S
C138 C135 1.481 . S
C138 C139 1.297 . S
C138 H152 0.950 . S
C139 C138 1.297 . S
C139 C140 1.479 . S
C139 H153 0.950 . S
C140 C139 1.479 . S
C140 C141 1.375 . S
C140 C146 1.404 . S
C141 C140 1.375 . S
C141 C142 1.369 . S
C141 H154 0.950 . S
C142 C141 1.369 . S
C142 C143 1.392 . S
C142 H155 0.951 . S
C143 C142 1.392 . S
C143 C145 1.384 . S
H144 C146 0.949 . S
C145 C143 1.384 . S
C145 C146 1.385 . S
C145 H147 0.950 . S
C146 C140 1.404 . S
C146 H144 0.949 . S
C146 C145 1.385 . S
H147 C145 0.950 . S
H148 C132 0.951 . S
H149 C134 0.951 . S
H150 C136 0.946 1_655 S
H151 C137 0.950 1_655 S
H152 C138 0.950 . S
H153 C139 0.950 . S
H154 C141 0.950 . S
H155 C142 0.951 . S
C156 C157 1.386 . S
C156 C158 1.383 . S
C156 H172 0.951 . S
C157 C156 1.386 . S
C157 C161 1.383 . S
C158 C156 1.383 . S
C158 C159 1.402 . S
C158 H173 0.951 . S
C159 C158 1.402 . S
C159 C160 1.375 . S
C159 C162 1.481 . S
C160 C159 1.375 . S
C160 C161 1.367 . S
C160 H174 0.951 . S
C161 C157 1.383 . S
C161 C160 1.367 . S
C161 H175 0.950 . S
C162 C159 1.481 . S
C162 C163 1.297 . S
C162 H176 0.950 . S
C163 C162 1.297 . S
C163 C164 1.479 . S
C163 H177 0.950 . S
C164 C163 1.479 . S
C164 C165 1.375 . S
C164 C170 1.404 . S
C165 C164 1.375 . S
C165 C166 1.369 . S
C165 H178 0.950 . S
C166 C165 1.369 . S
C166 C167 1.392 . S
C166 H179 0.951 . S
C167 C166 1.392 . S
C167 C169 1.384 . S
H168 C170 0.949 . S
C169 C167 1.384 . S
C169 C170 1.385 . S
C169 H171 0.950 . S
C170 C164 1.404 . S
C170 H168 0.949 . S
C170 C169 1.385 . S
H171 C169 0.950 . S
H172 C156 0.951 . S
H173 C158 0.951 . S
H174 C160 0.951 . S
H175 C161 0.950 . S
H176 C162 0.950 . S
H177 C163 0.950 . S
H178 C165 0.950 . S
H179 C166 0.951 . S
C180 C181 1.386 . S
C180 C182 1.383 . S
C180 H196 0.951 . S
C181 C180 1.386 . S
C181 C185 1.383 . S
C182 C180 1.383 . S
C182 C183 1.402 . S
C182 H197 0.951 . S
C183 C182 1.402 . S
C183 C184 1.375 . S
C183 C186 1.481 1_554 S
C184 C183 1.375 . S
C184 C185 1.367 . S
C184 H198 0.951 1_554 S
C185 C181 1.383 . S
C185 C184 1.367 . S
C185 H199 0.950 . S
C186 C183 1.481 1_556 S
C186 C187 1.297 . S
C186 H200 0.950 . S
C187 C186 1.297 . S
C187 C188 1.479 . S
C187 H201 0.950 . S
C188 C187 1.479 . S
C188 C189 1.375 . S
C188 C194 1.404 . S
C189 C188 1.375 . S
C189 C190 1.369 . S
C189 H202 0.950 . S
C190 C189 1.369 . S
C190 C191 1.392 . S
C190 H203 0.951 . S
C191 C190 1.392 . S
C191 C193 1.384 . S
H192 C194 0.949 . S
C193 C191 1.384 . S
C193 C194 1.385 . S
C193 H195 0.950 . S
C194 C188 1.404 . S
C194 H192 0.949 . S
C194 C193 1.385 . S
H195 C193 0.950 . S
H196 C180 0.951 . S
H197 C182 0.951 . S
H198 C184 0.951 1_556 S
H199 C185 0.950 . S
H200 C186 0.950 . S
H201 C187 0.950 . S
H202 C189 0.950 . S
H203 C190 0.951 . S
C204 C205 1.386 1_655 S
C204 C206 1.377 . S
C204 H220 0.951 . S
C205 C204 1.386 1_455 S
C205 C209 1.383 . S
C206 C204 1.377 . S
C206 C207 1.393 1_655 S
C206 H221 0.966 . S
C207 C206 1.393 1_455 S
C207 C208 1.375 . S
C207 C210 1.481 . S
C208 C207 1.375 . S
C208 C209 1.367 . S
C208 H222 0.951 . S
C209 C205 1.383 . S
C209 C208 1.367 . S
C209 H223 0.950 . S
C210 C207 1.481 . S
C210 C211 1.297 . S
C210 H224 0.950 . S
C211 C210 1.297 . S
C211 C212 1.479 . S
C211 H225 0.950 . S
C212 C211 1.479 . S
C212 C213 1.375 1_455 S
C212 C218 1.404 . S
C213 C212 1.375 1_655 S
C213 C214 1.369 . S
C213 H226 0.950 . S
C214 C213 1.369 . S
C214 C215 1.392 1_655 S
C214 H227 0.951 . S
C215 C214 1.392 1_455 S
C215 C217 1.384 . S
H216 C218 0.949 . S
C217 C215 1.384 . S
C217 C218 1.385 . S
C217 H219 0.950 . S
C218 C212 1.404 . S
C218 H216 0.949 . S
C218 C217 1.385 . S
H219 C217 0.950 . S
H220 C204 0.951 . S
H221 C206 0.966 . S
H222 C208 0.951 . S
H223 C209 0.950 . S
H224 C210 0.950 . S
H225 C211 0.950 . S
H226 C213 0.950 . S
H227 C214 0.951 . S
C228 C229 1.386 . S
C228 C230 1.383 . S
C228 H244 0.951 . S
C229 C228 1.386 . S
C229 C233 1.383 . S
C230 C228 1.383 . S
C230 C231 1.402 . S
C230 H245 0.951 . S
C231 C230 1.402 . S
C231 C232 1.375 . S
C231 C234 1.481 . S
C232 C231 1.375 . S
C232 C233 1.367 . S
C232 H246 0.951 . S
C233 C229 1.383 . S
C233 C232 1.367 . S
C233 H247 0.950 . S
C234 C231 1.481 . S
C234 C235 1.297 . S
C234 H248 0.950 . S
C235 C234 1.297 . S
C235 C236 1.479 . S
C235 H249 0.950 . S
C236 C235 1.479 . S
C236 C237 1.375 . S
C236 C242 1.404 . S
C237 C236 1.375 . S
C237 C238 1.369 . S
C237 H250 0.950 . S
C238 C237 1.369 . S
C238 C239 1.392 . S
C238 H251 0.951 . S
C239 C238 1.392 . S
C239 C241 1.384 . S
H240 C242 0.949 . S
C241 C239 1.384 . S
C241 C242 1.385 . S
C241 H243 0.950 . S
C242 C236 1.404 . S
C242 H240 0.949 . S
C242 C241 1.385 . S
H243 C241 0.950 . S
H244 C228 0.951 . S
H245 C230 0.951 . S
H246 C232 0.951 . S
H247 C233 0.950 . S
H248 C234 0.950 . S
H249 C235 0.950 . S
H250 C237 0.950 . S
H251 C238 0.951 . S
C252 C253 1.386 . S
C252 C254 1.383 . S
C252 H268 0.951 . S
C253 C252 1.386 . S
C253 C257 1.383 . S
C254 C252 1.383 . S
C254 C255 1.402 . S
C254 H269 0.951 . S
C255 C254 1.402 . S
C255 C256 1.375 . S
C255 C258 1.481 . S
C256 C255 1.375 . S
C256 C257 1.367 . S
C256 H270 0.951 . S
C257 C253 1.383 . S
C257 C256 1.367 . S
C257 H271 0.950 . S
C258 C255 1.481 . S
C258 C259 1.297 . S
C258 H272 0.950 . S
C259 C258 1.297 . S
C259 C260 1.479 . S
C259 H273 0.950 . S
C260 C259 1.479 . S
C260 C261 1.375 . S
C260 C266 1.404 . S
C261 C260 1.375 . S
C261 C262 1.369 . S
C261 H274 0.950 . S
C262 C261 1.369 . S
C262 C263 1.392 . S
C262 H275 0.951 . S
C263 C262 1.392 . S
C263 C265 1.384 . S
H264 C266 0.949 . S
C265 C263 1.384 . S
C265 C266 1.385 . S
C265 H267 0.950 . S
C266 C260 1.404 . S
C266 H264 0.949 . S
C266 C265 1.385 . S
H267 C265 0.950 . S
H268 C252 0.951 . S
H269 C254 0.951 . S
H270 C256 0.951 . S
H271 C257 0.950 . S
H272 C258 0.950 . S
H273 C259 0.950 . S
H274 C261 0.950 . S
H275 C262 0.951 . S
C276 C277 1.386 . S
C276 C278 1.383 . S
C276 H292 0.951 . S
C277 C276 1.386 . S
C277 C281 1.383 . S
C278 C276 1.383 . S
C278 C279 1.402 . S
C278 H293 0.951 . S
C279 C278 1.402 . S
C279 C280 1.375 . S
C279 C282 1.481 . S
C280 C279 1.375 . S
C280 C281 1.367 . S
C280 H294 0.951 . S
C281 C277 1.383 . S
C281 C280 1.367 . S
C281 H295 0.950 . S
C282 C279 1.481 . S
C282 C283 1.297 . S
C282 H296 0.950 . S
C283 C282 1.297 . S
C283 C284 1.479 . S
C283 H297 0.950 . S
C284 C283 1.479 . S
C284 C285 1.375 . S
C284 C290 1.404 . S
C285 C284 1.375 . S
C285 C286 1.369 . S
C285 H298 0.950 . S
C286 C285 1.369 . S
C286 C287 1.392 . S
C286 H299 0.951 . S
C287 C286 1.392 . S
C287 C289 1.384 . S
H288 C290 0.949 . S
C289 C287 1.384 . S
C289 C290 1.385 . S
C289 H291 0.950 . S
C290 C284 1.404 . S
C290 H288 0.949 . S
C290 C289 1.385 . S
H291 C289 0.950 . S
H292 C276 0.951 . S
H293 C278 0.951 . S
H294 C280 0.951 . S
H295 C281 0.950 . S
H296 C282 0.950 . S
H297 C283 0.950 . S
H298 C285 0.950 . S
H299 C286 0.951 . S
C300 C301 1.386 . S
C300 C302 1.383 . S
C300 H316 0.951 . S
C301 C300 1.386 . S
C301 C305 1.383 . S
C302 C300 1.383 . S
C302 C303 1.402 . S
C302 H317 0.951 . S
C303 C302 1.402 . S
C303 C304 1.375 . S
C303 C306 1.481 . S
C304 C303 1.375 . S
C304 C305 1.367 . S
C304 H318 0.951 . S
C305 C301 1.383 . S
C305 C304 1.367 . S
C305 H319 0.950 . S
C306 C303 1.481 . S
C306 C307 1.297 . S
C306 H320 0.950 . S
C307 C306 1.297 . S
C307 C308 1.479 . S
C307 H321 0.950 . S
C308 C307 1.479 . S
C308 C309 1.375 . S
C308 C314 1.404 . S
C309 C308 1.375 . S
C309 C310 1.369 . S
C309 H322 0.950 . S
C310 C309 1.369 . S
C310 C311 1.392 . S
C310 H323 0.951 . S
C311 C310 1.392 . S
C311 C313 1.384 . S
H312 C314 0.949 . S
C313 C311 1.384 . S
C313 C314 1.385 . S
C313 H315 0.950 . S
C314 C308 1.404 . S
C314 H312 0.949 . S
C314 C313 1.385 . S
H315 C313 0.950 . S
H316 C300 0.951 . S
H317 C302 0.951 . S
H318 C304 0.951 . S
H319 C305 0.950 . S
H320 C306 0.950 . S
H321 C307 0.950 . S
H322 C309 0.950 . S
H323 C310 0.951 . S
C324 C325 1.386 . S
C324 C326 1.383 . S
C324 H340 0.951 . S
C325 C324 1.386 . S
C325 C329 1.383 . S
C326 C324 1.383 . S
C326 C327 1.402 . S
C326 H341 0.951 . S
C327 C326 1.402 . S
C327 C328 1.375 . S
C327 C330 1.481 . S
C328 C327 1.375 . S
C328 C329 1.367 . S
C328 H342 0.951 . S
C329 C325 1.383 . S
C329 C328 1.367 . S
C329 H343 0.950 . S
C330 C327 1.481 . S
C330 C331 1.297 . S
C330 H344 0.950 . S
C331 C330 1.297 . S
C331 C332 1.479 . S
C331 H345 0.950 . S
C332 C331 1.479 . S
C332 C333 1.375 . S
C332 C338 1.404 . S
C333 C332 1.375 . S
C333 C334 1.369 . S
C333 H346 0.950 . S
C334 C333 1.369 . S
C334 C335 1.392 . S
C334 H347 0.951 . S
C335 C334 1.392 . S
C335 C337 1.384 . S
H336 C338 0.949 . S
C337 C335 1.384 . S
C337 C338 1.385 . S
C337 H339 0.950 . S
C338 C332 1.404 . S
C338 H336 0.949 . S
C338 C337 1.385 . S
H339 C337 0.950 . S
H340 C324 0.951 . S
H341 C326 0.951 . S
H342 C328 0.951 . S
H343 C329 0.950 . S
H344 C330 0.950 . S
H345 C331 0.950 . S
H346 C333 0.950 . S
H347 C334 0.951 . S
C348 C349 1.386 . S
C348 C350 1.383 . S
C348 H364 0.951 . S
C349 C348 1.386 . S
C349 C353 1.383 1_556 S
C350 C348 1.383 . S
C350 C351 1.402 . S
C350 H365 0.951 . S
C351 C350 1.402 . S
C351 C352 1.375 1_556 S
C351 C354 1.481 1_556 S
C352 C351 1.375 1_554 S
C352 C353 1.367 . S
C352 H366 0.951 . S
C353 C349 1.383 1_554 S
C353 C352 1.367 . S
C353 H367 0.950 . S
C354 C351 1.481 1_554 S
C354 C355 1.297 1_554 S
C354 H368 0.950 . S
C355 C354 1.297 1_556 S
C355 C356 1.473 1_556 S
C355 H369 0.950 . S
C356 C355 1.473 1_554 S
C356 C357 1.361 1_554 S
C356 C362 1.424 . S
C357 C356 1.361 1_556 S
C357 C358 1.369 . S
C357 H370 0.950 . S
C358 C357 1.369 . S
C358 C359 1.392 1_556 S
C358 H371 0.951 . S
C359 C358 1.392 1_554 S
C359 C361 1.384 . S
H360 C362 0.949 . S
C361 C359 1.384 . S
C361 C362 1.385 . S
C361 H363 0.950 . S
C362 C356 1.424 . S
C362 H360 0.949 . S
C362 C361 1.385 . S
H363 C361 0.950 . S
H364 C348 0.951 . S
H365 C350 0.951 . S
H366 C352 0.951 . S
H367 C353 0.950 . S
H368 C354 0.950 . S
H369 C355 0.950 . S
H370 C357 0.950 . S
H371 C358 0.951 . S
C85 C7 1.689 . S
C95 C51 1.682 . S
C109 C21 1.630 . S
C119 C65 1.660 . S
C133 C77 1.669 . S
C143 C37 1.655 . S
C157 C9 1.701 . S
C167 C49 1.706 . S
C181 C23 1.660 . S
C191 C63 1.635 . S
C205 C79 1.692 1_554 S
C215 C35 1.617 . S
C229 C17 1.349 . S
C239 C8 1.322 . S
C253 C36 1.313 . S
C263 C22 1.294 . S
C277 C31 1.385 . S
C287 C45 1.369 . S
C301 C59 1.351 . S
C311 C50 1.324 . S
C325 C78 1.324 . S
C335 C64 1.312 . S
C349 C73 1.384 . S
C359 C3 1.383 . S
