# Generated by pormake.
# Topology qtz-x, (6)-cn, num edge types: 1
# Building blocks:
#     Node 0, Type 0, BuildingBlock: PAMTOO_clean_sbu_0, # of connection points: 6
#     Node 1, Type 0, BuildingBlock: PAMTOO_clean_sbu_0, # of connection points: 6
#     Node 2, Type 0, BuildingBlock: PAMTOO_clean_sbu_0, # of connection points: 6
#     Edge 3, Type (0, 0), BuildingBlock: ZUJKAS_clean_linker_0, # of connection points: 2
#     Edge 4, Type (0, 0), BuildingBlock: ZUJKAS_clean_linker_0, # of connection points: 2
#     Edge 5, Type (0, 0), BuildingBlock: ZUJKAS_clean_linker_0, # of connection points: 2
#     Edge 6, Type (0, 0), BuildingBlock: ZUJKAS_clean_linker_0, # of connection points: 2
#     Edge 7, Type (0, 0), BuildingBlock: ZUJKAS_clean_linker_0, # of connection points: 2
#     Edge 8, Type (0, 0), BuildingBlock: ZUJKAS_clean_linker_0, # of connection points: 2
#     Edge 9, Type (0, 0), BuildingBlock: ZUJKAS_clean_linker_0, # of connection points: 2
#     Edge 10, Type (0, 0), BuildingBlock: ZUJKAS_clean_linker_0, # of connection points: 2
#     Edge 11, Type (0, 0), BuildingBlock: ZUJKAS_clean_linker_0, # of connection points: 2
# Relax obj value: 0.124
# Max RMSD: 0.227
# Mean RMSD: 0.227
data_MOF--net-qtz-x--node1-PAMTOO_clean_sbu_0--edge1-ZUJKAS_clean_linker_0
_symmetry_space_group_name_H-M    P1
_symmetry_Int_Tables_number       1
_symmetry_cell_setting            triclinic
loop_
_symmetry_equiv_pos_as_xyz
'x, y, z'
_cell_length_a     19.652252
_cell_length_b     19.646606
_cell_length_c     66.37897
_cell_angle_alpha  90.027808
_cell_angle_beta   89.966634
_cell_angle_gamma 120.10404
loop_
_atom_site_label
_atom_site_type_symbol
_atom_site_fract_x
_atom_site_fract_y
_atom_site_fract_z
_atom_type_partial_charge
Dy0 Dy 0.08073 0.65853 0.16347 0.0
Dy1 Dy 0.90544 0.56889 0.18514 0.0
C2 C -0.00553 0.74985 0.17576 0.0
O3 O 0.10676 0.64674 0.19562 0.0
O4 O -0.00822 0.62752 0.21006 0.0
O5 O 0.17158 0.75993 0.14798 0.0
O6 O 0.18607 0.65925 0.1535 0.0
O7 O 0.95849 0.49273 0.18831 0.0
O8 O 0.02665 0.52936 0.15881 0.0
O9 O 0.88099 0.5394 0.15237 0.0
O10 O -0.00504 0.64157 0.13926 0.0
O11 O 0.79603 0.4632 0.19219 0.0
O12 O 0.81858 0.57614 0.20346 0.0
C13 C 0.0649 0.6429 0.2115 0.0
O14 O 0.06033 0.74901 0.17787 0.0
O15 O 0.92753 0.68422 0.17329 0.0
C16 C 0.23096 0.72419 0.12232 0.0
C17 C 0.26404 0.71426 0.08135 0.0
C18 C 0.19911 0.72202 0.08685 0.0
C19 C 0.18248 0.72644 0.1071 0.0
C20 C 0.29632 0.71749 0.11695 0.0
C21 C 0.31271 0.71243 0.09666 0.0
C22 C 0.21176 0.72533 0.14375 0.0
C23 C -0.00705 0.47825 0.17338 0.0
C24 C 0.92231 0.58353 0.1371 0.0
C25 C 0.75296 0.46782 0.22499 0.0
C26 C 0.71594 0.4133 0.26503 0.0
C27 C 0.79291 0.44375 0.25761 0.0
C28 C 0.81117 0.4706 0.23776 0.0
C29 C 0.67604 0.43693 0.23219 0.0
C30 C 0.65755 0.40965 0.25204 0.0
C31 C 0.77344 0.49993 0.20449 0.0
H32 H 0.161 0.72483 0.07551 0.0
H33 H 0.1313 0.7311 0.11083 0.0
H34 H 0.33402 0.71494 0.12847 0.0
H35 H 0.36246 0.70525 0.09303 0.0
H36 H 0.83898 0.44644 0.26712 0.0
H37 H 0.87091 0.49411 0.23241 0.0
H38 H 0.63053 0.43476 0.22255 0.0
H39 H 0.59794 0.3873 0.25735 0.0
Dy40 Dy 0.43834 0.97683 0.49645 0.0
Dy41 Dy 0.52854 0.15412 0.51687 0.0
C42 C 0.6195 0.06519 0.50537 0.0
O43 O 0.45372 0.95749 0.52896 0.0
O44 O 0.46188 0.07018 0.54168 0.0
O45 O 0.43498 0.86997 0.48675 0.0
O46 O 0.33376 0.88436 0.48246 0.0
O47 O 0.41351 0.13091 0.50462 0.0
O48 O 0.34789 -0.00113 0.5101 0.0
O49 O 0.56443 0.17471 0.48448 0.0
O50 O 0.45964 0.06209 0.47161 0.0
O51 O 0.52632 0.25796 0.52646 0.0
O52 O 0.63019 0.2493 0.53162 0.0
C53 C 0.4516 -0.00074 0.54421 0.0
O54 O 0.56655 0.02674 0.49149 0.0
O55 O 0.6065 0.10286 0.51977 0.0
C56 C 0.35976 0.81818 0.45713 0.0
C57 C 0.33302 0.77772 0.41601 0.0
C58 C 0.39337 0.85272 0.42195 0.0
C59 C 0.40645 0.87285 0.44235 0.0
C60 C 0.30147 0.74255 0.45135 0.0
C61 C 0.28821 0.72239 0.43096 0.0
C62 C 0.36612 0.84217 0.47831 0.0
C63 C 0.34766 0.06473 0.50745 0.0
C64 C 0.52066 0.13312 0.46919 0.0
C65 C 0.59297 0.30722 0.55717 0.0
C66 C 0.59227 0.34423 0.59822 0.0
C67 C 0.52884 0.27611 0.5899 0.0
C68 C 0.52931 0.25767 0.5696 0.0
C69 C 0.65675 0.37485 0.56541 0.0
C70 C 0.65654 0.39319 0.58579 0.0
C71 C 0.59351 0.28735 0.5358 0.0
H72 H 0.42825 0.89694 0.41082 0.0
H73 H 0.45121 0.9319 0.44657 0.0
H74 H 0.26466 0.69985 0.46258 0.0
H75 H 0.24193 0.66389 0.42686 0.0
H76 H 0.47907 0.23661 0.59914 0.0
H77 H 0.4798 0.20466 0.56361 0.0
H78 H 0.70659 0.41351 0.55607 0.0
H79 H 0.706 0.44631 0.59176 0.0
Dy80 Dy 0.41339 0.58693 0.82997 0.0
Dy81 Dy 0.50319 0.50071 0.85139 0.0
C82 C 0.32265 0.40865 0.84171 0.0
O83 O 0.41998 0.61966 0.86245 0.0
O84 O 0.44389 0.5263 0.87649 0.0
O85 O 0.317 0.57593 0.81192 0.0
O86 O 0.40717 0.69061 0.82245 0.0
O87 O 0.57771 0.62994 0.85525 0.0
O88 O 0.54249 0.66362 0.82587 0.0
O89 O 0.53518 0.50874 0.81876 0.0
O90 O 0.43375 0.52121 0.80556 0.0
O91 O 0.60834 0.49663 0.85854 0.0
O92 O 0.49493 0.40553 0.86948 0.0
C93 C 0.42516 0.58159 0.87813 0.0
O94 O 0.32274 0.47497 0.84388 0.0
O95 O 0.38848 0.4081 0.83908 0.0
C96 C 0.35571 0.68212 0.78983 0.0
C97 C 0.36817 0.73099 0.74939 0.0
C98 C 0.29893 0.70839 0.76045 0.0
C99 C 0.29286 0.68427 0.78052 0.0
C100 C 0.42493 0.70458 0.77887 0.0
C101 C 0.43128 0.72923 0.75886 0.0
C102 C 0.34698 0.65187 0.81049 0.0
C103 C 0.5929 0.67987 0.84053 0.0
C104 C 0.4922 0.5074 0.80341 0.0
C105 C 0.60193 0.44849 0.89144 0.0
C106 C 0.65112 0.46569 0.93196 0.0
C107 C 0.64045 0.52382 0.92256 0.0
C108 C 0.61576 0.51512 0.90251 0.0
C109 C 0.613 0.39063 0.90066 0.0
C110 C 0.63733 0.39907 0.92078 0.0
C111 C 0.57107 0.43707 0.87078 0.0
H112 H 0.24961 0.70974 0.7536 0.0
H113 H 0.23877 0.66648 0.7887 0.0
H114 H 0.47369 0.70207 0.78571 0.0
H115 H 0.48493 0.74527 0.75067 0.0
H116 H 0.64941 0.5752 0.93084 0.0
H117 H 0.60629 0.55987 0.89573 0.0
H118 H 0.60193 0.33852 0.89237 0.0
H119 H 0.64561 0.35361 0.92756 0.0
H120 H 0.86942 0.77411 0.17353 0.0
H121 H 0.87291 0.90013 0.17257 0.0
H122 H 0.12613 0.02287 0.17631 0.0
H123 H 0.12338 0.89724 0.1776 0.0
H124 H 0.05742 0.08131 0.20233 0.0
H125 H 0.94145 0.05151 0.12465 0.0
H126 H 0.88004 0.9702 0.1408 0.0
H127 H 0.97693 -0.01081 0.13437 0.0
C128 C 0.92589 0.82787 0.17413 0.0
C129 C -0.00384 0.82573 0.17556 0.0
C130 C 0.92775 0.89975 0.17345 0.0
C131 C -0.00016 0.97053 0.17401 0.0
C132 C 0.06997 0.96869 0.17573 0.0
H133 H 0.06793 0.43287 0.14646 0.0
H134 H 0.07298 0.31099 0.14675 0.0
C135 C 0.06821 0.89687 0.17648 0.0
C136 C 0.00203 0.04665 0.17323 0.0
H137 H 0.94984 0.15673 0.14437 0.0
C138 C 0.0343 0.0981 0.18963 0.0
C139 C 0.97287 0.06858 0.15648 0.0
C140 C 0.94155 0.01738 0.13798 0.0
C141 C 0.03652 0.17048 0.18996 0.0
C142 C 0.00427 0.19091 0.17359 0.0
C143 C 0.97373 0.14031 0.15697 0.0
C144 C 0.00118 0.26439 0.17349 0.0
C145 C 0.07404 0.22472 0.2077 0.0
C146 C 0.95815 0.27765 0.18826 0.0
C147 C 0.95531 0.34715 0.18819 0.0
C148 C -0.0051 0.40421 0.17321 0.0
C149 C 0.0369 0.3901 0.15822 0.0
C150 C 0.03988 0.32061 0.15835 0.0
H151 H 0.11443 0.21057 0.21602 0.0
H152 H 0.10749 0.28714 0.2028 0.0
H153 H 0.02738 0.21807 0.21829 0.0
H154 H 0.92646 0.23406 0.19981 0.0
H155 H 0.92196 0.35597 0.19986 0.0
H156 H 0.3257 0.19098 0.5046 0.0
H157 H 0.20075 0.1897 0.50431 0.0
H158 H 0.07505 0.9367 0.50936 0.0
H159 H 0.19961 0.93723 0.50996 0.0
H160 H 0.07625 0.11341 0.47697 0.0
H161 H -0.01561 0.00727 0.55532 0.0
H162 H 0.08382 0.04489 0.54647 0.0
H163 H 0.00861 0.94642 0.54024 0.0
C164 C 0.27152 0.13505 0.50574 0.0
C165 C 0.27246 0.06421 0.5074 0.0
C166 C 0.20031 0.13449 0.50554 0.0
C167 C 0.12908 0.06323 0.50706 0.0
C168 C 0.12966 -0.00763 0.50855 0.0
H169 H 0.66392 0.98627 0.47945 0.0
H170 H 0.7881 0.98578 0.47939 0.0
C171 C 0.20084 -0.00717 0.50881 0.0
C172 C 0.05407 0.0631 0.50673 0.0
H173 H 0.89034 0.0152 0.5346 0.0
C174 C 0.03552 0.0921 0.48956 0.0
C175 C 0.00186 0.03593 0.52329 0.0
C176 C 0.02076 0.0075 0.54246 0.0
C177 C 0.96539 0.09412 0.48843 0.0
C178 C 0.9123 0.06516 0.5048 0.0
C179 C 0.93115 0.03671 0.52203 0.0
C180 C 0.83764 0.06576 0.50461 0.0
C181 C 0.94942 0.12858 0.46994 0.0
C182 C 0.8242 0.10967 0.51906 0.0
C183 C 0.75331 0.10966 0.51926 0.0
C184 C 0.69459 0.06546 0.505 0.0
C185 C 0.70819 0.02127 0.49056 0.0
C186 C 0.77915 0.02119 0.49042 0.0
H187 H 0.00381 0.16508 0.46106 0.0
H188 H 0.90693 0.08009 0.46012 0.0
H189 H 0.92331 0.16534 0.47411 0.0
H190 H 0.86875 0.14419 0.53017 0.0
H191 H 0.74467 0.14432 0.53058 0.0
H192 H 0.64052 0.8018 0.81402 0.0
H193 H 0.76506 0.9265 0.81422 0.0
H194 H 0.8389 0.85214 0.8669 0.0
H195 H 0.71433 0.72791 0.86707 0.0
H196 H 0.86287 0.004 0.86975 0.0
H197 H 0.98067 0.95822 0.79808 0.0
H198 H 0.88467 0.94762 0.79605 0.0
H199 H 0.89817 0.87932 0.81111 0.0
C200 C 0.68335 0.81187 0.82562 0.0
C201 C 0.66782 0.75499 0.84049 0.0
C202 C 0.75449 0.88291 0.82563 0.0
C203 C 0.81124 0.89767 0.8404 0.0
C204 C 0.7957 0.84139 0.85535 0.0
H205 H 0.30054 0.26003 0.8404 0.0
H206 H 0.17546 0.13606 0.84071 0.0
C207 C 0.72457 0.77052 0.85539 0.0
C208 C 0.88647 0.97252 0.84055 0.0
H209 H 0.05268 0.08449 0.81311 0.0
C210 C 0.90456 0.0217 0.85741 0.0
C211 C 0.94073 -0.00549 0.8245 0.0
C212 C 0.92565 0.94192 0.80647 0.0
C213 C 0.97561 0.09314 0.85856 0.0
C214 C 0.02889 0.11615 0.84226 0.0
C215 C 0.01115 0.06661 0.82549 0.0
C216 C 0.10398 0.19114 0.84238 0.0
C217 C -0.00639 0.14262 0.87734 0.0
C218 C 0.10467 0.26278 0.84305 0.0
C219 C 0.1759 0.33364 0.84296 0.0
C220 C 0.24744 0.33381 0.842 0.0
C221 C 0.24641 0.26182 0.84116 0.0
C222 C 0.17514 0.19102 0.84132 0.0
H223 H 0.95668 0.10771 0.89027 0.0
H224 H 0.05649 0.16905 0.8816 0.0
H225 H 0.98144 0.19114 0.87446 0.0
H226 H 0.05012 0.26385 0.84346 0.0
H227 H 0.17475 0.38816 0.84348 0.0
H228 H 0.45898 0.53894 0.91421 0.0
H229 H 0.42958 0.56676 0.94787 0.0
H230 H 0.32456 0.69406 0.92221 0.0
H231 H 0.35536 0.66788 0.88829 0.0
H232 H 0.41877 0.7707 0.95457 0.0
H233 H 0.21391 0.45859 0.97378 0.0
H234 H 0.30887 0.47586 0.96616 0.0
H235 H 0.24813 0.49048 0.94842 0.0
C236 C 0.42935 0.57264 0.91565 0.0
C237 C 0.40867 0.60043 0.89852 0.0
C238 C 0.41232 0.58822 0.93494 0.0
C239 C 0.37325 0.63089 0.93754 0.0
C240 C 0.35419 0.66043 0.92052 0.0
H241 H 0.15663 0.63331 0.05161 0.0
H242 H 0.18202 0.6195 0.01631 0.0
C243 C 0.37179 0.64539 0.90116 0.0
C244 C 0.35281 0.64478 0.95806 0.0
H245 H 0.25677 0.54995 1.00104 0.0
C246 C 0.38286 0.72251 0.96471 0.0
C247 C 0.30485 0.58181 0.97113 0.0
C248 C 0.26639 0.49702 0.96446 0.0
C249 C 0.36805 0.73897 0.9843 0.0
C250 C 0.32347 0.67596 0.99771 0.0
C251 C 0.29173 0.59827 0.99085 0.0
C252 C 0.30871 0.6888 0.01892 0.0
C253 C 0.39945 0.82362 0.99032 0.0
C254 C 0.3715 0.7322 0.03219 0.0
C255 C 0.35717 0.74133 0.05237 0.0
C256 C 0.27969 0.7063 0.05977 0.0
C257 C 0.21699 0.66244 0.04641 0.0
C258 C 0.23139 0.6539 0.02623 0.0
H259 H 0.4106 0.86185 0.97695 0.0
H260 H 0.35795 0.82968 1.0005 0.0
H261 H 0.45612 0.84537 0.99836 0.0
H262 H 0.43173 0.75812 0.02703 0.0
H263 H 0.40687 0.77602 0.06215 0.0
H264 H 0.64553 0.27456 0.45714 0.0
H265 H 0.67915 0.3263 0.42276 0.0
H266 H 0.47599 0.11774 0.4001 0.0
H267 H 0.44159 0.06564 0.43425 0.0
H268 H 0.70834 0.25323 0.38894 0.0
H269 H 0.45614 0.30045 0.37551 0.0
H270 H 0.48525 0.28819 0.40043 0.0
H271 H 0.42971 0.20405 0.38453 0.0
C272 C 0.60764 0.2399 0.44487 0.0
C273 C 0.54057 0.16612 0.44852 0.0
C274 C 0.62705 0.26953 0.42524 0.0
C275 C 0.57945 0.22632 0.40895 0.0
C276 C 0.51269 0.15268 0.41251 0.0
H277 H 0.58602 0.28142 0.27943 0.0
H278 H 0.55531 0.23757 0.31446 0.0
C279 C 0.49335 0.1229 0.43208 0.0
C280 C 0.60073 0.25682 0.3881 0.0
H281 H 0.53486 0.31202 0.34714 0.0
C282 C 0.67082 0.2667 0.37981 0.0
C283 C 0.55136 0.27388 0.37625 0.0
C284 C 0.4767 0.26683 0.38463 0.0
C285 C 0.69198 0.29138 0.35978 0.0
C286 C 0.64247 0.30825 0.34789 0.0
C287 C 0.57266 0.29893 0.35626 0.0
C288 C 0.66167 0.33516 0.32668 0.0
C289 C 0.76594 0.29685 0.35138 0.0
C290 C 0.73116 0.4051 0.32193 0.0
C291 C 0.74888 0.43025 0.30194 0.0
C292 C 0.69701 0.38636 0.28629 0.0
C293 C 0.6269 0.31688 0.29113 0.0
C294 C 0.6094 0.2916 0.31113 0.0
H295 H 0.78521 0.26198 0.36042 0.0
H296 H 0.75726 0.27589 0.33554 0.0
H297 H 0.81399 0.35917 0.35166 0.0
H298 H 0.77139 0.44073 0.33373 0.0
H299 H 0.80264 0.4848 0.29876 0.0
H300 H 0.49185 0.8563 0.73087 0.0
H301 H 0.5017 0.89689 0.69563 0.0
H302 H 0.26937 0.70095 0.68426 0.0
H303 H 0.2588 0.6606 0.71954 0.0
H304 H 0.49552 0.81902 0.661 0.0
H305 H 0.25163 0.88433 0.6626 0.0
H306 H 0.29276 0.86865 0.68523 0.0
H307 H 0.22327 0.78619 0.67043 0.0
C308 C 0.44294 0.82181 0.72085 0.0
C309 C 0.37432 0.75559 0.72801 0.0
C310 C 0.44857 0.84513 0.70073 0.0
C311 C 0.38578 0.80271 0.68739 0.0
C312 C 0.31774 0.73575 0.6944 0.0
H313 H 0.42521 0.85414 0.55616 0.0
H314 H 0.40728 0.80307 0.59058 0.0
C315 C 0.31182 0.71271 0.71455 0.0
C316 C 0.39219 0.82819 0.66609 0.0
H317 H 0.30744 0.88812 0.63066 0.0
C318 C 0.45441 0.83413 0.65435 0.0
C319 C 0.33896 0.84868 0.65751 0.0
C320 C 0.27332 0.84744 0.66962 0.0
C321 C 0.46479 0.85982 0.63426 0.0
C322 C 0.41055 0.87862 0.62556 0.0
C323 C 0.34844 0.87286 0.6373 0.0
C324 C 0.41928 0.90803 0.6046 0.0
C325 C 0.53496 0.86872 0.6227 0.0
C326 C 0.42972 0.98303 0.60102 0.0
C327 C 0.43931 0.0121 0.58141 0.0
C328 C 0.43843 0.96664 0.56491 0.0
C329 C 0.42661 0.89088 0.56851 0.0
C330 C 0.41683 0.86176 0.58818 0.0
H331 H 0.58062 0.87035 0.63288 0.0
H332 H 0.51564 0.81787 0.61238 0.0
H333 H 0.56192 0.92325 0.61349 0.0
H334 H 0.43151 0.01961 0.61346 0.0
H335 H 0.44817 0.07063 0.57926 0.0
H336 H 0.59213 0.35328 0.96152 0.0
H337 H 0.62977 0.36871 0.99712 0.0
H338 H 0.80279 0.612 0.9865 0.0
H339 H 0.76497 0.5972 0.95099 0.0
H340 H 0.76982 0.40945 0.0149 0.0
H341 H 0.68315 0.6302 0.03376 0.0
H342 H 0.65427 0.57495 0.01054 0.0
H343 H 0.75076 0.66014 0.01305 0.0
C344 C 0.63843 0.40998 0.96676 0.0
C345 C 0.67525 0.47419 0.95346 0.0
C346 C 0.65962 0.41879 0.98712 0.0
C347 C 0.71795 0.49192 0.99458 0.0
C348 C 0.75602 0.55562 0.98123 0.0
H349 H 0.9815 0.67496 0.10349 0.0
H350 H 0.9265 0.64785 0.06955 0.0
C351 C 0.73454 0.54701 0.96092 0.0
C352 C 0.74044 0.50128 0.01619 0.0
H353 H 0.76316 0.61256 0.05796 0.0
C354 C 0.76749 0.45321 0.02438 0.0
C355 C 0.737 0.55816 0.02859 0.0
C356 C 0.70396 0.60824 0.02111 0.0
C357 C 0.79381 0.46248 0.04441 0.0
C358 C 0.7926 0.52095 0.05655 0.0
C359 C 0.76418 0.56795 0.04853 0.0
C360 C 0.82417 0.53675 0.07733 0.0
C361 C 0.82513 0.41154 0.05233 0.0
C362 C 0.78419 0.48347 0.09299 0.0
C363 C 0.81527 0.49891 0.11254 0.0
C364 C 0.88706 0.56775 0.11667 0.0
C365 C 0.92633 0.62119 0.10089 0.0
C366 C 0.89497 0.60596 0.08145 0.0
H367 H 0.83137 0.37586 0.04026 0.0
H368 H 0.88328 0.44851 0.05959 0.0
H369 H 0.78434 0.37095 0.06395 0.0
H370 H 0.72905 0.42999 0.09009 0.0
H371 H 0.78358 0.45651 0.12432 0.0
H372 H 0.21886 0.69379 0.22139 0.0
H373 H 0.27551 0.71276 0.25526 0.0
H374 H 0.04804 0.63915 0.28134 0.0
H375 H -0.00904 0.62022 0.24779 0.0
H376 H 0.27017 0.81351 0.28709 0.0
H377 H 0.12457 0.49864 0.30892 0.0
H378 H 0.13485 0.53043 0.283 0.0
H379 H 0.05963 0.5293 0.29864 0.0
C380 C 0.18085 0.68145 0.23433 0.0
C381 C 0.10031 0.65533 0.23184 0.0
C382 C 0.21334 0.69235 0.25364 0.0
C383 C 0.16567 0.6763 0.27074 0.0
C384 C 0.08553 0.65066 0.26831 0.0
H385 H 0.18732 0.70288 0.39884 0.0
H386 H 0.15446 0.67804 0.36313 0.0
C387 C 0.05314 0.64032 0.24908 0.0
C388 C 0.19943 0.68835 0.29123 0.0
H389 H 0.18372 0.59243 0.33535 0.0
C390 C 0.25231 0.76525 0.29761 0.0
C391 C 0.17569 0.6251 0.30484 0.0
C392 C 0.12108 0.54106 0.29852 0.0
C393 C 0.27925 0.78109 0.31761 0.0
C394 C 0.2539 0.71794 0.3314 0.0
C395 C 0.20299 0.64075 0.32478 0.0
C396 C 0.27522 0.73098 0.35306 0.0
C397 C 0.3315 0.86554 0.32401 0.0
C398 C 0.35406 0.76777 0.35931 0.0
C399 C 0.37308 0.7822 0.37978 0.0
C400 C 0.31348 0.7591 0.39435 0.0
C401 C 0.23456 0.72048 0.38803 0.0
C402 C 0.21569 0.70655 0.36761 0.0
H403 H 0.33047 0.90746 0.31295 0.0
H404 H 0.31336 0.87652 0.33894 0.0
H405 H 0.39302 0.87805 0.32524 0.0
H406 H 0.40086 0.78548 0.34837 0.0
H407 H 0.43435 0.81117 0.38421 0.0
H408 H 0.61887 0.49489 0.79075 0.0
H409 H 0.64893 0.47347 0.75623 0.0
H410 H 0.43438 0.45907 0.73533 0.0
H411 H 0.40474 0.4819 0.76941 0.0
H412 H 0.56693 0.35038 0.7299 0.0
H413 H 0.59545 0.62373 0.69801 0.0
H414 H 0.59342 0.60706 0.72479 0.0
H415 H 0.50322 0.56549 0.71062 0.0
C416 C 0.57814 0.48718 0.77879 0.0
C417 C 0.50974 0.49079 0.78285 0.0
C418 C 0.59546 0.47504 0.75908 0.0
C419 C 0.5448 0.46651 0.74314 0.0
C420 C 0.47548 0.46779 0.74728 0.0
H421 H 0.46957 0.33877 0.61889 0.0
H422 H 0.46549 0.37021 0.65439 0.0
C423 C 0.45838 0.48033 0.76686 0.0
C424 C 0.56294 0.45475 0.72215 0.0
H425 H 0.57869 0.52443 0.67421 0.0
C426 C 0.57074 0.38905 0.71776 0.0
C427 C 0.56828 0.50556 0.70633 0.0
C428 C 0.56548 0.57984 0.71019 0.0
C429 C 0.58003 0.37083 0.69783 0.0
C430 C 0.58193 0.41981 0.682 0.0
C431 C 0.57663 0.48676 0.68643 0.0
C432 C 0.58543 0.40047 0.66062 0.0
C433 C 0.58473 0.29781 0.69369 0.0
C434 C 0.65456 0.40781 0.65238 0.0
C435 C 0.65718 0.39008 0.63206 0.0
C436 C 0.59051 0.36434 0.61972 0.0
C437 C 0.52154 0.35745 0.62807 0.0
C438 C 0.5192 0.37573 0.6483 0.0
H439 H 0.57279 0.26093 0.70737 0.0
H440 H 0.542 0.26193 0.68178 0.0
H441 H 0.64446 0.31499 0.6881 0.0
H442 H 0.70647 0.42749 0.66165 0.0
H443 H 0.71096 0.39548 0.62608 0.0
loop_
_geom_bond_atom_site_label_1
_geom_bond_atom_site_label_2
_geom_bond_distance
_geom_bond_site_symmetry_2
_ccdc_geom_bond_type
Dy0 O3 2.307 . S
Dy0 O5 2.395 . S
Dy0 O6 2.379 . S
Dy0 O8 2.339 . S
Dy0 O10 2.298 . S
Dy0 O14 2.275 . S
Dy0 C22 2.738 . S
Dy1 O4 2.298 1_655 S
Dy1 O7 2.275 1_655 S
Dy1 O9 2.307 . S
Dy1 O11 2.395 . S
Dy1 O12 2.379 . S
Dy1 O15 2.339 1_655 S
Dy1 C31 2.738 . S
C2 O14 1.254 . S
C2 O15 1.257 . S
O3 Dy0 2.307 . S
O3 C13 1.266 . S
O4 Dy1 2.298 1_455 S
O4 C13 1.236 . S
O5 Dy0 2.395 . S
O5 C22 1.255 . S
O6 Dy0 2.379 . S
O6 C22 1.249 . S
O7 Dy1 2.275 1_455 S
O7 C23 1.254 . S
O8 Dy0 2.339 . S
O8 C23 1.257 . S
O9 Dy1 2.307 . S
O9 C24 1.266 1_655 S
O10 Dy0 2.298 . S
O10 C24 1.236 . S
O11 Dy1 2.395 . S
O11 C31 1.255 . S
O12 Dy1 2.379 . S
O12 C31 1.249 . S
C13 O3 1.266 . S
C13 O4 1.236 . S
O14 Dy0 2.275 . S
O14 C2 1.254 . S
O15 Dy1 2.339 1_455 S
O15 C2 1.257 . S
C16 C19 1.344 . S
C16 C20 1.328 . S
C16 C22 1.516 . S
C17 C18 1.304 . S
C17 C21 1.323 . S
C18 C17 1.304 . S
C18 C19 1.371 . S
C18 H32 0.930 . S
C19 C16 1.344 . S
C19 C18 1.371 . S
C19 H33 0.931 . S
C20 C16 1.328 . S
C20 C21 1.433 . S
C20 H34 0.931 . S
C21 C17 1.323 . S
C21 C20 1.433 . S
C21 H35 0.933 . S
C22 Dy0 2.738 . S
C22 O5 1.255 . S
C22 O6 1.249 . S
C22 C16 1.516 . S
C23 O7 1.254 . S
C23 O8 1.257 . S
C24 O9 1.266 1_455 S
C24 O10 1.236 . S
C25 C28 1.344 . S
C25 C29 1.328 . S
C25 C31 1.516 . S
C26 C27 1.304 . S
C26 C30 1.323 . S
C27 C26 1.304 . S
C27 C28 1.371 . S
C27 H36 0.930 . S
C28 C25 1.344 . S
C28 C27 1.371 . S
C28 H37 0.931 . S
C29 C25 1.328 . S
C29 C30 1.433 . S
C29 H38 0.931 . S
C30 C26 1.323 . S
C30 C29 1.433 . S
C30 H39 0.933 . S
C31 Dy1 2.738 . S
C31 O11 1.255 . S
C31 O12 1.249 . S
C31 C25 1.516 . S
H32 C18 0.930 . S
H33 C19 0.931 . S
H34 C20 0.931 . S
H35 C21 0.933 . S
H36 C27 0.930 . S
H37 C28 0.931 . S
H38 C29 0.931 . S
H39 C30 0.933 . S
Dy40 O43 2.307 . S
Dy40 O45 2.395 . S
Dy40 O46 2.379 . S
Dy40 O48 2.339 . S
Dy40 O50 2.298 1_565 S
Dy40 O54 2.275 . S
Dy40 C62 2.738 . S
Dy41 O44 2.298 1_545 S
Dy41 O47 2.275 . S
Dy41 O49 2.307 . S
Dy41 O51 2.395 . S
Dy41 O52 2.379 . S
Dy41 O55 2.339 . S
Dy41 C71 2.738 . S
C42 O54 1.254 1_545 S
C42 O55 1.257 . S
O43 Dy40 2.307 . S
O43 C53 1.266 . S
O44 Dy41 2.298 1_565 S
O44 C53 1.236 . S
O45 Dy40 2.395 . S
O45 C62 1.255 . S
O46 Dy40 2.379 . S
O46 C62 1.249 . S
O47 Dy41 2.275 . S
O47 C63 1.254 1_545 S
O48 Dy40 2.339 . S
O48 C63 1.257 . S
O49 Dy41 2.307 . S
O49 C64 1.266 . S
O50 Dy40 2.298 1_545 S
O50 C64 1.236 . S
O51 Dy41 2.395 . S
O51 C71 1.255 . S
O52 Dy41 2.379 . S
O52 C71 1.249 . S
C53 O43 1.266 . S
C53 O44 1.236 . S
O54 Dy40 2.275 . S
O54 C42 1.254 1_565 S
O55 Dy41 2.339 . S
O55 C42 1.257 . S
C56 C59 1.344 . S
C56 C60 1.328 . S
C56 C62 1.516 . S
C57 C58 1.304 . S
C57 C61 1.323 . S
C58 C57 1.304 . S
C58 C59 1.371 . S
C58 H72 0.930 . S
C59 C56 1.344 . S
C59 C58 1.371 . S
C59 H73 0.931 . S
C60 C56 1.328 . S
C60 C61 1.433 . S
C60 H74 0.931 . S
C61 C57 1.323 . S
C61 C60 1.433 . S
C61 H75 0.933 . S
C62 Dy40 2.738 . S
C62 O45 1.255 . S
C62 O46 1.249 . S
C62 C56 1.516 . S
C63 O47 1.254 1_565 S
C63 O48 1.257 . S
C64 O49 1.266 . S
C64 O50 1.236 . S
C65 C68 1.344 . S
C65 C69 1.328 . S
C65 C71 1.516 . S
C66 C67 1.304 . S
C66 C70 1.323 . S
C67 C66 1.304 . S
C67 C68 1.371 . S
C67 H76 0.930 . S
C68 C65 1.344 . S
C68 C67 1.371 . S
C68 H77 0.931 . S
C69 C65 1.328 . S
C69 C70 1.433 . S
C69 H78 0.931 . S
C70 C66 1.323 . S
C70 C69 1.433 . S
C70 H79 0.933 . S
C71 Dy41 2.738 . S
C71 O51 1.255 . S
C71 O52 1.249 . S
C71 C65 1.516 . S
H72 C58 0.930 . S
H73 C59 0.931 . S
H74 C60 0.931 . S
H75 C61 0.933 . S
H76 C67 0.930 . S
H77 C68 0.931 . S
H78 C69 0.931 . S
H79 C70 0.933 . S
Dy80 O83 2.307 . S
Dy80 O85 2.395 . S
Dy80 O86 2.379 . S
Dy80 O88 2.339 . S
Dy80 O90 2.298 . S
Dy80 O94 2.275 . S
Dy80 C102 2.738 . S
Dy81 O84 2.298 . S
Dy81 O87 2.275 . S
Dy81 O89 2.307 . S
Dy81 O91 2.395 . S
Dy81 O92 2.379 . S
Dy81 O95 2.339 . S
Dy81 C111 2.738 . S
C82 O94 1.254 . S
C82 O95 1.257 . S
O83 Dy80 2.307 . S
O83 C93 1.266 . S
O84 Dy81 2.298 . S
O84 C93 1.236 . S
O85 Dy80 2.395 . S
O85 C102 1.255 . S
O86 Dy80 2.379 . S
O86 C102 1.249 . S
O87 Dy81 2.275 . S
O87 C103 1.254 . S
O88 Dy80 2.339 . S
O88 C103 1.257 . S
O89 Dy81 2.307 . S
O89 C104 1.266 . S
O90 Dy80 2.298 . S
O90 C104 1.236 . S
O91 Dy81 2.395 . S
O91 C111 1.255 . S
O92 Dy81 2.379 . S
O92 C111 1.249 . S
C93 O83 1.266 . S
C93 O84 1.236 . S
O94 Dy80 2.275 . S
O94 C82 1.254 . S
O95 Dy81 2.339 . S
O95 C82 1.257 . S
C96 C99 1.344 . S
C96 C100 1.328 . S
C96 C102 1.516 . S
C97 C98 1.304 . S
C97 C101 1.323 . S
C98 C97 1.304 . S
C98 C99 1.371 . S
C98 H112 0.930 . S
C99 C96 1.344 . S
C99 C98 1.371 . S
C99 H113 0.931 . S
C100 C96 1.328 . S
C100 C101 1.433 . S
C100 H114 0.931 . S
C101 C97 1.323 . S
C101 C100 1.433 . S
C101 H115 0.933 . S
C102 Dy80 2.738 . S
C102 O85 1.255 . S
C102 O86 1.249 . S
C102 C96 1.516 . S
C103 O87 1.254 . S
C103 O88 1.257 . S
C104 O89 1.266 . S
C104 O90 1.236 . S
C105 C108 1.344 . S
C105 C109 1.328 . S
C105 C111 1.516 . S
C106 C107 1.304 . S
C106 C110 1.323 . S
C107 C106 1.304 . S
C107 C108 1.371 . S
C107 H116 0.930 . S
C108 C105 1.344 . S
C108 C107 1.371 . S
C108 H117 0.931 . S
C109 C105 1.328 . S
C109 C110 1.433 . S
C109 H118 0.931 . S
C110 C106 1.323 . S
C110 C109 1.433 . S
C110 H119 0.933 . S
C111 Dy81 2.738 . S
C111 O91 1.255 . S
C111 O92 1.249 . S
C111 C105 1.516 . S
H112 C98 0.930 . S
H113 C99 0.931 . S
H114 C100 0.931 . S
H115 C101 0.933 . S
H116 C107 0.930 . S
H117 C108 0.931 . S
H118 C109 0.931 . S
H119 C110 0.933 . S
H120 C128 0.929 1_655 S
H121 C130 0.930 1_655 S
H122 C132 0.930 1_545 S
H123 C135 0.929 . S
H124 C138 0.930 . S
H125 C140 0.960 . S
H126 C140 0.960 . S
H127 C140 0.960 . S
C128 H120 0.929 1_455 S
C128 C129 1.377 . S
C128 C130 1.384 . S
C129 C128 1.377 . S
C129 C135 1.390 . S
C130 H121 0.930 1_455 S
C130 C128 1.384 . S
C130 C131 1.372 . S
C131 C130 1.372 . S
C131 C132 1.400 . S
C131 C136 1.490 1_565 S
C132 H122 0.930 1_565 S
C132 C131 1.400 . S
C132 C135 1.386 . S
H133 C149 0.930 . S
H134 C150 0.931 . S
C135 H123 0.929 . S
C135 C129 1.390 . S
C135 C132 1.386 . S
C136 C131 1.490 1_545 S
C136 C138 1.395 . S
C136 C139 1.403 . S
H137 C143 0.930 . S
C138 H124 0.930 . S
C138 C136 1.395 . S
C138 C141 1.403 . S
C139 C136 1.403 . S
C139 C140 1.524 . S
C139 C143 1.400 . S
C140 H125 0.960 . S
C140 H126 0.960 . S
C140 H127 0.960 . S
C140 C139 1.524 . S
C141 C138 1.403 . S
C141 C142 1.392 . S
C141 C145 1.495 1_455 S
C142 C141 1.392 . S
C142 C143 1.385 . S
C142 C144 1.478 . S
C143 H137 0.930 . S
C143 C139 1.400 . S
C143 C142 1.385 . S
C144 C142 1.478 . S
C144 C146 1.381 . S
C144 C150 1.383 . S
C145 C141 1.495 1_655 S
C145 H151 0.959 . S
C145 H152 0.961 1_655 S
C145 H153 0.960 . S
C146 C144 1.381 . S
C146 C147 1.394 . S
C146 H154 0.930 1_455 S
C147 C146 1.394 . S
C147 C148 1.383 . S
C147 H155 0.929 1_455 S
C148 C147 1.383 . S
C148 C149 1.377 . S
C149 H133 0.930 . S
C149 C148 1.377 . S
C149 C150 1.379 . S
C150 H134 0.931 . S
C150 C144 1.383 . S
C150 C149 1.379 . S
H151 C145 0.959 . S
H152 C145 0.961 1_455 S
H153 C145 0.960 . S
H154 C146 0.930 1_655 S
H155 C147 0.929 1_655 S
H156 C164 0.929 . S
H157 C166 0.930 . S
H158 C168 0.930 . S
H159 C171 0.929 . S
H160 C174 0.930 . S
H161 C176 0.960 1_655 S
H162 C176 0.960 1_545 S
H163 C176 0.960 . S
C164 H156 0.929 . S
C164 C165 1.377 . S
C164 C166 1.384 . S
C165 C164 1.377 . S
C165 C171 1.390 1_545 S
C166 H157 0.930 . S
C166 C164 1.384 . S
C166 C167 1.372 . S
C167 C166 1.372 . S
C167 C168 1.400 1_545 S
C167 C172 1.490 . S
C168 H158 0.930 . S
C168 C167 1.400 1_565 S
C168 C171 1.386 . S
H169 C185 0.930 . S
H170 C186 0.931 . S
C171 H159 0.929 . S
C171 C165 1.390 1_565 S
C171 C168 1.386 . S
C172 C167 1.490 . S
C172 C174 1.395 . S
C172 C175 1.403 1_445 S
H173 C179 0.930 . S
C174 H160 0.930 . S
C174 C172 1.395 . S
C174 C177 1.403 1_455 S
C175 C172 1.403 1_665 S
C175 C176 1.524 1_655 S
C175 C179 1.400 . S
C176 H161 0.960 1_455 S
C176 H162 0.960 1_565 S
C176 H163 0.960 . S
C176 C175 1.524 1_455 S
C177 C174 1.403 1_655 S
C177 C178 1.392 . S
C177 C181 1.495 . S
C178 C177 1.392 . S
C178 C179 1.385 1_545 S
C178 C180 1.478 . S
C179 H173 0.930 . S
C179 C175 1.400 . S
C179 C178 1.385 1_565 S
C180 C178 1.478 . S
C180 C182 1.381 . S
C180 C186 1.383 1_545 S
C181 C177 1.495 . S
C181 H187 0.959 . S
C181 H188 0.961 1_545 S
C181 H189 0.960 . S
C182 C180 1.381 . S
C182 C183 1.394 . S
C182 H190 0.930 . S
C183 C182 1.394 . S
C183 C184 1.380 1_545 S
C183 H191 0.929 . S
C184 C183 1.380 1_565 S
C184 C185 1.383 . S
C185 H169 0.930 . S
C185 C184 1.383 . S
C185 C186 1.379 . S
C186 H170 0.931 . S
C186 C180 1.383 1_565 S
C186 C185 1.379 . S
H187 C181 0.959 . S
H188 C181 0.961 1_565 S
H189 C181 0.960 . S
H190 C182 0.930 . S
H191 C183 0.929 . S
H192 C200 0.929 . S
H193 C202 0.930 1_545 S
H194 C204 0.930 . S
H195 C207 0.929 . S
H196 C210 0.930 . S
H197 C212 0.960 . S
H198 C212 0.960 1_565 S
H199 C212 0.960 1_565 S
C200 H192 0.929 . S
C200 C201 1.377 . S
C200 C202 1.384 . S
C201 C200 1.377 . S
C201 C207 1.390 . S
C202 H193 0.930 1_565 S
C202 C200 1.384 . S
C202 C203 1.372 . S
C203 C202 1.372 . S
C203 C204 1.400 . S
C203 C208 1.490 1_565 S
C204 H194 0.930 . S
C204 C203 1.400 . S
C204 C207 1.386 . S
H205 C221 0.930 . S
H206 C222 0.931 . S
C207 H195 0.929 . S
C207 C201 1.390 . S
C207 C204 1.386 . S
C208 C203 1.490 1_545 S
C208 C210 1.395 . S
C208 C211 1.403 . S
H209 C215 0.930 . S
C210 H196 0.930 . S
C210 C208 1.395 . S
C210 C213 1.403 . S
C211 C208 1.403 . S
C211 C212 1.524 . S
C211 C215 1.400 1_655 S
C212 H197 0.960 . S
C212 H198 0.960 1_545 S
C212 H199 0.960 1_545 S
C212 C211 1.524 . S
C213 C210 1.403 . S
C213 C214 1.392 1_655 S
C213 C217 1.495 . S
C214 C213 1.392 1_455 S
C214 C215 1.385 . S
C214 C216 1.478 . S
C215 H209 0.930 . S
C215 C211 1.400 1_455 S
C215 C214 1.385 . S
C216 C214 1.478 . S
C216 C218 1.381 . S
C216 C222 1.383 . S
C217 C213 1.495 . S
C217 H223 0.959 . S
C217 H224 0.961 1_655 S
C217 H225 0.960 . S
C218 C216 1.381 . S
C218 C219 1.394 . S
C218 H226 0.930 . S
C219 C218 1.394 . S
C219 C220 1.383 . S
C219 H227 0.929 . S
C220 C219 1.383 . S
C220 C221 1.377 . S
C221 H205 0.930 . S
C221 C220 1.377 . S
C221 C222 1.379 . S
C222 H206 0.931 . S
C222 C216 1.383 . S
C222 C221 1.379 . S
H223 C217 0.959 . S
H224 C217 0.961 1_455 S
H225 C217 0.960 . S
H226 C218 0.930 . S
H227 C219 0.929 . S
H228 C236 0.929 . S
H229 C238 0.930 . S
H230 C240 0.930 . S
H231 C243 0.929 . S
H232 C246 0.930 . S
H233 C248 0.960 . S
H234 C248 0.960 . S
H235 C248 0.960 . S
C236 H228 0.929 . S
C236 C237 1.377 . S
C236 C238 1.384 . S
C237 C236 1.377 . S
C237 C243 1.390 . S
C238 H229 0.930 . S
C238 C236 1.384 . S
C238 C239 1.372 . S
C239 C238 1.372 . S
C239 C240 1.400 . S
C239 C244 1.490 . S
C240 H230 0.930 . S
C240 C239 1.400 . S
C240 C243 1.386 . S
H241 C257 0.930 . S
H242 C258 0.931 . S
C243 H231 0.929 . S
C243 C237 1.390 . S
C243 C240 1.386 . S
C244 C239 1.490 . S
C244 C246 1.395 . S
C244 C247 1.403 . S
H245 C251 0.930 . S
C246 H232 0.930 . S
C246 C244 1.395 . S
C246 C249 1.403 . S
C247 C244 1.403 . S
C247 C248 1.524 . S
C247 C251 1.400 . S
C248 H233 0.960 . S
C248 H234 0.960 . S
C248 H235 0.960 . S
C248 C247 1.524 . S
C249 C246 1.403 . S
C249 C250 1.392 . S
C249 C253 1.495 . S
C250 C249 1.392 . S
C250 C251 1.385 . S
C250 C252 1.478 1_556 S
C251 H245 0.930 . S
C251 C247 1.400 . S
C251 C250 1.385 . S
C252 C250 1.478 1_554 S
C252 C254 1.381 . S
C252 C258 1.383 . S
C253 C249 1.495 . S
C253 H259 0.959 . S
C253 H260 0.961 . S
C253 H261 0.960 . S
C254 C252 1.381 . S
C254 C255 1.394 . S
C254 H262 0.930 . S
C255 C254 1.394 . S
C255 C256 1.383 . S
C255 H263 0.929 . S
C256 C255 1.383 . S
C256 C257 1.377 . S
C257 H241 0.930 . S
C257 C256 1.377 . S
C257 C258 1.379 . S
C258 H242 0.931 . S
C258 C252 1.383 . S
C258 C257 1.379 . S
H259 C253 0.959 . S
H260 C253 0.961 . S
H261 C253 0.960 . S
H262 C254 0.930 . S
H263 C255 0.929 . S
H264 C272 0.929 . S
H265 C274 0.930 . S
H266 C276 0.930 . S
H267 C279 0.929 . S
H268 C282 0.930 . S
H269 C284 0.960 . S
H270 C284 0.960 . S
H271 C284 0.960 . S
C272 H264 0.929 . S
C272 C273 1.377 . S
C272 C274 1.384 . S
C273 C272 1.377 . S
C273 C279 1.390 . S
C274 H265 0.930 . S
C274 C272 1.384 . S
C274 C275 1.372 . S
C275 C274 1.372 . S
C275 C276 1.400 . S
C275 C280 1.490 . S
C276 H266 0.930 . S
C276 C275 1.400 . S
C276 C279 1.386 . S
H277 C293 0.930 . S
H278 C294 0.931 . S
C279 H267 0.929 . S
C279 C273 1.390 . S
C279 C276 1.386 . S
C280 C275 1.490 . S
C280 C282 1.395 . S
C280 C283 1.403 . S
H281 C287 0.930 . S
C282 H268 0.930 . S
C282 C280 1.395 . S
C282 C285 1.403 . S
C283 C280 1.403 . S
C283 C284 1.524 . S
C283 C287 1.400 . S
C284 H269 0.960 . S
C284 H270 0.960 . S
C284 H271 0.960 . S
C284 C283 1.524 . S
C285 C282 1.403 . S
C285 C286 1.392 . S
C285 C289 1.495 . S
C286 C285 1.392 . S
C286 C287 1.385 . S
C286 C288 1.478 . S
C287 H281 0.930 . S
C287 C283 1.400 . S
C287 C286 1.385 . S
C288 C286 1.478 . S
C288 C290 1.381 . S
C288 C294 1.383 . S
C289 C285 1.495 . S
C289 H295 0.959 . S
C289 H296 0.961 . S
C289 H297 0.960 . S
C290 C288 1.381 . S
C290 C291 1.394 . S
C290 H298 0.930 . S
C291 C290 1.394 . S
C291 C292 1.383 . S
C291 H299 0.929 . S
C292 C291 1.383 . S
C292 C293 1.377 . S
C293 H277 0.930 . S
C293 C292 1.377 . S
C293 C294 1.379 . S
C294 H278 0.931 . S
C294 C288 1.383 . S
C294 C293 1.379 . S
H295 C289 0.959 . S
H296 C289 0.961 . S
H297 C289 0.960 . S
H298 C290 0.930 . S
H299 C291 0.929 . S
H300 C308 0.929 . S
H301 C310 0.930 . S
H302 C312 0.930 . S
H303 C315 0.929 . S
H304 C318 0.930 . S
H305 C320 0.960 . S
H306 C320 0.960 . S
H307 C320 0.960 . S
C308 H300 0.929 . S
C308 C309 1.377 . S
C308 C310 1.384 . S
C309 C308 1.377 . S
C309 C315 1.390 . S
C310 H301 0.930 . S
C310 C308 1.384 . S
C310 C311 1.372 . S
C311 C310 1.372 . S
C311 C312 1.400 . S
C311 C316 1.490 . S
C312 H302 0.930 . S
C312 C311 1.400 . S
C312 C315 1.386 . S
H313 C329 0.930 . S
H314 C330 0.931 . S
C315 H303 0.929 . S
C315 C309 1.390 . S
C315 C312 1.386 . S
C316 C311 1.490 . S
C316 C318 1.395 . S
C316 C319 1.403 . S
H317 C323 0.930 . S
C318 H304 0.930 . S
C318 C316 1.395 . S
C318 C321 1.403 . S
C319 C316 1.403 . S
C319 C320 1.524 . S
C319 C323 1.400 . S
C320 H305 0.960 . S
C320 H306 0.960 . S
C320 H307 0.960 . S
C320 C319 1.524 . S
C321 C318 1.403 . S
C321 C322 1.392 . S
C321 C325 1.495 . S
C322 C321 1.392 . S
C322 C323 1.385 . S
C322 C324 1.478 . S
C323 H317 0.930 . S
C323 C319 1.400 . S
C323 C322 1.385 . S
C324 C322 1.478 . S
C324 C326 1.381 . S
C324 C330 1.383 . S
C325 C321 1.495 . S
C325 H331 0.959 . S
C325 H332 0.961 . S
C325 H333 0.960 . S
C326 C324 1.381 . S
C326 C327 1.394 . S
C326 H334 0.930 . S
C327 C326 1.394 . S
C327 C328 1.383 . S
C327 H335 0.929 1_565 S
C328 C327 1.383 . S
C328 C329 1.377 . S
C329 H313 0.930 . S
C329 C328 1.377 . S
C329 C330 1.379 . S
C330 H314 0.931 . S
C330 C324 1.383 . S
C330 C329 1.379 . S
H331 C325 0.959 . S
H332 C325 0.961 . S
H333 C325 0.960 . S
H334 C326 0.930 . S
H335 C327 0.929 1_545 S
H336 C344 0.929 . S
H337 C346 0.930 1_554 S
H338 C348 0.930 . S
H339 C351 0.929 . S
H340 C354 0.930 . S
H341 C356 0.960 . S
H342 C356 0.960 . S
H343 C356 0.960 . S
C344 H336 0.929 . S
C344 C345 1.377 . S
C344 C346 1.384 . S
C345 C344 1.377 . S
C345 C351 1.390 . S
C346 H337 0.930 1_556 S
C346 C344 1.384 . S
C346 C347 1.362 1_556 S
C347 C346 1.362 1_554 S
C347 C348 1.365 1_554 S
C347 C352 1.534 . S
C348 H338 0.930 . S
C348 C347 1.365 1_556 S
C348 C351 1.386 . S
H349 C365 0.930 . S
H350 C366 0.931 . S
C351 H339 0.929 . S
C351 C345 1.390 . S
C351 C348 1.386 . S
C352 C347 1.534 . S
C352 C354 1.395 . S
C352 C355 1.403 . S
H353 C359 0.930 . S
C354 H340 0.930 . S
C354 C352 1.395 . S
C354 C357 1.403 . S
C355 C352 1.403 . S
C355 C356 1.524 . S
C355 C359 1.400 . S
C356 H341 0.960 . S
C356 H342 0.960 . S
C356 H343 0.960 . S
C356 C355 1.524 . S
C357 C354 1.403 . S
C357 C358 1.392 . S
C357 C361 1.495 . S
C358 C357 1.392 . S
C358 C359 1.385 . S
C358 C360 1.478 . S
C359 H353 0.930 . S
C359 C355 1.400 . S
C359 C358 1.385 . S
C360 C358 1.478 . S
C360 C362 1.381 . S
C360 C366 1.383 . S
C361 C357 1.495 . S
C361 H367 0.959 . S
C361 H368 0.961 . S
C361 H369 0.960 . S
C362 C360 1.381 . S
C362 C363 1.394 . S
C362 H370 0.930 . S
C363 C362 1.394 . S
C363 C364 1.383 . S
C363 H371 0.929 . S
C364 C363 1.383 . S
C364 C365 1.377 1_655 S
C365 H349 0.930 . S
C365 C364 1.377 1_455 S
C365 C366 1.379 1_455 S
C366 H350 0.931 . S
C366 C360 1.383 . S
C366 C365 1.379 1_655 S
H367 C361 0.959 . S
H368 C361 0.961 . S
H369 C361 0.960 . S
H370 C362 0.930 . S
H371 C363 0.929 . S
H372 C380 0.929 . S
H373 C382 0.930 . S
H374 C384 0.930 . S
H375 C387 0.929 . S
H376 C390 0.930 . S
H377 C392 0.960 . S
H378 C392 0.960 . S
H379 C392 0.960 . S
C380 H372 0.929 . S
C380 C381 1.377 . S
C380 C382 1.384 . S
C381 C380 1.377 . S
C381 C387 1.390 . S
C382 H373 0.930 . S
C382 C380 1.384 . S
C382 C383 1.372 . S
C383 C382 1.372 . S
C383 C384 1.400 . S
C383 C388 1.490 . S
C384 H374 0.930 . S
C384 C383 1.400 . S
C384 C387 1.386 . S
H385 C401 0.930 . S
H386 C402 0.931 . S
C387 H375 0.929 . S
C387 C381 1.390 . S
C387 C384 1.386 . S
C388 C383 1.490 . S
C388 C390 1.395 . S
C388 C391 1.403 . S
H389 C395 0.930 . S
C390 H376 0.930 . S
C390 C388 1.395 . S
C390 C393 1.403 . S
C391 C388 1.403 . S
C391 C392 1.524 . S
C391 C395 1.400 . S
C392 H377 0.960 . S
C392 H378 0.960 . S
C392 H379 0.960 . S
C392 C391 1.524 . S
C393 C390 1.403 . S
C393 C394 1.392 . S
C393 C397 1.495 . S
C394 C393 1.392 . S
C394 C395 1.385 . S
C394 C396 1.478 . S
C395 H389 0.930 . S
C395 C391 1.400 . S
C395 C394 1.385 . S
C396 C394 1.478 . S
C396 C398 1.381 . S
C396 C402 1.383 . S
C397 C393 1.495 . S
C397 H403 0.959 . S
C397 H404 0.961 . S
C397 H405 0.960 . S
C398 C396 1.381 . S
C398 C399 1.394 . S
C398 H406 0.930 . S
C399 C398 1.394 . S
C399 C400 1.383 . S
C399 H407 0.929 . S
C400 C399 1.383 . S
C400 C401 1.377 . S
C401 H385 0.930 . S
C401 C400 1.377 . S
C401 C402 1.379 . S
C402 H386 0.931 . S
C402 C396 1.383 . S
C402 C401 1.379 . S
H403 C397 0.959 . S
H404 C397 0.961 . S
H405 C397 0.960 . S
H406 C398 0.930 . S
H407 C399 0.929 . S
H408 C416 0.929 . S
H409 C418 0.930 . S
H410 C420 0.930 . S
H411 C423 0.929 . S
H412 C426 0.930 . S
H413 C428 0.960 . S
H414 C428 0.960 . S
H415 C428 0.960 . S
C416 H408 0.929 . S
C416 C417 1.377 . S
C416 C418 1.384 . S
C417 C416 1.377 . S
C417 C423 1.390 . S
C418 H409 0.930 . S
C418 C416 1.384 . S
C418 C419 1.372 . S
C419 C418 1.372 . S
C419 C420 1.400 . S
C419 C424 1.490 . S
C420 H410 0.930 . S
C420 C419 1.400 . S
C420 C423 1.386 . S
H421 C437 0.930 . S
H422 C438 0.931 . S
C423 H411 0.929 . S
C423 C417 1.390 . S
C423 C420 1.386 . S
C424 C419 1.490 . S
C424 C426 1.395 . S
C424 C427 1.403 . S
H425 C431 0.930 . S
C426 H412 0.930 . S
C426 C424 1.395 . S
C426 C429 1.403 . S
C427 C424 1.403 . S
C427 C428 1.524 . S
C427 C431 1.400 . S
C428 H413 0.960 . S
C428 H414 0.960 . S
C428 H415 0.960 . S
C428 C427 1.524 . S
C429 C426 1.403 . S
C429 C430 1.392 . S
C429 C433 1.495 . S
C430 C429 1.392 . S
C430 C431 1.385 . S
C430 C432 1.478 . S
C431 H425 0.930 . S
C431 C427 1.400 . S
C431 C430 1.385 . S
C432 C430 1.478 . S
C432 C434 1.381 . S
C432 C438 1.383 . S
C433 C429 1.495 . S
C433 H439 0.959 . S
C433 H440 0.961 . S
C433 H441 0.960 . S
C434 C432 1.381 . S
C434 C435 1.394 . S
C434 H442 0.930 . S
C435 C434 1.394 . S
C435 C436 1.383 . S
C435 H443 0.929 . S
C436 C435 1.383 . S
C436 C437 1.377 . S
C437 H421 0.930 . S
C437 C436 1.377 . S
C437 C438 1.379 . S
C438 H422 0.931 . S
C438 C432 1.383 . S
C438 C437 1.379 . S
H439 C433 0.959 . S
H440 C433 0.961 . S
H441 C433 0.960 . S
H442 C434 0.930 . S
H443 C435 0.929 . S
C129 C2 1.393 . S
C148 C23 1.414 . S
C165 C63 1.397 1_545 S
C184 C42 1.404 1_565 S
C201 C103 1.386 . S
C220 C82 1.384 . S
C237 C93 0.964 . S
C256 C17 0.982 . S
C273 C64 1.514 . S
C292 C26 1.471 . S
C309 C97 0.956 . S
C328 C53 0.951 . S
C345 C106 1.492 . S
C364 C24 1.510 1_655 S
C381 C13 0.970 . S
C400 C57 0.928 . S
C417 C104 1.514 . S
C436 C66 1.482 . S
