# Generated by pormake.
# Topology ukb, (4)-cn, num edge types: 1
# Building blocks:
#     Node 0, Type 0, BuildingBlock: QUQFOY_clean_sbu_3, # of connection points: 4
#     Node 1, Type 0, BuildingBlock: QUQFOY_clean_sbu_3, # of connection points: 4
#     Node 2, Type 0, BuildingBlock: QUQFOY_clean_sbu_3, # of connection points: 4
#     Node 3, Type 0, BuildingBlock: QUQFOY_clean_sbu_3, # of connection points: 4
#     Node 4, Type 0, BuildingBlock: QUQFOY_clean_sbu_3, # of connection points: 4
#     Node 5, Type 0, BuildingBlock: QUQFOY_clean_sbu_3, # of connection points: 4
#     Node 6, Type 0, BuildingBlock: QUQFOY_clean_sbu_3, # of connection points: 4
#     Node 7, Type 0, BuildingBlock: QUQFOY_clean_sbu_3, # of connection points: 4
#     Node 8, Type 0, BuildingBlock: QUQFOY_clean_sbu_3, # of connection points: 4
#     Node 9, Type 0, BuildingBlock: QUQFOY_clean_sbu_3, # of connection points: 4
#     Node 10, Type 0, BuildingBlock: QUQFOY_clean_sbu_3, # of connection points: 4
#     Node 11, Type 0, BuildingBlock: QUQFOY_clean_sbu_3, # of connection points: 4
#     Node 12, Type 0, BuildingBlock: QUQFOY_clean_sbu_3, # of connection points: 4
#     Node 13, Type 0, BuildingBlock: QUQFOY_clean_sbu_3, # of connection points: 4
#     Node 14, Type 0, BuildingBlock: QUQFOY_clean_sbu_3, # of connection points: 4
#     Node 15, Type 0, BuildingBlock: QUQFOY_clean_sbu_3, # of connection points: 4
#     Edge 16, Type (0, 0), None
#     Edge 17, Type (0, 0), None
#     Edge 18, Type (0, 0), None
#     Edge 19, Type (0, 0), None
#     Edge 20, Type (0, 0), None
#     Edge 21, Type (0, 0), None
#     Edge 22, Type (0, 0), None
#     Edge 23, Type (0, 0), None
#     Edge 24, Type (0, 0), None
#     Edge 25, Type (0, 0), None
#     Edge 26, Type (0, 0), None
#     Edge 27, Type (0, 0), None
#     Edge 28, Type (0, 0), None
#     Edge 29, Type (0, 0), None
#     Edge 30, Type (0, 0), None
#     Edge 31, Type (0, 0), None
#     Edge 32, Type (0, 0), None
#     Edge 33, Type (0, 0), None
#     Edge 34, Type (0, 0), None
#     Edge 35, Type (0, 0), None
#     Edge 36, Type (0, 0), None
#     Edge 37, Type (0, 0), None
#     Edge 38, Type (0, 0), None
#     Edge 39, Type (0, 0), None
#     Edge 40, Type (0, 0), None
#     Edge 41, Type (0, 0), None
#     Edge 42, Type (0, 0), None
#     Edge 43, Type (0, 0), None
#     Edge 44, Type (0, 0), None
#     Edge 45, Type (0, 0), None
#     Edge 46, Type (0, 0), None
#     Edge 47, Type (0, 0), None
# Relax obj value: 0.081
# Max RMSD: 0.054
# Mean RMSD: 0.054
data_MOF--net-ukb--node1-QUQFOY_clean_sbu_3--edge1-none
_symmetry_space_group_name_H-M    P1
_symmetry_Int_Tables_number       1
_symmetry_cell_setting            triclinic
loop_
_symmetry_equiv_pos_as_xyz
'x, y, z'
_cell_length_a     21.16804
_cell_length_b     21.174822
_cell_length_c     19.442135
_cell_angle_alpha  89.9981
_cell_angle_beta   90.001388
_cell_angle_gamma 90.002014
loop_
_atom_site_label
_atom_site_type_symbol
_atom_site_fract_x
_atom_site_fract_y
_atom_site_fract_z
_atom_type_partial_charge
C0 C 0.49565 0.21981 -0.02081 0.0
O1 O 0.49649 0.16084 -0.01175 0.0
Cd2 Cd 0.51613 0.17337 0.11144 0.0
O3 O 0.49941 0.25434 0.03221 0.0
Cd4 Cd 0.50463 0.18479 0.14364 0.0
C5 C 0.56863 0.30001 0.17832 0.0
O6 O 0.58353 0.09194 0.13229 0.0
O7 O 0.59518 0.15434 0.21861 0.0
O8 O 0.40867 0.12231 0.12052 0.0
C9 C 0.61275 0.10497 0.18717 0.0
O10 O 0.58858 0.26618 0.12917 0.0
C11 C 0.39014 0.12311 0.18256 0.0
O12 O 0.51823 0.28303 0.20804 0.0
O13 O 0.42186 0.15589 0.22484 0.0
C14 C 0.24731 0.49555 0.47929 0.0
O15 O 0.3063 0.49634 0.48835 0.0
Cd16 Cd 0.29379 0.51594 0.61155 0.0
O17 O 0.21277 0.49931 0.53231 0.0
Cd18 Cd 0.28235 0.50444 0.64373 0.0
C19 C 0.16712 0.56845 0.67845 0.0
O20 O 0.37526 0.58329 0.63241 0.0
O21 O 0.31286 0.59492 0.71874 0.0
O22 O 0.34478 0.40848 0.62055 0.0
C23 C 0.36225 0.61249 0.6873 0.0
O24 O 0.20097 0.5884 0.62931 0.0
C25 C 0.34397 0.38993 0.68258 0.0
O26 O 0.18409 0.51804 0.70815 0.0
O27 O 0.31121 0.42164 0.72488 0.0
C28 C 0.97174 0.24712 -0.02081 0.0
O29 O 0.9709 0.30609 -0.01177 0.0
Cd30 Cd 0.9513 0.29361 0.11143 0.0
O31 O 0.968 0.21261 0.03223 0.0
Cd32 Cd 0.96281 0.28219 0.14364 0.0
C33 C 0.8988 0.16697 0.17836 0.0
O34 O 0.88391 0.37504 0.13229 0.0
O35 O 0.87226 0.31264 0.2186 0.0
O36 O 0.05877 0.34467 0.12052 0.0
C37 C 0.85469 0.36201 0.18716 0.0
O38 O 0.87885 0.2008 0.1292 0.0
C39 C 0.07729 0.34387 0.18257 0.0
O40 O 0.94921 0.18395 0.20807 0.0
O41 O 0.04557 0.31108 0.22484 0.0
C42 C 0.22003 0.97138 0.47925 0.0
O43 O 0.16103 0.97056 0.48829 0.0
Cd44 Cd 0.17351 0.95094 0.61148 0.0
O45 O 0.25455 0.96762 0.53228 0.0
Cd46 Cd 0.18494 0.96244 0.64368 0.0
C47 C 0.30017 0.89843 0.67842 0.0
O48 O 0.09204 0.88358 0.63234 0.0
O49 O 0.15443 0.87195 0.71868 0.0
O50 O 0.12249 0.05839 0.62052 0.0
C51 C 0.10505 0.85438 0.68723 0.0
O52 O 0.26633 0.87848 0.62926 0.0
C53 C 0.12331 0.07694 0.68255 0.0
O54 O 0.28319 0.94883 0.70812 0.0
O55 O 0.15608 0.04522 0.72485 0.0
C56 C 0.49566 0.24708 0.90993 0.0
O57 O 0.49647 0.30605 0.90087 0.0
Cd58 Cd 0.5161 0.29353 0.77768 0.0
O59 O 0.49942 0.21255 0.85691 0.0
Cd60 Cd 0.50459 0.28212 0.74549 0.0
C61 C 0.56858 0.16691 0.71075 0.0
O62 O 0.5835 0.37496 0.7568 0.0
O63 O 0.59509 0.31259 0.67046 0.0
O64 O 0.40866 0.34462 0.76871 0.0
C65 C 0.61268 0.36195 0.7019 0.0
O66 O 0.58855 0.20072 0.75991 0.0
C67 C 0.39009 0.34381 0.70668 0.0
O68 O 0.51816 0.18389 0.68106 0.0
O69 O 0.42175 0.311 0.66437 0.0
C70 C 0.22004 0.49557 0.41003 0.0
O71 O 0.16104 0.49641 0.40097 0.0
Cd72 Cd 0.17357 0.51602 0.27778 0.0
O73 O 0.25458 0.49932 0.35701 0.0
Cd74 Cd 0.185 0.5045 0.24558 0.0
C75 C 0.30024 0.56851 0.21086 0.0
O76 O 0.0921 0.58337 0.25687 0.0
O77 O 0.15451 0.59497 0.17054 0.0
O78 O 0.1225 0.40857 0.26873 0.0
C79 C 0.10512 0.61255 0.20197 0.0
O80 O 0.26641 0.58846 0.26001 0.0
C81 C 0.12337 0.39001 0.2067 0.0
O82 O 0.28326 0.51811 0.18116 0.0
O83 O 0.15619 0.4217 0.16442 0.0
C84 C 0.9717 0.21983 0.90995 0.0
O85 O 0.97086 0.16085 0.90091 0.0
Cd86 Cd 0.9512 0.17334 0.77772 0.0
O87 O 0.96794 0.25434 0.85692 0.0
Cd88 Cd 0.96272 0.18475 0.74552 0.0
C89 C 0.89872 0.29996 0.71078 0.0
O90 O 0.88379 0.09192 0.75685 0.0
O91 O 0.87221 0.15429 0.67049 0.0
O92 O 0.05864 0.12223 0.7687 0.0
C93 C 0.85461 0.10493 0.70194 0.0
O94 O 0.87876 0.26615 0.75994 0.0
C95 C 0.0772 0.12305 0.70667 0.0
O96 O 0.94913 0.28297 0.68108 0.0
O97 O 0.04553 0.15587 0.66437 0.0
C98 C 0.24733 0.97138 0.41 0.0
O99 O 0.30632 0.97055 0.40097 0.0
Cd100 Cd 0.29384 0.95097 0.27777 0.0
O101 O 0.21281 0.96765 0.35697 0.0
Cd102 Cd 0.28242 0.96249 0.24556 0.0
C103 C 0.16719 0.89847 0.21079 0.0
O104 O 0.37532 0.88363 0.25688 0.0
O105 O 0.31292 0.87202 0.17055 0.0
O106 O 0.34491 0.05842 0.26873 0.0
C107 C 0.3623 0.85444 0.20198 0.0
O108 O 0.20101 0.87852 0.25996 0.0
C109 C 0.34405 0.07697 0.2067 0.0
O110 O 0.18418 0.94888 0.1811 0.0
O111 O 0.31123 0.04529 0.16441 0.0
C112 C 0.47171 0.74712 0.90998 0.0
O113 O 0.47087 0.80609 0.90092 0.0
Cd114 Cd 0.45123 0.79357 0.77773 0.0
O115 O 0.46796 0.71259 0.85696 0.0
Cd116 Cd 0.46273 0.78214 0.74553 0.0
C117 C 0.39874 0.66692 0.71085 0.0
O118 O 0.38382 0.87499 0.75687 0.0
O119 O 0.37218 0.81258 0.67056 0.0
O120 O 0.55869 0.84463 0.76864 0.0
C121 C 0.3546 0.86195 0.702 0.0
O122 O 0.37878 0.70074 0.76001 0.0
C123 C 0.57722 0.84383 0.7066 0.0
O124 O 0.44914 0.6839 0.68114 0.0
O125 O 0.54549 0.81104 0.66432 0.0
C126 C 0.72006 0.47139 0.40989 0.0
O127 O 0.66107 0.47059 0.40082 0.0
Cd128 Cd 0.67358 0.45099 0.27763 0.0
O129 O 0.7546 0.46762 0.35687 0.0
Cd130 Cd 0.68501 0.46249 0.24544 0.0
C131 C 0.80025 0.39849 0.21072 0.0
O132 O 0.59211 0.38363 0.25676 0.0
O133 O 0.65451 0.372 0.17043 0.0
O134 O 0.62258 0.55844 0.26863 0.0
C135 C 0.60513 0.35443 0.20188 0.0
O136 O 0.76641 0.37853 0.25986 0.0
C137 C 0.62339 0.577 0.2066 0.0
O138 O 0.78328 0.44889 0.18102 0.0
O139 O 0.65615 0.54528 0.16429 0.0
C140 C -0.00438 0.71982 0.90996 0.0
O141 O -0.00355 0.66084 0.90092 0.0
Cd142 Cd 0.01606 0.67333 0.77772 0.0
O143 O -0.00064 0.75433 0.85692 0.0
Cd144 Cd 0.00456 0.68475 0.74551 0.0
C145 C 0.06856 0.79996 0.71079 0.0
O146 O 0.08346 0.5919 0.75688 0.0
O147 O 0.09511 0.6543 0.67056 0.0
O148 O 0.9086 0.62227 0.76864 0.0
C149 C 0.11269 0.60493 0.70201 0.0
O150 O 0.08851 0.76614 0.75995 0.0
C151 C 0.89007 0.62306 0.7066 0.0
O152 O 0.01815 0.78298 0.68108 0.0
O153 O 0.9218 0.65584 0.66431 0.0
C154 C 0.74733 -0.00446 0.4099 0.0
O155 O 0.80633 -0.00363 0.40086 0.0
Cd156 Cd 0.79385 0.01599 0.27767 0.0
O157 O 0.71281 -0.00069 0.35686 0.0
Cd158 Cd 0.78242 0.00449 0.24546 0.0
C159 C 0.66719 0.06849 0.21073 0.0
O160 O 0.87532 0.08335 0.25681 0.0
O161 O 0.81293 0.09498 0.17047 0.0
O162 O 0.84488 0.90854 0.26862 0.0
C163 C 0.8623 0.11256 0.20193 0.0
O164 O 0.70103 0.08844 0.25989 0.0
C165 C 0.84406 0.88999 0.20659 0.0
O166 O 0.68417 0.01809 0.18103 0.0
O167 O 0.81129 0.92172 0.16429 0.0
C168 C 0.47171 0.71985 -0.02077 0.0
O169 O 0.47089 0.66088 -0.0117 0.0
Cd170 Cd 0.45126 0.67339 0.11149 0.0
O171 O 0.46795 0.75438 0.03226 0.0
Cd172 Cd 0.46278 0.68481 0.14368 0.0
C173 C 0.39879 0.80002 0.17841 0.0
O174 O 0.38386 0.59197 0.13237 0.0
O175 O 0.37227 0.65435 0.21871 0.0
O176 O 0.5587 0.62231 0.12047 0.0
C177 C 0.35467 0.60499 0.18727 0.0
O178 O 0.37882 0.76621 0.12925 0.0
C179 C 0.57727 0.62312 0.1825 0.0
O180 O 0.4492 0.78304 0.20811 0.0
O181 O 0.54561 0.65593 0.2248 0.0
C182 C 0.74733 0.47136 0.47914 0.0
O183 O 0.80632 0.47053 0.48821 0.0
Cd184 Cd 0.79379 0.45092 0.6114 0.0
O185 O 0.71278 0.46761 0.53216 0.0
Cd186 Cd 0.78236 0.46243 0.64359 0.0
C187 C 0.66712 0.39843 0.67832 0.0
O188 O 0.87525 0.38356 0.63229 0.0
O189 O 0.81284 0.37196 0.71862 0.0
O190 O 0.84485 0.55836 0.62043 0.0
C191 C 0.86222 0.35437 0.68719 0.0
O192 O 0.70095 0.37847 0.62916 0.0
C193 C 0.84399 0.57692 0.68246 0.0
O194 O 0.6841 0.44883 0.70801 0.0
O195 O 0.81117 0.54523 0.72475 0.0
C196 C -0.00434 0.7471 -0.0208 0.0
O197 O -0.0035 0.80608 -0.01176 0.0
Cd198 Cd 0.01617 0.79359 0.11143 0.0
O199 O -0.00058 0.71259 0.03223 0.0
Cd200 Cd 0.00465 0.78218 0.14363 0.0
C201 C 0.06864 0.66696 0.17838 0.0
O202 O 0.08358 0.87501 0.1323 0.0
O203 O 0.09516 0.81263 0.21865 0.0
O204 O 0.90873 0.8447 0.12044 0.0
C205 C 0.11277 0.86199 0.1872 0.0
O206 O 0.0886 0.70077 0.12921 0.0
C207 C 0.89017 0.84388 0.18248 0.0
O208 O 0.01823 0.68395 0.20808 0.0
O209 O 0.92184 0.81106 0.22477 0.0
C210 C 0.72003 -0.00445 0.47914 0.0
O211 O 0.66104 -0.00362 0.48818 0.0
Cd212 Cd 0.67352 0.01597 0.61138 0.0
O213 O 0.75455 -0.00072 0.53218 0.0
Cd214 Cd 0.68494 0.00445 0.64358 0.0
C215 C 0.80017 0.06845 0.67835 0.0
O216 O 0.59205 0.08331 0.63227 0.0
O217 O 0.65446 0.09492 0.7186 0.0
O218 O 0.62245 0.90852 0.62043 0.0
C219 C 0.60507 0.1125 0.68716 0.0
O220 O 0.76636 0.08841 0.62918 0.0
C221 C 0.6233 0.88996 0.68246 0.0
O222 O 0.78319 0.01805 0.70804 0.0
O223 O 0.65613 0.92164 0.72474 0.0
loop_
_geom_bond_atom_site_label_1
_geom_bond_atom_site_label_2
_geom_bond_distance
_geom_bond_site_symmetry_2
_ccdc_geom_bond_type
C0 O1 1.306 . S
C0 O3 1.160 . S
O1 C0 1.306 . S
O1 Cd2 2.228 . S
Cd2 O1 2.228 . S
Cd2 O6 2.273 . S
Cd2 O10 2.277 . S
O3 C0 1.160 . S
O3 Cd4 2.203 . S
Cd4 O3 2.203 . S
Cd4 O6 2.411 . S
Cd4 O7 2.333 . S
Cd4 O8 2.352 . S
Cd4 O12 2.277 . S
Cd4 O13 2.356 . S
C5 O10 1.209 . S
C5 O12 1.226 . S
O6 Cd2 2.273 . S
O6 Cd4 2.411 . S
O6 C9 1.320 . S
O7 Cd4 2.333 . S
O7 C9 1.214 . S
O8 Cd4 2.352 . S
O8 C11 1.258 . S
C9 O6 1.320 . S
C9 O7 1.214 . S
O10 Cd2 2.277 . S
O10 C5 1.209 . S
C11 O8 1.258 . S
C11 O13 1.282 . S
O12 Cd4 2.277 . S
O12 C5 1.226 . S
O13 Cd4 2.356 . S
O13 C11 1.282 . S
C14 O15 1.306 . S
C14 O17 1.160 . S
O15 C14 1.306 . S
O15 Cd16 2.228 . S
Cd16 O15 2.228 . S
Cd16 O20 2.273 . S
Cd16 O24 2.277 . S
O17 C14 1.160 . S
O17 Cd18 2.203 . S
Cd18 O17 2.203 . S
Cd18 O20 2.411 . S
Cd18 O21 2.333 . S
Cd18 O22 2.352 . S
Cd18 O26 2.277 . S
Cd18 O27 2.356 . S
C19 O24 1.209 . S
C19 O26 1.226 . S
O20 Cd16 2.273 . S
O20 Cd18 2.411 . S
O20 C23 1.320 . S
O21 Cd18 2.333 . S
O21 C23 1.214 . S
O22 Cd18 2.352 . S
O22 C25 1.258 . S
C23 O20 1.320 . S
C23 O21 1.214 . S
O24 Cd16 2.277 . S
O24 C19 1.209 . S
C25 O22 1.258 . S
C25 O27 1.282 . S
O26 Cd18 2.277 . S
O26 C19 1.226 . S
O27 Cd18 2.356 . S
O27 C25 1.282 . S
C28 O29 1.306 . S
C28 O31 1.160 1_655 S
O29 C28 1.306 . S
O29 Cd30 2.228 . S
Cd30 O29 2.228 . S
Cd30 O34 2.273 . S
Cd30 O38 2.277 . S
O31 C28 1.160 1_455 S
O31 Cd32 2.203 1_455 S
Cd32 O31 2.203 1_655 S
Cd32 O34 2.411 . S
Cd32 O35 2.333 . S
Cd32 O36 2.352 1_655 S
Cd32 O40 2.277 . S
Cd32 O41 2.356 1_655 S
C33 O38 1.209 . S
C33 O40 1.226 . S
O34 Cd30 2.273 . S
O34 Cd32 2.411 . S
O34 C37 1.320 . S
O35 Cd32 2.333 . S
O35 C37 1.214 . S
O36 Cd32 2.352 1_455 S
O36 C39 1.258 . S
C37 O34 1.320 . S
C37 O35 1.214 . S
O38 Cd30 2.277 . S
O38 C33 1.209 . S
C39 O36 1.258 . S
C39 O41 1.282 . S
O40 Cd32 2.277 . S
O40 C33 1.226 . S
O41 Cd32 2.356 1_455 S
O41 C39 1.282 . S
C42 O43 1.306 . S
C42 O45 1.160 1_565 S
O43 C42 1.306 . S
O43 Cd44 2.228 . S
Cd44 O43 2.228 . S
Cd44 O48 2.273 . S
Cd44 O52 2.277 . S
O45 C42 1.160 1_545 S
O45 Cd46 2.203 1_545 S
Cd46 O45 2.203 1_565 S
Cd46 O48 2.411 . S
Cd46 O49 2.333 . S
Cd46 O50 2.352 1_565 S
Cd46 O54 2.277 . S
Cd46 O55 2.356 1_565 S
C47 O52 1.209 . S
C47 O54 1.226 . S
O48 Cd44 2.273 . S
O48 Cd46 2.411 . S
O48 C51 1.320 . S
O49 Cd46 2.333 . S
O49 C51 1.214 . S
O50 Cd46 2.352 1_545 S
O50 C53 1.258 . S
C51 O48 1.320 . S
C51 O49 1.214 . S
O52 Cd44 2.277 . S
O52 C47 1.209 . S
C53 O50 1.258 . S
C53 O55 1.282 . S
O54 Cd46 2.277 . S
O54 C47 1.226 . S
O55 Cd46 2.356 1_545 S
O55 C53 1.282 . S
C56 O57 1.306 . S
C56 O59 1.160 . S
O57 C56 1.306 . S
O57 Cd58 2.228 . S
Cd58 O57 2.228 . S
Cd58 O62 2.273 . S
Cd58 O66 2.277 . S
O59 C56 1.160 . S
O59 Cd60 2.203 . S
Cd60 O59 2.203 . S
Cd60 O62 2.411 . S
Cd60 O63 2.333 . S
Cd60 O64 2.352 . S
Cd60 O68 2.277 . S
Cd60 O69 2.356 . S
C61 O66 1.209 . S
C61 O68 1.226 . S
O62 Cd58 2.273 . S
O62 Cd60 2.411 . S
O62 C65 1.320 . S
O63 Cd60 2.333 . S
O63 C65 1.214 . S
O64 Cd60 2.352 . S
O64 C67 1.258 . S
C65 O62 1.320 . S
C65 O63 1.214 . S
O66 Cd58 2.277 . S
O66 C61 1.209 . S
C67 O64 1.258 . S
C67 O69 1.282 . S
O68 Cd60 2.277 . S
O68 C61 1.226 . S
O69 Cd60 2.356 . S
O69 C67 1.282 . S
C70 O71 1.306 . S
C70 O73 1.160 . S
O71 C70 1.306 . S
O71 Cd72 2.228 . S
Cd72 O71 2.228 . S
Cd72 O76 2.273 . S
Cd72 O80 2.277 . S
O73 C70 1.160 . S
O73 Cd74 2.203 . S
Cd74 O73 2.203 . S
Cd74 O76 2.411 . S
Cd74 O77 2.333 . S
Cd74 O78 2.352 . S
Cd74 O82 2.277 . S
Cd74 O83 2.356 . S
C75 O80 1.209 . S
C75 O82 1.226 . S
O76 Cd72 2.273 . S
O76 Cd74 2.411 . S
O76 C79 1.320 . S
O77 Cd74 2.333 . S
O77 C79 1.214 . S
O78 Cd74 2.352 . S
O78 C81 1.258 . S
C79 O76 1.320 . S
C79 O77 1.214 . S
O80 Cd72 2.277 . S
O80 C75 1.209 . S
C81 O78 1.258 . S
C81 O83 1.282 . S
O82 Cd74 2.277 . S
O82 C75 1.226 . S
O83 Cd74 2.356 . S
O83 C81 1.282 . S
C84 O85 1.306 . S
C84 O87 1.160 1_655 S
O85 C84 1.306 . S
O85 Cd86 2.228 . S
Cd86 O85 2.228 . S
Cd86 O90 2.273 . S
Cd86 O94 2.277 . S
O87 C84 1.160 1_455 S
O87 Cd88 2.203 1_455 S
Cd88 O87 2.203 1_655 S
Cd88 O90 2.411 . S
Cd88 O91 2.333 . S
Cd88 O92 2.352 1_655 S
Cd88 O96 2.277 . S
Cd88 O97 2.356 1_655 S
C89 O94 1.209 . S
C89 O96 1.226 . S
O90 Cd86 2.273 . S
O90 Cd88 2.411 . S
O90 C93 1.320 . S
O91 Cd88 2.333 . S
O91 C93 1.214 . S
O92 Cd88 2.352 1_455 S
O92 C95 1.258 . S
C93 O90 1.320 . S
C93 O91 1.214 . S
O94 Cd86 2.277 . S
O94 C89 1.209 . S
C95 O92 1.258 . S
C95 O97 1.282 . S
O96 Cd88 2.277 . S
O96 C89 1.226 . S
O97 Cd88 2.356 1_455 S
O97 C95 1.282 . S
C98 O99 1.306 . S
C98 O101 1.160 1_565 S
O99 C98 1.306 . S
O99 Cd100 2.228 . S
Cd100 O99 2.228 . S
Cd100 O104 2.273 . S
Cd100 O108 2.277 . S
O101 C98 1.160 1_545 S
O101 Cd102 2.203 1_545 S
Cd102 O101 2.203 1_565 S
Cd102 O104 2.411 . S
Cd102 O105 2.333 . S
Cd102 O106 2.352 1_565 S
Cd102 O110 2.277 . S
Cd102 O111 2.356 1_565 S
C103 O108 1.209 . S
C103 O110 1.226 . S
O104 Cd100 2.273 . S
O104 Cd102 2.411 . S
O104 C107 1.320 . S
O105 Cd102 2.333 . S
O105 C107 1.214 . S
O106 Cd102 2.352 1_545 S
O106 C109 1.258 . S
C107 O104 1.320 . S
C107 O105 1.214 . S
O108 Cd100 2.277 . S
O108 C103 1.209 . S
C109 O106 1.258 . S
C109 O111 1.282 . S
O110 Cd102 2.277 . S
O110 C103 1.226 . S
O111 Cd102 2.356 1_545 S
O111 C109 1.282 . S
C112 O113 1.306 . S
C112 O115 1.160 . S
O113 C112 1.306 . S
O113 Cd114 2.228 . S
Cd114 O113 2.228 . S
Cd114 O118 2.273 . S
Cd114 O122 2.277 . S
O115 C112 1.160 . S
O115 Cd116 2.203 . S
Cd116 O115 2.203 . S
Cd116 O118 2.411 . S
Cd116 O119 2.333 . S
Cd116 O120 2.352 . S
Cd116 O124 2.277 . S
Cd116 O125 2.356 . S
C117 O122 1.209 . S
C117 O124 1.226 . S
O118 Cd114 2.273 . S
O118 Cd116 2.411 . S
O118 C121 1.320 . S
O119 Cd116 2.333 . S
O119 C121 1.214 . S
O120 Cd116 2.352 . S
O120 C123 1.258 . S
C121 O118 1.320 . S
C121 O119 1.214 . S
O122 Cd114 2.277 . S
O122 C117 1.209 . S
C123 O120 1.258 . S
C123 O125 1.282 . S
O124 Cd116 2.277 . S
O124 C117 1.226 . S
O125 Cd116 2.356 . S
O125 C123 1.282 . S
C126 O127 1.306 . S
C126 O129 1.160 . S
O127 C126 1.306 . S
O127 Cd128 2.228 . S
Cd128 O127 2.228 . S
Cd128 O132 2.273 . S
Cd128 O136 2.277 . S
O129 C126 1.160 . S
O129 Cd130 2.203 . S
Cd130 O129 2.203 . S
Cd130 O132 2.411 . S
Cd130 O133 2.333 . S
Cd130 O134 2.352 . S
Cd130 O138 2.277 . S
Cd130 O139 2.356 . S
C131 O136 1.209 . S
C131 O138 1.226 . S
O132 Cd128 2.273 . S
O132 Cd130 2.411 . S
O132 C135 1.320 . S
O133 Cd130 2.333 . S
O133 C135 1.214 . S
O134 Cd130 2.352 . S
O134 C137 1.258 . S
C135 O132 1.320 . S
C135 O133 1.214 . S
O136 Cd128 2.277 . S
O136 C131 1.209 . S
C137 O134 1.258 . S
C137 O139 1.282 . S
O138 Cd130 2.277 . S
O138 C131 1.226 . S
O139 Cd130 2.356 . S
O139 C137 1.282 . S
C140 O141 1.306 . S
C140 O143 1.160 1_455 S
O141 C140 1.306 . S
O141 Cd142 2.228 . S
Cd142 O141 2.228 . S
Cd142 O146 2.273 . S
Cd142 O150 2.277 . S
O143 C140 1.160 1_655 S
O143 Cd144 2.203 1_655 S
Cd144 O143 2.203 1_455 S
Cd144 O146 2.411 . S
Cd144 O147 2.333 . S
Cd144 O148 2.352 1_455 S
Cd144 O152 2.277 . S
Cd144 O153 2.356 1_455 S
C145 O150 1.209 . S
C145 O152 1.226 . S
O146 Cd142 2.273 . S
O146 Cd144 2.411 . S
O146 C149 1.320 . S
O147 Cd144 2.333 . S
O147 C149 1.214 . S
O148 Cd144 2.352 1_655 S
O148 C151 1.258 . S
C149 O146 1.320 . S
C149 O147 1.214 . S
O150 Cd142 2.277 . S
O150 C145 1.209 . S
C151 O148 1.258 . S
C151 O153 1.282 . S
O152 Cd144 2.277 . S
O152 C145 1.226 . S
O153 Cd144 2.356 1_655 S
O153 C151 1.282 . S
C154 O155 1.306 . S
C154 O157 1.160 1_545 S
O155 C154 1.306 . S
O155 Cd156 2.228 . S
Cd156 O155 2.228 . S
Cd156 O160 2.273 . S
Cd156 O164 2.277 . S
O157 C154 1.160 1_565 S
O157 Cd158 2.203 1_565 S
Cd158 O157 2.203 1_545 S
Cd158 O160 2.411 . S
Cd158 O161 2.333 . S
Cd158 O162 2.352 1_545 S
Cd158 O166 2.277 . S
Cd158 O167 2.356 1_545 S
C159 O164 1.209 . S
C159 O166 1.226 . S
O160 Cd156 2.273 . S
O160 Cd158 2.411 . S
O160 C163 1.320 . S
O161 Cd158 2.333 . S
O161 C163 1.214 . S
O162 Cd158 2.352 1_565 S
O162 C165 1.258 . S
C163 O160 1.320 . S
C163 O161 1.214 . S
O164 Cd156 2.277 . S
O164 C159 1.209 . S
C165 O162 1.258 . S
C165 O167 1.282 . S
O166 Cd158 2.277 . S
O166 C159 1.226 . S
O167 Cd158 2.356 1_565 S
O167 C165 1.282 . S
C168 O169 1.306 . S
C168 O171 1.160 . S
O169 C168 1.306 . S
O169 Cd170 2.228 . S
Cd170 O169 2.228 . S
Cd170 O174 2.273 . S
Cd170 O178 2.277 . S
O171 C168 1.160 . S
O171 Cd172 2.203 . S
Cd172 O171 2.203 . S
Cd172 O174 2.411 . S
Cd172 O175 2.333 . S
Cd172 O176 2.352 . S
Cd172 O180 2.277 . S
Cd172 O181 2.356 . S
C173 O178 1.209 . S
C173 O180 1.226 . S
O174 Cd170 2.273 . S
O174 Cd172 2.411 . S
O174 C177 1.320 . S
O175 Cd172 2.333 . S
O175 C177 1.214 . S
O176 Cd172 2.352 . S
O176 C179 1.258 . S
C177 O174 1.320 . S
C177 O175 1.214 . S
O178 Cd170 2.277 . S
O178 C173 1.209 . S
C179 O176 1.258 . S
C179 O181 1.282 . S
O180 Cd172 2.277 . S
O180 C173 1.226 . S
O181 Cd172 2.356 . S
O181 C179 1.282 . S
C182 O183 1.306 . S
C182 O185 1.160 . S
O183 C182 1.306 . S
O183 Cd184 2.228 . S
Cd184 O183 2.228 . S
Cd184 O188 2.273 . S
Cd184 O192 2.277 . S
O185 C182 1.160 . S
O185 Cd186 2.203 . S
Cd186 O185 2.203 . S
Cd186 O188 2.411 . S
Cd186 O189 2.333 . S
Cd186 O190 2.352 . S
Cd186 O194 2.277 . S
Cd186 O195 2.356 . S
C187 O192 1.209 . S
C187 O194 1.226 . S
O188 Cd184 2.273 . S
O188 Cd186 2.411 . S
O188 C191 1.320 . S
O189 Cd186 2.333 . S
O189 C191 1.214 . S
O190 Cd186 2.352 . S
O190 C193 1.258 . S
C191 O188 1.320 . S
C191 O189 1.214 . S
O192 Cd184 2.277 . S
O192 C187 1.209 . S
C193 O190 1.258 . S
C193 O195 1.282 . S
O194 Cd186 2.277 . S
O194 C187 1.226 . S
O195 Cd186 2.356 . S
O195 C193 1.282 . S
C196 O197 1.306 . S
C196 O199 1.160 1_455 S
O197 C196 1.306 . S
O197 Cd198 2.228 . S
Cd198 O197 2.228 . S
Cd198 O202 2.273 . S
Cd198 O206 2.277 . S
O199 C196 1.160 1_655 S
O199 Cd200 2.203 1_655 S
Cd200 O199 2.203 1_455 S
Cd200 O202 2.411 . S
Cd200 O203 2.333 . S
Cd200 O204 2.352 1_455 S
Cd200 O208 2.277 . S
Cd200 O209 2.356 1_455 S
C201 O206 1.209 . S
C201 O208 1.226 . S
O202 Cd198 2.273 . S
O202 Cd200 2.411 . S
O202 C205 1.320 . S
O203 Cd200 2.333 . S
O203 C205 1.214 . S
O204 Cd200 2.352 1_655 S
O204 C207 1.258 . S
C205 O202 1.320 . S
C205 O203 1.214 . S
O206 Cd198 2.277 . S
O206 C201 1.209 . S
C207 O204 1.258 . S
C207 O209 1.282 . S
O208 Cd200 2.277 . S
O208 C201 1.226 . S
O209 Cd200 2.356 1_655 S
O209 C207 1.282 . S
C210 O211 1.306 . S
C210 O213 1.160 1_545 S
O211 C210 1.306 . S
O211 Cd212 2.228 . S
Cd212 O211 2.228 . S
Cd212 O216 2.273 . S
Cd212 O220 2.277 . S
O213 C210 1.160 1_565 S
O213 Cd214 2.203 1_565 S
Cd214 O213 2.203 1_545 S
Cd214 O216 2.411 . S
Cd214 O217 2.333 . S
Cd214 O218 2.352 1_545 S
Cd214 O222 2.277 . S
Cd214 O223 2.356 1_545 S
C215 O220 1.209 . S
C215 O222 1.226 . S
O216 Cd212 2.273 . S
O216 Cd214 2.411 . S
O216 C219 1.320 . S
O217 Cd214 2.333 . S
O217 C219 1.214 . S
O218 Cd214 2.352 1_565 S
O218 C221 1.258 . S
C219 O216 1.320 . S
C219 O217 1.214 . S
O220 Cd212 2.277 . S
O220 C215 1.209 . S
C221 O218 1.258 . S
C221 O223 1.282 . S
O222 Cd214 2.277 . S
O222 C215 1.226 . S
O223 Cd214 2.356 1_565 S
O223 C221 1.282 . S
C11 C109 1.384 . S
C25 C67 1.384 . S
C39 C81 1.384 . S
C53 C95 1.384 . S
C123 C221 1.384 . S
C179 C137 1.384 . S
C151 C193 1.384 . S
C165 C207 1.384 . S
C5 C135 1.553 . S
C19 C149 1.552 . S
C163 C33 1.553 . S
C47 C121 1.553 . S
C61 C219 1.552 . S
C177 C75 1.553 . S
C191 C89 1.553 . S
C205 C103 1.553 . S
C23 C117 1.553 . S
C37 C131 1.552 . S
C145 C51 1.553 . S
C9 C159 1.553 . S
C173 C107 1.552 . S
C187 C65 1.553 . S
C79 C201 1.553 . S
C93 C215 1.553 . S
C0 C56 1.582 1_554 S
C70 C14 1.582 . S
C28 C84 1.582 1_554 S
C98 C42 1.582 . S
C112 C168 1.582 1_556 S
C182 C126 1.582 . S
C196 C140 1.582 1_554 S
C210 C154 1.582 . S
