# Generated by pormake.
# Topology fcn, (5)-cn, num edge types: 1
# Building blocks:
#     Node 0, Type 0, BuildingBlock: XOMCOT_clean_sbu_0, # of connection points: 5
#     Node 1, Type 0, BuildingBlock: XOMCOT_clean_sbu_0, # of connection points: 5
#     Node 2, Type 0, BuildingBlock: XOMCOT_clean_sbu_0, # of connection points: 5
#     Node 3, Type 0, BuildingBlock: XOMCOT_clean_sbu_0, # of connection points: 5
#     Node 4, Type 0, BuildingBlock: XOMCOT_clean_sbu_0, # of connection points: 5
#     Node 5, Type 0, BuildingBlock: XOMCOT_clean_sbu_0, # of connection points: 5
#     Node 6, Type 0, BuildingBlock: XOMCOT_clean_sbu_0, # of connection points: 5
#     Node 7, Type 0, BuildingBlock: XOMCOT_clean_sbu_0, # of connection points: 5
#     Node 8, Type 0, BuildingBlock: XOMCOT_clean_sbu_0, # of connection points: 5
#     Node 9, Type 0, BuildingBlock: XOMCOT_clean_sbu_0, # of connection points: 5
#     Node 10, Type 0, BuildingBlock: XOMCOT_clean_sbu_0, # of connection points: 5
#     Node 11, Type 0, BuildingBlock: XOMCOT_clean_sbu_0, # of connection points: 5
#     Node 12, Type 0, BuildingBlock: XOMCOT_clean_sbu_0, # of connection points: 5
#     Node 13, Type 0, BuildingBlock: XOMCOT_clean_sbu_0, # of connection points: 5
#     Node 14, Type 0, BuildingBlock: XOMCOT_clean_sbu_0, # of connection points: 5
#     Node 15, Type 0, BuildingBlock: XOMCOT_clean_sbu_0, # of connection points: 5
#     Node 16, Type 0, BuildingBlock: XOMCOT_clean_sbu_0, # of connection points: 5
#     Node 17, Type 0, BuildingBlock: XOMCOT_clean_sbu_0, # of connection points: 5
#     Node 18, Type 0, BuildingBlock: XOMCOT_clean_sbu_0, # of connection points: 5
#     Node 19, Type 0, BuildingBlock: XOMCOT_clean_sbu_0, # of connection points: 5
#     Node 20, Type 0, BuildingBlock: XOMCOT_clean_sbu_0, # of connection points: 5
#     Node 21, Type 0, BuildingBlock: XOMCOT_clean_sbu_0, # of connection points: 5
#     Node 22, Type 0, BuildingBlock: XOMCOT_clean_sbu_0, # of connection points: 5
#     Node 23, Type 0, BuildingBlock: XOMCOT_clean_sbu_0, # of connection points: 5
#     Node 24, Type 0, BuildingBlock: XOMCOT_clean_sbu_0, # of connection points: 5
#     Node 25, Type 0, BuildingBlock: XOMCOT_clean_sbu_0, # of connection points: 5
#     Node 26, Type 0, BuildingBlock: XOMCOT_clean_sbu_0, # of connection points: 5
#     Node 27, Type 0, BuildingBlock: XOMCOT_clean_sbu_0, # of connection points: 5
#     Node 28, Type 0, BuildingBlock: XOMCOT_clean_sbu_0, # of connection points: 5
#     Node 29, Type 0, BuildingBlock: XOMCOT_clean_sbu_0, # of connection points: 5
#     Node 30, Type 0, BuildingBlock: XOMCOT_clean_sbu_0, # of connection points: 5
#     Node 31, Type 0, BuildingBlock: XOMCOT_clean_sbu_0, # of connection points: 5
#     Node 32, Type 0, BuildingBlock: XOMCOT_clean_sbu_0, # of connection points: 5
#     Node 33, Type 0, BuildingBlock: XOMCOT_clean_sbu_0, # of connection points: 5
#     Node 34, Type 0, BuildingBlock: XOMCOT_clean_sbu_0, # of connection points: 5
#     Node 35, Type 0, BuildingBlock: XOMCOT_clean_sbu_0, # of connection points: 5
#     Node 36, Type 0, BuildingBlock: XOMCOT_clean_sbu_0, # of connection points: 5
#     Node 37, Type 0, BuildingBlock: XOMCOT_clean_sbu_0, # of connection points: 5
#     Node 38, Type 0, BuildingBlock: XOMCOT_clean_sbu_0, # of connection points: 5
#     Node 39, Type 0, BuildingBlock: XOMCOT_clean_sbu_0, # of connection points: 5
#     Node 40, Type 0, BuildingBlock: XOMCOT_clean_sbu_0, # of connection points: 5
#     Node 41, Type 0, BuildingBlock: XOMCOT_clean_sbu_0, # of connection points: 5
#     Node 42, Type 0, BuildingBlock: XOMCOT_clean_sbu_0, # of connection points: 5
#     Node 43, Type 0, BuildingBlock: XOMCOT_clean_sbu_0, # of connection points: 5
#     Node 44, Type 0, BuildingBlock: XOMCOT_clean_sbu_0, # of connection points: 5
#     Node 45, Type 0, BuildingBlock: XOMCOT_clean_sbu_0, # of connection points: 5
#     Node 46, Type 0, BuildingBlock: XOMCOT_clean_sbu_0, # of connection points: 5
#     Node 47, Type 0, BuildingBlock: XOMCOT_clean_sbu_0, # of connection points: 5
#     Edge 48, Type (0, 0), BuildingBlock: OJICUG_clean_linker_0, # of connection points: 2
#     Edge 49, Type (0, 0), BuildingBlock: OJICUG_clean_linker_0, # of connection points: 2
#     Edge 50, Type (0, 0), BuildingBlock: OJICUG_clean_linker_0, # of connection points: 2
#     Edge 51, Type (0, 0), BuildingBlock: OJICUG_clean_linker_0, # of connection points: 2
#     Edge 52, Type (0, 0), BuildingBlock: OJICUG_clean_linker_0, # of connection points: 2
#     Edge 53, Type (0, 0), BuildingBlock: OJICUG_clean_linker_0, # of connection points: 2
#     Edge 54, Type (0, 0), BuildingBlock: OJICUG_clean_linker_0, # of connection points: 2
#     Edge 55, Type (0, 0), BuildingBlock: OJICUG_clean_linker_0, # of connection points: 2
#     Edge 56, Type (0, 0), BuildingBlock: OJICUG_clean_linker_0, # of connection points: 2
#     Edge 57, Type (0, 0), BuildingBlock: OJICUG_clean_linker_0, # of connection points: 2
#     Edge 58, Type (0, 0), BuildingBlock: OJICUG_clean_linker_0, # of connection points: 2
#     Edge 59, Type (0, 0), BuildingBlock: OJICUG_clean_linker_0, # of connection points: 2
#     Edge 60, Type (0, 0), BuildingBlock: OJICUG_clean_linker_0, # of connection points: 2
#     Edge 61, Type (0, 0), BuildingBlock: OJICUG_clean_linker_0, # of connection points: 2
#     Edge 62, Type (0, 0), BuildingBlock: OJICUG_clean_linker_0, # of connection points: 2
#     Edge 63, Type (0, 0), BuildingBlock: OJICUG_clean_linker_0, # of connection points: 2
#     Edge 64, Type (0, 0), BuildingBlock: OJICUG_clean_linker_0, # of connection points: 2
#     Edge 65, Type (0, 0), BuildingBlock: OJICUG_clean_linker_0, # of connection points: 2
#     Edge 66, Type (0, 0), BuildingBlock: OJICUG_clean_linker_0, # of connection points: 2
#     Edge 67, Type (0, 0), BuildingBlock: OJICUG_clean_linker_0, # of connection points: 2
#     Edge 68, Type (0, 0), BuildingBlock: OJICUG_clean_linker_0, # of connection points: 2
#     Edge 69, Type (0, 0), BuildingBlock: OJICUG_clean_linker_0, # of connection points: 2
#     Edge 70, Type (0, 0), BuildingBlock: OJICUG_clean_linker_0, # of connection points: 2
#     Edge 71, Type (0, 0), BuildingBlock: OJICUG_clean_linker_0, # of connection points: 2
#     Edge 72, Type (0, 0), BuildingBlock: OJICUG_clean_linker_0, # of connection points: 2
#     Edge 73, Type (0, 0), BuildingBlock: OJICUG_clean_linker_0, # of connection points: 2
#     Edge 74, Type (0, 0), BuildingBlock: OJICUG_clean_linker_0, # of connection points: 2
#     Edge 75, Type (0, 0), BuildingBlock: OJICUG_clean_linker_0, # of connection points: 2
#     Edge 76, Type (0, 0), BuildingBlock: OJICUG_clean_linker_0, # of connection points: 2
#     Edge 77, Type (0, 0), BuildingBlock: OJICUG_clean_linker_0, # of connection points: 2
#     Edge 78, Type (0, 0), BuildingBlock: OJICUG_clean_linker_0, # of connection points: 2
#     Edge 79, Type (0, 0), BuildingBlock: OJICUG_clean_linker_0, # of connection points: 2
#     Edge 80, Type (0, 0), BuildingBlock: OJICUG_clean_linker_0, # of connection points: 2
#     Edge 81, Type (0, 0), BuildingBlock: OJICUG_clean_linker_0, # of connection points: 2
#     Edge 82, Type (0, 0), BuildingBlock: OJICUG_clean_linker_0, # of connection points: 2
#     Edge 83, Type (0, 0), BuildingBlock: OJICUG_clean_linker_0, # of connection points: 2
#     Edge 84, Type (0, 0), BuildingBlock: OJICUG_clean_linker_0, # of connection points: 2
#     Edge 85, Type (0, 0), BuildingBlock: OJICUG_clean_linker_0, # of connection points: 2
#     Edge 86, Type (0, 0), BuildingBlock: OJICUG_clean_linker_0, # of connection points: 2
#     Edge 87, Type (0, 0), BuildingBlock: OJICUG_clean_linker_0, # of connection points: 2
#     Edge 88, Type (0, 0), BuildingBlock: OJICUG_clean_linker_0, # of connection points: 2
#     Edge 89, Type (0, 0), BuildingBlock: OJICUG_clean_linker_0, # of connection points: 2
#     Edge 90, Type (0, 0), BuildingBlock: OJICUG_clean_linker_0, # of connection points: 2
#     Edge 91, Type (0, 0), BuildingBlock: OJICUG_clean_linker_0, # of connection points: 2
#     Edge 92, Type (0, 0), BuildingBlock: OJICUG_clean_linker_0, # of connection points: 2
#     Edge 93, Type (0, 0), BuildingBlock: OJICUG_clean_linker_0, # of connection points: 2
#     Edge 94, Type (0, 0), BuildingBlock: OJICUG_clean_linker_0, # of connection points: 2
#     Edge 95, Type (0, 0), BuildingBlock: OJICUG_clean_linker_0, # of connection points: 2
#     Edge 96, Type (0, 0), BuildingBlock: OJICUG_clean_linker_0, # of connection points: 2
#     Edge 97, Type (0, 0), BuildingBlock: OJICUG_clean_linker_0, # of connection points: 2
#     Edge 98, Type (0, 0), BuildingBlock: OJICUG_clean_linker_0, # of connection points: 2
#     Edge 99, Type (0, 0), BuildingBlock: OJICUG_clean_linker_0, # of connection points: 2
#     Edge 100, Type (0, 0), BuildingBlock: OJICUG_clean_linker_0, # of connection points: 2
#     Edge 101, Type (0, 0), BuildingBlock: OJICUG_clean_linker_0, # of connection points: 2
#     Edge 102, Type (0, 0), BuildingBlock: OJICUG_clean_linker_0, # of connection points: 2
#     Edge 103, Type (0, 0), BuildingBlock: OJICUG_clean_linker_0, # of connection points: 2
#     Edge 104, Type (0, 0), BuildingBlock: OJICUG_clean_linker_0, # of connection points: 2
#     Edge 105, Type (0, 0), BuildingBlock: OJICUG_clean_linker_0, # of connection points: 2
#     Edge 106, Type (0, 0), BuildingBlock: OJICUG_clean_linker_0, # of connection points: 2
#     Edge 107, Type (0, 0), BuildingBlock: OJICUG_clean_linker_0, # of connection points: 2
#     Edge 108, Type (0, 0), BuildingBlock: OJICUG_clean_linker_0, # of connection points: 2
#     Edge 109, Type (0, 0), BuildingBlock: OJICUG_clean_linker_0, # of connection points: 2
#     Edge 110, Type (0, 0), BuildingBlock: OJICUG_clean_linker_0, # of connection points: 2
#     Edge 111, Type (0, 0), BuildingBlock: OJICUG_clean_linker_0, # of connection points: 2
#     Edge 112, Type (0, 0), BuildingBlock: OJICUG_clean_linker_0, # of connection points: 2
#     Edge 113, Type (0, 0), BuildingBlock: OJICUG_clean_linker_0, # of connection points: 2
#     Edge 114, Type (0, 0), BuildingBlock: OJICUG_clean_linker_0, # of connection points: 2
#     Edge 115, Type (0, 0), BuildingBlock: OJICUG_clean_linker_0, # of connection points: 2
#     Edge 116, Type (0, 0), BuildingBlock: OJICUG_clean_linker_0, # of connection points: 2
#     Edge 117, Type (0, 0), BuildingBlock: OJICUG_clean_linker_0, # of connection points: 2
#     Edge 118, Type (0, 0), BuildingBlock: OJICUG_clean_linker_0, # of connection points: 2
#     Edge 119, Type (0, 0), BuildingBlock: OJICUG_clean_linker_0, # of connection points: 2
#     Edge 120, Type (0, 0), BuildingBlock: OJICUG_clean_linker_0, # of connection points: 2
#     Edge 121, Type (0, 0), BuildingBlock: OJICUG_clean_linker_0, # of connection points: 2
#     Edge 122, Type (0, 0), BuildingBlock: OJICUG_clean_linker_0, # of connection points: 2
#     Edge 123, Type (0, 0), BuildingBlock: OJICUG_clean_linker_0, # of connection points: 2
#     Edge 124, Type (0, 0), BuildingBlock: OJICUG_clean_linker_0, # of connection points: 2
#     Edge 125, Type (0, 0), BuildingBlock: OJICUG_clean_linker_0, # of connection points: 2
#     Edge 126, Type (0, 0), BuildingBlock: OJICUG_clean_linker_0, # of connection points: 2
#     Edge 127, Type (0, 0), BuildingBlock: OJICUG_clean_linker_0, # of connection points: 2
#     Edge 128, Type (0, 0), BuildingBlock: OJICUG_clean_linker_0, # of connection points: 2
#     Edge 129, Type (0, 0), BuildingBlock: OJICUG_clean_linker_0, # of connection points: 2
#     Edge 130, Type (0, 0), BuildingBlock: OJICUG_clean_linker_0, # of connection points: 2
#     Edge 131, Type (0, 0), BuildingBlock: OJICUG_clean_linker_0, # of connection points: 2
#     Edge 132, Type (0, 0), BuildingBlock: OJICUG_clean_linker_0, # of connection points: 2
#     Edge 133, Type (0, 0), BuildingBlock: OJICUG_clean_linker_0, # of connection points: 2
#     Edge 134, Type (0, 0), BuildingBlock: OJICUG_clean_linker_0, # of connection points: 2
#     Edge 135, Type (0, 0), BuildingBlock: OJICUG_clean_linker_0, # of connection points: 2
#     Edge 136, Type (0, 0), BuildingBlock: OJICUG_clean_linker_0, # of connection points: 2
#     Edge 137, Type (0, 0), BuildingBlock: OJICUG_clean_linker_0, # of connection points: 2
#     Edge 138, Type (0, 0), BuildingBlock: OJICUG_clean_linker_0, # of connection points: 2
#     Edge 139, Type (0, 0), BuildingBlock: OJICUG_clean_linker_0, # of connection points: 2
#     Edge 140, Type (0, 0), BuildingBlock: OJICUG_clean_linker_0, # of connection points: 2
#     Edge 141, Type (0, 0), BuildingBlock: OJICUG_clean_linker_0, # of connection points: 2
#     Edge 142, Type (0, 0), BuildingBlock: OJICUG_clean_linker_0, # of connection points: 2
#     Edge 143, Type (0, 0), BuildingBlock: OJICUG_clean_linker_0, # of connection points: 2
#     Edge 144, Type (0, 0), BuildingBlock: OJICUG_clean_linker_0, # of connection points: 2
#     Edge 145, Type (0, 0), BuildingBlock: OJICUG_clean_linker_0, # of connection points: 2
#     Edge 146, Type (0, 0), BuildingBlock: OJICUG_clean_linker_0, # of connection points: 2
#     Edge 147, Type (0, 0), BuildingBlock: OJICUG_clean_linker_0, # of connection points: 2
#     Edge 148, Type (0, 0), BuildingBlock: OJICUG_clean_linker_0, # of connection points: 2
#     Edge 149, Type (0, 0), BuildingBlock: OJICUG_clean_linker_0, # of connection points: 2
#     Edge 150, Type (0, 0), BuildingBlock: OJICUG_clean_linker_0, # of connection points: 2
#     Edge 151, Type (0, 0), BuildingBlock: OJICUG_clean_linker_0, # of connection points: 2
#     Edge 152, Type (0, 0), BuildingBlock: OJICUG_clean_linker_0, # of connection points: 2
#     Edge 153, Type (0, 0), BuildingBlock: OJICUG_clean_linker_0, # of connection points: 2
#     Edge 154, Type (0, 0), BuildingBlock: OJICUG_clean_linker_0, # of connection points: 2
#     Edge 155, Type (0, 0), BuildingBlock: OJICUG_clean_linker_0, # of connection points: 2
#     Edge 156, Type (0, 0), BuildingBlock: OJICUG_clean_linker_0, # of connection points: 2
#     Edge 157, Type (0, 0), BuildingBlock: OJICUG_clean_linker_0, # of connection points: 2
#     Edge 158, Type (0, 0), BuildingBlock: OJICUG_clean_linker_0, # of connection points: 2
#     Edge 159, Type (0, 0), BuildingBlock: OJICUG_clean_linker_0, # of connection points: 2
#     Edge 160, Type (0, 0), BuildingBlock: OJICUG_clean_linker_0, # of connection points: 2
#     Edge 161, Type (0, 0), BuildingBlock: OJICUG_clean_linker_0, # of connection points: 2
#     Edge 162, Type (0, 0), BuildingBlock: OJICUG_clean_linker_0, # of connection points: 2
#     Edge 163, Type (0, 0), BuildingBlock: OJICUG_clean_linker_0, # of connection points: 2
#     Edge 164, Type (0, 0), BuildingBlock: OJICUG_clean_linker_0, # of connection points: 2
#     Edge 165, Type (0, 0), BuildingBlock: OJICUG_clean_linker_0, # of connection points: 2
#     Edge 166, Type (0, 0), BuildingBlock: OJICUG_clean_linker_0, # of connection points: 2
#     Edge 167, Type (0, 0), BuildingBlock: OJICUG_clean_linker_0, # of connection points: 2
# Relax obj value: 0.236
# Max RMSD: 0.214
# Mean RMSD: 0.214
data_MOF--net-fcn--node1-XOMCOT_clean_sbu_0--edge1-OJICUG_clean_linker_0
_symmetry_space_group_name_H-M    P1
_symmetry_Int_Tables_number       1
_symmetry_cell_setting            triclinic
loop_
_symmetry_equiv_pos_as_xyz
'x, y, z'
_cell_length_a     57.748586
_cell_length_b     57.750611
_cell_length_c     57.751401
_cell_angle_alpha  90.011435
_cell_angle_beta   89.995582
_cell_angle_gamma 89.984459
loop_
_atom_site_label
_atom_site_type_symbol
_atom_site_fract_x
_atom_site_fract_y
_atom_site_fract_z
_atom_type_partial_charge
Co0 Co 0.08697 0.18037 0.25596 0.0
C1 C 0.12727 0.15487 0.23749 0.0
C2 C 0.0982 0.13221 0.24184 0.0
C3 C 0.11727 0.11916 0.23591 0.0
N4 N 0.10446 0.15469 0.24291 0.0
N5 N 0.13558 0.13346 0.23343 0.0
H6 H 0.13811 0.17009 0.2382 0.0
H7 H 0.08136 0.1254 0.24621 0.0
C8 C 0.0369 0.1625 0.26035 0.0
O9 O 0.02922 0.18039 0.272 0.0
N10 N 0.07108 0.20663 0.26927 0.0
C11 C 0.07785 0.21802 0.28849 0.0
C12 C 0.06283 0.23596 0.29247 0.0
C13 C 0.05301 0.21882 0.2609 0.0
N14 N 0.04698 0.2362 0.27535 0.0
C15 C 0.11872 0.1669 0.29237 0.0
C16 C 0.08451 0.15265 0.32274 0.0
C17 C 0.10756 0.14721 0.32776 0.0
C18 C 0.12493 0.15532 0.31278 0.0
C19 C 0.07912 0.16414 0.30227 0.0
N20 N 0.09596 0.17002 0.28677 0.0
H21 H 0.13213 0.17253 0.28064 0.0
H22 H 0.06125 0.16789 0.2988 0.0
H23 H 0.0926 0.21351 0.2991 0.0
H24 H 0.04351 0.21405 0.24546 0.0
O25 O 0.11198 0.20159 0.24735 0.0
O26 O 0.08164 0.19233 0.22571 0.0
O27 O 0.05848 0.1598 0.25602 0.0
C28 C 0.10081 0.2037 0.22773 0.0
H29 H 0.1177 0.10051 0.23423 0.0
H30 H 0.06317 0.24756 0.3072 0.0
H31 H 0.07063 0.14745 0.33423 0.0
H32 H 0.14302 0.15172 0.31617 0.0
Co33 Co 0.07298 0.84087 0.50514 0.0
C34 C 0.09956 0.8818 0.49142 0.0
C35 C 0.11361 0.85115 0.47563 0.0
C36 C 0.1264 0.87003 0.46853 0.0
N37 N 0.09688 0.85862 0.49003 0.0
N38 N 0.11745 0.88925 0.47842 0.0
H39 H 0.08864 0.89299 0.50176 0.0
H40 H 0.11615 0.83336 0.47035 0.0
C41 C 0.09501 0.79364 0.51353 0.0
O42 O 0.08761 0.79201 0.53497 0.0
N43 N 0.04854 0.82357 0.52015 0.0
C44 C 0.0342 0.83071 0.53718 0.0
C45 C 0.01839 0.81355 0.54165 0.0
C46 C 0.04054 0.80254 0.51384 0.0
N47 N 0.02243 0.79589 0.52699 0.0
C48 C 0.07719 0.8644 0.54942 0.0
C49 C 0.11924 0.84464 0.56085 0.0
C50 C 0.1083 0.85883 0.57716 0.0
C51 C 0.0872 0.86929 0.57101 0.0
C52 C 0.10872 0.84036 0.53964 0.0
N53 N 0.08722 0.84887 0.53468 0.0
H54 H 0.06163 0.87344 0.54438 0.0
H55 H 0.11839 0.83066 0.52698 0.0
H56 H 0.03432 0.84742 0.54537 0.0
H57 H 0.04788 0.79227 0.49999 0.0
O58 O 0.05161 0.8667 0.49973 0.0
O59 O 0.05761 0.83677 0.47644 0.0
O60 O 0.0918 0.81191 0.50155 0.0
C61 C 0.04719 0.85621 0.48013 0.0
H62 H 0.14078 0.86972 0.45651 0.0
H63 H 0.0046 0.81423 0.55434 0.0
H64 H 0.13631 0.83754 0.56402 0.0
H65 H 0.07863 0.88127 0.58261 0.0
Co66 Co 0.41456 0.82257 0.74777 0.0
C67 C 0.37305 0.84801 0.73416 0.0
C68 C 0.40305 0.86243 0.71746 0.0
C69 C 0.38383 0.87516 0.71115 0.0
N70 N 0.39618 0.84556 0.73201 0.0
N71 N 0.36507 0.86594 0.72163 0.0
H72 H 0.36234 0.83717 0.74507 0.0
H73 H 0.42071 0.86538 0.71196 0.0
C74 C 0.4589 0.84874 0.75854 0.0
O75 O 0.45817 0.84341 0.78064 0.0
N76 N 0.43246 0.79879 0.76332 0.0
C77 C 0.42416 0.78131 0.77646 0.0
C78 C 0.44204 0.7668 0.78232 0.0
C79 C 0.4551 0.79376 0.76022 0.0
N80 N 0.46141 0.77467 0.77207 0.0
C81 C 0.39417 0.82586 0.7941 0.0
C82 C 0.40518 0.87206 0.79981 0.0
C83 C 0.39515 0.86022 0.81845 0.0
C84 C 0.38914 0.83685 0.81519 0.0
C85 C 0.41011 0.86041 0.77933 0.0
N86 N 0.40579 0.83727 0.77698 0.0
H87 H 0.38818 0.80845 0.7915 0.0
H88 H 0.41738 0.87023 0.7652 0.0
H89 H 0.40618 0.77812 0.78028 0.0
H90 H 0.46666 0.80343 0.74912 0.0
O91 O 0.38932 0.80058 0.74251 0.0
O92 O 0.41937 0.80674 0.71937 0.0
O93 O 0.4429 0.84249 0.74465 0.0
C94 C 0.40004 0.79607 0.72305 0.0
H95 H 0.38359 0.8899 0.69957 0.0
H96 H 0.44074 0.75105 0.7924 0.0
H97 H 0.40887 0.89042 0.80075 0.0
H98 H 0.38061 0.82709 0.82873 0.0
Co99 Co 0.42465 0.15754 0.00475 0.0
C100 C 0.39953 0.11653 0.98922 0.0
C101 C 0.38505 0.14722 0.9739 0.0
C102 C 0.37252 0.12828 0.96651 0.0
N103 N 0.40186 0.13974 0.98821 0.0
N104 N 0.38176 0.10908 0.97614 0.0
H105 H 0.41039 0.10535 0.99963 0.0
H106 H 0.38208 0.16509 0.96915 0.0
C107 C 0.4016 0.20408 0.01365 0.0
O108 O 0.40844 0.20529 0.03531 0.0
N109 N 0.44792 0.17499 0.02125 0.0
C110 C 0.46102 0.16833 0.03941 0.0
C111 C 0.4763 0.18578 0.04465 0.0
C112 C 0.45604 0.19603 0.01518 0.0
N113 N 0.47309 0.20316 0.02943 0.0
C114 C 0.41892 0.13185 0.04765 0.0
C115 C 0.37614 0.15055 0.05822 0.0
C116 C 0.38636 0.13535 0.07404 0.0
C117 C 0.40782 0.12542 0.06831 0.0
C118 C 0.38762 0.15622 0.03786 0.0
N119 N 0.40941 0.14816 0.03341 0.0
H120 H 0.43495 0.12346 0.04293 0.0
H121 H 0.37839 0.16655 0.0254 0.0
H122 H 0.46031 0.15182 0.04799 0.0
H123 H 0.44943 0.20597 0.00074 0.0
O124 O 0.44691 0.13244 0.99936 0.0
O125 O 0.44104 0.16295 0.97682 0.0
O126 O 0.40529 0.18612 0.00134 0.0
C127 C 0.45183 0.14368 0.9803 0.0
H128 H 0.35796 0.12855 0.95471 0.0
H129 H 0.48916 0.18548 0.05828 0.0
H130 H 0.35891 0.15741 0.06113 0.0
H131 H 0.41586 0.11277 0.07958 0.0
Co132 Co 0.09042 0.82237 0.24008 0.0
C133 C 0.13288 0.84423 0.2591 0.0
C134 C 0.10795 0.86946 0.24821 0.0
C135 C 0.12829 0.88064 0.25332 0.0
N136 N 0.11065 0.84655 0.25194 0.0
N137 N 0.14408 0.86474 0.25986 0.0
H138 H 0.14138 0.82779 0.26183 0.0
H139 H 0.09301 0.87748 0.24036 0.0
C140 C 0.04281 0.84617 0.23524 0.0
O141 O 0.03285 0.82916 0.22398 0.0
N142 N 0.07142 0.79774 0.22757 0.0
C143 C 0.07648 0.78556 0.2083 0.0
C144 C 0.05968 0.76917 0.20488 0.0
C145 C 0.05224 0.78763 0.23639 0.0
N146 N 0.04434 0.77062 0.22239 0.0
C147 C 0.12385 0.82985 0.20384 0.0
C148 C 0.09295 0.84959 0.173 0.0
C149 C 0.11671 0.85105 0.16818 0.0
C150 C 0.13219 0.84012 0.18351 0.0
C151 C 0.0854 0.8391 0.19337 0.0
N152 N 0.10082 0.83048 0.20906 0.0
H153 H 0.13598 0.82236 0.21596 0.0
H154 H 0.06711 0.83864 0.19678 0.0
H155 H 0.0914 0.78833 0.19735 0.0
H156 H 0.04362 0.79336 0.25203 0.0
O157 O 0.11286 0.79873 0.24975 0.0
O158 O 0.08375 0.81225 0.27075 0.0
O159 O 0.06458 0.84602 0.23935 0.0
C160 C 0.10147 0.79864 0.26936 0.0
H161 H 0.13141 0.89901 0.2514 0.0
H162 H 0.05865 0.75723 0.19046 0.0
H163 H 0.08021 0.85762 0.16185 0.0
H164 H 0.15065 0.84016 0.18027 0.0
Co165 Co 0.43182 0.83985 0.49615 0.0
C166 C 0.40713 0.88089 0.5121 0.0
C167 C 0.3922 0.85023 0.52708 0.0
C168 C 0.3793 0.86918 0.53383 0.0
N169 N 0.40952 0.8577 0.51336 0.0
N170 N 0.38885 0.88832 0.52443 0.0
H171 H 0.41798 0.89203 0.50165 0.0
H172 H 0.38884 0.83235 0.53146 0.0
C173 C 0.40835 0.7937 0.48741 0.0
O174 O 0.41466 0.79334 0.46556 0.0
N175 N 0.45451 0.82232 0.47885 0.0
C176 C 0.46514 0.82757 0.4587 0.0
C177 C 0.47991 0.8098 0.45293 0.0
C178 C 0.46353 0.80182 0.48539 0.0
N179 N 0.47884 0.79372 0.46975 0.0
C180 C 0.42434 0.86575 0.45377 0.0
C181 C 0.38118 0.84722 0.44463 0.0
C182 C 0.39078 0.86269 0.42872 0.0
C183 C 0.4124 0.87258 0.43373 0.0
C184 C 0.39344 0.84125 0.46445 0.0
N185 N 0.41545 0.84915 0.46809 0.0
H186 H 0.44066 0.87393 0.45788 0.0
H187 H 0.38468 0.83083 0.47716 0.0
H188 H 0.46283 0.84312 0.44873 0.0
H189 H 0.45851 0.79271 0.50098 0.0
O190 O 0.45387 0.86521 0.50027 0.0
O191 O 0.44945 0.83501 0.52358 0.0
O192 O 0.41268 0.81111 0.50031 0.0
C193 C 0.45961 0.85451 0.51937 0.0
H194 H 0.36402 0.86894 0.5447 0.0
H195 H 0.49075 0.80884 0.43766 0.0
H196 H 0.36387 0.84037 0.44222 0.0
H197 H 0.41996 0.88541 0.42234 0.0
Co198 Co 0.40894 0.17903 0.74504 0.0
C199 C 0.36804 0.15383 0.76072 0.0
C200 C 0.39878 0.13995 0.77653 0.0
C201 C 0.37994 0.12727 0.7839 0.0
N202 N 0.39121 0.15645 0.76191 0.0
N203 N 0.36072 0.13614 0.77397 0.0
H204 H 0.35683 0.16434 0.74999 0.0
H205 H 0.41665 0.13722 0.78143 0.0
C206 C 0.45569 0.15586 0.73691 0.0
O207 O 0.45748 0.16269 0.71529 0.0
N208 N 0.42637 0.20203 0.72815 0.0
C209 C 0.42046 0.21374 0.70881 0.0
C210 C 0.43799 0.22887 0.70335 0.0
C211 C 0.44702 0.21077 0.73458 0.0
N212 N 0.4546 0.22694 0.71959 0.0
C213 C 0.38271 0.17267 0.70267 0.0
C214 C 0.40207 0.1303 0.69165 0.0
C215 C 0.38634 0.14024 0.67617 0.0
C216 C 0.37609 0.16148 0.68213 0.0
C217 C 0.40789 0.14186 0.71194 0.0
N218 N 0.39946 0.16347 0.7166 0.0
H219 H 0.37428 0.18867 0.70746 0.0
H220 H 0.41863 0.13281 0.72417 0.0
H221 H 0.40451 0.21206 0.69936 0.0
H222 H 0.45648 0.20509 0.74973 0.0
O223 O 0.38381 0.20129 0.75023 0.0
O224 O 0.41435 0.19578 0.77278 0.0
O225 O 0.43747 0.15968 0.74877 0.0
C226 C 0.39497 0.20637 0.76929 0.0
H227 H 0.38028 0.11278 0.79579 0.0
H228 H 0.43834 0.24067 0.68878 0.0
H229 H 0.40922 0.11323 0.68856 0.0
H230 H 0.3631 0.1693 0.6711 0.0
Co231 Co 0.07502 0.16313 0.99955 0.0
C232 C 0.10052 0.12217 0.01467 0.0
C233 C 0.11412 0.15277 0.03099 0.0
C234 C 0.12662 0.13384 0.03846 0.0
N235 N 0.09792 0.14534 0.01598 0.0
N236 N 0.11793 0.11469 0.02822 0.0
H237 H 0.09006 0.11107 0.00377 0.0
H238 H 0.11663 0.17058 0.03619 0.0
C239 C 0.10053 0.20772 0.98809 0.0
O240 O 0.09475 0.20719 0.96611 0.0
N241 N 0.05141 0.18065 0.98339 0.0
C242 C 0.03489 0.17247 0.96903 0.0
C243 C 0.01996 0.19012 0.9635 0.0
C244 C 0.04548 0.20293 0.98736 0.0
N245 N 0.02664 0.2092 0.97507 0.0
C246 C 0.07864 0.1396 0.95476 0.0
C247 C 0.1241 0.15239 0.94724 0.0
C248 C 0.11243 0.14055 0.92955 0.0
C249 C 0.08946 0.13361 0.9338 0.0
C250 C 0.11256 0.15829 0.96756 0.0
N251 N 0.08968 0.15317 0.97066 0.0
H252 H 0.06168 0.13279 0.95833 0.0
H253 H 0.12235 0.16675 0.98103 0.0
H254 H 0.03255 0.15467 0.96405 0.0
H255 H 0.0544 0.21422 0.99935 0.0
O256 O 0.0528 0.13828 0.00579 0.0
O257 O 0.05928 0.1691 0.02775 0.0
O258 O 0.09497 0.19142 0.00189 0.0
C259 C 0.04847 0.14972 0.02489 0.0
H260 H 0.14078 0.13407 0.05075 0.0
H261 H 0.00471 0.18878 0.95268 0.0
H262 H 0.14225 0.1568 0.94572 0.0
H263 H 0.07987 0.12365 0.92116 0.0
Co264 Co 0.2493 0.0868 0.17939 0.0
C265 C 0.23513 0.12672 0.15204 0.0
C266 C 0.21899 0.09587 0.13889 0.0
C267 C 0.21189 0.11453 0.12572 0.0
N268 N 0.23359 0.10366 0.15529 0.0
N269 N 0.22202 0.13387 0.13415 0.0
H270 H 0.24578 0.13805 0.1625 0.0
H271 H 0.2137 0.07803 0.13677 0.0
C272 C 0.25913 0.03919 0.15959 0.0
O273 O 0.27964 0.03799 0.16931 0.0
N274 N 0.26511 0.07056 0.20409 0.0
C275 C 0.28388 0.07735 0.21623 0.0
C276 C 0.28944 0.06039 0.23193 0.0
C277 C 0.25893 0.05002 0.21333 0.0
N278 N 0.27384 0.04318 0.22996 0.0
C279 C 0.29186 0.11292 0.17341 0.0
C280 C 0.30443 0.09185 0.13232 0.0
C281 C 0.31925 0.10845 0.14182 0.0
C282 C 0.31255 0.11946 0.16245 0.0
C283 C 0.28397 0.08612 0.14361 0.0
N284 N 0.27846 0.09551 0.16462 0.0
H285 H 0.28641 0.12209 0.18878 0.0
H286 H 0.27222 0.07479 0.13465 0.0
H287 H 0.29301 0.09345 0.21426 0.0
H288 H 0.24435 0.03988 0.20735 0.0
O289 O 0.24342 0.11297 0.20012 0.0
O290 O 0.22075 0.08236 0.19522 0.0
O291 O 0.2466 0.05733 0.16105 0.0
C292 C 0.22408 0.10222 0.20498 0.0
H293 H 0.19983 0.11399 0.11138 0.0
H294 H 0.30387 0.06069 0.2439 0.0
H295 H 0.30807 0.08402 0.11566 0.0
H296 H 0.32304 0.13309 0.16991 0.0
Co297 Co 0.15838 0.00878 0.42717 0.0
C298 C 0.11592 0.99059 0.40462 0.0
C299 C 0.14115 0.00166 0.37978 0.0
C300 C 0.12077 0.99715 0.36838 0.0
N301 N 0.13828 0.99746 0.40257 0.0
N302 N 0.10477 0.99053 0.38405 0.0
H303 H 0.1073 0.98769 0.42096 0.0
H304 H 0.1562 0.00954 0.37203 0.0
C305 C 0.20614 0.01463 0.40377 0.0
O306 O 0.21578 0.02601 0.4209 0.0
N307 N 0.17716 0.02075 0.45219 0.0
C308 C 0.17183 0.0396 0.4649 0.0
C309 C 0.1888 0.04302 0.48111 0.0
C310 C 0.19664 0.0121 0.46183 0.0
N311 N 0.2045 0.02591 0.479 0.0
C312 C 0.12509 0.04509 0.4196 0.0
C313 C 0.15642 0.07598 0.40064 0.0
C314 C 0.1327 0.08043 0.39812 0.0
C315 C 0.11696 0.06521 0.40881 0.0
C316 C 0.16374 0.05579 0.4116 0.0
N317 N 0.14814 0.03997 0.4196 0.0
H318 H 0.1128 0.03295 0.42677 0.0
H319 H 0.18201 0.05256 0.41275 0.0
H320 H 0.15668 0.05034 0.46249 0.0
H321 H 0.20557 0.99686 0.45553 0.0
O322 O 0.13574 0.99873 0.4504 0.0
O323 O 0.16491 0.97791 0.43671 0.0
O324 O 0.18448 0.00997 0.40379 0.0
C325 C 0.14706 0.97907 0.45017 0.0
H326 H 0.11778 0.99961 0.35006 0.0
H327 H 0.18975 0.05724 0.4933 0.0
H328 H 0.16934 0.08715 0.39293 0.0
H329 H 0.09848 0.06829 0.40803 0.0
Co330 Co 0.24696 0.91069 0.67478 0.0
C331 C 0.26059 0.86956 0.64835 0.0
C332 C 0.27455 0.90038 0.63282 0.0
C333 C 0.28101 0.88151 0.61967 0.0
N334 N 0.26166 0.8928 0.65069 0.0
N335 N 0.27223 0.86219 0.62951 0.0
H336 H 0.25121 0.85832 0.66005 0.0
H337 H 0.27903 0.91827 0.62959 0.0
C338 C 0.23509 0.95719 0.6523 0.0
O339 O 0.21731 0.96144 0.6658 0.0
N340 N 0.23219 0.92813 0.69942 0.0
C341 C 0.21307 0.92251 0.71164 0.0
C342 C 0.20806 0.94015 0.72675 0.0
C343 C 0.23908 0.94877 0.70805 0.0
N344 N 0.22433 0.95666 0.72438 0.0
C345 C 0.20533 0.88216 0.67332 0.0
C346 C 0.18848 0.90147 0.63292 0.0
C347 C 0.17509 0.88485 0.64423 0.0
C348 C 0.18397 0.87456 0.66439 0.0
C349 C 0.2096 0.90815 0.6421 0.0
N350 N 0.21723 0.89975 0.66287 0.0
H351 H 0.21228 0.87399 0.68867 0.0
H352 H 0.22003 0.91939 0.63161 0.0
H353 H 0.20316 0.90685 0.71 0.0
H354 H 0.25387 0.95834 0.70165 0.0
O355 O 0.2558 0.88647 0.69685 0.0
O356 O 0.27638 0.91754 0.68785 0.0
O357 O 0.24682 0.93851 0.65395 0.0
C358 C 0.275 0.8983 0.69918 0.0
H359 H 0.29169 0.88194 0.60427 0.0
H360 H 0.19348 0.94089 0.73852 0.0
H361 H 0.18313 0.90865 0.61642 0.0
H362 H 0.17458 0.86085 0.67308 0.0
Co363 Co 0.33919 0.99095 0.92503 0.0
C364 C 0.38078 0.00799 0.90078 0.0
C365 C 0.3508 0.01115 0.87907 0.0
C366 C 0.37004 0.01783 0.86664 0.0
N367 N 0.35756 0.00482 0.9005 0.0
N368 N 0.38888 0.01571 0.88031 0.0
H369 H 0.39175 0.00401 0.91541 0.0
H370 H 0.33326 0.01066 0.87261 0.0
C371 C 0.29016 0.98559 0.90601 0.0
O372 O 0.28309 0.97228 0.92297 0.0
N373 N 0.32213 0.97684 0.95022 0.0
C374 C 0.32637 0.95598 0.95984 0.0
C375 C 0.31024 0.95193 0.97682 0.0
C376 C 0.30432 0.98578 0.96247 0.0
N377 N 0.29626 0.97055 0.97825 0.0
C378 C 0.37277 0.95476 0.91717 0.0
C379 C 0.34341 0.92627 0.89232 0.0
C380 C 0.36709 0.92095 0.89272 0.0
C381 C 0.38171 0.93503 0.9062 0.0
C382 C 0.33524 0.94592 0.90362 0.0
N383 N 0.35 0.96062 0.91479 0.0
H384 H 0.38431 0.96577 0.92691 0.0
H385 H 0.31703 0.9494 0.90266 0.0
H386 H 0.33997 0.94419 0.95474 0.0
H387 H 0.29622 0.00224 0.95859 0.0
O388 O 0.36291 0.00029 0.94745 0.0
O389 O 0.33234 0.02091 0.93689 0.0
O390 O 0.3116 0.99051 0.90332 0.0
C391 C 0.35113 0.01959 0.94897 0.0
H392 H 0.37012 0.0238 0.84887 0.0
H393 H 0.30848 0.93621 0.98688 0.0
H394 H 0.33124 0.91615 0.88228 0.0
H395 H 0.40001 0.9313 0.90773 0.0
Co396 Co 0.25326 0.90796 0.32168 0.0
C397 C 0.23869 0.8662 0.34644 0.0
C398 C 0.22282 0.89648 0.36124 0.0
C399 C 0.21604 0.87735 0.37378 0.0
N400 N 0.23711 0.88941 0.34421 0.0
N401 N 0.22599 0.85843 0.36434 0.0
H402 H 0.24926 0.85526 0.33549 0.0
H403 H 0.21773 0.91421 0.36443 0.0
C404 C 0.25909 0.95489 0.34497 0.0
O405 O 0.28082 0.95697 0.33858 0.0
N406 N 0.26938 0.9263 0.29878 0.0
C407 C 0.28888 0.92124 0.28693 0.0
C408 C 0.29383 0.93929 0.27224 0.0
C409 C 0.26232 0.94696 0.29048 0.0
N410 N 0.27714 0.95542 0.27457 0.0
C411 C 0.29693 0.8844 0.32861 0.0
C412 C 0.30602 0.90358 0.3715 0.0
C413 C 0.32239 0.88865 0.36173 0.0
C414 C 0.31745 0.87855 0.34019 0.0
C415 C 0.28573 0.90865 0.35955 0.0
N416 N 0.28197 0.9003 0.33773 0.0
H417 H 0.29289 0.87588 0.31247 0.0
H418 H 0.27277 0.91865 0.36844 0.0
H419 H 0.29881 0.90554 0.28828 0.0
H420 H 0.2469 0.95583 0.29638 0.0
O421 O 0.25049 0.88233 0.29974 0.0
O422 O 0.2255 0.91121 0.30419 0.0
O423 O 0.24762 0.93647 0.34077 0.0
C424 C 0.23087 0.89202 0.29397 0.0
H425 H 0.20448 0.87728 0.38855 0.0
H426 H 0.30842 0.94034 0.26052 0.0
H427 H 0.30842 0.91059 0.38874 0.0
H428 H 0.32922 0.86617 0.33245 0.0
Co429 Co 0.33777 0.00185 0.57315 0.0
C430 C 0.37843 0.98825 0.59987 0.0
C431 C 0.34792 0.97188 0.61355 0.0
C432 C 0.36685 0.96492 0.62638 0.0
N433 N 0.35532 0.98656 0.59703 0.0
N434 N 0.38597 0.97519 0.61764 0.0
H435 H 0.3895 0.99891 0.58915 0.0
H436 H 0.33018 0.96641 0.61592 0.0
C437 C 0.29118 0.01217 0.59525 0.0
O438 O 0.29055 0.03358 0.58762 0.0
N439 N 0.32061 0.01706 0.54874 0.0
C440 C 0.32744 0.03459 0.5349 0.0
C441 C 0.31003 0.03943 0.51944 0.0
C442 C 0.29949 0.01089 0.54084 0.0
N443 N 0.29249 0.02454 0.52325 0.0
C444 C 0.36295 0.04528 0.57742 0.0
C445 C 0.34417 0.05691 0.61989 0.0
C446 C 0.35939 0.07245 0.60932 0.0
C447 C 0.36936 0.06621 0.58803 0.0
C448 C 0.3386 0.03624 0.60895 0.0
N449 N 0.34667 0.03123 0.58727 0.0
H450 H 0.3715 0.0401 0.56162 0.0
H451 H 0.32841 0.02393 0.61855 0.0
H452 H 0.34399 0.04311 0.53534 0.0
H453 H 0.28929 0.99694 0.5481 0.0
O454 O 0.36341 0.99568 0.5518 0.0
O455 O 0.33302 0.97309 0.55798 0.0
O456 O 0.30882 0.99925 0.59211 0.0
C457 C 0.35264 0.97616 0.54768 0.0
H458 H 0.36664 0.95279 0.64067 0.0
H459 H 0.31035 0.05269 0.5062 0.0
H460 H 0.33731 0.06023 0.63704 0.0
H461 H 0.38209 0.07725 0.5798 0.0
Co462 Co 0.24224 0.08915 0.82054 0.0
C463 C 0.25481 0.12987 0.84889 0.0
C464 C 0.27062 0.09905 0.86221 0.0
C465 C 0.27787 0.11763 0.87532 0.0
N466 N 0.25544 0.1066 0.84612 0.0
N467 N 0.26793 0.13694 0.86679 0.0
H468 H 0.24592 0.14167 0.83751 0.0
H469 H 0.27686 0.08147 0.86372 0.0
C470 C 0.23746 0.05579 0.86083 0.0
O471 O 0.22922 0.07206 0.87444 0.0
N472 N 0.22956 0.07239 0.79477 0.0
C473 C 0.2129 0.07969 0.78019 0.0
C474 C 0.20857 0.06237 0.7644 0.0
C475 C 0.23546 0.05101 0.78757 0.0
N476 N 0.22282 0.04445 0.76907 0.0
C477 C 0.20425 0.12113 0.82778 0.0
C478 C 0.176 0.08971 0.85015 0.0
C479 C 0.17079 0.11341 0.85215 0.0
C480 C 0.18435 0.12899 0.83918 0.0
C481 C 0.19572 0.08266 0.83805 0.0
N482 N 0.21096 0.09856 0.82948 0.0
H483 H 0.21463 0.13332 0.81817 0.0
H484 H 0.19928 0.06438 0.83674 0.0
H485 H 0.20443 0.09637 0.78107 0.0
H486 H 0.24837 0.04033 0.79598 0.0
O487 O 0.25182 0.1142 0.79977 0.0
O488 O 0.27262 0.08339 0.8093 0.0
O489 O 0.24125 0.05989 0.83947 0.0
C490 C 0.27133 0.10277 0.79817 0.0
H491 H 0.29037 0.11716 0.88928 0.0
H492 H 0.196 0.06291 0.75051 0.0
H493 H 0.16591 0.07661 0.85893 0.0
H494 H 0.18019 0.14725 0.83846 0.0
Co495 Co 0.16262 0.99371 0.07278 0.0
C496 C 0.1216 0.00708 0.10032 0.0
C497 C 0.15277 0.01776 0.11727 0.0
C498 C 0.13413 0.02536 0.13008 0.0
N499 N 0.14495 0.00544 0.09902 0.0
N500 N 0.11455 0.0186 0.11932 0.0
H501 H 0.10987 0.00119 0.08706 0.0
H502 H 0.17067 0.02211 0.12051 0.0
C503 C 0.195 0.9835 0.11265 0.0
O504 O 0.17814 0.9737 0.12439 0.0
N505 N 0.1795 0.9827 0.04636 0.0
C506 C 0.17135 0.9684 0.02986 0.0
C507 C 0.18903 0.96359 0.01465 0.0
C508 C 0.20178 0.98681 0.04089 0.0
N509 N 0.20806 0.97518 0.02164 0.0
C510 C 0.13081 0.95538 0.08168 0.0
C511 C 0.16543 0.92447 0.0934 0.0
C512 C 0.14254 0.91913 0.09934 0.0
C513 C 0.12493 0.93424 0.09204 0.0
C514 C 0.17043 0.94569 0.08303 0.0
N515 N 0.15344 0.9618 0.07951 0.0
H516 H 0.11716 0.96669 0.07604 0.0
H517 H 0.18829 0.94975 0.07923 0.0
H518 H 0.1539 0.96161 0.02925 0.0
H519 H 0.21331 0.99747 0.05113 0.0
O520 O 0.13794 0.00476 0.05225 0.0
O521 O 0.16866 0.02472 0.06368 0.0
O522 O 0.19146 0.99081 0.09212 0.0
C523 C 0.14954 0.02425 0.05206 0.0
H524 H 0.13491 0.03606 0.14545 0.0
H525 H 0.18804 0.95236 0.99966 0.0
H526 H 0.17948 0.91281 0.09768 0.0
H527 H 0.1069 0.93042 0.09545 0.0
Co528 Co 0.17867 0.2559 0.09053 0.0
C529 C 0.15204 0.24131 0.1315 0.0
C530 C 0.13193 0.23669 0.10063 0.0
C531 C 0.11871 0.23029 0.11945 0.0
N532 N 0.15275 0.24394 0.10825 0.0
N533 N 0.13141 0.2333 0.13884 0.0
H534 H 0.16628 0.24527 0.14295 0.0
H535 H 0.12666 0.23576 0.08275 0.0
C536 C 0.15961 0.26455 0.04142 0.0
O537 O 0.1783 0.27492 0.0338 0.0
N538 N 0.20532 0.26786 0.07429 0.0
C539 C 0.21797 0.28635 0.08087 0.0
C540 C 0.2358 0.2893 0.06549 0.0
C541 C 0.2165 0.25895 0.05581 0.0
N542 N 0.23465 0.27228 0.04957 0.0
C543 C 0.17265 0.29267 0.12435 0.0
C544 C 0.15279 0.32352 0.09363 0.0
C545 C 0.15162 0.32858 0.11734 0.0
C546 C 0.16291 0.31332 0.1327 0.0
C547 C 0.16296 0.30304 0.08611 0.0
N548 N 0.17117 0.28706 0.10145 0.0
H549 H 0.18079 0.28094 0.13638 0.0
H550 H 0.16351 0.30002 0.06783 0.0
H551 H 0.21447 0.29716 0.09574 0.0
H552 H 0.21049 0.24402 0.0462 0.0
O553 O 0.19967 0.24412 0.11444 0.0
O554 O 0.18783 0.22503 0.08337 0.0
O555 O 0.1573 0.25904 0.06279 0.0
C556 C 0.19958 0.22489 0.10243 0.0
H557 H 0.10124 0.22354 0.11884 0.0
H558 H 0.24828 0.30328 0.06562 0.0
H559 H 0.14474 0.33447 0.08075 0.0
H560 H 0.16361 0.31683 0.15109 0.0
Co561 Co 0.68035 0.24372 0.90939 0.0
C562 C 0.65529 0.25743 0.8677 0.0
C563 C 0.63871 0.27158 0.8979 0.0
C564 C 0.62585 0.27738 0.87861 0.0
N565 N 0.65708 0.259 0.89096 0.0
N566 N 0.63642 0.2685 0.85974 0.0
H567 H 0.66715 0.24778 0.85687 0.0
H568 H 0.6347 0.27596 0.91566 0.0
C569 C 0.65698 0.23551 0.95596 0.0
O570 O 0.66417 0.21399 0.95751 0.0
N571 N 0.70416 0.22826 0.92722 0.0
C572 C 0.71778 0.21051 0.92045 0.0
C573 C 0.73319 0.20552 0.93783 0.0
C574 C 0.71215 0.2344 0.94832 0.0
N575 N 0.72961 0.22053 0.9553 0.0
C576 C 0.67551 0.19981 0.88503 0.0
C577 C 0.63302 0.18886 0.90414 0.0
C578 C 0.64354 0.17278 0.8894 0.0
C579 C 0.66486 0.1787 0.87927 0.0
C580 C 0.64406 0.20966 0.90913 0.0
N581 N 0.66576 0.21435 0.90095 0.0
H582 H 0.69131 0.20468 0.8763 0.0
H583 H 0.63451 0.22227 0.91898 0.0
H584 H 0.71739 0.20207 0.90387 0.0
H585 H 0.70521 0.24859 0.95842 0.0
O586 O 0.7024 0.24892 0.88404 0.0
O587 O 0.69604 0.27225 0.91381 0.0
O588 O 0.6609 0.24767 0.93795 0.0
C589 C 0.70673 0.26855 0.89452 0.0
H590 H 0.61 0.28739 0.87842 0.0
H591 H 0.74639 0.19221 0.93746 0.0
H592 H 0.61584 0.18586 0.91106 0.0
H593 H 0.6731 0.16728 0.86688 0.0
Co594 Co 0.00555 0.42824 0.15714 0.0
C595 C 0.99256 0.4036 0.11456 0.0
C596 C 0.97439 0.38989 0.14404 0.0
C597 C 0.96788 0.37763 0.12464 0.0
N598 N 0.99002 0.40597 0.13769 0.0
N599 N 0.97927 0.38635 0.10618 0.0
H600 H 0.00407 0.4141 0.10414 0.0
H601 H 0.96801 0.38737 0.16145 0.0
C602 C 0.01287 0.40284 0.20289 0.0
O603 O 0.0327 0.41304 0.20728 0.0
N604 N 0.02079 0.45123 0.17632 0.0
C605 C 0.03822 0.46568 0.17049 0.0
C606 C 0.04252 0.48039 0.18863 0.0
C607 C 0.01394 0.45832 0.19755 0.0
N608 N 0.02729 0.47571 0.20561 0.0
C609 C 0.05135 0.42403 0.13569 0.0
C610 C 0.05853 0.37932 0.15103 0.0
C611 C 0.07695 0.39081 0.14021 0.0
C612 C 0.07288 0.41335 0.13182 0.0
C613 C 0.03775 0.39075 0.15492 0.0
N614 N 0.03481 0.4134 0.14882 0.0
H615 H 0.04789 0.44059 0.12781 0.0
H616 H 0.0238 0.38091 0.16245 0.0
H617 H 0.04672 0.46661 0.15398 0.0
H618 H 0.99962 0.45076 0.20699 0.0
O619 O 0.00125 0.45121 0.13258 0.0
O620 O 0.97718 0.44416 0.16168 0.0
O621 O 0.00148 0.40712 0.18444 0.0
C622 C 0.98151 0.45552 0.14288 0.0
H623 H 0.9554 0.36366 0.12404 0.0
H624 H 0.05544 0.49397 0.18907 0.0
H625 H 0.05982 0.36132 0.15611 0.0
H626 H 0.08605 0.4227 0.12235 0.0
Co627 Co 0.8175 0.75415 0.40926 0.0
C628 C 0.84287 0.73898 0.36824 0.0
C629 C 0.8572 0.72336 0.39887 0.0
C630 C 0.87018 0.7166 0.37999 0.0
N631 N 0.8402 0.73748 0.3914 0.0
N632 N 0.86101 0.7264 0.36086 0.0
H633 H 0.83219 0.74958 0.35708 0.0
H634 H 0.86017 0.71852 0.4167 0.0
C635 C 0.84062 0.76102 0.45623 0.0
O636 O 0.83448 0.78286 0.45787 0.0
N637 N 0.79438 0.77086 0.42678 0.0
C638 C 0.78237 0.78993 0.42059 0.0
C639 C 0.76694 0.79527 0.4379 0.0
C640 C 0.7855 0.76444 0.44741 0.0
N641 N 0.76895 0.77923 0.4547 0.0
C642 C 0.82515 0.79716 0.38461 0.0
C643 C 0.86798 0.80615 0.40398 0.0
C644 C 0.85864 0.82219 0.38845 0.0
C645 C 0.83715 0.81729 0.37825 0.0
C646 C 0.85565 0.78623 0.4095 0.0
N647 N 0.83385 0.78255 0.40107 0.0
H648 H 0.8091 0.79306 0.37594 0.0
H649 H 0.86429 0.7734 0.41989 0.0
H650 H 0.78399 0.79919 0.40452 0.0
H651 H 0.79125 0.74941 0.45702 0.0
O652 O 0.79595 0.7507 0.38338 0.0
O653 O 0.79988 0.72654 0.41301 0.0
O654 O 0.83619 0.74916 0.43812 0.0
C655 C 0.79005 0.73133 0.39348 0.0
H656 H 0.88515 0.70531 0.38024 0.0
H657 H 0.75486 0.80961 0.43794 0.0
H658 H 0.88518 0.80848 0.4111 0.0
H659 H 0.82978 0.82878 0.36539 0.0
Co660 Co 0.99467 0.0704 0.16035 0.0
C661 C 0.00753 0.0983 0.11958 0.0
C662 C 0.02163 0.1131 0.15055 0.0
C663 C 0.02852 0.12635 0.13193 0.0
N664 N 0.00766 0.096 0.14287 0.0
N665 N 0.01962 0.11688 0.11256 0.0
H666 H 0.99969 0.08621 0.10775 0.0
H667 H 0.02717 0.11537 0.16827 0.0
C668 C 0.9872 0.11119 0.19243 0.0
O669 O 0.97849 0.12361 0.17546 0.0
N670 N 0.98207 0.0446 0.17698 0.0
C671 C 0.96667 0.02915 0.16875 0.0
C672 C 0.96128 0.01386 0.18618 0.0
C673 C 0.9862 0.03845 0.19905 0.0
N674 N 0.97361 0.01975 0.20512 0.0
C675 C 0.957 0.07705 0.12757 0.0
C676 C 0.92723 0.09685 0.15935 0.0
C677 C 0.92222 0.09944 0.13567 0.0
C678 C 0.93661 0.08769 0.11983 0.0
C679 C 0.94742 0.08551 0.16622 0.0
N680 N 0.96334 0.07838 0.15026 0.0
H681 H 0.96787 0.06819 0.11526 0.0
H682 H 0.95083 0.08374 0.18451 0.0
H683 H 0.9597 0.02918 0.15137 0.0
H684 H 0.99774 0.04774 0.21054 0.0
O685 O 0.00537 0.04942 0.13589 0.0
O686 O 0.02518 0.05993 0.16702 0.0
O687 O 0.99244 0.08996 0.18918 0.0
C688 C 0.02459 0.04835 0.14788 0.0
H689 H 0.03997 0.14118 0.13245 0.0
H690 H 0.94931 0.99948 0.18504 0.0
H691 H 0.91661 0.10462 0.17265 0.0
H692 H 0.93268 0.08728 0.10152 0.0
Co693 Co 0.32241 0.74382 0.58575 0.0
C694 C 0.34705 0.75911 0.62773 0.0
C695 C 0.36633 0.76791 0.59721 0.0
C696 C 0.37909 0.77413 0.61636 0.0
N697 N 0.34644 0.75801 0.60436 0.0
N698 N 0.36691 0.76849 0.63546 0.0
H699 H 0.33345 0.75293 0.63897 0.0
H700 H 0.37128 0.77064 0.57942 0.0
C701 C 0.34436 0.73818 0.53733 0.0
O702 O 0.32642 0.72778 0.52813 0.0
N703 N 0.29765 0.72944 0.56836 0.0
C704 C 0.28704 0.70943 0.57404 0.0
C705 C 0.26977 0.70514 0.55836 0.0
C706 C 0.28576 0.7377 0.54998 0.0
N707 N 0.26915 0.72274 0.54305 0.0
C708 C 0.32951 0.70701 0.6193 0.0
C709 C 0.35483 0.67888 0.59 0.0
C710 C 0.35389 0.67306 0.61355 0.0
C711 C 0.34015 0.68699 0.62811 0.0
C712 C 0.34377 0.69871 0.58197 0.0
N713 N 0.33256 0.71339 0.59675 0.0
H714 H 0.31919 0.71759 0.63073 0.0
H715 H 0.34478 0.70221 0.56377 0.0
H716 H 0.29139 0.69858 0.58864 0.0
H717 H 0.29001 0.75366 0.54112 0.0
O718 O 0.29971 0.75321 0.60916 0.0
O719 O 0.31044 0.77378 0.57865 0.0
O720 O 0.34507 0.74303 0.55895 0.0
C721 C 0.2983 0.77254 0.59744 0.0
H722 H 0.39592 0.78238 0.61628 0.0
H723 H 0.25866 0.69005 0.55809 0.0
H724 H 0.36494 0.6689 0.57778 0.0
H725 H 0.33797 0.68282 0.64625 0.0
Co726 Co 0.00417 0.57081 0.33892 0.0
C727 C 0.99179 0.59706 0.38045 0.0
C728 C 0.97748 0.61319 0.3501 0.0
C729 C 0.97185 0.62638 0.36921 0.0
N730 N 0.9901 0.59494 0.35723 0.0
N731 N 0.98085 0.61613 0.38821 0.0
H732 H 0.00117 0.58509 0.3914 0.0
H733 H 0.97264 0.6167 0.33236 0.0
C734 C 0.01376 0.59325 0.2917 0.0
O735 O 0.03138 0.57985 0.28651 0.0
N736 N 0.0184 0.54604 0.3213 0.0
C737 C 0.03664 0.53287 0.3276 0.0
C738 C 0.04113 0.51712 0.31041 0.0
C739 C 0.01139 0.53734 0.30075 0.0
N740 N 0.02536 0.52004 0.29351 0.0
C741 C 0.04681 0.57277 0.36593 0.0
C742 C 0.06296 0.61289 0.34546 0.0
C743 C 0.07687 0.60196 0.36193 0.0
C744 C 0.06837 0.58188 0.37272 0.0
C745 C 0.04169 0.60351 0.33954 0.0
N746 N 0.0343 0.58292 0.34858 0.0
H747 H 0.04009 0.55768 0.37471 0.0
H748 H 0.03092 0.61381 0.32844 0.0
H749 H 0.0461 0.5341 0.34358 0.0
H750 H 0.99698 0.54416 0.29087 0.0
O751 O 0.99634 0.54884 0.3636 0.0
O752 O 0.9746 0.55757 0.33322 0.0
O753 O 0.00305 0.59149 0.31096 0.0
C754 C 0.97679 0.54627 0.3524 0.0
H755 H 0.96162 0.64209 0.36921 0.0
H756 H 0.05498 0.50448 0.3103 0.0
H757 H 0.06794 0.62933 0.33792 0.0
H758 H 0.07812 0.57346 0.38634 0.0
Co759 Co 0.49329 0.42284 0.84076 0.0
C760 C 0.50557 0.39592 0.88201 0.0
C761 C 0.52088 0.381 0.85153 0.0
C762 C 0.52705 0.36784 0.87047 0.0
N763 N 0.50728 0.39847 0.85883 0.0
N764 N 0.51745 0.3773 0.88958 0.0
H765 H 0.49579 0.40743 0.89311 0.0
H766 H 0.52629 0.37822 0.83383 0.0
C767 C 0.48522 0.40132 0.79266 0.0
O768 O 0.46854 0.41552 0.7866 0.0
N769 N 0.47916 0.44791 0.82347 0.0
C770 C 0.46088 0.46086 0.83013 0.0
C771 C 0.4568 0.47753 0.81377 0.0
C772 C 0.48659 0.45767 0.80353 0.0
N773 N 0.47283 0.47544 0.79698 0.0
C774 C 0.45101 0.4205 0.86812 0.0
C775 C 0.4331 0.3822 0.84574 0.0
C776 C 0.41981 0.39267 0.86304 0.0
C777 C 0.42921 0.41187 0.87469 0.0
C778 C 0.45463 0.39116 0.83994 0.0
N779 N 0.46298 0.41083 0.85012 0.0
H780 H 0.45828 0.435 0.87746 0.0
H781 H 0.46469 0.38127 0.82786 0.0
H782 H 0.45123 0.45895 0.84593 0.0
H783 H 0.50124 0.45141 0.79364 0.0
O784 O 0.50107 0.44457 0.86571 0.0
O785 O 0.52292 0.43607 0.83537 0.0
O786 O 0.49469 0.40237 0.81262 0.0
C787 C 0.52064 0.44727 0.8546 0.0
H788 H 0.53828 0.35282 0.87029 0.0
H789 H 0.44311 0.49033 0.81423 0.0
H790 H 0.42742 0.36641 0.83735 0.0
H791 H 0.41992 0.42003 0.88879 0.0
Co792 Co 0.59422 0.67779 0.76086 0.0
C793 C 0.63632 0.6552 0.74182 0.0
C794 C 0.61072 0.63036 0.75201 0.0
C795 C 0.6308 0.61879 0.7466 0.0
N796 N 0.61402 0.65327 0.74889 0.0
N797 N 0.647 0.63444 0.74047 0.0
H798 H 0.64521 0.67149 0.73949 0.0
H799 H 0.59552 0.62253 0.75953 0.0
C800 C 0.546 0.65538 0.7655 0.0
O801 O 0.53669 0.67267 0.7769 0.0
N802 N 0.57564 0.70272 0.77341 0.0
C803 C 0.58005 0.71417 0.79329 0.0
C804 C 0.5634 0.73081 0.79646 0.0
C805 C 0.55712 0.71351 0.76405 0.0
N806 N 0.54894 0.73025 0.77818 0.0
C807 C 0.62726 0.66941 0.79719 0.0
C808 C 0.59599 0.64877 0.82702 0.0
C809 C 0.61972 0.64666 0.83181 0.0
C810 C 0.63538 0.65825 0.81713 0.0
C811 C 0.58867 0.66029 0.80716 0.0
N812 N 0.60427 0.66918 0.79182 0.0
H813 H 0.63954 0.67714 0.78537 0.0
H814 H 0.57041 0.66115 0.80375 0.0
H815 H 0.59431 0.71068 0.80489 0.0
H816 H 0.54899 0.70832 0.74797 0.0
O817 O 0.61725 0.70096 0.75154 0.0
O818 O 0.58799 0.68826 0.73025 0.0
O819 O 0.56775 0.6548 0.76125 0.0
C820 C 0.60604 0.70139 0.73183 0.0
H821 H 0.63341 0.60029 0.74795 0.0
H822 H 0.56177 0.74221 0.81126 0.0
H823 H 0.58304 0.64035 0.83761 0.0
H824 H 0.65382 0.6579 0.82042 0.0
Co825 Co 0.57046 0.33482 0.00662 0.0
C826 C 0.59305 0.37787 0.99132 0.0
C827 C 0.6137 0.34834 0.98225 0.0
C828 C 0.6257 0.36813 0.97649 0.0
N829 N 0.59342 0.35448 0.99204 0.0
N830 N 0.61266 0.3866 0.98231 0.0
H831 H 0.57903 0.38845 0.99777 0.0
H832 H 0.61954 0.33083 0.97951 0.0
C833 C 0.594 0.28706 0.01174 0.0
O834 O 0.57709 0.27784 0.02373 0.0
N835 N 0.54675 0.31651 0.02155 0.0
C836 C 0.53667 0.32158 0.04201 0.0
C837 C 0.52044 0.30501 0.04692 0.0
C838 C 0.53553 0.29759 0.01366 0.0
N839 N 0.51994 0.28978 0.02926 0.0
C840 C 0.57689 0.36816 0.04369 0.0
C841 C 0.60362 0.33951 0.07115 0.0
C842 C 0.6014 0.36281 0.07752 0.0
C843 C 0.58709 0.37704 0.06388 0.0
C844 C 0.59307 0.33141 0.05111 0.0
N845 N 0.58099 0.34589 0.03686 0.0
H846 H 0.56597 0.37928 0.0334 0.0
H847 H 0.59511 0.31341 0.04722 0.0
H848 H 0.54071 0.3363 0.05279 0.0
H849 H 0.53966 0.28897 0.99753 0.0
O850 O 0.5467 0.35752 0.99811 0.0
O851 O 0.55791 0.32758 0.97694 0.0
O852 O 0.59395 0.30859 0.00639 0.0
C853 C 0.54516 0.34591 0.97871 0.0
H854 H 0.64271 0.36893 0.96863 0.0
H855 H 0.50995 0.30409 0.06243 0.0
H856 H 0.61435 0.32763 0.08089 0.0
H857 H 0.58412 0.39498 0.06845 0.0
Co858 Co 0.90837 0.32399 0.2551 0.0
C859 C 0.86506 0.34658 0.24219 0.0
C860 C 0.89408 0.36542 0.22842 0.0
C861 C 0.87402 0.37732 0.22326 0.0
N862 N 0.88835 0.34622 0.24037 0.0
N863 N 0.85593 0.36534 0.23192 0.0
H864 H 0.85502 0.33381 0.25152 0.0
H865 H 0.91152 0.37069 0.22411 0.0
C866 C 0.95449 0.34897 0.26125 0.0
O867 O 0.95771 0.34169 0.28256 0.0
N868 N 0.92791 0.30135 0.27001 0.0
C869 C 0.92325 0.28842 0.28889 0.0
C870 C 0.94204 0.27463 0.29355 0.0
C871 C 0.94909 0.29455 0.26291 0.0
N872 N 0.95826 0.27862 0.27727 0.0
C873 C 0.88414 0.32772 0.29895 0.0
C874 C 0.90218 0.37053 0.31043 0.0
C875 C 0.88733 0.35963 0.3261 0.0
C876 C 0.87777 0.33813 0.31998 0.0
C877 C 0.90771 0.35977 0.28966 0.0
N878 N 0.89992 0.33801 0.28464 0.0
H879 H 0.87613 0.31155 0.294 0.0
H880 H 0.91754 0.36965 0.27732 0.0
H881 H 0.90735 0.28851 0.2986 0.0
H882 H 0.95785 0.30158 0.24791 0.0
O883 O 0.8842 0.30052 0.25064 0.0
O884 O 0.91288 0.30854 0.22646 0.0
O885 O 0.93571 0.34486 0.25037 0.0
C886 C 0.89442 0.2967 0.23077 0.0
H887 H 0.87278 0.39349 0.21386 0.0
H888 H 0.94359 0.26245 0.30771 0.0
H889 H 0.90873 0.3878 0.31373 0.0
H890 H 0.86541 0.32959 0.3312 0.0
Co891 Co 0.92824 0.66175 0.50287 0.0
C892 C 0.90436 0.61917 0.49004 0.0
C893 C 0.88774 0.64856 0.47433 0.0
C894 C 0.87532 0.62889 0.46892 0.0
N895 N 0.90576 0.64236 0.48776 0.0
N896 N 0.88591 0.61056 0.47879 0.0
H897 H 0.91622 0.60887 0.50027 0.0
H898 H 0.88377 0.66604 0.46898 0.0
C899 C 0.90323 0.70808 0.51079 0.0
O900 O 0.91596 0.71434 0.52855 0.0
N901 N 0.95138 0.68047 0.51828 0.0
C902 C 0.96321 0.67519 0.53772 0.0
C903 C 0.97815 0.69293 0.54275 0.0
C904 C 0.96007 0.70099 0.5112 0.0
N905 N 0.97606 0.70914 0.52616 0.0
C906 C 0.92542 0.63437 0.54514 0.0
C907 C 0.88439 0.65376 0.56031 0.0
C908 C 0.89543 0.63759 0.57447 0.0
C909 C 0.91596 0.62729 0.56643 0.0
C910 C 0.89416 0.66 0.53929 0.0
N911 N 0.91518 0.65154 0.53244 0.0
H912 H 0.94105 0.62617 0.53891 0.0
H913 H 0.88392 0.67097 0.52835 0.0
H914 H 0.96165 0.65956 0.54768 0.0
H915 H 0.95418 0.71015 0.49594 0.0
O916 O 0.95166 0.63806 0.49623 0.0
O917 O 0.9427 0.66791 0.4739 0.0
O918 O 0.90625 0.68868 0.50061 0.0
C919 C 0.95465 0.64919 0.47672 0.0
H920 H 0.85978 0.62807 0.45846 0.0
H921 H 0.98976 0.69381 0.55744 0.0
H922 H 0.86769 0.66094 0.56499 0.0
H923 H 0.92455 0.61397 0.57645 0.0
Co924 Co 0.5887 0.31961 0.74613 0.0
C925 C 0.63048 0.34415 0.75976 0.0
C926 C 0.60055 0.36121 0.77391 0.0
C927 C 0.62001 0.37401 0.7793 0.0
N928 N 0.60725 0.34258 0.76158 0.0
N929 N 0.6387 0.36313 0.7704 0.0
H930 H 0.64109 0.33212 0.75007 0.0
H931 H 0.58284 0.36551 0.77823 0.0
C932 C 0.5425 0.34381 0.73728 0.0
O933 O 0.54091 0.33684 0.71569 0.0
N934 N 0.57077 0.29618 0.73036 0.0
C935 C 0.5774 0.28264 0.7125 0.0
C936 C 0.55948 0.26813 0.70677 0.0
C937 C 0.54924 0.28903 0.73584 0.0
N938 N 0.54183 0.27224 0.72141 0.0
C939 C 0.61412 0.32386 0.70289 0.0
C940 C 0.59564 0.36643 0.69119 0.0
C941 C 0.61066 0.35562 0.6756 0.0
C942 C 0.62052 0.3343 0.68189 0.0
C943 C 0.59007 0.35563 0.71192 0.0
N944 N 0.59792 0.33389 0.71693 0.0
H945 H 0.62251 0.30797 0.70807 0.0
H946 H 0.58003 0.36537 0.72423 0.0
H947 H 0.59416 0.28258 0.70439 0.0
H948 H 0.53908 0.29619 0.74988 0.0
O949 O 0.61355 0.29714 0.75188 0.0
O950 O 0.58351 0.3041 0.77466 0.0
O951 O 0.56041 0.33955 0.74951 0.0
C952 C 0.6027 0.2931 0.77137 0.0
H953 H 0.62042 0.39006 0.78897 0.0
H954 H 0.55957 0.25521 0.69318 0.0
H955 H 0.58892 0.38363 0.68783 0.0
H956 H 0.63312 0.32591 0.67082 0.0
Co957 Co 0.92908 0.3423 0.98853 0.0
C958 C 0.90674 0.38534 0.00573 0.0
C959 C 0.88178 0.35902 0.99793 0.0
C960 C 0.87023 0.3793 0.00259 0.0
N961 N 0.90475 0.36263 4e-05 0.0
N962 N 0.88594 0.39594 0.00722 0.0
H963 H 0.92303 0.39444 0.00704 0.0
H964 H 0.87379 0.34334 0.99166 0.0
C965 C 0.90641 0.29399 0.98562 0.0
O966 O 0.92319 0.28436 0.97373 0.0
N967 N 0.95385 0.32332 0.97625 0.0
C968 C 0.96538 0.32777 0.95643 0.0
C969 C 0.98182 0.311 0.95311 0.0
C970 C 0.96443 0.30459 0.98545 0.0
N971 N 0.98106 0.29634 0.9712 0.0
C972 C 0.92213 0.37399 0.95071 0.0
C973 C 0.90014 0.34249 0.92213 0.0
C974 C 0.89999 0.36594 0.91575 0.0
C975 C 0.91224 0.38161 0.92991 0.0
C976 C 0.91064 0.3356 0.94269 0.0
N977 N 0.92032 0.35141 0.95732 0.0
H978 H 0.93046 0.38638 0.96199 0.0
H979 H 0.91022 0.31755 0.94703 0.0
H980 H 0.96207 0.34218 0.94496 0.0
H981 H 0.95917 0.2964 0.00148 0.0
O982 O 0.95243 0.36551 0.997 0.0
O983 O 0.9398 0.33692 0.01921 0.0
O984 O 0.90603 0.31585 0.98932 0.0
C985 C 0.953 0.35485 0.017 0.0
H986 H 0.85166 0.3817 0.00181 0.0
H987 H 0.99322 0.30944 0.93831 0.0
H988 H 0.89108 0.32948 0.91216 0.0
H989 H 0.91353 0.39977 0.92551 0.0
Co990 Co 0.91118 0.67532 0.24771 0.0
C991 C 0.86991 0.64919 0.26114 0.0
C992 C 0.90029 0.63469 0.27705 0.0
C993 C 0.88121 0.62202 0.28385 0.0
N994 N 0.8931 0.65162 0.26275 0.0
N995 N 0.86216 0.63126 0.27388 0.0
H996 H 0.85895 0.66028 0.25075 0.0
H997 H 0.91803 0.63187 0.28236 0.0
C998 C 0.95739 0.65196 0.23767 0.0
O999 O 0.9584 0.6594 0.21621 0.0
N1000 N 0.92882 0.69959 0.23274 0.0
C1001 C 0.92157 0.71441 0.2162 0.0
C1002 C 0.9391 0.72967 0.21127 0.0
C1003 C 0.95038 0.70677 0.23834 0.0
N1004 N 0.95717 0.72481 0.22516 0.0
C1005 C 0.88671 0.67212 0.20376 0.0
C1006 C 0.90489 0.62948 0.19185 0.0
C1007 C 0.89063 0.64084 0.17592 0.0
C1008 C 0.88091 0.6622 0.18233 0.0
C1009 C 0.90993 0.63982 0.21298 0.0
N1010 N 0.90229 0.66161 0.21812 0.0
H1011 H 0.87825 0.68793 0.20902 0.0
H1012 H 0.91952 0.62978 0.22543 0.0
H1013 H 0.90457 0.71494 0.20864 0.0
H1014 H 0.96094 0.69886 0.25165 0.0
O1015 O 0.88588 0.69711 0.25383 0.0
O1016 O 0.916 0.69023 0.27659 0.0
O1017 O 0.93976 0.65579 0.25043 0.0
C1018 C 0.89664 0.70098 0.2734 0.0
H1019 H 0.88128 0.60747 0.29567 0.0
H1020 H 0.93845 0.74361 0.19876 0.0
H1021 H 0.91145 0.61224 0.18839 0.0
H1022 H 0.86885 0.67105 0.17101 0.0
Co1023 Co 0.56811 0.65704 0.49619 0.0
C1024 C 0.59218 0.61466 0.50943 0.0
C1025 C 0.60733 0.644 0.52669 0.0
C1026 C 0.61966 0.62438 0.53256 0.0
N1027 N 0.59027 0.63779 0.51204 0.0
N1028 N 0.60995 0.60609 0.52174 0.0
H1029 H 0.58119 0.60439 0.49825 0.0
H1030 H 0.61079 0.66148 0.53244 0.0
C1031 C 0.59522 0.70207 0.48917 0.0
O1032 O 0.59075 0.70357 0.46692 0.0
N1033 N 0.54522 0.67579 0.48039 0.0
C1034 C 0.52844 0.66839 0.46588 0.0
C1035 C 0.51458 0.68678 0.45998 0.0
C1036 C 0.54041 0.69834 0.48417 0.0
N1037 N 0.52216 0.70553 0.47152 0.0
C1038 C 0.57273 0.63782 0.44945 0.0
C1039 C 0.61886 0.64967 0.44513 0.0
C1040 C 0.60754 0.64031 0.42581 0.0
C1041 C 0.58419 0.63381 0.42838 0.0
C1042 C 0.60671 0.65373 0.4655 0.0
N1043 N 0.5836 0.64903 0.46719 0.0
H1044 H 0.55536 0.63147 0.45151 0.0
H1045 H 0.61615 0.66056 0.48009 0.0
H1046 H 0.52522 0.65066 0.46108 0.0
H1047 H 0.54958 0.70919 0.49637 0.0
O1048 O 0.54543 0.63206 0.5003 0.0
O1049 O 0.5516 0.66142 0.52422 0.0
O1050 O 0.58837 0.68481 0.50112 0.0
C1051 C 0.54074 0.64236 0.51996 0.0
H1052 H 0.63453 0.62356 0.54393 0.0
H1053 H 0.49936 0.6862 0.44905 0.0
H1054 H 0.63719 0.65357 0.44479 0.0
H1055 H 0.57478 0.62575 0.41433 0.0
Co1056 Co 0.75765 0.59203 0.67863 0.0
C1057 C 0.7457 0.63465 0.65397 0.0
C1058 C 0.72749 0.60555 0.63953 0.0
C1059 C 0.72166 0.62514 0.6272 0.0
N1060 N 0.74276 0.61157 0.65609 0.0
N1061 N 0.73307 0.64331 0.63644 0.0
H1062 H 0.75698 0.64488 0.6649 0.0
H1063 H 0.7208 0.58831 0.63678 0.0
C1064 C 0.762 0.54459 0.65504 0.0
O1065 O 0.78039 0.53834 0.66685 0.0
N1066 N 0.77268 0.5731 0.70185 0.0
C1067 C 0.79234 0.57786 0.71355 0.0
C1068 C 0.79644 0.56046 0.72917 0.0
C1069 C 0.76459 0.55329 0.71127 0.0
N1070 N 0.77907 0.54501 0.72764 0.0
C1071 C 0.80142 0.61621 0.67359 0.0
C1072 C 0.81371 0.59542 0.63229 0.0
C1073 C 0.82925 0.61094 0.64248 0.0
C1074 C 0.8227 0.62179 0.66325 0.0
C1075 C 0.79276 0.59051 0.64304 0.0
N1076 N 0.78726 0.59979 0.66412 0.0
H1077 H 0.79631 0.62509 0.68925 0.0
H1078 H 0.78075 0.57997 0.63355 0.0
H1079 H 0.80299 0.59298 0.71152 0.0
H1080 H 0.74885 0.54475 0.70572 0.0
O1081 O 0.75397 0.61692 0.70131 0.0
O1082 O 0.72903 0.58844 0.69464 0.0
O1083 O 0.75273 0.5645 0.65779 0.0
C1084 C 0.73404 0.60719 0.70582 0.0
H1085 H 0.70958 0.62611 0.6129 0.0
H1086 H 0.81105 0.5593 0.74086 0.0
H1087 H 0.81721 0.58782 0.6155 0.0
H1088 H 0.8338 0.63456 0.67134 0.0
Co1089 Co 0.65908 0.49931 0.93066 0.0
C1090 C 0.61737 0.4853 0.90554 0.0
C1091 C 0.6474 0.46827 0.89153 0.0
C1092 C 0.6282 0.46156 0.879 0.0
N1093 N 0.64052 0.4833 0.90798 0.0
N1094 N 0.60944 0.47223 0.88797 0.0
H1095 H 0.6066 0.49641 0.91613 0.0
H1096 H 0.66505 0.46265 0.88875 0.0
C1097 C 0.70372 0.50815 0.90356 0.0
O1098 O 0.70405 0.53049 0.9078 0.0
N1099 N 0.67721 0.51505 0.95414 0.0
C1100 C 0.66905 0.5279 0.9719 0.0
C1101 C 0.68713 0.53402 0.98605 0.0
C1102 C 0.70002 0.5124 0.95863 0.0
N1103 N 0.70653 0.52425 0.97766 0.0
C1104 C 0.64039 0.54632 0.92691 0.0
C1105 C 0.65087 0.55074 0.88044 0.0
C1106 C 0.64221 0.57012 0.89221 0.0
C1107 C 0.6364 0.56752 0.91571 0.0
C1108 C 0.65488 0.53019 0.8923 0.0
N1109 N 0.65081 0.5284 0.91553 0.0
H1110 H 0.63481 0.54439 0.94453 0.0
H1111 H 0.66144 0.5156 0.88263 0.0
H1112 H 0.65104 0.53135 0.97546 0.0
H1113 H 0.71155 0.50151 0.9487 0.0
O1114 O 0.63377 0.49465 0.95277 0.0
O1115 O 0.6636 0.47114 0.94693 0.0
O1116 O 0.68722 0.49533 0.9107 0.0
C1117 C 0.64429 0.47513 0.95752 0.0
H1118 H 0.62797 0.44958 0.86458 0.0
H1119 H 0.68595 0.54391 0.00195 0.0
H1120 H 0.65436 0.55124 0.86202 0.0
H1121 H 0.62896 0.5817 0.92547 0.0
Co1122 Co 0.74505 0.40961 0.1767 0.0
C1123 C 0.75748 0.36562 0.15486 0.0
C1124 C 0.77317 0.39407 0.13665 0.0
C1125 C 0.77821 0.37379 0.12507 0.0
N1126 N 0.76005 0.38887 0.15522 0.0
N1127 N 0.76837 0.35605 0.13665 0.0
H1128 H 0.74718 0.35598 0.16719 0.0
H1129 H 0.77833 0.41132 0.13155 0.0
C1130 C 0.73952 0.4545 0.14936 0.0
O1131 O 0.71784 0.45763 0.15548 0.0
N1132 N 0.72997 0.42987 0.19877 0.0
C1133 C 0.71274 0.42435 0.21356 0.0
C1134 C 0.70821 0.44301 0.2275 0.0
C1135 C 0.7364 0.45156 0.20474 0.0
N1136 N 0.72306 0.46006 0.22193 0.0
C1137 C 0.69954 0.38821 0.17293 0.0
C1138 C 0.69176 0.40272 0.12804 0.0
C1139 C 0.67387 0.39119 0.13968 0.0
C1140 C 0.6782 0.3834 0.16235 0.0
C1141 C 0.71249 0.40738 0.13932 0.0
N1142 N 0.71572 0.40153 0.162 0.0
H1143 H 0.70321 0.38076 0.18965 0.0
H1144 H 0.7262 0.41516 0.12936 0.0
H1145 H 0.70461 0.40771 0.21523 0.0
H1146 H 0.75056 0.46091 0.19677 0.0
O1147 O 0.74844 0.38578 0.20063 0.0
O1148 O 0.77332 0.41395 0.19277 0.0
O1149 O 0.75064 0.43637 0.1553 0.0
C1150 C 0.76832 0.39581 0.20484 0.0
H1151 H 0.78828 0.37216 0.10934 0.0
H1152 H 0.69546 0.44377 0.24123 0.0
H1153 H 0.69015 0.40757 0.11 0.0
H1154 H 0.66538 0.37355 0.17182 0.0
Co1155 Co 0.8379 0.49749 0.42906 0.0
C1156 C 0.87946 0.51158 0.40403 0.0
C1157 C 0.84921 0.52632 0.38809 0.0
C1158 C 0.86845 0.53243 0.37529 0.0
N1159 N 0.85624 0.51316 0.40601 0.0
N1160 N 0.88736 0.52317 0.38545 0.0
H1161 H 0.89032 0.50156 0.41557 0.0
H1162 H 0.83145 0.53093 0.38437 0.0
C1163 C 0.79125 0.48944 0.40534 0.0
O1164 O 0.78916 0.46797 0.41255 0.0
N1165 N 0.82019 0.48159 0.4526 0.0
C1166 C 0.82714 0.4637 0.46592 0.0
C1167 C 0.8098 0.45827 0.4812 0.0
C1168 C 0.79901 0.48736 0.46061 0.0
N1169 N 0.79216 0.47311 0.47781 0.0
C1170 C 0.86357 0.4546 0.42423 0.0
C1171 C 0.84421 0.4423 0.38224 0.0
C1172 C 0.85981 0.42705 0.39274 0.0
C1173 C 0.87003 0.43364 0.41378 0.0
C1174 C 0.83854 0.46303 0.39307 0.0
N1175 N 0.84695 0.46836 0.41453 0.0
H1176 H 0.87221 0.45995 0.43992 0.0
H1177 H 0.82803 0.47509 0.38352 0.0
H1178 H 0.84381 0.45543 0.46539 0.0
H1179 H 0.78875 0.50152 0.45386 0.0
O1180 O 0.86301 0.50284 0.45126 0.0
O1181 O 0.83298 0.52586 0.4449 0.0
O1182 O 0.80949 0.50122 0.40938 0.0
C1183 C 0.85226 0.5223 0.45567 0.0
H1184 H 0.86856 0.54294 0.35977 0.0
H1185 H 0.8103 0.44475 0.49418 0.0
H1186 H 0.83713 0.43871 0.36524 0.0
H1187 H 0.88299 0.42283 0.42196 0.0
Co1188 Co 0.75316 0.40898 0.81939 0.0
C1189 C 0.74069 0.36602 0.84291 0.0
C1190 C 0.72462 0.3951 0.85976 0.0
C1191 C 0.71927 0.37523 0.87191 0.0
N1192 N 0.73821 0.38923 0.84175 0.0
N1193 N 0.72934 0.35709 0.86116 0.0
H1194 H 0.75115 0.35595 0.83105 0.0
H1195 H 0.71919 0.41252 0.86396 0.0
C1196 C 0.76198 0.45416 0.84561 0.0
O1197 O 0.78155 0.45868 0.83496 0.0
N1198 N 0.76813 0.42806 0.7962 0.0
C1199 C 0.78423 0.42125 0.78068 0.0
C1200 C 0.7892 0.43933 0.76617 0.0
C1201 C 0.76256 0.44991 0.78993 0.0
N1202 N 0.77565 0.45732 0.77206 0.0
C1203 C 0.7986 0.38624 0.82178 0.0
C1204 C 0.80752 0.401 0.86637 0.0
C1205 C 0.82523 0.38974 0.85426 0.0
C1206 C 0.82029 0.38157 0.83184 0.0
C1207 C 0.78654 0.40552 0.85564 0.0
N1208 N 0.78275 0.39973 0.83302 0.0
H1209 H 0.79446 0.37858 0.80528 0.0
H1210 H 0.77311 0.41324 0.86602 0.0
H1211 H 0.7912 0.4041 0.77887 0.0
H1212 H 0.74936 0.46022 0.79836 0.0
O1213 O 0.74734 0.38503 0.79607 0.0
O1214 O 0.72434 0.41456 0.80469 0.0
O1215 O 0.75032 0.43591 0.84121 0.0
C1216 C 0.72768 0.39588 0.79285 0.0
H1217 H 0.70876 0.37414 0.88739 0.0
H1218 H 0.80136 0.43908 0.7519 0.0
H1219 H 0.80954 0.40596 0.88435 0.0
H1220 H 0.83294 0.37169 0.82215 0.0
Co1221 Co 0.84328 0.50713 0.06692 0.0
C1222 C 0.88593 0.49431 0.091 0.0
C1223 C 0.85678 0.47612 0.10536 0.0
C1224 C 0.87636 0.47012 0.11763 0.0
N1225 N 0.86284 0.49147 0.0889 0.0
N1226 N 0.89455 0.48153 0.10844 0.0
H1227 H 0.89617 0.50576 0.08028 0.0
H1228 H 0.83947 0.46963 0.10822 0.0
C1229 C 0.79583 0.51104 0.09047 0.0
O1230 O 0.78933 0.52923 0.0785 0.0
N1231 N 0.8242 0.52298 0.04436 0.0
C1232 C 0.82702 0.54443 0.0355 0.0
C1233 C 0.80907 0.54903 0.0206 0.0
C1234 C 0.805 0.51455 0.03403 0.0
N1235 N 0.79524 0.53029 0.0198 0.0
C1236 C 0.86884 0.54991 0.07322 0.0
C1237 C 0.84796 0.56202 0.11455 0.0
C1238 C 0.8646 0.57687 0.10521 0.0
C1239 C 0.87548 0.57045 0.08444 0.0
C1240 C 0.84218 0.54169 0.10309 0.0
N1241 N 0.85166 0.53624 0.08208 0.0
H1242 H 0.87742 0.54502 0.05732 0.0
H1243 H 0.83079 0.53009 0.11206 0.0
H1244 H 0.84084 0.55625 0.03948 0.0
H1245 H 0.79763 0.49775 0.03786 0.0
O1246 O 0.86793 0.50355 0.04392 0.0
O1247 O 0.83919 0.47888 0.0503 0.0
O1248 O 0.81589 0.50205 0.08788 0.0
C1249 C 0.858 0.48377 0.03918 0.0
H1250 H 0.87728 0.45811 0.13199 0.0
H1251 H 0.80624 0.56504 0.01127 0.0
H1252 H 0.84014 0.56553 0.13124 0.0
H1253 H 0.88899 0.58113 0.07701 0.0
Co1254 Co 0.74106 0.5906 0.32172 0.0
C1255 C 0.75976 0.63218 0.34516 0.0
C1256 C 0.74755 0.607 0.36947 0.0
C1257 C 0.75209 0.62722 0.38115 0.0
N1258 N 0.75248 0.60994 0.34683 0.0
N1259 N 0.75943 0.64319 0.36579 0.0
H1260 H 0.76315 0.64091 0.32898 0.0
H1261 H 0.73899 0.59213 0.37682 0.0
C1262 C 0.73445 0.54236 0.34395 0.0
O1263 O 0.72407 0.53305 0.32604 0.0
N1264 N 0.72893 0.5728 0.29607 0.0
C1265 C 0.71061 0.57938 0.28318 0.0
C1266 C 0.70724 0.56356 0.26587 0.0
C1267 C 0.73734 0.55368 0.2855 0.0
N1268 N 0.72384 0.54726 0.26748 0.0
C1269 C 0.7051 0.62441 0.32913 0.0
C1270 C 0.6739 0.59345 0.34813 0.0
C1271 C 0.66953 0.61724 0.35055 0.0
C1272 C 0.68491 0.63276 0.33969 0.0
C1273 C 0.69398 0.58591 0.33713 0.0
N1274 N 0.71 0.60132 0.32919 0.0
H1275 H 0.71742 0.63656 0.322 0.0
H1276 H 0.69702 0.56758 0.33597 0.0
H1277 H 0.70032 0.59475 0.28606 0.0
H1278 H 0.75227 0.54408 0.29153 0.0
O1279 O 0.75194 0.6135 0.29911 0.0
O1280 O 0.77192 0.58359 0.3124 0.0
O1281 O 0.73904 0.56404 0.34459 0.0
C1282 C 0.77137 0.60179 0.29939 0.0
H1283 H 0.74903 0.63017 0.39939 0.0
H1284 H 0.69342 0.56383 0.25321 0.0
H1285 H 0.6628 0.58054 0.35593 0.0
H1286 H 0.68198 0.65126 0.34014 0.0
Co1287 Co 0.65817 0.49386 0.57282 0.0
C1288 C 0.61521 0.50704 0.59596 0.0
C1289 C 0.6445 0.52046 0.61462 0.0
C1290 C 0.62459 0.52548 0.62686 0.0
N1291 N 0.63851 0.50881 0.59531 0.0
N1292 N 0.60631 0.51704 0.615 0.0
H1293 H 0.60499 0.49777 0.58327 0.0
H1294 H 0.66201 0.52454 0.61981 0.0
C1295 C 0.70476 0.48792 0.59731 0.0
O1296 O 0.7083 0.46679 0.58969 0.0
N1297 N 0.67714 0.47857 0.54986 0.0
C1298 C 0.67159 0.45977 0.53714 0.0
C1299 C 0.68943 0.45499 0.52222 0.0
C1300 C 0.69798 0.48547 0.54184 0.0
N1301 N 0.70597 0.47112 0.52523 0.0
C1302 C 0.63329 0.45049 0.57719 0.0
C1303 C 0.65279 0.43816 0.6191 0.0
C1304 C 0.63735 0.42282 0.60853 0.0
C1305 C 0.62706 0.42939 0.58751 0.0
C1306 C 0.6582 0.45901 0.60843 0.0
N1307 N 0.64968 0.46442 0.58703 0.0
H1308 H 0.62477 0.45576 0.56139 0.0
H1309 H 0.66855 0.47107 0.6181 0.0
H1310 H 0.65556 0.45033 0.53793 0.0
H1311 H 0.70721 0.50047 0.54825 0.0
O1312 O 0.6337 0.49852 0.5497 0.0
O1313 O 0.66271 0.52243 0.55724 0.0
O1314 O 0.68582 0.4986 0.59333 0.0
C1315 C 0.644 0.51831 0.54574 0.0
H1316 H 0.62359 0.53453 0.64325 0.0
H1317 H 0.69001 0.44099 0.50977 0.0
H1318 H 0.65991 0.43455 0.63608 0.0
H1319 H 0.61427 0.41846 0.57925 0.0
Co1320 Co 0.67711 0.75437 0.59065 0.0
C1321 C 0.65338 0.74053 0.63342 0.0
C1322 C 0.63947 0.72244 0.60398 0.0
C1323 C 0.62753 0.71567 0.62349 0.0
N1324 N 0.65548 0.73817 0.61026 0.0
N1325 N 0.63636 0.72701 0.64192 0.0
H1326 H 0.66384 0.75213 0.64378 0.0
H1327 H 0.63671 0.71624 0.58653 0.0
C1328 C 0.65066 0.76154 0.54528 0.0
O1329 O 0.66062 0.78139 0.54042 0.0
N1330 N 0.69945 0.77045 0.57137 0.0
C1331 C 0.71343 0.78821 0.57733 0.0
C1332 C 0.72758 0.79349 0.55902 0.0
C1333 C 0.70629 0.76438 0.54983 0.0
N1334 N 0.72301 0.77856 0.54174 0.0
C1335 C 0.67286 0.79939 0.61344 0.0
C1336 C 0.62822 0.80725 0.59829 0.0
C1337 C 0.63994 0.82541 0.60932 0.0
C1338 C 0.66243 0.82095 0.61766 0.0
C1339 C 0.63948 0.78644 0.59394 0.0
N1340 N 0.66213 0.78326 0.59991 0.0
H1341 H 0.68942 0.79564 0.6212 0.0
H1342 H 0.62955 0.77272 0.58613 0.0
H1343 H 0.71447 0.79633 0.59402 0.0
H1344 H 0.69903 0.75004 0.54019 0.0
O1345 O 0.70068 0.74989 0.61462 0.0
O1346 O 0.69335 0.72632 0.58519 0.0
O1347 O 0.65541 0.75041 0.56377 0.0
C1348 C 0.70505 0.73043 0.60383 0.0
H1349 H 0.61365 0.70309 0.62416 0.0
H1350 H 0.74076 0.80681 0.55867 0.0
H1351 H 0.61023 0.80877 0.59326 0.0
H1352 H 0.67198 0.83387 0.62728 0.0
Co1353 Co 0.17214 0.74407 0.40983 0.0
C1354 C 0.14709 0.75709 0.36756 0.0
C1355 C 0.13133 0.77245 0.3976 0.0
C1356 C 0.11911 0.77916 0.37823 0.0
N1357 N 0.14874 0.75851 0.39085 0.0
N1358 N 0.1291 0.76954 0.35939 0.0
H1359 H 0.1588 0.74714 0.35683 0.0
H1360 H 0.12796 0.77771 0.41525 0.0
C1361 C 0.1484 0.73479 0.4563 0.0
O1362 O 0.16082 0.71636 0.46107 0.0
N1363 N 0.19621 0.7297 0.42828 0.0
C1364 C 0.21016 0.71199 0.42213 0.0
C1365 C 0.22544 0.7077 0.43976 0.0
C1366 C 0.20403 0.73665 0.44921 0.0
N1367 N 0.22148 0.72308 0.45682 0.0
C1368 C 0.1707 0.70058 0.38424 0.0
C1369 C 0.12945 0.68574 0.40339 0.0
C1370 C 0.14139 0.67071 0.38865 0.0
C1371 C 0.16202 0.6786 0.37842 0.0
C1372 C 0.13857 0.70737 0.40851 0.0
N1373 N 0.15975 0.71404 0.40033 0.0
H1374 H 0.18617 0.70682 0.37576 0.0
H1375 H 0.12787 0.7189 0.41847 0.0
H1376 H 0.20999 0.70297 0.40586 0.0
H1377 H 0.19667 0.75089 0.45894 0.0
O1378 O 0.19487 0.75095 0.38559 0.0
O1379 O 0.18591 0.77339 0.41541 0.0
O1380 O 0.15088 0.74587 0.43732 0.0
C1381 C 0.19775 0.77053 0.39664 0.0
H1382 H 0.10438 0.79076 0.37796 0.0
H1383 H 0.23868 0.69443 0.43992 0.0
H1384 H 0.1126 0.68123 0.41029 0.0
H1385 H 0.17128 0.66799 0.36604 0.0
Co1386 Co 0.50814 0.92997 0.6587 0.0
C1387 C 0.49221 0.90555 0.61672 0.0
C1388 C 0.49619 0.88183 0.64495 0.0
C1389 C 0.49143 0.86942 0.62517 0.0
N1390 N 0.4968 0.90456 0.63969 0.0
N1391 N 0.48918 0.88437 0.60739 0.0
H1392 H 0.49251 0.92129 0.60662 0.0
H1393 H 0.49991 0.87446 0.66162 0.0
C1394 C 0.51664 0.9091 0.70717 0.0
O1395 O 0.52704 0.92747 0.7155 0.0
N1396 N 0.51976 0.95609 0.67606 0.0
C1397 C 0.53786 0.96932 0.66957 0.0
C1398 C 0.54083 0.98664 0.6855 0.0
C1399 C 0.51101 0.96647 0.69509 0.0
N1400 N 0.52418 0.98463 0.70173 0.0
C1401 C 0.54447 0.92368 0.62473 0.0
C1402 C 0.57574 0.90471 0.65561 0.0
C1403 C 0.58022 0.90246 0.63183 0.0
C1404 C 0.56485 0.91345 0.61636 0.0
C1405 C 0.55554 0.91544 0.66313 0.0
N1406 N 0.53934 0.92312 0.64777 0.0
H1407 H 0.53233 0.93109 0.6126 0.0
H1408 H 0.55266 0.91659 0.68143 0.0
H1409 H 0.54836 0.96657 0.65432 0.0
H1410 H 0.49628 0.95996 0.7047 0.0
O1411 O 0.49645 0.95197 0.63565 0.0
O1412 O 0.47715 0.9386 0.66596 0.0
O1413 O 0.51122 0.90758 0.6857 0.0
C1414 C 0.47715 0.95129 0.64753 0.0
H1415 H 0.49018 0.85076 0.62395 0.0
H1416 H 0.55451 0.99944 0.68544 0.0
H1417 H 0.5868 0.89699 0.66858 0.0
H1418 H 0.56792 0.91338 0.59789 0.0
Co1419 Co 0.32323 0.25226 0.91105 0.0
C1420 C 0.34638 0.24081 0.86771 0.0
C1421 C 0.36589 0.2276 0.89655 0.0
C1422 C 0.37784 0.22295 0.87638 0.0
N1423 N 0.34627 0.2389 0.89099 0.0
N1424 N 0.36543 0.23124 0.85839 0.0
H1425 H 0.3331 0.24959 0.85782 0.0
H1426 H 0.37129 0.22322 0.91393 0.0
C1427 C 0.348 0.26238 0.95657 0.0
O1428 O 0.33565 0.28096 0.96096 0.0
N1429 N 0.29948 0.26572 0.93044 0.0
C1430 C 0.28513 0.28343 0.92529 0.0
C1431 C 0.27089 0.28746 0.94385 0.0
C1432 C 0.29291 0.25846 0.95166 0.0
N1433 N 0.27592 0.27186 0.96041 0.0
C1434 C 0.32323 0.29655 0.8863 0.0
C1435 C 0.36556 0.31057 0.90366 0.0
C1436 C 0.35318 0.32597 0.88974 0.0
C1437 C 0.33199 0.31851 0.88034 0.0
C1438 C 0.35644 0.289 0.9088 0.0
N1439 N 0.33478 0.2827 0.90163 0.0
H1440 H 0.30737 0.29057 0.87837 0.0
H1441 H 0.36757 0.27714 0.91785 0.0
H1442 H 0.28452 0.29279 0.90922 0.0
H1443 H 0.30105 0.24431 0.96088 0.0
O1444 O 0.29977 0.24489 0.88754 0.0
O1445 O 0.31049 0.22248 0.91673 0.0
O1446 O 0.34526 0.25073 0.93797 0.0
C1447 C 0.29789 0.2251 0.89845 0.0
H1448 H 0.39427 0.21402 0.87498 0.0
H1449 H 0.2578 0.30083 0.9451 0.0
H1450 H 0.3828 0.31473 0.90981 0.0
H1451 H 0.32242 0.32942 0.86846 0.0
Co1452 Co 0.49562 0.56997 0.662 0.0
C1453 C 0.50855 0.59182 0.61833 0.0
C1454 C 0.52437 0.60981 0.64684 0.0
C1455 C 0.52946 0.62145 0.62658 0.0
N1456 N 0.51115 0.59134 0.64156 0.0
N1457 N 0.51955 0.60997 0.60881 0.0
H1458 H 0.49801 0.57972 0.60864 0.0
H1459 H 0.52947 0.61487 0.66413 0.0
C1460 C 0.49077 0.59629 0.70751 0.0
O1461 O 0.46909 0.59013 0.71063 0.0
N1462 N 0.47986 0.54795 0.68183 0.0
C1463 C 0.46168 0.53441 0.67621 0.0
C1464 C 0.4568 0.52 0.69441 0.0
C1465 C 0.48641 0.5408 0.70314 0.0
N1466 N 0.47231 0.52404 0.71131 0.0
C1467 C 0.45063 0.57556 0.63975 0.0
C1468 C 0.44372 0.62031 0.65513 0.0
C1469 C 0.42592 0.60964 0.64256 0.0
C1470 C 0.42982 0.58698 0.63443 0.0
C1471 C 0.46387 0.60818 0.66034 0.0
N1472 N 0.46667 0.58558 0.65393 0.0
H1473 H 0.45403 0.55891 0.632 0.0
H1474 H 0.47757 0.61753 0.66885 0.0
H1475 H 0.45298 0.53393 0.65978 0.0
H1476 H 0.50115 0.54769 0.71246 0.0
O1477 O 0.49871 0.5463 0.63778 0.0
O1478 O 0.52353 0.55318 0.66622 0.0
O1479 O 0.50167 0.59083 0.68909 0.0
C1480 C 0.51855 0.54164 0.64773 0.0
H1481 H 0.5395 0.6372 0.62501 0.0
H1482 H 0.44331 0.50699 0.69491 0.0
H1483 H 0.44259 0.63827 0.66037 0.0
H1484 H 0.41709 0.57814 0.6239 0.0
Co1485 Co 0.82155 0.24508 0.09104 0.0
C1486 C 0.84404 0.25917 0.1341 0.0
C1487 C 0.86039 0.27558 0.10494 0.0
C1488 C 0.87221 0.28161 0.12479 0.0
N1489 N 0.84286 0.26139 0.11087 0.0
N1490 N 0.86179 0.27131 0.14298 0.0
H1491 H 0.83264 0.24826 0.14423 0.0
H1492 H 0.86459 0.28087 0.08748 0.0
C1493 C 0.84809 0.23963 0.04558 0.0
O1494 O 0.84221 0.21785 0.04274 0.0
N1495 N 0.79967 0.22866 0.07161 0.0
C1496 C 0.78631 0.21037 0.07735 0.0
C1497 C 0.77221 0.20498 0.05902 0.0
C1498 C 0.7927 0.23476 0.05012 0.0
N1499 N 0.77626 0.2203 0.04197 0.0
C1500 C 0.82738 0.20047 0.1139 0.0
C1501 C 0.87216 0.19357 0.09866 0.0
C1502 C 0.86132 0.17562 0.11092 0.0
C1503 C 0.8387 0.17958 0.1191 0.0
C1504 C 0.86007 0.21375 0.09346 0.0
N1505 N 0.83743 0.21648 0.09971 0.0
H1506 H 0.8107 0.20388 0.12158 0.0
H1507 H 0.86938 0.22747 0.08491 0.0
H1508 H 0.78576 0.20191 0.0939 0.0
H1509 H 0.7995 0.24944 0.04067 0.0
O1510 O 0.79803 0.24845 0.11533 0.0
O1511 O 0.8044 0.27272 0.08631 0.0
O1512 O 0.84232 0.25075 0.06377 0.0
C1513 C 0.79307 0.26801 0.10501 0.0
H1514 H 0.88732 0.29266 0.12583 0.0
H1515 H 0.7594 0.19131 0.05853 0.0
H1516 H 0.89013 0.19241 0.09345 0.0
H1517 H 0.82973 0.16678 0.12943 0.0
Co1518 Co 0.50342 0.07418 0.83929 0.0
C1519 C 0.49044 0.0968 0.8825 0.0
C1520 C 0.47686 0.11577 0.85348 0.0
C1521 C 0.47123 0.12739 0.87359 0.0
N1522 N 0.48902 0.09671 0.85919 0.0
N1523 N 0.47975 0.11531 0.89169 0.0
H1524 H 0.49956 0.08388 0.89255 0.0
H1525 H 0.47243 0.12094 0.83605 0.0
C1526 C 0.51217 0.09895 0.79336 0.0
O1527 O 0.53058 0.0866 0.78832 0.0
N1528 N 0.51794 0.05095 0.82006 0.0
C1529 C 0.53686 0.03815 0.82492 0.0
C1530 C 0.54114 0.02353 0.80671 0.0
C1531 C 0.51038 0.04317 0.79935 0.0
N1532 N 0.52459 0.02683 0.79062 0.0
C1533 C 0.54654 0.07605 0.86558 0.0
C1534 C 0.561 0.1178 0.84721 0.0
C1535 C 0.57556 0.10642 0.86277 0.0
C1536 C 0.56789 0.08551 0.87257 0.0
C1537 C 0.53989 0.10809 0.84115 0.0
N1538 N 0.53337 0.08675 0.84906 0.0
H1539 H 0.54052 0.06021 0.87353 0.0
H1540 H 0.52856 0.11862 0.83084 0.0
H1541 H 0.54695 0.03892 0.84055 0.0
H1542 H 0.49538 0.05005 0.79044 0.0
O1543 O 0.49692 0.05056 0.86282 0.0
O1544 O 0.47412 0.0602 0.83351 0.0
O1545 O 0.50119 0.09619 0.81238 0.0
C1546 C 0.47727 0.04782 0.85187 0.0
H1547 H 0.46143 0.14332 0.87487 0.0
H1548 H 0.55537 0.0114 0.80535 0.0
H1549 H 0.56543 0.13474 0.84046 0.0
H1550 H 0.57821 0.07665 0.88548 0.0
Co1551 Co 0.99508 0.9303 0.34131 0.0
C1552 C 0.00999 0.90732 0.38376 0.0
C1553 C 0.02561 0.8911 0.35409 0.0
C1554 C 0.03209 0.87912 0.37371 0.0
N1555 N 0.01167 0.90868 0.36051 0.0
N1556 N 0.02231 0.88951 0.3922 0.0
H1557 H 0.99937 0.91865 0.39426 0.0
H1558 H 0.03044 0.88698 0.33648 0.0
C1559 C 0.99012 0.90608 0.2947 0.0
O1560 O 0.96848 0.91257 0.29201 0.0
N1561 N 0.97832 0.95232 0.32247 0.0
C1562 C 0.95772 0.96256 0.32665 0.0
C1563 C 0.95237 0.97682 0.30837 0.0
C1564 C 0.98554 0.96111 0.30209 0.0
N1565 N 0.96987 0.97583 0.29302 0.0
C1566 C 0.95206 0.92276 0.36583 0.0
C1567 C 0.94304 0.87979 0.3468 0.0
C1568 C 0.92693 0.88934 0.36214 0.0
C1569 C 0.93184 0.91091 0.37217 0.0
C1570 C 0.96304 0.892 0.34126 0.0
N1571 N 0.96674 0.91385 0.34955 0.0
H1572 H 0.95597 0.93909 0.37406 0.0
H1573 H 0.97584 0.88324 0.33094 0.0
H1574 H 0.94717 0.96029 0.34182 0.0
H1575 H 0.00164 0.9563 0.29377 0.0
O1576 O 0.99758 0.95303 0.36632 0.0
O1577 O 0.0225 0.94824 0.33748 0.0
O1578 O 0.00115 0.91055 0.31333 0.0
C1579 C 0.01713 0.95878 0.35648 0.0
H1580 H 0.04307 0.86393 0.37439 0.0
H1581 H 0.93691 0.98727 0.30658 0.0
H1582 H 0.94066 0.86254 0.33979 0.0
H1583 H 0.92023 0.91851 0.38479 0.0
C1584 C 0.02555 0.12445 0.24358 0.0
C1585 C 0.0204 0.14781 0.2476 0.0
H1586 H 0.01852 0.09426 0.22346 0.0
C1587 C 0.00167 0.15803 0.23588 0.0
H1588 H 0.03984 0.11618 0.25248 0.0
C1589 C 0.9897 0.14567 0.21881 0.0
C1590 C 0.99598 0.12276 0.21356 0.0
H1591 H 0.99748 0.17613 0.23856 0.0
H1592 H 0.97639 0.15442 0.2089 0.0
C1593 C 0.01327 0.11194 0.22694 0.0
C1594 C 0.13731 0.74657 0.49668 0.0
C1595 C 0.13172 0.74426 0.47308 0.0
H1596 H 0.12968 0.7644 0.52859 0.0
C1597 C 0.11173 0.75502 0.4645 0.0
H1598 H 0.15278 0.73853 0.50359 0.0
C1599 C 0.09883 0.76967 0.47854 0.0
C1600 C 0.10556 0.77383 0.5015 0.0
H1601 H 0.1069 0.75327 0.44645 0.0
H1602 H 0.0843 0.77887 0.471 0.0
C1603 C 0.1242 0.76136 0.51092 0.0
C1604 C 0.50009 0.89764 0.74563 0.0
C1605 C 0.50739 0.89143 0.7232 0.0
H1606 H 0.47882 0.88858 0.77486 0.0
C1607 C 0.5021 0.86925 0.71484 0.0
H1608 H 0.50395 0.91465 0.75256 0.0
C1609 C 0.48752 0.85468 0.72734 0.0
C1610 C 0.47841 0.86176 0.74871 0.0
H1611 H 0.50822 0.86362 0.69809 0.0
H1612 H 0.4824 0.8383 0.71974 0.0
C1613 C 0.4857 0.8828 0.75839 0.0
C1614 C 0.37196 0.23588 0.01115 0.0
C1615 C 0.39102 0.22397 0.00186 0.0
H1616 H 0.34298 0.25812 0.00366 0.0
C1617 C 0.39812 0.22869 0.97911 0.0
H1618 H 0.3662 0.23238 0.02866 0.0
C1619 C 0.38513 0.24326 0.96507 0.0
C1620 C 0.36475 0.25337 0.97347 0.0
H1621 H 0.41297 0.21994 0.97169 0.0
H1622 H 0.39019 0.24537 0.94713 0.0
C1623 C 0.35879 0.25059 0.99692 0.0
C1624 C 0.03946 0.88106 0.26046 0.0
C1625 C 0.02852 0.86415 0.24681 0.0
H1626 H 0.03586 0.90739 0.28608 0.0
C1627 C 0.00413 0.86297 0.24701 0.0
H1628 H 0.05811 0.88268 0.26081 0.0
C1629 C 0.99119 0.87746 0.26168 0.0
C1630 C 0.00251 0.89308 0.2765 0.0
H1631 H 0.99512 0.85014 0.23671 0.0
H1632 H 0.97254 0.87556 0.26235 0.0
C1633 C 0.02667 0.8952 0.27515 0.0
C1634 C 0.35887 0.75272 0.49897 0.0
C1635 C 0.36309 0.74718 0.52234 0.0
H1636 H 0.37036 0.77191 0.46916 0.0
C1637 C 0.38432 0.7536 0.53229 0.0
H1638 H 0.34268 0.74794 0.4908 0.0
C1639 C 0.39978 0.76755 0.52013 0.0
C1640 C 0.39464 0.77481 0.49754 0.0
H1641 H 0.38846 0.7489 0.54995 0.0
H1642 H 0.41529 0.77359 0.52879 0.0
C1643 C 0.37465 0.76642 0.48658 0.0
C1644 C 0.48696 0.12556 0.73917 0.0
C1645 C 0.47489 0.14427 0.74896 0.0
H1646 H 0.50883 0.09611 0.74593 0.0
C1647 C 0.47877 0.15008 0.77223 0.0
H1648 H 0.48413 0.12077 0.72125 0.0
C1649 C 0.49272 0.13627 0.7861 0.0
C1650 C 0.50306 0.11627 0.77705 0.0
H1651 H 0.46991 0.16466 0.78008 0.0
H1652 H 0.49435 0.14051 0.8043 0.0
C1653 C 0.50105 0.11154 0.75323 0.0
C1654 C 0.13423 0.23496 0.98897 0.0
C1655 C 0.11304 0.22746 0.99813 0.0
H1656 H 0.16595 0.25308 0.99578 0.0
C1657 C 0.10556 0.23614 0.01956 0.0
H1658 H 0.14033 0.22835 0.97251 0.0
C1659 C 0.11992 0.25037 0.03267 0.0
C1660 C 0.14223 0.25582 0.02481 0.0
H1661 H 0.0891 0.23075 0.02681 0.0
H1662 H 0.11411 0.2559 0.04962 0.0
C1663 C 0.14883 0.24909 0.0023 0.0
C1664 C 0.23373 0.00486 0.1606 0.0
C1665 C 0.24891 0.01909 0.14807 0.0
H1666 H 0.20476 0.98178 0.1591 0.0
C1667 C 0.24916 0.01793 0.12388 0.0
H1668 H 0.23309 0.00587 0.17933 0.0
C1669 C 0.23303 0.00417 0.11226 0.0
C1670 C 0.21608 0.99176 0.12471 0.0
H1671 H 0.2605 0.02911 0.11396 0.0
H1672 H 0.23263 0.00484 0.09352 0.0
C1673 C 0.21746 0.99117 0.149 0.0
C1674 C 0.21017 0.9909 0.36796 0.0
C1675 C 0.2208 0.00348 0.38585 0.0
H1676 H 0.21406 0.96586 0.3411 0.0
C1677 C 0.24508 0.00237 0.38812 0.0
H1678 H 0.19163 0.99138 0.36544 0.0
C1679 C 0.25813 0.98758 0.37385 0.0
C1680 C 0.24697 0.97364 0.35736 0.0
H1681 H 0.25385 0.01185 0.40172 0.0
H1682 H 0.2766 0.98601 0.37668 0.0
C1683 C 0.22305 0.97611 0.35401 0.0
C1684 C 0.26487 0.9791 0.59963 0.0
C1685 C 0.27113 0.00149 0.60661 0.0
H1686 H 0.24775 0.94766 0.60866 0.0
C1687 C 0.26116 0.01103 0.62663 0.0
H1688 H 0.27226 0.97148 0.58415 0.0
C1689 C 0.24697 0.99726 0.6408 0.0
C1690 C 0.24282 0.97401 0.63488 0.0
H1691 H 0.26597 0.02824 0.63235 0.0
H1692 H 0.24111 0.00406 0.65728 0.0
C1693 C 0.25083 0.9655 0.61362 0.0
C1694 C 0.24179 0.02738 0.8935 0.0
C1695 C 0.24731 0.03434 0.87086 0.0
H1696 H 0.25078 0.0056 0.92221 0.0
C1697 C 0.26469 0.02226 0.85872 0.0
H1698 H 0.22847 0.03629 0.90324 0.0
C1699 C 0.27769 0.00509 0.86968 0.0
C1700 C 0.27313 0.99917 0.89275 0.0
H1701 H 0.26941 0.02714 0.84123 0.0
H1702 H 0.29203 0.99722 0.86048 0.0
C1703 C 0.25445 0.00971 0.90427 0.0
C1704 C 0.60866 0.24837 0.99809 0.0
C1705 C 0.61253 0.27211 0.0022 0.0
H1706 H 0.62012 0.21775 0.98016 0.0
C1707 C 0.63316 0.28217 0.99424 0.0
H1708 H 0.59294 0.2401 0.0041 0.0
C1709 C 0.64834 0.26957 0.98035 0.0
C1710 C 0.64353 0.24646 0.97462 0.0
H1711 H 0.63711 0.30012 0.99785 0.0
H1712 H 0.6634 0.27822 0.97324 0.0
C1713 C 0.62416 0.23557 0.98443 0.0
C1714 C 0.00238 0.39022 0.24328 0.0
C1715 C 0.00252 0.38626 0.21924 0.0
H1716 H 0.9867 0.38125 0.27598 0.0
C1717 C 0.98944 0.36796 0.21015 0.0
H1718 H 0.01229 0.40434 0.25063 0.0
C1719 C 0.97492 0.35515 0.22434 0.0
C1720 C 0.97316 0.36022 0.24804 0.0
H1721 H 0.98958 0.36426 0.19175 0.0
H1722 H 0.96428 0.3418 0.21653 0.0
C1723 C 0.98773 0.37715 0.25771 0.0
C1724 C 0.86523 0.71275 0.4917 0.0
C1725 C 0.8847 0.72317 0.50178 0.0
H1726 H 0.8359 0.71684 0.46965 0.0
C1727 C 0.88751 0.7473 0.5 0.0
H1728 H 0.86234 0.69428 0.49323 0.0
C1729 C 0.87207 0.76042 0.48647 0.0
C1730 C 0.85386 0.74939 0.47467 0.0
H1731 H 0.90245 0.75571 0.50762 0.0
H1732 H 0.87534 0.77871 0.48392 0.0
C1733 C 0.85005 0.72568 0.47825 0.0
C1734 C 0.00141 0.60575 0.25193 0.0
C1735 C 0.00527 0.6109 0.27542 0.0
H1736 H 0.98284 0.6152 0.22096 0.0
C1737 C 0.99684 0.63175 0.28457 0.0
H1738 H 0.00764 0.58965 0.24461 0.0
C1739 C 0.9828 0.64605 0.2713 0.0
C1740 C 0.97697 0.63989 0.24855 0.0
H1741 H -0.00018 0.63624 0.30255 0.0
H1742 H 0.97525 0.66126 0.27933 0.0
C1743 C 0.98725 0.62028 0.23847 0.0
C1744 C 0.49781 0.38921 0.75272 0.0
C1745 C 0.49458 0.38407 0.77632 0.0
H1746 H 0.51583 0.38011 0.72131 0.0
C1747 C 0.50398 0.36358 0.78535 0.0
H1748 H 0.49079 0.40499 0.7454 0.0
C1749 C 0.51824 0.3497 0.77183 0.0
C1750 C 0.52326 0.35584 0.74888 0.0
H1751 H 0.50142 0.35896 0.80335 0.0
H1752 H 0.52637 0.33473 0.77973 0.0
C1753 C 0.51213 0.37507 0.73899 0.0
C1754 C 0.49308 0.62557 0.73991 0.0
C1755 C 0.50372 0.60927 0.72533 0.0
H1756 H 0.49819 0.65317 0.76434 0.0
C1757 C 0.52781 0.60631 0.72654 0.0
H1758 H 0.4745 0.62811 0.73935 0.0
C1759 C 0.54123 0.62027 0.74084 0.0
C1760 C 0.53099 0.63779 0.75425 0.0
H1761 H 0.53649 0.59357 0.71582 0.0
H1762 H 0.5598 0.61796 0.7404 0.0
C1763 C 0.50665 0.63985 0.75421 0.0
C1764 C 0.85878 0.27669 0.02678 0.0
C1765 C 0.86107 0.2525 0.02764 0.0
H1766 H 0.87072 0.30849 0.01276 0.0
C1767 C 0.87655 0.24159 0.01236 0.0
H1768 H 0.8467 0.28563 0.03803 0.0
C1769 C 0.8906 0.25493 0.9976 0.0
C1770 C 0.88913 0.27931 0.99777 0.0
H1771 H 0.87859 0.22295 0.0126 0.0
H1772 H 0.90323 0.24622 0.98682 0.0
C1773 C 0.87251 0.28987 0.01206 0.0
C1774 C 0.60219 0.72362 0.52549 0.0
C1775 C 0.60705 0.72089 0.50181 0.0
H1776 H 0.61185 0.73923 0.5575 0.0
C1777 C 0.62422 0.7348 0.49158 0.0
H1778 H 0.58869 0.71358 0.5338 0.0
C1779 C 0.6376 0.74976 0.50538 0.0
C1780 C 0.63378 0.75088 0.52942 0.0
H1781 H 0.6282 0.73308 0.47333 0.0
H1782 H 0.65184 0.75917 0.4976 0.0
C1783 C 0.61537 0.7384 0.53909 0.0
C1784 C 0.7368 0.49067 0.62697 0.0
C1785 C 0.72286 0.50086 0.60983 0.0
H1786 H 0.76046 0.49676 0.65518 0.0
C1787 C 0.72461 0.52475 0.60579 0.0
H1788 H 0.73574 0.47225 0.63034 0.0
C1789 C 0.73869 0.53851 0.61959 0.0
C1790 C 0.75121 0.52883 0.63801 0.0
H1791 H 0.71443 0.53299 0.59234 0.0
H1792 H 0.73911 0.55696 0.61631 0.0
C1793 C 0.75091 0.50465 0.6411 0.0
C1794 C 0.74208 0.46015 0.88278 0.0
C1795 C 0.7524 0.46993 0.86315 0.0
H1796 H 0.71895 0.46485 0.91111 0.0
C1797 C 0.74957 0.49372 0.85877 0.0
H1798 H 0.7442 0.44191 0.88664 0.0
C1799 C 0.73484 0.50704 0.87288 0.0
C1800 C 0.72289 0.49653 0.8913 0.0
H1801 H 0.75726 0.50153 0.84355 0.0
H1802 H 0.73156 0.52496 0.86843 0.0
C1803 C 0.72753 0.47329 0.8967 0.0
C1804 C 0.77637 0.47413 0.14021 0.0
C1805 C 0.75246 0.47223 0.13629 0.0
H1806 H 0.80849 0.48857 0.12934 0.0
C1807 C 0.74216 0.48585 0.11895 0.0
H1808 H 0.78472 0.46427 0.15382 0.0
C1809 C 0.75602 0.49982 0.1046 0.0
C1810 C 0.78021 0.50027 0.10762 0.0
H1811 H 0.72372 0.48473 0.11569 0.0
H1812 H 0.74804 0.50917 0.09043 0.0
C1813 C 0.79002 0.48803 0.12614 0.0
C1814 C 0.76893 0.52475 0.39638 0.0
C1815 C 0.77264 0.50109 0.39234 0.0
H1816 H 0.7535 0.55604 0.38484 0.0
C1817 C 0.7606 0.49013 0.3743 0.0
H1818 H 0.77777 0.53355 0.41041 0.0
C1819 C 0.7466 0.50323 0.35928 0.0
C1820 C 0.74442 0.52737 0.36231 0.0
H1821 H 0.76323 0.47187 0.37086 0.0
H1822 H 0.73873 0.49471 0.34455 0.0
C1823 C 0.75492 0.53767 0.38167 0.0
C1824 C 0.1407 0.22234 0.17943 0.0
C1825 C 0.12443 0.22886 0.16241 0.0
H1826 H 0.14602 0.20954 0.21403 0.0
C1827 C 0.10099 0.23031 0.1686 0.0
H1828 H 0.15891 0.221 0.1752 0.0
C1829 C 0.09375 0.22396 0.19071 0.0
C1830 C 0.10974 0.21601 0.20724 0.0
H1831 H 0.08812 0.23584 0.15614 0.0
H1832 H 0.07538 0.22425 0.19455 0.0
C1833 C 0.1334 0.21596 0.20172 0.0
C1834 C 0.02058 0.8591 0.4216 0.0
C1835 C 0.02395 0.88237 0.41591 0.0
H1836 H 0.02394 0.83286 0.44733 0.0
C1837 C 0.03044 0.89813 0.43332 0.0
H1838 H 0.01517 0.84682 0.40849 0.0
C1839 C 0.03575 0.89017 0.45567 0.0
C1840 C 0.03421 0.86644 0.46073 0.0
H1841 H 0.03302 0.91623 0.42915 0.0
H1842 H 0.04288 0.90214 0.46823 0.0
C1843 C 0.02537 0.85125 0.44386 0.0
C1844 C 0.35832 0.7786 0.67628 0.0
C1845 C 0.37406 0.7713 0.65914 0.0
H1846 H 0.35426 0.79204 0.71079 0.0
C1847 C 0.39731 0.7679 0.66512 0.0
H1848 H 0.34026 0.78125 0.67202 0.0
C1849 C 0.40513 0.77347 0.68722 0.0
C1850 C 0.38993 0.78285 0.70375 0.0
H1851 H 0.40962 0.76176 0.65238 0.0
H1852 H 0.42348 0.772 0.69086 0.0
C1853 C 0.36624 0.78447 0.6985 0.0
C1854 C 0.46425 0.11106 0.95458 0.0
C1855 C 0.46581 0.13443 0.96109 0.0
H1856 H 0.4676 0.08658 0.92667 0.0
C1857 C 0.47549 0.15045 0.94551 0.0
H1858 H 0.45646 0.09848 0.9661 0.0
C1859 C 0.48108 0.14386 0.92301 0.0
C1860 C 0.47761 0.12102 0.91578 0.0
H1861 H 0.47692 0.16859 0.95012 0.0
H1862 H 0.4871 0.15683 0.91088 0.0
C1863 C 0.47031 0.10435 0.93199 0.0
C1864 C 0.09887 0.77579 0.33011 0.0
C1865 C 0.12232 0.77293 0.3356 0.0
H1866 H 0.07397 0.78526 0.30453 0.0
C1867 C 0.13893 0.77504 0.31783 0.0
H1868 H 0.08569 0.7738 0.3433 0.0
C1869 C 0.13221 0.78166 0.29536 0.0
C1870 C 0.1088 0.78608 0.29045 0.0
H1871 H 0.15716 0.77295 0.32164 0.0
H1872 H 0.14539 0.78477 0.28239 0.0
C1873 C 0.09219 0.78219 0.30783 0.0
C1874 C 0.46804 0.88746 0.54584 0.0
C1875 C 0.47325 0.86502 0.53809 0.0
H1876 H 0.4686 0.9111 0.57447 0.0
C1877 C 0.48641 0.85034 0.5523 0.0
H1878 H 0.45741 0.89888 0.53541 0.0
C1879 C 0.49261 0.85716 0.57461 0.0
C1880 C 0.48563 0.87878 0.58329 0.0
H1881 H 0.49048 0.83288 0.54673 0.0
H1882 H 0.50205 0.84508 0.58538 0.0
C1883 C 0.47418 0.8943 0.56832 0.0
C1884 C 0.39415 0.23419 0.82727 0.0
C1885 C 0.37135 0.22996 0.83427 0.0
H1886 H 0.41914 0.23138 0.80021 0.0
C1887 C 0.35496 0.22276 0.81772 0.0
H1888 H 0.40691 0.24017 0.83965 0.0
C1889 C 0.36194 0.21755 0.79501 0.0
C1890 C 0.38531 0.21982 0.78869 0.0
H1891 H 0.33722 0.21948 0.82283 0.0
H1892 H 0.34961 0.20977 0.78321 0.0
C1893 C 0.401 0.22943 0.80465 0.0
C1894 C 0.03451 0.11653 0.04925 0.0
C1895 C 0.03538 0.1404 0.04472 0.0
H1896 H 0.02883 0.09022 0.07498 0.0
C1897 C 0.02825 0.156 0.06204 0.0
H1898 H 0.04025 0.10418 0.03635 0.0
C1899 C 0.02246 0.14815 0.08406 0.0
C1900 C 0.02316 0.12449 0.08916 0.0
H1901 H 0.02862 0.17452 0.05902 0.0
H1902 H 0.0181 0.1606 0.09739 0.0
C1903 C 0.02827 0.10861 0.07136 0.0
C1904 C 0.18972 0.09791 0.22994 0.0
C1905 C 0.20461 0.11267 0.21764 0.0
H1906 H 0.15623 0.09298 0.24479 0.0
C1907 C 0.19741 0.13534 0.21274 0.0
H1908 H 0.19486 0.08027 0.23378 0.0
C1909 C 0.17494 0.14251 0.2186 0.0
C1910 C 0.15942 0.12709 0.22945 0.0
H1911 H 0.20838 0.14683 0.20276 0.0
H1912 H 0.16933 0.15963 0.21345 0.0
C1913 C 0.16743 0.10504 0.23584 0.0
C1914 C 0.1484 0.91752 0.47108 0.0
C1915 C 0.12491 0.91279 0.47484 0.0
H1916 H 0.17378 0.94245 0.46125 0.0
C1917 C 0.10885 0.93116 0.47371 0.0
H1918 H 0.16118 0.90386 0.47231 0.0
C1919 C 0.11607 0.95351 0.46731 0.0
C1920 C 0.13945 0.95774 0.46213 0.0
H1921 H 0.09059 0.92795 0.47649 0.0
H1922 H 0.10324 0.96701 0.46507 0.0
C1923 C 0.15558 0.9397 0.46491 0.0
C1924 C 0.33667 0.89745 0.71922 0.0
C1925 C 0.34148 0.87372 0.7198 0.0
H1926 H 0.31142 0.92375 0.71351 0.0
C1927 C 0.32312 0.85783 0.71743 0.0
H1928 H 0.35043 0.90999 0.72148 0.0
C1929 C 0.30059 0.86567 0.71265 0.0
C1930 C 0.29619 0.8895 0.71052 0.0
H1931 H 0.32649 0.83939 0.71787 0.0
H1932 H 0.28709 0.85315 0.70909 0.0
C1933 C 0.31427 0.90525 0.71487 0.0
C1934 C 0.39036 0.06738 0.97057 0.0
C1935 C 0.37425 0.08556 0.97287 0.0
H1936 H 0.39568 0.03168 0.96121 0.0
C1937 C 0.35061 0.0807 0.97077 0.0
H1938 H 0.40873 0.07077 0.97214 0.0
C1939 C 0.34319 0.05849 0.96507 0.0
C1940 C 0.35927 0.04065 0.96097 0.0
H1941 H 0.33787 0.09429 0.97294 0.0
H1942 H 0.32481 0.05561 0.96265 0.0
C1943 C 0.38292 0.04503 0.96453 0.0
C1944 C 0.20317 0.86 0.28683 0.0
C1945 C 0.21316 0.88092 0.27957 0.0
H1946 H 0.17282 0.8386 0.28658 0.0
C1947 C 0.2015 0.89463 0.2633 0.0
H1948 H 0.21162 0.84949 0.29988 0.0
C1949 C 0.17939 0.88854 0.25577 0.0
C1950 C 0.16828 0.86879 0.26469 0.0
H1951 H 0.20879 0.911 0.25772 0.0
H1952 H 0.17062 0.89995 0.24379 0.0
C1953 C 0.18083 0.85397 0.27945 0.0
C1954 C 0.387 0.95224 0.53594 0.0
C1955 C 0.363 0.95616 0.53565 0.0
H1956 H 0.41417 0.92693 0.53253 0.0
C1957 C 0.34816 0.93816 0.52865 0.0
H1958 H 0.39878 0.96569 0.54161 0.0
C1959 C 0.3568 0.9161 0.52425 0.0
C1960 C 0.38052 0.91167 0.52621 0.0
H1961 H 0.32957 0.9407 0.52814 0.0
H1962 H 0.34488 0.90225 0.52005 0.0
C1963 C 0.39574 0.93008 0.53105 0.0
C1964 C 0.29646 0.13559 0.78429 0.0
C1965 C 0.29256 0.11177 0.78715 0.0
H1966 H 0.32177 0.16216 0.77783 0.0
C1967 C 0.31089 0.09621 0.78314 0.0
H1968 H 0.28272 0.14795 0.78753 0.0
C1969 C 0.33303 0.10427 0.77817 0.0
C1970 C 0.33735 0.12805 0.7767 0.0
H1971 H 0.3084 0.07771 0.785 0.0
H1972 H 0.34697 0.09191 0.77602 0.0
C1973 C 0.31876 0.14369 0.77894 0.0
C1974 C 0.15697 0.06443 0.03914 0.0
C1975 C 0.14115 0.04607 0.04166 0.0
H1976 H 0.16189 0.1006 0.03301 0.0
C1977 C 0.11756 0.0502 0.03749 0.0
H1978 H 0.17533 0.0618 0.04201 0.0
C1979 C 0.10989 0.07267 0.03217 0.0
C1980 C 0.12572 0.09122 0.03121 0.0
H1981 H 0.10498 0.03644 0.03955 0.0
H1982 H 0.09154 0.07577 0.02996 0.0
C1983 C 0.14934 0.08672 0.03414 0.0
C1984 C 0.21526 0.16166 0.1026 0.0
C1985 C 0.21903 0.15731 0.12614 0.0
H1986 H 0.20712 0.18658 0.07664 0.0
C1987 C 0.21915 0.17609 0.14175 0.0
H1988 H 0.21553 0.14764 0.09015 0.0
C1989 C 0.21426 0.19863 0.13404 0.0
C1990 C 0.20939 0.20268 0.11058 0.0
H1991 H 0.22195 0.17319 0.16006 0.0
H1992 H 0.21316 0.21257 0.14654 0.0
C1993 C 0.21064 0.18405 0.0949 0.0
C1994 C 0.72809 0.30517 0.89929 0.0
C1995 C 0.71945 0.28812 0.88418 0.0
H1996 H 0.73753 0.34076 0.90369 0.0
C1997 C 0.71756 0.29323 0.86048 0.0
H1998 H 0.72975 0.3017 0.91766 0.0
C1999 C 0.72227 0.31573 0.85249 0.0
C2000 C 0.72854 0.33327 0.86821 0.0
H2001 H 0.71054 0.28056 0.84855 0.0
H2002 H 0.71935 0.31987 0.83444 0.0
C2003 C 0.73231 0.32757 0.89143 0.0
C2004 C 0.9581 0.4687 0.10881 0.0
C2005 C 0.96253 0.46919 0.13272 0.0
H2006 H 0.93226 0.47243 0.08218 0.0
C2007 C 0.94528 0.47751 0.14778 0.0
H2008 H 0.97095 0.46199 0.09689 0.0
C2009 C 0.92324 0.48269 0.13953 0.0
C2010 C 0.91816 0.48023 0.116 0.0
H2011 H 0.94825 0.47812 0.16631 0.0
H2012 H 0.90978 0.48752 0.15167 0.0
C2013 C 0.93597 0.47437 0.10046 0.0
C2014 C 0.77808 0.68058 0.3555 0.0
C2015 C 0.76358 0.66748 0.37013 0.0
H2016 H 0.79726 0.71214 0.35114 0.0
C2017 C 0.75401 0.67829 0.38975 0.0
H2018 H 0.78574 0.67286 0.34024 0.0
C2019 C 0.76057 0.70071 0.39586 0.0
C2020 C 0.77649 0.713 0.3823 0.0
H2021 H 0.74219 0.66914 0.40102 0.0
H2022 H 0.75448 0.70783 0.41213 0.0
C2023 C 0.78444 0.70322 0.36152 0.0
C2024 C 0.06331 0.03207 0.1565 0.0
C2025 C 0.04603 0.03682 0.14 0.0
H2026 H 0.09853 0.02258 0.1628 0.0
C2027 C 0.05108 0.03372 0.11644 0.0
H2028 H 0.05992 0.03415 0.17484 0.0
C2029 C 0.07346 0.02715 0.10954 0.0
C2030 C 0.09107 0.02367 0.12613 0.0
H2031 H 0.03819 0.03758 0.10337 0.0
H2032 H 0.07724 0.02582 0.09123 0.0
C2033 C 0.08553 0.02565 0.14965 0.0
C2034 C 0.28262 0.81185 0.59012 0.0
C2035 C 0.28664 0.79374 0.6059 0.0
H2036 H 0.27486 0.84774 0.5853 0.0
C2037 C 0.2833 0.7979 0.62964 0.0
H2038 H 0.28489 0.80917 0.57169 0.0
C2039 C 0.27753 0.82023 0.63745 0.0
C2040 C 0.2752 0.83867 0.62163 0.0
H2041 H 0.28658 0.78437 0.6422 0.0
H2042 H 0.27619 0.82334 0.65588 0.0
C2043 C 0.27707 0.83402 0.59789 0.0
C2044 C 0.92913 0.5288 0.39359 0.0
C2045 C 0.91097 0.52498 0.37775 0.0
H2046 H 0.96488 0.53846 0.39797 0.0
C2047 C 0.91598 0.52416 0.35406 0.0
H2048 H 0.92561 0.52944 0.412 0.0
C2049 C 0.93831 0.52865 0.34616 0.0
C2050 C 0.9561 0.5345 0.36174 0.0
H2051 H 0.90239 0.52076 0.34159 0.0
H2052 H 0.94129 0.52899 0.32763 0.0
C2053 C 0.9516 0.53368 0.38562 0.0
C2054 C 0.55906 0.46503 0.84837 0.0
C2055 C 0.54117 0.45936 0.86391 0.0
H2056 H 0.59494 0.47325 0.84401 0.0
C2057 C 0.54537 0.46096 0.88781 0.0
H2058 H 0.55632 0.46413 0.82983 0.0
C2059 C 0.56766 0.46647 0.8959 0.0
C2060 C 0.58592 0.47008 0.88014 0.0
H2061 H 0.532 0.45639 0.90015 0.0
H2062 H 0.571 0.46644 0.91435 0.0
C2063 C 0.58121 0.47009 0.85639 0.0
C2064 C 0.63768 0.71736 0.70631 0.0
C2065 C 0.61408 0.71346 0.71074 0.0
H2066 H 0.66342 0.72482 0.68036 0.0
C2067 C 0.59797 0.71711 0.69284 0.0
H2068 H 0.65047 0.71443 0.7197 0.0
C2069 C 0.60533 0.72254 0.67054 0.0
C2070 C 0.62895 0.7248 0.6656 0.0
H2071 H 0.57962 0.71445 0.69575 0.0
H2072 H 0.59258 0.7242 0.65689 0.0
C2073 C 0.64507 0.72313 0.68382 0.0
C2074 C 0.52905 0.37783 0.95373 0.0
C2075 C 0.53268 0.35413 0.9579 0.0
H2076 H 0.52138 0.4039 0.92827 0.0
C2077 C 0.52837 0.33823 0.93996 0.0
H2078 H 0.53253 0.39048 0.96713 0.0
C2079 C 0.52241 0.34586 0.91786 0.0
C2080 C 0.52037 0.36957 0.91314 0.0
H2081 H 0.53086 0.31983 0.94267 0.0
H2082 H 0.52014 0.33322 0.9042 0.0
C2083 C 0.52284 0.38549 0.93147 0.0
C2084 C 0.89989 0.27455 0.19478 0.0
C2085 C 0.88452 0.28301 0.21167 0.0
H2086 H 0.90456 0.26463 0.15935 0.0
C2087 C 0.86074 0.28394 0.20662 0.0
H2088 H 0.91832 0.27366 0.19823 0.0
C2089 C 0.85289 0.27855 0.18423 0.0
C2090 C 0.8688 0.27254 0.16678 0.0
H2091 H 0.84861 0.29082 0.21918 0.0
H2092 H 0.83474 0.2808 0.18006 0.0
C2093 C 0.89214 0.26963 0.17249 0.0
C2094 C 0.97375 0.65555 0.43892 0.0
C2095 C 0.96747 0.63999 0.45657 0.0
H2096 H 0.98276 0.66006 0.40326 0.0
C2097 C 0.96876 0.6161 0.45219 0.0
H2098 H 0.97301 0.67408 0.44181 0.0
C2099 C 0.97446 0.60808 0.42993 0.0
C2100 C 0.97866 0.62387 0.41182 0.0
H2101 H 0.96367 0.60374 0.46535 0.0
H2102 H 0.97404 0.58965 0.42648 0.0
C2103 C 0.97911 0.6476 0.41679 0.0
C2104 C 0.60531 0.268 0.83082 0.0
C2105 C 0.62885 0.27025 0.83609 0.0
H2106 H 0.57881 0.27216 0.80545 0.0
C2107 C 0.64456 0.27563 0.81822 0.0
H2108 H 0.593 0.26342 0.84419 0.0
C2109 C 0.63645 0.28084 0.79588 0.0
C2110 C 0.61259 0.28037 0.7912 0.0
H2111 H 0.66285 0.27737 0.82197 0.0
H2112 H 0.64856 0.287 0.78295 0.0
C2113 C 0.5973 0.27277 0.80858 0.0
C2114 C 0.96974 0.34739 0.05566 0.0
C2115 C 0.96544 0.36328 0.03772 0.0
H2116 H 0.97742 0.34242 0.09155 0.0
C2117 C 0.96892 0.38699 0.04191 0.0
H2118 H 0.96739 0.32897 0.05292 0.0
C2119 C 0.97486 0.39467 0.06426 0.0
C2120 C 0.97712 0.37872 0.08257 0.0
H2121 H 0.96546 0.39962 0.02848 0.0
H2122 H 0.97617 0.41308 0.06758 0.0
C2123 C 0.97533 0.35502 0.07783 0.0
C2124 C 0.90159 0.72038 0.31116 0.0
C2125 C 0.88658 0.71352 0.29324 0.0
H2126 H 0.90507 0.72945 0.34693 0.0
C2127 C 0.86257 0.71403 0.2971 0.0
H2128 H 0.92019 0.7203 0.30866 0.0
C2129 C 0.85395 0.71955 0.31917 0.0
C2130 C 0.86927 0.72423 0.33753 0.0
H2131 H 0.85065 0.70851 0.28371 0.0
H2132 H 0.83548 0.71864 0.32229 0.0
C2133 C 0.89305 0.72542 0.33312 0.0
C2134 C 0.51839 0.64684 0.55597 0.0
C2135 C 0.52779 0.63181 0.53926 0.0
H2136 H 0.50898 0.65163 0.59154 0.0
C2137 C 0.53085 0.60834 0.5449 0.0
H2138 H 0.51591 0.66504 0.55209 0.0
C2139 C 0.52667 0.60068 0.56761 0.0
C2140 C 0.51976 0.61649 0.58482 0.0
H2141 H 0.53853 0.59652 0.53252 0.0
H2142 H 0.53054 0.58291 0.57218 0.0
C2143 C 0.51471 0.63933 0.57859 0.0
C2144 C 0.6841 0.64523 0.72147 0.0
C2145 C 0.67108 0.62993 0.73533 0.0
H2146 H 0.71525 0.6502 0.70168 0.0
C2147 C 0.68166 0.60942 0.74312 0.0
H2148 H 0.67653 0.66117 0.71515 0.0
C2149 C 0.70372 0.60328 0.73547 0.0
C2150 C 0.71592 0.61767 0.72021 0.0
H2151 H 0.67255 0.59755 0.75438 0.0
H2152 H 0.71063 0.58649 0.74023 0.0
C2153 C 0.7064 0.63914 0.71398 0.0
C2154 C 0.64908 0.43982 0.98084 0.0
C2155 C 0.63394 0.45591 0.97065 0.0
H2156 H 0.65412 0.40492 0.99219 0.0
C2157 C 0.6106 0.44986 0.9675 0.0
H2158 H 0.66719 0.44406 0.98341 0.0
C2159 C 0.60314 0.42728 0.97257 0.0
C2160 C 0.61903 0.41058 0.98051 0.0
H2161 H 0.59871 0.46179 0.95923 0.0
H2162 H 0.58545 0.42239 0.96871 0.0
C2163 C 0.64175 0.41735 0.98554 0.0
C2164 C 0.8252 0.39448 0.23435 0.0
C2165 C 0.8319 0.37153 0.23051 0.0
H2166 H 0.79863 0.41987 0.23053 0.0
C2167 C 0.81521 0.35527 0.22336 0.0
H2168 H 0.8377 0.40714 0.24026 0.0
C2169 C 0.79273 0.36253 0.21765 0.0
C2170 C 0.7868 0.38604 0.21937 0.0
H2171 H 0.82012 0.33741 0.22039 0.0
H2172 H 0.78089 0.35029 0.20977 0.0
C2173 C 0.80278 0.40162 0.22908 0.0
C2174 C 0.8943 0.56912 0.47202 0.0
C2175 C 0.87861 0.58683 0.47783 0.0
H2176 H 0.89819 0.53388 0.46053 0.0
C2177 C 0.85524 0.5814 0.48106 0.0
H2178 H 0.91247 0.57306 0.46955 0.0
C2179 C 0.84726 0.55908 0.4767 0.0
C2180 C 0.86241 0.54187 0.46848 0.0
H2181 H 0.84299 0.59473 0.48597 0.0
H2182 H 0.82882 0.55581 0.47793 0.0
C2183 C 0.88621 0.5467 0.46718 0.0
C2184 C 0.66784 0.39399 0.76904 0.0
C2185 C 0.66242 0.37052 0.77152 0.0
H2186 H 0.69361 0.42022 0.77247 0.0
C2187 C 0.68028 0.35461 0.7763 0.0
H2188 H 0.65446 0.40644 0.76485 0.0
C2189 C 0.70284 0.36247 0.7808 0.0
C2190 C 0.70771 0.38627 0.78022 0.0
H2191 H 0.67641 0.33636 0.77818 0.0
H2192 H 0.71581 0.35023 0.78664 0.0
C2193 C 0.6903 0.40176 0.7731 0.0
C2194 C 0.86053 0.43022 0.00352 0.0
C2195 C 0.8813 0.4202 0.01137 0.0
H2196 H 0.83722 0.45894 0.00575 0.0
C2197 C 0.89665 0.43394 0.02446 0.0
H2198 H 0.84861 0.42051 0.99282 0.0
C2199 C 0.89033 0.45642 0.03127 0.0
C2200 C 0.8686 0.4654 0.0251 0.0
H2201 H 0.91279 0.42681 0.03077 0.0
H2202 H 0.90146 0.46583 0.04309 0.0
C2203 C 0.85419 0.45246 0.01048 0.0
C2204 C 0.81119 0.59324 0.28582 0.0
C2205 C 0.79312 0.60942 0.28819 0.0
H2206 H 0.84721 0.58754 0.2794 0.0
C2207 C 0.79762 0.63283 0.28338 0.0
H2208 H 0.80826 0.57502 0.28921 0.0
C2209 C 0.82019 0.64 0.27771 0.0
C2210 C 0.83851 0.62387 0.27694 0.0
H2211 H 0.78412 0.6457 0.28533 0.0
H2212 H 0.82354 0.65826 0.27516 0.0
C2213 C 0.83358 0.60037 0.28038 0.0
C2214 C 0.649 0.55495 0.52453 0.0
C2215 C 0.63386 0.53762 0.53251 0.0
H2216 H 0.65311 0.59065 0.51537 0.0
C2217 C 0.61 0.54225 0.53336 0.0
H2218 H 0.66749 0.55183 0.52367 0.0
C2219 C 0.6018 0.56459 0.52835 0.0
C2220 C 0.61744 0.58243 0.52282 0.0
H2221 H 0.59803 0.52934 0.53985 0.0
H2222 H 0.58356 0.56839 0.53049 0.0
C2223 C 0.64091 0.5772 0.52003 0.0
C2224 C 0.72575 0.68458 0.64513 0.0
C2225 C 0.73137 0.66701 0.62921 0.0
H2226 H 0.71304 0.71935 0.64948 0.0
C2227 C 0.733 0.6724 0.60567 0.0
H2228 H 0.72442 0.68065 0.66341 0.0
C2229 C 0.72724 0.69446 0.59784 0.0
C2230 C 0.71919 0.71143 0.61335 0.0
H2231 H 0.73761 0.65914 0.59323 0.0
H2232 H 0.72724 0.69763 0.57934 0.0
C2233 C 0.71952 0.70673 0.63721 0.0
C2234 C 0.21729 0.80792 0.4034 0.0
C2235 C 0.21092 0.79047 0.38765 0.0
H2236 H 0.22685 0.8434 0.40815 0.0
C2237 C 0.21277 0.79481 0.3638 0.0
H2238 H 0.2162 0.80502 0.4219 0.0
C2239 C 0.2191 0.81695 0.35596 0.0
C2240 C 0.22333 0.8349 0.37191 0.0
H2241 H 0.20766 0.78177 0.35132 0.0
H2242 H 0.21915 0.82049 0.33755 0.0
C2243 C 0.22321 0.82994 0.39561 0.0
C2244 C 0.45067 0.96695 0.61656 0.0
C2245 C 0.45504 0.96172 0.63989 0.0
H2246 H 0.42487 0.97518 0.59105 0.0
C2247 C 0.43673 0.96314 0.65592 0.0
H2248 H 0.46437 0.96573 0.60381 0.0
C2249 C 0.41428 0.96817 0.64866 0.0
C2250 C 0.40956 0.97216 0.62522 0.0
H2251 H 0.43955 0.95939 0.67408 0.0
H2252 H 0.40049 0.96849 0.66135 0.0
C2253 C 0.42806 0.97221 0.60928 0.0
C2254 C 0.27982 0.18701 0.90578 0.0
C2255 C 0.28487 0.2048 0.88991 0.0
H2256 H 0.27075 0.15142 0.91072 0.0
C2257 C 0.28162 0.20066 0.86618 0.0
H2258 H 0.28202 0.1897 0.92423 0.0
C2259 C 0.27496 0.17854 0.85848 0.0
C2260 C 0.27178 0.16035 0.87443 0.0
H2261 H 0.28571 0.21393 0.85357 0.0
H2262 H 0.27367 0.17529 0.84006 0.0
C2263 C 0.27356 0.16503 0.89813 0.0
C2264 C 0.56523 0.52517 0.60593 0.0
C2265 C 0.58237 0.51802 0.62171 0.0
H2266 H 0.5305 0.53807 0.60187 0.0
C2267 C 0.57616 0.51354 0.64469 0.0
H2268 H 0.56973 0.52863 0.58806 0.0
C2269 C 0.55375 0.51811 0.65234 0.0
C2270 C 0.53723 0.52777 0.63728 0.0
H2271 H 0.58901 0.5076 0.65699 0.0
H2272 H 0.54996 0.51613 0.67062 0.0
C2273 C 0.54273 0.5302 0.61372 0.0
C2274 C 0.76465 0.32554 0.10742 0.0
C2275 C 0.76907 0.33201 0.13034 0.0
H2276 H 0.76743 0.29909 0.08176 0.0
C2277 C 0.77628 0.31508 0.14631 0.0
H2278 H 0.75875 0.33826 0.09498 0.0
C2279 C 0.78145 0.29253 0.13876 0.0
C2280 C 0.77911 0.28677 0.11524 0.0
H2281 H 0.77972 0.31983 0.16413 0.0
H2282 H 0.78937 0.28048 0.15075 0.0
C2283 C 0.76935 0.30307 0.10001 0.0
C2284 C 0.41984 0.01803 0.85099 0.0
C2285 C 0.41268 0.02021 0.8741 0.0
H2286 H 0.44647 0.02429 0.82609 0.0
C2287 C 0.4289 0.02776 0.89074 0.0
H2288 H 0.40804 0.0117 0.83787 0.0
C2289 C 0.45123 0.03467 0.884 0.0
C2290 C 0.4576 0.03407 0.86056 0.0
H2291 H 0.42391 0.02963 0.90871 0.0
H2292 H 0.46276 0.04214 0.89677 0.0
C2293 C 0.44199 0.0249 0.84431 0.0
C2294 C 0.04736 0.98864 0.35383 0.0
C2295 C 0.03509 0.9729 0.36761 0.0
H2296 H 0.07887 0.00709 0.34849 0.0
C2297 C 0.04476 0.96552 0.38865 0.0
H2298 H 0.04035 0.99429 0.33736 0.0
C2299 C 0.06733 0.97217 0.3947 0.0
C2300 C 0.08045 0.98638 0.37983 0.0
H2301 H 0.03585 0.95286 0.39924 0.0
H2302 H 0.07499 0.96489 0.41017 0.0
C2303 C 0.06969 0.99549 0.35996 0.0
C2304 C 0.10556 0.09532 0.36769 0.0
C2305 C 0.12467 0.09916 0.38227 0.0
H2306 H 0.08545 0.10731 0.33908 0.0
C2307 C 0.13736 0.11986 0.37967 0.0
H2308 H 0.09567 0.07943 0.36871 0.0
C2309 C 0.13169 0.13575 0.36225 0.0
C2310 C 0.11299 0.13146 0.34733 0.0
H2311 H 0.15197 0.12361 0.3908 0.0
H2312 H 0.142 0.1513 0.36035 0.0
C2313 C 0.09977 0.11129 0.35052 0.0
C2314 C 0.15012 0.85379 0.62732 0.0
C2315 C 0.15336 0.87718 0.63294 0.0
H2316 H 0.1327 0.82949 0.60541 0.0
C2317 C 0.13825 0.8938 0.62349 0.0
H2318 H 0.16151 0.84063 0.63433 0.0
C2319 C 0.12204 0.88755 0.60667 0.0
C2320 C 0.12059 0.8645 0.59907 0.0
H2321 H 0.14027 0.91197 0.62775 0.0
H2322 H 0.11214 0.90108 0.59829 0.0
C2323 C 0.13382 0.8475 0.61054 0.0
C2324 C 0.40448 0.89096 0.84786 0.0
C2325 C 0.38988 0.87294 0.84032 0.0
H2326 H 0.40874 0.92033 0.86983 0.0
C2327 C 0.36941 0.86866 0.85276 0.0
H2328 H 0.42078 0.89435 0.83923 0.0
C2329 C 0.36288 0.88313 0.87108 0.0
C2330 C 0.37642 0.90253 0.87712 0.0
H2331 H 0.35774 0.85492 0.84764 0.0
H2332 H 0.34667 0.87964 0.87982 0.0
C2333 C 0.39775 0.90568 0.86583 0.0
C2334 C 0.36099 0.14552 0.10776 0.0
C2335 C 0.37324 0.12865 0.09511 0.0
H2336 H 0.33435 0.15237 0.13264 0.0
C2337 C 0.37026 0.10522 0.10083 0.0
H2338 H 0.36318 0.16375 0.10391 0.0
C2339 C 0.35383 0.09873 0.11739 0.0
C2340 C 0.34014 0.11552 0.12859 0.0
H2341 H 0.37939 0.09184 0.09139 0.0
H2342 H 0.35096 0.08046 0.12055 0.0
C2343 C 0.34461 0.13903 0.12436 0.0
C2344 C 0.11212 0.86838 0.1282 0.0
C2345 C 0.12513 0.86586 0.14872 0.0
H2346 H 0.10739 0.88709 0.09642 0.0
C2347 C 0.14504 0.87959 0.15156 0.0
H2348 H 0.09694 0.85782 0.12513 0.0
C2349 C 0.15116 0.89605 0.13495 0.0
C2350 C 0.13747 0.89941 0.1151 0.0
H2351 H 0.15529 0.87857 0.16722 0.0
H2352 H 0.166 0.90703 0.1383 0.0
C2353 C 0.11812 0.8851 0.11168 0.0
C2354 C 0.35576 0.89927 0.38738 0.0
C2355 C 0.34321 0.88222 0.37531 0.0
H2356 H 0.38104 0.90643 0.41362 0.0
C2357 C 0.34894 0.85883 0.3786 0.0
H2358 H 0.35181 0.91746 0.38499 0.0
C2359 C 0.36561 0.85256 0.39498 0.0
C2360 C 0.37699 0.86955 0.4082 0.0
H2361 H 0.33951 0.84532 0.36965 0.0
H2362 H 0.36883 0.83434 0.3981 0.0
C2363 C 0.3726 0.893 0.40361 0.0
C2364 C 0.34943 0.10683 0.63381 0.0
C2365 C 0.36626 0.09365 0.6221 0.0
H2366 H 0.34259 0.13215 0.66006 0.0
C2367 C 0.38975 0.09877 0.62562 0.0
H2368 H 0.33117 0.10337 0.63123 0.0
C2369 C 0.39627 0.11528 0.64208 0.0
C2370 C 0.37944 0.12703 0.65524 0.0
H2371 H 0.4031 0.08886 0.61692 0.0
H2372 H 0.41453 0.11795 0.64543 0.0
C2373 C 0.35595 0.12342 0.65019 0.0
C2374 C 0.12087 0.11392 0.89566 0.0
C2375 C 0.12486 0.13482 0.90753 0.0
H2376 H 0.13114 0.09124 0.86829 0.0
C2377 C 0.14206 0.14981 0.89895 0.0
H2378 H 0.10776 0.1019 0.90155 0.0
C2379 C 0.15614 0.1433 0.88041 0.0
C2380 C 0.15314 0.1218 0.86931 0.0
H2381 H 0.14522 0.16643 0.90703 0.0
H2382 H 0.17011 0.15483 0.87566 0.0
C2383 C 0.13466 0.10761 0.87668 0.0
C2384 C 0.12446 0.34586 0.14679 0.0
C2385 C 0.13645 0.34791 0.1257 0.0
H2386 H 0.09738 0.35845 0.16847 0.0
C2387 C 0.13121 0.36698 0.11133 0.0
H2388 H 0.12781 0.33168 0.15855 0.0
C2389 C 0.11266 0.38172 0.11647 0.0
C2390 C 0.09932 0.37826 0.13652 0.0
H2391 H 0.14066 0.36996 0.09543 0.0
H2392 H 0.10808 0.39492 0.10399 0.0
C2393 C 0.10646 0.36104 0.15227 0.0
C2394 C 0.60149 0.12267 0.89351 0.0
C2395 C 0.59723 0.11819 0.87002 0.0
H2396 H 0.61995 0.14337 0.91813 0.0
C2397 C 0.61146 0.12872 0.85326 0.0
H2398 H 0.59077 0.11487 0.90678 0.0
C2399 C 0.62804 0.14515 0.85969 0.0
C2400 C 0.63066 0.1514 0.88303 0.0
H2401 H 0.60865 0.12542 0.835 0.0
H2402 H 0.63744 0.15423 0.84625 0.0
C2403 C 0.61804 0.13916 0.89995 0.0
C2404 C 0.89345 0.86374 0.35185 0.0
C2405 C 0.90629 0.87559 0.36883 0.0
H2406 H 0.868 0.83768 0.34478 0.0
C2407 C 0.901 0.87199 0.39227 0.0
H2408 H 0.89707 0.86636 0.33363 0.0
C2409 C 0.88439 0.85557 0.39863 0.0
C2410 C 0.87264 0.84261 0.38167 0.0
H2411 H 0.91068 0.88078 0.40571 0.0
H2412 H 0.88145 0.85226 0.41686 0.0
C2413 C 0.87669 0.84747 0.3582 0.0
C2414 C 0.87095 0.1413 0.13658 0.0
C2415 C 0.87434 0.15374 0.11591 0.0
H2416 H 0.88212 0.11369 0.15843 0.0
C2417 C 0.89146 0.14584 0.10044 0.0
H2418 H 0.85792 0.14657 0.14897 0.0
C2419 C 0.90617 0.1276 0.10637 0.0
C2420 C 0.90383 0.11603 0.1277 0.0
H2421 H 0.89412 0.15425 0.0839 0.0
H2422 H 0.92009 0.12351 0.09453 0.0
C2423 C 0.88528 0.12253 0.14223 0.0
C2424 C 0.37542 0.63517 0.60865 0.0
C2425 C 0.36887 0.654 0.62277 0.0
H2426 H 0.39873 0.60695 0.60325 0.0
C2427 C 0.379 0.65583 0.64484 0.0
H2428 H 0.3675 0.63251 0.59187 0.0
C2429 C 0.39632 0.64043 0.65181 0.0
C2430 C 0.40452 0.62306 0.63673 0.0
H2431 H 0.37457 0.66993 0.65636 0.0
H2432 H 0.40391 0.64278 0.66878 0.0
C2433 C 0.39318 0.62011 0.61538 0.0
C2434 C 0.11839 0.63543 0.39928 0.0
C2435 C 0.13044 0.64827 0.38238 0.0
H2436 H 0.09191 0.61036 0.40604 0.0
C2437 C 0.12851 0.64165 0.35909 0.0
H2438 H 0.11995 0.63981 0.41746 0.0
C2439 C 0.11273 0.62447 0.35262 0.0
C2440 C 0.09851 0.61374 0.36929 0.0
H2441 H 0.13757 0.65108 0.34566 0.0
H2442 H 0.11027 0.62094 0.33436 0.0
C2443 C 0.10251 0.61835 0.39279 0.0
C2444 C 0.37674 0.36079 0.90027 0.0
C2445 C 0.36438 0.34824 0.88339 0.0
H2446 H 0.40412 0.38481 0.90709 0.0
C2447 C 0.36676 0.35454 0.86006 0.0
H2448 H 0.37493 0.35656 0.91845 0.0
C2449 C 0.38328 0.37103 0.85357 0.0
C2450 C 0.39781 0.38135 0.87026 0.0
H2451 H 0.35745 0.34529 0.84667 0.0
H2452 H 0.38593 0.37435 0.8353 0.0
C2453 C 0.39337 0.37713 0.89377 0.0
C2454 C 0.61922 0.60644 0.88401 0.0
C2455 C 0.63846 0.59226 0.87941 0.0
H2456 H 0.59881 0.63546 0.87347 0.0
C2457 C 0.65336 0.59851 0.86116 0.0
H2458 H 0.60738 0.60236 0.89796 0.0
C2459 C 0.64801 0.617 0.84655 0.0
C2460 C 0.62783 0.6302 0.85007 0.0
H2461 H 0.66882 0.58854 0.85752 0.0
H2462 H 0.65908 0.61998 0.83174 0.0
C2463 C 0.61411 0.62531 0.86967 0.0
C2464 C 0.64347 0.40114 0.11008 0.0
C2465 C 0.65191 0.38587 0.12713 0.0
H2466 H 0.62131 0.40585 0.08089 0.0
C2467 C 0.64047 0.36464 0.13033 0.0
H2468 H 0.65124 0.41802 0.10762 0.0
C2469 C 0.6225 0.35802 0.11551 0.0
C2470 C 0.61589 0.37221 0.09677 0.0
H2471 H 0.64623 0.35243 0.14333 0.0
H2472 H 0.61463 0.34121 0.11807 0.0
C2473 C 0.62589 0.39431 0.09493 0.0
C2474 C 0.85681 0.37569 0.35233 0.0
C2475 C 0.88034 0.3723 0.3473 0.0
H2476 H 0.83183 0.39566 0.37111 0.0
C2477 C 0.89706 0.38423 0.36041 0.0
H2478 H 0.84356 0.3668 0.34246 0.0
C2479 C 0.89037 0.4008 0.37673 0.0
C2480 C 0.86684 0.4058 0.38013 0.0
H2481 H 0.91534 0.38175 0.357 0.0
H2482 H 0.90364 0.4109 0.38532 0.0
C2483 C 0.85012 0.39234 0.36857 0.0
C2484 C 0.85677 0.6407 0.62697 0.0
C2485 C 0.85068 0.61734 0.62971 0.0
H2486 H 0.87638 0.6654 0.60753 0.0
C2487 C 0.86313 0.60042 0.61728 0.0
H2488 H 0.84758 0.65417 0.63624 0.0
C2489 C 0.8795 0.60687 0.60063 0.0
C2490 C 0.88374 0.63037 0.59619 0.0
H2491 H 0.85913 0.58221 0.61936 0.0
H2492 H 0.88738 0.59357 0.59 0.0
C2493 C 0.87317 0.64714 0.61039 0.0
C2494 C 0.60705 0.3964 0.62469 0.0
C2495 C 0.63053 0.40149 0.6211 0.0
H2496 H 0.58232 0.37738 0.64472 0.0
C2497 C 0.6474 0.38818 0.63262 0.0
H2498 H 0.59368 0.40639 0.61613 0.0
C2499 C 0.64092 0.37163 0.64904 0.0
C2500 C 0.61745 0.36819 0.65428 0.0
H2501 H 0.66565 0.39158 0.62994 0.0
H2502 H 0.65429 0.36289 0.65888 0.0
C2503 C 0.60057 0.37992 0.64117 0.0
C2504 C 0.87404 0.39588 0.89752 0.0
C2505 C 0.88477 0.37404 0.89636 0.0
H2506 H 0.8479 0.41837 0.88441 0.0
C2507 C 0.87832 0.35903 0.87816 0.0
H2508 H 0.87827 0.40813 0.91104 0.0
C2509 C 0.85983 0.36454 0.86345 0.0
C2510 C 0.84777 0.38549 0.86617 0.0
H2511 H 0.88675 0.34245 0.87587 0.0
H2512 H 0.8542 0.35177 0.85094 0.0
C2513 C 0.85611 0.40163 0.88242 0.0
C2514 C 0.85491 0.61124 0.12985 0.0
C2515 C 0.87175 0.59746 0.11883 0.0
H2516 H 0.8477 0.63595 0.15655 0.0
C2517 C 0.89519 0.60116 0.12401 0.0
H2518 H 0.83671 0.60889 0.12599 0.0
C2519 C 0.90148 0.61672 0.14147 0.0
C2520 C 0.88446 0.62891 0.15399 0.0
H2521 H 0.90853 0.59078 0.11587 0.0
H2522 H 0.9196 0.61824 0.1461 0.0
C2523 C 0.86121 0.62685 0.14725 0.0
C2524 C 0.63903 0.65132 0.39778 0.0
C2525 C 0.62073 0.63641 0.40388 0.0
H2526 H 0.6689 0.6569 0.37695 0.0
C2527 C 0.61647 0.61703 0.38977 0.0
H2528 H 0.6424 0.66693 0.4076 0.0
C2529 C 0.63118 0.61181 0.37121 0.0
C2530 C 0.65089 0.62549 0.36659 0.0
H2531 H 0.6025 0.60517 0.39367 0.0
H2532 H 0.62753 0.59647 0.36109 0.0
C2533 C 0.65406 0.6458 0.37967 0.0
C2534 C 0.6106 0.85542 0.59744 0.0
C2535 C 0.62783 0.84802 0.61305 0.0
H2536 H 0.58187 0.87754 0.59115 0.0
C2537 C 0.63195 0.86157 0.63285 0.0
H2538 H 0.60753 0.84623 0.58139 0.0
C2539 C 0.61792 0.88071 0.63783 0.0
C2540 C 0.59885 0.88635 0.6236 0.0
H2541 H 0.64518 0.85683 0.64523 0.0
H2542 H 0.62149 0.89035 0.65348 0.0
C2543 C 0.59609 0.87398 0.6028 0.0
C2544 C 0.99276 0.26385 0.29715 0.0
C2545 C 0.98113 0.26895 0.27647 0.0
H2546 H 0.02282 0.24953 0.31298 0.0
C2547 C 0.99203 0.26434 0.25522 0.0
H2548 H 0.98488 0.26756 0.31375 0.0
C2549 C 0.01396 0.25403 0.25473 0.0
C2550 C 0.02539 0.24857 0.2755 0.0
H2551 H 0.98335 0.26812 0.23904 0.0
H2552 H 0.02189 0.25015 0.2382 0.0
C2553 C 0.01466 0.25385 0.29668 0.0
C2554 C 0.0024 0.76429 0.54709 0.0
C2555 C 0.01042 0.77415 0.52641 0.0
H2556 H 0.98512 0.7358 0.56312 0.0
C2557 C 0.00666 0.76246 0.50539 0.0
H2558 H 0.00526 0.77285 0.56352 0.0
C2559 C 0.99494 0.74125 0.50514 0.0
C2560 C 0.9873 0.73128 0.52595 0.0
H2561 H 0.01257 0.76984 0.4892 0.0
H2562 H 0.99225 0.7324 0.48883 0.0
C2563 C 0.99109 0.74303 0.54688 0.0
C2564 C 0.51328 0.74473 0.79616 0.0
C2565 C 0.52722 0.74218 0.77642 0.0
H2566 H 0.48122 0.75702 0.81007 0.0
C2567 C 0.51942 0.75092 0.75512 0.0
H2568 H 0.51881 0.73787 0.81271 0.0
C2569 C 0.498 0.76221 0.75369 0.0
C2570 C 0.48393 0.7643 0.77344 0.0
H2571 H 0.52996 0.74912 0.73971 0.0
H2572 H 0.49214 0.76878 0.73714 0.0
C2573 C 0.49177 0.75549 0.79464 0.0
C2574 C 0.5002 0.25822 0.00812 0.0
C2575 C 0.50782 0.26807 0.029 0.0
H2576 H 0.48296 0.22962 0.99189 0.0
C2577 C 0.50392 0.25617 0.04985 0.0
H2578 H 0.50299 0.26708 0.99184 0.0
C2579 C 0.49264 0.2349 0.04989 0.0
C2580 C 0.48487 0.22505 0.0291 0.0
H2581 H 0.50994 0.26313 0.06617 0.0
H2582 H 0.48975 0.22626 0.06627 0.0
C2583 C 0.48864 0.23693 0.00818 0.0
C2584 C 0.99181 0.73996 0.24541 0.0
C2585 C 0.97936 0.73604 0.22485 0.0
H2586 H 0.02245 0.7546 0.26075 0.0
C2587 C 0.98871 0.7435 0.20373 0.0
H2588 H 0.98484 0.73446 0.26191 0.0
C2589 C 0.01005 0.75464 0.20306 0.0
C2590 C 0.02246 0.75885 0.22353 0.0
H2591 H 0.97956 0.7405 0.18764 0.0
H2592 H 0.01669 0.76034 0.18648 0.0
C2593 C 0.01313 0.75156 0.24477 0.0
C2594 C 0.50366 0.7373 0.4502 0.0
C2595 C 0.512 0.72816 0.4711 0.0
H2596 H 0.48671 0.76567 0.43342 0.0
C2597 C 0.50978 0.74112 0.49154 0.0
H2598 H 0.50534 0.72761 0.43423 0.0
C2599 C 0.49886 0.76271 0.49114 0.0
C2600 C 0.4905 0.77182 0.4702 0.0
H2601 H 0.51596 0.7343 0.50787 0.0
H2602 H 0.49704 0.77237 0.50711 0.0
C2603 C 0.4932 0.75905 0.44971 0.0
C2604 C 0.50782 0.25649 0.74185 0.0
C2605 C 0.51956 0.26128 0.72111 0.0
H2606 H 0.47773 0.24149 0.75757 0.0
C2607 C 0.5094 0.25504 0.69994 0.0
H2608 H 0.5154 0.26107 0.75837 0.0
C2609 C 0.48792 0.24409 0.69947 0.0
C2610 C 0.47634 0.2389 0.72018 0.0
H2611 H 0.51803 0.25878 0.68373 0.0
H2612 H 0.48057 0.23924 0.68293 0.0
C2613 C 0.48645 0.24518 0.7414 0.0
C2614 C 0.01321 0.24493 0.99453 0.0
C2615 C 0.01555 0.23142 0.97441 0.0
H2616 H 0.99977 0.2764 0.00932 0.0
C2617 C 0.0065 0.23964 0.95345 0.0
H2618 H 0.01992 0.23879 0.01092 0.0
C2619 C 0.99539 0.261 0.95251 0.0
C2620 C 0.99278 0.27447 0.97258 0.0
H2621 H 0.00821 0.22958 0.93772 0.0
H2622 H 0.98847 0.26685 0.9361 0.0
C2623 C 0.00161 0.26624 0.99367 0.0
C2624 C 0.25389 0.00924 0.24668 0.0
C2625 C 0.27445 0.02116 0.24151 0.0
H2626 H 0.23866 0.97878 0.26148 0.0
C2627 C 0.2958 0.01107 0.24732 0.0
H2628 H 0.23723 0.0167 0.24243 0.0
C2629 C 0.29662 0.98946 0.258 0.0
C2630 C 0.27611 0.97757 0.26331 0.0
H2631 H 0.31191 0.01972 0.24326 0.0
H2632 H 0.31332 0.98216 0.26237 0.0
C2633 C 0.25471 0.98769 0.25767 0.0
C2634 C 0.23871 0.04585 0.49443 0.0
C2635 C 0.22672 0.02514 0.49014 0.0
H2636 H 0.26905 0.0618 0.50828 0.0
C2637 C 0.2368 0.00401 0.4967 0.0
H2638 H 0.23149 0.06235 0.48924 0.0
C2639 C 0.25838 0.00371 0.50778 0.0
C2640 C 0.27034 0.02451 0.51194 0.0
H2641 H 0.22783 0.98785 0.49355 0.0
H2642 H 0.26586 0.98728 0.51282 0.0
C2643 C 0.26032 0.04552 0.50508 0.0
C2644 C 0.20323 0.99073 0.73875 0.0
C2645 C 0.22425 0.979 0.7353 0.0
H2646 H 0.18639 0.02092 0.75209 0.0
C2647 C 0.24496 0.98929 0.7428 0.0
H2648 H 0.18707 0.98325 0.73288 0.0
C2649 C 0.24453 0.01076 0.75405 0.0
C2650 C 0.22345 0.02246 0.75745 0.0
H2651 H 0.26134 0.9805 0.74034 0.0
H2652 H 0.26065 0.01835 0.75989 0.0
C2653 C 0.20285 0.01232 0.74953 0.0
C2654 C 0.26058 0.95189 0.99199 0.0
C2655 C 0.27454 0.97172 0.9903 0.0
H2656 H 0.22833 0.93758 0.00323 0.0
C2657 C 0.26648 0.99275 0.99947 0.0
H2658 H 0.26622 0.93555 0.98475 0.0
C2659 C 0.24479 0.99386 0.01023 0.0
C2660 C 0.23068 0.97407 0.01143 0.0
H2661 H 0.27698 0.00824 0.99832 0.0
H2662 H 0.23877 0.01024 0.0171 0.0
C2663 C 0.23881 0.9531 0.0023 0.0
C2664 C 0.26183 0.25056 0.99471 0.0
C2665 C 0.26669 0.27154 0.98344 0.0
H2666 H 0.24745 0.23437 0.02498 0.0
C2667 C 0.26208 0.29251 0.99474 0.0
H2668 H 0.26529 0.2342 0.98623 0.0
C2669 C 0.25229 0.29262 0.01672 0.0
C2670 C 0.24668 0.27175 0.02782 0.0
H2671 H 0.26599 0.30889 0.98649 0.0
H2672 H 0.24838 0.30914 0.02467 0.0
C2673 C 0.25162 0.25066 0.01671 0.0
C2674 C 0.75973 0.19982 0.00862 0.0
C2675 C 0.76509 0.22072 0.01977 0.0
H2676 H 0.74422 0.18347 0.97928 0.0
C2677 C 0.75876 0.24176 0.00933 0.0
H2678 H 0.76458 0.18341 0.01628 0.0
C2679 C 0.74683 0.24179 0.98822 0.0
C2680 C 0.74156 0.22081 0.97709 0.0
H2681 H 0.76259 0.25806 0.01775 0.0
H2682 H 0.74196 0.25815 0.98046 0.0
C2683 C 0.74825 0.19986 0.98743 0.0
C2684 C 0.04708 0.4929 0.23901 0.0
C2685 C 0.02641 0.4866 0.22794 0.0
H2686 H 0.06285 0.50847 0.2686 0.0
C2687 C 0.00516 0.49137 0.23879 0.0
H2688 H 0.06367 0.48924 0.23107 0.0
C2689 C 0.00467 0.50264 0.26028 0.0
C2690 C 0.02544 0.50875 0.27136 0.0
H2691 H 0.989 0.48676 0.23047 0.0
H2692 H 0.98817 0.50632 0.26838 0.0
C2693 C 0.04661 0.50371 0.26054 0.0
C2694 C 0.73976 0.79945 0.50875 0.0
C2695 C 0.73376 0.77843 0.51934 0.0
H2696 H 0.75566 0.81612 0.4798 0.0
C2697 C 0.739 0.75752 0.50809 0.0
H2698 H 0.7357 0.81579 0.517 0.0
C2699 C 0.75062 0.75769 0.48682 0.0
C2700 C 0.75673 0.77879 0.47634 0.0
H2701 H 0.73462 0.7411 0.51602 0.0
H2702 H 0.75472 0.7414 0.4785 0.0
C2703 C 0.75099 0.79964 0.48741 0.0
C2704 C 0.9929 0.00658 0.24083 0.0
C2705 C 0.97276 0.00882 0.22739 0.0
H2706 H 0.00774 0.99392 0.27244 0.0
C2707 C 0.95171 0.0002 0.23593 0.0
H2708 H 0.00933 0.01299 0.23449 0.0
C2709 C 0.95076 0.98962 0.25759 0.0
C2710 C 0.97092 0.98712 0.27093 0.0
H2711 H 0.93594 0.00192 0.22594 0.0
H2712 H 0.93434 0.98303 0.26377 0.0
C2713 C 0.99203 0.99558 0.26236 0.0
C2714 C 0.24914 0.74426 0.51176 0.0
C2715 C 0.25616 0.72322 0.52181 0.0
H2716 H 0.23214 0.76069 0.48298 0.0
C2717 C 0.25104 0.70238 0.5104 0.0
H2718 H 0.25282 0.76055 0.52026 0.0
C2719 C 0.23948 0.70248 0.48929 0.0
C2720 C 0.23262 0.72341 0.47906 0.0
H2721 H 0.25649 0.68591 0.51748 0.0
H2722 H 0.23588 0.68609 0.48093 0.0
C2723 C 0.23723 0.74433 0.49059 0.0
C2724 C 0.45223 0.4948 0.76526 0.0
C2725 C 0.4732 0.48811 0.77557 0.0
H2726 H 0.43565 0.51161 0.73682 0.0
C2727 C 0.49417 0.49394 0.76466 0.0
H2728 H 0.43582 0.49032 0.77312 0.0
C2729 C 0.49405 0.50638 0.7438 0.0
C2730 C 0.47295 0.51266 0.73341 0.0
H2731 H 0.51054 0.48905 0.77236 0.0
H2732 H 0.51032 0.51058 0.7355 0.0
C2733 C 0.45211 0.50683 0.74441 0.0
C2734 C 0.79826 0.51075 0.74381 0.0
C2735 C 0.77784 0.52316 0.7394 0.0
H2736 H 0.81343 0.48005 0.75775 0.0
C2737 C 0.75649 0.51382 0.74641 0.0
H2738 H 0.8149 0.51744 0.73838 0.0
C2739 C 0.75567 0.49238 0.75773 0.0
C2740 C 0.77615 0.47987 0.76168 0.0
H2741 H 0.74054 0.52318 0.74328 0.0
H2742 H 0.73909 0.48532 0.7629 0.0
C2743 C 0.79741 0.48931 0.7547 0.0
C2744 C 0.76573 0.50779 0.9986 0.0
C2745 C 0.77316 0.52871 0.0085 0.0
H2746 H 0.73849 0.49006 0.98056 0.0
C2747 C 0.75853 0.54811 0.00774 0.0
H2748 H 0.77679 0.49265 0.99896 0.0
C2749 C 0.73672 0.54657 0.99756 0.0
C2750 C 0.72924 0.52571 0.98762 0.0
H2751 H 0.76377 0.56435 0.01549 0.0
H2752 H 0.72568 0.56172 0.99734 0.0
C2753 C 0.74399 0.50637 0.98798 0.0
C2754 C 0.7451 0.5148 0.24914 0.0
C2755 C 0.72416 0.52568 0.25512 0.0
H2756 H 0.76114 0.48516 0.23323 0.0
C2757 C 0.70314 0.51494 0.24933 0.0
H2758 H 0.7615 0.52282 0.25341 0.0
C2759 C 0.70294 0.49363 0.23815 0.0
C2760 C 0.72375 0.48263 0.23226 0.0
H2761 H 0.68674 0.52274 0.254 0.0
H2762 H 0.68646 0.48565 0.23414 0.0
C2763 C 0.74489 0.49348 0.23752 0.0
C2764 C 0.7604 0.45178 0.49625 0.0
C2765 C 0.77035 0.47294 0.48971 0.0
H2766 H 0.73204 0.43471 0.51276 0.0
C2767 C 0.75889 0.4937 0.49517 0.0
H2768 H 0.7688 0.43555 0.49207 0.0
C2769 C 0.73787 0.49322 0.50723 0.0
C2770 C 0.72786 0.47197 0.51352 0.0
H2771 H 0.76636 0.51022 0.49041 0.0
H2772 H 0.72923 0.50937 0.51128 0.0
C2773 C 0.73932 0.45129 0.50791 0.0
C2774 C 0.54474 0.00243 0.73437 0.0
C2775 C 0.52379 0.99624 0.72371 0.0
H2776 H 0.56131 0.01703 0.76396 0.0
C2777 C 0.50283 0.00063 0.73529 0.0
H2778 H 0.56118 0.99894 0.72607 0.0
C2779 C 0.50294 0.01109 0.75718 0.0
C2780 C 0.52402 0.0168 0.7679 0.0
H2781 H 0.48647 0.99602 0.72739 0.0
H2782 H 0.48667 0.01424 0.76595 0.0
C2783 C 0.54486 0.0125 0.75621 0.0
loop_
_geom_bond_atom_site_label_1
_geom_bond_atom_site_label_2
_geom_bond_distance
_geom_bond_site_symmetry_2
_ccdc_geom_bond_type
Co0 N4 2.148 . S
Co0 N10 2.128 . S
Co0 N20 2.194 . S
Co0 O25 2.351 . S
Co0 O26 2.155 . S
Co0 O27 2.096 . S
C1 N4 1.301 . S
C1 N5 1.328 . S
C1 H6 0.930 . S
C2 C3 1.333 . S
C2 N4 1.317 . S
C2 H7 0.930 . S
C3 C2 1.333 . S
C3 N5 1.350 . S
C3 H29 0.931 . S
N4 Co0 2.148 . S
N4 C1 1.301 . S
N4 C2 1.317 . S
N5 C1 1.328 . S
N5 C3 1.350 . S
H6 C1 0.930 . S
H7 C2 0.930 . S
C8 O9 1.224 . S
C8 O27 1.247 . S
O9 C8 1.224 . S
N10 Co0 2.128 . S
N10 C11 1.355 . S
N10 C13 1.311 . S
C11 N10 1.355 . S
C11 C12 1.363 . S
C11 H23 0.929 . S
C12 C11 1.363 . S
C12 N14 1.375 . S
C12 H30 0.931 . S
C13 N10 1.311 . S
C13 N14 1.347 . S
C13 H24 0.929 . S
N14 C12 1.375 . S
N14 C13 1.347 . S
C15 C18 1.365 . S
C15 N20 1.328 . S
C15 H21 0.929 . S
C16 C17 1.362 . S
C16 C19 1.378 . S
C16 H31 0.929 . S
C17 C16 1.362 . S
C17 C18 1.366 . S
C18 C15 1.365 . S
C18 C17 1.366 . S
C18 H32 0.930 . S
C19 C16 1.378 . S
C19 N20 1.315 . S
C19 H22 0.930 . S
N20 Co0 2.194 . S
N20 C15 1.328 . S
N20 C19 1.315 . S
H21 C15 0.929 . S
H22 C19 0.930 . S
H23 C11 0.929 . S
H24 C13 0.929 . S
O25 Co0 2.351 . S
O25 C28 1.244 . S
O26 Co0 2.155 . S
O26 C28 1.240 . S
O27 Co0 2.096 . S
O27 C8 1.247 . S
C28 O25 1.244 . S
C28 O26 1.240 . S
H29 C3 0.931 . S
H30 C12 0.931 . S
H31 C16 0.929 . S
H32 C18 0.930 . S
Co33 N37 2.148 . S
Co33 N43 2.128 . S
Co33 N53 2.194 . S
Co33 O58 2.351 . S
Co33 O59 2.155 . S
Co33 O60 2.096 . S
C34 N37 1.301 . S
C34 N38 1.328 . S
C34 H39 0.930 . S
C35 C36 1.333 . S
C35 N37 1.317 . S
C35 H40 0.930 . S
C36 C35 1.333 . S
C36 N38 1.350 . S
C36 H62 0.931 . S
N37 Co33 2.148 . S
N37 C34 1.301 . S
N37 C35 1.317 . S
N38 C34 1.328 . S
N38 C36 1.350 . S
H39 C34 0.930 . S
H40 C35 0.930 . S
C41 O42 1.224 . S
C41 O60 1.247 . S
O42 C41 1.224 . S
N43 Co33 2.128 . S
N43 C44 1.355 . S
N43 C46 1.311 . S
C44 N43 1.355 . S
C44 C45 1.363 . S
C44 H56 0.929 . S
C45 C44 1.363 . S
C45 N47 1.375 . S
C45 H63 0.931 . S
C46 N43 1.311 . S
C46 N47 1.347 . S
C46 H57 0.929 . S
N47 C45 1.375 . S
N47 C46 1.347 . S
C48 C51 1.365 . S
C48 N53 1.328 . S
C48 H54 0.929 . S
C49 C50 1.362 . S
C49 C52 1.378 . S
C49 H64 0.929 . S
C50 C49 1.362 . S
C50 C51 1.366 . S
C51 C48 1.365 . S
C51 C50 1.366 . S
C51 H65 0.930 . S
C52 C49 1.378 . S
C52 N53 1.315 . S
C52 H55 0.930 . S
N53 Co33 2.194 . S
N53 C48 1.328 . S
N53 C52 1.315 . S
H54 C48 0.929 . S
H55 C52 0.930 . S
H56 C44 0.929 . S
H57 C46 0.929 . S
O58 Co33 2.351 . S
O58 C61 1.244 . S
O59 Co33 2.155 . S
O59 C61 1.240 . S
O60 Co33 2.096 . S
O60 C41 1.247 . S
C61 O58 1.244 . S
C61 O59 1.240 . S
H62 C36 0.931 . S
H63 C45 0.931 . S
H64 C49 0.929 . S
H65 C51 0.930 . S
Co66 N70 2.148 . S
Co66 N76 2.128 . S
Co66 N86 2.194 . S
Co66 O91 2.351 . S
Co66 O92 2.155 . S
Co66 O93 2.096 . S
C67 N70 1.301 . S
C67 N71 1.328 . S
C67 H72 0.930 . S
C68 C69 1.333 . S
C68 N70 1.317 . S
C68 H73 0.930 . S
C69 C68 1.333 . S
C69 N71 1.350 . S
C69 H95 0.931 . S
N70 Co66 2.148 . S
N70 C67 1.301 . S
N70 C68 1.317 . S
N71 C67 1.328 . S
N71 C69 1.350 . S
H72 C67 0.930 . S
H73 C68 0.930 . S
C74 O75 1.224 . S
C74 O93 1.247 . S
O75 C74 1.224 . S
N76 Co66 2.128 . S
N76 C77 1.355 . S
N76 C79 1.311 . S
C77 N76 1.355 . S
C77 C78 1.363 . S
C77 H89 0.929 . S
C78 C77 1.363 . S
C78 N80 1.375 . S
C78 H96 0.931 . S
C79 N76 1.311 . S
C79 N80 1.347 . S
C79 H90 0.929 . S
N80 C78 1.375 . S
N80 C79 1.347 . S
C81 C84 1.365 . S
C81 N86 1.328 . S
C81 H87 0.929 . S
C82 C83 1.362 . S
C82 C85 1.378 . S
C82 H97 0.929 . S
C83 C82 1.362 . S
C83 C84 1.366 . S
C84 C81 1.365 . S
C84 C83 1.366 . S
C84 H98 0.930 . S
C85 C82 1.378 . S
C85 N86 1.315 . S
C85 H88 0.930 . S
N86 Co66 2.194 . S
N86 C81 1.328 . S
N86 C85 1.315 . S
H87 C81 0.929 . S
H88 C85 0.930 . S
H89 C77 0.929 . S
H90 C79 0.929 . S
O91 Co66 2.351 . S
O91 C94 1.244 . S
O92 Co66 2.155 . S
O92 C94 1.240 . S
O93 Co66 2.096 . S
O93 C74 1.247 . S
C94 O91 1.244 . S
C94 O92 1.240 . S
H95 C69 0.931 . S
H96 C78 0.931 . S
H97 C82 0.929 . S
H98 C84 0.930 . S
Co99 N103 2.148 . S
Co99 N109 2.128 . S
Co99 N119 2.194 . S
Co99 O124 2.351 . S
Co99 O125 2.155 1_554 S
Co99 O126 2.096 1_554 S
C100 N103 1.301 . S
C100 N104 1.328 1_554 S
C100 H105 0.930 . S
C101 C102 1.333 . S
C101 N103 1.317 1_556 S
C101 H106 0.930 . S
C102 C101 1.333 . S
C102 N104 1.350 . S
C102 H128 0.931 . S
N103 Co99 2.148 . S
N103 C100 1.301 . S
N103 C101 1.317 1_554 S
N104 C100 1.328 1_556 S
N104 C102 1.350 . S
H105 C100 0.930 . S
H106 C101 0.930 . S
C107 O108 1.238 . S
C107 O126 1.241 1_554 S
O108 C107 1.238 . S
N109 Co99 2.128 . S
N109 C110 1.355 . S
N109 C112 1.311 . S
C110 N109 1.355 . S
C110 C111 1.363 . S
C110 H122 0.929 . S
C111 C110 1.363 . S
C111 N113 1.375 . S
C111 H129 0.931 . S
C112 N109 1.311 . S
C112 N113 1.347 . S
C112 H123 0.929 . S
N113 C111 1.375 . S
N113 C112 1.347 . S
C114 C117 1.365 . S
C114 N119 1.328 . S
C114 H120 0.929 . S
C115 C116 1.362 . S
C115 C118 1.378 . S
C115 H130 0.929 . S
C116 C115 1.362 . S
C116 C117 1.366 . S
C117 C114 1.365 . S
C117 C116 1.366 . S
C117 H131 0.930 . S
C118 C115 1.378 . S
C118 N119 1.315 . S
C118 H121 0.930 . S
N119 Co99 2.194 . S
N119 C114 1.328 . S
N119 C118 1.315 . S
H120 C114 0.929 . S
H121 C118 0.930 . S
H122 C110 0.929 . S
H123 C112 0.929 . S
O124 Co99 2.351 . S
O124 C127 1.244 . S
O125 Co99 2.155 1_556 S
O125 C127 1.240 1_556 S
O126 Co99 2.096 1_556 S
O126 C107 1.241 1_556 S
C127 O124 1.244 . S
C127 O125 1.240 1_554 S
H128 C102 0.931 . S
H129 C111 0.931 . S
H130 C115 0.929 . S
H131 C117 0.930 . S
Co132 N136 2.148 . S
Co132 N142 2.128 . S
Co132 N152 2.194 . S
Co132 O157 2.351 . S
Co132 O158 2.155 . S
Co132 O159 2.096 . S
C133 N136 1.301 . S
C133 N137 1.328 . S
C133 H138 0.930 . S
C134 C135 1.333 . S
C134 N136 1.317 . S
C134 H139 0.930 . S
C135 C134 1.333 . S
C135 N137 1.350 . S
C135 H161 0.931 . S
N136 Co132 2.148 . S
N136 C133 1.301 . S
N136 C134 1.317 . S
N137 C133 1.328 . S
N137 C135 1.350 . S
H138 C133 0.930 . S
H139 C134 0.930 . S
C140 O141 1.224 . S
C140 O159 1.247 . S
O141 C140 1.224 . S
N142 Co132 2.128 . S
N142 C143 1.355 . S
N142 C145 1.311 . S
C143 N142 1.355 . S
C143 C144 1.363 . S
C143 H155 0.929 . S
C144 C143 1.363 . S
C144 N146 1.375 . S
C144 H162 0.931 . S
C145 N142 1.311 . S
C145 N146 1.347 . S
C145 H156 0.929 . S
N146 C144 1.375 . S
N146 C145 1.347 . S
C147 C150 1.365 . S
C147 N152 1.328 . S
C147 H153 0.929 . S
C148 C149 1.362 . S
C148 C151 1.378 . S
C148 H163 0.929 . S
C149 C148 1.362 . S
C149 C150 1.366 . S
C150 C147 1.365 . S
C150 C149 1.366 . S
C150 H164 0.930 . S
C151 C148 1.378 . S
C151 N152 1.315 . S
C151 H154 0.930 . S
N152 Co132 2.194 . S
N152 C147 1.328 . S
N152 C151 1.315 . S
H153 C147 0.929 . S
H154 C151 0.930 . S
H155 C143 0.929 . S
H156 C145 0.929 . S
O157 Co132 2.351 . S
O157 C160 1.244 . S
O158 Co132 2.155 . S
O158 C160 1.240 . S
O159 Co132 2.096 . S
O159 C140 1.247 . S
C160 O157 1.244 . S
C160 O158 1.240 . S
H161 C135 0.931 . S
H162 C144 0.931 . S
H163 C148 0.929 . S
H164 C150 0.930 . S
Co165 N169 2.148 . S
Co165 N175 2.128 . S
Co165 N185 2.194 . S
Co165 O190 2.351 . S
Co165 O191 2.155 . S
Co165 O192 2.096 . S
C166 N169 1.301 . S
C166 N170 1.328 . S
C166 H171 0.930 . S
C167 C168 1.333 . S
C167 N169 1.317 . S
C167 H172 0.930 . S
C168 C167 1.333 . S
C168 N170 1.350 . S
C168 H194 0.931 . S
N169 Co165 2.148 . S
N169 C166 1.301 . S
N169 C167 1.317 . S
N170 C166 1.328 . S
N170 C168 1.350 . S
H171 C166 0.930 . S
H172 C167 0.930 . S
C173 O174 1.224 . S
C173 O192 1.247 . S
O174 C173 1.224 . S
N175 Co165 2.128 . S
N175 C176 1.355 . S
N175 C178 1.311 . S
C176 N175 1.355 . S
C176 C177 1.363 . S
C176 H188 0.929 . S
C177 C176 1.363 . S
C177 N179 1.375 . S
C177 H195 0.931 . S
C178 N175 1.311 . S
C178 N179 1.347 . S
C178 H189 0.929 . S
N179 C177 1.375 . S
N179 C178 1.347 . S
C180 C183 1.365 . S
C180 N185 1.328 . S
C180 H186 0.929 . S
C181 C182 1.362 . S
C181 C184 1.378 . S
C181 H196 0.929 . S
C182 C181 1.362 . S
C182 C183 1.366 . S
C183 C180 1.365 . S
C183 C182 1.366 . S
C183 H197 0.930 . S
C184 C181 1.378 . S
C184 N185 1.315 . S
C184 H187 0.930 . S
N185 Co165 2.194 . S
N185 C180 1.328 . S
N185 C184 1.315 . S
H186 C180 0.929 . S
H187 C184 0.930 . S
H188 C176 0.929 . S
H189 C178 0.929 . S
O190 Co165 2.351 . S
O190 C193 1.244 . S
O191 Co165 2.155 . S
O191 C193 1.240 . S
O192 Co165 2.096 . S
O192 C173 1.247 . S
C193 O190 1.244 . S
C193 O191 1.240 . S
H194 C168 0.931 . S
H195 C177 0.931 . S
H196 C181 0.929 . S
H197 C183 0.930 . S
Co198 N202 2.148 . S
Co198 N208 2.128 . S
Co198 N218 2.194 . S
Co198 O223 2.351 . S
Co198 O224 2.155 . S
Co198 O225 2.096 . S
C199 N202 1.301 . S
C199 N203 1.328 . S
C199 H204 0.930 . S
C200 C201 1.333 . S
C200 N202 1.317 . S
C200 H205 0.930 . S
C201 C200 1.333 . S
C201 N203 1.350 . S
C201 H227 0.931 . S
N202 Co198 2.148 . S
N202 C199 1.301 . S
N202 C200 1.317 . S
N203 C199 1.328 . S
N203 C201 1.350 . S
H204 C199 0.930 . S
H205 C200 0.930 . S
C206 O207 1.224 . S
C206 O225 1.247 . S
O207 C206 1.224 . S
N208 Co198 2.128 . S
N208 C209 1.355 . S
N208 C211 1.311 . S
C209 N208 1.355 . S
C209 C210 1.363 . S
C209 H221 0.929 . S
C210 C209 1.363 . S
C210 N212 1.375 . S
C210 H228 0.931 . S
C211 N208 1.311 . S
C211 N212 1.347 . S
C211 H222 0.929 . S
N212 C210 1.375 . S
N212 C211 1.347 . S
C213 C216 1.365 . S
C213 N218 1.328 . S
C213 H219 0.929 . S
C214 C215 1.362 . S
C214 C217 1.378 . S
C214 H229 0.929 . S
C215 C214 1.362 . S
C215 C216 1.366 . S
C216 C213 1.365 . S
C216 C215 1.366 . S
C216 H230 0.930 . S
C217 C214 1.378 . S
C217 N218 1.315 . S
C217 H220 0.930 . S
N218 Co198 2.194 . S
N218 C213 1.328 . S
N218 C217 1.315 . S
H219 C213 0.929 . S
H220 C217 0.930 . S
H221 C209 0.929 . S
H222 C211 0.929 . S
O223 Co198 2.351 . S
O223 C226 1.244 . S
O224 Co198 2.155 . S
O224 C226 1.240 . S
O225 Co198 2.096 . S
O225 C206 1.247 . S
C226 O223 1.244 . S
C226 O224 1.240 . S
H227 C201 0.931 . S
H228 C210 0.931 . S
H229 C214 0.929 . S
H230 C216 0.930 . S
Co231 N235 2.148 . S
Co231 N241 2.128 . S
Co231 N251 2.194 . S
Co231 O256 2.351 . S
Co231 O257 2.155 1_556 S
Co231 O258 2.096 1_556 S
C232 N235 1.301 . S
C232 N236 1.328 1_556 S
C232 H237 0.930 . S
C233 C234 1.333 . S
C233 N235 1.317 1_554 S
C233 H238 0.930 . S
C234 C233 1.333 . S
C234 N236 1.350 . S
C234 H260 0.931 . S
N235 Co231 2.148 . S
N235 C232 1.301 . S
N235 C233 1.317 1_556 S
N236 C232 1.328 1_554 S
N236 C234 1.350 . S
H237 C232 0.930 . S
H238 C233 0.930 . S
C239 O240 1.238 . S
C239 O258 1.241 1_556 S
O240 C239 1.238 . S
N241 Co231 2.128 . S
N241 C242 1.355 . S
N241 C244 1.311 . S
C242 N241 1.355 . S
C242 C243 1.363 . S
C242 H254 0.929 . S
C243 C242 1.363 . S
C243 N245 1.375 . S
C243 H261 0.931 . S
C244 N241 1.311 . S
C244 N245 1.347 . S
C244 H255 0.929 . S
N245 C243 1.375 . S
N245 C244 1.347 . S
C246 C249 1.365 . S
C246 N251 1.328 . S
C246 H252 0.929 . S
C247 C248 1.362 . S
C247 C250 1.378 . S
C247 H262 0.929 . S
C248 C247 1.362 . S
C248 C249 1.366 . S
C249 C246 1.365 . S
C249 C248 1.366 . S
C249 H263 0.930 . S
C250 C247 1.378 . S
C250 N251 1.315 . S
C250 H253 0.930 . S
N251 Co231 2.194 . S
N251 C246 1.328 . S
N251 C250 1.315 . S
H252 C246 0.929 . S
H253 C250 0.930 . S
H254 C242 0.929 . S
H255 C244 0.929 . S
O256 Co231 2.351 . S
O256 C259 1.244 . S
O257 Co231 2.155 1_554 S
O257 C259 1.240 1_554 S
O258 Co231 2.096 1_554 S
O258 C239 1.241 1_554 S
C259 O256 1.244 . S
C259 O257 1.240 1_556 S
H260 C234 0.931 . S
H261 C243 0.931 . S
H262 C247 0.929 . S
H263 C249 0.930 . S
Co264 N268 2.148 . S
Co264 N274 2.128 . S
Co264 N284 2.194 . S
Co264 O289 2.351 . S
Co264 O290 2.155 . S
Co264 O291 2.096 . S
C265 N268 1.301 . S
C265 N269 1.328 . S
C265 H270 0.930 . S
C266 C267 1.333 . S
C266 N268 1.317 . S
C266 H271 0.930 . S
C267 C266 1.333 . S
C267 N269 1.350 . S
C267 H293 0.931 . S
N268 Co264 2.148 . S
N268 C265 1.301 . S
N268 C266 1.317 . S
N269 C265 1.328 . S
N269 C267 1.350 . S
H270 C265 0.930 . S
H271 C266 0.930 . S
C272 O273 1.224 . S
C272 O291 1.247 . S
O273 C272 1.224 . S
N274 Co264 2.128 . S
N274 C275 1.355 . S
N274 C277 1.311 . S
C275 N274 1.355 . S
C275 C276 1.363 . S
C275 H287 0.929 . S
C276 C275 1.363 . S
C276 N278 1.375 . S
C276 H294 0.931 . S
C277 N274 1.311 . S
C277 N278 1.347 . S
C277 H288 0.929 . S
N278 C276 1.375 . S
N278 C277 1.347 . S
C279 C282 1.365 . S
C279 N284 1.328 . S
C279 H285 0.929 . S
C280 C281 1.362 . S
C280 C283 1.378 . S
C280 H295 0.929 . S
C281 C280 1.362 . S
C281 C282 1.366 . S
C282 C279 1.365 . S
C282 C281 1.366 . S
C282 H296 0.930 . S
C283 C280 1.378 . S
C283 N284 1.315 . S
C283 H286 0.930 . S
N284 Co264 2.194 . S
N284 C279 1.328 . S
N284 C283 1.315 . S
H285 C279 0.929 . S
H286 C283 0.930 . S
H287 C275 0.929 . S
H288 C277 0.929 . S
O289 Co264 2.351 . S
O289 C292 1.244 . S
O290 Co264 2.155 . S
O290 C292 1.240 . S
O291 Co264 2.096 . S
O291 C272 1.247 . S
C292 O289 1.244 . S
C292 O290 1.240 . S
H293 C267 0.931 . S
H294 C276 0.931 . S
H295 C280 0.929 . S
H296 C282 0.930 . S
Co297 N301 2.148 . S
Co297 N307 2.128 . S
Co297 N317 2.194 . S
Co297 O322 2.351 . S
Co297 O323 2.155 1_545 S
Co297 O324 2.096 1_545 S
C298 N301 1.301 . S
C298 N302 1.328 1_545 S
C298 H303 0.930 . S
C299 C300 1.333 . S
C299 N301 1.317 1_565 S
C299 H304 0.930 . S
C300 C299 1.333 . S
C300 N302 1.350 . S
C300 H326 0.931 . S
N301 Co297 2.148 . S
N301 C298 1.301 . S
N301 C299 1.317 1_545 S
N302 C298 1.328 1_565 S
N302 C300 1.350 . S
H303 C298 0.930 . S
H304 C299 0.930 . S
C305 O306 1.238 . S
C305 O324 1.241 1_545 S
O306 C305 1.238 . S
N307 Co297 2.128 . S
N307 C308 1.355 . S
N307 C310 1.311 . S
C308 N307 1.355 . S
C308 C309 1.363 . S
C308 H320 0.929 . S
C309 C308 1.363 . S
C309 N311 1.375 . S
C309 H327 0.931 . S
C310 N307 1.311 . S
C310 N311 1.347 . S
C310 H321 0.929 . S
N311 C309 1.375 . S
N311 C310 1.347 . S
C312 C315 1.365 . S
C312 N317 1.328 . S
C312 H318 0.929 . S
C313 C314 1.362 . S
C313 C316 1.378 . S
C313 H328 0.929 . S
C314 C313 1.362 . S
C314 C315 1.366 . S
C315 C312 1.365 . S
C315 C314 1.366 . S
C315 H329 0.930 . S
C316 C313 1.378 . S
C316 N317 1.315 . S
C316 H319 0.930 . S
N317 Co297 2.194 . S
N317 C312 1.328 . S
N317 C316 1.315 . S
H318 C312 0.929 . S
H319 C316 0.930 . S
H320 C308 0.929 . S
H321 C310 0.929 . S
O322 Co297 2.351 . S
O322 C325 1.244 . S
O323 Co297 2.155 1_565 S
O323 C325 1.240 1_565 S
O324 Co297 2.096 1_565 S
O324 C305 1.241 1_565 S
C325 O322 1.244 . S
C325 O323 1.240 1_545 S
H326 C300 0.931 . S
H327 C309 0.931 . S
H328 C313 0.929 . S
H329 C315 0.930 . S
Co330 N334 2.148 . S
Co330 N340 2.128 . S
Co330 N350 2.194 . S
Co330 O355 2.351 . S
Co330 O356 2.155 . S
Co330 O357 2.096 . S
C331 N334 1.301 . S
C331 N335 1.328 . S
C331 H336 0.930 . S
C332 C333 1.333 . S
C332 N334 1.317 . S
C332 H337 0.930 . S
C333 C332 1.333 . S
C333 N335 1.350 . S
C333 H359 0.931 . S
N334 Co330 2.148 . S
N334 C331 1.301 . S
N334 C332 1.317 . S
N335 C331 1.328 . S
N335 C333 1.350 . S
H336 C331 0.930 . S
H337 C332 0.930 . S
C338 O339 1.224 . S
C338 O357 1.247 . S
O339 C338 1.224 . S
N340 Co330 2.128 . S
N340 C341 1.355 . S
N340 C343 1.311 . S
C341 N340 1.355 . S
C341 C342 1.363 . S
C341 H353 0.929 . S
C342 C341 1.363 . S
C342 N344 1.375 . S
C342 H360 0.931 . S
C343 N340 1.311 . S
C343 N344 1.347 . S
C343 H354 0.929 . S
N344 C342 1.375 . S
N344 C343 1.347 . S
C345 C348 1.365 . S
C345 N350 1.328 . S
C345 H351 0.929 . S
C346 C347 1.362 . S
C346 C349 1.378 . S
C346 H361 0.929 . S
C347 C346 1.362 . S
C347 C348 1.366 . S
C348 C345 1.365 . S
C348 C347 1.366 . S
C348 H362 0.930 . S
C349 C346 1.378 . S
C349 N350 1.315 . S
C349 H352 0.930 . S
N350 Co330 2.194 . S
N350 C345 1.328 . S
N350 C349 1.315 . S
H351 C345 0.929 . S
H352 C349 0.930 . S
H353 C341 0.929 . S
H354 C343 0.929 . S
O355 Co330 2.351 . S
O355 C358 1.244 . S
O356 Co330 2.155 . S
O356 C358 1.240 . S
O357 Co330 2.096 . S
O357 C338 1.247 . S
C358 O355 1.244 . S
C358 O356 1.240 . S
H359 C333 0.931 . S
H360 C342 0.931 . S
H361 C346 0.929 . S
H362 C348 0.930 . S
Co363 N367 2.148 . S
Co363 N373 2.128 . S
Co363 N383 2.194 . S
Co363 O388 2.351 . S
Co363 O389 2.155 1_565 S
Co363 O390 2.096 1_565 S
C364 N367 1.301 . S
C364 N368 1.328 1_565 S
C364 H369 0.930 . S
C365 C366 1.333 . S
C365 N367 1.317 1_545 S
C365 H370 0.930 . S
C366 C365 1.333 . S
C366 N368 1.350 . S
C366 H392 0.931 . S
N367 Co363 2.148 . S
N367 C364 1.301 . S
N367 C365 1.317 1_565 S
N368 C364 1.328 1_545 S
N368 C366 1.350 . S
H369 C364 0.930 . S
H370 C365 0.930 . S
C371 O372 1.238 . S
C371 O390 1.241 1_565 S
O372 C371 1.238 . S
N373 Co363 2.128 . S
N373 C374 1.355 . S
N373 C376 1.311 . S
C374 N373 1.355 . S
C374 C375 1.363 . S
C374 H386 0.929 . S
C375 C374 1.363 . S
C375 N377 1.375 . S
C375 H393 0.931 . S
C376 N373 1.311 . S
C376 N377 1.347 . S
C376 H387 0.929 . S
N377 C375 1.375 . S
N377 C376 1.347 . S
C378 C381 1.365 . S
C378 N383 1.328 . S
C378 H384 0.929 . S
C379 C380 1.362 . S
C379 C382 1.378 . S
C379 H394 0.929 . S
C380 C379 1.362 . S
C380 C381 1.366 . S
C381 C378 1.365 . S
C381 C380 1.366 . S
C381 H395 0.930 . S
C382 C379 1.378 . S
C382 N383 1.315 . S
C382 H385 0.930 . S
N383 Co363 2.194 . S
N383 C378 1.328 . S
N383 C382 1.315 . S
H384 C378 0.929 . S
H385 C382 0.930 . S
H386 C374 0.929 . S
H387 C376 0.929 . S
O388 Co363 2.351 . S
O388 C391 1.244 . S
O389 Co363 2.155 1_545 S
O389 C391 1.240 1_545 S
O390 Co363 2.096 1_545 S
O390 C371 1.241 1_545 S
C391 O388 1.244 . S
C391 O389 1.240 1_565 S
H392 C366 0.931 . S
H393 C375 0.931 . S
H394 C379 0.929 . S
H395 C381 0.930 . S
Co396 N400 2.148 . S
Co396 N406 2.128 . S
Co396 N416 2.194 . S
Co396 O421 2.351 . S
Co396 O422 2.155 . S
Co396 O423 2.096 . S
C397 N400 1.301 . S
C397 N401 1.328 . S
C397 H402 0.930 . S
C398 C399 1.333 . S
C398 N400 1.317 . S
C398 H403 0.930 . S
C399 C398 1.333 . S
C399 N401 1.350 . S
C399 H425 0.931 . S
N400 Co396 2.148 . S
N400 C397 1.301 . S
N400 C398 1.317 . S
N401 C397 1.328 . S
N401 C399 1.350 . S
H402 C397 0.930 . S
H403 C398 0.930 . S
C404 O405 1.224 . S
C404 O423 1.247 . S
O405 C404 1.224 . S
N406 Co396 2.128 . S
N406 C407 1.355 . S
N406 C409 1.311 . S
C407 N406 1.355 . S
C407 C408 1.363 . S
C407 H419 0.929 . S
C408 C407 1.363 . S
C408 N410 1.375 . S
C408 H426 0.931 . S
C409 N406 1.311 . S
C409 N410 1.347 . S
C409 H420 0.929 . S
N410 C408 1.375 . S
N410 C409 1.347 . S
C411 C414 1.365 . S
C411 N416 1.328 . S
C411 H417 0.929 . S
C412 C413 1.362 . S
C412 C415 1.378 . S
C412 H427 0.929 . S
C413 C412 1.362 . S
C413 C414 1.366 . S
C414 C411 1.365 . S
C414 C413 1.366 . S
C414 H428 0.930 . S
C415 C412 1.378 . S
C415 N416 1.315 . S
C415 H418 0.930 . S
N416 Co396 2.194 . S
N416 C411 1.328 . S
N416 C415 1.315 . S
H417 C411 0.929 . S
H418 C415 0.930 . S
H419 C407 0.929 . S
H420 C409 0.929 . S
O421 Co396 2.351 . S
O421 C424 1.244 . S
O422 Co396 2.155 . S
O422 C424 1.240 . S
O423 Co396 2.096 . S
O423 C404 1.247 . S
C424 O421 1.244 . S
C424 O422 1.240 . S
H425 C399 0.931 . S
H426 C408 0.931 . S
H427 C412 0.929 . S
H428 C414 0.930 . S
Co429 N433 2.148 . S
Co429 N439 2.128 . S
Co429 N449 2.194 . S
Co429 O454 2.351 . S
Co429 O455 2.155 1_545 S
Co429 O456 2.096 1_545 S
C430 N433 1.301 . S
C430 N434 1.328 1_545 S
C430 H435 0.930 . S
C431 C432 1.333 . S
C431 N433 1.317 1_565 S
C431 H436 0.930 . S
C432 C431 1.333 . S
C432 N434 1.350 . S
C432 H458 0.931 . S
N433 Co429 2.148 . S
N433 C430 1.301 . S
N433 C431 1.317 1_545 S
N434 C430 1.328 1_565 S
N434 C432 1.350 . S
H435 C430 0.930 . S
H436 C431 0.930 . S
C437 O438 1.238 . S
C437 O456 1.241 1_545 S
O438 C437 1.238 . S
N439 Co429 2.128 . S
N439 C440 1.355 . S
N439 C442 1.311 . S
C440 N439 1.355 . S
C440 C441 1.363 . S
C440 H452 0.929 . S
C441 C440 1.363 . S
C441 N443 1.375 . S
C441 H459 0.931 . S
C442 N439 1.311 . S
C442 N443 1.347 . S
C442 H453 0.929 . S
N443 C441 1.375 . S
N443 C442 1.347 . S
C444 C447 1.365 . S
C444 N449 1.328 . S
C444 H450 0.929 . S
C445 C446 1.362 . S
C445 C448 1.378 . S
C445 H460 0.929 . S
C446 C445 1.362 . S
C446 C447 1.366 . S
C447 C444 1.365 . S
C447 C446 1.366 . S
C447 H461 0.930 . S
C448 C445 1.378 . S
C448 N449 1.315 . S
C448 H451 0.930 . S
N449 Co429 2.194 . S
N449 C444 1.328 . S
N449 C448 1.315 . S
H450 C444 0.929 . S
H451 C448 0.930 . S
H452 C440 0.929 . S
H453 C442 0.929 . S
O454 Co429 2.351 . S
O454 C457 1.244 . S
O455 Co429 2.155 1_565 S
O455 C457 1.240 1_565 S
O456 Co429 2.096 1_565 S
O456 C437 1.241 1_565 S
C457 O454 1.244 . S
C457 O455 1.240 1_545 S
H458 C432 0.931 . S
H459 C441 0.931 . S
H460 C445 0.929 . S
H461 C447 0.930 . S
Co462 N466 2.148 . S
Co462 N472 2.128 . S
Co462 N482 2.194 . S
Co462 O487 2.351 . S
Co462 O488 2.155 . S
Co462 O489 2.096 . S
C463 N466 1.301 . S
C463 N467 1.328 . S
C463 H468 0.930 . S
C464 C465 1.333 . S
C464 N466 1.317 . S
C464 H469 0.930 . S
C465 C464 1.333 . S
C465 N467 1.350 . S
C465 H491 0.931 . S
N466 Co462 2.148 . S
N466 C463 1.301 . S
N466 C464 1.317 . S
N467 C463 1.328 . S
N467 C465 1.350 . S
H468 C463 0.930 . S
H469 C464 0.930 . S
C470 O471 1.224 . S
C470 O489 1.247 . S
O471 C470 1.224 . S
N472 Co462 2.128 . S
N472 C473 1.355 . S
N472 C475 1.311 . S
C473 N472 1.355 . S
C473 C474 1.363 . S
C473 H485 0.929 . S
C474 C473 1.363 . S
C474 N476 1.375 . S
C474 H492 0.931 . S
C475 N472 1.311 . S
C475 N476 1.347 . S
C475 H486 0.929 . S
N476 C474 1.375 . S
N476 C475 1.347 . S
C477 C480 1.365 . S
C477 N482 1.328 . S
C477 H483 0.929 . S
C478 C479 1.362 . S
C478 C481 1.378 . S
C478 H493 0.929 . S
C479 C478 1.362 . S
C479 C480 1.366 . S
C480 C477 1.365 . S
C480 C479 1.366 . S
C480 H494 0.930 . S
C481 C478 1.378 . S
C481 N482 1.315 . S
C481 H484 0.930 . S
N482 Co462 2.194 . S
N482 C477 1.328 . S
N482 C481 1.315 . S
H483 C477 0.929 . S
H484 C481 0.930 . S
H485 C473 0.929 . S
H486 C475 0.929 . S
O487 Co462 2.351 . S
O487 C490 1.244 . S
O488 Co462 2.155 . S
O488 C490 1.240 . S
O489 Co462 2.096 . S
O489 C470 1.247 . S
C490 O487 1.244 . S
C490 O488 1.240 . S
H491 C465 0.931 . S
H492 C474 0.931 . S
H493 C478 0.929 . S
H494 C480 0.930 . S
Co495 N499 2.148 . S
Co495 N505 2.128 . S
Co495 N515 2.194 . S
Co495 O520 2.351 . S
Co495 O521 2.155 1_565 S
Co495 O522 2.096 1_565 S
C496 N499 1.301 . S
C496 N500 1.328 1_565 S
C496 H501 0.930 . S
C497 C498 1.333 . S
C497 N499 1.317 1_545 S
C497 H502 0.930 . S
C498 C497 1.333 . S
C498 N500 1.350 . S
C498 H524 0.931 . S
N499 Co495 2.148 . S
N499 C496 1.301 . S
N499 C497 1.317 1_565 S
N500 C496 1.328 1_545 S
N500 C498 1.350 . S
H501 C496 0.930 . S
H502 C497 0.930 . S
C503 O504 1.238 . S
C503 O522 1.241 1_565 S
O504 C503 1.238 . S
N505 Co495 2.128 . S
N505 C506 1.355 . S
N505 C508 1.311 . S
C506 N505 1.355 . S
C506 C507 1.363 . S
C506 H518 0.929 . S
C507 C506 1.363 . S
C507 N509 1.375 . S
C507 H525 0.931 . S
C508 N505 1.311 . S
C508 N509 1.347 . S
C508 H519 0.929 . S
N509 C507 1.375 . S
N509 C508 1.347 . S
C510 C513 1.365 . S
C510 N515 1.328 . S
C510 H516 0.929 . S
C511 C512 1.362 . S
C511 C514 1.378 . S
C511 H526 0.929 . S
C512 C511 1.362 . S
C512 C513 1.366 . S
C513 C510 1.365 . S
C513 C512 1.366 . S
C513 H527 0.930 . S
C514 C511 1.378 . S
C514 N515 1.315 . S
C514 H517 0.930 . S
N515 Co495 2.194 . S
N515 C510 1.328 . S
N515 C514 1.315 . S
H516 C510 0.929 . S
H517 C514 0.930 . S
H518 C506 0.929 . S
H519 C508 0.929 . S
O520 Co495 2.351 . S
O520 C523 1.244 . S
O521 Co495 2.155 1_545 S
O521 C523 1.240 1_545 S
O522 Co495 2.096 1_545 S
O522 C503 1.241 1_545 S
C523 O520 1.244 . S
C523 O521 1.240 1_565 S
H524 C498 0.931 . S
H525 C507 0.931 . S
H526 C511 0.929 . S
H527 C513 0.930 . S
Co528 N532 2.148 . S
Co528 N538 2.128 . S
Co528 N548 2.194 . S
Co528 O553 2.351 . S
Co528 O554 2.155 . S
Co528 O555 2.096 . S
C529 N532 1.301 . S
C529 N533 1.328 . S
C529 H534 0.930 . S
C530 C531 1.333 . S
C530 N532 1.317 . S
C530 H535 0.930 . S
C531 C530 1.333 . S
C531 N533 1.350 . S
C531 H557 0.931 . S
N532 Co528 2.148 . S
N532 C529 1.301 . S
N532 C530 1.317 . S
N533 C529 1.328 . S
N533 C531 1.350 . S
H534 C529 0.930 . S
H535 C530 0.930 . S
C536 O537 1.224 . S
C536 O555 1.247 . S
O537 C536 1.224 . S
N538 Co528 2.128 . S
N538 C539 1.355 . S
N538 C541 1.311 . S
C539 N538 1.355 . S
C539 C540 1.363 . S
C539 H551 0.929 . S
C540 C539 1.363 . S
C540 N542 1.375 . S
C540 H558 0.931 . S
C541 N538 1.311 . S
C541 N542 1.347 . S
C541 H552 0.929 . S
N542 C540 1.375 . S
N542 C541 1.347 . S
C543 C546 1.365 . S
C543 N548 1.328 . S
C543 H549 0.929 . S
C544 C545 1.362 . S
C544 C547 1.378 . S
C544 H559 0.929 . S
C545 C544 1.362 . S
C545 C546 1.366 . S
C546 C543 1.365 . S
C546 C545 1.366 . S
C546 H560 0.930 . S
C547 C544 1.378 . S
C547 N548 1.315 . S
C547 H550 0.930 . S
N548 Co528 2.194 . S
N548 C543 1.328 . S
N548 C547 1.315 . S
H549 C543 0.929 . S
H550 C547 0.930 . S
H551 C539 0.929 . S
H552 C541 0.929 . S
O553 Co528 2.351 . S
O553 C556 1.244 . S
O554 Co528 2.155 . S
O554 C556 1.240 . S
O555 Co528 2.096 . S
O555 C536 1.247 . S
C556 O553 1.244 . S
C556 O554 1.240 . S
H557 C531 0.931 . S
H558 C540 0.931 . S
H559 C544 0.929 . S
H560 C546 0.930 . S
Co561 N565 2.148 . S
Co561 N571 2.128 . S
Co561 N581 2.194 . S
Co561 O586 2.351 . S
Co561 O587 2.155 . S
Co561 O588 2.096 . S
C562 N565 1.301 . S
C562 N566 1.328 . S
C562 H567 0.930 . S
C563 C564 1.333 . S
C563 N565 1.317 . S
C563 H568 0.930 . S
C564 C563 1.333 . S
C564 N566 1.350 . S
C564 H590 0.931 . S
N565 Co561 2.148 . S
N565 C562 1.301 . S
N565 C563 1.317 . S
N566 C562 1.328 . S
N566 C564 1.350 . S
H567 C562 0.930 . S
H568 C563 0.930 . S
C569 O570 1.224 . S
C569 O588 1.247 . S
O570 C569 1.224 . S
N571 Co561 2.128 . S
N571 C572 1.355 . S
N571 C574 1.311 . S
C572 N571 1.355 . S
C572 C573 1.363 . S
C572 H584 0.929 . S
C573 C572 1.363 . S
C573 N575 1.375 . S
C573 H591 0.931 . S
C574 N571 1.311 . S
C574 N575 1.347 . S
C574 H585 0.929 . S
N575 C573 1.375 . S
N575 C574 1.347 . S
C576 C579 1.365 . S
C576 N581 1.328 . S
C576 H582 0.929 . S
C577 C578 1.362 . S
C577 C580 1.378 . S
C577 H592 0.929 . S
C578 C577 1.362 . S
C578 C579 1.366 . S
C579 C576 1.365 . S
C579 C578 1.366 . S
C579 H593 0.930 . S
C580 C577 1.378 . S
C580 N581 1.315 . S
C580 H583 0.930 . S
N581 Co561 2.194 . S
N581 C576 1.328 . S
N581 C580 1.315 . S
H582 C576 0.929 . S
H583 C580 0.930 . S
H584 C572 0.929 . S
H585 C574 0.929 . S
O586 Co561 2.351 . S
O586 C589 1.244 . S
O587 Co561 2.155 . S
O587 C589 1.240 . S
O588 Co561 2.096 . S
O588 C569 1.247 . S
C589 O586 1.244 . S
C589 O587 1.240 . S
H590 C564 0.931 . S
H591 C573 0.931 . S
H592 C577 0.929 . S
H593 C579 0.930 . S
Co594 N598 2.148 . S
Co594 N604 2.128 . S
Co594 N614 2.194 . S
Co594 O619 2.351 . S
Co594 O620 2.155 1_455 S
Co594 O621 2.096 1_455 S
C595 N598 1.301 . S
C595 N599 1.328 1_455 S
C595 H600 0.930 . S
C596 C597 1.333 . S
C596 N598 1.317 1_655 S
C596 H601 0.930 . S
C597 C596 1.333 . S
C597 N599 1.350 . S
C597 H623 0.931 . S
N598 Co594 2.148 . S
N598 C595 1.301 . S
N598 C596 1.317 1_455 S
N599 C595 1.328 1_655 S
N599 C597 1.350 . S
H600 C595 0.930 . S
H601 C596 0.930 . S
C602 O603 1.238 . S
C602 O621 1.241 1_455 S
O603 C602 1.238 . S
N604 Co594 2.128 . S
N604 C605 1.355 . S
N604 C607 1.311 . S
C605 N604 1.355 . S
C605 C606 1.363 . S
C605 H617 0.929 . S
C606 C605 1.363 . S
C606 N608 1.375 . S
C606 H624 0.931 . S
C607 N604 1.311 . S
C607 N608 1.347 . S
C607 H618 0.929 . S
N608 C606 1.375 . S
N608 C607 1.347 . S
C609 C612 1.365 . S
C609 N614 1.328 . S
C609 H615 0.929 . S
C610 C611 1.362 . S
C610 C613 1.378 . S
C610 H625 0.929 . S
C611 C610 1.362 . S
C611 C612 1.366 . S
C612 C609 1.365 . S
C612 C611 1.366 . S
C612 H626 0.930 . S
C613 C610 1.378 . S
C613 N614 1.315 . S
C613 H616 0.930 . S
N614 Co594 2.194 . S
N614 C609 1.328 . S
N614 C613 1.315 . S
H615 C609 0.929 . S
H616 C613 0.930 . S
H617 C605 0.929 . S
H618 C607 0.929 . S
O619 Co594 2.351 . S
O619 C622 1.244 . S
O620 Co594 2.155 1_655 S
O620 C622 1.240 1_655 S
O621 Co594 2.096 1_655 S
O621 C602 1.241 1_655 S
C622 O619 1.244 . S
C622 O620 1.240 1_455 S
H623 C597 0.931 . S
H624 C606 0.931 . S
H625 C610 0.929 . S
H626 C612 0.930 . S
Co627 N631 2.148 . S
Co627 N637 2.128 . S
Co627 N647 2.194 . S
Co627 O652 2.351 . S
Co627 O653 2.155 . S
Co627 O654 2.096 . S
C628 N631 1.301 . S
C628 N632 1.328 . S
C628 H633 0.930 . S
C629 C630 1.333 . S
C629 N631 1.317 . S
C629 H634 0.930 . S
C630 C629 1.333 . S
C630 N632 1.350 . S
C630 H656 0.931 . S
N631 Co627 2.148 . S
N631 C628 1.301 . S
N631 C629 1.317 . S
N632 C628 1.328 . S
N632 C630 1.350 . S
H633 C628 0.930 . S
H634 C629 0.930 . S
C635 O636 1.224 . S
C635 O654 1.247 . S
O636 C635 1.224 . S
N637 Co627 2.128 . S
N637 C638 1.355 . S
N637 C640 1.311 . S
C638 N637 1.355 . S
C638 C639 1.363 . S
C638 H650 0.929 . S
C639 C638 1.363 . S
C639 N641 1.375 . S
C639 H657 0.931 . S
C640 N637 1.311 . S
C640 N641 1.347 . S
C640 H651 0.929 . S
N641 C639 1.375 . S
N641 C640 1.347 . S
C642 C645 1.365 . S
C642 N647 1.328 . S
C642 H648 0.929 . S
C643 C644 1.362 . S
C643 C646 1.378 . S
C643 H658 0.929 . S
C644 C643 1.362 . S
C644 C645 1.366 . S
C645 C642 1.365 . S
C645 C644 1.366 . S
C645 H659 0.930 . S
C646 C643 1.378 . S
C646 N647 1.315 . S
C646 H649 0.930 . S
N647 Co627 2.194 . S
N647 C642 1.328 . S
N647 C646 1.315 . S
H648 C642 0.929 . S
H649 C646 0.930 . S
H650 C638 0.929 . S
H651 C640 0.929 . S
O652 Co627 2.351 . S
O652 C655 1.244 . S
O653 Co627 2.155 . S
O653 C655 1.240 . S
O654 Co627 2.096 . S
O654 C635 1.247 . S
C655 O652 1.244 . S
C655 O653 1.240 . S
H656 C630 0.931 . S
H657 C639 0.931 . S
H658 C643 0.929 . S
H659 C645 0.930 . S
Co660 N664 2.148 . S
Co660 N670 2.128 . S
Co660 N680 2.194 . S
Co660 O685 2.351 . S
Co660 O686 2.155 1_655 S
Co660 O687 2.096 1_655 S
C661 N664 1.301 . S
C661 N665 1.328 1_655 S
C661 H666 0.930 . S
C662 C663 1.333 . S
C662 N664 1.317 1_455 S
C662 H667 0.930 . S
C663 C662 1.333 . S
C663 N665 1.350 . S
C663 H689 0.931 . S
N664 Co660 2.148 . S
N664 C661 1.301 . S
N664 C662 1.317 1_655 S
N665 C661 1.328 1_455 S
N665 C663 1.350 . S
H666 C661 0.930 . S
H667 C662 0.930 . S
C668 O669 1.238 . S
C668 O687 1.241 1_655 S
O669 C668 1.238 . S
N670 Co660 2.128 . S
N670 C671 1.355 . S
N670 C673 1.311 . S
C671 N670 1.355 . S
C671 C672 1.363 . S
C671 H683 0.929 . S
C672 C671 1.363 . S
C672 N674 1.375 . S
C672 H690 0.931 . S
C673 N670 1.311 . S
C673 N674 1.347 . S
C673 H684 0.929 . S
N674 C672 1.375 . S
N674 C673 1.347 . S
C675 C678 1.365 . S
C675 N680 1.328 . S
C675 H681 0.929 . S
C676 C677 1.362 . S
C676 C679 1.378 . S
C676 H691 0.929 . S
C677 C676 1.362 . S
C677 C678 1.366 . S
C678 C675 1.365 . S
C678 C677 1.366 . S
C678 H692 0.930 . S
C679 C676 1.378 . S
C679 N680 1.315 . S
C679 H682 0.930 . S
N680 Co660 2.194 . S
N680 C675 1.328 . S
N680 C679 1.315 . S
H681 C675 0.929 . S
H682 C679 0.930 . S
H683 C671 0.929 . S
H684 C673 0.929 . S
O685 Co660 2.351 . S
O685 C688 1.244 . S
O686 Co660 2.155 1_455 S
O686 C688 1.240 1_455 S
O687 Co660 2.096 1_455 S
O687 C668 1.241 1_455 S
C688 O685 1.244 . S
C688 O686 1.240 1_655 S
H689 C663 0.931 . S
H690 C672 0.931 . S
H691 C676 0.929 . S
H692 C678 0.930 . S
Co693 N697 2.148 . S
Co693 N703 2.128 . S
Co693 N713 2.194 . S
Co693 O718 2.351 . S
Co693 O719 2.155 . S
Co693 O720 2.096 . S
C694 N697 1.301 . S
C694 N698 1.328 . S
C694 H699 0.930 . S
C695 C696 1.333 . S
C695 N697 1.317 . S
C695 H700 0.930 . S
C696 C695 1.333 . S
C696 N698 1.350 . S
C696 H722 0.931 . S
N697 Co693 2.148 . S
N697 C694 1.301 . S
N697 C695 1.317 . S
N698 C694 1.328 . S
N698 C696 1.350 . S
H699 C694 0.930 . S
H700 C695 0.930 . S
C701 O702 1.224 . S
C701 O720 1.247 . S
O702 C701 1.224 . S
N703 Co693 2.128 . S
N703 C704 1.355 . S
N703 C706 1.311 . S
C704 N703 1.355 . S
C704 C705 1.363 . S
C704 H716 0.929 . S
C705 C704 1.363 . S
C705 N707 1.375 . S
C705 H723 0.931 . S
C706 N703 1.311 . S
C706 N707 1.347 . S
C706 H717 0.929 . S
N707 C705 1.375 . S
N707 C706 1.347 . S
C708 C711 1.365 . S
C708 N713 1.328 . S
C708 H714 0.929 . S
C709 C710 1.362 . S
C709 C712 1.378 . S
C709 H724 0.929 . S
C710 C709 1.362 . S
C710 C711 1.366 . S
C711 C708 1.365 . S
C711 C710 1.366 . S
C711 H725 0.930 . S
C712 C709 1.378 . S
C712 N713 1.315 . S
C712 H715 0.930 . S
N713 Co693 2.194 . S
N713 C708 1.328 . S
N713 C712 1.315 . S
H714 C708 0.929 . S
H715 C712 0.930 . S
H716 C704 0.929 . S
H717 C706 0.929 . S
O718 Co693 2.351 . S
O718 C721 1.244 . S
O719 Co693 2.155 . S
O719 C721 1.240 . S
O720 Co693 2.096 . S
O720 C701 1.247 . S
C721 O718 1.244 . S
C721 O719 1.240 . S
H722 C696 0.931 . S
H723 C705 0.931 . S
H724 C709 0.929 . S
H725 C711 0.930 . S
Co726 N730 2.148 . S
Co726 N736 2.128 . S
Co726 N746 2.194 . S
Co726 O751 2.351 . S
Co726 O752 2.155 1_455 S
Co726 O753 2.096 1_455 S
C727 N730 1.301 . S
C727 N731 1.328 1_455 S
C727 H732 0.930 . S
C728 C729 1.333 . S
C728 N730 1.317 1_655 S
C728 H733 0.930 . S
C729 C728 1.333 . S
C729 N731 1.350 . S
C729 H755 0.931 . S
N730 Co726 2.148 . S
N730 C727 1.301 . S
N730 C728 1.317 1_455 S
N731 C727 1.328 1_655 S
N731 C729 1.350 . S
H732 C727 0.930 . S
H733 C728 0.930 . S
C734 O735 1.238 . S
C734 O753 1.241 1_455 S
O735 C734 1.238 . S
N736 Co726 2.128 . S
N736 C737 1.355 . S
N736 C739 1.311 . S
C737 N736 1.355 . S
C737 C738 1.363 . S
C737 H749 0.929 . S
C738 C737 1.363 . S
C738 N740 1.375 . S
C738 H756 0.931 . S
C739 N736 1.311 . S
C739 N740 1.347 . S
C739 H750 0.929 . S
N740 C738 1.375 . S
N740 C739 1.347 . S
C741 C744 1.365 . S
C741 N746 1.328 . S
C741 H747 0.929 . S
C742 C743 1.362 . S
C742 C745 1.378 . S
C742 H757 0.929 . S
C743 C742 1.362 . S
C743 C744 1.366 . S
C744 C741 1.365 . S
C744 C743 1.366 . S
C744 H758 0.930 . S
C745 C742 1.378 . S
C745 N746 1.315 . S
C745 H748 0.930 . S
N746 Co726 2.194 . S
N746 C741 1.328 . S
N746 C745 1.315 . S
H747 C741 0.929 . S
H748 C745 0.930 . S
H749 C737 0.929 . S
H750 C739 0.929 . S
O751 Co726 2.351 . S
O751 C754 1.244 . S
O752 Co726 2.155 1_655 S
O752 C754 1.240 1_655 S
O753 Co726 2.096 1_655 S
O753 C734 1.241 1_655 S
C754 O751 1.244 . S
C754 O752 1.240 1_455 S
H755 C729 0.931 . S
H756 C738 0.931 . S
H757 C742 0.929 . S
H758 C744 0.930 . S
Co759 N763 2.148 . S
Co759 N769 2.128 . S
Co759 N779 2.194 . S
Co759 O784 2.351 . S
Co759 O785 2.155 . S
Co759 O786 2.096 . S
C760 N763 1.301 . S
C760 N764 1.328 . S
C760 H765 0.930 . S
C761 C762 1.333 . S
C761 N763 1.317 . S
C761 H766 0.930 . S
C762 C761 1.333 . S
C762 N764 1.350 . S
C762 H788 0.931 . S
N763 Co759 2.148 . S
N763 C760 1.301 . S
N763 C761 1.317 . S
N764 C760 1.328 . S
N764 C762 1.350 . S
H765 C760 0.930 . S
H766 C761 0.930 . S
C767 O768 1.224 . S
C767 O786 1.247 . S
O768 C767 1.224 . S
N769 Co759 2.128 . S
N769 C770 1.355 . S
N769 C772 1.311 . S
C770 N769 1.355 . S
C770 C771 1.363 . S
C770 H782 0.929 . S
C771 C770 1.363 . S
C771 N773 1.375 . S
C771 H789 0.931 . S
C772 N769 1.311 . S
C772 N773 1.347 . S
C772 H783 0.929 . S
N773 C771 1.375 . S
N773 C772 1.347 . S
C774 C777 1.365 . S
C774 N779 1.328 . S
C774 H780 0.929 . S
C775 C776 1.362 . S
C775 C778 1.378 . S
C775 H790 0.929 . S
C776 C775 1.362 . S
C776 C777 1.366 . S
C777 C774 1.365 . S
C777 C776 1.366 . S
C777 H791 0.930 . S
C778 C775 1.378 . S
C778 N779 1.315 . S
C778 H781 0.930 . S
N779 Co759 2.194 . S
N779 C774 1.328 . S
N779 C778 1.315 . S
H780 C774 0.929 . S
H781 C778 0.930 . S
H782 C770 0.929 . S
H783 C772 0.929 . S
O784 Co759 2.351 . S
O784 C787 1.244 . S
O785 Co759 2.155 . S
O785 C787 1.240 . S
O786 Co759 2.096 . S
O786 C767 1.247 . S
C787 O784 1.244 . S
C787 O785 1.240 . S
H788 C762 0.931 . S
H789 C771 0.931 . S
H790 C775 0.929 . S
H791 C777 0.930 . S
Co792 N796 2.148 . S
Co792 N802 2.128 . S
Co792 N812 2.194 . S
Co792 O817 2.351 . S
Co792 O818 2.155 . S
Co792 O819 2.096 . S
C793 N796 1.301 . S
C793 N797 1.328 . S
C793 H798 0.930 . S
C794 C795 1.333 . S
C794 N796 1.317 . S
C794 H799 0.930 . S
C795 C794 1.333 . S
C795 N797 1.350 . S
C795 H821 0.931 . S
N796 Co792 2.148 . S
N796 C793 1.301 . S
N796 C794 1.317 . S
N797 C793 1.328 . S
N797 C795 1.350 . S
H798 C793 0.930 . S
H799 C794 0.930 . S
C800 O801 1.224 . S
C800 O819 1.247 . S
O801 C800 1.224 . S
N802 Co792 2.128 . S
N802 C803 1.355 . S
N802 C805 1.311 . S
C803 N802 1.355 . S
C803 C804 1.363 . S
C803 H815 0.929 . S
C804 C803 1.363 . S
C804 N806 1.375 . S
C804 H822 0.931 . S
C805 N802 1.311 . S
C805 N806 1.347 . S
C805 H816 0.929 . S
N806 C804 1.375 . S
N806 C805 1.347 . S
C807 C810 1.365 . S
C807 N812 1.328 . S
C807 H813 0.929 . S
C808 C809 1.362 . S
C808 C811 1.378 . S
C808 H823 0.929 . S
C809 C808 1.362 . S
C809 C810 1.366 . S
C810 C807 1.365 . S
C810 C809 1.366 . S
C810 H824 0.930 . S
C811 C808 1.378 . S
C811 N812 1.315 . S
C811 H814 0.930 . S
N812 Co792 2.194 . S
N812 C807 1.328 . S
N812 C811 1.315 . S
H813 C807 0.929 . S
H814 C811 0.930 . S
H815 C803 0.929 . S
H816 C805 0.929 . S
O817 Co792 2.351 . S
O817 C820 1.244 . S
O818 Co792 2.155 . S
O818 C820 1.240 . S
O819 Co792 2.096 . S
O819 C800 1.247 . S
C820 O817 1.244 . S
C820 O818 1.240 . S
H821 C795 0.931 . S
H822 C804 0.931 . S
H823 C808 0.929 . S
H824 C810 0.930 . S
Co825 N829 2.148 . S
Co825 N835 2.128 . S
Co825 N845 2.194 . S
Co825 O850 2.351 . S
Co825 O851 2.155 1_554 S
Co825 O852 2.096 1_554 S
C826 N829 1.301 . S
C826 N830 1.328 1_554 S
C826 H831 0.930 . S
C827 C828 1.333 . S
C827 N829 1.317 1_556 S
C827 H832 0.930 . S
C828 C827 1.333 . S
C828 N830 1.350 . S
C828 H854 0.931 . S
N829 Co825 2.148 . S
N829 C826 1.301 . S
N829 C827 1.317 1_554 S
N830 C826 1.328 1_556 S
N830 C828 1.350 . S
H831 C826 0.930 . S
H832 C827 0.930 . S
C833 O834 1.238 . S
C833 O852 1.241 1_554 S
O834 C833 1.238 . S
N835 Co825 2.128 . S
N835 C836 1.355 . S
N835 C838 1.311 . S
C836 N835 1.355 . S
C836 C837 1.363 . S
C836 H848 0.929 . S
C837 C836 1.363 . S
C837 N839 1.375 . S
C837 H855 0.931 . S
C838 N835 1.311 . S
C838 N839 1.347 . S
C838 H849 0.929 . S
N839 C837 1.375 . S
N839 C838 1.347 . S
C840 C843 1.365 . S
C840 N845 1.328 . S
C840 H846 0.929 . S
C841 C842 1.362 . S
C841 C844 1.378 . S
C841 H856 0.929 . S
C842 C841 1.362 . S
C842 C843 1.366 . S
C843 C840 1.365 . S
C843 C842 1.366 . S
C843 H857 0.930 . S
C844 C841 1.378 . S
C844 N845 1.315 . S
C844 H847 0.930 . S
N845 Co825 2.194 . S
N845 C840 1.328 . S
N845 C844 1.315 . S
H846 C840 0.929 . S
H847 C844 0.930 . S
H848 C836 0.929 . S
H849 C838 0.929 . S
O850 Co825 2.351 . S
O850 C853 1.244 . S
O851 Co825 2.155 1_556 S
O851 C853 1.240 1_556 S
O852 Co825 2.096 1_556 S
O852 C833 1.241 1_556 S
C853 O850 1.244 . S
C853 O851 1.240 1_554 S
H854 C828 0.931 . S
H855 C837 0.931 . S
H856 C841 0.929 . S
H857 C843 0.930 . S
Co858 N862 2.148 . S
Co858 N868 2.128 . S
Co858 N878 2.194 . S
Co858 O883 2.351 . S
Co858 O884 2.155 . S
Co858 O885 2.096 . S
C859 N862 1.301 . S
C859 N863 1.328 . S
C859 H864 0.930 . S
C860 C861 1.333 . S
C860 N862 1.317 . S
C860 H865 0.930 . S
C861 C860 1.333 . S
C861 N863 1.350 . S
C861 H887 0.931 . S
N862 Co858 2.148 . S
N862 C859 1.301 . S
N862 C860 1.317 . S
N863 C859 1.328 . S
N863 C861 1.350 . S
H864 C859 0.930 . S
H865 C860 0.930 . S
C866 O867 1.224 . S
C866 O885 1.247 . S
O867 C866 1.224 . S
N868 Co858 2.128 . S
N868 C869 1.355 . S
N868 C871 1.311 . S
C869 N868 1.355 . S
C869 C870 1.363 . S
C869 H881 0.929 . S
C870 C869 1.363 . S
C870 N872 1.375 . S
C870 H888 0.931 . S
C871 N868 1.311 . S
C871 N872 1.347 . S
C871 H882 0.929 . S
N872 C870 1.375 . S
N872 C871 1.347 . S
C873 C876 1.365 . S
C873 N878 1.328 . S
C873 H879 0.929 . S
C874 C875 1.362 . S
C874 C877 1.378 . S
C874 H889 0.929 . S
C875 C874 1.362 . S
C875 C876 1.366 . S
C876 C873 1.365 . S
C876 C875 1.366 . S
C876 H890 0.930 . S
C877 C874 1.378 . S
C877 N878 1.315 . S
C877 H880 0.930 . S
N878 Co858 2.194 . S
N878 C873 1.328 . S
N878 C877 1.315 . S
H879 C873 0.929 . S
H880 C877 0.930 . S
H881 C869 0.929 . S
H882 C871 0.929 . S
O883 Co858 2.351 . S
O883 C886 1.244 . S
O884 Co858 2.155 . S
O884 C886 1.240 . S
O885 Co858 2.096 . S
O885 C866 1.247 . S
C886 O883 1.244 . S
C886 O884 1.240 . S
H887 C861 0.931 . S
H888 C870 0.931 . S
H889 C874 0.929 . S
H890 C876 0.930 . S
Co891 N895 2.148 . S
Co891 N901 2.128 . S
Co891 N911 2.194 . S
Co891 O916 2.351 . S
Co891 O917 2.155 . S
Co891 O918 2.096 . S
C892 N895 1.301 . S
C892 N896 1.328 . S
C892 H897 0.930 . S
C893 C894 1.333 . S
C893 N895 1.317 . S
C893 H898 0.930 . S
C894 C893 1.333 . S
C894 N896 1.350 . S
C894 H920 0.931 . S
N895 Co891 2.148 . S
N895 C892 1.301 . S
N895 C893 1.317 . S
N896 C892 1.328 . S
N896 C894 1.350 . S
H897 C892 0.930 . S
H898 C893 0.930 . S
C899 O900 1.224 . S
C899 O918 1.247 . S
O900 C899 1.224 . S
N901 Co891 2.128 . S
N901 C902 1.355 . S
N901 C904 1.311 . S
C902 N901 1.355 . S
C902 C903 1.363 . S
C902 H914 0.929 . S
C903 C902 1.363 . S
C903 N905 1.375 . S
C903 H921 0.931 . S
C904 N901 1.311 . S
C904 N905 1.347 . S
C904 H915 0.929 . S
N905 C903 1.375 . S
N905 C904 1.347 . S
C906 C909 1.365 . S
C906 N911 1.328 . S
C906 H912 0.929 . S
C907 C908 1.362 . S
C907 C910 1.378 . S
C907 H922 0.929 . S
C908 C907 1.362 . S
C908 C909 1.366 . S
C909 C906 1.365 . S
C909 C908 1.366 . S
C909 H923 0.930 . S
C910 C907 1.378 . S
C910 N911 1.315 . S
C910 H913 0.930 . S
N911 Co891 2.194 . S
N911 C906 1.328 . S
N911 C910 1.315 . S
H912 C906 0.929 . S
H913 C910 0.930 . S
H914 C902 0.929 . S
H915 C904 0.929 . S
O916 Co891 2.351 . S
O916 C919 1.244 . S
O917 Co891 2.155 . S
O917 C919 1.240 . S
O918 Co891 2.096 . S
O918 C899 1.247 . S
C919 O916 1.244 . S
C919 O917 1.240 . S
H920 C894 0.931 . S
H921 C903 0.931 . S
H922 C907 0.929 . S
H923 C909 0.930 . S
Co924 N928 2.148 . S
Co924 N934 2.128 . S
Co924 N944 2.194 . S
Co924 O949 2.351 . S
Co924 O950 2.155 . S
Co924 O951 2.096 . S
C925 N928 1.301 . S
C925 N929 1.328 . S
C925 H930 0.930 . S
C926 C927 1.333 . S
C926 N928 1.317 . S
C926 H931 0.930 . S
C927 C926 1.333 . S
C927 N929 1.350 . S
C927 H953 0.931 . S
N928 Co924 2.148 . S
N928 C925 1.301 . S
N928 C926 1.317 . S
N929 C925 1.328 . S
N929 C927 1.350 . S
H930 C925 0.930 . S
H931 C926 0.930 . S
C932 O933 1.224 . S
C932 O951 1.247 . S
O933 C932 1.224 . S
N934 Co924 2.128 . S
N934 C935 1.355 . S
N934 C937 1.311 . S
C935 N934 1.355 . S
C935 C936 1.363 . S
C935 H947 0.929 . S
C936 C935 1.363 . S
C936 N938 1.375 . S
C936 H954 0.931 . S
C937 N934 1.311 . S
C937 N938 1.347 . S
C937 H948 0.929 . S
N938 C936 1.375 . S
N938 C937 1.347 . S
C939 C942 1.365 . S
C939 N944 1.328 . S
C939 H945 0.929 . S
C940 C941 1.362 . S
C940 C943 1.378 . S
C940 H955 0.929 . S
C941 C940 1.362 . S
C941 C942 1.366 . S
C942 C939 1.365 . S
C942 C941 1.366 . S
C942 H956 0.930 . S
C943 C940 1.378 . S
C943 N944 1.315 . S
C943 H946 0.930 . S
N944 Co924 2.194 . S
N944 C939 1.328 . S
N944 C943 1.315 . S
H945 C939 0.929 . S
H946 C943 0.930 . S
H947 C935 0.929 . S
H948 C937 0.929 . S
O949 Co924 2.351 . S
O949 C952 1.244 . S
O950 Co924 2.155 . S
O950 C952 1.240 . S
O951 Co924 2.096 . S
O951 C932 1.247 . S
C952 O949 1.244 . S
C952 O950 1.240 . S
H953 C927 0.931 . S
H954 C936 0.931 . S
H955 C940 0.929 . S
H956 C942 0.930 . S
Co957 N961 2.148 . S
Co957 N967 2.128 . S
Co957 N977 2.194 . S
Co957 O982 2.351 . S
Co957 O983 2.155 1_556 S
Co957 O984 2.096 1_556 S
C958 N961 1.301 . S
C958 N962 1.328 1_556 S
C958 H963 0.930 . S
C959 C960 1.333 . S
C959 N961 1.317 1_554 S
C959 H964 0.930 . S
C960 C959 1.333 . S
C960 N962 1.350 . S
C960 H986 0.931 . S
N961 Co957 2.148 . S
N961 C958 1.301 . S
N961 C959 1.317 1_556 S
N962 C958 1.328 1_554 S
N962 C960 1.350 . S
H963 C958 0.930 . S
H964 C959 0.930 . S
C965 O966 1.238 . S
C965 O984 1.241 1_556 S
O966 C965 1.238 . S
N967 Co957 2.128 . S
N967 C968 1.355 . S
N967 C970 1.311 . S
C968 N967 1.355 . S
C968 C969 1.363 . S
C968 H980 0.929 . S
C969 C968 1.363 . S
C969 N971 1.375 . S
C969 H987 0.931 . S
C970 N967 1.311 . S
C970 N971 1.347 . S
C970 H981 0.929 . S
N971 C969 1.375 . S
N971 C970 1.347 . S
C972 C975 1.365 . S
C972 N977 1.328 . S
C972 H978 0.929 . S
C973 C974 1.362 . S
C973 C976 1.378 . S
C973 H988 0.929 . S
C974 C973 1.362 . S
C974 C975 1.366 . S
C975 C972 1.365 . S
C975 C974 1.366 . S
C975 H989 0.930 . S
C976 C973 1.378 . S
C976 N977 1.315 . S
C976 H979 0.930 . S
N977 Co957 2.194 . S
N977 C972 1.328 . S
N977 C976 1.315 . S
H978 C972 0.929 . S
H979 C976 0.930 . S
H980 C968 0.929 . S
H981 C970 0.929 . S
O982 Co957 2.351 . S
O982 C985 1.244 . S
O983 Co957 2.155 1_554 S
O983 C985 1.240 1_554 S
O984 Co957 2.096 1_554 S
O984 C965 1.241 1_554 S
C985 O982 1.244 . S
C985 O983 1.240 1_556 S
H986 C960 0.931 . S
H987 C969 0.931 . S
H988 C973 0.929 . S
H989 C975 0.930 . S
Co990 N994 2.148 . S
Co990 N1000 2.128 . S
Co990 N1010 2.194 . S
Co990 O1015 2.351 . S
Co990 O1016 2.155 . S
Co990 O1017 2.096 . S
C991 N994 1.301 . S
C991 N995 1.328 . S
C991 H996 0.930 . S
C992 C993 1.333 . S
C992 N994 1.317 . S
C992 H997 0.930 . S
C993 C992 1.333 . S
C993 N995 1.350 . S
C993 H1019 0.931 . S
N994 Co990 2.148 . S
N994 C991 1.301 . S
N994 C992 1.317 . S
N995 C991 1.328 . S
N995 C993 1.350 . S
H996 C991 0.930 . S
H997 C992 0.930 . S
C998 O999 1.224 . S
C998 O1017 1.247 . S
O999 C998 1.224 . S
N1000 Co990 2.128 . S
N1000 C1001 1.355 . S
N1000 C1003 1.311 . S
C1001 N1000 1.355 . S
C1001 C1002 1.363 . S
C1001 H1013 0.929 . S
C1002 C1001 1.363 . S
C1002 N1004 1.375 . S
C1002 H1020 0.931 . S
C1003 N1000 1.311 . S
C1003 N1004 1.347 . S
C1003 H1014 0.929 . S
N1004 C1002 1.375 . S
N1004 C1003 1.347 . S
C1005 C1008 1.365 . S
C1005 N1010 1.328 . S
C1005 H1011 0.929 . S
C1006 C1007 1.362 . S
C1006 C1009 1.378 . S
C1006 H1021 0.929 . S
C1007 C1006 1.362 . S
C1007 C1008 1.366 . S
C1008 C1005 1.365 . S
C1008 C1007 1.366 . S
C1008 H1022 0.930 . S
C1009 C1006 1.378 . S
C1009 N1010 1.315 . S
C1009 H1012 0.930 . S
N1010 Co990 2.194 . S
N1010 C1005 1.328 . S
N1010 C1009 1.315 . S
H1011 C1005 0.929 . S
H1012 C1009 0.930 . S
H1013 C1001 0.929 . S
H1014 C1003 0.929 . S
O1015 Co990 2.351 . S
O1015 C1018 1.244 . S
O1016 Co990 2.155 . S
O1016 C1018 1.240 . S
O1017 Co990 2.096 . S
O1017 C998 1.247 . S
C1018 O1015 1.244 . S
C1018 O1016 1.240 . S
H1019 C993 0.931 . S
H1020 C1002 0.931 . S
H1021 C1006 0.929 . S
H1022 C1008 0.930 . S
Co1023 N1027 2.148 . S
Co1023 N1033 2.128 . S
Co1023 N1043 2.194 . S
Co1023 O1048 2.351 . S
Co1023 O1049 2.155 . S
Co1023 O1050 2.096 . S
C1024 N1027 1.301 . S
C1024 N1028 1.328 . S
C1024 H1029 0.930 . S
C1025 C1026 1.333 . S
C1025 N1027 1.317 . S
C1025 H1030 0.930 . S
C1026 C1025 1.333 . S
C1026 N1028 1.350 . S
C1026 H1052 0.931 . S
N1027 Co1023 2.148 . S
N1027 C1024 1.301 . S
N1027 C1025 1.317 . S
N1028 C1024 1.328 . S
N1028 C1026 1.350 . S
H1029 C1024 0.930 . S
H1030 C1025 0.930 . S
C1031 O1032 1.224 . S
C1031 O1050 1.247 . S
O1032 C1031 1.224 . S
N1033 Co1023 2.128 . S
N1033 C1034 1.355 . S
N1033 C1036 1.311 . S
C1034 N1033 1.355 . S
C1034 C1035 1.363 . S
C1034 H1046 0.929 . S
C1035 C1034 1.363 . S
C1035 N1037 1.375 . S
C1035 H1053 0.931 . S
C1036 N1033 1.311 . S
C1036 N1037 1.347 . S
C1036 H1047 0.929 . S
N1037 C1035 1.375 . S
N1037 C1036 1.347 . S
C1038 C1041 1.365 . S
C1038 N1043 1.328 . S
C1038 H1044 0.929 . S
C1039 C1040 1.362 . S
C1039 C1042 1.378 . S
C1039 H1054 0.929 . S
C1040 C1039 1.362 . S
C1040 C1041 1.366 . S
C1041 C1038 1.365 . S
C1041 C1040 1.366 . S
C1041 H1055 0.930 . S
C1042 C1039 1.378 . S
C1042 N1043 1.315 . S
C1042 H1045 0.930 . S
N1043 Co1023 2.194 . S
N1043 C1038 1.328 . S
N1043 C1042 1.315 . S
H1044 C1038 0.929 . S
H1045 C1042 0.930 . S
H1046 C1034 0.929 . S
H1047 C1036 0.929 . S
O1048 Co1023 2.351 . S
O1048 C1051 1.244 . S
O1049 Co1023 2.155 . S
O1049 C1051 1.240 . S
O1050 Co1023 2.096 . S
O1050 C1031 1.247 . S
C1051 O1048 1.244 . S
C1051 O1049 1.240 . S
H1052 C1026 0.931 . S
H1053 C1035 0.931 . S
H1054 C1039 0.929 . S
H1055 C1041 0.930 . S
Co1056 N1060 2.148 . S
Co1056 N1066 2.128 . S
Co1056 N1076 2.194 . S
Co1056 O1081 2.351 . S
Co1056 O1082 2.155 . S
Co1056 O1083 2.096 . S
C1057 N1060 1.301 . S
C1057 N1061 1.328 . S
C1057 H1062 0.930 . S
C1058 C1059 1.333 . S
C1058 N1060 1.317 . S
C1058 H1063 0.930 . S
C1059 C1058 1.333 . S
C1059 N1061 1.350 . S
C1059 H1085 0.931 . S
N1060 Co1056 2.148 . S
N1060 C1057 1.301 . S
N1060 C1058 1.317 . S
N1061 C1057 1.328 . S
N1061 C1059 1.350 . S
H1062 C1057 0.930 . S
H1063 C1058 0.930 . S
C1064 O1065 1.224 . S
C1064 O1083 1.247 . S
O1065 C1064 1.224 . S
N1066 Co1056 2.128 . S
N1066 C1067 1.355 . S
N1066 C1069 1.311 . S
C1067 N1066 1.355 . S
C1067 C1068 1.363 . S
C1067 H1079 0.929 . S
C1068 C1067 1.363 . S
C1068 N1070 1.375 . S
C1068 H1086 0.931 . S
C1069 N1066 1.311 . S
C1069 N1070 1.347 . S
C1069 H1080 0.929 . S
N1070 C1068 1.375 . S
N1070 C1069 1.347 . S
C1071 C1074 1.365 . S
C1071 N1076 1.328 . S
C1071 H1077 0.929 . S
C1072 C1073 1.362 . S
C1072 C1075 1.378 . S
C1072 H1087 0.929 . S
C1073 C1072 1.362 . S
C1073 C1074 1.366 . S
C1074 C1071 1.365 . S
C1074 C1073 1.366 . S
C1074 H1088 0.930 . S
C1075 C1072 1.378 . S
C1075 N1076 1.315 . S
C1075 H1078 0.930 . S
N1076 Co1056 2.194 . S
N1076 C1071 1.328 . S
N1076 C1075 1.315 . S
H1077 C1071 0.929 . S
H1078 C1075 0.930 . S
H1079 C1067 0.929 . S
H1080 C1069 0.929 . S
O1081 Co1056 2.351 . S
O1081 C1084 1.244 . S
O1082 Co1056 2.155 . S
O1082 C1084 1.240 . S
O1083 Co1056 2.096 . S
O1083 C1064 1.247 . S
C1084 O1081 1.244 . S
C1084 O1082 1.240 . S
H1085 C1059 0.931 . S
H1086 C1068 0.931 . S
H1087 C1072 0.929 . S
H1088 C1074 0.930 . S
Co1089 N1093 2.148 . S
Co1089 N1099 2.128 . S
Co1089 N1109 2.194 . S
Co1089 O1114 2.351 . S
Co1089 O1115 2.155 . S
Co1089 O1116 2.096 . S
C1090 N1093 1.301 . S
C1090 N1094 1.328 . S
C1090 H1095 0.930 . S
C1091 C1092 1.333 . S
C1091 N1093 1.317 . S
C1091 H1096 0.930 . S
C1092 C1091 1.333 . S
C1092 N1094 1.350 . S
C1092 H1118 0.931 . S
N1093 Co1089 2.148 . S
N1093 C1090 1.301 . S
N1093 C1091 1.317 . S
N1094 C1090 1.328 . S
N1094 C1092 1.350 . S
H1095 C1090 0.930 . S
H1096 C1091 0.930 . S
C1097 O1098 1.224 . S
C1097 O1116 1.247 . S
O1098 C1097 1.224 . S
N1099 Co1089 2.128 . S
N1099 C1100 1.355 . S
N1099 C1102 1.311 . S
C1100 N1099 1.355 . S
C1100 C1101 1.363 . S
C1100 H1112 0.929 . S
C1101 C1100 1.363 . S
C1101 N1103 1.375 . S
C1101 H1119 0.931 . S
C1102 N1099 1.311 . S
C1102 N1103 1.347 . S
C1102 H1113 0.929 . S
N1103 C1101 1.375 . S
N1103 C1102 1.347 . S
C1104 C1107 1.365 . S
C1104 N1109 1.328 . S
C1104 H1110 0.929 . S
C1105 C1106 1.362 . S
C1105 C1108 1.378 . S
C1105 H1120 0.929 . S
C1106 C1105 1.362 . S
C1106 C1107 1.366 . S
C1107 C1104 1.365 . S
C1107 C1106 1.366 . S
C1107 H1121 0.930 . S
C1108 C1105 1.378 . S
C1108 N1109 1.315 . S
C1108 H1111 0.930 . S
N1109 Co1089 2.194 . S
N1109 C1104 1.328 . S
N1109 C1108 1.315 . S
H1110 C1104 0.929 . S
H1111 C1108 0.930 . S
H1112 C1100 0.929 . S
H1113 C1102 0.929 . S
O1114 Co1089 2.351 . S
O1114 C1117 1.244 . S
O1115 Co1089 2.155 . S
O1115 C1117 1.240 . S
O1116 Co1089 2.096 . S
O1116 C1097 1.247 . S
C1117 O1114 1.244 . S
C1117 O1115 1.240 . S
H1118 C1092 0.931 . S
H1119 C1101 0.931 . S
H1120 C1105 0.929 . S
H1121 C1107 0.930 . S
Co1122 N1126 2.148 . S
Co1122 N1132 2.128 . S
Co1122 N1142 2.194 . S
Co1122 O1147 2.351 . S
Co1122 O1148 2.155 . S
Co1122 O1149 2.096 . S
C1123 N1126 1.301 . S
C1123 N1127 1.328 . S
C1123 H1128 0.930 . S
C1124 C1125 1.333 . S
C1124 N1126 1.317 . S
C1124 H1129 0.930 . S
C1125 C1124 1.333 . S
C1125 N1127 1.350 . S
C1125 H1151 0.931 . S
N1126 Co1122 2.148 . S
N1126 C1123 1.301 . S
N1126 C1124 1.317 . S
N1127 C1123 1.328 . S
N1127 C1125 1.350 . S
H1128 C1123 0.930 . S
H1129 C1124 0.930 . S
C1130 O1131 1.224 . S
C1130 O1149 1.247 . S
O1131 C1130 1.224 . S
N1132 Co1122 2.128 . S
N1132 C1133 1.355 . S
N1132 C1135 1.311 . S
C1133 N1132 1.355 . S
C1133 C1134 1.363 . S
C1133 H1145 0.929 . S
C1134 C1133 1.363 . S
C1134 N1136 1.375 . S
C1134 H1152 0.931 . S
C1135 N1132 1.311 . S
C1135 N1136 1.347 . S
C1135 H1146 0.929 . S
N1136 C1134 1.375 . S
N1136 C1135 1.347 . S
C1137 C1140 1.365 . S
C1137 N1142 1.328 . S
C1137 H1143 0.929 . S
C1138 C1139 1.362 . S
C1138 C1141 1.378 . S
C1138 H1153 0.929 . S
C1139 C1138 1.362 . S
C1139 C1140 1.366 . S
C1140 C1137 1.365 . S
C1140 C1139 1.366 . S
C1140 H1154 0.930 . S
C1141 C1138 1.378 . S
C1141 N1142 1.315 . S
C1141 H1144 0.930 . S
N1142 Co1122 2.194 . S
N1142 C1137 1.328 . S
N1142 C1141 1.315 . S
H1143 C1137 0.929 . S
H1144 C1141 0.930 . S
H1145 C1133 0.929 . S
H1146 C1135 0.929 . S
O1147 Co1122 2.351 . S
O1147 C1150 1.244 . S
O1148 Co1122 2.155 . S
O1148 C1150 1.240 . S
O1149 Co1122 2.096 . S
O1149 C1130 1.247 . S
C1150 O1147 1.244 . S
C1150 O1148 1.240 . S
H1151 C1125 0.931 . S
H1152 C1134 0.931 . S
H1153 C1138 0.929 . S
H1154 C1140 0.930 . S
Co1155 N1159 2.148 . S
Co1155 N1165 2.128 . S
Co1155 N1175 2.194 . S
Co1155 O1180 2.351 . S
Co1155 O1181 2.155 . S
Co1155 O1182 2.096 . S
C1156 N1159 1.301 . S
C1156 N1160 1.328 . S
C1156 H1161 0.930 . S
C1157 C1158 1.333 . S
C1157 N1159 1.317 . S
C1157 H1162 0.930 . S
C1158 C1157 1.333 . S
C1158 N1160 1.350 . S
C1158 H1184 0.931 . S
N1159 Co1155 2.148 . S
N1159 C1156 1.301 . S
N1159 C1157 1.317 . S
N1160 C1156 1.328 . S
N1160 C1158 1.350 . S
H1161 C1156 0.930 . S
H1162 C1157 0.930 . S
C1163 O1164 1.224 . S
C1163 O1182 1.247 . S
O1164 C1163 1.224 . S
N1165 Co1155 2.128 . S
N1165 C1166 1.355 . S
N1165 C1168 1.311 . S
C1166 N1165 1.355 . S
C1166 C1167 1.363 . S
C1166 H1178 0.929 . S
C1167 C1166 1.363 . S
C1167 N1169 1.375 . S
C1167 H1185 0.931 . S
C1168 N1165 1.311 . S
C1168 N1169 1.347 . S
C1168 H1179 0.929 . S
N1169 C1167 1.375 . S
N1169 C1168 1.347 . S
C1170 C1173 1.365 . S
C1170 N1175 1.328 . S
C1170 H1176 0.929 . S
C1171 C1172 1.362 . S
C1171 C1174 1.378 . S
C1171 H1186 0.929 . S
C1172 C1171 1.362 . S
C1172 C1173 1.366 . S
C1173 C1170 1.365 . S
C1173 C1172 1.366 . S
C1173 H1187 0.930 . S
C1174 C1171 1.378 . S
C1174 N1175 1.315 . S
C1174 H1177 0.930 . S
N1175 Co1155 2.194 . S
N1175 C1170 1.328 . S
N1175 C1174 1.315 . S
H1176 C1170 0.929 . S
H1177 C1174 0.930 . S
H1178 C1166 0.929 . S
H1179 C1168 0.929 . S
O1180 Co1155 2.351 . S
O1180 C1183 1.244 . S
O1181 Co1155 2.155 . S
O1181 C1183 1.240 . S
O1182 Co1155 2.096 . S
O1182 C1163 1.247 . S
C1183 O1180 1.244 . S
C1183 O1181 1.240 . S
H1184 C1158 0.931 . S
H1185 C1167 0.931 . S
H1186 C1171 0.929 . S
H1187 C1173 0.930 . S
Co1188 N1192 2.148 . S
Co1188 N1198 2.128 . S
Co1188 N1208 2.194 . S
Co1188 O1213 2.351 . S
Co1188 O1214 2.155 . S
Co1188 O1215 2.096 . S
C1189 N1192 1.301 . S
C1189 N1193 1.328 . S
C1189 H1194 0.930 . S
C1190 C1191 1.333 . S
C1190 N1192 1.317 . S
C1190 H1195 0.930 . S
C1191 C1190 1.333 . S
C1191 N1193 1.350 . S
C1191 H1217 0.931 . S
N1192 Co1188 2.148 . S
N1192 C1189 1.301 . S
N1192 C1190 1.317 . S
N1193 C1189 1.328 . S
N1193 C1191 1.350 . S
H1194 C1189 0.930 . S
H1195 C1190 0.930 . S
C1196 O1197 1.224 . S
C1196 O1215 1.247 . S
O1197 C1196 1.224 . S
N1198 Co1188 2.128 . S
N1198 C1199 1.355 . S
N1198 C1201 1.311 . S
C1199 N1198 1.355 . S
C1199 C1200 1.363 . S
C1199 H1211 0.929 . S
C1200 C1199 1.363 . S
C1200 N1202 1.375 . S
C1200 H1218 0.931 . S
C1201 N1198 1.311 . S
C1201 N1202 1.347 . S
C1201 H1212 0.929 . S
N1202 C1200 1.375 . S
N1202 C1201 1.347 . S
C1203 C1206 1.365 . S
C1203 N1208 1.328 . S
C1203 H1209 0.929 . S
C1204 C1205 1.362 . S
C1204 C1207 1.378 . S
C1204 H1219 0.929 . S
C1205 C1204 1.362 . S
C1205 C1206 1.366 . S
C1206 C1203 1.365 . S
C1206 C1205 1.366 . S
C1206 H1220 0.930 . S
C1207 C1204 1.378 . S
C1207 N1208 1.315 . S
C1207 H1210 0.930 . S
N1208 Co1188 2.194 . S
N1208 C1203 1.328 . S
N1208 C1207 1.315 . S
H1209 C1203 0.929 . S
H1210 C1207 0.930 . S
H1211 C1199 0.929 . S
H1212 C1201 0.929 . S
O1213 Co1188 2.351 . S
O1213 C1216 1.244 . S
O1214 Co1188 2.155 . S
O1214 C1216 1.240 . S
O1215 Co1188 2.096 . S
O1215 C1196 1.247 . S
C1216 O1213 1.244 . S
C1216 O1214 1.240 . S
H1217 C1191 0.931 . S
H1218 C1200 0.931 . S
H1219 C1204 0.929 . S
H1220 C1206 0.930 . S
Co1221 N1225 2.148 . S
Co1221 N1231 2.128 . S
Co1221 N1241 2.194 . S
Co1221 O1246 2.351 . S
Co1221 O1247 2.155 . S
Co1221 O1248 2.096 . S
C1222 N1225 1.301 . S
C1222 N1226 1.328 . S
C1222 H1227 0.930 . S
C1223 C1224 1.333 . S
C1223 N1225 1.317 . S
C1223 H1228 0.930 . S
C1224 C1223 1.333 . S
C1224 N1226 1.350 . S
C1224 H1250 0.931 . S
N1225 Co1221 2.148 . S
N1225 C1222 1.301 . S
N1225 C1223 1.317 . S
N1226 C1222 1.328 . S
N1226 C1224 1.350 . S
H1227 C1222 0.930 . S
H1228 C1223 0.930 . S
C1229 O1230 1.224 . S
C1229 O1248 1.247 . S
O1230 C1229 1.224 . S
N1231 Co1221 2.128 . S
N1231 C1232 1.355 . S
N1231 C1234 1.311 . S
C1232 N1231 1.355 . S
C1232 C1233 1.363 . S
C1232 H1244 0.929 . S
C1233 C1232 1.363 . S
C1233 N1235 1.375 . S
C1233 H1251 0.931 . S
C1234 N1231 1.311 . S
C1234 N1235 1.347 . S
C1234 H1245 0.929 . S
N1235 C1233 1.375 . S
N1235 C1234 1.347 . S
C1236 C1239 1.365 . S
C1236 N1241 1.328 . S
C1236 H1242 0.929 . S
C1237 C1238 1.362 . S
C1237 C1240 1.378 . S
C1237 H1252 0.929 . S
C1238 C1237 1.362 . S
C1238 C1239 1.366 . S
C1239 C1236 1.365 . S
C1239 C1238 1.366 . S
C1239 H1253 0.930 . S
C1240 C1237 1.378 . S
C1240 N1241 1.315 . S
C1240 H1243 0.930 . S
N1241 Co1221 2.194 . S
N1241 C1236 1.328 . S
N1241 C1240 1.315 . S
H1242 C1236 0.929 . S
H1243 C1240 0.930 . S
H1244 C1232 0.929 . S
H1245 C1234 0.929 . S
O1246 Co1221 2.351 . S
O1246 C1249 1.244 . S
O1247 Co1221 2.155 . S
O1247 C1249 1.240 . S
O1248 Co1221 2.096 . S
O1248 C1229 1.247 . S
C1249 O1246 1.244 . S
C1249 O1247 1.240 . S
H1250 C1224 0.931 . S
H1251 C1233 0.931 . S
H1252 C1237 0.929 . S
H1253 C1239 0.930 . S
Co1254 N1258 2.148 . S
Co1254 N1264 2.128 . S
Co1254 N1274 2.194 . S
Co1254 O1279 2.351 . S
Co1254 O1280 2.155 . S
Co1254 O1281 2.096 . S
C1255 N1258 1.301 . S
C1255 N1259 1.328 . S
C1255 H1260 0.930 . S
C1256 C1257 1.333 . S
C1256 N1258 1.317 . S
C1256 H1261 0.930 . S
C1257 C1256 1.333 . S
C1257 N1259 1.350 . S
C1257 H1283 0.931 . S
N1258 Co1254 2.148 . S
N1258 C1255 1.301 . S
N1258 C1256 1.317 . S
N1259 C1255 1.328 . S
N1259 C1257 1.350 . S
H1260 C1255 0.930 . S
H1261 C1256 0.930 . S
C1262 O1263 1.224 . S
C1262 O1281 1.247 . S
O1263 C1262 1.224 . S
N1264 Co1254 2.128 . S
N1264 C1265 1.355 . S
N1264 C1267 1.311 . S
C1265 N1264 1.355 . S
C1265 C1266 1.363 . S
C1265 H1277 0.929 . S
C1266 C1265 1.363 . S
C1266 N1268 1.375 . S
C1266 H1284 0.931 . S
C1267 N1264 1.311 . S
C1267 N1268 1.347 . S
C1267 H1278 0.929 . S
N1268 C1266 1.375 . S
N1268 C1267 1.347 . S
C1269 C1272 1.365 . S
C1269 N1274 1.328 . S
C1269 H1275 0.929 . S
C1270 C1271 1.362 . S
C1270 C1273 1.378 . S
C1270 H1285 0.929 . S
C1271 C1270 1.362 . S
C1271 C1272 1.366 . S
C1272 C1269 1.365 . S
C1272 C1271 1.366 . S
C1272 H1286 0.930 . S
C1273 C1270 1.378 . S
C1273 N1274 1.315 . S
C1273 H1276 0.930 . S
N1274 Co1254 2.194 . S
N1274 C1269 1.328 . S
N1274 C1273 1.315 . S
H1275 C1269 0.929 . S
H1276 C1273 0.930 . S
H1277 C1265 0.929 . S
H1278 C1267 0.929 . S
O1279 Co1254 2.351 . S
O1279 C1282 1.244 . S
O1280 Co1254 2.155 . S
O1280 C1282 1.240 . S
O1281 Co1254 2.096 . S
O1281 C1262 1.247 . S
C1282 O1279 1.244 . S
C1282 O1280 1.240 . S
H1283 C1257 0.931 . S
H1284 C1266 0.931 . S
H1285 C1270 0.929 . S
H1286 C1272 0.930 . S
Co1287 N1291 2.148 . S
Co1287 N1297 2.128 . S
Co1287 N1307 2.194 . S
Co1287 O1312 2.351 . S
Co1287 O1313 2.155 . S
Co1287 O1314 2.096 . S
C1288 N1291 1.301 . S
C1288 N1292 1.328 . S
C1288 H1293 0.930 . S
C1289 C1290 1.333 . S
C1289 N1291 1.317 . S
C1289 H1294 0.930 . S
C1290 C1289 1.333 . S
C1290 N1292 1.350 . S
C1290 H1316 0.931 . S
N1291 Co1287 2.148 . S
N1291 C1288 1.301 . S
N1291 C1289 1.317 . S
N1292 C1288 1.328 . S
N1292 C1290 1.350 . S
H1293 C1288 0.930 . S
H1294 C1289 0.930 . S
C1295 O1296 1.224 . S
C1295 O1314 1.247 . S
O1296 C1295 1.224 . S
N1297 Co1287 2.128 . S
N1297 C1298 1.355 . S
N1297 C1300 1.311 . S
C1298 N1297 1.355 . S
C1298 C1299 1.363 . S
C1298 H1310 0.929 . S
C1299 C1298 1.363 . S
C1299 N1301 1.375 . S
C1299 H1317 0.931 . S
C1300 N1297 1.311 . S
C1300 N1301 1.347 . S
C1300 H1311 0.929 . S
N1301 C1299 1.375 . S
N1301 C1300 1.347 . S
C1302 C1305 1.365 . S
C1302 N1307 1.328 . S
C1302 H1308 0.929 . S
C1303 C1304 1.362 . S
C1303 C1306 1.378 . S
C1303 H1318 0.929 . S
C1304 C1303 1.362 . S
C1304 C1305 1.366 . S
C1305 C1302 1.365 . S
C1305 C1304 1.366 . S
C1305 H1319 0.930 . S
C1306 C1303 1.378 . S
C1306 N1307 1.315 . S
C1306 H1309 0.930 . S
N1307 Co1287 2.194 . S
N1307 C1302 1.328 . S
N1307 C1306 1.315 . S
H1308 C1302 0.929 . S
H1309 C1306 0.930 . S
H1310 C1298 0.929 . S
H1311 C1300 0.929 . S
O1312 Co1287 2.351 . S
O1312 C1315 1.244 . S
O1313 Co1287 2.155 . S
O1313 C1315 1.240 . S
O1314 Co1287 2.096 . S
O1314 C1295 1.247 . S
C1315 O1312 1.244 . S
C1315 O1313 1.240 . S
H1316 C1290 0.931 . S
H1317 C1299 0.931 . S
H1318 C1303 0.929 . S
H1319 C1305 0.930 . S
Co1320 N1324 2.148 . S
Co1320 N1330 2.128 . S
Co1320 N1340 2.194 . S
Co1320 O1345 2.351 . S
Co1320 O1346 2.155 . S
Co1320 O1347 2.096 . S
C1321 N1324 1.301 . S
C1321 N1325 1.328 . S
C1321 H1326 0.930 . S
C1322 C1323 1.333 . S
C1322 N1324 1.317 . S
C1322 H1327 0.930 . S
C1323 C1322 1.333 . S
C1323 N1325 1.350 . S
C1323 H1349 0.931 . S
N1324 Co1320 2.148 . S
N1324 C1321 1.301 . S
N1324 C1322 1.317 . S
N1325 C1321 1.328 . S
N1325 C1323 1.350 . S
H1326 C1321 0.930 . S
H1327 C1322 0.930 . S
C1328 O1329 1.224 . S
C1328 O1347 1.247 . S
O1329 C1328 1.224 . S
N1330 Co1320 2.128 . S
N1330 C1331 1.355 . S
N1330 C1333 1.311 . S
C1331 N1330 1.355 . S
C1331 C1332 1.363 . S
C1331 H1343 0.929 . S
C1332 C1331 1.363 . S
C1332 N1334 1.375 . S
C1332 H1350 0.931 . S
C1333 N1330 1.311 . S
C1333 N1334 1.347 . S
C1333 H1344 0.929 . S
N1334 C1332 1.375 . S
N1334 C1333 1.347 . S
C1335 C1338 1.365 . S
C1335 N1340 1.328 . S
C1335 H1341 0.929 . S
C1336 C1337 1.362 . S
C1336 C1339 1.378 . S
C1336 H1351 0.929 . S
C1337 C1336 1.362 . S
C1337 C1338 1.366 . S
C1338 C1335 1.365 . S
C1338 C1337 1.366 . S
C1338 H1352 0.930 . S
C1339 C1336 1.378 . S
C1339 N1340 1.315 . S
C1339 H1342 0.930 . S
N1340 Co1320 2.194 . S
N1340 C1335 1.328 . S
N1340 C1339 1.315 . S
H1341 C1335 0.929 . S
H1342 C1339 0.930 . S
H1343 C1331 0.929 . S
H1344 C1333 0.929 . S
O1345 Co1320 2.351 . S
O1345 C1348 1.244 . S
O1346 Co1320 2.155 . S
O1346 C1348 1.240 . S
O1347 Co1320 2.096 . S
O1347 C1328 1.247 . S
C1348 O1345 1.244 . S
C1348 O1346 1.240 . S
H1349 C1323 0.931 . S
H1350 C1332 0.931 . S
H1351 C1336 0.929 . S
H1352 C1338 0.930 . S
Co1353 N1357 2.148 . S
Co1353 N1363 2.128 . S
Co1353 N1373 2.194 . S
Co1353 O1378 2.351 . S
Co1353 O1379 2.155 . S
Co1353 O1380 2.096 . S
C1354 N1357 1.301 . S
C1354 N1358 1.328 . S
C1354 H1359 0.930 . S
C1355 C1356 1.333 . S
C1355 N1357 1.317 . S
C1355 H1360 0.930 . S
C1356 C1355 1.333 . S
C1356 N1358 1.350 . S
C1356 H1382 0.931 . S
N1357 Co1353 2.148 . S
N1357 C1354 1.301 . S
N1357 C1355 1.317 . S
N1358 C1354 1.328 . S
N1358 C1356 1.350 . S
H1359 C1354 0.930 . S
H1360 C1355 0.930 . S
C1361 O1362 1.224 . S
C1361 O1380 1.247 . S
O1362 C1361 1.224 . S
N1363 Co1353 2.128 . S
N1363 C1364 1.355 . S
N1363 C1366 1.311 . S
C1364 N1363 1.355 . S
C1364 C1365 1.363 . S
C1364 H1376 0.929 . S
C1365 C1364 1.363 . S
C1365 N1367 1.375 . S
C1365 H1383 0.931 . S
C1366 N1363 1.311 . S
C1366 N1367 1.347 . S
C1366 H1377 0.929 . S
N1367 C1365 1.375 . S
N1367 C1366 1.347 . S
C1368 C1371 1.365 . S
C1368 N1373 1.328 . S
C1368 H1374 0.929 . S
C1369 C1370 1.362 . S
C1369 C1372 1.378 . S
C1369 H1384 0.929 . S
C1370 C1369 1.362 . S
C1370 C1371 1.366 . S
C1371 C1368 1.365 . S
C1371 C1370 1.366 . S
C1371 H1385 0.930 . S
C1372 C1369 1.378 . S
C1372 N1373 1.315 . S
C1372 H1375 0.930 . S
N1373 Co1353 2.194 . S
N1373 C1368 1.328 . S
N1373 C1372 1.315 . S
H1374 C1368 0.929 . S
H1375 C1372 0.930 . S
H1376 C1364 0.929 . S
H1377 C1366 0.929 . S
O1378 Co1353 2.351 . S
O1378 C1381 1.244 . S
O1379 Co1353 2.155 . S
O1379 C1381 1.240 . S
O1380 Co1353 2.096 . S
O1380 C1361 1.247 . S
C1381 O1378 1.244 . S
C1381 O1379 1.240 . S
H1382 C1356 0.931 . S
H1383 C1365 0.931 . S
H1384 C1369 0.929 . S
H1385 C1371 0.930 . S
Co1386 N1390 2.148 . S
Co1386 N1396 2.128 . S
Co1386 N1406 2.194 . S
Co1386 O1411 2.351 . S
Co1386 O1412 2.155 . S
Co1386 O1413 2.096 . S
C1387 N1390 1.301 . S
C1387 N1391 1.328 . S
C1387 H1392 0.930 . S
C1388 C1389 1.333 . S
C1388 N1390 1.317 . S
C1388 H1393 0.930 . S
C1389 C1388 1.333 . S
C1389 N1391 1.350 . S
C1389 H1415 0.931 . S
N1390 Co1386 2.148 . S
N1390 C1387 1.301 . S
N1390 C1388 1.317 . S
N1391 C1387 1.328 . S
N1391 C1389 1.350 . S
H1392 C1387 0.930 . S
H1393 C1388 0.930 . S
C1394 O1395 1.224 . S
C1394 O1413 1.247 . S
O1395 C1394 1.224 . S
N1396 Co1386 2.128 . S
N1396 C1397 1.355 . S
N1396 C1399 1.311 . S
C1397 N1396 1.355 . S
C1397 C1398 1.363 . S
C1397 H1409 0.929 . S
C1398 C1397 1.363 . S
C1398 N1400 1.375 . S
C1398 H1416 0.931 . S
C1399 N1396 1.311 . S
C1399 N1400 1.347 . S
C1399 H1410 0.929 . S
N1400 C1398 1.375 . S
N1400 C1399 1.347 . S
C1401 C1404 1.365 . S
C1401 N1406 1.328 . S
C1401 H1407 0.929 . S
C1402 C1403 1.362 . S
C1402 C1405 1.378 . S
C1402 H1417 0.929 . S
C1403 C1402 1.362 . S
C1403 C1404 1.366 . S
C1404 C1401 1.365 . S
C1404 C1403 1.366 . S
C1404 H1418 0.930 . S
C1405 C1402 1.378 . S
C1405 N1406 1.315 . S
C1405 H1408 0.930 . S
N1406 Co1386 2.194 . S
N1406 C1401 1.328 . S
N1406 C1405 1.315 . S
H1407 C1401 0.929 . S
H1408 C1405 0.930 . S
H1409 C1397 0.929 . S
H1410 C1399 0.929 . S
O1411 Co1386 2.351 . S
O1411 C1414 1.244 . S
O1412 Co1386 2.155 . S
O1412 C1414 1.240 . S
O1413 Co1386 2.096 . S
O1413 C1394 1.247 . S
C1414 O1411 1.244 . S
C1414 O1412 1.240 . S
H1415 C1389 0.931 . S
H1416 C1398 0.931 . S
H1417 C1402 0.929 . S
H1418 C1404 0.930 . S
Co1419 N1423 2.148 . S
Co1419 N1429 2.128 . S
Co1419 N1439 2.194 . S
Co1419 O1444 2.351 . S
Co1419 O1445 2.155 . S
Co1419 O1446 2.096 . S
C1420 N1423 1.301 . S
C1420 N1424 1.328 . S
C1420 H1425 0.930 . S
C1421 C1422 1.333 . S
C1421 N1423 1.317 . S
C1421 H1426 0.930 . S
C1422 C1421 1.333 . S
C1422 N1424 1.350 . S
C1422 H1448 0.931 . S
N1423 Co1419 2.148 . S
N1423 C1420 1.301 . S
N1423 C1421 1.317 . S
N1424 C1420 1.328 . S
N1424 C1422 1.350 . S
H1425 C1420 0.930 . S
H1426 C1421 0.930 . S
C1427 O1428 1.224 . S
C1427 O1446 1.247 . S
O1428 C1427 1.224 . S
N1429 Co1419 2.128 . S
N1429 C1430 1.355 . S
N1429 C1432 1.311 . S
C1430 N1429 1.355 . S
C1430 C1431 1.363 . S
C1430 H1442 0.929 . S
C1431 C1430 1.363 . S
C1431 N1433 1.375 . S
C1431 H1449 0.931 . S
C1432 N1429 1.311 . S
C1432 N1433 1.347 . S
C1432 H1443 0.929 . S
N1433 C1431 1.375 . S
N1433 C1432 1.347 . S
C1434 C1437 1.365 . S
C1434 N1439 1.328 . S
C1434 H1440 0.929 . S
C1435 C1436 1.362 . S
C1435 C1438 1.378 . S
C1435 H1450 0.929 . S
C1436 C1435 1.362 . S
C1436 C1437 1.366 . S
C1437 C1434 1.365 . S
C1437 C1436 1.366 . S
C1437 H1451 0.930 . S
C1438 C1435 1.378 . S
C1438 N1439 1.315 . S
C1438 H1441 0.930 . S
N1439 Co1419 2.194 . S
N1439 C1434 1.328 . S
N1439 C1438 1.315 . S
H1440 C1434 0.929 . S
H1441 C1438 0.930 . S
H1442 C1430 0.929 . S
H1443 C1432 0.929 . S
O1444 Co1419 2.351 . S
O1444 C1447 1.244 . S
O1445 Co1419 2.155 . S
O1445 C1447 1.240 . S
O1446 Co1419 2.096 . S
O1446 C1427 1.247 . S
C1447 O1444 1.244 . S
C1447 O1445 1.240 . S
H1448 C1422 0.931 . S
H1449 C1431 0.931 . S
H1450 C1435 0.929 . S
H1451 C1437 0.930 . S
Co1452 N1456 2.148 . S
Co1452 N1462 2.128 . S
Co1452 N1472 2.194 . S
Co1452 O1477 2.351 . S
Co1452 O1478 2.155 . S
Co1452 O1479 2.096 . S
C1453 N1456 1.301 . S
C1453 N1457 1.328 . S
C1453 H1458 0.930 . S
C1454 C1455 1.333 . S
C1454 N1456 1.317 . S
C1454 H1459 0.930 . S
C1455 C1454 1.333 . S
C1455 N1457 1.350 . S
C1455 H1481 0.931 . S
N1456 Co1452 2.148 . S
N1456 C1453 1.301 . S
N1456 C1454 1.317 . S
N1457 C1453 1.328 . S
N1457 C1455 1.350 . S
H1458 C1453 0.930 . S
H1459 C1454 0.930 . S
C1460 O1461 1.224 . S
C1460 O1479 1.247 . S
O1461 C1460 1.224 . S
N1462 Co1452 2.128 . S
N1462 C1463 1.355 . S
N1462 C1465 1.311 . S
C1463 N1462 1.355 . S
C1463 C1464 1.363 . S
C1463 H1475 0.929 . S
C1464 C1463 1.363 . S
C1464 N1466 1.375 . S
C1464 H1482 0.931 . S
C1465 N1462 1.311 . S
C1465 N1466 1.347 . S
C1465 H1476 0.929 . S
N1466 C1464 1.375 . S
N1466 C1465 1.347 . S
C1467 C1470 1.365 . S
C1467 N1472 1.328 . S
C1467 H1473 0.929 . S
C1468 C1469 1.362 . S
C1468 C1471 1.378 . S
C1468 H1483 0.929 . S
C1469 C1468 1.362 . S
C1469 C1470 1.366 . S
C1470 C1467 1.365 . S
C1470 C1469 1.366 . S
C1470 H1484 0.930 . S
C1471 C1468 1.378 . S
C1471 N1472 1.315 . S
C1471 H1474 0.930 . S
N1472 Co1452 2.194 . S
N1472 C1467 1.328 . S
N1472 C1471 1.315 . S
H1473 C1467 0.929 . S
H1474 C1471 0.930 . S
H1475 C1463 0.929 . S
H1476 C1465 0.929 . S
O1477 Co1452 2.351 . S
O1477 C1480 1.244 . S
O1478 Co1452 2.155 . S
O1478 C1480 1.240 . S
O1479 Co1452 2.096 . S
O1479 C1460 1.247 . S
C1480 O1477 1.244 . S
C1480 O1478 1.240 . S
H1481 C1455 0.931 . S
H1482 C1464 0.931 . S
H1483 C1468 0.929 . S
H1484 C1470 0.930 . S
Co1485 N1489 2.148 . S
Co1485 N1495 2.128 . S
Co1485 N1505 2.194 . S
Co1485 O1510 2.351 . S
Co1485 O1511 2.155 . S
Co1485 O1512 2.096 . S
C1486 N1489 1.301 . S
C1486 N1490 1.328 . S
C1486 H1491 0.930 . S
C1487 C1488 1.333 . S
C1487 N1489 1.317 . S
C1487 H1492 0.930 . S
C1488 C1487 1.333 . S
C1488 N1490 1.350 . S
C1488 H1514 0.931 . S
N1489 Co1485 2.148 . S
N1489 C1486 1.301 . S
N1489 C1487 1.317 . S
N1490 C1486 1.328 . S
N1490 C1488 1.350 . S
H1491 C1486 0.930 . S
H1492 C1487 0.930 . S
C1493 O1494 1.224 . S
C1493 O1512 1.247 . S
O1494 C1493 1.224 . S
N1495 Co1485 2.128 . S
N1495 C1496 1.355 . S
N1495 C1498 1.311 . S
C1496 N1495 1.355 . S
C1496 C1497 1.363 . S
C1496 H1508 0.929 . S
C1497 C1496 1.363 . S
C1497 N1499 1.375 . S
C1497 H1515 0.931 . S
C1498 N1495 1.311 . S
C1498 N1499 1.347 . S
C1498 H1509 0.929 . S
N1499 C1497 1.375 . S
N1499 C1498 1.347 . S
C1500 C1503 1.365 . S
C1500 N1505 1.328 . S
C1500 H1506 0.929 . S
C1501 C1502 1.362 . S
C1501 C1504 1.378 . S
C1501 H1516 0.929 . S
C1502 C1501 1.362 . S
C1502 C1503 1.366 . S
C1503 C1500 1.365 . S
C1503 C1502 1.366 . S
C1503 H1517 0.930 . S
C1504 C1501 1.378 . S
C1504 N1505 1.315 . S
C1504 H1507 0.930 . S
N1505 Co1485 2.194 . S
N1505 C1500 1.328 . S
N1505 C1504 1.315 . S
H1506 C1500 0.929 . S
H1507 C1504 0.930 . S
H1508 C1496 0.929 . S
H1509 C1498 0.929 . S
O1510 Co1485 2.351 . S
O1510 C1513 1.244 . S
O1511 Co1485 2.155 . S
O1511 C1513 1.240 . S
O1512 Co1485 2.096 . S
O1512 C1493 1.247 . S
C1513 O1510 1.244 . S
C1513 O1511 1.240 . S
H1514 C1488 0.931 . S
H1515 C1497 0.931 . S
H1516 C1501 0.929 . S
H1517 C1503 0.930 . S
Co1518 N1522 2.148 . S
Co1518 N1528 2.128 . S
Co1518 N1538 2.194 . S
Co1518 O1543 2.351 . S
Co1518 O1544 2.155 . S
Co1518 O1545 2.096 . S
C1519 N1522 1.301 . S
C1519 N1523 1.328 . S
C1519 H1524 0.930 . S
C1520 C1521 1.333 . S
C1520 N1522 1.317 . S
C1520 H1525 0.930 . S
C1521 C1520 1.333 . S
C1521 N1523 1.350 . S
C1521 H1547 0.931 . S
N1522 Co1518 2.148 . S
N1522 C1519 1.301 . S
N1522 C1520 1.317 . S
N1523 C1519 1.328 . S
N1523 C1521 1.350 . S
H1524 C1519 0.930 . S
H1525 C1520 0.930 . S
C1526 O1527 1.224 . S
C1526 O1545 1.247 . S
O1527 C1526 1.224 . S
N1528 Co1518 2.128 . S
N1528 C1529 1.355 . S
N1528 C1531 1.311 . S
C1529 N1528 1.355 . S
C1529 C1530 1.363 . S
C1529 H1541 0.929 . S
C1530 C1529 1.363 . S
C1530 N1532 1.375 . S
C1530 H1548 0.931 . S
C1531 N1528 1.311 . S
C1531 N1532 1.347 . S
C1531 H1542 0.929 . S
N1532 C1530 1.375 . S
N1532 C1531 1.347 . S
C1533 C1536 1.365 . S
C1533 N1538 1.328 . S
C1533 H1539 0.929 . S
C1534 C1535 1.362 . S
C1534 C1537 1.378 . S
C1534 H1549 0.929 . S
C1535 C1534 1.362 . S
C1535 C1536 1.366 . S
C1536 C1533 1.365 . S
C1536 C1535 1.366 . S
C1536 H1550 0.930 . S
C1537 C1534 1.378 . S
C1537 N1538 1.315 . S
C1537 H1540 0.930 . S
N1538 Co1518 2.194 . S
N1538 C1533 1.328 . S
N1538 C1537 1.315 . S
H1539 C1533 0.929 . S
H1540 C1537 0.930 . S
H1541 C1529 0.929 . S
H1542 C1531 0.929 . S
O1543 Co1518 2.351 . S
O1543 C1546 1.244 . S
O1544 Co1518 2.155 . S
O1544 C1546 1.240 . S
O1545 Co1518 2.096 . S
O1545 C1526 1.247 . S
C1546 O1543 1.244 . S
C1546 O1544 1.240 . S
H1547 C1521 0.931 . S
H1548 C1530 0.931 . S
H1549 C1534 0.929 . S
H1550 C1536 0.930 . S
Co1551 N1555 2.148 . S
Co1551 N1561 2.128 . S
Co1551 N1571 2.194 . S
Co1551 O1576 2.351 . S
Co1551 O1577 2.155 1_655 S
Co1551 O1578 2.096 1_655 S
C1552 N1555 1.301 . S
C1552 N1556 1.328 1_655 S
C1552 H1557 0.930 . S
C1553 C1554 1.333 . S
C1553 N1555 1.317 1_455 S
C1553 H1558 0.930 . S
C1554 C1553 1.333 . S
C1554 N1556 1.350 . S
C1554 H1580 0.931 . S
N1555 Co1551 2.148 . S
N1555 C1552 1.301 . S
N1555 C1553 1.317 1_655 S
N1556 C1552 1.328 1_455 S
N1556 C1554 1.350 . S
H1557 C1552 0.930 . S
H1558 C1553 0.930 . S
C1559 O1560 1.238 . S
C1559 O1578 1.241 1_655 S
O1560 C1559 1.238 . S
N1561 Co1551 2.128 . S
N1561 C1562 1.355 . S
N1561 C1564 1.311 . S
C1562 N1561 1.355 . S
C1562 C1563 1.363 . S
C1562 H1574 0.929 . S
C1563 C1562 1.363 . S
C1563 N1565 1.375 . S
C1563 H1581 0.931 . S
C1564 N1561 1.311 . S
C1564 N1565 1.347 . S
C1564 H1575 0.929 . S
N1565 C1563 1.375 . S
N1565 C1564 1.347 . S
C1566 C1569 1.365 . S
C1566 N1571 1.328 . S
C1566 H1572 0.929 . S
C1567 C1568 1.362 . S
C1567 C1570 1.378 . S
C1567 H1582 0.929 . S
C1568 C1567 1.362 . S
C1568 C1569 1.366 . S
C1569 C1566 1.365 . S
C1569 C1568 1.366 . S
C1569 H1583 0.930 . S
C1570 C1567 1.378 . S
C1570 N1571 1.315 . S
C1570 H1573 0.930 . S
N1571 Co1551 2.194 . S
N1571 C1566 1.328 . S
N1571 C1570 1.315 . S
H1572 C1566 0.929 . S
H1573 C1570 0.930 . S
H1574 C1562 0.929 . S
H1575 C1564 0.929 . S
O1576 Co1551 2.351 . S
O1576 C1579 1.244 . S
O1577 Co1551 2.155 1_455 S
O1577 C1579 1.240 1_455 S
O1578 Co1551 2.096 1_455 S
O1578 C1559 1.241 1_455 S
C1579 O1576 1.244 . S
C1579 O1577 1.240 1_655 S
H1580 C1554 0.931 . S
H1581 C1563 0.931 . S
H1582 C1567 0.929 . S
H1583 C1569 0.930 . S
C1584 C1585 1.387 . S
C1584 H1588 0.950 . S
C1584 C1593 1.390 . S
C1585 C1584 1.387 . S
C1585 C1587 1.387 . S
H1586 C1593 0.950 . S
C1587 C1585 1.387 . S
C1587 C1589 1.390 . S
C1587 H1591 0.950 . S
H1588 C1584 0.950 . S
C1589 C1587 1.390 . S
C1589 C1590 1.387 . S
C1589 H1592 0.950 . S
C1590 C1589 1.387 . S
C1590 C1593 1.387 . S
H1591 C1587 0.950 . S
H1592 C1589 0.950 . S
C1593 C1584 1.390 . S
C1593 H1586 0.950 . S
C1593 C1590 1.387 . S
C1594 C1595 1.387 . S
C1594 H1598 0.950 . S
C1594 C1603 1.390 . S
C1595 C1594 1.387 . S
C1595 C1597 1.387 . S
H1596 C1603 0.950 . S
C1597 C1595 1.387 . S
C1597 C1599 1.390 . S
C1597 H1601 0.950 . S
H1598 C1594 0.950 . S
C1599 C1597 1.390 . S
C1599 C1600 1.387 . S
C1599 H1602 0.950 . S
C1600 C1599 1.387 . S
C1600 C1603 1.387 . S
H1601 C1597 0.950 . S
H1602 C1599 0.950 . S
C1603 C1594 1.390 . S
C1603 H1596 0.950 . S
C1603 C1600 1.387 . S
C1604 C1605 1.387 . S
C1604 H1608 0.950 . S
C1604 C1613 1.390 . S
C1605 C1604 1.387 . S
C1605 C1607 1.387 . S
H1606 C1613 0.950 . S
C1607 C1605 1.387 . S
C1607 C1609 1.390 . S
C1607 H1611 0.950 . S
H1608 C1604 0.950 . S
C1609 C1607 1.390 . S
C1609 C1610 1.387 . S
C1609 H1612 0.950 . S
C1610 C1609 1.387 . S
C1610 C1613 1.387 . S
H1611 C1607 0.950 . S
H1612 C1609 0.950 . S
C1613 C1604 1.390 . S
C1613 H1606 0.950 . S
C1613 C1610 1.387 . S
C1614 C1615 1.387 . S
C1614 H1618 0.950 . S
C1614 C1623 1.390 . S
C1615 C1614 1.387 . S
C1615 C1617 1.387 . S
H1616 C1623 0.950 . S
C1617 C1615 1.387 . S
C1617 C1619 1.390 . S
C1617 H1621 0.950 . S
H1618 C1614 0.950 . S
C1619 C1617 1.390 . S
C1619 C1620 1.387 . S
C1619 H1622 0.950 . S
C1620 C1619 1.387 . S
C1620 C1623 1.387 . S
H1621 C1617 0.950 . S
H1622 C1619 0.950 . S
C1623 C1614 1.390 . S
C1623 H1616 0.950 . S
C1623 C1620 1.387 . S
C1624 C1625 1.387 . S
C1624 H1628 0.950 . S
C1624 C1633 1.390 . S
C1625 C1624 1.387 . S
C1625 C1627 1.387 . S
H1626 C1633 0.950 . S
C1627 C1625 1.387 . S
C1627 C1629 1.390 . S
C1627 H1631 0.950 . S
H1628 C1624 0.950 . S
C1629 C1627 1.390 . S
C1629 C1630 1.387 . S
C1629 H1632 0.950 . S
C1630 C1629 1.387 . S
C1630 C1633 1.387 . S
H1631 C1627 0.950 . S
H1632 C1629 0.950 . S
C1633 C1624 1.390 . S
C1633 H1626 0.950 . S
C1633 C1630 1.387 . S
C1634 C1635 1.387 . S
C1634 H1638 0.950 . S
C1634 C1643 1.390 . S
C1635 C1634 1.387 . S
C1635 C1637 1.387 . S
H1636 C1643 0.950 . S
C1637 C1635 1.387 . S
C1637 C1639 1.390 . S
C1637 H1641 0.950 . S
H1638 C1634 0.950 . S
C1639 C1637 1.390 . S
C1639 C1640 1.387 . S
C1639 H1642 0.950 . S
C1640 C1639 1.387 . S
C1640 C1643 1.387 . S
H1641 C1637 0.950 . S
H1642 C1639 0.950 . S
C1643 C1634 1.390 . S
C1643 H1636 0.950 . S
C1643 C1640 1.387 . S
C1644 C1645 1.387 . S
C1644 H1648 0.950 . S
C1644 C1653 1.390 . S
C1645 C1644 1.387 . S
C1645 C1647 1.387 . S
H1646 C1653 0.950 . S
C1647 C1645 1.387 . S
C1647 C1649 1.390 . S
C1647 H1651 0.950 . S
H1648 C1644 0.950 . S
C1649 C1647 1.390 . S
C1649 C1650 1.387 . S
C1649 H1652 0.950 . S
C1650 C1649 1.387 . S
C1650 C1653 1.387 . S
H1651 C1647 0.950 . S
H1652 C1649 0.950 . S
C1653 C1644 1.390 . S
C1653 H1646 0.950 . S
C1653 C1650 1.387 . S
C1654 C1655 1.387 . S
C1654 H1658 0.950 1_554 S
C1654 C1663 1.390 . S
C1655 C1654 1.387 . S
C1655 C1657 1.387 . S
H1656 C1663 0.950 . S
C1657 C1655 1.387 . S
C1657 C1659 1.390 . S
C1657 H1661 0.950 . S
H1658 C1654 0.950 1_556 S
C1659 C1657 1.390 . S
C1659 C1660 1.387 . S
C1659 H1662 0.950 . S
C1660 C1659 1.387 . S
C1660 C1663 1.387 . S
H1661 C1657 0.950 . S
H1662 C1659 0.950 . S
C1663 C1654 1.390 . S
C1663 H1656 0.950 . S
C1663 C1660 1.387 . S
C1664 C1665 1.387 . S
C1664 H1668 0.950 . S
C1664 C1673 1.390 . S
C1665 C1664 1.387 . S
C1665 C1667 1.387 . S
H1666 C1673 0.989 . S
C1667 C1665 1.387 . S
C1667 C1669 1.390 . S
C1667 H1671 0.950 . S
H1668 C1664 0.950 . S
C1669 C1667 1.390 . S
C1669 C1670 1.387 . S
C1669 H1672 0.950 . S
C1670 C1669 1.387 . S
C1670 C1673 1.387 . S
H1671 C1667 0.950 . S
H1672 C1669 0.950 . S
C1673 C1664 1.390 . S
C1673 H1666 0.989 . S
C1673 C1670 1.387 . S
C1674 C1675 1.387 . S
C1674 H1678 0.950 . S
C1674 C1683 1.390 . S
C1675 C1674 1.387 . S
C1675 C1677 1.387 . S
H1676 C1683 0.950 . S
C1677 C1675 1.387 . S
C1677 C1679 1.390 . S
C1677 H1681 0.950 1_565 S
H1678 C1674 0.950 . S
C1679 C1677 1.390 . S
C1679 C1680 1.387 . S
C1679 H1682 0.950 . S
C1680 C1679 1.387 . S
C1680 C1683 1.387 . S
H1681 C1677 0.950 1_545 S
H1682 C1679 0.950 . S
C1683 C1674 1.390 . S
C1683 H1676 0.950 . S
C1683 C1680 1.387 . S
C1684 C1685 1.387 . S
C1684 H1688 0.950 . S
C1684 C1693 1.390 . S
C1685 C1684 1.387 . S
C1685 C1687 1.387 . S
H1686 C1693 0.950 . S
C1687 C1685 1.387 . S
C1687 C1689 1.390 . S
C1687 H1691 0.950 1_565 S
H1688 C1684 0.950 . S
C1689 C1687 1.390 . S
C1689 C1690 1.387 . S
C1689 H1692 0.950 . S
C1690 C1689 1.387 . S
C1690 C1693 1.387 . S
H1691 C1687 0.950 1_545 S
H1692 C1689 0.950 . S
C1693 C1684 1.390 . S
C1693 H1686 0.950 . S
C1693 C1690 1.387 . S
C1694 C1695 1.387 . S
C1694 H1698 0.950 . S
C1694 C1703 1.390 . S
C1695 C1694 1.387 . S
C1695 C1697 1.387 . S
H1696 C1703 0.950 . S
C1697 C1695 1.387 . S
C1697 C1699 1.390 . S
C1697 H1701 0.950 . S
H1698 C1694 0.950 . S
C1699 C1697 1.390 . S
C1699 C1700 1.387 . S
C1699 H1702 0.950 1_545 S
C1700 C1699 1.387 . S
C1700 C1703 1.387 . S
H1701 C1697 0.950 . S
H1702 C1699 0.950 1_565 S
C1703 C1694 1.390 . S
C1703 H1696 0.950 . S
C1703 C1700 1.387 . S
C1704 C1705 1.387 . S
C1704 H1708 0.950 . S
C1704 C1713 1.390 . S
C1705 C1704 1.387 . S
C1705 C1707 1.387 . S
H1706 C1713 0.950 . S
C1707 C1705 1.387 . S
C1707 C1709 1.390 . S
C1707 H1711 0.950 . S
H1708 C1704 0.950 . S
C1709 C1707 1.390 . S
C1709 C1710 1.387 . S
C1709 H1712 0.950 . S
C1710 C1709 1.387 . S
C1710 C1713 1.387 . S
H1711 C1707 0.950 . S
H1712 C1709 0.950 . S
C1713 C1704 1.390 . S
C1713 H1706 0.950 . S
C1713 C1710 1.387 . S
C1714 C1715 1.387 . S
C1714 H1718 0.950 . S
C1714 C1723 1.390 . S
C1715 C1714 1.387 . S
C1715 C1717 1.387 . S
H1716 C1723 0.950 . S
C1717 C1715 1.387 . S
C1717 C1719 1.390 . S
C1717 H1721 0.950 . S
H1718 C1714 0.950 . S
C1719 C1717 1.390 . S
C1719 C1720 1.387 . S
C1719 H1722 0.950 . S
C1720 C1719 1.387 . S
C1720 C1723 1.387 . S
H1721 C1717 0.950 . S
H1722 C1719 0.950 . S
C1723 C1714 1.390 . S
C1723 H1716 0.950 . S
C1723 C1720 1.387 . S
C1724 C1725 1.387 . S
C1724 H1728 0.950 . S
C1724 C1733 1.390 . S
C1725 C1724 1.387 . S
C1725 C1727 1.387 . S
H1726 C1733 0.950 . S
C1727 C1725 1.387 . S
C1727 C1729 1.390 . S
C1727 H1731 0.950 . S
H1728 C1724 0.950 . S
C1729 C1727 1.390 . S
C1729 C1730 1.387 . S
C1729 H1732 0.950 . S
C1730 C1729 1.387 . S
C1730 C1733 1.387 . S
H1731 C1727 0.950 . S
H1732 C1729 0.950 . S
C1733 C1724 1.390 . S
C1733 H1726 0.950 . S
C1733 C1730 1.387 . S
C1734 C1735 1.387 . S
C1734 H1738 0.950 . S
C1734 C1743 1.390 . S
C1735 C1734 1.387 . S
C1735 C1737 1.387 . S
H1736 C1743 0.950 . S
C1737 C1735 1.387 . S
C1737 C1739 1.390 . S
C1737 H1741 0.950 . S
H1738 C1734 0.950 . S
C1739 C1737 1.390 . S
C1739 C1740 1.387 . S
C1739 H1742 0.950 . S
C1740 C1739 1.387 . S
C1740 C1743 1.387 . S
H1741 C1737 0.950 . S
H1742 C1739 0.950 . S
C1743 C1734 1.390 . S
C1743 H1736 0.950 . S
C1743 C1740 1.387 . S
C1744 C1745 1.387 . S
C1744 H1748 0.950 . S
C1744 C1753 1.390 . S
C1745 C1744 1.387 . S
C1745 C1747 1.387 . S
H1746 C1753 0.950 . S
C1747 C1745 1.387 . S
C1747 C1749 1.390 . S
C1747 H1751 0.950 . S
H1748 C1744 0.950 . S
C1749 C1747 1.390 . S
C1749 C1750 1.387 . S
C1749 H1752 0.950 . S
C1750 C1749 1.387 . S
C1750 C1753 1.387 . S
H1751 C1747 0.950 . S
H1752 C1749 0.950 . S
C1753 C1744 1.390 . S
C1753 H1746 0.950 . S
C1753 C1750 1.387 . S
C1754 C1755 1.387 . S
C1754 H1758 0.950 . S
C1754 C1763 1.390 . S
C1755 C1754 1.387 . S
C1755 C1757 1.387 . S
H1756 C1763 0.950 . S
C1757 C1755 1.387 . S
C1757 C1759 1.390 . S
C1757 H1761 0.950 . S
H1758 C1754 0.950 . S
C1759 C1757 1.390 . S
C1759 C1760 1.387 . S
C1759 H1762 0.950 . S
C1760 C1759 1.387 . S
C1760 C1763 1.387 . S
H1761 C1757 0.950 . S
H1762 C1759 0.950 . S
C1763 C1754 1.390 . S
C1763 H1756 0.950 . S
C1763 C1760 1.387 . S
C1764 C1765 1.387 . S
C1764 H1768 0.950 . S
C1764 C1773 1.390 . S
C1765 C1764 1.387 . S
C1765 C1767 1.387 . S
H1766 C1773 0.950 . S
C1767 C1765 1.387 . S
C1767 C1769 1.390 . S
C1767 H1771 0.950 . S
H1768 C1764 0.950 . S
C1769 C1767 1.390 . S
C1769 C1770 1.387 . S
C1769 H1772 0.950 1_554 S
C1770 C1769 1.387 . S
C1770 C1773 1.387 . S
H1771 C1767 0.950 . S
H1772 C1769 0.950 1_556 S
C1773 C1764 1.390 . S
C1773 H1766 0.950 . S
C1773 C1770 1.387 . S
C1774 C1775 1.387 . S
C1774 H1778 0.950 . S
C1774 C1783 1.390 . S
C1775 C1774 1.387 . S
C1775 C1777 1.387 . S
H1776 C1783 0.950 . S
C1777 C1775 1.387 . S
C1777 C1779 1.390 . S
C1777 H1781 0.950 . S
H1778 C1774 0.950 . S
C1779 C1777 1.390 . S
C1779 C1780 1.387 . S
C1779 H1782 0.950 . S
C1780 C1779 1.387 . S
C1780 C1783 1.387 . S
H1781 C1777 0.950 . S
H1782 C1779 0.950 . S
C1783 C1774 1.390 . S
C1783 H1776 0.950 . S
C1783 C1780 1.387 . S
C1784 C1785 1.387 . S
C1784 H1788 0.950 . S
C1784 C1793 1.390 . S
C1785 C1784 1.387 . S
C1785 C1787 1.387 . S
H1786 C1793 0.950 . S
C1787 C1785 1.387 . S
C1787 C1789 1.390 . S
C1787 H1791 0.950 . S
H1788 C1784 0.950 . S
C1789 C1787 1.390 . S
C1789 C1790 1.387 . S
C1789 H1792 0.950 . S
C1790 C1789 1.387 . S
C1790 C1793 1.387 . S
H1791 C1787 0.950 . S
H1792 C1789 0.950 . S
C1793 C1784 1.390 . S
C1793 H1786 0.950 . S
C1793 C1790 1.387 . S
C1794 C1795 1.387 . S
C1794 H1798 0.950 . S
C1794 C1803 1.390 . S
C1795 C1794 1.387 . S
C1795 C1797 1.387 . S
H1796 C1803 0.950 . S
C1797 C1795 1.387 . S
C1797 C1799 1.390 . S
C1797 H1801 0.950 . S
H1798 C1794 0.950 . S
C1799 C1797 1.390 . S
C1799 C1800 1.387 . S
C1799 H1802 0.950 . S
C1800 C1799 1.387 . S
C1800 C1803 1.387 . S
H1801 C1797 0.950 . S
H1802 C1799 0.950 . S
C1803 C1794 1.390 . S
C1803 H1796 0.950 . S
C1803 C1800 1.387 . S
C1804 C1805 1.387 . S
C1804 H1808 0.950 . S
C1804 C1813 1.390 . S
C1805 C1804 1.387 . S
C1805 C1807 1.387 . S
H1806 C1813 0.950 . S
C1807 C1805 1.387 . S
C1807 C1809 1.390 . S
C1807 H1811 0.950 . S
H1808 C1804 0.950 . S
C1809 C1807 1.390 . S
C1809 C1810 1.387 . S
C1809 H1812 0.950 . S
C1810 C1809 1.387 . S
C1810 C1813 1.387 . S
H1811 C1807 0.950 . S
H1812 C1809 0.950 . S
C1813 C1804 1.390 . S
C1813 H1806 0.950 . S
C1813 C1810 1.387 . S
C1814 C1815 1.387 . S
C1814 H1818 0.950 . S
C1814 C1823 1.390 . S
C1815 C1814 1.387 . S
C1815 C1817 1.387 . S
H1816 C1823 0.950 . S
C1817 C1815 1.387 . S
C1817 C1819 1.390 . S
C1817 H1821 0.950 . S
H1818 C1814 0.950 . S
C1819 C1817 1.390 . S
C1819 C1820 1.387 . S
C1819 H1822 0.950 . S
C1820 C1819 1.387 . S
C1820 C1823 1.387 . S
H1821 C1817 0.950 . S
H1822 C1819 0.950 . S
C1823 C1814 1.390 . S
C1823 H1816 0.950 . S
C1823 C1820 1.387 . S
C1824 C1825 1.387 . S
C1824 H1828 0.950 . S
C1824 C1833 1.390 . S
C1825 C1824 1.387 . S
C1825 C1827 1.387 . S
H1826 C1833 0.950 . S
C1827 C1825 1.387 . S
C1827 C1829 1.390 . S
C1827 H1831 0.950 . S
H1828 C1824 0.950 . S
C1829 C1827 1.390 . S
C1829 C1830 1.387 . S
C1829 H1832 0.950 . S
C1830 C1829 1.387 . S
C1830 C1833 1.387 . S
H1831 C1827 0.950 . S
H1832 C1829 0.950 . S
C1833 C1824 1.390 . S
C1833 H1826 0.950 . S
C1833 C1830 1.387 . S
C1834 C1835 1.387 . S
C1834 H1838 0.950 . S
C1834 C1843 1.390 . S
C1835 C1834 1.387 . S
C1835 C1837 1.387 . S
H1836 C1843 0.950 . S
C1837 C1835 1.387 . S
C1837 C1839 1.390 . S
C1837 H1841 0.950 . S
H1838 C1834 0.950 . S
C1839 C1837 1.390 . S
C1839 C1840 1.387 . S
C1839 H1842 0.950 . S
C1840 C1839 1.387 . S
C1840 C1843 1.387 . S
H1841 C1837 0.950 . S
H1842 C1839 0.950 . S
C1843 C1834 1.390 . S
C1843 H1836 0.950 . S
C1843 C1840 1.387 . S
C1844 C1845 1.387 . S
C1844 H1848 0.950 . S
C1844 C1853 1.390 . S
C1845 C1844 1.387 . S
C1845 C1847 1.387 . S
H1846 C1853 0.950 . S
C1847 C1845 1.387 . S
C1847 C1849 1.390 . S
C1847 H1851 0.950 . S
H1848 C1844 0.950 . S
C1849 C1847 1.390 . S
C1849 C1850 1.387 . S
C1849 H1852 0.950 . S
C1850 C1849 1.387 . S
C1850 C1853 1.387 . S
H1851 C1847 0.950 . S
H1852 C1849 0.950 . S
C1853 C1844 1.390 . S
C1853 H1846 0.950 . S
C1853 C1850 1.387 . S
C1854 C1855 1.387 . S
C1854 H1858 0.950 . S
C1854 C1863 1.390 . S
C1855 C1854 1.387 . S
C1855 C1857 1.387 . S
H1856 C1863 0.950 . S
C1857 C1855 1.387 . S
C1857 C1859 1.390 . S
C1857 H1861 0.950 . S
H1858 C1854 0.950 . S
C1859 C1857 1.390 . S
C1859 C1860 1.387 . S
C1859 H1862 0.950 . S
C1860 C1859 1.387 . S
C1860 C1863 1.387 . S
H1861 C1857 0.950 . S
H1862 C1859 0.950 . S
C1863 C1854 1.390 . S
C1863 H1856 0.950 . S
C1863 C1860 1.387 . S
C1864 C1865 1.387 . S
C1864 H1868 0.950 . S
C1864 C1873 1.390 . S
C1865 C1864 1.387 . S
C1865 C1867 1.387 . S
H1866 C1873 0.950 . S
C1867 C1865 1.387 . S
C1867 C1869 1.390 . S
C1867 H1871 0.950 . S
H1868 C1864 0.950 . S
C1869 C1867 1.390 . S
C1869 C1870 1.387 . S
C1869 H1872 0.950 . S
C1870 C1869 1.387 . S
C1870 C1873 1.387 . S
H1871 C1867 0.950 . S
H1872 C1869 0.950 . S
C1873 C1864 1.390 . S
C1873 H1866 0.950 . S
C1873 C1870 1.387 . S
C1874 C1875 1.387 . S
C1874 H1878 0.950 . S
C1874 C1883 1.390 . S
C1875 C1874 1.387 . S
C1875 C1877 1.387 . S
H1876 C1883 0.950 . S
C1877 C1875 1.387 . S
C1877 C1879 1.390 . S
C1877 H1881 0.950 . S
H1878 C1874 0.950 . S
C1879 C1877 1.390 . S
C1879 C1880 1.387 . S
C1879 H1882 0.950 . S
C1880 C1879 1.387 . S
C1880 C1883 1.387 . S
H1881 C1877 0.950 . S
H1882 C1879 0.950 . S
C1883 C1874 1.390 . S
C1883 H1876 0.950 . S
C1883 C1880 1.387 . S
C1884 C1885 1.387 . S
C1884 H1888 0.950 . S
C1884 C1893 1.390 . S
C1885 C1884 1.387 . S
C1885 C1887 1.387 . S
H1886 C1893 0.950 . S
C1887 C1885 1.387 . S
C1887 C1889 1.390 . S
C1887 H1891 0.950 . S
H1888 C1884 0.950 . S
C1889 C1887 1.390 . S
C1889 C1890 1.387 . S
C1889 H1892 0.950 . S
C1890 C1889 1.387 . S
C1890 C1893 1.387 . S
H1891 C1887 0.950 . S
H1892 C1889 0.950 . S
C1893 C1884 1.390 . S
C1893 H1886 0.950 . S
C1893 C1890 1.387 . S
C1894 C1895 1.387 . S
C1894 H1898 0.950 . S
C1894 C1903 1.390 . S
C1895 C1894 1.387 . S
C1895 C1897 1.387 1_455 S
H1896 C1903 0.950 . S
C1897 C1895 1.387 1_655 S
C1897 C1899 1.390 . S
C1897 H1901 0.950 . S
H1898 C1894 0.950 . S
C1899 C1897 1.390 . S
C1899 C1900 1.387 1_655 S
C1899 H1902 0.950 . S
C1900 C1899 1.387 1_455 S
C1900 C1903 1.387 . S
H1901 C1897 0.950 . S
H1902 C1899 0.950 . S
C1903 C1894 1.390 . S
C1903 H1896 0.950 . S
C1903 C1900 1.387 . S
C1904 C1905 1.387 . S
C1904 H1908 0.950 . S
C1904 C1913 1.390 . S
C1905 C1904 1.387 . S
C1905 C1907 1.387 . S
H1906 C1913 0.950 . S
C1907 C1905 1.387 . S
C1907 C1909 1.390 . S
C1907 H1911 0.950 . S
H1908 C1904 0.950 . S
C1909 C1907 1.390 . S
C1909 C1910 1.387 . S
C1909 H1912 0.950 . S
C1910 C1909 1.387 . S
C1910 C1913 1.387 . S
H1911 C1907 0.950 . S
H1912 C1909 0.950 . S
C1913 C1904 1.390 . S
C1913 H1906 0.950 . S
C1913 C1910 1.387 . S
C1914 C1915 1.387 . S
C1914 H1918 0.950 . S
C1914 C1923 1.390 . S
C1915 C1914 1.387 . S
C1915 C1917 1.387 . S
H1916 C1923 0.950 . S
C1917 C1915 1.387 . S
C1917 C1919 1.390 . S
C1917 H1921 0.950 . S
H1918 C1914 0.950 . S
C1919 C1917 1.390 . S
C1919 C1920 1.387 . S
C1919 H1922 0.950 . S
C1920 C1919 1.387 . S
C1920 C1923 1.387 . S
H1921 C1917 0.950 . S
H1922 C1919 0.950 . S
C1923 C1914 1.390 . S
C1923 H1916 0.950 . S
C1923 C1920 1.387 . S
C1924 C1925 1.387 . S
C1924 H1928 0.950 . S
C1924 C1933 1.390 . S
C1925 C1924 1.387 . S
C1925 C1927 1.387 . S
H1926 C1933 0.950 . S
C1927 C1925 1.387 . S
C1927 C1929 1.390 . S
C1927 H1931 0.950 . S
H1928 C1924 0.950 . S
C1929 C1927 1.390 . S
C1929 C1930 1.387 . S
C1929 H1932 0.950 . S
C1930 C1929 1.387 . S
C1930 C1933 1.387 . S
H1931 C1927 0.950 . S
H1932 C1929 0.950 . S
C1933 C1924 1.390 . S
C1933 H1926 0.950 . S
C1933 C1930 1.387 . S
C1934 C1935 1.387 . S
C1934 H1938 0.950 . S
C1934 C1943 1.390 . S
C1935 C1934 1.387 . S
C1935 C1937 1.387 1_556 S
H1936 C1943 0.950 . S
C1937 C1935 1.387 1_554 S
C1937 C1939 1.390 . S
C1937 H1941 0.950 . S
H1938 C1934 0.950 . S
C1939 C1937 1.390 . S
C1939 C1940 1.387 1_554 S
C1939 H1942 0.950 . S
C1940 C1939 1.387 1_556 S
C1940 C1943 1.387 . S
H1941 C1937 0.950 . S
H1942 C1939 0.950 . S
C1943 C1934 1.390 . S
C1943 H1936 0.950 . S
C1943 C1940 1.387 . S
C1944 C1945 1.387 . S
C1944 H1948 0.950 . S
C1944 C1953 1.390 . S
C1945 C1944 1.387 . S
C1945 C1947 1.387 . S
H1946 C1953 0.950 . S
C1947 C1945 1.387 . S
C1947 C1949 1.390 . S
C1947 H1951 0.950 . S
H1948 C1944 0.950 . S
C1949 C1947 1.390 . S
C1949 C1950 1.387 . S
C1949 H1952 0.950 . S
C1950 C1949 1.387 . S
C1950 C1953 1.387 . S
H1951 C1947 0.950 . S
H1952 C1949 0.950 . S
C1953 C1944 1.390 . S
C1953 H1946 0.950 . S
C1953 C1950 1.387 . S
C1954 C1955 1.387 . S
C1954 H1958 0.950 . S
C1954 C1963 1.390 . S
C1955 C1954 1.387 . S
C1955 C1957 1.387 . S
H1956 C1963 0.950 . S
C1957 C1955 1.387 . S
C1957 C1959 1.390 . S
C1957 H1961 0.950 . S
H1958 C1954 0.950 . S
C1959 C1957 1.390 . S
C1959 C1960 1.387 . S
C1959 H1962 0.950 . S
C1960 C1959 1.387 . S
C1960 C1963 1.387 . S
H1961 C1957 0.950 . S
H1962 C1959 0.950 . S
C1963 C1954 1.390 . S
C1963 H1956 0.950 . S
C1963 C1960 1.387 . S
C1964 C1965 1.387 . S
C1964 H1968 0.950 . S
C1964 C1973 1.390 . S
C1965 C1964 1.387 . S
C1965 C1967 1.387 . S
H1966 C1973 0.950 . S
C1967 C1965 1.387 . S
C1967 C1969 1.390 . S
C1967 H1971 0.950 . S
H1968 C1964 0.950 . S
C1969 C1967 1.390 . S
C1969 C1970 1.387 . S
C1969 H1972 0.950 . S
C1970 C1969 1.387 . S
C1970 C1973 1.387 . S
H1971 C1967 0.950 . S
H1972 C1969 0.950 . S
C1973 C1964 1.390 . S
C1973 H1966 0.950 . S
C1973 C1970 1.387 . S
C1974 C1975 1.387 . S
C1974 H1978 0.950 . S
C1974 C1983 1.390 . S
C1975 C1974 1.387 . S
C1975 C1977 1.387 . S
H1976 C1983 0.950 . S
C1977 C1975 1.387 . S
C1977 C1979 1.390 . S
C1977 H1981 0.950 . S
H1978 C1974 0.950 . S
C1979 C1977 1.390 . S
C1979 C1980 1.387 . S
C1979 H1982 0.950 . S
C1980 C1979 1.387 . S
C1980 C1983 1.387 . S
H1981 C1977 0.950 . S
H1982 C1979 0.950 . S
C1983 C1974 1.390 . S
C1983 H1976 0.950 . S
C1983 C1980 1.387 . S
C1984 C1985 1.387 . S
C1984 H1988 0.950 . S
C1984 C1993 1.390 . S
C1985 C1984 1.387 . S
C1985 C1987 1.387 . S
H1986 C1993 0.950 . S
C1987 C1985 1.387 . S
C1987 C1989 1.390 . S
C1987 H1991 0.950 . S
H1988 C1984 0.950 . S
C1989 C1987 1.390 . S
C1989 C1990 1.387 . S
C1989 H1992 0.950 . S
C1990 C1989 1.387 . S
C1990 C1993 1.387 . S
H1991 C1987 0.950 . S
H1992 C1989 0.950 . S
C1993 C1984 1.390 . S
C1993 H1986 0.950 . S
C1993 C1990 1.387 . S
C1994 C1995 1.387 . S
C1994 H1998 0.950 . S
C1994 C2003 1.390 . S
C1995 C1994 1.387 . S
C1995 C1997 1.387 . S
H1996 C2003 0.950 . S
C1997 C1995 1.387 . S
C1997 C1999 1.390 . S
C1997 H2001 0.950 . S
H1998 C1994 0.950 . S
C1999 C1997 1.390 . S
C1999 C2000 1.387 . S
C1999 H2002 0.950 . S
C2000 C1999 1.387 . S
C2000 C2003 1.387 . S
H2001 C1997 0.950 . S
H2002 C1999 0.950 . S
C2003 C1994 1.390 . S
C2003 H1996 0.950 . S
C2003 C2000 1.387 . S
C2004 C2005 1.387 . S
C2004 H2008 0.950 . S
C2004 C2013 1.390 . S
C2005 C2004 1.387 . S
C2005 C2007 1.387 . S
H2006 C2013 0.950 . S
C2007 C2005 1.387 . S
C2007 C2009 1.390 . S
C2007 H2011 0.950 . S
H2008 C2004 0.950 . S
C2009 C2007 1.390 . S
C2009 C2010 1.387 . S
C2009 H2012 0.950 . S
C2010 C2009 1.387 . S
C2010 C2013 1.387 . S
H2011 C2007 0.950 . S
H2012 C2009 0.950 . S
C2013 C2004 1.390 . S
C2013 H2006 0.950 . S
C2013 C2010 1.387 . S
C2014 C2015 1.387 . S
C2014 H2018 0.950 . S
C2014 C2023 1.390 . S
C2015 C2014 1.387 . S
C2015 C2017 1.387 . S
H2016 C2023 0.950 . S
C2017 C2015 1.387 . S
C2017 C2019 1.390 . S
C2017 H2021 0.950 . S
H2018 C2014 0.950 . S
C2019 C2017 1.390 . S
C2019 C2020 1.387 . S
C2019 H2022 0.950 . S
C2020 C2019 1.387 . S
C2020 C2023 1.387 . S
H2021 C2017 0.950 . S
H2022 C2019 0.950 . S
C2023 C2014 1.390 . S
C2023 H2016 0.950 . S
C2023 C2020 1.387 . S
C2024 C2025 1.387 1_565 S
C2024 H2028 0.950 . S
C2024 C2033 1.390 . S
C2025 C2024 1.387 1_545 S
C2025 C2027 1.387 . S
H2026 C2033 0.950 . S
C2027 C2025 1.387 . S
C2027 C2029 1.390 . S
C2027 H2031 0.950 . S
H2028 C2024 0.950 . S
C2029 C2027 1.390 . S
C2029 C2030 1.387 . S
C2029 H2032 0.950 . S
C2030 C2029 1.387 . S
C2030 C2033 1.387 1_545 S
H2031 C2027 0.950 . S
H2032 C2029 0.950 . S
C2033 C2024 1.390 . S
C2033 H2026 0.950 . S
C2033 C2030 1.387 1_565 S
C2034 C2035 1.387 . S
C2034 H2038 0.950 . S
C2034 C2043 1.390 . S
C2035 C2034 1.387 . S
C2035 C2037 1.387 . S
H2036 C2043 0.950 . S
C2037 C2035 1.387 . S
C2037 C2039 1.390 . S
C2037 H2041 0.950 . S
H2038 C2034 0.950 . S
C2039 C2037 1.390 . S
C2039 C2040 1.387 . S
C2039 H2042 0.950 . S
C2040 C2039 1.387 . S
C2040 C2043 1.387 . S
H2041 C2037 0.950 . S
H2042 C2039 0.950 . S
C2043 C2034 1.390 . S
C2043 H2036 0.950 . S
C2043 C2040 1.387 . S
C2044 C2045 1.387 . S
C2044 H2048 0.950 . S
C2044 C2053 1.390 . S
C2045 C2044 1.387 . S
C2045 C2047 1.387 . S
H2046 C2053 0.950 . S
C2047 C2045 1.387 . S
C2047 C2049 1.390 . S
C2047 H2051 0.950 . S
H2048 C2044 0.950 . S
C2049 C2047 1.390 . S
C2049 C2050 1.387 . S
C2049 H2052 0.950 . S
C2050 C2049 1.387 . S
C2050 C2053 1.387 . S
H2051 C2047 0.950 . S
H2052 C2049 0.950 . S
C2053 C2044 1.390 . S
C2053 H2046 0.950 . S
C2053 C2050 1.387 . S
C2054 C2055 1.387 . S
C2054 H2058 0.950 . S
C2054 C2063 1.390 . S
C2055 C2054 1.387 . S
C2055 C2057 1.387 . S
H2056 C2063 0.950 . S
C2057 C2055 1.387 . S
C2057 C2059 1.390 . S
C2057 H2061 0.950 . S
H2058 C2054 0.950 . S
C2059 C2057 1.390 . S
C2059 C2060 1.387 . S
C2059 H2062 0.950 . S
C2060 C2059 1.387 . S
C2060 C2063 1.387 . S
H2061 C2057 0.950 . S
H2062 C2059 0.950 . S
C2063 C2054 1.390 . S
C2063 H2056 0.950 . S
C2063 C2060 1.387 . S
C2064 C2065 1.387 . S
C2064 H2068 0.950 . S
C2064 C2073 1.390 . S
C2065 C2064 1.387 . S
C2065 C2067 1.387 . S
H2066 C2073 0.950 . S
C2067 C2065 1.387 . S
C2067 C2069 1.390 . S
C2067 H2071 0.950 . S
H2068 C2064 0.950 . S
C2069 C2067 1.390 . S
C2069 C2070 1.387 . S
C2069 H2072 0.950 . S
C2070 C2069 1.387 . S
C2070 C2073 1.387 . S
H2071 C2067 0.950 . S
H2072 C2069 0.950 . S
C2073 C2064 1.390 . S
C2073 H2066 0.950 . S
C2073 C2070 1.387 . S
C2074 C2075 1.387 . S
C2074 H2078 0.950 . S
C2074 C2083 1.390 . S
C2075 C2074 1.387 . S
C2075 C2077 1.387 . S
H2076 C2083 0.950 . S
C2077 C2075 1.387 . S
C2077 C2079 1.390 . S
C2077 H2081 0.950 . S
H2078 C2074 0.950 . S
C2079 C2077 1.390 . S
C2079 C2080 1.387 . S
C2079 H2082 0.950 . S
C2080 C2079 1.387 . S
C2080 C2083 1.387 . S
H2081 C2077 0.950 . S
H2082 C2079 0.950 . S
C2083 C2074 1.390 . S
C2083 H2076 0.950 . S
C2083 C2080 1.387 . S
C2084 C2085 1.387 . S
C2084 H2088 0.950 . S
C2084 C2093 1.390 . S
C2085 C2084 1.387 . S
C2085 C2087 1.387 . S
H2086 C2093 0.950 . S
C2087 C2085 1.387 . S
C2087 C2089 1.390 . S
C2087 H2091 0.950 . S
H2088 C2084 0.950 . S
C2089 C2087 1.390 . S
C2089 C2090 1.387 . S
C2089 H2092 0.950 . S
C2090 C2089 1.387 . S
C2090 C2093 1.387 . S
H2091 C2087 0.950 . S
H2092 C2089 0.950 . S
C2093 C2084 1.390 . S
C2093 H2086 0.950 . S
C2093 C2090 1.387 . S
C2094 C2095 1.387 . S
C2094 H2098 0.950 . S
C2094 C2103 1.390 . S
C2095 C2094 1.387 . S
C2095 C2097 1.387 . S
H2096 C2103 0.950 . S
C2097 C2095 1.387 . S
C2097 C2099 1.390 . S
C2097 H2101 0.950 . S
H2098 C2094 0.950 . S
C2099 C2097 1.390 . S
C2099 C2100 1.387 . S
C2099 H2102 0.950 1_655 S
C2100 C2099 1.387 . S
C2100 C2103 1.387 . S
H2101 C2097 0.950 . S
H2102 C2099 0.950 1_455 S
C2103 C2094 1.390 . S
C2103 H2096 0.950 . S
C2103 C2100 1.387 . S
C2104 C2105 1.387 . S
C2104 H2108 0.950 . S
C2104 C2113 1.390 . S
C2105 C2104 1.387 . S
C2105 C2107 1.387 . S
H2106 C2113 0.950 . S
C2107 C2105 1.387 . S
C2107 C2109 1.390 . S
C2107 H2111 0.950 . S
H2108 C2104 0.950 . S
C2109 C2107 1.390 . S
C2109 C2110 1.387 . S
C2109 H2112 0.950 . S
C2110 C2109 1.387 . S
C2110 C2113 1.387 . S
H2111 C2107 0.950 . S
H2112 C2109 0.950 . S
C2113 C2104 1.390 . S
C2113 H2106 0.950 . S
C2113 C2110 1.387 . S
C2114 C2115 1.387 . S
C2114 H2118 0.950 . S
C2114 C2123 1.390 . S
C2115 C2114 1.387 . S
C2115 C2117 1.387 . S
H2116 C2123 0.950 . S
C2117 C2115 1.387 . S
C2117 C2119 1.392 . S
C2117 H2121 0.950 1_655 S
H2118 C2114 0.950 . S
C2119 C2117 1.392 . S
C2119 C2120 1.392 . S
C2119 H2122 0.943 1_655 S
C2120 C2119 1.392 . S
C2120 C2123 1.387 . S
H2121 C2117 0.950 1_455 S
H2122 C2119 0.943 1_455 S
C2123 C2114 1.390 . S
C2123 H2116 0.950 . S
C2123 C2120 1.387 . S
C2124 C2125 1.387 . S
C2124 H2128 0.950 . S
C2124 C2133 1.390 . S
C2125 C2124 1.387 . S
C2125 C2127 1.387 . S
H2126 C2133 0.950 . S
C2127 C2125 1.387 . S
C2127 C2129 1.390 . S
C2127 H2131 0.950 . S
H2128 C2124 0.950 . S
C2129 C2127 1.390 . S
C2129 C2130 1.387 . S
C2129 H2132 0.950 . S
C2130 C2129 1.387 . S
C2130 C2133 1.387 . S
H2131 C2127 0.950 . S
H2132 C2129 0.950 . S
C2133 C2124 1.390 . S
C2133 H2126 0.950 . S
C2133 C2130 1.387 . S
C2134 C2135 1.387 . S
C2134 H2138 0.950 . S
C2134 C2143 1.390 . S
C2135 C2134 1.387 . S
C2135 C2137 1.387 . S
H2136 C2143 0.950 . S
C2137 C2135 1.387 . S
C2137 C2139 1.390 . S
C2137 H2141 0.950 . S
H2138 C2134 0.950 . S
C2139 C2137 1.390 . S
C2139 C2140 1.387 . S
C2139 H2142 0.950 . S
C2140 C2139 1.387 . S
C2140 C2143 1.387 . S
H2141 C2137 0.950 . S
H2142 C2139 0.950 . S
C2143 C2134 1.390 . S
C2143 H2136 0.950 . S
C2143 C2140 1.387 . S
C2144 C2145 1.387 . S
C2144 H2148 0.950 . S
C2144 C2153 1.390 . S
C2145 C2144 1.387 . S
C2145 C2147 1.387 . S
H2146 C2153 0.950 . S
C2147 C2145 1.387 . S
C2147 C2149 1.390 . S
C2147 H2151 0.950 . S
H2148 C2144 0.950 . S
C2149 C2147 1.390 . S
C2149 C2150 1.387 . S
C2149 H2152 0.950 . S
C2150 C2149 1.387 . S
C2150 C2153 1.387 . S
H2151 C2147 0.950 . S
H2152 C2149 0.950 . S
C2153 C2144 1.390 . S
C2153 H2146 0.950 . S
C2153 C2150 1.387 . S
C2154 C2155 1.387 1_554 S
C2154 H2158 0.950 . S
C2154 C2163 1.390 . S
C2155 C2154 1.387 1_556 S
C2155 C2157 1.387 . S
H2156 C2163 0.950 . S
C2157 C2155 1.387 . S
C2157 C2159 1.390 . S
C2157 H2161 0.950 . S
H2158 C2154 0.950 . S
C2159 C2157 1.390 . S
C2159 C2160 1.387 . S
C2159 H2162 0.950 . S
C2160 C2159 1.387 . S
C2160 C2163 1.387 1_556 S
H2161 C2157 0.950 . S
H2162 C2159 0.950 . S
C2163 C2154 1.390 . S
C2163 H2156 0.950 . S
C2163 C2160 1.387 1_554 S
C2164 C2165 1.387 . S
C2164 H2168 0.950 . S
C2164 C2173 1.390 . S
C2165 C2164 1.387 . S
C2165 C2167 1.387 . S
H2166 C2173 0.950 . S
C2167 C2165 1.387 . S
C2167 C2169 1.390 . S
C2167 H2171 0.950 . S
H2168 C2164 0.950 . S
C2169 C2167 1.390 . S
C2169 C2170 1.387 . S
C2169 H2172 0.950 . S
C2170 C2169 1.387 . S
C2170 C2173 1.387 . S
H2171 C2167 0.950 . S
H2172 C2169 0.950 . S
C2173 C2164 1.390 . S
C2173 H2166 0.950 . S
C2173 C2170 1.387 . S
C2174 C2175 1.387 . S
C2174 H2178 0.950 . S
C2174 C2183 1.390 . S
C2175 C2174 1.387 . S
C2175 C2177 1.387 . S
H2176 C2183 0.950 . S
C2177 C2175 1.387 . S
C2177 C2179 1.390 . S
C2177 H2181 0.950 . S
H2178 C2174 0.950 . S
C2179 C2177 1.390 . S
C2179 C2180 1.387 . S
C2179 H2182 0.950 . S
C2180 C2179 1.387 . S
C2180 C2183 1.387 . S
H2181 C2177 0.950 . S
H2182 C2179 0.950 . S
C2183 C2174 1.390 . S
C2183 H2176 0.950 . S
C2183 C2180 1.387 . S
C2184 C2185 1.387 . S
C2184 H2188 0.950 . S
C2184 C2193 1.390 . S
C2185 C2184 1.387 . S
C2185 C2187 1.387 . S
H2186 C2193 0.950 . S
C2187 C2185 1.387 . S
C2187 C2189 1.390 . S
C2187 H2191 0.950 . S
H2188 C2184 0.950 . S
C2189 C2187 1.390 . S
C2189 C2190 1.387 . S
C2189 H2192 0.950 . S
C2190 C2189 1.387 . S
C2190 C2193 1.387 . S
H2191 C2187 0.950 . S
H2192 C2189 0.950 . S
C2193 C2184 1.390 . S
C2193 H2186 0.950 . S
C2193 C2190 1.387 . S
C2194 C2195 1.387 1_556 S
C2194 H2198 0.950 . S
C2194 C2203 1.390 . S
C2195 C2194 1.387 1_554 S
C2195 C2197 1.387 . S
H2196 C2203 0.950 . S
C2197 C2195 1.387 . S
C2197 C2199 1.390 . S
C2197 H2201 0.950 . S
H2198 C2194 0.950 . S
C2199 C2197 1.390 . S
C2199 C2200 1.387 . S
C2199 H2202 0.950 . S
C2200 C2199 1.387 . S
C2200 C2203 1.387 1_554 S
H2201 C2197 0.950 . S
H2202 C2199 0.950 . S
C2203 C2194 1.390 . S
C2203 H2196 0.950 . S
C2203 C2200 1.387 1_556 S
C2204 C2205 1.387 . S
C2204 H2208 0.950 . S
C2204 C2213 1.390 . S
C2205 C2204 1.387 . S
C2205 C2207 1.387 . S
H2206 C2213 0.950 . S
C2207 C2205 1.387 . S
C2207 C2209 1.390 . S
C2207 H2211 0.950 . S
H2208 C2204 0.950 . S
C2209 C2207 1.390 . S
C2209 C2210 1.387 . S
C2209 H2212 0.950 . S
C2210 C2209 1.387 . S
C2210 C2213 1.387 . S
H2211 C2207 0.950 . S
H2212 C2209 0.950 . S
C2213 C2204 1.390 . S
C2213 H2206 0.950 . S
C2213 C2210 1.387 . S
C2214 C2215 1.387 . S
C2214 H2218 0.950 . S
C2214 C2223 1.390 . S
C2215 C2214 1.387 . S
C2215 C2217 1.387 . S
H2216 C2223 0.950 . S
C2217 C2215 1.387 . S
C2217 C2219 1.390 . S
C2217 H2221 0.950 . S
H2218 C2214 0.950 . S
C2219 C2217 1.390 . S
C2219 C2220 1.387 . S
C2219 H2222 0.950 . S
C2220 C2219 1.387 . S
C2220 C2223 1.387 . S
H2221 C2217 0.950 . S
H2222 C2219 0.950 . S
C2223 C2214 1.390 . S
C2223 H2216 0.950 . S
C2223 C2220 1.387 . S
C2224 C2225 1.387 . S
C2224 H2228 0.950 . S
C2224 C2233 1.390 . S
C2225 C2224 1.387 . S
C2225 C2227 1.387 . S
H2226 C2233 0.950 . S
C2227 C2225 1.387 . S
C2227 C2229 1.390 . S
C2227 H2231 0.950 . S
H2228 C2224 0.950 . S
C2229 C2227 1.390 . S
C2229 C2230 1.387 . S
C2229 H2232 0.950 . S
C2230 C2229 1.387 . S
C2230 C2233 1.387 . S
H2231 C2227 0.950 . S
H2232 C2229 0.950 . S
C2233 C2224 1.390 . S
C2233 H2226 0.950 . S
C2233 C2230 1.387 . S
C2234 C2235 1.387 . S
C2234 H2238 0.950 . S
C2234 C2243 1.390 . S
C2235 C2234 1.387 . S
C2235 C2237 1.387 . S
H2236 C2243 0.950 . S
C2237 C2235 1.387 . S
C2237 C2239 1.390 . S
C2237 H2241 0.950 . S
H2238 C2234 0.950 . S
C2239 C2237 1.390 . S
C2239 C2240 1.387 . S
C2239 H2242 0.950 . S
C2240 C2239 1.387 . S
C2240 C2243 1.387 . S
H2241 C2237 0.950 . S
H2242 C2239 0.950 . S
C2243 C2234 1.390 . S
C2243 H2236 0.950 . S
C2243 C2240 1.387 . S
C2244 C2245 1.362 1_545 S
C2244 H2248 0.972 . S
C2244 C2253 1.396 . S
C2245 C2244 1.362 1_565 S
C2245 C2247 1.387 . S
H2246 C2253 0.950 . S
C2247 C2245 1.387 . S
C2247 C2249 1.390 . S
C2247 H2251 0.950 . S
H2248 C2244 0.972 . S
C2249 C2247 1.390 . S
C2249 C2250 1.387 . S
C2249 H2252 0.950 . S
C2250 C2249 1.387 . S
C2250 C2253 1.387 1_565 S
H2251 C2247 0.950 . S
H2252 C2249 0.950 . S
C2253 C2244 1.396 . S
C2253 H2246 0.950 . S
C2253 C2250 1.387 1_545 S
C2254 C2255 1.387 . S
C2254 H2258 0.950 . S
C2254 C2263 1.390 . S
C2255 C2254 1.387 . S
C2255 C2257 1.387 . S
H2256 C2263 0.950 . S
C2257 C2255 1.387 . S
C2257 C2259 1.390 . S
C2257 H2261 0.950 . S
H2258 C2254 0.950 . S
C2259 C2257 1.390 . S
C2259 C2260 1.387 . S
C2259 H2262 0.950 . S
C2260 C2259 1.387 . S
C2260 C2263 1.387 . S
H2261 C2257 0.950 . S
H2262 C2259 0.950 . S
C2263 C2254 1.390 . S
C2263 H2256 0.950 . S
C2263 C2260 1.387 . S
C2264 C2265 1.387 . S
C2264 H2268 0.950 . S
C2264 C2273 1.390 . S
C2265 C2264 1.387 . S
C2265 C2267 1.387 . S
H2266 C2273 0.950 . S
C2267 C2265 1.387 . S
C2267 C2269 1.390 . S
C2267 H2271 0.950 . S
H2268 C2264 0.950 . S
C2269 C2267 1.390 . S
C2269 C2270 1.387 . S
C2269 H2272 0.950 . S
C2270 C2269 1.387 . S
C2270 C2273 1.387 . S
H2271 C2267 0.950 . S
H2272 C2269 0.950 . S
C2273 C2264 1.390 . S
C2273 H2266 0.950 . S
C2273 C2270 1.387 . S
C2274 C2275 1.387 . S
C2274 H2278 0.950 . S
C2274 C2283 1.390 . S
C2275 C2274 1.387 . S
C2275 C2277 1.387 . S
H2276 C2283 0.950 . S
C2277 C2275 1.387 . S
C2277 C2279 1.390 . S
C2277 H2281 0.950 . S
H2278 C2274 0.950 . S
C2279 C2277 1.390 . S
C2279 C2280 1.387 . S
C2279 H2282 0.950 . S
C2280 C2279 1.387 . S
C2280 C2283 1.387 . S
H2281 C2277 0.950 . S
H2282 C2279 0.950 . S
C2283 C2274 1.390 . S
C2283 H2276 0.950 . S
C2283 C2280 1.387 . S
C2284 C2285 1.387 1_565 S
C2284 H2288 0.950 . S
C2284 C2293 1.390 . S
C2285 C2284 1.387 1_545 S
C2285 C2287 1.387 . S
H2286 C2293 0.950 . S
C2287 C2285 1.387 . S
C2287 C2289 1.390 . S
C2287 H2291 0.950 . S
H2288 C2284 0.950 . S
C2289 C2287 1.390 . S
C2289 C2290 1.387 . S
C2289 H2292 0.950 . S
C2290 C2289 1.387 . S
C2290 C2293 1.387 1_545 S
H2291 C2287 0.950 . S
H2292 C2289 0.950 . S
C2293 C2284 1.390 . S
C2293 H2286 0.950 . S
C2293 C2290 1.387 1_565 S
C2294 C2295 1.387 . S
C2294 H2298 0.950 . S
C2294 C2303 1.390 . S
C2295 C2294 1.387 . S
C2295 C2297 1.387 . S
H2296 C2303 0.950 . S
C2297 C2295 1.387 . S
C2297 C2299 1.390 . S
C2297 H2301 0.950 . S
H2298 C2294 0.950 . S
C2299 C2297 1.390 . S
C2299 C2300 1.387 . S
C2299 H2302 0.950 . S
C2300 C2299 1.387 . S
C2300 C2303 1.387 . S
H2301 C2297 0.950 . S
H2302 C2299 0.950 . S
C2303 C2294 1.390 . S
C2303 H2296 0.950 . S
C2303 C2300 1.387 . S
C2304 C2305 1.387 . S
C2304 H2308 0.950 . S
C2304 C2313 1.390 . S
C2305 C2304 1.387 . S
C2305 C2307 1.387 . S
H2306 C2313 0.950 . S
C2307 C2305 1.387 . S
C2307 C2309 1.390 . S
C2307 H2311 0.950 . S
H2308 C2304 0.950 . S
C2309 C2307 1.390 . S
C2309 C2310 1.387 . S
C2309 H2312 0.950 . S
C2310 C2309 1.387 . S
C2310 C2313 1.387 . S
H2311 C2307 0.950 . S
H2312 C2309 0.950 . S
C2313 C2304 1.390 . S
C2313 H2306 0.950 . S
C2313 C2310 1.387 . S
C2314 C2315 1.387 . S
C2314 H2318 0.950 . S
C2314 C2323 1.390 . S
C2315 C2314 1.387 . S
C2315 C2317 1.387 . S
H2316 C2323 0.950 . S
C2317 C2315 1.387 . S
C2317 C2319 1.390 . S
C2317 H2321 0.950 . S
H2318 C2314 0.950 . S
C2319 C2317 1.390 . S
C2319 C2320 1.387 . S
C2319 H2322 0.950 . S
C2320 C2319 1.387 . S
C2320 C2323 1.387 . S
H2321 C2317 0.950 . S
H2322 C2319 0.950 . S
C2323 C2314 1.390 . S
C2323 H2316 0.950 . S
C2323 C2320 1.387 . S
C2324 C2325 1.387 . S
C2324 H2328 0.950 . S
C2324 C2333 1.390 . S
C2325 C2324 1.387 . S
C2325 C2327 1.387 . S
H2326 C2333 0.950 . S
C2327 C2325 1.387 . S
C2327 C2329 1.390 . S
C2327 H2331 0.950 . S
H2328 C2324 0.950 . S
C2329 C2327 1.390 . S
C2329 C2330 1.387 . S
C2329 H2332 0.950 . S
C2330 C2329 1.387 . S
C2330 C2333 1.387 . S
H2331 C2327 0.950 . S
H2332 C2329 0.950 . S
C2333 C2324 1.390 . S
C2333 H2326 0.950 . S
C2333 C2330 1.387 . S
C2334 C2335 1.387 . S
C2334 H2338 0.950 . S
C2334 C2343 1.390 . S
C2335 C2334 1.387 . S
C2335 C2337 1.387 . S
H2336 C2343 0.950 . S
C2337 C2335 1.387 . S
C2337 C2339 1.390 . S
C2337 H2341 0.950 . S
H2338 C2334 0.950 . S
C2339 C2337 1.390 . S
C2339 C2340 1.387 . S
C2339 H2342 0.950 . S
C2340 C2339 1.387 . S
C2340 C2343 1.387 . S
H2341 C2337 0.950 . S
H2342 C2339 0.950 . S
C2343 C2334 1.390 . S
C2343 H2336 0.950 . S
C2343 C2340 1.387 . S
C2344 C2345 1.387 . S
C2344 H2348 0.950 . S
C2344 C2353 1.390 . S
C2345 C2344 1.387 . S
C2345 C2347 1.387 . S
H2346 C2353 0.950 . S
C2347 C2345 1.387 . S
C2347 C2349 1.390 . S
C2347 H2351 0.950 . S
H2348 C2344 0.950 . S
C2349 C2347 1.390 . S
C2349 C2350 1.387 . S
C2349 H2352 0.950 . S
C2350 C2349 1.387 . S
C2350 C2353 1.387 . S
H2351 C2347 0.950 . S
H2352 C2349 0.950 . S
C2353 C2344 1.390 . S
C2353 H2346 0.950 . S
C2353 C2350 1.387 . S
C2354 C2355 1.387 . S
C2354 H2358 0.950 . S
C2354 C2363 1.390 . S
C2355 C2354 1.387 . S
C2355 C2357 1.387 . S
H2356 C2363 0.950 . S
C2357 C2355 1.387 . S
C2357 C2359 1.390 . S
C2357 H2361 0.950 . S
H2358 C2354 0.950 . S
C2359 C2357 1.390 . S
C2359 C2360 1.387 . S
C2359 H2362 0.950 . S
C2360 C2359 1.387 . S
C2360 C2363 1.387 . S
H2361 C2357 0.950 . S
H2362 C2359 0.950 . S
C2363 C2354 1.390 . S
C2363 H2356 0.950 . S
C2363 C2360 1.387 . S
C2364 C2365 1.387 . S
C2364 H2368 0.950 . S
C2364 C2373 1.390 . S
C2365 C2364 1.387 . S
C2365 C2367 1.387 . S
H2366 C2373 0.950 . S
C2367 C2365 1.387 . S
C2367 C2369 1.390 . S
C2367 H2371 0.950 . S
H2368 C2364 0.950 . S
C2369 C2367 1.390 . S
C2369 C2370 1.387 . S
C2369 H2372 0.950 . S
C2370 C2369 1.387 . S
C2370 C2373 1.387 . S
H2371 C2367 0.950 . S
H2372 C2369 0.950 . S
C2373 C2364 1.390 . S
C2373 H2366 0.950 . S
C2373 C2370 1.387 . S
C2374 C2375 1.387 . S
C2374 H2378 0.950 . S
C2374 C2383 1.390 . S
C2375 C2374 1.387 . S
C2375 C2377 1.387 . S
H2376 C2383 0.950 . S
C2377 C2375 1.387 . S
C2377 C2379 1.390 . S
C2377 H2381 0.950 . S
H2378 C2374 0.950 . S
C2379 C2377 1.390 . S
C2379 C2380 1.387 . S
C2379 H2382 0.950 . S
C2380 C2379 1.387 . S
C2380 C2383 1.387 . S
H2381 C2377 0.950 . S
H2382 C2379 0.950 . S
C2383 C2374 1.390 . S
C2383 H2376 0.950 . S
C2383 C2380 1.387 . S
C2384 C2385 1.387 . S
C2384 H2388 0.950 . S
C2384 C2393 1.390 . S
C2385 C2384 1.387 . S
C2385 C2387 1.387 . S
H2386 C2393 0.950 . S
C2387 C2385 1.387 . S
C2387 C2389 1.390 . S
C2387 H2391 0.950 . S
H2388 C2384 0.950 . S
C2389 C2387 1.390 . S
C2389 C2390 1.387 . S
C2389 H2392 0.950 . S
C2390 C2389 1.387 . S
C2390 C2393 1.387 . S
H2391 C2387 0.950 . S
H2392 C2389 0.950 . S
C2393 C2384 1.390 . S
C2393 H2386 0.950 . S
C2393 C2390 1.387 . S
C2394 C2395 1.387 . S
C2394 H2398 0.950 . S
C2394 C2403 1.390 . S
C2395 C2394 1.387 . S
C2395 C2397 1.387 . S
H2396 C2403 0.950 . S
C2397 C2395 1.387 . S
C2397 C2399 1.390 . S
C2397 H2401 0.950 . S
H2398 C2394 0.950 . S
C2399 C2397 1.390 . S
C2399 C2400 1.387 . S
C2399 H2402 0.950 . S
C2400 C2399 1.387 . S
C2400 C2403 1.387 . S
H2401 C2397 0.950 . S
H2402 C2399 0.950 . S
C2403 C2394 1.390 . S
C2403 H2396 0.950 . S
C2403 C2400 1.387 . S
C2404 C2405 1.387 . S
C2404 H2408 0.950 . S
C2404 C2413 1.390 . S
C2405 C2404 1.387 . S
C2405 C2407 1.387 . S
H2406 C2413 0.950 . S
C2407 C2405 1.387 . S
C2407 C2409 1.390 . S
C2407 H2411 0.950 . S
H2408 C2404 0.950 . S
C2409 C2407 1.390 . S
C2409 C2410 1.387 . S
C2409 H2412 0.950 . S
C2410 C2409 1.387 . S
C2410 C2413 1.387 . S
H2411 C2407 0.950 . S
H2412 C2409 0.950 . S
C2413 C2404 1.390 . S
C2413 H2406 0.950 . S
C2413 C2410 1.387 . S
C2414 C2415 1.387 . S
C2414 H2418 0.950 . S
C2414 C2423 1.390 . S
C2415 C2414 1.387 . S
C2415 C2417 1.387 . S
H2416 C2423 0.950 . S
C2417 C2415 1.387 . S
C2417 C2419 1.390 . S
C2417 H2421 0.950 . S
H2418 C2414 0.950 . S
C2419 C2417 1.390 . S
C2419 C2420 1.387 . S
C2419 H2422 0.950 . S
C2420 C2419 1.387 . S
C2420 C2423 1.387 . S
H2421 C2417 0.950 . S
H2422 C2419 0.950 . S
C2423 C2414 1.390 . S
C2423 H2416 0.950 . S
C2423 C2420 1.387 . S
C2424 C2425 1.387 . S
C2424 H2428 0.950 . S
C2424 C2433 1.390 . S
C2425 C2424 1.387 . S
C2425 C2427 1.387 . S
H2426 C2433 0.950 . S
C2427 C2425 1.387 . S
C2427 C2429 1.390 . S
C2427 H2431 0.950 . S
H2428 C2424 0.950 . S
C2429 C2427 1.390 . S
C2429 C2430 1.387 . S
C2429 H2432 0.950 . S
C2430 C2429 1.387 . S
C2430 C2433 1.387 . S
H2431 C2427 0.950 . S
H2432 C2429 0.950 . S
C2433 C2424 1.390 . S
C2433 H2426 0.950 . S
C2433 C2430 1.387 . S
C2434 C2435 1.387 . S
C2434 H2438 0.950 . S
C2434 C2443 1.390 . S
C2435 C2434 1.387 . S
C2435 C2437 1.387 . S
H2436 C2443 0.950 . S
C2437 C2435 1.387 . S
C2437 C2439 1.390 . S
C2437 H2441 0.950 . S
H2438 C2434 0.950 . S
C2439 C2437 1.390 . S
C2439 C2440 1.387 . S
C2439 H2442 0.950 . S
C2440 C2439 1.387 . S
C2440 C2443 1.387 . S
H2441 C2437 0.950 . S
H2442 C2439 0.950 . S
C2443 C2434 1.390 . S
C2443 H2436 0.950 . S
C2443 C2440 1.387 . S
C2444 C2445 1.387 . S
C2444 H2448 0.950 . S
C2444 C2453 1.390 . S
C2445 C2444 1.387 . S
C2445 C2447 1.387 . S
H2446 C2453 0.950 . S
C2447 C2445 1.387 . S
C2447 C2449 1.390 . S
C2447 H2451 0.950 . S
H2448 C2444 0.950 . S
C2449 C2447 1.390 . S
C2449 C2450 1.387 . S
C2449 H2452 0.950 . S
C2450 C2449 1.387 . S
C2450 C2453 1.387 . S
H2451 C2447 0.950 . S
H2452 C2449 0.950 . S
C2453 C2444 1.390 . S
C2453 H2446 0.950 . S
C2453 C2450 1.387 . S
C2454 C2455 1.387 . S
C2454 H2458 0.950 . S
C2454 C2463 1.390 . S
C2455 C2454 1.387 . S
C2455 C2457 1.387 . S
H2456 C2463 0.950 . S
C2457 C2455 1.387 . S
C2457 C2459 1.390 . S
C2457 H2461 0.950 . S
H2458 C2454 0.950 . S
C2459 C2457 1.390 . S
C2459 C2460 1.387 . S
C2459 H2462 0.950 . S
C2460 C2459 1.387 . S
C2460 C2463 1.387 . S
H2461 C2457 0.950 . S
H2462 C2459 0.950 . S
C2463 C2454 1.390 . S
C2463 H2456 0.950 . S
C2463 C2460 1.387 . S
C2464 C2465 1.387 . S
C2464 H2468 0.950 . S
C2464 C2473 1.390 . S
C2465 C2464 1.387 . S
C2465 C2467 1.387 . S
H2466 C2473 0.950 . S
C2467 C2465 1.387 . S
C2467 C2469 1.390 . S
C2467 H2471 0.950 . S
H2468 C2464 0.950 . S
C2469 C2467 1.390 . S
C2469 C2470 1.387 . S
C2469 H2472 0.950 . S
C2470 C2469 1.387 . S
C2470 C2473 1.387 . S
H2471 C2467 0.950 . S
H2472 C2469 0.950 . S
C2473 C2464 1.390 . S
C2473 H2466 0.950 . S
C2473 C2470 1.387 . S
C2474 C2475 1.387 . S
C2474 H2478 0.950 . S
C2474 C2483 1.390 . S
C2475 C2474 1.387 . S
C2475 C2477 1.387 . S
H2476 C2483 0.950 . S
C2477 C2475 1.387 . S
C2477 C2479 1.390 . S
C2477 H2481 0.950 . S
H2478 C2474 0.950 . S
C2479 C2477 1.390 . S
C2479 C2480 1.387 . S
C2479 H2482 0.950 . S
C2480 C2479 1.387 . S
C2480 C2483 1.387 . S
H2481 C2477 0.950 . S
H2482 C2479 0.950 . S
C2483 C2474 1.390 . S
C2483 H2476 0.950 . S
C2483 C2480 1.387 . S
C2484 C2485 1.387 . S
C2484 H2488 0.950 . S
C2484 C2493 1.390 . S
C2485 C2484 1.387 . S
C2485 C2487 1.387 . S
H2486 C2493 0.950 . S
C2487 C2485 1.387 . S
C2487 C2489 1.390 . S
C2487 H2491 0.950 . S
H2488 C2484 0.950 . S
C2489 C2487 1.390 . S
C2489 C2490 1.387 . S
C2489 H2492 0.950 . S
C2490 C2489 1.387 . S
C2490 C2493 1.387 . S
H2491 C2487 0.950 . S
H2492 C2489 0.950 . S
C2493 C2484 1.390 . S
C2493 H2486 0.950 . S
C2493 C2490 1.387 . S
C2494 C2495 1.387 . S
C2494 H2498 0.950 . S
C2494 C2503 1.390 . S
C2495 C2494 1.387 . S
C2495 C2497 1.387 . S
H2496 C2503 0.950 . S
C2497 C2495 1.387 . S
C2497 C2499 1.390 . S
C2497 H2501 0.950 . S
H2498 C2494 0.950 . S
C2499 C2497 1.390 . S
C2499 C2500 1.387 . S
C2499 H2502 0.950 . S
C2500 C2499 1.387 . S
C2500 C2503 1.387 . S
H2501 C2497 0.950 . S
H2502 C2499 0.950 . S
C2503 C2494 1.390 . S
C2503 H2496 0.950 . S
C2503 C2500 1.387 . S
C2504 C2505 1.387 . S
C2504 H2508 0.950 . S
C2504 C2513 1.390 . S
C2505 C2504 1.387 . S
C2505 C2507 1.387 . S
H2506 C2513 0.950 . S
C2507 C2505 1.387 . S
C2507 C2509 1.390 . S
C2507 H2511 0.950 . S
H2508 C2504 0.950 . S
C2509 C2507 1.390 . S
C2509 C2510 1.387 . S
C2509 H2512 0.950 . S
C2510 C2509 1.387 . S
C2510 C2513 1.387 . S
H2511 C2507 0.950 . S
H2512 C2509 0.950 . S
C2513 C2504 1.390 . S
C2513 H2506 0.950 . S
C2513 C2510 1.387 . S
C2514 C2515 1.387 . S
C2514 H2518 0.950 . S
C2514 C2523 1.390 . S
C2515 C2514 1.387 . S
C2515 C2517 1.387 . S
H2516 C2523 0.950 . S
C2517 C2515 1.387 . S
C2517 C2519 1.390 . S
C2517 H2521 0.950 . S
H2518 C2514 0.950 . S
C2519 C2517 1.390 . S
C2519 C2520 1.387 . S
C2519 H2522 0.950 . S
C2520 C2519 1.387 . S
C2520 C2523 1.387 . S
H2521 C2517 0.950 . S
H2522 C2519 0.950 . S
C2523 C2514 1.390 . S
C2523 H2516 0.950 . S
C2523 C2520 1.387 . S
C2524 C2525 1.387 . S
C2524 H2528 0.950 . S
C2524 C2533 1.390 . S
C2525 C2524 1.387 . S
C2525 C2527 1.387 . S
H2526 C2533 0.950 . S
C2527 C2525 1.387 . S
C2527 C2529 1.390 . S
C2527 H2531 0.950 . S
H2528 C2524 0.950 . S
C2529 C2527 1.390 . S
C2529 C2530 1.387 . S
C2529 H2532 0.950 . S
C2530 C2529 1.387 . S
C2530 C2533 1.387 . S
H2531 C2527 0.950 . S
H2532 C2529 0.950 . S
C2533 C2524 1.390 . S
C2533 H2526 0.950 . S
C2533 C2530 1.387 . S
C2534 C2535 1.387 . S
C2534 H2538 0.950 . S
C2534 C2543 1.390 . S
C2535 C2534 1.387 . S
C2535 C2537 1.387 . S
H2536 C2543 0.950 . S
C2537 C2535 1.387 . S
C2537 C2539 1.390 . S
C2537 H2541 0.950 . S
H2538 C2534 0.950 . S
C2539 C2537 1.390 . S
C2539 C2540 1.387 . S
C2539 H2542 0.950 . S
C2540 C2539 1.387 . S
C2540 C2543 1.387 . S
H2541 C2537 0.950 . S
H2542 C2539 0.950 . S
C2543 C2534 1.390 . S
C2543 H2536 0.950 . S
C2543 C2540 1.387 . S
C2544 C2545 1.387 . S
C2544 H2548 0.950 . S
C2544 C2553 1.390 1_655 S
C2545 C2544 1.387 . S
C2545 C2547 1.387 . S
H2546 C2553 0.950 . S
C2547 C2545 1.387 . S
C2547 C2549 1.390 1_655 S
C2547 H2551 0.950 . S
H2548 C2544 0.950 . S
C2549 C2547 1.390 1_455 S
C2549 C2550 1.387 . S
C2549 H2552 0.950 . S
C2550 C2549 1.387 . S
C2550 C2553 1.387 . S
H2551 C2547 0.950 . S
H2552 C2549 0.950 . S
C2553 C2544 1.390 1_455 S
C2553 H2546 0.950 . S
C2553 C2550 1.387 . S
C2554 C2555 1.387 . S
C2554 H2558 0.950 . S
C2554 C2563 1.390 1_455 S
C2555 C2554 1.387 . S
C2555 C2557 1.387 . S
H2556 C2563 0.950 . S
C2557 C2555 1.387 . S
C2557 C2559 1.390 1_455 S
C2557 H2561 0.950 . S
H2558 C2554 0.950 . S
C2559 C2557 1.390 1_655 S
C2559 C2560 1.387 . S
C2559 H2562 0.950 . S
C2560 C2559 1.387 . S
C2560 C2563 1.387 . S
H2561 C2557 0.950 . S
H2562 C2559 0.950 . S
C2563 C2554 1.390 1_655 S
C2563 H2556 0.950 . S
C2563 C2560 1.387 . S
C2564 C2565 1.387 . S
C2564 H2568 0.950 . S
C2564 C2573 1.390 . S
C2565 C2564 1.387 . S
C2565 C2567 1.387 . S
H2566 C2573 0.950 . S
C2567 C2565 1.387 . S
C2567 C2569 1.390 . S
C2567 H2571 0.950 . S
H2568 C2564 0.950 . S
C2569 C2567 1.390 . S
C2569 C2570 1.387 . S
C2569 H2572 0.950 . S
C2570 C2569 1.387 . S
C2570 C2573 1.387 . S
H2571 C2567 0.950 . S
H2572 C2569 0.950 . S
C2573 C2564 1.390 . S
C2573 H2566 0.950 . S
C2573 C2570 1.387 . S
C2574 C2575 1.387 . S
C2574 H2578 0.950 . S
C2574 C2583 1.390 . S
C2575 C2574 1.387 . S
C2575 C2577 1.387 . S
H2576 C2583 0.950 . S
C2577 C2575 1.387 . S
C2577 C2579 1.390 . S
C2577 H2581 0.950 . S
H2578 C2574 0.950 . S
C2579 C2577 1.390 . S
C2579 C2580 1.387 . S
C2579 H2582 0.950 . S
C2580 C2579 1.387 . S
C2580 C2583 1.387 . S
H2581 C2577 0.950 . S
H2582 C2579 0.950 . S
C2583 C2574 1.390 . S
C2583 H2576 0.950 . S
C2583 C2580 1.387 . S
C2584 C2585 1.387 . S
C2584 H2588 0.950 . S
C2584 C2593 1.390 1_655 S
C2585 C2584 1.387 . S
C2585 C2587 1.387 . S
H2586 C2593 0.950 . S
C2587 C2585 1.387 . S
C2587 C2589 1.390 1_655 S
C2587 H2591 0.950 . S
H2588 C2584 0.950 . S
C2589 C2587 1.390 1_455 S
C2589 C2590 1.387 . S
C2589 H2592 0.950 . S
C2590 C2589 1.387 . S
C2590 C2593 1.387 . S
H2591 C2587 0.950 . S
H2592 C2589 0.950 . S
C2593 C2584 1.390 1_455 S
C2593 H2586 0.950 . S
C2593 C2590 1.387 . S
C2594 C2595 1.387 . S
C2594 H2598 0.950 . S
C2594 C2603 1.390 . S
C2595 C2594 1.387 . S
C2595 C2597 1.387 . S
H2596 C2603 0.950 . S
C2597 C2595 1.387 . S
C2597 C2599 1.390 . S
C2597 H2601 0.950 . S
H2598 C2594 0.950 . S
C2599 C2597 1.390 . S
C2599 C2600 1.387 . S
C2599 H2602 0.950 . S
C2600 C2599 1.387 . S
C2600 C2603 1.387 . S
H2601 C2597 0.950 . S
H2602 C2599 0.950 . S
C2603 C2594 1.390 . S
C2603 H2596 0.950 . S
C2603 C2600 1.387 . S
C2604 C2605 1.387 . S
C2604 H2608 0.950 . S
C2604 C2613 1.390 . S
C2605 C2604 1.387 . S
C2605 C2607 1.387 . S
H2606 C2613 0.950 . S
C2607 C2605 1.387 . S
C2607 C2609 1.390 . S
C2607 H2611 0.950 . S
H2608 C2604 0.950 . S
C2609 C2607 1.390 . S
C2609 C2610 1.387 . S
C2609 H2612 0.950 . S
C2610 C2609 1.387 . S
C2610 C2613 1.387 . S
H2611 C2607 0.950 . S
H2612 C2609 0.950 . S
C2613 C2604 1.390 . S
C2613 H2606 0.950 . S
C2613 C2610 1.387 . S
C2614 C2615 1.387 . S
C2614 H2618 0.950 . S
C2614 C2623 1.390 1_455 S
C2615 C2614 1.387 . S
C2615 C2617 1.387 . S
H2616 C2623 0.950 . S
C2617 C2615 1.387 . S
C2617 C2619 1.390 1_455 S
C2617 H2621 0.950 . S
H2618 C2614 0.950 . S
C2619 C2617 1.390 1_655 S
C2619 C2620 1.387 . S
C2619 H2622 0.950 . S
C2620 C2619 1.387 . S
C2620 C2623 1.387 . S
H2621 C2617 0.950 . S
H2622 C2619 0.950 . S
C2623 C2614 1.390 1_655 S
C2623 H2616 0.950 . S
C2623 C2620 1.387 . S
C2624 C2625 1.387 . S
C2624 H2628 0.950 . S
C2624 C2633 1.390 1_545 S
C2625 C2624 1.387 . S
C2625 C2627 1.387 . S
H2626 C2633 0.950 . S
C2627 C2625 1.387 . S
C2627 C2629 1.390 1_545 S
C2627 H2631 0.950 . S
H2628 C2624 0.950 . S
C2629 C2627 1.390 1_565 S
C2629 C2630 1.387 . S
C2629 H2632 0.950 . S
C2630 C2629 1.387 . S
C2630 C2633 1.387 . S
H2631 C2627 0.950 . S
H2632 C2629 0.950 . S
C2633 C2624 1.390 1_565 S
C2633 H2626 0.950 . S
C2633 C2630 1.387 . S
C2634 C2635 1.387 . S
C2634 H2638 0.950 . S
C2634 C2643 1.390 . S
C2635 C2634 1.387 . S
C2635 C2637 1.387 . S
H2636 C2643 0.950 . S
C2637 C2635 1.387 . S
C2637 C2639 1.390 . S
C2637 H2641 0.950 . S
H2638 C2634 0.950 . S
C2639 C2637 1.390 . S
C2639 C2640 1.387 . S
C2639 H2642 0.950 . S
C2640 C2639 1.387 . S
C2640 C2643 1.387 . S
H2641 C2637 0.950 . S
H2642 C2639 0.950 . S
C2643 C2634 1.390 . S
C2643 H2636 0.950 . S
C2643 C2640 1.387 . S
C2644 C2645 1.387 . S
C2644 H2648 0.950 . S
C2644 C2653 1.390 1_565 S
C2645 C2644 1.387 . S
C2645 C2647 1.387 . S
H2646 C2653 0.950 . S
C2647 C2645 1.387 . S
C2647 C2649 1.390 1_565 S
C2647 H2651 0.950 . S
H2648 C2644 0.950 . S
C2649 C2647 1.390 1_545 S
C2649 C2650 1.387 . S
C2649 H2652 0.950 . S
C2650 C2649 1.387 . S
C2650 C2653 1.387 . S
H2651 C2647 0.950 . S
H2652 C2649 0.950 . S
C2653 C2644 1.390 1_545 S
C2653 H2646 0.950 . S
C2653 C2650 1.387 . S
C2654 C2655 1.387 . S
C2654 H2658 0.950 . S
C2654 C2663 1.390 1_556 S
C2655 C2654 1.387 . S
C2655 C2657 1.387 . S
H2656 C2663 0.950 . S
C2657 C2655 1.387 . S
C2657 C2659 1.390 1_556 S
C2657 H2661 0.950 . S
H2658 C2654 0.950 . S
C2659 C2657 1.390 1_554 S
C2659 C2660 1.387 . S
C2659 H2662 0.950 . S
C2660 C2659 1.387 . S
C2660 C2663 1.387 . S
H2661 C2657 0.950 . S
H2662 C2659 0.950 . S
C2663 C2654 1.390 1_554 S
C2663 H2656 0.950 . S
C2663 C2660 1.387 . S
C2664 C2665 1.387 . S
C2664 H2668 0.950 . S
C2664 C2673 1.390 1_556 S
C2665 C2664 1.387 . S
C2665 C2667 1.387 . S
H2666 C2673 0.950 . S
C2667 C2665 1.387 . S
C2667 C2669 1.390 1_556 S
C2667 H2671 0.950 . S
H2668 C2664 0.950 . S
C2669 C2667 1.390 1_554 S
C2669 C2670 1.387 . S
C2669 H2672 0.950 . S
C2670 C2669 1.387 . S
C2670 C2673 1.387 . S
H2671 C2667 0.950 . S
H2672 C2669 0.950 . S
C2673 C2664 1.390 1_554 S
C2673 H2666 0.950 . S
C2673 C2670 1.387 . S
C2674 C2675 1.387 . S
C2674 H2678 0.950 . S
C2674 C2683 1.390 1_554 S
C2675 C2674 1.387 . S
C2675 C2677 1.387 . S
H2676 C2683 0.950 . S
C2677 C2675 1.387 . S
C2677 C2679 1.390 1_554 S
C2677 H2681 0.950 . S
H2678 C2674 0.950 . S
C2679 C2677 1.390 1_556 S
C2679 C2680 1.387 . S
C2679 H2682 0.950 . S
C2680 C2679 1.387 . S
C2680 C2683 1.387 . S
H2681 C2677 0.950 . S
H2682 C2679 0.950 . S
C2683 C2674 1.390 1_556 S
C2683 H2676 0.950 . S
C2683 C2680 1.387 . S
C2684 C2685 1.387 . S
C2684 H2688 0.950 . S
C2684 C2693 1.390 . S
C2685 C2684 1.387 . S
C2685 C2687 1.387 . S
H2686 C2693 0.950 . S
C2687 C2685 1.387 . S
C2687 C2689 1.390 . S
C2687 H2691 0.950 . S
H2688 C2684 0.950 . S
C2689 C2687 1.390 . S
C2689 C2690 1.387 . S
C2689 H2692 0.950 . S
C2690 C2689 1.387 . S
C2690 C2693 1.387 . S
H2691 C2687 0.950 . S
H2692 C2689 0.950 . S
C2693 C2684 1.390 . S
C2693 H2686 0.950 . S
C2693 C2690 1.387 . S
C2694 C2695 1.387 . S
C2694 H2698 0.950 . S
C2694 C2703 1.390 . S
C2695 C2694 1.387 . S
C2695 C2697 1.387 . S
H2696 C2703 0.950 . S
C2697 C2695 1.387 . S
C2697 C2699 1.390 . S
C2697 H2701 0.950 . S
H2698 C2694 0.950 . S
C2699 C2697 1.390 . S
C2699 C2700 1.387 . S
C2699 H2702 0.950 . S
C2700 C2699 1.387 . S
C2700 C2703 1.387 . S
H2701 C2697 0.950 . S
H2702 C2699 0.950 . S
C2703 C2694 1.390 . S
C2703 H2696 0.950 . S
C2703 C2700 1.387 . S
C2704 C2705 1.387 . S
C2704 H2708 0.950 . S
C2704 C2713 1.390 1_545 S
C2705 C2704 1.387 . S
C2705 C2707 1.387 . S
H2706 C2713 0.950 . S
C2707 C2705 1.387 . S
C2707 C2709 1.390 1_545 S
C2707 H2711 0.950 . S
H2708 C2704 0.950 . S
C2709 C2707 1.390 1_565 S
C2709 C2710 1.387 . S
C2709 H2712 0.950 . S
C2710 C2709 1.387 . S
C2710 C2713 1.387 . S
H2711 C2707 0.950 . S
H2712 C2709 0.950 . S
C2713 C2704 1.390 1_565 S
C2713 H2706 0.950 . S
C2713 C2710 1.387 . S
C2714 C2715 1.387 . S
C2714 H2718 0.950 . S
C2714 C2723 1.390 . S
C2715 C2714 1.387 . S
C2715 C2717 1.387 . S
H2716 C2723 0.950 . S
C2717 C2715 1.387 . S
C2717 C2719 1.390 . S
C2717 H2721 0.950 . S
H2718 C2714 0.950 . S
C2719 C2717 1.390 . S
C2719 C2720 1.387 . S
C2719 H2722 0.950 . S
C2720 C2719 1.387 . S
C2720 C2723 1.387 . S
H2721 C2717 0.950 . S
H2722 C2719 0.950 . S
C2723 C2714 1.390 . S
C2723 H2716 0.950 . S
C2723 C2720 1.387 . S
C2724 C2725 1.387 . S
C2724 H2728 0.950 . S
C2724 C2733 1.390 . S
C2725 C2724 1.387 . S
C2725 C2727 1.387 . S
H2726 C2733 0.950 . S
C2727 C2725 1.387 . S
C2727 C2729 1.390 . S
C2727 H2731 0.950 . S
H2728 C2724 0.950 . S
C2729 C2727 1.390 . S
C2729 C2730 1.387 . S
C2729 H2732 0.950 . S
C2730 C2729 1.387 . S
C2730 C2733 1.387 . S
H2731 C2727 0.950 . S
H2732 C2729 0.950 . S
C2733 C2724 1.390 . S
C2733 H2726 0.950 . S
C2733 C2730 1.387 . S
C2734 C2735 1.387 . S
C2734 H2738 0.950 . S
C2734 C2743 1.390 . S
C2735 C2734 1.387 . S
C2735 C2737 1.387 . S
H2736 C2743 0.950 . S
C2737 C2735 1.387 . S
C2737 C2739 1.390 . S
C2737 H2741 0.950 . S
H2738 C2734 0.950 . S
C2739 C2737 1.390 . S
C2739 C2740 1.387 . S
C2739 H2742 0.950 . S
C2740 C2739 1.387 . S
C2740 C2743 1.387 . S
H2741 C2737 0.950 . S
H2742 C2739 0.950 . S
C2743 C2734 1.390 . S
C2743 H2736 0.950 . S
C2743 C2740 1.387 . S
C2744 C2745 1.387 . S
C2744 H2748 0.950 . S
C2744 C2753 1.390 1_554 S
C2745 C2744 1.387 . S
C2745 C2747 1.387 . S
H2746 C2753 0.950 . S
C2747 C2745 1.387 . S
C2747 C2749 1.390 1_554 S
C2747 H2751 0.950 . S
H2748 C2744 0.950 . S
C2749 C2747 1.390 1_556 S
C2749 C2750 1.387 . S
C2749 H2752 0.950 . S
C2750 C2749 1.387 . S
C2750 C2753 1.387 . S
H2751 C2747 0.950 . S
H2752 C2749 0.950 . S
C2753 C2744 1.390 1_556 S
C2753 H2746 0.950 . S
C2753 C2750 1.387 . S
C2754 C2755 1.387 . S
C2754 H2758 0.950 . S
C2754 C2763 1.390 . S
C2755 C2754 1.387 . S
C2755 C2757 1.387 . S
H2756 C2763 0.950 . S
C2757 C2755 1.387 . S
C2757 C2759 1.390 . S
C2757 H2761 0.950 . S
H2758 C2754 0.950 . S
C2759 C2757 1.390 . S
C2759 C2760 1.387 . S
C2759 H2762 0.950 . S
C2760 C2759 1.387 . S
C2760 C2763 1.387 . S
H2761 C2757 0.950 . S
H2762 C2759 0.950 . S
C2763 C2754 1.390 . S
C2763 H2756 0.950 . S
C2763 C2760 1.387 . S
C2764 C2765 1.387 . S
C2764 H2768 0.950 . S
C2764 C2773 1.390 . S
C2765 C2764 1.387 . S
C2765 C2767 1.387 . S
H2766 C2773 0.950 . S
C2767 C2765 1.387 . S
C2767 C2769 1.390 . S
C2767 H2771 0.950 . S
H2768 C2764 0.950 . S
C2769 C2767 1.390 . S
C2769 C2770 1.387 . S
C2769 H2772 0.950 . S
C2770 C2769 1.387 . S
C2770 C2773 1.387 . S
H2771 C2767 0.950 . S
H2772 C2769 0.950 . S
C2773 C2764 1.390 . S
C2773 H2766 0.950 . S
C2773 C2770 1.387 . S
C2774 C2775 1.387 . S
C2774 H2778 0.950 . S
C2774 C2783 1.390 1_565 S
C2775 C2774 1.387 . S
C2775 C2777 1.387 . S
H2776 C2783 0.950 . S
C2777 C2775 1.387 . S
C2777 C2779 1.390 1_565 S
C2777 H2781 0.950 . S
H2778 C2774 0.950 . S
C2779 C2777 1.390 1_545 S
C2779 C2780 1.387 . S
C2779 H2782 0.950 . S
C2780 C2779 1.387 . S
C2780 C2783 1.387 . S
H2781 C2777 0.950 . S
H2782 C2779 0.950 . S
C2783 C2774 1.390 1_545 S
C2783 H2776 0.950 . S
C2783 C2780 1.387 . S
C1585 C8 2.130 . S
C1590 C668 2.122 1_455 S
C1595 C1361 2.130 . S
C1600 C41 2.130 . S
C1605 C1394 2.130 . S
C1610 C74 2.130 . S
C1615 C107 2.122 1_556 S
C1620 C1427 2.130 . S
C1625 C140 2.130 . S
C1630 C1559 2.122 1_455 S
C1635 C701 2.130 . S
C1640 C173 2.130 . S
C1645 C206 2.130 . S
C1650 C1526 2.130 . S
C1655 C239 2.122 1_554 S
C1660 C536 2.130 . S
C1665 C272 2.130 . S
C1670 C503 2.122 1_545 S
C1675 C305 2.123 1_565 S
C1680 C404 2.130 . S
C1685 C437 2.123 1_565 S
C1690 C338 2.130 . S
C1695 C470 2.130 . S
C1700 C371 2.122 1_545 S
C1705 C833 2.122 1_556 S
C1710 C569 2.130 . S
C1715 C602 2.122 1_655 S
C1720 C866 2.130 . S
C1725 C899 2.130 . S
C1730 C635 2.130 . S
C1735 C734 2.122 1_655 S
C1740 C998 2.130 . S
C1745 C767 2.130 . S
C1750 C932 2.130 . S
C1755 C1460 2.130 . S
C1760 C800 2.130 . S
C1765 C1493 2.130 . S
C1770 C965 2.123 1_554 S
C1775 C1031 2.130 . S
C1780 C1328 2.130 . S
C1785 C1295 2.130 . S
C1790 C1064 2.130 . S
C1795 C1196 2.130 . S
C1800 C1097 2.130 . S
C1805 C1130 2.130 . S
C1810 C1229 2.130 . S
C1815 C1163 2.130 . S
C1820 C1262 2.130 . S
C1825 N533 1.487 . S
C1830 C28 1.315 . S
C1835 N1556 1.488 . S
C1840 C61 1.311 . S
C1845 N698 1.488 . S
C1850 C94 1.314 . S
C1855 C127 1.315 1_556 S
C1860 N1523 1.487 . S
C1865 N1358 1.487 . S
C1870 C160 1.311 . S
C1875 C193 1.316 . S
C1880 N1391 1.487 . S
C1885 N1424 1.487 . S
C1890 C226 1.313 . S
C1895 C259 1.313 1_554 S
C1900 N665 1.488 . S
C1905 C292 1.310 . S
C1910 N5 1.487 . S
C1915 N38 1.487 . S
C1920 C325 1.312 1_565 S
C1925 N71 1.487 . S
C1930 C358 1.310 . S
C1935 N104 1.487 . S
C1940 C391 1.315 1_545 S
C1945 C424 1.315 . S
C1950 N137 1.487 . S
C1955 C457 1.315 1_565 S
C1960 N170 1.487 . S
C1965 C490 1.315 . S
C1970 N203 1.487 . S
C1975 C523 1.310 1_545 S
C1980 N236 1.488 . S
C1985 N269 1.488 . S
C1990 C556 1.312 . S
C1995 C589 1.311 . S
C2000 N1193 1.488 . S
C2005 C622 1.315 1_655 S
C2010 N1226 1.487 . S
C2015 N1259 1.487 . S
C2020 C655 1.316 . S
C2025 C688 1.310 1_455 S
C2030 N500 1.487 . S
C2035 C721 1.311 . S
C2040 N335 1.488 . S
C2045 N1160 1.487 . S
C2050 C754 1.316 1_655 S
C2055 C787 1.310 . S
C2060 N1094 1.487 . S
C2065 C820 1.314 . S
C2070 N1325 1.487 . S
C2075 C853 1.315 1_556 S
C2080 N764 1.487 . S
C2085 C886 1.311 . S
C2090 N1490 1.487 . S
C2095 C919 1.311 . S
C2100 N731 1.488 . S
C2105 N566 1.487 . S
C2110 C952 1.312 . S
C2115 C985 1.312 1_554 S
C2120 N599 1.488 . S
C2125 C1018 1.311 . S
C2130 N632 1.487 . S
C2135 C1051 1.310 . S
C2140 N1457 1.487 . S
C2145 N797 1.487 . S
C2150 C1084 1.315 . S
C2155 C1117 1.312 . S
C2160 N830 1.487 . S
C2165 N863 1.487 . S
C2170 C1150 1.310 . S
C2175 N896 1.487 . S
C2180 C1183 1.315 . S
C2185 N929 1.487 . S
C2190 C1216 1.311 . S
C2195 N962 1.487 . S
C2200 C1249 1.311 . S
C2205 C1282 1.310 . S
C2210 N995 1.487 . S
C2215 C1315 1.313 . S
C2220 N1028 1.487 . S
C2225 N1061 1.487 . S
C2230 C1348 1.315 . S
C2235 C1381 1.313 . S
C2240 N401 1.487 . S
C2245 C1414 1.314 . S
C2250 N434 1.487 . S
C2255 C1447 1.312 . S
C2260 N467 1.488 . S
C2265 N1292 1.487 . S
C2270 C1480 1.315 . S
C2275 N1127 1.488 . S
C2280 C1513 1.310 . S
C2285 N368 1.487 . S
C2290 C1546 1.310 . S
C2295 C1579 1.310 1_455 S
C2300 N302 1.487 . S
C2305 C314 1.449 . S
C2310 C17 1.451 . S
C2315 C347 1.448 . S
C2320 C50 1.452 . S
C2325 C83 1.452 . S
C2330 C380 1.448 . S
C2335 C116 1.451 . S
C2340 C281 1.449 . S
C2345 C149 1.451 . S
C2350 C512 1.449 . S
C2355 C413 1.451 . S
C2360 C182 1.448 . S
C2365 C446 1.451 . S
C2370 C215 1.448 . S
C2375 C248 1.448 . S
C2380 C479 1.452 . S
C2385 C545 1.448 . S
C2390 C611 1.452 . S
C2395 C1535 1.448 . S
C2400 C578 1.452 . S
C2405 C1568 1.452 . S
C2410 C644 1.448 . S
C2415 C1502 1.448 . S
C2420 C677 1.452 . S
C2425 C710 1.452 . S
C2430 C1469 1.448 . S
C2435 C1370 1.452 . S
C2440 C743 1.448 . S
C2445 C1436 1.452 . S
C2450 C776 1.448 . S
C2455 C1106 1.448 . S
C2460 C809 1.452 . S
C2465 C1139 1.452 . S
C2470 C842 1.448 . S
C2475 C875 1.448 . S
C2480 C1172 1.452 . S
C2485 C1073 1.448 . S
C2490 C908 1.452 . S
C2495 C1304 1.448 . S
C2500 C941 1.452 . S
C2505 C974 1.448 . S
C2510 C1205 1.452 . S
C2515 C1238 1.451 . S
C2520 C1007 1.448 . S
C2525 C1040 1.452 . S
C2530 C1271 1.448 . S
C2535 C1337 1.451 . S
C2540 C1403 1.448 . S
C2545 N872 1.541 . S
C2550 N14 1.541 . S
C2555 N47 1.541 . S
C2560 N905 1.541 . S
C2565 N806 1.541 . S
C2570 N80 1.541 . S
C2575 N839 1.538 . S
C2580 N113 1.538 . S
C2585 N1004 1.538 . S
C2590 N146 1.538 . S
C2595 N1037 1.541 . S
C2600 N179 1.541 . S
C2605 N938 1.538 . S
C2610 N212 1.538 . S
C2615 N245 1.538 . S
C2620 N971 1.538 . S
C2625 N278 1.538 . S
C2630 N410 1.538 . S
C2635 N311 1.541 . S
C2640 N443 1.541 . S
C2645 N344 1.541 . S
C2650 N476 1.541 . S
C2655 N377 1.541 . S
C2660 N509 1.541 . S
C2665 N1433 1.538 . S
C2670 N542 1.538 . S
C2675 N1499 1.541 . S
C2680 N575 1.541 . S
C2685 N608 1.541 . S
C2690 N740 1.541 . S
C2695 N1334 1.541 . S
C2700 N641 1.541 . S
C2705 N674 1.538 . S
C2710 N1565 1.538 . S
C2715 N707 1.538 . S
C2720 N1367 1.538 . S
C2725 N773 1.541 . S
C2730 N1466 1.541 . S
C2735 N1070 1.541 . S
C2740 N1202 1.541 . S
C2745 N1235 1.538 . S
C2750 N1103 1.538 . S
C2755 N1268 1.538 . S
C2760 N1136 1.538 . S
C2765 N1169 1.541 . S
C2770 N1301 1.541 . S
C2775 N1400 1.541 . S
C2780 N1532 1.541 . S
