# Generated by pormake.
# Topology uov, (4)-cn, num edge types: 1
# Building blocks:
#     Node 0, Type 0, BuildingBlock: CEKHIL_clean_sbu_0, # of connection points: 4
#     Node 1, Type 0, BuildingBlock: CEKHIL_clean_sbu_0, # of connection points: 4
#     Node 2, Type 0, BuildingBlock: CEKHIL_clean_sbu_0, # of connection points: 4
#     Node 3, Type 0, BuildingBlock: CEKHIL_clean_sbu_0, # of connection points: 4
#     Node 4, Type 0, BuildingBlock: CEKHIL_clean_sbu_0, # of connection points: 4
#     Node 5, Type 0, BuildingBlock: CEKHIL_clean_sbu_0, # of connection points: 4
#     Node 6, Type 0, BuildingBlock: CEKHIL_clean_sbu_0, # of connection points: 4
#     Node 7, Type 0, BuildingBlock: CEKHIL_clean_sbu_0, # of connection points: 4
#     Edge 8, Type (0, 0), BuildingBlock: OJICUG_clean_linker_0, # of connection points: 2
#     Edge 9, Type (0, 0), BuildingBlock: OJICUG_clean_linker_0, # of connection points: 2
#     Edge 10, Type (0, 0), BuildingBlock: OJICUG_clean_linker_0, # of connection points: 2
#     Edge 11, Type (0, 0), BuildingBlock: OJICUG_clean_linker_0, # of connection points: 2
#     Edge 12, Type (0, 0), BuildingBlock: OJICUG_clean_linker_0, # of connection points: 2
#     Edge 13, Type (0, 0), BuildingBlock: OJICUG_clean_linker_0, # of connection points: 2
#     Edge 14, Type (0, 0), BuildingBlock: OJICUG_clean_linker_0, # of connection points: 2
#     Edge 15, Type (0, 0), BuildingBlock: OJICUG_clean_linker_0, # of connection points: 2
#     Edge 16, Type (0, 0), BuildingBlock: OJICUG_clean_linker_0, # of connection points: 2
#     Edge 17, Type (0, 0), BuildingBlock: OJICUG_clean_linker_0, # of connection points: 2
#     Edge 18, Type (0, 0), BuildingBlock: OJICUG_clean_linker_0, # of connection points: 2
#     Edge 19, Type (0, 0), BuildingBlock: OJICUG_clean_linker_0, # of connection points: 2
#     Edge 20, Type (0, 0), BuildingBlock: OJICUG_clean_linker_0, # of connection points: 2
#     Edge 21, Type (0, 0), BuildingBlock: OJICUG_clean_linker_0, # of connection points: 2
#     Edge 22, Type (0, 0), BuildingBlock: OJICUG_clean_linker_0, # of connection points: 2
#     Edge 23, Type (0, 0), BuildingBlock: OJICUG_clean_linker_0, # of connection points: 2
# Relax obj value: 0.153
# Max RMSD: 0.152
# Mean RMSD: 0.152
data_MOF--net-uov--node1-CEKHIL_clean_sbu_0--edge1-OJICUG_clean_linker_0
_symmetry_space_group_name_H-M    P1
_symmetry_Int_Tables_number       1
_symmetry_cell_setting            triclinic
loop_
_symmetry_equiv_pos_as_xyz
'x, y, z'
_cell_length_a     21.852406
_cell_length_b     21.837372
_cell_length_c     30.454513
_cell_angle_alpha  89.969777
_cell_angle_beta   89.988883
_cell_angle_gamma 89.984037
loop_
_atom_site_label
_atom_site_type_symbol
_atom_site_fract_x
_atom_site_fract_y
_atom_site_fract_z
_atom_type_partial_charge
Co0 Co 0.02514 0.27075 0.60469 0.0
O1 O 0.98659 0.33187 0.64148 0.0
O2 O 0.06532 0.3482 0.59703 0.0
C3 C 0.93787 0.23175 0.57609 0.0
O4 O 0.07576 0.22236 0.56028 0.0
Co5 Co 0.0035 0.13066 0.61389 0.0
O6 O 0.03523 0.1284 0.55308 0.0
C7 C 0.09392 0.19347 0.67115 0.0
C8 C 0.02469 0.37033 0.62379 0.0
C9 C 0.07031 0.17107 0.53993 0.0
O10 O 0.0828 0.24601 0.65361 0.0
O11 O 0.06618 0.14397 0.66073 0.0
O12 O 0.96118 0.28205 0.56074 0.0
O13 O 0.96457 0.20994 0.61058 0.0
Co14 Co 0.27006 0.97318 0.38767 0.0
O15 O 0.33106 0.01234 0.35112 0.0
O16 O 0.34787 0.93393 0.39585 0.0
C17 C 0.2296 0.06013 0.41581 0.0
O18 O 0.22175 0.9221 0.43191 0.0
Co19 Co 0.12991 0.99307 0.37741 0.0
O20 O 0.12709 0.96127 0.43817 0.0
C21 C 0.1948 0.90366 0.32051 0.0
C22 C 0.36974 0.97465 0.36902 0.0
C23 C 0.17003 0.92689 0.45179 0.0
O24 O 0.24678 0.91507 0.3387 0.0
O25 O 0.14487 0.93099 0.33041 0.0
O26 O 0.27997 0.03748 0.43153 0.0
O27 O 0.20859 0.033 0.38127 0.0
Co28 Co 0.97216 0.7282 0.60502 0.0
O29 O 0.01153 0.66716 0.64144 0.0
O30 O 0.93275 0.65037 0.59715 0.0
C31 C 0.0589 0.76835 0.57637 0.0
O32 O 0.92082 0.77666 0.56099 0.0
Co33 Co 0.99257 0.86839 0.61516 0.0
O34 O 0.96007 0.87134 0.55461 0.0
C35 C 0.90361 0.80375 0.67257 0.0
C36 C 0.97367 0.62848 0.6238 0.0
C37 C 0.9255 0.82848 0.54115 0.0
O38 O 0.9146 0.75172 0.65427 0.0
O39 O 0.93105 0.8536 0.66257 0.0
O40 O 0.03598 0.71802 0.56083 0.0
O41 O 0.03217 0.78953 0.61105 0.0
Co42 Co 0.72738 0.02668 0.38735 0.0
O43 O 0.66624 0.98717 0.35115 0.0
O44 O 0.64979 0.06658 0.39498 0.0
C45 C 0.76718 0.94003 0.41652 0.0
O46 O 0.77578 0.07831 0.43113 0.0
Co47 Co 0.86744 0.00569 0.37752 0.0
O48 O 0.87018 0.03868 0.43796 0.0
C49 C 0.8033 0.09409 0.31935 0.0
C50 C 0.62773 0.02542 0.36861 0.0
C51 C 0.82737 0.07354 0.45115 0.0
O52 O 0.75124 0.08366 0.33776 0.0
O53 O 0.85298 0.06651 0.32955 0.0
O54 O 0.71692 0.96331 0.43192 0.0
O55 O 0.78849 0.96635 0.38172 0.0
Co56 Co 0.97341 0.27117 0.10471 0.0
O57 O 0.01203 0.33217 0.14154 0.0
O58 O 0.9333 0.3487 0.09714 0.0
C59 C 0.06065 0.23208 0.07605 0.0
O60 O 0.92272 0.22293 0.06027 0.0
Co61 Co 0.99493 0.13102 0.11373 0.0
O62 O 0.96327 0.12898 0.05291 0.0
C63 C 0.9046 0.19382 0.17113 0.0
C64 C 0.97396 0.37072 0.1239 0.0
C65 C 0.92819 0.17171 0.03983 0.0
O66 O 0.91574 0.24639 0.15364 0.0
O67 O 0.9323 0.14431 0.16061 0.0
O68 O 0.03737 0.28244 0.06074 0.0
O69 O 0.03392 0.21025 0.11052 0.0
Co70 Co 0.27159 0.02697 0.88741 0.0
O71 O 0.33281 0.98751 0.85122 0.0
O72 O 0.34913 0.06691 0.89506 0.0
C73 C 0.23185 0.94028 0.91654 0.0
O74 O 0.22306 0.07857 0.93117 0.0
Co75 Co 0.13155 0.00586 0.87756 0.0
O76 O 0.12869 0.03889 0.93798 0.0
C77 C 0.19566 0.09423 0.81936 0.0
C78 C 0.37126 0.02578 0.86869 0.0
C79 C 0.17144 0.07379 0.95118 0.0
O80 O 0.2477 0.08393 0.83782 0.0
O81 O 0.14602 0.06659 0.82954 0.0
O82 O 0.28206 0.96359 0.93197 0.0
O83 O 0.21056 0.96662 0.88173 0.0
Co84 Co 0.02664 0.72857 0.10494 0.0
O85 O 0.98737 0.66755 0.14144 0.0
O86 O 0.06599 0.6507 0.09699 0.0
C87 C 0.93982 0.76884 0.07648 0.0
O88 O 0.07789 0.77694 0.06081 0.0
Co89 Co 0.00639 0.8688 0.11501 0.0
O90 O 0.03874 0.87167 0.05441 0.0
C91 C 0.09569 0.80414 0.17216 0.0
C92 C 0.02515 0.62883 0.12371 0.0
C93 C 0.07325 0.82874 0.04095 0.0
O94 O 0.08442 0.75205 0.15405 0.0
O95 O 0.06833 0.85403 0.16213 0.0
O96 O 0.96265 0.71847 0.06089 0.0
O97 O 0.96671 0.78999 0.11109 0.0
Co98 Co 0.72893 0.97366 0.88766 0.0
O99 O 0.66798 0.01266 0.85097 0.0
O100 O 0.65114 0.93437 0.8958 0.0
C101 C 0.76914 0.06077 0.9157 0.0
O102 O 0.77714 0.92275 0.93206 0.0
Co103 Co 0.86908 0.99366 0.87769 0.0
O104 O 0.87167 0.96211 0.93853 0.0
C105 C 0.80463 0.90384 0.82089 0.0
C106 C 0.6293 0.97501 0.86889 0.0
C107 C 0.82874 0.92766 0.95207 0.0
O108 O 0.7525 0.91541 0.83883 0.0
O109 O 0.85448 0.93119 0.83091 0.0
O110 O 0.71877 0.03811 0.9314 0.0
O111 O 0.79033 0.03353 0.88125 0.0
C112 C 0.99333 0.53075 0.58606 0.0
C113 C 0.98519 0.56226 0.6257 0.0
H114 H 0.01459 0.44565 0.55495 0.0
C115 C 0.99174 0.53072 0.66565 0.0
H116 H 0.98925 0.55443 0.55491 0.0
C117 C 0.00447 0.46763 0.66565 0.0
C118 C 0.01373 0.43667 0.62576 0.0
H119 H 0.98606 0.55455 0.69656 0.0
H120 H 0.00788 0.44332 0.69656 0.0
C121 C 0.00848 0.46884 0.58611 0.0
C122 C 0.5296 0.00848 0.40649 0.0
C123 C 0.56148 0.01429 0.36678 0.0
H124 H 0.44424 0.98898 0.43782 0.0
C125 C 0.53028 0.00569 0.32692 0.0
H126 H 0.55299 0.01412 0.43761 0.0
C127 C 0.46722 0.99309 0.32703 0.0
C128 C 0.43594 0.98602 0.36702 0.0
H129 H 0.55437 0.00956 0.29596 0.0
H130 H 0.4432 0.98794 0.29614 0.0
C131 C 0.4677 0.99345 0.40662 0.0
C132 C 0.99327 0.46825 0.1657 0.0
C133 C 0.98511 0.43702 0.12581 0.0
H134 H 0.01081 0.55538 0.19655 0.0
C135 C 0.99154 0.46888 0.08612 0.0
H136 H 0.98894 0.44417 0.19665 0.0
C137 C 0.00673 0.53078 0.08605 0.0
C138 C 0.01371 0.56259 0.12568 0.0
H139 H 0.98626 0.44547 0.05497 0.0
H140 H 0.01166 0.55422 0.05487 0.0
C141 C 0.00603 0.53133 0.16564 0.0
C142 C 0.46858 0.00549 0.82693 0.0
C143 C 0.43755 0.01477 0.86679 0.0
H144 H 0.55553 0.98718 0.79607 0.0
C145 C 0.46963 0.00967 0.90646 0.0
H146 H 0.44434 0.00881 0.796 0.0
C147 C 0.53153 0.99463 0.90656 0.0
C148 C 0.56311 0.98649 0.86694 0.0
H149 H 0.44638 0.01583 0.93759 0.0
H150 H 0.55514 0.99068 0.93773 0.0
C151 C 0.53166 0.99288 0.82697 0.0
C152 C 0.12794 0.10633 0.43367 0.0
C153 C 0.19086 0.10108 0.44262 0.0
H154 H 0.03972 0.1319 0.45856 0.0
C155 C 0.21458 0.12888 0.48059 0.0
H156 H 0.1083 0.08654 0.40434 0.0
C157 C 0.17541 0.15708 0.51074 0.0
C158 C 0.11199 0.15656 0.5037 0.0
H159 H 0.26296 0.12608 0.48812 0.0
H160 H 0.19416 0.17502 0.54105 0.0
C161 C 0.08863 0.13261 0.46448 0.0
C162 C 0.13187 0.90891 0.52734 0.0
C163 C 0.15558 0.88531 0.4881 0.0
H164 H 0.08585 0.88964 0.58758 0.0
C165 C 0.15566 0.82185 0.48112 0.0
H166 H 0.13143 0.95787 0.53318 0.0
C167 C 0.12736 0.78287 0.51137 0.0
C168 C 0.09985 0.80686 0.54938 0.0
H169 H 0.17337 0.80294 0.45077 0.0
H170 H 0.12427 0.73448 0.5039 0.0
C171 C 0.10547 0.8698 0.55824 0.0
C172 C 0.8683 0.89282 0.43465 0.0
C173 C 0.8055 0.89911 0.4437 0.0
H174 H 0.95622 0.86614 0.45947 0.0
C175 C 0.78154 0.87221 0.48197 0.0
H176 H 0.88811 0.91199 0.40513 0.0
C177 C 0.82044 0.84377 0.51221 0.0
C178 C 0.8838 0.84308 0.50495 0.0
H179 H 0.73327 0.87585 0.48961 0.0
H180 H 0.80159 0.82653 0.54272 0.0
C181 C 0.90733 0.86625 0.46552 0.0
C182 C 0.86398 0.09182 0.52701 0.0
C183 C 0.84169 0.11533 0.48732 0.0
H184 H 0.90868 0.11108 0.58775 0.0
C185 C 0.8427 0.17871 0.47994 0.0
H186 H 0.86352 0.04293 0.53318 0.0
C187 C 0.87072 0.21761 0.51035 0.0
C188 C 0.8969 0.19364 0.54886 0.0
H189 H 0.82605 0.19753 0.44926 0.0
H190 H 0.87472 0.26587 0.50261 0.0
C191 C 0.89013 0.13088 0.55803 0.0
C192 C 0.78398 0.1295 0.98051 0.0
C193 C 0.80776 0.10181 0.9425 0.0
H194 H 0.80432 0.17554 0.04101 0.0
C195 C 0.87066 0.10724 0.93351 0.0
H196 H 0.73562 0.12659 0.98807 0.0
C197 C 0.90991 0.13353 0.96433 0.0
C198 C 0.88651 0.15733 0.00359 0.0
H199 H 0.89034 0.08754 0.90415 0.0
H200 H 0.95882 0.13292 0.95838 0.0
C201 C 0.8231 0.15772 0.01066 0.0
C202 C 0.15594 0.17898 0.97991 0.0
C203 C 0.15702 0.11561 0.98733 0.0
H204 H 0.1238 0.26615 0.00253 0.0
C205 C 0.13468 0.09213 0.02701 0.0
H206 H 0.17261 0.19778 0.94922 0.0
C207 C 0.10845 0.13121 0.058 0.0
C208 C 0.10164 0.19396 0.04881 0.0
H209 H 0.13519 0.04325 0.0332 0.0
H210 H 0.08988 0.11142 0.08772 0.0
C211 C 0.12783 0.21791 0.01029 0.0
C212 C 0.09165 0.86634 0.96531 0.0
C213 C 0.11506 0.84329 0.00481 0.0
H214 H 0.11105 0.91198 0.90492 0.0
C215 C 0.17839 0.8441 0.0122 0.0
H216 H 0.0428 0.86614 0.95916 0.0
C217 C 0.21736 0.87255 0.98201 0.0
C218 C 0.19351 0.89933 0.94367 0.0
H219 H 0.19714 0.82696 0.04277 0.0
H220 H 0.26559 0.87629 0.98975 0.0
C221 C 0.13077 0.89291 0.93449 0.0
C222 C 0.86692 0.90956 0.02759 0.0
C223 C 0.84315 0.88604 0.98837 0.0
H224 H 0.91298 0.89015 0.08779 0.0
C225 C 0.84297 0.82258 0.98136 0.0
H226 H 0.86743 0.95851 0.03346 0.0
C227 C 0.87126 0.78352 0.01157 0.0
C228 C 0.89886 0.80743 0.04956 0.0
H229 H 0.82521 0.80372 0.95102 0.0
H230 H 0.87429 0.73513 0.00407 0.0
C231 C 0.89331 0.87037 0.05846 0.0
C232 C 0.18505 0.14399 0.70347 0.0
C233 C 0.13841 0.18805 0.707 0.0
H234 H 0.2427 0.08066 0.7379 0.0
C235 C 0.12389 0.21222 0.74829 0.0
H236 H 0.19629 0.12431 0.67181 0.0
C237 C 0.14971 0.18653 0.78606 0.0
C238 C 0.19106 0.13745 0.78267 0.0
H239 H 0.08737 0.24546 0.75173 0.0
H240 H 0.13257 0.20057 0.8179 0.0
C241 C 0.21173 0.11916 0.74118 0.0
C242 C 0.12318 0.78556 0.24966 0.0
C243 C 0.13966 0.80847 0.20837 0.0
H244 H 0.1296 0.79864 0.31923 0.0
C245 C 0.18751 0.85124 0.20513 0.0
H246 H 0.08571 0.75336 0.25284 0.0
C247 C 0.2134 0.87634 0.24302 0.0
C248 C 0.19068 0.85964 0.28432 0.0
H249 H 0.20023 0.86998 0.17346 0.0
H250 H 0.24536 0.91402 0.23984 0.0
C251 C 0.14821 0.81153 0.28755 0.0
C252 C 0.87703 0.78581 0.75028 0.0
C253 C 0.85989 0.80804 0.70894 0.0
H254 H 0.87112 0.79961 0.8198 0.0
C255 C 0.81157 0.85029 0.7057 0.0
H256 H 0.91488 0.75404 0.75345 0.0
C257 C 0.78576 0.87556 0.74357 0.0
C258 C 0.80905 0.85959 0.78485 0.0
H259 H 0.79836 0.86852 0.67398 0.0
H260 H 0.75334 0.91286 0.74033 0.0
C261 C 0.85208 0.81196 0.78814 0.0
C262 C 0.84924 0.18644 0.28612 0.0
C263 C 0.80786 0.1374 0.28271 0.0
H264 H 0.91143 0.24549 0.25179 0.0
C265 C 0.78701 0.11933 0.24123 0.0
H266 H 0.86649 0.20032 0.31795 0.0
C267 C 0.81352 0.14434 0.20351 0.0
C268 C 0.86019 0.18835 0.20703 0.0
H269 H 0.756 0.08088 0.23794 0.0
H270 H 0.80215 0.12481 0.17183 0.0
C271 C 0.87488 0.21231 0.24835 0.0
loop_
_geom_bond_atom_site_label_1
_geom_bond_atom_site_label_2
_geom_bond_distance
_geom_bond_site_symmetry_2
_ccdc_geom_bond_type
Co0 O1 2.216 . S
Co0 O2 2.091 . S
Co0 O4 2.004 . S
Co0 O10 2.021 . S
Co0 O12 2.137 . S
Co0 O13 2.244 . S
O1 Co0 2.216 . S
O1 C8 1.247 . S
O2 Co0 2.091 . S
O2 C8 1.261 . S
C3 O12 1.247 . S
C3 O13 1.271 . S
O4 Co0 2.004 . S
O4 C9 1.259 . S
Co5 O6 2.061 . S
Co5 O11 2.052 . S
Co5 O13 2.135 . S
O6 Co5 2.061 . S
O6 C9 1.235 . S
C7 O10 1.238 . S
C7 O11 1.241 . S
C8 O1 1.247 . S
C8 O2 1.261 . S
C9 O4 1.259 . S
C9 O6 1.235 . S
O10 Co0 2.021 . S
O10 C7 1.238 . S
O11 Co5 2.052 . S
O11 C7 1.241 . S
O12 Co0 2.137 . S
O12 C3 1.247 . S
O13 Co0 2.244 . S
O13 C3 1.271 . S
O13 Co5 2.135 . S
Co14 O15 2.216 . S
Co14 O16 2.091 . S
Co14 O18 2.004 . S
Co14 O24 2.021 . S
Co14 O26 2.137 . S
Co14 O27 2.244 . S
O15 Co14 2.216 . S
O15 C22 1.247 . S
O16 Co14 2.091 . S
O16 C22 1.261 . S
C17 O26 1.247 . S
C17 O27 1.271 . S
O18 Co14 2.004 . S
O18 C23 1.259 . S
Co19 O20 2.061 . S
Co19 O25 2.052 . S
Co19 O27 2.135 . S
O20 Co19 2.061 . S
O20 C23 1.235 . S
C21 O24 1.238 . S
C21 O25 1.241 . S
C22 O15 1.247 . S
C22 O16 1.261 . S
C23 O18 1.259 . S
C23 O20 1.235 . S
O24 Co14 2.021 . S
O24 C21 1.238 . S
O25 Co19 2.052 . S
O25 C21 1.241 . S
O26 Co14 2.137 . S
O26 C17 1.247 . S
O27 Co14 2.244 . S
O27 C17 1.271 . S
O27 Co19 2.135 . S
Co28 O29 2.216 . S
Co28 O30 2.091 . S
Co28 O32 2.004 . S
Co28 O38 2.021 . S
Co28 O40 2.137 . S
Co28 O41 2.244 . S
O29 Co28 2.216 . S
O29 C36 1.247 . S
O30 Co28 2.091 . S
O30 C36 1.261 . S
C31 O40 1.247 . S
C31 O41 1.271 . S
O32 Co28 2.004 . S
O32 C37 1.259 . S
Co33 O34 2.061 . S
Co33 O39 2.052 . S
Co33 O41 2.135 . S
O34 Co33 2.061 . S
O34 C37 1.235 . S
C35 O38 1.238 . S
C35 O39 1.241 . S
C36 O29 1.247 . S
C36 O30 1.261 . S
C37 O32 1.259 . S
C37 O34 1.235 . S
O38 Co28 2.021 . S
O38 C35 1.238 . S
O39 Co33 2.052 . S
O39 C35 1.241 . S
O40 Co28 2.137 . S
O40 C31 1.247 . S
O41 Co28 2.244 . S
O41 C31 1.271 . S
O41 Co33 2.135 . S
Co42 O43 2.216 . S
Co42 O44 2.091 . S
Co42 O46 2.004 . S
Co42 O52 2.021 . S
Co42 O54 2.137 . S
Co42 O55 2.244 . S
O43 Co42 2.216 . S
O43 C50 1.247 . S
O44 Co42 2.091 . S
O44 C50 1.261 . S
C45 O54 1.247 . S
C45 O55 1.271 . S
O46 Co42 2.004 . S
O46 C51 1.259 . S
Co47 O48 2.061 . S
Co47 O53 2.052 . S
Co47 O55 2.135 . S
O48 Co47 2.061 . S
O48 C51 1.235 . S
C49 O52 1.238 . S
C49 O53 1.241 . S
C50 O43 1.247 . S
C50 O44 1.261 . S
C51 O46 1.259 . S
C51 O48 1.235 . S
O52 Co42 2.021 . S
O52 C49 1.238 . S
O53 Co47 2.052 . S
O53 C49 1.241 . S
O54 Co42 2.137 . S
O54 C45 1.247 . S
O55 Co42 2.244 . S
O55 C45 1.271 . S
O55 Co47 2.135 . S
Co56 O57 2.216 . S
Co56 O58 2.091 . S
Co56 O60 2.004 . S
Co56 O66 2.021 . S
Co56 O68 2.137 . S
Co56 O69 2.244 . S
O57 Co56 2.216 . S
O57 C64 1.247 . S
O58 Co56 2.091 . S
O58 C64 1.261 . S
C59 O68 1.247 . S
C59 O69 1.271 . S
O60 Co56 2.004 . S
O60 C65 1.259 . S
Co61 O62 2.061 . S
Co61 O67 2.052 . S
Co61 O69 2.135 . S
O62 Co61 2.061 . S
O62 C65 1.235 . S
C63 O66 1.238 . S
C63 O67 1.241 . S
C64 O57 1.247 . S
C64 O58 1.261 . S
C65 O60 1.259 . S
C65 O62 1.235 . S
O66 Co56 2.021 . S
O66 C63 1.238 . S
O67 Co61 2.052 . S
O67 C63 1.241 . S
O68 Co56 2.137 . S
O68 C59 1.247 . S
O69 Co56 2.244 . S
O69 C59 1.271 . S
O69 Co61 2.135 . S
Co70 O71 2.216 . S
Co70 O72 2.091 . S
Co70 O74 2.004 . S
Co70 O80 2.021 . S
Co70 O82 2.137 . S
Co70 O83 2.244 . S
O71 Co70 2.216 . S
O71 C78 1.247 . S
O72 Co70 2.091 . S
O72 C78 1.261 . S
C73 O82 1.247 . S
C73 O83 1.271 . S
O74 Co70 2.004 . S
O74 C79 1.259 . S
Co75 O76 2.061 . S
Co75 O81 2.052 . S
Co75 O83 2.135 . S
O76 Co75 2.061 . S
O76 C79 1.235 . S
C77 O80 1.238 . S
C77 O81 1.241 . S
C78 O71 1.247 . S
C78 O72 1.261 . S
C79 O74 1.259 . S
C79 O76 1.235 . S
O80 Co70 2.021 . S
O80 C77 1.238 . S
O81 Co75 2.052 . S
O81 C77 1.241 . S
O82 Co70 2.137 . S
O82 C73 1.247 . S
O83 Co70 2.244 . S
O83 C73 1.271 . S
O83 Co75 2.135 . S
Co84 O85 2.216 . S
Co84 O86 2.091 . S
Co84 O88 2.004 . S
Co84 O94 2.021 . S
Co84 O96 2.137 . S
Co84 O97 2.244 . S
O85 Co84 2.216 . S
O85 C92 1.247 . S
O86 Co84 2.091 . S
O86 C92 1.261 . S
C87 O96 1.247 . S
C87 O97 1.271 . S
O88 Co84 2.004 . S
O88 C93 1.259 . S
Co89 O90 2.061 . S
Co89 O95 2.052 . S
Co89 O97 2.135 . S
O90 Co89 2.061 . S
O90 C93 1.235 . S
C91 O94 1.238 . S
C91 O95 1.241 . S
C92 O85 1.247 . S
C92 O86 1.261 . S
C93 O88 1.259 . S
C93 O90 1.235 . S
O94 Co84 2.021 . S
O94 C91 1.238 . S
O95 Co89 2.052 . S
O95 C91 1.241 . S
O96 Co84 2.137 . S
O96 C87 1.247 . S
O97 Co84 2.244 . S
O97 C87 1.271 . S
O97 Co89 2.135 . S
Co98 O99 2.216 . S
Co98 O100 2.091 . S
Co98 O102 2.004 . S
Co98 O108 2.021 . S
Co98 O110 2.137 . S
Co98 O111 2.244 . S
O99 Co98 2.216 . S
O99 C106 1.247 . S
O100 Co98 2.091 . S
O100 C106 1.261 . S
C101 O110 1.247 . S
C101 O111 1.271 . S
O102 Co98 2.004 . S
O102 C107 1.259 . S
Co103 O104 2.061 . S
Co103 O109 2.052 . S
Co103 O111 2.135 . S
O104 Co103 2.061 . S
O104 C107 1.235 . S
C105 O108 1.238 . S
C105 O109 1.241 . S
C106 O99 1.247 . S
C106 O100 1.261 . S
C107 O102 1.259 . S
C107 O104 1.235 . S
O108 Co98 2.021 . S
O108 C105 1.238 . S
O109 Co103 2.052 . S
O109 C105 1.241 . S
O110 Co98 2.137 . S
O110 C101 1.247 . S
O111 Co98 2.244 . S
O111 C101 1.271 . S
O111 Co103 2.135 . S
C112 C113 1.387 . S
C112 H116 0.950 . S
C112 C121 1.390 1_655 S
C113 C112 1.387 . S
C113 C115 1.387 . S
H114 C121 0.950 . S
C115 C113 1.387 . S
C115 C117 1.390 1_655 S
C115 H119 0.950 . S
H116 C112 0.950 . S
C117 C115 1.390 1_455 S
C117 C118 1.387 . S
C117 H120 0.950 . S
C118 C117 1.387 . S
C118 C121 1.387 . S
H119 C115 0.950 . S
H120 C117 0.950 . S
C121 C112 1.390 1_455 S
C121 H114 0.950 . S
C121 C118 1.387 . S
C122 C123 1.387 . S
C122 H126 0.950 . S
C122 C131 1.390 1_545 S
C123 C122 1.387 . S
C123 C125 1.387 . S
H124 C131 0.950 . S
C125 C123 1.387 . S
C125 C127 1.390 1_545 S
C125 H129 0.950 . S
H126 C122 0.950 . S
C127 C125 1.390 1_565 S
C127 C128 1.387 . S
C127 H130 0.950 . S
C128 C127 1.387 . S
C128 C131 1.387 . S
H129 C125 0.950 . S
H130 C127 0.950 . S
C131 C122 1.390 1_565 S
C131 H124 0.950 . S
C131 C128 1.387 . S
C132 C133 1.387 . S
C132 H136 0.950 . S
C132 C141 1.390 1_655 S
C133 C132 1.387 . S
C133 C135 1.387 . S
H134 C141 0.950 . S
C135 C133 1.387 . S
C135 C137 1.390 1_655 S
C135 H139 0.950 . S
H136 C132 0.950 . S
C137 C135 1.390 1_455 S
C137 C138 1.387 . S
C137 H140 0.950 . S
C138 C137 1.387 . S
C138 C141 1.387 . S
H139 C135 0.950 . S
H140 C137 0.950 . S
C141 C132 1.390 1_455 S
C141 H134 0.950 . S
C141 C138 1.387 . S
C142 C143 1.387 . S
C142 H146 0.950 . S
C142 C151 1.390 1_545 S
C143 C142 1.387 . S
C143 C145 1.387 . S
H144 C151 0.950 . S
C145 C143 1.387 . S
C145 C147 1.390 1_545 S
C145 H149 0.950 . S
H146 C142 0.950 . S
C147 C145 1.390 1_565 S
C147 C148 1.387 . S
C147 H150 0.950 . S
C148 C147 1.387 . S
C148 C151 1.387 . S
H149 C145 0.950 . S
H150 C147 0.950 . S
C151 C142 1.390 1_565 S
C151 H144 0.950 . S
C151 C148 1.387 . S
C152 C153 1.387 . S
C152 H156 0.950 . S
C152 C161 1.390 . S
C153 C152 1.387 . S
C153 C155 1.387 . S
H154 C161 0.950 . S
C155 C153 1.387 . S
C155 C157 1.390 . S
C155 H159 0.950 . S
H156 C152 0.950 . S
C157 C155 1.390 . S
C157 C158 1.387 . S
C157 H160 0.950 . S
C158 C157 1.387 . S
C158 C161 1.387 . S
H159 C155 0.950 . S
H160 C157 0.950 . S
C161 C152 1.390 . S
C161 H154 0.950 . S
C161 C158 1.387 . S
C162 C163 1.387 . S
C162 H166 0.950 . S
C162 C171 1.390 . S
C163 C162 1.387 . S
C163 C165 1.387 . S
H164 C171 0.950 . S
C165 C163 1.387 . S
C165 C167 1.390 . S
C165 H169 0.950 . S
H166 C162 0.950 . S
C167 C165 1.390 . S
C167 C168 1.387 . S
C167 H170 0.950 . S
C168 C167 1.387 . S
C168 C171 1.387 . S
H169 C165 0.950 . S
H170 C167 0.950 . S
C171 C162 1.390 . S
C171 H164 0.950 . S
C171 C168 1.387 . S
C172 C173 1.387 . S
C172 H176 0.950 . S
C172 C181 1.390 . S
C173 C172 1.387 . S
C173 C175 1.387 . S
H174 C181 0.950 . S
C175 C173 1.387 . S
C175 C177 1.390 . S
C175 H179 0.950 . S
H176 C172 0.950 . S
C177 C175 1.390 . S
C177 C178 1.387 . S
C177 H180 0.950 . S
C178 C177 1.387 . S
C178 C181 1.387 . S
H179 C175 0.950 . S
H180 C177 0.950 . S
C181 C172 1.390 . S
C181 H174 0.950 . S
C181 C178 1.387 . S
C182 C183 1.387 . S
C182 H186 0.950 . S
C182 C191 1.390 . S
C183 C182 1.387 . S
C183 C185 1.387 . S
H184 C191 0.950 . S
C185 C183 1.387 . S
C185 C187 1.390 . S
C185 H189 0.950 . S
H186 C182 0.950 . S
C187 C185 1.390 . S
C187 C188 1.387 . S
C187 H190 0.950 . S
C188 C187 1.387 . S
C188 C191 1.387 . S
H189 C185 0.950 . S
H190 C187 0.950 . S
C191 C182 1.390 . S
C191 H184 0.950 . S
C191 C188 1.387 . S
C192 C193 1.387 . S
C192 H196 0.950 . S
C192 C201 1.390 . S
C193 C192 1.387 . S
C193 C195 1.387 . S
H194 C201 0.950 . S
C195 C193 1.387 . S
C195 C197 1.390 1_556 S
C195 H199 0.950 . S
H196 C192 0.950 . S
C197 C195 1.390 1_554 S
C197 C198 1.387 . S
C197 H200 0.950 . S
C198 C197 1.387 . S
C198 C201 1.387 1_554 S
H199 C195 0.950 . S
H200 C197 0.950 . S
C201 C192 1.390 . S
C201 H194 0.950 . S
C201 C198 1.387 1_556 S
C202 C203 1.387 . S
C202 H206 0.950 . S
C202 C211 1.390 1_556 S
C203 C202 1.387 . S
C203 C205 1.387 . S
H204 C211 0.950 . S
C205 C203 1.387 . S
C205 C207 1.390 1_556 S
C205 H209 0.950 . S
H206 C202 0.950 . S
C207 C205 1.390 1_554 S
C207 C208 1.387 . S
C207 H210 0.950 . S
C208 C207 1.387 . S
C208 C211 1.387 . S
H209 C205 0.950 . S
H210 C207 0.950 . S
C211 C202 1.390 1_554 S
C211 H204 0.950 . S
C211 C208 1.387 . S
C212 C213 1.387 1_556 S
C212 H216 0.950 . S
C212 C221 1.390 . S
C213 C212 1.387 1_554 S
C213 C215 1.387 . S
H214 C221 0.950 . S
C215 C213 1.387 . S
C215 C217 1.390 1_554 S
C215 H219 0.950 . S
H216 C212 0.950 . S
C217 C215 1.390 1_556 S
C217 C218 1.387 . S
C217 H220 0.950 . S
C218 C217 1.387 . S
C218 C221 1.387 . S
H219 C215 0.950 . S
H220 C217 0.950 . S
C221 C212 1.390 . S
C221 H214 0.950 . S
C221 C218 1.387 . S
C222 C223 1.387 . S
C222 H226 0.950 . S
C222 C231 1.390 1_556 S
C223 C222 1.387 . S
C223 C225 1.387 . S
H224 C231 0.950 . S
C225 C223 1.387 . S
C225 C227 1.390 1_556 S
C225 H229 0.950 . S
H226 C222 0.950 . S
C227 C225 1.390 1_554 S
C227 C228 1.387 . S
C227 H230 0.950 . S
C228 C227 1.387 . S
C228 C231 1.387 . S
H229 C225 0.950 . S
H230 C227 0.950 . S
C231 C222 1.390 1_554 S
C231 H224 0.950 . S
C231 C228 1.387 . S
C232 C233 1.387 . S
C232 H236 0.950 . S
C232 C241 1.390 . S
C233 C232 1.387 . S
C233 C235 1.387 . S
H234 C241 0.950 . S
C235 C233 1.387 . S
C235 C237 1.390 . S
C235 H239 0.950 . S
H236 C232 0.950 . S
C237 C235 1.390 . S
C237 C238 1.387 . S
C237 H240 0.950 . S
C238 C237 1.387 . S
C238 C241 1.387 . S
H239 C235 0.950 . S
H240 C237 0.950 . S
C241 C232 1.390 . S
C241 H234 0.950 . S
C241 C238 1.387 . S
C242 C243 1.387 . S
C242 H246 0.950 . S
C242 C251 1.390 . S
C243 C242 1.387 . S
C243 C245 1.387 . S
H244 C251 0.950 . S
C245 C243 1.387 . S
C245 C247 1.390 . S
C245 H249 0.950 . S
H246 C242 0.950 . S
C247 C245 1.390 . S
C247 C248 1.387 . S
C247 H250 0.950 . S
C248 C247 1.387 . S
C248 C251 1.387 . S
H249 C245 0.950 . S
H250 C247 0.950 . S
C251 C242 1.390 . S
C251 H244 0.950 . S
C251 C248 1.387 . S
C252 C253 1.387 . S
C252 H256 0.950 . S
C252 C261 1.390 . S
C253 C252 1.387 . S
C253 C255 1.387 . S
H254 C261 0.950 . S
C255 C253 1.387 . S
C255 C257 1.390 . S
C255 H259 0.950 . S
H256 C252 0.950 . S
C257 C255 1.390 . S
C257 C258 1.387 . S
C257 H260 0.950 . S
C258 C257 1.387 . S
C258 C261 1.387 . S
H259 C255 0.950 . S
H260 C257 0.950 . S
C261 C252 1.390 . S
C261 H254 0.950 . S
C261 C258 1.387 . S
C262 C263 1.387 . S
C262 H266 0.950 . S
C262 C271 1.390 . S
C263 C262 1.387 . S
C263 C265 1.387 . S
H264 C271 0.950 . S
C265 C263 1.387 . S
C265 C267 1.390 . S
C265 H269 0.950 . S
H266 C262 0.950 . S
C267 C265 1.390 . S
C267 C268 1.387 . S
C267 H270 0.950 . S
C268 C267 1.387 . S
C268 C271 1.387 . S
H269 C265 0.950 . S
H270 C267 0.950 . S
C271 C262 1.390 . S
C271 H264 0.950 . S
C271 C268 1.387 . S
C113 C36 1.588 . S
C118 C8 1.588 . S
C123 C50 1.585 . S
C128 C22 1.585 . S
C133 C64 1.588 . S
C138 C92 1.588 . S
C143 C78 1.585 . S
C148 C106 1.585 . S
C153 C17 1.273 1_545 S
C158 C9 1.189 . S
C163 C23 1.190 . S
C168 C31 1.271 1_455 S
C173 C45 1.273 1_565 S
C178 C37 1.189 . S
C183 C51 1.191 . S
C188 C3 1.271 1_655 S
C193 C101 1.273 1_545 S
C198 C65 1.189 . S
C203 C79 1.190 . S
C208 C59 1.271 1_455 S
C213 C93 1.191 . S
C218 C73 1.272 1_565 S
C223 C107 1.188 . S
C228 C87 1.273 1_655 S
C233 C7 1.590 . S
C238 C77 1.592 . S
C243 C91 1.590 . S
C248 C21 1.592 . S
C253 C35 1.591 . S
C258 C105 1.589 . S
C263 C49 1.592 . S
C268 C63 1.590 . S
