# Generated by pormake.
# Topology cag, (4)-cn, num edge types: 1
# Building blocks:
#     Node 0, Type 0, BuildingBlock: CEKHIL_clean_sbu_0, # of connection points: 4
#     Node 1, Type 0, BuildingBlock: CEKHIL_clean_sbu_0, # of connection points: 4
#     Node 2, Type 0, BuildingBlock: CEKHIL_clean_sbu_0, # of connection points: 4
#     Node 3, Type 0, BuildingBlock: CEKHIL_clean_sbu_0, # of connection points: 4
#     Node 4, Type 0, BuildingBlock: CEKHIL_clean_sbu_0, # of connection points: 4
#     Node 5, Type 0, BuildingBlock: CEKHIL_clean_sbu_0, # of connection points: 4
#     Node 6, Type 0, BuildingBlock: CEKHIL_clean_sbu_0, # of connection points: 4
#     Node 7, Type 0, BuildingBlock: CEKHIL_clean_sbu_0, # of connection points: 4
#     Node 8, Type 0, BuildingBlock: CEKHIL_clean_sbu_0, # of connection points: 4
#     Node 9, Type 0, BuildingBlock: CEKHIL_clean_sbu_0, # of connection points: 4
#     Node 10, Type 0, BuildingBlock: CEKHIL_clean_sbu_0, # of connection points: 4
#     Node 11, Type 0, BuildingBlock: CEKHIL_clean_sbu_0, # of connection points: 4
#     Node 12, Type 0, BuildingBlock: CEKHIL_clean_sbu_0, # of connection points: 4
#     Node 13, Type 0, BuildingBlock: CEKHIL_clean_sbu_0, # of connection points: 4
#     Node 14, Type 0, BuildingBlock: CEKHIL_clean_sbu_0, # of connection points: 4
#     Node 15, Type 0, BuildingBlock: CEKHIL_clean_sbu_0, # of connection points: 4
#     Edge 16, Type (0, 0), BuildingBlock: TEMPAE_clean_linker_10, # of connection points: 2
#     Edge 17, Type (0, 0), BuildingBlock: TEMPAE_clean_linker_10, # of connection points: 2
#     Edge 18, Type (0, 0), BuildingBlock: TEMPAE_clean_linker_10, # of connection points: 2
#     Edge 19, Type (0, 0), BuildingBlock: TEMPAE_clean_linker_10, # of connection points: 2
#     Edge 20, Type (0, 0), BuildingBlock: TEMPAE_clean_linker_10, # of connection points: 2
#     Edge 21, Type (0, 0), BuildingBlock: TEMPAE_clean_linker_10, # of connection points: 2
#     Edge 22, Type (0, 0), BuildingBlock: TEMPAE_clean_linker_10, # of connection points: 2
#     Edge 23, Type (0, 0), BuildingBlock: TEMPAE_clean_linker_10, # of connection points: 2
#     Edge 24, Type (0, 0), BuildingBlock: TEMPAE_clean_linker_10, # of connection points: 2
#     Edge 25, Type (0, 0), BuildingBlock: TEMPAE_clean_linker_10, # of connection points: 2
#     Edge 26, Type (0, 0), BuildingBlock: TEMPAE_clean_linker_10, # of connection points: 2
#     Edge 27, Type (0, 0), BuildingBlock: TEMPAE_clean_linker_10, # of connection points: 2
#     Edge 28, Type (0, 0), BuildingBlock: TEMPAE_clean_linker_10, # of connection points: 2
#     Edge 29, Type (0, 0), BuildingBlock: TEMPAE_clean_linker_10, # of connection points: 2
#     Edge 30, Type (0, 0), BuildingBlock: TEMPAE_clean_linker_10, # of connection points: 2
#     Edge 31, Type (0, 0), BuildingBlock: TEMPAE_clean_linker_10, # of connection points: 2
#     Edge 32, Type (0, 0), BuildingBlock: TEMPAE_clean_linker_10, # of connection points: 2
#     Edge 33, Type (0, 0), BuildingBlock: TEMPAE_clean_linker_10, # of connection points: 2
#     Edge 34, Type (0, 0), BuildingBlock: TEMPAE_clean_linker_10, # of connection points: 2
#     Edge 35, Type (0, 0), BuildingBlock: TEMPAE_clean_linker_10, # of connection points: 2
#     Edge 36, Type (0, 0), BuildingBlock: TEMPAE_clean_linker_10, # of connection points: 2
#     Edge 37, Type (0, 0), BuildingBlock: TEMPAE_clean_linker_10, # of connection points: 2
#     Edge 38, Type (0, 0), BuildingBlock: TEMPAE_clean_linker_10, # of connection points: 2
#     Edge 39, Type (0, 0), BuildingBlock: TEMPAE_clean_linker_10, # of connection points: 2
#     Edge 40, Type (0, 0), BuildingBlock: TEMPAE_clean_linker_10, # of connection points: 2
#     Edge 41, Type (0, 0), BuildingBlock: TEMPAE_clean_linker_10, # of connection points: 2
#     Edge 42, Type (0, 0), BuildingBlock: TEMPAE_clean_linker_10, # of connection points: 2
#     Edge 43, Type (0, 0), BuildingBlock: TEMPAE_clean_linker_10, # of connection points: 2
#     Edge 44, Type (0, 0), BuildingBlock: TEMPAE_clean_linker_10, # of connection points: 2
#     Edge 45, Type (0, 0), BuildingBlock: TEMPAE_clean_linker_10, # of connection points: 2
#     Edge 46, Type (0, 0), BuildingBlock: TEMPAE_clean_linker_10, # of connection points: 2
#     Edge 47, Type (0, 0), BuildingBlock: TEMPAE_clean_linker_10, # of connection points: 2
# Relax obj value: 0.094
# Max RMSD: 0.132
# Mean RMSD: 0.131
data_MOF--net-cag--node1-CEKHIL_clean_sbu_0--edge1-TEMPAE_clean_linker_10
_symmetry_space_group_name_H-M    P1
_symmetry_Int_Tables_number       1
_symmetry_cell_setting            triclinic
loop_
_symmetry_equiv_pos_as_xyz
'x, y, z'
_cell_length_a     44.365962
_cell_length_b     49.303533
_cell_length_c     40.552443
_cell_angle_alpha  89.988704
_cell_angle_beta   89.995607
_cell_angle_gamma 90.003381
loop_
_atom_site_label
_atom_site_type_symbol
_atom_site_fract_x
_atom_site_fract_y
_atom_site_fract_z
_atom_type_partial_charge
Co0 Co 0.32878 0.13388 0.07979 0.0
O1 O 0.29081 0.14446 0.06031 0.0
O2 O 0.33089 0.17094 0.06459 0.0
C3 C 0.33182 0.09348 0.05399 0.0
O4 O 0.3723 0.13032 0.09544 0.0
Co5 Co 0.33661 0.08294 0.12377 0.0
O6 O 0.38023 0.08834 0.11497 0.0
C7 C 0.30367 0.13085 0.14879 0.0
C8 C 0.30338 0.16774 0.05427 0.0
C9 C 0.39007 0.11115 0.10483 0.0
O10 O 0.3139 0.14561 0.12501 0.0
O11 O 0.30789 0.10521 0.15063 0.0
O12 O 0.34022 0.11547 0.03885 0.0
O13 O 0.32028 0.09683 0.08287 0.0
Co14 Co 0.17632 0.86501 0.58042 0.0
O15 O 0.21436 0.85454 0.56107 0.0
O16 O 0.17446 0.82785 0.56548 0.0
C17 C 0.1732 0.90532 0.55438 0.0
O18 O 0.13273 0.86853 0.59596 0.0
Co19 Co 0.16833 0.9161 0.62411 0.0
O20 O 0.12476 0.91061 0.61515 0.0
C21 C 0.20141 0.86839 0.64943 0.0
C22 C 0.20197 0.83116 0.55519 0.0
C23 C 0.11493 0.88776 0.60512 0.0
O24 O 0.19119 0.85351 0.62576 0.0
O25 O 0.19713 0.89403 0.6511 0.0
O26 O 0.1649 0.88326 0.53934 0.0
O27 O 0.18468 0.90208 0.5833 0.0
Co28 Co 0.32597 0.86619 0.92997 0.0
O29 O 0.28793 0.8567 0.95003 0.0
O30 O 0.32719 0.82923 0.94571 0.0
C31 C 0.33027 0.90681 0.95506 0.0
O32 O 0.36947 0.86875 0.91386 0.0
Co33 Co 0.33449 0.91645 0.88496 0.0
O34 O 0.37802 0.91045 0.89374 0.0
C35 C 0.30043 0.86882 0.86106 0.0
C36 C 0.29988 0.8332 0.95628 0.0
C37 C 0.38752 0.8876 0.90416 0.0
O38 O 0.31046 0.85423 0.88509 0.0
O39 O 0.30518 0.89436 0.85866 0.0
O40 O 0.3382 0.88482 0.97049 0.0
O41 O 0.31839 0.90336 0.92636 0.0
Co42 Co 0.18019 0.13238 0.42966 0.0
O43 O 0.21809 0.14214 0.44985 0.0
O44 O 0.17868 0.16939 0.44524 0.0
C45 C 0.17596 0.09181 0.45491 0.0
O46 O 0.1368 0.12951 0.41328 0.0
Co47 Co 0.17237 0.08191 0.38483 0.0
O48 O 0.12874 0.08776 0.3931 0.0
C49 C 0.20609 0.12973 0.3609 0.0
C50 C 0.20598 0.1656 0.45593 0.0
C51 C 0.11898 0.11055 0.40338 0.0
O52 O 0.19581 0.14431 0.3848 0.0
O53 O 0.20161 0.10415 0.3586 0.0
O54 O 0.16786 0.11381 0.4702 0.0
O55 O 0.18803 0.09524 0.4263 0.0
Co56 Co 0.67459 0.87043 0.91569 0.0
O57 O 0.71379 0.8731 0.89454 0.0
O58 O 0.67262 0.85705 0.87091 0.0
C59 C 0.67554 0.91233 0.93851 0.0
O60 O 0.62986 0.86605 0.92648 0.0
Co61 Co 0.66212 0.87579 0.9908 0.0
O62 O 0.61965 0.88136 0.9773 0.0
C63 C 0.68875 0.82506 0.96379 0.0
C64 C 0.70094 0.8633 0.86828 0.0
C65 C 0.61105 0.87344 0.94893 0.0
O66 O 0.68488 0.83302 0.93369 0.0
O67 O 0.68294 0.83995 0.98886 0.0
O68 O 0.66764 0.90937 0.90781 0.0
O69 O 0.6837 0.89055 0.95348 0.0
Co70 Co 0.83149 0.12661 0.41353 0.0
O71 O 0.79216 0.12391 0.39257 0.0
O72 O 0.83353 0.1389 0.36832 0.0
C73 C 0.8303 0.08529 0.43813 0.0
O74 O 0.87633 0.13079 0.42394 0.0
Co75 Co 0.84422 0.12313 0.48884 0.0
O76 O 0.8866 0.11698 0.47539 0.0
C77 C 0.81835 0.17346 0.45993 0.0
C78 C 0.8051 0.13305 0.36598 0.0
C79 C 0.89516 0.12401 0.44667 0.0
O80 O 0.82179 0.16459 0.43015 0.0
O81 O 0.82417 0.15925 0.48558 0.0
O82 O 0.83778 0.08734 0.40717 0.0
O83 O 0.82245 0.10757 0.45215 0.0
Co84 Co 0.67722 0.12679 0.09452 0.0
O85 O 0.71625 0.12362 0.11594 0.0
O86 O 0.67524 0.14029 0.13925 0.0
C87 C 0.67751 0.08481 0.07179 0.0
O88 O 0.63261 0.1317 0.08346 0.0
Co89 Co 0.66507 0.12136 0.01931 0.0
O90 O 0.62246 0.11639 0.03261 0.0
C91 C 0.69291 0.17162 0.04625 0.0
C92 C 0.70342 0.13363 0.1421 0.0
C93 C 0.61382 0.12443 0.06091 0.0
O94 O 0.68826 0.16401 0.07637 0.0
O95 O 0.68715 0.15657 0.0213 0.0
O96 O 0.66959 0.08792 0.10248 0.0
O97 O 0.68612 0.10646 0.05687 0.0
Co98 Co 0.82775 0.8722 0.59646 0.0
O99 O 0.78887 0.87501 0.61823 0.0
O100 O 0.8301 0.85824 0.64098 0.0
C101 C 0.82711 0.91439 0.57451 0.0
O102 O 0.87228 0.86753 0.58491 0.0
Co103 Co 0.83922 0.87829 0.52133 0.0
O104 O 0.88194 0.88341 0.53422 0.0
C105 C 0.81248 0.82744 0.54787 0.0
C106 C 0.80189 0.86473 0.64412 0.0
C107 C 0.89085 0.87511 0.5623 0.0
O108 O 0.81678 0.83511 0.578 0.0
O109 O 0.81814 0.84254 0.52293 0.0
O110 O 0.83543 0.9109 0.605 0.0
O111 O 0.81835 0.89297 0.55919 0.0
Co112 Co 0.82561 0.63219 0.08234 0.0
O113 O 0.78769 0.64226 0.06247 0.0
O114 O 0.82713 0.66941 0.06759 0.0
C115 C 0.82971 0.59207 0.0561 0.0
O116 O 0.86903 0.62913 0.09853 0.0
Co117 Co 0.83383 0.58102 0.12584 0.0
O118 O 0.87739 0.58697 0.11726 0.0
C119 C 0.79989 0.6283 0.15107 0.0
C120 C 0.79983 0.66578 0.05682 0.0
C121 C 0.887 0.61 0.10761 0.0
O122 O 0.81003 0.64334 0.12751 0.0
O123 O 0.80458 0.60272 0.15272 0.0
O124 O 0.83787 0.61431 0.04135 0.0
O125 O 0.81777 0.595 0.08485 0.0
Co126 Co 0.68125 0.36463 0.58048 0.0
O127 O 0.71909 0.35489 0.56013 0.0
O128 O 0.67973 0.3276 0.56502 0.0
C129 C 0.67697 0.40515 0.55512 0.0
O130 O 0.63789 0.36743 0.59697 0.0
Co131 Co 0.67325 0.41516 0.62512 0.0
O132 O 0.62965 0.4093 0.61667 0.0
C133 C 0.70726 0.36753 0.64919 0.0
C134 C 0.70697 0.33142 0.55414 0.0
C135 C 0.61998 0.38643 0.60656 0.0
O136 O 0.69706 0.35284 0.62534 0.0
O137 O 0.7026 0.39309 0.65141 0.0
O138 O 0.66878 0.38312 0.53994 0.0
O139 O 0.68905 0.40179 0.58373 0.0
Co140 Co 0.83035 0.36546 0.93018 0.0
O141 O 0.79226 0.35513 0.94952 0.0
O142 O 0.83228 0.32852 0.94589 0.0
C143 C 0.83338 0.40606 0.95552 0.0
O144 O 0.87399 0.36891 0.91476 0.0
Co145 Co 0.83829 0.41606 0.88558 0.0
O146 O 0.88185 0.41073 0.89467 0.0
C147 C 0.8055 0.36792 0.86099 0.0
C148 C 0.80472 0.33188 0.956 0.0
C149 C 0.89173 0.38805 0.90519 0.0
O150 O 0.81569 0.35337 0.88499 0.0
O151 O 0.80968 0.39356 0.85887 0.0
O152 O 0.84159 0.38416 0.97097 0.0
O153 O 0.82195 0.40249 0.92663 0.0
Co154 Co 0.67621 0.6329 0.43194 0.0
O155 O 0.71427 0.64336 0.45128 0.0
O156 O 0.67415 0.66984 0.44756 0.0
C157 C 0.67335 0.59223 0.45721 0.0
O158 O 0.63259 0.62938 0.41654 0.0
Co159 Co 0.66834 0.58238 0.38724 0.0
O160 O 0.62472 0.5877 0.39608 0.0
C161 C 0.70103 0.63058 0.36277 0.0
C162 C 0.70174 0.6666 0.45759 0.0
C163 C 0.61485 0.61034 0.40674 0.0
O164 O 0.69081 0.64507 0.38678 0.0
O165 O 0.69695 0.60495 0.36058 0.0
O166 O 0.66506 0.61408 0.47272 0.0
O167 O 0.68473 0.5959 0.4283 0.0
Co168 Co 0.17899 0.37377 0.91442 0.0
O169 O 0.21795 0.37642 0.89277 0.0
O170 O 0.17672 0.35971 0.86996 0.0
C171 C 0.17972 0.41602 0.93629 0.0
O172 O 0.13443 0.36923 0.92586 0.0
Co173 Co 0.16731 0.38016 0.98956 0.0
O174 O 0.12461 0.38505 0.97654 0.0
C175 C 0.19422 0.32926 0.96333 0.0
C176 C 0.20495 0.36612 0.86688 0.0
C177 C 0.11578 0.37671 0.94844 0.0
O178 O 0.18977 0.3367 0.93313 0.0
O179 O 0.18866 0.34455 0.98811 0.0
O180 O 0.17155 0.41253 0.90575 0.0
O181 O 0.18829 0.39455 0.95163 0.0
Co182 Co 0.32766 0.6259 0.41521 0.0
O183 O 0.28875 0.62305 0.39349 0.0
O184 O 0.33002 0.63963 0.37059 0.0
C185 C 0.32702 0.58382 0.43757 0.0
O186 O 0.3722 0.63055 0.4267 0.0
Co187 Co 0.33916 0.62021 0.49044 0.0
O188 O 0.38177 0.61465 0.4774 0.0
C189 C 0.31277 0.67104 0.46347 0.0
C190 C 0.30179 0.63318 0.36752 0.0
C191 C 0.39073 0.62286 0.44929 0.0
O192 O 0.31681 0.66312 0.43339 0.0
O193 O 0.31849 0.65614 0.48856 0.0
O194 O 0.33518 0.58711 0.40699 0.0
O195 O 0.31832 0.60537 0.45266 0.0
Co196 Co 0.17411 0.62883 0.09601 0.0
O197 O 0.21344 0.62619 0.11691 0.0
O198 O 0.17206 0.64106 0.14124 0.0
C199 C 0.17557 0.58755 0.07151 0.0
O200 O 0.12926 0.63287 0.08564 0.0
Co201 Co 0.16132 0.62535 0.02079 0.0
O202 O 0.119 0.61891 0.03427 0.0
C203 C 0.18709 0.67573 0.04966 0.0
C204 C 0.2005 0.63522 0.14354 0.0
C205 C 0.11044 0.62591 0.063 0.0
O206 O 0.18371 0.66682 0.07943 0.0
O207 O 0.18125 0.66154 0.02401 0.0
O208 O 0.1679 0.58959 0.1024 0.0
O209 O 0.18331 0.60983 0.05738 0.0
Co210 Co 0.33264 0.36999 0.5954 0.0
O211 O 0.29336 0.37282 0.61639 0.0
O212 O 0.33459 0.35736 0.64049 0.0
C213 C 0.33154 0.41153 0.57147 0.0
O214 O 0.37744 0.36562 0.58489 0.0
Co215 Co 0.34534 0.37405 0.52023 0.0
O216 O 0.38776 0.37996 0.53369 0.0
C217 C 0.31889 0.32369 0.54845 0.0
C218 C 0.30622 0.36347 0.6429 0.0
C219 C 0.3963 0.37261 0.56229 0.0
O220 O 0.32256 0.33224 0.57834 0.0
O221 O 0.3248 0.33811 0.52299 0.0
O222 O 0.33929 0.40911 0.6023 0.0
O223 O 0.32358 0.38944 0.55705 0.0
C224 C 0.30062 0.21493 0.03171 0.0
C225 C 0.28737 0.18933 0.03582 0.0
C226 C 0.2853 0.23588 0.01528 0.0
C227 C 0.25608 0.2311 1.00245 0.0
C228 C 0.24315 0.20494 0.00524 0.0
C229 C 0.25888 0.18441 0.02204 0.0
C230 C 0.29982 0.26352 0.01311 0.0
C231 C 0.21216 0.19894 0.9917 0.0
C232 C 0.20501 0.29246 1.00365 0.0
C233 C 0.20708 0.30216 0.97113 0.0
C234 C 0.22011 0.26899 0.0137 0.0
C235 C 0.23757 0.25437 0.99061 0.0
C236 C 0.2385 0.26304 0.95725 0.0
C237 C 0.22326 0.28696 0.94786 0.0
C238 C 0.21841 0.26057 0.04951 0.0
C239 C 0.25649 0.24766 0.93183 0.0
H240 H 0.32273 0.21884 0.04203 0.0
H241 H 0.24863 0.16457 0.02473 0.0
H242 H 0.29904 0.27118 0.98741 0.0
H243 H 0.28711 0.27808 0.02869 0.0
H244 H 0.32366 0.26328 0.02148 0.0
H245 H 0.20703 0.17689 0.99184 0.0
H246 H 0.19493 0.20951 0.00681 0.0
H247 H 0.21006 0.20665 0.96609 0.0
H248 H 0.19215 0.30371 0.02181 0.0
H249 H 0.22494 0.29422 0.92269 0.0
H250 H 0.24116 0.26168 0.0608 0.0
H251 H 0.21065 0.23925 0.05154 0.0
H252 H 0.2029 0.2736 0.06405 0.0
H253 H 0.28089 0.24993 0.9371 0.0
H254 H 0.25207 0.25506 0.90641 0.0
H255 H 0.25116 0.22569 0.93303 0.0
C256 C 0.28114 0.71185 0.44854 0.0
C257 C 0.30007 0.69826 0.47077 0.0
C258 C 0.26552 0.73547 0.45822 0.0
C259 C 0.26895 0.74552 0.4908 0.0
C260 C 0.28934 0.73269 0.51257 0.0
C261 C 0.30468 0.70941 0.50224 0.0
C262 C 0.24437 0.74893 0.43414 0.0
C263 C 0.29383 0.74267 0.54748 0.0
C264 C 0.24518 0.81545 0.52032 0.0
C265 C 0.21817 0.80961 0.53689 0.0
C266 C 0.26106 0.79511 0.50335 0.0
C267 C 0.24994 0.76819 0.50343 0.0
C268 C 0.22224 0.76237 0.51934 0.0
C269 C 0.20661 0.78318 0.53569 0.0
C270 C 0.29028 0.80223 0.48634 0.0
C271 C 0.20977 0.73388 0.52041 0.0
H272 H 0.27748 0.70339 0.42419 0.0
H273 H 0.31968 0.69935 0.51946 0.0
H274 H 0.22074 0.74542 0.44201 0.0
H275 H 0.2481 0.77118 0.43381 0.0
H276 H 0.24716 0.74092 0.40871 0.0
H277 H 0.31161 0.73115 0.56075 0.0
H278 H 0.30008 0.76444 0.54746 0.0
H279 H 0.27242 0.7407 0.56143 0.0
H280 H 0.25406 0.83593 0.52074 0.0
H281 H 0.18567 0.77856 0.54828 0.0
H282 H 0.29068 0.79373 0.46102 0.0
H283 H 0.30943 0.79315 0.50002 0.0
H284 H 0.29385 0.8245 0.48489 0.0
H285 H 0.20864 0.72525 0.49519 0.0
H286 H 0.18691 0.73308 0.53156 0.0
H287 H 0.22502 0.72075 0.5351 0.0
C288 C 0.25775 0.81917 0.99366 0.0
C289 C 0.2834 0.81224 0.97525 0.0
C290 C 0.24158 0.7994 0.01131 0.0
C291 C 0.25091 0.77197 0.0099 0.0
C292 C 0.27729 0.76502 0.99207 0.0
C293 C 0.29335 0.78528 0.97521 0.0
C294 C 0.21395 0.80773 0.03052 0.0
C295 C 0.28777 0.73595 0.98949 0.0
C296 C 0.2201 0.7155 0.06478 0.0
C297 C 0.19945 0.7032 0.04331 0.0
C298 C 0.23603 0.73895 0.05507 0.0
C299 C 0.23119 0.75007 0.02322 0.0
C300 C 0.20889 0.7387 1.00251 0.0
C301 C 0.19323 0.71561 0.01289 0.0
C302 C 0.25917 0.7509 0.07813 0.0
C303 C 0.20285 0.74984 0.96841 0.0
H304 H 0.2502 0.84008 0.99422 0.0
H305 H 0.31324 0.77983 0.96116 0.0
H306 H 0.19345 0.80011 0.01791 0.0
H307 H 0.21436 0.79864 0.05555 0.0
H308 H 0.21208 0.83012 0.03291 0.0
H309 H 0.30979 0.73415 0.97661 0.0
H310 H 0.28991 0.72686 0.01439 0.0
H311 H 0.2708 0.72388 0.97575 0.0
H312 H 0.225 0.70605 0.08831 0.0
H313 H 0.1769 0.70651 0.99636 0.0
H314 H 0.25711 0.77331 0.07894 0.0
H315 H 0.2821 0.74606 0.06896 0.0
H316 H 0.25691 0.74276 0.10356 0.0
H317 H 0.19807 0.77189 0.96962 0.0
H318 H 0.18354 0.73961 0.95617 0.0
H319 H 0.22316 0.74713 0.95276 0.0
C320 C 0.28619 0.28368 0.56366 0.0
C321 C 0.30617 0.29639 0.54177 0.0
C322 C 0.27018 0.26025 0.55404 0.0
C323 C 0.27425 0.24954 0.52186 0.0
C324 C 0.29579 0.2614 0.50059 0.0
C325 C 0.31154 0.28446 0.51087 0.0
C326 C 0.24785 0.24779 0.57766 0.0
C327 C 0.301 0.25071 0.46611 0.0
C328 C 0.24854 0.18016 0.49242 0.0
C329 C 0.22233 0.18673 0.47477 0.0
C330 C 0.26467 0.20011 0.5098 0.0
C331 C 0.25467 0.22737 0.50896 0.0
C332 C 0.22772 0.23394 0.49197 0.0
C333 C 0.21176 0.21351 0.4753 0.0
C334 C 0.29298 0.19218 0.52805 0.0
C335 C 0.21648 0.26281 0.49005 0.0
H336 H 0.28194 0.29275 0.58756 0.0
H337 H 0.32734 0.29386 0.49397 0.0
H338 H 0.22461 0.25221 0.56914 0.0
H339 H 0.25045 0.22542 0.57828 0.0
H340 H 0.25049 0.25586 0.60307 0.0
H341 H 0.31967 0.26141 0.4533 0.0
H342 H 0.30634 0.22875 0.46684 0.0
H343 H 0.28016 0.25317 0.45128 0.0
H344 H 0.2566 0.15941 0.49254 0.0
H345 H 0.19144 0.21869 0.46186 0.0
H346 H 0.29302 0.20109 0.55318 0.0
H347 H 0.31296 0.20029 0.51488 0.0
H348 H 0.29544 0.16982 0.53013 0.0
H349 H 0.21491 0.27173 0.51509 0.0
H350 H 0.19404 0.26426 0.47802 0.0
H351 H 0.23272 0.27528 0.47577 0.0
C352 C 0.7953 0.71348 0.03628 0.0
C353 C 0.78361 0.68712 0.03818 0.0
C354 C 0.77968 0.7341 0.01958 0.0
C355 C 0.75183 0.72816 1.00407 0.0
C356 C 0.74058 0.70129 1.00466 0.0
C357 C 0.75649 0.68114 0.02192 0.0
C358 C 0.79231 0.76254 0.01988 0.0
C359 C 0.71118 0.69405 0.98812 0.0
C360 C 0.69716 0.78695 1.00285 0.0
C361 C 0.70145 0.79786 0.97118 0.0
C362 C 0.71263 0.76378 0.01327 0.0
C363 C 0.73273 0.75073 0.99138 0.0
C364 C 0.73577 0.76048 0.95861 0.0
C365 C 0.7201 0.78406 0.94886 0.0
C366 C 0.70859 0.75415 0.0484 0.0
C367 C 0.75657 0.74675 0.93439 0.0
H368 H 0.81635 0.71821 0.04859 0.0
H369 H 0.74751 0.66071 0.02287 0.0
H370 H 0.79311 0.77086 0.99448 0.0
H371 H 0.77734 0.77591 0.03459 0.0
H372 H 0.81533 0.76339 0.03061 0.0
H373 H 0.70757 0.67177 0.98702 0.0
H374 H 0.69219 0.70326 1.00193 0.0
H375 H 0.71051 0.70233 0.96269 0.0
H376 H 0.68238 0.79715 0.02015 0.0
H377 H 0.7235 0.79231 0.92436 0.0
H378 H 0.7302 0.75618 0.06196 0.0
H379 H 0.70224 0.7324 0.04882 0.0
H380 H 0.69105 0.76586 0.06182 0.0
H381 H 0.78031 0.75038 0.94176 0.0
H382 H 0.75338 0.75446 0.90889 0.0
H383 H 0.75286 0.7245 0.93454 0.0
C384 C 0.78524 0.21324 0.44505 0.0
C385 C 0.80607 0.20094 0.46632 0.0
C386 C 0.76942 0.23671 0.45488 0.0
C387 C 0.77456 0.24787 0.48666 0.0
C388 C 0.79702 0.23649 0.50716 0.0
C389 C 0.81255 0.21338 0.49666 0.0
C390 C 0.74612 0.24867 0.43204 0.0
C391 C 0.80337 0.24765 0.54118 0.0
C392 C 0.74865 0.31713 0.51631 0.0
C393 C 0.72315 0.31034 0.53505 0.0
C394 C 0.76453 0.29726 0.49852 0.0
C395 C 0.75507 0.26987 0.50011 0.0
C396 C 0.72883 0.26306 0.51827 0.0
C397 C 0.71305 0.28342 0.53528 0.0
C398 C 0.79202 0.30545 0.47896 0.0
C399 C 0.71821 0.23405 0.52105 0.0
H400 H 0.78013 0.20376 0.42159 0.0
H401 H 0.82902 0.20427 0.51304 0.0
H402 H 0.72325 0.24391 0.44148 0.0
H403 H 0.74823 0.27108 0.43112 0.0
H404 H 0.74811 0.24048 0.40661 0.0
H405 H 0.82272 0.23737 0.55327 0.0
H406 H 0.80826 0.26968 0.53986 0.0
H407 H 0.78317 0.24505 0.55701 0.0
H408 H 0.75631 0.338 0.51561 0.0
H409 H 0.69327 0.27808 0.54958 0.0
H410 H 0.7913 0.29633 0.45396 0.0
H411 H 0.8126 0.29773 0.49134 0.0
H412 H 0.794 0.32782 0.47651 0.0
H413 H 0.71581 0.22492 0.4962 0.0
H414 H 0.6963 0.23237 0.53416 0.0
H415 H 0.73523 0.22194 0.53467 0.0
C416 C 0.75984 0.31564 0.98793 0.0
C417 C 0.78851 0.31053 0.97468 0.0
C418 C 0.74384 0.29532 1.0048 0.0
C419 C 0.75667 0.26918 0.00823 0.0
C420 C 0.78611 0.26425 0.99606 0.0
C421 C 0.80169 0.285 0.97952 0.0
C422 C 0.71264 0.30149 0.01763 0.0
C423 C 0.80055 0.23662 0.99894 0.0
C424 C 0.7222 0.2137 0.06229 0.0
C425 C 0.70633 0.19857 0.03869 0.0
C426 C 0.7379 0.23746 0.05316 0.0
C427 C 0.73781 0.24601 0.01973 0.0
C428 C 0.72074 0.23143 0.99627 0.0
C429 C 0.70511 0.20817 0.00606 0.0
C430 C 0.75541 0.25284 0.07897 0.0
C431 C 0.71995 0.23969 0.96036 0.0
H432 H 0.74963 0.33544 0.98469 0.0
H433 H 0.82394 0.28096 0.96965 0.0
H434 H 0.69564 0.29099 1.00214 0.0
H435 H 0.70999 0.29385 0.0432 0.0
H436 H 0.70765 0.32357 0.0173 0.0
H437 H 0.8246 0.23682 0.99129 0.0
H438 H 0.79911 0.22913 0.02468 0.0
H439 H 0.78823 0.22198 0.98312 0.0
H440 H 0.72322 0.20654 0.08753 0.0
H441 H 0.69252 0.197 0.98761 0.0
H442 H 0.75031 0.27484 0.07748 0.0
H443 H 0.77991 0.25038 0.07441 0.0
H444 H 0.75033 0.24559 0.10431 0.0
H445 H 0.71225 0.261 0.95797 0.0
H446 H 0.7048 0.22661 0.94543 0.0
H447 H 0.74297 0.23852 0.94976 0.0
C448 C 0.78214 0.78593 0.56332 0.0
C449 C 0.79958 0.80032 0.54037 0.0
C450 C 0.76662 0.76216 0.55394 0.0
C451 C 0.76861 0.75278 0.52093 0.0
C452 C 0.78742 0.76651 0.49828 0.0
C453 C 0.80272 0.78989 0.50831 0.0
C454 C 0.74717 0.74776 0.57892 0.0
C455 C 0.79032 0.75728 0.46286 0.0
C456 C 0.74583 0.68277 0.49084 0.0
C457 C 0.71794 0.68816 0.47589 0.0
C458 C 0.76178 0.70323 0.50753 0.0
C459 C 0.74975 0.7298 0.50889 0.0
C460 C 0.72114 0.73512 0.49475 0.0
C461 C 0.70553 0.71422 0.47857 0.0
C462 C 0.79203 0.69665 0.52258 0.0
C463 C 0.70764 0.76323 0.49531 0.0
H464 H 0.77962 0.79379 0.58813 0.0
H465 H 0.81656 0.80053 0.49047 0.0
H466 H 0.72307 0.75063 0.57249 0.0
H467 H 0.75173 0.72563 0.57854 0.0
H468 H 0.7509 0.7555 0.60432 0.0
H469 H 0.80691 0.76955 0.44875 0.0
H470 H 0.79734 0.73571 0.46186 0.0
H471 H 0.76812 0.75883 0.45039 0.0
H472 H 0.7554 0.66259 0.48925 0.0
H473 H 0.68391 0.7185 0.46727 0.0
H474 H 0.79346 0.70479 0.54804 0.0
H475 H 0.81015 0.70644 0.50797 0.0
H476 H 0.79638 0.67447 0.52328 0.0
H477 H 0.70763 0.77141 0.52078 0.0
H478 H 0.68418 0.76354 0.48573 0.0
H479 H 0.72156 0.77705 0.47997 0.0
C480 C 0.35559 0.06107 0.01406 0.0
C481 C 0.33526 0.06611 0.03977 0.0
C482 C 0.35833 0.03495 1.00045 0.0
C483 C 0.33973 0.01371 0.01233 0.0
C484 C 0.3194 0.01875 0.03852 0.0
C485 C 0.3177 0.04479 0.05216 0.0
C486 C 0.38076 0.03015 0.97308 0.0
C487 C 0.29866 0.99686 0.05141 0.0
C488 C 0.31801 0.95596 0.95557 0.0
C489 C 0.33441 0.93426 0.96887 0.0
C490 C 0.32014 0.98205 0.96901 0.0
C491 C 0.33968 0.98671 0.996 0.0
C492 C 0.35721 0.96509 0.00876 0.0
C493 C 0.35408 0.93897 0.99527 0.0
C494 C 0.30055 0.00438 0.95513 0.0
C495 C 0.37878 0.96947 0.03704 0.0
H496 H 0.36942 0.07749 1.00471 0.0
H497 H 0.3019 0.04864 0.07201 0.0
H498 H 0.39515 0.0124 0.97899 0.0
H499 H 0.36864 0.02544 0.94986 0.0
H500 H 0.39545 0.04805 0.96879 0.0
H501 H 0.28466 0.00396 0.07242 0.0
H502 H 0.28343 0.98995 0.03139 0.0
H503 H 0.31193 0.97903 0.05956 0.0
H504 H 0.30273 0.9524 0.93516 0.0
H505 H 0.36702 0.92226 0.00536 0.0
H506 H 0.31461 0.02195 0.94772 0.0
H507 H 0.28467 0.01158 0.97437 0.0
H508 H 0.28729 0.99759 0.9334 0.0
H509 H 0.39373 0.987 0.03182 0.0
H510 H 0.39295 0.95132 0.04185 0.0
H511 H 0.36596 0.97431 0.05977 0.0
C512 C 0.1499 0.93757 0.51389 0.0
C513 C 0.16986 0.93264 0.53997 0.0
C514 C 0.14731 0.96365 0.50009 0.0
C515 C 0.16571 0.98495 0.51218 0.0
C516 C 0.18566 0.98003 0.53873 0.0
C517 C 0.18721 0.95403 0.55253 0.0
C518 C 0.12528 0.96833 0.47231 0.0
C519 C 0.20617 0.00198 0.55187 0.0
C520 C 0.18823 0.04266 0.45569 0.0
C521 C 0.17165 0.06437 0.46869 0.0
C522 C 0.18588 0.01657 0.46911 0.0
C523 C 0.16593 0.01192 0.49574 0.0
C524 C 0.14821 0.03354 0.50816 0.0
C525 C 0.15156 0.05967 0.49472 0.0
C526 C 0.20568 0.99424 0.45561 0.0
C527 C 0.12621 0.02918 0.53605 0.0
H528 H 0.13624 0.9211 0.50438 0.0
H529 H 0.20274 0.95028 0.57266 0.0
H530 H 0.11076 0.98608 0.47788 0.0
H531 H 0.13773 0.973 0.44928 0.0
H532 H 0.11069 0.95039 0.46784 0.0
H533 H 0.2199 0.99497 0.57314 0.0
H534 H 0.22165 0.00889 0.53208 0.0
H535 H 0.19274 0.01981 0.55974 0.0
H536 H 0.20382 0.04622 0.43556 0.0
H537 H 0.13848 0.07638 0.50456 0.0
H538 H 0.19175 0.97664 0.44804 0.0
H539 H 0.22132 0.9871 0.47512 0.0
H540 H 0.21922 0.001 0.43407 0.0
H541 H 0.11138 0.01161 0.53061 0.0
H542 H 0.11192 0.04732 0.54053 0.0
H543 H 0.13867 0.02441 0.55903 0.0
C544 C 0.69168 0.94142 0.98507 0.0
C545 C 0.67355 0.9381 0.95702 0.0
C546 C 0.69014 0.96496 1.00428 0.0
C547 C 0.66944 0.98562 0.99574 0.0
C548 C 0.65059 0.98222 0.96775 0.0
C549 C 0.65313 0.95857 0.9484 0.0
C550 C 0.71125 0.96798 0.0333 0.0
C551 C 0.62787 0.00361 0.95825 0.0
C552 C 0.65556 0.03816 0.06322 0.0
C553 C 0.67479 0.05912 0.05316 0.0
C554 C 0.65253 0.01445 0.04405 0.0
C555 C 0.66961 0.01155 0.01465 0.0
C556 C 0.689 0.03274 1.00456 0.0
C557 C 0.69113 0.05626 0.02374 0.0
C558 C 0.63125 0.99244 0.05529 0.0
C559 C 0.70819 0.03032 0.9739 0.0
H560 H 0.70755 0.92563 0.99179 0.0
H561 H 0.63879 0.95586 0.92702 0.0
H562 H 0.72618 0.98576 0.02943 0.0
H563 H 0.69823 0.97172 0.05619 0.0
H564 H 0.72556 0.94975 0.03705 0.0
H565 H 0.61334 0.99703 0.93742 0.0
H566 H 0.61333 0.00857 0.97968 0.0
H567 H 0.63969 0.02252 0.95101 0.0
H568 H 0.64261 0.04045 0.08571 0.0
H569 H 0.70609 0.0724 0.01584 0.0
H570 H 0.64419 0.97393 0.06168 0.0
H571 H 0.6156 0.98695 0.03501 0.0
H572 H 0.61782 0.99866 0.07714 0.0
H573 H 0.72401 0.01302 0.97654 0.0
H574 H 0.72151 0.04897 0.96899 0.0
H575 H 0.69381 0.02613 0.95212 0.0
C576 C 0.84682 0.03667 0.44566 0.0
C577 C 0.8328 0.06007 0.45788 0.0
C578 C 0.84884 0.01303 0.46514 0.0
C579 C 0.83619 0.01279 0.4973 0.0
C580 C 0.82241 0.03652 0.50977 0.0
C581 C 0.82103 0.05979 0.49003 0.0
C582 C 0.86405 0.98819 0.45117 0.0
C583 C 0.80816 0.0371 0.54361 0.0
C584 C 0.80777 0.94621 0.5324 0.0
C585 C 0.82937 0.94034 0.55656 0.0
C586 C 0.80989 0.9696 0.51291 0.0
C587 C 0.83477 0.98725 0.51697 0.0
C588 C 0.85695 0.98125 0.54113 0.0
C589 C 0.85376 0.95798 0.56105 0.0
C590 C 0.78523 0.97557 0.48826 0.0
C591 C 0.88413 0.99926 0.54566 0.0
H592 H 0.85619 0.03682 0.42097 0.0
H593 H 0.81014 0.07777 0.49975 0.0
H594 H 0.88122 0.98047 0.46872 0.0
H595 H 0.84718 0.97184 0.44763 0.0
H596 H 0.87511 0.99235 0.42712 0.0
H597 H 0.79947 0.05753 0.55021 0.0
H598 H 0.78916 0.02247 0.54456 0.0
H599 H 0.82474 0.03079 0.56257 0.0
H600 H 0.78893 0.9325 0.5289 0.0
H601 H 0.87077 0.95312 0.5793 0.0
H602 H 0.79485 0.97711 0.46309 0.0
H603 H 0.77461 0.99539 0.49404 0.0
H604 H 0.76741 0.95974 0.48816 0.0
H605 H 0.89617 0.00163 0.52184 0.0
H606 H 0.9001 0.99107 0.56426 0.0
H607 H 0.87689 0.01978 0.55358 0.0
C608 C 0.82055 0.45511 0.95573 0.0
C609 C 0.83681 0.43353 0.96951 0.0
C610 C 0.82195 0.48117 0.96936 0.0
C611 C 0.8406 0.48593 0.99707 0.0
C612 C 0.85803 0.46445 0.01032 0.0
C613 C 0.85566 0.43835 0.99659 0.0
C614 C 0.8025 0.50334 0.9549 0.0
C615 C 0.87866 0.46894 0.03941 0.0
C616 C 0.85494 0.56031 0.01652 0.0
C617 C 0.83383 0.5649 0.04159 0.0
C618 C 0.8584 0.53434 1.00267 0.0
C619 C 0.83972 0.51282 0.01362 0.0
C620 C 0.81856 0.51742 0.03912 0.0
C621 C 0.81616 0.54331 0.05305 0.0
C622 C 0.8817 0.53 0.97608 0.0
C623 C 0.79772 0.49523 0.05098 0.0
H624 H 0.80591 0.45146 0.93478 0.0
H625 H 0.8685 0.42175 0.00707 0.0
H626 H 0.78587 0.51022 0.97355 0.0
H627 H 0.81652 0.52114 0.94822 0.0
H628 H 0.79008 0.49654 0.93259 0.0
H629 H 0.89297 0.45094 0.04458 0.0
H630 H 0.89348 0.48669 0.03489 0.0
H631 H 0.86508 0.47347 0.0617 0.0
H632 H 0.86884 0.57694 0.00789 0.0
H633 H 0.79974 0.54684 0.0724 0.0
H634 H 0.87037 0.52524 0.9524 0.0
H635 H 0.89621 0.51241 0.98237 0.0
H636 H 0.89622 0.54811 0.97245 0.0
H637 H 0.78327 0.48825 0.03031 0.0
H638 H 0.78292 0.50203 0.07148 0.0
H639 H 0.81097 0.4775 0.05951 0.0
C640 C 0.65195 0.43743 0.51594 0.0
C641 C 0.67278 0.43255 0.54122 0.0
C642 C 0.64852 0.46358 0.5026 0.0
C643 C 0.66693 0.48503 0.51428 0.0
C644 C 0.68775 0.48015 0.54004 0.0
C645 C 0.69014 0.45406 0.55344 0.0
C646 C 0.62558 0.46819 0.4757 0.0
C647 C 0.7083 0.50226 0.55269 0.0
C648 C 0.68667 0.5433 0.45741 0.0
C649 C 0.67005 0.56471 0.47108 0.0
C650 C 0.68527 0.51715 0.47079 0.0
C651 C 0.66625 0.5121 0.49812 0.0
C652 C 0.64853 0.53341 0.51132 0.0
C653 C 0.65091 0.55962 0.49786 0.0
C654 C 0.70504 0.49517 0.45642 0.0
C655 C 0.6275 0.52862 0.53999 0.0
H656 H 0.63828 0.42086 0.50673 0.0
H657 H 0.70634 0.45033 0.57294 0.0
H658 H 0.61099 0.48573 0.48198 0.0
H659 H 0.63724 0.47316 0.45227 0.0
H660 H 0.61111 0.45012 0.47158 0.0
H661 H 0.72273 0.49528 0.57341 0.0
H662 H 0.72312 0.50946 0.53245 0.0
H663 H 0.69485 0.51989 0.56117 0.0
H664 H 0.70154 0.54716 0.43672 0.0
H665 H 0.63781 0.57609 0.50825 0.0
H666 H 0.69119 0.47744 0.44913 0.0
H667 H 0.72132 0.48809 0.47534 0.0
H668 H 0.71788 0.50224 0.43453 0.0
H669 H 0.61273 0.51094 0.53493 0.0
H670 H 0.61315 0.54657 0.54525 0.0
H671 H 0.64077 0.5238 0.56242 0.0
C672 C 0.15613 0.54012 0.06205 0.0
C673 C 0.17372 0.56222 0.05199 0.0
C674 C 0.15415 0.5166 0.04238 0.0
C675 C 0.17064 0.51506 0.01244 0.0
C676 C 0.18829 0.53743 1.00227 0.0
C677 C 0.18939 0.56073 0.02198 0.0
C678 C 0.13469 0.49331 0.05376 0.0
C679 C 0.20682 0.53649 0.97102 0.0
C680 C 0.19619 0.44622 0.98161 0.0
C681 C 0.17733 0.44197 0.95435 0.0
C682 C 0.19395 0.46974 1.00081 0.0
C683 C 0.17181 0.48937 0.99307 0.0
C684 C 0.15238 0.4851 0.96574 0.0
C685 C 0.15562 0.46152 0.94638 0.0
C686 C 0.21569 0.47374 0.02909 0.0
C687 C 0.12815 0.50536 0.95712 0.0
H688 H 0.14371 0.54132 0.08502 0.0
H689 H 0.20309 0.57774 0.01406 0.0
H690 H 0.11907 0.48711 0.03376 0.0
H691 H 0.14906 0.47553 0.05958 0.0
H692 H 0.12128 0.49854 0.076 0.0
H693 H 0.21854 0.55597 0.96601 0.0
H694 H 0.224 0.5202 0.97293 0.0
H695 H 0.19226 0.53159 0.94961 0.0
H696 H 0.21305 0.43113 0.98782 0.0
H697 H 0.14073 0.45806 0.92561 0.0
H698 H 0.20312 0.47637 0.0525 0.0
H699 H 0.22909 0.49246 0.02507 0.0
H700 H 0.23148 0.45641 0.03195 0.0
H701 H 0.11358 0.50911 0.97889 0.0
H702 H 0.11382 0.49838 0.93632 0.0
H703 H 0.13856 0.52503 0.95027 0.0
C704 C 0.31113 0.55387 0.48346 0.0
C705 C 0.32963 0.55799 0.45588 0.0
C706 C 0.31342 0.53032 0.50262 0.0
C707 C 0.33528 0.51053 0.49451 0.0
C708 C 0.35444 0.51473 0.46694 0.0
C709 C 0.35113 0.53833 0.44762 0.0
C710 C 0.29196 0.52641 0.53117 0.0
C711 C 0.37839 0.49431 0.45792 0.0
C712 C 0.35117 0.45897 0.56259 0.0
C713 C 0.33333 0.43708 0.55239 0.0
C714 C 0.35311 0.48271 0.54329 0.0
C715 C 0.33629 0.48469 0.5136 0.0
C716 C 0.31834 0.46255 0.50332 0.0
C717 C 0.31732 0.43903 0.52264 0.0
C718 C 0.3729 0.50574 0.55475 0.0
C719 C 0.29947 0.46396 0.47234 0.0
H720 H 0.29444 0.56905 0.4899 0.0
H721 H 0.36576 0.54168 0.42661 0.0
H722 H 0.2782 0.50791 0.52714 0.0
H723 H 0.30476 0.52342 0.55437 0.0
H724 H 0.2765 0.54393 0.53444 0.0
H725 H 0.39276 0.50138 0.43719 0.0
H726 H 0.39296 0.49015 0.47958 0.0
H727 H 0.3677 0.47485 0.45077 0.0
H728 H 0.36385 0.45743 0.58536 0.0
H729 H 0.30342 0.42218 0.51462 0.0
H730 H 0.35878 0.52361 0.56087 0.0
H731 H 0.38845 0.51194 0.53469 0.0
H732 H 0.3864 0.50022 0.57683 0.0
H733 H 0.28261 0.48047 0.47464 0.0
H734 H 0.28737 0.44467 0.46732 0.0
H735 H 0.31389 0.46879 0.45078 0.0
C736 C 0.55993 0.11661 0.04453 0.0
C737 C 0.58096 0.12509 0.06829 0.0
C738 C 0.52897 0.11572 0.05164 0.0
C739 C 0.51862 0.12352 0.08328 0.0
C740 C 0.53957 0.13259 0.10719 0.0
C741 C 0.57046 0.13325 0.09943 0.0
C742 C 0.50736 0.10593 0.02544 0.0
C743 C 0.52941 0.14114 0.14117 0.0
C744 C 0.43503 0.1399 0.0905 0.0
C745 C 0.42322 0.11529 0.10227 0.0
C746 C 0.46612 0.14316 0.08511 0.0
C747 C 0.48595 0.12128 0.09153 0.0
C748 C 0.47433 0.0967 0.10436 0.0
C749 C 0.44319 0.09401 0.1096 0.0
C750 C 0.47764 0.16974 0.07158 0.0
C751 C 0.49471 0.07288 0.11155 0.0
H752 H 0.56767 0.11025 0.02039 0.0
H753 H 0.58641 0.13986 0.11801 0.0
H754 H 0.49573 0.0873 0.03404 0.0
H755 H 0.48976 0.12147 0.02087 0.0
H756 H 0.51888 0.10138 1.00175 0.0
H757 H 0.54834 0.14879 0.15649 0.0
H758 H 0.51204 0.15725 0.13927 0.0
H759 H 0.51889 0.12367 0.15403 0.0
H760 H 0.41992 0.15652 0.08479 0.0
H761 H 0.43443 0.07491 0.11871 0.0
H762 H 0.48714 0.16652 0.04657 0.0
H763 H 0.49609 0.17766 0.08734 0.0
H764 H 0.45964 0.18534 0.06996 0.0
H765 H 0.5052 0.06566 0.08832 0.0
H766 H 0.4824 0.05569 0.12307 0.0
H767 H 0.51324 0.07914 0.12826 0.0
C768 C 0.93454 0.86588 0.60023 0.0
C769 C 0.92379 0.87442 0.56934 0.0
C770 C 0.96549 0.86643 0.60769 0.0
C771 C 0.98626 0.87577 0.58373 0.0
C772 C 0.97565 0.88396 0.55234 0.0
C773 C 0.94462 0.88319 0.54553 0.0
C774 C 0.97591 0.85749 0.64143 0.0
C775 C 0.99706 0.89405 0.5261 0.0
C776 C 0.06184 0.90492 0.61016 0.0
C777 C 0.08177 0.88369 0.60247 0.0
C778 C 0.03068 0.90234 0.60493 0.0
C779 C 0.01899 0.87792 0.59174 0.0
C780 C 0.03878 0.85611 0.58488 0.0
C781 C 0.0699 0.85925 0.59028 0.0
C782 C 0.01035 0.92609 0.61262 0.0
C783 C 0.02719 0.8297 0.57093 0.0
H784 H 0.91874 0.85906 0.61885 0.0
H785 H 0.93668 0.88984 0.52158 0.0
H786 H 0.99324 0.84138 0.6391 0.0
H787 H 0.98656 0.8748 0.65447 0.0
H788 H 0.95709 0.84968 0.65681 0.0
H789 H 0.98535 0.89886 0.50259 0.0
H790 H 0.00873 0.9126 0.53488 0.0
H791 H 0.01463 0.87858 0.52113 0.0
H792 H 0.07063 0.9239 0.61959 0.0
H793 H 0.08498 0.84268 0.58425 0.0
H794 H 0.99195 0.91967 0.62941 0.0
H795 H 0.99969 0.93353 0.58958 0.0
H796 H 0.02274 0.94317 0.62424 0.0
H797 H 0.00888 0.82155 0.58672 0.0
H798 H 0.0452 0.81414 0.56882 0.0
H799 H 0.01747 0.83325 0.54609 0.0
C800 C 0.44084 0.90405 0.89865 0.0
C801 C 0.42062 0.88316 0.90677 0.0
C802 C 0.47195 0.90122 0.90402 0.0
C803 C 0.48328 0.87688 0.9178 0.0
C804 C 0.4632 0.85536 0.92501 0.0
C805 C 0.43214 0.85875 0.91946 0.0
C806 C 0.49259 0.92467 0.89596 0.0
C807 C 0.47442 0.82904 0.93956 0.0
C808 C 0.5677 0.86414 0.91057 0.0
C809 C 0.5782 0.87298 0.94144 0.0
C810 C 0.53683 0.8648 0.90272 0.0
C811 C 0.51591 0.8746 0.92623 0.0
C812 C 0.52626 0.88313 0.95758 0.0
C813 C 0.5572 0.88219 0.96481 0.0
C814 C 0.52667 0.85545 0.86905 0.0
C815 C 0.50469 0.89375 0.98335 0.0
H816 H 0.43232 0.923 0.88882 0.0
H817 H 0.41683 0.84243 0.92581 0.0
H818 H 0.5031 0.93241 0.91894 0.0
H819 H 0.5111 0.91782 0.87956 0.0
H820 H 0.48049 0.94165 0.88376 0.0
H821 H 0.45626 0.81362 0.94167 0.0
H822 H 0.49285 0.82059 0.92419 0.0
H823 H 0.48385 0.83281 0.96448 0.0
H824 H 0.58363 0.85694 0.89229 0.0
H825 H 0.56495 0.88909 0.98873 0.0
H826 H 0.51631 0.87264 0.85551 0.0
H827 H 0.50917 0.8395 0.87152 0.0
H828 H 0.54557 0.84729 0.85407 0.0
H829 H 0.49325 0.91223 0.97401 0.0
H830 H 0.51621 0.89883 0.00687 0.0
H831 H 0.48694 0.87846 0.98846 0.0
C832 C 0.07399 0.13917 0.41804 0.0
C833 C 0.08582 0.11481 0.40559 0.0
C834 C 0.04286 0.14237 0.42323 0.0
C835 C 0.02302 0.1207 0.4159 0.0
C836 C 0.03467 0.09641 0.40233 0.0
C837 C 0.06584 0.09377 0.3973 0.0
C838 C 0.03131 0.16865 0.43757 0.0
C839 C 0.01429 0.07281 0.39415 0.0
C840 C 0.94896 0.11519 0.46261 0.0
C841 C 0.928 0.12429 0.43913 0.0
C842 C 0.97991 0.11428 0.45547 0.0
C843 C 0.99033 0.12275 0.42411 0.0
C844 C 0.96944 0.13237 0.40046 0.0
C845 C 0.93855 0.13298 0.40821 0.0
C846 C 1.00145 0.10381 0.48137 0.0
C847 C 0.97967 0.14167 0.3668 0.0
H848 H 0.08912 0.15559 0.4245 0.0
H849 H 0.0746 0.07486 0.38763 0.0
H850 H 0.01288 0.1769 0.42203 0.0
H851 H 0.02177 0.16488 0.46244 0.0
H852 H 0.0493 0.18422 0.43972 0.0
H853 H 0.02662 0.05592 0.38203 0.0
H854 H 0.00373 0.06498 0.41706 0.0
H855 H 0.9958 0.0795 0.37763 0.0
H856 H 0.94117 0.10838 0.48655 0.0
H857 H 0.92264 0.1401 0.38986 0.0
H858 H 0.019 0.11925 0.48662 0.0
H859 H 0.01314 0.08544 0.47209 0.0
H860 H 0.98985 0.0986 0.50481 0.0
H861 H 0.99694 0.15782 0.36928 0.0
H862 H 0.96076 0.14955 0.35162 0.0
H863 H 0.99035 0.12454 0.35345 0.0
C864 C 0.05659 0.61743 0.04693 0.0
C865 C 0.07762 0.62586 0.07069 0.0
C866 C 0.02568 0.61613 0.05422 0.0
C867 C 0.0154 0.62345 0.08605 0.0
C868 C 0.03637 0.63238 0.11002 0.0
C869 C 0.0672 0.63346 0.10208 0.0
C870 C 0.00405 0.60646 0.02796 0.0
C871 C 0.02628 0.64041 0.14421 0.0
C872 C 0.93171 0.63925 0.09382 0.0
C873 C 0.92011 0.61443 0.10518 0.0
C874 C 0.96277 0.64275 0.08842 0.0
C875 C 0.98277 0.62092 0.0944 0.0
C876 C 0.97137 0.59613 0.10684 0.0
C877 C 0.94026 0.5932 0.11212 0.0
C878 C 0.97407 0.66956 0.07532 0.0
C879 C 0.99194 0.57235 0.11356 0.0
H880 H 0.06427 0.6115 0.02261 0.0
H881 H 0.08316 0.64002 0.12067 0.0
H882 H 0.99256 0.5877 0.03635 0.0
H883 H 0.98635 0.62196 0.02367 0.0
H884 H 0.01553 0.60218 1.00418 0.0
H885 H 0.04523 0.64789 0.15963 0.0
H886 H 0.00887 0.65652 0.14269 0.0
H887 H 0.01583 0.62275 0.15673 0.0
H888 H 0.91646 0.65583 0.08841 0.0
H889 H 0.93167 0.57393 0.1209 0.0
H890 H 0.9835 0.66669 0.05022 0.0
H891 H 0.99251 0.67739 0.09114 0.0
H892 H 0.95595 0.68508 0.07404 0.0
H893 H 1.00237 0.56543 0.09016 0.0
H894 H 0.97979 0.55497 0.12487 0.0
H895 H 0.01051 0.57853 0.13027 0.0
C896 C 0.57513 0.35767 0.59175 0.0
C897 C 0.58683 0.38209 0.60418 0.0
C898 C 0.54403 0.35439 0.58636 0.0
C899 C 0.5241 0.37604 0.59347 0.0
C900 C 0.53561 0.40039 0.60701 0.0
C901 C 0.56676 0.40311 0.61224 0.0
C902 C 0.53263 0.32805 0.57205 0.0
C903 C 0.51513 0.42397 0.61496 0.0
C904 C 0.45017 0.38132 0.54644 0.0
C905 C 0.42914 0.37225 0.56988 0.0
C906 C 0.48111 0.38225 0.55368 0.0
C907 C 0.49144 0.37387 0.58511 0.0
C908 C 0.47048 0.36427 0.60871 0.0
C909 C 0.43961 0.36361 0.60085 0.0
C910 C 0.50271 0.39269 0.52782 0.0
C911 C 0.48062 0.35507 0.64244 0.0
H912 H 0.59033 0.34126 0.58546 0.0
H913 H 0.57542 0.42207 0.62187 0.0
H914 H 0.51416 0.31978 0.58752 0.0
H915 H 0.52319 0.33173 0.54711 0.0
H916 H 0.55069 0.31252 0.57004 0.0
H917 H 0.52735 0.44093 0.62705 0.0
H918 H 0.50465 0.43169 0.59196 0.0
H919 H 0.49659 0.41728 0.63143 0.0
H920 H 0.44245 0.38807 0.52246 0.0
H921 H 0.42366 0.35653 0.61917 0.0
H922 H 0.52034 0.37729 0.52275 0.0
H923 H 0.51429 0.41113 0.53705 0.0
H924 H 0.49119 0.39776 0.5043 0.0
H925 H 0.49797 0.33898 0.64009 0.0
H926 H 0.46168 0.34714 0.65755 0.0
H927 H 0.49116 0.37227 0.65579 0.0
C928 C 0.07218 0.36682 0.91065 0.0
C929 C 0.08287 0.37586 0.94136 0.0
C930 C 0.04124 0.36714 0.90316 0.0
C931 C 0.02041 0.37676 0.92688 0.0
C932 C 0.03096 0.38548 0.95809 0.0
C933 C 0.06198 0.38491 0.96495 0.0
C934 C 0.03088 0.35762 0.86964 0.0
C935 C 0.00949 0.39591 0.98407 0.0
C936 C 0.94476 0.40526 0.89973 0.0
C937 C 0.9249 0.38411 0.90794 0.0
C938 C 0.97592 0.40285 0.90501 0.0
C939 C 0.98768 0.37868 0.9188 0.0
C940 C 0.96797 0.35692 0.92618 0.0
C941 C 0.93684 0.35989 0.92071 0.0
C942 C 0.99617 0.42653 0.89677 0.0
C943 C 0.97965 0.33078 0.94076 0.0
H944 H 0.08802 0.35976 0.89221 0.0
H945 H 0.06987 0.39195 0.98874 0.0
H946 H 0.01362 0.34149 0.87234 0.0
H947 H 0.02017 0.37467 0.85617 0.0
H948 H 0.04974 0.34963 0.85446 0.0
H949 H 0.02116 0.40113 0.00746 0.0
H950 H 0.99774 0.41426 0.97483 0.0
H951 H 0.99198 0.38045 0.9894 0.0
H952 H 0.93591 0.42406 0.88984 0.0
H953 H 0.92182 0.34339 0.92714 0.0
H954 H 0.01461 0.4199 0.88014 0.0
H955 H 0.0068 0.43436 0.91963 0.0
H956 H 0.98374 0.44339 0.88472 0.0
H957 H 0.99801 0.32244 0.92519 0.0
H958 H 0.9617 0.3152 0.94321 0.0
H959 H 0.98932 0.33475 0.96553 0.0
C960 C 0.56173 0.59354 0.40033 0.0
C961 C 0.58168 0.61438 0.40937 0.0
C962 C 0.53054 0.59604 0.40545 0.0
C963 C 0.51888 0.61997 0.41994 0.0
C964 C 0.53871 0.64142 0.42818 0.0
C965 C 0.56984 0.63838 0.42282 0.0
C966 C 0.51015 0.5727 0.39625 0.0
C967 C 0.52715 0.66729 0.44357 0.0
C968 C 0.43456 0.63289 0.41186 0.0
C969 C 0.42366 0.62337 0.44227 0.0
C970 C 0.46551 0.63233 0.40443 0.0
C971 C 0.48612 0.62193 0.42789 0.0
C972 C 0.47536 0.61266 0.45877 0.0
C973 C 0.44434 0.61351 0.46559 0.0
C974 C 0.47611 0.64247 0.37126 0.0
C975 C 0.49659 0.60138 0.48446 0.0
H976 H 0.5705 0.57492 0.38989 0.0
H977 H 0.58495 0.65464 0.42991 0.0
H978 H 0.49935 0.56438 0.41876 0.0
H979 H 0.49185 0.57985 0.37976 0.0
H980 H 0.52252 0.55607 0.38368 0.0
H981 H 0.54521 0.68269 0.44669 0.0
H982 H 0.50896 0.67611 0.42817 0.0
H983 H 0.5173 0.6628 0.46812 0.0
H984 H 0.41887 0.64057 0.39362 0.0
H985 H 0.43628 0.60606 0.48914 0.0
H986 H 0.48682 0.62565 0.35736 0.0
H987 H 0.49345 0.65846 0.37458 0.0
H988 H 0.45739 0.65086 0.35621 0.0
H989 H 0.50822 0.58318 0.4746 0.0
H990 H 0.48476 0.59564 0.50758 0.0
H991 H 0.51422 0.61655 0.49048 0.0
C992 C 0.25947 0.13001 0.18572 0.0
C993 C 0.28599 0.14306 0.17583 0.0
C994 C 0.24589 0.13591 0.21604 0.0
C995 C 0.25944 0.15514 0.23735 0.0
C996 C 0.28461 0.1703 0.22609 0.0
C997 C 0.29767 0.16408 0.19526 0.0
C998 C 0.2188 0.11948 0.22658 0.0
C999 C 0.29939 0.19134 0.24767 0.0
C1000 C 0.21258 0.16357 0.31518 0.0
C1001 C 0.22396 0.14213 0.33414 0.0
C1002 C 0.22573 0.17015 0.28451 0.0
C1003 C 0.25072 0.15491 0.27292 0.0
C1004 C 0.26401 0.13522 0.29381 0.0
C1005 C 0.25033 0.12897 0.32398 0.0
C1006 C 0.21122 0.19165 0.26338 0.0
C1007 C 0.29092 0.11871 0.28293 0.0
H1008 H 0.25033 0.11389 0.1705 0.0
H1009 H 0.31825 0.17414 0.18766 0.0
H1010 H 0.22563 0.1048 0.24595 0.0
H1011 H 0.20121 0.13283 0.23724 0.0
H1012 H 0.2088 0.10797 0.20573 0.0
H1013 H 0.31307 0.20578 0.23291 0.0
H1014 H 0.28235 0.20286 0.262 0.0
H1015 H 0.31456 0.1811 0.26551 0.0
H1016 H 0.19211 0.17373 0.32299 0.0
H1017 H 0.25925 0.11252 0.33883 0.0
H1018 H 0.19596 0.18183 0.24529 0.0
H1019 H 0.2284 0.20324 0.24934 0.0
H1020 H 0.19767 0.20598 0.27845 0.0
H1021 H 0.28394 0.10438 0.26324 0.0
H1022 H 0.30078 0.10679 0.30353 0.0
H1023 H 0.30867 0.13205 0.27257 0.0
C1024 C 0.2938 0.83535 0.81499 0.0
C1025 C 0.28239 0.85651 0.83438 0.0
C1026 C 0.28042 0.82898 0.78438 0.0
C1027 C 0.25518 0.84413 0.77329 0.0
C1028 C 0.24191 0.86352 0.7946 0.0
C1029 C 0.25583 0.86959 0.8247 0.0
C1030 C 0.29494 0.80782 0.76278 0.0
C1031 C 0.21476 0.87994 0.78425 0.0
C1032 C 0.24559 0.86962 0.68639 0.0
C1033 C 0.21922 0.85633 0.67648 0.0
C1034 C 0.25935 0.86369 0.71661 0.0
C1035 C 0.24614 0.84418 0.73781 0.0
C1036 C 0.2211 0.82885 0.72655 0.0
C1037 C 0.20786 0.83511 0.69583 0.0
C1038 C 0.28629 0.88032 0.72715 0.0
C1039 C 0.20667 0.80755 0.74805 0.0
H1040 H 0.31443 0.82529 0.82243 0.0
H1041 H 0.24692 0.88584 0.83987 0.0
H1042 H 0.27773 0.79616 0.74889 0.0
H1043 H 0.30981 0.81795 0.74455 0.0
H1044 H 0.30888 0.79351 0.77745 0.0
H1045 H 0.20494 0.89152 0.80515 0.0
H1046 H 0.22144 0.89455 0.76475 0.0
H1047 H 0.19706 0.86657 0.77382 0.0
H1048 H 0.2545 0.8859 0.67125 0.0
H1049 H 0.18739 0.82486 0.68821 0.0
H1050 H 0.30412 0.86707 0.7375 0.0
H1051 H 0.2794 0.89475 0.74676 0.0
H1052 H 0.29601 0.89212 0.70637 0.0
H1053 H 0.22391 0.79603 0.76207 0.0
H1054 H 0.19298 0.79313 0.73326 0.0
H1055 H 0.19157 0.81754 0.76616 0.0
C1056 C 0.74246 0.87698 0.82965 0.0
C1057 C 0.71703 0.86096 0.83624 0.0
C1058 C 0.75623 0.87679 0.79836 0.0
C1059 C 0.7448 0.85966 0.7732 0.0
C1060 C 0.71975 0.84275 0.78012 0.0
C1061 C 0.70594 0.84388 0.81136 0.0
C1062 C 0.78248 0.89554 0.79192 0.0
C1063 C 0.70731 0.82366 0.7544 0.0
C1064 C 0.7607 0.87803 0.68334 0.0
C1065 C 0.78607 0.86208 0.6763 0.0
C1066 C 0.74707 0.87743 0.71471 0.0
C1067 C 0.7586 0.85994 0.73946 0.0
C1068 C 0.78364 0.84316 0.73209 0.0
C1069 C 0.7973 0.84469 0.7008 0.0
C1070 C 0.72082 0.89606 0.72162 0.0
C1071 C 0.79618 0.82372 0.75737 0.0
H1072 H 0.75099 0.8904 0.84865 0.0
H1073 H 0.68637 0.83135 0.8163 0.0
H1074 H 0.80241 0.88371 0.78384 0.0
H1075 H 0.77674 0.90976 0.77165 0.0
H1076 H 0.78876 0.90755 0.81406 0.0
H1077 H 0.68899 0.81062 0.76428 0.0
H1078 H 0.69832 0.83542 0.73327 0.0
H1079 H 0.72554 0.81045 0.74476 0.0
H1080 H 0.75206 0.89168 0.66465 0.0
H1081 H 0.81683 0.83222 0.6955 0.0
H1082 H 0.72654 0.90989 0.74228 0.0
H1083 H 0.70088 0.88407 0.72935 0.0
H1084 H 0.71456 0.90847 0.69981 0.0
H1085 H 0.80508 0.83518 0.77879 0.0
H1086 H 0.81458 0.81093 0.74721 0.0
H1087 H 0.77801 0.81027 0.76668 0.0
C1088 C 0.80023 0.15219 0.30894 0.0
C1089 C 0.78892 0.13536 0.33398 0.0
C1090 C 0.78632 0.15344 0.27778 0.0
C1091 C 0.76092 0.13692 0.27107 0.0
C1092 C 0.74929 0.12 0.29636 0.0
C1093 C 0.76319 0.1197 0.3276 0.0
C1094 C 0.79901 0.1723 0.25193 0.0
C1095 C 0.72266 0.10166 0.29014 0.0
C1096 C 0.70853 0.15315 0.19896 0.0
C1097 C 0.71935 0.13576 0.17426 0.0
C1098 C 0.72224 0.15421 0.23026 0.0
C1099 C 0.7469 0.13691 0.23743 0.0
C1100 C 0.75797 0.11937 0.21249 0.0
C1101 C 0.74433 0.11926 0.18113 0.0
C1102 C 0.7102 0.17374 0.25572 0.0
C1103 C 0.78379 0.10019 0.2192 0.0
H1104 H 0.82003 0.16445 0.31373 0.0
H1105 H 0.75449 0.10647 0.34672 0.0
H1106 H 0.80753 0.16037 0.23069 0.0
H1107 H 0.78101 0.18586 0.24248 0.0
H1108 H 0.81772 0.18497 0.26161 0.0
H1109 H 0.71631 0.08973 0.31232 0.0
H1110 H 0.70289 0.1138 0.28224 0.0
H1111 H 0.72799 0.08738 0.26981 0.0
H1112 H 0.68929 0.16602 0.1938 0.0
H1113 H 0.75263 0.10558 0.16228 0.0
H1114 H 0.72867 0.1869 0.26492 0.0
H1115 H 0.70126 0.16234 0.27717 0.0
H1116 H 0.69196 0.18682 0.24576 0.0
H1117 H 0.80407 0.11177 0.22678 0.0
H1118 H 0.78959 0.08767 0.19733 0.0
H1119 H 0.77785 0.08646 0.2399 0.0
C1120 C 0.70608 0.66281 0.31526 0.0
C1121 C 0.7187 0.6431 0.33597 0.0
C1122 C 0.71933 0.66871 0.28445 0.0
C1123 C 0.74562 0.65452 0.27448 0.0
C1124 C 0.76001 0.63682 0.29706 0.0
C1125 C 0.74623 0.63119 0.32736 0.0
C1126 C 0.70359 0.68813 0.26147 0.0
C1127 C 0.78829 0.62151 0.2879 0.0
C1128 C 0.75656 0.62585 0.18922 0.0
C1129 C 0.78187 0.64015 0.17813 0.0
C1130 C 0.7427 0.63222 0.21924 0.0
C1131 C 0.75469 0.65329 0.23904 0.0
C1132 C 0.7786 0.66944 0.22658 0.0
C1133 C 0.79196 0.66269 0.19607 0.0
C1134 C 0.71697 0.61465 0.23108 0.0
C1135 C 0.79172 0.69236 0.24656 0.0
H1136 H 0.68469 0.67194 0.32188 0.0
H1137 H 0.75601 0.61603 0.34353 0.0
H1138 H 0.72011 0.70012 0.247 0.0
H1139 H 0.68958 0.67646 0.24379 0.0
H1140 H 0.6886 0.70223 0.27515 0.0
H1141 H 0.79882 0.61154 0.3096 0.0
H1142 H 0.78269 0.60562 0.2695 0.0
H1143 H 0.80505 0.63531 0.27651 0.0
H1144 H 0.74855 0.60859 0.17513 0.0
H1145 H 0.81158 0.67376 0.18753 0.0
H1146 H 0.69824 0.62736 0.24049 0.0
H1147 H 0.72483 0.60163 0.25169 0.0
H1148 H 0.70809 0.60131 0.21125 0.0
H1149 H 0.77383 0.70348 0.26008 0.0
H1150 H 0.8043 0.70686 0.23074 0.0
H1151 H 0.8076 0.68397 0.26507 0.0
C1152 C 0.71417 0.33391 0.69511 0.0
C1153 C 0.72533 0.35532 0.67593 0.0
C1154 C 0.72749 0.32757 0.72576 0.0
C1155 C 0.7524 0.34302 0.73714 0.0
C1156 C 0.76546 0.36269 0.71605 0.0
C1157 C 0.75164 0.36869 0.68588 0.0
C1158 C 0.71323 0.30607 0.74711 0.0
C1159 C 0.79227 0.37944 0.7267 0.0
C1160 C 0.76121 0.36833 0.82419 0.0
C1161 C 0.78786 0.35549 0.83408 0.0
C1162 C 0.74761 0.36224 0.79393 0.0
C1163 C 0.76126 0.34302 0.77268 0.0
C1164 C 0.78658 0.32807 0.78395 0.0
C1165 C 0.79967 0.3345 0.8147 0.0
C1166 C 0.72037 0.37845 0.78339 0.0
C1167 C 0.80148 0.30705 0.76243 0.0
H1168 H 0.69376 0.3236 0.68746 0.0
H1169 H 0.76038 0.38513 0.67087 0.0
H1170 H 0.73057 0.29464 0.7611 0.0
H1171 H 0.698 0.31588 0.76524 0.0
H1172 H 0.69971 0.2916 0.73221 0.0
H1173 H 0.80196 0.39132 0.70597 0.0
H1174 H 0.78524 0.39381 0.74632 0.0
H1175 H 0.81017 0.36626 0.73707 0.0
H1176 H 0.75198 0.38445 0.83934 0.0
H1177 H 0.82036 0.3246 0.8223 0.0
H1178 H 0.70284 0.36495 0.77289 0.0
H1179 H 0.72702 0.39309 0.76389 0.0
H1180 H 0.71034 0.39 0.8042 0.0
H1181 H 0.7845 0.29535 0.74824 0.0
H1182 H 0.81533 0.29277 0.77722 0.0
H1183 H 0.8165 0.31733 0.74447 0.0
C1184 C 0.26449 0.37729 0.68119 0.0
C1185 C 0.29007 0.36139 0.67493 0.0
C1186 C 0.25065 0.37732 0.71247 0.0
C1187 C 0.26219 0.36054 0.73792 0.0
C1188 C 0.28741 0.34376 0.73133 0.0
C1189 C 0.30127 0.34466 0.70012 0.0
C1190 C 0.22421 0.39593 0.71854 0.0
C1191 C 0.29998 0.32504 0.75739 0.0
C1192 C 0.24601 0.3795 0.82753 0.0
C1193 C 0.22081 0.36338 0.83475 0.0
C1194 C 0.25963 0.3788 0.79617 0.0
C1195 C 0.24831 0.36103 0.77162 0.0
C1196 C 0.22345 0.34409 0.77917 0.0
C1197 C 0.20976 0.34573 0.81043 0.0
C1198 C 0.28568 0.39762 0.78905 0.0
C1199 C 0.21114 0.32433 0.75412 0.0
H1200 H 0.25587 0.39044 0.66196 0.0
H1201 H 0.32096 0.33223 0.69542 0.0
H1202 H 0.20437 0.38402 0.72675 0.0
H1203 H 0.22977 0.41039 0.7386 0.0
H1204 H 0.21787 0.40766 0.6962 0.0
H1205 H 0.31847 0.31206 0.74777 0.0
H1206 H 0.30879 0.33709 0.77837 0.0
H1207 H 0.28187 0.31176 0.76717 0.0
H1208 H 0.25449 0.39337 0.84608 0.0
H1209 H 0.19036 0.33313 0.81588 0.0
H1210 H 0.27985 0.41119 0.76816 0.0
H1211 H 0.30578 0.38575 0.78156 0.0
H1212 H 0.29174 0.41031 0.81069 0.0
H1213 H 0.2022 0.33553 0.73251 0.0
H1214 H 0.19282 0.31151 0.7644 0.0
H1215 H 0.22945 0.31093 0.74505 0.0
C1216 C 0.26081 0.61956 0.32821 0.0
C1217 C 0.28599 0.63573 0.33534 0.0
C1218 C 0.2472 0.62012 0.29683 0.0
C1219 C 0.25852 0.63781 0.27218 0.0
C1220 C 0.28337 0.6548 0.27963 0.0
C1221 C 0.29704 0.65328 0.31091 0.0
C1222 C 0.22117 0.60126 0.28982 0.0
C1223 C 0.29566 0.67447 0.25447 0.0
C1224 C 0.24227 0.62142 0.18181 0.0
C1225 C 0.21667 0.6373 0.17555 0.0
C1226 C 0.25612 0.62141 0.21307 0.0
C1227 C 0.2446 0.63823 0.23851 0.0
C1228 C 0.21936 0.65499 0.23191 0.0
C1229 C 0.20548 0.65404 0.20072 0.0
C1230 C 0.28256 0.60281 0.21916 0.0
C1231 C 0.20681 0.67376 0.25793 0.0
H1232 H 0.25232 0.60577 0.34684 0.0
H1233 H 0.31642 0.66592 0.31629 0.0
H1234 H 0.20105 0.6131 0.28235 0.0
H1235 H 0.22699 0.58767 0.26895 0.0
H1236 H 0.21517 0.58859 0.31151 0.0
H1237 H 0.31402 0.68731 0.26466 0.0
H1238 H 0.30455 0.66321 0.23289 0.0
H1239 H 0.27736 0.68787 0.24539 0.0
H1240 H 0.25087 0.60826 0.16259 0.0
H1241 H 0.18578 0.66646 0.19601 0.0
H1242 H 0.27703 0.5884 0.2393 0.0
H1243 H 0.30242 0.61473 0.22729 0.0
H1244 H 0.28886 0.59103 0.19685 0.0
H1245 H 0.19805 0.66174 0.27897 0.0
H1246 H 0.1883 0.6867 0.2483 0.0
H1247 H 0.22494 0.68706 0.26763 0.0
loop_
_geom_bond_atom_site_label_1
_geom_bond_atom_site_label_2
_geom_bond_distance
_geom_bond_site_symmetry_2
_ccdc_geom_bond_type
Co0 O1 2.216 . S
Co0 O2 2.091 . S
Co0 O4 2.004 . S
Co0 O10 2.021 . S
Co0 O12 2.137 . S
Co0 O13 2.244 . S
O1 Co0 2.216 . S
O1 C8 1.247 . S
O2 Co0 2.091 . S
O2 C8 1.261 . S
C3 O12 1.247 . S
C3 O13 1.272 . S
O4 Co0 2.004 . S
O4 C9 1.259 . S
Co5 O6 2.061 . S
Co5 O11 2.052 . S
Co5 O13 2.135 . S
O6 Co5 2.061 . S
O6 C9 1.235 . S
C7 O10 1.238 . S
C7 O11 1.241 . S
C8 O1 1.247 . S
C8 O2 1.261 . S
C9 O4 1.259 . S
C9 O6 1.235 . S
O10 Co0 2.021 . S
O10 C7 1.238 . S
O11 Co5 2.052 . S
O11 C7 1.241 . S
O12 Co0 2.137 . S
O12 C3 1.247 . S
O13 Co0 2.244 . S
O13 C3 1.272 . S
O13 Co5 2.135 . S
Co14 O15 2.216 . S
Co14 O16 2.091 . S
Co14 O18 2.004 . S
Co14 O24 2.021 . S
Co14 O26 2.137 . S
Co14 O27 2.244 . S
O15 Co14 2.216 . S
O15 C22 1.247 . S
O16 Co14 2.091 . S
O16 C22 1.261 . S
C17 O26 1.247 . S
C17 O27 1.272 . S
O18 Co14 2.004 . S
O18 C23 1.259 . S
Co19 O20 2.061 . S
Co19 O25 2.052 . S
Co19 O27 2.135 . S
O20 Co19 2.061 . S
O20 C23 1.235 . S
C21 O24 1.238 . S
C21 O25 1.241 . S
C22 O15 1.247 . S
C22 O16 1.261 . S
C23 O18 1.259 . S
C23 O20 1.235 . S
O24 Co14 2.021 . S
O24 C21 1.238 . S
O25 Co19 2.052 . S
O25 C21 1.241 . S
O26 Co14 2.137 . S
O26 C17 1.247 . S
O27 Co14 2.244 . S
O27 C17 1.272 . S
O27 Co19 2.135 . S
Co28 O29 2.216 . S
Co28 O30 2.091 . S
Co28 O32 2.004 . S
Co28 O38 2.021 . S
Co28 O40 2.137 . S
Co28 O41 2.244 . S
O29 Co28 2.216 . S
O29 C36 1.247 . S
O30 Co28 2.091 . S
O30 C36 1.261 . S
C31 O40 1.247 . S
C31 O41 1.272 . S
O32 Co28 2.004 . S
O32 C37 1.259 . S
Co33 O34 2.061 . S
Co33 O39 2.052 . S
Co33 O41 2.135 . S
O34 Co33 2.061 . S
O34 C37 1.235 . S
C35 O38 1.238 . S
C35 O39 1.241 . S
C36 O29 1.247 . S
C36 O30 1.261 . S
C37 O32 1.259 . S
C37 O34 1.235 . S
O38 Co28 2.021 . S
O38 C35 1.238 . S
O39 Co33 2.052 . S
O39 C35 1.241 . S
O40 Co28 2.137 . S
O40 C31 1.247 . S
O41 Co28 2.244 . S
O41 C31 1.272 . S
O41 Co33 2.135 . S
Co42 O43 2.216 . S
Co42 O44 2.091 . S
Co42 O46 2.004 . S
Co42 O52 2.021 . S
Co42 O54 2.137 . S
Co42 O55 2.244 . S
O43 Co42 2.216 . S
O43 C50 1.247 . S
O44 Co42 2.091 . S
O44 C50 1.261 . S
C45 O54 1.247 . S
C45 O55 1.272 . S
O46 Co42 2.004 . S
O46 C51 1.259 . S
Co47 O48 2.061 . S
Co47 O53 2.052 . S
Co47 O55 2.135 . S
O48 Co47 2.061 . S
O48 C51 1.235 . S
C49 O52 1.238 . S
C49 O53 1.241 . S
C50 O43 1.247 . S
C50 O44 1.261 . S
C51 O46 1.259 . S
C51 O48 1.235 . S
O52 Co42 2.021 . S
O52 C49 1.238 . S
O53 Co47 2.052 . S
O53 C49 1.241 . S
O54 Co42 2.137 . S
O54 C45 1.247 . S
O55 Co42 2.244 . S
O55 C45 1.272 . S
O55 Co47 2.135 . S
Co56 O57 2.216 . S
Co56 O58 2.091 . S
Co56 O60 2.004 . S
Co56 O66 2.021 . S
Co56 O68 2.137 . S
Co56 O69 2.244 . S
O57 Co56 2.216 . S
O57 C64 1.247 . S
O58 Co56 2.091 . S
O58 C64 1.261 . S
C59 O68 1.247 . S
C59 O69 1.272 . S
O60 Co56 2.004 . S
O60 C65 1.259 . S
Co61 O62 2.061 . S
Co61 O67 2.052 . S
Co61 O69 2.135 . S
O62 Co61 2.061 . S
O62 C65 1.235 . S
C63 O66 1.238 . S
C63 O67 1.241 . S
C64 O57 1.247 . S
C64 O58 1.261 . S
C65 O60 1.259 . S
C65 O62 1.235 . S
O66 Co56 2.021 . S
O66 C63 1.238 . S
O67 Co61 2.052 . S
O67 C63 1.241 . S
O68 Co56 2.137 . S
O68 C59 1.247 . S
O69 Co56 2.244 . S
O69 C59 1.272 . S
O69 Co61 2.135 . S
Co70 O71 2.216 . S
Co70 O72 2.091 . S
Co70 O74 2.004 . S
Co70 O80 2.021 . S
Co70 O82 2.137 . S
Co70 O83 2.244 . S
O71 Co70 2.216 . S
O71 C78 1.247 . S
O72 Co70 2.091 . S
O72 C78 1.261 . S
C73 O82 1.247 . S
C73 O83 1.272 . S
O74 Co70 2.004 . S
O74 C79 1.259 . S
Co75 O76 2.061 . S
Co75 O81 2.052 . S
Co75 O83 2.135 . S
O76 Co75 2.061 . S
O76 C79 1.235 . S
C77 O80 1.238 . S
C77 O81 1.241 . S
C78 O71 1.247 . S
C78 O72 1.261 . S
C79 O74 1.259 . S
C79 O76 1.235 . S
O80 Co70 2.021 . S
O80 C77 1.238 . S
O81 Co75 2.052 . S
O81 C77 1.241 . S
O82 Co70 2.137 . S
O82 C73 1.247 . S
O83 Co70 2.244 . S
O83 C73 1.272 . S
O83 Co75 2.135 . S
Co84 O85 2.216 . S
Co84 O86 2.091 . S
Co84 O88 2.004 . S
Co84 O94 2.021 . S
Co84 O96 2.137 . S
Co84 O97 2.244 . S
O85 Co84 2.216 . S
O85 C92 1.247 . S
O86 Co84 2.091 . S
O86 C92 1.261 . S
C87 O96 1.247 . S
C87 O97 1.272 . S
O88 Co84 2.004 . S
O88 C93 1.259 . S
Co89 O90 2.061 . S
Co89 O95 2.052 . S
Co89 O97 2.135 . S
O90 Co89 2.061 . S
O90 C93 1.235 . S
C91 O94 1.238 . S
C91 O95 1.241 . S
C92 O85 1.247 . S
C92 O86 1.261 . S
C93 O88 1.259 . S
C93 O90 1.235 . S
O94 Co84 2.021 . S
O94 C91 1.238 . S
O95 Co89 2.052 . S
O95 C91 1.241 . S
O96 Co84 2.137 . S
O96 C87 1.247 . S
O97 Co84 2.244 . S
O97 C87 1.272 . S
O97 Co89 2.135 . S
Co98 O99 2.216 . S
Co98 O100 2.091 . S
Co98 O102 2.004 . S
Co98 O108 2.021 . S
Co98 O110 2.137 . S
Co98 O111 2.244 . S
O99 Co98 2.216 . S
O99 C106 1.247 . S
O100 Co98 2.091 . S
O100 C106 1.261 . S
C101 O110 1.247 . S
C101 O111 1.272 . S
O102 Co98 2.004 . S
O102 C107 1.259 . S
Co103 O104 2.061 . S
Co103 O109 2.052 . S
Co103 O111 2.135 . S
O104 Co103 2.061 . S
O104 C107 1.235 . S
C105 O108 1.238 . S
C105 O109 1.241 . S
C106 O99 1.247 . S
C106 O100 1.261 . S
C107 O102 1.259 . S
C107 O104 1.235 . S
O108 Co98 2.021 . S
O108 C105 1.238 . S
O109 Co103 2.052 . S
O109 C105 1.241 . S
O110 Co98 2.137 . S
O110 C101 1.247 . S
O111 Co98 2.244 . S
O111 C101 1.272 . S
O111 Co103 2.135 . S
Co112 O113 2.216 . S
Co112 O114 2.091 . S
Co112 O116 2.004 . S
Co112 O122 2.021 . S
Co112 O124 2.137 . S
Co112 O125 2.244 . S
O113 Co112 2.216 . S
O113 C120 1.247 . S
O114 Co112 2.091 . S
O114 C120 1.261 . S
C115 O124 1.247 . S
C115 O125 1.272 . S
O116 Co112 2.004 . S
O116 C121 1.259 . S
Co117 O118 2.061 . S
Co117 O123 2.052 . S
Co117 O125 2.135 . S
O118 Co117 2.061 . S
O118 C121 1.235 . S
C119 O122 1.238 . S
C119 O123 1.241 . S
C120 O113 1.247 . S
C120 O114 1.261 . S
C121 O116 1.259 . S
C121 O118 1.235 . S
O122 Co112 2.021 . S
O122 C119 1.238 . S
O123 Co117 2.052 . S
O123 C119 1.241 . S
O124 Co112 2.137 . S
O124 C115 1.247 . S
O125 Co112 2.244 . S
O125 C115 1.272 . S
O125 Co117 2.135 . S
Co126 O127 2.216 . S
Co126 O128 2.091 . S
Co126 O130 2.004 . S
Co126 O136 2.021 . S
Co126 O138 2.137 . S
Co126 O139 2.244 . S
O127 Co126 2.216 . S
O127 C134 1.247 . S
O128 Co126 2.091 . S
O128 C134 1.261 . S
C129 O138 1.247 . S
C129 O139 1.272 . S
O130 Co126 2.004 . S
O130 C135 1.259 . S
Co131 O132 2.061 . S
Co131 O137 2.052 . S
Co131 O139 2.135 . S
O132 Co131 2.061 . S
O132 C135 1.235 . S
C133 O136 1.238 . S
C133 O137 1.241 . S
C134 O127 1.247 . S
C134 O128 1.261 . S
C135 O130 1.259 . S
C135 O132 1.235 . S
O136 Co126 2.021 . S
O136 C133 1.238 . S
O137 Co131 2.052 . S
O137 C133 1.241 . S
O138 Co126 2.137 . S
O138 C129 1.247 . S
O139 Co126 2.244 . S
O139 C129 1.272 . S
O139 Co131 2.135 . S
Co140 O141 2.216 . S
Co140 O142 2.091 . S
Co140 O144 2.004 . S
Co140 O150 2.021 . S
Co140 O152 2.137 . S
Co140 O153 2.244 . S
O141 Co140 2.216 . S
O141 C148 1.247 . S
O142 Co140 2.091 . S
O142 C148 1.261 . S
C143 O152 1.247 . S
C143 O153 1.272 . S
O144 Co140 2.004 . S
O144 C149 1.259 . S
Co145 O146 2.061 . S
Co145 O151 2.052 . S
Co145 O153 2.135 . S
O146 Co145 2.061 . S
O146 C149 1.235 . S
C147 O150 1.238 . S
C147 O151 1.241 . S
C148 O141 1.247 . S
C148 O142 1.261 . S
C149 O144 1.259 . S
C149 O146 1.235 . S
O150 Co140 2.021 . S
O150 C147 1.238 . S
O151 Co145 2.052 . S
O151 C147 1.241 . S
O152 Co140 2.137 . S
O152 C143 1.247 . S
O153 Co140 2.244 . S
O153 C143 1.272 . S
O153 Co145 2.135 . S
Co154 O155 2.216 . S
Co154 O156 2.091 . S
Co154 O158 2.004 . S
Co154 O164 2.021 . S
Co154 O166 2.137 . S
Co154 O167 2.244 . S
O155 Co154 2.216 . S
O155 C162 1.247 . S
O156 Co154 2.091 . S
O156 C162 1.261 . S
C157 O166 1.247 . S
C157 O167 1.272 . S
O158 Co154 2.004 . S
O158 C163 1.259 . S
Co159 O160 2.061 . S
Co159 O165 2.052 . S
Co159 O167 2.135 . S
O160 Co159 2.061 . S
O160 C163 1.235 . S
C161 O164 1.238 . S
C161 O165 1.241 . S
C162 O155 1.247 . S
C162 O156 1.261 . S
C163 O158 1.259 . S
C163 O160 1.235 . S
O164 Co154 2.021 . S
O164 C161 1.238 . S
O165 Co159 2.052 . S
O165 C161 1.241 . S
O166 Co154 2.137 . S
O166 C157 1.247 . S
O167 Co154 2.244 . S
O167 C157 1.272 . S
O167 Co159 2.135 . S
Co168 O169 2.216 . S
Co168 O170 2.091 . S
Co168 O172 2.004 . S
Co168 O178 2.021 . S
Co168 O180 2.137 . S
Co168 O181 2.244 . S
O169 Co168 2.216 . S
O169 C176 1.247 . S
O170 Co168 2.091 . S
O170 C176 1.261 . S
C171 O180 1.247 . S
C171 O181 1.272 . S
O172 Co168 2.004 . S
O172 C177 1.259 . S
Co173 O174 2.061 . S
Co173 O179 2.052 . S
Co173 O181 2.135 . S
O174 Co173 2.061 . S
O174 C177 1.235 . S
C175 O178 1.238 . S
C175 O179 1.241 . S
C176 O169 1.247 . S
C176 O170 1.261 . S
C177 O172 1.259 . S
C177 O174 1.235 . S
O178 Co168 2.021 . S
O178 C175 1.238 . S
O179 Co173 2.052 . S
O179 C175 1.241 . S
O180 Co168 2.137 . S
O180 C171 1.247 . S
O181 Co168 2.244 . S
O181 C171 1.272 . S
O181 Co173 2.135 . S
Co182 O183 2.216 . S
Co182 O184 2.091 . S
Co182 O186 2.004 . S
Co182 O192 2.021 . S
Co182 O194 2.137 . S
Co182 O195 2.244 . S
O183 Co182 2.216 . S
O183 C190 1.247 . S
O184 Co182 2.091 . S
O184 C190 1.261 . S
C185 O194 1.247 . S
C185 O195 1.272 . S
O186 Co182 2.004 . S
O186 C191 1.259 . S
Co187 O188 2.061 . S
Co187 O193 2.052 . S
Co187 O195 2.135 . S
O188 Co187 2.061 . S
O188 C191 1.235 . S
C189 O192 1.238 . S
C189 O193 1.241 . S
C190 O183 1.247 . S
C190 O184 1.261 . S
C191 O186 1.259 . S
C191 O188 1.235 . S
O192 Co182 2.021 . S
O192 C189 1.238 . S
O193 Co187 2.052 . S
O193 C189 1.241 . S
O194 Co182 2.137 . S
O194 C185 1.247 . S
O195 Co182 2.244 . S
O195 C185 1.272 . S
O195 Co187 2.135 . S
Co196 O197 2.216 . S
Co196 O198 2.091 . S
Co196 O200 2.004 . S
Co196 O206 2.021 . S
Co196 O208 2.137 . S
Co196 O209 2.244 . S
O197 Co196 2.216 . S
O197 C204 1.247 . S
O198 Co196 2.091 . S
O198 C204 1.261 . S
C199 O208 1.247 . S
C199 O209 1.272 . S
O200 Co196 2.004 . S
O200 C205 1.259 . S
Co201 O202 2.061 . S
Co201 O207 2.052 . S
Co201 O209 2.135 . S
O202 Co201 2.061 . S
O202 C205 1.235 . S
C203 O206 1.238 . S
C203 O207 1.241 . S
C204 O197 1.247 . S
C204 O198 1.261 . S
C205 O200 1.259 . S
C205 O202 1.235 . S
O206 Co196 2.021 . S
O206 C203 1.238 . S
O207 Co201 2.052 . S
O207 C203 1.241 . S
O208 Co196 2.137 . S
O208 C199 1.247 . S
O209 Co196 2.244 . S
O209 C199 1.272 . S
O209 Co201 2.135 . S
Co210 O211 2.216 . S
Co210 O212 2.091 . S
Co210 O214 2.004 . S
Co210 O220 2.021 . S
Co210 O222 2.137 . S
Co210 O223 2.244 . S
O211 Co210 2.216 . S
O211 C218 1.247 . S
O212 Co210 2.091 . S
O212 C218 1.261 . S
C213 O222 1.247 . S
C213 O223 1.272 . S
O214 Co210 2.004 . S
O214 C219 1.259 . S
Co215 O216 2.061 . S
Co215 O221 2.052 . S
Co215 O223 2.135 . S
O216 Co215 2.061 . S
O216 C219 1.235 . S
C217 O220 1.238 . S
C217 O221 1.241 . S
C218 O211 1.247 . S
C218 O212 1.261 . S
C219 O214 1.259 . S
C219 O216 1.235 . S
O220 Co210 2.021 . S
O220 C217 1.238 . S
O221 Co215 2.052 . S
O221 C217 1.241 . S
O222 Co210 2.137 . S
O222 C213 1.247 . S
O223 Co210 2.244 . S
O223 C213 1.272 . S
O223 Co215 2.135 . S
C224 C225 1.391 . S
C224 C226 1.394 1_554 S
C224 H240 0.931 1_554 S
C225 C224 1.391 . S
C225 C229 1.376 . S
C226 C224 1.394 1_556 S
C226 C227 1.369 . S
C226 C230 1.531 . S
C227 C226 1.369 . S
C227 C228 1.410 1_556 S
C227 C235 1.503 . S
C228 C227 1.410 1_554 S
C228 C229 1.392 . S
C228 C231 1.511 . S
C229 C225 1.376 . S
C229 C228 1.392 . S
C229 H241 0.929 . S
C230 C226 1.531 . S
C230 H242 0.960 . S
C230 H243 0.962 . S
C230 H244 0.960 . S
C231 C228 1.511 . S
C231 H245 0.961 . S
C231 H246 0.961 . S
C231 H247 0.961 . S
C232 C233 1.370 . S
C232 C234 1.363 . S
C232 H248 0.931 . S
C233 C232 1.370 . S
C233 C237 1.408 . S
C234 C232 1.363 . S
C234 C235 1.370 . S
C234 C238 1.524 1_556 S
C235 C227 1.503 . S
C235 C234 1.370 . S
C235 C236 1.403 . S
C236 C235 1.403 . S
C236 C237 1.404 . S
C236 C239 1.539 . S
C237 C233 1.408 . S
C237 C236 1.404 . S
C237 H249 0.930 . S
C238 C234 1.524 1_554 S
C238 H250 0.956 . S
C238 H251 0.961 . S
C238 H252 0.961 . S
C239 C236 1.539 . S
C239 H253 0.958 . S
C239 H254 0.961 . S
C239 H255 0.960 . S
H240 C224 0.931 1_556 S
H241 C229 0.929 . S
H242 C230 0.960 . S
H243 C230 0.962 . S
H244 C230 0.960 . S
H245 C231 0.961 . S
H246 C231 0.961 . S
H247 C231 0.961 . S
H248 C232 0.931 . S
H249 C237 0.930 . S
H250 C238 0.956 . S
H251 C238 0.961 . S
H252 C238 0.961 . S
H253 C239 0.958 . S
H254 C239 0.961 . S
H255 C239 0.960 . S
C256 C257 1.391 . S
C256 C258 1.394 . S
C256 H272 0.931 . S
C257 C256 1.391 . S
C257 C261 1.376 . S
C258 C256 1.394 . S
C258 C259 1.369 . S
C258 C262 1.531 . S
C259 C258 1.369 . S
C259 C260 1.410 . S
C259 C267 1.503 . S
C260 C259 1.410 . S
C260 C261 1.392 . S
C260 C263 1.511 . S
C261 C257 1.376 . S
C261 C260 1.392 . S
C261 H273 0.929 . S
C262 C258 1.531 . S
C262 H274 0.960 . S
C262 H275 0.962 . S
C262 H276 0.960 . S
C263 C260 1.511 . S
C263 H277 0.961 . S
C263 H278 0.961 . S
C263 H279 0.961 . S
C264 C265 1.370 . S
C264 C266 1.363 . S
C264 H280 0.931 . S
C265 C264 1.370 . S
C265 C269 1.408 . S
C266 C264 1.363 . S
C266 C267 1.370 . S
C266 C270 1.524 . S
C267 C259 1.503 . S
C267 C266 1.370 . S
C267 C268 1.403 . S
C268 C267 1.403 . S
C268 C269 1.404 . S
C268 C271 1.539 . S
C269 C265 1.408 . S
C269 C268 1.404 . S
C269 H281 0.930 . S
C270 C266 1.524 . S
C270 H282 0.956 . S
C270 H283 0.961 . S
C270 H284 0.961 . S
C271 C268 1.539 . S
C271 H285 0.958 . S
C271 H286 0.961 . S
C271 H287 0.960 . S
H272 C256 0.931 . S
H273 C261 0.929 . S
H274 C262 0.960 . S
H275 C262 0.962 . S
H276 C262 0.960 . S
H277 C263 0.961 . S
H278 C263 0.961 . S
H279 C263 0.961 . S
H280 C264 0.931 . S
H281 C269 0.930 . S
H282 C270 0.956 . S
H283 C270 0.961 . S
H284 C270 0.961 . S
H285 C271 0.958 . S
H286 C271 0.961 . S
H287 C271 0.960 . S
C288 C289 1.391 1_554 S
C288 C290 1.394 . S
C288 H304 0.931 . S
C289 C288 1.391 1_556 S
C289 C293 1.376 . S
C290 C288 1.394 . S
C290 C291 1.369 . S
C290 C294 1.531 . S
C291 C290 1.369 . S
C291 C292 1.410 1_554 S
C291 C299 1.503 . S
C292 C291 1.410 1_556 S
C292 C293 1.392 . S
C292 C295 1.511 . S
C293 C289 1.376 . S
C293 C292 1.392 . S
C293 H305 0.929 . S
C294 C290 1.531 . S
C294 H306 0.960 . S
C294 H307 0.962 . S
C294 H308 0.960 . S
C295 C292 1.511 . S
C295 H309 0.961 . S
C295 H310 0.961 . S
C295 H311 0.961 . S
C296 C297 1.370 . S
C296 C298 1.363 . S
C296 H312 0.931 . S
C297 C296 1.370 . S
C297 C301 1.408 . S
C298 C296 1.363 . S
C298 C299 1.370 . S
C298 C302 1.524 . S
C299 C291 1.503 . S
C299 C298 1.370 . S
C299 C300 1.403 . S
C300 C299 1.403 . S
C300 C301 1.404 . S
C300 C303 1.539 . S
C301 C297 1.408 . S
C301 C300 1.404 . S
C301 H313 0.930 . S
C302 C298 1.524 . S
C302 H314 0.956 . S
C302 H315 0.961 1_554 S
C302 H316 0.961 . S
C303 C300 1.539 . S
C303 H317 0.958 . S
C303 H318 0.961 . S
C303 H319 0.960 1_554 S
H304 C288 0.931 . S
H305 C293 0.929 . S
H306 C294 0.960 . S
H307 C294 0.962 . S
H308 C294 0.960 . S
H309 C295 0.961 . S
H310 C295 0.961 . S
H311 C295 0.961 . S
H312 C296 0.931 . S
H313 C301 0.930 . S
H314 C302 0.956 . S
H315 C302 0.961 1_556 S
H316 C302 0.961 . S
H317 C303 0.958 . S
H318 C303 0.961 . S
H319 C303 0.960 1_556 S
C320 C321 1.391 . S
C320 C322 1.394 . S
C320 H336 0.931 . S
C321 C320 1.391 . S
C321 C325 1.376 . S
C322 C320 1.394 . S
C322 C323 1.369 . S
C322 C326 1.531 . S
C323 C322 1.369 . S
C323 C324 1.410 . S
C323 C331 1.503 . S
C324 C323 1.410 . S
C324 C325 1.392 . S
C324 C327 1.511 . S
C325 C321 1.376 . S
C325 C324 1.392 . S
C325 H337 0.929 . S
C326 C322 1.531 . S
C326 H338 0.960 . S
C326 H339 0.962 . S
C326 H340 0.960 . S
C327 C324 1.511 . S
C327 H341 0.961 . S
C327 H342 0.961 . S
C327 H343 0.961 . S
C328 C329 1.370 . S
C328 C330 1.363 . S
C328 H344 0.931 . S
C329 C328 1.370 . S
C329 C333 1.408 . S
C330 C328 1.363 . S
C330 C331 1.370 . S
C330 C334 1.524 . S
C331 C323 1.503 . S
C331 C330 1.370 . S
C331 C332 1.403 . S
C332 C331 1.403 . S
C332 C333 1.404 . S
C332 C335 1.539 . S
C333 C329 1.408 . S
C333 C332 1.404 . S
C333 H345 0.930 . S
C334 C330 1.524 . S
C334 H346 0.956 . S
C334 H347 0.961 . S
C334 H348 0.961 . S
C335 C332 1.539 . S
C335 H349 0.958 . S
C335 H350 0.961 . S
C335 H351 0.960 . S
H336 C320 0.931 . S
H337 C325 0.929 . S
H338 C326 0.960 . S
H339 C326 0.962 . S
H340 C326 0.960 . S
H341 C327 0.961 . S
H342 C327 0.961 . S
H343 C327 0.961 . S
H344 C328 0.931 . S
H345 C333 0.930 . S
H346 C334 0.956 . S
H347 C334 0.961 . S
H348 C334 0.961 . S
H349 C335 0.958 . S
H350 C335 0.961 . S
H351 C335 0.960 . S
C352 C353 1.391 . S
C352 C354 1.394 1_554 S
C352 H368 0.931 . S
C353 C352 1.391 . S
C353 C357 1.376 . S
C354 C352 1.394 1_556 S
C354 C355 1.369 . S
C354 C358 1.531 . S
C355 C354 1.369 . S
C355 C356 1.410 1_556 S
C355 C363 1.503 . S
C356 C355 1.410 1_554 S
C356 C357 1.392 . S
C356 C359 1.511 . S
C357 C353 1.376 . S
C357 C356 1.392 . S
C357 H369 0.929 . S
C358 C354 1.531 . S
C358 H370 0.960 . S
C358 H371 0.962 . S
C358 H372 0.960 . S
C359 C356 1.511 . S
C359 H373 0.961 . S
C359 H374 0.961 . S
C359 H375 0.961 1_554 S
C360 C361 1.370 . S
C360 C362 1.363 . S
C360 H376 0.931 . S
C361 C360 1.370 . S
C361 C365 1.408 . S
C362 C360 1.363 . S
C362 C363 1.370 . S
C362 C366 1.524 1_556 S
C363 C355 1.503 . S
C363 C362 1.370 . S
C363 C364 1.403 . S
C364 C363 1.403 . S
C364 C365 1.404 . S
C364 C367 1.539 . S
C365 C361 1.408 . S
C365 C364 1.404 . S
C365 H377 0.930 . S
C366 C362 1.524 1_554 S
C366 H378 0.956 . S
C366 H379 0.961 . S
C366 H380 0.961 . S
C367 C364 1.539 . S
C367 H381 0.958 . S
C367 H382 0.961 . S
C367 H383 0.960 . S
H368 C352 0.931 . S
H369 C357 0.929 . S
H370 C358 0.960 . S
H371 C358 0.962 . S
H372 C358 0.960 . S
H373 C359 0.961 . S
H374 C359 0.961 . S
H375 C359 0.961 1_556 S
H376 C360 0.931 . S
H377 C365 0.930 . S
H378 C366 0.956 . S
H379 C366 0.961 . S
H380 C366 0.961 . S
H381 C367 0.958 . S
H382 C367 0.961 . S
H383 C367 0.960 . S
C384 C385 1.391 . S
C384 C386 1.394 . S
C384 H400 0.931 . S
C385 C384 1.391 . S
C385 C389 1.376 . S
C386 C384 1.394 . S
C386 C387 1.369 . S
C386 C390 1.531 . S
C387 C386 1.369 . S
C387 C388 1.410 . S
C387 C395 1.503 . S
C388 C387 1.410 . S
C388 C389 1.392 . S
C388 C391 1.511 . S
C389 C385 1.376 . S
C389 C388 1.392 . S
C389 H401 0.929 . S
C390 C386 1.531 . S
C390 H402 0.960 . S
C390 H403 0.962 . S
C390 H404 0.960 . S
C391 C388 1.511 . S
C391 H405 0.961 . S
C391 H406 0.961 . S
C391 H407 0.961 . S
C392 C393 1.370 . S
C392 C394 1.363 . S
C392 H408 0.931 . S
C393 C392 1.370 . S
C393 C397 1.408 . S
C394 C392 1.363 . S
C394 C395 1.370 . S
C394 C398 1.524 . S
C395 C387 1.503 . S
C395 C394 1.370 . S
C395 C396 1.403 . S
C396 C395 1.403 . S
C396 C397 1.404 . S
C396 C399 1.539 . S
C397 C393 1.408 . S
C397 C396 1.404 . S
C397 H409 0.930 . S
C398 C394 1.524 . S
C398 H410 0.956 . S
C398 H411 0.961 . S
C398 H412 0.961 . S
C399 C396 1.539 . S
C399 H413 0.958 . S
C399 H414 0.961 . S
C399 H415 0.960 . S
H400 C384 0.931 . S
H401 C389 0.929 . S
H402 C390 0.960 . S
H403 C390 0.962 . S
H404 C390 0.960 . S
H405 C391 0.961 . S
H406 C391 0.961 . S
H407 C391 0.961 . S
H408 C392 0.931 . S
H409 C397 0.930 . S
H410 C398 0.956 . S
H411 C398 0.961 . S
H412 C398 0.961 . S
H413 C399 0.958 . S
H414 C399 0.961 . S
H415 C399 0.960 . S
C416 C417 1.391 . S
C416 C418 1.394 . S
C416 H432 0.931 . S
C417 C416 1.391 . S
C417 C421 1.376 . S
C418 C416 1.394 . S
C418 C419 1.369 . S
C418 C422 1.531 . S
C419 C418 1.369 . S
C419 C420 1.410 1_556 S
C419 C427 1.503 1_556 S
C420 C419 1.410 1_554 S
C420 C421 1.392 1_554 S
C420 C423 1.511 . S
C421 C417 1.376 . S
C421 C420 1.392 1_556 S
C421 H433 0.929 . S
C422 C418 1.531 . S
C422 H434 0.960 . S
C422 H435 0.962 . S
C422 H436 0.960 . S
C423 C420 1.511 . S
C423 H437 0.961 . S
C423 H438 0.961 . S
C423 H439 0.961 . S
C424 C425 1.370 . S
C424 C426 1.363 . S
C424 H440 0.931 . S
C425 C424 1.370 . S
C425 C429 1.408 . S
C426 C424 1.363 . S
C426 C427 1.370 . S
C426 C430 1.524 . S
C427 C419 1.503 1_554 S
C427 C426 1.370 . S
C427 C428 1.403 . S
C428 C427 1.403 . S
C428 C429 1.404 . S
C428 C431 1.539 1_554 S
C429 C425 1.408 . S
C429 C428 1.404 . S
C429 H441 0.930 . S
C430 C426 1.524 . S
C430 H442 0.956 . S
C430 H443 0.961 . S
C430 H444 0.961 . S
C431 C428 1.539 1_556 S
C431 H445 0.958 . S
C431 H446 0.961 . S
C431 H447 0.960 . S
H432 C416 0.931 . S
H433 C421 0.929 . S
H434 C422 0.960 . S
H435 C422 0.962 . S
H436 C422 0.960 . S
H437 C423 0.961 . S
H438 C423 0.961 . S
H439 C423 0.961 . S
H440 C424 0.931 . S
H441 C429 0.930 . S
H442 C430 0.956 . S
H443 C430 0.961 . S
H444 C430 0.961 . S
H445 C431 0.958 . S
H446 C431 0.961 . S
H447 C431 0.960 . S
C448 C449 1.391 . S
C448 C450 1.394 . S
C448 H464 0.931 . S
C449 C448 1.391 . S
C449 C453 1.376 . S
C450 C448 1.394 . S
C450 C451 1.369 . S
C450 C454 1.531 . S
C451 C450 1.369 . S
C451 C452 1.410 . S
C451 C459 1.503 . S
C452 C451 1.410 . S
C452 C453 1.392 . S
C452 C455 1.511 . S
C453 C449 1.376 . S
C453 C452 1.392 . S
C453 H465 0.929 . S
C454 C450 1.531 . S
C454 H466 0.960 . S
C454 H467 0.962 . S
C454 H468 0.960 . S
C455 C452 1.511 . S
C455 H469 0.961 . S
C455 H470 0.961 . S
C455 H471 0.961 . S
C456 C457 1.370 . S
C456 C458 1.363 . S
C456 H472 0.931 . S
C457 C456 1.370 . S
C457 C461 1.408 . S
C458 C456 1.363 . S
C458 C459 1.370 . S
C458 C462 1.524 . S
C459 C451 1.503 . S
C459 C458 1.370 . S
C459 C460 1.403 . S
C460 C459 1.403 . S
C460 C461 1.404 . S
C460 C463 1.539 . S
C461 C457 1.408 . S
C461 C460 1.404 . S
C461 H473 0.930 . S
C462 C458 1.524 . S
C462 H474 0.956 . S
C462 H475 0.961 . S
C462 H476 0.961 . S
C463 C460 1.539 . S
C463 H477 0.958 . S
C463 H478 0.961 . S
C463 H479 0.960 . S
H464 C448 0.931 . S
H465 C453 0.929 . S
H466 C454 0.960 . S
H467 C454 0.962 . S
H468 C454 0.960 . S
H469 C455 0.961 . S
H470 C455 0.961 . S
H471 C455 0.961 . S
H472 C456 0.931 . S
H473 C461 0.930 . S
H474 C462 0.956 . S
H475 C462 0.961 . S
H476 C462 0.961 . S
H477 C463 0.958 . S
H478 C463 0.961 . S
H479 C463 0.960 . S
C480 C481 1.391 . S
C480 C482 1.394 . S
C480 H496 0.931 . S
C481 C480 1.391 . S
C481 C485 1.376 . S
C482 C480 1.394 . S
C482 C483 1.369 . S
C482 C486 1.531 . S
C483 C482 1.369 . S
C483 C484 1.410 . S
C483 C491 1.503 1_544 S
C484 C483 1.410 . S
C484 C485 1.392 . S
C484 C487 1.511 1_554 S
C485 C481 1.376 . S
C485 C484 1.392 . S
C485 H497 0.929 . S
C486 C482 1.531 . S
C486 H498 0.960 1_545 S
C486 H499 0.962 . S
C486 H500 0.960 . S
C487 C484 1.511 1_556 S
C487 H501 0.961 . S
C487 H502 0.961 . S
C487 H503 0.961 1_556 S
C488 C489 1.370 . S
C488 C490 1.363 . S
C488 H504 0.931 . S
C489 C488 1.370 . S
C489 C493 1.408 1_556 S
C490 C488 1.363 . S
C490 C491 1.370 . S
C490 C494 1.524 1_565 S
C491 C483 1.503 1_566 S
C491 C490 1.370 . S
C491 C492 1.403 1_556 S
C492 C491 1.403 1_554 S
C492 C493 1.404 . S
C492 C495 1.539 . S
C493 C489 1.408 1_554 S
C493 C492 1.404 . S
C493 H505 0.930 . S
C494 C490 1.524 1_545 S
C494 H506 0.956 . S
C494 H507 0.961 . S
C494 H508 0.961 1_545 S
C495 C492 1.539 . S
C495 H509 0.958 . S
C495 H510 0.961 . S
C495 H511 0.960 . S
H496 C480 0.931 . S
H497 C485 0.929 . S
H498 C486 0.960 1_565 S
H499 C486 0.962 . S
H500 C486 0.960 . S
H501 C487 0.961 . S
H502 C487 0.961 . S
H503 C487 0.961 1_554 S
H504 C488 0.931 . S
H505 C493 0.930 . S
H506 C494 0.956 . S
H507 C494 0.961 . S
H508 C494 0.961 1_565 S
H509 C495 0.958 . S
H510 C495 0.961 . S
H511 C495 0.960 . S
C512 C513 1.391 . S
C512 C514 1.394 . S
C512 H528 0.931 . S
C513 C512 1.391 . S
C513 C517 1.376 . S
C514 C512 1.394 . S
C514 C515 1.369 . S
C514 C518 1.531 . S
C515 C514 1.369 . S
C515 C516 1.410 . S
C515 C523 1.503 1_565 S
C516 C515 1.410 . S
C516 C517 1.392 . S
C516 C519 1.511 . S
C517 C513 1.376 . S
C517 C516 1.392 . S
C517 H529 0.929 . S
C518 C514 1.531 . S
C518 H530 0.960 1_565 S
C518 H531 0.962 . S
C518 H532 0.960 . S
C519 C516 1.511 . S
C519 H533 0.961 . S
C519 H534 0.951 1_565 S
C519 H535 0.961 . S
C520 C521 1.370 . S
C520 C522 1.363 . S
C520 H536 0.931 . S
C521 C520 1.370 . S
C521 C525 1.408 . S
C522 C520 1.363 . S
C522 C523 1.370 . S
C522 C526 1.524 1_545 S
C523 C515 1.503 1_545 S
C523 C522 1.370 . S
C523 C524 1.403 . S
C524 C523 1.403 . S
C524 C525 1.404 . S
C524 C527 1.539 . S
C525 C521 1.408 . S
C525 C524 1.404 . S
C525 H537 0.930 . S
C526 C522 1.524 1_565 S
C526 H538 0.956 . S
C526 H539 0.961 . S
C526 H540 0.948 1_565 S
C527 C524 1.539 . S
C527 H541 0.958 . S
C527 H542 0.961 . S
C527 H543 0.960 . S
H528 C512 0.931 . S
H529 C517 0.929 . S
H530 C518 0.960 1_545 S
H531 C518 0.962 . S
H532 C518 0.960 . S
H533 C519 0.961 . S
H534 C519 0.951 1_545 S
H535 C519 0.961 . S
H536 C520 0.931 . S
H537 C525 0.930 . S
H538 C526 0.956 . S
H539 C526 0.961 . S
H540 C526 0.948 1_545 S
H541 C527 0.958 . S
H542 C527 0.961 . S
H543 C527 0.960 . S
C544 C545 1.391 . S
C544 C546 1.394 . S
C544 H560 0.931 . S
C545 C544 1.391 . S
C545 C549 1.376 . S
C546 C544 1.394 . S
C546 C547 1.369 . S
C546 C550 1.531 . S
C547 C546 1.369 . S
C547 C548 1.410 . S
C547 C555 1.503 1_566 S
C548 C547 1.410 . S
C548 C549 1.392 . S
C548 C551 1.528 . S
C549 C545 1.376 . S
C549 C548 1.392 . S
C549 H561 0.929 . S
C550 C546 1.531 . S
C550 H562 0.960 1_565 S
C550 H563 0.962 1_556 S
C550 H564 0.960 . S
C551 C548 1.528 . S
C551 H565 0.980 . S
C551 H566 0.948 1_565 S
C551 H567 0.939 1_565 S
C552 C553 1.370 . S
C552 C554 1.363 . S
C552 H568 0.931 . S
C553 C552 1.370 . S
C553 C557 1.408 . S
C554 C552 1.363 . S
C554 C555 1.370 . S
C554 C558 1.524 1_545 S
C555 C547 1.503 1_544 S
C555 C554 1.370 . S
C555 C556 1.403 1_554 S
C556 C555 1.403 1_556 S
C556 C557 1.404 1_556 S
C556 C559 1.539 . S
C557 C553 1.408 . S
C557 C556 1.404 1_554 S
C557 H569 0.930 . S
C558 C554 1.524 1_565 S
C558 H570 0.956 . S
C558 H571 0.961 . S
C558 H572 0.961 . S
C559 C556 1.539 . S
C559 H573 0.958 . S
C559 H574 0.961 . S
C559 H575 0.960 . S
H560 C544 0.931 . S
H561 C549 0.929 . S
H562 C550 0.960 1_545 S
H563 C550 0.962 1_554 S
H564 C550 0.960 . S
H565 C551 0.980 . S
H566 C551 0.948 1_545 S
H567 C551 0.939 1_545 S
H568 C552 0.931 . S
H569 C557 0.930 . S
H570 C558 0.956 . S
H571 C558 0.961 . S
H572 C558 0.961 . S
H573 C559 0.958 . S
H574 C559 0.961 . S
H575 C559 0.960 . S
C576 C577 1.391 . S
C576 C578 1.394 . S
C576 H592 0.931 . S
C577 C576 1.391 . S
C577 C581 1.376 . S
C578 C576 1.394 . S
C578 C579 1.369 . S
C578 C582 1.531 1_545 S
C579 C578 1.369 . S
C579 C580 1.410 . S
C579 C587 1.503 1_545 S
C580 C579 1.410 . S
C580 C581 1.392 . S
C580 C583 1.511 . S
C581 C577 1.376 . S
C581 C580 1.392 . S
C581 H593 0.929 . S
C582 C578 1.531 1_565 S
C582 H594 0.960 . S
C582 H595 0.962 . S
C582 H596 0.960 . S
C583 C580 1.511 . S
C583 H597 0.961 . S
C583 H598 0.961 . S
C583 H599 0.961 . S
C584 C585 1.370 . S
C584 C586 1.363 . S
C584 H600 0.931 . S
C585 C584 1.370 . S
C585 C589 1.408 . S
C586 C584 1.363 . S
C586 C587 1.370 . S
C586 C590 1.524 1_565 S
C587 C579 1.503 1_565 S
C587 C586 1.370 . S
C587 C588 1.403 . S
C588 C587 1.403 . S
C588 C589 1.404 . S
C588 C591 1.539 . S
C589 C585 1.408 . S
C589 C588 1.404 . S
C589 H601 0.930 . S
C590 C586 1.524 1_545 S
C590 H602 0.956 . S
C590 H603 0.961 . S
C590 H604 0.961 . S
C591 C588 1.539 . S
C591 H605 0.958 . S
C591 H606 0.961 . S
C591 H607 0.960 . S
H592 C576 0.931 . S
H593 C581 0.929 . S
H594 C582 0.960 . S
H595 C582 0.962 . S
H596 C582 0.960 . S
H597 C583 0.961 . S
H598 C583 0.961 . S
H599 C583 0.961 . S
H600 C584 0.931 . S
H601 C589 0.930 . S
H602 C590 0.956 . S
H603 C590 0.961 . S
H604 C590 0.961 . S
H605 C591 0.958 . S
H606 C591 0.961 . S
H607 C591 0.960 . S
C608 C609 1.391 . S
C608 C610 1.394 . S
C608 H624 0.931 . S
C609 C608 1.391 . S
C609 C613 1.376 . S
C610 C608 1.394 . S
C610 C611 1.369 . S
C610 C614 1.531 . S
C611 C610 1.369 . S
C611 C612 1.410 1_556 S
C611 C619 1.503 1_556 S
C612 C611 1.410 1_554 S
C612 C613 1.392 1_554 S
C612 C615 1.511 . S
C613 C609 1.376 . S
C613 C612 1.392 1_556 S
C613 H625 0.929 1_556 S
C614 C610 1.531 . S
C614 H626 0.960 . S
C614 H627 0.962 . S
C614 H628 0.960 . S
C615 C612 1.511 . S
C615 H629 0.961 . S
C615 H630 0.961 . S
C615 H631 0.961 . S
C616 C617 1.370 . S
C616 C618 1.363 . S
C616 H632 0.931 . S
C617 C616 1.370 . S
C617 C621 1.408 . S
C618 C616 1.363 . S
C618 C619 1.370 . S
C618 C622 1.524 . S
C619 C611 1.503 1_554 S
C619 C618 1.370 . S
C619 C620 1.403 1_554 S
C620 C619 1.403 1_556 S
C620 C621 1.404 1_556 S
C620 C623 1.539 . S
C621 C617 1.408 . S
C621 C620 1.404 1_554 S
C621 H633 0.930 1_554 S
C622 C618 1.524 . S
C622 H634 0.956 . S
C622 H635 0.961 . S
C622 H636 0.961 . S
C623 C620 1.539 . S
C623 H637 0.958 . S
C623 H638 0.961 . S
C623 H639 0.960 . S
H624 C608 0.931 . S
H625 C613 0.929 1_554 S
H626 C614 0.960 . S
H627 C614 0.962 . S
H628 C614 0.960 . S
H629 C615 0.961 . S
H630 C615 0.961 . S
H631 C615 0.961 . S
H632 C616 0.931 . S
H633 C621 0.930 1_556 S
H634 C622 0.956 . S
H635 C622 0.961 . S
H636 C622 0.961 . S
H637 C623 0.958 . S
H638 C623 0.961 . S
H639 C623 0.960 . S
C640 C641 1.391 . S
C640 C642 1.394 . S
C640 H656 0.931 . S
C641 C640 1.391 . S
C641 C645 1.376 . S
C642 C640 1.394 . S
C642 C643 1.369 . S
C642 C646 1.531 . S
C643 C642 1.369 . S
C643 C644 1.410 . S
C643 C651 1.503 . S
C644 C643 1.410 . S
C644 C645 1.392 . S
C644 C647 1.511 . S
C645 C641 1.376 . S
C645 C644 1.392 . S
C645 H657 0.929 . S
C646 C642 1.531 . S
C646 H658 0.960 . S
C646 H659 0.962 . S
C646 H660 0.960 . S
C647 C644 1.511 . S
C647 H661 0.961 . S
C647 H662 0.961 . S
C647 H663 0.961 . S
C648 C649 1.370 . S
C648 C650 1.363 . S
C648 H664 0.931 . S
C649 C648 1.370 . S
C649 C653 1.408 . S
C650 C648 1.363 . S
C650 C651 1.370 . S
C650 C654 1.524 . S
C651 C643 1.503 . S
C651 C650 1.370 . S
C651 C652 1.403 . S
C652 C651 1.403 . S
C652 C653 1.404 . S
C652 C655 1.539 . S
C653 C649 1.408 . S
C653 C652 1.404 . S
C653 H665 0.930 . S
C654 C650 1.524 . S
C654 H666 0.956 . S
C654 H667 0.961 . S
C654 H668 0.961 . S
C655 C652 1.539 . S
C655 H669 0.958 . S
C655 H670 0.961 . S
C655 H671 0.960 . S
H656 C640 0.931 . S
H657 C645 0.929 . S
H658 C646 0.960 . S
H659 C646 0.962 . S
H660 C646 0.960 . S
H661 C647 0.961 . S
H662 C647 0.961 . S
H663 C647 0.961 . S
H664 C648 0.931 . S
H665 C653 0.930 . S
H666 C654 0.956 . S
H667 C654 0.961 . S
H668 C654 0.961 . S
H669 C655 0.958 . S
H670 C655 0.961 . S
H671 C655 0.960 . S
C672 C673 1.391 . S
C672 C674 1.394 . S
C672 H688 0.931 . S
C673 C672 1.391 . S
C673 C677 1.376 . S
C674 C672 1.394 . S
C674 C675 1.369 . S
C674 C678 1.531 . S
C675 C674 1.369 . S
C675 C676 1.410 1_554 S
C675 C683 1.503 1_554 S
C676 C675 1.410 1_556 S
C676 C677 1.392 1_556 S
C676 C679 1.511 . S
C677 C673 1.376 . S
C677 C676 1.392 1_554 S
C677 H689 0.929 . S
C678 C674 1.531 . S
C678 H690 0.960 . S
C678 H691 0.962 . S
C678 H692 0.960 . S
C679 C676 1.511 . S
C679 H693 0.961 . S
C679 H694 0.961 . S
C679 H695 0.961 . S
C680 C681 1.370 . S
C680 C682 1.363 . S
C680 H696 0.931 . S
C681 C680 1.370 . S
C681 C685 1.408 . S
C682 C680 1.363 . S
C682 C683 1.370 . S
C682 C686 1.524 1_556 S
C683 C675 1.503 1_556 S
C683 C682 1.370 . S
C683 C684 1.403 . S
C684 C683 1.403 . S
C684 C685 1.404 . S
C684 C687 1.539 . S
C685 C681 1.408 . S
C685 C684 1.404 . S
C685 H697 0.930 . S
C686 C682 1.524 1_554 S
C686 H698 0.956 . S
C686 H699 0.961 . S
C686 H700 0.961 . S
C687 C684 1.539 . S
C687 H701 0.958 . S
C687 H702 0.961 . S
C687 H703 0.960 . S
H688 C672 0.931 . S
H689 C677 0.929 . S
H690 C678 0.960 . S
H691 C678 0.962 . S
H692 C678 0.960 . S
H693 C679 0.961 . S
H694 C679 0.961 . S
H695 C679 0.961 . S
H696 C680 0.931 . S
H697 C685 0.930 . S
H698 C686 0.956 . S
H699 C686 0.961 . S
H700 C686 0.961 . S
H701 C687 0.958 . S
H702 C687 0.961 . S
H703 C687 0.960 . S
C704 C705 1.391 . S
C704 C706 1.394 . S
C704 H720 0.931 . S
C705 C704 1.391 . S
C705 C709 1.376 . S
C706 C704 1.394 . S
C706 C707 1.369 . S
C706 C710 1.531 . S
C707 C706 1.369 . S
C707 C708 1.410 . S
C707 C715 1.503 . S
C708 C707 1.410 . S
C708 C709 1.392 . S
C708 C711 1.511 . S
C709 C705 1.376 . S
C709 C708 1.392 . S
C709 H721 0.929 . S
C710 C706 1.531 . S
C710 H722 0.960 . S
C710 H723 0.962 . S
C710 H724 0.960 . S
C711 C708 1.511 . S
C711 H725 0.961 . S
C711 H726 0.961 . S
C711 H727 0.961 . S
C712 C713 1.370 . S
C712 C714 1.363 . S
C712 H728 0.931 . S
C713 C712 1.370 . S
C713 C717 1.408 . S
C714 C712 1.363 . S
C714 C715 1.370 . S
C714 C718 1.524 . S
C715 C707 1.503 . S
C715 C714 1.370 . S
C715 C716 1.403 . S
C716 C715 1.403 . S
C716 C717 1.404 . S
C716 C719 1.539 . S
C717 C713 1.408 . S
C717 C716 1.404 . S
C717 H729 0.930 . S
C718 C714 1.524 . S
C718 H730 0.956 . S
C718 H731 0.961 . S
C718 H732 0.961 . S
C719 C716 1.539 . S
C719 H733 0.958 . S
C719 H734 0.961 . S
C719 H735 0.960 . S
H720 C704 0.931 . S
H721 C709 0.929 . S
H722 C710 0.960 . S
H723 C710 0.962 . S
H724 C710 0.960 . S
H725 C711 0.961 . S
H726 C711 0.961 . S
H727 C711 0.961 . S
H728 C712 0.931 . S
H729 C717 0.930 . S
H730 C718 0.956 . S
H731 C718 0.961 . S
H732 C718 0.961 . S
H733 C719 0.958 . S
H734 C719 0.961 . S
H735 C719 0.960 . S
C736 C737 1.391 . S
C736 C738 1.394 . S
C736 H752 0.931 . S
C737 C736 1.391 . S
C737 C741 1.376 . S
C738 C736 1.394 . S
C738 C739 1.369 . S
C738 C742 1.531 . S
C739 C738 1.369 . S
C739 C740 1.410 . S
C739 C747 1.503 . S
C740 C739 1.410 . S
C740 C741 1.392 . S
C740 C743 1.511 . S
C741 C737 1.376 . S
C741 C740 1.392 . S
C741 H753 0.929 . S
C742 C738 1.531 . S
C742 H754 0.960 . S
C742 H755 0.962 . S
C742 H756 0.960 . S
C743 C740 1.511 . S
C743 H757 0.961 . S
C743 H758 0.961 . S
C743 H759 0.961 . S
C744 C745 1.370 . S
C744 C746 1.363 . S
C744 H760 0.931 . S
C745 C744 1.370 . S
C745 C749 1.408 . S
C746 C744 1.363 . S
C746 C747 1.370 . S
C746 C750 1.524 . S
C747 C739 1.503 . S
C747 C746 1.370 . S
C747 C748 1.403 . S
C748 C747 1.403 . S
C748 C749 1.404 . S
C748 C751 1.539 . S
C749 C745 1.408 . S
C749 C748 1.404 . S
C749 H761 0.930 . S
C750 C746 1.524 . S
C750 H762 0.956 . S
C750 H763 0.961 . S
C750 H764 0.961 . S
C751 C748 1.539 . S
C751 H765 0.958 . S
C751 H766 0.961 . S
C751 H767 0.960 . S
H752 C736 0.931 . S
H753 C741 0.929 . S
H754 C742 0.960 . S
H755 C742 0.962 . S
H756 C742 0.960 . S
H757 C743 0.961 . S
H758 C743 0.961 . S
H759 C743 0.961 . S
H760 C744 0.931 . S
H761 C749 0.930 . S
H762 C750 0.956 . S
H763 C750 0.961 . S
H764 C750 0.961 . S
H765 C751 0.958 . S
H766 C751 0.961 . S
H767 C751 0.960 . S
C768 C769 1.391 . S
C768 C770 1.394 . S
C768 H784 0.931 . S
C769 C768 1.391 . S
C769 C773 1.376 . S
C770 C768 1.394 . S
C770 C771 1.369 1_655 S
C770 C774 1.531 1_655 S
C771 C770 1.369 1_455 S
C771 C772 1.410 1_455 S
C771 C779 1.503 . S
C772 C771 1.410 1_655 S
C772 C773 1.392 . S
C772 C775 1.511 1_655 S
C773 C769 1.376 . S
C773 C772 1.392 . S
C773 H785 0.929 . S
C774 C770 1.531 1_455 S
C774 H786 0.960 . S
C774 H787 0.962 . S
C774 H788 0.960 1_455 S
C775 C772 1.511 1_455 S
C775 H789 0.961 . S
C775 H790 0.961 . S
C775 H791 0.961 . S
C776 C777 1.370 . S
C776 C778 1.363 . S
C776 H792 0.931 . S
C777 C776 1.370 . S
C777 C781 1.408 . S
C778 C776 1.363 . S
C778 C779 1.370 . S
C778 C782 1.524 . S
C779 C771 1.503 . S
C779 C778 1.370 . S
C779 C780 1.403 . S
C780 C779 1.403 . S
C780 C781 1.404 . S
C780 C783 1.539 . S
C781 C777 1.408 . S
C781 C780 1.404 . S
C781 H793 0.930 . S
C782 C778 1.524 . S
C782 H794 0.956 . S
C782 H795 0.961 . S
C782 H796 0.961 . S
C783 C780 1.539 . S
C783 H797 0.958 . S
C783 H798 0.961 . S
C783 H799 0.960 . S
H784 C768 0.931 . S
H785 C773 0.929 . S
H786 C774 0.960 . S
H787 C774 0.962 . S
H788 C774 0.960 1_655 S
H789 C775 0.961 . S
H790 C775 0.961 . S
H791 C775 0.961 . S
H792 C776 0.931 . S
H793 C781 0.930 . S
H794 C782 0.956 . S
H795 C782 0.961 . S
H796 C782 0.961 . S
H797 C783 0.958 . S
H798 C783 0.961 . S
H799 C783 0.960 . S
C800 C801 1.391 . S
C800 C802 1.394 . S
C800 H816 0.931 . S
C801 C800 1.391 . S
C801 C805 1.376 . S
C802 C800 1.394 . S
C802 C803 1.369 . S
C802 C806 1.531 . S
C803 C802 1.369 . S
C803 C804 1.410 . S
C803 C811 1.503 . S
C804 C803 1.410 . S
C804 C805 1.392 . S
C804 C807 1.511 . S
C805 C801 1.376 . S
C805 C804 1.392 . S
C805 H817 0.929 . S
C806 C802 1.531 . S
C806 H818 0.960 . S
C806 H819 0.962 . S
C806 H820 0.960 . S
C807 C804 1.511 . S
C807 H821 0.961 . S
C807 H822 0.961 . S
C807 H823 0.961 . S
C808 C809 1.370 . S
C808 C810 1.363 . S
C808 H824 0.931 . S
C809 C808 1.370 . S
C809 C813 1.408 . S
C810 C808 1.363 . S
C810 C811 1.370 . S
C810 C814 1.524 . S
C811 C803 1.503 . S
C811 C810 1.370 . S
C811 C812 1.403 . S
C812 C811 1.403 . S
C812 C813 1.404 . S
C812 C815 1.539 . S
C813 C809 1.408 . S
C813 C812 1.404 . S
C813 H825 0.930 . S
C814 C810 1.524 . S
C814 H826 0.956 . S
C814 H827 0.961 . S
C814 H828 0.961 . S
C815 C812 1.539 . S
C815 H829 0.958 . S
C815 H830 0.961 . S
C815 H831 0.960 . S
H816 C800 0.931 . S
H817 C805 0.929 . S
H818 C806 0.960 . S
H819 C806 0.962 . S
H820 C806 0.960 . S
H821 C807 0.961 . S
H822 C807 0.961 . S
H823 C807 0.961 . S
H824 C808 0.931 . S
H825 C813 0.930 . S
H826 C814 0.956 . S
H827 C814 0.961 . S
H828 C814 0.961 . S
H829 C815 0.958 . S
H830 C815 0.961 . S
H831 C815 0.960 . S
C832 C833 1.391 . S
C832 C834 1.394 . S
C832 H848 0.931 . S
C833 C832 1.391 . S
C833 C837 1.376 . S
C834 C832 1.394 . S
C834 C835 1.369 . S
C834 C838 1.531 . S
C835 C834 1.369 . S
C835 C836 1.410 . S
C835 C843 1.503 . S
C836 C835 1.410 . S
C836 C837 1.392 . S
C836 C839 1.511 . S
C837 C833 1.376 . S
C837 C836 1.392 . S
C837 H849 0.929 . S
C838 C834 1.531 . S
C838 H850 0.960 . S
C838 H851 0.962 . S
C838 H852 0.960 . S
C839 C836 1.511 . S
C839 H853 0.961 . S
C839 H854 0.961 . S
C839 H855 0.961 . S
C840 C841 1.370 . S
C840 C842 1.363 . S
C840 H856 0.931 . S
C841 C840 1.370 . S
C841 C845 1.408 . S
C842 C840 1.363 . S
C842 C843 1.370 1_655 S
C842 C846 1.524 1_655 S
C843 C835 1.503 . S
C843 C842 1.370 1_455 S
C843 C844 1.403 1_455 S
C844 C843 1.403 1_655 S
C844 C845 1.404 . S
C844 C847 1.539 1_655 S
C845 C841 1.408 . S
C845 C844 1.404 . S
C845 H857 0.930 . S
C846 C842 1.524 1_455 S
C846 H858 0.956 . S
C846 H859 0.961 . S
C846 H860 0.961 . S
C847 C844 1.539 1_455 S
C847 H861 0.958 . S
C847 H862 0.961 1_455 S
C847 H863 0.960 . S
H848 C832 0.931 . S
H849 C837 0.929 . S
H850 C838 0.960 . S
H851 C838 0.962 . S
H852 C838 0.960 . S
H853 C839 0.961 . S
H854 C839 0.961 . S
H855 C839 0.961 . S
H856 C840 0.931 . S
H857 C845 0.930 . S
H858 C846 0.956 . S
H859 C846 0.961 . S
H860 C846 0.961 . S
H861 C847 0.958 . S
H862 C847 0.961 1_655 S
H863 C847 0.960 . S
C864 C865 1.391 . S
C864 C866 1.394 . S
C864 H880 0.931 . S
C865 C864 1.391 . S
C865 C869 1.376 . S
C866 C864 1.394 . S
C866 C867 1.369 1_455 S
C866 C870 1.531 1_455 S
C867 C866 1.369 1_655 S
C867 C868 1.410 1_655 S
C867 C875 1.503 . S
C868 C867 1.410 1_455 S
C868 C869 1.392 . S
C868 C871 1.511 1_455 S
C869 C865 1.376 . S
C869 C868 1.392 . S
C869 H881 0.929 . S
C870 C866 1.531 1_655 S
C870 H882 0.960 . S
C870 H883 0.962 . S
C870 H884 0.960 . S
C871 C868 1.511 1_655 S
C871 H885 0.961 1_655 S
C871 H886 0.961 . S
C871 H887 0.961 . S
C872 C873 1.370 . S
C872 C874 1.363 . S
C872 H888 0.931 . S
C873 C872 1.370 . S
C873 C877 1.408 . S
C874 C872 1.363 . S
C874 C875 1.370 . S
C874 C878 1.524 . S
C875 C867 1.503 . S
C875 C874 1.370 . S
C875 C876 1.403 . S
C876 C875 1.403 . S
C876 C877 1.404 . S
C876 C879 1.539 . S
C877 C873 1.408 . S
C877 C876 1.404 . S
C877 H889 0.930 . S
C878 C874 1.524 . S
C878 H890 0.956 . S
C878 H891 0.961 . S
C878 H892 0.961 . S
C879 C876 1.539 . S
C879 H893 0.958 . S
C879 H894 0.961 . S
C879 H895 0.960 . S
H880 C864 0.931 . S
H881 C869 0.929 . S
H882 C870 0.960 . S
H883 C870 0.962 . S
H884 C870 0.960 . S
H885 C871 0.961 1_455 S
H886 C871 0.961 . S
H887 C871 0.961 . S
H888 C872 0.931 . S
H889 C877 0.930 . S
H890 C878 0.956 . S
H891 C878 0.961 . S
H892 C878 0.961 . S
H893 C879 0.958 . S
H894 C879 0.961 . S
H895 C879 0.960 . S
C896 C897 1.391 . S
C896 C898 1.394 . S
C896 H912 0.931 . S
C897 C896 1.391 . S
C897 C901 1.376 . S
C898 C896 1.394 . S
C898 C899 1.369 . S
C898 C902 1.531 . S
C899 C898 1.369 . S
C899 C900 1.410 . S
C899 C907 1.503 . S
C900 C899 1.410 . S
C900 C901 1.392 . S
C900 C903 1.511 . S
C901 C897 1.376 . S
C901 C900 1.392 . S
C901 H913 0.929 . S
C902 C898 1.531 . S
C902 H914 0.960 . S
C902 H915 0.962 . S
C902 H916 0.960 . S
C903 C900 1.511 . S
C903 H917 0.961 . S
C903 H918 0.961 . S
C903 H919 0.961 . S
C904 C905 1.370 . S
C904 C906 1.363 . S
C904 H920 0.931 . S
C905 C904 1.370 . S
C905 C909 1.408 . S
C906 C904 1.363 . S
C906 C907 1.370 . S
C906 C910 1.524 . S
C907 C899 1.503 . S
C907 C906 1.370 . S
C907 C908 1.403 . S
C908 C907 1.403 . S
C908 C909 1.404 . S
C908 C911 1.539 . S
C909 C905 1.408 . S
C909 C908 1.404 . S
C909 H921 0.930 . S
C910 C906 1.524 . S
C910 H922 0.956 . S
C910 H923 0.961 . S
C910 H924 0.961 . S
C911 C908 1.539 . S
C911 H925 0.958 . S
C911 H926 0.961 . S
C911 H927 0.960 . S
H912 C896 0.931 . S
H913 C901 0.929 . S
H914 C902 0.960 . S
H915 C902 0.962 . S
H916 C902 0.960 . S
H917 C903 0.961 . S
H918 C903 0.961 . S
H919 C903 0.961 . S
H920 C904 0.931 . S
H921 C909 0.930 . S
H922 C910 0.956 . S
H923 C910 0.961 . S
H924 C910 0.961 . S
H925 C911 0.958 . S
H926 C911 0.961 . S
H927 C911 0.960 . S
C928 C929 1.391 . S
C928 C930 1.394 . S
C928 H944 0.931 . S
C929 C928 1.391 . S
C929 C933 1.376 . S
C930 C928 1.394 . S
C930 C931 1.369 1_455 S
C930 C934 1.531 1_455 S
C931 C930 1.369 1_655 S
C931 C932 1.410 1_655 S
C931 C939 1.503 . S
C932 C931 1.410 1_455 S
C932 C933 1.392 . S
C932 C935 1.511 1_455 S
C933 C929 1.376 . S
C933 C932 1.392 . S
C933 H945 0.929 . S
C934 C930 1.531 1_655 S
C934 H946 0.960 . S
C934 H947 0.962 . S
C934 H948 0.960 1_655 S
C935 C932 1.511 1_655 S
C935 H949 0.961 . S
C935 H950 0.961 . S
C935 H951 0.961 . S
C936 C937 1.370 . S
C936 C938 1.363 . S
C936 H952 0.931 . S
C937 C936 1.370 . S
C937 C941 1.408 . S
C938 C936 1.363 . S
C938 C939 1.370 . S
C938 C942 1.524 . S
C939 C931 1.503 . S
C939 C938 1.370 . S
C939 C940 1.403 . S
C940 C939 1.403 . S
C940 C941 1.404 . S
C940 C943 1.539 . S
C941 C937 1.408 . S
C941 C940 1.404 . S
C941 H953 0.930 . S
C942 C938 1.524 . S
C942 H954 0.956 . S
C942 H955 0.961 . S
C942 H956 0.961 . S
C943 C940 1.539 . S
C943 H957 0.958 . S
C943 H958 0.961 . S
C943 H959 0.960 . S
H944 C928 0.931 . S
H945 C933 0.929 . S
H946 C934 0.960 . S
H947 C934 0.962 . S
H948 C934 0.960 1_455 S
H949 C935 0.961 . S
H950 C935 0.961 . S
H951 C935 0.961 . S
H952 C936 0.931 . S
H953 C941 0.930 . S
H954 C942 0.956 . S
H955 C942 0.961 . S
H956 C942 0.961 . S
H957 C943 0.958 . S
H958 C943 0.961 . S
H959 C943 0.960 . S
C960 C961 1.391 . S
C960 C962 1.394 . S
C960 H976 0.931 . S
C961 C960 1.391 . S
C961 C965 1.376 . S
C962 C960 1.394 . S
C962 C963 1.369 . S
C962 C966 1.531 . S
C963 C962 1.369 . S
C963 C964 1.410 . S
C963 C971 1.503 . S
C964 C963 1.410 . S
C964 C965 1.392 . S
C964 C967 1.511 . S
C965 C961 1.376 . S
C965 C964 1.392 . S
C965 H977 0.929 . S
C966 C962 1.531 . S
C966 H978 0.960 . S
C966 H979 0.962 . S
C966 H980 0.960 . S
C967 C964 1.511 . S
C967 H981 0.961 . S
C967 H982 0.961 . S
C967 H983 0.961 . S
C968 C969 1.370 . S
C968 C970 1.363 . S
C968 H984 0.931 . S
C969 C968 1.370 . S
C969 C973 1.408 . S
C970 C968 1.363 . S
C970 C971 1.370 . S
C970 C974 1.524 . S
C971 C963 1.503 . S
C971 C970 1.370 . S
C971 C972 1.403 . S
C972 C971 1.403 . S
C972 C973 1.404 . S
C972 C975 1.539 . S
C973 C969 1.408 . S
C973 C972 1.404 . S
C973 H985 0.930 . S
C974 C970 1.524 . S
C974 H986 0.956 . S
C974 H987 0.961 . S
C974 H988 0.961 . S
C975 C972 1.539 . S
C975 H989 0.958 . S
C975 H990 0.961 . S
C975 H991 0.960 . S
H976 C960 0.931 . S
H977 C965 0.929 . S
H978 C966 0.960 . S
H979 C966 0.962 . S
H980 C966 0.960 . S
H981 C967 0.961 . S
H982 C967 0.961 . S
H983 C967 0.961 . S
H984 C968 0.931 . S
H985 C973 0.930 . S
H986 C974 0.956 . S
H987 C974 0.961 . S
H988 C974 0.961 . S
H989 C975 0.958 . S
H990 C975 0.961 . S
H991 C975 0.960 . S
C992 C993 1.391 . S
C992 C994 1.394 . S
C992 H1008 0.931 . S
C993 C992 1.391 . S
C993 C997 1.376 . S
C994 C992 1.394 . S
C994 C995 1.369 . S
C994 C998 1.531 . S
C995 C994 1.369 . S
C995 C996 1.410 . S
C995 C1003 1.503 . S
C996 C995 1.410 . S
C996 C997 1.392 . S
C996 C999 1.511 . S
C997 C993 1.376 . S
C997 C996 1.392 . S
C997 H1009 0.929 . S
C998 C994 1.531 . S
C998 H1010 0.960 . S
C998 H1011 0.962 . S
C998 H1012 0.960 . S
C999 C996 1.511 . S
C999 H1013 0.961 . S
C999 H1014 0.961 . S
C999 H1015 0.961 . S
C1000 C1001 1.370 . S
C1000 C1002 1.363 . S
C1000 H1016 0.931 . S
C1001 C1000 1.370 . S
C1001 C1005 1.408 . S
C1002 C1000 1.363 . S
C1002 C1003 1.370 . S
C1002 C1006 1.524 . S
C1003 C995 1.503 . S
C1003 C1002 1.370 . S
C1003 C1004 1.403 . S
C1004 C1003 1.403 . S
C1004 C1005 1.404 . S
C1004 C1007 1.539 . S
C1005 C1001 1.408 . S
C1005 C1004 1.404 . S
C1005 H1017 0.930 . S
C1006 C1002 1.524 . S
C1006 H1018 0.956 . S
C1006 H1019 0.961 . S
C1006 H1020 0.961 . S
C1007 C1004 1.539 . S
C1007 H1021 0.958 . S
C1007 H1022 0.961 . S
C1007 H1023 0.960 . S
H1008 C992 0.931 . S
H1009 C997 0.929 . S
H1010 C998 0.960 . S
H1011 C998 0.962 . S
H1012 C998 0.960 . S
H1013 C999 0.961 . S
H1014 C999 0.961 . S
H1015 C999 0.961 . S
H1016 C1000 0.931 . S
H1017 C1005 0.930 . S
H1018 C1006 0.956 . S
H1019 C1006 0.961 . S
H1020 C1006 0.961 . S
H1021 C1007 0.958 . S
H1022 C1007 0.961 . S
H1023 C1007 0.960 . S
C1024 C1025 1.391 . S
C1024 C1026 1.394 . S
C1024 H1040 0.931 . S
C1025 C1024 1.391 . S
C1025 C1029 1.376 . S
C1026 C1024 1.394 . S
C1026 C1027 1.369 . S
C1026 C1030 1.531 . S
C1027 C1026 1.369 . S
C1027 C1028 1.410 . S
C1027 C1035 1.503 . S
C1028 C1027 1.410 . S
C1028 C1029 1.392 . S
C1028 C1031 1.511 . S
C1029 C1025 1.376 . S
C1029 C1028 1.392 . S
C1029 H1041 0.929 . S
C1030 C1026 1.531 . S
C1030 H1042 0.960 . S
C1030 H1043 0.962 . S
C1030 H1044 0.960 . S
C1031 C1028 1.511 . S
C1031 H1045 0.961 . S
C1031 H1046 0.961 . S
C1031 H1047 0.961 . S
C1032 C1033 1.370 . S
C1032 C1034 1.363 . S
C1032 H1048 0.931 . S
C1033 C1032 1.370 . S
C1033 C1037 1.408 . S
C1034 C1032 1.363 . S
C1034 C1035 1.370 . S
C1034 C1038 1.524 . S
C1035 C1027 1.503 . S
C1035 C1034 1.370 . S
C1035 C1036 1.403 . S
C1036 C1035 1.403 . S
C1036 C1037 1.404 . S
C1036 C1039 1.539 . S
C1037 C1033 1.408 . S
C1037 C1036 1.404 . S
C1037 H1049 0.930 . S
C1038 C1034 1.524 . S
C1038 H1050 0.956 . S
C1038 H1051 0.961 . S
C1038 H1052 0.961 . S
C1039 C1036 1.539 . S
C1039 H1053 0.958 . S
C1039 H1054 0.961 . S
C1039 H1055 0.960 . S
H1040 C1024 0.931 . S
H1041 C1029 0.929 . S
H1042 C1030 0.960 . S
H1043 C1030 0.962 . S
H1044 C1030 0.960 . S
H1045 C1031 0.961 . S
H1046 C1031 0.961 . S
H1047 C1031 0.961 . S
H1048 C1032 0.931 . S
H1049 C1037 0.930 . S
H1050 C1038 0.956 . S
H1051 C1038 0.961 . S
H1052 C1038 0.961 . S
H1053 C1039 0.958 . S
H1054 C1039 0.961 . S
H1055 C1039 0.960 . S
C1056 C1057 1.391 . S
C1056 C1058 1.394 . S
C1056 H1072 0.931 . S
C1057 C1056 1.391 . S
C1057 C1061 1.376 . S
C1058 C1056 1.394 . S
C1058 C1059 1.369 . S
C1058 C1062 1.531 . S
C1059 C1058 1.369 . S
C1059 C1060 1.410 . S
C1059 C1067 1.503 . S
C1060 C1059 1.410 . S
C1060 C1061 1.392 . S
C1060 C1063 1.511 . S
C1061 C1057 1.376 . S
C1061 C1060 1.392 . S
C1061 H1073 0.929 . S
C1062 C1058 1.531 . S
C1062 H1074 0.960 . S
C1062 H1075 0.962 . S
C1062 H1076 0.960 . S
C1063 C1060 1.511 . S
C1063 H1077 0.961 . S
C1063 H1078 0.961 . S
C1063 H1079 0.961 . S
C1064 C1065 1.370 . S
C1064 C1066 1.363 . S
C1064 H1080 0.931 . S
C1065 C1064 1.370 . S
C1065 C1069 1.408 . S
C1066 C1064 1.363 . S
C1066 C1067 1.370 . S
C1066 C1070 1.524 . S
C1067 C1059 1.503 . S
C1067 C1066 1.370 . S
C1067 C1068 1.403 . S
C1068 C1067 1.403 . S
C1068 C1069 1.404 . S
C1068 C1071 1.539 . S
C1069 C1065 1.408 . S
C1069 C1068 1.404 . S
C1069 H1081 0.930 . S
C1070 C1066 1.524 . S
C1070 H1082 0.956 . S
C1070 H1083 0.961 . S
C1070 H1084 0.961 . S
C1071 C1068 1.539 . S
C1071 H1085 0.958 . S
C1071 H1086 0.961 . S
C1071 H1087 0.960 . S
H1072 C1056 0.931 . S
H1073 C1061 0.929 . S
H1074 C1062 0.960 . S
H1075 C1062 0.962 . S
H1076 C1062 0.960 . S
H1077 C1063 0.961 . S
H1078 C1063 0.961 . S
H1079 C1063 0.961 . S
H1080 C1064 0.931 . S
H1081 C1069 0.930 . S
H1082 C1070 0.956 . S
H1083 C1070 0.961 . S
H1084 C1070 0.961 . S
H1085 C1071 0.958 . S
H1086 C1071 0.961 . S
H1087 C1071 0.960 . S
C1088 C1089 1.391 . S
C1088 C1090 1.394 . S
C1088 H1104 0.931 . S
C1089 C1088 1.391 . S
C1089 C1093 1.376 . S
C1090 C1088 1.394 . S
C1090 C1091 1.369 . S
C1090 C1094 1.531 . S
C1091 C1090 1.369 . S
C1091 C1092 1.410 . S
C1091 C1099 1.503 . S
C1092 C1091 1.410 . S
C1092 C1093 1.392 . S
C1092 C1095 1.511 . S
C1093 C1089 1.376 . S
C1093 C1092 1.392 . S
C1093 H1105 0.929 . S
C1094 C1090 1.531 . S
C1094 H1106 0.960 . S
C1094 H1107 0.962 . S
C1094 H1108 0.960 . S
C1095 C1092 1.511 . S
C1095 H1109 0.961 . S
C1095 H1110 0.961 . S
C1095 H1111 0.961 . S
C1096 C1097 1.370 . S
C1096 C1098 1.363 . S
C1096 H1112 0.931 . S
C1097 C1096 1.370 . S
C1097 C1101 1.408 . S
C1098 C1096 1.363 . S
C1098 C1099 1.370 . S
C1098 C1102 1.524 . S
C1099 C1091 1.503 . S
C1099 C1098 1.370 . S
C1099 C1100 1.403 . S
C1100 C1099 1.403 . S
C1100 C1101 1.404 . S
C1100 C1103 1.539 . S
C1101 C1097 1.408 . S
C1101 C1100 1.404 . S
C1101 H1113 0.930 . S
C1102 C1098 1.524 . S
C1102 H1114 0.956 . S
C1102 H1115 0.961 . S
C1102 H1116 0.961 . S
C1103 C1100 1.539 . S
C1103 H1117 0.958 . S
C1103 H1118 0.961 . S
C1103 H1119 0.960 . S
H1104 C1088 0.931 . S
H1105 C1093 0.929 . S
H1106 C1094 0.960 . S
H1107 C1094 0.962 . S
H1108 C1094 0.960 . S
H1109 C1095 0.961 . S
H1110 C1095 0.961 . S
H1111 C1095 0.961 . S
H1112 C1096 0.931 . S
H1113 C1101 0.930 . S
H1114 C1102 0.956 . S
H1115 C1102 0.961 . S
H1116 C1102 0.961 . S
H1117 C1103 0.958 . S
H1118 C1103 0.961 . S
H1119 C1103 0.960 . S
C1120 C1121 1.391 . S
C1120 C1122 1.394 . S
C1120 H1136 0.931 . S
C1121 C1120 1.391 . S
C1121 C1125 1.376 . S
C1122 C1120 1.394 . S
C1122 C1123 1.369 . S
C1122 C1126 1.531 . S
C1123 C1122 1.369 . S
C1123 C1124 1.410 . S
C1123 C1131 1.503 . S
C1124 C1123 1.410 . S
C1124 C1125 1.392 . S
C1124 C1127 1.511 . S
C1125 C1121 1.376 . S
C1125 C1124 1.392 . S
C1125 H1137 0.929 . S
C1126 C1122 1.531 . S
C1126 H1138 0.960 . S
C1126 H1139 0.962 . S
C1126 H1140 0.960 . S
C1127 C1124 1.511 . S
C1127 H1141 0.961 . S
C1127 H1142 0.961 . S
C1127 H1143 0.961 . S
C1128 C1129 1.370 . S
C1128 C1130 1.363 . S
C1128 H1144 0.931 . S
C1129 C1128 1.370 . S
C1129 C1133 1.408 . S
C1130 C1128 1.363 . S
C1130 C1131 1.370 . S
C1130 C1134 1.524 . S
C1131 C1123 1.503 . S
C1131 C1130 1.370 . S
C1131 C1132 1.403 . S
C1132 C1131 1.403 . S
C1132 C1133 1.404 . S
C1132 C1135 1.539 . S
C1133 C1129 1.408 . S
C1133 C1132 1.404 . S
C1133 H1145 0.930 . S
C1134 C1130 1.524 . S
C1134 H1146 0.956 . S
C1134 H1147 0.961 . S
C1134 H1148 0.961 . S
C1135 C1132 1.539 . S
C1135 H1149 0.958 . S
C1135 H1150 0.961 . S
C1135 H1151 0.960 . S
H1136 C1120 0.931 . S
H1137 C1125 0.929 . S
H1138 C1126 0.960 . S
H1139 C1126 0.962 . S
H1140 C1126 0.960 . S
H1141 C1127 0.961 . S
H1142 C1127 0.961 . S
H1143 C1127 0.961 . S
H1144 C1128 0.931 . S
H1145 C1133 0.930 . S
H1146 C1134 0.956 . S
H1147 C1134 0.961 . S
H1148 C1134 0.961 . S
H1149 C1135 0.958 . S
H1150 C1135 0.961 . S
H1151 C1135 0.960 . S
C1152 C1153 1.391 . S
C1152 C1154 1.394 . S
C1152 H1168 0.931 . S
C1153 C1152 1.391 . S
C1153 C1157 1.376 . S
C1154 C1152 1.394 . S
C1154 C1155 1.369 . S
C1154 C1158 1.531 . S
C1155 C1154 1.369 . S
C1155 C1156 1.410 . S
C1155 C1163 1.503 . S
C1156 C1155 1.410 . S
C1156 C1157 1.392 . S
C1156 C1159 1.511 . S
C1157 C1153 1.376 . S
C1157 C1156 1.392 . S
C1157 H1169 0.929 . S
C1158 C1154 1.531 . S
C1158 H1170 0.960 . S
C1158 H1171 0.962 . S
C1158 H1172 0.960 . S
C1159 C1156 1.511 . S
C1159 H1173 0.961 . S
C1159 H1174 0.961 . S
C1159 H1175 0.961 . S
C1160 C1161 1.370 . S
C1160 C1162 1.363 . S
C1160 H1176 0.931 . S
C1161 C1160 1.370 . S
C1161 C1165 1.408 . S
C1162 C1160 1.363 . S
C1162 C1163 1.370 . S
C1162 C1166 1.524 . S
C1163 C1155 1.503 . S
C1163 C1162 1.370 . S
C1163 C1164 1.403 . S
C1164 C1163 1.403 . S
C1164 C1165 1.404 . S
C1164 C1167 1.539 . S
C1165 C1161 1.408 . S
C1165 C1164 1.404 . S
C1165 H1177 0.930 . S
C1166 C1162 1.524 . S
C1166 H1178 0.956 . S
C1166 H1179 0.961 . S
C1166 H1180 0.961 . S
C1167 C1164 1.539 . S
C1167 H1181 0.958 . S
C1167 H1182 0.961 . S
C1167 H1183 0.960 . S
H1168 C1152 0.931 . S
H1169 C1157 0.929 . S
H1170 C1158 0.960 . S
H1171 C1158 0.962 . S
H1172 C1158 0.960 . S
H1173 C1159 0.961 . S
H1174 C1159 0.961 . S
H1175 C1159 0.961 . S
H1176 C1160 0.931 . S
H1177 C1165 0.930 . S
H1178 C1166 0.956 . S
H1179 C1166 0.961 . S
H1180 C1166 0.961 . S
H1181 C1167 0.958 . S
H1182 C1167 0.961 . S
H1183 C1167 0.960 . S
C1184 C1185 1.391 . S
C1184 C1186 1.394 . S
C1184 H1200 0.931 . S
C1185 C1184 1.391 . S
C1185 C1189 1.376 . S
C1186 C1184 1.394 . S
C1186 C1187 1.369 . S
C1186 C1190 1.531 . S
C1187 C1186 1.369 . S
C1187 C1188 1.410 . S
C1187 C1195 1.503 . S
C1188 C1187 1.410 . S
C1188 C1189 1.392 . S
C1188 C1191 1.511 . S
C1189 C1185 1.376 . S
C1189 C1188 1.392 . S
C1189 H1201 0.929 . S
C1190 C1186 1.531 . S
C1190 H1202 0.960 . S
C1190 H1203 0.962 . S
C1190 H1204 0.960 . S
C1191 C1188 1.511 . S
C1191 H1205 0.961 . S
C1191 H1206 0.961 . S
C1191 H1207 0.961 . S
C1192 C1193 1.370 . S
C1192 C1194 1.363 . S
C1192 H1208 0.931 . S
C1193 C1192 1.370 . S
C1193 C1197 1.408 . S
C1194 C1192 1.363 . S
C1194 C1195 1.370 . S
C1194 C1198 1.524 . S
C1195 C1187 1.503 . S
C1195 C1194 1.370 . S
C1195 C1196 1.403 . S
C1196 C1195 1.403 . S
C1196 C1197 1.404 . S
C1196 C1199 1.539 . S
C1197 C1193 1.408 . S
C1197 C1196 1.404 . S
C1197 H1209 0.930 . S
C1198 C1194 1.524 . S
C1198 H1210 0.956 . S
C1198 H1211 0.961 . S
C1198 H1212 0.961 . S
C1199 C1196 1.539 . S
C1199 H1213 0.958 . S
C1199 H1214 0.961 . S
C1199 H1215 0.960 . S
H1200 C1184 0.931 . S
H1201 C1189 0.929 . S
H1202 C1190 0.960 . S
H1203 C1190 0.962 . S
H1204 C1190 0.960 . S
H1205 C1191 0.961 . S
H1206 C1191 0.961 . S
H1207 C1191 0.961 . S
H1208 C1192 0.931 . S
H1209 C1197 0.930 . S
H1210 C1198 0.956 . S
H1211 C1198 0.961 . S
H1212 C1198 0.961 . S
H1213 C1199 0.958 . S
H1214 C1199 0.961 . S
H1215 C1199 0.960 . S
C1216 C1217 1.391 . S
C1216 C1218 1.394 . S
C1216 H1232 0.931 . S
C1217 C1216 1.391 . S
C1217 C1221 1.376 . S
C1218 C1216 1.394 . S
C1218 C1219 1.369 . S
C1218 C1222 1.531 . S
C1219 C1218 1.369 . S
C1219 C1220 1.410 . S
C1219 C1227 1.503 . S
C1220 C1219 1.410 . S
C1220 C1221 1.392 . S
C1220 C1223 1.511 . S
C1221 C1217 1.376 . S
C1221 C1220 1.392 . S
C1221 H1233 0.929 . S
C1222 C1218 1.531 . S
C1222 H1234 0.960 . S
C1222 H1235 0.962 . S
C1222 H1236 0.960 . S
C1223 C1220 1.511 . S
C1223 H1237 0.961 . S
C1223 H1238 0.961 . S
C1223 H1239 0.961 . S
C1224 C1225 1.370 . S
C1224 C1226 1.363 . S
C1224 H1240 0.931 . S
C1225 C1224 1.370 . S
C1225 C1229 1.408 . S
C1226 C1224 1.363 . S
C1226 C1227 1.370 . S
C1226 C1230 1.524 . S
C1227 C1219 1.503 . S
C1227 C1226 1.370 . S
C1227 C1228 1.403 . S
C1228 C1227 1.403 . S
C1228 C1229 1.404 . S
C1228 C1231 1.539 . S
C1229 C1225 1.408 . S
C1229 C1228 1.404 . S
C1229 H1241 0.930 . S
C1230 C1226 1.524 . S
C1230 H1242 0.956 . S
C1230 H1243 0.961 . S
C1230 H1244 0.961 . S
C1231 C1228 1.539 . S
C1231 H1245 0.958 . S
C1231 H1246 0.961 . S
C1231 H1247 0.960 . S
H1232 C1216 0.931 . S
H1233 C1221 0.929 . S
H1234 C1222 0.960 . S
H1235 C1222 0.962 . S
H1236 C1222 0.960 . S
H1237 C1223 0.961 . S
H1238 C1223 0.961 . S
H1239 C1223 0.961 . S
H1240 C1224 0.931 . S
H1241 C1229 0.930 . S
H1242 C1230 0.956 . S
H1243 C1230 0.961 . S
H1244 C1230 0.961 . S
H1245 C1231 0.958 . S
H1246 C1231 0.961 . S
H1247 C1231 0.960 . S
C225 C8 1.503 . S
C233 C175 1.480 . S
C257 C189 1.447 . S
C265 C22 1.500 . S
C289 C36 1.511 . S
C297 C203 1.471 . S
C321 C217 1.473 . S
C329 C50 1.495 . S
C353 C120 1.498 . S
C361 C63 1.482 . S
C385 C77 1.445 . S
C393 C134 1.501 . S
C417 C148 1.492 . S
C425 C91 1.466 . S
C449 C105 1.476 . S
C457 C162 1.495 . S
C481 C3 1.525 . S
C489 C31 1.540 . S
C513 C17 1.522 . S
C521 C45 1.539 . S
C545 C59 1.546 . S
C553 C87 1.537 . S
C577 C73 1.541 . S
C585 C101 1.537 . S
C609 C143 1.530 . S
C617 C115 1.539 . S
C641 C129 1.526 . S
C649 C157 1.540 . S
C673 C199 1.529 . S
C681 C171 1.542 . S
C705 C185 1.543 . S
C713 C213 1.537 . S
C737 C93 1.502 . S
C745 C9 1.528 . S
C769 C107 1.534 . S
C777 C23 1.536 . S
C801 C37 1.528 . S
C809 C65 1.521 . S
C833 C51 1.536 . S
C841 C79 1.528 . S
C865 C205 1.502 . S
C873 C121 1.528 . S
C897 C135 1.537 . S
C905 C219 1.528 . S
C929 C177 1.535 . S
C937 C149 1.537 . S
C961 C163 1.518 . S
C969 C191 1.515 . S
C993 C7 1.238 . S
C1001 C49 1.270 . S
C1025 C35 1.299 . S
C1033 C21 1.273 . S
C1057 C64 1.624 . S
C1065 C106 1.618 . S
C1089 C78 1.621 . S
C1097 C92 1.619 . S
C1121 C161 1.300 . S
C1129 C119 1.275 . S
C1153 C133 1.302 . S
C1161 C147 1.279 . S
C1185 C218 1.612 . S
C1193 C176 1.623 . S
C1217 C190 1.619 . S
C1225 C204 1.620 . S
