# Generated by pormake.
# Topology unj, (4)-cn, num edge types: 1
# Building blocks:
#     Node 0, Type 0, BuildingBlock: QUQFOY_clean_sbu_1, # of connection points: 4
#     Node 1, Type 0, BuildingBlock: QUQFOY_clean_sbu_1, # of connection points: 4
#     Node 2, Type 0, BuildingBlock: QUQFOY_clean_sbu_1, # of connection points: 4
#     Node 3, Type 0, BuildingBlock: QUQFOY_clean_sbu_1, # of connection points: 4
#     Node 4, Type 0, BuildingBlock: QUQFOY_clean_sbu_1, # of connection points: 4
#     Node 5, Type 0, BuildingBlock: QUQFOY_clean_sbu_1, # of connection points: 4
#     Edge 6, Type (0, 0), BuildingBlock: UVAHIK_clean_linker_0, # of connection points: 2
#     Edge 7, Type (0, 0), BuildingBlock: UVAHIK_clean_linker_0, # of connection points: 2
#     Edge 8, Type (0, 0), BuildingBlock: UVAHIK_clean_linker_0, # of connection points: 2
#     Edge 9, Type (0, 0), BuildingBlock: UVAHIK_clean_linker_0, # of connection points: 2
#     Edge 10, Type (0, 0), BuildingBlock: UVAHIK_clean_linker_0, # of connection points: 2
#     Edge 11, Type (0, 0), BuildingBlock: UVAHIK_clean_linker_0, # of connection points: 2
#     Edge 12, Type (0, 0), BuildingBlock: UVAHIK_clean_linker_0, # of connection points: 2
#     Edge 13, Type (0, 0), BuildingBlock: UVAHIK_clean_linker_0, # of connection points: 2
#     Edge 14, Type (0, 0), BuildingBlock: UVAHIK_clean_linker_0, # of connection points: 2
#     Edge 15, Type (0, 0), BuildingBlock: UVAHIK_clean_linker_0, # of connection points: 2
#     Edge 16, Type (0, 0), BuildingBlock: UVAHIK_clean_linker_0, # of connection points: 2
#     Edge 17, Type (0, 0), BuildingBlock: UVAHIK_clean_linker_0, # of connection points: 2
# Relax obj value: 0.136
# Max RMSD: 0.187
# Mean RMSD: 0.187
data_MOF--net-unj--node1-QUQFOY_clean_sbu_1--edge1-UVAHIK_clean_linker_0
_symmetry_space_group_name_H-M    P1
_symmetry_Int_Tables_number       1
_symmetry_cell_setting            triclinic
loop_
_symmetry_equiv_pos_as_xyz
'x, y, z'
_cell_length_a     43.772661
_cell_length_b     43.778418
_cell_length_c     49.035421
_cell_angle_alpha  89.995377
_cell_angle_beta   90.017399
_cell_angle_gamma 120.02034
loop_
_atom_site_label
_atom_site_type_symbol
_atom_site_fract_x
_atom_site_fract_y
_atom_site_fract_z
_atom_type_partial_charge
O0 O 0.49649 0.23171 0.63047 0.0
Cd1 Cd 0.46101 0.22949 0.60181 0.0
Cd2 Cd 0.51318 0.29567 0.59115 0.0
O3 O 0.53972 0.28552 0.62158 0.0
O4 O 0.4258 0.17845 0.59797 0.0
O5 O 0.45988 0.21089 0.56404 0.0
C6 C 0.43557 0.18058 0.57291 0.0
C7 C 0.54143 0.3172 0.54948 0.0
C8 C 0.52736 0.25712 0.63528 0.0
C9 C 0.44372 0.28691 0.60988 0.0
O10 O 0.47512 0.30814 0.60224 0.0
O11 O 0.43256 0.254 0.61108 0.0
O12 O 0.54911 0.33736 0.57055 0.0
O13 O 0.51766 0.28435 0.55211 0.0
O14 O 0.26239 0.49696 0.79204 0.0
Cd15 Cd 0.22897 0.4637 0.76211 0.0
Cd16 Cd 0.21945 0.51888 0.75255 0.0
O17 O 0.25576 0.54275 0.78342 0.0
O18 O 0.24035 0.4252 0.75876 0.0
O19 O 0.24941 0.46294 0.72547 0.0
C20 C 0.2514 0.43622 0.7344 0.0
C21 C 0.22833 0.54788 0.71099 0.0
C22 C 0.26978 0.5284 0.79721 0.0
C23 C 0.15552 0.45149 0.76952 0.0
O24 O 0.16823 0.4839 0.76374 0.0
O25 O 0.17516 0.43779 0.76926 0.0
O26 O 0.21706 0.55681 0.73212 0.0
O27 O 0.23511 0.52247 0.71353 0.0
O28 O 0.69585 0.16334 0.92985 0.0
Cd29 Cd 0.70844 0.21453 0.92067 0.0
Cd30 Cd 0.77344 0.22783 0.93397 0.0
O31 O 0.74939 0.17425 0.94027 0.0
O32 O 0.66821 0.20959 0.89838 0.0
O33 O 0.72277 0.23347 0.88259 0.0
C34 C 0.69004 0.22389 0.87844 0.0
C35 C 0.82342 0.25556 0.90641 0.0
C36 C 0.71661 0.15259 0.93755 0.0
C37 C 0.74229 0.26255 0.96823 0.0
O38 O 0.76802 0.25736 0.96423 0.0
O39 O 0.7155 0.24844 0.95262 0.0
O40 O 0.82507 0.24604 0.93101 0.0
O41 O 0.79302 0.24885 0.89722 0.0
O42 O 0.51028 0.77026 0.12806 0.0
Cd43 Cd 0.54288 0.76949 0.09812 0.0
Cd44 Cd 0.48755 0.70538 0.08725 0.0
O45 O 0.46368 0.71922 0.11745 0.0
O46 O 0.58083 0.8192 0.09209 0.0
O47 O 0.54126 0.78726 0.06068 0.0
C48 C 0.5683 0.81685 0.06788 0.0
C49 C 0.45897 0.68571 0.04544 0.0
C50 C 0.47826 0.74689 0.1321 0.0
C51 C 0.55432 0.70788 0.10521 0.0
O52 O 0.52213 0.68837 0.09856 0.0
O53 O 0.56801 0.74122 0.10575 0.0
O54 O 0.44861 0.66579 0.06676 0.0
O55 O 0.48564 0.71722 0.04792 0.0
O56 O 0.7397 0.50743 0.29629 0.0
Cd57 Cd 0.76957 0.53771 0.26379 0.0
Cd58 Cd 0.779 0.48261 0.25544 0.0
O59 O 0.74337 0.46008 0.28699 0.0
O60 O 0.75624 0.5745 0.25775 0.0
O61 O 0.74603 0.53287 0.22756 0.0
C62 C 0.74374 0.56015 0.23439 0.0
C63 C 0.76842 0.45197 0.21447 0.0
C64 C 0.73152 0.4758 0.30163 0.0
C65 C 0.84359 0.55152 0.26901 0.0
O66 O 0.83076 0.51861 0.26527 0.0
O67 O 0.82373 0.56495 0.26805 0.0
O68 O 0.78052 0.44381 0.23553 0.0
O69 O 0.76193 0.47758 0.21674 0.0
O70 O 0.30913 0.83664 0.4293 0.0
Cd71 Cd 0.29477 0.78578 0.4178 0.0
Cd72 Cd 0.22983 0.77451 0.42789 0.0
O73 O 0.25543 0.82839 0.43384 0.0
O74 O 0.33534 0.79006 0.39644 0.0
O75 O 0.28209 0.77025 0.37887 0.0
C76 C 0.31459 0.77835 0.37562 0.0
C77 C 0.17998 0.74839 0.39992 0.0
C78 C 0.28868 0.84871 0.43443 0.0
C79 C 0.2565 0.73633 0.46331 0.0
O80 O 0.23243 0.7439 0.45889 0.0
O81 O 0.28382 0.74922 0.4483 0.0
O82 O 0.17878 0.75889 0.42426 0.0
O83 O 0.20989 0.75312 0.39121 0.0
C84 C 0.39582 0.1158 0.56639 0.0
C85 C 0.41952 0.14892 0.55524 0.0
C86 C 0.38091 0.08559 0.55015 0.0
C87 C 0.39384 0.04993 0.48562 0.0
H88 H 0.29804 0.97558 0.50017 0.0
C89 C 0.33975 0.90674 0.44903 0.0
C90 C 0.3037 0.88607 0.4427 0.0
C91 C 0.3534 0.94093 0.45924 0.0
C92 C 0.32463 0.9962 0.49545 0.0
H93 H 0.44591 0.17638 0.51814 0.0
H94 H 0.41929 0.12353 0.48952 0.0
H95 H 0.32179 0.03134 0.52423 0.0
H96 H 0.25407 0.88582 0.44085 0.0
H97 H 0.27803 0.94576 0.45797 0.0
H98 H 0.39642 0.01489 0.45648 0.0
C99 C 0.41268 0.12089 0.511 0.0
C100 C 0.33847 0.02808 0.5096 0.0
C101 C 0.42781 0.1512 0.52735 0.0
C102 C 0.2819 0.9009 0.44577 0.0
C103 C 0.29561 0.93523 0.45575 0.0
C104 C 0.37989 0.01808 0.4713 0.0
C105 C 0.38907 0.08769 0.52223 0.0
C106 C 0.37348 0.05509 0.50529 0.0
C107 C 0.3314 0.95544 0.46314 0.0
C108 C 0.34531 0.99056 0.47639 0.0
H109 H 0.38903 0.11304 0.58784 0.0
H110 H 0.36345 0.06043 0.55967 0.0
H111 H 0.42095 0.07004 0.48187 0.0
H112 H 0.35729 0.89612 0.44699 0.0
H113 H 0.38095 0.95543 0.46502 0.0
C114 C 0.42993 0.33597 0.61345 0.0
C115 C 0.42058 0.30075 0.6187 0.0
C116 C 0.40915 0.34955 0.62333 0.0
C117 C 0.34983 0.33787 0.67927 0.0
H118 H 0.32106 0.39307 0.63568 0.0
C119 C 0.26011 0.3852 0.72465 0.0
C120 C 0.26685 0.41915 0.71782 0.0
C121 C 0.27657 0.36974 0.71051 0.0
C122 C 0.32925 0.3781 0.64824 0.0
H123 H 0.38164 0.25201 0.63794 0.0
H124 H 0.34577 0.27595 0.6555 0.0
H125 H 0.35453 0.36831 0.61456 0.0
H126 H 0.29553 0.46333 0.69041 0.0
H127 H 0.32541 0.43692 0.66626 0.0
H128 H 0.326 0.34844 0.71314 0.0
C129 C 0.36914 0.29295 0.64371 0.0
C130 C 0.34827 0.36382 0.63608 0.0
C131 C 0.38962 0.27924 0.63354 0.0
C132 C 0.28975 0.43704 0.69605 0.0
C133 C 0.30674 0.42179 0.68214 0.0
C134 C 0.33131 0.35249 0.69148 0.0
C135 C 0.37891 0.32833 0.63896 0.0
C136 C 0.35856 0.34341 0.65148 0.0
C137 C 0.30076 0.38812 0.68948 0.0
C138 C 0.32053 0.37264 0.67614 0.0
H139 H 0.45355 0.35319 0.602 0.0
H140 H 0.41736 0.37697 0.61951 0.0
H141 H 0.358 0.32278 0.69173 0.0
H142 H 0.24221 0.37057 0.74112 0.0
H143 H 0.27047 0.34341 0.71628 0.0
C144 C 0.85381 0.27916 0.86151 0.0
C145 C 0.85573 0.2744 0.88969 0.0
C146 C 0.88467 0.29764 0.84604 0.0
C147 C 0.97713 0.36587 0.85236 0.0
H148 H 0.99254 0.3276 0.78578 0.0
C149 C 0.09873 0.4469 0.78464 0.0
C150 C 0.11826 0.43028 0.77836 0.0
C151 C 0.0648 0.42759 0.79556 0.0
C152 C 0.98848 0.33858 0.80431 0.0
H153 H 0.89144 0.28521 0.92371 0.0
H154 H 0.94509 0.31788 0.89683 0.0
H155 H 0.93663 0.29417 0.81056 0.0
H156 H 0.11675 0.37999 0.77744 0.0
H157 H 0.05721 0.3462 0.79626 0.0
H158 H 0.02886 0.41012 0.84634 0.0
C159 C 0.91977 0.30725 0.88671 0.0
C160 C 0.95651 0.31961 0.81835 0.0
C161 C 0.88904 0.28838 0.90205 0.0
C162 C 0.10247 0.39362 0.78215 0.0
C163 C 0.06833 0.37422 0.79279 0.0
C164 C 0.00879 0.38503 0.83815 0.0
C165 C 0.91792 0.31217 0.8586 0.0
C166 C 0.95077 0.33291 0.8427 0.0
C167 C 0.04948 0.39117 0.80013 0.0
C168 C 0.01495 0.37144 0.81414 0.0
H169 H 0.8285 0.26862 0.85142 0.0
H170 H 0.88257 0.30121 0.8244 0.0
H171 H 0.97326 0.37682 0.87099 0.0
H172 H 0.11002 0.47508 0.78194 0.0
H173 H 0.0507 0.44124 0.8008 0.0
C174 C 0.56532 0.84919 0.02665 0.0
C175 C 0.58408 0.84762 0.04936 0.0
C176 C 0.5795 0.87949 0.01035 0.0
C177 C 0.6624 0.95876 0.99109 0.0
H178 H 0.60477 0.00212 0.98056 0.0
C179 C 0.72237 0.10458 0.96043 0.0
C180 C 0.70219 0.11503 0.9449 0.0
C181 C 0.70781 0.06977 0.96943 0.0
C182 C 0.62107 0.99012 0.98272 0.0
H183 H 0.63286 0.87596 0.07225 0.0
H184 H 0.65778 0.92849 0.04355 0.0
H185 H 0.57951 0.94462 0.00249 0.0
H186 H 0.65139 0.09673 0.92556 0.0
H187 H 0.62634 0.03573 0.94047 0.0
H188 H 0.70397 0.00401 0.9713 0.0
C189 C 0.63209 0.90642 0.03842 0.0
C190 C 0.60655 0.95717 0.99539 0.0
C191 C 0.61772 0.87643 0.05494 0.0
C192 C 0.66753 0.08959 0.93772 0.0
C193 C 0.6531 0.05464 0.94643 0.0
C194 C 0.67681 0.99149 0.97808 0.0
C195 C 0.61294 0.90846 0.0162 0.0
C196 C 0.62728 0.94151 0.00018 0.0
C197 C 0.67283 0.04439 0.96284 0.0
C198 C 0.65657 0.00798 0.97423 0.0
H199 H 0.53932 0.82741 0.02188 0.0
H200 H 0.56428 0.88038 0.99326 0.0
H201 H 0.67883 0.94704 0.99427 0.0
H202 H 0.7491 0.12357 0.96645 0.0
H203 H 0.7237 0.06316 0.98238 0.0
C204 C 0.70382 0.55381 0.19541 0.0
C205 C 0.72685 0.57445 0.21635 0.0
C206 C 0.68639 0.56696 0.17951 0.0
C207 C 0.69086 0.6488 0.15665 0.0
H208 H 0.58873 0.59427 0.1535 0.0
C209 C 0.60794 0.71204 0.12704 0.0
C210 C 0.57568 0.69177 0.11342 0.0
C211 C 0.62731 0.69663 0.13621 0.0
C212 C 0.61726 0.60961 0.15362 0.0
H213 H 0.75054 0.62534 0.23653 0.0
H214 H 0.72072 0.64846 0.20843 0.0
H215 H 0.62141 0.56908 0.17497 0.0
H216 H 0.539 0.63957 0.09796 0.0
H217 H 0.57335 0.61285 0.1132 0.0
H218 H 0.68704 0.68926 0.13522 0.0
C219 C 0.71597 0.6221 0.20442 0.0
C220 C 0.63594 0.59515 0.16602 0.0
C221 C 0.73287 0.60877 0.2206 0.0
C222 C 0.56364 0.65587 0.10857 0.0
C223 C 0.58327 0.64051 0.11747 0.0
C224 C 0.67227 0.66307 0.14391 0.0
C225 C 0.69228 0.60121 0.18394 0.0
C226 C 0.67284 0.61492 0.16815 0.0
C227 C 0.61519 0.6606 0.13169 0.0
C228 C 0.63515 0.644 0.14277 0.0
H229 H 0.69863 0.52724 0.19173 0.0
H230 H 0.66829 0.5504 0.16377 0.0
H231 H 0.71937 0.6644 0.15775 0.0
H232 H 0.61788 0.73972 0.13128 0.0
H233 H 0.65135 0.71287 0.14753 0.0
C234 C 0.14898 0.7215 0.35573 0.0
C235 C 0.14772 0.73093 0.38293 0.0
C236 C 0.11811 0.70449 0.34007 0.0
C237 C 0.02557 0.68652 0.33816 0.0
H238 H 0.01002 0.60929 0.29062 0.0
C239 C 0.89692 0.61092 0.27686 0.0
C240 C 0.88133 0.57401 0.27623 0.0
C241 C 0.93156 0.63201 0.28604 0.0
C242 C 0.01387 0.6307 0.3039 0.0
H243 H 0.11305 0.72969 0.41506 0.0
H244 H 0.05947 0.69955 0.38814 0.0
H245 H 0.06592 0.6422 0.31482 0.0
H246 H 0.89035 0.53036 0.28396 0.0
H247 H 0.95032 0.56697 0.30066 0.0
H248 H 0.97305 0.67405 0.32843 0.0
C249 C 0.08426 0.70593 0.37857 0.0
C250 C 0.04614 0.64988 0.31751 0.0
C251 C 0.11503 0.72304 0.39411 0.0
C252 C 0.90158 0.55873 0.28412 0.0
C253 C 0.93612 0.57979 0.29356 0.0
C254 C 0.9933 0.66724 0.32472 0.0
C255 C 0.08535 0.69646 0.35133 0.0
C256 C 0.05218 0.6777 0.33515 0.0
C257 C 0.95136 0.61668 0.2951 0.0
C258 C 0.98681 0.63878 0.30767 0.0
H259 H 0.1738 0.72729 0.34651 0.0
H260 H 0.11998 0.69789 0.31908 0.0
H261 H 0.02949 0.70816 0.35119 0.0
H262 H 0.88218 0.62358 0.27065 0.0
H263 H 0.94266 0.66035 0.28636 0.0
C264 C 0.57924 0.36839 0.51942 0.0
C265 C 0.55937 0.33171 0.52316 0.0
C266 C 0.59661 0.38256 0.49482 0.0
C267 C 0.60012 0.3603 0.42213 0.0
H268 H 0.69094 0.44646 0.42492 0.0
C269 C 0.69476 0.42118 0.32937 0.0
C270 C 0.70922 0.45772 0.32565 0.0
C271 C 0.67507 0.40453 0.35273 0.0
C272 C 0.66549 0.42252 0.42383 0.0
H273 H 0.54202 0.28102 0.504 0.0
H274 H 0.57332 0.30575 0.46119 0.0
H275 H 0.66004 0.41935 0.46714 0.0
H276 H 0.71388 0.50529 0.3434 0.0
H277 H 0.67998 0.47626 0.38428 0.0
H278 H 0.60635 0.36335 0.37862 0.0
C279 C 0.57487 0.32363 0.47709 0.0
C280 C 0.64765 0.40701 0.44801 0.0
C281 C 0.55708 0.30942 0.50168 0.0
C282 C 0.70314 0.47712 0.34561 0.0
C283 C 0.68389 0.46056 0.36909 0.0
C284 C 0.61825 0.37565 0.39789 0.0
C285 C 0.59501 0.36042 0.4734 0.0
C286 C 0.61451 0.37593 0.44751 0.0
C287 C 0.6699 0.42418 0.37298 0.0
C288 C 0.65091 0.40713 0.39853 0.0
H289 H 0.58121 0.38631 0.53546 0.0
H290 H 0.61108 0.41097 0.49257 0.0
H291 H 0.5745 0.33663 0.42089 0.0
H292 H 0.69886 0.40547 0.31433 0.0
H293 H 0.66468 0.37646 0.35529 0.0
C294 C 0.27598 0.69988 0.48983 0.0
C295 C 0.25344 0.71396 0.48699 0.0
C296 C 0.27419 0.68048 0.51308 0.0
C297 C 0.25103 0.6727 0.58487 0.0
H298 H 0.24173 0.57989 0.58226 0.0
C299 C 0.21782 0.58774 0.68104 0.0
C300 C 0.23273 0.56613 0.68467 0.0
C301 C 0.22166 0.60518 0.65639 0.0
C302 C 0.24494 0.60603 0.58339 0.0
H303 H 0.21099 0.71816 0.50614 0.0
H304 H 0.20841 0.68493 0.5468 0.0
H305 H 0.24619 0.61121 0.53978 0.0
H306 H 0.26341 0.5458 0.66526 0.0
H307 H 0.27116 0.57726 0.62231 0.0
H308 H 0.25066 0.66834 0.62821 0.0
C309 C 0.22734 0.68884 0.53101 0.0
C310 C 0.24732 0.62384 0.55905 0.0
C311 C 0.22873 0.70771 0.50765 0.0
C312 C 0.25156 0.56225 0.66303 0.0
C313 C 0.25581 0.58013 0.63837 0.0
C314 C 0.24918 0.65522 0.60913 0.0
C315 C 0.25026 0.67535 0.53407 0.0
C316 C 0.24977 0.65707 0.55961 0.0
C317 C 0.24099 0.60195 0.63478 0.0
C318 C 0.24542 0.62135 0.60876 0.0
H319 H 0.29522 0.70414 0.47422 0.0
H320 H 0.29218 0.67039 0.51503 0.0
H321 H 0.25356 0.69859 0.58586 0.0
H322 H 0.20278 0.59095 0.69719 0.0
H323 H 0.20906 0.62094 0.65423 0.0
C324 C 0.70112 0.2511 0.83176 0.0
C325 C 0.67745 0.22829 0.85155 0.0
C326 C 0.68869 0.25499 0.8064 0.0
C327 C 0.6154 0.20899 0.75876 0.0
H328 H 0.63713 0.30153 0.73321 0.0
C329 C 0.5323 0.22542 0.67596 0.0
C330 C 0.54836 0.25377 0.65759 0.0
C331 C 0.55135 0.22264 0.69769 0.0
C332 C 0.63131 0.27552 0.73969 0.0
H333 H 0.62236 0.19141 0.8602 0.0
H334 H 0.60089 0.19769 0.81588 0.0
H335 H 0.66517 0.29622 0.77464 0.0
H336 H 0.59738 0.30112 0.64734 0.0
H337 H 0.63101 0.29578 0.68495 0.0
H338 H 0.58184 0.18806 0.72396 0.0
C339 C 0.62896 0.21267 0.82 0.0
C340 C 0.64732 0.27254 0.76349 0.0
C341 C 0.64125 0.20927 0.84542 0.0
C342 C 0.58417 0.27904 0.66122 0.0
C343 C 0.60339 0.27606 0.68288 0.0
C344 C 0.5998 0.21195 0.73482 0.0
C345 C 0.6525 0.23558 0.80027 0.0
C346 C 0.63883 0.23919 0.77355 0.0
C347 C 0.58715 0.24791 0.7015 0.0
C348 C 0.60681 0.24519 0.72533 0.0
H349 H 0.72916 0.26613 0.83594 0.0
H350 H 0.70734 0.27278 0.79147 0.0
H351 H 0.60884 0.18298 0.7659 0.0
H352 H 0.5047 0.20561 0.67393 0.0
H353 H 0.53765 0.20101 0.71188 0.0
C354 C 0.29541 0.5785 0.8306 0.0
C355 C 0.29371 0.54779 0.82016 0.0
C356 C 0.31604 0.59535 0.85351 0.0
C357 C 0.35655 0.5772 0.91305 0.0
H358 H 0.4026 0.67854 0.92298 0.0
C359 C 0.40902 0.6402 0.01775 0.0
C360 C 0.44105 0.67228 0.01894 0.0
C361 C 0.39251 0.62653 0.99278 0.0
C362 C 0.39024 0.65024 0.92044 0.0
H363 H 0.31363 0.51161 0.82484 0.0
H364 H 0.35037 0.54151 0.86424 0.0
H365 H 0.37333 0.6525 0.8799 0.0
H366 H 0.48079 0.71544 0.99487 0.0
H367 H 0.45237 0.69113 0.95107 0.0
H368 H 0.37422 0.57491 0.95318 0.0
C369 C 0.33497 0.55205 0.85527 0.0
C370 C 0.37304 0.63524 0.89583 0.0
C371 C 0.31405 0.535 0.83256 0.0
C372 C 0.45604 0.69068 0.99461 0.0
C373 C 0.43965 0.67681 0.96952 0.0
C374 C 0.37394 0.59219 0.9375 0.0
C375 C 0.33575 0.58208 0.86637 0.0
C376 C 0.35569 0.59848 0.89192 0.0
C377 C 0.40781 0.64438 0.96829 0.0
C378 C 0.39064 0.62884 0.94168 0.0
H379 H 0.27997 0.58899 0.82158 0.0
H380 H 0.31559 0.61812 0.86164 0.0
H381 H 0.34313 0.54878 0.911 0.0
H382 H 0.3966 0.62553 0.03616 0.0
H383 H 0.36761 0.60194 0.99273 0.0
C384 C 0.71935 0.29641 0.99435 0.0
C385 C 0.74306 0.28367 0.99208 0.0
C386 C 0.71955 0.31514 0.01759 0.0
C387 C 0.74051 0.32322 0.08984 0.0
H388 H 0.75139 0.41665 0.08648 0.0
C389 C 0.77658 0.4101 0.18506 0.0
C390 C 0.76269 0.43263 0.18851 0.0
C391 C 0.77161 0.3918 0.16068 0.0
C392 C 0.74768 0.39032 0.08782 0.0
H393 H 0.78568 0.28083 0.01234 0.0
H394 H 0.78543 0.31274 0.05293 0.0
H395 H 0.74681 0.38484 0.04424 0.0
H396 H 0.73254 0.45357 0.16909 0.0
H397 H 0.7229 0.42069 0.12662 0.0
H398 H 0.74073 0.32798 0.13315 0.0
C399 C 0.76687 0.3084 0.0367 0.0
C400 C 0.7452 0.37222 0.06361 0.0
C401 C 0.7671 0.2903 0.01338 0.0
C402 C 0.74364 0.43644 0.16699 0.0
C403 C 0.73829 0.41774 0.14261 0.0
C404 C 0.74245 0.34099 0.11396 0.0
C405 C 0.74298 0.32079 0.03912 0.0
C406 C 0.74236 0.33884 0.06446 0.0
C407 C 0.75217 0.3951 0.13917 0.0
C408 C 0.74692 0.37513 0.11332 0.0
H409 H 0.70059 0.29181 0.97824 0.0
H410 H 0.70086 0.32443 0.01905 0.0
H411 H 0.73775 0.29724 0.09101 0.0
H412 H 0.79172 0.40686 0.20112 0.0
H413 H 0.78351 0.37538 0.15862 0.0
C414 C 0.36468 0.79212 0.3442 0.0
C415 C 0.32813 0.77511 0.3488 0.0
C416 C 0.3779 0.78972 0.3189 0.0
C417 C 0.35823 0.73399 0.25923 0.0
H418 H 0.43213 0.81879 0.22505 0.0
C419 C 0.4216 0.72908 0.15695 0.0
C420 C 0.45827 0.75145 0.15458 0.0
C421 C 0.4031 0.73273 0.17879 0.0
C422 C 0.41179 0.79478 0.23442 0.0
H423 H 0.2767 0.74196 0.33057 0.0
H424 H 0.30002 0.7371 0.28629 0.0
H425 H 0.40471 0.82332 0.26694 0.0
H426 H 0.50424 0.79525 0.17329 0.0
H427 H 0.47237 0.80092 0.21164 0.0
H428 H 0.36621 0.70521 0.22748 0.0
C429 C 0.3183 0.75251 0.30233 0.0
C430 C 0.39598 0.79745 0.25834 0.0
C431 C 0.30501 0.75538 0.32759 0.0
C432 C 0.47596 0.77773 0.17437 0.0
C433 C 0.45757 0.78113 0.19632 0.0
C434 C 0.37437 0.73124 0.23546 0.0
C435 C 0.35488 0.76986 0.29774 0.0
C436 C 0.36941 0.76706 0.27117 0.0
C437 C 0.42091 0.75861 0.19891 0.0
C438 C 0.40176 0.76159 0.22297 0.0
H439 H 0.38319 0.80759 0.3601 0.0
H440 H 0.40622 0.80303 0.31599 0.0
H441 H 0.33797 0.71013 0.26886 0.0
H442 H 0.40714 0.7087 0.14194 0.0
H443 H 0.37482 0.71527 0.17986 0.0
loop_
_geom_bond_atom_site_label_1
_geom_bond_atom_site_label_2
_geom_bond_distance
_geom_bond_site_symmetry_2
_ccdc_geom_bond_type
O0 Cd1 2.223 . S
O0 C8 1.315 . S
Cd1 O0 2.223 . S
Cd1 O4 2.297 . S
Cd1 O5 2.439 . S
Cd1 O11 2.240 . S
Cd2 O3 2.240 . S
Cd2 O10 2.223 . S
Cd2 O12 2.297 . S
Cd2 O13 2.439 . S
O3 Cd2 2.240 . S
O3 C8 1.279 . S
O4 Cd1 2.297 . S
O4 C6 1.247 . S
O5 Cd1 2.439 . S
O5 C6 1.208 . S
C6 O4 1.247 . S
C6 O5 1.208 . S
C7 O12 1.247 . S
C7 O13 1.208 . S
C8 O0 1.315 . S
C8 O3 1.279 . S
C9 O10 1.315 . S
C9 O11 1.279 . S
O10 Cd2 2.223 . S
O10 C9 1.315 . S
O11 Cd1 2.240 . S
O11 C9 1.279 . S
O12 Cd2 2.297 . S
O12 C7 1.247 . S
O13 Cd2 2.439 . S
O13 C7 1.208 . S
O14 Cd15 2.223 . S
O14 C22 1.315 . S
Cd15 O14 2.223 . S
Cd15 O18 2.297 . S
Cd15 O19 2.439 . S
Cd15 O25 2.240 . S
Cd16 O17 2.240 . S
Cd16 O24 2.223 . S
Cd16 O26 2.297 . S
Cd16 O27 2.439 . S
O17 Cd16 2.240 . S
O17 C22 1.279 . S
O18 Cd15 2.297 . S
O18 C20 1.247 . S
O19 Cd15 2.439 . S
O19 C20 1.208 . S
C20 O18 1.247 . S
C20 O19 1.208 . S
C21 O26 1.247 . S
C21 O27 1.208 . S
C22 O14 1.315 . S
C22 O17 1.279 . S
C23 O24 1.315 . S
C23 O25 1.279 . S
O24 Cd16 2.223 . S
O24 C23 1.315 . S
O25 Cd15 2.240 . S
O25 C23 1.279 . S
O26 Cd16 2.297 . S
O26 C21 1.247 . S
O27 Cd16 2.439 . S
O27 C21 1.208 . S
O28 Cd29 2.223 . S
O28 C36 1.315 . S
Cd29 O28 2.223 . S
Cd29 O32 2.297 . S
Cd29 O33 2.439 . S
Cd29 O39 2.240 . S
Cd30 O31 2.240 . S
Cd30 O38 2.223 . S
Cd30 O40 2.297 . S
Cd30 O41 2.439 . S
O31 Cd30 2.240 . S
O31 C36 1.279 . S
O32 Cd29 2.297 . S
O32 C34 1.247 . S
O33 Cd29 2.439 . S
O33 C34 1.208 . S
C34 O32 1.247 . S
C34 O33 1.208 . S
C35 O40 1.247 . S
C35 O41 1.208 . S
C36 O28 1.315 . S
C36 O31 1.279 . S
C37 O38 1.315 . S
C37 O39 1.279 . S
O38 Cd30 2.223 . S
O38 C37 1.315 . S
O39 Cd29 2.240 . S
O39 C37 1.279 . S
O40 Cd30 2.297 . S
O40 C35 1.247 . S
O41 Cd30 2.439 . S
O41 C35 1.208 . S
O42 Cd43 2.223 . S
O42 C50 1.315 . S
Cd43 O42 2.223 . S
Cd43 O46 2.297 . S
Cd43 O47 2.439 . S
Cd43 O53 2.240 . S
Cd44 O45 2.240 . S
Cd44 O52 2.223 . S
Cd44 O54 2.297 . S
Cd44 O55 2.439 . S
O45 Cd44 2.240 . S
O45 C50 1.279 . S
O46 Cd43 2.297 . S
O46 C48 1.247 . S
O47 Cd43 2.439 . S
O47 C48 1.208 . S
C48 O46 1.247 . S
C48 O47 1.208 . S
C49 O54 1.247 . S
C49 O55 1.208 . S
C50 O42 1.315 . S
C50 O45 1.279 . S
C51 O52 1.315 . S
C51 O53 1.279 . S
O52 Cd44 2.223 . S
O52 C51 1.315 . S
O53 Cd43 2.240 . S
O53 C51 1.279 . S
O54 Cd44 2.297 . S
O54 C49 1.247 . S
O55 Cd44 2.439 . S
O55 C49 1.208 . S
O56 Cd57 2.223 . S
O56 C64 1.315 . S
Cd57 O56 2.223 . S
Cd57 O60 2.297 . S
Cd57 O61 2.439 . S
Cd57 O67 2.240 . S
Cd58 O59 2.240 . S
Cd58 O66 2.223 . S
Cd58 O68 2.297 . S
Cd58 O69 2.439 . S
O59 Cd58 2.240 . S
O59 C64 1.279 . S
O60 Cd57 2.297 . S
O60 C62 1.247 . S
O61 Cd57 2.439 . S
O61 C62 1.208 . S
C62 O60 1.247 . S
C62 O61 1.208 . S
C63 O68 1.247 . S
C63 O69 1.208 . S
C64 O56 1.315 . S
C64 O59 1.279 . S
C65 O66 1.315 . S
C65 O67 1.279 . S
O66 Cd58 2.223 . S
O66 C65 1.315 . S
O67 Cd57 2.240 . S
O67 C65 1.279 . S
O68 Cd58 2.297 . S
O68 C63 1.247 . S
O69 Cd58 2.439 . S
O69 C63 1.208 . S
O70 Cd71 2.223 . S
O70 C78 1.315 . S
Cd71 O70 2.223 . S
Cd71 O74 2.297 . S
Cd71 O75 2.439 . S
Cd71 O81 2.240 . S
Cd72 O73 2.240 . S
Cd72 O80 2.223 . S
Cd72 O82 2.297 . S
Cd72 O83 2.439 . S
O73 Cd72 2.240 . S
O73 C78 1.279 . S
O74 Cd71 2.297 . S
O74 C76 1.247 . S
O75 Cd71 2.439 . S
O75 C76 1.208 . S
C76 O74 1.247 . S
C76 O75 1.208 . S
C77 O82 1.247 . S
C77 O83 1.208 . S
C78 O70 1.315 . S
C78 O73 1.279 . S
C79 O80 1.315 . S
C79 O81 1.279 . S
O80 Cd72 2.223 . S
O80 C79 1.315 . S
O81 Cd71 2.240 . S
O81 C79 1.279 . S
O82 Cd72 2.297 . S
O82 C77 1.247 . S
O83 Cd72 2.439 . S
O83 C77 1.208 . S
C84 C85 1.349 . S
C84 C86 1.327 . S
C84 H109 0.950 . S
C85 C84 1.349 . S
C85 C101 1.349 . S
C86 C84 1.327 . S
C86 C105 1.429 . S
C86 H110 0.950 . S
C87 C104 1.574 . S
C87 C106 1.368 . S
C87 H111 0.949 1_565 S
H88 C92 0.949 . S
C89 C90 1.349 . S
C89 C91 1.327 . S
C89 H112 0.950 . S
C90 C89 1.349 . S
C90 C102 1.349 . S
C91 C89 1.327 . S
C91 C107 1.429 . S
C91 H113 0.950 . S
C92 H88 0.949 . S
C92 C100 1.574 . S
C92 C108 1.368 . S
H93 C101 0.950 . S
H94 C99 0.950 . S
H95 C100 0.949 . S
H96 C102 0.950 . S
H97 C103 0.950 . S
H98 C104 0.949 . S
C99 H94 0.950 . S
C99 C101 1.327 . S
C99 C105 1.429 . S
C100 C92 1.574 . S
C100 H95 0.949 . S
C100 C106 1.368 . S
C101 C85 1.349 . S
C101 H93 0.950 . S
C101 C99 1.327 . S
C102 C90 1.349 . S
C102 H96 0.950 . S
C102 C103 1.327 . S
C103 H97 0.950 . S
C103 C102 1.327 . S
C103 C107 1.429 . S
C104 C87 1.574 . S
C104 H98 0.949 . S
C104 C108 1.368 . S
C105 C86 1.429 . S
C105 C99 1.429 . S
C105 C106 1.523 1_545 S
C106 C87 1.368 . S
C106 C100 1.368 . S
C106 C105 1.523 1_565 S
C107 C91 1.429 . S
C107 C103 1.429 . S
C107 C108 1.523 . S
C108 C92 1.368 . S
C108 C104 1.368 . S
C108 C107 1.523 . S
H109 C84 0.950 . S
H110 C86 0.950 . S
H111 C87 0.949 1_545 S
H112 C89 0.950 . S
H113 C91 0.950 . S
C114 C115 1.349 . S
C114 C116 1.327 . S
C114 H139 0.950 . S
C115 C114 1.349 . S
C115 C131 1.349 . S
C116 C114 1.327 . S
C116 C135 1.429 . S
C116 H140 0.950 . S
C117 C134 1.574 . S
C117 C136 1.368 . S
C117 H141 0.949 . S
H118 C122 0.949 . S
C119 C120 1.349 . S
C119 C121 1.327 . S
C119 H142 0.950 . S
C120 C119 1.349 . S
C120 C132 1.349 . S
C121 C119 1.327 . S
C121 C137 1.429 . S
C121 H143 0.950 . S
C122 H118 0.949 . S
C122 C130 1.574 . S
C122 C138 1.368 . S
H123 C131 0.950 . S
H124 C129 0.950 . S
H125 C130 0.949 . S
H126 C132 0.950 . S
H127 C133 0.950 . S
H128 C134 0.949 . S
C129 H124 0.950 . S
C129 C131 1.327 . S
C129 C135 1.429 . S
C130 C122 1.574 . S
C130 H125 0.949 . S
C130 C136 1.368 . S
C131 C115 1.349 . S
C131 H123 0.950 . S
C131 C129 1.327 . S
C132 C120 1.349 . S
C132 H126 0.950 . S
C132 C133 1.327 . S
C133 H127 0.950 . S
C133 C132 1.327 . S
C133 C137 1.429 . S
C134 C117 1.574 . S
C134 H128 0.949 . S
C134 C138 1.368 . S
C135 C116 1.429 . S
C135 C129 1.429 . S
C135 C136 1.523 . S
C136 C117 1.368 . S
C136 C130 1.368 . S
C136 C135 1.523 . S
C137 C121 1.429 . S
C137 C133 1.429 . S
C137 C138 1.523 . S
C138 C122 1.368 . S
C138 C134 1.368 . S
C138 C137 1.523 . S
H139 C114 0.950 . S
H140 C116 0.950 . S
H141 C117 0.949 . S
H142 C119 0.950 . S
H143 C121 0.950 . S
C144 C145 1.349 . S
C144 C146 1.327 . S
C144 H169 0.950 . S
C145 C144 1.349 . S
C145 C161 1.349 . S
C146 C144 1.327 . S
C146 C165 1.429 . S
C146 H170 0.950 . S
C147 C164 1.574 . S
C147 C166 1.368 . S
C147 H171 0.949 . S
H148 C152 0.949 . S
C149 C150 1.349 . S
C149 C151 1.327 . S
C149 H172 0.950 . S
C150 C149 1.349 . S
C150 C162 1.349 . S
C151 C149 1.327 . S
C151 C167 1.429 . S
C151 H173 0.950 . S
C152 H148 0.949 . S
C152 C160 1.574 . S
C152 C168 1.368 . S
H153 C161 0.950 . S
H154 C159 0.950 . S
H155 C160 0.949 1_655 S
H156 C162 0.950 . S
H157 C163 0.950 . S
H158 C164 0.949 . S
C159 H154 0.950 . S
C159 C161 1.327 . S
C159 C165 1.429 . S
C160 C152 1.574 . S
C160 H155 0.949 1_455 S
C160 C166 1.368 . S
C161 C145 1.349 . S
C161 H153 0.950 . S
C161 C159 1.327 . S
C162 C150 1.349 . S
C162 H156 0.950 . S
C162 C163 1.327 . S
C163 H157 0.950 . S
C163 C162 1.327 . S
C163 C167 1.429 . S
C164 C147 1.574 . S
C164 H158 0.949 . S
C164 C168 1.368 . S
C165 C146 1.429 . S
C165 C159 1.429 . S
C165 C166 1.523 1_655 S
C166 C147 1.368 . S
C166 C160 1.368 . S
C166 C165 1.523 1_455 S
C167 C151 1.429 . S
C167 C163 1.429 . S
C167 C168 1.523 . S
C168 C152 1.368 . S
C168 C164 1.368 . S
C168 C167 1.523 . S
H169 C144 0.950 . S
H170 C146 0.950 . S
H171 C147 0.949 . S
H172 C149 0.950 . S
H173 C151 0.950 . S
C174 C175 1.349 . S
C174 C176 1.327 . S
C174 H199 0.950 . S
C175 C174 1.349 . S
C175 C191 1.349 . S
C176 C174 1.327 . S
C176 C195 1.429 . S
C176 H200 0.950 . S
C177 C194 1.574 1_554 S
C177 C196 1.368 . S
C177 H201 0.949 1_545 S
H178 C182 0.954 . S
C179 C180 1.349 . S
C179 C181 1.327 . S
C179 H202 0.950 . S
C180 C179 1.349 . S
C180 C192 1.349 . S
C181 C179 1.327 . S
C181 C197 1.429 . S
C181 H203 0.950 . S
C182 H178 0.954 . S
C182 C190 1.574 . S
C182 C198 1.368 1_554 S
H183 C191 0.950 . S
H184 C189 0.950 . S
H185 C190 0.949 . S
H186 C192 0.950 . S
H187 C193 0.950 . S
H188 C194 0.949 . S
C189 H184 0.950 . S
C189 C191 1.327 . S
C189 C195 1.429 . S
C190 C182 1.574 . S
C190 H185 0.949 . S
C190 C196 1.368 . S
C191 C175 1.349 . S
C191 H183 0.950 . S
C191 C189 1.327 . S
C192 C180 1.349 . S
C192 H186 0.950 . S
C192 C193 1.327 . S
C193 H187 0.950 . S
C193 C192 1.327 . S
C193 C197 1.429 . S
C194 C177 1.574 1_556 S
C194 H188 0.949 . S
C194 C198 1.368 . S
C195 C176 1.429 . S
C195 C189 1.429 . S
C195 C196 1.523 1_565 S
C196 C177 1.368 . S
C196 C190 1.368 . S
C196 C195 1.523 1_545 S
C197 C181 1.429 . S
C197 C193 1.429 . S
C197 C198 1.523 . S
C198 C182 1.368 1_556 S
C198 C194 1.368 . S
C198 C197 1.523 . S
H199 C174 0.950 . S
H200 C176 0.950 . S
H201 C177 0.949 1_565 S
H202 C179 0.950 . S
H203 C181 0.950 . S
C204 C205 1.349 . S
C204 C206 1.327 . S
C204 H229 0.950 . S
C205 C204 1.349 . S
C205 C221 1.349 . S
C206 C204 1.327 . S
C206 C225 1.429 . S
C206 H230 0.950 . S
C207 C224 1.574 . S
C207 C226 1.368 . S
C207 H231 0.949 . S
H208 C212 0.949 . S
C209 C210 1.349 . S
C209 C211 1.327 . S
C209 H232 0.950 . S
C210 C209 1.349 . S
C210 C222 1.349 . S
C211 C209 1.327 . S
C211 C227 1.429 . S
C211 H233 0.950 . S
C212 H208 0.949 . S
C212 C220 1.574 . S
C212 C228 1.368 . S
H213 C221 0.950 . S
H214 C219 0.950 . S
H215 C220 0.949 . S
H216 C222 0.950 . S
H217 C223 0.950 . S
H218 C224 0.949 . S
C219 H214 0.950 . S
C219 C221 1.327 . S
C219 C225 1.429 . S
C220 C212 1.574 . S
C220 H215 0.949 . S
C220 C226 1.368 . S
C221 C205 1.349 . S
C221 H213 0.950 . S
C221 C219 1.327 . S
C222 C210 1.349 . S
C222 H216 0.950 . S
C222 C223 1.327 . S
C223 H217 0.950 . S
C223 C222 1.327 . S
C223 C227 1.429 . S
C224 C207 1.574 . S
C224 H218 0.949 . S
C224 C228 1.368 . S
C225 C206 1.429 . S
C225 C219 1.429 . S
C225 C226 1.523 . S
C226 C207 1.368 . S
C226 C220 1.368 . S
C226 C225 1.523 . S
C227 C211 1.429 . S
C227 C223 1.429 . S
C227 C228 1.523 . S
C228 C212 1.368 . S
C228 C224 1.368 . S
C228 C227 1.523 . S
H229 C204 0.950 . S
H230 C206 0.950 . S
H231 C207 0.949 . S
H232 C209 0.950 . S
H233 C211 0.950 . S
C234 C235 1.349 . S
C234 C236 1.327 . S
C234 H259 0.950 . S
C235 C234 1.349 . S
C235 C251 1.349 . S
C236 C234 1.327 . S
C236 C255 1.429 . S
C236 H260 0.950 . S
C237 C254 1.574 . S
C237 C256 1.368 . S
C237 H261 0.949 . S
H238 C242 0.949 . S
C239 C240 1.349 . S
C239 C241 1.327 . S
C239 H262 0.950 . S
C240 C239 1.349 . S
C240 C252 1.349 . S
C241 C239 1.327 . S
C241 C257 1.429 . S
C241 H263 0.950 . S
C242 H238 0.949 . S
C242 C250 1.574 . S
C242 C258 1.368 . S
H243 C251 0.950 . S
H244 C249 0.950 . S
H245 C250 0.949 1_455 S
H246 C252 0.950 . S
H247 C253 0.950 . S
H248 C254 0.949 . S
C249 H244 0.950 . S
C249 C251 1.327 . S
C249 C255 1.429 . S
C250 C242 1.574 . S
C250 H245 0.949 1_655 S
C250 C256 1.368 . S
C251 C235 1.349 . S
C251 H243 0.950 . S
C251 C249 1.327 . S
C252 C240 1.349 . S
C252 H246 0.950 . S
C252 C253 1.327 . S
C253 H247 0.950 . S
C253 C252 1.327 . S
C253 C257 1.429 . S
C254 C237 1.574 . S
C254 H248 0.949 . S
C254 C258 1.368 . S
C255 C236 1.429 . S
C255 C249 1.429 . S
C255 C256 1.523 1_455 S
C256 C237 1.368 . S
C256 C250 1.368 . S
C256 C255 1.523 1_655 S
C257 C241 1.429 . S
C257 C253 1.429 . S
C257 C258 1.523 . S
C258 C242 1.368 . S
C258 C254 1.368 . S
C258 C257 1.523 . S
H259 C234 0.950 . S
H260 C236 0.950 . S
H261 C237 0.949 . S
H262 C239 0.950 . S
H263 C241 0.950 . S
C264 C265 1.349 . S
C264 C266 1.327 . S
C264 H289 0.950 . S
C265 C264 1.349 . S
C265 C281 1.349 . S
C266 C264 1.327 . S
C266 C285 1.429 . S
C266 H290 0.950 . S
C267 C284 1.574 . S
C267 C286 1.368 . S
C267 H291 0.949 . S
H268 C272 0.949 . S
C269 C270 1.349 . S
C269 C271 1.327 . S
C269 H292 0.950 . S
C270 C269 1.349 . S
C270 C282 1.349 . S
C271 C269 1.327 . S
C271 C287 1.429 . S
C271 H293 0.950 . S
C272 H268 0.949 . S
C272 C280 1.574 . S
C272 C288 1.368 . S
H273 C281 0.950 . S
H274 C279 0.950 . S
H275 C280 0.949 . S
H276 C282 0.950 . S
H277 C283 0.950 . S
H278 C284 0.949 . S
C279 H274 0.950 . S
C279 C281 1.327 . S
C279 C285 1.429 . S
C280 C272 1.574 . S
C280 H275 0.949 . S
C280 C286 1.368 . S
C281 C265 1.349 . S
C281 H273 0.950 . S
C281 C279 1.327 . S
C282 C270 1.349 . S
C282 H276 0.950 . S
C282 C283 1.327 . S
C283 H277 0.950 . S
C283 C282 1.327 . S
C283 C287 1.429 . S
C284 C267 1.574 . S
C284 H278 0.949 . S
C284 C288 1.368 . S
C285 C266 1.429 . S
C285 C279 1.429 . S
C285 C286 1.523 . S
C286 C267 1.368 . S
C286 C280 1.368 . S
C286 C285 1.523 . S
C287 C271 1.429 . S
C287 C283 1.429 . S
C287 C288 1.523 . S
C288 C272 1.368 . S
C288 C284 1.368 . S
C288 C287 1.523 . S
H289 C264 0.950 . S
H290 C266 0.950 . S
H291 C267 0.949 . S
H292 C269 0.950 . S
H293 C271 0.950 . S
C294 C295 1.349 . S
C294 C296 1.327 . S
C294 H319 0.950 . S
C295 C294 1.349 . S
C295 C311 1.349 . S
C296 C294 1.327 . S
C296 C315 1.429 . S
C296 H320 0.950 . S
C297 C314 1.574 . S
C297 C316 1.368 . S
C297 H321 0.949 . S
H298 C302 0.949 . S
C299 C300 1.349 . S
C299 C301 1.327 . S
C299 H322 0.950 . S
C300 C299 1.349 . S
C300 C312 1.349 . S
C301 C299 1.327 . S
C301 C317 1.429 . S
C301 H323 0.950 . S
C302 H298 0.949 . S
C302 C310 1.574 . S
C302 C318 1.368 . S
H303 C311 0.950 . S
H304 C309 0.950 . S
H305 C310 0.949 . S
H306 C312 0.950 . S
H307 C313 0.950 . S
H308 C314 0.949 . S
C309 H304 0.950 . S
C309 C311 1.327 . S
C309 C315 1.429 . S
C310 C302 1.574 . S
C310 H305 0.949 . S
C310 C316 1.368 . S
C311 C295 1.349 . S
C311 H303 0.950 . S
C311 C309 1.327 . S
C312 C300 1.349 . S
C312 H306 0.950 . S
C312 C313 1.327 . S
C313 H307 0.950 . S
C313 C312 1.327 . S
C313 C317 1.429 . S
C314 C297 1.574 . S
C314 H308 0.949 . S
C314 C318 1.368 . S
C315 C296 1.429 . S
C315 C309 1.429 . S
C315 C316 1.523 . S
C316 C297 1.368 . S
C316 C310 1.368 . S
C316 C315 1.523 . S
C317 C301 1.429 . S
C317 C313 1.429 . S
C317 C318 1.523 . S
C318 C302 1.368 . S
C318 C314 1.368 . S
C318 C317 1.523 . S
H319 C294 0.950 . S
H320 C296 0.950 . S
H321 C297 0.949 . S
H322 C299 0.950 . S
H323 C301 0.950 . S
C324 C325 1.349 . S
C324 C326 1.327 . S
C324 H349 0.950 . S
C325 C324 1.349 . S
C325 C341 1.349 . S
C326 C324 1.327 . S
C326 C345 1.429 . S
C326 H350 0.950 . S
C327 C344 1.574 . S
C327 C346 1.368 . S
C327 H351 0.949 . S
H328 C332 0.949 . S
C329 C330 1.349 . S
C329 C331 1.327 . S
C329 H352 0.950 . S
C330 C329 1.349 . S
C330 C342 1.349 . S
C331 C329 1.327 . S
C331 C347 1.429 . S
C331 H353 0.950 . S
C332 H328 0.949 . S
C332 C340 1.574 . S
C332 C348 1.368 . S
H333 C341 0.950 . S
H334 C339 0.950 . S
H335 C340 0.949 . S
H336 C342 0.950 . S
H337 C343 0.950 . S
H338 C344 0.949 . S
C339 H334 0.950 . S
C339 C341 1.327 . S
C339 C345 1.429 . S
C340 C332 1.574 . S
C340 H335 0.949 . S
C340 C346 1.368 . S
C341 C325 1.349 . S
C341 H333 0.950 . S
C341 C339 1.327 . S
C342 C330 1.349 . S
C342 H336 0.950 . S
C342 C343 1.327 . S
C343 H337 0.950 . S
C343 C342 1.327 . S
C343 C347 1.429 . S
C344 C327 1.574 . S
C344 H338 0.949 . S
C344 C348 1.368 . S
C345 C326 1.429 . S
C345 C339 1.429 . S
C345 C346 1.523 . S
C346 C327 1.368 . S
C346 C340 1.368 . S
C346 C345 1.523 . S
C347 C331 1.429 . S
C347 C343 1.429 . S
C347 C348 1.523 . S
C348 C332 1.368 . S
C348 C344 1.368 . S
C348 C347 1.523 . S
H349 C324 0.950 . S
H350 C326 0.950 . S
H351 C327 0.949 . S
H352 C329 0.950 . S
H353 C331 0.950 . S
C354 C355 1.349 . S
C354 C356 1.327 . S
C354 H379 0.950 . S
C355 C354 1.349 . S
C355 C371 1.349 . S
C356 C354 1.327 . S
C356 C375 1.429 . S
C356 H380 0.950 . S
C357 C374 1.574 . S
C357 C376 1.368 . S
C357 H381 0.949 . S
H358 C362 0.949 . S
C359 C360 1.349 . S
C359 C361 1.327 1_554 S
C359 H382 0.950 . S
C360 C359 1.349 . S
C360 C372 1.349 1_554 S
C361 C359 1.327 1_556 S
C361 C377 1.429 . S
C361 H383 0.950 . S
C362 H358 0.949 . S
C362 C370 1.574 . S
C362 C378 1.368 . S
H363 C371 0.950 . S
H364 C369 0.950 . S
H365 C370 0.949 . S
H366 C372 0.950 . S
H367 C373 0.950 . S
H368 C374 0.949 . S
C369 H364 0.950 . S
C369 C371 1.327 . S
C369 C375 1.429 . S
C370 C362 1.574 . S
C370 H365 0.949 . S
C370 C376 1.368 . S
C371 C355 1.349 . S
C371 H363 0.950 . S
C371 C369 1.327 . S
C372 C360 1.349 1_556 S
C372 H366 0.950 . S
C372 C373 1.327 . S
C373 H367 0.950 . S
C373 C372 1.327 . S
C373 C377 1.429 . S
C374 C357 1.574 . S
C374 H368 0.949 . S
C374 C378 1.368 . S
C375 C356 1.429 . S
C375 C369 1.429 . S
C375 C376 1.523 . S
C376 C357 1.368 . S
C376 C370 1.368 . S
C376 C375 1.523 . S
C377 C361 1.429 . S
C377 C373 1.429 . S
C377 C378 1.523 . S
C378 C362 1.368 . S
C378 C374 1.368 . S
C378 C377 1.523 . S
H379 C354 0.950 . S
H380 C356 0.950 . S
H381 C357 0.949 . S
H382 C359 0.950 . S
H383 C361 0.950 . S
C384 C385 1.349 . S
C384 C386 1.327 1_556 S
C384 H409 0.950 . S
C385 C384 1.349 . S
C385 C401 1.349 1_556 S
C386 C384 1.327 1_554 S
C386 C405 1.429 . S
C386 H410 0.950 . S
C387 C404 1.574 . S
C387 C406 1.368 . S
C387 H411 0.949 . S
H388 C392 0.949 . S
C389 C390 1.349 . S
C389 C391 1.327 . S
C389 H412 0.950 . S
C390 C389 1.349 . S
C390 C402 1.349 . S
C391 C389 1.327 . S
C391 C407 1.429 . S
C391 H413 0.950 . S
C392 H388 0.949 . S
C392 C400 1.574 . S
C392 C408 1.368 . S
H393 C401 0.950 . S
H394 C399 0.950 . S
H395 C400 0.949 . S
H396 C402 0.950 . S
H397 C403 0.950 . S
H398 C404 0.949 . S
C399 H394 0.950 . S
C399 C401 1.327 . S
C399 C405 1.429 . S
C400 C392 1.574 . S
C400 H395 0.949 . S
C400 C406 1.368 . S
C401 C385 1.349 1_554 S
C401 H393 0.950 . S
C401 C399 1.327 . S
C402 C390 1.349 . S
C402 H396 0.950 . S
C402 C403 1.327 . S
C403 H397 0.950 . S
C403 C402 1.327 . S
C403 C407 1.429 . S
C404 C387 1.574 . S
C404 H398 0.949 . S
C404 C408 1.368 . S
C405 C386 1.429 . S
C405 C399 1.429 . S
C405 C406 1.523 . S
C406 C387 1.368 . S
C406 C400 1.368 . S
C406 C405 1.523 . S
C407 C391 1.429 . S
C407 C403 1.429 . S
C407 C408 1.523 . S
C408 C392 1.368 . S
C408 C404 1.368 . S
C408 C407 1.523 . S
H409 C384 0.950 . S
H410 C386 0.950 . S
H411 C387 0.949 . S
H412 C389 0.950 . S
H413 C391 0.950 . S
C414 C415 1.349 . S
C414 C416 1.327 . S
C414 H439 0.950 . S
C415 C414 1.349 . S
C415 C431 1.349 . S
C416 C414 1.327 . S
C416 C435 1.429 . S
C416 H440 0.950 . S
C417 C434 1.574 . S
C417 C436 1.368 . S
C417 H441 0.949 . S
H418 C422 0.949 . S
C419 C420 1.349 . S
C419 C421 1.327 . S
C419 H442 0.950 . S
C420 C419 1.349 . S
C420 C432 1.349 . S
C421 C419 1.327 . S
C421 C437 1.429 . S
C421 H443 0.950 . S
C422 H418 0.949 . S
C422 C430 1.574 . S
C422 C438 1.368 . S
H423 C431 0.950 . S
H424 C429 0.950 . S
H425 C430 0.949 . S
H426 C432 0.950 . S
H427 C433 0.950 . S
H428 C434 0.949 . S
C429 H424 0.950 . S
C429 C431 1.327 . S
C429 C435 1.429 . S
C430 C422 1.574 . S
C430 H425 0.949 . S
C430 C436 1.368 . S
C431 C415 1.349 . S
C431 H423 0.950 . S
C431 C429 1.327 . S
C432 C420 1.349 . S
C432 H426 0.950 . S
C432 C433 1.327 . S
C433 H427 0.950 . S
C433 C432 1.327 . S
C433 C437 1.429 . S
C434 C417 1.574 . S
C434 H428 0.949 . S
C434 C438 1.368 . S
C435 C416 1.429 . S
C435 C429 1.429 . S
C435 C436 1.523 . S
C436 C417 1.368 . S
C436 C430 1.368 . S
C436 C435 1.523 . S
C437 C421 1.429 . S
C437 C433 1.429 . S
C437 C438 1.523 . S
C438 C422 1.368 . S
C438 C434 1.368 . S
C438 C437 1.523 . S
H439 C414 0.950 . S
H440 C416 0.950 . S
H441 C417 0.949 . S
H442 C419 0.950 . S
H443 C421 0.950 . S
C85 C6 1.752 . S
C90 C78 1.774 . S
C115 C9 1.773 . S
C120 C20 1.751 . S
C145 C35 1.751 . S
C150 C23 1.773 . S
C175 C48 1.751 . S
C180 C36 1.773 . S
C205 C62 1.751 . S
C210 C51 1.773 . S
C235 C77 1.751 . S
C240 C65 1.773 . S
C265 C7 1.392 . S
C270 C64 1.425 . S
C295 C79 1.425 . S
C300 C21 1.392 . S
C325 C34 1.392 . S
C330 C8 1.424 . S
C355 C22 1.425 . S
C360 C49 1.392 . S
C385 C37 1.424 . S
C390 C63 1.392 . S
C415 C76 1.392 . S
C420 C50 1.424 . S
