# Generated by pormake.
# Topology umq, (4)-cn, num edge types: 1
# Building blocks:
#     Node 0, Type 0, BuildingBlock: TATPOV_clean_sbu_0, # of connection points: 4
#     Node 1, Type 0, BuildingBlock: TATPOV_clean_sbu_0, # of connection points: 4
#     Node 2, Type 0, BuildingBlock: TATPOV_clean_sbu_0, # of connection points: 4
#     Node 3, Type 0, BuildingBlock: TATPOV_clean_sbu_0, # of connection points: 4
#     Node 4, Type 0, BuildingBlock: TATPOV_clean_sbu_0, # of connection points: 4
#     Node 5, Type 0, BuildingBlock: TATPOV_clean_sbu_0, # of connection points: 4
#     Node 6, Type 0, BuildingBlock: TATPOV_clean_sbu_0, # of connection points: 4
#     Node 7, Type 0, BuildingBlock: TATPOV_clean_sbu_0, # of connection points: 4
#     Node 8, Type 0, BuildingBlock: TATPOV_clean_sbu_0, # of connection points: 4
#     Node 9, Type 0, BuildingBlock: TATPOV_clean_sbu_0, # of connection points: 4
#     Node 10, Type 0, BuildingBlock: TATPOV_clean_sbu_0, # of connection points: 4
#     Node 11, Type 0, BuildingBlock: TATPOV_clean_sbu_0, # of connection points: 4
#     Node 12, Type 0, BuildingBlock: TATPOV_clean_sbu_0, # of connection points: 4
#     Node 13, Type 0, BuildingBlock: TATPOV_clean_sbu_0, # of connection points: 4
#     Node 14, Type 0, BuildingBlock: TATPOV_clean_sbu_0, # of connection points: 4
#     Node 15, Type 0, BuildingBlock: TATPOV_clean_sbu_0, # of connection points: 4
#     Node 16, Type 0, BuildingBlock: TATPOV_clean_sbu_0, # of connection points: 4
#     Node 17, Type 0, BuildingBlock: TATPOV_clean_sbu_0, # of connection points: 4
#     Node 18, Type 0, BuildingBlock: TATPOV_clean_sbu_0, # of connection points: 4
#     Node 19, Type 0, BuildingBlock: TATPOV_clean_sbu_0, # of connection points: 4
#     Node 20, Type 0, BuildingBlock: TATPOV_clean_sbu_0, # of connection points: 4
#     Node 21, Type 0, BuildingBlock: TATPOV_clean_sbu_0, # of connection points: 4
#     Node 22, Type 0, BuildingBlock: TATPOV_clean_sbu_0, # of connection points: 4
#     Node 23, Type 0, BuildingBlock: TATPOV_clean_sbu_0, # of connection points: 4
#     Node 24, Type 0, BuildingBlock: TATPOV_clean_sbu_0, # of connection points: 4
#     Node 25, Type 0, BuildingBlock: TATPOV_clean_sbu_0, # of connection points: 4
#     Node 26, Type 0, BuildingBlock: TATPOV_clean_sbu_0, # of connection points: 4
#     Node 27, Type 0, BuildingBlock: TATPOV_clean_sbu_0, # of connection points: 4
#     Node 28, Type 0, BuildingBlock: TATPOV_clean_sbu_0, # of connection points: 4
#     Node 29, Type 0, BuildingBlock: TATPOV_clean_sbu_0, # of connection points: 4
#     Node 30, Type 0, BuildingBlock: TATPOV_clean_sbu_0, # of connection points: 4
#     Node 31, Type 0, BuildingBlock: TATPOV_clean_sbu_0, # of connection points: 4
#     Edge 32, Type (0, 0), BuildingBlock: CIFDUS_clean_linker_0, # of connection points: 2
#     Edge 33, Type (0, 0), BuildingBlock: CIFDUS_clean_linker_0, # of connection points: 2
#     Edge 34, Type (0, 0), BuildingBlock: CIFDUS_clean_linker_0, # of connection points: 2
#     Edge 35, Type (0, 0), BuildingBlock: CIFDUS_clean_linker_0, # of connection points: 2
#     Edge 36, Type (0, 0), BuildingBlock: CIFDUS_clean_linker_0, # of connection points: 2
#     Edge 37, Type (0, 0), BuildingBlock: CIFDUS_clean_linker_0, # of connection points: 2
#     Edge 38, Type (0, 0), BuildingBlock: CIFDUS_clean_linker_0, # of connection points: 2
#     Edge 39, Type (0, 0), BuildingBlock: CIFDUS_clean_linker_0, # of connection points: 2
#     Edge 40, Type (0, 0), BuildingBlock: CIFDUS_clean_linker_0, # of connection points: 2
#     Edge 41, Type (0, 0), BuildingBlock: CIFDUS_clean_linker_0, # of connection points: 2
#     Edge 42, Type (0, 0), BuildingBlock: CIFDUS_clean_linker_0, # of connection points: 2
#     Edge 43, Type (0, 0), BuildingBlock: CIFDUS_clean_linker_0, # of connection points: 2
#     Edge 44, Type (0, 0), BuildingBlock: CIFDUS_clean_linker_0, # of connection points: 2
#     Edge 45, Type (0, 0), BuildingBlock: CIFDUS_clean_linker_0, # of connection points: 2
#     Edge 46, Type (0, 0), BuildingBlock: CIFDUS_clean_linker_0, # of connection points: 2
#     Edge 47, Type (0, 0), BuildingBlock: CIFDUS_clean_linker_0, # of connection points: 2
#     Edge 48, Type (0, 0), BuildingBlock: CIFDUS_clean_linker_0, # of connection points: 2
#     Edge 49, Type (0, 0), BuildingBlock: CIFDUS_clean_linker_0, # of connection points: 2
#     Edge 50, Type (0, 0), BuildingBlock: CIFDUS_clean_linker_0, # of connection points: 2
#     Edge 51, Type (0, 0), BuildingBlock: CIFDUS_clean_linker_0, # of connection points: 2
#     Edge 52, Type (0, 0), BuildingBlock: CIFDUS_clean_linker_0, # of connection points: 2
#     Edge 53, Type (0, 0), BuildingBlock: CIFDUS_clean_linker_0, # of connection points: 2
#     Edge 54, Type (0, 0), BuildingBlock: CIFDUS_clean_linker_0, # of connection points: 2
#     Edge 55, Type (0, 0), BuildingBlock: CIFDUS_clean_linker_0, # of connection points: 2
#     Edge 56, Type (0, 0), BuildingBlock: CIFDUS_clean_linker_0, # of connection points: 2
#     Edge 57, Type (0, 0), BuildingBlock: CIFDUS_clean_linker_0, # of connection points: 2
#     Edge 58, Type (0, 0), BuildingBlock: CIFDUS_clean_linker_0, # of connection points: 2
#     Edge 59, Type (0, 0), BuildingBlock: CIFDUS_clean_linker_0, # of connection points: 2
#     Edge 60, Type (0, 0), BuildingBlock: CIFDUS_clean_linker_0, # of connection points: 2
#     Edge 61, Type (0, 0), BuildingBlock: CIFDUS_clean_linker_0, # of connection points: 2
#     Edge 62, Type (0, 0), BuildingBlock: CIFDUS_clean_linker_0, # of connection points: 2
#     Edge 63, Type (0, 0), BuildingBlock: CIFDUS_clean_linker_0, # of connection points: 2
#     Edge 64, Type (0, 0), BuildingBlock: CIFDUS_clean_linker_0, # of connection points: 2
#     Edge 65, Type (0, 0), BuildingBlock: CIFDUS_clean_linker_0, # of connection points: 2
#     Edge 66, Type (0, 0), BuildingBlock: CIFDUS_clean_linker_0, # of connection points: 2
#     Edge 67, Type (0, 0), BuildingBlock: CIFDUS_clean_linker_0, # of connection points: 2
#     Edge 68, Type (0, 0), BuildingBlock: CIFDUS_clean_linker_0, # of connection points: 2
#     Edge 69, Type (0, 0), BuildingBlock: CIFDUS_clean_linker_0, # of connection points: 2
#     Edge 70, Type (0, 0), BuildingBlock: CIFDUS_clean_linker_0, # of connection points: 2
#     Edge 71, Type (0, 0), BuildingBlock: CIFDUS_clean_linker_0, # of connection points: 2
#     Edge 72, Type (0, 0), BuildingBlock: CIFDUS_clean_linker_0, # of connection points: 2
#     Edge 73, Type (0, 0), BuildingBlock: CIFDUS_clean_linker_0, # of connection points: 2
#     Edge 74, Type (0, 0), BuildingBlock: CIFDUS_clean_linker_0, # of connection points: 2
#     Edge 75, Type (0, 0), BuildingBlock: CIFDUS_clean_linker_0, # of connection points: 2
#     Edge 76, Type (0, 0), BuildingBlock: CIFDUS_clean_linker_0, # of connection points: 2
#     Edge 77, Type (0, 0), BuildingBlock: CIFDUS_clean_linker_0, # of connection points: 2
#     Edge 78, Type (0, 0), BuildingBlock: CIFDUS_clean_linker_0, # of connection points: 2
#     Edge 79, Type (0, 0), BuildingBlock: CIFDUS_clean_linker_0, # of connection points: 2
#     Edge 80, Type (0, 0), BuildingBlock: CIFDUS_clean_linker_0, # of connection points: 2
#     Edge 81, Type (0, 0), BuildingBlock: CIFDUS_clean_linker_0, # of connection points: 2
#     Edge 82, Type (0, 0), BuildingBlock: CIFDUS_clean_linker_0, # of connection points: 2
#     Edge 83, Type (0, 0), BuildingBlock: CIFDUS_clean_linker_0, # of connection points: 2
#     Edge 84, Type (0, 0), BuildingBlock: CIFDUS_clean_linker_0, # of connection points: 2
#     Edge 85, Type (0, 0), BuildingBlock: CIFDUS_clean_linker_0, # of connection points: 2
#     Edge 86, Type (0, 0), BuildingBlock: CIFDUS_clean_linker_0, # of connection points: 2
#     Edge 87, Type (0, 0), BuildingBlock: CIFDUS_clean_linker_0, # of connection points: 2
#     Edge 88, Type (0, 0), BuildingBlock: CIFDUS_clean_linker_0, # of connection points: 2
#     Edge 89, Type (0, 0), BuildingBlock: CIFDUS_clean_linker_0, # of connection points: 2
#     Edge 90, Type (0, 0), BuildingBlock: CIFDUS_clean_linker_0, # of connection points: 2
#     Edge 91, Type (0, 0), BuildingBlock: CIFDUS_clean_linker_0, # of connection points: 2
#     Edge 92, Type (0, 0), BuildingBlock: CIFDUS_clean_linker_0, # of connection points: 2
#     Edge 93, Type (0, 0), BuildingBlock: CIFDUS_clean_linker_0, # of connection points: 2
#     Edge 94, Type (0, 0), BuildingBlock: CIFDUS_clean_linker_0, # of connection points: 2
#     Edge 95, Type (0, 0), BuildingBlock: CIFDUS_clean_linker_0, # of connection points: 2
# Relax obj value: 0.062
# Max RMSD: 0.084
# Mean RMSD: 0.084
data_MOF--net-umq--node1-TATPOV_clean_sbu_0--edge1-CIFDUS_clean_linker_0
_symmetry_space_group_name_H-M    P1
_symmetry_Int_Tables_number       1
_symmetry_cell_setting            triclinic
loop_
_symmetry_equiv_pos_as_xyz
'x, y, z'
_cell_length_a     57.789224
_cell_length_b     57.79574
_cell_length_c     39.336193
_cell_angle_alpha  89.993115
_cell_angle_beta   90.012388
_cell_angle_gamma 90.078171
loop_
_atom_site_label
_atom_site_type_symbol
_atom_site_fract_x
_atom_site_fract_y
_atom_site_fract_z
_atom_type_partial_charge
Zn0 Zn 0.24838 0.12116 0.1464 0.0
Zn1 Zn 0.25177 0.0797 0.17377 0.0
O2 O 0.24781 0.07282 0.12226 0.0
O3 O 0.24755 0.10778 0.09982 0.0
O4 O 0.25139 0.04747 0.19391 0.0
O5 O 0.21854 0.12798 0.16972 0.0
O6 O 0.22327 0.09512 0.19711 0.0
C7 C 0.24688 0.08605 0.09641 0.0
C8 C 0.29061 0.11504 0.18386 0.0
O9 O 0.28348 0.09427 0.18735 0.0
O10 O 0.27846 0.12985 0.16836 0.0
C11 C 0.26888 0.03547 0.20253 0.0
O12 O 0.28974 0.04426 0.19926 0.0
C13 C 0.21182 0.11369 0.19196 0.0
Zn14 Zn 0.88588 0.22611 0.10777 0.0
Zn15 Zn 0.91375 0.24721 0.14821 0.0
O16 O 0.93226 0.23946 0.1039 0.0
O17 O 0.91001 0.21539 0.07572 0.0
O18 O 0.93931 0.25777 0.18018 0.0
O19 O 0.87351 0.20388 0.14132 0.0
O20 O 0.89776 0.2209 0.17642 0.0
C21 C 0.92907 0.22586 0.07884 0.0
C22 C 0.87503 0.2751 0.11883 0.0
O23 O 0.8914 0.27459 0.14058 0.0
O24 O 0.8704 0.25725 0.10133 0.0
C25 C 0.95819 0.26629 0.1691 0.0
O26 O 0.96024 0.27071 0.13648 0.0
C27 C 0.88228 0.20558 0.1706 0.0
Zn28 Zn 0.75961 0.87934 0.10473 0.0
Zn29 Zn 0.7415 0.9317 0.16569 0.0
O30 O 0.74888 0.94916 0.12011 0.0
O31 O 0.75133 0.91261 0.11305 0.0
O32 O 0.74031 0.95544 0.20355 0.0
O33 O 0.78236 0.87767 0.14436 0.0
O34 O 0.76908 0.90749 0.17631 0.0
C35 C 0.75446 0.93258 0.10095 0.0
C36 C 0.71375 0.89729 0.143 0.0
O37 O 0.7097 0.91412 0.16274 0.0
O38 O 0.73412 0.89651 0.13112 0.0
C39 C 0.73681 0.9767 0.1969 0.0
O40 O 0.73326 0.98298 0.16524 0.0
C41 C 0.78313 0.89038 0.17117 0.0
Zn42 Zn 0.12438 0.74205 0.11685 0.0
Zn43 Zn 0.08805 0.74435 0.15765 0.0
O44 O 0.07627 0.75341 0.10922 0.0
O45 O 0.10598 0.74788 0.07517 0.0
O46 O 0.05865 0.7448 0.18613 0.0
O47 O 0.13832 0.76895 0.14313 0.0
O48 O 0.10851 0.77 0.17798 0.0
C49 C 0.08503 0.75328 0.0795 0.0
C50 C 0.11899 0.70048 0.15373 0.0
O51 O 0.10228 0.71168 0.1671 0.0
O52 O 0.13102 0.70954 0.13043 0.0
C53 C 0.0389 0.74114 0.17274 0.0
O54 O 0.0376 0.7364 0.14015 0.0
C55 C 0.12818 0.77776 0.1686 0.0
Zn56 Zn 0.21276 0.85653 0.37041 0.0
Zn57 Zn 0.23621 0.87872 0.32461 0.0
O58 O 0.23458 0.89952 0.36765 0.0
O59 O 0.21006 0.88305 0.40273 0.0
O60 O 0.2484 0.90194 0.29076 0.0
O61 O 0.18624 0.84856 0.34033 0.0
O62 O 0.20666 0.86574 0.30047 0.0
C63 C 0.22333 0.89972 0.3955 0.0
C64 C 0.25889 0.83691 0.35314 0.0
O65 O 0.26044 0.85317 0.33133 0.0
O66 O 0.24106 0.8354 0.37191 0.0
C67 C 0.26748 0.91253 0.2951 0.0
O68 O 0.28104 0.9063 0.32029 0.0
C69 C 0.18869 0.85444 0.30961 0.0
Zn70 Zn 0.13145 0.21119 0.36489 0.0
Zn71 Zn 0.10066 0.23136 0.32659 0.0
O72 O 0.08436 0.22455 0.37315 0.0
O73 O 0.10955 0.20387 0.40194 0.0
O74 O 0.07435 0.24386 0.29742 0.0
O75 O 0.13856 0.18667 0.33146 0.0
O76 O 0.11314 0.20346 0.29791 0.0
C77 C 0.08974 0.21288 0.39949 0.0
C78 C 0.1435 0.25847 0.34674 0.0
O79 O 0.12486 0.25771 0.32938 0.0
O80 O 0.14946 0.24119 0.36454 0.0
C81 C 0.05623 0.25278 0.31037 0.0
O82 O 0.0549 0.25523 0.3435 0.0
C83 C 0.12796 0.18748 0.30341 0.0
Zn84 Zn 0.78724 0.15912 0.39204 0.0
Zn85 Zn 0.7704 0.12906 0.34692 0.0
O86 O 0.77807 0.10865 0.38886 0.0
O87 O 0.7955 0.13311 0.42334 0.0
O88 O 0.75976 0.10571 0.31171 0.0
O89 O 0.81138 0.17047 0.35966 0.0
O90 O 0.79868 0.1444 0.32336 0.0
C91 C 0.78896 0.11278 0.41634 0.0
C92 C 0.73973 0.16851 0.37293 0.0
O93 O 0.74271 0.15146 0.35278 0.0
O94 O 0.75578 0.17443 0.39313 0.0
C95 C 0.75199 0.08578 0.31953 0.0
O96 O 0.74962 0.08024 0.35172 0.0
C97 C 0.81288 0.16052 0.33112 0.0
Zn98 Zn 0.86651 0.80421 0.36364 0.0
Zn99 Zn 0.89403 0.78121 0.32371 0.0
O100 O 0.91252 0.78911 0.36771 0.0
O101 O 0.89104 0.81344 0.39656 0.0
O102 O 0.91922 0.76784 0.29359 0.0
O103 O 0.85638 0.82641 0.3281 0.0
O104 O 0.87987 0.80762 0.29393 0.0
C105 C 0.90976 0.80241 0.39322 0.0
C106 C 0.85348 0.7556 0.35321 0.0
O107 O 0.87032 0.75515 0.33226 0.0
O108 O 0.84921 0.77389 0.36988 0.0
C109 C 0.93606 0.75672 0.30657 0.0
O110 O 0.93589 0.75228 0.33932 0.0
C111 C 0.86518 0.82378 0.29896 0.0
Zn112 Zn 0.78141 0.86367 0.87776 0.0
Zn113 Zn 0.75963 0.89353 0.83834 0.0
O114 O 0.76362 0.91021 0.88464 0.0
O115 O 0.78524 0.88679 0.91508 0.0
O116 O 0.74793 0.91957 0.80867 0.0
O117 O 0.80704 0.85799 0.84472 0.0
O118 O 0.78856 0.88251 0.81176 0.0
C119 C 0.77457 0.90576 0.912 0.0
C120 C 0.73466 0.84947 0.8567 0.0
O121 O 0.7344 0.86828 0.83971 0.0
O122 O 0.75213 0.84439 0.87474 0.0
C123 C 0.74407 0.91743 0.77701 0.0
O124 O 0.74614 0.89693 0.76288 0.0
C125 C 0.80541 0.86867 0.81678 0.0
Zn126 Zn 0.13575 0.79333 0.8668 0.0
Zn127 Zn 0.10616 0.77799 0.8207 0.0
O128 O 0.08881 0.77797 0.8669 0.0
O129 O 0.11197 0.79481 0.90368 0.0
O130 O 0.08069 0.7697 0.78737 0.0
O131 O 0.14359 0.82178 0.84055 0.0
O132 O 0.12026 0.80845 0.80088 0.0
C133 C 0.09274 0.78547 0.8968 0.0
C134 C 0.14752 0.74827 0.83633 0.0
O135 O 0.12928 0.75125 0.81866 0.0
O136 O 0.1535 0.76335 0.85811 0.0
C137 C 0.06427 0.75625 0.7961 0.0
O138 O 0.06463 0.74678 0.82645 0.0
C139 C 0.13455 0.82374 0.81143 0.0
Zn140 Zn 0.21574 0.14812 0.87535 0.0
Zn141 Zn 0.23445 0.11501 0.83949 0.0
O142 O 0.22721 0.10096 0.88698 0.0
O143 O 0.20667 0.12736 0.91351 0.0
O144 O 0.24382 0.08604 0.8142 0.0
O145 O 0.19237 0.15616 0.84024 0.0
O146 O 0.20767 0.12821 0.80972 0.0
C147 C 0.21544 0.10737 0.9127 0.0
C148 C 0.26455 0.15575 0.85755 0.0
O149 O 0.26273 0.13694 0.84076 0.0
O150 O 0.24744 0.16323 0.8745 0.0
C151 C 0.24696 0.08438 0.78231 0.0
O152 O 0.24561 0.10305 0.76336 0.0
C153 C 0.19279 0.14438 0.81319 0.0
Zn154 Zn 0.87773 0.21767 0.87122 0.0
Zn155 Zn 0.90671 0.2378 0.83039 0.0
O156 O 0.92619 0.2277 0.87274 0.0
O157 O 0.90215 0.20594 0.902 0.0
O158 O 0.9315 0.25078 0.79909 0.0
O159 O 0.86546 0.19638 0.83614 0.0
O160 O 0.89102 0.21178 0.80135 0.0
C161 C 0.92217 0.2142 0.89769 0.0
C162 C 0.86802 0.26629 0.86149 0.0
O163 O 0.8844 0.26509 0.83982 0.0
O164 O 0.86276 0.24872 0.87915 0.0
C165 C 0.94896 0.26134 0.81135 0.0
O166 O 0.95003 0.26493 0.84429 0.0
C167 C 0.87486 0.19716 0.80719 0.0
Zn168 Zn 0.76944 0.1204 0.62831 0.0
Zn169 Zn 0.75593 0.08694 0.66439 0.0
O170 O 0.76373 0.07229 0.61693 0.0
O171 O 0.78325 0.10054 0.59299 0.0
O172 O 0.74933 0.05913 0.6944 0.0
O173 O 0.79062 0.13484 0.66126 0.0
O174 O 0.78253 0.10381 0.69138 0.0
C175 C 0.77605 0.07992 0.59246 0.0
C176 C 0.72064 0.1221 0.64223 0.0
O177 O 0.7252 0.10544 0.66239 0.0
O178 O 0.73638 0.13065 0.6237 0.0
C179 C 0.74157 0.03996 0.68323 0.0
O180 O 0.7365 0.03801 0.6508 0.0
C181 C 0.79401 0.12255 0.68731 0.0
Zn182 Zn 0.8767 0.7811 0.6158 0.0
Zn183 Zn 0.91386 0.76656 0.64696 0.0
O184 O 0.92569 0.78158 0.6017 0.0
O185 O 0.89447 0.79801 0.58073 0.0
O186 O 0.94355 0.75861 0.67215 0.0
O187 O 0.86544 0.7991 0.65528 0.0
O188 O 0.89756 0.78882 0.68125 0.0
C189 C 0.91597 0.79434 0.57946 0.0
C190 C 0.87839 0.73136 0.62243 0.0
O191 O 0.89652 0.73531 0.64004 0.0
O192 O 0.8676 0.74788 0.60847 0.0
C193 C 0.96325 0.75773 0.65771 0.0
O194 O 0.96459 0.76056 0.62465 0.0
C195 C 0.8786 0.80015 0.68087 0.0
Zn196 Zn 0.24688 0.8831 0.62375 0.0
Zn197 Zn 0.2476 0.92167 0.65823 0.0
O198 O 0.24071 0.93159 0.60807 0.0
O199 O 0.24546 0.89923 0.57937 0.0
O200 O 0.24882 0.95247 0.68309 0.0
O201 O 0.21751 0.87352 0.64718 0.0
O202 O 0.22015 0.90401 0.68052 0.0
C203 C 0.24163 0.92072 0.5799 0.0
C204 C 0.28863 0.88739 0.66037 0.0
O205 O 0.2799 0.90686 0.66867 0.0
O206 O 0.27753 0.87349 0.6417 0.0
C207 C 0.25794 0.97002 0.6688 0.0
O208 O 0.26682 0.96773 0.63824 0.0
C209 C 0.20991 0.88531 0.67187 0.0
Zn210 Zn 0.12694 0.24148 0.6177 0.0
Zn211 Zn 0.09408 0.26068 0.65371 0.0
O212 O 0.07909 0.2528 0.6067 0.0
O213 O 0.10555 0.23188 0.58089 0.0
O214 O 0.06645 0.27032 0.68254 0.0
O215 O 0.13561 0.21832 0.6527 0.0
O216 O 0.10738 0.23351 0.68275 0.0
C217 C 0.08546 0.24041 0.58161 0.0
C218 C 0.13516 0.29016 0.63376 0.0
O219 O 0.11666 0.28861 0.65137 0.0
O220 O 0.14219 0.27292 0.61673 0.0
C221 C 0.04684 0.27559 0.66996 0.0
O222 O 0.04468 0.27725 0.63681 0.0
C223 C 0.12355 0.21862 0.67947 0.0
Zn224 Zn 0.74413 0.62601 0.60023 0.0
Zn225 Zn 0.75478 0.5919 0.64052 0.0
O226 O 0.74982 0.57605 0.59323 0.0
O227 O 0.73622 0.60483 0.56246 0.0
O228 O 0.75922 0.56457 0.67229 0.0
O229 O 0.71874 0.63798 0.62944 0.0
O230 O 0.72602 0.60805 0.66222 0.0
C231 C 0.74137 0.58371 0.56549 0.0
C232 C 0.79068 0.62934 0.6262 0.0
O233 O 0.7849 0.61171 0.64384 0.0
O234 O 0.7766 0.63791 0.605 0.0
C235 C 0.76724 0.54509 0.66289 0.0
O236 O 0.77465 0.54263 0.63153 0.0
C237 C 0.714 0.62602 0.65542 0.0
Zn238 Zn 0.38197 0.75361 0.628 0.0
Zn239 Zn 0.42118 0.76173 0.66142 0.0
O240 O 0.43247 0.75299 0.61291 0.0
O241 O 0.3997 0.74619 0.58591 0.0
O242 O 0.45121 0.76467 0.68722 0.0
O243 O 0.37283 0.7279 0.65931 0.0
O244 O 0.40422 0.73596 0.68873 0.0
C245 C 0.42154 0.74727 0.58606 0.0
C246 C 0.38576 0.8004 0.65384 0.0
O247 O 0.40552 0.79394 0.66463 0.0
O248 O 0.3727 0.78649 0.63799 0.0
C249 C 0.45203 0.77239 0.71745 0.0
O250 O 0.43287 0.77968 0.73186 0.0
C251 C 0.38576 0.72411 0.68463 0.0
Zn252 Zn 0.29118 0.38103 0.61049 0.0
Zn253 Zn 0.27184 0.41527 0.64095 0.0
O254 O 0.28312 0.42897 0.59464 0.0
O255 O 0.30497 0.40095 0.57478 0.0
O256 O 0.26123 0.44402 0.66548 0.0
O257 O 0.31105 0.37173 0.64913 0.0
O258 O 0.29654 0.40223 0.67478 0.0
C259 C 0.29725 0.42131 0.57245 0.0
C260 C 0.24151 0.37556 0.61809 0.0
O261 O 0.24295 0.39411 0.63556 0.0
O262 O 0.2594 0.36728 0.60402 0.0
C263 C 0.25066 0.44349 0.69379 0.0
O264 O 0.2451 0.42337 0.70707 0.0
C265 C 0.31033 0.38496 0.67465 0.0
Zn266 Zn 0.6249 0.26013 0.61268 0.0
Zn267 Zn 0.59219 0.25588 0.65906 0.0
O268 O 0.57406 0.26263 0.61412 0.0
O269 O 0.60202 0.26619 0.57636 0.0
O270 O 0.56638 0.25393 0.69379 0.0
O271 O 0.63958 0.28669 0.63751 0.0
O272 O 0.61258 0.28304 0.67661 0.0
C273 C 0.58076 0.26622 0.5837 0.0
C274 C 0.62536 0.21561 0.64467 0.0
O275 O 0.60886 0.22399 0.66236 0.0
O276 O 0.63472 0.22757 0.62149 0.0
C277 C 0.54737 0.24386 0.68682 0.0
O278 O 0.54493 0.23383 0.65705 0.0
C279 C 0.63062 0.29323 0.66522 0.0
Zn280 Zn 0.72445 0.36936 0.86341 0.0
Zn281 Zn 0.73847 0.39975 0.81928 0.0
O282 O 0.7312 0.41884 0.86318 0.0
O283 O 0.71556 0.39299 0.89728 0.0
O284 O 0.74704 0.42562 0.78701 0.0
O285 O 0.69993 0.35703 0.83311 0.0
O286 O 0.71084 0.38284 0.79514 0.0
C287 C 0.72131 0.41365 0.89113 0.0
C288 C 0.772 0.36257 0.84341 0.0
O289 O 0.76786 0.37928 0.8231 0.0
O290 O 0.75646 0.35568 0.86375 0.0
C291 C 0.75659 0.42323 0.75813 0.0
O292 O 0.76166 0.40236 0.74723 0.0
C293 C 0.69748 0.36631 0.80426 0.0
Zn294 Zn 0.63575 0.69178 0.87358 0.0
Zn295 Zn 0.61037 0.71469 0.83033 0.0
O296 O 0.58956 0.70841 0.87253 0.0
O297 O 0.60943 0.68459 0.9047 0.0
O298 O 0.58735 0.7281 0.79705 0.0
O299 O 0.6462 0.66815 0.8402 0.0
O300 O 0.62535 0.68754 0.80312 0.0
C301 C 0.59107 0.69579 0.89901 0.0
C302 C 0.65037 0.73995 0.8618 0.0
O303 O 0.63394 0.74044 0.8402 0.0
O304 O 0.65399 0.72176 0.87907 0.0
C305 C 0.57222 0.74258 0.80692 0.0
O306 O 0.57274 0.74989 0.83854 0.0
C307 C 0.63902 0.67082 0.81012 0.0
Zn308 Zn 0.2859 0.6623 0.87413 0.0
Zn309 Zn 0.26627 0.60948 0.81486 0.0
O310 O 0.27003 0.59285 0.86179 0.0
O311 O 0.27724 0.62876 0.86805 0.0
O312 O 0.26422 0.58425 0.77936 0.0
O313 O 0.30884 0.66237 0.83472 0.0
O314 O 0.29476 0.6325 0.80346 0.0
C315 C 0.27612 0.60896 0.88152 0.0
C316 C 0.24049 0.64591 0.834 0.0
O317 O 0.23586 0.62876 0.81509 0.0
O318 O 0.26037 0.64566 0.84755 0.0
C319 C 0.2517 0.56666 0.78582 0.0
O320 O 0.23993 0.56615 0.81439 0.0
C321 C 0.30932 0.64926 0.80833 0.0
Zn322 Zn 0.37833 0.30148 0.88272 0.0
Zn323 Zn 0.40503 0.27563 0.84511 0.0
O324 O 0.42242 0.28114 0.89051 0.0
O325 O 0.40271 0.30777 0.91774 0.0
O326 O 0.43028 0.26153 0.81637 0.0
O327 O 0.37147 0.3247 0.84656 0.0
O328 O 0.39412 0.30305 0.81499 0.0
C329 C 0.42013 0.29462 0.91593 0.0
C330 C 0.36154 0.2537 0.87044 0.0
O331 O 0.37917 0.25145 0.85121 0.0
O332 O 0.35831 0.27253 0.88639 0.0
C333 C 0.4274 0.2539 0.78637 0.0
O334 O 0.40646 0.25351 0.77335 0.0
C335 C 0.38097 0.32065 0.81826 0.0
Zn336 Zn 0.29795 0.3607 0.36626 0.0
Zn337 Zn 0.27671 0.3849 0.32075 0.0
O338 O 0.2823 0.40692 0.36212 0.0
O339 O 0.30487 0.38728 0.3965 0.0
O340 O 0.26399 0.4079 0.28681 0.0
O341 O 0.32255 0.34965 0.33532 0.0
O342 O 0.30478 0.36955 0.29539 0.0
C343 C 0.29439 0.40577 0.38917 0.0
C344 C 0.25038 0.3457 0.35322 0.0
O345 O 0.25053 0.36148 0.33054 0.0
O346 O 0.26812 0.34257 0.37165 0.0
C347 C 0.24683 0.42024 0.29577 0.0
O348 O 0.23683 0.41592 0.3251 0.0
C349 C 0.32122 0.35619 0.30475 0.0
Zn350 Zn 0.63113 0.31777 0.38933 0.0
Zn351 Zn 0.60598 0.2941 0.347 0.0
O352 O 0.58555 0.30051 0.38965 0.0
O353 O 0.60499 0.32559 0.42033 0.0
O354 O 0.58269 0.28041 0.31395 0.0
O355 O 0.64186 0.34094 0.35551 0.0
O356 O 0.6205 0.32137 0.31923 0.0
C357 C 0.58691 0.31373 0.41553 0.0
C358 C 0.64629 0.26967 0.3791 0.0
O359 O 0.63014 0.26875 0.35702 0.0
O360 O 0.64938 0.28803 0.39622 0.0
C361 C 0.56627 0.26743 0.32408 0.0
O362 O 0.5654 0.26145 0.35628 0.0
C363 C 0.63432 0.33811 0.32565 0.0
Zn364 Zn 0.71317 0.64433 0.36356 0.0
Zn365 Zn 0.7292 0.61565 0.31753 0.0
O366 O 0.72407 0.59504 0.36039 0.0
O367 O 0.70632 0.61863 0.39567 0.0
O368 O 0.73708 0.59212 0.28131 0.0
O369 O 0.68766 0.65626 0.3345 0.0
O370 O 0.70067 0.63207 0.29583 0.0
C371 C 0.71383 0.59869 0.38856 0.0
C372 C 0.7605 0.65431 0.34205 0.0
O373 O 0.75744 0.63749 0.32152 0.0
O374 O 0.74461 0.65984 0.36275 0.0
C375 C 0.74802 0.57343 0.2871 0.0
O376 O 0.75629 0.5696 0.3177 0.0
C377 C 0.68622 0.64753 0.30513 0.0
Zn378 Zn 0.37306 0.69709 0.37068 0.0
Zn379 Zn 0.40432 0.71676 0.33301 0.0
O380 O 0.41924 0.71305 0.38107 0.0
O381 O 0.39438 0.6917 0.4095 0.0
O382 O 0.43203 0.72566 0.30424 0.0
O383 O 0.36593 0.67118 0.33927 0.0
O384 O 0.39153 0.68819 0.30636 0.0
C385 C 0.41362 0.70203 0.40794 0.0
C386 C 0.36177 0.74446 0.34828 0.0
O387 O 0.38089 0.74364 0.33208 0.0
O388 O 0.35548 0.72738 0.36635 0.0
C389 C 0.43828 0.74545 0.29343 0.0
O390 O 0.4256 0.76368 0.30046 0.0
C391 C 0.37679 0.67205 0.31145 0.0
Zn392 Zn 0.26044 0.62228 0.13886 0.0
Zn393 Zn 0.25496 0.57876 0.15253 0.0
O394 O 0.26304 0.57757 0.10113 0.0
O395 O 0.26522 0.61484 0.08987 0.0
O396 O 0.2531 0.54501 0.16624 0.0
O397 O 0.28829 0.62629 0.16736 0.0
O398 O 0.28135 0.59077 0.18474 0.0
C399 C 0.26624 0.59403 0.08002 0.0
C400 C 0.21495 0.61288 0.1628 0.0
O401 O 0.22189 0.59201 0.16031 0.0
O402 O 0.22874 0.62944 0.15713 0.0
C403 C 0.2409 0.53823 0.19125 0.0
O404 O 0.22827 0.55341 0.20777 0.0
C405 C 0.29326 0.60939 0.18629 0.0
Zn406 Zn 0.38563 0.23674 0.12318 0.0
Zn407 Zn 0.42131 0.23861 0.16543 0.0
O408 O 0.43607 0.24435 0.11789 0.0
O409 O 0.40628 0.24076 0.08326 0.0
O410 O 0.44917 0.24107 0.19649 0.0
O411 O 0.37101 0.26447 0.14537 0.0
O412 O 0.39996 0.26523 0.18173 0.0
C413 C 0.42764 0.24411 0.08795 0.0
C414 C 0.39045 0.19512 0.16144 0.0
O415 O 0.40775 0.20559 0.17457 0.0
O416 O 0.3782 0.20485 0.13902 0.0
C417 C 0.44877 0.23491 0.22752 0.0
O418 O 0.42956 0.22633 0.2402 0.0
C419 C 0.38084 0.2735 0.17089 0.0
Zn420 Zn 0.73186 0.38049 0.10766 0.0
Zn421 Zn 0.74736 0.41241 0.14784 0.0
O422 O 0.744 0.42868 0.10062 0.0
O423 O 0.72419 0.40305 0.07125 0.0
O424 O 0.75594 0.43889 0.1793 0.0
O425 O 0.70677 0.37002 0.13846 0.0
O426 O 0.71777 0.39879 0.17128 0.0
C427 C 0.73306 0.42296 0.07376 0.0
C428 C 0.77897 0.37247 0.13008 0.0
O429 O 0.77534 0.39007 0.1489 0.0
O430 O 0.7635 0.36573 0.10949 0.0
C431 C 0.74637 0.45848 0.17486 0.0
O432 O 0.73143 0.46092 0.14994 0.0
C433 C 0.70403 0.38196 0.16505 0.0
Zn434 Zn 0.62302 0.74604 0.1011 0.0
Zn435 Zn 0.58907 0.75456 0.14321 0.0
O436 O 0.57222 0.74751 0.0973 0.0
O437 O 0.6015 0.74045 0.06292 0.0
O438 O 0.56207 0.7575 0.1757 0.0
O439 O 0.63495 0.71925 0.12775 0.0
O440 O 0.60745 0.72719 0.16458 0.0
C441 C 0.58 0.7422 0.068 0.0
C442 C 0.6255 0.79192 0.12949 0.0
O443 O 0.60708 0.78593 0.1452 0.0
O444 O 0.63524 0.77784 0.10944 0.0
C445 C 0.5487 0.77489 0.1781 0.0
O446 O 0.5528 0.79328 0.15941 0.0
C447 C 0.6248 0.71499 0.15551 0.0
H448 H 0.36607 0.18545 0.21776 0.0
H449 H 0.39586 0.15454 0.12847 0.0
H450 H 0.36954 0.12155 0.1334 0.0
H451 H 0.33176 0.10763 0.15391 0.0
H452 H 0.29941 0.14127 0.23906 0.0
H453 H 0.33301 0.16662 0.24582 0.0
C454 C 0.36755 0.17084 0.20058 0.0
C455 C 0.38291 0.17217 0.17301 0.0
C456 C 0.35142 0.15264 0.2025 0.0
C457 C 0.38435 0.15359 0.15017 0.0
C458 C 0.36905 0.13491 0.15272 0.0
C459 C 0.33271 0.11972 0.17497 0.0
C460 C 0.31339 0.12256 0.19617 0.0
C461 C 0.35157 0.13504 0.17745 0.0
C462 C 0.31432 0.13867 0.22281 0.0
C463 C 0.3334 0.15335 0.22637 0.0
H464 H 0.86508 0.30942 0.16499 0.0
H465 H 0.85149 0.28694 0.06222 0.0
H466 H 0.82211 0.31666 0.05589 0.0
H467 H 0.79746 0.346 0.081 0.0
H468 H 0.80938 0.36893 0.1838 0.0
H469 H 0.84236 0.34235 0.18857 0.0
C470 C 0.85598 0.31139 0.14106 0.0
C471 C 0.86027 0.29578 0.11427 0.0
C472 C 0.83863 0.3284 0.13771 0.0
C473 C 0.84831 0.29849 0.08339 0.0
C474 C 0.83147 0.31548 0.07972 0.0
C475 C 0.80738 0.34535 0.10442 0.0
C476 C 0.80078 0.35912 0.13218 0.0
C477 C 0.82601 0.33001 0.107 0.0
C478 C 0.81408 0.35842 0.16209 0.0
C479 C 0.83286 0.34315 0.16485 0.0
H480 H 0.65849 0.81116 0.09055 0.0
H481 H 0.61795 0.82393 0.18066 0.0
H482 H 0.64065 0.85913 0.19189 0.0
H483 H 0.67446 0.88448 0.17806 0.0
H484 H 0.71506 0.8691 0.08873 0.0
H485 H 0.68989 0.83671 0.07534 0.0
C486 C 0.65443 0.82164 0.11264 0.0
C487 C 0.63671 0.81474 0.13495 0.0
C488 C 0.66774 0.84135 0.1192 0.0
C489 C 0.63154 0.82881 0.16309 0.0
C490 C 0.6446 0.84886 0.1696 0.0
C491 C 0.67756 0.87413 0.15553 0.0
C492 C 0.69675 0.87905 0.13459 0.0
C493 C 0.66311 0.85505 0.14816 0.0
C494 C 0.70061 0.86552 0.10549 0.0
C495 C 0.68619 0.847 0.09773 0.0
H496 H 0.19444 0.63844 0.2118 0.0
H497 H 0.18094 0.60126 0.11904 0.0
H498 H 0.14499 0.62288 0.11099 0.0
H499 H 0.12347 0.65881 0.12334 0.0
H500 H 0.1363 0.69529 0.21689 0.0
H501 H 0.16601 0.66711 0.23242 0.0
C502 C 0.183 0.63435 0.19076 0.0
C503 C 0.19023 0.61849 0.1659 0.0
C504 C 0.16244 0.64697 0.18626 0.0
C505 C 0.17552 0.61332 0.13857 0.0
C506 C 0.15512 0.62588 0.13377 0.0
C507 C 0.13195 0.65981 0.14791 0.0
C508 C 0.12789 0.67903 0.16893 0.0
C509 C 0.14919 0.64368 0.15641 0.0
C510 C 0.13905 0.68045 0.20054 0.0
C511 C 0.15628 0.66453 0.20917 0.0
H512 H 0.2993 0.83212 0.3164 0.0
H513 H 0.26015 0.80181 0.39885 0.0
H514 H 0.28888 0.77165 0.40511 0.0
H515 H 0.32408 0.75289 0.38665 0.0
H516 H 0.36422 0.78173 0.30442 0.0
H517 H 0.3363 0.8135 0.29893 0.0
C518 C 0.29714 0.81896 0.33579 0.0
C519 C 0.27741 0.81928 0.35693 0.0
C520 C 0.31388 0.80136 0.33938 0.0
C521 C 0.27498 0.80208 0.38202 0.0
C522 C 0.29145 0.78474 0.38572 0.0
C523 C 0.32687 0.76611 0.3675 0.0
C524 C 0.34616 0.76479 0.34582 0.0
C525 C 0.3108 0.78408 0.3644 0.0
C526 C 0.34951 0.78229 0.32145 0.0
C527 C 0.33349 0.80042 0.31824 0.0
H528 H 0.21134 0.34156 0.3134 0.0
H529 H 0.24364 0.31518 0.40461 0.0
H530 H 0.21252 0.28743 0.41174 0.0
H531 H 0.17782 0.26873 0.39061 0.0
H532 H 0.14475 0.29364 0.2994 0.0
H533 H 0.17422 0.32405 0.29411 0.0
C534 C 0.21143 0.32987 0.33497 0.0
C535 C 0.23005 0.33034 0.35815 0.0
C536 C 0.19337 0.31363 0.33895 0.0
C537 C 0.22978 0.31511 0.38607 0.0
C538 C 0.21193 0.29919 0.39028 0.0
C539 C 0.17689 0.28088 0.36962 0.0
C540 C 0.15925 0.27873 0.34524 0.0
C541 C 0.19392 0.298 0.36658 0.0
C542 C 0.15817 0.29488 0.31853 0.0
C543 C 0.1751 0.31219 0.31541 0.0
H544 H 0.72607 0.20084 0.41829 0.0
H545 H 0.70557 0.16859 0.32407 0.0
H546 H 0.67345 0.19601 0.31866 0.0
H547 H 0.65329 0.2315 0.33853 0.0
H548 H 0.67535 0.26345 0.43241 0.0
H549 H 0.70461 0.23379 0.44002 0.0
C550 C 0.71449 0.19961 0.39665 0.0
C551 C 0.71842 0.18282 0.37145 0.0
C552 C 0.69637 0.21556 0.39349 0.0
C553 C 0.703 0.18137 0.34384 0.0
C554 C 0.68469 0.19714 0.34065 0.0
C555 C 0.66433 0.23178 0.36082 0.0
C556 C 0.66225 0.24991 0.38461 0.0
C557 C 0.6815 0.21467 0.36497 0.0
C558 C 0.6767 0.24994 0.41341 0.0
C559 C 0.69347 0.23294 0.41787 0.0
H560 H 0.77483 0.68486 0.38944 0.0
H561 H 0.79399 0.65619 0.29222 0.0
H562 H 0.82614 0.68382 0.28816 0.0
H563 H 0.8465 0.71869 0.31024 0.0
H564 H 0.82553 0.74714 0.40697 0.0
H565 H 0.79652 0.71698 0.41317 0.0
C566 C 0.78611 0.68446 0.36741 0.0
C567 C 0.7818 0.66866 0.34099 0.0
C568 C 0.80421 0.70052 0.36506 0.0
C569 C 0.79686 0.66822 0.31291 0.0
C570 C 0.81519 0.6841 0.31051 0.0
C571 C 0.83579 0.71804 0.33285 0.0
C572 C 0.83803 0.73535 0.3579 0.0
C573 C 0.81871 0.70071 0.33612 0.0
C574 C 0.824 0.73427 0.38707 0.0
C575 C 0.80738 0.717 0.3907 0.0
H576 H 0.72759 0.81271 0.89767 0.0
H577 H 0.69812 0.84837 0.8116 0.0
H578 H 0.66847 0.81815 0.80636 0.0
H579 H 0.65247 0.78017 0.82447 0.0
H580 H 0.68331 0.74523 0.9104 0.0
H581 H 0.71081 0.77664 0.9173 0.0
C582 C 0.71465 0.81402 0.87778 0.0
C583 C 0.71524 0.83269 0.85487 0.0
C584 C 0.69793 0.79659 0.87476 0.0
C585 C 0.6981 0.83417 0.82957 0.0
C586 C 0.6812 0.81684 0.82649 0.0
C587 C 0.6651 0.77953 0.84483 0.0
C588 C 0.66588 0.76018 0.86665 0.0
C589 C 0.68117 0.79774 0.84865 0.0
C590 C 0.68236 0.75972 0.89298 0.0
C591 C 0.69814 0.77772 0.89704 0.0
H592 H 0.18729 0.73773 0.8693 0.0
H593 H 0.1403 0.71156 0.7931 0.0
H594 H 0.16458 0.67722 0.78595 0.0
H595 H 0.19962 0.65479 0.80112 0.0
H596 H 0.24618 0.68197 0.87719 0.0
H597 H 0.22155 0.71566 0.88457 0.0
C598 C 0.18226 0.72455 0.85109 0.0
C599 C 0.16198 0.7273 0.83176 0.0
C600 C 0.19627 0.70497 0.84707 0.0
C601 C 0.15583 0.70995 0.80832 0.0
C602 C 0.16971 0.69029 0.80422 0.0
C603 C 0.20429 0.66807 0.81935 0.0
C604 C 0.22477 0.66587 0.83848 0.0
C605 C 0.19002 0.68762 0.82343 0.0
C606 C 0.23061 0.68324 0.86199 0.0
C607 C 0.21651 0.70255 0.86629 0.0
H608 H 0.35519 0.21495 0.83058 0.0
H609 H 0.32864 0.25031 0.91913 0.0
H610 H 0.29757 0.22226 0.92391 0.0
H611 H 0.27634 0.18952 0.90142 0.0
H612 H 0.30123 0.15347 0.81271 0.0
H613 H 0.33464 0.17973 0.80981 0.0
C614 C 0.34273 0.21633 0.85108 0.0
C615 C 0.34417 0.23494 0.87421 0.0
C616 C 0.32453 0.20009 0.85362 0.0
C617 C 0.32787 0.23642 0.90068 0.0
C618 C 0.31005 0.22034 0.90352 0.0
C619 C 0.28908 0.18726 0.88145 0.0
C620 C 0.28612 0.16972 0.85709 0.0
C621 C 0.30795 0.20242 0.87982 0.0
C622 C 0.30306 0.16687 0.83177 0.0
C623 C 0.32211 0.18195 0.83004 0.0
H624 H 0.85886 0.29973 0.8138 0.0
H625 H 0.84475 0.27986 0.91756 0.0
H626 H 0.8156 0.31 0.92207 0.0
H627 H 0.79087 0.33847 0.89483 0.0
H628 H 0.8031 0.35835 0.79074 0.0
H629 H 0.8364 0.33206 0.78816 0.0
C630 C 0.84973 0.30239 0.83757 0.0
C631 C 0.85376 0.28738 0.86518 0.0
C632 C 0.83247 0.31956 0.8398 0.0
C633 C 0.84177 0.29096 0.89581 0.0
C634 C 0.82506 0.30819 0.89842 0.0
C635 C 0.80097 0.33728 0.87165 0.0
C636 C 0.79432 0.35003 0.84286 0.0
C637 C 0.81972 0.32199 0.87027 0.0
C638 C 0.80784 0.34864 0.81323 0.0
C639 C 0.82679 0.33351 0.81171 0.0
H640 H 0.639 0.18451 0.59863 0.0
H641 H 0.63501 0.19605 0.7066 0.0
H642 H 0.66201 0.16395 0.7165 0.0
H643 H 0.69246 0.13795 0.69298 0.0
H644 H 0.69725 0.12913 0.58438 0.0
H645 H 0.66399 0.15437 0.57607 0.0
C646 C 0.64353 0.17951 0.62439 0.0
C647 C 0.63535 0.19267 0.65182 0.0
C648 C 0.65946 0.16165 0.62965 0.0
C649 C 0.6411 0.18605 0.68511 0.0
C650 C 0.65674 0.16788 0.6907 0.0
C651 C 0.68563 0.141 0.6677 0.0
C652 C 0.69725 0.13192 0.63926 0.0
C653 C 0.66689 0.15629 0.66302 0.0
C654 C 0.68855 0.1361 0.60654 0.0
C655 C 0.66963 0.1506 0.60176 0.0
H656 H 0.81633 0.64926 0.57767 0.0
H657 H 0.81453 0.63702 0.68564 0.0
H658 H 0.84556 0.6656 0.69399 0.0
H659 H 0.868 0.69901 0.67092 0.0
H660 H 0.8671 0.71177 0.56294 0.0
H661 H 0.84275 0.67785 0.55405 0.0
C662 C 0.82314 0.65245 0.60297 0.0
C663 C 0.81303 0.64137 0.63104 0.0
C664 C 0.8404 0.66919 0.60751 0.0
C665 C 0.82211 0.64538 0.66364 0.0
C666 C 0.83968 0.66187 0.6684 0.0
C667 C 0.86305 0.6938 0.64544 0.0
C668 C 0.8692 0.7078 0.61757 0.0
C669 C 0.84826 0.67462 0.64064 0.0
C670 C 0.86248 0.70121 0.58468 0.0
C671 C 0.84847 0.68191 0.57962 0.0
H672 H 0.3283 0.88746 0.62508 0.0
H673 H 0.29863 0.86826 0.72134 0.0
H674 H 0.33076 0.84161 0.73186 0.0
H675 H 0.36167 0.81748 0.7069 0.0
H676 H 0.38971 0.83535 0.60898 0.0
H677 H 0.36441 0.86917 0.60598 0.0
C678 C 0.32959 0.87828 0.64907 0.0
C679 C 0.3114 0.87984 0.67257 0.0
C680 C 0.34766 0.86244 0.65425 0.0
C681 C 0.31274 0.86754 0.70325 0.0
C682 C 0.33093 0.85207 0.70899 0.0
C683 C 0.36293 0.82947 0.68575 0.0
C684 C 0.37753 0.82421 0.65829 0.0
C685 C 0.34773 0.84842 0.68377 0.0
C686 C 0.37876 0.83938 0.63053 0.0
C687 C 0.36411 0.85854 0.62867 0.0
H688 H 0.16354 0.30419 0.58391 0.0
H689 H 0.13953 0.32342 0.68367 0.0
H690 H 0.16903 0.35405 0.68643 0.0
H691 H 0.20497 0.37197 0.66278 0.0
H692 H 0.22866 0.35053 0.5636 0.0
H693 H 0.19592 0.32436 0.55821 0.0
C694 C 0.16454 0.31527 0.60614 0.0
C695 C 0.14963 0.31134 0.63373 0.0
C696 C 0.18167 0.33237 0.60772 0.0
C697 C 0.15086 0.32609 0.66209 0.0
C698 C 0.16784 0.34349 0.66375 0.0
C699 C 0.20262 0.36189 0.63979 0.0
C700 C 0.21939 0.36296 0.61381 0.0
C701 C 0.18384 0.34632 0.63709 0.0
C702 C 0.21619 0.34977 0.58416 0.0
C703 C 0.19747 0.33479 0.58102 0.0
H704 H 0.20628 0.08426 0.06477 0.0
H705 H 0.27875 0.07 0.05146 0.0
H706 H 0.27376 0.06972 0.98954 0.0
H707 H 0.25062 0.08299 0.94057 0.0
H708 H 0.17924 0.10195 0.95558 0.0
H709 H 0.18155 0.09032 0.01514 0.0
C710 C 0.22069 0.08003 0.04819 0.0
C711 C 0.24276 0.07697 0.06221 0.0
C712 C 0.21786 0.08118 0.01287 0.0
C713 C 0.26155 0.07204 0.04091 0.0
C714 C 0.25872 0.0722 0.00558 0.0
C715 C 0.23537 0.08364 0.95662 0.0
C716 C 0.21485 0.09346 0.94402 0.0
C717 C 0.23723 0.07811 0.99133 0.0
C718 C 0.19523 0.09455 0.96498 0.0
C719 C 0.1966 0.08806 -0.00096 0.0
H720 H 0.94529 0.24749 0.93197 0.0
H721 H 0.93474 0.1738 0.92668 0.0
H722 H 0.94463 0.16995 0.98663 0.0
H723 H 0.94242 0.18911 0.04192 0.0
H724 H 0.94887 0.26318 0.04838 0.0
H725 H 0.95526 0.26545 0.98705 0.0
C726 C 0.9465 0.23051 0.94358 0.0
C727 C 0.93889 0.211 0.92541 0.0
C728 C 0.95081 0.22865 0.97867 0.0
C729 C 0.94036 0.18904 0.94049 0.0
C730 C 0.94573 0.18688 0.97488 0.0
C731 C 0.9465 0.20558 0.03005 0.0
C732 C 0.94456 0.22598 0.04917 0.0
C733 C 0.94892 0.20678 -0.00534 0.0
C734 C 0.95011 0.24725 0.03396 0.0
C735 C 0.95338 0.24857 -0.00123 0.0
H736 H 0.80268 0.90698 0.9667 0.0
H737 H 0.7408 0.93777 0.92547 0.0
H738 H 0.73131 0.95378 0.98134 0.0
H739 H 0.73658 0.95173 0.04384 0.0
H740 H 0.79686 0.91775 0.0844 0.0
H741 H 0.81129 0.91064 0.02704 0.0
C742 C 0.7874 0.91767 0.96974 0.0
C743 C 0.7722 0.92074 0.94226 0.0
C744 C 0.78169 0.9261 0.00203 0.0
C745 C 0.7527 0.935 0.94635 0.0
C746 C 0.74717 0.944 0.97837 0.0
C747 C 0.75329 0.94365 0.03989 0.0
C748 C 0.7658 0.93534 0.06793 0.0
C749 C 0.76093 0.93865 0.00673 0.0
C750 C 0.78716 0.9244 0.06292 0.0
C751 C 0.79528 0.92015 0.0302 0.0
H752 H 0.08066 0.81115 0.95153 0.0
H753 H 0.07286 0.74359 0.90665 0.0
H754 H 0.06359 0.72717 0.96219 0.0
H755 H 0.06887 0.73075 0.02429 0.0
H756 H 0.07612 0.79833 0.06906 0.0
H757 H 0.07376 0.81624 0.01289 0.0
C758 C 0.07584 0.79306 0.95378 0.0
C759 C 0.0779 0.77846 0.92541 0.0
C760 C 0.0708 0.78371 0.98587 0.0
C761 C 0.07145 0.75511 0.92827 0.0
C762 C 0.06642 0.74565 0.96012 0.0
C763 C 0.06862 0.74945 0.02175 0.0
C764 C 0.0728 0.76329 0.0504 0.0
C765 C 0.06764 0.75954 0.98931 0.0
C766 C 0.07272 0.78745 0.04717 0.0
C767 C 0.07171 0.79766 0.01502 0.0
H768 H 0.19478 0.9182 0.44286 0.0
H769 H 0.2659 0.91694 0.40996 0.0
H770 H 0.27849 0.93014 0.46594 0.0
H771 H 0.26956 0.93101 0.52726 0.0
H772 H 0.19855 0.93212 0.56016 0.0
H773 H 0.18546 0.93077 0.50111 0.0
C774 C 0.21293 0.92181 0.4476 0.0
C775 C 0.22945 0.9161 0.42279 0.0
C776 C 0.22004 0.92908 0.48 0.0
C777 C 0.25289 0.92108 0.42882 0.0
C778 C 0.26012 0.9284 0.46097 0.0
C779 C 0.25127 0.9323 0.52127 0.0
C780 C 0.23498 0.93155 0.54769 0.0
C781 C 0.24395 0.9309 0.4873 0.0
C782 C 0.21132 0.93292 0.54002 0.0
C783 C 0.20385 0.93176 0.50628 0.0
H784 H 0.07386 0.20102 0.55019 0.0
H785 H 0.06723 0.27501 0.54327 0.0
H786 H 0.06078 0.27209 0.48188 0.0
H787 H 0.06904 0.24939 0.42999 0.0
H788 H 0.0792 0.17576 0.43808 0.0
H789 H 0.07128 0.1773 0.4989 0.0
C790 C 0.06982 0.21634 0.53538 0.0
C791 C 0.07133 0.23817 0.55077 0.0
C792 C 0.06715 0.21453 0.5001 0.0
C793 C 0.06609 0.25802 0.53174 0.0
C794 C 0.06275 0.25635 0.49657 0.0
C795 C 0.06828 0.23359 0.44485 0.0
C796 C 0.07503 0.21254 0.42996 0.0
C797 C 0.06497 0.23484 0.48024 0.0
C798 C 0.07421 0.19214 0.44928 0.0
C799 C 0.06994 0.19307 0.4841 0.0
H800 H 0.81429 0.07422 0.55503 0.0
H801 H 0.7411 0.06065 0.55578 0.0
H802 H 0.73982 0.06407 0.49386 0.0
H803 H 0.75718 0.08382 0.44411 0.0
H804 H 0.8294 0.10233 0.4466 0.0
H805 H 0.83373 0.0838 0.50192 0.0
C806 C 0.79836 0.07067 0.54132 0.0
C807 C 0.77775 0.06781 0.5597 0.0
C808 C 0.79753 0.07444 0.50618 0.0
C809 C 0.75718 0.06301 0.54205 0.0
C810 C 0.75637 0.0655 0.50665 0.0
C811 C 0.77403 0.08278 0.45619 0.0
C812 C 0.79289 0.09465 0.44187 0.0
C813 C 0.77605 0.07321 0.48896 0.0
C814 C 0.81465 0.09346 0.45757 0.0
C815 C 0.81709 0.08297 0.48925 0.0
H816 H 0.93925 0.76885 0.53323 0.0
H817 H 0.91833 0.8384 0.55746 0.0
H818 H 0.92148 0.84946 0.49782 0.0
H819 H 0.91824 0.83603 0.43913 0.0
H820 H 0.93552 0.76553 0.41425 0.0
H821 H 0.94645 0.75826 0.47327 0.0
C822 C 0.93665 0.78669 0.52555 0.0
C823 C 0.92833 0.80277 0.54932 0.0
C824 C 0.93719 0.79255 0.49085 0.0
C825 C 0.9247 0.82579 0.53934 0.0
C826 C 0.92622 0.83203 0.5052 0.0
C827 C 0.92535 0.81937 0.44641 0.0
C828 C 0.92541 0.80116 0.42279 0.0
C829 C 0.93062 0.81508 0.4806 0.0
C830 C 0.93505 0.77977 0.43215 0.0
C831 C 0.94104 0.77552 0.46604 0.0
H832 H 0.70206 0.57118 0.53491 0.0
H833 H 0.77611 0.56659 0.52671 0.0
H834 H 0.77311 0.56361 0.46483 0.0
H835 H 0.75027 0.5755 0.41472 0.0
H836 H 0.67665 0.58474 0.42462 0.0
H837 H 0.67825 0.57185 0.48359 0.0
C838 C 0.71738 0.56811 0.51958 0.0
C839 C 0.73924 0.56933 0.53495 0.0
C840 C 0.7155 0.56784 0.48407 0.0
C841 C 0.75909 0.56557 0.51522 0.0
C842 C 0.75737 0.5643 0.47978 0.0
C843 C 0.73449 0.57342 0.42935 0.0
C844 C 0.71343 0.5813 0.41579 0.0
C845 C 0.7358 0.56736 0.46393 0.0
C846 C 0.69304 0.57884 0.43482 0.0
C847 C 0.694 0.57173 0.46864 0.0
H848 H 0.43452 0.74068 0.43208 0.0
H849 H 0.42094 0.66911 0.45564 0.0
H850 H 0.42883 0.67636 0.51562 0.0
H851 H 0.42897 0.70483 0.56172 0.0
H852 H 0.43863 0.777 0.53903 0.0
H853 H 0.44338 0.76794 0.47857 0.0
C854 C 0.43436 0.72652 0.45018 0.0
C855 C 0.42689 0.70448 0.43972 0.0
C856 C 0.43773 0.73111 0.48495 0.0
C857 C 0.42649 0.68625 0.46332 0.0
C858 C 0.4308 0.69044 0.49764 0.0
C859 C 0.43326 0.71836 0.54363 0.0
C860 C 0.43359 0.74145 0.55444 0.0
C861 C 0.43487 0.71307 0.50893 0.0
C862 C 0.43865 0.75906 0.53106 0.0
C863 C 0.44104 0.75388 0.49648 0.0
H864 H 0.32924 0.42216 0.42747 0.0
H865 H 0.25577 0.4279 0.41154 0.0
H866 H 0.25066 0.44137 0.46999 0.0
H867 H 0.26589 0.43893 0.5286 0.0
H868 H 0.33902 0.42949 0.54432 0.0
H869 H 0.34575 0.43107 0.48319 0.0
C870 C 0.31229 0.4275 0.43639 0.0
C871 C 0.29285 0.42358 0.41579 0.0
C872 C 0.30944 0.43422 0.47035 0.0
C873 C 0.27097 0.43069 0.42716 0.0
C874 C 0.26802 0.43808 0.46077 0.0
C875 C 0.28339 0.43857 0.51862 0.0
C876 C 0.30193 0.43375 0.54061 0.0
C877 C 0.28692 0.43812 0.48324 0.0
C878 C 0.32454 0.43309 0.52763 0.0
C879 C 0.32833 0.43368 0.49266 0.0
H880 H 0.56637 0.30831 0.56545 0.0
H881 H 0.56176 0.2363 0.53883 0.0
H882 H 0.55527 0.24647 0.4793 0.0
H883 H 0.56435 0.27483 0.43481 0.0
H884 H 0.57458 0.34637 0.46192 0.0
H885 H 0.56453 0.33782 0.5208 0.0
C886 C 0.56249 0.29499 0.54684 0.0
C887 C 0.56461 0.27167 0.55616 0.0
C888 C 0.56047 0.30101 0.51241 0.0
C889 C 0.56 0.25439 0.53205 0.0
C890 C 0.55672 0.26023 0.49791 0.0
C891 C 0.56321 0.28874 0.45327 0.0
C892 C 0.57081 0.31105 0.44439 0.0
C893 C 0.55891 0.28337 0.48754 0.0
C894 C 0.56918 0.32896 0.46842 0.0
C895 C 0.56366 0.32402 0.50218 0.0
H896 H 0.7552 0.43574 0.92539 0.0
H897 H 0.68131 0.4269 0.92017 0.0
H898 H 0.67769 0.43708 0.98008 0.0
H899 H 0.69678 0.43539 0.03551 0.0
H900 H 0.77093 0.44052 0.04203 0.0
H901 H 0.77341 0.44563 0.98039 0.0
C902 C 0.73826 0.43742 0.93702 0.0
C903 C 0.71855 0.43042 0.9188 0.0
C904 C 0.73651 0.44196 0.97205 0.0
C905 C 0.69666 0.43226 0.93394 0.0
C906 C 0.69464 0.43776 0.9683 0.0
C907 C 0.71333 0.4389 0.02351 0.0
C908 C 0.73365 0.4372 0.04285 0.0
C909 C 0.71461 0.44072 0.98805 0.0
C910 C 0.75507 0.44177 0.02745 0.0
C911 C 0.75649 0.44432 0.99212 0.0
H912 H 0.56637 0.70028 0.04798 0.0
H913 H 0.5625 0.77247 0.02223 0.0
H914 H 0.558 0.76269 0.96212 0.0
H915 H 0.56834 0.73461 0.91777 0.0
H916 H 0.57793 0.66296 0.94456 0.0
H917 H 0.56618 0.6711 0.00289 0.0
C918 C 0.56309 0.71372 0.02932 0.0
C919 C 0.56481 0.73698 0.03918 0.0
C920 C 0.56224 0.70794 -0.00529 0.0
C921 C 0.561 0.75443 0.01505 0.0
C922 C 0.55887 0.74881 0.9806 0.0
C923 C 0.56671 0.72061 0.93599 0.0
C924 C 0.57449 0.69834 0.92726 0.0
C925 C 0.56142 0.72575 0.97004 0.0
C926 C 0.57233 0.6803 0.95097 0.0
C927 C 0.56582 0.68501 0.98442 0.0
H928 H 0.29076 0.62081 0.03776 0.0
H929 H 0.25124 0.55755 0.04077 0.0
H930 H 0.25309 0.55487 0.97847 0.0
H931 H 0.26191 0.57358 0.92295 0.0
H932 H 0.30059 0.63755 0.92212 0.0
H933 H 0.30325 0.6368 0.98376 0.0
C934 C 0.28278 0.60625 0.02482 0.0
C935 C 0.27057 0.58961 0.04362 0.0
C936 C 0.28362 0.60509 0.98936 0.0
C937 C 0.26069 0.57061 0.0267 0.0
C938 C 0.26162 0.56918 0.99112 0.0
C939 C 0.27129 0.58706 0.93633 0.0
C940 C 0.28072 0.6058 0.9181 0.0
C941 C 0.27244 0.58675 0.97211 0.0
C942 C 0.29285 0.62316 0.93563 0.0
C943 C 0.29441 0.62275 0.97089 0.0
H944 H 0.44119 0.25524 0.93647 0.0
H945 H 0.42958 0.32622 0.96544 0.0
H946 H 0.43895 0.31695 0.02438 0.0
H947 H 0.43886 0.28691 0.06844 0.0
H948 H 0.44449 0.21532 0.03977 0.0
H949 H 0.4498 0.22636 0.98026 0.0
C950 C 0.44171 0.26886 0.95543 0.0
C951 C 0.43422 0.29126 0.94686 0.0
C952 C 0.44569 0.26308 0.98961 0.0
C953 C 0.43495 0.30877 0.97162 0.0
C954 C 0.44015 0.30343 0.00538 0.0
C955 C 0.44255 0.2739 0.04929 0.0
C956 C 0.44145 0.25042 0.05815 0.0
C957 C 0.44386 0.28036 0.01495 0.0
C958 C 0.4456 0.23352 0.03333 0.0
C959 C 0.44825 0.23984 -0.00073 0.0
H960 H 0.30096 0.00764 0.23294 0.0
H961 H 0.22921 0.00989 0.20245 0.0
H962 H 0.22308 0.97129 0.22574 0.0
H963 H 0.23744 0.93766 0.25702 0.0
H964 H 0.30856 0.93586 0.29035 0.0
H965 H 0.31563 0.97334 0.26332 0.0
C966 C 0.28401 0.99964 0.23124 0.0
C967 C 0.26557 0.01174 0.21606 0.0
C968 C 0.28048 0.97747 0.24513 0.0
C969 C 0.2437 1.00109 0.21417 0.0
C970 C 0.24017 0.97896 0.22742 0.0
C971 C 0.25459 0.94529 0.25802 0.0
C972 C 0.27246 0.93393 0.27564 0.0
C973 C 0.25836 0.96709 0.24322 0.0
C974 C 0.29449 0.94423 0.27696 0.0
C975 C 0.29853 0.96571 0.26159 0.0
H976 H 0.95944 0.26505 0.23838 0.0
H977 H 0.00338 0.27016 0.14998 0.0
H978 H 0.03767 0.26726 0.18586 0.0
H979 H 0.05524 0.26048 0.24201 0.0
H980 H 0.01138 0.25693 0.33063 0.0
H981 H 0.97716 0.26211 0.2951 0.0
C982 C 0.97652 0.26578 0.22702 0.0
C983 C 0.97878 0.2676 0.19151 0.0
C984 C 0.99625 0.26421 0.24783 0.0
C985 C 1.00107 0.26876 0.17723 0.0
C986 C 0.02075 0.26698 0.19772 0.0
C987 C 0.03819 0.261 0.25354 0.0
C988 C 0.03587 0.25807 0.28886 0.0
C989 C 0.01854 0.26424 0.23298 0.0
C990 C 0.01369 0.25911 0.30349 0.0
C991 C 0.99407 0.262 0.28318 0.0
H992 H 0.74571 0.03949 0.32766 0.0
H993 H 0.74815 0.09295 0.25109 0.0
H994 H 0.74258 0.06398 0.20661 0.0
H995 H 0.73852 0.02339 0.18933 0.0
H996 H 0.73781 0.96973 0.26568 0.0
H997 H 0.74115 0.9989 0.31039 0.0
C998 C 0.74483 0.04485 0.30126 0.0
C999 C 0.74733 0.06838 0.29274 0.0
C1000 C 0.74204 0.02805 0.27577 0.0
C1001 C 0.74634 0.07496 0.25837 0.0
C1002 C 0.74316 0.0584 0.23291 0.0
C1003 C 0.73894 0.01805 0.21576 0.0
C1004 C 0.73792 0.99439 0.22412 0.0
C1005 C 0.74122 0.03488 0.2413 0.0
C1006 C 0.73863 0.98781 0.25851 0.0
C1007 C 0.74053 0.00449 0.2841 0.0
H1008 H 0.03429 0.73843 0.24157 0.0
H1009 H 0.99523 0.74855 0.14929 0.0
H1010 H 0.95984 0.75367 0.18228 0.0
H1011 H 0.9401 0.75655 0.23751 0.0
H1012 H 0.97886 0.74473 0.32968 0.0
H1013 H 0.01406 0.73882 0.29663 0.0
C1014 C 0.01802 0.74173 0.22872 0.0
C1015 C 0.01745 0.74329 0.19306 0.0
C1016 C 0.99762 0.74432 0.24783 0.0
C1017 C 0.99617 0.74726 0.17673 0.0
C1018 C 0.9759 0.75024 0.19557 0.0
C1019 C 0.95623 0.75254 0.25034 0.0
C1020 C 0.95683 0.75123 0.28602 0.0
C1021 C 0.97644 0.74897 0.23115 0.0
C1022 C 0.97784 0.74582 0.30223 0.0
C1023 C 0.99805 0.74253 0.28336 0.0
H1024 H 0.7464 0.96262 0.79638 0.0
H1025 H 0.73267 0.91902 0.70957 0.0
H1026 H 0.72922 0.95317 0.67336 0.0
H1027 H 0.73245 0.99526 0.66563 0.0
H1028 H 0.74759 0.03867 0.75215 0.0
H1029 H 0.74802 0.00476 0.78912 0.0
C1030 C 0.74242 0.96055 0.76961 0.0
C1031 C 0.73988 0.93823 0.75575 0.0
C1032 C 0.74084 0.98026 0.74879 0.0
C1033 C 0.73479 0.93595 0.72095 0.0
C1034 C 0.73285 0.95549 0.70018 0.0
C1035 C 0.73564 0.99736 0.69262 0.0
C1036 C 0.74008 0.01952 0.706 0.0
C1037 C 0.7362 0.97771 0.71371 0.0
C1038 C 0.74422 0.02185 0.74107 0.0
C1039 C 0.74449 1.00244 0.76227 0.0
H1040 H 0.96745 0.74433 0.72386 0.0
H1041 H 0.00729 0.76775 0.63763 0.0
H1042 H 0.04221 0.7687 0.67244 0.0
H1043 H 0.06112 0.76494 0.72819 0.0
H1044 H 0.02161 0.7402 0.81392 0.0
H1045 H 0.98703 0.73761 0.7785 0.0
C1046 C 0.98381 0.74949 0.71264 0.0
C1047 C 0.98468 0.75614 0.67827 0.0
C1048 C 0.00392 0.74986 0.73276 0.0
C1049 C 0.00608 0.76254 0.66403 0.0
C1050 C 0.02608 0.76319 0.68395 0.0
C1051 C 0.04497 0.75886 0.73905 0.0
C1052 C 0.04392 0.75297 0.7737 0.0
C1053 C 0.02515 0.75721 0.71846 0.0
C1054 C 0.02292 0.74486 0.78731 0.0
C1055 C 1.00309 0.74344 0.7671 0.0
H1056 H 0.24935 0.97976 0.73548 0.0
H1057 H 0.26647 0.01199 0.63973 0.0
H1058 H 0.2652 0.05008 0.66639 0.0
H1059 H 0.25816 0.07445 0.71656 0.0
H1060 H 0.24215 0.04214 0.81269 0.0
H1061 H 0.24423 0.00403 0.78629 0.0
C1062 C 0.25283 0.99511 0.72046 0.0
C1063 C 0.25785 0.99299 0.68561 0.0
C1064 C 0.25231 0.01702 0.73603 0.0
C1065 C 0.26255 0.01307 0.66661 0.0
C1066 C 0.2618 0.03491 0.68183 0.0
C1067 C 0.25524 0.05907 0.73178 0.0
C1068 C 0.2499 0.06124 0.76653 0.0
C1069 C 0.25656 0.03712 0.71647 0.0
C1070 C 0.24632 0.04107 0.78589 0.0
C1071 C 0.24742 0.01921 0.77079 0.0
H1072 H 0.94995 0.26525 0.74228 0.0
H1073 H 0.99309 0.27076 0.83149 0.0
H1074 H 0.02705 0.27701 0.79581 0.0
H1075 H 0.04499 0.27831 0.73914 0.0
H1076 H 1.00168 0.27409 0.64993 0.0
H1077 H 0.96742 0.27022 0.68568 0.0
C1078 C 0.96676 0.26799 0.75389 0.0
C1079 C 0.96898 0.26729 0.78948 0.0
C1080 C 0.98626 0.27177 0.73321 0.0
C1081 C 0.99085 0.27117 0.80416 0.0
C1082 C 0.01033 0.27468 0.78376 0.0
C1083 C 0.02803 0.27679 0.72752 0.0
C1084 C 0.02598 0.27627 0.69189 0.0
C1085 C 0.00831 0.27464 0.74825 0.0
C1086 C 0.00382 0.27452 0.67728 0.0
C1087 C 0.98418 0.27219 0.69771 0.0
H1088 H 0.77863 0.50034 0.64869 0.0
H1089 H 0.75284 0.54415 0.72908 0.0
H1090 H 0.74791 0.51046 0.76575 0.0
H1091 H 0.74936 0.46846 0.77429 0.0
H1092 H 0.77473 0.42447 0.69385 0.0
H1093 H 0.78138 0.45835 0.65801 0.0
C1094 C 0.7721 0.50258 0.67432 0.0
C1095 C 0.76605 0.5248 0.68599 0.0
C1096 C 0.76909 0.48307 0.69524 0.0
C1097 C 0.7576 0.52729 0.71933 0.0
C1098 C 0.75473 0.50801 0.74034 0.0
C1099 C 0.75641 0.46624 0.74896 0.0
C1100 C 0.76141 0.44388 0.73677 0.0
C1101 C 0.76014 0.48579 0.72843 0.0
C1102 C 0.77065 0.44142 0.70391 0.0
C1103 C 0.77446 0.46081 0.68335 0.0
H1104 H 0.53391 0.76753 0.82332 0.0
H1105 H 0.56659 0.73192 0.73967 0.0
H1106 H 0.53286 0.73938 0.70393 0.0
H1107 H 0.49313 0.75374 0.69758 0.0
H1108 H 0.46002 0.78828 0.78182 0.0
H1109 H 0.49494 0.78359 0.81605 0.0
C1110 C 0.53379 0.76159 0.79716 0.0
C1111 C 0.55274 0.74907 0.7843 0.0
C1112 C 0.51419 0.76562 0.77689 0.0
C1113 C 0.55222 0.74151 0.75032 0.0
C1114 C 0.53291 0.74574 0.72985 0.0
C1115 C 0.49359 0.76044 0.72332 0.0
C1116 C 0.47389 0.77123 0.73713 0.0
C1117 C 0.51364 0.75742 0.74305 0.0
C1118 C 0.47486 0.7798 0.77055 0.0
C1119 C 0.49483 0.77711 0.79019 0.0
H1120 H 0.26627 0.48675 0.67843 0.0
H1121 H 0.22616 0.449 0.75263 0.0
H1122 H 0.22189 0.4841 0.78657 0.0
H1123 H 0.23121 0.52493 0.79671 0.0
H1124 H 0.27239 0.56244 0.72351 0.0
H1125 H 0.27446 0.528 0.68761 0.0
C1126 C 0.25641 0.48622 0.70187 0.0
C1127 C 0.24661 0.4652 0.71298 0.0
C1128 C 0.2543 0.5064 0.72155 0.0
C1129 C 0.23396 0.46488 0.7435 0.0
C1130 C 0.23152 0.48495 0.76297 0.0
C1131 C 0.2405 0.52567 0.77278 0.0
C1132 C 0.2517 0.54626 0.76292 0.0
C1133 C 0.24188 0.50573 0.75247 0.0
C1134 C 0.26368 0.54683 0.73182 0.0
C1135 C 0.26488 0.52713 0.71127 0.0
H1136 H 0.47285 0.26091 0.80139 0.0
H1137 H 0.42776 0.23385 0.72339 0.0
H1138 H 0.4611 0.22706 0.68653 0.0
H1139 H 0.50275 0.23085 0.67523 0.0
H1140 H 0.54755 0.25939 0.75247 0.0
H1141 H 0.51461 0.26345 0.79085 0.0
C1142 C 0.47029 0.25331 0.77646 0.0
C1143 C 0.44778 0.24796 0.76517 0.0
C1144 C 0.48949 0.24984 0.75516 0.0
C1145 C 0.44485 0.23821 0.73271 0.0
C1146 C 0.46392 0.23435 0.71159 0.0
C1147 C 0.50537 0.23779 0.70055 0.0
C1148 C 0.52762 0.24488 0.71086 0.0
C1149 C 0.48628 0.24041 0.72235 0.0
C1150 C 0.53063 0.25389 0.74377 0.0
C1151 C 0.51179 0.25622 0.76577 0.0
H1152 H 0.21553 0.5178 0.24121 0.0
H1153 H 0.27025 0.50424 0.16927 0.0
H1154 H 0.27568 0.46571 0.19346 0.0
H1155 H 0.26692 0.43701 0.23788 0.0
H1156 H 0.21235 0.45092 0.30999 0.0
H1157 H 0.20474 0.48798 0.28264 0.0
C1158 C 0.22853 0.50637 0.2306 0.0
C1159 C 0.2426 0.51405 0.20367 0.0
C1160 C 0.23166 0.48426 0.24474 0.0
C1161 C 0.25921 0.49887 0.19008 0.0
C1162 C 0.26238 0.47681 0.20395 0.0
C1163 C 0.25316 0.448 0.24737 0.0
C1164 C 0.24039 0.44122 0.27619 0.0
C1165 C 0.24899 0.46949 0.23171 0.0
C1166 C 0.22257 0.45569 0.288 0.0
C1167 C 0.21822 0.47697 0.27242 0.0
H1168 H 0.52637 0.24476 0.33983 0.0
H1169 H 0.56291 0.276 0.25579 0.0
H1170 H 0.53013 0.26804 0.21832 0.0
H1171 H 0.49046 0.25367 0.20993 0.0
H1172 H 0.45375 0.22313 0.29438 0.0
H1173 H 0.48723 0.22938 0.33106 0.0
C1174 C 0.52728 0.24968 0.31326 0.0
C1175 C 0.54711 0.26102 0.30073 0.0
C1176 C 0.50826 0.2453 0.29192 0.0
C1177 C 0.54789 0.26729 0.26619 0.0
C1178 C 0.52911 0.26278 0.24473 0.0
C1179 C 0.48979 0.24828 0.23632 0.0
C1180 C 0.46951 0.23802 0.24935 0.0
C1181 C 0.5091 0.25205 0.2574 0.0
C1182 C 0.46904 0.23114 0.28363 0.0
C1183 C 0.48821 0.23469 0.30467 0.0
H1184 H 0.76632 0.53007 0.2927 0.0
H1185 H 0.7313 0.57542 0.22225 0.0
H1186 H 0.72874 0.54412 0.18091 0.0
H1187 H 0.73412 0.50335 0.16607 0.0
H1188 H 0.76902 0.4577 0.23608 0.0
H1189 H 0.77401 0.48968 0.27617 0.0
C1190 C 0.75834 0.53319 0.26818 0.0
C1191 C 0.74885 0.55506 0.26079 0.0
C1192 C 0.75673 0.51501 0.2445 0.0
C1193 C 0.73865 0.55877 0.22878 0.0
C1194 C 0.73711 0.54084 0.20509 0.0
C1195 C 0.74292 0.50038 0.19003 0.0
C1196 C 0.75098 0.4781 0.19818 0.0
C1197 C 0.7457 0.5188 0.21293 0.0
C1198 C 0.76259 0.47466 0.22918 0.0
C1199 C 0.76541 0.49293 0.25216 0.0
H1200 H 0.45574 0.78411 0.26231 0.0
H1201 H 0.46972 0.71164 0.27945 0.0
H1202 H 0.50526 0.71463 0.24652 0.0
H1203 H 0.53213 0.73741 0.21207 0.0
H1204 H 0.51821 0.80965 0.1934 0.0
H1205 H 0.48305 0.80713 0.2278 0.0
C1206 C 0.46658 0.76898 0.25889 0.0
C1207 C 0.45995 0.74768 0.27337 0.0
C1208 C 0.48706 0.77075 0.23965 0.0
C1209 C 0.47426 0.72826 0.26859 0.0
C1210 C 0.49466 0.72994 0.24975 0.0
C1211 C 0.52151 0.75267 0.21563 0.0
C1212 C 0.52787 0.77369 0.20014 0.0
C1213 C 0.5012 0.75105 0.23509 0.0
C1214 C 0.51376 0.79323 0.20496 0.0
C1215 C 0.49361 0.7918 0.22463 0.0
H1216 H 0.1781 0.14488 0.17808 0.0
H1217 H 0.20121 0.09701 0.25512 0.0
H1218 H 0.17364 0.11352 0.29548 0.0
H1219 H 0.14793 0.14555 0.31113 0.0
H1220 H 0.12559 0.19413 0.23462 0.0
H1221 H 0.14751 0.17297 0.19147 0.0
C1222 C 0.17682 0.13779 0.20354 0.0
C1223 C 0.19203 0.12008 0.21386 0.0
C1224 C 0.16118 0.14757 0.22669 0.0
C1225 C 0.18984 0.11073 0.24665 0.0
C1226 C 0.17416 0.12026 0.26978 0.0
C1227 C 0.14744 0.1512 0.28484 0.0
C1228 C 0.13554 0.17161 0.27615 0.0
C1229 C 0.16048 0.13928 0.26044 0.0
C1230 C 0.13468 0.17852 0.24196 0.0
C1231 C 0.1474 0.16655 0.21736 0.0
H1232 H 0.88428 0.21378 0.23871 0.0
H1233 H 0.85761 0.1657 0.16442 0.0
H1234 H 0.83519 0.1461 0.20831 0.0
H1235 H 0.81982 0.14528 0.26635 0.0
H1236 H 0.84547 0.19419 0.34034 0.0
H1237 H 0.8716 0.2106 0.29815 0.0
C1238 C 0.87396 0.19871 0.23229 0.0
C1239 C 0.87245 0.19137 0.19833 0.0
C1240 C 0.86061 0.18783 0.25753 0.0
C1241 C 0.8589 0.17186 0.19037 0.0
C1242 C 0.846 0.16066 0.21542 0.0
C1243 C 0.8313 0.15935 0.27338 0.0
C1244 C 0.8304 0.16865 0.30635 0.0
C1245 C 0.84614 0.16895 0.24887 0.0
C1246 C 0.84557 0.1868 0.31504 0.0
C1247 C 0.86057 0.19624 0.29092 0.0
H1248 H 0.83747 0.86157 0.30294 0.0
H1249 H 0.87207 0.81727 0.23069 0.0
H1250 H 0.8512 0.83593 0.18413 0.0
H1251 H 0.81993 0.86141 0.16496 0.0
H1252 H 0.78454 0.90491 0.23747 0.0
H1253 H 0.80916 0.89004 0.28296 0.0
C1254 C 0.84073 0.85618 0.27697 0.0
C1255 C 0.85607 0.83778 0.27038 0.0
C1256 C 0.82836 0.86666 0.25044 0.0
C1257 C 0.8603 0.83129 0.23653 0.0
C1258 C 0.84825 0.84186 0.20991 0.0
C1259 C 0.81769 0.86784 0.19065 0.0
C1260 C 0.80008 0.88398 0.19786 0.0
C1261 C 0.8317 0.85901 0.21672 0.0
C1262 C 0.7978 0.8924 0.2312 0.0
C1263 C 0.81183 0.88383 0.25726 0.0
H1264 H 0.19635 0.84652 0.24239 0.0
H1265 H 0.14416 0.84093 0.32038 0.0
H1266 H 0.11957 0.8185 0.28215 0.0
H1267 H 0.11498 0.79652 0.22919 0.0
H1268 H 0.16815 0.80045 0.15229 0.0
H1269 H 0.19009 0.82747 0.18731 0.0
C1270 C 0.17936 0.84088 0.25071 0.0
C1271 C 0.17216 0.84527 0.28422 0.0
C1272 C 0.1656 0.82731 0.22896 0.0
C1273 C 0.15017 0.83765 0.29474 0.0
C1274 C 0.13613 0.82472 0.27295 0.0
C1275 C 0.13122 0.80351 0.21988 0.0
C1276 C 0.14 0.79618 0.18833 0.0
C1277 C 0.14401 0.81878 0.24042 0.0
C1278 C 0.16105 0.80554 0.17665 0.0
C1279 C 0.17365 0.82104 0.19665 0.0
H1280 H 0.85003 0.83693 0.67957 0.0
H1281 H 0.89056 0.79494 0.74789 0.0
H1282 H 0.87334 0.81487 0.79672 0.0
H1283 H 0.8434 0.84086 0.81948 0.0
H1284 H 0.80268 0.88232 0.75043 0.0
H1285 H 0.82373 0.86619 0.70227 0.0
C1286 C 0.85528 0.83228 0.70516 0.0
C1287 C 0.87119 0.81421 0.71023 0.0
C1288 C 0.84525 0.84367 0.73288 0.0
C1289 C 0.87823 0.80871 0.74341 0.0
C1290 C 0.86832 0.82004 0.77128 0.0
C1291 C 0.83937 0.84668 0.79394 0.0
C1292 C 0.82119 0.86251 0.78857 0.0
C1293 C 0.85131 0.83705 0.76628 0.0
C1294 C 0.81644 0.87006 0.75533 0.0
C1295 C 0.82839 0.86075 0.72773 0.0
H1296 H 0.19736 0.896 0.73691 0.0
H1297 H 0.17818 0.85351 0.65119 0.0
H1298 H 0.1498 0.83314 0.6859 0.0
H1299 H 0.13461 0.82355 0.74235 0.0
H1300 H 0.15556 0.86426 0.82898 0.0
H1301 H 0.17854 0.88937 0.7922 0.0
C1302 C 0.18663 0.88262 0.72569 0.0
C1303 C 0.19016 0.87606 0.69168 0.0
C1304 C 0.1707 0.87049 0.74607 0.0
C1305 C 0.17608 0.85867 0.67748 0.0
C1306 C 0.15981 0.84699 0.6973 0.0
C1307 C 0.14369 0.83829 0.75304 0.0
C1308 C 0.14356 0.84187 0.78836 0.0
C1309 C 0.15757 0.85217 0.73192 0.0
C1310 C 0.15554 0.861 0.80186 0.0
C1311 C 0.16879 0.87532 0.78087 0.0
H1312 H 0.15096 0.18062 0.67628 0.0
H1313 H 0.11049 0.22151 0.74621 0.0
H1314 H 0.12636 0.19965 0.794 0.0
H1315 H 0.15536 0.17255 0.81599 0.0
H1316 H 0.19654 0.13233 0.74611 0.0
H1317 H 0.17641 0.15009 0.6981 0.0
C1318 C 0.14536 0.18457 0.70195 0.0
C1319 C 0.12987 0.20296 0.70774 0.0
C1320 C 0.15478 0.17215 0.72927 0.0
C1321 C 0.12249 0.20756 0.74107 0.0
C1322 C 0.13164 0.19513 0.76842 0.0
C1323 C 0.15971 0.16739 0.79027 0.0
C1324 C 0.17771 0.15143 0.78462 0.0
C1325 C 0.14836 0.17794 0.76284 0.0
C1326 C 0.18285 0.14465 0.75117 0.0
C1327 C 0.17144 0.15491 0.7237 0.0
H1328 H 0.84845 0.15878 0.81496 0.0
H1329 H 0.87994 0.20206 0.73834 0.0
H1330 H 0.85897 0.18103 0.69397 0.0
H1331 H 0.82868 0.15336 0.67788 0.0
H1332 H 0.79688 0.11032 0.75448 0.0
H1333 H 0.82125 0.12821 0.79813 0.0
C1334 C 0.85095 0.16346 0.78851 0.0
C1335 C 0.86546 0.18221 0.77996 0.0
C1336 C 0.83867 0.1515 0.76328 0.0
C1337 C 0.86882 0.18778 0.74558 0.0
C1338 C 0.85674 0.17585 0.72025 0.0
C1339 C 0.8272 0.14773 0.7041 0.0
C1340 C 0.81072 0.13082 0.71308 0.0
C1341 C 0.84112 0.15817 0.72895 0.0
C1342 C 0.80934 0.12338 0.74698 0.0
C1343 C 0.8232 0.13367 0.77193 0.0
H1344 H 0.70297 0.60932 0.71834 0.0
H1345 H 0.68301 0.66069 0.64425 0.0
H1346 H 0.65543 0.67716 0.68423 0.0
H1347 H 0.6402 0.67984 0.74226 0.0
H1348 H 0.66125 0.62954 0.81717 0.0
H1349 H 0.6847 0.60963 0.77476 0.0
C1350 C 0.69236 0.6239 0.71078 0.0
C1351 C 0.69536 0.63392 0.67851 0.0
C1352 C 0.6767 0.63359 0.73412 0.0
C1353 C 0.68133 0.65278 0.66909 0.0
C1354 C 0.66549 0.66224 0.69193 0.0
C1355 C 0.64949 0.66422 0.74911 0.0
C1356 C 0.64914 0.65635 0.7829 0.0
C1357 C 0.66348 0.6532 0.72483 0.0
C1358 C 0.66138 0.63611 0.79138 0.0
C1359 C 0.67489 0.62474 0.76717 0.0
H1360 H 0.3495 0.67314 0.81478 0.0
H1361 H 0.30537 0.64062 0.7402 0.0
H1362 H 0.32727 0.65915 0.69451 0.0
H1363 H 0.35516 0.6889 0.67654 0.0
H1364 H 0.39904 0.72166 0.75121 0.0
H1365 H 0.38114 0.69852 0.79613 0.0
C1366 C 0.34493 0.66977 0.78849 0.0
C1367 C 0.32557 0.65586 0.78091 0.0
C1368 C 0.35736 0.68075 0.76243 0.0
C1369 C 0.32013 0.65131 0.74675 0.0
C1370 C 0.33253 0.66206 0.72061 0.0
C1371 C 0.36105 0.69073 0.70259 0.0
C1372 C 0.37809 0.70729 0.71065 0.0
C1373 C 0.35058 0.6775 0.72827 0.0
C1374 C 0.38586 0.70915 0.74438 0.0
C1375 C 0.37555 0.696 0.77008 0.0
H1376 H 0.35252 0.35815 0.8165 0.0
H1377 H 0.39395 0.31403 0.75214 0.0
H1378 H 0.37722 0.33206 0.70177 0.0
H1379 H 0.34763 0.35681 0.67631 0.0
H1380 H 0.30533 0.40028 0.74021 0.0
H1381 H 0.32583 0.38616 0.79057 0.0
C1382 C 0.35819 0.35271 0.79147 0.0
C1383 C 0.37423 0.33449 0.78815 0.0
C1384 C 0.34818 0.36285 0.76258 0.0
C1385 C 0.38154 0.32787 0.7555 0.0
C1386 C 0.37189 0.3381 0.72665 0.0
C1387 C 0.34302 0.36339 0.70123 0.0
C1388 C 0.32471 0.37927 0.70461 0.0
C1389 C 0.35466 0.35502 0.72994 0.0
C1390 C 0.31926 0.38796 0.73696 0.0
C1391 C 0.33092 0.37981 0.76575 0.0
H1392 H 0.62258 0.30558 0.73099 0.0
H1393 H 0.66517 0.32216 0.64419 0.0
H1394 H 0.68792 0.3489 0.67863 0.0
H1395 H 0.69851 0.36431 0.73499 0.0
H1396 H 0.65711 0.34583 0.8221 0.0
H1397 H 0.63103 0.32354 0.78601 0.0
C1398 C 0.6366 0.3153 0.71947 0.0
C1399 C 0.64228 0.31163 0.68517 0.0
C1400 C 0.64998 0.33031 0.73958 0.0
C1401 C 0.66054 0.32442 0.67066 0.0
C1402 C 0.6736 0.33976 0.69034 0.0
C1403 C 0.68348 0.35582 0.74586 0.0
C1404 C 0.67982 0.35658 0.78113 0.0
C1405 C 0.66889 0.34238 0.72506 0.0
C1406 C 0.6604 0.34532 0.79499 0.0
C1407 C 0.64549 0.33252 0.7744 0.0
H1408 H 0.39404 0.2943 0.23004 0.0
H1409 H 0.34141 0.2962 0.15218 0.0
H1410 H 0.31982 0.3249 0.18457 0.0
H1411 H 0.31359 0.34614 0.23806 0.0
H1412 H 0.36533 0.34264 0.31689 0.0
H1413 H 0.38966 0.3184 0.2809 0.0
C1414 C 0.37801 0.3012 0.21993 0.0
C1415 C 0.36926 0.29282 0.18894 0.0
C1416 C 0.36543 0.31748 0.23893 0.0
C1417 C 0.34848 0.3021 0.17617 0.0
C1418 C 0.33607 0.31857 0.19466 0.0
C1419 C 0.33045 0.34056 0.24693 0.0
C1420 C 0.3376 0.34606 0.28009 0.0
C1421 C 0.34406 0.32595 0.2265 0.0
C1422 C 0.3594 0.3385 0.29147 0.0
C1423 C 0.37328 0.32454 0.27098 0.0
H1424 H 0.63151 0.33068 0.25738 0.0
H1425 H 0.65951 0.37783 0.33192 0.0
H1426 H 0.68186 0.39739 0.28791 0.0
H1427 H 0.69718 0.39801 0.22961 0.0
H1428 H 0.66995 0.34997 0.15561 0.0
H1429 H 0.64357 0.33414 0.19785 0.0
C1430 C 0.64211 0.34553 0.26389 0.0
C1431 C 0.64404 0.35254 0.29797 0.0
C1432 C 0.65537 0.35642 0.23857 0.0
C1433 C 0.65788 0.37187 0.30592 0.0
C1434 C 0.67075 0.38306 0.28078 0.0
C1435 C 0.68523 0.38433 0.22259 0.0
C1436 C 0.68587 0.37498 0.18962 0.0
C1437 C 0.67025 0.37499 0.24721 0.0
C1438 C 0.67012 0.35733 0.18093 0.0
C1439 C 0.65497 0.34822 0.20509 0.0
H1440 H 0.68636 0.6442 0.23611 0.0
H1441 H 0.64785 0.67289 0.32008 0.0
H1442 H 0.62335 0.69429 0.28064 0.0
H1443 H 0.61594 0.7085 0.22286 0.0
H1444 H 0.65584 0.68133 0.13919 0.0
H1445 H 0.67644 0.6556 0.17781 0.0
C1446 C 0.67232 0.65477 0.24574 0.0
C1447 C 0.66912 0.65713 0.28097 0.0
C1448 C 0.65865 0.66754 0.22295 0.0
C1449 C 0.65086 0.67095 0.29304 0.0
C1450 C 0.63684 0.68325 0.27052 0.0
C1451 C 0.62884 0.69666 0.213 0.0
C1452 C 0.63452 0.69707 0.17827 0.0
C1453 C 0.64105 0.68226 0.23548 0.0
C1454 C 0.65131 0.68159 0.1659 0.0
C1455 C 0.66313 0.66685 0.18797 0.0
H1456 H 0.332 0.63471 0.17846 0.0
H1457 H 0.29614 0.59133 0.25046 0.0
H1458 H 0.32229 0.60432 0.29571 0.0
H1459 H 0.35063 0.63302 0.31598 0.0
H1460 H 0.38572 0.67696 0.24363 0.0
H1461 H 0.36495 0.65828 0.19709 0.0
C1462 C 0.33024 0.62774 0.20395 0.0
C1463 C 0.31195 0.61248 0.21142 0.0
C1464 C 0.34507 0.63551 0.22972 0.0
C1465 C 0.31005 0.60318 0.24424 0.0
C1466 C 0.32489 0.61074 0.27011 0.0
C1467 C 0.35414 0.63815 0.28996 0.0
C1468 C 0.36931 0.65674 0.28334 0.0
C1469 C 0.34177 0.62766 0.26337 0.0
C1470 C 0.374 0.66287 0.24948 0.0
C1471 C 0.36199 0.65231 0.22285 0.0
loop_
_geom_bond_atom_site_label_1
_geom_bond_atom_site_label_2
_geom_bond_distance
_geom_bond_site_symmetry_2
_ccdc_geom_bond_type
Zn0 O3 2.031 . S
Zn0 O5 2.049 . S
Zn0 O10 2.067 . S
Zn1 O2 1.962 . S
Zn1 O4 1.986 . S
Zn1 O6 1.996 . S
Zn1 O9 1.943 . S
O2 Zn1 1.962 . S
O2 C7 1.254 . S
O3 Zn0 2.031 . S
O3 C7 1.269 . S
O4 Zn1 1.986 . S
O4 C11 1.262 . S
O5 Zn0 2.049 . S
O5 C13 1.260 . S
O6 Zn1 1.996 . S
O6 C13 1.257 . S
C7 O2 1.254 . S
C7 O3 1.269 . S
C8 O9 1.249 . S
C8 O10 1.270 . S
O9 Zn1 1.943 . S
O9 C8 1.249 . S
O10 Zn0 2.067 . S
O10 C8 1.270 . S
C11 O4 1.262 . S
C11 O12 1.232 . S
O12 C11 1.232 . S
C13 O5 1.260 . S
C13 O6 1.257 . S
Zn14 O17 2.031 . S
Zn14 O19 2.049 . S
Zn14 O24 2.067 . S
Zn15 O16 1.962 . S
Zn15 O18 1.986 . S
Zn15 O20 1.996 . S
Zn15 O23 1.943 . S
O16 Zn15 1.962 . S
O16 C21 1.254 . S
O17 Zn14 2.031 . S
O17 C21 1.269 . S
O18 Zn15 1.986 . S
O18 C25 1.262 . S
O19 Zn14 2.049 . S
O19 C27 1.260 . S
O20 Zn15 1.996 . S
O20 C27 1.257 . S
C21 O16 1.254 . S
C21 O17 1.269 . S
C22 O23 1.249 . S
C22 O24 1.270 . S
O23 Zn15 1.943 . S
O23 C22 1.249 . S
O24 Zn14 2.067 . S
O24 C22 1.270 . S
C25 O18 1.262 . S
C25 O26 1.232 . S
O26 C25 1.232 . S
C27 O19 1.260 . S
C27 O20 1.257 . S
Zn28 O31 2.031 . S
Zn28 O33 2.049 . S
Zn28 O38 2.067 . S
Zn29 O30 1.962 . S
Zn29 O32 1.986 . S
Zn29 O34 1.996 . S
Zn29 O37 1.943 . S
O30 Zn29 1.962 . S
O30 C35 1.254 . S
O31 Zn28 2.031 . S
O31 C35 1.269 . S
O32 Zn29 1.986 . S
O32 C39 1.262 . S
O33 Zn28 2.049 . S
O33 C41 1.260 . S
O34 Zn29 1.996 . S
O34 C41 1.257 . S
C35 O30 1.254 . S
C35 O31 1.269 . S
C36 O37 1.249 . S
C36 O38 1.270 . S
O37 Zn29 1.943 . S
O37 C36 1.249 . S
O38 Zn28 2.067 . S
O38 C36 1.270 . S
C39 O32 1.262 . S
C39 O40 1.232 . S
O40 C39 1.232 . S
C41 O33 1.260 . S
C41 O34 1.257 . S
Zn42 O45 2.031 . S
Zn42 O47 2.049 . S
Zn42 O52 2.067 . S
Zn43 O44 1.962 . S
Zn43 O46 1.986 . S
Zn43 O48 1.996 . S
Zn43 O51 1.943 . S
O44 Zn43 1.962 . S
O44 C49 1.254 . S
O45 Zn42 2.031 . S
O45 C49 1.269 . S
O46 Zn43 1.986 . S
O46 C53 1.262 . S
O47 Zn42 2.049 . S
O47 C55 1.260 . S
O48 Zn43 1.996 . S
O48 C55 1.257 . S
C49 O44 1.254 . S
C49 O45 1.269 . S
C50 O51 1.249 . S
C50 O52 1.270 . S
O51 Zn43 1.943 . S
O51 C50 1.249 . S
O52 Zn42 2.067 . S
O52 C50 1.270 . S
C53 O46 1.262 . S
C53 O54 1.232 . S
O54 C53 1.232 . S
C55 O47 1.260 . S
C55 O48 1.257 . S
Zn56 O59 2.031 . S
Zn56 O61 2.049 . S
Zn56 O66 2.067 . S
Zn57 O58 1.962 . S
Zn57 O60 1.986 . S
Zn57 O62 1.996 . S
Zn57 O65 1.943 . S
O58 Zn57 1.962 . S
O58 C63 1.254 . S
O59 Zn56 2.031 . S
O59 C63 1.269 . S
O60 Zn57 1.986 . S
O60 C67 1.262 . S
O61 Zn56 2.049 . S
O61 C69 1.260 . S
O62 Zn57 1.996 . S
O62 C69 1.257 . S
C63 O58 1.254 . S
C63 O59 1.269 . S
C64 O65 1.249 . S
C64 O66 1.270 . S
O65 Zn57 1.943 . S
O65 C64 1.249 . S
O66 Zn56 2.067 . S
O66 C64 1.270 . S
C67 O60 1.262 . S
C67 O68 1.232 . S
O68 C67 1.232 . S
C69 O61 1.260 . S
C69 O62 1.257 . S
Zn70 O73 2.031 . S
Zn70 O75 2.049 . S
Zn70 O80 2.067 . S
Zn71 O72 1.962 . S
Zn71 O74 1.986 . S
Zn71 O76 1.996 . S
Zn71 O79 1.943 . S
O72 Zn71 1.962 . S
O72 C77 1.254 . S
O73 Zn70 2.031 . S
O73 C77 1.269 . S
O74 Zn71 1.986 . S
O74 C81 1.262 . S
O75 Zn70 2.049 . S
O75 C83 1.260 . S
O76 Zn71 1.996 . S
O76 C83 1.257 . S
C77 O72 1.254 . S
C77 O73 1.269 . S
C78 O79 1.249 . S
C78 O80 1.270 . S
O79 Zn71 1.943 . S
O79 C78 1.249 . S
O80 Zn70 2.067 . S
O80 C78 1.270 . S
C81 O74 1.262 . S
C81 O82 1.232 . S
O82 C81 1.232 . S
C83 O75 1.260 . S
C83 O76 1.257 . S
Zn84 O87 2.031 . S
Zn84 O89 2.049 . S
Zn84 O94 2.067 . S
Zn85 O86 1.962 . S
Zn85 O88 1.986 . S
Zn85 O90 1.996 . S
Zn85 O93 1.943 . S
O86 Zn85 1.962 . S
O86 C91 1.254 . S
O87 Zn84 2.031 . S
O87 C91 1.269 . S
O88 Zn85 1.986 . S
O88 C95 1.262 . S
O89 Zn84 2.049 . S
O89 C97 1.260 . S
O90 Zn85 1.996 . S
O90 C97 1.257 . S
C91 O86 1.254 . S
C91 O87 1.269 . S
C92 O93 1.249 . S
C92 O94 1.270 . S
O93 Zn85 1.943 . S
O93 C92 1.249 . S
O94 Zn84 2.067 . S
O94 C92 1.270 . S
C95 O88 1.262 . S
C95 O96 1.232 . S
O96 C95 1.232 . S
C97 O89 1.260 . S
C97 O90 1.257 . S
Zn98 O101 2.031 . S
Zn98 O103 2.049 . S
Zn98 O108 2.067 . S
Zn99 O100 1.962 . S
Zn99 O102 1.986 . S
Zn99 O104 1.996 . S
Zn99 O107 1.943 . S
O100 Zn99 1.962 . S
O100 C105 1.254 . S
O101 Zn98 2.031 . S
O101 C105 1.269 . S
O102 Zn99 1.986 . S
O102 C109 1.262 . S
O103 Zn98 2.049 . S
O103 C111 1.260 . S
O104 Zn99 1.996 . S
O104 C111 1.257 . S
C105 O100 1.254 . S
C105 O101 1.269 . S
C106 O107 1.249 . S
C106 O108 1.270 . S
O107 Zn99 1.943 . S
O107 C106 1.249 . S
O108 Zn98 2.067 . S
O108 C106 1.270 . S
C109 O102 1.262 . S
C109 O110 1.232 . S
O110 C109 1.232 . S
C111 O103 1.260 . S
C111 O104 1.257 . S
Zn112 O115 2.031 . S
Zn112 O117 2.049 . S
Zn112 O122 2.067 . S
Zn113 O114 1.962 . S
Zn113 O116 1.986 . S
Zn113 O118 1.996 . S
Zn113 O121 1.943 . S
O114 Zn113 1.962 . S
O114 C119 1.254 . S
O115 Zn112 2.031 . S
O115 C119 1.269 . S
O116 Zn113 1.986 . S
O116 C123 1.262 . S
O117 Zn112 2.049 . S
O117 C125 1.260 . S
O118 Zn113 1.996 . S
O118 C125 1.257 . S
C119 O114 1.254 . S
C119 O115 1.269 . S
C120 O121 1.249 . S
C120 O122 1.270 . S
O121 Zn113 1.943 . S
O121 C120 1.249 . S
O122 Zn112 2.067 . S
O122 C120 1.270 . S
C123 O116 1.262 . S
C123 O124 1.232 . S
O124 C123 1.232 . S
C125 O117 1.260 . S
C125 O118 1.257 . S
Zn126 O129 2.031 . S
Zn126 O131 2.049 . S
Zn126 O136 2.067 . S
Zn127 O128 1.962 . S
Zn127 O130 1.986 . S
Zn127 O132 1.996 . S
Zn127 O135 1.943 . S
O128 Zn127 1.962 . S
O128 C133 1.254 . S
O129 Zn126 2.031 . S
O129 C133 1.269 . S
O130 Zn127 1.986 . S
O130 C137 1.262 . S
O131 Zn126 2.049 . S
O131 C139 1.260 . S
O132 Zn127 1.996 . S
O132 C139 1.257 . S
C133 O128 1.254 . S
C133 O129 1.269 . S
C134 O135 1.249 . S
C134 O136 1.270 . S
O135 Zn127 1.943 . S
O135 C134 1.249 . S
O136 Zn126 2.067 . S
O136 C134 1.270 . S
C137 O130 1.262 . S
C137 O138 1.232 . S
O138 C137 1.232 . S
C139 O131 1.260 . S
C139 O132 1.257 . S
Zn140 O143 2.031 . S
Zn140 O145 2.049 . S
Zn140 O150 2.067 . S
Zn141 O142 1.962 . S
Zn141 O144 1.986 . S
Zn141 O146 1.996 . S
Zn141 O149 1.943 . S
O142 Zn141 1.962 . S
O142 C147 1.254 . S
O143 Zn140 2.031 . S
O143 C147 1.269 . S
O144 Zn141 1.986 . S
O144 C151 1.262 . S
O145 Zn140 2.049 . S
O145 C153 1.260 . S
O146 Zn141 1.996 . S
O146 C153 1.257 . S
C147 O142 1.254 . S
C147 O143 1.269 . S
C148 O149 1.249 . S
C148 O150 1.270 . S
O149 Zn141 1.943 . S
O149 C148 1.249 . S
O150 Zn140 2.067 . S
O150 C148 1.270 . S
C151 O144 1.262 . S
C151 O152 1.232 . S
O152 C151 1.232 . S
C153 O145 1.260 . S
C153 O146 1.257 . S
Zn154 O157 2.031 . S
Zn154 O159 2.049 . S
Zn154 O164 2.067 . S
Zn155 O156 1.962 . S
Zn155 O158 1.986 . S
Zn155 O160 1.996 . S
Zn155 O163 1.943 . S
O156 Zn155 1.962 . S
O156 C161 1.254 . S
O157 Zn154 2.031 . S
O157 C161 1.269 . S
O158 Zn155 1.986 . S
O158 C165 1.262 . S
O159 Zn154 2.049 . S
O159 C167 1.260 . S
O160 Zn155 1.996 . S
O160 C167 1.257 . S
C161 O156 1.254 . S
C161 O157 1.269 . S
C162 O163 1.249 . S
C162 O164 1.270 . S
O163 Zn155 1.943 . S
O163 C162 1.249 . S
O164 Zn154 2.067 . S
O164 C162 1.270 . S
C165 O158 1.262 . S
C165 O166 1.232 . S
O166 C165 1.232 . S
C167 O159 1.260 . S
C167 O160 1.257 . S
Zn168 O171 2.031 . S
Zn168 O173 2.049 . S
Zn168 O178 2.067 . S
Zn169 O170 1.962 . S
Zn169 O172 1.986 . S
Zn169 O174 1.996 . S
Zn169 O177 1.943 . S
O170 Zn169 1.962 . S
O170 C175 1.254 . S
O171 Zn168 2.031 . S
O171 C175 1.269 . S
O172 Zn169 1.986 . S
O172 C179 1.262 . S
O173 Zn168 2.049 . S
O173 C181 1.260 . S
O174 Zn169 1.996 . S
O174 C181 1.257 . S
C175 O170 1.254 . S
C175 O171 1.269 . S
C176 O177 1.249 . S
C176 O178 1.270 . S
O177 Zn169 1.943 . S
O177 C176 1.249 . S
O178 Zn168 2.067 . S
O178 C176 1.270 . S
C179 O172 1.262 . S
C179 O180 1.232 . S
O180 C179 1.232 . S
C181 O173 1.260 . S
C181 O174 1.257 . S
Zn182 O185 2.031 . S
Zn182 O187 2.049 . S
Zn182 O192 2.067 . S
Zn183 O184 1.962 . S
Zn183 O186 1.986 . S
Zn183 O188 1.996 . S
Zn183 O191 1.943 . S
O184 Zn183 1.962 . S
O184 C189 1.254 . S
O185 Zn182 2.031 . S
O185 C189 1.269 . S
O186 Zn183 1.986 . S
O186 C193 1.262 . S
O187 Zn182 2.049 . S
O187 C195 1.260 . S
O188 Zn183 1.996 . S
O188 C195 1.257 . S
C189 O184 1.254 . S
C189 O185 1.269 . S
C190 O191 1.249 . S
C190 O192 1.270 . S
O191 Zn183 1.943 . S
O191 C190 1.249 . S
O192 Zn182 2.067 . S
O192 C190 1.270 . S
C193 O186 1.262 . S
C193 O194 1.232 . S
O194 C193 1.232 . S
C195 O187 1.260 . S
C195 O188 1.257 . S
Zn196 O199 2.031 . S
Zn196 O201 2.049 . S
Zn196 O206 2.067 . S
Zn197 O198 1.962 . S
Zn197 O200 1.986 . S
Zn197 O202 1.996 . S
Zn197 O205 1.943 . S
O198 Zn197 1.962 . S
O198 C203 1.254 . S
O199 Zn196 2.031 . S
O199 C203 1.269 . S
O200 Zn197 1.986 . S
O200 C207 1.262 . S
O201 Zn196 2.049 . S
O201 C209 1.260 . S
O202 Zn197 1.996 . S
O202 C209 1.257 . S
C203 O198 1.254 . S
C203 O199 1.269 . S
C204 O205 1.249 . S
C204 O206 1.270 . S
O205 Zn197 1.943 . S
O205 C204 1.249 . S
O206 Zn196 2.067 . S
O206 C204 1.270 . S
C207 O200 1.262 . S
C207 O208 1.232 . S
O208 C207 1.232 . S
C209 O201 1.260 . S
C209 O202 1.257 . S
Zn210 O213 2.031 . S
Zn210 O215 2.049 . S
Zn210 O220 2.067 . S
Zn211 O212 1.962 . S
Zn211 O214 1.986 . S
Zn211 O216 1.996 . S
Zn211 O219 1.943 . S
O212 Zn211 1.962 . S
O212 C217 1.254 . S
O213 Zn210 2.031 . S
O213 C217 1.269 . S
O214 Zn211 1.986 . S
O214 C221 1.262 . S
O215 Zn210 2.049 . S
O215 C223 1.260 . S
O216 Zn211 1.996 . S
O216 C223 1.257 . S
C217 O212 1.254 . S
C217 O213 1.269 . S
C218 O219 1.249 . S
C218 O220 1.270 . S
O219 Zn211 1.943 . S
O219 C218 1.249 . S
O220 Zn210 2.067 . S
O220 C218 1.270 . S
C221 O214 1.262 . S
C221 O222 1.232 . S
O222 C221 1.232 . S
C223 O215 1.260 . S
C223 O216 1.257 . S
Zn224 O227 2.031 . S
Zn224 O229 2.049 . S
Zn224 O234 2.067 . S
Zn225 O226 1.962 . S
Zn225 O228 1.986 . S
Zn225 O230 1.996 . S
Zn225 O233 1.943 . S
O226 Zn225 1.962 . S
O226 C231 1.254 . S
O227 Zn224 2.031 . S
O227 C231 1.269 . S
O228 Zn225 1.986 . S
O228 C235 1.262 . S
O229 Zn224 2.049 . S
O229 C237 1.260 . S
O230 Zn225 1.996 . S
O230 C237 1.257 . S
C231 O226 1.254 . S
C231 O227 1.269 . S
C232 O233 1.249 . S
C232 O234 1.270 . S
O233 Zn225 1.943 . S
O233 C232 1.249 . S
O234 Zn224 2.067 . S
O234 C232 1.270 . S
C235 O228 1.262 . S
C235 O236 1.232 . S
O236 C235 1.232 . S
C237 O229 1.260 . S
C237 O230 1.257 . S
Zn238 O241 2.031 . S
Zn238 O243 2.049 . S
Zn238 O248 2.067 . S
Zn239 O240 1.962 . S
Zn239 O242 1.986 . S
Zn239 O244 1.996 . S
Zn239 O247 1.943 . S
O240 Zn239 1.962 . S
O240 C245 1.254 . S
O241 Zn238 2.031 . S
O241 C245 1.269 . S
O242 Zn239 1.986 . S
O242 C249 1.262 . S
O243 Zn238 2.049 . S
O243 C251 1.260 . S
O244 Zn239 1.996 . S
O244 C251 1.257 . S
C245 O240 1.254 . S
C245 O241 1.269 . S
C246 O247 1.249 . S
C246 O248 1.270 . S
O247 Zn239 1.943 . S
O247 C246 1.249 . S
O248 Zn238 2.067 . S
O248 C246 1.270 . S
C249 O242 1.262 . S
C249 O250 1.232 . S
O250 C249 1.232 . S
C251 O243 1.260 . S
C251 O244 1.257 . S
Zn252 O255 2.031 . S
Zn252 O257 2.049 . S
Zn252 O262 2.067 . S
Zn253 O254 1.962 . S
Zn253 O256 1.986 . S
Zn253 O258 1.996 . S
Zn253 O261 1.943 . S
O254 Zn253 1.962 . S
O254 C259 1.254 . S
O255 Zn252 2.031 . S
O255 C259 1.269 . S
O256 Zn253 1.986 . S
O256 C263 1.262 . S
O257 Zn252 2.049 . S
O257 C265 1.260 . S
O258 Zn253 1.996 . S
O258 C265 1.257 . S
C259 O254 1.254 . S
C259 O255 1.269 . S
C260 O261 1.249 . S
C260 O262 1.270 . S
O261 Zn253 1.943 . S
O261 C260 1.249 . S
O262 Zn252 2.067 . S
O262 C260 1.270 . S
C263 O256 1.262 . S
C263 O264 1.232 . S
O264 C263 1.232 . S
C265 O257 1.260 . S
C265 O258 1.257 . S
Zn266 O269 2.031 . S
Zn266 O271 2.049 . S
Zn266 O276 2.067 . S
Zn267 O268 1.962 . S
Zn267 O270 1.986 . S
Zn267 O272 1.996 . S
Zn267 O275 1.943 . S
O268 Zn267 1.962 . S
O268 C273 1.254 . S
O269 Zn266 2.031 . S
O269 C273 1.269 . S
O270 Zn267 1.986 . S
O270 C277 1.262 . S
O271 Zn266 2.049 . S
O271 C279 1.260 . S
O272 Zn267 1.996 . S
O272 C279 1.257 . S
C273 O268 1.254 . S
C273 O269 1.269 . S
C274 O275 1.249 . S
C274 O276 1.270 . S
O275 Zn267 1.943 . S
O275 C274 1.249 . S
O276 Zn266 2.067 . S
O276 C274 1.270 . S
C277 O270 1.262 . S
C277 O278 1.232 . S
O278 C277 1.232 . S
C279 O271 1.260 . S
C279 O272 1.257 . S
Zn280 O283 2.031 . S
Zn280 O285 2.049 . S
Zn280 O290 2.067 . S
Zn281 O282 1.962 . S
Zn281 O284 1.986 . S
Zn281 O286 1.996 . S
Zn281 O289 1.943 . S
O282 Zn281 1.962 . S
O282 C287 1.254 . S
O283 Zn280 2.031 . S
O283 C287 1.269 . S
O284 Zn281 1.986 . S
O284 C291 1.262 . S
O285 Zn280 2.049 . S
O285 C293 1.260 . S
O286 Zn281 1.996 . S
O286 C293 1.257 . S
C287 O282 1.254 . S
C287 O283 1.269 . S
C288 O289 1.249 . S
C288 O290 1.270 . S
O289 Zn281 1.943 . S
O289 C288 1.249 . S
O290 Zn280 2.067 . S
O290 C288 1.270 . S
C291 O284 1.262 . S
C291 O292 1.232 . S
O292 C291 1.232 . S
C293 O285 1.260 . S
C293 O286 1.257 . S
Zn294 O297 2.031 . S
Zn294 O299 2.049 . S
Zn294 O304 2.067 . S
Zn295 O296 1.962 . S
Zn295 O298 1.986 . S
Zn295 O300 1.996 . S
Zn295 O303 1.943 . S
O296 Zn295 1.962 . S
O296 C301 1.254 . S
O297 Zn294 2.031 . S
O297 C301 1.269 . S
O298 Zn295 1.986 . S
O298 C305 1.262 . S
O299 Zn294 2.049 . S
O299 C307 1.260 . S
O300 Zn295 1.996 . S
O300 C307 1.257 . S
C301 O296 1.254 . S
C301 O297 1.269 . S
C302 O303 1.249 . S
C302 O304 1.270 . S
O303 Zn295 1.943 . S
O303 C302 1.249 . S
O304 Zn294 2.067 . S
O304 C302 1.270 . S
C305 O298 1.262 . S
C305 O306 1.232 . S
O306 C305 1.232 . S
C307 O299 1.260 . S
C307 O300 1.257 . S
Zn308 O311 2.031 . S
Zn308 O313 2.049 . S
Zn308 O318 2.067 . S
Zn309 O310 1.962 . S
Zn309 O312 1.986 . S
Zn309 O314 1.996 . S
Zn309 O317 1.943 . S
O310 Zn309 1.962 . S
O310 C315 1.254 . S
O311 Zn308 2.031 . S
O311 C315 1.269 . S
O312 Zn309 1.986 . S
O312 C319 1.262 . S
O313 Zn308 2.049 . S
O313 C321 1.260 . S
O314 Zn309 1.996 . S
O314 C321 1.257 . S
C315 O310 1.254 . S
C315 O311 1.269 . S
C316 O317 1.249 . S
C316 O318 1.270 . S
O317 Zn309 1.943 . S
O317 C316 1.249 . S
O318 Zn308 2.067 . S
O318 C316 1.270 . S
C319 O312 1.262 . S
C319 O320 1.232 . S
O320 C319 1.232 . S
C321 O313 1.260 . S
C321 O314 1.257 . S
Zn322 O325 2.031 . S
Zn322 O327 2.049 . S
Zn322 O332 2.067 . S
Zn323 O324 1.962 . S
Zn323 O326 1.986 . S
Zn323 O328 1.996 . S
Zn323 O331 1.943 . S
O324 Zn323 1.962 . S
O324 C329 1.254 . S
O325 Zn322 2.031 . S
O325 C329 1.269 . S
O326 Zn323 1.986 . S
O326 C333 1.262 . S
O327 Zn322 2.049 . S
O327 C335 1.260 . S
O328 Zn323 1.996 . S
O328 C335 1.257 . S
C329 O324 1.254 . S
C329 O325 1.269 . S
C330 O331 1.249 . S
C330 O332 1.270 . S
O331 Zn323 1.943 . S
O331 C330 1.249 . S
O332 Zn322 2.067 . S
O332 C330 1.270 . S
C333 O326 1.262 . S
C333 O334 1.232 . S
O334 C333 1.232 . S
C335 O327 1.260 . S
C335 O328 1.257 . S
Zn336 O339 2.031 . S
Zn336 O341 2.049 . S
Zn336 O346 2.067 . S
Zn337 O338 1.962 . S
Zn337 O340 1.986 . S
Zn337 O342 1.996 . S
Zn337 O345 1.943 . S
O338 Zn337 1.962 . S
O338 C343 1.254 . S
O339 Zn336 2.031 . S
O339 C343 1.269 . S
O340 Zn337 1.986 . S
O340 C347 1.262 . S
O341 Zn336 2.049 . S
O341 C349 1.260 . S
O342 Zn337 1.996 . S
O342 C349 1.257 . S
C343 O338 1.254 . S
C343 O339 1.269 . S
C344 O345 1.249 . S
C344 O346 1.270 . S
O345 Zn337 1.943 . S
O345 C344 1.249 . S
O346 Zn336 2.067 . S
O346 C344 1.270 . S
C347 O340 1.262 . S
C347 O348 1.232 . S
O348 C347 1.232 . S
C349 O341 1.260 . S
C349 O342 1.257 . S
Zn350 O353 2.031 . S
Zn350 O355 2.049 . S
Zn350 O360 2.067 . S
Zn351 O352 1.962 . S
Zn351 O354 1.986 . S
Zn351 O356 1.996 . S
Zn351 O359 1.943 . S
O352 Zn351 1.962 . S
O352 C357 1.254 . S
O353 Zn350 2.031 . S
O353 C357 1.269 . S
O354 Zn351 1.986 . S
O354 C361 1.262 . S
O355 Zn350 2.049 . S
O355 C363 1.260 . S
O356 Zn351 1.996 . S
O356 C363 1.257 . S
C357 O352 1.254 . S
C357 O353 1.269 . S
C358 O359 1.249 . S
C358 O360 1.270 . S
O359 Zn351 1.943 . S
O359 C358 1.249 . S
O360 Zn350 2.067 . S
O360 C358 1.270 . S
C361 O354 1.262 . S
C361 O362 1.232 . S
O362 C361 1.232 . S
C363 O355 1.260 . S
C363 O356 1.257 . S
Zn364 O367 2.031 . S
Zn364 O369 2.049 . S
Zn364 O374 2.067 . S
Zn365 O366 1.962 . S
Zn365 O368 1.986 . S
Zn365 O370 1.996 . S
Zn365 O373 1.943 . S
O366 Zn365 1.962 . S
O366 C371 1.254 . S
O367 Zn364 2.031 . S
O367 C371 1.269 . S
O368 Zn365 1.986 . S
O368 C375 1.262 . S
O369 Zn364 2.049 . S
O369 C377 1.260 . S
O370 Zn365 1.996 . S
O370 C377 1.257 . S
C371 O366 1.254 . S
C371 O367 1.269 . S
C372 O373 1.249 . S
C372 O374 1.270 . S
O373 Zn365 1.943 . S
O373 C372 1.249 . S
O374 Zn364 2.067 . S
O374 C372 1.270 . S
C375 O368 1.262 . S
C375 O376 1.232 . S
O376 C375 1.232 . S
C377 O369 1.260 . S
C377 O370 1.257 . S
Zn378 O381 2.031 . S
Zn378 O383 2.049 . S
Zn378 O388 2.067 . S
Zn379 O380 1.962 . S
Zn379 O382 1.986 . S
Zn379 O384 1.996 . S
Zn379 O387 1.943 . S
O380 Zn379 1.962 . S
O380 C385 1.254 . S
O381 Zn378 2.031 . S
O381 C385 1.269 . S
O382 Zn379 1.986 . S
O382 C389 1.262 . S
O383 Zn378 2.049 . S
O383 C391 1.260 . S
O384 Zn379 1.996 . S
O384 C391 1.257 . S
C385 O380 1.254 . S
C385 O381 1.269 . S
C386 O387 1.249 . S
C386 O388 1.270 . S
O387 Zn379 1.943 . S
O387 C386 1.249 . S
O388 Zn378 2.067 . S
O388 C386 1.270 . S
C389 O382 1.262 . S
C389 O390 1.232 . S
O390 C389 1.232 . S
C391 O383 1.260 . S
C391 O384 1.257 . S
Zn392 O395 2.031 . S
Zn392 O397 2.049 . S
Zn392 O402 2.067 . S
Zn393 O394 1.962 . S
Zn393 O396 1.986 . S
Zn393 O398 1.996 . S
Zn393 O401 1.943 . S
O394 Zn393 1.962 . S
O394 C399 1.254 . S
O395 Zn392 2.031 . S
O395 C399 1.269 . S
O396 Zn393 1.986 . S
O396 C403 1.262 . S
O397 Zn392 2.049 . S
O397 C405 1.260 . S
O398 Zn393 1.996 . S
O398 C405 1.257 . S
C399 O394 1.254 . S
C399 O395 1.269 . S
C400 O401 1.249 . S
C400 O402 1.270 . S
O401 Zn393 1.943 . S
O401 C400 1.249 . S
O402 Zn392 2.067 . S
O402 C400 1.270 . S
C403 O396 1.262 . S
C403 O404 1.232 . S
O404 C403 1.232 . S
C405 O397 1.260 . S
C405 O398 1.257 . S
Zn406 O409 2.031 . S
Zn406 O411 2.049 . S
Zn406 O416 2.067 . S
Zn407 O408 1.962 . S
Zn407 O410 1.986 . S
Zn407 O412 1.996 . S
Zn407 O415 1.943 . S
O408 Zn407 1.962 . S
O408 C413 1.254 . S
O409 Zn406 2.031 . S
O409 C413 1.269 . S
O410 Zn407 1.986 . S
O410 C417 1.262 . S
O411 Zn406 2.049 . S
O411 C419 1.260 . S
O412 Zn407 1.996 . S
O412 C419 1.257 . S
C413 O408 1.254 . S
C413 O409 1.269 . S
C414 O415 1.249 . S
C414 O416 1.270 . S
O415 Zn407 1.943 . S
O415 C414 1.249 . S
O416 Zn406 2.067 . S
O416 C414 1.270 . S
C417 O410 1.262 . S
C417 O418 1.232 . S
O418 C417 1.232 . S
C419 O411 1.260 . S
C419 O412 1.257 . S
Zn420 O423 2.031 . S
Zn420 O425 2.049 . S
Zn420 O430 2.067 . S
Zn421 O422 1.962 . S
Zn421 O424 1.986 . S
Zn421 O426 1.996 . S
Zn421 O429 1.943 . S
O422 Zn421 1.962 . S
O422 C427 1.254 . S
O423 Zn420 2.031 . S
O423 C427 1.269 . S
O424 Zn421 1.986 . S
O424 C431 1.262 . S
O425 Zn420 2.049 . S
O425 C433 1.260 . S
O426 Zn421 1.996 . S
O426 C433 1.257 . S
C427 O422 1.254 . S
C427 O423 1.269 . S
C428 O429 1.249 . S
C428 O430 1.270 . S
O429 Zn421 1.943 . S
O429 C428 1.249 . S
O430 Zn420 2.067 . S
O430 C428 1.270 . S
C431 O424 1.262 . S
C431 O432 1.232 . S
O432 C431 1.232 . S
C433 O425 1.260 . S
C433 O426 1.257 . S
Zn434 O437 2.031 . S
Zn434 O439 2.049 . S
Zn434 O444 2.067 . S
Zn435 O436 1.962 . S
Zn435 O438 1.986 . S
Zn435 O440 1.996 . S
Zn435 O443 1.943 . S
O436 Zn435 1.962 . S
O436 C441 1.254 . S
O437 Zn434 2.031 . S
O437 C441 1.269 . S
O438 Zn435 1.986 . S
O438 C445 1.262 . S
O439 Zn434 2.049 . S
O439 C447 1.260 . S
O440 Zn435 1.996 . S
O440 C447 1.257 . S
C441 O436 1.254 . S
C441 O437 1.269 . S
C442 O443 1.249 . S
C442 O444 1.270 . S
O443 Zn435 1.943 . S
O443 C442 1.249 . S
O444 Zn434 2.067 . S
O444 C442 1.270 . S
C445 O438 1.262 . S
C445 O446 1.232 . S
O446 C445 1.232 . S
C447 O439 1.260 . S
C447 O440 1.257 . S
H448 C454 0.930 . S
H449 C457 0.930 . S
H450 C458 0.930 . S
H451 C459 0.930 . S
H452 C462 0.930 . S
H453 C463 0.930 . S
C454 H448 0.930 . S
C454 C455 1.355 . S
C454 C456 1.415 . S
C455 C454 1.355 . S
C455 C457 1.419 . S
C456 C454 1.415 . S
C456 C461 1.425 . S
C456 C463 1.409 . S
C457 H449 0.930 . S
C457 C455 1.419 . S
C457 C458 1.362 . S
C458 H450 0.930 . S
C458 C457 1.362 . S
C458 C461 1.409 . S
C459 H451 0.930 . S
C459 C460 1.355 . S
C459 C461 1.415 . S
C460 C459 1.355 . S
C460 C462 1.419 . S
C461 C456 1.425 . S
C461 C458 1.409 . S
C461 C459 1.415 . S
C462 H452 0.930 . S
C462 C460 1.419 . S
C462 C463 1.362 . S
C463 H453 0.930 . S
C463 C456 1.409 . S
C463 C462 1.362 . S
H464 C470 0.930 . S
H465 C473 0.930 . S
H466 C474 0.930 . S
H467 C475 0.930 . S
H468 C478 0.930 . S
H469 C479 0.930 . S
C470 H464 0.930 . S
C470 C471 1.355 . S
C470 C472 1.415 . S
C471 C470 1.355 . S
C471 C473 1.419 . S
C472 C470 1.415 . S
C472 C477 1.425 . S
C472 C479 1.409 . S
C473 H465 0.930 . S
C473 C471 1.419 . S
C473 C474 1.362 . S
C474 H466 0.930 . S
C474 C473 1.362 . S
C474 C477 1.409 . S
C475 H467 0.930 . S
C475 C476 1.355 . S
C475 C477 1.415 . S
C476 C475 1.355 . S
C476 C478 1.419 . S
C477 C472 1.425 . S
C477 C474 1.409 . S
C477 C475 1.415 . S
C478 H468 0.930 . S
C478 C476 1.419 . S
C478 C479 1.362 . S
C479 H469 0.930 . S
C479 C472 1.409 . S
C479 C478 1.362 . S
H480 C486 0.930 . S
H481 C489 0.930 . S
H482 C490 0.930 . S
H483 C491 0.930 . S
H484 C494 0.930 . S
H485 C495 0.930 . S
C486 H480 0.930 . S
C486 C487 1.355 . S
C486 C488 1.415 . S
C487 C486 1.355 . S
C487 C489 1.419 . S
C488 C486 1.415 . S
C488 C493 1.425 . S
C488 C495 1.409 . S
C489 H481 0.930 . S
C489 C487 1.419 . S
C489 C490 1.362 . S
C490 H482 0.930 . S
C490 C489 1.362 . S
C490 C493 1.409 . S
C491 H483 0.930 . S
C491 C492 1.355 . S
C491 C493 1.415 . S
C492 C491 1.355 . S
C492 C494 1.419 . S
C493 C488 1.425 . S
C493 C490 1.409 . S
C493 C491 1.415 . S
C494 H484 0.930 . S
C494 C492 1.419 . S
C494 C495 1.362 . S
C495 H485 0.930 . S
C495 C488 1.409 . S
C495 C494 1.362 . S
H496 C502 0.930 . S
H497 C505 0.930 . S
H498 C506 0.930 . S
H499 C507 0.930 . S
H500 C510 0.930 . S
H501 C511 0.930 . S
C502 H496 0.930 . S
C502 C503 1.355 . S
C502 C504 1.415 . S
C503 C502 1.355 . S
C503 C505 1.419 . S
C504 C502 1.415 . S
C504 C509 1.425 . S
C504 C511 1.409 . S
C505 H497 0.930 . S
C505 C503 1.419 . S
C505 C506 1.362 . S
C506 H498 0.930 . S
C506 C505 1.362 . S
C506 C509 1.409 . S
C507 H499 0.930 . S
C507 C508 1.355 . S
C507 C509 1.415 . S
C508 C507 1.355 . S
C508 C510 1.419 . S
C509 C504 1.425 . S
C509 C506 1.409 . S
C509 C507 1.415 . S
C510 H500 0.930 . S
C510 C508 1.419 . S
C510 C511 1.362 . S
C511 H501 0.930 . S
C511 C504 1.409 . S
C511 C510 1.362 . S
H512 C518 0.930 . S
H513 C521 0.930 . S
H514 C522 0.930 . S
H515 C523 0.930 . S
H516 C526 0.930 . S
H517 C527 0.930 . S
C518 H512 0.930 . S
C518 C519 1.355 . S
C518 C520 1.415 . S
C519 C518 1.355 . S
C519 C521 1.419 . S
C520 C518 1.415 . S
C520 C525 1.425 . S
C520 C527 1.409 . S
C521 H513 0.930 . S
C521 C519 1.419 . S
C521 C522 1.362 . S
C522 H514 0.930 . S
C522 C521 1.362 . S
C522 C525 1.409 . S
C523 H515 0.930 . S
C523 C524 1.355 . S
C523 C525 1.415 . S
C524 C523 1.355 . S
C524 C526 1.419 . S
C525 C520 1.425 . S
C525 C522 1.409 . S
C525 C523 1.415 . S
C526 H516 0.930 . S
C526 C524 1.419 . S
C526 C527 1.362 . S
C527 H517 0.930 . S
C527 C520 1.409 . S
C527 C526 1.362 . S
H528 C534 0.930 . S
H529 C537 0.930 . S
H530 C538 0.930 . S
H531 C539 0.930 . S
H532 C542 0.930 . S
H533 C543 0.930 . S
C534 H528 0.930 . S
C534 C535 1.355 . S
C534 C536 1.415 . S
C535 C534 1.355 . S
C535 C537 1.419 . S
C536 C534 1.415 . S
C536 C541 1.425 . S
C536 C543 1.409 . S
C537 H529 0.930 . S
C537 C535 1.419 . S
C537 C538 1.362 . S
C538 H530 0.930 . S
C538 C537 1.362 . S
C538 C541 1.409 . S
C539 H531 0.930 . S
C539 C540 1.355 . S
C539 C541 1.415 . S
C540 C539 1.355 . S
C540 C542 1.419 . S
C541 C536 1.425 . S
C541 C538 1.409 . S
C541 C539 1.415 . S
C542 H532 0.930 . S
C542 C540 1.419 . S
C542 C543 1.362 . S
C543 H533 0.930 . S
C543 C536 1.409 . S
C543 C542 1.362 . S
H544 C550 0.930 . S
H545 C553 0.930 . S
H546 C554 0.930 . S
H547 C555 0.930 . S
H548 C558 0.930 . S
H549 C559 0.930 . S
C550 H544 0.930 . S
C550 C551 1.355 . S
C550 C552 1.415 . S
C551 C550 1.355 . S
C551 C553 1.419 . S
C552 C550 1.415 . S
C552 C557 1.425 . S
C552 C559 1.409 . S
C553 H545 0.930 . S
C553 C551 1.419 . S
C553 C554 1.362 . S
C554 H546 0.930 . S
C554 C553 1.362 . S
C554 C557 1.409 . S
C555 H547 0.930 . S
C555 C556 1.355 . S
C555 C557 1.415 . S
C556 C555 1.355 . S
C556 C558 1.419 . S
C557 C552 1.425 . S
C557 C554 1.409 . S
C557 C555 1.415 . S
C558 H548 0.930 . S
C558 C556 1.419 . S
C558 C559 1.362 . S
C559 H549 0.930 . S
C559 C552 1.409 . S
C559 C558 1.362 . S
H560 C566 0.930 . S
H561 C569 0.930 . S
H562 C570 0.930 . S
H563 C571 0.930 . S
H564 C574 0.930 . S
H565 C575 0.930 . S
C566 H560 0.930 . S
C566 C567 1.355 . S
C566 C568 1.415 . S
C567 C566 1.355 . S
C567 C569 1.419 . S
C568 C566 1.415 . S
C568 C573 1.425 . S
C568 C575 1.409 . S
C569 H561 0.930 . S
C569 C567 1.419 . S
C569 C570 1.362 . S
C570 H562 0.930 . S
C570 C569 1.362 . S
C570 C573 1.409 . S
C571 H563 0.930 . S
C571 C572 1.355 . S
C571 C573 1.415 . S
C572 C571 1.355 . S
C572 C574 1.419 . S
C573 C568 1.425 . S
C573 C570 1.409 . S
C573 C571 1.415 . S
C574 H564 0.930 . S
C574 C572 1.419 . S
C574 C575 1.362 . S
C575 H565 0.930 . S
C575 C568 1.409 . S
C575 C574 1.362 . S
H576 C582 0.930 . S
H577 C585 0.930 . S
H578 C586 0.930 . S
H579 C587 0.930 . S
H580 C590 0.930 . S
H581 C591 0.930 . S
C582 H576 0.930 . S
C582 C583 1.355 . S
C582 C584 1.415 . S
C583 C582 1.355 . S
C583 C585 1.419 . S
C584 C582 1.415 . S
C584 C589 1.425 . S
C584 C591 1.409 . S
C585 H577 0.930 . S
C585 C583 1.419 . S
C585 C586 1.362 . S
C586 H578 0.930 . S
C586 C585 1.362 . S
C586 C589 1.409 . S
C587 H579 0.930 . S
C587 C588 1.355 . S
C587 C589 1.415 . S
C588 C587 1.355 . S
C588 C590 1.419 . S
C589 C584 1.425 . S
C589 C586 1.409 . S
C589 C587 1.415 . S
C590 H580 0.930 . S
C590 C588 1.419 . S
C590 C591 1.362 . S
C591 H581 0.930 . S
C591 C584 1.409 . S
C591 C590 1.362 . S
H592 C598 0.930 . S
H593 C601 0.930 . S
H594 C602 0.930 . S
H595 C603 0.930 . S
H596 C606 0.930 . S
H597 C607 0.930 . S
C598 H592 0.930 . S
C598 C599 1.355 . S
C598 C600 1.415 . S
C599 C598 1.355 . S
C599 C601 1.419 . S
C600 C598 1.415 . S
C600 C605 1.425 . S
C600 C607 1.409 . S
C601 H593 0.930 . S
C601 C599 1.419 . S
C601 C602 1.362 . S
C602 H594 0.930 . S
C602 C601 1.362 . S
C602 C605 1.409 . S
C603 H595 0.930 . S
C603 C604 1.355 . S
C603 C605 1.415 . S
C604 C603 1.355 . S
C604 C606 1.419 . S
C605 C600 1.425 . S
C605 C602 1.409 . S
C605 C603 1.415 . S
C606 H596 0.930 . S
C606 C604 1.419 . S
C606 C607 1.362 . S
C607 H597 0.930 . S
C607 C600 1.409 . S
C607 C606 1.362 . S
H608 C614 0.930 . S
H609 C617 0.930 . S
H610 C618 0.930 . S
H611 C619 0.930 . S
H612 C622 0.930 . S
H613 C623 0.930 . S
C614 H608 0.930 . S
C614 C615 1.355 . S
C614 C616 1.415 . S
C615 C614 1.355 . S
C615 C617 1.419 . S
C616 C614 1.415 . S
C616 C621 1.425 . S
C616 C623 1.409 . S
C617 H609 0.930 . S
C617 C615 1.419 . S
C617 C618 1.362 . S
C618 H610 0.930 . S
C618 C617 1.362 . S
C618 C621 1.409 . S
C619 H611 0.930 . S
C619 C620 1.355 . S
C619 C621 1.415 . S
C620 C619 1.355 . S
C620 C622 1.419 . S
C621 C616 1.425 . S
C621 C618 1.409 . S
C621 C619 1.415 . S
C622 H612 0.930 . S
C622 C620 1.419 . S
C622 C623 1.362 . S
C623 H613 0.930 . S
C623 C616 1.409 . S
C623 C622 1.362 . S
H624 C630 0.930 . S
H625 C633 0.930 . S
H626 C634 0.930 . S
H627 C635 0.930 . S
H628 C638 0.930 . S
H629 C639 0.930 . S
C630 H624 0.930 . S
C630 C631 1.355 . S
C630 C632 1.415 . S
C631 C630 1.355 . S
C631 C633 1.419 . S
C632 C630 1.415 . S
C632 C637 1.425 . S
C632 C639 1.409 . S
C633 H625 0.930 . S
C633 C631 1.419 . S
C633 C634 1.362 . S
C634 H626 0.930 . S
C634 C633 1.362 . S
C634 C637 1.409 . S
C635 H627 0.930 . S
C635 C636 1.355 . S
C635 C637 1.415 . S
C636 C635 1.355 . S
C636 C638 1.419 . S
C637 C632 1.425 . S
C637 C634 1.409 . S
C637 C635 1.415 . S
C638 H628 0.930 . S
C638 C636 1.419 . S
C638 C639 1.362 . S
C639 H629 0.930 . S
C639 C632 1.409 . S
C639 C638 1.362 . S
H640 C646 0.930 . S
H641 C649 0.930 . S
H642 C650 0.930 . S
H643 C651 0.930 . S
H644 C654 0.930 . S
H645 C655 0.930 . S
C646 H640 0.930 . S
C646 C647 1.355 . S
C646 C648 1.415 . S
C647 C646 1.355 . S
C647 C649 1.419 . S
C648 C646 1.415 . S
C648 C653 1.425 . S
C648 C655 1.409 . S
C649 H641 0.930 . S
C649 C647 1.419 . S
C649 C650 1.362 . S
C650 H642 0.930 . S
C650 C649 1.362 . S
C650 C653 1.409 . S
C651 H643 0.930 . S
C651 C652 1.355 . S
C651 C653 1.415 . S
C652 C651 1.355 . S
C652 C654 1.419 . S
C653 C648 1.425 . S
C653 C650 1.409 . S
C653 C651 1.415 . S
C654 H644 0.930 . S
C654 C652 1.419 . S
C654 C655 1.362 . S
C655 H645 0.930 . S
C655 C648 1.409 . S
C655 C654 1.362 . S
H656 C662 0.930 . S
H657 C665 0.930 . S
H658 C666 0.930 . S
H659 C667 0.930 . S
H660 C670 0.930 . S
H661 C671 0.930 . S
C662 H656 0.930 . S
C662 C663 1.355 . S
C662 C664 1.415 . S
C663 C662 1.355 . S
C663 C665 1.419 . S
C664 C662 1.415 . S
C664 C669 1.425 . S
C664 C671 1.409 . S
C665 H657 0.930 . S
C665 C663 1.419 . S
C665 C666 1.362 . S
C666 H658 0.930 . S
C666 C665 1.362 . S
C666 C669 1.409 . S
C667 H659 0.930 . S
C667 C668 1.355 . S
C667 C669 1.415 . S
C668 C667 1.355 . S
C668 C670 1.419 . S
C669 C664 1.425 . S
C669 C666 1.409 . S
C669 C667 1.415 . S
C670 H660 0.930 . S
C670 C668 1.419 . S
C670 C671 1.362 . S
C671 H661 0.930 . S
C671 C664 1.409 . S
C671 C670 1.362 . S
H672 C678 0.930 . S
H673 C681 0.930 . S
H674 C682 0.930 . S
H675 C683 0.930 . S
H676 C686 0.930 . S
H677 C687 0.930 . S
C678 H672 0.930 . S
C678 C679 1.355 . S
C678 C680 1.415 . S
C679 C678 1.355 . S
C679 C681 1.419 . S
C680 C678 1.415 . S
C680 C685 1.425 . S
C680 C687 1.409 . S
C681 H673 0.930 . S
C681 C679 1.419 . S
C681 C682 1.362 . S
C682 H674 0.930 . S
C682 C681 1.362 . S
C682 C685 1.409 . S
C683 H675 0.930 . S
C683 C684 1.355 . S
C683 C685 1.415 . S
C684 C683 1.355 . S
C684 C686 1.419 . S
C685 C680 1.425 . S
C685 C682 1.409 . S
C685 C683 1.415 . S
C686 H676 0.930 . S
C686 C684 1.419 . S
C686 C687 1.362 . S
C687 H677 0.930 . S
C687 C680 1.409 . S
C687 C686 1.362 . S
H688 C694 0.930 . S
H689 C697 0.930 . S
H690 C698 0.930 . S
H691 C699 0.930 . S
H692 C702 0.930 . S
H693 C703 0.930 . S
C694 H688 0.930 . S
C694 C695 1.355 . S
C694 C696 1.415 . S
C695 C694 1.355 . S
C695 C697 1.419 . S
C696 C694 1.415 . S
C696 C701 1.425 . S
C696 C703 1.409 . S
C697 H689 0.930 . S
C697 C695 1.419 . S
C697 C698 1.362 . S
C698 H690 0.930 . S
C698 C697 1.362 . S
C698 C701 1.409 . S
C699 H691 0.930 . S
C699 C700 1.355 . S
C699 C701 1.415 . S
C700 C699 1.355 . S
C700 C702 1.419 . S
C701 C696 1.425 . S
C701 C698 1.409 . S
C701 C699 1.415 . S
C702 H692 0.930 . S
C702 C700 1.419 . S
C702 C703 1.362 . S
C703 H693 0.930 . S
C703 C696 1.409 . S
C703 C702 1.362 . S
H704 C710 0.930 . S
H705 C713 0.930 . S
H706 C714 0.930 . S
H707 C715 0.930 . S
H708 C718 0.930 . S
H709 C719 0.930 . S
C710 H704 0.930 . S
C710 C711 1.355 . S
C710 C712 1.415 . S
C711 C710 1.355 . S
C711 C713 1.419 . S
C712 C710 1.415 . S
C712 C717 1.425 1_554 S
C712 C719 1.409 1_554 S
C713 H705 0.930 . S
C713 C711 1.419 . S
C713 C714 1.362 . S
C714 H706 0.930 . S
C714 C713 1.362 . S
C714 C717 1.409 1_554 S
C715 H707 0.930 . S
C715 C716 1.355 . S
C715 C717 1.415 . S
C716 C715 1.355 . S
C716 C718 1.419 . S
C717 C712 1.425 1_556 S
C717 C714 1.409 1_556 S
C717 C715 1.415 . S
C718 H708 0.930 . S
C718 C716 1.419 . S
C718 C719 1.362 . S
C719 H709 0.930 . S
C719 C712 1.409 1_556 S
C719 C718 1.362 . S
H720 C726 0.930 . S
H721 C729 0.930 . S
H722 C730 0.930 . S
H723 C731 0.930 . S
H724 C734 0.930 . S
H725 C735 0.930 . S
C726 H720 0.930 . S
C726 C727 1.355 . S
C726 C728 1.415 . S
C727 C726 1.355 . S
C727 C729 1.419 . S
C728 C726 1.415 . S
C728 C733 1.425 1_556 S
C728 C735 1.409 1_556 S
C729 H721 0.930 . S
C729 C727 1.419 . S
C729 C730 1.362 . S
C730 H722 0.930 . S
C730 C729 1.362 . S
C730 C733 1.409 1_556 S
C731 H723 0.930 . S
C731 C732 1.355 . S
C731 C733 1.415 . S
C732 C731 1.355 . S
C732 C734 1.419 . S
C733 C728 1.425 1_554 S
C733 C730 1.409 1_554 S
C733 C731 1.415 . S
C734 H724 0.930 . S
C734 C732 1.419 . S
C734 C735 1.362 . S
C735 H725 0.930 . S
C735 C728 1.409 1_554 S
C735 C734 1.362 . S
H736 C742 0.930 . S
H737 C745 0.930 . S
H738 C746 0.930 . S
H739 C747 0.930 . S
H740 C750 0.930 . S
H741 C751 0.930 . S
C742 H736 0.930 . S
C742 C743 1.355 . S
C742 C744 1.415 . S
C743 C742 1.355 . S
C743 C745 1.419 . S
C744 C742 1.415 . S
C744 C749 1.425 1_556 S
C744 C751 1.409 1_556 S
C745 H737 0.930 . S
C745 C743 1.419 . S
C745 C746 1.362 . S
C746 H738 0.930 . S
C746 C745 1.362 . S
C746 C749 1.409 1_556 S
C747 H739 0.930 . S
C747 C748 1.355 . S
C747 C749 1.415 . S
C748 C747 1.355 . S
C748 C750 1.419 . S
C749 C744 1.425 1_554 S
C749 C746 1.409 1_554 S
C749 C747 1.415 . S
C750 H740 0.930 . S
C750 C748 1.419 . S
C750 C751 1.362 . S
C751 H741 0.930 . S
C751 C744 1.409 1_554 S
C751 C750 1.362 . S
H752 C758 0.930 . S
H753 C761 0.930 . S
H754 C762 0.930 . S
H755 C763 0.930 . S
H756 C766 0.930 . S
H757 C767 0.930 . S
C758 H752 0.930 . S
C758 C759 1.355 . S
C758 C760 1.415 . S
C759 C758 1.355 . S
C759 C761 1.419 . S
C760 C758 1.415 . S
C760 C765 1.425 1_556 S
C760 C767 1.409 1_556 S
C761 H753 0.930 . S
C761 C759 1.419 . S
C761 C762 1.362 . S
C762 H754 0.930 . S
C762 C761 1.362 . S
C762 C765 1.409 1_556 S
C763 H755 0.930 . S
C763 C764 1.355 . S
C763 C765 1.415 . S
C764 C763 1.355 . S
C764 C766 1.419 . S
C765 C760 1.425 1_554 S
C765 C762 1.409 1_554 S
C765 C763 1.415 . S
C766 H756 0.930 . S
C766 C764 1.419 . S
C766 C767 1.362 . S
C767 H757 0.930 . S
C767 C760 1.409 1_554 S
C767 C766 1.362 . S
H768 C774 0.930 . S
H769 C777 0.930 . S
H770 C778 0.930 . S
H771 C779 0.930 . S
H772 C782 0.930 . S
H773 C783 0.930 . S
C774 H768 0.930 . S
C774 C775 1.355 . S
C774 C776 1.415 . S
C775 C774 1.355 . S
C775 C777 1.419 . S
C776 C774 1.415 . S
C776 C781 1.425 . S
C776 C783 1.409 . S
C777 H769 0.930 . S
C777 C775 1.419 . S
C777 C778 1.362 . S
C778 H770 0.930 . S
C778 C777 1.362 . S
C778 C781 1.409 . S
C779 H771 0.930 . S
C779 C780 1.355 . S
C779 C781 1.415 . S
C780 C779 1.355 . S
C780 C782 1.419 . S
C781 C776 1.425 . S
C781 C778 1.409 . S
C781 C779 1.415 . S
C782 H772 0.930 . S
C782 C780 1.419 . S
C782 C783 1.362 . S
C783 H773 0.930 . S
C783 C776 1.409 . S
C783 C782 1.362 . S
H784 C790 0.930 . S
H785 C793 0.930 . S
H786 C794 0.930 . S
H787 C795 0.930 . S
H788 C798 0.930 . S
H789 C799 0.930 . S
C790 H784 0.930 . S
C790 C791 1.355 . S
C790 C792 1.415 . S
C791 C790 1.355 . S
C791 C793 1.419 . S
C792 C790 1.415 . S
C792 C797 1.425 . S
C792 C799 1.409 . S
C793 H785 0.930 . S
C793 C791 1.419 . S
C793 C794 1.362 . S
C794 H786 0.930 . S
C794 C793 1.362 . S
C794 C797 1.409 . S
C795 H787 0.930 . S
C795 C796 1.355 . S
C795 C797 1.415 . S
C796 C795 1.355 . S
C796 C798 1.419 . S
C797 C792 1.425 . S
C797 C794 1.409 . S
C797 C795 1.415 . S
C798 H788 0.930 . S
C798 C796 1.419 . S
C798 C799 1.362 . S
C799 H789 0.930 . S
C799 C792 1.409 . S
C799 C798 1.362 . S
H800 C806 0.930 . S
H801 C809 0.930 . S
H802 C810 0.930 . S
H803 C811 0.930 . S
H804 C814 0.930 . S
H805 C815 0.930 . S
C806 H800 0.930 . S
C806 C807 1.355 . S
C806 C808 1.415 . S
C807 C806 1.355 . S
C807 C809 1.419 . S
C808 C806 1.415 . S
C808 C813 1.425 . S
C808 C815 1.409 . S
C809 H801 0.930 . S
C809 C807 1.419 . S
C809 C810 1.362 . S
C810 H802 0.930 . S
C810 C809 1.362 . S
C810 C813 1.409 . S
C811 H803 0.930 . S
C811 C812 1.355 . S
C811 C813 1.415 . S
C812 C811 1.355 . S
C812 C814 1.419 . S
C813 C808 1.425 . S
C813 C810 1.409 . S
C813 C811 1.415 . S
C814 H804 0.930 . S
C814 C812 1.419 . S
C814 C815 1.362 . S
C815 H805 0.930 . S
C815 C808 1.409 . S
C815 C814 1.362 . S
H816 C822 0.930 . S
H817 C825 0.930 . S
H818 C826 0.930 . S
H819 C827 0.930 . S
H820 C830 0.930 . S
H821 C831 0.930 . S
C822 H816 0.930 . S
C822 C823 1.355 . S
C822 C824 1.415 . S
C823 C822 1.355 . S
C823 C825 1.419 . S
C824 C822 1.415 . S
C824 C829 1.425 . S
C824 C831 1.409 . S
C825 H817 0.930 . S
C825 C823 1.419 . S
C825 C826 1.362 . S
C826 H818 0.930 . S
C826 C825 1.362 . S
C826 C829 1.409 . S
C827 H819 0.930 . S
C827 C828 1.355 . S
C827 C829 1.415 . S
C828 C827 1.355 . S
C828 C830 1.419 . S
C829 C824 1.425 . S
C829 C826 1.409 . S
C829 C827 1.415 . S
C830 H820 0.930 . S
C830 C828 1.419 . S
C830 C831 1.362 . S
C831 H821 0.930 . S
C831 C824 1.409 . S
C831 C830 1.362 . S
H832 C838 0.930 . S
H833 C841 0.930 . S
H834 C842 0.930 . S
H835 C843 0.930 . S
H836 C846 0.930 . S
H837 C847 0.930 . S
C838 H832 0.930 . S
C838 C839 1.355 . S
C838 C840 1.415 . S
C839 C838 1.355 . S
C839 C841 1.419 . S
C840 C838 1.415 . S
C840 C845 1.425 . S
C840 C847 1.409 . S
C841 H833 0.930 . S
C841 C839 1.419 . S
C841 C842 1.362 . S
C842 H834 0.930 . S
C842 C841 1.362 . S
C842 C845 1.409 . S
C843 H835 0.930 . S
C843 C844 1.355 . S
C843 C845 1.415 . S
C844 C843 1.355 . S
C844 C846 1.419 . S
C845 C840 1.425 . S
C845 C842 1.409 . S
C845 C843 1.415 . S
C846 H836 0.930 . S
C846 C844 1.419 . S
C846 C847 1.362 . S
C847 H837 0.930 . S
C847 C840 1.409 . S
C847 C846 1.362 . S
H848 C854 0.930 . S
H849 C857 0.930 . S
H850 C858 0.930 . S
H851 C859 0.930 . S
H852 C862 0.930 . S
H853 C863 0.930 . S
C854 H848 0.930 . S
C854 C855 1.355 . S
C854 C856 1.415 . S
C855 C854 1.355 . S
C855 C857 1.419 . S
C856 C854 1.415 . S
C856 C861 1.425 . S
C856 C863 1.409 . S
C857 H849 0.930 . S
C857 C855 1.419 . S
C857 C858 1.362 . S
C858 H850 0.930 . S
C858 C857 1.362 . S
C858 C861 1.409 . S
C859 H851 0.930 . S
C859 C860 1.355 . S
C859 C861 1.415 . S
C860 C859 1.355 . S
C860 C862 1.419 . S
C861 C856 1.425 . S
C861 C858 1.409 . S
C861 C859 1.415 . S
C862 H852 0.930 . S
C862 C860 1.419 . S
C862 C863 1.362 . S
C863 H853 0.930 . S
C863 C856 1.409 . S
C863 C862 1.362 . S
H864 C870 0.930 . S
H865 C873 0.930 . S
H866 C874 0.930 . S
H867 C875 0.930 . S
H868 C878 0.930 . S
H869 C879 0.930 . S
C870 H864 0.930 . S
C870 C871 1.355 . S
C870 C872 1.415 . S
C871 C870 1.355 . S
C871 C873 1.419 . S
C872 C870 1.415 . S
C872 C877 1.425 . S
C872 C879 1.409 . S
C873 H865 0.930 . S
C873 C871 1.419 . S
C873 C874 1.362 . S
C874 H866 0.930 . S
C874 C873 1.362 . S
C874 C877 1.409 . S
C875 H867 0.930 . S
C875 C876 1.355 . S
C875 C877 1.415 . S
C876 C875 1.355 . S
C876 C878 1.419 . S
C877 C872 1.425 . S
C877 C874 1.409 . S
C877 C875 1.415 . S
C878 H868 0.930 . S
C878 C876 1.419 . S
C878 C879 1.362 . S
C879 H869 0.930 . S
C879 C872 1.409 . S
C879 C878 1.362 . S
H880 C886 0.930 . S
H881 C889 0.930 . S
H882 C890 0.930 . S
H883 C891 0.930 . S
H884 C894 0.930 . S
H885 C895 0.930 . S
C886 H880 0.930 . S
C886 C887 1.355 . S
C886 C888 1.415 . S
C887 C886 1.355 . S
C887 C889 1.419 . S
C888 C886 1.415 . S
C888 C893 1.425 . S
C888 C895 1.409 . S
C889 H881 0.930 . S
C889 C887 1.419 . S
C889 C890 1.362 . S
C890 H882 0.930 . S
C890 C889 1.362 . S
C890 C893 1.409 . S
C891 H883 0.930 . S
C891 C892 1.355 . S
C891 C893 1.415 . S
C892 C891 1.355 . S
C892 C894 1.419 . S
C893 C888 1.425 . S
C893 C890 1.409 . S
C893 C891 1.415 . S
C894 H884 0.930 . S
C894 C892 1.419 . S
C894 C895 1.362 . S
C895 H885 0.930 . S
C895 C888 1.409 . S
C895 C894 1.362 . S
H896 C902 0.930 . S
H897 C905 0.930 . S
H898 C906 0.930 . S
H899 C907 0.930 . S
H900 C910 0.930 . S
H901 C911 0.930 . S
C902 H896 0.930 . S
C902 C903 1.355 . S
C902 C904 1.415 . S
C903 C902 1.355 . S
C903 C905 1.419 . S
C904 C902 1.415 . S
C904 C909 1.425 1_556 S
C904 C911 1.409 1_556 S
C905 H897 0.930 . S
C905 C903 1.419 . S
C905 C906 1.362 . S
C906 H898 0.930 . S
C906 C905 1.362 . S
C906 C909 1.409 1_556 S
C907 H899 0.930 . S
C907 C908 1.355 . S
C907 C909 1.415 . S
C908 C907 1.355 . S
C908 C910 1.419 . S
C909 C904 1.425 1_554 S
C909 C906 1.409 1_554 S
C909 C907 1.415 . S
C910 H900 0.930 . S
C910 C908 1.419 . S
C910 C911 1.362 . S
C911 H901 0.930 . S
C911 C904 1.409 1_554 S
C911 C910 1.362 . S
H912 C918 0.930 . S
H913 C921 0.930 . S
H914 C922 0.930 . S
H915 C923 0.930 . S
H916 C926 0.930 . S
H917 C927 0.930 . S
C918 H912 0.930 . S
C918 C919 1.355 . S
C918 C920 1.415 . S
C919 C918 1.355 . S
C919 C921 1.419 . S
C920 C918 1.415 . S
C920 C925 1.425 1_554 S
C920 C927 1.409 1_554 S
C921 H913 0.930 . S
C921 C919 1.419 . S
C921 C922 1.362 . S
C922 H914 0.930 . S
C922 C921 1.362 . S
C922 C925 1.409 1_554 S
C923 H915 0.930 . S
C923 C924 1.355 . S
C923 C925 1.415 . S
C924 C923 1.355 . S
C924 C926 1.419 . S
C925 C920 1.425 1_556 S
C925 C922 1.409 1_556 S
C925 C923 1.415 . S
C926 H916 0.930 . S
C926 C924 1.419 . S
C926 C927 1.362 . S
C927 H917 0.930 . S
C927 C920 1.409 1_556 S
C927 C926 1.362 . S
H928 C934 0.930 . S
H929 C937 0.930 . S
H930 C938 0.930 . S
H931 C939 0.930 . S
H932 C942 0.930 . S
H933 C943 0.930 . S
C934 H928 0.930 . S
C934 C935 1.355 . S
C934 C936 1.415 . S
C935 C934 1.355 . S
C935 C937 1.419 . S
C936 C934 1.415 . S
C936 C941 1.425 1_554 S
C936 C943 1.409 1_554 S
C937 H929 0.930 . S
C937 C935 1.419 . S
C937 C938 1.362 . S
C938 H930 0.930 . S
C938 C937 1.362 . S
C938 C941 1.409 1_554 S
C939 H931 0.930 . S
C939 C940 1.355 . S
C939 C941 1.415 . S
C940 C939 1.355 . S
C940 C942 1.419 . S
C941 C936 1.425 1_556 S
C941 C938 1.409 1_556 S
C941 C939 1.415 . S
C942 H932 0.930 . S
C942 C940 1.419 . S
C942 C943 1.362 . S
C943 H933 0.930 . S
C943 C936 1.409 1_556 S
C943 C942 1.362 . S
H944 C950 0.930 . S
H945 C953 0.930 . S
H946 C954 0.930 . S
H947 C955 0.930 . S
H948 C958 0.930 . S
H949 C959 0.930 . S
C950 H944 0.930 . S
C950 C951 1.355 . S
C950 C952 1.415 . S
C951 C950 1.355 . S
C951 C953 1.419 . S
C952 C950 1.415 . S
C952 C957 1.425 1_556 S
C952 C959 1.409 1_556 S
C953 H945 0.930 . S
C953 C951 1.419 . S
C953 C954 1.362 . S
C954 H946 0.930 . S
C954 C953 1.362 . S
C954 C957 1.409 1_556 S
C955 H947 0.930 . S
C955 C956 1.355 . S
C955 C957 1.415 . S
C956 C955 1.355 . S
C956 C958 1.419 . S
C957 C952 1.425 1_554 S
C957 C954 1.409 1_554 S
C957 C955 1.415 . S
C958 H948 0.930 . S
C958 C956 1.419 . S
C958 C959 1.362 . S
C959 H949 0.930 . S
C959 C952 1.409 1_554 S
C959 C958 1.362 . S
H960 C966 0.930 . S
H961 C969 0.930 . S
H962 C970 0.930 . S
H963 C971 0.930 . S
H964 C974 0.930 . S
H965 C975 0.930 . S
C966 H960 0.930 . S
C966 C967 1.355 . S
C966 C968 1.415 . S
C967 C966 1.355 . S
C967 C969 1.419 . S
C968 C966 1.415 . S
C968 C973 1.425 1_545 S
C968 C975 1.409 1_545 S
C969 H961 0.930 . S
C969 C967 1.419 . S
C969 C970 1.362 . S
C970 H962 0.930 . S
C970 C969 1.362 . S
C970 C973 1.409 1_545 S
C971 H963 0.930 . S
C971 C972 1.355 . S
C971 C973 1.415 . S
C972 C971 1.355 . S
C972 C974 1.419 . S
C973 C968 1.425 1_565 S
C973 C970 1.409 1_565 S
C973 C971 1.415 . S
C974 H964 0.930 . S
C974 C972 1.419 . S
C974 C975 1.362 . S
C975 H965 0.930 . S
C975 C968 1.409 1_565 S
C975 C974 1.362 . S
H976 C982 0.930 . S
H977 C985 0.930 . S
H978 C986 0.930 . S
H979 C987 0.930 . S
H980 C990 0.930 . S
H981 C991 0.930 . S
C982 H976 0.930 . S
C982 C983 1.355 . S
C982 C984 1.415 . S
C983 C982 1.355 . S
C983 C985 1.419 . S
C984 C982 1.415 . S
C984 C989 1.425 1_655 S
C984 C991 1.409 . S
C985 H977 0.930 . S
C985 C983 1.419 . S
C985 C986 1.362 1_655 S
C986 H978 0.930 . S
C986 C985 1.362 1_455 S
C986 C989 1.409 . S
C987 H979 0.930 . S
C987 C988 1.355 . S
C987 C989 1.415 . S
C988 C987 1.355 . S
C988 C990 1.419 . S
C989 C984 1.425 1_455 S
C989 C986 1.409 . S
C989 C987 1.415 . S
C990 H980 0.930 . S
C990 C988 1.419 . S
C990 C991 1.362 1_455 S
C991 H981 0.930 . S
C991 C984 1.409 . S
C991 C990 1.362 1_655 S
H992 C998 0.930 . S
H993 C1001 0.930 . S
H994 C1002 0.930 . S
H995 C1003 0.930 . S
H996 C1006 0.930 . S
H997 C1007 0.930 . S
C998 H992 0.930 . S
C998 C999 1.355 . S
C998 C1000 1.415 1_545 S
C999 C998 1.355 . S
C999 C1001 1.419 . S
C1000 C998 1.415 1_565 S
C1000 C1005 1.425 1_565 S
C1000 C1007 1.409 . S
C1001 H993 0.930 . S
C1001 C999 1.419 . S
C1001 C1002 1.362 . S
C1002 H994 0.930 . S
C1002 C1001 1.362 . S
C1002 C1005 1.409 . S
C1003 H995 0.930 . S
C1003 C1004 1.355 . S
C1003 C1005 1.415 1_565 S
C1004 C1003 1.355 . S
C1004 C1006 1.419 . S
C1005 C1000 1.425 1_545 S
C1005 C1002 1.409 . S
C1005 C1003 1.415 1_545 S
C1006 H996 0.930 . S
C1006 C1004 1.419 . S
C1006 C1007 1.362 . S
C1007 H997 0.930 . S
C1007 C1000 1.409 . S
C1007 C1006 1.362 . S
H1008 C1014 0.930 . S
H1009 C1017 0.930 . S
H1010 C1018 0.930 . S
H1011 C1019 0.930 . S
H1012 C1022 0.930 . S
H1013 C1023 0.930 . S
C1014 H1008 0.930 . S
C1014 C1015 1.355 . S
C1014 C1016 1.415 . S
C1015 C1014 1.355 . S
C1015 C1017 1.419 . S
C1016 C1014 1.415 . S
C1016 C1021 1.425 1_455 S
C1016 C1023 1.409 . S
C1017 H1009 0.930 . S
C1017 C1015 1.419 . S
C1017 C1018 1.362 1_455 S
C1018 H1010 0.930 . S
C1018 C1017 1.362 1_655 S
C1018 C1021 1.409 . S
C1019 H1011 0.930 . S
C1019 C1020 1.355 . S
C1019 C1021 1.415 . S
C1020 C1019 1.355 . S
C1020 C1022 1.419 . S
C1021 C1016 1.425 1_655 S
C1021 C1018 1.409 . S
C1021 C1019 1.415 . S
C1022 H1012 0.930 . S
C1022 C1020 1.419 . S
C1022 C1023 1.362 1_655 S
C1023 H1013 0.930 . S
C1023 C1016 1.409 . S
C1023 C1022 1.362 1_455 S
H1024 C1030 0.930 . S
H1025 C1033 0.930 . S
H1026 C1034 0.930 . S
H1027 C1035 0.930 . S
H1028 C1038 0.930 . S
H1029 C1039 0.930 . S
C1030 H1024 0.930 . S
C1030 C1031 1.355 . S
C1030 C1032 1.415 . S
C1031 C1030 1.355 . S
C1031 C1033 1.419 . S
C1032 C1030 1.415 . S
C1032 C1037 1.425 1_565 S
C1032 C1039 1.409 1_565 S
C1033 H1025 0.930 . S
C1033 C1031 1.419 . S
C1033 C1034 1.362 . S
C1034 H1026 0.930 . S
C1034 C1033 1.362 . S
C1034 C1037 1.409 1_565 S
C1035 H1027 0.930 . S
C1035 C1036 1.355 . S
C1035 C1037 1.415 . S
C1036 C1035 1.355 . S
C1036 C1038 1.419 . S
C1037 C1032 1.425 1_545 S
C1037 C1034 1.409 1_545 S
C1037 C1035 1.415 . S
C1038 H1028 0.930 . S
C1038 C1036 1.419 . S
C1038 C1039 1.362 . S
C1039 H1029 0.930 . S
C1039 C1032 1.409 1_545 S
C1039 C1038 1.362 . S
H1040 C1046 0.930 . S
H1041 C1049 0.930 . S
H1042 C1050 0.930 . S
H1043 C1051 0.930 . S
H1044 C1054 0.930 . S
H1045 C1055 0.930 . S
C1046 H1040 0.930 . S
C1046 C1047 1.355 . S
C1046 C1048 1.415 . S
C1047 C1046 1.355 . S
C1047 C1049 1.419 . S
C1048 C1046 1.415 . S
C1048 C1053 1.425 1_655 S
C1048 C1055 1.409 . S
C1049 H1041 0.930 . S
C1049 C1047 1.419 . S
C1049 C1050 1.362 1_655 S
C1050 H1042 0.930 . S
C1050 C1049 1.362 1_455 S
C1050 C1053 1.409 . S
C1051 H1043 0.930 . S
C1051 C1052 1.355 . S
C1051 C1053 1.415 . S
C1052 C1051 1.355 . S
C1052 C1054 1.419 . S
C1053 C1048 1.425 1_455 S
C1053 C1050 1.409 . S
C1053 C1051 1.415 . S
C1054 H1044 0.930 . S
C1054 C1052 1.419 . S
C1054 C1055 1.362 1_455 S
C1055 H1045 0.930 . S
C1055 C1048 1.409 . S
C1055 C1054 1.362 1_655 S
H1056 C1062 0.930 . S
H1057 C1065 0.930 . S
H1058 C1066 0.930 1_545 S
H1059 C1067 0.930 . S
H1060 C1070 0.930 . S
H1061 C1071 0.930 1_565 S
C1062 H1056 0.930 . S
C1062 C1063 1.355 . S
C1062 C1064 1.415 . S
C1063 C1062 1.355 . S
C1063 C1065 1.419 . S
C1064 C1062 1.415 . S
C1064 C1069 1.425 1_565 S
C1064 C1071 1.409 1_565 S
C1065 H1057 0.930 . S
C1065 C1063 1.419 . S
C1065 C1066 1.362 . S
C1066 H1058 0.930 1_565 S
C1066 C1065 1.362 . S
C1066 C1069 1.409 1_565 S
C1067 H1059 0.930 . S
C1067 C1068 1.355 . S
C1067 C1069 1.415 . S
C1068 C1067 1.355 . S
C1068 C1070 1.419 . S
C1069 C1064 1.425 1_545 S
C1069 C1066 1.409 1_545 S
C1069 C1067 1.415 . S
C1070 H1060 0.930 . S
C1070 C1068 1.419 . S
C1070 C1071 1.362 . S
C1071 H1061 0.930 1_545 S
C1071 C1064 1.409 1_545 S
C1071 C1070 1.362 . S
H1072 C1078 0.930 . S
H1073 C1081 0.930 . S
H1074 C1082 0.930 . S
H1075 C1083 0.930 . S
H1076 C1086 0.930 . S
H1077 C1087 0.930 . S
C1078 H1072 0.930 . S
C1078 C1079 1.355 . S
C1078 C1080 1.415 . S
C1079 C1078 1.355 . S
C1079 C1081 1.419 . S
C1080 C1078 1.415 . S
C1080 C1085 1.425 1_655 S
C1080 C1087 1.409 . S
C1081 H1073 0.930 . S
C1081 C1079 1.419 . S
C1081 C1082 1.362 1_655 S
C1082 H1074 0.930 . S
C1082 C1081 1.362 1_455 S
C1082 C1085 1.409 . S
C1083 H1075 0.930 . S
C1083 C1084 1.355 . S
C1083 C1085 1.415 . S
C1084 C1083 1.355 . S
C1084 C1086 1.419 . S
C1085 C1080 1.425 1_455 S
C1085 C1082 1.409 . S
C1085 C1083 1.415 . S
C1086 H1076 0.930 . S
C1086 C1084 1.419 . S
C1086 C1087 1.362 1_455 S
C1087 H1077 0.930 . S
C1087 C1080 1.409 . S
C1087 C1086 1.362 1_655 S
H1088 C1094 0.930 . S
H1089 C1097 0.930 . S
H1090 C1098 0.930 . S
H1091 C1099 0.930 . S
H1092 C1102 0.930 . S
H1093 C1103 0.930 . S
C1094 H1088 0.930 . S
C1094 C1095 1.355 . S
C1094 C1096 1.415 . S
C1095 C1094 1.355 . S
C1095 C1097 1.419 . S
C1096 C1094 1.415 . S
C1096 C1101 1.425 . S
C1096 C1103 1.409 . S
C1097 H1089 0.930 . S
C1097 C1095 1.419 . S
C1097 C1098 1.362 . S
C1098 H1090 0.930 . S
C1098 C1097 1.362 . S
C1098 C1101 1.409 . S
C1099 H1091 0.930 . S
C1099 C1100 1.355 . S
C1099 C1101 1.415 . S
C1100 C1099 1.355 . S
C1100 C1102 1.419 . S
C1101 C1096 1.425 . S
C1101 C1098 1.409 . S
C1101 C1099 1.415 . S
C1102 H1092 0.930 . S
C1102 C1100 1.419 . S
C1102 C1103 1.362 . S
C1103 H1093 0.930 . S
C1103 C1096 1.409 . S
C1103 C1102 1.362 . S
H1104 C1110 0.930 . S
H1105 C1113 0.930 . S
H1106 C1114 0.930 . S
H1107 C1115 0.930 . S
H1108 C1118 0.930 . S
H1109 C1119 0.930 . S
C1110 H1104 0.930 . S
C1110 C1111 1.355 . S
C1110 C1112 1.415 . S
C1111 C1110 1.355 . S
C1111 C1113 1.419 . S
C1112 C1110 1.415 . S
C1112 C1117 1.425 . S
C1112 C1119 1.409 . S
C1113 H1105 0.930 . S
C1113 C1111 1.419 . S
C1113 C1114 1.362 . S
C1114 H1106 0.930 . S
C1114 C1113 1.362 . S
C1114 C1117 1.409 . S
C1115 H1107 0.930 . S
C1115 C1116 1.355 . S
C1115 C1117 1.415 . S
C1116 C1115 1.355 . S
C1116 C1118 1.419 . S
C1117 C1112 1.425 . S
C1117 C1114 1.409 . S
C1117 C1115 1.415 . S
C1118 H1108 0.930 . S
C1118 C1116 1.419 . S
C1118 C1119 1.362 . S
C1119 H1109 0.930 . S
C1119 C1112 1.409 . S
C1119 C1118 1.362 . S
H1120 C1126 0.930 . S
H1121 C1129 0.930 . S
H1122 C1130 0.930 . S
H1123 C1131 0.930 . S
H1124 C1134 0.930 . S
H1125 C1135 0.930 . S
C1126 H1120 0.930 . S
C1126 C1127 1.355 . S
C1126 C1128 1.415 . S
C1127 C1126 1.355 . S
C1127 C1129 1.419 . S
C1128 C1126 1.415 . S
C1128 C1133 1.425 . S
C1128 C1135 1.409 . S
C1129 H1121 0.930 . S
C1129 C1127 1.419 . S
C1129 C1130 1.362 . S
C1130 H1122 0.930 . S
C1130 C1129 1.362 . S
C1130 C1133 1.409 . S
C1131 H1123 0.930 . S
C1131 C1132 1.355 . S
C1131 C1133 1.415 . S
C1132 C1131 1.355 . S
C1132 C1134 1.419 . S
C1133 C1128 1.425 . S
C1133 C1130 1.409 . S
C1133 C1131 1.415 . S
C1134 H1124 0.930 . S
C1134 C1132 1.419 . S
C1134 C1135 1.362 . S
C1135 H1125 0.930 . S
C1135 C1128 1.409 . S
C1135 C1134 1.362 . S
H1136 C1142 0.930 . S
H1137 C1145 0.930 . S
H1138 C1146 0.930 . S
H1139 C1147 0.930 . S
H1140 C1150 0.930 . S
H1141 C1151 0.930 . S
C1142 H1136 0.930 . S
C1142 C1143 1.355 . S
C1142 C1144 1.415 . S
C1143 C1142 1.355 . S
C1143 C1145 1.419 . S
C1144 C1142 1.415 . S
C1144 C1149 1.425 . S
C1144 C1151 1.409 . S
C1145 H1137 0.930 . S
C1145 C1143 1.419 . S
C1145 C1146 1.362 . S
C1146 H1138 0.930 . S
C1146 C1145 1.362 . S
C1146 C1149 1.409 . S
C1147 H1139 0.930 . S
C1147 C1148 1.355 . S
C1147 C1149 1.415 . S
C1148 C1147 1.355 . S
C1148 C1150 1.419 . S
C1149 C1144 1.425 . S
C1149 C1146 1.409 . S
C1149 C1147 1.415 . S
C1150 H1140 0.930 . S
C1150 C1148 1.419 . S
C1150 C1151 1.362 . S
C1151 H1141 0.930 . S
C1151 C1144 1.409 . S
C1151 C1150 1.362 . S
H1152 C1158 0.930 . S
H1153 C1161 0.930 . S
H1154 C1162 0.930 . S
H1155 C1163 0.930 . S
H1156 C1166 0.930 . S
H1157 C1167 0.930 . S
C1158 H1152 0.930 . S
C1158 C1159 1.355 . S
C1158 C1160 1.415 . S
C1159 C1158 1.355 . S
C1159 C1161 1.419 . S
C1160 C1158 1.415 . S
C1160 C1165 1.425 . S
C1160 C1167 1.409 . S
C1161 H1153 0.930 . S
C1161 C1159 1.419 . S
C1161 C1162 1.362 . S
C1162 H1154 0.930 . S
C1162 C1161 1.362 . S
C1162 C1165 1.409 . S
C1163 H1155 0.930 . S
C1163 C1164 1.355 . S
C1163 C1165 1.415 . S
C1164 C1163 1.355 . S
C1164 C1166 1.419 . S
C1165 C1160 1.425 . S
C1165 C1162 1.409 . S
C1165 C1163 1.415 . S
C1166 H1156 0.930 . S
C1166 C1164 1.419 . S
C1166 C1167 1.362 . S
C1167 H1157 0.930 . S
C1167 C1160 1.409 . S
C1167 C1166 1.362 . S
H1168 C1174 0.930 . S
H1169 C1177 0.930 . S
H1170 C1178 0.930 . S
H1171 C1179 0.930 . S
H1172 C1182 0.930 . S
H1173 C1183 0.930 . S
C1174 H1168 0.930 . S
C1174 C1175 1.355 . S
C1174 C1176 1.415 . S
C1175 C1174 1.355 . S
C1175 C1177 1.419 . S
C1176 C1174 1.415 . S
C1176 C1181 1.425 . S
C1176 C1183 1.409 . S
C1177 H1169 0.930 . S
C1177 C1175 1.419 . S
C1177 C1178 1.362 . S
C1178 H1170 0.930 . S
C1178 C1177 1.362 . S
C1178 C1181 1.409 . S
C1179 H1171 0.930 . S
C1179 C1180 1.355 . S
C1179 C1181 1.415 . S
C1180 C1179 1.355 . S
C1180 C1182 1.419 . S
C1181 C1176 1.425 . S
C1181 C1178 1.409 . S
C1181 C1179 1.415 . S
C1182 H1172 0.930 . S
C1182 C1180 1.419 . S
C1182 C1183 1.362 . S
C1183 H1173 0.930 . S
C1183 C1176 1.409 . S
C1183 C1182 1.362 . S
H1184 C1190 0.930 . S
H1185 C1193 0.930 . S
H1186 C1194 0.930 . S
H1187 C1195 0.930 . S
H1188 C1198 0.930 . S
H1189 C1199 0.930 . S
C1190 H1184 0.930 . S
C1190 C1191 1.355 . S
C1190 C1192 1.415 . S
C1191 C1190 1.355 . S
C1191 C1193 1.419 . S
C1192 C1190 1.415 . S
C1192 C1197 1.425 . S
C1192 C1199 1.409 . S
C1193 H1185 0.930 . S
C1193 C1191 1.419 . S
C1193 C1194 1.362 . S
C1194 H1186 0.930 . S
C1194 C1193 1.362 . S
C1194 C1197 1.409 . S
C1195 H1187 0.930 . S
C1195 C1196 1.355 . S
C1195 C1197 1.415 . S
C1196 C1195 1.355 . S
C1196 C1198 1.419 . S
C1197 C1192 1.425 . S
C1197 C1194 1.409 . S
C1197 C1195 1.415 . S
C1198 H1188 0.930 . S
C1198 C1196 1.419 . S
C1198 C1199 1.362 . S
C1199 H1189 0.930 . S
C1199 C1192 1.409 . S
C1199 C1198 1.362 . S
H1200 C1206 0.930 . S
H1201 C1209 0.930 . S
H1202 C1210 0.930 . S
H1203 C1211 0.930 . S
H1204 C1214 0.930 . S
H1205 C1215 0.930 . S
C1206 H1200 0.930 . S
C1206 C1207 1.355 . S
C1206 C1208 1.415 . S
C1207 C1206 1.355 . S
C1207 C1209 1.419 . S
C1208 C1206 1.415 . S
C1208 C1213 1.425 . S
C1208 C1215 1.409 . S
C1209 H1201 0.930 . S
C1209 C1207 1.419 . S
C1209 C1210 1.362 . S
C1210 H1202 0.930 . S
C1210 C1209 1.362 . S
C1210 C1213 1.409 . S
C1211 H1203 0.930 . S
C1211 C1212 1.355 . S
C1211 C1213 1.415 . S
C1212 C1211 1.355 . S
C1212 C1214 1.419 . S
C1213 C1208 1.425 . S
C1213 C1210 1.409 . S
C1213 C1211 1.415 . S
C1214 H1204 0.930 . S
C1214 C1212 1.419 . S
C1214 C1215 1.362 . S
C1215 H1205 0.930 . S
C1215 C1208 1.409 . S
C1215 C1214 1.362 . S
H1216 C1222 0.930 . S
H1217 C1225 0.930 . S
H1218 C1226 0.930 . S
H1219 C1227 0.930 . S
H1220 C1230 0.930 . S
H1221 C1231 0.930 . S
C1222 H1216 0.930 . S
C1222 C1223 1.355 . S
C1222 C1224 1.415 . S
C1223 C1222 1.355 . S
C1223 C1225 1.419 . S
C1224 C1222 1.415 . S
C1224 C1229 1.425 . S
C1224 C1231 1.409 . S
C1225 H1217 0.930 . S
C1225 C1223 1.419 . S
C1225 C1226 1.362 . S
C1226 H1218 0.930 . S
C1226 C1225 1.362 . S
C1226 C1229 1.409 . S
C1227 H1219 0.930 . S
C1227 C1228 1.355 . S
C1227 C1229 1.415 . S
C1228 C1227 1.355 . S
C1228 C1230 1.419 . S
C1229 C1224 1.425 . S
C1229 C1226 1.409 . S
C1229 C1227 1.415 . S
C1230 H1220 0.930 . S
C1230 C1228 1.419 . S
C1230 C1231 1.362 . S
C1231 H1221 0.930 . S
C1231 C1224 1.409 . S
C1231 C1230 1.362 . S
H1232 C1238 0.930 . S
H1233 C1241 0.930 . S
H1234 C1242 0.930 . S
H1235 C1243 0.930 . S
H1236 C1246 0.930 . S
H1237 C1247 0.930 . S
C1238 H1232 0.930 . S
C1238 C1239 1.355 . S
C1238 C1240 1.415 . S
C1239 C1238 1.355 . S
C1239 C1241 1.419 . S
C1240 C1238 1.415 . S
C1240 C1245 1.425 . S
C1240 C1247 1.409 . S
C1241 H1233 0.930 . S
C1241 C1239 1.419 . S
C1241 C1242 1.362 . S
C1242 H1234 0.930 . S
C1242 C1241 1.362 . S
C1242 C1245 1.409 . S
C1243 H1235 0.930 . S
C1243 C1244 1.355 . S
C1243 C1245 1.415 . S
C1244 C1243 1.355 . S
C1244 C1246 1.419 . S
C1245 C1240 1.425 . S
C1245 C1242 1.409 . S
C1245 C1243 1.415 . S
C1246 H1236 0.930 . S
C1246 C1244 1.419 . S
C1246 C1247 1.362 . S
C1247 H1237 0.930 . S
C1247 C1240 1.409 . S
C1247 C1246 1.362 . S
H1248 C1254 0.930 . S
H1249 C1257 0.930 . S
H1250 C1258 0.930 . S
H1251 C1259 0.930 . S
H1252 C1262 0.930 . S
H1253 C1263 0.930 . S
C1254 H1248 0.930 . S
C1254 C1255 1.355 . S
C1254 C1256 1.415 . S
C1255 C1254 1.355 . S
C1255 C1257 1.419 . S
C1256 C1254 1.415 . S
C1256 C1261 1.425 . S
C1256 C1263 1.409 . S
C1257 H1249 0.930 . S
C1257 C1255 1.419 . S
C1257 C1258 1.362 . S
C1258 H1250 0.930 . S
C1258 C1257 1.362 . S
C1258 C1261 1.409 . S
C1259 H1251 0.930 . S
C1259 C1260 1.355 . S
C1259 C1261 1.415 . S
C1260 C1259 1.355 . S
C1260 C1262 1.419 . S
C1261 C1256 1.425 . S
C1261 C1258 1.409 . S
C1261 C1259 1.415 . S
C1262 H1252 0.930 . S
C1262 C1260 1.419 . S
C1262 C1263 1.362 . S
C1263 H1253 0.930 . S
C1263 C1256 1.409 . S
C1263 C1262 1.362 . S
H1264 C1270 0.930 . S
H1265 C1273 0.930 . S
H1266 C1274 0.930 . S
H1267 C1275 0.930 . S
H1268 C1278 0.930 . S
H1269 C1279 0.930 . S
C1270 H1264 0.930 . S
C1270 C1271 1.355 . S
C1270 C1272 1.415 . S
C1271 C1270 1.355 . S
C1271 C1273 1.419 . S
C1272 C1270 1.415 . S
C1272 C1277 1.425 . S
C1272 C1279 1.409 . S
C1273 H1265 0.930 . S
C1273 C1271 1.419 . S
C1273 C1274 1.362 . S
C1274 H1266 0.930 . S
C1274 C1273 1.362 . S
C1274 C1277 1.409 . S
C1275 H1267 0.930 . S
C1275 C1276 1.355 . S
C1275 C1277 1.415 . S
C1276 C1275 1.355 . S
C1276 C1278 1.419 . S
C1277 C1272 1.425 . S
C1277 C1274 1.409 . S
C1277 C1275 1.415 . S
C1278 H1268 0.930 . S
C1278 C1276 1.419 . S
C1278 C1279 1.362 . S
C1279 H1269 0.930 . S
C1279 C1272 1.409 . S
C1279 C1278 1.362 . S
H1280 C1286 0.930 . S
H1281 C1289 0.930 . S
H1282 C1290 0.930 . S
H1283 C1291 0.930 . S
H1284 C1294 0.930 . S
H1285 C1295 0.930 . S
C1286 H1280 0.930 . S
C1286 C1287 1.355 . S
C1286 C1288 1.415 . S
C1287 C1286 1.355 . S
C1287 C1289 1.419 . S
C1288 C1286 1.415 . S
C1288 C1293 1.425 . S
C1288 C1295 1.409 . S
C1289 H1281 0.930 . S
C1289 C1287 1.419 . S
C1289 C1290 1.362 . S
C1290 H1282 0.930 . S
C1290 C1289 1.362 . S
C1290 C1293 1.409 . S
C1291 H1283 0.930 . S
C1291 C1292 1.355 . S
C1291 C1293 1.415 . S
C1292 C1291 1.355 . S
C1292 C1294 1.419 . S
C1293 C1288 1.425 . S
C1293 C1290 1.409 . S
C1293 C1291 1.415 . S
C1294 H1284 0.930 . S
C1294 C1292 1.419 . S
C1294 C1295 1.362 . S
C1295 H1285 0.930 . S
C1295 C1288 1.409 . S
C1295 C1294 1.362 . S
H1296 C1302 0.930 . S
H1297 C1305 0.930 . S
H1298 C1306 0.930 . S
H1299 C1307 0.930 . S
H1300 C1310 0.930 . S
H1301 C1311 0.930 . S
C1302 H1296 0.930 . S
C1302 C1303 1.355 . S
C1302 C1304 1.415 . S
C1303 C1302 1.355 . S
C1303 C1305 1.419 . S
C1304 C1302 1.415 . S
C1304 C1309 1.425 . S
C1304 C1311 1.409 . S
C1305 H1297 0.930 . S
C1305 C1303 1.419 . S
C1305 C1306 1.362 . S
C1306 H1298 0.930 . S
C1306 C1305 1.362 . S
C1306 C1309 1.409 . S
C1307 H1299 0.930 . S
C1307 C1308 1.355 . S
C1307 C1309 1.415 . S
C1308 C1307 1.355 . S
C1308 C1310 1.419 . S
C1309 C1304 1.425 . S
C1309 C1306 1.409 . S
C1309 C1307 1.415 . S
C1310 H1300 0.930 . S
C1310 C1308 1.419 . S
C1310 C1311 1.362 . S
C1311 H1301 0.930 . S
C1311 C1304 1.409 . S
C1311 C1310 1.362 . S
H1312 C1318 0.930 . S
H1313 C1321 0.930 . S
H1314 C1322 0.930 . S
H1315 C1323 0.930 . S
H1316 C1326 0.930 . S
H1317 C1327 0.930 . S
C1318 H1312 0.930 . S
C1318 C1319 1.355 . S
C1318 C1320 1.415 . S
C1319 C1318 1.355 . S
C1319 C1321 1.419 . S
C1320 C1318 1.415 . S
C1320 C1325 1.425 . S
C1320 C1327 1.409 . S
C1321 H1313 0.930 . S
C1321 C1319 1.419 . S
C1321 C1322 1.362 . S
C1322 H1314 0.930 . S
C1322 C1321 1.362 . S
C1322 C1325 1.409 . S
C1323 H1315 0.930 . S
C1323 C1324 1.355 . S
C1323 C1325 1.415 . S
C1324 C1323 1.355 . S
C1324 C1326 1.419 . S
C1325 C1320 1.425 . S
C1325 C1322 1.409 . S
C1325 C1323 1.415 . S
C1326 H1316 0.930 . S
C1326 C1324 1.419 . S
C1326 C1327 1.362 . S
C1327 H1317 0.930 . S
C1327 C1320 1.409 . S
C1327 C1326 1.362 . S
H1328 C1334 0.930 . S
H1329 C1337 0.930 . S
H1330 C1338 0.930 . S
H1331 C1339 0.930 . S
H1332 C1342 0.930 . S
H1333 C1343 0.930 . S
C1334 H1328 0.930 . S
C1334 C1335 1.355 . S
C1334 C1336 1.415 . S
C1335 C1334 1.355 . S
C1335 C1337 1.419 . S
C1336 C1334 1.415 . S
C1336 C1341 1.425 . S
C1336 C1343 1.409 . S
C1337 H1329 0.930 . S
C1337 C1335 1.419 . S
C1337 C1338 1.362 . S
C1338 H1330 0.930 . S
C1338 C1337 1.362 . S
C1338 C1341 1.409 . S
C1339 H1331 0.930 . S
C1339 C1340 1.355 . S
C1339 C1341 1.415 . S
C1340 C1339 1.355 . S
C1340 C1342 1.419 . S
C1341 C1336 1.425 . S
C1341 C1338 1.409 . S
C1341 C1339 1.415 . S
C1342 H1332 0.930 . S
C1342 C1340 1.419 . S
C1342 C1343 1.362 . S
C1343 H1333 0.930 . S
C1343 C1336 1.409 . S
C1343 C1342 1.362 . S
H1344 C1350 0.930 . S
H1345 C1353 0.930 . S
H1346 C1354 0.930 . S
H1347 C1355 0.930 . S
H1348 C1358 0.930 . S
H1349 C1359 0.930 . S
C1350 H1344 0.930 . S
C1350 C1351 1.355 . S
C1350 C1352 1.415 . S
C1351 C1350 1.355 . S
C1351 C1353 1.419 . S
C1352 C1350 1.415 . S
C1352 C1357 1.425 . S
C1352 C1359 1.409 . S
C1353 H1345 0.930 . S
C1353 C1351 1.419 . S
C1353 C1354 1.362 . S
C1354 H1346 0.930 . S
C1354 C1353 1.362 . S
C1354 C1357 1.409 . S
C1355 H1347 0.930 . S
C1355 C1356 1.355 . S
C1355 C1357 1.415 . S
C1356 C1355 1.355 . S
C1356 C1358 1.419 . S
C1357 C1352 1.425 . S
C1357 C1354 1.409 . S
C1357 C1355 1.415 . S
C1358 H1348 0.930 . S
C1358 C1356 1.419 . S
C1358 C1359 1.362 . S
C1359 H1349 0.930 . S
C1359 C1352 1.409 . S
C1359 C1358 1.362 . S
H1360 C1366 0.930 . S
H1361 C1369 0.930 . S
H1362 C1370 0.930 . S
H1363 C1371 0.930 . S
H1364 C1374 0.930 . S
H1365 C1375 0.930 . S
C1366 H1360 0.930 . S
C1366 C1367 1.355 . S
C1366 C1368 1.415 . S
C1367 C1366 1.355 . S
C1367 C1369 1.419 . S
C1368 C1366 1.415 . S
C1368 C1373 1.425 . S
C1368 C1375 1.409 . S
C1369 H1361 0.930 . S
C1369 C1367 1.419 . S
C1369 C1370 1.362 . S
C1370 H1362 0.930 . S
C1370 C1369 1.362 . S
C1370 C1373 1.409 . S
C1371 H1363 0.930 . S
C1371 C1372 1.355 . S
C1371 C1373 1.415 . S
C1372 C1371 1.355 . S
C1372 C1374 1.419 . S
C1373 C1368 1.425 . S
C1373 C1370 1.409 . S
C1373 C1371 1.415 . S
C1374 H1364 0.930 . S
C1374 C1372 1.419 . S
C1374 C1375 1.362 . S
C1375 H1365 0.930 . S
C1375 C1368 1.409 . S
C1375 C1374 1.362 . S
H1376 C1382 0.930 . S
H1377 C1385 0.930 . S
H1378 C1386 0.930 . S
H1379 C1387 0.930 . S
H1380 C1390 0.930 . S
H1381 C1391 0.930 . S
C1382 H1376 0.930 . S
C1382 C1383 1.355 . S
C1382 C1384 1.415 . S
C1383 C1382 1.355 . S
C1383 C1385 1.419 . S
C1384 C1382 1.415 . S
C1384 C1389 1.425 . S
C1384 C1391 1.409 . S
C1385 H1377 0.930 . S
C1385 C1383 1.419 . S
C1385 C1386 1.362 . S
C1386 H1378 0.930 . S
C1386 C1385 1.362 . S
C1386 C1389 1.409 . S
C1387 H1379 0.930 . S
C1387 C1388 1.355 . S
C1387 C1389 1.415 . S
C1388 C1387 1.355 . S
C1388 C1390 1.419 . S
C1389 C1384 1.425 . S
C1389 C1386 1.409 . S
C1389 C1387 1.415 . S
C1390 H1380 0.930 . S
C1390 C1388 1.419 . S
C1390 C1391 1.362 . S
C1391 H1381 0.930 . S
C1391 C1384 1.409 . S
C1391 C1390 1.362 . S
H1392 C1398 0.930 . S
H1393 C1401 0.930 . S
H1394 C1402 0.930 . S
H1395 C1403 0.930 . S
H1396 C1406 0.930 . S
H1397 C1407 0.930 . S
C1398 H1392 0.930 . S
C1398 C1399 1.355 . S
C1398 C1400 1.415 . S
C1399 C1398 1.355 . S
C1399 C1401 1.419 . S
C1400 C1398 1.415 . S
C1400 C1405 1.425 . S
C1400 C1407 1.409 . S
C1401 H1393 0.930 . S
C1401 C1399 1.419 . S
C1401 C1402 1.362 . S
C1402 H1394 0.930 . S
C1402 C1401 1.362 . S
C1402 C1405 1.409 . S
C1403 H1395 0.930 . S
C1403 C1404 1.355 . S
C1403 C1405 1.415 . S
C1404 C1403 1.355 . S
C1404 C1406 1.419 . S
C1405 C1400 1.425 . S
C1405 C1402 1.409 . S
C1405 C1403 1.415 . S
C1406 H1396 0.930 . S
C1406 C1404 1.419 . S
C1406 C1407 1.362 . S
C1407 H1397 0.930 . S
C1407 C1400 1.409 . S
C1407 C1406 1.362 . S
H1408 C1414 0.930 . S
H1409 C1417 0.930 . S
H1410 C1418 0.930 . S
H1411 C1419 0.930 . S
H1412 C1422 0.930 . S
H1413 C1423 0.930 . S
C1414 H1408 0.930 . S
C1414 C1415 1.355 . S
C1414 C1416 1.415 . S
C1415 C1414 1.355 . S
C1415 C1417 1.419 . S
C1416 C1414 1.415 . S
C1416 C1421 1.425 . S
C1416 C1423 1.409 . S
C1417 H1409 0.930 . S
C1417 C1415 1.419 . S
C1417 C1418 1.362 . S
C1418 H1410 0.930 . S
C1418 C1417 1.362 . S
C1418 C1421 1.409 . S
C1419 H1411 0.930 . S
C1419 C1420 1.355 . S
C1419 C1421 1.415 . S
C1420 C1419 1.355 . S
C1420 C1422 1.419 . S
C1421 C1416 1.425 . S
C1421 C1418 1.409 . S
C1421 C1419 1.415 . S
C1422 H1412 0.930 . S
C1422 C1420 1.419 . S
C1422 C1423 1.362 . S
C1423 H1413 0.930 . S
C1423 C1416 1.409 . S
C1423 C1422 1.362 . S
H1424 C1430 0.930 . S
H1425 C1433 0.930 . S
H1426 C1434 0.930 . S
H1427 C1435 0.930 . S
H1428 C1438 0.930 . S
H1429 C1439 0.930 . S
C1430 H1424 0.930 . S
C1430 C1431 1.355 . S
C1430 C1432 1.415 . S
C1431 C1430 1.355 . S
C1431 C1433 1.419 . S
C1432 C1430 1.415 . S
C1432 C1437 1.425 . S
C1432 C1439 1.409 . S
C1433 H1425 0.930 . S
C1433 C1431 1.419 . S
C1433 C1434 1.362 . S
C1434 H1426 0.930 . S
C1434 C1433 1.362 . S
C1434 C1437 1.409 . S
C1435 H1427 0.930 . S
C1435 C1436 1.355 . S
C1435 C1437 1.415 . S
C1436 C1435 1.355 . S
C1436 C1438 1.419 . S
C1437 C1432 1.425 . S
C1437 C1434 1.409 . S
C1437 C1435 1.415 . S
C1438 H1428 0.930 . S
C1438 C1436 1.419 . S
C1438 C1439 1.362 . S
C1439 H1429 0.930 . S
C1439 C1432 1.409 . S
C1439 C1438 1.362 . S
H1440 C1446 0.930 . S
H1441 C1449 0.930 . S
H1442 C1450 0.930 . S
H1443 C1451 0.930 . S
H1444 C1454 0.930 . S
H1445 C1455 0.930 . S
C1446 H1440 0.930 . S
C1446 C1447 1.355 . S
C1446 C1448 1.415 . S
C1447 C1446 1.355 . S
C1447 C1449 1.419 . S
C1448 C1446 1.415 . S
C1448 C1453 1.425 . S
C1448 C1455 1.409 . S
C1449 H1441 0.930 . S
C1449 C1447 1.419 . S
C1449 C1450 1.362 . S
C1450 H1442 0.930 . S
C1450 C1449 1.362 . S
C1450 C1453 1.409 . S
C1451 H1443 0.930 . S
C1451 C1452 1.355 . S
C1451 C1453 1.415 . S
C1452 C1451 1.355 . S
C1452 C1454 1.419 . S
C1453 C1448 1.425 . S
C1453 C1450 1.409 . S
C1453 C1451 1.415 . S
C1454 H1444 0.930 . S
C1454 C1452 1.419 . S
C1454 C1455 1.362 . S
C1455 H1445 0.930 . S
C1455 C1448 1.409 . S
C1455 C1454 1.362 . S
H1456 C1462 0.930 . S
H1457 C1465 0.930 . S
H1458 C1466 0.930 . S
H1459 C1467 0.930 . S
H1460 C1470 0.930 . S
H1461 C1471 0.930 . S
C1462 H1456 0.930 . S
C1462 C1463 1.355 . S
C1462 C1464 1.415 . S
C1463 C1462 1.355 . S
C1463 C1465 1.419 . S
C1464 C1462 1.415 . S
C1464 C1469 1.425 . S
C1464 C1471 1.409 . S
C1465 H1457 0.930 . S
C1465 C1463 1.419 . S
C1465 C1466 1.362 . S
C1466 H1458 0.930 . S
C1466 C1465 1.362 . S
C1466 C1469 1.409 . S
C1467 H1459 0.930 . S
C1467 C1468 1.355 . S
C1467 C1469 1.415 . S
C1468 C1467 1.355 . S
C1468 C1470 1.419 . S
C1469 C1464 1.425 . S
C1469 C1466 1.409 . S
C1469 C1467 1.415 . S
C1470 H1460 0.930 . S
C1470 C1468 1.419 . S
C1470 C1471 1.362 . S
C1471 H1461 0.930 . S
C1471 C1464 1.409 . S
C1471 C1470 1.362 . S
C455 C414 1.294 . S
C460 C8 1.297 . S
C471 C22 1.258 . S
C476 C428 1.331 . S
C487 C442 1.340 . S
C492 C36 1.249 . S
C503 C400 1.339 . S
C508 C50 1.250 . S
C519 C64 1.340 . S
C524 C386 1.249 . S
C535 C344 1.312 . S
C540 C78 1.278 . S
C551 C92 1.263 . S
C556 C358 1.327 . S
C567 C372 1.336 . S
C572 C106 1.253 . S
C583 C120 1.315 . S
C588 C302 1.275 . S
C599 C134 1.339 . S
C604 C316 1.250 . S
C615 C330 1.337 . S
C620 C148 1.253 . S
C631 C162 1.262 . S
C636 C288 1.328 . S
C647 C274 1.340 . S
C652 C176 1.249 . S
C663 C232 1.251 . S
C668 C190 1.338 . S
C679 C204 1.320 . S
C684 C246 1.270 . S
C695 C218 1.257 . S
C700 C260 1.333 . S
C711 C7 1.420 . S
C716 C147 1.441 . S
C727 C161 1.446 . S
C732 C21 1.414 . S
C743 C119 1.449 . S
C748 C35 1.411 . S
C759 C133 1.418 . S
C764 C49 1.443 . S
C775 C63 1.417 . S
C780 C203 1.444 . S
C791 C217 1.416 . S
C796 C77 1.444 . S
C807 C175 1.447 . S
C812 C91 1.414 . S
C823 C189 1.414 . S
C828 C105 1.446 . S
C839 C231 1.437 . S
C844 C371 1.424 . S
C855 C385 1.450 . S
C860 C245 1.411 . S
C871 C343 1.433 . S
C876 C259 1.428 . S
C887 C273 1.430 . S
C892 C357 1.431 . S
C903 C287 1.413 . S
C908 C427 1.447 . S
C919 C441 1.437 . S
C924 C301 1.424 . S
C935 C399 1.450 . S
C940 C315 1.410 . S
C951 C329 1.420 . S
C956 C413 1.441 . S
C967 C11 1.288 . S
C972 C67 1.296 . S
C983 C25 1.288 . S
C988 C81 1.284 . S
C999 C95 1.304 . S
C1004 C39 1.309 . S
C1015 C53 1.285 . S
C1020 C109 1.286 . S
C1031 C123 1.298 . S
C1036 C179 1.290 . S
C1047 C193 1.286 . S
C1052 C137 1.285 . S
C1063 C207 1.289 . S
C1068 C151 1.285 . S
C1079 C165 1.285 . S
C1084 C221 1.290 . S
C1095 C235 1.285 . S
C1100 C291 1.289 . S
C1111 C305 1.304 . S
C1116 C249 1.309 . S
C1127 C263 1.299 . S
C1132 C319 1.290 . S
C1143 C333 1.294 . S
C1148 C277 1.287 . S
C1159 C403 1.289 . S
C1164 C347 1.296 . S
C1175 C361 1.304 . S
C1180 C417 1.309 . S
C1191 C375 1.309 . S
C1196 C431 1.309 . S
C1207 C389 1.288 . S
C1212 C445 1.296 . S
C1223 C13 1.441 . S
C1228 C83 1.386 . S
C1239 C27 1.355 . S
C1244 C97 1.355 . S
C1255 C111 1.434 . S
C1260 C41 1.435 . S
C1271 C69 1.437 . S
C1276 C55 1.377 . S
C1287 C195 1.418 . S
C1292 C125 1.355 . S
C1303 C209 1.360 . S
C1308 C139 1.424 . S
C1319 C223 1.417 . S
C1324 C153 1.444 . S
C1335 C167 1.417 . S
C1340 C181 1.355 . S
C1351 C237 1.414 . S
C1356 C307 1.353 . S
C1367 C321 1.408 . S
C1372 C251 1.445 . S
C1383 C335 1.440 . S
C1388 C265 1.384 . S
C1399 C279 1.343 . S
C1404 C293 1.379 . S
C1415 C419 1.350 . S
C1420 C349 1.360 . S
C1431 C363 1.345 . S
C1436 C433 1.370 . S
C1447 C377 1.360 . S
C1452 C447 1.423 . S
C1463 C405 1.374 . S
C1468 C391 1.435 . S
