# Generated by pormake.
# Topology gis, (4)-cn, num edge types: 1
# Building blocks:
#     Node 0, Type 0, BuildingBlock: TATPOV_clean_sbu_0, # of connection points: 4
#     Node 1, Type 0, BuildingBlock: TATPOV_clean_sbu_0, # of connection points: 4
#     Node 2, Type 0, BuildingBlock: TATPOV_clean_sbu_0, # of connection points: 4
#     Node 3, Type 0, BuildingBlock: TATPOV_clean_sbu_0, # of connection points: 4
#     Node 4, Type 0, BuildingBlock: TATPOV_clean_sbu_0, # of connection points: 4
#     Node 5, Type 0, BuildingBlock: TATPOV_clean_sbu_0, # of connection points: 4
#     Node 6, Type 0, BuildingBlock: TATPOV_clean_sbu_0, # of connection points: 4
#     Node 7, Type 0, BuildingBlock: TATPOV_clean_sbu_0, # of connection points: 4
#     Node 8, Type 0, BuildingBlock: TATPOV_clean_sbu_0, # of connection points: 4
#     Node 9, Type 0, BuildingBlock: TATPOV_clean_sbu_0, # of connection points: 4
#     Node 10, Type 0, BuildingBlock: TATPOV_clean_sbu_0, # of connection points: 4
#     Node 11, Type 0, BuildingBlock: TATPOV_clean_sbu_0, # of connection points: 4
#     Node 12, Type 0, BuildingBlock: TATPOV_clean_sbu_0, # of connection points: 4
#     Node 13, Type 0, BuildingBlock: TATPOV_clean_sbu_0, # of connection points: 4
#     Node 14, Type 0, BuildingBlock: TATPOV_clean_sbu_0, # of connection points: 4
#     Node 15, Type 0, BuildingBlock: TATPOV_clean_sbu_0, # of connection points: 4
#     Edge 16, Type (0, 0), BuildingBlock: OJICUG_clean_linker_0, # of connection points: 2
#     Edge 17, Type (0, 0), BuildingBlock: OJICUG_clean_linker_0, # of connection points: 2
#     Edge 18, Type (0, 0), BuildingBlock: OJICUG_clean_linker_0, # of connection points: 2
#     Edge 19, Type (0, 0), BuildingBlock: OJICUG_clean_linker_0, # of connection points: 2
#     Edge 20, Type (0, 0), BuildingBlock: OJICUG_clean_linker_0, # of connection points: 2
#     Edge 21, Type (0, 0), BuildingBlock: OJICUG_clean_linker_0, # of connection points: 2
#     Edge 22, Type (0, 0), BuildingBlock: OJICUG_clean_linker_0, # of connection points: 2
#     Edge 23, Type (0, 0), BuildingBlock: OJICUG_clean_linker_0, # of connection points: 2
#     Edge 24, Type (0, 0), BuildingBlock: OJICUG_clean_linker_0, # of connection points: 2
#     Edge 25, Type (0, 0), BuildingBlock: OJICUG_clean_linker_0, # of connection points: 2
#     Edge 26, Type (0, 0), BuildingBlock: OJICUG_clean_linker_0, # of connection points: 2
#     Edge 27, Type (0, 0), BuildingBlock: OJICUG_clean_linker_0, # of connection points: 2
#     Edge 28, Type (0, 0), BuildingBlock: OJICUG_clean_linker_0, # of connection points: 2
#     Edge 29, Type (0, 0), BuildingBlock: OJICUG_clean_linker_0, # of connection points: 2
#     Edge 30, Type (0, 0), BuildingBlock: OJICUG_clean_linker_0, # of connection points: 2
#     Edge 31, Type (0, 0), BuildingBlock: OJICUG_clean_linker_0, # of connection points: 2
#     Edge 32, Type (0, 0), BuildingBlock: OJICUG_clean_linker_0, # of connection points: 2
#     Edge 33, Type (0, 0), BuildingBlock: OJICUG_clean_linker_0, # of connection points: 2
#     Edge 34, Type (0, 0), BuildingBlock: OJICUG_clean_linker_0, # of connection points: 2
#     Edge 35, Type (0, 0), BuildingBlock: OJICUG_clean_linker_0, # of connection points: 2
#     Edge 36, Type (0, 0), BuildingBlock: OJICUG_clean_linker_0, # of connection points: 2
#     Edge 37, Type (0, 0), BuildingBlock: OJICUG_clean_linker_0, # of connection points: 2
#     Edge 38, Type (0, 0), BuildingBlock: OJICUG_clean_linker_0, # of connection points: 2
#     Edge 39, Type (0, 0), BuildingBlock: OJICUG_clean_linker_0, # of connection points: 2
#     Edge 40, Type (0, 0), BuildingBlock: OJICUG_clean_linker_0, # of connection points: 2
#     Edge 41, Type (0, 0), BuildingBlock: OJICUG_clean_linker_0, # of connection points: 2
#     Edge 42, Type (0, 0), BuildingBlock: OJICUG_clean_linker_0, # of connection points: 2
#     Edge 43, Type (0, 0), BuildingBlock: OJICUG_clean_linker_0, # of connection points: 2
#     Edge 44, Type (0, 0), BuildingBlock: OJICUG_clean_linker_0, # of connection points: 2
#     Edge 45, Type (0, 0), BuildingBlock: OJICUG_clean_linker_0, # of connection points: 2
#     Edge 46, Type (0, 0), BuildingBlock: OJICUG_clean_linker_0, # of connection points: 2
#     Edge 47, Type (0, 0), BuildingBlock: OJICUG_clean_linker_0, # of connection points: 2
# Relax obj value: 0.144
# Max RMSD: 0.164
# Mean RMSD: 0.143
data_MOF--net-gis--node1-TATPOV_clean_sbu_0--edge1-OJICUG_clean_linker_0
_symmetry_space_group_name_H-M    P1
_symmetry_Int_Tables_number       1
_symmetry_cell_setting            triclinic
loop_
_symmetry_equiv_pos_as_xyz
'x, y, z'
_cell_length_a     34.507393
_cell_length_b     34.510057
_cell_length_c     34.328242
_cell_angle_alpha  91.000386
_cell_angle_beta   91.146636
_cell_angle_gamma 91.136016
loop_
_atom_site_label
_atom_site_type_symbol
_atom_site_fract_x
_atom_site_fract_y
_atom_site_fract_z
_atom_type_partial_charge
Zn0 Zn 0.13395 0.64607 0.04063 0.0
Zn1 Zn 0.14483 0.61465 0.11126 0.0
O2 O 0.17695 0.58293 0.07246 0.0
O3 O 0.17055 0.60942 0.01501 0.0
O4 O 0.16024 0.59189 0.16288 0.0
O5 O 0.15292 0.69798 0.06147 0.0
O6 O 0.15877 0.67239 0.11952 0.0
C7 C 0.18496 0.58369 0.03639 0.0
C8 C 0.06377 0.61449 0.07683 0.0
O9 O 0.08634 0.60596 0.10509 0.0
O10 O 0.07719 0.63064 0.04689 0.0
C11 C 0.16785 0.5562 0.16645 0.0
O12 O 0.16191 0.53246 0.13651 0.0
C13 C 0.16082 0.70169 0.09753 0.0
Zn14 Zn 0.64895 0.88135 0.4931 0.0
Zn15 Zn 0.6834 0.90434 0.42678 0.0
O16 O 0.7052 0.94298 0.46829 0.0
O17 O 0.68343 0.91974 0.52328 0.0
O18 O 0.70945 0.91836 0.37661 0.0
O19 O 0.66464 0.82587 0.4843 0.0
O20 O 0.69269 0.84563 0.43096 0.0
C21 C 0.70335 0.94463 0.50529 0.0
C22 C 0.59639 0.91194 0.43414 0.0
O23 O 0.62712 0.91486 0.41449 0.0
O24 O 0.59786 0.89925 0.46861 0.0
C25 C 0.74253 0.93493 0.37416 0.0
O26 O 0.76226 0.94424 0.4062 0.0
C27 C 0.68337 0.81836 0.45385 0.0
Zn28 Zn 0.36475 0.40841 0.5458 0.0
Zn29 Zn 0.32211 0.41823 0.60745 0.0
O30 O 0.30136 0.46011 0.56919 0.0
O31 O 0.33872 0.45086 0.51853 0.0
O32 O 0.28884 0.42342 0.65534 0.0
O33 O 0.34537 0.35399 0.5376 0.0
O34 O 0.31142 0.36044 0.59081 0.0
C35 C 0.31194 0.46894 0.53497 0.0
C36 C 0.41131 0.42987 0.61207 0.0
O37 O 0.37842 0.42975 0.62851 0.0
O38 O 0.4134 0.42098 0.57628 0.0
C39 C 0.29518 0.44935 0.6816 0.0
O40 O 0.32359 0.4747 0.67716 0.0
C41 C 0.32239 0.33977 0.56203 0.0
Zn42 Zn 0.85417 0.08247 0.78934 0.0
Zn43 Zn 0.84277 0.05626 0.86201 0.0
O44 O 0.80022 0.02813 0.829 0.0
O45 O 0.8118 0.04679 0.7693 0.0
O46 O 0.83136 0.04064 0.91677 0.0
O47 O 0.908 0.06274 0.79339 0.0
O48 O 0.89993 0.04195 0.85311 0.0
C49 C 0.792 0.02698 0.79267 0.0
C50 C 0.83517 0.14257 0.84328 0.0
O51 O 0.83507 0.11401 0.86617 0.0
O52 O 0.84235 0.13741 0.80754 0.0
C53 C 0.79675 0.03947 0.92893 0.0
O54 O 0.76782 0.04683 0.90493 0.0
C55 C 0.92127 0.0467 0.82359 0.0
Zn56 Zn 0.1726 0.37081 0.95934 0.0
Zn57 Zn 0.17346 0.39927 0.88852 0.0
O58 O 0.19903 0.43906 0.92733 0.0
O59 O 0.20734 0.41177 0.98407 0.0
O60 O 0.18885 0.41703 0.83446 0.0
O61 O 0.19107 0.3179 0.94491 0.0
O62 O 0.18848 0.34182 0.8861 0.0
C63 C 0.21124 0.44097 0.96265 0.0
C64 C 0.09653 0.39433 0.92464 0.0
O65 O 0.11459 0.40248 0.89367 0.0
O66 O 0.11487 0.38177 0.95414 0.0
C67 C 0.21961 0.43736 0.82996 0.0
O68 O 0.23966 0.44943 0.8609 0.0
C69 C 0.19413 0.31332 0.9085 0.0
Zn70 Zn 0.84707 0.89024 0.07769 0.0
Zn71 Zn 0.81902 0.91819 0.14242 0.0
O72 O 0.79795 0.95541 0.10002 0.0
O73 O 0.81465 0.92481 0.04614 0.0
O74 O 0.7944 0.93431 0.19316 0.0
O75 O 0.8274 0.83692 0.08647 0.0
O76 O 0.80067 0.86033 0.13941 0.0
C77 C 0.79764 0.95233 0.06289 0.0
C78 C 0.90614 0.92305 0.12848 0.0
O79 O 0.8778 0.9269 0.15137 0.0
O80 O 0.90059 0.90857 0.09465 0.0
C81 C 0.81292 0.94692 0.22337 0.0
O82 O 0.85039 0.95382 0.22149 0.0
C83 C 0.80661 0.83218 0.11593 0.0
Zn84 Zn 0.36584 0.58522 0.27078 0.0
Zn85 Zn 0.34061 0.58439 0.34184 0.0
O86 O 0.29657 0.55988 0.30641 0.0
O87 O 0.32184 0.55328 0.24845 0.0
O88 O 0.32328 0.57551 0.39698 0.0
O89 O 0.41613 0.56098 0.28367 0.0
O90 O 0.39696 0.56298 0.34426 0.0
C91 C 0.29359 0.54864 0.27085 0.0
C92 C 0.35149 0.66178 0.30512 0.0
O93 O 0.34232 0.64283 0.3352 0.0
O94 O 0.3618 0.64398 0.27449 0.0
C95 C 0.2903 0.56277 0.4075 0.0
O96 O 0.2627 0.55638 0.38113 0.0
C97 C 0.42296 0.55548 0.31943 0.0
Zn98 Zn 0.59305 0.10032 0.71704 0.0
Zn99 Zn 0.63555 0.09726 0.65071 0.0
O100 O 0.65724 0.05968 0.69072 0.0
O101 O 0.6239 0.05974 0.74452 0.0
O102 O 0.66754 0.08459 0.60383 0.0
O103 O 0.54613 0.08461 0.68422 0.0
O104 O 0.58049 0.08584 0.63085 0.0
C105 C 0.65144 0.0468 0.72468 0.0
C106 C 0.63147 0.17373 0.69356 0.0
O107 O 0.6439 0.15467 0.6644 0.0
O108 O 0.61095 0.15699 0.71882 0.0
C109 C 0.70185 0.07213 0.60761 0.0
O110 O 0.71918 0.07421 0.64202 0.0
C111 C 0.54819 0.08119 0.64753 0.0
Zn112 Zn 0.86423 0.34653 0.97297 0.0
Zn113 Zn 0.84749 0.3831 0.9061 0.0
O114 O 0.81639 0.40776 0.95074 0.0
O115 O 0.82777 0.37706 0.00521 0.0
O116 O 0.82599 0.4097 0.85833 0.0
O117 O 0.84666 0.29602 0.94842 0.0
O118 O 0.83602 0.32569 0.89307 0.0
C119 C 0.81044 0.4033 0.98697 0.0
C120 C 0.93038 0.38534 0.93578 0.0
O121 O 0.90624 0.3945 0.90904 0.0
O122 O 0.91907 0.36643 0.96496 0.0
C123 C 0.81146 0.4433 0.85982 0.0
O124 O 0.81418 0.46362 0.8925 0.0
C125 C 0.83663 0.29477 0.91277 0.0
Zn126 Zn 0.34758 0.10927 0.50716 0.0
Zn127 Zn 0.31604 0.09315 0.5766 0.0
O128 O 0.29047 0.05186 0.53996 0.0
O129 O 0.31239 0.06832 0.48256 0.0
O130 O 0.29724 0.08019 0.62983 0.0
O131 O 0.32945 0.16383 0.51324 0.0
O132 O 0.3036 0.15135 0.56993 0.0
C133 C 0.29158 0.04652 0.50321 0.0
C134 C 0.40319 0.08538 0.56403 0.0
O135 O 0.37297 0.08426 0.5845 0.0
O136 O 0.40093 0.09509 0.52865 0.0
C137 C 0.29417 0.04564 0.64192 0.0
O138 O 0.30074 0.01634 0.61819 0.0
C139 C 0.3115 0.17515 0.54304 0.0
Zn140 Zn 0.65087 0.6099 0.33159 0.0
Zn141 Zn 0.66336 0.57351 0.39665 0.0
O142 O 0.70609 0.55236 0.35948 0.0
O143 O 0.6928 0.5829 0.305 0.0
O144 O 0.67082 0.5435 0.44663 0.0
O145 O 0.59694 0.589 0.32558 0.0
O146 O 0.60547 0.55975 0.38151 0.0
C147 C 0.71312 0.55939 0.32386 0.0
C148 C 0.67271 0.66235 0.39365 0.0
O149 O 0.67319 0.63131 0.4134 0.0
O150 O 0.66357 0.6609 0.35777 0.0
C151 C 0.66091 0.50778 0.44697 0.0
O152 O 0.64761 0.49116 0.41453 0.0
C153 C 0.58403 0.56767 0.35211 0.0
Zn154 Zn 0.13128 0.91628 0.21345 0.0
Zn155 Zn 0.14941 0.94266 0.14172 0.0
O156 O 0.18943 0.96927 0.1787 0.0
O157 O 0.17134 0.95308 0.2374 0.0
O158 O 0.16076 0.96521 0.08889 0.0
O159 O 0.07564 0.93141 0.2061 0.0
O160 O 0.09115 0.95168 0.14789 0.0
C161 C 0.19436 0.97117 0.21556 0.0
C162 C 0.15796 0.85708 0.15931 0.0
O163 O 0.15952 0.88519 0.13587 0.0
O164 O 0.14752 0.86269 0.19415 0.0
C165 C 0.18042 0.94808 0.06301 0.0
O166 O 0.19518 0.91417 0.07049 0.0
C167 C 0.06578 0.94555 0.1737 0.0
Zn168 Zn 0.818 0.61412 0.05873 0.0
Zn169 Zn 0.82277 0.5921 0.13063 0.0
O170 O 0.79537 0.54753 0.0983 0.0
O171 O 0.78661 0.56914 0.03907 0.0
O172 O 0.81729 0.57598 0.18674 0.0
O173 O 0.79222 0.66339 0.07095 0.0
O174 O 0.80076 0.64798 0.1323 0.0
C175 C 0.78277 0.54233 0.06334 0.0
C176 C 0.89717 0.60235 0.08814 0.0
O177 O 0.88084 0.59365 0.11988 0.0
O178 O 0.8768 0.6118 0.05875 0.0
C179 C 0.8086 0.54206 0.19822 0.0
O180 O 0.8052 0.51344 0.17258 0.0
C181 C 0.78969 0.67198 0.10671 0.0
Zn182 Zn 0.145 0.10469 0.78708 0.0
Zn183 Zn 0.16811 0.07146 0.85186 0.0
O184 O 0.20646 0.04906 0.81151 0.0
O185 O 0.18293 0.07448 0.75759 0.0
O186 O 0.18087 0.04786 0.90371 0.0
O187 O 0.09155 0.08313 0.79102 0.0
O188 O 0.1101 0.05491 0.8451 0.0
C189 C 0.20694 0.05307 0.77462 0.0
C190 C 0.17467 0.15991 0.84305 0.0
O191 O 0.17837 0.12955 0.86331 0.0
O192 O 0.16066 0.1573 0.80873 0.0
C193 C 0.18721 0.01213 0.9087 0.0
O194 O 0.1885 0.98869 0.87819 0.0
C195 C 0.08402 0.06166 0.81945 0.0
Zn196 Zn 0.61315 0.41335 0.74451 0.0
Zn197 Zn 0.64562 0.42088 0.6761 0.0
O198 O 0.68529 0.44316 0.71717 0.0
O199 O 0.65401 0.4465 0.77227 0.0
O200 O 0.66488 0.43987 0.62417 0.0
O201 O 0.56052 0.43297 0.7294 0.0
O202 O 0.58831 0.4371 0.67264 0.0
C203 C 0.6846 0.45229 0.75332 0.0
C204 C 0.63796 0.34068 0.70478 0.0
O205 O 0.64807 0.36186 0.67652 0.0
O206 O 0.62384 0.35597 0.73515 0.0
C207 C 0.64905 0.42671 0.59273 0.0
O208 O 0.62311 0.39845 0.59466 0.0
C209 C 0.55831 0.4403 0.69349 0.0
Zn210 Zn 0.40014 0.90301 0.28782 0.0
Zn211 Zn 0.36163 0.90439 0.35649 0.0
O212 O 0.3347 0.94124 0.3193 0.0
O213 O 0.3651 0.94288 0.26379 0.0
O214 O 0.33204 0.91349 0.40551 0.0
O215 O 0.44917 0.91905 0.31779 0.0
O216 O 0.41767 0.917 0.3729 0.0
C217 C 0.33784 0.95422 0.28503 0.0
C218 C 0.36511 0.82866 0.3122 0.0
O219 O 0.354 0.84759 0.34196 0.0
O220 O 0.38404 0.8456 0.28585 0.0
C221 C 0.29591 0.9201 0.40413 0.0
O222 O 0.27678 0.91519 0.37088 0.0
C223 C 0.44908 0.92198 0.35464 0.0
C224 C 0.16268 0.78556 0.16977 0.0
C225 C 0.16519 0.81733 0.1448 0.0
H226 H 0.16 0.7238 0.17446 0.0
C227 C 0.17159 0.8105 0.10498 0.0
H228 H 0.15814 0.78985 0.20067 0.0
C229 C 0.17259 0.77273 0.09 0.0
C230 C 0.16743 0.74095 0.11451 0.0
H231 H 0.17404 0.83428 0.08496 0.0
H232 H 0.17573 0.76851 0.05888 0.0
C233 C 0.16393 0.74769 0.15478 0.0
C234 C 0.52089 0.93289 0.35657 0.0
C235 C 0.48629 0.92624 0.3765 0.0
H236 H 0.58276 0.93397 0.35923 0.0
C237 C 0.48817 0.91931 0.41673 0.0
H238 H 0.52044 0.93864 0.32564 0.0
C239 C 0.52401 0.91636 0.43602 0.0
C240 C 0.55862 0.92052 0.41547 0.0
H241 H 0.46203 0.91421 0.43299 0.0
H242 H 0.52453 0.90931 0.46664 0.0
C243 C 0.55665 0.93016 0.37586 0.0
C244 C 0.31119 0.2812 0.52005 0.0
C245 C 0.31059 0.2985 0.55733 0.0
H246 H 0.31068 0.22876 0.48629 0.0
C247 C 0.3034 0.27507 0.58961 0.0
H248 H 0.31598 0.29857 0.49452 0.0
C249 C 0.30051 0.23457 0.5849 0.0
C250 C 0.3046 0.2172 0.54783 0.0
H251 H 0.30272 0.28771 0.61868 0.0
H252 H 0.29778 0.2169 0.61049 0.0
C253 C 0.30807 0.24111 0.51533 0.0
C254 C 0.02539 0.04653 0.85886 0.0
C255 C 0.04408 0.04658 0.82287 0.0
H256 H 0.97059 0.04614 0.88754 0.0
C257 C 0.02251 0.03812 0.78864 0.0
H258 H 0.04157 0.05296 0.88564 0.0
C259 C 0.98242 0.03389 0.78972 0.0
C260 C 0.96303 0.03844 0.82502 0.0
H261 H 0.03641 0.03735 0.7606 0.0
H262 H 0.96636 0.03004 0.76242 0.0
C263 C 0.98487 0.04255 0.85994 0.0
C264 C 0.19796 0.2413 0.91569 0.0
C265 C 0.1971 0.27382 0.89154 0.0
H266 H 0.19154 0.17959 0.91931 0.0
C267 C 0.19323 0.268 0.85103 0.0
H268 H 0.20102 0.24477 0.94703 0.0
C269 C 0.18736 0.23079 0.83527 0.0
C270 C 0.18555 0.19851 0.85962 0.0
H271 H 0.19266 0.29233 0.83153 0.0
H272 H 0.18295 0.22751 0.80405 0.0
C273 C 0.19235 0.20395 0.89984 0.0
C274 C 0.97382 0.94275 0.1129 0.0
C275 C 0.94585 0.93487 0.14101 0.0
H276 H 0.03355 0.9537 0.10131 0.0
C277 C 0.9568 0.93639 0.18062 0.0
H278 H 0.96605 0.94248 0.08216 0.0
C279 C 0.99571 0.94259 0.19167 0.0
C280 C 0.02412 0.94798 0.1633 0.0
H281 H 0.93573 0.93075 0.20291 0.0
H282 H 0.00376 0.94136 0.22228 0.0
C283 C 0.01248 0.94958 0.12393 0.0
C284 C 0.3406 0.72527 0.33951 0.0
C285 C 0.35184 0.70464 0.30607 0.0
H286 H 0.33562 0.78077 0.3676 0.0
C287 C 0.36497 0.72535 0.27383 0.0
H288 H 0.33017 0.71019 0.36475 0.0
C289 C 0.36817 0.76568 0.27546 0.0
C290 C 0.35816 0.78629 0.30932 0.0
H291 H 0.37368 0.71039 0.2475 0.0
H292 H 0.37923 0.78062 0.2504 0.0
C293 C 0.34364 0.76573 0.34108 0.0
C294 C 0.51127 0.08419 0.58418 0.0
C295 C 0.51222 0.07569 0.6241 0.0
H296 H 0.47573 0.09398 0.53355 0.0
C297 C 0.47757 0.06573 0.64248 0.0
H298 H 0.5376 0.09182 0.5692 0.0
C299 C 0.44236 0.06684 0.62215 0.0
C300 C 0.441 0.07816 0.58302 0.0
H301 H 0.47743 0.05852 0.67307 0.0
H302 H 0.41606 0.06038 0.6377 0.0
C303 C 0.47587 0.0855 0.56378 0.0
C304 C 0.82322 0.18693 0.89956 0.0
C305 C 0.82959 0.18191 0.8595 0.0
H306 H 0.82 0.22665 0.94766 0.0
C307 C 0.83329 0.2148 0.83616 0.0
H308 H 0.81971 0.16225 0.91834 0.0
C309 C 0.83313 0.25195 0.85309 0.0
C310 C 0.82954 0.25668 0.8936 0.0
H311 H 0.8379 0.21185 0.80514 0.0
H312 H 0.8379 0.27677 0.83477 0.0
C313 C 0.82334 0.22388 0.91643 0.0
C314 C 0.67444 0.70861 0.45111 0.0
C315 C 0.682 0.70067 0.41178 0.0
H316 H 0.66914 0.75245 0.4956 0.0
C317 C 0.69561 0.73086 0.38837 0.0
H318 H 0.66409 0.68585 0.46983 0.0
C319 C 0.69909 0.7687 0.40312 0.0
C320 C 0.68844 0.77741 0.44151 0.0
H321 H 0.70229 0.72547 0.35807 0.0
H322 H 0.70791 0.79143 0.38361 0.0
C323 C 0.67737 0.74675 0.4658 0.0
C324 C 0.76338 0.73584 0.08927 0.0
C325 C 0.78122 0.71254 0.1173 0.0
H326 H 0.7575 0.79308 0.06735 0.0
C327 C 0.79882 0.73034 0.15053 0.0
H328 H 0.74918 0.72293 0.06362 0.0
C329 C 0.80317 0.77081 0.1528 0.0
C330 C 0.78986 0.79347 0.12195 0.0
H331 H 0.81284 0.71309 0.17257 0.0
H332 H 0.8204 0.78389 0.17646 0.0
C333 C 0.76801 0.77597 0.0914 0.0
C334 C 0.6512 0.27875 0.66774 0.0
C335 C 0.6408 0.29793 0.70236 0.0
H336 H 0.65677 0.22409 0.63775 0.0
C337 C 0.631 0.27571 0.73478 0.0
H338 H 0.65907 0.29505 0.64231 0.0
C339 C 0.62967 0.23541 0.73218 0.0
C340 C 0.63822 0.21614 0.69714 0.0
H341 H 0.62328 0.28941 0.7621 0.0
H342 H 0.6209 0.21937 0.7575 0.0
C343 C 0.64999 0.23814 0.66517 0.0
C344 C 0.03016 0.40186 0.89347 0.0
C345 C 0.05388 0.39773 0.9269 0.0
H346 H 0.97191 0.40146 0.86993 0.0
C347 C 0.03631 0.39423 0.96329 0.0
H348 H 0.04286 0.40481 0.86505 0.0
C349 C -0.00383 0.39234 0.96604 0.0
C350 C 0.97234 0.39402 0.93253 0.0
H351 H 0.05359 0.39169 0.98978 0.0
H352 H 0.98383 0.38828 0.99449 0.0
C353 C 0.9896 0.40006 0.89627 0.0
C354 C 0.52988 0.54053 0.31139 0.0
C355 C 0.54358 0.55343 0.34818 0.0
H356 H 0.48076 0.52939 0.27394 0.0
C357 C 0.51702 0.5592 0.37811 0.0
H358 H 0.54988 0.53557 0.28795 0.0
C359 C 0.477 0.55621 0.36996 0.0
C360 C 0.46331 0.54716 0.33187 0.0
H361 H 0.52701 0.56933 0.40669 0.0
H362 H 0.45701 0.56409 0.39256 0.0
C363 C 0.49023 0.53705 0.30341 0.0
C364 C 0.51759 0.4501 0.6337 0.0
C365 C 0.51998 0.44569 0.67426 0.0
H366 H 0.48151 0.44868 0.5825 0.0
C367 C 0.48541 0.44082 0.69497 0.0
H368 H 0.5435 0.45418 0.61681 0.0
C369 C 0.44955 0.43761 0.67512 0.0
C370 C 0.44772 0.43901 0.63425 0.0
H371 H 0.48621 0.43739 0.72627 0.0
H372 H 0.42362 0.43205 0.69157 0.0
C373 C 0.48196 0.44669 0.61397 0.0
C374 C -0.00271 0.61475 0.04693 0.0
C375 C 0.0214 0.60789 0.07943 0.0
H376 H 0.93957 0.61822 0.02416 0.0
C377 C 0.00436 0.59705 0.1146 0.0
H378 H 0.00939 0.62292 0.01931 0.0
C379 C 0.96395 0.59445 0.11748 0.0
C380 C 0.93992 0.60256 0.08518 0.0
H381 H 0.02215 0.59156 0.1402 0.0
H382 H 0.95159 0.58685 0.14513 0.0
C383 C 0.95713 0.61209 0.04975 0.0
C384 C 0.21509 0.51849 0.04032 0.0
C385 C 0.20516 0.5508 0.01814 0.0
H386 H 0.22625 0.45783 0.03981 0.0
C387 C 0.20844 0.54849 0.9774 0.0
H388 H 0.2138 0.51954 0.07182 0.0
C389 C 0.21573 0.51306 0.95899 0.0
C390 C 0.21974 0.47939 0.98104 0.0
H391 H 0.20192 0.57313 0.95946 0.0
H392 H 0.21431 0.51143 0.92744 0.0
C393 C 0.22243 0.48305 0.0219 0.0
C394 C 0.79753 0.95611 0.33218 0.0
C395 C 0.75942 0.94154 0.33541 0.0
H396 H 0.84424 0.9696 0.29426 0.0
C397 C 0.73804 0.93189 0.30118 0.0
H398 H 0.81473 0.96405 0.35793 0.0
C399 C 0.75488 0.93524 0.26467 0.0
C400 C 0.79355 0.94822 0.26152 0.0
H401 H 0.7085 0.92087 0.30256 0.0
H402 H 0.7379 0.92649 0.23902 0.0
C403 C 0.81443 0.95937 0.29563 0.0
C404 C 0.26454 0.49375 0.48715 0.0
C405 C 0.2954 0.50124 0.51359 0.0
H406 H 0.23806 0.50828 0.4325 0.0
C407 C 0.3189 0.5344 0.50906 0.0
H408 H 0.24665 0.46779 0.48967 0.0
C409 C 0.3146 0.55715 0.47609 0.0
C410 C 0.28671 0.54699 0.44712 0.0
H411 H 0.34333 0.54025 0.52878 0.0
H412 H 0.33532 0.58058 0.47169 0.0
C413 C 0.25997 0.51674 0.45421 0.0
C414 C 0.68541 0.02305 0.78419 0.0
C415 C 0.68178 0.02353 0.74334 0.0
H416 H 0.7249 0.02205 0.8329 0.0
C417 C 0.71252 0.01014 0.72087 0.0
H418 H 0.66188 0.03227 0.80236 0.0
C419 C 0.74865 0.00438 0.73839 0.0
C420 C 0.75413 0.01168 0.77849 0.0
H421 H 0.71006 0.00875 0.68938 0.0
H422 H 0.77322 -0.00069 0.71992 0.0
C423 C 0.72158 0.01693 0.80178 0.0
C424 C 0.77092 0.46302 0.98904 0.0
C425 C 0.78925 0.43304 0.00893 0.0
H426 H 0.75261 0.52169 0.99164 0.0
C427 C 0.7935 0.43584 0.04973 0.0
H428 H 0.76605 0.4612 0.95778 0.0
C429 C 0.78575 0.47059 0.06924 0.0
C430 C 0.77369 0.50284 0.04809 0.0
H431 H 0.80667 0.41281 0.06609 0.0
H432 H 0.79355 0.47338 0.09988 0.0
C433 C 0.763 0.49765 0.00855 0.0
C434 C 0.2704 0.06471 0.74661 0.0
C435 C 0.23871 0.03922 0.75096 0.0
H436 H 0.31259 0.0872 0.70759 0.0
C437 C 0.23063 0.01065 0.72218 0.0
H438 H 0.27648 0.08756 0.76805 0.0
C439 C 0.25156 0.01014 0.68769 0.0
C440 C 0.27984 0.039 0.68134 0.0
H441 H 0.20561 0.99143 0.72458 0.0
H442 H 0.24291 0.9898 0.66458 0.0
C443 C 0.29053 0.06496 0.71177 0.0
C444 C 0.677 0.50235 0.51858 0.0
C445 C 0.66126 0.48585 0.48384 0.0
H446 H 0.68606 0.49643 0.58016 0.0
C447 C 0.64411 0.44858 0.48493 0.0
H448 H 0.69057 0.53093 0.51875 0.0
C449 C 0.64133 0.42895 0.52009 0.0
C450 C 0.65596 0.44589 0.55503 0.0
H451 H 0.63178 0.43489 0.45876 0.0
H452 H 0.62696 0.40075 0.51996 0.0
C453 C 0.67455 0.4825 0.55376 0.0
C454 C 0.27283 0.98372 0.29069 0.0
C455 C 0.30499 0.97528 0.26773 0.0
H456 H 0.2114 0.9902 0.29158 0.0
C457 C 0.30158 0.97891 0.22709 0.0
H458 H 0.27478 0.98243 0.32216 0.0
C459 C 0.26518 0.98392 0.20953 0.0
C460 C 0.23191 0.98498 0.23248 0.0
H461 H 0.32604 0.9735 0.2086 0.0
H462 H 0.26272 0.98192 0.17805 0.0
C463 C 0.23646 0.98839 0.27316 0.0
C464 C 0.73109 0.00906 0.59043 0.0
C465 C 0.71513 0.04408 0.57814 0.0
H466 H 0.73959 0.94911 0.57636 0.0
C467 C 0.70421 0.04797 0.53881 0.0
H468 H 0.73964 0.0052 0.62062 0.0
C469 C 0.7055 0.01613 0.51314 0.0
C470 C 0.71652 0.97979 0.52689 0.0
H471 H 0.69183 0.07468 0.52869 0.0
H472 H 0.6938 0.01896 0.48383 0.0
C473 C 0.7311 0.97691 0.56514 0.0
C474 C 0.2849 0.47283 0.75006 0.0
C475 C 0.27305 0.44895 0.71826 0.0
H476 H 0.27721 0.488 0.81007 0.0
C477 C 0.24117 0.42342 0.72262 0.0
H478 H 0.30922 0.49292 0.74775 0.0
C479 C 0.2225 0.42086 0.7584 0.0
C480 C 0.23559 0.44349 0.79068 0.0
H481 H 0.23115 0.40476 0.69864 0.0
H482 H 0.1988 0.4001 0.76114 0.0
C483 C 0.26652 0.46999 0.78586 0.0
C484 C 0.81517 0.03481 0.99911 0.0
C485 C 0.78923 0.02529 0.96827 0.0
H486 H 0.83594 0.02001 0.05599 0.0
C487 C 0.7591 -0.00178 0.97411 0.0
H488 H 0.83842 0.05588 0.99527 0.0
C489 C 0.75808 0.97731 0.00861 0.0
C490 C 0.7863 0.9843 0.03802 0.0
H491 H 0.73878 0.99046 0.95066 0.0
H492 H 0.73767 0.9532 0.01072 0.0
C493 C 0.8133 0.01483 0.03406 0.0
C494 C 0.19308 0.56603 0.23472 0.0
C495 C 0.19282 0.54463 0.19951 0.0
H496 H 0.22524 0.58249 0.28659 0.0
C497 C 0.22161 0.51705 0.19351 0.0
H498 H 0.17103 0.58727 0.24017 0.0
C499 C 0.25297 0.51485 0.21969 0.0
C500 C 0.2554 0.53941 0.25273 0.0
H501 H 0.22213 0.50008 0.16668 0.0
H502 H 0.27694 0.49646 0.21235 0.0
C503 C 0.22395 0.56304 0.26145 0.0
C504 C 0.25882 0.01094 0.44827 0.0
C505 C 0.27701 0.01015 0.48513 0.0
H506 H 0.24895 0.98128 0.39371 0.0
C507 C 0.29211 0.97524 0.49854 0.0
H508 H 0.2473 0.03772 0.43733 0.0
C509 C 0.29442 0.94334 0.47312 0.0
C510 C 0.28051 0.94577 0.43454 0.0
H511 H 0.30667 0.97416 0.52676 0.0
H512 H 0.31035 0.91826 0.48239 0.0
C513 C 0.25991 0.97861 0.42332 0.0
C514 C 0.80186 0.56596 0.26676 0.0
C515 C 0.79329 0.53757 0.23788 0.0
H516 H 0.78323 0.59378 0.31916 0.0
C517 C 0.76451 0.50925 0.24492 0.0
H518 H 0.82413 0.58793 0.2623 0.0
C519 C 0.74106 0.51271 0.27757 0.0
C520 C 0.74675 0.54394 0.30389 0.0
H521 H 0.75727 0.48695 0.22325 0.0
H522 H 0.71593 0.4936 0.27984 0.0
C523 C 0.77881 0.56901 0.29961 0.0
C524 C 0.1976 0.94265 0.9925 0.0
C525 C 0.18482 0.96523 0.02406 0.0
H526 H 0.2083 0.93968 0.93125 0.0
C527 C 0.17504 0.00396 0.01772 0.0
H528 H 0.20537 0.91269 0.99642 0.0
C529 C 0.17717 0.01953 0.98049 0.0
C530 C 0.18864 0.99658 0.94865 0.0
H531 H 0.16531 0.02219 0.04145 0.0
H532 H 0.16874 0.0493 0.97654 0.0
C533 C 0.19925 0.95809 0.95513 0.0
C534 C 0.72042 0.47964 0.81181 0.0
C535 C 0.72115 0.46049 0.77539 0.0
H536 H 0.74923 0.49012 0.86686 0.0
C537 C 0.75518 0.44178 0.76438 0.0
H538 H 0.69456 0.49424 0.82103 0.0
C539 C 0.78611 0.43848 0.79102 0.0
C540 C 0.78392 0.45473 0.8287 0.0
H541 H 0.75652 0.42653 0.7366 0.0
H542 H 0.81069 0.42124 0.78295 0.0
C543 C 0.75175 0.4772 0.83806 0.0
loop_
_geom_bond_atom_site_label_1
_geom_bond_atom_site_label_2
_geom_bond_distance
_geom_bond_site_symmetry_2
_ccdc_geom_bond_type
Zn0 O3 2.031 . S
Zn0 O5 2.049 . S
Zn0 O10 2.067 . S
Zn1 O2 1.962 . S
Zn1 O4 1.986 . S
Zn1 O6 1.996 . S
Zn1 O9 1.943 . S
O2 Zn1 1.962 . S
O2 C7 1.254 . S
O3 Zn0 2.031 . S
O3 C7 1.269 . S
O4 Zn1 1.986 . S
O4 C11 1.262 . S
O5 Zn0 2.049 . S
O5 C13 1.260 . S
O6 Zn1 1.996 . S
O6 C13 1.257 . S
C7 O2 1.254 . S
C7 O3 1.269 . S
C8 O9 1.249 . S
C8 O10 1.270 . S
O9 Zn1 1.943 . S
O9 C8 1.249 . S
O10 Zn0 2.067 . S
O10 C8 1.270 . S
C11 O4 1.262 . S
C11 O12 1.232 . S
O12 C11 1.232 . S
C13 O5 1.260 . S
C13 O6 1.257 . S
Zn14 O17 2.031 . S
Zn14 O19 2.049 . S
Zn14 O24 2.067 . S
Zn15 O16 1.962 . S
Zn15 O18 1.986 . S
Zn15 O20 1.996 . S
Zn15 O23 1.943 . S
O16 Zn15 1.962 . S
O16 C21 1.254 . S
O17 Zn14 2.031 . S
O17 C21 1.269 . S
O18 Zn15 1.986 . S
O18 C25 1.262 . S
O19 Zn14 2.049 . S
O19 C27 1.260 . S
O20 Zn15 1.996 . S
O20 C27 1.257 . S
C21 O16 1.254 . S
C21 O17 1.269 . S
C22 O23 1.249 . S
C22 O24 1.270 . S
O23 Zn15 1.943 . S
O23 C22 1.249 . S
O24 Zn14 2.067 . S
O24 C22 1.270 . S
C25 O18 1.262 . S
C25 O26 1.232 . S
O26 C25 1.232 . S
C27 O19 1.260 . S
C27 O20 1.257 . S
Zn28 O31 2.031 . S
Zn28 O33 2.049 . S
Zn28 O38 2.067 . S
Zn29 O30 1.962 . S
Zn29 O32 1.986 . S
Zn29 O34 1.996 . S
Zn29 O37 1.943 . S
O30 Zn29 1.962 . S
O30 C35 1.254 . S
O31 Zn28 2.031 . S
O31 C35 1.269 . S
O32 Zn29 1.986 . S
O32 C39 1.262 . S
O33 Zn28 2.049 . S
O33 C41 1.260 . S
O34 Zn29 1.996 . S
O34 C41 1.257 . S
C35 O30 1.254 . S
C35 O31 1.269 . S
C36 O37 1.249 . S
C36 O38 1.270 . S
O37 Zn29 1.943 . S
O37 C36 1.249 . S
O38 Zn28 2.067 . S
O38 C36 1.270 . S
C39 O32 1.262 . S
C39 O40 1.232 . S
O40 C39 1.232 . S
C41 O33 1.260 . S
C41 O34 1.257 . S
Zn42 O45 2.031 . S
Zn42 O47 2.049 . S
Zn42 O52 2.067 . S
Zn43 O44 1.962 . S
Zn43 O46 1.986 . S
Zn43 O48 1.996 . S
Zn43 O51 1.943 . S
O44 Zn43 1.962 . S
O44 C49 1.254 . S
O45 Zn42 2.031 . S
O45 C49 1.269 . S
O46 Zn43 1.986 . S
O46 C53 1.262 . S
O47 Zn42 2.049 . S
O47 C55 1.260 . S
O48 Zn43 1.996 . S
O48 C55 1.257 . S
C49 O44 1.254 . S
C49 O45 1.269 . S
C50 O51 1.249 . S
C50 O52 1.270 . S
O51 Zn43 1.943 . S
O51 C50 1.249 . S
O52 Zn42 2.067 . S
O52 C50 1.270 . S
C53 O46 1.262 . S
C53 O54 1.232 . S
O54 C53 1.232 . S
C55 O47 1.260 . S
C55 O48 1.257 . S
Zn56 O59 2.031 . S
Zn56 O61 2.049 . S
Zn56 O66 2.067 . S
Zn57 O58 1.962 . S
Zn57 O60 1.986 . S
Zn57 O62 1.996 . S
Zn57 O65 1.943 . S
O58 Zn57 1.962 . S
O58 C63 1.254 . S
O59 Zn56 2.031 . S
O59 C63 1.269 . S
O60 Zn57 1.986 . S
O60 C67 1.262 . S
O61 Zn56 2.049 . S
O61 C69 1.260 . S
O62 Zn57 1.996 . S
O62 C69 1.257 . S
C63 O58 1.254 . S
C63 O59 1.269 . S
C64 O65 1.249 . S
C64 O66 1.270 . S
O65 Zn57 1.943 . S
O65 C64 1.249 . S
O66 Zn56 2.067 . S
O66 C64 1.270 . S
C67 O60 1.262 . S
C67 O68 1.232 . S
O68 C67 1.232 . S
C69 O61 1.260 . S
C69 O62 1.257 . S
Zn70 O73 2.031 . S
Zn70 O75 2.049 . S
Zn70 O80 2.067 . S
Zn71 O72 1.962 . S
Zn71 O74 1.986 . S
Zn71 O76 1.996 . S
Zn71 O79 1.943 . S
O72 Zn71 1.962 . S
O72 C77 1.254 . S
O73 Zn70 2.031 . S
O73 C77 1.269 . S
O74 Zn71 1.986 . S
O74 C81 1.262 . S
O75 Zn70 2.049 . S
O75 C83 1.260 . S
O76 Zn71 1.996 . S
O76 C83 1.257 . S
C77 O72 1.254 . S
C77 O73 1.269 . S
C78 O79 1.249 . S
C78 O80 1.270 . S
O79 Zn71 1.943 . S
O79 C78 1.249 . S
O80 Zn70 2.067 . S
O80 C78 1.270 . S
C81 O74 1.262 . S
C81 O82 1.232 . S
O82 C81 1.232 . S
C83 O75 1.260 . S
C83 O76 1.257 . S
Zn84 O87 2.031 . S
Zn84 O89 2.049 . S
Zn84 O94 2.067 . S
Zn85 O86 1.962 . S
Zn85 O88 1.986 . S
Zn85 O90 1.996 . S
Zn85 O93 1.943 . S
O86 Zn85 1.962 . S
O86 C91 1.254 . S
O87 Zn84 2.031 . S
O87 C91 1.269 . S
O88 Zn85 1.986 . S
O88 C95 1.262 . S
O89 Zn84 2.049 . S
O89 C97 1.260 . S
O90 Zn85 1.996 . S
O90 C97 1.257 . S
C91 O86 1.254 . S
C91 O87 1.269 . S
C92 O93 1.249 . S
C92 O94 1.270 . S
O93 Zn85 1.943 . S
O93 C92 1.249 . S
O94 Zn84 2.067 . S
O94 C92 1.270 . S
C95 O88 1.262 . S
C95 O96 1.232 . S
O96 C95 1.232 . S
C97 O89 1.260 . S
C97 O90 1.257 . S
Zn98 O101 2.031 . S
Zn98 O103 2.049 . S
Zn98 O108 2.067 . S
Zn99 O100 1.962 . S
Zn99 O102 1.986 . S
Zn99 O104 1.996 . S
Zn99 O107 1.943 . S
O100 Zn99 1.962 . S
O100 C105 1.254 . S
O101 Zn98 2.031 . S
O101 C105 1.269 . S
O102 Zn99 1.986 . S
O102 C109 1.262 . S
O103 Zn98 2.049 . S
O103 C111 1.260 . S
O104 Zn99 1.996 . S
O104 C111 1.257 . S
C105 O100 1.254 . S
C105 O101 1.269 . S
C106 O107 1.249 . S
C106 O108 1.270 . S
O107 Zn99 1.943 . S
O107 C106 1.249 . S
O108 Zn98 2.067 . S
O108 C106 1.270 . S
C109 O102 1.262 . S
C109 O110 1.232 . S
O110 C109 1.232 . S
C111 O103 1.260 . S
C111 O104 1.257 . S
Zn112 O115 2.031 . S
Zn112 O117 2.049 . S
Zn112 O122 2.067 . S
Zn113 O114 1.962 . S
Zn113 O116 1.986 . S
Zn113 O118 1.996 . S
Zn113 O121 1.943 . S
O114 Zn113 1.962 . S
O114 C119 1.254 . S
O115 Zn112 2.031 . S
O115 C119 1.269 . S
O116 Zn113 1.986 . S
O116 C123 1.262 . S
O117 Zn112 2.049 . S
O117 C125 1.260 . S
O118 Zn113 1.996 . S
O118 C125 1.257 . S
C119 O114 1.254 . S
C119 O115 1.269 . S
C120 O121 1.249 . S
C120 O122 1.270 . S
O121 Zn113 1.943 . S
O121 C120 1.249 . S
O122 Zn112 2.067 . S
O122 C120 1.270 . S
C123 O116 1.262 . S
C123 O124 1.232 . S
O124 C123 1.232 . S
C125 O117 1.260 . S
C125 O118 1.257 . S
Zn126 O129 2.031 . S
Zn126 O131 2.049 . S
Zn126 O136 2.067 . S
Zn127 O128 1.962 . S
Zn127 O130 1.986 . S
Zn127 O132 1.996 . S
Zn127 O135 1.943 . S
O128 Zn127 1.962 . S
O128 C133 1.254 . S
O129 Zn126 2.031 . S
O129 C133 1.269 . S
O130 Zn127 1.986 . S
O130 C137 1.262 . S
O131 Zn126 2.049 . S
O131 C139 1.260 . S
O132 Zn127 1.996 . S
O132 C139 1.257 . S
C133 O128 1.254 . S
C133 O129 1.269 . S
C134 O135 1.249 . S
C134 O136 1.270 . S
O135 Zn127 1.943 . S
O135 C134 1.249 . S
O136 Zn126 2.067 . S
O136 C134 1.270 . S
C137 O130 1.262 . S
C137 O138 1.232 . S
O138 C137 1.232 . S
C139 O131 1.260 . S
C139 O132 1.257 . S
Zn140 O143 2.031 . S
Zn140 O145 2.049 . S
Zn140 O150 2.067 . S
Zn141 O142 1.962 . S
Zn141 O144 1.986 . S
Zn141 O146 1.996 . S
Zn141 O149 1.943 . S
O142 Zn141 1.962 . S
O142 C147 1.254 . S
O143 Zn140 2.031 . S
O143 C147 1.269 . S
O144 Zn141 1.986 . S
O144 C151 1.262 . S
O145 Zn140 2.049 . S
O145 C153 1.260 . S
O146 Zn141 1.996 . S
O146 C153 1.257 . S
C147 O142 1.254 . S
C147 O143 1.269 . S
C148 O149 1.249 . S
C148 O150 1.270 . S
O149 Zn141 1.943 . S
O149 C148 1.249 . S
O150 Zn140 2.067 . S
O150 C148 1.270 . S
C151 O144 1.262 . S
C151 O152 1.232 . S
O152 C151 1.232 . S
C153 O145 1.260 . S
C153 O146 1.257 . S
Zn154 O157 2.031 . S
Zn154 O159 2.049 . S
Zn154 O164 2.067 . S
Zn155 O156 1.962 . S
Zn155 O158 1.986 . S
Zn155 O160 1.996 . S
Zn155 O163 1.943 . S
O156 Zn155 1.962 . S
O156 C161 1.254 . S
O157 Zn154 2.031 . S
O157 C161 1.269 . S
O158 Zn155 1.986 . S
O158 C165 1.262 . S
O159 Zn154 2.049 . S
O159 C167 1.260 . S
O160 Zn155 1.996 . S
O160 C167 1.257 . S
C161 O156 1.254 . S
C161 O157 1.269 . S
C162 O163 1.249 . S
C162 O164 1.270 . S
O163 Zn155 1.943 . S
O163 C162 1.249 . S
O164 Zn154 2.067 . S
O164 C162 1.270 . S
C165 O158 1.262 . S
C165 O166 1.232 . S
O166 C165 1.232 . S
C167 O159 1.260 . S
C167 O160 1.257 . S
Zn168 O171 2.031 . S
Zn168 O173 2.049 . S
Zn168 O178 2.067 . S
Zn169 O170 1.962 . S
Zn169 O172 1.986 . S
Zn169 O174 1.996 . S
Zn169 O177 1.943 . S
O170 Zn169 1.962 . S
O170 C175 1.254 . S
O171 Zn168 2.031 . S
O171 C175 1.269 . S
O172 Zn169 1.986 . S
O172 C179 1.262 . S
O173 Zn168 2.049 . S
O173 C181 1.260 . S
O174 Zn169 1.996 . S
O174 C181 1.257 . S
C175 O170 1.254 . S
C175 O171 1.269 . S
C176 O177 1.249 . S
C176 O178 1.270 . S
O177 Zn169 1.943 . S
O177 C176 1.249 . S
O178 Zn168 2.067 . S
O178 C176 1.270 . S
C179 O172 1.262 . S
C179 O180 1.232 . S
O180 C179 1.232 . S
C181 O173 1.260 . S
C181 O174 1.257 . S
Zn182 O185 2.031 . S
Zn182 O187 2.049 . S
Zn182 O192 2.067 . S
Zn183 O184 1.962 . S
Zn183 O186 1.986 . S
Zn183 O188 1.996 . S
Zn183 O191 1.943 . S
O184 Zn183 1.962 . S
O184 C189 1.254 . S
O185 Zn182 2.031 . S
O185 C189 1.269 . S
O186 Zn183 1.986 . S
O186 C193 1.262 . S
O187 Zn182 2.049 . S
O187 C195 1.260 . S
O188 Zn183 1.996 . S
O188 C195 1.257 . S
C189 O184 1.254 . S
C189 O185 1.269 . S
C190 O191 1.249 . S
C190 O192 1.270 . S
O191 Zn183 1.943 . S
O191 C190 1.249 . S
O192 Zn182 2.067 . S
O192 C190 1.270 . S
C193 O186 1.262 . S
C193 O194 1.232 . S
O194 C193 1.232 . S
C195 O187 1.260 . S
C195 O188 1.257 . S
Zn196 O199 2.031 . S
Zn196 O201 2.049 . S
Zn196 O206 2.067 . S
Zn197 O198 1.962 . S
Zn197 O200 1.986 . S
Zn197 O202 1.996 . S
Zn197 O205 1.943 . S
O198 Zn197 1.962 . S
O198 C203 1.254 . S
O199 Zn196 2.031 . S
O199 C203 1.269 . S
O200 Zn197 1.986 . S
O200 C207 1.262 . S
O201 Zn196 2.049 . S
O201 C209 1.260 . S
O202 Zn197 1.996 . S
O202 C209 1.257 . S
C203 O198 1.254 . S
C203 O199 1.269 . S
C204 O205 1.249 . S
C204 O206 1.270 . S
O205 Zn197 1.943 . S
O205 C204 1.249 . S
O206 Zn196 2.067 . S
O206 C204 1.270 . S
C207 O200 1.262 . S
C207 O208 1.232 . S
O208 C207 1.232 . S
C209 O201 1.260 . S
C209 O202 1.257 . S
Zn210 O213 2.031 . S
Zn210 O215 2.049 . S
Zn210 O220 2.067 . S
Zn211 O212 1.962 . S
Zn211 O214 1.986 . S
Zn211 O216 1.996 . S
Zn211 O219 1.943 . S
O212 Zn211 1.962 . S
O212 C217 1.254 . S
O213 Zn210 2.031 . S
O213 C217 1.269 . S
O214 Zn211 1.986 . S
O214 C221 1.262 . S
O215 Zn210 2.049 . S
O215 C223 1.260 . S
O216 Zn211 1.996 . S
O216 C223 1.257 . S
C217 O212 1.254 . S
C217 O213 1.269 . S
C218 O219 1.249 . S
C218 O220 1.270 . S
O219 Zn211 1.943 . S
O219 C218 1.249 . S
O220 Zn210 2.067 . S
O220 C218 1.270 . S
C221 O214 1.262 . S
C221 O222 1.232 . S
O222 C221 1.232 . S
C223 O215 1.260 . S
C223 O216 1.257 . S
C224 C225 1.387 . S
C224 H228 0.950 . S
C224 C233 1.390 . S
C225 C224 1.387 . S
C225 C227 1.387 . S
H226 C233 0.950 . S
C227 C225 1.387 . S
C227 C229 1.390 . S
C227 H231 0.950 . S
H228 C224 0.950 . S
C229 C227 1.390 . S
C229 C230 1.387 . S
C229 H232 0.950 . S
C230 C229 1.387 . S
C230 C233 1.387 . S
H231 C227 0.950 . S
H232 C229 0.950 . S
C233 C224 1.390 . S
C233 H226 0.950 . S
C233 C230 1.387 . S
C234 C235 1.387 . S
C234 H238 0.950 . S
C234 C243 1.390 . S
C235 C234 1.387 . S
C235 C237 1.387 . S
H236 C243 0.950 . S
C237 C235 1.387 . S
C237 C239 1.390 . S
C237 H241 0.950 . S
H238 C234 0.950 . S
C239 C237 1.390 . S
C239 C240 1.387 . S
C239 H242 0.950 . S
C240 C239 1.387 . S
C240 C243 1.387 . S
H241 C237 0.950 . S
H242 C239 0.950 . S
C243 C234 1.390 . S
C243 H236 0.950 . S
C243 C240 1.387 . S
C244 C245 1.387 . S
C244 H248 0.950 . S
C244 C253 1.390 . S
C245 C244 1.387 . S
C245 C247 1.387 . S
H246 C253 0.950 . S
C247 C245 1.387 . S
C247 C249 1.390 . S
C247 H251 0.950 . S
H248 C244 0.950 . S
C249 C247 1.390 . S
C249 C250 1.387 . S
C249 H252 0.950 . S
C250 C249 1.387 . S
C250 C253 1.387 . S
H251 C247 0.950 . S
H252 C249 0.950 . S
C253 C244 1.390 . S
C253 H246 0.950 . S
C253 C250 1.387 . S
C254 C255 1.387 . S
C254 H258 0.950 . S
C254 C263 1.390 1_455 S
C255 C254 1.387 . S
C255 C257 1.387 . S
H256 C263 0.950 . S
C257 C255 1.387 . S
C257 C259 1.390 1_455 S
C257 H261 0.950 . S
H258 C254 0.950 . S
C259 C257 1.390 1_655 S
C259 C260 1.387 . S
C259 H262 0.950 . S
C260 C259 1.387 . S
C260 C263 1.387 . S
H261 C257 0.950 . S
H262 C259 0.950 . S
C263 C254 1.390 1_655 S
C263 H256 0.950 . S
C263 C260 1.387 . S
C264 C265 1.387 . S
C264 H268 0.950 . S
C264 C273 1.390 . S
C265 C264 1.387 . S
C265 C267 1.387 . S
H266 C273 0.950 . S
C267 C265 1.387 . S
C267 C269 1.390 . S
C267 H271 0.950 . S
H268 C264 0.950 . S
C269 C267 1.390 . S
C269 C270 1.387 . S
C269 H272 0.950 . S
C270 C269 1.387 . S
C270 C273 1.387 . S
H271 C267 0.950 . S
H272 C269 0.950 . S
C273 C264 1.390 . S
C273 H266 0.950 . S
C273 C270 1.387 . S
C274 C275 1.387 . S
C274 H278 0.950 . S
C274 C283 1.390 1_655 S
C275 C274 1.387 . S
C275 C277 1.387 . S
H276 C283 0.950 . S
C277 C275 1.387 . S
C277 C279 1.390 1_655 S
C277 H281 0.950 . S
H278 C274 0.950 . S
C279 C277 1.390 1_455 S
C279 C280 1.387 . S
C279 H282 0.950 . S
C280 C279 1.387 . S
C280 C283 1.387 . S
H281 C277 0.950 . S
H282 C279 0.950 . S
C283 C274 1.390 1_455 S
C283 H276 0.950 . S
C283 C280 1.387 . S
C284 C285 1.387 . S
C284 H288 0.950 . S
C284 C293 1.390 . S
C285 C284 1.387 . S
C285 C287 1.387 . S
H286 C293 0.950 . S
C287 C285 1.387 . S
C287 C289 1.390 . S
C287 H291 0.950 . S
H288 C284 0.950 . S
C289 C287 1.390 . S
C289 C290 1.387 . S
C289 H292 0.950 . S
C290 C289 1.387 . S
C290 C293 1.387 . S
H291 C287 0.950 . S
H292 C289 0.950 . S
C293 C284 1.390 . S
C293 H286 0.950 . S
C293 C290 1.387 . S
C294 C295 1.387 . S
C294 H298 0.950 . S
C294 C303 1.390 . S
C295 C294 1.387 . S
C295 C297 1.387 . S
H296 C303 0.950 . S
C297 C295 1.387 . S
C297 C299 1.390 . S
C297 H301 0.950 . S
H298 C294 0.950 . S
C299 C297 1.390 . S
C299 C300 1.387 . S
C299 H302 0.950 . S
C300 C299 1.387 . S
C300 C303 1.387 . S
H301 C297 0.950 . S
H302 C299 0.950 . S
C303 C294 1.390 . S
C303 H296 0.950 . S
C303 C300 1.387 . S
C304 C305 1.387 . S
C304 H308 0.950 . S
C304 C313 1.390 . S
C305 C304 1.387 . S
C305 C307 1.387 . S
H306 C313 0.950 . S
C307 C305 1.387 . S
C307 C309 1.390 . S
C307 H311 0.950 . S
H308 C304 0.950 . S
C309 C307 1.390 . S
C309 C310 1.387 . S
C309 H312 0.950 . S
C310 C309 1.387 . S
C310 C313 1.387 . S
H311 C307 0.950 . S
H312 C309 0.950 . S
C313 C304 1.390 . S
C313 H306 0.950 . S
C313 C310 1.387 . S
C314 C315 1.387 . S
C314 H318 0.950 . S
C314 C323 1.390 . S
C315 C314 1.387 . S
C315 C317 1.387 . S
H316 C323 0.950 . S
C317 C315 1.387 . S
C317 C319 1.390 . S
C317 H321 0.950 . S
H318 C314 0.950 . S
C319 C317 1.390 . S
C319 C320 1.387 . S
C319 H322 0.950 . S
C320 C319 1.387 . S
C320 C323 1.387 . S
H321 C317 0.950 . S
H322 C319 0.950 . S
C323 C314 1.390 . S
C323 H316 0.950 . S
C323 C320 1.387 . S
C324 C325 1.387 . S
C324 H328 0.950 . S
C324 C333 1.390 . S
C325 C324 1.387 . S
C325 C327 1.387 . S
H326 C333 0.950 . S
C327 C325 1.387 . S
C327 C329 1.390 . S
C327 H331 0.950 . S
H328 C324 0.950 . S
C329 C327 1.390 . S
C329 C330 1.387 . S
C329 H332 0.950 . S
C330 C329 1.387 . S
C330 C333 1.387 . S
H331 C327 0.950 . S
H332 C329 0.950 . S
C333 C324 1.390 . S
C333 H326 0.950 . S
C333 C330 1.387 . S
C334 C335 1.387 . S
C334 H338 0.950 . S
C334 C343 1.390 . S
C335 C334 1.387 . S
C335 C337 1.387 . S
H336 C343 0.950 . S
C337 C335 1.387 . S
C337 C339 1.390 . S
C337 H341 0.950 . S
H338 C334 0.950 . S
C339 C337 1.390 . S
C339 C340 1.387 . S
C339 H342 0.950 . S
C340 C339 1.387 . S
C340 C343 1.387 . S
H341 C337 0.950 . S
H342 C339 0.950 . S
C343 C334 1.390 . S
C343 H336 0.950 . S
C343 C340 1.387 . S
C344 C345 1.387 . S
C344 H348 0.950 . S
C344 C353 1.390 1_455 S
C345 C344 1.387 . S
C345 C347 1.387 . S
H346 C353 0.950 . S
C347 C345 1.387 . S
C347 C349 1.390 1_455 S
C347 H351 0.950 . S
H348 C344 0.950 . S
C349 C347 1.390 1_655 S
C349 C350 1.387 . S
C349 H352 0.950 . S
C350 C349 1.387 . S
C350 C353 1.387 . S
H351 C347 0.950 . S
H352 C349 0.950 . S
C353 C344 1.390 1_655 S
C353 H346 0.950 . S
C353 C350 1.387 . S
C354 C355 1.387 . S
C354 H358 0.950 . S
C354 C363 1.390 . S
C355 C354 1.387 . S
C355 C357 1.387 . S
H356 C363 0.950 . S
C357 C355 1.387 . S
C357 C359 1.390 . S
C357 H361 0.950 . S
H358 C354 0.950 . S
C359 C357 1.390 . S
C359 C360 1.387 . S
C359 H362 0.950 . S
C360 C359 1.387 . S
C360 C363 1.387 . S
H361 C357 0.950 . S
H362 C359 0.950 . S
C363 C354 1.390 . S
C363 H356 0.950 . S
C363 C360 1.387 . S
C364 C365 1.387 . S
C364 H368 0.950 . S
C364 C373 1.390 . S
C365 C364 1.387 . S
C365 C367 1.387 . S
H366 C373 0.950 . S
C367 C365 1.387 . S
C367 C369 1.390 . S
C367 H371 0.950 . S
H368 C364 0.950 . S
C369 C367 1.390 . S
C369 C370 1.387 . S
C369 H372 0.950 . S
C370 C369 1.387 . S
C370 C373 1.387 . S
H371 C367 0.950 . S
H372 C369 0.950 . S
C373 C364 1.390 . S
C373 H366 0.950 . S
C373 C370 1.387 . S
C374 C375 1.387 . S
C374 H378 0.950 . S
C374 C383 1.390 1_455 S
C375 C374 1.387 . S
C375 C377 1.387 . S
H376 C383 0.950 . S
C377 C375 1.387 . S
C377 C379 1.390 1_455 S
C377 H381 0.950 . S
H378 C374 0.950 . S
C379 C377 1.390 1_655 S
C379 C380 1.387 . S
C379 H382 0.950 . S
C380 C379 1.387 . S
C380 C383 1.387 . S
H381 C377 0.950 . S
H382 C379 0.950 . S
C383 C374 1.390 1_655 S
C383 H376 0.950 . S
C383 C380 1.387 . S
C384 C385 1.387 . S
C384 H388 0.950 . S
C384 C393 1.390 1_554 S
C385 C384 1.387 . S
C385 C387 1.387 . S
H386 C393 0.950 . S
C387 C385 1.387 . S
C387 C389 1.390 1_554 S
C387 H391 0.950 . S
H388 C384 0.950 . S
C389 C387 1.390 1_556 S
C389 C390 1.387 . S
C389 H392 0.950 . S
C390 C389 1.387 . S
C390 C393 1.387 . S
H391 C387 0.950 . S
H392 C389 0.950 . S
C393 C384 1.390 1_556 S
C393 H386 0.950 . S
C393 C390 1.387 . S
C394 C395 1.387 . S
C394 H398 0.950 . S
C394 C403 1.390 . S
C395 C394 1.387 . S
C395 C397 1.387 . S
H396 C403 0.950 . S
C397 C395 1.387 . S
C397 C399 1.390 . S
C397 H401 0.950 . S
H398 C394 0.950 . S
C399 C397 1.390 . S
C399 C400 1.387 . S
C399 H402 0.950 . S
C400 C399 1.387 . S
C400 C403 1.387 . S
H401 C397 0.950 . S
H402 C399 0.950 . S
C403 C394 1.390 . S
C403 H396 0.950 . S
C403 C400 1.387 . S
C404 C405 1.387 . S
C404 H408 0.950 . S
C404 C413 1.390 . S
C405 C404 1.387 . S
C405 C407 1.387 . S
H406 C413 0.950 . S
C407 C405 1.387 . S
C407 C409 1.390 . S
C407 H411 0.950 . S
H408 C404 0.950 . S
C409 C407 1.390 . S
C409 C410 1.387 . S
C409 H412 0.950 . S
C410 C409 1.387 . S
C410 C413 1.387 . S
H411 C407 0.950 . S
H412 C409 0.950 . S
C413 C404 1.390 . S
C413 H406 0.950 . S
C413 C410 1.387 . S
C414 C415 1.387 . S
C414 H418 0.950 . S
C414 C423 1.390 . S
C415 C414 1.387 . S
C415 C417 1.387 . S
H416 C423 0.950 . S
C417 C415 1.387 . S
C417 C419 1.390 . S
C417 H421 0.950 . S
H418 C414 0.950 . S
C419 C417 1.390 . S
C419 C420 1.387 . S
C419 H422 0.950 . S
C420 C419 1.387 . S
C420 C423 1.387 . S
H421 C417 0.950 . S
H422 C419 0.950 . S
C423 C414 1.390 . S
C423 H416 0.950 . S
C423 C420 1.387 . S
C424 C425 1.387 . S
C424 H428 0.950 . S
C424 C433 1.390 1_556 S
C425 C424 1.387 . S
C425 C427 1.387 . S
H426 C433 0.950 . S
C427 C425 1.387 . S
C427 C429 1.390 1_556 S
C427 H431 0.950 . S
H428 C424 0.950 . S
C429 C427 1.390 1_554 S
C429 C430 1.387 . S
C429 H432 0.950 . S
C430 C429 1.387 . S
C430 C433 1.387 . S
H431 C427 0.950 . S
H432 C429 0.950 . S
C433 C424 1.390 1_554 S
C433 H426 0.950 . S
C433 C430 1.387 . S
C434 C435 1.387 . S
C434 H438 0.950 . S
C434 C443 1.390 . S
C435 C434 1.387 . S
C435 C437 1.387 . S
H436 C443 0.950 . S
C437 C435 1.387 . S
C437 C439 1.390 . S
C437 H441 0.950 . S
H438 C434 0.950 . S
C439 C437 1.390 . S
C439 C440 1.387 . S
C439 H442 0.950 . S
C440 C439 1.387 . S
C440 C443 1.387 . S
H441 C437 0.950 . S
H442 C439 0.950 . S
C443 C434 1.390 . S
C443 H436 0.950 . S
C443 C440 1.387 . S
C444 C445 1.387 . S
C444 H448 0.950 . S
C444 C453 1.390 . S
C445 C444 1.387 . S
C445 C447 1.387 . S
H446 C453 0.950 . S
C447 C445 1.387 . S
C447 C449 1.390 . S
C447 H451 0.950 . S
H448 C444 0.950 . S
C449 C447 1.390 . S
C449 C450 1.387 . S
C449 H452 0.950 . S
C450 C449 1.387 . S
C450 C453 1.387 . S
H451 C447 0.950 . S
H452 C449 0.950 . S
C453 C444 1.390 . S
C453 H446 0.950 . S
C453 C450 1.387 . S
C454 C455 1.387 . S
C454 H458 0.950 . S
C454 C463 1.390 . S
C455 C454 1.387 . S
C455 C457 1.387 . S
H456 C463 0.950 . S
C457 C455 1.387 . S
C457 C459 1.390 . S
C457 H461 0.950 . S
H458 C454 0.950 . S
C459 C457 1.390 . S
C459 C460 1.387 . S
C459 H462 0.950 . S
C460 C459 1.387 . S
C460 C463 1.387 . S
H461 C457 0.950 . S
H462 C459 0.950 . S
C463 C454 1.390 . S
C463 H456 0.950 . S
C463 C460 1.387 . S
C464 C465 1.387 . S
C464 H468 0.950 . S
C464 C473 1.390 1_545 S
C465 C464 1.387 . S
C465 C467 1.387 . S
H466 C473 0.950 . S
C467 C465 1.387 . S
C467 C469 1.390 1_545 S
C467 H471 0.950 . S
H468 C464 0.950 . S
C469 C467 1.390 1_565 S
C469 C470 1.387 . S
C469 H472 0.950 . S
C470 C469 1.387 . S
C470 C473 1.387 . S
H471 C467 0.950 . S
H472 C469 0.950 . S
C473 C464 1.390 1_565 S
C473 H466 0.950 . S
C473 C470 1.387 . S
C474 C475 1.387 . S
C474 H478 0.950 . S
C474 C483 1.390 . S
C475 C474 1.387 . S
C475 C477 1.387 . S
H476 C483 0.950 . S
C477 C475 1.387 . S
C477 C479 1.390 . S
C477 H481 0.950 . S
H478 C474 0.950 . S
C479 C477 1.390 . S
C479 C480 1.387 . S
C479 H482 0.950 . S
C480 C479 1.387 . S
C480 C483 1.387 . S
H481 C477 0.950 . S
H482 C479 0.950 . S
C483 C474 1.390 . S
C483 H476 0.950 . S
C483 C480 1.387 . S
C484 C485 1.387 . S
C484 H488 0.950 . S
C484 C493 1.390 1_546 S
C485 C484 1.387 . S
C485 C487 1.387 . S
H486 C493 0.950 . S
C487 C485 1.387 . S
C487 C489 1.390 1_546 S
C487 H491 0.950 . S
H488 C484 0.950 . S
C489 C487 1.390 1_564 S
C489 C490 1.387 . S
C489 H492 0.950 . S
C490 C489 1.387 . S
C490 C493 1.387 . S
H491 C487 0.950 . S
H492 C489 0.950 . S
C493 C484 1.390 1_564 S
C493 H486 0.950 . S
C493 C490 1.387 . S
C494 C495 1.387 . S
C494 H498 0.950 . S
C494 C503 1.390 . S
C495 C494 1.387 . S
C495 C497 1.387 . S
H496 C503 0.950 . S
C497 C495 1.387 . S
C497 C499 1.390 . S
C497 H501 0.950 . S
H498 C494 0.950 . S
C499 C497 1.390 . S
C499 C500 1.387 . S
C499 H502 0.950 . S
C500 C499 1.387 . S
C500 C503 1.387 . S
H501 C497 0.950 . S
H502 C499 0.950 . S
C503 C494 1.390 . S
C503 H496 0.950 . S
C503 C500 1.387 . S
C504 C505 1.387 . S
C504 H508 0.950 . S
C504 C513 1.390 . S
C505 C504 1.387 . S
C505 C507 1.387 1_545 S
H506 C513 0.950 . S
C507 C505 1.387 1_565 S
C507 C509 1.390 . S
C507 H511 0.950 . S
H508 C504 0.950 . S
C509 C507 1.390 . S
C509 C510 1.387 . S
C509 H512 0.950 . S
C510 C509 1.387 . S
C510 C513 1.387 1_565 S
H511 C507 0.950 . S
H512 C509 0.950 . S
C513 C504 1.390 . S
C513 H506 0.950 . S
C513 C510 1.387 1_545 S
C514 C515 1.387 . S
C514 H518 0.950 . S
C514 C523 1.390 . S
C515 C514 1.387 . S
C515 C517 1.387 . S
H516 C523 0.950 . S
C517 C515 1.387 . S
C517 C519 1.390 . S
C517 H521 0.950 . S
H518 C514 0.950 . S
C519 C517 1.390 . S
C519 C520 1.387 . S
C519 H522 0.950 . S
C520 C519 1.387 . S
C520 C523 1.387 . S
H521 C517 0.950 . S
H522 C519 0.950 . S
C523 C514 1.390 . S
C523 H516 0.950 . S
C523 C520 1.387 . S
C524 C525 1.387 . S
C524 H528 0.950 . S
C524 C533 1.390 1_564 S
C525 C524 1.387 . S
C525 C527 1.387 . S
H526 C533 0.950 . S
C527 C525 1.387 . S
C527 C529 1.390 1_564 S
C527 H531 0.950 . S
H528 C524 0.950 . S
C529 C527 1.390 1_546 S
C529 C530 1.387 . S
C529 H532 0.950 . S
C530 C529 1.387 . S
C530 C533 1.387 . S
H531 C527 0.950 . S
H532 C529 0.950 . S
C533 C524 1.390 1_546 S
C533 H526 0.950 . S
C533 C530 1.387 . S
C534 C535 1.387 . S
C534 H538 0.950 . S
C534 C543 1.390 . S
C535 C534 1.387 . S
C535 C537 1.387 . S
H536 C543 0.950 . S
C537 C535 1.387 . S
C537 C539 1.390 . S
C537 H541 0.950 . S
H538 C534 0.950 . S
C539 C537 1.390 . S
C539 C540 1.387 . S
C539 H542 0.950 . S
C540 C539 1.387 . S
C540 C543 1.387 . S
H541 C537 0.950 . S
H542 C539 0.950 . S
C543 C534 1.390 . S
C543 H536 0.950 . S
C543 C540 1.387 . S
C225 C162 1.340 . S
C230 C13 1.354 . S
C235 C223 1.398 . S
C240 C22 1.399 . S
C245 C41 1.278 . S
C250 C139 1.259 . S
C255 C195 1.262 . S
C260 C55 1.248 . S
C265 C69 1.457 . S
C270 C190 1.433 . S
C275 C78 1.407 . S
C280 C167 1.422 . S
C285 C92 1.478 . S
C290 C218 1.483 . S
C295 C111 1.381 . S
C300 C134 1.382 . S
C305 C50 1.322 . S
C310 C125 1.337 . S
C315 C148 1.418 . S
C320 C27 1.432 . S
C325 C181 1.286 . S
C330 C83 1.294 . S
C335 C204 1.498 . S
C340 C106 1.502 . S
C345 C64 1.439 . S
C350 C120 1.452 . S
C355 C153 1.312 . S
C360 C97 1.297 . S
C365 C209 1.469 . S
C370 C36 1.446 . S
C375 C8 1.431 . S
C380 C176 1.420 . S
C385 C7 1.275 . S
C390 C63 1.271 . S
C395 C25 1.212 . S
C400 C81 1.207 . S
C405 C35 1.323 . S
C410 C95 1.338 . S
C415 C105 1.352 . S
C420 C49 1.339 . S
C425 C119 1.270 . S
C430 C175 1.267 . S
C435 C189 1.283 . S
C440 C137 1.295 . S
C445 C151 1.251 . S
C450 C207 1.258 . S
C455 C217 1.356 . S
C460 C161 1.343 . S
C465 C109 1.309 . S
C470 C21 1.296 . S
C475 C39 1.282 . S
C480 C67 1.288 . S
C485 C53 1.321 . S
C490 C77 1.315 . S
C495 C11 1.237 . S
C500 C91 1.232 . S
C505 C133 1.294 . S
C510 C221 1.306 . S
C515 C179 1.367 . S
C520 C147 1.357 . S
C525 C165 1.239 . S
C530 C193 1.234 . S
C535 C203 1.235 . S
C540 C123 1.241 . S
