# Generated by pormake.
# Topology wht, (6)-cn, num edge types: 1
# Building blocks:
#     Node 0, Type 0, BuildingBlock: VOLQOD_clean_sbu_1, # of connection points: 6
#     Node 1, Type 0, BuildingBlock: VOLQOD_clean_sbu_1, # of connection points: 6
#     Node 2, Type 0, BuildingBlock: VOLQOD_clean_sbu_1, # of connection points: 6
#     Node 3, Type 0, BuildingBlock: VOLQOD_clean_sbu_1, # of connection points: 6
#     Node 4, Type 0, BuildingBlock: VOLQOD_clean_sbu_1, # of connection points: 6
#     Node 5, Type 0, BuildingBlock: VOLQOD_clean_sbu_1, # of connection points: 6
#     Node 6, Type 0, BuildingBlock: VOLQOD_clean_sbu_1, # of connection points: 6
#     Node 7, Type 0, BuildingBlock: VOLQOD_clean_sbu_1, # of connection points: 6
#     Edge 8, Type (0, 0), BuildingBlock: AJUNOK_clean_linker_0, # of connection points: 2
#     Edge 9, Type (0, 0), BuildingBlock: AJUNOK_clean_linker_0, # of connection points: 2
#     Edge 10, Type (0, 0), BuildingBlock: AJUNOK_clean_linker_0, # of connection points: 2
#     Edge 11, Type (0, 0), BuildingBlock: AJUNOK_clean_linker_0, # of connection points: 2
#     Edge 12, Type (0, 0), BuildingBlock: AJUNOK_clean_linker_0, # of connection points: 2
#     Edge 13, Type (0, 0), BuildingBlock: AJUNOK_clean_linker_0, # of connection points: 2
#     Edge 14, Type (0, 0), BuildingBlock: AJUNOK_clean_linker_0, # of connection points: 2
#     Edge 15, Type (0, 0), BuildingBlock: AJUNOK_clean_linker_0, # of connection points: 2
#     Edge 16, Type (0, 0), BuildingBlock: AJUNOK_clean_linker_0, # of connection points: 2
#     Edge 17, Type (0, 0), BuildingBlock: AJUNOK_clean_linker_0, # of connection points: 2
#     Edge 18, Type (0, 0), BuildingBlock: AJUNOK_clean_linker_0, # of connection points: 2
#     Edge 19, Type (0, 0), BuildingBlock: AJUNOK_clean_linker_0, # of connection points: 2
#     Edge 20, Type (0, 0), BuildingBlock: AJUNOK_clean_linker_0, # of connection points: 2
#     Edge 21, Type (0, 0), BuildingBlock: AJUNOK_clean_linker_0, # of connection points: 2
#     Edge 22, Type (0, 0), BuildingBlock: AJUNOK_clean_linker_0, # of connection points: 2
#     Edge 23, Type (0, 0), BuildingBlock: AJUNOK_clean_linker_0, # of connection points: 2
#     Edge 24, Type (0, 0), BuildingBlock: AJUNOK_clean_linker_0, # of connection points: 2
#     Edge 25, Type (0, 0), BuildingBlock: AJUNOK_clean_linker_0, # of connection points: 2
#     Edge 26, Type (0, 0), BuildingBlock: AJUNOK_clean_linker_0, # of connection points: 2
#     Edge 27, Type (0, 0), BuildingBlock: AJUNOK_clean_linker_0, # of connection points: 2
#     Edge 28, Type (0, 0), BuildingBlock: AJUNOK_clean_linker_0, # of connection points: 2
#     Edge 29, Type (0, 0), BuildingBlock: AJUNOK_clean_linker_0, # of connection points: 2
#     Edge 30, Type (0, 0), BuildingBlock: AJUNOK_clean_linker_0, # of connection points: 2
#     Edge 31, Type (0, 0), BuildingBlock: AJUNOK_clean_linker_0, # of connection points: 2
# Relax obj value: 0.363
# Max RMSD: 0.254
# Mean RMSD: 0.253
data_MOF--net-wht--node1-VOLQOD_clean_sbu_1--edge1-AJUNOK_clean_linker_0
_symmetry_space_group_name_H-M    P1
_symmetry_Int_Tables_number       1
_symmetry_cell_setting            triclinic
loop_
_symmetry_equiv_pos_as_xyz
'x, y, z'
_cell_length_a     21.106022
_cell_length_b     21.087962
_cell_length_c     37.736989
_cell_angle_alpha  90.62046
_cell_angle_beta   90.068673
_cell_angle_gamma 90.02412
loop_
_atom_site_label
_atom_site_type_symbol
_atom_site_fract_x
_atom_site_fract_y
_atom_site_fract_z
_atom_type_partial_charge
O0 O 0.14608 0.29309 0.19885 0.0
Zn1 Zn 0.1547 0.27051 0.14702 0.0
O2 O 0.06916 0.26659 0.12958 0.0
Zn3 Zn 0.04206 0.18204 0.11839 0.0
Zn4 Zn 0.00868 0.30532 0.16138 0.0
Zn5 Zn 0.06788 0.30881 0.08622 0.0
O6 O 0.01617 0.16985 0.06754 0.0
O7 O 0.07814 0.2465 0.04735 0.0
O8 O 0.19889 0.18232 0.13961 0.0
O9 O 0.11568 0.12552 0.12199 0.0
O10 O 0.98069 0.15053 0.15428 0.0
O11 O 0.96553 0.23626 0.18766 0.0
O12 O 0.94005 0.35374 0.13307 0.0
O13 O 0.20042 0.34791 0.12494 0.0
O14 O 0.98491 0.3458 0.07982 0.0
O15 O 0.1304 0.3787 0.08481 0.0
C16 C 0.10801 0.32987 0.21556 0.0
C17 C 0.04676 0.19556 0.04241 0.0
C18 C 0.95794 0.17732 0.18186 0.0
C19 C 0.17406 0.12939 0.12968 0.0
C20 C 0.93921 0.36223 0.09954 0.0
C21 C 0.18143 0.38794 0.1019 0.0
O22 O 0.05686 0.34996 0.20114 0.0
O23 O 0.27813 0.60561 0.30869 0.0
Zn24 Zn 0.2474 0.64564 0.35385 0.0
O25 O 0.25273 0.58163 0.38862 0.0
Zn26 Zn 0.1719 0.54964 0.40007 0.0
Zn27 Zn 0.30515 0.51524 0.37031 0.0
Zn28 Zn 0.29273 0.61346 0.42982 0.0
O29 O 0.16852 0.54322 0.45363 0.0
O30 O 0.22822 0.6271 0.46795 0.0
O31 O 0.15509 0.67914 0.34928 0.0
O32 O 0.10588 0.61141 0.38455 0.0
O33 O 0.15378 0.47066 0.37011 0.0
O34 O 0.24826 0.45428 0.34567 0.0
O35 O 0.35076 0.46945 0.41011 0.0
O36 O 0.31734 0.71038 0.36397 0.0
O37 O 0.34194 0.54467 0.45103 0.0
O38 O 0.35395 0.68316 0.4169 0.0
C39 C 0.33311 0.5808 0.30591 0.0
C40 C 0.18935 0.58334 0.47661 0.0
C41 C 0.18962 0.44123 0.3482 0.0
C42 C 0.10425 0.65874 0.36392 0.0
C43 C 0.35949 0.48954 0.44175 0.0
C44 C 0.35854 0.71579 0.38871 0.0
O45 O 0.35952 0.55278 0.33187 0.0
O46 O 0.86216 0.70747 0.70769 0.0
Zn47 Zn 0.84283 0.72358 0.65595 0.0
O48 O 0.92448 0.72773 0.6328 0.0
Zn49 Zn 0.9475 0.81268 0.62025 0.0
Zn50 Zn 0.99113 0.69103 0.66088 0.0
Zn51 Zn 0.91881 0.68176 0.59006 0.0
O52 O 0.96932 0.82062 0.56835 0.0
O53 O 0.90825 0.74063 0.5505 0.0
O54 O 0.79414 0.80945 0.64873 0.0
O55 O 0.87162 0.86661 0.62492 0.0
O56 O 0.01175 0.84787 0.65459 0.0
O57 O 0.04226 0.7603 0.68203 0.0
O58 O 0.05141 0.63523 0.63167 0.0
O59 O 0.79557 0.64238 0.63813 0.0
O60 O 0.99777 0.63712 0.58107 0.0
O61 O 0.85353 0.61507 0.59154 0.0
C62 C 0.90479 0.67278 0.72184 0.0
C63 C 0.93855 0.79144 0.54405 0.0
C64 C 0.04457 0.81993 0.67808 0.0
C65 C 0.81487 0.86144 0.63558 0.0
C66 C 0.04548 0.62023 0.599 0.0
C67 C 0.80843 0.60369 0.61268 0.0
O68 O 0.95218 0.65219 0.70402 0.0
O69 O 0.77218 0.36191 0.96061 0.0
Zn70 Zn 0.75286 0.34257 0.90832 0.0
O71 O 0.74764 0.42461 0.88699 0.0
Zn72 Zn 0.66286 0.45299 0.87779 0.0
Zn73 Zn 0.79337 0.48747 0.91279 0.0
Zn74 Zn 0.78341 0.41746 0.84212 0.0
O75 O 0.64584 0.4651 0.82559 0.0
O76 O 0.71525 0.39109 0.80966 0.0
O77 O 0.66438 0.2972 0.89994 0.0
O78 O 0.60543 0.38142 0.88687 0.0
O79 O 0.63845 0.5256 0.91021 0.0
O80 O 0.73107 0.5429 0.93679 0.0
O81 O 0.84676 0.54309 0.87995 0.0
O82 O 0.83353 0.29707 0.88764 0.0
O83 O 0.81681 0.49969 0.82842 0.0
O84 O 0.85606 0.35851 0.84203 0.0
C85 C 0.8104 0.4033 0.97374 0.0
C86 C 0.66381 0.42102 0.80451 0.0
C87 C 0.67226 0.55385 0.93353 0.0
C88 C 0.61041 0.32233 0.89245 0.0
C89 C 0.84472 0.54293 0.8461 0.0
C90 C 0.8704 0.31287 0.86212 0.0
O91 O 0.8348 0.44658 0.95455 0.0
O92 O 0.63798 0.20211 0.52845 0.0
Zn93 Zn 0.65017 0.2223 0.58037 0.0
O94 O 0.5666 0.22604 0.60006 0.0
Zn95 Zn 0.54054 0.31036 0.61238 0.0
Zn96 Zn 0.50388 0.19055 0.56851 0.0
Zn97 Zn 0.56893 0.18187 0.64328 0.0
O98 O 0.51569 0.32001 0.66335 0.0
O99 O 0.57936 0.24413 0.68285 0.0
O100 O 0.69601 0.30929 0.58877 0.0
O101 O 0.61484 0.36611 0.60905 0.0
O102 O 0.47794 0.34481 0.5778 0.0
O103 O 0.46116 0.26132 0.54283 0.0
O104 O 0.43626 0.14328 0.59769 0.0
O105 O 0.69583 0.14285 0.59963 0.0
O106 O 0.4863 0.14328 0.64975 0.0
O107 O 0.63304 0.11207 0.64328 0.0
C108 C 0.59928 0.16409 0.51299 0.0
C109 C 0.54806 0.29512 0.68806 0.0
C110 C 0.45393 0.3199 0.55001 0.0
C111 C 0.6727 0.36188 0.60029 0.0
C112 C 0.43848 0.13021 0.6307 0.0
C113 C 0.68093 0.10275 0.62351 0.0
O114 O 0.5493 0.14424 0.52862 0.0
O115 O 0.27202 0.13714 0.77078 0.0
Zn116 Zn 0.25265 0.15617 0.82289 0.0
O117 O 0.24712 0.07345 0.84389 0.0
Zn118 Zn 0.16204 0.04696 0.85311 0.0
Zn119 Zn 0.28903 0.00837 0.81727 0.0
Zn120 Zn 0.28434 0.07951 0.88872 0.0
O121 O 0.14644 0.02999 0.90483 0.0
O122 O 0.21652 0.10238 0.92233 0.0
O123 O 0.16454 0.20297 0.83057 0.0
O124 O 0.1066 0.11971 0.84594 0.0
O125 O 0.13305 0.98051 0.81852 0.0
O126 O 0.22446 0.95455 0.79324 0.0
O127 O 0.34168 0.95052 0.84928 0.0
O128 O 0.33337 0.2017 0.8437 0.0
O129 O 0.31916 0.99723 0.90106 0.0
O130 O 0.3562 0.14011 0.8892 0.0
C131 C 0.30838 0.09482 0.75705 0.0
C132 C 0.16514 0.07201 0.92701 0.0
C133 C 0.16467 0.94952 0.79547 0.0
C134 C 0.11093 0.17824 0.83911 0.0
C135 C 0.34333 0.95218 0.88312 0.0
C136 C 0.37026 0.18616 0.86931 0.0
O137 O 0.33038 0.04907 0.77542 0.0
O138 O 0.35755 0.78524 0.02186 0.0
Zn139 Zn 0.33999 0.76797 0.0737 0.0
O140 O 0.42152 0.76552 0.09638 0.0
Zn141 Zn 0.45099 0.68094 0.10447 0.0
Zn142 Zn 0.48197 0.81066 0.06854 0.0
Zn143 Zn 0.41465 0.80508 0.14111 0.0
O144 O 0.46811 0.66488 0.15625 0.0
O145 O 0.40365 0.73928 0.17802 0.0
O146 O 0.29562 0.68021 0.07991 0.0
O147 O 0.37963 0.62271 0.09476 0.0
O148 O 0.52095 0.65643 0.07059 0.0
O149 O 0.5348 0.74816 0.04316 0.0
O150 O 0.53976 0.86632 0.09884 0.0
O151 O 0.29233 0.84753 0.09273 0.0
O152 O 0.49322 0.85088 0.15096 0.0
O153 O 0.34828 0.87152 0.14082 0.0
C154 C 0.39586 0.82575 0.00882 0.0
C155 C 0.4351 0.68817 0.1815 0.0
C156 C 0.54612 0.68947 0.04629 0.0
C157 C 0.3211 0.62657 0.0872 0.0
C158 C 0.53707 0.87457 0.13232 0.0
C159 C 0.30421 0.88446 0.11914 0.0
O160 O 0.43853 0.85222 0.02793 0.0
O161 O 0.78029 0.87546 0.416 0.0
Zn162 Zn 0.74841 0.84304 0.36962 0.0
O163 O 0.75361 0.91281 0.33836 0.0
Zn164 Zn 0.67224 0.94466 0.32729 0.0
Zn165 Zn 0.80336 0.97861 0.36004 0.0
Zn166 Zn 0.79534 0.88665 0.29645 0.0
O167 O 0.66865 0.95631 0.2743 0.0
O168 O 0.73189 0.87675 0.25745 0.0
O169 O 0.65626 0.80958 0.37332 0.0
O170 O 0.6065 0.88037 0.34003 0.0
O171 O 0.65198 0.02092 0.35887 0.0
O172 O 0.74463 0.03607 0.38575 0.0
O173 O 0.85078 0.02847 0.32295 0.0
O174 O 0.8171 0.77848 0.35676 0.0
O175 O 0.84596 0.95772 0.27923 0.0
O176 O 0.85624 0.81526 0.30644 0.0
C177 C 0.83515 0.90017 0.41977 0.0
C178 C 0.69048 0.91897 0.25026 0.0
C179 C 0.68599 0.04861 0.38239 0.0
C180 C 0.6055 0.83084 0.35901 0.0
C181 C 0.86301 0.01148 0.29118 0.0
C182 C 0.85922 0.77722 0.33243 0.0
O183 O 0.85827 0.93758 0.3968 0.0
C184 C 0.93359 0.07104 0.20617 0.0
C185 C 0.93077 0.13733 0.21002 0.0
C186 C 0.91441 0.03129 0.23336 0.0
C187 C 0.89105 0.05585 0.26561 0.0
H188 H 0.95154 0.0492 0.18209 0.0
H189 H 0.91732 0.98057 0.22875 0.0
S190 S 0.87334 0.22603 0.2894 0.0
N191 N 0.90287 0.22614 0.24891 0.0
N192 N 0.86587 0.15066 0.30003 0.0
C193 C 0.88818 0.122 0.27012 0.0
C194 C 0.90794 0.16285 0.24229 0.0
C195 C 0.40695 0.38623 0.46079 0.0
C196 C 0.38352 0.44673 0.46968 0.0
C197 C 0.42719 0.34437 0.4871 0.0
C198 C 0.42486 0.36149 0.52328 0.0
H199 H 0.41009 0.37111 0.43333 0.0
H200 H 0.4465 0.29894 0.4789 0.0
S201 S 0.36206 0.51173 0.56114 0.0
N202 N 0.35533 0.51981 0.51788 0.0
N203 N 0.39373 0.44107 0.56684 0.0
C204 C 0.40008 0.42101 0.53264 0.0
C205 C 0.37939 0.46364 0.506 0.0
C206 C 0.13301 0.83287 0.721 0.0
C207 C 0.07746 0.85701 0.70563 0.0
C208 C 0.16018 0.86215 0.75077 0.0
C209 C 0.13157 0.91532 0.7668 0.0
H210 H 0.15538 0.79079 0.71003 0.0
H211 H 0.20371 0.84288 0.76143 0.0
S212 S 0.98527 0.99642 0.73688 0.0
N213 N 0.99475 0.93716 0.70843 0.0
N214 N 0.04519 0.99164 0.7649 0.0
C215 C 0.07581 0.93976 0.75179 0.0
C216 C 0.049 0.91083 0.72099 0.0
C217 C 0.62863 0.61444 0.02458 0.0
C218 C 0.58023 0.65778 0.01739 0.0
C219 C 0.65966 0.58275 -0.00313 0.0
C220 C 0.64171 0.59205 0.96131 0.0
H221 H 0.64261 0.60516 0.05168 0.0
H222 H 0.69667 0.54922 0.00341 0.0
S223 S 0.51652 0.69979 0.92895 0.0
N224 N 0.51566 0.70901 0.97247 0.0
N225 N 0.57259 0.64714 0.92045 0.0
C226 C 0.5931 0.63495 0.95384 0.0
C227 C 0.5627 0.66851 0.98194 0.0
C228 C 0.08638 0.39476 0.27059 0.0
C229 C 0.12465 0.35052 0.2523 0.0
C230 C 0.10454 0.41955 0.30377 0.0
C231 C 0.16178 0.40121 0.3198 0.0
H232 H 0.04331 0.41251 0.25863 0.0
H233 H 0.07579 0.45662 0.31566 0.0
S234 S 0.27386 0.27936 0.28632 0.0
N235 N 0.21869 0.28345 0.2554 0.0
N236 N 0.25265 0.33091 0.31729 0.0
C237 C 0.19799 0.35369 0.30319 0.0
C238 C 0.17955 0.32818 0.26957 0.0
C239 C 0.08117 0.54544 0.55321 0.0
C240 C 0.09736 0.59229 0.57837 0.0
C241 C 0.11422 0.53983 0.52127 0.0
C242 C 0.16458 0.58108 0.51336 0.0
H243 H 0.03831 0.51775 0.55649 0.0
H244 H 0.09678 0.50621 0.50167 0.0
S245 S 0.23525 0.70042 0.57487 0.0
N246 N 0.17366 0.6722 0.59659 0.0
N247 N 0.23721 0.66131 0.53672 0.0
C248 C 0.18648 0.62224 0.54044 0.0
C249 C 0.15266 0.62767 0.57308 0.0
C250 C 0.92757 0.57832 0.80565 0.0
C251 C 0.87305 0.59333 0.82519 0.0
C252 C 0.93986 0.60768 0.7733 0.0
C253 C 0.89741 0.65243 0.75916 0.0
H254 H 0.95749 0.5392 0.81363 0.0
H255 H 0.98049 0.59157 0.75819 0.0
S256 S 0.75345 0.71534 0.80392 0.0
N257 N 0.7809 0.66097 0.8311 0.0
N258 N 0.8036 0.71715 0.77039 0.0
C259 C 0.84615 0.67245 0.78046 0.0
C260 C 0.8341 0.64263 0.81352 0.0
C261 C 0.84439 0.33721 0.06513 0.0
C262 C 0.88325 0.3844 0.08035 0.0
C263 C 0.81743 0.34502 0.03141 0.0
C264 C 0.82846 0.40043 0.01185 0.0
H265 H 0.84133 0.29098 0.07729 0.0
H266 H 0.79213 0.30541 0.01959 0.0
S267 S 0.91394 0.54391 0.04435 0.0
N268 N 0.9222 0.49202 0.07647 0.0
N269 N 0.8704 0.50825 0.01368 0.0
C270 C 0.86035 0.45104 0.02896 0.0
C271 C 0.88767 0.44277 0.0632 0.0
C272 C 0.67417 0.15727 0.46185 0.0
C273 C 0.61527 0.14087 0.47672 0.0
C274 C 0.69434 0.13114 0.42961 0.0
C275 C 0.65639 0.08783 0.41059 0.0
H276 H 0.70653 0.1886 0.47585 0.0
H277 H 0.74149 0.14269 0.42034 0.0
S278 S 0.49474 0.03506 0.43527 0.0
N279 N 0.51638 0.08314 0.46793 0.0
N280 N 0.55465 0.03389 0.40718 0.0
C281 C 0.5955 0.0744 0.42368 0.0
C282 C 0.57495 0.10078 0.45681 0.0
C283 C 0.36097 0.04794 0.70344 0.0
C284 C 0.32666 0.09836 0.71904 0.0
C285 C 0.38858 0.05374 0.66993 0.0
C286 C 0.38274 0.10997 0.65066 0.0
H287 H 0.37038 0.00509 0.71811 0.0
H288 H 0.4207 0.0169 0.66089 0.0
S289 S 0.28745 0.25076 0.67575 0.0
N290 N 0.27977 0.20244 0.70964 0.0
N291 N 0.33248 0.21293 0.64668 0.0
C292 C 0.34215 0.15737 0.66378 0.0
C293 C 0.31418 0.15186 0.69809 0.0
C294 C 0.43466 0.88668 0.95675 0.0
C295 C 0.39004 0.84442 0.97115 0.0
C296 C 0.42464 0.91457 0.92377 0.0
C297 C 0.37008 0.90074 0.90391 0.0
H298 H 0.47553 0.9019 0.97201 0.0
H299 H 0.45623 0.95219 0.91555 0.0
S300 S 0.24555 0.78404 0.92573 0.0
N301 N 0.29443 0.78237 0.95991 0.0
N302 N 0.2759 0.83582 0.89794 0.0
C303 C 0.32918 0.85319 0.91583 0.0
C304 C 0.339 0.82481 0.94954 0.0
C305 C 0.57153 0.95011 0.17799 0.0
C306 C 0.58843 0.90506 0.15206 0.0
C307 C 0.60805 0.95825 0.20856 0.0
C308 C 0.66233 0.92096 0.21434 0.0
H309 H 0.52632 0.97433 0.17639 0.0
H310 H 0.59043 0.99014 0.22897 0.0
S311 S 0.73386 0.80735 0.14997 0.0
N312 N 0.66789 0.83113 0.13066 0.0
N313 N 0.73767 0.84637 0.18811 0.0
C314 C 0.68393 0.8817 0.18637 0.0
C315 C 0.64668 0.8739 0.15509 0.0
C316 C 0.09887 0.06393 0.98151 0.0
C317 C 0.12023 0.09886 0.95247 0.0
C318 C 0.06771 0.09462 0.00971 0.0
C319 C 0.05722 0.16062 0.00913 0.0
H320 H 0.11056 0.0141 0.98368 0.0
H321 H 0.05706 0.06768 0.03325 0.0
S322 S 0.09313 0.26953 0.93549 0.0
N323 N 0.12141 0.20017 0.92243 0.0
N324 N 0.06103 0.2572 0.97468 0.0
C325 C 0.07221 0.19409 0.97839 0.0
C326 C 0.1045 0.16331 0.9502 0.0
C327 C 0.44944 0.65707 0.24445 0.0
C328 C 0.41942 0.64813 0.21157 0.0
C329 C 0.42456 0.62931 0.27508 0.0
C330 C 0.3685 0.59327 0.27343 0.0
H331 H 0.48993 0.68844 0.2468 0.0
H332 H 0.44624 0.64033 0.30046 0.0
S333 S 0.27497 0.55358 0.19318 0.0
N334 N 0.33382 0.59794 0.17866 0.0
N335 N 0.28621 0.54711 0.23631 0.0
C336 C 0.34025 0.58155 0.24041 0.0
C337 C 0.36598 0.60882 0.20935 0.0
C338 C 0.87502 0.80871 0.45235 0.0
C339 C 0.87527 0.87453 0.44776 0.0
C340 C 0.90225 0.78176 0.48212 0.0
C341 C 0.92938 0.81988 0.50891 0.0
H342 H 0.8508 0.77792 0.43358 0.0
H343 H 0.89789 0.73091 0.48522 0.0
S344 S 0.95386 0.99406 0.50528 0.0
N345 N 0.91416 0.97665 0.46866 0.0
N346 N 0.96434 0.92617 0.52599 0.0
C347 C 0.93587 0.88539 0.50284 0.0
C348 C 0.90876 0.9128 0.47189 0.0
C349 C 0.5795 0.29715 0.75108 0.0
C350 C 0.55953 0.33078 0.72118 0.0
C351 C 0.60921 0.32826 0.77927 0.0
C352 C 0.61967 0.39398 0.77859 0.0
H353 H 0.57612 0.24589 0.75165 0.0
H354 H 0.62737 0.30013 0.80092 0.0
S355 S 0.56713 0.50529 0.70953 0.0
N356 N 0.54484 0.43472 0.69464 0.0
N357 N 0.601 0.49311 0.74836 0.0
C358 C 0.59436 0.42924 0.75078 0.0
C359 C 0.56399 0.39753 0.72181 0.0
C360 C 0.18841 0.0203 0.10412 0.0
C361 C 0.21121 0.06945 0.12652 0.0
C362 C 0.21801 0.96079 0.10221 0.0
C363 C 0.27157 0.94717 0.12288 0.0
H364 H 0.14688 0.0277 0.08777 0.0
H365 H 0.19847 0.92517 0.08441 0.0
S366 S 0.35161 0.05996 0.1852 0.0
N367 N 0.29155 0.10085 0.1692 0.0
N368 N 0.34756 0.98934 0.16601 0.0
C369 C 0.29545 0.99624 0.14519 0.0
C370 C 0.26541 0.0572 0.14682 0.0
C371 C 0.46959 0.74758 0.40635 0.0
C372 C 0.41901 0.75091 0.38184 0.0
C373 C 0.53012 0.77173 0.3985 0.0
C374 C 0.54274 0.80088 0.36593 0.0
H375 H 0.46297 0.72482 0.43167 0.0
H376 H 0.56706 0.76825 0.41834 0.0
S377 S 0.42833 0.82114 0.29198 0.0
N378 N 0.387 0.78554 0.32309 0.0
N379 N 0.49999 0.83105 0.30868 0.0
C380 C 0.49276 0.80506 0.34125 0.0
C381 C 0.43125 0.78022 0.34911 0.0
C382 C 0.70973 0.00367 0.65708 0.0
C383 C 0.71517 0.0409 0.62625 0.0
C384 C 0.73885 0.94365 0.65959 0.0
C385 C 0.77427 0.91845 0.63127 0.0
H386 H 0.68336 0.02138 0.67972 0.0
H387 H 0.73553 0.91798 0.68422 0.0
S388 S 0.79603 0.99178 0.54309 0.0
N389 N 0.75418 0.04441 0.56571 0.0
N390 N 0.80872 0.93256 0.57045 0.0
C391 C 0.7781 0.95398 0.59992 0.0
C392 C 0.74875 0.01486 0.59739 0.0
C393 C 0.44473 0.27791 0.85967 0.0
C394 C 0.43238 0.21922 0.87543 0.0
C395 C 0.50248 0.30964 0.86525 0.0
C396 C 0.55132 0.28418 0.8866 0.0
H397 H 0.40928 0.30002 0.84312 0.0
H398 H 0.5088 0.3549 0.8524 0.0
S399 S 0.54524 0.12967 0.93222 0.0
N400 N 0.47574 0.13519 0.91234 0.0
N401 N 0.584 0.19519 0.92236 0.0
C402 C 0.5405 0.22476 0.90177 0.0
C403 C 0.48124 0.19242 0.8964 0.0
C404 C 0.72013 0.52915 0.62886 0.0
C405 C 0.77478 0.54151 0.60893 0.0
C406 C 0.68894 0.47051 0.62631 0.0
C407 C 0.7111 0.42101 0.60397 0.0
H408 H 0.70088 0.56515 0.64649 0.0
H409 H 0.64662 0.46411 0.64205 0.0
S410 S 0.85393 0.42728 0.54717 0.0
N411 N 0.85115 0.49772 0.56661 0.0
N412 N 0.79214 0.3879 0.56223 0.0
C413 C 0.76639 0.43198 0.58444 0.0
C414 C 0.79812 0.49202 0.58674 0.0
C415 C 0.00166 0.18888 0.86463 0.0
C416 C 0.05151 0.21596 0.84466 0.0
C417 C 0.94402 0.22041 0.87042 0.0
C418 C 0.93264 0.28039 0.85613 0.0
H419 H 0.00707 0.14256 0.87638 0.0
H420 H 0.90786 0.19708 0.88591 0.0
S421 S 0.04779 0.37435 0.80327 0.0
N422 N 0.08593 0.30785 0.81178 0.0
N423 N 0.97757 0.36739 0.82209 0.0
C424 C 0.98227 0.30876 0.83648 0.0
C425 C 0.04154 0.27666 0.83094 0.0
C426 C 0.31294 0.51144 0.10279 0.0
C427 C 0.28364 0.56647 0.08919 0.0
C428 C 0.27996 0.4542 0.1066 0.0
C429 C 0.21629 0.44863 0.09641 0.0
H430 H 0.36194 0.51246 0.11132 0.0
H431 H 0.30474 0.414 0.11765 0.0
S432 S 0.11679 0.57755 0.05898 0.0
N433 N 0.18662 0.61107 0.06545 0.0
N434 N 0.12456 0.50345 0.07198 0.0
C435 C 0.18629 0.50288 0.08229 0.0
C436 C 0.21987 0.56164 0.07885 0.0
C437 C 0.97415 0.75537 0.31872 0.0
C438 C 0.91898 0.74034 0.3381 0.0
C439 C 0.03368 0.72961 0.32735 0.0
C440 C 0.04094 0.68734 0.35569 0.0
H441 H 0.97196 0.78906 0.2973 0.0
H442 H 0.07435 0.74319 0.31169 0.0
S443 S 0.91109 0.62985 0.41395 0.0
N444 N 0.87552 0.67796 0.38608 0.0
N445 N 0.98656 0.6303 0.40263 0.0
C446 C 0.98582 0.67073 0.3748 0.0
C447 C 0.92526 0.69686 0.36592 0.0
loop_
_geom_bond_atom_site_label_1
_geom_bond_atom_site_label_2
_geom_bond_distance
_geom_bond_site_symmetry_2
_ccdc_geom_bond_type
O0 Zn1 1.953 . S
O0 C16 1.225 . S
Zn1 O0 1.953 . S
Zn1 O2 1.949 . S
Zn1 O8 1.919 . S
Zn1 O13 1.924 . S
O2 Zn1 1.949 . S
O2 Zn3 1.923 . S
O2 Zn4 1.950 1_455 S
O2 Zn5 1.945 . S
Zn3 O2 1.923 . S
Zn3 O6 1.933 . S
Zn3 O9 1.941 . S
Zn3 O10 1.965 1_455 S
Zn4 O2 1.950 1_655 S
Zn4 O11 1.938 . S
Zn4 O12 1.906 . S
Zn4 O22 1.953 1_655 S
Zn5 O2 1.945 . S
Zn5 O7 1.932 . S
Zn5 O14 1.991 . S
Zn5 O15 1.910 . S
O6 Zn3 1.933 . S
O6 C17 1.226 . S
O7 Zn5 1.932 . S
O7 C17 1.307 . S
O8 Zn1 1.919 . S
O8 C19 1.253 . S
O9 Zn3 1.941 . S
O9 C19 1.283 . S
O10 Zn3 1.965 1_655 S
O10 C18 1.303 . S
O11 Zn4 1.938 . S
O11 C18 1.247 . S
O12 Zn4 1.906 . S
O12 C20 1.304 . S
O13 Zn1 1.924 . S
O13 C21 1.311 . S
O14 Zn5 1.991 . S
O14 C20 1.256 1_455 S
O15 Zn5 1.910 . S
O15 C21 1.231 . S
C16 O0 1.225 . S
C16 O22 1.298 . S
C17 O6 1.226 . S
C17 O7 1.307 . S
C18 O10 1.303 . S
C18 O11 1.247 . S
C19 O8 1.253 . S
C19 O9 1.283 . S
C20 O12 1.304 . S
C20 O14 1.256 1_655 S
C21 O13 1.311 . S
C21 O15 1.231 . S
O22 Zn4 1.953 1_455 S
O22 C16 1.298 . S
O23 Zn24 1.953 . S
O23 C39 1.225 . S
Zn24 O23 1.953 . S
Zn24 O25 1.949 . S
Zn24 O31 1.919 . S
Zn24 O36 1.924 . S
O25 Zn24 1.949 . S
O25 Zn26 1.923 . S
O25 Zn27 1.950 . S
O25 Zn28 1.945 . S
Zn26 O25 1.923 . S
Zn26 O29 1.933 . S
Zn26 O32 1.941 . S
Zn26 O33 1.965 . S
Zn27 O25 1.950 . S
Zn27 O34 1.938 . S
Zn27 O35 1.906 . S
Zn27 O45 1.953 . S
Zn28 O25 1.945 . S
Zn28 O30 1.932 . S
Zn28 O37 1.977 . S
Zn28 O38 1.910 . S
O29 Zn26 1.933 . S
O29 C40 1.226 . S
O30 Zn28 1.932 . S
O30 C40 1.307 . S
O31 Zn24 1.919 . S
O31 C42 1.253 . S
O32 Zn26 1.941 . S
O32 C42 1.283 . S
O33 Zn26 1.965 . S
O33 C41 1.303 . S
O34 Zn27 1.938 . S
O34 C41 1.247 . S
O35 Zn27 1.906 . S
O35 C43 1.304 . S
O36 Zn24 1.924 . S
O36 C44 1.311 . S
O37 Zn28 1.977 . S
O37 C43 1.272 . S
O38 Zn28 1.910 . S
O38 C44 1.231 . S
C39 O23 1.225 . S
C39 O45 1.298 . S
C40 O29 1.226 . S
C40 O30 1.307 . S
C41 O33 1.303 . S
C41 O34 1.247 . S
C42 O31 1.253 . S
C42 O32 1.283 . S
C43 O35 1.304 . S
C43 O37 1.272 . S
C44 O36 1.311 . S
C44 O38 1.231 . S
O45 Zn27 1.953 . S
O45 C39 1.298 . S
O46 Zn47 1.953 . S
O46 C62 1.225 . S
Zn47 O46 1.953 . S
Zn47 O48 1.949 . S
Zn47 O54 1.919 . S
Zn47 O59 1.924 . S
O48 Zn47 1.949 . S
O48 Zn49 1.923 . S
O48 Zn50 1.950 1_655 S
O48 Zn51 1.945 . S
Zn49 O48 1.923 . S
Zn49 O52 1.933 . S
Zn49 O55 1.941 . S
Zn49 O56 1.965 1_655 S
Zn50 O48 1.950 1_455 S
Zn50 O57 1.938 . S
Zn50 O58 1.906 . S
Zn50 O68 1.953 1_455 S
Zn51 O48 1.945 . S
Zn51 O53 1.932 . S
Zn51 O60 1.977 . S
Zn51 O61 1.910 . S
O52 Zn49 1.933 . S
O52 C63 1.226 . S
O53 Zn51 1.932 . S
O53 C63 1.307 . S
O54 Zn47 1.919 . S
O54 C65 1.253 . S
O55 Zn49 1.941 . S
O55 C65 1.283 . S
O56 Zn49 1.965 1_455 S
O56 C64 1.303 . S
O57 Zn50 1.938 . S
O57 C64 1.247 . S
O58 Zn50 1.906 . S
O58 C66 1.304 . S
O59 Zn47 1.924 . S
O59 C67 1.311 . S
O60 Zn51 1.977 . S
O60 C66 1.272 1_655 S
O61 Zn51 1.910 . S
O61 C67 1.231 . S
C62 O46 1.225 . S
C62 O68 1.298 . S
C63 O52 1.226 . S
C63 O53 1.307 . S
C64 O56 1.303 . S
C64 O57 1.247 . S
C65 O54 1.253 . S
C65 O55 1.283 . S
C66 O58 1.304 . S
C66 O60 1.272 1_455 S
C67 O59 1.311 . S
C67 O61 1.231 . S
O68 Zn50 1.953 1_655 S
O68 C62 1.298 . S
O69 Zn70 1.953 . S
O69 C85 1.225 . S
Zn70 O69 1.953 . S
Zn70 O71 1.949 . S
Zn70 O77 1.919 . S
Zn70 O82 1.924 . S
O71 Zn70 1.949 . S
O71 Zn72 1.923 . S
O71 Zn73 1.950 . S
O71 Zn74 1.945 . S
Zn72 O71 1.923 . S
Zn72 O75 1.933 . S
Zn72 O78 1.941 . S
Zn72 O79 1.965 . S
Zn73 O71 1.950 . S
Zn73 O80 1.938 . S
Zn73 O81 1.906 . S
Zn73 O91 1.953 . S
Zn74 O71 1.945 . S
Zn74 O76 1.932 . S
Zn74 O83 1.977 . S
Zn74 O84 1.910 . S
O75 Zn72 1.933 . S
O75 C86 1.226 . S
O76 Zn74 1.932 . S
O76 C86 1.307 . S
O77 Zn70 1.919 . S
O77 C88 1.253 . S
O78 Zn72 1.941 . S
O78 C88 1.283 . S
O79 Zn72 1.965 . S
O79 C87 1.303 . S
O80 Zn73 1.938 . S
O80 C87 1.247 . S
O81 Zn73 1.906 . S
O81 C89 1.304 . S
O82 Zn70 1.924 . S
O82 C90 1.311 . S
O83 Zn74 1.977 . S
O83 C89 1.272 . S
O84 Zn74 1.910 . S
O84 C90 1.231 . S
C85 O69 1.225 . S
C85 O91 1.298 . S
C86 O75 1.226 . S
C86 O76 1.307 . S
C87 O79 1.303 . S
C87 O80 1.247 . S
C88 O77 1.253 . S
C88 O78 1.283 . S
C89 O81 1.304 . S
C89 O83 1.272 . S
C90 O82 1.311 . S
C90 O84 1.231 . S
O91 Zn73 1.953 . S
O91 C85 1.298 . S
O92 Zn93 1.953 . S
O92 C108 1.225 . S
Zn93 O92 1.953 . S
Zn93 O94 1.949 . S
Zn93 O100 1.919 . S
Zn93 O105 1.924 . S
O94 Zn93 1.949 . S
O94 Zn95 1.923 . S
O94 Zn96 1.950 . S
O94 Zn97 1.945 . S
Zn95 O94 1.923 . S
Zn95 O98 1.933 . S
Zn95 O101 1.941 . S
Zn95 O102 1.965 . S
Zn96 O94 1.950 . S
Zn96 O103 1.938 . S
Zn96 O104 1.906 . S
Zn96 O114 1.953 . S
Zn97 O94 1.945 . S
Zn97 O99 1.932 . S
Zn97 O106 1.977 . S
Zn97 O107 1.910 . S
O98 Zn95 1.933 . S
O98 C109 1.226 . S
O99 Zn97 1.932 . S
O99 C109 1.307 . S
O100 Zn93 1.919 . S
O100 C111 1.253 . S
O101 Zn95 1.941 . S
O101 C111 1.283 . S
O102 Zn95 1.965 . S
O102 C110 1.303 . S
O103 Zn96 1.938 . S
O103 C110 1.247 . S
O104 Zn96 1.906 . S
O104 C112 1.304 . S
O105 Zn93 1.924 . S
O105 C113 1.311 . S
O106 Zn97 1.977 . S
O106 C112 1.272 . S
O107 Zn97 1.910 . S
O107 C113 1.231 . S
C108 O92 1.225 . S
C108 O114 1.298 . S
C109 O98 1.226 . S
C109 O99 1.307 . S
C110 O102 1.303 . S
C110 O103 1.247 . S
C111 O100 1.253 . S
C111 O101 1.283 . S
C112 O104 1.304 . S
C112 O106 1.272 . S
C113 O105 1.311 . S
C113 O107 1.231 . S
O114 Zn96 1.953 . S
O114 C108 1.298 . S
O115 Zn116 1.953 . S
O115 C131 1.225 . S
Zn116 O115 1.953 . S
Zn116 O117 1.949 . S
Zn116 O123 1.919 . S
Zn116 O128 1.924 . S
O117 Zn116 1.949 . S
O117 Zn118 1.923 . S
O117 Zn119 1.950 1_545 S
O117 Zn120 1.945 . S
Zn118 O117 1.923 . S
Zn118 O121 1.933 . S
Zn118 O124 1.941 . S
Zn118 O125 1.965 1_545 S
Zn119 O117 1.950 1_565 S
Zn119 O126 1.938 . S
Zn119 O127 1.906 . S
Zn119 O137 1.953 1_565 S
Zn120 O117 1.945 . S
Zn120 O122 1.932 . S
Zn120 O129 1.987 . S
Zn120 O130 1.910 . S
O121 Zn118 1.933 . S
O121 C132 1.226 . S
O122 Zn120 1.932 . S
O122 C132 1.307 . S
O123 Zn116 1.919 . S
O123 C134 1.253 . S
O124 Zn118 1.941 . S
O124 C134 1.283 . S
O125 Zn118 1.965 1_565 S
O125 C133 1.303 . S
O126 Zn119 1.938 . S
O126 C133 1.247 . S
O127 Zn119 1.906 . S
O127 C135 1.304 . S
O128 Zn116 1.924 . S
O128 C136 1.311 . S
O129 Zn120 1.987 . S
O129 C135 1.260 1_545 S
O130 Zn120 1.910 . S
O130 C136 1.231 . S
C131 O115 1.225 . S
C131 O137 1.298 . S
C132 O121 1.226 . S
C132 O122 1.307 . S
C133 O125 1.303 . S
C133 O126 1.247 . S
C134 O123 1.253 . S
C134 O124 1.283 . S
C135 O127 1.304 . S
C135 O129 1.260 1_565 S
C136 O128 1.311 . S
C136 O130 1.231 . S
O137 Zn119 1.953 1_545 S
O137 C131 1.298 . S
O138 Zn139 1.953 . S
O138 C154 1.225 . S
Zn139 O138 1.953 . S
Zn139 O140 1.949 . S
Zn139 O146 1.919 . S
Zn139 O151 1.924 . S
O140 Zn139 1.949 . S
O140 Zn141 1.923 . S
O140 Zn142 1.950 . S
O140 Zn143 1.945 . S
Zn141 O140 1.923 . S
Zn141 O144 1.933 . S
Zn141 O147 1.941 . S
Zn141 O148 1.965 . S
Zn142 O140 1.950 . S
Zn142 O149 1.938 . S
Zn142 O150 1.906 . S
Zn142 O160 1.953 . S
Zn143 O140 1.945 . S
Zn143 O145 1.932 . S
Zn143 O152 1.977 . S
Zn143 O153 1.910 . S
O144 Zn141 1.933 . S
O144 C155 1.226 . S
O145 Zn143 1.932 . S
O145 C155 1.307 . S
O146 Zn139 1.919 . S
O146 C157 1.253 . S
O147 Zn141 1.941 . S
O147 C157 1.283 . S
O148 Zn141 1.965 . S
O148 C156 1.303 . S
O149 Zn142 1.938 . S
O149 C156 1.247 . S
O150 Zn142 1.906 . S
O150 C158 1.304 . S
O151 Zn139 1.924 . S
O151 C159 1.311 . S
O152 Zn143 1.977 . S
O152 C158 1.272 . S
O153 Zn143 1.910 . S
O153 C159 1.231 . S
C154 O138 1.225 . S
C154 O160 1.298 . S
C155 O144 1.226 . S
C155 O145 1.307 . S
C156 O148 1.303 . S
C156 O149 1.247 . S
C157 O146 1.253 . S
C157 O147 1.283 . S
C158 O150 1.304 . S
C158 O152 1.272 . S
C159 O151 1.311 . S
C159 O153 1.231 . S
O160 Zn142 1.953 . S
O160 C154 1.298 . S
O161 Zn162 1.953 . S
O161 C177 1.225 . S
Zn162 O161 1.953 . S
Zn162 O163 1.949 . S
Zn162 O169 1.919 . S
Zn162 O174 1.924 . S
O163 Zn162 1.949 . S
O163 Zn164 1.923 . S
O163 Zn165 1.950 1_565 S
O163 Zn166 1.945 . S
Zn164 O163 1.923 . S
Zn164 O167 1.933 . S
Zn164 O170 1.941 . S
Zn164 O171 1.965 1_565 S
Zn165 O163 1.950 1_545 S
Zn165 O172 1.938 . S
Zn165 O173 1.906 . S
Zn165 O183 1.953 1_545 S
Zn166 O163 1.945 . S
Zn166 O168 1.932 . S
Zn166 O175 1.977 . S
Zn166 O176 1.910 . S
O167 Zn164 1.933 . S
O167 C178 1.226 . S
O168 Zn166 1.932 . S
O168 C178 1.307 . S
O169 Zn162 1.919 . S
O169 C180 1.253 . S
O170 Zn164 1.941 . S
O170 C180 1.283 . S
O171 Zn164 1.965 1_545 S
O171 C179 1.303 . S
O172 Zn165 1.938 . S
O172 C179 1.247 . S
O173 Zn165 1.906 . S
O173 C181 1.304 . S
O174 Zn162 1.924 . S
O174 C182 1.311 . S
O175 Zn166 1.977 . S
O175 C181 1.272 1_565 S
O176 Zn166 1.910 . S
O176 C182 1.231 . S
C177 O161 1.225 . S
C177 O183 1.298 . S
C178 O167 1.226 . S
C178 O168 1.307 . S
C179 O171 1.303 . S
C179 O172 1.247 . S
C180 O169 1.253 . S
C180 O170 1.283 . S
C181 O173 1.304 . S
C181 O175 1.272 1_545 S
C182 O174 1.311 . S
C182 O176 1.231 . S
O183 Zn165 1.953 1_565 S
O183 C177 1.298 . S
C184 C185 1.369 . S
C184 C186 1.419 . S
C184 H188 0.930 1_655 S
C185 C184 1.369 . S
C185 C194 1.429 . S
C186 C184 1.419 . S
C186 C187 1.363 . S
C186 H189 0.929 . S
C187 C186 1.363 . S
C187 C193 1.428 . S
H188 C184 0.930 1_455 S
H189 C186 0.929 . S
S190 N191 1.613 . S
S190 N192 1.610 . S
N191 S190 1.613 . S
N191 C194 1.350 . S
N192 S190 1.610 . S
N192 C193 1.351 . S
C193 C187 1.428 . S
C193 N192 1.351 . S
C193 C194 1.434 . S
C194 C185 1.429 . S
C194 N191 1.350 . S
C194 C193 1.434 . S
C195 C196 1.369 . S
C195 C197 1.419 . S
C195 H199 0.930 . S
C196 C195 1.369 . S
C196 C205 1.429 . S
C197 C195 1.419 . S
C197 C198 1.363 . S
C197 H200 0.929 . S
C198 C197 1.363 . S
C198 C204 1.428 . S
H199 C195 0.930 . S
H200 C197 0.929 . S
S201 N202 1.613 . S
S201 N203 1.610 . S
N202 S201 1.613 . S
N202 C205 1.350 . S
N203 S201 1.610 . S
N203 C204 1.351 . S
C204 C198 1.428 . S
C204 N203 1.351 . S
C204 C205 1.434 . S
C205 C196 1.429 . S
C205 N202 1.350 . S
C205 C204 1.434 . S
C206 C207 1.369 . S
C206 C208 1.419 . S
C206 H210 0.930 . S
C207 C206 1.369 . S
C207 C216 1.429 . S
C208 C206 1.419 . S
C208 C209 1.363 . S
C208 H211 0.929 . S
C209 C208 1.363 . S
C209 C215 1.428 . S
H210 C206 0.930 . S
H211 C208 0.929 . S
S212 N213 1.613 . S
S212 N214 1.610 1_655 S
N213 S212 1.613 . S
N213 C216 1.350 1_655 S
N214 S212 1.610 1_455 S
N214 C215 1.351 . S
C215 C209 1.428 . S
C215 N214 1.351 . S
C215 C216 1.434 . S
C216 C207 1.429 . S
C216 N213 1.350 1_455 S
C216 C215 1.434 . S
C217 C218 1.369 . S
C217 C219 1.419 1_554 S
C217 H221 0.930 . S
C218 C217 1.369 . S
C218 C227 1.429 . S
C219 C217 1.419 1_556 S
C219 C220 1.363 . S
C219 H222 0.929 . S
C220 C219 1.363 . S
C220 C226 1.428 . S
H221 C217 0.930 . S
H222 C219 0.929 . S
S223 N224 1.635 . S
S223 N225 1.610 . S
N224 S223 1.635 . S
N224 C227 1.348 1_556 S
N225 S223 1.610 . S
N225 C226 1.351 . S
C226 C220 1.428 . S
C226 N225 1.351 . S
C226 C227 1.434 1_556 S
C227 C218 1.429 . S
C227 N224 1.348 1_554 S
C227 C226 1.434 1_554 S
C228 C229 1.369 . S
C228 C230 1.419 . S
C228 H232 0.930 . S
C229 C228 1.369 . S
C229 C238 1.429 . S
C230 C228 1.419 . S
C230 C231 1.363 . S
C230 H233 0.929 . S
C231 C230 1.363 . S
C231 C237 1.428 . S
H232 C228 0.930 . S
H233 C230 0.929 . S
S234 N235 1.613 . S
S234 N236 1.610 . S
N235 S234 1.613 . S
N235 C238 1.350 . S
N236 S234 1.610 . S
N236 C237 1.351 . S
C237 C231 1.428 . S
C237 N236 1.351 . S
C237 C238 1.434 . S
C238 C229 1.429 . S
C238 N235 1.350 . S
C238 C237 1.434 . S
C239 C240 1.369 . S
C239 C241 1.419 . S
C239 H243 0.930 . S
C240 C239 1.369 . S
C240 C249 1.429 . S
C241 C239 1.419 . S
C241 C242 1.363 . S
C241 H244 0.929 . S
C242 C241 1.363 . S
C242 C248 1.428 . S
H243 C239 0.930 . S
H244 C241 0.929 . S
S245 N246 1.613 . S
S245 N247 1.610 . S
N246 S245 1.613 . S
N246 C249 1.350 . S
N247 S245 1.610 . S
N247 C248 1.351 . S
C248 C242 1.428 . S
C248 N247 1.351 . S
C248 C249 1.434 . S
C249 C240 1.429 . S
C249 N246 1.350 . S
C249 C248 1.434 . S
C250 C251 1.369 . S
C250 C252 1.419 . S
C250 H254 0.930 . S
C251 C250 1.369 . S
C251 C260 1.429 . S
C252 C250 1.419 . S
C252 C253 1.363 . S
C252 H255 0.929 . S
C253 C252 1.363 . S
C253 C259 1.428 . S
H254 C250 0.930 . S
H255 C252 0.929 . S
S256 N257 1.613 . S
S256 N258 1.610 . S
N257 S256 1.613 . S
N257 C260 1.350 . S
N258 S256 1.610 . S
N258 C259 1.351 . S
C259 C253 1.428 . S
C259 N258 1.351 . S
C259 C260 1.434 . S
C260 C251 1.429 . S
C260 N257 1.350 . S
C260 C259 1.434 . S
C261 C262 1.369 . S
C261 C263 1.419 . S
C261 H265 0.930 . S
C262 C261 1.369 . S
C262 C271 1.429 . S
C263 C261 1.419 . S
C263 C264 1.363 . S
C263 H266 0.929 1_554 S
C264 C263 1.363 . S
C264 C270 1.428 . S
H265 C261 0.930 . S
H266 C263 0.929 1_556 S
S267 N268 1.613 . S
S267 N269 1.610 . S
N268 S267 1.613 . S
N268 C271 1.350 . S
N269 S267 1.610 . S
N269 C270 1.351 . S
C270 C264 1.428 . S
C270 N269 1.351 . S
C270 C271 1.434 . S
C271 C262 1.429 . S
C271 N268 1.350 . S
C271 C270 1.434 . S
C272 C273 1.369 . S
C272 C274 1.419 . S
C272 H276 0.930 . S
C273 C272 1.369 . S
C273 C282 1.429 . S
C274 C272 1.419 . S
C274 C275 1.363 . S
C274 H277 0.929 . S
C275 C274 1.363 . S
C275 C281 1.428 . S
H276 C272 0.930 . S
H277 C274 0.929 . S
S278 N279 1.613 1_565 S
S278 N280 1.610 . S
N279 S278 1.613 1_545 S
N279 C282 1.350 . S
N280 S278 1.610 . S
N280 C281 1.351 1_565 S
C281 C275 1.428 . S
C281 N280 1.351 1_545 S
C281 C282 1.434 . S
C282 C273 1.429 . S
C282 N279 1.350 . S
C282 C281 1.434 . S
C283 C284 1.369 . S
C283 C285 1.419 . S
C283 H287 0.930 . S
C284 C283 1.369 . S
C284 C293 1.429 . S
C285 C283 1.419 . S
C285 C286 1.363 . S
C285 H288 0.929 . S
C286 C285 1.363 . S
C286 C292 1.428 . S
H287 C283 0.930 . S
H288 C285 0.929 . S
S289 N290 1.613 . S
S289 N291 1.610 . S
N290 S289 1.613 . S
N290 C293 1.350 . S
N291 S289 1.610 . S
N291 C292 1.351 . S
C292 C286 1.428 . S
C292 N291 1.351 . S
C292 C293 1.434 . S
C293 C284 1.429 . S
C293 N290 1.350 . S
C293 C292 1.434 . S
C294 C295 1.369 . S
C294 C296 1.419 . S
C294 H298 0.930 . S
C295 C294 1.369 . S
C295 C304 1.429 . S
C296 C294 1.419 . S
C296 C297 1.363 . S
C296 H299 0.929 . S
C297 C296 1.363 . S
C297 C303 1.428 . S
H298 C294 0.930 . S
H299 C296 0.929 . S
S300 N301 1.613 . S
S300 N302 1.610 . S
N301 S300 1.613 . S
N301 C304 1.350 . S
N302 S300 1.610 . S
N302 C303 1.351 . S
C303 C297 1.428 . S
C303 N302 1.351 . S
C303 C304 1.434 . S
C304 C295 1.429 . S
C304 N301 1.350 . S
C304 C303 1.434 . S
C305 C306 1.369 . S
C305 C307 1.419 . S
C305 H309 0.930 . S
C306 C305 1.369 . S
C306 C315 1.429 . S
C307 C305 1.419 . S
C307 C308 1.363 . S
C307 H310 0.929 . S
C308 C307 1.363 . S
C308 C314 1.428 . S
H309 C305 0.930 . S
H310 C307 0.929 . S
S311 N312 1.613 . S
S311 N313 1.610 . S
N312 S311 1.613 . S
N312 C315 1.350 . S
N313 S311 1.610 . S
N313 C314 1.351 . S
C314 C308 1.428 . S
C314 N313 1.351 . S
C314 C315 1.434 . S
C315 C306 1.429 . S
C315 N312 1.350 . S
C315 C314 1.434 . S
C316 C317 1.369 . S
C316 C318 1.419 1_556 S
C316 H320 0.930 . S
C317 C316 1.369 . S
C317 C326 1.429 . S
C318 C316 1.419 1_554 S
C318 C319 1.363 . S
C318 H321 0.929 . S
C319 C318 1.363 . S
C319 C325 1.428 . S
H320 C316 0.930 . S
H321 C318 0.929 . S
S322 N323 1.613 . S
S322 N324 1.610 1_556 S
N323 S322 1.613 . S
N323 C326 1.350 . S
N324 S322 1.610 1_554 S
N324 C325 1.351 . S
C325 C319 1.428 . S
C325 N324 1.351 . S
C325 C326 1.434 1_554 S
C326 C317 1.429 . S
C326 N323 1.350 . S
C326 C325 1.434 1_556 S
C327 C328 1.369 . S
C327 C329 1.419 . S
C327 H331 0.930 . S
C328 C327 1.369 . S
C328 C337 1.429 . S
C329 C327 1.419 . S
C329 C330 1.363 . S
C329 H332 0.929 . S
C330 C329 1.363 . S
C330 C336 1.428 . S
H331 C327 0.930 . S
H332 C329 0.929 . S
S333 N334 1.613 . S
S333 N335 1.610 . S
N334 S333 1.613 . S
N334 C337 1.350 . S
N335 S333 1.610 . S
N335 C336 1.351 . S
C336 C330 1.428 . S
C336 N335 1.351 . S
C336 C337 1.434 . S
C337 C328 1.429 . S
C337 N334 1.350 . S
C337 C336 1.434 . S
C338 C339 1.369 . S
C338 C340 1.419 . S
C338 H342 0.930 . S
C339 C338 1.369 . S
C339 C348 1.429 . S
C340 C338 1.419 . S
C340 C341 1.363 . S
C340 H343 0.929 . S
C341 C340 1.363 . S
C341 C347 1.428 . S
H342 C338 0.930 . S
H343 C340 0.929 . S
S344 N345 1.613 . S
S344 N346 1.610 . S
N345 S344 1.613 . S
N345 C348 1.350 . S
N346 S344 1.610 . S
N346 C347 1.351 . S
C347 C341 1.428 . S
C347 N346 1.351 . S
C347 C348 1.434 . S
C348 C339 1.429 . S
C348 N345 1.350 . S
C348 C347 1.434 . S
C349 C350 1.369 . S
C349 C351 1.419 . S
C349 H353 0.930 . S
C350 C349 1.369 . S
C350 C359 1.429 . S
C351 C349 1.419 . S
C351 C352 1.363 . S
C351 H354 0.929 . S
C352 C351 1.363 . S
C352 C358 1.428 . S
H353 C349 0.930 . S
H354 C351 0.929 . S
S355 N356 1.613 . S
S355 N357 1.610 . S
N356 S355 1.613 . S
N356 C359 1.350 . S
N357 S355 1.610 . S
N357 C358 1.351 . S
C358 C352 1.428 . S
C358 N357 1.351 . S
C358 C359 1.434 . S
C359 C350 1.429 . S
C359 N356 1.350 . S
C359 C358 1.434 . S
C360 C361 1.369 . S
C360 C362 1.419 1_545 S
C360 H364 0.930 . S
C361 C360 1.369 . S
C361 C370 1.429 . S
C362 C360 1.419 1_565 S
C362 C363 1.363 . S
C362 H365 0.929 . S
C363 C362 1.363 . S
C363 C369 1.428 . S
H364 C360 0.930 . S
H365 C362 0.929 . S
S366 N367 1.613 . S
S366 N368 1.610 1_545 S
N367 S366 1.613 . S
N367 C370 1.350 . S
N368 S366 1.610 1_565 S
N368 C369 1.351 . S
C369 C363 1.428 . S
C369 N368 1.351 . S
C369 C370 1.434 1_565 S
C370 C361 1.429 . S
C370 N367 1.350 . S
C370 C369 1.434 1_545 S
C371 C372 1.369 . S
C371 C373 1.419 . S
C371 H375 0.930 . S
C372 C371 1.369 . S
C372 C381 1.429 . S
C373 C371 1.419 . S
C373 C374 1.363 . S
C373 H376 0.929 . S
C374 C373 1.363 . S
C374 C380 1.428 . S
H375 C371 0.930 . S
H376 C373 0.929 . S
S377 N378 1.613 . S
S377 N379 1.610 . S
N378 S377 1.613 . S
N378 C381 1.350 . S
N379 S377 1.610 . S
N379 C380 1.351 . S
C380 C374 1.428 . S
C380 N379 1.351 . S
C380 C381 1.434 . S
C381 C372 1.429 . S
C381 N378 1.350 . S
C381 C380 1.434 . S
C382 C383 1.369 . S
C382 C384 1.419 1_545 S
C382 H386 0.930 . S
C383 C382 1.369 . S
C383 C392 1.429 . S
C384 C382 1.419 1_565 S
C384 C385 1.363 . S
C384 H387 0.929 . S
C385 C384 1.363 . S
C385 C391 1.428 . S
H386 C382 0.930 . S
H387 C384 0.929 . S
S388 N389 1.613 1_565 S
S388 N390 1.610 . S
N389 S388 1.613 1_545 S
N389 C392 1.350 . S
N390 S388 1.610 . S
N390 C391 1.351 . S
C391 C385 1.428 . S
C391 N390 1.351 . S
C391 C392 1.434 1_565 S
C392 C383 1.429 . S
C392 N389 1.350 . S
C392 C391 1.434 1_545 S
C393 C394 1.369 . S
C393 C395 1.419 . S
C393 H397 0.930 . S
C394 C393 1.369 . S
C394 C403 1.429 . S
C395 C393 1.419 . S
C395 C396 1.363 . S
C395 H398 0.929 . S
C396 C395 1.363 . S
C396 C402 1.428 . S
H397 C393 0.930 . S
H398 C395 0.929 . S
S399 N400 1.613 . S
S399 N401 1.610 . S
N400 S399 1.613 . S
N400 C403 1.350 . S
N401 S399 1.610 . S
N401 C402 1.351 . S
C402 C396 1.428 . S
C402 N401 1.351 . S
C402 C403 1.434 . S
C403 C394 1.429 . S
C403 N400 1.350 . S
C403 C402 1.434 . S
C404 C405 1.369 . S
C404 C406 1.419 . S
C404 H408 0.930 . S
C405 C404 1.369 . S
C405 C414 1.429 . S
C406 C404 1.419 . S
C406 C407 1.363 . S
C406 H409 0.929 . S
C407 C406 1.363 . S
C407 C413 1.428 . S
H408 C404 0.930 . S
H409 C406 0.929 . S
S410 N411 1.613 . S
S410 N412 1.610 . S
N411 S410 1.613 . S
N411 C414 1.350 . S
N412 S410 1.610 . S
N412 C413 1.351 . S
C413 C407 1.428 . S
C413 N412 1.351 . S
C413 C414 1.434 . S
C414 C405 1.429 . S
C414 N411 1.350 . S
C414 C413 1.434 . S
C415 C416 1.369 . S
C415 C417 1.419 1_455 S
C415 H419 0.930 . S
C416 C415 1.369 . S
C416 C425 1.429 . S
C417 C415 1.419 1_655 S
C417 C418 1.363 . S
C417 H420 0.929 . S
C418 C417 1.363 . S
C418 C424 1.428 . S
H419 C415 0.930 . S
H420 C417 0.929 . S
S421 N422 1.613 . S
S421 N423 1.610 1_455 S
N422 S421 1.613 . S
N422 C425 1.350 . S
N423 S421 1.610 1_655 S
N423 C424 1.351 . S
C424 C418 1.428 . S
C424 N423 1.351 . S
C424 C425 1.434 1_655 S
C425 C416 1.429 . S
C425 N422 1.350 . S
C425 C424 1.434 1_455 S
C426 C427 1.369 . S
C426 C428 1.419 . S
C426 H430 0.930 . S
C427 C426 1.369 . S
C427 C436 1.429 . S
C428 C426 1.419 . S
C428 C429 1.363 . S
C428 H431 0.929 . S
C429 C428 1.363 . S
C429 C435 1.428 . S
H430 C426 0.930 . S
H431 C428 0.929 . S
S432 N433 1.613 . S
S432 N434 1.610 . S
N433 S432 1.613 . S
N433 C436 1.350 . S
N434 S432 1.610 . S
N434 C435 1.351 . S
C435 C429 1.428 . S
C435 N434 1.351 . S
C435 C436 1.434 . S
C436 C427 1.429 . S
C436 N433 1.350 . S
C436 C435 1.434 . S
C437 C438 1.369 . S
C437 C439 1.419 1_655 S
C437 H441 0.930 . S
C438 C437 1.369 . S
C438 C447 1.429 . S
C439 C437 1.419 1_455 S
C439 C440 1.363 . S
C439 H442 0.929 . S
C440 C439 1.363 . S
C440 C446 1.428 . S
H441 C437 0.930 . S
H442 C439 0.929 . S
S443 N444 1.613 . S
S443 N445 1.610 1_655 S
N444 S443 1.613 . S
N444 C447 1.350 . S
N445 S443 1.610 1_455 S
N445 C446 1.351 . S
C446 C440 1.428 . S
C446 N445 1.351 . S
C446 C447 1.434 1_455 S
C447 C438 1.429 . S
C447 N444 1.350 . S
C447 C446 1.434 1_655 S
C185 C18 1.358 . S
C187 C181 1.326 . S
C196 C43 1.323 . S
C198 C110 1.360 . S
C207 C64 1.371 . S
C209 C133 1.371 . S
C218 C156 1.367 . S
C220 C87 1.372 . S
C229 C16 1.397 . S
C231 C41 1.443 . S
C240 C66 1.352 . S
C242 C40 1.368 . S
C251 C89 1.387 . S
C253 C62 1.389 . S
C262 C20 1.388 . S
C264 C85 1.390 1_554 S
C273 C108 1.401 . S
C275 C179 1.444 . S
C284 C131 1.390 . S
C286 C112 1.388 . S
C295 C154 1.390 1_556 S
C297 C135 1.394 . S
C306 C158 1.346 . S
C308 C178 1.368 . S
C317 C132 1.073 . S
C319 C17 1.076 . S
C328 C155 1.113 . S
C330 C39 1.095 . S
C339 C177 1.104 . S
C341 C63 1.113 . S
C350 C109 1.074 . S
C352 C86 1.080 . S
C361 C19 1.855 . S
C363 C159 1.883 . S
C372 C44 1.858 . S
C374 C180 1.823 . S
C383 C113 1.829 . S
C385 C65 1.804 . S
C394 C136 1.861 . S
C396 C88 1.836 . S
C405 C67 1.881 . S
C407 C111 1.856 . S
C416 C134 1.837 . S
C418 C90 1.861 . S
C427 C157 1.804 . S
C429 C21 1.829 . S
C438 C182 1.859 . S
C440 C42 1.820 . S
