# Generated by pormake.
# Topology hjm, (4)-cn, num edge types: 1
# Building blocks:
#     Node 0, Type 0, BuildingBlock: ICAMEG_clean_sbu_1, # of connection points: 4
#     Node 1, Type 0, BuildingBlock: ICAMEG_clean_sbu_1, # of connection points: 4
#     Node 2, Type 0, BuildingBlock: ICAMEG_clean_sbu_1, # of connection points: 4
#     Node 3, Type 0, BuildingBlock: ICAMEG_clean_sbu_1, # of connection points: 4
#     Node 4, Type 0, BuildingBlock: ICAMEG_clean_sbu_1, # of connection points: 4
#     Node 5, Type 0, BuildingBlock: ICAMEG_clean_sbu_1, # of connection points: 4
#     Node 6, Type 0, BuildingBlock: ICAMEG_clean_sbu_1, # of connection points: 4
#     Node 7, Type 0, BuildingBlock: ICAMEG_clean_sbu_1, # of connection points: 4
#     Edge 8, Type (0, 0), BuildingBlock: TEMPAE_clean_linker_10, # of connection points: 2
#     Edge 9, Type (0, 0), BuildingBlock: TEMPAE_clean_linker_10, # of connection points: 2
#     Edge 10, Type (0, 0), BuildingBlock: TEMPAE_clean_linker_10, # of connection points: 2
#     Edge 11, Type (0, 0), BuildingBlock: TEMPAE_clean_linker_10, # of connection points: 2
#     Edge 12, Type (0, 0), BuildingBlock: TEMPAE_clean_linker_10, # of connection points: 2
#     Edge 13, Type (0, 0), BuildingBlock: TEMPAE_clean_linker_10, # of connection points: 2
#     Edge 14, Type (0, 0), BuildingBlock: TEMPAE_clean_linker_10, # of connection points: 2
#     Edge 15, Type (0, 0), BuildingBlock: TEMPAE_clean_linker_10, # of connection points: 2
#     Edge 16, Type (0, 0), BuildingBlock: TEMPAE_clean_linker_10, # of connection points: 2
#     Edge 17, Type (0, 0), BuildingBlock: TEMPAE_clean_linker_10, # of connection points: 2
#     Edge 18, Type (0, 0), BuildingBlock: TEMPAE_clean_linker_10, # of connection points: 2
#     Edge 19, Type (0, 0), BuildingBlock: TEMPAE_clean_linker_10, # of connection points: 2
#     Edge 20, Type (0, 0), BuildingBlock: TEMPAE_clean_linker_10, # of connection points: 2
#     Edge 21, Type (0, 0), BuildingBlock: TEMPAE_clean_linker_10, # of connection points: 2
#     Edge 22, Type (0, 0), BuildingBlock: TEMPAE_clean_linker_10, # of connection points: 2
#     Edge 23, Type (0, 0), BuildingBlock: TEMPAE_clean_linker_10, # of connection points: 2
# Relax obj value: 0.162
# Max RMSD: 0.208
# Mean RMSD: 0.208
data_MOF--net-hjm--node1-ICAMEG_clean_sbu_1--edge1-TEMPAE_clean_linker_10
_symmetry_space_group_name_H-M    P1
_symmetry_Int_Tables_number       1
_symmetry_cell_setting            triclinic
loop_
_symmetry_equiv_pos_as_xyz
'x, y, z'
_cell_length_a     25.197585
_cell_length_b     26.14402
_cell_length_c     25.076167
_cell_angle_alpha  90.038767
_cell_angle_beta   69.228079
_cell_angle_gamma 90.003151
loop_
_atom_site_label
_atom_site_type_symbol
_atom_site_fract_x
_atom_site_fract_y
_atom_site_fract_z
_atom_type_partial_charge
Co0 Co 0.20065 0.33681 0.30434 0.0
Co1 Co 0.23849 0.21278 0.30178 0.0
O2 O 0.18821 0.26919 0.33941 0.0
C3 C 0.18652 0.40629 0.40208 0.0
O4 O 0.23832 0.42361 0.37656 0.0
C5 C 0.12231 0.1629 0.35151 0.0
O6 O 0.09855 0.19858 0.33068 0.0
O7 O 0.21415 0.22178 0.23422 0.0
O8 O 0.22825 0.30687 0.22569 0.0
H9 H 0.38348 0.12362 0.1359 0.0
H10 H 0.08879 0.30661 0.38742 0.0
O11 O 0.16982 0.36703 0.38254 0.0
H12 H 0.04905 0.36919 0.22018 0.0
H13 H 0.16068 0.52392 0.28771 0.0
H14 H 0.29625 0.38314 0.21123 0.0
H15 H 0.14754 0.36549 0.21862 0.0
H16 H 0.13567 0.43611 0.32194 0.0
O17 O 0.17576 0.16282 0.34012 0.0
H18 H 0.32217 0.19538 0.1853 0.0
H19 H 0.25784 0.10727 0.33701 0.0
H20 H 0.32185 0.4701 0.1733 0.0
H21 H 0.98988 0.31169 0.39129 0.0
H22 H 0.25491 0.54163 0.21312 0.0
H23 H 0.96955 0.34481 0.30798 0.0
O24 O 0.27899 0.3363 0.30619 0.0
H25 H 0.2076 0.20851 0.51126 0.0
H26 H 0.35047 0.20013 0.31687 0.0
H27 H 0.38138 0.19544 0.39965 0.0
H28 H 0.30967 0.19944 0.49775 0.0
H29 H 0.17858 0.21383 0.42729 0.0
H30 H 0.318 0.03439 0.28906 0.0
H31 H 0.38137 0.04225 0.18786 0.0
O32 O 0.30433 0.26014 0.26511 0.0
C33 C 0.21997 0.26372 0.20612 0.0
C34 C 0.35601 0.11969 0.18003 0.0
C35 C 0.31921 0.06961 0.26597 0.0
N36 N 0.28655 0.15569 0.26402 0.0
C37 C 0.32125 0.16025 0.20826 0.0
C38 C 0.28507 0.11098 0.29283 0.0
C39 C 0.35486 0.07408 0.20919 0.0
C40 C 0.08039 0.32056 0.35063 0.0
N41 N 0.12393 0.3365 0.3032 0.0
C42 C 0.02425 0.32345 0.35318 0.0
C43 C 0.01287 0.34195 0.30632 0.0
C44 C 0.05753 0.35604 0.25718 0.0
C45 C 0.11316 0.35329 0.25642 0.0
C46 C 0.19041 0.49325 0.26994 0.0
C47 C 0.2661 0.41378 0.22774 0.0
C48 C 0.17663 0.44337 0.28972 0.0
N49 N 0.21502 0.40461 0.27002 0.0
C50 C 0.28095 0.46302 0.20612 0.0
C51 C 0.24315 0.50311 0.22818 0.0
C52 C 0.31697 0.30383 0.27999 0.0
C53 C 0.23922 0.20647 0.46873 0.0
C54 C 0.31895 0.20195 0.35937 0.0
C55 C 0.33674 0.19921 0.40611 0.0
C56 C 0.2965 0.20145 0.46113 0.0
N57 N 0.26264 0.20678 0.36712 0.0
C58 C 0.22303 0.20931 0.42098 0.0
Co59 Co 0.83955 0.28986 0.21309 0.0
Co60 Co 0.77793 0.18258 0.18434 0.0
O61 O 0.84276 0.23028 0.16432 0.0
C62 C 0.88076 0.37511 0.13153 0.0
O63 O 0.82944 0.39445 0.15278 0.0
C64 C 0.88036 0.11192 0.14463 0.0
O65 O 0.90619 0.13757 0.17335 0.0
O66 O 0.78359 0.17004 0.26191 0.0
O67 O 0.79066 0.25251 0.28174 0.0
H68 H 0.58858 0.11217 0.30885 0.0
H69 H 0.95282 0.25462 0.13687 0.0
O70 O 0.8905 0.33029 0.14605 0.0
H71 H 0.95357 0.23059 0.33153 0.0
H72 H 0.9187 0.4374 0.29172 0.0
H73 H 0.74531 0.3448 0.30093 0.0
H74 H 0.87102 0.26915 0.31618 0.0
H75 H 0.92439 0.36055 0.23331 0.0
O76 O 0.83033 0.1242 0.14808 0.0
H77 H 0.67202 0.16876 0.28513 0.0
H78 H 0.74668 0.09453 0.12499 0.0
H79 H 0.73748 0.42115 0.36073 0.0
H80 H 0.03792 0.21933 0.15025 0.0
H81 H 0.82454 0.46837 0.35611 0.0
H82 H 0.03843 0.2065 0.24817 0.0
O83 O 0.76949 0.31376 0.20007 0.0
H84 H 0.85225 0.20219 0.97071 0.0
H85 H 0.68169 0.20801 0.14534 0.0
H86 H 0.67252 0.22351 0.05206 0.0
H87 H 0.7581 0.22003 0.96379 0.0
H88 H 0.85968 0.18739 0.06497 0.0
H89 H 0.66458 0.03648 0.14759 0.0
H90 H 0.58453 0.04534 0.23989 0.0
O91 O 0.72297 0.23905 0.21833 0.0
C92 C 0.78005 0.20625 0.29765 0.0
C93 C 0.62316 0.10799 0.26845 0.0
C94 C 0.66586 0.06544 0.178 0.0
N95 N 0.71429 0.1352 0.20364 0.0
C96 C 0.67057 0.13999 0.25473 0.0
C97 C 0.71249 0.09824 0.16563 0.0
C98 C 0.6209 0.0705 0.22974 0.0
C99 C 0.95312 0.2504 0.17963 0.0
N100 N 0.90671 0.26407 0.22567 0.0
C101 C 1.00129 0.22989 0.18693 0.0
C102 C 1.00149 0.22252 0.24186 0.0
C103 C 0.95386 0.23597 0.28863 0.0
C104 C 0.90692 0.25742 0.27968 0.0
C105 C 0.88034 0.41754 0.29371 0.0
C106 C 0.78345 0.36521 0.29817 0.0
C107 C 0.88336 0.37416 0.26023 0.0
N108 N 0.8353 0.34885 0.26208 0.0
C109 C 0.77872 0.40837 0.33244 0.0
C110 C 0.82756 0.43481 0.32989 0.0
C111 C 0.72387 0.28755 0.21341 0.0
C112 C 0.81461 0.20354 1.00885 0.0
C113 C 0.7193 0.20692 0.10726 0.0
C114 C 0.71377 0.21557 0.05449 0.0
C115 C 0.76179 0.21363 1.00499 0.0
N116 N 0.77116 0.19628 0.1107 0.0
C117 C 0.81853 0.19508 0.06237 0.0
Co118 Co 0.82821 0.71862 0.71142 0.0
Co119 Co 0.79121 0.83745 0.6807 0.0
O120 O 0.84682 0.78094 0.66424 0.0
C121 C 0.89828 0.67767 0.59348 0.0
O122 O 0.89215 0.71889 0.5664 0.0
C123 C 0.90727 0.88736 0.62928 0.0
O124 O 0.93265 0.84326 0.62765 0.0
O125 O 0.79098 0.84195 0.76149 0.0
O126 O 0.78036 0.75811 0.77889 0.0
H127 H 0.60536 0.92234 0.79095 0.0
H128 H 0.94991 0.74239 0.64867 0.0
O129 O 0.87535 0.67444 0.64737 0.0
H130 H 0.93009 0.73518 0.85129 0.0
H131 H 0.86946 0.55043 0.78721 0.0
H132 H 0.72107 0.67557 0.79329 0.0
H133 H 0.84743 0.72037 0.82262 0.0
H134 H 0.89383 0.62906 0.72953 0.0
O135 O 0.85344 0.89108 0.65332 0.0
H136 H 0.68042 0.85733 0.77336 0.0
H137 H 0.78255 0.93651 0.62428 0.0
H138 H 0.69498 0.59772 0.85216 0.0
H139 H 0.03403 0.75615 0.67537 0.0
H140 H 0.76943 0.53441 0.84932 0.0
H141 H 0.02444 0.7526 0.77739 0.0
O142 O 0.76082 0.7076 0.68877 0.0
H143 H 0.87648 0.81831 0.46601 0.0
H144 H 0.6992 0.83569 0.63187 0.0
H145 H 0.69498 0.83029 0.53552 0.0
H146 H 0.78407 0.822 0.45155 0.0
H147 H 0.87886 0.82327 0.56282 0.0
H148 H 0.70993 1.00385 0.64229 0.0
H149 H 0.61999 0.9965 0.7254 0.0
O150 O 0.72695 0.78745 0.70675 0.0
C151 C 0.77739 0.80408 0.79621 0.0
C152 C 0.64422 0.9258 0.75436 0.0
C153 C 0.70302 0.97168 0.67111 0.0
N154 N 0.73586 0.89272 0.69762 0.0
C155 C 0.68694 0.88903 0.74413 0.0
C156 C 0.74438 0.93369 0.66159 0.0
C157 C 0.65247 0.96743 0.71761 0.0
C158 C 0.94536 0.74049 0.69307 0.0
N159 N 0.89368 0.73048 0.73387 0.0
C160 C 0.99316 0.7485 0.70798 0.0
C161 C 0.98775 0.74659 0.76521 0.0
C162 C 0.93484 0.73683 0.80669 0.0
C163 C 0.88806 0.72877 0.79017 0.0
C164 C 0.83661 0.57771 0.78881 0.0
C165 C 0.75379 0.64835 0.79183 0.0
C166 C 0.85011 0.62226 0.75603 0.0
N167 N 0.80893 0.65703 0.75787 0.0
C168 C 0.73873 0.60427 0.82528 0.0
C169 C 0.78051 0.56877 0.82368 0.0
C170 C 0.72046 0.73991 0.69949 0.0
C171 C 0.83741 0.82265 0.5022 0.0
C172 C 0.73837 0.83235 0.59576 0.0
C173 C 0.73561 0.82927 0.54117 0.0
C174 C 0.78557 0.82465 0.49409 0.0
N175 N 0.78951 0.83174 0.60352 0.0
C176 C 0.83852 0.82603 0.55744 0.0
Co177 Co 0.19371 0.66549 0.82613 0.0
Co178 Co 0.20772 0.79502 0.81022 0.0
O179 O 0.16932 0.73477 0.85515 0.0
C180 C 0.15336 0.65199 0.95583 0.0
O181 O 0.1404 0.70031 0.96796 0.0
C182 C 0.08514 0.82669 0.87408 0.0
O183 O 0.06946 0.77881 0.88455 0.0
O184 O 0.18781 0.7705 0.74361 0.0
O185 O 0.21364 0.68901 0.74599 0.0
H186 H 0.33798 0.8829 0.63398 0.0
H187 H 0.07618 0.6813 0.9104 0.0
O188 O 0.1753 0.63715 0.90435 0.0
H189 H 0.05104 0.59604 0.7458 0.0
H190 H 0.19136 0.47312 0.83281 0.0
H191 H 0.29328 0.62524 0.73106 0.0
H192 H 0.14667 0.6152 0.74561 0.0
H193 H 0.15104 0.55917 0.85984 0.0
O194 O 0.1356 0.83745 0.84102 0.0
H195 H 0.28992 0.80914 0.69234 0.0
H196 H 0.20538 0.90793 0.83115 0.0
H197 H 0.33314 0.53956 0.70022 0.0
H198 H 0.97986 0.66176 0.91305 0.0
H199 H 0.28284 0.46284 0.75271 0.0
H200 H 0.96662 0.61902 0.83016 0.0
O201 O 0.27102 0.68169 0.82399 0.0
H202 H 0.17093 0.83912 0.01607 0.0
H203 H 0.31446 0.8336 0.822 0.0
H204 H 0.34098 0.86645 0.90118 0.0
H205 H 0.26864 0.87042 0.9989 0.0
H206 H 0.14699 0.80428 0.9364 0.0
H207 H 0.25108 0.98279 0.77359 0.0
H208 H 0.31875 0.97058 0.67457 0.0
O209 O 0.28217 0.75703 0.7794 0.0
C210 C 0.2022 0.72675 0.71989 0.0
C211 C 0.30882 0.88875 0.67718 0.0
C212 C 0.26014 0.94481 0.75554 0.0
N213 N 0.24489 0.85405 0.76525 0.0
C214 C 0.28155 0.84708 0.71054 0.0
C215 C 0.23395 0.90222 0.78779 0.0
C216 C 0.29798 0.93792 0.69995 0.0
C217 C 0.07117 0.66222 0.87446 0.0
N218 N 0.11749 0.64954 0.82796 0.0
C219 C 0.0163 0.6514 0.87609 0.0
C220 C 0.00888 0.62747 0.82958 0.0
C221 C 0.05619 0.61468 0.78222 0.0
C222 C 0.11037 0.62596 0.78222 0.0
C223 C 0.21353 0.50625 0.80967 0.0
C224 C 0.27017 0.59199 0.75281 0.0
C225 C 0.19115 0.55516 0.82506 0.0
N226 N 0.22005 0.59741 0.79758 0.0
C227 C 0.29319 0.54355 0.73537 0.0
C228 C 0.26495 0.50052 0.76464 0.0
C229 C 0.30246 0.71725 0.79482 0.0
C230 C 0.20264 0.8382 0.97355 0.0
C231 C 0.28286 0.83437 0.86449 0.0
C232 C 0.29811 0.85335 0.90914 0.0
C233 C 0.25749 0.85568 0.96391 0.0
N234 N 0.22866 0.81812 0.87399 0.0
C235 C 0.18918 0.81878 0.928 0.0
Co236 Co 0.69977 0.85207 0.30745 0.0
Co237 Co 0.70917 0.72366 0.32 0.0
O238 O 0.66801 0.7882 0.34788 0.0
C239 C 0.63858 0.88421 0.43099 0.0
O240 O 0.62896 0.83698 0.44955 0.0
C241 C 0.58487 0.69363 0.37904 0.0
O242 O 0.56891 0.74168 0.3865 0.0
O243 O 0.69778 0.73537 0.24566 0.0
O244 O 0.73265 0.81492 0.23266 0.0
H245 H 0.85229 0.6148 0.17291 0.0
H246 H 0.57555 0.84225 0.37275 0.0
O247 O 0.66747 0.89341 0.37891 0.0
H248 H 0.5905 0.90513 0.18291 0.0
H249 H 0.71054 0.04183 0.27623 0.0
H250 H 0.81165 0.87809 0.22046 0.0
H251 H 0.67654 0.8876 0.20476 0.0
H252 H 0.66127 0.96055 0.31085 0.0
O253 O 0.63639 0.68217 0.35003 0.0
H254 H 0.80075 0.69439 0.21225 0.0
H255 H 0.70277 0.61637 0.36378 0.0
H256 H 0.86065 0.95844 0.18014 0.0
H257 H 0.48839 0.85825 0.35212 0.0
H258 H 0.81027 0.04105 0.21033 0.0
H259 H 0.49575 0.89061 0.25658 0.0
O260 O 0.76904 0.83977 0.3253 0.0
H261 H 0.65068 0.72323 0.53469 0.0
H262 H 0.80769 0.69307 0.3527 0.0
H263 H 0.82398 0.68169 0.4431 0.0
H264 H 0.74505 0.69632 0.53503 0.0
H265 H 0.63656 0.73532 0.44352 0.0
H266 H 0.75292 0.53586 0.32581 0.0
H267 H 0.82866 0.53477 0.22989 0.0
O268 O 0.78482 0.76048 0.29084 0.0
C269 C 0.71606 0.77479 0.21433 0.0
C270 C 0.8196 0.61481 0.21486 0.0
C271 C 0.76375 0.57049 0.30062 0.0
N272 N 0.74898 0.66021 0.29038 0.0
C273 C 0.79028 0.6598 0.2374 0.0
C274 C 0.73531 0.6162 0.32179 0.0
C275 C 0.80624 0.56991 0.24681 0.0
C276 C 0.57916 0.85585 0.33106 0.0
N277 N 0.63129 0.86416 0.29027 0.0
C278 C 0.52957 0.86493 0.31962 0.0
C279 C 0.53362 0.88293 0.26604 0.0
C280 C 0.58684 0.8912 0.22462 0.0
C281 C 0.63544 0.88128 0.2374 0.0
C282 C 0.73249 1.00603 0.26257 0.0
C283 C 0.78878 0.91379 0.23162 0.0
C284 C 0.70517 0.9599 0.28287 0.0
N285 N 0.73385 0.91463 0.26879 0.0
C286 C 0.81693 0.95918 0.20902 0.0
C287 C 0.78868 1.00555 0.22555 0.0
C288 C 0.80183 0.80168 0.30722 0.0
C289 C 0.68526 0.71617 0.49489 0.0
C290 C 0.77296 0.69962 0.39239 0.0
C291 C 0.7825 0.69297 0.44353 0.0
C292 C 0.73819 0.70111 0.49509 0.0
N293 N 0.72069 0.71391 0.39235 0.0
C294 C 0.67738 0.72269 0.44288 0.0
Co295 Co 0.32798 0.78264 0.24078 0.0
Co296 Co 0.27227 0.68259 0.18882 0.0
O297 O 0.33557 0.73051 0.1812 0.0
C298 C 0.39826 0.83651 0.13073 0.0
O299 O 0.39119 0.79982 0.09811 0.0
C300 C 0.3675 0.60376 0.15164 0.0
O301 O 0.38259 0.61408 0.19553 0.0
O302 O 0.27504 0.65759 0.26364 0.0
O303 O 0.28287 0.73437 0.30074 0.0
H304 H 0.07908 0.60624 0.28866 0.0
H305 H 0.44172 0.74987 0.16047 0.0
O306 O 0.37414 0.83435 0.18462 0.0
H307 H 0.45094 0.73044 0.35245 0.0
H308 H 0.39333 0.92268 0.34172 0.0
H309 H 0.23131 0.81636 0.34278 0.0
H310 H 0.36243 0.75848 0.34055 0.0
H311 H 0.40485 0.85768 0.26714 0.0
O312 O 0.32677 0.62814 0.14452 0.0
H313 H 0.16351 0.65717 0.28205 0.0
H314 H 0.24623 0.60781 0.11097 0.0
H315 H 0.218 0.88012 0.41885 0.0
H316 H 0.53119 0.72244 0.17045 0.0
H317 H 0.29933 0.93398 0.41859 0.0
H318 H 0.5364 0.71288 0.26701 0.0
O319 O 0.25725 0.80936 0.23192 0.0
H320 H 0.35474 0.72228 0.97955 0.0
H321 H 0.17965 0.72001 0.1497 0.0
H322 H 0.17446 0.74297 0.05646 0.0
H323 H 0.26225 0.74202 0.97006 0.0
H324 H 0.35812 0.6998 0.0738 0.0
H325 H 0.16364 0.55478 0.11672 0.0
H326 H 0.0788 0.55445 0.20569 0.0
O327 O 0.21471 0.73444 0.2311 0.0
C328 C 0.27274 0.68664 0.30556 0.0
C329 C 0.1158 0.60609 0.24967 0.0
C330 C 0.1633 0.57705 0.15324 0.0
N331 N 0.20991 0.63579 0.19609 0.0
C332 C 0.16384 0.63484 0.24564 0.0
C333 C 0.21025 0.60685 0.15045 0.0
C334 C 0.11566 0.577 0.20311 0.0
C335 C 0.44346 0.74605 0.20262 0.0
N336 N 0.39689 0.75673 0.24976 0.0
C337 C 0.49431 0.73026 0.20802 0.0
C338 C 0.49721 0.72482 0.26219 0.0
C339 C 0.44927 0.73466 0.31013 0.0
C340 C 0.39918 0.7504 0.30307 0.0
C341 C 0.35746 0.89966 0.34217 0.0
C342 C 0.26695 0.83959 0.34226 0.0
C343 C 0.36367 0.86314 0.2997 0.0
N344 N 0.3188 0.83356 0.30009 0.0
C345 C 0.25913 0.87569 0.3855 0.0
C346 C 0.30476 0.90591 0.38532 0.0
C347 C 0.21332 0.78266 0.23758 0.0
C348 C 0.31617 0.7221 0.01675 0.0
C349 C 0.21831 0.7212 0.11274 0.0
C350 C 0.21501 0.73384 0.0599 0.0
C351 C 0.26425 0.73353 0.01153 0.0
N352 N 0.26912 0.70798 0.11716 0.0
C353 C 0.31781 0.70948 0.07024 0.0
Co354 Co 0.31589 0.23412 0.70118 0.0
Co355 Co 0.25899 0.34908 0.68807 0.0
O356 O 0.32133 0.29917 0.66083 0.0
C357 C 0.35185 0.15812 0.60825 0.0
O358 O 0.30009 0.13956 0.628 0.0
C359 C 0.3652 0.41529 0.65034 0.0
O360 O 0.39153 0.38487 0.67446 0.0
O361 O 0.26829 0.35143 0.76506 0.0
O362 O 0.27069 0.26639 0.77476 0.0
H363 H 0.07844 0.42209 0.82798 0.0
H364 H 0.42981 0.27197 0.62899 0.0
O365 O 0.36321 0.19982 0.62829 0.0
H366 H 0.43798 0.25439 0.82177 0.0
H367 H 0.39003 0.071 0.75744 0.0
H368 H 0.22063 0.17706 0.785 0.0
H369 H 0.35028 0.23367 0.80404 0.0
H370 H 0.39781 0.15216 0.70575 0.0
O371 O 0.31371 0.40692 0.65605 0.0
H372 H 0.15686 0.36003 0.79316 0.0
H373 H 0.23022 0.44604 0.64087 0.0
H374 H 0.21095 0.09641 0.83824 0.0
H375 H 0.51853 0.29294 0.64491 0.0
H376 H 0.29614 0.04289 0.825 0.0
H377 H 0.5231 0.28384 0.74178 0.0
O378 O 0.24384 0.21844 0.68764 0.0
H379 H 0.32647 0.34182 0.47373 0.0
H380 H 0.1589 0.33751 0.65122 0.0
H381 H 0.14612 0.32967 0.5585 0.0
H382 H 0.23031 0.33178 0.46893 0.0
H383 H 0.33745 0.34928 0.56731 0.0
H384 H 0.15343 0.50973 0.67487 0.0
H385 H 0.07651 0.4977 0.76882 0.0
O386 O 0.20137 0.29362 0.71773 0.0
C387 C 0.2627 0.31121 0.79603 0.0
C388 C 0.11158 0.4276 0.78683 0.0
C389 C 0.15374 0.47686 0.70098 0.0
N390 N 0.19812 0.39914 0.71491 0.0
C391 C 0.15611 0.39251 0.76682 0.0
C392 C 0.19735 0.44076 0.68212 0.0
C393 C 0.11056 0.47007 0.75366 0.0
C394 C 0.43149 0.2678 0.67125 0.0
N395 N 0.38494 0.25122 0.71534 0.0
C396 C 0.48181 0.27983 0.68003 0.0
C397 C 0.48432 0.27485 0.73442 0.0
C398 C 0.43656 0.2584 0.77932 0.0
C399 C 0.38689 0.24695 0.76902 0.0
C400 C 0.35254 0.0939 0.76351 0.0
C401 C 0.25786 0.15385 0.77839 0.0
C402 C 0.35665 0.1398 0.73388 0.0
N403 N 0.3097 0.1693 0.74148 0.0
C404 C 0.25211 0.10821 0.80887 0.0
C405 C 0.29988 0.07817 0.80139 0.0
C406 C 0.19942 0.2462 0.70676 0.0
C407 C 0.28945 0.34107 0.51249 0.0
C408 C 0.19579 0.33861 0.61246 0.0
C409 C 0.18824 0.33418 0.56006 0.0
C410 C 0.23547 0.33546 0.5098 0.0
N411 N 0.24888 0.3444 0.6148 0.0
C412 C 0.29538 0.3454 0.56564 0.0
Co413 Co 0.67497 0.1617 0.83075 0.0
Co414 Co 0.69233 0.28919 0.80964 0.0
O415 O 0.65131 0.23153 0.85507 0.0
C416 C 0.6712 0.1143 0.93957 0.0
O417 O 0.7256 0.10394 0.91606 0.0
C418 C 0.57053 0.32417 0.87078 0.0
O419 O 0.55299 0.27668 0.88004 0.0
O420 O 0.67231 0.2622 0.74399 0.0
O421 O 0.70105 0.18119 0.74787 0.0
H422 H 0.82692 0.37104 0.63162 0.0
H423 H 0.55647 0.17931 0.90965 0.0
O424 O 0.64717 0.14199 0.913 0.0
H425 H 0.53874 0.09596 0.74029 0.0
H426 H 0.66492 0.97065 0.85469 0.0
H427 H 0.77765 0.11516 0.74591 0.0
H428 H 0.63296 0.11138 0.7463 0.0
H429 H 0.62532 0.05787 0.86826 0.0
O430 O 0.62165 0.3338 0.83859 0.0
H431 H 0.77495 0.29947 0.69153 0.0
H432 H 0.69493 0.40214 0.8278 0.0
H433 H 0.81767 0.02815 0.72878 0.0
H434 H 0.46133 0.164 0.90575 0.0
H435 H 0.76226 0.95546 0.78517 0.0
H436 H 0.45203 0.12258 0.82029 0.0
O437 O 0.75132 0.17765 0.83258 0.0
H438 H 0.65664 0.32533 0.01702 0.0
H439 H 0.79899 0.32774 0.8222 0.0
H440 H 0.82657 0.35453 0.90292 0.0
H441 H 0.75505 0.35375 1.0012 0.0
H442 H 0.63112 0.29784 0.93543 0.0
H443 H 0.74539 0.47485 0.76905 0.0
H444 H 0.81242 0.4595 0.6704 0.0
O445 O 0.76554 0.24924 0.78122 0.0
C446 C 0.68731 0.21786 0.72157 0.0
C447 C 0.79792 0.37821 0.67459 0.0
C448 C 0.75214 0.43649 0.7517 0.0
N449 N 0.732 0.3465 0.76319 0.0
C450 C 0.76839 0.33782 0.70876 0.0
C451 C 0.7234 0.39515 0.78465 0.0
C452 C 0.78973 0.42784 0.69635 0.0
C453 C 0.5528 0.16081 0.87258 0.0
N454 N 0.60032 0.14675 0.8281 0.0
C455 C 0.49879 0.15235 0.87054 0.0
C456 C 0.49359 0.12911 0.82259 0.0
C457 C 0.54222 0.11425 0.77766 0.0
C458 C 0.5955 0.12327 0.78125 0.0
C459 C 0.68971 1.00205 0.83011 0.0
C460 C 0.75235 0.08349 0.76907 0.0
C461 C 0.66744 0.05153 0.83747 0.0
N462 N 0.69963 0.09182 0.80885 0.0
C463 C 0.77546 0.03432 0.75951 0.0
C464 C 0.74431 0.99356 0.79114 0.0
C465 C 0.78434 0.21121 0.80116 0.0
C466 C 0.68801 0.3264 0.97431 0.0
C467 C 0.76744 0.32749 0.86472 0.0
C468 C 0.78338 0.34269 0.91032 0.0
C469 C 0.74326 0.34226 0.96543 0.0
N470 N 0.71294 0.31248 0.87358 0.0
C471 C 0.67366 0.31125 0.9277 0.0
C472 C 0.03334 0.1097 0.39473 0.0
C473 C 0.08732 0.1246 0.39335 0.0
C474 C 1.00161 0.07232 0.43376 0.0
C475 C 0.02365 0.05043 0.47345 0.0
C476 C 0.07722 0.06682 0.4734 0.0
C477 C 0.10859 0.10287 0.43298 0.0
C478 C 0.94514 0.05536 0.43164 0.0
C479 C 0.10181 0.04596 0.51583 0.0
C480 C 0.92472 0.98084 0.6057 0.0
C481 C 0.93843 0.92947 0.59115 0.0
C482 C 0.95192 0.02068 0.56799 0.0
C483 C 0.99236 0.0088 0.51345 0.0
C484 C 0.0052 0.9568 0.49813 0.0
C485 C 0.97886 0.91795 0.53743 0.0
C486 C 0.93825 0.07544 0.58703 0.0
C487 C 0.04668 0.94205 0.44004 0.0
H488 H 0.01654 0.1263 0.36439 0.0
H489 H 0.1499 0.1145 0.43292 0.0
H490 H 0.94697 0.01402 0.42096 0.0
H491 H 0.91132 0.06031 0.47403 0.0
H492 H 0.93307 0.07702 0.39956 0.0
H493 H 0.14125 0.06621 0.51381 0.0
H494 H 0.07041 0.04931 0.55982 0.0
H495 H 0.11173 1.00475 0.50737 0.0
H496 H 0.89321 0.98985 0.64696 0.0
H497 H 0.98864 0.87827 0.5253 0.0
H498 H 0.92677 0.09734 0.55485 0.0
H499 H 0.97638 0.09393 0.59086 0.0
H500 H 0.90288 0.07835 0.6288 0.0
H501 H 0.03518 0.96116 0.40613 0.0
H502 H 0.04796 0.90006 0.43274 0.0
H503 H 0.08993 0.95509 0.43559 0.0
C504 C 0.06493 0.91973 0.89908 0.0
C505 C 0.0496 0.86814 0.91072 0.0
C506 C 0.03664 0.9589 0.93716 0.0
C507 C 0.99205 0.94646 0.98872 0.0
C508 C 0.97532 0.89461 1.00013 0.0
C509 C 0.00395 0.85623 0.96093 0.0
C510 C 0.05508 0.01366 0.92252 0.0
C511 C 0.92752 0.87963 0.05414 0.0
C512 C 0.95688 0.0443 0.11024 0.0
C513 C 0.90897 0.0688 0.10606 0.0
C514 C 0.98358 1.00373 0.07322 0.0
C515 C 0.96257 0.98781 0.03026 0.0
C516 C 0.91401 0.01228 0.02622 0.0
C517 C 0.88785 0.05211 0.06409 0.0
C518 C 0.03441 0.97791 0.07997 0.0
C519 C 0.89042 0.99768 0.98073 0.0
H520 H 0.09982 0.92957 0.86043 0.0
H521 H 0.99166 0.81662 0.97068 0.0
H522 H 0.01867 0.03689 0.92131 0.0
H523 H 0.06925 0.03026 0.95597 0.0
H524 H 0.09024 0.01711 0.88069 0.0
H525 H 0.92193 0.83751 0.05859 0.0
H526 H 0.93557 0.89465 0.09198 0.0
H527 H 0.88717 0.89685 0.05437 0.0
H528 H 0.97328 0.05655 0.14271 0.0
H529 H 0.85118 0.07093 0.05994 0.0
H530 H 0.07202 0.98264 0.04039 0.0
H531 H 0.02643 0.93624 0.08669 0.0
H532 H 0.04461 0.99362 0.11638 0.0
H533 H 0.91785 0.01406 0.93932 0.0
H534 H 0.84656 0.01226 0.99046 0.0
H535 H 0.89021 0.95561 0.97553 0.0
C536 C 0.37513 0.47545 0.56956 0.0
C537 C 0.39598 0.45716 0.61112 0.0
C538 C 0.40401 0.51337 0.53023 0.0
C539 C 0.45457 0.53482 0.53298 0.0
C540 C 0.47542 0.51719 0.57542 0.0
C541 C 0.44636 0.47812 0.61341 0.0
C542 C 0.38109 0.52939 0.4847 0.0
C543 C 0.52899 0.53899 0.58016 0.0
C544 C 0.55994 0.60107 0.40229 0.0
C545 C 0.54717 0.65301 0.41474 0.0
C546 C 0.52943 0.56229 0.43961 0.0
C547 C 0.48555 0.57556 0.4914 0.0
C548 C 0.4716 0.62788 0.50365 0.0
C549 C 0.50214 0.66584 0.46504 0.0
C550 C 0.54503 0.50709 0.42412 0.0
C551 C 0.42605 0.64398 0.55883 0.0
H552 H 0.33667 0.45917 0.5667 0.0
H553 H 0.46287 0.46429 0.6452 0.0
H554 H 0.37917 0.57163 0.48241 0.0
H555 H 0.4101 0.51575 0.44252 0.0
H556 H 0.33809 0.51361 0.49223 0.0
H557 H 0.53407 0.52826 0.62095 0.0
H558 H 0.56622 0.52444 0.54445 0.0
H559 H 0.52926 0.58129 0.57679 0.0
H560 H 0.59459 0.59067 0.36363 0.0
H561 H 0.49226 0.70576 0.47561 0.0
H562 H 0.50701 0.48519 0.42502 0.0
H563 H 0.56074 0.48953 0.45598 0.0
H564 H 0.57833 0.50297 0.38117 0.0
H565 H 0.44078 0.63629 0.59486 0.0
H566 H 0.38672 0.62145 0.56652 0.0
H567 H 0.41562 0.68529 0.55914 0.0
C568 C 0.44232 0.53501 0.11444 0.0
C569 C 0.39657 0.56283 0.1097 0.0
C570 C 0.46943 0.49638 0.07476 0.0
C571 C 0.45016 0.48472 0.02936 0.0
C572 C 0.40375 0.5124 0.02464 0.0
C573 C 0.37784 0.55106 0.06447 0.0
C574 C 0.51843 0.46763 0.08174 0.0
C575 C 0.38161 0.50149 0.97715 0.0
C576 C 0.55341 0.41718 0.89812 0.0
C577 C 0.5357 0.36595 0.9076 0.0
C578 C 0.52548 0.45615 0.93675 0.0
C579 C 0.47874 0.44386 0.98666 0.0
C580 C 0.45978 0.39243 0.99592 0.0
C581 C 0.48805 0.35432 0.95614 0.0
C582 C 0.54694 0.51041 0.92478 0.0
C583 C 0.41006 0.37745 0.04834 0.0
H584 H 0.45709 0.54342 0.14916 0.0
H585 H 0.34262 0.57209 0.06001 0.0
H586 H 0.50638 0.42695 0.09155 0.0
H587 H 0.55575 0.46845 0.04147 0.0
H588 H 0.53111 0.48378 0.11643 0.0
H589 H 0.3433 0.52446 0.98107 0.0
H590 H 0.41503 0.51009 0.93539 0.0
H591 H 0.37091 0.46036 0.97692 0.0
H592 H 0.58996 0.42682 0.86088 0.0
H593 H 0.47388 0.31499 0.96427 0.0
H594 H 0.56092 0.52416 0.95956 0.0
H595 H 0.51223 0.53601 0.92368 0.0
H596 H 0.58306 0.51393 0.88366 0.0
H597 H 0.40485 0.33532 0.05292 0.0
H598 H 0.37046 0.39401 0.04587 0.0
H599 H 0.41531 0.39293 0.08739 0.0
C600 C 0.97694 0.40872 0.12064 0.0
C601 C 0.92886 0.41035 0.10472 0.0
C602 C 0.01669 0.4487 0.10666 0.0
C603 C 0.01141 0.48872 0.0709 0.0
C604 C 0.96557 0.48811 0.05048 0.0
C605 C 0.92361 0.45012 0.06961 0.0
C606 C 0.06213 0.44848 0.133 0.0
C607 C 0.96081 0.52741 1.00823 0.0
C608 C 0.07982 0.62018 0.04674 0.0
C609 C 0.12749 0.61092 0.99773 0.0
C610 C 0.04428 0.57954 0.07496 0.0
C611 C 0.05528 0.52954 0.05158 0.0
C612 C 0.1067 0.51946 1.0062 0.0
C613 C 0.14321 0.56006 0.98147 0.0
C614 C 0.99357 0.59049 0.12788 0.0
C615 C 0.12123 0.46659 0.98074 0.0
H616 H 0.98237 0.37758 0.14656 0.0
H617 H 0.88678 0.4513 0.05681 0.0
H618 H 0.0841 0.411 0.12562 0.0
H619 H 0.09437 0.47897 0.11691 0.0
H620 H 0.04165 0.45345 0.17983 0.0
H621 H 0.92772 0.5171 0.99034 0.0
H622 H 0.94983 0.56519 0.02934 0.0
H623 H 0.00203 0.53153 0.97249 0.0
H624 H 0.06822 0.65915 0.06088 0.0
H625 H 0.18169 0.55233 0.94547 0.0
H626 H 0.98734 0.55934 0.15962 0.0
H627 H 0.95482 0.59274 0.11675 0.0
H628 H 0.99833 0.62734 0.14779 0.0
H629 H 0.12485 0.43963 0.01337 0.0
H630 H 0.16181 0.46582 0.94373 0.0
H631 H 0.08685 0.45241 0.96653 0.0
C632 C 0.08592 0.4359 0.44023 0.0
C633 C 0.14198 0.44097 0.43883 0.0
C634 C 0.04535 0.474 0.46369 0.0
C635 C 0.06001 0.51705 0.48953 0.0
C636 C 0.11499 0.52031 0.49267 0.0
C637 C 0.15583 0.48288 0.46601 0.0
C638 C 0.98729 0.46879 0.45931 0.0
C639 C 0.13189 0.56276 0.52382 0.0
C640 C 0.974 0.63988 0.50711 0.0
C641 C 0.93704 0.63555 0.56387 0.0
C642 C 0.01399 0.60119 0.48192 0.0
C643 C 0.01711 0.55768 0.51447 0.0
C644 C 0.97957 0.553 0.57139 0.0
C645 C 0.93957 0.59143 0.59495 0.0
C646 C 0.05356 0.60709 0.42088 0.0
C647 C 0.98291 0.50821 0.60817 0.0
H648 H 0.07431 0.4036 0.4198 0.0
H649 H 0.19869 0.48681 0.466 0.0
H650 H 0.9541 0.46868 0.50251 0.0
H651 H 0.97886 0.50208 0.43604 0.0
H652 H 0.98307 0.43324 0.43682 0.0
H653 H 0.14408 0.5458 0.55834 0.0
H654 H 0.16965 0.58233 0.49383 0.0
H655 H 0.09812 0.59135 0.54318 0.0
H656 H 0.97249 0.67376 0.4828 0.0
H657 H 0.91087 0.58711 0.63856 0.0
H658 H 0.04616 0.57557 0.39469 0.0
H659 H 0.09832 0.6041 0.4184 0.0
H660 H 0.04774 0.64422 0.40211 0.0
H661 H 0.97766 0.47172 0.58799 0.0
H662 H 0.95013 0.5101 0.65166 0.0
H663 H 0.02542 0.50735 0.61213 0.0
C664 C 0.57459 0.08617 1.00121 0.0
C665 C 0.63369 0.0803 0.98443 0.0
C666 C 0.53762 0.04664 0.02869 0.0
C667 C 0.56002 1.00083 0.04201 0.0
C668 C 0.61903 0.99698 0.03118 0.0
C669 C 0.65538 0.03655 1.00178 0.0
C670 C 0.47501 0.05255 0.03942 0.0
C671 C 0.64467 0.94992 0.04692 0.0
C672 C 0.44997 0.91437 0.14399 0.0
C673 C 0.4399 0.87834 0.10692 0.0
C674 C 0.49089 0.95281 0.12377 0.0
C675 C 0.52153 0.9566 0.06467 0.0
C676 C 0.51219 0.92034 0.0268 0.0
C677 C 0.47166 0.88139 0.04843 0.0
C678 C 0.50124 0.98952 0.16566 0.0
C679 C 0.54472 0.92303 0.96341 0.0
H680 H 0.55717 0.12024 0.98908 0.0
H681 H 0.70088 0.03172 0.9896 0.0
H682 H 0.46258 0.02546 0.0118 0.0
H683 H 0.44949 0.043 0.08426 0.0
H684 H 0.46392 0.09193 0.03038 0.0
H685 H 0.68402 0.95954 0.05514 0.0
H686 H 0.61475 0.93088 0.08521 0.0
H687 H 0.65586 0.92247 0.01088 0.0
H688 H 0.42591 0.91274 0.18921 0.0
H689 H 0.46476 0.85354 0.01952 0.0
H690 H 0.49063 0.02909 0.157 0.0
H691 H 0.54687 0.98925 0.16041 0.0
H692 H 0.47574 0.97988 0.21063 0.0
H693 H 0.53752 0.96065 0.9466 0.0
H694 H 0.53223 0.8923 0.93958 0.0
H695 H 0.5909 0.91973 0.95498 0.0
C696 C 0.55951 0.91891 0.51631 0.0
C697 C 0.60496 0.92733 0.46509 0.0
C698 C 0.52079 0.95837 0.54183 0.0
C699 C 0.5266 1.00648 0.51419 0.0
C700 C 0.57394 0.01582 0.46414 0.0
C701 C 0.61347 0.97676 0.44156 0.0
C702 C 0.47263 0.94802 0.59721 0.0
C703 C 0.58105 0.0659 0.43216 0.0
C704 C 0.39131 0.08375 0.54349 0.0
C705 C 0.39924 0.12355 0.5773 0.0
C706 C 0.43325 0.04617 0.52118 0.0
C707 C 0.48248 0.0467 0.53621 0.0
C708 C 0.49052 0.08677 0.57046 0.0
C709 C 0.45016 0.12599 0.58818 0.0
C710 C 0.42465 1.00573 0.48198 0.0
C711 C 0.54064 0.08732 0.59019 0.0
H712 H 0.55295 0.88115 0.53537 0.0
H713 H 0.64968 0.98444 0.4034 0.0
H714 H 0.46842 0.97988 0.62774 0.0
H715 H 0.43211 0.94546 0.58932 0.0
H716 H 0.47875 0.91171 0.61731 0.0
H717 H 0.61955 0.06633 0.39283 0.0
H718 H 0.54338 0.07295 0.42002 0.0
H719 H 0.58399 0.09814 0.45969 0.0
H720 H 0.35223 0.08195 0.53465 0.0
H721 H 0.45725 0.15708 0.6134 0.0
H722 H 0.41895 0.96783 0.50306 0.0
H723 H 0.4627 1.00325 0.44242 0.0
H724 H 0.38696 0.01365 0.47009 0.0
H725 H 0.54551 0.04947 0.60796 0.0
H726 H 0.53633 0.11696 0.62325 0.0
H727 H 0.5801 0.09486 0.55354 0.0
C728 C 0.20404 0.67655 0.40302 0.0
C729 C 0.25882 0.66749 0.36397 0.0
C730 C 0.19424 0.6841 0.46131 0.0
C731 C 0.24078 0.68417 0.48076 0.0
C732 C 0.29599 0.67325 0.44148 0.0
C733 C 0.30378 0.66317 0.38415 0.0
C734 C 0.13447 0.69577 0.50063 0.0
C735 C 0.34793 0.67818 0.45793 0.0
C736 C 0.2102 0.75739 0.62114 0.0
C737 C 0.2104 0.71779 0.65871 0.0
C738 C 0.22183 0.74739 0.56267 0.0
C739 C 0.23191 0.69626 0.54169 0.0
C740 C 0.23276 0.65647 0.57968 0.0
C741 C 0.22234 0.66783 0.63691 0.0
C742 C 0.22422 0.79216 0.52386 0.0
C743 C 0.24687 0.60148 0.56147 0.0
H744 H 0.16954 0.68211 0.38725 0.0
H745 H 0.34641 0.65791 0.35362 0.0
H746 H 0.12679 0.68377 0.54519 0.0
H747 H 0.12694 0.73753 0.50033 0.0
H748 H 0.10287 0.67672 0.48578 0.0
H749 H 0.38613 0.66091 0.42556 0.0
H750 H 0.35649 0.71939 0.46196 0.0
H751 H 0.34142 0.66019 0.49964 0.0
H752 H 0.20235 0.7963 0.63695 0.0
H753 H 0.22449 0.63663 0.66447 0.0
H754 H 0.18054 0.80186 0.52641 0.0
H755 H 0.25038 0.7841 0.47871 0.0
H756 H 0.24177 0.82651 0.53784 0.0
H757 H 0.25095 0.59343 0.51688 0.0
H758 H 0.21435 0.57579 0.59055 0.0
H759 H 0.2875 0.59124 0.56666 0.0
C760 C 0.77232 0.85066 0.88718 0.0
C761 C 0.757 0.80974 0.85957 0.0
C762 C 0.76186 0.84871 0.94651 0.0
C763 C 0.73704 0.80412 0.97847 0.0
C764 C 0.71992 0.76374 0.95064 0.0
C765 C 0.728 0.76808 0.89274 0.0
C766 C 0.78026 0.89376 0.97325 0.0
C767 C 0.6952 0.71434 0.98065 0.0
C768 C 0.77397 0.7752 0.11062 0.0
C769 C 0.72051 0.77537 0.154 0.0
C770 C 0.77993 0.78439 0.05345 0.0
C771 C 0.73151 0.7974 0.0397 0.0
C772 C 0.6773 0.7984 0.08407 0.0
C773 C 0.67249 0.7862 0.14028 0.0
C774 C 0.83821 0.7797 1.00803 0.0
C775 C 0.62361 0.81211 0.07352 0.0
H776 H 0.79451 0.88314 0.86233 0.0
H777 H 0.71412 0.73673 0.8726 0.0
H778 H 0.76272 0.89305 0.02053 0.0
H779 H 0.82725 0.89408 0.9588 0.0
H780 H 0.76739 0.93003 0.9582 0.0
H781 H 0.70198 0.68212 0.95 0.0
H782 H 0.71397 0.70349 0.01292 0.0
H783 H 0.64877 0.71894 1.00243 0.0
H784 H 0.81128 0.76798 0.12153 0.0
H785 H 0.63116 0.78731 0.17404 0.0
H786 H 0.85598 0.8184 0.99498 0.0
H787 H 0.83619 0.75982 0.96966 0.0
H788 H 0.86804 0.75854 0.02369 0.0
H789 H 0.63165 0.83032 0.03147 0.0
H790 H 0.59711 0.8383 0.10737 0.0
H791 H 0.59801 0.77701 0.07638 0.0
C792 C 0.7601 0.24123 0.39527 0.0
C793 C 0.76136 0.19823 0.36083 0.0
C794 C 0.74519 0.23772 0.45425 0.0
C795 C 0.72876 0.19005 0.48145 0.0
C796 C 0.72849 0.14615 0.44782 0.0
C797 C 0.74525 0.15067 0.38769 0.0
C798 C 0.74852 0.28543 0.48723 0.0
C799 C 0.71213 0.09414 0.47449 0.0
C800 C 0.74776 0.18822 0.62486 0.0
C801 C 0.69608 0.20892 0.66075 0.0
C802 C 0.75777 0.17839 0.567 0.0
C803 C 0.71428 0.18781 0.54472 0.0
C804 C 0.66046 0.20517 0.58204 0.0
C805 C 0.65237 0.2166 0.63937 0.0
C806 C 0.81591 0.16051 0.5291 0.0
C807 C 0.61195 0.21373 0.56107 0.0
H808 H 0.77171 0.27861 0.3762 0.0
H809 H 0.74573 0.11715 0.36204 0.0
H810 H 0.70565 0.29578 0.51719 0.0
H811 H 0.77577 0.27838 0.51287 0.0
H812 H 0.76599 0.31877 0.45898 0.0
H813 H 0.69159 0.07093 0.45015 0.0
H814 H 0.75105 0.07349 0.47311 0.0
H815 H 0.68325 0.0966 0.51961 0.0
H816 H 0.78119 0.18125 0.64179 0.0
H817 H 0.61169 0.23088 0.66758 0.0
H818 H 0.83527 0.18912 0.49503 0.0
H819 H 0.81232 0.12405 0.50804 0.0
H820 H 0.8449 0.15458 0.55314 0.0
H821 H 0.61371 0.18662 0.5264 0.0
H822 H 0.61434 0.25317 0.54411 0.0
H823 H 0.57036 0.20946 0.59626 0.0
C824 C 0.17152 0.27784 0.13691 0.0
C825 C 0.22086 0.26435 0.14709 0.0
C826 C 0.17377 0.29283 0.0823 0.0
C827 C 0.22649 0.29238 0.03623 0.0
C828 C 0.27624 0.27699 0.04611 0.0
C829 C 0.27297 0.26434 0.10171 0.0
C830 C 0.11976 0.30945 0.07412 0.0
C831 C 0.33291 0.27368 0.99794 0.0
C832 C 0.22386 0.2666 0.88902 0.0
C833 C 0.2446 0.31247 0.85949 0.0
C834 C 0.21752 0.26005 0.94613 0.0
C835 C 0.22864 0.30147 0.97667 0.0
C836 C 0.24447 0.34963 0.94911 0.0
C837 C 0.25313 0.35448 0.89032 0.0
C838 C 0.20248 0.2075 0.9725 0.0
C839 C 0.254 0.39537 0.98127 0.0
H840 H 0.13134 0.27852 0.17221 0.0
H841 H 0.31139 0.25554 0.10999 0.0
H842 H 0.12707 0.34491 0.04819 0.0
H843 H 0.10577 0.27948 0.05073 0.0
H844 H 0.08475 0.31623 0.11542 0.0
H845 H 0.36671 0.25808 0.01215 0.0
H846 H 0.32946 0.2489 0.96335 0.0
H847 H 0.34606 0.3122 0.9795 0.0
H848 H 0.21504 0.23418 0.86659 0.0
H849 H 0.2684 0.39021 0.86834 0.0
H850 H 0.16305 0.20919 0.01055 0.0
H851 H 0.23681 0.19351 0.98684 0.0
H852 H 0.19631 0.17905 0.94228 0.0
H853 H 0.21808 0.39975 0.02236 0.0
H854 H 0.25875 0.43129 0.95634 0.0
H855 H 0.29298 0.38957 0.99141 0.0
C856 C 0.39537 0.35952 0.28834 0.0
C857 C 0.378 0.31656 0.2651 0.0
C858 C 0.45318 0.36801 0.27908 0.0
C859 C 0.49434 0.3326 0.24603 0.0
C860 C 0.47722 0.29099 0.21971 0.0
C861 C 0.41949 0.28359 0.22947 0.0
C862 C 0.46977 0.41324 0.30718 0.0
C863 C 0.51954 0.25223 0.18401 0.0
C864 C 0.65506 0.34477 0.19084 0.0
C865 C 0.66804 0.31248 0.22898 0.0
C866 C 0.59809 0.35589 0.19851 0.0
C867 C 0.55381 0.33394 0.2451 0.0
C868 C 0.56742 0.30525 0.28636 0.0
C869 C 0.62434 0.29494 0.27772 0.0
C870 C 0.58531 0.38741 0.15425 0.0
C871 C 0.52193 0.28088 0.33661 0.0
H872 H 0.36374 0.3855 0.31551 0.0
H873 H 0.40679 0.25073 0.21048 0.0
H874 H 0.47992 0.39996 0.34447 0.0
H875 H 0.50831 0.43208 0.2773 0.0
H876 H 0.43509 0.44193 0.32225 0.0
H877 H 0.49995 0.22444 0.16295 0.0
H878 H 0.55505 0.27172 0.15064 0.0
H879 H 0.5379 0.23063 0.21144 0.0
H880 H 0.68888 0.35792 0.15287 0.0
H881 H 0.63462 0.27001 0.30727 0.0
H882 H 0.54883 0.41323 0.17475 0.0
H883 H 0.57364 0.36168 0.12495 0.0
H884 H 0.62251 0.4106 0.12849 0.0
H885 H 0.48838 0.30904 0.35857 0.0
H886 H 0.53933 0.26495 0.36808 0.0
H887 H 0.50156 0.24928 0.32129 0.0
C888 C 0.64493 0.69208 0.67675 0.0
C889 C 0.66162 0.72227 0.71411 0.0
C890 C 0.58692 0.68359 0.68704 0.0
C891 C 0.54546 0.70548 0.73598 0.0
C892 C 0.56276 0.73335 0.77539 0.0
C893 C 0.62057 0.74154 0.76378 0.0
C894 C 0.57001 0.65372 0.64413 0.0
C895 C 0.52019 0.75713 0.82827 0.0
C896 C 0.40073 0.748 0.73958 0.0
C897 C 0.36501 0.71144 0.7758 0.0
C898 C 0.45988 0.74464 0.72341 0.0
C899 C 0.48408 0.70384 0.74414 0.0
C900 C 0.44855 0.66551 0.77856 0.0
C901 C 0.38941 0.66974 0.79397 0.0
C902 C 0.4963 0.78623 0.68636 0.0
C903 C 0.4728 0.62135 0.8013 0.0
H904 H 0.67685 0.67754 0.63818 0.0
H905 H 0.6338 0.76458 0.79286 0.0
H906 H 0.53636 0.62561 0.66602 0.0
H907 H 0.55231 0.68019 0.62013 0.0
H908 H 0.60661 0.63318 0.61311 0.0
H909 H 0.54075 0.77425 0.85662 0.0
H910 H 0.49621 0.7876 0.81581 0.0
H911 H 0.48904 0.72808 0.85285 0.0
H912 H 0.38251 0.78001 0.72462 0.0
H913 H 0.36229 0.64094 0.82143 0.0
H914 H 0.53111 0.76925 0.64998 0.0
H915 H 0.51615 0.80908 0.7116 0.0
H916 H 0.47148 0.81249 0.66933 0.0
H917 H 0.50844 0.60341 0.76653 0.0
H918 H 0.44039 0.59163 0.82153 0.0
H919 H 0.49001 0.63561 0.83358 0.0
C920 C 0.11681 0.78881 0.30892 0.0
C921 C 0.15655 0.80584 0.25723 0.0
C922 C 0.05847 0.79582 0.32151 0.0
C923 C 0.03954 0.8199 0.28091 0.0
C924 C 0.07985 0.8408 0.23057 0.0
C925 C 0.13817 0.83336 0.21921 0.0
C926 C 0.01721 0.77322 0.37583 0.0
C927 C 0.06139 0.8671 0.18646 0.0
C928 C 0.90176 0.76882 0.27208 0.0
C929 C 0.86263 0.80684 0.30045 0.0
C930 C 0.95936 0.77304 0.26512 0.0
C931 C 0.97856 0.81634 0.28716 0.0
C932 C 0.93939 0.85488 0.31595 0.0
C933 C 0.88191 0.84967 0.32225 0.0
C934 C 0.99966 0.73086 0.23436 0.0
C935 C 0.95788 0.90111 0.34103 0.0
H936 H 0.13131 0.76674 0.33778 0.0
H937 H 0.16899 0.84541 0.17867 0.0
H938 H 0.98313 0.80101 0.39754 0.0
H939 H 0.99675 0.73893 0.36547 0.0
H940 H 0.03846 0.76163 0.40593 0.0
H941 H 0.09712 0.88733 0.15394 0.0
H942 H 0.04419 0.83828 0.16438 0.0
H943 H 0.02705 0.89503 0.20703 0.0
H944 H 0.88746 0.73559 0.25507 0.0
H945 H 0.852 0.87909 0.34469 0.0
H946 H 0.02009 0.71399 0.26285 0.0
H947 H 0.03393 0.74667 0.19667 0.0
H948 H 0.97792 0.69981 0.21981 0.0
H949 H 0.96853 0.88925 0.37851 0.0
H950 H 0.9242 0.93079 0.35509 0.0
H951 H 0.99662 0.91834 0.30962 0.0
C952 C 0.12693 0.19058 0.68728 0.0
C953 C 0.14229 0.22335 0.72358 0.0
C954 C 0.0694 0.1782 0.69894 0.0
C955 C 0.02701 0.19909 0.74795 0.0
C956 C 0.04329 0.22877 0.78682 0.0
C957 C 0.1006 0.24053 0.77406 0.0
C958 C 0.05378 0.14588 0.65685 0.0
C959 C 0.99986 0.25172 0.83968 0.0
C960 C 0.88342 0.24046 0.74716 0.0
C961 C 0.8468 0.20484 0.78407 0.0
C962 C 0.94239 0.23705 0.73246 0.0
C963 C 0.96577 0.19694 0.75507 0.0
C964 C 0.92939 0.15944 0.79027 0.0
C965 C 0.87028 0.16389 0.80449 0.0
C966 C 0.97948 0.27805 0.69495 0.0
C967 C 0.95264 0.11591 0.81492 0.0
H968 H 0.1592 0.17739 0.64818 0.0
H969 H 0.11266 0.26534 0.80256 0.0
H970 H 0.02051 0.11764 0.67934 0.0
H971 H 0.03623 0.17076 0.63129 0.0
H972 H 0.09112 0.12522 0.62713 0.0
H973 H 0.01979 0.26932 0.86832 0.0
H974 H 0.9754 0.28172 0.82713 0.0
H975 H 0.96925 0.22219 0.86399 0.0
H976 H 0.86601 0.27196 0.73054 0.0
H977 H 0.8425 0.13582 0.83255 0.0
H978 H 0.01438 0.26049 0.65912 0.0
H979 H 0.99918 0.30119 0.72011 0.0
H980 H 0.95523 0.30415 0.67707 0.0
H981 H 0.99004 0.09849 0.78174 0.0
H982 H 0.92033 0.0857 0.83348 0.0
H983 H 0.96694 0.13068 0.84907 0.0
loop_
_geom_bond_atom_site_label_1
_geom_bond_atom_site_label_2
_geom_bond_distance
_geom_bond_site_symmetry_2
_ccdc_geom_bond_type
Co0 O2 2.143 . S
Co0 O8 2.074 . S
Co0 O11 2.093 . S
Co0 O24 2.097 . S
Co0 N41 2.151 . S
Co0 N49 2.214 . S
Co1 O2 2.160 . S
Co1 O7 2.058 . S
Co1 O17 2.057 . S
Co1 O32 2.037 . S
Co1 N36 2.145 . S
Co1 N57 2.257 . S
O2 Co0 2.143 . S
O2 Co1 2.160 . S
C3 O4 1.278 . S
C3 O11 1.224 . S
O4 C3 1.278 . S
C5 O6 1.245 . S
C5 O17 1.232 . S
O6 C5 1.245 . S
O7 Co1 2.058 . S
O7 C33 1.269 . S
O8 Co0 2.074 . S
O8 C33 1.257 . S
H9 C34 0.930 . S
H10 C40 0.930 . S
O11 Co0 2.093 . S
O11 C3 1.224 . S
H12 C44 0.929 . S
H13 C46 0.930 . S
H14 C47 0.930 . S
H15 C45 0.929 . S
H16 C48 0.928 . S
O17 Co1 2.057 . S
O17 C5 1.232 . S
H18 C37 0.929 . S
H19 C38 0.929 . S
H20 C50 0.931 . S
H21 C42 0.929 1_655 S
H22 C51 0.930 . S
H23 C43 0.931 1_655 S
O24 Co0 2.097 . S
O24 C52 1.214 . S
H25 C53 0.929 . S
H26 C54 0.929 . S
H27 C55 0.930 . S
H28 C56 0.929 . S
H29 C58 0.930 . S
H30 C35 0.930 . S
H31 C39 0.930 . S
O32 Co1 2.037 . S
O32 C52 1.234 . S
C33 O7 1.269 . S
C33 O8 1.257 . S
C34 H9 0.930 . S
C34 C37 1.388 . S
C34 C39 1.418 . S
C35 H30 0.930 . S
C35 C38 1.404 . S
C35 C39 1.353 . S
N36 Co1 2.145 . S
N36 C37 1.397 . S
N36 C38 1.334 . S
C37 H18 0.929 . S
C37 C34 1.388 . S
C37 N36 1.397 . S
C38 H19 0.929 . S
C38 C35 1.404 . S
C38 N36 1.334 . S
C39 H31 0.930 . S
C39 C34 1.418 . S
C39 C35 1.353 . S
C40 H10 0.930 . S
C40 N41 1.330 . S
C40 C42 1.446 . S
N41 Co0 2.151 . S
N41 C40 1.330 . S
N41 C45 1.418 . S
C42 H21 0.929 1_455 S
C42 C40 1.446 . S
C42 C43 1.332 . S
C43 H23 0.931 1_455 S
C43 C42 1.332 . S
C43 C44 1.267 . S
C44 H12 0.929 . S
C44 C43 1.267 . S
C44 C45 1.251 . S
C45 H15 0.929 . S
C45 N41 1.418 . S
C45 C44 1.251 . S
C46 H13 0.930 . S
C46 C48 1.406 . S
C46 C51 1.261 . S
C47 H14 0.930 . S
C47 N49 1.325 . S
C47 C50 1.357 . S
C48 H16 0.928 . S
C48 C46 1.406 . S
C48 N49 1.261 . S
N49 Co0 2.214 . S
N49 C47 1.325 . S
N49 C48 1.261 . S
C50 H20 0.931 . S
C50 C47 1.357 . S
C50 C51 1.312 . S
C51 H22 0.930 . S
C51 C46 1.261 . S
C51 C50 1.312 . S
C52 O24 1.214 . S
C52 O32 1.234 . S
C53 H25 0.929 . S
C53 C56 1.391 . S
C53 C58 1.391 . S
C54 H26 0.929 . S
C54 C55 1.390 . S
C54 N57 1.391 . S
C55 H27 0.930 . S
C55 C54 1.390 . S
C55 C56 1.392 . S
C56 H28 0.929 . S
C56 C53 1.391 . S
C56 C55 1.392 . S
N57 Co1 2.257 . S
N57 C54 1.391 . S
N57 C58 1.388 . S
C58 H29 0.930 . S
C58 C53 1.391 . S
C58 N57 1.388 . S
Co59 O61 2.143 . S
Co59 O67 2.074 . S
Co59 O70 2.093 . S
Co59 O83 2.097 . S
Co59 N100 2.151 . S
Co59 N108 2.214 . S
Co60 O61 2.160 . S
Co60 O66 2.058 . S
Co60 O76 2.057 . S
Co60 O91 2.037 . S
Co60 N95 2.145 . S
Co60 N116 2.257 . S
O61 Co59 2.143 . S
O61 Co60 2.160 . S
C62 O63 1.278 . S
C62 O70 1.224 . S
O63 C62 1.278 . S
C64 O65 1.245 . S
C64 O76 1.232 . S
O65 C64 1.245 . S
O66 Co60 2.058 . S
O66 C92 1.269 . S
O67 Co59 2.074 . S
O67 C92 1.257 . S
H68 C93 0.930 . S
H69 C99 0.930 . S
O70 Co59 2.093 . S
O70 C62 1.224 . S
H71 C103 0.929 . S
H72 C105 0.930 . S
H73 C106 0.930 . S
H74 C104 0.929 . S
H75 C107 0.928 . S
O76 Co60 2.057 . S
O76 C64 1.232 . S
H77 C96 0.929 . S
H78 C97 0.929 . S
H79 C109 0.931 . S
H80 C101 0.929 1_455 S
H81 C110 0.930 . S
H82 C102 0.931 1_455 S
O83 Co59 2.097 . S
O83 C111 1.214 . S
H84 C112 0.929 . S
H85 C113 0.929 . S
H86 C114 0.930 . S
H87 C115 0.929 . S
H88 C117 0.930 . S
H89 C94 0.930 . S
H90 C98 0.930 . S
O91 Co60 2.037 . S
O91 C111 1.234 . S
C92 O66 1.269 . S
C92 O67 1.257 . S
C93 H68 0.930 . S
C93 C96 1.388 . S
C93 C98 1.418 . S
C94 H89 0.930 . S
C94 C97 1.404 . S
C94 C98 1.353 . S
N95 Co60 2.145 . S
N95 C96 1.397 . S
N95 C97 1.334 . S
C96 H77 0.929 . S
C96 C93 1.388 . S
C96 N95 1.397 . S
C97 H78 0.929 . S
C97 C94 1.404 . S
C97 N95 1.334 . S
C98 H90 0.930 . S
C98 C93 1.418 . S
C98 C94 1.353 . S
C99 H69 0.930 . S
C99 N100 1.330 . S
C99 C101 1.446 . S
N100 Co59 2.151 . S
N100 C99 1.330 . S
N100 C104 1.418 . S
C101 H80 0.929 1_655 S
C101 C99 1.446 . S
C101 C102 1.332 . S
C102 H82 0.931 1_655 S
C102 C101 1.332 . S
C102 C103 1.267 . S
C103 H71 0.929 . S
C103 C102 1.267 . S
C103 C104 1.251 . S
C104 H74 0.929 . S
C104 N100 1.418 . S
C104 C103 1.251 . S
C105 H72 0.930 . S
C105 C107 1.406 . S
C105 C110 1.261 . S
C106 H73 0.930 . S
C106 N108 1.325 . S
C106 C109 1.357 . S
C107 H75 0.928 . S
C107 C105 1.406 . S
C107 N108 1.261 . S
N108 Co59 2.214 . S
N108 C106 1.325 . S
N108 C107 1.261 . S
C109 H79 0.931 . S
C109 C106 1.357 . S
C109 C110 1.312 . S
C110 H81 0.930 . S
C110 C105 1.261 . S
C110 C109 1.312 . S
C111 O83 1.214 . S
C111 O91 1.234 . S
C112 H84 0.929 . S
C112 C115 1.391 . S
C112 C117 1.391 1_556 S
C113 H85 0.929 . S
C113 C114 1.390 . S
C113 N116 1.391 . S
C114 H86 0.930 . S
C114 C113 1.390 . S
C114 C115 1.392 1_554 S
C115 H87 0.929 . S
C115 C112 1.391 . S
C115 C114 1.392 1_556 S
N116 Co60 2.257 . S
N116 C113 1.391 . S
N116 C117 1.388 . S
C117 H88 0.930 . S
C117 C112 1.391 1_554 S
C117 N116 1.388 . S
Co118 O120 2.143 . S
Co118 O126 2.074 . S
Co118 O129 2.093 . S
Co118 O142 2.097 . S
Co118 N159 2.151 . S
Co118 N167 2.214 . S
Co119 O120 2.160 . S
Co119 O125 2.058 . S
Co119 O135 2.057 . S
Co119 O150 2.037 . S
Co119 N154 2.145 . S
Co119 N175 2.257 . S
O120 Co118 2.143 . S
O120 Co119 2.160 . S
C121 O122 1.278 . S
C121 O129 1.224 . S
O122 C121 1.278 . S
C123 O124 1.245 . S
C123 O135 1.232 . S
O124 C123 1.245 . S
O125 Co119 2.058 . S
O125 C151 1.269 . S
O126 Co118 2.074 . S
O126 C151 1.257 . S
H127 C152 0.930 . S
H128 C158 0.930 . S
O129 Co118 2.093 . S
O129 C121 1.224 . S
H130 C162 0.929 . S
H131 C164 0.930 . S
H132 C165 0.930 . S
H133 C163 0.929 . S
H134 C166 0.928 . S
O135 Co119 2.057 . S
O135 C123 1.232 . S
H136 C155 0.929 . S
H137 C156 0.929 . S
H138 C168 0.931 . S
H139 C160 0.929 1_455 S
H140 C169 0.930 . S
H141 C161 0.931 1_455 S
O142 Co118 2.097 . S
O142 C170 1.214 . S
H143 C171 0.929 . S
H144 C172 0.929 . S
H145 C173 0.930 . S
H146 C174 0.929 . S
H147 C176 0.930 . S
H148 C153 0.930 . S
H149 C157 0.930 . S
O150 Co119 2.037 . S
O150 C170 1.234 . S
C151 O125 1.269 . S
C151 O126 1.257 . S
C152 H127 0.930 . S
C152 C155 1.388 . S
C152 C157 1.418 . S
C153 H148 0.930 . S
C153 C156 1.404 . S
C153 C157 1.353 . S
N154 Co119 2.145 . S
N154 C155 1.397 . S
N154 C156 1.334 . S
C155 H136 0.929 . S
C155 C152 1.388 . S
C155 N154 1.397 . S
C156 H137 0.929 . S
C156 C153 1.404 . S
C156 N154 1.334 . S
C157 H149 0.930 . S
C157 C152 1.418 . S
C157 C153 1.353 . S
C158 H128 0.930 . S
C158 N159 1.330 . S
C158 C160 1.446 . S
N159 Co118 2.151 . S
N159 C158 1.330 . S
N159 C163 1.418 . S
C160 H139 0.929 1_655 S
C160 C158 1.446 . S
C160 C161 1.332 . S
C161 H141 0.931 1_655 S
C161 C160 1.332 . S
C161 C162 1.267 . S
C162 H130 0.929 . S
C162 C161 1.267 . S
C162 C163 1.251 . S
C163 H133 0.929 . S
C163 N159 1.418 . S
C163 C162 1.251 . S
C164 H131 0.930 . S
C164 C166 1.406 . S
C164 C169 1.261 . S
C165 H132 0.930 . S
C165 N167 1.325 . S
C165 C168 1.357 . S
C166 H134 0.928 . S
C166 C164 1.406 . S
C166 N167 1.261 . S
N167 Co118 2.214 . S
N167 C165 1.325 . S
N167 C166 1.261 . S
C168 H138 0.931 . S
C168 C165 1.357 . S
C168 C169 1.312 . S
C169 H140 0.930 . S
C169 C164 1.261 . S
C169 C168 1.312 . S
C170 O142 1.214 . S
C170 O150 1.234 . S
C171 H143 0.929 . S
C171 C174 1.391 . S
C171 C176 1.391 . S
C172 H144 0.929 . S
C172 C173 1.390 . S
C172 N175 1.391 . S
C173 H145 0.930 . S
C173 C172 1.390 . S
C173 C174 1.392 . S
C174 H146 0.929 . S
C174 C171 1.391 . S
C174 C173 1.392 . S
N175 Co119 2.257 . S
N175 C172 1.391 . S
N175 C176 1.388 . S
C176 H147 0.930 . S
C176 C171 1.391 . S
C176 N175 1.388 . S
Co177 O179 2.143 . S
Co177 O185 2.074 . S
Co177 O188 2.093 . S
Co177 O201 2.097 . S
Co177 N218 2.151 . S
Co177 N226 2.214 . S
Co178 O179 2.160 . S
Co178 O184 2.058 . S
Co178 O194 2.057 . S
Co178 O209 2.037 . S
Co178 N213 2.145 . S
Co178 N234 2.257 . S
O179 Co177 2.143 . S
O179 Co178 2.160 . S
C180 O181 1.278 . S
C180 O188 1.224 . S
O181 C180 1.278 . S
C182 O183 1.245 . S
C182 O194 1.232 . S
O183 C182 1.245 . S
O184 Co178 2.058 . S
O184 C210 1.269 . S
O185 Co177 2.074 . S
O185 C210 1.257 . S
H186 C211 0.930 . S
H187 C217 0.930 . S
O188 Co177 2.093 . S
O188 C180 1.224 . S
H189 C221 0.929 . S
H190 C223 0.930 . S
H191 C224 0.930 . S
H192 C222 0.929 . S
H193 C225 0.928 . S
O194 Co178 2.057 . S
O194 C182 1.232 . S
H195 C214 0.929 . S
H196 C215 0.929 . S
H197 C227 0.931 . S
H198 C219 0.929 1_655 S
H199 C228 0.930 . S
H200 C220 0.931 1_655 S
O201 Co177 2.097 . S
O201 C229 1.214 . S
H202 C230 0.929 . S
H203 C231 0.929 . S
H204 C232 0.930 . S
H205 C233 0.929 . S
H206 C235 0.930 . S
H207 C212 0.930 . S
H208 C216 0.930 . S
O209 Co178 2.037 . S
O209 C229 1.234 . S
C210 O184 1.269 . S
C210 O185 1.257 . S
C211 H186 0.930 . S
C211 C214 1.388 . S
C211 C216 1.418 . S
C212 H207 0.930 . S
C212 C215 1.404 . S
C212 C216 1.353 . S
N213 Co178 2.145 . S
N213 C214 1.397 . S
N213 C215 1.334 . S
C214 H195 0.929 . S
C214 C211 1.388 . S
C214 N213 1.397 . S
C215 H196 0.929 . S
C215 C212 1.404 . S
C215 N213 1.334 . S
C216 H208 0.930 . S
C216 C211 1.418 . S
C216 C212 1.353 . S
C217 H187 0.930 . S
C217 N218 1.330 . S
C217 C219 1.446 . S
N218 Co177 2.151 . S
N218 C217 1.330 . S
N218 C222 1.418 . S
C219 H198 0.929 1_455 S
C219 C217 1.446 . S
C219 C220 1.332 . S
C220 H200 0.931 1_455 S
C220 C219 1.332 . S
C220 C221 1.267 . S
C221 H189 0.929 . S
C221 C220 1.267 . S
C221 C222 1.251 . S
C222 H192 0.929 . S
C222 N218 1.418 . S
C222 C221 1.251 . S
C223 H190 0.930 . S
C223 C225 1.406 . S
C223 C228 1.261 . S
C224 H191 0.930 . S
C224 N226 1.325 . S
C224 C227 1.357 . S
C225 H193 0.928 . S
C225 C223 1.406 . S
C225 N226 1.261 . S
N226 Co177 2.214 . S
N226 C224 1.325 . S
N226 C225 1.261 . S
C227 H197 0.931 . S
C227 C224 1.357 . S
C227 C228 1.312 . S
C228 H199 0.930 . S
C228 C223 1.261 . S
C228 C227 1.312 . S
C229 O201 1.214 . S
C229 O209 1.234 . S
C230 H202 0.929 . S
C230 C233 1.391 . S
C230 C235 1.391 1_554 S
C231 H203 0.929 . S
C231 C232 1.390 . S
C231 N234 1.391 . S
C232 H204 0.930 . S
C232 C231 1.390 . S
C232 C233 1.392 1_556 S
C233 H205 0.929 . S
C233 C230 1.391 . S
C233 C232 1.392 1_554 S
N234 Co178 2.257 . S
N234 C231 1.391 . S
N234 C235 1.388 . S
C235 H206 0.930 . S
C235 C230 1.391 1_556 S
C235 N234 1.388 . S
Co236 O238 2.143 . S
Co236 O244 2.074 . S
Co236 O247 2.093 . S
Co236 O260 2.097 . S
Co236 N277 2.151 . S
Co236 N285 2.214 . S
Co237 O238 2.160 . S
Co237 O243 2.058 . S
Co237 O253 2.057 . S
Co237 O268 2.037 . S
Co237 N272 2.145 . S
Co237 N293 2.257 . S
O238 Co236 2.143 . S
O238 Co237 2.160 . S
C239 O240 1.278 . S
C239 O247 1.224 . S
O240 C239 1.278 . S
C241 O242 1.245 . S
C241 O253 1.232 . S
O242 C241 1.245 . S
O243 Co237 2.058 . S
O243 C269 1.269 . S
O244 Co236 2.074 . S
O244 C269 1.257 . S
H245 C270 0.930 . S
H246 C276 0.930 . S
O247 Co236 2.093 . S
O247 C239 1.224 . S
H248 C280 0.929 . S
H249 C282 0.930 1_545 S
H250 C283 0.930 . S
H251 C281 0.929 . S
H252 C284 0.928 . S
O253 Co237 2.057 . S
O253 C241 1.232 . S
H254 C273 0.929 . S
H255 C274 0.929 . S
H256 C286 0.931 . S
H257 C278 0.929 . S
H258 C287 0.930 1_545 S
H259 C279 0.931 . S
O260 Co236 2.097 . S
O260 C288 1.214 . S
H261 C289 0.929 . S
H262 C290 0.929 . S
H263 C291 0.930 . S
H264 C292 0.929 . S
H265 C294 0.930 . S
H266 C271 0.930 . S
H267 C275 0.930 . S
O268 Co237 2.037 . S
O268 C288 1.234 . S
C269 O243 1.269 . S
C269 O244 1.257 . S
C270 H245 0.930 . S
C270 C273 1.388 . S
C270 C275 1.418 . S
C271 H266 0.930 . S
C271 C274 1.404 . S
C271 C275 1.353 . S
N272 Co237 2.145 . S
N272 C273 1.397 . S
N272 C274 1.334 . S
C273 H254 0.929 . S
C273 C270 1.388 . S
C273 N272 1.397 . S
C274 H255 0.929 . S
C274 C271 1.404 . S
C274 N272 1.334 . S
C275 H267 0.930 . S
C275 C270 1.418 . S
C275 C271 1.353 . S
C276 H246 0.930 . S
C276 N277 1.330 . S
C276 C278 1.446 . S
N277 Co236 2.151 . S
N277 C276 1.330 . S
N277 C281 1.418 . S
C278 H257 0.929 . S
C278 C276 1.446 . S
C278 C279 1.332 . S
C279 H259 0.931 . S
C279 C278 1.332 . S
C279 C280 1.267 . S
C280 H248 0.929 . S
C280 C279 1.267 . S
C280 C281 1.251 . S
C281 H251 0.929 . S
C281 N277 1.418 . S
C281 C280 1.251 . S
C282 H249 0.930 1_565 S
C282 C284 1.406 . S
C282 C287 1.261 . S
C283 H250 0.930 . S
C283 N285 1.325 . S
C283 C286 1.357 . S
C284 H252 0.928 . S
C284 C282 1.406 . S
C284 N285 1.261 . S
N285 Co236 2.214 . S
N285 C283 1.325 . S
N285 C284 1.261 . S
C286 H256 0.931 . S
C286 C283 1.357 . S
C286 C287 1.312 . S
C287 H258 0.930 1_565 S
C287 C282 1.261 . S
C287 C286 1.312 . S
C288 O260 1.214 . S
C288 O268 1.234 . S
C289 H261 0.929 . S
C289 C292 1.391 . S
C289 C294 1.391 . S
C290 H262 0.929 . S
C290 C291 1.390 . S
C290 N293 1.391 . S
C291 H263 0.930 . S
C291 C290 1.390 . S
C291 C292 1.392 . S
C292 H264 0.929 . S
C292 C289 1.391 . S
C292 C291 1.392 . S
N293 Co237 2.257 . S
N293 C290 1.391 . S
N293 C294 1.388 . S
C294 H265 0.930 . S
C294 C289 1.391 . S
C294 N293 1.388 . S
Co295 O297 2.143 . S
Co295 O303 2.074 . S
Co295 O306 2.093 . S
Co295 O319 2.097 . S
Co295 N336 2.151 . S
Co295 N344 2.214 . S
Co296 O297 2.160 . S
Co296 O302 2.058 . S
Co296 O312 2.057 . S
Co296 O327 2.037 . S
Co296 N331 2.145 . S
Co296 N352 2.257 . S
O297 Co295 2.143 . S
O297 Co296 2.160 . S
C298 O299 1.278 . S
C298 O306 1.224 . S
O299 C298 1.278 . S
C300 O301 1.245 . S
C300 O312 1.232 . S
O301 C300 1.245 . S
O302 Co296 2.058 . S
O302 C328 1.269 . S
O303 Co295 2.074 . S
O303 C328 1.257 . S
H304 C329 0.930 . S
H305 C335 0.930 . S
O306 Co295 2.093 . S
O306 C298 1.224 . S
H307 C339 0.929 . S
H308 C341 0.930 1_545 S
H309 C342 0.930 . S
H310 C340 0.929 . S
H311 C343 0.928 . S
O312 Co296 2.057 . S
O312 C300 1.232 . S
H313 C332 0.929 . S
H314 C333 0.929 . S
H315 C345 0.931 . S
H316 C337 0.929 . S
H317 C346 0.930 1_545 S
H318 C338 0.931 . S
O319 Co295 2.097 . S
O319 C347 1.214 . S
H320 C348 0.929 . S
H321 C349 0.929 . S
H322 C350 0.930 . S
H323 C351 0.929 . S
H324 C353 0.930 . S
H325 C330 0.930 . S
H326 C334 0.930 . S
O327 Co296 2.037 . S
O327 C347 1.234 . S
C328 O302 1.269 . S
C328 O303 1.257 . S
C329 H304 0.930 . S
C329 C332 1.388 . S
C329 C334 1.418 . S
C330 H325 0.930 . S
C330 C333 1.404 . S
C330 C334 1.353 . S
N331 Co296 2.145 . S
N331 C332 1.397 . S
N331 C333 1.334 . S
C332 H313 0.929 . S
C332 C329 1.388 . S
C332 N331 1.397 . S
C333 H314 0.929 . S
C333 C330 1.404 . S
C333 N331 1.334 . S
C334 H326 0.930 . S
C334 C329 1.418 . S
C334 C330 1.353 . S
C335 H305 0.930 . S
C335 N336 1.330 . S
C335 C337 1.446 . S
N336 Co295 2.151 . S
N336 C335 1.330 . S
N336 C340 1.418 . S
C337 H316 0.929 . S
C337 C335 1.446 . S
C337 C338 1.332 . S
C338 H318 0.931 . S
C338 C337 1.332 . S
C338 C339 1.267 . S
C339 H307 0.929 . S
C339 C338 1.267 . S
C339 C340 1.251 . S
C340 H310 0.929 . S
C340 N336 1.418 . S
C340 C339 1.251 . S
C341 H308 0.930 1_565 S
C341 C343 1.406 . S
C341 C346 1.261 . S
C342 H309 0.930 . S
C342 N344 1.325 . S
C342 C345 1.357 . S
C343 H311 0.928 . S
C343 C341 1.406 . S
C343 N344 1.261 . S
N344 Co295 2.214 . S
N344 C342 1.325 . S
N344 C343 1.261 . S
C345 H315 0.931 . S
C345 C342 1.357 . S
C345 C346 1.312 . S
C346 H317 0.930 1_565 S
C346 C341 1.261 . S
C346 C345 1.312 . S
C347 O319 1.214 . S
C347 O327 1.234 . S
C348 H320 0.929 . S
C348 C351 1.391 . S
C348 C353 1.391 1_556 S
C349 H321 0.929 . S
C349 C350 1.390 . S
C349 N352 1.391 . S
C350 H322 0.930 . S
C350 C349 1.390 . S
C350 C351 1.392 1_554 S
C351 H323 0.929 . S
C351 C348 1.391 . S
C351 C350 1.392 1_556 S
N352 Co296 2.257 . S
N352 C349 1.391 . S
N352 C353 1.388 . S
C353 H324 0.930 . S
C353 C348 1.391 1_554 S
C353 N352 1.388 . S
Co354 O356 2.143 . S
Co354 O362 2.074 . S
Co354 O365 2.093 . S
Co354 O378 2.097 . S
Co354 N395 2.151 . S
Co354 N403 2.214 . S
Co355 O356 2.160 . S
Co355 O361 2.058 . S
Co355 O371 2.057 . S
Co355 O386 2.037 . S
Co355 N390 2.145 . S
Co355 N411 2.257 . S
O356 Co354 2.143 . S
O356 Co355 2.160 . S
C357 O358 1.278 . S
C357 O365 1.224 . S
O358 C357 1.278 . S
C359 O360 1.245 . S
C359 O371 1.232 . S
O360 C359 1.245 . S
O361 Co355 2.058 . S
O361 C387 1.269 . S
O362 Co354 2.074 . S
O362 C387 1.257 . S
H363 C388 0.930 . S
H364 C394 0.930 . S
O365 Co354 2.093 . S
O365 C357 1.224 . S
H366 C398 0.929 . S
H367 C400 0.930 1_565 S
H368 C401 0.930 . S
H369 C399 0.929 . S
H370 C402 0.928 . S
O371 Co355 2.057 . S
O371 C359 1.232 . S
H372 C391 0.929 . S
H373 C392 0.929 . S
H374 C404 0.931 . S
H375 C396 0.929 . S
H376 C405 0.930 1_565 S
H377 C397 0.931 . S
O378 Co354 2.097 . S
O378 C406 1.214 . S
H379 C407 0.929 . S
H380 C408 0.929 . S
H381 C409 0.930 . S
H382 C410 0.929 . S
H383 C412 0.930 . S
H384 C389 0.930 . S
H385 C393 0.930 . S
O386 Co355 2.037 . S
O386 C406 1.234 . S
C387 O361 1.269 . S
C387 O362 1.257 . S
C388 H363 0.930 . S
C388 C391 1.388 . S
C388 C393 1.418 . S
C389 H384 0.930 . S
C389 C392 1.404 . S
C389 C393 1.353 . S
N390 Co355 2.145 . S
N390 C391 1.397 . S
N390 C392 1.334 . S
C391 H372 0.929 . S
C391 C388 1.388 . S
C391 N390 1.397 . S
C392 H373 0.929 . S
C392 C389 1.404 . S
C392 N390 1.334 . S
C393 H385 0.930 . S
C393 C388 1.418 . S
C393 C389 1.353 . S
C394 H364 0.930 . S
C394 N395 1.330 . S
C394 C396 1.446 . S
N395 Co354 2.151 . S
N395 C394 1.330 . S
N395 C399 1.418 . S
C396 H375 0.929 . S
C396 C394 1.446 . S
C396 C397 1.332 . S
C397 H377 0.931 . S
C397 C396 1.332 . S
C397 C398 1.267 . S
C398 H366 0.929 . S
C398 C397 1.267 . S
C398 C399 1.251 . S
C399 H369 0.929 . S
C399 N395 1.418 . S
C399 C398 1.251 . S
C400 H367 0.930 1_545 S
C400 C402 1.406 . S
C400 C405 1.261 . S
C401 H368 0.930 . S
C401 N403 1.325 . S
C401 C404 1.357 . S
C402 H370 0.928 . S
C402 C400 1.406 . S
C402 N403 1.261 . S
N403 Co354 2.214 . S
N403 C401 1.325 . S
N403 C402 1.261 . S
C404 H374 0.931 . S
C404 C401 1.357 . S
C404 C405 1.312 . S
C405 H376 0.930 1_545 S
C405 C400 1.261 . S
C405 C404 1.312 . S
C406 O378 1.214 . S
C406 O386 1.234 . S
C407 H379 0.929 . S
C407 C410 1.391 . S
C407 C412 1.391 . S
C408 H380 0.929 . S
C408 C409 1.390 . S
C408 N411 1.391 . S
C409 H381 0.930 . S
C409 C408 1.390 . S
C409 C410 1.392 . S
C410 H382 0.929 . S
C410 C407 1.391 . S
C410 C409 1.392 . S
N411 Co355 2.257 . S
N411 C408 1.391 . S
N411 C412 1.388 . S
C412 H383 0.930 . S
C412 C407 1.391 . S
C412 N411 1.388 . S
Co413 O415 2.143 . S
Co413 O421 2.074 . S
Co413 O424 2.093 . S
Co413 O437 2.097 . S
Co413 N454 2.151 . S
Co413 N462 2.214 . S
Co414 O415 2.160 . S
Co414 O420 2.058 . S
Co414 O430 2.057 . S
Co414 O445 2.037 . S
Co414 N449 2.145 . S
Co414 N470 2.257 . S
O415 Co413 2.143 . S
O415 Co414 2.160 . S
C416 O417 1.278 . S
C416 O424 1.224 . S
O417 C416 1.278 . S
C418 O419 1.245 . S
C418 O430 1.232 . S
O419 C418 1.245 . S
O420 Co414 2.058 . S
O420 C446 1.269 . S
O421 Co413 2.074 . S
O421 C446 1.257 . S
H422 C447 0.930 . S
H423 C453 0.930 . S
O424 Co413 2.093 . S
O424 C416 1.224 . S
H425 C457 0.929 . S
H426 C459 0.930 1_565 S
H427 C460 0.930 . S
H428 C458 0.929 . S
H429 C461 0.928 . S
O430 Co414 2.057 . S
O430 C418 1.232 . S
H431 C450 0.929 . S
H432 C451 0.929 . S
H433 C463 0.931 . S
H434 C455 0.929 . S
H435 C464 0.930 1_565 S
H436 C456 0.931 . S
O437 Co413 2.097 . S
O437 C465 1.214 . S
H438 C466 0.929 . S
H439 C467 0.929 . S
H440 C468 0.930 . S
H441 C469 0.929 . S
H442 C471 0.930 . S
H443 C448 0.930 . S
H444 C452 0.930 . S
O445 Co414 2.037 . S
O445 C465 1.234 . S
C446 O420 1.269 . S
C446 O421 1.257 . S
C447 H422 0.930 . S
C447 C450 1.388 . S
C447 C452 1.418 . S
C448 H443 0.930 . S
C448 C451 1.404 . S
C448 C452 1.353 . S
N449 Co414 2.145 . S
N449 C450 1.397 . S
N449 C451 1.334 . S
C450 H431 0.929 . S
C450 C447 1.388 . S
C450 N449 1.397 . S
C451 H432 0.929 . S
C451 C448 1.404 . S
C451 N449 1.334 . S
C452 H444 0.930 . S
C452 C447 1.418 . S
C452 C448 1.353 . S
C453 H423 0.930 . S
C453 N454 1.330 . S
C453 C455 1.446 . S
N454 Co413 2.151 . S
N454 C453 1.330 . S
N454 C458 1.418 . S
C455 H434 0.929 . S
C455 C453 1.446 . S
C455 C456 1.332 . S
C456 H436 0.931 . S
C456 C455 1.332 . S
C456 C457 1.267 . S
C457 H425 0.929 . S
C457 C456 1.267 . S
C457 C458 1.251 . S
C458 H428 0.929 . S
C458 N454 1.418 . S
C458 C457 1.251 . S
C459 H426 0.930 1_545 S
C459 C461 1.406 . S
C459 C464 1.261 . S
C460 H427 0.930 . S
C460 N462 1.325 . S
C460 C463 1.357 . S
C461 H429 0.928 . S
C461 C459 1.406 . S
C461 N462 1.261 . S
N462 Co413 2.214 . S
N462 C460 1.325 . S
N462 C461 1.261 . S
C463 H433 0.931 . S
C463 C460 1.357 . S
C463 C464 1.312 . S
C464 H435 0.930 1_545 S
C464 C459 1.261 . S
C464 C463 1.312 . S
C465 O437 1.214 . S
C465 O445 1.234 . S
C466 H438 0.929 . S
C466 C469 1.391 . S
C466 C471 1.391 1_554 S
C467 H439 0.929 . S
C467 C468 1.390 . S
C467 N470 1.391 . S
C468 H440 0.930 . S
C468 C467 1.390 . S
C468 C469 1.392 1_556 S
C469 H441 0.929 . S
C469 C466 1.391 . S
C469 C468 1.392 1_554 S
N470 Co414 2.257 . S
N470 C467 1.391 . S
N470 C471 1.388 . S
C471 H442 0.930 . S
C471 C466 1.391 1_556 S
C471 N470 1.388 . S
C472 C473 1.391 . S
C472 C474 1.394 1_455 S
C472 H488 0.931 1_455 S
C473 C472 1.391 . S
C473 C477 1.376 . S
C474 C472 1.394 1_655 S
C474 C475 1.369 1_655 S
C474 C478 1.531 . S
C475 C474 1.369 1_455 S
C475 C476 1.410 . S
C475 C483 1.503 1_445 S
C476 C475 1.410 . S
C476 C477 1.392 . S
C476 C479 1.511 . S
C477 C473 1.376 . S
C477 C476 1.392 . S
C477 H489 0.929 . S
C478 C474 1.531 . S
C478 H490 0.960 1_545 S
C478 H491 0.962 . S
C478 H492 0.960 . S
C479 C476 1.511 . S
C479 H493 0.961 . S
C479 H494 0.961 . S
C479 H495 0.961 . S
C480 C481 1.370 . S
C480 C482 1.363 . S
C480 H496 0.931 . S
C481 C480 1.370 . S
C481 C485 1.408 . S
C482 C480 1.363 . S
C482 C483 1.370 . S
C482 C486 1.524 1_565 S
C483 C475 1.503 1_665 S
C483 C482 1.370 . S
C483 C484 1.403 1_655 S
C484 C483 1.403 1_455 S
C484 C485 1.404 1_455 S
C484 C487 1.539 . S
C485 C481 1.408 . S
C485 C484 1.404 1_655 S
C485 H497 0.930 1_655 S
C486 C482 1.524 1_545 S
C486 H498 0.956 . S
C486 H499 0.961 . S
C486 H500 0.961 . S
C487 C484 1.539 . S
C487 H501 0.958 . S
C487 H502 0.961 . S
C487 H503 0.960 . S
H488 C472 0.931 1_655 S
H489 C477 0.929 . S
H490 C478 0.960 1_565 S
H491 C478 0.962 . S
H492 C478 0.960 . S
H493 C479 0.961 . S
H494 C479 0.961 . S
H495 C479 0.961 . S
H496 C480 0.931 . S
H497 C485 0.930 1_455 S
H498 C486 0.956 . S
H499 C486 0.961 . S
H500 C486 0.961 . S
H501 C487 0.958 . S
H502 C487 0.961 . S
H503 C487 0.960 . S
C504 C505 1.391 . S
C504 C506 1.394 . S
C504 H520 0.931 . S
C505 C504 1.391 . S
C505 C509 1.376 . S
C506 C504 1.394 . S
C506 C507 1.370 . S
C506 C510 1.531 1_565 S
C507 C506 1.370 . S
C507 C508 1.409 1_456 S
C507 C515 1.503 1_466 S
C508 C507 1.409 1_654 S
C508 C509 1.392 1_654 S
C508 C511 1.511 . S
C509 C505 1.376 . S
C509 C508 1.392 1_456 S
C509 H521 0.929 . S
C510 C506 1.531 1_545 S
C510 H522 0.960 . S
C510 H523 0.962 . S
C510 H524 0.960 . S
C511 C508 1.511 . S
C511 H525 0.961 . S
C511 H526 0.961 . S
C511 H527 0.961 . S
C512 C513 1.370 . S
C512 C514 1.363 1_655 S
C512 H528 0.931 1_655 S
C513 C512 1.370 . S
C513 C517 1.408 . S
C514 C512 1.363 1_455 S
C514 C515 1.370 1_455 S
C514 C518 1.524 . S
C515 C507 1.503 1_644 S
C515 C514 1.370 1_655 S
C515 C516 1.403 . S
C516 C515 1.403 . S
C516 C517 1.404 . S
C516 C519 1.539 1_554 S
C517 C513 1.408 . S
C517 C516 1.404 . S
C517 H529 0.930 . S
C518 C514 1.524 . S
C518 H530 0.956 1_554 S
C518 H531 0.961 1_545 S
C518 H532 0.961 . S
C519 C516 1.539 1_556 S
C519 H533 0.958 . S
C519 H534 0.961 1_556 S
C519 H535 0.960 1_545 S
H520 C504 0.931 . S
H521 C509 0.929 . S
H522 C510 0.960 . S
H523 C510 0.962 . S
H524 C510 0.960 . S
H525 C511 0.961 . S
H526 C511 0.961 . S
H527 C511 0.961 . S
H528 C512 0.931 1_455 S
H529 C517 0.930 . S
H530 C518 0.956 1_556 S
H531 C518 0.961 1_565 S
H532 C518 0.961 . S
H533 C519 0.958 . S
H534 C519 0.961 1_554 S
H535 C519 0.960 1_565 S
C536 C537 1.391 . S
C536 C538 1.394 . S
C536 H552 0.931 . S
C537 C536 1.391 . S
C537 C541 1.376 . S
C538 C536 1.394 . S
C538 C539 1.369 . S
C538 C542 1.531 . S
C539 C538 1.369 . S
C539 C540 1.410 . S
C539 C547 1.503 . S
C540 C539 1.410 . S
C540 C541 1.392 . S
C540 C543 1.511 . S
C541 C537 1.376 . S
C541 C540 1.392 . S
C541 H553 0.929 . S
C542 C538 1.531 . S
C542 H554 0.960 . S
C542 H555 0.962 . S
C542 H556 0.960 . S
C543 C540 1.511 . S
C543 H557 0.961 . S
C543 H558 0.961 . S
C543 H559 0.961 . S
C544 C545 1.370 . S
C544 C546 1.363 . S
C544 H560 0.931 . S
C545 C544 1.370 . S
C545 C549 1.408 . S
C546 C544 1.363 . S
C546 C547 1.370 . S
C546 C550 1.524 . S
C547 C539 1.503 . S
C547 C546 1.370 . S
C547 C548 1.403 . S
C548 C547 1.403 . S
C548 C549 1.404 . S
C548 C551 1.539 . S
C549 C545 1.408 . S
C549 C548 1.404 . S
C549 H561 0.930 . S
C550 C546 1.524 . S
C550 H562 0.956 . S
C550 H563 0.961 . S
C550 H564 0.961 . S
C551 C548 1.539 . S
C551 H565 0.958 . S
C551 H566 0.961 . S
C551 H567 0.960 . S
H552 C536 0.931 . S
H553 C541 0.929 . S
H554 C542 0.960 . S
H555 C542 0.962 . S
H556 C542 0.960 . S
H557 C543 0.961 . S
H558 C543 0.961 . S
H559 C543 0.961 . S
H560 C544 0.931 . S
H561 C549 0.930 . S
H562 C550 0.956 . S
H563 C550 0.961 . S
H564 C550 0.961 . S
H565 C551 0.958 . S
H566 C551 0.961 . S
H567 C551 0.960 . S
C568 C569 1.391 . S
C568 C570 1.394 . S
C568 H584 0.931 . S
C569 C568 1.391 . S
C569 C573 1.376 . S
C570 C568 1.394 . S
C570 C571 1.369 . S
C570 C574 1.531 . S
C571 C570 1.369 . S
C571 C572 1.410 . S
C571 C579 1.503 1_554 S
C572 C571 1.410 . S
C572 C573 1.392 . S
C572 C575 1.511 . S
C573 C569 1.376 . S
C573 C572 1.392 . S
C573 H585 0.929 . S
C574 C570 1.531 . S
C574 H586 0.960 . S
C574 H587 0.962 1_554 S
C574 H588 0.960 . S
C575 C572 1.511 . S
C575 H589 0.961 . S
C575 H590 0.961 . S
C575 H591 0.961 . S
C576 C577 1.370 . S
C576 C578 1.363 . S
C576 H592 0.931 . S
C577 C576 1.370 . S
C577 C581 1.408 . S
C578 C576 1.363 . S
C578 C579 1.370 . S
C578 C582 1.524 . S
C579 C571 1.503 1_556 S
C579 C578 1.370 . S
C579 C580 1.403 1_556 S
C580 C579 1.403 1_554 S
C580 C581 1.404 1_554 S
C580 C583 1.539 . S
C581 C577 1.408 . S
C581 C580 1.404 1_556 S
C581 H593 0.930 . S
C582 C578 1.524 . S
C582 H594 0.956 . S
C582 H595 0.961 . S
C582 H596 0.961 . S
C583 C580 1.539 . S
C583 H597 0.958 . S
C583 H598 0.961 . S
C583 H599 0.960 . S
H584 C568 0.931 . S
H585 C573 0.929 . S
H586 C574 0.960 . S
H587 C574 0.962 1_556 S
H588 C574 0.960 . S
H589 C575 0.961 . S
H590 C575 0.961 . S
H591 C575 0.961 . S
H592 C576 0.931 . S
H593 C581 0.930 . S
H594 C582 0.956 . S
H595 C582 0.961 . S
H596 C582 0.961 . S
H597 C583 0.958 . S
H598 C583 0.961 . S
H599 C583 0.960 . S
C600 C601 1.391 . S
C600 C602 1.394 . S
C600 H616 0.931 . S
C601 C600 1.391 . S
C601 C605 1.376 . S
C602 C600 1.394 . S
C602 C603 1.369 . S
C602 C606 1.531 1_655 S
C603 C602 1.369 . S
C603 C604 1.410 1_554 S
C603 C611 1.503 1_654 S
C604 C603 1.410 1_556 S
C604 C605 1.392 1_556 S
C604 C607 1.511 . S
C605 C601 1.376 . S
C605 C604 1.392 1_554 S
C605 H617 0.929 . S
C606 C602 1.531 1_455 S
C606 H618 0.960 . S
C606 H619 0.962 . S
C606 H620 0.960 . S
C607 C604 1.511 . S
C607 H621 0.961 . S
C607 H622 0.961 . S
C607 H623 0.961 . S
C608 C609 1.370 . S
C608 C610 1.363 1_556 S
C608 H624 0.931 . S
C609 C608 1.370 . S
C609 C613 1.408 . S
C610 C608 1.363 1_554 S
C610 C611 1.370 1_554 S
C610 C614 1.524 1_455 S
C611 C603 1.503 1_456 S
C611 C610 1.370 1_556 S
C611 C612 1.403 . S
C612 C611 1.403 . S
C612 C613 1.404 . S
C612 C615 1.539 . S
C613 C609 1.408 . S
C613 C612 1.404 . S
C613 H625 0.930 . S
C614 C610 1.524 1_655 S
C614 H626 0.956 . S
C614 H627 0.961 . S
C614 H628 0.961 . S
C615 C612 1.539 . S
C615 H629 0.958 . S
C615 H630 0.961 . S
C615 H631 0.960 . S
H616 C600 0.931 . S
H617 C605 0.929 . S
H618 C606 0.960 . S
H619 C606 0.962 . S
H620 C606 0.960 . S
H621 C607 0.961 . S
H622 C607 0.961 . S
H623 C607 0.961 . S
H624 C608 0.931 . S
H625 C613 0.930 . S
H626 C614 0.956 . S
H627 C614 0.961 . S
H628 C614 0.961 . S
H629 C615 0.958 . S
H630 C615 0.961 . S
H631 C615 0.960 . S
C632 C633 1.391 . S
C632 C634 1.394 . S
C632 H648 0.931 . S
C633 C632 1.391 . S
C633 C637 1.376 . S
C634 C632 1.394 . S
C634 C635 1.369 . S
C634 C638 1.531 1_455 S
C635 C634 1.369 . S
C635 C636 1.410 . S
C635 C643 1.503 1_455 S
C636 C635 1.410 . S
C636 C637 1.392 . S
C636 C639 1.511 . S
C637 C633 1.376 . S
C637 C636 1.392 . S
C637 H649 0.929 . S
C638 C634 1.531 1_655 S
C638 H650 0.960 . S
C638 H651 0.962 . S
C638 H652 0.960 . S
C639 C636 1.511 . S
C639 H653 0.961 . S
C639 H654 0.961 . S
C639 H655 0.961 . S
C640 C641 1.370 . S
C640 C642 1.363 . S
C640 H656 0.931 . S
C641 C640 1.370 . S
C641 C645 1.408 . S
C642 C640 1.363 . S
C642 C643 1.370 . S
C642 C646 1.524 1_655 S
C643 C635 1.503 1_655 S
C643 C642 1.370 . S
C643 C644 1.403 . S
C644 C643 1.403 . S
C644 C645 1.404 . S
C644 C647 1.539 . S
C645 C641 1.408 . S
C645 C644 1.404 . S
C645 H657 0.930 . S
C646 C642 1.524 1_455 S
C646 H658 0.956 . S
C646 H659 0.961 . S
C646 H660 0.961 . S
C647 C644 1.539 . S
C647 H661 0.958 . S
C647 H662 0.961 . S
C647 H663 0.960 . S
H648 C632 0.931 . S
H649 C637 0.929 . S
H650 C638 0.960 . S
H651 C638 0.962 . S
H652 C638 0.960 . S
H653 C639 0.961 . S
H654 C639 0.961 . S
H655 C639 0.961 . S
H656 C640 0.931 . S
H657 C645 0.930 . S
H658 C646 0.956 . S
H659 C646 0.961 . S
H660 C646 0.961 . S
H661 C647 0.958 . S
H662 C647 0.961 . S
H663 C647 0.960 . S
C664 C665 1.391 . S
C664 C666 1.394 . S
C664 H680 0.931 . S
C665 C664 1.391 . S
C665 C669 1.376 . S
C666 C664 1.394 . S
C666 C667 1.369 . S
C666 C670 1.531 . S
C667 C666 1.369 . S
C667 C668 1.410 . S
C667 C675 1.503 1_546 S
C668 C667 1.410 . S
C668 C669 1.392 . S
C668 C671 1.511 1_546 S
C669 C665 1.376 . S
C669 C668 1.392 . S
C669 H681 0.929 . S
C670 C666 1.531 . S
C670 H682 0.960 . S
C670 H683 0.962 . S
C670 H684 0.960 . S
C671 C668 1.511 1_564 S
C671 H685 0.961 . S
C671 H686 0.961 . S
C671 H687 0.961 1_554 S
C672 C673 1.370 . S
C672 C674 1.363 . S
C672 H688 0.931 . S
C673 C672 1.370 . S
C673 C677 1.408 . S
C674 C672 1.363 . S
C674 C675 1.370 . S
C674 C678 1.524 1_565 S
C675 C667 1.503 1_564 S
C675 C674 1.370 . S
C675 C676 1.403 1_554 S
C676 C675 1.403 1_556 S
C676 C677 1.404 1_556 S
C676 C679 1.539 . S
C677 C673 1.408 . S
C677 C676 1.404 1_554 S
C677 H689 0.930 1_554 S
C678 C674 1.524 1_545 S
C678 H690 0.956 . S
C678 H691 0.961 . S
C678 H692 0.961 . S
C679 C676 1.539 . S
C679 H693 0.958 . S
C679 H694 0.961 . S
C679 H695 0.960 . S
H680 C664 0.931 . S
H681 C669 0.929 . S
H682 C670 0.960 . S
H683 C670 0.962 . S
H684 C670 0.960 . S
H685 C671 0.961 . S
H686 C671 0.961 . S
H687 C671 0.961 1_556 S
H688 C672 0.931 . S
H689 C677 0.930 1_556 S
H690 C678 0.956 . S
H691 C678 0.961 . S
H692 C678 0.961 . S
H693 C679 0.958 . S
H694 C679 0.961 . S
H695 C679 0.960 . S
C696 C697 1.391 . S
C696 C698 1.394 . S
C696 H712 0.931 . S
C697 C696 1.391 . S
C697 C701 1.376 . S
C698 C696 1.394 . S
C698 C699 1.369 . S
C698 C702 1.531 . S
C699 C698 1.369 . S
C699 C700 1.410 . S
C699 C707 1.503 1_565 S
C700 C699 1.410 . S
C700 C701 1.392 . S
C700 C703 1.511 1_565 S
C701 C697 1.376 . S
C701 C700 1.392 . S
C701 H713 0.929 . S
C702 C698 1.531 . S
C702 H714 0.960 . S
C702 H715 0.962 . S
C702 H716 0.960 . S
C703 C700 1.511 1_545 S
C703 H717 0.961 . S
C703 H718 0.961 . S
C703 H719 0.961 . S
C704 C705 1.370 . S
C704 C706 1.363 . S
C704 H720 0.931 . S
C705 C704 1.370 . S
C705 C709 1.408 . S
C706 C704 1.363 . S
C706 C707 1.370 . S
C706 C710 1.524 . S
C707 C699 1.503 1_545 S
C707 C706 1.370 . S
C707 C708 1.403 . S
C708 C707 1.403 . S
C708 C709 1.404 . S
C708 C711 1.539 . S
C709 C705 1.408 . S
C709 C708 1.404 . S
C709 H721 0.930 . S
C710 C706 1.524 . S
C710 H722 0.956 1_545 S
C710 H723 0.961 . S
C710 H724 0.961 . S
C711 C708 1.539 . S
C711 H725 0.958 1_545 S
C711 H726 0.961 . S
C711 H727 0.960 1_545 S
H712 C696 0.931 . S
H713 C701 0.929 . S
H714 C702 0.960 . S
H715 C702 0.962 . S
H716 C702 0.960 . S
H717 C703 0.961 . S
H718 C703 0.961 . S
H719 C703 0.961 . S
H720 C704 0.931 . S
H721 C709 0.930 . S
H722 C710 0.956 1_565 S
H723 C710 0.961 . S
H724 C710 0.961 . S
H725 C711 0.958 1_565 S
H726 C711 0.961 . S
H727 C711 0.960 1_565 S
C728 C729 1.391 . S
C728 C730 1.394 . S
C728 H744 0.931 . S
C729 C728 1.391 . S
C729 C733 1.376 . S
C730 C728 1.394 . S
C730 C731 1.369 . S
C730 C734 1.531 . S
C731 C730 1.369 . S
C731 C732 1.410 . S
C731 C739 1.503 . S
C732 C731 1.410 . S
C732 C733 1.392 . S
C732 C735 1.511 . S
C733 C729 1.376 . S
C733 C732 1.392 . S
C733 H745 0.929 . S
C734 C730 1.531 . S
C734 H746 0.960 . S
C734 H747 0.962 . S
C734 H748 0.960 . S
C735 C732 1.511 . S
C735 H749 0.961 . S
C735 H750 0.961 . S
C735 H751 0.961 . S
C736 C737 1.370 . S
C736 C738 1.363 . S
C736 H752 0.931 . S
C737 C736 1.370 . S
C737 C741 1.408 . S
C738 C736 1.363 . S
C738 C739 1.370 . S
C738 C742 1.524 . S
C739 C731 1.503 . S
C739 C738 1.370 . S
C739 C740 1.403 . S
C740 C739 1.403 . S
C740 C741 1.404 . S
C740 C743 1.539 . S
C741 C737 1.408 . S
C741 C740 1.404 . S
C741 H753 0.930 . S
C742 C738 1.524 . S
C742 H754 0.956 . S
C742 H755 0.961 . S
C742 H756 0.961 . S
C743 C740 1.539 . S
C743 H757 0.958 . S
C743 H758 0.961 . S
C743 H759 0.960 . S
H744 C728 0.931 . S
H745 C733 0.929 . S
H746 C734 0.960 . S
H747 C734 0.962 . S
H748 C734 0.960 . S
H749 C735 0.961 . S
H750 C735 0.961 . S
H751 C735 0.961 . S
H752 C736 0.931 . S
H753 C741 0.930 . S
H754 C742 0.956 . S
H755 C742 0.961 . S
H756 C742 0.961 . S
H757 C743 0.958 . S
H758 C743 0.961 . S
H759 C743 0.960 . S
C760 C761 1.391 . S
C760 C762 1.394 . S
C760 H776 0.931 . S
C761 C760 1.391 . S
C761 C765 1.376 . S
C762 C760 1.394 . S
C762 C763 1.369 . S
C762 C766 1.531 . S
C763 C762 1.369 . S
C763 C764 1.410 . S
C763 C771 1.503 1_556 S
C764 C763 1.410 . S
C764 C765 1.392 . S
C764 C767 1.511 . S
C765 C761 1.376 . S
C765 C764 1.392 . S
C765 H777 0.929 . S
C766 C762 1.531 . S
C766 H778 0.960 . S
C766 H779 0.962 . S
C766 H780 0.960 . S
C767 C764 1.511 . S
C767 H781 0.961 . S
C767 H782 0.961 1_556 S
C767 H783 0.961 . S
C768 C769 1.370 . S
C768 C770 1.363 . S
C768 H784 0.931 . S
C769 C768 1.370 . S
C769 C773 1.408 . S
C770 C768 1.363 . S
C770 C771 1.370 . S
C770 C774 1.524 . S
C771 C763 1.503 1_554 S
C771 C770 1.370 . S
C771 C772 1.403 . S
C772 C771 1.403 . S
C772 C773 1.404 . S
C772 C775 1.539 . S
C773 C769 1.408 . S
C773 C772 1.404 . S
C773 H785 0.930 . S
C774 C770 1.524 . S
C774 H786 0.956 1_554 S
C774 H787 0.961 1_554 S
C774 H788 0.961 . S
C775 C772 1.539 . S
C775 H789 0.958 . S
C775 H790 0.961 . S
C775 H791 0.960 . S
H776 C760 0.931 . S
H777 C765 0.929 . S
H778 C766 0.960 . S
H779 C766 0.962 . S
H780 C766 0.960 . S
H781 C767 0.961 . S
H782 C767 0.961 1_554 S
H783 C767 0.961 . S
H784 C768 0.931 . S
H785 C773 0.930 . S
H786 C774 0.956 1_556 S
H787 C774 0.961 1_556 S
H788 C774 0.961 . S
H789 C775 0.958 . S
H790 C775 0.961 . S
H791 C775 0.960 . S
C792 C793 1.391 . S
C792 C794 1.394 . S
C792 H808 0.931 . S
C793 C792 1.391 . S
C793 C797 1.376 . S
C794 C792 1.394 . S
C794 C795 1.369 . S
C794 C798 1.531 . S
C795 C794 1.369 . S
C795 C796 1.410 . S
C795 C803 1.503 . S
C796 C795 1.410 . S
C796 C797 1.392 . S
C796 C799 1.511 . S
C797 C793 1.376 . S
C797 C796 1.392 . S
C797 H809 0.929 . S
C798 C794 1.531 . S
C798 H810 0.960 . S
C798 H811 0.962 . S
C798 H812 0.960 . S
C799 C796 1.511 . S
C799 H813 0.961 . S
C799 H814 0.961 . S
C799 H815 0.961 . S
C800 C801 1.370 . S
C800 C802 1.363 . S
C800 H816 0.931 . S
C801 C800 1.370 . S
C801 C805 1.408 . S
C802 C800 1.363 . S
C802 C803 1.370 . S
C802 C806 1.524 . S
C803 C795 1.503 . S
C803 C802 1.370 . S
C803 C804 1.403 . S
C804 C803 1.403 . S
C804 C805 1.404 . S
C804 C807 1.539 . S
C805 C801 1.408 . S
C805 C804 1.404 . S
C805 H817 0.930 . S
C806 C802 1.524 . S
C806 H818 0.956 . S
C806 H819 0.961 . S
C806 H820 0.961 . S
C807 C804 1.539 . S
C807 H821 0.958 . S
C807 H822 0.961 . S
C807 H823 0.960 . S
H808 C792 0.931 . S
H809 C797 0.929 . S
H810 C798 0.960 . S
H811 C798 0.962 . S
H812 C798 0.960 . S
H813 C799 0.961 . S
H814 C799 0.961 . S
H815 C799 0.961 . S
H816 C800 0.931 . S
H817 C805 0.930 . S
H818 C806 0.956 . S
H819 C806 0.961 . S
H820 C806 0.961 . S
H821 C807 0.958 . S
H822 C807 0.961 . S
H823 C807 0.960 . S
C824 C825 1.391 . S
C824 C826 1.394 . S
C824 H840 0.931 . S
C825 C824 1.391 . S
C825 C829 1.376 . S
C826 C824 1.394 . S
C826 C827 1.369 . S
C826 C830 1.531 . S
C827 C826 1.369 . S
C827 C828 1.410 . S
C827 C835 1.503 1_554 S
C828 C827 1.410 . S
C828 C829 1.392 . S
C828 C831 1.511 . S
C829 C825 1.376 . S
C829 C828 1.392 . S
C829 H841 0.929 . S
C830 C826 1.531 . S
C830 H842 0.960 . S
C830 H843 0.962 . S
C830 H844 0.960 . S
C831 C828 1.511 . S
C831 H845 0.961 . S
C831 H846 0.961 1_554 S
C831 H847 0.961 . S
C832 C833 1.370 . S
C832 C834 1.363 . S
C832 H848 0.931 . S
C833 C832 1.370 . S
C833 C837 1.408 . S
C834 C832 1.363 . S
C834 C835 1.370 . S
C834 C838 1.524 . S
C835 C827 1.503 1_556 S
C835 C834 1.370 . S
C835 C836 1.403 . S
C836 C835 1.403 . S
C836 C837 1.404 . S
C836 C839 1.539 . S
C837 C833 1.408 . S
C837 C836 1.404 . S
C837 H849 0.930 . S
C838 C834 1.524 . S
C838 H850 0.956 1_556 S
C838 H851 0.946 1_556 S
C838 H852 0.961 . S
C839 C836 1.539 . S
C839 H853 0.958 . S
C839 H854 0.961 . S
C839 H855 0.960 . S
H840 C824 0.931 . S
H841 C829 0.929 . S
H842 C830 0.960 . S
H843 C830 0.962 . S
H844 C830 0.960 . S
H845 C831 0.961 . S
H846 C831 0.961 1_556 S
H847 C831 0.961 . S
H848 C832 0.931 . S
H849 C837 0.930 . S
H850 C838 0.956 1_554 S
H851 C838 0.946 1_554 S
H852 C838 0.961 . S
H853 C839 0.958 . S
H854 C839 0.961 . S
H855 C839 0.960 . S
C856 C857 1.391 . S
C856 C858 1.394 . S
C856 H872 0.931 . S
C857 C856 1.391 . S
C857 C861 1.376 . S
C858 C856 1.394 . S
C858 C859 1.369 . S
C858 C862 1.531 . S
C859 C858 1.369 . S
C859 C860 1.410 . S
C859 C867 1.503 . S
C860 C859 1.410 . S
C860 C861 1.392 . S
C860 C863 1.511 . S
C861 C857 1.376 . S
C861 C860 1.392 . S
C861 H873 0.929 . S
C862 C858 1.531 . S
C862 H874 0.960 . S
C862 H875 0.962 . S
C862 H876 0.960 . S
C863 C860 1.511 . S
C863 H877 0.961 . S
C863 H878 0.961 . S
C863 H879 0.961 . S
C864 C865 1.370 . S
C864 C866 1.363 . S
C864 H880 0.931 . S
C865 C864 1.370 . S
C865 C869 1.408 . S
C866 C864 1.363 . S
C866 C867 1.370 . S
C866 C870 1.524 . S
C867 C859 1.503 . S
C867 C866 1.370 . S
C867 C868 1.403 . S
C868 C867 1.403 . S
C868 C869 1.404 . S
C868 C871 1.539 . S
C869 C865 1.408 . S
C869 C868 1.404 . S
C869 H881 0.930 . S
C870 C866 1.524 . S
C870 H882 0.956 . S
C870 H883 0.961 . S
C870 H884 0.961 . S
C871 C868 1.539 . S
C871 H885 0.958 . S
C871 H886 0.961 . S
C871 H887 0.960 . S
H872 C856 0.931 . S
H873 C861 0.929 . S
H874 C862 0.960 . S
H875 C862 0.962 . S
H876 C862 0.960 . S
H877 C863 0.961 . S
H878 C863 0.961 . S
H879 C863 0.961 . S
H880 C864 0.931 . S
H881 C869 0.930 . S
H882 C870 0.956 . S
H883 C870 0.961 . S
H884 C870 0.961 . S
H885 C871 0.958 . S
H886 C871 0.961 . S
H887 C871 0.960 . S
C888 C889 1.391 . S
C888 C890 1.394 . S
C888 H904 0.931 . S
C889 C888 1.391 . S
C889 C893 1.376 . S
C890 C888 1.394 . S
C890 C891 1.369 . S
C890 C894 1.531 . S
C891 C890 1.369 . S
C891 C892 1.410 . S
C891 C899 1.503 . S
C892 C891 1.410 . S
C892 C893 1.392 . S
C892 C895 1.511 . S
C893 C889 1.376 . S
C893 C892 1.392 . S
C893 H905 0.929 . S
C894 C890 1.531 . S
C894 H906 0.960 . S
C894 H907 0.962 . S
C894 H908 0.960 . S
C895 C892 1.511 . S
C895 H909 0.961 . S
C895 H910 0.961 . S
C895 H911 0.961 . S
C896 C897 1.370 . S
C896 C898 1.363 . S
C896 H912 0.931 . S
C897 C896 1.370 . S
C897 C901 1.408 . S
C898 C896 1.363 . S
C898 C899 1.370 . S
C898 C902 1.524 . S
C899 C891 1.503 . S
C899 C898 1.370 . S
C899 C900 1.403 . S
C900 C899 1.403 . S
C900 C901 1.404 . S
C900 C903 1.539 . S
C901 C897 1.408 . S
C901 C900 1.404 . S
C901 H913 0.930 . S
C902 C898 1.524 . S
C902 H914 0.956 . S
C902 H915 0.961 . S
C902 H916 0.961 . S
C903 C900 1.539 . S
C903 H917 0.958 . S
C903 H918 0.961 . S
C903 H919 0.960 . S
H904 C888 0.931 . S
H905 C893 0.929 . S
H906 C894 0.960 . S
H907 C894 0.962 . S
H908 C894 0.960 . S
H909 C895 0.961 . S
H910 C895 0.961 . S
H911 C895 0.961 . S
H912 C896 0.931 . S
H913 C901 0.930 . S
H914 C902 0.956 . S
H915 C902 0.961 . S
H916 C902 0.961 . S
H917 C903 0.958 . S
H918 C903 0.961 . S
H919 C903 0.960 . S
C920 C921 1.391 . S
C920 C922 1.394 . S
C920 H936 0.931 . S
C921 C920 1.391 . S
C921 C925 1.376 . S
C922 C920 1.394 . S
C922 C923 1.369 . S
C922 C926 1.531 . S
C923 C922 1.369 . S
C923 C924 1.410 . S
C923 C931 1.503 1_455 S
C924 C923 1.410 . S
C924 C925 1.392 . S
C924 C927 1.511 . S
C925 C921 1.376 . S
C925 C924 1.392 . S
C925 H937 0.929 . S
C926 C922 1.531 . S
C926 H938 0.960 1_455 S
C926 H939 0.962 . S
C926 H940 0.960 . S
C927 C924 1.511 . S
C927 H941 0.961 . S
C927 H942 0.961 . S
C927 H943 0.961 . S
C928 C929 1.370 . S
C928 C930 1.363 . S
C928 H944 0.931 . S
C929 C928 1.370 . S
C929 C933 1.408 . S
C930 C928 1.363 . S
C930 C931 1.370 . S
C930 C934 1.524 . S
C931 C923 1.503 1_655 S
C931 C930 1.370 . S
C931 C932 1.403 . S
C932 C931 1.403 . S
C932 C933 1.404 . S
C932 C935 1.539 . S
C933 C929 1.408 . S
C933 C932 1.404 . S
C933 H945 0.930 . S
C934 C930 1.524 . S
C934 H946 0.947 1_655 S
C934 H947 0.961 1_655 S
C934 H948 0.961 . S
C935 C932 1.539 . S
C935 H949 0.958 . S
C935 H950 0.961 . S
C935 H951 0.960 . S
H936 C920 0.931 . S
H937 C925 0.929 . S
H938 C926 0.960 1_655 S
H939 C926 0.962 . S
H940 C926 0.960 . S
H941 C927 0.961 . S
H942 C927 0.961 . S
H943 C927 0.961 . S
H944 C928 0.931 . S
H945 C933 0.930 . S
H946 C934 0.947 1_455 S
H947 C934 0.961 1_455 S
H948 C934 0.961 . S
H949 C935 0.958 . S
H950 C935 0.961 . S
H951 C935 0.960 . S
C952 C953 1.391 . S
C952 C954 1.394 . S
C952 H968 0.931 . S
C953 C952 1.391 . S
C953 C957 1.376 . S
C954 C952 1.394 . S
C954 C955 1.369 . S
C954 C958 1.531 . S
C955 C954 1.369 . S
C955 C956 1.410 . S
C955 C963 1.503 1_455 S
C956 C955 1.410 . S
C956 C957 1.392 . S
C956 C959 1.511 . S
C957 C953 1.376 . S
C957 C956 1.392 . S
C957 H969 0.929 . S
C958 C954 1.531 . S
C958 H970 0.960 1_455 S
C958 H971 0.962 . S
C958 H972 0.960 . S
C959 C956 1.511 . S
C959 H973 0.961 . S
C959 H974 0.961 . S
C959 H975 0.961 . S
C960 C961 1.370 . S
C960 C962 1.363 . S
C960 H976 0.931 . S
C961 C960 1.370 . S
C961 C965 1.408 . S
C962 C960 1.363 . S
C962 C963 1.370 . S
C962 C966 1.524 . S
C963 C955 1.503 1_655 S
C963 C962 1.370 . S
C963 C964 1.403 . S
C964 C963 1.403 . S
C964 C965 1.404 . S
C964 C967 1.539 . S
C965 C961 1.408 . S
C965 C964 1.404 . S
C965 H977 0.930 . S
C966 C962 1.524 . S
C966 H978 0.956 1_655 S
C966 H979 0.961 1_655 S
C966 H980 0.961 . S
C967 C964 1.539 . S
C967 H981 0.958 . S
C967 H982 0.961 . S
C967 H983 0.960 . S
H968 C952 0.931 . S
H969 C957 0.929 . S
H970 C958 0.960 1_655 S
H971 C958 0.962 . S
H972 C958 0.960 . S
H973 C959 0.961 . S
H974 C959 0.961 . S
H975 C959 0.961 . S
H976 C960 0.931 . S
H977 C965 0.930 . S
H978 C966 0.956 1_455 S
H979 C966 0.961 1_455 S
H980 C966 0.961 . S
H981 C967 0.958 . S
H982 C967 0.961 . S
H983 C967 0.960 . S
C473 C5 2.093 . S
C481 C123 2.106 . S
C505 C182 2.111 . S
C513 C64 2.098 . S
C537 C359 2.087 . S
C545 C241 2.107 . S
C569 C300 2.102 . S
C577 C418 2.102 . S
C601 C62 1.171 . S
C609 C180 1.152 . S
C633 C3 1.171 . S
C641 C121 1.153 . S
C665 C416 1.138 . S
C673 C298 1.166 . S
C697 C239 1.180 . S
C705 C357 1.150 . S
C729 C328 1.587 . S
C737 C210 1.573 . S
C761 C151 1.586 . S
C769 C269 1.573 . S
C793 C92 1.568 . S
C801 C446 1.579 . S
C825 C33 1.560 . S
C833 C387 1.583 . S
C857 C52 1.611 . S
C865 C111 1.618 . S
C889 C170 1.619 . S
C897 C229 1.619 . S
C921 C347 1.633 . S
C929 C288 1.628 . S
C953 C406 1.619 . S
C961 C465 1.619 . S
