# Generated by pormake.
# Topology vme, (6)-cn, num edge types: 1
# Building blocks:
#     Node 0, Type 0, BuildingBlock: MIDCAF_clean_sbu_0, # of connection points: 6
#     Node 1, Type 0, BuildingBlock: MIDCAF_clean_sbu_0, # of connection points: 6
#     Node 2, Type 0, BuildingBlock: MIDCAF_clean_sbu_0, # of connection points: 6
#     Node 3, Type 0, BuildingBlock: MIDCAF_clean_sbu_0, # of connection points: 6
#     Edge 4, Type (0, 0), BuildingBlock: EZIPEK_clean_linker_0, # of connection points: 2
#     Edge 5, Type (0, 0), BuildingBlock: EZIPEK_clean_linker_0, # of connection points: 2
#     Edge 6, Type (0, 0), BuildingBlock: EZIPEK_clean_linker_0, # of connection points: 2
#     Edge 7, Type (0, 0), BuildingBlock: EZIPEK_clean_linker_0, # of connection points: 2
#     Edge 8, Type (0, 0), BuildingBlock: EZIPEK_clean_linker_0, # of connection points: 2
#     Edge 9, Type (0, 0), BuildingBlock: EZIPEK_clean_linker_0, # of connection points: 2
#     Edge 10, Type (0, 0), BuildingBlock: EZIPEK_clean_linker_0, # of connection points: 2
#     Edge 11, Type (0, 0), BuildingBlock: EZIPEK_clean_linker_0, # of connection points: 2
#     Edge 12, Type (0, 0), BuildingBlock: EZIPEK_clean_linker_0, # of connection points: 2
#     Edge 13, Type (0, 0), BuildingBlock: EZIPEK_clean_linker_0, # of connection points: 2
#     Edge 14, Type (0, 0), BuildingBlock: EZIPEK_clean_linker_0, # of connection points: 2
#     Edge 15, Type (0, 0), BuildingBlock: EZIPEK_clean_linker_0, # of connection points: 2
# Relax obj value: 0.250
# Max RMSD: 0.207
# Mean RMSD: 0.207
data_MOF--net-vme--node1-MIDCAF_clean_sbu_0--edge1-EZIPEK_clean_linker_0
_symmetry_space_group_name_H-M    P1
_symmetry_Int_Tables_number       1
_symmetry_cell_setting            triclinic
loop_
_symmetry_equiv_pos_as_xyz
'x, y, z'
_cell_length_a     17.041053
_cell_length_b     18.224192
_cell_length_c     21.25642
_cell_angle_alpha  89.629086
_cell_angle_beta   100.86248
_cell_angle_gamma 92.266153
loop_
_atom_site_label
_atom_site_type_symbol
_atom_site_fract_x
_atom_site_fract_y
_atom_site_fract_z
_atom_type_partial_charge
Zn0 Zn 0.26733 0.46432 0.23015 0.0
Zn1 Zn 0.16296 0.28235 0.32856 0.0
Zn2 Zn 0.20007 0.37912 0.28052 0.0
C3 C 0.27378 0.30638 0.42471 0.0
C4 C 0.07005 0.26758 0.22195 0.0
O5 O 0.09414 0.44219 0.23148 0.0
O6 O 0.17764 0.53298 0.22116 0.0
C7 C 0.34504 0.47637 0.35509 0.0
O8 O 0.25948 0.36572 0.39095 0.0
O9 O 0.24694 0.24585 0.39903 0.0
O10 O 0.12692 0.229 0.24872 0.0
O11 O 0.07619 0.33687 0.23476 0.0
O12 O 0.35821 0.48997 0.2997 0.0
O13 O 0.28133 0.43798 0.36197 0.0
O14 O 0.26884 0.3125 0.22539 0.0
O15 O 0.28836 0.39966 0.15861 0.0
C16 C 0.29355 0.33263 0.17436 0.0
O17 O 0.1932 0.42128 0.37321 0.0
O18 O 0.08316 0.35268 0.35777 0.0
C19 C 0.10599 0.51009 0.21761 0.0
C20 C 0.12062 0.41025 0.38192 0.0
Zn21 Zn 0.91273 0.85932 0.02455 0.0
Zn22 Zn 0.67337 0.97103 0.16891 0.0
Zn23 Zn 0.78015 0.89028 0.09918 0.0
C24 C 0.72928 0.82387 0.22095 0.0
C25 C 0.60974 0.94098 0.0318 0.0
O26 O 0.8804 0.95479 0.07124 0.0
O27 O 0.88373 0.95387 0.06942 0.0
C28 C 0.89765 0.75233 0.13073 0.0
O29 O 0.7765 0.81827 0.18056 0.0
O30 O 0.68377 0.8775 0.21934 0.0
O31 O 0.60433 0.97464 0.08254 0.0
O32 O 0.66833 0.89899 0.02924 0.0
O33 O 0.92696 0.77337 0.08266 0.0
O34 O 0.8405 0.78816 0.14788 0.0
O35 O 0.72431 0.85638 -0.00221 0.0
O36 O 0.82925 0.84024 -0.04998 0.0
C37 C 0.75454 0.83978 0.94811 0.0
O38 O 0.80873 1.00064 0.14354 0.0
O39 O 0.74153 0.06268 0.20143 0.0
C40 C 0.90942 0.01911 0.06393 0.0
C41 C 0.80207 0.05846 0.17555 0.0
Zn42 Zn 0.72513 0.53857 0.65988 0.0
Zn43 Zn 0.91393 0.69421 0.57526 0.0
Zn44 Zn 0.79706 0.63268 0.59959 0.0
C45 C 0.77512 0.69507 0.46899 0.0
C46 C 0.88897 0.78705 0.6601 0.0
O47 O 0.87066 0.53882 0.62144 0.0
O48 O 0.81717 0.47296 0.69083 0.0
C49 C 0.62883 0.55744 0.53889 0.0
O50 O 0.73311 0.66363 0.50627 0.0
O51 O 0.84846 0.7103 0.48889 0.0
O52 O 0.93766 0.78159 0.62303 0.0
O53 O 0.83347 0.7365 0.66092 0.0
O54 O 0.64164 0.51173 0.58428 0.0
O55 O 0.67832 0.61241 0.53657 0.0
O56 O 0.78152 0.68824 0.68989 0.0
O57 O 0.69344 0.60991 0.72 0.0
C58 C 0.73256 0.6705 0.7277 0.0
O59 O 0.89292 0.56976 0.55891 0.0
O60 O 0.00608 0.63543 0.57083 0.0
C61 C 0.87397 0.48545 0.66121 0.0
C62 C 0.96492 0.5796 0.54772 0.0
Zn63 Zn 0.09109 0.21339 0.87884 0.0
Zn64 Zn 0.2549 0.04906 0.71786 0.0
Zn65 Zn 0.20975 0.14635 0.79452 0.0
C66 C 0.26528 0.20185 0.66809 0.0
C67 C 0.36262 0.06087 0.84216 0.0
O68 O 0.12209 0.10635 0.85213 0.0
O69 O 0.11906 0.10772 0.85453 0.0
C70 C 0.10893 0.2892 0.75723 0.0
O71 O 0.23255 0.22217 0.71512 0.0
O72 O 0.27569 0.13403 0.66104 0.0
O73 O 0.34254 0.0233 0.79138 0.0
O74 O 0.32266 0.11649 0.85248 0.0
O75 O 0.0735 0.27929 0.80408 0.0
O76 O 0.16676 0.24913 0.74778 0.0
O77 O 0.27407 0.16724 0.89738 0.0
O78 O 0.18989 0.23385 0.9418 0.0
C79 C 0.25704 0.20479 0.94461 0.0
O80 O 0.12162 0.05722 0.75485 0.0
O81 O 0.16026 0.97665 0.69291 0.0
C82 C 0.10567 0.04446 0.87595 0.0
C83 C 0.10684 0.9997 0.72076 0.0
C84 C 0.9473 0.09737 0.19077 0.0
C85 C 0.86696 0.1179 0.18361 0.0
C86 C 0.91579 0.24815 0.18808 0.0
C87 C 0.9952 0.22507 0.19022 0.0
N88 N 0.07176 0.12863 0.15758 0.0
N89 N 0.77377 0.21561 0.15865 0.0
C90 C 0.00547 0.14989 0.17881 0.0
C91 C 0.85054 0.19429 0.17757 0.0
N92 N 0.96935 0.02858 0.21076 0.0
N93 N 0.90183 0.32044 0.1953 0.0
H94 H 0.72515 0.17846 0.14744 0.0
H95 H 0.75928 0.26983 0.14785 0.0
H96 H 0.94453 0.36213 0.19272 0.0
H97 H 0.84745 0.33861 0.20359 0.0
H98 H 0.02907 1.01412 0.22034 0.0
H99 H 0.92961 0.98942 0.22458 0.0
H100 H 0.08105 0.07405 0.14776 0.0
H101 H 0.11197 0.16705 0.14325 0.0
C102 C 0.96404 0.56615 0.2124 0.0
C103 C 0.04215 0.56626 0.19621 0.0
C104 C 0.02752 0.69595 0.1688 0.0
C105 C 0.94458 0.69261 0.16923 0.0
N106 N 0.83126 0.61733 0.18664 0.0
N107 N 0.12486 0.62822 0.12902 0.0
C108 C 0.91163 0.62555 0.18999 0.0
C109 C 0.067 0.63029 0.16546 0.0
N110 N 0.94019 0.51205 0.24996 0.0
N111 N 0.06805 0.76192 0.16786 0.0
H112 H 0.14717 0.57904 0.11632 0.0
H113 H 0.14118 0.6741 0.10403 0.0
H114 H 0.0412 0.81161 0.17267 0.0
H115 H 0.12966 0.76567 0.16927 0.0
H116 H 0.88673 0.51336 0.26695 0.0
H117 H 0.97673 0.46977 0.26882 0.0
H118 H 0.80323 0.56764 0.19595 0.0
H119 H 0.79291 0.65932 0.1702 0.0
C120 C 0.95905 0.97361 0.68259 0.0
C121 C 0.03236 0.95477 0.72196 0.0
C122 C 0.96638 0.84321 0.75573 0.0
C123 C 0.90384 0.85133 0.70296 0.0
N124 N 0.82766 0.92935 0.62626 0.0
N125 N 0.10355 0.87725 0.80425 0.0
C126 C 0.89466 0.91996 0.67161 0.0
C127 C 0.03485 0.89193 0.76227 0.0
N128 N 0.95229 0.04127 0.65455 0.0
N129 N 0.96156 0.78555 0.79615 0.0
H130 H 0.15409 0.91263 0.81092 0.0
H131 H 0.11158 0.82912 0.8309 0.0
H132 H 0.9114 0.74953 0.78923 0.0
H133 H 0.00271 0.77725 0.83818 0.0
H134 H 0.89915 0.06032 0.62838 0.0
H135 H 0.99935 0.08052 0.66109 0.0
H136 H 0.81884 0.97443 0.59584 0.0
H137 H 0.78119 0.88934 0.61871 0.0
C138 C 0.93444 0.36267 0.65482 0.0
C139 C 0.94421 0.43803 0.67245 0.0
C140 C 0.08268 0.41844 0.72561 0.0
C141 C 0.07119 0.34296 0.71 0.0
N142 N 0.99916 0.24842 0.6428 0.0
N143 N 0.03263 0.54145 0.71225 0.0
C144 C 0.00142 0.3173 0.6681 0.0
C145 C 0.02049 0.46743 0.70285 0.0
N146 N 0.86093 0.33411 0.6266 0.0
N147 N 0.15098 0.44174 0.76617 0.0
H148 H 0.98731 0.57874 0.70085 0.0
H149 H 0.08879 0.56658 0.72788 0.0
H150 H 0.19795 0.4068 0.78141 0.0
H151 H 0.15993 0.49395 0.78645 0.0
H152 H 0.84824 0.27809 0.61946 0.0
H153 H 0.81141 0.3663 0.61245 0.0
H154 H 0.95239 0.22756 0.60801 0.0
H155 H 0.04858 0.21523 0.65234 0.0
C156 C 0.99083 0.45744 0.49953 0.0
C157 C 0.99625 0.53499 0.49995 0.0
C158 C 0.0829 0.53246 0.41932 0.0
C159 C 0.08531 0.45505 0.42634 0.0
N160 N 0.05946 0.34723 0.48733 0.0
N161 N 0.0211 0.64458 0.44105 0.0
C162 C 0.04452 0.41857 0.47055 0.0
C163 C 0.03589 0.57236 0.45489 0.0
N164 N 0.9296 0.42023 0.52008 0.0
N165 N 0.12559 0.5681 0.37914 0.0
H166 H 0.98069 0.67382 0.46111 0.0
H167 H 0.04079 0.67376 0.40441 0.0
H168 H 0.15571 0.54135 0.34841 0.0
H169 H 0.1358 0.62473 0.37868 0.0
H170 H 0.91967 0.36366 0.51397 0.0
H171 H 0.8819 0.4461 0.53306 0.0
H172 H 0.0364 0.32101 0.52405 0.0
H173 H 0.1023 0.31752 0.47042 0.0
C174 C 0.95139 0.08595 -0.02475 0.0
C175 C 0.96902 0.03266 0.02362 0.0
C176 C 0.0738 0.98478 -0.02688 0.0
C177 C 0.0533 0.03627 0.92308 0.0
N178 N 0.95416 0.11548 0.86506 0.0
N179 N 0.05716 0.943 0.07863 0.0
C180 C 0.98743 0.08204 0.92099 0.0
C181 C 0.03313 0.98492 0.0254 0.0
N182 N 0.89935 0.13966 -0.01908 0.0
N183 N 0.13027 0.93448 -0.03065 0.0
H184 H 0.03061 0.94527 0.11889 0.0
H185 H 0.10728 0.91106 0.08584 0.0
H186 H 0.16026 0.93238 0.931 0.0
H187 H 0.14352 0.89121 0.0012 0.0
H188 H 0.88986 0.18397 0.94954 0.0
H189 H 0.87209 0.14391 0.02076 0.0
H190 H 0.90173 0.1443 0.85954 0.0
H191 H 0.97268 0.10623 0.82183 0.0
C192 C 0.35821 0.2755 0.02243 0.0
C193 C 0.30936 0.21101 0.0089 0.0
C194 C 0.29226 0.20601 0.12152 0.0
C195 C 0.32155 0.28004 0.12902 0.0
N196 N 0.41975 0.36668 0.10162 0.0
N197 N 0.24138 0.10687 0.04675 0.0
C198 C 0.36712 0.30871 0.08415 0.0
C199 C 0.28247 0.17254 0.05973 0.0
N200 N 0.39 0.30779 -0.02568 0.0
N201 N 0.27679 0.16729 0.17324 0.0
H202 H 0.2364 0.08111 0.00235 0.0
H203 H 0.2105 0.07963 0.07837 0.0
H204 H 0.29148 0.18803 0.21967 0.0
H205 H 0.25934 0.11185 0.17154 0.0
H206 H 0.41859 0.35953 -0.0223 0.0
H207 H 0.38545 0.2822 0.92986 0.0
H208 H 0.45839 0.38821 0.07307 0.0
H209 H 0.43028 0.38812 0.14803 0.0
C210 C 0.77283 0.82664 0.33773 0.0
C211 C 0.74255 0.7838 0.28244 0.0
C212 C 0.71654 0.68028 0.35115 0.0
C213 C 0.74148 0.72586 0.4057 0.0
N214 N 0.76849 0.84782 0.44902 0.0
N215 N 0.66948 0.67535 0.23581 0.0
C216 C 0.76067 0.8011 0.39797 0.0
C217 C 0.7094 0.71201 0.28874 0.0
N218 N 0.81476 0.89133 0.33276 0.0
N219 N 0.70249 0.60687 0.35891 0.0
H220 H 0.66409 0.69741 0.18982 0.0
H221 H 0.6378 0.62565 0.23814 0.0
H222 H 0.70476 0.58313 0.40397 0.0
H223 H 0.69249 0.56959 0.32101 0.0
H224 H 0.84416 0.92131 0.37244 0.0
H225 H 0.82721 0.91105 0.28933 0.0
H226 H 0.77638 0.90456 0.44507 0.0
H227 H 0.75848 0.83021 0.49382 0.0
C228 C 0.69761 0.72848 0.89236 0.0
C229 C 0.70742 0.8054 0.88939 0.0
C230 C 0.71088 0.79465 0.77457 0.0
C231 C 0.72225 0.71802 0.78255 0.0
N232 N 0.74005 0.61446 0.8556 0.0
N233 N 0.72291 0.91352 0.82714 0.0
C234 C 0.71789 0.68513 0.84297 0.0
C235 C 0.71225 0.83908 0.82979 0.0
N236 N 0.6748 0.69699 0.94479 0.0
N237 N 0.69671 0.82471 0.71472 0.0
H238 H 0.72161 0.94674 0.86669 0.0
H239 H 0.73686 0.9411 0.78733 0.0
H240 H 0.69141 0.79335 0.67319 0.0
H241 H 0.68202 0.8793 0.7062 0.0
H242 H 0.66164 0.64089 0.94795 0.0
H243 H 0.6608 0.72864 -0.01836 0.0
H244 H 0.74419 0.59059 0.90073 0.0
H245 H 0.76406 0.58265 0.82388 0.0
C246 C 0.25793 0.31995 0.59757 0.0
C247 C 0.29377 0.25298 0.61937 0.0
C248 C 0.35337 0.24869 0.52269 0.0
C249 C 0.3051 0.30655 0.49578 0.0
N250 N 0.2525 0.42073 0.52142 0.0
N251 N 0.41202 0.18454 0.61938 0.0
C252 C 0.26957 0.34982 0.53733 0.0
C253 C 0.35362 0.22734 0.58721 0.0
N254 N 0.21552 0.35629 0.63468 0.0
N255 N 0.39729 0.21301 0.48585 0.0
H256 H 0.41677 0.17314 0.66814 0.0
H257 H 0.4605 0.16828 0.60018 0.0
H258 H 0.40246 0.23148 0.44014 0.0
H259 H 0.42613 0.16457 0.49989 0.0
H260 H 0.17719 0.39811 0.61761 0.0
H261 H 0.22308 0.34655 0.68353 0.0
H262 H 0.22976 0.45672 0.55067 0.0
H263 H 0.27216 0.44638 0.48304 0.0
C264 C 0.47859 0.44881 0.4181 0.0
C265 C 0.4115 0.49393 0.4094 0.0
C266 C 0.48837 0.58495 0.48392 0.0
C267 C 0.55734 0.5425 0.48803 0.0
N268 N 0.62223 0.44089 0.45066 0.0
N269 N 0.35307 0.60771 0.42843 0.0
C270 C 0.55344 0.47625 0.45274 0.0
C271 C 0.41647 0.56282 0.44092 0.0
N272 N 0.47033 0.37914 0.39357 0.0
N273 N 0.49083 0.64484 0.52269 0.0
H274 H 0.29867 0.59134 0.39969 0.0
H275 H 0.35547 0.66201 0.44379 0.0
H276 H 0.54296 0.66374 0.55313 0.0
H277 H 0.44053 0.67334 0.52747 0.0
H278 H 0.51442 0.34059 0.40389 0.0
H279 H 0.41646 0.35751 0.36745 0.0
H280 H 0.62498 0.39643 0.42075 0.0
H281 H 0.67837 0.4605 0.47433 0.0
C282 C 0.50866 0.04592 0.88609 0.0
C283 C 0.42763 0.03271 0.89168 0.0
C284 C 0.46871 0.94036 -0.02526 0.0
C285 C 0.54995 0.95964 -0.02555 0.0
N286 N 0.64827 0.03783 0.93595 0.0
N287 N 0.32999 0.9731 0.9453 0.0
C288 C 0.57036 1.0138 0.93125 0.0
C289 C 0.40753 0.98148 0.93722 0.0
N290 N 0.52661 0.08872 0.8373 0.0
N291 N 0.4505 0.88188 0.01067 0.0
H292 H 0.28358 1.00165 0.91807 0.0
H293 H 0.31254 0.94269 -0.0177 0.0
H294 H 0.4946 0.85046 0.03775 0.0
H295 H 0.39267 0.86032 0.00907 0.0
H296 H 0.5835 0.09331 0.82603 0.0
H297 H 0.48334 0.11623 0.80547 0.0
H298 H 0.66584 0.08346 0.91151 0.0
H299 H 0.69542 1.01445 -0.03292 0.0
loop_
_geom_bond_atom_site_label_1
_geom_bond_atom_site_label_2
_geom_bond_distance
_geom_bond_site_symmetry_2
_ccdc_geom_bond_type
Zn0 O6 1.920 . S
Zn0 O12 1.898 . S
Zn0 O15 1.905 . S
Zn1 O9 1.905 . S
Zn1 O10 1.898 . S
Zn1 O18 1.920 . S
Zn2 O5 2.080 . S
Zn2 O8 2.114 . S
Zn2 O11 2.120 . S
Zn2 O13 2.120 . S
Zn2 O14 2.114 . S
Zn2 O17 2.080 . S
C3 O8 1.166 . S
C3 O9 1.182 . S
C4 O10 1.167 . S
C4 O11 1.299 . S
O5 Zn2 2.080 . S
O5 C19 1.305 . S
O6 Zn0 1.920 . S
O6 C19 1.234 . S
C7 O12 1.167 . S
C7 O13 1.299 . S
O8 Zn2 2.114 . S
O8 C3 1.166 . S
O9 Zn1 1.905 . S
O9 C3 1.182 . S
O10 Zn1 1.898 . S
O10 C4 1.167 . S
O11 Zn2 2.120 . S
O11 C4 1.299 . S
O12 Zn0 1.898 . S
O12 C7 1.167 . S
O13 Zn2 2.120 . S
O13 C7 1.299 . S
O14 Zn2 2.114 . S
O14 C16 1.166 . S
O15 Zn0 1.905 . S
O15 C16 1.182 . S
C16 O14 1.166 . S
C16 O15 1.182 . S
O17 Zn2 2.080 . S
O17 C20 1.305 . S
O18 Zn1 1.920 . S
O18 C20 1.234 . S
C19 O5 1.305 . S
C19 O6 1.234 . S
C20 O17 1.305 . S
C20 O18 1.234 . S
Zn21 O27 1.920 . S
Zn21 O33 1.898 . S
Zn21 O36 1.905 1_554 S
Zn22 O30 1.905 . S
Zn22 O31 1.898 . S
Zn22 O39 1.920 1_565 S
Zn23 O26 2.080 . S
Zn23 O29 2.114 . S
Zn23 O32 2.120 . S
Zn23 O34 2.120 . S
Zn23 O35 2.114 . S
Zn23 O38 2.080 . S
C24 O29 1.166 . S
C24 O30 1.182 . S
C25 O31 1.167 . S
C25 O32 1.299 . S
O26 Zn23 2.080 . S
O26 C40 1.305 . S
O27 Zn21 1.920 . S
O27 C40 1.234 . S
C28 O33 1.167 . S
C28 O34 1.299 . S
O29 Zn23 2.114 . S
O29 C24 1.166 . S
O30 Zn22 1.905 . S
O30 C24 1.182 . S
O31 Zn22 1.898 . S
O31 C25 1.167 . S
O32 Zn23 2.120 . S
O32 C25 1.299 . S
O33 Zn21 1.898 . S
O33 C28 1.167 . S
O34 Zn23 2.120 . S
O34 C28 1.299 . S
O35 Zn23 2.114 . S
O35 C37 1.166 1_554 S
O36 Zn21 1.905 1_556 S
O36 C37 1.182 . S
C37 O35 1.166 1_556 S
C37 O36 1.182 . S
O38 Zn23 2.080 . S
O38 C41 1.305 1_565 S
O39 Zn22 1.920 1_545 S
O39 C41 1.234 . S
C40 O26 1.305 . S
C40 O27 1.234 . S
C41 O38 1.305 1_545 S
C41 O39 1.234 . S
Zn42 O48 1.920 . S
Zn42 O54 1.898 . S
Zn42 O57 1.905 . S
Zn43 O51 1.905 . S
Zn43 O52 1.898 . S
Zn43 O60 1.920 . S
Zn44 O47 2.080 . S
Zn44 O50 2.114 . S
Zn44 O53 2.120 . S
Zn44 O55 2.120 . S
Zn44 O56 2.114 . S
Zn44 O59 2.080 . S
C45 O50 1.166 . S
C45 O51 1.182 . S
C46 O52 1.167 . S
C46 O53 1.299 . S
O47 Zn44 2.080 . S
O47 C61 1.305 . S
O48 Zn42 1.920 . S
O48 C61 1.234 . S
C49 O54 1.167 . S
C49 O55 1.299 . S
O50 Zn44 2.114 . S
O50 C45 1.166 . S
O51 Zn43 1.905 . S
O51 C45 1.182 . S
O52 Zn43 1.898 . S
O52 C46 1.167 . S
O53 Zn44 2.120 . S
O53 C46 1.299 . S
O54 Zn42 1.898 . S
O54 C49 1.167 . S
O55 Zn44 2.120 . S
O55 C49 1.299 . S
O56 Zn44 2.114 . S
O56 C58 1.166 . S
O57 Zn42 1.905 . S
O57 C58 1.182 . S
C58 O56 1.166 . S
C58 O57 1.182 . S
O59 Zn44 2.080 . S
O59 C62 1.305 . S
O60 Zn43 1.920 . S
O60 C62 1.234 . S
C61 O47 1.305 . S
C61 O48 1.234 . S
C62 O59 1.305 . S
C62 O60 1.234 . S
Zn63 O69 1.920 . S
Zn63 O75 1.898 . S
Zn63 O78 1.905 1_556 S
Zn64 O72 1.905 . S
Zn64 O73 1.898 . S
Zn64 O81 1.920 1_545 S
Zn65 O68 2.080 . S
Zn65 O71 2.114 . S
Zn65 O74 2.120 . S
Zn65 O76 2.120 . S
Zn65 O77 2.114 . S
Zn65 O80 2.080 . S
C66 O71 1.166 . S
C66 O72 1.182 . S
C67 O73 1.167 . S
C67 O74 1.299 . S
O68 Zn65 2.080 . S
O68 C82 1.305 . S
O69 Zn63 1.920 . S
O69 C82 1.234 . S
C70 O75 1.167 . S
C70 O76 1.299 . S
O71 Zn65 2.114 . S
O71 C66 1.166 . S
O72 Zn64 1.905 . S
O72 C66 1.182 . S
O73 Zn64 1.898 . S
O73 C67 1.167 . S
O74 Zn65 2.120 . S
O74 C67 1.299 . S
O75 Zn63 1.898 . S
O75 C70 1.167 . S
O76 Zn65 2.120 . S
O76 C70 1.299 . S
O77 Zn65 2.114 . S
O77 C79 1.166 1_556 S
O78 Zn63 1.905 1_554 S
O78 C79 1.182 . S
C79 O77 1.166 1_554 S
C79 O78 1.182 . S
O80 Zn65 2.080 . S
O80 C83 1.305 1_545 S
O81 Zn64 1.920 1_565 S
O81 C83 1.234 . S
C82 O68 1.305 . S
C82 O69 1.234 . S
C83 O80 1.305 1_565 S
C83 O81 1.234 . S
C84 C85 1.363 . S
C84 C90 1.379 1_655 S
C84 N92 1.356 . S
C85 C84 1.363 . S
C85 C91 1.363 . S
C86 C87 1.363 1_655 S
C86 C91 1.379 . S
C86 N93 1.356 . S
C87 C86 1.363 1_455 S
C87 C90 1.363 . S
N88 C90 1.356 . S
N88 H100 0.984 . S
N88 H101 0.985 . S
N89 C91 1.356 . S
N89 H94 0.984 . S
N89 H95 0.985 . S
C90 C84 1.379 1_455 S
C90 C87 1.363 . S
C90 N88 1.356 . S
C91 C85 1.363 . S
C91 C86 1.379 . S
C91 N89 1.356 . S
N92 C84 1.356 . S
N92 H98 0.984 . S
N92 H99 0.984 . S
N93 C86 1.356 . S
N93 H96 0.984 1_655 S
N93 H97 0.985 . S
H94 N89 0.984 . S
H95 N89 0.985 . S
H96 N93 0.984 1_455 S
H97 N93 0.985 . S
H98 N92 0.984 . S
H99 N92 0.984 . S
H100 N88 0.984 . S
H101 N88 0.985 . S
C102 C103 1.363 . S
C102 C108 1.379 1_455 S
C102 N110 1.356 . S
C103 C102 1.363 . S
C103 C109 1.363 . S
C104 C105 1.363 1_455 S
C104 C109 1.379 . S
C104 N111 1.356 . S
C105 C104 1.363 1_655 S
C105 C108 1.363 . S
N106 C108 1.356 . S
N106 H118 0.984 . S
N106 H119 0.985 . S
N107 C109 1.356 . S
N107 H112 0.984 . S
N107 H113 0.985 . S
C108 C102 1.379 1_655 S
C108 C105 1.363 . S
C108 N106 1.356 . S
C109 C103 1.363 . S
C109 C104 1.379 . S
C109 N107 1.356 . S
N110 C102 1.356 . S
N110 H116 0.984 1_455 S
N110 H117 0.984 . S
N111 C104 1.356 . S
N111 H114 0.984 . S
N111 H115 0.985 . S
H112 N107 0.984 . S
H113 N107 0.985 . S
H114 N111 0.984 . S
H115 N111 0.985 . S
H116 N110 0.984 1_655 S
H117 N110 0.984 . S
H118 N106 0.984 . S
H119 N106 0.985 . S
C120 C121 1.363 . S
C120 C126 1.379 1_455 S
C120 N128 1.356 . S
C121 C120 1.363 . S
C121 C127 1.363 . S
C122 C123 1.363 1_455 S
C122 C127 1.379 . S
C122 N129 1.356 . S
C123 C122 1.363 1_655 S
C123 C126 1.363 . S
N124 C126 1.356 . S
N124 H136 0.984 . S
N124 H137 0.985 . S
N125 C127 1.356 . S
N125 H130 0.984 . S
N125 H131 0.985 . S
C126 C120 1.379 1_655 S
C126 C123 1.363 . S
C126 N124 1.356 . S
C127 C121 1.363 . S
C127 C122 1.379 . S
C127 N125 1.356 . S
N128 C120 1.356 . S
N128 H134 0.984 . S
N128 H135 0.984 1_565 S
N129 C122 1.356 . S
N129 H132 0.984 1_455 S
N129 H133 0.985 . S
H130 N125 0.984 . S
H131 N125 0.985 . S
H132 N129 0.984 1_655 S
H133 N129 0.985 . S
H134 N128 0.984 . S
H135 N128 0.984 1_545 S
H136 N124 0.984 . S
H137 N124 0.985 . S
C138 C139 1.363 . S
C138 C144 1.379 . S
C138 N146 1.356 . S
C139 C138 1.363 . S
C139 C145 1.363 . S
C140 C141 1.363 . S
C140 C145 1.379 1_455 S
C140 N147 1.356 . S
C141 C140 1.363 . S
C141 C144 1.363 1_455 S
N142 C144 1.356 . S
N142 H154 0.984 . S
N142 H155 0.985 1_655 S
N143 C145 1.356 . S
N143 H148 0.984 . S
N143 H149 0.985 . S
C144 C138 1.379 . S
C144 C141 1.363 1_655 S
C144 N142 1.356 . S
C145 C139 1.363 . S
C145 C140 1.379 1_655 S
C145 N143 1.356 . S
N146 C138 1.356 . S
N146 H152 0.984 . S
N146 H153 0.984 . S
N147 C140 1.356 . S
N147 H150 0.984 . S
N147 H151 0.985 . S
H148 N143 0.984 . S
H149 N143 0.985 . S
H150 N147 0.984 . S
H151 N147 0.985 . S
H152 N146 0.984 . S
H153 N146 0.984 . S
H154 N142 0.984 . S
H155 N142 0.985 1_455 S
C156 C157 1.363 . S
C156 C162 1.379 1_655 S
C156 N164 1.356 . S
C157 C156 1.363 . S
C157 C163 1.363 . S
C158 C159 1.363 . S
C158 C163 1.379 1_455 S
C158 N165 1.356 . S
C159 C158 1.363 . S
C159 C162 1.363 . S
N160 C162 1.356 . S
N160 H172 0.984 . S
N160 H173 0.985 . S
N161 C163 1.356 . S
N161 H166 0.984 . S
N161 H167 0.985 . S
C162 C156 1.379 1_455 S
C162 C159 1.363 . S
C162 N160 1.356 . S
C163 C157 1.363 . S
C163 C158 1.379 1_655 S
C163 N161 1.356 . S
N164 C156 1.356 . S
N164 H170 0.984 . S
N164 H171 0.984 . S
N165 C158 1.356 . S
N165 H168 0.984 . S
N165 H169 0.985 . S
H166 N161 0.984 . S
H167 N161 0.985 . S
H168 N165 0.984 . S
H169 N165 0.985 . S
H170 N164 0.984 . S
H171 N164 0.984 . S
H172 N160 0.984 . S
H173 N160 0.985 . S
C174 C175 1.363 1_545 S
C174 C180 1.379 1_654 S
C174 N182 1.356 . S
C175 C174 1.363 1_565 S
C175 C181 1.363 . S
C176 C177 1.363 1_565 S
C176 C181 1.379 1_456 S
C176 N183 1.356 . S
C177 C176 1.363 1_545 S
C177 C180 1.363 . S
N178 C180 1.356 . S
N178 H190 0.984 . S
N178 H191 0.985 . S
N179 C181 1.356 . S
N179 H184 0.984 . S
N179 H185 0.985 . S
C180 C174 1.379 1_456 S
C180 C177 1.363 . S
C180 N178 1.356 . S
C181 C175 1.363 . S
C181 C176 1.379 1_654 S
C181 N179 1.356 . S
N182 C174 1.356 . S
N182 H188 0.984 . S
N182 H189 0.984 . S
N183 C176 1.356 . S
N183 H186 0.984 . S
N183 H187 0.985 . S
H184 N179 0.984 . S
H185 N179 0.985 . S
H186 N183 0.984 . S
H187 N183 0.985 . S
H188 N182 0.984 . S
H189 N182 0.984 . S
H190 N178 0.984 . S
H191 N178 0.985 . S
C192 C193 1.363 . S
C192 C198 1.379 . S
C192 N200 1.356 . S
C193 C192 1.363 . S
C193 C199 1.363 . S
C194 C195 1.363 . S
C194 C199 1.379 . S
C194 N201 1.356 . S
C195 C194 1.363 . S
C195 C198 1.363 . S
N196 C198 1.356 . S
N196 H208 0.984 . S
N196 H209 0.985 . S
N197 C199 1.356 . S
N197 H202 0.984 . S
N197 H203 0.985 . S
C198 C192 1.379 . S
C198 C195 1.363 . S
C198 N196 1.356 . S
C199 C193 1.363 . S
C199 C194 1.379 . S
C199 N197 1.356 . S
N200 C192 1.356 . S
N200 H206 0.984 . S
N200 H207 0.984 . S
N201 C194 1.356 . S
N201 H204 0.984 . S
N201 H205 0.985 . S
H202 N197 0.984 . S
H203 N197 0.985 . S
H204 N201 0.984 . S
H205 N201 0.985 . S
H206 N200 0.984 . S
H207 N200 0.984 . S
H208 N196 0.984 . S
H209 N196 0.985 . S
C210 C211 1.363 . S
C210 C216 1.379 . S
C210 N218 1.356 . S
C211 C210 1.363 . S
C211 C217 1.363 . S
C212 C213 1.363 . S
C212 C217 1.379 . S
C212 N219 1.356 . S
C213 C212 1.363 . S
C213 C216 1.363 . S
N214 C216 1.356 . S
N214 H226 0.984 . S
N214 H227 0.985 . S
N215 C217 1.356 . S
N215 H220 0.984 . S
N215 H221 0.985 . S
C216 C210 1.379 . S
C216 C213 1.363 . S
C216 N214 1.356 . S
C217 C211 1.363 . S
C217 C212 1.379 . S
C217 N215 1.356 . S
N218 C210 1.356 . S
N218 H224 0.984 . S
N218 H225 0.984 . S
N219 C212 1.356 . S
N219 H222 0.984 . S
N219 H223 0.985 . S
H220 N215 0.984 . S
H221 N215 0.985 . S
H222 N219 0.984 . S
H223 N219 0.985 . S
H224 N218 0.984 . S
H225 N218 0.984 . S
H226 N214 0.984 . S
H227 N214 0.985 . S
C228 C229 1.363 . S
C228 C234 1.379 . S
C228 N236 1.355 . S
C229 C228 1.363 . S
C229 C235 1.363 . S
C230 C231 1.363 . S
C230 C235 1.379 . S
C230 N237 1.356 . S
C231 C230 1.363 . S
C231 C234 1.363 . S
N232 C234 1.356 . S
N232 H244 0.984 . S
N232 H245 0.985 . S
N233 C235 1.356 . S
N233 H238 0.984 . S
N233 H239 0.985 . S
C234 C228 1.379 . S
C234 C231 1.363 . S
C234 N232 1.356 . S
C235 C229 1.363 . S
C235 C230 1.379 . S
C235 N233 1.356 . S
N236 C228 1.355 . S
N236 H242 0.985 1_556 S
N236 H243 0.986 1_556 S
N237 C230 1.356 . S
N237 H240 0.984 . S
N237 H241 0.985 . S
H238 N233 0.984 . S
H239 N233 0.985 . S
H240 N237 0.984 . S
H241 N237 0.985 . S
H242 N236 0.985 1_554 S
H243 N236 0.986 1_554 S
H244 N232 0.984 . S
H245 N232 0.985 . S
C246 C247 1.363 . S
C246 C252 1.379 . S
C246 N254 1.356 . S
C247 C246 1.363 . S
C247 C253 1.363 . S
C248 C249 1.363 . S
C248 C253 1.379 . S
C248 N255 1.356 . S
C249 C248 1.363 . S
C249 C252 1.363 . S
N250 C252 1.356 . S
N250 H262 0.984 . S
N250 H263 0.985 . S
N251 C253 1.356 . S
N251 H256 0.984 . S
N251 H257 0.985 . S
C252 C246 1.379 . S
C252 C249 1.363 . S
C252 N250 1.356 . S
C253 C247 1.363 . S
C253 C248 1.379 . S
C253 N251 1.356 . S
N254 C246 1.356 . S
N254 H260 0.984 . S
N254 H261 0.984 . S
N255 C248 1.356 . S
N255 H258 0.984 . S
N255 H259 0.985 . S
H256 N251 0.984 . S
H257 N251 0.985 . S
H258 N255 0.984 . S
H259 N255 0.985 . S
H260 N254 0.984 . S
H261 N254 0.984 . S
H262 N250 0.984 . S
H263 N250 0.985 . S
C264 C265 1.363 . S
C264 C270 1.379 . S
C264 N272 1.356 . S
C265 C264 1.363 . S
C265 C271 1.363 . S
C266 C267 1.363 . S
C266 C271 1.379 . S
C266 N273 1.356 . S
C267 C266 1.363 . S
C267 C270 1.363 . S
N268 C270 1.356 . S
N268 H280 0.984 . S
N268 H281 0.985 . S
N269 C271 1.356 . S
N269 H274 0.984 . S
N269 H275 0.985 . S
C270 C264 1.379 . S
C270 C267 1.363 . S
C270 N268 1.356 . S
C271 C265 1.363 . S
C271 C266 1.379 . S
C271 N269 1.356 . S
N272 C264 1.356 . S
N272 H278 0.984 . S
N272 H279 0.984 . S
N273 C266 1.356 . S
N273 H276 0.984 . S
N273 H277 0.985 . S
H274 N269 0.984 . S
H275 N269 0.985 . S
H276 N273 0.984 . S
H277 N273 0.985 . S
H278 N272 0.984 . S
H279 N272 0.984 . S
H280 N268 0.984 . S
H281 N268 0.985 . S
C282 C283 1.363 1_565 S
C282 C288 1.379 . S
C282 N290 1.356 . S
C283 C282 1.363 1_545 S
C283 C289 1.363 1_556 S
C284 C285 1.363 1_545 S
C284 C289 1.379 . S
C284 N291 1.356 . S
C285 C284 1.363 1_565 S
C285 C288 1.363 1_554 S
N286 C288 1.356 . S
N286 H298 0.984 . S
N286 H299 0.985 . S
N287 C289 1.356 . S
N287 H292 0.984 . S
N287 H293 0.985 . S
C288 C282 1.379 . S
C288 C285 1.363 1_556 S
C288 N286 1.356 . S
C289 C283 1.363 1_554 S
C289 C284 1.379 . S
C289 N287 1.356 . S
N290 C282 1.356 . S
N290 H296 0.984 . S
N290 H297 0.984 . S
N291 C284 1.356 . S
N291 H294 0.984 . S
N291 H295 0.985 . S
H292 N287 0.984 . S
H293 N287 0.985 . S
H294 N291 0.984 . S
H295 N291 0.985 . S
H296 N290 0.984 . S
H297 N290 0.984 . S
H298 N286 0.984 . S
H299 N286 0.985 . S
C85 C41 1.675 . S
C87 C4 1.544 . S
C103 C19 1.675 . S
C105 C28 1.543 . S
C121 C83 1.675 . S
C123 C46 1.544 . S
C139 C61 1.675 . S
C141 C70 1.543 . S
C157 C62 0.779 . S
C159 C20 0.779 . S
C175 C40 0.779 . S
C177 C82 0.779 . S
C193 C79 1.244 . S
C195 C16 1.467 . S
C211 C24 1.467 . S
C213 C45 1.244 . S
C229 C37 1.244 . S
C231 C58 1.467 . S
C247 C66 1.467 . S
C249 C3 1.244 . S
C265 C7 1.289 . S
C267 C49 1.289 . S
C283 C67 1.289 . S
C285 C25 1.289 . S
