# Generated by pormake.
# Topology umr, (4)-cn, num edge types: 1
# Building blocks:
#     Node 0, Type 0, BuildingBlock: TATPOV_clean_sbu_0, # of connection points: 4
#     Node 1, Type 0, BuildingBlock: TATPOV_clean_sbu_0, # of connection points: 4
#     Node 2, Type 0, BuildingBlock: TATPOV_clean_sbu_0, # of connection points: 4
#     Node 3, Type 0, BuildingBlock: TATPOV_clean_sbu_0, # of connection points: 4
#     Node 4, Type 0, BuildingBlock: TATPOV_clean_sbu_0, # of connection points: 4
#     Node 5, Type 0, BuildingBlock: TATPOV_clean_sbu_0, # of connection points: 4
#     Node 6, Type 0, BuildingBlock: TATPOV_clean_sbu_0, # of connection points: 4
#     Node 7, Type 0, BuildingBlock: TATPOV_clean_sbu_0, # of connection points: 4
#     Node 8, Type 0, BuildingBlock: TATPOV_clean_sbu_0, # of connection points: 4
#     Node 9, Type 0, BuildingBlock: TATPOV_clean_sbu_0, # of connection points: 4
#     Node 10, Type 0, BuildingBlock: TATPOV_clean_sbu_0, # of connection points: 4
#     Node 11, Type 0, BuildingBlock: TATPOV_clean_sbu_0, # of connection points: 4
#     Node 12, Type 0, BuildingBlock: TATPOV_clean_sbu_0, # of connection points: 4
#     Node 13, Type 0, BuildingBlock: TATPOV_clean_sbu_0, # of connection points: 4
#     Node 14, Type 0, BuildingBlock: TATPOV_clean_sbu_0, # of connection points: 4
#     Node 15, Type 0, BuildingBlock: TATPOV_clean_sbu_0, # of connection points: 4
#     Node 16, Type 0, BuildingBlock: TATPOV_clean_sbu_0, # of connection points: 4
#     Node 17, Type 0, BuildingBlock: TATPOV_clean_sbu_0, # of connection points: 4
#     Node 18, Type 0, BuildingBlock: TATPOV_clean_sbu_0, # of connection points: 4
#     Node 19, Type 0, BuildingBlock: TATPOV_clean_sbu_0, # of connection points: 4
#     Node 20, Type 0, BuildingBlock: TATPOV_clean_sbu_0, # of connection points: 4
#     Node 21, Type 0, BuildingBlock: TATPOV_clean_sbu_0, # of connection points: 4
#     Node 22, Type 0, BuildingBlock: TATPOV_clean_sbu_0, # of connection points: 4
#     Node 23, Type 0, BuildingBlock: TATPOV_clean_sbu_0, # of connection points: 4
#     Node 24, Type 0, BuildingBlock: TATPOV_clean_sbu_0, # of connection points: 4
#     Node 25, Type 0, BuildingBlock: TATPOV_clean_sbu_0, # of connection points: 4
#     Node 26, Type 0, BuildingBlock: TATPOV_clean_sbu_0, # of connection points: 4
#     Node 27, Type 0, BuildingBlock: TATPOV_clean_sbu_0, # of connection points: 4
#     Node 28, Type 0, BuildingBlock: TATPOV_clean_sbu_0, # of connection points: 4
#     Node 29, Type 0, BuildingBlock: TATPOV_clean_sbu_0, # of connection points: 4
#     Node 30, Type 0, BuildingBlock: TATPOV_clean_sbu_0, # of connection points: 4
#     Node 31, Type 0, BuildingBlock: TATPOV_clean_sbu_0, # of connection points: 4
#     Edge 32, Type (0, 0), BuildingBlock: KIFKEQ_clean_linker_1, # of connection points: 2
#     Edge 33, Type (0, 0), BuildingBlock: KIFKEQ_clean_linker_1, # of connection points: 2
#     Edge 34, Type (0, 0), BuildingBlock: KIFKEQ_clean_linker_1, # of connection points: 2
#     Edge 35, Type (0, 0), BuildingBlock: KIFKEQ_clean_linker_1, # of connection points: 2
#     Edge 36, Type (0, 0), BuildingBlock: KIFKEQ_clean_linker_1, # of connection points: 2
#     Edge 37, Type (0, 0), BuildingBlock: KIFKEQ_clean_linker_1, # of connection points: 2
#     Edge 38, Type (0, 0), BuildingBlock: KIFKEQ_clean_linker_1, # of connection points: 2
#     Edge 39, Type (0, 0), BuildingBlock: KIFKEQ_clean_linker_1, # of connection points: 2
#     Edge 40, Type (0, 0), BuildingBlock: KIFKEQ_clean_linker_1, # of connection points: 2
#     Edge 41, Type (0, 0), BuildingBlock: KIFKEQ_clean_linker_1, # of connection points: 2
#     Edge 42, Type (0, 0), BuildingBlock: KIFKEQ_clean_linker_1, # of connection points: 2
#     Edge 43, Type (0, 0), BuildingBlock: KIFKEQ_clean_linker_1, # of connection points: 2
#     Edge 44, Type (0, 0), BuildingBlock: KIFKEQ_clean_linker_1, # of connection points: 2
#     Edge 45, Type (0, 0), BuildingBlock: KIFKEQ_clean_linker_1, # of connection points: 2
#     Edge 46, Type (0, 0), BuildingBlock: KIFKEQ_clean_linker_1, # of connection points: 2
#     Edge 47, Type (0, 0), BuildingBlock: KIFKEQ_clean_linker_1, # of connection points: 2
#     Edge 48, Type (0, 0), BuildingBlock: KIFKEQ_clean_linker_1, # of connection points: 2
#     Edge 49, Type (0, 0), BuildingBlock: KIFKEQ_clean_linker_1, # of connection points: 2
#     Edge 50, Type (0, 0), BuildingBlock: KIFKEQ_clean_linker_1, # of connection points: 2
#     Edge 51, Type (0, 0), BuildingBlock: KIFKEQ_clean_linker_1, # of connection points: 2
#     Edge 52, Type (0, 0), BuildingBlock: KIFKEQ_clean_linker_1, # of connection points: 2
#     Edge 53, Type (0, 0), BuildingBlock: KIFKEQ_clean_linker_1, # of connection points: 2
#     Edge 54, Type (0, 0), BuildingBlock: KIFKEQ_clean_linker_1, # of connection points: 2
#     Edge 55, Type (0, 0), BuildingBlock: KIFKEQ_clean_linker_1, # of connection points: 2
#     Edge 56, Type (0, 0), BuildingBlock: KIFKEQ_clean_linker_1, # of connection points: 2
#     Edge 57, Type (0, 0), BuildingBlock: KIFKEQ_clean_linker_1, # of connection points: 2
#     Edge 58, Type (0, 0), BuildingBlock: KIFKEQ_clean_linker_1, # of connection points: 2
#     Edge 59, Type (0, 0), BuildingBlock: KIFKEQ_clean_linker_1, # of connection points: 2
#     Edge 60, Type (0, 0), BuildingBlock: KIFKEQ_clean_linker_1, # of connection points: 2
#     Edge 61, Type (0, 0), BuildingBlock: KIFKEQ_clean_linker_1, # of connection points: 2
#     Edge 62, Type (0, 0), BuildingBlock: KIFKEQ_clean_linker_1, # of connection points: 2
#     Edge 63, Type (0, 0), BuildingBlock: KIFKEQ_clean_linker_1, # of connection points: 2
#     Edge 64, Type (0, 0), BuildingBlock: KIFKEQ_clean_linker_1, # of connection points: 2
#     Edge 65, Type (0, 0), BuildingBlock: KIFKEQ_clean_linker_1, # of connection points: 2
#     Edge 66, Type (0, 0), BuildingBlock: KIFKEQ_clean_linker_1, # of connection points: 2
#     Edge 67, Type (0, 0), BuildingBlock: KIFKEQ_clean_linker_1, # of connection points: 2
#     Edge 68, Type (0, 0), BuildingBlock: KIFKEQ_clean_linker_1, # of connection points: 2
#     Edge 69, Type (0, 0), BuildingBlock: KIFKEQ_clean_linker_1, # of connection points: 2
#     Edge 70, Type (0, 0), BuildingBlock: KIFKEQ_clean_linker_1, # of connection points: 2
#     Edge 71, Type (0, 0), BuildingBlock: KIFKEQ_clean_linker_1, # of connection points: 2
#     Edge 72, Type (0, 0), BuildingBlock: KIFKEQ_clean_linker_1, # of connection points: 2
#     Edge 73, Type (0, 0), BuildingBlock: KIFKEQ_clean_linker_1, # of connection points: 2
#     Edge 74, Type (0, 0), BuildingBlock: KIFKEQ_clean_linker_1, # of connection points: 2
#     Edge 75, Type (0, 0), BuildingBlock: KIFKEQ_clean_linker_1, # of connection points: 2
#     Edge 76, Type (0, 0), BuildingBlock: KIFKEQ_clean_linker_1, # of connection points: 2
#     Edge 77, Type (0, 0), BuildingBlock: KIFKEQ_clean_linker_1, # of connection points: 2
#     Edge 78, Type (0, 0), BuildingBlock: KIFKEQ_clean_linker_1, # of connection points: 2
#     Edge 79, Type (0, 0), BuildingBlock: KIFKEQ_clean_linker_1, # of connection points: 2
#     Edge 80, Type (0, 0), BuildingBlock: KIFKEQ_clean_linker_1, # of connection points: 2
#     Edge 81, Type (0, 0), BuildingBlock: KIFKEQ_clean_linker_1, # of connection points: 2
#     Edge 82, Type (0, 0), BuildingBlock: KIFKEQ_clean_linker_1, # of connection points: 2
#     Edge 83, Type (0, 0), BuildingBlock: KIFKEQ_clean_linker_1, # of connection points: 2
#     Edge 84, Type (0, 0), BuildingBlock: KIFKEQ_clean_linker_1, # of connection points: 2
#     Edge 85, Type (0, 0), BuildingBlock: KIFKEQ_clean_linker_1, # of connection points: 2
#     Edge 86, Type (0, 0), BuildingBlock: KIFKEQ_clean_linker_1, # of connection points: 2
#     Edge 87, Type (0, 0), BuildingBlock: KIFKEQ_clean_linker_1, # of connection points: 2
#     Edge 88, Type (0, 0), BuildingBlock: KIFKEQ_clean_linker_1, # of connection points: 2
#     Edge 89, Type (0, 0), BuildingBlock: KIFKEQ_clean_linker_1, # of connection points: 2
#     Edge 90, Type (0, 0), BuildingBlock: KIFKEQ_clean_linker_1, # of connection points: 2
#     Edge 91, Type (0, 0), BuildingBlock: KIFKEQ_clean_linker_1, # of connection points: 2
#     Edge 92, Type (0, 0), BuildingBlock: KIFKEQ_clean_linker_1, # of connection points: 2
#     Edge 93, Type (0, 0), BuildingBlock: KIFKEQ_clean_linker_1, # of connection points: 2
#     Edge 94, Type (0, 0), BuildingBlock: KIFKEQ_clean_linker_1, # of connection points: 2
#     Edge 95, Type (0, 0), BuildingBlock: KIFKEQ_clean_linker_1, # of connection points: 2
# Relax obj value: 0.102
# Max RMSD: 0.118
# Mean RMSD: 0.118
data_MOF--net-umr--node1-TATPOV_clean_sbu_0--edge1-KIFKEQ_clean_linker_1
_symmetry_space_group_name_H-M    P1
_symmetry_Int_Tables_number       1
_symmetry_cell_setting            triclinic
loop_
_symmetry_equiv_pos_as_xyz
'x, y, z'
_cell_length_a     86.488483
_cell_length_b     86.533773
_cell_length_c     25.939454
_cell_angle_alpha  89.968411
_cell_angle_beta   90.000376
_cell_angle_gamma 89.999097
loop_
_atom_site_label
_atom_site_type_symbol
_atom_site_fract_x
_atom_site_fract_y
_atom_site_fract_z
_atom_type_partial_charge
Zn0 Zn 0.1809 0.27647 0.10594 0.0
Zn1 Zn 0.16269 0.30035 0.083 0.0
O2 O 0.15791 0.28576 0.02283 0.0
O3 O 0.17333 0.26621 0.04098 0.0
O4 O 0.14916 0.31907 0.07167 0.0
O5 O 0.16948 0.27206 0.17076 0.0
O6 O 0.15464 0.29211 0.15321 0.0
C7 C 0.16333 0.27245 0.01199 0.0
C8 C 0.19831 0.30381 0.08731 0.0
O9 O 0.18492 0.30913 0.07685 0.0
O10 O 0.19976 0.29015 0.10415 0.0
C11 C 0.13456 0.31803 0.07638 0.0
O12 O 0.1284 0.30449 0.08657 0.0
C13 C 0.15825 0.28075 0.18202 0.0
Zn14 Zn 0.97469 0.94979 0.40175 0.0
Zn15 Zn 0.9544 0.92761 0.3902 0.0
O16 O 0.97057 0.92139 0.3361 0.0
O17 O 0.98738 0.94033 0.34506 0.0
O18 O 0.93798 0.91109 0.38518 0.0
O19 O 0.9799 0.94339 0.47273 0.0
O20 O 0.96288 0.92462 0.46462 0.0
C21 C 0.98325 0.92788 0.32343 0.0
C22 C 0.94609 0.96208 0.36994 0.0
O23 O 0.94277 0.94771 0.36873 0.0
O24 O 0.95919 0.96637 0.38632 0.0
C25 C 0.92627 0.91167 0.41477 0.0
O26 O 0.92509 0.92317 0.4476 0.0
C27 C 0.97328 0.93154 0.49073 0.0
Zn28 Zn 0.29637 0.7285 0.6792 0.0
Zn29 Zn 0.31971 0.70995 0.66499 0.0
O30 O 0.32537 0.72707 0.61276 0.0
O31 O 0.3056 0.74264 0.62601 0.0
O32 O 0.33769 0.69499 0.66431 0.0
O33 O 0.30109 0.73308 0.75211 0.0
O34 O 0.32097 0.71756 0.74127 0.0
C35 C 0.31815 0.7396 0.60301 0.0
C36 C 0.28615 0.69979 0.63997 0.0
O37 O 0.3007 0.69727 0.63918 0.0
O38 O 0.28103 0.71229 0.65866 0.0
C39 C 0.33924 0.68296 0.63663 0.0
O40 O 0.32857 0.67956 0.60242 0.0
C41 C 0.31317 0.72676 0.76954 0.0
Zn42 Zn 0.53296 0.05258 0.89078 0.0
Zn43 Zn 0.55424 0.07362 0.87501 0.0
O44 O 0.53835 0.07938 0.81925 0.0
O45 O 0.52064 0.06149 0.83244 0.0
O46 O 0.57108 0.08963 0.86752 0.0
O47 O 0.52799 0.06031 0.9603 0.0
O48 O 0.54617 0.07784 0.94939 0.0
C49 C 0.5254 0.07321 0.8079 0.0
C50 C 0.56113 0.03871 0.86055 0.0
O51 O 0.56508 0.05288 0.85664 0.0
O52 O 0.54793 0.03527 0.87819 0.0
C53 C 0.58266 0.08928 0.89774 0.0
O54 O 0.58355 0.0782 0.93226 0.0
C55 C 0.53544 0.07186 0.97658 0.0
Zn56 Zn 0.20078 0.72568 0.33491 0.0
Zn57 Zn 0.17751 0.70644 0.35057 0.0
O58 O 0.17161 0.7244 0.39829 0.0
O59 O 0.1902 0.74109 0.38196 0.0
O60 O 0.15977 0.69129 0.35681 0.0
O61 O 0.19743 0.72642 0.25928 0.0
O62 O 0.17673 0.71214 0.27254 0.0
C63 C 0.17791 0.73753 0.40576 0.0
C64 C 0.21091 0.69784 0.3828 0.0
O65 O 0.19653 0.69455 0.38036 0.0
O66 O 0.2158 0.71047 0.36445 0.0
C67 C 0.1599 0.67912 0.32932 0.0
O68 O 0.17179 0.67657 0.29896 0.0
C69 C 0.18548 0.71977 0.24223 0.0
Zn70 Zn 0.53048 0.94883 0.57125 0.0
Zn71 Zn 0.55015 0.92567 0.58408 0.0
O72 O 0.53258 0.91877 0.63181 0.0
O73 O 0.51572 0.93744 0.61873 0.0
O74 O 0.56596 0.90852 0.58694 0.0
O75 O 0.52927 0.9458 0.4954 0.0
O76 O 0.54404 0.92535 0.5066 0.0
C77 C 0.51943 0.92487 0.64062 0.0
C78 C 0.55845 0.95899 0.61789 0.0
O79 O 0.56179 0.94466 0.61468 0.0
O80 O 0.54571 0.96391 0.60042 0.0
C81 C 0.57394 0.90537 0.62674 0.0
O82 O 0.57173 0.91339 0.6691 0.0
C83 C 0.53604 0.93406 0.47727 0.0
Zn84 Zn 0.3117 0.27438 0.91714 0.0
Zn85 Zn 0.33147 0.29677 0.92561 0.0
O86 O 0.33724 0.28482 0.99087 0.0
O87 O 0.32013 0.26605 0.9838 0.0
O88 O 0.34637 0.31474 0.92137 0.0
O89 O 0.32048 0.26568 0.85345 0.0
O90 O 0.33773 0.28421 0.86029 0.0
C91 C 0.33124 0.27235 0.00769 0.0
C92 C 0.29588 0.30233 0.92787 0.0
O93 O 0.30973 0.30708 0.93407 0.0
O94 O 0.29337 0.28838 0.91605 0.0
C95 C 0.34353 0.3255 0.88932 0.0
O96 O 0.33066 0.32492 0.86244 0.0
C97 C 0.33266 0.27216 0.83753 0.0
Zn98 Zn 0.971 0.04478 0.06117 0.0
Zn99 Zn 0.95399 0.06926 0.07912 0.0
O100 O 0.97257 0.0741 0.12591 0.0
O101 O 0.98743 0.05422 0.10711 0.0
O102 O 0.93984 0.08781 0.0843 0.0
O103 O 0.97164 0.04782 0.98536 0.0
O104 O 0.95913 0.06949 0.00037 0.0
C105 C 0.98518 0.06667 0.13176 0.0
C106 C 0.94325 0.0366 0.11253 0.0
O107 O 0.94113 0.05119 0.11072 0.0
O108 O 0.95514 0.03072 0.09203 0.0
C109 C 0.93045 0.09035 0.12105 0.0
O110 O 0.92997 0.08069 0.16012 0.0
C111 C 0.96578 0.06027 0.96905 0.0
Zn112 Zn 0.80635 0.729 0.8477 0.0
Zn113 Zn 0.82842 0.70866 0.86094 0.0
O114 O 0.83441 0.72505 0.91493 0.0
O115 O 0.81549 0.74181 0.90443 0.0
O116 O 0.84519 0.69245 0.86584 0.0
O117 O 0.81296 0.73414 0.77702 0.0
O118 O 0.83133 0.71671 0.78594 0.0
C119 C 0.82784 0.73774 0.92689 0.0
C120 C 0.79396 0.70039 0.87987 0.0
O121 O 0.80832 0.69702 0.88235 0.0
O122 O 0.7898 0.71341 0.86254 0.0
C123 C 0.8448 0.68091 0.83551 0.0
O124 O 0.83321 0.67963 0.80304 0.0
C125 C 0.8246 0.72712 0.75933 0.0
Zn126 Zn 0.02872 0.0439 0.56113 0.0
Zn127 Zn 0.04602 0.06838 0.57856 0.0
O128 O 0.02761 0.07321 0.62624 0.0
O129 O 0.01255 0.05343 0.60788 0.0
O130 O 0.06004 0.08707 0.58231 0.0
O131 O 0.02779 0.04706 0.48533 0.0
O132 O 0.04056 0.06858 0.50016 0.0
C133 C 0.01497 0.06586 0.63249 0.0
C134 C 0.05689 0.03566 0.61056 0.0
O135 O 0.05905 0.05025 0.60888 0.0
O136 O 0.04481 0.02987 0.591 0.0
C137 C 0.07165 0.08874 0.61186 0.0
O138 O 0.07493 0.07789 0.64559 0.0
C139 C 0.03371 0.05947 0.46897 0.0
Zn140 Zn 0.70506 0.27422 0.34801 0.0
Zn141 Zn 0.68341 0.29514 0.35063 0.0
O142 O 0.67468 0.2802 0.40511 0.0
O143 O 0.69309 0.2626 0.40187 0.0
O144 O 0.66768 0.31219 0.34195 0.0
O145 O 0.70154 0.26809 0.27591 0.0
O146 O 0.68288 0.28535 0.27734 0.0
C147 C 0.68033 0.26732 0.41994 0.0
C148 C 0.71728 0.30271 0.381 0.0
O149 O 0.70305 0.30651 0.37791 0.0
O150 O 0.72154 0.28935 0.36729 0.0
C151 C 0.65986 0.31858 0.37754 0.0
O152 O 0.66182 0.31407 0.42548 0.0
C153 C 0.69034 0.27475 0.25395 0.0
Zn154 Zn 0.47428 0.94772 0.06043 0.0
Zn155 Zn 0.45561 0.92489 0.08113 0.0
O156 O 0.47299 0.9203 0.13366 0.0
O157 O 0.48834 0.93995 0.1163 0.0
O158 O 0.44001 0.90765 0.08953 0.0
O159 O 0.47872 0.94073 0.98946 0.0
O160 O 0.46256 0.9216 0.0048 0.0
C161 C 0.48542 0.92785 0.142 0.0
C162 C 0.44591 0.95913 0.09737 0.0
O163 O 0.44346 0.94466 0.10237 0.0
O164 O 0.45826 0.96377 0.07627 0.0
C165 C 0.42999 0.90709 0.12535 0.0
O166 O 0.42987 0.91796 0.16067 0.0
C167 C 0.47196 0.92856 0.97486 0.0
Zn168 Zn 0.81329 0.27697 0.64383 0.0
Zn169 Zn 0.83415 0.29847 0.63053 0.0
O170 O 0.84076 0.2829 0.57469 0.0
O171 O 0.82284 0.26509 0.58565 0.0
O172 O 0.84949 0.31603 0.62545 0.0
O173 O 0.8206 0.27174 0.71361 0.0
O174 O 0.83806 0.2901 0.70482 0.0
C175 C 0.83477 0.26994 0.56245 0.0
C176 C 0.79912 0.30484 0.61413 0.0
O177 O 0.81327 0.30891 0.61111 0.0
O178 O 0.79569 0.29157 0.63108 0.0
C179 C 0.85111 0.32387 0.58433 0.0
O180 O 0.8428 0.32025 0.54369 0.0
C181 C 0.83201 0.27918 0.73106 0.0
Zn182 Zn 0.47781 0.04747 0.37602 0.0
Zn183 Zn 0.45784 0.07025 0.3721 0.0
O184 O 0.47376 0.07799 0.31919 0.0
O185 O 0.49041 0.05875 0.32281 0.0
O186 O 0.44219 0.08747 0.3789 0.0
O187 O 0.48345 0.05087 0.44886 0.0
O188 O 0.46694 0.07018 0.4462 0.0
C189 C 0.48641 0.07176 0.30484 0.0
C190 C 0.4486 0.0369 0.34151 0.0
O191 O 0.44544 0.05129 0.34451 0.0
O192 O 0.46172 0.03203 0.35565 0.0
C193 C 0.42962 0.08899 0.35404 0.0
O194 O 0.42602 0.07886 0.31828 0.0
C195 C 0.47703 0.06226 0.47045 0.0
Zn196 Zn 0.70323 0.72674 0.16907 0.0
Zn197 Zn 0.68059 0.70658 0.15418 0.0
O198 O 0.67374 0.72416 0.10636 0.0
O199 O 0.69189 0.74144 0.12129 0.0
O200 O 0.6636 0.6906 0.14987 0.0
O201 O 0.69978 0.72762 0.24476 0.0
O202 O 0.67972 0.71245 0.2318 0.0
C203 C 0.67958 0.73747 0.09828 0.0
C204 C 0.71425 0.69904 0.12238 0.0
O205 O 0.69997 0.69534 0.12456 0.0
O206 O 0.71874 0.71186 0.14041 0.0
C207 C 0.66481 0.67861 0.17795 0.0
O208 O 0.67724 0.6769 0.20653 0.0
C209 C 0.68811 0.72052 0.26192 0.0
Zn210 Zn 0.02978 0.94639 0.89641 0.0
Zn211 Zn 0.05111 0.92523 0.88873 0.0
O212 O 0.03564 0.91743 0.83413 0.0
O213 O 0.01778 0.93547 0.84133 0.0
O214 O 0.06824 0.90936 0.89021 0.0
O215 O 0.02435 0.94123 0.96803 0.0
O216 O 0.04238 0.92332 0.96335 0.0
C217 C 0.02261 0.9231 0.82086 0.0
C218 C 0.05793 0.95963 0.86366 0.0
O219 O 0.06203 0.94545 0.86443 0.0
O220 O 0.04455 0.9634 0.87887 0.0
C221 C 0.07627 0.90553 0.85123 0.0
O222 O 0.07343 0.91208 0.8065 0.0
C223 C 0.03163 0.93012 0.98819 0.0
Zn224 Zn 0.70186 0.78253 0.67353 0.0
Zn225 Zn 0.67837 0.80056 0.65552 0.0
O226 O 0.67352 0.783 0.60415 0.0
O227 O 0.69363 0.76807 0.61961 0.0
O228 O 0.66058 0.81559 0.64954 0.0
O229 O 0.69606 0.77818 0.74573 0.0
O230 O 0.67625 0.79366 0.73237 0.0
C231 C 0.68118 0.77068 0.59541 0.0
C232 C 0.71206 0.81107 0.63377 0.0
O233 O 0.69749 0.8132 0.63084 0.0
O234 O 0.71726 0.79889 0.6545 0.0
C235 C 0.65851 0.82475 0.61183 0.0
O236 O 0.6682 0.82442 0.57283 0.0
C237 C 0.68385 0.78459 0.76172 0.0
Zn238 Zn 0.48111 0.42924 0.74556 0.0
Zn239 Zn 0.45645 0.41556 0.78024 0.0
O240 O 0.46114 0.40419 0.7112 0.0
O241 O 0.4841 0.41346 0.69124 0.0
O242 O 0.43793 0.40394 0.80798 0.0
O243 O 0.49249 0.42646 0.81148 0.0
O244 O 0.47278 0.4125 0.83804 0.0
C245 C 0.47316 0.40416 0.68273 0.0
C246 C 0.45512 0.4496 0.74848 0.0
O247 O 0.44881 0.43822 0.77168 0.0
O248 O 0.46871 0.44839 0.73086 0.0
C249 C 0.4267 0.40034 0.7787 0.0
O250 O 0.42702 0.40476 0.73023 0.0
C251 C 0.48638 0.41784 0.84515 0.0
Zn252 Zn 0.80984 0.22168 0.13485 0.0
Zn253 Zn 0.83213 0.20153 0.12844 0.0
O254 O 0.83967 0.21741 0.07504 0.0
O255 O 0.82054 0.23415 0.08009 0.0
O256 O 0.84862 0.18499 0.13037 0.0
O257 O 0.81436 0.22732 0.20688 0.0
O258 O 0.83336 0.21045 0.20294 0.0
C259 C 0.83339 0.23006 0.06103 0.0
C260 C 0.79813 0.19313 0.10121 0.0
O261 O 0.81251 0.18982 0.10241 0.0
O262 O 0.79356 0.20621 0.11672 0.0
C263 C 0.85214 0.17676 0.09155 0.0
O264 O 0.84495 0.17911 0.04762 0.0
C265 C 0.82587 0.2208 0.22749 0.0
Zn266 Zn 0.0289 0.56001 0.39472 0.0
Zn267 Zn 0.04731 0.58346 0.375 0.0
O268 O 0.02923 0.58942 0.32768 0.0
O269 O 0.01344 0.57025 0.34663 0.0
O270 O 0.06319 0.60054 0.36832 0.0
O271 O 0.02811 0.56391 0.46996 0.0
O272 O 0.04188 0.58473 0.45352 0.0
C273 C 0.01631 0.58254 0.32174 0.0
C274 C 0.05598 0.54969 0.34546 0.0
O275 O 0.05864 0.5642 0.34472 0.0
O276 O 0.04395 0.54452 0.36709 0.0
C277 C 0.07054 0.6035 0.32703 0.0
O278 O 0.06745 0.59549 0.28526 0.0
C279 C 0.03456 0.57616 0.4853 0.0
Zn280 Zn 0.70367 0.21921 0.83586 0.0
Zn281 Zn 0.68242 0.19816 0.8478 0.0
O282 O 0.67598 0.21349 0.90433 0.0
O283 O 0.69418 0.23106 0.8943 0.0
O284 O 0.66661 0.18101 0.85115 0.0
O285 O 0.69679 0.22498 0.76609 0.0
O286 O 0.67873 0.20722 0.77426 0.0
C287 C 0.68216 0.2263 0.91716 0.0
C288 C 0.71728 0.19105 0.86509 0.0
O289 O 0.70305 0.1872 0.86754 0.0
O290 O 0.72097 0.2043 0.84857 0.0
C291 C 0.66275 0.17451 0.8932 0.0
O292 O 0.66922 0.17909 0.93641 0.0
C293 C 0.68508 0.21806 0.74848 0.0
Zn294 Zn 0.0237 0.45755 0.06212 0.0
Zn295 Zn 0.0409 0.43288 0.08248 0.0
O296 O 0.02207 0.42829 0.12796 0.0
O297 O 0.00732 0.44826 0.10917 0.0
O298 O 0.05496 0.41445 0.09194 0.0
O299 O 0.02343 0.45336 0.9867 0.0
O300 O 0.03628 0.432 0.00363 0.0
C301 C 0.00948 0.43576 0.13367 0.0
C302 C 0.05167 0.46585 0.11237 0.0
O303 O 0.05352 0.45122 0.11289 0.0
O304 O 0.03991 0.47173 0.0911 0.0
C305 C 0.06681 0.41325 0.06316 0.0
O306 O 0.06966 0.42424 0.02948 0.0
C307 C 0.02958 0.44093 0.9715 0.0
Zn308 Zn 0.80313 0.78369 0.35248 0.0
Zn309 Zn 0.82472 0.80466 0.36241 0.0
O310 O 0.83215 0.78841 0.41467 0.0
O311 O 0.81361 0.7711 0.40734 0.0
O312 O 0.8408 0.82155 0.36569 0.0
O313 O 0.80885 0.77895 0.28059 0.0
O314 O 0.82695 0.79675 0.287 0.0
C315 C 0.82619 0.7755 0.42751 0.0
C316 C 0.79029 0.81175 0.38709 0.0
O317 O 0.80455 0.81555 0.38722 0.0
O318 O 0.78628 0.79862 0.37035 0.0
C319 C 0.84491 0.82768 0.40806 0.0
O320 O 0.83849 0.82292 0.45114 0.0
C321 C 0.82012 0.7862 0.26128 0.0
Zn322 Zn 0.48163 0.57895 0.71125 0.0
Zn323 Zn 0.45651 0.59362 0.69461 0.0
O324 O 0.46623 0.60521 0.75733 0.0
O325 O 0.48949 0.59498 0.7585 0.0
O326 O 0.43714 0.60589 0.67889 0.0
O327 O 0.4888 0.58023 0.63905 0.0
O328 O 0.469 0.59575 0.62669 0.0
C329 C 0.48001 0.60492 0.77491 0.0
C330 C 0.4557 0.55983 0.73016 0.0
O331 O 0.44863 0.57132 0.71022 0.0
O332 O 0.47011 0.56054 0.73821 0.0
C333 C 0.42834 0.61091 0.71438 0.0
O334 O 0.43168 0.60768 0.76262 0.0
C335 C 0.48141 0.58945 0.61043 0.0
Zn336 Zn 0.32337 0.22787 0.45838 0.0
Zn337 Zn 0.33863 0.20303 0.44114 0.0
O338 O 0.35044 0.21284 0.50306 0.0
O339 O 0.33972 0.23588 0.50446 0.0
O340 O 0.35113 0.18405 0.4232 0.0
O341 O 0.32402 0.23506 0.38596 0.0
O342 O 0.34013 0.21574 0.37366 0.0
C343 C 0.34996 0.22663 0.52038 0.0
C344 C 0.30515 0.20138 0.47916 0.0
O345 O 0.31667 0.19457 0.45848 0.0
O346 O 0.3055 0.2158 0.48679 0.0
C347 C 0.35696 0.17516 0.45703 0.0
O348 O 0.35454 0.17811 0.50605 0.0
C349 C 0.33342 0.22792 0.3573 0.0
Zn350 Zn 0.52768 0.56448 0.17068 0.0
Zn351 Zn 0.55013 0.58432 0.17912 0.0
O352 O 0.53804 0.58993 0.24423 0.0
O353 O 0.51939 0.57267 0.2377 0.0
O354 O 0.56815 0.59916 0.17612 0.0
O355 O 0.51902 0.5736 0.10729 0.0
O356 O 0.53764 0.59077 0.11389 0.0
C357 C 0.52563 0.58386 0.26134 0.0
C358 C 0.55586 0.54882 0.17979 0.0
O359 O 0.5606 0.56265 0.18634 0.0
O360 O 0.54186 0.54629 0.16862 0.0
C361 C 0.57659 0.60259 0.21457 0.0
O362 O 0.57365 0.59624 0.25954 0.0
C363 C 0.52553 0.58576 0.09133 0.0
Zn364 Zn 0.20436 0.78205 0.83312 0.0
Zn365 Zn 0.18121 0.80085 0.84828 0.0
O366 O 0.17557 0.78364 0.9003 0.0
O367 O 0.19521 0.76796 0.88661 0.0
O368 O 0.16364 0.81623 0.85148 0.0
O369 O 0.1991 0.77771 0.76041 0.0
O370 O 0.17952 0.79359 0.77173 0.0
C371 C 0.18273 0.77107 0.90989 0.0
C372 C 0.21499 0.81061 0.87209 0.0
O373 O 0.20047 0.81322 0.87336 0.0
O374 O 0.21997 0.79809 0.85313 0.0
C375 C 0.16188 0.82648 0.88609 0.0
O376 O 0.17182 0.82723 0.9243 0.0
C377 C 0.18712 0.78429 0.74325 0.0
Zn378 Zn 0.96971 0.45664 0.56037 0.0
Zn379 Zn 0.95078 0.43383 0.58192 0.0
O380 O 0.96943 0.42857 0.62818 0.0
O381 O 0.98584 0.44689 0.60647 0.0
O382 O 0.93592 0.4161 0.59339 0.0
O383 O 0.96941 0.45256 0.48524 0.0
O384 O 0.95493 0.43229 0.50262 0.0
C385 C 0.98264 0.43497 0.63281 0.0
C386 C 0.94243 0.46752 0.60989 0.0
O387 O 0.93909 0.45314 0.61031 0.0
O388 O 0.9549 0.47207 0.58947 0.0
C389 C 0.92299 0.41608 0.57005 0.0
O390 O 0.91945 0.42787 0.54035 0.0
C391 C 0.96219 0.4407 0.47023 0.0
Zn392 Zn 0.30037 0.78494 0.17708 0.0
Zn393 Zn 0.32344 0.80443 0.16275 0.0
O394 O 0.3298 0.78683 0.11436 0.0
O395 O 0.3114 0.76986 0.12997 0.0
O396 O 0.34086 0.81994 0.15892 0.0
O397 O 0.30339 0.78396 0.25284 0.0
O398 O 0.324 0.79844 0.24046 0.0
C399 C 0.32369 0.77363 0.10648 0.0
C400 C 0.29012 0.81279 0.12952 0.0
O401 O 0.30445 0.8162 0.13258 0.0
O402 O 0.28528 0.80007 0.14736 0.0
C403 C 0.3455 0.82625 0.11745 0.0
O404 O 0.33878 0.82258 0.07369 0.0
C405 C 0.31526 0.79066 0.27035 0.0
Zn406 Zn 0.97376 0.5591 0.89597 0.0
Zn407 Zn 0.9543 0.58165 0.87672 0.0
O408 O 0.97195 0.58745 0.82681 0.0
O409 O 0.98884 0.5694 0.8472 0.0
O410 O 0.93834 0.59859 0.87 0.0
O411 O 0.97464 0.56332 0.97111 0.0
O412 O 0.96008 0.58359 0.95466 0.0
C413 C 0.9852 0.58122 0.82096 0.0
C414 C 0.94609 0.54765 0.85127 0.0
O415 O 0.94261 0.56199 0.85121 0.0
O416 O 0.95891 0.54326 0.86957 0.0
C417 C 0.93113 0.60191 0.82876 0.0
O418 O 0.9343 0.59425 0.78634 0.0
C419 C 0.9678 0.57538 0.98636 0.0
Zn420 Zn 0.17982 0.2295 0.56049 0.0
Zn421 Zn 0.16356 0.20478 0.57228 0.0
O422 O 0.15238 0.2163 0.51225 0.0
O423 O 0.16399 0.23893 0.51508 0.0
O424 O 0.15028 0.18588 0.58453 0.0
O425 O 0.17887 0.23507 0.63463 0.0
O426 O 0.16212 0.2161 0.64253 0.0
C427 C 0.15346 0.23032 0.49745 0.0
C428 C 0.19715 0.20268 0.53545 0.0
O429 O 0.1853 0.19592 0.55418 0.0
O430 O 0.19735 0.21722 0.53073 0.0
C431 C 0.14485 0.17785 0.54771 0.0
O432 O 0.14825 0.18172 0.50004 0.0
C433 C 0.16916 0.22772 0.66156 0.0
Zn434 Zn 0.52756 0.43362 0.29216 0.0
Zn435 Zn 0.5495 0.41412 0.29334 0.0
O436 O 0.54095 0.40993 0.22052 0.0
O437 O 0.52615 0.43061 0.21571 0.0
O438 O 0.56683 0.39877 0.3039 0.0
O439 O 0.5136 0.42132 0.3377 0.0
O440 O 0.53449 0.40748 0.35178 0.0
C441 C 0.53222 0.4189 0.19463 0.0
C442 C 0.55513 0.44901 0.30978 0.0
O443 O 0.56011 0.43573 0.29634 0.0
O444 O 0.54089 0.45084 0.31909 0.0
C445 C 0.5803 0.39966 0.28454 0.0
O446 O 0.58366 0.41122 0.25364 0.0
C447 C 0.52037 0.41056 0.36161 0.0
H448 H 0.26753 0.3032 0.88333 0.0
H449 H 0.29389 0.32184 0.01007 0.0
H450 H 0.24363 0.31115 0.92521 0.0
H451 H 0.26984 0.32958 0.0528 0.0
H452 H 0.227 0.30176 0.12977 0.0
H453 H 0.25126 0.30919 0.08903 0.0
H454 H 0.22598 0.33147 0.96625 0.0
H455 H 0.20159 0.32422 0.00764 0.0
C456 C 0.26822 0.30961 0.91915 0.0
C457 C 0.28252 0.31182 0.94363 0.0
C458 C 0.25452 0.3142 0.94316 0.0
C459 C 0.25486 0.32083 -0.00739 0.0
C460 C 0.26926 0.32444 0.01478 0.0
C461 C 0.28301 0.32011 0.99016 0.0
C462 C 0.22662 0.30878 0.09517 0.0
C463 C 0.21242 0.31225 0.07158 0.0
C464 C 0.24053 0.31312 0.07192 0.0
C465 C 0.24052 0.32079 0.02414 0.0
C466 C 0.22631 0.32552 0.00297 0.0
C467 C 0.21236 0.32142 0.02681 0.0
H468 H 0.92383 0.95701 0.29655 0.0
H469 H 0.94655 0.99333 0.38183 0.0
H470 H 0.91453 0.97604 0.23424 0.0
H471 H 0.93758 0.01219 0.31959 0.0
H472 H 0.92712 0.04466 0.19938 0.0
H473 H 0.91942 0.02693 0.26823 0.0
H474 H 0.93098 0.98815 0.17064 0.0
H475 H 0.93839 0.00577 0.10235 0.0
C476 C 0.92635 0.96911 0.30314 0.0
C477 C 0.93625 0.97362 0.34338 0.0
C478 C 0.9211 0.98002 0.26721 0.0
C479 C 0.92562 0.99561 0.27109 0.0
C480 C 0.93384 1.00033 0.31514 0.0
C481 C 0.93911 0.98945 0.35081 0.0
C482 C 0.92734 0.03235 0.19196 0.0
C483 C 0.93365 0.02658 0.14591 0.0
C484 C 0.92305 0.02217 0.23156 0.0
C485 C 0.92491 0.0061 0.22551 0.0
C486 C 0.92934 1.00041 0.17692 0.0
C487 C 0.93371 0.01054 0.13766 0.0
H488 H 0.24202 0.69579 0.37141 0.0
H489 H 0.2044 0.6794 0.46608 0.0
H490 H 0.26039 0.6882 0.43721 0.0
H491 H 0.22293 0.67149 0.53235 0.0
H492 H 0.25502 0.69764 0.65268 0.0
H493 H 0.23658 0.68912 0.58839 0.0
H494 H 0.27396 0.67119 0.49545 0.0
H495 H 0.29255 0.68008 0.55997 0.0
C496 C 0.23773 0.68998 0.40556 0.0
C497 C 0.22176 0.68848 0.41404 0.0
C498 C 0.24831 0.68551 0.44334 0.0
C499 C 0.24315 0.6795 0.49072 0.0
C500 C 0.22727 0.67633 0.49666 0.0
C501 C 0.21665 0.68075 0.45852 0.0
C502 C 0.25929 0.69139 0.61942 0.0
C503 C 0.27526 0.68987 0.61082 0.0
C504 C 0.24867 0.68637 0.58252 0.0
C505 C 0.25378 0.67977 0.53601 0.0
C506 C 0.26966 0.67652 0.53039 0.0
C507 C 0.28032 0.6815 0.56757 0.0
H508 H 0.56003 0.00778 0.87953 0.0
H509 H 0.58217 0.04171 0.78226 0.0
H510 H 0.56725 0.98751 0.81951 0.0
H511 H 0.58955 0.0213 0.72202 0.0
H512 H 0.56181 0.9898 0.60281 0.0
H513 H 0.57047 0.00857 0.66601 0.0
H514 H 0.58483 0.97152 0.76693 0.0
H515 H 0.57608 0.95261 0.70297 0.0
C516 C 0.567 0.01082 0.84632 0.0
C517 C 0.57022 0.02638 0.83505 0.0
C518 C 0.57124 0.99916 0.81192 0.0
C519 C 0.57869 0.00282 0.76532 0.0
C520 C 0.58358 0.01815 0.75721 0.0
C521 C 0.57944 0.02983 0.79193 0.0
C522 C 0.56735 0.98566 0.63765 0.0
C523 C 0.56807 0.96977 0.64832 0.0
C524 C 0.57243 0.99644 0.67388 0.0
C525 C 0.57816 0.99156 0.72195 0.0
C526 C 0.58033 0.97563 0.73046 0.0
C527 C 0.57541 0.96481 0.69373 0.0
H528 H 0.74514 0.6968 0.13835 0.0
H529 H 0.70875 0.68113 0.03726 0.0
H530 H 0.76438 0.68908 0.0754 0.0
H531 H 0.72814 0.67325 0.97365 0.0
H532 H 0.76301 0.69978 0.86137 0.0
H533 H 0.74318 0.69146 0.92143 0.0
H534 H 0.77821 0.67115 0.01899 0.0
H535 H 0.79818 0.6797 0.95866 0.0
C536 C 0.74129 0.69114 0.10337 0.0
C537 C 0.72545 0.68981 0.09232 0.0
C538 C 0.75235 0.68659 0.06726 0.0
C539 C 0.74781 0.68076 0.01899 0.0
C540 C 0.73199 0.67789 0.01023 0.0
C541 C 0.72089 0.6823 0.04679 0.0
C542 C 0.76645 0.69303 0.89464 0.0
C543 C 0.78218 0.69071 0.90587 0.0
C544 C 0.75504 0.68815 0.92906 0.0
C545 C 0.75912 0.68091 0.97567 0.0
C546 C 0.77472 0.67693 0.9838 0.0
C547 C 0.78616 0.68174 0.94905 0.0
H548 H 0.07944 0.95527 0.78745 0.0
H549 H 0.05702 0.99074 0.87739 0.0
H550 H 0.08768 0.97478 0.72501 0.0
H551 H 0.06499 0.01009 0.81522 0.0
H552 H 0.0739 0.04337 0.69589 0.0
H553 H 0.08257 0.02534 0.7626 0.0
H554 H 0.07006 0.98698 0.66449 0.0
H555 H 0.06165 0.00489 0.59832 0.0
C556 C 0.07681 0.96729 0.79501 0.0
C557 C 0.06729 0.97145 0.83668 0.0
C558 C 0.08144 0.97847 0.75904 0.0
C559 C 0.07671 0.99397 0.7644 0.0
C560 C 0.06889 0.99832 0.80967 0.0
C561 C 0.0642 0.98717 0.8453 0.0
C562 C 0.07366 0.03109 0.68783 0.0
C563 C 0.06682 0.02551 0.64237 0.0
C564 C 0.07851 0.02075 0.72619 0.0
C565 C 0.07672 0.00469 0.71942 0.0
C566 C 0.07168 0.99922 0.67122 0.0
C567 C 0.06674 0.00952 0.63324 0.0
H568 H 0.74798 0.30506 0.36155 0.0
H569 H 0.71225 0.32173 0.46344 0.0
H570 H 0.76764 0.31374 0.42177 0.0
H571 H 0.73205 0.33043 0.52444 0.0
H572 H 0.76829 0.30437 0.63498 0.0
H573 H 0.74777 0.31199 0.57631 0.0
H574 H 0.78145 0.3331 0.47549 0.0
H575 H 0.80209 0.32541 0.5346 0.0
C576 C 0.74437 0.31116 0.39597 0.0
C577 C 0.72861 0.31254 0.40817 0.0
C578 C 0.75565 0.31624 0.43049 0.0
C579 C 0.75141 0.32258 0.47833 0.0
C580 C 0.73565 0.32545 0.48807 0.0
C581 C 0.72433 0.32056 0.45301 0.0
C582 C 0.77127 0.31117 0.60135 0.0
C583 C 0.78682 0.31402 0.58889 0.0
C584 C 0.75947 0.31565 0.56775 0.0
C585 C 0.763 0.32291 0.5207 0.0
C586 C 0.7784 0.32734 0.51117 0.0
C587 C 0.79022 0.32302 0.54519 0.0
H588 H 0.42634 0.95416 0.17885 0.0
H589 H 0.44421 0.99012 0.07998 0.0
H590 H 0.41829 0.97367 0.24135 0.0
H591 H 0.43646 0.00948 0.14231 0.0
H592 H 0.42885 0.04309 0.26159 0.0
H593 H 0.41946 0.02412 0.19898 0.0
H594 H 0.43673 0.98724 0.29549 0.0
H595 H 0.44589 0.00607 0.35752 0.0
C596 C 0.42799 0.96624 0.16944 0.0
C597 C 0.43627 0.97058 0.1251 0.0
C598 C 0.42347 0.97743 0.20545 0.0
C599 C 0.42708 0.99312 0.19755 0.0
C600 C 0.43347 0.99754 0.14991 0.0
C601 C 0.43804 0.98639 0.11414 0.0
C602 C 0.42999 0.0309 0.27037 0.0
C603 C 0.43835 0.02603 0.31388 0.0
C604 C 0.42472 0.02003 0.23433 0.0
C605 C 0.42761 0.00416 0.2416 0.0
C606 C 0.43423 0.99932 0.28845 0.0
C607 C 0.4396 0.01014 0.32404 0.0
H608 H 0.74297 0.81437 0.64981 0.0
H609 H 0.70594 0.82942 0.5501 0.0
H610 H 0.76182 0.8226 0.58627 0.0
H611 H 0.72492 0.83788 0.48622 0.0
H612 H 0.75922 0.8119 0.3716 0.0
H613 H 0.73975 0.8199 0.43336 0.0
H614 H 0.77526 0.84037 0.52853 0.0
H615 H 0.79488 0.83215 0.46637 0.0
C616 C 0.73887 0.82002 0.61511 0.0
C617 C 0.72297 0.82092 0.60447 0.0
C618 C 0.74972 0.82485 0.57864 0.0
C619 C 0.74489 0.83061 0.53055 0.0
C620 C 0.729 0.83325 0.52255 0.0
C621 C 0.71812 0.8285 0.55933 0.0
C622 C 0.76283 0.81862 0.40474 0.0
C623 C 0.77859 0.82112 0.41466 0.0
C624 C 0.75163 0.82332 0.44014 0.0
C625 C 0.75596 0.83053 0.48652 0.0
C626 C 0.77158 0.83462 0.49354 0.0
C627 C 0.78281 0.83001 0.45775 0.0
H628 H 0.45506 0.4687 0.66606 0.0
H629 H 0.43847 0.46483 0.82236 0.0
H630 H 0.44825 0.496 0.66505 0.0
H631 H 0.4319 0.49246 0.82188 0.0
H632 H 0.45978 0.54103 0.81226 0.0
H633 H 0.45271 0.51384 0.81829 0.0
H634 H 0.42775 0.51747 0.67463 0.0
H635 H 0.43463 0.54496 0.66925 0.0
C636 C 0.44949 0.47363 0.69966 0.0
C637 C 0.44737 0.46474 0.74439 0.0
C638 C 0.44549 0.48925 0.699 0.0
C639 C 0.4396 0.49638 0.74347 0.0
C640 C 0.43642 0.48722 0.78707 0.0
C641 C 0.44012 0.47144 0.78732 0.0
C642 C 0.45228 0.53616 0.78302 0.0
C643 C 0.44782 0.54501 0.74015 0.0
C644 C 0.44815 0.52061 0.78659 0.0
C645 C 0.43976 0.51351 0.74676 0.0
C646 C 0.43424 0.52268 0.70585 0.0
C647 C 0.43811 0.53839 0.70286 0.0
H648 H 0.74814 0.19098 0.84501 0.0
H649 H 0.71379 0.17062 0.94484 0.0
H650 H 0.76838 0.18332 0.9046 0.0
H651 H 0.73417 0.16283 0.00484 0.0
H652 H 0.76738 0.19051 0.1199 0.0
H653 H 0.74793 0.18178 0.05906 0.0
H654 H 0.78388 0.16528 0.95742 0.0
H655 H 0.80345 0.17409 0.01891 0.0
C656 C 0.74499 0.18429 0.87872 0.0
C657 C 0.72936 0.18168 0.89074 0.0
C658 C 0.75662 0.1798 0.91289 0.0
C659 C 0.75287 0.17272 0.96007 0.0
C660 C 0.7374 0.16846 0.96913 0.0
C661 C 0.72573 0.17283 0.93456 0.0
C662 C 0.77112 0.18446 0.08554 0.0
C663 C 0.78692 0.18321 0.07375 0.0
C664 C 0.75995 0.17935 0.05065 0.0
C665 C 0.76434 0.17305 0.00287 0.0
C666 C 0.78014 0.17025 -0.00635 0.0
C667 C 0.79135 0.1752 0.02902 0.0
H668 H 0.05673 0.46331 0.2145 0.0
H669 H 0.06729 0.4917 0.08278 0.0
H670 H 0.0643 0.484 0.27163 0.0
H671 H 0.0766 0.51212 0.13944 0.0
H672 H 0.06056 0.55209 0.2431 0.0
H673 H 0.06589 0.53093 0.18514 0.0
H674 H 0.07714 0.50177 0.31585 0.0
H675 H 0.07004 0.5228 0.37354 0.0
C676 C 0.06151 0.47377 0.19789 0.0
C677 C 0.06134 0.476 0.14445 0.0
C678 C 0.06595 0.48578 0.23075 0.0
C679 C 0.07074 0.50021 0.21081 0.0
C680 C 0.07234 0.50158 0.15683 0.0
C681 C 0.06731 0.48976 0.12405 0.0
C682 C 0.06467 0.54128 0.25916 0.0
C683 C 0.0648 0.539 0.3126 0.0
C684 C 0.06779 0.52898 0.22581 0.0
C685 C 0.07153 0.51418 0.24521 0.0
C686 C 0.07359 0.51264 0.29896 0.0
C687 C 0.06985 0.52479 0.3323 0.0
H688 H 0.28847 0.18232 0.41652 0.0
H689 H 0.28904 0.20274 0.5681 0.0
H690 H 0.26112 0.17546 0.4282 0.0
H691 H 0.26204 0.19559 0.58042 0.0
H692 H 0.21321 0.18234 0.59538 0.0
H693 H 0.24034 0.1748 0.58272 0.0
H694 H 0.24007 0.19687 0.4334 0.0
H695 H 0.2133 0.20468 0.44676 0.0
C696 C 0.28294 0.18468 0.45316 0.0
C697 C 0.29074 0.19309 0.49139 0.0
C698 C 0.26732 0.18082 0.45978 0.0
C699 C 0.25946 0.18503 0.50516 0.0
C700 C 0.2678 0.19203 0.5453 0.0
C701 C 0.28324 0.19619 0.53821 0.0
C702 C 0.21882 0.18499 0.55908 0.0
C703 C 0.21128 0.19411 0.52205 0.0
C704 C 0.23431 0.18074 0.55191 0.0
C705 C 0.24231 0.18528 0.50713 0.0
C706 C 0.23419 0.19304 0.468 0.0
C707 C 0.21888 0.19758 0.47569 0.0
H708 H 0.55311 0.47613 0.36234 0.0
H709 H 0.57797 0.45372 0.239 0.0
H710 H 0.56159 0.50123 0.33076 0.0
H711 H 0.58627 0.47896 0.2067 0.0
H712 H 0.55797 0.52155 0.12909 0.0
H713 H 0.56605 0.49703 0.16647 0.0
H714 H 0.58222 0.5209 0.30229 0.0
H715 H 0.57441 0.5456 0.26395 0.0
C716 C 0.56096 0.47655 0.3298 0.0
C717 C 0.56472 0.463 0.30278 0.0
C718 C 0.56587 0.49094 0.31173 0.0
C719 C 0.57442 0.49207 0.26578 0.0
C720 C 0.57962 0.47842 0.24205 0.0
C721 C 0.57494 0.46397 0.26075 0.0
C722 C 0.56395 0.52162 0.1658 0.0
C723 C 0.56553 0.53542 0.19372 0.0
C724 C 0.56863 0.50758 0.18726 0.0
C725 C 0.57464 0.50703 0.23758 0.0
C726 C 0.5776 0.521 0.26348 0.0
C727 C 0.57323 0.53513 0.24141 0.0
H728 H 0.259 0.81488 0.14053 0.0
H729 H 0.29676 0.83109 0.04612 0.0
H730 H 0.24072 0.82243 0.07435 0.0
H731 H 0.27833 0.8389 0.97941 0.0
H732 H 0.20875 0.83068 0.9512 0.0
H733 H 0.22736 0.83962 0.01552 0.0
H734 H 0.26465 0.82093 0.9239 0.0
H735 H 0.24619 0.8123 0.85977 0.0
C736 C 0.26334 0.82064 0.10635 0.0
C737 C 0.27932 0.82211 0.09806 0.0
C738 C 0.25282 0.82509 0.06836 0.0
C739 C 0.25805 0.83101 0.02097 0.0
C740 C 0.27395 0.83414 0.01515 0.0
C741 C 0.2845 0.82978 0.05353 0.0
C742 C 0.22097 0.82908 0.94381 0.0
C743 C 0.22599 0.82046 0.90103 0.0
C744 C 0.23164 0.8341 0.98086 0.0
C745 C 0.24749 0.83067 0.97556 0.0
C746 C 0.25258 0.82381 0.92946 0.0
C747 C 0.24195 0.81874 0.89269 0.0
H748 H 0.94 0.49826 0.59147 0.0
H749 H 0.92489 0.46264 0.69648 0.0
H750 H 0.93301 0.51791 0.65374 0.0
H751 H 0.91757 0.48245 0.75921 0.0
H752 H 0.94499 0.51676 0.8687 0.0
H753 H 0.93603 0.49714 0.80922 0.0
H754 H 0.91663 0.53259 0.71125 0.0
H755 H 0.92593 0.55239 0.77107 0.0
C756 C 0.93459 0.49467 0.62721 0.0
C757 C 0.93331 0.47891 0.63958 0.0
C758 C 0.93045 0.50598 0.66294 0.0
C759 C 0.92502 0.50178 0.71208 0.0
C760 C 0.92199 0.48605 0.72204 0.0
C761 C 0.92607 0.4747 0.68596 0.0
C762 C 0.93837 0.52036 0.83532 0.0
C763 C 0.93647 0.53612 0.82395 0.0
C764 C 0.93308 0.50906 0.80127 0.0
C765 C 0.92583 0.51327 0.75481 0.0
C766 C 0.9224 0.52899 0.7463 0.0
C767 C 0.92764 0.54033 0.78071 0.0
H768 H 0.16799 0.24225 0.98681 0.0
H769 H 0.14932 0.28503 0.92724 0.0
H770 H 0.16582 0.23061 0.90167 0.0
H771 H 0.14711 0.27327 0.84191 0.0
H772 H 0.1757 0.25604 0.70036 0.0
H773 H 0.16993 0.26601 0.78552 0.0
H774 H 0.14821 0.22276 0.82631 0.0
H775 H 0.15393 0.21264 0.73992 0.0
C776 C 0.16311 0.24907 0.95577 0.0
C777 C 0.15911 0.26466 0.9634 0.0
C778 C 0.16175 0.24234 0.90715 0.0
C779 C 0.15647 0.25111 0.86524 0.0
C780 C 0.15137 0.26633 0.87365 0.0
C781 C 0.1526 0.27303 0.92245 0.0
C782 C 0.16964 0.24861 0.72727 0.0
C783 C 0.1654 0.23348 0.71361 0.0
C784 C 0.16616 0.25442 0.77585 0.0
C785 C 0.15848 0.24521 0.81222 0.0
C786 C 0.1541 0.23009 0.79873 0.0
C787 C 0.1574 0.22432 0.74952 0.0
H788 H 0.04868 0.91831 0.06875 0.0
H789 H 1.00212 0.92853 0.01931 0.0
H790 H 0.03879 0.91156 0.15499 0.0
H791 H 0.99234 0.92171 0.10376 0.0
H792 H 0.01303 0.93535 0.30049 0.0
H793 H 0.02673 0.92991 0.22074 0.0
H794 H 0.98895 0.90098 0.17044 0.0
H795 H 0.97507 0.90654 0.2504 0.0
C796 C 0.03637 0.9188 0.07608 0.0
C797 C 0.02617 0.92422 0.03808 0.0
C798 C 0.03072 0.91492 0.12509 0.0
C799 C 0.0148 0.91604 0.13589 0.0
C800 C 0.00462 0.92048 0.09649 0.0
C801 C 0.01025 0.92462 0.04833 0.0
C802 C 0.00778 0.92752 0.27299 0.0
C803 C 0.99278 0.92173 0.28093 0.0
C804 C 0.01575 0.92425 0.22758 0.0
C805 C 0.0088 0.9152 0.18919 0.0
C806 C 0.99447 0.90813 0.19935 0.0
C807 C 0.98653 0.91134 0.24501 0.0
H808 H 0.33641 0.73332 0.51897 0.0
H809 H 0.31163 0.77014 0.59516 0.0
H810 H 0.33949 0.74973 0.44266 0.0
H811 H 0.31487 0.78649 0.5196 0.0
H812 H 0.29549 0.79032 0.35053 0.0
H813 H 0.30054 0.78105 0.43735 0.0
H814 H 0.34885 0.77523 0.39971 0.0
H815 H 0.34372 0.78487 0.31208 0.0
C816 C 0.3321 0.74506 0.52007 0.0
C817 C 0.32346 0.75033 0.5624 0.0
C818 C 0.33391 0.75448 0.47652 0.0
C819 C 0.32718 0.76928 0.47503 0.0
C820 C 0.31996 0.77504 0.51946 0.0
C821 C 0.31808 0.76565 0.56263 0.0
C822 C 0.30726 0.7875 0.36127 0.0
C823 C 0.31921 0.78829 0.3249 0.0
C824 C 0.3102 0.78225 0.41102 0.0
C825 C 0.32511 0.77741 0.42525 0.0
C826 C 0.33727 0.77889 0.38961 0.0
C827 C 0.33436 0.7845 0.33981 0.0
H828 H 0.49464 0.06937 0.79058 0.0
H829 H 0.53613 0.08839 0.72282 0.0
H830 H 0.48148 0.07141 0.70772 0.0
H831 H 0.52291 0.09032 0.63971 0.0
H832 H 0.50494 0.05582 0.51172 0.0
H833 H 0.51539 0.06431 0.5936 0.0
H834 H 0.47301 0.08874 0.62653 0.0
H835 H 0.46245 0.08045 0.54277 0.0
C836 C 0.50079 0.07444 0.75833 0.0
C837 C 0.5165 0.07841 0.76268 0.0
C838 C 0.4932 0.07573 0.71109 0.0
C839 C 0.50128 0.08083 0.66747 0.0
C840 C 0.51651 0.08627 0.67298 0.0
C841 C 0.52405 0.08518 0.72045 0.0
C842 C 0.49779 0.06303 0.53618 0.0
C843 C 0.4828 0.06733 0.52114 0.0
C844 C 0.5039 0.06809 0.58272 0.0
C845 C 0.49509 0.07737 0.61579 0.0
C846 C 0.48005 0.08172 0.60118 0.0
C847 C 0.47401 0.07691 0.55366 0.0
H848 H 0.18761 0.75548 0.7053 0.0
H849 H 0.17313 0.80191 0.66787 0.0
H850 H 0.17943 0.74665 0.62085 0.0
H851 H 0.16524 0.79301 0.58132 0.0
H852 H 0.18634 0.76743 0.42499 0.0
H853 H 0.18338 0.78114 0.50652 0.0
H854 H 0.15453 0.74429 0.564 0.0
H855 H 0.15739 0.73052 0.48251 0.0
C856 C 0.18258 0.76379 0.67889 0.0
C857 C 0.18115 0.7794 0.6927 0.0
C858 C 0.17771 0.75869 0.63079 0.0
C859 C 0.17156 0.76912 0.59485 0.0
C860 C 0.16984 0.78475 0.60871 0.0
C861 C 0.17437 0.78982 0.65786 0.0
C862 C 0.17892 0.76248 0.45433 0.0
C863 C 0.17243 0.74769 0.44784 0.0
C864 C 0.17713 0.77042 0.50085 0.0
C865 C 0.16892 0.76364 0.54161 0.0
C866 C 0.16101 0.74969 0.5331 0.0
C867 C 0.16268 0.74181 0.48645 0.0
H868 H 0.50107 0.92399 0.94383 0.0
H869 H 0.45374 0.91808 0.89525 0.0
H870 H 0.51007 0.91678 0.85864 0.0
H871 H 0.46279 0.91098 0.80829 0.0
H872 H 0.48986 0.93359 0.66327 0.0
H873 H 0.47592 0.92842 0.74283 0.0
H874 H 0.51179 0.89673 0.79003 0.0
H875 H 0.52592 0.90203 0.71054 0.0
C876 C 0.49261 0.92081 0.91489 0.0
C877 C 0.47675 0.92173 0.92558 0.0
C878 C 0.49775 0.91651 0.86622 0.0
C879 C 0.48714 0.91327 0.82674 0.0
C880 C 0.47121 0.9134 0.83812 0.0
C881 C 0.46603 0.91743 0.88762 0.0
C882 C 0.49459 0.92518 0.6899 0.0
C883 C 0.50922 0.91857 0.68132 0.0
C884 C 0.48649 0.9221 0.73531 0.0
C885 C 0.4929 0.91238 0.77302 0.0
C886 C 0.50669 0.90444 0.76184 0.0
C887 C 0.51478 0.90749 0.71631 0.0
H888 H 0.34691 0.28605 0.08723 0.0
H889 H 0.32771 0.24248 0.03688 0.0
H890 H 0.35188 0.27485 0.1724 0.0
H891 H 0.3326 0.23143 0.12143 0.0
H892 H 0.34772 0.21349 0.27608 0.0
H893 H 0.35206 0.22409 0.1896 0.0
H894 H 0.3316 0.26732 0.23733 0.0
H895 H 0.32729 0.25687 0.32291 0.0
C896 C 0.34408 0.27402 0.09401 0.0
C897 C 0.33665 0.26521 0.05595 0.0
C898 C 0.3469 0.26764 0.14262 0.0
C899 C 0.34251 0.25233 0.15346 0.0
C900 C 0.3362 0.24321 0.11405 0.0
C901 C 0.33324 0.24961 0.06583 0.0
C902 C 0.34432 0.22529 0.26808 0.0
C903 C 0.33695 0.23427 0.3059 0.0
C904 C 0.34684 0.23135 0.2188 0.0
C905 C 0.34223 0.24654 0.207 0.0
C906 C 0.33549 0.25567 0.24555 0.0
C907 C 0.33282 0.24959 0.29438 0.0
H908 H 0.03018 0.08826 0.42622 0.0
H909 H 0.03203 0.03971 0.3886 0.0
H910 H 0.0219 0.09405 0.33762 0.0
H911 H 0.02399 0.0454 0.30097 0.0
H912 H 0.01496 0.0569 0.14195 0.0
H913 H 0.03094 0.05854 0.21901 0.0
H914 H 0.99664 0.08756 0.2914 0.0
H915 H 0.98067 0.08611 0.21387 0.0
C916 C 0.02924 0.07891 0.39866 0.0
C917 C 0.03164 0.06353 0.41417 0.0
C918 C 0.02442 0.08221 0.34819 0.0
C919 C 0.0223 0.07019 0.31237 0.0
C920 C 0.0257 0.05495 0.32734 0.0
C921 C 0.03021 0.05166 0.37768 0.0
C922 C 0.011 0.064 0.17372 0.0
C923 C 0.99639 0.0711 0.17228 0.0
C924 C 0.02017 0.06492 0.21786 0.0
C925 C 0.0149 0.07291 0.26156 0.0
C926 C 1.00103 0.08134 0.25826 0.0
C927 C 0.99184 0.08046 0.21388 0.0
H928 H 0.84748 0.72923 0.00467 0.0
H929 H 0.82106 0.76787 0.94643 0.0
H930 H 0.8515 0.74309 0.08568 0.0
H931 H 0.82498 0.78157 0.0272 0.0
H932 H 0.834 0.80301 0.18361 0.0
H933 H 0.84216 0.79307 0.09877 0.0
H934 H 0.82875 0.74704 0.14533 0.0
H935 H 0.8205 0.75685 0.2282 0.0
C936 C 0.84295 0.74084 0.00851 0.0
C937 C 0.83359 0.74729 0.96992 0.0
C938 C 0.84527 0.74877 0.05479 0.0
C939 C 0.83834 0.76329 0.06287 0.0
C940 C 0.83049 0.77043 0.02201 0.0
C941 C 0.82809 0.76248 0.97598 0.0
C942 C 0.83302 0.79077 0.17554 0.0
C943 C 0.82635 0.78073 0.21177 0.0
C944 C 0.83773 0.78509 0.12737 0.0
C945 C 0.83621 0.76927 0.11577 0.0
C946 C 0.83033 0.75922 0.15337 0.0
C947 C 0.82536 0.7649 0.20058 0.0
H948 H 0.96657 0.04042 0.88882 0.0
H949 H 0.97015 0.08891 0.92602 0.0
H950 H 0.9749 0.04573 0.80125 0.0
H951 H 0.9787 0.09432 0.83743 0.0
H952 H 0.01978 0.08518 0.71475 0.0
H953 H 0.00367 0.08711 0.79184 0.0
H954 H 0.96887 0.05879 0.71898 0.0
H955 H 0.98501 0.05664 0.64243 0.0
C956 C 0.96881 0.0523 0.87777 0.0
C957 C 0.9678 0.06424 0.91415 0.0
C958 C 0.97349 0.05537 0.82746 0.0
C959 C 0.97749 0.07046 0.81239 0.0
C960 C 0.97573 0.08258 0.84806 0.0
C961 C 0.97075 0.07951 0.89852 0.0
C962 C 0.00849 0.07977 0.71459 0.0
C963 C 0.00383 0.07046 0.67301 0.0
C964 C 0.99922 0.08093 0.75871 0.0
C965 C 0.98513 0.07285 0.76177 0.0
C966 C 0.9798 0.06489 0.71807 0.0
C967 C 0.98906 0.06367 0.67422 0.0
H968 H 0.66049 0.27735 0.49526 0.0
H969 H 0.68379 0.23666 0.43811 0.0
H970 H 0.65456 0.26367 0.57545 0.0
H971 H 0.6781 0.22317 0.51791 0.0
H972 H 0.68426 0.24773 0.71866 0.0
H973 H 0.6757 0.25822 0.63713 0.0
H974 H 0.66125 0.2127 0.58841 0.0
H975 H 0.66987 0.20208 0.67174 0.0
C976 C 0.66388 0.26535 0.4991 0.0
C977 C 0.673 0.2582 0.46129 0.0
C978 C 0.6605 0.25752 0.54494 0.0
C979 C 0.66616 0.24246 0.55331 0.0
C980 C 0.67357 0.23473 0.51272 0.0
C981 C 0.67701 0.24256 0.46719 0.0
C982 C 0.67905 0.23996 0.6909 0.0
C983 C 0.67804 0.22405 0.70084 0.0
C984 C 0.67388 0.24603 0.64444 0.0
C985 C 0.66775 0.2363 0.60633 0.0
C986 C 0.66593 0.22045 0.61723 0.0
C987 C 0.67089 0.21437 0.66459 0.0
H988 H 0.51548 0.93626 0.15179 0.0
H989 H 0.47958 0.9099 0.22727 0.0
H990 H 0.53151 0.93435 0.22857 0.0
H991 H 0.49573 0.90809 0.30469 0.0
H992 H 0.53158 0.90545 0.43507 0.0
H993 H 0.52197 0.89994 0.3477 0.0
H994 H 0.52473 0.94855 0.31096 0.0
H995 H 0.53395 0.95399 0.39762 0.0
C996 C 0.51114 0.92977 0.18445 0.0
C997 C 0.49613 0.92353 0.184 0.0
C998 C 0.52035 0.92865 0.22831 0.0
C999 C 0.51475 0.92129 0.27273 0.0
C1000 C 0.50034 0.91378 0.27081 0.0
C1001 C 0.49107 0.91487 0.22663 0.0
C1002 C 0.53051 0.91483 0.40765 0.0
C1003 C 0.53346 0.93014 0.42278 0.0
C1004 C 0.52492 0.9117 0.358 0.0
C1005 C 0.52263 0.92381 0.32268 0.0
C1006 C 0.52655 0.93896 0.33713 0.0
C1007 C 0.53178 0.9421 0.38676 0.0
H1008 H 0.82172 0.2496 0.26414 0.0
H1009 H 0.84302 0.20587 0.30211 0.0
H1010 H 0.83012 0.26023 0.3457 0.0
H1011 H 0.85131 0.21664 0.38562 0.0
H1012 H 0.85126 0.2805 0.47966 0.0
H1013 H 0.85446 0.2671 0.39732 0.0
H1014 H 0.83423 0.22593 0.46289 0.0
H1015 H 0.83105 0.23923 0.54491 0.0
C1016 C 0.82824 0.24224 0.29003 0.0
C1017 C 0.8315 0.22682 0.27719 0.0
C1018 C 0.83329 0.24844 0.33642 0.0
C1019 C 0.84154 0.23932 0.37161 0.0
C1020 C 0.84507 0.22392 0.35876 0.0
C1021 C 0.84027 0.21776 0.31136 0.0
C1022 C 0.84802 0.26843 0.47697 0.0
C1023 C 0.84056 0.26101 0.51811 0.0
C1024 C 0.84984 0.26078 0.42993 0.0
C1025 C 0.84438 0.24557 0.42374 0.0
C1026 C 0.83858 0.23762 0.46666 0.0
C1027 C 0.83661 0.2453 0.51343 0.0
H1028 H 0.51627 0.06486 0.28196 0.0
H1029 H 0.47867 0.09488 0.23709 0.0
H1030 H 0.53034 0.07191 0.20466 0.0
H1031 H 0.49301 0.10221 0.15957 0.0
H1032 H 0.50607 0.07716 0.00352 0.0
H1033 H 0.49626 0.08422 0.08762 0.0
H1034 H 0.54305 0.08979 0.14331 0.0
H1035 H 0.55293 0.08266 0.05753 0.0
C1036 C 0.51118 0.07331 0.25619 0.0
C1037 C 0.49615 0.07894 0.26466 0.0
C1038 C 0.51938 0.07753 0.21216 0.0
C1039 C 0.51268 0.08743 0.17557 0.0
C1040 C 0.49835 0.09438 0.18685 0.0
C1041 C 0.49014 0.09017 0.23114 0.0
C1042 C 0.51426 0.08026 0.0334 0.0
C1043 C 0.53022 0.07909 0.02471 0.0
C1044 C 0.50864 0.08453 0.08148 0.0
C1045 C 0.51887 0.0875 0.12229 0.0
C1046 C 0.53491 0.08749 0.11253 0.0
C1047 C 0.54057 0.08343 0.0637 0.0
H1048 H 0.65763 0.73037 0.02603 0.0
H1049 H 0.68773 0.76728 0.07645 0.0
H1050 H 0.65289 0.74423 0.94564 0.0
H1051 H 0.68304 0.781 -0.00402 0.0
H1052 H 0.68186 0.75546 0.79548 0.0
H1053 H 0.67467 0.74643 0.8807 0.0
H1054 H 0.66501 0.79337 0.92739 0.0
H1055 H 0.67201 0.80246 0.84024 0.0
C1056 C 0.66285 0.74164 0.02076 0.0
C1057 C 0.6734 0.74752 0.05696 0.0
C1058 C 0.66011 0.74958 0.97473 0.0
C1059 C 0.66782 0.76354 0.9643 0.0
C1060 C 0.67693 0.77027 0.00301 0.0
C1061 C 0.67972 0.76231 0.04893 0.0
C1062 C 0.67792 0.76383 0.82363 0.0
C1063 C 0.67763 0.77964 0.81179 0.0
C1064 C 0.67362 0.75865 0.87226 0.0
C1065 C 0.66918 0.76919 0.9106 0.0
C1066 C 0.66832 0.78502 0.89832 0.0
C1067 C 0.67231 0.79021 0.84877 0.0
H1068 H 0.95783 0.91468 0.56492 0.0
H1069 H 0.00261 0.93314 0.5243 0.0
H1070 H 0.96855 0.90557 0.6476 0.0
H1071 H 0.01319 0.924 0.605 0.0
H1072 H 0.03295 0.90513 0.74118 0.0
H1073 H 0.01936 0.90076 0.65976 0.0
H1074 H 0.97835 0.92199 0.723 0.0
H1075 H 0.9918 0.92622 0.80406 0.0
C1076 C 0.96995 0.91657 0.57335 0.0
C1077 C 0.97932 0.92489 0.53895 0.0
C1078 C 0.97608 0.9113 0.62027 0.0
C1079 C 0.99174 0.91394 0.63241 0.0
C1080 C 1.00118 0.92151 0.59646 0.0
C1081 C 0.99503 0.92701 0.55055 0.0
C1082 C 0.02087 0.90831 0.73827 0.0
C1083 C 0.01355 0.91641 0.77824 0.0
C1084 C 0.0131 0.90582 0.69174 0.0
C1085 C 0.99791 0.91131 0.68487 0.0
C1086 C 0.99003 0.91762 0.72715 0.0
C1087 C 0.99781 0.9202 0.77339 0.0
H1088 H 0.663 0.77624 0.51061 0.0
H1089 H 0.68925 0.7405 0.58733 0.0
H1090 H 0.66113 0.75988 0.43378 0.0
H1091 H 0.68724 0.72424 0.51115 0.0
H1092 H 0.70761 0.72216 0.34273 0.0
H1093 H 0.70171 0.73097 0.42949 0.0
H1094 H 0.65325 0.73378 0.39024 0.0
H1095 H 0.65924 0.72458 0.30274 0.0
C1096 C 0.6679 0.76472 0.51169 0.0
C1097 C 0.67659 0.75978 0.55438 0.0
C1098 C 0.66677 0.75534 0.46785 0.0
C1099 C 0.67427 0.74091 0.46638 0.0
C1100 C 0.68156 0.7354 0.51105 0.0
C1101 C 0.68273 0.74475 0.55456 0.0
C1102 C 0.69565 0.72423 0.35307 0.0
C1103 C 0.68388 0.72272 0.31631 0.0
C1104 C 0.69224 0.72921 0.40277 0.0
C1105 C 0.67701 0.73306 0.41654 0.0
C1106 C 0.66508 0.73088 0.38048 0.0
C1107 C 0.66848 0.72553 0.33075 0.0
H1108 H 0.49237 0.38035 0.6611 0.0
H1109 H 0.45681 0.40929 0.59639 0.0
H1110 H 0.50186 0.37445 0.57482 0.0
H1111 H 0.46678 0.40455 0.5107 0.0
H1112 H 0.48983 0.40329 0.36335 0.0
H1113 H 0.47504 0.39327 0.43593 0.0
H1114 H 0.51724 0.39017 0.52521 0.0
H1115 H 0.53194 0.39906 0.45131 0.0
C1116 C 0.48617 0.38487 0.62806 0.0
C1117 C 0.47391 0.39526 0.63493 0.0
C1118 C 0.49178 0.38177 0.57863 0.0
C1119 C 0.48558 0.38954 0.53562 0.0
C1120 C 0.47198 0.39831 0.54242 0.0
C1121 C 0.46614 0.40104 0.59175 0.0
C1122 C 0.49591 0.40007 0.39828 0.0
C1123 C 0.51196 0.40221 0.40232 0.0
C1124 C 0.48744 0.39439 0.43999 0.0
C1125 C 0.49478 0.39121 0.48724 0.0
C1126 C 0.51106 0.39227 0.48964 0.0
C1127 C 0.51956 0.39755 0.44737 0.0
H1128 H 0.84349 0.29637 0.81177 0.0
H1129 H 0.83619 0.24967 0.75871 0.0
H1130 H 0.85078 0.28633 0.89724 0.0
H1131 H 0.84342 0.23973 0.84249 0.0
H1132 H 0.85565 0.22198 0.99069 0.0
H1133 H 0.86233 0.23617 0.91221 0.0
H1134 H 0.83306 0.27394 0.96058 0.0
H1135 H 0.82665 0.26 0.03882 0.0
C1136 C 0.84385 0.284 0.81808 0.0
C1137 C 0.839 0.27377 0.77941 0.0
C1138 C 0.84801 0.27825 0.86672 0.0
C1139 C 0.84765 0.26223 0.8766 0.0
C1140 C 0.84405 0.25209 0.83618 0.0
C1141 C 0.83967 0.2578 0.78832 0.0
C1142 C 0.85104 0.23351 0.98522 0.0
C1143 C 0.84027 0.23969 0.02002 0.0
C1144 C 0.85487 0.24164 0.94038 0.0
C1145 C 0.848 0.25605 0.92986 0.0
C1146 C 0.8386 0.2629 0.96752 0.0
C1147 C 0.83474 0.25479 0.0121 0.0
H1148 H 0.98592 0.57482 0.31322 0.0
H1149 H 0.02193 0.60106 0.23794 0.0
H1150 H 0.96987 0.57699 0.23644 0.0
H1151 H 0.00587 0.60303 0.16066 0.0
H1152 H 0.97239 0.60442 0.02571 0.0
H1153 H 0.98084 0.61067 0.11389 0.0
H1154 H 0.97615 0.56258 0.15598 0.0
H1155 H 0.96804 0.55644 0.06876 0.0
C1156 C 0.99026 0.58139 0.28074 0.0
C1157 C 0.00533 0.58746 0.28117 0.0
C1158 C 0.98105 0.58263 0.23679 0.0
C1159 C 0.98674 0.5899 0.19225 0.0
C1160 C 1.00116 0.59739 0.19447 0.0
C1161 C 0.01039 0.59621 0.23869 0.0
C1162 C 0.97277 0.59534 0.05445 0.0
C1163 C 0.96964 0.57995 0.04069 0.0
C1164 C 0.97768 0.59888 0.10463 0.0
C1165 C 0.97914 0.58713 0.14182 0.0
C1166 C 0.97495 0.57195 0.12854 0.0
C1167 C 0.97039 0.56839 0.07849 0.0
H1168 H 0.69501 0.24607 0.21653 0.0
H1169 H 0.6734 0.2897 0.17906 0.0
H1170 H 0.68689 0.23557 0.13439 0.0
H1171 H 0.66542 0.27906 0.09511 0.0
H1172 H 0.66563 0.21557 -0.00047 0.0
H1173 H 0.66245 0.22875 0.08229 0.0
H1174 H 0.68286 0.27002 0.01809 0.0
H1175 H 0.68606 0.25693 0.93569 0.0
C1176 C 0.68849 0.25343 0.19064 0.0
C1177 C 0.68504 0.26879 0.2038 0.0
C1178 C 0.68362 0.24731 0.14393 0.0
C1179 C 0.67535 0.25644 0.10881 0.0
C1180 C 0.67167 0.27178 0.12193 0.0
C1181 C 0.6763 0.27786 0.16957 0.0
C1182 C 0.66893 0.22761 0.00264 0.0
C1183 C 0.67644 0.23513 0.96177 0.0
C1184 C 0.66712 0.23513 0.04989 0.0
C1185 C 0.67262 0.2503 0.05653 0.0
C1186 C 0.67849 0.25835 0.01392 0.0
C1187 C 0.68046 0.2508 0.96695 0.0
H1188 H 0.9615 0.46044 0.39008 0.0
H1189 H 0.96553 0.41198 0.42689 0.0
H1190 H 0.96885 0.4552 0.30162 0.0
H1191 H 0.97306 0.40658 0.33724 0.0
H1192 H 0.01376 0.41578 0.2144 0.0
H1193 H 0.99748 0.41348 0.29079 0.0
H1194 H 0.96319 0.44279 0.21936 0.0
H1195 H 0.97961 0.4454 0.14356 0.0
C1196 C 0.96355 0.44857 0.37867 0.0
C1197 C 0.96306 0.43663 0.41519 0.0
C1198 C 0.96767 0.44552 0.32783 0.0
C1199 C 0.9716 0.43046 0.31234 0.0
C1200 C 0.97016 0.41831 0.34815 0.0
C1201 C 0.96576 0.42136 0.39923 0.0
C1202 C 0.00255 0.42136 0.21438 0.0
C1203 C 0.99815 0.4311 0.17352 0.0
C1204 C 0.99316 0.41997 0.25809 0.0
C1205 C 0.97918 0.42821 0.2615 0.0
C1206 C 0.97406 0.43656 0.21827 0.0
C1207 C 0.98347 0.43805 0.17485 0.0
H1208 H 0.83707 0.71007 0.67992 0.0
H1209 H 0.82695 0.75662 0.72928 0.0
H1210 H 0.84432 0.72 0.59419 0.0
H1211 H 0.83423 0.76645 0.64538 0.0
H1212 H 0.84791 0.78407 0.4989 0.0
H1213 H 0.85434 0.77018 0.57812 0.0
H1214 H 0.82624 0.7317 0.52847 0.0
H1215 H 0.82001 0.74539 0.44943 0.0
C1216 C 0.83676 0.7224 0.67273 0.0
C1217 C 0.83117 0.73259 0.71042 0.0
C1218 C 0.84092 0.72808 0.624 0.0
C1219 C 0.83988 0.744 0.61319 0.0
C1220 C 0.8354 0.75417 0.65256 0.0
C1221 C 0.831 0.74851 0.70043 0.0
C1222 C 0.84352 0.77246 0.50422 0.0
C1223 C 0.83308 0.766 0.46884 0.0
C1224 C 0.84722 0.7645 0.54946 0.0
C1225 C 0.84057 0.74998 0.55978 0.0
C1226 C 0.83158 0.74284 0.52161 0.0
C1227 C 0.82783 0.7508 0.47659 0.0
H1228 H 0.53609 0.61189 0.04149 0.0
H1229 H 0.4977 0.57994 0.04756 0.0
H1230 H 0.52327 0.62582 0.97103 0.0
H1231 H 0.48521 0.5935 0.97811 0.0
H1232 H 0.46226 0.61338 0.85738 0.0
H1233 H 0.47263 0.61632 0.94439 0.0
H1234 H 0.51891 0.61846 0.88198 0.0
H1235 H 0.50851 0.6161 0.79569 0.0
C1236 C 0.52493 0.6079 0.02808 0.0
C1237 C 0.51807 0.59462 0.04939 0.0
C1238 C 0.51753 0.61594 0.98813 0.0
C1239 C 0.50312 0.61091 0.96925 0.0
C1240 C 0.49608 0.59801 -0.00769 0.0
C1241 C 0.50345 0.58999 0.03165 0.0
C1242 C 0.47454 0.61542 0.86218 0.0
C1243 C 0.48468 0.61393 0.82034 0.0
C1244 C 0.48052 0.61695 0.91202 0.0
C1245 C 0.49664 0.61685 0.92012 0.0
C1246 C 0.50647 0.61832 0.87734 0.0
C1247 C 0.5005 0.61688 0.82771 0.0
H1248 H 0.35963 0.2092 0.60221 0.0
H1249 H 0.36052 0.25543 0.53992 0.0
H1250 H 0.36326 0.2197 0.68874 0.0
H1251 H 0.36357 0.26594 0.62579 0.0
H1252 H 0.35816 0.2832 0.78529 0.0
H1253 H 0.37179 0.27058 0.7138 0.0
H1254 H 0.34056 0.2317 0.72524 0.0
H1255 H 0.32732 0.24401 0.79568 0.0
C1256 C 0.3614 0.22152 0.60668 0.0
C1257 C 0.35922 0.23158 0.56497 0.0
C1258 C 0.36334 0.22757 0.65626 0.0
C1259 C 0.36294 0.24368 0.66427 0.0
C1260 C 0.36369 0.2535 0.62127 0.0
C1261 C 0.36184 0.24747 0.57189 0.0
C1262 C 0.35437 0.2719 0.77263 0.0
C1263 C 0.34145 0.26477 0.79536 0.0
C1264 C 0.36224 0.26462 0.73208 0.0
C1265 C 0.35738 0.25006 0.71404 0.0
C1266 C 0.34492 0.24272 0.73868 0.0
C1267 C 0.33706 0.24998 0.77859 0.0
H1268 H 0.51086 0.58535 0.57794 0.0
H1269 H 0.46617 0.60172 0.52706 0.0
H1270 H 0.52108 0.58878 0.49168 0.0
H1271 H 0.47655 0.60522 0.4398 0.0
H1272 H 0.49615 0.57892 0.29303 0.0
H1273 H 0.48499 0.58492 0.37653 0.0
H1274 H 0.52738 0.60763 0.42156 0.0
H1275 H 0.53869 0.6015 0.33748 0.0
C1276 C 0.50325 0.58985 0.54834 0.0
C1277 C 0.48763 0.59301 0.55893 0.0
C1278 C 0.50919 0.59203 0.49907 0.0
C1279 C 0.49962 0.59729 0.45912 0.0
C1280 C 0.48415 0.6011 0.47004 0.0
C1281 C 0.47822 0.59909 0.51978 0.0
C1282 C 0.50304 0.58539 0.32042 0.0
C1283 C 0.51841 0.58947 0.30923 0.0
C1284 C 0.49656 0.589 0.36801 0.0
C1285 C 0.50535 0.59666 0.40553 0.0
C1286 C 0.52041 0.6016 0.39328 0.0
C1287 C 0.52687 0.59811 0.3453 0.0
H1288 H 0.15704 0.72601 0.20102 0.0
H1289 H 0.20508 0.71956 0.16158 0.0
H1290 H 0.15195 0.73576 0.11351 0.0
H1291 H 0.20006 0.72895 0.0749 0.0
H1292 H 0.18904 0.74048 0.91748 0.0
H1293 H 0.18572 0.72408 -0.00713 0.0
H1294 H 0.16154 0.76099 0.07054 0.0
H1295 H 0.16467 0.77745 -0.00564 0.0
C1296 C 0.16635 0.72618 0.17309 0.0
C1297 C 0.18144 0.72207 0.1877 0.0
C1298 C 0.16348 0.73185 0.12335 0.0
C1299 C 0.1756 0.73311 0.08747 0.0
C1300 C 0.19043 0.72794 0.1014 0.0
C1301 C 0.19334 0.72261 0.15107 0.0
C1302 C 0.18268 0.74499 0.95015 0.0
C1303 C 0.17742 0.76036 0.95057 0.0
C1304 C 0.18075 0.73558 -0.00677 0.0
C1305 C 0.17362 0.74135 0.03782 0.0
C1306 C 0.16703 0.75622 0.03657 0.0
C1307 C 0.16889 0.76567 -0.0069 0.0
H1308 H 0.01293 0.44308 0.6434 0.0
H1309 H 0.97689 0.41609 0.7156 0.0
H1310 H 0.02863 0.44079 0.72094 0.0
H1311 H 0.99259 0.41398 0.79352 0.0
H1312 H 0.02523 0.41212 0.93001 0.0
H1313 H 0.01731 0.40632 0.84102 0.0
H1314 H 0.02208 0.45463 0.80203 0.0
H1315 H 0.02972 0.46033 0.89005 0.0
C1316 C 0.0085 0.43632 0.67534 0.0
C1317 C 0.9935 0.43008 0.67381 0.0
C1318 C 0.01751 0.43502 0.71974 0.0
C1319 C 0.01171 0.42748 0.76361 0.0
C1320 C 0.99739 0.41984 0.76027 0.0
C1321 C 0.98836 0.42111 0.71565 0.0
C1322 C 0.02497 0.42136 0.90184 0.0
C1323 C 0.02798 0.43668 0.91674 0.0
C1324 C 0.02037 0.41807 0.85116 0.0
C1325 C 0.01907 0.43002 0.81458 0.0
C1326 C 0.02315 0.44513 0.829 0.0
C1327 C 0.02743 0.44843 0.87954 0.0
H1328 H 0.31659 0.74333 0.08877 0.0
H1329 H 0.34301 0.78155 0.02742 0.0
H1330 H 0.31916 0.72975 0.00681 0.0
H1331 H 0.34545 0.76792 0.94547 0.0
H1332 H 0.31057 0.7552 0.80999 0.0
H1333 H 0.3192 0.76427 0.89365 0.0
H1334 H 0.33745 0.71901 0.9283 0.0
H1335 H 0.32912 0.70988 0.84249 0.0
C1336 C 0.3234 0.7486 0.05845 0.0
C1337 C 0.32926 0.76368 0.06406 0.0
C1338 C 0.32498 0.74074 0.01169 0.0
C1339 C 0.33231 0.74792 0.96984 0.0
C1340 C 0.33967 0.76222 0.97728 0.0
C1341 C 0.33825 0.77001 0.02419 0.0
C1342 C 0.31653 0.74717 0.83516 0.0
C1343 C 0.31902 0.7318 0.82014 0.0
C1344 C 0.32166 0.75243 0.88277 0.0
C1345 C 0.32915 0.74238 0.91702 0.0
C1346 C 0.33183 0.72699 0.90214 0.0
C1347 C 0.32703 0.72178 0.85343 0.0
H1348 H 0.97852 0.59884 0.73576 0.0
H1349 H 0.01591 0.57491 0.81216 0.0
H1350 H 0.99449 0.6014 0.6584 0.0
H1351 H 0.03184 0.57765 0.73534 0.0
H1352 H 0.03549 0.55726 0.56777 0.0
H1353 H 0.02672 0.56287 0.65473 0.0
H1354 H 0.01915 0.61056 0.61238 0.0
H1355 H 0.02826 0.60486 0.52453 0.0
C1356 C 0.9903 0.5946 0.73668 0.0
C1357 C 0.99583 0.58635 0.77961 0.0
C1358 C 0.99948 0.59612 0.69243 0.0
C1359 C 0.01431 0.58948 0.69059 0.0
C1360 C 0.02035 0.58265 0.73539 0.0
C1361 C 0.01121 0.58108 0.77937 0.0
C1362 C 0.03239 0.56904 0.57744 0.0
C1363 C 0.03254 0.58062 0.53965 0.0
C1364 C 0.02743 0.57229 0.62732 0.0
C1365 C 0.02222 0.58717 0.6404 0.0
C1366 C 0.02308 0.599 0.60327 0.0
C1367 C 0.02839 0.59578 0.55329 0.0
H1368 H 0.16002 0.29319 0.27742 0.0
H1369 H 0.1366 0.25846 0.18771 0.0
H1370 H 0.15091 0.28107 0.35646 0.0
H1371 H 0.12691 0.24643 0.2667 0.0
H1372 H 0.14728 0.21696 0.40499 0.0
H1373 H 0.14114 0.23114 0.32657 0.0
H1374 H 0.13228 0.27221 0.41685 0.0
H1375 H 0.13919 0.25807 0.49482 0.0
C1376 C 0.15227 0.28338 0.27483 0.0
C1377 C 0.14893 0.27672 0.22706 0.0
C1378 C 0.14697 0.2764 0.32005 0.0
C1379 C 0.13828 0.26261 0.31804 0.0
C1380 C 0.13375 0.25687 0.26966 0.0
C1381 C 0.13917 0.26381 0.2245 0.0
C1382 C 0.14333 0.2288 0.40812 0.0
C1383 C 0.14393 0.23654 0.45547 0.0
C1384 C 0.13979 0.237 0.36316 0.0
C1385 C 0.13665 0.25299 0.36526 0.0
C1386 C 0.1351 0.26005 0.41374 0.0
C1387 C 0.1389 0.25193 0.45843 0.0
H1388 H 0.52563 0.39138 0.14709 0.0
H1389 H 0.53081 0.44033 0.11995 0.0
H1390 H 0.51601 0.3881 0.05827 0.0
H1391 H 0.52161 0.43708 0.03205 0.0
H1392 H 0.51601 0.42602 0.86712 0.0
H1393 H 0.52961 0.42326 0.94851 0.0
H1394 H 0.49042 0.39921 0.01308 0.0
H1395 H 0.4766 0.40192 0.93103 0.0
C1396 C 0.52507 0.40131 0.12172 0.0
C1397 C 0.52891 0.4161 0.13994 0.0
C1398 C 0.51949 0.39947 0.07133 0.0
C1399 C 0.51812 0.41234 0.03855 0.0
C1400 C 0.5227 0.42695 0.05636 0.0
C1401 C 0.52791 0.42882 0.10663 0.0
C1402 C 0.51029 0.41996 0.89831 0.0
C1403 C 0.49507 0.41446 0.89293 0.0
C1404 C 0.51815 0.41834 0.94481 0.0
C1405 C 0.51101 0.41113 0.98696 0.0
C1406 C 0.49619 0.40473 0.98089 0.0
C1407 C 0.48825 0.4064 0.93416 0.0
H1408 H 0.14367 0.34801 0.06138 0.0
H1409 H 0.10308 0.31971 0.08439 0.0
H1410 H 0.12748 0.37105 0.05945 0.0
H1411 H 0.08687 0.34272 0.08133 0.0
H1412 H 0.06441 0.38842 0.12836 0.0
H1413 H 0.0809 0.36557 0.13152 0.0
H1414 H 0.1084 0.38386 0.00652 0.0
H1415 H 0.09215 0.40682 0.00412 0.0
C1416 C 0.13129 0.34668 0.06564 0.0
C1417 C 0.12468 0.332 0.07308 0.0
C1418 C 0.12199 0.3599 0.06432 0.0
C1419 C 0.10586 0.35876 0.07034 0.0
C1420 C 0.09926 0.34406 0.07737 0.0
C1421 C 0.10856 0.33084 0.07873 0.0
C1422 C 0.074 0.38759 0.10168 0.0
C1423 C 0.07696 0.39947 0.06601 0.0
C1424 C 0.0834 0.37444 0.10325 0.0
C1425 C 0.09596 0.37284 0.06917 0.0
C1426 C 0.09895 0.38478 0.03376 0.0
C1427 C 0.08957 0.39793 0.03222 0.0
H1428 H 0.86002 0.84054 0.32582 0.0
H1429 H 0.85676 0.84276 0.49189 0.0
H1430 H 0.87946 0.86093 0.327 0.0
H1431 H 0.87644 0.86291 0.49312 0.0
H1432 H 0.89975 0.90985 0.47176 0.0
H1433 H 0.88006 0.88974 0.46952 0.0
H1434 H 0.90604 0.86551 0.35246 0.0
H1435 H 0.92559 0.88581 0.3539 0.0
C1436 C 0.86349 0.84533 0.36262 0.0
C1437 C 0.8568 0.84002 0.40877 0.0
C1438 C 0.87471 0.85696 0.36331 0.0
C1439 C 0.87953 0.86357 0.41015 0.0
C1440 C 0.87285 0.85824 0.4563 0.0
C1441 C 0.86162 0.84661 0.45561 0.0
C1442 C 0.90127 0.90025 0.44545 0.0
C1443 C 0.91426 0.89946 0.413 0.0
C1444 C 0.89001 0.88866 0.44441 0.0
C1445 C 0.89147 0.87597 0.41091 0.0
C1446 C 0.90444 0.87521 0.37828 0.0
C1447 C 0.9157 0.88682 0.37931 0.0
H1448 H 0.34648 0.65623 0.58507 0.0
H1449 H 0.36213 0.68589 0.70851 0.0
H1450 H 0.36778 0.63843 0.60297 0.0
H1451 H 0.38341 0.66824 0.72585 0.0
H1452 H 0.4085 0.62508 0.78137 0.0
H1453 H 0.38701 0.64222 0.76102 0.0
H1454 H 0.3963 0.63669 0.59849 0.0
H1455 H 0.41775 0.61936 0.61877 0.0
C1456 C 0.3545 0.65901 0.61577 0.0
C1457 C 0.35255 0.67247 0.64544 0.0
C1458 C 0.36673 0.64884 0.6259 0.0
C1459 C 0.37723 0.65186 0.66608 0.0
C1460 C 0.37538 0.66543 0.69519 0.0
C1461 C 0.36323 0.67561 0.68496 0.0
C1462 C 0.40595 0.62745 0.74127 0.0
C1463 C 0.4149 0.62087 0.70173 0.0
C1464 C 0.39367 0.63736 0.72961 0.0
C1465 C 0.39 0.64091 0.67813 0.0
C1466 C 0.39876 0.63411 0.63852 0.0
C1467 C 0.4111 0.62423 0.65019 0.0
H1468 H 0.651 0.15902 0.97642 0.0
H1469 H 0.64814 0.16149 0.8103 0.0
H1470 H 0.63175 0.13846 0.97669 0.0
H1471 H 0.62916 0.14068 0.81051 0.0
H1472 H 0.58341 0.11489 0.83561 0.0
H1473 H 0.60271 0.13542 0.83451 0.0
H1474 H 0.62856 0.11169 0.9531 0.0
H1475 H 0.60909 0.09137 0.95507 0.0
C1476 C 0.64632 0.15513 0.93992 0.0
C1477 C 0.65111 0.16192 0.89335 0.0
C1478 C 0.63534 0.14326 0.94005 0.0
C1479 C 0.6289 0.13787 0.89361 0.0
C1480 C 0.63371 0.14467 0.84703 0.0
C1481 C 0.64467 0.15656 0.84691 0.0
C1482 C 0.59323 0.11403 0.86137 0.0
C1483 C 0.59467 0.10149 0.89551 0.0
C1484 C 0.60434 0.12577 0.86056 0.0
C1485 C 0.61719 0.12525 0.89381 0.0
C1486 C 0.6187 0.11261 0.92755 0.0
C1487 C 0.60757 0.10089 0.92842 0.0
H1488 H 0.08123 0.62056 0.40847 0.0
H1489 H 0.08824 0.61305 0.24548 0.0
H1490 H 0.10262 0.63887 0.40933 0.0
H1491 H 0.10939 0.63166 0.24607 0.0
H1492 H 0.15726 0.65173 0.27773 0.0
H1493 H 0.13547 0.63393 0.27726 0.0
H1494 H 0.11052 0.66415 0.38049 0.0
H1495 H 0.13251 0.68181 0.38195 0.0
C1496 C 0.08723 0.62292 0.37268 0.0
C1497 C 0.08303 0.61527 0.32693 0.0
C1498 C 0.09947 0.63349 0.37313 0.0
C1499 C 0.1078 0.63673 0.32782 0.0
C1500 C 0.10342 0.62927 0.28189 0.0
C1501 C 0.0912 0.61866 0.28146 0.0
C1502 C 0.14714 0.65458 0.30045 0.0
C1503 C 0.14666 0.66821 0.32992 0.0
C1504 C 0.13458 0.64442 0.29986 0.0
C1505 C 0.12117 0.64761 0.32862 0.0
C1506 C 0.12071 0.66122 0.35832 0.0
C1507 C 0.13331 0.67138 0.35899 0.0
H1508 H 0.65077 0.84618 0.53845 0.0
H1509 H 0.63714 0.82905 0.68824 0.0
H1510 H 0.63017 0.8654 0.54217 0.0
H1511 H 0.61642 0.84809 0.69152 0.0
H1512 H 0.59304 0.89564 0.70441 0.0
H1513 H 0.61321 0.87598 0.70017 0.0
H1514 H 0.60201 0.86757 0.54035 0.0
H1515 H 0.58201 0.88738 0.54427 0.0
C1516 C 0.64333 0.84644 0.57202 0.0
C1517 C 0.64564 0.83608 0.61307 0.0
C1518 C 0.63146 0.85742 0.57404 0.0
C1519 C 0.62165 0.85831 0.61721 0.0
C1520 C 0.62389 0.84786 0.65803 0.0
C1521 C 0.63573 0.83687 0.65597 0.0
C1522 C 0.59485 0.88958 0.66838 0.0
C1523 C 0.58591 0.89312 0.62468 0.0
C1524 C 0.60637 0.87825 0.66603 0.0
C1525 C 0.60924 0.8702 0.61989 0.0
C1526 C 0.60024 0.87369 0.57629 0.0
C1527 C 0.5887 0.88499 0.57866 0.0
H1528 H 0.42195 0.3898 0.87718 0.0
H1529 H 0.4024 0.38868 0.72395 0.0
H1530 H 0.4013 0.37291 0.90783 0.0
H1531 H 0.38206 0.37152 0.75413 0.0
H1532 H 0.33992 0.3512 0.82943 0.0
H1533 H 0.35936 0.37033 0.8064 0.0
H1534 H 0.39291 0.34647 0.9008 0.0
H1535 H 0.3733 0.32756 0.92503 0.0
C1536 C 0.41325 0.38597 0.85003 0.0
C1537 C 0.41384 0.39059 0.79808 0.0
C1538 C 0.40145 0.3762 0.86755 0.0
C1539 C 0.38999 0.37081 0.8335 0.0
C1540 C 0.39052 0.37562 0.7817 0.0
C1541 C 0.40227 0.3854 0.76426 0.0
C1542 C 0.3514 0.3501 0.84567 0.0
C1543 C 0.35507 0.33778 0.87885 0.0
C1544 C 0.36259 0.36103 0.83218 0.0
C1545 C 0.37777 0.35988 0.85126 0.0
C1546 C 0.38131 0.34782 0.88573 0.0
C1547 C 0.37008 0.33692 0.89946 0.0
H1548 H 0.86855 0.1684 0.17743 0.0
H1549 H 0.86262 0.15723 0.01628 0.0
H1550 H 0.8879 0.14803 0.18525 0.0
H1551 H 0.88177 0.13671 0.02437 0.0
H1552 H 0.92787 0.11185 0.04416 0.0
H1553 H 0.90941 0.13302 0.03772 0.0
H1554 H 0.88971 0.11988 0.18436 0.0
H1555 H 0.90836 0.09882 0.19128 0.0
C1556 C 0.87135 0.16159 0.14366 0.0
C1557 C 0.86402 0.16447 0.09619 0.0
C1558 C 0.88239 0.14985 0.14825 0.0
C1559 C 0.88639 0.14072 0.10547 0.0
C1560 C 0.87911 0.14365 0.05795 0.0
C1561 C 0.86806 0.15537 0.05337 0.0
C1562 C 0.91966 0.1135 0.0752 0.0
C1563 C 0.91959 0.1036 0.11823 0.0
C1564 C 0.909 0.12559 0.07131 0.0
C1565 C 0.89802 0.12811 0.11038 0.0
C1566 C 0.89811 0.11836 0.1538 0.0
C1567 C 0.90876 0.10624 0.15766 0.0
H1568 H 0.87183 0.6815 0.89058 0.0
H1569 H 0.84652 0.6542 0.77962 0.0
H1570 H 0.89297 0.66288 0.88793 0.0
H1571 H 0.86744 0.63538 0.77802 0.0
H1572 H 0.91413 0.61279 0.7473 0.0
H1573 H 0.89359 0.63208 0.7489 0.0
H1574 H 0.89946 0.63706 0.91349 0.0
H1575 H 0.92024 0.61812 0.91165 0.0
C1576 C 0.87072 0.67147 0.86591 0.0
C1577 C 0.85748 0.66936 0.8353 0.0
C1578 C 0.88282 0.66074 0.86455 0.0
C1579 C 0.88195 0.64761 0.83269 0.0
C1580 C 0.86864 0.64547 0.80235 0.0
C1581 C 0.85657 0.65622 0.80357 0.0
C1582 C 0.91108 0.61804 0.78379 0.0
C1583 C 0.91885 0.61389 0.82932 0.0
C1584 C 0.89922 0.62905 0.78478 0.0
C1585 C 0.8948 0.63612 0.83136 0.0
C1586 C 0.90267 0.63203 0.87681 0.0
C1587 C 0.91456 0.62108 0.87579 0.0
H1588 H 0.13568 0.1666 0.64166 0.0
H1589 H 0.13028 0.15921 0.47788 0.0
H1590 H 0.1178 0.14538 0.65883 0.0
H1591 H 0.11262 0.1379 0.49512 0.0
H1592 H 0.06888 0.11239 0.54255 0.0
H1593 H 0.08654 0.13388 0.52853 0.0
H1594 H 0.11577 0.11716 0.65151 0.0
H1595 H 0.09795 0.09571 0.66614 0.0
C1596 C 0.13075 0.16041 0.60931 0.0
C1597 C 0.13439 0.16464 0.55836 0.0
C1598 C 0.12055 0.1482 0.61919 0.0
C1599 C 0.11372 0.13999 0.57836 0.0
C1600 C 0.11748 0.14414 0.52746 0.0
C1601 C 0.1277 0.15631 0.51758 0.0
C1602 C 0.07902 0.11331 0.56686 0.0
C1603 C 0.08201 0.10227 0.60541 0.0
C1604 C 0.08921 0.12559 0.55854 0.0
C1605 C 0.10264 0.12718 0.5886 0.0
C1606 C 0.10548 0.11633 0.6279 0.0
C1607 C 0.09529 0.104 0.63616 0.0
H1608 H 0.60998 0.39732 0.24826 0.0
H1609 H 0.57746 0.37544 0.35163 0.0
H1610 H 0.62948 0.37816 0.27167 0.0
H1611 H 0.59686 0.35622 0.37438 0.0
H1612 H 0.64031 0.33403 0.4428 0.0
H1613 H 0.62142 0.35393 0.42066 0.0
H1614 H 0.63469 0.35056 0.26053 0.0
H1615 H 0.65369 0.33087 0.28263 0.0
C1616 C 0.60696 0.38841 0.27583 0.0
C1617 C 0.59214 0.38793 0.29801 0.0
C1618 C 0.61812 0.37738 0.28909 0.0
C1619 C 0.61474 0.36566 0.32498 0.0
C1620 C 0.59992 0.36521 0.34716 0.0
C1621 C 0.58876 0.37618 0.33379 0.0
C1622 C 0.63923 0.33756 0.4029 0.0
C1623 C 0.64851 0.33083 0.36453 0.0
C1624 C 0.62834 0.34891 0.39016 0.0
C1625 C 0.62653 0.35383 0.33879 0.0
C1626 C 0.63591 0.34718 0.30054 0.0
C1627 C 0.64675 0.33581 0.31322 0.0
H1628 H 0.35826 0.84204 0.0364 0.0
H1629 H 0.36152 0.83655 0.20164 0.0
H1630 H 0.37885 0.86129 0.03907 0.0
H1631 H 0.38228 0.85557 0.20413 0.0
H1632 H 0.40644 0.90283 0.19446 0.0
H1633 H 0.38624 0.88318 0.19249 0.0
H1634 H 0.4065 0.8636 0.05504 0.0
H1635 H 0.42654 0.88339 0.05643 0.0
C1636 C 0.36341 0.84488 0.07326 0.0
C1637 C 0.35821 0.83776 0.11879 0.0
C1638 C 0.37528 0.85585 0.07476 0.0
C1639 C 0.38223 0.85999 0.12183 0.0
C1640 C 0.37705 0.85281 0.16732 0.0
C1641 C 0.3652 0.84183 0.16582 0.0
C1642 C 0.40663 0.89431 0.16391 0.0
C1643 C 0.41811 0.89472 0.12556 0.0
C1644 C 0.39508 0.88299 0.16292 0.0
C1645 C 0.39472 0.87182 0.12353 0.0
C1646 C 0.4063 0.87215 0.0855 0.0
C1647 C 0.41786 0.88345 0.08652 0.0
H1648 H 0.92755 0.3889 0.6223 0.0
H1649 H 0.89433 0.41291 0.52706 0.0
H1650 H 0.91042 0.36652 0.62579 0.0
H1651 H 0.87709 0.39072 0.53153 0.0
H1652 H 0.8578 0.34253 0.50218 0.0
H1653 H 0.87522 0.36463 0.49973 0.0
H1654 H 0.88602 0.35774 0.66074 0.0
H1655 H 0.86886 0.3354 0.66289 0.0
C1656 C 0.91654 0.38946 0.60244 0.0
C1657 C 0.91234 0.40269 0.57426 0.0
C1658 C 0.90669 0.37664 0.60464 0.0
C1659 C 0.89239 0.37677 0.57875 0.0
C1660 C 0.88812 0.3901 0.55118 0.0
C1661 C 0.89798 0.40289 0.54892 0.0
C1662 C 0.86391 0.34569 0.53705 0.0
C1663 C 0.86191 0.33718 0.58272 0.0
C1664 C 0.87383 0.35845 0.53574 0.0
C1665 C 0.88199 0.36303 0.58011 0.0
C1666 C 0.88007 0.35444 0.62571 0.0
C1667 C 0.87016 0.34167 0.627 0.0
H1668 H 0.37262 0.15502 0.51932 0.0
H1669 H 0.36394 0.16562 0.35908 0.0
H1670 H 0.38977 0.13405 0.49351 0.0
H1671 H 0.38127 0.14476 0.33335 0.0
H1672 H 0.40171 0.09597 0.30935 0.0
H1673 H 0.38367 0.11641 0.33399 0.0
H1674 H 0.41518 0.13124 0.45328 0.0
H1675 H 0.43307 0.11078 0.42928 0.0
C1676 C 0.37434 0.15287 0.47859 0.0
C1677 C 0.36693 0.16204 0.4413 0.0
C1678 C 0.38425 0.1409 0.4638 0.0
C1679 C 0.38696 0.13779 0.41136 0.0
C1680 C 0.37934 0.14678 0.37405 0.0
C1681 C 0.36946 0.15878 0.38884 0.0
C1682 C 0.4048 0.10362 0.34075 0.0
C1683 C 0.41883 0.1017 0.36738 0.0
C1684 C 0.39448 0.11536 0.35474 0.0
C1685 C 0.39794 0.1254 0.39579 0.0
C1686 C 0.41204 0.12356 0.42204 0.0
C1687 C 0.42236 0.11188 0.40798 0.0
H1688 H 0.66424 0.65171 0.23304 0.0
H1689 H 0.63659 0.67952 0.12981 0.0
H1690 H 0.64312 0.63326 0.24077 0.0
H1691 H 0.61531 0.66119 0.13845 0.0
H1692 H 0.58615 0.61713 0.12641 0.0
H1693 H 0.6076 0.63513 0.11618 0.0
H1694 H 0.6177 0.63135 0.27883 0.0
H1695 H 0.59645 0.61309 0.28887 0.0
C1696 C 0.65365 0.6539 0.21198 0.0
C1697 C 0.65211 0.66712 0.18084 0.0
C1698 C 0.64149 0.64336 0.21672 0.0
C1699 C 0.62747 0.64577 0.1905 0.0
C1700 C 0.626 0.65889 0.15878 0.0
C1701 C 0.63818 0.66944 0.15399 0.0
C1702 C 0.59295 0.62012 0.16002 0.0
C1703 C 0.58958 0.61364 0.20848 0.0
C1704 C 0.6052 0.63052 0.15418 0.0
C1705 C 0.6144 0.6347 0.19665 0.0
C1706 C 0.611 0.62822 0.24513 0.0
C1707 C 0.59875 0.61781 0.25096 0.0
H1708 H 0.08546 0.89038 0.93865 0.0
H1709 H 0.09536 0.89425 0.77586 0.0
H1710 H 0.10588 0.87116 0.94745 0.0
H1711 H 0.11596 0.87519 0.7849 0.0
H1712 H 0.14012 0.82874 0.80992 0.0
H1713 H 0.11942 0.84767 0.80195 0.0
H1714 H 0.13403 0.86905 0.94429 0.0
H1715 H 0.15464 0.84995 0.95275 0.0
C1716 C 0.09201 0.88717 0.90473 0.0
C1717 C 0.08874 0.89386 0.8565 0.0
C1718 C 0.10379 0.87621 0.90988 0.0
C1719 C 0.11258 0.87163 0.86691 0.0
C1720 C 0.1093 0.87831 0.81867 0.0
C1721 C 0.09753 0.88931 0.81354 0.0
C1722 C 0.13891 0.83744 0.83965 0.0
C1723 C 0.14906 0.83781 0.88201 0.0
C1724 C 0.12709 0.84837 0.83487 0.0
C1725 C 0.12509 0.85992 0.87236 0.0
C1726 C 0.13515 0.86021 0.91497 0.0
C1727 C 0.14701 0.8493 0.91971 0.0
loop_
_geom_bond_atom_site_label_1
_geom_bond_atom_site_label_2
_geom_bond_distance
_geom_bond_site_symmetry_2
_ccdc_geom_bond_type
Zn0 O3 2.049 . S
Zn0 O5 2.049 . S
Zn0 O10 2.067 . S
Zn1 O2 1.962 . S
Zn1 O4 1.986 . S
Zn1 O6 1.996 . S
Zn1 O9 1.943 . S
O2 Zn1 1.962 . S
O2 C7 1.254 1_554 S
O3 Zn0 2.049 . S
O3 C7 1.264 1_554 S
O4 Zn1 1.986 . S
O4 C11 1.262 . S
O5 Zn0 2.049 . S
O5 C13 1.260 . S
O6 Zn1 1.996 . S
O6 C13 1.257 . S
C7 O2 1.254 1_556 S
C7 O3 1.264 1_556 S
C8 O9 1.249 . S
C8 O10 1.270 . S
O9 Zn1 1.943 . S
O9 C8 1.249 . S
O10 Zn0 2.067 . S
O10 C8 1.270 . S
C11 O4 1.262 . S
C11 O12 1.232 . S
O12 C11 1.232 . S
C13 O5 1.260 . S
C13 O6 1.257 . S
Zn14 O17 2.031 . S
Zn14 O19 2.049 . S
Zn14 O24 2.067 . S
Zn15 O16 1.962 . S
Zn15 O18 1.986 . S
Zn15 O20 1.996 . S
Zn15 O23 1.943 . S
O16 Zn15 1.962 . S
O16 C21 1.254 . S
O17 Zn14 2.031 . S
O17 C21 1.269 . S
O18 Zn15 1.986 . S
O18 C25 1.262 . S
O19 Zn14 2.049 . S
O19 C27 1.260 . S
O20 Zn15 1.996 . S
O20 C27 1.257 . S
C21 O16 1.254 . S
C21 O17 1.269 . S
C22 O23 1.249 . S
C22 O24 1.270 . S
O23 Zn15 1.943 . S
O23 C22 1.249 . S
O24 Zn14 2.067 . S
O24 C22 1.270 . S
C25 O18 1.262 . S
C25 O26 1.232 . S
O26 C25 1.232 . S
C27 O19 1.260 . S
C27 O20 1.257 . S
Zn28 O31 2.031 . S
Zn28 O33 2.049 . S
Zn28 O38 2.067 . S
Zn29 O30 1.962 . S
Zn29 O32 1.986 . S
Zn29 O34 1.996 . S
Zn29 O37 1.943 . S
O30 Zn29 1.962 . S
O30 C35 1.254 . S
O31 Zn28 2.031 . S
O31 C35 1.269 . S
O32 Zn29 1.986 . S
O32 C39 1.262 . S
O33 Zn28 2.049 . S
O33 C41 1.260 . S
O34 Zn29 1.996 . S
O34 C41 1.257 . S
C35 O30 1.254 . S
C35 O31 1.269 . S
C36 O37 1.249 . S
C36 O38 1.270 . S
O37 Zn29 1.943 . S
O37 C36 1.249 . S
O38 Zn28 2.067 . S
O38 C36 1.270 . S
C39 O32 1.262 . S
C39 O40 1.232 . S
O40 C39 1.232 . S
C41 O33 1.260 . S
C41 O34 1.257 . S
Zn42 O45 2.031 . S
Zn42 O47 2.049 . S
Zn42 O52 2.067 . S
Zn43 O44 1.962 . S
Zn43 O46 1.986 . S
Zn43 O48 1.996 . S
Zn43 O51 1.943 . S
O44 Zn43 1.962 . S
O44 C49 1.254 . S
O45 Zn42 2.031 . S
O45 C49 1.269 . S
O46 Zn43 1.986 . S
O46 C53 1.262 . S
O47 Zn42 2.049 . S
O47 C55 1.260 . S
O48 Zn43 1.996 . S
O48 C55 1.257 . S
C49 O44 1.254 . S
C49 O45 1.269 . S
C50 O51 1.249 . S
C50 O52 1.270 . S
O51 Zn43 1.943 . S
O51 C50 1.249 . S
O52 Zn42 2.067 . S
O52 C50 1.270 . S
C53 O46 1.262 . S
C53 O54 1.232 . S
O54 C53 1.232 . S
C55 O47 1.260 . S
C55 O48 1.257 . S
Zn56 O59 2.031 . S
Zn56 O61 2.049 . S
Zn56 O66 2.067 . S
Zn57 O58 1.962 . S
Zn57 O60 1.986 . S
Zn57 O62 1.996 . S
Zn57 O65 1.943 . S
O58 Zn57 1.962 . S
O58 C63 1.254 . S
O59 Zn56 2.031 . S
O59 C63 1.269 . S
O60 Zn57 1.986 . S
O60 C67 1.262 . S
O61 Zn56 2.049 . S
O61 C69 1.260 . S
O62 Zn57 1.996 . S
O62 C69 1.257 . S
C63 O58 1.254 . S
C63 O59 1.269 . S
C64 O65 1.249 . S
C64 O66 1.270 . S
O65 Zn57 1.943 . S
O65 C64 1.249 . S
O66 Zn56 2.067 . S
O66 C64 1.270 . S
C67 O60 1.262 . S
C67 O68 1.232 . S
O68 C67 1.232 . S
C69 O61 1.260 . S
C69 O62 1.257 . S
Zn70 O73 2.031 . S
Zn70 O75 2.049 . S
Zn70 O80 2.067 . S
Zn71 O72 1.962 . S
Zn71 O74 1.986 . S
Zn71 O76 1.996 . S
Zn71 O79 1.943 . S
O72 Zn71 1.962 . S
O72 C77 1.254 . S
O73 Zn70 2.031 . S
O73 C77 1.269 . S
O74 Zn71 1.986 . S
O74 C81 1.262 . S
O75 Zn70 2.049 . S
O75 C83 1.260 . S
O76 Zn71 1.996 . S
O76 C83 1.257 . S
C77 O72 1.254 . S
C77 O73 1.269 . S
C78 O79 1.249 . S
C78 O80 1.270 . S
O79 Zn71 1.943 . S
O79 C78 1.249 . S
O80 Zn70 2.067 . S
O80 C78 1.270 . S
C81 O74 1.262 . S
C81 O82 1.232 . S
O82 C81 1.232 . S
C83 O75 1.260 . S
C83 O76 1.257 . S
Zn84 O87 2.049 . S
Zn84 O89 2.049 . S
Zn84 O94 2.067 . S
Zn85 O86 1.962 . S
Zn85 O88 1.986 . S
Zn85 O90 1.996 . S
Zn85 O93 1.943 . S
O86 Zn85 1.962 . S
O86 C91 1.254 1_556 S
O87 Zn84 2.049 . S
O87 C91 1.264 1_556 S
O88 Zn85 1.986 . S
O88 C95 1.262 . S
O89 Zn84 2.049 . S
O89 C97 1.260 . S
O90 Zn85 1.996 . S
O90 C97 1.257 . S
C91 O86 1.254 1_554 S
C91 O87 1.264 1_554 S
C92 O93 1.249 . S
C92 O94 1.270 . S
O93 Zn85 1.943 . S
O93 C92 1.249 . S
O94 Zn84 2.067 . S
O94 C92 1.270 . S
C95 O88 1.262 . S
C95 O96 1.232 . S
O96 C95 1.232 . S
C97 O89 1.260 . S
C97 O90 1.257 . S
Zn98 O101 2.031 . S
Zn98 O103 2.049 . S
Zn98 O108 2.067 . S
Zn99 O100 1.962 . S
Zn99 O102 1.986 . S
Zn99 O104 1.996 . S
Zn99 O107 1.943 . S
O100 Zn99 1.962 . S
O100 C105 1.254 . S
O101 Zn98 2.031 . S
O101 C105 1.269 . S
O102 Zn99 1.986 . S
O102 C109 1.262 . S
O103 Zn98 2.049 . S
O103 C111 1.260 . S
O104 Zn99 1.996 . S
O104 C111 1.257 . S
C105 O100 1.254 . S
C105 O101 1.269 . S
C106 O107 1.249 . S
C106 O108 1.270 . S
O107 Zn99 1.943 . S
O107 C106 1.249 . S
O108 Zn98 2.067 . S
O108 C106 1.270 . S
C109 O102 1.262 . S
C109 O110 1.232 . S
O110 C109 1.232 . S
C111 O103 1.260 . S
C111 O104 1.257 . S
Zn112 O115 2.049 . S
Zn112 O117 2.049 . S
Zn112 O122 2.067 . S
Zn113 O114 1.962 . S
Zn113 O116 1.986 . S
Zn113 O118 1.996 . S
Zn113 O121 1.943 . S
O114 Zn113 1.962 . S
O114 C119 1.254 1_556 S
O115 Zn112 2.049 . S
O115 C119 1.264 1_556 S
O116 Zn113 1.986 . S
O116 C123 1.262 . S
O117 Zn112 2.049 . S
O117 C125 1.260 . S
O118 Zn113 1.996 . S
O118 C125 1.257 . S
C119 O114 1.254 1_554 S
C119 O115 1.264 1_554 S
C120 O121 1.249 . S
C120 O122 1.270 . S
O121 Zn113 1.943 . S
O121 C120 1.249 . S
O122 Zn112 2.067 . S
O122 C120 1.270 . S
C123 O116 1.262 . S
C123 O124 1.232 . S
O124 C123 1.232 . S
C125 O117 1.260 . S
C125 O118 1.257 . S
Zn126 O129 2.031 . S
Zn126 O131 2.049 . S
Zn126 O136 2.067 . S
Zn127 O128 1.962 . S
Zn127 O130 1.986 . S
Zn127 O132 1.996 . S
Zn127 O135 1.943 . S
O128 Zn127 1.962 . S
O128 C133 1.254 . S
O129 Zn126 2.031 . S
O129 C133 1.269 . S
O130 Zn127 1.986 . S
O130 C137 1.262 . S
O131 Zn126 2.049 . S
O131 C139 1.260 . S
O132 Zn127 1.996 . S
O132 C139 1.257 . S
C133 O128 1.254 . S
C133 O129 1.269 . S
C134 O135 1.249 . S
C134 O136 1.270 . S
O135 Zn127 1.943 . S
O135 C134 1.249 . S
O136 Zn126 2.067 . S
O136 C134 1.270 . S
C137 O130 1.262 . S
C137 O138 1.232 . S
O138 C137 1.232 . S
C139 O131 1.260 . S
C139 O132 1.257 . S
Zn140 O143 2.031 . S
Zn140 O145 2.049 . S
Zn140 O150 2.067 . S
Zn141 O142 1.962 . S
Zn141 O144 1.986 . S
Zn141 O146 1.996 . S
Zn141 O149 1.943 . S
O142 Zn141 1.962 . S
O142 C147 1.254 . S
O143 Zn140 2.031 . S
O143 C147 1.269 . S
O144 Zn141 1.986 . S
O144 C151 1.262 . S
O145 Zn140 2.049 . S
O145 C153 1.260 . S
O146 Zn141 1.996 . S
O146 C153 1.257 . S
C147 O142 1.254 . S
C147 O143 1.269 . S
C148 O149 1.249 . S
C148 O150 1.270 . S
O149 Zn141 1.943 . S
O149 C148 1.249 . S
O150 Zn140 2.067 . S
O150 C148 1.270 . S
C151 O144 1.262 . S
C151 O152 1.232 . S
O152 C151 1.232 . S
C153 O145 1.260 . S
C153 O146 1.257 . S
Zn154 O157 2.031 . S
Zn154 O159 2.049 . S
Zn154 O164 2.067 . S
Zn155 O156 1.962 . S
Zn155 O158 1.986 . S
Zn155 O160 1.996 . S
Zn155 O163 1.943 . S
O156 Zn155 1.962 . S
O156 C161 1.254 . S
O157 Zn154 2.031 . S
O157 C161 1.269 . S
O158 Zn155 1.986 . S
O158 C165 1.262 . S
O159 Zn154 2.049 . S
O159 C167 1.260 . S
O160 Zn155 1.996 . S
O160 C167 1.257 . S
C161 O156 1.254 . S
C161 O157 1.269 . S
C162 O163 1.249 . S
C162 O164 1.270 . S
O163 Zn155 1.943 . S
O163 C162 1.249 . S
O164 Zn154 2.067 . S
O164 C162 1.270 . S
C165 O158 1.262 . S
C165 O166 1.232 . S
O166 C165 1.232 . S
C167 O159 1.260 . S
C167 O160 1.257 . S
Zn168 O171 2.031 . S
Zn168 O173 2.049 . S
Zn168 O178 2.067 . S
Zn169 O170 1.962 . S
Zn169 O172 1.986 . S
Zn169 O174 1.996 . S
Zn169 O177 1.943 . S
O170 Zn169 1.962 . S
O170 C175 1.254 . S
O171 Zn168 2.031 . S
O171 C175 1.269 . S
O172 Zn169 1.986 . S
O172 C179 1.262 . S
O173 Zn168 2.049 . S
O173 C181 1.260 . S
O174 Zn169 1.996 . S
O174 C181 1.257 . S
C175 O170 1.254 . S
C175 O171 1.269 . S
C176 O177 1.249 . S
C176 O178 1.270 . S
O177 Zn169 1.943 . S
O177 C176 1.249 . S
O178 Zn168 2.067 . S
O178 C176 1.270 . S
C179 O172 1.262 . S
C179 O180 1.232 . S
O180 C179 1.232 . S
C181 O173 1.260 . S
C181 O174 1.257 . S
Zn182 O185 2.031 . S
Zn182 O187 2.049 . S
Zn182 O192 2.067 . S
Zn183 O184 1.962 . S
Zn183 O186 1.986 . S
Zn183 O188 1.996 . S
Zn183 O191 1.943 . S
O184 Zn183 1.962 . S
O184 C189 1.254 . S
O185 Zn182 2.031 . S
O185 C189 1.269 . S
O186 Zn183 1.986 . S
O186 C193 1.262 . S
O187 Zn182 2.049 . S
O187 C195 1.260 . S
O188 Zn183 1.996 . S
O188 C195 1.257 . S
C189 O184 1.254 . S
C189 O185 1.269 . S
C190 O191 1.249 . S
C190 O192 1.270 . S
O191 Zn183 1.943 . S
O191 C190 1.249 . S
O192 Zn182 2.067 . S
O192 C190 1.270 . S
C193 O186 1.262 . S
C193 O194 1.232 . S
O194 C193 1.232 . S
C195 O187 1.260 . S
C195 O188 1.257 . S
Zn196 O199 2.049 . S
Zn196 O201 2.049 . S
Zn196 O206 2.067 . S
Zn197 O198 1.962 . S
Zn197 O200 1.986 . S
Zn197 O202 1.996 . S
Zn197 O205 1.943 . S
O198 Zn197 1.962 . S
O198 C203 1.254 1_554 S
O199 Zn196 2.049 . S
O199 C203 1.264 1_554 S
O200 Zn197 1.986 . S
O200 C207 1.262 . S
O201 Zn196 2.049 . S
O201 C209 1.260 . S
O202 Zn197 1.996 . S
O202 C209 1.257 . S
C203 O198 1.254 1_556 S
C203 O199 1.264 1_556 S
C204 O205 1.249 . S
C204 O206 1.270 . S
O205 Zn197 1.943 . S
O205 C204 1.249 . S
O206 Zn196 2.067 . S
O206 C204 1.270 . S
C207 O200 1.262 . S
C207 O208 1.232 . S
O208 C207 1.232 . S
C209 O201 1.260 . S
C209 O202 1.257 . S
Zn210 O213 2.031 . S
Zn210 O215 2.049 . S
Zn210 O220 2.067 . S
Zn211 O212 1.962 . S
Zn211 O214 1.986 . S
Zn211 O216 1.996 . S
Zn211 O219 1.943 . S
O212 Zn211 1.962 . S
O212 C217 1.254 . S
O213 Zn210 2.031 . S
O213 C217 1.269 . S
O214 Zn211 1.986 . S
O214 C221 1.262 . S
O215 Zn210 2.049 . S
O215 C223 1.260 . S
O216 Zn211 1.996 . S
O216 C223 1.257 . S
C217 O212 1.254 . S
C217 O213 1.269 . S
C218 O219 1.249 . S
C218 O220 1.270 . S
O219 Zn211 1.943 . S
O219 C218 1.249 . S
O220 Zn210 2.067 . S
O220 C218 1.270 . S
C221 O214 1.262 . S
C221 O222 1.232 . S
O222 C221 1.232 . S
C223 O215 1.260 . S
C223 O216 1.257 . S
Zn224 O227 2.031 . S
Zn224 O229 2.049 . S
Zn224 O234 2.067 . S
Zn225 O226 1.962 . S
Zn225 O228 1.986 . S
Zn225 O230 1.996 . S
Zn225 O233 1.943 . S
O226 Zn225 1.962 . S
O226 C231 1.254 . S
O227 Zn224 2.031 . S
O227 C231 1.269 . S
O228 Zn225 1.986 . S
O228 C235 1.262 . S
O229 Zn224 2.049 . S
O229 C237 1.260 . S
O230 Zn225 1.996 . S
O230 C237 1.257 . S
C231 O226 1.254 . S
C231 O227 1.269 . S
C232 O233 1.249 . S
C232 O234 1.270 . S
O233 Zn225 1.943 . S
O233 C232 1.249 . S
O234 Zn224 2.067 . S
O234 C232 1.270 . S
C235 O228 1.262 . S
C235 O236 1.232 . S
O236 C235 1.232 . S
C237 O229 1.260 . S
C237 O230 1.257 . S
Zn238 O241 2.031 . S
Zn238 O243 2.049 . S
Zn238 O248 2.067 . S
Zn239 O240 1.962 . S
Zn239 O242 1.986 . S
Zn239 O244 1.996 . S
Zn239 O247 1.943 . S
O240 Zn239 1.962 . S
O240 C245 1.254 . S
O241 Zn238 2.031 . S
O241 C245 1.269 . S
O242 Zn239 1.986 . S
O242 C249 1.262 . S
O243 Zn238 2.049 . S
O243 C251 1.260 . S
O244 Zn239 1.996 . S
O244 C251 1.257 . S
C245 O240 1.254 . S
C245 O241 1.269 . S
C246 O247 1.249 . S
C246 O248 1.270 . S
O247 Zn239 1.943 . S
O247 C246 1.249 . S
O248 Zn238 2.067 . S
O248 C246 1.270 . S
C249 O242 1.262 . S
C249 O250 1.232 . S
O250 C249 1.232 . S
C251 O243 1.260 . S
C251 O244 1.257 . S
Zn252 O255 2.049 . S
Zn252 O257 2.049 . S
Zn252 O262 2.067 . S
Zn253 O254 1.962 . S
Zn253 O256 1.986 . S
Zn253 O258 1.996 . S
Zn253 O261 1.943 . S
O254 Zn253 1.962 . S
O254 C259 1.254 1_554 S
O255 Zn252 2.049 . S
O255 C259 1.264 1_554 S
O256 Zn253 1.986 . S
O256 C263 1.262 . S
O257 Zn252 2.049 . S
O257 C265 1.260 . S
O258 Zn253 1.996 . S
O258 C265 1.257 . S
C259 O254 1.254 1_556 S
C259 O255 1.264 1_556 S
C260 O261 1.249 . S
C260 O262 1.270 . S
O261 Zn253 1.943 . S
O261 C260 1.249 . S
O262 Zn252 2.067 . S
O262 C260 1.270 . S
C263 O256 1.262 . S
C263 O264 1.232 . S
O264 C263 1.232 . S
C265 O257 1.260 . S
C265 O258 1.257 . S
Zn266 O269 2.031 . S
Zn266 O271 2.049 . S
Zn266 O276 2.067 . S
Zn267 O268 1.962 . S
Zn267 O270 1.986 . S
Zn267 O272 1.996 . S
Zn267 O275 1.943 . S
O268 Zn267 1.962 . S
O268 C273 1.254 . S
O269 Zn266 2.031 . S
O269 C273 1.269 . S
O270 Zn267 1.986 . S
O270 C277 1.262 . S
O271 Zn266 2.049 . S
O271 C279 1.260 . S
O272 Zn267 1.996 . S
O272 C279 1.257 . S
C273 O268 1.254 . S
C273 O269 1.269 . S
C274 O275 1.249 . S
C274 O276 1.270 . S
O275 Zn267 1.943 . S
O275 C274 1.249 . S
O276 Zn266 2.067 . S
O276 C274 1.270 . S
C277 O270 1.262 . S
C277 O278 1.232 . S
O278 C277 1.232 . S
C279 O271 1.260 . S
C279 O272 1.257 . S
Zn280 O283 2.049 . S
Zn280 O285 2.049 . S
Zn280 O290 2.067 . S
Zn281 O282 1.962 . S
Zn281 O284 1.986 . S
Zn281 O286 1.996 . S
Zn281 O289 1.943 . S
O282 Zn281 1.962 . S
O282 C287 1.254 1_556 S
O283 Zn280 2.049 . S
O283 C287 1.264 1_556 S
O284 Zn281 1.986 . S
O284 C291 1.262 . S
O285 Zn280 2.049 . S
O285 C293 1.260 . S
O286 Zn281 1.996 . S
O286 C293 1.257 . S
C287 O282 1.254 1_554 S
C287 O283 1.264 1_554 S
C288 O289 1.249 . S
C288 O290 1.270 . S
O289 Zn281 1.943 . S
O289 C288 1.249 . S
O290 Zn280 2.067 . S
O290 C288 1.270 . S
C291 O284 1.262 . S
C291 O292 1.232 . S
O292 C291 1.232 . S
C293 O285 1.260 . S
C293 O286 1.257 . S
Zn294 O297 2.031 . S
Zn294 O299 2.049 . S
Zn294 O304 2.067 . S
Zn295 O296 1.962 . S
Zn295 O298 1.986 . S
Zn295 O300 1.996 . S
Zn295 O303 1.943 . S
O296 Zn295 1.962 . S
O296 C301 1.254 . S
O297 Zn294 2.031 . S
O297 C301 1.269 . S
O298 Zn295 1.986 . S
O298 C305 1.262 . S
O299 Zn294 2.049 . S
O299 C307 1.260 . S
O300 Zn295 1.996 . S
O300 C307 1.257 . S
C301 O296 1.254 . S
C301 O297 1.269 . S
C302 O303 1.249 . S
C302 O304 1.270 . S
O303 Zn295 1.943 . S
O303 C302 1.249 . S
O304 Zn294 2.067 . S
O304 C302 1.270 . S
C305 O298 1.262 . S
C305 O306 1.232 . S
O306 C305 1.232 . S
C307 O299 1.260 . S
C307 O300 1.257 . S
Zn308 O311 2.031 . S
Zn308 O313 2.049 . S
Zn308 O318 2.067 . S
Zn309 O310 1.962 . S
Zn309 O312 1.986 . S
Zn309 O314 1.996 . S
Zn309 O317 1.943 . S
O310 Zn309 1.962 . S
O310 C315 1.254 . S
O311 Zn308 2.031 . S
O311 C315 1.269 . S
O312 Zn309 1.986 . S
O312 C319 1.262 . S
O313 Zn308 2.049 . S
O313 C321 1.260 . S
O314 Zn309 1.996 . S
O314 C321 1.257 . S
C315 O310 1.254 . S
C315 O311 1.269 . S
C316 O317 1.249 . S
C316 O318 1.270 . S
O317 Zn309 1.943 . S
O317 C316 1.249 . S
O318 Zn308 2.067 . S
O318 C316 1.270 . S
C319 O312 1.262 . S
C319 O320 1.232 . S
O320 C319 1.232 . S
C321 O313 1.260 . S
C321 O314 1.257 . S
Zn322 O325 2.031 . S
Zn322 O327 2.049 . S
Zn322 O332 2.067 . S
Zn323 O324 1.962 . S
Zn323 O326 1.986 . S
Zn323 O328 1.996 . S
Zn323 O331 1.943 . S
O324 Zn323 1.962 . S
O324 C329 1.254 . S
O325 Zn322 2.031 . S
O325 C329 1.269 . S
O326 Zn323 1.986 . S
O326 C333 1.262 . S
O327 Zn322 2.049 . S
O327 C335 1.260 . S
O328 Zn323 1.996 . S
O328 C335 1.257 . S
C329 O324 1.254 . S
C329 O325 1.269 . S
C330 O331 1.249 . S
C330 O332 1.270 . S
O331 Zn323 1.943 . S
O331 C330 1.249 . S
O332 Zn322 2.067 . S
O332 C330 1.270 . S
C333 O326 1.262 . S
C333 O334 1.232 . S
O334 C333 1.232 . S
C335 O327 1.260 . S
C335 O328 1.257 . S
Zn336 O339 2.031 . S
Zn336 O341 2.049 . S
Zn336 O346 2.067 . S
Zn337 O338 1.962 . S
Zn337 O340 1.986 . S
Zn337 O342 1.996 . S
Zn337 O345 1.943 . S
O338 Zn337 1.962 . S
O338 C343 1.254 . S
O339 Zn336 2.031 . S
O339 C343 1.269 . S
O340 Zn337 1.986 . S
O340 C347 1.262 . S
O341 Zn336 2.049 . S
O341 C349 1.260 . S
O342 Zn337 1.996 . S
O342 C349 1.257 . S
C343 O338 1.254 . S
C343 O339 1.269 . S
C344 O345 1.249 . S
C344 O346 1.270 . S
O345 Zn337 1.943 . S
O345 C344 1.249 . S
O346 Zn336 2.067 . S
O346 C344 1.270 . S
C347 O340 1.262 . S
C347 O348 1.232 . S
O348 C347 1.232 . S
C349 O341 1.260 . S
C349 O342 1.257 . S
Zn350 O353 2.031 . S
Zn350 O355 2.049 . S
Zn350 O360 2.067 . S
Zn351 O352 1.962 . S
Zn351 O354 1.986 . S
Zn351 O356 1.996 . S
Zn351 O359 1.943 . S
O352 Zn351 1.962 . S
O352 C357 1.254 . S
O353 Zn350 2.031 . S
O353 C357 1.269 . S
O354 Zn351 1.986 . S
O354 C361 1.262 . S
O355 Zn350 2.049 . S
O355 C363 1.260 . S
O356 Zn351 1.996 . S
O356 C363 1.257 . S
C357 O352 1.254 . S
C357 O353 1.269 . S
C358 O359 1.249 . S
C358 O360 1.270 . S
O359 Zn351 1.943 . S
O359 C358 1.249 . S
O360 Zn350 2.067 . S
O360 C358 1.270 . S
C361 O354 1.262 . S
C361 O362 1.232 . S
O362 C361 1.232 . S
C363 O355 1.260 . S
C363 O356 1.257 . S
Zn364 O367 2.049 . S
Zn364 O369 2.049 . S
Zn364 O374 2.067 . S
Zn365 O366 1.962 . S
Zn365 O368 1.986 . S
Zn365 O370 1.996 . S
Zn365 O373 1.943 . S
O366 Zn365 1.962 . S
O366 C371 1.254 1_556 S
O367 Zn364 2.049 . S
O367 C371 1.264 1_556 S
O368 Zn365 1.986 . S
O368 C375 1.262 . S
O369 Zn364 2.049 . S
O369 C377 1.260 . S
O370 Zn365 1.996 . S
O370 C377 1.257 . S
C371 O366 1.254 1_554 S
C371 O367 1.264 1_554 S
C372 O373 1.249 . S
C372 O374 1.270 . S
O373 Zn365 1.943 . S
O373 C372 1.249 . S
O374 Zn364 2.067 . S
O374 C372 1.270 . S
C375 O368 1.262 . S
C375 O376 1.232 . S
O376 C375 1.232 . S
C377 O369 1.260 . S
C377 O370 1.257 . S
Zn378 O381 2.031 . S
Zn378 O383 2.049 . S
Zn378 O388 2.067 . S
Zn379 O380 1.962 . S
Zn379 O382 1.986 . S
Zn379 O384 1.996 . S
Zn379 O387 1.943 . S
O380 Zn379 1.962 . S
O380 C385 1.254 . S
O381 Zn378 2.031 . S
O381 C385 1.269 . S
O382 Zn379 1.986 . S
O382 C389 1.262 . S
O383 Zn378 2.049 . S
O383 C391 1.260 . S
O384 Zn379 1.996 . S
O384 C391 1.257 . S
C385 O380 1.254 . S
C385 O381 1.269 . S
C386 O387 1.249 . S
C386 O388 1.270 . S
O387 Zn379 1.943 . S
O387 C386 1.249 . S
O388 Zn378 2.067 . S
O388 C386 1.270 . S
C389 O382 1.262 . S
C389 O390 1.232 . S
O390 C389 1.232 . S
C391 O383 1.260 . S
C391 O384 1.257 . S
Zn392 O395 2.049 . S
Zn392 O397 2.049 . S
Zn392 O402 2.067 . S
Zn393 O394 1.962 . S
Zn393 O396 1.986 . S
Zn393 O398 1.996 . S
Zn393 O401 1.943 . S
O394 Zn393 1.962 . S
O394 C399 1.254 1_554 S
O395 Zn392 2.049 . S
O395 C399 1.264 1_554 S
O396 Zn393 1.986 . S
O396 C403 1.262 . S
O397 Zn392 2.049 . S
O397 C405 1.260 . S
O398 Zn393 1.996 . S
O398 C405 1.257 . S
C399 O394 1.254 1_556 S
C399 O395 1.264 1_556 S
C400 O401 1.249 . S
C400 O402 1.270 . S
O401 Zn393 1.943 . S
O401 C400 1.249 . S
O402 Zn392 2.067 . S
O402 C400 1.270 . S
C403 O396 1.262 . S
C403 O404 1.232 . S
O404 C403 1.232 . S
C405 O397 1.260 . S
C405 O398 1.257 . S
Zn406 O409 2.031 . S
Zn406 O411 2.049 . S
Zn406 O416 2.067 . S
Zn407 O408 1.962 . S
Zn407 O410 1.986 . S
Zn407 O412 1.996 . S
Zn407 O415 1.943 . S
O408 Zn407 1.962 . S
O408 C413 1.254 . S
O409 Zn406 2.031 . S
O409 C413 1.269 . S
O410 Zn407 1.986 . S
O410 C417 1.262 . S
O411 Zn406 2.049 . S
O411 C419 1.260 . S
O412 Zn407 1.996 . S
O412 C419 1.257 . S
C413 O408 1.254 . S
C413 O409 1.269 . S
C414 O415 1.249 . S
C414 O416 1.270 . S
O415 Zn407 1.943 . S
O415 C414 1.249 . S
O416 Zn406 2.067 . S
O416 C414 1.270 . S
C417 O410 1.262 . S
C417 O418 1.232 . S
O418 C417 1.232 . S
C419 O411 1.260 . S
C419 O412 1.257 . S
Zn420 O423 2.031 . S
Zn420 O425 2.049 . S
Zn420 O430 2.067 . S
Zn421 O422 1.962 . S
Zn421 O424 1.986 . S
Zn421 O426 1.996 . S
Zn421 O429 1.943 . S
O422 Zn421 1.962 . S
O422 C427 1.254 . S
O423 Zn420 2.031 . S
O423 C427 1.269 . S
O424 Zn421 1.986 . S
O424 C431 1.262 . S
O425 Zn420 2.049 . S
O425 C433 1.260 . S
O426 Zn421 1.996 . S
O426 C433 1.257 . S
C427 O422 1.254 . S
C427 O423 1.269 . S
C428 O429 1.249 . S
C428 O430 1.270 . S
O429 Zn421 1.943 . S
O429 C428 1.249 . S
O430 Zn420 2.067 . S
O430 C428 1.270 . S
C431 O424 1.262 . S
C431 O432 1.232 . S
O432 C431 1.232 . S
C433 O425 1.260 . S
C433 O426 1.257 . S
Zn434 O437 2.031 . S
Zn434 O439 2.049 . S
Zn434 O444 2.067 . S
Zn435 O436 1.962 . S
Zn435 O438 1.986 . S
Zn435 O440 1.996 . S
Zn435 O443 1.943 . S
O436 Zn435 1.962 . S
O436 C441 1.254 . S
O437 Zn434 2.031 . S
O437 C441 1.269 . S
O438 Zn435 1.986 . S
O438 C445 1.262 . S
O439 Zn434 2.049 . S
O439 C447 1.260 . S
O440 Zn435 1.996 . S
O440 C447 1.257 . S
C441 O436 1.254 . S
C441 O437 1.269 . S
C442 O443 1.249 . S
C442 O444 1.270 . S
O443 Zn435 1.943 . S
O443 C442 1.249 . S
O444 Zn434 2.067 . S
O444 C442 1.270 . S
C445 O438 1.262 . S
C445 O446 1.232 . S
O446 C445 1.232 . S
C447 O439 1.260 . S
C447 O440 1.257 . S
H448 C456 0.950 . S
H449 C461 0.950 . S
H450 C458 0.950 . S
H451 C460 0.950 . S
H452 C462 0.950 . S
H453 C464 0.950 . S
H454 C466 0.950 . S
H455 C467 0.950 . S
C456 H448 0.950 . S
C456 C457 1.386 . S
C456 C458 1.391 . S
C457 C456 1.386 . S
C457 C461 1.393 1_556 S
C458 H450 0.950 . S
C458 C456 1.391 . S
C458 C459 1.400 . S
C459 C458 1.400 . S
C459 C460 1.398 1_556 S
C459 C465 1.491 1_556 S
C460 H451 0.950 . S
C460 C459 1.398 1_554 S
C460 C461 1.391 . S
C461 H449 0.950 . S
C461 C457 1.393 1_554 S
C461 C460 1.391 . S
C462 H452 0.950 . S
C462 C463 1.386 . S
C462 C464 1.391 . S
C463 C462 1.386 . S
C463 C467 1.393 1_554 S
C464 H453 0.950 . S
C464 C462 1.391 . S
C464 C465 1.400 . S
C465 C459 1.491 1_554 S
C465 C464 1.400 . S
C465 C466 1.398 1_554 S
C466 H454 0.950 . S
C466 C465 1.398 1_556 S
C466 C467 1.391 . S
C467 H455 0.950 . S
C467 C463 1.393 1_556 S
C467 C466 1.391 . S
H468 C476 0.950 . S
H469 C481 0.950 . S
H470 C478 0.950 . S
H471 C480 0.950 . S
H472 C482 0.950 . S
H473 C484 0.950 . S
H474 C486 0.950 . S
H475 C487 0.950 . S
C476 H468 0.950 . S
C476 C477 1.386 . S
C476 C478 1.391 . S
C477 C476 1.386 . S
C477 C481 1.393 . S
C478 H470 0.950 . S
C478 C476 1.391 . S
C478 C479 1.400 . S
C479 C478 1.400 . S
C479 C480 1.398 . S
C479 C485 1.491 1_565 S
C480 H471 0.950 . S
C480 C479 1.398 . S
C480 C481 1.391 . S
C481 H469 0.950 . S
C481 C477 1.393 . S
C481 C480 1.391 . S
C482 H472 0.950 . S
C482 C483 1.386 . S
C482 C484 1.391 . S
C483 C482 1.386 . S
C483 C487 1.393 . S
C484 H473 0.950 . S
C484 C482 1.391 . S
C484 C485 1.400 . S
C485 C479 1.491 1_545 S
C485 C484 1.400 . S
C485 C486 1.398 . S
C486 H474 0.950 . S
C486 C485 1.398 . S
C486 C487 1.391 . S
C487 H475 0.950 . S
C487 C483 1.393 . S
C487 C486 1.391 . S
H488 C496 0.950 . S
H489 C501 0.950 . S
H490 C498 0.950 . S
H491 C500 0.950 . S
H492 C502 0.950 . S
H493 C504 0.950 . S
H494 C506 0.950 . S
H495 C507 0.950 . S
C496 H488 0.950 . S
C496 C497 1.386 . S
C496 C498 1.391 . S
C497 C496 1.386 . S
C497 C501 1.393 . S
C498 H490 0.950 . S
C498 C496 1.391 . S
C498 C499 1.400 . S
C499 C498 1.400 . S
C499 C500 1.398 . S
C499 C505 1.491 . S
C500 H491 0.950 . S
C500 C499 1.398 . S
C500 C501 1.391 . S
C501 H489 0.950 . S
C501 C497 1.393 . S
C501 C500 1.391 . S
C502 H492 0.950 . S
C502 C503 1.386 . S
C502 C504 1.391 . S
C503 C502 1.386 . S
C503 C507 1.393 . S
C504 H493 0.950 . S
C504 C502 1.391 . S
C504 C505 1.400 . S
C505 C499 1.491 . S
C505 C504 1.400 . S
C505 C506 1.398 . S
C506 H494 0.950 . S
C506 C505 1.398 . S
C506 C507 1.391 . S
C507 H495 0.950 . S
C507 C503 1.393 . S
C507 C506 1.391 . S
H508 C516 0.950 . S
H509 C521 0.950 . S
H510 C518 0.950 . S
H511 C520 0.950 . S
H512 C522 0.950 . S
H513 C524 0.950 . S
H514 C526 0.950 . S
H515 C527 0.950 . S
C516 H508 0.950 . S
C516 C517 1.386 . S
C516 C518 1.391 . S
C517 C516 1.386 . S
C517 C521 1.393 . S
C518 H510 0.950 . S
C518 C516 1.391 . S
C518 C519 1.400 . S
C519 C518 1.400 . S
C519 C520 1.398 . S
C519 C525 1.491 1_545 S
C520 H511 0.950 . S
C520 C519 1.398 . S
C520 C521 1.391 . S
C521 H509 0.950 . S
C521 C517 1.393 . S
C521 C520 1.391 . S
C522 H512 0.950 . S
C522 C523 1.386 . S
C522 C524 1.391 . S
C523 C522 1.386 . S
C523 C527 1.393 . S
C524 H513 0.950 . S
C524 C522 1.391 . S
C524 C525 1.400 . S
C525 C519 1.491 1_565 S
C525 C524 1.400 . S
C525 C526 1.398 . S
C526 H514 0.950 . S
C526 C525 1.398 . S
C526 C527 1.391 . S
C527 H515 0.950 . S
C527 C523 1.393 . S
C527 C526 1.391 . S
H528 C536 0.950 . S
H529 C541 0.950 . S
H530 C538 0.950 . S
H531 C540 0.950 . S
H532 C542 0.950 . S
H533 C544 0.950 . S
H534 C546 0.950 . S
H535 C547 0.950 . S
C536 H528 0.950 . S
C536 C537 1.386 . S
C536 C538 1.391 . S
C537 C536 1.386 . S
C537 C541 1.393 1_554 S
C538 H530 0.950 . S
C538 C536 1.391 . S
C538 C539 1.400 . S
C539 C538 1.400 . S
C539 C540 1.398 1_554 S
C539 C545 1.491 1_554 S
C540 H531 0.950 . S
C540 C539 1.398 1_556 S
C540 C541 1.391 . S
C541 H529 0.950 . S
C541 C537 1.393 1_556 S
C541 C540 1.391 . S
C542 H532 0.950 . S
C542 C543 1.386 . S
C542 C544 1.391 . S
C543 C542 1.386 . S
C543 C547 1.393 1_556 S
C544 H533 0.950 . S
C544 C542 1.391 . S
C544 C545 1.400 . S
C545 C539 1.491 1_556 S
C545 C544 1.400 . S
C545 C546 1.398 1_556 S
C546 H534 0.950 . S
C546 C545 1.398 1_554 S
C546 C547 1.391 . S
C547 H535 0.950 . S
C547 C543 1.393 1_554 S
C547 C546 1.391 . S
H548 C556 0.950 . S
H549 C561 0.950 . S
H550 C558 0.950 . S
H551 C560 0.950 . S
H552 C562 0.950 . S
H553 C564 0.950 . S
H554 C566 0.950 . S
H555 C567 0.950 . S
C556 H548 0.950 . S
C556 C557 1.386 . S
C556 C558 1.391 . S
C557 C556 1.386 . S
C557 C561 1.393 . S
C558 H550 0.950 . S
C558 C556 1.391 . S
C558 C559 1.400 . S
C559 C558 1.400 . S
C559 C560 1.398 . S
C559 C565 1.491 1_565 S
C560 H551 0.950 . S
C560 C559 1.398 . S
C560 C561 1.391 . S
C561 H549 0.950 . S
C561 C557 1.393 . S
C561 C560 1.391 . S
C562 H552 0.950 . S
C562 C563 1.386 . S
C562 C564 1.391 . S
C563 C562 1.386 . S
C563 C567 1.393 . S
C564 H553 0.950 . S
C564 C562 1.391 . S
C564 C565 1.400 . S
C565 C559 1.491 1_545 S
C565 C564 1.400 . S
C565 C566 1.398 . S
C566 H554 0.950 . S
C566 C565 1.398 . S
C566 C567 1.391 . S
C567 H555 0.950 . S
C567 C563 1.393 . S
C567 C566 1.391 . S
H568 C576 0.950 . S
H569 C581 0.950 . S
H570 C578 0.950 . S
H571 C580 0.950 . S
H572 C582 0.950 . S
H573 C584 0.950 . S
H574 C586 0.950 . S
H575 C587 0.950 . S
C576 H568 0.950 . S
C576 C577 1.386 . S
C576 C578 1.391 . S
C577 C576 1.386 . S
C577 C581 1.393 . S
C578 H570 0.950 . S
C578 C576 1.391 . S
C578 C579 1.400 . S
C579 C578 1.400 . S
C579 C580 1.398 . S
C579 C585 1.491 . S
C580 H571 0.950 . S
C580 C579 1.398 . S
C580 C581 1.391 . S
C581 H569 0.950 . S
C581 C577 1.393 . S
C581 C580 1.391 . S
C582 H572 0.950 . S
C582 C583 1.386 . S
C582 C584 1.391 . S
C583 C582 1.386 . S
C583 C587 1.393 . S
C584 H573 0.950 . S
C584 C582 1.391 . S
C584 C585 1.400 . S
C585 C579 1.491 . S
C585 C584 1.400 . S
C585 C586 1.398 . S
C586 H574 0.950 . S
C586 C585 1.398 . S
C586 C587 1.391 . S
C587 H575 0.950 . S
C587 C583 1.393 . S
C587 C586 1.391 . S
H588 C596 0.950 . S
H589 C601 0.950 . S
H590 C598 0.950 . S
H591 C600 0.950 . S
H592 C602 0.950 . S
H593 C604 0.950 . S
H594 C606 0.950 . S
H595 C607 0.950 . S
C596 H588 0.950 . S
C596 C597 1.386 . S
C596 C598 1.391 . S
C597 C596 1.386 . S
C597 C601 1.393 . S
C598 H590 0.950 . S
C598 C596 1.391 . S
C598 C599 1.400 . S
C599 C598 1.400 . S
C599 C600 1.398 . S
C599 C605 1.491 1_565 S
C600 H591 0.950 . S
C600 C599 1.398 . S
C600 C601 1.391 . S
C601 H589 0.950 . S
C601 C597 1.393 . S
C601 C600 1.391 . S
C602 H592 0.950 . S
C602 C603 1.386 . S
C602 C604 1.391 . S
C603 C602 1.386 . S
C603 C607 1.393 . S
C604 H593 0.950 . S
C604 C602 1.391 . S
C604 C605 1.400 . S
C605 C599 1.491 1_545 S
C605 C604 1.400 . S
C605 C606 1.398 . S
C606 H594 0.950 . S
C606 C605 1.398 . S
C606 C607 1.391 . S
C607 H595 0.950 . S
C607 C603 1.393 . S
C607 C606 1.391 . S
H608 C616 0.950 . S
H609 C621 0.950 . S
H610 C618 0.950 . S
H611 C620 0.950 . S
H612 C622 0.950 . S
H613 C624 0.950 . S
H614 C626 0.950 . S
H615 C627 0.950 . S
C616 H608 0.950 . S
C616 C617 1.386 . S
C616 C618 1.391 . S
C617 C616 1.386 . S
C617 C621 1.393 . S
C618 H610 0.950 . S
C618 C616 1.391 . S
C618 C619 1.400 . S
C619 C618 1.400 . S
C619 C620 1.398 . S
C619 C625 1.491 . S
C620 H611 0.950 . S
C620 C619 1.398 . S
C620 C621 1.391 . S
C621 H609 0.950 . S
C621 C617 1.393 . S
C621 C620 1.391 . S
C622 H612 0.950 . S
C622 C623 1.386 . S
C622 C624 1.391 . S
C623 C622 1.386 . S
C623 C627 1.393 . S
C624 H613 0.950 . S
C624 C622 1.391 . S
C624 C625 1.400 . S
C625 C619 1.491 . S
C625 C624 1.400 . S
C625 C626 1.398 . S
C626 H614 0.950 . S
C626 C625 1.398 . S
C626 C627 1.391 . S
C627 H615 0.950 . S
C627 C623 1.393 . S
C627 C626 1.391 . S
H628 C636 0.950 . S
H629 C641 0.950 . S
H630 C638 0.950 . S
H631 C640 0.950 . S
H632 C642 0.950 . S
H633 C644 0.950 . S
H634 C646 0.950 . S
H635 C647 0.950 . S
C636 H628 0.950 . S
C636 C637 1.386 . S
C636 C638 1.391 . S
C637 C636 1.386 . S
C637 C641 1.393 . S
C638 H630 0.950 . S
C638 C636 1.391 . S
C638 C639 1.400 . S
C639 C638 1.400 . S
C639 C640 1.398 . S
C639 C645 1.491 . S
C640 H631 0.950 . S
C640 C639 1.398 . S
C640 C641 1.391 . S
C641 H629 0.950 . S
C641 C637 1.393 . S
C641 C640 1.391 . S
C642 H632 0.950 . S
C642 C643 1.386 . S
C642 C644 1.391 . S
C643 C642 1.386 . S
C643 C647 1.393 . S
C644 H633 0.950 . S
C644 C642 1.391 . S
C644 C645 1.400 . S
C645 C639 1.491 . S
C645 C644 1.400 . S
C645 C646 1.398 . S
C646 H634 0.950 . S
C646 C645 1.398 . S
C646 C647 1.391 . S
C647 H635 0.950 . S
C647 C643 1.393 . S
C647 C646 1.391 . S
H648 C656 0.950 . S
H649 C661 0.950 . S
H650 C658 0.950 . S
H651 C660 0.950 . S
H652 C662 0.950 . S
H653 C664 0.950 . S
H654 C666 0.950 . S
H655 C667 0.950 . S
C656 H648 0.950 . S
C656 C657 1.386 . S
C656 C658 1.391 . S
C657 C656 1.386 . S
C657 C661 1.393 . S
C658 H650 0.950 . S
C658 C656 1.391 . S
C658 C659 1.400 . S
C659 C658 1.400 . S
C659 C660 1.398 1_556 S
C659 C665 1.491 1_556 S
C660 H651 0.950 . S
C660 C659 1.398 1_554 S
C660 C661 1.391 1_554 S
C661 H649 0.950 . S
C661 C657 1.393 . S
C661 C660 1.391 1_556 S
C662 H652 0.950 . S
C662 C663 1.386 . S
C662 C664 1.391 . S
C663 C662 1.386 . S
C663 C667 1.393 . S
C664 H653 0.950 . S
C664 C662 1.391 . S
C664 C665 1.400 . S
C665 C659 1.491 1_554 S
C665 C664 1.400 . S
C665 C666 1.398 1_554 S
C666 H654 0.950 . S
C666 C665 1.398 1_556 S
C666 C667 1.391 1_556 S
C667 H655 0.950 . S
C667 C663 1.393 . S
C667 C666 1.391 1_554 S
H668 C676 0.950 . S
H669 C681 0.950 . S
H670 C678 0.950 . S
H671 C680 0.950 . S
H672 C682 0.950 . S
H673 C684 0.950 . S
H674 C686 0.950 . S
H675 C687 0.950 . S
C676 H668 0.950 . S
C676 C677 1.386 . S
C676 C678 1.391 . S
C677 C676 1.386 . S
C677 C681 1.393 . S
C678 H670 0.950 . S
C678 C676 1.391 . S
C678 C679 1.400 . S
C679 C678 1.400 . S
C679 C680 1.398 . S
C679 C685 1.491 . S
C680 H671 0.950 . S
C680 C679 1.398 . S
C680 C681 1.391 . S
C681 H669 0.950 . S
C681 C677 1.393 . S
C681 C680 1.391 . S
C682 H672 0.950 . S
C682 C683 1.386 . S
C682 C684 1.391 . S
C683 C682 1.386 . S
C683 C687 1.393 . S
C684 H673 0.950 . S
C684 C682 1.391 . S
C684 C685 1.400 . S
C685 C679 1.491 . S
C685 C684 1.400 . S
C685 C686 1.398 . S
C686 H674 0.950 . S
C686 C685 1.398 . S
C686 C687 1.391 . S
C687 H675 0.950 . S
C687 C683 1.393 . S
C687 C686 1.391 . S
H688 C696 0.950 . S
H689 C701 0.950 . S
H690 C698 0.950 . S
H691 C700 0.950 . S
H692 C702 0.950 . S
H693 C704 0.950 . S
H694 C706 0.950 . S
H695 C707 0.950 . S
C696 H688 0.950 . S
C696 C697 1.386 . S
C696 C698 1.391 . S
C697 C696 1.386 . S
C697 C701 1.393 . S
C698 H690 0.950 . S
C698 C696 1.391 . S
C698 C699 1.400 . S
C699 C698 1.400 . S
C699 C700 1.398 . S
C699 C705 1.491 . S
C700 H691 0.950 . S
C700 C699 1.398 . S
C700 C701 1.391 . S
C701 H689 0.950 . S
C701 C697 1.393 . S
C701 C700 1.391 . S
C702 H692 0.950 . S
C702 C703 1.386 . S
C702 C704 1.391 . S
C703 C702 1.386 . S
C703 C707 1.393 . S
C704 H693 0.950 . S
C704 C702 1.391 . S
C704 C705 1.400 . S
C705 C699 1.491 . S
C705 C704 1.400 . S
C705 C706 1.398 . S
C706 H694 0.950 . S
C706 C705 1.398 . S
C706 C707 1.391 . S
C707 H695 0.950 . S
C707 C703 1.393 . S
C707 C706 1.391 . S
H708 C716 0.950 . S
H709 C721 0.950 . S
H710 C718 0.950 . S
H711 C720 0.950 . S
H712 C722 0.950 . S
H713 C724 0.950 . S
H714 C726 0.950 . S
H715 C727 0.950 . S
C716 H708 0.950 . S
C716 C717 1.386 . S
C716 C718 1.391 . S
C717 C716 1.386 . S
C717 C721 1.393 . S
C718 H710 0.950 . S
C718 C716 1.391 . S
C718 C719 1.400 . S
C719 C718 1.400 . S
C719 C720 1.398 . S
C719 C725 1.491 . S
C720 H711 0.950 . S
C720 C719 1.398 . S
C720 C721 1.391 . S
C721 H709 0.950 . S
C721 C717 1.393 . S
C721 C720 1.391 . S
C722 H712 0.950 . S
C722 C723 1.386 . S
C722 C724 1.391 . S
C723 C722 1.386 . S
C723 C727 1.393 . S
C724 H713 0.950 . S
C724 C722 1.391 . S
C724 C725 1.400 . S
C725 C719 1.491 . S
C725 C724 1.400 . S
C725 C726 1.398 . S
C726 H714 0.950 . S
C726 C725 1.398 . S
C726 C727 1.391 . S
C727 H715 0.950 . S
C727 C723 1.393 . S
C727 C726 1.391 . S
H728 C736 0.950 1_556 S
H729 C741 0.950 . S
H730 C738 0.950 . S
H731 C740 0.950 . S
H732 C742 0.950 1_554 S
H733 C744 0.950 . S
H734 C746 0.950 . S
H735 C747 0.950 . S
C736 H728 0.950 1_554 S
C736 C737 1.386 . S
C736 C738 1.391 1_554 S
C737 C736 1.386 . S
C737 C741 1.393 . S
C738 H730 0.950 . S
C738 C736 1.391 1_556 S
C738 C739 1.400 1_556 S
C739 C738 1.400 1_554 S
C739 C740 1.398 . S
C739 C745 1.491 1_554 S
C740 H731 0.950 . S
C740 C739 1.398 . S
C740 C741 1.391 . S
C741 H729 0.950 . S
C741 C737 1.393 . S
C741 C740 1.391 . S
C742 H732 0.950 1_556 S
C742 C743 1.386 . S
C742 C744 1.391 1_556 S
C743 C742 1.386 . S
C743 C747 1.393 . S
C744 H733 0.950 . S
C744 C742 1.391 1_554 S
C744 C745 1.400 1_554 S
C745 C739 1.491 1_556 S
C745 C744 1.400 1_556 S
C745 C746 1.398 . S
C746 H734 0.950 . S
C746 C745 1.398 . S
C746 C747 1.391 . S
C747 H735 0.950 . S
C747 C743 1.393 . S
C747 C746 1.391 . S
H748 C756 0.950 . S
H749 C761 0.950 . S
H750 C758 0.950 . S
H751 C760 0.950 . S
H752 C762 0.950 . S
H753 C764 0.950 . S
H754 C766 0.950 . S
H755 C767 0.950 . S
C756 H748 0.950 . S
C756 C757 1.386 . S
C756 C758 1.391 . S
C757 C756 1.386 . S
C757 C761 1.393 . S
C758 H750 0.950 . S
C758 C756 1.391 . S
C758 C759 1.400 . S
C759 C758 1.400 . S
C759 C760 1.398 . S
C759 C765 1.491 . S
C760 H751 0.950 . S
C760 C759 1.398 . S
C760 C761 1.391 . S
C761 H749 0.950 . S
C761 C757 1.393 . S
C761 C760 1.391 . S
C762 H752 0.950 . S
C762 C763 1.386 . S
C762 C764 1.391 . S
C763 C762 1.386 . S
C763 C767 1.393 . S
C764 H753 0.950 . S
C764 C762 1.391 . S
C764 C765 1.400 . S
C765 C759 1.491 . S
C765 C764 1.400 . S
C765 C766 1.398 . S
C766 H754 0.950 . S
C766 C765 1.398 . S
C766 C767 1.391 . S
C767 H755 0.950 . S
C767 C763 1.393 . S
C767 C766 1.391 . S
H768 C776 0.950 . S
H769 C781 0.950 . S
H770 C778 0.950 . S
H771 C780 0.950 . S
H772 C782 0.950 . S
H773 C784 0.950 . S
H774 C786 0.950 . S
H775 C787 0.950 . S
C776 H768 0.950 . S
C776 C777 1.386 . S
C776 C778 1.391 . S
C777 C776 1.386 . S
C777 C781 1.393 . S
C778 H770 0.950 . S
C778 C776 1.391 . S
C778 C779 1.400 . S
C779 C778 1.400 . S
C779 C780 1.398 . S
C779 C785 1.491 . S
C780 H771 0.950 . S
C780 C779 1.398 . S
C780 C781 1.391 . S
C781 H769 0.950 . S
C781 C777 1.393 . S
C781 C780 1.391 . S
C782 H772 0.950 . S
C782 C783 1.386 . S
C782 C784 1.391 . S
C783 C782 1.386 . S
C783 C787 1.393 . S
C784 H773 0.950 . S
C784 C782 1.391 . S
C784 C785 1.400 . S
C785 C779 1.491 . S
C785 C784 1.400 . S
C785 C786 1.398 . S
C786 H774 0.950 . S
C786 C785 1.398 . S
C786 C787 1.391 . S
C787 H775 0.950 . S
C787 C783 1.393 . S
C787 C786 1.391 . S
H788 C796 0.950 . S
H789 C801 0.950 . S
H790 C798 0.950 . S
H791 C800 0.950 . S
H792 C802 0.950 . S
H793 C804 0.950 . S
H794 C806 0.950 . S
H795 C807 0.950 . S
C796 H788 0.950 . S
C796 C797 1.386 1_554 S
C796 C798 1.391 . S
C797 C796 1.386 1_556 S
C797 C801 1.393 . S
C798 H790 0.950 . S
C798 C796 1.391 . S
C798 C799 1.400 . S
C799 C798 1.400 . S
C799 C800 1.398 1_454 S
C799 C805 1.491 1_455 S
C800 H791 0.950 . S
C800 C799 1.398 1_656 S
C800 C801 1.391 1_655 S
C801 H789 0.950 . S
C801 C797 1.393 . S
C801 C800 1.391 1_455 S
C802 H792 0.950 . S
C802 C803 1.386 . S
C802 C804 1.391 . S
C803 C802 1.386 . S
C803 C807 1.393 . S
C804 H793 0.950 . S
C804 C802 1.391 . S
C804 C805 1.400 . S
C805 C799 1.491 1_655 S
C805 C804 1.400 . S
C805 C806 1.398 1_655 S
C806 H794 0.950 . S
C806 C805 1.398 1_455 S
C806 C807 1.391 1_455 S
C807 H795 0.950 . S
C807 C803 1.393 . S
C807 C806 1.391 1_655 S
H808 C816 0.950 . S
H809 C821 0.950 . S
H810 C818 0.950 . S
H811 C820 0.950 . S
H812 C822 0.950 . S
H813 C824 0.950 . S
H814 C826 0.950 . S
H815 C827 0.950 . S
C816 H808 0.950 . S
C816 C817 1.386 . S
C816 C818 1.391 . S
C817 C816 1.386 . S
C817 C821 1.393 . S
C818 H810 0.950 . S
C818 C816 1.391 . S
C818 C819 1.400 . S
C819 C818 1.400 . S
C819 C820 1.398 . S
C819 C825 1.491 . S
C820 H811 0.950 . S
C820 C819 1.398 . S
C820 C821 1.391 . S
C821 H809 0.950 . S
C821 C817 1.393 . S
C821 C820 1.391 . S
C822 H812 0.950 . S
C822 C823 1.386 . S
C822 C824 1.391 . S
C823 C822 1.386 . S
C823 C827 1.393 . S
C824 H813 0.950 . S
C824 C822 1.391 . S
C824 C825 1.400 . S
C825 C819 1.491 . S
C825 C824 1.400 . S
C825 C826 1.398 . S
C826 H814 0.950 . S
C826 C825 1.398 . S
C826 C827 1.391 . S
C827 H815 0.950 . S
C827 C823 1.393 . S
C827 C826 1.391 . S
H828 C836 0.950 . S
H829 C841 0.950 . S
H830 C838 0.950 . S
H831 C840 0.950 . S
H832 C842 0.950 . S
H833 C844 0.950 . S
H834 C846 0.950 . S
H835 C847 0.950 . S
C836 H828 0.950 . S
C836 C837 1.386 . S
C836 C838 1.391 . S
C837 C836 1.386 . S
C837 C841 1.393 . S
C838 H830 0.950 . S
C838 C836 1.391 . S
C838 C839 1.400 . S
C839 C838 1.400 . S
C839 C840 1.398 . S
C839 C845 1.491 . S
C840 H831 0.950 . S
C840 C839 1.398 . S
C840 C841 1.391 . S
C841 H829 0.950 . S
C841 C837 1.393 . S
C841 C840 1.391 . S
C842 H832 0.950 . S
C842 C843 1.386 . S
C842 C844 1.391 . S
C843 C842 1.386 . S
C843 C847 1.393 . S
C844 H833 0.950 . S
C844 C842 1.391 . S
C844 C845 1.400 . S
C845 C839 1.491 . S
C845 C844 1.400 . S
C845 C846 1.398 . S
C846 H834 0.950 . S
C846 C845 1.398 . S
C846 C847 1.391 . S
C847 H835 0.950 . S
C847 C843 1.393 . S
C847 C846 1.391 . S
H848 C856 0.950 . S
H849 C861 0.950 . S
H850 C858 0.950 . S
H851 C860 0.950 . S
H852 C862 0.950 . S
H853 C864 0.950 . S
H854 C866 0.950 . S
H855 C867 0.950 . S
C856 H848 0.950 . S
C856 C857 1.386 . S
C856 C858 1.391 . S
C857 C856 1.386 . S
C857 C861 1.393 . S
C858 H850 0.950 . S
C858 C856 1.391 . S
C858 C859 1.400 . S
C859 C858 1.400 . S
C859 C860 1.398 . S
C859 C865 1.491 . S
C860 H851 0.950 . S
C860 C859 1.398 . S
C860 C861 1.391 . S
C861 H849 0.950 . S
C861 C857 1.393 . S
C861 C860 1.391 . S
C862 H852 0.950 . S
C862 C863 1.386 . S
C862 C864 1.391 . S
C863 C862 1.386 . S
C863 C867 1.393 . S
C864 H853 0.950 . S
C864 C862 1.391 . S
C864 C865 1.400 . S
C865 C859 1.491 . S
C865 C864 1.400 . S
C865 C866 1.398 . S
C866 H854 0.950 . S
C866 C865 1.398 . S
C866 C867 1.391 . S
C867 H855 0.950 . S
C867 C863 1.393 . S
C867 C866 1.391 . S
H868 C876 0.950 . S
H869 C881 0.950 . S
H870 C878 0.950 . S
H871 C880 0.950 . S
H872 C882 0.950 . S
H873 C884 0.950 . S
H874 C886 0.950 . S
H875 C887 0.950 . S
C876 H868 0.950 . S
C876 C877 1.386 . S
C876 C878 1.391 1_554 S
C877 C876 1.386 . S
C877 C881 1.393 . S
C878 H870 0.950 . S
C878 C876 1.391 1_556 S
C878 C879 1.400 . S
C879 C878 1.400 . S
C879 C880 1.398 . S
C879 C885 1.491 . S
C880 H871 0.950 . S
C880 C879 1.398 . S
C880 C881 1.391 1_556 S
C881 H869 0.950 . S
C881 C877 1.393 . S
C881 C880 1.391 1_554 S
C882 H872 0.950 . S
C882 C883 1.386 . S
C882 C884 1.391 . S
C883 C882 1.386 . S
C883 C887 1.393 . S
C884 H873 0.950 . S
C884 C882 1.391 . S
C884 C885 1.400 . S
C885 C879 1.491 . S
C885 C884 1.400 . S
C885 C886 1.398 . S
C886 H874 0.950 . S
C886 C885 1.398 . S
C886 C887 1.391 . S
C887 H875 0.950 . S
C887 C883 1.393 . S
C887 C886 1.391 . S
H888 C896 0.950 . S
H889 C901 0.950 . S
H890 C898 0.950 . S
H891 C900 0.950 . S
H892 C902 0.950 . S
H893 C904 0.950 . S
H894 C906 0.950 . S
H895 C907 0.950 . S
C896 H888 0.950 . S
C896 C897 1.386 . S
C896 C898 1.391 . S
C897 C896 1.386 . S
C897 C901 1.393 . S
C898 H890 0.950 . S
C898 C896 1.391 . S
C898 C899 1.400 . S
C899 C898 1.400 . S
C899 C900 1.398 . S
C899 C905 1.491 . S
C900 H891 0.950 . S
C900 C899 1.398 . S
C900 C901 1.391 . S
C901 H889 0.950 . S
C901 C897 1.393 . S
C901 C900 1.391 . S
C902 H892 0.950 . S
C902 C903 1.386 . S
C902 C904 1.391 . S
C903 C902 1.386 . S
C903 C907 1.393 . S
C904 H893 0.950 . S
C904 C902 1.391 . S
C904 C905 1.400 . S
C905 C899 1.491 . S
C905 C904 1.400 . S
C905 C906 1.398 . S
C906 H894 0.950 . S
C906 C905 1.398 . S
C906 C907 1.391 . S
C907 H895 0.950 . S
C907 C903 1.393 . S
C907 C906 1.391 . S
H908 C916 0.950 . S
H909 C921 0.950 . S
H910 C918 0.950 1_655 S
H911 C920 0.950 . S
H912 C922 0.950 . S
H913 C924 0.950 1_455 S
H914 C926 0.950 . S
H915 C927 0.950 . S
C916 H908 0.950 . S
C916 C917 1.386 . S
C916 C918 1.391 . S
C917 C916 1.386 . S
C917 C921 1.393 . S
C918 H910 0.950 1_455 S
C918 C916 1.391 . S
C918 C919 1.400 . S
C919 C918 1.400 . S
C919 C920 1.398 . S
C919 C925 1.491 1_455 S
C920 H911 0.950 . S
C920 C919 1.398 . S
C920 C921 1.391 . S
C921 H909 0.950 . S
C921 C917 1.393 . S
C921 C920 1.391 . S
C922 H912 0.950 . S
C922 C923 1.386 . S
C922 C924 1.391 . S
C923 C922 1.386 . S
C923 C927 1.393 . S
C924 H913 0.950 1_655 S
C924 C922 1.391 . S
C924 C925 1.400 . S
C925 C919 1.491 1_655 S
C925 C924 1.400 . S
C925 C926 1.398 . S
C926 H914 0.950 . S
C926 C925 1.398 . S
C926 C927 1.391 . S
C927 H915 0.950 . S
C927 C923 1.393 . S
C927 C926 1.391 . S
H928 C936 0.950 . S
H929 C941 0.950 . S
H930 C938 0.950 . S
H931 C940 0.950 . S
H932 C942 0.950 . S
H933 C944 0.950 . S
H934 C946 0.950 . S
H935 C947 0.950 . S
C936 H928 0.950 . S
C936 C937 1.386 . S
C936 C938 1.391 . S
C937 C936 1.386 . S
C937 C941 1.393 . S
C938 H930 0.950 . S
C938 C936 1.391 . S
C938 C939 1.400 . S
C939 C938 1.400 . S
C939 C940 1.398 . S
C939 C945 1.491 . S
C940 H931 0.950 . S
C940 C939 1.398 . S
C940 C941 1.391 . S
C941 H929 0.950 . S
C941 C937 1.393 . S
C941 C940 1.391 . S
C942 H932 0.950 . S
C942 C943 1.386 . S
C942 C944 1.391 . S
C943 C942 1.386 . S
C943 C947 1.393 . S
C944 H933 0.950 . S
C944 C942 1.391 . S
C944 C945 1.400 . S
C945 C939 1.491 . S
C945 C944 1.400 . S
C945 C946 1.398 . S
C946 H934 0.950 . S
C946 C945 1.398 . S
C946 C947 1.391 . S
C947 H935 0.950 . S
C947 C943 1.393 . S
C947 C946 1.391 . S
H948 C956 0.950 . S
H949 C961 0.950 . S
H950 C958 0.950 . S
H951 C960 0.950 1_455 S
H952 C962 0.950 . S
H953 C964 0.950 . S
H954 C966 0.950 1_655 S
H955 C967 0.950 . S
C956 H948 0.950 . S
C956 C957 1.386 . S
C956 C958 1.391 1_554 S
C957 C956 1.386 . S
C957 C961 1.393 . S
C958 H950 0.950 . S
C958 C956 1.391 1_556 S
C958 C959 1.400 . S
C959 C958 1.400 . S
C959 C960 1.398 . S
C959 C965 1.491 1_655 S
C960 H951 0.950 1_655 S
C960 C959 1.398 . S
C960 C961 1.391 1_556 S
C961 H949 0.950 . S
C961 C957 1.393 . S
C961 C960 1.391 1_554 S
C962 H952 0.950 . S
C962 C963 1.386 . S
C962 C964 1.391 . S
C963 C962 1.386 . S
C963 C967 1.393 . S
C964 H953 0.950 . S
C964 C962 1.391 . S
C964 C965 1.400 . S
C965 C959 1.491 1_455 S
C965 C964 1.400 . S
C965 C966 1.398 . S
C966 H954 0.950 1_455 S
C966 C965 1.398 . S
C966 C967 1.391 . S
C967 H955 0.950 . S
C967 C963 1.393 . S
C967 C966 1.391 . S
H968 C976 0.950 . S
H969 C981 0.950 . S
H970 C978 0.950 . S
H971 C980 0.950 . S
H972 C982 0.950 . S
H973 C984 0.950 . S
H974 C986 0.950 . S
H975 C987 0.950 . S
C976 H968 0.950 . S
C976 C977 1.386 . S
C976 C978 1.391 . S
C977 C976 1.386 . S
C977 C981 1.393 . S
C978 H970 0.950 . S
C978 C976 1.391 . S
C978 C979 1.400 . S
C979 C978 1.400 . S
C979 C980 1.398 . S
C979 C985 1.491 . S
C980 H971 0.950 . S
C980 C979 1.398 . S
C980 C981 1.391 . S
C981 H969 0.950 . S
C981 C977 1.393 . S
C981 C980 1.391 . S
C982 H972 0.950 . S
C982 C983 1.386 . S
C982 C984 1.391 . S
C983 C982 1.386 . S
C983 C987 1.393 . S
C984 H973 0.950 . S
C984 C982 1.391 . S
C984 C985 1.400 . S
C985 C979 1.491 . S
C985 C984 1.400 . S
C985 C986 1.398 . S
C986 H974 0.950 . S
C986 C985 1.398 . S
C986 C987 1.391 . S
C987 H975 0.950 . S
C987 C983 1.393 . S
C987 C986 1.391 . S
H988 C996 0.950 . S
H989 C1001 0.950 . S
H990 C998 0.950 . S
H991 C1000 0.950 . S
H992 C1002 0.950 . S
H993 C1004 0.950 . S
H994 C1006 0.950 . S
H995 C1007 0.950 . S
C996 H988 0.950 . S
C996 C997 1.386 . S
C996 C998 1.391 . S
C997 C996 1.386 . S
C997 C1001 1.393 . S
C998 H990 0.950 . S
C998 C996 1.391 . S
C998 C999 1.400 . S
C999 C998 1.400 . S
C999 C1000 1.398 . S
C999 C1005 1.491 . S
C1000 H991 0.950 . S
C1000 C999 1.398 . S
C1000 C1001 1.391 . S
C1001 H989 0.950 . S
C1001 C997 1.393 . S
C1001 C1000 1.391 . S
C1002 H992 0.950 . S
C1002 C1003 1.386 . S
C1002 C1004 1.391 . S
C1003 C1002 1.386 . S
C1003 C1007 1.393 . S
C1004 H993 0.950 . S
C1004 C1002 1.391 . S
C1004 C1005 1.400 . S
C1005 C999 1.491 . S
C1005 C1004 1.400 . S
C1005 C1006 1.398 . S
C1006 H994 0.950 . S
C1006 C1005 1.398 . S
C1006 C1007 1.391 . S
C1007 H995 0.950 . S
C1007 C1003 1.393 . S
C1007 C1006 1.391 . S
H1008 C1016 0.950 . S
H1009 C1021 0.950 . S
H1010 C1018 0.950 . S
H1011 C1020 0.950 . S
H1012 C1022 0.950 . S
H1013 C1024 0.950 . S
H1014 C1026 0.950 . S
H1015 C1027 0.950 . S
C1016 H1008 0.950 . S
C1016 C1017 1.386 . S
C1016 C1018 1.391 . S
C1017 C1016 1.386 . S
C1017 C1021 1.393 . S
C1018 H1010 0.950 . S
C1018 C1016 1.391 . S
C1018 C1019 1.400 . S
C1019 C1018 1.400 . S
C1019 C1020 1.398 . S
C1019 C1025 1.491 . S
C1020 H1011 0.950 . S
C1020 C1019 1.398 . S
C1020 C1021 1.391 . S
C1021 H1009 0.950 . S
C1021 C1017 1.393 . S
C1021 C1020 1.391 . S
C1022 H1012 0.950 . S
C1022 C1023 1.386 . S
C1022 C1024 1.391 . S
C1023 C1022 1.386 . S
C1023 C1027 1.393 . S
C1024 H1013 0.950 . S
C1024 C1022 1.391 . S
C1024 C1025 1.400 . S
C1025 C1019 1.491 . S
C1025 C1024 1.400 . S
C1025 C1026 1.398 . S
C1026 H1014 0.950 . S
C1026 C1025 1.398 . S
C1026 C1027 1.391 . S
C1027 H1015 0.950 . S
C1027 C1023 1.393 . S
C1027 C1026 1.391 . S
H1028 C1036 0.950 . S
H1029 C1041 0.950 . S
H1030 C1038 0.950 . S
H1031 C1040 0.950 . S
H1032 C1042 0.950 . S
H1033 C1044 0.950 . S
H1034 C1046 0.950 . S
H1035 C1047 0.950 . S
C1036 H1028 0.950 . S
C1036 C1037 1.386 . S
C1036 C1038 1.391 . S
C1037 C1036 1.386 . S
C1037 C1041 1.393 . S
C1038 H1030 0.950 . S
C1038 C1036 1.391 . S
C1038 C1039 1.400 . S
C1039 C1038 1.400 . S
C1039 C1040 1.398 . S
C1039 C1045 1.491 . S
C1040 H1031 0.950 . S
C1040 C1039 1.398 . S
C1040 C1041 1.391 . S
C1041 H1029 0.950 . S
C1041 C1037 1.393 . S
C1041 C1040 1.391 . S
C1042 H1032 0.950 . S
C1042 C1043 1.386 . S
C1042 C1044 1.391 1_556 S
C1043 C1042 1.386 . S
C1043 C1047 1.393 . S
C1044 H1033 0.950 . S
C1044 C1042 1.391 1_554 S
C1044 C1045 1.400 . S
C1045 C1039 1.491 . S
C1045 C1044 1.400 . S
C1045 C1046 1.398 . S
C1046 H1034 0.950 . S
C1046 C1045 1.398 . S
C1046 C1047 1.391 1_554 S
C1047 H1035 0.950 . S
C1047 C1043 1.393 . S
C1047 C1046 1.391 1_556 S
H1048 C1056 0.950 . S
H1049 C1061 0.950 . S
H1050 C1058 0.950 . S
H1051 C1060 0.950 . S
H1052 C1062 0.950 . S
H1053 C1064 0.950 . S
H1054 C1066 0.950 . S
H1055 C1067 0.950 . S
C1056 H1048 0.950 . S
C1056 C1057 1.386 . S
C1056 C1058 1.391 . S
C1057 C1056 1.386 . S
C1057 C1061 1.393 . S
C1058 H1050 0.950 . S
C1058 C1056 1.391 . S
C1058 C1059 1.400 . S
C1059 C1058 1.400 . S
C1059 C1060 1.398 . S
C1059 C1065 1.491 . S
C1060 H1051 0.950 . S
C1060 C1059 1.398 . S
C1060 C1061 1.391 . S
C1061 H1049 0.950 . S
C1061 C1057 1.393 . S
C1061 C1060 1.391 . S
C1062 H1052 0.950 . S
C1062 C1063 1.386 . S
C1062 C1064 1.391 . S
C1063 C1062 1.386 . S
C1063 C1067 1.393 . S
C1064 H1053 0.950 . S
C1064 C1062 1.391 . S
C1064 C1065 1.400 . S
C1065 C1059 1.491 . S
C1065 C1064 1.400 . S
C1065 C1066 1.398 . S
C1066 H1054 0.950 . S
C1066 C1065 1.398 . S
C1066 C1067 1.391 . S
C1067 H1055 0.950 . S
C1067 C1063 1.393 . S
C1067 C1066 1.391 . S
H1068 C1076 0.950 . S
H1069 C1081 0.950 . S
H1070 C1078 0.950 . S
H1071 C1080 0.897 1_455 S
H1072 C1082 0.950 . S
H1073 C1084 0.950 . S
H1074 C1086 0.950 1_655 S
H1075 C1087 0.950 . S
C1076 H1068 0.950 . S
C1076 C1077 1.386 . S
C1076 C1078 1.391 . S
C1077 C1076 1.386 . S
C1077 C1081 1.393 . S
C1078 H1070 0.950 . S
C1078 C1076 1.391 . S
C1078 C1079 1.400 . S
C1079 C1078 1.400 . S
C1079 C1080 1.413 . S
C1079 C1085 1.491 1_655 S
C1080 H1071 0.897 1_655 S
C1080 C1079 1.413 . S
C1080 C1081 1.431 . S
C1081 H1069 0.950 . S
C1081 C1077 1.393 . S
C1081 C1080 1.431 . S
C1082 H1072 0.950 . S
C1082 C1083 1.386 . S
C1082 C1084 1.391 . S
C1083 C1082 1.386 . S
C1083 C1087 1.393 . S
C1084 H1073 0.950 . S
C1084 C1082 1.391 . S
C1084 C1085 1.400 . S
C1085 C1079 1.491 1_455 S
C1085 C1084 1.400 . S
C1085 C1086 1.398 . S
C1086 H1074 0.950 1_455 S
C1086 C1085 1.398 . S
C1086 C1087 1.391 . S
C1087 H1075 0.950 . S
C1087 C1083 1.393 . S
C1087 C1086 1.391 . S
H1088 C1096 0.950 . S
H1089 C1101 0.950 . S
H1090 C1098 0.950 . S
H1091 C1100 0.950 . S
H1092 C1102 0.950 . S
H1093 C1104 0.950 . S
H1094 C1106 0.950 . S
H1095 C1107 0.950 . S
C1096 H1088 0.950 . S
C1096 C1097 1.386 . S
C1096 C1098 1.391 . S
C1097 C1096 1.386 . S
C1097 C1101 1.393 . S
C1098 H1090 0.950 . S
C1098 C1096 1.391 . S
C1098 C1099 1.400 . S
C1099 C1098 1.400 . S
C1099 C1100 1.398 . S
C1099 C1105 1.491 . S
C1100 H1091 0.950 . S
C1100 C1099 1.398 . S
C1100 C1101 1.391 . S
C1101 H1089 0.950 . S
C1101 C1097 1.393 . S
C1101 C1100 1.391 . S
C1102 H1092 0.950 . S
C1102 C1103 1.386 . S
C1102 C1104 1.391 . S
C1103 C1102 1.386 . S
C1103 C1107 1.393 . S
C1104 H1093 0.950 . S
C1104 C1102 1.391 . S
C1104 C1105 1.400 . S
C1105 C1099 1.491 . S
C1105 C1104 1.400 . S
C1105 C1106 1.398 . S
C1106 H1094 0.950 . S
C1106 C1105 1.398 . S
C1106 C1107 1.391 . S
C1107 H1095 0.950 . S
C1107 C1103 1.393 . S
C1107 C1106 1.391 . S
H1108 C1116 0.950 . S
H1109 C1121 0.950 . S
H1110 C1118 0.950 . S
H1111 C1120 0.950 . S
H1112 C1122 0.950 . S
H1113 C1124 0.950 . S
H1114 C1126 0.950 . S
H1115 C1127 0.950 . S
C1116 H1108 0.950 . S
C1116 C1117 1.386 . S
C1116 C1118 1.391 . S
C1117 C1116 1.386 . S
C1117 C1121 1.393 . S
C1118 H1110 0.950 . S
C1118 C1116 1.391 . S
C1118 C1119 1.400 . S
C1119 C1118 1.400 . S
C1119 C1120 1.398 . S
C1119 C1125 1.491 . S
C1120 H1111 0.950 . S
C1120 C1119 1.398 . S
C1120 C1121 1.391 . S
C1121 H1109 0.950 . S
C1121 C1117 1.393 . S
C1121 C1120 1.391 . S
C1122 H1112 0.950 . S
C1122 C1123 1.386 . S
C1122 C1124 1.391 . S
C1123 C1122 1.386 . S
C1123 C1127 1.393 . S
C1124 H1113 0.950 . S
C1124 C1122 1.391 . S
C1124 C1125 1.400 . S
C1125 C1119 1.491 . S
C1125 C1124 1.400 . S
C1125 C1126 1.398 . S
C1126 H1114 0.950 . S
C1126 C1125 1.398 . S
C1126 C1127 1.391 . S
C1127 H1115 0.950 . S
C1127 C1123 1.393 . S
C1127 C1126 1.391 . S
H1128 C1136 0.950 . S
H1129 C1141 0.950 . S
H1130 C1138 0.950 . S
H1131 C1140 0.950 . S
H1132 C1142 0.950 . S
H1133 C1144 0.950 . S
H1134 C1146 0.950 . S
H1135 C1147 0.950 . S
C1136 H1128 0.950 . S
C1136 C1137 1.386 . S
C1136 C1138 1.391 . S
C1137 C1136 1.386 . S
C1137 C1141 1.393 . S
C1138 H1130 0.950 . S
C1138 C1136 1.391 . S
C1138 C1139 1.400 . S
C1139 C1138 1.400 . S
C1139 C1140 1.398 . S
C1139 C1145 1.491 . S
C1140 H1131 0.950 . S
C1140 C1139 1.398 . S
C1140 C1141 1.391 . S
C1141 H1129 0.950 . S
C1141 C1137 1.393 . S
C1141 C1140 1.391 . S
C1142 H1132 0.950 . S
C1142 C1143 1.386 . S
C1142 C1144 1.391 . S
C1143 C1142 1.386 . S
C1143 C1147 1.393 . S
C1144 H1133 0.950 . S
C1144 C1142 1.391 . S
C1144 C1145 1.400 . S
C1145 C1139 1.491 . S
C1145 C1144 1.400 . S
C1145 C1146 1.398 . S
C1146 H1134 0.950 . S
C1146 C1145 1.398 . S
C1146 C1147 1.391 . S
C1147 H1135 0.950 . S
C1147 C1143 1.393 . S
C1147 C1146 1.391 . S
H1148 C1156 0.950 . S
H1149 C1161 0.950 . S
H1150 C1158 0.950 . S
H1151 C1160 0.950 . S
H1152 C1162 0.950 . S
H1153 C1164 0.950 . S
H1154 C1166 0.950 . S
H1155 C1167 0.950 . S
C1156 H1148 0.950 . S
C1156 C1157 1.386 . S
C1156 C1158 1.391 1_455 S
C1157 C1156 1.386 . S
C1157 C1161 1.393 . S
C1158 H1150 0.950 . S
C1158 C1156 1.391 1_655 S
C1158 C1159 1.400 1_655 S
C1159 C1158 1.400 1_455 S
C1159 C1160 1.398 . S
C1159 C1165 1.491 1_455 S
C1160 H1151 0.950 . S
C1160 C1159 1.398 . S
C1160 C1161 1.391 . S
C1161 H1149 0.950 . S
C1161 C1157 1.393 . S
C1161 C1160 1.391 . S
C1162 H1152 0.950 . S
C1162 C1163 1.386 . S
C1162 C1164 1.391 1_655 S
C1163 C1162 1.386 . S
C1163 C1167 1.393 1_556 S
C1164 H1153 0.950 . S
C1164 C1162 1.391 1_455 S
C1164 C1165 1.400 1_456 S
C1165 C1159 1.491 1_655 S
C1165 C1164 1.400 1_654 S
C1165 C1166 1.398 . S
C1166 H1154 0.950 . S
C1166 C1165 1.398 . S
C1166 C1167 1.391 . S
C1167 H1155 0.950 . S
C1167 C1163 1.393 1_554 S
C1167 C1166 1.391 . S
H1168 C1176 0.950 . S
H1169 C1181 0.950 . S
H1170 C1178 0.950 . S
H1171 C1180 0.950 . S
H1172 C1182 0.950 . S
H1173 C1184 0.950 . S
H1174 C1186 0.950 . S
H1175 C1187 0.950 . S
C1176 H1168 0.950 . S
C1176 C1177 1.386 . S
C1176 C1178 1.391 . S
C1177 C1176 1.386 . S
C1177 C1181 1.393 . S
C1178 H1170 0.950 . S
C1178 C1176 1.391 . S
C1178 C1179 1.400 . S
C1179 C1178 1.400 . S
C1179 C1180 1.398 . S
C1179 C1185 1.491 . S
C1180 H1171 0.950 . S
C1180 C1179 1.398 . S
C1180 C1181 1.391 . S
C1181 H1169 0.950 . S
C1181 C1177 1.393 . S
C1181 C1180 1.391 . S
C1182 H1172 0.950 . S
C1182 C1183 1.386 . S
C1182 C1184 1.391 . S
C1183 C1182 1.386 . S
C1183 C1187 1.393 . S
C1184 H1173 0.950 . S
C1184 C1182 1.391 . S
C1184 C1185 1.400 . S
C1185 C1179 1.491 . S
C1185 C1184 1.400 . S
C1185 C1186 1.398 . S
C1186 H1174 0.950 . S
C1186 C1185 1.398 . S
C1186 C1187 1.391 . S
C1187 H1175 0.950 . S
C1187 C1183 1.393 . S
C1187 C1186 1.391 . S
H1188 C1196 0.950 . S
H1189 C1201 0.950 . S
H1190 C1198 0.950 . S
H1191 C1200 0.950 1_455 S
H1192 C1202 0.950 . S
H1193 C1204 0.950 . S
H1194 C1206 0.950 1_655 S
H1195 C1207 0.950 . S
C1196 H1188 0.950 . S
C1196 C1197 1.386 . S
C1196 C1198 1.391 . S
C1197 C1196 1.386 . S
C1197 C1201 1.393 . S
C1198 H1190 0.950 . S
C1198 C1196 1.391 . S
C1198 C1199 1.400 . S
C1199 C1198 1.400 . S
C1199 C1200 1.398 . S
C1199 C1205 1.491 1_655 S
C1200 H1191 0.950 1_655 S
C1200 C1199 1.398 . S
C1200 C1201 1.391 . S
C1201 H1189 0.950 . S
C1201 C1197 1.393 . S
C1201 C1200 1.391 . S
C1202 H1192 0.950 . S
C1202 C1203 1.386 . S
C1202 C1204 1.391 . S
C1203 C1202 1.386 . S
C1203 C1207 1.393 . S
C1204 H1193 0.950 . S
C1204 C1202 1.391 . S
C1204 C1205 1.400 . S
C1205 C1199 1.491 1_455 S
C1205 C1204 1.400 . S
C1205 C1206 1.398 . S
C1206 H1194 0.950 1_455 S
C1206 C1205 1.398 . S
C1206 C1207 1.391 . S
C1207 H1195 0.950 . S
C1207 C1203 1.393 . S
C1207 C1206 1.391 . S
H1208 C1216 0.950 . S
H1209 C1221 0.950 . S
H1210 C1218 0.950 . S
H1211 C1220 0.950 . S
H1212 C1222 0.950 . S
H1213 C1224 0.950 . S
H1214 C1226 0.950 . S
H1215 C1227 0.950 . S
C1216 H1208 0.950 . S
C1216 C1217 1.386 . S
C1216 C1218 1.391 . S
C1217 C1216 1.386 . S
C1217 C1221 1.393 . S
C1218 H1210 0.950 . S
C1218 C1216 1.391 . S
C1218 C1219 1.400 . S
C1219 C1218 1.400 . S
C1219 C1220 1.398 . S
C1219 C1225 1.491 . S
C1220 H1211 0.950 . S
C1220 C1219 1.398 . S
C1220 C1221 1.391 . S
C1221 H1209 0.950 . S
C1221 C1217 1.393 . S
C1221 C1220 1.391 . S
C1222 H1212 0.950 . S
C1222 C1223 1.386 . S
C1222 C1224 1.391 . S
C1223 C1222 1.386 . S
C1223 C1227 1.393 . S
C1224 H1213 0.950 . S
C1224 C1222 1.391 . S
C1224 C1225 1.400 . S
C1225 C1219 1.491 . S
C1225 C1224 1.400 . S
C1225 C1226 1.398 . S
C1226 H1214 0.950 . S
C1226 C1225 1.398 . S
C1226 C1227 1.391 . S
C1227 H1215 0.950 . S
C1227 C1223 1.393 . S
C1227 C1226 1.391 . S
H1228 C1236 0.950 . S
H1229 C1241 0.950 . S
H1230 C1238 0.950 . S
H1231 C1240 0.950 . S
H1232 C1242 0.950 . S
H1233 C1244 0.950 . S
H1234 C1246 0.950 . S
H1235 C1247 0.950 . S
C1236 H1228 0.950 . S
C1236 C1237 1.386 1_556 S
C1236 C1238 1.391 . S
C1237 C1236 1.386 1_554 S
C1237 C1241 1.393 . S
C1238 H1230 0.950 . S
C1238 C1236 1.391 . S
C1238 C1239 1.400 . S
C1239 C1238 1.400 . S
C1239 C1240 1.398 . S
C1239 C1245 1.491 . S
C1240 H1231 0.950 . S
C1240 C1239 1.398 . S
C1240 C1241 1.391 1_556 S
C1241 H1229 0.950 . S
C1241 C1237 1.393 . S
C1241 C1240 1.391 1_554 S
C1242 H1232 0.950 . S
C1242 C1243 1.386 . S
C1242 C1244 1.391 . S
C1243 C1242 1.386 . S
C1243 C1247 1.393 . S
C1244 H1233 0.950 . S
C1244 C1242 1.391 . S
C1244 C1245 1.400 . S
C1245 C1239 1.491 . S
C1245 C1244 1.400 . S
C1245 C1246 1.398 . S
C1246 H1234 0.950 . S
C1246 C1245 1.398 . S
C1246 C1247 1.391 . S
C1247 H1235 0.950 . S
C1247 C1243 1.393 . S
C1247 C1246 1.391 . S
H1248 C1256 0.950 . S
H1249 C1261 0.950 . S
H1250 C1258 0.950 . S
H1251 C1260 0.950 . S
H1252 C1262 0.950 . S
H1253 C1264 0.950 . S
H1254 C1266 0.950 . S
H1255 C1267 0.950 . S
C1256 H1248 0.950 . S
C1256 C1257 1.386 . S
C1256 C1258 1.391 . S
C1257 C1256 1.386 . S
C1257 C1261 1.393 . S
C1258 H1250 0.950 . S
C1258 C1256 1.391 . S
C1258 C1259 1.400 . S
C1259 C1258 1.400 . S
C1259 C1260 1.398 . S
C1259 C1265 1.491 . S
C1260 H1251 0.950 . S
C1260 C1259 1.398 . S
C1260 C1261 1.391 . S
C1261 H1249 0.950 . S
C1261 C1257 1.393 . S
C1261 C1260 1.391 . S
C1262 H1252 0.950 . S
C1262 C1263 1.386 . S
C1262 C1264 1.391 . S
C1263 C1262 1.386 . S
C1263 C1267 1.393 . S
C1264 H1253 0.950 . S
C1264 C1262 1.391 . S
C1264 C1265 1.400 . S
C1265 C1259 1.491 . S
C1265 C1264 1.400 . S
C1265 C1266 1.398 . S
C1266 H1254 0.950 . S
C1266 C1265 1.398 . S
C1266 C1267 1.391 . S
C1267 H1255 0.950 . S
C1267 C1263 1.393 . S
C1267 C1266 1.391 . S
H1268 C1276 0.950 . S
H1269 C1281 0.950 . S
H1270 C1278 0.950 . S
H1271 C1280 0.950 . S
H1272 C1282 0.950 . S
H1273 C1284 0.950 . S
H1274 C1286 0.950 . S
H1275 C1287 0.950 . S
C1276 H1268 0.950 . S
C1276 C1277 1.386 . S
C1276 C1278 1.391 . S
C1277 C1276 1.386 . S
C1277 C1281 1.393 . S
C1278 H1270 0.950 . S
C1278 C1276 1.391 . S
C1278 C1279 1.400 . S
C1279 C1278 1.400 . S
C1279 C1280 1.398 . S
C1279 C1285 1.491 . S
C1280 H1271 0.950 . S
C1280 C1279 1.398 . S
C1280 C1281 1.391 . S
C1281 H1269 0.950 . S
C1281 C1277 1.393 . S
C1281 C1280 1.391 . S
C1282 H1272 0.950 . S
C1282 C1283 1.386 . S
C1282 C1284 1.391 . S
C1283 C1282 1.386 . S
C1283 C1287 1.393 . S
C1284 H1273 0.950 . S
C1284 C1282 1.391 . S
C1284 C1285 1.400 . S
C1285 C1279 1.491 . S
C1285 C1284 1.400 . S
C1285 C1286 1.398 . S
C1286 H1274 0.950 . S
C1286 C1285 1.398 . S
C1286 C1287 1.391 . S
C1287 H1275 0.950 . S
C1287 C1283 1.393 . S
C1287 C1286 1.391 . S
H1288 C1296 0.950 . S
H1289 C1301 0.950 . S
H1290 C1298 0.950 . S
H1291 C1300 0.950 . S
H1292 C1302 0.950 . S
H1293 C1304 0.950 . S
H1294 C1306 0.950 . S
H1295 C1307 0.950 . S
C1296 H1288 0.950 . S
C1296 C1297 1.386 . S
C1296 C1298 1.391 . S
C1297 C1296 1.386 . S
C1297 C1301 1.393 . S
C1298 H1290 0.950 . S
C1298 C1296 1.391 . S
C1298 C1299 1.400 . S
C1299 C1298 1.400 . S
C1299 C1300 1.398 . S
C1299 C1305 1.491 . S
C1300 H1291 0.950 . S
C1300 C1299 1.398 . S
C1300 C1301 1.391 . S
C1301 H1289 0.950 . S
C1301 C1297 1.393 . S
C1301 C1300 1.391 . S
C1302 H1292 0.950 . S
C1302 C1303 1.386 . S
C1302 C1304 1.391 . S
C1303 C1302 1.386 . S
C1303 C1307 1.393 . S
C1304 H1293 0.950 . S
C1304 C1302 1.391 . S
C1304 C1305 1.400 . S
C1305 C1299 1.491 . S
C1305 C1304 1.400 . S
C1305 C1306 1.398 . S
C1306 H1294 0.950 . S
C1306 C1305 1.398 . S
C1306 C1307 1.391 . S
C1307 H1295 0.950 . S
C1307 C1303 1.393 . S
C1307 C1306 1.391 . S
H1308 C1316 0.950 . S
H1309 C1321 0.950 . S
H1310 C1318 0.951 1_455 S
H1311 C1320 0.950 . S
H1312 C1322 0.950 . S
H1313 C1324 0.949 1_554 S
H1314 C1326 0.950 . S
H1315 C1327 0.950 . S
C1316 H1308 0.950 . S
C1316 C1317 1.386 . S
C1316 C1318 1.390 . S
C1317 C1316 1.386 . S
C1317 C1321 1.393 . S
C1318 H1310 0.951 1_655 S
C1318 C1316 1.390 . S
C1318 C1319 1.400 . S
C1319 C1318 1.400 . S
C1319 C1320 1.398 . S
C1319 C1325 1.491 1_655 S
C1320 H1311 0.950 . S
C1320 C1319 1.398 . S
C1320 C1321 1.391 . S
C1321 H1309 0.950 . S
C1321 C1317 1.393 . S
C1321 C1320 1.391 . S
C1322 H1312 0.950 . S
C1322 C1323 1.386 . S
C1322 C1324 1.385 1_454 S
C1323 C1322 1.386 . S
C1323 C1327 1.393 1_554 S
C1324 H1313 0.949 1_556 S
C1324 C1322 1.385 1_656 S
C1324 C1325 1.407 1_655 S
C1325 C1319 1.491 1_455 S
C1325 C1324 1.407 1_455 S
C1325 C1326 1.398 . S
C1326 H1314 0.950 . S
C1326 C1325 1.398 . S
C1326 C1327 1.391 . S
C1327 H1315 0.950 . S
C1327 C1323 1.393 1_556 S
C1327 C1326 1.391 . S
H1328 C1336 0.950 . S
H1329 C1341 0.950 . S
H1330 C1338 0.950 . S
H1331 C1340 0.950 . S
H1332 C1342 0.950 . S
H1333 C1344 0.950 . S
H1334 C1346 0.950 . S
H1335 C1347 0.950 . S
C1336 H1328 0.950 . S
C1336 C1337 1.386 . S
C1336 C1338 1.391 . S
C1337 C1336 1.386 . S
C1337 C1341 1.393 . S
C1338 H1330 0.950 . S
C1338 C1336 1.391 . S
C1338 C1339 1.400 . S
C1339 C1338 1.400 . S
C1339 C1340 1.398 . S
C1339 C1345 1.491 . S
C1340 H1331 0.950 . S
C1340 C1339 1.398 . S
C1340 C1341 1.391 . S
C1341 H1329 0.950 . S
C1341 C1337 1.393 . S
C1341 C1340 1.391 . S
C1342 H1332 0.950 . S
C1342 C1343 1.386 . S
C1342 C1344 1.391 . S
C1343 C1342 1.386 . S
C1343 C1347 1.393 . S
C1344 H1333 0.950 . S
C1344 C1342 1.391 . S
C1344 C1345 1.400 . S
C1345 C1339 1.491 . S
C1345 C1344 1.400 . S
C1345 C1346 1.398 . S
C1346 H1334 0.950 . S
C1346 C1345 1.398 . S
C1346 C1347 1.391 . S
C1347 H1335 0.950 . S
C1347 C1343 1.393 . S
C1347 C1346 1.391 . S
H1348 C1356 0.950 . S
H1349 C1361 0.950 . S
H1350 C1358 1.021 . S
H1351 C1360 0.950 . S
H1352 C1362 0.950 . S
H1353 C1364 0.950 . S
H1354 C1366 0.950 . S
H1355 C1367 0.950 . S
C1356 H1348 0.950 . S
C1356 C1357 1.386 . S
C1356 C1358 1.351 1_655 S
C1357 C1356 1.386 . S
C1357 C1361 1.393 . S
C1358 H1350 1.021 . S
C1358 C1356 1.351 1_455 S
C1358 C1359 1.373 1_455 S
C1359 C1358 1.373 1_655 S
C1359 C1360 1.398 . S
C1359 C1365 1.491 1_655 S
C1360 H1351 0.950 . S
C1360 C1359 1.398 . S
C1360 C1361 1.391 . S
C1361 H1349 0.950 . S
C1361 C1357 1.393 . S
C1361 C1360 1.391 . S
C1362 H1352 0.950 . S
C1362 C1363 1.386 . S
C1362 C1364 1.391 1_455 S
C1363 C1362 1.386 . S
C1363 C1367 1.393 . S
C1364 H1353 0.950 . S
C1364 C1362 1.391 1_655 S
C1364 C1365 1.400 1_655 S
C1365 C1359 1.491 1_455 S
C1365 C1364 1.400 1_455 S
C1365 C1366 1.398 . S
C1366 H1354 0.950 . S
C1366 C1365 1.398 . S
C1366 C1367 1.391 . S
C1367 H1355 0.950 . S
C1367 C1363 1.393 . S
C1367 C1366 1.391 . S
H1368 C1376 0.950 . S
H1369 C1381 0.950 . S
H1370 C1378 0.950 . S
H1371 C1380 0.950 . S
H1372 C1382 0.950 . S
H1373 C1384 0.950 . S
H1374 C1386 0.950 . S
H1375 C1387 0.950 . S
C1376 H1368 0.950 . S
C1376 C1377 1.386 . S
C1376 C1378 1.391 . S
C1377 C1376 1.386 . S
C1377 C1381 1.393 . S
C1378 H1370 0.950 . S
C1378 C1376 1.391 . S
C1378 C1379 1.400 . S
C1379 C1378 1.400 . S
C1379 C1380 1.398 . S
C1379 C1385 1.491 . S
C1380 H1371 0.950 . S
C1380 C1379 1.398 . S
C1380 C1381 1.391 . S
C1381 H1369 0.950 . S
C1381 C1377 1.393 . S
C1381 C1380 1.391 . S
C1382 H1372 0.950 . S
C1382 C1383 1.386 . S
C1382 C1384 1.391 . S
C1383 C1382 1.386 . S
C1383 C1387 1.393 . S
C1384 H1373 0.950 . S
C1384 C1382 1.391 . S
C1384 C1385 1.400 . S
C1385 C1379 1.491 . S
C1385 C1384 1.400 . S
C1385 C1386 1.398 . S
C1386 H1374 0.950 . S
C1386 C1385 1.398 . S
C1386 C1387 1.391 . S
C1387 H1375 0.950 . S
C1387 C1383 1.393 . S
C1387 C1386 1.391 . S
H1388 C1396 0.950 . S
H1389 C1401 0.950 . S
H1390 C1398 0.950 . S
H1391 C1400 0.950 . S
H1392 C1402 0.950 . S
H1393 C1404 0.950 . S
H1394 C1406 0.950 . S
H1395 C1407 0.950 . S
C1396 H1388 0.950 . S
C1396 C1397 1.386 . S
C1396 C1398 1.391 . S
C1397 C1396 1.386 . S
C1397 C1401 1.393 . S
C1398 H1390 0.950 . S
C1398 C1396 1.391 . S
C1398 C1399 1.400 . S
C1399 C1398 1.400 . S
C1399 C1400 1.398 . S
C1399 C1405 1.491 . S
C1400 H1391 0.950 . S
C1400 C1399 1.398 . S
C1400 C1401 1.391 . S
C1401 H1389 0.950 . S
C1401 C1397 1.393 . S
C1401 C1400 1.391 . S
C1402 H1392 0.950 . S
C1402 C1403 1.386 . S
C1402 C1404 1.391 . S
C1403 C1402 1.386 . S
C1403 C1407 1.393 1_556 S
C1404 H1393 0.950 . S
C1404 C1402 1.391 . S
C1404 C1405 1.400 1_556 S
C1405 C1399 1.491 . S
C1405 C1404 1.400 1_554 S
C1405 C1406 1.398 . S
C1406 H1394 0.950 . S
C1406 C1405 1.398 . S
C1406 C1407 1.391 . S
C1407 H1395 0.950 . S
C1407 C1403 1.393 1_554 S
C1407 C1406 1.391 . S
H1408 C1416 0.950 . S
H1409 C1421 0.950 . S
H1410 C1418 0.950 . S
H1411 C1420 0.950 . S
H1412 C1422 0.950 . S
H1413 C1424 0.950 . S
H1414 C1426 0.950 . S
H1415 C1427 0.950 . S
C1416 H1408 0.950 . S
C1416 C1417 1.386 . S
C1416 C1418 1.391 . S
C1417 C1416 1.386 . S
C1417 C1421 1.393 . S
C1418 H1410 0.950 . S
C1418 C1416 1.391 . S
C1418 C1419 1.400 . S
C1419 C1418 1.400 . S
C1419 C1420 1.398 . S
C1419 C1425 1.491 . S
C1420 H1411 0.950 . S
C1420 C1419 1.398 . S
C1420 C1421 1.391 . S
C1421 H1409 0.950 . S
C1421 C1417 1.393 . S
C1421 C1420 1.391 . S
C1422 H1412 0.950 . S
C1422 C1423 1.386 . S
C1422 C1424 1.391 . S
C1423 C1422 1.386 . S
C1423 C1427 1.393 . S
C1424 H1413 0.950 . S
C1424 C1422 1.391 . S
C1424 C1425 1.400 . S
C1425 C1419 1.491 . S
C1425 C1424 1.400 . S
C1425 C1426 1.398 . S
C1426 H1414 0.950 . S
C1426 C1425 1.398 . S
C1426 C1427 1.391 . S
C1427 H1415 0.950 . S
C1427 C1423 1.393 . S
C1427 C1426 1.391 . S
H1428 C1436 0.950 . S
H1429 C1441 0.950 . S
H1430 C1438 0.950 . S
H1431 C1440 0.950 . S
H1432 C1442 0.950 . S
H1433 C1444 0.950 . S
H1434 C1446 0.950 . S
H1435 C1447 0.950 . S
C1436 H1428 0.950 . S
C1436 C1437 1.386 . S
C1436 C1438 1.391 . S
C1437 C1436 1.386 . S
C1437 C1441 1.393 . S
C1438 H1430 0.950 . S
C1438 C1436 1.391 . S
C1438 C1439 1.400 . S
C1439 C1438 1.400 . S
C1439 C1440 1.398 . S
C1439 C1445 1.491 . S
C1440 H1431 0.950 . S
C1440 C1439 1.398 . S
C1440 C1441 1.391 . S
C1441 H1429 0.950 . S
C1441 C1437 1.393 . S
C1441 C1440 1.391 . S
C1442 H1432 0.950 . S
C1442 C1443 1.386 . S
C1442 C1444 1.391 . S
C1443 C1442 1.386 . S
C1443 C1447 1.393 . S
C1444 H1433 0.950 . S
C1444 C1442 1.391 . S
C1444 C1445 1.400 . S
C1445 C1439 1.491 . S
C1445 C1444 1.400 . S
C1445 C1446 1.398 . S
C1446 H1434 0.950 . S
C1446 C1445 1.398 . S
C1446 C1447 1.391 . S
C1447 H1435 0.950 . S
C1447 C1443 1.393 . S
C1447 C1446 1.391 . S
H1448 C1456 0.950 . S
H1449 C1461 0.950 . S
H1450 C1458 0.950 . S
H1451 C1460 0.950 . S
H1452 C1462 0.950 . S
H1453 C1464 0.950 . S
H1454 C1466 0.950 . S
H1455 C1467 0.950 . S
C1456 H1448 0.950 . S
C1456 C1457 1.386 . S
C1456 C1458 1.391 . S
C1457 C1456 1.386 . S
C1457 C1461 1.393 . S
C1458 H1450 0.950 . S
C1458 C1456 1.391 . S
C1458 C1459 1.400 . S
C1459 C1458 1.400 . S
C1459 C1460 1.398 . S
C1459 C1465 1.491 . S
C1460 H1451 0.950 . S
C1460 C1459 1.398 . S
C1460 C1461 1.391 . S
C1461 H1449 0.950 . S
C1461 C1457 1.393 . S
C1461 C1460 1.391 . S
C1462 H1452 0.950 . S
C1462 C1463 1.386 . S
C1462 C1464 1.391 . S
C1463 C1462 1.386 . S
C1463 C1467 1.393 . S
C1464 H1453 0.950 . S
C1464 C1462 1.391 . S
C1464 C1465 1.400 . S
C1465 C1459 1.491 . S
C1465 C1464 1.400 . S
C1465 C1466 1.398 . S
C1466 H1454 0.950 . S
C1466 C1465 1.398 . S
C1466 C1467 1.391 . S
C1467 H1455 0.950 . S
C1467 C1463 1.393 . S
C1467 C1466 1.391 . S
H1468 C1476 0.950 . S
H1469 C1481 0.950 . S
H1470 C1478 0.950 . S
H1471 C1480 0.950 . S
H1472 C1482 0.950 . S
H1473 C1484 0.950 . S
H1474 C1486 0.950 . S
H1475 C1487 0.950 . S
C1476 H1468 0.950 . S
C1476 C1477 1.386 . S
C1476 C1478 1.391 . S
C1477 C1476 1.386 . S
C1477 C1481 1.393 . S
C1478 H1470 0.950 . S
C1478 C1476 1.391 . S
C1478 C1479 1.400 . S
C1479 C1478 1.400 . S
C1479 C1480 1.398 . S
C1479 C1485 1.491 . S
C1480 H1471 0.950 . S
C1480 C1479 1.398 . S
C1480 C1481 1.391 . S
C1481 H1469 0.950 . S
C1481 C1477 1.393 . S
C1481 C1480 1.391 . S
C1482 H1472 0.950 . S
C1482 C1483 1.386 . S
C1482 C1484 1.391 . S
C1483 C1482 1.386 . S
C1483 C1487 1.393 . S
C1484 H1473 0.950 . S
C1484 C1482 1.391 . S
C1484 C1485 1.400 . S
C1485 C1479 1.491 . S
C1485 C1484 1.400 . S
C1485 C1486 1.398 . S
C1486 H1474 0.950 . S
C1486 C1485 1.398 . S
C1486 C1487 1.391 . S
C1487 H1475 0.950 . S
C1487 C1483 1.393 . S
C1487 C1486 1.391 . S
H1488 C1496 0.950 . S
H1489 C1501 0.950 . S
H1490 C1498 0.950 . S
H1491 C1500 0.950 . S
H1492 C1502 0.950 . S
H1493 C1504 0.950 . S
H1494 C1506 0.950 . S
H1495 C1507 0.950 . S
C1496 H1488 0.950 . S
C1496 C1497 1.386 . S
C1496 C1498 1.391 . S
C1497 C1496 1.386 . S
C1497 C1501 1.393 . S
C1498 H1490 0.950 . S
C1498 C1496 1.391 . S
C1498 C1499 1.400 . S
C1499 C1498 1.400 . S
C1499 C1500 1.398 . S
C1499 C1505 1.491 . S
C1500 H1491 0.950 . S
C1500 C1499 1.398 . S
C1500 C1501 1.391 . S
C1501 H1489 0.950 . S
C1501 C1497 1.393 . S
C1501 C1500 1.391 . S
C1502 H1492 0.950 . S
C1502 C1503 1.386 . S
C1502 C1504 1.391 . S
C1503 C1502 1.386 . S
C1503 C1507 1.393 . S
C1504 H1493 0.950 . S
C1504 C1502 1.391 . S
C1504 C1505 1.400 . S
C1505 C1499 1.491 . S
C1505 C1504 1.400 . S
C1505 C1506 1.398 . S
C1506 H1494 0.950 . S
C1506 C1505 1.398 . S
C1506 C1507 1.391 . S
C1507 H1495 0.950 . S
C1507 C1503 1.393 . S
C1507 C1506 1.391 . S
H1508 C1516 0.950 . S
H1509 C1521 0.950 . S
H1510 C1518 0.950 . S
H1511 C1520 0.950 . S
H1512 C1522 0.950 . S
H1513 C1524 0.950 . S
H1514 C1526 0.950 . S
H1515 C1527 0.950 . S
C1516 H1508 0.950 . S
C1516 C1517 1.386 . S
C1516 C1518 1.391 . S
C1517 C1516 1.386 . S
C1517 C1521 1.393 . S
C1518 H1510 0.950 . S
C1518 C1516 1.391 . S
C1518 C1519 1.400 . S
C1519 C1518 1.400 . S
C1519 C1520 1.398 . S
C1519 C1525 1.491 . S
C1520 H1511 0.950 . S
C1520 C1519 1.398 . S
C1520 C1521 1.391 . S
C1521 H1509 0.950 . S
C1521 C1517 1.393 . S
C1521 C1520 1.391 . S
C1522 H1512 0.950 . S
C1522 C1523 1.386 . S
C1522 C1524 1.391 . S
C1523 C1522 1.386 . S
C1523 C1527 1.393 . S
C1524 H1513 0.950 . S
C1524 C1522 1.391 . S
C1524 C1525 1.400 . S
C1525 C1519 1.491 . S
C1525 C1524 1.400 . S
C1525 C1526 1.398 . S
C1526 H1514 0.950 . S
C1526 C1525 1.398 . S
C1526 C1527 1.391 . S
C1527 H1515 0.950 . S
C1527 C1523 1.393 . S
C1527 C1526 1.391 . S
H1528 C1536 0.950 . S
H1529 C1541 0.950 . S
H1530 C1538 0.950 . S
H1531 C1540 0.950 . S
H1532 C1542 0.950 . S
H1533 C1544 0.950 . S
H1534 C1546 0.950 . S
H1535 C1547 0.950 . S
C1536 H1528 0.950 . S
C1536 C1537 1.386 . S
C1536 C1538 1.391 . S
C1537 C1536 1.386 . S
C1537 C1541 1.393 . S
C1538 H1530 0.950 . S
C1538 C1536 1.391 . S
C1538 C1539 1.400 . S
C1539 C1538 1.400 . S
C1539 C1540 1.398 . S
C1539 C1545 1.491 . S
C1540 H1531 0.950 . S
C1540 C1539 1.398 . S
C1540 C1541 1.391 . S
C1541 H1529 0.950 . S
C1541 C1537 1.393 . S
C1541 C1540 1.391 . S
C1542 H1532 0.950 . S
C1542 C1543 1.386 . S
C1542 C1544 1.391 . S
C1543 C1542 1.386 . S
C1543 C1547 1.393 . S
C1544 H1533 0.950 . S
C1544 C1542 1.391 . S
C1544 C1545 1.400 . S
C1545 C1539 1.491 . S
C1545 C1544 1.400 . S
C1545 C1546 1.398 . S
C1546 H1534 0.950 . S
C1546 C1545 1.398 . S
C1546 C1547 1.391 . S
C1547 H1535 0.950 . S
C1547 C1543 1.393 . S
C1547 C1546 1.391 . S
H1548 C1556 0.950 . S
H1549 C1561 0.950 . S
H1550 C1558 0.950 . S
H1551 C1560 0.950 . S
H1552 C1562 0.950 . S
H1553 C1564 0.950 . S
H1554 C1566 0.950 . S
H1555 C1567 0.950 . S
C1556 H1548 0.950 . S
C1556 C1557 1.386 . S
C1556 C1558 1.391 . S
C1557 C1556 1.386 . S
C1557 C1561 1.393 . S
C1558 H1550 0.950 . S
C1558 C1556 1.391 . S
C1558 C1559 1.400 . S
C1559 C1558 1.400 . S
C1559 C1560 1.398 . S
C1559 C1565 1.491 . S
C1560 H1551 0.950 . S
C1560 C1559 1.398 . S
C1560 C1561 1.391 . S
C1561 H1549 0.950 . S
C1561 C1557 1.393 . S
C1561 C1560 1.391 . S
C1562 H1552 0.950 . S
C1562 C1563 1.386 . S
C1562 C1564 1.391 . S
C1563 C1562 1.386 . S
C1563 C1567 1.393 . S
C1564 H1553 0.950 . S
C1564 C1562 1.391 . S
C1564 C1565 1.400 . S
C1565 C1559 1.491 . S
C1565 C1564 1.400 . S
C1565 C1566 1.398 . S
C1566 H1554 0.950 . S
C1566 C1565 1.398 . S
C1566 C1567 1.391 . S
C1567 H1555 0.950 . S
C1567 C1563 1.393 . S
C1567 C1566 1.391 . S
H1568 C1576 0.950 . S
H1569 C1581 0.950 . S
H1570 C1578 0.950 . S
H1571 C1580 0.950 . S
H1572 C1582 0.950 . S
H1573 C1584 0.950 . S
H1574 C1586 0.950 . S
H1575 C1587 0.950 . S
C1576 H1568 0.950 . S
C1576 C1577 1.386 . S
C1576 C1578 1.391 . S
C1577 C1576 1.386 . S
C1577 C1581 1.393 . S
C1578 H1570 0.950 . S
C1578 C1576 1.391 . S
C1578 C1579 1.400 . S
C1579 C1578 1.400 . S
C1579 C1580 1.398 . S
C1579 C1585 1.491 . S
C1580 H1571 0.950 . S
C1580 C1579 1.398 . S
C1580 C1581 1.391 . S
C1581 H1569 0.950 . S
C1581 C1577 1.393 . S
C1581 C1580 1.391 . S
C1582 H1572 0.950 . S
C1582 C1583 1.386 . S
C1582 C1584 1.391 . S
C1583 C1582 1.386 . S
C1583 C1587 1.393 . S
C1584 H1573 0.950 . S
C1584 C1582 1.391 . S
C1584 C1585 1.400 . S
C1585 C1579 1.491 . S
C1585 C1584 1.400 . S
C1585 C1586 1.398 . S
C1586 H1574 0.950 . S
C1586 C1585 1.398 . S
C1586 C1587 1.391 . S
C1587 H1575 0.950 . S
C1587 C1583 1.393 . S
C1587 C1586 1.391 . S
H1588 C1596 0.950 . S
H1589 C1601 0.950 . S
H1590 C1598 0.950 . S
H1591 C1600 0.950 . S
H1592 C1602 0.950 . S
H1593 C1604 0.950 . S
H1594 C1606 0.950 . S
H1595 C1607 0.950 . S
C1596 H1588 0.950 . S
C1596 C1597 1.386 . S
C1596 C1598 1.391 . S
C1597 C1596 1.386 . S
C1597 C1601 1.393 . S
C1598 H1590 0.950 . S
C1598 C1596 1.391 . S
C1598 C1599 1.400 . S
C1599 C1598 1.400 . S
C1599 C1600 1.398 . S
C1599 C1605 1.491 . S
C1600 H1591 0.950 . S
C1600 C1599 1.398 . S
C1600 C1601 1.391 . S
C1601 H1589 0.950 . S
C1601 C1597 1.393 . S
C1601 C1600 1.391 . S
C1602 H1592 0.950 . S
C1602 C1603 1.386 . S
C1602 C1604 1.391 . S
C1603 C1602 1.386 . S
C1603 C1607 1.393 . S
C1604 H1593 0.950 . S
C1604 C1602 1.391 . S
C1604 C1605 1.400 . S
C1605 C1599 1.491 . S
C1605 C1604 1.400 . S
C1605 C1606 1.398 . S
C1606 H1594 0.950 . S
C1606 C1605 1.398 . S
C1606 C1607 1.391 . S
C1607 H1595 0.950 . S
C1607 C1603 1.393 . S
C1607 C1606 1.391 . S
H1608 C1616 0.950 . S
H1609 C1621 0.950 . S
H1610 C1618 0.950 . S
H1611 C1620 0.950 . S
H1612 C1622 0.950 . S
H1613 C1624 0.950 . S
H1614 C1626 0.950 . S
H1615 C1627 0.950 . S
C1616 H1608 0.950 . S
C1616 C1617 1.386 . S
C1616 C1618 1.391 . S
C1617 C1616 1.386 . S
C1617 C1621 1.393 . S
C1618 H1610 0.950 . S
C1618 C1616 1.391 . S
C1618 C1619 1.400 . S
C1619 C1618 1.400 . S
C1619 C1620 1.398 . S
C1619 C1625 1.491 . S
C1620 H1611 0.950 . S
C1620 C1619 1.398 . S
C1620 C1621 1.391 . S
C1621 H1609 0.950 . S
C1621 C1617 1.393 . S
C1621 C1620 1.391 . S
C1622 H1612 0.950 . S
C1622 C1623 1.386 . S
C1622 C1624 1.391 . S
C1623 C1622 1.386 . S
C1623 C1627 1.393 . S
C1624 H1613 0.950 . S
C1624 C1622 1.391 . S
C1624 C1625 1.400 . S
C1625 C1619 1.491 . S
C1625 C1624 1.400 . S
C1625 C1626 1.398 . S
C1626 H1614 0.950 . S
C1626 C1625 1.398 . S
C1626 C1627 1.391 . S
C1627 H1615 0.950 . S
C1627 C1623 1.393 . S
C1627 C1626 1.391 . S
H1628 C1636 0.950 . S
H1629 C1641 0.950 . S
H1630 C1638 0.950 . S
H1631 C1640 0.950 . S
H1632 C1642 0.950 . S
H1633 C1644 0.950 . S
H1634 C1646 0.950 . S
H1635 C1647 0.950 . S
C1636 H1628 0.950 . S
C1636 C1637 1.386 . S
C1636 C1638 1.391 . S
C1637 C1636 1.386 . S
C1637 C1641 1.393 . S
C1638 H1630 0.950 . S
C1638 C1636 1.391 . S
C1638 C1639 1.400 . S
C1639 C1638 1.400 . S
C1639 C1640 1.398 . S
C1639 C1645 1.491 . S
C1640 H1631 0.950 . S
C1640 C1639 1.398 . S
C1640 C1641 1.391 . S
C1641 H1629 0.950 . S
C1641 C1637 1.393 . S
C1641 C1640 1.391 . S
C1642 H1632 0.950 . S
C1642 C1643 1.386 . S
C1642 C1644 1.391 . S
C1643 C1642 1.386 . S
C1643 C1647 1.393 . S
C1644 H1633 0.950 . S
C1644 C1642 1.391 . S
C1644 C1645 1.400 . S
C1645 C1639 1.491 . S
C1645 C1644 1.400 . S
C1645 C1646 1.398 . S
C1646 H1634 0.950 . S
C1646 C1645 1.398 . S
C1646 C1647 1.391 . S
C1647 H1635 0.950 . S
C1647 C1643 1.393 . S
C1647 C1646 1.391 . S
H1648 C1656 0.950 . S
H1649 C1661 0.950 . S
H1650 C1658 0.950 . S
H1651 C1660 0.950 . S
H1652 C1662 0.950 . S
H1653 C1664 0.950 . S
H1654 C1666 0.950 . S
H1655 C1667 0.950 . S
C1656 H1648 0.950 . S
C1656 C1657 1.386 . S
C1656 C1658 1.391 . S
C1657 C1656 1.386 . S
C1657 C1661 1.393 . S
C1658 H1650 0.950 . S
C1658 C1656 1.391 . S
C1658 C1659 1.400 . S
C1659 C1658 1.400 . S
C1659 C1660 1.398 . S
C1659 C1665 1.491 . S
C1660 H1651 0.950 . S
C1660 C1659 1.398 . S
C1660 C1661 1.391 . S
C1661 H1649 0.950 . S
C1661 C1657 1.393 . S
C1661 C1660 1.391 . S
C1662 H1652 0.950 . S
C1662 C1663 1.386 . S
C1662 C1664 1.391 . S
C1663 C1662 1.386 . S
C1663 C1667 1.393 . S
C1664 H1653 0.950 . S
C1664 C1662 1.391 . S
C1664 C1665 1.400 . S
C1665 C1659 1.491 . S
C1665 C1664 1.400 . S
C1665 C1666 1.398 . S
C1666 H1654 0.950 . S
C1666 C1665 1.398 . S
C1666 C1667 1.391 . S
C1667 H1655 0.950 . S
C1667 C1663 1.393 . S
C1667 C1666 1.391 . S
H1668 C1676 0.950 . S
H1669 C1681 0.950 . S
H1670 C1678 0.950 . S
H1671 C1680 0.950 . S
H1672 C1682 0.950 . S
H1673 C1684 0.950 . S
H1674 C1686 0.950 . S
H1675 C1687 0.950 . S
C1676 H1668 0.950 . S
C1676 C1677 1.386 . S
C1676 C1678 1.391 . S
C1677 C1676 1.386 . S
C1677 C1681 1.393 . S
C1678 H1670 0.950 . S
C1678 C1676 1.391 . S
C1678 C1679 1.400 . S
C1679 C1678 1.400 . S
C1679 C1680 1.398 . S
C1679 C1685 1.491 . S
C1680 H1671 0.950 . S
C1680 C1679 1.398 . S
C1680 C1681 1.391 . S
C1681 H1669 0.950 . S
C1681 C1677 1.393 . S
C1681 C1680 1.391 . S
C1682 H1672 0.950 . S
C1682 C1683 1.386 . S
C1682 C1684 1.391 . S
C1683 C1682 1.386 . S
C1683 C1687 1.393 . S
C1684 H1673 0.950 . S
C1684 C1682 1.391 . S
C1684 C1685 1.400 . S
C1685 C1679 1.491 . S
C1685 C1684 1.400 . S
C1685 C1686 1.398 . S
C1686 H1674 0.950 . S
C1686 C1685 1.398 . S
C1686 C1687 1.391 . S
C1687 H1675 0.950 . S
C1687 C1683 1.393 . S
C1687 C1686 1.391 . S
H1688 C1696 0.950 . S
H1689 C1701 0.950 . S
H1690 C1698 0.950 . S
H1691 C1700 0.950 . S
H1692 C1702 0.950 . S
H1693 C1704 0.950 . S
H1694 C1706 0.950 . S
H1695 C1707 0.950 . S
C1696 H1688 0.950 . S
C1696 C1697 1.386 . S
C1696 C1698 1.391 . S
C1697 C1696 1.386 . S
C1697 C1701 1.393 . S
C1698 H1690 0.950 . S
C1698 C1696 1.391 . S
C1698 C1699 1.400 . S
C1699 C1698 1.400 . S
C1699 C1700 1.398 . S
C1699 C1705 1.491 . S
C1700 H1691 0.950 . S
C1700 C1699 1.398 . S
C1700 C1701 1.391 . S
C1701 H1689 0.950 . S
C1701 C1697 1.393 . S
C1701 C1700 1.391 . S
C1702 H1692 0.950 . S
C1702 C1703 1.386 . S
C1702 C1704 1.391 . S
C1703 C1702 1.386 . S
C1703 C1707 1.393 . S
C1704 H1693 0.950 . S
C1704 C1702 1.391 . S
C1704 C1705 1.400 . S
C1705 C1699 1.491 . S
C1705 C1704 1.400 . S
C1705 C1706 1.398 . S
C1706 H1694 0.950 . S
C1706 C1705 1.398 . S
C1706 C1707 1.391 . S
C1707 H1695 0.950 . S
C1707 C1703 1.393 . S
C1707 C1706 1.391 . S
H1708 C1716 0.950 . S
H1709 C1721 0.950 . S
H1710 C1718 0.950 . S
H1711 C1720 0.950 . S
H1712 C1722 0.950 . S
H1713 C1724 0.950 . S
H1714 C1726 0.950 . S
H1715 C1727 0.950 . S
C1716 H1708 0.950 . S
C1716 C1717 1.386 . S
C1716 C1718 1.391 . S
C1717 C1716 1.386 . S
C1717 C1721 1.393 . S
C1718 H1710 0.950 . S
C1718 C1716 1.391 . S
C1718 C1719 1.400 . S
C1719 C1718 1.400 . S
C1719 C1720 1.398 . S
C1719 C1725 1.491 . S
C1720 H1711 0.950 . S
C1720 C1719 1.398 . S
C1720 C1721 1.391 . S
C1721 H1709 0.950 . S
C1721 C1717 1.393 . S
C1721 C1720 1.391 . S
C1722 H1712 0.950 . S
C1722 C1723 1.386 . S
C1722 C1724 1.391 . S
C1723 C1722 1.386 . S
C1723 C1727 1.393 . S
C1724 H1713 0.950 . S
C1724 C1722 1.391 . S
C1724 C1725 1.400 . S
C1725 C1719 1.491 . S
C1725 C1724 1.400 . S
C1725 C1726 1.398 . S
C1726 H1714 0.950 . S
C1726 C1725 1.398 . S
C1726 C1727 1.391 . S
C1727 H1715 0.950 . S
C1727 C1723 1.393 . S
C1727 C1726 1.391 . S
C457 C92 1.173 . S
C463 C8 1.205 . S
C477 C22 1.204 . S
C483 C106 1.172 . S
C497 C64 1.179 . S
C503 C36 1.204 . S
C517 C50 1.186 . S
C523 C78 1.199 . S
C537 C204 1.205 . S
C543 C120 1.177 . S
C557 C218 1.177 . S
C563 C134 1.205 . S
C577 C148 1.202 . S
C583 C176 1.182 . S
C597 C162 1.179 . S
C603 C190 1.191 . S
C617 C232 1.183 . S
C623 C316 1.201 . S
C637 C246 1.202 . S
C643 C330 1.172 . S
C657 C288 1.186 . S
C663 C260 1.199 . S
C677 C302 1.199 . S
C683 C274 1.174 . S
C697 C344 1.205 . S
C703 C428 1.173 . S
C717 C442 1.203 . S
C723 C358 1.180 . S
C737 C400 1.176 . S
C743 C372 1.195 . S
C757 C386 1.192 . S
C763 C414 1.178 . S
C777 C7 1.363 . S
C783 C433 1.281 . S
C797 C223 1.288 . S
C803 C21 1.373 . S
C817 C35 1.363 . S
C823 C405 1.317 . S
C837 C49 1.375 . S
C843 C195 1.315 . S
C857 C377 1.319 . S
C863 C63 1.371 . S
C877 C167 1.319 . S
C883 C77 1.371 . S
C897 C91 1.358 . S
C903 C349 1.286 . S
C917 C139 1.319 . S
C923 C105 1.369 . S
C937 C119 1.377 . S
C943 C321 1.310 . S
C957 C111 1.319 . S
C963 C133 1.366 . S
C977 C147 1.361 . S
C983 C293 1.282 . S
C997 C161 1.360 . S
C1003 C83 1.313 . S
C1017 C265 1.287 . S
C1023 C175 1.372 . S
C1037 C189 1.356 . S
C1043 C55 1.293 . S
C1057 C203 1.364 . S
C1063 C237 1.281 . S
C1077 C27 1.290 . S
C1083 C217 1.356 . S
C1097 C231 1.359 . S
C1103 C209 1.311 . S
C1117 C245 1.377 . S
C1123 C447 1.303 . S
C1137 C181 1.297 . S
C1143 C259 1.376 . S
C1157 C273 1.375 . S
C1163 C419 1.292 . S
C1177 C153 1.282 . S
C1183 C287 1.361 . S
C1197 C391 1.281 . S
C1203 C301 1.364 . S
C1217 C125 1.304 . S
C1223 C315 1.377 . S
C1237 C363 1.298 . S
C1243 C329 1.377 . S
C1257 C343 1.377 . S
C1263 C97 1.300 . S
C1277 C335 1.317 . S
C1283 C357 1.373 . S
C1297 C69 1.286 . S
C1303 C371 1.372 . S
C1317 C385 1.363 . S
C1323 C307 1.316 . S
C1337 C399 1.360 . S
C1343 C41 1.283 . S
C1357 C413 1.357 . S
C1363 C279 1.306 . S
C1377 C13 1.305 . S
C1383 C427 1.357 . S
C1397 C441 1.360 . S
C1403 C251 1.312 . S
C1417 C11 1.258 . S
C1423 C305 1.249 . S
C1437 C319 1.257 . S
C1443 C25 1.251 . S
C1457 C39 1.249 . S
C1463 C333 1.258 . S
C1477 C291 1.252 . S
C1483 C53 1.254 . S
C1497 C277 1.256 . S
C1503 C67 1.252 . S
C1517 C235 1.248 . S
C1523 C81 1.259 . S
C1537 C249 1.253 . S
C1543 C95 1.255 . S
C1557 C263 1.258 . S
C1563 C109 1.248 . S
C1577 C123 1.255 . S
C1583 C417 1.251 . S
C1597 C431 1.249 . S
C1603 C137 1.258 . S
C1617 C445 1.258 . S
C1623 C151 1.249 . S
C1637 C403 1.258 . S
C1643 C165 1.249 . S
C1657 C389 1.256 . S
C1663 C179 1.250 . S
C1677 C347 1.259 . S
C1683 C193 1.248 . S
C1697 C207 1.250 . S
C1703 C361 1.257 . S
C1717 C221 1.250 . S
C1723 C375 1.256 . S
