# Generated by pormake.
# Topology umf, (4)-cn, num edge types: 1
# Building blocks:
#     Node 0, Type 0, BuildingBlock: ESEHIV_clean_sbu_0, # of connection points: 4
#     Node 1, Type 0, BuildingBlock: ESEHIV_clean_sbu_0, # of connection points: 4
#     Node 2, Type 0, BuildingBlock: ESEHIV_clean_sbu_0, # of connection points: 4
#     Node 3, Type 0, BuildingBlock: ESEHIV_clean_sbu_0, # of connection points: 4
#     Node 4, Type 0, BuildingBlock: ESEHIV_clean_sbu_0, # of connection points: 4
#     Node 5, Type 0, BuildingBlock: ESEHIV_clean_sbu_0, # of connection points: 4
#     Node 6, Type 0, BuildingBlock: ESEHIV_clean_sbu_0, # of connection points: 4
#     Node 7, Type 0, BuildingBlock: ESEHIV_clean_sbu_0, # of connection points: 4
#     Edge 8, Type (0, 0), BuildingBlock: FUNLAD_clean_linker_1, # of connection points: 2
#     Edge 9, Type (0, 0), BuildingBlock: FUNLAD_clean_linker_1, # of connection points: 2
#     Edge 10, Type (0, 0), BuildingBlock: FUNLAD_clean_linker_1, # of connection points: 2
#     Edge 11, Type (0, 0), BuildingBlock: FUNLAD_clean_linker_1, # of connection points: 2
#     Edge 12, Type (0, 0), BuildingBlock: FUNLAD_clean_linker_1, # of connection points: 2
#     Edge 13, Type (0, 0), BuildingBlock: FUNLAD_clean_linker_1, # of connection points: 2
#     Edge 14, Type (0, 0), BuildingBlock: FUNLAD_clean_linker_1, # of connection points: 2
#     Edge 15, Type (0, 0), BuildingBlock: FUNLAD_clean_linker_1, # of connection points: 2
#     Edge 16, Type (0, 0), BuildingBlock: FUNLAD_clean_linker_1, # of connection points: 2
#     Edge 17, Type (0, 0), BuildingBlock: FUNLAD_clean_linker_1, # of connection points: 2
#     Edge 18, Type (0, 0), BuildingBlock: FUNLAD_clean_linker_1, # of connection points: 2
#     Edge 19, Type (0, 0), BuildingBlock: FUNLAD_clean_linker_1, # of connection points: 2
#     Edge 20, Type (0, 0), BuildingBlock: FUNLAD_clean_linker_1, # of connection points: 2
#     Edge 21, Type (0, 0), BuildingBlock: FUNLAD_clean_linker_1, # of connection points: 2
#     Edge 22, Type (0, 0), BuildingBlock: FUNLAD_clean_linker_1, # of connection points: 2
#     Edge 23, Type (0, 0), BuildingBlock: FUNLAD_clean_linker_1, # of connection points: 2
# Relax obj value: 0.065
# Max RMSD: 0.103
# Mean RMSD: 0.103
data_MOF--net-umf--node1-ESEHIV_clean_sbu_0--edge1-FUNLAD_clean_linker_1
_symmetry_space_group_name_H-M    P1
_symmetry_Int_Tables_number       1
_symmetry_cell_setting            triclinic
loop_
_symmetry_equiv_pos_as_xyz
'x, y, z'
_cell_length_a     35.156478
_cell_length_b     35.095897
_cell_length_c     53.145639
_cell_angle_alpha  90.213199
_cell_angle_beta   90.121544
_cell_angle_gamma 89.925007
loop_
_atom_site_label
_atom_site_type_symbol
_atom_site_fract_x
_atom_site_fract_y
_atom_site_fract_z
_atom_type_partial_charge
Cu0 Cu 0.039 0.26245 0.17752 0.0
N1 N 1.01166 0.21862 0.18521 0.0
N2 N 1.00101 0.15765 0.1944 0.0
C3 C 0.02701 0.1856 0.193 0.0
C4 C 0.96768 0.17365 0.18742 0.0
C5 C 0.97442 0.21143 0.18171 0.0
O6 O 0.08787 0.2563 0.19435 0.0
C7 C 0.05874 0.28892 0.12766 0.0
O8 O 0.08287 0.31226 0.13856 0.0
H9 H 0.05702 0.18151 0.19651 0.0
H10 H 0.95394 0.23188 0.17475 0.0
N11 N 0.01433 0.30488 0.19111 0.0
N12 N 0.99881 0.36504 0.20043 0.0
C13 C 0.02015 0.34193 0.18572 0.0
C14 C 0.9886 0.30462 0.20981 0.0
C15 C 0.97905 0.3417 0.21562 0.0
C16 C 0.11382 0.23383 0.18666 0.0
O17 O 0.1111 0.21875 0.16408 0.0
H18 H 0.04049 0.35161 0.17194 0.0
H19 H 0.9782 0.27923 0.21897 0.0
O20 O 0.03967 0.26573 0.14094 0.0
H21 H 0.94066 0.1591 0.18591 0.0
H22 H 0.95959 0.35091 0.23019 0.0
Cu23 Cu 0.76785 0.03652 0.68415 0.0
N24 N 0.80788 1.00177 0.68728 0.0
N25 N 0.86723 0.97937 0.68984 0.0
C26 C 0.84488 1.01067 0.68983 0.0
C27 C 0.8434 0.94962 0.68715 0.0
C28 C 0.80678 0.96349 0.68552 0.0
O29 O 0.77453 0.07618 0.70972 0.0
C30 C 0.76189 0.02732 0.63266 0.0
O31 O 0.75697 0.99207 0.64023 0.0
H32 H 0.85512 0.03956 0.69092 0.0
H33 H 0.7813 0.94687 0.6825 0.0
N34 N 0.72185 1.01247 0.69128 0.0
N35 N 0.65948 1.00117 0.69328 0.0
C36 C 0.68703 0.02319 0.68341 0.0
C37 C 0.71609 0.98293 0.70688 0.0
C38 C 0.67762 0.97575 0.70809 0.0
C39 C 0.8008 0.10106 0.7109 0.0
O40 O 0.82465 0.10481 0.69209 0.0
H41 H 0.6819 0.04729 0.6712 0.0
H42 H 0.73819 0.96847 0.71733 0.0
O43 O 0.76675 0.0534 0.64915 0.0
H44 H 0.85201 0.92004 0.68589 0.0
H45 H 0.66418 0.95456 0.71981 0.0
Cu46 Cu 0.97824 0.76864 0.18501 0.0
N47 N 1.01075 0.80777 0.19494 0.0
N48 N 0.0268 0.86733 0.20513 0.0
C49 C 0.99914 0.84094 0.20508 0.0
C50 C 0.05754 0.84995 0.19508 0.0
C51 C 0.04747 0.81305 0.18879 0.0
O52 O 0.93068 0.77792 0.20283 0.0
C53 C 0.95174 0.75506 0.13404 0.0
O54 O 0.92223 0.73773 0.14382 0.0
H55 H 0.97007 0.84681 0.21037 0.0
H56 H 0.06483 0.79247 0.17885 0.0
N57 N 0.99777 0.72162 0.1949 0.0
N58 N 1.00889 0.65901 0.19625 0.0
C59 C 0.99207 0.6877 0.18358 0.0
C60 C 0.0191 0.71422 0.21534 0.0
C61 C 0.02607 0.67556 0.21625 0.0
C62 C 0.90779 0.80474 0.19728 0.0
O63 O 0.91247 0.8234 0.17615 0.0
H64 H 0.9754 0.68398 0.1666 0.0
H65 H 0.02858 0.73545 0.22876 0.0
O66 O 0.97641 0.77033 0.1484 0.0
H67 H 0.08458 0.86335 0.19121 0.0
H68 H 0.04247 0.66102 0.23054 0.0
Cu69 Cu 0.25613 0.96856 0.67729 0.0
N70 N 0.21721 1.00355 0.68305 0.0
N71 N 0.15821 0.02565 0.68828 0.0
C72 C 0.18023 0.99445 0.68516 0.0
C73 C 0.1823 0.05548 0.68813 0.0
C74 C 0.21876 0.04178 0.68485 0.0
O75 O 0.2427 0.92253 0.69571 0.0
C76 C 0.2654 0.98927 0.62709 0.0
O77 O 0.27041 0.02279 0.63767 0.0
H78 H 0.16996 0.96548 0.68397 0.0
H79 H 0.24443 0.05855 0.68339 0.0
N80 N 0.3025 0.98744 0.68902 0.0
N81 N 0.36501 0.99594 0.69359 0.0
C82 C 0.3374 0.97647 0.68151 0.0
C83 C 0.30826 0.01448 0.70664 0.0
C84 C 0.34684 0.01985 0.7095 0.0
C85 C 0.23809 0.92522 0.71943 0.0
O86 O 0.24451 0.95811 0.73054 0.0
H87 H 0.34248 0.95458 0.66751 0.0
H88 H 0.28598 0.02891 0.71695 0.0
O89 O 0.25935 0.96044 0.64103 0.0
H90 H 0.17398 0.08509 0.68981 0.0
H91 H 0.36028 0.03913 0.72272 0.0
Cu92 Cu 0.0373 0.77795 0.89863 0.0
N93 N 1.0101 0.8214 0.89001 0.0
N94 N 1.00042 0.88287 0.88177 0.0
C95 C 0.02619 0.85466 0.88357 0.0
C96 C 0.96651 0.86673 0.88708 0.0
C97 C 0.97266 0.82865 0.89224 0.0
O98 O 0.08754 0.78551 0.88373 0.0
C99 C 0.05747 0.75559 0.94931 0.0
O100 O 0.08536 0.73578 0.93935 0.0
H101 H 0.05658 0.85862 0.88161 0.0
H102 H 0.95164 0.80813 0.89823 0.0
N103 N 0.01376 0.73472 0.88528 0.0
N104 N 1.00045 0.67398 0.87633 0.0
C105 C 0.02255 0.69801 0.88986 0.0
C106 C 0.98523 0.73384 0.86836 0.0
C107 C 0.97706 0.6964 0.86277 0.0
C108 C 0.09143 0.77959 0.86018 0.0
O109 O 0.06331 0.76385 0.8476 0.0
H110 H 0.04515 0.68937 0.90245 0.0
H111 H 0.9718 0.75873 0.86032 0.0
O112 O 0.03588 0.77534 0.93522 0.0
H113 H 0.93949 0.88142 0.88804 0.0
H114 H 0.9558 0.68632 0.84957 0.0
Cu115 Cu 0.25647 0.04807 0.38053 0.0
N116 N 0.21853 1.01168 0.3755 0.0
N117 N 0.16027 0.98724 0.37136 0.0
C118 C 0.18135 0.01935 0.37219 0.0
C119 C 0.18506 0.95833 0.3744 0.0
C120 C 0.22108 0.97346 0.37683 0.0
O121 O 0.24247 0.09277 0.36078 0.0
C122 C 0.2673 0.03104 0.43123 0.0
O123 O 0.2751 0.99748 0.42149 0.0
H124 H 0.16998 0.04799 0.37168 0.0
H125 H 0.24707 0.95777 0.38021 0.0
N126 N 0.30357 0.02948 0.36982 0.0
N127 N 0.36638 0.02178 0.36618 0.0
C128 C 0.33813 0.04188 0.37712 0.0
C129 C 0.31019 1.0008 0.35352 0.0
C130 C 0.34893 0.99594 0.35123 0.0
C131 C 0.23765 0.08849 0.33716 0.0
O132 O 0.24381 0.05482 0.32705 0.0
H133 H 0.34252 0.06514 0.39024 0.0
H134 H 0.28836 0.98475 0.34382 0.0
O135 O 0.25902 0.05851 0.41658 0.0
H136 H 0.17747 0.92849 0.37547 0.0
H137 H 0.36297 0.97552 0.33909 0.0
Cu138 Cu 0.97558 0.27493 0.8934 0.0
N139 N 1.00883 0.23409 0.88912 0.0
N140 N 0.02636 0.17383 0.88252 0.0
C141 C 1.00094 0.20127 0.87709 0.0
C142 C 0.05204 0.19025 0.89807 0.0
C143 C 0.04107 0.22754 0.9021 0.0
O144 O 0.93248 0.26771 0.87048 0.0
C145 C 0.96061 0.24948 0.9431 0.0
O146 O 0.95721 0.21584 0.9325 0.0
H147 H 0.97546 0.19646 0.86615 0.0
H148 H 0.05393 0.24752 0.91511 0.0
N149 N 0.9999 0.31962 0.88388 0.0
N150 N 0.01572 0.38107 0.88233 0.0
C151 C 0.99721 0.35385 0.89525 0.0
C152 C 0.02115 0.32526 0.86321 0.0
C153 C 0.03101 0.36325 0.86218 0.0
C154 C 0.91031 0.23906 0.86999 0.0
O155 O 0.91147 0.2142 0.88838 0.0
H156 H 0.98095 0.35897 0.91221 0.0
H157 H 0.02824 0.3034 0.8496 0.0
O158 O 0.96494 0.27881 0.92935 0.0
H159 H 0.07548 0.17594 0.90727 0.0
H160 H 0.04784 0.37659 0.84765 0.0
Cu161 Cu 0.77006 0.98452 0.38396 0.0
N162 N 0.81033 0.01813 0.37888 0.0
N163 N 0.86984 0.03797 0.37267 0.0
C164 C 0.84685 1.00763 0.37589 0.0
C165 C 0.84692 0.06872 0.37353 0.0
C166 C 0.81016 0.05643 0.37753 0.0
O167 O 0.77979 0.94128 0.36175 0.0
C168 C 0.76393 1.00057 0.43499 0.0
O169 O 0.75981 0.03504 0.42579 0.0
H170 H 0.85615 0.97827 0.3759 0.0
H171 H 0.78518 0.07419 0.37952 0.0
N172 N 0.72397 1.00669 0.37434 0.0
N173 N 0.66152 0.01709 0.37055 0.0
C174 C 0.68892 0.99645 0.38196 0.0
C175 C 0.7185 0.03446 0.35731 0.0
C176 C 0.68 0.04106 0.35498 0.0
C177 C 0.80252 0.91407 0.36672 0.0
O178 O 0.81769 0.91167 0.38925 0.0
H179 H 0.68357 0.97378 0.39525 0.0
H180 H 0.74086 0.04818 0.34677 0.0
O181 O 0.76834 0.97269 0.41982 0.0
H182 H 0.85622 0.09798 0.37173 0.0
H183 H 0.66682 0.06091 0.3421 0.0
H184 H 0.9844 0.41941 0.21785 0.0
C185 C 0.99832 0.40606 0.20182 0.0
H186 H 0.02836 0.41588 0.16804 0.0
H187 H 0.94572 0.58099 0.20304 0.0
H188 H 0.88583 0.54895 0.1954 0.0
H189 H 0.88427 0.48135 0.18258 0.0
H190 H 0.94267 0.44518 0.17794 0.0
C191 C 0.01406 0.42839 0.18415 0.0
C192 C 0.01496 0.4707 0.18722 0.0
C193 C 0.98067 0.49204 0.18843 0.0
C194 C 0.9817 0.53162 0.19441 0.0
C195 C 0.94684 0.5514 0.19739 0.0
C196 C 0.91216 0.53327 0.19323 0.0
C197 C 0.91127 0.49517 0.18612 0.0
C198 C 0.94501 0.47466 0.18372 0.0
H199 H 0.99542 0.61153 0.17115 0.0
C200 C 1.00737 0.61924 0.18935 0.0
H201 H 0.03134 0.59827 0.22309 0.0
H202 H 0.0861 0.43894 0.18449 0.0
H203 H 0.14623 0.47196 0.18904 0.0
H204 H 0.14813 0.54116 0.19718 0.0
H205 H 0.08986 0.57775 0.20102 0.0
C206 C 0.01887 0.59138 0.20496 0.0
C207 C 0.01719 0.55031 0.19769 0.0
C208 C 0.0515 0.52937 0.19506 0.0
C209 C 0.0504 0.48955 0.18993 0.0
C210 C 0.08518 0.46929 0.18804 0.0
C211 C 0.11995 0.48788 0.19065 0.0
C212 C 0.12102 0.52684 0.19526 0.0
C213 C 0.08732 0.54748 0.19749 0.0
H214 H 0.415 0.96415 0.68127 0.0
C215 C 0.4053 0.98991 0.69074 0.0
H216 H 0.42206 0.04083 0.7089 0.0
H217 H 0.58217 0.98405 0.74533 0.0
H218 H 0.54813 0.98971 0.78476 0.0
H219 H 0.47916 1.00261 0.78531 0.0
H220 H 0.44388 1.01022 0.74645 0.0
C221 C 0.43114 0.015 0.69937 0.0
C222 C 0.47268 1.00667 0.69859 0.0
C223 C 0.49282 1.00184 0.72151 0.0
C224 C 0.53245 0.9937 0.72118 0.0
C225 C 0.55194 0.98967 0.74441 0.0
C226 C 0.53277 0.99294 0.76722 0.0
C227 C 0.49396 1.00026 0.76753 0.0
C228 C 0.47407 1.00465 0.74504 0.0
H229 H 0.60936 0.03362 0.68197 0.0
C230 C 0.61916 1.00712 0.69034 0.0
H231 H 0.60246 0.95493 0.70661 0.0
H232 H 0.4438 0.01878 0.65132 0.0
H233 H 0.47732 1.01083 0.61182 0.0
H234 H 0.54486 0.99172 0.61119 0.0
H235 H 0.57947 0.9812 0.65006 0.0
C236 C 0.59337 0.98143 0.69804 0.0
C237 C 0.55188 0.99007 0.69793 0.0
C238 C 0.53168 0.99453 0.67498 0.0
C239 C 0.49223 1.00373 0.67532 0.0
C240 C 0.47332 1.0102 0.65217 0.0
C241 C 0.4923 1.00598 0.62934 0.0
C242 C 0.53036 0.99536 0.62899 0.0
C243 C 0.54996 0.98964 0.65147 0.0
H244 H 1.00863 0.42946 0.90775 0.0
C245 C 0.01662 0.42095 0.88879 0.0
H246 H 0.03234 0.44015 0.85267 0.0
H247 H 0.95433 0.59389 0.90595 0.0
H248 H 0.89627 0.55693 0.90872 0.0
H249 H 0.89528 0.48922 0.89611 0.0
H250 H 0.95242 0.45789 0.88135 0.0
C251 C 0.0244 0.44801 0.87171 0.0
C252 C 0.02387 0.48938 0.8782 0.0
C253 C 0.98953 0.50769 0.8855 0.0
C254 C 0.98949 0.54734 0.89124 0.0
C255 C 0.9555 0.56434 0.90015 0.0
C256 C 0.92203 0.54339 0.90201 0.0
C257 C 0.92152 0.50524 0.89503 0.0
C258 C 0.95472 0.48749 0.88679 0.0
H259 H 0.98409 0.61893 0.86074 0.0
C260 C 1.00135 0.63299 0.87503 0.0
H261 H 0.04007 0.62451 0.90504 0.0
H262 H 0.09481 0.46298 0.86595 0.0
H263 H 0.15225 0.5006 0.86187 0.0
H264 H 0.15125 0.56998 0.86942 0.0
H265 H 0.09289 0.60213 0.88133 0.0
C266 C 0.02213 0.61145 0.89081 0.0
C267 C 0.02308 0.56915 0.88802 0.0
C268 C 0.05743 0.55082 0.88099 0.0
C269 C 0.05785 0.51089 0.8762 0.0
C270 C 0.09268 0.4933 0.86944 0.0
C271 C 0.12592 0.51454 0.86709 0.0
C272 C 0.12536 0.55359 0.87137 0.0
C273 C 0.09163 0.57168 0.87822 0.0
H274 H 0.41562 0.05528 0.3779 0.0
C275 C 0.40654 0.02865 0.36928 0.0
H276 H 0.42454 0.97655 0.35323 0.0
H277 H 0.58509 0.03033 0.31685 0.0
H278 H 0.55178 0.02227 0.27725 0.0
H279 H 0.48274 1.00999 0.27628 0.0
H280 H 0.44664 1.00541 0.31492 0.0
C281 C 0.433 1.00323 0.36192 0.0
C282 C 0.47448 1.01199 0.36295 0.0
C283 C 0.49515 0.01506 0.34015 0.0
C284 C 0.53484 0.02286 0.3407 0.0
C285 C 0.5548 0.02507 0.3176 0.0
C286 C 0.53606 0.0204 0.29469 0.0
C287 C 0.49721 1.01343 0.29415 0.0
C288 C 0.47685 1.01077 0.31652 0.0
H289 H 0.61115 0.9856 0.38232 0.0
C290 C 0.62111 1.01133 0.3731 0.0
H291 H 0.60476 0.06208 0.35476 0.0
H292 H 0.44452 1.00392 0.41022 0.0
H293 H 0.47726 0.01457 0.4498 0.0
H294 H 0.54493 0.03301 0.45064 0.0
H295 H 0.58046 0.04018 0.4119 0.0
C296 C 0.59544 0.03634 0.36413 0.0
C297 C 0.55386 0.02794 0.36404 0.0
C298 C 0.53312 0.02542 0.38686 0.0
C299 C 0.49358 0.01657 0.38633 0.0
C300 C 0.47413 1.0121 0.40944 0.0
C301 C 0.49265 0.01789 0.43233 0.0
C302 C 0.53079 0.02814 0.4328 0.0
C303 C 0.55092 0.03192 0.41041 0.0
H304 H 0.95728 0.227 0.98173 0.0
C305 C 0.96571 0.2516 0.9707 0.0
H306 H 0.9945 0.3044 0.97113 0.0
H307 H 0.98453 0.33116 0.0889 0.0
H308 H 0.94315 0.3813 0.07349 0.0
H309 H 0.92577 0.38475 1.02856 0.0
H310 H 0.9496 0.33802 0.99874 0.0
C311 C 0.98543 0.27983 0.98194 0.0
C312 C 0.9967 0.27798 1.00909 0.0
C313 C 0.98287 0.30572 1.02628 0.0
C314 C 0.99297 0.30378 0.05224 0.0
C315 C 0.97806 0.33145 0.069 0.0
C316 C 0.9542 0.36035 0.06041 0.0
C317 C 0.94442 0.36228 0.03511 0.0
C318 C 0.95838 0.33532 1.01818 0.0
H319 H 0.06818 0.31211 0.08946 0.0
C320 C 0.05193 0.29147 0.10018 0.0
H321 H 1.00908 0.24925 0.09883 0.0
H322 H 0.03416 0.22409 0.98079 0.0
H323 H 0.07547 0.17418 0.99632 0.0
H324 H 0.09018 0.16903 0.04158 0.0
H325 H 0.06401 0.21428 0.07156 0.0
C326 C 0.0253 0.27028 0.08844 0.0
C327 C 0.01703 0.27418 0.06101 0.0
C328 C 0.03156 0.24694 0.04378 0.0
C329 C 0.02204 0.24922 1.01775 0.0
C330 C 0.03889 0.22282 1.00087 0.0
C331 C 0.06304 0.19419 1.00951 0.0
C332 C 0.07139 0.19134 0.03498 0.0
C333 C 0.05608 0.21742 0.05199 0.0
H334 H 0.76463 0.06537 0.59933 0.0
C335 C 0.76225 0.03593 0.60536 0.0
H336 H 0.75909 0.97821 0.59402 0.0
H337 H 0.6945 0.04644 0.48791 0.0
H338 H 0.63869 0.06459 0.51186 0.0
H339 H 0.63816 0.05968 0.55814 0.0
H340 H 0.69351 0.03678 0.58079 0.0
C341 C 0.7601 1.00776 0.58805 0.0
C342 C 0.76145 0.01458 0.56036 0.0
C343 C 0.72893 0.02826 0.54737 0.0
C344 C 0.72922 0.03093 0.52062 0.0
C345 C 0.69607 0.04417 0.50819 0.0
C346 C 0.66374 0.05455 0.52169 0.0
C347 C 0.66344 0.05178 0.54775 0.0
C348 C 0.69549 0.03868 0.56053 0.0
H349 H 0.76668 0.96585 0.46981 0.0
C350 C 0.76426 0.99469 0.46262 0.0
H351 H 0.75895 0.05312 0.47165 0.0
H352 H 0.82857 0.98773 0.57934 0.0
H353 H 0.88496 0.97072 0.55556 0.0
H354 H 0.88619 0.97709 0.50937 0.0
H355 H 0.83102 1.00005 0.48664 0.0
C356 C 0.76226 0.02434 0.47882 0.0
C357 C 0.76192 0.01973 0.50678 0.0
C358 C 0.79473 1.00676 0.51983 0.0
C359 C 0.79429 1.00378 0.54658 0.0
C360 C 0.82732 0.99046 0.55908 0.0
C361 C 0.85994 0.98074 0.54568 0.0
C362 C 0.86062 0.9843 0.51967 0.0
C363 C 0.82858 0.99729 0.50682 0.0
H364 H 0.93443 0.74425 0.09452 0.0
C365 C 0.95721 0.75513 0.10638 0.0
H366 H 0.01263 0.77818 0.1075 0.0
H367 H 1.00792 0.69667 0.99392 0.0
H368 H 0.99933 0.63693 1.01583 0.0
H369 H 0.99115 0.63561 0.0619 0.0
H370 H 0.99056 0.69406 0.08623 0.0
C371 C 0.98999 0.76675 0.09575 0.0
C372 C 0.99627 0.76679 0.0679 0.0
C373 C 0.99831 0.73213 0.05406 0.0
C374 C 1.00517 0.73274 1.02761 0.0
C375 C 1.0046 0.69786 1.01412 0.0
C376 C 0.99943 0.66332 1.02645 0.0
C377 C 0.99466 0.66258 0.05237 0.0
C378 C 0.99413 0.69645 0.06611 0.0
H379 H 0.07109 0.73898 0.98849 0.0
C380 C 0.05054 0.75388 0.9768 0.0
H381 H 0.99889 0.78459 0.97593 0.0
H382 H 0.99378 0.83837 0.08846 0.0
H383 H 1.00509 0.89796 0.06684 0.0
H384 H 0.02009 0.89879 1.02153 0.0
H385 H 0.02372 0.84006 0.99753 0.0
C386 C 0.01921 0.76911 0.98746 0.0
C387 C 1.012 0.76786 1.0152 0.0
C388 C 1.01035 0.80242 1.02911 0.0
C389 C 1.00234 0.80189 0.05538 0.0
C390 C 1.00035 0.83698 0.0686 0.0
C391 C 1.00666 0.87145 0.05641 0.0
C392 C 0.01505 0.87192 1.03089 0.0
C393 C 0.01693 0.83795 1.01732 0.0
H394 H 0.26258 0.06477 0.46651 0.0
C395 C 0.2672 0.03637 0.45889 0.0
H396 H 0.27512 0.97801 0.4672 0.0
H397 H 0.33557 0.03984 0.57626 0.0
H398 H 0.39132 0.06027 0.55321 0.0
H399 H 0.39249 0.05812 0.50682 0.0
H400 H 0.33785 0.03559 0.48317 0.0
C401 C 0.27184 1.0067 0.47464 0.0
C402 C 0.27024 1.01091 0.50255 0.0
C403 C 0.30229 0.02441 0.51612 0.0
C404 C 0.30158 0.02562 0.54291 0.0
C405 C 0.3343 0.03869 0.55593 0.0
C406 C 0.36659 0.05037 0.54293 0.0
C407 C 0.36726 0.04915 0.51681 0.0
C408 C 0.33564 0.03623 0.50347 0.0
H409 H 0.26322 0.95714 0.59109 0.0
C410 C 0.2657 0.98542 0.59933 0.0
H411 H 0.27133 0.04436 0.59242 0.0
H412 H 0.20412 0.98364 0.4823 0.0
H413 H 0.14754 0.96481 0.50515 0.0
H414 H 0.14523 0.96927 0.55144 0.0
H415 H 0.19952 0.99204 0.5752 0.0
C416 C 0.26808 0.01613 0.58423 0.0
C417 C 0.26882 1.01328 0.55617 0.0
C418 C 0.23643 1.00054 0.54253 0.0
C419 C 0.2374 0.99885 0.51574 0.0
C420 C 0.20488 0.98556 0.50263 0.0
C421 C 0.17217 0.97478 0.51549 0.0
C422 C 0.17089 0.97724 0.54156 0.0
C423 C 0.20245 0.99011 0.555 0.0
H424 H 0.16304 0.19816 0.19753 0.0
C425 C 0.14146 0.21749 0.20477 0.0
H426 H 0.11365 0.23802 0.23729 0.0
H427 H 0.14727 0.08857 0.29928 0.0
H428 H 0.08079 0.07964 0.28866 0.0
H429 H 0.04822 0.12339 0.25937 0.0
H430 H 0.08196 0.17619 0.24057 0.0
C431 C 0.13674 0.22074 0.22985 0.0
C432 C 0.15685 0.19492 0.24779 0.0
C433 C 0.13659 0.16432 0.25888 0.0
C434 C 0.1554 0.13896 0.27567 0.0
C435 C 0.1345 0.10848 0.28624 0.0
C436 C 0.09626 0.10305 0.28035 0.0
C437 C 0.07794 0.12767 0.26388 0.0
C438 C 0.09769 0.15795 0.25323 0.0
H439 H 0.21604 0.14714 0.3306 0.0
C440 C 0.22246 0.12005 0.32159 0.0
H441 H 0.21973 0.08764 0.28806 0.0
H442 H 0.20315 0.25207 0.23143 0.0
H443 H 0.2698 0.26098 0.24209 0.0
H444 H 0.30265 0.21647 0.27068 0.0
H445 H 0.26905 0.16289 0.28897 0.0
C446 C 0.2146 0.11509 0.29697 0.0
C447 C 0.19439 0.14431 0.28158 0.0
C448 C 0.21444 0.17537 0.27095 0.0
C449 C 0.19562 0.20076 0.25411 0.0
C450 C 0.21623 0.2317 0.244 0.0
C451 C 0.25444 0.23717 0.25001 0.0
C452 C 0.27294 0.21212 0.26614 0.0
C453 C 0.25333 0.1815 0.27652 0.0
H454 H 0.89225 0.2503 0.83083 0.0
C455 C 0.89044 0.22984 0.84609 0.0
H456 H 0.87526 0.17393 0.85631 0.0
H457 H 0.78878 0.19629 0.7447 0.0
H458 H 0.75106 0.24562 0.7648 0.0
H459 H 0.76438 0.26564 0.80847 0.0
H460 H 0.81589 0.23688 0.83221 0.0
C461 C 0.87531 0.19524 0.84152 0.0
C462 C 0.86546 0.18231 0.81543 0.0
C463 C 0.83449 0.19856 0.80204 0.0
C464 C 0.82585 0.18594 0.77712 0.0
C465 C 0.79581 0.20386 0.76389 0.0
C466 C 0.77405 0.23236 0.77517 0.0
C467 C 0.78162 0.24372 0.79974 0.0
C468 C 0.81141 0.2271 0.81311 0.0
H469 H 0.78599 0.11775 0.74981 0.0
C470 C 0.80676 0.12182 0.73494 0.0
H471 H 0.86037 0.14459 0.72562 0.0
H472 H 0.92741 0.1455 0.83533 0.0
H473 H 0.96347 0.09459 0.81588 0.0
H474 H 0.94684 0.07086 0.77352 0.0
H475 H 0.89408 0.09816 0.7503 0.0
C476 C 0.83842 0.14209 0.73988 0.0
C477 C 0.84739 0.15618 0.76586 0.0
C478 C 0.87814 0.1397 0.77936 0.0
C479 C 0.88728 0.15285 0.80404 0.0
C480 C 0.91863 0.13622 0.81678 0.0
C481 C 0.93975 0.10701 0.80579 0.0
C482 C 0.93042 0.0937 0.78193 0.0
C483 C 0.90006 0.10973 0.76879 0.0
H484 H 0.83409 0.86437 0.3517 0.0
C485 C 0.81585 0.88811 0.3465 0.0
H486 H 0.79305 0.92019 0.31648 0.0
H487 H 0.92537 0.87244 0.24199 0.0
H488 H 0.94713 0.93513 0.25469 0.0
H489 H 0.91496 0.97037 0.28876 0.0
H490 H 0.86102 0.94298 0.31053 0.0
C491 C 0.80938 0.89525 0.32197 0.0
C492 C 0.82883 0.87327 0.30159 0.0
C493 C 0.85982 0.88996 0.28861 0.0
C494 C 0.87808 0.86977 0.26869 0.0
C495 C 0.90986 0.88671 0.2568 0.0
C496 C 0.92278 0.92267 0.26398 0.0
C497 C 0.90467 0.94252 0.28317 0.0
C498 C 0.87367 0.92647 0.29548 0.0
H499 H 0.86356 0.84425 0.21135 0.0
C500 C 0.88207 0.8208 0.2167 0.0
H501 H 0.90345 0.78807 0.24695 0.0
H502 H 0.76986 0.83339 0.32208 0.0
H503 H 0.74854 0.77022 0.30979 0.0
H504 H 0.78022 0.73517 0.27538 0.0
H505 H 0.83334 0.76312 0.25291 0.0
C506 C 0.88485 0.81119 0.24117 0.0
C507 C 0.86489 0.83307 0.26143 0.0
C508 C 0.83415 0.81628 0.27458 0.0
C509 C 0.81601 0.83643 0.29458 0.0
C510 C 0.78491 0.81919 0.30698 0.0
C511 C 0.77234 0.78299 0.30007 0.0
C512 C 0.79017 0.76326 0.28068 0.0
C513 C 0.82067 0.77958 0.26798 0.0
H514 H 0.2139 0.86727 0.72386 0.0
C515 C 0.22169 0.89317 0.73387 0.0
H516 H 0.22196 0.92213 0.76881 0.0
H517 H 0.07496 0.81417 0.79245 0.0
H518 H 0.04407 0.84705 0.75814 0.0
H519 H 0.08037 0.88946 0.73026 0.0
H520 H 0.14735 0.90053 0.73716 0.0
C521 C 0.21354 0.89665 0.75856 0.0
C522 C 0.19254 0.86695 0.77304 0.0
C523 C 0.15306 0.86115 0.76893 0.0
C524 C 0.13223 0.83613 0.78484 0.0
C525 C 0.09257 0.83193 0.78069 0.0
C526 C 0.0743 0.85088 0.76111 0.0
C527 C 0.0947 0.87489 0.74549 0.0
C528 C 0.13339 0.88063 0.74953 0.0
H529 H 0.13965 0.81953 0.85559 0.0
C530 C 0.12304 0.7976 0.84617 0.0
H531 H 0.11101 0.76917 0.81215 0.0
H532 H 0.26786 0.8705 0.78547 0.0
H533 H 0.2998 0.83487 0.8184 0.0
H534 H 0.26435 0.78946 0.84476 0.0
H535 H 0.19669 0.77977 0.83863 0.0
C536 C 0.1281 0.79091 0.82139 0.0
C537 C 0.15085 0.81667 0.80482 0.0
C538 C 0.19061 0.82139 0.8083 0.0
C539 C 0.21128 0.84697 0.79266 0.0
C540 C 0.25081 0.85153 0.79681 0.0
C541 C 0.26953 0.83113 0.81556 0.0
C542 C 0.24956 0.8056 0.83043 0.0
C543 C 0.21062 0.80054 0.82685 0.0
H544 H 0.03846 0.11173 0.20633 0.0
C545 C 1.00983 0.11852 0.1999 0.0
H546 H 0.95744 0.09542 0.18767 0.0
H547 H 0.03332 0.94015 0.15363 0.0
H548 H 0.01597 0.96789 0.11355 0.0
H549 H 0.99099 0.03349 0.11117 0.0
H550 H 0.98281 0.07157 0.14891 0.0
C551 C 0.98545 0.08987 0.19543 0.0
C552 C 0.99858 0.04965 0.19727 0.0
C553 C 1.00349 0.02789 0.17498 0.0
C554 C 0.01853 0.99033 0.17633 0.0
C555 C 0.02254 0.96903 0.15376 0.0
C556 C 0.01263 0.98458 0.13058 0.0
C557 C 0.99853 0.02149 0.12924 0.0
C558 C 0.99396 0.04303 0.15109 0.0
H559 H 0.99348 0.91527 0.2189 0.0
C560 C 0.02026 0.90713 0.21015 0.0
H561 H 0.06845 0.9274 0.19078 0.0
H562 H 0.98856 0.08197 0.24373 0.0
H563 H 1.00789 0.05517 0.28381 0.0
H564 H 0.03868 0.99221 0.28579 0.0
H565 H 0.04861 0.9545 0.24796 0.0
C566 C 0.04282 0.93464 0.20108 0.0
C567 C 0.02886 0.97467 0.19995 0.0
C568 C 0.02403 0.99647 0.22224 0.0
C569 C 1.00812 0.0337 0.22094 0.0
C570 C 1.00185 0.05415 0.24357 0.0
C571 C 1.01256 0.039 0.2667 0.0
C572 C 0.02965 1.00338 0.26785 0.0
C573 C 0.03519 0.98209 0.24598 0.0
H574 H 0.10434 0.05605 0.69177 0.0
C575 C 0.11741 0.02805 0.69007 0.0
H576 H 0.10698 0.96868 0.68813 0.0
H577 H 0.9436 0.97566 0.73632 0.0
H578 H 0.97957 0.94563 0.76976 0.0
H579 H 0.04952 0.94141 0.76768 0.0
H580 H 0.08388 0.9665 0.73185 0.0
C581 C 0.09495 0.9971 0.689 0.0
C582 C 0.05283 1.00032 0.69022 0.0
C583 C 0.03323 0.98561 0.71134 0.0
C584 C 0.99291 0.98811 0.71258 0.0
C585 C 0.97411 0.97377 0.7341 0.0
C586 C 0.99444 0.95666 0.75353 0.0
C587 C 0.03383 0.95428 0.75235 0.0
C588 C 0.05318 0.96875 0.73165 0.0
H589 H 0.92151 0.94929 0.68885 0.0
C590 C 0.9081 0.97709 0.69081 0.0
H591 H 0.91791 0.03633 0.69508 0.0
H592 H 0.08114 0.02748 0.64564 0.0
H593 H 0.04503 0.05653 0.61192 0.0
H594 H 0.97529 0.06291 0.61477 0.0
H595 H 0.94124 0.03989 0.6513 0.0
C596 C 0.93019 1.00807 0.69366 0.0
C597 C 0.97231 1.00526 0.69264 0.0
C598 C 0.99188 0.01996 0.67151 0.0
C599 C 0.03216 0.017 0.6701 0.0
C600 C 0.05074 0.0301 0.64815 0.0
C601 C 0.03031 0.0466 0.62851 0.0
C602 C 0.99105 0.05015 0.6301 0.0
C603 C 0.97188 0.0369 0.65124 0.0
H604 H 0.99597 0.12633 0.86552 0.0
C605 C 0.02055 0.13413 0.87691 0.0
H606 H 0.06513 0.11304 0.89968 0.0
H607 H 0.97886 0.96312 0.92967 0.0
H608 H 0.98317 0.99657 0.96954 0.0
H609 H 1.00753 0.06238 0.97166 0.0
H610 H 0.02811 0.09496 0.934 0.0
C611 C 0.04144 0.1063 0.88736 0.0
C612 C 0.0284 0.06602 0.88593 0.0
C613 C 0.01612 0.04755 0.90817 0.0
C614 C 1.00138 1.00989 0.9069 0.0
C615 C 0.98986 0.99189 0.92946 0.0
C616 C 0.99219 1.01075 0.95251 0.0
C617 C 1.00595 0.04777 0.95371 0.0
C618 C 0.01776 0.06612 0.93189 0.0
H619 H 0.03909 0.92943 0.87336 0.0
C620 C 1.00984 0.92233 0.87808 0.0
H621 H 0.95638 0.94477 0.88867 0.0
H622 H 0.05325 0.09156 0.84015 0.0
H623 H 0.04606 0.05928 0.79999 0.0
H624 H 0.01599 0.99607 0.79748 0.0
H625 H 0.99368 0.96409 0.83504 0.0
C626 C 0.98515 0.95075 0.88254 0.0
C627 C 0.99866 0.99089 0.88337 0.0
C628 C 1.01045 1.00954 0.8611 0.0
C629 C 0.02617 0.04681 0.86244 0.0
C630 C 0.03963 0.06395 0.84009 0.0
C631 C 0.03597 0.04562 0.81693 0.0
C632 C 0.01915 1.00992 0.81551 0.0
C633 C 1.00661 0.99186 0.83725 0.0
H634 H 0.92376 0.06477 0.36301 0.0
C635 C 0.91046 0.03851 0.36927 0.0
H636 H 0.91996 0.98186 0.38118 0.0
H637 H 0.07983 0.95928 0.3305 0.0
H638 H 0.04112 0.91402 0.30736 0.0
H639 H 0.97155 0.9124 0.31291 0.0
H640 H 0.94022 0.95597 0.3417 0.0
C641 C 0.93253 1.00832 0.37484 0.0
C642 C 0.97464 1.00936 0.37184 0.0
C643 C 0.99248 0.98384 0.35477 0.0
C644 C 0.03268 0.98464 0.35165 0.0
C645 C 0.0496 0.95925 0.33417 0.0
C646 C 0.02765 0.93327 0.3206 0.0
C647 C 0.98846 0.93247 0.32364 0.0
C648 C 0.97088 0.95756 0.34034 0.0
H649 H 0.10656 0.95761 0.37728 0.0
C650 C 0.11948 0.98388 0.3707 0.0
H651 H 0.10942 0.03882 0.35605 0.0
H652 H 0.95051 0.05756 0.40945 0.0
H653 H 0.98934 0.10166 0.4333 0.0
H654 H 0.05856 0.1053 0.42636 0.0
H655 H 0.08936 0.06444 0.39574 0.0
C656 C 0.09702 1.01242 0.3627 0.0
C657 C 0.05494 1.01097 0.36565 0.0
C658 C 0.03714 0.03616 0.38294 0.0
C659 C 0.99706 0.03484 0.38642 0.0
C660 C 0.9805 0.0585 0.40511 0.0
C661 C 1.00256 0.08373 0.41919 0.0
C662 C 0.04153 0.08573 0.41531 0.0
C663 C 0.05881 0.06216 0.39756 0.0
loop_
_geom_bond_atom_site_label_1
_geom_bond_atom_site_label_2
_geom_bond_distance
_geom_bond_site_symmetry_2
_ccdc_geom_bond_type
Cu0 N1 1.999 . S
Cu0 O6 1.974 . S
Cu0 N11 1.985 . S
Cu0 O20 1.959 . S
N1 Cu0 1.999 . S
N1 C3 1.263 . S
N1 C5 1.389 . S
N2 C3 1.358 . S
N2 C4 1.400 . S
C3 N1 1.263 . S
C3 N2 1.358 . S
C3 H9 0.930 . S
C4 N2 1.400 . S
C4 C5 1.351 . S
C4 H21 0.930 1_455 S
C5 N1 1.389 . S
C5 C4 1.351 . S
C5 H10 0.930 1_455 S
O6 Cu0 1.974 . S
O6 C16 1.282 . S
C7 O8 1.261 . S
C7 O20 1.251 . S
O8 C7 1.261 . S
H9 C3 0.930 . S
H10 C5 0.930 1_655 S
N11 Cu0 1.985 . S
N11 C13 1.335 . S
N11 C14 1.390 . S
N12 C13 1.345 . S
N12 C15 1.336 . S
C13 N11 1.335 . S
C13 N12 1.345 . S
C13 H18 0.930 . S
C14 N11 1.390 . S
C14 C15 1.346 . S
C14 H19 0.930 . S
C15 N12 1.336 . S
C15 C14 1.346 . S
C15 H22 0.929 . S
C16 O6 1.282 . S
C16 O17 1.216 . S
O17 C16 1.216 . S
H18 C13 0.930 . S
H19 C14 0.930 . S
O20 Cu0 1.959 . S
O20 C7 1.251 . S
H21 C4 0.930 1_655 S
H22 C15 0.929 . S
Cu23 N24 1.999 . S
Cu23 O29 1.974 . S
Cu23 N34 1.985 . S
Cu23 O43 1.959 . S
N24 Cu23 1.999 . S
N24 C26 1.263 . S
N24 C28 1.389 . S
N25 C26 1.358 . S
N25 C27 1.400 . S
C26 N24 1.263 . S
C26 N25 1.358 . S
C26 H32 0.930 . S
C27 N25 1.400 . S
C27 C28 1.351 . S
C27 H44 0.930 1_545 S
C28 N24 1.389 . S
C28 C27 1.351 . S
C28 H33 0.930 1_545 S
O29 Cu23 1.974 . S
O29 C39 1.282 . S
C30 O31 1.261 . S
C30 O43 1.251 . S
O31 C30 1.261 . S
H32 C26 0.930 . S
H33 C28 0.930 1_565 S
N34 Cu23 1.985 . S
N34 C36 1.335 . S
N34 C37 1.390 . S
N35 C36 1.345 . S
N35 C38 1.336 . S
C36 N34 1.335 . S
C36 N35 1.345 . S
C36 H41 0.930 . S
C37 N34 1.390 . S
C37 C38 1.346 . S
C37 H42 0.930 . S
C38 N35 1.336 . S
C38 C37 1.346 . S
C38 H45 0.929 . S
C39 O29 1.282 . S
C39 O40 1.216 . S
O40 C39 1.216 . S
H41 C36 0.930 . S
H42 C37 0.930 . S
O43 Cu23 1.959 . S
O43 C30 1.251 . S
H44 C27 0.930 1_565 S
H45 C38 0.929 . S
Cu46 N47 1.999 . S
Cu46 O52 1.974 . S
Cu46 N57 1.985 . S
Cu46 O66 1.959 . S
N47 Cu46 1.999 . S
N47 C49 1.263 . S
N47 C51 1.389 . S
N48 C49 1.358 . S
N48 C50 1.400 . S
C49 N47 1.263 . S
C49 N48 1.358 . S
C49 H55 0.930 . S
C50 N48 1.400 . S
C50 C51 1.351 . S
C50 H67 0.930 1_655 S
C51 N47 1.389 . S
C51 C50 1.351 . S
C51 H56 0.930 1_655 S
O52 Cu46 1.974 . S
O52 C62 1.282 . S
C53 O54 1.261 . S
C53 O66 1.251 . S
O54 C53 1.261 . S
H55 C49 0.930 . S
H56 C51 0.930 1_455 S
N57 Cu46 1.985 . S
N57 C59 1.335 . S
N57 C60 1.390 . S
N58 C59 1.345 . S
N58 C61 1.336 . S
C59 N57 1.335 . S
C59 N58 1.345 . S
C59 H64 0.930 . S
C60 N57 1.390 . S
C60 C61 1.346 . S
C60 H65 0.930 . S
C61 N58 1.336 . S
C61 C60 1.346 . S
C61 H68 0.929 . S
C62 O52 1.282 . S
C62 O63 1.216 . S
O63 C62 1.216 . S
H64 C59 0.930 . S
H65 C60 0.930 . S
O66 Cu46 1.959 . S
O66 C53 1.251 . S
H67 C50 0.930 1_455 S
H68 C61 0.929 . S
Cu69 N70 1.999 . S
Cu69 O75 1.974 . S
Cu69 N80 1.985 . S
Cu69 O89 1.959 . S
N70 Cu69 1.999 . S
N70 C72 1.263 . S
N70 C74 1.389 . S
N71 C72 1.358 . S
N71 C73 1.400 . S
C72 N70 1.263 . S
C72 N71 1.358 . S
C72 H78 0.930 . S
C73 N71 1.400 . S
C73 C74 1.351 . S
C73 H90 0.930 1_565 S
C74 N70 1.389 . S
C74 C73 1.351 . S
C74 H79 0.930 1_565 S
O75 Cu69 1.974 . S
O75 C85 1.282 . S
C76 O77 1.261 . S
C76 O89 1.251 . S
O77 C76 1.261 . S
H78 C72 0.930 . S
H79 C74 0.930 1_545 S
N80 Cu69 1.985 . S
N80 C82 1.335 . S
N80 C83 1.390 . S
N81 C82 1.345 . S
N81 C84 1.336 . S
C82 N80 1.335 . S
C82 N81 1.345 . S
C82 H87 0.930 . S
C83 N80 1.390 . S
C83 C84 1.346 . S
C83 H88 0.930 . S
C84 N81 1.336 . S
C84 C83 1.346 . S
C84 H91 0.929 . S
C85 O75 1.282 . S
C85 O86 1.216 . S
O86 C85 1.216 . S
H87 C82 0.930 . S
H88 C83 0.930 . S
O89 Cu69 1.959 . S
O89 C76 1.251 . S
H90 C73 0.930 1_545 S
H91 C84 0.929 . S
Cu92 N93 1.999 . S
Cu92 O98 1.974 . S
Cu92 N103 1.985 . S
Cu92 O112 1.959 . S
N93 Cu92 1.999 . S
N93 C95 1.263 . S
N93 C97 1.389 . S
N94 C95 1.358 . S
N94 C96 1.400 . S
C95 N93 1.263 . S
C95 N94 1.358 . S
C95 H101 0.930 . S
C96 N94 1.400 . S
C96 C97 1.351 . S
C96 H113 0.930 1_455 S
C97 N93 1.389 . S
C97 C96 1.351 . S
C97 H102 0.930 1_455 S
O98 Cu92 1.974 . S
O98 C108 1.282 . S
C99 O100 1.261 . S
C99 O112 1.251 . S
O100 C99 1.261 . S
H101 C95 0.930 . S
H102 C97 0.930 1_655 S
N103 Cu92 1.985 . S
N103 C105 1.335 . S
N103 C106 1.390 . S
N104 C105 1.345 . S
N104 C107 1.336 . S
C105 N103 1.335 . S
C105 N104 1.345 . S
C105 H110 0.930 . S
C106 N103 1.390 . S
C106 C107 1.346 . S
C106 H111 0.930 . S
C107 N104 1.336 . S
C107 C106 1.346 . S
C107 H114 0.929 . S
C108 O98 1.282 . S
C108 O109 1.216 . S
O109 C108 1.216 . S
H110 C105 0.930 . S
H111 C106 0.930 . S
O112 Cu92 1.959 . S
O112 C99 1.251 . S
H113 C96 0.930 1_655 S
H114 C107 0.929 . S
Cu115 N116 1.999 . S
Cu115 O121 1.974 . S
Cu115 N126 1.985 . S
Cu115 O135 1.959 . S
N116 Cu115 1.999 . S
N116 C118 1.263 . S
N116 C120 1.389 . S
N117 C118 1.358 . S
N117 C119 1.400 . S
C118 N116 1.263 . S
C118 N117 1.358 . S
C118 H124 0.930 . S
C119 N117 1.400 . S
C119 C120 1.351 . S
C119 H136 0.930 1_545 S
C120 N116 1.389 . S
C120 C119 1.351 . S
C120 H125 0.930 1_545 S
O121 Cu115 1.974 . S
O121 C131 1.282 . S
C122 O123 1.261 . S
C122 O135 1.251 . S
O123 C122 1.261 . S
H124 C118 0.930 . S
H125 C120 0.930 1_565 S
N126 Cu115 1.985 . S
N126 C128 1.335 . S
N126 C129 1.390 . S
N127 C128 1.345 . S
N127 C130 1.336 . S
C128 N126 1.335 . S
C128 N127 1.345 . S
C128 H133 0.930 . S
C129 N126 1.390 . S
C129 C130 1.346 . S
C129 H134 0.930 . S
C130 N127 1.336 . S
C130 C129 1.346 . S
C130 H137 0.929 . S
C131 O121 1.282 . S
C131 O132 1.216 . S
O132 C131 1.216 . S
H133 C128 0.930 . S
H134 C129 0.930 . S
O135 Cu115 1.959 . S
O135 C122 1.251 . S
H136 C119 0.930 1_565 S
H137 C130 0.929 . S
Cu138 N139 1.999 . S
Cu138 O144 1.974 . S
Cu138 N149 1.985 . S
Cu138 O158 1.959 . S
N139 Cu138 1.999 . S
N139 C141 1.263 . S
N139 C143 1.389 . S
N140 C141 1.358 . S
N140 C142 1.400 . S
C141 N139 1.263 . S
C141 N140 1.358 . S
C141 H147 0.930 . S
C142 N140 1.400 . S
C142 C143 1.351 . S
C142 H159 0.930 1_655 S
C143 N139 1.389 . S
C143 C142 1.351 . S
C143 H148 0.930 1_655 S
O144 Cu138 1.974 . S
O144 C154 1.282 . S
C145 O146 1.261 . S
C145 O158 1.251 . S
O146 C145 1.261 . S
H147 C141 0.930 . S
H148 C143 0.930 1_455 S
N149 Cu138 1.985 . S
N149 C151 1.335 . S
N149 C152 1.390 . S
N150 C151 1.345 . S
N150 C153 1.336 . S
C151 N149 1.335 . S
C151 N150 1.345 . S
C151 H156 0.930 . S
C152 N149 1.390 . S
C152 C153 1.346 . S
C152 H157 0.930 . S
C153 N150 1.336 . S
C153 C152 1.346 . S
C153 H160 0.929 . S
C154 O144 1.282 . S
C154 O155 1.216 . S
O155 C154 1.216 . S
H156 C151 0.930 . S
H157 C152 0.930 . S
O158 Cu138 1.959 . S
O158 C145 1.251 . S
H159 C142 0.930 1_455 S
H160 C153 0.929 . S
Cu161 N162 1.999 . S
Cu161 O167 1.974 . S
Cu161 N172 1.985 . S
Cu161 O181 1.959 . S
N162 Cu161 1.999 . S
N162 C164 1.263 . S
N162 C166 1.389 . S
N163 C164 1.358 . S
N163 C165 1.400 . S
C164 N162 1.263 . S
C164 N163 1.358 . S
C164 H170 0.930 . S
C165 N163 1.400 . S
C165 C166 1.351 . S
C165 H182 0.930 1_565 S
C166 N162 1.389 . S
C166 C165 1.351 . S
C166 H171 0.930 1_565 S
O167 Cu161 1.974 . S
O167 C177 1.282 . S
C168 O169 1.261 . S
C168 O181 1.251 . S
O169 C168 1.261 . S
H170 C164 0.930 . S
H171 C166 0.930 1_545 S
N172 Cu161 1.985 . S
N172 C174 1.335 . S
N172 C175 1.390 . S
N173 C174 1.345 . S
N173 C176 1.336 . S
C174 N172 1.335 . S
C174 N173 1.345 . S
C174 H179 0.930 . S
C175 N172 1.390 . S
C175 C176 1.346 . S
C175 H180 0.930 . S
C176 N173 1.336 . S
C176 C175 1.346 . S
C176 H183 0.929 . S
C177 O167 1.282 . S
C177 O178 1.216 . S
O178 C177 1.216 . S
H179 C174 0.930 . S
H180 C175 0.930 . S
O181 Cu161 1.959 . S
O181 C168 1.251 . S
H182 C165 0.930 1_545 S
H183 C176 0.929 . S
H184 C185 0.951 . S
C185 H184 0.951 . S
C185 C191 1.265 . S
H186 C191 0.950 1_655 S
H187 C195 0.949 . S
H188 C196 0.950 . S
H189 C197 0.951 . S
H190 C198 0.951 . S
C191 C185 1.265 . S
C191 H186 0.950 1_455 S
C191 C192 1.478 . S
C192 C191 1.478 . S
C192 C193 1.397 1_455 S
C192 C209 1.394 . S
C193 C192 1.397 1_655 S
C193 C194 1.438 . S
C193 C198 1.429 . S
C194 C193 1.438 . S
C194 C195 1.428 . S
C194 C207 1.394 . S
C195 H187 0.949 . S
C195 C194 1.428 . S
C195 C196 1.345 . S
C196 H188 0.950 . S
C196 C195 1.345 . S
C196 C197 1.424 . S
C197 H189 0.951 . S
C197 C196 1.424 . S
C197 C198 1.347 . S
C198 H190 0.951 . S
C198 C193 1.429 . S
C198 C197 1.347 . S
H199 C200 0.951 . S
C200 H199 0.951 . S
C200 C206 1.265 . S
H201 C206 0.950 1_455 S
H202 C210 0.949 . S
H203 C211 0.950 . S
H204 C212 0.951 . S
H205 C213 0.951 . S
C206 C200 1.265 . S
C206 H201 0.950 1_655 S
C206 C207 1.478 . S
C207 C194 1.394 . S
C207 C206 1.478 . S
C207 C208 1.397 1_655 S
C208 C207 1.397 1_455 S
C208 C209 1.438 . S
C208 C213 1.429 . S
C209 C192 1.394 . S
C209 C208 1.438 . S
C209 C210 1.428 . S
C210 H202 0.949 . S
C210 C209 1.428 . S
C210 C211 1.345 . S
C211 H203 0.950 . S
C211 C210 1.345 . S
C211 C212 1.424 . S
C212 H204 0.951 . S
C212 C211 1.424 . S
C212 C213 1.347 . S
C213 H205 0.951 . S
C213 C208 1.429 . S
C213 C212 1.347 . S
H214 C215 0.951 . S
C215 H214 0.951 . S
C215 C221 1.265 . S
H216 C221 0.950 1_545 S
H217 C225 0.949 . S
H218 C226 0.950 . S
H219 C227 0.951 . S
H220 C228 0.951 . S
C221 C215 1.265 . S
C221 H216 0.950 1_565 S
C221 C222 1.478 . S
C222 C221 1.478 . S
C222 C223 1.397 1_565 S
C222 C239 1.394 . S
C223 C222 1.397 1_545 S
C223 C224 1.438 . S
C223 C228 1.429 . S
C224 C223 1.438 . S
C224 C225 1.428 . S
C224 C237 1.394 . S
C225 H217 0.949 . S
C225 C224 1.428 . S
C225 C226 1.345 . S
C226 H218 0.950 . S
C226 C225 1.345 . S
C226 C227 1.424 . S
C227 H219 0.951 . S
C227 C226 1.424 . S
C227 C228 1.347 . S
C228 H220 0.951 . S
C228 C223 1.429 . S
C228 C227 1.347 . S
H229 C230 0.951 . S
C230 H229 0.951 . S
C230 C236 1.265 . S
H231 C236 0.950 1_565 S
H232 C240 0.949 . S
H233 C241 0.950 . S
H234 C242 0.951 . S
H235 C243 0.951 . S
C236 C230 1.265 . S
C236 H231 0.950 1_545 S
C236 C237 1.478 . S
C237 C224 1.394 . S
C237 C236 1.478 . S
C237 C238 1.397 1_545 S
C238 C237 1.397 1_565 S
C238 C239 1.438 . S
C238 C243 1.429 . S
C239 C222 1.394 . S
C239 C238 1.438 . S
C239 C240 1.428 . S
C240 H232 0.949 . S
C240 C239 1.428 . S
C240 C241 1.345 . S
C241 H233 0.950 . S
C241 C240 1.345 . S
C241 C242 1.424 . S
C242 H234 0.951 . S
C242 C241 1.424 . S
C242 C243 1.347 . S
C243 H235 0.951 . S
C243 C238 1.429 . S
C243 C242 1.347 . S
H244 C245 0.951 . S
C245 H244 0.951 . S
C245 C251 1.265 . S
H246 C251 0.950 . S
H247 C255 0.949 . S
H248 C256 0.950 . S
H249 C257 0.951 . S
H250 C258 0.951 . S
C251 C245 1.265 . S
C251 H246 0.950 . S
C251 C252 1.478 . S
C252 C251 1.478 . S
C252 C253 1.397 . S
C252 C269 1.394 . S
C253 C252 1.397 . S
C253 C254 1.438 1_655 S
C253 C258 1.429 . S
C254 C253 1.438 1_455 S
C254 C255 1.428 . S
C254 C267 1.394 . S
C255 H247 0.949 . S
C255 C254 1.428 . S
C255 C256 1.345 1_455 S
C256 H248 0.950 . S
C256 C255 1.345 1_655 S
C256 C257 1.424 . S
C257 H249 0.951 . S
C257 C256 1.424 . S
C257 C258 1.347 . S
C258 H250 0.951 . S
C258 C253 1.429 . S
C258 C257 1.347 . S
H259 C260 0.951 . S
C260 H259 0.951 . S
C260 C266 1.265 . S
H261 C266 0.950 . S
H262 C270 0.949 . S
H263 C271 0.950 . S
H264 C272 0.951 . S
H265 C273 0.951 . S
C266 C260 1.265 . S
C266 H261 0.950 . S
C266 C267 1.478 . S
C267 C254 1.394 . S
C267 C266 1.478 . S
C267 C268 1.397 . S
C268 C267 1.397 . S
C268 C269 1.438 1_455 S
C268 C273 1.429 . S
C269 C252 1.394 . S
C269 C268 1.438 1_655 S
C269 C270 1.428 . S
C270 H262 0.949 . S
C270 C269 1.428 . S
C270 C271 1.345 1_655 S
C271 H263 0.950 . S
C271 C270 1.345 1_455 S
C271 C272 1.424 . S
C272 H264 0.951 . S
C272 C271 1.424 . S
C272 C273 1.347 . S
C273 H265 0.951 . S
C273 C268 1.429 . S
C273 C272 1.347 . S
H274 C275 0.951 . S
C275 H274 0.951 . S
C275 C281 1.265 . S
H276 C281 0.950 1_565 S
H277 C285 0.949 . S
H278 C286 0.950 . S
H279 C287 0.951 . S
H280 C288 0.951 . S
C281 C275 1.265 . S
C281 H276 0.950 1_545 S
C281 C282 1.478 . S
C282 C281 1.478 . S
C282 C283 1.397 1_545 S
C282 C299 1.394 . S
C283 C282 1.397 1_565 S
C283 C284 1.438 . S
C283 C288 1.429 . S
C284 C283 1.438 . S
C284 C285 1.428 . S
C284 C297 1.394 . S
C285 H277 0.949 . S
C285 C284 1.428 . S
C285 C286 1.345 . S
C286 H278 0.950 . S
C286 C285 1.345 . S
C286 C287 1.424 . S
C287 H279 0.951 . S
C287 C286 1.424 . S
C287 C288 1.347 . S
C288 H280 0.951 . S
C288 C283 1.429 . S
C288 C287 1.347 . S
H289 C290 0.951 . S
C290 H289 0.951 . S
C290 C296 1.265 . S
H291 C296 0.950 1_545 S
H292 C300 0.949 . S
H293 C301 0.950 . S
H294 C302 0.951 . S
H295 C303 0.951 . S
C296 C290 1.265 . S
C296 H291 0.950 1_565 S
C296 C297 1.478 . S
C297 C284 1.394 . S
C297 C296 1.478 . S
C297 C298 1.397 1_565 S
C298 C297 1.397 1_545 S
C298 C299 1.438 . S
C298 C303 1.429 . S
C299 C282 1.394 . S
C299 C298 1.438 . S
C299 C300 1.428 . S
C300 H292 0.949 . S
C300 C299 1.428 . S
C300 C301 1.345 . S
C301 H293 0.950 . S
C301 C300 1.345 . S
C301 C302 1.424 . S
C302 H294 0.951 . S
C302 C301 1.424 . S
C302 C303 1.347 . S
C303 H295 0.951 . S
C303 C298 1.429 . S
C303 C302 1.347 . S
H304 C305 0.951 . S
C305 H304 0.951 . S
C305 C311 1.265 . S
H306 C311 0.955 . S
H307 C315 0.949 . S
H308 C316 0.950 . S
H309 C317 0.951 1_556 S
H310 C318 0.951 . S
C311 C305 1.265 . S
C311 H306 0.955 . S
C311 C312 1.478 . S
C312 C311 1.478 . S
C312 C313 1.397 . S
C312 C329 1.394 1_655 S
C313 C312 1.397 . S
C313 C314 1.438 1_556 S
C313 C318 1.429 . S
C314 C313 1.438 1_554 S
C314 C315 1.428 . S
C314 C327 1.394 1_655 S
C315 H307 0.949 . S
C315 C314 1.428 . S
C315 C316 1.345 . S
C316 H308 0.950 . S
C316 C315 1.345 . S
C316 C317 1.424 . S
C317 H309 0.951 1_554 S
C317 C316 1.424 . S
C317 C318 1.347 1_554 S
C318 H310 0.951 . S
C318 C313 1.429 . S
C318 C317 1.347 1_556 S
H319 C320 0.951 . S
C320 H319 0.951 . S
C320 C326 1.265 . S
H321 C326 0.955 . S
H322 C330 0.949 . S
H323 C331 0.950 . S
H324 C332 0.951 1_554 S
H325 C333 0.951 . S
C326 C320 1.265 . S
C326 H321 0.955 . S
C326 C327 1.478 . S
C327 C314 1.394 1_455 S
C327 C326 1.478 . S
C327 C328 1.397 . S
C328 C327 1.397 . S
C328 C329 1.438 1_554 S
C328 C333 1.429 . S
C329 C312 1.394 1_455 S
C329 C328 1.438 1_556 S
C329 C330 1.428 . S
C330 H322 0.949 . S
C330 C329 1.428 . S
C330 C331 1.345 . S
C331 H323 0.950 . S
C331 C330 1.345 . S
C331 C332 1.424 . S
C332 H324 0.951 1_556 S
C332 C331 1.424 . S
C332 C333 1.347 1_556 S
C333 H325 0.951 . S
C333 C328 1.429 . S
C333 C332 1.347 1_554 S
H334 C335 0.951 . S
C335 H334 0.951 . S
C335 C341 1.265 . S
H336 C341 0.950 . S
H337 C345 0.949 . S
H338 C346 0.950 . S
H339 C347 0.951 . S
H340 C348 0.951 . S
C341 C335 1.265 . S
C341 H336 0.950 . S
C341 C342 1.478 . S
C342 C341 1.478 . S
C342 C343 1.397 . S
C342 C359 1.394 1_545 S
C343 C342 1.397 . S
C343 C344 1.438 . S
C343 C348 1.429 . S
C344 C343 1.438 . S
C344 C345 1.428 . S
C344 C357 1.394 1_545 S
C345 H337 0.949 . S
C345 C344 1.428 . S
C345 C346 1.345 . S
C346 H338 0.950 . S
C346 C345 1.345 . S
C346 C347 1.424 . S
C347 H339 0.951 . S
C347 C346 1.424 . S
C347 C348 1.347 . S
C348 H340 0.951 . S
C348 C343 1.429 . S
C348 C347 1.347 . S
H349 C350 0.951 . S
C350 H349 0.951 . S
C350 C356 1.265 . S
H351 C356 0.950 . S
H352 C360 0.949 . S
H353 C361 0.950 . S
H354 C362 0.951 . S
H355 C363 0.951 . S
C356 C350 1.265 . S
C356 H351 0.950 . S
C356 C357 1.478 . S
C357 C344 1.394 1_565 S
C357 C356 1.478 . S
C357 C358 1.397 . S
C358 C357 1.397 . S
C358 C359 1.438 . S
C358 C363 1.429 . S
C359 C342 1.394 1_565 S
C359 C358 1.438 . S
C359 C360 1.428 . S
C360 H352 0.949 . S
C360 C359 1.428 . S
C360 C361 1.345 . S
C361 H353 0.950 . S
C361 C360 1.345 . S
C361 C362 1.424 . S
C362 H354 0.951 . S
C362 C361 1.424 . S
C362 C363 1.347 . S
C363 H355 0.951 . S
C363 C358 1.429 . S
C363 C362 1.347 . S
H364 C365 0.951 . S
C365 H364 0.951 . S
C365 C371 1.265 . S
H366 C371 0.950 1_455 S
H367 C375 0.949 . S
H368 C376 0.950 . S
H369 C377 0.951 . S
H370 C378 0.951 . S
C371 C365 1.265 . S
C371 H366 0.950 1_655 S
C371 C372 1.478 . S
C372 C371 1.478 . S
C372 C373 1.397 1_655 S
C372 C389 1.394 . S
C373 C372 1.397 1_455 S
C373 C374 1.438 1_554 S
C373 C378 1.429 . S
C374 C373 1.438 1_556 S
C374 C375 1.428 . S
C374 C387 1.394 . S
C375 H367 0.949 . S
C375 C374 1.428 . S
C375 C376 1.345 . S
C376 H368 0.950 . S
C376 C375 1.345 . S
C376 C377 1.424 1_556 S
C377 H369 0.951 . S
C377 C376 1.424 1_554 S
C377 C378 1.347 . S
C378 H370 0.951 . S
C378 C373 1.429 . S
C378 C377 1.347 . S
H379 C380 0.951 . S
C380 H379 0.951 . S
C380 C386 1.265 . S
H381 C386 0.950 1_655 S
H382 C390 0.949 . S
H383 C391 0.950 . S
H384 C392 0.951 . S
H385 C393 0.951 . S
C386 C380 1.265 . S
C386 H381 0.950 1_455 S
C386 C387 1.478 . S
C387 C374 1.394 . S
C387 C386 1.478 . S
C387 C388 1.397 1_455 S
C388 C387 1.397 1_655 S
C388 C389 1.438 1_556 S
C388 C393 1.429 . S
C389 C372 1.394 . S
C389 C388 1.438 1_554 S
C389 C390 1.428 . S
C390 H382 0.949 . S
C390 C389 1.428 . S
C390 C391 1.345 . S
C391 H383 0.950 . S
C391 C390 1.345 . S
C391 C392 1.424 1_554 S
C392 H384 0.951 . S
C392 C391 1.424 1_556 S
C392 C393 1.347 . S
C393 H385 0.951 . S
C393 C388 1.429 . S
C393 C392 1.347 . S
H394 C395 0.951 . S
C395 H394 0.951 . S
C395 C401 1.265 . S
H396 C401 0.950 . S
H397 C405 0.949 . S
H398 C406 0.950 . S
H399 C407 0.951 . S
H400 C408 0.951 . S
C401 C395 1.265 . S
C401 H396 0.950 . S
C401 C402 1.478 . S
C402 C401 1.478 . S
C402 C403 1.397 . S
C402 C419 1.394 1_545 S
C403 C402 1.397 . S
C403 C404 1.438 . S
C403 C408 1.429 . S
C404 C403 1.438 . S
C404 C405 1.428 . S
C404 C417 1.394 1_545 S
C405 H397 0.949 . S
C405 C404 1.428 . S
C405 C406 1.345 . S
C406 H398 0.950 . S
C406 C405 1.345 . S
C406 C407 1.424 . S
C407 H399 0.951 . S
C407 C406 1.424 . S
C407 C408 1.347 . S
C408 H400 0.951 . S
C408 C403 1.429 . S
C408 C407 1.347 . S
H409 C410 0.951 . S
C410 H409 0.951 . S
C410 C416 1.265 . S
H411 C416 0.950 . S
H412 C420 0.949 . S
H413 C421 0.950 . S
H414 C422 0.951 . S
H415 C423 0.951 . S
C416 C410 1.265 . S
C416 H411 0.950 . S
C416 C417 1.478 . S
C417 C404 1.394 1_565 S
C417 C416 1.478 . S
C417 C418 1.397 . S
C418 C417 1.397 . S
C418 C419 1.438 . S
C418 C423 1.429 . S
C419 C402 1.394 1_565 S
C419 C418 1.438 . S
C419 C420 1.428 . S
C420 H412 0.949 . S
C420 C419 1.428 . S
C420 C421 1.345 . S
C421 H413 0.950 . S
C421 C420 1.345 . S
C421 C422 1.424 . S
C422 H414 0.951 . S
C422 C421 1.424 . S
C422 C423 1.347 . S
C423 H415 0.951 . S
C423 C418 1.429 . S
C423 C422 1.347 . S
H424 C425 0.951 . S
C425 H424 0.951 . S
C425 C431 1.265 . S
H426 C431 0.950 . S
H427 C435 0.949 . S
H428 C436 0.950 . S
H429 C437 0.951 . S
H430 C438 0.951 . S
C431 C425 1.265 . S
C431 H426 0.950 . S
C431 C432 1.478 . S
C432 C431 1.478 . S
C432 C433 1.397 . S
C432 C449 1.394 . S
C433 C432 1.397 . S
C433 C434 1.438 . S
C433 C438 1.429 . S
C434 C433 1.438 . S
C434 C435 1.428 . S
C434 C447 1.394 . S
C435 H427 0.949 . S
C435 C434 1.428 . S
C435 C436 1.345 . S
C436 H428 0.950 . S
C436 C435 1.345 . S
C436 C437 1.424 . S
C437 H429 0.951 . S
C437 C436 1.424 . S
C437 C438 1.347 . S
C438 H430 0.951 . S
C438 C433 1.429 . S
C438 C437 1.347 . S
H439 C440 0.951 . S
C440 H439 0.951 . S
C440 C446 1.265 . S
H441 C446 0.950 . S
H442 C450 0.949 . S
H443 C451 0.950 . S
H444 C452 0.951 . S
H445 C453 0.951 . S
C446 C440 1.265 . S
C446 H441 0.950 . S
C446 C447 1.478 . S
C447 C434 1.394 . S
C447 C446 1.478 . S
C447 C448 1.397 . S
C448 C447 1.397 . S
C448 C449 1.438 . S
C448 C453 1.429 . S
C449 C432 1.394 . S
C449 C448 1.438 . S
C449 C450 1.428 . S
C450 H442 0.949 . S
C450 C449 1.428 . S
C450 C451 1.345 . S
C451 H443 0.950 . S
C451 C450 1.345 . S
C451 C452 1.424 . S
C452 H444 0.951 . S
C452 C451 1.424 . S
C452 C453 1.347 . S
C453 H445 0.951 . S
C453 C448 1.429 . S
C453 C452 1.347 . S
H454 C455 0.951 . S
C455 H454 0.951 . S
C455 C461 1.265 . S
H456 C461 0.950 . S
H457 C465 0.949 . S
H458 C466 0.950 . S
H459 C467 0.951 . S
H460 C468 0.951 . S
C461 C455 1.265 . S
C461 H456 0.950 . S
C461 C462 1.478 . S
C462 C461 1.478 . S
C462 C463 1.397 . S
C462 C479 1.394 . S
C463 C462 1.397 . S
C463 C464 1.438 . S
C463 C468 1.429 . S
C464 C463 1.438 . S
C464 C465 1.428 . S
C464 C477 1.394 . S
C465 H457 0.949 . S
C465 C464 1.428 . S
C465 C466 1.345 . S
C466 H458 0.950 . S
C466 C465 1.345 . S
C466 C467 1.424 . S
C467 H459 0.951 . S
C467 C466 1.424 . S
C467 C468 1.347 . S
C468 H460 0.951 . S
C468 C463 1.429 . S
C468 C467 1.347 . S
H469 C470 0.951 . S
C470 H469 0.951 . S
C470 C476 1.265 . S
H471 C476 0.950 . S
H472 C480 0.949 . S
H473 C481 0.950 . S
H474 C482 0.951 . S
H475 C483 0.951 . S
C476 C470 1.265 . S
C476 H471 0.950 . S
C476 C477 1.478 . S
C477 C464 1.394 . S
C477 C476 1.478 . S
C477 C478 1.397 . S
C478 C477 1.397 . S
C478 C479 1.438 . S
C478 C483 1.429 . S
C479 C462 1.394 . S
C479 C478 1.438 . S
C479 C480 1.428 . S
C480 H472 0.949 . S
C480 C479 1.428 . S
C480 C481 1.345 . S
C481 H473 0.950 . S
C481 C480 1.345 . S
C481 C482 1.424 . S
C482 H474 0.951 . S
C482 C481 1.424 . S
C482 C483 1.347 . S
C483 H475 0.951 . S
C483 C478 1.429 . S
C483 C482 1.347 . S
H484 C485 0.951 . S
C485 H484 0.951 . S
C485 C491 1.265 . S
H486 C491 0.950 . S
H487 C495 0.949 . S
H488 C496 0.950 . S
H489 C497 0.951 . S
H490 C498 0.951 . S
C491 C485 1.265 . S
C491 H486 0.950 . S
C491 C492 1.478 . S
C492 C491 1.478 . S
C492 C493 1.397 . S
C492 C509 1.394 . S
C493 C492 1.397 . S
C493 C494 1.438 . S
C493 C498 1.429 . S
C494 C493 1.438 . S
C494 C495 1.428 . S
C494 C507 1.394 . S
C495 H487 0.949 . S
C495 C494 1.428 . S
C495 C496 1.345 . S
C496 H488 0.950 . S
C496 C495 1.345 . S
C496 C497 1.424 . S
C497 H489 0.951 . S
C497 C496 1.424 . S
C497 C498 1.347 . S
C498 H490 0.951 . S
C498 C493 1.429 . S
C498 C497 1.347 . S
H499 C500 0.951 . S
C500 H499 0.951 . S
C500 C506 1.265 . S
H501 C506 0.950 . S
H502 C510 0.949 . S
H503 C511 0.950 . S
H504 C512 0.951 . S
H505 C513 0.951 . S
C506 C500 1.265 . S
C506 H501 0.950 . S
C506 C507 1.478 . S
C507 C494 1.394 . S
C507 C506 1.478 . S
C507 C508 1.397 . S
C508 C507 1.397 . S
C508 C509 1.438 . S
C508 C513 1.429 . S
C509 C492 1.394 . S
C509 C508 1.438 . S
C509 C510 1.428 . S
C510 H502 0.949 . S
C510 C509 1.428 . S
C510 C511 1.345 . S
C511 H503 0.950 . S
C511 C510 1.345 . S
C511 C512 1.424 . S
C512 H504 0.951 . S
C512 C511 1.424 . S
C512 C513 1.347 . S
C513 H505 0.951 . S
C513 C508 1.429 . S
C513 C512 1.347 . S
H514 C515 0.951 . S
C515 H514 0.951 . S
C515 C521 1.265 . S
H516 C521 0.950 . S
H517 C525 0.949 . S
H518 C526 0.950 . S
H519 C527 0.951 . S
H520 C528 0.951 . S
C521 C515 1.265 . S
C521 H516 0.950 . S
C521 C522 1.478 . S
C522 C521 1.478 . S
C522 C523 1.397 . S
C522 C539 1.394 . S
C523 C522 1.397 . S
C523 C524 1.438 . S
C523 C528 1.429 . S
C524 C523 1.438 . S
C524 C525 1.428 . S
C524 C537 1.394 . S
C525 H517 0.949 . S
C525 C524 1.428 . S
C525 C526 1.345 . S
C526 H518 0.950 . S
C526 C525 1.345 . S
C526 C527 1.424 . S
C527 H519 0.951 . S
C527 C526 1.424 . S
C527 C528 1.347 . S
C528 H520 0.951 . S
C528 C523 1.429 . S
C528 C527 1.347 . S
H529 C530 0.951 . S
C530 H529 0.951 . S
C530 C536 1.265 . S
H531 C536 0.950 . S
H532 C540 0.949 . S
H533 C541 0.950 . S
H534 C542 0.951 . S
H535 C543 0.951 . S
C536 C530 1.265 . S
C536 H531 0.950 . S
C536 C537 1.478 . S
C537 C524 1.394 . S
C537 C536 1.478 . S
C537 C538 1.397 . S
C538 C537 1.397 . S
C538 C539 1.438 . S
C538 C543 1.429 . S
C539 C522 1.394 . S
C539 C538 1.438 . S
C539 C540 1.428 . S
C540 H532 0.949 . S
C540 C539 1.428 . S
C540 C541 1.345 . S
C541 H533 0.950 . S
C541 C540 1.345 . S
C541 C542 1.424 . S
C542 H534 0.951 . S
C542 C541 1.424 . S
C542 C543 1.347 . S
C543 H535 0.951 . S
C543 C538 1.429 . S
C543 C542 1.347 . S
H544 C545 0.951 . S
C545 H544 0.951 . S
C545 C551 1.265 . S
H546 C551 0.950 1_655 S
H547 C555 0.949 . S
H548 C556 0.950 . S
H549 C557 0.951 . S
H550 C558 0.951 . S
C551 C545 1.265 . S
C551 H546 0.950 1_455 S
C551 C552 1.478 . S
C552 C551 1.478 . S
C552 C553 1.397 1_455 S
C552 C569 1.394 . S
C553 C552 1.397 1_655 S
C553 C554 1.438 1_545 S
C553 C558 1.429 . S
C554 C553 1.438 1_565 S
C554 C555 1.428 . S
C554 C567 1.394 . S
C555 H547 0.949 . S
C555 C554 1.428 . S
C555 C556 1.345 . S
C556 H548 0.950 . S
C556 C555 1.345 . S
C556 C557 1.424 1_565 S
C557 H549 0.951 . S
C557 C556 1.424 1_545 S
C557 C558 1.347 . S
C558 H550 0.951 . S
C558 C553 1.429 . S
C558 C557 1.347 . S
H559 C560 0.951 . S
C560 H559 0.951 . S
C560 C566 1.265 . S
H561 C566 0.950 1_455 S
H562 C570 0.949 . S
H563 C571 0.950 . S
H564 C572 0.951 . S
H565 C573 0.951 . S
C566 C560 1.265 . S
C566 H561 0.950 1_655 S
C566 C567 1.478 . S
C567 C554 1.394 . S
C567 C566 1.478 . S
C567 C568 1.397 1_655 S
C568 C567 1.397 1_455 S
C568 C569 1.438 1_565 S
C568 C573 1.429 . S
C569 C552 1.394 . S
C569 C568 1.438 1_545 S
C569 C570 1.428 . S
C570 H562 0.949 . S
C570 C569 1.428 . S
C570 C571 1.345 . S
C571 H563 0.950 . S
C571 C570 1.345 . S
C571 C572 1.424 1_545 S
C572 H564 0.951 . S
C572 C571 1.424 1_565 S
C572 C573 1.347 . S
C573 H565 0.951 . S
C573 C568 1.429 . S
C573 C572 1.347 . S
H574 C575 0.951 . S
C575 H574 0.951 . S
C575 C581 1.265 . S
H576 C581 0.950 . S
H577 C585 0.949 1_545 S
H578 C586 0.950 . S
H579 C587 0.951 . S
H580 C588 0.951 . S
C581 C575 1.265 . S
C581 H576 0.950 . S
C581 C582 1.478 . S
C582 C581 1.478 . S
C582 C583 1.397 . S
C582 C599 1.385 1_565 S
C583 C582 1.397 . S
C583 C584 1.447 1_455 S
C583 C588 1.429 . S
C584 C583 1.447 1_655 S
C584 C585 1.428 . S
C584 C597 1.384 1_565 S
C585 H577 0.949 1_565 S
C585 C584 1.428 . S
C585 C586 1.345 . S
C586 H578 0.950 . S
C586 C585 1.345 . S
C586 C587 1.424 . S
C587 H579 0.951 . S
C587 C586 1.424 . S
C587 C588 1.347 1_655 S
C588 H580 0.951 . S
C588 C583 1.429 . S
C588 C587 1.347 1_455 S
H589 C590 0.951 . S
C590 H589 0.951 . S
C590 C596 1.265 . S
H591 C596 0.950 . S
H592 C600 0.949 1_565 S
H593 C601 0.950 . S
H594 C602 0.951 . S
H595 C603 0.951 . S
C596 C590 1.265 . S
C596 H591 0.950 . S
C596 C597 1.478 . S
C597 C584 1.384 1_545 S
C597 C596 1.478 . S
C597 C598 1.397 . S
C598 C597 1.397 . S
C598 C599 1.447 1_655 S
C598 C603 1.429 . S
C599 C582 1.385 1_545 S
C599 C598 1.447 1_455 S
C599 C600 1.428 . S
C600 H592 0.949 1_545 S
C600 C599 1.428 . S
C600 C601 1.345 . S
C601 H593 0.950 . S
C601 C600 1.345 . S
C601 C602 1.424 . S
C602 H594 0.951 . S
C602 C601 1.424 . S
C602 C603 1.347 1_455 S
C603 H595 0.951 . S
C603 C598 1.429 . S
C603 C602 1.347 1_655 S
H604 C605 0.951 . S
C605 H604 0.951 . S
C605 C611 1.265 . S
H606 C611 0.950 1_455 S
H607 C615 0.949 . S
H608 C616 0.950 . S
H609 C617 0.951 . S
H610 C618 0.951 . S
C611 C605 1.265 . S
C611 H606 0.950 1_655 S
C611 C612 1.478 . S
C612 C611 1.478 . S
C612 C613 1.397 1_655 S
C612 C629 1.394 . S
C613 C612 1.397 1_455 S
C613 C614 1.438 1_545 S
C613 C618 1.429 . S
C614 C613 1.438 1_565 S
C614 C615 1.428 . S
C614 C627 1.394 . S
C615 H607 0.949 . S
C615 C614 1.428 . S
C615 C616 1.345 . S
C616 H608 0.950 . S
C616 C615 1.345 . S
C616 C617 1.424 1_565 S
C617 H609 0.951 . S
C617 C616 1.424 1_545 S
C617 C618 1.347 . S
C618 H610 0.951 . S
C618 C613 1.429 . S
C618 C617 1.347 . S
H619 C620 0.951 . S
C620 H619 0.951 . S
C620 C626 1.265 . S
H621 C626 0.950 1_655 S
H622 C630 0.949 . S
H623 C631 0.950 . S
H624 C632 0.951 . S
H625 C633 0.951 . S
C626 C620 1.265 . S
C626 H621 0.950 1_455 S
C626 C627 1.478 . S
C627 C614 1.394 . S
C627 C626 1.478 . S
C627 C628 1.397 1_455 S
C628 C627 1.397 1_655 S
C628 C629 1.438 1_565 S
C628 C633 1.429 . S
C629 C612 1.394 . S
C629 C628 1.438 1_545 S
C629 C630 1.428 . S
C630 H622 0.949 . S
C630 C629 1.428 . S
C630 C631 1.345 . S
C631 H623 0.950 . S
C631 C630 1.345 . S
C631 C632 1.424 1_545 S
C632 H624 0.951 . S
C632 C631 1.424 1_565 S
C632 C633 1.347 . S
C633 H625 0.951 . S
C633 C628 1.429 . S
C633 C632 1.347 . S
H634 C635 0.951 . S
C635 H634 0.951 . S
C635 C641 1.265 . S
H636 C641 0.950 . S
H637 C645 0.943 1_545 S
H638 C646 0.950 . S
H639 C647 0.951 . S
H640 C648 0.951 . S
C641 C635 1.265 . S
C641 H636 0.950 . S
C641 C642 1.478 . S
C642 C641 1.478 . S
C642 C643 1.397 . S
C642 C659 1.397 . S
C643 C642 1.397 . S
C643 C644 1.435 1_665 S
C643 C648 1.429 . S
C644 C643 1.435 1_445 S
C644 C645 1.428 1_545 S
C644 C657 1.397 . S
C645 H637 0.943 1_565 S
C645 C644 1.428 1_565 S
C645 C646 1.351 . S
C646 H638 0.950 . S
C646 C645 1.351 . S
C646 C647 1.424 . S
C647 H639 0.951 . S
C647 C646 1.424 . S
C647 C648 1.347 1_455 S
C648 H640 0.951 . S
C648 C643 1.429 . S
C648 C647 1.347 1_655 S
H649 C650 0.951 . S
C650 H649 0.951 . S
C650 C656 1.265 . S
H651 C656 0.950 . S
H652 C660 0.943 1_565 S
H653 C661 0.950 . S
H654 C662 0.951 . S
H655 C663 0.951 . S
C656 C650 1.265 . S
C656 H651 0.950 . S
C656 C657 1.478 . S
C657 C644 1.397 . S
C657 C656 1.478 . S
C657 C658 1.397 . S
C658 C657 1.397 . S
C658 C659 1.435 1_445 S
C658 C663 1.429 . S
C659 C642 1.397 . S
C659 C658 1.435 1_665 S
C659 C660 1.428 1_565 S
C660 H652 0.943 1_545 S
C660 C659 1.428 1_545 S
C660 C661 1.351 . S
C661 H653 0.950 . S
C661 C660 1.351 . S
C661 C662 1.424 . S
C662 H654 0.951 . S
C662 C661 1.424 . S
C662 C663 1.347 1_655 S
C663 H655 0.951 . S
C663 C658 1.429 . S
C663 C662 1.347 1_455 S
C185 N12 1.693 . S
C200 N58 1.717 . S
C215 N81 1.704 . S
C230 N35 1.708 . S
C245 N150 1.684 . S
C260 N104 1.686 . S
C275 N127 1.705 . S
C290 N173 1.707 . S
C305 C145 1.625 . S
C320 C7 1.661 . S
C335 C30 1.621 . S
C350 C168 1.670 . S
C365 C53 1.642 . S
C380 C99 1.643 . S
C395 C122 1.625 . S
C410 C76 1.669 . S
C425 C16 1.626 . S
C440 C131 1.638 . S
C455 C154 1.681 . S
C470 C39 1.677 . S
C485 C177 1.630 . S
C500 C62 1.625 . S
C515 C85 1.657 . S
C530 C108 1.674 . S
C545 N2 1.420 . S
C560 N48 1.417 . S
C575 N71 1.278 . S
C590 N25 1.277 . S
C605 N140 1.419 . S
C620 N94 1.418 . S
C635 N163 1.278 . S
C650 N117 1.278 . S
