# Generated by pormake.
# Topology uos, (4)-cn, num edge types: 1
# Building blocks:
#     Node 0, Type 0, BuildingBlock: QUQFOY_clean_sbu_3, # of connection points: 4
#     Node 1, Type 0, BuildingBlock: QUQFOY_clean_sbu_3, # of connection points: 4
#     Node 2, Type 0, BuildingBlock: QUQFOY_clean_sbu_3, # of connection points: 4
#     Node 3, Type 0, BuildingBlock: QUQFOY_clean_sbu_3, # of connection points: 4
#     Node 4, Type 0, BuildingBlock: QUQFOY_clean_sbu_3, # of connection points: 4
#     Node 5, Type 0, BuildingBlock: QUQFOY_clean_sbu_3, # of connection points: 4
#     Node 6, Type 0, BuildingBlock: QUQFOY_clean_sbu_3, # of connection points: 4
#     Node 7, Type 0, BuildingBlock: QUQFOY_clean_sbu_3, # of connection points: 4
#     Node 8, Type 0, BuildingBlock: QUQFOY_clean_sbu_3, # of connection points: 4
#     Node 9, Type 0, BuildingBlock: QUQFOY_clean_sbu_3, # of connection points: 4
#     Node 10, Type 0, BuildingBlock: QUQFOY_clean_sbu_3, # of connection points: 4
#     Node 11, Type 0, BuildingBlock: QUQFOY_clean_sbu_3, # of connection points: 4
#     Node 12, Type 0, BuildingBlock: QUQFOY_clean_sbu_3, # of connection points: 4
#     Node 13, Type 0, BuildingBlock: QUQFOY_clean_sbu_3, # of connection points: 4
#     Node 14, Type 0, BuildingBlock: QUQFOY_clean_sbu_3, # of connection points: 4
#     Node 15, Type 0, BuildingBlock: QUQFOY_clean_sbu_3, # of connection points: 4
#     Node 16, Type 0, BuildingBlock: QUQFOY_clean_sbu_3, # of connection points: 4
#     Node 17, Type 0, BuildingBlock: QUQFOY_clean_sbu_3, # of connection points: 4
#     Node 18, Type 0, BuildingBlock: QUQFOY_clean_sbu_3, # of connection points: 4
#     Node 19, Type 0, BuildingBlock: QUQFOY_clean_sbu_3, # of connection points: 4
#     Node 20, Type 0, BuildingBlock: QUQFOY_clean_sbu_3, # of connection points: 4
#     Node 21, Type 0, BuildingBlock: QUQFOY_clean_sbu_3, # of connection points: 4
#     Node 22, Type 0, BuildingBlock: QUQFOY_clean_sbu_3, # of connection points: 4
#     Node 23, Type 0, BuildingBlock: QUQFOY_clean_sbu_3, # of connection points: 4
#     Node 24, Type 0, BuildingBlock: QUQFOY_clean_sbu_3, # of connection points: 4
#     Node 25, Type 0, BuildingBlock: QUQFOY_clean_sbu_3, # of connection points: 4
#     Node 26, Type 0, BuildingBlock: QUQFOY_clean_sbu_3, # of connection points: 4
#     Node 27, Type 0, BuildingBlock: QUQFOY_clean_sbu_3, # of connection points: 4
#     Node 28, Type 0, BuildingBlock: QUQFOY_clean_sbu_3, # of connection points: 4
#     Node 29, Type 0, BuildingBlock: QUQFOY_clean_sbu_3, # of connection points: 4
#     Node 30, Type 0, BuildingBlock: QUQFOY_clean_sbu_3, # of connection points: 4
#     Node 31, Type 0, BuildingBlock: QUQFOY_clean_sbu_3, # of connection points: 4
#     Edge 32, Type (0, 0), BuildingBlock: AJUNOK_clean_linker_0, # of connection points: 2
#     Edge 33, Type (0, 0), BuildingBlock: AJUNOK_clean_linker_0, # of connection points: 2
#     Edge 34, Type (0, 0), BuildingBlock: AJUNOK_clean_linker_0, # of connection points: 2
#     Edge 35, Type (0, 0), BuildingBlock: AJUNOK_clean_linker_0, # of connection points: 2
#     Edge 36, Type (0, 0), BuildingBlock: AJUNOK_clean_linker_0, # of connection points: 2
#     Edge 37, Type (0, 0), BuildingBlock: AJUNOK_clean_linker_0, # of connection points: 2
#     Edge 38, Type (0, 0), BuildingBlock: AJUNOK_clean_linker_0, # of connection points: 2
#     Edge 39, Type (0, 0), BuildingBlock: AJUNOK_clean_linker_0, # of connection points: 2
#     Edge 40, Type (0, 0), BuildingBlock: AJUNOK_clean_linker_0, # of connection points: 2
#     Edge 41, Type (0, 0), BuildingBlock: AJUNOK_clean_linker_0, # of connection points: 2
#     Edge 42, Type (0, 0), BuildingBlock: AJUNOK_clean_linker_0, # of connection points: 2
#     Edge 43, Type (0, 0), BuildingBlock: AJUNOK_clean_linker_0, # of connection points: 2
#     Edge 44, Type (0, 0), BuildingBlock: AJUNOK_clean_linker_0, # of connection points: 2
#     Edge 45, Type (0, 0), BuildingBlock: AJUNOK_clean_linker_0, # of connection points: 2
#     Edge 46, Type (0, 0), BuildingBlock: AJUNOK_clean_linker_0, # of connection points: 2
#     Edge 47, Type (0, 0), BuildingBlock: AJUNOK_clean_linker_0, # of connection points: 2
#     Edge 48, Type (0, 0), BuildingBlock: AJUNOK_clean_linker_0, # of connection points: 2
#     Edge 49, Type (0, 0), BuildingBlock: AJUNOK_clean_linker_0, # of connection points: 2
#     Edge 50, Type (0, 0), BuildingBlock: AJUNOK_clean_linker_0, # of connection points: 2
#     Edge 51, Type (0, 0), BuildingBlock: AJUNOK_clean_linker_0, # of connection points: 2
#     Edge 52, Type (0, 0), BuildingBlock: AJUNOK_clean_linker_0, # of connection points: 2
#     Edge 53, Type (0, 0), BuildingBlock: AJUNOK_clean_linker_0, # of connection points: 2
#     Edge 54, Type (0, 0), BuildingBlock: AJUNOK_clean_linker_0, # of connection points: 2
#     Edge 55, Type (0, 0), BuildingBlock: AJUNOK_clean_linker_0, # of connection points: 2
#     Edge 56, Type (0, 0), BuildingBlock: AJUNOK_clean_linker_0, # of connection points: 2
#     Edge 57, Type (0, 0), BuildingBlock: AJUNOK_clean_linker_0, # of connection points: 2
#     Edge 58, Type (0, 0), BuildingBlock: AJUNOK_clean_linker_0, # of connection points: 2
#     Edge 59, Type (0, 0), BuildingBlock: AJUNOK_clean_linker_0, # of connection points: 2
#     Edge 60, Type (0, 0), BuildingBlock: AJUNOK_clean_linker_0, # of connection points: 2
#     Edge 61, Type (0, 0), BuildingBlock: AJUNOK_clean_linker_0, # of connection points: 2
#     Edge 62, Type (0, 0), BuildingBlock: AJUNOK_clean_linker_0, # of connection points: 2
#     Edge 63, Type (0, 0), BuildingBlock: AJUNOK_clean_linker_0, # of connection points: 2
#     Edge 64, Type (0, 0), BuildingBlock: AJUNOK_clean_linker_0, # of connection points: 2
#     Edge 65, Type (0, 0), BuildingBlock: AJUNOK_clean_linker_0, # of connection points: 2
#     Edge 66, Type (0, 0), BuildingBlock: AJUNOK_clean_linker_0, # of connection points: 2
#     Edge 67, Type (0, 0), BuildingBlock: AJUNOK_clean_linker_0, # of connection points: 2
#     Edge 68, Type (0, 0), BuildingBlock: AJUNOK_clean_linker_0, # of connection points: 2
#     Edge 69, Type (0, 0), BuildingBlock: AJUNOK_clean_linker_0, # of connection points: 2
#     Edge 70, Type (0, 0), BuildingBlock: AJUNOK_clean_linker_0, # of connection points: 2
#     Edge 71, Type (0, 0), BuildingBlock: AJUNOK_clean_linker_0, # of connection points: 2
#     Edge 72, Type (0, 0), BuildingBlock: AJUNOK_clean_linker_0, # of connection points: 2
#     Edge 73, Type (0, 0), BuildingBlock: AJUNOK_clean_linker_0, # of connection points: 2
#     Edge 74, Type (0, 0), BuildingBlock: AJUNOK_clean_linker_0, # of connection points: 2
#     Edge 75, Type (0, 0), BuildingBlock: AJUNOK_clean_linker_0, # of connection points: 2
#     Edge 76, Type (0, 0), BuildingBlock: AJUNOK_clean_linker_0, # of connection points: 2
#     Edge 77, Type (0, 0), BuildingBlock: AJUNOK_clean_linker_0, # of connection points: 2
#     Edge 78, Type (0, 0), BuildingBlock: AJUNOK_clean_linker_0, # of connection points: 2
#     Edge 79, Type (0, 0), BuildingBlock: AJUNOK_clean_linker_0, # of connection points: 2
#     Edge 80, Type (0, 0), BuildingBlock: AJUNOK_clean_linker_0, # of connection points: 2
#     Edge 81, Type (0, 0), BuildingBlock: AJUNOK_clean_linker_0, # of connection points: 2
#     Edge 82, Type (0, 0), BuildingBlock: AJUNOK_clean_linker_0, # of connection points: 2
#     Edge 83, Type (0, 0), BuildingBlock: AJUNOK_clean_linker_0, # of connection points: 2
#     Edge 84, Type (0, 0), BuildingBlock: AJUNOK_clean_linker_0, # of connection points: 2
#     Edge 85, Type (0, 0), BuildingBlock: AJUNOK_clean_linker_0, # of connection points: 2
#     Edge 86, Type (0, 0), BuildingBlock: AJUNOK_clean_linker_0, # of connection points: 2
#     Edge 87, Type (0, 0), BuildingBlock: AJUNOK_clean_linker_0, # of connection points: 2
#     Edge 88, Type (0, 0), BuildingBlock: AJUNOK_clean_linker_0, # of connection points: 2
#     Edge 89, Type (0, 0), BuildingBlock: AJUNOK_clean_linker_0, # of connection points: 2
#     Edge 90, Type (0, 0), BuildingBlock: AJUNOK_clean_linker_0, # of connection points: 2
#     Edge 91, Type (0, 0), BuildingBlock: AJUNOK_clean_linker_0, # of connection points: 2
#     Edge 92, Type (0, 0), BuildingBlock: AJUNOK_clean_linker_0, # of connection points: 2
#     Edge 93, Type (0, 0), BuildingBlock: AJUNOK_clean_linker_0, # of connection points: 2
#     Edge 94, Type (0, 0), BuildingBlock: AJUNOK_clean_linker_0, # of connection points: 2
#     Edge 95, Type (0, 0), BuildingBlock: AJUNOK_clean_linker_0, # of connection points: 2
# Relax obj value: 0.041
# Max RMSD: 0.065
# Mean RMSD: 0.065
data_MOF--net-uos--node1-QUQFOY_clean_sbu_3--edge1-AJUNOK_clean_linker_0
_symmetry_space_group_name_H-M    P1
_symmetry_Int_Tables_number       1
_symmetry_cell_setting            triclinic
loop_
_symmetry_equiv_pos_as_xyz
'x, y, z'
_cell_length_a     65.146809
_cell_length_b     64.985441
_cell_length_c     18.086343
_cell_angle_alpha  89.927401
_cell_angle_beta   89.880464
_cell_angle_gamma 89.949037
loop_
_atom_site_label
_atom_site_type_symbol
_atom_site_fract_x
_atom_site_fract_y
_atom_site_fract_z
_atom_type_partial_charge
C0 C 0.1478 0.20007 0.0705 0.0
O1 O 0.14055 0.19044 0.12581 0.0
Cd2 Cd 0.14651 0.156 0.15999 0.0
O3 O 0.15856 0.1908 0.02164 0.0
Cd4 Cd 0.16863 0.15422 -0.00494 0.0
C5 C 0.2 0.15643 0.14306 0.0
O6 O 0.13948 0.13874 0.04963 0.0
O7 O 0.16461 0.11797 0.03588 0.0
O8 O 0.15507 0.16002 0.87346 0.0
C9 C 0.14636 0.12075 0.05806 0.0
O10 O 0.18366 0.15493 0.18173 0.0
C11 C 0.16803 0.14887 0.8397 0.0
O12 O 0.19914 0.15763 0.07262 0.0
O13 O 0.18271 0.1415 0.87774 0.0
C14 C 0.04493 0.89706 0.44774 0.0
O15 O 0.044 0.90177 0.51573 0.0
Cd16 Cd 0.0707 0.91217 0.59629 0.0
O17 O 0.06194 0.89659 0.41289 0.0
Cd18 Cd 0.09841 0.90225 0.45049 0.0
C19 C 0.08883 0.95197 0.4897 0.0
O20 O 0.09717 0.88847 0.57359 0.0
O21 O 0.12373 0.90698 0.54945 0.0
O22 O 0.10928 0.87187 0.38233 0.0
C23 C 0.11414 0.89572 0.59506 0.0
O24 O 0.08114 0.94574 0.55053 0.0
C25 C 0.12339 0.88093 0.34631 0.0
O26 O 0.09488 0.93932 0.44048 0.0
O27 O 0.12539 0.90013 0.35717 0.0
C28 C 0.31749 0.78763 0.60002 0.0
O29 O 0.32457 0.79472 0.66015 0.0
Cd30 Cd 0.33059 0.82896 0.69709 0.0
O31 O 0.31287 0.79932 0.54582 0.0
Cd32 Cd 0.31445 0.8373 0.52362 0.0
C33 C 0.28012 0.84347 0.66374 0.0
O34 O 0.34468 0.84414 0.59172 0.0
O35 O 0.32654 0.87088 0.56906 0.0
O36 O 0.33096 0.83099 0.40681 0.0
C37 C 0.34245 0.86334 0.59877 0.0
O38 O 0.29524 0.8406 0.70722 0.0
C39 C 0.32087 0.84438 0.37086 0.0
O40 O 0.28231 0.84206 0.59363 0.0
O41 O 0.30606 0.85309 0.40458 0.0
C42 C 0.42849 0.09536 0.94764 0.0
O43 O 0.43019 0.0935 0.01721 0.0
Cd44 Cd 0.40588 0.08013 0.10188 0.0
O45 O 0.41161 0.09163 0.91472 0.0
Cd46 Cd 0.37584 0.08329 0.95658 0.0
C47 C 0.39254 0.03631 0.00443 0.0
O48 O 0.3759 0.09856 0.07668 0.0
O49 O 0.35144 0.07687 0.05846 0.0
O50 O 0.36252 0.11264 0.89044 0.0
C51 C 0.36017 0.08949 0.10151 0.0
O52 O 0.40032 0.045 0.06089 0.0
C53 C 0.34935 0.10282 0.85288 0.0
O54 O 0.38376 0.04672 0.95371 0.0
O55 O 0.34888 0.08339 0.86175 0.0
C56 C 0.15438 0.79257 0.8477 0.0
O57 O 0.1476 0.80267 0.79277 0.0
Cd58 Cd 0.1467 0.83837 0.76961 0.0
O59 O 0.16151 0.80173 0.90458 0.0
Cd60 Cd 0.16583 0.83872 0.9414 0.0
C61 C 0.19895 0.84528 0.79781 0.0
O62 O 0.13631 0.85209 0.88278 0.0
O63 O 0.1587 0.87495 0.90924 0.0
O64 O 0.15006 0.83188 0.05923 0.0
C65 C 0.14159 0.87075 0.87987 0.0
O66 O 0.18317 0.8458 0.75629 0.0
C67 C 0.16247 0.84269 0.0967 0.0
O68 O 0.1973 0.84158 0.86708 0.0
O69 O 0.17803 0.84982 0.06266 0.0
C70 C 0.44486 0.89392 0.02429 0.0
O71 O 0.44556 0.89707 0.95508 0.0
Cd72 Cd 0.41853 0.90652 0.87458 0.0
O73 O 0.42795 0.89446 0.05973 0.0
Cd74 Cd 0.39156 0.89891 0.01937 0.0
C75 C 0.40064 0.94797 0.97205 0.0
O76 O 0.39227 0.88257 0.89953 0.0
O77 O 0.36695 0.90318 0.91836 0.0
O78 O 0.37943 0.87006 0.09366 0.0
C79 C 0.37555 0.89011 0.87665 0.0
O80 O 0.40818 0.94107 0.91196 0.0
C81 C 0.36544 0.88017 0.12655 0.0
O82 O 0.39483 0.93585 0.02327 0.0
O83 O 0.36419 0.89921 0.11147 0.0
C84 C 0.33184 0.19399 0.39141 0.0
O85 O 0.33894 0.18578 0.33303 0.0
Cd86 Cd 0.33179 0.15247 0.28869 0.0
O87 O 0.32048 0.18376 0.43583 0.0
Cd88 Cd 0.30794 0.1475 0.45105 0.0
C89 C 0.27804 0.15428 0.30131 0.0
O90 O 0.33703 0.13256 0.39468 0.0
O91 O 0.31166 0.11186 0.40337 0.0
O92 O 0.3213 0.15251 0.57296 0.0
C93 C 0.33001 0.11481 0.38263 0.0
O94 O 0.29484 0.1533 0.26521 0.0
C95 C 0.30911 0.14031 0.60559 0.0
O96 O 0.27794 0.15367 0.37199 0.0
O97 O 0.29477 0.13253 0.56705 0.0
C98 C 0.05216 0.0971 0.5078 0.0
O99 O 0.04945 0.09438 0.43903 0.0
Cd100 Cd 0.07364 0.08239 0.35044 0.0
O101 O 0.06977 0.09497 0.53728 0.0
Cd102 Cd 0.1052 0.0886 0.48912 0.0
C103 C 0.09176 0.04021 0.44673 0.0
O104 O 0.10267 0.10306 0.36753 0.0
O105 O 0.12874 0.08319 0.38457 0.0
O106 O 0.11725 0.11905 0.55174 0.0
C107 C 0.11872 0.09483 0.34145 0.0
O108 O 0.08265 0.04787 0.39083 0.0
C109 C 0.13116 0.11015 0.58895 0.0
O110 O 0.10008 0.05163 0.4955 0.0
O111 O 0.13286 0.09078 0.58063 0.0
C112 C 0.83785 0.78717 0.85039 0.0
O113 O 0.84156 0.79129 0.78304 0.0
Cd114 Cd 0.83712 0.82304 0.72137 0.0
O115 O 0.83236 0.80118 0.89571 0.0
Cd116 Cd 0.82929 0.83972 0.89029 0.0
C117 C 0.78767 0.83456 0.7818 0.0
O118 O 0.85462 0.84581 0.79862 0.0
O119 O 0.83383 0.87108 0.81431 0.0
O120 O 0.85296 0.83985 -0.00857 0.0
C121 C 0.84964 0.86402 0.78225 0.0
O122 O 0.80047 0.83023 0.73075 0.0
C123 C 0.8444 0.854 0.02852 0.0
O124 O 0.79362 0.8375 0.84827 0.0
O125 O 0.82741 0.86086 0.00394 0.0
C126 C 0.96984 0.09841 0.57835 0.0
O127 O 0.96387 0.09888 0.51166 0.0
Cd128 Cd 0.93173 0.0906 0.46101 0.0
O129 O 0.95771 0.09332 0.63088 0.0
Cd130 Cd 0.91968 0.08568 0.63318 0.0
C131 C 0.92556 0.04193 0.5342 0.0
O132 O 0.90993 0.10947 0.53906 0.0
O133 O 0.88759 0.08604 0.55991 0.0
O134 O 0.91308 0.10851 0.73719 0.0
C135 C 0.89218 0.1026 0.5269 0.0
O136 O 0.92728 0.0535 0.47759 0.0
C137 C 0.90149 0.0961 0.77186 0.0
O138 O 0.92405 0.04965 0.59877 0.0
O139 O 0.89997 0.07807 0.74539 0.0
C140 C 0.6591 0.2006 0.29875 0.0
O141 O 0.65968 0.19584 0.23076 0.0
Cd142 Cd 0.65404 0.16411 0.17099 0.0
O143 O 0.65548 0.18717 0.34872 0.0
Cd144 Cd 0.65014 0.14879 0.342 0.0
C145 C 0.69505 0.13986 0.25092 0.0
O146 O 0.62716 0.14947 0.23942 0.0
O147 O 0.63986 0.11975 0.2629 0.0
O148 O 0.62419 0.14977 0.4389 0.0
C149 C 0.62753 0.13049 0.22502 0.0
O150 O 0.68577 0.14575 0.19277 0.0
C151 C 0.63094 0.1343 0.47418 0.0
O152 O 0.68639 0.14105 0.31423 0.0
O153 O 0.64775 0.12661 0.45148 0.0
C154 C 0.52901 0.89896 0.06758 0.0
O155 O 0.53477 0.89743 0.00076 0.0
Cd156 Cd 0.56624 0.9078 0.94972 0.0
O157 O 0.54107 0.90575 0.11755 0.0
Cd158 Cd 0.57873 0.91498 0.12096 0.0
C159 C 0.56846 0.95751 0.02047 0.0
O160 O 0.58859 0.89065 0.03042 0.0
O161 O 0.61131 0.91391 0.04791 0.0
O162 O 0.58016 0.89202 0.22545 0.0
C163 C 0.60641 0.89714 0.01698 0.0
O164 O 0.56697 0.94513 0.96612 0.0
C165 C 0.59343 0.90198 0.26194 0.0
O166 O 0.57179 0.95075 0.08566 0.0
O167 O 0.599 0.91923 0.23541 0.0
C168 C 0.81933 0.19564 0.16447 0.0
O169 O 0.81875 0.19271 0.23383 0.0
Cd170 Cd 0.82409 0.16234 0.3028 0.0
O171 O 0.82302 0.181 0.11936 0.0
Cd172 Cd 0.82876 0.14306 0.13582 0.0
C173 C 0.78307 0.13729 0.2256 0.0
O174 O 0.8511 0.14659 0.23852 0.0
O175 O 0.84025 0.11581 0.22202 0.0
O176 O 0.85463 0.14478 0.03938 0.0
C177 C 0.85183 0.12794 0.25745 0.0
O178 O 0.79215 0.14437 0.28239 0.0
C179 C 0.84923 0.12845 0.00636 0.0
O180 O 0.79225 0.13641 0.16319 0.0
O181 O 0.83316 0.11957 0.03047 0.0
C182 C 0.51211 0.09923 0.89464 0.0
O183 O 0.51776 0.10172 0.96114 0.0
Cd184 Cd 0.54963 0.09496 0.01758 0.0
O185 O 0.52467 0.09307 0.84503 0.0
Cd186 Cd 0.56289 0.08687 0.84564 0.0
C187 C 0.55852 0.04506 0.9558 0.0
O188 O 0.57261 0.11132 0.93791 0.0
O189 O 0.59469 0.08745 0.9183 0.0
O190 O 0.56871 0.11028 0.74329 0.0
C191 C 0.59006 0.10386 0.9521 0.0
O192 O 0.55562 0.05796 0.00779 0.0
C193 C 0.58056 0.09841 0.70742 0.0
O194 O 0.56005 0.05108 0.8887 0.0
O195 O 0.58263 0.08022 0.73233 0.0
C196 C 0.64712 0.78817 0.64339 0.0
O197 O 0.64538 0.78984 0.71305 0.0
Cd198 Cd 0.65253 0.81891 0.78784 0.0
O199 O 0.65187 0.80357 0.60301 0.0
Cd200 Cd 0.65604 0.84154 0.62449 0.0
C201 C 0.70022 0.83293 0.71632 0.0
O202 O 0.6344 0.84533 0.72982 0.0
O203 O 0.65477 0.87083 0.71096 0.0
O204 O 0.62855 0.84664 0.53851 0.0
C205 C 0.64053 0.86294 0.74944 0.0
O206 O 0.68865 0.82662 0.76855 0.0
C207 C 0.63723 0.86018 0.49886 0.0
O208 O 0.69273 0.83823 0.65384 0.0
O209 O 0.65577 0.86452 0.51489 0.0
C210 C 0.96101 0.89569 0.42415 0.0
O211 O 0.95763 0.89376 0.49293 0.0
Cd212 Cd 0.92836 0.90388 0.56028 0.0
O213 O 0.94724 0.90249 0.38026 0.0
Cd214 Cd 0.90944 0.91024 0.39225 0.0
C215 C 0.92133 0.95321 0.48665 0.0
O216 O 0.90257 0.88794 0.49276 0.0
O217 O 0.87914 0.91065 0.47566 0.0
O218 O 0.90372 0.88429 0.30055 0.0
C219 C 0.88536 0.89512 0.51164 0.0
O220 O 0.92543 0.94086 0.5394 0.0
C221 C 0.89069 0.89415 0.26245 0.0
O222 O 0.91608 0.94643 0.42313 0.0
O223 O 0.88727 0.91271 0.28147 0.0
C224 C 0.64507 0.70214 0.5966 0.0
O225 O 0.63971 0.69465 0.65851 0.0
Cd226 Cd 0.64679 0.66168 0.70697 0.0
O227 O 0.65418 0.69111 0.54814 0.0
Cd228 Cd 0.66249 0.65326 0.53704 0.0
C229 C 0.69905 0.66008 0.66534 0.0
O230 O 0.63613 0.63933 0.6137 0.0
O231 O 0.662 0.61939 0.59792 0.0
O232 O 0.64355 0.6521 0.42325 0.0
C233 C 0.6444 0.62207 0.62612 0.0
O234 O 0.68423 0.66036 0.71154 0.0
C235 C 0.65583 0.64024 0.38926 0.0
O236 O 0.6957 0.65888 0.59592 0.0
O237 O 0.67255 0.63577 0.42176 0.0
C238 C 0.52864 0.39254 0.83787 0.0
O239 O 0.53814 0.3877 0.89661 0.0
Cd240 Cd 0.57334 0.38946 0.92394 0.0
O241 O 0.53823 0.39871 0.78033 0.0
Cd242 Cd 0.57558 0.40194 0.74852 0.0
C243 C 0.58063 0.44038 0.87436 0.0
O244 O 0.58683 0.37334 0.81853 0.0
O245 O 0.61097 0.39419 0.79092 0.0
O246 O 0.57036 0.3837 0.63376 0.0
C247 C 0.60571 0.37736 0.82083 0.0
O248 O 0.58073 0.42646 0.92408 0.0
C249 C 0.58175 0.39534 0.5951 0.0
O250 O 0.57781 0.43577 0.80652 0.0
O251 O 0.5887 0.41137 0.62655 0.0
C252 C 0.819 0.28097 0.18103 0.0
O253 O 0.81423 0.28355 0.24847 0.0
Cd254 Cd 0.81886 0.31275 0.32577 0.0
O255 O 0.82712 0.2954 0.14325 0.0
Cd256 Cd 0.83357 0.33226 0.173 0.0
C257 C 0.78523 0.34225 0.23064 0.0
O258 O 0.85029 0.32794 0.29096 0.0
O259 O 0.83963 0.35852 0.26568 0.0
O260 O 0.86382 0.33387 0.09405 0.0
C261 C 0.84947 0.34674 0.30867 0.0
O262 O 0.79048 0.33482 0.29294 0.0
C263 C 0.85789 0.3496 0.05827 0.0
O264 O 0.79733 0.34134 0.17534 0.0
O265 O 0.84018 0.35657 0.0738 0.0
C266 C 0.93265 0.58075 0.42679 0.0
O267 O 0.93266 0.58283 0.49656 0.0
Cd268 Cd 0.90635 0.57399 0.58072 0.0
O269 O 0.91661 0.57518 0.39184 0.0
Cd270 Cd 0.8796 0.57003 0.42451 0.0
C271 C 0.89417 0.52587 0.50598 0.0
O272 O 0.8783 0.5911 0.53098 0.0
O273 O 0.85276 0.57033 0.52147 0.0
O274 O 0.87303 0.59801 0.34231 0.0
C275 C 0.86154 0.5846 0.55717 0.0
O276 O 0.90103 0.53759 0.55673 0.0
C277 C 0.85857 0.58968 0.30634 0.0
O278 O 0.88615 0.53334 0.44734 0.0
O279 O 0.8543 0.57107 0.3225 0.0
C280 C 0.66171 0.28545 0.25193 0.0
O281 O 0.6674 0.28634 0.18483 0.0
Cd282 Cd 0.66517 0.31398 0.099 0.0
O283 O 0.65404 0.30111 0.28421 0.0
Cd284 Cd 0.6496 0.33761 0.24311 0.0
C285 C 0.69882 0.3443 0.19057 0.0
O286 O 0.63431 0.33158 0.12362 0.0
O287 O 0.64599 0.3621 0.14138 0.0
O288 O 0.61851 0.34212 0.31664 0.0
C289 C 0.63641 0.34974 0.09981 0.0
O290 O 0.69391 0.3356 0.13019 0.0
C291 C 0.62476 0.35806 0.35024 0.0
O292 O 0.68627 0.34507 0.24467 0.0
O293 O 0.64288 0.36403 0.33557 0.0
C294 C 0.96218 0.39224 0.59582 0.0
O295 O 0.95475 0.38929 0.53182 0.0
Cd296 Cd 0.92015 0.39 0.49233 0.0
O297 O 0.95058 0.39574 0.65129 0.0
Cd298 Cd 0.91281 0.3972 0.67005 0.0
C299 C 0.90749 0.43837 0.5563 0.0
O300 O 0.90376 0.37076 0.58517 0.0
O301 O 0.87868 0.38995 0.61908 0.0
O302 O 0.91498 0.37569 0.77867 0.0
C303 C 0.88481 0.37464 0.58184 0.0
O304 O 0.90955 0.42595 0.50235 0.0
C305 C 0.9035 0.38694 0.81848 0.0
O306 O 0.90956 0.43222 0.62294 0.0
O307 O 0.89782 0.40402 0.79094 0.0
C308 C 0.83538 0.69958 0.87027 0.0
O309 O 0.84154 0.69253 0.80863 0.0
Cd310 Cd 0.83472 0.66014 0.755 0.0
O311 O 0.82558 0.68821 0.91589 0.0
Cd312 Cd 0.81629 0.65068 0.92196 0.0
C313 C 0.78186 0.65924 0.78713 0.0
O314 O 0.84307 0.63666 0.84776 0.0
O315 O 0.81681 0.61708 0.85998 0.0
O316 O 0.83449 0.64862 0.03666 0.0
C317 C 0.83459 0.61965 0.83316 0.0
O318 O 0.79742 0.65965 0.74433 0.0
C319 C 0.82183 0.63682 0.06907 0.0
O320 O 0.78402 0.65741 0.85708 0.0
O321 O 0.80509 0.63305 0.03558 0.0
C322 C 0.54696 0.58342 0.03372 0.0
O323 O 0.54653 0.58494 0.96376 0.0
Cd324 Cd 0.57233 0.57579 0.87762 0.0
O325 O 0.56309 0.57777 0.06797 0.0
Cd326 Cd 0.59985 0.57156 0.03413 0.0
C327 C 0.58627 0.52752 0.9486 0.0
O328 O 0.60067 0.59238 0.92683 0.0
O329 O 0.62696 0.57258 0.9382 0.0
O330 O 0.60558 0.60046 0.11193 0.0
C331 C 0.61763 0.58625 0.90109 0.0
O332 O 0.57889 0.53959 0.89978 0.0
C333 C 0.61981 0.59291 0.15106 0.0
O334 O 0.59411 0.53457 0.00824 0.0
O335 O 0.62457 0.57417 0.13864 0.0
C336 C 0.34178 0.28187 0.38816 0.0
O337 O 0.34788 0.28767 0.32474 0.0
Cd338 Cd 0.34371 0.32085 0.27203 0.0
O339 O 0.33429 0.29471 0.43416 0.0
Cd340 Cd 0.32914 0.33265 0.43927 0.0
C341 C 0.29207 0.32539 0.31321 0.0
O342 O 0.35653 0.34369 0.3616 0.0
O343 O 0.33232 0.36582 0.37569 0.0
O344 O 0.34686 0.33295 0.55517 0.0
C345 C 0.34979 0.36159 0.34876 0.0
O346 O 0.30632 0.32401 0.26506 0.0
C347 C 0.33484 0.34553 0.58696 0.0
O348 O 0.29615 0.32743 0.38176 0.0
O349 O 0.31896 0.35114 0.55147 0.0
C350 C 0.46396 0.59484 0.09555 0.0
O351 O 0.45794 0.59743 0.02949 0.0
Cd352 Cd 0.42472 0.59489 0.97841 0.0
O353 O 0.45138 0.5909 0.1478 0.0
Cd354 Cd 0.41298 0.58909 0.15163 0.0
C355 C 0.41262 0.54665 0.04376 0.0
O356 O 0.40534 0.61486 0.06116 0.0
O357 O 0.38058 0.59419 0.08488 0.0
O358 O 0.4096 0.61072 0.25996 0.0
C359 C 0.3868 0.61008 0.05104 0.0
O360 O 0.41548 0.5585 0.98851 0.0
C361 C 0.39732 0.59878 0.29377 0.0
O362 O 0.41257 0.55372 0.10948 0.0
O363 O 0.39395 0.58139 0.26424 0.0
C364 C 0.15326 0.70399 0.80341 0.0
O365 O 0.15279 0.69845 0.73613 0.0
Cd366 Cd 0.14991 0.66531 0.6838 0.0
O367 O 0.15208 0.69069 0.85523 0.0
Cd368 Cd 0.1486 0.6523 0.85644 0.0
C369 C 0.19303 0.6448 0.76374 0.0
O370 O 0.12454 0.64986 0.75762 0.0
O371 O 0.13938 0.62144 0.78544 0.0
O372 O 0.12395 0.65384 0.95634 0.0
C373 C 0.12599 0.63072 0.74726 0.0
O374 O 0.18316 0.64957 0.70546 0.0
C375 C 0.13193 0.6394 -0.00617 0.0
O376 O 0.18457 0.64608 0.8272 0.0
O377 O 0.14877 0.63203 0.97009 0.0
C378 C 0.05034 0.39835 0.58543 0.0
O379 O 0.05731 0.39461 0.52121 0.0
Cd380 Cd 0.09068 0.40117 0.47872 0.0
O381 O 0.06192 0.40555 0.63606 0.0
Cd382 Cd 0.09924 0.41399 0.65029 0.0
C383 C 0.09174 0.45265 0.52958 0.0
O384 O 0.10913 0.38614 0.57657 0.0
O385 O 0.13328 0.40807 0.5899 0.0
O386 O 0.09499 0.39664 0.76635 0.0
C387 C 0.12766 0.39066 0.56577 0.0
O388 O 0.09144 0.4388 0.47984 0.0
C389 C 0.10895 0.40636 0.80031 0.0
O390 O 0.09365 0.4479 0.59766 0.0
O391 O 0.11753 0.42111 0.76596 0.0
C392 C 0.31542 0.70253 0.66567 0.0
O393 O 0.31441 0.70098 0.73557 0.0
Cd394 Cd 0.32024 0.67183 0.81145 0.0
O395 O 0.31986 0.68704 0.62557 0.0
Cd396 Cd 0.32644 0.65012 0.65351 0.0
C397 C 0.28078 0.64396 0.73886 0.0
O398 O 0.34848 0.65483 0.75825 0.0
O399 O 0.33624 0.62434 0.74562 0.0
O400 O 0.35321 0.64978 0.56081 0.0
C401 C 0.34824 0.63635 0.77978 0.0
O402 O 0.2893 0.65199 0.79509 0.0
C403 C 0.34741 0.63333 0.52953 0.0
O404 O 0.29009 0.64302 0.67682 0.0
O405 O 0.33088 0.62527 0.5532 0.0
C406 C 0.01685 0.58426 0.39367 0.0
O407 O 0.02048 0.58589 0.46229 0.0
Cd408 Cd 0.05182 0.58328 0.52676 0.0
O409 O 0.03123 0.58155 0.34678 0.0
Cd410 Cd 0.06949 0.58115 0.35855 0.0
C411 C 0.07067 0.53731 0.45628 0.0
O412 O 0.07355 0.6048 0.45921 0.0
O413 O 0.09954 0.5853 0.43785 0.0
O414 O 0.07297 0.60754 0.26592 0.0
C415 C 0.0918 0.5999 0.47486 0.0
O416 O 0.06459 0.54846 0.50994 0.0
C417 C 0.08634 0.59825 0.22741 0.0
O418 O 0.07223 0.54473 0.39113 0.0
O419 O 0.09086 0.57999 0.24698 0.0
C420 C 0.1492 0.2842 0.14995 0.0
O421 O 0.14693 0.28371 0.21962 0.0
Cd422 Cd 0.15746 0.3089 0.30599 0.0
O423 O 0.15567 0.30031 0.11719 0.0
Cd424 Cd 0.16257 0.33655 0.1549 0.0
C425 C 0.20584 0.32088 0.23504 0.0
O426 O 0.1431 0.33983 0.26643 0.0
O427 O 0.16699 0.36245 0.25125 0.0
O428 O 0.13495 0.34859 0.07956 0.0
C429 C 0.15257 0.3554 0.29098 0.0
O430 O 0.19386 0.31382 0.28479 0.0
C431 C 0.14536 0.36128 0.04167 0.0
O432 O 0.19876 0.32906 0.17615 0.0
O433 O 0.16461 0.36185 0.05384 0.0
C434 C 0.44655 0.40263 0.93181 0.0
O435 O 0.44801 0.40265 0.0018 0.0
Cd436 Cd 0.4227 0.41208 0.08905 0.0
O437 O 0.42965 0.40657 0.89936 0.0
Cd438 Cd 0.39337 0.41199 0.93899 0.0
C439 C 0.40636 0.45803 0.00812 0.0
O440 O 0.39515 0.39228 0.049 0.0
O441 O 0.36796 0.41091 0.04082 0.0
O442 O 0.38631 0.38295 0.86302 0.0
C443 C 0.37829 0.39779 0.07705 0.0
O444 O 0.41463 0.44761 0.05986 0.0
C445 C 0.37147 0.39067 0.82734 0.0
O446 O 0.39815 0.44919 0.95255 0.0
O447 O 0.36705 0.40939 0.84099 0.0
C448 C 0.23956 0.15378 0.29728 0.0
C449 C 0.25839 0.15569 0.25977 0.0
C450 C 0.22088 0.1542 0.25908 0.0
C451 C 0.22016 0.15658 0.18161 0.0
H452 H 0.23918 0.15167 0.35668 0.0
H453 H 0.20689 0.15245 0.2909 0.0
S454 S 0.26509 0.1632 0.05712 0.0
N455 N 0.27511 0.16078 0.14037 0.0
N456 N 0.24004 0.16153 0.06894 0.0
C457 C 0.23886 0.15885 0.1434 0.0
C458 C 0.25792 0.15842 0.18231 0.0
C459 C 0.09181 0.98777 0.53731 0.0
C460 C 0.09057 0.97429 0.47664 0.0
C461 C 0.09276 0.00908 0.52705 0.0
C462 C 0.09212 0.01768 0.45582 0.0
H463 H 0.09205 0.98183 0.5933 0.0
H464 H 0.09348 0.01888 0.5754 0.0
S465 S 0.08955 0.98909 0.2785 0.0
N466 N 0.08936 0.97102 0.34274 0.0
N467 N 0.09086 0.01115 0.32341 0.0
C468 C 0.09116 0.00439 0.39457 0.0
C469 C 0.09049 0.98267 0.40499 0.0
C470 C 0.2372 0.84321 0.80574 0.0
C471 C 0.2196 0.84742 0.7636 0.0
C472 C 0.2567 0.84279 0.77326 0.0
C473 C 0.25948 0.84649 0.69705 0.0
H474 H 0.23594 0.83953 0.86401 0.0
H475 H 0.26959 0.8388 0.80815 0.0
S476 S 0.21873 0.8611 0.56381 0.0
N477 N 0.20645 0.85752 0.64268 0.0
N478 N 0.24315 0.85651 0.58171 0.0
C479 C 0.24216 0.8518 0.65487 0.0
C480 C 0.22224 0.85233 0.68808 0.0
C481 C 0.39431 0.00454 0.92738 0.0
C482 C 0.39411 0.01375 -0.00237 0.0
C483 C 0.39661 0.98324 0.91963 0.0
C484 C 0.39842 0.97038 0.98191 0.0
H485 H 0.39304 0.01388 0.87791 0.0
H486 H 0.39678 0.97681 0.8644 0.0
S487 S 0.39827 0.98686 0.17828 0.0
N488 N 0.39562 0.0084 0.13078 0.0
N489 N 0.39972 0.96833 0.11615 0.0
C490 C 0.39797 0.97936 0.05253 0.0
C491 C 0.39589 0.00106 0.0604 0.0
C492 C 0.75083 0.83321 0.8199 0.0
C493 C 0.76551 0.83532 0.7635 0.0
C494 C 0.72985 0.83258 0.80376 0.0
C495 C 0.72261 0.83423 0.73054 0.0
H496 H 0.75554 0.83158 0.87702 0.0
H497 H 0.71924 0.83071 0.84946 0.0
S498 S 0.75475 0.84129 0.56279 0.0
N499 N 0.77137 0.83998 0.63139 0.0
N500 N 0.73188 0.83885 0.60126 0.0
C501 C 0.7371 0.83688 0.67365 0.0
C502 C 0.75854 0.83739 0.69005 0.0
C503 C 0.92153 0.98967 0.44084 0.0
C504 C 0.92264 0.97573 0.50025 0.0
C505 C 0.9227 0.01096 0.45239 0.0
C506 C 0.92488 0.01926 0.52392 0.0
H507 H 0.9198 0.98413 0.38473 0.0
H508 H 0.92168 0.02098 0.40462 0.0
S509 S 0.92856 0.98947 0.69877 0.0
N510 N 0.92609 0.97186 0.6338 0.0
N511 N 0.92826 0.01177 0.65517 0.0
C512 C 0.92604 0.00551 0.58392 0.0
C513 C 0.92494 0.98382 0.57219 0.0
C514 C 0.72966 0.13536 0.3078 0.0
C515 C 0.71707 0.13427 0.245 0.0
C516 C 0.75105 0.13471 0.30133 0.0
C517 C 0.76074 0.13295 0.23178 0.0
H518 H 0.72306 0.13804 0.36198 0.0
H519 H 0.76001 0.13678 0.35113 0.0
S520 S 0.73451 0.12488 0.05218 0.0
N521 N 0.71568 0.12781 0.11245 0.0
N522 N 0.75593 0.12675 0.10029 0.0
C523 C 0.74829 0.12975 0.16944 0.0
C524 C 0.72645 0.13041 0.17605 0.0
C525 C 0.56137 0.00811 0.91754 0.0
C526 C 0.56075 0.02285 0.9743 0.0
C527 C 0.56388 0.98714 0.93324 0.0
C528 C 0.56598 0.97994 0.00644 0.0
H529 H 0.55989 0.01273 0.86024 0.0
H530 H 0.56422 0.97652 0.88717 0.0
S531 S 0.56567 0.01223 0.17573 0.0
N532 N 0.56263 0.02875 0.10725 0.0
N533 N 0.56733 0.98938 0.13647 0.0
C534 C 0.56544 -0.00549 0.0639 0.0
C535 C 0.56281 0.01591 0.04794 0.0
C536 C 0.72376 0.6594 0.771 0.0
C537 C 0.72037 0.66068 0.69417 0.0
C538 C 0.7436 0.65922 0.80043 0.0
C539 C 0.76098 0.66036 0.75441 0.0
H540 H 0.71098 0.65825 0.80918 0.0
H541 H 0.74526 0.65797 0.85984 0.0
S542 S 0.76061 0.66484 0.54923 0.0
N543 N 0.73614 0.66374 0.57262 0.0
N544 N 0.77345 0.66345 0.62759 0.0
C545 C 0.75785 0.66201 0.67738 0.0
C546 C 0.73758 0.66215 0.64739 0.0
C547 C 0.57976 0.47771 0.84238 0.0
C548 C 0.58306 0.46233 0.89568 0.0
C549 C 0.58103 0.49855 0.86049 0.0
C550 C 0.58575 0.50509 0.93278 0.0
H551 H 0.57588 0.47372 0.78598 0.0
H552 H 0.5782 0.50962 0.81685 0.0
S553 S 0.59657 0.47105 0.09286 0.0
N554 N 0.59187 0.45506 0.02406 0.0
N555 N 0.59427 0.49442 0.05789 0.0
C556 C 0.58949 0.48993 0.98662 0.0
C557 C 0.58812 0.46855 0.96819 0.0
C558 C 0.729 0.34921 0.27238 0.0
C559 C 0.72045 0.35019 0.20128 0.0
C560 C 0.75026 0.34858 0.28197 0.0
C561 C 0.76369 0.34895 0.22079 0.0
H562 H 0.71929 0.34716 0.32054 0.0
H563 H 0.75608 0.34628 0.33743 0.0
S564 S 0.7488 0.35749 0.02509 0.0
N565 N 0.72682 0.35595 0.07029 0.0
N566 N 0.76689 0.3548 0.08815 0.0
C567 C 0.75533 0.35267 0.15036 0.0
C568 C 0.73365 0.35325 0.14063 0.0
C569 C 0.90492 0.47475 0.5991 0.0
C570 C 0.90305 0.46039 0.54152 0.0
C571 C 0.90164 0.49572 0.58688 0.0
C572 C 0.89624 0.50333 0.51656 0.0
H573 H 0.90929 0.46987 0.65416 0.0
H574 H 0.90354 0.50605 0.63331 0.0
S575 S 0.8882 0.47205 0.34754 0.0
N576 N 0.89457 0.45514 0.4117 0.0
N577 N 0.88843 0.49469 0.38886 0.0
C578 C 0.89378 0.48912 0.45867 0.0
C579 C 0.89722 0.46766 0.47106 0.0
C580 C 0.25543 0.3187 0.34264 0.0
C581 C 0.27041 0.32388 0.2899 0.0
C582 C 0.23479 0.31722 0.32338 0.0
C583 C 0.22812 0.32106 0.25062 0.0
H584 H 0.25964 0.31572 0.39958 0.0
H585 H 0.22394 0.31343 0.36677 0.0
S586 S 0.26131 0.33464 0.09088 0.0
N587 N 0.27734 0.33238 0.16103 0.0
N588 N 0.23827 0.32975 0.12486 0.0
C589 C 0.24294 0.32598 0.19682 0.0
C590 C 0.26413 0.32733 0.21641 0.0
C591 C 0.41145 0.51088 0.09304 0.0
C592 C 0.40993 0.52425 0.03216 0.0
C593 C 0.40991 0.48961 0.08434 0.0
C594 C 0.40662 0.48072 0.01446 0.0
H595 H 0.41424 0.5168 0.14807 0.0
H596 H 0.41145 0.48007 0.13317 0.0
S597 S 0.40045 0.50888 0.83733 0.0
N598 N 0.40416 0.5271 0.89942 0.0
N599 N 0.4012 0.48692 0.88332 0.0
C600 C 0.4045 0.49386 0.95314 0.0
C601 C 0.40622 0.51564 0.9619 0.0
C602 C 0.24628 0.64082 0.68113 0.0
C603 C 0.25875 0.63889 0.74398 0.0
C604 C 0.22489 0.64136 0.68764 0.0
C605 C 0.21519 0.63994 0.75722 0.0
H606 H 0.25304 0.64341 0.62714 0.0
H607 H 0.21602 0.64409 0.63798 0.0
S608 S 0.24103 0.62979 0.93643 0.0
N609 N 0.25996 0.63198 0.87613 0.0
N610 N 0.21971 0.63295 0.88854 0.0
C611 C 0.22746 0.63587 0.81948 0.0
C612 C 0.24926 0.63536 0.81279 0.0
C613 C 0.08301 0.48877 0.56386 0.0
C614 C 0.08789 0.47438 0.50862 0.0
C615 C 0.07747 0.50893 0.54598 0.0
C616 C 0.07667 0.51571 0.472 0.0
H617 H 0.08299 0.48438 0.62166 0.0
H618 H 0.07372 0.51925 0.59103 0.0
S619 S 0.08925 0.48445 0.30628 0.0
N620 N 0.09243 0.46853 0.37653 0.0
N621 N 0.08204 0.50655 0.34297 0.0
C622 C 0.08201 0.50165 0.41605 0.0
C623 C 0.08761 0.481 0.43432 0.0
C624 C 0.16799 0.12081 0.74635 0.0
C625 C 0.16335 0.14131 0.76476 0.0
C626 C 0.1583 0.11109 0.68672 0.0
C627 C 0.1438 0.1216 0.64313 0.0
H628 H 0.17788 0.11169 0.78164 0.0
H629 H 0.16141 0.09492 0.67732 0.0
S630 S 0.1297 0.17683 0.65982 0.0
N631 N 0.14574 0.17269 0.72878 0.0
N632 N 0.12778 0.15467 0.61588 0.0
C633 C 0.14063 0.14272 0.6567 0.0
C634 C 0.15036 0.15252 0.71774 0.0
C635 C 0.13965 0.84069 0.20697 0.0
C636 C 0.15646 0.84999 0.17115 0.0
C637 C 0.12971 0.85034 0.26617 0.0
C638 C 0.13607 0.86977 0.29143 0.0
H639 H 0.13335 0.82637 0.18645 0.0
H640 H 0.11626 0.84299 0.28953 0.0
S641 S 0.18145 0.89902 0.22522 0.0
N642 N 0.18072 0.87846 0.17179 0.0
N643 N 0.16191 0.89668 0.28289 0.0
C644 C 0.15388 0.87846 0.26025 0.0
C645 C 0.16415 0.86851 0.2003 0.0
C646 C 0.3562 0.85027 0.20675 0.0
C647 C 0.35175 0.87026 0.18159 0.0
C648 C 0.34495 0.84131 0.26433 0.0
C649 C 0.32871 0.85193 0.29885 0.0
H650 H 0.36905 0.84176 0.18407 0.0
H651 H 0.34971 0.82633 0.28428 0.0
S652 S 0.30881 0.9034 0.24569 0.0
N653 N 0.32846 0.89949 0.18967 0.0
N654 N 0.30725 0.88261 0.29793 0.0
C655 C 0.32307 0.87128 0.27042 0.0
C656 C 0.33464 0.88049 0.21195 0.0
C657 C 0.32259 0.10201 0.75355 0.0
C658 C 0.33593 0.11345 0.79877 0.0
C659 C 0.31197 0.11135 0.69504 0.0
C660 C 0.31447 0.13241 0.67951 0.0
H661 H 0.3211 0.08553 0.76091 0.0
H662 H 0.30307 0.10169 0.65836 0.0
S663 S 0.34437 0.16995 0.78938 0.0
N664 N 0.34853 0.14763 0.83043 0.0
N665 N 0.32884 0.16496 0.7197 0.0
C666 C 0.32629 0.14433 0.72805 0.0
C667 C 0.33698 0.1349 0.78786 0.0
C668 C 0.85037 0.88353 0.11511 0.0
C669 C 0.8551 0.86336 0.0924 0.0
C670 C 0.86217 0.89358 0.16908 0.0
C671 C 0.87906 0.88379 0.20258 0.0
H672 H 0.83781 0.89184 0.08965 0.0
H673 H 0.85796 0.90911 0.18468 0.0
S674 S 0.89718 0.83053 0.16504 0.0
N675 N 0.87735 0.83368 0.10959 0.0
N676 N 0.89947 0.85242 0.2103 0.0
C677 C 0.88368 0.86346 0.18117 0.0
C678 C 0.87171 0.85328 0.1264 0.0
C679 C 0.87867 0.13112 0.91815 0.0
C680 C 0.86202 0.1197 0.94606 0.0
C681 C 0.89169 0.12307 0.86369 0.0
C682 C 0.88874 0.10318 0.83504 0.0
H683 H 0.8817 0.14651 0.93828 0.0
H684 H 0.90407 0.13268 0.84338 0.0
S685 S 0.84768 0.06663 0.89062 0.0
N686 N 0.84348 0.08723 0.94179 0.0
N687 N 0.868 0.07206 0.83953 0.0
C688 C 0.87231 0.09143 0.86311 0.0
C689 C 0.85892 0.0997 0.91839 0.0
C690 C 0.58861 0.12599 0.61553 0.0
C691 C 0.59296 0.10638 0.64471 0.0
C692 C 0.60118 0.13496 0.56153 0.0
C693 C 0.61877 0.12482 0.53475 0.0
H694 H 0.57543 0.13463 0.63497 0.0
H695 H 0.59703 0.15004 0.54074 0.0
S696 S 0.63701 0.07308 0.59253 0.0
N697 N 0.61611 0.07697 0.64233 0.0
N698 N 0.63979 0.09388 0.541 0.0
C699 C 0.62331 0.10515 0.5632 0.0
C700 C 0.61038 0.09591 0.61791 0.0
C701 C 0.63425 0.88818 0.40338 0.0
C702 C 0.62572 0.87097 0.43948 0.0
C703 C 0.62331 0.89883 0.34843 0.0
C704 C 0.6035 0.89258 0.32719 0.0
H705 H 0.64952 0.89345 0.41743 0.0
H706 H 0.63071 0.91165 0.32084 0.0
S707 S 0.57372 0.84923 0.40714 0.0
N708 N 0.59579 0.84874 0.45168 0.0
N709 N 0.57543 0.86869 0.34882 0.0
C710 C 0.59462 0.87572 0.36399 0.0
C711 C 0.60567 0.86493 0.41992 0.0
C712 C 0.65574 0.60951 0.30599 0.0
C713 C 0.6492 0.62974 0.32089 0.0
C714 C 0.64639 0.59769 0.2504 0.0
C715 C 0.63027 0.60576 0.20751 0.0
H716 H 0.66744 0.60236 0.33992 0.0
H717 H 0.65152 0.582 0.24224 0.0
S718 S 0.60926 0.65895 0.21941 0.0
N719 N 0.62691 0.65792 0.28457 0.0
N720 N 0.60945 0.63606 0.18008 0.0
C721 C 0.62438 0.62641 0.21955 0.0
C722 C 0.63383 0.63831 0.27617 0.0
C723 C 0.60841 0.39658 0.49626 0.0
C724 C 0.58985 0.38833 0.52289 0.0
C725 C 0.61923 0.38703 0.43881 0.0
C726 C 0.61186 0.36896 0.40533 0.0
H727 H 0.61531 0.4098 0.52281 0.0
H728 H 0.63387 0.39351 0.42239 0.0
S729 S 0.5623 0.34314 0.44669 0.0
N730 N 0.56333 0.36246 0.50571 0.0
N731 N 0.58358 0.34459 0.39724 0.0
C732 C 0.59255 0.36145 0.42763 0.0
C733 C 0.58156 0.37113 0.48645 0.0
C734 C 0.87633 0.38806 0.91536 0.0
C735 C 0.89432 0.37891 0.88752 0.0
C736 C 0.86485 0.37857 0.9712 0.0
C737 C 0.87099 0.35964 0.00189 0.0
H738 H 0.87048 0.4022 0.89154 0.0
H739 H 0.85082 0.38598 0.98931 0.0
S740 S 0.91826 0.33051 0.95441 0.0
N741 N 0.91871 0.35071 0.89905 0.0
N742 N 0.8972 0.33292 0.00458 0.0
C743 C 0.88956 0.35088 0.97748 0.0
C744 C 0.90122 0.36051 0.92023 0.0
C745 C 0.85406 0.6218 0.23306 0.0
C746 C 0.84739 0.60169 0.24941 0.0
C747 C 0.84468 0.63355 0.17795 0.0
C748 C 0.82813 0.6258 0.13693 0.0
H749 H 0.86702 0.62847 0.26176 0.0
H750 H 0.85097 0.64861 0.16571 0.0
S751 S 0.80354 0.57474 0.16184 0.0
N752 N 0.82226 0.57502 0.22331 0.0
N753 N 0.80456 0.59721 0.11919 0.0
C754 C 0.82056 0.60612 0.15494 0.0
C755 C 0.83025 0.59402 0.21112 0.0
C756 C 0.33573 0.37614 0.67003 0.0
C757 C 0.34103 0.35548 0.65662 0.0
C758 C 0.3452 0.38735 0.72676 0.0
C759 C 0.3602 0.37823 0.77211 0.0
H760 H 0.32509 0.38406 0.63385 0.0
H761 H 0.34126 0.40345 0.7333 0.0
S762 S 0.37696 0.32352 0.76641 0.0
N763 N 0.36041 0.3257 0.69792 0.0
N764 N 0.37805 0.3465 0.8049 0.0
C765 C 0.36453 0.35714 0.76224 0.0
C766 C 0.35498 0.34583 0.70442 0.0
C767 C 0.37736 0.63418 0.44351 0.0
C768 C 0.36001 0.62372 0.4707 0.0
C769 C 0.38984 0.62555 0.3887 0.0
C770 C 0.38556 0.60604 0.3589 0.0
H771 H 0.38129 0.64932 0.46406 0.0
H772 H 0.40271 0.63449 0.3685 0.0
S773 S 0.34258 0.57171 0.41391 0.0
N774 N 0.33964 0.59238 0.46586 0.0
N775 N 0.36312 0.5761 0.36274 0.0
C776 C 0.36858 0.59511 0.38699 0.0
C777 C 0.35578 0.60398 0.44272 0.0
C778 C 0.12662 0.61029 0.08204 0.0
C779 C 0.12086 0.62995 0.05679 0.0
C780 C 0.11508 0.59994 0.13585 0.0
C781 C 0.0974 0.60891 0.16692 0.0
H782 H 0.13992 0.60259 0.05898 0.0
H783 H 0.12017 0.58485 0.15356 0.0
S784 S 0.07612 0.66047 0.12155 0.0
N785 N 0.09655 0.65822 0.06809 0.0
N786 N 0.07489 0.63886 0.16935 0.0
C787 C 0.0916 0.6287 0.14282 0.0
C788 C 0.10333 0.6392 0.08784 0.0
C789 C 0.13812 0.39997 0.88625 0.0
C790 C 0.11705 0.39828 0.87063 0.0
C791 C 0.14713 0.3883 0.94284 0.0
C792 C 0.13535 0.37466 0.98599 0.0
H793 H 0.14795 0.40941 0.85178 0.0
H794 H 0.16355 0.3895 0.95112 0.0
S795 S 0.07887 0.36718 0.9739 0.0
N796 N 0.08426 0.38373 0.90741 0.0
N797 N 0.10098 0.36199 0.01421 0.0
C798 C 0.11398 0.37395 0.97397 0.0
C799 C 0.10489 0.38573 0.91621 0.0
C800 C 0.12972 0.25208 0.13187 0.0
C801 C 0.14583 0.26494 0.10919 0.0
C802 C 0.12937 0.23136 0.11196 0.0
C803 C 0.14529 0.22267 0.06952 0.0
H804 H 0.11805 0.25772 0.16956 0.0
H805 H 0.11732 0.22175 0.13477 0.0
S806 S 0.18907 0.25084 0.98591 0.0
N807 N 0.17648 0.2685 0.03352 0.0
N808 N 0.17604 0.22923 -0.00345 0.0
C809 C 0.16031 0.23587 0.0398 0.0
C810 C 0.16054 0.25715 0.05972 0.0
C811 C -0.00649 0.90841 0.36912 0.0
C812 C 0.98215 0.892 0.399 0.0
C813 C 0.015 0.90875 0.37525 0.0
C814 C 0.02549 0.8926 0.4106 0.0
H815 H 0.98571 0.92208 0.34931 0.0
H816 H 0.02313 0.92267 0.36 0.0
S817 S 0.00299 0.84432 0.48247 0.0
N818 N 0.98309 0.8578 0.45308 0.0
N819 N 0.02344 0.85848 0.46432 0.0
C820 C 0.0145 0.87504 0.43154 0.0
C821 C -0.00725 0.87471 0.42561 0.0
C822 C 0.29981 0.75792 0.65369 0.0
C823 C 0.31283 0.76562 0.59841 0.0
C824 C 0.29947 0.737 0.67052 0.0
C825 C 0.31227 0.72306 0.63293 0.0
H826 H 0.29087 0.76836 0.68768 0.0
H827 H 0.29008 0.73191 0.71657 0.0
S828 S 0.34712 0.73536 0.47673 0.0
N829 N 0.33715 0.7578 0.50062 0.0
N830 N 0.33659 0.71808 0.53216 0.0
C831 C 0.32396 0.73029 0.5728 0.0
C832 C 0.32427 0.75176 0.55563 0.0
C833 C 0.45881 0.11729 0.92948 0.0
C834 C 0.44724 0.10031 0.90619 0.0
C835 C 0.4799 0.11822 0.91592 0.0
C836 C 0.49011 0.10209 0.8793 0.0
H837 H 0.45192 0.12889 0.9647 0.0
H838 H 0.48859 0.1306 0.94091 0.0
S839 S 0.46595 0.05608 0.7962 0.0
N840 N 0.44672 0.06857 0.83554 0.0
N841 N 0.48664 0.07022 0.81045 0.0
C842 C 0.47831 0.08632 0.84778 0.0
C843 C 0.45671 0.08543 0.86136 0.0
C844 C 0.15463 0.76131 0.7699 0.0
C845 C 0.15497 0.76989 0.84115 0.0
C846 C 0.15445 0.74013 0.75926 0.0
C847 C 0.15449 0.72635 0.81933 0.0
H848 H 0.15449 0.77104 0.7212 0.0
H849 H 0.15403 0.73463 0.70277 0.0
S850 S 0.156 0.74087 0.01782 0.0
N851 N 0.15594 0.7631 0.97335 0.0
N852 N 0.15544 0.72286 0.95343 0.0
C853 C 0.15521 0.73463 0.89131 0.0
C854 C 0.15553 0.75647 0.90218 0.0
C855 C 0.47767 0.87561 0.03537 0.0
C856 C 0.46448 0.89092 0.06233 0.0
C857 C 0.49883 0.87697 0.04612 0.0
C858 C 0.50747 0.8938 0.08361 0.0
H859 H 0.47181 0.86359 -0.00031 0.0
H860 H 0.50864 0.86585 0.01872 0.0
S861 S 0.47905 0.93608 0.17513 0.0
N862 N 0.461 0.92182 0.13665 0.0
N863 N 0.50107 0.9245 0.15664 0.0
C864 C 0.49427 0.90789 0.11835 0.0
C865 C 0.4726 0.90644 0.10756 0.0
C866 C 0.35225 0.22537 0.36408 0.0
C867 C 0.33626 0.21603 0.40434 0.0
C868 C 0.35481 0.24667 0.36379 0.0
C869 C 0.34156 0.25956 0.40395 0.0
H870 H 0.36241 0.21624 0.32973 0.0
H871 H 0.36673 0.25314 0.32897 0.0
S872 S 0.29904 0.24273 0.52673 0.0
N873 N 0.30832 0.22115 0.49198 0.0
N874 N 0.31319 0.26141 0.49149 0.0
C875 C 0.32656 0.2504 0.44942 0.0
C876 C 0.32389 0.22857 0.44959 0.0
C877 C 0.00445 0.08636 0.6159 0.0
C878 C 0.99175 0.10242 0.59091 0.0
C879 C 0.02539 0.08595 0.59699 0.0
C880 C 0.03396 0.10159 0.55288 0.0
H881 H -0.00223 0.07297 0.64231 0.0
H882 H 0.03427 0.07231 0.60981 0.0
S883 S 0.00807 0.14895 0.4881 0.0
N884 N 0.98993 0.13589 0.53151 0.0
N885 N 0.02916 0.13498 0.49555 0.0
C886 C 0.02199 0.11884 0.53587 0.0
C887 C 0.00085 0.11932 0.55528 0.0
C888 C 0.85434 0.73191 0.84596 0.0
C889 C 0.8384 0.7218 0.88395 0.0
C890 C 0.85486 0.7533 0.84065 0.0
C891 C 0.83959 0.76549 0.87365 0.0
H892 H 0.86585 0.72318 0.8161 0.0
H893 H 0.86672 0.76031 0.8069 0.0
S894 S 0.79633 0.74691 0.98897 0.0
N895 N 0.80829 0.72571 0.96258 0.0
N896 N 0.80946 0.76624 0.95301 0.0
C897 C 0.82469 0.75581 0.91789 0.0
C898 C 0.82407 0.73385 0.92303 0.0
C899 C 0.67999 0.2318 0.2867 0.0
C900 C 0.66246 0.22237 0.31658 0.0
C901 C 0.68044 0.25296 0.27341 0.0
C902 C 0.66337 0.2654 0.28958 0.0
H903 H 0.69266 0.22248 0.26683 0.0
H904 H 0.69358 0.25933 0.24454 0.0
S905 S 0.61514 0.24858 0.37999 0.0
N906 N 0.62873 0.22723 0.37108 0.0
N907 N 0.6296 0.26732 0.34658 0.0
C908 C 0.64669 0.25657 0.32744 0.0
C909 C 0.64622 0.23489 0.34082 0.0
C910 C 0.83305 0.24986 0.11833 0.0
C911 C 0.81625 0.26028 0.14986 0.0
C912 C 0.83304 0.22827 0.11313 0.0
C913 C 0.81618 0.2168 0.13884 0.0
H914 H 0.84701 0.25814 0.10508 0.0
H915 H 0.84703 0.22051 0.09654 0.0
S916 S 0.76692 0.23731 0.2097 0.0
N917 N 0.78116 0.25791 0.19465 0.0
N918 N 0.78118 0.21746 0.18475 0.0
C919 C 0.79846 0.22728 0.16156 0.0
C920 C 0.79848 0.24907 0.16712 0.0
C921 C 0.65871 0.73653 0.55802 0.0
C922 C 0.64253 0.72455 0.58655 0.0
C923 C 0.6593 0.75792 0.57009 0.0
C924 C 0.64372 0.76771 0.61094 0.0
H925 H 0.67183 0.72917 0.53227 0.0
H926 H 0.67279 0.76645 0.5531 0.0
S927 S 0.59601 0.7439 0.68245 0.0
N928 N 0.609 0.7246 0.64583 0.0
N929 N 0.61027 0.76457 0.66908 0.0
C930 C 0.62653 0.75622 0.63258 0.0
C931 C 0.62587 0.73465 0.62008 0.0
C932 C 0.49676 0.37777 0.88854 0.0
C933 C 0.50608 0.39216 0.8411 0.0
C934 C 0.47661 0.38041 0.91259 0.0
C935 C 0.46499 0.39737 0.8893 0.0
H936 H 0.5056 0.36519 0.91174 0.0
H937 H 0.47052 0.36983 0.9535 0.0
S938 S 0.48099 0.43754 0.75588 0.0
N939 N 0.50137 0.42256 0.76432 0.0
N940 N 0.46304 0.42733 0.80919 0.0
C941 C 0.47325 0.41067 0.83579 0.0
C942 C 0.49397 0.40807 0.81151 0.0
C943 C 0.96297 0.60219 0.40301 0.0
C944 C 0.95221 0.58395 0.3884 0.0
C945 C 0.98424 0.60308 0.39424 0.0
C946 C -0.00465 0.58574 0.37085 0.0
H947 H 0.95519 0.61515 0.42829 0.0
H948 H -0.00775 0.6167 0.41312 0.0
S949 S 0.97388 0.53547 0.3146 0.0
N950 N 0.95367 0.54912 0.3402 0.0
N951 N -0.00605 0.55078 0.32405 0.0
C952 C 0.98455 0.56823 0.34789 0.0
C953 C 0.96279 0.56733 0.35664 0.0
C954 C -0.00379 0.38067 0.5516 0.0
C955 C 0.98469 0.3918 0.60371 0.0
C956 C 0.01751 0.3821 0.54924 0.0
C957 C 0.02825 0.3948 0.59871 0.0
H958 H 0.98867 0.37119 0.51056 0.0
H959 H 0.02554 0.37365 0.50642 0.0
S960 S 0.00544 0.42547 0.7511 0.0
N961 N 0.98556 0.41458 0.71029 0.0
N962 N 0.02594 0.41739 0.70569 0.0
C963 C 0.01709 0.40501 0.6544 0.0
C964 C -0.00479 0.40348 0.65693 0.0
C965 C 0.49623 0.57681 0.12942 0.0
C966 C 0.4862 0.59502 0.10786 0.0
C967 C 0.51711 0.57378 0.11271 0.0
C968 C 0.52823 0.58891 0.0742 0.0
H969 H 0.48748 0.56408 0.15197 0.0
H970 H 0.52394 0.55886 0.12331 0.0
S971 S 0.50989 0.6407 0.02002 0.0
N972 N 0.48962 0.62945 0.05729 0.0
N973 N 0.52874 0.62376 0.02592 0.0
C974 C 0.51891 0.60797 0.06032 0.0
C975 C 0.49786 0.61104 0.07731 0.0
C976 C 0.1514 0.09877 0.16925 0.0
C977 C 0.13797 0.10843 0.11922 0.0
C978 C 0.14473 0.09332 0.24028 0.0
C979 C 0.12451 0.09743 0.26323 0.0
H980 H 0.16752 0.09699 0.15599 0.0
H981 H 0.15584 0.0871 0.27881 0.0
S982 S 0.08242 0.11809 0.14661 0.0
N983 N 0.10288 0.11863 0.09268 0.0
N984 N 0.09029 0.10844 0.22613 0.0
C985 C 0.11047 0.10512 0.21105 0.0
C986 C 0.11723 0.11053 0.13885 0.0
C987 C 0.10699 0.88518 0.72456 0.0
C988 C 0.12083 0.89325 0.6723 0.0
C989 C 0.11343 0.8801 0.79579 0.0
C990 C 0.13392 0.88293 0.81732 0.0
H991 H 0.09125 0.88187 0.70952 0.0
H992 H 0.10266 0.87254 0.8326 0.0
S993 S 0.17564 0.90581 0.704 0.0
N994 N 0.15544 0.90575 0.649 0.0
N995 N 0.16762 0.89612 0.78337 0.0
C996 C 0.14753 0.89259 0.76776 0.0
C997 C 0.14096 0.89772 0.6949 0.0
C998 C 0.37826 0.87085 0.75852 0.0
C999 C 0.36806 0.8857 0.80147 0.0
C1000 C 0.37066 0.86493 0.68974 0.0
C1001 C 0.3526 0.87367 0.66117 0.0
H1002 H 0.39184 0.86312 0.77917 0.0
H1003 H 0.37846 0.85269 0.6603 0.0
S1004 S 0.32158 0.91516 0.74752 0.0
N1005 N 0.34009 0.91053 0.80748 0.0
N1006 N 0.32576 0.89937 0.67764 0.0
C1007 C 0.34301 0.88958 0.70105 0.0
C1008 C 0.35072 0.89556 0.77154 0.0
C1009 C 0.33328 0.0878 0.19968 0.0
C1010 C 0.35364 0.09208 0.17891 0.0
C1011 C 0.32598 0.09321 0.26993 0.0
C1012 C 0.3389 0.10295 0.32132 0.0
H1013 H 0.32259 0.08146 0.16 0.0
H1014 H 0.30978 0.09124 0.28163 0.0
S1015 S 0.39454 0.11316 0.29968 0.0
N1016 N 0.38739 0.10351 0.21942 0.0
N1017 N 0.37365 0.11345 0.35148 0.0
C1018 C 0.35976 0.10527 0.30383 0.0
C1019 C 0.36714 0.09996 0.23241 0.0
C1020 C 0.88563 0.87302 0.62311 0.0
C1021 C 0.87574 0.88833 0.58133 0.0
C1022 C 0.87734 0.86597 0.68937 0.0
C1023 C 0.85877 0.87387 0.71672 0.0
H1024 H 0.89992 0.86621 0.60448 0.0
H1025 H 0.88547 0.85393 0.7188 0.0
S1026 S 0.82696 0.91462 0.62982 0.0
N1027 N 0.84658 0.91166 0.57282 0.0
N1028 N 0.83082 0.89822 0.69826 0.0
C1029 C 0.84884 0.88954 0.67668 0.0
C1030 C 0.85734 0.89677 0.60863 0.0
C1031 C 0.85783 0.10249 0.35873 0.0
C1032 C 0.86196 0.1218 0.32681 0.0
C1033 C 0.86696 0.09665 0.42554 0.0
C1034 C 0.88065 0.10987 0.46213 0.0
H1035 H 0.84751 0.09178 0.33201 0.0
H1036 H 0.86372 0.08147 0.44741 0.0
S1037 S 0.89596 0.16238 0.40321 0.0
N1038 N 0.88023 0.15435 0.33799 0.0
N1039 N 0.8973 0.14335 0.46348 0.0
C1040 C 0.88459 0.12935 0.43158 0.0
C1041 C 0.87529 0.13532 0.36384 0.0
C1042 C 0.60468 0.1357 0.11732 0.0
C1043 C 0.61824 0.12283 0.15622 0.0
C1044 C 0.59621 0.12959 0.05019 0.0
C1045 C 0.601 0.11039 0.01912 0.0
H1046 H 0.60048 0.15068 0.13888 0.0
H1047 H 0.58565 0.13997 0.02275 0.0
S1048 S 0.6358 0.07091 0.09857 0.0
N1049 N 0.63623 0.08997 0.15879 0.0
N1050 N 0.62024 0.07843 0.03188 0.0
C1051 C 0.6147 0.09736 0.05688 0.0
C1052 C 0.62328 0.10356 0.12579 0.0
C1053 C 0.62054 0.86031 0.86566 0.0
C1054 C 0.63364 0.87192 0.82008 0.0
C1055 C 0.61282 0.86836 0.93134 0.0
C1056 C 0.61783 0.88838 0.95423 0.0
H1057 H 0.61585 0.84492 0.85011 0.0
H1058 H 0.60234 0.85897 0.96348 0.0
S1059 S 0.65265 0.9247 0.85766 0.0
N1060 N 0.65229 0.90409 0.80431 0.0
N1061 N 0.63756 0.91935 0.92861 0.0
C1062 C 0.63162 0.89992 0.91113 0.0
C1063 C 0.63954 0.89168 0.8437 0.0
C1064 C 0.61106 0.60492 0.78397 0.0
C1065 C 0.62445 0.59294 0.82718 0.0
C1066 C 0.61733 0.61308 0.71636 0.0
C1067 C 0.63724 0.60965 0.68925 0.0
H1068 H 0.59572 0.60854 0.8032 0.0
H1069 H 0.60669 0.62285 0.68648 0.0
S1070 S 0.67757 0.57762 0.77759 0.0
N1071 N 0.65799 0.57664 0.8356 0.0
N1072 N 0.66989 0.5921 0.70782 0.0
C1073 C 0.65045 0.59669 0.72962 0.0
C1074 C 0.64403 0.58834 0.79891 0.0
C1075 C 0.63632 0.37491 -0.00427 0.0
C1076 C 0.63099 0.35536 0.02332 0.0
C1077 C 0.62984 0.38133 0.92575 0.0
C1078 C 0.61771 0.36846 0.88148 0.0
H1079 H 0.64488 0.38563 0.0293 0.0
H1080 H 0.63312 0.39699 0.90874 0.0
S1081 S 0.60207 0.31488 0.92316 0.0
N1082 N 0.61484 0.32236 -0.00287 0.0
N1083 N 0.60252 0.33465 0.86579 0.0
C1084 C 0.61356 0.3484 0.90599 0.0
C1085 C 0.6202 0.34179 0.97702 0.0
C1086 C 0.87812 0.34751 0.48952 0.0
C1087 C 0.87301 0.36683 0.51891 0.0
C1088 C 0.87005 0.341 0.42212 0.0
C1089 C 0.8568 0.35373 0.38128 0.0
H1090 H 0.88895 0.33759 0.5178 0.0
H1091 H 0.87475 0.32614 0.40091 0.0
S1092 S 0.83781 0.40539 0.43629 0.0
N1093 N 0.85314 0.3983 0.50427 0.0
N1094 N 0.83802 0.38614 0.37681 0.0
C1095 C 0.85099 0.37284 0.41125 0.0
C1096 C 0.85904 0.37936 0.48047 0.0
C1097 C 0.86159 0.61148 0.74157 0.0
C1098 C 0.84184 0.60756 0.7694 0.0
C1099 C 0.86786 0.60353 0.67372 0.0
C1100 C 0.85468 0.59125 0.63102 0.0
H1101 H 0.87208 0.62145 0.77108 0.0
H1102 H 0.88307 0.6075 0.654 0.0
S1103 S 0.8021 0.57464 0.68244 0.0
N1104 N 0.80959 0.58925 0.75193 0.0
N1105 N 0.82154 0.57417 0.62372 0.0
C1106 C 0.83529 0.58619 0.65992 0.0
C1107 C 0.82885 0.59434 0.72941 0.0
C1108 C 0.34545 0.38639 0.24477 0.0
C1109 C 0.3583 0.37357 0.28701 0.0
C1110 C 0.35224 0.39476 0.17773 0.0
C1111 C 0.37209 0.39061 0.15108 0.0
H1112 H 0.3297 0.38913 0.2615 0.0
H1113 H 0.3416 0.40387 0.14539 0.0
S1114 S 0.41263 0.3606 0.24742 0.0
N1115 N 0.3924 0.35904 0.30218 0.0
N1116 N 0.4053 0.37476 0.17645 0.0
C1117 C 0.38551 0.37892 0.1954 0.0
C1118 C 0.37858 0.37042 0.26341 0.0
C1119 C 0.36053 0.60603 0.95251 0.0
C1120 C 0.37577 0.61806 0.98625 0.0
C1121 C 0.35181 0.61199 0.88529 0.0
C1122 C 0.35786 0.6303 0.85003 0.0
H1123 H 0.35573 0.59156 0.97681 0.0
H1124 H 0.34028 0.60212 0.86085 0.0
S1125 S 0.39637 0.66781 0.91809 0.0
N1126 N 0.39598 0.64949 0.98137 0.0
N1127 N 0.3795 0.6608 0.85502 0.0
C1128 C 0.37268 0.64277 0.88427 0.0
C1129 C 0.38164 0.63663 0.95247 0.0
C1130 C 0.10113 0.63214 0.64417 0.0
C1131 C 0.11694 0.62151 0.6807 0.0
C1132 C 0.09334 0.62509 0.57715 0.0
C1133 C 0.10116 0.60722 0.54383 0.0
H1134 H 0.09481 0.64618 0.66718 0.0
H1135 H 0.08117 0.63382 0.55105 0.0
S1136 S 0.14217 0.57335 0.61808 0.0
N1137 N 0.13987 0.5919 0.6798 0.0
N1138 N 0.12522 0.57862 0.55302 0.0
C1139 C 0.11684 0.59626 0.57998 0.0
C1140 C 0.12468 0.60337 0.64882 0.0
C1141 C 0.1554 0.38305 0.38578 0.0
C1142 C 0.14894 0.36313 0.36627 0.0
C1143 C 0.15019 0.3915 0.45449 0.0
C1144 C 0.1385 0.38016 0.50557 0.0
H1145 H 0.1636 0.39257 0.34636 0.0
H1146 H 0.15407 0.40742 0.46534 0.0
S1147 S 0.12142 0.32603 0.48712 0.0
N1148 N 0.13274 0.33136 0.40768 0.0
N1149 N 0.12328 0.34718 0.53705 0.0
C1150 C 0.13362 0.35964 0.48935 0.0
C1151 C 0.13869 0.35113 0.41943 0.0
loop_
_geom_bond_atom_site_label_1
_geom_bond_atom_site_label_2
_geom_bond_distance
_geom_bond_site_symmetry_2
_ccdc_geom_bond_type
C0 O1 1.306 . S
C0 O3 1.160 . S
O1 C0 1.306 . S
O1 Cd2 2.228 . S
Cd2 O1 2.228 . S
Cd2 O6 2.273 . S
Cd2 O10 2.277 . S
O3 C0 1.160 . S
O3 Cd4 2.203 . S
Cd4 O3 2.203 . S
Cd4 O6 2.411 . S
Cd4 O7 2.333 . S
Cd4 O8 2.352 . S
Cd4 O12 2.277 . S
Cd4 O13 2.356 . S
C5 O10 1.209 . S
C5 O12 1.226 . S
O6 Cd2 2.273 . S
O6 Cd4 2.411 . S
O6 C9 1.320 . S
O7 Cd4 2.333 . S
O7 C9 1.214 . S
O8 Cd4 2.352 . S
O8 C11 1.258 . S
C9 O6 1.320 . S
C9 O7 1.214 . S
O10 Cd2 2.277 . S
O10 C5 1.209 . S
C11 O8 1.258 . S
C11 O13 1.282 . S
O12 Cd4 2.277 . S
O12 C5 1.226 . S
O13 Cd4 2.356 . S
O13 C11 1.282 . S
C14 O15 1.306 . S
C14 O17 1.160 . S
O15 C14 1.306 . S
O15 Cd16 2.228 . S
Cd16 O15 2.228 . S
Cd16 O20 2.273 . S
Cd16 O24 2.277 . S
O17 C14 1.160 . S
O17 Cd18 2.203 . S
Cd18 O17 2.203 . S
Cd18 O20 2.411 . S
Cd18 O21 2.333 . S
Cd18 O22 2.352 . S
Cd18 O26 2.277 . S
Cd18 O27 2.356 . S
C19 O24 1.209 . S
C19 O26 1.226 . S
O20 Cd16 2.273 . S
O20 Cd18 2.411 . S
O20 C23 1.320 . S
O21 Cd18 2.333 . S
O21 C23 1.214 . S
O22 Cd18 2.352 . S
O22 C25 1.258 . S
C23 O20 1.320 . S
C23 O21 1.214 . S
O24 Cd16 2.277 . S
O24 C19 1.209 . S
C25 O22 1.258 . S
C25 O27 1.282 . S
O26 Cd18 2.277 . S
O26 C19 1.226 . S
O27 Cd18 2.356 . S
O27 C25 1.282 . S
C28 O29 1.306 . S
C28 O31 1.160 . S
O29 C28 1.306 . S
O29 Cd30 2.228 . S
Cd30 O29 2.228 . S
Cd30 O34 2.273 . S
Cd30 O38 2.277 . S
O31 C28 1.160 . S
O31 Cd32 2.203 . S
Cd32 O31 2.203 . S
Cd32 O34 2.411 . S
Cd32 O35 2.333 . S
Cd32 O36 2.352 . S
Cd32 O40 2.277 . S
Cd32 O41 2.356 . S
C33 O38 1.209 . S
C33 O40 1.226 . S
O34 Cd30 2.273 . S
O34 Cd32 2.411 . S
O34 C37 1.320 . S
O35 Cd32 2.333 . S
O35 C37 1.214 . S
O36 Cd32 2.352 . S
O36 C39 1.258 . S
C37 O34 1.320 . S
C37 O35 1.214 . S
O38 Cd30 2.277 . S
O38 C33 1.209 . S
C39 O36 1.258 . S
C39 O41 1.282 . S
O40 Cd32 2.277 . S
O40 C33 1.226 . S
O41 Cd32 2.356 . S
O41 C39 1.282 . S
C42 O43 1.306 . S
C42 O45 1.160 . S
O43 C42 1.306 . S
O43 Cd44 2.228 1_556 S
Cd44 O43 2.228 1_554 S
Cd44 O48 2.273 1_554 S
Cd44 O52 2.277 1_554 S
O45 C42 1.160 . S
O45 Cd46 2.203 . S
Cd46 O45 2.203 . S
Cd46 O48 2.411 . S
Cd46 O49 2.333 . S
Cd46 O50 2.352 . S
Cd46 O54 2.277 . S
Cd46 O55 2.356 . S
C47 O52 1.209 . S
C47 O54 1.226 . S
O48 Cd44 2.273 1_556 S
O48 Cd46 2.411 . S
O48 C51 1.320 . S
O49 Cd46 2.333 . S
O49 C51 1.214 . S
O50 Cd46 2.352 . S
O50 C53 1.258 . S
C51 O48 1.320 . S
C51 O49 1.214 . S
O52 Cd44 2.277 1_556 S
O52 C47 1.209 . S
C53 O50 1.258 . S
C53 O55 1.282 . S
O54 Cd46 2.277 . S
O54 C47 1.226 . S
O55 Cd46 2.356 . S
O55 C53 1.282 . S
C56 O57 1.306 . S
C56 O59 1.160 . S
O57 C56 1.306 . S
O57 Cd58 2.228 . S
Cd58 O57 2.228 . S
Cd58 O62 2.273 . S
Cd58 O66 2.277 . S
O59 C56 1.160 . S
O59 Cd60 2.203 . S
Cd60 O59 2.203 . S
Cd60 O62 2.411 . S
Cd60 O63 2.333 . S
Cd60 O64 2.352 . S
Cd60 O68 2.277 . S
Cd60 O69 2.356 . S
C61 O66 1.209 . S
C61 O68 1.226 . S
O62 Cd58 2.273 . S
O62 Cd60 2.411 . S
O62 C65 1.320 . S
O63 Cd60 2.333 . S
O63 C65 1.214 . S
O64 Cd60 2.352 . S
O64 C67 1.258 . S
C65 O62 1.320 . S
C65 O63 1.214 . S
O66 Cd58 2.277 . S
O66 C61 1.209 . S
C67 O64 1.258 . S
C67 O69 1.282 . S
O68 Cd60 2.277 . S
O68 C61 1.226 . S
O69 Cd60 2.356 . S
O69 C67 1.282 . S
C70 O71 1.306 . S
C70 O73 1.160 . S
O71 C70 1.306 . S
O71 Cd72 2.228 1_554 S
Cd72 O71 2.228 1_556 S
Cd72 O76 2.273 1_556 S
Cd72 O80 2.277 1_556 S
O73 C70 1.160 . S
O73 Cd74 2.203 . S
Cd74 O73 2.203 . S
Cd74 O76 2.411 . S
Cd74 O77 2.333 . S
Cd74 O78 2.352 . S
Cd74 O82 2.277 . S
Cd74 O83 2.356 . S
C75 O80 1.209 . S
C75 O82 1.226 . S
O76 Cd72 2.273 1_554 S
O76 Cd74 2.411 . S
O76 C79 1.320 . S
O77 Cd74 2.333 . S
O77 C79 1.214 . S
O78 Cd74 2.352 . S
O78 C81 1.258 . S
C79 O76 1.320 . S
C79 O77 1.214 . S
O80 Cd72 2.277 1_554 S
O80 C75 1.209 . S
C81 O78 1.258 . S
C81 O83 1.282 . S
O82 Cd74 2.277 . S
O82 C75 1.226 . S
O83 Cd74 2.356 . S
O83 C81 1.282 . S
C84 O85 1.306 . S
C84 O87 1.160 . S
O85 C84 1.306 . S
O85 Cd86 2.228 . S
Cd86 O85 2.228 . S
Cd86 O90 2.273 . S
Cd86 O94 2.277 . S
O87 C84 1.160 . S
O87 Cd88 2.203 . S
Cd88 O87 2.203 . S
Cd88 O90 2.411 . S
Cd88 O91 2.333 . S
Cd88 O92 2.352 . S
Cd88 O96 2.277 . S
Cd88 O97 2.356 . S
C89 O94 1.209 . S
C89 O96 1.226 . S
O90 Cd86 2.273 . S
O90 Cd88 2.411 . S
O90 C93 1.320 . S
O91 Cd88 2.333 . S
O91 C93 1.214 . S
O92 Cd88 2.352 . S
O92 C95 1.258 . S
C93 O90 1.320 . S
C93 O91 1.214 . S
O94 Cd86 2.277 . S
O94 C89 1.209 . S
C95 O92 1.258 . S
C95 O97 1.282 . S
O96 Cd88 2.277 . S
O96 C89 1.226 . S
O97 Cd88 2.356 . S
O97 C95 1.282 . S
C98 O99 1.306 . S
C98 O101 1.160 . S
O99 C98 1.306 . S
O99 Cd100 2.228 . S
Cd100 O99 2.228 . S
Cd100 O104 2.273 . S
Cd100 O108 2.277 . S
O101 C98 1.160 . S
O101 Cd102 2.203 . S
Cd102 O101 2.203 . S
Cd102 O104 2.411 . S
Cd102 O105 2.333 . S
Cd102 O106 2.352 . S
Cd102 O110 2.277 . S
Cd102 O111 2.356 . S
C103 O108 1.209 . S
C103 O110 1.226 . S
O104 Cd100 2.273 . S
O104 Cd102 2.411 . S
O104 C107 1.320 . S
O105 Cd102 2.333 . S
O105 C107 1.214 . S
O106 Cd102 2.352 . S
O106 C109 1.258 . S
C107 O104 1.320 . S
C107 O105 1.214 . S
O108 Cd100 2.277 . S
O108 C103 1.209 . S
C109 O106 1.258 . S
C109 O111 1.282 . S
O110 Cd102 2.277 . S
O110 C103 1.226 . S
O111 Cd102 2.356 . S
O111 C109 1.282 . S
C112 O113 1.306 . S
C112 O115 1.160 . S
O113 C112 1.306 . S
O113 Cd114 2.228 . S
Cd114 O113 2.228 . S
Cd114 O118 2.273 . S
Cd114 O122 2.277 . S
O115 C112 1.160 . S
O115 Cd116 2.203 . S
Cd116 O115 2.203 . S
Cd116 O118 2.411 . S
Cd116 O119 2.333 . S
Cd116 O120 2.352 . S
Cd116 O124 2.277 . S
Cd116 O125 2.356 . S
C117 O122 1.209 . S
C117 O124 1.226 . S
O118 Cd114 2.273 . S
O118 Cd116 2.411 . S
O118 C121 1.320 . S
O119 Cd116 2.333 . S
O119 C121 1.214 . S
O120 Cd116 2.352 . S
O120 C123 1.258 . S
C121 O118 1.320 . S
C121 O119 1.214 . S
O122 Cd114 2.277 . S
O122 C117 1.209 . S
C123 O120 1.258 . S
C123 O125 1.282 . S
O124 Cd116 2.277 . S
O124 C117 1.226 . S
O125 Cd116 2.356 . S
O125 C123 1.282 . S
C126 O127 1.306 . S
C126 O129 1.160 . S
O127 C126 1.306 . S
O127 Cd128 2.228 . S
Cd128 O127 2.228 . S
Cd128 O132 2.273 . S
Cd128 O136 2.277 . S
O129 C126 1.160 . S
O129 Cd130 2.203 . S
Cd130 O129 2.203 . S
Cd130 O132 2.411 . S
Cd130 O133 2.333 . S
Cd130 O134 2.352 . S
Cd130 O138 2.277 . S
Cd130 O139 2.356 . S
C131 O136 1.209 . S
C131 O138 1.226 . S
O132 Cd128 2.273 . S
O132 Cd130 2.411 . S
O132 C135 1.320 . S
O133 Cd130 2.333 . S
O133 C135 1.214 . S
O134 Cd130 2.352 . S
O134 C137 1.258 . S
C135 O132 1.320 . S
C135 O133 1.214 . S
O136 Cd128 2.277 . S
O136 C131 1.209 . S
C137 O134 1.258 . S
C137 O139 1.282 . S
O138 Cd130 2.277 . S
O138 C131 1.226 . S
O139 Cd130 2.356 . S
O139 C137 1.282 . S
C140 O141 1.306 . S
C140 O143 1.160 . S
O141 C140 1.306 . S
O141 Cd142 2.228 . S
Cd142 O141 2.228 . S
Cd142 O146 2.273 . S
Cd142 O150 2.277 . S
O143 C140 1.160 . S
O143 Cd144 2.203 . S
Cd144 O143 2.203 . S
Cd144 O146 2.411 . S
Cd144 O147 2.333 . S
Cd144 O148 2.352 . S
Cd144 O152 2.277 . S
Cd144 O153 2.356 . S
C145 O150 1.209 . S
C145 O152 1.226 . S
O146 Cd142 2.273 . S
O146 Cd144 2.411 . S
O146 C149 1.320 . S
O147 Cd144 2.333 . S
O147 C149 1.214 . S
O148 Cd144 2.352 . S
O148 C151 1.258 . S
C149 O146 1.320 . S
C149 O147 1.214 . S
O150 Cd142 2.277 . S
O150 C145 1.209 . S
C151 O148 1.258 . S
C151 O153 1.282 . S
O152 Cd144 2.277 . S
O152 C145 1.226 . S
O153 Cd144 2.356 . S
O153 C151 1.282 . S
C154 O155 1.306 . S
C154 O157 1.160 . S
O155 C154 1.306 . S
O155 Cd156 2.228 1_554 S
Cd156 O155 2.228 1_556 S
Cd156 O160 2.273 1_556 S
Cd156 O164 2.277 1_556 S
O157 C154 1.160 . S
O157 Cd158 2.203 . S
Cd158 O157 2.203 . S
Cd158 O160 2.411 . S
Cd158 O161 2.333 . S
Cd158 O162 2.352 . S
Cd158 O166 2.277 . S
Cd158 O167 2.356 . S
C159 O164 1.209 . S
C159 O166 1.226 . S
O160 Cd156 2.273 1_554 S
O160 Cd158 2.411 . S
O160 C163 1.320 . S
O161 Cd158 2.333 . S
O161 C163 1.214 . S
O162 Cd158 2.352 . S
O162 C165 1.258 . S
C163 O160 1.320 . S
C163 O161 1.214 . S
O164 Cd156 2.277 1_554 S
O164 C159 1.209 . S
C165 O162 1.258 . S
C165 O167 1.282 . S
O166 Cd158 2.277 . S
O166 C159 1.226 . S
O167 Cd158 2.356 . S
O167 C165 1.282 . S
C168 O169 1.306 . S
C168 O171 1.160 . S
O169 C168 1.306 . S
O169 Cd170 2.228 . S
Cd170 O169 2.228 . S
Cd170 O174 2.273 . S
Cd170 O178 2.277 . S
O171 C168 1.160 . S
O171 Cd172 2.203 . S
Cd172 O171 2.203 . S
Cd172 O174 2.411 . S
Cd172 O175 2.333 . S
Cd172 O176 2.352 . S
Cd172 O180 2.277 . S
Cd172 O181 2.356 . S
C173 O178 1.209 . S
C173 O180 1.226 . S
O174 Cd170 2.273 . S
O174 Cd172 2.411 . S
O174 C177 1.320 . S
O175 Cd172 2.333 . S
O175 C177 1.214 . S
O176 Cd172 2.352 . S
O176 C179 1.258 . S
C177 O174 1.320 . S
C177 O175 1.214 . S
O178 Cd170 2.277 . S
O178 C173 1.209 . S
C179 O176 1.258 . S
C179 O181 1.282 . S
O180 Cd172 2.277 . S
O180 C173 1.226 . S
O181 Cd172 2.356 . S
O181 C179 1.282 . S
C182 O183 1.306 . S
C182 O185 1.160 . S
O183 C182 1.306 . S
O183 Cd184 2.228 1_556 S
Cd184 O183 2.228 1_554 S
Cd184 O188 2.273 1_554 S
Cd184 O192 2.277 1_554 S
O185 C182 1.160 . S
O185 Cd186 2.203 . S
Cd186 O185 2.203 . S
Cd186 O188 2.411 . S
Cd186 O189 2.333 . S
Cd186 O190 2.352 . S
Cd186 O194 2.277 . S
Cd186 O195 2.356 . S
C187 O192 1.209 . S
C187 O194 1.226 . S
O188 Cd184 2.273 1_556 S
O188 Cd186 2.411 . S
O188 C191 1.320 . S
O189 Cd186 2.333 . S
O189 C191 1.214 . S
O190 Cd186 2.352 . S
O190 C193 1.258 . S
C191 O188 1.320 . S
C191 O189 1.214 . S
O192 Cd184 2.277 1_556 S
O192 C187 1.209 . S
C193 O190 1.258 . S
C193 O195 1.282 . S
O194 Cd186 2.277 . S
O194 C187 1.226 . S
O195 Cd186 2.356 . S
O195 C193 1.282 . S
C196 O197 1.306 . S
C196 O199 1.160 . S
O197 C196 1.306 . S
O197 Cd198 2.228 . S
Cd198 O197 2.228 . S
Cd198 O202 2.273 . S
Cd198 O206 2.277 . S
O199 C196 1.160 . S
O199 Cd200 2.203 . S
Cd200 O199 2.203 . S
Cd200 O202 2.411 . S
Cd200 O203 2.333 . S
Cd200 O204 2.352 . S
Cd200 O208 2.277 . S
Cd200 O209 2.356 . S
C201 O206 1.209 . S
C201 O208 1.226 . S
O202 Cd198 2.273 . S
O202 Cd200 2.411 . S
O202 C205 1.320 . S
O203 Cd200 2.333 . S
O203 C205 1.214 . S
O204 Cd200 2.352 . S
O204 C207 1.258 . S
C205 O202 1.320 . S
C205 O203 1.214 . S
O206 Cd198 2.277 . S
O206 C201 1.209 . S
C207 O204 1.258 . S
C207 O209 1.282 . S
O208 Cd200 2.277 . S
O208 C201 1.226 . S
O209 Cd200 2.356 . S
O209 C207 1.282 . S
C210 O211 1.306 . S
C210 O213 1.160 . S
O211 C210 1.306 . S
O211 Cd212 2.228 . S
Cd212 O211 2.228 . S
Cd212 O216 2.273 . S
Cd212 O220 2.277 . S
O213 C210 1.160 . S
O213 Cd214 2.203 . S
Cd214 O213 2.203 . S
Cd214 O216 2.411 . S
Cd214 O217 2.333 . S
Cd214 O218 2.352 . S
Cd214 O222 2.277 . S
Cd214 O223 2.356 . S
C215 O220 1.209 . S
C215 O222 1.226 . S
O216 Cd212 2.273 . S
O216 Cd214 2.411 . S
O216 C219 1.320 . S
O217 Cd214 2.333 . S
O217 C219 1.214 . S
O218 Cd214 2.352 . S
O218 C221 1.258 . S
C219 O216 1.320 . S
C219 O217 1.214 . S
O220 Cd212 2.277 . S
O220 C215 1.209 . S
C221 O218 1.258 . S
C221 O223 1.282 . S
O222 Cd214 2.277 . S
O222 C215 1.226 . S
O223 Cd214 2.356 . S
O223 C221 1.282 . S
C224 O225 1.306 . S
C224 O227 1.160 . S
O225 C224 1.306 . S
O225 Cd226 2.228 . S
Cd226 O225 2.228 . S
Cd226 O230 2.273 . S
Cd226 O234 2.277 . S
O227 C224 1.160 . S
O227 Cd228 2.203 . S
Cd228 O227 2.203 . S
Cd228 O230 2.411 . S
Cd228 O231 2.333 . S
Cd228 O232 2.352 . S
Cd228 O236 2.277 . S
Cd228 O237 2.356 . S
C229 O234 1.209 . S
C229 O236 1.226 . S
O230 Cd226 2.273 . S
O230 Cd228 2.411 . S
O230 C233 1.320 . S
O231 Cd228 2.333 . S
O231 C233 1.214 . S
O232 Cd228 2.352 . S
O232 C235 1.258 . S
C233 O230 1.320 . S
C233 O231 1.214 . S
O234 Cd226 2.277 . S
O234 C229 1.209 . S
C235 O232 1.258 . S
C235 O237 1.282 . S
O236 Cd228 2.277 . S
O236 C229 1.226 . S
O237 Cd228 2.356 . S
O237 C235 1.282 . S
C238 O239 1.306 . S
C238 O241 1.160 . S
O239 C238 1.306 . S
O239 Cd240 2.228 1_556 S
Cd240 O239 2.228 1_554 S
Cd240 O244 2.273 1_554 S
Cd240 O248 2.277 1_554 S
O241 C238 1.160 . S
O241 Cd242 2.203 . S
Cd242 O241 2.203 . S
Cd242 O244 2.411 . S
Cd242 O245 2.333 . S
Cd242 O246 2.352 . S
Cd242 O250 2.277 . S
Cd242 O251 2.356 . S
C243 O248 1.209 . S
C243 O250 1.226 . S
O244 Cd240 2.273 1_556 S
O244 Cd242 2.411 . S
O244 C247 1.320 . S
O245 Cd242 2.333 . S
O245 C247 1.214 . S
O246 Cd242 2.352 . S
O246 C249 1.258 . S
C247 O244 1.320 . S
C247 O245 1.214 . S
O248 Cd240 2.277 1_556 S
O248 C243 1.209 . S
C249 O246 1.258 . S
C249 O251 1.282 . S
O250 Cd242 2.277 . S
O250 C243 1.226 . S
O251 Cd242 2.356 . S
O251 C249 1.282 . S
C252 O253 1.306 . S
C252 O255 1.160 . S
O253 C252 1.306 . S
O253 Cd254 2.228 . S
Cd254 O253 2.228 . S
Cd254 O258 2.273 . S
Cd254 O262 2.277 . S
O255 C252 1.160 . S
O255 Cd256 2.203 . S
Cd256 O255 2.203 . S
Cd256 O258 2.411 . S
Cd256 O259 2.333 . S
Cd256 O260 2.352 . S
Cd256 O264 2.277 . S
Cd256 O265 2.356 . S
C257 O262 1.209 . S
C257 O264 1.226 . S
O258 Cd254 2.273 . S
O258 Cd256 2.411 . S
O258 C261 1.320 . S
O259 Cd256 2.333 . S
O259 C261 1.214 . S
O260 Cd256 2.352 . S
O260 C263 1.258 . S
C261 O258 1.320 . S
C261 O259 1.214 . S
O262 Cd254 2.277 . S
O262 C257 1.209 . S
C263 O260 1.258 . S
C263 O265 1.282 . S
O264 Cd256 2.277 . S
O264 C257 1.226 . S
O265 Cd256 2.356 . S
O265 C263 1.282 . S
C266 O267 1.306 . S
C266 O269 1.160 . S
O267 C266 1.306 . S
O267 Cd268 2.228 . S
Cd268 O267 2.228 . S
Cd268 O272 2.273 . S
Cd268 O276 2.277 . S
O269 C266 1.160 . S
O269 Cd270 2.203 . S
Cd270 O269 2.203 . S
Cd270 O272 2.411 . S
Cd270 O273 2.333 . S
Cd270 O274 2.352 . S
Cd270 O278 2.277 . S
Cd270 O279 2.356 . S
C271 O276 1.209 . S
C271 O278 1.226 . S
O272 Cd268 2.273 . S
O272 Cd270 2.411 . S
O272 C275 1.320 . S
O273 Cd270 2.333 . S
O273 C275 1.214 . S
O274 Cd270 2.352 . S
O274 C277 1.258 . S
C275 O272 1.320 . S
C275 O273 1.214 . S
O276 Cd268 2.277 . S
O276 C271 1.209 . S
C277 O274 1.258 . S
C277 O279 1.282 . S
O278 Cd270 2.277 . S
O278 C271 1.226 . S
O279 Cd270 2.356 . S
O279 C277 1.282 . S
C280 O281 1.306 . S
C280 O283 1.160 . S
O281 C280 1.306 . S
O281 Cd282 2.228 . S
Cd282 O281 2.228 . S
Cd282 O286 2.273 . S
Cd282 O290 2.277 . S
O283 C280 1.160 . S
O283 Cd284 2.203 . S
Cd284 O283 2.203 . S
Cd284 O286 2.411 . S
Cd284 O287 2.333 . S
Cd284 O288 2.352 . S
Cd284 O292 2.277 . S
Cd284 O293 2.356 . S
C285 O290 1.209 . S
C285 O292 1.226 . S
O286 Cd282 2.273 . S
O286 Cd284 2.411 . S
O286 C289 1.320 . S
O287 Cd284 2.333 . S
O287 C289 1.214 . S
O288 Cd284 2.352 . S
O288 C291 1.258 . S
C289 O286 1.320 . S
C289 O287 1.214 . S
O290 Cd282 2.277 . S
O290 C285 1.209 . S
C291 O288 1.258 . S
C291 O293 1.282 . S
O292 Cd284 2.277 . S
O292 C285 1.226 . S
O293 Cd284 2.356 . S
O293 C291 1.282 . S
C294 O295 1.306 . S
C294 O297 1.160 . S
O295 C294 1.306 . S
O295 Cd296 2.228 . S
Cd296 O295 2.228 . S
Cd296 O300 2.273 . S
Cd296 O304 2.277 . S
O297 C294 1.160 . S
O297 Cd298 2.203 . S
Cd298 O297 2.203 . S
Cd298 O300 2.411 . S
Cd298 O301 2.333 . S
Cd298 O302 2.352 . S
Cd298 O306 2.277 . S
Cd298 O307 2.356 . S
C299 O304 1.209 . S
C299 O306 1.226 . S
O300 Cd296 2.273 . S
O300 Cd298 2.411 . S
O300 C303 1.320 . S
O301 Cd298 2.333 . S
O301 C303 1.214 . S
O302 Cd298 2.352 . S
O302 C305 1.258 . S
C303 O300 1.320 . S
C303 O301 1.214 . S
O304 Cd296 2.277 . S
O304 C299 1.209 . S
C305 O302 1.258 . S
C305 O307 1.282 . S
O306 Cd298 2.277 . S
O306 C299 1.226 . S
O307 Cd298 2.356 . S
O307 C305 1.282 . S
C308 O309 1.306 . S
C308 O311 1.160 . S
O309 C308 1.306 . S
O309 Cd310 2.228 . S
Cd310 O309 2.228 . S
Cd310 O314 2.273 . S
Cd310 O318 2.277 . S
O311 C308 1.160 . S
O311 Cd312 2.203 . S
Cd312 O311 2.203 . S
Cd312 O314 2.411 . S
Cd312 O315 2.333 . S
Cd312 O316 2.352 . S
Cd312 O320 2.277 . S
Cd312 O321 2.356 . S
C313 O318 1.209 . S
C313 O320 1.226 . S
O314 Cd310 2.273 . S
O314 Cd312 2.411 . S
O314 C317 1.320 . S
O315 Cd312 2.333 . S
O315 C317 1.214 . S
O316 Cd312 2.352 . S
O316 C319 1.258 . S
C317 O314 1.320 . S
C317 O315 1.214 . S
O318 Cd310 2.277 . S
O318 C313 1.209 . S
C319 O316 1.258 . S
C319 O321 1.282 . S
O320 Cd312 2.277 . S
O320 C313 1.226 . S
O321 Cd312 2.356 . S
O321 C319 1.282 . S
C322 O323 1.306 . S
C322 O325 1.160 . S
O323 C322 1.306 . S
O323 Cd324 2.228 1_554 S
Cd324 O323 2.228 1_556 S
Cd324 O328 2.273 1_556 S
Cd324 O332 2.277 1_556 S
O325 C322 1.160 . S
O325 Cd326 2.203 . S
Cd326 O325 2.203 . S
Cd326 O328 2.411 . S
Cd326 O329 2.333 . S
Cd326 O330 2.352 . S
Cd326 O334 2.277 . S
Cd326 O335 2.356 . S
C327 O332 1.209 . S
C327 O334 1.226 . S
O328 Cd324 2.273 1_554 S
O328 Cd326 2.411 . S
O328 C331 1.320 . S
O329 Cd326 2.333 . S
O329 C331 1.214 . S
O330 Cd326 2.352 . S
O330 C333 1.258 . S
C331 O328 1.320 . S
C331 O329 1.214 . S
O332 Cd324 2.277 1_554 S
O332 C327 1.209 . S
C333 O330 1.258 . S
C333 O335 1.282 . S
O334 Cd326 2.277 . S
O334 C327 1.226 . S
O335 Cd326 2.356 . S
O335 C333 1.282 . S
C336 O337 1.306 . S
C336 O339 1.160 . S
O337 C336 1.306 . S
O337 Cd338 2.228 . S
Cd338 O337 2.228 . S
Cd338 O342 2.273 . S
Cd338 O346 2.277 . S
O339 C336 1.160 . S
O339 Cd340 2.203 . S
Cd340 O339 2.203 . S
Cd340 O342 2.411 . S
Cd340 O343 2.333 . S
Cd340 O344 2.352 . S
Cd340 O348 2.277 . S
Cd340 O349 2.356 . S
C341 O346 1.209 . S
C341 O348 1.226 . S
O342 Cd338 2.273 . S
O342 Cd340 2.411 . S
O342 C345 1.320 . S
O343 Cd340 2.333 . S
O343 C345 1.214 . S
O344 Cd340 2.352 . S
O344 C347 1.258 . S
C345 O342 1.320 . S
C345 O343 1.214 . S
O346 Cd338 2.277 . S
O346 C341 1.209 . S
C347 O344 1.258 . S
C347 O349 1.282 . S
O348 Cd340 2.277 . S
O348 C341 1.226 . S
O349 Cd340 2.356 . S
O349 C347 1.282 . S
C350 O351 1.306 . S
C350 O353 1.160 . S
O351 C350 1.306 . S
O351 Cd352 2.228 1_554 S
Cd352 O351 2.228 1_556 S
Cd352 O356 2.273 1_556 S
Cd352 O360 2.277 1_556 S
O353 C350 1.160 . S
O353 Cd354 2.203 . S
Cd354 O353 2.203 . S
Cd354 O356 2.411 . S
Cd354 O357 2.333 . S
Cd354 O358 2.352 . S
Cd354 O362 2.277 . S
Cd354 O363 2.356 . S
C355 O360 1.209 . S
C355 O362 1.226 . S
O356 Cd352 2.273 1_554 S
O356 Cd354 2.411 . S
O356 C359 1.320 . S
O357 Cd354 2.333 . S
O357 C359 1.214 . S
O358 Cd354 2.352 . S
O358 C361 1.258 . S
C359 O356 1.320 . S
C359 O357 1.214 . S
O360 Cd352 2.277 1_554 S
O360 C355 1.209 . S
C361 O358 1.258 . S
C361 O363 1.282 . S
O362 Cd354 2.277 . S
O362 C355 1.226 . S
O363 Cd354 2.356 . S
O363 C361 1.282 . S
C364 O365 1.306 . S
C364 O367 1.160 . S
O365 C364 1.306 . S
O365 Cd366 2.228 . S
Cd366 O365 2.228 . S
Cd366 O370 2.273 . S
Cd366 O374 2.277 . S
O367 C364 1.160 . S
O367 Cd368 2.203 . S
Cd368 O367 2.203 . S
Cd368 O370 2.411 . S
Cd368 O371 2.333 . S
Cd368 O372 2.352 . S
Cd368 O376 2.277 . S
Cd368 O377 2.356 . S
C369 O374 1.209 . S
C369 O376 1.226 . S
O370 Cd366 2.273 . S
O370 Cd368 2.411 . S
O370 C373 1.320 . S
O371 Cd368 2.333 . S
O371 C373 1.214 . S
O372 Cd368 2.352 . S
O372 C375 1.258 . S
C373 O370 1.320 . S
C373 O371 1.214 . S
O374 Cd366 2.277 . S
O374 C369 1.209 . S
C375 O372 1.258 . S
C375 O377 1.282 . S
O376 Cd368 2.277 . S
O376 C369 1.226 . S
O377 Cd368 2.356 . S
O377 C375 1.282 . S
C378 O379 1.306 . S
C378 O381 1.160 . S
O379 C378 1.306 . S
O379 Cd380 2.228 . S
Cd380 O379 2.228 . S
Cd380 O384 2.273 . S
Cd380 O388 2.277 . S
O381 C378 1.160 . S
O381 Cd382 2.203 . S
Cd382 O381 2.203 . S
Cd382 O384 2.411 . S
Cd382 O385 2.333 . S
Cd382 O386 2.352 . S
Cd382 O390 2.277 . S
Cd382 O391 2.356 . S
C383 O388 1.209 . S
C383 O390 1.226 . S
O384 Cd380 2.273 . S
O384 Cd382 2.411 . S
O384 C387 1.320 . S
O385 Cd382 2.333 . S
O385 C387 1.214 . S
O386 Cd382 2.352 . S
O386 C389 1.258 . S
C387 O384 1.320 . S
C387 O385 1.214 . S
O388 Cd380 2.277 . S
O388 C383 1.209 . S
C389 O386 1.258 . S
C389 O391 1.282 . S
O390 Cd382 2.277 . S
O390 C383 1.226 . S
O391 Cd382 2.356 . S
O391 C389 1.282 . S
C392 O393 1.306 . S
C392 O395 1.160 . S
O393 C392 1.306 . S
O393 Cd394 2.228 . S
Cd394 O393 2.228 . S
Cd394 O398 2.273 . S
Cd394 O402 2.277 . S
O395 C392 1.160 . S
O395 Cd396 2.203 . S
Cd396 O395 2.203 . S
Cd396 O398 2.411 . S
Cd396 O399 2.333 . S
Cd396 O400 2.352 . S
Cd396 O404 2.277 . S
Cd396 O405 2.356 . S
C397 O402 1.209 . S
C397 O404 1.226 . S
O398 Cd394 2.273 . S
O398 Cd396 2.411 . S
O398 C401 1.320 . S
O399 Cd396 2.333 . S
O399 C401 1.214 . S
O400 Cd396 2.352 . S
O400 C403 1.258 . S
C401 O398 1.320 . S
C401 O399 1.214 . S
O402 Cd394 2.277 . S
O402 C397 1.209 . S
C403 O400 1.258 . S
C403 O405 1.282 . S
O404 Cd396 2.277 . S
O404 C397 1.226 . S
O405 Cd396 2.356 . S
O405 C403 1.282 . S
C406 O407 1.306 . S
C406 O409 1.160 . S
O407 C406 1.306 . S
O407 Cd408 2.228 . S
Cd408 O407 2.228 . S
Cd408 O412 2.273 . S
Cd408 O416 2.277 . S
O409 C406 1.160 . S
O409 Cd410 2.203 . S
Cd410 O409 2.203 . S
Cd410 O412 2.411 . S
Cd410 O413 2.333 . S
Cd410 O414 2.352 . S
Cd410 O418 2.277 . S
Cd410 O419 2.356 . S
C411 O416 1.209 . S
C411 O418 1.226 . S
O412 Cd408 2.273 . S
O412 Cd410 2.411 . S
O412 C415 1.320 . S
O413 Cd410 2.333 . S
O413 C415 1.214 . S
O414 Cd410 2.352 . S
O414 C417 1.258 . S
C415 O412 1.320 . S
C415 O413 1.214 . S
O416 Cd408 2.277 . S
O416 C411 1.209 . S
C417 O414 1.258 . S
C417 O419 1.282 . S
O418 Cd410 2.277 . S
O418 C411 1.226 . S
O419 Cd410 2.356 . S
O419 C417 1.282 . S
C420 O421 1.306 . S
C420 O423 1.160 . S
O421 C420 1.306 . S
O421 Cd422 2.228 . S
Cd422 O421 2.228 . S
Cd422 O426 2.273 . S
Cd422 O430 2.277 . S
O423 C420 1.160 . S
O423 Cd424 2.203 . S
Cd424 O423 2.203 . S
Cd424 O426 2.411 . S
Cd424 O427 2.333 . S
Cd424 O428 2.352 . S
Cd424 O432 2.277 . S
Cd424 O433 2.356 . S
C425 O430 1.209 . S
C425 O432 1.226 . S
O426 Cd422 2.273 . S
O426 Cd424 2.411 . S
O426 C429 1.320 . S
O427 Cd424 2.333 . S
O427 C429 1.214 . S
O428 Cd424 2.352 . S
O428 C431 1.258 . S
C429 O426 1.320 . S
C429 O427 1.214 . S
O430 Cd422 2.277 . S
O430 C425 1.209 . S
C431 O428 1.258 . S
C431 O433 1.282 . S
O432 Cd424 2.277 . S
O432 C425 1.226 . S
O433 Cd424 2.356 . S
O433 C431 1.282 . S
C434 O435 1.306 . S
C434 O437 1.160 . S
O435 C434 1.306 . S
O435 Cd436 2.228 1_556 S
Cd436 O435 2.228 1_554 S
Cd436 O440 2.273 1_554 S
Cd436 O444 2.277 1_554 S
O437 C434 1.160 . S
O437 Cd438 2.203 . S
Cd438 O437 2.203 . S
Cd438 O440 2.411 . S
Cd438 O441 2.333 . S
Cd438 O442 2.352 . S
Cd438 O446 2.277 . S
Cd438 O447 2.356 . S
C439 O444 1.209 . S
C439 O446 1.226 . S
O440 Cd436 2.273 1_556 S
O440 Cd438 2.411 . S
O440 C443 1.320 . S
O441 Cd438 2.333 . S
O441 C443 1.214 . S
O442 Cd438 2.352 . S
O442 C445 1.258 . S
C443 O440 1.320 . S
C443 O441 1.214 . S
O444 Cd436 2.277 1_556 S
O444 C439 1.209 . S
C445 O442 1.258 . S
C445 O447 1.282 . S
O446 Cd438 2.277 . S
O446 C439 1.226 . S
O447 Cd438 2.356 . S
O447 C445 1.282 . S
C448 C449 1.369 . S
C448 C450 1.419 . S
C448 H452 0.930 . S
C449 C448 1.369 . S
C449 C458 1.429 . S
C450 C448 1.419 . S
C450 C451 1.363 . S
C450 H453 0.929 . S
C451 C450 1.363 . S
C451 C457 1.428 . S
H452 C448 0.930 . S
H453 C450 0.929 . S
S454 N455 1.613 . S
S454 N456 1.610 . S
N455 S454 1.613 . S
N455 C458 1.350 . S
N456 S454 1.610 . S
N456 C457 1.351 . S
C457 C451 1.428 . S
C457 N456 1.351 . S
C457 C458 1.434 . S
C458 C449 1.429 . S
C458 N455 1.350 . S
C458 C457 1.434 . S
C459 C460 1.369 . S
C459 C461 1.419 1_565 S
C459 H463 0.930 . S
C460 C459 1.369 . S
C460 C469 1.429 . S
C461 C459 1.419 1_545 S
C461 C462 1.363 . S
C461 H464 0.929 . S
C462 C461 1.363 . S
C462 C468 1.428 . S
H463 C459 0.930 . S
H464 C461 0.929 . S
S465 N466 1.613 1_545 S
S465 N467 1.610 . S
N466 S465 1.613 1_565 S
N466 C469 1.350 . S
N467 S465 1.610 . S
N467 C468 1.351 . S
C468 C462 1.428 . S
C468 N467 1.351 . S
C468 C469 1.434 1_545 S
C469 C460 1.429 . S
C469 N466 1.350 . S
C469 C468 1.434 1_565 S
C470 C471 1.369 . S
C470 C472 1.419 . S
C470 H474 0.930 . S
C471 C470 1.369 . S
C471 C480 1.429 . S
C472 C470 1.419 . S
C472 C473 1.363 . S
C472 H475 0.929 . S
C473 C472 1.363 . S
C473 C479 1.428 . S
H474 C470 0.930 . S
H475 C472 0.929 . S
S476 N477 1.613 . S
S476 N478 1.610 . S
N477 S476 1.613 . S
N477 C480 1.350 . S
N478 S476 1.610 . S
N478 C479 1.351 . S
C479 C473 1.428 . S
C479 N478 1.351 . S
C479 C480 1.434 . S
C480 C471 1.429 . S
C480 N477 1.350 . S
C480 C479 1.434 . S
C481 C482 1.369 . S
C481 C483 1.419 1_545 S
C481 H485 0.930 . S
C482 C481 1.369 . S
C482 C491 1.429 1_556 S
C483 C481 1.419 1_565 S
C483 C484 1.363 1_556 S
C483 H486 0.929 . S
C484 C483 1.363 1_554 S
C484 C490 1.428 . S
H485 C481 0.930 . S
H486 C483 0.929 . S
S487 N488 1.613 . S
S487 N489 1.610 1_545 S
N488 S487 1.613 . S
N488 C491 1.350 . S
N489 S487 1.610 1_565 S
N489 C490 1.351 . S
C490 C484 1.428 . S
C490 N489 1.351 . S
C490 C491 1.434 1_565 S
C491 C482 1.429 1_554 S
C491 N488 1.350 . S
C491 C490 1.434 1_545 S
C492 C493 1.369 . S
C492 C494 1.419 . S
C492 H496 0.930 . S
C493 C492 1.369 . S
C493 C502 1.429 . S
C494 C492 1.419 . S
C494 C495 1.363 . S
C494 H497 0.929 . S
C495 C494 1.363 . S
C495 C501 1.428 . S
H496 C492 0.930 . S
H497 C494 0.929 . S
S498 N499 1.613 . S
S498 N500 1.610 . S
N499 S498 1.613 . S
N499 C502 1.350 . S
N500 S498 1.610 . S
N500 C501 1.351 . S
C501 C495 1.428 . S
C501 N500 1.351 . S
C501 C502 1.434 . S
C502 C493 1.429 . S
C502 N499 1.350 . S
C502 C501 1.434 . S
C503 C504 1.369 . S
C503 C505 1.419 1_565 S
C503 H507 0.930 . S
C504 C503 1.369 . S
C504 C513 1.429 . S
C505 C503 1.419 1_545 S
C505 C506 1.363 . S
C505 H508 0.929 . S
C506 C505 1.363 . S
C506 C512 1.428 . S
H507 C503 0.930 . S
H508 C505 0.929 . S
S509 N510 1.613 . S
S509 N511 1.610 1_565 S
N510 S509 1.613 . S
N510 C513 1.350 . S
N511 S509 1.610 1_545 S
N511 C512 1.351 . S
C512 C506 1.428 . S
C512 N511 1.351 . S
C512 C513 1.434 1_545 S
C513 C504 1.429 . S
C513 N510 1.350 . S
C513 C512 1.434 1_565 S
C514 C515 1.369 . S
C514 C516 1.419 . S
C514 H518 0.930 . S
C515 C514 1.369 . S
C515 C524 1.429 . S
C516 C514 1.419 . S
C516 C517 1.363 . S
C516 H519 0.929 . S
C517 C516 1.363 . S
C517 C523 1.428 . S
H518 C514 0.930 . S
H519 C516 0.929 . S
S520 N521 1.613 . S
S520 N522 1.610 . S
N521 S520 1.613 . S
N521 C524 1.350 . S
N522 S520 1.610 . S
N522 C523 1.351 . S
C523 C517 1.428 . S
C523 N522 1.351 . S
C523 C524 1.434 . S
C524 C515 1.429 . S
C524 N521 1.350 . S
C524 C523 1.434 . S
C525 C526 1.369 . S
C525 C527 1.419 1_545 S
C525 H529 0.930 . S
C526 C525 1.369 . S
C526 C535 1.429 1_556 S
C527 C525 1.419 1_565 S
C527 C528 1.363 1_556 S
C527 H530 0.929 . S
C528 C527 1.363 1_554 S
C528 C534 1.428 . S
H529 C525 0.930 . S
H530 C527 0.929 . S
S531 N532 1.613 . S
S531 N533 1.610 1_545 S
N532 S531 1.613 . S
N532 C535 1.350 . S
N533 S531 1.610 1_565 S
N533 C534 1.351 . S
C534 C528 1.428 . S
C534 N533 1.351 . S
C534 C535 1.434 1_565 S
C535 C526 1.429 1_554 S
C535 N532 1.350 . S
C535 C534 1.434 1_545 S
C536 C537 1.369 . S
C536 C538 1.419 . S
C536 H540 0.930 . S
C537 C536 1.369 . S
C537 C546 1.429 . S
C538 C536 1.419 . S
C538 C539 1.363 . S
C538 H541 0.929 . S
C539 C538 1.363 . S
C539 C545 1.428 . S
H540 C536 0.930 . S
H541 C538 0.929 . S
S542 N543 1.613 . S
S542 N544 1.610 . S
N543 S542 1.613 . S
N543 C546 1.350 . S
N544 S542 1.610 . S
N544 C545 1.351 . S
C545 C539 1.428 . S
C545 N544 1.351 . S
C545 C546 1.434 . S
C546 C537 1.429 . S
C546 N543 1.350 . S
C546 C545 1.434 . S
C547 C548 1.369 . S
C547 C549 1.419 . S
C547 H551 0.930 . S
C548 C547 1.369 . S
C548 C557 1.429 1_556 S
C549 C547 1.419 . S
C549 C550 1.363 1_556 S
C549 H552 0.929 . S
C550 C549 1.363 1_554 S
C550 C556 1.428 . S
H551 C547 0.930 . S
H552 C549 0.929 . S
S553 N554 1.613 . S
S553 N555 1.610 . S
N554 S553 1.613 . S
N554 C557 1.350 . S
N555 S553 1.610 . S
N555 C556 1.351 . S
C556 C550 1.428 . S
C556 N555 1.351 . S
C556 C557 1.434 . S
C557 C548 1.429 1_554 S
C557 N554 1.350 . S
C557 C556 1.434 . S
C558 C559 1.369 . S
C558 C560 1.419 . S
C558 H562 0.930 . S
C559 C558 1.369 . S
C559 C568 1.429 . S
C560 C558 1.419 . S
C560 C561 1.363 . S
C560 H563 0.929 . S
C561 C560 1.363 . S
C561 C567 1.428 . S
H562 C558 0.930 . S
H563 C560 0.929 . S
S564 N565 1.613 . S
S564 N566 1.610 . S
N565 S564 1.613 . S
N565 C568 1.350 . S
N566 S564 1.610 . S
N566 C567 1.351 . S
C567 C561 1.428 . S
C567 N566 1.351 . S
C567 C568 1.434 . S
C568 C559 1.429 . S
C568 N565 1.350 . S
C568 C567 1.434 . S
C569 C570 1.369 . S
C569 C571 1.419 . S
C569 H573 0.930 . S
C570 C569 1.369 . S
C570 C579 1.429 . S
C571 C569 1.419 . S
C571 C572 1.363 . S
C571 H574 0.929 . S
C572 C571 1.363 . S
C572 C578 1.428 . S
H573 C569 0.930 . S
H574 C571 0.929 . S
S575 N576 1.613 . S
S575 N577 1.610 . S
N576 S575 1.613 . S
N576 C579 1.350 . S
N577 S575 1.610 . S
N577 C578 1.351 . S
C578 C572 1.428 . S
C578 N577 1.351 . S
C578 C579 1.434 . S
C579 C570 1.429 . S
C579 N576 1.350 . S
C579 C578 1.434 . S
C580 C581 1.369 . S
C580 C582 1.419 . S
C580 H584 0.930 . S
C581 C580 1.369 . S
C581 C590 1.429 . S
C582 C580 1.419 . S
C582 C583 1.363 . S
C582 H585 0.929 . S
C583 C582 1.363 . S
C583 C589 1.428 . S
H584 C580 0.930 . S
H585 C582 0.929 . S
S586 N587 1.613 . S
S586 N588 1.610 . S
N587 S586 1.613 . S
N587 C590 1.350 . S
N588 S586 1.610 . S
N588 C589 1.351 . S
C589 C583 1.428 . S
C589 N588 1.351 . S
C589 C590 1.434 . S
C590 C581 1.429 . S
C590 N587 1.350 . S
C590 C589 1.434 . S
C591 C592 1.369 . S
C591 C593 1.419 . S
C591 H595 0.930 . S
C592 C591 1.369 . S
C592 C601 1.429 1_554 S
C593 C591 1.419 . S
C593 C594 1.363 1_554 S
C593 H596 0.929 . S
C594 C593 1.363 1_556 S
C594 C600 1.428 . S
H595 C591 0.930 . S
H596 C593 0.929 . S
S597 N598 1.613 . S
S597 N599 1.610 . S
N598 S597 1.613 . S
N598 C601 1.350 . S
N599 S597 1.610 . S
N599 C600 1.351 . S
C600 C594 1.428 . S
C600 N599 1.351 . S
C600 C601 1.434 . S
C601 C592 1.429 1_556 S
C601 N598 1.350 . S
C601 C600 1.434 . S
C602 C603 1.369 . S
C602 C604 1.419 . S
C602 H606 0.930 . S
C603 C602 1.369 . S
C603 C612 1.429 . S
C604 C602 1.419 . S
C604 C605 1.363 . S
C604 H607 0.929 . S
C605 C604 1.363 . S
C605 C611 1.428 . S
H606 C602 0.930 . S
H607 C604 0.929 . S
S608 N609 1.613 . S
S608 N610 1.610 . S
N609 S608 1.613 . S
N609 C612 1.350 . S
N610 S608 1.610 . S
N610 C611 1.351 . S
C611 C605 1.428 . S
C611 N610 1.351 . S
C611 C612 1.434 . S
C612 C603 1.429 . S
C612 N609 1.350 . S
C612 C611 1.434 . S
C613 C614 1.369 . S
C613 C615 1.419 . S
C613 H617 0.930 . S
C614 C613 1.369 . S
C614 C623 1.429 . S
C615 C613 1.419 . S
C615 C616 1.363 . S
C615 H618 0.929 . S
C616 C615 1.363 . S
C616 C622 1.428 . S
H617 C613 0.930 . S
H618 C615 0.929 . S
S619 N620 1.613 . S
S619 N621 1.610 . S
N620 S619 1.613 . S
N620 C623 1.350 . S
N621 S619 1.610 . S
N621 C622 1.351 . S
C622 C616 1.428 . S
C622 N621 1.351 . S
C622 C623 1.434 . S
C623 C614 1.429 . S
C623 N620 1.350 . S
C623 C622 1.434 . S
C624 C625 1.369 . S
C624 C626 1.419 . S
C624 H628 0.930 . S
C625 C624 1.369 . S
C625 C634 1.429 . S
C626 C624 1.419 . S
C626 C627 1.363 . S
C626 H629 0.929 . S
C627 C626 1.363 . S
C627 C633 1.428 . S
H628 C624 0.930 . S
H629 C626 0.929 . S
S630 N631 1.613 . S
S630 N632 1.610 . S
N631 S630 1.613 . S
N631 C634 1.350 . S
N632 S630 1.610 . S
N632 C633 1.351 . S
C633 C627 1.428 . S
C633 N632 1.351 . S
C633 C634 1.434 . S
C634 C625 1.429 . S
C634 N631 1.350 . S
C634 C633 1.434 . S
C635 C636 1.369 . S
C635 C637 1.419 . S
C635 H639 0.930 . S
C636 C635 1.369 . S
C636 C645 1.429 . S
C637 C635 1.419 . S
C637 C638 1.363 . S
C637 H640 0.929 . S
C638 C637 1.363 . S
C638 C644 1.428 . S
H639 C635 0.930 . S
H640 C637 0.929 . S
S641 N642 1.613 . S
S641 N643 1.610 . S
N642 S641 1.613 . S
N642 C645 1.350 . S
N643 S641 1.610 . S
N643 C644 1.351 . S
C644 C638 1.428 . S
C644 N643 1.351 . S
C644 C645 1.434 . S
C645 C636 1.429 . S
C645 N642 1.350 . S
C645 C644 1.434 . S
C646 C647 1.369 . S
C646 C648 1.419 . S
C646 H650 0.930 . S
C647 C646 1.369 . S
C647 C656 1.429 . S
C648 C646 1.419 . S
C648 C649 1.363 . S
C648 H651 0.929 . S
C649 C648 1.363 . S
C649 C655 1.428 . S
H650 C646 0.930 . S
H651 C648 0.929 . S
S652 N653 1.613 . S
S652 N654 1.610 . S
N653 S652 1.613 . S
N653 C656 1.350 . S
N654 S652 1.610 . S
N654 C655 1.351 . S
C655 C649 1.428 . S
C655 N654 1.351 . S
C655 C656 1.434 . S
C656 C647 1.429 . S
C656 N653 1.350 . S
C656 C655 1.434 . S
C657 C658 1.369 . S
C657 C659 1.419 . S
C657 H661 0.930 . S
C658 C657 1.369 . S
C658 C667 1.429 . S
C659 C657 1.419 . S
C659 C660 1.363 . S
C659 H662 0.929 . S
C660 C659 1.363 . S
C660 C666 1.428 . S
H661 C657 0.930 . S
H662 C659 0.929 . S
S663 N664 1.613 . S
S663 N665 1.610 . S
N664 S663 1.613 . S
N664 C667 1.350 . S
N665 S663 1.610 . S
N665 C666 1.351 . S
C666 C660 1.428 . S
C666 N665 1.351 . S
C666 C667 1.434 . S
C667 C658 1.429 . S
C667 N664 1.350 . S
C667 C666 1.434 . S
C668 C669 1.369 . S
C668 C670 1.419 . S
C668 H672 0.930 . S
C669 C668 1.369 . S
C669 C678 1.429 . S
C670 C668 1.419 . S
C670 C671 1.363 . S
C670 H673 0.929 . S
C671 C670 1.363 . S
C671 C677 1.428 . S
H672 C668 0.930 . S
H673 C670 0.929 . S
S674 N675 1.613 . S
S674 N676 1.610 . S
N675 S674 1.613 . S
N675 C678 1.350 . S
N676 S674 1.610 . S
N676 C677 1.351 . S
C677 C671 1.428 . S
C677 N676 1.351 . S
C677 C678 1.434 . S
C678 C669 1.429 . S
C678 N675 1.350 . S
C678 C677 1.434 . S
C679 C680 1.369 . S
C679 C681 1.419 . S
C679 H683 0.930 . S
C680 C679 1.369 . S
C680 C689 1.429 . S
C681 C679 1.419 . S
C681 C682 1.363 . S
C681 H684 0.929 . S
C682 C681 1.363 . S
C682 C688 1.428 . S
H683 C679 0.930 . S
H684 C681 0.929 . S
S685 N686 1.613 . S
S685 N687 1.610 1_554 S
N686 S685 1.613 . S
N686 C689 1.350 1_554 S
N687 S685 1.610 1_556 S
N687 C688 1.351 . S
C688 C682 1.428 . S
C688 N687 1.351 . S
C688 C689 1.434 . S
C689 C680 1.429 . S
C689 N686 1.350 1_556 S
C689 C688 1.434 . S
C690 C691 1.369 . S
C690 C692 1.419 . S
C690 H694 0.930 . S
C691 C690 1.369 . S
C691 C700 1.429 . S
C692 C690 1.419 . S
C692 C693 1.363 . S
C692 H695 0.929 . S
C693 C692 1.363 . S
C693 C699 1.428 . S
H694 C690 0.930 . S
H695 C692 0.929 . S
S696 N697 1.613 . S
S696 N698 1.610 . S
N697 S696 1.613 . S
N697 C700 1.350 . S
N698 S696 1.610 . S
N698 C699 1.351 . S
C699 C693 1.428 . S
C699 N698 1.351 . S
C699 C700 1.434 . S
C700 C691 1.429 . S
C700 N697 1.350 . S
C700 C699 1.434 . S
C701 C702 1.369 . S
C701 C703 1.419 . S
C701 H705 0.930 . S
C702 C701 1.369 . S
C702 C711 1.429 . S
C703 C701 1.419 . S
C703 C704 1.363 . S
C703 H706 0.929 . S
C704 C703 1.363 . S
C704 C710 1.428 . S
H705 C701 0.930 . S
H706 C703 0.929 . S
S707 N708 1.613 . S
S707 N709 1.610 . S
N708 S707 1.613 . S
N708 C711 1.350 . S
N709 S707 1.610 . S
N709 C710 1.351 . S
C710 C704 1.428 . S
C710 N709 1.351 . S
C710 C711 1.434 . S
C711 C702 1.429 . S
C711 N708 1.350 . S
C711 C710 1.434 . S
C712 C713 1.369 . S
C712 C714 1.419 . S
C712 H716 0.930 . S
C713 C712 1.369 . S
C713 C722 1.429 . S
C714 C712 1.419 . S
C714 C715 1.363 . S
C714 H717 0.929 . S
C715 C714 1.363 . S
C715 C721 1.428 . S
H716 C712 0.930 . S
H717 C714 0.929 . S
S718 N719 1.613 . S
S718 N720 1.610 . S
N719 S718 1.613 . S
N719 C722 1.350 . S
N720 S718 1.610 . S
N720 C721 1.351 . S
C721 C715 1.428 . S
C721 N720 1.351 . S
C721 C722 1.434 . S
C722 C713 1.429 . S
C722 N719 1.350 . S
C722 C721 1.434 . S
C723 C724 1.369 . S
C723 C725 1.419 . S
C723 H727 0.930 . S
C724 C723 1.369 . S
C724 C733 1.429 . S
C725 C723 1.419 . S
C725 C726 1.363 . S
C725 H728 0.929 . S
C726 C725 1.363 . S
C726 C732 1.428 . S
H727 C723 0.930 . S
H728 C725 0.929 . S
S729 N730 1.613 . S
S729 N731 1.610 . S
N730 S729 1.613 . S
N730 C733 1.350 . S
N731 S729 1.610 . S
N731 C732 1.351 . S
C732 C726 1.428 . S
C732 N731 1.351 . S
C732 C733 1.434 . S
C733 C724 1.429 . S
C733 N730 1.350 . S
C733 C732 1.434 . S
C734 C735 1.369 . S
C734 C736 1.419 . S
C734 H738 0.930 . S
C735 C734 1.369 . S
C735 C744 1.429 . S
C736 C734 1.419 . S
C736 C737 1.363 . S
C736 H739 0.929 . S
C737 C736 1.363 . S
C737 C743 1.428 . S
H738 C734 0.930 . S
H739 C736 0.929 . S
S740 N741 1.613 . S
S740 N742 1.610 . S
N741 S740 1.613 . S
N741 C744 1.350 . S
N742 S740 1.610 . S
N742 C743 1.351 . S
C743 C737 1.428 . S
C743 N742 1.351 . S
C743 C744 1.434 . S
C744 C735 1.429 . S
C744 N741 1.350 . S
C744 C743 1.434 . S
C745 C746 1.369 . S
C745 C747 1.419 . S
C745 H749 0.930 . S
C746 C745 1.369 . S
C746 C755 1.429 . S
C747 C745 1.419 . S
C747 C748 1.363 . S
C747 H750 0.929 . S
C748 C747 1.363 . S
C748 C754 1.428 . S
H749 C745 0.930 . S
H750 C747 0.929 . S
S751 N752 1.613 . S
S751 N753 1.610 . S
N752 S751 1.613 . S
N752 C755 1.350 . S
N753 S751 1.610 . S
N753 C754 1.351 . S
C754 C748 1.428 . S
C754 N753 1.351 . S
C754 C755 1.434 . S
C755 C746 1.429 . S
C755 N752 1.350 . S
C755 C754 1.434 . S
C756 C757 1.369 . S
C756 C758 1.419 . S
C756 H760 0.930 . S
C757 C756 1.369 . S
C757 C766 1.429 . S
C758 C756 1.419 . S
C758 C759 1.363 . S
C758 H761 0.929 . S
C759 C758 1.363 . S
C759 C765 1.428 . S
H760 C756 0.930 . S
H761 C758 0.929 . S
S762 N763 1.613 . S
S762 N764 1.610 . S
N763 S762 1.613 . S
N763 C766 1.350 . S
N764 S762 1.610 . S
N764 C765 1.351 . S
C765 C759 1.428 . S
C765 N764 1.351 . S
C765 C766 1.434 . S
C766 C757 1.429 . S
C766 N763 1.350 . S
C766 C765 1.434 . S
C767 C768 1.369 . S
C767 C769 1.419 . S
C767 H771 0.930 . S
C768 C767 1.369 . S
C768 C777 1.429 . S
C769 C767 1.419 . S
C769 C770 1.363 . S
C769 H772 0.929 . S
C770 C769 1.363 . S
C770 C776 1.428 . S
H771 C767 0.930 . S
H772 C769 0.929 . S
S773 N774 1.613 . S
S773 N775 1.610 . S
N774 S773 1.613 . S
N774 C777 1.350 . S
N775 S773 1.610 . S
N775 C776 1.351 . S
C776 C770 1.428 . S
C776 N775 1.351 . S
C776 C777 1.434 . S
C777 C768 1.429 . S
C777 N774 1.350 . S
C777 C776 1.434 . S
C778 C779 1.369 . S
C778 C780 1.419 . S
C778 H782 0.930 . S
C779 C778 1.369 . S
C779 C788 1.429 . S
C780 C778 1.419 . S
C780 C781 1.363 . S
C780 H783 0.929 . S
C781 C780 1.363 . S
C781 C787 1.428 . S
H782 C778 0.930 . S
H783 C780 0.929 . S
S784 N785 1.613 . S
S784 N786 1.610 . S
N785 S784 1.613 . S
N785 C788 1.350 . S
N786 S784 1.610 . S
N786 C787 1.351 . S
C787 C781 1.428 . S
C787 N786 1.351 . S
C787 C788 1.434 . S
C788 C779 1.429 . S
C788 N785 1.350 . S
C788 C787 1.434 . S
C789 C790 1.369 . S
C789 C791 1.419 . S
C789 H793 0.930 . S
C790 C789 1.369 . S
C790 C799 1.429 . S
C791 C789 1.419 . S
C791 C792 1.363 . S
C791 H794 0.929 . S
C792 C791 1.363 . S
C792 C798 1.428 . S
H793 C789 0.930 . S
H794 C791 0.929 . S
S795 N796 1.613 . S
S795 N797 1.610 1_556 S
N796 S795 1.613 . S
N796 C799 1.350 . S
N797 S795 1.610 1_554 S
N797 C798 1.351 1_554 S
C798 C792 1.428 . S
C798 N797 1.351 1_556 S
C798 C799 1.434 . S
C799 C790 1.429 . S
C799 N796 1.350 . S
C799 C798 1.434 . S
C800 C801 1.369 . S
C800 C802 1.419 . S
C800 H804 0.930 . S
C801 C800 1.369 . S
C801 C810 1.429 . S
C802 C800 1.419 . S
C802 C803 1.363 . S
C802 H805 0.929 . S
C803 C802 1.363 . S
C803 C809 1.428 . S
H804 C800 0.930 . S
H805 C802 0.929 . S
S806 N807 1.613 1_556 S
S806 N808 1.610 1_556 S
N807 S806 1.613 1_554 S
N807 C810 1.350 . S
N808 S806 1.610 1_554 S
N808 C809 1.351 . S
C809 C803 1.428 . S
C809 N808 1.351 . S
C809 C810 1.434 . S
C810 C801 1.429 . S
C810 N807 1.350 . S
C810 C809 1.434 . S
C811 C812 1.369 . S
C811 C813 1.419 1_655 S
C811 H815 0.930 . S
C812 C811 1.369 . S
C812 C821 1.429 . S
C813 C811 1.419 1_455 S
C813 C814 1.363 . S
C813 H816 0.929 . S
C814 C813 1.363 . S
C814 C820 1.428 . S
H815 C811 0.930 . S
H816 C813 0.929 . S
S817 N818 1.617 1_455 S
S817 N819 1.606 . S
N818 S817 1.617 1_655 S
N818 C821 1.350 . S
N819 S817 1.606 . S
N819 C820 1.351 . S
C820 C814 1.428 . S
C820 N819 1.351 . S
C820 C821 1.434 1_455 S
C821 C812 1.429 . S
C821 N818 1.350 . S
C821 C820 1.434 1_655 S
C822 C823 1.369 . S
C822 C824 1.419 . S
C822 H826 0.930 . S
C823 C822 1.369 . S
C823 C832 1.429 . S
C824 C822 1.419 . S
C824 C825 1.363 . S
C824 H827 0.929 . S
C825 C824 1.363 . S
C825 C831 1.428 . S
H826 C822 0.930 . S
H827 C824 0.929 . S
S828 N829 1.613 . S
S828 N830 1.610 . S
N829 S828 1.613 . S
N829 C832 1.350 . S
N830 S828 1.610 . S
N830 C831 1.351 . S
C831 C825 1.428 . S
C831 N830 1.351 . S
C831 C832 1.434 . S
C832 C823 1.429 . S
C832 N829 1.350 . S
C832 C831 1.434 . S
C833 C834 1.369 . S
C833 C835 1.419 . S
C833 H837 0.930 . S
C834 C833 1.369 . S
C834 C843 1.429 . S
C835 C833 1.419 . S
C835 C836 1.363 . S
C835 H838 0.929 . S
C836 C835 1.363 . S
C836 C842 1.428 . S
H837 C833 0.930 . S
H838 C835 0.929 . S
S839 N840 1.613 1_554 S
S839 N841 1.610 1_554 S
N840 S839 1.613 1_556 S
N840 C843 1.350 . S
N841 S839 1.610 1_556 S
N841 C842 1.351 . S
C842 C836 1.428 . S
C842 N841 1.351 . S
C842 C843 1.434 . S
C843 C834 1.429 . S
C843 N840 1.350 . S
C843 C842 1.434 . S
C844 C845 1.369 . S
C844 C846 1.419 . S
C844 H848 0.930 . S
C845 C844 1.369 . S
C845 C854 1.429 . S
C846 C844 1.419 . S
C846 C847 1.363 . S
C846 H849 0.929 . S
C847 C846 1.363 . S
C847 C853 1.428 . S
H848 C844 0.930 . S
H849 C846 0.929 . S
S850 N851 1.613 . S
S850 N852 1.610 . S
N851 S850 1.613 . S
N851 C854 1.350 1_554 S
N852 S850 1.610 . S
N852 C853 1.351 1_554 S
C853 C847 1.428 . S
C853 N852 1.351 1_556 S
C853 C854 1.434 . S
C854 C845 1.429 . S
C854 N851 1.350 1_556 S
C854 C853 1.434 . S
C855 C856 1.369 . S
C855 C857 1.419 . S
C855 H859 0.930 . S
C856 C855 1.369 . S
C856 C865 1.429 . S
C857 C855 1.419 . S
C857 C858 1.363 . S
C857 H860 0.929 . S
C858 C857 1.363 . S
C858 C864 1.428 . S
H859 C855 0.930 . S
H860 C857 0.929 . S
S861 N862 1.613 1_556 S
S861 N863 1.610 1_556 S
N862 S861 1.613 1_554 S
N862 C865 1.350 . S
N863 S861 1.610 1_554 S
N863 C864 1.351 . S
C864 C858 1.428 . S
C864 N863 1.351 . S
C864 C865 1.434 . S
C865 C856 1.429 . S
C865 N862 1.350 . S
C865 C864 1.434 . S
C866 C867 1.369 . S
C866 C868 1.419 . S
C866 H870 0.930 . S
C867 C866 1.369 . S
C867 C876 1.429 . S
C868 C866 1.419 . S
C868 C869 1.363 . S
C868 H871 0.929 . S
C869 C868 1.363 . S
C869 C875 1.428 . S
H870 C866 0.930 . S
H871 C868 0.929 . S
S872 N873 1.613 . S
S872 N874 1.610 . S
N873 S872 1.613 . S
N873 C876 1.350 . S
N874 S872 1.610 . S
N874 C875 1.351 . S
C875 C869 1.428 . S
C875 N874 1.351 . S
C875 C876 1.434 . S
C876 C867 1.429 . S
C876 N873 1.350 . S
C876 C875 1.434 . S
C877 C878 1.369 . S
C877 C879 1.419 1_655 S
C877 H881 0.930 . S
C878 C877 1.369 . S
C878 C887 1.429 . S
C879 C877 1.419 1_455 S
C879 C880 1.363 . S
C879 H882 0.929 . S
C880 C879 1.363 . S
C880 C886 1.428 . S
H881 C877 0.930 . S
H882 C879 0.929 . S
S883 N884 1.617 1_455 S
S883 N885 1.606 . S
N884 S883 1.617 1_655 S
N884 C887 1.350 . S
N885 S883 1.606 . S
N885 C886 1.351 . S
C886 C880 1.428 . S
C886 N885 1.351 . S
C886 C887 1.434 1_455 S
C887 C878 1.429 . S
C887 N884 1.350 . S
C887 C886 1.434 1_655 S
C888 C889 1.369 . S
C888 C890 1.419 . S
C888 H892 0.930 . S
C889 C888 1.369 . S
C889 C898 1.429 . S
C890 C888 1.419 . S
C890 C891 1.363 . S
C890 H893 0.929 . S
C891 C890 1.363 . S
C891 C897 1.428 . S
H892 C888 0.930 . S
H893 C890 0.929 . S
S894 N895 1.613 . S
S894 N896 1.610 . S
N895 S894 1.613 . S
N895 C898 1.350 1_554 S
N896 S894 1.610 . S
N896 C897 1.351 1_554 S
C897 C891 1.428 . S
C897 N896 1.351 1_556 S
C897 C898 1.434 . S
C898 C889 1.429 . S
C898 N895 1.350 1_556 S
C898 C897 1.434 . S
C899 C900 1.369 . S
C899 C901 1.419 . S
C899 H903 0.930 . S
C900 C899 1.369 . S
C900 C909 1.429 . S
C901 C899 1.419 . S
C901 C902 1.363 . S
C901 H904 0.929 . S
C902 C901 1.363 . S
C902 C908 1.428 . S
H903 C899 0.930 . S
H904 C901 0.929 . S
S905 N906 1.613 . S
S905 N907 1.610 . S
N906 S905 1.613 . S
N906 C909 1.350 . S
N907 S905 1.610 . S
N907 C908 1.351 . S
C908 C902 1.428 . S
C908 N907 1.351 . S
C908 C909 1.434 . S
C909 C900 1.429 . S
C909 N906 1.350 . S
C909 C908 1.434 . S
C910 C911 1.369 . S
C910 C912 1.419 . S
C910 H914 0.930 . S
C911 C910 1.369 . S
C911 C920 1.429 . S
C912 C910 1.419 . S
C912 C913 1.363 . S
C912 H915 0.929 . S
C913 C912 1.363 . S
C913 C919 1.428 . S
H914 C910 0.930 . S
H915 C912 0.929 . S
S916 N917 1.613 . S
S916 N918 1.610 . S
N917 S916 1.613 . S
N917 C920 1.350 . S
N918 S916 1.610 . S
N918 C919 1.351 . S
C919 C913 1.428 . S
C919 N918 1.351 . S
C919 C920 1.434 . S
C920 C911 1.429 . S
C920 N917 1.350 . S
C920 C919 1.434 . S
C921 C922 1.369 . S
C921 C923 1.419 . S
C921 H925 0.930 . S
C922 C921 1.369 . S
C922 C931 1.429 . S
C923 C921 1.419 . S
C923 C924 1.363 . S
C923 H926 0.929 . S
C924 C923 1.363 . S
C924 C930 1.428 . S
H925 C921 0.930 . S
H926 C923 0.929 . S
S927 N928 1.613 . S
S927 N929 1.610 . S
N928 S927 1.613 . S
N928 C931 1.350 . S
N929 S927 1.610 . S
N929 C930 1.351 . S
C930 C924 1.428 . S
C930 N929 1.351 . S
C930 C931 1.434 . S
C931 C922 1.429 . S
C931 N928 1.350 . S
C931 C930 1.434 . S
C932 C933 1.369 . S
C932 C934 1.419 . S
C932 H936 0.930 . S
C933 C932 1.369 . S
C933 C942 1.429 . S
C934 C932 1.419 . S
C934 C935 1.363 . S
C934 H937 0.929 . S
C935 C934 1.363 . S
C935 C941 1.428 . S
H936 C932 0.930 . S
H937 C934 0.929 . S
S938 N939 1.613 . S
S938 N940 1.610 . S
N939 S938 1.613 . S
N939 C942 1.350 . S
N940 S938 1.610 . S
N940 C941 1.351 . S
C941 C935 1.428 . S
C941 N940 1.351 . S
C941 C942 1.434 . S
C942 C933 1.429 . S
C942 N939 1.350 . S
C942 C941 1.434 . S
C943 C944 1.369 . S
C943 C945 1.419 1_655 S
C943 H947 0.930 . S
C944 C943 1.369 . S
C944 C953 1.429 . S
C945 C943 1.419 1_455 S
C945 C946 1.363 . S
C945 H948 0.929 . S
C946 C945 1.363 . S
C946 C952 1.428 . S
H947 C943 0.930 . S
H948 C945 0.929 . S
S949 N950 1.617 1_455 S
S949 N951 1.606 . S
N950 S949 1.617 1_655 S
N950 C953 1.350 . S
N951 S949 1.606 . S
N951 C952 1.351 . S
C952 C946 1.428 . S
C952 N951 1.351 . S
C952 C953 1.434 1_455 S
C953 C944 1.429 . S
C953 N950 1.350 . S
C953 C952 1.434 1_655 S
C954 C955 1.369 . S
C954 C956 1.419 1_655 S
C954 H958 0.930 . S
C955 C954 1.369 . S
C955 C964 1.429 . S
C956 C954 1.419 1_455 S
C956 C957 1.363 . S
C956 H959 0.929 . S
C957 C956 1.363 . S
C957 C963 1.428 . S
H958 C954 0.930 . S
H959 C956 0.929 . S
S960 N961 1.617 1_455 S
S960 N962 1.606 . S
N961 S960 1.617 1_655 S
N961 C964 1.350 . S
N962 S960 1.606 . S
N962 C963 1.351 . S
C963 C957 1.428 . S
C963 N962 1.351 . S
C963 C964 1.434 1_455 S
C964 C955 1.429 . S
C964 N961 1.350 . S
C964 C963 1.434 1_655 S
C965 C966 1.369 . S
C965 C967 1.419 . S
C965 H969 0.930 . S
C966 C965 1.369 . S
C966 C975 1.429 . S
C967 C965 1.419 . S
C967 C968 1.363 . S
C967 H970 0.929 . S
C968 C967 1.363 . S
C968 C974 1.428 . S
H969 C965 0.930 . S
H970 C967 0.929 . S
S971 N972 1.613 . S
S971 N973 1.610 . S
N972 S971 1.613 . S
N972 C975 1.350 . S
N973 S971 1.610 . S
N973 C974 1.351 . S
C974 C968 1.428 . S
C974 N973 1.351 . S
C974 C975 1.434 . S
C975 C966 1.429 . S
C975 N972 1.350 . S
C975 C974 1.434 . S
C976 C977 1.369 . S
C976 C978 1.419 . S
C976 H980 0.930 . S
C977 C976 1.369 . S
C977 C986 1.429 . S
C978 C976 1.419 . S
C978 C979 1.363 . S
C978 H981 0.929 . S
C979 C978 1.363 . S
C979 C985 1.428 . S
H980 C976 0.930 . S
H981 C978 0.929 . S
S982 N983 1.613 . S
S982 N984 1.610 . S
N983 S982 1.613 . S
N983 C986 1.350 . S
N984 S982 1.610 . S
N984 C985 1.351 . S
C985 C979 1.428 . S
C985 N984 1.351 . S
C985 C986 1.434 . S
C986 C977 1.429 . S
C986 N983 1.350 . S
C986 C985 1.434 . S
C987 C988 1.369 . S
C987 C989 1.419 . S
C987 H991 0.930 . S
C988 C987 1.369 . S
C988 C997 1.429 . S
C989 C987 1.419 . S
C989 C990 1.363 . S
C989 H992 0.929 . S
C990 C989 1.363 . S
C990 C996 1.428 . S
H991 C987 0.930 . S
H992 C989 0.929 . S
S993 N994 1.613 . S
S993 N995 1.610 . S
N994 S993 1.613 . S
N994 C997 1.350 . S
N995 S993 1.610 . S
N995 C996 1.351 . S
C996 C990 1.428 . S
C996 N995 1.351 . S
C996 C997 1.434 . S
C997 C988 1.429 . S
C997 N994 1.350 . S
C997 C996 1.434 . S
C998 C999 1.369 . S
C998 C1000 1.419 . S
C998 H1002 0.930 . S
C999 C998 1.369 . S
C999 C1008 1.429 . S
C1000 C998 1.419 . S
C1000 C1001 1.363 . S
C1000 H1003 0.929 . S
C1001 C1000 1.363 . S
C1001 C1007 1.428 . S
H1002 C998 0.930 . S
H1003 C1000 0.929 . S
S1004 N1005 1.613 . S
S1004 N1006 1.610 . S
N1005 S1004 1.613 . S
N1005 C1008 1.350 . S
N1006 S1004 1.610 . S
N1006 C1007 1.351 . S
C1007 C1001 1.428 . S
C1007 N1006 1.351 . S
C1007 C1008 1.434 . S
C1008 C999 1.429 . S
C1008 N1005 1.350 . S
C1008 C1007 1.434 . S
C1009 C1010 1.369 . S
C1009 C1011 1.419 . S
C1009 H1013 0.930 . S
C1010 C1009 1.369 . S
C1010 C1019 1.429 . S
C1011 C1009 1.419 . S
C1011 C1012 1.363 . S
C1011 H1014 0.929 . S
C1012 C1011 1.363 . S
C1012 C1018 1.428 . S
H1013 C1009 0.930 . S
H1014 C1011 0.929 . S
S1015 N1016 1.613 . S
S1015 N1017 1.610 . S
N1016 S1015 1.613 . S
N1016 C1019 1.350 . S
N1017 S1015 1.610 . S
N1017 C1018 1.351 . S
C1018 C1012 1.428 . S
C1018 N1017 1.351 . S
C1018 C1019 1.434 . S
C1019 C1010 1.429 . S
C1019 N1016 1.350 . S
C1019 C1018 1.434 . S
C1020 C1021 1.369 . S
C1020 C1022 1.419 . S
C1020 H1024 0.930 . S
C1021 C1020 1.369 . S
C1021 C1030 1.429 . S
C1022 C1020 1.419 . S
C1022 C1023 1.363 . S
C1022 H1025 0.929 . S
C1023 C1022 1.363 . S
C1023 C1029 1.428 . S
H1024 C1020 0.930 . S
H1025 C1022 0.929 . S
S1026 N1027 1.613 . S
S1026 N1028 1.610 . S
N1027 S1026 1.613 . S
N1027 C1030 1.350 . S
N1028 S1026 1.610 . S
N1028 C1029 1.351 . S
C1029 C1023 1.428 . S
C1029 N1028 1.351 . S
C1029 C1030 1.434 . S
C1030 C1021 1.429 . S
C1030 N1027 1.350 . S
C1030 C1029 1.434 . S
C1031 C1032 1.369 . S
C1031 C1033 1.419 . S
C1031 H1035 0.930 . S
C1032 C1031 1.369 . S
C1032 C1041 1.429 . S
C1033 C1031 1.419 . S
C1033 C1034 1.363 . S
C1033 H1036 0.929 . S
C1034 C1033 1.363 . S
C1034 C1040 1.428 . S
H1035 C1031 0.930 . S
H1036 C1033 0.929 . S
S1037 N1038 1.613 . S
S1037 N1039 1.610 . S
N1038 S1037 1.613 . S
N1038 C1041 1.350 . S
N1039 S1037 1.610 . S
N1039 C1040 1.351 . S
C1040 C1034 1.428 . S
C1040 N1039 1.351 . S
C1040 C1041 1.434 . S
C1041 C1032 1.429 . S
C1041 N1038 1.350 . S
C1041 C1040 1.434 . S
C1042 C1043 1.369 . S
C1042 C1044 1.419 . S
C1042 H1046 0.930 . S
C1043 C1042 1.369 . S
C1043 C1052 1.429 . S
C1044 C1042 1.419 . S
C1044 C1045 1.363 . S
C1044 H1047 0.929 . S
C1045 C1044 1.363 . S
C1045 C1051 1.428 . S
H1046 C1042 0.930 . S
H1047 C1044 0.929 . S
S1048 N1049 1.613 . S
S1048 N1050 1.610 . S
N1049 S1048 1.613 . S
N1049 C1052 1.350 . S
N1050 S1048 1.610 . S
N1050 C1051 1.351 . S
C1051 C1045 1.428 . S
C1051 N1050 1.351 . S
C1051 C1052 1.434 . S
C1052 C1043 1.429 . S
C1052 N1049 1.350 . S
C1052 C1051 1.434 . S
C1053 C1054 1.369 . S
C1053 C1055 1.419 . S
C1053 H1057 0.930 . S
C1054 C1053 1.369 . S
C1054 C1063 1.429 . S
C1055 C1053 1.419 . S
C1055 C1056 1.363 . S
C1055 H1058 0.929 . S
C1056 C1055 1.363 . S
C1056 C1062 1.428 . S
H1057 C1053 0.930 . S
H1058 C1055 0.929 . S
S1059 N1060 1.613 . S
S1059 N1061 1.610 . S
N1060 S1059 1.613 . S
N1060 C1063 1.350 . S
N1061 S1059 1.610 . S
N1061 C1062 1.351 . S
C1062 C1056 1.428 . S
C1062 N1061 1.351 . S
C1062 C1063 1.434 . S
C1063 C1054 1.429 . S
C1063 N1060 1.350 . S
C1063 C1062 1.434 . S
C1064 C1065 1.369 . S
C1064 C1066 1.419 . S
C1064 H1068 0.930 . S
C1065 C1064 1.369 . S
C1065 C1074 1.429 . S
C1066 C1064 1.419 . S
C1066 C1067 1.363 . S
C1066 H1069 0.929 . S
C1067 C1066 1.363 . S
C1067 C1073 1.428 . S
H1068 C1064 0.930 . S
H1069 C1066 0.929 . S
S1070 N1071 1.613 . S
S1070 N1072 1.610 . S
N1071 S1070 1.613 . S
N1071 C1074 1.350 . S
N1072 S1070 1.610 . S
N1072 C1073 1.351 . S
C1073 C1067 1.428 . S
C1073 N1072 1.351 . S
C1073 C1074 1.434 . S
C1074 C1065 1.429 . S
C1074 N1071 1.350 . S
C1074 C1073 1.434 . S
C1075 C1076 1.369 . S
C1075 C1077 1.419 . S
C1075 H1079 0.930 . S
C1076 C1075 1.369 . S
C1076 C1085 1.429 . S
C1077 C1075 1.419 . S
C1077 C1078 1.363 . S
C1077 H1080 0.929 . S
C1078 C1077 1.363 . S
C1078 C1084 1.428 . S
H1079 C1075 0.930 . S
H1080 C1077 0.929 . S
S1081 N1082 1.613 . S
S1081 N1083 1.610 . S
N1082 S1081 1.613 . S
N1082 C1085 1.350 . S
N1083 S1081 1.610 . S
N1083 C1084 1.351 . S
C1084 C1078 1.428 . S
C1084 N1083 1.351 . S
C1084 C1085 1.434 . S
C1085 C1076 1.429 . S
C1085 N1082 1.350 . S
C1085 C1084 1.434 . S
C1086 C1087 1.369 . S
C1086 C1088 1.419 . S
C1086 H1090 0.930 . S
C1087 C1086 1.369 . S
C1087 C1096 1.429 . S
C1088 C1086 1.419 . S
C1088 C1089 1.363 . S
C1088 H1091 0.929 . S
C1089 C1088 1.363 . S
C1089 C1095 1.428 . S
H1090 C1086 0.930 . S
H1091 C1088 0.929 . S
S1092 N1093 1.613 . S
S1092 N1094 1.610 . S
N1093 S1092 1.613 . S
N1093 C1096 1.350 . S
N1094 S1092 1.610 . S
N1094 C1095 1.351 . S
C1095 C1089 1.428 . S
C1095 N1094 1.351 . S
C1095 C1096 1.434 . S
C1096 C1087 1.429 . S
C1096 N1093 1.350 . S
C1096 C1095 1.434 . S
C1097 C1098 1.369 . S
C1097 C1099 1.419 . S
C1097 H1101 0.930 . S
C1098 C1097 1.369 . S
C1098 C1107 1.429 . S
C1099 C1097 1.419 . S
C1099 C1100 1.363 . S
C1099 H1102 0.929 . S
C1100 C1099 1.363 . S
C1100 C1106 1.428 . S
H1101 C1097 0.930 . S
H1102 C1099 0.929 . S
S1103 N1104 1.613 . S
S1103 N1105 1.610 . S
N1104 S1103 1.613 . S
N1104 C1107 1.350 . S
N1105 S1103 1.610 . S
N1105 C1106 1.351 . S
C1106 C1100 1.428 . S
C1106 N1105 1.351 . S
C1106 C1107 1.434 . S
C1107 C1098 1.429 . S
C1107 N1104 1.350 . S
C1107 C1106 1.434 . S
C1108 C1109 1.369 . S
C1108 C1110 1.419 . S
C1108 H1112 0.930 . S
C1109 C1108 1.369 . S
C1109 C1118 1.429 . S
C1110 C1108 1.419 . S
C1110 C1111 1.363 . S
C1110 H1113 0.929 . S
C1111 C1110 1.363 . S
C1111 C1117 1.428 . S
H1112 C1108 0.930 . S
H1113 C1110 0.929 . S
S1114 N1115 1.613 . S
S1114 N1116 1.610 . S
N1115 S1114 1.613 . S
N1115 C1118 1.350 . S
N1116 S1114 1.610 . S
N1116 C1117 1.351 . S
C1117 C1111 1.428 . S
C1117 N1116 1.351 . S
C1117 C1118 1.434 . S
C1118 C1109 1.429 . S
C1118 N1115 1.350 . S
C1118 C1117 1.434 . S
C1119 C1120 1.369 . S
C1119 C1121 1.419 . S
C1119 H1123 0.930 . S
C1120 C1119 1.369 . S
C1120 C1129 1.429 . S
C1121 C1119 1.419 . S
C1121 C1122 1.363 . S
C1121 H1124 0.929 . S
C1122 C1121 1.363 . S
C1122 C1128 1.428 . S
H1123 C1119 0.930 . S
H1124 C1121 0.929 . S
S1125 N1126 1.613 . S
S1125 N1127 1.610 . S
N1126 S1125 1.613 . S
N1126 C1129 1.350 . S
N1127 S1125 1.610 . S
N1127 C1128 1.351 . S
C1128 C1122 1.428 . S
C1128 N1127 1.351 . S
C1128 C1129 1.434 . S
C1129 C1120 1.429 . S
C1129 N1126 1.350 . S
C1129 C1128 1.434 . S
C1130 C1131 1.369 . S
C1130 C1132 1.419 . S
C1130 H1134 0.930 . S
C1131 C1130 1.369 . S
C1131 C1140 1.429 . S
C1132 C1130 1.419 . S
C1132 C1133 1.363 . S
C1132 H1135 0.929 . S
C1133 C1132 1.363 . S
C1133 C1139 1.428 . S
H1134 C1130 0.930 . S
H1135 C1132 0.929 . S
S1136 N1137 1.613 . S
S1136 N1138 1.610 . S
N1137 S1136 1.613 . S
N1137 C1140 1.350 . S
N1138 S1136 1.610 . S
N1138 C1139 1.351 . S
C1139 C1133 1.428 . S
C1139 N1138 1.351 . S
C1139 C1140 1.434 . S
C1140 C1131 1.429 . S
C1140 N1137 1.350 . S
C1140 C1139 1.434 . S
C1141 C1142 1.369 . S
C1141 C1143 1.419 . S
C1141 H1145 0.930 . S
C1142 C1141 1.369 . S
C1142 C1151 1.429 . S
C1143 C1141 1.419 . S
C1143 C1144 1.363 . S
C1143 H1146 0.929 . S
C1144 C1143 1.363 . S
C1144 C1150 1.428 . S
H1145 C1141 0.930 . S
H1146 C1143 0.929 . S
S1147 N1148 1.613 . S
S1147 N1149 1.610 . S
N1148 S1147 1.613 . S
N1148 C1151 1.350 . S
N1149 S1147 1.610 . S
N1149 C1150 1.351 . S
C1150 C1144 1.428 . S
C1150 N1149 1.351 . S
C1150 C1151 1.434 . S
C1151 C1142 1.429 . S
C1151 N1148 1.350 . S
C1151 C1150 1.434 . S
C449 C89 1.490 . S
C451 C5 1.491 . S
C460 C19 1.490 . S
C462 C103 1.490 . S
C471 C61 1.491 . S
C473 C33 1.491 . S
C482 C47 1.490 . S
C484 C75 1.491 . S
C493 C117 1.491 . S
C495 C201 1.491 . S
C504 C215 1.491 . S
C506 C131 1.491 . S
C515 C145 1.490 . S
C517 C173 1.491 . S
C526 C187 1.490 . S
C528 C159 1.491 . S
C537 C229 1.491 . S
C539 C313 1.490 . S
C548 C243 1.490 . S
C550 C327 1.491 . S
C559 C285 1.490 . S
C561 C257 1.491 . S
C570 C299 1.490 . S
C572 C271 1.491 . S
C581 C341 1.490 . S
C583 C425 1.491 . S
C592 C355 1.490 . S
C594 C439 1.491 . S
C603 C397 1.491 . S
C605 C369 1.491 . S
C614 C383 1.490 . S
C616 C411 1.491 . S
C625 C11 1.476 1_556 S
C627 C109 1.474 . S
C636 C67 1.474 1_554 S
C638 C25 1.473 . S
C647 C81 1.475 . S
C649 C39 1.473 . S
C658 C53 1.473 . S
C660 C95 1.475 . S
C669 C123 1.476 1_554 S
C671 C221 1.475 . S
C680 C179 1.474 1_556 S
C682 C137 1.475 . S
C691 C193 1.473 . S
C693 C151 1.475 . S
C702 C207 1.476 . S
C704 C165 1.475 . S
C713 C235 1.476 . S
C715 C333 1.474 . S
C724 C249 1.476 . S
C726 C291 1.475 . S
C735 C305 1.476 . S
C737 C263 1.476 1_556 S
C746 C277 1.473 . S
C748 C319 1.473 1_554 S
C757 C347 1.476 . S
C759 C445 1.475 . S
C768 C403 1.473 . S
C770 C361 1.473 . S
C779 C375 1.475 1_554 S
C781 C417 1.476 . S
C790 C389 1.475 . S
C792 C431 1.474 1_556 S
C801 C420 1.492 . S
C803 C0 1.491 . S
C812 C210 1.489 . S
C814 C14 1.489 . S
C823 C28 1.492 . S
C825 C392 1.492 . S
C834 C42 1.487 . S
C836 C182 1.488 . S
C845 C56 1.492 . S
C847 C364 1.491 . S
C856 C70 1.487 . S
C858 C154 1.487 . S
C867 C84 1.490 . S
C869 C336 1.490 . S
C878 C126 1.489 . S
C880 C98 1.489 . S
C889 C308 1.492 . S
C891 C112 1.492 . S
C900 C140 1.491 . S
C902 C280 1.491 . S
C911 C252 1.487 . S
C913 C168 1.487 . S
C922 C224 1.491 . S
C924 C196 1.491 . S
C933 C238 1.491 . S
C935 C434 1.491 . S
C944 C266 1.488 . S
C946 C406 1.489 . S
C955 C294 1.489 . S
C957 C378 1.489 . S
C966 C350 1.491 . S
C968 C322 1.491 . S
C977 C9 1.513 . S
C979 C107 1.513 . S
C988 C23 1.513 . S
C990 C65 1.513 . S
C999 C79 1.513 1_556 S
C1001 C37 1.513 . S
C1010 C51 1.513 1_554 S
C1012 C93 1.513 . S
C1021 C219 1.513 . S
C1023 C121 1.513 . S
C1032 C177 1.513 . S
C1034 C135 1.513 . S
C1043 C149 1.513 . S
C1045 C191 1.513 1_554 S
C1054 C205 1.513 . S
C1056 C163 1.513 1_556 S
C1065 C331 1.513 1_556 S
C1067 C233 1.513 . S
C1076 C289 1.513 . S
C1078 C247 1.513 1_554 S
C1087 C303 1.513 . S
C1089 C261 1.513 . S
C1098 C317 1.513 . S
C1100 C275 1.513 . S
C1109 C345 1.513 . S
C1111 C443 1.513 1_554 S
C1120 C359 1.513 1_556 S
C1122 C401 1.513 . S
C1131 C373 1.513 . S
C1133 C415 1.513 . S
C1142 C429 1.513 . S
C1144 C387 1.513 . S
