# Generated by pormake.
# Topology sxb, (6)-cn, num edge types: 1
# Building blocks:
#     Node 0, Type 0, BuildingBlock: BETDAH_clean_sbu_0, # of connection points: 6
#     Node 1, Type 0, BuildingBlock: BETDAH_clean_sbu_0, # of connection points: 6
#     Node 2, Type 0, BuildingBlock: BETDAH_clean_sbu_0, # of connection points: 6
#     Node 3, Type 0, BuildingBlock: BETDAH_clean_sbu_0, # of connection points: 6
#     Edge 4, Type (0, 0), BuildingBlock: TEMPAE_clean_linker_10, # of connection points: 2
#     Edge 5, Type (0, 0), BuildingBlock: TEMPAE_clean_linker_10, # of connection points: 2
#     Edge 6, Type (0, 0), BuildingBlock: TEMPAE_clean_linker_10, # of connection points: 2
#     Edge 7, Type (0, 0), BuildingBlock: TEMPAE_clean_linker_10, # of connection points: 2
#     Edge 8, Type (0, 0), BuildingBlock: TEMPAE_clean_linker_10, # of connection points: 2
#     Edge 9, Type (0, 0), BuildingBlock: TEMPAE_clean_linker_10, # of connection points: 2
#     Edge 10, Type (0, 0), BuildingBlock: TEMPAE_clean_linker_10, # of connection points: 2
#     Edge 11, Type (0, 0), BuildingBlock: TEMPAE_clean_linker_10, # of connection points: 2
#     Edge 12, Type (0, 0), BuildingBlock: TEMPAE_clean_linker_10, # of connection points: 2
#     Edge 13, Type (0, 0), BuildingBlock: TEMPAE_clean_linker_10, # of connection points: 2
#     Edge 14, Type (0, 0), BuildingBlock: TEMPAE_clean_linker_10, # of connection points: 2
#     Edge 15, Type (0, 0), BuildingBlock: TEMPAE_clean_linker_10, # of connection points: 2
# Relax obj value: 0.413
# Max RMSD: 0.129
# Mean RMSD: 0.083
data_MOF--net-sxb--node1-BETDAH_clean_sbu_0--edge1-TEMPAE_clean_linker_10
_symmetry_space_group_name_H-M    P1
_symmetry_Int_Tables_number       1
_symmetry_cell_setting            triclinic
loop_
_symmetry_equiv_pos_as_xyz
'x, y, z'
_cell_length_a     18.391858
_cell_length_b     35.954584
_cell_length_c     31.011451
_cell_angle_alpha  93.103978
_cell_angle_beta   94.818047
_cell_angle_gamma 71.091033
loop_
_atom_site_label
_atom_site_type_symbol
_atom_site_fract_x
_atom_site_fract_y
_atom_site_fract_z
_atom_type_partial_charge
Ho0 Ho 1.00387 1.03678 0.98034 0.0
Ho1 Ho 0.12594 0.05339 -0.00483 0.0
C2 C 0.98021 0.13474 -0.01457 0.0
C3 C 0.86769 1.03393 -0.00993 0.0
C4 C 0.82408 0.04718 0.02846 0.0
C5 C 0.85685 0.06305 0.06451 0.0
C6 C 0.82153 0.07071 0.10363 0.0
C7 C 0.75167 0.06368 0.10656 0.0
C8 C 0.71751 0.04922 0.06981 0.0
C9 C 0.75377 1.0408 0.03109 0.0
C10 C 1.05986 1.03489 0.90074 0.0
C11 C 0.15193 0.95493 -0.01294 0.0
C12 C 0.26624 0.05356 0.00393 0.0
C13 C 0.32396 1.03386 0.03789 0.0
C14 C 0.40062 1.03195 0.03645 0.0
C15 C 0.45372 1.01595 0.07074 0.0
C16 C 0.43094 1.00164 0.10715 0.0
C17 C 0.35422 1.00269 0.10791 0.0
C18 C 0.30122 1.01841 0.07331 0.0
C19 C 1.06502 0.05539 0.07362 0.0
O20 O 0.94735 0.10681 -0.01065 0.0
O21 O 1.05622 0.11998 -0.01787 0.0
O22 O 0.87975 0.06139 0.96892 0.0
O23 O 0.9301 1.00424 -0.00341 0.0
O24 O 1.03026 1.00997 0.91413 0.0
O25 O 1.05927 0.06067 0.93065 0.0
O26 O 0.18483 0.98322 -0.0056 0.0
O27 O 0.07546 0.96901 0.97989 0.0
O28 O 0.20882 0.08222 0.01799 0.0
O29 O 0.24348 1.0304 0.97614 0.0
O30 O 0.08976 0.08194 0.06003 0.0
O31 O 1.0712 1.02905 0.04402 0.0
H32 H 0.91092 0.06841 0.06264 0.0
H33 H 0.84899 0.08158 0.13153 0.0
H34 H 0.66416 0.04284 0.07159 0.0
H35 H 0.72815 1.02825 0.00374 0.0
H36 H 0.41892 0.04384 0.0095 0.0
H37 H 0.51203 1.01658 0.06961 0.0
H38 H 0.33501 0.99214 0.13549 0.0
H39 H 0.24187 1.01958 0.07474 0.0
Ho40 Ho 0.07447 1.01115 0.48802 0.0
Ho41 Ho 1.01912 0.08234 0.48508 0.0
C42 C 0.86957 0.04596 0.48419 0.0
C43 C 0.1124 0.93725 0.5048 0.0
C44 C 0.0858 0.90516 0.48721 0.0
C45 C 0.09556 0.87257 0.51242 0.0
C46 C 1.06667 0.84276 0.49647 0.0
C47 C 1.02828 0.8453 0.45508 0.0
C48 C 1.02081 0.87744 0.4294 0.0
C49 C 1.04897 0.90736 0.4455 0.0
C50 C 1.05912 1.0297 0.40209 0.0
C51 C 0.22354 0.04789 0.48891 0.0
C52 C 0.98439 0.15638 0.47021 0.0
C53 C 1.02593 0.18375 0.48398 0.0
C54 C 1.02451 0.21383 0.45682 0.0
C55 C 0.07502 0.23536 0.46631 0.0
C56 C 0.12736 0.22674 0.50298 0.0
C57 C 0.12508 0.19824 0.53147 0.0
C58 C 0.07503 0.17669 0.5219 0.0
C59 C 1.03697 0.06264 0.57076 0.0
O60 O 0.93607 1.01449 0.48873 0.0
O61 O 0.88869 0.07867 0.47932 0.0
O62 O 0.14675 0.95131 0.47798 0.0
O63 O 1.06311 0.96487 0.52632 0.0
O64 O 0.12023 1.00711 0.42219 0.0
O65 O 1.00768 0.04308 0.42895 0.0
O66 O 0.15697 0.07861 0.48088 0.0
O67 O 0.20423 1.01597 0.49743 0.0
O68 O 0.95742 0.14296 0.50119 0.0
O69 O 1.0194 0.1286 0.44321 0.0
O70 O 0.97421 0.08422 0.55107 0.0
O71 O 0.08764 0.05046 0.54342 0.0
H72 H 0.12402 0.8706 0.54466 0.0
H73 H 0.07273 0.81817 0.51676 0.0
H74 H 0.99018 0.88026 0.39771 0.0
H75 H 1.04065 0.93259 0.42577 0.0
H76 H 0.98733 0.21924 0.42724 0.0
H77 H 0.07639 0.25699 0.44367 0.0
H78 H 0.16444 0.19141 0.56012 0.0
H79 H 0.07736 0.15325 0.54308 0.0
Ho80 Ho 0.50948 0.53914 0.97708 0.0
Ho81 Ho 0.63412 0.55059 -0.01213 0.0
C82 C 0.47821 0.63395 -0.01406 0.0
C83 C 0.38779 0.51942 0.95911 0.0
C84 C 0.33284 0.53427 0.92179 0.0
C85 C 0.31143 0.50789 0.89254 0.0
C86 C 0.26685 0.52145 0.85429 0.0
C87 C 0.24322 0.56159 0.84475 0.0
C88 C 0.26704 0.58767 0.87331 0.0
C89 C 0.31146 0.57417 0.91139 0.0
C90 C 0.55208 0.55436 0.89791 0.0
C91 C 0.66 0.45634 -0.01598 0.0
C92 C 0.74725 0.57453 0.97374 0.0
C93 C 0.77635 0.57452 0.93103 0.0
C94 C 0.72498 0.5845 0.89386 0.0
C95 C 0.7525 0.57896 0.85252 0.0
C96 C 0.83178 0.56311 0.84782 0.0
C97 C 0.88292 0.55443 0.88524 0.0
C98 C 0.85543 0.55988 0.92636 0.0
C99 C 0.59981 0.5372 0.06936 0.0
O100 O 0.44455 0.60667 -0.01046 0.0
O101 O 0.55416 0.61826 -0.01889 0.0
O102 O 0.45552 0.49745 0.94849 0.0
O103 O 0.39201 0.54493 -0.01002 0.0
O104 O 0.48927 0.5739 0.91516 0.0
O105 O 0.59257 0.53013 0.92523 0.0
O106 O 0.69112 0.4827 0.97241 0.0
O107 O 0.58743 0.47344 -0.00466 0.0
O108 O 0.7574 0.5399 -0.01141 0.0
O109 O 0.67808 0.59839 0.9787 0.0
O110 O 0.66657 0.52387 0.05388 0.0
O111 O 0.55266 0.55827 0.04117 0.0
H112 H 0.32923 0.47685 0.89928 0.0
H113 H 0.24768 0.50091 0.83324 0.0
H114 H 0.24875 0.6188 0.8669 0.0
H115 H 0.32911 0.59507 0.93261 0.0
H116 H 0.66338 0.59585 0.89667 0.0
H117 H 0.71201 0.58637 0.82439 0.0
H118 H 0.94473 0.5435 0.88281 0.0
H119 H 0.89586 0.55186 0.95446 0.0
Ho120 Ho 0.61423 0.50875 0.48546 0.0
Ho121 Ho 0.55633 0.58111 0.48266 0.0
C122 C 0.40822 0.54386 0.48369 0.0
C123 C 0.65597 0.43455 0.50159 0.0
C124 C 0.61849 0.40448 0.49864 0.0
C125 C 0.64349 0.37347 0.52744 0.0
C126 C 0.603 0.34681 0.52804 0.0
C127 C 0.53752 0.35096 0.49962 0.0
C128 C 0.51429 0.3813 0.46978 0.0
C129 C 0.55435 0.40807 0.46943 0.0
C130 C 0.60413 0.5306 0.40091 0.0
C131 C 0.76172 0.54574 0.48514 0.0
C132 C 0.51949 0.65375 0.46149 0.0
C133 C 0.56 0.67207 0.43524 0.0
C134 C 0.61305 0.64864 0.40674 0.0
C135 C 0.66258 0.66408 0.38779 0.0
C136 C 0.65955 0.70312 0.39715 0.0
C137 C 0.60231 0.72731 0.42303 0.0
C138 C 0.55293 0.71176 0.44213 0.0
C139 C 0.56443 0.56031 0.56723 0.0
O140 O 0.47512 0.5122 0.48557 0.0
O141 O 0.42655 0.57722 0.48187 0.0
O142 O 0.66469 0.44808 0.465 0.0
O143 O 0.63075 0.46241 0.53054 0.0
O144 O 0.66651 0.50971 0.42171 0.0
O145 O 0.551 0.54098 0.42674 0.0
O146 O 0.6947 0.57563 0.47449 0.0
O147 O 0.74294 0.51434 0.49602 0.0
O148 O 0.55571 0.64067 0.49835 0.0
O149 O 0.49184 0.62833 0.44068 0.0
O150 O 0.50324 0.58228 0.54629 0.0
O151 O 0.61837 0.54894 0.54176 0.0
H152 H 0.69283 0.3706 0.55027 0.0
H153 H 0.62165 0.32354 0.55126 0.0
H154 H 0.46311 0.38539 0.4481 0.0
H155 H 0.53393 0.43219 0.44731 0.0
H156 H 0.61911 0.61781 0.40101 0.0
H157 H 0.70612 0.64495 0.36792 0.0
H158 H 0.59959 0.75738 0.43127 0.0
H159 H 0.51242 0.73007 0.46417 0.0
C160 C 0.45703 0.71037 0.96868 0.0
C161 C 0.43113 0.68121 -0.01369 0.0
C162 C 0.41396 0.75277 0.96771 0.0
C163 C 0.34048 0.77072 -0.01342 0.0
C164 C 0.31504 0.74129 0.00532 0.0
C165 C 0.35783 0.69888 0.00404 0.0
C166 C 0.4491 0.77803 0.94497 0.0
C167 C 0.24148 0.75391 0.02816 0.0
C168 C 0.27591 0.89096 0.00767 0.0
C169 C 0.20043 0.90783 -0.01307 0.0
C170 C 0.31926 0.8486 0.00865 0.0
C171 C 0.29192 0.81842 -0.01335 0.0
C172 C 0.21623 0.83558 0.96475 0.0
C173 C 0.17289 0.87794 0.96602 0.0
C174 C 0.39553 0.83687 0.03481 0.0
C175 C 0.17876 0.80948 0.93836 0.0
H176 H 0.51189 0.69994 0.95417 0.0
H177 H 0.33326 0.67923 0.01832 0.0
H178 H 0.40622 0.80636 0.93486 0.0
H179 H 0.49487 0.78413 0.96702 0.0
H180 H 0.47693 0.76221 0.91586 0.0
H181 H 0.24795 0.73609 0.05726 0.0
H182 H 0.22356 0.78544 0.03836 0.0
H183 H 0.19498 0.74846 0.00618 0.0
H184 H 0.30182 0.9112 0.02463 0.0
H185 H 0.11626 0.88773 0.94913 0.0
H186 H 0.43969 0.84166 0.01552 0.0
H187 H 0.41461 0.80567 0.04422 0.0
H188 H 0.39231 0.8557 0.06467 0.0
H189 H 0.22073 0.78087 0.92893 0.0
H190 H 0.14793 0.82435 0.9085 0.0
H191 H 0.13508 0.80398 0.95747 0.0
C192 C 0.68904 0.3815 0.01044 0.0
C193 C 0.70606 0.40899 -0.01556 0.0
C194 C 0.73184 0.33907 0.01178 0.0
C195 C 0.795 0.3193 -0.01511 0.0
C196 C 0.81097 0.34701 0.95775 0.0
C197 C 0.76949 0.38956 0.95869 0.0
C198 C 0.70813 0.31586 0.04372 0.0
C199 C 0.87221 0.3323 0.92593 0.0
C200 C 0.96646 0.21216 -0.00336 0.0
C201 C 0.93259 0.18192 -0.01468 0.0
C202 C 0.92435 0.25466 -0.00227 0.0
C203 C 0.84273 0.27151 -0.01484 0.0
C204 C 0.80864 0.24092 0.97274 0.0
C205 C 0.85167 0.19854 0.97397 0.0
C206 C 0.97003 0.28129 0.01366 0.0
C207 C 0.72495 0.25217 0.95685 0.0
H208 H 0.64208 0.39335 0.03135 0.0
H209 H 0.78667 0.40785 0.93765 0.0
H210 H 0.65566 0.30944 0.02998 0.0
H211 H 0.75381 0.28775 0.0517 0.0
H212 H 0.69303 0.33339 0.0742 0.0
H213 H 0.85366 0.34842 0.89525 0.0
H214 H 0.9252 0.33826 0.93955 0.0
H215 H 0.88622 0.30036 0.91828 0.0
H216 H 1.02763 0.20259 0.00602 0.0
H217 H 0.82068 0.17802 0.9647 0.0
H218 H 0.93306 0.31068 0.02467 0.0
H219 H 1.00386 0.28495 -0.01285 0.0
H220 H 1.01188 0.26778 0.04088 0.0
H221 H 0.69099 0.24897 -0.01649 0.0
H222 H 0.71648 0.23201 0.9299 0.0
H223 H 0.70184 0.28279 0.94548 0.0
C224 C 0.17532 0.2841 0.50337 0.0
C225 C 0.19015 0.24387 0.50868 0.0
C226 C 0.23595 0.29974 0.50495 0.0
C227 C 0.31262 0.2743 0.51178 0.0
C228 C 0.32769 0.23388 0.5184 0.0
C229 C 0.26608 0.21908 0.51661 0.0
C230 C 0.21821 0.34315 0.49805 0.0
C231 C 0.40883 0.20601 0.52556 0.0
C232 C 0.46171 0.30951 0.46655 0.0
C233 C 0.48869 0.32633 0.5036 0.0
C234 C 0.40622 0.29099 0.46908 0.0
C235 C 0.37714 0.28974 0.50959 0.0
C236 C 0.40681 0.30509 0.54744 0.0
C237 C 0.46268 0.32322 0.54398 0.0
C238 C 0.37641 0.27429 0.4282 0.0
C239 C 0.37692 0.30405 0.5911 0.0
H240 H 0.11644 0.30317 0.49745 0.0
H241 H 0.27758 0.18777 0.51987 0.0
H242 H 0.24546 0.35657 0.52512 0.0
H243 H 0.2427 0.34738 0.46789 0.0
H244 H 0.15529 0.35917 0.49552 0.0
H245 H 0.40984 0.17641 0.53474 0.0
H246 H 0.43907 0.20289 0.49543 0.0
H247 H 0.4417 0.21779 0.5513 0.0
H248 H 0.48261 0.31181 0.43545 0.0
H249 H 0.4832 0.33669 0.57251 0.0
H250 H 0.31477 0.29116 0.42081 0.0
H251 H 0.38016 0.2433 0.4327 0.0
H252 H 0.40885 0.27537 0.39991 0.0
H253 H 0.31581 0.32301 0.59106 0.0
H254 H 0.41047 0.31445 0.61776 0.0
H255 H 0.37884 0.27374 0.59783 0.0
C256 C 0.9955 0.79973 0.399 0.0
C257 C 0.9879 0.81719 0.44061 0.0
C258 C 0.95016 0.77649 0.38359 0.0
C259 C 0.89535 0.77166 0.41019 0.0
C260 C 0.88957 0.78815 0.45277 0.0
C261 C 0.93627 0.81064 0.46752 0.0
C262 C 0.95997 0.75753 0.33895 0.0
C263 C 0.83295 0.7827 0.4825 0.0
C264 C 0.70905 0.75486 0.37331 0.0
C265 C 0.72373 0.71663 0.38735 0.0
C266 C 0.76764 0.77198 0.37616 0.0
C267 C 0.84184 0.75033 0.39395 0.0
C268 C 0.85873 0.7104 0.40408 0.0
C269 C 0.79935 0.69381 0.40005 0.0
C270 C 0.74782 0.8146 0.36479 0.0
C271 C 0.93752 0.68578 0.42221 0.0
H272 H 1.03622 0.80467 0.37849 0.0
H273 H 0.93016 0.82448 0.49955 0.0
H274 H 0.97347 0.72525 0.34113 0.0
H275 H 0.90533 0.76859 0.3185 0.0
H276 H 1.00663 0.76339 0.32275 0.0
H277 H 0.83621 0.79738 0.51473 0.0
H278 H 0.77332 0.79483 0.46765 0.0
H279 H 0.84438 0.75088 0.48726 0.0
H280 H 0.65064 0.77223 0.36296 0.0
H281 H 0.81089 0.66409 0.41075 0.0
H282 H 0.79366 0.81903 0.34662 0.0
H283 H 0.74348 0.83295 0.39502 0.0
H284 H 0.69208 0.82518 0.34513 0.0
H285 H 0.97196 0.6705 0.39497 0.0
H286 H 0.93319 0.66312 0.44391 0.0
H287 H 0.96969 0.70344 0.4407 0.0
C288 C 0.56376 0.97142 0.13904 0.0
C289 C 0.4862 0.99062 0.14557 0.0
C290 C 0.62098 0.9796 0.16669 0.0
C291 C 0.59834 1.00836 0.20066 0.0
C292 C 0.52402 1.01571 0.21528 0.0
C293 C 0.46675 1.0081 0.18647 0.0
C294 C 0.70302 0.96238 0.1543 0.0
C295 C 0.50272 1.03624 0.25825 0.0
C296 C 0.75454 0.0449 0.18323 0.0
C297 C 0.7157 0.06784 0.14802 0.0
C298 C 0.71226 1.03266 0.2121 0.0
C299 C 0.63191 1.04133 0.20268 0.0
C300 C 0.59349 0.07398 0.17598 0.0
C301 C 0.63643 0.08633 0.14817 0.0
C302 C 0.75426 1.00673 0.24888 0.0
C303 C 0.50705 0.09195 0.17071 0.0
H304 H 0.57924 0.95455 0.10919 0.0
H305 H 0.40686 1.02025 0.19374 0.0
H306 H 0.74328 0.9545 0.18342 0.0
H307 H 0.71116 0.93534 0.13358 0.0
H308 H 0.71812 0.98389 0.13554 0.0
H309 H 0.49775 1.01443 0.28087 0.0
H310 H 0.54678 0.04912 0.27279 0.0
H311 H 0.44557 0.05945 0.25507 0.0
H312 H 0.8168 1.03256 0.18509 0.0
H313 H 0.60704 0.10658 0.12278 0.0
H314 H 0.71744 0.99217 0.26314 0.0
H315 H 0.7726 1.02517 0.2746 0.0
H316 H 0.80751 0.98428 0.23819 0.0
H317 H 0.48263 0.07323 0.14835 0.0
H318 H 0.48974 0.12155 0.15652 0.0
H319 H 0.48144 0.09531 0.20228 0.0
C320 C 0.34591 0.07615 0.46742 0.0
C321 C 0.31799 0.04839 0.48839 0.0
C322 C 0.42857 0.0756 0.46561 0.0
C323 C 0.49845 0.04734 0.48676 0.0
C324 C 0.47017 1.0198 0.5089 0.0
C325 C 0.38736 1.02018 0.50848 0.0
C326 C 0.43917 0.10656 0.43839 0.0
C327 C 0.52802 0.98859 0.5357 0.0
C328 C 0.74491 1.01302 0.47388 0.0
C329 C 0.77511 0.04557 0.48484 0.0
C330 C 0.662 1.01331 0.47326 0.0
C331 C 0.59459 0.04666 0.48599 0.0
C332 C 0.62537 0.07933 0.4981 0.0
C333 C 0.70801 0.07861 0.49636 0.0
C334 C 0.64809 0.97592 0.4568 0.0
C335 C 0.57071 0.11712 0.515 0.0
H336 H 0.30156 0.09934 0.45042 0.0
H337 H 0.3772 0.99721 0.52587 0.0
H338 H 0.4237 0.13501 0.45688 0.0
H339 H 0.49909 0.09908 0.42877 0.0
H340 H 0.39972 0.11079 0.4086 0.0
H341 H 0.54221 0.96018 0.51717 0.0
H342 H 0.58179 0.99571 0.54465 0.0
H343 H 0.50323 0.98454 0.56587 0.0
H344 H 0.78734 0.98577 0.46409 0.0
H345 H 0.72012 0.10558 0.5057 0.0
H346 H 0.58677 0.98058 0.4461 0.0
H347 H 0.66607 0.95416 0.48288 0.0
H348 H 0.68379 0.96296 0.42919 0.0
H349 H 0.55303 0.13866 0.48872 0.0
H350 H 0.5996 0.12998 0.54187 0.0
H351 H 0.51869 0.11299 0.52687 0.0
C352 C 0.9298 0.52566 0.79826 0.0
C353 C 0.86408 0.55782 0.80491 0.0
C354 C 0.98711 0.52976 0.7739 0.0
C355 C 0.97583 0.56673 0.75542 0.0
C356 C 0.89935 0.59246 0.74924 0.0
C357 C 0.84408 0.58895 0.77613 0.0
C358 C 1.06353 0.49718 0.77539 0.0
C359 C 0.87917 0.62669 0.71957 0.0
C360 C 0.11101 0.60334 0.82565 0.0
C361 C 0.17946 0.57708 0.81165 0.0
C362 C 1.04092 0.60705 0.80238 0.0
C363 C 1.04013 0.58372 0.76373 0.0
C364 C 0.11069 0.56563 0.74436 0.0
C365 C 0.18033 0.5608 0.76951 0.0
C366 C 0.9689 0.6316 0.82339 0.0
C367 C 0.11312 0.54848 0.69887 0.0
H368 H 0.94181 0.49983 0.81762 0.0
H369 H 0.79023 0.61276 0.77833 0.0
H370 H 0.08534 0.49099 0.7427 0.0
H371 H 0.10613 0.50588 0.79761 0.0
H372 H 1.05898 0.46943 0.78716 0.0
H373 H 0.84424 0.65416 0.73588 0.0
H374 H 0.93105 0.63099 0.70761 0.0
H375 H 0.84292 0.62093 0.69121 0.0
H376 H 0.11092 0.61728 0.85758 0.0
H377 H 0.2343 0.54233 0.75742 0.0
H378 H 0.94193 0.61213 0.83764 0.0
H379 H 0.9273 0.65067 0.79955 0.0
H380 H 0.98132 0.65114 0.84998 0.0
H381 H 0.15404 0.518 0.698 0.0
H382 H 0.13537 0.56609 0.67826 0.0
H383 H 1.05553 0.54878 0.68457 0.0
C384 C 0.28544 0.50939 0.47979 0.0
C385 C 0.3137 0.5432 0.48382 0.0
C386 C 0.20265 0.50938 0.47926 0.0
C387 C 0.13303 0.54414 0.48369 0.0
C388 C 0.16151 0.57827 0.48873 0.0
C389 C 0.24446 0.57736 0.48806 0.0
C390 C 0.19135 0.46978 0.47331 0.0
C391 C 0.10395 0.61821 0.49672 0.0
C392 C 0.88856 0.56515 0.45409 0.0
C393 C 0.85623 0.54628 0.48474 0.0
C394 C 0.97181 0.56386 0.45266 0.0
C395 C 1.03696 0.54477 0.48392 0.0
C396 C 1.00451 0.52591 0.51513 0.0
C397 C 0.92172 0.52617 0.51448 0.0
C398 C 0.99075 0.58086 0.41348 0.0
C399 C 1.05811 0.50419 0.55146 0.0
H400 H 0.32962 0.48109 0.47641 0.0
H401 H 0.25479 0.60539 0.49182 0.0
H402 H 0.20374 0.45517 0.50495 0.0
H403 H 0.13175 0.47202 0.46088 0.0
H404 H 0.23226 0.45067 0.45064 0.0
H405 H 0.09823 0.63656 0.46819 0.0
H406 H 1.04634 0.61695 0.50304 0.0
H407 H 0.12532 0.63319 0.52484 0.0
H408 H 0.84785 0.58062 0.42861 0.0
H409 H 0.90818 0.51006 0.53947 0.0
H410 H 1.03281 0.59662 0.42199 0.0
H411 H 0.93856 0.60106 0.39643 0.0
H412 H 1.01781 0.55638 0.39063 0.0
H413 H 0.07807 0.47232 0.54276 0.0
H414 H 1.02766 0.50794 0.58165 0.0
H415 H 0.10917 0.5142 0.55801 0.0
C416 C 0.11512 1.01512 0.32916 0.0
C417 C 1.05088 1.03346 0.35336 0.0
C418 C 0.11199 1.01812 0.28369 0.0
C419 C 1.04264 1.04 0.26064 0.0
C420 C 0.97685 0.05813 0.28473 0.0
C421 C 0.98182 0.05486 0.33056 0.0
C422 C 0.18397 0.99826 0.26032 0.0
C423 C 0.90137 0.08195 0.2624 0.0
C424 C 1.06755 0.0797 0.15162 0.0
C425 C 1.05459 0.05177 0.12096 0.0
C426 C 1.0616 0.07682 0.19646 0.0
C427 C 1.04134 0.04535 0.21203 0.0
C428 C 1.0254 1.01775 0.18107 0.0
C429 C 1.03275 1.02107 0.13623 0.0
C430 C 0.07874 0.10725 0.22743 0.0
C431 C 1.00177 0.98421 0.19543 0.0
H432 H 0.16902 0.99849 0.34597 0.0
H433 H 0.93165 0.06928 0.34849 0.0
H434 H 0.17237 0.97799 0.23441 0.0
H435 H 0.20165 1.02065 0.24455 0.0
H436 H 0.23279 0.9813 0.2824 0.0
H437 H 0.85213 0.08484 0.28222 0.0
H438 H 0.90319 0.11188 0.25701 0.0
H439 H 0.89096 0.06864 0.23035 0.0
H440 H 0.08386 0.10379 0.14061 0.0
H441 H 1.02162 0.9995 0.11313 0.0
H442 H 0.12948 0.09295 0.2497 0.0
H443 H 1.02928 0.12091 0.24755 0.0
H444 H 0.09072 0.13082 0.21041 0.0
H445 H 1.0516 0.96298 0.21312 0.0
H446 H 0.98141 0.96843 0.16766 0.0
H447 H 0.95525 0.99516 0.21806 0.0
C448 C 1.05484 1.01018 0.82301 0.0
C449 C 1.0662 1.03902 0.85296 0.0
C450 C 1.05553 1.01363 0.7778 0.0
C451 C 1.06836 0.04677 0.76103 0.0
C452 C 0.08184 0.07562 0.79112 0.0
C453 C 0.0805 0.07148 0.83643 0.0
C454 C 1.04042 0.98205 0.7478 0.0
C455 C 0.09624 0.11137 0.77535 0.0
C456 C 0.11939 1.03945 0.64116 0.0
C457 C 1.04778 0.05871 0.61941 0.0
C458 C 0.12753 1.03611 0.687 0.0
C459 C 1.06261 0.05211 0.71222 0.0
C460 C 0.99049 0.07173 0.69021 0.0
C461 C 0.98414 0.07481 0.64464 0.0
C462 C 0.20573 1.01509 0.70847 0.0
C463 C 0.91916 0.08906 0.71482 0.0
H464 H 1.04404 0.98481 0.83495 0.0
H465 H 0.08951 0.09401 0.85888 0.0
H466 H 0.9865 0.99479 0.72722 0.0
H467 H 0.08779 0.97031 0.72585 0.0
H468 H 1.03482 0.95726 0.76565 0.0
H469 H 0.1109 0.1298 0.80243 0.0
H470 H 0.14397 0.10232 0.7534 0.0
H471 H 1.04414 0.12957 0.75644 0.0
H472 H 0.16915 1.02691 0.62237 0.0
H473 H 0.92836 0.08974 0.62859 0.0
H474 H 0.204 0.98855 0.72445 0.0
H475 H 0.22166 1.03441 0.73406 0.0
H476 H 0.25127 1.00596 0.68507 0.0
H477 H 0.90679 0.06543 0.73143 0.0
H478 H 0.86777 0.10437 0.69341 0.0
H479 H 0.92868 0.1103 0.74018 0.0
C480 C 0.53072 0.53226 0.3271 0.0
C481 C 0.59558 0.53547 0.35249 0.0
C482 C 0.52632 0.5333 0.28114 0.0
C483 C 0.5867 0.53938 0.2595 0.0
C484 C 0.65072 0.54431 0.28538 0.0
C485 C 0.65511 0.54141 0.33103 0.0
C486 C 0.45818 0.52637 0.25561 0.0
C487 C 0.71534 0.55244 0.26483 0.0
C488 C 0.62693 0.50388 0.1413 0.0
C489 C 0.58999 0.53779 0.11732 0.0
C490 C 0.62354 0.50367 0.18679 0.0
C491 C 0.58506 0.53874 0.21009 0.0
C492 C 0.54774 0.57322 0.18596 0.0
C493 C 0.54937 0.57215 0.14008 0.0
C494 C 0.66195 0.4657 0.21001 0.0
C495 C 0.50849 0.61175 0.20881 0.0
H496 H 0.48465 0.52728 0.3431 0.0
H497 H 0.70531 0.5442 0.35016 0.0
H498 H 0.42882 0.55139 0.23426 0.0
H499 H 0.47833 0.49968 0.23442 0.0
H500 H 0.41564 0.52243 0.27684 0.0
H501 H 0.75644 0.55999 0.28927 0.0
H502 H 0.74753 0.52617 0.24572 0.0
H503 H 0.69171 0.57704 0.24218 0.0
H504 H 0.65852 0.47714 0.12425 0.0
H505 H 0.52153 0.59872 0.12221 0.0
H506 H 0.62117 0.45976 0.23098 0.0
H507 H 0.71184 0.46817 0.23127 0.0
H508 H 0.68269 0.44023 0.18718 0.0
H509 H 0.46327 0.6087 0.22852 0.0
H510 H 0.48173 0.63589 0.18584 0.0
H511 H 0.55109 0.62014 0.23137 0.0
C512 C 0.63603 0.55741 0.64192 0.0
C513 C 0.57094 0.55568 0.61568 0.0
C514 C 0.6381 0.55681 0.68788 0.0
C515 C 0.57492 0.55277 0.70862 0.0
C516 C 0.51044 0.54948 0.68192 0.0
C517 C 0.50859 0.55187 0.63632 0.0
C518 C 0.7066 0.56236 0.71434 0.0
C519 C 0.44272 0.54358 0.70153 0.0
C520 C 0.60306 0.51937 0.82752 0.0
C521 C 0.56332 0.55399 0.85015 0.0
C522 C 0.60763 0.51849 0.7819 0.0
C523 C 0.57445 0.55339 0.75793 0.0
C524 C 0.53733 0.58874 0.78118 0.0
C525 C 0.53079 0.58841 0.8264 0.0
C526 C 0.64558 0.47974 0.7591 0.0
C527 C 0.50385 0.62716 0.75821 0.0
H528 H 0.68416 0.56093 0.62661 0.0
H529 H 0.45801 0.55041 0.61657 0.0
H530 H 0.68753 0.59009 0.73396 0.0
H531 H 0.73161 0.53811 0.73726 0.0
H532 H 0.75233 0.56376 0.69384 0.0
H533 H 0.40061 0.53765 0.67655 0.0
H534 H 0.46297 0.51865 0.72392 0.0
H535 H 0.41258 0.57021 0.72078 0.0
H536 H 0.62808 0.49251 0.84526 0.0
H537 H 0.50048 0.61543 0.8434 0.0
H538 H 0.6935 0.48175 0.74091 0.0
H539 H 0.60324 0.47265 0.73518 0.0
H540 H 0.6686 0.45522 0.78194 0.0
H541 H 0.54724 0.63186 0.73821 0.0
H542 H 0.48444 0.65264 0.78117 0.0
H543 H 0.45386 0.62627 0.73604 0.0
loop_
_geom_bond_atom_site_label_1
_geom_bond_atom_site_label_2
_geom_bond_distance
_geom_bond_site_symmetry_2
_ccdc_geom_bond_type
Ho0 C3 2.811 . S
Ho0 O20 2.322 1_565 S
Ho0 O22 2.378 . S
Ho0 O23 2.524 1_566 S
Ho0 O24 2.381 . S
Ho0 O25 2.678 1_655 S
Ho0 O27 2.346 1_655 S
Ho0 O31 2.290 1_566 S
Ho1 C12 2.811 . S
Ho1 O21 2.346 1_455 S
Ho1 O25 2.296 1_544 S
Ho1 O26 2.322 1_545 S
Ho1 O28 2.378 . S
Ho1 O29 2.524 1_544 S
Ho1 O30 2.381 . S
Ho1 O31 2.686 1_455 S
C2 O20 1.259 . S
C2 O21 1.268 1_556 S
C3 Ho0 2.811 . S
C3 C4 1.488 1_565 S
C3 O22 1.214 . S
C3 O23 1.290 1_566 S
C4 C3 1.488 1_545 S
C4 C5 1.348 1_556 S
C4 C9 1.413 . S
C5 C4 1.348 1_554 S
C5 C6 1.442 . S
C5 H32 0.930 . S
C6 C5 1.442 . S
C6 C7 1.381 1_554 S
C6 H33 0.931 . S
C7 C6 1.381 1_556 S
C7 C8 1.321 . S
C8 C7 1.321 . S
C8 C9 1.403 . S
C8 H34 0.934 . S
C9 C4 1.413 . S
C9 C8 1.403 . S
C9 H35 0.930 . S
C10 O24 1.275 . S
C10 O25 1.260 1_655 S
C11 O26 1.259 . S
C11 O27 1.268 1_554 S
C12 Ho1 2.811 . S
C12 C13 1.488 1_545 S
C12 O28 1.218 . S
C12 O29 1.286 1_544 S
C13 C12 1.488 1_565 S
C13 C14 1.348 1_554 S
C13 C18 1.413 . S
C14 C13 1.348 1_556 S
C14 C15 1.442 . S
C14 H36 0.930 . S
C15 C14 1.442 . S
C15 C16 1.381 1_556 S
C15 H37 0.931 . S
C16 C15 1.381 1_554 S
C16 C17 1.321 . S
C17 C16 1.321 . S
C17 C18 1.403 . S
C17 H38 0.934 . S
C18 C13 1.413 . S
C18 C17 1.403 . S
C18 H39 0.930 . S
C19 O30 1.275 . S
C19 O31 1.264 1_455 S
O20 Ho0 2.322 1_545 S
O20 C2 1.259 . S
O21 Ho1 2.346 1_655 S
O21 C2 1.268 1_554 S
O22 Ho0 2.378 . S
O22 C3 1.214 . S
O23 Ho0 2.524 1_544 S
O23 C3 1.290 1_544 S
O24 Ho0 2.381 . S
O24 C10 1.275 . S
O25 Ho0 2.678 1_455 S
O25 Ho1 2.296 1_566 S
O25 C10 1.260 1_455 S
O26 Ho1 2.322 1_565 S
O26 C11 1.259 . S
O27 Ho0 2.346 1_455 S
O27 C11 1.268 1_556 S
O28 Ho1 2.378 . S
O28 C12 1.218 . S
O29 Ho1 2.524 1_566 S
O29 C12 1.286 1_566 S
O30 Ho1 2.381 . S
O30 C19 1.275 . S
O31 Ho0 2.290 1_544 S
O31 Ho1 2.686 1_655 S
O31 C19 1.264 1_655 S
H32 C5 0.930 . S
H33 C6 0.931 . S
H34 C8 0.934 . S
H35 C9 0.930 . S
H36 C14 0.930 . S
H37 C15 0.931 . S
H38 C17 0.934 . S
H39 C18 0.930 . S
Ho40 C43 2.811 1_455 S
Ho40 O60 2.322 1_455 S
Ho40 O62 2.378 1_455 S
Ho40 O63 2.524 1_455 S
Ho40 O64 2.381 . S
Ho40 O65 2.669 1_565 S
Ho40 O67 2.346 . S
Ho40 O71 2.305 1_455 S
Ho41 C52 2.811 1_655 S
Ho41 O61 2.346 . S
Ho41 O65 2.305 1_655 S
Ho41 O66 2.322 1_655 S
Ho41 O68 2.378 1_655 S
Ho41 O69 2.524 1_655 S
Ho41 O70 2.381 . S
Ho41 O71 2.669 1_545 S
C42 O60 1.259 1_545 S
C42 O61 1.268 . S
C43 Ho40 2.811 1_655 S
C43 C44 1.488 . S
C43 O62 1.215 . S
C43 O63 1.289 . S
C44 C43 1.488 . S
C44 C45 1.348 . S
C44 C49 1.413 . S
C45 C44 1.348 . S
C45 C46 1.442 . S
C45 H72 0.930 . S
C46 C45 1.442 . S
C46 C47 1.381 . S
C46 H73 0.931 . S
C47 C46 1.381 . S
C47 C48 1.321 . S
C48 C47 1.321 . S
C48 C49 1.403 . S
C48 H74 0.934 . S
C49 C44 1.413 . S
C49 C48 1.403 . S
C49 H75 0.930 . S
C50 O64 1.275 . S
C50 O65 1.256 1_565 S
C51 O66 1.259 1_565 S
C51 O67 1.268 . S
C52 Ho41 2.811 1_455 S
C52 C53 1.488 . S
C52 O68 1.215 . S
C52 O69 1.289 . S
C53 C52 1.488 . S
C53 C54 1.348 . S
C53 C58 1.413 . S
C54 C53 1.348 . S
C54 C55 1.442 . S
C54 H76 0.930 . S
C55 C54 1.442 . S
C55 C56 1.381 . S
C55 H77 0.931 . S
C56 C55 1.381 . S
C56 C57 1.321 . S
C57 C56 1.321 . S
C57 C58 1.403 . S
C57 H78 0.934 . S
C58 C53 1.413 . S
C58 C57 1.403 . S
C58 H79 0.930 . S
C59 O70 1.271 . S
C59 O71 1.258 1_545 S
O60 Ho40 2.322 1_655 S
O60 C42 1.259 1_565 S
O61 Ho41 2.346 . S
O61 C42 1.268 . S
O62 Ho40 2.378 1_655 S
O62 C43 1.215 . S
O63 Ho40 2.524 1_655 S
O63 C43 1.289 . S
O64 Ho40 2.381 . S
O64 C50 1.275 . S
O65 Ho40 2.669 1_545 S
O65 Ho41 2.305 1_455 S
O65 C50 1.256 1_545 S
O66 Ho41 2.322 1_455 S
O66 C51 1.259 1_545 S
O67 Ho40 2.346 . S
O67 C51 1.268 . S
O68 Ho41 2.378 1_455 S
O68 C52 1.215 . S
O69 Ho41 2.524 1_455 S
O69 C52 1.289 . S
O70 Ho41 2.381 . S
O70 C59 1.271 . S
O71 Ho40 2.305 1_655 S
O71 Ho41 2.669 1_565 S
O71 C59 1.258 1_565 S
H72 C45 0.930 . S
H73 C46 0.931 . S
H74 C48 0.934 . S
H75 C49 0.930 . S
H76 C54 0.930 . S
H77 C55 0.931 . S
H78 C57 0.934 . S
H79 C58 0.930 . S
Ho80 C83 2.811 . S
Ho80 O100 2.322 . S
Ho80 O102 2.378 . S
Ho80 O103 2.524 1_556 S
Ho80 O104 2.381 . S
Ho80 O105 2.669 . S
Ho80 O107 2.346 . S
Ho80 O111 2.305 1_556 S
Ho81 C92 2.811 . S
Ho81 O101 2.346 . S
Ho81 O105 2.305 1_554 S
Ho81 O106 2.322 . S
Ho81 O108 2.378 . S
Ho81 O109 2.524 1_554 S
Ho81 O110 2.381 . S
Ho81 O111 2.669 . S
C82 O100 1.259 . S
C82 O101 1.268 1_556 S
C83 Ho80 2.811 . S
C83 C84 1.488 . S
C83 O102 1.215 . S
C83 O103 1.289 1_556 S
C84 C83 1.488 . S
C84 C85 1.348 1_556 S
C84 C89 1.413 . S
C85 C84 1.348 1_554 S
C85 C86 1.442 . S
C85 H112 0.930 . S
C86 C85 1.442 . S
C86 C87 1.381 1_554 S
C86 H113 0.931 . S
C87 C86 1.381 1_556 S
C87 C88 1.321 . S
C88 C87 1.321 . S
C88 C89 1.403 . S
C88 H114 0.934 . S
C89 C84 1.413 . S
C89 C88 1.403 . S
C89 H115 0.930 . S
C90 O104 1.275 . S
C90 O105 1.256 . S
C91 O106 1.259 . S
C91 O107 1.268 1_554 S
C92 Ho81 2.811 . S
C92 C93 1.488 . S
C92 O108 1.215 . S
C92 O109 1.289 1_554 S
C93 C92 1.488 . S
C93 C94 1.348 1_554 S
C93 C98 1.413 . S
C94 C93 1.348 1_556 S
C94 C95 1.442 . S
C94 H116 0.930 . S
C95 C94 1.442 . S
C95 C96 1.381 1_556 S
C95 H117 0.931 . S
C96 C95 1.381 1_554 S
C96 C97 1.321 . S
C97 C96 1.321 . S
C97 C98 1.403 . S
C97 H118 0.934 . S
C98 C93 1.413 . S
C98 C97 1.403 . S
C98 H119 0.930 . S
C99 O110 1.275 . S
C99 O111 1.256 . S
O100 Ho80 2.322 . S
O100 C82 1.259 . S
O101 Ho81 2.346 . S
O101 C82 1.268 1_554 S
O102 Ho80 2.378 . S
O102 C83 1.215 . S
O103 Ho80 2.524 1_554 S
O103 C83 1.289 1_554 S
O104 Ho80 2.381 . S
O104 C90 1.275 . S
O105 Ho80 2.669 . S
O105 Ho81 2.305 1_556 S
O105 C90 1.256 . S
O106 Ho81 2.322 . S
O106 C91 1.259 . S
O107 Ho80 2.346 . S
O107 C91 1.268 1_556 S
O108 Ho81 2.378 . S
O108 C92 1.215 . S
O109 Ho81 2.524 1_556 S
O109 C92 1.289 1_556 S
O110 Ho81 2.381 . S
O110 C99 1.275 . S
O111 Ho80 2.305 1_554 S
O111 Ho81 2.669 . S
O111 C99 1.256 . S
H112 C85 0.930 . S
H113 C86 0.931 . S
H114 C88 0.934 . S
H115 C89 0.930 . S
H116 C94 0.930 . S
H117 C95 0.931 . S
H118 C97 0.934 . S
H119 C98 0.930 . S
Ho120 C123 2.811 . S
Ho120 O140 2.322 . S
Ho120 O142 2.378 . S
Ho120 O143 2.524 . S
Ho120 O144 2.381 . S
Ho120 O145 2.669 . S
Ho120 O147 2.346 . S
Ho120 O151 2.305 . S
Ho121 C132 2.811 . S
Ho121 O141 2.346 . S
Ho121 O145 2.305 . S
Ho121 O146 2.322 . S
Ho121 O148 2.378 . S
Ho121 O149 2.524 . S
Ho121 O150 2.381 . S
Ho121 O151 2.669 . S
C122 O140 1.259 . S
C122 O141 1.268 . S
C123 Ho120 2.811 . S
C123 C124 1.488 . S
C123 O142 1.215 . S
C123 O143 1.289 . S
C124 C123 1.488 . S
C124 C125 1.348 . S
C124 C129 1.413 . S
C125 C124 1.348 . S
C125 C126 1.442 . S
C125 H152 0.930 . S
C126 C125 1.442 . S
C126 C127 1.381 . S
C126 H153 0.931 . S
C127 C126 1.381 . S
C127 C128 1.321 . S
C128 C127 1.321 . S
C128 C129 1.403 . S
C128 H154 0.934 . S
C129 C124 1.413 . S
C129 C128 1.403 . S
C129 H155 0.930 . S
C130 O144 1.275 . S
C130 O145 1.256 . S
C131 O146 1.259 . S
C131 O147 1.268 . S
C132 Ho121 2.811 . S
C132 C133 1.488 . S
C132 O148 1.215 . S
C132 O149 1.289 . S
C133 C132 1.488 . S
C133 C134 1.348 . S
C133 C138 1.413 . S
C134 C133 1.348 . S
C134 C135 1.442 . S
C134 H156 0.930 . S
C135 C134 1.442 . S
C135 C136 1.381 . S
C135 H157 0.931 . S
C136 C135 1.381 . S
C136 C137 1.321 . S
C137 C136 1.321 . S
C137 C138 1.403 . S
C137 H158 0.934 . S
C138 C133 1.413 . S
C138 C137 1.403 . S
C138 H159 0.930 . S
C139 O150 1.275 . S
C139 O151 1.256 . S
O140 Ho120 2.322 . S
O140 C122 1.259 . S
O141 Ho121 2.346 . S
O141 C122 1.268 . S
O142 Ho120 2.378 . S
O142 C123 1.215 . S
O143 Ho120 2.524 . S
O143 C123 1.289 . S
O144 Ho120 2.381 . S
O144 C130 1.275 . S
O145 Ho120 2.669 . S
O145 Ho121 2.305 . S
O145 C130 1.256 . S
O146 Ho121 2.322 . S
O146 C131 1.259 . S
O147 Ho120 2.346 . S
O147 C131 1.268 . S
O148 Ho121 2.378 . S
O148 C132 1.215 . S
O149 Ho121 2.524 . S
O149 C132 1.289 . S
O150 Ho121 2.381 . S
O150 C139 1.275 . S
O151 Ho120 2.305 . S
O151 Ho121 2.669 . S
O151 C139 1.256 . S
H152 C125 0.930 . S
H153 C126 0.931 . S
H154 C128 0.934 . S
H155 C129 0.930 . S
H156 C134 0.930 . S
H157 C135 0.931 . S
H158 C137 0.934 . S
H159 C138 0.930 . S
C160 C161 1.391 . S
C160 C162 1.394 . S
C160 H176 0.931 . S
C161 C160 1.391 . S
C161 C165 1.376 1_556 S
C162 C160 1.394 . S
C162 C163 1.369 . S
C162 C166 1.531 . S
C163 C162 1.369 . S
C163 C164 1.410 1_556 S
C163 C171 1.503 . S
C164 C163 1.410 1_554 S
C164 C165 1.392 . S
C164 C167 1.511 . S
C165 C161 1.376 1_554 S
C165 C164 1.392 . S
C165 H177 0.929 . S
C166 C162 1.531 . S
C166 H178 0.960 . S
C166 H179 0.962 . S
C166 H180 0.960 . S
C167 C164 1.511 . S
C167 H181 0.961 . S
C167 H182 0.961 . S
C167 H183 0.961 1_554 S
C168 C169 1.370 1_554 S
C168 C170 1.363 . S
C168 H184 0.931 . S
C169 C168 1.370 1_556 S
C169 C173 1.408 . S
C170 C168 1.363 . S
C170 C171 1.370 1_554 S
C170 C174 1.524 . S
C171 C163 1.503 . S
C171 C170 1.370 1_556 S
C171 C172 1.403 . S
C172 C171 1.403 . S
C172 C173 1.404 . S
C172 C175 1.539 . S
C173 C169 1.408 . S
C173 C172 1.404 . S
C173 H185 0.930 . S
C174 C170 1.524 . S
C174 H186 0.956 . S
C174 H187 0.961 . S
C174 H188 0.961 . S
C175 C172 1.539 . S
C175 H189 0.958 . S
C175 H190 0.961 . S
C175 H191 0.960 . S
H176 C160 0.931 . S
H177 C165 0.929 . S
H178 C166 0.960 . S
H179 C166 0.962 . S
H180 C166 0.960 . S
H181 C167 0.961 . S
H182 C167 0.961 . S
H183 C167 0.961 1_556 S
H184 C168 0.931 . S
H185 C173 0.930 . S
H186 C174 0.956 . S
H187 C174 0.961 . S
H188 C174 0.961 . S
H189 C175 0.958 . S
H190 C175 0.961 . S
H191 C175 0.960 . S
C192 C193 1.391 . S
C192 C194 1.394 . S
C192 H208 0.931 1_556 S
C193 C192 1.391 . S
C193 C197 1.376 . S
C194 C192 1.394 . S
C194 C195 1.369 . S
C194 C198 1.528 1_556 S
C195 C194 1.369 . S
C195 C196 1.410 . S
C195 C203 1.503 . S
C196 C195 1.410 . S
C196 C197 1.392 . S
C196 C199 1.511 . S
C197 C193 1.376 . S
C197 C196 1.392 . S
C197 H209 0.929 . S
C198 C194 1.528 1_554 S
C198 H210 0.951 1_554 S
C198 H211 0.979 . S
C198 H212 0.956 1_554 S
C199 C196 1.511 . S
C199 H213 0.961 . S
C199 H214 0.961 . S
C199 H215 0.961 . S
C200 C201 1.368 1_554 S
C200 C202 1.363 . S
C200 H216 0.931 . S
C201 C200 1.368 1_556 S
C201 C205 1.411 . S
C202 C200 1.363 . S
C202 C203 1.370 1_554 S
C202 C206 1.524 . S
C203 C195 1.503 . S
C203 C202 1.370 1_556 S
C203 C204 1.403 . S
C204 C203 1.403 . S
C204 C205 1.404 . S
C204 C207 1.539 . S
C205 C201 1.411 . S
C205 C204 1.404 . S
C205 H217 0.930 . S
C206 C202 1.524 . S
C206 H218 0.956 . S
C206 H219 0.961 . S
C206 H220 0.961 . S
C207 C204 1.539 . S
C207 H221 0.958 . S
C207 H222 0.961 . S
C207 H223 0.960 . S
H208 C192 0.931 1_554 S
H209 C197 0.929 . S
H210 C198 0.951 1_556 S
H211 C198 0.979 . S
H212 C198 0.956 1_556 S
H213 C199 0.961 . S
H214 C199 0.961 . S
H215 C199 0.961 . S
H216 C200 0.931 . S
H217 C205 0.930 . S
H218 C206 0.956 . S
H219 C206 0.961 . S
H220 C206 0.961 . S
H221 C207 0.958 . S
H222 C207 0.961 . S
H223 C207 0.960 . S
C224 C225 1.391 . S
C224 C226 1.394 . S
C224 H240 0.931 . S
C225 C224 1.391 . S
C225 C229 1.376 . S
C226 C224 1.394 . S
C226 C227 1.369 . S
C226 C230 1.531 . S
C227 C226 1.369 . S
C227 C228 1.410 . S
C227 C235 1.503 . S
C228 C227 1.410 . S
C228 C229 1.392 . S
C228 C231 1.511 . S
C229 C225 1.376 . S
C229 C228 1.392 . S
C229 H241 0.929 . S
C230 C226 1.531 . S
C230 H242 0.960 . S
C230 H243 0.962 . S
C230 H244 0.960 . S
C231 C228 1.511 . S
C231 H245 0.961 . S
C231 H246 0.961 . S
C231 H247 0.961 . S
C232 C233 1.370 . S
C232 C234 1.363 . S
C232 H248 0.931 . S
C233 C232 1.370 . S
C233 C237 1.408 . S
C234 C232 1.363 . S
C234 C235 1.370 . S
C234 C238 1.524 . S
C235 C227 1.503 . S
C235 C234 1.370 . S
C235 C236 1.403 . S
C236 C235 1.403 . S
C236 C237 1.404 . S
C236 C239 1.539 . S
C237 C233 1.408 . S
C237 C236 1.404 . S
C237 H249 0.930 . S
C238 C234 1.524 . S
C238 H250 0.956 . S
C238 H251 0.961 . S
C238 H252 0.961 . S
C239 C236 1.539 . S
C239 H253 0.958 . S
C239 H254 0.961 . S
C239 H255 0.960 . S
H240 C224 0.931 . S
H241 C229 0.929 . S
H242 C230 0.960 . S
H243 C230 0.962 . S
H244 C230 0.960 . S
H245 C231 0.961 . S
H246 C231 0.961 . S
H247 C231 0.961 . S
H248 C232 0.931 . S
H249 C237 0.930 . S
H250 C238 0.956 . S
H251 C238 0.961 . S
H252 C238 0.961 . S
H253 C239 0.958 . S
H254 C239 0.961 . S
H255 C239 0.960 . S
C256 C257 1.391 . S
C256 C258 1.394 . S
C256 H272 0.931 . S
C257 C256 1.391 . S
C257 C261 1.376 . S
C258 C256 1.394 . S
C258 C259 1.369 . S
C258 C262 1.531 . S
C259 C258 1.369 . S
C259 C260 1.410 . S
C259 C267 1.503 . S
C260 C259 1.410 . S
C260 C261 1.392 . S
C260 C263 1.511 . S
C261 C257 1.376 . S
C261 C260 1.392 . S
C261 H273 0.929 . S
C262 C258 1.531 . S
C262 H274 0.960 . S
C262 H275 0.962 . S
C262 H276 0.960 . S
C263 C260 1.511 . S
C263 H277 0.961 . S
C263 H278 0.961 . S
C263 H279 0.961 . S
C264 C265 1.370 . S
C264 C266 1.363 . S
C264 H280 0.931 . S
C265 C264 1.370 . S
C265 C269 1.408 . S
C266 C264 1.363 . S
C266 C267 1.370 . S
C266 C270 1.524 . S
C267 C259 1.503 . S
C267 C266 1.370 . S
C267 C268 1.403 . S
C268 C267 1.403 . S
C268 C269 1.404 . S
C268 C271 1.539 . S
C269 C265 1.408 . S
C269 C268 1.404 . S
C269 H281 0.930 . S
C270 C266 1.524 . S
C270 H282 0.956 . S
C270 H283 0.961 . S
C270 H284 0.961 . S
C271 C268 1.539 . S
C271 H285 0.958 . S
C271 H286 0.961 . S
C271 H287 0.960 . S
H272 C256 0.931 . S
H273 C261 0.929 . S
H274 C262 0.960 . S
H275 C262 0.962 . S
H276 C262 0.960 . S
H277 C263 0.961 . S
H278 C263 0.961 . S
H279 C263 0.961 . S
H280 C264 0.931 . S
H281 C269 0.930 . S
H282 C270 0.956 . S
H283 C270 0.961 . S
H284 C270 0.961 . S
H285 C271 0.958 . S
H286 C271 0.961 . S
H287 C271 0.960 . S
C288 C289 1.372 1_556 S
C288 C290 1.394 . S
C288 H304 0.931 . S
C289 C288 1.372 1_554 S
C289 C293 1.391 . S
C290 C288 1.394 . S
C290 C291 1.369 . S
C290 C294 1.531 . S
C291 C290 1.369 . S
C291 C292 1.410 1_556 S
C291 C299 1.503 1_565 S
C292 C291 1.410 1_554 S
C292 C293 1.392 . S
C292 C295 1.511 1_565 S
C293 C289 1.391 . S
C293 C292 1.392 . S
C293 H305 0.929 . S
C294 C290 1.531 . S
C294 H306 0.960 . S
C294 H307 0.962 . S
C294 H308 0.960 . S
C295 C292 1.511 1_545 S
C295 H309 0.961 . S
C295 H310 0.961 . S
C295 H311 0.961 . S
C296 C297 1.370 1_554 S
C296 C298 1.363 . S
C296 H312 0.931 . S
C297 C296 1.370 1_556 S
C297 C301 1.408 . S
C298 C296 1.363 . S
C298 C299 1.370 1_554 S
C298 C302 1.524 1_545 S
C299 C291 1.503 1_545 S
C299 C298 1.370 1_556 S
C299 C300 1.403 . S
C300 C299 1.403 . S
C300 C301 1.404 . S
C300 C303 1.539 . S
C301 C297 1.408 . S
C301 C300 1.404 . S
C301 H313 0.930 . S
C302 C298 1.524 1_565 S
C302 H314 0.956 . S
C302 H315 0.961 . S
C302 H316 0.961 . S
C303 C300 1.539 . S
C303 H317 0.958 . S
C303 H318 0.961 . S
C303 H319 0.960 . S
H304 C288 0.931 . S
H305 C293 0.929 . S
H306 C294 0.960 . S
H307 C294 0.962 . S
H308 C294 0.960 . S
H309 C295 0.961 . S
H310 C295 0.961 . S
H311 C295 0.961 . S
H312 C296 0.931 . S
H313 C301 0.930 . S
H314 C302 0.956 . S
H315 C302 0.961 . S
H316 C302 0.961 . S
H317 C303 0.958 . S
H318 C303 0.961 . S
H319 C303 0.960 . S
C320 C321 1.391 . S
C320 C322 1.394 . S
C320 H336 0.931 . S
C321 C320 1.391 . S
C321 C325 1.377 1_545 S
C322 C320 1.394 . S
C322 C323 1.369 . S
C322 C326 1.531 . S
C323 C322 1.369 . S
C323 C324 1.410 . S
C323 C331 1.503 . S
C324 C323 1.410 . S
C324 C325 1.387 1_545 S
C324 C327 1.511 . S
C325 C321 1.377 1_565 S
C325 C324 1.387 1_565 S
C325 H337 0.933 . S
C326 C322 1.531 . S
C326 H338 0.960 . S
C326 H339 0.962 1_545 S
C326 H340 0.960 . S
C327 C324 1.511 . S
C327 H341 0.955 1_545 S
C327 H342 0.960 1_545 S
C327 H343 0.968 . S
C328 C329 1.370 1_565 S
C328 C330 1.363 . S
C328 H344 0.931 . S
C329 C328 1.370 1_545 S
C329 C333 1.408 . S
C330 C328 1.363 . S
C330 C331 1.370 1_565 S
C330 C334 1.524 . S
C331 C323 1.503 . S
C331 C330 1.370 1_545 S
C331 C332 1.403 . S
C332 C331 1.403 . S
C332 C333 1.404 . S
C332 C335 1.539 . S
C333 C329 1.408 . S
C333 C332 1.404 . S
C333 H345 0.930 . S
C334 C330 1.524 . S
C334 H346 0.956 . S
C334 H347 0.961 . S
C334 H348 0.961 . S
C335 C332 1.539 . S
C335 H349 0.958 . S
C335 H350 0.961 . S
C335 H351 0.960 . S
H336 C320 0.931 . S
H337 C325 0.933 . S
H338 C326 0.960 . S
H339 C326 0.962 1_565 S
H340 C326 0.960 . S
H341 C327 0.955 1_565 S
H342 C327 0.960 1_565 S
H343 C327 0.968 . S
H344 C328 0.931 . S
H345 C333 0.930 . S
H346 C334 0.956 . S
H347 C334 0.961 . S
H348 C334 0.961 . S
H349 C335 0.958 . S
H350 C335 0.961 . S
H351 C335 0.960 . S
C352 C353 1.391 . S
C352 C354 1.394 1_655 S
C352 H368 0.931 . S
C353 C352 1.391 . S
C353 C357 1.376 . S
C354 C352 1.394 1_455 S
C354 C355 1.369 1_455 S
C354 C358 1.531 . S
C355 C354 1.369 1_655 S
C355 C356 1.410 . S
C355 C363 1.503 1_655 S
C356 C355 1.410 . S
C356 C357 1.392 . S
C356 C359 1.511 . S
C357 C353 1.376 . S
C357 C356 1.392 . S
C357 H369 0.929 1_556 S
C358 C354 1.531 . S
C358 H370 0.960 . S
C358 H371 0.962 1_556 S
C358 H372 0.960 . S
C359 C356 1.511 . S
C359 H373 0.961 1_556 S
C359 H374 0.961 1_556 S
C359 H375 0.961 . S
C360 C361 1.370 1_554 S
C360 C362 1.363 . S
C360 H376 0.931 . S
C361 C360 1.370 1_556 S
C361 C365 1.408 . S
C362 C360 1.363 . S
C362 C363 1.370 1_554 S
C362 C366 1.524 . S
C363 C355 1.503 1_455 S
C363 C362 1.370 1_556 S
C363 C364 1.403 . S
C364 C363 1.403 . S
C364 C365 1.404 . S
C364 C367 1.546 . S
C365 C361 1.408 . S
C365 C364 1.404 . S
C365 H377 0.930 . S
C366 C362 1.524 . S
C366 H378 0.956 . S
C366 H379 0.961 1_455 S
C366 H380 0.961 . S
C367 C364 1.546 . S
C367 H381 0.966 . S
C367 H382 0.963 1_455 S
C367 H383 0.944 1_455 S
H368 C352 0.931 . S
H369 C357 0.929 1_554 S
H370 C358 0.960 . S
H371 C358 0.962 1_554 S
H372 C358 0.960 . S
H373 C359 0.961 1_554 S
H374 C359 0.961 1_554 S
H375 C359 0.961 . S
H376 C360 0.931 . S
H377 C365 0.930 . S
H378 C366 0.956 . S
H379 C366 0.961 1_655 S
H380 C366 0.961 . S
H381 C367 0.966 . S
H382 C367 0.963 1_655 S
H383 C367 0.944 1_655 S
C384 C385 1.391 . S
C384 C386 1.394 . S
C384 H400 0.931 . S
C385 C384 1.391 . S
C385 C389 1.376 . S
C386 C384 1.394 . S
C386 C387 1.369 . S
C386 C390 1.531 . S
C387 C386 1.369 . S
C387 C388 1.410 . S
C387 C395 1.503 1_455 S
C388 C387 1.410 . S
C388 C389 1.392 . S
C388 C391 1.511 . S
C389 C385 1.376 . S
C389 C388 1.392 . S
C389 H401 0.929 . S
C390 C386 1.531 . S
C390 H402 0.960 . S
C390 H403 0.962 . S
C390 H404 0.960 . S
C391 C388 1.511 . S
C391 H405 0.961 . S
C391 H406 0.961 1_455 S
C391 H407 0.961 . S
C392 C393 1.370 . S
C392 C394 1.363 . S
C392 H408 0.931 . S
C393 C392 1.370 . S
C393 C397 1.408 . S
C394 C392 1.363 . S
C394 C395 1.370 . S
C394 C398 1.524 . S
C395 C387 1.503 1_655 S
C395 C394 1.370 . S
C395 C396 1.403 . S
C396 C395 1.403 . S
C396 C397 1.404 . S
C396 C399 1.539 . S
C397 C393 1.408 . S
C397 C396 1.404 . S
C397 H409 0.930 . S
C398 C394 1.524 . S
C398 H410 0.956 . S
C398 H411 0.961 . S
C398 H412 0.961 . S
C399 C396 1.539 . S
C399 H413 0.958 1_655 S
C399 H414 0.961 . S
C399 H415 0.960 1_655 S
H400 C384 0.931 . S
H401 C389 0.929 . S
H402 C390 0.960 . S
H403 C390 0.962 . S
H404 C390 0.960 . S
H405 C391 0.961 . S
H406 C391 0.961 1_655 S
H407 C391 0.961 . S
H408 C392 0.931 . S
H409 C397 0.930 . S
H410 C398 0.956 . S
H411 C398 0.961 . S
H412 C398 0.961 . S
H413 C399 0.958 1_455 S
H414 C399 0.961 . S
H415 C399 0.960 1_455 S
C416 C417 1.405 1_455 S
C416 C418 1.394 . S
C416 H432 0.931 . S
C417 C416 1.405 1_655 S
C417 C421 1.364 1_565 S
C418 C416 1.394 . S
C418 C419 1.369 1_455 S
C418 C422 1.531 . S
C419 C418 1.369 1_655 S
C419 C420 1.410 1_565 S
C419 C427 1.503 . S
C420 C419 1.410 1_545 S
C420 C421 1.392 . S
C420 C423 1.511 . S
C421 C417 1.364 1_545 S
C421 C420 1.392 . S
C421 H433 0.929 . S
C422 C418 1.531 . S
C422 H434 0.960 . S
C422 H435 0.962 . S
C422 H436 0.960 . S
C423 C420 1.511 . S
C423 H437 0.961 . S
C423 H438 0.961 . S
C423 H439 0.961 . S
C424 C425 1.370 1_455 S
C424 C426 1.363 . S
C424 H440 0.931 . S
C425 C424 1.370 1_655 S
C425 C429 1.408 1_545 S
C426 C424 1.363 . S
C426 C427 1.370 1_445 S
C426 C430 1.524 . S
C427 C419 1.503 . S
C427 C426 1.370 1_665 S
C427 C428 1.403 . S
C428 C427 1.403 . S
C428 C429 1.404 . S
C428 C431 1.539 . S
C429 C425 1.408 1_565 S
C429 C428 1.404 . S
C429 H441 0.930 . S
C430 C426 1.524 . S
C430 H442 0.956 . S
C430 H443 0.961 . S
C430 H444 0.961 . S
C431 C428 1.539 . S
C431 H445 0.958 . S
C431 H446 0.961 . S
C431 H447 0.960 . S
H432 C416 0.931 . S
H433 C421 0.929 . S
H434 C422 0.960 . S
H435 C422 0.962 . S
H436 C422 0.960 . S
H437 C423 0.961 . S
H438 C423 0.961 . S
H439 C423 0.961 . S
H440 C424 0.931 . S
H441 C429 0.930 . S
H442 C430 0.956 . S
H443 C430 0.961 . S
H444 C430 0.961 . S
H445 C431 0.958 . S
H446 C431 0.961 . S
H447 C431 0.960 . S
C448 C449 1.391 1_455 S
C448 C450 1.394 . S
C448 H464 0.931 . S
C449 C448 1.391 1_655 S
C449 C453 1.376 1_565 S
C450 C448 1.394 . S
C450 C451 1.369 1_455 S
C450 C454 1.531 . S
C451 C450 1.369 1_655 S
C451 C452 1.410 1_565 S
C451 C459 1.503 . S
C452 C451 1.410 1_545 S
C452 C453 1.392 . S
C452 C455 1.511 . S
C453 C449 1.376 1_545 S
C453 C452 1.392 . S
C453 H465 0.929 . S
C454 C450 1.531 . S
C454 H466 0.960 . S
C454 H467 0.962 . S
C454 H468 0.960 . S
C455 C452 1.511 . S
C455 H469 0.961 . S
C455 H470 0.961 . S
C455 H471 0.961 . S
C456 C457 1.372 1_545 S
C456 C458 1.363 . S
C456 H472 0.931 . S
C457 C456 1.372 1_565 S
C457 C461 1.406 1_455 S
C458 C456 1.363 . S
C458 C459 1.370 1_445 S
C458 C462 1.524 . S
C459 C451 1.503 . S
C459 C458 1.370 1_665 S
C459 C460 1.403 . S
C460 C459 1.403 . S
C460 C461 1.404 . S
C460 C463 1.539 . S
C461 C457 1.406 1_655 S
C461 C460 1.404 . S
C461 H473 0.930 . S
C462 C458 1.524 . S
C462 H474 0.956 . S
C462 H475 0.961 . S
C462 H476 0.961 . S
C463 C460 1.539 . S
C463 H477 0.958 . S
C463 H478 0.961 . S
C463 H479 0.960 . S
H464 C448 0.931 . S
H465 C453 0.929 . S
H466 C454 0.960 . S
H467 C454 0.962 . S
H468 C454 0.960 . S
H469 C455 0.961 . S
H470 C455 0.961 . S
H471 C455 0.961 . S
H472 C456 0.931 . S
H473 C461 0.930 . S
H474 C462 0.956 . S
H475 C462 0.961 . S
H476 C462 0.961 . S
H477 C463 0.958 . S
H478 C463 0.961 . S
H479 C463 0.960 . S
C480 C481 1.391 . S
C480 C482 1.394 . S
C480 H496 0.931 . S
C481 C480 1.391 . S
C481 C485 1.376 . S
C482 C480 1.394 . S
C482 C483 1.369 . S
C482 C486 1.531 . S
C483 C482 1.369 . S
C483 C484 1.410 . S
C483 C491 1.503 . S
C484 C483 1.410 . S
C484 C485 1.392 . S
C484 C487 1.511 . S
C485 C481 1.376 . S
C485 C484 1.392 . S
C485 H497 0.929 . S
C486 C482 1.531 . S
C486 H498 0.960 . S
C486 H499 0.962 . S
C486 H500 0.960 . S
C487 C484 1.511 . S
C487 H501 0.961 . S
C487 H502 0.961 . S
C487 H503 0.961 . S
C488 C489 1.370 . S
C488 C490 1.363 . S
C488 H504 0.931 . S
C489 C488 1.370 . S
C489 C493 1.408 . S
C490 C488 1.363 . S
C490 C491 1.370 . S
C490 C494 1.524 . S
C491 C483 1.503 . S
C491 C490 1.370 . S
C491 C492 1.403 . S
C492 C491 1.403 . S
C492 C493 1.404 . S
C492 C495 1.539 . S
C493 C489 1.408 . S
C493 C492 1.404 . S
C493 H505 0.930 . S
C494 C490 1.524 . S
C494 H506 0.956 . S
C494 H507 0.961 . S
C494 H508 0.961 . S
C495 C492 1.539 . S
C495 H509 0.958 . S
C495 H510 0.961 . S
C495 H511 0.960 . S
H496 C480 0.931 . S
H497 C485 0.929 . S
H498 C486 0.960 . S
H499 C486 0.962 . S
H500 C486 0.960 . S
H501 C487 0.961 . S
H502 C487 0.961 . S
H503 C487 0.961 . S
H504 C488 0.931 . S
H505 C493 0.930 . S
H506 C494 0.956 . S
H507 C494 0.961 . S
H508 C494 0.961 . S
H509 C495 0.958 . S
H510 C495 0.961 . S
H511 C495 0.960 . S
C512 C513 1.391 . S
C512 C514 1.394 . S
C512 H528 0.931 . S
C513 C512 1.391 . S
C513 C517 1.376 . S
C514 C512 1.394 . S
C514 C515 1.369 . S
C514 C518 1.531 . S
C515 C514 1.369 . S
C515 C516 1.410 . S
C515 C523 1.503 . S
C516 C515 1.410 . S
C516 C517 1.392 . S
C516 C519 1.511 . S
C517 C513 1.376 . S
C517 C516 1.392 . S
C517 H529 0.929 . S
C518 C514 1.531 . S
C518 H530 0.960 . S
C518 H531 0.962 . S
C518 H532 0.960 . S
C519 C516 1.511 . S
C519 H533 0.961 . S
C519 H534 0.961 . S
C519 H535 0.961 . S
C520 C521 1.370 . S
C520 C522 1.363 . S
C520 H536 0.931 . S
C521 C520 1.370 . S
C521 C525 1.408 . S
C522 C520 1.363 . S
C522 C523 1.370 . S
C522 C526 1.524 . S
C523 C515 1.503 . S
C523 C522 1.370 . S
C523 C524 1.403 . S
C524 C523 1.403 . S
C524 C525 1.404 . S
C524 C527 1.539 . S
C525 C521 1.408 . S
C525 C524 1.404 . S
C525 H537 0.930 . S
C526 C522 1.524 . S
C526 H538 0.956 . S
C526 H539 0.961 . S
C526 H540 0.961 . S
C527 C524 1.539 . S
C527 H541 0.958 . S
C527 H542 0.961 . S
C527 H543 0.960 . S
H528 C512 0.931 . S
H529 C517 0.929 . S
H530 C518 0.960 . S
H531 C518 0.962 . S
H532 C518 0.960 . S
H533 C519 0.961 . S
H534 C519 0.961 . S
H535 C519 0.961 . S
H536 C520 0.931 . S
H537 C525 0.930 . S
H538 C526 0.956 . S
H539 C526 0.961 . S
H540 C526 0.961 . S
H541 C527 0.958 . S
H542 C527 0.961 . S
H543 C527 0.960 . S
C161 C82 3.576 . S
C169 C11 3.585 1_556 S
C193 C91 3.582 1_556 S
C201 C2 3.582 . S
C225 C56 0.182 . S
C233 C127 0.187 . S
C257 C47 0.253 . S
C265 C136 0.141 . S
C289 C16 0.849 . S
C297 C7 0.932 . S
C321 C51 4.880 1_545 S
C329 C42 4.886 . S
C353 C96 0.911 1_556 S
C361 C87 0.910 . S
C385 C122 4.882 . S
C393 C131 4.885 . S
C417 C50 1.441 1_655 S
C425 C19 1.471 1_655 S
C449 C10 1.434 . S
C457 C59 1.471 1_465 S
C481 C130 1.479 . S
C489 C99 1.451 . S
C513 C139 1.449 . S
C521 C90 1.476 . S
