# Generated by pormake.
# Topology som, (6)-cn, num edge types: 1
# Building blocks:
#     Node 0, Type 0, BuildingBlock: BETDAH_clean_sbu_0, # of connection points: 6
#     Node 1, Type 0, BuildingBlock: BETDAH_clean_sbu_0, # of connection points: 6
#     Node 2, Type 0, BuildingBlock: BETDAH_clean_sbu_0, # of connection points: 6
#     Node 3, Type 0, BuildingBlock: BETDAH_clean_sbu_0, # of connection points: 6
#     Node 4, Type 0, BuildingBlock: BETDAH_clean_sbu_0, # of connection points: 6
#     Node 5, Type 0, BuildingBlock: BETDAH_clean_sbu_0, # of connection points: 6
#     Node 6, Type 0, BuildingBlock: BETDAH_clean_sbu_0, # of connection points: 6
#     Node 7, Type 0, BuildingBlock: BETDAH_clean_sbu_0, # of connection points: 6
#     Node 8, Type 0, BuildingBlock: BETDAH_clean_sbu_0, # of connection points: 6
#     Node 9, Type 0, BuildingBlock: BETDAH_clean_sbu_0, # of connection points: 6
#     Node 10, Type 0, BuildingBlock: BETDAH_clean_sbu_0, # of connection points: 6
#     Node 11, Type 0, BuildingBlock: BETDAH_clean_sbu_0, # of connection points: 6
#     Node 12, Type 0, BuildingBlock: BETDAH_clean_sbu_0, # of connection points: 6
#     Node 13, Type 0, BuildingBlock: BETDAH_clean_sbu_0, # of connection points: 6
#     Node 14, Type 0, BuildingBlock: BETDAH_clean_sbu_0, # of connection points: 6
#     Node 15, Type 0, BuildingBlock: BETDAH_clean_sbu_0, # of connection points: 6
#     Node 16, Type 0, BuildingBlock: BETDAH_clean_sbu_0, # of connection points: 6
#     Node 17, Type 0, BuildingBlock: BETDAH_clean_sbu_0, # of connection points: 6
#     Node 18, Type 0, BuildingBlock: BETDAH_clean_sbu_0, # of connection points: 6
#     Node 19, Type 0, BuildingBlock: BETDAH_clean_sbu_0, # of connection points: 6
#     Node 20, Type 0, BuildingBlock: BETDAH_clean_sbu_0, # of connection points: 6
#     Node 21, Type 0, BuildingBlock: BETDAH_clean_sbu_0, # of connection points: 6
#     Node 22, Type 0, BuildingBlock: BETDAH_clean_sbu_0, # of connection points: 6
#     Node 23, Type 0, BuildingBlock: BETDAH_clean_sbu_0, # of connection points: 6
#     Node 24, Type 0, BuildingBlock: BETDAH_clean_sbu_0, # of connection points: 6
#     Node 25, Type 0, BuildingBlock: BETDAH_clean_sbu_0, # of connection points: 6
#     Node 26, Type 0, BuildingBlock: BETDAH_clean_sbu_0, # of connection points: 6
#     Node 27, Type 0, BuildingBlock: BETDAH_clean_sbu_0, # of connection points: 6
#     Node 28, Type 0, BuildingBlock: BETDAH_clean_sbu_0, # of connection points: 6
#     Node 29, Type 0, BuildingBlock: BETDAH_clean_sbu_0, # of connection points: 6
#     Node 30, Type 0, BuildingBlock: BETDAH_clean_sbu_0, # of connection points: 6
#     Node 31, Type 0, BuildingBlock: BETDAH_clean_sbu_0, # of connection points: 6
#     Edge 32, Type (0, 0), BuildingBlock: AJUNOK_clean_linker_0, # of connection points: 2
#     Edge 33, Type (0, 0), BuildingBlock: AJUNOK_clean_linker_0, # of connection points: 2
#     Edge 34, Type (0, 0), BuildingBlock: AJUNOK_clean_linker_0, # of connection points: 2
#     Edge 35, Type (0, 0), BuildingBlock: AJUNOK_clean_linker_0, # of connection points: 2
#     Edge 36, Type (0, 0), BuildingBlock: AJUNOK_clean_linker_0, # of connection points: 2
#     Edge 37, Type (0, 0), BuildingBlock: AJUNOK_clean_linker_0, # of connection points: 2
#     Edge 38, Type (0, 0), BuildingBlock: AJUNOK_clean_linker_0, # of connection points: 2
#     Edge 39, Type (0, 0), BuildingBlock: AJUNOK_clean_linker_0, # of connection points: 2
#     Edge 40, Type (0, 0), BuildingBlock: AJUNOK_clean_linker_0, # of connection points: 2
#     Edge 41, Type (0, 0), BuildingBlock: AJUNOK_clean_linker_0, # of connection points: 2
#     Edge 42, Type (0, 0), BuildingBlock: AJUNOK_clean_linker_0, # of connection points: 2
#     Edge 43, Type (0, 0), BuildingBlock: AJUNOK_clean_linker_0, # of connection points: 2
#     Edge 44, Type (0, 0), BuildingBlock: AJUNOK_clean_linker_0, # of connection points: 2
#     Edge 45, Type (0, 0), BuildingBlock: AJUNOK_clean_linker_0, # of connection points: 2
#     Edge 46, Type (0, 0), BuildingBlock: AJUNOK_clean_linker_0, # of connection points: 2
#     Edge 47, Type (0, 0), BuildingBlock: AJUNOK_clean_linker_0, # of connection points: 2
#     Edge 48, Type (0, 0), BuildingBlock: AJUNOK_clean_linker_0, # of connection points: 2
#     Edge 49, Type (0, 0), BuildingBlock: AJUNOK_clean_linker_0, # of connection points: 2
#     Edge 50, Type (0, 0), BuildingBlock: AJUNOK_clean_linker_0, # of connection points: 2
#     Edge 51, Type (0, 0), BuildingBlock: AJUNOK_clean_linker_0, # of connection points: 2
#     Edge 52, Type (0, 0), BuildingBlock: AJUNOK_clean_linker_0, # of connection points: 2
#     Edge 53, Type (0, 0), BuildingBlock: AJUNOK_clean_linker_0, # of connection points: 2
#     Edge 54, Type (0, 0), BuildingBlock: AJUNOK_clean_linker_0, # of connection points: 2
#     Edge 55, Type (0, 0), BuildingBlock: AJUNOK_clean_linker_0, # of connection points: 2
#     Edge 56, Type (0, 0), BuildingBlock: AJUNOK_clean_linker_0, # of connection points: 2
#     Edge 57, Type (0, 0), BuildingBlock: AJUNOK_clean_linker_0, # of connection points: 2
#     Edge 58, Type (0, 0), BuildingBlock: AJUNOK_clean_linker_0, # of connection points: 2
#     Edge 59, Type (0, 0), BuildingBlock: AJUNOK_clean_linker_0, # of connection points: 2
#     Edge 60, Type (0, 0), BuildingBlock: AJUNOK_clean_linker_0, # of connection points: 2
#     Edge 61, Type (0, 0), BuildingBlock: AJUNOK_clean_linker_0, # of connection points: 2
#     Edge 62, Type (0, 0), BuildingBlock: AJUNOK_clean_linker_0, # of connection points: 2
#     Edge 63, Type (0, 0), BuildingBlock: AJUNOK_clean_linker_0, # of connection points: 2
#     Edge 64, Type (0, 0), BuildingBlock: AJUNOK_clean_linker_0, # of connection points: 2
#     Edge 65, Type (0, 0), BuildingBlock: AJUNOK_clean_linker_0, # of connection points: 2
#     Edge 66, Type (0, 0), BuildingBlock: AJUNOK_clean_linker_0, # of connection points: 2
#     Edge 67, Type (0, 0), BuildingBlock: AJUNOK_clean_linker_0, # of connection points: 2
#     Edge 68, Type (0, 0), BuildingBlock: AJUNOK_clean_linker_0, # of connection points: 2
#     Edge 69, Type (0, 0), BuildingBlock: AJUNOK_clean_linker_0, # of connection points: 2
#     Edge 70, Type (0, 0), BuildingBlock: AJUNOK_clean_linker_0, # of connection points: 2
#     Edge 71, Type (0, 0), BuildingBlock: AJUNOK_clean_linker_0, # of connection points: 2
#     Edge 72, Type (0, 0), BuildingBlock: AJUNOK_clean_linker_0, # of connection points: 2
#     Edge 73, Type (0, 0), BuildingBlock: AJUNOK_clean_linker_0, # of connection points: 2
#     Edge 74, Type (0, 0), BuildingBlock: AJUNOK_clean_linker_0, # of connection points: 2
#     Edge 75, Type (0, 0), BuildingBlock: AJUNOK_clean_linker_0, # of connection points: 2
#     Edge 76, Type (0, 0), BuildingBlock: AJUNOK_clean_linker_0, # of connection points: 2
#     Edge 77, Type (0, 0), BuildingBlock: AJUNOK_clean_linker_0, # of connection points: 2
#     Edge 78, Type (0, 0), BuildingBlock: AJUNOK_clean_linker_0, # of connection points: 2
#     Edge 79, Type (0, 0), BuildingBlock: AJUNOK_clean_linker_0, # of connection points: 2
#     Edge 80, Type (0, 0), BuildingBlock: AJUNOK_clean_linker_0, # of connection points: 2
#     Edge 81, Type (0, 0), BuildingBlock: AJUNOK_clean_linker_0, # of connection points: 2
#     Edge 82, Type (0, 0), BuildingBlock: AJUNOK_clean_linker_0, # of connection points: 2
#     Edge 83, Type (0, 0), BuildingBlock: AJUNOK_clean_linker_0, # of connection points: 2
#     Edge 84, Type (0, 0), BuildingBlock: AJUNOK_clean_linker_0, # of connection points: 2
#     Edge 85, Type (0, 0), BuildingBlock: AJUNOK_clean_linker_0, # of connection points: 2
#     Edge 86, Type (0, 0), BuildingBlock: AJUNOK_clean_linker_0, # of connection points: 2
#     Edge 87, Type (0, 0), BuildingBlock: AJUNOK_clean_linker_0, # of connection points: 2
#     Edge 88, Type (0, 0), BuildingBlock: AJUNOK_clean_linker_0, # of connection points: 2
#     Edge 89, Type (0, 0), BuildingBlock: AJUNOK_clean_linker_0, # of connection points: 2
#     Edge 90, Type (0, 0), BuildingBlock: AJUNOK_clean_linker_0, # of connection points: 2
#     Edge 91, Type (0, 0), BuildingBlock: AJUNOK_clean_linker_0, # of connection points: 2
#     Edge 92, Type (0, 0), BuildingBlock: AJUNOK_clean_linker_0, # of connection points: 2
#     Edge 93, Type (0, 0), BuildingBlock: AJUNOK_clean_linker_0, # of connection points: 2
#     Edge 94, Type (0, 0), BuildingBlock: AJUNOK_clean_linker_0, # of connection points: 2
#     Edge 95, Type (0, 0), BuildingBlock: AJUNOK_clean_linker_0, # of connection points: 2
#     Edge 96, Type (0, 0), BuildingBlock: AJUNOK_clean_linker_0, # of connection points: 2
#     Edge 97, Type (0, 0), BuildingBlock: AJUNOK_clean_linker_0, # of connection points: 2
#     Edge 98, Type (0, 0), BuildingBlock: AJUNOK_clean_linker_0, # of connection points: 2
#     Edge 99, Type (0, 0), BuildingBlock: AJUNOK_clean_linker_0, # of connection points: 2
#     Edge 100, Type (0, 0), BuildingBlock: AJUNOK_clean_linker_0, # of connection points: 2
#     Edge 101, Type (0, 0), BuildingBlock: AJUNOK_clean_linker_0, # of connection points: 2
#     Edge 102, Type (0, 0), BuildingBlock: AJUNOK_clean_linker_0, # of connection points: 2
#     Edge 103, Type (0, 0), BuildingBlock: AJUNOK_clean_linker_0, # of connection points: 2
#     Edge 104, Type (0, 0), BuildingBlock: AJUNOK_clean_linker_0, # of connection points: 2
#     Edge 105, Type (0, 0), BuildingBlock: AJUNOK_clean_linker_0, # of connection points: 2
#     Edge 106, Type (0, 0), BuildingBlock: AJUNOK_clean_linker_0, # of connection points: 2
#     Edge 107, Type (0, 0), BuildingBlock: AJUNOK_clean_linker_0, # of connection points: 2
#     Edge 108, Type (0, 0), BuildingBlock: AJUNOK_clean_linker_0, # of connection points: 2
#     Edge 109, Type (0, 0), BuildingBlock: AJUNOK_clean_linker_0, # of connection points: 2
#     Edge 110, Type (0, 0), BuildingBlock: AJUNOK_clean_linker_0, # of connection points: 2
#     Edge 111, Type (0, 0), BuildingBlock: AJUNOK_clean_linker_0, # of connection points: 2
#     Edge 112, Type (0, 0), BuildingBlock: AJUNOK_clean_linker_0, # of connection points: 2
#     Edge 113, Type (0, 0), BuildingBlock: AJUNOK_clean_linker_0, # of connection points: 2
#     Edge 114, Type (0, 0), BuildingBlock: AJUNOK_clean_linker_0, # of connection points: 2
#     Edge 115, Type (0, 0), BuildingBlock: AJUNOK_clean_linker_0, # of connection points: 2
#     Edge 116, Type (0, 0), BuildingBlock: AJUNOK_clean_linker_0, # of connection points: 2
#     Edge 117, Type (0, 0), BuildingBlock: AJUNOK_clean_linker_0, # of connection points: 2
#     Edge 118, Type (0, 0), BuildingBlock: AJUNOK_clean_linker_0, # of connection points: 2
#     Edge 119, Type (0, 0), BuildingBlock: AJUNOK_clean_linker_0, # of connection points: 2
#     Edge 120, Type (0, 0), BuildingBlock: AJUNOK_clean_linker_0, # of connection points: 2
#     Edge 121, Type (0, 0), BuildingBlock: AJUNOK_clean_linker_0, # of connection points: 2
#     Edge 122, Type (0, 0), BuildingBlock: AJUNOK_clean_linker_0, # of connection points: 2
#     Edge 123, Type (0, 0), BuildingBlock: AJUNOK_clean_linker_0, # of connection points: 2
#     Edge 124, Type (0, 0), BuildingBlock: AJUNOK_clean_linker_0, # of connection points: 2
#     Edge 125, Type (0, 0), BuildingBlock: AJUNOK_clean_linker_0, # of connection points: 2
#     Edge 126, Type (0, 0), BuildingBlock: AJUNOK_clean_linker_0, # of connection points: 2
#     Edge 127, Type (0, 0), BuildingBlock: AJUNOK_clean_linker_0, # of connection points: 2
# Relax obj value: 0.061
# Max RMSD: 0.132
# Mean RMSD: 0.132
data_MOF--net-som--node1-BETDAH_clean_sbu_0--edge1-AJUNOK_clean_linker_0
_symmetry_space_group_name_H-M    P1
_symmetry_Int_Tables_number       1
_symmetry_cell_setting            triclinic
loop_
_symmetry_equiv_pos_as_xyz
'x, y, z'
_cell_length_a     21.554669
_cell_length_b     39.54447
_cell_length_c     79.120495
_cell_angle_alpha  89.837335
_cell_angle_beta   89.765126
_cell_angle_gamma 89.891032
loop_
_atom_site_label
_atom_site_type_symbol
_atom_site_fract_x
_atom_site_fract_y
_atom_site_fract_z
_atom_type_partial_charge
Ho0 Ho 0.9801 0.50358 0.09877 0.0
Ho1 Ho 0.10064 0.4654 0.09272 0.0
C2 C 0.97788 0.42238 0.09917 0.0
C3 C 0.86819 0.52833 0.09992 0.0
C4 C 0.80188 0.51811 0.10013 0.0
C5 C 0.75993 0.535 0.08951 0.0
C6 C 0.69652 0.52729 0.08995 0.0
C7 C 0.67322 0.50241 0.10103 0.0
C8 C 0.71551 0.48522 0.11156 0.0
C9 C 0.77902 0.49317 0.1112 0.0
C10 C 0.06047 0.5014 0.12538 0.0
C11 C 0.09364 0.54765 0.08943 0.0
C12 C 0.21447 0.44343 0.09399 0.0
C13 C 0.279 0.45536 0.09674 0.0
C14 C 0.31815 0.43688 0.10753 0.0
C15 C 0.38091 0.4455 0.1092 0.0
C16 C 0.40614 0.47285 0.10009 0.0
C17 C 0.36654 0.4918 0.08955 0.0
C18 C 0.30365 0.48325 0.08793 0.0
C19 C 1.03051 0.47171 0.06428 0.0
O20 O 0.94677 0.4507 0.09731 0.0
O21 O 0.03931 0.42112 0.09913 0.0
O22 O 0.90146 0.52165 0.11331 0.0
O23 O 0.89913 0.52361 0.08586 0.0
O24 O 1.02657 0.52736 0.12144 0.0
O25 O 0.04765 0.4774 0.11548 0.0
O26 O 0.12808 0.52091 0.09339 0.0
O27 O 0.03323 0.54557 0.08802 0.0
O28 O 0.18679 0.45276 0.08006 0.0
O29 O 0.17691 0.4435 0.10699 0.0
O30 O 0.06218 0.44498 0.06845 0.0
O31 O 0.03761 0.49381 0.07572 0.0
H32 H 0.77617 0.55461 0.08098 0.0
H33 H 0.6655 0.54126 0.08175 0.0
H34 H 0.69968 0.46544 0.12001 0.0
H35 H 0.81012 0.47998 0.11967 0.0
H36 H 0.30049 0.41512 0.11436 0.0
H37 H 0.41018 0.43002 0.1172 0.0
H38 H 0.38442 0.51311 0.08243 0.0
H39 H 0.2747 0.49807 0.07954 0.0
Ho40 Ho 0.32654 0.72162 0.0916 0.0
Ho41 Ho 0.20676 0.76102 0.08823 0.0
C42 C 0.33123 0.80234 0.09304 0.0
C43 C 0.43873 0.69703 0.0909 0.0
C44 C 0.50511 0.70709 0.09103 0.0
C45 C 0.52708 0.73573 0.0823 0.0
C46 C 0.59082 0.74334 0.08206 0.0
C47 C 0.63395 0.72232 0.09039 0.0
C48 C 0.61141 0.69411 0.09937 0.0
C49 C 0.54789 0.6866 0.09965 0.0
C50 C 0.25526 0.72642 0.12019 0.0
C51 C 0.20966 0.67846 0.08526 0.0
C52 C 0.09363 0.78355 0.09143 0.0
C53 C 1.02817 0.77199 0.09028 0.0
C54 C 1.00754 0.74202 0.0981 0.0
C55 C 0.94449 0.73307 0.09774 0.0
C56 C 0.90061 0.75376 0.08949 0.0
C57 C 0.9217 0.78353 0.08157 0.0
C58 C 0.98459 0.7925 0.08197 0.0
C59 C 0.26851 0.75346 0.05836 0.0
O60 O 0.35943 0.77443 0.08832 0.0
O61 O 0.27074 0.80305 0.09605 0.0
O62 O 0.40698 0.70172 0.1048 0.0
O63 O 0.40632 0.70388 0.07737 0.0
O64 O 0.28512 0.69946 0.11559 0.0
O65 O 0.26648 0.74975 0.10968 0.0
O66 O 0.17733 0.70598 0.0891 0.0
O67 O 0.26988 0.67924 0.08275 0.0
O68 O 0.12547 0.78545 0.07739 0.0
O69 O 0.12684 0.772 0.10396 0.0
O70 O 0.23973 0.7807 0.06313 0.0
O71 O 0.26304 0.73129 0.06989 0.0
H72 H 0.49518 0.75195 0.07552 0.0
H73 H 0.60653 0.7653 0.07505 0.0
H74 H 0.64292 0.67785 0.10628 0.0
H75 H 0.53215 0.66445 0.10652 0.0
H76 H 0.0399 0.72577 0.10473 0.0
H77 H 0.92996 0.71032 0.10428 0.0
H78 H 0.88947 0.79999 0.07503 0.0
H79 H 0.99913 0.81583 0.07594 0.0
Ho80 Ho 0.98769 0.72203 0.2015 0.0
Ho81 Ho 0.11479 0.75933 0.20663 0.0
C82 C 0.98845 0.80264 0.20456 0.0
C83 C 0.87433 0.7009 0.1986 0.0
C84 C 0.8101 0.71138 0.2025 0.0
C85 C 0.79601 0.74389 0.20851 0.0
C86 C 0.73399 0.75397 0.2107 0.0
C87 C 0.68516 0.73159 0.20699 0.0
C88 C 0.69983 0.69875 0.20146 0.0
C89 C 0.76161 0.68883 0.19919 0.0
C90 C 0.06724 0.72563 0.17451 0.0
C91 C 0.09985 0.67732 0.21226 0.0
C92 C 0.22494 0.78113 0.19924 0.0
C93 C 0.29086 0.77432 0.20343 0.0
C94 C 0.31662 0.74181 0.2016 0.0
C95 C 0.38039 0.73655 0.20362 0.0
C96 C 0.42012 0.76358 0.20759 0.0
C97 C 0.39387 0.79583 0.2101 0.0
C98 C 0.33002 0.80115 0.20792 0.0
C99 C 0.06482 0.74739 0.23769 0.0
O100 O 0.95754 0.77439 0.20691 0.0
O101 O 0.04962 0.80346 0.20232 0.0
O102 O 0.90324 0.71857 0.18702 0.0
O103 O 0.91012 0.69302 0.21135 0.0
O104 O 0.03487 0.69915 0.17846 0.0
O105 O 0.0552 0.74871 0.18501 0.0
O106 O 0.13691 0.70295 0.20799 0.0
O107 O 0.03934 0.68062 0.21339 0.0
O108 O 0.18981 0.79513 0.21085 0.0
O109 O 0.19598 0.75763 0.19075 0.0
O110 O 0.11753 0.7623 0.23502 0.0
O111 O 0.04156 0.73967 0.22346 0.0
H112 H 0.8328 0.76157 0.2113 0.0
H113 H 0.72423 0.77924 0.21525 0.0
H114 H 0.66336 0.68099 0.19843 0.0
H115 H 0.7715 0.66365 0.1945 0.0
H116 H 0.28783 0.72051 0.19814 0.0
H117 H 0.39888 0.71142 0.20153 0.0
H118 H 0.4227 0.81705 0.21361 0.0
H119 H 0.31142 0.82645 0.20941 0.0
Ho120 Ho 0.32649 0.50185 0.20588 0.0
Ho121 Ho 0.19853 0.4612 0.20705 0.0
C122 C 0.32817 0.42018 0.20255 0.0
C123 C 0.43884 0.52458 0.20891 0.0
C124 C 0.5041 0.51266 0.20796 0.0
C125 C 0.5477 0.52542 0.21941 0.0
C126 C 0.6104 0.51619 0.21823 0.0
C127 C 0.63114 0.49392 0.20554 0.0
C128 C 0.58702 0.48065 0.19427 0.0
C129 C 0.52431 0.49007 0.1954 0.0
C130 C 0.25561 0.50046 0.17737 0.0
C131 C 0.20664 0.54286 0.21439 0.0
C132 C 0.09166 0.43961 0.19663 0.0
C133 C 1.02458 0.44505 0.1995 0.0
C134 C 0.98192 0.42799 0.18927 0.0
C135 C 0.91837 0.43516 0.19038 0.0
C136 C 0.89607 0.45971 0.20172 0.0
C137 C 0.93884 0.47615 0.21232 0.0
C138 C 1.0026 0.469 0.21116 0.0
C139 C 0.23908 0.47154 0.23918 0.0
O140 O 0.35913 0.44866 0.20426 0.0
O141 O 0.26648 0.41835 0.20247 0.0
O142 O 0.40746 0.52536 0.19479 0.0
O143 O 0.4054 0.51406 0.22175 0.0
O144 O 0.28738 0.52653 0.18229 0.0
O145 O 0.26509 0.47635 0.18756 0.0
O146 O 0.17344 0.51694 0.2087 0.0
O147 O 0.26668 0.54086 0.21725 0.0
O148 O 0.12361 0.42449 0.20854 0.0
O149 O 0.12135 0.46517 0.18994 0.0
O150 O 0.18857 0.45552 0.23534 0.0
O151 O 0.26494 0.4808 0.2255 0.0
H152 H 0.53339 0.54304 0.22915 0.0
H153 H 0.64292 0.52708 0.22707 0.0
H154 H 0.60087 0.46288 0.18458 0.0
H155 H 0.49177 0.47996 0.18636 0.0
H156 H 0.99792 0.40953 0.18013 0.0
H157 H 0.88664 0.42159 0.18228 0.0
H158 H 0.92314 0.4952 0.22118 0.0
H159 H 0.03482 0.48266 0.21908 0.0
Ho160 Ho 0.94544 0.50907 0.96182 0.0
Ho161 Ho 0.06477 0.47078 0.95845 0.0
C162 C 0.95042 0.42651 0.96624 0.0
C163 C 0.83247 0.53135 0.95814 0.0
C164 C 0.76653 0.52082 0.95989 0.0
C165 C 0.7427 0.49254 0.95133 0.0
C166 C 0.67896 0.48529 0.95186 0.0
C167 C 0.63747 0.50621 0.96086 0.0
C168 C 0.66185 0.53381 0.96983 0.0
C169 C 0.72545 0.54109 0.96927 0.0
C170 C 1.00609 0.50317 0.99179 0.0
C171 C 0.06936 0.55086 0.95703 0.0
C172 C 0.17757 0.44704 0.95821 0.0
C173 C 0.24328 0.45809 0.95857 0.0
C174 C 0.26303 0.48591 0.96817 0.0
C175 C 0.32612 0.49482 0.96862 0.0
C176 C 0.37072 0.47604 0.95953 0.0
C177 C 0.3505 0.44829 0.94993 0.0
C178 C 0.28761 0.43951 0.94944 0.0
C179 C 0.99334 0.47499 0.92991 0.0
O180 O 0.91696 0.4536 0.96221 0.0
O181 O 1.0107 0.42817 0.96818 0.0
O182 O 0.86457 0.53525 0.97196 0.0
O183 O 0.86521 0.51769 0.94602 0.0
O184 O 0.97657 0.52992 0.98668 0.0
O185 O 1.00209 0.48046 0.98052 0.0
O186 O 0.09672 0.52331 0.96248 0.0
O187 O 1.00934 0.55111 0.95351 0.0
O188 O 0.14619 0.45396 0.94454 0.0
O189 O 0.14443 0.45106 0.97194 0.0
O190 O 1.02188 0.44789 0.93491 0.0
O191 O 1.00504 0.49851 0.94016 0.0
H192 H 0.77301 0.47639 0.94395 0.0
H193 H 0.66191 0.46379 0.94483 0.0
H194 H 0.63169 0.54993 0.97727 0.0
H195 H 0.74246 0.56304 0.97597 0.0
H196 H 0.22989 0.5005 0.97546 0.0
H197 H 0.34013 0.51597 0.97637 0.0
H198 H 0.38342 0.43341 0.94271 0.0
H199 H 0.27359 0.4179 0.942 0.0
Ho200 Ho 0.86398 0.21073 0.96053 0.0
Ho201 Ho 0.73563 0.24773 0.95685 0.0
C202 C 0.84673 0.29222 0.96684 0.0
C203 C 0.97349 0.18899 0.95247 0.0
C204 C 0.03852 0.19468 0.95739 0.0
C205 C 0.05619 0.22426 0.96587 0.0
C206 C 0.11907 0.23137 0.96848 0.0
C207 C 0.16533 0.20907 0.96262 0.0
C208 C 0.14719 0.17875 0.95483 0.0
C209 C 0.08434 0.17169 0.9522 0.0
C210 C 0.81665 0.22115 0.9921 0.0
C211 C 0.73839 0.16791 0.95888 0.0
C212 C 0.62099 0.26673 0.95451 0.0
C213 C 0.55747 0.2558 0.95917 0.0
C214 C 0.53439 0.22394 0.95446 0.0
C215 C 0.47151 0.21617 0.95672 0.0
C216 C 0.4304 0.24008 0.96369 0.0
C217 C 0.45441 0.27114 0.96929 0.0
C218 C 0.51719 0.27896 0.96696 0.0
C219 C 0.81317 0.24679 0.9293 0.0
O220 O 0.88387 0.26719 0.96176 0.0
O221 O 0.78685 0.2883 0.96911 0.0
O222 O 0.93741 0.17343 0.96336 0.0
O223 O 0.94612 0.21465 0.9451 0.0
O224 O 0.86928 0.20643 0.98899 0.0
O225 O 0.79233 0.22912 0.97805 0.0
O226 O 0.70956 0.19554 0.96367 0.0
O227 O 0.79816 0.16788 0.95474 0.0
O228 O 0.64994 0.24896 0.94297 0.0
O229 O 0.65769 0.27673 0.96667 0.0
O230 O 0.77987 0.27252 0.93386 0.0
O231 O 0.80248 0.22277 0.93943 0.0
H232 H 1.02149 0.24232 0.97001 0.0
H233 H 0.13158 0.25461 0.97481 0.0
H234 H 0.18172 0.16112 0.95016 0.0
H235 H 0.07161 0.14878 0.94558 0.0
H236 H 0.56433 0.20544 0.94847 0.0
H237 H 0.45454 0.19199 0.95232 0.0
H238 H 0.42432 0.28975 0.97512 0.0
H239 H 0.53386 0.30362 0.97076 0.0
Ho240 Ho 0.95482 0.21149 0.84262 0.0
Ho241 Ho 0.07429 0.2505 0.84636 0.0
C242 C 0.95924 0.29401 0.83779 0.0
C243 C 0.8415 0.18956 0.84574 0.0
C244 C 0.77603 0.2012 0.84448 0.0
C245 C 0.75271 0.22806 0.85429 0.0
C246 C 0.68941 0.23651 0.85381 0.0
C247 C 0.6481 0.21847 0.84346 0.0
C248 C 0.67178 0.19196 0.83352 0.0
C249 C 0.73488 0.18344 0.83404 0.0
C250 C 1.01888 0.21661 0.81309 0.0
C251 C 0.07936 0.17007 0.84811 0.0
C252 C 0.18656 0.27455 0.84673 0.0
C253 C 0.25256 0.2638 0.84635 0.0
C254 C 0.27441 0.23837 0.83545 0.0
C255 C 0.3379 0.23025 0.83485 0.0
C256 C 0.38086 0.24746 0.84508 0.0
C257 C 0.35842 0.27241 0.85619 0.0
C258 C 0.29515 0.28049 0.85678 0.0
C259 C 0.99909 0.24791 0.87431 0.0
O260 O 0.92597 0.2669 0.84185 0.0
O261 O 1.01979 0.29259 0.83611 0.0
O262 O 0.8735 0.18766 0.83173 0.0
O263 O 0.87467 0.20072 0.85833 0.0
O264 O 0.98806 0.19016 0.81798 0.0
O265 O 1.01379 0.23952 0.82424 0.0
O266 O 0.1076 0.19788 0.84339 0.0
O267 O 1.01852 0.16903 0.85057 0.0
O268 O 0.15483 0.26743 0.86038 0.0
O269 O 0.15394 0.27069 0.83296 0.0
O270 O 1.02959 0.27443 0.86939 0.0
O271 O 1.01182 0.22378 0.86444 0.0
H272 H 0.7831 0.24225 0.86251 0.0
H273 H 0.67267 0.25714 0.86158 0.0
H274 H 0.64115 0.17712 0.82566 0.0
H275 H 0.75136 0.16239 0.82651 0.0
H276 H 0.24256 0.22485 0.82736 0.0
H277 H 0.35327 0.21032 0.82645 0.0
H278 H 0.39006 0.28625 0.8642 0.0
H279 H 0.27953 0.30025 0.86526 0.0
Ho280 Ho 0.86604 0.50984 0.84161 0.0
Ho281 Ho 0.73894 0.47231 0.84585 0.0
C282 C 0.85085 0.42761 0.83634 0.0
C283 C 0.97494 0.53234 0.84953 0.0
C284 C 0.04083 0.52723 0.84486 0.0
C285 C 0.06283 0.49568 0.83928 0.0
C286 C 0.12654 0.4903 0.83677 0.0
C287 C 0.16953 0.51639 0.8397 0.0
C288 C 0.14699 0.54822 0.84481 0.0
C289 C 0.08334 0.55355 0.84735 0.0
C290 C 0.82026 0.49782 0.81021 0.0
C291 C 0.73949 0.55168 0.84062 0.0
C292 C 0.6237 0.45469 0.84886 0.0
C293 C 0.56075 0.46635 0.84406 0.0
C294 C 0.54215 0.50019 0.84619 0.0
C295 C 0.48014 0.5097 0.84373 0.0
C296 C 0.43542 0.48565 0.83902 0.0
C297 C 0.45466 0.45206 0.83634 0.0
C298 C 0.51664 0.44255 0.83882 0.0
C299 C 0.81511 0.47595 0.87346 0.0
O300 O 0.88722 0.45331 0.84086 0.0
O301 O 0.79068 0.43081 0.8344 0.0
O302 O 0.93895 0.54733 0.83848 0.0
O303 O 0.94773 0.5069 0.85715 0.0
O304 O 0.87269 0.51268 0.81317 0.0
O305 O 0.79563 0.49002 0.8243 0.0
O306 O 0.71262 0.52302 0.83686 0.0
O307 O 0.79823 0.55304 0.84563 0.0
O308 O 0.65326 0.47312 0.85993 0.0
O309 O 0.66014 0.44314 0.83688 0.0
O310 O 0.78359 0.44945 0.86922 0.0
O311 O 0.80396 0.49918 0.8629 0.0
H312 H 1.03098 0.4749 0.83735 0.0
H313 H 0.14227 0.46531 0.83316 0.0
H314 H 0.17875 0.56889 0.8471 0.0
H315 H 0.06747 0.57805 0.85171 0.0
H316 H 0.57506 0.51914 0.85025 0.0
H317 H 0.4669 0.53581 0.84581 0.0
H318 H 0.4213 0.43277 0.83302 0.0
H319 H 0.52966 0.41627 0.83725 0.0
Ho320 Ho 0.9959 0.00213 0.59784 0.0
Ho321 Ho 0.11584 0.96498 0.5912 0.0
C322 C 0.99287 0.92133 0.59572 0.0
C323 C 0.88336 0.02574 0.60037 0.0
C324 C 0.81754 0.01479 0.60052 0.0
C325 C 0.79689 -0.01344 0.59137 0.0
C326 C 0.73356 0.97807 0.59119 0.0
C327 C 0.68969 -0.00255 0.60024 0.0
C328 C 0.71088 0.02547 0.60947 0.0
C329 C 0.77397 0.03397 0.60961 0.0
C330 C 0.07573 -0.00218 0.62453 0.0
C331 C 0.10771 0.04764 0.58844 0.0
C332 C 0.22904 0.94173 0.59189 0.0
C333 C 0.29501 0.952 0.59315 0.0
C334 C 0.31428 0.97941 0.60311 0.0
C335 C 0.37768 -0.01274 0.60452 0.0
C336 C 0.42304 0.96782 0.59604 0.0
C337 C 0.40319 0.94072 0.58595 0.0
C338 C 0.34005 0.93289 0.58457 0.0
C339 C 0.04571 0.972 0.56291 0.0
O340 O 0.96224 0.94984 0.5943 0.0
O341 O 0.05423 0.92017 0.59661 0.0
O342 O 0.9172 0.01716 0.61335 0.0
O343 O 0.91389 0.02336 0.58609 0.0
O344 O 0.04351 0.02445 0.6207 0.0
O345 O 0.06275 0.97447 0.61425 0.0
O346 O 0.14297 0.02078 0.59177 0.0
O347 O 0.04713 0.04538 0.58765 0.0
O348 O 0.19982 0.94957 0.578 0.0
O349 O 0.19399 0.94517 0.60529 0.0
O350 O 0.07716 0.94515 0.56693 0.0
O351 O 0.05268 -0.00606 0.57445 0.0
H352 H 0.82954 0.97129 0.58427 0.0
H353 H 0.71886 0.95628 0.58398 0.0
H354 H 0.67844 0.04138 0.61629 0.0
H355 H 0.78867 0.05597 0.61667 0.0
H356 H 0.28046 -0.00537 0.60984 0.0
H357 H 0.39115 0.00871 0.61214 0.0
H358 H 0.43667 0.92512 0.57932 0.0
H359 H 0.32639 0.91153 0.57688 0.0
Ho360 Ho 0.32837 0.22437 0.59854 0.0
Ho361 Ho 0.20062 0.26279 0.59418 0.0
C362 C 0.32699 0.30545 0.59694 0.0
C363 C 0.44138 0.20201 0.60061 0.0
C364 C 0.50611 0.21136 0.59665 0.0
C365 C 0.52255 0.24433 0.59178 0.0
C366 C 0.58521 0.25304 0.58958 0.0
C367 C 0.63232 0.22878 0.59198 0.0
C368 C 0.6153 0.19565 0.59652 0.0
C369 C 0.55289 0.18708 0.59883 0.0
C370 C 0.24899 0.22553 0.62562 0.0
C371 C 0.21438 0.18119 0.58804 0.0
C372 C 0.08979 0.28358 0.60161 0.0
C373 C 1.02466 0.27541 0.5972 0.0
C374 C 1.00279 0.24192 0.59768 0.0
C375 C 0.93978 0.23493 0.59529 0.0
C376 C 0.89709 0.26118 0.59217 0.0
C377 C 0.91937 0.2946 0.59131 0.0
C378 C 0.98242 0.30161 0.59382 0.0
C379 C 0.2499 0.25157 0.56291 0.0
O380 O 0.35797 0.27732 0.59408 0.0
O381 O 0.26584 0.30623 0.59923 0.0
O382 O 0.41383 0.21951 0.61249 0.0
O383 O 0.40466 0.19537 0.58791 0.0
O384 O 0.28307 0.19988 0.62138 0.0
O385 O 0.26036 0.24959 0.61554 0.0
O386 O 0.17818 0.20691 0.59258 0.0
O387 O 0.27507 0.18356 0.58676 0.0
O388 O 0.12441 0.2981 0.59002 0.0
O389 O 0.11989 0.26055 0.61021 0.0
O390 O 0.19746 0.26671 0.56575 0.0
O391 O 0.27319 0.24343 0.57709 0.0
H392 H 0.48711 0.26338 0.58994 0.0
H393 H 0.5969 0.27875 0.58607 0.0
H394 H 0.65043 0.17656 0.59878 0.0
H395 H 0.54122 0.16156 0.60271 0.0
H396 H 0.03401 0.22113 0.6004 0.0
H397 H 0.92427 0.209 0.59647 0.0
H398 H 0.88786 0.3154 0.58888 0.0
H399 H 0.99798 0.32764 0.59349 0.0
Ho400 Ho 0.98538 0.22044 0.70772 0.0
Ho401 Ho 0.11154 0.26119 0.71001 0.0
C402 C 0.98242 0.30187 0.70881 0.0
C403 C 0.87208 0.19839 0.70782 0.0
C404 C 0.80804 0.21164 0.70959 0.0
C405 C 0.76195 0.19108 0.7168 0.0
C406 C 0.69981 0.20162 0.71704 0.0
C407 C 0.68239 0.2329 0.70998 0.0
C408 C 0.72907 0.25402 0.70333 0.0
C409 C 0.79121 0.24347 0.70309 0.0
C410 C 0.05872 0.22369 0.6795 0.0
C411 C 0.103 0.17889 0.71642 0.0
C412 C 0.22004 0.28242 0.70047 0.0
C413 C 0.28706 0.27475 0.70307 0.0
C414 C 0.31848 0.25371 0.69153 0.0
C415 C 0.38222 0.24783 0.69299 0.0
C416 C 0.41672 0.26315 0.7059 0.0
C417 C 0.3854 0.28377 0.71765 0.0
C418 C 0.32131 0.28969 0.71619 0.0
C419 C 0.06976 0.24871 0.74192 0.0
O420 O 0.95382 0.27303 0.71145 0.0
O421 O 0.04312 0.30391 0.70582 0.0
O422 O 0.90228 0.2074 0.69417 0.0
O423 O 0.90719 0.19841 0.7213 0.0
O424 O 1.02806 0.1971 0.68428 0.0
O425 O 0.04758 0.24737 0.6898 0.0
O426 O 0.13672 0.2053 0.71135 0.0
O427 O 0.04272 0.18055 0.7187 0.0
O428 O 0.18828 0.29653 0.71277 0.0
O429 O 0.18812 0.25936 0.69253 0.0
O430 O 0.11966 0.26562 0.73831 0.0
O431 O 0.04429 0.24016 0.72813 0.0
H432 H 0.77377 0.16639 0.72183 0.0
H433 H 0.66503 0.18475 0.72223 0.0
H434 H 0.71746 0.27859 0.69814 0.0
H435 H 0.82587 0.25992 0.69752 0.0
H436 H 0.2939 0.24199 0.68117 0.0
H437 H 0.4046 0.23123 0.68395 0.0
H438 H 0.41075 0.29592 0.72773 0.0
H439 H 0.29885 0.30632 0.72519 0.0
Ho440 Ho 0.33457 0.00356 0.70694 0.0
Ho441 Ho 0.21535 0.96462 0.7104 0.0
C442 C 0.34043 0.92322 0.70653 0.0
C443 C 0.44682 0.02794 0.70651 0.0
C444 C 0.51328 0.01807 0.70697 0.0
C445 C 0.53435 -0.0108 0.71565 0.0
C446 C 0.59809 0.98154 0.71624 0.0
C447 C 0.64203 0.00276 0.70832 0.0
C448 C 0.62038 0.03124 0.69941 0.0
C449 C 0.55689 0.03877 0.69877 0.0
C450 C 0.26365 -0.00143 0.67841 0.0
C451 C 0.21856 0.04731 0.71423 0.0
C452 C 0.1024 0.94238 0.7069 0.0
C453 C 0.03683 0.95379 0.70845 0.0
C454 C 1.01604 0.98444 0.70137 0.0
C455 C 0.95286 -0.00678 0.70191 0.0
C456 C 0.90896 0.97169 0.70964 0.0
C457 C 0.93024 0.94127 0.71689 0.0
C458 C 0.99328 0.93247 0.71629 0.0
C459 C 0.27597 0.97101 0.74027 0.0
O460 O 0.36735 0.95117 0.71149 0.0
O461 O 0.28054 0.92253 0.70279 0.0
O462 O 0.41585 0.02018 0.69292 0.0
O463 O 0.41385 0.02391 0.72029 0.0
O464 O 0.29197 0.02579 0.68317 0.0
O465 O 0.27533 0.9753 0.68888 0.0
O466 O 0.18574 0.01991 0.71059 0.0
O467 O 0.27906 0.04636 0.71596 0.0
O468 O 0.13426 0.9391 0.72081 0.0
O469 O 0.13553 0.95516 0.6946 0.0
O470 O 0.24707 0.94409 0.73527 0.0
O471 O 0.27134 -0.00632 0.72893 0.0
H472 H 0.50169 0.97283 0.72209 0.0
H473 H 0.61315 0.95935 0.72317 0.0
H474 H 0.65261 0.04767 0.69283 0.0
H475 H 0.5418 0.06106 0.69192 0.0
H476 H 0.04837 0.00136 0.69513 0.0
H477 H 0.93825 0.0165 0.69588 0.0
H478 H 0.89802 0.92415 0.72302 0.0
H479 H 1.00793 0.90862 0.72176 0.0
Ho480 Ho 0.95797 0.00882 0.46108 0.0
Ho481 Ho 0.07832 0.96982 0.45715 0.0
C482 C 0.96233 0.92614 0.46434 0.0
C483 C 0.84527 0.03199 0.45813 0.0
C484 C 0.77928 0.02144 0.45718 0.0
C485 C 0.75999 -0.00727 0.44817 0.0
C486 C 0.69662 0.9844 0.44724 0.0
C487 C 0.65128 0.00471 0.45521 0.0
C488 C 0.67116 0.03329 0.46424 0.0
C489 C 0.73421 0.04152 0.46519 0.0
C490 C 1.0213 0.0026 0.49052 0.0
C491 C 0.08256 0.05109 0.45647 0.0
C492 C 0.19092 0.94589 0.45756 0.0
C493 C 0.25653 0.95697 0.45581 0.0
C494 C 0.27839 -0.01299 0.46315 0.0
C495 C 0.34166 -0.00457 0.46226 0.0
C496 C 0.38439 0.97419 0.45389 0.0
C497 C 0.36203 0.94448 0.44632 0.0
C498 C 0.29894 0.93602 0.44728 0.0
C499 C 1.0054 0.97453 0.42907 0.0
O500 O 0.9298 0.95344 0.46013 0.0
O501 O 1.02237 0.92765 0.46701 0.0
O502 O 0.87324 0.02785 0.47259 0.0
O503 O 0.88151 0.02523 0.44527 0.0
O504 O 0.99139 0.02941 0.48567 0.0
O505 O 1.01612 0.97987 0.47928 0.0
O506 O 0.1127 0.02255 0.45858 0.0
O507 O 1.02129 0.05265 0.45536 0.0
O508 O 0.15655 0.94698 0.444 0.0
O509 O 0.16053 0.95536 0.4711 0.0
O510 O 0.0358 0.94763 0.43353 0.0
O511 O 1.01715 -0.00215 0.43942 0.0
H512 H 0.79375 0.97679 0.44186 0.0
H513 H 0.68323 0.96186 0.44044 0.0
H514 H 0.63775 0.04965 0.47041 0.0
H515 H 0.74781 0.0639 0.47211 0.0
H516 H 0.2468 0.00374 0.46978 0.0
H517 H 0.35727 0.01856 0.46817 0.0
H518 H 0.39362 0.92723 0.44005 0.0
H519 H 0.28341 0.91262 0.4416 0.0
Ho520 Ho 0.86907 0.7108 0.45397 0.0
Ho521 Ho 0.73888 0.74892 0.45243 0.0
C522 C 0.8557 0.79224 0.46025 0.0
C523 C 0.97633 0.68888 0.44387 0.0
C524 C 0.04308 0.69272 0.44733 0.0
C525 C 0.08571 0.67278 0.43835 0.0
C526 C 0.14948 0.67871 0.4397 0.0
C527 C 0.17186 0.7048 0.45005 0.0
C528 C 0.12907 0.72393 0.45955 0.0
C529 C 0.06513 0.71806 0.45814 0.0
C530 C 0.82787 0.72223 0.48613 0.0
C531 C 0.74163 0.66773 0.44943 0.0
C532 C 0.62626 0.77127 0.45591 0.0
C533 C 0.56147 0.75921 0.45508 0.0
C534 C 0.51652 0.77422 0.46552 0.0
C535 C 0.45434 0.76426 0.46461 0.0
C536 C 0.43569 0.73902 0.45322 0.0
C537 C 0.48116 0.72354 0.44299 0.0
C538 C 0.5434 0.73365 0.44386 0.0
C539 C 0.80929 0.74676 0.42358 0.0
O540 O 0.89121 0.76702 0.45467 0.0
O541 O 0.79635 0.78862 0.46361 0.0
O542 O 0.9423 0.67298 0.45513 0.0
O543 O 0.94881 0.7157 0.43771 0.0
O544 O 0.87966 0.7072 0.48233 0.0
O545 O 0.80132 0.72996 0.47234 0.0
O546 O 0.70866 0.69558 0.45103 0.0
O547 O 0.80339 0.66696 0.44955 0.0
O548 O 0.65746 0.77258 0.4417 0.0
O549 O 0.65971 0.76005 0.4685 0.0
O550 O 0.77571 0.77255 0.42815 0.0
O551 O 0.80178 0.72341 0.43431 0.0
H552 H 0.06956 0.65317 0.42991 0.0
H553 H 0.18132 0.66314 0.43248 0.0
H554 H 0.14497 0.7442 0.46762 0.0
H555 H 0.03288 0.7339 0.46508 0.0
H556 H 0.52942 0.79402 0.47426 0.0
H557 H 0.42059 0.77681 0.47261 0.0
H558 H 0.46867 0.70353 0.43434 0.0
H559 H 0.57731 0.72175 0.43569 0.0
Ho560 Ho 0.94029 0.70558 0.33914 0.0
Ho561 Ho 0.06741 0.7472 0.34039 0.0
C562 C 0.94769 0.78789 0.33278 0.0
C563 C 0.83222 0.68374 0.34871 0.0
C564 C 0.76533 0.69125 0.34581 0.0
C565 C 0.73903 0.72223 0.35091 0.0
C566 C 0.67527 0.72818 0.34928 0.0
C567 C 0.63578 0.70328 0.34264 0.0
C568 C 0.6621 0.67243 0.33737 0.0
C569 C 0.72608 0.66647 0.33898 0.0
C570 C 0.98201 0.71737 0.30699 0.0
C571 C 0.07058 0.66578 0.34392 0.0
C572 C 0.17999 0.77 0.3382 0.0
C573 C 0.24481 0.75753 0.33885 0.0
C574 C 0.26191 0.72533 0.3329 0.0
C575 C 0.32422 0.7148 0.33339 0.0
C576 C 0.37053 0.73624 0.33986 0.0
C577 C 0.35282 0.76826 0.34593 0.0
C578 C 0.29078 0.77871 0.34544 0.0
C579 C 0.99514 0.74492 0.36879 0.0
O580 O 0.91534 0.76147 0.33845 0.0
O581 O 1.00724 0.786 0.32911 0.0
O582 O 0.8641 0.66984 0.33639 0.0
O583 O 0.86403 0.7067 0.35679 0.0
O584 O 0.93159 0.70106 0.31073 0.0
O585 O 1.00696 0.72598 0.32081 0.0
O586 O 0.10044 0.69428 0.34125 0.0
O587 O 1.00896 0.66341 0.34442 0.0
O588 O 0.14845 0.76879 0.35234 0.0
O589 O 0.14664 0.76158 0.32507 0.0
O590 O 1.02613 0.77136 0.36387 0.0
O591 O 1.0059 0.721 0.35864 0.0
H592 H 0.76745 0.7418 0.35645 0.0
H593 H 0.65663 0.75213 0.35358 0.0
H594 H 0.6333 0.65291 0.33192 0.0
H595 H 0.74478 0.64229 0.33505 0.0
H596 H 0.22728 0.70844 0.32778 0.0
H597 H 0.33628 0.69015 0.32842 0.0
H598 H 0.38709 0.78529 0.35112 0.0
H599 H 0.27872 0.80359 0.35015 0.0
Ho600 Ho 0.85944 0.00556 0.34256 0.0
Ho601 Ho 0.7384 0.97018 0.34839 0.0
C602 C 0.84845 0.92336 0.33985 0.0
C603 C 0.97267 0.02809 0.34345 0.0
C604 C 0.03785 0.01784 0.34637 0.0
C605 C 0.07623 0.03902 0.35595 0.0
C606 C 0.13971 0.03216 0.35748 0.0
C607 C 0.16638 0.00407 0.34933 0.0
C608 C 0.1274 0.98217 0.34024 0.0
C609 C 0.06377 -0.01101 0.33875 0.0
C610 C 0.7912 0.00204 0.31391 0.0
C611 C 0.73747 0.05066 0.34734 0.0
C612 C 0.626 0.94669 0.35002 0.0
C613 C 0.56048 0.9579 0.3498 0.0
C614 C 0.51701 0.93835 0.34104 0.0
C615 C 0.45408 0.94703 0.34121 0.0
C616 C 0.43307 0.97555 0.35015 0.0
C617 C 0.47679 -0.00467 0.35885 0.0
C618 C 0.53996 -0.01337 0.35866 0.0
C619 C 0.8159 0.97287 0.37573 0.0
O620 O 0.8848 0.94934 0.34371 0.0
O621 O 0.78869 0.9272 0.33777 0.0
O622 O 0.94573 0.01707 0.32978 0.0
O623 O 0.93526 0.02843 0.35647 0.0
O624 O 0.82387 0.02784 0.31853 0.0
O625 O 0.79565 0.97891 0.32507 0.0
O626 O 0.70561 0.02276 0.34557 0.0
O627 O 0.79889 0.05093 0.34808 0.0
O628 O 0.65903 0.95446 0.36326 0.0
O629 O 0.65732 0.9496 0.33592 0.0
O630 O 0.78305 0.94678 0.37157 0.0
O631 O 0.8048 -0.00355 0.36538 0.0
H632 H 0.05729 0.06138 0.36196 0.0
H633 H 0.16801 0.04904 0.36494 0.0
H634 H 0.14645 0.96028 0.33385 0.0
H635 H 0.03526 0.97217 0.33132 0.0
H636 H 0.53172 0.91604 0.33417 0.0
H637 H 0.42175 0.93141 0.3343 0.0
H638 H 0.46202 0.01713 0.36609 0.0
H639 H 0.5725 0.00207 0.3656 0.0
Ho640 Ho 0.49217 0.50532 0.59508 0.0
Ho641 Ho 0.61032 0.46583 0.59004 0.0
C642 C 0.48467 0.42474 0.59372 0.0
C643 C 0.3791 0.52844 0.59692 0.0
C644 C 0.31322 0.51714 0.59586 0.0
C645 C 0.2728 0.53322 0.58448 0.0
C646 C 0.20927 0.52546 0.58432 0.0
C647 C 0.18424 0.50158 0.59567 0.0
C648 C 0.22505 0.48483 0.60678 0.0
C649 C 0.28865 0.49254 0.60691 0.0
C650 C 0.56845 0.50043 0.62257 0.0
C651 C 0.60686 0.54895 0.58692 0.0
C652 C 0.72356 0.44315 0.59248 0.0
C653 C 0.78876 0.45513 0.59388 0.0
C654 C 0.82885 0.4389 0.60528 0.0
C655 C 0.89176 0.44772 0.60609 0.0
C656 C 0.91636 0.4731 0.59553 0.0
C657 C 0.87596 0.48968 0.58424 0.0
C658 C 0.81283 0.4809 0.58346 0.0
C659 C 0.54518 0.47343 0.5609 0.0
O660 O 0.45815 0.45361 0.59001 0.0
O661 O 0.54523 0.42282 0.59652 0.0
O662 O 0.41134 0.51849 0.60999 0.0
O663 O 0.41207 0.52862 0.583 0.0
O664 O 0.53851 0.52751 0.6182 0.0
O665 O 0.55488 0.477 0.61241 0.0
O666 O 0.63959 0.52129 0.5905 0.0
O667 O 0.54624 0.54813 0.58551 0.0
O668 O 0.695 0.44803 0.57815 0.0
O669 O 0.68708 0.44798 0.60548 0.0
O670 O 0.57465 0.44614 0.56536 0.0
O671 O 0.55172 0.49555 0.57238 0.0
H672 H 0.29017 0.55245 0.57591 0.0
H673 H 0.17936 0.5389 0.57561 0.0
H674 H 0.20782 0.46567 0.61539 0.0
H675 H 0.31835 0.47949 0.61581 0.0
H676 H 0.81171 0.41878 0.61336 0.0
H677 H 0.92157 0.43396 0.61471 0.0
H678 H 0.89325 0.50945 0.57598 0.0
H679 H 0.78313 0.49395 0.57455 0.0
Ho680 Ho 0.82928 0.72632 0.59115 0.0
Ho681 Ho 0.7023 0.76466 0.58731 0.0
C682 C 0.8296 0.80611 0.58781 0.0
C683 C 0.94449 0.70832 0.59386 0.0
C684 C 1.00771 0.72104 0.58983 0.0
C685 C 1.02973 0.75167 0.59655 0.0
C686 C 0.09192 0.76113 0.59444 0.0
C687 C 0.13359 0.74036 0.58547 0.0
C688 C 0.111 0.71026 0.57832 0.0
C689 C 0.04884 0.70072 0.58049 0.0
C690 C 0.75305 0.72994 0.61885 0.0
C691 C 0.71622 0.68206 0.58282 0.0
C692 C 0.59372 0.7877 0.59562 0.0
C693 C 0.52768 0.78312 0.59128 0.0
C694 C 0.50755 0.75524 0.58183 0.0
C695 C 0.44396 0.74955 0.5794 0.0
C696 C 0.3993 0.77164 0.58634 0.0
C697 C 0.41998 0.79984 0.59554 0.0
C698 C 0.48345 0.80552 0.59794 0.0
C699 C 0.74805 0.75207 0.55575 0.0
O700 O 0.85633 0.77777 0.58325 0.0
O701 O 0.77021 0.8072 0.59237 0.0
O702 O 0.91358 0.72441 0.60564 0.0
O703 O 0.90916 0.6988 0.5813 0.0
O704 O 0.78406 0.70328 0.61443 0.0
O705 O 0.76436 0.75333 0.60838 0.0
O706 O 0.68028 0.70822 0.5871 0.0
O707 O 0.77632 0.68473 0.58031 0.0
O708 O 0.62964 0.80238 0.58438 0.0
O709 O 0.6205 0.7619 0.60301 0.0
O710 O 0.69612 0.76756 0.55883 0.0
O711 O 0.7725 0.74437 0.56983 0.0
H712 H 0.99945 0.76795 0.60386 0.0
H713 H 0.10781 0.78414 0.6004 0.0
H714 H 0.14174 0.69375 0.57128 0.0
H715 H 0.03331 0.67692 0.57526 0.0
H716 H 0.54093 0.73747 0.57669 0.0
H717 H 0.42965 0.72762 0.57224 0.0
H718 H 0.38708 0.81691 0.60143 0.0
H719 H 0.49797 0.82695 0.60545 0.0
Ho720 Ho 0.49529 0.72568 0.70264 0.0
Ho721 Ho 0.62435 0.76114 0.70713 0.0
C722 C 0.50011 0.80575 0.70385 0.0
C723 C 0.38108 0.70546 0.70097 0.0
C724 C 0.31777 0.71547 0.70607 0.0
C725 C 0.3023 0.74926 0.70956 0.0
C726 C 0.24028 0.75856 0.71236 0.0
C727 C 0.19302 0.73406 0.71209 0.0
C728 C 0.20918 0.70009 0.70926 0.0
C729 C 0.27093 0.69093 0.70624 0.0
C730 C 0.5725 0.72782 0.675 0.0
C731 C 0.60569 0.67965 0.71299 0.0
C732 C 0.73551 0.78144 0.69998 0.0
C733 C 0.80035 0.77558 0.70537 0.0
C734 C 0.8235 0.7427 0.70791 0.0
C735 C 0.88672 0.73737 0.71093 0.0
C736 C 0.92817 0.76479 0.7117 0.0
C737 C 0.90444 0.79775 0.7097 0.0
C738 C 0.84123 0.80305 0.70655 0.0
C739 C 0.57468 0.75087 0.73846 0.0
O740 O 0.46841 0.7785 0.70776 0.0
O741 O 0.56114 0.80553 0.70139 0.0
O742 O 0.40794 0.72421 0.68943 0.0
O743 O 0.4192 0.69606 0.71292 0.0
O744 O 0.53775 0.70232 0.67906 0.0
O745 O 0.56342 0.75102 0.68565 0.0
O746 O 0.64366 0.70451 0.70827 0.0
O747 O 0.54568 0.68407 0.71464 0.0
O748 O 0.6986 0.79773 0.71037 0.0
O749 O 0.70803 0.75614 0.69244 0.0
O750 O 0.62793 0.76497 0.73555 0.0
O751 O 0.55081 0.74319 0.72431 0.0
H752 H 0.33787 0.76851 0.70973 0.0
H753 H 0.22912 0.78491 0.71456 0.0
H754 H 0.1737 0.68075 0.70874 0.0
H755 H 0.28188 0.66473 0.70353 0.0
H756 H 0.79316 0.72097 0.70701 0.0
H757 H 0.90345 0.71162 0.71199 0.0
H758 H 0.935 0.81942 0.71028 0.0
H759 H 0.82454 0.82862 0.70457 0.0
Ho760 Ho 0.82196 0.50064 0.70652 0.0
Ho761 Ho 0.6938 0.462 0.70884 0.0
C762 C 0.82165 0.41934 0.70556 0.0
C763 C 0.93421 0.52387 0.70807 0.0
C764 C 0.99913 0.51201 0.70832 0.0
C765 C 1.01575 0.47989 0.71447 0.0
C766 C 0.07822 0.46976 0.71457 0.0
C767 C 0.12489 0.49156 0.70847 0.0
C768 C 0.10764 0.52351 0.7022 0.0
C769 C 0.0455 0.5336 0.70215 0.0
C770 C 0.75076 0.49835 0.678 0.0
C771 C 0.70486 0.54367 0.71493 0.0
C772 C 0.58499 0.44096 0.70001 0.0
C773 C 0.51881 0.44861 0.70365 0.0
C774 C 0.49329 0.48048 0.69975 0.0
C775 C 0.42961 0.48634 0.70148 0.0
C776 C 0.38989 0.46064 0.70726 0.0
C777 C 0.41544 0.42909 0.71165 0.0
C778 C 0.47929 0.4231 0.70979 0.0
C779 C 0.73562 0.47342 0.74079 0.0
O780 O 0.85347 0.44748 0.70713 0.0
O781 O 0.76001 0.41826 0.70479 0.0
O782 O 0.90417 0.51967 0.69392 0.0
O783 O 0.89998 0.51749 0.72141 0.0
O784 O 0.78302 0.52432 0.68274 0.0
O785 O 0.75916 0.47463 0.68851 0.0
O786 O 0.67039 0.51798 0.7096 0.0
O787 O 0.76481 0.54094 0.71759 0.0
O788 O 0.61779 0.42619 0.71185 0.0
O789 O 0.61617 0.46438 0.69194 0.0
O790 O 0.68413 0.45822 0.73719 0.0
O791 O 0.76163 0.4816 0.72694 0.0
H792 H 0.98057 0.46269 0.71916 0.0
H793 H 0.08992 0.44476 0.7192 0.0
H794 H 0.14243 0.54092 0.69748 0.0
H795 H 0.03361 0.55844 0.69731 0.0
H796 H 0.52216 0.50077 0.69496 0.0
H797 H 0.41121 0.51096 0.6981 0.0
H798 H 0.38578 0.40872 0.71598 0.0
H799 H 0.49755 0.39824 0.71274 0.0
Ho800 Ho 0.45854 0.50869 0.45856 0.0
Ho801 Ho 0.57782 0.47057 0.4548 0.0
C802 C 0.46393 0.42586 0.46277 0.0
C803 C 0.34563 0.53129 0.45514 0.0
C804 C 0.27957 0.521 0.45678 0.0
C805 C 0.25614 0.492 0.44877 0.0
C806 C 0.19234 0.48486 0.44918 0.0
C807 C 0.15043 0.50662 0.45751 0.0
C808 C 0.17438 0.53502 0.46594 0.0
C809 C 0.23805 0.54216 0.4655 0.0
C810 C 0.52042 0.50308 0.48831 0.0
C811 C 0.58248 0.55056 0.45423 0.0
C812 C 0.6908 0.44716 0.45372 0.0
C813 C 0.75648 0.4581 0.45446 0.0
C814 C 0.77518 0.48705 0.46334 0.0
C815 C 0.83822 0.49607 0.464 0.0
C816 C 0.88373 0.47631 0.45578 0.0
C817 C 0.86447 0.44745 0.44689 0.0
C818 C 0.80168 0.43853 0.44622 0.0
C819 C 0.50517 0.47508 0.42648 0.0
O820 O 0.43018 0.4531 0.45912 0.0
O821 O 0.52443 0.42741 0.46427 0.0
O822 O 0.37779 0.53457 0.46898 0.0
O823 O 0.37814 0.51787 0.44291 0.0
O824 O 0.49054 0.52974 0.48324 0.0
O825 O 0.5161 0.48019 0.47711 0.0
O826 O 0.60962 0.5229 0.45961 0.0
O827 O 0.52272 0.55082 0.45038 0.0
O828 O 0.65944 0.45615 0.44036 0.0
O829 O 0.65771 0.44918 0.46757 0.0
O830 O 0.53384 0.44794 0.43135 0.0
O831 O 0.51734 0.49847 0.43675 0.0
H832 H 0.28685 0.47519 0.4419 0.0
H833 H 0.17559 0.46274 0.44259 0.0
H834 H 0.14384 0.55185 0.47285 0.0
H835 H 0.25478 0.56469 0.47177 0.0
H836 H 0.74122 0.50246 0.46988 0.0
H837 H 0.85143 0.51814 0.4712 0.0
H838 H 0.89805 0.43181 0.44032 0.0
H839 H 0.7884 0.41611 0.43928 0.0
Ho840 Ho 0.37209 0.2094 0.46143 0.0
Ho841 Ho 0.24378 0.24739 0.4592 0.0
C842 C 0.35804 0.29168 0.46662 0.0
C843 C 0.4802 0.18699 0.45236 0.0
C844 C 0.54645 0.19174 0.45654 0.0
C845 C 0.56922 0.22315 0.46197 0.0
C846 C 0.63314 0.22813 0.46403 0.0
C847 C 0.67555 0.20184 0.46067 0.0
C848 C 0.65225 0.17005 0.45592 0.0
C849 C 0.58839 0.16512 0.45382 0.0
C850 C 0.33091 0.22159 0.49349 0.0
C851 C 0.24519 0.16689 0.46156 0.0
C852 C 0.12934 0.26763 0.4585 0.0
C853 C 0.0659 0.25472 0.46159 0.0
C854 C 0.05011 0.22093 0.45824 0.0
C855 C 0.98816 0.21033 0.45923 0.0
C856 C 0.9407 0.23337 0.46345 0.0
C857 C 0.95714 0.26682 0.46745 0.0
C858 C 1.01907 0.27736 0.4665 0.0
C859 C 0.31649 0.24489 0.43072 0.0
O860 O 0.39348 0.2659 0.46155 0.0
O861 O 0.2986 0.28841 0.46993 0.0
O862 O 0.44514 0.17162 0.46356 0.0
O863 O 0.45239 0.21278 0.44522 0.0
O864 O 0.38252 0.20639 0.48978 0.0
O865 O 0.30427 0.22923 0.47972 0.0
O866 O 0.21633 0.19512 0.46532 0.0
O867 O 0.30483 0.16612 0.45719 0.0
O868 O 0.15872 0.25482 0.4455 0.0
O869 O 0.16548 0.27198 0.47159 0.0
O870 O 0.28475 0.27106 0.43552 0.0
O871 O 0.30692 0.22122 0.44117 0.0
H872 H 0.53778 0.24411 0.46418 0.0
H873 H 0.64955 0.2529 0.46771 0.0
H874 H 0.68348 0.14905 0.45363 0.0
H875 H 0.57186 0.14065 0.44968 0.0
H876 H 0.08538 0.20295 0.4544 0.0
H877 H 0.97729 0.18421 0.45645 0.0
H878 H 0.92178 0.28521 0.4707 0.0
H879 H 1.03011 0.30357 0.46905 0.0
Ho880 Ho 0.45031 0.20997 0.34361 0.0
Ho881 Ho 0.57731 0.24753 0.34748 0.0
C882 C 0.46538 0.292 0.33744 0.0
C883 C 0.34148 0.18746 0.35184 0.0
C884 C 0.27539 0.19232 0.34747 0.0
C885 C 0.25165 0.22441 0.34331 0.0
C886 C 0.18764 0.22927 0.34138 0.0
C887 C 0.14607 0.20217 0.34358 0.0
C888 C 0.17036 0.16979 0.34694 0.0
C889 C 0.23432 0.16498 0.34895 0.0
C890 C 0.49659 0.22159 0.31206 0.0
C891 C 0.57681 0.16768 0.34361 0.0
C892 C 0.69194 0.26612 0.35042 0.0
C893 C 0.75526 0.25405 0.34634 0.0
C894 C 0.77154 0.21973 0.34783 0.0
C895 C 0.83349 0.20948 0.34604 0.0
C896 C 0.88049 0.23337 0.34286 0.0
C897 C 0.86355 0.26748 0.34066 0.0
C898 C 0.8016 0.27769 0.34241 0.0
C899 C 0.49981 0.24536 0.37501 0.0
O900 O 0.42886 0.26645 0.34224 0.0
O901 O 0.52568 0.28873 0.33563 0.0
O902 O 0.37733 0.17251 0.3407 0.0
O903 O 0.36868 0.21292 0.35931 0.0
O904 O 0.4443 0.20659 0.31519 0.0
O905 O 0.52114 0.22945 0.32608 0.0
O906 O 0.60485 0.19609 0.3398 0.0
O907 O 0.51746 0.16675 0.34819 0.0
O908 O 0.66165 0.24889 0.36193 0.0
O909 O 0.65655 0.27583 0.33788 0.0
O910 O 0.53197 0.27149 0.37043 0.0
O911 O 0.51131 0.22155 0.36483 0.0
H912 H 0.28236 0.24594 0.34208 0.0
H913 H 0.17047 0.2545 0.33878 0.0
H914 H 0.1398 0.14823 0.3483 0.0
H915 H 0.25156 0.14002 0.35212 0.0
H916 H 0.73672 0.20096 0.35088 0.0
H917 H 0.84475 0.18292 0.34743 0.0
H918 H 0.89858 0.28651 0.33824 0.0
H919 H 0.79019 0.30429 0.34128 0.0
Ho920 Ho 0.36175 0.50888 0.33898 0.0
Ho921 Ho 0.24291 0.47018 0.34448 0.0
C922 C 0.35718 0.42588 0.33649 0.0
C923 C 0.47419 0.53257 0.34106 0.0
C924 C 0.54018 0.5219 0.34203 0.0
C925 C 0.57938 0.53804 0.3536 0.0
C926 C 0.643 0.53075 0.35397 0.0
C927 C 0.66922 0.50725 0.34267 0.0
C928 C 0.62953 0.4903 0.33141 0.0
C929 C 0.56572 0.4976 0.33105 0.0
C930 C 0.29574 0.5017 0.31006 0.0
C931 C 0.2365 0.55029 0.34272 0.0
C932 C 0.12955 0.44811 0.34678 0.0
C933 C 0.06447 0.46029 0.34495 0.0
C934 C 1.02473 0.44428 0.33344 0.0
C935 C 0.96179 0.45318 0.33254 0.0
C936 C 0.9368 0.47831 0.34315 0.0
C937 C 0.97685 0.49463 0.35454 0.0
C938 C 0.03988 0.48584 0.35539 0.0
C939 C 0.31945 0.47519 0.3719 0.0
O940 O 0.39057 0.45333 0.33981 0.0
O941 O 0.29656 0.42709 0.33508 0.0
O942 O 0.44501 0.52786 0.32683 0.0
O943 O 0.43907 0.52638 0.35417 0.0
O944 O 0.32704 0.52848 0.31411 0.0
O945 O 0.30164 0.47958 0.32163 0.0
O946 O 0.20978 0.52179 0.3386 0.0
O947 O 0.29683 0.55172 0.34582 0.0
O948 O 0.16141 0.45947 0.35958 0.0
O949 O 0.16322 0.44559 0.33305 0.0
O950 O 0.28906 0.44821 0.36778 0.0
O951 O 0.30623 0.49842 0.36151 0.0
H952 H 0.56085 0.55679 0.36223 0.0
H953 H 0.67174 0.54359 0.36312 0.0
H954 H 0.64808 0.47197 0.32258 0.0
H955 H 0.53667 0.48468 0.32201 0.0
H956 H 0.04217 0.42436 0.32532 0.0
H957 H 0.9325 0.4402 0.32356 0.0
H958 H 0.95915 0.51356 0.36317 0.0
H959 H 0.06893 0.49858 0.3645 0.0
Ho960 Ho 0.4923 0.00141 0.09713 0.0
Ho961 Ho 0.61186 0.96313 0.09204 0.0
C962 C 0.48872 0.92047 0.09758 0.0
C963 C 0.37969 0.02517 0.09768 0.0
C964 C 0.31391 0.01378 0.09734 0.0
C965 C 0.27609 0.02281 0.08361 0.0
C966 C 0.2129 0.01452 0.0835 0.0
C967 C 0.18588 -0.00307 0.09712 0.0
C968 C 0.22367 -0.01217 0.11086 0.0
C969 C 0.28689 -0.00379 0.111 0.0
C970 C 0.5683 -0.00238 0.12468 0.0
C971 C 0.60604 0.04574 0.08884 0.0
C972 C 0.72528 0.94083 0.09403 0.0
C973 C 0.79048 0.95271 0.09533 0.0
C974 C 0.82691 0.94179 0.10899 0.0
C975 C 0.89023 0.94958 0.10973 0.0
C976 C 0.91896 0.96824 0.09672 0.0
C977 C 0.88198 0.98019 0.08333 0.0
C978 C 0.81852 0.97247 0.08261 0.0
C979 C 0.5454 0.96974 0.06302 0.0
O980 O 0.45885 0.94875 0.09452 0.0
O981 O 0.54994 0.91925 0.09878 0.0
O982 O 0.41212 0.01877 0.11125 0.0
O983 O 0.41228 0.0214 0.08383 0.0
O984 O 0.53702 0.0243 0.12035 0.0
O985 O 0.55613 0.97404 0.11447 0.0
O986 O 0.63993 0.01868 0.09266 0.0
O987 O 0.54568 0.044 0.08717 0.0
O988 O 0.69616 0.94592 0.07979 0.0
O989 O 0.68929 0.94528 0.10716 0.0
O990 O 0.5754 0.9427 0.06755 0.0
O991 O 0.55184 -0.00804 0.07443 0.0
H992 H 0.29528 0.03676 0.07301 0.0
H993 H 0.18506 0.02189 0.07272 0.0
H994 H 0.20404 0.97483 0.12169 0.0
H995 H 0.3143 -0.01072 0.12192 0.0
H996 H 0.80657 0.92659 0.11899 0.0
H997 H 0.9168 0.94079 0.12047 0.0
H998 H 0.9025 -0.00527 0.07313 0.0
H999 H 0.79184 0.98136 0.07191 0.0
Ho1000 Ho 0.82179 0.22465 0.09616 0.0
Ho1001 Ho 0.69344 0.26195 0.09353 0.0
C1002 C 0.81933 0.30485 0.09503 0.0
C1003 C 0.9364 0.20482 0.09724 0.0
C1004 C 0.99979 0.21713 0.09351 0.0
C1005 C 1.01749 0.25064 0.09688 0.0
C1006 C 0.07964 0.26054 0.09515 0.0
C1007 C 0.12519 0.23721 0.08992 0.0
C1008 C 0.10687 0.20399 0.08608 0.0
C1009 C 0.04484 0.1941 0.08785 0.0
C1010 C 0.74734 0.2265 0.12435 0.0
C1011 C 0.70948 0.18023 0.08715 0.0
C1012 C 0.5844 0.28322 0.10238 0.0
C1013 C 0.51869 0.27855 0.09769 0.0
C1014 C 0.49748 0.24792 0.09087 0.0
C1015 C 0.43394 0.24269 0.08824 0.0
C1016 C 0.39039 0.26805 0.09227 0.0
C1017 C 0.41216 0.29899 0.09867 0.0
C1018 C 0.47563 0.30415 0.10135 0.0
C1019 C 0.73694 0.25161 0.06157 0.0
O1020 O 0.84846 0.27727 0.09029 0.0
O1021 O 0.75951 0.30486 0.09916 0.0
O1022 O 0.9074 0.21923 0.10988 0.0
O1023 O 0.89987 0.19873 0.08441 0.0
O1024 O 0.77881 0.20022 0.11955 0.0
O1025 O 0.75746 0.25017 0.114 0.0
O1026 O 0.67321 0.20542 0.09251 0.0
O1027 O 0.76912 0.184 0.08446 0.0
O1028 O 0.62014 0.29961 0.09171 0.0
O1029 O 0.61187 0.2569 0.10912 0.0
O1030 O 0.68513 0.26665 0.06523 0.0
O1031 O 0.76301 0.24337 0.07535 0.0
H1032 H 0.98368 0.26892 0.1013 0.0
H1033 H 0.09229 0.28632 0.09815 0.0
H1034 H 0.14092 0.18525 0.08233 0.0
H1035 H 1.03238 0.16807 0.08533 0.0
H1036 H 0.52982 0.22769 0.08804 0.0
H1037 H 0.41878 0.21832 0.08363 0.0
H1038 H 0.37994 0.31908 0.10183 0.0
H1039 H 0.49096 0.3279 0.10669 0.0
Ho1040 Ho 0.49074 0.22235 0.20829 0.0
Ho1041 Ho 0.61815 0.26134 0.21025 0.0
C1042 C 0.49015 0.30326 0.20796 0.0
C1043 C 0.37673 0.2017 0.20849 0.0
C1044 C 0.31317 0.2148 0.21139 0.0
C1045 C 0.26954 0.19414 0.21957 0.0
C1046 C 0.20729 0.20405 0.22074 0.0
C1047 C 0.18713 0.23487 0.21368 0.0
C1048 C 0.23142 0.2561 0.20597 0.0
C1049 C 0.29385 0.24624 0.20489 0.0
C1050 C 0.56341 0.22519 0.17982 0.0
C1051 C 0.60641 0.17918 0.21707 0.0
C1052 C 0.72628 0.28216 0.20038 0.0
C1053 C 0.79328 0.27631 0.20357 0.0
C1054 C 0.82968 0.26182 0.19071 0.0
C1055 C 0.89305 0.25607 0.19307 0.0
C1056 C 0.92197 0.26502 0.20828 0.0
C1057 C 0.88583 0.27984 0.22116 0.0
C1058 C 0.82202 0.28542 0.21884 0.0
C1059 C 0.57599 0.25078 0.24234 0.0
O1060 O 0.46126 0.27536 0.21241 0.0
O1061 O 0.55067 0.30395 0.20458 0.0
O1062 O 0.40562 0.21265 0.19497 0.0
O1063 O 0.41332 0.19907 0.22162 0.0
O1064 O 0.53291 0.19858 0.18466 0.0
O1065 O 0.55302 0.24861 0.19024 0.0
O1066 O 0.6415 0.20509 0.21201 0.0
O1067 O 0.54605 0.1814 0.21917 0.0
O1068 O 0.69294 0.29797 0.21184 0.0
O1069 O 0.69659 0.25693 0.19345 0.0
O1070 O 0.6269 0.26658 0.23852 0.0
O1071 O 0.55005 0.24213 0.22863 0.0
H1072 H 0.28328 0.16978 0.22465 0.0
H1073 H 0.17454 0.18722 0.22686 0.0
H1074 H 0.21748 0.27969 0.20012 0.0
H1075 H 0.32652 0.26269 0.19848 0.0
H1076 H 0.809 0.25489 0.17875 0.0
H1077 H 0.91968 0.24483 0.18288 0.0
H1078 H 0.90669 0.28661 0.2331 0.0
H1079 H 0.79534 0.29673 0.22898 0.0
Ho1080 Ho 0.82587 0.00163 0.20778 0.0
Ho1081 Ho 0.70022 0.96222 0.21066 0.0
C1082 C 0.82878 0.92112 0.20954 0.0
C1083 C 0.9406 0.02123 0.20618 0.0
C1084 C 1.00469 0.0084 0.20912 0.0
C1085 C 0.04219 0.02359 0.22144 0.0
C1086 C 0.10496 0.01468 0.223 0.0
C1087 C 0.13195 -0.00943 0.21216 0.0
C1088 C 0.09388 0.97452 0.20023 0.0
C1089 C 1.03114 0.98335 0.19869 0.0
C1090 C 0.75225 -0.00179 0.1797 0.0
C1091 C 0.7113 0.04458 0.21764 0.0
C1092 C 0.59218 0.9405 0.20133 0.0
C1093 C 0.52584 0.94509 0.20551 0.0
C1094 C 0.48109 0.92819 0.1959 0.0
C1095 C 0.4178 0.93483 0.1983 0.0
C1096 C 0.39782 0.95866 0.21034 0.0
C1097 C 0.44289 0.97473 0.22037 0.0
C1098 C 0.50633 0.96814 0.21791 0.0
C1099 C 0.74207 0.97267 0.24251 0.0
O1100 O 0.85551 0.94956 0.21381 0.0
O1101 O 0.76893 0.91977 0.20553 0.0
O1102 O 0.91022 0.00836 0.19345 0.0
O1103 O 0.90491 0.02666 0.21936 0.0
O1104 O 0.78169 0.02511 0.18445 0.0
O1105 O 0.76371 0.97476 0.19008 0.0
O1106 O 0.67637 0.01856 0.2127 0.0
O1107 O 0.77178 0.0424 0.21909 0.0
O1108 O 0.62707 0.92459 0.21234 0.0
O1109 O 0.61967 0.96695 0.19476 0.0
O1110 O 0.69191 0.95624 0.23883 0.0
O1111 O 0.76834 0.98187 0.22882 0.0
H1112 H 1.02333 0.04303 0.22961 0.0
H1113 H 0.13261 0.02703 0.23256 0.0
H1114 H 0.11312 0.95586 0.19168 0.0
H1115 H 1.00386 0.97107 0.18903 0.0
H1116 H 0.49521 0.91049 0.18617 0.0
H1117 H 0.38455 0.9221 0.19031 0.0
H1118 H 0.42916 -0.00734 0.23001 0.0
H1119 H 0.54017 0.98153 0.22544 0.0
Ho1120 Ho 0.45856 0.00626 0.96105 0.0
Ho1121 Ho 0.57884 0.96881 0.95656 0.0
C1122 C 0.46444 0.92396 0.96183 0.0
C1123 C 0.34494 0.02875 0.96024 0.0
C1124 C 0.2798 0.01718 0.95818 0.0
C1125 C 0.24444 0.02937 0.94457 0.0
C1126 C 0.1811 0.02182 0.94333 0.0
C1127 C 0.15136 0.00213 0.95578 0.0
C1128 C 0.18722 -0.01089 0.96914 0.0
C1129 C 0.2506 -0.00343 0.97036 0.0
C1130 C 0.52309 -0.00036 0.99032 0.0
C1131 C 0.58133 0.04964 0.95575 0.0
C1132 C 0.69136 0.94508 0.95748 0.0
C1133 C 0.75702 0.95635 0.9569 0.0
C1134 C 0.79702 0.94688 0.97006 0.0
C1135 C 0.86007 0.95523 0.96947 0.0
C1136 C 0.88475 0.97337 0.9557 0.0
C1137 C 0.84471 0.98303 0.94253 0.0
C1138 C 0.78151 0.97456 0.9431 0.0
C1139 C 0.50799 0.97419 0.92801 0.0
O1140 O 0.43111 0.95112 0.95798 0.0
O1141 O 0.52359 0.92589 0.96536 0.0
O1142 O 0.37385 0.02018 0.97408 0.0
O1143 O 0.38126 0.02765 0.94702 0.0
O1144 O 0.49455 0.02679 0.9854 0.0
O1145 O 0.51734 0.97705 0.97903 0.0
O1146 O 0.61185 0.02153 0.95863 0.0
O1147 O 0.52002 0.0506 0.95466 0.0
O1148 O 0.65866 0.94762 0.94366 0.0
O1149 O 0.65927 0.95287 0.97098 0.0
O1150 O 0.54038 0.94779 0.93215 0.0
O1151 O 0.51701 -0.00299 0.93889 0.0
H1152 H 0.26558 0.04537 0.93502 0.0
H1153 H 0.15533 0.03156 0.93264 0.0
H1154 H 0.16585 0.97388 0.97896 0.0
H1155 H 0.27626 -0.01319 0.98106 0.0
H1156 H 0.77957 0.93257 0.98076 0.0
H1157 H 0.88965 0.9475 0.97983 0.0
H1158 H 0.86252 -0.00347 0.93162 0.0
H1159 H 0.7521 0.98192 0.93264 0.0
Ho1160 Ho 0.35499 0.70894 0.9571 0.0
Ho1161 Ho 0.23582 0.74849 0.95218 0.0
C1162 C 0.35208 0.79193 0.95903 0.0
C1163 C 0.46811 0.68604 0.95481 0.0
C1164 C 0.53386 0.69761 0.95473 0.0
C1165 C 0.55783 0.71863 0.94188 0.0
C1166 C 0.62136 0.72648 0.94131 0.0
C1167 C 0.66242 0.71351 0.95354 0.0
C1168 C 0.63803 0.69326 0.9666 0.0
C1169 C 0.5747 0.68526 0.96712 0.0
C1170 C 0.29048 0.71837 0.98637 0.0
C1171 C 0.23013 0.6678 0.95244 0.0
C1172 C 0.12302 0.77194 0.95145 0.0
C1173 C 0.05746 0.76011 0.95138 0.0
C1174 C 1.03261 0.7399 0.96442 0.0
C1175 C 0.96946 0.73107 0.96445 0.0
C1176 C 0.92978 0.74204 0.95142 0.0
C1177 C 0.95499 0.76202 0.93836 0.0
C1178 C 1.01792 0.77089 0.93835 0.0
C1179 C 0.31104 0.74281 0.92445 0.0
O1180 O 0.38465 0.76409 0.95582 0.0
O1181 O 0.2915 0.79132 0.96087 0.0
O1182 O 0.43743 0.68819 0.96903 0.0
O1183 O 0.43365 0.69359 0.94177 0.0
O1184 O 0.31953 0.69075 0.98226 0.0
O1185 O 0.29682 0.73971 0.97448 0.0
O1186 O 0.2021 0.69627 0.95614 0.0
O1187 O 0.29111 0.66596 0.95044 0.0
O1188 O 0.15607 0.76587 0.93791 0.0
O1189 O 0.1551 0.76818 0.96534 0.0
O1190 O 0.2799 0.76972 0.92846 0.0
O1191 O 0.29833 0.71973 0.93498 0.0
H1192 H 0.52778 0.72864 0.93212 0.0
H1193 H 0.63841 0.74268 0.93126 0.0
H1194 H 0.66831 0.6828 0.97618 0.0
H1195 H 0.55779 0.66877 0.97707 0.0
H1196 H 0.06172 0.73114 0.97466 0.0
H1197 H 0.95165 0.71556 0.97467 0.0
H1198 H 0.9257 0.77158 0.92834 0.0
H1199 H 0.03553 0.7868 0.92825 0.0
Ho1200 Ho 0.44716 0.70957 0.83971 0.0
Ho1201 Ho 0.57568 0.74802 0.84267 0.0
C1202 C 0.45935 0.79174 0.83474 0.0
C1203 C 0.33799 0.68769 0.84811 0.0
C1204 C 0.2722 0.694 0.84372 0.0
C1205 C 0.25032 0.72692 0.8406 0.0
C1206 C 0.18696 0.73299 0.83814 0.0
C1207 C 0.14396 0.70625 0.83864 0.0
C1208 C 0.16617 0.67321 0.84146 0.0
C1209 C 0.22964 0.66717 0.84395 0.0
C1210 C 0.49088 0.72225 0.80792 0.0
C1211 C 0.57468 0.66703 0.84232 0.0
C1212 C 0.6887 0.77057 0.84219 0.0
C1213 C 0.75329 0.75908 0.83961 0.0
C1214 C 0.76963 0.72468 0.84008 0.0
C1215 C 0.83209 0.71483 0.83875 0.0
C1216 C 0.87921 0.7392 0.83682 0.0
C1217 C 0.86231 0.77357 0.83623 0.0
C1218 C 0.80007 0.78335 0.83758 0.0
C1219 C 0.50201 0.74432 0.87092 0.0
O1220 O 0.42416 0.76561 0.83929 0.0
O1221 O 0.51967 0.78959 0.83252 0.0
O1222 O 0.37308 0.67267 0.83681 0.0
O1223 O 0.3666 0.7124 0.85579 0.0
O1224 O 0.43926 0.70689 0.81137 0.0
O1225 O 0.51648 0.72983 0.82186 0.0
O1226 O 0.60606 0.69505 0.83986 0.0
O1227 O 0.51331 0.66593 0.84401 0.0
O1228 O 0.66063 0.75954 0.85581 0.0
O1229 O 0.6523 0.77107 0.82898 0.0
O1230 O 0.53492 0.77047 0.86665 0.0
O1231 O 0.51147 0.7213 0.86017 0.0
H1232 H 0.28197 0.74813 0.84053 0.0
H1233 H 0.17145 0.75883 0.83641 0.0
H1234 H 0.13435 0.65205 0.84188 0.0
H1235 H 0.24531 0.64159 0.84644 0.0
H1236 H 0.73429 0.70553 0.8417 0.0
H1237 H 0.84358 0.68817 0.83926 0.0
H1238 H 0.89742 0.79303 0.83518 0.0
H1239 H 0.78855 0.81003 0.83737 0.0
Ho1240 Ho 0.36071 0.00822 0.84158 0.0
Ho1241 Ho 0.24138 0.97096 0.84739 0.0
C1242 C 0.35281 0.92546 0.8378 0.0
C1243 C 0.47398 0.03044 0.84382 0.0
C1244 C 0.53964 0.01898 0.84408 0.0
C1245 C 0.56049 -0.00664 0.85508 0.0
C1246 C 0.62393 0.98543 0.85609 0.0
C1247 C 0.66787 0.00294 0.84616 0.0
C1248 C 0.64653 0.0279 0.83489 0.0
C1249 C 0.5833 0.03588 0.83392 0.0
C1250 C 0.29375 0.002 0.81274 0.0
C1251 C 0.23733 0.05122 0.84641 0.0
C1252 C 0.12914 0.9475 0.85046 0.0
C1253 C 0.06314 0.95815 0.85034 0.0
C1254 C 0.04092 0.98366 0.83952 0.0
C1255 C 0.97747 -0.00807 0.83932 0.0
C1256 C 0.93506 0.97499 0.84998 0.0
C1257 C 0.95778 0.94963 0.86083 0.0
C1258 C 1.02101 0.9414 0.86102 0.0
C1259 C 0.32013 0.97519 0.87434 0.0
O1260 O 0.38807 0.95222 0.84119 0.0
O1261 O 0.29224 0.92777 0.83718 0.0
O1262 O 0.44401 0.0281 0.82956 0.0
O1263 O 0.43917 0.02294 0.85685 0.0
O1264 O 0.32464 0.02878 0.81708 0.0
O1265 O 0.29929 0.97975 0.82426 0.0
O1266 O 0.2085 0.02313 0.8426 0.0
O1267 O 0.29813 0.05174 0.84882 0.0
O1268 O 0.16265 0.9575 0.86321 0.0
O1269 O 0.15976 0.94848 0.83616 0.0
O1270 O 0.29063 0.94806 0.87003 0.0
O1271 O 0.30595 -0.00142 0.86422 0.0
H1272 H 0.52798 0.97979 0.86307 0.0
H1273 H 0.63862 0.96559 0.86466 0.0
H1274 H 0.67902 0.04192 0.8271 0.0
H1275 H 0.56857 0.05587 0.82543 0.0
H1276 H 0.07242 -0.00304 0.83114 0.0
H1277 H 0.96154 0.01163 0.83084 0.0
H1278 H 0.92643 0.93555 0.86892 0.0
H1279 H 0.03694 0.92147 0.86938 0.0
C1280 C 0.95742 0.36334 0.0902 0.0
C1281 C 0.94049 0.39135 0.09994 0.0
C1282 C 0.91691 0.33602 0.0884 0.0
C1283 C 0.85814 0.33553 0.09642 0.0
H1284 H 1.00109 0.3631 0.08336 0.0
H1285 H 0.93186 0.31521 0.08049 0.0
S1286 S 0.79537 0.4016 0.12489 0.0
N1287 N 0.8634 0.41638 0.11868 0.0
N1288 N 0.78743 0.36468 0.11546 0.0
C1289 C 0.84154 0.36305 0.10662 0.0
C1290 C 0.88278 0.39098 0.10839 0.0
C1291 C 0.47283 0.85927 0.0917 0.0
C1292 C 0.45067 0.8896 0.09852 0.0
C1293 C 0.43356 0.83137 0.09002 0.0
C1294 C 0.3707 0.83264 0.09519 0.0
H1295 H 0.51999 0.85749 0.08698 0.0
H1296 H 0.45276 0.80881 0.0843 0.0
S1297 S 0.2927 0.90523 0.11587 0.0
N1298 N 0.36373 0.91871 0.11187 0.0
N1299 N 0.29008 0.86608 0.10876 0.0
C1300 C 0.34881 0.86245 0.1027 0.0
C1301 C 0.38879 0.89093 0.10438 0.0
C1302 C 0.84895 0.8608 0.20126 0.0
C1303 C 0.87003 0.89093 0.20856 0.0
C1304 C 0.88856 0.83285 0.1995 0.0
C1305 C 0.95089 0.83392 0.20489 0.0
H1306 H 0.80169 0.85876 0.19677 0.0
H1307 H 0.87005 0.81011 0.19385 0.0
S1308 S 1.02942 0.90611 0.22525 0.0
N1309 N 0.95828 0.91969 0.2216 0.0
N1310 N 1.03176 0.8671 0.21795 0.0
C1311 C 0.97295 0.86379 0.21205 0.0
C1312 C 0.93271 0.89223 0.21403 0.0
C1313 C 0.34932 0.36082 0.21143 0.0
C1314 C 0.36649 0.3892 0.2019 0.0
C1315 C 0.3904 0.33366 0.21353 0.0
C1316 C 0.45024 0.33368 0.2061 0.0
H1317 H 0.30491 0.36015 0.21789 0.0
H1318 H 0.37506 0.3126 0.22126 0.0
S1319 S 0.51399 0.40048 0.1781 0.0
N1320 N 0.44495 0.41479 0.18376 0.0
N1321 N 0.52201 0.36354 0.18763 0.0
C1322 C 0.46704 0.36147 0.19604 0.0
C1323 C 0.42515 0.3892 0.19392 0.0
C1324 C 0.17365 0.57818 0.95779 0.0
C1325 C 0.10926 0.58096 0.95462 0.0
C1326 C 0.21339 0.60591 0.95622 0.0
C1327 C 0.19029 0.6376 0.9515 0.0
H1328 H 0.19393 0.55444 0.96181 0.0
H1329 H 0.26194 0.60276 0.95937 0.0
S1330 S 1.02735 0.65791 0.93973 0.0
N1331 N 1.0256 0.61757 0.94513 0.0
N1332 N 0.10015 0.66986 0.94207 0.0
C1333 C 0.12663 0.64055 0.9475 0.0
C1334 C 0.08614 0.61223 0.9491 0.0
C1335 C 0.63785 0.13814 0.9637 0.0
C1336 C 0.69958 0.13721 0.95753 0.0
C1337 C 0.59825 0.11037 0.9622 0.0
C1338 C 0.61901 0.08052 0.95463 0.0
H1339 H 0.61969 0.16041 0.96995 0.0
H1340 H 0.55206 0.11186 0.96761 0.0
S1341 S 0.77358 0.06561 0.935 0.0
N1342 N 0.77763 0.10442 0.94252 0.0
N1343 N 0.70331 0.05197 0.9398 0.0
C1344 C 0.67978 0.0794 0.94795 0.0
C1345 C 0.7201 0.10776 0.94942 0.0
C1346 C 0.09467 0.10775 0.84583 0.0
C1347 C 0.11859 0.13962 0.84971 0.0
C1348 C 0.1337 0.07951 0.84493 0.0
C1349 C 0.19823 0.08197 0.84797 0.0
H1350 H 0.04599 0.10477 0.84282 0.0
H1351 H 0.11276 0.05563 0.84153 0.0
S1352 S 0.28215 0.15945 0.86074 0.0
N1353 N 0.20962 0.17186 0.85817 0.0
N1354 N 0.28288 0.11866 0.85638 0.0
C1355 C 0.22218 0.11352 0.8526 0.0
C1356 C 0.18239 0.14234 0.85351 0.0
C1357 C 0.66957 0.63678 0.85152 0.0
C1358 C 0.61252 0.63618 0.84286 0.0
C1359 C 0.7119 0.60998 0.8503 0.0
C1360 C 0.69881 0.58182 0.84021 0.0
H1361 H 0.68169 0.65833 0.85926 0.0
H1362 H 0.75445 0.6111 0.85751 0.0
S1363 S 0.558 0.56985 0.81369 0.0
N1364 N 0.54632 0.6063 0.82331 0.0
N1365 N 0.62595 0.55612 0.82042 0.0
C1366 C 0.6422 0.58138 0.83116 0.0
C1367 C 0.59887 0.60844 0.83269 0.0
C1368 C 0.89452 0.89069 0.60167 0.0
C1369 C 0.95507 0.89041 0.59482 0.0
C1370 C 0.8533 0.8639 0.59896 0.0
C1371 C 0.87086 0.83598 0.58913 0.0
H1372 H 0.87862 0.91204 0.60909 0.0
H1373 H 0.80775 0.86495 0.60478 0.0
S1374 S 1.02278 0.82473 0.56709 0.0
N1375 N 1.02968 0.86092 0.57723 0.0
N1376 N 0.95253 0.81079 0.57164 0.0
C1377 C 0.93125 0.83576 0.58195 0.0
C1378 C 0.97336 0.86284 0.58497 0.0
C1379 C 0.42776 0.33504 0.60144 0.0
C1380 C 0.3643 0.3368 0.59716 0.0
C1381 C 0.46656 0.36336 0.60024 0.0
C1382 C 0.44344 0.39465 0.59471 0.0
H1383 H 0.44788 0.31146 0.60577 0.0
H1384 H 0.51491 0.36063 0.60368 0.0
S1385 S 0.27989 0.41255 0.58203 0.0
N1386 N 0.27989 0.3722 0.58734 0.0
N1387 N 0.35169 0.42561 0.58496 0.0
C1388 C 0.37947 0.39681 0.59059 0.0
C1389 C 0.34015 0.36791 0.59191 0.0
C1390 C 0.95962 0.36127 0.69959 0.0
C1391 C 0.94188 0.33216 0.70853 0.0
C1392 C 0.91902 0.38883 0.6981 0.0
C1393 C 0.85907 0.38816 0.70535 0.0
H1394 H 1.00473 0.36267 0.69355 0.0
H1395 H 0.93492 0.41102 0.69129 0.0
S1396 S 0.79185 0.31929 0.73125 0.0
N1397 N 0.86126 0.30536 0.72576 0.0
N1398 N 0.7851 0.35693 0.72239 0.0
C1399 C 0.84076 0.3594 0.71434 0.0
C1400 C 0.88223 0.33152 0.71612 0.0
C1401 C 0.48118 0.86609 0.71102 0.0
C1402 C 0.46342 0.83695 0.70236 0.0
C1403 C 0.44052 0.8936 0.71235 0.0
C1404 C 0.38078 0.89304 0.70499 0.0
H1405 H 0.52544 0.86705 0.71744 0.0
H1406 H 0.45589 0.91524 0.71954 0.0
S1407 S 0.31588 0.82353 0.67925 0.0
N1408 N 0.38495 0.80974 0.68508 0.0
N1409 N 0.3084 0.86152 0.68764 0.0
C1410 C 0.36359 0.86438 0.69576 0.0
C1411 C 0.40505 0.83638 0.69439 0.0
C1412 C 0.17878 0.0821 0.44857 0.0
C1413 C 0.12063 0.08187 0.45681 0.0
C1414 C 0.22036 0.10904 0.45059 0.0
C1415 C 0.20557 0.13633 0.46117 0.0
H1416 H 0.19227 0.06117 0.44053 0.0
H1417 H 0.26366 0.10874 0.44359 0.0
S1418 S 0.06253 0.145 0.48744 0.0
N1419 N 0.05232 0.1096 0.47683 0.0
N1420 N 0.13069 0.15964 0.48131 0.0
C1421 C 0.14826 0.13561 0.46998 0.0
C1422 C 0.10562 0.10859 0.46759 0.0
C1423 C 0.72131 0.60862 0.45856 0.0
C1424 C 0.7054 0.63629 0.4484 0.0
C1425 C 0.68053 0.58137 0.46048 0.0
C1426 C 0.62248 0.58068 0.45223 0.0
H1427 H 0.76409 0.60872 0.46571 0.0
H1428 H 0.69437 0.56096 0.46881 0.0
S1429 S 0.56322 0.64535 0.4224 0.0
N1430 N 0.63065 0.66035 0.42877 0.0
N1431 N 0.55405 0.60892 0.43234 0.0
C1432 C 0.60723 0.60766 0.44149 0.0
C1433 C 0.6488 0.63545 0.43955 0.0
C1434 C 0.13361 0.57763 0.33785 0.0
C1435 C 0.19523 0.58023 0.34385 0.0
C1436 C 0.09201 0.60475 0.33881 0.0
C1437 C 0.1104 0.63561 0.34573 0.0
H1438 H 0.11715 0.55455 0.33206 0.0
H1439 H 0.04611 0.60192 0.33347 0.0
S1440 S 0.26324 0.65466 0.36518 0.0
N1441 N 0.27036 0.61548 0.35827 0.0
N1442 N 0.1922 0.66661 0.36017 0.0
C1443 C 0.17089 0.63827 0.35244 0.0
C1444 C 0.21334 0.6106 0.35143 0.0
C1445 C 0.64339 0.08249 0.35601 0.0
C1446 C 0.70082 0.082 0.34741 0.0
C1447 C 0.60213 0.1097 0.35432 0.0
C1448 C 0.61662 0.13717 0.34378 0.0
H1449 H 0.63006 0.06147 0.36405 0.0
H1450 H 0.55924 0.10943 0.36151 0.0
S1451 S 0.75838 0.14596 0.31703 0.0
N1452 N 0.76856 0.11002 0.32732 0.0
N1453 N 0.69082 0.16085 0.32355 0.0
C1454 C 0.67348 0.13646 0.33476 0.0
C1455 C 0.71577 0.10902 0.33677 0.0
C1456 C 0.13844 0.47106 0.14404 0.0
C1457 C 0.11084 0.50145 0.13845 0.0
C1458 C 0.18544 0.47089 0.15646 0.0
C1459 C 0.20701 0.5011 0.16383 0.0
H1460 H 0.1231 0.44714 0.13892 0.0
H1461 H 0.20477 0.44684 0.16041 0.0
S1462 S 0.15094 0.58759 0.15356 0.0
N1463 N 0.10959 0.56267 0.14126 0.0
N1464 N 0.19709 0.56229 0.16441 0.0
C1465 C 0.18027 0.53164 0.15822 0.0
C1466 C 0.13234 0.53181 0.14566 0.0
C1467 C 0.18349 0.69695 0.14069 0.0
C1468 C 0.20766 0.72739 0.1341 0.0
C1469 C 0.13809 0.69675 0.15359 0.0
C1470 C 0.11529 0.72697 0.16072 0.0
H1471 H 0.1993 0.67292 0.13572 0.0
H1472 H 0.1211 0.67259 0.1581 0.0
S1473 S 0.16343 0.81364 0.14817 0.0
N1474 N 0.20517 0.7887 0.13583 0.0
N1475 N 0.12054 0.78835 0.16006 0.0
C1476 C 0.13919 0.75763 0.1543 0.0
C1477 C 0.18509 0.75783 0.14103 0.0
C1478 C 0.88168 0.44656 0.89517 0.0
C1479 C 0.86116 0.47699 0.88768 0.0
C1480 C 0.92454 0.4463 0.9086 0.0
C1481 C 0.94836 0.47647 0.91544 0.0
H1482 H 0.86475 0.42254 0.89054 0.0
H1483 H 0.9386 0.42211 0.9138 0.0
S1484 S 0.90983 0.56313 0.90057 0.0
N1485 N 0.86858 0.53827 0.8882 0.0
N1486 N 0.94811 0.53781 0.91352 0.0
C1487 C 0.92813 0.50713 0.90814 0.0
C1488 C 0.88495 0.50738 0.89428 0.0
C1489 C 0.93018 0.21713 0.8955 0.0
C1490 C 0.95144 0.24764 0.88824 0.0
C1491 C 0.88599 0.21688 0.90881 0.0
C1492 C 0.86059 0.24714 0.9153 0.0
H1493 H 0.94821 0.19322 0.89096 0.0
H1494 H 0.8714 0.19278 0.91399 0.0
S1495 S 0.89943 0.33385 0.9005 0.0
N1496 N 0.94268 0.30893 0.88857 0.0
N1497 N 0.86006 0.30846 0.91318 0.0
C1498 C 0.88111 0.27773 0.90802 0.0
C1499 C 0.92637 0.27799 0.89465 0.0
C1500 C 0.14688 0.02714 0.64493 0.0
C1501 C 0.12427 -0.00331 0.63808 0.0
C1502 C 0.19223 0.02737 0.65772 0.0
C1503 C 0.21667 -0.00285 0.66447 0.0
H1504 H 0.1296 0.05118 0.64031 0.0
H1505 H 0.20768 0.05156 0.66251 0.0
S1506 S 0.1734 0.91046 0.65109 0.0
N1507 N 0.13014 0.93536 0.63914 0.0
N1508 N 0.21503 0.93578 0.66312 0.0
C1509 C 0.19463 0.96648 0.65774 0.0
C1510 C 0.14865 0.96625 0.64459 0.0
C1511 C 0.17382 0.2551 0.6456 0.0
C1512 C 0.20016 0.22497 0.63926 0.0
C1513 C 0.12815 0.25465 0.65852 0.0
C1514 C 0.10685 0.22404 0.66569 0.0
H1515 H 0.18876 0.27928 0.64059 0.0
H1516 H 0.10944 0.27848 0.66295 0.0
S1517 S 0.16076 0.13805 0.65368 0.0
N1518 N 0.20098 0.16362 0.64129 0.0
N1519 N 0.11624 0.1628 0.66535 0.0
C1520 C 0.13274 0.1938 0.65941 0.0
C1521 C 0.17918 0.19427 0.64634 0.0
C1522 C 0.94143 0.00386 0.40649 0.0
C1523 C 0.95457 0.97485 0.41623 0.0
C1524 C 0.89585 0.00338 0.39366 0.0
C1525 C 0.8614 0.97392 0.39008 0.0
H1526 H 0.96744 0.02689 0.40854 0.0
H1527 H 0.88771 0.02626 0.38647 0.0
S1528 S 0.86969 0.89354 0.41441 0.0
N1529 N 0.92402 0.91736 0.42284 0.0
N1530 N 0.83851 0.91645 0.39915 0.0
C1531 C 0.87183 0.94545 0.40047 0.0
C1532 C 0.91841 0.94589 0.41337 0.0
C1533 C 0.9317 0.71588 0.39162 0.0
C1534 C 0.94575 0.74517 0.38218 0.0
C1535 C 0.88669 0.71634 0.40468 0.0
C1536 C 0.854 0.74614 0.40893 0.0
H1537 H 0.95635 0.69254 0.38907 0.0
H1538 H 0.87809 0.69322 0.41166 0.0
S1539 S 0.86552 0.82781 0.38583 0.0
N1540 N 0.91797 0.80356 0.37664 0.0
N1541 N 0.83392 0.80455 0.40094 0.0
C1542 C 0.86546 0.77506 0.39893 0.0
C1543 C 0.91133 0.77458 0.38571 0.0
C1544 C 0.63141 0.46919 0.64486 0.0
C1545 C 0.61774 0.49921 0.63593 0.0
C1546 C 0.67515 0.4687 0.6582 0.0
C1547 C 0.70698 0.49821 0.66319 0.0
H1548 H 0.60717 0.44606 0.64177 0.0
H1549 H 0.68344 0.44509 0.66479 0.0
S1550 S 0.69676 0.58162 0.64174 0.0
N1551 N 0.64565 0.55807 0.63172 0.0
N1552 N 0.72695 0.55716 0.65649 0.0
C1553 C 0.69608 0.5278 0.65368 0.0
C1554 C 0.65164 0.52833 0.64021 0.0
C1555 C 0.69631 0.75839 0.64315 0.0
C1556 C 0.70399 0.73041 0.63234 0.0
C1557 C 0.65325 0.75775 0.65673 0.0
C1558 C 0.6159 0.72913 0.66003 0.0
H1559 H 0.72489 0.78063 0.64138 0.0
H1560 H 0.64971 0.77974 0.6648 0.0
S1561 S 0.60873 0.65244 0.63312 0.0
N1562 N 0.66466 0.67525 0.62452 0.0
N1563 N 0.58384 0.67414 0.64961 0.0
C1564 C 0.62077 0.70189 0.64864 0.0
C1565 C 0.6648 0.70246 0.63497 0.0
C1566 C 0.39012 0.44624 0.39271 0.0
C1567 C 0.36706 0.47659 0.38572 0.0
C1568 C 0.43488 0.44617 0.40566 0.0
C1569 C 0.45838 0.47646 0.41245 0.0
H1570 H 0.37373 0.42213 0.38806 0.0
H1571 H 0.45073 0.42203 0.41052 0.0
S1572 S 0.41348 0.56301 0.39879 0.0
N1573 N 0.37127 0.53795 0.38676 0.0
N1574 N 0.45523 0.53784 0.41099 0.0
C1575 C 0.43578 0.50705 0.40561 0.0
C1576 C 0.3903 0.50712 0.39231 0.0
C1577 C 0.38592 0.21463 0.40945 0.0
C1578 C 0.36337 0.24498 0.41657 0.0
C1579 C 0.42932 0.21474 0.39594 0.0
C1580 C 0.45267 0.2452 0.3891 0.0
H1581 H 0.36959 0.19057 0.41428 0.0
H1582 H 0.44506 0.19075 0.3909 0.0
S1583 S 0.40938 0.33164 0.40331 0.0
N1584 N 0.36836 0.30635 0.41564 0.0
N1585 N 0.44954 0.30656 0.39069 0.0
C1586 C 0.43068 0.27564 0.3962 0.0
C1587 C 0.38619 0.27553 0.40977 0.0
C1588 C 0.68347 0.02717 0.15831 0.0
C1589 C 0.70584 -0.00306 0.16558 0.0
C1590 C 0.63907 0.02699 0.14525 0.0
C1591 C 0.61543 -0.00343 0.13862 0.0
H1592 H 0.69993 0.05133 0.16288 0.0
H1593 H 0.62346 0.05103 0.14021 0.0
S1594 S 0.65844 0.9103 0.15311 0.0
N1595 N 0.70062 0.93557 0.16503 0.0
N1596 N 0.61773 0.93526 0.14054 0.0
C1597 C 0.63762 0.96612 0.14568 0.0
C1598 C 0.68257 0.9663 0.1591 0.0
C1599 C 0.67854 0.19647 0.14557 0.0
C1600 C 0.70042 0.22699 0.13847 0.0
C1601 C 0.63395 0.19614 0.15871 0.0
C1602 C 0.60978 0.22632 0.16558 0.0
H1603 H 0.69563 0.17251 0.14083 0.0
H1604 H 0.61882 0.17195 0.16367 0.0
S1605 S 0.65166 0.31313 0.15165 0.0
N1606 N 0.69408 0.2883 0.13943 0.0
N1607 N 0.61121 0.28769 0.16408 0.0
C1608 C 0.63135 0.25701 0.15862 0.0
C1609 C 0.67635 0.25735 0.14514 0.0
C1610 C 0.3799 0.00434 0.89767 0.0
C1611 C 0.37141 0.97623 0.88703 0.0
C1612 C 0.42546 0.00417 0.91051 0.0
C1613 C 0.46407 0.97583 0.9133 0.0
H1614 H 0.35019 0.0263 0.89634 0.0
H1615 H 0.43019 0.02635 0.91834 0.0
S1616 S 0.47151 0.90004 0.88574 0.0
N1617 N 0.4127 0.92205 0.87819 0.0
N1618 N 0.49777 0.92165 0.90203 0.0
C1619 C 0.45894 0.94876 0.90183 0.0
C1620 C 0.41265 0.94892 0.88885 0.0
C1621 C 0.42507 0.71323 0.88993 0.0
C1622 C 0.45589 0.74338 0.88526 0.0
C1623 C 0.37936 0.7127 0.90286 0.0
C1624 C 0.36243 0.74236 0.91161 0.0
H1625 H 0.43573 0.6899 0.88338 0.0
H1626 H 0.35612 0.68911 0.90574 0.0
S1627 S 0.43516 0.82656 0.90625 0.0
N1628 N 0.47006 0.80283 0.89194 0.0
N1629 N 0.38469 0.80176 0.91584 0.0
C1630 C 0.39474 0.77218 0.90757 0.0
C1631 C 0.44135 0.77271 0.89457 0.0
C1632 C 0.21465 0.61614 0.0878 0.0
C1633 C 0.17913 0.64546 0.0849 0.0
C1634 C 0.18676 0.58446 0.08889 0.0
C1635 C 0.12243 0.58099 0.08701 0.0
H1636 H 0.26428 0.61767 0.08977 0.0
H1637 H 0.21583 0.56271 0.09154 0.0
S1638 S 1.00964 0.65002 0.07769 0.0
N1639 N 0.07734 0.66915 0.07913 0.0
N1640 N 1.02412 0.60958 0.08101 0.0
C1641 C 0.08655 0.6101 0.08347 0.0
C1642 C 0.11512 0.64239 0.08248 0.0
C1643 C 0.19026 0.63812 0.21478 0.0
C1644 C 0.12576 0.64293 0.21459 0.0
C1645 C 0.21578 0.60563 0.21543 0.0
C1646 C 0.17782 0.57662 0.21576 0.0
H1647 H 0.22147 0.65952 0.21406 0.0
H1648 H 0.26585 0.60335 0.21506 0.0
S1649 S 1.00594 0.57515 0.21675 0.0
N1650 N 1.02407 0.61563 0.21582 0.0
N1651 N 0.07272 0.55474 0.2169 0.0
C1652 C 0.11332 0.58099 0.21617 0.0
C1653 C 0.08712 0.61409 0.21565 0.0
C1654 C 0.93529 0.33174 0.96946 0.0
C1655 C 0.8712 0.32674 0.96829 0.0
C1656 C 0.96 0.36426 0.96935 0.0
C1657 C 0.92155 0.39301 0.9679 0.0
H1658 H 0.96681 0.3104 0.9702 0.0
H1659 H 1.01 0.36662 0.96995 0.0
S1660 S 0.74993 0.39371 0.96518 0.0
N1661 N 0.76897 0.35333 0.96623 0.0
N1662 N 0.81608 0.41451 0.96599 0.0
C1663 C 0.85718 0.38848 0.9672 0.0
C1664 C 0.83181 0.35531 0.96742 0.0
C1665 C 0.94124 0.38873 0.83442 0.0
C1666 C 0.87681 0.39323 0.83509 0.0
C1667 C 0.96712 0.35641 0.83475 0.0
C1668 C 0.92955 0.32733 0.8359 0.0
H1669 H 0.97211 0.41031 0.83393 0.0
H1670 H 1.01724 0.35443 0.83456 0.0
S1671 S 0.75766 0.32514 0.83716 0.0
N1672 N 0.77535 0.36568 0.83626 0.0
N1673 N 0.82465 0.30495 0.83693 0.0
C1674 C 0.86495 0.33133 0.83608 0.0
C1675 C 0.8384 0.36429 0.83564 0.0
C1676 C 0.1985 0.08633 0.58979 0.0
C1677 C 0.1354 0.08145 0.58631 0.0
C1678 C 0.22409 0.11873 0.58967 0.0
C1679 C 0.18739 0.14739 0.58615 0.0
H1680 H 0.22803 0.06518 0.59317 0.0
H1681 H 0.27251 0.12135 0.59302 0.0
S1682 S 1.02154 0.14819 0.57417 0.0
N1683 N 0.03791 0.10799 0.57764 0.0
N1684 N 0.08666 0.16883 0.57766 0.0
C1685 C 0.12505 0.14285 0.58189 0.0
C1686 C 0.0989 0.10987 0.58188 0.0
C1687 C 0.19576 0.14174 0.71439 0.0
C1688 C 0.13214 0.14525 0.71775 0.0
C1689 C 0.22323 0.10986 0.71358 0.0
C1690 C 0.18806 0.08028 0.71601 0.0
H1691 H 0.22451 0.16366 0.71192 0.0
H1692 H 0.27224 0.10847 0.71056 0.0
S1693 S 1.02073 0.07532 0.72655 0.0
N1694 N 0.03514 0.11612 0.72467 0.0
N1695 N 0.08751 0.0562 0.72289 0.0
C1696 C 0.12489 0.08325 0.71989 0.0
C1697 C 0.09677 0.11576 0.72089 0.0
C1698 C 0.94517 0.83092 0.46466 0.0
C1699 C 0.88154 0.82647 0.46198 0.0
C1700 C 0.97035 0.86332 0.46603 0.0
C1701 C 0.93288 0.89249 0.46457 0.0
H1702 H 0.9758 0.80925 0.46571 0.0
H1703 H 1.01996 0.86537 0.46788 0.0
S1704 S 0.76304 0.89437 0.45723 0.0
N1705 N 0.78119 0.85384 0.45774 0.0
N1706 N 0.8287 0.91466 0.46042 0.0
C1707 C 0.86895 0.88834 0.46206 0.0
C1708 C 0.84324 0.85535 0.46071 0.0
C1709 C 0.95779 0.85072 0.33073 0.0
C1710 C 0.9197 0.82205 0.33316 0.0
C1711 C 0.93499 0.88351 0.33318 0.0
C1712 C 0.87315 0.88883 0.33795 0.0
H1713 H 1.00621 0.84799 0.32729 0.0
H1714 H 0.96587 0.90476 0.3312 0.0
S1715 S 0.75394 0.82265 0.346 0.0
N1716 N 0.81674 0.80146 0.34048 0.0
N1717 N 0.77396 0.86286 0.34528 0.0
C1718 C 0.83429 0.86047 0.34028 0.0
C1719 C 0.85748 0.82716 0.33778 0.0
C1720 C 0.60155 0.61044 0.58023 0.0
C1721 C 0.63737 0.58206 0.58497 0.0
C1722 C 0.62747 0.64272 0.57935 0.0
C1723 C 0.6903 0.64773 0.58292 0.0
H1724 H 0.55267 0.60796 0.57738 0.0
H1725 H 0.59805 0.66388 0.5759 0.0
S1726 S 0.80421 0.58212 0.59622 0.0
N1727 N 0.73889 0.56126 0.59343 0.0
N1728 N 0.78802 0.6219 0.59167 0.0
C1729 C 0.72703 0.61958 0.58747 0.0
C1730 C 0.70047 0.58672 0.5885 0.0
C1731 C 0.71744 0.60617 0.71584 0.0
C1732 C 0.67784 0.57782 0.71621 0.0
C1733 C 0.69379 0.63904 0.71526 0.0
C1734 C 0.62963 0.64489 0.71519 0.0
H1735 H 0.76737 0.6031 0.71541 0.0
H1736 H 0.72616 0.65993 0.71453 0.0
S1737 S 0.50601 0.57917 0.71746 0.0
N1738 N 0.57162 0.55765 0.71751 0.0
N1739 N 0.5264 0.61933 0.71652 0.0
C1740 C 0.58934 0.61672 0.71627 0.0
C1741 C 0.61364 0.58322 0.71673 0.0
C1742 C 0.473 0.36347 0.46616 0.0
C1743 C 0.43483 0.39237 0.46474 0.0
C1744 C 0.44782 0.33104 0.4671 0.0
C1745 C 0.3835 0.32623 0.46683 0.0
H1746 H 0.52308 0.36566 0.46623 0.0
H1747 H 0.47909 0.30961 0.4679 0.0
S1748 S 0.26292 0.39356 0.46354 0.0
N1749 N 0.32943 0.4141 0.46338 0.0
N1750 N 0.28152 0.35319 0.46515 0.0
C1751 C 0.34451 0.35495 0.46573 0.0
C1752 C 0.37032 0.38801 0.46467 0.0
C1753 C 0.37482 0.33087 0.3358 0.0
C1754 C 0.43929 0.32632 0.33558 0.0
C1755 C 0.34901 0.36323 0.3356 0.0
C1756 C 0.38668 0.39235 0.33531 0.0
H1757 H 0.34384 0.30936 0.33643 0.0
H1758 H 0.29892 0.36524 0.33613 0.0
S1759 S 0.55848 0.39443 0.3336 0.0
N1760 N 0.54075 0.35387 0.33421 0.0
N1761 N 0.49152 0.41466 0.33395 0.0
C1762 C 0.4512 0.38827 0.33458 0.0
C1763 C 0.47769 0.35526 0.33466 0.0
C1764 C 0.59567 0.10814 0.08707 0.0
C1765 C 0.63438 0.07934 0.0871 0.0
C1766 C 0.62029 0.14067 0.08657 0.0
C1767 C 0.68453 0.14569 0.08592 0.0
H1768 H 0.54569 0.10576 0.08789 0.0
H1769 H 0.58864 0.16198 0.08698 0.0
S1770 S 0.80601 0.07849 0.08453 0.0
N1771 N 0.73979 0.05774 0.08557 0.0
N1772 N 0.78691 0.11892 0.08452 0.0
C1773 C 0.72395 0.11704 0.08532 0.0
C1774 C 0.69865 0.08385 0.08596 0.0
C1775 C 0.59684 0.11682 0.21488 0.0
C1776 C 0.63346 0.14521 0.21877 0.0
C1777 C 0.62151 0.08414 0.21529 0.0
C1778 C 0.68365 0.0786 0.21973 0.0
H1779 H 0.54911 0.11988 0.2109 0.0
H1780 H 0.59211 0.0633 0.21154 0.0
S1781 S 0.79642 0.14452 0.23324 0.0
N1782 N 0.73283 0.1658 0.22855 0.0
N1783 N 0.77974 0.10441 0.22981 0.0
C1784 C 0.71988 0.1068 0.22457 0.0
C1785 C 0.69473 0.14012 0.2239 0.0
C1786 C 0.34803 0.85353 0.96511 0.0
C1787 C 0.38294 0.82496 0.96018 0.0
C1788 C 0.37447 0.88568 0.96546 0.0
C1789 C 0.43685 0.89025 0.96113 0.0
H1790 H 0.29964 0.85124 0.96866 0.0
H1791 H 0.34613 0.90698 0.96934 0.0
S1792 S 0.54783 0.82435 0.94655 0.0
N1793 N 0.48281 0.80369 0.95036 0.0
N1794 N 0.53276 0.86424 0.95111 0.0
C1795 C 0.47245 0.86206 0.95613 0.0
C1796 C 0.44544 0.82933 0.95567 0.0
C1797 C 0.46891 0.85392 0.83787 0.0
C1798 C 0.4321 0.82569 0.83384 0.0
C1799 C 0.44348 0.88638 0.83855 0.0
C1800 C 0.38038 0.89172 0.83522 0.0
H1801 H 0.51739 0.85085 0.84111 0.0
H1802 H 0.47312 0.90717 0.84224 0.0
S1803 S 0.26618 0.82629 0.82205 0.0
N1804 N 0.33135 0.80524 0.82506 0.0
N1805 N 0.28261 0.86611 0.82627 0.0
C1806 C 0.34367 0.86375 0.8304 0.0
C1807 C 0.36975 0.83073 0.82977 0.0
C1808 C 0.57222 0.49168 0.08602 0.0
C1809 C 0.60516 0.49443 0.10131 0.0
C1810 C 0.50821 0.48499 0.08579 0.0
C1811 C 0.47408 0.48053 0.10085 0.0
H1812 H 0.59623 0.4944 0.07404 0.0
H1813 H 0.48539 0.48278 0.07367 0.0
S1814 S 0.53677 0.48703 0.14436 0.0
N1815 N 0.59758 0.49354 0.13201 0.0
N1816 N 0.4777 0.4805 0.13155 0.0
C1817 C 0.5062 0.48328 0.11626 0.0
C1818 C 0.57146 0.49029 0.1165 0.0
C1819 C 0.72403 0.76267 0.09307 0.0
C1820 C 0.70213 0.7298 0.08981 0.0
C1821 C 0.78789 0.7701 0.09294 0.0
C1822 C 0.83284 0.74504 0.08949 0.0
H1823 H 0.69156 0.78276 0.09603 0.0
H1824 H 0.80219 0.79568 0.09582 0.0
S1825 S 0.79979 0.65559 0.0786 0.0
N1826 N 0.73067 0.67236 0.08205 0.0
N1827 N 0.85016 0.68634 0.08171 0.0
C1828 C 0.81148 0.71218 0.08592 0.0
C1829 C 0.74645 0.70459 0.08609 0.0
C1830 C 0.57568 0.72119 0.21666 0.0
C1831 C 0.61886 0.74223 0.20839 0.0
C1832 C 0.51206 0.72888 0.21681 0.0
C1833 C 0.48868 0.75787 0.2086 0.0
H1834 H 0.59114 0.69829 0.22292 0.0
H1835 H 0.48078 0.71169 0.22325 0.0
S1836 S 0.58239 0.82114 0.18492 0.0
N1837 N 0.63386 0.79346 0.19186 0.0
N1838 N 0.51441 0.80774 0.1919 0.0
C1839 C 0.53159 0.77954 0.20057 0.0
C1840 C 0.59653 0.77177 0.20051 0.0
C1841 C 0.79671 0.46935 0.21792 0.0
C1842 C 0.82851 0.46837 0.20236 0.0
C1843 C 0.73313 0.47729 0.2188 0.0
C1844 C 0.69856 0.48483 0.20416 0.0
H1845 H 0.82103 0.46352 0.22953 0.0
H1846 H 0.71074 0.47722 0.23108 0.0
S1847 S 0.76122 0.4884 0.16036 0.0
N1848 N 0.82125 0.47713 0.172 0.0
N1849 N 0.70242 0.49252 0.17364 0.0
C1850 C 0.73011 0.48436 0.18851 0.0
C1851 C 0.79477 0.47606 0.18762 0.0
C1852 C 0.5467 0.46623 0.96315 0.0
C1853 C 0.56908 0.49935 0.96074 0.0
C1854 C 0.48282 0.45906 0.96287 0.0
C1855 C 0.43832 0.48468 0.96018 0.0
H1856 H 0.57885 0.44563 0.96541 0.0
H1857 H 0.46811 0.43318 0.96491 0.0
S1858 S 0.47234 0.57526 0.952 0.0
N1859 N 0.54125 0.55783 0.95476 0.0
N1860 N 0.42158 0.54435 0.95434 0.0
C1861 C 0.45998 0.51789 0.95767 0.0
C1862 C 0.52509 0.5252 0.95792 0.0
C1863 C 0.33965 0.20199 0.97009 0.0
C1864 C 0.36233 0.23329 0.96422 0.0
C1865 C 0.2759 0.19453 0.96983 0.0
C1866 C 0.23231 0.21811 0.96373 0.0
H1867 H 0.37145 0.18305 0.97488 0.0
H1868 H 0.26061 0.17007 0.97441 0.0
S1869 S 0.26785 0.30275 0.94581 0.0
N1870 N 0.33606 0.2874 0.95139 0.0
N1871 N 0.21668 0.27347 0.95102 0.0
C1872 C 0.25435 0.24947 0.95782 0.0
C1873 C 0.31916 0.25703 0.95804 0.0
C1874 C 0.54757 0.22939 0.85889 0.0
C1875 C 0.58016 0.22638 0.8435 0.0
C1876 C 0.48338 0.23588 0.85927 0.0
C1877 C 0.44891 0.23974 0.84428 0.0
H1878 H 0.57172 0.22617 0.87077 0.0
H1879 H 0.46043 0.23755 0.87144 0.0
S1880 S 0.51312 0.23708 0.80068 0.0
N1881 N 0.57357 0.22953 0.81289 0.0
N1882 N 0.45338 0.24195 0.81358 0.0
C1883 C 0.48114 0.23726 0.8288 0.0
C1884 C 0.5465 0.23057 0.82842 0.0
C1885 C 0.27696 0.52039 0.85178 0.0
C1886 C 0.2378 0.5099 0.83859 0.0
C1887 C 0.34076 0.51312 0.85159 0.0
C1888 C 0.36828 0.49499 0.83821 0.0
H1889 H 0.25789 0.53357 0.86261 0.0
H1890 H 0.36846 0.52094 0.86228 0.0
S1891 S 0.2878 0.46498 0.7997 0.0
N1892 N 0.2323 0.48265 0.81113 0.0
N1893 N 0.35208 0.46891 0.81081 0.0
C1894 C 0.33007 0.48518 0.8247 0.0
C1895 C 0.265 0.49263 0.82488 0.0
C1896 C 0.52883 0.97652 0.58296 0.0
C1897 C 0.49088 0.97561 0.59752 0.0
C1898 C 0.59283 0.98318 0.58398 0.0
C1899 C 0.62184 -0.01073 0.5996 0.0
H1900 H 0.50876 0.97243 0.57061 0.0
H1901 H 0.61962 0.98414 0.57238 0.0
S1902 S 0.54481 -0.01317 0.64166 0.0
N1903 N 0.48818 0.97944 0.62817 0.0
N1904 N 0.60802 -0.008 0.63008 0.0
C1905 C 0.58467 -0.01206 0.61428 0.0
C1906 C 0.51947 0.98114 0.61325 0.0
C1907 C 0.72212 0.26617 0.59961 0.0
C1908 C 0.6992 0.23817 0.59065 0.0
C1909 C 0.78578 0.27383 0.59971 0.0
C1910 C 0.82919 0.25391 0.5908 0.0
H1911 H 0.69086 0.28164 0.60706 0.0
H1912 H 0.80128 0.29495 0.60728 0.0
S1913 S 0.7919 0.18032 0.56364 0.0
N1914 N 0.72422 0.1921 0.57154 0.0
N1915 N 0.84348 0.2067 0.57152 0.0
C1916 C 0.80644 0.22663 0.58125 0.0
C1917 C 0.74167 0.21874 0.58122 0.0
C1918 C 0.57636 0.23961 0.7232 0.0
C1919 C 0.61544 0.24264 0.70895 0.0
C1920 C 0.51259 0.24713 0.72226 0.0
C1921 C 0.48518 0.25753 0.70697 0.0
H1922 H 0.59519 0.23124 0.73518 0.0
H1923 H 0.48425 0.24394 0.73349 0.0
S1924 S 0.56709 0.27024 0.66608 0.0
N1925 N 0.62181 0.25721 0.67912 0.0
N1926 N 0.50268 0.27171 0.67742 0.0
C1927 C 0.52393 0.2612 0.69271 0.0
C1928 C 0.58878 0.25371 0.69369 0.0
C1929 C 0.79665 0.95529 0.70573 0.0
C1930 C 0.84101 0.9802 0.70972 0.0
C1931 C 0.7327 0.96261 0.70551 0.0
C1932 C 0.71015 -0.00477 0.7092 0.0
H1933 H 0.8115 0.92995 0.70245 0.0
H1934 H 0.70071 0.9427 0.70209 0.0
S1935 S 0.80584 0.06879 0.72201 0.0
N1936 N 0.85688 0.03836 0.71858 0.0
N1937 N 0.73725 0.05215 0.71801 0.0
C1938 C 0.75381 0.02023 0.71351 0.0
C1939 C 0.81892 0.01274 0.7138 0.0
C1940 C 0.54661 -0.00215 0.46918 0.0
C1941 C 0.58347 -0.0037 0.45443 0.0
C1942 C 0.48261 -0.009 0.46883 0.0
C1943 C 0.45238 0.98218 0.45373 0.0
H1944 H 0.56754 0.00413 0.48118 0.0
H1945 H 0.45672 -0.00786 0.48058 0.0
S1946 S 0.52617 0.97705 0.4113 0.0
N1947 N 0.5838 -0.01306 0.42406 0.0
N1948 N 0.4639 0.97387 0.42344 0.0
C1949 C 0.48844 0.98081 0.43884 0.0
C1950 C 0.55371 -0.01213 0.43918 0.0
C1951 C 0.33353 0.72406 0.46685 0.0
C1952 C 0.36888 0.72927 0.45204 0.0
C1953 C 0.2701 0.71604 0.46611 0.0
C1954 C 0.23945 0.71271 0.45054 0.0
H1955 H 0.35513 0.72607 0.47914 0.0
H1956 H 0.24493 0.71218 0.47784 0.0
S1957 S 0.30938 0.72593 0.40809 0.0
N1958 N 0.36731 0.73202 0.42132 0.0
N1959 N 0.24859 0.7166 0.41997 0.0
C1960 C 0.27408 0.71792 0.43564 0.0
C1961 C 0.33858 0.72625 0.43638 0.0
C1962 C 0.48291 0.74899 0.33415 0.0
C1963 C 0.43749 0.72611 0.33994 0.0
C1964 C 0.54641 0.74111 0.33479 0.0
C1965 C 0.56757 0.70996 0.34127 0.0
H1966 H 0.46927 0.77333 0.32905 0.0
H1967 H 0.57932 0.75967 0.33018 0.0
S1968 S 0.46797 0.64146 0.3586 0.0
N1969 N 0.41838 0.67103 0.35264 0.0
N1970 N 0.5376 0.65622 0.3539 0.0
C1971 C 0.52266 0.68663 0.34696 0.0
C1972 C 0.4578 0.69468 0.34629 0.0
C1973 C 0.25755 0.96516 0.35351 0.0
C1974 C 0.23471 -0.00219 0.35005 0.0
C1975 C 0.32153 0.95838 0.35374 0.0
C1976 C 0.36549 0.98395 0.35052 0.0
H1977 H 0.22568 0.94463 0.35612 0.0
H1978 H 0.33672 0.93284 0.35652 0.0
S1979 S 0.33014 0.07339 0.33991 0.0
N1980 N 0.26142 0.05583 0.34278 0.0
N1981 N 0.38144 0.04306 0.34327 0.0
C1982 C 0.34337 0.01675 0.34708 0.0
C1983 C 0.27816 0.02367 0.34683 0.0
C1984 C 0.08308 0.48957 0.58078 0.0
C1985 C 0.11578 0.49456 0.59597 0.0
C1986 C 1.01881 0.48311 0.58074 0.0
C1987 C 0.98429 0.48131 0.59588 0.0
H1988 H 0.10753 0.49019 0.56879 0.0
H1989 H 0.99618 0.47887 0.56873 0.0
S1990 S 0.04612 0.49579 0.63899 0.0
N1991 N 0.10738 0.49947 0.62652 0.0
N1992 N 0.98723 0.48723 0.62643 0.0
C1993 C 1.01614 0.48687 0.61113 0.0
C1994 C 0.08154 0.49349 0.61118 0.0
C1995 C 0.30954 0.73124 0.58835 0.0
C1996 C 0.3315 0.76411 0.58496 0.0
C1997 C 0.24585 0.72377 0.58815 0.0
C1998 C 0.20118 0.74881 0.58456 0.0
H1999 H 0.34173 0.71125 0.59166 0.0
H2000 H 0.23143 0.69829 0.59132 0.0
S2001 S 0.23439 0.83816 0.57321 0.0
N2002 N 0.30341 0.82145 0.57677 0.0
N2003 N 0.18393 0.8074 0.57641 0.0
C2004 C 0.22253 0.7816 0.58071 0.0
C2005 C 0.28748 0.78922 0.58091 0.0
C2006 C 0.03808 0.77588 0.70248 0.0
C2007 C 0.99638 0.75887 0.71331 0.0
C2008 C 0.10189 0.76865 0.70263 0.0
C2009 C 0.12656 0.74396 0.71355 0.0
H2010 H 1.02104 0.7941 0.69335 0.0
H2011 H 0.13181 0.78156 0.69368 0.0
S2012 S 0.03914 0.6954 0.74594 0.0
N2013 N 0.9858 0.71865 0.73646 0.0
N2014 N 0.10546 0.70464 0.73648 0.0
C2015 C 0.08597 0.72773 0.7249 0.0
C2016 C 1.02105 0.73526 0.72484 0.0
C2017 C 0.22758 0.48651 0.69369 0.0
C2018 C 0.19153 0.48136 0.70835 0.0
C2019 C 0.29131 0.47932 0.69344 0.0
C2020 C 0.32169 0.46656 0.70782 0.0
H2021 H 0.20637 0.49635 0.68229 0.0
H2022 H 0.3171 0.48384 0.68187 0.0
S2023 S 0.24927 0.44946 0.74956 0.0
N2024 N 0.19142 0.46325 0.73775 0.0
N2025 N 0.31122 0.44943 0.73719 0.0
C2026 C 0.28623 0.46083 0.7225 0.0
C2027 C 0.22121 0.46828 0.72279 0.0
C2028 C 0.99558 0.45981 0.46017 0.0
C2029 C 0.95127 0.4851 0.4566 0.0
C2030 C 0.05946 0.46698 0.46051 0.0
C2031 C 0.08204 0.49979 0.4573 0.0
H2032 H 0.98073 0.43418 0.46283 0.0
H2033 H 0.09143 0.44665 0.46345 0.0
S2034 S 0.98602 0.57469 0.44614 0.0
N2035 N 0.93505 0.54409 0.44909 0.0
N2036 N 0.05472 0.55756 0.44966 0.0
C2037 C 0.03828 0.52532 0.45362 0.0
C2038 C 0.97317 0.518 0.45329 0.0
C2039 C 0.83332 0.23239 0.47618 0.0
C2040 C 0.87395 0.22326 0.46296 0.0
C2041 C 0.76961 0.22495 0.47548 0.0
C2042 C 0.74383 0.20805 0.46154 0.0
H2043 H 0.8509 0.2455 0.48716 0.0
H2044 H 0.74025 0.23254 0.48596 0.0
S2045 S 0.8293 0.18054 0.4231 0.0
N2046 N 0.88309 0.19752 0.43519 0.0
N2047 N 0.7638 0.18354 0.43389 0.0
C2048 C 0.78396 0.19873 0.44824 0.0
C2049 C 0.84878 0.20631 0.44895 0.0
C2050 C 0.0512 0.22776 0.33007 0.0
C2051 C 0.07762 0.20813 0.34308 0.0
C2052 C 0.98738 0.23519 0.32988 0.0
C2053 C 0.94731 0.2233 0.34268 0.0
H2054 H 0.08013 0.23756 0.31997 0.0
H2055 H 0.96929 0.25049 0.31964 0.0
S2056 S 0.99367 0.1726 0.38014 0.0
N2057 N 0.0588 0.17797 0.36943 0.0
N2058 N 0.93931 0.19189 0.36906 0.0
C2059 C 0.9731 0.20355 0.35573 0.0
C2060 C 0.03803 0.196 0.35593 0.0
C2061 C 0.82456 0.46027 0.34237 0.0
C2062 C 0.86883 0.48648 0.34274 0.0
C2063 C 0.76047 0.46716 0.34227 0.0
C2064 C 0.7377 0.50057 0.34258 0.0
H2065 H 0.8395 0.43411 0.34244 0.0
H2066 H 0.72846 0.44607 0.34222 0.0
S2067 S 0.83382 0.57846 0.34206 0.0
N2068 N 0.88492 0.54731 0.34237 0.0
N2069 N 0.76496 0.56022 0.34223 0.0
C2070 C 0.78143 0.52704 0.34266 0.0
C2071 C 0.8467 0.52002 0.34274 0.0
C2072 C 1.0103 0.00748 0.09332 0.0
C2073 C 0.98732 0.97492 0.09697 0.0
C2074 C 0.07431 0.01431 0.09337 0.0
C2075 C 0.11813 -0.01108 0.09711 0.0
H2076 H 0.97849 0.02799 0.09058 0.0
H2077 H 0.0896 0.03984 0.09065 0.0
S2078 S 0.08301 0.8988 0.1061 0.0
N2079 N 1.01427 0.91651 0.10343 0.0
N2080 N 0.13413 0.92951 0.10368 0.0
C2081 C 0.09594 0.95619 0.1006 0.0
C2082 C 1.03079 0.94916 0.10049 0.0
C2083 C 0.21867 0.26271 0.10374 0.0
C2084 C 0.19215 0.24674 0.08963 0.0
C2085 C 0.28238 0.26995 0.10433 0.0
C2086 C 0.32233 0.26161 0.09082 0.0
H2087 H 0.19026 0.26881 0.11464 0.0
H2088 H 0.30075 0.28139 0.11568 0.0
S2089 S 0.27493 0.22288 0.0502 0.0
N2090 N 0.21004 0.22499 0.06133 0.0
N2091 N 0.32961 0.23879 0.06238 0.0
C2092 C 0.29608 0.24655 0.07643 0.0
C2093 C 0.23115 0.23909 0.07585 0.0
C2094 C 1.0131 0.22566 0.20687 0.0
C2095 C 0.98941 0.25797 0.21063 0.0
C2096 C 0.07664 0.21845 0.20819 0.0
C2097 C 0.1195 0.24328 0.21322 0.0
H2098 H 0.98219 0.20572 0.20282 0.0
H2099 H 0.09247 0.19331 0.20487 0.0
S2100 S 0.08127 0.33195 0.22465 0.0
N2101 N 1.01373 0.3151 0.21965 0.0
N2102 N 0.13316 0.30149 0.22235 0.0
C2103 C 0.09637 0.27568 0.21718 0.0
C2104 C 1.03141 0.28299 0.21589 0.0
C2105 C 0.28513 0.94166 0.21206 0.0
C2106 C 0.33037 0.96738 0.21188 0.0
C2107 C 0.22135 0.9493 0.21247 0.0
C2108 C 0.19997 0.98299 0.21274 0.0
H2109 H 0.29912 0.91534 0.21184 0.0
H2110 H 0.18846 0.92862 0.21254 0.0
S2111 S 0.29887 0.05974 0.21142 0.0
N2112 N 0.34877 0.02802 0.21138 0.0
N2113 N 0.2294 0.04229 0.21222 0.0
C2114 C 0.24466 0.00894 0.21264 0.0
C2115 C 0.30958 0.00117 0.21219 0.0
C2116 C 0.99643 0.95567 0.95811 0.0
C2117 C 0.95242 0.98131 0.95504 0.0
C2118 C 0.06036 0.96253 0.95809 0.0
C2119 C 0.08313 -0.00463 0.95506 0.0
H2120 H 0.98131 0.92998 0.96049 0.0
H2121 H 0.09226 0.94187 0.96044 0.0
S2122 S 0.98701 0.07195 0.94735 0.0
N2123 N 0.93601 0.04107 0.94941 0.0
N2124 N 0.0559 0.05413 0.94955 0.0
C2125 C 0.03954 0.0213 0.952 0.0
C2126 C 0.97438 0.01424 0.95194 0.0
C2127 C 0.82685 0.73822 0.96664 0.0
C2128 C 0.86192 0.73375 0.95174 0.0
C2129 C 0.76266 0.73174 0.96711 0.0
C2130 C 0.73061 0.7206 0.95267 0.0
H2131 H 0.84899 0.74738 0.97801 0.0
H2132 H 0.73772 0.73592 0.97883 0.0
S2133 S 0.8016 0.70165 0.91092 0.0
N2134 N 0.86012 0.71519 0.92247 0.0
N2135 N 0.73984 0.70329 0.92332 0.0
C2136 C 0.76526 0.71544 0.93777 0.0
C2137 C 0.83066 0.72192 0.93731 0.0
C2138 C 0.03391 0.69882 0.84879 0.0
C2139 C 0.07597 0.71308 0.8371 0.0
C2140 C 0.97028 0.70666 0.84833 0.0
C2141 C 0.94603 0.72913 0.83619 0.0
H2142 H 0.05055 0.68222 0.8587 0.0
H2143 H 0.94016 0.69585 0.85791 0.0
S2144 S 0.03495 0.76998 0.80145 0.0
N2145 N 0.08763 0.74844 0.81211 0.0
N2146 N 0.9684 0.76321 0.81129 0.0
C2147 C 0.98718 0.74259 0.82406 0.0
C2148 C 0.05193 0.73459 0.82451 0.0
C2149 C 0.77215 -0.00875 0.83284 0.0
C2150 C 0.73585 -0.00439 0.84753 0.0
C2151 C 0.83631 0.98498 0.83374 0.0
C2152 C 0.86709 0.98282 0.84938 0.0
H2153 H 0.75062 -0.0077 0.8205 0.0
H2154 H 0.86185 0.98123 0.82208 0.0
S2155 S 0.79465 -0.00453 0.89158 0.0
N2156 N 0.73645 -0.00067 0.8782 0.0
N2157 N 0.85669 -0.01238 0.8799 0.0
C2158 C 0.83155 -0.01231 0.86418 0.0
C2159 C 0.76617 -0.00596 0.86325 0.0
C2160 C 1.02737 0.45499 0.03351 0.0
C2161 C 1.02049 0.48024 0.04598 0.0
C2162 C 1.02415 0.46259 1.01609 0.0
C2163 C 1.01393 0.49584 1.01029 0.0
H2164 H 0.03595 0.42901 0.03722 0.0
H2165 H 1.02928 0.44214 1.00711 0.0
S2166 S 0.99322 0.5715 0.03759 0.0
N2167 N 1.00278 0.54004 0.05108 0.0
N2168 N 0.99736 0.55439 1.0186 0.0
C2169 C 1.00696 0.52135 1.02262 0.0
C2170 C 1.00991 0.51356 0.04034 0.0
C2171 C 0.28772 0.70314 1.01736 0.0
C2172 C 0.28196 0.72791 1.00456 0.0
C2173 C 0.285 0.71159 0.03466 0.0
C2174 C 0.27644 0.74524 0.03999 0.0
H2175 H 0.29482 0.67688 1.01399 0.0
H2176 H 0.28904 0.69148 0.04391 0.0
S2177 S 0.25988 0.81994 1.01169 0.0
N2178 N 0.26763 0.78773 0.99863 0.0
N2179 N 0.26313 0.80364 0.03091 0.0
C2180 C 0.2709 0.7703 0.02733 0.0
C2181 C 0.27333 0.76165 1.00973 0.0
C2182 C 0.0574 0.74276 0.28593 0.0
C2183 C 1.00226 0.7251 0.28927 0.0
C2184 C 0.07643 0.74985 0.26923 0.0
C2185 C 0.04116 0.7397 0.25508 0.0
H2186 H 0.08622 0.7511 0.29627 0.0
H2187 H 0.11958 0.7634 0.26743 0.0
S2188 S 0.89204 0.69348 0.25682 0.0
N2189 N 0.91178 0.69801 0.27683 0.0
N2190 N 0.94781 0.7116 0.24568 0.0
C2191 C 0.9857 0.72233 0.25822 0.0
C2192 C 0.96626 0.71499 0.27522 0.0
C2193 C 0.29106 0.50721 0.2616 0.0
C2194 C 0.25828 0.47797 0.25701 0.0
C2195 C 0.30201 0.51496 0.27876 0.0
C2196 C 0.28158 0.4935 0.292 0.0
H2197 H 0.30668 0.52472 0.25194 0.0
H2198 H 0.32692 0.53798 0.28165 0.0
S2199 S 0.1965 0.41289 0.28659 0.0
N2200 N 0.20694 0.42701 0.26713 0.0
N2201 N 0.22889 0.44117 0.29905 0.0
C2202 C 0.25011 0.46385 0.28748 0.0
C2203 C 0.23819 0.45622 0.2701 0.0
C2204 C 0.83133 0.21984 1.02364 0.0
C2205 C 0.79436 0.22898 1.00959 0.0
C2206 C 0.81309 0.22716 0.04039 0.0
C2207 C 0.75705 0.24401 0.04383 0.0
H2208 H 0.87513 0.20693 1.0217 0.0
H2209 H 0.84311 0.21958 0.05067 0.0
S2210 S 0.64264 0.27287 1.01167 0.0
N2211 N 0.69869 0.2553 1.00043 0.0
N2212 N 0.66413 0.26931 0.03161 0.0
C2213 C 0.71952 0.25316 0.02988 0.0
C2214 C 0.73816 0.24561 1.01287 0.0
C2215 C 0.06406 0.25294 0.78999 0.0
C2216 C 1.03066 0.22395 0.79477 0.0
C2217 C 0.07462 0.26088 0.77287 0.0
C2218 C 0.05116 0.24066 0.75968 0.0
H2219 H 0.08284 0.26951 0.79957 0.0
H2220 H 0.10187 0.28315 0.76995 0.0
S2221 S 0.95926 0.1623 0.76519 0.0
N2222 N 0.97353 0.17485 0.78469 0.0
N2223 N 0.9922 0.19055 0.75265 0.0
C2224 C 1.0166 0.21198 0.76422 0.0
C2225 C 1.00679 0.20342 0.78169 0.0
C2226 C 0.83481 0.49926 0.77867 0.0
C2227 C 0.79687 0.49125 0.79276 0.0
C2228 C 0.81508 0.49377 0.76193 0.0
C2229 C 0.75647 0.48001 0.75852 0.0
H2230 H 0.88057 0.50983 0.78056 0.0
H2231 H 0.84612 0.50015 0.75162 0.0
S2232 S 0.63814 0.4559 0.79083 0.0
N2233 N 0.69727 0.46973 0.80204 0.0
N2234 N 0.65978 0.45925 0.77084 0.0
C2235 C 0.71781 0.47216 0.77252 0.0
C2236 C 0.73804 0.4778 0.78954 0.0
C2237 C 0.03891 0.95475 0.53236 0.0
C2238 C 0.03592 0.98055 0.54465 0.0
C2239 C 0.03602 0.962 0.51491 0.0
C2240 C 1.03004 -0.00459 0.50895 0.0
H2241 H 0.04402 0.9286 0.53623 0.0
H2242 H 0.03778 0.94117 0.50606 0.0
S2243 S 1.02167 0.07246 0.5357 0.0
N2244 N 1.02722 0.04105 0.54941 0.0
N2245 N 1.02238 0.05471 0.51684 0.0
C2246 C 1.02729 0.02148 0.52109 0.0
C2247 C 1.02989 0.01407 0.53884 0.0
C2248 C 0.25342 0.24459 0.51468 0.0
C2249 C 0.31096 0.22935 0.51122 0.0
C2250 C 0.23477 0.2516 0.53142 0.0
C2251 C 0.27273 0.24374 0.54546 0.0
H2252 H 0.22244 0.25102 0.50441 0.0
H2253 H 0.18978 0.26324 0.53334 0.0
S2254 S 0.42882 0.20474 0.54332 0.0
N2255 N 0.40661 0.20723 0.5234 0.0
N2256 N 0.37118 0.22067 0.55458 0.0
C2257 C 0.33048 0.2288 0.54217 0.0
C2258 C 0.3496 0.22158 0.52515 0.0
C2259 C 0.29226 0.0191 0.78199 0.0
C2260 C 0.28564 -0.00639 0.79441 0.0
C2261 C 0.29074 0.01165 0.76456 0.0
C2262 C 0.28269 0.97833 0.75875 0.0
H2263 H 0.29919 0.04513 0.78575 0.0
H2264 H 0.29537 0.03226 0.7556 0.0
S2265 S 0.26394 0.9021 0.78591 0.0
N2266 N 0.27067 0.93353 0.79945 0.0
N2267 N 0.26875 0.91948 0.76696 0.0
C2268 C 0.27621 0.95259 0.77103 0.0
C2269 C 0.27727 0.96022 0.78875 0.0
C2270 C 0.75163 0.74626 0.50745 0.0
C2271 C 0.808 0.72982 0.50392 0.0
C2272 C 0.73324 0.75326 0.52422 0.0
C2273 C 0.77038 0.74423 0.53824 0.0
H2274 H 0.72142 0.75377 0.49722 0.0
H2275 H 0.68917 0.76589 0.52619 0.0
S2276 S 0.9233 0.70161 0.53599 0.0
N2277 N 0.90163 0.70518 0.51606 0.0
N2278 N 0.8668 0.71858 0.5473 0.0
C2279 C 0.82699 0.72806 0.5349 0.0
C2280 C 0.8458 0.72083 0.51785 0.0
C2281 C 0.73607 0.95922 0.27341 0.0
C2282 C 0.76022 0.97983 0.26035 0.0
C2283 C 0.74614 0.9665 0.2906 0.0
C2284 C 0.7797 -0.00479 0.29555 0.0
H2285 H 0.70862 0.93717 0.27034 0.0
H2286 H 0.72687 0.94967 0.30008 0.0
S2287 S 0.85268 0.0577 0.2663 0.0
N2288 N 0.81998 0.02994 0.25361 0.0
N2289 N 0.83757 0.04454 0.28572 0.0
C2290 C 0.8042 0.01613 0.28257 0.0
C2291 C 0.79495 0.0082 0.26505 0.0
C2292 C 0.54054 0.45585 0.5303 0.0
C2293 C 0.53601 0.48166 0.54256 0.0
C2294 C 0.53719 0.46292 0.51283 0.0
C2295 C 0.52916 0.49617 0.50679 0.0
H2296 H 0.54713 0.42982 0.53422 0.0
H2297 H 0.54023 0.44207 0.50402 0.0
S2298 S 0.51608 0.57318 0.53347 0.0
N2299 N 0.52364 0.54198 0.54722 0.0
N2300 N 0.51787 0.55534 0.51462 0.0
C2301 C 0.52489 0.52225 0.51891 0.0
C2302 C 0.52801 0.515 0.53668 0.0
C2303 C 0.56922 0.74512 0.78679 0.0
C2304 C 0.51162 0.73 0.79021 0.0
C2305 C 0.58851 0.75179 0.77004 0.0
C2306 C 0.55114 0.7437 0.75594 0.0
H2307 H 0.5998 0.75166 0.7971 0.0
H2308 H 0.63357 0.76331 0.76815 0.0
S2309 S 0.39511 0.7049 0.75791 0.0
N2310 N 0.4165 0.70778 0.77787 0.0
N2311 N 0.45314 0.72055 0.74671 0.0
C2312 C 0.49328 0.72894 0.75919 0.0
C2313 C 0.47352 0.72206 0.7762 0.0
C2314 C 0.48142 0.22036 0.28056 0.0
C2315 C 0.51883 0.22922 0.29452 0.0
C2316 C 0.49969 0.22724 0.26375 0.0
C2317 C 0.55623 0.24336 0.26015 0.0
H2318 H 0.4372 0.20801 0.2826 0.0
H2319 H 0.46922 0.21997 0.25354 0.0
S2320 S 0.67226 0.27092 0.29204 0.0
N2321 N 0.61565 0.25431 0.30344 0.0
N2322 N 0.65034 0.26746 0.27214 0.0
C2323 C 0.59431 0.25216 0.27401 0.0
C2324 C 0.5756 0.24507 0.29109 0.0
C2325 C 0.54094 0.95206 0.03237 0.0
C2326 C 0.53685 0.97791 0.04463 0.0
C2327 C 0.53822 0.95916 1.01488 0.0
C2328 C 0.53148 -0.00752 1.00882 0.0
H2329 H 0.54662 0.92599 0.03632 0.0
H2330 H 0.54076 0.93829 1.00606 0.0
S2331 S 0.52033 0.06963 0.03548 0.0
N2332 N 0.52634 0.03835 0.04923 0.0
N2333 N 0.52211 0.05176 1.01665 0.0
C2334 C 0.52782 0.01859 1.02094 0.0
C2335 C 0.53012 0.01132 0.03872 0.0
loop_
_geom_bond_atom_site_label_1
_geom_bond_atom_site_label_2
_geom_bond_distance
_geom_bond_site_symmetry_2
_ccdc_geom_bond_type
Ho0 C3 2.811 . S
Ho0 O20 2.322 . S
Ho0 O22 2.378 . S
Ho0 O23 2.524 . S
Ho0 O24 2.381 . S
Ho0 O25 2.669 1_655 S
Ho0 O27 2.346 1_655 S
Ho0 O31 2.305 1_655 S
Ho1 C12 2.811 . S
Ho1 O21 2.346 . S
Ho1 O25 2.305 . S
Ho1 O26 2.322 . S
Ho1 O28 2.378 . S
Ho1 O29 2.524 . S
Ho1 O30 2.381 . S
Ho1 O31 2.669 . S
C2 O20 1.259 . S
C2 O21 1.268 1_655 S
C3 Ho0 2.811 . S
C3 C4 1.488 . S
C3 O22 1.215 . S
C3 O23 1.289 . S
C4 C3 1.488 . S
C4 C5 1.348 . S
C4 C9 1.413 . S
C5 C4 1.348 . S
C5 C6 1.442 . S
C5 H32 0.930 . S
C6 C5 1.442 . S
C6 C7 1.381 . S
C6 H33 0.931 . S
C7 C6 1.381 . S
C7 C8 1.321 . S
C8 C7 1.321 . S
C8 C9 1.403 . S
C8 H34 0.934 . S
C9 C4 1.413 . S
C9 C8 1.403 . S
C9 H35 0.930 . S
C10 O24 1.275 1_455 S
C10 O25 1.256 . S
C11 O26 1.259 . S
C11 O27 1.268 . S
C12 Ho1 2.811 . S
C12 C13 1.488 . S
C12 O28 1.215 . S
C12 O29 1.289 . S
C13 C12 1.488 . S
C13 C14 1.348 . S
C13 C18 1.413 . S
C14 C13 1.348 . S
C14 C15 1.442 . S
C14 H36 0.930 . S
C15 C14 1.442 . S
C15 C16 1.381 . S
C15 H37 0.931 . S
C16 C15 1.381 . S
C16 C17 1.321 . S
C17 C16 1.321 . S
C17 C18 1.403 . S
C17 H38 0.934 . S
C18 C13 1.413 . S
C18 C17 1.403 . S
C18 H39 0.930 . S
C19 O30 1.275 . S
C19 O31 1.256 . S
O20 Ho0 2.322 . S
O20 C2 1.259 . S
O21 Ho1 2.346 . S
O21 C2 1.268 1_455 S
O22 Ho0 2.378 . S
O22 C3 1.215 . S
O23 Ho0 2.524 . S
O23 C3 1.289 . S
O24 Ho0 2.381 . S
O24 C10 1.275 1_655 S
O25 Ho0 2.669 1_455 S
O25 Ho1 2.305 . S
O25 C10 1.256 . S
O26 Ho1 2.322 . S
O26 C11 1.259 . S
O27 Ho0 2.346 1_455 S
O27 C11 1.268 . S
O28 Ho1 2.378 . S
O28 C12 1.215 . S
O29 Ho1 2.524 . S
O29 C12 1.289 . S
O30 Ho1 2.381 . S
O30 C19 1.275 . S
O31 Ho0 2.305 1_455 S
O31 Ho1 2.669 . S
O31 C19 1.256 . S
H32 C5 0.930 . S
H33 C6 0.931 . S
H34 C8 0.934 . S
H35 C9 0.930 . S
H36 C14 0.930 . S
H37 C15 0.931 . S
H38 C17 0.934 . S
H39 C18 0.930 . S
Ho40 C43 2.811 . S
Ho40 O60 2.322 . S
Ho40 O62 2.378 . S
Ho40 O63 2.524 . S
Ho40 O64 2.381 . S
Ho40 O65 2.669 . S
Ho40 O67 2.346 . S
Ho40 O71 2.305 . S
Ho41 C52 2.811 . S
Ho41 O61 2.346 . S
Ho41 O65 2.305 . S
Ho41 O66 2.322 . S
Ho41 O68 2.378 . S
Ho41 O69 2.524 . S
Ho41 O70 2.381 . S
Ho41 O71 2.669 . S
C42 O60 1.259 . S
C42 O61 1.268 . S
C43 Ho40 2.811 . S
C43 C44 1.488 . S
C43 O62 1.215 . S
C43 O63 1.289 . S
C44 C43 1.488 . S
C44 C45 1.348 . S
C44 C49 1.413 . S
C45 C44 1.348 . S
C45 C46 1.442 . S
C45 H72 0.930 . S
C46 C45 1.442 . S
C46 C47 1.381 . S
C46 H73 0.931 . S
C47 C46 1.381 . S
C47 C48 1.321 . S
C48 C47 1.321 . S
C48 C49 1.403 . S
C48 H74 0.934 . S
C49 C44 1.413 . S
C49 C48 1.403 . S
C49 H75 0.930 . S
C50 O64 1.275 . S
C50 O65 1.256 . S
C51 O66 1.259 . S
C51 O67 1.268 . S
C52 Ho41 2.811 . S
C52 C53 1.488 1_455 S
C52 O68 1.215 . S
C52 O69 1.289 . S
C53 C52 1.488 1_655 S
C53 C54 1.348 . S
C53 C58 1.413 . S
C54 C53 1.348 . S
C54 C55 1.442 . S
C54 H76 0.930 . S
C55 C54 1.442 . S
C55 C56 1.381 . S
C55 H77 0.931 . S
C56 C55 1.381 . S
C56 C57 1.321 . S
C57 C56 1.321 . S
C57 C58 1.403 . S
C57 H78 0.934 . S
C58 C53 1.413 . S
C58 C57 1.403 . S
C58 H79 0.930 . S
C59 O70 1.275 . S
C59 O71 1.256 . S
O60 Ho40 2.322 . S
O60 C42 1.259 . S
O61 Ho41 2.346 . S
O61 C42 1.268 . S
O62 Ho40 2.378 . S
O62 C43 1.215 . S
O63 Ho40 2.524 . S
O63 C43 1.289 . S
O64 Ho40 2.381 . S
O64 C50 1.275 . S
O65 Ho40 2.669 . S
O65 Ho41 2.305 . S
O65 C50 1.256 . S
O66 Ho41 2.322 . S
O66 C51 1.259 . S
O67 Ho40 2.346 . S
O67 C51 1.268 . S
O68 Ho41 2.378 . S
O68 C52 1.215 . S
O69 Ho41 2.524 . S
O69 C52 1.289 . S
O70 Ho41 2.381 . S
O70 C59 1.275 . S
O71 Ho40 2.305 . S
O71 Ho41 2.669 . S
O71 C59 1.256 . S
H72 C45 0.930 . S
H73 C46 0.931 . S
H74 C48 0.934 . S
H75 C49 0.930 . S
H76 C54 0.930 . S
H77 C55 0.931 . S
H78 C57 0.934 . S
H79 C58 0.930 . S
Ho80 C83 2.811 . S
Ho80 O100 2.322 . S
Ho80 O102 2.378 . S
Ho80 O103 2.524 . S
Ho80 O104 2.381 . S
Ho80 O105 2.669 1_655 S
Ho80 O107 2.346 1_655 S
Ho80 O111 2.305 1_655 S
Ho81 C92 2.811 . S
Ho81 O101 2.346 . S
Ho81 O105 2.305 . S
Ho81 O106 2.322 . S
Ho81 O108 2.378 . S
Ho81 O109 2.524 . S
Ho81 O110 2.381 . S
Ho81 O111 2.669 . S
C82 O100 1.259 . S
C82 O101 1.268 1_655 S
C83 Ho80 2.811 . S
C83 C84 1.488 . S
C83 O102 1.215 . S
C83 O103 1.289 . S
C84 C83 1.488 . S
C84 C85 1.348 . S
C84 C89 1.413 . S
C85 C84 1.348 . S
C85 C86 1.442 . S
C85 H112 0.930 . S
C86 C85 1.442 . S
C86 C87 1.381 . S
C86 H113 0.931 . S
C87 C86 1.381 . S
C87 C88 1.321 . S
C88 C87 1.321 . S
C88 C89 1.403 . S
C88 H114 0.934 . S
C89 C84 1.413 . S
C89 C88 1.403 . S
C89 H115 0.930 . S
C90 O104 1.275 1_455 S
C90 O105 1.256 . S
C91 O106 1.259 . S
C91 O107 1.268 . S
C92 Ho81 2.811 . S
C92 C93 1.488 . S
C92 O108 1.215 . S
C92 O109 1.289 . S
C93 C92 1.488 . S
C93 C94 1.348 . S
C93 C98 1.413 . S
C94 C93 1.348 . S
C94 C95 1.442 . S
C94 H116 0.930 . S
C95 C94 1.442 . S
C95 C96 1.381 . S
C95 H117 0.931 . S
C96 C95 1.381 . S
C96 C97 1.321 . S
C97 C96 1.321 . S
C97 C98 1.403 . S
C97 H118 0.934 . S
C98 C93 1.413 . S
C98 C97 1.403 . S
C98 H119 0.930 . S
C99 O110 1.275 . S
C99 O111 1.256 . S
O100 Ho80 2.322 . S
O100 C82 1.259 . S
O101 Ho81 2.346 . S
O101 C82 1.268 1_455 S
O102 Ho80 2.378 . S
O102 C83 1.215 . S
O103 Ho80 2.524 . S
O103 C83 1.289 . S
O104 Ho80 2.381 . S
O104 C90 1.275 1_655 S
O105 Ho80 2.669 1_455 S
O105 Ho81 2.305 . S
O105 C90 1.256 . S
O106 Ho81 2.322 . S
O106 C91 1.259 . S
O107 Ho80 2.346 1_455 S
O107 C91 1.268 . S
O108 Ho81 2.378 . S
O108 C92 1.215 . S
O109 Ho81 2.524 . S
O109 C92 1.289 . S
O110 Ho81 2.381 . S
O110 C99 1.275 . S
O111 Ho80 2.305 1_455 S
O111 Ho81 2.669 . S
O111 C99 1.256 . S
H112 C85 0.930 . S
H113 C86 0.931 . S
H114 C88 0.934 . S
H115 C89 0.930 . S
H116 C94 0.930 . S
H117 C95 0.931 . S
H118 C97 0.934 . S
H119 C98 0.930 . S
Ho120 C123 2.811 . S
Ho120 O140 2.322 . S
Ho120 O142 2.378 . S
Ho120 O143 2.524 . S
Ho120 O144 2.381 . S
Ho120 O145 2.669 . S
Ho120 O147 2.346 . S
Ho120 O151 2.305 . S
Ho121 C132 2.811 . S
Ho121 O141 2.346 . S
Ho121 O145 2.305 . S
Ho121 O146 2.322 . S
Ho121 O148 2.378 . S
Ho121 O149 2.524 . S
Ho121 O150 2.381 . S
Ho121 O151 2.669 . S
C122 O140 1.259 . S
C122 O141 1.268 . S
C123 Ho120 2.811 . S
C123 C124 1.488 . S
C123 O142 1.215 . S
C123 O143 1.289 . S
C124 C123 1.488 . S
C124 C125 1.348 . S
C124 C129 1.413 . S
C125 C124 1.348 . S
C125 C126 1.442 . S
C125 H152 0.930 . S
C126 C125 1.442 . S
C126 C127 1.381 . S
C126 H153 0.931 . S
C127 C126 1.381 . S
C127 C128 1.321 . S
C128 C127 1.321 . S
C128 C129 1.403 . S
C128 H154 0.934 . S
C129 C124 1.413 . S
C129 C128 1.403 . S
C129 H155 0.930 . S
C130 O144 1.275 . S
C130 O145 1.256 . S
C131 O146 1.259 . S
C131 O147 1.268 . S
C132 Ho121 2.811 . S
C132 C133 1.488 1_455 S
C132 O148 1.215 . S
C132 O149 1.289 . S
C133 C132 1.488 1_655 S
C133 C134 1.348 . S
C133 C138 1.413 . S
C134 C133 1.348 . S
C134 C135 1.442 . S
C134 H156 0.930 . S
C135 C134 1.442 . S
C135 C136 1.381 . S
C135 H157 0.931 . S
C136 C135 1.381 . S
C136 C137 1.321 . S
C137 C136 1.321 . S
C137 C138 1.403 . S
C137 H158 0.934 . S
C138 C133 1.413 . S
C138 C137 1.403 . S
C138 H159 0.930 . S
C139 O150 1.275 . S
C139 O151 1.256 . S
O140 Ho120 2.322 . S
O140 C122 1.259 . S
O141 Ho121 2.346 . S
O141 C122 1.268 . S
O142 Ho120 2.378 . S
O142 C123 1.215 . S
O143 Ho120 2.524 . S
O143 C123 1.289 . S
O144 Ho120 2.381 . S
O144 C130 1.275 . S
O145 Ho120 2.669 . S
O145 Ho121 2.305 . S
O145 C130 1.256 . S
O146 Ho121 2.322 . S
O146 C131 1.259 . S
O147 Ho120 2.346 . S
O147 C131 1.268 . S
O148 Ho121 2.378 . S
O148 C132 1.215 . S
O149 Ho121 2.524 . S
O149 C132 1.289 . S
O150 Ho121 2.381 . S
O150 C139 1.275 . S
O151 Ho120 2.305 . S
O151 Ho121 2.669 . S
O151 C139 1.256 . S
H152 C125 0.930 . S
H153 C126 0.931 . S
H154 C128 0.934 . S
H155 C129 0.930 . S
H156 C134 0.930 . S
H157 C135 0.931 . S
H158 C137 0.934 . S
H159 C138 0.930 . S
Ho160 C163 2.811 . S
Ho160 O180 2.322 . S
Ho160 O182 2.378 . S
Ho160 O183 2.524 . S
Ho160 O184 2.381 . S
Ho160 O185 2.669 . S
Ho160 O187 2.346 . S
Ho160 O191 2.305 . S
Ho161 C172 2.811 . S
Ho161 O181 2.346 1_455 S
Ho161 O185 2.305 1_455 S
Ho161 O186 2.322 . S
Ho161 O188 2.378 . S
Ho161 O189 2.524 . S
Ho161 O190 2.381 . S
Ho161 O191 2.669 1_455 S
C162 O180 1.259 . S
C162 O181 1.268 . S
C163 Ho160 2.811 . S
C163 C164 1.488 . S
C163 O182 1.215 . S
C163 O183 1.289 . S
C164 C163 1.488 . S
C164 C165 1.348 . S
C164 C169 1.413 . S
C165 C164 1.348 . S
C165 C166 1.442 . S
C165 H192 0.930 . S
C166 C165 1.442 . S
C166 C167 1.381 . S
C166 H193 0.931 . S
C167 C166 1.381 . S
C167 C168 1.321 . S
C168 C167 1.321 . S
C168 C169 1.403 . S
C168 H194 0.934 . S
C169 C164 1.413 . S
C169 C168 1.403 . S
C169 H195 0.930 . S
C170 O184 1.275 . S
C170 O185 1.256 . S
C171 O186 1.259 . S
C171 O187 1.268 1_455 S
C172 Ho161 2.811 . S
C172 C173 1.488 . S
C172 O188 1.215 . S
C172 O189 1.289 . S
C173 C172 1.488 . S
C173 C174 1.348 . S
C173 C178 1.413 . S
C174 C173 1.348 . S
C174 C175 1.442 . S
C174 H196 0.930 . S
C175 C174 1.442 . S
C175 C176 1.381 . S
C175 H197 0.931 . S
C176 C175 1.381 . S
C176 C177 1.321 . S
C177 C176 1.321 . S
C177 C178 1.403 . S
C177 H198 0.934 . S
C178 C173 1.413 . S
C178 C177 1.403 . S
C178 H199 0.930 . S
C179 O190 1.275 1_655 S
C179 O191 1.256 . S
O180 Ho160 2.322 . S
O180 C162 1.259 . S
O181 Ho161 2.346 1_655 S
O181 C162 1.268 . S
O182 Ho160 2.378 . S
O182 C163 1.215 . S
O183 Ho160 2.524 . S
O183 C163 1.289 . S
O184 Ho160 2.381 . S
O184 C170 1.275 . S
O185 Ho160 2.669 . S
O185 Ho161 2.305 1_655 S
O185 C170 1.256 . S
O186 Ho161 2.322 . S
O186 C171 1.259 . S
O187 Ho160 2.346 . S
O187 C171 1.268 1_655 S
O188 Ho161 2.378 . S
O188 C172 1.215 . S
O189 Ho161 2.524 . S
O189 C172 1.289 . S
O190 Ho161 2.381 . S
O190 C179 1.275 1_455 S
O191 Ho160 2.305 . S
O191 Ho161 2.669 1_655 S
O191 C179 1.256 . S
H192 C165 0.930 . S
H193 C166 0.931 . S
H194 C168 0.934 . S
H195 C169 0.930 . S
H196 C174 0.930 . S
H197 C175 0.931 . S
H198 C177 0.934 . S
H199 C178 0.930 . S
Ho200 C203 2.811 . S
Ho200 O220 2.322 . S
Ho200 O222 2.378 . S
Ho200 O223 2.524 . S
Ho200 O224 2.381 . S
Ho200 O225 2.669 . S
Ho200 O227 2.346 . S
Ho200 O231 2.305 . S
Ho201 C212 2.811 . S
Ho201 O221 2.346 . S
Ho201 O225 2.305 . S
Ho201 O226 2.322 . S
Ho201 O228 2.378 . S
Ho201 O229 2.524 . S
Ho201 O230 2.381 . S
Ho201 O231 2.669 . S
C202 O220 1.259 . S
C202 O221 1.268 . S
C203 Ho200 2.811 . S
C203 C204 1.488 1_655 S
C203 O222 1.215 . S
C203 O223 1.289 . S
C204 C203 1.488 1_455 S
C204 C205 1.348 . S
C204 C209 1.413 . S
C205 C204 1.348 . S
C205 C206 1.442 . S
C205 H232 0.930 . S
C206 C205 1.442 . S
C206 C207 1.381 . S
C206 H233 0.931 . S
C207 C206 1.381 . S
C207 C208 1.321 . S
C208 C207 1.321 . S
C208 C209 1.403 . S
C208 H234 0.934 . S
C209 C204 1.413 . S
C209 C208 1.403 . S
C209 H235 0.930 . S
C210 O224 1.275 . S
C210 O225 1.256 . S
C211 O226 1.259 . S
C211 O227 1.268 . S
C212 Ho201 2.811 . S
C212 C213 1.488 . S
C212 O228 1.215 . S
C212 O229 1.289 . S
C213 C212 1.488 . S
C213 C214 1.348 . S
C213 C218 1.413 . S
C214 C213 1.348 . S
C214 C215 1.442 . S
C214 H236 0.930 . S
C215 C214 1.442 . S
C215 C216 1.381 . S
C215 H237 0.931 . S
C216 C215 1.381 . S
C216 C217 1.321 . S
C217 C216 1.321 . S
C217 C218 1.403 . S
C217 H238 0.934 . S
C218 C213 1.413 . S
C218 C217 1.403 . S
C218 H239 0.930 . S
C219 O230 1.275 . S
C219 O231 1.256 . S
O220 Ho200 2.322 . S
O220 C202 1.259 . S
O221 Ho201 2.346 . S
O221 C202 1.268 . S
O222 Ho200 2.378 . S
O222 C203 1.215 . S
O223 Ho200 2.524 . S
O223 C203 1.289 . S
O224 Ho200 2.381 . S
O224 C210 1.275 . S
O225 Ho200 2.669 . S
O225 Ho201 2.305 . S
O225 C210 1.256 . S
O226 Ho201 2.322 . S
O226 C211 1.259 . S
O227 Ho200 2.346 . S
O227 C211 1.268 . S
O228 Ho201 2.378 . S
O228 C212 1.215 . S
O229 Ho201 2.524 . S
O229 C212 1.289 . S
O230 Ho201 2.381 . S
O230 C219 1.275 . S
O231 Ho200 2.305 . S
O231 Ho201 2.669 . S
O231 C219 1.256 . S
H232 C205 0.930 . S
H233 C206 0.931 . S
H234 C208 0.934 . S
H235 C209 0.930 . S
H236 C214 0.930 . S
H237 C215 0.931 . S
H238 C217 0.934 . S
H239 C218 0.930 . S
Ho240 C243 2.811 . S
Ho240 O260 2.322 . S
Ho240 O262 2.378 . S
Ho240 O263 2.524 . S
Ho240 O264 2.381 . S
Ho240 O265 2.669 . S
Ho240 O267 2.346 . S
Ho240 O271 2.305 . S
Ho241 C252 2.811 . S
Ho241 O261 2.346 1_455 S
Ho241 O265 2.305 1_455 S
Ho241 O266 2.322 . S
Ho241 O268 2.378 . S
Ho241 O269 2.524 . S
Ho241 O270 2.381 . S
Ho241 O271 2.669 1_455 S
C242 O260 1.259 . S
C242 O261 1.268 . S
C243 Ho240 2.811 . S
C243 C244 1.488 . S
C243 O262 1.215 . S
C243 O263 1.289 . S
C244 C243 1.488 . S
C244 C245 1.348 . S
C244 C249 1.413 . S
C245 C244 1.348 . S
C245 C246 1.442 . S
C245 H272 0.930 . S
C246 C245 1.442 . S
C246 C247 1.381 . S
C246 H273 0.931 . S
C247 C246 1.381 . S
C247 C248 1.321 . S
C248 C247 1.321 . S
C248 C249 1.403 . S
C248 H274 0.934 . S
C249 C244 1.413 . S
C249 C248 1.403 . S
C249 H275 0.930 . S
C250 O264 1.275 . S
C250 O265 1.256 . S
C251 O266 1.259 . S
C251 O267 1.268 1_455 S
C252 Ho241 2.811 . S
C252 C253 1.488 . S
C252 O268 1.215 . S
C252 O269 1.289 . S
C253 C252 1.488 . S
C253 C254 1.348 . S
C253 C258 1.413 . S
C254 C253 1.348 . S
C254 C255 1.442 . S
C254 H276 0.930 . S
C255 C254 1.442 . S
C255 C256 1.381 . S
C255 H277 0.931 . S
C256 C255 1.381 . S
C256 C257 1.321 . S
C257 C256 1.321 . S
C257 C258 1.403 . S
C257 H278 0.934 . S
C258 C253 1.413 . S
C258 C257 1.403 . S
C258 H279 0.930 . S
C259 O270 1.275 1_655 S
C259 O271 1.256 . S
O260 Ho240 2.322 . S
O260 C242 1.259 . S
O261 Ho241 2.346 1_655 S
O261 C242 1.268 . S
O262 Ho240 2.378 . S
O262 C243 1.215 . S
O263 Ho240 2.524 . S
O263 C243 1.289 . S
O264 Ho240 2.381 . S
O264 C250 1.275 . S
O265 Ho240 2.669 . S
O265 Ho241 2.305 1_655 S
O265 C250 1.256 . S
O266 Ho241 2.322 . S
O266 C251 1.259 . S
O267 Ho240 2.346 . S
O267 C251 1.268 1_655 S
O268 Ho241 2.378 . S
O268 C252 1.215 . S
O269 Ho241 2.524 . S
O269 C252 1.289 . S
O270 Ho241 2.381 . S
O270 C259 1.275 1_455 S
O271 Ho240 2.305 . S
O271 Ho241 2.669 1_655 S
O271 C259 1.256 . S
H272 C245 0.930 . S
H273 C246 0.931 . S
H274 C248 0.934 . S
H275 C249 0.930 . S
H276 C254 0.930 . S
H277 C255 0.931 . S
H278 C257 0.934 . S
H279 C258 0.930 . S
Ho280 C283 2.811 . S
Ho280 O300 2.322 . S
Ho280 O302 2.378 . S
Ho280 O303 2.524 . S
Ho280 O304 2.381 . S
Ho280 O305 2.669 . S
Ho280 O307 2.346 . S
Ho280 O311 2.305 . S
Ho281 C292 2.811 . S
Ho281 O301 2.346 . S
Ho281 O305 2.305 . S
Ho281 O306 2.322 . S
Ho281 O308 2.378 . S
Ho281 O309 2.524 . S
Ho281 O310 2.381 . S
Ho281 O311 2.669 . S
C282 O300 1.259 . S
C282 O301 1.268 . S
C283 Ho280 2.811 . S
C283 C284 1.488 1_655 S
C283 O302 1.215 . S
C283 O303 1.289 . S
C284 C283 1.488 1_455 S
C284 C285 1.348 . S
C284 C289 1.413 . S
C285 C284 1.348 . S
C285 C286 1.442 . S
C285 H312 0.930 . S
C286 C285 1.442 . S
C286 C287 1.381 . S
C286 H313 0.931 . S
C287 C286 1.381 . S
C287 C288 1.321 . S
C288 C287 1.321 . S
C288 C289 1.403 . S
C288 H314 0.934 . S
C289 C284 1.413 . S
C289 C288 1.403 . S
C289 H315 0.930 . S
C290 O304 1.275 . S
C290 O305 1.256 . S
C291 O306 1.259 . S
C291 O307 1.268 . S
C292 Ho281 2.811 . S
C292 C293 1.488 . S
C292 O308 1.215 . S
C292 O309 1.289 . S
C293 C292 1.488 . S
C293 C294 1.348 . S
C293 C298 1.413 . S
C294 C293 1.348 . S
C294 C295 1.442 . S
C294 H316 0.930 . S
C295 C294 1.442 . S
C295 C296 1.381 . S
C295 H317 0.931 . S
C296 C295 1.381 . S
C296 C297 1.321 . S
C297 C296 1.321 . S
C297 C298 1.403 . S
C297 H318 0.934 . S
C298 C293 1.413 . S
C298 C297 1.403 . S
C298 H319 0.930 . S
C299 O310 1.275 . S
C299 O311 1.256 . S
O300 Ho280 2.322 . S
O300 C282 1.259 . S
O301 Ho281 2.346 . S
O301 C282 1.268 . S
O302 Ho280 2.378 . S
O302 C283 1.215 . S
O303 Ho280 2.524 . S
O303 C283 1.289 . S
O304 Ho280 2.381 . S
O304 C290 1.275 . S
O305 Ho280 2.669 . S
O305 Ho281 2.305 . S
O305 C290 1.256 . S
O306 Ho281 2.322 . S
O306 C291 1.259 . S
O307 Ho280 2.346 . S
O307 C291 1.268 . S
O308 Ho281 2.378 . S
O308 C292 1.215 . S
O309 Ho281 2.524 . S
O309 C292 1.289 . S
O310 Ho281 2.381 . S
O310 C299 1.275 . S
O311 Ho280 2.305 . S
O311 Ho281 2.669 . S
O311 C299 1.256 . S
H312 C285 0.930 . S
H313 C286 0.931 . S
H314 C288 0.934 . S
H315 C289 0.930 . S
H316 C294 0.930 . S
H317 C295 0.931 . S
H318 C297 0.934 . S
H319 C298 0.930 . S
Ho320 C323 2.811 . S
Ho320 O340 2.322 1_545 S
Ho320 O342 2.378 . S
Ho320 O343 2.524 1_545 S
Ho320 O344 2.381 . S
Ho320 O345 2.669 1_645 S
Ho320 O347 2.346 1_655 S
Ho320 O351 2.305 1_645 S
Ho321 C332 2.811 . S
Ho321 O341 2.346 . S
Ho321 O345 2.305 . S
Ho321 O346 2.322 1_565 S
Ho321 O348 2.378 . S
Ho321 O349 2.524 . S
Ho321 O350 2.381 . S
Ho321 O351 2.669 . S
C322 O340 1.259 . S
C322 O341 1.268 1_655 S
C323 Ho320 2.811 . S
C323 C324 1.488 1_545 S
C323 O342 1.215 . S
C323 O343 1.289 1_545 S
C324 C323 1.488 1_565 S
C324 C325 1.348 . S
C324 C329 1.413 . S
C325 C324 1.348 . S
C325 C326 1.442 . S
C325 H352 0.930 . S
C326 C325 1.442 . S
C326 C327 1.381 . S
C326 H353 0.931 . S
C327 C326 1.381 . S
C327 C328 1.321 . S
C328 C327 1.321 . S
C328 C329 1.403 . S
C328 H354 0.934 1_565 S
C329 C324 1.413 . S
C329 C328 1.403 . S
C329 H355 0.930 1_565 S
C330 O344 1.275 1_465 S
C330 O345 1.256 . S
C331 O346 1.259 . S
C331 O347 1.268 . S
C332 Ho321 2.811 . S
C332 C333 1.488 . S
C332 O348 1.215 . S
C332 O349 1.289 . S
C333 C332 1.488 . S
C333 C334 1.348 1_565 S
C333 C338 1.413 . S
C334 C333 1.348 1_545 S
C334 C335 1.442 . S
C334 H356 0.930 . S
C335 C334 1.442 . S
C335 C336 1.381 . S
C335 H357 0.931 . S
C336 C335 1.381 . S
C336 C337 1.321 1_545 S
C337 C336 1.321 1_565 S
C337 C338 1.403 . S
C337 H358 0.934 . S
C338 C333 1.413 . S
C338 C337 1.403 . S
C338 H359 0.930 . S
C339 O350 1.275 . S
C339 O351 1.256 . S
O340 Ho320 2.322 1_565 S
O340 C322 1.259 . S
O341 Ho321 2.346 . S
O341 C322 1.268 1_455 S
O342 Ho320 2.378 . S
O342 C323 1.215 . S
O343 Ho320 2.524 1_565 S
O343 C323 1.289 1_565 S
O344 Ho320 2.381 . S
O344 C330 1.275 1_645 S
O345 Ho320 2.669 1_465 S
O345 Ho321 2.305 . S
O345 C330 1.256 . S
O346 Ho321 2.322 1_545 S
O346 C331 1.259 . S
O347 Ho320 2.346 1_455 S
O347 C331 1.268 . S
O348 Ho321 2.378 . S
O348 C332 1.215 . S
O349 Ho321 2.524 . S
O349 C332 1.289 . S
O350 Ho321 2.381 . S
O350 C339 1.275 . S
O351 Ho320 2.305 1_465 S
O351 Ho321 2.669 . S
O351 C339 1.256 . S
H352 C325 0.930 . S
H353 C326 0.931 . S
H354 C328 0.934 1_545 S
H355 C329 0.930 1_545 S
H356 C334 0.930 . S
H357 C335 0.931 . S
H358 C337 0.934 . S
H359 C338 0.930 . S
Ho360 C363 2.811 . S
Ho360 O380 2.322 . S
Ho360 O382 2.378 . S
Ho360 O383 2.524 . S
Ho360 O384 2.381 . S
Ho360 O385 2.669 . S
Ho360 O387 2.346 . S
Ho360 O391 2.305 . S
Ho361 C372 2.811 . S
Ho361 O381 2.346 . S
Ho361 O385 2.305 . S
Ho361 O386 2.322 . S
Ho361 O388 2.378 . S
Ho361 O389 2.524 . S
Ho361 O390 2.381 . S
Ho361 O391 2.669 . S
C362 O380 1.259 . S
C362 O381 1.268 . S
C363 Ho360 2.811 . S
C363 C364 1.488 . S
C363 O382 1.215 . S
C363 O383 1.289 . S
C364 C363 1.488 . S
C364 C365 1.348 . S
C364 C369 1.413 . S
C365 C364 1.348 . S
C365 C366 1.442 . S
C365 H392 0.930 . S
C366 C365 1.442 . S
C366 C367 1.381 . S
C366 H393 0.931 . S
C367 C366 1.381 . S
C367 C368 1.321 . S
C368 C367 1.321 . S
C368 C369 1.403 . S
C368 H394 0.934 . S
C369 C364 1.413 . S
C369 C368 1.403 . S
C369 H395 0.930 . S
C370 O384 1.275 . S
C370 O385 1.256 . S
C371 O386 1.259 . S
C371 O387 1.268 . S
C372 Ho361 2.811 . S
C372 C373 1.488 1_455 S
C372 O388 1.215 . S
C372 O389 1.289 . S
C373 C372 1.488 1_655 S
C373 C374 1.348 . S
C373 C378 1.413 . S
C374 C373 1.348 . S
C374 C375 1.442 . S
C374 H396 0.930 . S
C375 C374 1.442 . S
C375 C376 1.381 . S
C375 H397 0.931 . S
C376 C375 1.381 . S
C376 C377 1.321 . S
C377 C376 1.321 . S
C377 C378 1.403 . S
C377 H398 0.934 . S
C378 C373 1.413 . S
C378 C377 1.403 . S
C378 H399 0.930 . S
C379 O390 1.275 . S
C379 O391 1.256 . S
O380 Ho360 2.322 . S
O380 C362 1.259 . S
O381 Ho361 2.346 . S
O381 C362 1.268 . S
O382 Ho360 2.378 . S
O382 C363 1.215 . S
O383 Ho360 2.524 . S
O383 C363 1.289 . S
O384 Ho360 2.381 . S
O384 C370 1.275 . S
O385 Ho360 2.669 . S
O385 Ho361 2.305 . S
O385 C370 1.256 . S
O386 Ho361 2.322 . S
O386 C371 1.259 . S
O387 Ho360 2.346 . S
O387 C371 1.268 . S
O388 Ho361 2.378 . S
O388 C372 1.215 . S
O389 Ho361 2.524 . S
O389 C372 1.289 . S
O390 Ho361 2.381 . S
O390 C379 1.275 . S
O391 Ho360 2.305 . S
O391 Ho361 2.669 . S
O391 C379 1.256 . S
H392 C365 0.930 . S
H393 C366 0.931 . S
H394 C368 0.934 . S
H395 C369 0.930 . S
H396 C374 0.930 . S
H397 C375 0.931 . S
H398 C377 0.934 . S
H399 C378 0.930 . S
Ho400 C403 2.811 . S
Ho400 O420 2.322 . S
Ho400 O422 2.378 . S
Ho400 O423 2.524 . S
Ho400 O424 2.381 . S
Ho400 O425 2.669 1_655 S
Ho400 O427 2.346 1_655 S
Ho400 O431 2.305 1_655 S
Ho401 C412 2.811 . S
Ho401 O421 2.346 . S
Ho401 O425 2.305 . S
Ho401 O426 2.322 . S
Ho401 O428 2.378 . S
Ho401 O429 2.524 . S
Ho401 O430 2.381 . S
Ho401 O431 2.669 . S
C402 O420 1.259 . S
C402 O421 1.268 1_655 S
C403 Ho400 2.811 . S
C403 C404 1.488 . S
C403 O422 1.215 . S
C403 O423 1.289 . S
C404 C403 1.488 . S
C404 C405 1.348 . S
C404 C409 1.413 . S
C405 C404 1.348 . S
C405 C406 1.442 . S
C405 H432 0.930 . S
C406 C405 1.442 . S
C406 C407 1.381 . S
C406 H433 0.931 . S
C407 C406 1.381 . S
C407 C408 1.321 . S
C408 C407 1.321 . S
C408 C409 1.403 . S
C408 H434 0.934 . S
C409 C404 1.413 . S
C409 C408 1.403 . S
C409 H435 0.930 . S
C410 O424 1.275 1_455 S
C410 O425 1.256 . S
C411 O426 1.259 . S
C411 O427 1.268 . S
C412 Ho401 2.811 . S
C412 C413 1.488 . S
C412 O428 1.215 . S
C412 O429 1.289 . S
C413 C412 1.488 . S
C413 C414 1.348 . S
C413 C418 1.413 . S
C414 C413 1.348 . S
C414 C415 1.442 . S
C414 H436 0.930 . S
C415 C414 1.442 . S
C415 C416 1.381 . S
C415 H437 0.931 . S
C416 C415 1.381 . S
C416 C417 1.321 . S
C417 C416 1.321 . S
C417 C418 1.403 . S
C417 H438 0.934 . S
C418 C413 1.413 . S
C418 C417 1.403 . S
C418 H439 0.930 . S
C419 O430 1.275 . S
C419 O431 1.256 . S
O420 Ho400 2.322 . S
O420 C402 1.259 . S
O421 Ho401 2.346 . S
O421 C402 1.268 1_455 S
O422 Ho400 2.378 . S
O422 C403 1.215 . S
O423 Ho400 2.524 . S
O423 C403 1.289 . S
O424 Ho400 2.381 . S
O424 C410 1.275 1_655 S
O425 Ho400 2.669 1_455 S
O425 Ho401 2.305 . S
O425 C410 1.256 . S
O426 Ho401 2.322 . S
O426 C411 1.259 . S
O427 Ho400 2.346 1_455 S
O427 C411 1.268 . S
O428 Ho401 2.378 . S
O428 C412 1.215 . S
O429 Ho401 2.524 . S
O429 C412 1.289 . S
O430 Ho401 2.381 . S
O430 C419 1.275 . S
O431 Ho400 2.305 1_455 S
O431 Ho401 2.669 . S
O431 C419 1.256 . S
H432 C405 0.930 . S
H433 C406 0.931 . S
H434 C408 0.934 . S
H435 C409 0.930 . S
H436 C414 0.930 . S
H437 C415 0.931 . S
H438 C417 0.934 . S
H439 C418 0.930 . S
Ho440 C443 2.811 . S
Ho440 O460 2.322 1_545 S
Ho440 O462 2.378 . S
Ho440 O463 2.524 1_545 S
Ho440 O464 2.381 . S
Ho440 O465 2.669 1_545 S
Ho440 O467 2.346 . S
Ho440 O471 2.305 1_545 S
Ho441 C452 2.811 . S
Ho441 O461 2.346 . S
Ho441 O465 2.305 . S
Ho441 O466 2.322 1_565 S
Ho441 O468 2.378 . S
Ho441 O469 2.524 . S
Ho441 O470 2.381 . S
Ho441 O471 2.669 . S
C442 O460 1.259 . S
C442 O461 1.268 . S
C443 Ho440 2.811 . S
C443 C444 1.488 1_545 S
C443 O462 1.215 . S
C443 O463 1.289 1_545 S
C444 C443 1.488 1_565 S
C444 C445 1.348 . S
C444 C449 1.413 . S
C445 C444 1.348 . S
C445 C446 1.442 . S
C445 H472 0.930 . S
C446 C445 1.442 . S
C446 C447 1.381 . S
C446 H473 0.931 . S
C447 C446 1.381 . S
C447 C448 1.321 . S
C448 C447 1.321 . S
C448 C449 1.403 . S
C448 H474 0.934 1_565 S
C449 C444 1.413 . S
C449 C448 1.403 . S
C449 H475 0.930 1_565 S
C450 O464 1.275 1_565 S
C450 O465 1.256 . S
C451 O466 1.259 . S
C451 O467 1.268 . S
C452 Ho441 2.811 . S
C452 C453 1.488 1_455 S
C452 O468 1.215 . S
C452 O469 1.289 . S
C453 C452 1.488 1_655 S
C453 C454 1.348 1_565 S
C453 C458 1.413 . S
C454 C453 1.348 1_545 S
C454 C455 1.442 . S
C454 H476 0.930 . S
C455 C454 1.442 . S
C455 C456 1.381 . S
C455 H477 0.931 . S
C456 C455 1.381 . S
C456 C457 1.321 1_545 S
C457 C456 1.321 1_565 S
C457 C458 1.403 . S
C457 H478 0.934 . S
C458 C453 1.413 . S
C458 C457 1.403 . S
C458 H479 0.930 . S
C459 O470 1.275 . S
C459 O471 1.256 . S
O460 Ho440 2.322 1_565 S
O460 C442 1.259 . S
O461 Ho441 2.346 . S
O461 C442 1.268 . S
O462 Ho440 2.378 . S
O462 C443 1.215 . S
O463 Ho440 2.524 1_565 S
O463 C443 1.289 1_565 S
O464 Ho440 2.381 . S
O464 C450 1.275 1_545 S
O465 Ho440 2.669 1_565 S
O465 Ho441 2.305 . S
O465 C450 1.256 . S
O466 Ho441 2.322 1_545 S
O466 C451 1.259 . S
O467 Ho440 2.346 . S
O467 C451 1.268 . S
O468 Ho441 2.378 . S
O468 C452 1.215 . S
O469 Ho441 2.524 . S
O469 C452 1.289 . S
O470 Ho441 2.381 . S
O470 C459 1.275 . S
O471 Ho440 2.305 1_565 S
O471 Ho441 2.669 . S
O471 C459 1.256 . S
H472 C445 0.930 . S
H473 C446 0.931 . S
H474 C448 0.934 1_545 S
H475 C449 0.930 1_545 S
H476 C454 0.930 . S
H477 C455 0.931 . S
H478 C457 0.934 . S
H479 C458 0.930 . S
Ho480 C483 2.811 . S
Ho480 O500 2.322 1_545 S
Ho480 O502 2.378 . S
Ho480 O503 2.524 . S
Ho480 O504 2.381 . S
Ho480 O505 2.669 . S
Ho480 O507 2.346 . S
Ho480 O511 2.305 . S
Ho481 C492 2.811 . S
Ho481 O501 2.346 1_455 S
Ho481 O505 2.305 1_465 S
Ho481 O506 2.322 1_565 S
Ho481 O508 2.378 . S
Ho481 O509 2.524 1_565 S
Ho481 O510 2.381 . S
Ho481 O511 2.669 1_465 S
C482 O500 1.259 . S
C482 O501 1.268 . S
C483 Ho480 2.811 . S
C483 C484 1.488 . S
C483 O502 1.215 . S
C483 O503 1.289 . S
C484 C483 1.488 . S
C484 C485 1.348 1_545 S
C484 C489 1.413 . S
C485 C484 1.348 1_565 S
C485 C486 1.442 . S
C485 H512 0.930 . S
C486 C485 1.442 . S
C486 C487 1.381 . S
C486 H513 0.931 . S
C487 C486 1.381 . S
C487 C488 1.321 1_565 S
C488 C487 1.321 1_545 S
C488 C489 1.403 . S
C488 H514 0.934 . S
C489 C484 1.413 . S
C489 C488 1.403 . S
C489 H515 0.930 . S
C490 O504 1.275 . S
C490 O505 1.256 . S
C491 O506 1.259 . S
C491 O507 1.268 1_455 S
C492 Ho481 2.811 . S
C492 C493 1.488 1_565 S
C492 O508 1.215 . S
C492 O509 1.289 1_565 S
C493 C492 1.488 1_545 S
C493 C494 1.348 . S
C493 C498 1.413 . S
C494 C493 1.348 . S
C494 C495 1.442 . S
C494 H516 0.930 . S
C495 C494 1.442 . S
C495 C496 1.381 . S
C495 H517 0.931 . S
C496 C495 1.381 . S
C496 C497 1.321 . S
C497 C496 1.321 . S
C497 C498 1.403 . S
C497 H518 0.934 1_545 S
C498 C493 1.413 . S
C498 C497 1.403 . S
C498 H519 0.930 1_545 S
C499 O510 1.275 1_645 S
C499 O511 1.256 . S
O500 Ho480 2.322 1_565 S
O500 C482 1.259 . S
O501 Ho481 2.346 1_655 S
O501 C482 1.268 . S
O502 Ho480 2.378 . S
O502 C483 1.215 . S
O503 Ho480 2.524 . S
O503 C483 1.289 . S
O504 Ho480 2.381 . S
O504 C490 1.275 . S
O505 Ho480 2.669 . S
O505 Ho481 2.305 1_645 S
O505 C490 1.256 . S
O506 Ho481 2.322 1_545 S
O506 C491 1.259 . S
O507 Ho480 2.346 . S
O507 C491 1.268 1_655 S
O508 Ho481 2.378 . S
O508 C492 1.215 . S
O509 Ho481 2.524 1_545 S
O509 C492 1.289 1_545 S
O510 Ho481 2.381 . S
O510 C499 1.275 1_465 S
O511 Ho480 2.305 . S
O511 Ho481 2.669 1_645 S
O511 C499 1.256 . S
H512 C485 0.930 . S
H513 C486 0.931 . S
H514 C488 0.934 . S
H515 C489 0.930 . S
H516 C494 0.930 . S
H517 C495 0.931 . S
H518 C497 0.934 1_565 S
H519 C498 0.930 1_565 S
Ho520 C523 2.811 . S
Ho520 O540 2.322 . S
Ho520 O542 2.378 . S
Ho520 O543 2.524 . S
Ho520 O544 2.381 . S
Ho520 O545 2.669 . S
Ho520 O547 2.346 . S
Ho520 O551 2.305 . S
Ho521 C532 2.811 . S
Ho521 O541 2.346 . S
Ho521 O545 2.305 . S
Ho521 O546 2.322 . S
Ho521 O548 2.378 . S
Ho521 O549 2.524 . S
Ho521 O550 2.381 . S
Ho521 O551 2.669 . S
C522 O540 1.259 . S
C522 O541 1.268 . S
C523 Ho520 2.811 . S
C523 C524 1.488 1_655 S
C523 O542 1.215 . S
C523 O543 1.289 . S
C524 C523 1.488 1_455 S
C524 C525 1.348 . S
C524 C529 1.413 . S
C525 C524 1.348 . S
C525 C526 1.442 . S
C525 H552 0.930 . S
C526 C525 1.442 . S
C526 C527 1.381 . S
C526 H553 0.931 . S
C527 C526 1.381 . S
C527 C528 1.321 . S
C528 C527 1.321 . S
C528 C529 1.403 . S
C528 H554 0.934 . S
C529 C524 1.413 . S
C529 C528 1.403 . S
C529 H555 0.930 . S
C530 O544 1.275 . S
C530 O545 1.256 . S
C531 O546 1.259 . S
C531 O547 1.268 . S
C532 Ho521 2.811 . S
C532 C533 1.488 . S
C532 O548 1.215 . S
C532 O549 1.289 . S
C533 C532 1.488 . S
C533 C534 1.348 . S
C533 C538 1.413 . S
C534 C533 1.348 . S
C534 C535 1.442 . S
C534 H556 0.930 . S
C535 C534 1.442 . S
C535 C536 1.381 . S
C535 H557 0.931 . S
C536 C535 1.381 . S
C536 C537 1.321 . S
C537 C536 1.321 . S
C537 C538 1.403 . S
C537 H558 0.934 . S
C538 C533 1.413 . S
C538 C537 1.403 . S
C538 H559 0.930 . S
C539 O550 1.275 . S
C539 O551 1.256 . S
O540 Ho520 2.322 . S
O540 C522 1.259 . S
O541 Ho521 2.346 . S
O541 C522 1.268 . S
O542 Ho520 2.378 . S
O542 C523 1.215 . S
O543 Ho520 2.524 . S
O543 C523 1.289 . S
O544 Ho520 2.381 . S
O544 C530 1.275 . S
O545 Ho520 2.669 . S
O545 Ho521 2.305 . S
O545 C530 1.256 . S
O546 Ho521 2.322 . S
O546 C531 1.259 . S
O547 Ho520 2.346 . S
O547 C531 1.268 . S
O548 Ho521 2.378 . S
O548 C532 1.215 . S
O549 Ho521 2.524 . S
O549 C532 1.289 . S
O550 Ho521 2.381 . S
O550 C539 1.275 . S
O551 Ho520 2.305 . S
O551 Ho521 2.669 . S
O551 C539 1.256 . S
H552 C525 0.930 . S
H553 C526 0.931 . S
H554 C528 0.934 . S
H555 C529 0.930 . S
H556 C534 0.930 . S
H557 C535 0.931 . S
H558 C537 0.934 . S
H559 C538 0.930 . S
Ho560 C563 2.811 . S
Ho560 O580 2.322 . S
Ho560 O582 2.378 . S
Ho560 O583 2.524 . S
Ho560 O584 2.381 . S
Ho560 O585 2.669 . S
Ho560 O587 2.346 . S
Ho560 O591 2.305 . S
Ho561 C572 2.811 . S
Ho561 O581 2.346 1_455 S
Ho561 O585 2.305 1_455 S
Ho561 O586 2.322 . S
Ho561 O588 2.378 . S
Ho561 O589 2.524 . S
Ho561 O590 2.381 . S
Ho561 O591 2.669 1_455 S
C562 O580 1.259 . S
C562 O581 1.268 . S
C563 Ho560 2.811 . S
C563 C564 1.488 . S
C563 O582 1.215 . S
C563 O583 1.289 . S
C564 C563 1.488 . S
C564 C565 1.348 . S
C564 C569 1.413 . S
C565 C564 1.348 . S
C565 C566 1.442 . S
C565 H592 0.930 . S
C566 C565 1.442 . S
C566 C567 1.381 . S
C566 H593 0.931 . S
C567 C566 1.381 . S
C567 C568 1.321 . S
C568 C567 1.321 . S
C568 C569 1.403 . S
C568 H594 0.934 . S
C569 C564 1.413 . S
C569 C568 1.403 . S
C569 H595 0.930 . S
C570 O584 1.275 . S
C570 O585 1.256 . S
C571 O586 1.259 . S
C571 O587 1.268 1_455 S
C572 Ho561 2.811 . S
C572 C573 1.488 . S
C572 O588 1.215 . S
C572 O589 1.289 . S
C573 C572 1.488 . S
C573 C574 1.348 . S
C573 C578 1.413 . S
C574 C573 1.348 . S
C574 C575 1.442 . S
C574 H596 0.930 . S
C575 C574 1.442 . S
C575 C576 1.381 . S
C575 H597 0.931 . S
C576 C575 1.381 . S
C576 C577 1.321 . S
C577 C576 1.321 . S
C577 C578 1.403 . S
C577 H598 0.934 . S
C578 C573 1.413 . S
C578 C577 1.403 . S
C578 H599 0.930 . S
C579 O590 1.275 1_655 S
C579 O591 1.256 . S
O580 Ho560 2.322 . S
O580 C562 1.259 . S
O581 Ho561 2.346 1_655 S
O581 C562 1.268 . S
O582 Ho560 2.378 . S
O582 C563 1.215 . S
O583 Ho560 2.524 . S
O583 C563 1.289 . S
O584 Ho560 2.381 . S
O584 C570 1.275 . S
O585 Ho560 2.669 . S
O585 Ho561 2.305 1_655 S
O585 C570 1.256 . S
O586 Ho561 2.322 . S
O586 C571 1.259 . S
O587 Ho560 2.346 . S
O587 C571 1.268 1_655 S
O588 Ho561 2.378 . S
O588 C572 1.215 . S
O589 Ho561 2.524 . S
O589 C572 1.289 . S
O590 Ho561 2.381 . S
O590 C579 1.275 1_455 S
O591 Ho560 2.305 . S
O591 Ho561 2.669 1_655 S
O591 C579 1.256 . S
H592 C565 0.930 . S
H593 C566 0.931 . S
H594 C568 0.934 . S
H595 C569 0.930 . S
H596 C574 0.930 . S
H597 C575 0.931 . S
H598 C577 0.934 . S
H599 C578 0.930 . S
Ho600 C603 2.811 . S
Ho600 O620 2.322 1_545 S
Ho600 O622 2.378 . S
Ho600 O623 2.524 . S
Ho600 O624 2.381 . S
Ho600 O625 2.669 . S
Ho600 O627 2.346 . S
Ho600 O631 2.305 . S
Ho601 C612 2.811 . S
Ho601 O621 2.346 . S
Ho601 O625 2.305 1_565 S
Ho601 O626 2.322 1_565 S
Ho601 O628 2.378 . S
Ho601 O629 2.524 1_565 S
Ho601 O630 2.381 . S
Ho601 O631 2.669 1_565 S
C602 O620 1.259 . S
C602 O621 1.268 . S
C603 Ho600 2.811 . S
C603 C604 1.488 1_655 S
C603 O622 1.215 . S
C603 O623 1.289 . S
C604 C603 1.488 1_455 S
C604 C605 1.348 1_545 S
C604 C609 1.413 . S
C605 C604 1.348 1_565 S
C605 C606 1.442 . S
C605 H632 0.930 . S
C606 C605 1.442 . S
C606 C607 1.381 . S
C606 H633 0.931 . S
C607 C606 1.381 . S
C607 C608 1.321 1_565 S
C608 C607 1.321 1_545 S
C608 C609 1.403 . S
C608 H634 0.934 . S
C609 C604 1.413 . S
C609 C608 1.403 . S
C609 H635 0.930 . S
C610 O624 1.275 . S
C610 O625 1.256 . S
C611 O626 1.259 . S
C611 O627 1.268 . S
C612 Ho601 2.811 . S
C612 C613 1.488 1_565 S
C612 O628 1.215 . S
C612 O629 1.289 1_565 S
C613 C612 1.488 1_545 S
C613 C614 1.348 . S
C613 C618 1.413 . S
C614 C613 1.348 . S
C614 C615 1.442 . S
C614 H636 0.930 . S
C615 C614 1.442 . S
C615 C616 1.381 . S
C615 H637 0.931 . S
C616 C615 1.381 . S
C616 C617 1.321 . S
C617 C616 1.321 . S
C617 C618 1.403 . S
C617 H638 0.934 1_545 S
C618 C613 1.413 . S
C618 C617 1.403 . S
C618 H639 0.930 1_545 S
C619 O630 1.275 1_545 S
C619 O631 1.256 . S
O620 Ho600 2.322 1_565 S
O620 C602 1.259 . S
O621 Ho601 2.346 . S
O621 C602 1.268 . S
O622 Ho600 2.378 . S
O622 C603 1.215 . S
O623 Ho600 2.524 . S
O623 C603 1.289 . S
O624 Ho600 2.381 . S
O624 C610 1.275 . S
O625 Ho600 2.669 . S
O625 Ho601 2.305 1_545 S
O625 C610 1.256 . S
O626 Ho601 2.322 1_545 S
O626 C611 1.259 . S
O627 Ho600 2.346 . S
O627 C611 1.268 . S
O628 Ho601 2.378 . S
O628 C612 1.215 . S
O629 Ho601 2.524 1_545 S
O629 C612 1.289 1_545 S
O630 Ho601 2.381 . S
O630 C619 1.275 1_565 S
O631 Ho600 2.305 . S
O631 Ho601 2.669 1_545 S
O631 C619 1.256 . S
H632 C605 0.930 . S
H633 C606 0.931 . S
H634 C608 0.934 . S
H635 C609 0.930 . S
H636 C614 0.930 . S
H637 C615 0.931 . S
H638 C617 0.934 1_565 S
H639 C618 0.930 1_565 S
Ho640 C643 2.811 . S
Ho640 O660 2.322 . S
Ho640 O662 2.378 . S
Ho640 O663 2.524 . S
Ho640 O664 2.381 . S
Ho640 O665 2.669 . S
Ho640 O667 2.346 . S
Ho640 O671 2.305 . S
Ho641 C652 2.811 . S
Ho641 O661 2.346 . S
Ho641 O665 2.305 . S
Ho641 O666 2.322 . S
Ho641 O668 2.378 . S
Ho641 O669 2.524 . S
Ho641 O670 2.381 . S
Ho641 O671 2.669 . S
C642 O660 1.259 . S
C642 O661 1.268 . S
C643 Ho640 2.811 . S
C643 C644 1.488 . S
C643 O662 1.215 . S
C643 O663 1.289 . S
C644 C643 1.488 . S
C644 C645 1.348 . S
C644 C649 1.413 . S
C645 C644 1.348 . S
C645 C646 1.442 . S
C645 H672 0.930 . S
C646 C645 1.442 . S
C646 C647 1.381 . S
C646 H673 0.931 . S
C647 C646 1.381 . S
C647 C648 1.321 . S
C648 C647 1.321 . S
C648 C649 1.403 . S
C648 H674 0.934 . S
C649 C644 1.413 . S
C649 C648 1.403 . S
C649 H675 0.930 . S
C650 O664 1.275 . S
C650 O665 1.256 . S
C651 O666 1.259 . S
C651 O667 1.268 . S
C652 Ho641 2.811 . S
C652 C653 1.488 . S
C652 O668 1.215 . S
C652 O669 1.289 . S
C653 C652 1.488 . S
C653 C654 1.348 . S
C653 C658 1.413 . S
C654 C653 1.348 . S
C654 C655 1.442 . S
C654 H676 0.930 . S
C655 C654 1.442 . S
C655 C656 1.381 . S
C655 H677 0.931 . S
C656 C655 1.381 . S
C656 C657 1.321 . S
C657 C656 1.321 . S
C657 C658 1.403 . S
C657 H678 0.934 . S
C658 C653 1.413 . S
C658 C657 1.403 . S
C658 H679 0.930 . S
C659 O670 1.275 . S
C659 O671 1.256 . S
O660 Ho640 2.322 . S
O660 C642 1.259 . S
O661 Ho641 2.346 . S
O661 C642 1.268 . S
O662 Ho640 2.378 . S
O662 C643 1.215 . S
O663 Ho640 2.524 . S
O663 C643 1.289 . S
O664 Ho640 2.381 . S
O664 C650 1.275 . S
O665 Ho640 2.669 . S
O665 Ho641 2.305 . S
O665 C650 1.256 . S
O666 Ho641 2.322 . S
O666 C651 1.259 . S
O667 Ho640 2.346 . S
O667 C651 1.268 . S
O668 Ho641 2.378 . S
O668 C652 1.215 . S
O669 Ho641 2.524 . S
O669 C652 1.289 . S
O670 Ho641 2.381 . S
O670 C659 1.275 . S
O671 Ho640 2.305 . S
O671 Ho641 2.669 . S
O671 C659 1.256 . S
H672 C645 0.930 . S
H673 C646 0.931 . S
H674 C648 0.934 . S
H675 C649 0.930 . S
H676 C654 0.930 . S
H677 C655 0.931 . S
H678 C657 0.934 . S
H679 C658 0.930 . S
Ho680 C683 2.811 . S
Ho680 O700 2.322 . S
Ho680 O702 2.378 . S
Ho680 O703 2.524 . S
Ho680 O704 2.381 . S
Ho680 O705 2.669 . S
Ho680 O707 2.346 . S
Ho680 O711 2.305 . S
Ho681 C692 2.811 . S
Ho681 O701 2.346 . S
Ho681 O705 2.305 . S
Ho681 O706 2.322 . S
Ho681 O708 2.378 . S
Ho681 O709 2.524 . S
Ho681 O710 2.381 . S
Ho681 O711 2.669 . S
C682 O700 1.259 . S
C682 O701 1.268 . S
C683 Ho680 2.811 . S
C683 C684 1.488 . S
C683 O702 1.215 . S
C683 O703 1.289 . S
C684 C683 1.488 . S
C684 C685 1.346 1_655 S
C684 C689 1.413 1_655 S
C685 C684 1.346 1_455 S
C685 C686 1.445 . S
C685 H712 0.928 1_455 S
C686 C685 1.445 . S
C686 C687 1.381 . S
C686 H713 0.931 . S
C687 C686 1.381 . S
C687 C688 1.321 . S
C688 C687 1.321 . S
C688 C689 1.403 . S
C688 H714 0.934 . S
C689 C684 1.413 1_455 S
C689 C688 1.403 . S
C689 H715 0.930 1_455 S
C690 O704 1.275 . S
C690 O705 1.256 . S
C691 O706 1.259 . S
C691 O707 1.268 . S
C692 Ho681 2.811 . S
C692 C693 1.488 . S
C692 O708 1.215 . S
C692 O709 1.289 . S
C693 C692 1.488 . S
C693 C694 1.348 . S
C693 C698 1.413 . S
C694 C693 1.348 . S
C694 C695 1.442 . S
C694 H716 0.930 . S
C695 C694 1.442 . S
C695 C696 1.381 . S
C695 H717 0.931 . S
C696 C695 1.381 . S
C696 C697 1.321 . S
C697 C696 1.321 . S
C697 C698 1.403 . S
C697 H718 0.934 . S
C698 C693 1.413 . S
C698 C697 1.403 . S
C698 H719 0.930 . S
C699 O710 1.275 . S
C699 O711 1.256 . S
O700 Ho680 2.322 . S
O700 C682 1.259 . S
O701 Ho681 2.346 . S
O701 C682 1.268 . S
O702 Ho680 2.378 . S
O702 C683 1.215 . S
O703 Ho680 2.524 . S
O703 C683 1.289 . S
O704 Ho680 2.381 . S
O704 C690 1.275 . S
O705 Ho680 2.669 . S
O705 Ho681 2.305 . S
O705 C690 1.256 . S
O706 Ho681 2.322 . S
O706 C691 1.259 . S
O707 Ho680 2.346 . S
O707 C691 1.268 . S
O708 Ho681 2.378 . S
O708 C692 1.215 . S
O709 Ho681 2.524 . S
O709 C692 1.289 . S
O710 Ho681 2.381 . S
O710 C699 1.275 . S
O711 Ho680 2.305 . S
O711 Ho681 2.669 . S
O711 C699 1.256 . S
H712 C685 0.928 1_655 S
H713 C686 0.931 . S
H714 C688 0.934 . S
H715 C689 0.930 1_655 S
H716 C694 0.930 . S
H717 C695 0.931 . S
H718 C697 0.934 . S
H719 C698 0.930 . S
Ho720 C723 2.811 . S
Ho720 O740 2.322 . S
Ho720 O742 2.378 . S
Ho720 O743 2.524 . S
Ho720 O744 2.381 . S
Ho720 O745 2.669 . S
Ho720 O747 2.346 . S
Ho720 O751 2.305 . S
Ho721 C732 2.811 . S
Ho721 O741 2.346 . S
Ho721 O745 2.305 . S
Ho721 O746 2.322 . S
Ho721 O748 2.378 . S
Ho721 O749 2.524 . S
Ho721 O750 2.381 . S
Ho721 O751 2.669 . S
C722 O740 1.259 . S
C722 O741 1.268 . S
C723 Ho720 2.811 . S
C723 C724 1.488 . S
C723 O742 1.215 . S
C723 O743 1.289 . S
C724 C723 1.488 . S
C724 C725 1.348 . S
C724 C729 1.413 . S
C725 C724 1.348 . S
C725 C726 1.442 . S
C725 H752 0.930 . S
C726 C725 1.442 . S
C726 C727 1.381 . S
C726 H753 0.931 . S
C727 C726 1.381 . S
C727 C728 1.321 . S
C728 C727 1.321 . S
C728 C729 1.403 . S
C728 H754 0.934 . S
C729 C724 1.413 . S
C729 C728 1.403 . S
C729 H755 0.930 . S
C730 O744 1.275 . S
C730 O745 1.256 . S
C731 O746 1.259 . S
C731 O747 1.268 . S
C732 Ho721 2.811 . S
C732 C733 1.488 . S
C732 O748 1.215 . S
C732 O749 1.289 . S
C733 C732 1.488 . S
C733 C734 1.348 . S
C733 C738 1.413 . S
C734 C733 1.348 . S
C734 C735 1.442 . S
C734 H756 0.930 . S
C735 C734 1.442 . S
C735 C736 1.381 . S
C735 H757 0.931 . S
C736 C735 1.381 . S
C736 C737 1.321 . S
C737 C736 1.321 . S
C737 C738 1.403 . S
C737 H758 0.934 . S
C738 C733 1.413 . S
C738 C737 1.403 . S
C738 H759 0.930 . S
C739 O750 1.275 . S
C739 O751 1.256 . S
O740 Ho720 2.322 . S
O740 C722 1.259 . S
O741 Ho721 2.346 . S
O741 C722 1.268 . S
O742 Ho720 2.378 . S
O742 C723 1.215 . S
O743 Ho720 2.524 . S
O743 C723 1.289 . S
O744 Ho720 2.381 . S
O744 C730 1.275 . S
O745 Ho720 2.669 . S
O745 Ho721 2.305 . S
O745 C730 1.256 . S
O746 Ho721 2.322 . S
O746 C731 1.259 . S
O747 Ho720 2.346 . S
O747 C731 1.268 . S
O748 Ho721 2.378 . S
O748 C732 1.215 . S
O749 Ho721 2.524 . S
O749 C732 1.289 . S
O750 Ho721 2.381 . S
O750 C739 1.275 . S
O751 Ho720 2.305 . S
O751 Ho721 2.669 . S
O751 C739 1.256 . S
H752 C725 0.930 . S
H753 C726 0.931 . S
H754 C728 0.934 . S
H755 C729 0.930 . S
H756 C734 0.930 . S
H757 C735 0.931 . S
H758 C737 0.934 . S
H759 C738 0.930 . S
Ho760 C763 2.811 . S
Ho760 O780 2.322 . S
Ho760 O782 2.378 . S
Ho760 O783 2.524 . S
Ho760 O784 2.381 . S
Ho760 O785 2.669 . S
Ho760 O787 2.346 . S
Ho760 O791 2.305 . S
Ho761 C772 2.811 . S
Ho761 O781 2.346 . S
Ho761 O785 2.305 . S
Ho761 O786 2.322 . S
Ho761 O788 2.378 . S
Ho761 O789 2.524 . S
Ho761 O790 2.381 . S
Ho761 O791 2.669 . S
C762 O780 1.259 . S
C762 O781 1.268 . S
C763 Ho760 2.811 . S
C763 C764 1.488 . S
C763 O782 1.215 . S
C763 O783 1.289 . S
C764 C763 1.488 . S
C764 C765 1.346 1_655 S
C764 C769 1.413 1_655 S
C765 C764 1.346 1_455 S
C765 C766 1.445 . S
C765 H792 0.928 1_455 S
C766 C765 1.445 . S
C766 C767 1.381 . S
C766 H793 0.931 . S
C767 C766 1.381 . S
C767 C768 1.321 . S
C768 C767 1.321 . S
C768 C769 1.403 . S
C768 H794 0.934 . S
C769 C764 1.413 1_455 S
C769 C768 1.403 . S
C769 H795 0.930 1_455 S
C770 O784 1.275 . S
C770 O785 1.256 . S
C771 O786 1.259 . S
C771 O787 1.268 . S
C772 Ho761 2.811 . S
C772 C773 1.488 . S
C772 O788 1.215 . S
C772 O789 1.289 . S
C773 C772 1.488 . S
C773 C774 1.348 . S
C773 C778 1.413 . S
C774 C773 1.348 . S
C774 C775 1.442 . S
C774 H796 0.930 . S
C775 C774 1.442 . S
C775 C776 1.381 . S
C775 H797 0.931 . S
C776 C775 1.381 . S
C776 C777 1.321 . S
C777 C776 1.321 . S
C777 C778 1.403 . S
C777 H798 0.934 . S
C778 C773 1.413 . S
C778 C777 1.403 . S
C778 H799 0.930 . S
C779 O790 1.275 . S
C779 O791 1.256 . S
O780 Ho760 2.322 . S
O780 C762 1.259 . S
O781 Ho761 2.346 . S
O781 C762 1.268 . S
O782 Ho760 2.378 . S
O782 C763 1.215 . S
O783 Ho760 2.524 . S
O783 C763 1.289 . S
O784 Ho760 2.381 . S
O784 C770 1.275 . S
O785 Ho760 2.669 . S
O785 Ho761 2.305 . S
O785 C770 1.256 . S
O786 Ho761 2.322 . S
O786 C771 1.259 . S
O787 Ho760 2.346 . S
O787 C771 1.268 . S
O788 Ho761 2.378 . S
O788 C772 1.215 . S
O789 Ho761 2.524 . S
O789 C772 1.289 . S
O790 Ho761 2.381 . S
O790 C779 1.275 . S
O791 Ho760 2.305 . S
O791 Ho761 2.669 . S
O791 C779 1.256 . S
H792 C765 0.928 1_655 S
H793 C766 0.931 . S
H794 C768 0.934 . S
H795 C769 0.930 1_655 S
H796 C774 0.930 . S
H797 C775 0.931 . S
H798 C777 0.934 . S
H799 C778 0.930 . S
Ho800 C803 2.811 . S
Ho800 O820 2.322 . S
Ho800 O822 2.378 . S
Ho800 O823 2.524 . S
Ho800 O824 2.381 . S
Ho800 O825 2.669 . S
Ho800 O827 2.346 . S
Ho800 O831 2.305 . S
Ho801 C812 2.811 . S
Ho801 O821 2.346 . S
Ho801 O825 2.305 . S
Ho801 O826 2.322 . S
Ho801 O828 2.378 . S
Ho801 O829 2.524 . S
Ho801 O830 2.381 . S
Ho801 O831 2.669 . S
C802 O820 1.259 . S
C802 O821 1.268 . S
C803 Ho800 2.811 . S
C803 C804 1.488 . S
C803 O822 1.215 . S
C803 O823 1.289 . S
C804 C803 1.488 . S
C804 C805 1.348 . S
C804 C809 1.413 . S
C805 C804 1.348 . S
C805 C806 1.442 . S
C805 H832 0.930 . S
C806 C805 1.442 . S
C806 C807 1.381 . S
C806 H833 0.931 . S
C807 C806 1.381 . S
C807 C808 1.321 . S
C808 C807 1.321 . S
C808 C809 1.403 . S
C808 H834 0.934 . S
C809 C804 1.413 . S
C809 C808 1.403 . S
C809 H835 0.930 . S
C810 O824 1.275 . S
C810 O825 1.256 . S
C811 O826 1.259 . S
C811 O827 1.268 . S
C812 Ho801 2.811 . S
C812 C813 1.488 . S
C812 O828 1.215 . S
C812 O829 1.289 . S
C813 C812 1.488 . S
C813 C814 1.348 . S
C813 C818 1.413 . S
C814 C813 1.348 . S
C814 C815 1.442 . S
C814 H836 0.930 . S
C815 C814 1.442 . S
C815 C816 1.381 . S
C815 H837 0.931 . S
C816 C815 1.381 . S
C816 C817 1.321 . S
C817 C816 1.321 . S
C817 C818 1.403 . S
C817 H838 0.934 . S
C818 C813 1.413 . S
C818 C817 1.403 . S
C818 H839 0.930 . S
C819 O830 1.275 . S
C819 O831 1.256 . S
O820 Ho800 2.322 . S
O820 C802 1.259 . S
O821 Ho801 2.346 . S
O821 C802 1.268 . S
O822 Ho800 2.378 . S
O822 C803 1.215 . S
O823 Ho800 2.524 . S
O823 C803 1.289 . S
O824 Ho800 2.381 . S
O824 C810 1.275 . S
O825 Ho800 2.669 . S
O825 Ho801 2.305 . S
O825 C810 1.256 . S
O826 Ho801 2.322 . S
O826 C811 1.259 . S
O827 Ho800 2.346 . S
O827 C811 1.268 . S
O828 Ho801 2.378 . S
O828 C812 1.215 . S
O829 Ho801 2.524 . S
O829 C812 1.289 . S
O830 Ho801 2.381 . S
O830 C819 1.275 . S
O831 Ho800 2.305 . S
O831 Ho801 2.669 . S
O831 C819 1.256 . S
H832 C805 0.930 . S
H833 C806 0.931 . S
H834 C808 0.934 . S
H835 C809 0.930 . S
H836 C814 0.930 . S
H837 C815 0.931 . S
H838 C817 0.934 . S
H839 C818 0.930 . S
Ho840 C843 2.811 . S
Ho840 O860 2.322 . S
Ho840 O862 2.378 . S
Ho840 O863 2.524 . S
Ho840 O864 2.381 . S
Ho840 O865 2.669 . S
Ho840 O867 2.346 . S
Ho840 O871 2.305 . S
Ho841 C852 2.811 . S
Ho841 O861 2.346 . S
Ho841 O865 2.305 . S
Ho841 O866 2.322 . S
Ho841 O868 2.378 . S
Ho841 O869 2.524 . S
Ho841 O870 2.381 . S
Ho841 O871 2.669 . S
C842 O860 1.259 . S
C842 O861 1.268 . S
C843 Ho840 2.811 . S
C843 C844 1.488 . S
C843 O862 1.215 . S
C843 O863 1.289 . S
C844 C843 1.488 . S
C844 C845 1.348 . S
C844 C849 1.413 . S
C845 C844 1.348 . S
C845 C846 1.442 . S
C845 H872 0.930 . S
C846 C845 1.442 . S
C846 C847 1.381 . S
C846 H873 0.931 . S
C847 C846 1.381 . S
C847 C848 1.321 . S
C848 C847 1.321 . S
C848 C849 1.403 . S
C848 H874 0.934 . S
C849 C844 1.413 . S
C849 C848 1.403 . S
C849 H875 0.930 . S
C850 O864 1.275 . S
C850 O865 1.256 . S
C851 O866 1.259 . S
C851 O867 1.268 . S
C852 Ho841 2.811 . S
C852 C853 1.488 . S
C852 O868 1.215 . S
C852 O869 1.289 . S
C853 C852 1.488 . S
C853 C854 1.346 1_455 S
C853 C858 1.413 1_455 S
C854 C853 1.346 1_655 S
C854 C855 1.445 . S
C854 H876 0.928 1_655 S
C855 C854 1.445 . S
C855 C856 1.381 . S
C855 H877 0.931 . S
C856 C855 1.381 . S
C856 C857 1.321 . S
C857 C856 1.321 . S
C857 C858 1.403 . S
C857 H878 0.934 . S
C858 C853 1.413 1_655 S
C858 C857 1.403 . S
C858 H879 0.930 1_655 S
C859 O870 1.275 . S
C859 O871 1.256 . S
O860 Ho840 2.322 . S
O860 C842 1.259 . S
O861 Ho841 2.346 . S
O861 C842 1.268 . S
O862 Ho840 2.378 . S
O862 C843 1.215 . S
O863 Ho840 2.524 . S
O863 C843 1.289 . S
O864 Ho840 2.381 . S
O864 C850 1.275 . S
O865 Ho840 2.669 . S
O865 Ho841 2.305 . S
O865 C850 1.256 . S
O866 Ho841 2.322 . S
O866 C851 1.259 . S
O867 Ho840 2.346 . S
O867 C851 1.268 . S
O868 Ho841 2.378 . S
O868 C852 1.215 . S
O869 Ho841 2.524 . S
O869 C852 1.289 . S
O870 Ho841 2.381 . S
O870 C859 1.275 . S
O871 Ho840 2.305 . S
O871 Ho841 2.669 . S
O871 C859 1.256 . S
H872 C845 0.930 . S
H873 C846 0.931 . S
H874 C848 0.934 . S
H875 C849 0.930 . S
H876 C854 0.928 1_455 S
H877 C855 0.931 . S
H878 C857 0.934 . S
H879 C858 0.930 1_455 S
Ho880 C883 2.811 . S
Ho880 O900 2.322 . S
Ho880 O902 2.378 . S
Ho880 O903 2.524 . S
Ho880 O904 2.381 . S
Ho880 O905 2.669 . S
Ho880 O907 2.346 . S
Ho880 O911 2.305 . S
Ho881 C892 2.811 . S
Ho881 O901 2.346 . S
Ho881 O905 2.305 . S
Ho881 O906 2.322 . S
Ho881 O908 2.378 . S
Ho881 O909 2.524 . S
Ho881 O910 2.381 . S
Ho881 O911 2.669 . S
C882 O900 1.259 . S
C882 O901 1.268 . S
C883 Ho880 2.811 . S
C883 C884 1.488 . S
C883 O902 1.215 . S
C883 O903 1.289 . S
C884 C883 1.488 . S
C884 C885 1.348 . S
C884 C889 1.413 . S
C885 C884 1.348 . S
C885 C886 1.442 . S
C885 H912 0.930 . S
C886 C885 1.442 . S
C886 C887 1.381 . S
C886 H913 0.931 . S
C887 C886 1.381 . S
C887 C888 1.321 . S
C888 C887 1.321 . S
C888 C889 1.403 . S
C888 H914 0.934 . S
C889 C884 1.413 . S
C889 C888 1.403 . S
C889 H915 0.930 . S
C890 O904 1.275 . S
C890 O905 1.256 . S
C891 O906 1.259 . S
C891 O907 1.268 . S
C892 Ho881 2.811 . S
C892 C893 1.488 . S
C892 O908 1.215 . S
C892 O909 1.289 . S
C893 C892 1.488 . S
C893 C894 1.348 . S
C893 C898 1.413 . S
C894 C893 1.348 . S
C894 C895 1.442 . S
C894 H916 0.930 . S
C895 C894 1.442 . S
C895 C896 1.381 . S
C895 H917 0.931 . S
C896 C895 1.381 . S
C896 C897 1.321 . S
C897 C896 1.321 . S
C897 C898 1.403 . S
C897 H918 0.934 . S
C898 C893 1.413 . S
C898 C897 1.403 . S
C898 H919 0.930 . S
C899 O910 1.275 . S
C899 O911 1.256 . S
O900 Ho880 2.322 . S
O900 C882 1.259 . S
O901 Ho881 2.346 . S
O901 C882 1.268 . S
O902 Ho880 2.378 . S
O902 C883 1.215 . S
O903 Ho880 2.524 . S
O903 C883 1.289 . S
O904 Ho880 2.381 . S
O904 C890 1.275 . S
O905 Ho880 2.669 . S
O905 Ho881 2.305 . S
O905 C890 1.256 . S
O906 Ho881 2.322 . S
O906 C891 1.259 . S
O907 Ho880 2.346 . S
O907 C891 1.268 . S
O908 Ho881 2.378 . S
O908 C892 1.215 . S
O909 Ho881 2.524 . S
O909 C892 1.289 . S
O910 Ho881 2.381 . S
O910 C899 1.275 . S
O911 Ho880 2.305 . S
O911 Ho881 2.669 . S
O911 C899 1.256 . S
H912 C885 0.930 . S
H913 C886 0.931 . S
H914 C888 0.934 . S
H915 C889 0.930 . S
H916 C894 0.930 . S
H917 C895 0.931 . S
H918 C897 0.934 . S
H919 C898 0.930 . S
Ho920 C923 2.811 . S
Ho920 O940 2.322 . S
Ho920 O942 2.378 . S
Ho920 O943 2.524 . S
Ho920 O944 2.381 . S
Ho920 O945 2.669 . S
Ho920 O947 2.346 . S
Ho920 O951 2.305 . S
Ho921 C932 2.811 . S
Ho921 O941 2.346 . S
Ho921 O945 2.305 . S
Ho921 O946 2.322 . S
Ho921 O948 2.378 . S
Ho921 O949 2.524 . S
Ho921 O950 2.381 . S
Ho921 O951 2.669 . S
C922 O940 1.259 . S
C922 O941 1.268 . S
C923 Ho920 2.811 . S
C923 C924 1.488 . S
C923 O942 1.215 . S
C923 O943 1.289 . S
C924 C923 1.488 . S
C924 C925 1.348 . S
C924 C929 1.413 . S
C925 C924 1.348 . S
C925 C926 1.442 . S
C925 H952 0.930 . S
C926 C925 1.442 . S
C926 C927 1.381 . S
C926 H953 0.931 . S
C927 C926 1.381 . S
C927 C928 1.321 . S
C928 C927 1.321 . S
C928 C929 1.403 . S
C928 H954 0.934 . S
C929 C924 1.413 . S
C929 C928 1.403 . S
C929 H955 0.930 . S
C930 O944 1.275 . S
C930 O945 1.256 . S
C931 O946 1.259 . S
C931 O947 1.268 . S
C932 Ho921 2.811 . S
C932 C933 1.488 . S
C932 O948 1.215 . S
C932 O949 1.289 . S
C933 C932 1.488 . S
C933 C934 1.346 1_455 S
C933 C938 1.413 1_455 S
C934 C933 1.346 1_655 S
C934 C935 1.445 . S
C934 H956 0.928 1_655 S
C935 C934 1.445 . S
C935 C936 1.381 . S
C935 H957 0.931 . S
C936 C935 1.381 . S
C936 C937 1.321 . S
C937 C936 1.321 . S
C937 C938 1.403 . S
C937 H958 0.934 . S
C938 C933 1.413 1_655 S
C938 C937 1.403 . S
C938 H959 0.930 1_655 S
C939 O950 1.275 . S
C939 O951 1.256 . S
O940 Ho920 2.322 . S
O940 C922 1.259 . S
O941 Ho921 2.346 . S
O941 C922 1.268 . S
O942 Ho920 2.378 . S
O942 C923 1.215 . S
O943 Ho920 2.524 . S
O943 C923 1.289 . S
O944 Ho920 2.381 . S
O944 C930 1.275 . S
O945 Ho920 2.669 . S
O945 Ho921 2.305 . S
O945 C930 1.256 . S
O946 Ho921 2.322 . S
O946 C931 1.259 . S
O947 Ho920 2.346 . S
O947 C931 1.268 . S
O948 Ho921 2.378 . S
O948 C932 1.215 . S
O949 Ho921 2.524 . S
O949 C932 1.289 . S
O950 Ho921 2.381 . S
O950 C939 1.275 . S
O951 Ho920 2.305 . S
O951 Ho921 2.669 . S
O951 C939 1.256 . S
H952 C925 0.930 . S
H953 C926 0.931 . S
H954 C928 0.934 . S
H955 C929 0.930 . S
H956 C934 0.928 1_455 S
H957 C935 0.931 . S
H958 C937 0.934 . S
H959 C938 0.930 1_455 S
Ho960 C963 2.811 . S
Ho960 O980 2.322 1_545 S
Ho960 O982 2.378 . S
Ho960 O983 2.524 1_545 S
Ho960 O984 2.381 . S
Ho960 O985 2.669 1_545 S
Ho960 O987 2.346 . S
Ho960 O991 2.305 1_545 S
Ho961 C972 2.811 . S
Ho961 O981 2.346 . S
Ho961 O985 2.305 . S
Ho961 O986 2.322 1_565 S
Ho961 O988 2.378 . S
Ho961 O989 2.524 . S
Ho961 O990 2.381 . S
Ho961 O991 2.669 . S
C962 O980 1.259 . S
C962 O981 1.268 . S
C963 Ho960 2.811 . S
C963 C964 1.488 1_545 S
C963 O982 1.215 . S
C963 O983 1.289 1_545 S
C964 C963 1.488 1_565 S
C964 C965 1.348 . S
C964 C969 1.413 . S
C965 C964 1.348 . S
C965 C966 1.442 . S
C965 H992 0.930 . S
C966 C965 1.442 . S
C966 C967 1.381 . S
C966 H993 0.931 . S
C967 C966 1.381 . S
C967 C968 1.321 . S
C968 C967 1.321 . S
C968 C969 1.403 . S
C968 H994 0.934 1_565 S
C969 C964 1.413 . S
C969 C968 1.403 . S
C969 H995 0.930 1_565 S
C970 O984 1.275 1_565 S
C970 O985 1.256 . S
C971 O986 1.259 . S
C971 O987 1.268 . S
C972 Ho961 2.811 . S
C972 C973 1.488 . S
C972 O988 1.215 . S
C972 O989 1.289 . S
C973 C972 1.488 . S
C973 C974 1.348 1_565 S
C973 C978 1.413 . S
C974 C973 1.348 1_545 S
C974 C975 1.442 . S
C974 H996 0.930 . S
C975 C974 1.442 . S
C975 C976 1.381 . S
C975 H997 0.931 . S
C976 C975 1.381 . S
C976 C977 1.321 1_545 S
C977 C976 1.321 1_565 S
C977 C978 1.403 . S
C977 H998 0.934 . S
C978 C973 1.413 . S
C978 C977 1.403 . S
C978 H999 0.930 . S
C979 O990 1.275 . S
C979 O991 1.256 . S
O980 Ho960 2.322 1_565 S
O980 C962 1.259 . S
O981 Ho961 2.346 . S
O981 C962 1.268 . S
O982 Ho960 2.378 . S
O982 C963 1.215 . S
O983 Ho960 2.524 1_565 S
O983 C963 1.289 1_565 S
O984 Ho960 2.381 . S
O984 C970 1.275 1_545 S
O985 Ho960 2.669 1_565 S
O985 Ho961 2.305 . S
O985 C970 1.256 . S
O986 Ho961 2.322 1_545 S
O986 C971 1.259 . S
O987 Ho960 2.346 . S
O987 C971 1.268 . S
O988 Ho961 2.378 . S
O988 C972 1.215 . S
O989 Ho961 2.524 . S
O989 C972 1.289 . S
O990 Ho961 2.381 . S
O990 C979 1.275 . S
O991 Ho960 2.305 1_565 S
O991 Ho961 2.669 . S
O991 C979 1.256 . S
H992 C965 0.930 . S
H993 C966 0.931 . S
H994 C968 0.934 1_545 S
H995 C969 0.930 1_545 S
H996 C974 0.930 . S
H997 C975 0.931 . S
H998 C977 0.934 . S
H999 C978 0.930 . S
Ho1000 C1003 2.811 . S
Ho1000 O1020 2.322 . S
Ho1000 O1022 2.378 . S
Ho1000 O1023 2.524 . S
Ho1000 O1024 2.381 . S
Ho1000 O1025 2.669 . S
Ho1000 O1027 2.346 . S
Ho1000 O1031 2.305 . S
Ho1001 C1012 2.811 . S
Ho1001 O1021 2.346 . S
Ho1001 O1025 2.305 . S
Ho1001 O1026 2.322 . S
Ho1001 O1028 2.378 . S
Ho1001 O1029 2.524 . S
Ho1001 O1030 2.381 . S
Ho1001 O1031 2.669 . S
C1002 O1020 1.259 . S
C1002 O1021 1.268 . S
C1003 Ho1000 2.811 . S
C1003 C1004 1.488 . S
C1003 O1022 1.215 . S
C1003 O1023 1.289 . S
C1004 C1003 1.488 . S
C1004 C1005 1.346 1_655 S
C1004 C1009 1.413 1_655 S
C1005 C1004 1.346 1_455 S
C1005 C1006 1.445 . S
C1005 H1032 0.928 1_455 S
C1006 C1005 1.445 . S
C1006 C1007 1.381 . S
C1006 H1033 0.931 . S
C1007 C1006 1.381 . S
C1007 C1008 1.321 . S
C1008 C1007 1.321 . S
C1008 C1009 1.403 . S
C1008 H1034 0.934 . S
C1009 C1004 1.413 1_455 S
C1009 C1008 1.403 . S
C1009 H1035 0.930 1_455 S
C1010 O1024 1.275 . S
C1010 O1025 1.256 . S
C1011 O1026 1.259 . S
C1011 O1027 1.268 . S
C1012 Ho1001 2.811 . S
C1012 C1013 1.488 . S
C1012 O1028 1.215 . S
C1012 O1029 1.289 . S
C1013 C1012 1.488 . S
C1013 C1014 1.348 . S
C1013 C1018 1.413 . S
C1014 C1013 1.348 . S
C1014 C1015 1.442 . S
C1014 H1036 0.930 . S
C1015 C1014 1.442 . S
C1015 C1016 1.381 . S
C1015 H1037 0.931 . S
C1016 C1015 1.381 . S
C1016 C1017 1.321 . S
C1017 C1016 1.321 . S
C1017 C1018 1.403 . S
C1017 H1038 0.934 . S
C1018 C1013 1.413 . S
C1018 C1017 1.403 . S
C1018 H1039 0.930 . S
C1019 O1030 1.275 . S
C1019 O1031 1.256 . S
O1020 Ho1000 2.322 . S
O1020 C1002 1.259 . S
O1021 Ho1001 2.346 . S
O1021 C1002 1.268 . S
O1022 Ho1000 2.378 . S
O1022 C1003 1.215 . S
O1023 Ho1000 2.524 . S
O1023 C1003 1.289 . S
O1024 Ho1000 2.381 . S
O1024 C1010 1.275 . S
O1025 Ho1000 2.669 . S
O1025 Ho1001 2.305 . S
O1025 C1010 1.256 . S
O1026 Ho1001 2.322 . S
O1026 C1011 1.259 . S
O1027 Ho1000 2.346 . S
O1027 C1011 1.268 . S
O1028 Ho1001 2.378 . S
O1028 C1012 1.215 . S
O1029 Ho1001 2.524 . S
O1029 C1012 1.289 . S
O1030 Ho1001 2.381 . S
O1030 C1019 1.275 . S
O1031 Ho1000 2.305 . S
O1031 Ho1001 2.669 . S
O1031 C1019 1.256 . S
H1032 C1005 0.928 1_655 S
H1033 C1006 0.931 . S
H1034 C1008 0.934 . S
H1035 C1009 0.930 1_655 S
H1036 C1014 0.930 . S
H1037 C1015 0.931 . S
H1038 C1017 0.934 . S
H1039 C1018 0.930 . S
Ho1040 C1043 2.811 . S
Ho1040 O1060 2.322 . S
Ho1040 O1062 2.378 . S
Ho1040 O1063 2.524 . S
Ho1040 O1064 2.381 . S
Ho1040 O1065 2.669 . S
Ho1040 O1067 2.346 . S
Ho1040 O1071 2.305 . S
Ho1041 C1052 2.811 . S
Ho1041 O1061 2.346 . S
Ho1041 O1065 2.305 . S
Ho1041 O1066 2.322 . S
Ho1041 O1068 2.378 . S
Ho1041 O1069 2.524 . S
Ho1041 O1070 2.381 . S
Ho1041 O1071 2.669 . S
C1042 O1060 1.259 . S
C1042 O1061 1.268 . S
C1043 Ho1040 2.811 . S
C1043 C1044 1.488 . S
C1043 O1062 1.215 . S
C1043 O1063 1.289 . S
C1044 C1043 1.488 . S
C1044 C1045 1.348 . S
C1044 C1049 1.413 . S
C1045 C1044 1.348 . S
C1045 C1046 1.442 . S
C1045 H1072 0.930 . S
C1046 C1045 1.442 . S
C1046 C1047 1.381 . S
C1046 H1073 0.931 . S
C1047 C1046 1.381 . S
C1047 C1048 1.321 . S
C1048 C1047 1.321 . S
C1048 C1049 1.403 . S
C1048 H1074 0.934 . S
C1049 C1044 1.413 . S
C1049 C1048 1.403 . S
C1049 H1075 0.930 . S
C1050 O1064 1.275 . S
C1050 O1065 1.256 . S
C1051 O1066 1.259 . S
C1051 O1067 1.268 . S
C1052 Ho1041 2.811 . S
C1052 C1053 1.488 . S
C1052 O1068 1.215 . S
C1052 O1069 1.289 . S
C1053 C1052 1.488 . S
C1053 C1054 1.348 . S
C1053 C1058 1.413 . S
C1054 C1053 1.348 . S
C1054 C1055 1.442 . S
C1054 H1076 0.930 . S
C1055 C1054 1.442 . S
C1055 C1056 1.381 . S
C1055 H1077 0.931 . S
C1056 C1055 1.381 . S
C1056 C1057 1.321 . S
C1057 C1056 1.321 . S
C1057 C1058 1.403 . S
C1057 H1078 0.934 . S
C1058 C1053 1.413 . S
C1058 C1057 1.403 . S
C1058 H1079 0.930 . S
C1059 O1070 1.275 . S
C1059 O1071 1.256 . S
O1060 Ho1040 2.322 . S
O1060 C1042 1.259 . S
O1061 Ho1041 2.346 . S
O1061 C1042 1.268 . S
O1062 Ho1040 2.378 . S
O1062 C1043 1.215 . S
O1063 Ho1040 2.524 . S
O1063 C1043 1.289 . S
O1064 Ho1040 2.381 . S
O1064 C1050 1.275 . S
O1065 Ho1040 2.669 . S
O1065 Ho1041 2.305 . S
O1065 C1050 1.256 . S
O1066 Ho1041 2.322 . S
O1066 C1051 1.259 . S
O1067 Ho1040 2.346 . S
O1067 C1051 1.268 . S
O1068 Ho1041 2.378 . S
O1068 C1052 1.215 . S
O1069 Ho1041 2.524 . S
O1069 C1052 1.289 . S
O1070 Ho1041 2.381 . S
O1070 C1059 1.275 . S
O1071 Ho1040 2.305 . S
O1071 Ho1041 2.669 . S
O1071 C1059 1.256 . S
H1072 C1045 0.930 . S
H1073 C1046 0.931 . S
H1074 C1048 0.934 . S
H1075 C1049 0.930 . S
H1076 C1054 0.930 . S
H1077 C1055 0.931 . S
H1078 C1057 0.934 . S
H1079 C1058 0.930 . S
Ho1080 C1083 2.811 . S
Ho1080 O1100 2.322 1_545 S
Ho1080 O1102 2.378 . S
Ho1080 O1103 2.524 1_545 S
Ho1080 O1104 2.381 . S
Ho1080 O1105 2.669 1_545 S
Ho1080 O1107 2.346 . S
Ho1080 O1111 2.305 1_545 S
Ho1081 C1092 2.811 . S
Ho1081 O1101 2.346 . S
Ho1081 O1105 2.305 . S
Ho1081 O1106 2.322 1_565 S
Ho1081 O1108 2.378 . S
Ho1081 O1109 2.524 . S
Ho1081 O1110 2.381 . S
Ho1081 O1111 2.669 . S
C1082 O1100 1.259 . S
C1082 O1101 1.268 . S
C1083 Ho1080 2.811 . S
C1083 C1084 1.488 1_545 S
C1083 O1102 1.215 . S
C1083 O1103 1.289 1_545 S
C1084 C1083 1.488 1_565 S
C1084 C1085 1.346 1_655 S
C1084 C1089 1.413 1_655 S
C1085 C1084 1.346 1_455 S
C1085 C1086 1.445 . S
C1085 H1112 0.928 1_455 S
C1086 C1085 1.445 . S
C1086 C1087 1.381 . S
C1086 H1113 0.931 . S
C1087 C1086 1.381 . S
C1087 C1088 1.321 . S
C1088 C1087 1.321 . S
C1088 C1089 1.403 . S
C1088 H1114 0.934 1_565 S
C1089 C1084 1.413 1_455 S
C1089 C1088 1.403 . S
C1089 H1115 0.930 1_465 S
C1090 O1104 1.275 1_565 S
C1090 O1105 1.256 . S
C1091 O1106 1.259 . S
C1091 O1107 1.268 . S
C1092 Ho1081 2.811 . S
C1092 C1093 1.488 . S
C1092 O1108 1.215 . S
C1092 O1109 1.289 . S
C1093 C1092 1.488 . S
C1093 C1094 1.348 1_565 S
C1093 C1098 1.413 . S
C1094 C1093 1.348 1_545 S
C1094 C1095 1.442 . S
C1094 H1116 0.930 . S
C1095 C1094 1.442 . S
C1095 C1096 1.381 . S
C1095 H1117 0.931 . S
C1096 C1095 1.381 . S
C1096 C1097 1.321 1_545 S
C1097 C1096 1.321 1_565 S
C1097 C1098 1.403 . S
C1097 H1118 0.934 . S
C1098 C1093 1.413 . S
C1098 C1097 1.403 . S
C1098 H1119 0.930 . S
C1099 O1110 1.275 . S
C1099 O1111 1.256 . S
O1100 Ho1080 2.322 1_565 S
O1100 C1082 1.259 . S
O1101 Ho1081 2.346 . S
O1101 C1082 1.268 . S
O1102 Ho1080 2.378 . S
O1102 C1083 1.215 . S
O1103 Ho1080 2.524 1_565 S
O1103 C1083 1.289 1_565 S
O1104 Ho1080 2.381 . S
O1104 C1090 1.275 1_545 S
O1105 Ho1080 2.669 1_565 S
O1105 Ho1081 2.305 . S
O1105 C1090 1.256 . S
O1106 Ho1081 2.322 1_545 S
O1106 C1091 1.259 . S
O1107 Ho1080 2.346 . S
O1107 C1091 1.268 . S
O1108 Ho1081 2.378 . S
O1108 C1092 1.215 . S
O1109 Ho1081 2.524 . S
O1109 C1092 1.289 . S
O1110 Ho1081 2.381 . S
O1110 C1099 1.275 . S
O1111 Ho1080 2.305 1_565 S
O1111 Ho1081 2.669 . S
O1111 C1099 1.256 . S
H1112 C1085 0.928 1_655 S
H1113 C1086 0.931 . S
H1114 C1088 0.934 1_545 S
H1115 C1089 0.930 1_645 S
H1116 C1094 0.930 . S
H1117 C1095 0.931 . S
H1118 C1097 0.934 . S
H1119 C1098 0.930 . S
Ho1120 C1123 2.811 . S
Ho1120 O1140 2.322 1_545 S
Ho1120 O1142 2.378 . S
Ho1120 O1143 2.524 . S
Ho1120 O1144 2.381 . S
Ho1120 O1145 2.669 . S
Ho1120 O1147 2.346 . S
Ho1120 O1151 2.305 . S
Ho1121 C1132 2.811 . S
Ho1121 O1141 2.346 . S
Ho1121 O1145 2.305 1_565 S
Ho1121 O1146 2.322 1_565 S
Ho1121 O1148 2.378 . S
Ho1121 O1149 2.524 1_565 S
Ho1121 O1150 2.381 . S
Ho1121 O1151 2.669 1_565 S
C1122 O1140 1.259 . S
C1122 O1141 1.268 . S
C1123 Ho1120 2.811 . S
C1123 C1124 1.488 . S
C1123 O1142 1.215 . S
C1123 O1143 1.289 . S
C1124 C1123 1.488 . S
C1124 C1125 1.348 1_545 S
C1124 C1129 1.413 . S
C1125 C1124 1.348 1_565 S
C1125 C1126 1.442 . S
C1125 H1152 0.930 . S
C1126 C1125 1.442 . S
C1126 C1127 1.381 . S
C1126 H1153 0.931 . S
C1127 C1126 1.381 . S
C1127 C1128 1.321 1_565 S
C1128 C1127 1.321 1_545 S
C1128 C1129 1.403 . S
C1128 H1154 0.934 . S
C1129 C1124 1.413 . S
C1129 C1128 1.403 . S
C1129 H1155 0.930 . S
C1130 O1144 1.275 . S
C1130 O1145 1.256 . S
C1131 O1146 1.259 . S
C1131 O1147 1.268 . S
C1132 Ho1121 2.811 . S
C1132 C1133 1.488 1_565 S
C1132 O1148 1.215 . S
C1132 O1149 1.289 1_565 S
C1133 C1132 1.488 1_545 S
C1133 C1134 1.348 . S
C1133 C1138 1.413 . S
C1134 C1133 1.348 . S
C1134 C1135 1.442 . S
C1134 H1156 0.930 . S
C1135 C1134 1.442 . S
C1135 C1136 1.381 . S
C1135 H1157 0.931 . S
C1136 C1135 1.381 . S
C1136 C1137 1.321 . S
C1137 C1136 1.321 . S
C1137 C1138 1.403 . S
C1137 H1158 0.934 1_545 S
C1138 C1133 1.413 . S
C1138 C1137 1.403 . S
C1138 H1159 0.930 1_545 S
C1139 O1150 1.275 1_545 S
C1139 O1151 1.256 . S
O1140 Ho1120 2.322 1_565 S
O1140 C1122 1.259 . S
O1141 Ho1121 2.346 . S
O1141 C1122 1.268 . S
O1142 Ho1120 2.378 . S
O1142 C1123 1.215 . S
O1143 Ho1120 2.524 . S
O1143 C1123 1.289 . S
O1144 Ho1120 2.381 . S
O1144 C1130 1.275 . S
O1145 Ho1120 2.669 . S
O1145 Ho1121 2.305 1_545 S
O1145 C1130 1.256 . S
O1146 Ho1121 2.322 1_545 S
O1146 C1131 1.259 . S
O1147 Ho1120 2.346 . S
O1147 C1131 1.268 . S
O1148 Ho1121 2.378 . S
O1148 C1132 1.215 . S
O1149 Ho1121 2.524 1_545 S
O1149 C1132 1.289 1_545 S
O1150 Ho1121 2.381 . S
O1150 C1139 1.275 1_565 S
O1151 Ho1120 2.305 . S
O1151 Ho1121 2.669 1_545 S
O1151 C1139 1.256 . S
H1152 C1125 0.930 . S
H1153 C1126 0.931 . S
H1154 C1128 0.934 . S
H1155 C1129 0.930 . S
H1156 C1134 0.930 . S
H1157 C1135 0.931 . S
H1158 C1137 0.934 1_565 S
H1159 C1138 0.930 1_565 S
Ho1160 C1163 2.811 . S
Ho1160 O1180 2.322 . S
Ho1160 O1182 2.378 . S
Ho1160 O1183 2.524 . S
Ho1160 O1184 2.381 . S
Ho1160 O1185 2.669 . S
Ho1160 O1187 2.346 . S
Ho1160 O1191 2.305 . S
Ho1161 C1172 2.811 . S
Ho1161 O1181 2.346 . S
Ho1161 O1185 2.305 . S
Ho1161 O1186 2.322 . S
Ho1161 O1188 2.378 . S
Ho1161 O1189 2.524 . S
Ho1161 O1190 2.381 . S
Ho1161 O1191 2.669 . S
C1162 O1180 1.259 . S
C1162 O1181 1.268 . S
C1163 Ho1160 2.811 . S
C1163 C1164 1.488 . S
C1163 O1182 1.215 . S
C1163 O1183 1.289 . S
C1164 C1163 1.488 . S
C1164 C1165 1.348 . S
C1164 C1169 1.413 . S
C1165 C1164 1.348 . S
C1165 C1166 1.442 . S
C1165 H1192 0.930 . S
C1166 C1165 1.442 . S
C1166 C1167 1.381 . S
C1166 H1193 0.931 . S
C1167 C1166 1.381 . S
C1167 C1168 1.321 . S
C1168 C1167 1.321 . S
C1168 C1169 1.403 . S
C1168 H1194 0.934 . S
C1169 C1164 1.413 . S
C1169 C1168 1.403 . S
C1169 H1195 0.930 . S
C1170 O1184 1.275 . S
C1170 O1185 1.256 . S
C1171 O1186 1.259 . S
C1171 O1187 1.268 . S
C1172 Ho1161 2.811 . S
C1172 C1173 1.488 . S
C1172 O1188 1.215 . S
C1172 O1189 1.289 . S
C1173 C1172 1.488 . S
C1173 C1174 1.346 1_455 S
C1173 C1178 1.413 1_455 S
C1174 C1173 1.346 1_655 S
C1174 C1175 1.445 . S
C1174 H1196 0.928 1_655 S
C1175 C1174 1.445 . S
C1175 C1176 1.381 . S
C1175 H1197 0.931 . S
C1176 C1175 1.381 . S
C1176 C1177 1.321 . S
C1177 C1176 1.321 . S
C1177 C1178 1.403 . S
C1177 H1198 0.934 . S
C1178 C1173 1.413 1_655 S
C1178 C1177 1.403 . S
C1178 H1199 0.930 1_655 S
C1179 O1190 1.275 . S
C1179 O1191 1.256 . S
O1180 Ho1160 2.322 . S
O1180 C1162 1.259 . S
O1181 Ho1161 2.346 . S
O1181 C1162 1.268 . S
O1182 Ho1160 2.378 . S
O1182 C1163 1.215 . S
O1183 Ho1160 2.524 . S
O1183 C1163 1.289 . S
O1184 Ho1160 2.381 . S
O1184 C1170 1.275 . S
O1185 Ho1160 2.669 . S
O1185 Ho1161 2.305 . S
O1185 C1170 1.256 . S
O1186 Ho1161 2.322 . S
O1186 C1171 1.259 . S
O1187 Ho1160 2.346 . S
O1187 C1171 1.268 . S
O1188 Ho1161 2.378 . S
O1188 C1172 1.215 . S
O1189 Ho1161 2.524 . S
O1189 C1172 1.289 . S
O1190 Ho1161 2.381 . S
O1190 C1179 1.275 . S
O1191 Ho1160 2.305 . S
O1191 Ho1161 2.669 . S
O1191 C1179 1.256 . S
H1192 C1165 0.930 . S
H1193 C1166 0.931 . S
H1194 C1168 0.934 . S
H1195 C1169 0.930 . S
H1196 C1174 0.928 1_455 S
H1197 C1175 0.931 . S
H1198 C1177 0.934 . S
H1199 C1178 0.930 1_455 S
Ho1200 C1203 2.811 . S
Ho1200 O1220 2.322 . S
Ho1200 O1222 2.378 . S
Ho1200 O1223 2.524 . S
Ho1200 O1224 2.381 . S
Ho1200 O1225 2.669 . S
Ho1200 O1227 2.346 . S
Ho1200 O1231 2.305 . S
Ho1201 C1212 2.811 . S
Ho1201 O1221 2.346 . S
Ho1201 O1225 2.305 . S
Ho1201 O1226 2.322 . S
Ho1201 O1228 2.378 . S
Ho1201 O1229 2.524 . S
Ho1201 O1230 2.381 . S
Ho1201 O1231 2.669 . S
C1202 O1220 1.259 . S
C1202 O1221 1.268 . S
C1203 Ho1200 2.811 . S
C1203 C1204 1.488 . S
C1203 O1222 1.215 . S
C1203 O1223 1.289 . S
C1204 C1203 1.488 . S
C1204 C1205 1.348 . S
C1204 C1209 1.413 . S
C1205 C1204 1.348 . S
C1205 C1206 1.442 . S
C1205 H1232 0.930 . S
C1206 C1205 1.442 . S
C1206 C1207 1.381 . S
C1206 H1233 0.931 . S
C1207 C1206 1.381 . S
C1207 C1208 1.321 . S
C1208 C1207 1.321 . S
C1208 C1209 1.403 . S
C1208 H1234 0.934 . S
C1209 C1204 1.413 . S
C1209 C1208 1.403 . S
C1209 H1235 0.930 . S
C1210 O1224 1.275 . S
C1210 O1225 1.256 . S
C1211 O1226 1.259 . S
C1211 O1227 1.268 . S
C1212 Ho1201 2.811 . S
C1212 C1213 1.488 . S
C1212 O1228 1.215 . S
C1212 O1229 1.289 . S
C1213 C1212 1.488 . S
C1213 C1214 1.348 . S
C1213 C1218 1.413 . S
C1214 C1213 1.348 . S
C1214 C1215 1.442 . S
C1214 H1236 0.930 . S
C1215 C1214 1.442 . S
C1215 C1216 1.381 . S
C1215 H1237 0.931 . S
C1216 C1215 1.381 . S
C1216 C1217 1.321 . S
C1217 C1216 1.321 . S
C1217 C1218 1.403 . S
C1217 H1238 0.934 . S
C1218 C1213 1.413 . S
C1218 C1217 1.403 . S
C1218 H1239 0.930 . S
C1219 O1230 1.275 . S
C1219 O1231 1.256 . S
O1220 Ho1200 2.322 . S
O1220 C1202 1.259 . S
O1221 Ho1201 2.346 . S
O1221 C1202 1.268 . S
O1222 Ho1200 2.378 . S
O1222 C1203 1.215 . S
O1223 Ho1200 2.524 . S
O1223 C1203 1.289 . S
O1224 Ho1200 2.381 . S
O1224 C1210 1.275 . S
O1225 Ho1200 2.669 . S
O1225 Ho1201 2.305 . S
O1225 C1210 1.256 . S
O1226 Ho1201 2.322 . S
O1226 C1211 1.259 . S
O1227 Ho1200 2.346 . S
O1227 C1211 1.268 . S
O1228 Ho1201 2.378 . S
O1228 C1212 1.215 . S
O1229 Ho1201 2.524 . S
O1229 C1212 1.289 . S
O1230 Ho1201 2.381 . S
O1230 C1219 1.275 . S
O1231 Ho1200 2.305 . S
O1231 Ho1201 2.669 . S
O1231 C1219 1.256 . S
H1232 C1205 0.930 . S
H1233 C1206 0.931 . S
H1234 C1208 0.934 . S
H1235 C1209 0.930 . S
H1236 C1214 0.930 . S
H1237 C1215 0.931 . S
H1238 C1217 0.934 . S
H1239 C1218 0.930 . S
Ho1240 C1243 2.811 . S
Ho1240 O1260 2.322 1_545 S
Ho1240 O1262 2.378 . S
Ho1240 O1263 2.524 . S
Ho1240 O1264 2.381 . S
Ho1240 O1265 2.669 . S
Ho1240 O1267 2.346 . S
Ho1240 O1271 2.305 . S
Ho1241 C1252 2.811 . S
Ho1241 O1261 2.346 . S
Ho1241 O1265 2.305 1_565 S
Ho1241 O1266 2.322 1_565 S
Ho1241 O1268 2.378 . S
Ho1241 O1269 2.524 1_565 S
Ho1241 O1270 2.381 . S
Ho1241 O1271 2.669 1_565 S
C1242 O1260 1.259 . S
C1242 O1261 1.268 . S
C1243 Ho1240 2.811 . S
C1243 C1244 1.488 . S
C1243 O1262 1.215 . S
C1243 O1263 1.289 . S
C1244 C1243 1.488 . S
C1244 C1245 1.348 1_545 S
C1244 C1249 1.413 . S
C1245 C1244 1.348 1_565 S
C1245 C1246 1.442 . S
C1245 H1272 0.930 . S
C1246 C1245 1.442 . S
C1246 C1247 1.381 . S
C1246 H1273 0.931 . S
C1247 C1246 1.381 . S
C1247 C1248 1.321 1_565 S
C1248 C1247 1.321 1_545 S
C1248 C1249 1.403 . S
C1248 H1274 0.934 . S
C1249 C1244 1.413 . S
C1249 C1248 1.403 . S
C1249 H1275 0.930 . S
C1250 O1264 1.275 . S
C1250 O1265 1.256 . S
C1251 O1266 1.259 . S
C1251 O1267 1.268 . S
C1252 Ho1241 2.811 . S
C1252 C1253 1.488 1_565 S
C1252 O1268 1.215 . S
C1252 O1269 1.289 1_565 S
C1253 C1252 1.488 1_545 S
C1253 C1254 1.346 1_455 S
C1253 C1258 1.413 1_455 S
C1254 C1253 1.346 1_655 S
C1254 C1255 1.445 . S
C1254 H1276 0.928 1_655 S
C1255 C1254 1.445 . S
C1255 C1256 1.381 . S
C1255 H1277 0.931 . S
C1256 C1255 1.381 . S
C1256 C1257 1.321 . S
C1257 C1256 1.321 . S
C1257 C1258 1.403 . S
C1257 H1278 0.934 1_545 S
C1258 C1253 1.413 1_655 S
C1258 C1257 1.403 . S
C1258 H1279 0.930 1_645 S
C1259 O1270 1.275 1_545 S
C1259 O1271 1.256 . S
O1260 Ho1240 2.322 1_565 S
O1260 C1242 1.259 . S
O1261 Ho1241 2.346 . S
O1261 C1242 1.268 . S
O1262 Ho1240 2.378 . S
O1262 C1243 1.215 . S
O1263 Ho1240 2.524 . S
O1263 C1243 1.289 . S
O1264 Ho1240 2.381 . S
O1264 C1250 1.275 . S
O1265 Ho1240 2.669 . S
O1265 Ho1241 2.305 1_545 S
O1265 C1250 1.256 . S
O1266 Ho1241 2.322 1_545 S
O1266 C1251 1.259 . S
O1267 Ho1240 2.346 . S
O1267 C1251 1.268 . S
O1268 Ho1241 2.378 . S
O1268 C1252 1.215 . S
O1269 Ho1241 2.524 1_545 S
O1269 C1252 1.289 1_545 S
O1270 Ho1241 2.381 . S
O1270 C1259 1.275 1_565 S
O1271 Ho1240 2.305 . S
O1271 Ho1241 2.669 1_545 S
O1271 C1259 1.256 . S
H1272 C1245 0.930 . S
H1273 C1246 0.931 . S
H1274 C1248 0.934 . S
H1275 C1249 0.930 . S
H1276 C1254 0.928 1_455 S
H1277 C1255 0.931 . S
H1278 C1257 0.934 1_565 S
H1279 C1258 0.930 1_465 S
C1280 C1281 1.369 . S
C1280 C1282 1.419 . S
C1280 H1284 0.930 . S
C1281 C1280 1.369 . S
C1281 C1290 1.429 . S
C1282 C1280 1.419 . S
C1282 C1283 1.363 . S
C1282 H1285 0.929 . S
C1283 C1282 1.363 . S
C1283 C1289 1.428 . S
H1284 C1280 0.930 . S
H1285 C1282 0.929 . S
S1286 N1287 1.613 . S
S1286 N1288 1.610 . S
N1287 S1286 1.613 . S
N1287 C1290 1.350 . S
N1288 S1286 1.610 . S
N1288 C1289 1.351 . S
C1289 C1283 1.428 . S
C1289 N1288 1.351 . S
C1289 C1290 1.434 . S
C1290 C1281 1.429 . S
C1290 N1287 1.350 . S
C1290 C1289 1.434 . S
C1291 C1292 1.369 . S
C1291 C1293 1.419 . S
C1291 H1295 0.930 . S
C1292 C1291 1.369 . S
C1292 C1301 1.429 . S
C1293 C1291 1.419 . S
C1293 C1294 1.363 . S
C1293 H1296 0.929 . S
C1294 C1293 1.363 . S
C1294 C1300 1.428 . S
H1295 C1291 0.930 . S
H1296 C1293 0.929 . S
S1297 N1298 1.613 . S
S1297 N1299 1.610 . S
N1298 S1297 1.613 . S
N1298 C1301 1.350 . S
N1299 S1297 1.610 . S
N1299 C1300 1.351 . S
C1300 C1294 1.428 . S
C1300 N1299 1.351 . S
C1300 C1301 1.434 . S
C1301 C1292 1.429 . S
C1301 N1298 1.350 . S
C1301 C1300 1.434 . S
C1302 C1303 1.369 . S
C1302 C1304 1.419 . S
C1302 H1306 0.930 . S
C1303 C1302 1.369 . S
C1303 C1312 1.429 . S
C1304 C1302 1.419 . S
C1304 C1305 1.363 . S
C1304 H1307 0.929 . S
C1305 C1304 1.363 . S
C1305 C1311 1.428 . S
H1306 C1302 0.930 . S
H1307 C1304 0.929 . S
S1308 N1309 1.613 . S
S1308 N1310 1.610 . S
N1309 S1308 1.613 . S
N1309 C1312 1.350 . S
N1310 S1308 1.610 . S
N1310 C1311 1.351 . S
C1311 C1305 1.428 . S
C1311 N1310 1.351 . S
C1311 C1312 1.434 . S
C1312 C1303 1.429 . S
C1312 N1309 1.350 . S
C1312 C1311 1.434 . S
C1313 C1314 1.369 . S
C1313 C1315 1.419 . S
C1313 H1317 0.930 . S
C1314 C1313 1.369 . S
C1314 C1323 1.429 . S
C1315 C1313 1.419 . S
C1315 C1316 1.363 . S
C1315 H1318 0.929 . S
C1316 C1315 1.363 . S
C1316 C1322 1.428 . S
H1317 C1313 0.930 . S
H1318 C1315 0.929 . S
S1319 N1320 1.613 . S
S1319 N1321 1.610 . S
N1320 S1319 1.613 . S
N1320 C1323 1.350 . S
N1321 S1319 1.610 . S
N1321 C1322 1.351 . S
C1322 C1316 1.428 . S
C1322 N1321 1.351 . S
C1322 C1323 1.434 . S
C1323 C1314 1.429 . S
C1323 N1320 1.350 . S
C1323 C1322 1.434 . S
C1324 C1325 1.369 . S
C1324 C1326 1.419 . S
C1324 H1328 0.930 . S
C1325 C1324 1.369 . S
C1325 C1334 1.429 . S
C1326 C1324 1.419 . S
C1326 C1327 1.363 . S
C1326 H1329 0.929 . S
C1327 C1326 1.363 . S
C1327 C1333 1.428 . S
H1328 C1324 0.930 . S
H1329 C1326 0.929 . S
S1330 N1331 1.613 . S
S1330 N1332 1.610 . S
N1331 S1330 1.613 . S
N1331 C1334 1.350 . S
N1332 S1330 1.610 . S
N1332 C1333 1.351 . S
C1333 C1327 1.428 . S
C1333 N1332 1.351 . S
C1333 C1334 1.434 . S
C1334 C1325 1.429 . S
C1334 N1331 1.350 . S
C1334 C1333 1.434 . S
C1335 C1336 1.369 . S
C1335 C1337 1.419 . S
C1335 H1339 0.930 . S
C1336 C1335 1.369 . S
C1336 C1345 1.429 . S
C1337 C1335 1.419 . S
C1337 C1338 1.363 . S
C1337 H1340 0.929 . S
C1338 C1337 1.363 . S
C1338 C1344 1.428 . S
H1339 C1335 0.930 . S
H1340 C1337 0.929 . S
S1341 N1342 1.613 . S
S1341 N1343 1.610 . S
N1342 S1341 1.613 . S
N1342 C1345 1.350 . S
N1343 S1341 1.610 . S
N1343 C1344 1.351 . S
C1344 C1338 1.428 . S
C1344 N1343 1.351 . S
C1344 C1345 1.434 . S
C1345 C1336 1.429 . S
C1345 N1342 1.350 . S
C1345 C1344 1.434 . S
C1346 C1347 1.369 . S
C1346 C1348 1.419 . S
C1346 H1350 0.930 . S
C1347 C1346 1.369 . S
C1347 C1356 1.429 . S
C1348 C1346 1.419 . S
C1348 C1349 1.363 . S
C1348 H1351 0.929 . S
C1349 C1348 1.363 . S
C1349 C1355 1.428 . S
H1350 C1346 0.930 . S
H1351 C1348 0.929 . S
S1352 N1353 1.613 . S
S1352 N1354 1.610 . S
N1353 S1352 1.613 . S
N1353 C1356 1.350 . S
N1354 S1352 1.610 . S
N1354 C1355 1.351 . S
C1355 C1349 1.428 . S
C1355 N1354 1.351 . S
C1355 C1356 1.434 . S
C1356 C1347 1.429 . S
C1356 N1353 1.350 . S
C1356 C1355 1.434 . S
C1357 C1358 1.369 . S
C1357 C1359 1.419 . S
C1357 H1361 0.930 . S
C1358 C1357 1.369 . S
C1358 C1367 1.429 . S
C1359 C1357 1.419 . S
C1359 C1360 1.363 . S
C1359 H1362 0.929 . S
C1360 C1359 1.363 . S
C1360 C1366 1.428 . S
H1361 C1357 0.930 . S
H1362 C1359 0.929 . S
S1363 N1364 1.613 . S
S1363 N1365 1.610 . S
N1364 S1363 1.613 . S
N1364 C1367 1.350 . S
N1365 S1363 1.610 . S
N1365 C1366 1.351 . S
C1366 C1360 1.428 . S
C1366 N1365 1.351 . S
C1366 C1367 1.434 . S
C1367 C1358 1.429 . S
C1367 N1364 1.350 . S
C1367 C1366 1.434 . S
C1368 C1369 1.369 . S
C1368 C1370 1.419 . S
C1368 H1372 0.930 . S
C1369 C1368 1.369 . S
C1369 C1378 1.429 . S
C1370 C1368 1.419 . S
C1370 C1371 1.363 . S
C1370 H1373 0.929 . S
C1371 C1370 1.363 . S
C1371 C1377 1.428 . S
H1372 C1368 0.930 . S
H1373 C1370 0.929 . S
S1374 N1375 1.613 . S
S1374 N1376 1.610 . S
N1375 S1374 1.613 . S
N1375 C1378 1.350 . S
N1376 S1374 1.610 . S
N1376 C1377 1.351 . S
C1377 C1371 1.428 . S
C1377 N1376 1.351 . S
C1377 C1378 1.434 . S
C1378 C1369 1.429 . S
C1378 N1375 1.350 . S
C1378 C1377 1.434 . S
C1379 C1380 1.369 . S
C1379 C1381 1.419 . S
C1379 H1383 0.930 . S
C1380 C1379 1.369 . S
C1380 C1389 1.429 . S
C1381 C1379 1.419 . S
C1381 C1382 1.363 . S
C1381 H1384 0.929 . S
C1382 C1381 1.363 . S
C1382 C1388 1.428 . S
H1383 C1379 0.930 . S
H1384 C1381 0.929 . S
S1385 N1386 1.613 . S
S1385 N1387 1.610 . S
N1386 S1385 1.613 . S
N1386 C1389 1.350 . S
N1387 S1385 1.610 . S
N1387 C1388 1.351 . S
C1388 C1382 1.428 . S
C1388 N1387 1.351 . S
C1388 C1389 1.434 . S
C1389 C1380 1.429 . S
C1389 N1386 1.350 . S
C1389 C1388 1.434 . S
C1390 C1391 1.369 . S
C1390 C1392 1.419 . S
C1390 H1394 0.930 . S
C1391 C1390 1.369 . S
C1391 C1400 1.429 . S
C1392 C1390 1.419 . S
C1392 C1393 1.363 . S
C1392 H1395 0.929 . S
C1393 C1392 1.363 . S
C1393 C1399 1.428 . S
H1394 C1390 0.930 . S
H1395 C1392 0.929 . S
S1396 N1397 1.613 . S
S1396 N1398 1.610 . S
N1397 S1396 1.613 . S
N1397 C1400 1.350 . S
N1398 S1396 1.610 . S
N1398 C1399 1.351 . S
C1399 C1393 1.428 . S
C1399 N1398 1.351 . S
C1399 C1400 1.434 . S
C1400 C1391 1.429 . S
C1400 N1397 1.350 . S
C1400 C1399 1.434 . S
C1401 C1402 1.369 . S
C1401 C1403 1.419 . S
C1401 H1405 0.930 . S
C1402 C1401 1.369 . S
C1402 C1411 1.429 . S
C1403 C1401 1.419 . S
C1403 C1404 1.363 . S
C1403 H1406 0.929 . S
C1404 C1403 1.363 . S
C1404 C1410 1.428 . S
H1405 C1401 0.930 . S
H1406 C1403 0.929 . S
S1407 N1408 1.613 . S
S1407 N1409 1.610 . S
N1408 S1407 1.613 . S
N1408 C1411 1.350 . S
N1409 S1407 1.610 . S
N1409 C1410 1.351 . S
C1410 C1404 1.428 . S
C1410 N1409 1.351 . S
C1410 C1411 1.434 . S
C1411 C1402 1.429 . S
C1411 N1408 1.350 . S
C1411 C1410 1.434 . S
C1412 C1413 1.369 . S
C1412 C1414 1.419 . S
C1412 H1416 0.930 . S
C1413 C1412 1.369 . S
C1413 C1422 1.429 . S
C1414 C1412 1.419 . S
C1414 C1415 1.363 . S
C1414 H1417 0.929 . S
C1415 C1414 1.363 . S
C1415 C1421 1.428 . S
H1416 C1412 0.930 . S
H1417 C1414 0.929 . S
S1418 N1419 1.613 . S
S1418 N1420 1.610 . S
N1419 S1418 1.613 . S
N1419 C1422 1.350 . S
N1420 S1418 1.610 . S
N1420 C1421 1.351 . S
C1421 C1415 1.428 . S
C1421 N1420 1.351 . S
C1421 C1422 1.434 . S
C1422 C1413 1.429 . S
C1422 N1419 1.350 . S
C1422 C1421 1.434 . S
C1423 C1424 1.369 . S
C1423 C1425 1.419 . S
C1423 H1427 0.930 . S
C1424 C1423 1.369 . S
C1424 C1433 1.429 . S
C1425 C1423 1.419 . S
C1425 C1426 1.363 . S
C1425 H1428 0.929 . S
C1426 C1425 1.363 . S
C1426 C1432 1.428 . S
H1427 C1423 0.930 . S
H1428 C1425 0.929 . S
S1429 N1430 1.613 . S
S1429 N1431 1.610 . S
N1430 S1429 1.613 . S
N1430 C1433 1.350 . S
N1431 S1429 1.610 . S
N1431 C1432 1.351 . S
C1432 C1426 1.428 . S
C1432 N1431 1.351 . S
C1432 C1433 1.434 . S
C1433 C1424 1.429 . S
C1433 N1430 1.350 . S
C1433 C1432 1.434 . S
C1434 C1435 1.369 . S
C1434 C1436 1.419 . S
C1434 H1438 0.930 . S
C1435 C1434 1.369 . S
C1435 C1444 1.429 . S
C1436 C1434 1.419 . S
C1436 C1437 1.363 . S
C1436 H1439 0.929 . S
C1437 C1436 1.363 . S
C1437 C1443 1.428 . S
H1438 C1434 0.930 . S
H1439 C1436 0.929 . S
S1440 N1441 1.613 . S
S1440 N1442 1.610 . S
N1441 S1440 1.613 . S
N1441 C1444 1.350 . S
N1442 S1440 1.610 . S
N1442 C1443 1.351 . S
C1443 C1437 1.428 . S
C1443 N1442 1.351 . S
C1443 C1444 1.434 . S
C1444 C1435 1.429 . S
C1444 N1441 1.350 . S
C1444 C1443 1.434 . S
C1445 C1446 1.369 . S
C1445 C1447 1.419 . S
C1445 H1449 0.930 . S
C1446 C1445 1.369 . S
C1446 C1455 1.429 . S
C1447 C1445 1.419 . S
C1447 C1448 1.363 . S
C1447 H1450 0.929 . S
C1448 C1447 1.363 . S
C1448 C1454 1.428 . S
H1449 C1445 0.930 . S
H1450 C1447 0.929 . S
S1451 N1452 1.613 . S
S1451 N1453 1.610 . S
N1452 S1451 1.613 . S
N1452 C1455 1.350 . S
N1453 S1451 1.610 . S
N1453 C1454 1.351 . S
C1454 C1448 1.428 . S
C1454 N1453 1.351 . S
C1454 C1455 1.434 . S
C1455 C1446 1.429 . S
C1455 N1452 1.350 . S
C1455 C1454 1.434 . S
C1456 C1457 1.369 . S
C1456 C1458 1.419 . S
C1456 H1460 0.930 . S
C1457 C1456 1.369 . S
C1457 C1466 1.429 . S
C1458 C1456 1.419 . S
C1458 C1459 1.363 . S
C1458 H1461 0.929 . S
C1459 C1458 1.363 . S
C1459 C1465 1.428 . S
H1460 C1456 0.930 . S
H1461 C1458 0.929 . S
S1462 N1463 1.613 . S
S1462 N1464 1.610 . S
N1463 S1462 1.613 . S
N1463 C1466 1.350 . S
N1464 S1462 1.610 . S
N1464 C1465 1.351 . S
C1465 C1459 1.428 . S
C1465 N1464 1.351 . S
C1465 C1466 1.434 . S
C1466 C1457 1.429 . S
C1466 N1463 1.350 . S
C1466 C1465 1.434 . S
C1467 C1468 1.369 . S
C1467 C1469 1.419 . S
C1467 H1471 0.930 . S
C1468 C1467 1.369 . S
C1468 C1477 1.429 . S
C1469 C1467 1.419 . S
C1469 C1470 1.363 . S
C1469 H1472 0.929 . S
C1470 C1469 1.363 . S
C1470 C1476 1.428 . S
H1471 C1467 0.930 . S
H1472 C1469 0.929 . S
S1473 N1474 1.613 . S
S1473 N1475 1.610 . S
N1474 S1473 1.613 . S
N1474 C1477 1.350 . S
N1475 S1473 1.610 . S
N1475 C1476 1.351 . S
C1476 C1470 1.428 . S
C1476 N1475 1.351 . S
C1476 C1477 1.434 . S
C1477 C1468 1.429 . S
C1477 N1474 1.350 . S
C1477 C1476 1.434 . S
C1478 C1479 1.369 . S
C1478 C1480 1.419 . S
C1478 H1482 0.930 . S
C1479 C1478 1.369 . S
C1479 C1488 1.429 . S
C1480 C1478 1.419 . S
C1480 C1481 1.363 . S
C1480 H1483 0.929 . S
C1481 C1480 1.363 . S
C1481 C1487 1.428 . S
H1482 C1478 0.930 . S
H1483 C1480 0.929 . S
S1484 N1485 1.613 . S
S1484 N1486 1.610 . S
N1485 S1484 1.613 . S
N1485 C1488 1.350 . S
N1486 S1484 1.610 . S
N1486 C1487 1.351 . S
C1487 C1481 1.428 . S
C1487 N1486 1.351 . S
C1487 C1488 1.434 . S
C1488 C1479 1.429 . S
C1488 N1485 1.350 . S
C1488 C1487 1.434 . S
C1489 C1490 1.369 . S
C1489 C1491 1.419 . S
C1489 H1493 0.930 . S
C1490 C1489 1.369 . S
C1490 C1499 1.429 . S
C1491 C1489 1.419 . S
C1491 C1492 1.363 . S
C1491 H1494 0.929 . S
C1492 C1491 1.363 . S
C1492 C1498 1.428 . S
H1493 C1489 0.930 . S
H1494 C1491 0.929 . S
S1495 N1496 1.613 . S
S1495 N1497 1.610 . S
N1496 S1495 1.613 . S
N1496 C1499 1.350 . S
N1497 S1495 1.610 . S
N1497 C1498 1.351 . S
C1498 C1492 1.428 . S
C1498 N1497 1.351 . S
C1498 C1499 1.434 . S
C1499 C1490 1.429 . S
C1499 N1496 1.350 . S
C1499 C1498 1.434 . S
C1500 C1501 1.369 . S
C1500 C1502 1.419 . S
C1500 H1504 0.930 . S
C1501 C1500 1.369 . S
C1501 C1510 1.429 . S
C1502 C1500 1.419 . S
C1502 C1503 1.363 . S
C1502 H1505 0.929 . S
C1503 C1502 1.363 . S
C1503 C1509 1.428 . S
H1504 C1500 0.930 . S
H1505 C1502 0.929 . S
S1506 N1507 1.613 . S
S1506 N1508 1.610 . S
N1507 S1506 1.613 . S
N1507 C1510 1.350 . S
N1508 S1506 1.610 . S
N1508 C1509 1.351 . S
C1509 C1503 1.428 . S
C1509 N1508 1.351 . S
C1509 C1510 1.434 . S
C1510 C1501 1.429 . S
C1510 N1507 1.350 . S
C1510 C1509 1.434 . S
C1511 C1512 1.369 . S
C1511 C1513 1.419 . S
C1511 H1515 0.930 . S
C1512 C1511 1.369 . S
C1512 C1521 1.429 . S
C1513 C1511 1.419 . S
C1513 C1514 1.363 . S
C1513 H1516 0.929 . S
C1514 C1513 1.363 . S
C1514 C1520 1.428 . S
H1515 C1511 0.930 . S
H1516 C1513 0.929 . S
S1517 N1518 1.613 . S
S1517 N1519 1.610 . S
N1518 S1517 1.613 . S
N1518 C1521 1.350 . S
N1519 S1517 1.610 . S
N1519 C1520 1.351 . S
C1520 C1514 1.428 . S
C1520 N1519 1.351 . S
C1520 C1521 1.434 . S
C1521 C1512 1.429 . S
C1521 N1518 1.350 . S
C1521 C1520 1.434 . S
C1522 C1523 1.369 . S
C1522 C1524 1.419 . S
C1522 H1526 0.930 . S
C1523 C1522 1.369 . S
C1523 C1532 1.429 1_545 S
C1524 C1522 1.419 . S
C1524 C1525 1.363 . S
C1524 H1527 0.929 . S
C1525 C1524 1.363 . S
C1525 C1531 1.428 1_545 S
H1526 C1522 0.930 . S
H1527 C1524 0.929 . S
S1528 N1529 1.613 . S
S1528 N1530 1.610 . S
N1529 S1528 1.613 . S
N1529 C1532 1.350 . S
N1530 S1528 1.610 . S
N1530 C1531 1.351 . S
C1531 C1525 1.428 1_565 S
C1531 N1530 1.351 . S
C1531 C1532 1.434 . S
C1532 C1523 1.429 1_565 S
C1532 N1529 1.350 . S
C1532 C1531 1.434 . S
C1533 C1534 1.369 . S
C1533 C1535 1.419 . S
C1533 H1537 0.930 . S
C1534 C1533 1.369 . S
C1534 C1543 1.429 . S
C1535 C1533 1.419 . S
C1535 C1536 1.363 . S
C1535 H1538 0.929 . S
C1536 C1535 1.363 . S
C1536 C1542 1.428 . S
H1537 C1533 0.930 . S
H1538 C1535 0.929 . S
S1539 N1540 1.613 . S
S1539 N1541 1.610 . S
N1540 S1539 1.613 . S
N1540 C1543 1.350 . S
N1541 S1539 1.610 . S
N1541 C1542 1.351 . S
C1542 C1536 1.428 . S
C1542 N1541 1.351 . S
C1542 C1543 1.434 . S
C1543 C1534 1.429 . S
C1543 N1540 1.350 . S
C1543 C1542 1.434 . S
C1544 C1545 1.369 . S
C1544 C1546 1.419 . S
C1544 H1548 0.930 . S
C1545 C1544 1.369 . S
C1545 C1554 1.429 . S
C1546 C1544 1.419 . S
C1546 C1547 1.363 . S
C1546 H1549 0.929 . S
C1547 C1546 1.363 . S
C1547 C1553 1.428 . S
H1548 C1544 0.930 . S
H1549 C1546 0.929 . S
S1550 N1551 1.613 . S
S1550 N1552 1.610 . S
N1551 S1550 1.613 . S
N1551 C1554 1.350 . S
N1552 S1550 1.610 . S
N1552 C1553 1.351 . S
C1553 C1547 1.428 . S
C1553 N1552 1.351 . S
C1553 C1554 1.434 . S
C1554 C1545 1.429 . S
C1554 N1551 1.350 . S
C1554 C1553 1.434 . S
C1555 C1556 1.369 . S
C1555 C1557 1.419 . S
C1555 H1559 0.930 . S
C1556 C1555 1.369 . S
C1556 C1565 1.429 . S
C1557 C1555 1.419 . S
C1557 C1558 1.363 . S
C1557 H1560 0.929 . S
C1558 C1557 1.363 . S
C1558 C1564 1.428 . S
H1559 C1555 0.930 . S
H1560 C1557 0.929 . S
S1561 N1562 1.613 . S
S1561 N1563 1.610 . S
N1562 S1561 1.613 . S
N1562 C1565 1.350 . S
N1563 S1561 1.610 . S
N1563 C1564 1.351 . S
C1564 C1558 1.428 . S
C1564 N1563 1.351 . S
C1564 C1565 1.434 . S
C1565 C1556 1.429 . S
C1565 N1562 1.350 . S
C1565 C1564 1.434 . S
C1566 C1567 1.369 . S
C1566 C1568 1.419 . S
C1566 H1570 0.930 . S
C1567 C1566 1.369 . S
C1567 C1576 1.429 . S
C1568 C1566 1.419 . S
C1568 C1569 1.363 . S
C1568 H1571 0.929 . S
C1569 C1568 1.363 . S
C1569 C1575 1.428 . S
H1570 C1566 0.930 . S
H1571 C1568 0.929 . S
S1572 N1573 1.613 . S
S1572 N1574 1.610 . S
N1573 S1572 1.613 . S
N1573 C1576 1.350 . S
N1574 S1572 1.610 . S
N1574 C1575 1.351 . S
C1575 C1569 1.428 . S
C1575 N1574 1.351 . S
C1575 C1576 1.434 . S
C1576 C1567 1.429 . S
C1576 N1573 1.350 . S
C1576 C1575 1.434 . S
C1577 C1578 1.369 . S
C1577 C1579 1.419 . S
C1577 H1581 0.930 . S
C1578 C1577 1.369 . S
C1578 C1587 1.429 . S
C1579 C1577 1.419 . S
C1579 C1580 1.363 . S
C1579 H1582 0.929 . S
C1580 C1579 1.363 . S
C1580 C1586 1.428 . S
H1581 C1577 0.930 . S
H1582 C1579 0.929 . S
S1583 N1584 1.613 . S
S1583 N1585 1.610 . S
N1584 S1583 1.613 . S
N1584 C1587 1.350 . S
N1585 S1583 1.610 . S
N1585 C1586 1.351 . S
C1586 C1580 1.428 . S
C1586 N1585 1.351 . S
C1586 C1587 1.434 . S
C1587 C1578 1.429 . S
C1587 N1584 1.350 . S
C1587 C1586 1.434 . S
C1588 C1589 1.369 . S
C1588 C1590 1.419 . S
C1588 H1592 0.930 . S
C1589 C1588 1.369 . S
C1589 C1598 1.429 . S
C1590 C1588 1.419 . S
C1590 C1591 1.363 . S
C1590 H1593 0.929 . S
C1591 C1590 1.363 . S
C1591 C1597 1.428 . S
H1592 C1588 0.930 . S
H1593 C1590 0.929 . S
S1594 N1595 1.613 . S
S1594 N1596 1.610 . S
N1595 S1594 1.613 . S
N1595 C1598 1.350 . S
N1596 S1594 1.610 . S
N1596 C1597 1.351 . S
C1597 C1591 1.428 . S
C1597 N1596 1.351 . S
C1597 C1598 1.434 . S
C1598 C1589 1.429 . S
C1598 N1595 1.350 . S
C1598 C1597 1.434 . S
C1599 C1600 1.369 . S
C1599 C1601 1.419 . S
C1599 H1603 0.930 . S
C1600 C1599 1.369 . S
C1600 C1609 1.429 . S
C1601 C1599 1.419 . S
C1601 C1602 1.363 . S
C1601 H1604 0.929 . S
C1602 C1601 1.363 . S
C1602 C1608 1.428 . S
H1603 C1599 0.930 . S
H1604 C1601 0.929 . S
S1605 N1606 1.613 . S
S1605 N1607 1.610 . S
N1606 S1605 1.613 . S
N1606 C1609 1.350 . S
N1607 S1605 1.610 . S
N1607 C1608 1.351 . S
C1608 C1602 1.428 . S
C1608 N1607 1.351 . S
C1608 C1609 1.434 . S
C1609 C1600 1.429 . S
C1609 N1606 1.350 . S
C1609 C1608 1.434 . S
C1610 C1611 1.369 . S
C1610 C1612 1.419 . S
C1610 H1614 0.930 . S
C1611 C1610 1.369 . S
C1611 C1620 1.429 1_545 S
C1612 C1610 1.419 . S
C1612 C1613 1.363 . S
C1612 H1615 0.929 . S
C1613 C1612 1.363 . S
C1613 C1619 1.428 1_545 S
H1614 C1610 0.930 . S
H1615 C1612 0.929 . S
S1616 N1617 1.613 . S
S1616 N1618 1.610 . S
N1617 S1616 1.613 . S
N1617 C1620 1.350 . S
N1618 S1616 1.610 . S
N1618 C1619 1.351 . S
C1619 C1613 1.428 1_565 S
C1619 N1618 1.351 . S
C1619 C1620 1.434 . S
C1620 C1611 1.429 1_565 S
C1620 N1617 1.350 . S
C1620 C1619 1.434 . S
C1621 C1622 1.369 . S
C1621 C1623 1.419 . S
C1621 H1625 0.930 . S
C1622 C1621 1.369 . S
C1622 C1631 1.429 . S
C1623 C1621 1.419 . S
C1623 C1624 1.363 . S
C1623 H1626 0.929 . S
C1624 C1623 1.363 . S
C1624 C1630 1.428 . S
H1625 C1621 0.930 . S
H1626 C1623 0.929 . S
S1627 N1628 1.613 . S
S1627 N1629 1.610 . S
N1628 S1627 1.613 . S
N1628 C1631 1.350 . S
N1629 S1627 1.610 . S
N1629 C1630 1.351 . S
C1630 C1624 1.428 . S
C1630 N1629 1.351 . S
C1630 C1631 1.434 . S
C1631 C1622 1.429 . S
C1631 N1628 1.350 . S
C1631 C1630 1.434 . S
C1632 C1633 1.369 . S
C1632 C1634 1.419 . S
C1632 H1636 0.930 . S
C1633 C1632 1.369 . S
C1633 C1642 1.429 . S
C1634 C1632 1.419 . S
C1634 C1635 1.363 . S
C1634 H1637 0.929 . S
C1635 C1634 1.363 . S
C1635 C1641 1.428 . S
H1636 C1632 0.930 . S
H1637 C1634 0.929 . S
S1638 N1639 1.613 1_655 S
S1638 N1640 1.610 1_655 S
N1639 S1638 1.613 1_455 S
N1639 C1642 1.350 . S
N1640 S1638 1.610 1_455 S
N1640 C1641 1.351 . S
C1641 C1635 1.428 . S
C1641 N1640 1.351 . S
C1641 C1642 1.434 . S
C1642 C1633 1.429 . S
C1642 N1639 1.350 . S
C1642 C1641 1.434 . S
C1643 C1644 1.369 . S
C1643 C1645 1.419 . S
C1643 H1647 0.930 . S
C1644 C1643 1.369 . S
C1644 C1653 1.429 . S
C1645 C1643 1.419 . S
C1645 C1646 1.363 . S
C1645 H1648 0.929 . S
C1646 C1645 1.363 . S
C1646 C1652 1.428 . S
H1647 C1643 0.930 . S
H1648 C1645 0.929 . S
S1649 N1650 1.613 . S
S1649 N1651 1.610 . S
N1650 S1649 1.613 . S
N1650 C1653 1.350 . S
N1651 S1649 1.610 . S
N1651 C1652 1.351 . S
C1652 C1646 1.428 . S
C1652 N1651 1.351 . S
C1652 C1653 1.434 . S
C1653 C1644 1.429 . S
C1653 N1650 1.350 . S
C1653 C1652 1.434 . S
C1654 C1655 1.369 . S
C1654 C1656 1.419 . S
C1654 H1658 0.930 . S
C1655 C1654 1.369 . S
C1655 C1664 1.429 . S
C1656 C1654 1.419 . S
C1656 C1657 1.363 . S
C1656 H1659 0.929 . S
C1657 C1656 1.363 . S
C1657 C1663 1.428 . S
H1658 C1654 0.930 . S
H1659 C1656 0.929 . S
S1660 N1661 1.613 . S
S1660 N1662 1.610 . S
N1661 S1660 1.613 . S
N1661 C1664 1.350 . S
N1662 S1660 1.610 . S
N1662 C1663 1.351 . S
C1663 C1657 1.428 . S
C1663 N1662 1.351 . S
C1663 C1664 1.434 . S
C1664 C1655 1.429 . S
C1664 N1661 1.350 . S
C1664 C1663 1.434 . S
C1665 C1666 1.369 . S
C1665 C1667 1.419 . S
C1665 H1669 0.930 . S
C1666 C1665 1.369 . S
C1666 C1675 1.429 . S
C1667 C1665 1.419 . S
C1667 C1668 1.363 . S
C1667 H1670 0.929 . S
C1668 C1667 1.363 . S
C1668 C1674 1.428 . S
H1669 C1665 0.930 . S
H1670 C1667 0.929 . S
S1671 N1672 1.613 . S
S1671 N1673 1.610 . S
N1672 S1671 1.613 . S
N1672 C1675 1.350 . S
N1673 S1671 1.610 . S
N1673 C1674 1.351 . S
C1674 C1668 1.428 . S
C1674 N1673 1.351 . S
C1674 C1675 1.434 . S
C1675 C1666 1.429 . S
C1675 N1672 1.350 . S
C1675 C1674 1.434 . S
C1676 C1677 1.369 . S
C1676 C1678 1.419 . S
C1676 H1680 0.930 . S
C1677 C1676 1.369 . S
C1677 C1686 1.429 . S
C1678 C1676 1.419 . S
C1678 C1679 1.363 . S
C1678 H1681 0.929 . S
C1679 C1678 1.363 . S
C1679 C1685 1.428 . S
H1680 C1676 0.930 . S
H1681 C1678 0.929 . S
S1682 N1683 1.613 . S
S1682 N1684 1.610 . S
N1683 S1682 1.613 . S
N1683 C1686 1.350 . S
N1684 S1682 1.610 . S
N1684 C1685 1.351 . S
C1685 C1679 1.428 . S
C1685 N1684 1.351 . S
C1685 C1686 1.434 . S
C1686 C1677 1.429 . S
C1686 N1683 1.350 . S
C1686 C1685 1.434 . S
C1687 C1688 1.369 . S
C1687 C1689 1.419 . S
C1687 H1691 0.930 . S
C1688 C1687 1.369 . S
C1688 C1697 1.429 . S
C1689 C1687 1.419 . S
C1689 C1690 1.363 . S
C1689 H1692 0.929 . S
C1690 C1689 1.363 . S
C1690 C1696 1.428 . S
H1691 C1687 0.930 . S
H1692 C1689 0.929 . S
S1693 N1694 1.613 . S
S1693 N1695 1.610 . S
N1694 S1693 1.613 . S
N1694 C1697 1.350 . S
N1695 S1693 1.610 . S
N1695 C1696 1.351 . S
C1696 C1690 1.428 . S
C1696 N1695 1.351 . S
C1696 C1697 1.434 . S
C1697 C1688 1.429 . S
C1697 N1694 1.350 . S
C1697 C1696 1.434 . S
C1698 C1699 1.369 . S
C1698 C1700 1.419 . S
C1698 H1702 0.930 . S
C1699 C1698 1.369 . S
C1699 C1708 1.429 . S
C1700 C1698 1.419 . S
C1700 C1701 1.363 . S
C1700 H1703 0.929 . S
C1701 C1700 1.363 . S
C1701 C1707 1.428 . S
H1702 C1698 0.930 . S
H1703 C1700 0.929 . S
S1704 N1705 1.613 . S
S1704 N1706 1.610 . S
N1705 S1704 1.613 . S
N1705 C1708 1.350 . S
N1706 S1704 1.610 . S
N1706 C1707 1.351 . S
C1707 C1701 1.428 . S
C1707 N1706 1.351 . S
C1707 C1708 1.434 . S
C1708 C1699 1.429 . S
C1708 N1705 1.350 . S
C1708 C1707 1.434 . S
C1709 C1710 1.369 . S
C1709 C1711 1.419 . S
C1709 H1713 0.930 . S
C1710 C1709 1.369 . S
C1710 C1719 1.429 . S
C1711 C1709 1.419 . S
C1711 C1712 1.363 . S
C1711 H1714 0.929 . S
C1712 C1711 1.363 . S
C1712 C1718 1.428 . S
H1713 C1709 0.930 . S
H1714 C1711 0.929 . S
S1715 N1716 1.613 . S
S1715 N1717 1.610 . S
N1716 S1715 1.613 . S
N1716 C1719 1.350 . S
N1717 S1715 1.610 . S
N1717 C1718 1.351 . S
C1718 C1712 1.428 . S
C1718 N1717 1.351 . S
C1718 C1719 1.434 . S
C1719 C1710 1.429 . S
C1719 N1716 1.350 . S
C1719 C1718 1.434 . S
C1720 C1721 1.369 . S
C1720 C1722 1.419 . S
C1720 H1724 0.930 . S
C1721 C1720 1.369 . S
C1721 C1730 1.429 . S
C1722 C1720 1.419 . S
C1722 C1723 1.363 . S
C1722 H1725 0.929 . S
C1723 C1722 1.363 . S
C1723 C1729 1.428 . S
H1724 C1720 0.930 . S
H1725 C1722 0.929 . S
S1726 N1727 1.613 . S
S1726 N1728 1.610 . S
N1727 S1726 1.613 . S
N1727 C1730 1.350 . S
N1728 S1726 1.610 . S
N1728 C1729 1.351 . S
C1729 C1723 1.428 . S
C1729 N1728 1.351 . S
C1729 C1730 1.434 . S
C1730 C1721 1.429 . S
C1730 N1727 1.350 . S
C1730 C1729 1.434 . S
C1731 C1732 1.369 . S
C1731 C1733 1.419 . S
C1731 H1735 0.930 . S
C1732 C1731 1.369 . S
C1732 C1741 1.429 . S
C1733 C1731 1.419 . S
C1733 C1734 1.363 . S
C1733 H1736 0.929 . S
C1734 C1733 1.363 . S
C1734 C1740 1.428 . S
H1735 C1731 0.930 . S
H1736 C1733 0.929 . S
S1737 N1738 1.613 . S
S1737 N1739 1.610 . S
N1738 S1737 1.613 . S
N1738 C1741 1.350 . S
N1739 S1737 1.610 . S
N1739 C1740 1.351 . S
C1740 C1734 1.428 . S
C1740 N1739 1.351 . S
C1740 C1741 1.434 . S
C1741 C1732 1.429 . S
C1741 N1738 1.350 . S
C1741 C1740 1.434 . S
C1742 C1743 1.369 . S
C1742 C1744 1.419 . S
C1742 H1746 0.930 . S
C1743 C1742 1.369 . S
C1743 C1752 1.429 . S
C1744 C1742 1.419 . S
C1744 C1745 1.363 . S
C1744 H1747 0.929 . S
C1745 C1744 1.363 . S
C1745 C1751 1.428 . S
H1746 C1742 0.930 . S
H1747 C1744 0.929 . S
S1748 N1749 1.613 . S
S1748 N1750 1.610 . S
N1749 S1748 1.613 . S
N1749 C1752 1.350 . S
N1750 S1748 1.610 . S
N1750 C1751 1.351 . S
C1751 C1745 1.428 . S
C1751 N1750 1.351 . S
C1751 C1752 1.434 . S
C1752 C1743 1.429 . S
C1752 N1749 1.350 . S
C1752 C1751 1.434 . S
C1753 C1754 1.369 . S
C1753 C1755 1.419 . S
C1753 H1757 0.930 . S
C1754 C1753 1.369 . S
C1754 C1763 1.429 . S
C1755 C1753 1.419 . S
C1755 C1756 1.363 . S
C1755 H1758 0.929 . S
C1756 C1755 1.363 . S
C1756 C1762 1.428 . S
H1757 C1753 0.930 . S
H1758 C1755 0.929 . S
S1759 N1760 1.613 . S
S1759 N1761 1.610 . S
N1760 S1759 1.613 . S
N1760 C1763 1.350 . S
N1761 S1759 1.610 . S
N1761 C1762 1.351 . S
C1762 C1756 1.428 . S
C1762 N1761 1.351 . S
C1762 C1763 1.434 . S
C1763 C1754 1.429 . S
C1763 N1760 1.350 . S
C1763 C1762 1.434 . S
C1764 C1765 1.369 . S
C1764 C1766 1.419 . S
C1764 H1768 0.930 . S
C1765 C1764 1.369 . S
C1765 C1774 1.429 . S
C1766 C1764 1.419 . S
C1766 C1767 1.363 . S
C1766 H1769 0.929 . S
C1767 C1766 1.363 . S
C1767 C1773 1.428 . S
H1768 C1764 0.930 . S
H1769 C1766 0.929 . S
S1770 N1771 1.613 . S
S1770 N1772 1.610 . S
N1771 S1770 1.613 . S
N1771 C1774 1.350 . S
N1772 S1770 1.610 . S
N1772 C1773 1.351 . S
C1773 C1767 1.428 . S
C1773 N1772 1.351 . S
C1773 C1774 1.434 . S
C1774 C1765 1.429 . S
C1774 N1771 1.350 . S
C1774 C1773 1.434 . S
C1775 C1776 1.369 . S
C1775 C1777 1.419 . S
C1775 H1779 0.930 . S
C1776 C1775 1.369 . S
C1776 C1785 1.429 . S
C1777 C1775 1.419 . S
C1777 C1778 1.363 . S
C1777 H1780 0.929 . S
C1778 C1777 1.363 . S
C1778 C1784 1.428 . S
H1779 C1775 0.930 . S
H1780 C1777 0.929 . S
S1781 N1782 1.613 . S
S1781 N1783 1.610 . S
N1782 S1781 1.613 . S
N1782 C1785 1.350 . S
N1783 S1781 1.610 . S
N1783 C1784 1.351 . S
C1784 C1778 1.428 . S
C1784 N1783 1.351 . S
C1784 C1785 1.434 . S
C1785 C1776 1.429 . S
C1785 N1782 1.350 . S
C1785 C1784 1.434 . S
C1786 C1787 1.369 . S
C1786 C1788 1.419 . S
C1786 H1790 0.930 . S
C1787 C1786 1.369 . S
C1787 C1796 1.429 . S
C1788 C1786 1.419 . S
C1788 C1789 1.363 . S
C1788 H1791 0.929 . S
C1789 C1788 1.363 . S
C1789 C1795 1.428 . S
H1790 C1786 0.930 . S
H1791 C1788 0.929 . S
S1792 N1793 1.613 . S
S1792 N1794 1.610 . S
N1793 S1792 1.613 . S
N1793 C1796 1.350 . S
N1794 S1792 1.610 . S
N1794 C1795 1.351 . S
C1795 C1789 1.428 . S
C1795 N1794 1.351 . S
C1795 C1796 1.434 . S
C1796 C1787 1.429 . S
C1796 N1793 1.350 . S
C1796 C1795 1.434 . S
C1797 C1798 1.369 . S
C1797 C1799 1.419 . S
C1797 H1801 0.930 . S
C1798 C1797 1.369 . S
C1798 C1807 1.429 . S
C1799 C1797 1.419 . S
C1799 C1800 1.363 . S
C1799 H1802 0.929 . S
C1800 C1799 1.363 . S
C1800 C1806 1.428 . S
H1801 C1797 0.930 . S
H1802 C1799 0.929 . S
S1803 N1804 1.613 . S
S1803 N1805 1.610 . S
N1804 S1803 1.613 . S
N1804 C1807 1.350 . S
N1805 S1803 1.610 . S
N1805 C1806 1.351 . S
C1806 C1800 1.428 . S
C1806 N1805 1.351 . S
C1806 C1807 1.434 . S
C1807 C1798 1.429 . S
C1807 N1804 1.350 . S
C1807 C1806 1.434 . S
C1808 C1809 1.369 . S
C1808 C1810 1.419 . S
C1808 H1812 0.930 . S
C1809 C1808 1.369 . S
C1809 C1818 1.429 . S
C1810 C1808 1.419 . S
C1810 C1811 1.363 . S
C1810 H1813 0.929 . S
C1811 C1810 1.363 . S
C1811 C1817 1.428 . S
H1812 C1808 0.930 . S
H1813 C1810 0.929 . S
S1814 N1815 1.613 . S
S1814 N1816 1.610 . S
N1815 S1814 1.613 . S
N1815 C1818 1.350 . S
N1816 S1814 1.610 . S
N1816 C1817 1.351 . S
C1817 C1811 1.428 . S
C1817 N1816 1.351 . S
C1817 C1818 1.434 . S
C1818 C1809 1.429 . S
C1818 N1815 1.350 . S
C1818 C1817 1.434 . S
C1819 C1820 1.369 . S
C1819 C1821 1.419 . S
C1819 H1823 0.930 . S
C1820 C1819 1.369 . S
C1820 C1829 1.429 . S
C1821 C1819 1.419 . S
C1821 C1822 1.363 . S
C1821 H1824 0.929 . S
C1822 C1821 1.363 . S
C1822 C1828 1.428 . S
H1823 C1819 0.930 . S
H1824 C1821 0.929 . S
S1825 N1826 1.613 . S
S1825 N1827 1.610 . S
N1826 S1825 1.613 . S
N1826 C1829 1.350 . S
N1827 S1825 1.610 . S
N1827 C1828 1.351 . S
C1828 C1822 1.428 . S
C1828 N1827 1.351 . S
C1828 C1829 1.434 . S
C1829 C1820 1.429 . S
C1829 N1826 1.350 . S
C1829 C1828 1.434 . S
C1830 C1831 1.369 . S
C1830 C1832 1.419 . S
C1830 H1834 0.930 . S
C1831 C1830 1.369 . S
C1831 C1840 1.429 . S
C1832 C1830 1.419 . S
C1832 C1833 1.363 . S
C1832 H1835 0.929 . S
C1833 C1832 1.363 . S
C1833 C1839 1.428 . S
H1834 C1830 0.930 . S
H1835 C1832 0.929 . S
S1836 N1837 1.613 . S
S1836 N1838 1.610 . S
N1837 S1836 1.613 . S
N1837 C1840 1.350 . S
N1838 S1836 1.610 . S
N1838 C1839 1.351 . S
C1839 C1833 1.428 . S
C1839 N1838 1.351 . S
C1839 C1840 1.434 . S
C1840 C1831 1.429 . S
C1840 N1837 1.350 . S
C1840 C1839 1.434 . S
C1841 C1842 1.369 . S
C1841 C1843 1.419 . S
C1841 H1845 0.930 . S
C1842 C1841 1.369 . S
C1842 C1851 1.429 . S
C1843 C1841 1.419 . S
C1843 C1844 1.363 . S
C1843 H1846 0.929 . S
C1844 C1843 1.363 . S
C1844 C1850 1.428 . S
H1845 C1841 0.930 . S
H1846 C1843 0.929 . S
S1847 N1848 1.613 . S
S1847 N1849 1.610 . S
N1848 S1847 1.613 . S
N1848 C1851 1.350 . S
N1849 S1847 1.610 . S
N1849 C1850 1.351 . S
C1850 C1844 1.428 . S
C1850 N1849 1.351 . S
C1850 C1851 1.434 . S
C1851 C1842 1.429 . S
C1851 N1848 1.350 . S
C1851 C1850 1.434 . S
C1852 C1853 1.369 . S
C1852 C1854 1.419 . S
C1852 H1856 0.930 . S
C1853 C1852 1.369 . S
C1853 C1862 1.429 . S
C1854 C1852 1.419 . S
C1854 C1855 1.363 . S
C1854 H1857 0.929 . S
C1855 C1854 1.363 . S
C1855 C1861 1.428 . S
H1856 C1852 0.930 . S
H1857 C1854 0.929 . S
S1858 N1859 1.613 . S
S1858 N1860 1.610 . S
N1859 S1858 1.613 . S
N1859 C1862 1.350 . S
N1860 S1858 1.610 . S
N1860 C1861 1.351 . S
C1861 C1855 1.428 . S
C1861 N1860 1.351 . S
C1861 C1862 1.434 . S
C1862 C1853 1.429 . S
C1862 N1859 1.350 . S
C1862 C1861 1.434 . S
C1863 C1864 1.369 . S
C1863 C1865 1.419 . S
C1863 H1867 0.930 . S
C1864 C1863 1.369 . S
C1864 C1873 1.429 . S
C1865 C1863 1.419 . S
C1865 C1866 1.363 . S
C1865 H1868 0.929 . S
C1866 C1865 1.363 . S
C1866 C1872 1.428 . S
H1867 C1863 0.930 . S
H1868 C1865 0.929 . S
S1869 N1870 1.613 . S
S1869 N1871 1.610 . S
N1870 S1869 1.613 . S
N1870 C1873 1.350 . S
N1871 S1869 1.610 . S
N1871 C1872 1.351 . S
C1872 C1866 1.428 . S
C1872 N1871 1.351 . S
C1872 C1873 1.434 . S
C1873 C1864 1.429 . S
C1873 N1870 1.350 . S
C1873 C1872 1.434 . S
C1874 C1875 1.369 . S
C1874 C1876 1.419 . S
C1874 H1878 0.930 . S
C1875 C1874 1.369 . S
C1875 C1884 1.429 . S
C1876 C1874 1.419 . S
C1876 C1877 1.363 . S
C1876 H1879 0.929 . S
C1877 C1876 1.363 . S
C1877 C1883 1.428 . S
H1878 C1874 0.930 . S
H1879 C1876 0.929 . S
S1880 N1881 1.613 . S
S1880 N1882 1.610 . S
N1881 S1880 1.613 . S
N1881 C1884 1.350 . S
N1882 S1880 1.610 . S
N1882 C1883 1.351 . S
C1883 C1877 1.428 . S
C1883 N1882 1.351 . S
C1883 C1884 1.434 . S
C1884 C1875 1.429 . S
C1884 N1881 1.350 . S
C1884 C1883 1.434 . S
C1885 C1886 1.369 . S
C1885 C1887 1.419 . S
C1885 H1889 0.930 . S
C1886 C1885 1.369 . S
C1886 C1895 1.429 . S
C1887 C1885 1.419 . S
C1887 C1888 1.363 . S
C1887 H1890 0.929 . S
C1888 C1887 1.363 . S
C1888 C1894 1.428 . S
H1889 C1885 0.930 . S
H1890 C1887 0.929 . S
S1891 N1892 1.613 . S
S1891 N1893 1.610 . S
N1892 S1891 1.613 . S
N1892 C1895 1.350 . S
N1893 S1891 1.610 . S
N1893 C1894 1.351 . S
C1894 C1888 1.428 . S
C1894 N1893 1.351 . S
C1894 C1895 1.434 . S
C1895 C1886 1.429 . S
C1895 N1892 1.350 . S
C1895 C1894 1.434 . S
C1896 C1897 1.373 . S
C1896 C1898 1.419 . S
C1896 H1900 0.930 . S
C1897 C1896 1.373 . S
C1897 C1906 1.427 1_565 S
C1898 C1896 1.419 . S
C1898 C1899 1.363 . S
C1898 H1901 0.929 . S
C1899 C1898 1.363 . S
C1899 C1905 1.428 . S
H1900 C1896 0.930 . S
H1901 C1898 0.929 . S
S1902 N1903 1.613 . S
S1902 N1904 1.610 . S
N1903 S1902 1.613 . S
N1903 C1906 1.350 . S
N1904 S1902 1.610 . S
N1904 C1905 1.351 1_545 S
C1905 C1899 1.428 . S
C1905 N1904 1.351 1_565 S
C1905 C1906 1.434 1_565 S
C1906 C1897 1.427 1_545 S
C1906 N1903 1.350 . S
C1906 C1905 1.434 1_545 S
C1907 C1908 1.369 . S
C1907 C1909 1.419 . S
C1907 H1911 0.930 . S
C1908 C1907 1.369 . S
C1908 C1917 1.429 . S
C1909 C1907 1.419 . S
C1909 C1910 1.363 . S
C1909 H1912 0.929 . S
C1910 C1909 1.363 . S
C1910 C1916 1.428 . S
H1911 C1907 0.930 . S
H1912 C1909 0.929 . S
S1913 N1914 1.613 . S
S1913 N1915 1.610 . S
N1914 S1913 1.613 . S
N1914 C1917 1.350 . S
N1915 S1913 1.610 . S
N1915 C1916 1.351 . S
C1916 C1910 1.428 . S
C1916 N1915 1.351 . S
C1916 C1917 1.434 . S
C1917 C1908 1.429 . S
C1917 N1914 1.350 . S
C1917 C1916 1.434 . S
C1918 C1919 1.369 . S
C1918 C1920 1.419 . S
C1918 H1922 0.930 . S
C1919 C1918 1.369 . S
C1919 C1928 1.429 . S
C1920 C1918 1.419 . S
C1920 C1921 1.363 . S
C1920 H1923 0.929 . S
C1921 C1920 1.363 . S
C1921 C1927 1.428 . S
H1922 C1918 0.930 . S
H1923 C1920 0.929 . S
S1924 N1925 1.613 . S
S1924 N1926 1.610 . S
N1925 S1924 1.613 . S
N1925 C1928 1.350 . S
N1926 S1924 1.610 . S
N1926 C1927 1.351 . S
C1927 C1921 1.428 . S
C1927 N1926 1.351 . S
C1927 C1928 1.434 . S
C1928 C1919 1.429 . S
C1928 N1925 1.350 . S
C1928 C1927 1.434 . S
C1929 C1930 1.375 . S
C1929 C1931 1.419 . S
C1929 H1933 0.930 . S
C1930 C1929 1.375 . S
C1930 C1939 1.424 1_565 S
C1931 C1929 1.419 . S
C1931 C1932 1.363 . S
C1931 H1934 0.929 . S
C1932 C1931 1.363 . S
C1932 C1938 1.428 1_565 S
H1933 C1929 0.930 . S
H1934 C1931 0.929 . S
S1935 N1936 1.613 . S
S1935 N1937 1.610 . S
N1936 S1935 1.613 . S
N1936 C1939 1.350 . S
N1937 S1935 1.610 . S
N1937 C1938 1.351 . S
C1938 C1932 1.428 1_545 S
C1938 N1937 1.351 . S
C1938 C1939 1.434 . S
C1939 C1930 1.424 1_545 S
C1939 N1936 1.350 . S
C1939 C1938 1.434 . S
C1940 C1941 1.378 . S
C1940 C1942 1.419 . S
C1940 H1944 0.930 . S
C1941 C1940 1.378 . S
C1941 C1950 1.424 1_545 S
C1942 C1940 1.419 . S
C1942 C1943 1.363 . S
C1942 H1945 0.929 . S
C1943 C1942 1.363 . S
C1943 C1949 1.436 . S
H1944 C1940 0.930 . S
H1945 C1942 0.929 . S
S1946 N1947 1.613 . S
S1946 N1948 1.610 . S
N1947 S1946 1.613 . S
N1947 C1950 1.350 . S
N1948 S1946 1.610 . S
N1948 C1949 1.347 1_565 S
C1949 C1943 1.436 . S
C1949 N1948 1.347 1_545 S
C1949 C1950 1.430 1_545 S
C1950 C1941 1.424 1_565 S
C1950 N1947 1.350 . S
C1950 C1949 1.430 1_565 S
C1951 C1952 1.369 . S
C1951 C1953 1.419 . S
C1951 H1955 0.930 . S
C1952 C1951 1.369 . S
C1952 C1961 1.429 . S
C1953 C1951 1.419 . S
C1953 C1954 1.363 . S
C1953 H1956 0.929 . S
C1954 C1953 1.363 . S
C1954 C1960 1.428 . S
H1955 C1951 0.930 . S
H1956 C1953 0.929 . S
S1957 N1958 1.613 . S
S1957 N1959 1.610 . S
N1958 S1957 1.613 . S
N1958 C1961 1.350 . S
N1959 S1957 1.610 . S
N1959 C1960 1.351 . S
C1960 C1954 1.428 . S
C1960 N1959 1.351 . S
C1960 C1961 1.434 . S
C1961 C1952 1.429 . S
C1961 N1958 1.350 . S
C1961 C1960 1.434 . S
C1962 C1963 1.369 . S
C1962 C1964 1.419 . S
C1962 H1966 0.930 . S
C1963 C1962 1.369 . S
C1963 C1972 1.429 . S
C1964 C1962 1.419 . S
C1964 C1965 1.363 . S
C1964 H1967 0.929 . S
C1965 C1964 1.363 . S
C1965 C1971 1.428 . S
H1966 C1962 0.930 . S
H1967 C1964 0.929 . S
S1968 N1969 1.613 . S
S1968 N1970 1.610 . S
N1969 S1968 1.613 . S
N1969 C1972 1.350 . S
N1970 S1968 1.610 . S
N1970 C1971 1.351 . S
C1971 C1965 1.428 . S
C1971 N1970 1.351 . S
C1971 C1972 1.434 . S
C1972 C1963 1.429 . S
C1972 N1969 1.350 . S
C1972 C1971 1.434 . S
C1973 C1974 1.369 1_565 S
C1973 C1975 1.419 . S
C1973 H1977 0.930 . S
C1974 C1973 1.369 1_545 S
C1974 C1983 1.429 . S
C1975 C1973 1.419 . S
C1975 C1976 1.363 1_565 S
C1975 H1978 0.929 . S
C1976 C1975 1.363 1_545 S
C1976 C1982 1.428 . S
H1977 C1973 0.930 . S
H1978 C1975 0.929 . S
S1979 N1980 1.613 . S
S1979 N1981 1.610 . S
N1980 S1979 1.613 . S
N1980 C1983 1.350 . S
N1981 S1979 1.610 . S
N1981 C1982 1.351 . S
C1982 C1976 1.428 . S
C1982 N1981 1.351 . S
C1982 C1983 1.434 . S
C1983 C1974 1.429 . S
C1983 N1980 1.350 . S
C1983 C1982 1.434 . S
C1984 C1985 1.369 . S
C1984 C1986 1.419 . S
C1984 H1988 0.930 . S
C1985 C1984 1.369 . S
C1985 C1994 1.429 . S
C1986 C1984 1.419 . S
C1986 C1987 1.363 1_455 S
C1986 H1989 0.929 1_455 S
C1987 C1986 1.363 1_655 S
C1987 C1993 1.428 . S
H1988 C1984 0.930 . S
H1989 C1986 0.929 1_655 S
S1990 N1991 1.613 . S
S1990 N1992 1.610 1_455 S
N1991 S1990 1.613 . S
N1991 C1994 1.350 . S
N1992 S1990 1.610 1_655 S
N1992 C1993 1.351 . S
C1993 C1987 1.428 . S
C1993 N1992 1.351 . S
C1993 C1994 1.434 1_655 S
C1994 C1985 1.429 . S
C1994 N1991 1.350 . S
C1994 C1993 1.434 1_455 S
C1995 C1996 1.369 . S
C1995 C1997 1.419 . S
C1995 H1999 0.930 . S
C1996 C1995 1.369 . S
C1996 C2005 1.429 . S
C1997 C1995 1.419 . S
C1997 C1998 1.363 . S
C1997 H2000 0.929 . S
C1998 C1997 1.363 . S
C1998 C2004 1.428 . S
H1999 C1995 0.930 . S
H2000 C1997 0.929 . S
S2001 N2002 1.613 . S
S2001 N2003 1.610 . S
N2002 S2001 1.613 . S
N2002 C2005 1.350 . S
N2003 S2001 1.610 . S
N2003 C2004 1.351 . S
C2004 C1998 1.428 . S
C2004 N2003 1.351 . S
C2004 C2005 1.434 . S
C2005 C1996 1.429 . S
C2005 N2002 1.350 . S
C2005 C2004 1.434 . S
C2006 C2007 1.369 . S
C2006 C2008 1.419 1_655 S
C2006 H2010 0.930 . S
C2007 C2006 1.369 . S
C2007 C2016 1.429 1_655 S
C2008 C2006 1.419 1_455 S
C2008 C2009 1.363 . S
C2008 H2011 0.929 . S
C2009 C2008 1.363 . S
C2009 C2015 1.428 . S
H2010 C2006 0.930 . S
H2011 C2008 0.929 . S
S2012 N2013 1.613 . S
S2012 N2014 1.610 . S
N2013 S2012 1.613 . S
N2013 C2016 1.350 . S
N2014 S2012 1.610 . S
N2014 C2015 1.351 . S
C2015 C2009 1.428 . S
C2015 N2014 1.351 . S
C2015 C2016 1.434 . S
C2016 C2007 1.429 1_455 S
C2016 N2013 1.350 . S
C2016 C2015 1.434 . S
C2017 C2018 1.369 . S
C2017 C2019 1.419 . S
C2017 H2021 0.930 . S
C2018 C2017 1.369 . S
C2018 C2027 1.429 . S
C2019 C2017 1.419 . S
C2019 C2020 1.363 . S
C2019 H2022 0.929 . S
C2020 C2019 1.363 . S
C2020 C2026 1.428 . S
H2021 C2017 0.930 . S
H2022 C2019 0.929 . S
S2023 N2024 1.613 . S
S2023 N2025 1.610 . S
N2024 S2023 1.613 . S
N2024 C2027 1.350 . S
N2025 S2023 1.610 . S
N2025 C2026 1.351 . S
C2026 C2020 1.428 . S
C2026 N2025 1.351 . S
C2026 C2027 1.434 . S
C2027 C2018 1.429 . S
C2027 N2024 1.350 . S
C2027 C2026 1.434 . S
C2028 C2029 1.369 . S
C2028 C2030 1.419 . S
C2028 H2032 0.930 . S
C2029 C2028 1.369 . S
C2029 C2038 1.429 . S
C2030 C2028 1.419 . S
C2030 C2031 1.363 1_655 S
C2030 H2033 0.929 . S
C2031 C2030 1.363 1_455 S
C2031 C2037 1.428 . S
H2032 C2028 0.930 . S
H2033 C2030 0.929 . S
S2034 N2035 1.613 1_455 S
S2034 N2036 1.610 . S
N2035 S2034 1.613 1_655 S
N2035 C2038 1.350 . S
N2036 S2034 1.610 . S
N2036 C2037 1.351 . S
C2037 C2031 1.428 . S
C2037 N2036 1.351 . S
C2037 C2038 1.434 1_455 S
C2038 C2029 1.429 . S
C2038 N2035 1.350 . S
C2038 C2037 1.434 1_655 S
C2039 C2040 1.369 . S
C2039 C2041 1.419 . S
C2039 H2043 0.930 . S
C2040 C2039 1.369 . S
C2040 C2049 1.429 . S
C2041 C2039 1.419 . S
C2041 C2042 1.363 . S
C2041 H2044 0.929 . S
C2042 C2041 1.363 . S
C2042 C2048 1.428 . S
H2043 C2039 0.930 . S
H2044 C2041 0.929 . S
S2045 N2046 1.613 . S
S2045 N2047 1.610 . S
N2046 S2045 1.613 . S
N2046 C2049 1.350 . S
N2047 S2045 1.610 . S
N2047 C2048 1.351 . S
C2048 C2042 1.428 . S
C2048 N2047 1.351 . S
C2048 C2049 1.434 . S
C2049 C2040 1.429 . S
C2049 N2046 1.350 . S
C2049 C2048 1.434 . S
C2050 C2051 1.369 . S
C2050 C2052 1.419 1_455 S
C2050 H2054 0.930 . S
C2051 C2050 1.369 . S
C2051 C2060 1.429 1_455 S
C2052 C2050 1.419 1_655 S
C2052 C2053 1.363 . S
C2052 H2055 0.929 . S
C2053 C2052 1.363 . S
C2053 C2059 1.428 . S
H2054 C2050 0.930 . S
H2055 C2052 0.929 . S
S2056 N2057 1.613 1_655 S
S2056 N2058 1.610 . S
N2057 S2056 1.613 1_455 S
N2057 C2060 1.350 1_455 S
N2058 S2056 1.610 . S
N2058 C2059 1.351 . S
C2059 C2053 1.428 . S
C2059 N2058 1.351 . S
C2059 C2060 1.434 . S
C2060 C2051 1.429 1_655 S
C2060 N2057 1.350 1_655 S
C2060 C2059 1.434 . S
C2061 C2062 1.369 . S
C2061 C2063 1.419 . S
C2061 H2065 0.930 . S
C2062 C2061 1.369 . S
C2062 C2071 1.429 . S
C2063 C2061 1.419 . S
C2063 C2064 1.363 . S
C2063 H2066 0.929 . S
C2064 C2063 1.363 . S
C2064 C2070 1.428 . S
H2065 C2061 0.930 . S
H2066 C2063 0.929 . S
S2067 N2068 1.613 . S
S2067 N2069 1.610 . S
N2068 S2067 1.613 . S
N2068 C2071 1.350 . S
N2069 S2067 1.610 . S
N2069 C2070 1.351 . S
C2070 C2064 1.428 . S
C2070 N2069 1.351 . S
C2070 C2071 1.434 . S
C2071 C2062 1.429 . S
C2071 N2068 1.350 . S
C2071 C2070 1.434 . S
C2072 C2073 1.364 1_445 S
C2072 C2074 1.424 . S
C2072 H2076 0.930 . S
C2073 C2072 1.364 1_665 S
C2073 C2082 1.439 . S
C2074 C2072 1.424 . S
C2074 C2075 1.352 1_545 S
C2074 H2077 0.937 . S
C2075 C2074 1.352 1_565 S
C2075 C2081 1.428 . S
H2076 C2072 0.930 . S
H2077 C2074 0.937 . S
S2078 N2079 1.613 . S
S2078 N2080 1.610 1_655 S
N2079 S2078 1.613 . S
N2079 C2082 1.350 . S
N2080 S2078 1.610 1_455 S
N2080 C2081 1.351 . S
C2081 C2075 1.428 . S
C2081 N2080 1.351 . S
C2081 C2082 1.434 1_455 S
C2082 C2073 1.439 . S
C2082 N2079 1.350 . S
C2082 C2081 1.434 1_655 S
C2083 C2084 1.369 . S
C2083 C2085 1.419 . S
C2083 H2087 0.930 . S
C2084 C2083 1.369 . S
C2084 C2093 1.429 . S
C2085 C2083 1.419 . S
C2085 C2086 1.363 . S
C2085 H2088 0.929 . S
C2086 C2085 1.363 . S
C2086 C2092 1.428 . S
H2087 C2083 0.930 . S
H2088 C2085 0.929 . S
S2089 N2090 1.613 . S
S2089 N2091 1.610 . S
N2090 S2089 1.613 . S
N2090 C2093 1.350 . S
N2091 S2089 1.610 . S
N2091 C2092 1.351 . S
C2092 C2086 1.428 . S
C2092 N2091 1.351 . S
C2092 C2093 1.434 . S
C2093 C2084 1.429 . S
C2093 N2090 1.350 . S
C2093 C2092 1.434 . S
C2094 C2095 1.369 1_455 S
C2094 C2096 1.419 . S
C2094 H2098 0.930 . S
C2095 C2094 1.369 1_655 S
C2095 C2104 1.429 . S
C2096 C2094 1.419 . S
C2096 C2097 1.363 . S
C2096 H2099 0.929 . S
C2097 C2096 1.363 . S
C2097 C2103 1.428 . S
H2098 C2094 0.930 . S
H2099 C2096 0.929 . S
S2100 N2101 1.613 . S
S2100 N2102 1.610 1_655 S
N2101 S2100 1.613 . S
N2101 C2104 1.350 . S
N2102 S2100 1.610 1_455 S
N2102 C2103 1.351 . S
C2103 C2097 1.428 . S
C2103 N2102 1.351 . S
C2103 C2104 1.434 1_455 S
C2104 C2095 1.429 . S
C2104 N2101 1.350 . S
C2104 C2103 1.434 1_655 S
C2105 C2106 1.378 . S
C2105 C2107 1.419 . S
C2105 H2109 0.930 . S
C2106 C2105 1.378 . S
C2106 C2115 1.422 1_565 S
C2107 C2105 1.419 . S
C2107 C2108 1.363 . S
C2107 H2110 0.929 . S
C2108 C2107 1.363 . S
C2108 C2114 1.428 1_565 S
H2109 C2105 0.930 . S
H2110 C2107 0.929 . S
S2111 N2112 1.613 . S
S2111 N2113 1.610 . S
N2112 S2111 1.613 . S
N2112 C2115 1.350 . S
N2113 S2111 1.610 . S
N2113 C2114 1.351 . S
C2114 C2108 1.428 1_545 S
C2114 N2113 1.351 . S
C2114 C2115 1.434 . S
C2115 C2106 1.422 1_545 S
C2115 N2112 1.350 . S
C2115 C2114 1.434 . S
C2116 C2117 1.369 1_565 S
C2116 C2118 1.419 . S
C2116 H2120 0.930 . S
C2117 C2116 1.369 1_545 S
C2117 C2126 1.429 . S
C2118 C2116 1.419 . S
C2118 C2119 1.346 1_665 S
C2118 H2121 0.929 . S
C2119 C2118 1.346 1_445 S
C2119 C2125 1.453 . S
H2120 C2116 0.930 . S
H2121 C2118 0.929 . S
S2122 N2123 1.613 1_455 S
S2122 N2124 1.610 . S
N2123 S2122 1.613 1_655 S
N2123 C2126 1.350 . S
N2124 S2122 1.610 . S
N2124 C2125 1.351 . S
C2125 C2119 1.453 . S
C2125 N2124 1.351 . S
C2125 C2126 1.434 1_455 S
C2126 C2117 1.429 . S
C2126 N2123 1.350 . S
C2126 C2125 1.434 1_655 S
C2127 C2128 1.369 . S
C2127 C2129 1.419 . S
C2127 H2131 0.930 . S
C2128 C2127 1.369 . S
C2128 C2137 1.429 . S
C2129 C2127 1.419 . S
C2129 C2130 1.363 . S
C2129 H2132 0.929 . S
C2130 C2129 1.363 . S
C2130 C2136 1.428 . S
H2131 C2127 0.930 . S
H2132 C2129 0.929 . S
S2133 N2134 1.613 . S
S2133 N2135 1.610 . S
N2134 S2133 1.613 . S
N2134 C2137 1.350 . S
N2135 S2133 1.610 . S
N2135 C2136 1.351 . S
C2136 C2130 1.428 . S
C2136 N2135 1.351 . S
C2136 C2137 1.434 . S
C2137 C2128 1.429 . S
C2137 N2134 1.350 . S
C2137 C2136 1.434 . S
C2138 C2139 1.369 . S
C2138 C2140 1.419 1_455 S
C2138 H2142 0.930 . S
C2139 C2138 1.369 . S
C2139 C2148 1.429 1_455 S
C2140 C2138 1.419 1_655 S
C2140 C2141 1.363 . S
C2140 H2143 0.929 . S
C2141 C2140 1.363 . S
C2141 C2147 1.428 . S
H2142 C2138 0.930 . S
H2143 C2140 0.929 . S
S2144 N2145 1.613 1_655 S
S2144 N2146 1.610 . S
N2145 S2144 1.613 1_455 S
N2145 C2148 1.350 1_455 S
N2146 S2144 1.610 . S
N2146 C2147 1.351 . S
C2147 C2141 1.428 . S
C2147 N2146 1.351 . S
C2147 C2148 1.434 . S
C2148 C2139 1.429 1_655 S
C2148 N2145 1.350 1_655 S
C2148 C2147 1.434 . S
C2149 C2150 1.369 1_565 S
C2149 C2151 1.419 . S
C2149 H2153 0.930 . S
C2150 C2149 1.369 1_545 S
C2150 C2159 1.429 . S
C2151 C2149 1.419 . S
C2151 C2152 1.363 1_565 S
C2151 H2154 0.929 . S
C2152 C2151 1.363 1_545 S
C2152 C2158 1.428 . S
H2153 C2149 0.930 . S
H2154 C2151 0.929 . S
S2155 N2156 1.613 . S
S2155 N2157 1.610 . S
N2156 S2155 1.613 . S
N2156 C2159 1.350 . S
N2157 S2155 1.610 . S
N2157 C2158 1.351 . S
C2158 C2152 1.428 . S
C2158 N2157 1.351 . S
C2158 C2159 1.434 . S
C2159 C2150 1.429 . S
C2159 N2156 1.350 . S
C2159 C2158 1.434 . S
C2160 C2161 1.369 1_655 S
C2160 C2162 1.419 1_554 S
C2160 H2164 0.930 . S
C2161 C2160 1.369 1_455 S
C2161 C2170 1.429 . S
C2162 C2160 1.419 1_556 S
C2162 C2163 1.363 . S
C2162 H2165 0.929 . S
C2163 C2162 1.363 . S
C2163 C2169 1.428 1_655 S
H2164 C2160 0.930 . S
H2165 C2162 0.929 . S
S2166 N2167 1.613 . S
S2166 N2168 1.610 1_554 S
N2167 S2166 1.613 . S
N2167 C2170 1.350 . S
N2168 S2166 1.610 1_556 S
N2168 C2169 1.351 . S
C2169 C2163 1.428 1_455 S
C2169 N2168 1.351 . S
C2169 C2170 1.434 1_556 S
C2170 C2161 1.429 . S
C2170 N2167 1.350 . S
C2170 C2169 1.434 1_554 S
C2171 C2172 1.369 . S
C2171 C2173 1.419 1_556 S
C2171 H2175 0.930 . S
C2172 C2171 1.369 . S
C2172 C2181 1.429 . S
C2173 C2171 1.419 1_554 S
C2173 C2174 1.363 . S
C2173 H2176 0.929 . S
C2174 C2173 1.363 . S
C2174 C2180 1.428 . S
H2175 C2171 0.930 . S
H2176 C2173 0.929 . S
S2177 N2178 1.613 . S
S2177 N2179 1.610 1_556 S
N2178 S2177 1.613 . S
N2178 C2181 1.350 . S
N2179 S2177 1.610 1_554 S
N2179 C2180 1.351 . S
C2180 C2174 1.428 . S
C2180 N2179 1.351 . S
C2180 C2181 1.434 1_554 S
C2181 C2172 1.429 . S
C2181 N2178 1.350 . S
C2181 C2180 1.434 1_556 S
C2182 C2183 1.369 1_455 S
C2182 C2184 1.419 . S
C2182 H2186 0.930 . S
C2183 C2182 1.369 1_655 S
C2183 C2192 1.429 . S
C2184 C2182 1.419 . S
C2184 C2185 1.363 . S
C2184 H2187 0.929 . S
C2185 C2184 1.363 . S
C2185 C2191 1.428 1_455 S
H2186 C2182 0.930 . S
H2187 C2184 0.929 . S
S2188 N2189 1.613 . S
S2188 N2190 1.610 . S
N2189 S2188 1.613 . S
N2189 C2192 1.350 . S
N2190 S2188 1.610 . S
N2190 C2191 1.351 . S
C2191 C2185 1.428 1_655 S
C2191 N2190 1.351 . S
C2191 C2192 1.434 . S
C2192 C2183 1.429 . S
C2192 N2189 1.350 . S
C2192 C2191 1.434 . S
C2193 C2194 1.369 . S
C2193 C2195 1.419 . S
C2193 H2197 0.930 . S
C2194 C2193 1.369 . S
C2194 C2203 1.429 . S
C2195 C2193 1.419 . S
C2195 C2196 1.363 . S
C2195 H2198 0.929 . S
C2196 C2195 1.363 . S
C2196 C2202 1.428 . S
H2197 C2193 0.930 . S
H2198 C2195 0.929 . S
S2199 N2200 1.613 . S
S2199 N2201 1.610 . S
N2200 S2199 1.613 . S
N2200 C2203 1.350 . S
N2201 S2199 1.610 . S
N2201 C2202 1.351 . S
C2202 C2196 1.428 . S
C2202 N2201 1.351 . S
C2202 C2203 1.434 . S
C2203 C2194 1.429 . S
C2203 N2200 1.350 . S
C2203 C2202 1.434 . S
C2204 C2205 1.369 . S
C2204 C2206 1.419 1_556 S
C2204 H2208 0.930 . S
C2205 C2204 1.369 . S
C2205 C2214 1.429 . S
C2206 C2204 1.419 1_554 S
C2206 C2207 1.363 . S
C2206 H2209 0.929 . S
C2207 C2206 1.363 . S
C2207 C2213 1.428 . S
H2208 C2204 0.930 . S
H2209 C2206 0.929 . S
S2210 N2211 1.613 . S
S2210 N2212 1.610 1_556 S
N2211 S2210 1.613 . S
N2211 C2214 1.350 . S
N2212 S2210 1.610 1_554 S
N2212 C2213 1.351 . S
C2213 C2207 1.428 . S
C2213 N2212 1.351 . S
C2213 C2214 1.434 1_554 S
C2214 C2205 1.429 . S
C2214 N2211 1.350 . S
C2214 C2213 1.434 1_556 S
C2215 C2216 1.369 1_455 S
C2215 C2217 1.419 . S
C2215 H2219 0.930 . S
C2216 C2215 1.369 1_655 S
C2216 C2225 1.429 . S
C2217 C2215 1.419 . S
C2217 C2218 1.363 . S
C2217 H2220 0.929 . S
C2218 C2217 1.363 . S
C2218 C2224 1.428 1_455 S
H2219 C2215 0.930 . S
H2220 C2217 0.929 . S
S2221 N2222 1.613 . S
S2221 N2223 1.610 . S
N2222 S2221 1.613 . S
N2222 C2225 1.350 . S
N2223 S2221 1.610 . S
N2223 C2224 1.351 . S
C2224 C2218 1.428 1_655 S
C2224 N2223 1.351 . S
C2224 C2225 1.434 . S
C2225 C2216 1.429 . S
C2225 N2222 1.350 . S
C2225 C2224 1.434 . S
C2226 C2227 1.369 . S
C2226 C2228 1.419 . S
C2226 H2230 0.930 . S
C2227 C2226 1.369 . S
C2227 C2236 1.429 . S
C2228 C2226 1.419 . S
C2228 C2229 1.363 . S
C2228 H2231 0.929 . S
C2229 C2228 1.363 . S
C2229 C2235 1.428 . S
H2230 C2226 0.930 . S
H2231 C2228 0.929 . S
S2232 N2233 1.613 . S
S2232 N2234 1.610 . S
N2233 S2232 1.613 . S
N2233 C2236 1.350 . S
N2234 S2232 1.610 . S
N2234 C2235 1.351 . S
C2235 C2229 1.428 . S
C2235 N2234 1.351 . S
C2235 C2236 1.434 . S
C2236 C2227 1.429 . S
C2236 N2233 1.350 . S
C2236 C2235 1.434 . S
C2237 C2238 1.369 1_655 S
C2237 C2239 1.419 . S
C2237 H2241 0.930 . S
C2238 C2237 1.369 1_455 S
C2238 C2247 1.429 1_565 S
C2239 C2237 1.419 . S
C2239 C2240 1.363 1_565 S
C2239 H2242 0.929 . S
C2240 C2239 1.363 1_545 S
C2240 C2246 1.428 1_655 S
H2241 C2237 0.930 . S
H2242 C2239 0.929 . S
S2243 N2244 1.613 . S
S2243 N2245 1.610 . S
N2244 S2243 1.613 . S
N2244 C2247 1.350 . S
N2245 S2243 1.610 . S
N2245 C2246 1.351 . S
C2246 C2240 1.428 1_455 S
C2246 N2245 1.351 . S
C2246 C2247 1.434 . S
C2247 C2238 1.429 1_545 S
C2247 N2244 1.350 . S
C2247 C2246 1.434 . S
C2248 C2249 1.369 . S
C2248 C2250 1.419 . S
C2248 H2252 0.930 . S
C2249 C2248 1.369 . S
C2249 C2258 1.429 . S
C2250 C2248 1.419 . S
C2250 C2251 1.363 . S
C2250 H2253 0.929 . S
C2251 C2250 1.363 . S
C2251 C2257 1.428 . S
H2252 C2248 0.930 . S
H2253 C2250 0.929 . S
S2254 N2255 1.613 . S
S2254 N2256 1.610 . S
N2255 S2254 1.613 . S
N2255 C2258 1.350 . S
N2256 S2254 1.610 . S
N2256 C2257 1.351 . S
C2257 C2251 1.428 . S
C2257 N2256 1.351 . S
C2257 C2258 1.434 . S
C2258 C2249 1.429 . S
C2258 N2255 1.350 . S
C2258 C2257 1.434 . S
C2259 C2260 1.369 1_565 S
C2259 C2261 1.419 . S
C2259 H2263 0.930 . S
C2260 C2259 1.369 1_545 S
C2260 C2269 1.429 . S
C2261 C2259 1.419 . S
C2261 C2262 1.363 . S
C2261 H2264 0.929 . S
C2262 C2261 1.363 . S
C2262 C2268 1.428 1_565 S
H2263 C2259 0.930 . S
H2264 C2261 0.929 . S
S2265 N2266 1.613 . S
S2265 N2267 1.610 . S
N2266 S2265 1.613 . S
N2266 C2269 1.350 . S
N2267 S2265 1.610 . S
N2267 C2268 1.351 . S
C2268 C2262 1.428 1_545 S
C2268 N2267 1.351 . S
C2268 C2269 1.434 . S
C2269 C2260 1.429 . S
C2269 N2266 1.350 . S
C2269 C2268 1.434 . S
C2270 C2271 1.369 . S
C2270 C2272 1.419 . S
C2270 H2274 0.930 . S
C2271 C2270 1.369 . S
C2271 C2280 1.429 . S
C2272 C2270 1.419 . S
C2272 C2273 1.363 . S
C2272 H2275 0.929 . S
C2273 C2272 1.363 . S
C2273 C2279 1.428 . S
H2274 C2270 0.930 . S
H2275 C2272 0.929 . S
S2276 N2277 1.613 . S
S2276 N2278 1.610 . S
N2277 S2276 1.613 . S
N2277 C2280 1.350 . S
N2278 S2276 1.610 . S
N2278 C2279 1.351 . S
C2279 C2273 1.428 . S
C2279 N2278 1.351 . S
C2279 C2280 1.434 . S
C2280 C2271 1.429 . S
C2280 N2277 1.350 . S
C2280 C2279 1.434 . S
C2281 C2282 1.369 . S
C2281 C2283 1.419 . S
C2281 H2285 0.930 . S
C2282 C2281 1.369 . S
C2282 C2291 1.429 1_565 S
C2283 C2281 1.419 . S
C2283 C2284 1.363 1_565 S
C2283 H2286 0.929 . S
C2284 C2283 1.363 1_545 S
C2284 C2290 1.428 . S
H2285 C2281 0.930 . S
H2286 C2283 0.929 . S
S2287 N2288 1.613 . S
S2287 N2289 1.610 . S
N2288 S2287 1.613 . S
N2288 C2291 1.350 . S
N2289 S2287 1.610 . S
N2289 C2290 1.351 . S
C2290 C2284 1.428 . S
C2290 N2289 1.351 . S
C2290 C2291 1.434 . S
C2291 C2282 1.429 1_545 S
C2291 N2288 1.350 . S
C2291 C2290 1.434 . S
C2292 C2293 1.369 . S
C2292 C2294 1.419 . S
C2292 H2296 0.930 . S
C2293 C2292 1.369 . S
C2293 C2302 1.429 . S
C2294 C2292 1.419 . S
C2294 C2295 1.363 . S
C2294 H2297 0.929 . S
C2295 C2294 1.363 . S
C2295 C2301 1.428 . S
H2296 C2292 0.930 . S
H2297 C2294 0.929 . S
S2298 N2299 1.613 . S
S2298 N2300 1.610 . S
N2299 S2298 1.613 . S
N2299 C2302 1.350 . S
N2300 S2298 1.610 . S
N2300 C2301 1.351 . S
C2301 C2295 1.428 . S
C2301 N2300 1.351 . S
C2301 C2302 1.434 . S
C2302 C2293 1.429 . S
C2302 N2299 1.350 . S
C2302 C2301 1.434 . S
C2303 C2304 1.369 . S
C2303 C2305 1.419 . S
C2303 H2307 0.930 . S
C2304 C2303 1.369 . S
C2304 C2313 1.429 . S
C2305 C2303 1.419 . S
C2305 C2306 1.363 . S
C2305 H2308 0.929 . S
C2306 C2305 1.363 . S
C2306 C2312 1.428 . S
H2307 C2303 0.930 . S
H2308 C2305 0.929 . S
S2309 N2310 1.613 . S
S2309 N2311 1.610 . S
N2310 S2309 1.613 . S
N2310 C2313 1.350 . S
N2311 S2309 1.610 . S
N2311 C2312 1.351 . S
C2312 C2306 1.428 . S
C2312 N2311 1.351 . S
C2312 C2313 1.434 . S
C2313 C2304 1.429 . S
C2313 N2310 1.350 . S
C2313 C2312 1.434 . S
C2314 C2315 1.369 . S
C2314 C2316 1.419 . S
C2314 H2318 0.930 . S
C2315 C2314 1.369 . S
C2315 C2324 1.429 . S
C2316 C2314 1.419 . S
C2316 C2317 1.363 . S
C2316 H2319 0.929 . S
C2317 C2316 1.363 . S
C2317 C2323 1.428 . S
H2318 C2314 0.930 . S
H2319 C2316 0.929 . S
S2320 N2321 1.613 . S
S2320 N2322 1.610 . S
N2321 S2320 1.613 . S
N2321 C2324 1.350 . S
N2322 S2320 1.610 . S
N2322 C2323 1.351 . S
C2323 C2317 1.428 . S
C2323 N2322 1.351 . S
C2323 C2324 1.434 . S
C2324 C2315 1.429 . S
C2324 N2321 1.350 . S
C2324 C2323 1.434 . S
C2325 C2326 1.369 . S
C2325 C2327 1.419 1_554 S
C2325 H2329 0.930 . S
C2326 C2325 1.369 . S
C2326 C2335 1.429 1_565 S
C2327 C2325 1.419 1_556 S
C2327 C2328 1.363 1_565 S
C2327 H2330 0.929 . S
C2328 C2327 1.363 1_545 S
C2328 C2334 1.428 . S
H2329 C2325 0.930 . S
H2330 C2327 0.929 . S
S2331 N2332 1.595 1_556 S
S2331 N2333 1.628 . S
N2332 S2331 1.595 1_554 S
N2332 C2335 1.350 . S
N2333 S2331 1.628 . S
N2333 C2334 1.351 . S
C2334 C2328 1.428 . S
C2334 N2333 1.351 . S
C2334 C2335 1.434 1_556 S
C2335 C2326 1.429 1_545 S
C2335 N2332 1.350 . S
C2335 C2334 1.434 1_554 S
C1281 C2 1.653 . S
C1283 C1002 1.654 . S
C1292 C962 1.653 . S
C1294 C42 1.654 . S
C1303 C1082 1.655 . S
C1305 C82 1.656 . S
C1314 C122 1.653 . S
C1316 C1042 1.654 . S
C1325 C171 1.654 . S
C1327 C1171 1.654 . S
C1336 C211 1.655 . S
C1338 C1131 1.653 . S
C1347 C251 1.654 . S
C1349 C1251 1.655 . S
C1358 C1211 1.656 . S
C1360 C291 1.655 . S
C1369 C322 1.656 . S
C1371 C682 1.656 . S
C1380 C362 1.656 . S
C1382 C642 1.655 . S
C1391 C402 1.654 . S
C1393 C762 1.655 . S
C1402 C722 1.653 . S
C1404 C442 1.655 . S
C1413 C491 1.656 . S
C1415 C851 1.655 . S
C1424 C531 1.654 . S
C1426 C811 1.655 . S
C1435 C931 1.654 . S
C1437 C571 1.654 . S
C1446 C611 1.656 . S
C1448 C891 1.655 . S
C1457 C10 1.700 . S
C1459 C130 1.700 . S
C1468 C50 1.702 . S
C1470 C90 1.702 . S
C1479 C299 1.702 . S
C1481 C179 1.703 . S
C1490 C259 1.701 . S
C1492 C219 1.700 . S
C1501 C330 1.700 . S
C1503 C450 1.699 . S
C1512 C370 1.699 . S
C1514 C410 1.699 . S
C1523 C499 1.698 . S
C1525 C619 1.699 . S
C1534 C579 1.699 . S
C1536 C539 1.700 . S
C1545 C650 1.699 . S
C1547 C770 1.700 . S
C1556 C690 1.700 . S
C1558 C730 1.701 . S
C1567 C939 1.702 . S
C1569 C819 1.703 . S
C1578 C859 1.699 . S
C1580 C899 1.699 . S
C1589 C1090 1.700 . S
C1591 C970 1.699 . S
C1600 C1010 1.701 . S
C1602 C1050 1.700 . S
C1611 C1259 1.698 . S
C1613 C1139 1.700 . S
C1622 C1219 1.701 . S
C1624 C1179 1.700 . S
C1633 C51 1.531 . S
C1635 C11 1.522 . S
C1644 C91 1.525 . S
C1646 C131 1.524 . S
C1655 C202 1.525 . S
C1657 C162 1.529 . S
C1666 C282 1.521 . S
C1668 C242 1.528 . S
C1677 C331 1.524 . S
C1679 C371 1.524 . S
C1688 C411 1.527 . S
C1690 C451 1.525 . S
C1699 C522 1.520 . S
C1701 C482 1.529 . S
C1710 C562 1.527 . S
C1712 C602 1.521 . S
C1721 C651 1.525 . S
C1723 C691 1.528 . S
C1732 C771 1.525 . S
C1734 C731 1.524 . S
C1743 C802 1.526 . S
C1745 C842 1.523 . S
C1754 C882 1.525 . S
C1756 C922 1.529 . S
C1765 C971 1.527 . S
C1767 C1011 1.525 . S
C1776 C1051 1.529 . S
C1778 C1091 1.524 . S
C1787 C1162 1.523 . S
C1789 C1122 1.523 . S
C1798 C1202 1.524 . S
C1800 C1242 1.523 . S
C1809 C7 1.617 . S
C1811 C16 1.615 . S
C1820 C47 1.613 . S
C1822 C56 1.618 . S
C1831 C87 1.615 . S
C1833 C96 1.616 . S
C1842 C136 1.616 . S
C1844 C127 1.616 . S
C1853 C167 1.617 . S
C1855 C176 1.615 . S
C1864 C216 1.617 . S
C1866 C207 1.614 . S
C1875 C247 1.619 . S
C1877 C256 1.613 . S
C1886 C287 1.617 . S
C1888 C296 1.614 . S
C1897 C336 1.614 1_565 S
C1899 C327 1.616 . S
C1908 C367 1.616 . S
C1910 C376 1.616 . S
C1919 C407 1.619 . S
C1921 C416 1.613 . S
C1930 C456 1.619 1_565 S
C1932 C447 1.613 . S
C1941 C487 1.611 1_545 S
C1943 C496 1.618 . S
C1952 C536 1.616 . S
C1954 C527 1.615 . S
C1963 C576 1.617 . S
C1965 C567 1.615 . S
C1974 C607 1.612 1_545 S
C1976 C616 1.618 . S
C1985 C647 1.618 . S
C1987 C656 1.614 . S
C1996 C696 1.617 . S
C1998 C687 1.614 . S
C2007 C736 1.619 . S
C2009 C727 1.613 . S
C2018 C767 1.612 . S
C2020 C776 1.619 . S
C2029 C816 1.619 . S
C2031 C807 1.613 . S
C2040 C856 1.619 . S
C2042 C847 1.613 . S
C2051 C887 1.618 . S
C2053 C896 1.614 . S
C2062 C936 1.619 . S
C2064 C927 1.613 . S
C2073 C976 1.611 1_565 S
C2075 C967 1.618 . S
C2084 C1007 1.614 . S
C2086 C1016 1.617 . S
C2095 C1056 1.612 . S
C2097 C1047 1.619 . S
C2106 C1096 1.619 1_565 S
C2108 C1087 1.613 . S
C2117 C1136 1.619 . S
C2119 C1127 1.611 1_545 S
C2128 C1176 1.618 . S
C2130 C1167 1.614 . S
C2139 C1207 1.616 . S
C2141 C1216 1.615 . S
C2150 C1247 1.612 1_545 S
C2152 C1256 1.618 . S
C2161 C19 1.487 . S
C2163 C170 1.487 . S
C2172 C1170 1.493 . S
C2174 C59 1.485 . S
C2183 C570 1.486 . S
C2185 C99 1.490 . S
C2194 C139 1.485 . S
C2196 C930 1.489 . S
C2205 C210 1.493 . S
C2207 C1019 1.485 . S
C2216 C250 1.484 . S
C2218 C419 1.492 . S
C2227 C290 1.490 . S
C2229 C779 1.485 . S
C2238 C339 1.486 . S
C2240 C490 1.490 . S
C2249 C850 1.485 . S
C2251 C379 1.492 . S
C2260 C1250 1.493 . S
C2262 C459 1.485 . S
C2271 C530 1.485 . S
C2273 C699 1.491 . S
C2282 C1099 1.490 . S
C2284 C610 1.488 . S
C2293 C659 1.485 . S
C2295 C810 1.488 . S
C2304 C1210 1.487 . S
C2306 C739 1.489 . S
C2315 C890 1.488 . S
C2317 C1059 1.488 . S
C2326 C979 1.487 . S
C2328 C1130 1.490 . S
