# Generated by pormake.
# Topology ske, (6)-cn, num edge types: 1
# Building blocks:
#     Node 0, Type 0, BuildingBlock: HISSIN_clean_sbu_0, # of connection points: 6
#     Node 1, Type 0, BuildingBlock: HISSIN_clean_sbu_0, # of connection points: 6
#     Node 2, Type 0, BuildingBlock: HISSIN_clean_sbu_0, # of connection points: 6
#     Node 3, Type 0, BuildingBlock: HISSIN_clean_sbu_0, # of connection points: 6
#     Node 4, Type 0, BuildingBlock: HISSIN_clean_sbu_0, # of connection points: 6
#     Node 5, Type 0, BuildingBlock: HISSIN_clean_sbu_0, # of connection points: 6
#     Node 6, Type 0, BuildingBlock: HISSIN_clean_sbu_0, # of connection points: 6
#     Node 7, Type 0, BuildingBlock: HISSIN_clean_sbu_0, # of connection points: 6
#     Edge 8, Type (0, 0), BuildingBlock: XUDNAN_clean_linker_2, # of connection points: 2
#     Edge 9, Type (0, 0), BuildingBlock: XUDNAN_clean_linker_2, # of connection points: 2
#     Edge 10, Type (0, 0), BuildingBlock: XUDNAN_clean_linker_2, # of connection points: 2
#     Edge 11, Type (0, 0), BuildingBlock: XUDNAN_clean_linker_2, # of connection points: 2
#     Edge 12, Type (0, 0), BuildingBlock: XUDNAN_clean_linker_2, # of connection points: 2
#     Edge 13, Type (0, 0), BuildingBlock: XUDNAN_clean_linker_2, # of connection points: 2
#     Edge 14, Type (0, 0), BuildingBlock: XUDNAN_clean_linker_2, # of connection points: 2
#     Edge 15, Type (0, 0), BuildingBlock: XUDNAN_clean_linker_2, # of connection points: 2
#     Edge 16, Type (0, 0), BuildingBlock: XUDNAN_clean_linker_2, # of connection points: 2
#     Edge 17, Type (0, 0), BuildingBlock: XUDNAN_clean_linker_2, # of connection points: 2
#     Edge 18, Type (0, 0), BuildingBlock: XUDNAN_clean_linker_2, # of connection points: 2
#     Edge 19, Type (0, 0), BuildingBlock: XUDNAN_clean_linker_2, # of connection points: 2
#     Edge 20, Type (0, 0), BuildingBlock: XUDNAN_clean_linker_2, # of connection points: 2
#     Edge 21, Type (0, 0), BuildingBlock: XUDNAN_clean_linker_2, # of connection points: 2
#     Edge 22, Type (0, 0), BuildingBlock: XUDNAN_clean_linker_2, # of connection points: 2
#     Edge 23, Type (0, 0), BuildingBlock: XUDNAN_clean_linker_2, # of connection points: 2
#     Edge 24, Type (0, 0), BuildingBlock: XUDNAN_clean_linker_2, # of connection points: 2
#     Edge 25, Type (0, 0), BuildingBlock: XUDNAN_clean_linker_2, # of connection points: 2
#     Edge 26, Type (0, 0), BuildingBlock: XUDNAN_clean_linker_2, # of connection points: 2
#     Edge 27, Type (0, 0), BuildingBlock: XUDNAN_clean_linker_2, # of connection points: 2
#     Edge 28, Type (0, 0), BuildingBlock: XUDNAN_clean_linker_2, # of connection points: 2
#     Edge 29, Type (0, 0), BuildingBlock: XUDNAN_clean_linker_2, # of connection points: 2
#     Edge 30, Type (0, 0), BuildingBlock: XUDNAN_clean_linker_2, # of connection points: 2
#     Edge 31, Type (0, 0), BuildingBlock: XUDNAN_clean_linker_2, # of connection points: 2
# Relax obj value: 0.191
# Max RMSD: 0.201
# Mean RMSD: 0.194
data_MOF--net-ske--node1-HISSIN_clean_sbu_0--edge1-XUDNAN_clean_linker_2
_symmetry_space_group_name_H-M    P1
_symmetry_Int_Tables_number       1
_symmetry_cell_setting            triclinic
loop_
_symmetry_equiv_pos_as_xyz
'x, y, z'
_cell_length_a     104.70771
_cell_length_b     30.066569
_cell_length_c     15.408974
_cell_angle_alpha  90.205664
_cell_angle_beta   89.939538
_cell_angle_gamma 97.644016
loop_
_atom_site_label
_atom_site_type_symbol
_atom_site_fract_x
_atom_site_fract_y
_atom_site_fract_z
_atom_type_partial_charge
Eu0 Eu 0.11798 0.25486 0.58398 0.0
Eu1 Eu 0.1497 0.24482 0.57656 0.0
C2 C 0.13935 0.33953 0.562 0.0
C3 C 0.07987 0.25438 0.56872 0.0
C4 C 0.07578 0.27009 0.48891 0.0
C5 C 0.0574 0.23198 0.60839 0.0
C6 C 0.06259 0.26723 0.4696 0.0
C7 C 0.07054 0.23465 0.62741 0.0
C8 C 0.05323 0.24905 0.53004 0.0
C9 C 0.09347 0.26352 0.59795 0.0
O10 O 0.14615 0.26439 0.71361 0.0
O11 O 0.12412 0.24671 0.72406 0.0
C12 C 0.13555 0.25705 0.75988 0.0
O13 O 0.11986 0.18335 0.54818 0.0
O14 O 0.1697 0.27642 0.58569 0.0
O15 O 0.16558 0.20582 0.55244 0.0
O16 O 0.1391 0.17792 0.61614 0.0
C17 C 0.12831 0.15921 0.58038 0.0
O18 O 0.12329 0.26142 0.44053 0.0
O19 O 0.14235 0.23045 0.44181 0.0
O20 O 0.14693 0.31307 0.52694 0.0
O21 O 0.09872 0.23144 0.63492 0.0
O22 O 0.10172 0.29064 0.55308 0.0
O23 O 0.1291 0.32333 0.60657 0.0
C24 C 0.18632 0.23142 0.61483 0.0
C25 C 0.18757 0.19008 0.6541 0.0
C26 C 0.2089 0.25674 0.64684 0.0
C27 C 0.19945 0.18205 0.68858 0.0
C28 C 0.19706 0.26473 0.61262 0.0
C29 C 0.21034 0.21507 0.68422 0.0
C30 C 0.17449 0.23955 0.56811 0.0
C31 C 0.13302 0.24649 0.40018 0.0
H32 H 0.08272 0.28593 0.44264 0.0
H33 H 0.05049 0.21714 0.65585 0.0
H34 H 0.05972 0.28097 0.40887 0.0
H35 H 0.07341 0.22267 0.68977 0.0
H36 H 0.17947 0.16366 0.65658 0.0
H37 H 0.21706 0.28276 0.64081 0.0
H38 H 0.20014 0.14977 0.71786 0.0
H39 H 0.19641 0.29667 0.5817 0.0
Eu40 Eu 0.89751 0.27842 0.59201 0.0
Eu41 Eu 0.86573 0.24207 0.58712 0.0
C42 C 0.88737 0.17541 0.55264 0.0
C43 C 0.93522 0.29733 0.5807 0.0
C44 C 0.93711 0.25997 0.52966 0.0
C45 C 0.95845 0.31775 0.58995 0.0
C46 C 0.94964 0.2515 0.50918 0.0
C47 C 0.94597 0.32622 0.61 0.0
C48 C 0.96048 0.28006 0.53996 0.0
C49 C 0.92229 0.30587 0.60861 0.0
O50 O 0.8706 0.26292 0.72672 0.0
O51 O 0.8911 0.24593 0.71851 0.0
C52 C 0.88128 0.25502 0.76494 0.0
O53 O 0.88769 0.33829 0.62839 0.0
O54 O 0.84965 0.19385 0.63309 0.0
O55 O 0.84612 0.24506 0.54085 0.0
O56 O 0.86771 0.31666 0.56836 0.0
C57 C 0.87661 0.34776 0.59854 0.0
O58 O 0.89172 0.28483 0.45278 0.0
O59 O 0.87211 0.23938 0.44584 0.0
O60 O 0.87628 0.1811 0.58862 0.0
O61 O 0.91495 0.32216 0.55184 0.0
O62 O 0.91583 0.2756 0.6576 0.0
O63 O 0.8962 0.20931 0.53447 0.0
C64 C 0.82846 0.21459 0.63097 0.0
C65 C 0.82422 0.25575 0.65217 0.0
C66 C 0.80803 0.17557 0.6826 0.0
C67 C 0.81191 0.25669 0.68835 0.0
C68 C 0.82025 0.17468 0.64662 0.0
C69 C 0.80367 0.21652 0.7042 0.0
C70 C 0.84103 0.21162 0.5887 0.0
C71 C 0.88221 0.26255 0.40816 0.0
H72 H 0.92892 0.23709 0.50687 0.0
H73 H 0.96653 0.34088 0.61352 0.0
H74 H 0.95084 0.22201 0.47107 0.0
H75 H 0.94471 0.35521 0.64955 0.0
H76 H 0.83036 0.28708 0.64053 0.0
H77 H 0.80191 0.144 0.69213 0.0
H78 H 0.80892 0.2888 0.70476 0.0
H79 H 0.82324 0.14258 0.62991 0.0
Eu80 Eu 0.15235 0.76929 0.46588 0.0
Eu81 Eu 0.12025 0.73275 0.46398 0.0
C82 C 0.14125 0.66322 0.47046 0.0
C83 C 0.18986 0.7942 0.42621 0.0
C84 C 0.19313 0.75265 0.39784 0.0
C85 C 0.2114 0.82928 0.38775 0.0
C86 C 0.2055 0.74959 0.36422 0.0
C87 C 0.19913 0.83225 0.42116 0.0
C88 C 0.21477 0.78806 0.35799 0.0
C89 C 0.17706 0.79962 0.4626 0.0
O90 O 0.12634 0.73067 0.60616 0.0
O91 O 0.14563 0.77804 0.60217 0.0
C92 C 0.13629 0.75407 0.64524 0.0
O93 O 0.14203 0.83046 0.45141 0.0
O94 O 0.103 0.68829 0.50541 0.0
O95 O 0.10156 0.73756 0.40493 0.0
O96 O 0.12193 0.80456 0.50606 0.0
C97 C 0.13078 0.83743 0.48316 0.0
O98 O 0.14782 0.73959 0.33447 0.0
O99 O 0.12658 0.74953 0.32456 0.0
O100 O 0.12995 0.67127 0.4419 0.0
O101 O 0.16861 0.81335 0.41037 0.0
O102 O 0.17181 0.76996 0.5181 0.0
O103 O 0.15043 0.69523 0.49369 0.0
C104 C 0.08216 0.71263 0.48336 0.0
C105 C 0.07448 0.7374 0.43252 0.0
C106 C 0.06341 0.68952 0.57481 0.0
C107 C 0.0614 0.73768 0.45166 0.0
C108 C 0.0765 0.6892 0.55555 0.0
C109 C 0.0556 0.71296 0.52198 0.0
C110 C 0.09533 0.7064 0.45334 0.0
C111 C 0.1376 0.74371 0.2878 0.0
H112 H 0.18612 0.72276 0.40127 0.0
H113 H 0.21831 0.85946 0.3858 0.0
H114 H 0.20772 0.71736 0.34155 0.0
H115 H 0.19688 0.86456 0.44335 0.0
H116 H 0.07843 0.75519 0.37549 0.0
H117 H 0.05935 0.67061 0.63026 0.0
H118 H 0.05573 0.75563 0.40866 0.0
H119 H 0.08206 0.66936 0.59565 0.0
Eu120 Eu 0.86732 0.76295 0.47256 0.0
Eu121 Eu 0.89929 0.75967 0.46416 0.0
C122 C 0.88721 0.85116 0.46734 0.0
C123 C 0.82952 0.75378 0.437 0.0
C124 C 0.82497 0.77969 0.3707 0.0
C125 C 0.80817 0.71011 0.44476 0.0
C126 C 0.81215 0.77107 0.34224 0.0
C127 C 0.82096 0.71871 0.47312 0.0
C128 C 0.80352 0.73648 0.37963 0.0
C129 C 0.84241 0.76674 0.47712 0.0
O130 O 0.89558 0.76967 0.60543 0.0
O131 O 0.87328 0.75824 0.61405 0.0
C132 C 0.8848 0.76406 0.65047 0.0
O133 O 0.87061 0.69102 0.45349 0.0
O134 O 0.91895 0.7941 0.48073 0.0
O135 O 0.91582 0.72853 0.41889 0.0
O136 O 0.89048 0.6929 0.51812 0.0
C137 C 0.87936 0.67085 0.49334 0.0
O138 O 0.8731 0.77117 0.32984 0.0
O139 O 0.89082 0.73447 0.33763 0.0
O140 O 0.89482 0.82807 0.42319 0.0
O141 O 0.84795 0.73581 0.51578 0.0
O142 O 0.85071 0.79641 0.43828 0.0
O143 O 0.8774 0.83062 0.51054 0.0
C144 C 0.93716 0.75376 0.46995 0.0
C145 C 0.93912 0.72572 0.5399 0.0
C146 C 0.96024 0.7645 0.44208 0.0
C147 C 0.95164 0.71702 0.56059 0.0
C148 C 0.94781 0.77324 0.42187 0.0
C149 C 0.96238 0.7361 0.51147 0.0
C150 C 0.92423 0.76241 0.44219 0.0
C151 C 0.88228 0.75217 0.29186 0.0
H152 H 0.83122 0.80741 0.34221 0.0
H153 H 0.80181 0.68369 0.47632 0.0
H154 H 0.80897 0.79177 0.29131 0.0
H155 H 0.82403 0.69874 0.52563 0.0
H156 H 0.93101 0.71034 0.57786 0.0
H157 H 0.96814 0.77914 0.40147 0.0
H158 H 0.95288 0.69537 0.61506 0.0
H159 H 0.94649 0.79476 0.36722 0.0
Eu160 Eu 0.61803 0.74856 0.11565 0.0
Eu161 Eu 0.65041 0.75238 0.10883 0.0
C162 C 0.63677 0.84127 0.11171 0.0
C163 C 0.58001 0.7496 0.09581 0.0
C164 C 0.57724 0.79183 0.06853 0.0
C165 C 0.55729 0.72018 0.0797 0.0
C166 C 0.56455 0.79816 0.04745 0.0
C167 C 0.56994 0.71385 0.10016 0.0
C168 C 0.55438 0.76252 0.05409 0.0
C169 C 0.59286 0.74235 0.12873 0.0
O170 O 0.64488 0.73169 0.2445 0.0
O171 O 0.62512 0.75704 0.25544 0.0
C172 C 0.6353 0.74299 0.29119 0.0
O173 O 0.62294 0.67906 0.13978 0.0
O174 O 0.66984 0.79077 0.10563 0.0
O175 O 0.66743 0.71828 0.09711 0.0
O176 O 0.64158 0.68451 0.06083 0.0
C177 C 0.63151 0.66041 0.09524 0.0
O178 O 0.62291 0.74054 0.97238 0.0
O179 O 0.64445 0.76993 0.97514 0.0
O180 O 0.64558 0.82034 0.14861 0.0
O181 O 0.59881 0.71183 0.09184 0.0
O182 O 0.60076 0.77652 0.15729 0.0
O183 O 0.62617 0.81916 0.07927 0.0
C184 C 0.68781 0.75368 0.14767 0.0
C185 C 0.68888 0.72267 0.21441 0.0
C186 C 0.71109 0.77511 0.15261 0.0
C187 C 0.70099 0.71725 0.24849 0.0
C188 C 0.69899 0.78047 0.11856 0.0
C189 C 0.71231 0.74262 0.21652 0.0
C190 C 0.67558 0.75496 0.10001 0.0
C191 C 0.63388 0.75472 0.9326 0.0
H192 H 0.5848 0.82012 0.06531 0.0
H193 H 0.54977 0.69184 0.08427 0.0
H194 H 0.56265 0.8313 1.02849 0.0
H195 H 0.5718 0.68104 0.12162 0.0
H196 H 0.68041 0.70159 0.23826 0.0
H197 H 0.71955 0.79498 0.12574 0.0
H198 H 0.70152 0.69247 0.29874 0.0
H199 H 0.69843 0.80434 0.06662 0.0
Eu200 Eu 0.39615 0.76033 0.09343 0.0
Eu201 Eu 0.36423 0.72615 0.09061 0.0
C202 C 0.38472 0.65467 0.08167 0.0
C203 C 0.43425 0.784 0.07592 0.0
C204 C 0.43967 0.74432 0.0907 0.0
C205 C 0.45513 0.81958 1.02446 0.0
C206 C 0.45276 0.74247 0.07283 0.0
C207 C 0.44211 0.82136 0.04213 0.0
C208 C 0.46071 0.78024 0.04 0.0
C209 C 0.42091 0.78937 0.10238 0.0
O210 O 0.37082 0.72167 0.2311 0.0
O211 O 0.38825 0.77609 0.22384 0.0
C212 C 0.37993 0.74924 0.26942 0.0
O213 O 0.38633 0.81934 0.05289 0.0
O214 O 0.34692 0.68501 0.14148 0.0
O215 O 0.34529 0.73085 0.03552 0.0
O216 O 0.36674 0.80034 0.11868 0.0
C217 C 0.37534 0.83015 0.08191 0.0
O218 O 0.39218 0.73367 0.95885 0.0
O219 O 0.37046 0.73875 0.94923 0.0
O220 O 0.37341 0.66459 0.05674 0.0
O221 O 0.41324 0.80277 0.04422 0.0
O222 O 0.41485 0.76076 0.1568 0.0
O223 O 0.39378 0.68523 0.11246 0.0
C224 C 0.32708 0.71552 0.12782 0.0
C225 C 0.3261 0.76 0.15205 0.0
C226 C 0.30422 0.69556 0.15992 0.0
C227 C 0.31421 0.77231 0.17822 0.0
C228 C 0.3161 0.68332 0.13351 0.0
C229 C 0.30304 0.74045 0.18081 0.0
C230 C 0.33911 0.70273 0.0901 0.0
C231 C 0.38173 0.73565 0.91257 0.0
H232 H 0.43387 0.715 0.11721 0.0
H233 H 0.46092 0.84965 1.00095 0.0
H234 H 0.45666 0.71146 0.08483 0.0
H235 H 0.43824 0.85258 0.03146 0.0
H236 H 0.33444 0.78546 0.14862 0.0
H237 H 0.29585 0.67018 0.16041 0.0
H238 H 0.31374 0.80704 0.19524 0.0
H239 H 0.31662 0.64882 0.11486 0.0
Eu240 Eu 0.65306 0.2654 0.97725 0.0
Eu241 Eu 0.62044 0.24141 0.97956 0.0
C242 C 0.63876 0.16348 0.99446 0.0
C243 C 0.69011 0.27316 0.93035 0.0
C244 C 0.69169 0.22836 0.9126 0.0
C245 C 0.71255 0.29585 0.89018 0.0
C246 C 0.70369 0.21732 0.88598 0.0
C247 C 0.70056 0.30683 0.91704 0.0
C248 C 0.71437 0.25081 0.87652 0.0
C249 C 0.67824 0.28509 0.97157 0.0
O250 O 0.62614 0.248 0.11947 0.0
O251 O 0.6484 0.25366 0.11987 0.0
C252 C 0.6372 0.24904 0.16004 0.0
O253 O 0.64483 0.3281 1.01524 0.0
O254 O 0.60122 0.2045 0.94734 0.0
O255 O 0.60314 0.267 1.02322 0.0
O256 O 0.62651 0.31222 0.93553 0.0
C257 C 0.63468 0.34091 0.97834 0.0
O258 O 0.64668 0.26295 0.83564 0.0
O259 O 0.62602 0.22505 0.84429 0.0
O260 O 0.62778 0.17699 1.01751 0.0
O261 O 0.67043 0.30563 0.92497 0.0
O262 O 0.67208 0.25562 1.02381 0.0
O263 O 0.64836 0.19061 0.96037 0.0
C264 C 0.5812 0.23236 0.99763 0.0
C265 C 0.57616 0.26219 0.05472 0.0
C266 C 0.55919 0.2001 0.96147 0.0
C267 C 0.56287 0.26076 0.06578 0.0
C268 C 0.57258 0.20134 0.95076 0.0
C269 C 0.5542 0.22954 1.01992 0.0
C270 C 0.59539 0.23422 0.98848 0.0
C271 C 0.63628 0.24101 0.79931 0.0
H272 H 0.68377 0.20172 0.92203 0.0
H273 H 0.72055 0.32247 0.88423 0.0
H274 H 0.70466 0.18238 0.87458 0.0
H275 H 0.6996 0.34159 0.93079 0.0
H276 H 0.5825 0.28665 0.09165 0.0
H277 H 0.55277 0.17553 0.9254 0.0
H278 H 0.55939 0.28443 0.11019 0.0
H279 H 0.57617 0.17801 0.90612 0.0
Eu280 Eu 0.36437 0.24877 0.95322 0.0
Eu281 Eu 0.39559 0.23539 0.95005 0.0
C282 C 0.38683 0.33286 0.97036 0.0
C283 C 0.32715 0.24731 0.91427 0.0
C284 C 0.32073 0.27789 0.86821 0.0
C285 C 0.30781 0.19256 0.90418 0.0
C286 C 0.30799 0.26621 0.84106 0.0
C287 C 0.3206 0.2043 0.9314 0.0
C288 C 0.30127 0.22361 0.85963 0.0
C289 C 0.34016 0.26273 0.94945 0.0
O290 O 0.38971 0.22875 0.09286 0.0
O291 O 0.37145 0.26413 0.08888 0.0
C292 C 0.38025 0.24593 0.13219 0.0
O293 O 0.36502 0.17669 0.98981 0.0
O294 O 0.41505 0.25708 0.90064 0.0
O295 O 0.4113 0.1966 0.97825 0.0
O296 O 0.38437 0.16692 0.92724 0.0
C297 C 0.3734 0.1506 0.9638 0.0
O298 O 0.36818 0.22017 0.82261 0.0
O299 O 0.38947 0.24838 0.81122 0.0
O300 O 0.39507 0.30635 0.99617 0.0
O301 O 0.34494 0.23831 1.00792 0.0
O302 O 0.34891 0.28112 0.89552 0.0
O303 O 0.37594 0.3168 0.93245 0.0
C304 C 0.43341 0.23056 0.96692 0.0
C305 C 0.43722 0.20887 0.04139 0.0
C306 C 0.45604 0.25575 0.93508 0.0
C307 C 0.45031 0.21024 0.06192 0.0
C308 C 0.44296 0.2544 0.91467 0.0
C309 C 0.45991 0.23309 1.00823 0.0
C310 C 0.41988 0.22353 0.93563 0.0
C311 C 0.37838 0.23293 0.77491 0.0
H312 H 0.32553 0.31133 0.85455 0.0
H313 H 0.30293 0.15958 0.92024 0.0
H314 H 0.30338 0.29073 0.80559 0.0
H315 H 0.32526 0.18005 0.96728 0.0
H316 H 0.43012 0.18961 0.08239 0.0
H317 H 0.46313 0.27424 0.89295 0.0
H318 H 0.4529 0.192 0.11828 0.0
H319 H 0.44034 0.27093 0.85619 0.0
H320 H 0.22923 0.27242 0.76783 0.0
H321 H 0.22103 0.13675 0.66626 0.0
H322 H 0.24299 0.12287 0.70584 0.0
H323 H 0.26121 0.29375 0.68839 0.0
H324 H 0.26741 0.32614 0.78143 0.0
H325 H 0.25073 0.32428 0.75151 0.0
H326 H 0.24377 0.29631 0.90547 0.0
H327 H 0.26044 0.2983 0.93604 0.0
H328 H 0.24957 0.24692 0.94794 0.0
H329 H 0.26644 0.12527 0.74914 0.0
H330 H 0.2892 0.14357 0.79411 0.0
H331 H 0.28203 0.27777 0.8661 0.0
C332 C 0.232 0.2397 0.75399 0.0
C333 C 0.2233 0.20565 0.71405 0.0
C334 C 0.22737 0.16321 0.69811 0.0
C335 C 0.23989 0.15507 0.71983 0.0
C336 C 0.24826 0.18963 0.75773 0.0
C337 C 0.24446 0.23104 0.77504 0.0
C338 C 0.25541 0.263 0.81371 0.0
C339 C 0.25889 0.30422 0.75526 0.0
C340 C 0.25209 0.27694 0.90629 0.0
C341 C 0.26604 0.23336 0.81419 0.0
C342 C 0.26172 0.19107 0.78215 0.0
C343 C 0.26989 0.1582 0.77497 0.0
C344 C 0.2828 0.16885 0.80107 0.0
C345 C 0.28748 0.21212 0.83372 0.0
C346 C 0.27887 0.24454 0.84053 0.0
H347 H 0.73343 0.29298 0.76838 0.0
H348 H 0.72523 0.18133 0.94674 0.0
H349 H 0.7471 0.16181 0.92377 0.0
H350 H 0.75261 0.23715 0.61786 0.0
H351 H 0.76386 0.28666 0.59651 0.0
H352 H 0.7475 0.29195 0.62643 0.0
H353 H 0.7558 0.34426 0.75395 0.0
H354 H 0.77219 0.33891 0.72473 0.0
H355 H 0.7665 0.3251 0.83302 0.0
H356 H 0.76994 0.15506 0.88488 0.0
H357 H 0.79197 0.15902 0.8266 0.0
H358 H 0.78566 0.27418 0.6708 0.0
C359 C 0.73624 0.26448 0.80273 0.0
C360 C 0.72751 0.23853 0.85906 0.0
C361 C 0.7316 0.20129 0.90213 0.0
C362 C 0.74407 0.19013 0.89009 0.0
C363 C 0.75242 0.21643 0.8346 0.0
C364 C 0.74868 0.25267 0.79113 0.0
C365 C 0.75956 0.27496 0.73431 0.0
C366 C 0.75565 0.27252 0.63807 0.0
C367 C 0.76376 0.3237 0.76326 0.0
C368 C 0.76997 0.2456 0.75287 0.0
C369 C 0.76563 0.21219 0.81122 0.0
C370 C 0.77342 0.18088 0.83865 0.0
C371 C 0.78592 0.1833 0.80471 0.0
C372 C 0.79059 0.21661 0.74328 0.0
C373 C 0.78247 0.24849 0.71801 0.0
H374 H 0.2829 0.69672 0.27901 0.0
H375 H 0.29374 0.81592 0.12338 0.0
H376 H 0.27241 0.8394 0.14957 0.0
H377 H 0.24966 0.67591 0.208 0.0
H378 H 0.24344 0.65783 0.31302 0.0
H379 H 0.25961 0.64991 0.28279 0.0
H380 H 0.26848 0.69354 0.41986 0.0
H381 H 0.25233 0.7014 0.45071 0.0
H382 H 0.26453 0.7493 0.43915 0.0
H383 H 0.24991 0.84993 0.18991 0.0
H384 H 0.22794 0.84874 0.24751 0.0
H385 H 0.23122 0.72342 0.37957 0.0
C386 C 0.28077 0.72768 0.25017 0.0
C387 C 0.29012 0.75459 0.19945 0.0
C388 C 0.28691 0.79505 0.16367 0.0
C389 C 0.27475 0.80853 0.17757 0.0
C390 C 0.26579 0.78131 0.22755 0.0
C391 C 0.26863 0.74183 0.26373 0.0
C392 C 0.25724 0.71926 0.31595 0.0
C393 C 0.25219 0.67298 0.27763 0.0
C394 C 0.26087 0.71568 0.41213 0.0
C395 C 0.24759 0.75226 0.30335 0.0
C396 C 0.25275 0.78766 0.25177 0.0
C397 C 0.2458 0.82252 0.23083 0.0
C398 C 0.23332 0.82163 0.26439 0.0
C399 C 0.22781 0.78628 0.31906 0.0
C400 C 0.23506 0.75081 0.33769 0.0
H401 H 0.73421 0.80299 0.24867 0.0
H402 H 0.72007 0.66052 0.24699 0.0
H403 H 0.74169 0.64375 0.2873 0.0
H404 H 0.76526 0.79344 0.15594 0.0
H405 H 0.77375 0.83743 0.22181 0.0
H406 H 0.75706 0.83867 0.19494 0.0
H407 H 0.75143 0.84285 0.35825 0.0
H408 H 0.76811 0.8419 0.38558 0.0
H409 H 0.75588 0.8007 0.43108 0.0
H410 H 0.76503 0.64198 0.32357 0.0
H411 H 0.78817 0.65556 0.35949 0.0
H412 H 0.78732 0.79918 0.33953 0.0
C413 C 0.73565 0.76824 0.25666 0.0
C414 C 0.72533 0.73311 0.24503 0.0
C415 C 0.72768 0.68815 0.25697 0.0
C416 C 0.73999 0.67821 0.27918 0.0
C417 C 0.74993 0.71354 0.28945 0.0
C418 C 0.7479 0.75768 0.27908 0.0
C419 C 0.76026 0.78933 0.29421 0.0
C420 C 0.76432 0.8163 0.21181 0.0
C421 C 0.75883 0.82053 0.37191 0.0
C422 C 0.76956 0.75606 0.31434 0.0
C423 C 0.76339 0.71253 0.31102 0.0
C424 C 0.76994 0.67597 0.32694 0.0
C425 C 0.7831 0.68407 0.34776 0.0
C426 C 0.78965 0.72845 0.35299 0.0
C427 C 0.78271 0.76481 0.33527 0.0
H428 H 0.14791 0.91369 0.51064 0.0
H429 H 0.10713 0.86577 0.48416 0.0
H430 H 0.10204 0.94265 0.5088 0.0
H431 H 0.14419 0.99178 0.68399 0.0
H432 H 0.15698 0.03337 0.64637 0.0
H433 H 0.15752 0.97482 0.62381 0.0
H434 H 0.15954 0.99187 0.45925 0.0
H435 H 0.15908 0.05049 0.48141 0.0
H436 H 0.14765 0.02087 0.40711 0.0
H437 H 0.10137 0.0248 0.53229 0.0
H438 H 0.10517 0.10667 0.55791 0.0
H439 H 0.14625 0.10062 0.57789 0.0
C440 C 0.13793 0.91952 0.50927 0.0
C441 C 0.12791 0.88388 0.4949 0.0
C442 C 0.11495 0.89262 0.49509 0.0
C443 C 0.11196 0.93615 0.50896 0.0
C444 C 0.12203 0.97047 0.52373 0.0
C445 C 0.13475 0.96269 0.52455 0.0
C446 C 0.1437 0.00537 0.54433 0.0
C447 C 0.15103 0.00106 0.62971 0.0
C448 C 0.15304 0.01788 0.46849 0.0
C449 C 0.13404 0.0384 0.55339 0.0
C450 C 0.1216 0.0176 0.54087 0.0
C451 C 0.11106 0.04144 0.54291 0.0
C452 C 0.11331 0.08788 0.55744 0.0
C453 C 0.12598 0.10988 0.5707 0.0
C454 C 0.13644 0.08461 0.56943 0.0
H455 H 0.89418 0.42422 0.61596 0.0
H456 H 0.85372 0.37861 0.56575 0.0
H457 H 0.85002 0.45657 0.53958 0.0
H458 H 0.88936 0.53086 0.72343 0.0
H459 H 0.9036 0.56113 0.67514 0.0
H460 H 0.90292 0.50206 0.69746 0.0
H461 H 0.90827 0.48762 0.53645 0.0
H462 H 0.90884 0.54651 0.51345 0.0
H463 H 0.89822 0.50589 0.45231 0.0
H464 H 0.8509 0.53778 0.5071 0.0
H465 H 0.85609 0.61853 0.47738 0.0
H466 H 0.89595 0.61285 0.54948 0.0
C467 C 0.88449 0.43072 0.60128 0.0
C468 C 0.87424 0.39519 0.59309 0.0
C469 C 0.86174 0.40514 0.57234 0.0
C470 C 0.85952 0.44937 0.55741 0.0
C471 C 0.86988 0.48342 0.56377 0.0
C472 C 0.88209 0.47481 0.58596 0.0
C473 C 0.89162 0.51752 0.58462 0.0
C474 C 0.8972 0.52854 0.67559 0.0
C475 C 0.90237 0.51416 0.51771 0.0
C476 C 0.88287 0.55121 0.55671 0.0
C477 C 0.87037 0.53073 0.54532 0.0
C478 C 0.86062 0.55433 0.5166 0.0
C479 C 0.8637 0.60021 0.49944 0.0
C480 C 0.87643 0.62216 0.5111 0.0
C481 C 0.88611 0.59718 0.54044 0.0
H482 H 0.87207 0.90869 0.5405 0.0
H483 H 0.90779 0.90608 0.39833 0.0
H484 H 0.91187 0.98899 0.40492 0.0
H485 H 0.86301 0.00729 0.4389 0.0
H486 H 0.85631 0.02746 0.53699 0.0
H487 H 0.85629 0.96813 0.52051 0.0
H488 H 0.86841 0.96325 0.6661 0.0
H489 H 0.8685 0.02259 0.6829 0.0
H490 H 0.88344 -0.00108 0.68382 0.0
H491 H 0.91211 0.0726 0.42971 0.0
H492 H 0.90822 0.1497 0.46667 0.0
H493 H 0.87221 0.09636 0.59112 0.0
C494 C 0.88076 0.92542 0.51056 0.0
C495 C 0.88962 0.90083 0.46894 0.0
C496 C 0.90085 0.92419 0.43045 0.0
C497 C 0.90326 0.97127 0.43399 0.0
C498 C 0.89433 0.99441 0.47597 0.0
C499 C 0.88328 0.97221 0.51322 0.0
C500 C 0.87517 0.0047 0.5542 0.0
C501 C 0.86191 0.00171 0.50998 0.0
C502 C 0.87381 -0.00311 0.65258 0.0
C503 C 0.88339 0.04876 0.53449 0.0
C504 C 0.89441 0.04221 0.48952 0.0
C505 C 0.90349 0.07809 0.46476 0.0
C506 C 0.9012 0.12178 0.48621 0.0
C507 C 0.8899 0.12921 0.53179 0.0
C508 C 0.88093 0.092 0.55614 0.0
H509 H 0.12343 0.58969 0.49924 0.0
H510 H 0.16441 0.63074 0.46356 0.0
H511 H 0.16839 0.5521 0.48267 0.0
H512 H 0.12679 0.51027 0.66771 0.0
H513 H 0.11324 0.47105 0.63244 0.0
H514 H 0.11355 0.53009 0.61168 0.0
H515 H 0.11037 0.51368 0.44732 0.0
H516 H 0.11 0.45457 0.46762 0.0
H517 H 0.12139 0.48234 0.39113 0.0
H518 H 0.16779 0.46881 0.5023 0.0
H519 H 0.16284 0.38736 0.52925 0.0
H520 H 0.12242 0.40168 0.56201 0.0
C521 C 0.13322 0.58203 0.49449 0.0
C522 C 0.14361 0.61612 0.47903 0.0
C523 C 0.15632 0.60502 0.47516 0.0
C524 C 0.15867 0.5605 0.48579 0.0
C525 C 0.14822 0.5277 0.50153 0.0
C526 C 0.13576 0.53796 0.5066 0.0
C527 C 0.1263 0.4968 0.52764 0.0
C528 C 0.11958 0.5024 0.61507 0.0
C529 C 0.11644 0.48623 0.45403 0.0
C530 C 0.13537 0.46168 0.53304 0.0
C531 C 0.14795 0.48013 0.51698 0.0
C532 C 0.15799 0.45405 0.51558 0.0
C533 C 0.15509 0.40786 0.5308 0.0
C534 C 0.14228 0.38839 0.5484 0.0
C535 C 0.13233 0.4158 0.54999 0.0
H536 H 0.64984 0.60444 0.07186 0.0
H537 H 0.60852 0.60644 0.08361 0.0
H538 H 0.60491 0.52525 0.05021 0.0
H539 H 0.65017 0.52451 0.89894 0.0
H540 H 0.66268 0.49658 0.9462 0.0
H541 H 0.66207 0.55508 0.96893 0.0
H542 H 0.66145 0.53869 0.13397 0.0
H543 H 0.66215 0.4802 0.1118 0.0
H544 H 0.64922 0.49659 0.17672 0.0
H545 H 0.6058 0.44516 1.00835 0.0
H546 H 0.61103 0.3689 0.97879 0.0
H547 H 0.65177 0.41727 1.00584 0.0
C548 C 0.64004 0.58769 0.06736 0.0
C549 C 0.62944 0.61157 0.07976 0.0
C550 C 0.61676 0.5886 0.07459 0.0
C551 C 0.61462 0.54262 0.05518 0.0
C552 C 0.62527 0.52007 0.04267 0.0
C553 C 0.63774 0.54159 0.05 0.0
C554 C 0.64747 0.50907 0.03732 0.0
C555 C 0.6561 0.5221 0.95813 0.0
C556 C 0.65555 0.50595 0.11988 0.0
C557 C 0.63853 0.46595 1.02104 0.0
C558 C 0.62578 0.47325 1.02314 0.0
C559 C 0.61575 0.43893 1.00726 0.0
C560 C 0.61882 0.39581 0.99005 0.0
C561 C 0.6318 0.38726 0.99033 0.0
C562 C 0.64177 0.42286 1.00586 0.0
H563 H 0.39098 0.90152 1.01121 0.0
H564 H 0.35317 0.86448 0.12593 0.0
H565 H 0.34823 0.94163 0.10308 0.0
H566 H 0.3968 0.01215 0.10274 0.0
H567 H 0.40493 0.0366 1.00769 0.0
H568 H 0.40537 0.97833 0.03228 0.0
H569 H 0.39611 0.95614 0.87993 0.0
H570 H 0.39556 0.01435 0.85507 0.0
H571 H 0.38116 0.97444 0.84654 0.0
H572 H 0.3475 0.0233 0.0687 0.0
H573 H 0.35129 0.10356 0.03002 0.0
H574 H 0.38955 0.0868 0.93716 0.0
C575 C 0.38165 0.90952 0.03166 0.0
C576 C 0.37247 0.87679 0.07047 0.0
C577 C 0.36039 0.88888 0.09625 0.0
C578 C 0.35747 0.93262 0.0833 0.0
C579 C 0.36672 0.96392 0.04444 0.0
C580 C 0.37858 0.95295 1.01927 0.0
C581 C 0.38691 0.99295 0.98009 0.0
C582 C 0.39923 0.00576 0.03393 0.0
C583 C 0.39012 0.98391 0.88475 0.0
C584 C 0.3779 0.02823 0.98748 0.0
C585 C 0.36629 0.0108 1.02449 0.0
C586 C 0.35654 0.03726 0.03944 0.0
C587 C 0.35879 0.08286 1.0171 0.0
C588 C 0.3707 0.10163 0.98019 0.0
C589 C 0.38029 0.07359 0.96452 0.0
H590 H 0.37075 0.39649 0.9423 0.0
H591 H 0.40866 0.38004 0.04102 0.0
H592 H 0.41235 0.46063 0.07914 0.0
H593 H 0.37942 0.50742 0.85075 0.0
H594 H 0.36437 0.52607 0.88114 0.0
H595 H 0.36499 0.46757 0.8586 0.0
H596 H 0.35519 0.44684 1.00993 0.0
H597 H 0.35461 0.50527 0.0332 0.0
H598 H 0.36299 0.47216 0.10564 0.0
H599 H 0.41162 0.54296 0.11008 0.0
H600 H 0.40673 0.62044 0.12923 0.0
H601 H 0.36915 0.58243 1.01165 0.0
C602 C 0.3799 0.40979 0.97107 0.0
C603 C 0.38944 0.3818 0.98828 0.0
C604 C 0.40121 0.40071 1.02689 0.0
C605 C 0.40339 0.44649 0.04888 0.0
C606 C 0.39371 0.47294 0.03197 0.0
C607 C 0.38221 0.45529 0.99369 0.0
C608 C 0.37325 0.4906 0.9841 0.0
C609 C 0.37034 0.49837 0.88793 0.0
C610 C 0.36078 0.47795 0.03635 0.0
C611 C 0.38147 0.53091 1.02333 0.0
C612 C 0.39325 0.52008 0.0504 0.0
C613 C 0.40244 0.55181 0.08895 0.0
C614 C 0.39955 0.59579 0.09966 0.0
C615 C 0.38754 0.60774 0.07215 0.0
C616 C 0.37841 0.57457 0.03367 0.0
H617 H 0.62047 0.08905 1.01188 0.0
H618 H 0.66173 0.13204 1.01622 0.0
H619 H 0.6655 0.05501 0.0514 0.0
H620 H 0.61934 0.0093 0.1862 0.0
H621 H 0.60745 0.96872 0.13518 0.0
H622 H 0.60782 0.02757 0.11195 0.0
H623 H 0.60978 0.01135 0.94755 0.0
H624 H 0.60932 0.95243 0.97025 0.0
H625 H 0.62257 0.98161 0.90949 0.0
H626 H 0.66489 0.97465 0.09134 0.0
H627 H 0.66011 0.89344 0.11854 0.0
H628 H 0.61934 0.90037 0.08003 0.0
C629 C 0.63028 0.08217 1.02023 0.0
C630 C 0.64081 0.11657 1.0115 0.0
C631 C 0.65352 0.1062 1.02209 0.0
C632 C 0.65577 0.06259 0.04259 0.0
C633 C 0.64521 0.02953 0.05125 0.0
C634 C 0.63273 0.0385 0.03924 0.0
C635 C 0.62317 -0.00377 0.04911 0.0
C636 C 0.6139 0.00074 0.12514 0.0
C637 C 0.61578 0.98473 0.96403 0.0
C638 C 0.63225 0.96227 0.06893 0.0
C639 C 0.6449 0.98242 0.07091 0.0
C640 C 0.65503 0.95837 0.08952 0.0
C641 C 0.6522 0.91228 0.10532 0.0
C642 C 0.63935 0.89053 0.10128 0.0
C643 C 0.62926 0.91603 0.08317 0.0
H644 H 0.11473 0.24151 0.26634 0.0
H645 H 0.15582 0.26539 0.31971 0.0
H646 H 0.16036 0.27333 0.16443 0.0
H647 H 0.11741 0.1749 0.07451 0.0
H648 H 0.10486 0.19686 1.01471 0.0
H649 H 0.10435 0.19567 0.13156 0.0
H650 H 0.10316 0.2811 0.13511 0.0
H651 H 0.10364 0.28253 1.01819 0.0
H652 H 0.11536 0.31879 0.08027 0.0
H653 H 0.16105 0.27681 1.00763 0.0
H654 H 0.15793 0.27402 0.85058 0.0
H655 H 0.11643 0.24608 0.88786 0.0
C656 C 0.12463 0.24883 0.24494 0.0
C657 C 0.13492 0.25254 0.30539 0.0
C658 C 0.14777 0.26179 0.27491 0.0
C659 C 0.15048 0.26667 0.18665 0.0
C660 C 0.14025 0.2621 0.1287 0.0
C661 C 0.12758 0.25331 0.15569 0.0
C662 C 0.1186 0.24825 0.07744 0.0
C663 C 0.11085 0.20111 0.0744 0.0
C664 C 0.10966 0.28485 0.07779 0.0
C665 C 0.12829 0.25508 1.00318 0.0
C666 C 0.14068 0.26344 0.03525 0.0
C667 C 0.1514 0.27045 0.98135 0.0
C668 C 0.14948 0.26874 0.89177 0.0
C669 C 0.13692 0.25982 0.85596 0.0
C670 C 0.12615 0.25305 0.91286 0.0
H671 H 0.86341 0.24741 0.27795 0.0
H672 H 0.90473 0.27598 0.32023 0.0
H673 H 0.90836 0.27709 0.1633 0.0
H674 H 0.86503 0.1755 0.08792 0.0
H675 H 0.85207 0.19651 0.03086 0.0
H676 H 0.85233 0.19681 0.14782 0.0
H677 H 0.851 0.28214 0.14827 0.0
H678 H 0.85077 0.28212 0.03131 0.0
H679 H 0.86282 0.31927 0.08893 0.0
H680 H 0.90811 0.27484 1.00561 0.0
H681 H 0.90398 0.27085 0.84942 0.0
H682 H 0.86275 0.24623 0.89815 0.0
C683 C 0.8732 0.25367 0.25388 0.0
C684 C 0.88378 0.26179 0.31206 0.0
C685 C 0.89643 0.27013 0.27773 0.0
C686 C 0.89864 0.27068 0.18833 0.0
C687 C 0.8881 0.26313 0.13296 0.0
C688 C 0.87561 0.25493 0.16359 0.0
C689 C 0.86614 0.24882 0.08782 0.0
C690 C 0.85844 0.20159 0.08867 0.0
C691 C 0.85715 0.28526 0.08919 0.0
C692 C 0.87534 0.25475 1.01056 0.0
C693 C 0.88794 0.26273 0.03919 0.0
C694 C 0.8983 0.26865 0.98217 0.0
C695 C 0.89581 0.26615 0.89318 0.0
C696 C 0.88303 0.25806 0.86084 0.0
C697 C 0.87261 0.25266 0.92066 0.0
H698 H 0.1187 0.73822 0.1578 0.0
H699 H 0.16012 0.75029 0.19866 0.0
H700 H 0.16362 0.75263 0.04184 0.0
H701 H 0.11843 0.66628 0.96478 0.0
H702 H 0.10615 0.69196 0.90935 0.0
H703 H 0.10647 0.69085 1.02628 0.0
H704 H 0.10726 0.77723 0.03061 0.0
H705 H 0.10695 0.7786 0.91373 0.0
H706 H 0.11978 0.8118 0.97215 0.0
H707 H 0.16328 0.75689 0.88439 0.0
H708 H 0.15904 0.75966 0.72845 0.0
H709 H 0.11782 0.74186 0.77841 0.0
C710 C 0.12849 0.74123 0.13355 0.0
C711 C 0.13912 0.74399 0.19149 0.0
C712 C 0.15177 0.74783 0.15666 0.0
C713 C 0.1539 0.7493 0.0672 0.0
C714 C 0.14332 0.74657 1.0122 0.0
C715 C 0.13084 0.74229 0.04321 0.0
C716 C 0.12132 0.73983 0.96781 0.0
C717 C 0.11257 0.69453 0.96703 0.0
C718 C 0.11336 0.77922 0.97131 0.0
C719 C 0.13048 0.74391 0.89031 0.0
C720 C 0.1431 0.74793 0.91851 0.0
C721 C 0.15344 0.75356 0.86127 0.0
C722 C 0.1509 0.75531 0.77255 0.0
C723 C 0.1381 0.75113 0.74073 0.0
C724 C 0.1277 0.74486 0.80062 0.0
H725 H 0.8666 0.7741 0.77974 0.0
H726 H 0.90599 0.74746 0.7387 0.0
H727 H 0.90893 0.7416 0.89532 0.0
H728 H 0.87361 0.84232 0.97441 0.0
H729 H 0.85882 0.82125 0.02918 0.0
H730 H 0.85934 0.82302 0.91231 0.0
H731 H 0.85105 0.73805 0.90576 0.0
H732 H 0.85052 0.73601 1.02261 0.0
H733 H 0.85965 0.69917 0.96324 0.0
H734 H 0.90805 0.73687 0.05149 0.0
H735 H 0.90381 0.73659 0.20689 0.0
H736 H 0.86511 0.76859 0.15893 0.0
C737 C 0.87582 0.76703 0.804 0.0
C738 C 0.88607 0.76143 0.7463 0.0
C739 C 0.898 0.75237 0.78081 0.0
C740 C 0.89978 0.74874 0.87003 0.0
C741 C 0.88959 0.75453 0.92486 0.0
C742 C 0.87786 0.76376 0.8941 0.0
C743 C 0.86872 0.76916 0.96948 0.0
C744 C 0.8649 0.81678 0.97144 0.0
C745 C 0.85678 0.73346 0.96498 0.0
C746 C 0.87721 0.76124 0.04671 0.0
C747 C 0.88916 0.75264 1.01822 0.0
C748 C 0.89875 0.7436 0.07492 0.0
C749 C 0.89617 0.74337 0.16358 0.0
C750 C 0.88407 0.75235 0.19603 0.0
C751 C 0.87444 0.76164 0.13644 0.0
H752 H 0.61728 0.75625 0.41979 0.0
H753 H 0.65631 0.72517 0.38151 0.0
H754 H 0.65933 0.72304 0.53857 0.0
H755 H 0.62422 0.82783 0.60616 0.0
H756 H 0.60951 0.80833 0.6632 0.0
H757 H 0.6099 0.80656 0.54635 0.0
H758 H 0.60169 0.72148 0.54932 0.0
H759 H 0.60127 0.72301 0.66624 0.0
H760 H 0.61037 0.68453 0.61127 0.0
H761 H 0.65903 0.72716 0.69585 0.0
H762 H 0.65515 0.73511 0.8514 0.0
H763 H 0.61607 0.76122 0.79857 0.0
C764 C 0.62642 0.7488 0.4446 0.0
C765 C 0.63654 0.74086 0.38738 0.0
C766 C 0.64836 0.73125 0.42294 0.0
C767 C 0.65021 0.72996 0.51253 0.0
C768 C 0.64016 0.73802 0.56677 0.0
C769 C 0.62846 0.74701 0.53495 0.0
C770 C 0.61939 0.75463 0.60955 0.0
C771 C 0.61553 0.80217 0.60608 0.0
C772 C 0.60747 0.71877 0.60904 0.0
C773 C 0.62796 0.74911 0.68762 0.0
C774 C 0.63989 0.73959 0.66035 0.0
C775 C 0.64972 0.73438 0.71825 0.0
C776 C 0.64741 0.73924 0.8067 0.0
C777 C 0.63533 0.74902 0.83749 0.0
C778 C 0.62537 0.75348 0.77702 0.0
H779 H 0.36301 0.72006 0.78184 0.0
H780 H 0.40411 0.75668 0.82419 0.0
H781 H 0.40756 0.76329 0.66743 0.0
H782 H 0.36657 0.65287 0.58636 0.0
H783 H 0.35285 0.67016 0.53168 0.0
H784 H 0.35322 0.66822 0.64854 0.0
H785 H 0.34946 0.75149 0.65579 0.0
H786 H 0.3491 0.75373 0.53897 0.0
H787 H 0.36026 0.79319 0.59881 0.0
H788 H 0.40697 0.76974 0.50943 0.0
H789 H 0.40254 0.77051 0.35333 0.0
H790 H 0.36201 0.72577 0.40265 0.0
C791 C 0.37272 0.72935 0.75791 0.0
C792 C 0.38328 0.73775 0.81623 0.0
C793 C 0.39584 0.74967 0.78181 0.0
C794 C 0.39793 0.75374 0.69242 0.0
C795 C 0.38741 0.74536 0.637 0.0
C796 C 0.37506 0.73295 0.66764 0.0
C797 C 0.36561 0.72521 0.59196 0.0
C798 C 0.35918 0.6762 0.58951 0.0
C799 C 0.35551 0.75786 0.59669 0.0
C800 C 0.37463 0.73572 0.51473 0.0
C801 C 0.38713 0.74758 0.54322 0.0
C802 C 0.39724 0.76024 0.48611 0.0
C803 C 0.39459 0.76077 0.39727 0.0
C804 C 0.38193 0.74825 0.36515 0.0
C805 C 0.3718 0.73522 0.42499 0.0
H806 H 0.65349 0.28526 0.2931 0.0
H807 H 0.61901 0.19206 0.23998 0.0
H808 H 0.61619 0.17713 0.39573 0.0
H809 H 0.66474 0.22378 0.48003 0.0
H810 H 0.67012 0.27404 0.54106 0.0
H811 H 0.67032 0.27529 0.42409 0.0
H812 H 0.65634 0.34013 0.42601 0.0
H813 H 0.65608 0.33904 0.54286 0.0
H814 H 0.64116 0.33291 0.48304 0.0
H815 H 0.61613 0.17412 0.55368 0.0
H816 H 0.61844 0.18451 0.71073 0.0
H817 H 0.65268 0.28114 0.67063 0.0
C818 C 0.64549 0.26129 0.31461 0.0
C819 C 0.63646 0.23982 0.25438 0.0
C820 C 0.62598 0.20916 0.28487 0.0
C821 C 0.62433 0.20021 0.37327 0.0
C822 C 0.63319 0.22231 0.43113 0.0
C823 C 0.64356 0.25231 0.40379 0.0
C824 C 0.65111 0.27318 0.48158 0.0
C825 C 0.66489 0.26083 0.48168 0.0
C826 C 0.65117 0.32435 0.48346 0.0
C827 C 0.64321 0.25061 0.55619 0.0
C828 C 0.63302 0.22112 0.52475 0.0
C829 C 0.6241 0.19697 0.57937 0.0
C830 C 0.62549 0.20332 0.66884 0.0
C831 C 0.63572 0.23379 0.70373 0.0
C832 C 0.6448 0.25742 0.64628 0.0
H833 H 0.3985 0.24749 0.266 0.0
H834 H 0.35739 0.23407 0.21452 0.0
H835 H 0.35291 0.22734 0.37042 0.0
H836 H 0.39676 0.17062 0.45094 0.0
H837 H 0.40909 0.20437 0.51275 0.0
H838 H 0.40942 0.20622 0.39584 0.0
H839 H 0.40971 0.29239 0.40088 0.0
H840 H 0.40937 0.29081 0.51776 0.0
H841 H 0.39724 0.31579 0.45939 0.0
H842 H 0.35238 0.22176 0.5286 0.0
H843 H 0.35582 0.2217 0.68577 0.0
H844 H 0.39728 0.24232 0.645 0.0
C845 C 0.38859 0.24284 0.28788 0.0
C846 C 0.37829 0.2414 0.22762 0.0
C847 C 0.36545 0.23573 0.25898 0.0
C848 C 0.36277 0.23162 0.34765 0.0
C849 C 0.37303 0.23363 0.40531 0.0
C850 C 0.38569 0.23943 0.37748 0.0
C851 C 0.39478 0.24226 0.45527 0.0
C852 C 0.403 0.20356 0.45358 0.0
C853 C 0.40328 0.28804 0.4585 0.0
C854 C 0.38518 0.23715 0.53036 0.0
C855 C 0.37272 0.23177 0.49911 0.0
C856 C 0.36209 0.226 0.55409 0.0
C857 C 0.36418 0.22591 0.64369 0.0
C858 C 0.37682 0.23198 0.67859 0.0
C859 C 0.38749 0.2377 0.62069 0.0
H860 H 0.0349 0.27076 0.64473 0.0
H861 H 0.03978 0.22936 0.37807 0.0
H862 H 0.01655 0.23137 0.35146 0.0
H863 H 1.00352 0.2071 0.67928 0.0
H864 H 0.99783 0.25016 0.74489 0.0
H865 H 0.01474 0.24467 0.74261 0.0
H866 H 0.01999 0.32788 0.69638 0.0
H867 H 1.00309 0.3336 0.69833 0.0
H868 H 0.01239 0.34717 0.60123 0.0
H869 H 0.99251 0.23795 0.35488 0.0
H870 H 0.97014 0.2512 0.38642 0.0
H871 H 0.98122 0.28784 0.65108 0.0
C872 C 0.03108 0.26155 0.58094 0.0
C873 C 0.0392 0.24962 0.51359 0.0
C874 C 0.0338 0.23885 0.43057 0.0
C875 C 0.0206 0.23968 0.41499 0.0
C876 C 0.01289 0.25154 0.48296 0.0
C877 C 0.01796 0.26241 0.56422 0.0
C878 C 0.00773 0.275 0.62584 0.0
C879 C 1.00584 0.24227 0.70268 0.0
C880 C 0.011 0.32381 0.65726 0.0
C881 C 0.99607 0.2696 0.56666 0.0
C882 C 0.9992 0.25583 0.4846 0.0
C883 C 0.98997 0.24867 0.41901 0.0
C884 C 0.97726 0.25605 0.43767 0.0
C885 C 0.97387 0.27071 0.52114 0.0
C886 C 0.98348 0.27724 0.58627 0.0
H887 H 0.98554 0.79206 0.49869 0.0
H888 H 0.96959 0.65538 0.56303 0.0
H889 H 0.99159 0.63618 0.58258 0.0
H890 H 0.01143 0.76341 0.37175 0.0
H891 H 0.02273 0.81058 0.40654 0.0
H892 H 1.00574 0.81478 0.4056 0.0
H893 H 1.00672 0.83696 0.5683 0.0
H894 H 0.02374 0.83292 0.56971 0.0
H895 H 0.01313 0.80092 0.64566 0.0
H896 H 0.01546 0.63041 0.58542 0.0
H897 H 0.03911 0.63839 0.57083 0.0
H898 H 0.03959 0.77865 0.50295 0.0
C899 C 0.98661 0.75805 0.51708 0.0
C900 C 0.9757 0.72533 0.52953 0.0
C901 C 0.97768 0.6814 0.55457 0.0
C902 C 0.99018 0.67004 0.56531 0.0
C903 C 1.00068 0.70292 0.55103 0.0
C904 C 0.99902 0.74609 0.5277 0.0
C905 C 0.0119 0.77467 0.51252 0.0
C906 C 0.01301 0.79186 0.41852 0.0
C907 C 0.01399 0.81368 0.57796 0.0
C908 C 0.02107 0.74063 0.52935 0.0
C909 C 0.01441 0.69956 0.55223 0.0
C910 C 0.02077 0.66258 0.56852 0.0
C911 C 0.03426 0.66757 0.56061 0.0
C912 C 0.04134 0.70924 0.53631 0.0
C913 C 0.03455 0.74625 0.52125 0.0
H914 H 0.5325 0.73017 0.14592 0.0
H915 H 0.54538 0.81058 0.92123 0.0
H916 H 0.52284 0.8217 0.8907 0.0
H917 H 0.50277 0.6751 0.05209 0.0
H918 H 0.49378 0.67626 0.1517 0.0
H919 H 0.51088 0.67393 0.15505 0.0
H920 H 0.51407 0.74554 0.25079 0.0
H921 H 0.49699 0.74799 0.24801 0.0
H922 H 0.50809 0.79565 0.21345 0.0
H923 H 0.49882 0.82365 0.88416 0.0
H924 H 0.47537 0.81964 0.90582 0.0
H925 H 0.4781 0.73941 0.13719 0.0
C926 C 0.53058 0.74975 0.08973 0.0
C927 C 0.54076 0.76938 0.03575 0.0
C928 C 0.5378 0.7955 0.96394 0.0
C929 C 0.52501 0.80175 0.94575 0.0
C930 C 0.51523 0.78182 1.0001 0.0
C931 C 0.51788 0.75653 0.0709 0.0
C932 C 0.50564 0.73977 0.12044 0.0
C933 C 0.50313 0.6882 0.11975 0.0
C934 C 0.50624 0.75836 0.21368 0.0
C935 C 0.4957 0.75972 0.06665 0.0
C936 C 0.50143 0.78359 0.99722 0.0
C937 C 0.49425 0.80522 0.93859 0.0
C938 C 0.48091 0.80294 0.95183 0.0
C939 C 0.47479 0.7795 1.02364 0.0
C940 C 0.48237 0.75722 0.0811 0.0
H941 H 0.47968 0.22502 0.8926 0.0
H942 H 0.47186 0.23978 0.16726 0.0
H943 H 0.49485 0.23764 0.19964 0.0
H944 H 0.50351 0.14962 0.91561 0.0
H945 H 0.51352 0.17434 0.82852 0.0
H946 H 0.4964 0.17624 0.82647 0.0
H947 H 0.50041 0.26279 0.81227 0.0
H948 H 0.51754 0.26114 0.81377 0.0
H949 H 0.51035 0.29536 0.89135 0.0
H950 H 0.51871 0.23517 0.20246 0.0
H951 H 0.54186 0.23357 0.17563 0.0
H952 H 0.53449 0.22158 0.89885 0.0
C953 C 0.4828 0.22818 0.95956 0.0
C954 C 0.47388 0.23249 1.02742 0.0
C955 C 0.47841 0.23583 0.11419 0.0
C956 C 0.49148 0.23485 0.13323 0.0
C957 C 0.49996 0.23045 0.06491 0.0
C958 C 0.49583 0.22722 0.97978 0.0
C959 C 0.50698 0.22318 0.91842 0.0
C960 C 0.50498 0.17816 0.86937 0.0
C961 C 0.50893 0.26299 0.85523 0.0
C962 C 0.51806 0.22494 0.98235 0.0
C963 C 0.51376 0.22905 0.0665 0.0
C964 C 0.52218 0.23202 0.13683 0.0
C965 C 0.53534 0.23129 0.12084 0.0
C966 C 0.54005 0.22768 0.03512 0.0
C967 C 0.53121 0.22395 0.96515 0.0
loop_
_geom_bond_atom_site_label_1
_geom_bond_atom_site_label_2
_geom_bond_distance
_geom_bond_site_symmetry_2
_ccdc_geom_bond_type
Eu0 C9 2.828 . S
Eu0 O11 2.392 . S
Eu0 O13 2.418 . S
Eu0 O18 2.373 . S
Eu0 O21 2.488 . S
Eu0 O22 2.471 . S
Eu0 O23 2.349 . S
Eu1 O10 2.373 . S
Eu1 O14 2.488 . S
Eu1 O15 2.471 . S
Eu1 O16 2.349 . S
Eu1 O19 2.392 . S
Eu1 O20 2.418 . S
Eu1 C30 2.828 . S
C2 O20 1.244 . S
C2 O23 1.265 . S
C3 C4 1.379 . S
C3 C7 1.373 . S
C3 C9 1.505 . S
C4 C3 1.379 . S
C4 C6 1.369 . S
C4 H32 0.930 . S
C5 C7 1.383 . S
C5 C8 1.382 . S
C5 H33 0.930 . S
C6 C4 1.369 . S
C6 C8 1.392 . S
C6 H34 0.930 . S
C7 C3 1.373 . S
C7 C5 1.383 . S
C7 H35 0.931 . S
C8 C5 1.382 . S
C8 C6 1.392 . S
C9 Eu0 2.828 . S
C9 C3 1.505 . S
C9 O21 1.249 . S
C9 O22 1.244 . S
O10 Eu1 2.373 . S
O10 C12 1.258 . S
O11 Eu0 2.392 . S
O11 C12 1.242 . S
C12 O10 1.258 . S
C12 O11 1.242 . S
O13 Eu0 2.418 . S
O13 C17 1.244 . S
O14 Eu1 2.488 . S
O14 C30 1.249 . S
O15 Eu1 2.471 . S
O15 C30 1.244 . S
O16 Eu1 2.349 . S
O16 C17 1.265 . S
C17 O13 1.244 . S
C17 O16 1.265 . S
O18 Eu0 2.373 . S
O18 C31 1.258 . S
O19 Eu1 2.392 . S
O19 C31 1.242 . S
O20 Eu1 2.418 . S
O20 C2 1.244 . S
O21 Eu0 2.488 . S
O21 C9 1.249 . S
O22 Eu0 2.471 . S
O22 C9 1.244 . S
O23 Eu0 2.349 . S
O23 C2 1.265 . S
C24 C25 1.379 . S
C24 C28 1.373 . S
C24 C30 1.505 . S
C25 C24 1.379 . S
C25 C27 1.369 . S
C25 H36 0.930 . S
C26 C28 1.383 . S
C26 C29 1.382 . S
C26 H37 0.930 . S
C27 C25 1.369 . S
C27 C29 1.392 . S
C27 H38 0.930 . S
C28 C24 1.373 . S
C28 C26 1.383 . S
C28 H39 0.931 . S
C29 C26 1.382 . S
C29 C27 1.392 . S
C30 Eu1 2.828 . S
C30 O14 1.249 . S
C30 O15 1.244 . S
C30 C24 1.505 . S
C31 O18 1.258 . S
C31 O19 1.242 . S
H32 C4 0.930 . S
H33 C5 0.930 . S
H34 C6 0.930 . S
H35 C7 0.931 . S
H36 C25 0.930 . S
H37 C26 0.930 . S
H38 C27 0.930 . S
H39 C28 0.931 . S
Eu40 C49 2.828 . S
Eu40 O51 2.392 . S
Eu40 O53 2.418 . S
Eu40 O58 2.373 . S
Eu40 O61 2.488 . S
Eu40 O62 2.471 . S
Eu40 O63 2.349 . S
Eu41 O50 2.373 . S
Eu41 O54 2.488 . S
Eu41 O55 2.471 . S
Eu41 O56 2.349 . S
Eu41 O59 2.392 . S
Eu41 O60 2.418 . S
Eu41 C70 2.828 . S
C42 O60 1.244 . S
C42 O63 1.265 . S
C43 C44 1.379 . S
C43 C47 1.373 . S
C43 C49 1.505 . S
C44 C43 1.379 . S
C44 C46 1.369 . S
C44 H72 0.930 . S
C45 C47 1.383 . S
C45 C48 1.382 . S
C45 H73 0.930 . S
C46 C44 1.369 . S
C46 C48 1.392 . S
C46 H74 0.930 . S
C47 C43 1.373 . S
C47 C45 1.383 . S
C47 H75 0.931 . S
C48 C45 1.382 . S
C48 C46 1.392 . S
C49 Eu40 2.828 . S
C49 C43 1.505 . S
C49 O61 1.249 . S
C49 O62 1.244 . S
O50 Eu41 2.373 . S
O50 C52 1.258 . S
O51 Eu40 2.392 . S
O51 C52 1.242 . S
C52 O50 1.258 . S
C52 O51 1.242 . S
O53 Eu40 2.418 . S
O53 C57 1.244 . S
O54 Eu41 2.488 . S
O54 C70 1.249 . S
O55 Eu41 2.471 . S
O55 C70 1.244 . S
O56 Eu41 2.349 . S
O56 C57 1.265 . S
C57 O53 1.244 . S
C57 O56 1.265 . S
O58 Eu40 2.373 . S
O58 C71 1.258 . S
O59 Eu41 2.392 . S
O59 C71 1.242 . S
O60 Eu41 2.418 . S
O60 C42 1.244 . S
O61 Eu40 2.488 . S
O61 C49 1.249 . S
O62 Eu40 2.471 . S
O62 C49 1.244 . S
O63 Eu40 2.349 . S
O63 C42 1.265 . S
C64 C65 1.379 . S
C64 C68 1.373 . S
C64 C70 1.505 . S
C65 C64 1.379 . S
C65 C67 1.369 . S
C65 H76 0.930 . S
C66 C68 1.383 . S
C66 C69 1.382 . S
C66 H77 0.930 . S
C67 C65 1.369 . S
C67 C69 1.392 . S
C67 H78 0.930 . S
C68 C64 1.373 . S
C68 C66 1.383 . S
C68 H79 0.931 . S
C69 C66 1.382 . S
C69 C67 1.392 . S
C70 Eu41 2.828 . S
C70 O54 1.249 . S
C70 O55 1.244 . S
C70 C64 1.505 . S
C71 O58 1.258 . S
C71 O59 1.242 . S
H72 C44 0.930 . S
H73 C45 0.930 . S
H74 C46 0.930 . S
H75 C47 0.931 . S
H76 C65 0.930 . S
H77 C66 0.930 . S
H78 C67 0.930 . S
H79 C68 0.931 . S
Eu80 C89 2.828 . S
Eu80 O91 2.392 . S
Eu80 O93 2.418 . S
Eu80 O98 2.373 . S
Eu80 O101 2.488 . S
Eu80 O102 2.471 . S
Eu80 O103 2.349 . S
Eu81 O90 2.373 . S
Eu81 O94 2.488 . S
Eu81 O95 2.471 . S
Eu81 O96 2.349 . S
Eu81 O99 2.392 . S
Eu81 O100 2.418 . S
Eu81 C110 2.828 . S
C82 O100 1.244 . S
C82 O103 1.265 . S
C83 C84 1.379 . S
C83 C87 1.373 . S
C83 C89 1.505 . S
C84 C83 1.379 . S
C84 C86 1.369 . S
C84 H112 0.930 . S
C85 C87 1.383 . S
C85 C88 1.382 . S
C85 H113 0.930 . S
C86 C84 1.369 . S
C86 C88 1.392 . S
C86 H114 0.930 . S
C87 C83 1.373 . S
C87 C85 1.383 . S
C87 H115 0.931 . S
C88 C85 1.382 . S
C88 C86 1.392 . S
C89 Eu80 2.828 . S
C89 C83 1.505 . S
C89 O101 1.249 . S
C89 O102 1.244 . S
O90 Eu81 2.373 . S
O90 C92 1.258 . S
O91 Eu80 2.392 . S
O91 C92 1.242 . S
C92 O90 1.258 . S
C92 O91 1.242 . S
O93 Eu80 2.418 . S
O93 C97 1.244 . S
O94 Eu81 2.488 . S
O94 C110 1.249 . S
O95 Eu81 2.471 . S
O95 C110 1.244 . S
O96 Eu81 2.349 . S
O96 C97 1.265 . S
C97 O93 1.244 . S
C97 O96 1.265 . S
O98 Eu80 2.373 . S
O98 C111 1.258 . S
O99 Eu81 2.392 . S
O99 C111 1.242 . S
O100 Eu81 2.418 . S
O100 C82 1.244 . S
O101 Eu80 2.488 . S
O101 C89 1.249 . S
O102 Eu80 2.471 . S
O102 C89 1.244 . S
O103 Eu80 2.349 . S
O103 C82 1.265 . S
C104 C105 1.379 . S
C104 C108 1.373 . S
C104 C110 1.505 . S
C105 C104 1.379 . S
C105 C107 1.369 . S
C105 H116 0.930 . S
C106 C108 1.383 . S
C106 C109 1.382 . S
C106 H117 0.930 . S
C107 C105 1.369 . S
C107 C109 1.392 . S
C107 H118 0.930 . S
C108 C104 1.373 . S
C108 C106 1.383 . S
C108 H119 0.931 . S
C109 C106 1.382 . S
C109 C107 1.392 . S
C110 Eu81 2.828 . S
C110 O94 1.249 . S
C110 O95 1.244 . S
C110 C104 1.505 . S
C111 O98 1.258 . S
C111 O99 1.242 . S
H112 C84 0.930 . S
H113 C85 0.930 . S
H114 C86 0.930 . S
H115 C87 0.931 . S
H116 C105 0.930 . S
H117 C106 0.930 . S
H118 C107 0.930 . S
H119 C108 0.931 . S
Eu120 C129 2.828 . S
Eu120 O131 2.392 . S
Eu120 O133 2.418 . S
Eu120 O138 2.373 . S
Eu120 O141 2.488 . S
Eu120 O142 2.471 . S
Eu120 O143 2.349 . S
Eu121 O130 2.373 . S
Eu121 O134 2.488 . S
Eu121 O135 2.471 . S
Eu121 O136 2.349 . S
Eu121 O139 2.392 . S
Eu121 O140 2.418 . S
Eu121 C150 2.828 . S
C122 O140 1.244 . S
C122 O143 1.265 . S
C123 C124 1.379 . S
C123 C127 1.373 . S
C123 C129 1.505 . S
C124 C123 1.379 . S
C124 C126 1.369 . S
C124 H152 0.930 . S
C125 C127 1.383 . S
C125 C128 1.382 . S
C125 H153 0.930 . S
C126 C124 1.369 . S
C126 C128 1.392 . S
C126 H154 0.930 . S
C127 C123 1.373 . S
C127 C125 1.383 . S
C127 H155 0.931 . S
C128 C125 1.382 . S
C128 C126 1.392 . S
C129 Eu120 2.828 . S
C129 C123 1.505 . S
C129 O141 1.249 . S
C129 O142 1.244 . S
O130 Eu121 2.373 . S
O130 C132 1.258 . S
O131 Eu120 2.392 . S
O131 C132 1.242 . S
C132 O130 1.258 . S
C132 O131 1.242 . S
O133 Eu120 2.418 . S
O133 C137 1.244 . S
O134 Eu121 2.488 . S
O134 C150 1.249 . S
O135 Eu121 2.471 . S
O135 C150 1.244 . S
O136 Eu121 2.349 . S
O136 C137 1.265 . S
C137 O133 1.244 . S
C137 O136 1.265 . S
O138 Eu120 2.373 . S
O138 C151 1.258 . S
O139 Eu121 2.392 . S
O139 C151 1.242 . S
O140 Eu121 2.418 . S
O140 C122 1.244 . S
O141 Eu120 2.488 . S
O141 C129 1.249 . S
O142 Eu120 2.471 . S
O142 C129 1.244 . S
O143 Eu120 2.349 . S
O143 C122 1.265 . S
C144 C145 1.379 . S
C144 C148 1.373 . S
C144 C150 1.505 . S
C145 C144 1.379 . S
C145 C147 1.369 . S
C145 H156 0.930 . S
C146 C148 1.383 . S
C146 C149 1.382 . S
C146 H157 0.930 . S
C147 C145 1.369 . S
C147 C149 1.392 . S
C147 H158 0.930 . S
C148 C144 1.373 . S
C148 C146 1.383 . S
C148 H159 0.931 . S
C149 C146 1.382 . S
C149 C147 1.392 . S
C150 Eu121 2.828 . S
C150 O134 1.249 . S
C150 O135 1.244 . S
C150 C144 1.505 . S
C151 O138 1.258 . S
C151 O139 1.242 . S
H152 C124 0.930 . S
H153 C125 0.930 . S
H154 C126 0.930 . S
H155 C127 0.931 . S
H156 C145 0.930 . S
H157 C146 0.930 . S
H158 C147 0.930 . S
H159 C148 0.931 . S
Eu160 C169 2.828 1_554 S
Eu160 O171 2.392 . S
Eu160 O173 2.418 . S
Eu160 O178 2.373 1_554 S
Eu160 O181 2.488 1_554 S
Eu160 O182 2.471 1_554 S
Eu160 O183 2.349 . S
Eu161 O170 2.373 1_556 S
Eu161 O174 2.488 1_556 S
Eu161 O175 2.471 1_556 S
Eu161 O176 2.349 . S
Eu161 O179 2.392 . S
Eu161 O180 2.418 . S
Eu161 C190 2.828 1_556 S
C162 O180 1.244 1_554 S
C162 O183 1.265 . S
C163 C164 1.379 . S
C163 C167 1.373 . S
C163 C169 1.505 . S
C164 C163 1.379 . S
C164 C166 1.369 . S
C164 H192 0.930 . S
C165 C167 1.383 . S
C165 C168 1.382 . S
C165 H193 0.930 . S
C166 C164 1.369 . S
C166 C168 1.392 . S
C166 H194 0.930 . S
C167 C163 1.373 . S
C167 C165 1.383 . S
C167 H195 0.931 . S
C168 C165 1.382 . S
C168 C166 1.392 . S
C169 Eu160 2.828 1_556 S
C169 C163 1.505 . S
C169 O181 1.249 . S
C169 O182 1.244 . S
O170 Eu161 2.373 1_554 S
O170 C172 1.258 . S
O171 Eu160 2.392 . S
O171 C172 1.242 . S
C172 O170 1.258 . S
C172 O171 1.242 . S
O173 Eu160 2.418 . S
O173 C177 1.244 1_554 S
O174 Eu161 2.488 1_554 S
O174 C190 1.249 . S
O175 Eu161 2.471 1_554 S
O175 C190 1.244 . S
O176 Eu161 2.349 . S
O176 C177 1.265 . S
C177 O173 1.244 1_556 S
C177 O176 1.265 . S
O178 Eu160 2.373 1_556 S
O178 C191 1.258 . S
O179 Eu161 2.392 . S
O179 C191 1.242 . S
O180 Eu161 2.418 . S
O180 C162 1.244 1_556 S
O181 Eu160 2.488 1_556 S
O181 C169 1.249 . S
O182 Eu160 2.471 1_556 S
O182 C169 1.244 . S
O183 Eu160 2.349 . S
O183 C162 1.265 . S
C184 C185 1.379 . S
C184 C188 1.373 . S
C184 C190 1.505 . S
C185 C184 1.379 . S
C185 C187 1.369 . S
C185 H196 0.930 . S
C186 C188 1.383 . S
C186 C189 1.382 . S
C186 H197 0.930 . S
C187 C185 1.369 . S
C187 C189 1.392 . S
C187 H198 0.930 . S
C188 C184 1.373 . S
C188 C186 1.383 . S
C188 H199 0.931 . S
C189 C186 1.382 . S
C189 C187 1.392 . S
C190 Eu161 2.828 1_554 S
C190 O174 1.249 . S
C190 O175 1.244 . S
C190 C184 1.505 . S
C191 O178 1.258 . S
C191 O179 1.242 . S
H192 C164 0.930 . S
H193 C165 0.930 . S
H194 C166 0.930 . S
H195 C167 0.931 . S
H196 C185 0.930 . S
H197 C186 0.930 . S
H198 C187 0.930 . S
H199 C188 0.931 . S
Eu200 C209 2.828 1_554 S
Eu200 O211 2.392 . S
Eu200 O213 2.418 . S
Eu200 O218 2.373 1_554 S
Eu200 O221 2.488 1_554 S
Eu200 O222 2.471 1_554 S
Eu200 O223 2.349 . S
Eu201 O210 2.373 1_556 S
Eu201 O214 2.488 1_556 S
Eu201 O215 2.471 1_556 S
Eu201 O216 2.349 . S
Eu201 O219 2.392 . S
Eu201 O220 2.418 . S
Eu201 C230 2.828 1_556 S
C202 O220 1.244 1_554 S
C202 O223 1.265 . S
C203 C204 1.379 . S
C203 C207 1.373 . S
C203 C209 1.505 . S
C204 C203 1.379 . S
C204 C206 1.369 . S
C204 H232 0.930 . S
C205 C207 1.383 . S
C205 C208 1.382 . S
C205 H233 0.930 . S
C206 C204 1.369 . S
C206 C208 1.392 . S
C206 H234 0.930 . S
C207 C203 1.373 . S
C207 C205 1.383 . S
C207 H235 0.931 . S
C208 C205 1.382 . S
C208 C206 1.392 . S
C209 Eu200 2.828 1_556 S
C209 C203 1.505 . S
C209 O221 1.249 . S
C209 O222 1.244 . S
O210 Eu201 2.373 1_554 S
O210 C212 1.258 . S
O211 Eu200 2.392 . S
O211 C212 1.242 . S
C212 O210 1.258 . S
C212 O211 1.242 . S
O213 Eu200 2.418 . S
O213 C217 1.244 1_554 S
O214 Eu201 2.488 1_554 S
O214 C230 1.249 . S
O215 Eu201 2.471 1_554 S
O215 C230 1.244 . S
O216 Eu201 2.349 . S
O216 C217 1.265 . S
C217 O213 1.244 1_556 S
C217 O216 1.265 . S
O218 Eu200 2.373 1_556 S
O218 C231 1.258 . S
O219 Eu201 2.392 . S
O219 C231 1.242 . S
O220 Eu201 2.418 . S
O220 C202 1.244 1_556 S
O221 Eu200 2.488 1_556 S
O221 C209 1.249 . S
O222 Eu200 2.471 1_556 S
O222 C209 1.244 . S
O223 Eu200 2.349 . S
O223 C202 1.265 . S
C224 C225 1.379 . S
C224 C228 1.373 . S
C224 C230 1.505 . S
C225 C224 1.379 . S
C225 C227 1.369 . S
C225 H236 0.930 . S
C226 C228 1.383 . S
C226 C229 1.382 . S
C226 H237 0.930 . S
C227 C225 1.369 . S
C227 C229 1.392 . S
C227 H238 0.930 . S
C228 C224 1.373 . S
C228 C226 1.383 . S
C228 H239 0.931 . S
C229 C226 1.382 . S
C229 C227 1.392 . S
C230 Eu201 2.828 1_554 S
C230 O214 1.249 . S
C230 O215 1.244 . S
C230 C224 1.505 . S
C231 O218 1.258 . S
C231 O219 1.242 . S
H232 C204 0.930 . S
H233 C205 0.930 . S
H234 C206 0.930 . S
H235 C207 0.931 . S
H236 C225 0.930 . S
H237 C226 0.930 . S
H238 C227 0.930 . S
H239 C228 0.931 . S
Eu240 C249 2.828 1_554 S
Eu240 O251 2.392 . S
Eu240 O253 2.418 . S
Eu240 O258 2.373 1_554 S
Eu240 O261 2.488 1_554 S
Eu240 O262 2.471 1_554 S
Eu240 O263 2.349 . S
Eu241 O250 2.373 1_556 S
Eu241 O254 2.488 1_556 S
Eu241 O255 2.471 1_556 S
Eu241 O256 2.349 . S
Eu241 O259 2.392 . S
Eu241 O260 2.418 . S
Eu241 C270 2.828 1_556 S
C242 O260 1.244 1_554 S
C242 O263 1.265 . S
C243 C244 1.379 . S
C243 C247 1.373 . S
C243 C249 1.505 . S
C244 C243 1.379 . S
C244 C246 1.369 . S
C244 H272 0.930 . S
C245 C247 1.383 . S
C245 C248 1.382 . S
C245 H273 0.930 . S
C246 C244 1.369 . S
C246 C248 1.392 . S
C246 H274 0.930 . S
C247 C243 1.373 . S
C247 C245 1.383 . S
C247 H275 0.931 . S
C248 C245 1.382 . S
C248 C246 1.392 . S
C249 Eu240 2.828 1_556 S
C249 C243 1.505 . S
C249 O261 1.249 . S
C249 O262 1.244 . S
O250 Eu241 2.373 1_554 S
O250 C252 1.258 . S
O251 Eu240 2.392 . S
O251 C252 1.242 . S
C252 O250 1.258 . S
C252 O251 1.242 . S
O253 Eu240 2.418 . S
O253 C257 1.244 1_554 S
O254 Eu241 2.488 1_554 S
O254 C270 1.249 . S
O255 Eu241 2.471 1_554 S
O255 C270 1.244 . S
O256 Eu241 2.349 . S
O256 C257 1.265 . S
C257 O253 1.244 1_556 S
C257 O256 1.265 . S
O258 Eu240 2.373 1_556 S
O258 C271 1.258 . S
O259 Eu241 2.392 . S
O259 C271 1.242 . S
O260 Eu241 2.418 . S
O260 C242 1.244 1_556 S
O261 Eu240 2.488 1_556 S
O261 C249 1.249 . S
O262 Eu240 2.471 1_556 S
O262 C249 1.244 . S
O263 Eu240 2.349 . S
O263 C242 1.265 . S
C264 C265 1.379 . S
C264 C268 1.373 . S
C264 C270 1.505 . S
C265 C264 1.379 . S
C265 C267 1.369 . S
C265 H276 0.930 . S
C266 C268 1.383 . S
C266 C269 1.382 . S
C266 H277 0.930 . S
C267 C265 1.369 . S
C267 C269 1.392 . S
C267 H278 0.930 . S
C268 C264 1.373 . S
C268 C266 1.383 . S
C268 H279 0.931 . S
C269 C266 1.382 . S
C269 C267 1.392 . S
C270 Eu241 2.828 1_554 S
C270 O254 1.249 . S
C270 O255 1.244 . S
C270 C264 1.505 . S
C271 O258 1.258 . S
C271 O259 1.242 . S
H272 C244 0.930 . S
H273 C245 0.930 . S
H274 C246 0.930 . S
H275 C247 0.931 . S
H276 C265 0.930 . S
H277 C266 0.930 . S
H278 C267 0.930 . S
H279 C268 0.931 . S
Eu280 C289 2.828 1_554 S
Eu280 O291 2.392 . S
Eu280 O293 2.418 . S
Eu280 O298 2.373 1_554 S
Eu280 O301 2.488 1_554 S
Eu280 O302 2.471 1_554 S
Eu280 O303 2.349 . S
Eu281 O290 2.373 1_556 S
Eu281 O294 2.488 1_556 S
Eu281 O295 2.471 1_556 S
Eu281 O296 2.349 . S
Eu281 O299 2.392 . S
Eu281 O300 2.418 . S
Eu281 C310 2.828 1_556 S
C282 O300 1.244 1_554 S
C282 O303 1.265 . S
C283 C284 1.379 . S
C283 C287 1.373 . S
C283 C289 1.505 . S
C284 C283 1.379 . S
C284 C286 1.369 . S
C284 H312 0.930 . S
C285 C287 1.383 . S
C285 C288 1.382 . S
C285 H313 0.930 . S
C286 C284 1.369 . S
C286 C288 1.392 . S
C286 H314 0.930 . S
C287 C283 1.373 . S
C287 C285 1.383 . S
C287 H315 0.931 . S
C288 C285 1.382 . S
C288 C286 1.392 . S
C289 Eu280 2.828 1_556 S
C289 C283 1.505 . S
C289 O301 1.249 . S
C289 O302 1.244 . S
O290 Eu281 2.373 1_554 S
O290 C292 1.258 . S
O291 Eu280 2.392 . S
O291 C292 1.242 . S
C292 O290 1.258 . S
C292 O291 1.242 . S
O293 Eu280 2.418 . S
O293 C297 1.244 1_554 S
O294 Eu281 2.488 1_554 S
O294 C310 1.249 . S
O295 Eu281 2.471 1_554 S
O295 C310 1.244 . S
O296 Eu281 2.349 . S
O296 C297 1.265 . S
C297 O293 1.244 1_556 S
C297 O296 1.265 . S
O298 Eu280 2.373 1_556 S
O298 C311 1.258 . S
O299 Eu281 2.392 . S
O299 C311 1.242 . S
O300 Eu281 2.418 . S
O300 C282 1.244 1_556 S
O301 Eu280 2.488 1_556 S
O301 C289 1.249 . S
O302 Eu280 2.471 1_556 S
O302 C289 1.244 . S
O303 Eu280 2.349 . S
O303 C282 1.265 . S
C304 C305 1.379 . S
C304 C308 1.373 . S
C304 C310 1.505 . S
C305 C304 1.379 . S
C305 C307 1.369 . S
C305 H316 0.930 . S
C306 C308 1.383 . S
C306 C309 1.382 . S
C306 H317 0.930 . S
C307 C305 1.369 . S
C307 C309 1.392 . S
C307 H318 0.930 . S
C308 C304 1.373 . S
C308 C306 1.383 . S
C308 H319 0.931 . S
C309 C306 1.382 . S
C309 C307 1.392 . S
C310 Eu281 2.828 1_554 S
C310 O294 1.249 . S
C310 O295 1.244 . S
C310 C304 1.505 . S
C311 O298 1.258 . S
C311 O299 1.242 . S
H312 C284 0.930 . S
H313 C285 0.930 . S
H314 C286 0.930 . S
H315 C287 0.931 . S
H316 C305 0.930 . S
H317 C306 0.930 . S
H318 C307 0.930 . S
H319 C308 0.931 . S
H320 C332 0.930 . S
H321 C334 0.930 . S
H322 C335 0.930 . S
H323 C339 0.959 . S
H324 C339 0.959 . S
H325 C339 0.961 . S
H326 C340 0.960 . S
H327 C340 0.961 . S
H328 C340 0.959 . S
H329 C343 0.929 . S
H330 C344 0.931 . S
H331 C346 0.930 . S
C332 H320 0.930 . S
C332 C333 1.399 . S
C332 C337 1.399 . S
C333 C332 1.399 . S
C333 C334 1.376 . S
C334 H321 0.930 . S
C334 C333 1.376 . S
C334 C335 1.388 . S
C335 H322 0.930 . S
C335 C334 1.388 . S
C335 C336 1.390 . S
C336 C335 1.390 . S
C336 C337 1.394 . S
C336 C342 1.465 . S
C337 C332 1.399 . S
C337 C336 1.394 . S
C337 C338 1.516 . S
C338 C337 1.516 . S
C338 C339 1.502 . S
C338 C340 1.561 . S
C338 C341 1.526 . S
C339 H323 0.959 . S
C339 H324 0.959 . S
C339 H325 0.961 . S
C339 C338 1.502 . S
C340 H326 0.960 . S
C340 H327 0.961 . S
C340 H328 0.959 . S
C340 C338 1.561 . S
C341 C338 1.526 . S
C341 C342 1.396 . S
C341 C346 1.390 . S
C342 C336 1.465 . S
C342 C341 1.396 . S
C342 C343 1.399 . S
C343 H329 0.929 . S
C343 C342 1.399 . S
C343 C344 1.385 . S
C344 H330 0.931 . S
C344 C343 1.385 . S
C344 C345 1.389 . S
C345 C344 1.389 . S
C345 C346 1.387 . S
C346 H331 0.930 . S
C346 C341 1.390 . S
C346 C345 1.387 . S
H347 C359 0.930 . S
H348 C361 0.930 . S
H349 C362 0.930 . S
H350 C366 0.959 . S
H351 C366 0.959 . S
H352 C366 0.961 . S
H353 C367 0.960 . S
H354 C367 0.961 . S
H355 C367 0.959 . S
H356 C370 0.929 . S
H357 C371 0.931 . S
H358 C373 0.930 . S
C359 H347 0.930 . S
C359 C360 1.399 . S
C359 C364 1.399 . S
C360 C359 1.399 . S
C360 C361 1.376 . S
C361 H348 0.930 . S
C361 C360 1.376 . S
C361 C362 1.388 . S
C362 H349 0.930 . S
C362 C361 1.388 . S
C362 C363 1.390 . S
C363 C362 1.390 . S
C363 C364 1.394 . S
C363 C369 1.465 . S
C364 C359 1.399 . S
C364 C363 1.394 . S
C364 C365 1.516 . S
C365 C364 1.516 . S
C365 C366 1.502 . S
C365 C367 1.561 . S
C365 C368 1.526 . S
C366 H350 0.959 . S
C366 H351 0.959 . S
C366 H352 0.961 . S
C366 C365 1.502 . S
C367 H353 0.960 . S
C367 H354 0.961 . S
C367 H355 0.959 . S
C367 C365 1.561 . S
C368 C365 1.526 . S
C368 C369 1.396 . S
C368 C373 1.390 . S
C369 C363 1.465 . S
C369 C368 1.396 . S
C369 C370 1.399 . S
C370 H356 0.929 . S
C370 C369 1.399 . S
C370 C371 1.385 . S
C371 H357 0.931 . S
C371 C370 1.385 . S
C371 C372 1.389 . S
C372 C371 1.389 . S
C372 C373 1.387 . S
C373 H358 0.930 . S
C373 C368 1.390 . S
C373 C372 1.387 . S
H374 C386 0.930 . S
H375 C388 0.930 . S
H376 C389 0.930 . S
H377 C393 0.959 . S
H378 C393 0.959 . S
H379 C393 0.961 . S
H380 C394 0.960 . S
H381 C394 0.961 . S
H382 C394 0.959 . S
H383 C397 0.929 . S
H384 C398 0.931 . S
H385 C400 0.930 . S
C386 H374 0.930 . S
C386 C387 1.399 . S
C386 C391 1.399 . S
C387 C386 1.399 . S
C387 C388 1.376 . S
C388 H375 0.930 . S
C388 C387 1.376 . S
C388 C389 1.388 . S
C389 H376 0.930 . S
C389 C388 1.388 . S
C389 C390 1.390 . S
C390 C389 1.390 . S
C390 C391 1.394 . S
C390 C396 1.465 . S
C391 C386 1.399 . S
C391 C390 1.394 . S
C391 C392 1.516 . S
C392 C391 1.516 . S
C392 C393 1.502 . S
C392 C394 1.561 . S
C392 C395 1.526 . S
C393 H377 0.959 . S
C393 H378 0.959 . S
C393 H379 0.961 . S
C393 C392 1.502 . S
C394 H380 0.960 . S
C394 H381 0.961 . S
C394 H382 0.959 . S
C394 C392 1.561 . S
C395 C392 1.526 . S
C395 C396 1.396 . S
C395 C400 1.390 . S
C396 C390 1.465 . S
C396 C395 1.396 . S
C396 C397 1.399 . S
C397 H383 0.929 . S
C397 C396 1.399 . S
C397 C398 1.385 . S
C398 H384 0.931 . S
C398 C397 1.385 . S
C398 C399 1.389 . S
C399 C398 1.389 . S
C399 C400 1.387 . S
C400 H385 0.930 . S
C400 C395 1.390 . S
C400 C399 1.387 . S
H401 C413 0.930 . S
H402 C415 0.930 . S
H403 C416 0.930 . S
H404 C420 0.959 . S
H405 C420 0.959 . S
H406 C420 0.961 . S
H407 C421 0.960 . S
H408 C421 0.961 . S
H409 C421 0.959 . S
H410 C424 0.929 . S
H411 C425 0.931 . S
H412 C427 0.930 . S
C413 H401 0.930 . S
C413 C414 1.399 . S
C413 C418 1.399 . S
C414 C413 1.399 . S
C414 C415 1.376 . S
C415 H402 0.930 . S
C415 C414 1.376 . S
C415 C416 1.388 . S
C416 H403 0.930 . S
C416 C415 1.388 . S
C416 C417 1.390 . S
C417 C416 1.390 . S
C417 C418 1.394 . S
C417 C423 1.465 . S
C418 C413 1.399 . S
C418 C417 1.394 . S
C418 C419 1.516 . S
C419 C418 1.516 . S
C419 C420 1.502 . S
C419 C421 1.561 . S
C419 C422 1.526 . S
C420 H404 0.959 . S
C420 H405 0.959 . S
C420 H406 0.961 . S
C420 C419 1.502 . S
C421 H407 0.960 . S
C421 H408 0.961 . S
C421 H409 0.959 . S
C421 C419 1.561 . S
C422 C419 1.526 . S
C422 C423 1.396 . S
C422 C427 1.390 . S
C423 C417 1.465 . S
C423 C422 1.396 . S
C423 C424 1.399 . S
C424 H410 0.929 . S
C424 C423 1.399 . S
C424 C425 1.385 . S
C425 H411 0.931 . S
C425 C424 1.385 . S
C425 C426 1.389 . S
C426 C425 1.389 . S
C426 C427 1.387 . S
C427 H412 0.930 . S
C427 C422 1.390 . S
C427 C426 1.387 . S
H428 C440 0.930 . S
H429 C442 0.930 . S
H430 C443 0.930 . S
H431 C447 0.959 . S
H432 C447 0.959 . S
H433 C447 0.961 1_565 S
H434 C448 0.960 . S
H435 C448 0.961 . S
H436 C448 0.959 . S
H437 C451 0.929 . S
H438 C452 0.931 . S
H439 C454 0.930 . S
C440 H428 0.930 . S
C440 C441 1.399 . S
C440 C445 1.399 . S
C441 C440 1.399 . S
C441 C442 1.376 . S
C442 H429 0.930 . S
C442 C441 1.376 . S
C442 C443 1.388 . S
C443 H430 0.930 . S
C443 C442 1.388 . S
C443 C444 1.390 . S
C444 C443 1.390 . S
C444 C445 1.394 . S
C444 C450 1.465 1_565 S
C445 C440 1.399 . S
C445 C444 1.394 . S
C445 C446 1.516 1_565 S
C446 C445 1.516 1_545 S
C446 C447 1.502 . S
C446 C448 1.561 . S
C446 C449 1.526 . S
C447 H431 0.959 . S
C447 H432 0.959 . S
C447 H433 0.961 1_545 S
C447 C446 1.502 . S
C448 H434 0.960 . S
C448 H435 0.961 . S
C448 H436 0.959 . S
C448 C446 1.561 . S
C449 C446 1.526 . S
C449 C450 1.396 . S
C449 C454 1.390 . S
C450 C444 1.465 1_545 S
C450 C449 1.396 . S
C450 C451 1.399 . S
C451 H437 0.929 . S
C451 C450 1.399 . S
C451 C452 1.385 . S
C452 H438 0.931 . S
C452 C451 1.385 . S
C452 C453 1.389 . S
C453 C452 1.389 . S
C453 C454 1.387 . S
C454 H439 0.930 . S
C454 C449 1.390 . S
C454 C453 1.387 . S
H455 C467 0.930 . S
H456 C469 0.930 . S
H457 C470 0.930 . S
H458 C474 0.959 . S
H459 C474 0.959 . S
H460 C474 0.961 . S
H461 C475 0.960 . S
H462 C475 0.961 . S
H463 C475 0.959 . S
H464 C478 0.929 . S
H465 C479 0.931 . S
H466 C481 0.930 . S
C467 H455 0.930 . S
C467 C468 1.399 . S
C467 C472 1.399 . S
C468 C467 1.399 . S
C468 C469 1.376 . S
C469 H456 0.930 . S
C469 C468 1.376 . S
C469 C470 1.388 . S
C470 H457 0.930 . S
C470 C469 1.388 . S
C470 C471 1.390 . S
C471 C470 1.390 . S
C471 C472 1.394 . S
C471 C477 1.465 . S
C472 C467 1.399 . S
C472 C471 1.394 . S
C472 C473 1.516 . S
C473 C472 1.516 . S
C473 C474 1.502 . S
C473 C475 1.561 . S
C473 C476 1.526 . S
C474 H458 0.959 . S
C474 H459 0.959 . S
C474 H460 0.961 . S
C474 C473 1.502 . S
C475 H461 0.960 . S
C475 H462 0.961 . S
C475 H463 0.959 . S
C475 C473 1.561 . S
C476 C473 1.526 . S
C476 C477 1.396 . S
C476 C481 1.390 . S
C477 C471 1.465 . S
C477 C476 1.396 . S
C477 C478 1.399 . S
C478 H464 0.929 . S
C478 C477 1.399 . S
C478 C479 1.385 . S
C479 H465 0.931 . S
C479 C478 1.385 . S
C479 C480 1.389 . S
C480 C479 1.389 . S
C480 C481 1.387 . S
C481 H466 0.930 . S
C481 C476 1.390 . S
C481 C480 1.387 . S
H482 C494 0.930 . S
H483 C496 0.930 . S
H484 C497 0.930 . S
H485 C501 0.960 . S
H486 C501 0.957 1_545 S
H487 C501 0.962 . S
H488 C502 0.960 1_565 S
H489 C502 0.961 . S
H490 C502 0.959 . S
H491 C505 0.929 . S
H492 C506 0.931 . S
H493 C508 0.930 . S
C494 H482 0.930 . S
C494 C495 1.399 . S
C494 C499 1.399 . S
C495 C494 1.399 . S
C495 C496 1.376 . S
C496 H483 0.930 . S
C496 C495 1.376 . S
C496 C497 1.388 . S
C497 H484 0.930 . S
C497 C496 1.388 . S
C497 C498 1.390 . S
C498 C497 1.390 . S
C498 C499 1.394 . S
C498 C504 1.465 1_565 S
C499 C494 1.399 . S
C499 C498 1.394 . S
C499 C500 1.516 1_565 S
C500 C499 1.516 1_545 S
C500 C501 1.502 1_545 S
C500 C502 1.561 . S
C500 C503 1.526 . S
C501 H485 0.960 . S
C501 H486 0.957 1_565 S
C501 H487 0.962 . S
C501 C500 1.502 1_565 S
C502 H488 0.960 1_545 S
C502 H489 0.961 . S
C502 H490 0.959 . S
C502 C500 1.561 . S
C503 C500 1.526 . S
C503 C504 1.396 . S
C503 C508 1.390 . S
C504 C498 1.465 1_545 S
C504 C503 1.396 . S
C504 C505 1.399 . S
C505 H491 0.929 . S
C505 C504 1.399 . S
C505 C506 1.385 . S
C506 H492 0.931 . S
C506 C505 1.385 . S
C506 C507 1.389 . S
C507 C506 1.389 . S
C507 C508 1.387 . S
C508 H493 0.930 . S
C508 C503 1.390 . S
C508 C507 1.387 . S
H509 C521 0.930 . S
H510 C523 0.930 . S
H511 C524 0.930 . S
H512 C528 0.959 . S
H513 C528 0.959 . S
H514 C528 0.961 . S
H515 C529 0.960 . S
H516 C529 0.961 . S
H517 C529 0.959 . S
H518 C532 0.929 . S
H519 C533 0.931 . S
H520 C535 0.930 . S
C521 H509 0.930 . S
C521 C522 1.399 . S
C521 C526 1.399 . S
C522 C521 1.399 . S
C522 C523 1.376 . S
C523 H510 0.930 . S
C523 C522 1.376 . S
C523 C524 1.388 . S
C524 H511 0.930 . S
C524 C523 1.388 . S
C524 C525 1.390 . S
C525 C524 1.390 . S
C525 C526 1.394 . S
C525 C531 1.465 . S
C526 C521 1.399 . S
C526 C525 1.394 . S
C526 C527 1.516 . S
C527 C526 1.516 . S
C527 C528 1.502 . S
C527 C529 1.561 . S
C527 C530 1.526 . S
C528 H512 0.959 . S
C528 H513 0.959 . S
C528 H514 0.961 . S
C528 C527 1.502 . S
C529 H515 0.960 . S
C529 H516 0.961 . S
C529 H517 0.959 . S
C529 C527 1.561 . S
C530 C527 1.526 . S
C530 C531 1.396 . S
C530 C535 1.390 . S
C531 C525 1.465 . S
C531 C530 1.396 . S
C531 C532 1.399 . S
C532 H518 0.929 . S
C532 C531 1.399 . S
C532 C533 1.385 . S
C533 H519 0.931 . S
C533 C532 1.385 . S
C533 C534 1.389 . S
C534 C533 1.389 . S
C534 C535 1.387 . S
C535 H520 0.930 . S
C535 C530 1.390 . S
C535 C534 1.387 . S
H536 C548 0.930 . S
H537 C550 0.930 . S
H538 C551 0.930 . S
H539 C555 0.959 . S
H540 C555 0.959 . S
H541 C555 0.961 . S
H542 C556 0.960 . S
H543 C556 0.961 . S
H544 C556 0.959 . S
H545 C559 0.929 . S
H546 C560 0.931 . S
H547 C562 0.930 . S
C548 H536 0.930 . S
C548 C549 1.399 1_554 S
C548 C553 1.399 . S
C549 C548 1.399 1_556 S
C549 C550 1.376 . S
C550 H537 0.930 . S
C550 C549 1.376 . S
C550 C551 1.388 . S
C551 H538 0.930 . S
C551 C550 1.388 . S
C551 C552 1.390 . S
C552 C551 1.390 . S
C552 C553 1.394 1_556 S
C552 C558 1.465 . S
C553 C548 1.399 . S
C553 C552 1.394 1_554 S
C553 C554 1.516 . S
C554 C553 1.516 . S
C554 C555 1.502 . S
C554 C556 1.561 . S
C554 C557 1.526 . S
C555 H539 0.959 . S
C555 H540 0.959 . S
C555 H541 0.961 . S
C555 C554 1.502 . S
C556 H542 0.960 . S
C556 H543 0.961 . S
C556 H544 0.959 . S
C556 C554 1.561 . S
C557 C554 1.526 . S
C557 C558 1.396 1_554 S
C557 C562 1.390 . S
C558 C552 1.465 . S
C558 C557 1.396 1_556 S
C558 C559 1.399 . S
C559 H545 0.929 . S
C559 C558 1.399 . S
C559 C560 1.385 . S
C560 H546 0.931 . S
C560 C559 1.385 . S
C560 C561 1.389 . S
C561 C560 1.389 . S
C561 C562 1.387 1_556 S
C562 H547 0.930 . S
C562 C557 1.390 . S
C562 C561 1.387 1_554 S
H563 C575 0.930 . S
H564 C577 0.930 . S
H565 C578 0.930 . S
H566 C582 0.959 . S
H567 C582 0.959 . S
H568 C582 0.961 1_565 S
H569 C583 0.960 . S
H570 C583 0.961 1_545 S
H571 C583 0.959 . S
H572 C586 0.929 . S
H573 C587 0.931 . S
H574 C589 0.930 . S
C575 H563 0.930 . S
C575 C576 1.396 1_556 S
C575 C580 1.399 . S
C576 C575 1.396 1_554 S
C576 C577 1.380 . S
C577 H564 0.930 . S
C577 C576 1.380 . S
C577 C578 1.388 . S
C578 H565 0.930 . S
C578 C577 1.388 . S
C578 C579 1.390 . S
C579 C578 1.390 . S
C579 C580 1.394 1_554 S
C579 C585 1.465 1_565 S
C580 C575 1.399 . S
C580 C579 1.394 1_556 S
C580 C581 1.516 1_565 S
C581 C580 1.516 1_545 S
C581 C582 1.502 . S
C581 C583 1.561 1_545 S
C581 C584 1.526 . S
C582 H566 0.959 . S
C582 H567 0.959 . S
C582 H568 0.961 1_545 S
C582 C581 1.502 . S
C583 H569 0.960 . S
C583 H570 0.961 1_565 S
C583 H571 0.959 . S
C583 C581 1.561 1_565 S
C584 C581 1.526 . S
C584 C585 1.396 1_556 S
C584 C589 1.390 . S
C585 C579 1.465 1_545 S
C585 C584 1.396 1_554 S
C585 C586 1.399 . S
C586 H572 0.929 . S
C586 C585 1.399 . S
C586 C587 1.385 . S
C587 H573 0.931 . S
C587 C586 1.385 . S
C587 C588 1.389 . S
C588 C587 1.389 . S
C588 C589 1.387 1_554 S
C589 H574 0.930 . S
C589 C584 1.390 . S
C589 C588 1.387 1_556 S
H590 C602 0.930 . S
H591 C604 0.930 . S
H592 C605 0.930 . S
H593 C609 0.959 . S
H594 C609 0.959 . S
H595 C609 0.961 . S
H596 C610 0.960 . S
H597 C610 0.961 . S
H598 C610 0.959 . S
H599 C613 0.929 . S
H600 C614 0.931 . S
H601 C616 0.930 . S
C602 H590 0.930 . S
C602 C603 1.399 . S
C602 C607 1.399 . S
C603 C602 1.399 . S
C603 C604 1.376 1_554 S
C604 H591 0.930 . S
C604 C603 1.376 1_556 S
C604 C605 1.388 . S
C605 H592 0.930 . S
C605 C604 1.388 . S
C605 C606 1.390 . S
C606 C605 1.390 . S
C606 C607 1.394 1_556 S
C606 C612 1.465 . S
C607 C602 1.399 . S
C607 C606 1.394 1_554 S
C607 C608 1.516 . S
C608 C607 1.516 . S
C608 C609 1.502 . S
C608 C610 1.561 . S
C608 C611 1.526 . S
C609 H593 0.959 . S
C609 H594 0.959 . S
C609 H595 0.961 . S
C609 C608 1.502 . S
C610 H596 0.960 . S
C610 H597 0.961 . S
C610 H598 0.959 . S
C610 C608 1.561 . S
C611 C608 1.526 . S
C611 C612 1.396 1_554 S
C611 C616 1.390 . S
C612 C606 1.465 . S
C612 C611 1.396 1_556 S
C612 C613 1.399 . S
C613 H599 0.929 . S
C613 C612 1.399 . S
C613 C614 1.385 . S
C614 H600 0.931 . S
C614 C613 1.385 . S
C614 C615 1.395 . S
C615 C614 1.395 . S
C615 C616 1.382 1_556 S
C616 H601 0.930 . S
C616 C611 1.390 . S
C616 C615 1.382 1_554 S
H617 C629 0.930 . S
H618 C631 0.930 . S
H619 C632 0.930 . S
H620 C636 0.959 . S
H621 C636 0.959 . S
H622 C636 0.961 1_545 S
H623 C637 0.960 . S
H624 C637 0.961 1_565 S
H625 C637 0.959 . S
H626 C640 0.929 . S
H627 C641 0.931 . S
H628 C643 0.930 . S
C629 H617 0.930 . S
C629 C630 1.399 1_556 S
C629 C634 1.399 . S
C630 C629 1.399 1_554 S
C630 C631 1.376 . S
C631 H618 0.930 . S
C631 C630 1.376 . S
C631 C632 1.388 . S
C632 H619 0.930 . S
C632 C631 1.388 . S
C632 C633 1.390 . S
C633 C632 1.390 . S
C633 C634 1.394 1_554 S
C633 C639 1.465 1_545 S
C634 C629 1.399 . S
C634 C633 1.394 1_556 S
C634 C635 1.516 1_545 S
C635 C634 1.516 1_565 S
C635 C636 1.502 . S
C635 C637 1.561 1_565 S
C635 C638 1.526 . S
C636 H620 0.959 . S
C636 H621 0.959 . S
C636 H622 0.961 1_565 S
C636 C635 1.502 . S
C637 H623 0.960 . S
C637 H624 0.961 1_545 S
C637 H625 0.959 . S
C637 C635 1.561 1_545 S
C638 C635 1.526 . S
C638 C639 1.396 1_556 S
C638 C643 1.390 . S
C639 C633 1.465 1_565 S
C639 C638 1.396 1_554 S
C639 C640 1.399 . S
C640 H626 0.929 . S
C640 C639 1.399 . S
C640 C641 1.385 . S
C641 H627 0.931 . S
C641 C640 1.385 . S
C641 C642 1.389 . S
C642 C641 1.389 . S
C642 C643 1.387 1_554 S
C643 H628 0.930 . S
C643 C638 1.390 . S
C643 C642 1.387 1_556 S
H644 C656 0.930 . S
H645 C658 0.930 . S
H646 C659 0.930 . S
H647 C663 0.959 . S
H648 C663 0.959 . S
H649 C663 0.961 . S
H650 C664 0.960 . S
H651 C664 0.961 . S
H652 C664 0.959 . S
H653 C667 0.929 . S
H654 C668 0.931 . S
H655 C670 0.930 . S
C656 H644 0.930 . S
C656 C657 1.399 . S
C656 C661 1.399 . S
C657 C656 1.399 . S
C657 C658 1.376 . S
C658 H645 0.930 . S
C658 C657 1.376 . S
C658 C659 1.388 . S
C659 H646 0.930 . S
C659 C658 1.388 . S
C659 C660 1.390 1_554 S
C660 C659 1.390 1_556 S
C660 C661 1.394 1_556 S
C660 C666 1.465 . S
C661 C656 1.399 . S
C661 C660 1.394 1_554 S
C661 C662 1.516 1_554 S
C662 C661 1.516 1_556 S
C662 C663 1.502 . S
C662 C664 1.561 . S
C662 C665 1.526 . S
C663 H647 0.959 . S
C663 H648 0.959 . S
C663 H649 0.961 . S
C663 C662 1.502 . S
C664 H650 0.960 . S
C664 H651 0.961 . S
C664 H652 0.959 . S
C664 C662 1.561 . S
C665 C662 1.526 . S
C665 C666 1.396 . S
C665 C670 1.390 . S
C666 C660 1.465 . S
C666 C665 1.396 . S
C666 C667 1.399 . S
C667 H653 0.929 . S
C667 C666 1.399 . S
C667 C668 1.385 . S
C668 H654 0.931 . S
C668 C667 1.385 . S
C668 C669 1.389 . S
C669 C668 1.389 . S
C669 C670 1.387 . S
C670 H655 0.930 . S
C670 C665 1.390 . S
C670 C669 1.387 . S
H671 C683 0.930 . S
H672 C685 0.930 . S
H673 C686 0.930 . S
H674 C690 0.959 . S
H675 C690 0.959 . S
H676 C690 0.961 1_554 S
H677 C691 0.960 . S
H678 C691 0.961 . S
H679 C691 0.959 . S
H680 C694 0.929 . S
H681 C695 0.931 . S
H682 C697 0.930 . S
C683 H671 0.930 . S
C683 C684 1.399 . S
C683 C688 1.399 . S
C684 C683 1.399 . S
C684 C685 1.376 . S
C685 H672 0.930 . S
C685 C684 1.376 . S
C685 C686 1.388 . S
C686 H673 0.930 . S
C686 C685 1.388 . S
C686 C687 1.390 1_554 S
C687 C686 1.390 1_556 S
C687 C688 1.394 1_556 S
C687 C693 1.465 . S
C688 C683 1.399 . S
C688 C687 1.394 1_554 S
C688 C689 1.516 1_554 S
C689 C688 1.516 1_556 S
C689 C690 1.502 . S
C689 C691 1.561 . S
C689 C692 1.526 . S
C690 H674 0.959 . S
C690 H675 0.959 . S
C690 H676 0.961 1_556 S
C690 C689 1.502 . S
C691 H677 0.960 . S
C691 H678 0.961 . S
C691 H679 0.959 . S
C691 C689 1.561 . S
C692 C689 1.526 . S
C692 C693 1.396 . S
C692 C697 1.390 . S
C693 C687 1.465 . S
C693 C692 1.396 . S
C693 C694 1.399 . S
C694 H680 0.929 . S
C694 C693 1.399 . S
C694 C695 1.385 . S
C695 H681 0.931 . S
C695 C694 1.385 . S
C695 C696 1.389 . S
C696 C695 1.389 . S
C696 C697 1.387 . S
C697 H682 0.930 . S
C697 C692 1.390 . S
C697 C696 1.387 . S
H698 C710 0.930 . S
H699 C712 0.930 . S
H700 C713 0.930 . S
H701 C717 0.959 . S
H702 C717 0.959 . S
H703 C717 0.961 . S
H704 C718 0.960 . S
H705 C718 0.961 . S
H706 C718 0.959 . S
H707 C721 0.929 . S
H708 C722 0.931 . S
H709 C724 0.930 . S
C710 H698 0.930 . S
C710 C711 1.399 . S
C710 C715 1.399 . S
C711 C710 1.399 . S
C711 C712 1.376 . S
C712 H699 0.930 . S
C712 C711 1.376 . S
C712 C713 1.388 . S
C713 H700 0.930 . S
C713 C712 1.388 . S
C713 C714 1.390 . S
C714 C713 1.390 . S
C714 C715 1.394 . S
C714 C720 1.465 . S
C715 C710 1.399 . S
C715 C714 1.394 . S
C715 C716 1.516 . S
C716 C715 1.516 . S
C716 C717 1.502 . S
C716 C718 1.561 . S
C716 C719 1.526 1_554 S
C717 H701 0.959 . S
C717 H702 0.959 . S
C717 H703 0.961 . S
C717 C716 1.502 . S
C718 H704 0.960 . S
C718 H705 0.961 . S
C718 H706 0.959 . S
C718 C716 1.561 . S
C719 C716 1.526 1_556 S
C719 C720 1.396 1_556 S
C719 C724 1.390 . S
C720 C714 1.465 . S
C720 C719 1.396 1_554 S
C720 C721 1.399 1_554 S
C721 H707 0.929 . S
C721 C720 1.399 1_556 S
C721 C722 1.385 . S
C722 H708 0.931 . S
C722 C721 1.385 . S
C722 C723 1.389 . S
C723 C722 1.389 . S
C723 C724 1.387 . S
C724 H709 0.930 . S
C724 C719 1.390 . S
C724 C723 1.387 . S
H725 C737 0.930 . S
H726 C739 0.930 . S
H727 C740 0.930 . S
H728 C744 0.959 . S
H729 C744 0.959 . S
H730 C744 0.961 . S
H731 C745 0.960 . S
H732 C745 0.961 . S
H733 C745 0.959 . S
H734 C748 0.929 . S
H735 C749 0.931 . S
H736 C751 0.930 . S
C737 H725 0.930 . S
C737 C738 1.399 . S
C737 C742 1.399 . S
C738 C737 1.399 . S
C738 C739 1.376 . S
C739 H726 0.930 . S
C739 C738 1.376 . S
C739 C740 1.388 . S
C740 H727 0.930 . S
C740 C739 1.388 . S
C740 C741 1.390 1_556 S
C741 C740 1.390 1_554 S
C741 C742 1.394 1_554 S
C741 C747 1.465 . S
C742 C737 1.399 . S
C742 C741 1.394 1_556 S
C742 C743 1.516 1_556 S
C743 C742 1.516 1_554 S
C743 C744 1.502 . S
C743 C745 1.561 . S
C743 C746 1.526 . S
C744 H728 0.959 . S
C744 H729 0.959 . S
C744 H730 0.961 . S
C744 C743 1.502 . S
C745 H731 0.960 . S
C745 H732 0.961 . S
C745 H733 0.959 . S
C745 C743 1.561 . S
C746 C743 1.526 . S
C746 C747 1.396 . S
C746 C751 1.390 . S
C747 C741 1.465 . S
C747 C746 1.396 . S
C747 C748 1.399 . S
C748 H734 0.929 . S
C748 C747 1.399 . S
C748 C749 1.385 . S
C749 H735 0.931 . S
C749 C748 1.385 . S
C749 C750 1.389 . S
C750 C749 1.389 . S
C750 C751 1.387 . S
C751 H736 0.930 . S
C751 C746 1.390 . S
C751 C750 1.387 . S
H752 C764 0.930 . S
H753 C766 0.930 . S
H754 C767 0.930 . S
H755 C771 0.959 . S
H756 C771 0.959 . S
H757 C771 0.961 . S
H758 C772 0.960 . S
H759 C772 0.961 . S
H760 C772 0.959 . S
H761 C775 0.929 . S
H762 C776 0.931 . S
H763 C778 0.930 . S
C764 H752 0.930 . S
C764 C765 1.399 . S
C764 C769 1.399 . S
C765 C764 1.399 . S
C765 C766 1.376 . S
C766 H753 0.930 . S
C766 C765 1.376 . S
C766 C767 1.388 . S
C767 H754 0.930 . S
C767 C766 1.388 . S
C767 C768 1.390 . S
C768 C767 1.390 . S
C768 C769 1.394 . S
C768 C774 1.465 . S
C769 C764 1.399 . S
C769 C768 1.394 . S
C769 C770 1.516 . S
C770 C769 1.516 . S
C770 C771 1.502 . S
C770 C772 1.561 . S
C770 C773 1.526 . S
C771 H755 0.959 . S
C771 H756 0.959 . S
C771 H757 0.961 . S
C771 C770 1.502 . S
C772 H758 0.960 . S
C772 H759 0.961 . S
C772 H760 0.959 . S
C772 C770 1.561 . S
C773 C770 1.526 . S
C773 C774 1.396 . S
C773 C778 1.390 . S
C774 C768 1.465 . S
C774 C773 1.396 . S
C774 C775 1.399 . S
C775 H761 0.929 . S
C775 C774 1.399 . S
C775 C776 1.385 . S
C776 H762 0.931 . S
C776 C775 1.385 . S
C776 C777 1.389 . S
C777 C776 1.389 . S
C777 C778 1.387 . S
C778 H763 0.930 . S
C778 C773 1.390 . S
C778 C777 1.387 . S
H779 C791 0.930 . S
H780 C793 0.930 . S
H781 C794 0.930 . S
H782 C798 0.959 . S
H783 C798 0.959 . S
H784 C798 0.961 . S
H785 C799 0.960 . S
H786 C799 0.961 . S
H787 C799 0.959 . S
H788 C802 0.929 . S
H789 C803 0.931 . S
H790 C805 0.930 . S
C791 H779 0.930 . S
C791 C792 1.399 . S
C791 C796 1.399 . S
C792 C791 1.399 . S
C792 C793 1.376 . S
C793 H780 0.930 . S
C793 C792 1.376 . S
C793 C794 1.388 . S
C794 H781 0.930 . S
C794 C793 1.388 . S
C794 C795 1.390 . S
C795 C794 1.390 . S
C795 C796 1.394 . S
C795 C801 1.465 . S
C796 C791 1.399 . S
C796 C795 1.394 . S
C796 C797 1.516 . S
C797 C796 1.516 . S
C797 C798 1.502 . S
C797 C799 1.561 . S
C797 C800 1.526 . S
C798 H782 0.959 . S
C798 H783 0.959 . S
C798 H784 0.961 . S
C798 C797 1.502 . S
C799 H785 0.960 . S
C799 H786 0.961 . S
C799 H787 0.959 . S
C799 C797 1.561 . S
C800 C797 1.526 . S
C800 C801 1.396 . S
C800 C805 1.390 . S
C801 C795 1.465 . S
C801 C800 1.396 . S
C801 C802 1.399 . S
C802 H788 0.929 . S
C802 C801 1.399 . S
C802 C803 1.385 . S
C803 H789 0.931 . S
C803 C802 1.385 . S
C803 C804 1.389 . S
C804 C803 1.389 . S
C804 C805 1.387 . S
C805 H790 0.930 . S
C805 C800 1.390 . S
C805 C804 1.387 . S
H806 C818 0.930 . S
H807 C820 0.930 . S
H808 C821 0.930 . S
H809 C825 0.959 . S
H810 C825 0.959 . S
H811 C825 0.961 . S
H812 C826 0.960 . S
H813 C826 0.961 . S
H814 C826 0.959 . S
H815 C829 0.929 . S
H816 C830 0.931 . S
H817 C832 0.930 . S
C818 H806 0.930 . S
C818 C819 1.399 . S
C818 C823 1.399 . S
C819 C818 1.399 . S
C819 C820 1.376 . S
C820 H807 0.930 . S
C820 C819 1.376 . S
C820 C821 1.388 . S
C821 H808 0.930 . S
C821 C820 1.388 . S
C821 C822 1.390 . S
C822 C821 1.390 . S
C822 C823 1.394 . S
C822 C828 1.465 . S
C823 C818 1.399 . S
C823 C822 1.394 . S
C823 C824 1.516 . S
C824 C823 1.516 . S
C824 C825 1.502 . S
C824 C826 1.561 . S
C824 C827 1.526 . S
C825 H809 0.959 . S
C825 H810 0.959 . S
C825 H811 0.961 . S
C825 C824 1.502 . S
C826 H812 0.960 . S
C826 H813 0.961 . S
C826 H814 0.959 . S
C826 C824 1.561 . S
C827 C824 1.526 . S
C827 C828 1.396 . S
C827 C832 1.390 . S
C828 C822 1.465 . S
C828 C827 1.396 . S
C828 C829 1.399 . S
C829 H815 0.929 . S
C829 C828 1.399 . S
C829 C830 1.385 . S
C830 H816 0.931 . S
C830 C829 1.385 . S
C830 C831 1.389 . S
C831 C830 1.389 . S
C831 C832 1.387 . S
C832 H817 0.930 . S
C832 C827 1.390 . S
C832 C831 1.387 . S
H833 C845 0.930 . S
H834 C847 0.930 . S
H835 C848 0.930 . S
H836 C852 0.959 . S
H837 C852 0.959 . S
H838 C852 0.961 . S
H839 C853 0.960 . S
H840 C853 0.961 . S
H841 C853 0.959 . S
H842 C856 0.929 . S
H843 C857 0.931 . S
H844 C859 0.930 . S
C845 H833 0.930 . S
C845 C846 1.399 . S
C845 C850 1.399 . S
C846 C845 1.399 . S
C846 C847 1.376 . S
C847 H834 0.930 . S
C847 C846 1.376 . S
C847 C848 1.388 . S
C848 H835 0.930 . S
C848 C847 1.388 . S
C848 C849 1.390 . S
C849 C848 1.390 . S
C849 C850 1.394 . S
C849 C855 1.465 . S
C850 C845 1.399 . S
C850 C849 1.394 . S
C850 C851 1.516 . S
C851 C850 1.516 . S
C851 C852 1.502 . S
C851 C853 1.561 . S
C851 C854 1.526 . S
C852 H836 0.959 . S
C852 H837 0.959 . S
C852 H838 0.961 . S
C852 C851 1.502 . S
C853 H839 0.960 . S
C853 H840 0.961 . S
C853 H841 0.959 . S
C853 C851 1.561 . S
C854 C851 1.526 . S
C854 C855 1.396 . S
C854 C859 1.390 . S
C855 C849 1.465 . S
C855 C854 1.396 . S
C855 C856 1.399 . S
C856 H842 0.929 . S
C856 C855 1.399 . S
C856 C857 1.385 . S
C857 H843 0.931 . S
C857 C856 1.385 . S
C857 C858 1.389 . S
C858 C857 1.389 . S
C858 C859 1.387 . S
C859 H844 0.930 . S
C859 C854 1.390 . S
C859 C858 1.387 . S
H860 C872 0.930 . S
H861 C874 0.930 . S
H862 C875 0.930 . S
H863 C879 0.959 . S
H864 C879 0.959 . S
H865 C879 0.961 1_455 S
H866 C880 0.960 . S
H867 C880 0.961 1_655 S
H868 C880 0.959 . S
H869 C883 0.929 . S
H870 C884 0.931 . S
H871 C886 0.930 . S
C872 H860 0.930 . S
C872 C873 1.399 . S
C872 C877 1.399 . S
C873 C872 1.399 . S
C873 C874 1.376 . S
C874 H861 0.930 . S
C874 C873 1.376 . S
C874 C875 1.388 . S
C875 H862 0.930 . S
C875 C874 1.388 . S
C875 C876 1.390 . S
C876 C875 1.390 . S
C876 C877 1.394 . S
C876 C882 1.465 1_455 S
C877 C872 1.399 . S
C877 C876 1.394 . S
C877 C878 1.522 1_455 S
C878 C877 1.522 1_655 S
C878 C879 1.502 . S
C878 C880 1.561 1_655 S
C878 C881 1.520 . S
C879 H863 0.959 . S
C879 H864 0.959 . S
C879 H865 0.961 1_655 S
C879 C878 1.502 . S
C880 H866 0.960 . S
C880 H867 0.961 1_455 S
C880 H868 0.959 . S
C880 C878 1.561 1_455 S
C881 C878 1.520 . S
C881 C882 1.396 . S
C881 C886 1.390 . S
C882 C876 1.465 1_655 S
C882 C881 1.396 . S
C882 C883 1.399 . S
C883 H869 0.929 . S
C883 C882 1.399 . S
C883 C884 1.385 . S
C884 H870 0.931 . S
C884 C883 1.385 . S
C884 C885 1.389 . S
C885 C884 1.389 . S
C885 C886 1.387 . S
C886 H871 0.930 . S
C886 C881 1.390 . S
C886 C885 1.387 . S
H887 C899 0.930 . S
H888 C901 0.930 . S
H889 C902 0.930 . S
H890 C906 0.959 . S
H891 C906 0.959 . S
H892 C906 0.961 1_655 S
H893 C907 0.960 1_655 S
H894 C907 0.961 . S
H895 C907 0.959 . S
H896 C910 0.929 . S
H897 C911 0.931 . S
H898 C913 0.930 . S
C899 H887 0.930 . S
C899 C900 1.399 . S
C899 C904 1.399 . S
C900 C899 1.399 . S
C900 C901 1.376 . S
C901 H888 0.930 . S
C901 C900 1.376 . S
C901 C902 1.388 . S
C902 H889 0.930 . S
C902 C901 1.388 . S
C902 C903 1.390 . S
C903 C902 1.390 . S
C903 C904 1.394 . S
C903 C909 1.465 1_655 S
C904 C899 1.399 . S
C904 C903 1.394 . S
C904 C905 1.516 1_655 S
C905 C904 1.516 1_455 S
C905 C906 1.502 . S
C905 C907 1.561 . S
C905 C908 1.526 . S
C906 H890 0.959 . S
C906 H891 0.959 . S
C906 H892 0.961 1_455 S
C906 C905 1.502 . S
C907 H893 0.960 1_455 S
C907 H894 0.961 . S
C907 H895 0.959 . S
C907 C905 1.561 . S
C908 C905 1.526 . S
C908 C909 1.396 . S
C908 C913 1.390 . S
C909 C903 1.465 1_455 S
C909 C908 1.396 . S
C909 C910 1.399 . S
C910 H896 0.929 . S
C910 C909 1.399 . S
C910 C911 1.385 . S
C911 H897 0.931 . S
C911 C910 1.385 . S
C911 C912 1.389 . S
C912 C911 1.389 . S
C912 C913 1.387 . S
C913 H898 0.930 . S
C913 C908 1.390 . S
C913 C912 1.387 . S
H914 C926 0.930 . S
H915 C928 0.930 . S
H916 C929 0.930 . S
H917 C933 0.959 . S
H918 C933 0.959 . S
H919 C933 0.961 . S
H920 C934 0.960 . S
H921 C934 0.961 . S
H922 C934 0.959 . S
H923 C937 0.929 . S
H924 C938 0.931 . S
H925 C940 0.930 . S
C926 H914 0.930 . S
C926 C927 1.399 . S
C926 C931 1.399 . S
C927 C926 1.399 . S
C927 C928 1.376 . S
C928 H915 0.930 . S
C928 C927 1.376 . S
C928 C929 1.388 . S
C929 H916 0.930 . S
C929 C928 1.388 . S
C929 C930 1.390 . S
C930 C929 1.390 . S
C930 C931 1.394 . S
C930 C936 1.465 . S
C931 C926 1.399 . S
C931 C930 1.394 . S
C931 C932 1.516 . S
C932 C931 1.516 . S
C932 C933 1.502 . S
C932 C934 1.561 . S
C932 C935 1.526 . S
C933 H917 0.959 . S
C933 H918 0.959 . S
C933 H919 0.961 . S
C933 C932 1.502 . S
C934 H920 0.960 . S
C934 H921 0.961 . S
C934 H922 0.959 . S
C934 C932 1.561 . S
C935 C932 1.526 . S
C935 C936 1.396 . S
C935 C940 1.390 . S
C936 C930 1.465 . S
C936 C935 1.396 . S
C936 C937 1.399 . S
C937 H923 0.929 . S
C937 C936 1.399 . S
C937 C938 1.385 . S
C938 H924 0.931 . S
C938 C937 1.385 . S
C938 C939 1.389 . S
C939 C938 1.389 . S
C939 C940 1.387 . S
C940 H925 0.930 . S
C940 C935 1.390 . S
C940 C939 1.387 . S
H941 C953 0.930 . S
H942 C955 0.930 . S
H943 C956 0.930 . S
H944 C960 0.959 . S
H945 C960 0.959 . S
H946 C960 0.961 . S
H947 C961 0.960 . S
H948 C961 0.961 . S
H949 C961 0.959 . S
H950 C964 0.929 . S
H951 C965 0.931 . S
H952 C967 0.930 . S
C953 H941 0.930 . S
C953 C954 1.399 . S
C953 C958 1.399 . S
C954 C953 1.399 . S
C954 C955 1.376 . S
C955 H942 0.930 . S
C955 C954 1.376 . S
C955 C956 1.388 . S
C956 H943 0.930 . S
C956 C955 1.388 . S
C956 C957 1.390 . S
C957 C956 1.390 . S
C957 C958 1.394 . S
C957 C963 1.465 . S
C958 C953 1.399 . S
C958 C957 1.394 . S
C958 C959 1.516 . S
C959 C958 1.516 . S
C959 C960 1.502 . S
C959 C961 1.561 . S
C959 C962 1.526 . S
C960 H944 0.959 . S
C960 H945 0.959 . S
C960 H946 0.961 . S
C960 C959 1.502 . S
C961 H947 0.960 . S
C961 H948 0.961 . S
C961 H949 0.959 . S
C961 C959 1.561 . S
C962 C959 1.526 . S
C962 C963 1.396 . S
C962 C967 1.390 . S
C963 C957 1.465 . S
C963 C962 1.396 . S
C963 C964 1.399 . S
C964 H950 0.929 . S
C964 C963 1.399 . S
C964 C965 1.385 . S
C965 H951 0.931 . S
C965 C964 1.385 . S
C965 C966 1.389 . S
C966 C965 1.389 . S
C966 C967 1.387 . S
C967 H952 0.930 . S
C967 C962 1.390 . S
C967 C966 1.387 . S
C333 C29 1.663 . S
C345 C288 1.635 . S
C360 C248 1.634 . S
C372 C69 1.651 . S
C387 C229 1.635 . S
C399 C88 1.661 . S
C414 C189 1.665 . S
C426 C128 1.631 . S
C441 C97 1.539 . S
C453 C17 1.578 . S
C468 C57 1.585 . S
C480 C137 1.534 . S
C495 C122 1.513 . S
C507 C42 1.594 . S
C522 C82 1.584 . S
C534 C2 1.536 . S
C549 C177 1.424 . S
C561 C257 1.468 . S
C576 C217 1.467 1_554 S
C588 C297 1.423 1_554 S
C603 C282 1.413 . S
C615 C202 1.466 1_556 S
C630 C242 1.475 . S
C642 C162 1.433 . S
C657 C31 2.032 . S
C669 C12 2.054 . S
C684 C71 2.061 . S
C696 C52 2.036 . S
C711 C111 2.060 . S
C723 C92 2.037 . S
C738 C132 2.034 . S
C750 C151 2.052 . S
C765 C172 2.060 . S
C777 C191 2.037 . S
C792 C231 2.035 . S
C804 C212 2.049 . S
C819 C252 2.036 . S
C831 C271 2.049 . S
C846 C292 2.030 . S
C858 C311 2.055 . S
C873 C8 2.268 . S
C885 C48 2.267 . S
C900 C149 2.250 . S
C912 C109 2.233 . S
C927 C168 2.262 . S
C939 C208 2.261 . S
C954 C309 2.263 . S
C966 C269 2.271 . S
