# Generated by pormake.
# Topology ung, (4)-cn, num edge types: 1
# Building blocks:
#     Node 0, Type 0, BuildingBlock: GALJAG_clean_sbu_0, # of connection points: 4
#     Node 1, Type 0, BuildingBlock: GALJAG_clean_sbu_0, # of connection points: 4
#     Node 2, Type 0, BuildingBlock: GALJAG_clean_sbu_0, # of connection points: 4
#     Node 3, Type 0, BuildingBlock: GALJAG_clean_sbu_0, # of connection points: 4
#     Node 4, Type 0, BuildingBlock: GALJAG_clean_sbu_0, # of connection points: 4
#     Node 5, Type 0, BuildingBlock: GALJAG_clean_sbu_0, # of connection points: 4
#     Node 6, Type 0, BuildingBlock: GALJAG_clean_sbu_0, # of connection points: 4
#     Node 7, Type 0, BuildingBlock: GALJAG_clean_sbu_0, # of connection points: 4
#     Node 8, Type 0, BuildingBlock: GALJAG_clean_sbu_0, # of connection points: 4
#     Node 9, Type 0, BuildingBlock: GALJAG_clean_sbu_0, # of connection points: 4
#     Node 10, Type 0, BuildingBlock: GALJAG_clean_sbu_0, # of connection points: 4
#     Node 11, Type 0, BuildingBlock: GALJAG_clean_sbu_0, # of connection points: 4
#     Node 12, Type 0, BuildingBlock: GALJAG_clean_sbu_0, # of connection points: 4
#     Node 13, Type 0, BuildingBlock: GALJAG_clean_sbu_0, # of connection points: 4
#     Node 14, Type 0, BuildingBlock: GALJAG_clean_sbu_0, # of connection points: 4
#     Node 15, Type 0, BuildingBlock: GALJAG_clean_sbu_0, # of connection points: 4
#     Node 16, Type 0, BuildingBlock: GALJAG_clean_sbu_0, # of connection points: 4
#     Node 17, Type 0, BuildingBlock: GALJAG_clean_sbu_0, # of connection points: 4
#     Edge 18, Type (0, 0), BuildingBlock: UVAHIK_clean_linker_0, # of connection points: 2
#     Edge 19, Type (0, 0), BuildingBlock: UVAHIK_clean_linker_0, # of connection points: 2
#     Edge 20, Type (0, 0), BuildingBlock: UVAHIK_clean_linker_0, # of connection points: 2
#     Edge 21, Type (0, 0), BuildingBlock: UVAHIK_clean_linker_0, # of connection points: 2
#     Edge 22, Type (0, 0), BuildingBlock: UVAHIK_clean_linker_0, # of connection points: 2
#     Edge 23, Type (0, 0), BuildingBlock: UVAHIK_clean_linker_0, # of connection points: 2
#     Edge 24, Type (0, 0), BuildingBlock: UVAHIK_clean_linker_0, # of connection points: 2
#     Edge 25, Type (0, 0), BuildingBlock: UVAHIK_clean_linker_0, # of connection points: 2
#     Edge 26, Type (0, 0), BuildingBlock: UVAHIK_clean_linker_0, # of connection points: 2
#     Edge 27, Type (0, 0), BuildingBlock: UVAHIK_clean_linker_0, # of connection points: 2
#     Edge 28, Type (0, 0), BuildingBlock: UVAHIK_clean_linker_0, # of connection points: 2
#     Edge 29, Type (0, 0), BuildingBlock: UVAHIK_clean_linker_0, # of connection points: 2
#     Edge 30, Type (0, 0), BuildingBlock: UVAHIK_clean_linker_0, # of connection points: 2
#     Edge 31, Type (0, 0), BuildingBlock: UVAHIK_clean_linker_0, # of connection points: 2
#     Edge 32, Type (0, 0), BuildingBlock: UVAHIK_clean_linker_0, # of connection points: 2
#     Edge 33, Type (0, 0), BuildingBlock: UVAHIK_clean_linker_0, # of connection points: 2
#     Edge 34, Type (0, 0), BuildingBlock: UVAHIK_clean_linker_0, # of connection points: 2
#     Edge 35, Type (0, 0), BuildingBlock: UVAHIK_clean_linker_0, # of connection points: 2
#     Edge 36, Type (0, 0), BuildingBlock: UVAHIK_clean_linker_0, # of connection points: 2
#     Edge 37, Type (0, 0), BuildingBlock: UVAHIK_clean_linker_0, # of connection points: 2
#     Edge 38, Type (0, 0), BuildingBlock: UVAHIK_clean_linker_0, # of connection points: 2
#     Edge 39, Type (0, 0), BuildingBlock: UVAHIK_clean_linker_0, # of connection points: 2
#     Edge 40, Type (0, 0), BuildingBlock: UVAHIK_clean_linker_0, # of connection points: 2
#     Edge 41, Type (0, 0), BuildingBlock: UVAHIK_clean_linker_0, # of connection points: 2
#     Edge 42, Type (0, 0), BuildingBlock: UVAHIK_clean_linker_0, # of connection points: 2
#     Edge 43, Type (0, 0), BuildingBlock: UVAHIK_clean_linker_0, # of connection points: 2
#     Edge 44, Type (0, 0), BuildingBlock: UVAHIK_clean_linker_0, # of connection points: 2
#     Edge 45, Type (0, 0), BuildingBlock: UVAHIK_clean_linker_0, # of connection points: 2
#     Edge 46, Type (0, 0), BuildingBlock: UVAHIK_clean_linker_0, # of connection points: 2
#     Edge 47, Type (0, 0), BuildingBlock: UVAHIK_clean_linker_0, # of connection points: 2
#     Edge 48, Type (0, 0), BuildingBlock: UVAHIK_clean_linker_0, # of connection points: 2
#     Edge 49, Type (0, 0), BuildingBlock: UVAHIK_clean_linker_0, # of connection points: 2
#     Edge 50, Type (0, 0), BuildingBlock: UVAHIK_clean_linker_0, # of connection points: 2
#     Edge 51, Type (0, 0), BuildingBlock: UVAHIK_clean_linker_0, # of connection points: 2
#     Edge 52, Type (0, 0), BuildingBlock: UVAHIK_clean_linker_0, # of connection points: 2
#     Edge 53, Type (0, 0), BuildingBlock: UVAHIK_clean_linker_0, # of connection points: 2
# Relax obj value: 0.030
# Max RMSD: 0.132
# Mean RMSD: 0.132
data_MOF--net-ung--node1-GALJAG_clean_sbu_0--edge1-UVAHIK_clean_linker_0
_symmetry_space_group_name_H-M    P1
_symmetry_Int_Tables_number       1
_symmetry_cell_setting            triclinic
loop_
_symmetry_equiv_pos_as_xyz
'x, y, z'
_cell_length_a     101.74329
_cell_length_b     101.65334
_cell_length_c     26.171712
_cell_angle_alpha  90.00569
_cell_angle_beta   90.037168
_cell_angle_gamma 120.07394
loop_
_atom_site_label
_atom_site_type_symbol
_atom_site_fract_x
_atom_site_fract_y
_atom_site_fract_z
_atom_type_partial_charge
In0 In 0.09429 0.66683 0.24484 0.0
O1 O 0.10436 0.65875 0.18261 0.0
O2 O 0.0807 0.64542 0.19876 0.0
C3 C 0.1174 0.69397 0.27345 0.0
C4 C 0.09357 0.65014 0.32491 0.0
C5 C 0.07403 0.67436 0.21111 0.0
O6 O 0.117 0.68849 0.22971 0.0
O7 O 0.10614 0.6859 0.30166 0.0
O8 O 0.07171 0.66647 0.25098 0.0
O9 O 0.08663 0.67864 0.18954 0.0
C10 C 0.09182 0.64691 0.17293 0.0
O11 O 0.08311 0.6532 0.31695 0.0
O12 O 0.10422 0.65556 0.29267 0.0
In13 In 0.52385 0.52092 0.25071 0.0
O14 O 0.5252 0.53644 0.18514 0.0
O15 O 0.54526 0.53626 0.20833 0.0
C16 C 0.49611 0.51022 0.29087 0.0
C17 C 0.54099 0.53765 0.32914 0.0
C18 C 0.52087 0.49628 0.2029 0.0
O19 O 0.50159 0.52116 0.25946 0.0
O20 O 0.50445 0.5046 0.30032 0.0
O21 O 0.52555 0.49932 0.24855 0.0
O22 O 0.51764 0.50551 0.18225 0.0
C23 C 0.5393 0.54158 0.17863 0.0
O24 O 0.54279 0.52728 0.3094 0.0
O25 O 0.53038 0.53907 0.31022 0.0
In26 In 0.66094 0.09373 0.2472 0.0
O27 O 0.64325 0.07986 0.18609 0.0
O28 O 0.64899 0.10285 0.19989 0.0
C29 C 0.66914 0.07584 0.29577 0.0
C30 C 0.64526 0.09638 0.32435 0.0
C31 C 0.68604 0.11162 0.1936 0.0
O32 O 0.65913 0.07073 0.26095 0.0
O33 O 0.67512 0.08991 0.30461 0.0
O34 O 0.68204 0.11672 0.23101 0.0
O35 O 0.67761 0.0976 0.18474 0.0
C36 C 0.64107 0.09076 0.17502 0.0
O37 O 0.6577 0.10764 0.30968 0.0
O38 O 0.64119 0.08412 0.30068 0.0
In39 In 0.08731 0.52053 0.74756 0.0
O40 O 0.10014 0.53954 0.68984 0.0
O41 O 0.07743 0.53348 0.70965 0.0
C42 C 0.10812 0.51407 0.78326 0.0
C43 C 0.0849 0.53437 0.83095 0.0
C44 C 0.0682 0.49531 0.69554 0.0
O45 O 0.11076 0.52265 0.74499 0.0
O46 O 0.09491 0.50838 0.80151 0.0
O47 O 0.06562 0.4973 0.74134 0.0
O48 O 0.0804 0.50582 0.677 0.0
C49 C 0.08918 0.54198 0.684 0.0
O50 O 0.07346 0.52273 0.81254 0.0
O51 O 0.09722 0.53866 0.80754 0.0
In52 In 0.65877 0.6686 0.7408 0.0
O53 O 0.6529 0.65268 0.80907 0.0
O54 O 0.63483 0.65292 0.76904 0.0
C55 C 0.68733 0.67389 0.73216 0.0
C56 C 0.64651 0.65729 0.64867 0.0
C57 C 0.66237 0.69481 0.77812 0.0
O58 O 0.67634 0.66091 0.74296 0.0
O59 O 0.68394 0.68417 0.7268 0.0
O60 O 0.66172 0.69224 0.73064 0.0
O61 O 0.66119 0.68418 0.8062 0.0
C62 C 0.63877 0.64748 0.80522 0.0
O63 O 0.64315 0.66582 0.67364 0.0
O64 O 0.6564 0.65508 0.6693 0.0
In65 In 0.5151 0.08886 0.74479 0.0
O66 O 0.52987 0.09895 0.81557 0.0
O67 O 0.52598 0.07756 0.78747 0.0
C68 C 0.50788 0.10976 0.71582 0.0
C69 C 0.53413 0.09184 0.66911 0.0
C70 C 0.48801 0.06587 0.77389 0.0
O71 O 0.51568 0.1115 0.75555 0.0
O72 O 0.50352 0.09742 0.69231 0.0
O73 O 0.49335 0.06627 0.72993 0.0
O74 O 0.4962 0.07709 0.80223 0.0
C75 C 0.53232 0.08797 0.82039 0.0
O76 O 0.5219 0.07948 0.67686 0.0
O77 O 0.53652 0.10253 0.69904 0.0
In78 In 0.7586 -0.00218 0.57655 0.0
O79 O 0.74843 0.98378 0.64909 0.0
O80 O 0.76621 0.98245 0.61087 0.0
C81 C 0.73776 0.00604 0.55808 0.0
C82 C 0.7581 0.9826 0.49195 0.0
C83 C 0.78219 0.02361 0.61225 0.0
O84 O 0.73426 0.99345 0.57851 0.0
O85 O 0.75164 0.01438 0.5476 0.0
O86 O 0.78087 0.02017 0.56533 0.0
O87 O 0.77164 0.01409 0.64043 0.0
C88 C 0.75707 0.97819 0.64788 0.0
O89 O 0.77036 0.99299 0.51091 0.0
O90 O 0.74624 0.98052 0.51424 0.0
In91 In 0.18556 0.85587 0.57245 0.0
O92 O 0.19206 0.87531 0.51605 0.0
O93 O 0.20936 0.87126 0.54517 0.0
C94 C 0.15603 0.84389 0.59422 0.0
C95 C 0.1966 0.86817 0.66415 0.0
C96 C 0.18504 0.83344 0.51743 0.0
O97 O 0.16324 0.85625 0.56977 0.0
O98 O 0.16359 0.83754 0.60527 0.0
O99 O 0.18848 0.83517 0.56442 0.0
O100 O 0.18175 0.8429 0.4988 0.0
C101 C 0.206 0.87918 0.51678 0.0
O102 O 0.19863 0.85777 0.64599 0.0
O103 O 0.18895 0.87198 0.63636 0.0
In104 In 0.32659 0.42266 0.57323 0.0
O105 O 0.31349 0.41015 0.5013 0.0
O106 O 0.3232 0.43419 0.50522 0.0
C107 C 0.3272 0.40089 0.62918 0.0
C108 C 0.3065 0.42616 0.62911 0.0
C109 C 0.3562 0.44152 0.55514 0.0
O110 O 0.32301 0.39877 0.5829 0.0
O111 O 0.33117 0.41395 0.64646 0.0
O112 O 0.34787 0.44614 0.57461 0.0
O113 O 0.34963 0.42745 0.54586 0.0
C114 C 0.31538 0.42216 0.48002 0.0
O115 O 0.32059 0.4356 0.63122 0.0
O116 O 0.30274 0.41517 0.59897 0.0
In117 In 0.75907 0.85761 0.08944 0.0
O118 O 0.77156 0.87466 0.02553 0.0
O119 O 0.75377 0.87571 0.06455 0.0
C120 C 0.78062 0.8502 0.10645 0.0
C121 C 0.75457 0.86664 0.18111 0.0
C122 C 0.73716 0.83394 0.03765 0.0
O123 O 0.78384 0.86366 0.09696 0.0
O124 O 0.76662 0.84055 0.10656 0.0
O125 O 0.73734 0.83446 0.08594 0.0
O126 O 0.74802 0.84525 0.01605 0.0
C127 C 0.76371 0.88106 0.02999 0.0
O128 O 0.74368 0.85814 0.15201 0.0
O129 O 0.7675 0.86989 0.16483 0.0
In130 In 0.32624 0.99404 0.07208 0.0
O131 O 0.3239 0.98051 0.14488 0.0
O132 O 0.31052 0.99116 0.13661 0.0
C133 C 0.34833 0.99414 0.01646 0.0
C134 C 0.30254 0.97415 0.01645 0.0
C135 C 0.33913 0.02369 0.09404 0.0
O136 O 0.34662 0.99066 0.06342 0.0
O137 O 0.33895 -0.00243 -0.00191 0.0
O138 O 0.32667 0.01679 0.06996 0.0
O139 O 0.34507 0.01573 0.10493 0.0
C140 C 0.31389 0.98302 0.16367 0.0
O141 O 0.30677 0.9882 0.01646 0.0
O142 O 0.31033 0.97042 0.04397 0.0
In143 In 0.19154 0.43371 0.07987 0.0
O144 O 0.19315 0.42091 0.01071 0.0
O145 O 0.21223 0.44246 0.03064 0.0
C146 C 0.16451 0.4146 0.12174 0.0
C147 C 0.21025 0.4321 0.1481 0.0
C148 C 0.18777 0.45628 0.04384 0.0
O149 O 0.16804 0.41232 0.07761 0.0
O150 O 0.17438 0.4266 0.14345 0.0
O151 O 0.19254 0.45671 0.08883 0.0
O152 O 0.18462 0.4445 0.01869 0.0
C153 C 0.20664 0.4312 0.0007 0.0
O154 O 0.21071 0.44456 0.13858 0.0
O155 O 0.20022 0.42071 0.12411 0.0
In156 In 0.42038 0.32893 0.91575 0.0
O157 O 0.41035 0.31172 0.98071 0.0
O158 O 0.43281 0.3187 0.95455 0.0
C159 C 0.39955 0.3362 0.8868 0.0
C160 C 0.41834 0.3119 0.83488 0.0
C161 C 0.44206 0.35544 0.95382 0.0
O162 O 0.39731 0.32762 0.9248 0.0
O163 O 0.4123 0.34129 0.86544 0.0
O164 O 0.44309 0.35093 0.90971 0.0
O165 O 0.43002 0.3467 0.97786 0.0
C166 C 0.42211 0.3105 0.98466 0.0
O167 O 0.43014 0.32461 0.84327 0.0
O168 O 0.40779 0.30806 0.86695 0.0
In169 In 0.85131 0.18726 0.91302 0.0
O170 O 0.86461 0.18774 0.98441 0.0
O171 O 0.85419 0.20135 0.98324 0.0
C172 C 0.84951 0.16337 0.86299 0.0
C173 C 0.87239 0.20997 0.8561 0.0
C174 C 0.82197 0.17936 0.92246 0.0
O175 O 0.85033 0.16432 0.91121 0.0
O176 O 0.84947 0.17434 0.84061 0.0
O177 O 0.83198 0.19249 0.90829 0.0
O178 O 0.82674 0.17025 0.93077 0.0
C179 C 0.86234 0.19736 0.00727 0.0
O180 O 0.85845 0.2058 0.85279 0.0
O181 O 0.87559 0.20275 0.88823 0.0
In182 In 0.99243 0.75806 0.91467 0.0
O183 O 0.98623 0.77004 0.9761 0.0
O184 O 0.96899 0.74873 0.94655 0.0
C185 C 0.02119 0.77693 0.88652 0.0
C186 C 0.97888 0.75734 0.82634 0.0
C187 C -0.00412 0.73748 0.9675 0.0
O188 O 0.01369 0.78166 0.91138 0.0
O189 O 0.01425 0.76286 0.87722 0.0
O190 O 0.99021 0.73473 0.92301 0.0
O191 O -0.00018 0.75056 0.98463 0.0
C192 C 0.97241 0.75963 0.97684 0.0
O193 O 0.97821 0.74551 0.84482 0.0
O194 O 0.98663 0.76933 0.85186 0.0
In195 In 0.4254 0.18975 0.41238 0.0
O196 O 0.41088 0.19393 0.46948 0.0
O197 O 0.4322 0.21259 0.44631 0.0
C198 C 0.4081 0.16094 0.38111 0.0
C199 C 0.42717 0.20364 0.32361 0.0
C200 C 0.44597 0.1876 0.47024 0.0
O201 O 0.40257 0.16775 0.40562 0.0
O202 O 0.42225 0.16856 0.37374 0.0
O203 O 0.44922 0.19365 0.42637 0.0
O204 O 0.43241 0.18264 0.48425 0.0
C205 C 0.42039 0.208 0.47296 0.0
O206 O 0.43887 0.20484 0.34502 0.0
O207 O 0.41484 0.19529 0.34656 0.0
In208 In -0.00561 0.32705 0.40464 0.0
O209 O 0.99079 0.31146 0.47276 0.0
O210 O 0.97439 0.31819 0.45717 0.0
C211 C 0.02097 0.33296 0.36383 0.0
C212 C 0.97405 0.30772 0.33741 0.0
C213 C 0.00119 0.3548 0.43704 0.0
O214 O 0.01722 0.32782 0.40874 0.0
O215 O 0.01137 0.33505 0.34019 0.0
O216 O -0.00492 0.3498 0.39391 0.0
O217 O 0.00408 0.346 0.46231 0.0
C218 C 0.97839 0.3107 0.48514 0.0
O219 O 0.97541 0.32058 0.34658 0.0
O220 O 0.98324 0.30496 0.36098 0.0
In221 In 0.8495 0.75678 0.4207 0.0
O222 O 0.85285 0.7444 0.3532 0.0
O223 O 0.87057 0.7667 0.37342 0.0
C224 C 0.82363 0.73849 0.46979 0.0
C225 C 0.86801 0.75771 0.49447 0.0
C226 C 0.84268 0.77604 0.37458 0.0
O227 O 0.82807 0.73374 0.43249 0.0
O228 O 0.83202 0.75239 0.48062 0.0
O229 O 0.85174 0.78016 0.41219 0.0
O230 O 0.83685 0.76223 0.36205 0.0
C231 C 0.86608 0.7554 0.34411 0.0
O232 O 0.8671 0.76935 0.48305 0.0
O233 O 0.85947 0.74586 0.46924 0.0
C234 C 0.07014 0.54072 0.89307 0.0
C235 C 0.08411 0.54316 0.87437 0.0
C236 C 0.06976 0.55042 0.93028 0.0
C237 C 0.09385 0.57998 0.02498 0.0
H238 H 0.06706 0.59602 -0.00205 0.0
C239 C 0.10314 0.63543 0.11615 0.0
C240 C 0.09026 0.63508 0.13693 0.0
C241 C 0.10158 0.62343 0.08576 0.0
C242 C 0.07449 0.59153 0.00626 0.0
H243 H 0.1086 0.55712 0.88134 0.0
H244 H 0.10794 0.57397 0.94546 0.0
H245 H 0.06524 0.57533 0.9454 0.0
H246 H 0.06565 0.62222 0.14112 0.0
H247 H 0.06295 0.60134 0.08778 0.0
H248 H 0.10335 0.59644 0.08499 0.0
C249 C 0.09727 0.56458 0.93204 0.0
C250 C 0.07339 0.57963 0.97641 0.0
C251 C 0.09764 0.55498 0.89495 0.0
C252 C 0.07579 0.62278 0.12558 0.0
C253 C 0.07422 0.61085 0.09495 0.0
C254 C 0.09499 0.59191 0.0546 0.0
C255 C 0.08334 0.5626 0.94948 0.0
C256 C 0.08323 0.5739 0.98494 0.0
C257 C 0.08711 0.61095 0.07538 0.0
C258 C 0.08548 0.59795 0.04503 0.0
H259 H 0.05954 0.53167 0.87779 0.0
H260 H 0.05885 0.54853 0.94343 0.0
H261 H 0.10142 0.57563 0.033 0.0
H262 H 0.11443 0.64478 0.12432 0.0
H263 H 0.11169 0.62388 0.0705 0.0
C264 C 0.63246 0.63 0.87968 0.0
C265 C 0.62766 0.63605 0.84053 0.0
C266 C 0.6219 0.61926 0.9133 0.0
C267 C 0.5838 0.60525 0.96623 0.0
H268 H 0.58759 0.57048 0.00499 0.0
C269 C 0.54148 0.55727 0.10163 0.0
C270 C 0.54831 0.5526 0.13857 0.0
C271 C 0.55025 0.56717 0.06248 0.0
C272 C 0.58644 0.58018 0.99474 0.0
H273 H 0.60813 0.63568 0.80559 0.0
H274 H 0.58967 0.61686 0.86437 0.0
H275 H 0.6048 0.58829 0.94151 0.0
H276 H 0.56963 0.55492 0.16461 0.0
H277 H 0.58483 0.57221 0.09715 0.0
H278 H 0.56557 0.59721 0.02025 0.0
C279 C 0.60158 0.62049 0.86925 0.0
C280 C 0.59629 0.59037 0.95846 0.0
C281 C 0.61214 0.63119 0.83552 0.0
C282 C 0.56402 0.5582 0.1364 0.0
C283 C 0.57272 0.56804 0.09754 0.0
C284 C 0.57394 0.59505 0.0027 0.0
C285 C 0.60636 0.61441 0.90842 0.0
C286 C 0.59524 0.60313 0.94447 0.0
C287 C 0.56593 0.57247 0.05979 0.0
C288 C 0.57536 0.58257 0.01796 0.0
H289 H 0.64436 0.63358 0.88448 0.0
H290 H 0.62592 0.6149 0.94359 0.0
H291 H 0.58281 0.61506 0.95633 0.0
H292 H 0.52938 0.5531 0.1025 0.0
H293 H 0.54473 0.5704 0.03376 0.0
C294 C 0.62091 0.07622 0.1094 0.0
C295 C 0.62988 0.08965 0.13702 0.0
C296 C 0.61013 0.07542 0.07438 0.0
C297 C 0.60025 0.09994 -0.00138 0.0
H298 H 0.55987 0.06448 0.99505 0.0
C299 C 0.55101 0.10006 0.89154 0.0
C300 C 0.54235 0.08746 0.85992 0.0
C301 C 0.56131 0.09984 0.92635 0.0
C302 C 0.57114 0.07441 -0.00456 0.0
H303 H 0.63463 0.11273 0.14997 0.0
H304 H 0.61582 0.11126 0.08984 0.0
H305 H 0.57907 0.06482 0.0521 0.0
H306 H 0.53728 0.06461 0.84082 0.0
H307 H 0.55524 0.06425 0.90158 0.0
H308 H 0.59232 0.10959 0.94241 0.0
C309 C 0.61722 0.10143 0.09429 0.0
C310 C 0.58213 0.07457 0.02787 0.0
C311 C 0.62794 0.10223 0.12901 0.0
C312 C 0.54383 0.0745 0.86471 0.0
C313 C 0.55405 0.07425 0.89964 0.0
C314 C 0.58927 0.0998 0.96645 0.0
C315 C 0.60821 0.08805 0.06651 0.0
C316 C 0.59676 0.0874 0.03006 0.0
C317 C 0.56304 0.08699 0.93026 0.0
C318 C 0.57459 0.08708 0.96478 0.0
H319 H 0.62218 0.06636 0.11492 0.0
H320 H 0.6034 0.06498 0.05318 0.0
H321 H 0.61151 0.10988 -0.00122 0.0
H322 H 0.55006 0.11018 0.88868 0.0
H323 H 0.56798 0.10975 0.95001 0.0
C324 C 0.63851 0.11138 0.38433 0.0
C325 C 0.63538 0.09737 0.36344 0.0
C326 C 0.62807 0.11212 0.41731 0.0
C327 C 0.58736 0.09133 0.44619 0.0
H328 H 0.59847 0.11274 0.57564 0.0
C329 C 0.5433 0.08109 0.60125 0.0
C330 C 0.54528 0.09361 0.62992 0.0
C331 C 0.55444 0.08268 0.56661 0.0
C332 C 0.59522 0.10691 0.53921 0.0
H333 H 0.6193 0.07311 0.36238 0.0
H334 H 0.60127 0.07442 0.4197 0.0
H335 H 0.61827 0.11378 0.52006 0.0
H336 H 0.56019 0.1177 0.644 0.0
H337 H 0.5795 0.12052 0.58296 0.0
H338 H 0.56435 0.08437 0.46511 0.0
C339 C 0.61159 0.08485 0.41005 0.0
C340 C 0.60655 0.1075 0.50752 0.0
C341 C 0.62198 0.0841 0.37748 0.0
C342 C 0.5584 0.10782 0.62254 0.0
C343 C 0.56951 0.10943 0.58784 0.0
C344 C 0.57606 0.09079 0.47767 0.0
C345 C 0.61436 0.09887 0.42944 0.0
C346 C 0.60267 0.09947 0.46121 0.0
C347 C 0.56772 0.09685 0.5599 0.0
C348 C 0.57983 0.09835 0.52491 0.0
H349 H 0.64878 0.12177 0.37407 0.0
H350 H 0.63046 0.12307 0.43192 0.0
H351 H 0.5841 0.08527 0.41015 0.0
H352 H 0.53332 0.06999 0.60637 0.0
H353 H 0.55282 0.07272 0.5461 0.0
C354 C 0.1057 0.63832 0.3751 0.0
C355 C 0.09335 0.64064 0.36769 0.0
C356 C 0.10535 0.62872 0.41371 0.0
C357 C 0.07868 0.59602 0.48936 0.0
H358 H 0.11439 0.60555 0.56996 0.0
C359 C 0.07755 0.55643 0.64807 0.0
C360 C 0.08992 0.55394 0.65039 0.0
C361 C 0.07805 0.5677 0.6165 0.0
C362 C 0.10438 0.6027 0.54741 0.0
H363 H 0.07109 0.63511 0.39549 0.0
H364 H 0.07047 0.61826 0.46343 0.0
H365 H 0.11503 0.62446 0.51095 0.0
H366 H 0.11256 0.56129 0.62187 0.0
H367 H 0.11337 0.58093 0.56586 0.0
H368 H 0.06809 0.57419 0.52506 0.0
C369 C 0.08037 0.62379 0.43897 0.0
C370 C 0.10473 0.61352 0.5138 0.0
C371 C 0.08075 0.63346 0.40033 0.0
C372 C 0.10286 0.56298 0.62078 0.0
C373 C 0.10336 0.57428 0.58903 0.0
C374 C 0.07833 0.5852 0.5229 0.0
C375 C 0.09262 0.62123 0.44568 0.0
C376 C 0.09192 0.61023 0.48412 0.0
C377 C 0.09092 0.5767 0.58648 0.0
C378 C 0.09122 0.58838 0.55197 0.0
H379 H 0.11558 0.64372 0.3505 0.0
H380 H 0.11487 0.62682 0.41752 0.0
H381 H 0.06872 0.59308 0.46636 0.0
H382 H 0.06745 0.54969 0.67076 0.0
H383 H 0.06838 0.56945 0.61591 0.0
C384 C 0.64207 0.63889 0.57895 0.0
C385 C 0.63779 0.64839 0.60402 0.0
C386 C 0.63217 0.62786 0.54465 0.0
C387 C 0.59142 0.60427 0.52507 0.0
H388 H 0.6028 0.59111 0.40215 0.0
C389 C 0.54781 0.55882 0.39006 0.0
C390 C 0.55144 0.54857 0.36709 0.0
C391 C 0.55845 0.57072 0.42004 0.0
C392 C 0.59952 0.59454 0.43682 0.0
H393 H 0.62042 0.65472 0.6098 0.0
H394 H 0.60315 0.63551 0.54928 0.0
H395 H 0.62167 0.61403 0.44646 0.0
H396 H 0.56877 0.54227 0.3591 0.0
H397 H 0.58746 0.56311 0.41229 0.0
H398 H 0.56934 0.58478 0.51584 0.0
C399 C 0.61404 0.63642 0.55691 0.0
C400 C 0.61028 0.6077 0.46192 0.0
C401 C 0.62397 0.6475 0.59114 0.0
C402 C 0.56569 0.55001 0.3765 0.0
C403 C 0.57641 0.56201 0.40644 0.0
C404 C 0.58069 0.59113 0.50008 0.0
C405 C 0.61781 0.62612 0.53491 0.0
C406 C 0.60631 0.61272 0.50622 0.0
C407 C 0.57297 0.57265 0.42765 0.0
C408 C 0.58461 0.58614 0.45564 0.0
H409 H 0.65269 0.63938 0.58803 0.0
H410 H 0.63539 0.62008 0.52837 0.0
H411 H 0.58812 0.60764 0.55985 0.0
H412 H 0.5369 0.55798 0.38344 0.0
H413 H 0.5555 0.57879 0.43549 0.0
C414 C 0.76567 0.88472 0.25366 0.0
C415 C 0.75281 0.87458 0.22533 0.0
C416 C 0.76498 0.89498 0.28734 0.0
C417 C 0.74391 0.91518 0.30166 0.0
H418 H 0.76811 0.9308 0.42475 0.0
C419 C 0.74356 0.96085 0.43273 0.0
C420 C 0.7576 0.97192 0.45295 0.0
C421 C 0.74253 0.94886 0.4037 0.0
C422 C 0.76143 0.92663 0.39013 0.0
H423 H 0.72882 0.86623 0.21327 0.0
H424 H 0.72754 0.88401 0.27306 0.0
H425 H 0.76591 0.90828 0.38339 0.0
H426 H 0.78168 0.97966 0.45633 0.0
H427 H 0.77988 0.95869 0.40525 0.0
H428 H 0.73944 0.93357 0.30855 0.0
C429 C 0.73823 0.88426 0.26827 0.0
C430 C 0.7601 0.91371 0.36661 0.0
C431 C 0.73893 0.87399 0.23447 0.0
C432 C 0.77072 0.97129 0.44115 0.0
C433 C 0.76967 0.95922 0.41244 0.0
C434 C 0.74516 0.92805 0.32538 0.0
C435 C 0.75141 0.89527 0.29347 0.0
C436 C 0.75148 0.90794 0.32177 0.0
C437 C 0.75549 0.94768 0.39469 0.0
C438 C 0.75409 0.93401 0.36945 0.0
H439 H 0.77652 0.8854 0.24751 0.0
H440 H 0.77536 0.90334 0.30592 0.0
H441 H 0.73742 0.91121 0.2666 0.0
H442 H 0.73325 0.96108 0.44126 0.0
H443 H 0.73146 0.94011 0.39053 0.0
C444 C 0.21452 0.90222 0.46189 0.0
C445 C 0.21767 0.89185 0.4865 0.0
C446 C 0.22577 0.91414 0.43318 0.0
C447 C 0.26752 0.93503 0.40864 0.0
H448 H 0.25549 0.94442 0.27938 0.0
C449 C 0.3077 0.96509 0.23727 0.0
C450 C 0.30548 0.97585 0.21091 0.0
C451 C 0.29806 0.95681 0.27756 0.0
C452 C 0.25899 0.94206 0.3157 0.0
H453 H 0.23495 0.88574 0.50057 0.0
H454 H 0.2543 0.90608 0.44924 0.0
H455 H 0.23615 0.92606 0.33645 0.0
H456 H 0.29215 0.98713 0.208 0.0
H457 H 0.27535 0.97262 0.27787 0.0
H458 H 0.29047 0.95062 0.38627 0.0
C459 C 0.24338 0.90538 0.45309 0.0
C460 C 0.24791 0.93158 0.34854 0.0
C461 C 0.23222 0.89362 0.48216 0.0
C462 C 0.29405 0.9788 0.22729 0.0
C463 C 0.2844 0.97048 0.26717 0.0
C464 C 0.27863 0.94538 0.37541 0.0
C465 C 0.2403 0.91578 0.42814 0.0
C466 C 0.25204 0.92781 0.39518 0.0
C467 C 0.28605 0.95914 0.29169 0.0
C468 C 0.27444 0.94889 0.32854 0.0
H469 H 0.20342 0.90116 0.465 0.0
H470 H 0.22308 0.92208 0.41501 0.0
H471 H 0.27108 0.9326 0.44471 0.0
H472 H 0.31644 0.96263 0.22543 0.0
H473 H 0.29951 0.94806 0.29588 0.0
C474 C 0.31022 0.43603 0.41204 0.0
C475 C 0.30739 0.42214 0.43309 0.0
C476 C 0.30076 0.43636 0.3742 0.0
C477 C 0.26122 0.41394 0.33408 0.0
H478 H 0.27386 0.44405 0.22626 0.0
C479 C 0.21908 0.41644 0.19334 0.0
C480 C 0.22117 0.43086 0.18179 0.0
C481 C 0.2299 0.41504 0.22168 0.0
C482 C 0.27019 0.43567 0.25652 0.0
H483 H 0.29322 0.39765 0.42838 0.0
H484 H 0.27672 0.39818 0.36146 0.0
H485 H 0.29299 0.44148 0.27471 0.0
H486 H 0.23606 0.45513 0.19142 0.0
H487 H 0.25505 0.45266 0.24157 0.0
H488 H 0.23845 0.40824 0.31633 0.0
C489 C 0.2861 0.40883 0.375 0.0
C490 C 0.28112 0.43415 0.28405 0.0
C491 C 0.29561 0.40851 0.41295 0.0
C492 C 0.23416 0.44388 0.19993 0.0
C493 C 0.24507 0.44247 0.22815 0.0
C494 C 0.25031 0.41543 0.30648 0.0
C495 C 0.28827 0.42279 0.35661 0.0
C496 C 0.27675 0.42336 0.32348 0.0
C497 C 0.24307 0.42802 0.23893 0.0
C498 C 0.25469 0.4264 0.26777 0.0
H499 H 0.31929 0.44673 0.42668 0.0
H500 H 0.30269 0.4473 0.36112 0.0
H501 H 0.25748 0.40575 0.36494 0.0
H502 H 0.20917 0.4062 0.17978 0.0
H503 H 0.22811 0.40377 0.22904 0.0
C504 C 0.23048 0.44215 0.9503 0.0
C505 C 0.21542 0.43043 0.95731 0.0
C506 C 0.23904 0.44168 0.90969 0.0
C507 C 0.24194 0.41533 0.82156 0.0
H508 H 0.26995 0.45252 0.75068 0.0
C509 C 0.27979 0.41613 0.6572 0.0
C510 C 0.29519 0.42739 0.66059 0.0
C511 C 0.26906 0.41668 0.68878 0.0
C512 C 0.26222 0.44207 0.7703 0.0
H513 H 0.19742 0.40909 0.92724 0.0
H514 H 0.21245 0.40829 0.85547 0.0
H515 H 0.2525 0.45287 0.81384 0.0
H516 H 0.31142 0.44824 0.69858 0.0
H517 H 0.2926 0.44918 0.75415 0.0
H518 H 0.2518 0.40459 0.77843 0.0
C519 C 0.21763 0.41777 0.88185 0.0
C520 C 0.25224 0.44226 0.8064 0.0
C521 C 0.20903 0.41824 0.92273 0.0
C522 C 0.29962 0.43942 0.69522 0.0
C523 C 0.28885 0.44 0.72677 0.0
C524 C 0.25188 0.41514 0.7853 0.0
C525 C 0.23273 0.42951 0.875 0.0
C526 C 0.24219 0.42895 0.83307 0.0
C527 C 0.27351 0.42852 0.72424 0.0
C528 C 0.26228 0.42856 0.75995 0.0
H529 H 0.23574 0.45167 0.97648 0.0
H530 H 0.25073 0.45073 0.90609 0.0
H531 H 0.23447 0.40494 0.84194 0.0
H532 H 0.27604 0.40675 0.63062 0.0
H533 H 0.25728 0.4078 0.68562 0.0
C534 C 0.75596 0.89963 0.00265 0.0
C535 C 0.76503 0.89299 0.99502 0.0
C536 C 0.75587 0.90971 0.9668 0.0
C537 C 0.76247 0.91849 0.8308 0.0
H538 H 0.76084 0.95463 0.86748 0.0
C539 C 0.76675 0.96184 0.68192 0.0
C540 C 0.75715 0.96795 0.68746 0.0
C541 C 0.76756 0.95273 0.72003 0.0
C542 C 0.7611 0.94447 0.85678 0.0
H543 H 0.78163 0.89214 0.9453 0.0
H544 H 0.78156 0.90992 0.88257 0.0
H545 H 0.76376 0.93951 0.93434 0.0
H546 H 0.7407 0.96922 0.73673 0.0
H547 H 0.74204 0.95309 0.80366 0.0
H548 H 0.75974 0.92337 0.75336 0.0
C549 C 0.77437 0.90714 0.91598 0.0
C550 C 0.76283 0.93586 0.89496 0.0
C551 C 0.77449 0.89707 0.95197 0.0
C552 C 0.7482 0.96463 0.73157 0.0
C553 C 0.74904 0.95551 0.76992 0.0
C554 C 0.76073 0.92707 0.79269 0.0
C555 C 0.76484 0.91333 0.9226 0.0
C556 C 0.76356 0.92281 0.88228 0.0
C557 C 0.75879 0.94953 0.76452 0.0
C558 C 0.76007 0.94016 0.80528 0.0
H559 H 0.74858 0.8967 0.03561 0.0
H560 H 0.74833 0.91421 0.97272 0.0
H561 H 0.76266 0.90831 0.82 0.0
H562 H 0.77382 0.96423 0.64833 0.0
H563 H 0.77532 0.94844 0.71509 0.0
C564 C 0.28723 0.94799 0.98167 0.0
C565 C 0.28955 0.96276 0.98652 0.0
C566 C 0.27511 0.93707 0.95311 0.0
C567 C 0.24881 0.93346 0.8503 0.0
H568 H 0.22879 0.89079 0.88762 0.0
C569 C 0.20117 0.88815 0.72781 0.0
C570 C 0.20375 0.87645 0.71166 0.0
C571 C 0.20951 0.89765 0.76803 0.0
C572 C 0.2343 0.90267 0.87688 0.0
H573 H 0.28085 0.97765 0.96644 0.0
H574 H 0.25934 0.95841 0.91726 0.0
H575 H 0.2473 0.9099 0.94586 0.0
H576 H 0.2163 0.86484 0.72696 0.0
H577 H 0.23093 0.88152 0.79788 0.0
H578 H 0.23581 0.92621 0.78137 0.0
C579 C 0.26711 0.95536 0.93468 0.0
C580 C 0.24492 0.91361 0.91001 0.0
C581 C 0.27938 0.96637 0.96291 0.0
C582 C 0.21413 0.8738 0.73859 0.0
C583 C 0.22245 0.88329 0.77919 0.0
C584 C 0.23808 0.92255 0.81755 0.0
C585 C 0.26491 0.94061 0.92917 0.0
C586 C 0.25251 0.92912 0.89662 0.0
C587 C 0.22052 0.89558 0.7931 0.0
C588 C 0.2309 0.90705 0.83018 0.0
H589 H 0.29494 0.9449 -0.00069 0.0
H590 H 0.27399 0.92596 0.94883 0.0
H591 H 0.2546 0.94524 0.8383 0.0
H592 H 0.19312 0.89038 0.70809 0.0
H593 H 0.20767 0.90692 0.77855 0.0
C594 C 0.42892 0.30602 0.7575 0.0
C595 C 0.41698 0.30184 0.79227 0.0
C596 C 0.42776 0.29594 0.71909 0.0
C597 C 0.40854 0.25523 0.69128 0.0
H598 H 0.42231 0.26828 0.55267 0.0
C599 C 0.40508 0.2133 0.53597 0.0
C600 C 0.41817 0.21847 0.50586 0.0
C601 C 0.40341 0.22339 0.56795 0.0
C602 C 0.41849 0.26449 0.59132 0.0
H603 H 0.3943 0.28408 0.81339 0.0
H604 H 0.39231 0.26656 0.74645 0.0
H605 H 0.42256 0.28645 0.61425 0.0
H606 H 0.43966 0.23821 0.48493 0.0
H607 H 0.43687 0.25566 0.54107 0.0
H608 H 0.40485 0.2334 0.66895 0.0
C609 C 0.4026 0.27752 0.74912 0.0
C610 C 0.41865 0.27489 0.62648 0.0
C611 C 0.40374 0.28759 0.78727 0.0
C612 C 0.42943 0.23389 0.50768 0.0
C613 C 0.42778 0.24393 0.53955 0.0
C614 C 0.40845 0.24486 0.65621 0.0
C615 C 0.41467 0.28151 0.71506 0.0
C616 C 0.41382 0.27039 0.67692 0.0
C617 C 0.4148 0.23879 0.57024 0.0
C618 C 0.41361 0.24943 0.60605 0.0
H619 H 0.43925 0.31694 0.76053 0.0
H620 H 0.43728 0.29924 0.69353 0.0
H621 H 0.40492 0.2515 0.73013 0.0
H622 H 0.39621 0.20147 0.53509 0.0
H623 H 0.39323 0.21914 0.59086 0.0
C624 C 0.88029 0.23009 0.7894 0.0
C625 C 0.88405 0.22175 0.82309 0.0
C626 C 0.89118 0.24056 0.75592 0.0
C627 C 0.9326 0.2624 0.73031 0.0
H628 H 0.91919 0.26275 0.59185 0.0
C629 C 0.97308 0.29298 0.55899 0.0
C630 C 0.96879 0.30144 0.52781 0.0
C631 C 0.96337 0.28371 0.59771 0.0
C632 C 0.92307 0.26285 0.63048 0.0
H633 H 0.90216 0.21802 0.84921 0.0
H634 H 0.92106 0.23603 0.79005 0.0
H635 H 0.90093 0.24599 0.65495 0.0
H636 H 0.95124 0.30718 0.51339 0.0
H637 H 0.93441 0.29106 0.58047 0.0
H638 H 0.95485 0.27916 0.70505 0.0
C639 C 0.90981 0.2347 0.78996 0.0
C640 C 0.91261 0.25331 0.6667 0.0
C641 C 0.89895 0.22432 0.82364 0.0
C642 C 0.95483 0.30073 0.53659 0.0
C643 C 0.94515 0.29145 0.57484 0.0
C644 C 0.94311 0.27189 0.69384 0.0
C645 C 0.90599 0.2428 0.75527 0.0
C646 C 0.91721 0.25306 0.71712 0.0
C647 C 0.94922 0.28271 0.60533 0.0
C648 C 0.93839 0.27227 0.64375 0.0
H649 H 0.8689 0.2284 0.78847 0.0
H650 H 0.88796 0.24684 0.73031 0.0
H651 H 0.93647 0.26256 0.76897 0.0
H652 H 0.9838 0.29336 0.55304 0.0
H653 H 0.96672 0.27702 0.62072 0.0
C654 C 0.95829 0.74324 0.76227 0.0
C655 C 0.96981 0.75707 0.78217 0.0
C656 C 0.94797 0.74312 0.72679 0.0
C657 C 0.9405 0.76743 0.63986 0.0
H658 H 0.89839 0.73925 0.67364 0.0
C659 C 0.89091 0.77168 0.55034 0.0
C660 C 0.87893 0.75792 0.53173 0.0
C661 C 0.90212 0.77168 0.58126 0.0
C662 C 0.9101 0.7471 0.66352 0.0
H663 H 0.98029 0.78161 0.77809 0.0
H664 H 0.96229 0.7814 0.71661 0.0
H665 H 0.91852 0.73848 0.72161 0.0
H666 H 0.8689 0.73338 0.53222 0.0
H667 H 0.88837 0.7334 0.58605 0.0
H668 H 0.93201 0.77613 0.58203 0.0
C669 C 0.9612 0.77066 0.72809 0.0
C670 C 0.92162 0.74659 0.69072 0.0
C671 C 0.97147 0.77077 0.76353 0.0
C672 C 0.87803 0.74417 0.54599 0.0
C673 C 0.88914 0.74417 0.577 0.0
C674 C 0.92896 0.76795 0.61268 0.0
C675 C 0.94906 0.75682 0.71061 0.0
C676 C 0.93693 0.75676 0.67921 0.0
C677 C 0.90142 0.75792 0.59428 0.0
C678 C 0.91366 0.75779 0.62431 0.0
H679 H 0.9568 0.73251 0.77592 0.0
H680 H 0.93886 0.73229 0.71323 0.0
H681 H 0.95221 0.77533 0.62995 0.0
H682 H 0.89186 0.78243 0.53981 0.0
H683 H 0.9114 0.78243 0.59463 0.0
C684 C 0.8708 0.74326 0.26814 0.0
C685 C 0.87589 0.75538 0.30282 0.0
C686 C 0.88044 0.74361 0.22933 0.0
C687 C 0.91543 0.7702 0.15911 0.0
H688 H 0.91818 0.73418 0.13172 0.0
C689 C 0.96486 0.77154 0.04615 0.0
C690 C 0.96096 0.75974 0.01092 0.0
C691 C 0.95388 0.77112 0.07927 0.0
C692 C 0.91741 0.74428 0.13856 0.0
H693 H 0.89499 0.77728 0.32448 0.0
H694 H 0.91172 0.77774 0.25785 0.0
H695 H 0.89959 0.7329 0.19328 0.0
H696 H 0.94251 0.73843 0.98184 0.0
H697 H 0.92344 0.73777 0.03928 0.0
H698 H 0.93344 0.78163 0.10502 0.0
C699 C 0.90027 0.76813 0.25966 0.0
C700 C 0.90674 0.74353 0.17366 0.0
C701 C 0.89069 0.76779 0.29813 0.0
C702 C 0.94589 0.74766 0.00883 0.0
C703 C 0.93496 0.74722 0.04187 0.0
C704 C 0.92613 0.77096 0.12416 0.0
C705 C 0.89527 0.75608 0.22474 0.0
C706 C 0.90575 0.75653 0.18469 0.0
C707 C 0.93886 0.75887 0.07768 0.0
C708 C 0.9273 0.75804 0.11385 0.0
H709 H 0.85942 0.73357 0.2709 0.0
H710 H 0.87625 0.7342 0.20271 0.0
H711 H 0.91477 0.78034 0.16621 0.0
H712 H 0.9764 0.78097 0.04854 0.0
H713 H 0.9572 0.7802 0.10684 0.0
C714 C 0.41414 0.21062 0.25786 0.0
C715 C 0.42773 0.21252 0.27838 0.0
C716 C 0.41441 0.22044 0.2203 0.0
C717 C 0.43878 0.25946 0.17563 0.0
H718 H 0.40779 0.24723 0.07096 0.0
C719 C 0.43737 0.30082 0.0277 0.0
C720 C 0.42322 0.29977 0.0196 0.0
C721 C 0.43848 0.29007 0.05753 0.0
C722 C 0.41644 0.25078 0.10027 0.0
H723 H 0.45229 0.22552 0.27354 0.0
H724 H 0.4528 0.24263 0.2068 0.0
H725 H 0.40938 0.22786 0.12129 0.0
H726 H 0.39917 0.28684 0.03682 0.0
H727 H 0.4011 0.26788 0.08907 0.0
H728 H 0.44583 0.28239 0.15438 0.0
C729 C 0.44192 0.23371 0.22064 0.0
C730 C 0.41739 0.23972 0.12898 0.0
C731 C 0.44164 0.22386 0.25849 0.0
C732 C 0.41021 0.28792 0.04262 0.0
C733 C 0.4113 0.27704 0.07207 0.0
C734 C 0.43792 0.2705 0.14659 0.0
C735 C 0.4283 0.23235 0.20218 0.0
C736 C 0.42841 0.24394 0.16756 0.0
C737 C 0.42544 0.27797 0.0794 0.0
C738 C 0.4266 0.26626 0.10921 0.0
H739 H 0.40323 0.20194 0.27236 0.0
H740 H 0.40371 0.21915 0.20742 0.0
H741 H 0.44723 0.26311 0.20564 0.0
H742 H 0.44759 0.30986 0.01041 0.0
H743 H 0.44949 0.291 0.0624 0.0
C744 C 0.94981 0.29802 0.2886 0.0
C745 C 0.96196 0.29621 0.30477 0.0
C746 C 0.93773 0.28645 0.26134 0.0
C747 C 0.91949 0.24519 0.23292 0.0
H748 H 0.90161 0.25543 0.12001 0.0
C749 C 0.88233 0.20353 0.07352 0.0
C750 C 0.87035 0.2052 0.05441 0.0
C751 C 0.8919 0.21335 0.11147 0.0
C752 C 0.90632 0.25239 0.15198 0.0
H753 H 0.97127 0.28113 0.30413 0.0
H754 H 0.95049 0.26118 0.25523 0.0
H755 H 0.922 0.27566 0.16921 0.0
H756 H 0.85812 0.21747 0.06296 0.0
H757 H 0.87475 0.23449 0.12929 0.0
H758 H 0.90405 0.22185 0.21424 0.0
C759 C 0.95002 0.2713 0.26472 0.0
C760 C 0.91801 0.26399 0.18018 0.0
C761 C 0.96201 0.2828 0.29228 0.0
C762 C 0.86738 0.21603 0.0766 0.0
C763 C 0.87693 0.22582 0.11435 0.0
C764 C 0.90786 0.23357 0.20438 0.0
C765 C 0.93766 0.27291 0.24941 0.0
C766 C 0.92482 0.26054 0.22075 0.0
C767 C 0.88961 0.22496 0.13072 0.0
C768 C 0.90122 0.23707 0.1635 0.0
H769 H 0.94943 0.3082 0.29813 0.0
H770 H 0.92831 0.28799 0.25058 0.0
H771 H 0.92431 0.24214 0.26454 0.0
H772 H 0.88487 0.19527 0.05708 0.0
H773 H 0.90162 0.21246 0.12338 0.0
C774 C 0.13891 0.72023 0.25591 0.0
C775 C 0.12987 0.70875 0.29088 0.0
C776 C 0.14958 0.73474 0.27345 0.0
C777 C 0.17108 0.75651 0.3865 0.0
H778 H 0.16204 0.78727 0.3396 0.0
C779 C 0.18209 0.80761 0.5101 0.0
C780 C 0.18421 0.82093 0.48663 0.0
C781 C 0.17953 0.79511 0.48046 0.0
C782 C 0.16511 0.77904 0.35238 0.0
H783 H 0.12545 0.70301 0.3712 0.0
H784 H 0.14423 0.72818 0.40171 0.0
H785 H 0.15075 0.7629 0.29624 0.0
H786 H 0.18652 0.83216 0.41411 0.0
H787 H 0.18274 0.81064 0.36227 0.0
H788 H 0.18524 0.7725 0.44323 0.0
C789 C 0.14306 0.72607 0.36093 0.0
C790 C 0.15858 0.76503 0.32743 0.0
C791 C 0.13222 0.71172 0.34346 0.0
C792 C 0.18467 0.8219 0.43312 0.0
C793 C 0.18242 0.80953 0.40346 0.0
C794 C 0.17782 0.77061 0.41102 0.0
C795 C 0.15157 0.7378 0.32614 0.0
C796 C 0.16107 0.75347 0.34543 0.0
C797 C 0.17933 0.7958 0.42671 0.0
C798 C 0.17445 0.78186 0.39548 0.0
H799 H 0.13728 0.71818 0.21516 0.0
H800 H 0.15602 0.74365 0.24597 0.0
H801 H 0.17324 0.74777 0.40078 0.0
H802 H 0.18167 0.80658 0.55135 0.0
H803 H 0.17698 0.7847 0.4999 0.0
C804 C 0.47444 0.51371 0.31828 0.0
C805 C 0.48168 0.50503 0.31816 0.0
C806 C 0.46163 0.5094 0.34891 0.0
C807 C 0.44218 0.48565 0.46219 0.0
H808 H 0.40671 0.48625 0.41106 0.0
C809 C 0.38177 0.44591 0.53225 0.0
C810 C 0.37208 0.4518 0.54033 0.0
C811 C 0.3963 0.45512 0.51255 0.0
C812 C 0.41665 0.48631 0.42618 0.0
H813 H 0.48091 0.48476 0.34808 0.0
H814 H 0.45847 0.47705 0.40003 0.0
H815 H 0.42978 0.49704 0.35924 0.0
H816 H 0.37 0.47197 0.53559 0.0
H817 H 0.39546 0.48808 0.49965 0.0
H818 H 0.42876 0.47421 0.52787 0.0
C819 C 0.46287 0.48742 0.37794 0.0
C820 C 0.42985 0.49246 0.39655 0.0
C821 C 0.47564 0.49175 0.34772 0.0
C822 C 0.37732 0.4672 0.52989 0.0
C823 C 0.3918 0.47637 0.50917 0.0
C824 C 0.42897 0.4794 0.49148 0.0
C825 C 0.45588 0.49633 0.37973 0.0
C826 C 0.44259 0.49175 0.41358 0.0
C827 C 0.40131 0.47032 0.49977 0.0
C828 C 0.41597 0.47929 0.47311 0.0
H829 H 0.47892 0.52405 0.29599 0.0
H830 H 0.4565 0.51651 0.34949 0.0
H831 H 0.45194 0.48532 0.47703 0.0
H832 H 0.37799 0.43407 0.54005 0.0
H833 H 0.40336 0.45015 0.50519 0.0
C834 C 0.73118 0.02597 0.53952 0.0
C835 C 0.72653 0.01051 0.54444 0.0
C836 C 0.72114 0.03041 0.52122 0.0
C837 C 0.69107 0.01917 0.43151 0.0
H838 H 0.6877 0.05233 0.49064 0.0
C839 C 0.66481 0.05022 0.32186 0.0
C840 C 0.67311 0.06613 0.32622 0.0
C841 C 0.66823 0.04118 0.3533 0.0
C842 C 0.68854 0.04307 0.47358 0.0
H843 H 0.70774 0.98751 0.53544 0.0
H844 H 0.69017 0.99535 0.50146 0.0
H845 H 0.69905 0.04026 0.54038 0.0
H846 H 0.69163 0.08509 0.36597 0.0
H847 H 0.69781 0.06949 0.41952 0.0
H848 H 0.68151 0.02262 0.36344 0.0
C849 C 0.70153 0.00397 0.51268 0.0
C850 C 0.69492 0.03611 0.50221 0.0
C851 C 0.71152 -0.00049 0.53219 0.0
C852 C 0.68497 0.07285 0.36191 0.0
C853 C 0.68841 0.06388 0.39304 0.0
C854 C 0.68483 0.02625 0.40255 0.0
C855 C 0.70635 0.01946 0.50656 0.0
C856 C 0.6967 0.02446 0.48079 0.0
C857 C 0.68 0.04795 0.38955 0.0
C858 C 0.68404 0.03866 0.42267 0.0
H859 H 0.7427 0.03464 0.5488 0.0
H860 H 0.72517 0.04242 0.5163 0.0
H861 H 0.69245 0.01026 0.4141 0.0
H862 H 0.65556 0.04475 0.29477 0.0
H863 H 0.66155 0.02894 0.34975 0.0
C864 C 0.70717 0.13715 0.16554 0.0
C865 C 0.69917 0.12124 0.16073 0.0
C866 C 0.71917 0.14607 0.13231 0.0
C867 C 0.73591 0.14404 0.00806 0.0
H868 H 0.7736 0.17604 0.06533 0.0
C869 C 0.79486 0.15993 0.93563 0.0
C870 C 0.80622 0.17529 0.93378 0.0
C871 C 0.78042 0.15579 0.95377 0.0
C872 C 0.76305 0.16737 0.04851 0.0
H873 H 0.69754 0.10219 0.11802 0.0
H874 H 0.71857 0.11758 0.06144 0.0
H875 H 0.7508 0.16406 0.11819 0.0
H876 H 0.81136 0.19842 0.94729 0.0
H877 H 0.78607 0.19109 0.98066 0.0
H878 H 0.74849 0.14669 0.9395 0.0
C879 C 0.7154 0.12328 0.08966 0.0
C880 C 0.74999 0.1605 0.07875 0.0
C881 C 0.70344 0.11443 0.12254 0.0
C882 C 0.80274 0.1865 0.94817 0.0
C883 C 0.78834 0.18233 0.96739 0.0
C884 C 0.74899 0.15078 0.97808 0.0
C885 C 0.72336 0.13921 0.09384 0.0
C886 C 0.73642 0.14836 0.05943 0.0
C887 C 0.77718 0.16692 0.97126 0.0
C888 C 0.76279 0.16214 -0.00137 0.0
H889 H 0.70404 0.14269 0.1945 0.0
H890 H 0.72506 0.15832 0.13643 0.0
H891 H 0.72552 0.13499 0.9916 0.0
H892 H 0.79729 0.15109 0.92466 0.0
H893 H 0.77206 0.14382 0.95686 0.0
C894 C -0.00503 0.71249 0.97581 0.0
C895 C -0.00152 0.7266 -0.00326 0.0
C896 C -0.00116 0.70292 0.002 0.0
C897 C 0.02013 0.69282 0.0438 0.0
H898 H 0.02221 0.69175 0.19164 0.0
C899 C 0.06621 0.68659 0.14484 0.0
C900 C 0.06271 0.67778 0.18939 0.0
C901 C 0.05546 0.68943 0.12248 0.0
C902 C 0.02149 0.69168 0.15034 0.0
H903 H 0.00803 0.74143 0.06246 0.0
H904 H 0.01506 0.725 0.10742 0.0
H905 H 0.00709 0.70143 0.15149 0.0
H906 H 0.04526 0.66506 0.2457 0.0
H907 H 0.02634 0.67009 0.20637 0.0
H908 H 0.03466 0.68329 0.04258 0.0
C909 C 0.00913 0.72113 0.07131 0.0
C910 C 0.01295 0.69737 0.12734 0.0
C911 C 0.00525 0.73065 0.04525 0.0
C912 C 0.04826 0.67194 0.21144 0.0
C913 C 0.03746 0.67481 0.18897 0.0
C914 C 0.02859 0.6871 0.06677 0.0
C915 C 0.00629 0.70731 0.04952 0.0
C916 C 0.01266 0.69853 0.07383 0.0
C917 C 0.04094 0.68351 0.14403 0.0
C918 C 0.02984 0.68703 0.12023 0.0
H919 H 0.98964 0.70904 0.93862 0.0
H920 H -0.00366 0.69226 0.98449 0.0
H921 H 0.02022 0.69361 0.00253 0.0
H922 H 0.07727 0.69129 0.12705 0.0
H923 H 0.05864 0.69648 0.08858 0.0
C924 C 0.46499 0.38129 0.94515 0.0
C925 C 0.45399 0.36978 0.97619 0.0
C926 C 0.47574 0.39518 0.96659 0.0
C927 C 0.4945 0.4141 0.08613 0.0
H928 H 0.49355 0.44902 0.03135 0.0
C929 C 0.51376 0.46895 0.20206 0.0
C930 C 0.51849 0.48261 0.17577 0.0
C931 C 0.50914 0.45547 0.17495 0.0
C932 C 0.49437 0.43955 0.04654 0.0
H933 H 0.44595 0.3634 0.05396 0.0
H934 H 0.46487 0.38755 0.09142 0.0
H935 H 0.47979 0.42472 0.98797 0.0
H936 H 0.52346 0.49333 0.10135 0.0
H937 H 0.51631 0.47009 0.0541 0.0
H938 H 0.50906 0.42886 0.14481 0.0
C939 C 0.46514 0.38588 0.05063 0.0
C940 C 0.48638 0.42559 0.02164 0.0
C941 C 0.45425 0.37214 0.02913 0.0
C942 C 0.51962 0.48285 0.12236 0.0
C943 C 0.51539 0.46949 0.09534 0.0
C944 C 0.50274 0.42815 0.11064 0.0
C945 C 0.47582 0.3976 0.01947 0.0
C946 C 0.48608 0.41268 0.04189 0.0
C947 C 0.5095 0.45551 0.12109 0.0
C948 C 0.50246 0.44099 0.09187 0.0
H949 H 0.46503 0.37972 0.90422 0.0
H950 H 0.48388 0.40408 0.94187 0.0
H951 H 0.49449 0.40427 0.10221 0.0
H952 H 0.51275 0.46853 0.24332 0.0
H953 H 0.50453 0.44495 0.19623 0.0
C954 C 0.00674 0.38161 0.42575 0.0
C955 C 0.00448 0.36959 0.45786 0.0
C956 C 0.01093 0.39588 0.44654 0.0
C957 C 0.01106 0.41546 0.56445 0.0
H958 H 0.05009 0.44818 0.51904 0.0
C959 C 0.04789 0.468 0.68924 0.0
C960 C 0.05795 0.48177 0.66535 0.0
C961 C 0.03918 0.45492 0.65998 0.0
C962 C 0.03899 0.43936 0.53156 0.0
H963 H 0.00404 0.36272 0.53659 0.0
H964 H 0.011 0.38745 0.57273 0.0
H965 H 0.03806 0.42417 0.47308 0.0
H966 H 0.06616 0.49304 0.59242 0.0
H967 H 0.05051 0.47051 0.54133 0.0
H968 H 0.01194 0.43053 0.62307 0.0
C969 C 0.00967 0.38594 0.53169 0.0
C970 C 0.03214 0.42557 0.50514 0.0
C971 C 0.00583 0.37184 0.51096 0.0
C972 C 0.05864 0.48247 0.6118 0.0
C973 C 0.04973 0.46952 0.58255 0.0
C974 C 0.01779 0.42933 0.59043 0.0
C975 C 0.01251 0.39814 0.4997 0.0
C976 C 0.01832 0.41339 0.52219 0.0
C977 C 0.04016 0.45547 0.60621 0.0
C978 C 0.03206 0.44133 0.57519 0.0
H979 H 0.00576 0.38011 0.38467 0.0
H980 H 0.01311 0.40518 0.42119 0.0
H981 H 0.00034 0.40621 0.57807 0.0
H982 H 0.0472 0.46718 0.73053 0.0
H983 H 0.03213 0.4443 0.67971 0.0
C984 C 0.70477 0.6648 0.70293 0.0
C985 C 0.70266 0.67663 0.72099 0.0
C986 C 0.71892 0.66797 0.68394 0.0
C987 C 0.75948 0.697 0.67947 0.0
H988 H 0.75739 0.68682 0.53568 0.0
C989 C 0.80606 0.73485 0.54115 0.0
C990 C 0.81016 0.72854 0.50083 0.0
C991 C 0.79384 0.72564 0.5726 0.0
C992 C 0.75824 0.68945 0.57607 0.0
H993 H 0.71372 0.70076 0.73684 0.0
H994 H 0.73848 0.70626 0.70503 0.0
H995 H 0.73428 0.67515 0.58716 0.0
H996 H 0.80468 0.70762 0.4616 0.0
H997 H 0.78309 0.69137 0.51693 0.0
H998 H 0.78331 0.71169 0.6682 0.0
C999 C 0.72925 0.69458 0.7051 0.0
C1000 C 0.745 0.68276 0.60553 0.0
C1001 C 0.71508 0.69147 0.72302 0.0
C1002 C 0.80171 0.71278 0.49231 0.0
C1003 C 0.78939 0.7035 0.52397 0.0
C1004 C 0.77271 0.70357 0.65021 0.0
C1005 C 0.73118 0.68296 0.68397 0.0
C1006 C 0.74544 0.687 0.65687 0.0
C1007 C 0.78542 0.70986 0.56468 0.0
C1008 C 0.7721 0.70042 0.59764 0.0
H1009 H 0.69531 0.65326 0.70077 0.0
H1010 H 0.72016 0.65884 0.66781 0.0
H1011 H 0.76011 0.70029 0.71916 0.0
H1012 H 0.81231 0.74696 0.54861 0.0
H1013 H 0.79084 0.73097 0.60271 0.0
C1014 C 0.45222 0.17827 0.54937 0.0
C1015 C 0.45685 0.18566 0.50199 0.0
C1016 C 0.46181 0.17489 0.57735 0.0
C1017 C 0.49207 0.16638 0.55447 0.0
H1018 H 0.48991 0.16145 0.70178 0.0
C1019 C 0.49662 0.11879 0.6501 0.0
C1020 C 0.50473 0.12148 0.69597 0.0
C1021 C 0.49415 0.12993 0.62909 0.0
C1022 C 0.49089 0.163 0.66073 0.0
H1023 H 0.47551 0.19623 0.44821 0.0
H1024 H 0.4924 0.19042 0.49744 0.0
H1025 H 0.48028 0.17664 0.66154 0.0
H1026 H 0.5165 0.13789 0.75624 0.0
H1027 H 0.512 0.1575 0.7194 0.0
H1028 H 0.50235 0.15249 0.5535 0.0
C1029 C 0.48124 0.18703 0.51254 0.0
C1030 C 0.48525 0.17157 0.63763 0.0
C1031 C 0.4716 0.19038 0.48441 0.0
C1032 C 0.51018 0.13552 0.72086 0.0
C1033 C 0.50763 0.14672 0.69982 0.0
C1034 C 0.49773 0.15787 0.57754 0.0
C1035 C 0.47629 0.17887 0.55867 0.0
C1036 C 0.48521 0.17281 0.58407 0.0
C1037 C 0.49971 0.14405 0.65342 0.0
C1038 C 0.49659 0.15555 0.63064 0.0
H1039 H 0.44094 0.17456 0.56405 0.0
H1040 H 0.45752 0.16841 0.61228 0.0
H1041 H 0.49217 0.16702 0.51316 0.0
H1042 H 0.49224 0.10807 0.63006 0.0
H1043 H 0.48769 0.12739 0.59396 0.0
C1044 C 0.35997 0.99483 0.93215 0.0
C1045 C 0.36089 0.99513 0.98566 0.0
C1046 C 0.3725 -0.00244 0.90255 0.0
C1047 C 0.41201 0.00374 0.91024 0.0
H1048 H 0.41886 0.03109 0.7971 0.0
C1049 C 0.4703 0.05104 0.84399 0.0
C1050 C 0.47327 0.05337 0.79142 0.0
C1051 C 0.45606 0.03996 0.86138 0.0
C1052 C 0.41698 0.0232 0.82786 0.0
H1053 H 0.37528 -0.00215 0.05044 0.0
H1054 H 0.3974 0.00337 -0.00084 0.0
H1055 H 0.39441 0.01875 0.83987 0.0
H1056 H 0.46393 0.04573 0.71565 0.0
H1057 H 0.43865 0.02658 0.74632 0.0
H1058 H 0.43515 0.00931 0.9002 0.0
C1059 C 0.38694 0.00057 0.97962 0.0
C1060 C 0.40293 0.01606 0.85243 0.0
C1061 C 0.37429 -0.00248 0.00918 0.0
C1062 C 0.46189 0.04413 0.7564 0.0
C1063 C 0.44748 0.03321 0.77385 0.0
C1064 C 0.42616 0.0111 0.88613 0.0
C1065 C 0.38632 0.00101 0.92589 0.0
C1066 C 0.40039 0.00657 0.89492 0.0
C1067 C 0.44443 0.03118 0.82651 0.0
C1068 C 0.42886 0.0212 0.84564 0.0
H1069 H 0.34966 0.99279 0.91311 0.0
H1070 H 0.37145 -0.0026 0.86135 0.0
H1071 H 0.41036 0.99623 0.94197 0.0
H1072 H 0.47893 0.05796 0.87177 0.0
H1073 H 0.45393 0.03874 0.90214 0.0
C1074 C 0.13324 0.51504 0.78219 0.0
C1075 C 0.11982 0.51175 0.80788 0.0
C1076 C 0.14424 0.51285 0.80664 0.0
C1077 C 0.15828 0.50976 0.93243 0.0
H1078 H 0.16738 0.48085 0.86875 0.0
C1079 C 0.17806 0.47444 0.04662 0.0
C1080 C 0.18591 0.46839 0.02093 0.0
C1081 C 0.17358 0.48352 0.02023 0.0
C1082 C 0.1654 0.48929 0.88678 0.0
H1083 H 0.10753 0.50406 0.87946 0.0
H1084 H 0.12679 0.50049 0.92217 0.0
H1085 H 0.153 0.49002 0.82177 0.0
H1086 H 0.19658 0.46808 0.94982 0.0
H1087 H 0.18973 0.48472 0.90468 0.0
H1088 H 0.17057 0.50901 -0.00236 0.0
C1089 C 0.12879 0.50468 0.88324 0.0
C1090 C 0.15707 0.49447 0.85973 0.0
C1091 C 0.11771 0.50656 0.85858 0.0
C1092 C 0.19035 0.47253 0.97008 0.0
C1093 C 0.18628 0.48193 0.94417 0.0
C1094 C 0.16686 0.50479 0.95928 0.0
C1095 C 0.14209 0.5077 0.85744 0.0
C1096 C 0.15306 0.50438 0.88286 0.0
C1097 C 0.1772 0.48694 0.96807 0.0
C1098 C 0.17014 0.49412 0.93736 0.0
H1099 H 0.13514 0.51911 0.74313 0.0
H1100 H 0.15441 0.51519 0.786 0.0
H1101 H 0.15539 0.51752 0.95084 0.0
H1102 H 0.17446 0.47126 0.08583 0.0
H1103 H 0.1665 0.48703 0.03995 0.0
C1104 C 0.66476 0.71108 0.85268 0.0
C1105 C 0.66532 0.70944 0.79958 0.0
C1106 C 0.66915 0.72526 0.87396 0.0
C1107 C 0.69511 0.76514 0.84821 0.0
H1108 H 0.67688 0.77141 0.96908 0.0
C1109 C 0.72486 0.82194 0.95497 0.0
C1110 C 0.72561 0.82088 0.00826 0.0
C1111 C 0.71489 0.80927 0.92621 0.0
C1112 C 0.68211 0.76982 0.93541 0.0
H1113 H 0.67014 0.72115 0.72682 0.0
H1114 H 0.67792 0.74607 0.76419 0.0
H1115 H 0.66359 0.74722 0.92335 0.0
H1116 H 0.71614 0.80596 0.07362 0.0
H1117 H 0.69899 0.78364 0.02333 0.0
H1118 H 0.71393 0.78737 0.86127 0.0
C1119 C 0.67416 0.73636 0.78927 0.0
C1120 C 0.67449 0.75601 0.90917 0.0
C1121 C 0.66967 0.72211 0.76791 0.0
C1122 C 0.71579 0.80707 0.03256 0.0
C1123 C 0.70589 0.79433 0.00372 0.0
C1124 C 0.70276 0.7789 0.87452 0.0
C1125 C 0.67425 0.73812 0.84259 0.0
C1126 C 0.68108 0.75342 0.86597 0.0
C1127 C 0.70556 0.79521 0.9501 0.0
C1128 C 0.69651 0.78129 0.91907 0.0
H1129 H 0.66139 0.70148 0.87801 0.0
H1130 H 0.66925 0.72628 0.91518 0.0
H1131 H 0.7006 0.76341 0.81553 0.0
H1132 H 0.73219 0.83252 0.93529 0.0
H1133 H 0.71471 0.81041 0.88511 0.0
C1134 C 0.80367 0.05021 0.60027 0.0
C1135 C 0.79451 0.03804 0.63282 0.0
C1136 C 0.814 0.06443 0.62067 0.0
C1137 C 0.83333 0.08456 0.73993 0.0
H1138 H 0.82682 0.11651 0.68753 0.0
C1139 C 0.84389 0.13646 0.85955 0.0
C1140 C 0.84804 0.15019 0.83452 0.0
C1141 C 0.84101 0.12358 0.83145 0.0
C1142 C 0.82912 0.10789 0.70204 0.0
H1143 H 0.7896 0.03084 0.7119 0.0
H1144 H 0.80759 0.05557 0.74737 0.0
H1145 H 0.81577 0.09232 0.64316 0.0
H1146 H 0.85344 0.16161 0.76112 0.0
H1147 H 0.84885 0.13931 0.71226 0.0
H1148 H 0.84637 0.10004 0.79965 0.0
C1149 C 0.80687 0.0542 0.70624 0.0
C1150 C 0.82276 0.09399 0.6765 0.0
C1151 C 0.79646 0.04007 0.68591 0.0
C1152 C 0.85004 0.15108 0.78131 0.0
C1153 C 0.84735 0.13829 0.75331 0.0
C1154 C 0.83981 0.09853 0.76533 0.0
C1155 C 0.81544 0.06663 0.67388 0.0
C1156 C 0.82444 0.08205 0.69597 0.0
C1157 C 0.8424 0.12428 0.77785 0.0
C1158 C 0.83741 0.11021 0.74746 0.0
H1159 H 0.80241 0.04892 0.55917 0.0
H1160 H 0.82056 0.07382 0.59489 0.0
H1161 H 0.83493 0.07558 0.75544 0.0
H1162 H 0.84226 0.13548 0.90057 0.0
H1163 H 0.83704 0.11295 0.8516 0.0
C1164 C 0.13477 0.84797 0.62222 0.0
C1165 C 0.14073 0.83824 0.61552 0.0
C1166 C 0.12187 0.84343 0.65265 0.0
C1167 C 0.10319 0.81818 0.76099 0.0
H1168 H 0.06789 0.82172 0.72888 0.0
C1169 C 0.04552 0.78074 0.85211 0.0
C1170 C 0.0365 0.78699 0.86613 0.0
C1171 C 0.05924 0.78955 0.8269 0.0
C1172 C 0.07783 0.82097 0.73876 0.0
H1173 H 0.13721 0.81576 0.63131 0.0
H1174 H 0.11468 0.8078 0.68332 0.0
H1175 H 0.08939 0.83188 0.66929 0.0
H1176 H 0.03482 0.80742 0.86606 0.0
H1177 H 0.05898 0.82293 0.82083 0.0
H1178 H 0.09159 0.8069 0.82946 0.0
C1179 C 0.12015 0.81904 0.66644 0.0
C1180 C 0.09007 0.82671 0.70462 0.0
C1181 C 0.13297 0.82356 0.63632 0.0
C1182 C 0.04167 0.80239 0.8559 0.0
C1183 C 0.05537 0.8112 0.82979 0.0
C1184 C 0.09104 0.81248 0.79492 0.0
C1185 C 0.11484 0.82914 0.67662 0.0
C1186 C 0.10262 0.82487 0.71471 0.0
C1187 C 0.06418 0.80477 0.81462 0.0
C1188 C 0.07804 0.81336 0.78338 0.0
H1189 H 0.14059 0.85938 0.60667 0.0
H1190 H 0.11793 0.85138 0.65969 0.0
H1191 H 0.11292 0.81699 0.77038 0.0
H1192 H 0.04179 0.76889 0.85954 0.0
H1193 H 0.06571 0.78424 0.81515 0.0
C1194 C 0.32393 0.37493 0.64039 0.0
C1195 C 0.32815 0.38933 0.66045 0.0
C1196 C 0.32628 0.36463 0.66879 0.0
C1197 C 0.33812 0.35821 0.79773 0.0
H1198 H 0.35937 0.34258 0.71786 0.0
C1199 C 0.37337 0.333 0.88717 0.0
C1200 C 0.38797 0.33936 0.86577 0.0
C1201 C 0.36233 0.33548 0.86423 0.0
C1202 C 0.35333 0.34674 0.74068 0.0
H1203 H 0.33728 0.40392 0.72689 0.0
H1204 H 0.34179 0.38628 0.77557 0.0
H1205 H 0.34573 0.35323 0.6745 0.0
H1206 H 0.40254 0.35346 0.80432 0.0
H1207 H 0.38352 0.35782 0.765 0.0
H1208 H 0.34681 0.35269 0.86398 0.0
C1209 C 0.33641 0.38271 0.7385 0.0
C1210 C 0.34535 0.35269 0.71583 0.0
C1211 C 0.334 0.39294 0.71029 0.0
C1212 C 0.39139 0.34834 0.82167 0.0
C1213 C 0.38043 0.35072 0.79877 0.0
C1214 C 0.3462 0.3523 0.82265 0.0
C1215 C 0.33296 0.36859 0.71763 0.0
C1216 C 0.33821 0.35912 0.74403 0.0
C1217 C 0.36574 0.3442 0.81936 0.0
C1218 C 0.35445 0.34717 0.79422 0.0
H1219 H 0.31923 0.37179 0.60226 0.0
H1220 H 0.32329 0.35376 0.65189 0.0
H1221 H 0.33246 0.36279 0.82054 0.0
H1222 H 0.37044 0.326 0.92112 0.0
H1223 H 0.35111 0.3304 0.88099 0.0
C1224 C 0.04835 0.34052 0.37206 0.0
C1225 C 0.03576 0.33707 0.34105 0.0
C1226 C 0.06277 0.3464 0.35033 0.0
C1227 C 0.08369 0.35112 0.2313 0.0
H1228 H 0.11235 0.391 0.28446 0.0
C1229 C 0.13742 0.39353 0.11963 0.0
C1230 C 0.15026 0.40384 0.14754 0.0
C1231 C 0.12384 0.38377 0.14489 0.0
C1232 C 0.10469 0.37975 0.26968 0.0
H1233 H 0.02808 0.33605 0.26308 0.0
H1234 H 0.05321 0.34599 0.22511 0.0
H1235 H 0.08812 0.37577 0.32698 0.0
H1236 H 0.15934 0.41158 0.22353 0.0
H1237 H 0.13603 0.39416 0.26766 0.0
H1238 H 0.10027 0.35498 0.17416 0.0
C1239 C 0.05197 0.34429 0.26608 0.0
C1240 C 0.09077 0.37105 0.29412 0.0
C1241 C 0.03764 0.33871 0.28783 0.0
C1242 C 0.1495 0.4039 0.20104 0.0
C1243 C 0.13608 0.39395 0.22631 0.0
C1244 C 0.09776 0.35971 0.20729 0.0
C1245 C 0.06471 0.34858 0.29725 0.0
C1246 C 0.08007 0.35678 0.27471 0.0
C1247 C 0.12297 0.38395 0.19862 0.0
C1248 C 0.10836 0.37426 0.22572 0.0
H1249 H 0.04718 0.33936 0.4132 0.0
H1250 H 0.07246 0.34961 0.37504 0.0
H1251 H 0.07558 0.34011 0.21574 0.0
H1252 H 0.13776 0.39329 0.07828 0.0
H1253 H 0.11395 0.3764 0.12215 0.0
C1254 C 0.84767 0.80231 0.35464 0.0
C1255 C 0.83975 0.78661 0.34478 0.0
C1256 C 0.84538 0.81222 0.32366 0.0
C1257 C 0.83011 0.81404 0.1967 0.0
H1258 H 0.82197 0.84369 0.26013 0.0
C1259 C 0.78857 0.83095 0.11806 0.0
C1260 C 0.7921 0.84615 0.12092 0.0
C1261 C 0.79852 0.8266 0.13791 0.0
C1262 C 0.82457 0.83572 0.24172 0.0
H1263 H 0.8231 0.76892 0.29553 0.0
H1264 H 0.81891 0.78604 0.24255 0.0
H1265 H 0.83159 0.83037 0.31208 0.0
H1266 H 0.80898 0.86887 0.14483 0.0
H1267 H 0.82632 0.86112 0.18107 0.0
H1268 H 0.82215 0.81869 0.12706 0.0
C1269 C 0.82714 0.79082 0.27322 0.0
C1270 C 0.83006 0.82809 0.27144 0.0
C1271 C 0.82942 0.78098 0.30399 0.0
C1272 C 0.80605 0.85707 0.14206 0.0
C1273 C 0.81592 0.85266 0.16288 0.0
C1274 C 0.82452 0.82156 0.16716 0.0
C1275 C 0.83519 0.80655 0.28231 0.0
C1276 C 0.83228 0.81672 0.24959 0.0
C1277 C 0.81209 0.83733 0.16173 0.0
C1278 C 0.82116 0.83204 0.18983 0.0
H1279 H 0.85577 0.80694 0.38574 0.0
H1280 H 0.85173 0.8243 0.3316 0.0
H1281 H 0.8321 0.80561 0.17856 0.0
H1282 H 0.77789 0.82233 0.10183 0.0
H1283 H 0.79522 0.81468 0.13705 0.0
C1284 C 0.36046 0.04681 0.13256 0.0
C1285 C 0.34546 0.03918 0.11449 0.0
C1286 C 0.36581 0.06004 0.16128 0.0
C1287 C 0.35888 0.09082 0.20044 0.0
H1288 H 0.38205 0.09144 0.31922 0.0
C1289 C 0.38315 0.13953 0.35079 0.0
C1290 C 0.39879 0.14566 0.35908 0.0
C1291 C 0.37482 0.1258 0.3243 0.0
C1292 C 0.37558 0.09141 0.28627 0.0
H1293 H 0.32454 0.03985 0.10936 0.0
H1294 H 0.33392 0.06311 0.16028 0.0
H1295 H 0.37128 0.06953 0.26245 0.0
H1296 H 0.41789 0.14209 0.34818 0.0
H1297 H 0.40338 0.11809 0.30296 0.0
H1298 H 0.36343 0.1129 0.22444 0.0
C1299 C 0.34153 0.05884 0.15196 0.0
C1300 C 0.36949 0.07892 0.25358 0.0
C1301 C 0.33618 0.04557 0.12276 0.0
C1302 C 0.40585 0.13761 0.34231 0.0
C1303 C 0.39752 0.12385 0.31661 0.0
C1304 C 0.36496 0.10336 0.23342 0.0
C1305 C 0.35623 0.06587 0.17303 0.0
C1306 C 0.36145 0.07867 0.20955 0.0
C1307 C 0.382 0.11792 0.30664 0.0
C1308 C 0.3737 0.1039 0.27588 0.0
H1309 H 0.3679 0.04221 0.12625 0.0
H1310 H 0.37734 0.06546 0.17572 0.0
H1311 H 0.35271 0.09092 0.16685 0.0
H1312 H 0.37748 0.14559 0.36313 0.0
H1313 H 0.36284 0.12141 0.31724 0.0
loop_
_geom_bond_atom_site_label_1
_geom_bond_atom_site_label_2
_geom_bond_distance
_geom_bond_site_symmetry_2
_ccdc_geom_bond_type
In0 O1 2.294 . S
In0 O2 2.326 . S
In0 O6 2.266 . S
In0 O7 2.326 . S
In0 O8 2.266 . S
In0 O9 2.326 . S
In0 O11 2.294 . S
In0 O12 2.326 . S
O1 In0 2.294 . S
O1 C10 1.240 . S
O2 In0 2.326 . S
O2 C10 1.252 . S
C3 O6 1.252 . S
C3 O7 1.260 . S
C4 O11 1.240 . S
C4 O12 1.252 . S
C5 O8 1.252 . S
C5 O9 1.260 . S
O6 In0 2.266 . S
O6 C3 1.252 . S
O7 In0 2.326 . S
O7 C3 1.260 . S
O8 In0 2.266 . S
O8 C5 1.252 . S
O9 In0 2.326 . S
O9 C5 1.260 . S
C10 O1 1.240 . S
C10 O2 1.252 . S
O11 In0 2.294 . S
O11 C4 1.240 . S
O12 In0 2.326 . S
O12 C4 1.252 . S
In13 O14 2.294 . S
In13 O15 2.326 . S
In13 O19 2.266 . S
In13 O20 2.326 . S
In13 O21 2.266 . S
In13 O22 2.326 . S
In13 O24 2.294 . S
In13 O25 2.326 . S
O14 In13 2.294 . S
O14 C23 1.240 . S
O15 In13 2.326 . S
O15 C23 1.252 . S
C16 O19 1.252 . S
C16 O20 1.260 . S
C17 O24 1.240 . S
C17 O25 1.252 . S
C18 O21 1.252 . S
C18 O22 1.260 . S
O19 In13 2.266 . S
O19 C16 1.252 . S
O20 In13 2.326 . S
O20 C16 1.260 . S
O21 In13 2.266 . S
O21 C18 1.252 . S
O22 In13 2.326 . S
O22 C18 1.260 . S
C23 O14 1.240 . S
C23 O15 1.252 . S
O24 In13 2.294 . S
O24 C17 1.240 . S
O25 In13 2.326 . S
O25 C17 1.252 . S
In26 O27 2.294 . S
In26 O28 2.326 . S
In26 O32 2.266 . S
In26 O33 2.326 . S
In26 O34 2.266 . S
In26 O35 2.326 . S
In26 O37 2.294 . S
In26 O38 2.326 . S
O27 In26 2.294 . S
O27 C36 1.240 . S
O28 In26 2.326 . S
O28 C36 1.252 . S
C29 O32 1.252 . S
C29 O33 1.260 . S
C30 O37 1.240 . S
C30 O38 1.252 . S
C31 O34 1.252 . S
C31 O35 1.260 . S
O32 In26 2.266 . S
O32 C29 1.252 . S
O33 In26 2.326 . S
O33 C29 1.260 . S
O34 In26 2.266 . S
O34 C31 1.252 . S
O35 In26 2.326 . S
O35 C31 1.260 . S
C36 O27 1.240 . S
C36 O28 1.252 . S
O37 In26 2.294 . S
O37 C30 1.240 . S
O38 In26 2.326 . S
O38 C30 1.252 . S
In39 O40 2.294 . S
In39 O41 2.326 . S
In39 O45 2.266 . S
In39 O46 2.326 . S
In39 O47 2.266 . S
In39 O48 2.326 . S
In39 O50 2.294 . S
In39 O51 2.326 . S
O40 In39 2.294 . S
O40 C49 1.240 . S
O41 In39 2.326 . S
O41 C49 1.252 . S
C42 O45 1.252 . S
C42 O46 1.260 . S
C43 O50 1.240 . S
C43 O51 1.252 . S
C44 O47 1.252 . S
C44 O48 1.260 . S
O45 In39 2.266 . S
O45 C42 1.252 . S
O46 In39 2.326 . S
O46 C42 1.260 . S
O47 In39 2.266 . S
O47 C44 1.252 . S
O48 In39 2.326 . S
O48 C44 1.260 . S
C49 O40 1.240 . S
C49 O41 1.252 . S
O50 In39 2.294 . S
O50 C43 1.240 . S
O51 In39 2.326 . S
O51 C43 1.252 . S
In52 O53 2.294 . S
In52 O54 2.326 . S
In52 O58 2.266 . S
In52 O59 2.326 . S
In52 O60 2.266 . S
In52 O61 2.326 . S
In52 O63 2.294 . S
In52 O64 2.326 . S
O53 In52 2.294 . S
O53 C62 1.240 . S
O54 In52 2.326 . S
O54 C62 1.252 . S
C55 O58 1.252 . S
C55 O59 1.260 . S
C56 O63 1.240 . S
C56 O64 1.252 . S
C57 O60 1.252 . S
C57 O61 1.260 . S
O58 In52 2.266 . S
O58 C55 1.252 . S
O59 In52 2.326 . S
O59 C55 1.260 . S
O60 In52 2.266 . S
O60 C57 1.252 . S
O61 In52 2.326 . S
O61 C57 1.260 . S
C62 O53 1.240 . S
C62 O54 1.252 . S
O63 In52 2.294 . S
O63 C56 1.240 . S
O64 In52 2.326 . S
O64 C56 1.252 . S
In65 O66 2.294 . S
In65 O67 2.326 . S
In65 O71 2.266 . S
In65 O72 2.326 . S
In65 O73 2.266 . S
In65 O74 2.326 . S
In65 O76 2.294 . S
In65 O77 2.326 . S
O66 In65 2.294 . S
O66 C75 1.240 . S
O67 In65 2.326 . S
O67 C75 1.252 . S
C68 O71 1.252 . S
C68 O72 1.260 . S
C69 O76 1.240 . S
C69 O77 1.252 . S
C70 O73 1.252 . S
C70 O74 1.260 . S
O71 In65 2.266 . S
O71 C68 1.252 . S
O72 In65 2.326 . S
O72 C68 1.260 . S
O73 In65 2.266 . S
O73 C70 1.252 . S
O74 In65 2.326 . S
O74 C70 1.260 . S
C75 O66 1.240 . S
C75 O67 1.252 . S
O76 In65 2.294 . S
O76 C69 1.240 . S
O77 In65 2.326 . S
O77 C69 1.252 . S
In78 O79 2.324 . S
In78 O80 2.368 . S
In78 O84 2.199 1_565 S
In78 O85 2.285 1_565 S
In78 O86 2.237 1_565 S
In78 O87 2.285 1_565 S
In78 O89 2.324 . S
In78 O90 2.368 . S
O79 In78 2.324 . S
O79 C88 1.240 . S
O80 In78 2.368 . S
O80 C88 1.252 . S
C81 O84 1.294 . S
C81 O85 1.260 . S
C82 O89 1.240 . S
C82 O90 1.252 . S
C83 O86 1.252 . S
C83 O87 1.260 . S
O84 In78 2.199 1_545 S
O84 C81 1.294 . S
O85 In78 2.285 1_545 S
O85 C81 1.260 . S
O86 In78 2.237 1_545 S
O86 C83 1.252 . S
O87 In78 2.285 1_545 S
O87 C83 1.260 . S
C88 O79 1.240 . S
C88 O80 1.252 . S
O89 In78 2.324 . S
O89 C82 1.240 . S
O90 In78 2.368 . S
O90 C82 1.252 . S
In91 O92 2.294 . S
In91 O93 2.326 . S
In91 O97 2.266 . S
In91 O98 2.326 . S
In91 O99 2.266 . S
In91 O100 2.326 . S
In91 O102 2.294 . S
In91 O103 2.326 . S
O92 In91 2.294 . S
O92 C101 1.240 . S
O93 In91 2.326 . S
O93 C101 1.252 . S
C94 O97 1.252 . S
C94 O98 1.260 . S
C95 O102 1.240 . S
C95 O103 1.252 . S
C96 O99 1.252 . S
C96 O100 1.260 . S
O97 In91 2.266 . S
O97 C94 1.252 . S
O98 In91 2.326 . S
O98 C94 1.260 . S
O99 In91 2.266 . S
O99 C96 1.252 . S
O100 In91 2.326 . S
O100 C96 1.260 . S
C101 O92 1.240 . S
C101 O93 1.252 . S
O102 In91 2.294 . S
O102 C95 1.240 . S
O103 In91 2.326 . S
O103 C95 1.252 . S
In104 O105 2.294 . S
In104 O106 2.326 . S
In104 O110 2.266 . S
In104 O111 2.326 . S
In104 O112 2.266 . S
In104 O113 2.326 . S
In104 O115 2.294 . S
In104 O116 2.326 . S
O105 In104 2.294 . S
O105 C114 1.240 . S
O106 In104 2.326 . S
O106 C114 1.252 . S
C107 O110 1.252 . S
C107 O111 1.260 . S
C108 O115 1.240 . S
C108 O116 1.252 . S
C109 O112 1.252 . S
C109 O113 1.260 . S
O110 In104 2.266 . S
O110 C107 1.252 . S
O111 In104 2.326 . S
O111 C107 1.260 . S
O112 In104 2.266 . S
O112 C109 1.252 . S
O113 In104 2.326 . S
O113 C109 1.260 . S
C114 O105 1.240 . S
C114 O106 1.252 . S
O115 In104 2.294 . S
O115 C108 1.240 . S
O116 In104 2.326 . S
O116 C108 1.252 . S
In117 O118 2.294 . S
In117 O119 2.326 . S
In117 O123 2.266 . S
In117 O124 2.326 . S
In117 O125 2.266 . S
In117 O126 2.326 . S
In117 O128 2.294 . S
In117 O129 2.326 . S
O118 In117 2.294 . S
O118 C127 1.240 . S
O119 In117 2.326 . S
O119 C127 1.252 . S
C120 O123 1.252 . S
C120 O124 1.260 . S
C121 O128 1.240 . S
C121 O129 1.252 . S
C122 O125 1.252 . S
C122 O126 1.260 . S
O123 In117 2.266 . S
O123 C120 1.252 . S
O124 In117 2.326 . S
O124 C120 1.260 . S
O125 In117 2.266 . S
O125 C122 1.252 . S
O126 In117 2.326 . S
O126 C122 1.260 . S
C127 O118 1.240 . S
C127 O119 1.252 . S
O128 In117 2.294 . S
O128 C121 1.240 . S
O129 In117 2.326 . S
O129 C121 1.252 . S
In130 O131 2.333 . S
In130 O132 2.331 . S
In130 O136 2.327 1_565 S
In130 O137 2.313 1_565 S
In130 O138 2.215 1_565 S
In130 O139 2.301 1_565 S
In130 O141 2.283 . S
In130 O142 2.362 . S
O131 In130 2.333 . S
O131 C140 1.240 . S
O132 In130 2.331 . S
O132 C140 1.252 . S
C133 O136 1.297 . S
C133 O137 1.260 . S
C134 O141 1.240 . S
C134 O142 1.252 . S
C135 O138 1.252 . S
C135 O139 1.260 . S
O136 In130 2.327 1_545 S
O136 C133 1.297 . S
O137 In130 2.313 1_545 S
O137 C133 1.260 . S
O138 In130 2.215 1_545 S
O138 C135 1.252 . S
O139 In130 2.301 1_545 S
O139 C135 1.260 . S
C140 O131 1.240 . S
C140 O132 1.252 . S
O141 In130 2.283 . S
O141 C134 1.240 . S
O142 In130 2.362 . S
O142 C134 1.252 . S
In143 O144 2.294 . S
In143 O145 2.326 . S
In143 O149 2.266 . S
In143 O150 2.326 . S
In143 O151 2.266 . S
In143 O152 2.326 . S
In143 O154 2.294 . S
In143 O155 2.326 . S
O144 In143 2.294 . S
O144 C153 1.240 . S
O145 In143 2.326 . S
O145 C153 1.252 . S
C146 O149 1.252 . S
C146 O150 1.260 . S
C147 O154 1.240 . S
C147 O155 1.252 . S
C148 O151 1.252 . S
C148 O152 1.260 . S
O149 In143 2.266 . S
O149 C146 1.252 . S
O150 In143 2.326 . S
O150 C146 1.260 . S
O151 In143 2.266 . S
O151 C148 1.252 . S
O152 In143 2.326 . S
O152 C148 1.260 . S
C153 O144 1.240 . S
C153 O145 1.252 . S
O154 In143 2.294 . S
O154 C147 1.240 . S
O155 In143 2.326 . S
O155 C147 1.252 . S
In156 O157 2.294 . S
In156 O158 2.326 . S
In156 O162 2.266 . S
In156 O163 2.326 . S
In156 O164 2.266 . S
In156 O165 2.326 . S
In156 O167 2.294 . S
In156 O168 2.326 . S
O157 In156 2.294 . S
O157 C166 1.240 . S
O158 In156 2.326 . S
O158 C166 1.252 . S
C159 O162 1.252 . S
C159 O163 1.260 . S
C160 O167 1.240 . S
C160 O168 1.252 . S
C161 O164 1.252 . S
C161 O165 1.260 . S
O162 In156 2.266 . S
O162 C159 1.252 . S
O163 In156 2.326 . S
O163 C159 1.260 . S
O164 In156 2.266 . S
O164 C161 1.252 . S
O165 In156 2.326 . S
O165 C161 1.260 . S
C166 O157 1.240 . S
C166 O158 1.252 . S
O167 In156 2.294 . S
O167 C160 1.240 . S
O168 In156 2.326 . S
O168 C160 1.252 . S
In169 O170 2.294 . S
In169 O171 2.326 . S
In169 O175 2.266 . S
In169 O176 2.326 . S
In169 O177 2.266 . S
In169 O178 2.326 . S
In169 O180 2.294 . S
In169 O181 2.326 . S
O170 In169 2.294 . S
O170 C179 1.240 . S
O171 In169 2.326 . S
O171 C179 1.252 . S
C172 O175 1.252 . S
C172 O176 1.260 . S
C173 O180 1.240 . S
C173 O181 1.252 . S
C174 O177 1.252 . S
C174 O178 1.260 . S
O175 In169 2.266 . S
O175 C172 1.252 . S
O176 In169 2.326 . S
O176 C172 1.260 . S
O177 In169 2.266 . S
O177 C174 1.252 . S
O178 In169 2.326 . S
O178 C174 1.260 . S
C179 O170 1.240 . S
C179 O171 1.252 . S
O180 In169 2.294 . S
O180 C173 1.240 . S
O181 In169 2.326 . S
O181 C173 1.252 . S
In182 O183 2.326 . S
In182 O184 2.372 . S
In182 O188 2.234 1_655 S
In182 O189 2.282 1_655 S
In182 O190 2.199 1_655 S
In182 O191 2.282 1_655 S
In182 O193 2.326 . S
In182 O194 2.372 . S
O183 In182 2.326 . S
O183 C192 1.240 . S
O184 In182 2.372 . S
O184 C192 1.252 . S
C185 O188 1.252 . S
C185 O189 1.260 . S
C186 O193 1.240 . S
C186 O194 1.252 . S
C187 O190 1.292 . S
C187 O191 1.260 . S
O188 In182 2.234 1_455 S
O188 C185 1.252 . S
O189 In182 2.282 1_455 S
O189 C185 1.260 . S
O190 In182 2.199 1_455 S
O190 C187 1.292 . S
O191 In182 2.282 1_455 S
O191 C187 1.260 . S
C192 O183 1.240 . S
C192 O184 1.252 . S
O193 In182 2.326 . S
O193 C186 1.240 . S
O194 In182 2.372 . S
O194 C186 1.252 . S
In195 O196 2.294 . S
In195 O197 2.326 . S
In195 O201 2.266 . S
In195 O202 2.326 . S
In195 O203 2.266 . S
In195 O204 2.326 . S
In195 O206 2.294 . S
In195 O207 2.326 . S
O196 In195 2.294 . S
O196 C205 1.240 . S
O197 In195 2.326 . S
O197 C205 1.252 . S
C198 O201 1.252 . S
C198 O202 1.260 . S
C199 O206 1.240 . S
C199 O207 1.252 . S
C200 O203 1.252 . S
C200 O204 1.260 . S
O201 In195 2.266 . S
O201 C198 1.252 . S
O202 In195 2.326 . S
O202 C198 1.260 . S
O203 In195 2.266 . S
O203 C200 1.252 . S
O204 In195 2.326 . S
O204 C200 1.260 . S
C205 O196 1.240 . S
C205 O197 1.252 . S
O206 In195 2.294 . S
O206 C199 1.240 . S
O207 In195 2.326 . S
O207 C199 1.252 . S
In208 O209 2.283 . S
In208 O210 2.365 . S
In208 O214 2.210 1_655 S
In208 O215 2.299 1_655 S
In208 O216 2.327 1_655 S
In208 O217 2.312 1_655 S
In208 O219 2.336 . S
In208 O220 2.332 . S
O209 In208 2.283 . S
O209 C218 1.240 . S
O210 In208 2.365 . S
O210 C218 1.252 . S
C211 O214 1.252 . S
C211 O215 1.260 . S
C212 O219 1.240 . S
C212 O220 1.252 . S
C213 O216 1.295 . S
C213 O217 1.260 . S
O214 In208 2.210 1_455 S
O214 C211 1.252 . S
O215 In208 2.299 1_455 S
O215 C211 1.260 . S
O216 In208 2.327 1_455 S
O216 C213 1.295 . S
O217 In208 2.312 1_455 S
O217 C213 1.260 . S
C218 O209 1.240 . S
C218 O210 1.252 . S
O219 In208 2.336 . S
O219 C212 1.240 . S
O220 In208 2.332 . S
O220 C212 1.252 . S
In221 O222 2.294 . S
In221 O223 2.326 . S
In221 O227 2.266 . S
In221 O228 2.326 . S
In221 O229 2.266 . S
In221 O230 2.326 . S
In221 O232 2.294 . S
In221 O233 2.326 . S
O222 In221 2.294 . S
O222 C231 1.240 . S
O223 In221 2.326 . S
O223 C231 1.252 . S
C224 O227 1.252 . S
C224 O228 1.260 . S
C225 O232 1.240 . S
C225 O233 1.252 . S
C226 O229 1.252 . S
C226 O230 1.260 . S
O227 In221 2.266 . S
O227 C224 1.252 . S
O228 In221 2.326 . S
O228 C224 1.260 . S
O229 In221 2.266 . S
O229 C226 1.252 . S
O230 In221 2.326 . S
O230 C226 1.260 . S
C231 O222 1.240 . S
C231 O223 1.252 . S
O232 In221 2.294 . S
O232 C225 1.240 . S
O233 In221 2.326 . S
O233 C225 1.252 . S
C234 C235 1.349 . S
C234 C236 1.327 . S
C234 H259 0.950 . S
C235 C234 1.349 . S
C235 C251 1.349 . S
C236 C234 1.327 . S
C236 C255 1.429 . S
C236 H260 0.950 . S
C237 C254 1.574 . S
C237 C256 1.368 1_554 S
C237 H261 0.949 . S
H238 C242 0.949 . S
C239 C240 1.349 . S
C239 C241 1.327 . S
C239 H262 0.950 . S
C240 C239 1.349 . S
C240 C252 1.349 . S
C241 C239 1.327 . S
C241 C257 1.429 . S
C241 H263 0.950 . S
C242 H238 0.949 . S
C242 C250 1.574 . S
C242 C258 1.368 1_556 S
H243 C251 0.950 . S
H244 C249 0.950 . S
H245 C250 0.949 . S
H246 C252 0.950 . S
H247 C253 0.950 . S
H248 C254 0.949 . S
C249 H244 0.950 . S
C249 C251 1.327 . S
C249 C255 1.429 . S
C250 C242 1.574 . S
C250 H245 0.949 . S
C250 C256 1.368 . S
C251 C235 1.349 . S
C251 H243 0.950 . S
C251 C249 1.327 . S
C252 C240 1.349 . S
C252 H246 0.950 . S
C252 C253 1.327 . S
C253 H247 0.950 . S
C253 C252 1.327 . S
C253 C257 1.429 . S
C254 C237 1.574 . S
C254 H248 0.949 . S
C254 C258 1.368 . S
C255 C236 1.429 . S
C255 C249 1.429 . S
C255 C256 1.523 . S
C256 C237 1.368 1_556 S
C256 C250 1.368 . S
C256 C255 1.523 . S
C257 C241 1.429 . S
C257 C253 1.429 . S
C257 C258 1.523 . S
C258 C242 1.368 1_554 S
C258 C254 1.368 . S
C258 C257 1.523 . S
H259 C234 0.950 . S
H260 C236 0.950 . S
H261 C237 0.949 . S
H262 C239 0.950 . S
H263 C241 0.950 . S
C264 C265 1.349 . S
C264 C266 1.327 . S
C264 H289 0.950 . S
C265 C264 1.349 . S
C265 C281 1.349 . S
C266 C264 1.327 . S
C266 C285 1.429 . S
C266 H290 0.950 . S
C267 C284 1.574 . S
C267 C286 1.368 1_554 S
C267 H291 0.949 . S
H268 C272 0.949 . S
C269 C270 1.349 . S
C269 C271 1.327 . S
C269 H292 0.950 . S
C270 C269 1.349 . S
C270 C282 1.349 . S
C271 C269 1.327 . S
C271 C287 1.429 . S
C271 H293 0.950 . S
C272 H268 0.949 . S
C272 C280 1.574 . S
C272 C288 1.368 1_556 S
H273 C281 0.950 . S
H274 C279 0.950 . S
H275 C280 0.949 . S
H276 C282 0.950 . S
H277 C283 0.950 . S
H278 C284 0.949 . S
C279 H274 0.950 . S
C279 C281 1.327 . S
C279 C285 1.429 . S
C280 C272 1.574 . S
C280 H275 0.949 . S
C280 C286 1.368 . S
C281 C265 1.349 . S
C281 H273 0.950 . S
C281 C279 1.327 . S
C282 C270 1.349 . S
C282 H276 0.950 . S
C282 C283 1.327 . S
C283 H277 0.950 . S
C283 C282 1.327 . S
C283 C287 1.429 . S
C284 C267 1.574 . S
C284 H278 0.949 . S
C284 C288 1.368 . S
C285 C266 1.429 . S
C285 C279 1.429 . S
C285 C286 1.523 . S
C286 C267 1.368 1_556 S
C286 C280 1.368 . S
C286 C285 1.523 . S
C287 C271 1.429 . S
C287 C283 1.429 . S
C287 C288 1.523 . S
C288 C272 1.368 1_554 S
C288 C284 1.368 . S
C288 C287 1.523 . S
H289 C264 0.950 . S
H290 C266 0.950 . S
H291 C267 0.949 . S
H292 C269 0.950 . S
H293 C271 0.950 . S
C294 C295 1.349 . S
C294 C296 1.327 . S
C294 H319 0.950 . S
C295 C294 1.349 . S
C295 C311 1.349 . S
C296 C294 1.327 . S
C296 C315 1.429 . S
C296 H320 0.950 . S
C297 C314 1.574 1_554 S
C297 C316 1.368 . S
C297 H321 0.949 . S
H298 C302 0.949 . S
C299 C300 1.349 . S
C299 C301 1.327 . S
C299 H322 0.950 . S
C300 C299 1.349 . S
C300 C312 1.349 . S
C301 C299 1.327 . S
C301 C317 1.429 . S
C301 H323 0.950 . S
C302 H298 0.949 . S
C302 C310 1.574 1_556 S
C302 C318 1.368 . S
H303 C311 0.950 . S
H304 C309 0.950 . S
H305 C310 0.949 . S
H306 C312 0.950 . S
H307 C313 0.950 . S
H308 C314 0.949 . S
C309 H304 0.950 . S
C309 C311 1.327 . S
C309 C315 1.429 . S
C310 C302 1.574 1_554 S
C310 H305 0.949 . S
C310 C316 1.368 . S
C311 C295 1.349 . S
C311 H303 0.950 . S
C311 C309 1.327 . S
C312 C300 1.349 . S
C312 H306 0.950 . S
C312 C313 1.327 . S
C313 H307 0.950 . S
C313 C312 1.327 . S
C313 C317 1.429 . S
C314 C297 1.574 1_556 S
C314 H308 0.949 . S
C314 C318 1.368 . S
C315 C296 1.429 . S
C315 C309 1.429 . S
C315 C316 1.523 . S
C316 C297 1.368 . S
C316 C310 1.368 . S
C316 C315 1.523 . S
C317 C301 1.429 . S
C317 C313 1.429 . S
C317 C318 1.523 . S
C318 C302 1.368 . S
C318 C314 1.368 . S
C318 C317 1.523 . S
H319 C294 0.950 . S
H320 C296 0.950 . S
H321 C297 0.949 . S
H322 C299 0.950 . S
H323 C301 0.950 . S
C324 C325 1.349 . S
C324 C326 1.327 . S
C324 H349 0.950 . S
C325 C324 1.349 . S
C325 C341 1.349 . S
C326 C324 1.327 . S
C326 C345 1.429 . S
C326 H350 0.950 . S
C327 C344 1.574 . S
C327 C346 1.368 . S
C327 H351 0.949 . S
H328 C332 0.949 . S
C329 C330 1.349 . S
C329 C331 1.327 . S
C329 H352 0.950 . S
C330 C329 1.349 . S
C330 C342 1.349 . S
C331 C329 1.327 . S
C331 C347 1.429 . S
C331 H353 0.950 . S
C332 H328 0.949 . S
C332 C340 1.574 . S
C332 C348 1.368 . S
H333 C341 0.950 . S
H334 C339 0.950 . S
H335 C340 0.949 . S
H336 C342 0.950 . S
H337 C343 0.950 . S
H338 C344 0.949 . S
C339 H334 0.950 . S
C339 C341 1.327 . S
C339 C345 1.429 . S
C340 C332 1.574 . S
C340 H335 0.949 . S
C340 C346 1.368 . S
C341 C325 1.349 . S
C341 H333 0.950 . S
C341 C339 1.327 . S
C342 C330 1.349 . S
C342 H336 0.950 . S
C342 C343 1.327 . S
C343 H337 0.950 . S
C343 C342 1.327 . S
C343 C347 1.429 . S
C344 C327 1.574 . S
C344 H338 0.949 . S
C344 C348 1.368 . S
C345 C326 1.429 . S
C345 C339 1.429 . S
C345 C346 1.523 . S
C346 C327 1.368 . S
C346 C340 1.368 . S
C346 C345 1.523 . S
C347 C331 1.429 . S
C347 C343 1.429 . S
C347 C348 1.523 . S
C348 C332 1.368 . S
C348 C344 1.368 . S
C348 C347 1.523 . S
H349 C324 0.950 . S
H350 C326 0.950 . S
H351 C327 0.949 . S
H352 C329 0.950 . S
H353 C331 0.950 . S
C354 C355 1.349 . S
C354 C356 1.327 . S
C354 H379 0.950 . S
C355 C354 1.349 . S
C355 C371 1.349 . S
C356 C354 1.327 . S
C356 C375 1.429 . S
C356 H380 0.950 . S
C357 C374 1.574 . S
C357 C376 1.368 . S
C357 H381 0.949 . S
H358 C362 0.949 . S
C359 C360 1.349 . S
C359 C361 1.327 . S
C359 H382 0.950 . S
C360 C359 1.349 . S
C360 C372 1.349 . S
C361 C359 1.327 . S
C361 C377 1.429 . S
C361 H383 0.950 . S
C362 H358 0.949 . S
C362 C370 1.574 . S
C362 C378 1.368 . S
H363 C371 0.950 . S
H364 C369 0.950 . S
H365 C370 0.949 . S
H366 C372 0.950 . S
H367 C373 0.950 . S
H368 C374 0.949 . S
C369 H364 0.950 . S
C369 C371 1.327 . S
C369 C375 1.429 . S
C370 C362 1.574 . S
C370 H365 0.949 . S
C370 C376 1.368 . S
C371 C355 1.349 . S
C371 H363 0.950 . S
C371 C369 1.327 . S
C372 C360 1.349 . S
C372 H366 0.950 . S
C372 C373 1.327 . S
C373 H367 0.950 . S
C373 C372 1.327 . S
C373 C377 1.429 . S
C374 C357 1.574 . S
C374 H368 0.949 . S
C374 C378 1.368 . S
C375 C356 1.429 . S
C375 C369 1.429 . S
C375 C376 1.523 . S
C376 C357 1.368 . S
C376 C370 1.368 . S
C376 C375 1.523 . S
C377 C361 1.429 . S
C377 C373 1.429 . S
C377 C378 1.523 . S
C378 C362 1.368 . S
C378 C374 1.368 . S
C378 C377 1.523 . S
H379 C354 0.950 . S
H380 C356 0.950 . S
H381 C357 0.949 . S
H382 C359 0.950 . S
H383 C361 0.950 . S
C384 C385 1.349 . S
C384 C386 1.327 . S
C384 H409 0.950 . S
C385 C384 1.349 . S
C385 C401 1.349 . S
C386 C384 1.327 . S
C386 C405 1.429 . S
C386 H410 0.950 . S
C387 C404 1.574 . S
C387 C406 1.368 . S
C387 H411 0.949 . S
H388 C392 0.949 . S
C389 C390 1.349 . S
C389 C391 1.327 . S
C389 H412 0.950 . S
C390 C389 1.349 . S
C390 C402 1.349 . S
C391 C389 1.327 . S
C391 C407 1.429 . S
C391 H413 0.950 . S
C392 H388 0.949 . S
C392 C400 1.574 . S
C392 C408 1.368 . S
H393 C401 0.950 . S
H394 C399 0.950 . S
H395 C400 0.949 . S
H396 C402 0.950 . S
H397 C403 0.950 . S
H398 C404 0.949 . S
C399 H394 0.950 . S
C399 C401 1.327 . S
C399 C405 1.429 . S
C400 C392 1.574 . S
C400 H395 0.949 . S
C400 C406 1.368 . S
C401 C385 1.349 . S
C401 H393 0.950 . S
C401 C399 1.327 . S
C402 C390 1.349 . S
C402 H396 0.950 . S
C402 C403 1.327 . S
C403 H397 0.950 . S
C403 C402 1.327 . S
C403 C407 1.429 . S
C404 C387 1.574 . S
C404 H398 0.949 . S
C404 C408 1.368 . S
C405 C386 1.429 . S
C405 C399 1.429 . S
C405 C406 1.523 . S
C406 C387 1.368 . S
C406 C400 1.368 . S
C406 C405 1.523 . S
C407 C391 1.429 . S
C407 C403 1.429 . S
C407 C408 1.523 . S
C408 C392 1.368 . S
C408 C404 1.368 . S
C408 C407 1.523 . S
H409 C384 0.950 . S
H410 C386 0.950 . S
H411 C387 0.949 . S
H412 C389 0.950 . S
H413 C391 0.950 . S
C414 C415 1.349 . S
C414 C416 1.327 . S
C414 H439 0.950 . S
C415 C414 1.349 . S
C415 C431 1.349 . S
C416 C414 1.327 . S
C416 C435 1.429 . S
C416 H440 0.950 . S
C417 C434 1.574 . S
C417 C436 1.368 . S
C417 H441 0.949 . S
H418 C422 0.949 . S
C419 C420 1.349 . S
C419 C421 1.327 . S
C419 H442 0.950 . S
C420 C419 1.349 . S
C420 C432 1.349 . S
C421 C419 1.327 . S
C421 C437 1.429 . S
C421 H443 0.950 . S
C422 H418 0.949 . S
C422 C430 1.574 . S
C422 C438 1.368 . S
H423 C431 0.950 . S
H424 C429 0.950 . S
H425 C430 0.949 . S
H426 C432 0.950 . S
H427 C433 0.950 . S
H428 C434 0.949 . S
C429 H424 0.950 . S
C429 C431 1.327 . S
C429 C435 1.429 . S
C430 C422 1.574 . S
C430 H425 0.949 . S
C430 C436 1.368 . S
C431 C415 1.349 . S
C431 H423 0.950 . S
C431 C429 1.327 . S
C432 C420 1.349 . S
C432 H426 0.950 . S
C432 C433 1.327 . S
C433 H427 0.950 . S
C433 C432 1.327 . S
C433 C437 1.429 . S
C434 C417 1.574 . S
C434 H428 0.949 . S
C434 C438 1.368 . S
C435 C416 1.429 . S
C435 C429 1.429 . S
C435 C436 1.523 . S
C436 C417 1.368 . S
C436 C430 1.368 . S
C436 C435 1.523 . S
C437 C421 1.429 . S
C437 C433 1.429 . S
C437 C438 1.523 . S
C438 C422 1.368 . S
C438 C434 1.368 . S
C438 C437 1.523 . S
H439 C414 0.950 . S
H440 C416 0.950 . S
H441 C417 0.949 . S
H442 C419 0.950 . S
H443 C421 0.950 . S
C444 C445 1.349 . S
C444 C446 1.327 . S
C444 H469 0.950 . S
C445 C444 1.349 . S
C445 C461 1.349 . S
C446 C444 1.327 . S
C446 C465 1.429 . S
C446 H470 0.950 . S
C447 C464 1.574 . S
C447 C466 1.368 . S
C447 H471 0.949 . S
H448 C452 0.949 . S
C449 C450 1.349 . S
C449 C451 1.327 . S
C449 H472 0.950 . S
C450 C449 1.349 . S
C450 C462 1.349 . S
C451 C449 1.327 . S
C451 C467 1.429 . S
C451 H473 0.950 . S
C452 H448 0.949 . S
C452 C460 1.574 . S
C452 C468 1.368 . S
H453 C461 0.950 . S
H454 C459 0.950 . S
H455 C460 0.949 . S
H456 C462 0.950 . S
H457 C463 0.950 . S
H458 C464 0.949 . S
C459 H454 0.950 . S
C459 C461 1.327 . S
C459 C465 1.429 . S
C460 C452 1.574 . S
C460 H455 0.949 . S
C460 C466 1.368 . S
C461 C445 1.349 . S
C461 H453 0.950 . S
C461 C459 1.327 . S
C462 C450 1.349 . S
C462 H456 0.950 . S
C462 C463 1.327 . S
C463 H457 0.950 . S
C463 C462 1.327 . S
C463 C467 1.429 . S
C464 C447 1.574 . S
C464 H458 0.949 . S
C464 C468 1.368 . S
C465 C446 1.429 . S
C465 C459 1.429 . S
C465 C466 1.523 . S
C466 C447 1.368 . S
C466 C460 1.368 . S
C466 C465 1.523 . S
C467 C451 1.429 . S
C467 C463 1.429 . S
C467 C468 1.523 . S
C468 C452 1.368 . S
C468 C464 1.368 . S
C468 C467 1.523 . S
H469 C444 0.950 . S
H470 C446 0.950 . S
H471 C447 0.949 . S
H472 C449 0.950 . S
H473 C451 0.950 . S
C474 C475 1.349 . S
C474 C476 1.327 . S
C474 H499 0.950 . S
C475 C474 1.349 . S
C475 C491 1.349 . S
C476 C474 1.327 . S
C476 C495 1.429 . S
C476 H500 0.950 . S
C477 C494 1.574 . S
C477 C496 1.368 . S
C477 H501 0.949 . S
H478 C482 0.949 . S
C479 C480 1.349 . S
C479 C481 1.327 . S
C479 H502 0.950 . S
C480 C479 1.349 . S
C480 C492 1.349 . S
C481 C479 1.327 . S
C481 C497 1.429 . S
C481 H503 0.950 . S
C482 H478 0.949 . S
C482 C490 1.574 . S
C482 C498 1.368 . S
H483 C491 0.950 . S
H484 C489 0.950 . S
H485 C490 0.949 . S
H486 C492 0.950 . S
H487 C493 0.950 . S
H488 C494 0.949 . S
C489 H484 0.950 . S
C489 C491 1.327 . S
C489 C495 1.429 . S
C490 C482 1.574 . S
C490 H485 0.949 . S
C490 C496 1.368 . S
C491 C475 1.349 . S
C491 H483 0.950 . S
C491 C489 1.327 . S
C492 C480 1.349 . S
C492 H486 0.950 . S
C492 C493 1.327 . S
C493 H487 0.950 . S
C493 C492 1.327 . S
C493 C497 1.429 . S
C494 C477 1.574 . S
C494 H488 0.949 . S
C494 C498 1.368 . S
C495 C476 1.429 . S
C495 C489 1.429 . S
C495 C496 1.523 . S
C496 C477 1.368 . S
C496 C490 1.368 . S
C496 C495 1.523 . S
C497 C481 1.429 . S
C497 C493 1.429 . S
C497 C498 1.523 . S
C498 C482 1.368 . S
C498 C494 1.368 . S
C498 C497 1.523 . S
H499 C474 0.950 . S
H500 C476 0.950 . S
H501 C477 0.949 . S
H502 C479 0.950 . S
H503 C481 0.950 . S
C504 C505 1.349 . S
C504 C506 1.327 . S
C504 H529 0.950 1_556 S
C505 C504 1.349 . S
C505 C521 1.349 . S
C506 C504 1.327 . S
C506 C525 1.429 . S
C506 H530 0.950 . S
C507 C524 1.574 . S
C507 C526 1.368 . S
C507 H531 0.949 . S
H508 C512 0.949 . S
C509 C510 1.349 . S
C509 C511 1.327 . S
C509 H532 0.950 . S
C510 C509 1.349 . S
C510 C522 1.349 . S
C511 C509 1.327 . S
C511 C527 1.429 . S
C511 H533 0.950 . S
C512 H508 0.949 . S
C512 C520 1.574 . S
C512 C528 1.368 . S
H513 C521 0.950 . S
H514 C519 0.950 . S
H515 C520 0.949 . S
H516 C522 0.950 . S
H517 C523 0.950 . S
H518 C524 0.949 . S
C519 H514 0.950 . S
C519 C521 1.327 . S
C519 C525 1.429 . S
C520 C512 1.574 . S
C520 H515 0.949 . S
C520 C526 1.368 . S
C521 C505 1.349 . S
C521 H513 0.950 . S
C521 C519 1.327 . S
C522 C510 1.349 . S
C522 H516 0.950 . S
C522 C523 1.327 . S
C523 H517 0.950 . S
C523 C522 1.327 . S
C523 C527 1.429 . S
C524 C507 1.574 . S
C524 H518 0.949 . S
C524 C528 1.368 . S
C525 C506 1.429 . S
C525 C519 1.429 . S
C525 C526 1.523 . S
C526 C507 1.368 . S
C526 C520 1.368 . S
C526 C525 1.523 . S
C527 C511 1.429 . S
C527 C523 1.429 . S
C527 C528 1.523 . S
C528 C512 1.368 . S
C528 C524 1.368 . S
C528 C527 1.523 . S
H529 C504 0.950 1_554 S
H530 C506 0.950 . S
H531 C507 0.949 . S
H532 C509 0.950 . S
H533 C511 0.950 . S
C534 C535 1.349 . S
C534 C536 1.327 . S
C534 H559 0.950 . S
C535 C534 1.349 . S
C535 C551 1.349 . S
C536 C534 1.327 . S
C536 C555 1.429 . S
C536 H560 0.950 . S
C537 C554 1.574 . S
C537 C556 1.368 . S
C537 H561 0.949 . S
H538 C542 0.949 . S
C539 C540 1.349 . S
C539 C541 1.327 . S
C539 H562 0.950 . S
C540 C539 1.349 . S
C540 C552 1.349 . S
C541 C539 1.327 . S
C541 C557 1.429 . S
C541 H563 0.950 . S
C542 H538 0.949 . S
C542 C550 1.574 . S
C542 C558 1.368 . S
H543 C551 0.950 . S
H544 C549 0.950 . S
H545 C550 0.949 . S
H546 C552 0.950 . S
H547 C553 0.950 . S
H548 C554 0.949 . S
C549 H544 0.950 . S
C549 C551 1.327 . S
C549 C555 1.429 . S
C550 C542 1.574 . S
C550 H545 0.949 . S
C550 C556 1.368 . S
C551 C535 1.349 . S
C551 H543 0.950 . S
C551 C549 1.327 . S
C552 C540 1.349 . S
C552 H546 0.950 . S
C552 C553 1.327 . S
C553 H547 0.950 . S
C553 C552 1.327 . S
C553 C557 1.429 . S
C554 C537 1.574 . S
C554 H548 0.949 . S
C554 C558 1.368 . S
C555 C536 1.429 . S
C555 C549 1.429 . S
C555 C556 1.523 . S
C556 C537 1.368 . S
C556 C550 1.368 . S
C556 C555 1.523 . S
C557 C541 1.429 . S
C557 C553 1.429 . S
C557 C558 1.523 . S
C558 C542 1.368 . S
C558 C554 1.368 . S
C558 C557 1.523 . S
H559 C534 0.950 . S
H560 C536 0.950 . S
H561 C537 0.949 . S
H562 C539 0.950 . S
H563 C541 0.950 . S
C564 C565 1.349 . S
C564 C566 1.327 . S
C564 H589 0.950 1_556 S
C565 C564 1.349 . S
C565 C581 1.349 . S
C566 C564 1.327 . S
C566 C585 1.429 . S
C566 H590 0.950 . S
C567 C584 1.574 . S
C567 C586 1.368 . S
C567 H591 0.949 . S
H568 C572 0.949 . S
C569 C570 1.349 . S
C569 C571 1.327 . S
C569 H592 0.950 . S
C570 C569 1.349 . S
C570 C582 1.349 . S
C571 C569 1.327 . S
C571 C587 1.429 . S
C571 H593 0.950 . S
C572 H568 0.949 . S
C572 C580 1.574 . S
C572 C588 1.368 . S
H573 C581 0.950 . S
H574 C579 0.950 . S
H575 C580 0.949 . S
H576 C582 0.950 . S
H577 C583 0.950 . S
H578 C584 0.949 . S
C579 H574 0.950 . S
C579 C581 1.327 . S
C579 C585 1.429 . S
C580 C572 1.574 . S
C580 H575 0.949 . S
C580 C586 1.368 . S
C581 C565 1.349 . S
C581 H573 0.950 . S
C581 C579 1.327 . S
C582 C570 1.349 . S
C582 H576 0.950 . S
C582 C583 1.327 . S
C583 H577 0.950 . S
C583 C582 1.327 . S
C583 C587 1.429 . S
C584 C567 1.574 . S
C584 H578 0.949 . S
C584 C588 1.368 . S
C585 C566 1.429 . S
C585 C579 1.429 . S
C585 C586 1.523 . S
C586 C567 1.368 . S
C586 C580 1.368 . S
C586 C585 1.523 . S
C587 C571 1.429 . S
C587 C583 1.429 . S
C587 C588 1.523 . S
C588 C572 1.368 . S
C588 C584 1.368 . S
C588 C587 1.523 . S
H589 C564 0.950 1_554 S
H590 C566 0.950 . S
H591 C567 0.949 . S
H592 C569 0.950 . S
H593 C571 0.950 . S
C594 C595 1.349 . S
C594 C596 1.327 . S
C594 H619 0.950 . S
C595 C594 1.349 . S
C595 C611 1.349 . S
C596 C594 1.327 . S
C596 C615 1.429 . S
C596 H620 0.950 . S
C597 C614 1.574 . S
C597 C616 1.368 . S
C597 H621 0.949 . S
H598 C602 0.949 . S
C599 C600 1.349 . S
C599 C601 1.327 . S
C599 H622 0.950 . S
C600 C599 1.349 . S
C600 C612 1.349 . S
C601 C599 1.327 . S
C601 C617 1.429 . S
C601 H623 0.950 . S
C602 H598 0.949 . S
C602 C610 1.574 . S
C602 C618 1.368 . S
H603 C611 0.950 . S
H604 C609 0.950 . S
H605 C610 0.949 . S
H606 C612 0.950 . S
H607 C613 0.950 . S
H608 C614 0.949 . S
C609 H604 0.950 . S
C609 C611 1.327 . S
C609 C615 1.429 . S
C610 C602 1.574 . S
C610 H605 0.949 . S
C610 C616 1.368 . S
C611 C595 1.349 . S
C611 H603 0.950 . S
C611 C609 1.327 . S
C612 C600 1.349 . S
C612 H606 0.950 . S
C612 C613 1.327 . S
C613 H607 0.950 . S
C613 C612 1.327 . S
C613 C617 1.429 . S
C614 C597 1.574 . S
C614 H608 0.949 . S
C614 C618 1.368 . S
C615 C596 1.429 . S
C615 C609 1.429 . S
C615 C616 1.523 . S
C616 C597 1.368 . S
C616 C610 1.368 . S
C616 C615 1.523 . S
C617 C601 1.429 . S
C617 C613 1.429 . S
C617 C618 1.523 . S
C618 C602 1.368 . S
C618 C614 1.368 . S
C618 C617 1.523 . S
H619 C594 0.950 . S
H620 C596 0.950 . S
H621 C597 0.949 . S
H622 C599 0.950 . S
H623 C601 0.950 . S
C624 C625 1.349 . S
C624 C626 1.327 . S
C624 H649 0.950 . S
C625 C624 1.349 . S
C625 C641 1.349 . S
C626 C624 1.327 . S
C626 C645 1.429 . S
C626 H650 0.950 . S
C627 C644 1.574 . S
C627 C646 1.368 . S
C627 H651 0.949 . S
H628 C632 0.949 . S
C629 C630 1.349 . S
C629 C631 1.327 . S
C629 H652 0.950 . S
C630 C629 1.349 . S
C630 C642 1.349 . S
C631 C629 1.327 . S
C631 C647 1.429 . S
C631 H653 0.950 . S
C632 H628 0.949 . S
C632 C640 1.574 . S
C632 C648 1.368 . S
H633 C641 0.950 . S
H634 C639 0.950 . S
H635 C640 0.949 . S
H636 C642 0.950 . S
H637 C643 0.950 . S
H638 C644 0.949 . S
C639 H634 0.950 . S
C639 C641 1.327 . S
C639 C645 1.429 . S
C640 C632 1.574 . S
C640 H635 0.949 . S
C640 C646 1.368 . S
C641 C625 1.349 . S
C641 H633 0.950 . S
C641 C639 1.327 . S
C642 C630 1.349 . S
C642 H636 0.950 . S
C642 C643 1.327 . S
C643 H637 0.950 . S
C643 C642 1.327 . S
C643 C647 1.429 . S
C644 C627 1.574 . S
C644 H638 0.949 . S
C644 C648 1.368 . S
C645 C626 1.429 . S
C645 C639 1.429 . S
C645 C646 1.523 . S
C646 C627 1.368 . S
C646 C640 1.368 . S
C646 C645 1.523 . S
C647 C631 1.429 . S
C647 C643 1.429 . S
C647 C648 1.523 . S
C648 C632 1.368 . S
C648 C644 1.368 . S
C648 C647 1.523 . S
H649 C624 0.950 . S
H650 C626 0.950 . S
H651 C627 0.949 . S
H652 C629 0.950 . S
H653 C631 0.950 . S
C654 C655 1.349 . S
C654 C656 1.327 . S
C654 H679 0.950 . S
C655 C654 1.349 . S
C655 C671 1.349 . S
C656 C654 1.327 . S
C656 C675 1.429 . S
C656 H680 0.950 . S
C657 C674 1.574 . S
C657 C676 1.368 . S
C657 H681 0.949 . S
H658 C662 0.949 . S
C659 C660 1.349 . S
C659 C661 1.327 . S
C659 H682 0.950 . S
C660 C659 1.349 . S
C660 C672 1.349 . S
C661 C659 1.327 . S
C661 C677 1.429 . S
C661 H683 0.950 . S
C662 H658 0.949 . S
C662 C670 1.574 . S
C662 C678 1.368 . S
H663 C671 0.950 . S
H664 C669 0.950 . S
H665 C670 0.949 . S
H666 C672 0.950 . S
H667 C673 0.950 . S
H668 C674 0.949 . S
C669 H664 0.950 . S
C669 C671 1.327 . S
C669 C675 1.429 . S
C670 C662 1.574 . S
C670 H665 0.949 . S
C670 C676 1.368 . S
C671 C655 1.349 . S
C671 H663 0.950 . S
C671 C669 1.327 . S
C672 C660 1.349 . S
C672 H666 0.950 . S
C672 C673 1.327 . S
C673 H667 0.950 . S
C673 C672 1.327 . S
C673 C677 1.429 . S
C674 C657 1.574 . S
C674 H668 0.949 . S
C674 C678 1.368 . S
C675 C656 1.429 . S
C675 C669 1.429 . S
C675 C676 1.523 . S
C676 C657 1.368 . S
C676 C670 1.368 . S
C676 C675 1.523 . S
C677 C661 1.429 . S
C677 C673 1.429 . S
C677 C678 1.523 . S
C678 C662 1.368 . S
C678 C674 1.368 . S
C678 C677 1.523 . S
H679 C654 0.950 . S
H680 C656 0.950 . S
H681 C657 0.949 . S
H682 C659 0.950 . S
H683 C661 0.950 . S
C684 C685 1.349 . S
C684 C686 1.327 . S
C684 H709 0.950 . S
C685 C684 1.349 . S
C685 C701 1.349 . S
C686 C684 1.327 . S
C686 C705 1.429 . S
C686 H710 0.950 . S
C687 C704 1.574 . S
C687 C706 1.368 . S
C687 H711 0.949 . S
H688 C692 0.949 . S
C689 C690 1.349 . S
C689 C691 1.327 . S
C689 H712 0.950 . S
C690 C689 1.349 . S
C690 C702 1.349 . S
C691 C689 1.327 . S
C691 C707 1.429 . S
C691 H713 0.950 . S
C692 H688 0.949 . S
C692 C700 1.574 . S
C692 C708 1.368 . S
H693 C701 0.950 . S
H694 C699 0.950 . S
H695 C700 0.949 . S
H696 C702 0.950 1_556 S
H697 C703 0.950 . S
H698 C704 0.949 . S
C699 H694 0.950 . S
C699 C701 1.327 . S
C699 C705 1.429 . S
C700 C692 1.574 . S
C700 H695 0.949 . S
C700 C706 1.368 . S
C701 C685 1.349 . S
C701 H693 0.950 . S
C701 C699 1.327 . S
C702 C690 1.349 . S
C702 H696 0.950 1_554 S
C702 C703 1.327 . S
C703 H697 0.950 . S
C703 C702 1.327 . S
C703 C707 1.429 . S
C704 C687 1.574 . S
C704 H698 0.949 . S
C704 C708 1.368 . S
C705 C686 1.429 . S
C705 C699 1.429 . S
C705 C706 1.523 . S
C706 C687 1.368 . S
C706 C700 1.368 . S
C706 C705 1.523 . S
C707 C691 1.429 . S
C707 C703 1.429 . S
C707 C708 1.523 . S
C708 C692 1.368 . S
C708 C704 1.368 . S
C708 C707 1.523 . S
H709 C684 0.950 . S
H710 C686 0.950 . S
H711 C687 0.949 . S
H712 C689 0.950 . S
H713 C691 0.950 . S
C714 C715 1.349 . S
C714 C716 1.327 . S
C714 H739 0.950 . S
C715 C714 1.349 . S
C715 C731 1.349 . S
C716 C714 1.327 . S
C716 C735 1.429 . S
C716 H740 0.950 . S
C717 C734 1.574 . S
C717 C736 1.368 . S
C717 H741 0.949 . S
H718 C722 0.949 . S
C719 C720 1.349 . S
C719 C721 1.327 . S
C719 H742 0.950 . S
C720 C719 1.349 . S
C720 C732 1.349 . S
C721 C719 1.327 . S
C721 C737 1.429 . S
C721 H743 0.950 . S
C722 H718 0.949 . S
C722 C730 1.574 . S
C722 C738 1.368 . S
H723 C731 0.950 . S
H724 C729 0.950 . S
H725 C730 0.949 . S
H726 C732 0.950 1_556 S
H727 C733 0.950 . S
H728 C734 0.949 . S
C729 H724 0.950 . S
C729 C731 1.327 . S
C729 C735 1.429 . S
C730 C722 1.574 . S
C730 H725 0.949 . S
C730 C736 1.368 . S
C731 C715 1.349 . S
C731 H723 0.950 . S
C731 C729 1.327 . S
C732 C720 1.349 . S
C732 H726 0.950 1_554 S
C732 C733 1.327 . S
C733 H727 0.950 . S
C733 C732 1.327 . S
C733 C737 1.429 . S
C734 C717 1.574 . S
C734 H728 0.949 . S
C734 C738 1.368 . S
C735 C716 1.429 . S
C735 C729 1.429 . S
C735 C736 1.523 . S
C736 C717 1.368 . S
C736 C730 1.368 . S
C736 C735 1.523 . S
C737 C721 1.429 . S
C737 C733 1.429 . S
C737 C738 1.523 . S
C738 C722 1.368 . S
C738 C734 1.368 . S
C738 C737 1.523 . S
H739 C714 0.950 . S
H740 C716 0.950 . S
H741 C717 0.949 . S
H742 C719 0.950 . S
H743 C721 0.950 . S
C744 C745 1.349 . S
C744 C746 1.327 . S
C744 H769 0.950 . S
C745 C744 1.349 . S
C745 C761 1.349 . S
C746 C744 1.327 . S
C746 C765 1.429 . S
C746 H770 0.950 . S
C747 C764 1.574 . S
C747 C766 1.368 . S
C747 H771 0.949 . S
H748 C752 0.949 . S
C749 C750 1.349 . S
C749 C751 1.327 . S
C749 H772 0.950 . S
C750 C749 1.349 . S
C750 C762 1.349 . S
C751 C749 1.327 . S
C751 C767 1.429 . S
C751 H773 0.950 . S
C752 H748 0.949 . S
C752 C760 1.574 . S
C752 C768 1.368 . S
H753 C761 0.950 . S
H754 C759 0.950 . S
H755 C760 0.949 . S
H756 C762 0.950 1_556 S
H757 C763 0.950 . S
H758 C764 0.949 . S
C759 H754 0.950 . S
C759 C761 1.327 . S
C759 C765 1.429 . S
C760 C752 1.574 . S
C760 H755 0.949 . S
C760 C766 1.368 . S
C761 C745 1.349 . S
C761 H753 0.950 . S
C761 C759 1.327 . S
C762 C750 1.349 . S
C762 H756 0.950 1_554 S
C762 C763 1.327 . S
C763 H757 0.950 . S
C763 C762 1.327 . S
C763 C767 1.429 . S
C764 C747 1.574 . S
C764 H758 0.949 . S
C764 C768 1.368 . S
C765 C746 1.429 . S
C765 C759 1.429 . S
C765 C766 1.523 . S
C766 C747 1.368 . S
C766 C760 1.368 . S
C766 C765 1.523 . S
C767 C751 1.429 . S
C767 C763 1.429 . S
C767 C768 1.523 . S
C768 C752 1.368 . S
C768 C764 1.368 . S
C768 C767 1.523 . S
H769 C744 0.950 . S
H770 C746 0.950 . S
H771 C747 0.949 . S
H772 C749 0.950 . S
H773 C751 0.950 . S
C774 C775 1.349 . S
C774 C776 1.327 . S
C774 H799 0.950 . S
C775 C774 1.349 . S
C775 C791 1.349 . S
C776 C774 1.327 . S
C776 C795 1.429 . S
C776 H800 0.950 . S
C777 C794 1.574 . S
C777 C796 1.368 . S
C777 H801 0.949 . S
H778 C782 0.949 . S
C779 C780 1.349 . S
C779 C781 1.327 . S
C779 H802 0.950 . S
C780 C779 1.349 . S
C780 C792 1.349 . S
C781 C779 1.327 . S
C781 C797 1.429 . S
C781 H803 0.950 . S
C782 H778 0.949 . S
C782 C790 1.574 . S
C782 C798 1.368 . S
H783 C791 0.950 . S
H784 C789 0.950 . S
H785 C790 0.949 . S
H786 C792 0.950 . S
H787 C793 0.950 . S
H788 C794 0.949 . S
C789 H784 0.950 . S
C789 C791 1.327 . S
C789 C795 1.429 . S
C790 C782 1.574 . S
C790 H785 0.949 . S
C790 C796 1.368 . S
C791 C775 1.349 . S
C791 H783 0.950 . S
C791 C789 1.327 . S
C792 C780 1.349 . S
C792 H786 0.950 . S
C792 C793 1.327 . S
C793 H787 0.950 . S
C793 C792 1.327 . S
C793 C797 1.429 . S
C794 C777 1.574 . S
C794 H788 0.949 . S
C794 C798 1.368 . S
C795 C776 1.429 . S
C795 C789 1.429 . S
C795 C796 1.523 . S
C796 C777 1.368 . S
C796 C790 1.368 . S
C796 C795 1.523 . S
C797 C781 1.429 . S
C797 C793 1.429 . S
C797 C798 1.523 . S
C798 C782 1.368 . S
C798 C794 1.368 . S
C798 C797 1.523 . S
H799 C774 0.950 . S
H800 C776 0.950 . S
H801 C777 0.949 . S
H802 C779 0.950 . S
H803 C781 0.950 . S
C804 C805 1.349 . S
C804 C806 1.327 . S
C804 H829 0.950 . S
C805 C804 1.349 . S
C805 C821 1.349 . S
C806 C804 1.327 . S
C806 C825 1.429 . S
C806 H830 0.950 . S
C807 C824 1.574 . S
C807 C826 1.368 . S
C807 H831 0.949 . S
H808 C812 0.949 . S
C809 C810 1.349 . S
C809 C811 1.327 . S
C809 H832 0.950 . S
C810 C809 1.349 . S
C810 C822 1.349 . S
C811 C809 1.327 . S
C811 C827 1.429 . S
C811 H833 0.950 . S
C812 H808 0.949 . S
C812 C820 1.574 . S
C812 C828 1.368 . S
H813 C821 0.950 . S
H814 C819 0.950 . S
H815 C820 0.949 . S
H816 C822 0.950 . S
H817 C823 0.950 . S
H818 C824 0.949 . S
C819 H814 0.950 . S
C819 C821 1.327 . S
C819 C825 1.429 . S
C820 C812 1.574 . S
C820 H815 0.949 . S
C820 C826 1.368 . S
C821 C805 1.349 . S
C821 H813 0.950 . S
C821 C819 1.327 . S
C822 C810 1.349 . S
C822 H816 0.950 . S
C822 C823 1.327 . S
C823 H817 0.950 . S
C823 C822 1.327 . S
C823 C827 1.429 . S
C824 C807 1.574 . S
C824 H818 0.949 . S
C824 C828 1.368 . S
C825 C806 1.429 . S
C825 C819 1.429 . S
C825 C826 1.523 . S
C826 C807 1.368 . S
C826 C820 1.368 . S
C826 C825 1.523 . S
C827 C811 1.429 . S
C827 C823 1.429 . S
C827 C828 1.523 . S
C828 C812 1.368 . S
C828 C824 1.368 . S
C828 C827 1.523 . S
H829 C804 0.950 . S
H830 C806 0.950 . S
H831 C807 0.949 . S
H832 C809 0.950 . S
H833 C811 0.950 . S
C834 C835 1.349 . S
C834 C836 1.327 . S
C834 H859 0.950 . S
C835 C834 1.349 . S
C835 C851 1.349 . S
C836 C834 1.327 . S
C836 C855 1.429 . S
C836 H860 0.950 . S
C837 C854 1.574 . S
C837 C856 1.368 . S
C837 H861 0.949 . S
H838 C842 0.949 . S
C839 C840 1.349 . S
C839 C841 1.327 . S
C839 H862 0.950 . S
C840 C839 1.349 . S
C840 C852 1.349 . S
C841 C839 1.327 . S
C841 C857 1.429 . S
C841 H863 0.950 . S
C842 H838 0.949 . S
C842 C850 1.574 . S
C842 C858 1.368 . S
H843 C851 0.950 1_565 S
H844 C849 0.950 . S
H845 C850 0.949 . S
H846 C852 0.950 . S
H847 C853 0.950 . S
H848 C854 0.949 . S
C849 H844 0.950 . S
C849 C851 1.327 . S
C849 C855 1.429 . S
C850 C842 1.574 . S
C850 H845 0.949 . S
C850 C856 1.368 . S
C851 C835 1.349 . S
C851 H843 0.950 1_545 S
C851 C849 1.327 . S
C852 C840 1.349 . S
C852 H846 0.950 . S
C852 C853 1.327 . S
C853 H847 0.950 . S
C853 C852 1.327 . S
C853 C857 1.429 . S
C854 C837 1.574 . S
C854 H848 0.949 . S
C854 C858 1.368 . S
C855 C836 1.429 . S
C855 C849 1.429 . S
C855 C856 1.523 . S
C856 C837 1.368 . S
C856 C850 1.368 . S
C856 C855 1.523 . S
C857 C841 1.429 . S
C857 C853 1.429 . S
C857 C858 1.523 . S
C858 C842 1.368 . S
C858 C854 1.368 . S
C858 C857 1.523 . S
H859 C834 0.950 . S
H860 C836 0.950 . S
H861 C837 0.949 . S
H862 C839 0.950 . S
H863 C841 0.950 . S
C864 C865 1.349 . S
C864 C866 1.327 . S
C864 H889 0.950 . S
C865 C864 1.349 . S
C865 C881 1.349 . S
C866 C864 1.327 . S
C866 C885 1.429 . S
C866 H890 0.950 . S
C867 C884 1.574 . S
C867 C886 1.368 . S
C867 H891 0.949 . S
H868 C872 0.949 . S
C869 C870 1.349 . S
C869 C871 1.327 1_556 S
C869 H892 0.950 . S
C870 C869 1.349 . S
C870 C882 1.349 1_556 S
C871 C869 1.327 1_554 S
C871 C887 1.429 . S
C871 H893 0.950 . S
C872 H868 0.949 . S
C872 C880 1.574 . S
C872 C888 1.368 . S
H873 C881 0.950 . S
H874 C879 0.950 . S
H875 C880 0.949 . S
H876 C882 0.950 . S
H877 C883 0.950 . S
H878 C884 0.949 . S
C879 H874 0.950 . S
C879 C881 1.327 . S
C879 C885 1.429 . S
C880 C872 1.574 . S
C880 H875 0.949 . S
C880 C886 1.368 . S
C881 C865 1.349 . S
C881 H873 0.950 . S
C881 C879 1.327 . S
C882 C870 1.349 1_554 S
C882 H876 0.950 . S
C882 C883 1.327 . S
C883 H877 0.950 . S
C883 C882 1.327 . S
C883 C887 1.429 . S
C884 C867 1.574 . S
C884 H878 0.949 . S
C884 C888 1.368 . S
C885 C866 1.429 . S
C885 C879 1.429 . S
C885 C886 1.523 . S
C886 C867 1.368 . S
C886 C880 1.368 . S
C886 C885 1.523 . S
C887 C871 1.429 . S
C887 C883 1.429 . S
C887 C888 1.523 . S
C888 C872 1.368 . S
C888 C884 1.368 . S
C888 C887 1.523 . S
H889 C864 0.950 . S
H890 C866 0.950 . S
H891 C867 0.949 . S
H892 C869 0.950 . S
H893 C871 0.950 . S
C894 C895 1.349 1_554 S
C894 C896 1.327 . S
C894 H919 0.950 1_455 S
C895 C894 1.349 1_556 S
C895 C911 1.349 . S
C896 C894 1.327 . S
C896 C915 1.429 . S
C896 H920 0.950 . S
C897 C914 1.574 . S
C897 C916 1.368 . S
C897 H921 0.949 . S
H898 C902 0.949 . S
C899 C900 1.349 . S
C899 C901 1.327 . S
C899 H922 0.950 . S
C900 C899 1.349 . S
C900 C912 1.349 . S
C901 C899 1.327 . S
C901 C917 1.429 . S
C901 H923 0.950 . S
C902 H898 0.949 . S
C902 C910 1.574 . S
C902 C918 1.368 . S
H903 C911 0.950 . S
H904 C909 0.950 . S
H905 C910 0.949 . S
H906 C912 0.950 . S
H907 C913 0.950 . S
H908 C914 0.949 . S
C909 H904 0.950 . S
C909 C911 1.327 . S
C909 C915 1.429 1_556 S
C910 C902 1.574 . S
C910 H905 0.949 . S
C910 C916 1.368 . S
C911 C895 1.349 . S
C911 H903 0.950 . S
C911 C909 1.327 . S
C912 C900 1.349 . S
C912 H906 0.950 . S
C912 C913 1.327 . S
C913 H907 0.950 . S
C913 C912 1.327 . S
C913 C917 1.429 . S
C914 C897 1.574 . S
C914 H908 0.949 . S
C914 C918 1.368 . S
C915 C896 1.429 . S
C915 C909 1.429 1_554 S
C915 C916 1.523 . S
C916 C897 1.368 . S
C916 C910 1.368 . S
C916 C915 1.523 . S
C917 C901 1.429 . S
C917 C913 1.429 . S
C917 C918 1.523 . S
C918 C902 1.368 . S
C918 C914 1.368 . S
C918 C917 1.523 . S
H919 C894 0.950 1_655 S
H920 C896 0.950 . S
H921 C897 0.949 . S
H922 C899 0.950 . S
H923 C901 0.950 . S
C924 C925 1.349 . S
C924 C926 1.327 . S
C924 H949 0.950 . S
C925 C924 1.349 . S
C925 C941 1.349 1_556 S
C926 C924 1.327 . S
C926 C945 1.429 1_556 S
C926 H950 0.950 . S
C927 C944 1.574 . S
C927 C946 1.368 . S
C927 H951 0.949 . S
H928 C932 0.949 . S
C929 C930 1.349 . S
C929 C931 1.327 . S
C929 H952 0.950 . S
C930 C929 1.349 . S
C930 C942 1.349 . S
C931 C929 1.327 . S
C931 C947 1.429 . S
C931 H953 0.950 . S
C932 H928 0.949 . S
C932 C940 1.574 . S
C932 C948 1.368 . S
H933 C941 0.950 . S
H934 C939 0.950 . S
H935 C940 0.949 . S
H936 C942 0.950 . S
H937 C943 0.950 . S
H938 C944 0.949 . S
C939 H934 0.950 . S
C939 C941 1.327 . S
C939 C945 1.429 . S
C940 C932 1.574 . S
C940 H935 0.949 . S
C940 C946 1.368 . S
C941 C925 1.349 1_554 S
C941 H933 0.950 . S
C941 C939 1.327 . S
C942 C930 1.349 . S
C942 H936 0.950 . S
C942 C943 1.327 . S
C943 H937 0.950 . S
C943 C942 1.327 . S
C943 C947 1.429 . S
C944 C927 1.574 . S
C944 H938 0.949 . S
C944 C948 1.368 . S
C945 C926 1.429 1_554 S
C945 C939 1.429 . S
C945 C946 1.523 . S
C946 C927 1.368 . S
C946 C940 1.368 . S
C946 C945 1.523 . S
C947 C931 1.429 . S
C947 C943 1.429 . S
C947 C948 1.523 . S
C948 C932 1.368 . S
C948 C944 1.368 . S
C948 C947 1.523 . S
H949 C924 0.950 . S
H950 C926 0.950 . S
H951 C927 0.949 . S
H952 C929 0.950 . S
H953 C931 0.950 . S
C954 C955 1.349 . S
C954 C956 1.327 . S
C954 H979 0.950 . S
C955 C954 1.349 . S
C955 C971 1.349 . S
C956 C954 1.327 . S
C956 C975 1.429 . S
C956 H980 0.950 . S
C957 C974 1.574 . S
C957 C976 1.368 . S
C957 H981 0.949 . S
H958 C962 0.949 . S
C959 C960 1.349 . S
C959 C961 1.327 . S
C959 H982 0.950 . S
C960 C959 1.349 . S
C960 C972 1.349 . S
C961 C959 1.327 . S
C961 C977 1.429 . S
C961 H983 0.950 . S
C962 H958 0.949 . S
C962 C970 1.574 . S
C962 C978 1.368 . S
H963 C971 0.950 . S
H964 C969 0.950 . S
H965 C970 0.949 . S
H966 C972 0.950 . S
H967 C973 0.950 . S
H968 C974 0.949 . S
C969 H964 0.950 . S
C969 C971 1.327 . S
C969 C975 1.429 . S
C970 C962 1.574 . S
C970 H965 0.949 . S
C970 C976 1.368 . S
C971 C955 1.349 . S
C971 H963 0.950 . S
C971 C969 1.327 . S
C972 C960 1.349 . S
C972 H966 0.950 . S
C972 C973 1.327 . S
C973 H967 0.950 . S
C973 C972 1.327 . S
C973 C977 1.429 . S
C974 C957 1.574 . S
C974 H968 0.949 . S
C974 C978 1.368 . S
C975 C956 1.429 . S
C975 C969 1.429 . S
C975 C976 1.523 . S
C976 C957 1.368 . S
C976 C970 1.368 . S
C976 C975 1.523 . S
C977 C961 1.429 . S
C977 C973 1.429 . S
C977 C978 1.523 . S
C978 C962 1.368 . S
C978 C974 1.368 . S
C978 C977 1.523 . S
H979 C954 0.950 . S
H980 C956 0.950 . S
H981 C957 0.949 . S
H982 C959 0.950 . S
H983 C961 0.950 . S
C984 C985 1.349 . S
C984 C986 1.327 . S
C984 H1009 0.950 . S
C985 C984 1.349 . S
C985 C1001 1.349 . S
C986 C984 1.327 . S
C986 C1005 1.429 . S
C986 H1010 0.950 . S
C987 C1004 1.574 . S
C987 C1006 1.368 . S
C987 H1011 0.949 . S
H988 C992 0.949 . S
C989 C990 1.349 . S
C989 C991 1.327 . S
C989 H1012 0.950 . S
C990 C989 1.349 . S
C990 C1002 1.349 . S
C991 C989 1.327 . S
C991 C1007 1.429 . S
C991 H1013 0.950 . S
C992 H988 0.949 . S
C992 C1000 1.574 . S
C992 C1008 1.368 . S
H993 C1001 0.950 . S
H994 C999 0.950 . S
H995 C1000 0.949 . S
H996 C1002 0.950 . S
H997 C1003 0.950 . S
H998 C1004 0.949 . S
C999 H994 0.950 . S
C999 C1001 1.327 . S
C999 C1005 1.429 . S
C1000 C992 1.574 . S
C1000 H995 0.949 . S
C1000 C1006 1.368 . S
C1001 C985 1.349 . S
C1001 H993 0.950 . S
C1001 C999 1.327 . S
C1002 C990 1.349 . S
C1002 H996 0.950 . S
C1002 C1003 1.327 . S
C1003 H997 0.950 . S
C1003 C1002 1.327 . S
C1003 C1007 1.429 . S
C1004 C987 1.574 . S
C1004 H998 0.949 . S
C1004 C1008 1.368 . S
C1005 C986 1.429 . S
C1005 C999 1.429 . S
C1005 C1006 1.523 . S
C1006 C987 1.368 . S
C1006 C1000 1.368 . S
C1006 C1005 1.523 . S
C1007 C991 1.429 . S
C1007 C1003 1.429 . S
C1007 C1008 1.523 . S
C1008 C992 1.368 . S
C1008 C1004 1.368 . S
C1008 C1007 1.523 . S
H1009 C984 0.950 . S
H1010 C986 0.950 . S
H1011 C987 0.949 . S
H1012 C989 0.950 . S
H1013 C991 0.950 . S
C1014 C1015 1.349 . S
C1014 C1016 1.327 . S
C1014 H1039 0.950 . S
C1015 C1014 1.349 . S
C1015 C1031 1.349 . S
C1016 C1014 1.327 . S
C1016 C1035 1.429 . S
C1016 H1040 0.950 . S
C1017 C1034 1.574 . S
C1017 C1036 1.368 . S
C1017 H1041 0.949 . S
H1018 C1022 0.949 . S
C1019 C1020 1.349 . S
C1019 C1021 1.327 . S
C1019 H1042 0.950 . S
C1020 C1019 1.349 . S
C1020 C1032 1.349 . S
C1021 C1019 1.327 . S
C1021 C1037 1.429 . S
C1021 H1043 0.950 . S
C1022 H1018 0.949 . S
C1022 C1030 1.574 . S
C1022 C1038 1.368 . S
H1023 C1031 0.950 . S
H1024 C1029 0.950 . S
H1025 C1030 0.949 . S
H1026 C1032 0.950 . S
H1027 C1033 0.950 . S
H1028 C1034 0.949 . S
C1029 H1024 0.950 . S
C1029 C1031 1.327 . S
C1029 C1035 1.429 . S
C1030 C1022 1.574 . S
C1030 H1025 0.949 . S
C1030 C1036 1.368 . S
C1031 C1015 1.349 . S
C1031 H1023 0.950 . S
C1031 C1029 1.327 . S
C1032 C1020 1.349 . S
C1032 H1026 0.950 . S
C1032 C1033 1.327 . S
C1033 H1027 0.950 . S
C1033 C1032 1.327 . S
C1033 C1037 1.429 . S
C1034 C1017 1.574 . S
C1034 H1028 0.949 . S
C1034 C1038 1.368 . S
C1035 C1016 1.429 . S
C1035 C1029 1.429 . S
C1035 C1036 1.523 . S
C1036 C1017 1.368 . S
C1036 C1030 1.368 . S
C1036 C1035 1.523 . S
C1037 C1021 1.429 . S
C1037 C1033 1.429 . S
C1037 C1038 1.523 . S
C1038 C1022 1.368 . S
C1038 C1034 1.368 . S
C1038 C1037 1.523 . S
H1039 C1014 0.950 . S
H1040 C1016 0.950 . S
H1041 C1017 0.949 . S
H1042 C1019 0.950 . S
H1043 C1021 0.950 . S
C1044 C1045 1.349 1_556 S
C1044 C1046 1.327 . S
C1044 H1069 0.950 . S
C1045 C1044 1.349 1_554 S
C1045 C1061 1.349 . S
C1046 C1044 1.327 . S
C1046 C1065 1.429 . S
C1046 H1070 0.950 . S
C1047 C1064 1.574 . S
C1047 C1066 1.368 . S
C1047 H1071 0.949 . S
H1048 C1052 0.949 . S
C1049 C1050 1.349 . S
C1049 C1051 1.327 . S
C1049 H1072 0.950 . S
C1050 C1049 1.349 . S
C1050 C1062 1.349 . S
C1051 C1049 1.327 . S
C1051 C1067 1.429 . S
C1051 H1073 0.950 . S
C1052 H1048 0.949 . S
C1052 C1060 1.574 . S
C1052 C1068 1.368 . S
H1053 C1061 0.950 . S
H1054 C1059 0.950 . S
H1055 C1060 0.949 . S
H1056 C1062 0.950 . S
H1057 C1063 0.950 . S
H1058 C1064 0.949 . S
C1059 H1054 0.950 . S
C1059 C1061 1.327 . S
C1059 C1065 1.429 1_554 S
C1060 C1052 1.574 . S
C1060 H1055 0.949 . S
C1060 C1066 1.368 . S
C1061 C1045 1.349 . S
C1061 H1053 0.950 . S
C1061 C1059 1.327 . S
C1062 C1050 1.349 . S
C1062 H1056 0.950 . S
C1062 C1063 1.327 . S
C1063 H1057 0.950 . S
C1063 C1062 1.327 . S
C1063 C1067 1.429 . S
C1064 C1047 1.574 . S
C1064 H1058 0.949 . S
C1064 C1068 1.368 . S
C1065 C1046 1.429 . S
C1065 C1059 1.429 1_556 S
C1065 C1066 1.523 . S
C1066 C1047 1.368 . S
C1066 C1060 1.368 . S
C1066 C1065 1.523 . S
C1067 C1051 1.429 . S
C1067 C1063 1.429 . S
C1067 C1068 1.523 . S
C1068 C1052 1.368 . S
C1068 C1064 1.368 . S
C1068 C1067 1.523 . S
H1069 C1044 0.950 . S
H1070 C1046 0.950 . S
H1071 C1047 0.949 . S
H1072 C1049 0.950 . S
H1073 C1051 0.950 . S
C1074 C1075 1.349 . S
C1074 C1076 1.327 . S
C1074 H1099 0.950 . S
C1075 C1074 1.349 . S
C1075 C1091 1.349 . S
C1076 C1074 1.327 . S
C1076 C1095 1.429 . S
C1076 H1100 0.950 . S
C1077 C1094 1.574 . S
C1077 C1096 1.368 . S
C1077 H1101 0.949 . S
H1078 C1082 0.949 . S
C1079 C1080 1.349 . S
C1079 C1081 1.327 . S
C1079 H1102 0.950 . S
C1080 C1079 1.349 . S
C1080 C1092 1.349 1_554 S
C1081 C1079 1.327 . S
C1081 C1097 1.429 1_554 S
C1081 H1103 0.950 . S
C1082 H1078 0.949 . S
C1082 C1090 1.574 . S
C1082 C1098 1.368 . S
H1083 C1091 0.950 . S
H1084 C1089 0.950 . S
H1085 C1090 0.949 . S
H1086 C1092 0.950 . S
H1087 C1093 0.950 . S
H1088 C1094 0.949 1_554 S
C1089 H1084 0.950 . S
C1089 C1091 1.327 . S
C1089 C1095 1.429 . S
C1090 C1082 1.574 . S
C1090 H1085 0.949 . S
C1090 C1096 1.368 . S
C1091 C1075 1.349 . S
C1091 H1083 0.950 . S
C1091 C1089 1.327 . S
C1092 C1080 1.349 1_556 S
C1092 H1086 0.950 . S
C1092 C1093 1.327 . S
C1093 H1087 0.950 . S
C1093 C1092 1.327 . S
C1093 C1097 1.429 . S
C1094 C1077 1.574 . S
C1094 H1088 0.949 1_556 S
C1094 C1098 1.368 . S
C1095 C1076 1.429 . S
C1095 C1089 1.429 . S
C1095 C1096 1.523 . S
C1096 C1077 1.368 . S
C1096 C1090 1.368 . S
C1096 C1095 1.523 . S
C1097 C1081 1.429 1_556 S
C1097 C1093 1.429 . S
C1097 C1098 1.523 . S
C1098 C1082 1.368 . S
C1098 C1094 1.368 . S
C1098 C1097 1.523 . S
H1099 C1074 0.950 . S
H1100 C1076 0.950 . S
H1101 C1077 0.949 . S
H1102 C1079 0.950 . S
H1103 C1081 0.950 . S
C1104 C1105 1.349 . S
C1104 C1106 1.327 . S
C1104 H1129 0.950 . S
C1105 C1104 1.349 . S
C1105 C1121 1.349 . S
C1106 C1104 1.327 . S
C1106 C1125 1.429 . S
C1106 H1130 0.950 . S
C1107 C1124 1.574 . S
C1107 C1126 1.368 . S
C1107 H1131 0.949 . S
H1108 C1112 0.949 1_554 S
C1109 C1110 1.349 1_556 S
C1109 C1111 1.327 . S
C1109 H1132 0.950 . S
C1110 C1109 1.349 1_554 S
C1110 C1122 1.349 . S
C1111 C1109 1.327 . S
C1111 C1127 1.429 . S
C1111 H1133 0.950 . S
C1112 H1108 0.949 1_556 S
C1112 C1120 1.574 . S
C1112 C1128 1.368 . S
H1113 C1121 0.950 . S
H1114 C1119 0.950 . S
H1115 C1120 0.949 . S
H1116 C1122 0.950 . S
H1117 C1123 0.950 . S
H1118 C1124 0.949 . S
C1119 H1114 0.950 . S
C1119 C1121 1.327 . S
C1119 C1125 1.429 . S
C1120 C1112 1.574 . S
C1120 H1115 0.949 . S
C1120 C1126 1.368 . S
C1121 C1105 1.349 . S
C1121 H1113 0.950 . S
C1121 C1119 1.327 . S
C1122 C1110 1.349 . S
C1122 H1116 0.950 . S
C1122 C1123 1.327 . S
C1123 H1117 0.950 . S
C1123 C1122 1.327 . S
C1123 C1127 1.429 1_554 S
C1124 C1107 1.574 . S
C1124 H1118 0.949 . S
C1124 C1128 1.368 . S
C1125 C1106 1.429 . S
C1125 C1119 1.429 . S
C1125 C1126 1.523 . S
C1126 C1107 1.368 . S
C1126 C1120 1.368 . S
C1126 C1125 1.523 . S
C1127 C1111 1.429 . S
C1127 C1123 1.429 1_556 S
C1127 C1128 1.523 . S
C1128 C1112 1.368 . S
C1128 C1124 1.368 . S
C1128 C1127 1.523 . S
H1129 C1104 0.950 . S
H1130 C1106 0.950 . S
H1131 C1107 0.949 . S
H1132 C1109 0.950 . S
H1133 C1111 0.950 . S
C1134 C1135 1.349 . S
C1134 C1136 1.327 . S
C1134 H1159 0.950 . S
C1135 C1134 1.349 . S
C1135 C1151 1.349 . S
C1136 C1134 1.327 . S
C1136 C1155 1.429 . S
C1136 H1160 0.950 . S
C1137 C1154 1.574 . S
C1137 C1156 1.368 . S
C1137 H1161 0.949 . S
H1138 C1142 0.949 . S
C1139 C1140 1.349 . S
C1139 C1141 1.327 . S
C1139 H1162 0.950 . S
C1140 C1139 1.349 . S
C1140 C1152 1.349 . S
C1141 C1139 1.327 . S
C1141 C1157 1.429 . S
C1141 H1163 0.950 . S
C1142 H1138 0.949 . S
C1142 C1150 1.574 . S
C1142 C1158 1.368 . S
H1143 C1151 0.950 . S
H1144 C1149 0.950 . S
H1145 C1150 0.949 . S
H1146 C1152 0.950 . S
H1147 C1153 0.950 . S
H1148 C1154 0.949 . S
C1149 H1144 0.950 . S
C1149 C1151 1.327 . S
C1149 C1155 1.429 . S
C1150 C1142 1.574 . S
C1150 H1145 0.949 . S
C1150 C1156 1.368 . S
C1151 C1135 1.349 . S
C1151 H1143 0.950 . S
C1151 C1149 1.327 . S
C1152 C1140 1.349 . S
C1152 H1146 0.950 . S
C1152 C1153 1.327 . S
C1153 H1147 0.950 . S
C1153 C1152 1.327 . S
C1153 C1157 1.429 . S
C1154 C1137 1.574 . S
C1154 H1148 0.949 . S
C1154 C1158 1.368 . S
C1155 C1136 1.429 . S
C1155 C1149 1.429 . S
C1155 C1156 1.523 . S
C1156 C1137 1.368 . S
C1156 C1150 1.368 . S
C1156 C1155 1.523 . S
C1157 C1141 1.429 . S
C1157 C1153 1.429 . S
C1157 C1158 1.523 . S
C1158 C1142 1.368 . S
C1158 C1154 1.368 . S
C1158 C1157 1.523 . S
H1159 C1134 0.950 . S
H1160 C1136 0.950 . S
H1161 C1137 0.949 . S
H1162 C1139 0.950 . S
H1163 C1141 0.950 . S
C1164 C1165 1.349 . S
C1164 C1166 1.327 . S
C1164 H1189 0.950 . S
C1165 C1164 1.349 . S
C1165 C1181 1.349 . S
C1166 C1164 1.327 . S
C1166 C1185 1.429 . S
C1166 H1190 0.950 . S
C1167 C1184 1.574 . S
C1167 C1186 1.368 . S
C1167 H1191 0.949 . S
H1168 C1172 0.949 . S
C1169 C1170 1.349 . S
C1169 C1171 1.327 . S
C1169 H1192 0.950 . S
C1170 C1169 1.349 . S
C1170 C1182 1.349 . S
C1171 C1169 1.327 . S
C1171 C1187 1.429 . S
C1171 H1193 0.950 . S
C1172 H1168 0.949 . S
C1172 C1180 1.574 . S
C1172 C1188 1.368 . S
H1173 C1181 0.950 . S
H1174 C1179 0.950 . S
H1175 C1180 0.949 . S
H1176 C1182 0.950 . S
H1177 C1183 0.950 . S
H1178 C1184 0.949 . S
C1179 H1174 0.950 . S
C1179 C1181 1.327 . S
C1179 C1185 1.429 . S
C1180 C1172 1.574 . S
C1180 H1175 0.949 . S
C1180 C1186 1.368 . S
C1181 C1165 1.349 . S
C1181 H1173 0.950 . S
C1181 C1179 1.327 . S
C1182 C1170 1.349 . S
C1182 H1176 0.950 . S
C1182 C1183 1.327 . S
C1183 H1177 0.950 . S
C1183 C1182 1.327 . S
C1183 C1187 1.429 . S
C1184 C1167 1.574 . S
C1184 H1178 0.949 . S
C1184 C1188 1.368 . S
C1185 C1166 1.429 . S
C1185 C1179 1.429 . S
C1185 C1186 1.523 . S
C1186 C1167 1.368 . S
C1186 C1180 1.368 . S
C1186 C1185 1.523 . S
C1187 C1171 1.429 . S
C1187 C1183 1.429 . S
C1187 C1188 1.523 . S
C1188 C1172 1.368 . S
C1188 C1184 1.368 . S
C1188 C1187 1.523 . S
H1189 C1164 0.950 . S
H1190 C1166 0.950 . S
H1191 C1167 0.949 . S
H1192 C1169 0.950 . S
H1193 C1171 0.950 . S
C1194 C1195 1.349 . S
C1194 C1196 1.327 . S
C1194 H1219 0.950 . S
C1195 C1194 1.349 . S
C1195 C1211 1.349 . S
C1196 C1194 1.327 . S
C1196 C1215 1.429 . S
C1196 H1220 0.950 . S
C1197 C1214 1.574 . S
C1197 C1216 1.368 . S
C1197 H1221 0.949 . S
H1198 C1202 0.949 . S
C1199 C1200 1.349 . S
C1199 C1201 1.327 . S
C1199 H1222 0.950 . S
C1200 C1199 1.349 . S
C1200 C1212 1.349 . S
C1201 C1199 1.327 . S
C1201 C1217 1.429 . S
C1201 H1223 0.950 . S
C1202 H1198 0.949 . S
C1202 C1210 1.574 . S
C1202 C1218 1.368 . S
H1203 C1211 0.950 . S
H1204 C1209 0.950 . S
H1205 C1210 0.949 . S
H1206 C1212 0.950 . S
H1207 C1213 0.950 . S
H1208 C1214 0.949 . S
C1209 H1204 0.950 . S
C1209 C1211 1.327 . S
C1209 C1215 1.429 . S
C1210 C1202 1.574 . S
C1210 H1205 0.949 . S
C1210 C1216 1.368 . S
C1211 C1195 1.349 . S
C1211 H1203 0.950 . S
C1211 C1209 1.327 . S
C1212 C1200 1.349 . S
C1212 H1206 0.950 . S
C1212 C1213 1.327 . S
C1213 H1207 0.950 . S
C1213 C1212 1.327 . S
C1213 C1217 1.429 . S
C1214 C1197 1.574 . S
C1214 H1208 0.949 . S
C1214 C1218 1.368 . S
C1215 C1196 1.429 . S
C1215 C1209 1.429 . S
C1215 C1216 1.523 . S
C1216 C1197 1.368 . S
C1216 C1210 1.368 . S
C1216 C1215 1.523 . S
C1217 C1201 1.429 . S
C1217 C1213 1.429 . S
C1217 C1218 1.523 . S
C1218 C1202 1.368 . S
C1218 C1214 1.368 . S
C1218 C1217 1.523 . S
H1219 C1194 0.950 . S
H1220 C1196 0.950 . S
H1221 C1197 0.949 . S
H1222 C1199 0.950 . S
H1223 C1201 0.950 . S
C1224 C1225 1.349 . S
C1224 C1226 1.327 . S
C1224 H1249 0.950 . S
C1225 C1224 1.349 . S
C1225 C1241 1.349 . S
C1226 C1224 1.327 . S
C1226 C1245 1.429 . S
C1226 H1250 0.950 . S
C1227 C1244 1.574 . S
C1227 C1246 1.368 . S
C1227 H1251 0.949 . S
H1228 C1232 0.949 . S
C1229 C1230 1.349 . S
C1229 C1231 1.327 . S
C1229 H1252 0.950 . S
C1230 C1229 1.349 . S
C1230 C1242 1.349 . S
C1231 C1229 1.327 . S
C1231 C1247 1.429 . S
C1231 H1253 0.950 . S
C1232 H1228 0.949 . S
C1232 C1240 1.574 . S
C1232 C1248 1.368 . S
H1233 C1241 0.950 . S
H1234 C1239 0.950 . S
H1235 C1240 0.949 . S
H1236 C1242 0.950 . S
H1237 C1243 0.950 . S
H1238 C1244 0.949 . S
C1239 H1234 0.950 . S
C1239 C1241 1.327 . S
C1239 C1245 1.429 . S
C1240 C1232 1.574 . S
C1240 H1235 0.949 . S
C1240 C1246 1.368 . S
C1241 C1225 1.349 . S
C1241 H1233 0.950 . S
C1241 C1239 1.327 . S
C1242 C1230 1.349 . S
C1242 H1236 0.950 . S
C1242 C1243 1.327 . S
C1243 H1237 0.950 . S
C1243 C1242 1.327 . S
C1243 C1247 1.429 . S
C1244 C1227 1.574 . S
C1244 H1238 0.949 . S
C1244 C1248 1.368 . S
C1245 C1226 1.429 . S
C1245 C1239 1.429 . S
C1245 C1246 1.523 . S
C1246 C1227 1.368 . S
C1246 C1240 1.368 . S
C1246 C1245 1.523 . S
C1247 C1231 1.429 . S
C1247 C1243 1.429 . S
C1247 C1248 1.523 . S
C1248 C1232 1.368 . S
C1248 C1244 1.368 . S
C1248 C1247 1.523 . S
H1249 C1224 0.950 . S
H1250 C1226 0.950 . S
H1251 C1227 0.949 . S
H1252 C1229 0.950 . S
H1253 C1231 0.950 . S
C1254 C1255 1.349 . S
C1254 C1256 1.327 . S
C1254 H1279 0.950 . S
C1255 C1254 1.349 . S
C1255 C1271 1.349 . S
C1256 C1254 1.327 . S
C1256 C1275 1.429 . S
C1256 H1280 0.950 . S
C1257 C1274 1.574 . S
C1257 C1276 1.368 . S
C1257 H1281 0.949 . S
H1258 C1262 0.949 . S
C1259 C1260 1.349 . S
C1259 C1261 1.327 . S
C1259 H1282 0.950 . S
C1260 C1259 1.349 . S
C1260 C1272 1.349 . S
C1261 C1259 1.327 . S
C1261 C1277 1.429 . S
C1261 H1283 0.950 . S
C1262 H1258 0.949 . S
C1262 C1270 1.574 . S
C1262 C1278 1.368 . S
H1263 C1271 0.950 . S
H1264 C1269 0.950 . S
H1265 C1270 0.949 . S
H1266 C1272 0.950 . S
H1267 C1273 0.950 . S
H1268 C1274 0.949 . S
C1269 H1264 0.950 . S
C1269 C1271 1.327 . S
C1269 C1275 1.429 . S
C1270 C1262 1.574 . S
C1270 H1265 0.949 . S
C1270 C1276 1.368 . S
C1271 C1255 1.349 . S
C1271 H1263 0.950 . S
C1271 C1269 1.327 . S
C1272 C1260 1.349 . S
C1272 H1266 0.950 . S
C1272 C1273 1.327 . S
C1273 H1267 0.950 . S
C1273 C1272 1.327 . S
C1273 C1277 1.429 . S
C1274 C1257 1.574 . S
C1274 H1268 0.949 . S
C1274 C1278 1.368 . S
C1275 C1256 1.429 . S
C1275 C1269 1.429 . S
C1275 C1276 1.523 . S
C1276 C1257 1.368 . S
C1276 C1270 1.368 . S
C1276 C1275 1.523 . S
C1277 C1261 1.429 . S
C1277 C1273 1.429 . S
C1277 C1278 1.523 . S
C1278 C1262 1.368 . S
C1278 C1274 1.368 . S
C1278 C1277 1.523 . S
H1279 C1254 0.950 . S
H1280 C1256 0.950 . S
H1281 C1257 0.949 . S
H1282 C1259 0.950 . S
H1283 C1261 0.950 . S
C1284 C1285 1.349 . S
C1284 C1286 1.327 . S
C1284 H1309 0.950 . S
C1285 C1284 1.349 . S
C1285 C1301 1.349 . S
C1286 C1284 1.327 . S
C1286 C1305 1.429 . S
C1286 H1310 0.950 . S
C1287 C1304 1.574 . S
C1287 C1306 1.368 . S
C1287 H1311 0.949 . S
H1288 C1292 0.949 . S
C1289 C1290 1.349 . S
C1289 C1291 1.327 . S
C1289 H1312 0.950 . S
C1290 C1289 1.349 . S
C1290 C1302 1.349 . S
C1291 C1289 1.327 . S
C1291 C1307 1.429 . S
C1291 H1313 0.950 . S
C1292 H1288 0.949 . S
C1292 C1300 1.574 . S
C1292 C1308 1.368 . S
H1293 C1301 0.950 . S
H1294 C1299 0.950 . S
H1295 C1300 0.949 . S
H1296 C1302 0.950 . S
H1297 C1303 0.950 . S
H1298 C1304 0.949 . S
C1299 H1294 0.950 . S
C1299 C1301 1.327 . S
C1299 C1305 1.429 . S
C1300 C1292 1.574 . S
C1300 H1295 0.949 . S
C1300 C1306 1.368 . S
C1301 C1285 1.349 . S
C1301 H1293 0.950 . S
C1301 C1299 1.327 . S
C1302 C1290 1.349 . S
C1302 H1296 0.950 . S
C1302 C1303 1.327 . S
C1303 H1297 0.950 . S
C1303 C1302 1.327 . S
C1303 C1307 1.429 . S
C1304 C1287 1.574 . S
C1304 H1298 0.949 . S
C1304 C1308 1.368 . S
C1305 C1286 1.429 . S
C1305 C1299 1.429 . S
C1305 C1306 1.523 . S
C1306 C1287 1.368 . S
C1306 C1300 1.368 . S
C1306 C1305 1.523 . S
C1307 C1291 1.429 . S
C1307 C1303 1.429 . S
C1307 C1308 1.523 . S
C1308 C1292 1.368 . S
C1308 C1304 1.368 . S
C1308 C1307 1.523 . S
H1309 C1284 0.950 . S
H1310 C1286 0.950 . S
H1311 C1287 0.949 . S
H1312 C1289 0.950 . S
H1313 C1291 0.950 . S
C235 C43 1.309 . S
C240 C10 1.309 . S
C265 C62 1.309 . S
C270 C23 1.309 . S
C295 C36 1.309 . S
C300 C75 1.309 . S
C325 C30 1.309 . S
C330 C69 1.309 . S
C355 C4 1.309 . S
C360 C49 1.309 . S
C385 C56 1.309 . S
C390 C17 1.309 . S
C415 C121 1.309 . S
C420 C82 1.309 . S
C445 C101 1.309 . S
C450 C140 1.309 . S
C475 C114 1.308 . S
C480 C147 1.308 . S
C505 C153 1.310 1_556 S
C510 C108 1.310 . S
C535 C127 1.309 1_556 S
C540 C88 1.309 . S
C565 C134 1.309 1_556 S
C570 C95 1.309 . S
C595 C160 1.310 . S
C600 C205 1.310 . S
C625 C173 1.309 . S
C630 C218 1.309 . S
C655 C186 1.308 . S
C660 C225 1.308 . S
C685 C231 1.309 . S
C690 C192 1.309 1_554 S
C715 C199 1.308 . S
C720 C166 1.308 1_554 S
C745 C212 1.309 . S
C750 C179 1.309 1_554 S
C775 C3 1.284 . S
C780 C96 1.284 . S
C805 C16 1.284 . S
C810 C109 1.284 . S
C835 C81 1.284 . S
C840 C29 1.284 . S
C865 C31 1.284 . S
C870 C174 1.284 . S
C895 C187 1.284 . S
C900 C5 1.284 . S
C925 C161 1.284 . S
C930 C18 1.284 . S
C955 C213 1.284 . S
C960 C44 1.284 . S
C985 C55 1.284 . S
C990 C224 1.284 . S
C1015 C200 1.284 . S
C1020 C68 1.284 . S
C1045 C133 1.284 . S
C1050 C70 1.284 . S
C1075 C42 1.284 . S
C1080 C148 1.285 . S
C1105 C57 1.284 . S
C1110 C122 1.284 . S
C1135 C83 1.284 . S
C1140 C172 1.284 . S
C1165 C94 1.284 . S
C1170 C185 1.284 . S
C1195 C107 1.284 . S
C1200 C159 1.284 . S
C1225 C211 1.284 . S
C1230 C146 1.284 . S
C1255 C226 1.284 . S
C1260 C120 1.284 . S
C1285 C135 1.284 . S
C1290 C198 1.284 . S
