# Generated by pormake.
# Topology uox, (4)-cn, num edge types: 1
# Building blocks:
#     Node 0, Type 0, BuildingBlock: AZAVOO_clean_sbu_0, # of connection points: 4
#     Node 1, Type 0, BuildingBlock: AZAVOO_clean_sbu_0, # of connection points: 4
#     Node 2, Type 0, BuildingBlock: AZAVOO_clean_sbu_0, # of connection points: 4
#     Node 3, Type 0, BuildingBlock: AZAVOO_clean_sbu_0, # of connection points: 4
#     Node 4, Type 0, BuildingBlock: AZAVOO_clean_sbu_0, # of connection points: 4
#     Node 5, Type 0, BuildingBlock: AZAVOO_clean_sbu_0, # of connection points: 4
#     Node 6, Type 0, BuildingBlock: AZAVOO_clean_sbu_0, # of connection points: 4
#     Node 7, Type 0, BuildingBlock: AZAVOO_clean_sbu_0, # of connection points: 4
#     Node 8, Type 0, BuildingBlock: AZAVOO_clean_sbu_0, # of connection points: 4
#     Node 9, Type 0, BuildingBlock: AZAVOO_clean_sbu_0, # of connection points: 4
#     Node 10, Type 0, BuildingBlock: AZAVOO_clean_sbu_0, # of connection points: 4
#     Node 11, Type 0, BuildingBlock: AZAVOO_clean_sbu_0, # of connection points: 4
#     Node 12, Type 0, BuildingBlock: AZAVOO_clean_sbu_0, # of connection points: 4
#     Node 13, Type 0, BuildingBlock: AZAVOO_clean_sbu_0, # of connection points: 4
#     Node 14, Type 0, BuildingBlock: AZAVOO_clean_sbu_0, # of connection points: 4
#     Node 15, Type 0, BuildingBlock: AZAVOO_clean_sbu_0, # of connection points: 4
#     Node 16, Type 0, BuildingBlock: AZAVOO_clean_sbu_0, # of connection points: 4
#     Node 17, Type 0, BuildingBlock: AZAVOO_clean_sbu_0, # of connection points: 4
#     Node 18, Type 0, BuildingBlock: AZAVOO_clean_sbu_0, # of connection points: 4
#     Node 19, Type 0, BuildingBlock: AZAVOO_clean_sbu_0, # of connection points: 4
#     Node 20, Type 0, BuildingBlock: AZAVOO_clean_sbu_0, # of connection points: 4
#     Node 21, Type 0, BuildingBlock: AZAVOO_clean_sbu_0, # of connection points: 4
#     Node 22, Type 0, BuildingBlock: AZAVOO_clean_sbu_0, # of connection points: 4
#     Node 23, Type 0, BuildingBlock: AZAVOO_clean_sbu_0, # of connection points: 4
#     Node 24, Type 0, BuildingBlock: AZAVOO_clean_sbu_0, # of connection points: 4
#     Node 25, Type 0, BuildingBlock: AZAVOO_clean_sbu_0, # of connection points: 4
#     Node 26, Type 0, BuildingBlock: AZAVOO_clean_sbu_0, # of connection points: 4
#     Node 27, Type 0, BuildingBlock: AZAVOO_clean_sbu_0, # of connection points: 4
#     Node 28, Type 0, BuildingBlock: AZAVOO_clean_sbu_0, # of connection points: 4
#     Node 29, Type 0, BuildingBlock: AZAVOO_clean_sbu_0, # of connection points: 4
#     Node 30, Type 0, BuildingBlock: AZAVOO_clean_sbu_0, # of connection points: 4
#     Node 31, Type 0, BuildingBlock: AZAVOO_clean_sbu_0, # of connection points: 4
#     Edge 32, Type (0, 0), None
#     Edge 33, Type (0, 0), None
#     Edge 34, Type (0, 0), None
#     Edge 35, Type (0, 0), None
#     Edge 36, Type (0, 0), None
#     Edge 37, Type (0, 0), None
#     Edge 38, Type (0, 0), None
#     Edge 39, Type (0, 0), None
#     Edge 40, Type (0, 0), None
#     Edge 41, Type (0, 0), None
#     Edge 42, Type (0, 0), None
#     Edge 43, Type (0, 0), None
#     Edge 44, Type (0, 0), None
#     Edge 45, Type (0, 0), None
#     Edge 46, Type (0, 0), None
#     Edge 47, Type (0, 0), None
#     Edge 48, Type (0, 0), None
#     Edge 49, Type (0, 0), None
#     Edge 50, Type (0, 0), None
#     Edge 51, Type (0, 0), None
#     Edge 52, Type (0, 0), None
#     Edge 53, Type (0, 0), None
#     Edge 54, Type (0, 0), None
#     Edge 55, Type (0, 0), None
#     Edge 56, Type (0, 0), None
#     Edge 57, Type (0, 0), None
#     Edge 58, Type (0, 0), None
#     Edge 59, Type (0, 0), None
#     Edge 60, Type (0, 0), None
#     Edge 61, Type (0, 0), None
#     Edge 62, Type (0, 0), None
#     Edge 63, Type (0, 0), None
#     Edge 64, Type (0, 0), None
#     Edge 65, Type (0, 0), None
#     Edge 66, Type (0, 0), None
#     Edge 67, Type (0, 0), None
#     Edge 68, Type (0, 0), None
#     Edge 69, Type (0, 0), None
#     Edge 70, Type (0, 0), None
#     Edge 71, Type (0, 0), None
#     Edge 72, Type (0, 0), None
#     Edge 73, Type (0, 0), None
#     Edge 74, Type (0, 0), None
#     Edge 75, Type (0, 0), None
#     Edge 76, Type (0, 0), None
#     Edge 77, Type (0, 0), None
#     Edge 78, Type (0, 0), None
#     Edge 79, Type (0, 0), None
#     Edge 80, Type (0, 0), None
#     Edge 81, Type (0, 0), None
#     Edge 82, Type (0, 0), None
#     Edge 83, Type (0, 0), None
#     Edge 84, Type (0, 0), None
#     Edge 85, Type (0, 0), None
#     Edge 86, Type (0, 0), None
#     Edge 87, Type (0, 0), None
#     Edge 88, Type (0, 0), None
#     Edge 89, Type (0, 0), None
#     Edge 90, Type (0, 0), None
#     Edge 91, Type (0, 0), None
#     Edge 92, Type (0, 0), None
#     Edge 93, Type (0, 0), None
#     Edge 94, Type (0, 0), None
#     Edge 95, Type (0, 0), None
# Relax obj value: 0.132
# Max RMSD: 0.163
# Mean RMSD: 0.163
data_MOF--net-uox--node1-AZAVOO_clean_sbu_0--edge1-none
_symmetry_space_group_name_H-M    P1
_symmetry_Int_Tables_number       1
_symmetry_cell_setting            triclinic
loop_
_symmetry_equiv_pos_as_xyz
'x, y, z'
_cell_length_a     17.359739
_cell_length_b     17.359675
_cell_length_c     41.211707
_cell_angle_alpha  90.000151
_cell_angle_beta   89.999323
_cell_angle_gamma 90.000591
loop_
_atom_site_label
_atom_site_type_symbol
_atom_site_fract_x
_atom_site_fract_y
_atom_site_fract_z
_atom_type_partial_charge
Mg0 Mg 0.57534 1.01957 0.10717 0.0
O1 O 0.47069 0.09711 0.09271 0.0
O2 O 0.36676 1.04083 0.11435 0.0
Mg3 Mg 0.39917 0.9275 0.13999 0.0
C4 C 0.39808 0.09492 0.09796 0.0
C5 C 0.70149 0.09698 0.06413 0.0
O6 O 0.69248 1.02877 0.05091 0.0
O7 O 0.57126 0.05982 0.16118 0.0
O8 O 0.46731 0.99363 0.1777 0.0
O9 O 0.55223 0.94602 0.0633 0.0
O10 O 0.50417 0.92184 0.11164 0.0
C11 C 0.52541 1.0363 0.18357 0.0
C12 C 0.50763 0.90496 0.08154 0.0
O13 O 0.66064 0.11458 0.08883 0.0
Mg14 Mg 0.33812 0.32535 0.35717 0.0
O15 O 0.26057 0.22069 0.34271 0.0
O16 O 0.31685 0.11676 0.36435 0.0
Mg17 Mg 0.43018 0.14917 0.38999 0.0
C18 C 0.26276 0.14808 0.34796 0.0
C19 C 0.26071 0.45149 0.31413 0.0
O20 O 0.32892 0.44248 0.30091 0.0
O21 O 0.29787 0.32126 0.41118 0.0
O22 O 0.36406 0.21731 0.4277 0.0
O23 O 0.41166 0.30223 0.3133 0.0
O24 O 0.43585 0.25417 0.36164 0.0
C25 C 0.32139 0.2754 0.43357 0.0
C26 C 0.45273 0.25763 0.33154 0.0
O27 O 0.24311 0.41064 0.33883 0.0
Mg28 Mg 1.03234 0.08811 0.60717 0.0
O29 O 0.137 1.01057 0.59271 0.0
O30 O 0.24093 0.06685 0.61435 0.0
Mg31 Mg 0.20851 0.18018 0.63999 0.0
C32 C 0.2096 1.01276 0.59796 0.0
C33 C 0.9062 1.0107 0.56413 0.0
O34 O 0.91521 0.07891 0.55091 0.0
O35 O 1.03642 1.04786 0.66118 0.0
O36 O 0.14037 0.11405 0.67771 0.0
O37 O 0.05545 0.16166 0.5633 0.0
O38 O 0.10351 0.18584 0.61164 0.0
C39 C 0.08228 0.07138 0.68357 0.0
C40 C 0.10006 0.20272 0.58154 0.0
O41 O 0.94704 0.9931 0.58883 0.0
Mg42 Mg 0.26957 0.78234 0.85717 0.0
O43 O 0.34711 0.88699 0.84271 0.0
O44 O 0.29083 0.99092 0.86435 0.0
Mg45 Mg 0.17749 0.95851 0.88999 0.0
C46 C 0.34492 0.9596 0.84796 0.0
C47 C 0.34697 0.65619 0.81413 0.0
O48 O 0.27876 0.6652 0.80091 0.0
O49 O 0.30981 0.78642 0.91118 0.0
O50 O 0.24362 0.89037 0.9277 0.0
O51 O 0.19602 0.80545 0.8133 0.0
O52 O 0.17183 0.85351 0.86164 0.0
C53 C 0.28629 0.83228 0.93357 0.0
C54 C 0.15495 0.85005 0.83154 0.0
O55 O 0.36457 0.69704 0.83883 0.0
Mg56 Mg 0.57533 0.08814 0.29218 0.0
O57 O 0.47068 1.01058 0.30663 0.0
O58 O 0.36675 0.06687 0.28499 0.0
Mg59 Mg 0.39915 0.18023 0.25937 0.0
C60 C 0.39807 1.01277 0.30137 0.0
C61 C 0.70149 1.01072 0.3352 0.0
O62 O 0.69247 0.07892 0.34843 0.0
O63 O 0.57125 1.04793 0.23816 0.0
O64 O 0.46731 0.11416 0.22164 0.0
O65 O 0.55222 0.16166 0.33606 0.0
O66 O 0.50416 0.18587 0.28772 0.0
C67 C 0.52542 0.07151 0.21577 0.0
C68 C 0.50761 0.20272 0.31782 0.0
O69 O 0.66064 0.99313 0.31051 0.0
Mg70 Mg 0.26955 0.32533 0.54218 0.0
O71 O 0.3471 0.22067 0.55663 0.0
O72 O 0.29082 0.11675 0.53499 0.0
Mg73 Mg 0.17745 0.14915 0.50937 0.0
C74 C 0.34492 0.14807 0.55137 0.0
C75 C 0.34697 0.45149 0.5852 0.0
O76 O 0.27876 0.44248 0.59843 0.0
O77 O 0.30976 0.32124 0.48816 0.0
O78 O 0.24352 0.21731 0.47164 0.0
O79 O 0.19602 0.30221 0.58606 0.0
O80 O 0.17182 0.25415 0.53772 0.0
C81 C 0.28618 0.27541 0.46577 0.0
C82 C 0.15496 0.2576 0.56782 0.0
O83 O 0.36456 0.41063 0.56051 0.0
Mg84 Mg 1.03235 1.01954 0.79218 0.0
O85 O 0.137 0.0971 0.80663 0.0
O86 O 0.24093 1.04081 0.78499 0.0
Mg87 Mg 0.20853 0.92745 0.75937 0.0
C88 C 0.20961 0.09491 0.80137 0.0
C89 C 0.90619 0.09696 0.83521 0.0
O90 O 0.9152 1.02876 0.84843 0.0
O91 O 1.03644 0.05975 0.73816 0.0
O92 O 0.14037 0.99352 0.72164 0.0
O93 O 0.05546 0.94602 0.83606 0.0
O94 O 0.10352 0.92181 0.78772 0.0
C95 C 0.08226 1.03617 0.71577 0.0
C96 C 0.10007 0.90496 0.81782 0.0
O97 O 0.94705 0.11455 0.81051 0.0
Mg98 Mg 0.33814 0.78235 0.04218 0.0
O99 O 0.26058 0.88701 0.05663 0.0
O100 O 0.31687 0.99094 0.03498 0.0
Mg101 Mg 0.43023 0.95853 0.00937 0.0
C102 C 0.26277 0.95962 0.05137 0.0
C103 C 0.26072 0.6562 0.0852 0.0
O104 O 0.32892 0.6652 0.09843 0.0
O105 O 0.29793 0.78644 -0.01184 0.0
O106 O 0.36416 0.89037 -0.02836 0.0
O107 O 0.41166 0.80547 0.08606 0.0
O108 O 0.43587 0.85353 0.03772 0.0
C109 C 0.32151 0.83227 -0.03423 0.0
C110 C 0.45272 0.85008 0.06782 0.0
O111 O 0.24312 0.69705 0.06051 0.0
Mg112 Mg 0.53234 0.08811 0.79216 0.0
O113 O 0.637 1.01057 0.80663 0.0
O114 O 0.74093 0.06685 0.78498 0.0
Mg115 Mg 0.70851 0.18018 0.75934 0.0
C116 C 0.7096 1.01276 0.80137 0.0
C117 C 0.40619 1.01071 0.8352 0.0
O118 O 0.4152 0.07892 0.84842 0.0
O119 O 0.53642 1.04787 0.73815 0.0
O120 O 0.64037 0.11406 0.72163 0.0
O121 O 0.55545 0.16166 0.83604 0.0
O122 O 0.60351 0.18584 0.78769 0.0
C123 C 0.58228 0.07139 0.71576 0.0
C124 C 0.60006 0.20272 0.81779 0.0
O125 O 0.44704 0.9931 0.81051 0.0
Mg126 Mg 0.76957 0.78233 0.54216 0.0
O127 O 0.84711 0.88699 0.55663 0.0
O128 O 0.79084 0.99092 0.53498 0.0
Mg129 Mg 0.6775 0.95851 0.50934 0.0
C130 C 0.84493 0.9596 0.55137 0.0
C131 C 0.84697 0.65619 0.5852 0.0
O132 O 0.77877 0.66521 0.59842 0.0
O133 O 0.80981 0.78642 0.48815 0.0
O134 O 0.74363 0.89037 0.47163 0.0
O135 O 0.69602 0.80545 0.58603 0.0
O136 O 0.67184 0.85351 0.53769 0.0
C137 C 0.7863 0.83228 0.46576 0.0
C138 C 0.65496 0.85005 0.56779 0.0
O139 O 0.86457 0.69703 0.5605 0.0
Mg140 Mg 0.07534 1.01957 0.29216 0.0
O141 O 0.97069 0.09711 0.30663 0.0
O142 O 0.86676 1.04083 0.28498 0.0
Mg143 Mg 0.89917 0.9275 0.25934 0.0
C144 C 0.89808 0.09492 0.30137 0.0
C145 C 0.20149 0.09697 0.3352 0.0
O146 O 0.19248 1.02877 0.34842 0.0
O147 O 0.07126 0.05982 0.23815 0.0
O148 O 0.96731 0.99363 0.22163 0.0
O149 O 1.05223 0.94602 0.33603 0.0
O150 O 1.00417 0.92184 0.28769 0.0
C151 C 1.0254 1.0363 0.21576 0.0
C152 C 1.00763 0.90496 0.31779 0.0
O153 O 0.16064 0.11458 0.3105 0.0
Mg154 Mg 0.83812 0.32535 0.04216 0.0
O155 O 0.76057 0.22069 0.05662 0.0
O156 O 0.81685 0.11676 0.03498 0.0
Mg157 Mg 0.93019 0.14917 0.00934 0.0
C158 C 0.76276 0.14808 0.05137 0.0
C159 C 0.76071 0.45149 0.0852 0.0
O160 O 0.82891 0.44248 0.09842 0.0
O161 O 0.79787 0.32126 -0.01185 0.0
O162 O 0.86406 0.21731 -0.02837 0.0
O163 O 0.91166 0.30223 0.08603 0.0
O164 O 0.93585 0.25418 0.03769 0.0
C165 C 0.82139 0.27541 -0.03424 0.0
C166 C 0.95273 0.25763 0.06779 0.0
O167 O 0.74311 0.41065 0.0605 0.0
Mg168 Mg 0.53235 1.01954 0.60715 0.0
O169 O 0.63701 0.0971 0.5927 0.0
O170 O 0.74093 1.04081 0.61435 0.0
Mg171 Mg 0.70853 0.92745 0.63996 0.0
C172 C 0.70961 0.09491 0.59796 0.0
C173 C 0.40619 0.09696 0.56413 0.0
O174 O 0.4152 1.02876 0.5509 0.0
O175 O 0.53644 0.05975 0.66117 0.0
O176 O 0.64037 0.99352 0.67769 0.0
O177 O 0.55547 0.94602 0.56327 0.0
O178 O 0.60352 0.92181 0.61162 0.0
C179 C 0.58227 1.03617 0.68356 0.0
C180 C 0.60008 0.90496 0.58151 0.0
O181 O 0.44705 0.11455 0.58882 0.0
Mg182 Mg 0.83814 0.78235 0.35715 0.0
O183 O 0.76058 0.887 0.3427 0.0
O184 O 0.81686 0.99093 0.36435 0.0
Mg185 Mg 0.93023 0.95853 0.38996 0.0
C186 C 0.76276 0.95961 0.34796 0.0
C187 C 0.76072 0.65619 0.31413 0.0
O188 O 0.82892 0.6652 0.3009 0.0
O189 O 0.79793 0.78644 0.41117 0.0
O190 O 0.86416 0.89037 0.42769 0.0
O191 O 0.91166 0.80547 0.31327 0.0
O192 O 0.93586 0.85352 0.36161 0.0
C193 C 0.82151 0.83226 0.43356 0.0
C194 C 0.95272 0.85008 0.33151 0.0
O195 O 0.74312 0.69704 0.33882 0.0
Mg196 Mg 0.07533 0.08814 0.10715 0.0
O197 O 0.97068 1.01058 0.0927 0.0
O198 O 0.86675 0.06687 0.11435 0.0
Mg199 Mg 0.89915 0.18023 0.13996 0.0
C200 C 0.89807 1.01277 0.09796 0.0
C201 C 0.20149 1.01073 0.06413 0.0
O202 O 0.19248 0.07893 0.0509 0.0
O203 O 0.07124 1.04793 0.16117 0.0
O204 O 0.96731 0.11416 0.17769 0.0
O205 O 1.05222 0.16166 0.06327 0.0
O206 O 1.00416 0.18587 0.11161 0.0
C207 C 1.02542 0.07151 0.18356 0.0
C208 C 1.00761 0.20273 0.08151 0.0
O209 O 0.16064 0.99313 0.08882 0.0
Mg210 Mg 0.76955 0.32533 0.85715 0.0
O211 O 0.8471 0.22068 0.8427 0.0
O212 O 0.79082 0.11675 0.86435 0.0
Mg213 Mg 0.67745 0.14915 0.88996 0.0
C214 C 0.84492 0.14807 0.84796 0.0
C215 C 0.84697 0.45149 0.81413 0.0
O216 O 0.77876 0.44248 0.8009 0.0
O217 O 0.80976 0.32125 0.91117 0.0
O218 O 0.74352 0.21731 0.92769 0.0
O219 O 0.69602 0.30221 0.81327 0.0
O220 O 0.67182 0.25416 0.86162 0.0
C221 C 0.78617 0.27542 0.93356 0.0
C222 C 0.65496 0.2576 0.83151 0.0
O223 O 0.86456 0.41064 0.83882 0.0
Mg224 Mg 0.07535 0.51957 0.60717 0.0
O225 O 0.97069 0.59711 0.59271 0.0
O226 O 0.86676 0.54083 0.61435 0.0
Mg227 Mg 0.89917 0.4275 0.63999 0.0
C228 C 0.89808 0.59492 0.59796 0.0
C229 C 0.20149 0.59697 0.56413 0.0
O230 O 0.19248 0.52876 0.55091 0.0
O231 O 0.07126 0.55981 0.66118 0.0
O232 O 0.96731 0.49362 0.6777 0.0
O233 O 1.05223 0.44602 0.5633 0.0
O234 O 1.00417 0.42184 0.61164 0.0
C235 C 1.02541 0.53629 0.68357 0.0
C236 C 1.00763 0.40496 0.58154 0.0
O237 O 0.16064 0.61457 0.58883 0.0
Mg238 Mg 0.83811 0.82534 0.85717 0.0
O239 O 0.76057 0.72069 0.84271 0.0
O240 O 0.81685 0.61676 0.86435 0.0
Mg241 Mg 0.93018 0.64917 0.88999 0.0
C242 C 0.76276 0.64808 0.84796 0.0
C243 C 0.76071 0.95149 0.81413 0.0
O244 O 0.82892 0.94248 0.80091 0.0
O245 O 0.79787 0.82126 0.91118 0.0
O246 O 0.86406 0.71731 0.9277 0.0
O247 O 0.91166 0.80223 0.8133 0.0
O248 O 0.93585 0.75417 0.86164 0.0
C249 C 0.82139 0.7754 0.93357 0.0
C250 C 0.95273 0.75763 0.83154 0.0
O251 O 0.74311 0.91064 0.83883 0.0
Mg252 Mg 0.53234 0.58811 0.10717 0.0
O253 O 0.63699 0.51057 0.09271 0.0
O254 O 0.74092 0.56685 0.11435 0.0
Mg255 Mg 0.70851 0.68019 0.13999 0.0
C256 C 0.7096 0.51276 0.09796 0.0
C257 C 0.40619 0.51071 0.06413 0.0
O258 O 0.41521 0.57892 0.05091 0.0
O259 O 0.53642 0.54787 0.16118 0.0
O260 O 0.64037 0.61405 0.1777 0.0
O261 O 0.55545 0.66166 0.0633 0.0
O262 O 0.60351 0.68585 0.11164 0.0
C263 C 0.58228 0.57138 0.18357 0.0
C264 C 0.60006 0.70273 0.08154 0.0
O265 O 0.44704 0.49311 0.08883 0.0
Mg266 Mg 0.76957 0.28234 0.35717 0.0
O267 O 0.84711 0.387 0.34271 0.0
O268 O 0.79083 0.49093 0.36435 0.0
Mg269 Mg 0.67749 0.45851 0.38999 0.0
C270 C 0.84492 0.4596 0.34796 0.0
C271 C 0.84697 0.15619 0.31413 0.0
O272 O 0.77876 0.1652 0.30091 0.0
O273 O 0.80981 0.28642 0.41118 0.0
O274 O 0.74362 0.39037 0.4277 0.0
O275 O 0.69602 0.30545 0.3133 0.0
O276 O 0.67183 0.35351 0.36164 0.0
C277 C 0.78629 0.33228 0.43357 0.0
C278 C 0.65495 0.35005 0.33154 0.0
O279 O 0.86457 0.19704 0.33883 0.0
Mg280 Mg 0.07533 0.58814 0.79218 0.0
O281 O 0.97068 0.51058 0.80663 0.0
O282 O 0.86675 0.56686 0.78498 0.0
Mg283 Mg 0.89915 0.68023 0.75937 0.0
C284 C 0.89807 0.51277 0.80137 0.0
C285 C 0.20149 0.51072 0.8352 0.0
O286 O 0.19248 0.57892 0.84843 0.0
O287 O 0.07125 0.54793 0.73816 0.0
O288 O 0.96731 0.61416 0.72164 0.0
O289 O 1.05222 0.66166 0.83606 0.0
O290 O 1.00416 0.68587 0.78772 0.0
C291 C 1.02542 0.57151 0.71577 0.0
C292 C 1.00761 0.70272 0.81782 0.0
O293 O 0.16064 0.49313 0.81051 0.0
Mg294 Mg 0.76955 0.82533 0.04218 0.0
O295 O 0.8471 0.72067 0.05663 0.0
O296 O 0.79082 0.61675 0.03499 0.0
Mg297 Mg 0.67745 0.64915 0.00937 0.0
C298 C 0.84492 0.64807 0.05137 0.0
C299 C 0.84696 0.95149 0.0852 0.0
O300 O 0.77876 0.94248 0.09843 0.0
O301 O 0.80976 0.82124 -0.01184 0.0
O302 O 0.74352 0.71731 -0.02836 0.0
O303 O 0.69603 0.80221 0.08606 0.0
O304 O 0.67182 0.75416 0.03772 0.0
C305 C 0.78618 0.77541 -0.03423 0.0
C306 C 0.65496 0.75761 0.06782 0.0
O307 O 0.86456 0.91064 0.06051 0.0
Mg308 Mg 0.53235 0.51954 0.29218 0.0
O309 O 0.637 0.5971 0.30663 0.0
O310 O 0.74093 0.54082 0.28498 0.0
Mg311 Mg 0.70853 0.42745 0.25937 0.0
C312 C 0.70961 0.59491 0.30137 0.0
C313 C 0.40619 0.59696 0.3352 0.0
O314 O 0.4152 0.52876 0.34843 0.0
O315 O 0.53644 0.55975 0.23816 0.0
O316 O 0.64037 0.49352 0.22164 0.0
O317 O 0.55547 0.44602 0.33606 0.0
O318 O 0.60352 0.42181 0.28772 0.0
C319 C 0.58226 0.53617 0.21577 0.0
C320 C 0.60007 0.40496 0.31782 0.0
O321 O 0.44705 0.61455 0.31051 0.0
Mg322 Mg 0.83814 0.28235 0.54218 0.0
O323 O 0.76058 0.38701 0.55663 0.0
O324 O 0.81687 0.49093 0.53498 0.0
Mg325 Mg 0.93023 0.45853 0.50937 0.0
C326 C 0.76277 0.45961 0.55137 0.0
C327 C 0.76072 0.15619 0.5852 0.0
O328 O 0.82892 0.1652 0.59843 0.0
O329 O 0.79792 0.28644 0.48816 0.0
O330 O 0.86416 0.39037 0.47164 0.0
O331 O 0.91166 0.30547 0.58606 0.0
O332 O 0.93587 0.35352 0.53772 0.0
C333 C 0.82151 0.33227 0.46577 0.0
C334 C 0.95272 0.35008 0.56782 0.0
O335 O 0.74312 0.19705 0.56051 0.0
Mg336 Mg 1.03234 0.58811 0.29216 0.0
O337 O 0.13699 0.51057 0.30663 0.0
O338 O 0.24093 0.56685 0.28498 0.0
Mg339 Mg 0.20852 0.68018 0.25934 0.0
C340 C 0.2096 0.51276 0.30137 0.0
C341 C 0.90619 0.51071 0.3352 0.0
O342 O 0.9152 0.57892 0.34842 0.0
O343 O 1.03642 0.54787 0.23815 0.0
O344 O 0.14037 0.61406 0.22163 0.0
O345 O 0.05545 0.66166 0.33604 0.0
O346 O 0.10351 0.68584 0.28769 0.0
C347 C 0.08228 0.57139 0.21576 0.0
C348 C 0.10006 0.70272 0.31779 0.0
O349 O 0.94704 0.49311 0.31051 0.0
Mg350 Mg 0.26957 0.28234 0.04216 0.0
O351 O 0.34711 0.38699 0.05663 0.0
O352 O 0.29084 0.49092 0.03498 0.0
Mg353 Mg 0.1775 0.45851 0.00935 0.0
C354 C 0.34493 0.4596 0.05137 0.0
C355 C 0.34697 0.15619 0.0852 0.0
O356 O 0.27877 0.16521 0.09842 0.0
O357 O 0.30981 0.28642 -0.01185 0.0
O358 O 0.24363 0.39037 -0.02837 0.0
O359 O 0.19602 0.30545 0.08604 0.0
O360 O 0.17184 0.35351 0.03769 0.0
C361 C 0.28629 0.33228 -0.03424 0.0
C362 C 0.15496 0.35005 0.06779 0.0
O363 O 0.36457 0.19704 0.0605 0.0
Mg364 Mg 0.57534 0.51957 0.79216 0.0
O365 O 0.47069 0.59711 0.80662 0.0
O366 O 0.36676 0.54083 0.78498 0.0
Mg367 Mg 0.39917 0.4275 0.75934 0.0
C368 C 0.39808 0.59493 0.80137 0.0
C369 C 0.70149 0.59697 0.8352 0.0
O370 O 0.69248 0.52876 0.84842 0.0
O371 O 0.57126 0.55982 0.73815 0.0
O372 O 0.46731 0.49363 0.72163 0.0
O373 O 0.55223 0.44602 0.83603 0.0
O374 O 0.50417 0.42184 0.78769 0.0
C375 C 0.5254 0.5363 0.71576 0.0
C376 C 0.50762 0.40496 0.81779 0.0
O377 O 0.66064 0.61458 0.8105 0.0
Mg378 Mg 0.33812 0.82535 0.54216 0.0
O379 O 0.26057 0.72069 0.55663 0.0
O380 O 0.31685 0.61676 0.53498 0.0
Mg381 Mg 0.43019 0.64917 0.50934 0.0
C382 C 0.26276 0.64808 0.55137 0.0
C383 C 0.26071 0.95149 0.5852 0.0
O384 O 0.32892 0.94248 0.59842 0.0
O385 O 0.29787 0.82126 0.48815 0.0
O386 O 0.36406 0.71731 0.47163 0.0
O387 O 0.41166 0.80223 0.58603 0.0
O388 O 0.43585 0.75417 0.53769 0.0
C389 C 0.32139 0.7754 0.46576 0.0
C390 C 0.45273 0.75763 0.56779 0.0
O391 O 0.24311 0.91064 0.56051 0.0
Mg392 Mg 1.03235 0.51954 0.10715 0.0
O393 O 0.137 0.5971 0.0927 0.0
O394 O 0.24093 0.54082 0.11435 0.0
Mg395 Mg 0.20853 0.42745 0.13996 0.0
C396 C 0.20961 0.59492 0.09796 0.0
C397 C 0.90619 0.59696 0.06413 0.0
O398 O 0.9152 0.52876 0.0509 0.0
O399 O 1.03644 0.55976 0.16117 0.0
O400 O 0.14037 0.49352 0.17769 0.0
O401 O 0.05547 0.44602 0.06327 0.0
O402 O 0.10352 0.42182 0.11162 0.0
C403 C 0.08227 0.53618 0.18356 0.0
C404 C 0.10008 0.40496 0.08151 0.0
O405 O 0.94705 0.61456 0.08882 0.0
Mg406 Mg 0.33813 0.28235 0.85715 0.0
O407 O 0.26058 0.38701 0.8427 0.0
O408 O 0.31686 0.49093 0.86435 0.0
Mg409 Mg 0.43023 0.45853 0.88996 0.0
C410 C 0.26276 0.45961 0.84796 0.0
C411 C 0.26072 0.15619 0.81413 0.0
O412 O 0.32892 0.1652 0.8009 0.0
O413 O 0.29792 0.28644 0.91117 0.0
O414 O 0.36416 0.39037 0.92769 0.0
O415 O 0.41166 0.30547 0.81327 0.0
O416 O 0.43586 0.35352 0.86162 0.0
C417 C 0.32151 0.33227 0.93356 0.0
C418 C 0.45272 0.35008 0.83151 0.0
O419 O 0.24312 0.19704 0.83882 0.0
Mg420 Mg 0.57533 0.58814 0.60715 0.0
O421 O 0.47068 0.51058 0.5927 0.0
O422 O 0.36675 0.56686 0.61435 0.0
Mg423 Mg 0.39915 0.68023 0.63996 0.0
C424 C 0.39807 0.51276 0.59796 0.0
C425 C 0.7015 0.51072 0.56413 0.0
O426 O 0.69248 0.57892 0.5509 0.0
O427 O 0.57125 0.54793 0.66117 0.0
O428 O 0.46731 0.61416 0.67769 0.0
O429 O 0.55222 0.66166 0.56327 0.0
O430 O 0.50416 0.68587 0.61162 0.0
C431 C 0.52542 0.57151 0.68356 0.0
C432 C 0.50761 0.70272 0.58151 0.0
O433 O 0.66064 0.49313 0.58882 0.0
Mg434 Mg 0.26955 0.82533 0.35715 0.0
O435 O 0.3471 0.72067 0.3427 0.0
O436 O 0.29082 0.61675 0.36435 0.0
Mg437 Mg 0.17745 0.64915 0.38996 0.0
C438 C 0.34492 0.64807 0.34796 0.0
C439 C 0.34696 0.95149 0.31413 0.0
O440 O 0.27876 0.94248 0.3009 0.0
O441 O 0.30976 0.82125 0.41117 0.0
O442 O 0.24352 0.71731 0.42769 0.0
O443 O 0.19603 0.80221 0.31327 0.0
O444 O 0.17182 0.75416 0.36162 0.0
C445 C 0.28618 0.77542 0.43356 0.0
C446 C 0.15496 0.75761 0.33151 0.0
O447 O 0.36456 0.91064 0.33882 0.0
loop_
_geom_bond_atom_site_label_1
_geom_bond_atom_site_label_2
_geom_bond_distance
_geom_bond_site_symmetry_2
_ccdc_geom_bond_type
Mg0 O1 2.028 1_565 S
Mg0 O7 1.986 1_565 S
Mg0 O9 2.114 . S
Mg0 O10 2.251 . S
Mg0 O13 2.010 1_565 S
O1 Mg0 2.028 1_545 S
O1 C4 1.250 . S
O2 Mg3 2.024 1_545 S
O2 C4 1.248 . S
Mg3 O2 2.024 1_565 S
Mg3 O8 2.032 1_565 S
Mg3 O10 2.081 . S
C4 O1 1.250 . S
C4 O2 1.248 . S
C5 O6 1.264 1_545 S
C5 O13 1.249 . S
O6 C5 1.264 1_565 S
O7 Mg0 1.986 1_545 S
O7 C11 1.246 . S
O8 Mg3 2.032 1_545 S
O8 C11 1.259 . S
O9 Mg0 2.114 . S
O9 C12 1.252 . S
O10 Mg0 2.251 . S
O10 Mg3 2.081 . S
O10 C12 1.273 . S
C11 O7 1.246 . S
C11 O8 1.259 . S
C12 O9 1.252 . S
C12 O10 1.273 . S
O13 Mg0 2.010 1_545 S
O13 C5 1.249 . S
Mg14 O15 2.028 . S
Mg14 O21 1.986 . S
Mg14 O23 2.114 . S
Mg14 O24 2.251 . S
Mg14 O27 2.010 . S
O15 Mg14 2.028 . S
O15 C18 1.250 . S
O16 Mg17 2.028 . S
O16 C18 1.248 . S
Mg17 O16 2.028 . S
Mg17 O22 2.032 . S
Mg17 O24 2.079 . S
C18 O15 1.250 . S
C18 O16 1.248 . S
C19 O20 1.264 . S
C19 O27 1.249 . S
O20 C19 1.264 . S
O21 Mg14 1.986 . S
O21 C25 1.246 . S
O22 Mg17 2.032 . S
O22 C25 1.259 . S
O23 Mg14 2.114 . S
O23 C26 1.252 . S
O24 Mg14 2.251 . S
O24 Mg17 2.079 . S
O24 C26 1.273 . S
C25 O21 1.246 . S
C25 O22 1.259 . S
C26 O23 1.252 . S
C26 O24 1.273 . S
O27 Mg14 2.010 . S
O27 C19 1.249 . S
Mg28 O29 2.028 1_545 S
Mg28 O35 1.986 1_545 S
Mg28 O37 2.114 . S
Mg28 O38 2.251 . S
Mg28 O41 2.010 1_445 S
O29 Mg28 2.028 1_565 S
O29 C32 1.250 . S
O30 Mg31 2.024 1_565 S
O30 C32 1.248 . S
Mg31 O30 2.024 1_545 S
Mg31 O36 2.032 1_545 S
Mg31 O38 2.081 . S
C32 O29 1.250 . S
C32 O30 1.248 . S
C33 O34 1.264 1_565 S
C33 O41 1.249 . S
O34 C33 1.264 1_545 S
O35 Mg28 1.986 1_565 S
O35 C39 1.246 . S
O36 Mg31 2.032 1_565 S
O36 C39 1.259 . S
O37 Mg28 2.114 . S
O37 C40 1.252 . S
O38 Mg28 2.251 . S
O38 Mg31 2.081 . S
O38 C40 1.273 . S
C39 O35 1.246 . S
C39 O36 1.259 . S
C40 O37 1.252 . S
C40 O38 1.273 . S
O41 Mg28 2.010 1_665 S
O41 C33 1.249 . S
Mg42 O43 2.028 . S
Mg42 O49 1.986 . S
Mg42 O51 2.114 . S
Mg42 O52 2.251 . S
Mg42 O55 2.010 . S
O43 Mg42 2.028 . S
O43 C46 1.250 . S
O44 Mg45 2.028 . S
O44 C46 1.248 . S
Mg45 O44 2.028 . S
Mg45 O50 2.032 . S
Mg45 O52 2.079 . S
C46 O43 1.250 . S
C46 O44 1.248 . S
C47 O48 1.264 . S
C47 O55 1.249 . S
O48 C47 1.264 . S
O49 Mg42 1.986 . S
O49 C53 1.246 . S
O50 Mg45 2.032 . S
O50 C53 1.259 . S
O51 Mg42 2.114 . S
O51 C54 1.252 . S
O52 Mg42 2.251 . S
O52 Mg45 2.079 . S
O52 C54 1.273 . S
C53 O49 1.246 . S
C53 O50 1.259 . S
C54 O51 1.252 . S
C54 O52 1.273 . S
O55 Mg42 2.010 . S
O55 C47 1.249 . S
Mg56 O57 2.028 1_545 S
Mg56 O63 1.986 1_545 S
Mg56 O65 2.114 . S
Mg56 O66 2.251 . S
Mg56 O69 2.010 1_545 S
O57 Mg56 2.028 1_565 S
O57 C60 1.250 . S
O58 Mg59 2.024 1_565 S
O58 C60 1.248 . S
Mg59 O58 2.024 1_545 S
Mg59 O64 2.032 1_545 S
Mg59 O66 2.081 . S
C60 O57 1.250 . S
C60 O58 1.248 . S
C61 O62 1.264 1_565 S
C61 O69 1.249 . S
O62 C61 1.264 1_545 S
O63 Mg56 1.986 1_565 S
O63 C67 1.246 . S
O64 Mg59 2.032 1_565 S
O64 C67 1.259 . S
O65 Mg56 2.114 . S
O65 C68 1.252 . S
O66 Mg56 2.251 . S
O66 Mg59 2.081 . S
O66 C68 1.273 . S
C67 O63 1.246 . S
C67 O64 1.259 . S
C68 O65 1.252 . S
C68 O66 1.273 . S
O69 Mg56 2.010 1_565 S
O69 C61 1.249 . S
Mg70 O71 2.028 . S
Mg70 O77 1.986 . S
Mg70 O79 2.114 . S
Mg70 O80 2.251 . S
Mg70 O83 2.010 . S
O71 Mg70 2.028 . S
O71 C74 1.250 . S
O72 Mg73 2.028 . S
O72 C74 1.248 . S
Mg73 O72 2.028 . S
Mg73 O78 2.032 . S
Mg73 O80 2.079 . S
C74 O71 1.250 . S
C74 O72 1.248 . S
C75 O76 1.264 . S
C75 O83 1.249 . S
O76 C75 1.264 . S
O77 Mg70 1.986 . S
O77 C81 1.246 . S
O78 Mg73 2.032 . S
O78 C81 1.259 . S
O79 Mg70 2.114 . S
O79 C82 1.252 . S
O80 Mg70 2.251 . S
O80 Mg73 2.079 . S
O80 C82 1.273 . S
C81 O77 1.246 . S
C81 O78 1.259 . S
C82 O79 1.252 . S
C82 O80 1.273 . S
O83 Mg70 2.010 . S
O83 C75 1.249 . S
Mg84 O85 2.028 1_565 S
Mg84 O91 1.986 1_565 S
Mg84 O93 2.114 . S
Mg84 O94 2.251 . S
Mg84 O97 2.010 1_465 S
O85 Mg84 2.028 1_545 S
O85 C88 1.250 . S
O86 Mg87 2.024 1_545 S
O86 C88 1.248 . S
Mg87 O86 2.024 1_565 S
Mg87 O92 2.032 1_565 S
Mg87 O94 2.081 . S
C88 O85 1.250 . S
C88 O86 1.248 . S
C89 O90 1.264 1_545 S
C89 O97 1.249 . S
O90 C89 1.264 1_565 S
O91 Mg84 1.986 1_545 S
O91 C95 1.246 . S
O92 Mg87 2.032 1_545 S
O92 C95 1.259 . S
O93 Mg84 2.114 . S
O93 C96 1.252 . S
O94 Mg84 2.251 . S
O94 Mg87 2.081 . S
O94 C96 1.273 . S
C95 O91 1.246 . S
C95 O92 1.259 . S
C96 O93 1.252 . S
C96 O94 1.273 . S
O97 Mg84 2.010 1_645 S
O97 C89 1.249 . S
Mg98 O99 2.028 . S
Mg98 O105 1.986 . S
Mg98 O107 2.114 . S
Mg98 O108 2.251 . S
Mg98 O111 2.010 . S
O99 Mg98 2.028 . S
O99 C102 1.250 . S
O100 Mg101 2.028 . S
O100 C102 1.248 . S
Mg101 O100 2.028 . S
Mg101 O106 2.032 . S
Mg101 O108 2.079 . S
C102 O99 1.250 . S
C102 O100 1.248 . S
C103 O104 1.264 . S
C103 O111 1.249 . S
O104 C103 1.264 . S
O105 Mg98 1.986 . S
O105 C109 1.246 . S
O106 Mg101 2.032 . S
O106 C109 1.259 . S
O107 Mg98 2.114 . S
O107 C110 1.252 . S
O108 Mg98 2.251 . S
O108 Mg101 2.079 . S
O108 C110 1.273 . S
C109 O105 1.246 . S
C109 O106 1.259 . S
C110 O107 1.252 . S
C110 O108 1.273 . S
O111 Mg98 2.010 . S
O111 C103 1.249 . S
Mg112 O113 2.028 1_545 S
Mg112 O119 1.986 1_545 S
Mg112 O121 2.114 . S
Mg112 O122 2.251 . S
Mg112 O125 2.010 1_545 S
O113 Mg112 2.028 1_565 S
O113 C116 1.250 . S
O114 Mg115 2.024 1_565 S
O114 C116 1.248 . S
Mg115 O114 2.024 1_545 S
Mg115 O120 2.032 1_545 S
Mg115 O122 2.081 . S
C116 O113 1.250 . S
C116 O114 1.248 . S
C117 O118 1.264 1_565 S
C117 O125 1.249 . S
O118 C117 1.264 1_545 S
O119 Mg112 1.986 1_565 S
O119 C123 1.246 . S
O120 Mg115 2.032 1_565 S
O120 C123 1.259 . S
O121 Mg112 2.114 . S
O121 C124 1.252 . S
O122 Mg112 2.251 . S
O122 Mg115 2.081 . S
O122 C124 1.273 . S
C123 O119 1.246 . S
C123 O120 1.259 . S
C124 O121 1.252 . S
C124 O122 1.273 . S
O125 Mg112 2.010 1_565 S
O125 C117 1.249 . S
Mg126 O127 2.028 . S
Mg126 O133 1.986 . S
Mg126 O135 2.114 . S
Mg126 O136 2.251 . S
Mg126 O139 2.010 . S
O127 Mg126 2.028 . S
O127 C130 1.250 . S
O128 Mg129 2.028 . S
O128 C130 1.248 . S
Mg129 O128 2.028 . S
Mg129 O134 2.032 . S
Mg129 O136 2.079 . S
C130 O127 1.250 . S
C130 O128 1.248 . S
C131 O132 1.264 . S
C131 O139 1.249 . S
O132 C131 1.264 . S
O133 Mg126 1.986 . S
O133 C137 1.246 . S
O134 Mg129 2.032 . S
O134 C137 1.259 . S
O135 Mg126 2.114 . S
O135 C138 1.252 . S
O136 Mg126 2.251 . S
O136 Mg129 2.079 . S
O136 C138 1.273 . S
C137 O133 1.246 . S
C137 O134 1.259 . S
C138 O135 1.252 . S
C138 O136 1.273 . S
O139 Mg126 2.010 . S
O139 C131 1.249 . S
Mg140 O141 2.028 1_565 S
Mg140 O147 1.986 1_565 S
Mg140 O149 2.114 . S
Mg140 O150 2.251 . S
Mg140 O153 2.010 1_665 S
O141 Mg140 2.028 1_545 S
O141 C144 1.250 . S
O142 Mg143 2.024 1_545 S
O142 C144 1.248 . S
Mg143 O142 2.024 1_565 S
Mg143 O148 2.032 1_565 S
Mg143 O150 2.081 . S
C144 O141 1.250 . S
C144 O142 1.248 . S
C145 O146 1.264 1_545 S
C145 O153 1.249 . S
O146 C145 1.264 1_565 S
O147 Mg140 1.986 1_545 S
O147 C151 1.246 . S
O148 Mg143 2.032 1_545 S
O148 C151 1.259 . S
O149 Mg140 2.114 . S
O149 C152 1.252 . S
O150 Mg140 2.251 . S
O150 Mg143 2.081 . S
O150 C152 1.273 . S
C151 O147 1.246 . S
C151 O148 1.259 . S
C152 O149 1.252 . S
C152 O150 1.273 . S
O153 Mg140 2.010 1_445 S
O153 C145 1.249 . S
Mg154 O155 2.028 . S
Mg154 O161 1.986 . S
Mg154 O163 2.114 . S
Mg154 O164 2.251 . S
Mg154 O167 2.010 . S
O155 Mg154 2.028 . S
O155 C158 1.250 . S
O156 Mg157 2.028 . S
O156 C158 1.248 . S
Mg157 O156 2.028 . S
Mg157 O162 2.032 . S
Mg157 O164 2.079 . S
C158 O155 1.250 . S
C158 O156 1.248 . S
C159 O160 1.264 . S
C159 O167 1.249 . S
O160 C159 1.264 . S
O161 Mg154 1.986 . S
O161 C165 1.246 . S
O162 Mg157 2.032 . S
O162 C165 1.259 . S
O163 Mg154 2.114 . S
O163 C166 1.252 . S
O164 Mg154 2.251 . S
O164 Mg157 2.079 . S
O164 C166 1.273 . S
C165 O161 1.246 . S
C165 O162 1.259 . S
C166 O163 1.252 . S
C166 O164 1.273 . S
O167 Mg154 2.010 . S
O167 C159 1.249 . S
Mg168 O169 2.028 1_565 S
Mg168 O175 1.986 1_565 S
Mg168 O177 2.114 . S
Mg168 O178 2.251 . S
Mg168 O181 2.010 1_565 S
O169 Mg168 2.028 1_545 S
O169 C172 1.250 . S
O170 Mg171 2.024 1_545 S
O170 C172 1.248 . S
Mg171 O170 2.024 1_565 S
Mg171 O176 2.032 1_565 S
Mg171 O178 2.081 . S
C172 O169 1.250 . S
C172 O170 1.248 . S
C173 O174 1.264 1_545 S
C173 O181 1.249 . S
O174 C173 1.264 1_565 S
O175 Mg168 1.986 1_545 S
O175 C179 1.246 . S
O176 Mg171 2.032 1_545 S
O176 C179 1.259 . S
O177 Mg168 2.114 . S
O177 C180 1.252 . S
O178 Mg168 2.251 . S
O178 Mg171 2.081 . S
O178 C180 1.273 . S
C179 O175 1.246 . S
C179 O176 1.259 . S
C180 O177 1.252 . S
C180 O178 1.273 . S
O181 Mg168 2.010 1_545 S
O181 C173 1.249 . S
Mg182 O183 2.028 . S
Mg182 O189 1.986 . S
Mg182 O191 2.114 . S
Mg182 O192 2.251 . S
Mg182 O195 2.010 . S
O183 Mg182 2.028 . S
O183 C186 1.250 . S
O184 Mg185 2.028 . S
O184 C186 1.248 . S
Mg185 O184 2.028 . S
Mg185 O190 2.032 . S
Mg185 O192 2.079 . S
C186 O183 1.250 . S
C186 O184 1.248 . S
C187 O188 1.264 . S
C187 O195 1.249 . S
O188 C187 1.264 . S
O189 Mg182 1.986 . S
O189 C193 1.246 . S
O190 Mg185 2.032 . S
O190 C193 1.259 . S
O191 Mg182 2.114 . S
O191 C194 1.252 . S
O192 Mg182 2.251 . S
O192 Mg185 2.079 . S
O192 C194 1.273 . S
C193 O189 1.246 . S
C193 O190 1.259 . S
C194 O191 1.252 . S
C194 O192 1.273 . S
O195 Mg182 2.010 . S
O195 C187 1.249 . S
Mg196 O197 2.028 1_545 S
Mg196 O203 1.986 1_545 S
Mg196 O205 2.114 . S
Mg196 O206 2.251 . S
Mg196 O209 2.010 1_645 S
O197 Mg196 2.028 1_565 S
O197 C200 1.250 . S
O198 Mg199 2.024 1_565 S
O198 C200 1.248 . S
Mg199 O198 2.024 1_545 S
Mg199 O204 2.032 1_545 S
Mg199 O206 2.081 . S
C200 O197 1.250 . S
C200 O198 1.248 . S
C201 O202 1.264 1_565 S
C201 O209 1.249 . S
O202 C201 1.264 1_545 S
O203 Mg196 1.986 1_565 S
O203 C207 1.246 . S
O204 Mg199 2.032 1_565 S
O204 C207 1.259 . S
O205 Mg196 2.114 . S
O205 C208 1.252 . S
O206 Mg196 2.251 . S
O206 Mg199 2.081 . S
O206 C208 1.273 . S
C207 O203 1.246 . S
C207 O204 1.259 . S
C208 O205 1.252 . S
C208 O206 1.273 . S
O209 Mg196 2.010 1_465 S
O209 C201 1.249 . S
Mg210 O211 2.028 . S
Mg210 O217 1.986 . S
Mg210 O219 2.114 . S
Mg210 O220 2.251 . S
Mg210 O223 2.010 . S
O211 Mg210 2.028 . S
O211 C214 1.250 . S
O212 Mg213 2.028 . S
O212 C214 1.248 . S
Mg213 O212 2.028 . S
Mg213 O218 2.032 . S
Mg213 O220 2.079 . S
C214 O211 1.250 . S
C214 O212 1.248 . S
C215 O216 1.264 . S
C215 O223 1.249 . S
O216 C215 1.264 . S
O217 Mg210 1.986 . S
O217 C221 1.246 . S
O218 Mg213 2.032 . S
O218 C221 1.259 . S
O219 Mg210 2.114 . S
O219 C222 1.252 . S
O220 Mg210 2.251 . S
O220 Mg213 2.079 . S
O220 C222 1.273 . S
C221 O217 1.246 . S
C221 O218 1.259 . S
C222 O219 1.252 . S
C222 O220 1.273 . S
O223 Mg210 2.010 . S
O223 C215 1.249 . S
Mg224 O225 2.028 . S
Mg224 O231 1.986 . S
Mg224 O233 2.114 . S
Mg224 O234 2.251 . S
Mg224 O237 2.010 1_655 S
O225 Mg224 2.028 . S
O225 C228 1.250 . S
O226 Mg227 2.028 . S
O226 C228 1.248 . S
Mg227 O226 2.028 . S
Mg227 O232 2.032 . S
Mg227 O234 2.079 . S
C228 O225 1.250 . S
C228 O226 1.248 . S
C229 O230 1.264 . S
C229 O237 1.249 . S
O230 C229 1.264 . S
O231 Mg224 1.986 . S
O231 C235 1.246 . S
O232 Mg227 2.032 . S
O232 C235 1.259 . S
O233 Mg224 2.114 . S
O233 C236 1.252 . S
O234 Mg224 2.251 . S
O234 Mg227 2.079 . S
O234 C236 1.273 . S
C235 O231 1.246 . S
C235 O232 1.259 . S
C236 O233 1.252 . S
C236 O234 1.273 . S
O237 Mg224 2.010 1_455 S
O237 C229 1.249 . S
Mg238 O239 2.028 . S
Mg238 O245 1.986 . S
Mg238 O247 2.114 . S
Mg238 O248 2.251 . S
Mg238 O251 2.010 . S
O239 Mg238 2.028 . S
O239 C242 1.250 . S
O240 Mg241 2.028 . S
O240 C242 1.248 . S
Mg241 O240 2.028 . S
Mg241 O246 2.032 . S
Mg241 O248 2.079 . S
C242 O239 1.250 . S
C242 O240 1.248 . S
C243 O244 1.264 . S
C243 O251 1.249 . S
O244 C243 1.264 . S
O245 Mg238 1.986 . S
O245 C249 1.246 . S
O246 Mg241 2.032 . S
O246 C249 1.259 . S
O247 Mg238 2.114 . S
O247 C250 1.252 . S
O248 Mg238 2.251 . S
O248 Mg241 2.079 . S
O248 C250 1.273 . S
C249 O245 1.246 . S
C249 O246 1.259 . S
C250 O247 1.252 . S
C250 O248 1.273 . S
O251 Mg238 2.010 . S
O251 C243 1.249 . S
Mg252 O253 2.028 . S
Mg252 O259 1.986 . S
Mg252 O261 2.114 . S
Mg252 O262 2.251 . S
Mg252 O265 2.010 . S
O253 Mg252 2.028 . S
O253 C256 1.250 . S
O254 Mg255 2.028 . S
O254 C256 1.248 . S
Mg255 O254 2.028 . S
Mg255 O260 2.032 . S
Mg255 O262 2.079 . S
C256 O253 1.250 . S
C256 O254 1.248 . S
C257 O258 1.264 . S
C257 O265 1.249 . S
O258 C257 1.264 . S
O259 Mg252 1.986 . S
O259 C263 1.246 . S
O260 Mg255 2.032 . S
O260 C263 1.259 . S
O261 Mg252 2.114 . S
O261 C264 1.252 . S
O262 Mg252 2.251 . S
O262 Mg255 2.079 . S
O262 C264 1.273 . S
C263 O259 1.246 . S
C263 O260 1.259 . S
C264 O261 1.252 . S
C264 O262 1.273 . S
O265 Mg252 2.010 . S
O265 C257 1.249 . S
Mg266 O267 2.028 . S
Mg266 O273 1.986 . S
Mg266 O275 2.114 . S
Mg266 O276 2.251 . S
Mg266 O279 2.010 . S
O267 Mg266 2.028 . S
O267 C270 1.250 . S
O268 Mg269 2.028 . S
O268 C270 1.248 . S
Mg269 O268 2.028 . S
Mg269 O274 2.032 . S
Mg269 O276 2.079 . S
C270 O267 1.250 . S
C270 O268 1.248 . S
C271 O272 1.264 . S
C271 O279 1.249 . S
O272 C271 1.264 . S
O273 Mg266 1.986 . S
O273 C277 1.246 . S
O274 Mg269 2.032 . S
O274 C277 1.259 . S
O275 Mg266 2.114 . S
O275 C278 1.252 . S
O276 Mg266 2.251 . S
O276 Mg269 2.079 . S
O276 C278 1.273 . S
C277 O273 1.246 . S
C277 O274 1.259 . S
C278 O275 1.252 . S
C278 O276 1.273 . S
O279 Mg266 2.010 . S
O279 C271 1.249 . S
Mg280 O281 2.028 . S
Mg280 O287 1.986 . S
Mg280 O289 2.114 . S
Mg280 O290 2.251 . S
Mg280 O293 2.010 1_655 S
O281 Mg280 2.028 . S
O281 C284 1.250 . S
O282 Mg283 2.028 . S
O282 C284 1.248 . S
Mg283 O282 2.028 . S
Mg283 O288 2.032 . S
Mg283 O290 2.079 . S
C284 O281 1.250 . S
C284 O282 1.248 . S
C285 O286 1.264 . S
C285 O293 1.249 . S
O286 C285 1.264 . S
O287 Mg280 1.986 . S
O287 C291 1.246 . S
O288 Mg283 2.032 . S
O288 C291 1.259 . S
O289 Mg280 2.114 . S
O289 C292 1.252 . S
O290 Mg280 2.251 . S
O290 Mg283 2.079 . S
O290 C292 1.273 . S
C291 O287 1.246 . S
C291 O288 1.259 . S
C292 O289 1.252 . S
C292 O290 1.273 . S
O293 Mg280 2.010 1_455 S
O293 C285 1.249 . S
Mg294 O295 2.028 . S
Mg294 O301 1.986 . S
Mg294 O303 2.114 . S
Mg294 O304 2.251 . S
Mg294 O307 2.010 . S
O295 Mg294 2.028 . S
O295 C298 1.250 . S
O296 Mg297 2.028 . S
O296 C298 1.248 . S
Mg297 O296 2.028 . S
Mg297 O302 2.032 . S
Mg297 O304 2.079 . S
C298 O295 1.250 . S
C298 O296 1.248 . S
C299 O300 1.264 . S
C299 O307 1.249 . S
O300 C299 1.264 . S
O301 Mg294 1.986 . S
O301 C305 1.246 . S
O302 Mg297 2.032 . S
O302 C305 1.259 . S
O303 Mg294 2.114 . S
O303 C306 1.252 . S
O304 Mg294 2.251 . S
O304 Mg297 2.079 . S
O304 C306 1.273 . S
C305 O301 1.246 . S
C305 O302 1.259 . S
C306 O303 1.252 . S
C306 O304 1.273 . S
O307 Mg294 2.010 . S
O307 C299 1.249 . S
Mg308 O309 2.028 . S
Mg308 O315 1.986 . S
Mg308 O317 2.114 . S
Mg308 O318 2.251 . S
Mg308 O321 2.010 . S
O309 Mg308 2.028 . S
O309 C312 1.250 . S
O310 Mg311 2.028 . S
O310 C312 1.248 . S
Mg311 O310 2.028 . S
Mg311 O316 2.032 . S
Mg311 O318 2.079 . S
C312 O309 1.250 . S
C312 O310 1.248 . S
C313 O314 1.264 . S
C313 O321 1.249 . S
O314 C313 1.264 . S
O315 Mg308 1.986 . S
O315 C319 1.246 . S
O316 Mg311 2.032 . S
O316 C319 1.259 . S
O317 Mg308 2.114 . S
O317 C320 1.252 . S
O318 Mg308 2.251 . S
O318 Mg311 2.079 . S
O318 C320 1.273 . S
C319 O315 1.246 . S
C319 O316 1.259 . S
C320 O317 1.252 . S
C320 O318 1.273 . S
O321 Mg308 2.010 . S
O321 C313 1.249 . S
Mg322 O323 2.028 . S
Mg322 O329 1.986 . S
Mg322 O331 2.114 . S
Mg322 O332 2.251 . S
Mg322 O335 2.010 . S
O323 Mg322 2.028 . S
O323 C326 1.250 . S
O324 Mg325 2.028 . S
O324 C326 1.248 . S
Mg325 O324 2.028 . S
Mg325 O330 2.032 . S
Mg325 O332 2.079 . S
C326 O323 1.250 . S
C326 O324 1.248 . S
C327 O328 1.264 . S
C327 O335 1.249 . S
O328 C327 1.264 . S
O329 Mg322 1.986 . S
O329 C333 1.246 . S
O330 Mg325 2.032 . S
O330 C333 1.259 . S
O331 Mg322 2.114 . S
O331 C334 1.252 . S
O332 Mg322 2.251 . S
O332 Mg325 2.079 . S
O332 C334 1.273 . S
C333 O329 1.246 . S
C333 O330 1.259 . S
C334 O331 1.252 . S
C334 O332 1.273 . S
O335 Mg322 2.010 . S
O335 C327 1.249 . S
Mg336 O337 2.028 . S
Mg336 O343 1.986 . S
Mg336 O345 2.114 . S
Mg336 O346 2.251 . S
Mg336 O349 2.010 1_455 S
O337 Mg336 2.028 . S
O337 C340 1.250 . S
O338 Mg339 2.028 . S
O338 C340 1.248 . S
Mg339 O338 2.028 . S
Mg339 O344 2.032 . S
Mg339 O346 2.079 . S
C340 O337 1.250 . S
C340 O338 1.248 . S
C341 O342 1.264 . S
C341 O349 1.249 . S
O342 C341 1.264 . S
O343 Mg336 1.986 . S
O343 C347 1.246 . S
O344 Mg339 2.032 . S
O344 C347 1.259 . S
O345 Mg336 2.114 . S
O345 C348 1.252 . S
O346 Mg336 2.251 . S
O346 Mg339 2.079 . S
O346 C348 1.273 . S
C347 O343 1.246 . S
C347 O344 1.259 . S
C348 O345 1.252 . S
C348 O346 1.273 . S
O349 Mg336 2.010 1_655 S
O349 C341 1.249 . S
Mg350 O351 2.028 . S
Mg350 O357 1.986 . S
Mg350 O359 2.114 . S
Mg350 O360 2.251 . S
Mg350 O363 2.010 . S
O351 Mg350 2.028 . S
O351 C354 1.250 . S
O352 Mg353 2.028 . S
O352 C354 1.248 . S
Mg353 O352 2.028 . S
Mg353 O358 2.032 . S
Mg353 O360 2.079 . S
C354 O351 1.250 . S
C354 O352 1.248 . S
C355 O356 1.264 . S
C355 O363 1.249 . S
O356 C355 1.264 . S
O357 Mg350 1.986 . S
O357 C361 1.246 . S
O358 Mg353 2.032 . S
O358 C361 1.259 . S
O359 Mg350 2.114 . S
O359 C362 1.252 . S
O360 Mg350 2.251 . S
O360 Mg353 2.079 . S
O360 C362 1.273 . S
C361 O357 1.246 . S
C361 O358 1.259 . S
C362 O359 1.252 . S
C362 O360 1.273 . S
O363 Mg350 2.010 . S
O363 C355 1.249 . S
Mg364 O365 2.028 . S
Mg364 O371 1.986 . S
Mg364 O373 2.114 . S
Mg364 O374 2.251 . S
Mg364 O377 2.010 . S
O365 Mg364 2.028 . S
O365 C368 1.250 . S
O366 Mg367 2.028 . S
O366 C368 1.248 . S
Mg367 O366 2.028 . S
Mg367 O372 2.032 . S
Mg367 O374 2.079 . S
C368 O365 1.250 . S
C368 O366 1.248 . S
C369 O370 1.264 . S
C369 O377 1.249 . S
O370 C369 1.264 . S
O371 Mg364 1.986 . S
O371 C375 1.246 . S
O372 Mg367 2.032 . S
O372 C375 1.259 . S
O373 Mg364 2.114 . S
O373 C376 1.252 . S
O374 Mg364 2.251 . S
O374 Mg367 2.079 . S
O374 C376 1.273 . S
C375 O371 1.246 . S
C375 O372 1.259 . S
C376 O373 1.252 . S
C376 O374 1.273 . S
O377 Mg364 2.010 . S
O377 C369 1.249 . S
Mg378 O379 2.028 . S
Mg378 O385 1.986 . S
Mg378 O387 2.114 . S
Mg378 O388 2.251 . S
Mg378 O391 2.010 . S
O379 Mg378 2.028 . S
O379 C382 1.250 . S
O380 Mg381 2.028 . S
O380 C382 1.248 . S
Mg381 O380 2.028 . S
Mg381 O386 2.032 . S
Mg381 O388 2.079 . S
C382 O379 1.250 . S
C382 O380 1.248 . S
C383 O384 1.264 . S
C383 O391 1.249 . S
O384 C383 1.264 . S
O385 Mg378 1.986 . S
O385 C389 1.246 . S
O386 Mg381 2.032 . S
O386 C389 1.259 . S
O387 Mg378 2.114 . S
O387 C390 1.252 . S
O388 Mg378 2.251 . S
O388 Mg381 2.079 . S
O388 C390 1.273 . S
C389 O385 1.246 . S
C389 O386 1.259 . S
C390 O387 1.252 . S
C390 O388 1.273 . S
O391 Mg378 2.010 . S
O391 C383 1.249 . S
Mg392 O393 2.028 . S
Mg392 O399 1.986 . S
Mg392 O401 2.114 . S
Mg392 O402 2.251 . S
Mg392 O405 2.010 1_455 S
O393 Mg392 2.028 . S
O393 C396 1.250 . S
O394 Mg395 2.028 . S
O394 C396 1.248 . S
Mg395 O394 2.028 . S
Mg395 O400 2.032 . S
Mg395 O402 2.079 . S
C396 O393 1.250 . S
C396 O394 1.248 . S
C397 O398 1.264 . S
C397 O405 1.249 . S
O398 C397 1.264 . S
O399 Mg392 1.986 . S
O399 C403 1.246 . S
O400 Mg395 2.032 . S
O400 C403 1.259 . S
O401 Mg392 2.114 . S
O401 C404 1.252 . S
O402 Mg392 2.251 . S
O402 Mg395 2.079 . S
O402 C404 1.273 . S
C403 O399 1.246 . S
C403 O400 1.259 . S
C404 O401 1.252 . S
C404 O402 1.273 . S
O405 Mg392 2.010 1_655 S
O405 C397 1.249 . S
Mg406 O407 2.028 . S
Mg406 O413 1.986 . S
Mg406 O415 2.114 . S
Mg406 O416 2.251 . S
Mg406 O419 2.010 . S
O407 Mg406 2.028 . S
O407 C410 1.250 . S
O408 Mg409 2.028 . S
O408 C410 1.248 . S
Mg409 O408 2.028 . S
Mg409 O414 2.032 . S
Mg409 O416 2.079 . S
C410 O407 1.250 . S
C410 O408 1.248 . S
C411 O412 1.264 . S
C411 O419 1.249 . S
O412 C411 1.264 . S
O413 Mg406 1.986 . S
O413 C417 1.246 . S
O414 Mg409 2.032 . S
O414 C417 1.259 . S
O415 Mg406 2.114 . S
O415 C418 1.252 . S
O416 Mg406 2.251 . S
O416 Mg409 2.079 . S
O416 C418 1.273 . S
C417 O413 1.246 . S
C417 O414 1.259 . S
C418 O415 1.252 . S
C418 O416 1.273 . S
O419 Mg406 2.010 . S
O419 C411 1.249 . S
Mg420 O421 2.028 . S
Mg420 O427 1.986 . S
Mg420 O429 2.114 . S
Mg420 O430 2.251 . S
Mg420 O433 2.010 . S
O421 Mg420 2.028 . S
O421 C424 1.250 . S
O422 Mg423 2.028 . S
O422 C424 1.248 . S
Mg423 O422 2.028 . S
Mg423 O428 2.032 . S
Mg423 O430 2.079 . S
C424 O421 1.250 . S
C424 O422 1.248 . S
C425 O426 1.264 . S
C425 O433 1.249 . S
O426 C425 1.264 . S
O427 Mg420 1.986 . S
O427 C431 1.246 . S
O428 Mg423 2.032 . S
O428 C431 1.259 . S
O429 Mg420 2.114 . S
O429 C432 1.252 . S
O430 Mg420 2.251 . S
O430 Mg423 2.079 . S
O430 C432 1.273 . S
C431 O427 1.246 . S
C431 O428 1.259 . S
C432 O429 1.252 . S
C432 O430 1.273 . S
O433 Mg420 2.010 . S
O433 C425 1.249 . S
Mg434 O435 2.028 . S
Mg434 O441 1.986 . S
Mg434 O443 2.114 . S
Mg434 O444 2.251 . S
Mg434 O447 2.010 . S
O435 Mg434 2.028 . S
O435 C438 1.250 . S
O436 Mg437 2.028 . S
O436 C438 1.248 . S
Mg437 O436 2.028 . S
Mg437 O442 2.032 . S
Mg437 O444 2.079 . S
C438 O435 1.250 . S
C438 O436 1.248 . S
C439 O440 1.264 . S
C439 O447 1.249 . S
O440 C439 1.264 . S
O441 Mg434 1.986 . S
O441 C445 1.246 . S
O442 Mg437 2.032 . S
O442 C445 1.259 . S
O443 Mg434 2.114 . S
O443 C446 1.252 . S
O444 Mg434 2.251 . S
O444 Mg437 2.079 . S
O444 C446 1.273 . S
C445 O441 1.246 . S
C445 O442 1.259 . S
C446 O443 1.252 . S
C446 O444 1.273 . S
O447 Mg434 2.010 . S
O447 C439 1.249 . S
C67 C11 1.420 1_565 S
C81 C25 1.420 . S
C95 C39 1.420 1_545 S
C53 C109 1.420 1_556 S
C123 C179 1.420 1_565 S
C193 C137 1.420 . S
C151 C207 1.420 1_545 S
C221 C165 1.420 1_556 S
C235 C291 1.420 . S
C305 C249 1.420 1_554 S
C319 C263 1.420 . S
C333 C277 1.420 . S
C347 C403 1.420 . S
C361 C417 1.420 1_554 S
C375 C431 1.420 . S
C389 C445 1.420 . S
C12 C110 1.136 . S
C26 C68 1.136 . S
C40 C82 1.136 . S
C96 C54 1.136 . S
C222 C124 1.136 . S
C180 C138 1.136 . S
C194 C152 1.136 . S
C166 C208 1.136 . S
C334 C236 1.136 . S
C292 C250 1.136 . S
C306 C264 1.136 . S
C278 C320 1.136 . S
C348 C446 1.136 . S
C362 C404 1.136 . S
C376 C418 1.136 . S
C432 C390 1.136 . S
C4 C355 1.677 . S
C18 C145 1.677 . S
C32 C383 1.677 . S
C117 C46 1.677 . S
C439 C60 1.677 . S
C74 C173 1.677 . S
C88 C411 1.677 . S
C102 C201 1.677 . S
C243 C116 1.677 . S
C33 C130 1.677 . S
C271 C144 1.677 . S
C158 C5 1.677 . S
C327 C172 1.677 . S
C61 C186 1.677 . S
C299 C200 1.677 . S
C89 C214 1.677 . S
C131 C228 1.677 . S
C242 C369 1.677 . S
C256 C159 1.677 . S
C270 C341 1.677 . S
C284 C215 1.677 . S
C397 C298 1.677 . S
C312 C187 1.677 . S
C326 C425 1.677 . S
C340 C19 1.677 . S
C354 C257 1.677 . S
C47 C368 1.677 . S
C229 C382 1.677 . S
C396 C103 1.677 . S
C410 C285 1.677 . S
C75 C424 1.677 . S
C313 C438 1.677 . S
