# Generated by pormake.
# Topology ilc, (8)-cn, num edge types: 1
# Building blocks:
#     Node 0, Type 0, BuildingBlock: XADDAJ01_clean_sbu_3, # of connection points: 8
#     Node 1, Type 0, BuildingBlock: XADDAJ01_clean_sbu_3, # of connection points: 8
#     Node 2, Type 0, BuildingBlock: XADDAJ01_clean_sbu_3, # of connection points: 8
#     Edge 3, Type (0, 0), BuildingBlock: KIFKEQ_clean_linker_1, # of connection points: 2
#     Edge 4, Type (0, 0), BuildingBlock: KIFKEQ_clean_linker_1, # of connection points: 2
#     Edge 5, Type (0, 0), BuildingBlock: KIFKEQ_clean_linker_1, # of connection points: 2
#     Edge 6, Type (0, 0), BuildingBlock: KIFKEQ_clean_linker_1, # of connection points: 2
#     Edge 7, Type (0, 0), BuildingBlock: KIFKEQ_clean_linker_1, # of connection points: 2
#     Edge 8, Type (0, 0), BuildingBlock: KIFKEQ_clean_linker_1, # of connection points: 2
#     Edge 9, Type (0, 0), BuildingBlock: KIFKEQ_clean_linker_1, # of connection points: 2
#     Edge 10, Type (0, 0), BuildingBlock: KIFKEQ_clean_linker_1, # of connection points: 2
#     Edge 11, Type (0, 0), BuildingBlock: KIFKEQ_clean_linker_1, # of connection points: 2
#     Edge 12, Type (0, 0), BuildingBlock: KIFKEQ_clean_linker_1, # of connection points: 2
#     Edge 13, Type (0, 0), BuildingBlock: KIFKEQ_clean_linker_1, # of connection points: 2
#     Edge 14, Type (0, 0), BuildingBlock: KIFKEQ_clean_linker_1, # of connection points: 2
# Relax obj value: 0.161
# Max RMSD: 0.201
# Mean RMSD: 0.201
data_MOF--net-ilc--node1-XADDAJ01_clean_sbu_3--edge1-KIFKEQ_clean_linker_1
_symmetry_space_group_name_H-M    P1
_symmetry_Int_Tables_number       1
_symmetry_cell_setting            triclinic
loop_
_symmetry_equiv_pos_as_xyz
'x, y, z'
_cell_length_a     22.693198
_cell_length_b     31.092474
_cell_length_c     19.27851
_cell_angle_alpha  100.94203
_cell_angle_beta   75.410033
_cell_angle_gamma 142.32871
loop_
_atom_site_label
_atom_site_type_symbol
_atom_site_fract_x
_atom_site_fract_y
_atom_site_fract_z
_atom_type_partial_charge
C0 C 0.15945 0.03695 0.18129 0.0
C1 C 0.21472 0.08693 0.2344 0.0
C2 C 0.21266 0.06792 0.29601 0.0
C3 C 0.154 0.99822 0.3048 0.0
C4 C 0.09979 0.94775 0.25276 0.0
C5 C 0.10353 0.96733 0.19006 0.0
O6 O 0.96105 0.02862 0.12992 0.0
Tb7 Tb 0.11017 0.09515 0.07834 0.0
Tb8 Tb 0.94743 0.96408 0.97289 0.0
O9 O 0.15677 0.18017 0.14519 0.0
O10 O 0.88063 0.92236 0.08229 0.0
O11 O 0.21733 0.12451 0.11377 0.0
C12 C 0.91968 1.02055 0.93909 0.0
O13 O 0.08443 1.01463 0.08833 0.0
O14 O 0.0959 1.02718 0.92496 0.0
O15 O 0.17028 0.13236 0.9675 0.0
C16 C 0.16501 0.05906 0.11559 0.0
C17 C 0.92371 0.85531 0.90453 0.0
O18 O 0.98482 0.88573 0.94796 0.0
C19 C 0.889 0.95967 0.13565 0.0
C20 C 0.16586 0.09552 0.9166 0.0
O21 O 0.88943 0.87529 0.90614 0.0
C22 C 0.97018 0.07032 0.88095 0.0
C23 C 1.00636 0.15509 0.82601 0.0
C24 C 0.95158 0.10391 0.87939 0.0
C25 C 0.04084 0.08638 0.8277 0.0
C26 C 0.09569 0.13738 0.77447 0.0
C27 C 0.07867 0.17193 0.77497 0.0
C28 C 0.12874 0.20314 0.1382 0.0
O29 O 0.07824 0.17709 0.08732 0.0
O30 O 0.86986 0.95677 0.91938 0.0
O31 O 0.97399 0.0465 0.98665 0.0
H32 H 0.25987 0.14091 0.22807 0.0
H33 H 0.14962 0.98243 0.35332 0.0
H34 H 0.06304 0.9288 0.14886 0.0
H35 H 0.89515 0.09032 0.919 0.0
H36 H 0.05201 0.05836 0.82735 0.0
H37 H 0.11662 0.20851 0.73176 0.0
C38 C 0.83282 0.35084 0.52461 0.0
C39 C 0.73893 0.30418 0.56641 0.0
C40 C 0.70696 0.26037 0.61831 0.0
C41 C 0.77022 0.2647 0.62877 0.0
C42 C 0.86452 0.31212 0.58941 0.0
C43 C 0.89623 0.35518 0.53664 0.0
O44 O 0.6892 0.38305 0.42715 0.0
Tb45 Tb 0.84059 0.45301 0.43377 0.0
Tb46 Tb 0.63572 0.31187 0.27049 0.0
O47 O 0.85705 0.51774 0.51898 0.0
O48 O 0.57624 0.27207 0.38163 0.0
O49 O 0.92191 0.45982 0.48076 0.0
C50 C 0.56358 0.33589 0.2375 0.0
O51 O 0.79645 0.3631 0.43091 0.0
O52 O 0.77625 0.40137 0.3047 0.0
O53 O 0.92304 0.50122 0.32756 0.0
C54 C 0.8642 0.39349 0.46694 0.0
C55 C 0.62488 0.20703 0.20691 0.0
O56 O 0.63807 0.21073 0.27139 0.0
C57 C 0.6158 0.31439 0.43723 0.0
C58 C 0.86788 0.45959 0.27814 0.0
O59 O 0.62219 0.2449 0.1915 0.0
C60 C 0.51647 0.31479 0.17687 0.0
C61 C 0.46872 0.33416 0.0989 0.0
C62 C 0.50639 0.35086 0.16068 0.0
C63 C 0.488 0.26145 0.13177 0.0
C64 C 0.45141 0.24463 0.06993 0.0
C65 C 0.44113 0.28065 0.05443 0.0
C66 C 0.84314 0.55026 0.51094 0.0
O67 O 0.82133 0.54436 0.45 0.0
O68 O 0.51469 0.28421 0.28097 0.0
O69 O 0.65746 0.37904 0.22101 0.0
H70 H 0.69148 0.30252 0.55903 0.0
H71 H 0.74819 0.23353 0.67099 0.0
H72 H 0.96914 0.39153 0.50537 0.0
H73 H 0.52967 0.39263 0.19532 0.0
H74 H 0.49801 0.23489 0.14341 0.0
H75 H 0.41864 0.27067 1.00432 0.0
C76 C 0.46738 0.67511 0.8549 0.0
C77 C 0.51813 0.73279 0.90065 0.0
C78 C 0.57054 0.74714 0.94763 0.0
C79 C 0.57566 0.70458 0.94458 0.0
C80 C 0.51925 0.64349 0.90329 0.0
C81 C 0.46544 0.62911 0.85782 0.0
O82 O 0.26706 0.66658 0.73681 0.0
Tb83 Tb 0.39816 0.72807 0.77697 0.0
Tb84 Tb 0.21087 0.6104 0.5955 0.0
O85 O 0.4439 0.80633 0.85719 0.0
O86 O 0.12762 0.56284 0.70291 0.0
O87 O 0.47702 0.71407 0.75488 0.0
C88 C 0.19836 0.67624 0.5592 0.0
O89 O 0.34016 0.64564 0.83216 0.0
O90 O 0.35108 0.67124 0.62074 0.0
O91 O 0.4762 0.77634 0.67009 0.0
C92 C 0.41747 0.66415 0.80416 0.0
C93 C 0.18201 0.49949 0.52428 0.0
O94 O 0.18522 0.49564 0.58968 0.0
C95 C 0.17819 0.60248 0.75532 0.0
C96 C 0.43427 0.73989 0.61288 0.0
O97 O 0.18964 0.54377 0.51065 0.0
C98 C 0.2069 0.70051 0.49385 0.0
C99 C 0.1473 0.71751 0.42786 0.0
C100 C 0.13702 0.69208 0.48879 0.0
C101 C 0.286 0.73399 0.43716 0.0
C102 C 0.29765 0.76094 0.37706 0.0
C103 C 0.22902 0.75356 0.37417 0.0
C104 C 0.49956 0.87006 0.83825 0.0
O105 O 0.52939 0.88672 0.76973 0.0
O106 O 0.12262 0.60793 0.57204 0.0
O107 O 0.27932 0.70691 0.57317 0.0
H108 H 0.51196 0.76404 0.90149 0.0
H109 H 0.6172 0.71543 0.97909 0.0
H110 H 0.42226 0.58243 0.82519 0.0
H111 H 0.07534 0.66597 0.53168 0.0
H112 H 0.33777 0.73836 0.43958 0.0
H113 H 0.23908 0.77642 0.32948 0.0
H114 H 0.27282 0.26169 0.70523 0.0
H115 H 0.06366 0.03765 0.70125 0.0
H116 H 0.35192 0.27371 0.58378 0.0
H117 H 0.1468 0.05088 0.58295 0.0
H118 H 0.22677 0.16362 0.34941 0.0
H119 H 0.24837 0.20683 0.47153 0.0
H120 H 0.31939 0.11881 0.50336 0.0
H121 H 0.30945 0.08291 0.37911 0.0
C122 C 0.24571 0.21548 0.67949 0.0
C123 C 0.16072 0.14843 0.71226 0.0
C124 C 0.29142 0.22263 0.61043 0.0
C125 C 0.25529 0.16331 0.57456 0.0
C126 C 0.17671 0.09761 0.61008 0.0
C127 C 0.1292 0.09006 0.67804 0.0
C128 C 0.25375 0.15781 0.38068 0.0
C129 C 0.26248 0.11731 0.35575 0.0
C130 C 0.26592 0.18248 0.4508 0.0
C131 C 0.28479 0.16551 0.49674 0.0
C132 C 0.30653 0.13357 0.46871 0.0
C133 C 0.29867 0.11174 0.39791 0.0
H134 H 0.57368 0.12667 0.66856 0.0
H135 H 0.63788 0.3012 0.68905 0.0
H136 H 0.46829 0.0813 0.78649 0.0
H137 H 0.52982 0.25399 0.80426 0.0
H138 H 0.57489 0.24442 0.02277 0.0
H139 H 0.58934 0.20491 0.90584 0.0
H140 H 0.3192 0.10315 0.87347 0.0
H141 H 0.30562 0.14499 0.98904 0.0
C142 C 0.56145 0.15332 0.69657 0.0
C143 C 0.61545 0.21828 0.6705 0.0
C144 C 0.50123 0.1272 0.76365 0.0
C145 C 0.49173 0.16444 0.80348 0.0
C146 C 0.53539 0.22408 0.77334 0.0
C147 C 0.59705 0.25099 0.70731 0.0
C148 C 0.51551 0.21041 0.99279 0.0
C149 C 0.43987 0.19897 1.01472 0.0
C150 C 0.52363 0.18742 0.92594 0.0
C151 C 0.45614 0.15278 0.88082 0.0
C152 C 0.37244 0.13122 0.90747 0.0
C153 C 0.36481 0.15497 0.97371 0.0
H154 H 0.63082 0.8678 0.95416 0.0
H155 H 0.57779 0.73688 0.08336 0.0
H156 H 0.60556 0.90898 0.06375 0.0
H157 H 0.56003 0.78169 0.18982 0.0
H158 H 0.48841 0.84598 0.37783 0.0
H159 H 0.61191 0.8875 0.27313 0.0
H160 H 0.41344 0.79443 0.13285 0.0
H161 H 0.28888 0.74993 0.23497 0.0
C162 C 0.61781 0.84974 1.0052 0.0
C163 C 0.60085 0.79563 1.00896 0.0
C164 C 0.60538 0.8746 0.06788 0.0
C165 C 0.58 0.84778 0.13485 0.0
C166 C 0.58108 0.80397 0.13881 0.0
C167 C 0.59088 0.77779 0.07665 0.0
C168 C 0.47135 0.83485 0.32468 0.0
C169 C 0.378 0.79388 0.31515 0.0
C170 C 0.5427 0.85971 0.26516 0.0
C171 C 0.52237 0.84474 0.19556 0.0
C172 C 0.43199 0.80841 0.18602 0.0
C173 C 0.36022 0.78246 0.24498 0.0
H174 H 0.03859 0.64773 0.32218 0.0
H175 H 0.10789 0.77766 0.50523 0.0
H176 H 0.98249 0.67657 0.27466 0.0
H177 H 0.05144 0.8065 0.45819 0.0
H178 H 0.13095 0.88264 0.1753 0.0
H179 H 0.09726 0.79683 0.22447 0.0
H180 H 0.92281 0.77267 0.41402 0.0
H181 H 0.95573 0.85787 0.36407 0.0
C182 C 0.03715 0.67969 0.35398 0.0
C183 C 0.07764 0.71062 0.41733 0.0
C184 C 1.0061 0.69683 0.32636 0.0
C185 C 1.01417 0.7448 0.36188 0.0
C186 C 0.04401 0.76921 0.4295 0.0
C187 C 0.07583 0.75241 0.45689 0.0
C188 C 0.0808 0.85591 0.22544 0.0
C189 C 0.04619 0.87699 0.26588 0.0
C190 C 0.062 0.80708 0.25412 0.0
C191 C 1.00879 0.77894 0.3239 0.0
C192 C 0.965 0.79408 0.36064 0.0
C193 C 0.98288 0.84219 0.33163 0.0
H194 H 0.14681 0.39438 0.5379 0.0
H195 H 0.19869 0.50722 0.38012 0.0
H196 H 0.13777 0.32583 0.44325 0.0
H197 H 0.19226 0.43991 0.28507 0.0
H198 H 0.06837 0.2527 0.14356 0.0
H199 H 0.08125 0.3242 0.23582 0.0
H200 H 0.2393 0.33688 0.34473 0.0
H201 H 0.22441 0.26383 0.25303 0.0
C202 C 0.15678 0.40483 0.48293 0.0
C203 C 0.17377 0.45649 0.4666 0.0
C204 C 0.1523 0.36581 0.4285 0.0
C205 C 0.16513 0.3776 0.35623 0.0
C206 C 0.18114 0.42886 0.34007 0.0
C207 C 0.18517 0.46768 0.3946 0.0
C208 C 0.1065 0.27108 0.18689 0.0
C209 C 0.14481 0.25207 0.19105 0.0
C210 C 0.11425 0.31245 0.23977 0.0
C211 C 0.16075 0.33608 0.2982 0.0
C212 C 0.20139 0.31858 0.30129 0.0
C213 C 0.19355 0.27712 0.24836 0.0
H214 H 0.62048 0.87405 0.582 0.0
H215 H 0.38245 0.68004 0.48043 0.0
H216 H 0.727 0.92411 0.467 0.0
H217 H 0.48878 0.73196 0.36338 0.0
H218 H 0.73959 0.82056 0.17815 0.0
H219 H 0.62594 0.76717 0.29221 0.0
H220 H 0.76276 0.96859 0.35893 0.0
H221 H 0.87597 1.02146 0.24687 0.0
C222 C 0.59006 0.84238 0.53483 0.0
C223 C 0.49281 0.77274 0.54072 0.0
C224 C 0.65143 0.87138 0.46841 0.0
C225 C 0.6171 0.83212 0.40547 0.0
C226 C 0.51847 0.76325 0.41083 0.0
C227 C 0.45708 0.73375 0.47782 0.0
C228 C 0.74504 0.85321 0.21729 0.0
C229 C 0.81688 0.92524 0.20319 0.0
C230 C 0.67964 0.8226 0.28261 0.0
C231 C 0.68495 0.86345 0.3352 0.0
C232 C 0.75731 0.93553 0.32071 0.0
C233 C 0.82191 0.96583 0.25573 0.0
H234 H 0.87329 0.2299 0.53975 0.0
H235 H 0.98202 0.39414 0.68965 0.0
H236 H 0.90872 0.19603 0.60933 0.0
H237 H 1.01773 0.36056 0.75976 0.0
H238 H 0.1278 0.29376 0.82377 0.0
H239 H 0.11236 0.34513 0.76068 0.0
H240 H 0.82062 0.13702 0.73272 0.0
H241 H 0.83655 0.08591 0.79558 0.0
C242 C 0.90951 0.261 0.58558 0.0
C243 C 0.92645 0.31521 0.60888 0.0
C244 C 0.92752 0.24062 0.62641 0.0
C245 C 0.96297 0.27424 0.69117 0.0
C246 C 0.98962 0.33333 0.71042 0.0
C247 C 0.97085 0.35338 0.66972 0.0
C248 C 0.05896 0.25944 0.80669 0.0
C249 C 0.9832 0.18597 0.81457 0.0
C250 C 0.05058 0.28872 0.76991 0.0
C251 C 0.96661 0.2449 0.73986 0.0
C252 C 0.88733 0.17188 0.75367 0.0
C253 C 0.89544 0.14266 0.79097 0.0
H254 H 0.86351 0.56009 0.64922 0.0
H255 H 0.83855 0.63509 0.50653 0.0
H256 H 0.87332 0.62755 0.74622 0.0
H257 H 0.85345 0.70553 0.60232 0.0
H258 H 0.80225 0.7819 0.80426 0.0
H259 H 0.77662 0.70462 0.71174 0.0
H260 H 0.97823 0.74205 0.78725 0.0
H261 H 1.0 0.81607 0.88088 0.0
C262 C 0.86094 0.59147 0.63835 0.0
C263 C 0.85054 0.59225 0.56994 0.0
C264 C 0.86718 0.63067 0.694 0.0
C265 C 0.86456 0.67258 0.6826 0.0
C266 C 0.85401 0.67314 0.61395 0.0
C267 C 0.84637 0.63313 0.5586 0.0
C268 C 0.8403 0.77301 0.80137 0.0
C269 C 0.903 0.80518 0.85022 0.0
C270 C 0.82628 0.72908 0.74789 0.0
C271 C 0.87552 0.71687 0.74138 0.0
C272 C 0.93746 0.74877 0.79089 0.0
C273 C 0.95055 0.79187 0.84462 0.0
H274 H 0.59684 0.374 0.54626 0.0
H275 H 0.51077 0.19035 0.49405 0.0
H276 H 0.49381 0.32333 0.66259 0.0
H277 H 0.41272 0.14098 0.61331 0.0
H278 H 0.15564 0.03178 0.79296 0.0
H279 H 0.27026 0.08592 0.68156 0.0
H280 H 0.45651 0.29154 0.77617 0.0
H281 H 0.33864 0.23658 0.88704 0.0
C282 C 0.55731 0.32318 0.56051 0.0
C283 C 0.56086 0.28567 0.51076 0.0
C284 C 0.49843 0.29407 0.62794 0.0
C285 C 0.44281 0.22709 0.64832 0.0
C286 C 0.45096 0.19138 0.59941 0.0
C287 C 0.50812 0.21988 0.53108 0.0
C288 C 0.22118 0.08863 0.79001 0.0
C289 C 0.23764 0.12985 0.84891 0.0
C290 C 0.28814 0.11999 0.72595 0.0
C291 C 0.3738 0.1937 0.71855 0.0
C292 C 0.39057 0.23483 0.77822 0.0
C293 C 0.32315 0.20334 0.84236 0.0
H294 H 0.33088 0.2877 0.03409 0.0
H295 H 0.60444 0.47692 0.10838 0.0
H296 H 0.34194 0.3581 0.97818 0.0
H297 H 0.61226 0.54709 0.05672 0.0
H298 H 0.66298 0.66564 0.89887 0.0
H299 H 0.64639 0.58838 0.94544 0.0
H300 H 0.33239 0.42905 0.99364 0.0
H301 H 0.34983 0.50567 0.94351 0.0
C302 C 0.39289 0.34434 0.03937 0.0
C303 C 0.46732 0.37647 0.0753 0.0
C304 C 0.39884 0.38485 1.00765 0.0
C305 C 0.47891 0.45875 1.01157 0.0
C306 C 0.5508 0.49056 0.05061 0.0
C307 C 0.54532 0.45007 0.08173 0.0
C308 C 0.59042 0.6133 0.91752 0.0
C309 C 0.50776 0.59148 0.91691 0.0
C310 C 0.58073 0.5693 0.94555 0.0
C311 C 0.48807 0.50267 0.97507 0.0
C312 C 0.40494 0.4796 0.97114 0.0
C313 C 0.41472 0.52338 0.94204 0.0
H314 H 0.44758 0.85296 0.98477 0.0
H315 H 0.60865 1.00408 0.81586 0.0
H316 H 0.48049 0.93504 0.07337 0.0
H317 H 0.64312 0.0865 0.90432 0.0
H318 H 0.58709 0.18181 0.07093 0.0
H319 H 0.56023 0.10186 0.98316 0.0
H320 H 0.60588 0.04517 0.1316 0.0
H321 H 0.63064 0.1241 0.21995 0.0
C322 C 0.4905 0.90382 0.9665 0.0
C323 C 0.52448 0.92147 0.89299 0.0
C324 C 0.50992 0.95118 1.01743 0.0
C325 C 0.56378 1.01741 0.99617 0.0
C326 C 0.59971 0.03555 0.92273 0.0
C327 C 0.58042 0.98831 0.8719 0.0
C328 C 0.59162 0.15245 0.08486 0.0
C329 C 0.61098 0.1595 0.15266 0.0
C330 C 0.57676 0.10677 0.03426 0.0
C331 C 0.58096 0.06686 0.05 0.0
C332 C 0.60078 0.07422 0.11778 0.0
C333 C 0.61559 0.1199 0.16839 0.0
H334 H 1.02225 0.46718 0.80969 0.0
H335 H 0.2357 0.68452 0.87196 0.0
H336 H 0.94671 0.43014 0.93546 0.0
H337 H 0.15773 0.64865 0.99587 0.0
H338 H 0.05747 0.57615 0.22099 0.0
H339 H 0.13315 0.60614 0.0965 0.0
H340 H 0.84987 0.41657 0.03407 0.0
H341 H 0.77576 0.38351 0.16019 0.0
C342 C 0.05302 0.50696 0.85039 0.0
C343 C 0.13566 0.57872 0.83121 0.0
C344 C 1.00909 0.48585 0.92254 0.0
C345 C 0.04558 0.53612 0.97688 0.0
C346 C 0.12843 0.60794 0.95675 0.0
C347 C 0.17337 0.62882 0.88523 0.0
C348 C 1.01096 0.54075 0.18082 0.0
C349 C 0.90983 0.47802 0.20083 0.0
C350 C 0.05453 0.55835 0.10881 0.0
C351 C 0.99809 0.51471 0.05404 0.0
C352 C 0.89649 0.45159 0.07416 0.0
C353 C 0.85319 0.43308 0.14674 0.0
loop_
_geom_bond_atom_site_label_1
_geom_bond_atom_site_label_2
_geom_bond_distance
_geom_bond_site_symmetry_2
_ccdc_geom_bond_type
C0 C1 1.386 . S
C0 C5 1.384 1_545 S
C0 C16 1.497 . S
C1 C0 1.386 . S
C1 C2 1.393 1_545 S
C1 H32 0.932 . S
C2 C1 1.393 1_565 S
C2 C3 1.387 . S
C3 C2 1.387 . S
C3 C4 1.392 . S
C3 H33 0.930 . S
C4 C3 1.392 . S
C4 C5 1.402 . S
C5 C0 1.384 1_565 S
C5 C4 1.402 . S
C5 H34 0.930 . S
O6 Tb7 2.288 1_655 S
O6 C19 1.257 1_545 S
Tb7 O6 2.288 1_455 S
Tb7 O9 2.303 . S
Tb7 O11 2.430 . S
Tb7 O13 2.459 . S
Tb7 O15 2.301 1_554 S
Tb7 C16 2.808 . S
Tb8 O10 2.301 1_556 S
Tb8 C12 2.808 . S
Tb8 O14 2.288 1_655 S
Tb8 O21 2.303 . S
Tb8 O30 2.430 . S
Tb8 O31 2.459 . S
O9 Tb7 2.303 . S
O9 C28 1.255 . S
O10 Tb8 2.301 1_554 S
O10 C19 1.237 . S
O11 Tb7 2.430 . S
O11 C16 1.248 . S
C12 Tb8 2.808 . S
C12 C22 1.497 . S
C12 O30 1.248 . S
C12 O31 1.260 . S
O13 Tb7 2.459 . S
O13 C16 1.260 . S
O14 Tb8 2.288 1_455 S
O14 C20 1.257 1_565 S
O15 Tb7 2.301 1_556 S
O15 C20 1.237 . S
C16 C0 1.497 . S
C16 Tb7 2.808 . S
C16 O11 1.248 . S
C16 O13 1.260 . S
C17 O18 1.255 . S
C17 O21 1.255 . S
O18 C17 1.255 . S
C19 O6 1.257 1_565 S
C19 O10 1.237 . S
C20 O14 1.257 1_545 S
C20 O15 1.237 . S
O21 Tb8 2.303 . S
O21 C17 1.255 . S
C22 C12 1.497 . S
C22 C24 1.384 1_565 S
C22 C25 1.386 . S
C23 C24 1.402 . S
C23 C27 1.392 . S
C24 C22 1.384 1_545 S
C24 C23 1.402 . S
C24 H35 0.930 . S
C25 C22 1.386 . S
C25 C26 1.393 1_565 S
C25 H36 0.932 . S
C26 C25 1.393 1_545 S
C26 C27 1.387 . S
C27 C23 1.392 . S
C27 C26 1.387 . S
C27 H37 0.930 . S
C28 O9 1.255 . S
C28 O29 1.255 . S
O29 C28 1.255 . S
O30 Tb8 2.430 . S
O30 C12 1.248 . S
O31 Tb8 2.459 . S
O31 C12 1.260 . S
H32 C1 0.932 . S
H33 C3 0.930 . S
H34 C5 0.930 . S
H35 C24 0.930 . S
H36 C25 0.932 . S
H37 C27 0.930 . S
C38 C39 1.386 . S
C38 C43 1.384 . S
C38 C54 1.497 . S
C39 C38 1.386 . S
C39 C40 1.393 . S
C39 H70 0.932 . S
C40 C39 1.393 . S
C40 C41 1.387 . S
C41 C40 1.387 . S
C41 C42 1.392 . S
C41 H71 0.930 . S
C42 C41 1.392 . S
C42 C43 1.402 . S
C43 C38 1.384 . S
C43 C42 1.402 . S
C43 H72 0.930 . S
O44 Tb45 2.288 . S
O44 C57 1.257 . S
Tb45 O44 2.288 . S
Tb45 O47 2.303 . S
Tb45 O49 2.430 . S
Tb45 O51 2.459 . S
Tb45 O53 2.301 . S
Tb45 C54 2.808 . S
Tb46 O48 2.301 . S
Tb46 C50 2.808 . S
Tb46 O52 2.288 . S
Tb46 O59 2.303 . S
Tb46 O68 2.430 . S
Tb46 O69 2.459 . S
O47 Tb45 2.303 . S
O47 C66 1.255 . S
O48 Tb46 2.301 . S
O48 C57 1.237 . S
O49 Tb45 2.430 . S
O49 C54 1.248 . S
C50 Tb46 2.808 . S
C50 C60 1.497 . S
C50 O68 1.248 . S
C50 O69 1.260 . S
O51 Tb45 2.459 . S
O51 C54 1.260 . S
O52 Tb46 2.288 . S
O52 C58 1.257 . S
O53 Tb45 2.301 . S
O53 C58 1.237 . S
C54 C38 1.497 . S
C54 Tb45 2.808 . S
C54 O49 1.248 . S
C54 O51 1.260 . S
C55 O56 1.255 . S
C55 O59 1.255 . S
O56 C55 1.255 . S
C57 O44 1.257 . S
C57 O48 1.237 . S
C58 O52 1.257 . S
C58 O53 1.237 . S
O59 Tb46 2.303 . S
O59 C55 1.255 . S
C60 C50 1.497 . S
C60 C62 1.384 . S
C60 C63 1.386 . S
C61 C62 1.402 . S
C61 C65 1.392 . S
C62 C60 1.384 . S
C62 C61 1.402 . S
C62 H73 0.930 . S
C63 C60 1.386 . S
C63 C64 1.393 . S
C63 H74 0.932 . S
C64 C63 1.393 . S
C64 C65 1.387 . S
C65 C61 1.392 . S
C65 C64 1.387 . S
C65 H75 0.930 . S
C66 O47 1.255 . S
C66 O67 1.255 . S
O67 C66 1.255 . S
O68 Tb46 2.430 . S
O68 C50 1.248 . S
O69 Tb46 2.459 . S
O69 C50 1.260 . S
H70 C39 0.932 . S
H71 C41 0.930 . S
H72 C43 0.930 . S
H73 C62 0.930 . S
H74 C63 0.932 . S
H75 C65 0.930 . S
C76 C77 1.386 . S
C76 C81 1.384 . S
C76 C92 1.497 . S
C77 C76 1.386 . S
C77 C78 1.393 . S
C77 H108 0.932 . S
C78 C77 1.393 . S
C78 C79 1.387 . S
C79 C78 1.387 . S
C79 C80 1.392 . S
C79 H109 0.930 . S
C80 C79 1.392 . S
C80 C81 1.402 . S
C81 C76 1.384 . S
C81 C80 1.402 . S
C81 H110 0.930 . S
O82 Tb83 2.288 . S
O82 C95 1.257 . S
Tb83 O82 2.288 . S
Tb83 O85 2.303 . S
Tb83 O87 2.430 . S
Tb83 O89 2.459 . S
Tb83 O91 2.301 . S
Tb83 C92 2.808 . S
Tb84 O86 2.301 . S
Tb84 C88 2.808 . S
Tb84 O90 2.288 . S
Tb84 O97 2.303 . S
Tb84 O106 2.430 . S
Tb84 O107 2.459 . S
O85 Tb83 2.303 . S
O85 C104 1.255 . S
O86 Tb84 2.301 . S
O86 C95 1.237 . S
O87 Tb83 2.430 . S
O87 C92 1.248 . S
C88 Tb84 2.808 . S
C88 C98 1.497 . S
C88 O106 1.248 . S
C88 O107 1.260 . S
O89 Tb83 2.459 . S
O89 C92 1.260 . S
O90 Tb84 2.288 . S
O90 C96 1.257 . S
O91 Tb83 2.301 . S
O91 C96 1.237 . S
C92 C76 1.497 . S
C92 Tb83 2.808 . S
C92 O87 1.248 . S
C92 O89 1.260 . S
C93 O94 1.255 . S
C93 O97 1.255 . S
O94 C93 1.255 . S
C95 O82 1.257 . S
C95 O86 1.237 . S
C96 O90 1.257 . S
C96 O91 1.237 . S
O97 Tb84 2.303 . S
O97 C93 1.255 . S
C98 C88 1.497 . S
C98 C100 1.384 . S
C98 C101 1.386 . S
C99 C100 1.402 . S
C99 C103 1.392 . S
C100 C98 1.384 . S
C100 C99 1.402 . S
C100 H111 0.930 . S
C101 C98 1.386 . S
C101 C102 1.393 . S
C101 H112 0.932 . S
C102 C101 1.393 . S
C102 C103 1.387 . S
C103 C99 1.392 . S
C103 C102 1.387 . S
C103 H113 0.930 . S
C104 O85 1.255 . S
C104 O105 1.255 . S
O105 C104 1.255 . S
O106 Tb84 2.430 . S
O106 C88 1.248 . S
O107 Tb84 2.459 . S
O107 C88 1.260 . S
H108 C77 0.932 . S
H109 C79 0.930 . S
H110 C81 0.930 . S
H111 C100 0.930 . S
H112 C101 0.932 . S
H113 C103 0.930 . S
H114 C122 0.950 1_455 S
H115 C127 0.950 . S
H116 C124 0.950 . S
H117 C126 0.950 . S
H118 C128 0.950 1_655 S
H119 C130 0.950 . S
H120 C132 0.950 . S
H121 C133 0.950 . S
C122 H114 0.950 1_655 S
C122 C123 1.386 . S
C122 C124 1.391 1_655 S
C123 C122 1.386 . S
C123 C127 1.393 1_545 S
C124 H116 0.950 . S
C124 C122 1.391 1_455 S
C124 C125 1.401 1_455 S
C125 C124 1.401 1_655 S
C125 C126 1.400 1_545 S
C125 C131 1.488 1_645 S
C126 H117 0.950 . S
C126 C125 1.400 1_565 S
C126 C127 1.391 . S
C127 H115 0.950 . S
C127 C123 1.393 1_565 S
C127 C126 1.391 . S
C128 H118 0.950 1_455 S
C128 C129 1.386 . S
C128 C130 1.391 1_455 S
C129 C128 1.386 . S
C129 C133 1.393 1_565 S
C130 H119 0.950 . S
C130 C128 1.391 1_655 S
C130 C131 1.400 1_655 S
C131 C125 1.488 1_465 S
C131 C130 1.400 1_455 S
C131 C132 1.399 1_565 S
C132 H120 0.950 . S
C132 C131 1.399 1_545 S
C132 C133 1.391 . S
C133 H121 0.950 . S
C133 C129 1.393 1_545 S
C133 C132 1.391 . S
H134 C142 0.950 . S
H135 C147 0.950 . S
H136 C144 0.950 . S
H137 C146 0.950 . S
H138 C148 0.950 1_554 S
H139 C150 0.950 . S
H140 C152 0.950 . S
H141 C153 0.950 . S
C142 H134 0.950 . S
C142 C143 1.386 . S
C142 C144 1.391 . S
C143 C142 1.386 . S
C143 C147 1.393 . S
C144 H136 0.950 . S
C144 C142 1.391 . S
C144 C145 1.400 . S
C145 C144 1.400 . S
C145 C146 1.398 . S
C145 C151 1.491 . S
C146 H137 0.950 . S
C146 C145 1.398 . S
C146 C147 1.391 . S
C147 H135 0.950 . S
C147 C143 1.393 . S
C147 C146 1.391 . S
C148 H138 0.950 1_556 S
C148 C149 1.386 1_556 S
C148 C150 1.391 . S
C149 C148 1.386 1_554 S
C149 C153 1.393 1_554 S
C150 H139 0.950 . S
C150 C148 1.391 . S
C150 C151 1.400 . S
C151 C145 1.491 . S
C151 C150 1.400 . S
C151 C152 1.398 . S
C152 H140 0.950 . S
C152 C151 1.398 . S
C152 C153 1.391 . S
C153 H141 0.950 . S
C153 C149 1.393 1_556 S
C153 C152 1.391 . S
H154 C162 0.950 1_556 S
H155 C167 0.950 . S
H156 C164 0.950 . S
H157 C166 0.950 . S
H158 C168 0.950 . S
H159 C170 0.950 . S
H160 C172 0.950 . S
H161 C173 0.950 . S
C162 H154 0.950 1_554 S
C162 C163 1.386 1_554 S
C162 C164 1.391 . S
C163 C162 1.386 1_556 S
C163 C167 1.393 1_556 S
C164 H156 0.950 . S
C164 C162 1.391 . S
C164 C165 1.400 . S
C165 C164 1.400 . S
C165 C166 1.398 . S
C165 C171 1.491 . S
C166 H157 0.950 . S
C166 C165 1.398 . S
C166 C167 1.391 . S
C167 H155 0.950 . S
C167 C163 1.393 1_554 S
C167 C166 1.391 . S
C168 H158 0.950 . S
C168 C169 1.386 . S
C168 C170 1.391 . S
C169 C168 1.386 . S
C169 C173 1.393 . S
C170 H159 0.950 . S
C170 C168 1.391 . S
C170 C171 1.400 . S
C171 C165 1.491 . S
C171 C170 1.400 . S
C171 C172 1.398 . S
C172 H160 0.950 . S
C172 C171 1.398 . S
C172 C173 1.391 . S
C173 H161 0.950 . S
C173 C169 1.393 . S
C173 C172 1.391 . S
H174 C182 0.950 . S
H175 C187 0.950 . S
H176 C184 0.950 . S
H177 C186 0.950 . S
H178 C188 0.950 . S
H179 C190 0.950 . S
H180 C192 0.950 . S
H181 C193 0.950 . S
C182 H174 0.950 . S
C182 C183 1.386 . S
C182 C184 1.391 . S
C183 C182 1.386 . S
C183 C187 1.393 . S
C184 H176 0.950 . S
C184 C182 1.391 . S
C184 C185 1.400 . S
C185 C184 1.400 . S
C185 C186 1.398 . S
C185 C191 1.491 . S
C186 H177 0.950 . S
C186 C185 1.398 . S
C186 C187 1.391 . S
C187 H175 0.950 . S
C187 C183 1.393 . S
C187 C186 1.391 . S
C188 H178 0.950 . S
C188 C189 1.386 . S
C188 C190 1.391 . S
C189 C188 1.386 . S
C189 C193 1.393 . S
C190 H179 0.950 . S
C190 C188 1.391 . S
C190 C191 1.400 . S
C191 C185 1.491 . S
C191 C190 1.400 . S
C191 C192 1.398 . S
C192 H180 0.950 . S
C192 C191 1.398 . S
C192 C193 1.391 . S
C193 H181 0.950 . S
C193 C189 1.393 . S
C193 C192 1.391 . S
H194 C202 0.950 . S
H195 C207 0.950 . S
H196 C204 0.950 . S
H197 C206 0.950 . S
H198 C208 0.950 1_655 S
H199 C210 0.950 . S
H200 C212 0.950 . S
H201 C213 0.950 . S
C202 H194 0.950 . S
C202 C203 1.386 . S
C202 C204 1.391 . S
C203 C202 1.386 . S
C203 C207 1.393 . S
C204 H196 0.950 . S
C204 C202 1.391 . S
C204 C205 1.400 . S
C205 C204 1.400 . S
C205 C206 1.398 . S
C205 C211 1.491 . S
C206 H197 0.950 . S
C206 C205 1.398 . S
C206 C207 1.391 . S
C207 H195 0.950 . S
C207 C203 1.393 . S
C207 C206 1.391 . S
C208 H198 0.950 1_455 S
C208 C209 1.386 . S
C208 C210 1.391 . S
C209 C208 1.386 . S
C209 C213 1.393 . S
C210 H199 0.950 . S
C210 C208 1.391 . S
C210 C211 1.400 . S
C211 C205 1.491 . S
C211 C210 1.400 . S
C211 C212 1.398 . S
C212 H200 0.950 . S
C212 C211 1.398 . S
C212 C213 1.391 . S
C213 H201 0.950 . S
C213 C209 1.393 . S
C213 C212 1.391 . S
H214 C222 0.950 . S
H215 C227 0.950 . S
H216 C224 0.950 . S
H217 C226 0.950 . S
H218 C228 0.950 . S
H219 C230 0.950 . S
H220 C232 0.950 . S
H221 C233 0.950 . S
C222 H214 0.950 . S
C222 C223 1.386 . S
C222 C224 1.391 . S
C223 C222 1.386 . S
C223 C227 1.393 . S
C224 H216 0.950 . S
C224 C222 1.391 . S
C224 C225 1.400 . S
C225 C224 1.400 . S
C225 C226 1.398 . S
C225 C231 1.491 . S
C226 H217 0.950 . S
C226 C225 1.398 . S
C226 C227 1.391 . S
C227 H215 0.950 . S
C227 C223 1.393 . S
C227 C226 1.391 . S
C228 H218 0.950 . S
C228 C229 1.386 . S
C228 C230 1.391 . S
C229 C228 1.386 . S
C229 C233 1.393 . S
C230 H219 0.950 . S
C230 C228 1.391 . S
C230 C231 1.400 . S
C231 C225 1.491 . S
C231 C230 1.400 . S
C231 C232 1.398 . S
C232 H220 0.950 . S
C232 C231 1.398 . S
C232 C233 1.391 . S
C233 H221 0.950 . S
C233 C229 1.393 . S
C233 C232 1.391 . S
H234 C242 0.950 . S
H235 C247 0.950 . S
H236 C244 0.950 . S
H237 C246 0.950 . S
H238 C248 0.950 1_455 S
H239 C250 0.950 . S
H240 C252 0.950 . S
H241 C253 0.950 . S
C242 H234 0.950 . S
C242 C243 1.386 . S
C242 C244 1.391 . S
C243 C242 1.386 . S
C243 C247 1.393 . S
C244 H236 0.950 . S
C244 C242 1.391 . S
C244 C245 1.400 . S
C245 C244 1.400 . S
C245 C246 1.398 . S
C245 C251 1.491 . S
C246 H237 0.950 . S
C246 C245 1.398 . S
C246 C247 1.391 . S
C247 H235 0.950 . S
C247 C243 1.393 . S
C247 C246 1.391 . S
C248 H238 0.950 1_655 S
C248 C249 1.386 . S
C248 C250 1.391 . S
C249 C248 1.386 . S
C249 C253 1.393 . S
C250 H239 0.950 . S
C250 C248 1.391 . S
C250 C251 1.400 . S
C251 C245 1.491 . S
C251 C250 1.400 . S
C251 C252 1.398 . S
C252 H240 0.950 . S
C252 C251 1.398 . S
C252 C253 1.391 . S
C253 H241 0.950 . S
C253 C249 1.393 . S
C253 C252 1.391 . S
H254 C262 0.950 . S
H255 C267 0.950 . S
H256 C264 0.950 . S
H257 C266 0.950 . S
H258 C268 0.950 . S
H259 C270 0.950 . S
H260 C272 0.950 . S
H261 C273 0.950 1_455 S
C262 H254 0.950 . S
C262 C263 1.386 . S
C262 C264 1.391 . S
C263 C262 1.386 . S
C263 C267 1.393 . S
C264 H256 0.950 . S
C264 C262 1.391 . S
C264 C265 1.400 . S
C265 C264 1.400 . S
C265 C266 1.398 . S
C265 C271 1.491 . S
C266 H257 0.950 . S
C266 C265 1.398 . S
C266 C267 1.391 . S
C267 H255 0.950 . S
C267 C263 1.393 . S
C267 C266 1.391 . S
C268 H258 0.950 . S
C268 C269 1.386 . S
C268 C270 1.391 . S
C269 C268 1.386 . S
C269 C273 1.393 . S
C270 H259 0.950 . S
C270 C268 1.391 . S
C270 C271 1.400 . S
C271 C265 1.491 . S
C271 C270 1.400 . S
C271 C272 1.398 . S
C272 H260 0.950 . S
C272 C271 1.398 . S
C272 C273 1.391 . S
C273 H261 0.950 1_655 S
C273 C269 1.393 . S
C273 C272 1.391 . S
H274 C282 0.950 . S
H275 C287 0.950 . S
H276 C284 0.950 . S
H277 C286 0.950 . S
H278 C288 0.950 . S
H279 C290 0.950 . S
H280 C292 0.950 . S
H281 C293 0.950 . S
C282 H274 0.950 . S
C282 C283 1.386 . S
C282 C284 1.391 . S
C283 C282 1.386 . S
C283 C287 1.393 . S
C284 H276 0.950 . S
C284 C282 1.391 . S
C284 C285 1.400 . S
C285 C284 1.400 . S
C285 C286 1.398 . S
C285 C291 1.491 . S
C286 H277 0.950 . S
C286 C285 1.398 . S
C286 C287 1.391 . S
C287 H275 0.950 . S
C287 C283 1.393 . S
C287 C286 1.391 . S
C288 H278 0.950 . S
C288 C289 1.386 . S
C288 C290 1.391 . S
C289 C288 1.386 . S
C289 C293 1.393 . S
C290 H279 0.950 . S
C290 C288 1.391 . S
C290 C291 1.400 . S
C291 C285 1.491 . S
C291 C290 1.400 . S
C291 C292 1.398 . S
C292 H280 0.950 . S
C292 C291 1.398 . S
C292 C293 1.391 . S
C293 H281 0.950 . S
C293 C289 1.393 . S
C293 C292 1.391 . S
H294 C302 0.950 . S
H295 C307 0.950 . S
H296 C304 0.950 1_556 S
H297 C306 0.950 . S
H298 C308 0.950 . S
H299 C310 0.950 1_554 S
H300 C312 0.950 . S
H301 C313 0.950 . S
C302 H294 0.950 . S
C302 C303 1.386 . S
C302 C304 1.391 . S
C303 C302 1.386 . S
C303 C307 1.393 . S
C304 H296 0.950 1_554 S
C304 C302 1.391 . S
C304 C305 1.400 . S
C305 C304 1.400 . S
C305 C306 1.398 . S
C305 C311 1.491 1_554 S
C306 H297 0.950 . S
C306 C305 1.398 . S
C306 C307 1.391 . S
C307 H295 0.950 . S
C307 C303 1.393 . S
C307 C306 1.391 . S
C308 H298 0.950 . S
C308 C309 1.386 . S
C308 C310 1.391 . S
C309 C308 1.386 . S
C309 C313 1.393 . S
C310 H299 0.950 1_556 S
C310 C308 1.391 . S
C310 C311 1.400 . S
C311 C305 1.491 1_556 S
C311 C310 1.400 . S
C311 C312 1.398 . S
C312 H300 0.950 . S
C312 C311 1.398 . S
C312 C313 1.391 . S
C313 H301 0.950 . S
C313 C309 1.393 . S
C313 C312 1.391 . S
H314 C322 0.950 . S
H315 C327 0.950 . S
H316 C324 0.950 . S
H317 C326 0.950 . S
H318 C328 0.950 . S
H319 C330 0.950 . S
H320 C332 0.950 . S
H321 C333 0.950 . S
C322 H314 0.950 . S
C322 C323 1.386 . S
C322 C324 1.391 . S
C323 C322 1.386 . S
C323 C327 1.393 . S
C324 H316 0.950 . S
C324 C322 1.391 . S
C324 C325 1.400 . S
C325 C324 1.400 . S
C325 C326 1.398 . S
C325 C331 1.491 1_566 S
C326 H317 0.950 . S
C326 C325 1.398 . S
C326 C327 1.391 . S
C327 H315 0.950 . S
C327 C323 1.393 . S
C327 C326 1.391 . S
C328 H318 0.950 . S
C328 C329 1.386 . S
C328 C330 1.391 . S
C329 C328 1.386 . S
C329 C333 1.393 . S
C330 H319 0.950 . S
C330 C328 1.391 . S
C330 C331 1.400 . S
C331 C325 1.491 1_544 S
C331 C330 1.400 . S
C331 C332 1.398 . S
C332 H320 0.950 . S
C332 C331 1.398 . S
C332 C333 1.391 . S
C333 H321 0.950 . S
C333 C329 1.393 . S
C333 C332 1.391 . S
H334 C342 0.950 . S
H335 C347 0.950 . S
H336 C344 0.950 . S
H337 C346 0.950 . S
H338 C348 0.950 . S
H339 C350 0.950 . S
H340 C352 0.950 . S
H341 C353 0.950 . S
C342 H334 0.950 . S
C342 C343 1.386 . S
C342 C344 1.391 1_455 S
C343 C342 1.386 . S
C343 C347 1.393 . S
C344 H336 0.950 . S
C344 C342 1.391 1_655 S
C344 C345 1.400 1_655 S
C345 C344 1.400 1_455 S
C345 C346 1.398 . S
C345 C351 1.491 1_456 S
C346 H337 0.950 . S
C346 C345 1.398 . S
C346 C347 1.391 . S
C347 H335 0.950 . S
C347 C343 1.393 . S
C347 C346 1.391 . S
C348 H338 0.950 . S
C348 C349 1.386 . S
C348 C350 1.391 1_655 S
C349 C348 1.386 . S
C349 C353 1.393 . S
C350 H339 0.950 . S
C350 C348 1.391 1_455 S
C350 C351 1.400 1_455 S
C351 C345 1.491 1_654 S
C351 C350 1.400 1_655 S
C351 C352 1.398 . S
C352 H340 0.950 . S
C352 C351 1.398 . S
C352 C353 1.391 . S
C353 H341 0.950 . S
C353 C349 1.393 . S
C353 C352 1.391 . S
C123 C26 0.706 . S
C129 C2 0.706 . S
C143 C40 0.710 . S
C149 C64 0.710 . S
C163 C78 0.712 . S
C169 C102 0.712 . S
C183 C99 2.429 . S
C189 C4 2.429 . S
C203 C93 1.289 . S
C209 C28 1.286 . S
C223 C96 1.579 . S
C229 C19 1.578 . S
C243 C42 2.433 . S
C249 C23 2.433 . S
C263 C66 1.291 . S
C269 C17 1.293 . S
C283 C57 1.576 . S
C289 C20 1.577 . S
C303 C61 2.432 . S
C309 C80 2.432 . S
C323 C104 1.281 . S
C329 C55 1.281 . S
C343 C95 1.572 . S
C349 C58 1.572 . S
