# Generated by pormake.
# Topology rhr, (4)-cn, num edge types: 1
# Building blocks:
#     Node 0, Type 0, BuildingBlock: KOZSID_clean_sbu_0, # of connection points: 4
#     Node 1, Type 0, BuildingBlock: KOZSID_clean_sbu_0, # of connection points: 4
#     Node 2, Type 0, BuildingBlock: KOZSID_clean_sbu_0, # of connection points: 4
#     Node 3, Type 0, BuildingBlock: KOZSID_clean_sbu_0, # of connection points: 4
#     Node 4, Type 0, BuildingBlock: KOZSID_clean_sbu_0, # of connection points: 4
#     Node 5, Type 0, BuildingBlock: KOZSID_clean_sbu_0, # of connection points: 4
#     Node 6, Type 0, BuildingBlock: KOZSID_clean_sbu_0, # of connection points: 4
#     Node 7, Type 0, BuildingBlock: KOZSID_clean_sbu_0, # of connection points: 4
#     Node 8, Type 0, BuildingBlock: KOZSID_clean_sbu_0, # of connection points: 4
#     Node 9, Type 0, BuildingBlock: KOZSID_clean_sbu_0, # of connection points: 4
#     Node 10, Type 0, BuildingBlock: KOZSID_clean_sbu_0, # of connection points: 4
#     Node 11, Type 0, BuildingBlock: KOZSID_clean_sbu_0, # of connection points: 4
#     Node 12, Type 0, BuildingBlock: KOZSID_clean_sbu_0, # of connection points: 4
#     Node 13, Type 0, BuildingBlock: KOZSID_clean_sbu_0, # of connection points: 4
#     Node 14, Type 0, BuildingBlock: KOZSID_clean_sbu_0, # of connection points: 4
#     Node 15, Type 0, BuildingBlock: KOZSID_clean_sbu_0, # of connection points: 4
#     Node 16, Type 0, BuildingBlock: KOZSID_clean_sbu_0, # of connection points: 4
#     Node 17, Type 0, BuildingBlock: KOZSID_clean_sbu_0, # of connection points: 4
#     Node 18, Type 0, BuildingBlock: KOZSID_clean_sbu_0, # of connection points: 4
#     Node 19, Type 0, BuildingBlock: KOZSID_clean_sbu_0, # of connection points: 4
#     Node 20, Type 0, BuildingBlock: KOZSID_clean_sbu_0, # of connection points: 4
#     Node 21, Type 0, BuildingBlock: KOZSID_clean_sbu_0, # of connection points: 4
#     Node 22, Type 0, BuildingBlock: KOZSID_clean_sbu_0, # of connection points: 4
#     Node 23, Type 0, BuildingBlock: KOZSID_clean_sbu_0, # of connection points: 4
#     Edge 24, Type (0, 0), BuildingBlock: TEMPAE_clean_linker_10, # of connection points: 2
#     Edge 25, Type (0, 0), BuildingBlock: TEMPAE_clean_linker_10, # of connection points: 2
#     Edge 26, Type (0, 0), BuildingBlock: TEMPAE_clean_linker_10, # of connection points: 2
#     Edge 27, Type (0, 0), BuildingBlock: TEMPAE_clean_linker_10, # of connection points: 2
#     Edge 28, Type (0, 0), BuildingBlock: TEMPAE_clean_linker_10, # of connection points: 2
#     Edge 29, Type (0, 0), BuildingBlock: TEMPAE_clean_linker_10, # of connection points: 2
#     Edge 30, Type (0, 0), BuildingBlock: TEMPAE_clean_linker_10, # of connection points: 2
#     Edge 31, Type (0, 0), BuildingBlock: TEMPAE_clean_linker_10, # of connection points: 2
#     Edge 32, Type (0, 0), BuildingBlock: TEMPAE_clean_linker_10, # of connection points: 2
#     Edge 33, Type (0, 0), BuildingBlock: TEMPAE_clean_linker_10, # of connection points: 2
#     Edge 34, Type (0, 0), BuildingBlock: TEMPAE_clean_linker_10, # of connection points: 2
#     Edge 35, Type (0, 0), BuildingBlock: TEMPAE_clean_linker_10, # of connection points: 2
#     Edge 36, Type (0, 0), BuildingBlock: TEMPAE_clean_linker_10, # of connection points: 2
#     Edge 37, Type (0, 0), BuildingBlock: TEMPAE_clean_linker_10, # of connection points: 2
#     Edge 38, Type (0, 0), BuildingBlock: TEMPAE_clean_linker_10, # of connection points: 2
#     Edge 39, Type (0, 0), BuildingBlock: TEMPAE_clean_linker_10, # of connection points: 2
#     Edge 40, Type (0, 0), BuildingBlock: TEMPAE_clean_linker_10, # of connection points: 2
#     Edge 41, Type (0, 0), BuildingBlock: TEMPAE_clean_linker_10, # of connection points: 2
#     Edge 42, Type (0, 0), BuildingBlock: TEMPAE_clean_linker_10, # of connection points: 2
#     Edge 43, Type (0, 0), BuildingBlock: TEMPAE_clean_linker_10, # of connection points: 2
#     Edge 44, Type (0, 0), BuildingBlock: TEMPAE_clean_linker_10, # of connection points: 2
#     Edge 45, Type (0, 0), BuildingBlock: TEMPAE_clean_linker_10, # of connection points: 2
#     Edge 46, Type (0, 0), BuildingBlock: TEMPAE_clean_linker_10, # of connection points: 2
#     Edge 47, Type (0, 0), BuildingBlock: TEMPAE_clean_linker_10, # of connection points: 2
#     Edge 48, Type (0, 0), BuildingBlock: TEMPAE_clean_linker_10, # of connection points: 2
#     Edge 49, Type (0, 0), BuildingBlock: TEMPAE_clean_linker_10, # of connection points: 2
#     Edge 50, Type (0, 0), BuildingBlock: TEMPAE_clean_linker_10, # of connection points: 2
#     Edge 51, Type (0, 0), BuildingBlock: TEMPAE_clean_linker_10, # of connection points: 2
#     Edge 52, Type (0, 0), BuildingBlock: TEMPAE_clean_linker_10, # of connection points: 2
#     Edge 53, Type (0, 0), BuildingBlock: TEMPAE_clean_linker_10, # of connection points: 2
#     Edge 54, Type (0, 0), BuildingBlock: TEMPAE_clean_linker_10, # of connection points: 2
#     Edge 55, Type (0, 0), BuildingBlock: TEMPAE_clean_linker_10, # of connection points: 2
#     Edge 56, Type (0, 0), BuildingBlock: TEMPAE_clean_linker_10, # of connection points: 2
#     Edge 57, Type (0, 0), BuildingBlock: TEMPAE_clean_linker_10, # of connection points: 2
#     Edge 58, Type (0, 0), BuildingBlock: TEMPAE_clean_linker_10, # of connection points: 2
#     Edge 59, Type (0, 0), BuildingBlock: TEMPAE_clean_linker_10, # of connection points: 2
#     Edge 60, Type (0, 0), BuildingBlock: TEMPAE_clean_linker_10, # of connection points: 2
#     Edge 61, Type (0, 0), BuildingBlock: TEMPAE_clean_linker_10, # of connection points: 2
#     Edge 62, Type (0, 0), BuildingBlock: TEMPAE_clean_linker_10, # of connection points: 2
#     Edge 63, Type (0, 0), BuildingBlock: TEMPAE_clean_linker_10, # of connection points: 2
#     Edge 64, Type (0, 0), BuildingBlock: TEMPAE_clean_linker_10, # of connection points: 2
#     Edge 65, Type (0, 0), BuildingBlock: TEMPAE_clean_linker_10, # of connection points: 2
#     Edge 66, Type (0, 0), BuildingBlock: TEMPAE_clean_linker_10, # of connection points: 2
#     Edge 67, Type (0, 0), BuildingBlock: TEMPAE_clean_linker_10, # of connection points: 2
#     Edge 68, Type (0, 0), BuildingBlock: TEMPAE_clean_linker_10, # of connection points: 2
#     Edge 69, Type (0, 0), BuildingBlock: TEMPAE_clean_linker_10, # of connection points: 2
#     Edge 70, Type (0, 0), BuildingBlock: TEMPAE_clean_linker_10, # of connection points: 2
#     Edge 71, Type (0, 0), BuildingBlock: TEMPAE_clean_linker_10, # of connection points: 2
# Relax obj value: 0.005
# Max RMSD: 0.033
# Mean RMSD: 0.021
data_MOF--net-rhr--node1-KOZSID_clean_sbu_0--edge1-TEMPAE_clean_linker_10
_symmetry_space_group_name_H-M    P1
_symmetry_Int_Tables_number       1
_symmetry_cell_setting            triclinic
loop_
_symmetry_equiv_pos_as_xyz
'x, y, z'
_cell_length_a     63.516391
_cell_length_b     63.657516
_cell_length_c     63.490809
_cell_angle_alpha  86.851319
_cell_angle_beta   85.525635
_cell_angle_gamma 90.890227
loop_
_atom_site_label
_atom_site_type_symbol
_atom_site_fract_x
_atom_site_fract_y
_atom_site_fract_z
_atom_type_partial_charge
C0 C 0.38786 0.98544 0.35204 0.0
C1 C 0.4035 0.97569 0.36296 0.0
C2 C 0.40694 0.98764 0.37966 0.0
C3 C 0.3928 0.00362 0.37858 0.0
N4 N 0.38018 1.00222 0.36259 0.0
Co5 Co 0.35542 0.02054 0.35791 0.0
N6 N 0.35673 0.03381 0.38565 0.0
C7 C 0.37314 0.03279 0.39783 0.0
C8 C 0.36987 0.04338 0.41603 0.0
C9 C 0.35016 0.05167 0.41534 0.0
C10 C 0.34243 0.04562 0.39671 0.0
N11 N 0.33046 0.03866 0.35353 0.0
C12 C 0.31816 0.04977 0.36738 0.0
C13 C 0.30239 0.06013 0.35726 0.0
C14 C 0.30499 0.05553 0.3364 0.0
C15 C 0.3221 0.04264 0.33495 0.0
N16 N 0.35434 0.00767 0.32983 0.0
C17 C 0.3435 0.01582 0.31396 0.0
C18 C 0.3478 0.0066 0.2952 0.0
C19 C 0.36254 0.99186 0.29919 0.0
C20 C 0.36627 0.99246 0.32048 0.0
N21 N 0.33637 0.99843 0.37158 0.0
C22 C 0.30762 0.96899 0.39284 0.0
C23 C 0.30376 0.97828 0.373 0.0
C24 C 0.31835 0.99285 0.36261 0.0
C25 C 0.32639 0.9745 0.40155 0.0
C26 C 0.34046 0.98916 0.39073 0.0
N27 N 0.37443 0.04279 0.3441 0.0
C28 C 0.38217 0.07951 0.33458 0.0
C29 C 0.39818 0.0741 0.31946 0.0
C30 C 0.40288 0.05283 0.31799 0.0
C31 C 0.39098 0.03755 0.33042 0.0
C32 C 0.37053 0.06362 0.34678 0.0
H33 H 0.39497 0.02147 0.32833 0.0
H34 H 0.35798 0.06821 0.35791 0.0
H35 H 0.31486 0.99984 0.34748 0.0
H36 H 0.35444 0.99326 0.39819 0.0
C37 C 0.38931 0.01863 0.39367 0.0
C38 C 0.38302 0.98014 0.33037 0.0
C39 C 0.32186 0.05225 0.38973 0.0
C40 C 0.32924 0.03203 0.31723 0.0
H41 H 0.41201 0.96167 0.35904 0.0
H42 H 0.41811 0.98472 0.39147 0.0
H43 H 0.38018 0.04416 0.42878 0.0
H44 H 0.3423 0.061 0.42723 0.0
H45 H 0.29043 0.07014 0.36419 0.0
H46 H 0.29524 0.06059 0.3239 0.0
H47 H 0.34144 0.01057 0.28019 0.0
H48 H 0.37033 0.98269 0.2872 0.0
H49 H 0.28959 0.97433 0.36551 0.0
H50 H 0.32998 0.96799 0.41695 0.0
H51 H 0.37813 0.09581 0.33643 0.0
H52 H 0.41553 0.04792 0.30702 0.0
C53 C 0.05753 0.37998 0.33789 0.0
C54 C 0.06478 0.39735 0.34774 0.0
C55 C 0.05371 0.39744 0.36702 0.0
C56 C 0.04039 0.38024 0.36787 0.0
N57 N 0.0423 0.36908 0.35032 0.0
Co58 Co 0.02595 0.3429 0.34503 0.0
N59 N 0.00791 0.34459 0.37229 0.0
C60 C 0.00856 0.35991 0.38619 0.0
C61 C 0.99377 0.35733 0.40306 0.0
C62 C 0.98295 0.33929 0.39976 0.0
C63 C 0.99192 0.33181 0.38104 0.0
N64 N 0.01026 0.31616 0.34023 0.0
C65 C 0.99464 0.30558 0.35245 0.0
C66 C 0.98894 0.28701 0.3437 0.0
C67 C 1.00133 0.28584 0.32528 0.0
C68 C 0.01394 0.3036 0.32389 0.0
N69 N 0.04319 0.34188 0.31722 0.0
C70 C 0.04171 0.32725 0.3027 0.0
C71 C 0.05481 0.33122 0.28468 0.0
C72 C 0.06507 0.34967 0.2877 0.0
C73 C 0.0576 0.35589 0.30749 0.0
N74 N 0.04694 0.32591 0.35961 0.0
C75 C 0.07464 0.29992 0.38117 0.0
C76 C 0.07151 0.29731 0.35996 0.0
C77 C 0.05769 0.31031 0.3496 0.0
C78 C 0.06417 0.31619 0.39123 0.0
C79 C 0.05065 0.32898 0.3802 0.0
N80 N 0.00502 0.35976 0.33046 0.0
C81 C 0.98204 0.36436 0.30212 0.0
C82 C 0.97684 0.38446 0.3083 0.0
C83 C 0.98561 0.3918 0.32609 0.0
C84 C 0.99945 0.37923 0.33694 0.0
C85 C 0.99611 0.35243 0.31326 0.0
H86 H 0.00565 0.38569 0.35035 0.0
H87 H 0.99966 0.33738 0.30753 0.0
H88 H 0.05588 0.30724 0.33356 0.0
H89 H 0.04318 0.34105 0.38882 0.0
C90 C 0.02422 0.37567 0.3837 0.0
C91 C 0.06476 0.37519 0.31632 0.0
C92 C 0.98492 0.31231 0.37249 0.0
C93 C 0.02831 0.30965 0.30677 0.0
H94 H 0.07641 0.40911 0.34143 0.0
H95 H 0.05466 0.40915 0.37867 0.0
H96 H 0.99136 0.36719 0.41636 0.0
H97 H 0.97004 0.3323 0.41007 0.0
H98 H 0.97701 0.27551 0.34996 0.0
H99 H 1.00102 0.27361 0.31411 0.0
H100 H 0.05667 0.32182 0.27098 0.0
H101 H 0.07672 0.35767 0.2766 0.0
H102 H 0.07964 0.28523 0.35131 0.0
H103 H 0.06595 0.31879 0.40772 0.0
H104 H 0.97531 0.35779 0.2887 0.0
H105 H 0.98219 0.40735 0.33141 0.0
C106 C 0.69031 0.98963 0.32661 0.0
C107 C 0.70056 0.98164 0.30874 0.0
C108 C 0.72137 0.98764 0.30852 0.0
C109 C 0.72265 0.99915 0.32602 0.0
N110 N 0.70403 1.00088 0.3373 0.0
Co111 Co 0.69894 0.01773 0.36279 0.0
N112 N 0.72664 0.03339 0.35738 0.0
C113 C 0.74279 0.02718 0.34424 0.0
C114 C 0.76125 0.03809 0.34571 0.0
C115 C 0.75679 0.05193 0.361 0.0
C116 C 0.7355 0.0491 0.36787 0.0
N117 N 0.69349 0.03479 0.38808 0.0
C118 C 0.70354 0.05235 0.39406 0.0
C119 C 0.69229 0.06055 0.41129 0.0
C120 C 0.67588 0.04681 0.41735 0.0
C121 C 0.67746 0.03137 0.40313 0.0
N122 N 0.67163 1.00167 0.36834 0.0
C123 C 0.65945 1.00063 0.38669 0.0
C124 C 0.64151 0.98844 0.38603 0.0
C125 C 0.64238 0.98138 0.36598 0.0
C126 C 0.6608 0.98981 0.35543 0.0
N127 N 0.71309 0.99615 0.38028 0.0
C128 C 0.73518 0.9659 0.40412 0.0
C129 C 0.73747 0.9875 0.40681 0.0
C130 C 0.72634 1.00217 0.39498 0.0
C131 C 0.72102 0.95977 0.3895 0.0
C132 C 0.71023 0.97507 0.37776 0.0
N133 N 0.68472 0.03915 0.34536 0.0
C134 C 0.65339 0.05893 0.33888 0.0
C135 C 0.66227 0.06666 0.319 0.0
C136 C 0.683 0.06076 0.31291 0.0
C137 C 0.69385 0.04693 0.32619 0.0
C138 C 0.66484 0.04549 0.35178 0.0
H139 H 0.70946 0.0422 0.32072 0.0
H140 H 0.65729 0.03994 0.36683 0.0
H141 H 0.72871 0.01844 0.39784 0.0
H142 H 0.6997 0.9698 0.3665 0.0
C143 C 0.74004 0.01121 0.33047 0.0
C144 C 0.66787 0.98542 0.3335 0.0
C145 C 0.72514 0.05979 0.38605 0.0
C146 C 0.66296 0.01475 0.40217 0.0
H147 H 0.69381 0.97257 0.29694 0.0
H148 H 0.73385 0.98477 0.29648 0.0
H149 H 0.77638 0.03582 0.33714 0.0
H150 H 0.76851 0.06197 0.36697 0.0
H151 H 0.69592 0.07463 0.4192 0.0
H152 H 0.664 0.04815 0.43036 0.0
H153 H 0.62873 0.98592 0.39826 0.0
H154 H 0.63069 0.97138 0.35977 0.0
H155 H 0.74774 0.99316 0.4182 0.0
H156 H 0.7186 0.9433 0.38679 0.0
H157 H 0.6376 0.06326 0.34451 0.0
H158 H 0.69058 0.06627 0.29769 0.0
C159 C 0.97314 0.73615 0.3307 0.0
C160 C 0.97041 0.75486 0.31908 0.0
C161 C 0.98394 0.75453 0.30131 0.0
C162 C 0.99412 0.73576 0.30321 0.0
N163 N 0.98756 0.72385 0.32087 0.0
Co164 Co 0.99925 0.69639 0.33118 0.0
N165 N 0.02147 0.69744 0.30693 0.0
C166 C 0.02385 0.71203 0.29054 0.0
C167 C 0.04035 0.7083 0.27611 0.0
C168 C 0.04903 0.69023 0.28369 0.0
C169 C 0.03729 0.68401 0.30244 0.0
N170 N 0.01129 0.66927 0.34193 0.0
C171 C 0.02836 0.65879 0.33433 0.0
C172 C 0.03181 0.64083 0.34692 0.0
C173 C 0.01625 0.63987 0.36303 0.0
C174 C 0.00432 0.65726 0.35943 0.0
N175 N 0.97678 0.69518 0.35517 0.0
C176 C 0.97267 0.67944 0.3702 0.0
C177 C 0.95646 0.6836 0.38484 0.0
C178 C 0.95011 0.70333 0.37902 0.0
C179 C 0.96293 0.71002 0.36113 0.0
N180 N 0.9801 0.68069 0.31401 0.0
C181 C 0.95302 0.65817 0.28989 0.0
C182 C 0.95694 0.65086 0.31027 0.0
C183 C 0.9704 0.66223 0.32191 0.0
C184 C 0.96289 0.67692 0.28169 0.0
C185 C 0.97624 0.68784 0.29393 0.0
N186 N 0.01825 0.71196 0.34829 0.0
C187 C 0.03251 0.71725 0.38178 0.0
C188 C 0.04523 0.73396 0.37275 0.0
C189 C 0.04419 0.73955 0.35128 0.0
C190 C 0.0306 0.72847 0.33944 0.0
C191 C 0.01928 0.70652 0.36935 0.0
H192 H 0.03027 0.73355 0.32318 0.0
H193 H 0.01004 0.69384 0.37711 0.0
H194 H 0.97272 0.65557 0.3372 0.0
H195 H 0.98321 0.70198 0.28672 0.0
C196 C 0.01094 0.72958 0.28961 0.0
C197 C 0.96284 0.73128 0.35161 0.0
C198 C 0.0416 0.66507 0.31521 0.0
C199 C 0.98618 0.66241 0.37185 0.0
H200 H 0.96016 0.76763 0.32335 0.0
H201 H 0.98665 0.76687 0.28892 0.0
H202 H 0.04556 0.71769 0.26188 0.0
H203 H 0.06248 0.68251 0.27623 0.0
H204 H 0.04425 0.62955 0.34463 0.0
H205 H 0.01387 0.62787 0.37579 0.0
H206 H 0.95074 0.67396 0.39874 0.0
H207 H 0.93808 0.71218 0.38747 0.0
H208 H 0.94993 0.63618 0.31717 0.0
H209 H 0.9602 0.68327 0.26597 0.0
H210 H 0.03297 0.71225 0.39832 0.0
H211 H 0.05362 0.75258 0.34371 0.0
C212 C 0.34187 0.97359 0.74256 0.0
C213 C 0.33344 0.96631 0.76251 0.0
C214 C 0.31518 0.97688 0.7665 0.0
C215 C 0.3136 0.99002 0.74889 0.0
N216 N 0.32958 0.98829 0.73374 0.0
Co217 Co 0.33435 0.00547 0.70628 0.0
N218 N 0.30795 0.02165 0.71256 0.0
C219 C 0.29372 0.01853 0.72949 0.0
C220 C 0.27673 0.03149 0.72905 0.0
C221 C 0.28019 0.04354 0.71065 0.0
C222 C 0.29925 0.03726 0.70098 0.0
N223 N 0.33968 0.02329 0.67928 0.0
C224 C 0.32842 0.03934 0.67133 0.0
C225 C 0.33815 0.04821 0.6525 0.0
C226 C 0.35608 0.03718 0.64827 0.0
C227 C 0.35636 0.02239 0.66475 0.0
N228 N 0.36027 0.98873 0.69958 0.0
C229 C 0.37326 0.99027 0.6816 0.0
C230 C 0.38959 0.97645 0.68155 0.0
C231 C 0.38697 0.96551 0.70069 0.0
C232 C 0.36917 0.97343 0.71136 0.0
N233 N 0.31764 0.98485 0.69178 0.0
C234 C 0.29428 0.95553 0.67088 0.0
C235 C 0.31187 0.96615 0.66058 0.0
C236 C 0.32324 0.9805 0.67123 0.0
C237 C 0.2885 0.95991 0.69185 0.0
C238 C 0.30026 0.97456 0.70189 0.0
N239 N 0.35108 0.02604 0.72067 0.0
C240 C 0.38342 0.04601 0.7226 0.0
C241 C 0.37495 0.05576 0.74043 0.0
C242 C 0.35436 0.05017 0.74838 0.0
C243 C 0.34283 0.0353 0.73838 0.0
C244 C 0.3713 0.03144 0.71301 0.0
H245 H 0.32726 0.03159 0.74523 0.0
H246 H 0.37871 0.02473 0.69943 0.0
H247 H 0.33643 0.98794 0.66236 0.0
H248 H 0.29495 0.97728 0.7178 0.0
C249 C 0.29724 0.00398 0.74601 0.0
C250 C 0.36191 0.96659 0.73297 0.0
C251 C 0.30821 0.04631 0.68063 0.0
C252 C 0.37115 0.00647 0.66621 0.0
H253 H 0.33992 0.95472 0.77319 0.0
H254 H 0.30445 0.97533 0.78063 0.0
H255 H 0.26346 0.03216 0.74076 0.0
H256 H 0.26982 0.05556 0.70498 0.0
H257 H 0.33268 0.06113 0.64268 0.0
H258 H 0.36735 0.03941 0.6346 0.0
H259 H 0.40234 0.97504 0.66939 0.0
H260 H 0.39727 0.95343 0.70639 0.0
H261 H 0.31674 0.9637 0.64418 0.0
H262 H 0.27504 0.95199 0.70056 0.0
H263 H 0.39947 0.04939 0.71611 0.0
H264 H 0.34705 0.05737 0.76211 0.0
C265 C 0.99599 0.3636 0.68223 0.0
C266 C 0.99177 0.38338 0.67337 0.0
C267 C 1.00264 0.38528 0.65395 0.0
C268 C 0.01314 0.36678 0.65202 0.0
N269 N 0.00946 0.35297 0.66891 0.0
Co270 Co 0.02412 0.32536 0.67328 0.0
N271 N 0.04265 0.32973 0.6461 0.0
C272 C 0.04242 0.34656 0.6322 0.0
C273 C 0.05599 0.34511 0.61449 0.0
C274 C 0.06535 0.32608 0.61706 0.0
C275 C 0.057 0.31695 0.63632 0.0
N276 N 0.03879 0.29779 0.67771 0.0
C277 C 0.05342 0.28784 0.66506 0.0
C278 C 0.05875 0.26862 0.67436 0.0
C279 C 0.04686 0.26608 0.69321 0.0
C280 C 0.03503 0.28386 0.69448 0.0
N281 N 0.0057 0.32104 0.70049 0.0
C282 C 0.00531 0.30382 0.71397 0.0
C283 C 0.9915 0.30515 0.73152 0.0
C284 C 0.98281 0.32455 0.72938 0.0
C285 C 0.99201 0.33418 0.71069 0.0
N286 N 1.00249 0.31053 0.65745 0.0
C287 C 0.97501 0.28753 0.63305 0.0
C288 C 0.98085 0.27945 0.65269 0.0
C289 C 0.99425 0.2911 0.66452 0.0
C290 C 0.98274 0.30772 0.62626 0.0
C291 C 0.99629 0.31878 0.63851 0.0
N292 N 0.04564 0.34014 0.68909 0.0
C293 C 0.06481 0.34305 0.72057 0.0
C294 C 0.07206 0.36344 0.71402 0.0
C295 C 0.06648 0.37155 0.69432 0.0
C296 C 0.05368 0.35966 0.68212 0.0
C297 C 0.05168 0.33185 0.70807 0.0
H298 H 0.05022 0.36675 0.66721 0.0
H299 H 0.04625 0.31666 0.71431 0.0
H300 H 0.99788 0.28389 0.67929 0.0
H301 H 1.00179 0.33388 0.63213 0.0
C302 C 0.02848 0.36298 0.63574 0.0
C303 C 0.98758 0.35604 0.7037 0.0
C304 C 0.06257 0.2957 0.64406 0.0
C305 C 0.01933 0.2874 0.71054 0.0
H306 H 0.98248 0.39564 0.68039 0.0
H307 H 0.00366 0.39898 0.64302 0.0
H308 H 0.05838 0.35632 0.60104 0.0
H309 H 0.07667 0.31949 0.60575 0.0
H310 H 0.06988 0.25743 0.66802 0.0
H311 H 0.04652 0.25263 0.70445 0.0
H312 H 0.98856 0.29362 0.74463 0.0
H313 H 0.97131 0.33102 0.74059 0.0
H314 H 0.97501 0.26414 0.65906 0.0
H315 H 0.97882 0.31485 0.61122 0.0
H316 H 0.06867 0.33598 0.73566 0.0
H317 H 0.07203 0.38706 0.68825 0.0
C318 C 0.70106 0.03275 0.67408 0.0
C319 C 0.6946 0.04067 0.65485 0.0
C320 C 0.67481 0.03265 0.65324 0.0
C321 C 0.67028 0.02042 0.67151 0.0
N322 N 0.68597 0.02014 0.68478 0.0
Co323 Co 0.68579 0.0047 0.71326 0.0
N324 N 0.65708 0.99201 0.71031 0.0
C325 C 0.64514 0.99485 0.69367 0.0
C326 C 0.62627 0.98393 0.69605 0.0
C327 C 0.62614 0.97337 0.71533 0.0
C328 C 0.64504 0.97846 0.72361 0.0
N329 N 0.6854 0.9896 0.74192 0.0
C330 C 0.67046 0.97667 0.75244 0.0
C331 C 0.67647 0.9696 0.77212 0.0
C332 C 0.69586 0.97842 0.77417 0.0
C333 C 0.70059 0.9903 0.75571 0.0
N334 N 0.71472 0.01701 0.71595 0.0
C335 C 0.72688 0.01377 0.73237 0.0
C336 C 0.7462 0.02383 0.72948 0.0
C337 C 0.74651 0.03404 0.71 0.0
C338 C 0.72724 0.02964 0.70213 0.0
N339 N 0.67274 0.02926 0.72654 0.0
C340 C 0.65355 0.06337 0.74614 0.0
C341 C 0.67161 0.05445 0.75368 0.0
C342 C 0.68089 0.03757 0.7437 0.0
C343 C 0.64545 0.05522 0.72843 0.0
C344 C 0.65521 0.03832 0.71895 0.0
N345 N 0.69887 0.98021 0.7 0.0
C346 C 0.72529 0.95335 0.6992 0.0
C347 C 0.71988 0.94784 0.67935 0.0
C348 C 0.70318 0.95804 0.67042 0.0
C349 C 0.69285 0.97396 0.68103 0.0
C350 C 0.71466 0.96951 0.70917 0.0
H351 H 0.68032 0.98123 0.67337 0.0
H352 H 0.71983 0.97334 0.72404 0.0
H353 H 0.69456 0.03147 0.75027 0.0
H354 H 0.64813 0.03274 0.70566 0.0
C355 C 0.65184 0.00828 0.67622 0.0
C356 C 0.72173 0.03758 0.68133 0.0
C357 C 0.65064 0.97025 0.7443 0.0
C358 C 0.71955 1.00147 0.75044 0.0
H359 H 0.70336 0.05108 0.64313 0.0
H360 H 0.66499 0.03522 0.64018 0.0
H361 H 0.61402 0.98377 0.68512 0.0
H362 H 0.61348 0.96316 0.72253 0.0
H363 H 0.66784 0.95897 0.78372 0.0
H364 H 0.7055 0.97619 0.78741 0.0
H365 H 0.7586 0.02373 0.74025 0.0
H366 H 0.75949 0.04357 0.70238 0.0
H367 H 0.67858 0.06045 0.76725 0.0
H368 H 0.6313 0.0615 0.72219 0.0
H369 H 0.73822 0.94582 0.70663 0.0
H370 H 0.69831 0.95396 0.65515 0.0
C371 C 0.98932 0.6619 0.72576 0.0
C372 C 0.98565 0.66614 0.74705 0.0
C373 C 1.001 0.68005 0.75158 0.0
C374 C 0.01354 0.68331 0.73317 0.0
N375 N 0.00694 0.67253 0.7171 0.0
Co376 Co 0.02397 0.66931 0.68984 0.0
N377 N 0.04189 0.69432 0.69392 0.0
C378 C 0.04423 0.70325 0.71228 0.0
C379 C 0.05751 0.7206 0.71007 0.0
C380 C 0.06393 0.72267 0.6889 0.0
C381 C 0.05413 0.70641 0.67947 0.0
N382 N 0.04147 0.66598 0.66296 0.0
C383 C 0.05415 0.68025 0.65128 0.0
C384 C 0.0631 0.67168 0.63314 0.0
C385 C 0.05571 0.65128 0.63359 0.0
C386 C 0.04267 0.64857 0.65188 0.0
N387 N 0.00583 0.64449 0.68542 0.0
C388 C 0.00958 0.63047 0.67049 0.0
C389 C 0.99258 0.61739 0.66854 0.0
C390 C 0.97742 0.6232 0.6835 0.0
C391 C 0.9863 0.639 0.69446 0.0
N392 N 0.00457 0.68753 0.67453 0.0
C393 C 0.97792 0.71393 0.65146 0.0
C394 C 0.98531 0.69496 0.64366 0.0
C395 C 0.99844 0.68211 0.65532 0.0
C396 C 0.98431 0.71931 0.67125 0.0
C397 C 0.99755 0.70595 0.68248 0.0
N398 N 0.04343 0.65101 0.70513 0.0
C399 C 0.04884 0.62316 0.73157 0.0
C400 C 0.07081 0.62652 0.72926 0.0
C401 C 0.07875 0.64213 0.71404 0.0
C402 C 0.06488 0.65414 0.70222 0.0
C403 C 0.03557 0.63536 0.71939 0.0
H404 H 0.07153 0.66618 0.6909 0.0
H405 H 0.01885 0.63214 0.72178 0.0
H406 H 0.00378 0.66784 0.64855 0.0
H407 H 1.0022 0.71058 0.69757 0.0
C408 C 0.03111 0.69697 0.73023 0.0
C409 C 0.97729 0.64599 0.7151 0.0
C410 C 0.05798 0.70185 0.65718 0.0
C411 C 0.02751 0.63246 0.65618 0.0
H412 H 0.97391 0.65928 0.75871 0.0
H413 H 0.00302 0.68664 0.76667 0.0
H414 H 0.06141 0.73098 0.72219 0.0
H415 H 0.07467 0.73465 0.6813 0.0
H416 H 0.07344 0.67943 0.62064 0.0
H417 H 0.05833 0.64029 0.62128 0.0
H418 H 0.99104 0.60565 0.65703 0.0
H419 H 0.96179 0.61612 0.68634 0.0
H420 H 0.98132 0.69012 0.62836 0.0
H421 H 0.97898 0.73364 0.67819 0.0
H422 H 0.04183 0.61102 0.74269 0.0
H423 H 0.09556 0.64544 0.71158 0.0
C424 C 0.3889 0.34214 0.03325 0.0
C425 C 0.40796 0.3518 0.03678 0.0
C426 C 0.40912 0.37042 0.02501 0.0
C427 C 0.39073 0.37124 0.0151 0.0
N428 N 0.37784 0.35422 0.01973 0.0
Co429 Co 0.34897 0.34992 0.00945 0.0
N430 N 0.35103 0.37714 0.99161 0.0
C431 C 0.36782 0.39063 0.98919 0.0
C432 C 0.36495 0.40791 0.97597 0.0
C433 C 0.34516 0.40533 0.96943 0.0
C434 C 0.33703 0.38649 0.97904 0.0
N435 N 0.31977 0.34601 0.99983 0.0
C436 C 0.30834 0.35857 0.98708 0.0
C437 C 0.28851 0.34981 0.98502 0.0
C438 C 0.28724 0.33127 0.99695 0.0
C439 C 0.30629 0.32967 0.00561 0.0
N440 N 0.34725 0.32231 0.02665 0.0
C441 C 0.33111 0.30807 0.0278 0.0
C442 C 0.33449 0.29023 0.04006 0.0
C443 C 0.354 0.29317 0.04717 0.0
C444 C 0.3614 0.31281 0.03896 0.0
N445 N 0.33655 0.36456 0.03399 0.0
C446 C 0.31728 0.38599 0.06765 0.0
C447 C 0.3112 0.36538 0.06427 0.0
C448 C 0.32089 0.35508 0.04744 0.0
C449 C 0.33366 0.39548 0.05432 0.0
C450 C 0.34309 0.38451 0.03781 0.0
N451 N 0.36137 0.33518 0.98495 0.0
C452 C 0.36103 0.30592 0.96235 0.0
C453 C 0.38089 0.31194 0.95284 0.0
C454 C 0.39036 0.33035 0.95887 0.0
C455 C 0.38035 0.3417 0.97479 0.0
C456 C 0.35159 0.31773 0.97818 0.0
H457 H 0.38852 0.3554 0.97893 0.0
H458 H 0.33656 0.31216 0.98493 0.0
H459 H 0.31523 0.33956 0.04555 0.0
H460 H 0.3554 0.39263 0.02817 0.0
C461 C 0.38548 0.38733 1.00069 0.0
C462 C 0.38202 0.3216 0.04328 0.0
C463 C 0.31569 0.37857 0.97617 0.0
C464 C 0.31248 0.31248 0.01818 0.0
H465 H 0.41982 0.34601 0.04686 0.0
H466 H 0.42192 0.38196 0.02375 0.0
H467 H 0.37579 0.42106 0.9719 0.0
H468 H 0.33748 0.41627 0.95902 0.0
H469 H 0.27628 0.35605 0.97564 0.0
H470 H 0.27411 0.32012 0.99883 0.0
H471 H 0.32394 0.27677 0.04359 0.0
H472 H 0.36185 0.28209 0.05729 0.0
H473 H 0.29885 0.35721 0.07445 0.0
H474 H 0.33881 0.41152 0.05619 0.0
H475 H 0.35293 0.29195 0.95783 0.0
H476 H 0.40582 0.33559 0.95196 0.0
C477 C 0.68576 0.31535 0.04867 0.0
C478 C 0.69356 0.29592 0.05492 0.0
C479 C 0.71286 0.29432 0.04418 0.0
C480 C 0.71578 0.31279 0.03211 0.0
N481 N 0.69962 0.32626 0.03464 0.0
Co482 Co 0.69717 0.35467 0.01972 0.0
N483 N 0.72501 0.35169 1.00292 0.0
C484 C 0.73814 0.33518 0.00396 0.0
C485 C 0.75615 0.33765 0.99066 0.0
C486 C 0.75455 0.35694 0.98056 0.0
C487 C 0.73559 0.36521 0.98838 0.0
N488 N 0.69463 0.38301 0.00465 0.0
C489 C 0.70802 0.3935 0.98982 0.0
C490 C 0.70026 0.41298 0.98369 0.0
C491 C 0.6813 0.41489 0.995 0.0
C492 C 0.67858 0.39658 0.00738 0.0
N493 N 0.66938 0.35768 0.03663 0.0
C494 C 0.65647 0.37439 0.03593 0.0
C495 C 0.63821 0.37169 0.04884 0.0
C496 C 0.63938 0.35201 0.05826 0.0
C497 C 0.65843 0.34383 0.05057 0.0
N498 N 0.71199 0.36799 0.04208 0.0
C499 C 0.73441 0.38853 0.07176 0.0
C500 C 0.71555 0.39656 0.06516 0.0
C501 C 0.70469 0.38612 0.05047 0.0
C502 C 0.74158 0.36974 0.06373 0.0
C503 C 0.73016 0.35975 0.04911 0.0
N504 N 0.68238 0.34139 0.9974 0.0
C505 C 0.65222 0.33933 0.97665 0.0
C506 C 0.65967 0.32093 0.96802 0.0
C507 C 0.67901 0.31329 0.97373 0.0
C508 C 0.69 0.32367 0.98841 0.0
C509 C 0.66382 0.34932 0.99106 0.0
H510 H 0.70442 0.31685 0.9925 0.0
H511 H 0.65728 0.36326 0.99706 0.0
H512 H 0.69063 0.39327 0.04592 0.0
H513 H 0.7365 0.34553 0.04356 0.0
C514 C 0.73316 0.31762 0.01771 0.0
C515 C 0.66498 0.32252 0.05632 0.0
C516 C 0.72844 0.38597 0.98152 0.0
C517 C 0.66138 0.39191 0.02207 0.0
H518 H 0.68597 0.28403 0.06592 0.0
H519 H 0.72337 0.28111 0.04484 0.0
H520 H 0.76896 0.32674 0.98861 0.0
H521 H 0.76609 0.36415 0.96879 0.0
H522 H 0.70765 0.4247 0.97238 0.0
H523 H 0.67086 0.42815 0.99445 0.0
H524 H 0.62532 0.38252 0.05076 0.0
H525 H 0.62735 0.34441 0.06921 0.0
H526 H 0.70945 0.4112 0.07083 0.0
H527 H 0.75599 0.36277 0.06866 0.0
H528 H 0.63742 0.34595 0.97236 0.0
H529 H 0.68531 0.29901 0.96742 0.0
C530 C 0.71915 0.69039 0.05332 0.0
C531 C 0.73819 0.69952 0.05774 0.0
C532 C 0.7417 0.71655 0.04385 0.0
C533 C 0.72473 0.71676 0.03178 0.0
N534 N 0.71041 0.7011 0.0373 0.0
Co535 Co 0.68411 0.69471 0.02315 0.0
N536 N 0.68962 0.71938 1.0023 0.0
C537 C 0.70599 0.73333 1.00124 0.0
C538 C 0.70489 0.7493 0.98602 0.0
C539 C 0.68652 0.74553 0.977 0.0
C540 C 0.67754 0.72732 0.98723 0.0
N541 N 0.65814 0.68797 0.00867 0.0
C542 C 0.64946 0.69854 0.99254 0.0
C543 C 0.63142 0.68837 0.98693 0.0
C544 C 0.62834 0.6709 1.00032 0.0
C545 C 0.64468 0.67138 0.01318 0.0
N546 N 0.67819 0.67046 0.04436 0.0
C547 C 0.66129 0.65712 0.04607 0.0
C548 C 0.66156 0.64215 0.0624 0.0
C549 C 0.67984 0.64603 0.07156 0.0
C550 C 0.6897 0.66315 0.06013 0.0
N551 N 0.66727 0.71342 0.04263 0.0
C552 C 0.64354 0.73965 0.07085 0.0
C553 C 0.63531 0.72044 0.06485 0.0
C554 C 0.64722 0.70781 0.05093 0.0
C555 C 0.66396 0.74539 0.0621 0.0
C556 C 0.67537 0.73227 0.04825 0.0
N557 N 0.701 0.67587 0.00372 0.0
C558 C 0.70713 0.64156 0.98914 0.0
C559 C 0.72532 0.64889 0.97678 0.0
C560 C 0.73096 0.67014 0.97827 0.0
C561 C 0.71888 0.68311 0.99174 0.0
C562 C 0.6953 0.65512 1.00216 0.0
H563 H 0.72444 0.69896 0.99228 0.0
H564 H 0.68156 0.64838 0.01085 0.0
H565 H 0.6398 0.69351 0.04705 0.0
H566 H 0.6908 0.73771 0.04232 0.0
C567 C 0.7219 0.7313 0.01509 0.0
C568 C 0.71057 0.67098 0.06399 0.0
C569 C 0.65705 0.71877 0.98287 0.0
C570 C 0.64653 0.65784 0.03092 0.0
H571 H 0.74864 0.69422 0.06952 0.0
H572 H 0.75518 0.72729 0.04248 0.0
H573 H 0.71589 0.76237 0.98226 0.0
H574 H 0.68026 0.75535 0.96461 0.0
H575 H 0.62123 0.69338 0.97479 0.0
H576 H 0.61532 0.65964 1.0011 0.0
H577 H 0.65019 0.62949 0.06667 0.0
H578 H 0.6856 0.63695 0.08477 0.0
H579 H 0.61952 0.71517 0.07063 0.0
H580 H 0.67143 0.75986 0.06617 0.0
H581 H 0.70175 0.62539 0.98857 0.0
H582 H 0.74496 0.67676 0.96935 0.0
C583 C 0.38593 0.69192 0.99985 0.0
C584 C 0.40462 0.68328 0.9918 0.0
C585 C 0.40708 0.66498 0.00347 0.0
C586 C 0.38986 0.66347 0.01792 0.0
N587 N 0.37646 0.67966 0.01614 0.0
Co588 Co 0.34955 0.68372 0.03411 0.0
N589 N 0.35425 0.65781 0.0525 0.0
C590 C 0.37121 0.64524 0.05116 0.0
C591 C 0.36997 0.62853 0.06578 0.0
C592 C 0.351 0.63043 0.07709 0.0
C593 C 0.34175 0.6483 0.06868 0.0
N594 N 0.32226 0.68736 0.05157 0.0
C595 C 0.31249 0.67472 0.06739 0.0
C596 C 0.29323 0.6827 0.07473 0.0
C597 C 0.29054 0.70083 0.06287 0.0
C598 C 0.30823 0.70289 0.04907 0.0
N599 N 0.34522 0.71004 0.01622 0.0
C600 C 0.3289 0.72335 0.01835 0.0
C601 C 0.3306 0.74053 0.00431 0.0
C602 C 0.34931 0.73827 0.99267 0.0
C603 C 0.35797 0.71977 1.00037 0.0
N604 N 0.33391 0.66648 0.01456 0.0
C605 C 0.31124 0.64158 0.98758 0.0
C606 C 0.30516 0.66207 0.99188 0.0
C607 C 0.31649 0.67405 0.00534 0.0
C608 C 0.32901 0.63391 0.99701 0.0
C609 C 0.34005 0.6465 0.01015 0.0
N610 N 0.36523 0.70097 0.05362 0.0
C611 C 0.36745 0.73101 0.07555 0.0
C612 C 0.38819 0.72632 0.07999 0.0
C613 C 0.39705 0.7085 0.07112 0.0
C614 C 0.38541 0.69613 0.05829 0.0
C615 C 0.35644 0.71836 0.06241 0.0
H616 H 0.39315 0.68273 0.05225 0.0
H617 H 0.34088 0.72311 0.05944 0.0
H618 H 0.31074 0.68938 0.00816 0.0
H619 H 0.35353 0.63965 0.01659 0.0
C620 C 0.38696 0.64828 0.03463 0.0
C621 C 0.37847 0.71231 0.99228 0.0
C622 C 0.3206 0.65491 0.07578 0.0
C623 C 0.31215 0.71921 0.03363 0.0
H624 H 0.41563 0.6898 0.97918 0.0
H625 H 0.42025 0.65441 1.00208 0.0
H626 H 0.38115 0.61601 0.0675 0.0
H627 H 0.34449 0.61956 0.08971 0.0
H628 H 0.28219 0.676 0.08724 0.0
H629 H 0.27719 0.71118 0.06404 0.0
H630 H 0.31962 0.75326 1.00283 0.0
H631 H 0.35593 0.7491 0.98006 0.0
H632 H 0.29142 0.66878 0.9852 0.0
H633 H 0.33463 0.61829 0.99406 0.0
H634 H 0.35983 0.74469 0.08182 0.0
H635 H 0.4129 0.7039 0.07424 0.0
C636 C 0.82225 0.4737 0.85417 0.0
C637 C 0.80551 0.46356 0.84592 0.0
C638 C 0.80658 0.4695 0.82476 0.0
C639 C 0.82385 0.48287 0.82137 0.0
N640 N 0.83366 0.4857 0.839 0.0
Co641 Co 0.85891 0.50389 0.84133 0.0
N642 N 0.85443 0.52013 0.81439 0.0
C643 C 0.84275 0.51316 0.79922 0.0
C644 C 0.845 0.52533 0.78075 0.0
C645 C 0.85918 0.54083 0.78425 0.0
C646 C 0.8646 0.53761 0.80504 0.0
N647 N 0.88401 0.52223 0.84396 0.0
C648 C 0.88913 0.54147 0.8345 0.0
C649 C 0.90539 0.55081 0.84435 0.0
C650 C 0.91184 0.53622 0.85899 0.0
C651 C 0.89868 0.5191 0.858 0.0
N652 N 0.86346 0.48725 0.86794 0.0
C653 C 0.8814 0.48652 0.87785 0.0
C654 C 0.87952 0.47396 0.89623 0.0
C655 C 0.85909 0.46639 0.89799 0.0
C656 C 0.84967 0.47477 0.8805 0.0
N657 N 0.87681 0.48393 0.82489 0.0
C658 C 0.90126 0.45541 0.79988 0.0
C659 C 0.903 0.47747 0.79608 0.0
C660 C 0.89115 0.4912 0.80881 0.0
C661 C 0.88688 0.4483 0.81704 0.0
C662 C 0.8748 0.4626 0.82901 0.0
N663 N 0.84106 0.52376 0.85781 0.0
C664 C 0.83448 0.54358 0.88921 0.0
C665 C 0.81534 0.55133 0.88244 0.0
C666 C 0.80953 0.54469 0.86279 0.0
C667 C 0.82245 0.53097 0.85088 0.0
C668 C 0.84699 0.53015 0.87679 0.0
H669 H 0.8173 0.52615 0.83605 0.0
H670 H 0.86146 0.52479 0.88281 0.0
H671 H 0.89355 0.50784 0.80532 0.0
H672 H 0.86376 0.4563 0.84165 0.0
C673 C 0.82922 0.49561 0.80312 0.0
C674 C 0.82778 0.47053 0.87603 0.0
C675 C 0.88126 0.54982 0.81439 0.0
C676 C 0.89733 0.50166 0.87247 0.0
H677 H 0.79385 0.45294 0.85429 0.0
H678 H 0.7956 0.46525 0.81343 0.0
H679 H 0.83756 0.52297 0.76627 0.0
H680 H 0.86541 0.55237 0.7722 0.0
H681 H 0.91234 0.56637 0.84096 0.0
H682 H 0.92407 0.53821 0.86971 0.0
H683 H 0.8911 0.47177 0.90775 0.0
H684 H 0.85186 0.45629 0.91091 0.0
H685 H 0.91321 0.48449 0.78312 0.0
H686 H 0.88484 0.43174 0.82155 0.0
H687 H 0.83982 0.54752 0.9043 0.0
H688 H 0.79519 0.55018 0.85638 0.0
C689 C 0.47512 0.83006 0.89775 0.0
C690 C 0.46695 0.83755 0.91678 0.0
C691 C 0.47637 0.85669 0.91851 0.0
C692 C 0.48976 0.85977 0.90059 0.0
N693 N 0.48934 0.84384 0.88735 0.0
Co694 Co 0.50702 0.84147 0.85996 0.0
N695 N 0.52203 0.86895 0.86335 0.0
C696 C 0.51868 0.88193 0.87942 0.0
C697 C 0.53112 0.89981 0.87728 0.0
C698 C 0.54312 0.89825 0.8587 0.0
C699 C 0.53732 0.87937 0.85058 0.0
N700 N 0.52472 0.83906 0.83259 0.0
C701 C 0.53975 0.85234 0.82272 0.0
C702 C 0.54824 0.84466 0.80391 0.0
C703 C 0.5381 0.82596 0.80169 0.0
C704 C 0.5241 0.82325 0.81922 0.0
N705 N 0.49203 0.81396 0.8566 0.0
C706 C 0.49487 0.80129 0.84021 0.0
C707 C 0.4826 0.78329 0.84253 0.0
C708 C 0.47138 0.78438 0.86164 0.0
C709 C 0.47755 0.80303 0.86993 0.0
N710 N 0.48539 0.85663 0.84446 0.0
C711 C 0.45672 0.87948 0.821 0.0
C712 C 0.46501 0.86072 0.81397 0.0
C713 C 0.47915 0.84963 0.82585 0.0
C714 C 0.46254 0.88634 0.84027 0.0
C715 C 0.47673 0.87474 0.85167 0.0
N716 N 0.52862 0.82634 0.87538 0.0
C717 C 0.55144 0.79663 0.87925 0.0
C718 C 0.55796 0.80381 0.8981 0.0
C719 C 0.5499 0.82265 0.90522 0.0
C720 C 0.53531 0.83356 0.89371 0.0
C721 C 0.53694 0.8081 0.86819 0.0
H722 H 0.52952 0.84767 0.90007 0.0
H723 H 0.53261 0.8018 0.85394 0.0
H724 H 0.48492 0.83557 0.8195 0.0
H725 H 0.48065 0.88091 0.86611 0.0
C726 C 0.50361 0.87697 0.89623 0.0
C727 C 0.46951 0.80941 0.89071 0.0
C728 C 0.54647 0.87234 0.83044 0.0
C729 C 0.50998 0.80621 0.82339 0.0
H730 H 0.45565 0.82981 0.92844 0.0
H731 H 0.47411 0.86693 0.93153 0.0
H732 H 0.53131 0.91254 0.8879 0.0
H733 H 0.55469 0.90981 0.85182 0.0
H734 H 0.56046 0.85187 0.7929 0.0
H735 H 0.54055 0.81562 0.78879 0.0
H736 H 0.48218 0.77068 0.8318 0.0
H737 H 0.46014 0.77264 0.86881 0.0
H738 H 0.46061 0.85455 0.79932 0.0
H739 H 0.45658 0.90087 0.84632 0.0
H740 H 0.55755 0.78225 0.87299 0.0
H741 H 0.55446 0.82871 0.91985 0.0
C742 C 0.15613 0.53034 0.84331 0.0
C743 C 0.13681 0.53639 0.85254 0.0
C744 C 0.13361 0.5251 0.87147 0.0
C745 C 0.15112 0.51291 0.8728 0.0
N746 N 0.16545 0.51587 0.85597 0.0
Co747 Co 0.19289 0.50081 0.85145 0.0
N748 N 0.18693 0.48225 0.87799 0.0
C749 C 0.16903 0.48186 0.89103 0.0
C750 C 0.16959 0.46816 0.90839 0.0
C751 C 0.18909 0.45943 0.90651 0.0
C752 C 0.19941 0.46829 0.88798 0.0
N753 N 0.22068 0.48629 0.84737 0.0
C754 C 0.2303 0.47246 0.86046 0.0
C755 C 0.25019 0.46733 0.85185 0.0
C756 C 0.25351 0.47867 0.83298 0.0
C757 C 0.23552 0.49001 0.83108 0.0
N758 N 0.19853 0.51886 0.82454 0.0
C759 C 0.21573 0.51818 0.81066 0.0
C760 C 0.21477 0.53128 0.7929 0.0
C761 C 0.19562 0.54064 0.79535 0.0
C762 C 0.18597 0.53273 0.81457 0.0
N763 N 0.20713 0.52214 0.86801 0.0
C764 C 0.22925 0.54981 0.89294 0.0
C765 C 0.23637 0.54642 0.87192 0.0
C766 C 0.22524 0.53269 0.85992 0.0
C767 C 0.21047 0.53935 0.90091 0.0
C768 C 0.19974 0.52593 0.88832 0.0
N769 N 0.17859 0.47947 0.83486 0.0
C770 C 0.17813 0.4579 0.80437 0.0
C771 C 0.15674 0.45228 0.8091 0.0
C772 C 0.14684 0.4602 0.82747 0.0
C773 C 0.15794 0.47332 0.84004 0.0
C774 C 0.18857 0.47138 0.81721 0.0
H775 H 0.14928 0.47858 0.85375 0.0
H776 H 0.2047 0.47519 0.81239 0.0
H777 H 0.23173 0.5307 0.84416 0.0
H778 H 0.18562 0.51852 0.89554 0.0
C779 C 0.15334 0.49667 0.88815 0.0
C780 C 0.1645 0.5382 0.82216 0.0
C781 C 0.22149 0.464 0.88129 0.0
C782 C 0.2323 0.50471 0.81456 0.0
H783 H 0.12591 0.54739 0.84597 0.0
H784 H 0.11974 0.52511 0.88252 0.0
H785 H 0.15766 0.46565 0.92146 0.0
H786 H 0.19527 0.4484 0.91793 0.0
H787 H 0.26129 0.45671 0.85867 0.0
H788 H 0.26755 0.47895 0.82214 0.0
H789 H 0.22643 0.53342 0.77954 0.0
H790 H 0.18927 0.5517 0.78404 0.0
H791 H 0.25048 0.55436 0.86458 0.0
H792 H 0.20416 0.54103 0.91705 0.0
H793 H 0.18699 0.45194 0.79079 0.0
H794 H 0.13033 0.45677 0.83206 0.0
C795 C 0.48781 0.22956 0.8463 0.0
C796 C 0.48194 0.24792 0.83563 0.0
C797 C 0.4952 0.25049 0.8177 0.0
C798 C 0.50843 0.23373 0.81853 0.0
N799 N 0.50432 0.22046 0.8358 0.0
Co800 Co 0.52051 0.19487 0.84397 0.0
N801 N 0.53974 0.19849 0.81738 0.0
C802 C 0.53865 0.21329 0.8014 0.0
C803 C 0.55339 0.21117 0.78476 0.0
C804 C 0.56445 0.19381 0.79031 0.0
C805 C 0.55582 0.18643 0.81016 0.0
N806 N 0.53734 0.16992 0.85268 0.0
C807 C 0.55426 0.16124 0.84251 0.0
C808 C 0.56186 0.14447 0.85443 0.0
C809 C 0.54907 0.14232 0.87272 0.0
C810 C 0.53455 0.1579 0.87097 0.0
N811 N 0.50065 0.1906 0.87004 0.0
C812 C 0.50058 0.17467 0.88506 0.0
C813 C 0.48446 0.17552 0.90062 0.0
C814 C 0.47357 0.19305 0.89524 0.0
C815 C 0.48385 0.20197 0.87671 0.0
N816 N 0.5016 0.17677 0.82905 0.0
C817 C 0.47353 0.15149 0.80893 0.0
C818 C 0.48273 0.1438 0.82695 0.0
C819 C 0.49652 0.15664 0.83675 0.0
C820 C 0.47879 0.17189 0.80089 0.0
C821 C 0.49295 0.1841 0.811 0.0
N822 N 0.53943 0.21291 0.85897 0.0
C823 C 0.55599 0.22061 0.8907 0.0
C824 C 0.56757 0.23733 0.88007 0.0
C825 C 0.56449 0.24191 0.85877 0.0
C826 C 0.55036 0.22966 0.84864 0.0
C827 C 0.54219 0.2087 0.87995 0.0
H828 H 0.54868 0.234 0.83243 0.0
H829 H 0.534 0.19613 0.889 0.0
H830 H 0.50273 0.14993 0.85062 0.0
H831 H 0.49659 0.19943 0.80395 0.0
C832 C 0.52417 0.22948 0.80287 0.0
C833 C 0.47752 0.22165 0.86652 0.0
C834 C 0.56304 0.16764 0.82126 0.0
C835 C 0.51694 0.16029 0.88515 0.0
H836 H 0.4694 0.25842 0.84032 0.0
H837 H 0.49516 0.26304 0.80549 0.0
H838 H 0.55582 0.22107 0.77033 0.0
H839 H 0.57734 0.18728 0.78078 0.0
H840 H 0.57502 0.13456 0.85011 0.0
H841 H 0.54985 0.13043 0.88548 0.0
H842 H 0.48131 0.16496 0.9145 0.0
H843 H 0.45984 0.19885 0.90414 0.0
H844 H 0.47897 0.12807 0.83373 0.0
H845 H 0.47219 0.1783 0.78674 0.0
H846 H 0.55742 0.21675 0.90736 0.0
H847 H 0.57315 0.25467 0.84982 0.0
C848 C 0.83635 0.4912 0.15032 0.0
C849 C 0.84657 0.48433 0.13188 0.0
C850 C 0.86424 0.49674 0.12757 0.0
C851 C 0.86387 0.51031 0.1436 0.0
N852 N 0.84706 0.50728 0.15798 0.0
Co853 Co 0.84063 0.52301 0.18417 0.0
N854 N 0.86583 0.54221 0.17696 0.0
C855 C 0.87945 0.54238 0.15945 0.0
C856 C 0.89499 0.55762 0.1588 0.0
C857 C 0.89113 0.56779 0.17701 0.0
C858 C 0.87343 0.55804 0.18776 0.0
N859 N 0.83461 0.53832 0.21071 0.0
C860 C 0.84561 0.55408 0.21858 0.0
C861 C 0.83647 0.55973 0.23799 0.0
C862 C 0.81908 0.54699 0.24261 0.0
C863 C 0.81865 0.53432 0.22588 0.0
N864 N 0.81503 0.50424 0.19099 0.0
C865 C 0.80069 0.50492 0.20787 0.0
C866 C 0.78431 0.49069 0.20777 0.0
C867 C 0.78826 0.4804 0.18966 0.0
C868 C 0.807 0.48892 0.17978 0.0
N869 N 0.85809 0.50308 0.19994 0.0
C870 C 0.88338 0.47623 0.22325 0.0
C871 C 0.86234 0.47922 0.23015 0.0
C872 C 0.85009 0.49271 0.21839 0.0
C873 C 0.89154 0.48654 0.20437 0.0
C874 C 0.87865 0.49967 0.19296 0.0
N875 N 0.82323 0.54299 0.16847 0.0
C876 C 0.79241 0.5646 0.16709 0.0
C877 C 0.79894 0.57204 0.14651 0.0
C878 C 0.81771 0.56461 0.13701 0.0
C879 C 0.82949 0.55016 0.14818 0.0
C880 C 0.8047 0.55019 0.17769 0.0
H881 H 0.84359 0.54502 0.14003 0.0
H882 H 0.79889 0.54517 0.19334 0.0
H883 H 0.83429 0.49464 0.22471 0.0
H884 H 0.88576 0.50697 0.17862 0.0
C885 C 0.87817 0.52701 0.14472 0.0
C886 C 0.81622 0.48234 0.15953 0.0
C887 C 0.86497 0.56385 0.20853 0.0
C888 C 0.80323 0.51889 0.22372 0.0
H889 H 0.84158 0.47185 0.12236 0.0
H890 H 0.87573 0.49624 0.11409 0.0
H891 H 0.90787 0.56065 0.14677 0.0
H892 H 0.9005 0.58069 0.18201 0.0
H893 H 0.84189 0.57175 0.24782 0.0
H894 H 0.80808 0.54694 0.25652 0.0
H895 H 0.77101 0.48819 0.21943 0.0
H896 H 0.77835 0.46814 0.18426 0.0
H897 H 0.85548 0.47156 0.24481 0.0
H898 H 0.90776 0.48439 0.19837 0.0
H899 H 0.77802 0.57007 0.17512 0.0
H900 H 0.82319 0.56972 0.12093 0.0
C901 C 0.55365 0.8541 0.16783 0.0
C902 C 0.56182 0.8642 0.14897 0.0
C903 C 0.55245 0.88334 0.14758 0.0
C904 C 0.53926 0.884 0.16568 0.0
N905 N 0.53984 0.86657 0.17872 0.0
Co906 Co 0.52265 0.86132 0.20657 0.0
N907 N 0.5059 0.88758 0.20262 0.0
C908 C 0.5073 0.90067 0.18506 0.0
C909 C 0.49228 0.91586 0.18526 0.0
C910 C 0.48077 0.91251 0.20424 0.0
C911 C 0.48985 0.8958 0.21502 0.0
N912 N 0.50607 0.85658 0.23485 0.0
C913 C 0.49282 0.86953 0.24595 0.0
C914 C 0.48893 0.86177 0.26683 0.0
C915 C 0.49896 0.84307 0.26868 0.0
C916 C 0.50904 0.84061 0.24918 0.0
N917 N 0.53869 0.83443 0.20995 0.0
C918 C 0.53607 0.82025 0.2266 0.0
C919 C 0.54727 0.80224 0.22394 0.0
C920 C 0.55735 0.8048 0.20416 0.0
C921 C 0.55189 0.82441 0.19587 0.0
N922 N 0.54435 0.87748 0.22108 0.0
C923 C 0.57186 0.90153 0.24444 0.0
C924 C 0.567 0.88033 0.25008 0.0
C925 C 0.55362 0.8687 0.23823 0.0
C926 C 0.56318 0.91021 0.22635 0.0
C927 C 0.54957 0.8981 0.21509 0.0
N928 N 0.50107 0.84518 0.19215 0.0
C929 C 0.47775 0.81466 0.19088 0.0
C930 C 0.474 0.81979 0.16971 0.0
C931 C 0.48366 0.83834 0.16038 0.0
C932 C 0.49677 0.8507 0.17175 0.0
C933 C 0.49116 0.82742 0.20168 0.0
H934 H 0.50361 0.86449 0.16349 0.0
H935 H 0.49352 0.82247 0.21767 0.0
H936 H 0.55085 0.85264 0.24344 0.0
H937 H 0.54319 0.90588 0.20176 0.0
C938 C 0.52347 0.89878 0.16906 0.0
C939 C 0.55892 0.8324 0.17423 0.0
C940 C 0.48354 0.88917 0.23739 0.0
C941 C 0.52252 0.82416 0.24425 0.0
H942 H 0.57287 0.85806 0.13711 0.0
H943 H 0.55415 0.89489 0.13436 0.0
H944 H 0.49004 0.92803 0.17309 0.0
H945 H 0.46735 0.92164 0.20953 0.0
H946 H 0.4803 0.86897 0.27978 0.0
H947 H 0.49953 0.83288 0.28284 0.0
H948 H 0.54758 0.78859 0.23486 0.0
H949 H 0.56717 0.79325 0.19655 0.0
H950 H 0.57363 0.8726 0.2636 0.0
H951 H 0.56637 0.92653 0.22117 0.0
H952 H 0.47038 0.80084 0.19922 0.0
H953 H 0.48167 0.84318 0.14405 0.0
C954 C 0.20247 0.55642 0.16768 0.0
C955 C 0.19578 0.56422 0.14851 0.0
C956 C 0.17706 0.55427 0.14601 0.0
C957 C 0.17343 0.54094 0.16364 0.0
N958 N 0.1886 0.5419 0.17743 0.0
Co959 Co 0.1901 0.52439 0.20459 0.0
N960 N 0.16342 0.50849 0.19998 0.0
C961 C 0.15117 0.51147 0.18359 0.0
C962 C 0.13365 0.49851 0.18489 0.0
C963 C 0.13468 0.48652 0.20323 0.0
C964 C 0.15293 0.49283 0.21205 0.0
N965 N 0.19166 0.50681 0.23168 0.0
C966 C 0.17856 0.49123 0.2407 0.0
C967 C 0.18563 0.48295 0.25952 0.0
C968 C 0.20368 0.49382 0.26265 0.0
C969 C 0.20668 0.50799 0.2456 0.0
N970 N 0.21679 0.54026 0.20915 0.0
C971 C 0.22858 0.53794 0.22596 0.0
C972 C 0.24624 0.55074 0.22445 0.0
C973 C 0.24588 0.56176 0.20545 0.0
C974 C 0.22796 0.55496 0.1964 0.0
N975 N 0.17326 0.54538 0.22014 0.0
C976 C 0.14829 0.57374 0.24296 0.0
C977 C 0.16637 0.56547 0.25106 0.0
C978 C 0.1786 0.55152 0.23942 0.0
C979 C 0.14308 0.56792 0.22314 0.0
C980 C 0.15566 0.55383 0.21211 0.0
N981 N 0.20693 0.5035 0.18911 0.0
C982 C 0.23778 0.48192 0.18543 0.0
C983 C 0.23242 0.47623 0.16563 0.0
C984 C 0.2138 0.48379 0.15803 0.0
C985 C 0.2013 0.49719 0.17003 0.0
C986 C 0.22491 0.49555 0.19681 0.0
H987 H 0.18729 0.50242 0.16342 0.0
H988 H 0.23002 0.49968 0.21163 0.0
H989 H 0.19219 0.54584 0.24645 0.0
H990 H 0.15064 0.54986 0.19726 0.0
C991 C 0.15649 0.52661 0.1672 0.0
C992 C 0.22254 0.56263 0.17547 0.0
C993 C 0.15931 0.48375 0.23214 0.0
C994 C 0.22333 0.52271 0.2423 0.0
H995 H 0.20378 0.57562 0.13725 0.0
H996 H 0.16749 0.55613 0.13267 0.0
H997 H 0.1215 0.49793 0.17388 0.0
H998 H 0.12318 0.4746 0.20947 0.0
H999 H 0.17846 0.47035 0.26994 0.0
H1000 H 0.21345 0.49168 0.2758 0.0
H1001 H 0.25822 0.5516 0.23562 0.0
H1002 H 0.25763 0.57329 0.19884 0.0
H1003 H 0.17111 0.56979 0.2663 0.0
H1004 H 0.12905 0.57382 0.21634 0.0
H1005 H 0.25213 0.47636 0.19185 0.0
H1006 H 0.20892 0.4794 0.14287 0.0
C1007 C 0.49222 0.19392 0.22112 0.0
C1008 C 0.4848 0.20345 0.23933 0.0
C1009 C 0.49594 0.22189 0.23964 0.0
C1010 C 0.50949 0.22255 0.22172 0.0
N1011 N 0.50749 0.20581 0.20976 0.0
Co1012 Co 0.52492 0.1999 0.18306 0.0
N1013 N 0.54236 0.22629 0.18441 0.0
C1014 C 0.54042 0.24055 0.19945 0.0
C1015 C 0.55428 0.2573 0.19597 0.0
C1016 C 0.56559 0.25374 0.17741 0.0
C1017 C 0.55786 0.23496 0.1706 0.0
N1018 N 0.54254 0.19388 0.1565 0.0
C1019 C 0.55816 0.20555 0.14539 0.0
C1020 C 0.56586 0.19578 0.12742 0.0
C1021 C 0.55464 0.17737 0.12709 0.0
C1022 C 0.54075 0.17693 0.14475 0.0
N1023 N 0.50729 0.17364 0.18159 0.0
C1024 C 0.50884 0.15967 0.16628 0.0
C1025 C 0.49495 0.14292 0.16984 0.0
C1026 C 0.48403 0.14624 0.1887 0.0
C1027 C 0.49199 0.16487 0.19559 0.0
N1028 N 0.5048 0.2161 0.16569 0.0
C1029 C 0.4773 0.23948 0.14012 0.0
C1030 C 0.48479 0.21979 0.13456 0.0
C1031 C 0.49832 0.20856 0.14736 0.0
C1032 C 0.48387 0.24714 0.15891 0.0
C1033 C 0.49738 0.23532 0.17133 0.0
N1034 N 0.54502 0.18362 0.20035 0.0
C1035 C 0.56378 0.15138 0.20801 0.0
C1036 C 0.57223 0.1595 0.22571 0.0
C1037 C 0.56677 0.18017 0.23025 0.0
C1038 C 0.55325 0.19174 0.21761 0.0
C1039 C 0.5506 0.16356 0.19566 0.0
H1040 H 0.54961 0.20723 0.22218 0.0
H1041 H 0.54493 0.15626 0.18245 0.0
H1042 H 0.50347 0.19384 0.14192 0.0
H1043 H 0.50169 0.2421 0.18542 0.0
C1044 C 0.52497 0.23808 0.21629 0.0
C1045 C 0.48507 0.17311 0.21591 0.0
C1046 C 0.56542 0.22636 0.15062 0.0
C1047 C 0.52477 0.16174 0.14979 0.0
H1048 H 0.47293 0.19744 0.25141 0.0
H1049 H 0.49474 0.23319 0.25179 0.0
H1050 H 0.55573 0.27069 0.20559 0.0
H1051 H 0.57794 0.26396 0.16961 0.0
H1052 H 0.57796 0.20161 0.1155 0.0
H1053 H 0.55597 0.16598 0.11502 0.0
H1054 H 0.49344 0.12953 0.16023 0.0
H1055 H 0.47192 0.1359 0.19675 0.0
H1056 H 0.48059 0.21312 0.1201 0.0
H1057 H 0.47842 0.26213 0.16423 0.0
H1058 H 0.56693 0.13544 0.20373 0.0
H1059 H 0.57299 0.18761 0.24343 0.0
C1060 C 0.84169 0.87626 0.50124 0.0
C1061 C 0.8491 0.89643 0.49492 0.0
C1062 C 0.86782 0.89908 0.50371 0.0
C1063 C 0.87089 0.88042 0.51477 0.0
N1064 N 0.85522 0.86598 0.51367 0.0
Co1065 Co 0.85405 0.83649 0.52699 0.0
N1066 N 0.88131 0.84069 0.54052 0.0
C1067 C 0.89308 0.85866 0.53957 0.0
C1068 C 0.91056 0.85725 0.55088 0.0
C1069 C 0.90994 0.83719 0.5597 0.0
C1070 C 0.89211 0.82739 0.55313 0.0
N1071 N 0.85322 0.80678 0.53972 0.0
C1072 C 0.86687 0.79644 0.55197 0.0
C1073 C 0.86042 0.77567 0.55672 0.0
C1074 C 0.84202 0.77281 0.54738 0.0
C1075 C 0.83831 0.79186 0.53736 0.0
N1076 N 0.82642 0.83253 0.51402 0.0
C1077 C 0.81391 0.81502 0.51617 0.0
C1078 C 0.79568 0.81694 0.50606 0.0
C1079 C 0.79649 0.8369 0.49696 0.0
C1080 C 0.81531 0.84605 0.50194 0.0
N1081 N 0.86971 0.82671 0.5013 0.0
C1082 C 0.89257 0.81132 0.46594 0.0
C1083 C 0.87308 0.80237 0.47349 0.0
C1084 C 0.86201 0.81024 0.49101 0.0
C1085 C 0.90021 0.82852 0.47595 0.0
C1086 C 0.88858 0.83592 0.4935 0.0
N1087 N 0.83837 0.8462 0.55269 0.0
C1088 C 0.81034 0.84113 0.58055 0.0
C1089 C 0.8143 0.86107 0.58761 0.0
C1090 C 0.83105 0.87312 0.5774 0.0
C1091 C 0.84288 0.86536 0.56023 0.0
C1092 C 0.82241 0.8341 0.56317 0.0
H1093 H 0.85534 0.87534 0.55309 0.0
H1094 H 0.81829 0.81894 0.55839 0.0
H1095 H 0.84734 0.8026 0.49598 0.0
H1096 H 0.89531 0.84892 0.50061 0.0
C1097 C 0.88773 0.87634 0.52721 0.0
C1098 C 0.82175 0.86767 0.4949 0.0
C1099 C 0.88609 0.8055 0.55949 0.0
C1100 C 0.82034 0.79664 0.52675 0.0
H1101 H 0.84169 0.90807 0.48502 0.0
H1102 H 0.87791 0.91303 0.50236 0.0
H1103 H 0.92242 0.86934 0.55244 0.0
H1104 H 0.92135 0.83054 0.56984 0.0
H1105 H 0.86816 0.76381 0.56606 0.0
H1106 H 0.83234 0.75861 0.54807 0.0
H1107 H 0.78337 0.80514 0.50522 0.0
H1108 H 0.7846 0.84392 0.48764 0.0
H1109 H 0.86635 0.78926 0.46593 0.0
H1110 H 0.91531 0.83592 0.47061 0.0
H1111 H 0.79778 0.83105 0.58821 0.0
H1112 H 0.83463 0.88878 0.58213 0.0
C1113 C 0.16388 0.79931 0.54975 0.0
C1114 C 0.17173 0.77967 0.55517 0.0
C1115 C 0.19084 0.77831 0.54402 0.0
C1116 C 0.1936 0.79712 0.5325 0.0
N1117 N 0.17752 0.81055 0.53575 0.0
Co1118 Co 0.17492 0.83934 0.52168 0.0
N1119 N 0.20295 0.83718 0.50503 0.0
C1120 C 0.21649 0.82102 0.50614 0.0
C1121 C 0.2349 0.82429 0.49359 0.0
C1122 C 0.23316 0.84378 0.48394 0.0
C1123 C 0.21361 0.85126 0.4911 0.0
N1124 N 0.17202 0.86789 0.50713 0.0
C1125 C 0.18535 0.87886 0.49261 0.0
C1126 C 0.17693 0.89796 0.48623 0.0
C1127 C 0.15775 0.89925 0.49729 0.0
C1128 C 0.15547 0.8809 0.50964 0.0
N1129 N 0.14715 0.84176 0.53878 0.0
C1130 C 0.13422 0.85846 0.53865 0.0
C1131 C 0.11628 0.85558 0.55202 0.0
C1132 C 0.11778 0.83586 0.56124 0.0
C1133 C 0.13665 0.8278 0.55295 0.0
N1134 N 0.18942 0.85222 0.5445 0.0
C1135 C 0.21104 0.87168 0.5754 0.0
C1136 C 0.19369 0.88115 0.56698 0.0
C1137 C 0.1831 0.87116 0.55181 0.0
C1138 C 0.21713 0.85207 0.56857 0.0
C1139 C 0.20624 0.84273 0.55313 0.0
N1140 N 0.1604 0.8265 0.49889 0.0
C1141 C 0.13038 0.82452 0.47791 0.0
C1142 C 0.13883 0.80732 0.46772 0.0
C1143 C 0.15844 0.80007 0.47315 0.0
C1144 C 0.16889 0.80984 0.48863 0.0
C1145 C 0.14135 0.83381 0.49325 0.0
H1146 H 0.18373 0.80354 0.49214 0.0
H1147 H 0.13393 0.84671 0.50049 0.0
H1148 H 0.16996 0.8792 0.54612 0.0
H1149 H 0.2119 0.82797 0.54826 0.0
C1150 C 0.21132 0.80282 0.51887 0.0
C1151 C 0.14347 0.80653 0.55843 0.0
C1152 C 0.20614 0.87202 0.48455 0.0
C1153 C 0.1386 0.87598 0.52467 0.0
H1154 H 0.1644 0.76756 0.5661 0.0
H1155 H 0.20147 0.7652 0.5443 0.0
H1156 H 0.24808 0.81379 0.49174 0.0
H1157 H 0.24504 0.85164 0.473 0.0
H1158 H 0.18402 0.90984 0.47489 0.0
H1159 H 0.14691 0.91218 0.49666 0.0
H1160 H 0.10339 0.86635 0.55438 0.0
H1161 H 0.10609 0.82813 0.5725 0.0
H1162 H 0.18827 0.89625 0.57209 0.0
H1163 H 0.23059 0.84424 0.57468 0.0
H1164 H 0.11509 0.83054 0.47446 0.0
H1165 H 0.16574 0.78693 0.46547 0.0
C1166 C 0.15659 0.18078 0.55195 0.0
C1167 C 0.13845 0.17086 0.5616 0.0
C1168 C 0.13974 0.15003 0.55738 0.0
C1169 C 0.15848 0.14833 0.54534 0.0
N1170 N 0.16906 0.1668 0.5415 0.0
Co1171 Co 0.19696 0.17075 0.52464 0.0
N1172 N 0.19497 0.14268 0.51208 0.0
C1173 C 0.18124 0.12709 0.51928 0.0
C1174 C 0.18372 0.10911 0.50846 0.0
C1175 C 0.20027 0.11343 0.49365 0.0
C1176 C 0.20702 0.13393 0.49619 0.0
N1177 N 0.22496 0.1747 0.50795 0.0
C1178 C 0.23453 0.16338 0.49236 0.0
C1179 C 0.25425 0.17203 0.48552 0.0
C1180 C 0.25745 0.18876 0.49762 0.0
C1181 C 0.23952 0.18962 0.51103 0.0
N1182 N 0.19884 0.19881 0.53722 0.0
C1183 C 0.21656 0.2107 0.53711 0.0
C1184 C 0.21348 0.22914 0.54706 0.0
C1185 C 0.1925 0.22885 0.55404 0.0
C1186 C 0.18388 0.2102 0.54791 0.0
N1187 N 0.21106 0.15786 0.54825 0.0
C1188 C 0.23184 0.13956 0.58164 0.0
C1189 C 0.23721 0.13445 0.5608 0.0
C1190 C 0.22666 0.14369 0.54442 0.0
C1191 C 0.21573 0.15393 0.58552 0.0
C1192 C 0.20559 0.16297 0.56858 0.0
N1193 N 0.18294 0.18367 0.50118 0.0
C1194 C 0.1802 0.21254 0.47562 0.0
C1195 C 0.16084 0.20447 0.4703 0.0
C1196 C 0.15313 0.18538 0.48012 0.0
C1197 C 0.16452 0.17513 0.4954 0.0
C1198 C 0.19095 0.20194 0.49114 0.0
H1199 H 0.15814 0.16059 0.50289 0.0
H1200 H 0.20543 0.2089 0.49542 0.0
H1201 H 0.23121 0.13925 0.52868 0.0
H1202 H 0.19338 0.17411 0.57199 0.0
C1203 C 0.16517 0.13052 0.53497 0.0
C1204 C 0.16196 0.20313 0.55429 0.0
C1205 C 0.22652 0.14331 0.48505 0.0
C1206 C 0.2349 0.20538 0.5251 0.0
H1207 H 0.12565 0.1779 0.57083 0.0
H1208 H 0.12808 0.13772 0.562 0.0
H1209 H 0.17455 0.0946 0.51098 0.0
H1210 H 0.20701 0.10246 0.48271 0.0
H1211 H 0.26539 0.16657 0.47335 0.0
H1212 H 0.27112 0.19925 0.49653 0.0
H1213 H 0.22497 0.24158 0.54859 0.0
H1214 H 0.18452 0.24086 0.56288 0.0
H1215 H 0.2493 0.12309 0.55715 0.0
H1216 H 0.21114 0.1583 0.60145 0.0
H1217 H 0.18658 0.22737 0.46847 0.0
H1218 H 0.13829 0.17857 0.47623 0.0
C1219 C 0.80931 0.16307 0.48942 0.0
C1220 C 0.78801 0.16802 0.48963 0.0
C1221 C 0.78419 0.1823 0.50465 0.0
C1222 C 0.80306 0.18506 0.5132 0.0
N1223 N 0.81879 0.17363 0.50443 0.0
Co1224 Co 0.847 0.17026 0.51613 0.0
N1225 N 0.84317 0.19509 0.53394 0.0
C1226 C 0.82478 0.20467 0.53847 0.0
C1227 C 0.82676 0.22179 0.55042 0.0
C1228 C 0.84774 0.22304 0.55384 0.0
C1229 C 0.8574 0.20637 0.54396 0.0
N1230 N 0.87495 0.16673 0.52821 0.0
C1231 C 0.88639 0.18004 0.53919 0.0
C1232 C 0.90486 0.17073 0.54496 0.0
C1233 C 0.90505 0.15105 0.53726 0.0
C1234 C 0.8867 0.14934 0.52734 0.0
N1235 N 0.85104 0.14559 0.49815 0.0
C1236 C 0.86664 0.13157 0.49944 0.0
C1237 C 0.86748 0.11795 0.48343 0.0
C1238 C 0.85107 0.1233 0.47162 0.0
C1239 C 0.84049 0.13948 0.48151 0.0
N1240 N 0.86041 0.1887 0.49306 0.0
C1241 C 0.88203 0.21645 0.46263 0.0
C1242 C 0.89024 0.19677 0.46802 0.0
C1243 C 0.87924 0.18322 0.48315 0.0
C1244 C 0.8624 0.22172 0.47244 0.0
C1245 C 0.8518 0.20758 0.48752 0.0
N1246 N 0.83368 0.15179 0.53937 0.0
C1247 C 0.8088 0.12397 0.55147 0.0
C1248 C 0.81224 0.12715 0.57257 0.0
C1249 C 0.82725 0.14246 0.57669 0.0
C1250 C 0.83778 0.15459 0.55989 0.0
C1251 C 0.81966 0.13631 0.53521 0.0
H1252 H 0.849 0.16644 0.56358 0.0
H1253 H 0.81641 0.13338 0.51928 0.0
H1254 H 0.88639 0.16852 0.48719 0.0
H1255 H 0.83688 0.21211 0.49501 0.0
C1256 C 0.80672 0.19882 0.52895 0.0
C1257 C 0.81919 0.14661 0.47641 0.0
C1258 C 0.87969 0.20091 0.54574 0.0
C1259 C 0.88197 0.1336 0.51389 0.0
H1260 H 0.77596 0.16141 0.48073 0.0
H1261 H 0.76928 0.18948 0.5091 0.0
H1262 H 0.81454 0.2325 0.55547 0.0
H1263 H 0.85499 0.23483 0.56271 0.0
H1264 H 0.91693 0.17743 0.55384 0.0
H1265 H 0.9175 0.13969 0.53805 0.0
H1266 H 0.87908 0.10602 0.48028 0.0
H1267 H 0.84721 0.11579 0.45751 0.0
H1268 H 0.90547 0.19209 0.46114 0.0
H1269 H 0.85533 0.23668 0.46861 0.0
H1270 H 0.79772 0.11198 0.54749 0.0
H1271 H 0.83045 0.14545 0.59277 0.0
C1272 C 0.2343 0.12462 0.45089 0.0
C1273 C 0.24052 0.13013 0.47065 0.0
C1274 C 0.24706 0.11195 0.43754 0.0
C1275 C 0.2667 0.10446 0.44394 0.0
C1276 C 0.27296 0.10996 0.46396 0.0
C1277 C 0.25983 0.12252 0.47702 0.0
C1278 C 0.23948 0.10653 0.41654 0.0
C1279 C 0.29361 0.10255 0.47165 0.0
C1280 C 0.29217 0.05631 0.41834 0.0
C1281 C 0.30749 0.06561 0.40344 0.0
C1282 C 0.27877 0.06865 0.4314 0.0
C1283 C 0.28068 0.09099 0.42976 0.0
C1284 C 0.29623 0.10039 0.41468 0.0
C1285 C 0.30934 0.08767 0.40177 0.0
C1286 C 0.26254 0.05773 0.44706 0.0
C1287 C 0.29913 0.12399 0.41224 0.0
H1288 H 0.21936 0.13023 0.44587 0.0
H1289 H 0.26466 0.12638 0.49237 0.0
H1290 H 0.2511 0.11239 0.4035 0.0
H1291 H 0.23823 0.08919 0.41576 0.0
H1292 H 0.22387 0.11337 0.41383 0.0
H1293 H 0.2964 0.10828 0.48744 0.0
H1294 H 0.29381 0.0851 0.47264 0.0
H1295 H 0.30689 0.10811 0.46021 0.0
H1296 H 0.29067 0.03929 0.41977 0.0
H1297 H 0.32119 0.09497 0.39035 0.0
H1298 H 0.24653 0.06331 0.44406 0.0
H1299 H 0.26554 0.06171 0.46336 0.0
H1300 H 0.26269 0.04034 0.44622 0.0
H1301 H 0.28414 0.13133 0.40814 0.0
H1302 H 0.31177 0.12895 0.39981 0.0
H1303 H 0.30315 0.13016 0.42746 0.0
C1304 C 0.97415 0.28683 0.40284 0.0
C1305 C 0.96872 0.29867 0.38493 0.0
C1306 C 0.95905 0.27397 0.41494 0.0
C1307 C 0.93803 0.27303 0.40895 0.0
C1308 C 0.93251 0.28509 0.39083 0.0
C1309 C 0.94798 0.29778 0.37899 0.0
C1310 C 0.96562 0.26133 0.43407 0.0
C1311 C 0.91029 0.28457 0.38397 0.0
C1312 C 0.90583 0.22436 0.42959 0.0
C1313 C 0.89453 0.23154 0.4476 0.0
C1314 C 0.91956 0.23785 0.41653 0.0
C1315 C 0.92202 0.25911 0.4215 0.0
C1316 C 0.91002 0.2667 0.43915 0.0
C1317 C 0.89644 0.25282 0.452 0.0
C1318 C 0.93199 0.22915 0.39782 0.0
C1319 C 0.91214 0.28928 0.44493 0.0
H1320 H 0.99026 0.28764 0.40732 0.0
H1321 H 0.94391 0.30707 0.36512 0.0
H1322 H 0.95588 0.26554 0.44843 0.0
H1323 H 0.96288 0.24431 0.43215 0.0
H1324 H 0.98254 0.26395 0.43666 0.0
H1325 H 0.90852 0.29507 0.36969 0.0
H1326 H 0.9058 0.26828 0.3805 0.0
H1327 H 0.89903 0.28941 0.39697 0.0
H1328 H 0.90419 0.20803 0.42588 0.0
H1329 H 0.88794 0.25847 0.46599 0.0
H1330 H 0.9491 0.22981 0.40022 0.0
H1331 H 0.92965 0.23888 0.38318 0.0
H1332 H 0.9274 0.2126 0.3954 0.0
H1333 H 0.9283 0.2923 0.44969 0.0
H1334 H 0.90058 0.29312 0.45815 0.0
H1335 H 0.90985 0.30011 0.43104 0.0
C1336 C 0.79613 0.89717 0.49011 0.0
C1337 C 0.80809 0.88098 0.4814 0.0
C1338 C 0.78372 0.91022 0.47751 0.0
C1339 C 0.78332 0.90718 0.45555 0.0
C1340 C 0.79529 0.89066 0.44677 0.0
C1341 C 0.80744 0.87776 0.45978 0.0
C1342 C 0.77122 0.92744 0.4877 0.0
C1343 C 0.79557 0.88684 0.42351 0.0
C1344 C 0.73832 0.93132 0.42559 0.0
C1345 C 0.74762 0.95022 0.41651 0.0
C1346 C 0.74969 0.91716 0.43817 0.0
C1347 C 0.77104 0.92176 0.44169 0.0
C1348 C 0.78062 0.94059 0.4322 0.0
C1349 C 0.76887 0.95451 0.41987 0.0
C1350 C 0.73871 0.89742 0.44803 0.0
C1351 C 0.80335 0.94615 0.43519 0.0
H1352 H 0.7966 0.89969 0.50681 0.0
H1353 H 0.81671 0.86529 0.45301 0.0
H1354 H 0.77696 0.94301 0.48062 0.0
H1355 H 0.75432 0.92581 0.48466 0.0
H1356 H 0.77246 0.92723 0.50507 0.0
H1357 H 0.80518 0.87306 0.41919 0.0
H1358 H 0.77924 0.8842 0.41904 0.0
H1359 H 0.80211 0.90095 0.41403 0.0
H1360 H 0.72192 0.92784 0.42333 0.0
H1361 H 0.77642 0.96883 0.41271 0.0
H1362 H 0.73832 0.89754 0.46552 0.0
H1363 H 0.74762 0.88337 0.44323 0.0
H1364 H 0.72227 0.89579 0.44344 0.0
H1365 H 0.80537 0.94776 0.45223 0.0
H1366 H 0.8087 0.96107 0.42635 0.0
H1367 H 0.81377 0.93334 0.42981 0.0
C1368 C 0.11582 0.80857 0.43742 0.0
C1369 C 0.12684 0.7967 0.45207 0.0
C1370 C 0.10315 0.79875 0.4236 0.0
C1371 C 0.10156 0.77652 0.42439 0.0
C1372 C 0.11312 0.76442 0.4387 0.0
C1373 C 0.12561 0.77467 0.45241 0.0
C1374 C 0.09106 0.81215 0.40851 0.0
C1375 C 0.11183 0.74067 0.43995 0.0
C1376 C 0.05234 0.7513 0.40589 0.0
C1377 C 0.05955 0.74536 0.38569 0.0
C1378 C 0.06584 0.76157 0.41859 0.0
C1379 C 0.08707 0.76595 0.41091 0.0
C1380 C 0.09441 0.76014 0.39046 0.0
C1381 C 0.08052 0.74994 0.37805 0.0
C1382 C 0.05741 0.76769 0.44026 0.0
C1383 C 0.11697 0.76447 0.38182 0.0
H1384 H 0.11699 0.8256 0.43686 0.0
H1385 H 0.13389 0.76541 0.46386 0.0
H1386 H 0.09482 0.80763 0.39203 0.0
H1387 H 0.07384 0.80946 0.41225 0.0
H1388 H 0.09466 0.82921 0.4093 0.0
H1389 H 0.12277 0.73358 0.45105 0.0
H1390 H 0.09548 0.73532 0.44529 0.0
H1391 H 0.11562 0.73461 0.42407 0.0
H1392 H 0.03605 0.74801 0.4117 0.0
H1393 H 0.08618 0.74515 0.36252 0.0
H1394 H 0.05938 0.78491 0.44152 0.0
H1395 H 0.06653 0.75984 0.45256 0.0
H1396 H 0.04043 0.76335 0.44376 0.0
H1397 H 0.1207 0.78156 0.38173 0.0
H1398 H 0.1201 0.7592 0.3655 0.0
H1399 H 0.1279 0.75629 0.39219 0.0
C1400 C 0.22951 0.90364 0.58625 0.0
C1401 C 0.22306 0.88262 0.59069 0.0
C1402 C 0.241 0.91435 0.60041 0.0
C1403 C 0.24592 0.90383 0.61958 0.0
C1404 C 0.23934 0.88261 0.62422 0.0
C1405 C 0.2281 0.87217 0.60959 0.0
C1406 C 0.24804 0.93687 0.59475 0.0
C1407 C 0.24408 0.87103 0.64464 0.0
C1408 C 0.29206 0.92731 0.64512 0.0
C1409 C 0.28181 0.94055 0.65944 0.0
C1410 C 0.28053 0.91471 0.63253 0.0
C1411 C 0.25821 0.91511 0.63454 0.0
C1412 C 0.24773 0.92759 0.64971 0.0
C1413 C 0.25966 0.94028 0.66191 0.0
C1414 C 0.29227 0.90167 0.61643 0.0
C1415 C 0.22393 0.92823 0.65243 0.0
H1416 H 0.22582 0.91161 0.5715 0.0
H1417 H 0.22296 0.85595 0.61305 0.0
H1418 H 0.24143 0.94726 0.60699 0.0
H1419 H 0.2655 0.93826 0.59436 0.0
H1420 H 0.24302 0.9427 0.57914 0.0
H1421 H 0.23757 0.85467 0.64598 0.0
H1422 H 0.2614 0.87047 0.64579 0.0
H1423 H 0.23735 0.87955 0.65831 0.0
H1424 H 0.30916 0.92708 0.64347 0.0
H1425 H 0.25161 0.95058 0.67279 0.0
H1426 H 0.28915 0.90764 0.60024 0.0
H1427 H 0.28659 0.88506 0.61832 0.0
H1428 H 0.30961 0.9021 0.61777 0.0
H1429 H 0.21786 0.93596 0.63809 0.0
H1430 H 0.21824 0.93699 0.66636 0.0
H1431 H 0.21708 0.91203 0.65428 0.0
C1432 C 0.09884 0.28743 0.62677 0.0
C1433 C 0.07726 0.28219 0.63072 0.0
C1434 C 0.1127 0.27491 0.61438 0.0
C1435 C 0.10498 0.25655 0.60549 0.0
C1436 C 0.08314 0.25124 0.60947 0.0
C1437 C 0.06967 0.264 0.622 0.0
C1438 C 0.13572 0.28132 0.61086 0.0
C1439 C 0.07395 0.23201 0.60044 0.0
C1440 C 0.13703 0.23386 0.55791 0.0
C1441 C 0.1473 0.21684 0.56738 0.0
C1442 C 0.12328 0.24677 0.56999 0.0
C1443 C 0.1197 0.24285 0.59227 0.0
C1444 C 0.13027 0.22575 0.60188 0.0
C1445 C 0.14384 0.21305 0.58941 0.0
C1446 C 0.11249 0.26464 0.55885 0.0
C1447 C 0.12727 0.22085 0.62545 0.0
H1448 H 0.10491 0.30137 0.63349 0.0
H1449 H 0.05305 0.2598 0.62493 0.0
H1450 H 0.14564 0.26854 0.61702 0.0
H1451 H 0.14028 0.28382 0.59367 0.0
H1452 H 0.13935 0.29597 0.61873 0.0
H1453 H 0.05671 0.23005 0.60472 0.0
H1454 H 0.07674 0.23308 0.58294 0.0
H1455 H 0.08196 0.21772 0.60629 0.0
H1456 H 0.13968 0.237 0.54095 0.0
H1457 H 0.15186 0.20009 0.59691 0.0
H1458 H 0.11684 0.27978 0.56538 0.0
H1459 H 0.0951 0.26259 0.56166 0.0
H1460 H 0.11675 0.26566 0.54151 0.0
H1461 H 0.13203 0.23471 0.63395 0.0
H1462 H 0.13661 0.20715 0.63061 0.0
H1463 H 0.11034 0.21746 0.63026 0.0
C1464 C 0.80969 0.10609 0.60745 0.0
C1465 C 0.79987 0.11474 0.59001 0.0
C1466 C 0.79814 0.09365 0.6235 0.0
C1467 C 0.77626 0.08988 0.62212 0.0
C1468 C 0.76621 0.09893 0.60476 0.0
C1469 C 0.77812 0.11121 0.58895 0.0
C1470 C 0.80941 0.08422 0.64172 0.0
C1471 C 0.74289 0.09545 0.60277 0.0
C1472 C 0.74807 0.04182 0.65002 0.0
C1473 C 0.73718 0.05063 0.66728 0.0
C1474 C 0.76145 0.0543 0.63558 0.0
C1475 C 0.76383 0.0761 0.63848 0.0
C1476 C 0.7532 0.08491 0.65628 0.0
C1477 C 0.73996 0.07202 0.6705 0.0
C1478 C 0.77249 0.04428 0.61685 0.0
C1479 C 0.75525 0.10806 0.6599 0.0
H1480 H 0.8265 0.10863 0.60829 0.0
H1481 H 0.77036 0.11815 0.57572 0.0
H1482 H 0.80159 0.08884 0.65696 0.0
H1483 H 0.80848 0.06679 0.6418 0.0
H1484 H 0.82631 0.08922 0.64086 0.0
H1485 H 0.73738 0.10398 0.58854 0.0
H1486 H 0.73938 0.07842 0.60184 0.0
H1487 H 0.73365 0.10076 0.61699 0.0
H1488 H 0.74576 0.02523 0.64764 0.0
H1489 H 0.73137 0.07872 0.68388 0.0
H1490 H 0.78969 0.04791 0.61594 0.0
H1491 H 0.76643 0.05088 0.60201 0.0
H1492 H 0.77011 0.02692 0.61766 0.0
H1493 H 0.77215 0.11283 0.65965 0.0
H1494 H 0.7471 0.11216 0.67521 0.0
H1495 H 0.74838 0.11739 0.64693 0.0
C1496 C 0.96587 0.74992 0.63834 0.0
C1497 C 0.96385 0.72784 0.63886 0.0
C1498 C 0.95326 0.76298 0.62594 0.0
C1499 C 0.93819 0.75392 0.61358 0.0
C1500 C 0.93591 0.7317 0.61421 0.0
C1501 C 0.94862 0.71903 0.62681 0.0
C1502 C 0.95627 0.78655 0.62586 0.0
C1503 C 0.92009 0.72123 0.60142 0.0
C1504 C 0.89246 0.78683 0.59451 0.0
C1505 C 0.89954 0.79245 0.57345 0.0
C1506 C 0.9049 0.77455 0.60777 0.0
C1507 C 0.92496 0.76757 0.59982 0.0
C1508 C 0.93215 0.7733 0.5785 0.0
C1509 C 0.9194 0.78566 0.56563 0.0
C1510 C 0.89653 0.76897 0.63031 0.0
C1511 C 0.95328 0.76622 0.56921 0.0
H1512 H 0.97765 0.75705 0.64729 0.0
H1513 H 0.9465 0.70209 0.62727 0.0
H1514 H 0.9614 0.79293 0.60963 0.0
H1515 H 0.94106 0.79396 0.63061 0.0
H1516 H 0.96819 0.79123 0.63672 0.0
H1517 H 0.92012 0.7038 0.60365 0.0
H1518 H 0.90397 0.72674 0.60595 0.0
H1519 H 0.92365 0.72569 0.58435 0.0
H1520 H 0.87714 0.7921 0.6006 0.0
H1521 H 0.9249 0.78995 0.54935 0.0
H1522 H 0.90779 0.77458 0.64138 0.0
H1523 H 0.89504 0.75163 0.63299 0.0
H1524 H 0.88088 0.77593 0.63425 0.0
H1525 H 0.96603 0.77174 0.57868 0.0
H1526 H 0.95676 0.77221 0.55252 0.0
H1527 H 0.95363 0.74878 0.56987 0.0
C1528 C 0.38995 0.30637 0.07941 0.0
C1529 C 0.39598 0.30968 0.05773 0.0
C1530 C 0.40286 0.29521 0.09313 0.0
C1531 C 0.4224 0.28713 0.08507 0.0
C1532 C 0.42855 0.29052 0.06314 0.0
C1533 C 0.41528 0.30167 0.04979 0.0
C1534 C 0.39554 0.29203 0.11628 0.0
C1535 C 0.44915 0.2823 0.05374 0.0
C1536 C 0.46499 0.27384 0.12328 0.0
C1537 C 0.46294 0.25182 0.12637 0.0
C1538 C 0.45196 0.28547 0.11003 0.0
C1539 C 0.43629 0.27498 0.09949 0.0
C1540 C 0.43402 0.2528 0.10267 0.0
C1541 C 0.44728 0.24157 0.11596 0.0
C1542 C 0.4551 0.30903 0.10714 0.0
C1543 C 0.41753 0.24087 0.09196 0.0
H1544 H 0.37507 0.31257 0.08563 0.0
H1545 H 0.41999 0.30414 0.03304 0.0
H1546 H 0.39422 0.27497 0.12089 0.0
H1547 H 0.40733 0.29897 0.12603 0.0
H1548 H 0.38001 0.29928 0.12012 0.0
H1549 H 0.45182 0.28643 0.0365 0.0
H1550 H 0.4625 0.2888 0.06179 0.0
H1551 H 0.44936 0.26492 0.0563 0.0
H1552 H 0.47712 0.28203 0.13091 0.0
H1553 H 0.44518 0.22467 0.11837 0.0
H1554 H 0.44018 0.31696 0.11186 0.0
H1555 H 0.45928 0.3136 0.09019 0.0
H1556 H 0.46774 0.31492 0.11657 0.0
H1557 H 0.4016 0.24686 0.09652 0.0
H1558 H 0.41759 0.22369 0.09611 0.0
H1559 H 0.42031 0.24343 0.07453 0.0
C1560 C 0.80296 0.4462 0.15366 0.0
C1561 C 0.80436 0.46761 0.14743 0.0
C1562 C 0.7918 0.43215 0.14218 0.0
C1563 C 0.782 0.43984 0.12409 0.0
C1564 C 0.78352 0.46153 0.11776 0.0
C1565 C 0.79471 0.4752 0.12957 0.0
C1566 C 0.79047 0.40913 0.14938 0.0
C1567 C 0.77332 0.47029 0.09853 0.0
C1568 C 0.76873 0.40308 0.08187 0.0
C1569 C 0.74686 0.40023 0.08622 0.0
C1570 C 0.78049 0.41553 0.09443 0.0
C1571 C 0.7701 0.42529 0.11172 0.0
C1572 C 0.74814 0.42196 0.11657 0.0
C1573 C 0.73676 0.40947 0.10373 0.0
C1574 C 0.8039 0.4188 0.08876 0.0
C1575 C 0.73657 0.43205 0.13498 0.0
H1576 H 0.8106 0.44052 0.1675 0.0
H1577 H 0.79597 0.49184 0.1249 0.0
H1578 H 0.7737 0.40406 0.15272 0.0
H1579 H 0.79733 0.39951 0.13661 0.0
H1580 H 0.79893 0.40574 0.16382 0.0
H1581 H 0.77611 0.48753 0.09572 0.0
H1582 H 0.77959 0.46238 0.08427 0.0
H1583 H 0.75603 0.46711 0.10047 0.0
H1584 H 0.77655 0.39617 0.0682 0.0
H1585 H 0.7199 0.40707 0.10728 0.0
H1586 H 0.81285 0.41477 0.1027 0.0
H1587 H 0.80733 0.43562 0.08405 0.0
H1588 H 0.80978 0.40915 0.07556 0.0
H1589 H 0.74422 0.42808 0.14977 0.0
H1590 H 0.71969 0.42698 0.13728 0.0
H1591 H 0.73738 0.44942 0.1323 0.0
C1592 C 0.61736 0.74454 0.10283 0.0
C1593 C 0.63102 0.75342 0.08599 0.0
C1594 C 0.60566 0.75716 0.11709 0.0
C1595 C 0.6074 0.77946 0.11476 0.0
C1596 C 0.62111 0.78855 0.09783 0.0
C1597 C 0.63264 0.77557 0.0838 0.0
C1598 C 0.59143 0.74655 0.1348 0.0
C1599 C 0.62357 0.81214 0.09447 0.0
C1600 C 0.56299 0.81272 0.14039 0.0
C1601 C 0.57144 0.81884 0.15898 0.0
C1602 C 0.57441 0.80005 0.12597 0.0
C1603 C 0.59499 0.79319 0.13001 0.0
C1604 C 0.60363 0.79949 0.14874 0.0
C1605 C 0.59186 0.8122 0.16285 0.0
C1606 C 0.56438 0.79394 0.10637 0.0
C1607 C 0.62539 0.79276 0.15391 0.0
H1608 H 0.61602 0.72758 0.10515 0.0
H1609 H 0.64275 0.78288 0.07083 0.0
H1610 H 0.59644 0.75115 0.15029 0.0
H1611 H 0.57496 0.75182 0.13371 0.0
H1612 H 0.59159 0.72912 0.1345 0.0
H1613 H 0.63482 0.8169 0.08069 0.0
H1614 H 0.60803 0.81916 0.09192 0.0
H1615 H 0.62926 0.81886 0.1088 0.0
H1616 H 0.54728 0.8178 0.13719 0.0
H1617 H 0.59865 0.817 0.17702 0.0
H1618 H 0.56307 0.77655 0.10622 0.0
H1619 H 0.57448 0.79951 0.09205 0.0
H1620 H 0.54839 0.80058 0.10535 0.0
H1621 H 0.62605 0.77534 0.15507 0.0
H1622 H 0.62992 0.79885 0.16903 0.0
H1623 H 0.63723 0.79846 0.14102 0.0
C1624 C 0.25582 0.56781 0.15191 0.0
C1625 C 0.23772 0.57638 0.16179 0.0
C1626 C 0.26991 0.5804 0.13827 0.0
C1627 C 0.26572 0.60202 0.13448 0.0
C1628 C 0.24755 0.61076 0.14475 0.0
C1629 C 0.23376 0.5978 0.15835 0.0
C1630 C 0.2891 0.5705 0.12767 0.0
C1631 C 0.24251 0.63371 0.14114 0.0
C1632 C 0.31055 0.63922 0.1123 0.0
C1633 C 0.30684 0.64106 0.09085 0.0
C1634 C 0.29737 0.62646 0.1267 0.0
C1635 C 0.28006 0.61541 0.1194 0.0
C1636 C 0.27633 0.61728 0.09766 0.0
C1637 C 0.28979 0.63011 0.08363 0.0
C1638 C 0.30187 0.62488 0.14972 0.0
C1639 C 0.25806 0.6058 0.08924 0.0
H1640 H 0.25876 0.55119 0.15468 0.0
H1641 H 0.21972 0.60431 0.16612 0.0
H1642 H 0.28839 0.57181 0.11024 0.0
H1643 H 0.30365 0.579 0.1313 0.0
H1644 H 0.2904 0.55362 0.13276 0.0
H1645 H 0.22802 0.63815 0.15069 0.0
H1646 H 0.25591 0.64371 0.14519 0.0
H1647 H 0.24027 0.63726 0.12417 0.0
H1648 H 0.32374 0.64785 0.11776 0.0
H1649 H 0.287 0.63168 0.06699 0.0
H1650 H 0.30423 0.60821 0.15489 0.0
H1651 H 0.28815 0.6305 0.15961 0.0
H1652 H 0.31611 0.63424 0.15278 0.0
H1653 H 0.25932 0.58861 0.09267 0.0
H1654 H 0.25742 0.60883 0.07191 0.0
H1655 H 0.24295 0.61072 0.09731 0.0
C1656 C 0.40221 0.74379 0.98403 0.0
C1657 C 0.39215 0.72604 0.97705 0.0
C1658 C 0.41489 0.7572 0.96984 0.0
C1659 C 0.4175 0.75271 0.94818 0.0
C1660 C 0.40734 0.73471 0.94112 0.0
C1661 C 0.39472 0.72158 0.95569 0.0
C1662 C 0.42543 0.77622 0.97799 0.0
C1663 C 0.40972 0.72939 0.91819 0.0
C1664 C 0.43435 0.79791 0.90847 0.0
C1665 C 0.45603 0.79458 0.905 0.0
C1666 C 0.42156 0.78429 0.92236 0.0
C1667 C 0.43075 0.76694 0.93293 0.0
C1668 C 0.45267 0.76343 0.92919 0.0
C1669 C 0.46507 0.77733 0.91523 0.0
C1670 C 0.39828 0.78856 0.92591 0.0
C1671 C 0.46305 0.74513 0.94011 0.0
H1672 H 0.40007 0.74715 1.00061 0.0
H1673 H 0.38678 0.70784 0.95042 0.0
H1674 H 0.4428 0.77553 0.9746 0.0
H1675 H 0.42012 0.79077 0.96971 0.0
H1676 H 0.42189 0.77742 0.99529 0.0
H1677 H 0.40096 0.71471 0.91532 0.0
H1678 H 0.40384 0.74247 0.90812 0.0
H1679 H 0.42665 0.72748 0.91308 0.0
H1680 H 0.42749 0.81129 0.90041 0.0
H1681 H 0.48188 0.77487 0.91241 0.0
H1682 H 0.39418 0.79126 0.94284 0.0
H1683 H 0.38887 0.77468 0.92199 0.0
H1684 H 0.39355 0.8025 0.91621 0.0
H1685 H 0.46115 0.74645 0.95751 0.0
H1686 H 0.48017 0.74436 0.93513 0.0
H1687 H 0.45526 0.73013 0.93664 0.0
C1688 C 0.28347 0.40059 0.97097 0.0
C1689 C 0.30153 0.39086 0.96223 0.0
C1690 C 0.27022 0.41237 0.95812 0.0
C1691 C 0.27508 0.41459 0.93588 0.0
C1692 C 0.29333 0.40471 0.92701 0.0
C1693 C 0.30627 0.39298 0.94025 0.0
C1694 C 0.25101 0.42252 0.96837 0.0
C1695 C 0.29926 0.40658 0.90349 0.0
C1696 C 0.23119 0.42967 0.89985 0.0
C1697 C 0.23502 0.4513 0.89552 0.0
C1698 C 0.24397 0.4176 0.91296 0.0
C1699 C 0.26118 0.4273 0.92195 0.0
C1700 C 0.26513 0.44918 0.9175 0.0
C1701 C 0.25205 0.46085 0.90437 0.0
C1702 C 0.23908 0.39441 0.91715 0.0
C1703 C 0.28322 0.46028 0.92659 0.0
H1704 H 0.27978 0.39903 0.98795 0.0
H1705 H 0.3202 0.38547 0.93342 0.0
H1706 H 0.25207 0.43982 0.96507 0.0
H1707 H 0.23656 0.41681 0.96154 0.0
H1708 H 0.24924 0.41917 0.98578 0.0
H1709 H 0.31388 0.39798 0.89902 0.0
H1710 H 0.28621 0.40029 0.89488 0.0
H1711 H 0.30169 0.42339 0.89813 0.0
H1712 H 0.21816 0.42218 0.89288 0.0
H1713 H 0.25512 0.47755 0.901 0.0
H1714 H 0.23614 0.3907 0.93442 0.0
H1715 H 0.25284 0.38514 0.91152 0.0
H1716 H 0.22506 0.38924 0.90921 0.0
H1717 H 0.28142 0.45853 0.94412 0.0
H1718 H 0.28421 0.47731 0.9217 0.0
H1719 H 0.29836 0.45296 0.92139 0.0
C1720 C 0.59518 0.23994 0.90588 0.0
C1721 C 0.5826 0.24989 0.89126 0.0
C1722 C 0.60855 0.25163 0.91753 0.0
C1723 C 0.60957 0.27379 0.91427 0.0
C1724 C 0.59747 0.28391 0.89905 0.0
C1725 C 0.58403 0.27184 0.88779 0.0
C1726 C 0.62116 0.24031 0.93372 0.0
C1727 C 0.59831 0.30753 0.89507 0.0
C1728 C 0.62547 0.30499 0.95974 0.0
C1729 C 0.64687 0.30934 0.95387 0.0
C1730 C 0.61313 0.29351 0.94691 0.0
C1731 C 0.62241 0.28643 0.92765 0.0
C1732 C 0.64397 0.291 0.92149 0.0
C1733 C 0.65602 0.30231 0.9348 0.0
C1734 C 0.59026 0.28866 0.95414 0.0
C1735 C 0.65428 0.28389 0.90093 0.0
H1736 H 0.59449 0.22295 0.90833 0.0
H1737 H 0.57421 0.27966 0.87667 0.0
H1738 H 0.63819 0.24436 0.93054 0.0
H1739 H 0.61619 0.24546 0.94974 0.0
H1740 H 0.6191 0.22294 0.93383 0.0
H1741 H 0.58915 0.3128 0.8816 0.0
H1742 H 0.59184 0.31512 0.90943 0.0
H1743 H 0.61492 0.31315 0.89172 0.0
H1744 H 0.61848 0.31021 0.97465 0.0
H1745 H 0.67256 0.30582 0.93022 0.0
H1746 H 0.58754 0.27137 0.95592 0.0
H1747 H 0.57989 0.29488 0.94208 0.0
H1748 H 0.58544 0.2955 0.96946 0.0
H1749 H 0.65367 0.26647 0.90094 0.0
H1750 H 0.67104 0.2893 0.89817 0.0
H1751 H 0.64553 0.28999 0.8875 0.0
C1752 C 0.74214 0.61362 0.96933 0.0
C1753 C 0.73824 0.63456 0.96262 0.0
C1754 C 0.75437 0.60015 0.95638 0.0
C1755 C 0.76286 0.60743 0.93586 0.0
C1756 C 0.75879 0.62848 0.9289 0.0
C1757 C 0.74679 0.64172 0.9423 0.0
C1758 C 0.75844 0.57809 0.96484 0.0
C1759 C 0.76707 0.63705 0.90715 0.0
C1760 C 0.81091 0.57977 0.90941 0.0
C1761 C 0.80177 0.56602 0.89581 0.0
C1762 C 0.79856 0.59304 0.92244 0.0
C1763 C 0.77627 0.59322 0.92189 0.0
C1764 C 0.76689 0.57971 0.908 0.0
C1765 C 0.77959 0.56631 0.89537 0.0
C1766 C 0.80949 0.6069 0.93696 0.0
C1767 C 0.7433 0.57934 0.90652 0.0
H1768 H 0.73596 0.60781 0.98499 0.0
H1769 H 0.74379 0.65768 0.93666 0.0
H1770 H 0.75244 0.56649 0.95424 0.0
H1771 H 0.77569 0.57578 0.96519 0.0
H1772 H 0.75082 0.57469 0.98105 0.0
H1773 H 0.76216 0.65349 0.90377 0.0
H1774 H 0.78457 0.63664 0.90563 0.0
H1775 H 0.7613 0.62704 0.89496 0.0
H1776 H 0.82791 0.5804 0.90983 0.0
H1777 H 0.77196 0.55578 0.88538 0.0
H1778 H 0.80304 0.60346 0.95356 0.0
H1779 H 0.8064 0.62367 0.93286 0.0
H1780 H 0.82684 0.60467 0.93603 0.0
H1781 H 0.73519 0.57415 0.92209 0.0
H1782 H 0.73838 0.56864 0.89447 0.0
H1783 H 0.73784 0.59542 0.90244 0.0
C1784 C 0.0712 0.40281 0.28689 0.0
C1785 C 0.07906 0.39028 0.30318 0.0
C1786 C 0.08429 0.4177 0.27483 0.0
C1787 C 0.10571 0.42007 0.27925 0.0
C1788 C 0.11374 0.40715 0.29555 0.0
C1789 C 0.10029 0.39234 0.30731 0.0
C1790 C 0.07515 0.4311 0.25756 0.0
C1791 C 0.13644 0.40918 0.30075 0.0
C1792 C 0.14455 0.44695 0.23717 0.0
C1793 C 0.14573 0.46732 0.24429 0.0
C1794 C 0.13156 0.43138 0.24837 0.0
C1795 C 0.11958 0.43637 0.26715 0.0
C1796 C 0.12084 0.45699 0.27439 0.0
C1797 C 0.1339 0.47225 0.26282 0.0
C1798 C 0.13062 0.40963 0.24011 0.0
C1799 C 0.10836 0.46294 0.29432 0.0
H1800 H 0.05473 0.40108 0.2838 0.0
H1801 H 0.10625 0.38252 0.31992 0.0
H1802 H 0.07614 0.44793 0.26115 0.0
H1803 H 0.08445 0.42936 0.24225 0.0
H1804 H 0.05838 0.42687 0.25572 0.0
H1805 H 0.14032 0.39766 0.3136 0.0
H1806 H 0.14718 0.40679 0.28649 0.0
H1807 H 0.13963 0.42529 0.30572 0.0
H1808 H 0.15377 0.44327 0.22279 0.0
H1809 H 0.13487 0.48808 0.2682 0.0
H1810 H 0.11414 0.40551 0.23706 0.0
H1811 H 0.1356 0.39785 0.25218 0.0
H1812 H 0.14087 0.40832 0.22527 0.0
H1813 H 0.09123 0.4605 0.29278 0.0
H1814 H 0.11122 0.47959 0.29787 0.0
H1815 H 0.11259 0.45265 0.30797 0.0
C1816 C 0.13549 0.54189 0.79735 0.0
C1817 C 0.15108 0.55137 0.80831 0.0
C1818 C 0.12275 0.554 0.78424 0.0
C1819 C 0.1255 0.57622 0.78211 0.0
C1820 C 0.14127 0.58582 0.79327 0.0
C1821 C 0.15388 0.57329 0.80615 0.0
C1822 C 0.10631 0.54297 0.77266 0.0
C1823 C 0.14474 0.60937 0.79171 0.0
C1824 C 0.10457 0.60659 0.73431 0.0
C1825 C 0.08511 0.61393 0.7428 0.0
C1826 C 0.11781 0.59437 0.74683 0.0
C1827 C 0.11167 0.5894 0.76854 0.0
C1828 C 0.09217 0.59696 0.77725 0.0
C1829 C 0.0792 0.609 0.76435 0.0
C1830 C 0.13831 0.58658 0.73675 0.0
C1831 C 0.08498 0.59234 0.80028 0.0
H1832 H 0.13332 0.52494 0.79901 0.0
H1833 H 0.16591 0.58064 0.81466 0.0
H1834 H 0.09037 0.54863 0.77771 0.0
H1835 H 0.10907 0.54677 0.75539 0.0
H1836 H 0.10643 0.52561 0.77558 0.0
H1837 H 0.15764 0.61443 0.80127 0.0
H1838 H 0.14869 0.6149 0.77498 0.0
H1839 H 0.13 0.61722 0.79721 0.0
H1840 H 0.10931 0.61003 0.7177 0.0
H1841 H 0.06442 0.6148 0.77128 0.0
H1842 H 0.13834 0.56912 0.7381 0.0
H1843 H 0.15175 0.59226 0.74521 0.0
H1844 H 0.14097 0.59187 0.71977 0.0
H1845 H 0.0835 0.57508 0.80376 0.0
H1846 H 0.06956 0.59951 0.80476 0.0
H1847 H 0.09693 0.59838 0.81041 0.0
C1848 C 0.40126 0.08565 0.7383 0.0
C1849 C 0.38777 0.07138 0.75069 0.0
C1850 C 0.41466 0.09943 0.74767 0.0
C1851 C 0.41432 0.09919 0.76998 0.0
C1852 C 0.4002 0.08541 0.78262 0.0
C1853 C 0.38718 0.07155 0.77282 0.0
C1854 C 0.4296 0.11384 0.73368 0.0
C1855 C 0.39926 0.08492 0.80648 0.0
C1856 C 0.46363 0.11765 0.79401 0.0
C1857 C 0.45846 0.13827 0.7987 0.0
C1858 C 0.4494 0.10478 0.78458 0.0
C1859 C 0.42944 0.11268 0.78004 0.0
C1860 C 0.42409 0.13348 0.78486 0.0
C1861 C 0.43878 0.14611 0.794 0.0
C1862 C 0.45578 0.08279 0.77934 0.0
C1863 C 0.40283 0.14229 0.78051 0.0
H1864 H 0.40148 0.08594 0.72121 0.0
H1865 H 0.37697 0.06045 0.78251 0.0
H1866 H 0.42719 0.13043 0.73762 0.0
H1867 H 0.44617 0.11002 0.73653 0.0
H1868 H 0.42749 0.11248 0.7166 0.0
H1869 H 0.38634 0.07442 0.81399 0.0
H1870 H 0.41447 0.07933 0.81198 0.0
H1871 H 0.39691 0.10099 0.81205 0.0
H1872 H 0.47895 0.11168 0.79751 0.0
H1873 H 0.43474 0.16201 0.79786 0.0
H1874 H 0.45514 0.08088 0.76214 0.0
H1875 H 0.44453 0.07109 0.78776 0.0
H1876 H 0.47196 0.07913 0.78375 0.0
H1877 H 0.40058 0.14212 0.76337 0.0
H1878 H 0.40104 0.15867 0.78549 0.0
H1879 H 0.39006 0.13228 0.78899 0.0
C1880 C 0.90825 0.41877 0.7855 0.0
C1881 C 0.91412 0.44025 0.78613 0.0
C1882 C 0.92008 0.40466 0.77291 0.0
C1883 C 0.93802 0.41196 0.75963 0.0
C1884 C 0.94396 0.43352 0.75986 0.0
C1885 C 0.93239 0.4471 0.77325 0.0
C1886 C 0.91331 0.38177 0.77389 0.0
C1887 C 0.96255 0.44241 0.74572 0.0
C1888 C 0.98072 0.3741 0.73845 0.0
C1889 C 0.97459 0.37016 0.71819 0.0
C1890 C 0.9688 0.38708 0.75219 0.0
C1891 C 0.95047 0.3972 0.74545 0.0
C1892 C 0.94426 0.39333 0.72495 0.0
C1893 C 0.95601 0.37959 0.7119 0.0
C1894 C 0.9758 0.38988 0.77404 0.0
C1895 C 0.92535 0.40403 0.71658 0.0
H1896 H 0.89421 0.41273 0.79469 0.0
H1897 H 0.93802 0.46317 0.77352 0.0
H1898 H 0.90801 0.37762 0.75839 0.0
H1899 H 0.92688 0.37165 0.77719 0.0
H1900 H 0.90024 0.37805 0.78626 0.0
H1901 H 0.96444 0.45971 0.74659 0.0
H1902 H 0.97729 0.4349 0.75026 0.0
H1903 H 0.96062 0.43887 0.72905 0.0
H1904 H 0.99492 0.36689 0.74363 0.0
H1905 H 0.95075 0.3764 0.69654 0.0
H1906 H 0.96253 0.38599 0.78611 0.0
H1907 H 0.98046 0.40654 0.77562 0.0
H1908 H 0.98938 0.37982 0.77754 0.0
H1909 H 0.91084 0.39916 0.72663 0.0
H1910 H 0.92312 0.40029 0.70001 0.0
H1911 H 0.92718 0.42135 0.71725 0.0
C1912 C 0.62348 0.96248 0.77447 0.0
C1913 C 0.6359 0.95543 0.7572 0.0
C1914 C 0.60908 0.94878 0.78649 0.0
C1915 C 0.60713 0.92759 0.78102 0.0
C1916 C 0.61981 0.92043 0.76359 0.0
C1917 C 0.63406 0.93449 0.75185 0.0
C1918 C 0.59584 0.95702 0.80492 0.0
C1919 C 0.61822 0.89798 0.75728 0.0
C1920 C 0.58297 0.88766 0.82317 0.0
C1921 C 0.56221 0.886 0.81742 0.0
C1922 C 0.59783 0.90102 0.81136 0.0
C1923 C 0.59169 0.91297 0.79343 0.0
C1924 C 0.57071 0.91115 0.78752 0.0
C1925 C 0.5562 0.89764 0.79962 0.0
C1926 C 0.62004 0.9025 0.81814 0.0
C1927 C 0.56355 0.92362 0.76855 0.0
H1928 H 0.62497 0.97876 0.77844 0.0
H1929 H 0.64374 0.9292 0.73841 0.0
H1930 H 0.57883 0.95531 0.80236 0.0
H1931 H 0.59856 0.94765 0.81968 0.0
H1932 H 0.59944 0.97384 0.80722 0.0
H1933 H 0.62935 0.89486 0.74347 0.0
H1934 H 0.62157 0.88702 0.77074 0.0
H1935 H 0.60191 0.89439 0.75325 0.0
H1936 H 0.58747 0.87857 0.837 0.0
H1937 H 0.54006 0.89628 0.79533 0.0
H1938 H 0.62373 0.91891 0.82189 0.0
H1939 H 0.63152 0.89839 0.80501 0.0
H1940 H 0.62235 0.89192 0.83224 0.0
H1941 H 0.56538 0.9407 0.77073 0.0
H1942 H 0.54679 0.92015 0.7659 0.0
H1943 H 0.57357 0.92009 0.75413 0.0
C1944 C 0.92011 0.63694 0.28669 0.0
C1945 C 0.93903 0.64601 0.27723 0.0
C1946 C 0.90735 0.62427 0.27533 0.0
C1947 C 0.91369 0.62065 0.254 0.0
C1948 C 0.93249 0.63018 0.24419 0.0
C1949 C 0.94496 0.64277 0.25594 0.0
C1950 C 0.88735 0.61439 0.28628 0.0
C1951 C 0.93971 0.62662 0.22145 0.0
C1952 C 0.89354 0.57077 0.23189 0.0
C1953 C 0.87722 0.57847 0.2203 0.0
C1954 C 0.90558 0.58439 0.24296 0.0
C1955 C 0.90109 0.60613 0.24226 0.0
C1956 C 0.88456 0.61392 0.23048 0.0
C1957 C 0.87274 0.5999 0.21959 0.0
C1958 C 0.92305 0.57552 0.25539 0.0
C1959 C 0.87939 0.637 0.22938 0.0
H1960 H 0.91533 0.63967 0.30306 0.0
H1961 H 0.95969 0.64958 0.24864 0.0
H1962 H 0.87363 0.61854 0.2772 0.0
H1963 H 0.88851 0.597 0.28691 0.0
H1964 H 0.88425 0.61948 0.30267 0.0
H1965 H 0.95413 0.63605 0.21586 0.0
H1966 H 0.94312 0.60972 0.21976 0.0
H1967 H 0.927 0.63072 0.21101 0.0
H1968 H 0.89683 0.55409 0.23224 0.0
H1969 H 0.86006 0.60561 0.21047 0.0
H1970 H 0.9201 0.57891 0.27231 0.0
H1971 H 0.93836 0.5832 0.24955 0.0
H1972 H 0.92448 0.55824 0.25423 0.0
H1973 H 0.8752 0.64224 0.24552 0.0
H1974 H 0.86607 0.64048 0.21946 0.0
H1975 H 0.89345 0.64643 0.22276 0.0
C1976 C 0.38944 0.95115 0.30407 0.0
C1977 C 0.39756 0.96594 0.31717 0.0
C1978 C 0.40274 0.93961 0.29011 0.0
C1979 C 0.42512 0.94029 0.29112 0.0
C1980 C 0.4333 0.95399 0.30569 0.0
C1981 C 0.41971 0.96752 0.31712 0.0
C1982 C 0.39225 0.92725 0.27407 0.0
C1983 C 0.45637 0.95466 0.30983 0.0
C1984 C 0.45163 0.89288 0.26446 0.0
C1985 C 0.46828 0.90227 0.25107 0.0
C1986 C 0.43861 0.90466 0.27841 0.0
C1987 C 0.43983 0.92711 0.27706 0.0
C1988 C 0.45552 0.93678 0.26216 0.0
C1989 C 0.47022 0.92436 0.25069 0.0
C1990 C 0.42397 0.89247 0.29472 0.0
C1991 C 0.45705 0.9603 0.25759 0.0
H1992 H 0.37247 0.94918 0.304 0.0
H1993 H 0.4267 0.97919 0.32636 0.0
H1994 H 0.40336 0.92273 0.26082 0.0
H1995 H 0.38456 0.91289 0.28211 0.0
H1996 H 0.37952 0.93663 0.26732 0.0
H1997 H 0.45801 0.95542 0.32707 0.0
H1998 H 0.46511 0.94082 0.30424 0.0
H1999 H 0.46388 0.96925 0.3021 0.0
H2000 H 0.44902 0.87601 0.26458 0.0
H2001 H 0.48303 0.9322 0.24087 0.0
H2002 H 0.41035 0.88618 0.28693 0.0
H2003 H 0.41811 0.90201 0.30797 0.0
H2004 H 0.4322 0.87867 0.30144 0.0
H2005 H 0.45978 0.96394 0.24027 0.0
H2006 H 0.47096 0.96667 0.26486 0.0
H2007 H 0.44269 0.96859 0.26339 0.0
C2008 C 0.62861 0.0752 0.30183 0.0
C2009 C 0.64972 0.08044 0.30479 0.0
C2010 C 0.6164 0.08802 0.28884 0.0
C2011 C 0.62525 0.10691 0.27869 0.0
C2012 C 0.64656 0.11231 0.28164 0.0
C2013 C 0.65855 0.09896 0.29442 0.0
C2014 C 0.59398 0.08127 0.28591 0.0
C2015 C 0.65663 0.13239 0.27151 0.0
C2016 C 0.59957 0.1311 0.23044 0.0
C2017 C 0.58635 0.14645 0.23926 0.0
C2018 C 0.61222 0.11825 0.24298 0.0
C2019 C 0.61219 0.12089 0.26501 0.0
C2020 C 0.59929 0.13661 0.274 0.0
C2021 C 0.58648 0.14897 0.26116 0.0
C2022 C 0.62546 0.10161 0.23262 0.0
C2023 C 0.59886 0.14025 0.29732 0.0
H2024 H 0.62166 0.06082 0.30951 0.0
H2025 H 0.67475 0.10329 0.2967 0.0
H2026 H 0.58287 0.09333 0.29171 0.0
H2027 H 0.59193 0.07991 0.26883 0.0
H2028 H 0.58954 0.06594 0.29444 0.0
H2029 H 0.67323 0.13451 0.27546 0.0
H2030 H 0.65637 0.13242 0.25406 0.0
H2031 H 0.64745 0.14609 0.27681 0.0
H2032 H 0.60021 0.12909 0.21358 0.0
H2033 H 0.57625 0.1604 0.26849 0.0
H2034 H 0.62093 0.08587 0.24013 0.0
H2035 H 0.64237 0.10439 0.23498 0.0
H2036 H 0.62365 0.10134 0.21538 0.0
H2037 H 0.59256 0.12598 0.30667 0.0
H2038 H 0.58895 0.15379 0.30175 0.0
H2039 H 0.61512 0.14318 0.30184 0.0
C2040 C 0.73788 0.91333 0.67688 0.0
C2041 C 0.7326 0.93271 0.66734 0.0
C2042 C 0.75079 0.89937 0.6657 0.0
C2043 C 0.75873 0.90519 0.64472 0.0
C2044 C 0.75333 0.92471 0.63503 0.0
C2045 C 0.74022 0.9382 0.64646 0.0
C2046 C 0.75602 0.87851 0.67633 0.0
C2047 C 0.7617 0.93154 0.61273 0.0
C2048 C 0.80848 0.88275 0.61919 0.0
C2049 C 0.80021 0.8699 0.60446 0.0
C2050 C 0.79509 0.89353 0.63327 0.0
C2051 C 0.77296 0.89115 0.63274 0.0
C2052 C 0.76453 0.87713 0.61892 0.0
C2053 C 0.77827 0.86678 0.60481 0.0
C2054 C 0.80462 0.90844 0.64778 0.0
C2055 C 0.74099 0.87406 0.61809 0.0
H2056 H 0.73186 0.90911 0.69303 0.0
H2057 H 0.73636 0.95334 0.63923 0.0
H2058 H 0.75127 0.86545 0.66671 0.0
H2059 H 0.77332 0.87753 0.67743 0.0
H2060 H 0.74802 0.87612 0.6925 0.0
H2061 H 0.75594 0.94725 0.60757 0.0
H2062 H 0.77922 0.93218 0.61163 0.0
H2063 H 0.75687 0.91993 0.60154 0.0
H2064 H 0.82543 0.88486 0.61929 0.0
H2065 H 0.77172 0.85705 0.59335 0.0
H2066 H 0.79753 0.90558 0.66423 0.0
H2067 H 0.80113 0.92488 0.64266 0.0
H2068 H 0.82203 0.90692 0.64775 0.0
H2069 H 0.73314 0.87149 0.63428 0.0
H2070 H 0.73707 0.86052 0.60869 0.0
H2071 H 0.7343 0.88845 0.61079 0.0
C2072 C 0.11933 0.77498 0.56468 0.0
C2073 C 0.1296 0.79201 0.57279 0.0
C2074 C 0.10701 0.76053 0.57813 0.0
C2075 C 0.10497 0.76323 0.60021 0.0
C2076 C 0.11513 0.78065 0.60838 0.0
C2077 C 0.12738 0.79484 0.59454 0.0
C2078 C 0.09647 0.74219 0.56877 0.0
C2079 C 0.11338 0.7841 0.63178 0.0
C2080 C 0.05974 0.73484 0.63384 0.0
C2081 C 0.06992 0.71734 0.64227 0.0
C2082 C 0.07091 0.74992 0.62007 0.0
C2083 C 0.09281 0.74743 0.6148 0.0
C2084 C 0.10314 0.72978 0.62351 0.0
C2085 C 0.09157 0.71499 0.63721 0.0
C2086 C 0.05932 0.7685 0.61119 0.0
C2087 C 0.12644 0.72655 0.61837 0.0
H2088 H 0.12117 0.77287 0.54781 0.0
H2089 H 0.13546 0.80802 0.60072 0.0
H2090 H 0.10269 0.7272 0.57527 0.0
H2091 H 0.07922 0.74205 0.57323 0.0
H2092 H 0.09906 0.74272 0.55124 0.0
H2093 H 0.12161 0.79881 0.6355 0.0
H2094 H 0.09653 0.78484 0.63772 0.0
H2095 H 0.12028 0.77064 0.64051 0.0
H2096 H 0.04301 0.73667 0.63802 0.0
H2097 H 0.09942 0.70156 0.64408 0.0
H2098 H 0.06073 0.76879 0.59365 0.0
H2099 H 0.06657 0.78336 0.61581 0.0
H2100 H 0.0423 0.76811 0.6168 0.0
H2101 H 0.12983 0.72569 0.60104 0.0
H2102 H 0.13206 0.71195 0.62635 0.0
H2103 H 0.13565 0.74015 0.62329 0.0
C2104 C 0.26476 0.12713 0.59685 0.0
C2105 C 0.24279 0.12933 0.59908 0.0
C2106 C 0.27516 0.1151 0.61181 0.0
C2107 C 0.26326 0.10509 0.62942 0.0
C2108 C 0.24124 0.10821 0.63238 0.0
C2109 C 0.23122 0.12034 0.61712 0.0
C2110 C 0.2987 0.11223 0.60819 0.0
C2111 C 0.2281 0.09781 0.65102 0.0
C2112 C 0.28607 0.05447 0.65083 0.0
C2113 C 0.2958 0.06128 0.66828 0.0
C2114 C 0.27497 0.06853 0.63833 0.0
C2115 C 0.27364 0.08985 0.64354 0.0
C2116 C 0.28315 0.09667 0.66149 0.0
C2117 C 0.29422 0.08223 0.67368 0.0
C2118 C 0.26509 0.06069 0.61927 0.0
C2119 C 0.28201 0.11927 0.66749 0.0
H2120 H 0.27376 0.13439 0.58307 0.0
H2121 H 0.21422 0.12195 0.61881 0.0
H2122 H 0.30663 0.11576 0.62258 0.0
H2123 H 0.30194 0.0956 0.6049 0.0
H2124 H 0.30585 0.12246 0.59468 0.0
H2125 H 0.21169 0.10367 0.65229 0.0
H2126 H 0.22744 0.08055 0.64937 0.0
H2127 H 0.23541 0.10054 0.66597 0.0
H2128 H 0.28742 0.03816 0.64685 0.0
H2129 H 0.30187 0.08729 0.68727 0.0
H2130 H 0.27255 0.0689 0.60464 0.0
H2131 H 0.24802 0.06428 0.62013 0.0
H2132 H 0.26687 0.04346 0.61794 0.0
H2133 H 0.29042 0.12964 0.65484 0.0
H2134 H 0.28914 0.12171 0.68262 0.0
H2135 H 0.26533 0.12427 0.669 0.0
C2136 C 0.91249 0.22339 0.54875 0.0
C2137 C 0.8938 0.21388 0.55831 0.0
C2138 C 0.92597 0.23537 0.5604 0.0
C2139 C 0.92071 0.23805 0.58225 0.0
C2140 C 0.90189 0.2283 0.59197 0.0
C2141 C 0.88885 0.21622 0.58 0.0
C2142 C 0.94592 0.24514 0.54931 0.0
C2143 C 0.89545 0.23064 0.6151 0.0
C2144 C 0.96384 0.25314 0.61829 0.0
C2145 C 0.96118 0.27493 0.61983 0.0
C2146 C 0.95105 0.2411 0.60601 0.0
C2147 C 0.9349 0.25086 0.59498 0.0
C2148 C 0.93213 0.27284 0.59643 0.0
C2149 C 0.94528 0.28456 0.60866 0.0
C2150 C 0.95488 0.21784 0.60484 0.0
C2151 C 0.91505 0.284 0.58521 0.0
H2152 H 0.91655 0.22144 0.53207 0.0
H2153 H 0.87467 0.20857 0.58762 0.0
H2154 H 0.94572 0.26248 0.55033 0.0
H2155 H 0.95985 0.23938 0.55726 0.0
H2156 H 0.94792 0.24149 0.53237 0.0
H2157 H 0.88017 0.2225 0.62023 0.0
H2158 H 0.90777 0.22411 0.6249 0.0
H2159 H 0.89406 0.24755 0.61826 0.0
H2160 H 0.9762 0.24547 0.6265 0.0
H2161 H 0.94282 0.30127 0.6098 0.0
H2162 H 0.95819 0.21392 0.58811 0.0
H2163 H 0.9405 0.20874 0.61115 0.0
H2164 H 0.96831 0.21262 0.61391 0.0
H2165 H 0.91727 0.28183 0.56797 0.0
H2166 H 0.91493 0.30113 0.58775 0.0
H2167 H 0.89937 0.27704 0.59093 0.0
C2168 C 0.75115 0.09044 0.38911 0.0
C2169 C 0.73801 0.07417 0.39892 0.0
C2170 C 0.76542 0.1018 0.40049 0.0
C2171 C 0.76449 0.09936 0.42302 0.0
C2172 C 0.74952 0.08443 0.43319 0.0
C2173 C 0.7379 0.07114 0.42106 0.0
C2174 C 0.7817 0.11581 0.38779 0.0
C2175 C 0.74524 0.08212 0.45694 0.0
C2176 C 0.8053 0.11238 0.46256 0.0
C2177 C 0.80605 0.13452 0.46172 0.0
C2178 C 0.7936 0.10105 0.44876 0.0
C2179 C 0.77928 0.11167 0.43584 0.0
C2180 C 0.779 0.13408 0.43588 0.0
C2181 C 0.79337 0.14505 0.44748 0.0
C2182 C 0.79711 0.07767 0.44833 0.0
C2183 C 0.7633 0.14699 0.42437 0.0
H2184 H 0.75119 0.09358 0.37216 0.0
H2185 H 0.72846 0.05842 0.4292 0.0
H2186 H 0.77406 0.13039 0.38213 0.0
H2187 H 0.79525 0.12001 0.39683 0.0
H2188 H 0.78793 0.10791 0.37348 0.0
H2189 H 0.75216 0.06729 0.46297 0.0
H2190 H 0.75146 0.09554 0.46517 0.0
H2191 H 0.72794 0.08072 0.46116 0.0
H2192 H 0.81412 0.10361 0.4739 0.0
H2193 H 0.7938 0.1621 0.4462 0.0
H2194 H 0.79109 0.07059 0.43434 0.0
H2195 H 0.78946 0.06968 0.46299 0.0
H2196 H 0.81426 0.07447 0.4483 0.0
H2197 H 0.77143 0.15483 0.40987 0.0
H2198 H 0.75717 0.15968 0.43436 0.0
H2199 H 0.74964 0.13756 0.42002 0.0
C2200 C 0.93422 0.75503 0.36355 0.0
C2201 C 0.95491 0.74826 0.36469 0.0
C2202 C 0.92527 0.76826 0.37857 0.0
C2203 C 0.93741 0.7746 0.395 0.0
C2204 C 0.95883 0.76884 0.39527 0.0
C2205 C 0.96733 0.75559 0.38007 0.0
C2206 C 0.90237 0.77407 0.37781 0.0
C2207 C 0.97227 0.77531 0.4125 0.0
C2208 C 0.9146 0.81524 0.43142 0.0
C2209 C 0.90496 0.80226 0.44809 0.0
C2210 C 0.92556 0.80652 0.41404 0.0
C2211 C 0.92684 0.78439 0.41349 0.0
C2212 C 0.91753 0.77127 0.43052 0.0
C2213 C 0.90674 0.78039 0.44763 0.0
C2214 C 0.9354 0.8209 0.39614 0.0
C2215 C 0.9187 0.74756 0.43056 0.0
H2216 H 0.92476 0.74909 0.35159 0.0
H2217 H 0.98336 0.75009 0.38078 0.0
H2218 H 0.89278 0.76527 0.39087 0.0
H2219 H 0.90036 0.79109 0.3801 0.0
H2220 H 0.89606 0.7703 0.3626 0.0
H2221 H 0.98927 0.77219 0.40868 0.0
H2222 H 0.97046 0.79228 0.4152 0.0
H2223 H 0.967 0.76638 0.42754 0.0
H2224 H 0.91314 0.83217 0.43173 0.0
H2225 H 0.89963 0.77035 0.46071 0.0
H2226 H 0.92772 0.81809 0.38141 0.0
H2227 H 0.9524 0.81742 0.3931 0.0
H2228 H 0.93388 0.83778 0.39948 0.0
H2229 H 0.91101 0.74181 0.4168 0.0
H2230 H 0.9109 0.73968 0.44523 0.0
H2231 H 0.93543 0.74273 0.42897 0.0
C2232 C 0.27035 0.95819 0.4058 0.0
C2233 C 0.29204 0.95408 0.40477 0.0
C2234 C 0.25566 0.94493 0.41807 0.0
C2235 C 0.2628 0.92708 0.42958 0.0
C2236 C 0.28462 0.92261 0.42826 0.0
C2237 C 0.29894 0.93614 0.4159 0.0
C2238 C 0.23254 0.95027 0.41909 0.0
C2239 C 0.29289 0.90368 0.44016 0.0
C2240 C 0.22951 0.90413 0.47816 0.0
C2241 C 0.22008 0.88651 0.47022 0.0
C2242 C 0.24321 0.91763 0.46503 0.0
C2243 C 0.24758 0.91335 0.44346 0.0
C2244 C 0.23782 0.89565 0.43535 0.0
C2245 C 0.22415 0.88245 0.44886 0.0
C2246 C 0.25323 0.93631 0.47431 0.0
C2247 C 0.24204 0.89052 0.4125 0.0
H2248 H 0.26488 0.97214 0.39748 0.0
H2249 H 0.31563 0.93266 0.41496 0.0
H2250 H 0.22308 0.93671 0.41447 0.0
H2251 H 0.22692 0.95347 0.43557 0.0
H2252 H 0.22943 0.96424 0.4086 0.0
H2253 H 0.31023 0.90206 0.43699 0.0
H2254 H 0.28928 0.90495 0.45742 0.0
H2255 H 0.28492 0.88912 0.43573 0.0
H2256 H 0.2263 0.90718 0.49473 0.0
H2257 H 0.21675 0.8688 0.4428 0.0
H2258 H 0.24957 0.95101 0.46524 0.0
H2259 H 0.27066 0.93484 0.47308 0.0
H2260 H 0.24773 0.93778 0.4912 0.0
H2261 H 0.23807 0.90412 0.40196 0.0
H2262 H 0.2328 0.87651 0.40855 0.0
H2263 H 0.25908 0.88749 0.40907 0.0
C2264 C 0.15751 0.22542 0.43635 0.0
C2265 C 0.14817 0.21671 0.45564 0.0
C2266 C 0.14598 0.23836 0.42307 0.0
C2267 C 0.12476 0.24286 0.42947 0.0
C2268 C 0.11517 0.23381 0.4488 0.0
C2269 C 0.12698 0.22072 0.46162 0.0
C2270 C 0.15658 0.24751 0.40241 0.0
C2271 C 0.09264 0.23847 0.45624 0.0
C2272 C 0.10126 0.29308 0.40772 0.0
C2273 C 0.08825 0.28543 0.39288 0.0
C2274 C 0.11341 0.27939 0.4196 0.0
C2275 C 0.11273 0.25759 0.41633 0.0
C2276 C 0.10005 0.24981 0.40105 0.0
C2277 C 0.08784 0.26381 0.3896 0.0
C2278 C 0.12668 0.28822 0.43589 0.0
C2279 C 0.09908 0.22665 0.39706 0.0
H2280 H 0.17388 0.22218 0.43172 0.0
H2281 H 0.11987 0.2142 0.47669 0.0
H2282 H 0.14713 0.24363 0.38911 0.0
H2283 H 0.15746 0.26491 0.40264 0.0
H2284 H 0.17282 0.24159 0.39927 0.0
H2285 H 0.08738 0.2297 0.4714 0.0
H2286 H 0.09109 0.25557 0.45846 0.0
H2287 H 0.08185 0.23435 0.44412 0.0
H2288 H 0.10193 0.3098 0.41009 0.0
H2289 H 0.07759 0.25772 0.3784 0.0
H2290 H 0.14347 0.28411 0.43252 0.0
H2291 H 0.12147 0.28111 0.45183 0.0
H2292 H 0.12564 0.3056 0.4363 0.0
H2293 H 0.11524 0.22074 0.39345 0.0
H2294 H 0.0894 0.22332 0.38375 0.0
H2295 H 0.09223 0.21765 0.4115 0.0
C2296 C 0.62524 0.74066 0.98033 0.0
C2297 C 0.6429 0.73156 0.97022 0.0
C2298 C 0.61143 0.75264 0.96867 0.0
C2299 C 0.61554 0.75553 0.94645 0.0
C2300 C 0.63345 0.74634 0.93621 0.0
C2301 C 0.64692 0.73431 0.94828 0.0
C2302 C 0.59241 0.7621 0.98008 0.0
C2303 C 0.63832 0.74915 0.91256 0.0
C2304 C 0.56981 0.7697 0.91393 0.0
C2305 C 0.57282 0.7915 0.9104 0.0
C2306 C 0.58364 0.75778 0.92564 0.0
C2307 C 0.60091 0.76794 0.93389 0.0
C2308 C 0.60408 0.78994 0.93032 0.0
C2309 C 0.58992 0.8015 0.91865 0.0
C2310 C 0.57969 0.73435 0.92931 0.0
C2311 C 0.62243 0.80124 0.93882 0.0
H2312 H 0.62228 0.73832 0.99736 0.0
H2313 H 0.6606 0.72704 0.94065 0.0
H2314 H 0.59287 0.77945 0.97715 0.0
H2315 H 0.57774 0.75613 0.97389 0.0
H2316 H 0.59157 0.7584 0.99744 0.0
H2317 H 0.6531 0.74128 0.90715 0.0
H2318 H 0.62511 0.74261 0.90434 0.0
H2319 H 0.63988 0.76615 0.90769 0.0
H2320 H 0.55642 0.762 0.90779 0.0
H2321 H 0.59236 0.81833 0.91574 0.0
H2322 H 0.57742 0.73013 0.94654 0.0
H2323 H 0.59361 0.72571 0.92297 0.0
H2324 H 0.56557 0.72888 0.92173 0.0
H2325 H 0.62153 0.79899 0.95632 0.0
H2326 H 0.62276 0.81839 0.93445 0.0
H2327 H 0.63753 0.79449 0.93265 0.0
C2328 C 0.29191 0.63699 0.95461 0.0
C2329 C 0.29917 0.62831 0.9735 0.0
C2330 C 0.28074 0.62465 0.94119 0.0
C2331 C 0.27635 0.60305 0.94679 0.0
C2332 C 0.2835 0.59424 0.96591 0.0
C2333 C 0.29487 0.60687 0.97889 0.0
C2334 C 0.27377 0.63474 0.92089 0.0
C2335 C 0.27899 0.57143 0.97278 0.0
C2336 C 0.23077 0.57558 0.92209 0.0
C2337 C 0.24134 0.56385 0.90647 0.0
C2338 C 0.24189 0.58826 0.93524 0.0
C2339 C 0.26426 0.58969 0.93272 0.0
C2340 C 0.27504 0.57817 0.91684 0.0
C2341 C 0.26355 0.56537 0.90409 0.0
C2342 C 0.22964 0.60008 0.95198 0.0
C2343 C 0.29883 0.57925 0.91337 0.0
H2344 H 0.2953 0.65343 0.9501 0.0
H2345 H 0.30011 0.59999 0.99353 0.0
H2346 H 0.28066 0.62634 0.9072 0.0
H2347 H 0.25634 0.63342 0.9208 0.0
H2348 H 0.27854 0.65162 0.91864 0.0
H2349 H 0.28543 0.56695 0.98813 0.0
H2350 H 0.26168 0.5683 0.97431 0.0
H2351 H 0.28593 0.56116 0.96061 0.0
H2352 H 0.21368 0.57503 0.92401 0.0
H2353 H 0.27212 0.55625 0.89246 0.0
H2354 H 0.23285 0.61723 0.94922 0.0
H2355 H 0.23484 0.59539 0.96782 0.0
H2356 H 0.21233 0.59715 0.9522 0.0
H2357 H 0.30429 0.59585 0.91025 0.0
H2358 H 0.30487 0.57 0.89992 0.0
H2359 H 0.30591 0.57317 0.92787 0.0
C2360 C 0.40382 0.30715 0.91968 0.0
C2361 C 0.39235 0.29834 0.93788 0.0
C2362 C 0.4165 0.2946 0.90663 0.0
C2363 C 0.41772 0.27281 0.91202 0.0
C2364 C 0.40553 0.2637 0.92989 0.0
C2365 C 0.39297 0.2766 0.94263 0.0
C2366 C 0.42923 0.30477 0.88759 0.0
C2367 C 0.40653 0.24051 0.93613 0.0
C2368 C 0.44156 0.23652 0.87167 0.0
C2369 C 0.46209 0.23482 0.87795 0.0
C2370 C 0.42686 0.24903 0.88252 0.0
C2371 C 0.43303 0.25985 0.90001 0.0
C2372 C 0.45384 0.25807 0.90636 0.0
C2373 C 0.46818 0.24553 0.89518 0.0
C2374 C 0.40479 0.2506 0.87539 0.0
C2375 C 0.46093 0.26932 0.92499 0.0
H2376 H 0.40314 0.32392 0.91587 0.0
H2377 H 0.38434 0.26979 0.95683 0.0
H2378 H 0.44631 0.30398 0.89006 0.0
H2379 H 0.42663 0.29616 0.87326 0.0
H2380 H 0.42516 0.32153 0.88461 0.0
H2381 H 0.39475 0.23563 0.94943 0.0
H2382 H 0.40375 0.23099 0.92246 0.0
H2383 H 0.42252 0.2368 0.94098 0.0
H2384 H 0.43708 0.22806 0.85828 0.0
H2385 H 0.48417 0.24402 0.89985 0.0
H2386 H 0.40115 0.26729 0.87154 0.0
H2387 H 0.39314 0.24473 0.88839 0.0
H2388 H 0.40267 0.24144 0.86128 0.0
H2389 H 0.45894 0.28653 0.92238 0.0
H2390 H 0.47771 0.26634 0.92773 0.0
H2391 H 0.45097 0.26415 0.93954 0.0
C2392 C 0.76021 0.40948 0.97292 0.0
C2393 C 0.74226 0.3996 0.96626 0.0
C2394 C 0.77392 0.42169 0.95853 0.0
C2395 C 0.76953 0.42398 0.93698 0.0
C2396 C 0.75119 0.41418 0.9303 0.0
C2397 C 0.73775 0.40208 0.94505 0.0
C2398 C 0.79327 0.43187 0.9663 0.0
C2399 C 0.74596 0.41619 0.90749 0.0
C2400 C 0.79628 0.46897 0.90225 0.0
C2401 C 0.81304 0.45869 0.89186 0.0
C2402 C 0.78198 0.45789 0.91703 0.0
C2403 C 0.7845 0.43602 0.92132 0.0
C2404 C 0.80139 0.4256 0.91064 0.0
C2405 C 0.81544 0.43708 0.89598 0.0
C2406 C 0.7642 0.46957 0.92805 0.0
C2407 C 0.80461 0.40232 0.91468 0.0
H2408 H 0.76359 0.40745 0.98938 0.0
H2409 H 0.72383 0.39432 0.94002 0.0
H2410 H 0.80771 0.42555 0.95817 0.0
H2411 H 0.79339 0.44908 0.96241 0.0
H2412 H 0.79404 0.42914 0.98366 0.0
H2413 H 0.73076 0.40818 0.905 0.0
H2414 H 0.74502 0.43303 0.90222 0.0
H2415 H 0.7587 0.40928 0.89727 0.0
H2416 H 0.79444 0.48569 0.89881 0.0
H2417 H 0.82833 0.42919 0.88766 0.0
H2418 H 0.76524 0.46804 0.94543 0.0
H2419 H 0.74878 0.46256 0.92476 0.0
H2420 H 0.76445 0.48656 0.92296 0.0
H2421 H 0.8068 0.39879 0.93167 0.0
H2422 H 0.81852 0.39661 0.90509 0.0
H2423 H 0.79037 0.39336 0.91095 0.0
C2424 C 0.64053 0.29111 0.06087 0.0
C2425 C 0.65037 0.30794 0.06978 0.0
C2426 C 0.62671 0.27717 0.07335 0.0
C2427 C 0.6227 0.28019 0.09524 0.0
C2428 C 0.63275 0.29718 0.10427 0.0
C2429 C 0.64652 0.31084 0.09141 0.0
C2430 C 0.61635 0.25927 0.06311 0.0
C2431 C 0.6289 0.30096 0.12751 0.0
C2432 C 0.57238 0.25712 0.12468 0.0
C2433 C 0.57993 0.23933 0.1354 0.0
C2434 C 0.58607 0.27039 0.11132 0.0
C2435 C 0.60783 0.26573 0.10868 0.0
C2436 C 0.61544 0.24754 0.11929 0.0
C2437 C 0.60137 0.23457 0.1326 0.0
C2438 C 0.57732 0.2896 0.10033 0.0
C2439 C 0.63849 0.24201 0.1169 0.0
H2440 H 0.64364 0.28894 0.0441 0.0
H2441 H 0.65428 0.32385 0.09822 0.0
H2442 H 0.62035 0.24403 0.07101 0.0
H2443 H 0.59893 0.26063 0.06507 0.0
H2444 H 0.62131 0.25898 0.04596 0.0
H2445 H 0.638 0.31481 0.13209 0.0
H2446 H 0.61185 0.30352 0.13151 0.0
H2447 H 0.63335 0.2869 0.13716 0.0
H2448 H 0.55577 0.26077 0.12703 0.0
H2449 H 0.60713 0.22085 0.14108 0.0
H2450 H 0.58103 0.28934 0.08298 0.0
H2451 H 0.58489 0.30402 0.1056 0.0
H2452 H 0.55994 0.29067 0.10358 0.0
H2453 H 0.6437 0.24076 0.09993 0.0
H2454 H 0.64173 0.22695 0.12562 0.0
H2455 H 0.64818 0.2547 0.12289 0.0
C2456 C 0.79596 0.6046 0.12323 0.0
C2457 C 0.78617 0.58735 0.13497 0.0
C2458 C 0.78407 0.61903 0.11194 0.0
C2459 C 0.76192 0.61605 0.11243 0.0
C2460 C 0.75192 0.59879 0.12443 0.0
C2461 C 0.76419 0.58462 0.13557 0.0
C2462 C 0.79521 0.63733 0.09934 0.0
C2463 C 0.72831 0.59512 0.12521 0.0
C2464 C 0.72787 0.66183 0.09706 0.0
C2465 C 0.72428 0.65743 0.07631 0.0
C2466 C 0.74036 0.64857 0.10902 0.0
C2467 C 0.74924 0.6306 0.09987 0.0
C2468 C 0.74568 0.62626 0.07879 0.0
C2469 C 0.73316 0.6398 0.06723 0.0
C2470 C 0.74387 0.65363 0.13145 0.0
C2471 C 0.75489 0.60723 0.06855 0.0
H2472 H 0.81293 0.60688 0.12299 0.0
H2473 H 0.75663 0.57115 0.14445 0.0
H2474 H 0.79265 0.6364 0.08232 0.0
H2475 H 0.78851 0.65238 0.10448 0.0
H2476 H 0.81248 0.63768 0.10107 0.0
H2477 H 0.72294 0.58128 0.1358 0.0
H2478 H 0.71997 0.6092 0.1308 0.0
H2479 H 0.72354 0.59257 0.10908 0.0
H2480 H 0.72077 0.67553 0.10389 0.0
H2481 H 0.73016 0.63659 0.05112 0.0
H2482 H 0.76103 0.65502 0.13339 0.0
H2483 H 0.73741 0.64064 0.14257 0.0
H2484 H 0.73626 0.6685 0.13597 0.0
H2485 H 0.77233 0.60758 0.06882 0.0
H2486 H 0.75087 0.60638 0.05189 0.0
H2487 H 0.74891 0.59267 0.07761 0.0
C2488 C 0.39096 0.74781 0.11217 0.0
C2489 C 0.4005 0.7399 0.09358 0.0
C2490 C 0.40239 0.76049 0.12508 0.0
C2491 C 0.42393 0.76576 0.11925 0.0
C2492 C 0.43362 0.75791 0.10045 0.0
C2493 C 0.42189 0.74505 0.08798 0.0
C2494 C 0.3914 0.76818 0.14507 0.0
C2495 C 0.45638 0.76329 0.09334 0.0
C2496 C 0.44837 0.8146 0.14147 0.0
C2497 C 0.46051 0.80592 0.15731 0.0
C2498 C 0.43648 0.80181 0.12909 0.0
C2499 C 0.43627 0.77962 0.13265 0.0
C2500 C 0.44811 0.77072 0.14885 0.0
C2501 C 0.46011 0.78387 0.16081 0.0
C2502 C 0.42426 0.8121 0.112 0.0
C2503 C 0.44829 0.74721 0.15341 0.0
H2504 H 0.37455 0.7438 0.11685 0.0
H2505 H 0.42942 0.73932 0.07356 0.0
H2506 H 0.39992 0.7628 0.15893 0.0
H2507 H 0.39165 0.78563 0.1444 0.0
H2508 H 0.37473 0.76248 0.14763 0.0
H2509 H 0.46164 0.75604 0.07835 0.0
H2510 H 0.45857 0.78061 0.091 0.0
H2511 H 0.46675 0.75787 0.10574 0.0
H2512 H 0.44802 0.83153 0.13872 0.0
H2513 H 0.46954 0.77674 0.17267 0.0
H2514 H 0.40723 0.80794 0.11497 0.0
H2515 H 0.42968 0.80617 0.09642 0.0
H2516 H 0.42611 0.82952 0.11105 0.0
H2517 H 0.4319 0.74097 0.15678 0.0
H2518 H 0.45751 0.74273 0.16708 0.0
H2519 H 0.45522 0.73948 0.13932 0.0
C2520 C 0.28382 0.39606 0.08746 0.0
C2521 C 0.30588 0.39789 0.08422 0.0
C2522 C 0.27256 0.40812 0.1021 0.0
C2523 C 0.28363 0.42255 0.11354 0.0
C2524 C 0.30592 0.42417 0.11074 0.0
C2525 C 0.31681 0.41172 0.09615 0.0
C2526 C 0.24877 0.40593 0.10477 0.0
C2527 C 0.31817 0.43951 0.12265 0.0
C2528 C 0.25186 0.46888 0.13142 0.0
C2529 C 0.24633 0.46284 0.15268 0.0
C2530 C 0.26456 0.45615 0.11865 0.0
C2531 C 0.27167 0.43686 0.12739 0.0
C2532 C 0.26645 0.43084 0.14897 0.0
C2533 C 0.25387 0.44402 0.16145 0.0
C2534 C 0.27003 0.46316 0.09573 0.0
C2535 C 0.27362 0.41025 0.15869 0.0
H2536 H 0.27523 0.38566 0.07806 0.0
H2537 H 0.33389 0.41296 0.09393 0.0
H2538 H 0.24336 0.40311 0.12174 0.0
H2539 H 0.2416 0.42077 0.09908 0.0
H2540 H 0.24274 0.39285 0.09587 0.0
H2541 H 0.33552 0.43801 0.11951 0.0
H2542 H 0.31384 0.45584 0.118 0.0
H2543 H 0.31404 0.43703 0.13992 0.0
H2544 H 0.24625 0.48363 0.12478 0.0
H2545 H 0.24947 0.43936 0.1779 0.0
H2546 H 0.26307 0.45191 0.08534 0.0
H2547 H 0.2874 0.46324 0.09208 0.0
H2548 H 0.26414 0.47912 0.09173 0.0
H2549 H 0.26651 0.39696 0.15093 0.0
H2550 H 0.26911 0.40843 0.17597 0.0
H2551 H 0.29102 0.40906 0.15604 0.0
C2552 C 0.91584 0.56651 0.79867 0.0
C2553 C 0.89369 0.56678 0.80096 0.0
C2554 C 0.92763 0.5821 0.78628 0.0
C2555 C 0.91729 0.59604 0.7724 0.0
C2556 C 0.89482 0.59588 0.77394 0.0
C2557 C 0.8835 0.58252 0.78943 0.0
C2558 C 0.95118 0.58307 0.7883 0.0
C2559 C 0.88225 0.60897 0.75904 0.0
C2560 C 0.94392 0.64321 0.73991 0.0
C2561 C 0.9598 0.63331 0.72764 0.0
C2562 C 0.9304 0.63162 0.75512 0.0
C2563 C 0.93021 0.60924 0.75559 0.0
C2564 C 0.94409 0.59927 0.74077 0.0
C2565 C 0.95984 0.61122 0.72865 0.0
C2566 C 0.91732 0.64379 0.77097 0.0
C2567 C 0.94298 0.57594 0.7376 0.0
H2568 H 0.92428 0.55419 0.80666 0.0
H2569 H 0.86642 0.58335 0.79134 0.0
H2570 H 0.95875 0.56956 0.78065 0.0
H2571 H 0.95876 0.59798 0.78143 0.0
H2572 H 0.95435 0.58144 0.80527 0.0
H2573 H 0.86845 0.59971 0.75462 0.0
H2574 H 0.87588 0.62271 0.76729 0.0
H2575 H 0.89165 0.61457 0.7443 0.0
H2576 H 0.94325 0.66024 0.73896 0.0
H2577 H 0.97221 0.60296 0.72002 0.0
H2578 H 0.91196 0.63417 0.78554 0.0
H2579 H 0.90335 0.65008 0.76347 0.0
H2580 H 0.92652 0.65755 0.77561 0.0
H2581 H 0.95672 0.56816 0.74419 0.0
H2582 H 0.9442 0.57328 0.7204 0.0
H2583 H 0.92814 0.56825 0.74479 0.0
C2584 C 0.88987 0.44238 0.2431 0.0
C2585 C 0.89686 0.46266 0.23585 0.0
C2586 C 0.90257 0.42934 0.25504 0.0
C2587 C 0.92253 0.43696 0.26002 0.0
C2588 C 0.92956 0.45752 0.25289 0.0
C2589 C 0.91666 0.47011 0.24074 0.0
C2590 C 0.89474 0.40737 0.26214 0.0
C2591 C 0.95065 0.46623 0.25815 0.0
C2592 C 0.9477 0.41038 0.30634 0.0
C2593 C 0.9627 0.39778 0.29601 0.0
C2594 C 0.9345 0.42328 0.29481 0.0
C2595 C 0.93622 0.42332 0.27246 0.0
C2596 C 0.95117 0.41051 0.26193 0.0
C2597 C 0.96435 0.39801 0.27383 0.0
C2598 C 0.9188 0.4369 0.30651 0.0
C2599 C 0.95333 0.4101 0.23809 0.0
H2600 H 0.8746 0.43663 0.23913 0.0
H2601 H 0.9219 0.48591 0.23529 0.0
H2602 H 0.90591 0.39566 0.25569 0.0
H2603 H 0.89407 0.40527 0.27965 0.0
H2604 H 0.87882 0.40389 0.25695 0.0
H2605 H 0.95356 0.4827 0.25173 0.0
H2606 H 0.95145 0.46578 0.27557 0.0
H2607 H 0.96356 0.45635 0.25164 0.0
H2608 H 0.94614 0.41006 0.32348 0.0
H2609 H 0.97617 0.38861 0.26571 0.0
H2610 H 0.90253 0.43276 0.30278 0.0
H2611 H 0.92176 0.45368 0.30127 0.0
H2612 H 0.91963 0.43519 0.32394 0.0
H2613 H 0.93792 0.40581 0.23221 0.0
H2614 H 0.9653 0.39874 0.2324 0.0
H2615 H 0.95792 0.42598 0.231 0.0
C2616 C 0.65829 0.95271 0.31484 0.0
C2617 C 0.65362 0.97333 0.32026 0.0
C2618 C 0.64517 0.94133 0.30234 0.0
C2619 C 0.62644 0.95042 0.29545 0.0
C2620 C 0.62138 0.97107 0.30136 0.0
C2621 C 0.63502 0.98224 0.31358 0.0
C2622 C 0.65142 0.91952 0.29644 0.0
C2623 C 0.60149 0.98137 0.29484 0.0
C2624 C 0.60144 0.92826 0.24774 0.0
C2625 C 0.58567 0.91437 0.25743 0.0
C2626 C 0.61472 0.94001 0.25982 0.0
C2627 C 0.61212 0.93825 0.28228 0.0
C2628 C 0.59601 0.92451 0.29213 0.0
C2629 C 0.58319 0.9127 0.27968 0.0
C2630 C 0.63181 0.95411 0.24852 0.0
C2631 C 0.59226 0.92229 0.31592 0.0
H2632 H 0.67232 0.94547 0.32039 0.0
H2633 H 0.63114 0.99803 0.31795 0.0
H2634 H 0.63911 0.90788 0.30295 0.0
H2635 H 0.65264 0.91869 0.27897 0.0
H2636 H 0.66676 0.9149 0.30242 0.0
H2637 H 0.59961 0.99733 0.3009 0.0
H2638 H 0.60164 0.98266 0.27734 0.0
H2639 H 0.58751 0.9715 0.30084 0.0
H2640 H 0.60372 0.92962 0.23062 0.0
H2641 H 0.57093 0.90231 0.28743 0.0
H2642 H 0.64749 0.94911 0.25331 0.0
H2643 H 0.62967 0.97055 0.2531 0.0
H2644 H 0.63187 0.95382 0.23103 0.0
H2645 H 0.60658 0.91615 0.32288 0.0
H2646 H 0.5787 0.91153 0.3212 0.0
H2647 H 0.58919 0.93792 0.32232 0.0
C2648 C 0.12851 0.58276 0.27667 0.0
C2649 C 0.13454 0.58788 0.25528 0.0
C2650 C 0.11421 0.5952 0.28811 0.0
C2651 C 0.10588 0.61315 0.27786 0.0
C2652 C 0.11242 0.61875 0.25644 0.0
C2653 C 0.12667 0.606 0.24538 0.0
C2654 C 0.10748 0.58877 0.31092 0.0
C2655 C 0.10393 0.63789 0.24505 0.0
C2656 C 0.05239 0.6331 0.29688 0.0
C2657 C 0.05811 0.65085 0.30725 0.0
C2658 C 0.06787 0.62028 0.28774 0.0
C2659 C 0.08945 0.62552 0.28909 0.0
C2660 C 0.09524 0.64317 0.30014 0.0
C2661 C 0.07939 0.65573 0.30912 0.0
C2662 C 0.06113 0.60157 0.27607 0.0
C2663 C 0.1181 0.64914 0.30189 0.0
H2664 H 0.13444 0.56862 0.28427 0.0
H2665 H 0.13156 0.61009 0.2289 0.0
H2666 H 0.10971 0.60213 0.32108 0.0
H2667 H 0.09042 0.58445 0.31251 0.0
H2668 H 0.11646 0.57516 0.31693 0.0
H2669 H 0.11144 0.64063 0.22872 0.0
H2670 H 0.08663 0.63593 0.24419 0.0
H2671 H 0.10654 0.65211 0.25394 0.0
H2672 H 0.0358 0.62958 0.29553 0.0
H2673 H 0.08355 0.66959 0.3172 0.0
H2674 H 0.06862 0.5871 0.28222 0.0
H2675 H 0.06651 0.60393 0.25904 0.0
H2676 H 0.04372 0.59905 0.27751 0.0
H2677 H 0.1267 0.6355 0.30834 0.0
H2678 H 0.11988 0.66252 0.31219 0.0
H2679 H 0.12577 0.65362 0.28594 0.0
C2680 C 0.48099 0.14374 0.24372 0.0
C2681 C 0.47176 0.15975 0.23183 0.0
C2682 C 0.46869 0.13078 0.25869 0.0
C2683 C 0.44662 0.13388 0.26169 0.0
C2684 C 0.43731 0.15024 0.24977 0.0
C2685 C 0.45004 0.16301 0.23494 0.0
C2686 C 0.47925 0.11355 0.27104 0.0
C2687 C 0.41388 0.154 0.2524 0.0
C2688 C 0.41323 0.08629 0.28317 0.0
C2689 C 0.40959 0.09018 0.30469 0.0
C2690 C 0.42489 0.10056 0.269 0.0
C2691 C 0.4332 0.11926 0.27647 0.0
C2692 C 0.42919 0.12357 0.29807 0.0
C2693 C 0.41735 0.10901 0.31193 0.0
C2694 C 0.42861 0.09542 0.24608 0.0
C2695 C 0.43783 0.14332 0.30664 0.0
H2696 H 0.49785 0.14136 0.24121 0.0
H2697 H 0.44303 0.17546 0.22564 0.0
H2698 H 0.4757 0.1151 0.28827 0.0
H2699 H 0.47294 0.09798 0.26723 0.0
H2700 H 0.49667 0.11383 0.26753 0.0
H2701 H 0.40925 0.16791 0.24258 0.0
H2702 H 0.40508 0.13997 0.24788 0.0
H2703 H 0.40892 0.1564 0.26922 0.0
H2704 H 0.40694 0.07197 0.27737 0.0
H2705 H 0.41468 0.11207 0.32854 0.0
H2706 H 0.44578 0.09391 0.24186 0.0
H2707 H 0.42296 0.10838 0.23568 0.0
H2708 H 0.42047 0.08056 0.24265 0.0
H2709 H 0.45534 0.14331 0.30493 0.0
H2710 H 0.43257 0.14481 0.32358 0.0
H2711 H 0.43276 0.15739 0.29739 0.0
C2712 C 0.10205 0.36753 0.73768 0.0
C2713 C 0.08495 0.37628 0.72773 0.0
C2714 C 0.11423 0.37948 0.75059 0.0
C2715 C 0.10901 0.40067 0.75415 0.0
C2716 C 0.09164 0.40951 0.74428 0.0
C2717 C 0.08003 0.39734 0.73109 0.0
C2718 C 0.13281 0.36944 0.76033 0.0
C2719 C 0.08511 0.43181 0.74789 0.0
C2720 C 0.12786 0.42537 0.80342 0.0
C2721 C 0.14483 0.43859 0.79503 0.0
C2722 C 0.11611 0.41314 0.79039 0.0
C2723 C 0.12157 0.41354 0.76828 0.0
C2724 C 0.13889 0.42646 0.7597 0.0
C2725 C 0.15008 0.4389 0.77303 0.0
C2726 C 0.09766 0.39988 0.80032 0.0
C2727 C 0.14556 0.42725 0.73633 0.0
H2728 H 0.10613 0.35135 0.73508 0.0
H2729 H 0.06672 0.40422 0.72372 0.0
H2730 H 0.14742 0.37884 0.75548 0.0
H2731 H 0.13045 0.36929 0.77783 0.0
H2732 H 0.13519 0.35305 0.75562 0.0
H2733 H 0.0711 0.43632 0.73934 0.0
H2734 H 0.08137 0.43366 0.76504 0.0
H2735 H 0.09833 0.44292 0.74257 0.0
H2736 H 0.1237 0.42439 0.82031 0.0
H2737 H 0.16278 0.44917 0.76601 0.0
H2738 H 0.10032 0.38305 0.7975 0.0
H2739 H 0.08304 0.4044 0.79286 0.0
H2740 H 0.09507 0.40159 0.81765 0.0
H2741 H 0.14866 0.41113 0.73117 0.0
H2742 H 0.15998 0.43719 0.7322 0.0
H2743 H 0.13263 0.43361 0.72724 0.0
C2744 C 0.56937 0.1352 0.80211 0.0
C2745 C 0.57749 0.15346 0.80992 0.0
C2746 C 0.58276 0.12131 0.79155 0.0
C2747 C 0.60471 0.12595 0.78887 0.0
C2748 C 0.61294 0.14451 0.79673 0.0
C2749 C 0.59914 0.15812 0.80726 0.0
C2750 C 0.57344 0.10165 0.78338 0.0
C2751 C 0.63627 0.14986 0.79413 0.0
C2752 C 0.63922 0.07907 0.77929 0.0
C2753 C 0.64266 0.08044 0.75718 0.0
C2754 C 0.62748 0.09424 0.78991 0.0
C2755 C 0.61899 0.1111 0.77808 0.0
C2756 C 0.62299 0.11297 0.75582 0.0
C2757 C 0.6348 0.09757 0.74561 0.0
C2758 C 0.62346 0.09176 0.81369 0.0
C2759 C 0.61421 0.13084 0.74275 0.0
H2760 H 0.55252 0.13183 0.80435 0.0
H2761 H 0.60518 0.17235 0.81348 0.0
H2762 H 0.5773 0.10133 0.76606 0.0
H2763 H 0.58045 0.08752 0.79085 0.0
H2764 H 0.556 0.10055 0.78661 0.0
H2765 H 0.64003 0.1651 0.80087 0.0
H2766 H 0.64521 0.13729 0.80206 0.0
H2767 H 0.6419 0.15069 0.77712 0.0
H2768 H 0.64509 0.06571 0.78826 0.0
H2769 H 0.6377 0.09879 0.72853 0.0
H2770 H 0.60637 0.08873 0.81797 0.0
H2771 H 0.62786 0.10649 0.82098 0.0
H2772 H 0.63242 0.0786 0.82064 0.0
H2773 H 0.59671 0.12965 0.744 0.0
H2774 H 0.61997 0.13078 0.72577 0.0
H2775 H 0.61861 0.14616 0.74886 0.0
C2776 C 0.42456 0.90128 0.81763 0.0
C2777 C 0.44248 0.89201 0.80807 0.0
C2778 C 0.41114 0.91336 0.80554 0.0
C2779 C 0.4158 0.91618 0.78339 0.0
C2780 C 0.43382 0.90683 0.77364 0.0
C2781 C 0.44698 0.89487 0.78611 0.0
C2782 C 0.39202 0.92313 0.81644 0.0
C2783 C 0.43929 0.90957 0.75005 0.0
C2784 C 0.37167 0.93198 0.74927 0.0
C2785 C 0.37573 0.95358 0.74577 0.0
C2786 C 0.38461 0.91956 0.76155 0.0
C2787 C 0.40191 0.9291 0.77042 0.0
C2788 C 0.40604 0.95098 0.76679 0.0
C2789 C 0.39284 0.96299 0.75442 0.0
C2790 C 0.37981 0.89627 0.76505 0.0
C2791 C 0.42433 0.96167 0.77599 0.0
H2792 H 0.4209 0.8989 0.83457 0.0
H2793 H 0.461 0.88801 0.7787 0.0
H2794 H 0.39289 0.94048 0.81358 0.0
H2795 H 0.37745 0.9175 0.80977 0.0
H2796 H 0.3906 0.91936 0.83379 0.0
H2797 H 0.45371 0.90098 0.7449 0.0
H2798 H 0.42597 0.90384 0.74145 0.0
H2799 H 0.44184 0.92651 0.74531 0.0
H2800 H 0.35835 0.92491 0.7424 0.0
H2801 H 0.39578 0.97977 0.75154 0.0
H2802 H 0.37702 0.89201 0.78223 0.0
H2803 H 0.39356 0.8872 0.759 0.0
H2804 H 0.36574 0.89134 0.75706 0.0
H2805 H 0.42279 0.95935 0.79349 0.0
H2806 H 0.4253 0.97883 0.77167 0.0
H2807 H 0.43939 0.95451 0.7703 0.0
loop_
_geom_bond_atom_site_label_1
_geom_bond_atom_site_label_2
_geom_bond_distance
_geom_bond_site_symmetry_2
_ccdc_geom_bond_type
C0 C1 1.443 . S
C0 N4 1.376 1_565 S
C0 C38 1.389 . S
C1 C0 1.443 . S
C1 C2 1.338 . S
C1 H41 0.951 . S
C2 C1 1.338 . S
C2 C3 1.441 1_565 S
C2 H42 0.950 1_565 S
C3 C2 1.441 1_545 S
C3 N4 1.374 . S
C3 C37 1.395 . S
N4 C0 1.376 1_545 S
N4 C3 1.374 . S
N4 Co5 2.008 . S
Co5 N4 2.008 . S
Co5 N6 1.995 . S
Co5 N11 2.008 . S
Co5 N16 1.995 . S
Co5 N21 2.282 1_545 S
Co5 N27 2.282 . S
N6 Co5 1.995 . S
N6 C7 1.376 . S
N6 C10 1.383 . S
C7 N6 1.376 . S
C7 C8 1.446 . S
C7 C37 1.391 . S
C8 C7 1.446 . S
C8 C9 1.339 . S
C8 H43 0.949 . S
C9 C8 1.339 . S
C9 C10 1.439 . S
C9 H44 0.950 . S
C10 N6 1.383 . S
C10 C9 1.439 . S
C10 C39 1.392 . S
N11 Co5 2.008 . S
N11 C12 1.376 . S
N11 C15 1.374 . S
C12 N11 1.376 . S
C12 C13 1.443 . S
C12 C39 1.389 . S
C13 C12 1.443 . S
C13 C14 1.340 . S
C13 H45 0.951 . S
C14 C13 1.340 . S
C14 C15 1.439 . S
C14 H46 0.950 . S
C15 N11 1.374 . S
C15 C14 1.439 . S
C15 C40 1.395 . S
N16 Co5 1.995 . S
N16 C17 1.376 . S
N16 C20 1.383 1_545 S
C17 N16 1.376 . S
C17 C18 1.446 1_545 S
C17 C40 1.391 . S
C18 C17 1.446 1_565 S
C18 C19 1.339 . S
C18 H47 0.949 . S
C19 C18 1.339 . S
C19 C20 1.439 . S
C19 H48 0.950 . S
C20 N16 1.383 1_565 S
C20 C19 1.439 . S
C20 C38 1.392 . S
N21 Co5 2.282 1_565 S
N21 C24 1.332 . S
N21 C26 1.332 . S
C22 C23 1.386 . S
C22 C25 1.388 . S
C23 C22 1.386 . S
C23 C24 1.382 . S
C23 H49 0.950 . S
C24 N21 1.332 . S
C24 C23 1.382 . S
C24 H35 0.952 . S
C25 C22 1.388 . S
C25 C26 1.382 . S
C25 H50 0.950 . S
C26 N21 1.332 . S
C26 C25 1.382 . S
C26 H36 0.948 . S
N27 Co5 2.282 . S
N27 C31 1.332 . S
N27 C32 1.332 . S
C28 C29 1.388 . S
C28 C32 1.382 . S
C28 H51 0.950 . S
C29 C28 1.388 . S
C29 C30 1.386 . S
C30 C29 1.386 . S
C30 C31 1.382 . S
C30 H52 0.950 . S
C31 N27 1.332 . S
C31 C30 1.382 . S
C31 H33 0.952 . S
C32 N27 1.332 . S
C32 C28 1.382 . S
C32 H34 0.948 . S
H33 C31 0.952 . S
H34 C32 0.948 . S
H35 C24 0.952 . S
H36 C26 0.948 . S
C37 C3 1.395 . S
C37 C7 1.391 . S
C38 C0 1.389 . S
C38 C20 1.392 . S
C39 C10 1.392 . S
C39 C12 1.389 . S
C40 C15 1.395 . S
C40 C17 1.391 . S
H41 C1 0.951 . S
H42 C2 0.950 1_545 S
H43 C8 0.949 . S
H44 C9 0.950 . S
H45 C13 0.951 . S
H46 C14 0.950 . S
H47 C18 0.949 . S
H48 C19 0.950 . S
H49 C23 0.950 . S
H50 C25 0.950 . S
H51 C28 0.950 . S
H52 C30 0.950 . S
C53 C54 1.443 . S
C53 N57 1.376 . S
C53 C91 1.389 . S
C54 C53 1.443 . S
C54 C55 1.340 . S
C54 H94 0.951 . S
C55 C54 1.340 . S
C55 C56 1.439 . S
C55 H95 0.950 . S
C56 C55 1.439 . S
C56 N57 1.374 . S
C56 C90 1.395 . S
N57 C53 1.376 . S
N57 C56 1.374 . S
N57 Co58 2.008 . S
Co58 N57 2.008 . S
Co58 N59 1.995 . S
Co58 N64 2.008 . S
Co58 N69 1.995 . S
Co58 N74 2.282 . S
Co58 N80 2.282 1_455 S
N59 Co58 1.995 . S
N59 C60 1.376 . S
N59 C63 1.383 1_455 S
C60 N59 1.376 . S
C60 C61 1.446 1_455 S
C60 C90 1.391 . S
C61 C60 1.446 1_655 S
C61 C62 1.339 . S
C61 H96 0.949 . S
C62 C61 1.339 . S
C62 C63 1.439 . S
C62 H97 0.950 . S
C63 N59 1.383 1_655 S
C63 C62 1.439 . S
C63 C92 1.392 . S
N64 Co58 2.008 . S
N64 C65 1.376 1_455 S
N64 C68 1.374 . S
C65 N64 1.376 1_655 S
C65 C66 1.443 . S
C65 C92 1.389 . S
C66 C65 1.443 . S
C66 C67 1.340 1_655 S
C66 H98 0.951 . S
C67 C66 1.340 1_455 S
C67 C68 1.439 . S
C67 H99 0.950 . S
C68 N64 1.374 . S
C68 C67 1.439 . S
C68 C93 1.395 . S
N69 Co58 1.995 . S
N69 C70 1.376 . S
N69 C73 1.383 . S
C70 N69 1.376 . S
C70 C71 1.446 . S
C70 C93 1.391 . S
C71 C70 1.446 . S
C71 C72 1.339 . S
C71 H100 0.949 . S
C72 C71 1.339 . S
C72 C73 1.439 . S
C72 H101 0.950 . S
C73 N69 1.383 . S
C73 C72 1.439 . S
C73 C91 1.392 . S
N74 Co58 2.282 . S
N74 C77 1.332 . S
N74 C79 1.332 . S
C75 C76 1.386 . S
C75 C78 1.388 . S
C76 C75 1.386 . S
C76 C77 1.382 . S
C76 H102 0.950 . S
C77 N74 1.332 . S
C77 C76 1.382 . S
C77 H88 0.952 . S
C78 C75 1.388 . S
C78 C79 1.382 . S
C78 H103 0.950 . S
C79 N74 1.332 . S
C79 C78 1.382 . S
C79 H89 0.948 . S
N80 Co58 2.282 1_655 S
N80 C84 1.332 . S
N80 C85 1.332 . S
C81 C82 1.388 . S
C81 C85 1.382 . S
C81 H104 0.950 . S
C82 C81 1.388 . S
C82 C83 1.386 . S
C83 C82 1.386 . S
C83 C84 1.382 . S
C83 H105 0.950 . S
C84 N80 1.332 . S
C84 C83 1.382 . S
C84 H86 0.952 . S
C85 N80 1.332 . S
C85 C81 1.382 . S
C85 H87 0.948 1_655 S
H86 C84 0.952 . S
H87 C85 0.948 1_455 S
H88 C77 0.952 . S
H89 C79 0.948 . S
C90 C56 1.395 . S
C90 C60 1.391 . S
C91 C53 1.389 . S
C91 C73 1.392 . S
C92 C63 1.392 . S
C92 C65 1.389 . S
C93 C68 1.395 . S
C93 C70 1.391 . S
H94 C54 0.951 . S
H95 C55 0.950 . S
H96 C61 0.949 . S
H97 C62 0.950 . S
H98 C66 0.951 . S
H99 C67 0.950 . S
H100 C71 0.949 . S
H101 C72 0.950 . S
H102 C76 0.950 . S
H103 C78 0.950 . S
H104 C81 0.950 . S
H105 C83 0.950 . S
C106 C107 1.443 . S
C106 N110 1.376 1_565 S
C106 C144 1.389 . S
C107 C106 1.443 . S
C107 C108 1.337 1_565 S
C107 H147 0.951 . S
C108 C107 1.337 1_545 S
C108 C109 1.443 . S
C108 H148 0.950 . S
C109 C108 1.443 . S
C109 N110 1.374 . S
C109 C143 1.395 . S
N110 C106 1.376 1_545 S
N110 C109 1.374 . S
N110 Co111 2.008 . S
Co111 N110 2.008 . S
Co111 N112 1.995 . S
Co111 N117 2.008 . S
Co111 N122 2.014 . S
Co111 N127 2.282 1_545 S
Co111 N133 2.282 . S
N112 Co111 1.995 . S
N112 C113 1.376 . S
N112 C116 1.383 . S
C113 N112 1.376 . S
C113 C114 1.446 . S
C113 C143 1.391 . S
C114 C113 1.446 . S
C114 C115 1.339 . S
C114 H149 0.949 . S
C115 C114 1.339 . S
C115 C116 1.439 . S
C115 H150 0.950 . S
C116 N112 1.383 . S
C116 C115 1.439 . S
C116 C145 1.392 . S
N117 Co111 2.008 . S
N117 C118 1.376 . S
N117 C121 1.374 . S
C118 N117 1.376 . S
C118 C119 1.443 . S
C118 C145 1.389 . S
C119 C118 1.443 . S
C119 C120 1.340 . S
C119 H151 0.951 . S
C120 C119 1.340 . S
C120 C121 1.439 . S
C120 H152 0.950 . S
C121 N117 1.374 . S
C121 C120 1.439 . S
C121 C146 1.395 . S
N122 Co111 2.014 . S
N122 C123 1.377 . S
N122 C126 1.360 1_545 S
C123 N122 1.377 . S
C123 C124 1.432 1_545 S
C123 C146 1.405 . S
C124 C123 1.432 1_565 S
C124 C125 1.339 . S
C124 H153 0.949 . S
C125 C124 1.339 . S
C125 C126 1.439 . S
C125 H154 0.950 . S
C126 N122 1.360 1_565 S
C126 C125 1.439 . S
C126 C144 1.392 . S
N127 Co111 2.282 1_565 S
N127 C130 1.332 . S
N127 C132 1.332 . S
C128 C129 1.386 . S
C128 C131 1.388 . S
C129 C128 1.386 . S
C129 C130 1.382 . S
C129 H155 0.950 . S
C130 N127 1.332 . S
C130 C129 1.382 . S
C130 H141 0.952 . S
C131 C128 1.388 . S
C131 C132 1.382 . S
C131 H156 0.950 . S
C132 N127 1.332 . S
C132 C131 1.382 . S
C132 H142 0.948 . S
N133 Co111 2.282 . S
N133 C137 1.332 . S
N133 C138 1.332 . S
C134 C135 1.388 . S
C134 C138 1.382 . S
C134 H157 0.950 . S
C135 C134 1.388 . S
C135 C136 1.386 . S
C136 C135 1.386 . S
C136 C137 1.382 . S
C136 H158 0.950 . S
C137 N133 1.332 . S
C137 C136 1.382 . S
C137 H139 0.952 . S
C138 N133 1.332 . S
C138 C134 1.382 . S
C138 H140 0.948 . S
H139 C137 0.952 . S
H140 C138 0.948 . S
H141 C130 0.952 . S
H142 C132 0.948 . S
C143 C109 1.395 . S
C143 C113 1.391 . S
C144 C106 1.389 . S
C144 C126 1.392 . S
C145 C116 1.392 . S
C145 C118 1.389 . S
C146 C121 1.395 . S
C146 C123 1.405 . S
H147 C107 0.951 . S
H148 C108 0.950 . S
H149 C114 0.949 . S
H150 C115 0.950 . S
H151 C119 0.951 . S
H152 C120 0.950 . S
H153 C124 0.949 . S
H154 C125 0.950 . S
H155 C129 0.950 . S
H156 C131 0.950 . S
H157 C134 0.950 . S
H158 C136 0.950 . S
C159 C160 1.443 . S
C159 N163 1.376 . S
C159 C197 1.389 . S
C160 C159 1.443 . S
C160 C161 1.340 . S
C160 H200 0.951 . S
C161 C160 1.340 . S
C161 C162 1.439 . S
C161 H201 0.950 . S
C162 C161 1.439 . S
C162 N163 1.374 . S
C162 C196 1.395 1_655 S
N163 C159 1.376 . S
N163 C162 1.374 . S
N163 Co164 2.001 1_655 S
Co164 N163 2.001 1_455 S
Co164 N165 2.004 . S
Co164 N170 2.016 . S
Co164 N175 1.985 1_455 S
Co164 N180 2.269 1_455 S
Co164 N186 2.296 . S
N165 Co164 2.004 . S
N165 C166 1.376 . S
N165 C169 1.383 . S
C166 N165 1.376 . S
C166 C167 1.446 . S
C166 C196 1.391 . S
C167 C166 1.446 . S
C167 C168 1.339 . S
C167 H202 0.949 . S
C168 C167 1.339 . S
C168 C169 1.439 . S
C168 H203 0.950 . S
C169 N165 1.383 . S
C169 C168 1.439 . S
C169 C198 1.392 . S
N170 Co164 2.016 . S
N170 C171 1.376 . S
N170 C174 1.374 . S
C171 N170 1.376 . S
C171 C172 1.443 . S
C171 C198 1.389 . S
C172 C171 1.443 . S
C172 C173 1.340 . S
C172 H204 0.951 . S
C173 C172 1.340 . S
C173 C174 1.439 . S
C173 H205 0.950 . S
C174 N170 1.374 . S
C174 C173 1.439 . S
C174 C199 1.395 1_455 S
N175 Co164 1.985 1_655 S
N175 C176 1.376 . S
N175 C179 1.383 . S
C176 N175 1.376 . S
C176 C177 1.446 . S
C176 C199 1.391 . S
C177 C176 1.446 . S
C177 C178 1.339 . S
C177 H206 0.949 . S
C178 C177 1.339 . S
C178 C179 1.439 . S
C178 H207 0.950 . S
C179 N175 1.383 . S
C179 C178 1.439 . S
C179 C197 1.392 . S
N180 Co164 2.269 1_655 S
N180 C183 1.332 . S
N180 C185 1.332 . S
C181 C182 1.386 . S
C181 C184 1.388 . S
C182 C181 1.386 . S
C182 C183 1.382 . S
C182 H208 0.950 . S
C183 N180 1.332 . S
C183 C182 1.382 . S
C183 H194 0.952 . S
C184 C181 1.388 . S
C184 C185 1.382 . S
C184 H209 0.950 . S
C185 N180 1.332 . S
C185 C184 1.382 . S
C185 H195 0.948 . S
N186 Co164 2.296 . S
N186 C190 1.332 . S
N186 C191 1.332 . S
C187 C188 1.388 . S
C187 C191 1.382 . S
C187 H210 0.950 . S
C188 C187 1.388 . S
C188 C189 1.386 . S
C189 C188 1.386 . S
C189 C190 1.382 . S
C189 H211 0.950 . S
C190 N186 1.332 . S
C190 C189 1.382 . S
C190 H192 0.952 . S
C191 N186 1.332 . S
C191 C187 1.382 . S
C191 H193 0.948 . S
H192 C190 0.952 . S
H193 C191 0.948 . S
H194 C183 0.952 . S
H195 C185 0.948 . S
C196 C162 1.395 1_455 S
C196 C166 1.391 . S
C197 C159 1.389 . S
C197 C179 1.392 . S
C198 C169 1.392 . S
C198 C171 1.389 . S
C199 C174 1.395 1_655 S
C199 C176 1.391 . S
H200 C160 0.951 . S
H201 C161 0.950 . S
H202 C167 0.949 . S
H203 C168 0.950 . S
H204 C172 0.951 . S
H205 C173 0.950 . S
H206 C177 0.949 . S
H207 C178 0.950 . S
H208 C182 0.950 . S
H209 C184 0.950 . S
H210 C187 0.950 . S
H211 C189 0.950 . S
C212 C213 1.443 . S
C212 N216 1.376 . S
C212 C250 1.389 . S
C213 C212 1.443 . S
C213 C214 1.340 . S
C213 H253 0.951 . S
C214 C213 1.340 . S
C214 C215 1.439 . S
C214 H254 0.950 . S
C215 C214 1.439 . S
C215 N216 1.374 . S
C215 C249 1.395 1_565 S
N216 C212 1.376 . S
N216 C215 1.374 . S
N216 Co217 2.008 1_565 S
Co217 N216 2.008 1_545 S
Co217 N218 1.995 . S
Co217 N223 2.008 . S
Co217 N228 1.995 1_545 S
Co217 N233 2.282 1_545 S
Co217 N239 2.282 . S
N218 Co217 1.995 . S
N218 C219 1.376 . S
N218 C222 1.383 . S
C219 N218 1.376 . S
C219 C220 1.446 . S
C219 C249 1.391 . S
C220 C219 1.446 . S
C220 C221 1.339 . S
C220 H255 0.949 . S
C221 C220 1.339 . S
C221 C222 1.439 . S
C221 H256 0.950 . S
C222 N218 1.383 . S
C222 C221 1.439 . S
C222 C251 1.392 . S
N223 Co217 2.008 . S
N223 C224 1.376 . S
N223 C227 1.374 . S
C224 N223 1.376 . S
C224 C225 1.443 . S
C224 C251 1.389 . S
C225 C224 1.443 . S
C225 C226 1.340 . S
C225 H257 0.951 . S
C226 C225 1.340 . S
C226 C227 1.439 . S
C226 H258 0.950 . S
C227 N223 1.374 . S
C227 C226 1.439 . S
C227 C252 1.395 . S
N228 Co217 1.995 1_565 S
N228 C229 1.376 . S
N228 C232 1.383 . S
C229 N228 1.376 . S
C229 C230 1.446 . S
C229 C252 1.391 1_565 S
C230 C229 1.446 . S
C230 C231 1.339 . S
C230 H259 0.949 . S
C231 C230 1.339 . S
C231 C232 1.439 . S
C231 H260 0.950 . S
C232 N228 1.383 . S
C232 C231 1.439 . S
C232 C250 1.392 . S
N233 Co217 2.282 1_565 S
N233 C236 1.332 . S
N233 C238 1.332 . S
C234 C235 1.386 . S
C234 C237 1.388 . S
C235 C234 1.386 . S
C235 C236 1.382 . S
C235 H261 0.950 . S
C236 N233 1.332 . S
C236 C235 1.382 . S
C236 H247 0.952 . S
C237 C234 1.388 . S
C237 C238 1.382 . S
C237 H262 0.950 . S
C238 N233 1.332 . S
C238 C237 1.382 . S
C238 H248 0.948 . S
N239 Co217 2.282 . S
N239 C243 1.332 . S
N239 C244 1.332 . S
C240 C241 1.388 . S
C240 C244 1.382 . S
C240 H263 0.950 . S
C241 C240 1.388 . S
C241 C242 1.386 . S
C242 C241 1.386 . S
C242 C243 1.382 . S
C242 H264 0.950 . S
C243 N239 1.332 . S
C243 C242 1.382 . S
C243 H245 0.952 . S
C244 N239 1.332 . S
C244 C240 1.382 . S
C244 H246 0.948 . S
H245 C243 0.952 . S
H246 C244 0.948 . S
H247 C236 0.952 . S
H248 C238 0.948 . S
C249 C215 1.395 1_545 S
C249 C219 1.391 . S
C250 C212 1.389 . S
C250 C232 1.392 . S
C251 C222 1.392 . S
C251 C224 1.389 . S
C252 C227 1.395 . S
C252 C229 1.391 1_545 S
H253 C213 0.951 . S
H254 C214 0.950 . S
H255 C220 0.949 . S
H256 C221 0.950 . S
H257 C225 0.951 . S
H258 C226 0.950 . S
H259 C230 0.949 . S
H260 C231 0.950 . S
H261 C235 0.950 . S
H262 C237 0.950 . S
H263 C240 0.950 . S
H264 C242 0.950 . S
C265 C266 1.443 . S
C265 N269 1.376 1_655 S
C265 C303 1.389 . S
C266 C265 1.443 . S
C266 C267 1.340 1_655 S
C266 H306 0.951 . S
C267 C266 1.340 1_455 S
C267 C268 1.439 . S
C267 H307 0.950 . S
C268 C267 1.439 . S
C268 N269 1.374 . S
C268 C302 1.395 . S
N269 C265 1.376 1_455 S
N269 C268 1.374 . S
N269 Co270 2.008 . S
Co270 N269 2.008 . S
Co270 N271 1.995 . S
Co270 N276 2.008 . S
Co270 N281 1.995 . S
Co270 N286 2.282 1_455 S
Co270 N292 2.282 . S
N271 Co270 1.995 . S
N271 C272 1.376 . S
N271 C275 1.383 . S
C272 N271 1.376 . S
C272 C273 1.446 . S
C272 C302 1.391 . S
C273 C272 1.446 . S
C273 C274 1.339 . S
C273 H308 0.949 . S
C274 C273 1.339 . S
C274 C275 1.439 . S
C274 H309 0.950 . S
C275 N271 1.383 . S
C275 C274 1.439 . S
C275 C304 1.392 . S
N276 Co270 2.008 . S
N276 C277 1.376 . S
N276 C280 1.374 . S
C277 N276 1.376 . S
C277 C278 1.443 . S
C277 C304 1.389 . S
C278 C277 1.443 . S
C278 C279 1.340 . S
C278 H310 0.951 . S
C279 C278 1.340 . S
C279 C280 1.439 . S
C279 H311 0.950 . S
C280 N276 1.374 . S
C280 C279 1.439 . S
C280 C305 1.395 . S
N281 Co270 1.995 . S
N281 C282 1.376 . S
N281 C285 1.383 1_455 S
C282 N281 1.376 . S
C282 C283 1.446 1_455 S
C282 C305 1.391 . S
C283 C282 1.446 1_655 S
C283 C284 1.339 . S
C283 H312 0.949 . S
C284 C283 1.339 . S
C284 C285 1.439 . S
C284 H313 0.950 . S
C285 N281 1.383 1_655 S
C285 C284 1.439 . S
C285 C303 1.392 . S
N286 Co270 2.282 1_655 S
N286 C289 1.332 . S
N286 C291 1.332 . S
C287 C288 1.386 . S
C287 C290 1.388 . S
C288 C287 1.386 . S
C288 C289 1.382 . S
C288 H314 0.950 . S
C289 N286 1.332 . S
C289 C288 1.382 . S
C289 H300 0.952 . S
C290 C287 1.388 . S
C290 C291 1.382 . S
C290 H315 0.950 . S
C291 N286 1.332 . S
C291 C290 1.382 . S
C291 H301 0.948 1_655 S
N292 Co270 2.282 . S
N292 C296 1.332 . S
N292 C297 1.332 . S
C293 C294 1.388 . S
C293 C297 1.382 . S
C293 H316 0.950 . S
C294 C293 1.388 . S
C294 C295 1.386 . S
C295 C294 1.386 . S
C295 C296 1.382 . S
C295 H317 0.950 . S
C296 N292 1.332 . S
C296 C295 1.382 . S
C296 H298 0.952 . S
C297 N292 1.332 . S
C297 C293 1.382 . S
C297 H299 0.948 . S
H298 C296 0.952 . S
H299 C297 0.948 . S
H300 C289 0.952 . S
H301 C291 0.948 1_455 S
C302 C268 1.395 . S
C302 C272 1.391 . S
C303 C265 1.389 . S
C303 C285 1.392 . S
C304 C275 1.392 . S
C304 C277 1.389 . S
C305 C280 1.395 . S
C305 C282 1.391 . S
H306 C266 0.951 . S
H307 C267 0.950 . S
H308 C273 0.949 . S
H309 C274 0.950 . S
H310 C278 0.951 . S
H311 C279 0.950 . S
H312 C283 0.949 . S
H313 C284 0.950 . S
H314 C288 0.950 . S
H315 C290 0.950 . S
H316 C293 0.950 . S
H317 C295 0.950 . S
C318 C319 1.443 . S
C318 N322 1.376 . S
C318 C356 1.389 . S
C319 C318 1.443 . S
C319 C320 1.340 . S
C319 H359 0.951 . S
C320 C319 1.340 . S
C320 C321 1.439 . S
C320 H360 0.950 . S
C321 C320 1.439 . S
C321 N322 1.374 . S
C321 C355 1.409 . S
N322 C318 1.376 . S
N322 C321 1.374 . S
N322 Co323 2.008 . S
Co323 N322 2.008 . S
Co323 N324 1.995 1_545 S
Co323 N329 2.008 1_545 S
Co323 N334 1.995 . S
Co323 N339 2.282 . S
Co323 N345 2.282 1_545 S
N324 Co323 1.995 1_565 S
N324 C325 1.376 . S
N324 C328 1.383 . S
C325 N324 1.376 . S
C325 C326 1.446 . S
C325 C355 1.379 1_565 S
C326 C325 1.446 . S
C326 C327 1.339 . S
C326 H361 0.949 . S
C327 C326 1.339 . S
C327 C328 1.439 . S
C327 H362 0.950 . S
C328 N324 1.383 . S
C328 C327 1.439 . S
C328 C357 1.392 . S
N329 Co323 2.008 1_565 S
N329 C330 1.376 . S
N329 C333 1.374 . S
C330 N329 1.376 . S
C330 C331 1.443 . S
C330 C357 1.389 . S
C331 C330 1.443 . S
C331 C332 1.340 . S
C331 H363 0.951 . S
C332 C331 1.340 . S
C332 C333 1.439 . S
C332 H364 0.950 . S
C333 N329 1.374 . S
C333 C332 1.439 . S
C333 C358 1.395 1_565 S
N334 Co323 1.995 . S
N334 C335 1.376 . S
N334 C338 1.383 . S
C335 N334 1.376 . S
C335 C336 1.446 . S
C335 C358 1.391 . S
C336 C335 1.446 . S
C336 C337 1.339 . S
C336 H365 0.949 . S
C337 C336 1.339 . S
C337 C338 1.439 . S
C337 H366 0.950 . S
C338 N334 1.383 . S
C338 C337 1.439 . S
C338 C356 1.392 . S
N339 Co323 2.282 . S
N339 C342 1.332 . S
N339 C344 1.332 . S
C340 C341 1.386 . S
C340 C343 1.388 . S
C341 C340 1.386 . S
C341 C342 1.382 . S
C341 H367 0.950 . S
C342 N339 1.332 . S
C342 C341 1.382 . S
C342 H353 0.952 . S
C343 C340 1.388 . S
C343 C344 1.382 . S
C343 H368 0.950 . S
C344 N339 1.332 . S
C344 C343 1.382 . S
C344 H354 0.948 . S
N345 Co323 2.282 1_565 S
N345 C349 1.332 . S
N345 C350 1.332 . S
C346 C347 1.388 . S
C346 C350 1.382 . S
C346 H369 0.950 . S
C347 C346 1.388 . S
C347 C348 1.386 . S
C348 C347 1.386 . S
C348 C349 1.382 . S
C348 H370 0.950 . S
C349 N345 1.332 . S
C349 C348 1.382 . S
C349 H351 0.952 . S
C350 N345 1.332 . S
C350 C346 1.382 . S
C350 H352 0.948 . S
H351 C349 0.952 . S
H352 C350 0.948 . S
H353 C342 0.952 . S
H354 C344 0.948 . S
C355 C321 1.409 . S
C355 C325 1.379 1_545 S
C356 C318 1.389 . S
C356 C338 1.392 . S
C357 C328 1.392 . S
C357 C330 1.389 . S
C358 C333 1.395 1_545 S
C358 C335 1.391 . S
H359 C319 0.951 . S
H360 C320 0.950 . S
H361 C326 0.949 . S
H362 C327 0.950 . S
H363 C331 0.951 . S
H364 C332 0.950 . S
H365 C336 0.949 . S
H366 C337 0.950 . S
H367 C341 0.950 . S
H368 C343 0.950 . S
H369 C346 0.950 . S
H370 C348 0.950 . S
C371 C372 1.443 . S
C371 N375 1.376 1_655 S
C371 C409 1.389 . S
C372 C371 1.443 . S
C372 C373 1.340 . S
C372 H412 0.951 . S
C373 C372 1.340 . S
C373 C374 1.439 1_655 S
C373 H413 0.950 . S
C374 C373 1.439 1_455 S
C374 N375 1.374 . S
C374 C408 1.395 . S
N375 C371 1.376 1_455 S
N375 C374 1.374 . S
N375 Co376 2.008 . S
Co376 N375 2.008 . S
Co376 N377 1.995 . S
Co376 N382 2.008 . S
Co376 N387 1.995 . S
Co376 N392 2.282 1_455 S
Co376 N398 2.282 . S
N377 Co376 1.995 . S
N377 C378 1.376 . S
N377 C381 1.383 . S
C378 N377 1.376 . S
C378 C379 1.446 . S
C378 C408 1.391 . S
C379 C378 1.446 . S
C379 C380 1.339 . S
C379 H414 0.949 . S
C380 C379 1.339 . S
C380 C381 1.439 . S
C380 H415 0.950 . S
C381 N377 1.383 . S
C381 C380 1.439 . S
C381 C410 1.392 . S
N382 Co376 2.008 . S
N382 C383 1.376 . S
N382 C386 1.374 . S
C383 N382 1.376 . S
C383 C384 1.443 . S
C383 C410 1.389 . S
C384 C383 1.443 . S
C384 C385 1.340 . S
C384 H416 0.951 . S
C385 C384 1.340 . S
C385 C386 1.439 . S
C385 H417 0.950 . S
C386 N382 1.374 . S
C386 C385 1.439 . S
C386 C411 1.395 . S
N387 Co376 1.995 . S
N387 C388 1.376 . S
N387 C391 1.383 1_455 S
C388 N387 1.376 . S
C388 C389 1.446 1_455 S
C388 C411 1.391 . S
C389 C388 1.446 1_655 S
C389 C390 1.339 . S
C389 H418 0.949 . S
C390 C389 1.339 . S
C390 C391 1.439 . S
C390 H419 0.950 . S
C391 N387 1.383 1_655 S
C391 C390 1.439 . S
C391 C409 1.392 . S
N392 Co376 2.282 1_655 S
N392 C395 1.332 . S
N392 C397 1.332 . S
C393 C394 1.386 . S
C393 C396 1.388 . S
C394 C393 1.386 . S
C394 C395 1.382 . S
C394 H420 0.950 . S
C395 N392 1.332 . S
C395 C394 1.382 . S
C395 H406 0.952 . S
C396 C393 1.388 . S
C396 C397 1.382 . S
C396 H421 0.950 . S
C397 N392 1.332 . S
C397 C396 1.382 . S
C397 H407 0.956 . S
N398 Co376 2.282 . S
N398 C402 1.332 . S
N398 C403 1.332 . S
C399 C400 1.388 . S
C399 C403 1.382 . S
C399 H422 0.950 . S
C400 C399 1.388 . S
C400 C401 1.386 . S
C401 C400 1.386 . S
C401 C402 1.382 . S
C401 H423 0.950 . S
C402 N398 1.332 . S
C402 C401 1.382 . S
C402 H404 0.952 . S
C403 N398 1.332 . S
C403 C399 1.382 . S
C403 H405 0.948 . S
H404 C402 0.952 . S
H405 C403 0.948 . S
H406 C395 0.952 . S
H407 C397 0.956 . S
C408 C374 1.395 . S
C408 C378 1.391 . S
C409 C371 1.389 . S
C409 C391 1.392 . S
C410 C381 1.392 . S
C410 C383 1.389 . S
C411 C386 1.395 . S
C411 C388 1.391 . S
H412 C372 0.951 . S
H413 C373 0.950 . S
H414 C379 0.949 . S
H415 C380 0.950 . S
H416 C384 0.951 . S
H417 C385 0.950 . S
H418 C389 0.949 . S
H419 C390 0.950 . S
H420 C394 0.950 . S
H421 C396 0.950 . S
H422 C399 0.950 . S
H423 C401 0.950 . S
C424 C425 1.443 . S
C424 N428 1.376 . S
C424 C462 1.389 . S
C425 C424 1.443 . S
C425 C426 1.340 . S
C425 H465 0.951 . S
C426 C425 1.340 . S
C426 C427 1.439 . S
C426 H466 0.950 . S
C427 C426 1.439 . S
C427 N428 1.374 . S
C427 C461 1.395 1_554 S
N428 C424 1.376 . S
N428 C427 1.374 . S
N428 Co429 2.025 . S
Co429 N428 2.025 . S
Co429 N430 1.973 1_554 S
Co429 N435 1.992 1_554 S
Co429 N440 2.017 . S
Co429 N445 2.309 . S
Co429 N451 2.257 1_554 S
N430 Co429 1.973 1_556 S
N430 C431 1.376 . S
N430 C434 1.383 . S
C431 N430 1.376 . S
C431 C432 1.446 . S
C431 C461 1.391 . S
C432 C431 1.446 . S
C432 C433 1.339 . S
C432 H467 0.949 . S
C433 C432 1.339 . S
C433 C434 1.439 . S
C433 H468 0.950 . S
C434 N430 1.383 . S
C434 C433 1.439 . S
C434 C463 1.392 . S
N435 Co429 1.992 1_556 S
N435 C436 1.376 . S
N435 C439 1.374 . S
C436 N435 1.376 . S
C436 C437 1.443 . S
C436 C463 1.389 . S
C437 C436 1.443 . S
C437 C438 1.340 . S
C437 H469 0.951 . S
C438 C437 1.340 . S
C438 C439 1.439 . S
C438 H470 0.950 . S
C439 N435 1.374 . S
C439 C438 1.439 . S
C439 C464 1.395 1_556 S
N440 Co429 2.017 . S
N440 C441 1.376 . S
N440 C444 1.383 . S
C441 N440 1.376 . S
C441 C442 1.446 . S
C441 C464 1.391 . S
C442 C441 1.446 . S
C442 C443 1.339 . S
C442 H471 0.949 . S
C443 C442 1.339 . S
C443 C444 1.439 . S
C443 H472 0.950 . S
C444 N440 1.383 . S
C444 C443 1.439 . S
C444 C462 1.392 . S
N445 Co429 2.309 . S
N445 C448 1.332 . S
N445 C450 1.332 . S
C446 C447 1.386 . S
C446 C449 1.388 . S
C447 C446 1.386 . S
C447 C448 1.382 . S
C447 H473 0.950 . S
C448 N445 1.332 . S
C448 C447 1.382 . S
C448 H459 0.952 . S
C449 C446 1.388 . S
C449 C450 1.382 . S
C449 H474 0.950 . S
C450 N445 1.332 . S
C450 C449 1.382 . S
C450 H460 0.948 . S
N451 Co429 2.257 1_556 S
N451 C455 1.332 . S
N451 C456 1.332 . S
C452 C453 1.388 . S
C452 C456 1.382 . S
C452 H475 0.950 . S
C453 C452 1.388 . S
C453 C454 1.386 . S
C454 C453 1.386 . S
C454 C455 1.382 . S
C454 H476 0.950 . S
C455 N451 1.332 . S
C455 C454 1.382 . S
C455 H457 0.952 . S
C456 N451 1.332 . S
C456 C452 1.382 . S
C456 H458 0.948 . S
H457 C455 0.952 . S
H458 C456 0.948 . S
H459 C448 0.952 . S
H460 C450 0.948 . S
C461 C427 1.395 1_556 S
C461 C431 1.391 . S
C462 C424 1.389 . S
C462 C444 1.392 . S
C463 C434 1.392 . S
C463 C436 1.389 . S
C464 C439 1.395 1_554 S
C464 C441 1.391 . S
H465 C425 0.951 . S
H466 C426 0.950 . S
H467 C432 0.949 . S
H468 C433 0.950 . S
H469 C437 0.951 . S
H470 C438 0.950 . S
H471 C442 0.949 . S
H472 C443 0.950 . S
H473 C447 0.950 . S
H474 C449 0.950 . S
H475 C452 0.950 . S
H476 C454 0.950 . S
C477 C478 1.443 . S
C477 N481 1.376 . S
C477 C515 1.389 . S
C478 C477 1.443 . S
C478 C479 1.340 . S
C478 H518 0.951 . S
C479 C478 1.340 . S
C479 C480 1.439 . S
C479 H519 0.950 . S
C480 C479 1.439 . S
C480 N481 1.374 . S
C480 C514 1.395 . S
N481 C477 1.376 . S
N481 C480 1.374 . S
N481 Co482 2.008 . S
Co482 N481 2.008 . S
Co482 N483 2.020 . S
Co482 N488 2.008 . S
Co482 N493 1.995 . S
Co482 N498 2.282 . S
Co482 N504 2.282 1_554 S
N483 Co482 2.020 . S
N483 C484 1.381 . S
N483 C487 1.354 1_554 S
C484 N483 1.381 . S
C484 C485 1.446 1_554 S
C484 C514 1.391 . S
C485 C484 1.446 1_556 S
C485 C486 1.339 . S
C485 H520 0.949 . S
C486 C485 1.339 . S
C486 C487 1.439 . S
C486 H521 0.950 . S
C487 N483 1.354 1_556 S
C487 C486 1.439 . S
C487 C516 1.392 . S
N488 Co482 2.008 . S
N488 C489 1.376 1_554 S
N488 C492 1.374 . S
C489 N488 1.376 1_556 S
C489 C490 1.443 . S
C489 C516 1.389 . S
C490 C489 1.443 . S
C490 C491 1.340 . S
C490 H522 0.951 . S
C491 C490 1.340 . S
C491 C492 1.439 1_556 S
C491 H523 0.950 . S
C492 N488 1.374 . S
C492 C491 1.439 1_554 S
C492 C517 1.395 . S
N493 Co482 1.995 . S
N493 C494 1.376 . S
N493 C497 1.383 . S
C494 N493 1.376 . S
C494 C495 1.446 . S
C494 C517 1.391 . S
C495 C494 1.446 . S
C495 C496 1.339 . S
C495 H524 0.949 . S
C496 C495 1.339 . S
C496 C497 1.439 . S
C496 H525 0.950 . S
C497 N493 1.383 . S
C497 C496 1.439 . S
C497 C515 1.392 . S
N498 Co482 2.282 . S
N498 C501 1.332 . S
N498 C503 1.332 . S
C499 C500 1.386 . S
C499 C502 1.388 . S
C500 C499 1.386 . S
C500 C501 1.382 . S
C500 H526 0.950 . S
C501 N498 1.332 . S
C501 C500 1.382 . S
C501 H512 0.952 . S
C502 C499 1.388 . S
C502 C503 1.382 . S
C502 H527 0.950 . S
C503 N498 1.332 . S
C503 C502 1.382 . S
C503 H513 0.948 . S
N504 Co482 2.282 1_556 S
N504 C508 1.332 . S
N504 C509 1.332 . S
C505 C506 1.388 . S
C505 C509 1.382 . S
C505 H528 0.950 . S
C506 C505 1.388 . S
C506 C507 1.386 . S
C507 C506 1.386 . S
C507 C508 1.382 . S
C507 H529 0.950 . S
C508 N504 1.332 . S
C508 C507 1.382 . S
C508 H510 0.952 . S
C509 N504 1.332 . S
C509 C505 1.382 . S
C509 H511 0.948 . S
H510 C508 0.952 . S
H511 C509 0.948 . S
H512 C501 0.952 . S
H513 C503 0.948 . S
C514 C480 1.395 . S
C514 C484 1.391 . S
C515 C477 1.389 . S
C515 C497 1.392 . S
C516 C487 1.392 . S
C516 C489 1.389 . S
C517 C492 1.395 . S
C517 C494 1.391 . S
H518 C478 0.951 . S
H519 C479 0.950 . S
H520 C485 0.949 . S
H521 C486 0.950 . S
H522 C490 0.951 . S
H523 C491 0.950 . S
H524 C495 0.949 . S
H525 C496 0.950 . S
H526 C500 0.950 . S
H527 C502 0.950 . S
H528 C505 0.950 . S
H529 C507 0.950 . S
C530 C531 1.443 . S
C530 N534 1.376 . S
C530 C568 1.389 . S
C531 C530 1.443 . S
C531 C532 1.340 . S
C531 H571 0.951 . S
C532 C531 1.340 . S
C532 C533 1.439 . S
C532 H572 0.950 . S
C533 C532 1.439 . S
C533 N534 1.374 . S
C533 C567 1.395 . S
N534 C530 1.376 . S
N534 C533 1.374 . S
N534 Co535 2.008 . S
Co535 N534 2.008 . S
Co535 N536 1.995 . S
Co535 N541 2.008 . S
Co535 N546 1.995 . S
Co535 N551 2.282 . S
Co535 N557 2.282 . S
N536 Co535 1.995 . S
N536 C537 1.376 . S
N536 C540 1.383 1_554 S
C537 N536 1.376 . S
C537 C538 1.446 1_554 S
C537 C567 1.391 . S
C538 C537 1.446 1_556 S
C538 C539 1.339 . S
C538 H573 0.949 . S
C539 C538 1.339 . S
C539 C540 1.439 . S
C539 H574 0.950 . S
C540 N536 1.383 1_556 S
C540 C539 1.439 . S
C540 C569 1.392 . S
N541 Co535 2.008 . S
N541 C542 1.376 . S
N541 C545 1.374 . S
C542 N541 1.376 . S
C542 C543 1.443 . S
C542 C569 1.389 1_554 S
C543 C542 1.443 . S
C543 C544 1.340 . S
C543 H575 0.951 1_554 S
C544 C543 1.340 . S
C544 C545 1.439 . S
C544 H576 0.950 . S
C545 N541 1.374 . S
C545 C544 1.439 . S
C545 C570 1.395 . S
N546 Co535 1.995 . S
N546 C547 1.376 . S
N546 C550 1.383 . S
C547 N546 1.376 . S
C547 C548 1.446 . S
C547 C570 1.391 . S
C548 C547 1.446 . S
C548 C549 1.339 . S
C548 H577 0.949 . S
C549 C548 1.339 . S
C549 C550 1.439 . S
C549 H578 0.950 . S
C550 N546 1.383 . S
C550 C549 1.439 . S
C550 C568 1.392 . S
N551 Co535 2.282 . S
N551 C554 1.332 . S
N551 C556 1.332 . S
C552 C553 1.386 . S
C552 C555 1.388 . S
C553 C552 1.386 . S
C553 C554 1.382 . S
C553 H579 0.950 . S
C554 N551 1.332 . S
C554 C553 1.382 . S
C554 H565 0.952 . S
C555 C552 1.388 . S
C555 C556 1.382 . S
C555 H580 0.950 . S
C556 N551 1.332 . S
C556 C555 1.382 . S
C556 H566 0.948 . S
N557 Co535 2.282 . S
N557 C561 1.332 1_554 S
N557 C562 1.332 . S
C558 C559 1.388 . S
C558 C562 1.382 1_556 S
C558 H581 0.950 . S
C559 C558 1.388 . S
C559 C560 1.386 . S
C560 C559 1.386 . S
C560 C561 1.382 . S
C560 H582 0.950 . S
C561 N557 1.332 1_556 S
C561 C560 1.382 . S
C561 H563 0.952 . S
C562 N557 1.332 . S
C562 C558 1.382 1_554 S
C562 H564 0.948 . S
H563 C561 0.952 . S
H564 C562 0.948 . S
H565 C554 0.952 . S
H566 C556 0.948 . S
C567 C533 1.395 . S
C567 C537 1.391 . S
C568 C530 1.389 . S
C568 C550 1.392 . S
C569 C540 1.392 . S
C569 C542 1.389 1_556 S
C570 C545 1.395 . S
C570 C547 1.391 . S
H571 C531 0.951 . S
H572 C532 0.950 . S
H573 C538 0.949 . S
H574 C539 0.950 . S
H575 C543 0.951 1_556 S
H576 C544 0.950 . S
H577 C548 0.949 . S
H578 C549 0.950 . S
H579 C553 0.950 . S
H580 C555 0.950 . S
H581 C558 0.950 . S
H582 C560 0.950 . S
C583 C584 1.443 . S
C583 N587 1.376 . S
C583 C621 1.389 1_554 S
C584 C583 1.443 . S
C584 C585 1.340 . S
C584 H624 0.951 1_554 S
C585 C584 1.340 . S
C585 C586 1.439 . S
C585 H625 0.950 . S
C586 C585 1.439 . S
C586 N587 1.374 . S
C586 C620 1.395 . S
N587 C583 1.376 . S
N587 C586 1.374 . S
N587 Co588 2.008 . S
Co588 N587 2.008 . S
Co588 N589 1.995 . S
Co588 N594 2.008 . S
Co588 N599 1.995 . S
Co588 N604 2.282 . S
Co588 N610 2.282 . S
N589 Co588 1.995 . S
N589 C590 1.376 . S
N589 C593 1.383 . S
C590 N589 1.376 . S
C590 C591 1.446 . S
C590 C620 1.391 . S
C591 C590 1.446 . S
C591 C592 1.339 . S
C591 H626 0.949 . S
C592 C591 1.339 . S
C592 C593 1.439 . S
C592 H627 0.950 . S
C593 N589 1.383 . S
C593 C592 1.439 . S
C593 C622 1.392 . S
N594 Co588 2.008 . S
N594 C595 1.376 . S
N594 C598 1.374 . S
C595 N594 1.376 . S
C595 C596 1.443 . S
C595 C622 1.389 . S
C596 C595 1.443 . S
C596 C597 1.340 . S
C596 H628 0.951 . S
C597 C596 1.340 . S
C597 C598 1.439 . S
C597 H629 0.950 . S
C598 N594 1.374 . S
C598 C597 1.439 . S
C598 C623 1.395 . S
N599 Co588 1.995 . S
N599 C600 1.376 . S
N599 C603 1.381 1_554 S
C600 N599 1.376 . S
C600 C601 1.446 1_554 S
C600 C623 1.391 . S
C601 C600 1.446 1_556 S
C601 C602 1.339 . S
C601 H630 0.949 . S
C602 C601 1.339 . S
C602 C603 1.440 . S
C602 H631 0.950 . S
C603 N599 1.381 1_556 S
C603 C602 1.440 . S
C603 C621 1.392 . S
N604 Co588 2.282 . S
N604 C607 1.332 1_554 S
N604 C609 1.332 . S
C605 C606 1.386 . S
C605 C608 1.388 . S
C606 C605 1.386 . S
C606 C607 1.382 . S
C606 H632 0.950 . S
C607 N604 1.332 1_556 S
C607 C606 1.382 . S
C607 H618 0.952 . S
C608 C605 1.388 . S
C608 C609 1.382 1_556 S
C608 H633 0.950 . S
C609 N604 1.332 . S
C609 C608 1.382 1_554 S
C609 H619 0.948 . S
N610 Co588 2.282 . S
N610 C614 1.332 . S
N610 C615 1.332 . S
C611 C612 1.388 . S
C611 C615 1.382 . S
C611 H634 0.950 . S
C612 C611 1.388 . S
C612 C613 1.386 . S
C613 C612 1.386 . S
C613 C614 1.382 . S
C613 H635 0.950 . S
C614 N610 1.332 . S
C614 C613 1.382 . S
C614 H616 0.952 . S
C615 N610 1.332 . S
C615 C611 1.382 . S
C615 H617 0.948 . S
H616 C614 0.952 . S
H617 C615 0.948 . S
H618 C607 0.952 . S
H619 C609 0.948 . S
C620 C586 1.395 . S
C620 C590 1.391 . S
C621 C583 1.389 1_556 S
C621 C603 1.392 . S
C622 C593 1.392 . S
C622 C595 1.389 . S
C623 C598 1.395 . S
C623 C600 1.391 . S
H624 C584 0.951 1_556 S
H625 C585 0.950 . S
H626 C591 0.949 . S
H627 C592 0.950 . S
H628 C596 0.951 . S
H629 C597 0.950 . S
H630 C601 0.949 . S
H631 C602 0.950 . S
H632 C606 0.950 . S
H633 C608 0.950 . S
H634 C611 0.950 . S
H635 C613 0.950 . S
C636 C637 1.443 . S
C636 N640 1.376 . S
C636 C674 1.389 . S
C637 C636 1.443 . S
C637 C638 1.340 . S
C637 H677 0.951 . S
C638 C637 1.340 . S
C638 C639 1.439 . S
C638 H678 0.950 . S
C639 C638 1.439 . S
C639 N640 1.374 . S
C639 C673 1.395 . S
N640 C636 1.376 . S
N640 C639 1.374 . S
N640 Co641 2.008 . S
Co641 N640 2.008 . S
Co641 N642 1.995 . S
Co641 N647 2.008 . S
Co641 N652 1.995 . S
Co641 N657 2.282 . S
Co641 N663 2.282 . S
N642 Co641 1.995 . S
N642 C643 1.376 . S
N642 C646 1.383 . S
C643 N642 1.376 . S
C643 C644 1.446 . S
C643 C673 1.391 . S
C644 C643 1.446 . S
C644 C645 1.339 . S
C644 H679 0.949 . S
C645 C644 1.339 . S
C645 C646 1.439 . S
C645 H680 0.950 . S
C646 N642 1.383 . S
C646 C645 1.439 . S
C646 C675 1.392 . S
N647 Co641 2.008 . S
N647 C648 1.376 . S
N647 C651 1.374 . S
C648 N647 1.376 . S
C648 C649 1.443 . S
C648 C675 1.389 . S
C649 C648 1.443 . S
C649 C650 1.340 . S
C649 H681 0.951 . S
C650 C649 1.340 . S
C650 C651 1.439 . S
C650 H682 0.950 . S
C651 N647 1.374 . S
C651 C650 1.439 . S
C651 C676 1.395 . S
N652 Co641 1.995 . S
N652 C653 1.376 . S
N652 C656 1.383 . S
C653 N652 1.376 . S
C653 C654 1.446 . S
C653 C676 1.391 . S
C654 C653 1.446 . S
C654 C655 1.339 . S
C654 H683 0.949 . S
C655 C654 1.339 . S
C655 C656 1.439 . S
C655 H684 0.950 . S
C656 N652 1.383 . S
C656 C655 1.439 . S
C656 C674 1.392 . S
N657 Co641 2.282 . S
N657 C660 1.332 . S
N657 C662 1.332 . S
C658 C659 1.386 . S
C658 C661 1.388 . S
C659 C658 1.386 . S
C659 C660 1.382 . S
C659 H685 0.950 . S
C660 N657 1.332 . S
C660 C659 1.382 . S
C660 H671 0.952 . S
C661 C658 1.388 . S
C661 C662 1.382 . S
C661 H686 0.950 . S
C662 N657 1.332 . S
C662 C661 1.382 . S
C662 H672 0.948 . S
N663 Co641 2.282 . S
N663 C667 1.332 . S
N663 C668 1.332 . S
C664 C665 1.388 . S
C664 C668 1.382 . S
C664 H687 0.950 . S
C665 C664 1.388 . S
C665 C666 1.386 . S
C666 C665 1.386 . S
C666 C667 1.382 . S
C666 H688 0.950 . S
C667 N663 1.332 . S
C667 C666 1.382 . S
C667 H669 0.952 . S
C668 N663 1.332 . S
C668 C664 1.382 . S
C668 H670 0.948 . S
H669 C667 0.952 . S
H670 C668 0.948 . S
H671 C660 0.952 . S
H672 C662 0.948 . S
C673 C639 1.395 . S
C673 C643 1.391 . S
C674 C636 1.389 . S
C674 C656 1.392 . S
C675 C646 1.392 . S
C675 C648 1.389 . S
C676 C651 1.395 . S
C676 C653 1.391 . S
H677 C637 0.951 . S
H678 C638 0.950 . S
H679 C644 0.949 . S
H680 C645 0.950 . S
H681 C649 0.951 . S
H682 C650 0.950 . S
H683 C654 0.949 . S
H684 C655 0.950 . S
H685 C659 0.950 . S
H686 C661 0.950 . S
H687 C664 0.950 . S
H688 C666 0.950 . S
C689 C690 1.443 . S
C689 N693 1.376 . S
C689 C727 1.389 . S
C690 C689 1.443 . S
C690 C691 1.340 . S
C690 H730 0.951 . S
C691 C690 1.340 . S
C691 C692 1.439 . S
C691 H731 0.950 . S
C692 C691 1.439 . S
C692 N693 1.374 . S
C692 C726 1.395 . S
N693 C689 1.376 . S
N693 C692 1.374 . S
N693 Co694 2.008 . S
Co694 N693 2.008 . S
Co694 N695 1.995 . S
Co694 N700 2.008 . S
Co694 N705 1.995 . S
Co694 N710 2.282 . S
Co694 N716 2.282 . S
N695 Co694 1.995 . S
N695 C696 1.376 . S
N695 C699 1.383 . S
C696 N695 1.376 . S
C696 C697 1.446 . S
C696 C726 1.391 . S
C697 C696 1.446 . S
C697 C698 1.339 . S
C697 H732 0.949 . S
C698 C697 1.339 . S
C698 C699 1.439 . S
C698 H733 0.950 . S
C699 N695 1.383 . S
C699 C698 1.439 . S
C699 C728 1.392 . S
N700 Co694 2.008 . S
N700 C701 1.376 . S
N700 C704 1.374 . S
C701 N700 1.376 . S
C701 C702 1.443 . S
C701 C728 1.389 . S
C702 C701 1.443 . S
C702 C703 1.340 . S
C702 H734 0.951 . S
C703 C702 1.340 . S
C703 C704 1.439 . S
C703 H735 0.950 . S
C704 N700 1.374 . S
C704 C703 1.439 . S
C704 C729 1.395 . S
N705 Co694 1.995 . S
N705 C706 1.376 . S
N705 C709 1.383 . S
C706 N705 1.376 . S
C706 C707 1.446 . S
C706 C729 1.391 . S
C707 C706 1.446 . S
C707 C708 1.339 . S
C707 H736 0.949 . S
C708 C707 1.339 . S
C708 C709 1.439 . S
C708 H737 0.950 . S
C709 N705 1.383 . S
C709 C708 1.439 . S
C709 C727 1.392 . S
N710 Co694 2.282 . S
N710 C713 1.332 . S
N710 C715 1.332 . S
C711 C712 1.386 . S
C711 C714 1.388 . S
C712 C711 1.386 . S
C712 C713 1.382 . S
C712 H738 0.950 . S
C713 N710 1.332 . S
C713 C712 1.382 . S
C713 H724 0.952 . S
C714 C711 1.388 . S
C714 C715 1.382 . S
C714 H739 0.950 . S
C715 N710 1.332 . S
C715 C714 1.382 . S
C715 H725 0.948 . S
N716 Co694 2.282 . S
N716 C720 1.332 . S
N716 C721 1.332 . S
C717 C718 1.388 . S
C717 C721 1.382 . S
C717 H740 0.950 . S
C718 C717 1.388 . S
C718 C719 1.386 . S
C719 C718 1.386 . S
C719 C720 1.382 . S
C719 H741 0.950 . S
C720 N716 1.332 . S
C720 C719 1.382 . S
C720 H722 0.952 . S
C721 N716 1.332 . S
C721 C717 1.382 . S
C721 H723 0.948 . S
H722 C720 0.952 . S
H723 C721 0.948 . S
H724 C713 0.952 . S
H725 C715 0.948 . S
C726 C692 1.395 . S
C726 C696 1.391 . S
C727 C689 1.389 . S
C727 C709 1.392 . S
C728 C699 1.392 . S
C728 C701 1.389 . S
C729 C704 1.395 . S
C729 C706 1.391 . S
H730 C690 0.951 . S
H731 C691 0.950 . S
H732 C697 0.949 . S
H733 C698 0.950 . S
H734 C702 0.951 . S
H735 C703 0.950 . S
H736 C707 0.949 . S
H737 C708 0.950 . S
H738 C712 0.950 . S
H739 C714 0.950 . S
H740 C717 0.950 . S
H741 C719 0.950 . S
C742 C743 1.443 . S
C742 N746 1.376 . S
C742 C780 1.389 . S
C743 C742 1.443 . S
C743 C744 1.340 . S
C743 H783 0.951 . S
C744 C743 1.340 . S
C744 C745 1.439 . S
C744 H784 0.950 . S
C745 C744 1.439 . S
C745 N746 1.374 . S
C745 C779 1.395 . S
N746 C742 1.376 . S
N746 C745 1.374 . S
N746 Co747 2.008 . S
Co747 N746 2.008 . S
Co747 N748 1.995 . S
Co747 N753 2.008 . S
Co747 N758 1.995 . S
Co747 N763 2.282 . S
Co747 N769 2.282 . S
N748 Co747 1.995 . S
N748 C749 1.376 . S
N748 C752 1.383 . S
C749 N748 1.376 . S
C749 C750 1.446 . S
C749 C779 1.391 . S
C750 C749 1.446 . S
C750 C751 1.339 . S
C750 H785 0.949 . S
C751 C750 1.339 . S
C751 C752 1.439 . S
C751 H786 0.950 . S
C752 N748 1.383 . S
C752 C751 1.439 . S
C752 C781 1.392 . S
N753 Co747 2.008 . S
N753 C754 1.376 . S
N753 C757 1.374 . S
C754 N753 1.376 . S
C754 C755 1.443 . S
C754 C781 1.389 . S
C755 C754 1.443 . S
C755 C756 1.340 . S
C755 H787 0.951 . S
C756 C755 1.340 . S
C756 C757 1.439 . S
C756 H788 0.950 . S
C757 N753 1.374 . S
C757 C756 1.439 . S
C757 C782 1.395 . S
N758 Co747 1.995 . S
N758 C759 1.376 . S
N758 C762 1.383 . S
C759 N758 1.376 . S
C759 C760 1.446 . S
C759 C782 1.391 . S
C760 C759 1.446 . S
C760 C761 1.339 . S
C760 H789 0.949 . S
C761 C760 1.339 . S
C761 C762 1.439 . S
C761 H790 0.950 . S
C762 N758 1.383 . S
C762 C761 1.439 . S
C762 C780 1.392 . S
N763 Co747 2.282 . S
N763 C766 1.332 . S
N763 C768 1.332 . S
C764 C765 1.386 . S
C764 C767 1.388 . S
C765 C764 1.386 . S
C765 C766 1.382 . S
C765 H791 0.950 . S
C766 N763 1.332 . S
C766 C765 1.382 . S
C766 H777 0.952 . S
C767 C764 1.388 . S
C767 C768 1.382 . S
C767 H792 0.950 . S
C768 N763 1.332 . S
C768 C767 1.382 . S
C768 H778 0.948 . S
N769 Co747 2.282 . S
N769 C773 1.332 . S
N769 C774 1.332 . S
C770 C771 1.388 . S
C770 C774 1.382 . S
C770 H793 0.950 . S
C771 C770 1.388 . S
C771 C772 1.386 . S
C772 C771 1.386 . S
C772 C773 1.382 . S
C772 H794 0.950 . S
C773 N769 1.332 . S
C773 C772 1.382 . S
C773 H775 0.952 . S
C774 N769 1.332 . S
C774 C770 1.382 . S
C774 H776 0.948 . S
H775 C773 0.952 . S
H776 C774 0.948 . S
H777 C766 0.952 . S
H778 C768 0.948 . S
C779 C745 1.395 . S
C779 C749 1.391 . S
C780 C742 1.389 . S
C780 C762 1.392 . S
C781 C752 1.392 . S
C781 C754 1.389 . S
C782 C757 1.395 . S
C782 C759 1.391 . S
H783 C743 0.951 . S
H784 C744 0.950 . S
H785 C750 0.949 . S
H786 C751 0.950 . S
H787 C755 0.951 . S
H788 C756 0.950 . S
H789 C760 0.949 . S
H790 C761 0.950 . S
H791 C765 0.950 . S
H792 C767 0.950 . S
H793 C770 0.950 . S
H794 C772 0.950 . S
C795 C796 1.443 . S
C795 N799 1.376 . S
C795 C833 1.389 . S
C796 C795 1.443 . S
C796 C797 1.340 . S
C796 H836 0.951 . S
C797 C796 1.340 . S
C797 C798 1.439 . S
C797 H837 0.950 . S
C798 C797 1.439 . S
C798 N799 1.374 . S
C798 C832 1.395 . S
N799 C795 1.376 . S
N799 C798 1.374 . S
N799 Co800 2.008 . S
Co800 N799 2.008 . S
Co800 N801 1.995 . S
Co800 N806 2.008 . S
Co800 N811 1.995 . S
Co800 N816 2.282 . S
Co800 N822 2.282 . S
N801 Co800 1.995 . S
N801 C802 1.376 . S
N801 C805 1.383 . S
C802 N801 1.376 . S
C802 C803 1.446 . S
C802 C832 1.391 . S
C803 C802 1.446 . S
C803 C804 1.339 . S
C803 H838 0.949 . S
C804 C803 1.339 . S
C804 C805 1.439 . S
C804 H839 0.950 . S
C805 N801 1.383 . S
C805 C804 1.439 . S
C805 C834 1.392 . S
N806 Co800 2.008 . S
N806 C807 1.376 . S
N806 C810 1.374 . S
C807 N806 1.376 . S
C807 C808 1.443 . S
C807 C834 1.389 . S
C808 C807 1.443 . S
C808 C809 1.340 . S
C808 H840 0.951 . S
C809 C808 1.340 . S
C809 C810 1.439 . S
C809 H841 0.950 . S
C810 N806 1.374 . S
C810 C809 1.439 . S
C810 C835 1.395 . S
N811 Co800 1.995 . S
N811 C812 1.376 . S
N811 C815 1.383 . S
C812 N811 1.376 . S
C812 C813 1.446 . S
C812 C835 1.391 . S
C813 C812 1.446 . S
C813 C814 1.339 . S
C813 H842 0.949 . S
C814 C813 1.339 . S
C814 C815 1.439 . S
C814 H843 0.950 . S
C815 N811 1.383 . S
C815 C814 1.439 . S
C815 C833 1.392 . S
N816 Co800 2.282 . S
N816 C819 1.332 . S
N816 C821 1.332 . S
C817 C818 1.386 . S
C817 C820 1.388 . S
C818 C817 1.386 . S
C818 C819 1.382 . S
C818 H844 0.950 . S
C819 N816 1.332 . S
C819 C818 1.382 . S
C819 H830 0.952 . S
C820 C817 1.388 . S
C820 C821 1.382 . S
C820 H845 0.950 . S
C821 N816 1.332 . S
C821 C820 1.382 . S
C821 H831 0.948 . S
N822 Co800 2.282 . S
N822 C826 1.332 . S
N822 C827 1.332 . S
C823 C824 1.388 . S
C823 C827 1.382 . S
C823 H846 0.950 . S
C824 C823 1.388 . S
C824 C825 1.386 . S
C825 C824 1.386 . S
C825 C826 1.382 . S
C825 H847 0.950 . S
C826 N822 1.332 . S
C826 C825 1.382 . S
C826 H828 0.952 . S
C827 N822 1.332 . S
C827 C823 1.382 . S
C827 H829 0.948 . S
H828 C826 0.952 . S
H829 C827 0.948 . S
H830 C819 0.952 . S
H831 C821 0.948 . S
C832 C798 1.395 . S
C832 C802 1.391 . S
C833 C795 1.389 . S
C833 C815 1.392 . S
C834 C805 1.392 . S
C834 C807 1.389 . S
C835 C810 1.395 . S
C835 C812 1.391 . S
H836 C796 0.951 . S
H837 C797 0.950 . S
H838 C803 0.949 . S
H839 C804 0.950 . S
H840 C808 0.951 . S
H841 C809 0.950 . S
H842 C813 0.949 . S
H843 C814 0.950 . S
H844 C818 0.950 . S
H845 C820 0.950 . S
H846 C823 0.950 . S
H847 C825 0.950 . S
C848 C849 1.443 . S
C848 N852 1.376 . S
C848 C886 1.389 . S
C849 C848 1.443 . S
C849 C850 1.340 . S
C849 H889 0.951 . S
C850 C849 1.340 . S
C850 C851 1.439 . S
C850 H890 0.950 . S
C851 C850 1.439 . S
C851 N852 1.374 . S
C851 C885 1.395 . S
N852 C848 1.376 . S
N852 C851 1.374 . S
N852 Co853 2.008 . S
Co853 N852 2.008 . S
Co853 N854 1.995 . S
Co853 N859 2.008 . S
Co853 N864 1.995 . S
Co853 N869 2.282 . S
Co853 N875 2.282 . S
N854 Co853 1.995 . S
N854 C855 1.376 . S
N854 C858 1.383 . S
C855 N854 1.376 . S
C855 C856 1.446 . S
C855 C885 1.391 . S
C856 C855 1.446 . S
C856 C857 1.339 . S
C856 H891 0.949 . S
C857 C856 1.339 . S
C857 C858 1.439 . S
C857 H892 0.950 . S
C858 N854 1.383 . S
C858 C857 1.439 . S
C858 C887 1.392 . S
N859 Co853 2.008 . S
N859 C860 1.376 . S
N859 C863 1.374 . S
C860 N859 1.376 . S
C860 C861 1.443 . S
C860 C887 1.389 . S
C861 C860 1.443 . S
C861 C862 1.340 . S
C861 H893 0.951 . S
C862 C861 1.340 . S
C862 C863 1.439 . S
C862 H894 0.950 . S
C863 N859 1.374 . S
C863 C862 1.439 . S
C863 C888 1.395 . S
N864 Co853 1.995 . S
N864 C865 1.376 . S
N864 C868 1.383 . S
C865 N864 1.376 . S
C865 C866 1.446 . S
C865 C888 1.391 . S
C866 C865 1.446 . S
C866 C867 1.339 . S
C866 H895 0.949 . S
C867 C866 1.339 . S
C867 C868 1.439 . S
C867 H896 0.950 . S
C868 N864 1.383 . S
C868 C867 1.439 . S
C868 C886 1.392 . S
N869 Co853 2.282 . S
N869 C872 1.332 . S
N869 C874 1.332 . S
C870 C871 1.386 . S
C870 C873 1.388 . S
C871 C870 1.386 . S
C871 C872 1.382 . S
C871 H897 0.950 . S
C872 N869 1.332 . S
C872 C871 1.382 . S
C872 H883 0.952 . S
C873 C870 1.388 . S
C873 C874 1.382 . S
C873 H898 0.950 . S
C874 N869 1.332 . S
C874 C873 1.382 . S
C874 H884 0.948 . S
N875 Co853 2.282 . S
N875 C879 1.332 . S
N875 C880 1.332 . S
C876 C877 1.388 . S
C876 C880 1.382 . S
C876 H899 0.950 . S
C877 C876 1.388 . S
C877 C878 1.386 . S
C878 C877 1.386 . S
C878 C879 1.382 . S
C878 H900 0.950 . S
C879 N875 1.332 . S
C879 C878 1.382 . S
C879 H881 0.952 . S
C880 N875 1.332 . S
C880 C876 1.382 . S
C880 H882 0.948 . S
H881 C879 0.952 . S
H882 C880 0.948 . S
H883 C872 0.952 . S
H884 C874 0.948 . S
C885 C851 1.395 . S
C885 C855 1.391 . S
C886 C848 1.389 . S
C886 C868 1.392 . S
C887 C858 1.392 . S
C887 C860 1.389 . S
C888 C863 1.395 . S
C888 C865 1.391 . S
H889 C849 0.951 . S
H890 C850 0.950 . S
H891 C856 0.949 . S
H892 C857 0.950 . S
H893 C861 0.951 . S
H894 C862 0.950 . S
H895 C866 0.949 . S
H896 C867 0.950 . S
H897 C871 0.950 . S
H898 C873 0.950 . S
H899 C876 0.950 . S
H900 C878 0.950 . S
C901 C902 1.443 . S
C901 N905 1.376 . S
C901 C939 1.389 . S
C902 C901 1.443 . S
C902 C903 1.340 . S
C902 H942 0.951 . S
C903 C902 1.340 . S
C903 C904 1.439 . S
C903 H943 0.950 . S
C904 C903 1.439 . S
C904 N905 1.374 . S
C904 C938 1.395 . S
N905 C901 1.376 . S
N905 C904 1.374 . S
N905 Co906 2.008 . S
Co906 N905 2.008 . S
Co906 N907 1.995 . S
Co906 N912 2.008 . S
Co906 N917 1.995 . S
Co906 N922 2.282 . S
Co906 N928 2.282 . S
N907 Co906 1.995 . S
N907 C908 1.376 . S
N907 C911 1.383 . S
C908 N907 1.376 . S
C908 C909 1.446 . S
C908 C938 1.391 . S
C909 C908 1.446 . S
C909 C910 1.339 . S
C909 H944 0.949 . S
C910 C909 1.339 . S
C910 C911 1.439 . S
C910 H945 0.950 . S
C911 N907 1.383 . S
C911 C910 1.439 . S
C911 C940 1.392 . S
N912 Co906 2.008 . S
N912 C913 1.376 . S
N912 C916 1.374 . S
C913 N912 1.376 . S
C913 C914 1.443 . S
C913 C940 1.389 . S
C914 C913 1.443 . S
C914 C915 1.340 . S
C914 H946 0.951 . S
C915 C914 1.340 . S
C915 C916 1.439 . S
C915 H947 0.950 . S
C916 N912 1.374 . S
C916 C915 1.439 . S
C916 C941 1.395 . S
N917 Co906 1.995 . S
N917 C918 1.376 . S
N917 C921 1.383 . S
C918 N917 1.376 . S
C918 C919 1.446 . S
C918 C941 1.391 . S
C919 C918 1.446 . S
C919 C920 1.339 . S
C919 H948 0.949 . S
C920 C919 1.339 . S
C920 C921 1.439 . S
C920 H949 0.950 . S
C921 N917 1.383 . S
C921 C920 1.439 . S
C921 C939 1.392 . S
N922 Co906 2.282 . S
N922 C925 1.332 . S
N922 C927 1.332 . S
C923 C924 1.386 . S
C923 C926 1.388 . S
C924 C923 1.386 . S
C924 C925 1.382 . S
C924 H950 0.950 . S
C925 N922 1.332 . S
C925 C924 1.382 . S
C925 H936 0.952 . S
C926 C923 1.388 . S
C926 C927 1.382 . S
C926 H951 0.950 . S
C927 N922 1.332 . S
C927 C926 1.382 . S
C927 H937 0.948 . S
N928 Co906 2.282 . S
N928 C932 1.332 . S
N928 C933 1.332 . S
C929 C930 1.388 . S
C929 C933 1.382 . S
C929 H952 0.950 . S
C930 C929 1.388 . S
C930 C931 1.386 . S
C931 C930 1.386 . S
C931 C932 1.382 . S
C931 H953 0.950 . S
C932 N928 1.332 . S
C932 C931 1.382 . S
C932 H934 0.952 . S
C933 N928 1.332 . S
C933 C929 1.382 . S
C933 H935 0.948 . S
H934 C932 0.952 . S
H935 C933 0.948 . S
H936 C925 0.952 . S
H937 C927 0.948 . S
C938 C904 1.395 . S
C938 C908 1.391 . S
C939 C901 1.389 . S
C939 C921 1.392 . S
C940 C911 1.392 . S
C940 C913 1.389 . S
C941 C916 1.395 . S
C941 C918 1.391 . S
H942 C902 0.951 . S
H943 C903 0.950 . S
H944 C909 0.949 . S
H945 C910 0.950 . S
H946 C914 0.951 . S
H947 C915 0.950 . S
H948 C919 0.949 . S
H949 C920 0.950 . S
H950 C924 0.950 . S
H951 C926 0.950 . S
H952 C929 0.950 . S
H953 C931 0.950 . S
C954 C955 1.443 . S
C954 N958 1.376 . S
C954 C992 1.389 . S
C955 C954 1.443 . S
C955 C956 1.340 . S
C955 H995 0.951 . S
C956 C955 1.340 . S
C956 C957 1.439 . S
C956 H996 0.950 . S
C957 C956 1.439 . S
C957 N958 1.374 . S
C957 C991 1.395 . S
N958 C954 1.376 . S
N958 C957 1.374 . S
N958 Co959 2.008 . S
Co959 N958 2.008 . S
Co959 N960 1.995 . S
Co959 N965 2.008 . S
Co959 N970 1.995 . S
Co959 N975 2.282 . S
Co959 N981 2.282 . S
N960 Co959 1.995 . S
N960 C961 1.376 . S
N960 C964 1.383 . S
C961 N960 1.376 . S
C961 C962 1.446 . S
C961 C991 1.391 . S
C962 C961 1.446 . S
C962 C963 1.339 . S
C962 H997 0.949 . S
C963 C962 1.339 . S
C963 C964 1.439 . S
C963 H998 0.950 . S
C964 N960 1.383 . S
C964 C963 1.439 . S
C964 C993 1.392 . S
N965 Co959 2.008 . S
N965 C966 1.376 . S
N965 C969 1.374 . S
C966 N965 1.376 . S
C966 C967 1.443 . S
C966 C993 1.389 . S
C967 C966 1.443 . S
C967 C968 1.340 . S
C967 H999 0.951 . S
C968 C967 1.340 . S
C968 C969 1.439 . S
C968 H1000 0.950 . S
C969 N965 1.374 . S
C969 C968 1.439 . S
C969 C994 1.395 . S
N970 Co959 1.995 . S
N970 C971 1.376 . S
N970 C974 1.383 . S
C971 N970 1.376 . S
C971 C972 1.446 . S
C971 C994 1.391 . S
C972 C971 1.446 . S
C972 C973 1.339 . S
C972 H1001 0.949 . S
C973 C972 1.339 . S
C973 C974 1.439 . S
C973 H1002 0.950 . S
C974 N970 1.383 . S
C974 C973 1.439 . S
C974 C992 1.392 . S
N975 Co959 2.282 . S
N975 C978 1.332 . S
N975 C980 1.332 . S
C976 C977 1.386 . S
C976 C979 1.388 . S
C977 C976 1.386 . S
C977 C978 1.382 . S
C977 H1003 0.950 . S
C978 N975 1.332 . S
C978 C977 1.382 . S
C978 H989 0.952 . S
C979 C976 1.388 . S
C979 C980 1.382 . S
C979 H1004 0.950 . S
C980 N975 1.332 . S
C980 C979 1.382 . S
C980 H990 0.948 . S
N981 Co959 2.282 . S
N981 C985 1.332 . S
N981 C986 1.332 . S
C982 C983 1.388 . S
C982 C986 1.382 . S
C982 H1005 0.950 . S
C983 C982 1.388 . S
C983 C984 1.386 . S
C984 C983 1.386 . S
C984 C985 1.382 . S
C984 H1006 0.950 . S
C985 N981 1.332 . S
C985 C984 1.382 . S
C985 H987 0.952 . S
C986 N981 1.332 . S
C986 C982 1.382 . S
C986 H988 0.948 . S
H987 C985 0.952 . S
H988 C986 0.948 . S
H989 C978 0.952 . S
H990 C980 0.948 . S
C991 C957 1.395 . S
C991 C961 1.391 . S
C992 C954 1.389 . S
C992 C974 1.392 . S
C993 C964 1.392 . S
C993 C966 1.389 . S
C994 C969 1.395 . S
C994 C971 1.391 . S
H995 C955 0.951 . S
H996 C956 0.950 . S
H997 C962 0.949 . S
H998 C963 0.950 . S
H999 C967 0.951 . S
H1000 C968 0.950 . S
H1001 C972 0.949 . S
H1002 C973 0.950 . S
H1003 C977 0.950 . S
H1004 C979 0.950 . S
H1005 C982 0.950 . S
H1006 C984 0.950 . S
C1007 C1008 1.443 . S
C1007 N1011 1.376 . S
C1007 C1045 1.389 . S
C1008 C1007 1.443 . S
C1008 C1009 1.340 . S
C1008 H1048 0.951 . S
C1009 C1008 1.340 . S
C1009 C1010 1.439 . S
C1009 H1049 0.950 . S
C1010 C1009 1.439 . S
C1010 N1011 1.374 . S
C1010 C1044 1.395 . S
N1011 C1007 1.376 . S
N1011 C1010 1.374 . S
N1011 Co1012 2.008 . S
Co1012 N1011 2.008 . S
Co1012 N1013 1.995 . S
Co1012 N1018 2.008 . S
Co1012 N1023 1.995 . S
Co1012 N1028 2.282 . S
Co1012 N1034 2.282 . S
N1013 Co1012 1.995 . S
N1013 C1014 1.376 . S
N1013 C1017 1.383 . S
C1014 N1013 1.376 . S
C1014 C1015 1.446 . S
C1014 C1044 1.391 . S
C1015 C1014 1.446 . S
C1015 C1016 1.339 . S
C1015 H1050 0.949 . S
C1016 C1015 1.339 . S
C1016 C1017 1.439 . S
C1016 H1051 0.950 . S
C1017 N1013 1.383 . S
C1017 C1016 1.439 . S
C1017 C1046 1.392 . S
N1018 Co1012 2.008 . S
N1018 C1019 1.376 . S
N1018 C1022 1.374 . S
C1019 N1018 1.376 . S
C1019 C1020 1.443 . S
C1019 C1046 1.389 . S
C1020 C1019 1.443 . S
C1020 C1021 1.340 . S
C1020 H1052 0.951 . S
C1021 C1020 1.340 . S
C1021 C1022 1.439 . S
C1021 H1053 0.950 . S
C1022 N1018 1.374 . S
C1022 C1021 1.439 . S
C1022 C1047 1.395 . S
N1023 Co1012 1.995 . S
N1023 C1024 1.376 . S
N1023 C1027 1.383 . S
C1024 N1023 1.376 . S
C1024 C1025 1.446 . S
C1024 C1047 1.391 . S
C1025 C1024 1.446 . S
C1025 C1026 1.339 . S
C1025 H1054 0.949 . S
C1026 C1025 1.339 . S
C1026 C1027 1.439 . S
C1026 H1055 0.950 . S
C1027 N1023 1.383 . S
C1027 C1026 1.439 . S
C1027 C1045 1.392 . S
N1028 Co1012 2.282 . S
N1028 C1031 1.332 . S
N1028 C1033 1.332 . S
C1029 C1030 1.386 . S
C1029 C1032 1.388 . S
C1030 C1029 1.386 . S
C1030 C1031 1.382 . S
C1030 H1056 0.950 . S
C1031 N1028 1.332 . S
C1031 C1030 1.382 . S
C1031 H1042 0.952 . S
C1032 C1029 1.388 . S
C1032 C1033 1.382 . S
C1032 H1057 0.950 . S
C1033 N1028 1.332 . S
C1033 C1032 1.382 . S
C1033 H1043 0.948 . S
N1034 Co1012 2.282 . S
N1034 C1038 1.332 . S
N1034 C1039 1.332 . S
C1035 C1036 1.388 . S
C1035 C1039 1.382 . S
C1035 H1058 0.950 . S
C1036 C1035 1.388 . S
C1036 C1037 1.386 . S
C1037 C1036 1.386 . S
C1037 C1038 1.382 . S
C1037 H1059 0.950 . S
C1038 N1034 1.332 . S
C1038 C1037 1.382 . S
C1038 H1040 0.952 . S
C1039 N1034 1.332 . S
C1039 C1035 1.382 . S
C1039 H1041 0.948 . S
H1040 C1038 0.952 . S
H1041 C1039 0.948 . S
H1042 C1031 0.952 . S
H1043 C1033 0.948 . S
C1044 C1010 1.395 . S
C1044 C1014 1.391 . S
C1045 C1007 1.389 . S
C1045 C1027 1.392 . S
C1046 C1017 1.392 . S
C1046 C1019 1.389 . S
C1047 C1022 1.395 . S
C1047 C1024 1.391 . S
H1048 C1008 0.951 . S
H1049 C1009 0.950 . S
H1050 C1015 0.949 . S
H1051 C1016 0.950 . S
H1052 C1020 0.951 . S
H1053 C1021 0.950 . S
H1054 C1025 0.949 . S
H1055 C1026 0.950 . S
H1056 C1030 0.950 . S
H1057 C1032 0.950 . S
H1058 C1035 0.950 . S
H1059 C1037 0.950 . S
C1060 C1061 1.443 . S
C1060 N1064 1.376 . S
C1060 C1098 1.389 . S
C1061 C1060 1.443 . S
C1061 C1062 1.340 . S
C1061 H1101 0.951 . S
C1062 C1061 1.340 . S
C1062 C1063 1.439 . S
C1062 H1102 0.950 . S
C1063 C1062 1.439 . S
C1063 N1064 1.374 . S
C1063 C1097 1.395 . S
N1064 C1060 1.376 . S
N1064 C1063 1.374 . S
N1064 Co1065 2.008 . S
Co1065 N1064 2.008 . S
Co1065 N1066 1.995 . S
Co1065 N1071 2.008 . S
Co1065 N1076 1.995 . S
Co1065 N1081 2.282 . S
Co1065 N1087 2.282 . S
N1066 Co1065 1.995 . S
N1066 C1067 1.376 . S
N1066 C1070 1.383 . S
C1067 N1066 1.376 . S
C1067 C1068 1.446 . S
C1067 C1097 1.391 . S
C1068 C1067 1.446 . S
C1068 C1069 1.339 . S
C1068 H1103 0.949 . S
C1069 C1068 1.339 . S
C1069 C1070 1.439 . S
C1069 H1104 0.950 . S
C1070 N1066 1.383 . S
C1070 C1069 1.439 . S
C1070 C1099 1.392 . S
N1071 Co1065 2.008 . S
N1071 C1072 1.376 . S
N1071 C1075 1.374 . S
C1072 N1071 1.376 . S
C1072 C1073 1.443 . S
C1072 C1099 1.389 . S
C1073 C1072 1.443 . S
C1073 C1074 1.340 . S
C1073 H1105 0.951 . S
C1074 C1073 1.340 . S
C1074 C1075 1.439 . S
C1074 H1106 0.950 . S
C1075 N1071 1.374 . S
C1075 C1074 1.439 . S
C1075 C1100 1.395 . S
N1076 Co1065 1.995 . S
N1076 C1077 1.376 . S
N1076 C1080 1.383 . S
C1077 N1076 1.376 . S
C1077 C1078 1.446 . S
C1077 C1100 1.391 . S
C1078 C1077 1.446 . S
C1078 C1079 1.339 . S
C1078 H1107 0.949 . S
C1079 C1078 1.339 . S
C1079 C1080 1.439 . S
C1079 H1108 0.950 . S
C1080 N1076 1.383 . S
C1080 C1079 1.439 . S
C1080 C1098 1.392 . S
N1081 Co1065 2.282 . S
N1081 C1084 1.332 . S
N1081 C1086 1.332 . S
C1082 C1083 1.386 . S
C1082 C1085 1.388 . S
C1083 C1082 1.386 . S
C1083 C1084 1.382 . S
C1083 H1109 0.950 . S
C1084 N1081 1.332 . S
C1084 C1083 1.382 . S
C1084 H1095 0.952 . S
C1085 C1082 1.388 . S
C1085 C1086 1.382 . S
C1085 H1110 0.950 . S
C1086 N1081 1.332 . S
C1086 C1085 1.382 . S
C1086 H1096 0.948 . S
N1087 Co1065 2.282 . S
N1087 C1091 1.332 . S
N1087 C1092 1.332 . S
C1088 C1089 1.388 . S
C1088 C1092 1.382 . S
C1088 H1111 0.950 . S
C1089 C1088 1.388 . S
C1089 C1090 1.386 . S
C1090 C1089 1.386 . S
C1090 C1091 1.382 . S
C1090 H1112 0.950 . S
C1091 N1087 1.332 . S
C1091 C1090 1.382 . S
C1091 H1093 0.952 . S
C1092 N1087 1.332 . S
C1092 C1088 1.382 . S
C1092 H1094 0.948 . S
H1093 C1091 0.952 . S
H1094 C1092 0.948 . S
H1095 C1084 0.952 . S
H1096 C1086 0.948 . S
C1097 C1063 1.395 . S
C1097 C1067 1.391 . S
C1098 C1060 1.389 . S
C1098 C1080 1.392 . S
C1099 C1070 1.392 . S
C1099 C1072 1.389 . S
C1100 C1075 1.395 . S
C1100 C1077 1.391 . S
H1101 C1061 0.951 . S
H1102 C1062 0.950 . S
H1103 C1068 0.949 . S
H1104 C1069 0.950 . S
H1105 C1073 0.951 . S
H1106 C1074 0.950 . S
H1107 C1078 0.949 . S
H1108 C1079 0.950 . S
H1109 C1083 0.950 . S
H1110 C1085 0.950 . S
H1111 C1088 0.950 . S
H1112 C1090 0.950 . S
C1113 C1114 1.443 . S
C1113 N1117 1.376 . S
C1113 C1151 1.389 . S
C1114 C1113 1.443 . S
C1114 C1115 1.340 . S
C1114 H1154 0.951 . S
C1115 C1114 1.340 . S
C1115 C1116 1.439 . S
C1115 H1155 0.950 . S
C1116 C1115 1.439 . S
C1116 N1117 1.374 . S
C1116 C1150 1.395 . S
N1117 C1113 1.376 . S
N1117 C1116 1.374 . S
N1117 Co1118 2.008 . S
Co1118 N1117 2.008 . S
Co1118 N1119 1.995 . S
Co1118 N1124 2.008 . S
Co1118 N1129 1.995 . S
Co1118 N1134 2.282 . S
Co1118 N1140 2.282 . S
N1119 Co1118 1.995 . S
N1119 C1120 1.376 . S
N1119 C1123 1.383 . S
C1120 N1119 1.376 . S
C1120 C1121 1.446 . S
C1120 C1150 1.391 . S
C1121 C1120 1.446 . S
C1121 C1122 1.339 . S
C1121 H1156 0.949 . S
C1122 C1121 1.339 . S
C1122 C1123 1.439 . S
C1122 H1157 0.950 . S
C1123 N1119 1.383 . S
C1123 C1122 1.439 . S
C1123 C1152 1.392 . S
N1124 Co1118 2.008 . S
N1124 C1125 1.376 . S
N1124 C1128 1.374 . S
C1125 N1124 1.376 . S
C1125 C1126 1.443 . S
C1125 C1152 1.389 . S
C1126 C1125 1.443 . S
C1126 C1127 1.340 . S
C1126 H1158 0.951 . S
C1127 C1126 1.340 . S
C1127 C1128 1.439 . S
C1127 H1159 0.950 . S
C1128 N1124 1.374 . S
C1128 C1127 1.439 . S
C1128 C1153 1.395 . S
N1129 Co1118 1.995 . S
N1129 C1130 1.376 . S
N1129 C1133 1.383 . S
C1130 N1129 1.376 . S
C1130 C1131 1.446 . S
C1130 C1153 1.391 . S
C1131 C1130 1.446 . S
C1131 C1132 1.339 . S
C1131 H1160 0.949 . S
C1132 C1131 1.339 . S
C1132 C1133 1.439 . S
C1132 H1161 0.950 . S
C1133 N1129 1.383 . S
C1133 C1132 1.439 . S
C1133 C1151 1.392 . S
N1134 Co1118 2.282 . S
N1134 C1137 1.332 . S
N1134 C1139 1.332 . S
C1135 C1136 1.386 . S
C1135 C1138 1.388 . S
C1136 C1135 1.386 . S
C1136 C1137 1.382 . S
C1136 H1162 0.950 . S
C1137 N1134 1.332 . S
C1137 C1136 1.382 . S
C1137 H1148 0.952 . S
C1138 C1135 1.388 . S
C1138 C1139 1.382 . S
C1138 H1163 0.950 . S
C1139 N1134 1.332 . S
C1139 C1138 1.382 . S
C1139 H1149 0.948 . S
N1140 Co1118 2.282 . S
N1140 C1144 1.332 . S
N1140 C1145 1.332 . S
C1141 C1142 1.388 . S
C1141 C1145 1.382 . S
C1141 H1164 0.950 . S
C1142 C1141 1.388 . S
C1142 C1143 1.386 . S
C1143 C1142 1.386 . S
C1143 C1144 1.382 . S
C1143 H1165 0.950 . S
C1144 N1140 1.332 . S
C1144 C1143 1.382 . S
C1144 H1146 0.952 . S
C1145 N1140 1.332 . S
C1145 C1141 1.382 . S
C1145 H1147 0.948 . S
H1146 C1144 0.952 . S
H1147 C1145 0.948 . S
H1148 C1137 0.952 . S
H1149 C1139 0.948 . S
C1150 C1116 1.395 . S
C1150 C1120 1.391 . S
C1151 C1113 1.389 . S
C1151 C1133 1.392 . S
C1152 C1123 1.392 . S
C1152 C1125 1.389 . S
C1153 C1128 1.395 . S
C1153 C1130 1.391 . S
H1154 C1114 0.951 . S
H1155 C1115 0.950 . S
H1156 C1121 0.949 . S
H1157 C1122 0.950 . S
H1158 C1126 0.951 . S
H1159 C1127 0.950 . S
H1160 C1131 0.949 . S
H1161 C1132 0.950 . S
H1162 C1136 0.950 . S
H1163 C1138 0.950 . S
H1164 C1141 0.950 . S
H1165 C1143 0.950 . S
C1166 C1167 1.443 . S
C1166 N1170 1.376 . S
C1166 C1204 1.389 . S
C1167 C1166 1.443 . S
C1167 C1168 1.340 . S
C1167 H1207 0.951 . S
C1168 C1167 1.340 . S
C1168 C1169 1.439 . S
C1168 H1208 0.950 . S
C1169 C1168 1.439 . S
C1169 N1170 1.374 . S
C1169 C1203 1.395 . S
N1170 C1166 1.376 . S
N1170 C1169 1.374 . S
N1170 Co1171 2.008 . S
Co1171 N1170 2.008 . S
Co1171 N1172 1.995 . S
Co1171 N1177 2.008 . S
Co1171 N1182 1.995 . S
Co1171 N1187 2.282 . S
Co1171 N1193 2.282 . S
N1172 Co1171 1.995 . S
N1172 C1173 1.376 . S
N1172 C1176 1.383 . S
C1173 N1172 1.376 . S
C1173 C1174 1.446 . S
C1173 C1203 1.391 . S
C1174 C1173 1.446 . S
C1174 C1175 1.339 . S
C1174 H1209 0.949 . S
C1175 C1174 1.339 . S
C1175 C1176 1.439 . S
C1175 H1210 0.950 . S
C1176 N1172 1.383 . S
C1176 C1175 1.439 . S
C1176 C1205 1.392 . S
N1177 Co1171 2.008 . S
N1177 C1178 1.376 . S
N1177 C1181 1.374 . S
C1178 N1177 1.376 . S
C1178 C1179 1.443 . S
C1178 C1205 1.389 . S
C1179 C1178 1.443 . S
C1179 C1180 1.340 . S
C1179 H1211 0.951 . S
C1180 C1179 1.340 . S
C1180 C1181 1.439 . S
C1180 H1212 0.950 . S
C1181 N1177 1.374 . S
C1181 C1180 1.439 . S
C1181 C1206 1.395 . S
N1182 Co1171 1.995 . S
N1182 C1183 1.376 . S
N1182 C1186 1.383 . S
C1183 N1182 1.376 . S
C1183 C1184 1.446 . S
C1183 C1206 1.391 . S
C1184 C1183 1.446 . S
C1184 C1185 1.339 . S
C1184 H1213 0.949 . S
C1185 C1184 1.339 . S
C1185 C1186 1.439 . S
C1185 H1214 0.950 . S
C1186 N1182 1.383 . S
C1186 C1185 1.439 . S
C1186 C1204 1.392 . S
N1187 Co1171 2.282 . S
N1187 C1190 1.332 . S
N1187 C1192 1.332 . S
C1188 C1189 1.386 . S
C1188 C1191 1.388 . S
C1189 C1188 1.386 . S
C1189 C1190 1.382 . S
C1189 H1215 0.950 . S
C1190 N1187 1.332 . S
C1190 C1189 1.382 . S
C1190 H1201 0.952 . S
C1191 C1188 1.388 . S
C1191 C1192 1.382 . S
C1191 H1216 0.950 . S
C1192 N1187 1.332 . S
C1192 C1191 1.382 . S
C1192 H1202 0.948 . S
N1193 Co1171 2.282 . S
N1193 C1197 1.332 . S
N1193 C1198 1.332 . S
C1194 C1195 1.388 . S
C1194 C1198 1.382 . S
C1194 H1217 0.950 . S
C1195 C1194 1.388 . S
C1195 C1196 1.386 . S
C1196 C1195 1.386 . S
C1196 C1197 1.382 . S
C1196 H1218 0.950 . S
C1197 N1193 1.332 . S
C1197 C1196 1.382 . S
C1197 H1199 0.952 . S
C1198 N1193 1.332 . S
C1198 C1194 1.382 . S
C1198 H1200 0.948 . S
H1199 C1197 0.952 . S
H1200 C1198 0.948 . S
H1201 C1190 0.952 . S
H1202 C1192 0.948 . S
C1203 C1169 1.395 . S
C1203 C1173 1.391 . S
C1204 C1166 1.389 . S
C1204 C1186 1.392 . S
C1205 C1176 1.392 . S
C1205 C1178 1.389 . S
C1206 C1181 1.395 . S
C1206 C1183 1.391 . S
H1207 C1167 0.951 . S
H1208 C1168 0.950 . S
H1209 C1174 0.949 . S
H1210 C1175 0.950 . S
H1211 C1179 0.951 . S
H1212 C1180 0.950 . S
H1213 C1184 0.949 . S
H1214 C1185 0.950 . S
H1215 C1189 0.950 . S
H1216 C1191 0.950 . S
H1217 C1194 0.950 . S
H1218 C1196 0.950 . S
C1219 C1220 1.443 . S
C1219 N1223 1.376 . S
C1219 C1257 1.389 . S
C1220 C1219 1.443 . S
C1220 C1221 1.340 . S
C1220 H1260 0.951 . S
C1221 C1220 1.340 . S
C1221 C1222 1.439 . S
C1221 H1261 0.950 . S
C1222 C1221 1.439 . S
C1222 N1223 1.374 . S
C1222 C1256 1.395 . S
N1223 C1219 1.376 . S
N1223 C1222 1.374 . S
N1223 Co1224 2.008 . S
Co1224 N1223 2.008 . S
Co1224 N1225 1.995 . S
Co1224 N1230 2.008 . S
Co1224 N1235 1.995 . S
Co1224 N1240 2.282 . S
Co1224 N1246 2.282 . S
N1225 Co1224 1.995 . S
N1225 C1226 1.376 . S
N1225 C1229 1.383 . S
C1226 N1225 1.376 . S
C1226 C1227 1.446 . S
C1226 C1256 1.391 . S
C1227 C1226 1.446 . S
C1227 C1228 1.339 . S
C1227 H1262 0.949 . S
C1228 C1227 1.339 . S
C1228 C1229 1.439 . S
C1228 H1263 0.950 . S
C1229 N1225 1.383 . S
C1229 C1228 1.439 . S
C1229 C1258 1.392 . S
N1230 Co1224 2.008 . S
N1230 C1231 1.376 . S
N1230 C1234 1.374 . S
C1231 N1230 1.376 . S
C1231 C1232 1.443 . S
C1231 C1258 1.389 . S
C1232 C1231 1.443 . S
C1232 C1233 1.340 . S
C1232 H1264 0.951 . S
C1233 C1232 1.340 . S
C1233 C1234 1.439 . S
C1233 H1265 0.950 . S
C1234 N1230 1.374 . S
C1234 C1233 1.439 . S
C1234 C1259 1.395 . S
N1235 Co1224 1.995 . S
N1235 C1236 1.376 . S
N1235 C1239 1.383 . S
C1236 N1235 1.376 . S
C1236 C1237 1.446 . S
C1236 C1259 1.391 . S
C1237 C1236 1.446 . S
C1237 C1238 1.339 . S
C1237 H1266 0.949 . S
C1238 C1237 1.339 . S
C1238 C1239 1.439 . S
C1238 H1267 0.950 . S
C1239 N1235 1.383 . S
C1239 C1238 1.439 . S
C1239 C1257 1.392 . S
N1240 Co1224 2.282 . S
N1240 C1243 1.332 . S
N1240 C1245 1.332 . S
C1241 C1242 1.386 . S
C1241 C1244 1.388 . S
C1242 C1241 1.386 . S
C1242 C1243 1.382 . S
C1242 H1268 0.950 . S
C1243 N1240 1.332 . S
C1243 C1242 1.382 . S
C1243 H1254 0.952 . S
C1244 C1241 1.388 . S
C1244 C1245 1.382 . S
C1244 H1269 0.950 . S
C1245 N1240 1.332 . S
C1245 C1244 1.382 . S
C1245 H1255 0.948 . S
N1246 Co1224 2.282 . S
N1246 C1250 1.332 . S
N1246 C1251 1.332 . S
C1247 C1248 1.388 . S
C1247 C1251 1.382 . S
C1247 H1270 0.950 . S
C1248 C1247 1.388 . S
C1248 C1249 1.386 . S
C1249 C1248 1.386 . S
C1249 C1250 1.382 . S
C1249 H1271 0.950 . S
C1250 N1246 1.332 . S
C1250 C1249 1.382 . S
C1250 H1252 0.952 . S
C1251 N1246 1.332 . S
C1251 C1247 1.382 . S
C1251 H1253 0.948 . S
H1252 C1250 0.952 . S
H1253 C1251 0.948 . S
H1254 C1243 0.952 . S
H1255 C1245 0.948 . S
C1256 C1222 1.395 . S
C1256 C1226 1.391 . S
C1257 C1219 1.389 . S
C1257 C1239 1.392 . S
C1258 C1229 1.392 . S
C1258 C1231 1.389 . S
C1259 C1234 1.395 . S
C1259 C1236 1.391 . S
H1260 C1220 0.951 . S
H1261 C1221 0.950 . S
H1262 C1227 0.949 . S
H1263 C1228 0.950 . S
H1264 C1232 0.951 . S
H1265 C1233 0.950 . S
H1266 C1237 0.949 . S
H1267 C1238 0.950 . S
H1268 C1242 0.950 . S
H1269 C1244 0.950 . S
H1270 C1247 0.950 . S
H1271 C1249 0.950 . S
C1272 C1273 1.391 . S
C1272 C1274 1.394 . S
C1272 H1288 0.931 . S
C1273 C1272 1.391 . S
C1273 C1277 1.376 . S
C1274 C1272 1.394 . S
C1274 C1275 1.369 . S
C1274 C1278 1.531 . S
C1275 C1274 1.369 . S
C1275 C1276 1.410 . S
C1275 C1283 1.503 . S
C1276 C1275 1.410 . S
C1276 C1277 1.392 . S
C1276 C1279 1.511 . S
C1277 C1273 1.376 . S
C1277 C1276 1.392 . S
C1277 H1289 0.929 . S
C1278 C1274 1.531 . S
C1278 H1290 0.960 . S
C1278 H1291 0.962 . S
C1278 H1292 0.960 . S
C1279 C1276 1.511 . S
C1279 H1293 0.961 . S
C1279 H1294 0.961 . S
C1279 H1295 0.961 . S
C1280 C1281 1.370 . S
C1280 C1282 1.363 . S
C1280 H1296 0.931 . S
C1281 C1280 1.370 . S
C1281 C1285 1.408 . S
C1282 C1280 1.363 . S
C1282 C1283 1.370 . S
C1282 C1286 1.524 . S
C1283 C1275 1.503 . S
C1283 C1282 1.370 . S
C1283 C1284 1.403 . S
C1284 C1283 1.403 . S
C1284 C1285 1.404 . S
C1284 C1287 1.539 . S
C1285 C1281 1.408 . S
C1285 C1284 1.404 . S
C1285 H1297 0.930 . S
C1286 C1282 1.524 . S
C1286 H1298 0.956 . S
C1286 H1299 0.961 . S
C1286 H1300 0.961 . S
C1287 C1284 1.539 . S
C1287 H1301 0.958 . S
C1287 H1302 0.961 . S
C1287 H1303 0.960 . S
H1288 C1272 0.931 . S
H1289 C1277 0.929 . S
H1290 C1278 0.960 . S
H1291 C1278 0.962 . S
H1292 C1278 0.960 . S
H1293 C1279 0.961 . S
H1294 C1279 0.961 . S
H1295 C1279 0.961 . S
H1296 C1280 0.931 . S
H1297 C1285 0.930 . S
H1298 C1286 0.956 . S
H1299 C1286 0.961 . S
H1300 C1286 0.961 . S
H1301 C1287 0.958 . S
H1302 C1287 0.961 . S
H1303 C1287 0.960 . S
C1304 C1305 1.391 . S
C1304 C1306 1.394 . S
C1304 H1320 0.931 . S
C1305 C1304 1.391 . S
C1305 C1309 1.376 . S
C1306 C1304 1.394 . S
C1306 C1307 1.369 . S
C1306 C1310 1.531 . S
C1307 C1306 1.369 . S
C1307 C1308 1.410 . S
C1307 C1315 1.503 . S
C1308 C1307 1.410 . S
C1308 C1309 1.392 . S
C1308 C1311 1.511 . S
C1309 C1305 1.376 . S
C1309 C1308 1.392 . S
C1309 H1321 0.929 . S
C1310 C1306 1.531 . S
C1310 H1322 0.960 . S
C1310 H1323 0.962 . S
C1310 H1324 0.960 . S
C1311 C1308 1.511 . S
C1311 H1325 0.961 . S
C1311 H1326 0.961 . S
C1311 H1327 0.961 . S
C1312 C1313 1.370 . S
C1312 C1314 1.363 . S
C1312 H1328 0.931 . S
C1313 C1312 1.370 . S
C1313 C1317 1.408 . S
C1314 C1312 1.363 . S
C1314 C1315 1.370 . S
C1314 C1318 1.524 . S
C1315 C1307 1.503 . S
C1315 C1314 1.370 . S
C1315 C1316 1.403 . S
C1316 C1315 1.403 . S
C1316 C1317 1.404 . S
C1316 C1319 1.539 . S
C1317 C1313 1.408 . S
C1317 C1316 1.404 . S
C1317 H1329 0.930 . S
C1318 C1314 1.524 . S
C1318 H1330 0.956 . S
C1318 H1331 0.961 . S
C1318 H1332 0.961 . S
C1319 C1316 1.539 . S
C1319 H1333 0.958 . S
C1319 H1334 0.961 . S
C1319 H1335 0.960 . S
H1320 C1304 0.931 . S
H1321 C1309 0.929 . S
H1322 C1310 0.960 . S
H1323 C1310 0.962 . S
H1324 C1310 0.960 . S
H1325 C1311 0.961 . S
H1326 C1311 0.961 . S
H1327 C1311 0.961 . S
H1328 C1312 0.931 . S
H1329 C1317 0.930 . S
H1330 C1318 0.956 . S
H1331 C1318 0.961 . S
H1332 C1318 0.961 . S
H1333 C1319 0.958 . S
H1334 C1319 0.961 . S
H1335 C1319 0.960 . S
C1336 C1337 1.391 . S
C1336 C1338 1.394 . S
C1336 H1352 0.931 . S
C1337 C1336 1.391 . S
C1337 C1341 1.376 . S
C1338 C1336 1.394 . S
C1338 C1339 1.369 . S
C1338 C1342 1.531 . S
C1339 C1338 1.369 . S
C1339 C1340 1.410 . S
C1339 C1347 1.503 . S
C1340 C1339 1.410 . S
C1340 C1341 1.392 . S
C1340 C1343 1.511 . S
C1341 C1337 1.376 . S
C1341 C1340 1.392 . S
C1341 H1353 0.929 . S
C1342 C1338 1.531 . S
C1342 H1354 0.960 . S
C1342 H1355 0.962 . S
C1342 H1356 0.960 . S
C1343 C1340 1.511 . S
C1343 H1357 0.961 . S
C1343 H1358 0.961 . S
C1343 H1359 0.961 . S
C1344 C1345 1.370 . S
C1344 C1346 1.363 . S
C1344 H1360 0.931 . S
C1345 C1344 1.370 . S
C1345 C1349 1.408 . S
C1346 C1344 1.363 . S
C1346 C1347 1.370 . S
C1346 C1350 1.524 . S
C1347 C1339 1.503 . S
C1347 C1346 1.370 . S
C1347 C1348 1.403 . S
C1348 C1347 1.403 . S
C1348 C1349 1.404 . S
C1348 C1351 1.539 . S
C1349 C1345 1.408 . S
C1349 C1348 1.404 . S
C1349 H1361 0.930 . S
C1350 C1346 1.524 . S
C1350 H1362 0.956 . S
C1350 H1363 0.961 . S
C1350 H1364 0.961 . S
C1351 C1348 1.539 . S
C1351 H1365 0.958 . S
C1351 H1366 0.961 . S
C1351 H1367 0.960 . S
H1352 C1336 0.931 . S
H1353 C1341 0.929 . S
H1354 C1342 0.960 . S
H1355 C1342 0.962 . S
H1356 C1342 0.960 . S
H1357 C1343 0.961 . S
H1358 C1343 0.961 . S
H1359 C1343 0.961 . S
H1360 C1344 0.931 . S
H1361 C1349 0.930 . S
H1362 C1350 0.956 . S
H1363 C1350 0.961 . S
H1364 C1350 0.961 . S
H1365 C1351 0.958 . S
H1366 C1351 0.961 . S
H1367 C1351 0.960 . S
C1368 C1369 1.391 . S
C1368 C1370 1.394 . S
C1368 H1384 0.931 . S
C1369 C1368 1.391 . S
C1369 C1373 1.376 . S
C1370 C1368 1.394 . S
C1370 C1371 1.369 . S
C1370 C1374 1.531 . S
C1371 C1370 1.369 . S
C1371 C1372 1.410 . S
C1371 C1379 1.503 . S
C1372 C1371 1.410 . S
C1372 C1373 1.392 . S
C1372 C1375 1.511 . S
C1373 C1369 1.376 . S
C1373 C1372 1.392 . S
C1373 H1385 0.929 . S
C1374 C1370 1.531 . S
C1374 H1386 0.960 . S
C1374 H1387 0.962 . S
C1374 H1388 0.960 . S
C1375 C1372 1.511 . S
C1375 H1389 0.961 . S
C1375 H1390 0.961 . S
C1375 H1391 0.961 . S
C1376 C1377 1.370 . S
C1376 C1378 1.363 . S
C1376 H1392 0.931 . S
C1377 C1376 1.370 . S
C1377 C1381 1.408 . S
C1378 C1376 1.363 . S
C1378 C1379 1.370 . S
C1378 C1382 1.524 . S
C1379 C1371 1.503 . S
C1379 C1378 1.370 . S
C1379 C1380 1.403 . S
C1380 C1379 1.403 . S
C1380 C1381 1.404 . S
C1380 C1383 1.539 . S
C1381 C1377 1.408 . S
C1381 C1380 1.404 . S
C1381 H1393 0.930 . S
C1382 C1378 1.524 . S
C1382 H1394 0.956 . S
C1382 H1395 0.961 . S
C1382 H1396 0.961 . S
C1383 C1380 1.539 . S
C1383 H1397 0.958 . S
C1383 H1398 0.961 . S
C1383 H1399 0.960 . S
H1384 C1368 0.931 . S
H1385 C1373 0.929 . S
H1386 C1374 0.960 . S
H1387 C1374 0.962 . S
H1388 C1374 0.960 . S
H1389 C1375 0.961 . S
H1390 C1375 0.961 . S
H1391 C1375 0.961 . S
H1392 C1376 0.931 . S
H1393 C1381 0.930 . S
H1394 C1382 0.956 . S
H1395 C1382 0.961 . S
H1396 C1382 0.961 . S
H1397 C1383 0.958 . S
H1398 C1383 0.961 . S
H1399 C1383 0.960 . S
C1400 C1401 1.391 . S
C1400 C1402 1.394 . S
C1400 H1416 0.931 . S
C1401 C1400 1.391 . S
C1401 C1405 1.376 . S
C1402 C1400 1.394 . S
C1402 C1403 1.369 . S
C1402 C1406 1.531 . S
C1403 C1402 1.369 . S
C1403 C1404 1.410 . S
C1403 C1411 1.503 . S
C1404 C1403 1.410 . S
C1404 C1405 1.392 . S
C1404 C1407 1.511 . S
C1405 C1401 1.376 . S
C1405 C1404 1.392 . S
C1405 H1417 0.929 . S
C1406 C1402 1.531 . S
C1406 H1418 0.960 . S
C1406 H1419 0.962 . S
C1406 H1420 0.960 . S
C1407 C1404 1.511 . S
C1407 H1421 0.961 . S
C1407 H1422 0.961 . S
C1407 H1423 0.961 . S
C1408 C1409 1.370 . S
C1408 C1410 1.363 . S
C1408 H1424 0.931 . S
C1409 C1408 1.370 . S
C1409 C1413 1.408 . S
C1410 C1408 1.363 . S
C1410 C1411 1.370 . S
C1410 C1414 1.524 . S
C1411 C1403 1.503 . S
C1411 C1410 1.370 . S
C1411 C1412 1.403 . S
C1412 C1411 1.403 . S
C1412 C1413 1.404 . S
C1412 C1415 1.539 . S
C1413 C1409 1.408 . S
C1413 C1412 1.404 . S
C1413 H1425 0.930 . S
C1414 C1410 1.524 . S
C1414 H1426 0.956 . S
C1414 H1427 0.961 . S
C1414 H1428 0.961 . S
C1415 C1412 1.539 . S
C1415 H1429 0.958 . S
C1415 H1430 0.961 . S
C1415 H1431 0.960 . S
H1416 C1400 0.931 . S
H1417 C1405 0.929 . S
H1418 C1406 0.960 . S
H1419 C1406 0.962 . S
H1420 C1406 0.960 . S
H1421 C1407 0.961 . S
H1422 C1407 0.961 . S
H1423 C1407 0.961 . S
H1424 C1408 0.931 . S
H1425 C1413 0.930 . S
H1426 C1414 0.956 . S
H1427 C1414 0.961 . S
H1428 C1414 0.961 . S
H1429 C1415 0.958 . S
H1430 C1415 0.961 . S
H1431 C1415 0.960 . S
C1432 C1433 1.391 . S
C1432 C1434 1.394 . S
C1432 H1448 0.931 . S
C1433 C1432 1.391 . S
C1433 C1437 1.376 . S
C1434 C1432 1.394 . S
C1434 C1435 1.369 . S
C1434 C1438 1.531 . S
C1435 C1434 1.369 . S
C1435 C1436 1.410 . S
C1435 C1443 1.503 . S
C1436 C1435 1.410 . S
C1436 C1437 1.392 . S
C1436 C1439 1.511 . S
C1437 C1433 1.376 . S
C1437 C1436 1.392 . S
C1437 H1449 0.929 . S
C1438 C1434 1.531 . S
C1438 H1450 0.960 . S
C1438 H1451 0.962 . S
C1438 H1452 0.960 . S
C1439 C1436 1.511 . S
C1439 H1453 0.961 . S
C1439 H1454 0.961 . S
C1439 H1455 0.961 . S
C1440 C1441 1.370 . S
C1440 C1442 1.363 . S
C1440 H1456 0.931 . S
C1441 C1440 1.370 . S
C1441 C1445 1.408 . S
C1442 C1440 1.363 . S
C1442 C1443 1.370 . S
C1442 C1446 1.524 . S
C1443 C1435 1.503 . S
C1443 C1442 1.370 . S
C1443 C1444 1.403 . S
C1444 C1443 1.403 . S
C1444 C1445 1.404 . S
C1444 C1447 1.539 . S
C1445 C1441 1.408 . S
C1445 C1444 1.404 . S
C1445 H1457 0.930 . S
C1446 C1442 1.524 . S
C1446 H1458 0.956 . S
C1446 H1459 0.961 . S
C1446 H1460 0.961 . S
C1447 C1444 1.539 . S
C1447 H1461 0.958 . S
C1447 H1462 0.961 . S
C1447 H1463 0.960 . S
H1448 C1432 0.931 . S
H1449 C1437 0.929 . S
H1450 C1438 0.960 . S
H1451 C1438 0.962 . S
H1452 C1438 0.960 . S
H1453 C1439 0.961 . S
H1454 C1439 0.961 . S
H1455 C1439 0.961 . S
H1456 C1440 0.931 . S
H1457 C1445 0.930 . S
H1458 C1446 0.956 . S
H1459 C1446 0.961 . S
H1460 C1446 0.961 . S
H1461 C1447 0.958 . S
H1462 C1447 0.961 . S
H1463 C1447 0.960 . S
C1464 C1465 1.391 . S
C1464 C1466 1.394 . S
C1464 H1480 0.931 . S
C1465 C1464 1.391 . S
C1465 C1469 1.376 . S
C1466 C1464 1.394 . S
C1466 C1467 1.369 . S
C1466 C1470 1.531 . S
C1467 C1466 1.369 . S
C1467 C1468 1.410 . S
C1467 C1475 1.503 . S
C1468 C1467 1.410 . S
C1468 C1469 1.392 . S
C1468 C1471 1.511 . S
C1469 C1465 1.376 . S
C1469 C1468 1.392 . S
C1469 H1481 0.929 . S
C1470 C1466 1.531 . S
C1470 H1482 0.960 . S
C1470 H1483 0.962 . S
C1470 H1484 0.960 . S
C1471 C1468 1.511 . S
C1471 H1485 0.961 . S
C1471 H1486 0.961 . S
C1471 H1487 0.961 . S
C1472 C1473 1.370 . S
C1472 C1474 1.363 . S
C1472 H1488 0.931 . S
C1473 C1472 1.370 . S
C1473 C1477 1.408 . S
C1474 C1472 1.363 . S
C1474 C1475 1.370 . S
C1474 C1478 1.524 . S
C1475 C1467 1.503 . S
C1475 C1474 1.370 . S
C1475 C1476 1.403 . S
C1476 C1475 1.403 . S
C1476 C1477 1.404 . S
C1476 C1479 1.539 . S
C1477 C1473 1.408 . S
C1477 C1476 1.404 . S
C1477 H1489 0.930 . S
C1478 C1474 1.524 . S
C1478 H1490 0.956 . S
C1478 H1491 0.961 . S
C1478 H1492 0.961 . S
C1479 C1476 1.539 . S
C1479 H1493 0.958 . S
C1479 H1494 0.961 . S
C1479 H1495 0.960 . S
H1480 C1464 0.931 . S
H1481 C1469 0.929 . S
H1482 C1470 0.960 . S
H1483 C1470 0.962 . S
H1484 C1470 0.960 . S
H1485 C1471 0.961 . S
H1486 C1471 0.961 . S
H1487 C1471 0.961 . S
H1488 C1472 0.931 . S
H1489 C1477 0.930 . S
H1490 C1478 0.956 . S
H1491 C1478 0.961 . S
H1492 C1478 0.961 . S
H1493 C1479 0.958 . S
H1494 C1479 0.961 . S
H1495 C1479 0.960 . S
C1496 C1497 1.391 . S
C1496 C1498 1.394 . S
C1496 H1512 0.931 . S
C1497 C1496 1.391 . S
C1497 C1501 1.376 . S
C1498 C1496 1.394 . S
C1498 C1499 1.369 . S
C1498 C1502 1.531 . S
C1499 C1498 1.369 . S
C1499 C1500 1.410 . S
C1499 C1507 1.503 . S
C1500 C1499 1.410 . S
C1500 C1501 1.392 . S
C1500 C1503 1.511 . S
C1501 C1497 1.376 . S
C1501 C1500 1.392 . S
C1501 H1513 0.929 . S
C1502 C1498 1.531 . S
C1502 H1514 0.960 . S
C1502 H1515 0.962 . S
C1502 H1516 0.960 . S
C1503 C1500 1.511 . S
C1503 H1517 0.961 . S
C1503 H1518 0.961 . S
C1503 H1519 0.961 . S
C1504 C1505 1.370 . S
C1504 C1506 1.363 . S
C1504 H1520 0.931 . S
C1505 C1504 1.370 . S
C1505 C1509 1.408 . S
C1506 C1504 1.363 . S
C1506 C1507 1.370 . S
C1506 C1510 1.524 . S
C1507 C1499 1.503 . S
C1507 C1506 1.370 . S
C1507 C1508 1.403 . S
C1508 C1507 1.403 . S
C1508 C1509 1.404 . S
C1508 C1511 1.539 . S
C1509 C1505 1.408 . S
C1509 C1508 1.404 . S
C1509 H1521 0.930 . S
C1510 C1506 1.524 . S
C1510 H1522 0.956 . S
C1510 H1523 0.961 . S
C1510 H1524 0.961 . S
C1511 C1508 1.539 . S
C1511 H1525 0.958 . S
C1511 H1526 0.961 . S
C1511 H1527 0.960 . S
H1512 C1496 0.931 . S
H1513 C1501 0.929 . S
H1514 C1502 0.960 . S
H1515 C1502 0.962 . S
H1516 C1502 0.960 . S
H1517 C1503 0.961 . S
H1518 C1503 0.961 . S
H1519 C1503 0.961 . S
H1520 C1504 0.931 . S
H1521 C1509 0.930 . S
H1522 C1510 0.956 . S
H1523 C1510 0.961 . S
H1524 C1510 0.961 . S
H1525 C1511 0.958 . S
H1526 C1511 0.961 . S
H1527 C1511 0.960 . S
C1528 C1529 1.391 . S
C1528 C1530 1.394 . S
C1528 H1544 0.931 . S
C1529 C1528 1.391 . S
C1529 C1533 1.376 . S
C1530 C1528 1.394 . S
C1530 C1531 1.369 . S
C1530 C1534 1.531 . S
C1531 C1530 1.369 . S
C1531 C1532 1.410 . S
C1531 C1539 1.503 . S
C1532 C1531 1.410 . S
C1532 C1533 1.392 . S
C1532 C1535 1.511 . S
C1533 C1529 1.376 . S
C1533 C1532 1.392 . S
C1533 H1545 0.929 . S
C1534 C1530 1.531 . S
C1534 H1546 0.960 . S
C1534 H1547 0.962 . S
C1534 H1548 0.960 . S
C1535 C1532 1.511 . S
C1535 H1549 0.961 . S
C1535 H1550 0.961 . S
C1535 H1551 0.961 . S
C1536 C1537 1.370 . S
C1536 C1538 1.363 . S
C1536 H1552 0.931 . S
C1537 C1536 1.370 . S
C1537 C1541 1.408 . S
C1538 C1536 1.363 . S
C1538 C1539 1.370 . S
C1538 C1542 1.524 . S
C1539 C1531 1.503 . S
C1539 C1538 1.370 . S
C1539 C1540 1.403 . S
C1540 C1539 1.403 . S
C1540 C1541 1.404 . S
C1540 C1543 1.539 . S
C1541 C1537 1.408 . S
C1541 C1540 1.404 . S
C1541 H1553 0.930 . S
C1542 C1538 1.524 . S
C1542 H1554 0.956 . S
C1542 H1555 0.961 . S
C1542 H1556 0.961 . S
C1543 C1540 1.539 . S
C1543 H1557 0.958 . S
C1543 H1558 0.961 . S
C1543 H1559 0.960 . S
H1544 C1528 0.931 . S
H1545 C1533 0.929 . S
H1546 C1534 0.960 . S
H1547 C1534 0.962 . S
H1548 C1534 0.960 . S
H1549 C1535 0.961 . S
H1550 C1535 0.961 . S
H1551 C1535 0.961 . S
H1552 C1536 0.931 . S
H1553 C1541 0.930 . S
H1554 C1542 0.956 . S
H1555 C1542 0.961 . S
H1556 C1542 0.961 . S
H1557 C1543 0.958 . S
H1558 C1543 0.961 . S
H1559 C1543 0.960 . S
C1560 C1561 1.391 . S
C1560 C1562 1.394 . S
C1560 H1576 0.931 . S
C1561 C1560 1.391 . S
C1561 C1565 1.376 . S
C1562 C1560 1.394 . S
C1562 C1563 1.369 . S
C1562 C1566 1.531 . S
C1563 C1562 1.369 . S
C1563 C1564 1.410 . S
C1563 C1571 1.503 . S
C1564 C1563 1.410 . S
C1564 C1565 1.392 . S
C1564 C1567 1.511 . S
C1565 C1561 1.376 . S
C1565 C1564 1.392 . S
C1565 H1577 0.929 . S
C1566 C1562 1.531 . S
C1566 H1578 0.960 . S
C1566 H1579 0.962 . S
C1566 H1580 0.960 . S
C1567 C1564 1.511 . S
C1567 H1581 0.961 . S
C1567 H1582 0.961 . S
C1567 H1583 0.961 . S
C1568 C1569 1.370 . S
C1568 C1570 1.363 . S
C1568 H1584 0.931 . S
C1569 C1568 1.370 . S
C1569 C1573 1.408 . S
C1570 C1568 1.363 . S
C1570 C1571 1.370 . S
C1570 C1574 1.524 . S
C1571 C1563 1.503 . S
C1571 C1570 1.370 . S
C1571 C1572 1.403 . S
C1572 C1571 1.403 . S
C1572 C1573 1.404 . S
C1572 C1575 1.539 . S
C1573 C1569 1.408 . S
C1573 C1572 1.404 . S
C1573 H1585 0.930 . S
C1574 C1570 1.524 . S
C1574 H1586 0.956 . S
C1574 H1587 0.961 . S
C1574 H1588 0.961 . S
C1575 C1572 1.539 . S
C1575 H1589 0.958 . S
C1575 H1590 0.961 . S
C1575 H1591 0.960 . S
H1576 C1560 0.931 . S
H1577 C1565 0.929 . S
H1578 C1566 0.960 . S
H1579 C1566 0.962 . S
H1580 C1566 0.960 . S
H1581 C1567 0.961 . S
H1582 C1567 0.961 . S
H1583 C1567 0.961 . S
H1584 C1568 0.931 . S
H1585 C1573 0.930 . S
H1586 C1574 0.956 . S
H1587 C1574 0.961 . S
H1588 C1574 0.961 . S
H1589 C1575 0.958 . S
H1590 C1575 0.961 . S
H1591 C1575 0.960 . S
C1592 C1593 1.391 . S
C1592 C1594 1.394 . S
C1592 H1608 0.931 . S
C1593 C1592 1.391 . S
C1593 C1597 1.376 . S
C1594 C1592 1.394 . S
C1594 C1595 1.369 . S
C1594 C1598 1.531 . S
C1595 C1594 1.369 . S
C1595 C1596 1.410 . S
C1595 C1603 1.503 . S
C1596 C1595 1.410 . S
C1596 C1597 1.392 . S
C1596 C1599 1.511 . S
C1597 C1593 1.376 . S
C1597 C1596 1.392 . S
C1597 H1609 0.929 . S
C1598 C1594 1.531 . S
C1598 H1610 0.960 . S
C1598 H1611 0.962 . S
C1598 H1612 0.960 . S
C1599 C1596 1.511 . S
C1599 H1613 0.961 . S
C1599 H1614 0.961 . S
C1599 H1615 0.961 . S
C1600 C1601 1.370 . S
C1600 C1602 1.363 . S
C1600 H1616 0.931 . S
C1601 C1600 1.370 . S
C1601 C1605 1.408 . S
C1602 C1600 1.363 . S
C1602 C1603 1.370 . S
C1602 C1606 1.524 . S
C1603 C1595 1.503 . S
C1603 C1602 1.370 . S
C1603 C1604 1.403 . S
C1604 C1603 1.403 . S
C1604 C1605 1.404 . S
C1604 C1607 1.539 . S
C1605 C1601 1.408 . S
C1605 C1604 1.404 . S
C1605 H1617 0.930 . S
C1606 C1602 1.524 . S
C1606 H1618 0.956 . S
C1606 H1619 0.961 . S
C1606 H1620 0.961 . S
C1607 C1604 1.539 . S
C1607 H1621 0.958 . S
C1607 H1622 0.961 . S
C1607 H1623 0.960 . S
H1608 C1592 0.931 . S
H1609 C1597 0.929 . S
H1610 C1598 0.960 . S
H1611 C1598 0.962 . S
H1612 C1598 0.960 . S
H1613 C1599 0.961 . S
H1614 C1599 0.961 . S
H1615 C1599 0.961 . S
H1616 C1600 0.931 . S
H1617 C1605 0.930 . S
H1618 C1606 0.956 . S
H1619 C1606 0.961 . S
H1620 C1606 0.961 . S
H1621 C1607 0.958 . S
H1622 C1607 0.961 . S
H1623 C1607 0.960 . S
C1624 C1625 1.391 . S
C1624 C1626 1.394 . S
C1624 H1640 0.931 . S
C1625 C1624 1.391 . S
C1625 C1629 1.376 . S
C1626 C1624 1.394 . S
C1626 C1627 1.369 . S
C1626 C1630 1.531 . S
C1627 C1626 1.369 . S
C1627 C1628 1.410 . S
C1627 C1635 1.503 . S
C1628 C1627 1.410 . S
C1628 C1629 1.392 . S
C1628 C1631 1.511 . S
C1629 C1625 1.376 . S
C1629 C1628 1.392 . S
C1629 H1641 0.929 . S
C1630 C1626 1.531 . S
C1630 H1642 0.960 . S
C1630 H1643 0.962 . S
C1630 H1644 0.960 . S
C1631 C1628 1.511 . S
C1631 H1645 0.961 . S
C1631 H1646 0.961 . S
C1631 H1647 0.961 . S
C1632 C1633 1.370 . S
C1632 C1634 1.363 . S
C1632 H1648 0.931 . S
C1633 C1632 1.370 . S
C1633 C1637 1.408 . S
C1634 C1632 1.363 . S
C1634 C1635 1.370 . S
C1634 C1638 1.524 . S
C1635 C1627 1.503 . S
C1635 C1634 1.370 . S
C1635 C1636 1.403 . S
C1636 C1635 1.403 . S
C1636 C1637 1.404 . S
C1636 C1639 1.539 . S
C1637 C1633 1.408 . S
C1637 C1636 1.404 . S
C1637 H1649 0.930 . S
C1638 C1634 1.524 . S
C1638 H1650 0.956 . S
C1638 H1651 0.961 . S
C1638 H1652 0.961 . S
C1639 C1636 1.539 . S
C1639 H1653 0.958 . S
C1639 H1654 0.961 . S
C1639 H1655 0.960 . S
H1640 C1624 0.931 . S
H1641 C1629 0.929 . S
H1642 C1630 0.960 . S
H1643 C1630 0.962 . S
H1644 C1630 0.960 . S
H1645 C1631 0.961 . S
H1646 C1631 0.961 . S
H1647 C1631 0.961 . S
H1648 C1632 0.931 . S
H1649 C1637 0.930 . S
H1650 C1638 0.956 . S
H1651 C1638 0.961 . S
H1652 C1638 0.961 . S
H1653 C1639 0.958 . S
H1654 C1639 0.961 . S
H1655 C1639 0.960 . S
C1656 C1657 1.391 . S
C1656 C1658 1.394 . S
C1656 H1672 0.931 1_556 S
C1657 C1656 1.391 . S
C1657 C1661 1.376 . S
C1658 C1656 1.394 . S
C1658 C1659 1.369 . S
C1658 C1662 1.531 . S
C1659 C1658 1.369 . S
C1659 C1660 1.410 . S
C1659 C1667 1.503 . S
C1660 C1659 1.410 . S
C1660 C1661 1.392 . S
C1660 C1663 1.511 . S
C1661 C1657 1.376 . S
C1661 C1660 1.392 . S
C1661 H1673 0.929 . S
C1662 C1658 1.531 . S
C1662 H1674 0.960 . S
C1662 H1675 0.962 . S
C1662 H1676 0.960 . S
C1663 C1660 1.511 . S
C1663 H1677 0.961 . S
C1663 H1678 0.961 . S
C1663 H1679 0.961 . S
C1664 C1665 1.370 . S
C1664 C1666 1.363 . S
C1664 H1680 0.931 . S
C1665 C1664 1.370 . S
C1665 C1669 1.408 . S
C1666 C1664 1.363 . S
C1666 C1667 1.370 . S
C1666 C1670 1.524 . S
C1667 C1659 1.503 . S
C1667 C1666 1.370 . S
C1667 C1668 1.403 . S
C1668 C1667 1.403 . S
C1668 C1669 1.404 . S
C1668 C1671 1.539 . S
C1669 C1665 1.408 . S
C1669 C1668 1.404 . S
C1669 H1681 0.930 . S
C1670 C1666 1.524 . S
C1670 H1682 0.956 . S
C1670 H1683 0.961 . S
C1670 H1684 0.961 . S
C1671 C1668 1.539 . S
C1671 H1685 0.958 . S
C1671 H1686 0.961 . S
C1671 H1687 0.960 . S
H1672 C1656 0.931 1_554 S
H1673 C1661 0.929 . S
H1674 C1662 0.960 . S
H1675 C1662 0.962 . S
H1676 C1662 0.960 . S
H1677 C1663 0.961 . S
H1678 C1663 0.961 . S
H1679 C1663 0.961 . S
H1680 C1664 0.931 . S
H1681 C1669 0.930 . S
H1682 C1670 0.956 . S
H1683 C1670 0.961 . S
H1684 C1670 0.961 . S
H1685 C1671 0.958 . S
H1686 C1671 0.961 . S
H1687 C1671 0.960 . S
C1688 C1689 1.391 . S
C1688 C1690 1.394 . S
C1688 H1704 0.931 . S
C1689 C1688 1.391 . S
C1689 C1693 1.376 . S
C1690 C1688 1.394 . S
C1690 C1691 1.369 . S
C1690 C1694 1.531 . S
C1691 C1690 1.369 . S
C1691 C1692 1.410 . S
C1691 C1699 1.503 . S
C1692 C1691 1.410 . S
C1692 C1693 1.392 . S
C1692 C1695 1.511 . S
C1693 C1689 1.376 . S
C1693 C1692 1.392 . S
C1693 H1705 0.929 . S
C1694 C1690 1.531 . S
C1694 H1706 0.960 . S
C1694 H1707 0.962 . S
C1694 H1708 0.960 . S
C1695 C1692 1.511 . S
C1695 H1709 0.961 . S
C1695 H1710 0.961 . S
C1695 H1711 0.961 . S
C1696 C1697 1.370 . S
C1696 C1698 1.363 . S
C1696 H1712 0.931 . S
C1697 C1696 1.370 . S
C1697 C1701 1.408 . S
C1698 C1696 1.363 . S
C1698 C1699 1.370 . S
C1698 C1702 1.524 . S
C1699 C1691 1.503 . S
C1699 C1698 1.370 . S
C1699 C1700 1.403 . S
C1700 C1699 1.403 . S
C1700 C1701 1.404 . S
C1700 C1703 1.539 . S
C1701 C1697 1.408 . S
C1701 C1700 1.404 . S
C1701 H1713 0.930 . S
C1702 C1698 1.524 . S
C1702 H1714 0.956 . S
C1702 H1715 0.961 . S
C1702 H1716 0.961 . S
C1703 C1700 1.539 . S
C1703 H1717 0.958 . S
C1703 H1718 0.961 . S
C1703 H1719 0.960 . S
H1704 C1688 0.931 . S
H1705 C1693 0.929 . S
H1706 C1694 0.960 . S
H1707 C1694 0.962 . S
H1708 C1694 0.960 . S
H1709 C1695 0.961 . S
H1710 C1695 0.961 . S
H1711 C1695 0.961 . S
H1712 C1696 0.931 . S
H1713 C1701 0.930 . S
H1714 C1702 0.956 . S
H1715 C1702 0.961 . S
H1716 C1702 0.961 . S
H1717 C1703 0.958 . S
H1718 C1703 0.961 . S
H1719 C1703 0.960 . S
C1720 C1721 1.391 . S
C1720 C1722 1.394 . S
C1720 H1736 0.931 . S
C1721 C1720 1.391 . S
C1721 C1725 1.376 . S
C1722 C1720 1.394 . S
C1722 C1723 1.369 . S
C1722 C1726 1.531 . S
C1723 C1722 1.369 . S
C1723 C1724 1.410 . S
C1723 C1731 1.503 . S
C1724 C1723 1.410 . S
C1724 C1725 1.392 . S
C1724 C1727 1.511 . S
C1725 C1721 1.376 . S
C1725 C1724 1.392 . S
C1725 H1737 0.929 . S
C1726 C1722 1.531 . S
C1726 H1738 0.960 . S
C1726 H1739 0.962 . S
C1726 H1740 0.960 . S
C1727 C1724 1.511 . S
C1727 H1741 0.961 . S
C1727 H1742 0.961 . S
C1727 H1743 0.961 . S
C1728 C1729 1.370 . S
C1728 C1730 1.363 . S
C1728 H1744 0.931 . S
C1729 C1728 1.370 . S
C1729 C1733 1.408 . S
C1730 C1728 1.363 . S
C1730 C1731 1.370 . S
C1730 C1734 1.524 . S
C1731 C1723 1.503 . S
C1731 C1730 1.370 . S
C1731 C1732 1.403 . S
C1732 C1731 1.403 . S
C1732 C1733 1.404 . S
C1732 C1735 1.539 . S
C1733 C1729 1.408 . S
C1733 C1732 1.404 . S
C1733 H1745 0.930 . S
C1734 C1730 1.524 . S
C1734 H1746 0.956 . S
C1734 H1747 0.961 . S
C1734 H1748 0.961 . S
C1735 C1732 1.539 . S
C1735 H1749 0.958 . S
C1735 H1750 0.961 . S
C1735 H1751 0.960 . S
H1736 C1720 0.931 . S
H1737 C1725 0.929 . S
H1738 C1726 0.960 . S
H1739 C1726 0.962 . S
H1740 C1726 0.960 . S
H1741 C1727 0.961 . S
H1742 C1727 0.961 . S
H1743 C1727 0.961 . S
H1744 C1728 0.931 . S
H1745 C1733 0.930 . S
H1746 C1734 0.956 . S
H1747 C1734 0.961 . S
H1748 C1734 0.961 . S
H1749 C1735 0.958 . S
H1750 C1735 0.961 . S
H1751 C1735 0.960 . S
C1752 C1753 1.391 . S
C1752 C1754 1.394 . S
C1752 H1768 0.931 . S
C1753 C1752 1.391 . S
C1753 C1757 1.376 . S
C1754 C1752 1.394 . S
C1754 C1755 1.369 . S
C1754 C1758 1.531 . S
C1755 C1754 1.369 . S
C1755 C1756 1.410 . S
C1755 C1763 1.503 . S
C1756 C1755 1.410 . S
C1756 C1757 1.392 . S
C1756 C1759 1.511 . S
C1757 C1753 1.376 . S
C1757 C1756 1.392 . S
C1757 H1769 0.929 . S
C1758 C1754 1.531 . S
C1758 H1770 0.960 . S
C1758 H1771 0.962 . S
C1758 H1772 0.960 . S
C1759 C1756 1.511 . S
C1759 H1773 0.961 . S
C1759 H1774 0.961 . S
C1759 H1775 0.961 . S
C1760 C1761 1.370 . S
C1760 C1762 1.363 . S
C1760 H1776 0.931 . S
C1761 C1760 1.370 . S
C1761 C1765 1.408 . S
C1762 C1760 1.363 . S
C1762 C1763 1.370 . S
C1762 C1766 1.524 . S
C1763 C1755 1.503 . S
C1763 C1762 1.370 . S
C1763 C1764 1.403 . S
C1764 C1763 1.403 . S
C1764 C1765 1.404 . S
C1764 C1767 1.539 . S
C1765 C1761 1.408 . S
C1765 C1764 1.404 . S
C1765 H1777 0.930 . S
C1766 C1762 1.524 . S
C1766 H1778 0.956 . S
C1766 H1779 0.961 . S
C1766 H1780 0.961 . S
C1767 C1764 1.539 . S
C1767 H1781 0.958 . S
C1767 H1782 0.961 . S
C1767 H1783 0.960 . S
H1768 C1752 0.931 . S
H1769 C1757 0.929 . S
H1770 C1758 0.960 . S
H1771 C1758 0.962 . S
H1772 C1758 0.960 . S
H1773 C1759 0.961 . S
H1774 C1759 0.961 . S
H1775 C1759 0.961 . S
H1776 C1760 0.931 . S
H1777 C1765 0.930 . S
H1778 C1766 0.956 . S
H1779 C1766 0.961 . S
H1780 C1766 0.961 . S
H1781 C1767 0.958 . S
H1782 C1767 0.961 . S
H1783 C1767 0.960 . S
C1784 C1785 1.391 . S
C1784 C1786 1.394 . S
C1784 H1800 0.931 . S
C1785 C1784 1.391 . S
C1785 C1789 1.376 . S
C1786 C1784 1.394 . S
C1786 C1787 1.369 . S
C1786 C1790 1.531 . S
C1787 C1786 1.369 . S
C1787 C1788 1.410 . S
C1787 C1795 1.503 . S
C1788 C1787 1.410 . S
C1788 C1789 1.392 . S
C1788 C1791 1.511 . S
C1789 C1785 1.376 . S
C1789 C1788 1.392 . S
C1789 H1801 0.929 . S
C1790 C1786 1.531 . S
C1790 H1802 0.960 . S
C1790 H1803 0.962 . S
C1790 H1804 0.960 . S
C1791 C1788 1.511 . S
C1791 H1805 0.961 . S
C1791 H1806 0.961 . S
C1791 H1807 0.961 . S
C1792 C1793 1.370 . S
C1792 C1794 1.363 . S
C1792 H1808 0.931 . S
C1793 C1792 1.370 . S
C1793 C1797 1.408 . S
C1794 C1792 1.363 . S
C1794 C1795 1.370 . S
C1794 C1798 1.524 . S
C1795 C1787 1.503 . S
C1795 C1794 1.370 . S
C1795 C1796 1.403 . S
C1796 C1795 1.403 . S
C1796 C1797 1.404 . S
C1796 C1799 1.539 . S
C1797 C1793 1.408 . S
C1797 C1796 1.404 . S
C1797 H1809 0.930 . S
C1798 C1794 1.524 . S
C1798 H1810 0.956 . S
C1798 H1811 0.961 . S
C1798 H1812 0.961 . S
C1799 C1796 1.539 . S
C1799 H1813 0.958 . S
C1799 H1814 0.961 . S
C1799 H1815 0.960 . S
H1800 C1784 0.931 . S
H1801 C1789 0.929 . S
H1802 C1790 0.960 . S
H1803 C1790 0.962 . S
H1804 C1790 0.960 . S
H1805 C1791 0.961 . S
H1806 C1791 0.961 . S
H1807 C1791 0.961 . S
H1808 C1792 0.931 . S
H1809 C1797 0.930 . S
H1810 C1798 0.956 . S
H1811 C1798 0.961 . S
H1812 C1798 0.961 . S
H1813 C1799 0.958 . S
H1814 C1799 0.961 . S
H1815 C1799 0.960 . S
C1816 C1817 1.391 . S
C1816 C1818 1.394 . S
C1816 H1832 0.931 . S
C1817 C1816 1.391 . S
C1817 C1821 1.376 . S
C1818 C1816 1.394 . S
C1818 C1819 1.369 . S
C1818 C1822 1.531 . S
C1819 C1818 1.369 . S
C1819 C1820 1.410 . S
C1819 C1827 1.503 . S
C1820 C1819 1.410 . S
C1820 C1821 1.392 . S
C1820 C1823 1.511 . S
C1821 C1817 1.376 . S
C1821 C1820 1.392 . S
C1821 H1833 0.929 . S
C1822 C1818 1.531 . S
C1822 H1834 0.960 . S
C1822 H1835 0.962 . S
C1822 H1836 0.960 . S
C1823 C1820 1.511 . S
C1823 H1837 0.961 . S
C1823 H1838 0.961 . S
C1823 H1839 0.961 . S
C1824 C1825 1.370 . S
C1824 C1826 1.363 . S
C1824 H1840 0.931 . S
C1825 C1824 1.370 . S
C1825 C1829 1.408 . S
C1826 C1824 1.363 . S
C1826 C1827 1.370 . S
C1826 C1830 1.524 . S
C1827 C1819 1.503 . S
C1827 C1826 1.370 . S
C1827 C1828 1.403 . S
C1828 C1827 1.403 . S
C1828 C1829 1.404 . S
C1828 C1831 1.539 . S
C1829 C1825 1.408 . S
C1829 C1828 1.404 . S
C1829 H1841 0.930 . S
C1830 C1826 1.524 . S
C1830 H1842 0.956 . S
C1830 H1843 0.961 . S
C1830 H1844 0.961 . S
C1831 C1828 1.539 . S
C1831 H1845 0.958 . S
C1831 H1846 0.961 . S
C1831 H1847 0.960 . S
H1832 C1816 0.931 . S
H1833 C1821 0.929 . S
H1834 C1822 0.960 . S
H1835 C1822 0.962 . S
H1836 C1822 0.960 . S
H1837 C1823 0.961 . S
H1838 C1823 0.961 . S
H1839 C1823 0.961 . S
H1840 C1824 0.931 . S
H1841 C1829 0.930 . S
H1842 C1830 0.956 . S
H1843 C1830 0.961 . S
H1844 C1830 0.961 . S
H1845 C1831 0.958 . S
H1846 C1831 0.961 . S
H1847 C1831 0.960 . S
C1848 C1849 1.391 . S
C1848 C1850 1.394 . S
C1848 H1864 0.931 . S
C1849 C1848 1.391 . S
C1849 C1853 1.376 . S
C1850 C1848 1.394 . S
C1850 C1851 1.369 . S
C1850 C1854 1.531 . S
C1851 C1850 1.369 . S
C1851 C1852 1.410 . S
C1851 C1859 1.503 . S
C1852 C1851 1.410 . S
C1852 C1853 1.392 . S
C1852 C1855 1.511 . S
C1853 C1849 1.376 . S
C1853 C1852 1.392 . S
C1853 H1865 0.929 . S
C1854 C1850 1.531 . S
C1854 H1866 0.960 . S
C1854 H1867 0.962 . S
C1854 H1868 0.960 . S
C1855 C1852 1.511 . S
C1855 H1869 0.961 . S
C1855 H1870 0.961 . S
C1855 H1871 0.961 . S
C1856 C1857 1.370 . S
C1856 C1858 1.363 . S
C1856 H1872 0.931 . S
C1857 C1856 1.370 . S
C1857 C1861 1.408 . S
C1858 C1856 1.363 . S
C1858 C1859 1.370 . S
C1858 C1862 1.524 . S
C1859 C1851 1.503 . S
C1859 C1858 1.370 . S
C1859 C1860 1.403 . S
C1860 C1859 1.403 . S
C1860 C1861 1.404 . S
C1860 C1863 1.539 . S
C1861 C1857 1.408 . S
C1861 C1860 1.404 . S
C1861 H1873 0.930 . S
C1862 C1858 1.524 . S
C1862 H1874 0.956 . S
C1862 H1875 0.961 . S
C1862 H1876 0.961 . S
C1863 C1860 1.539 . S
C1863 H1877 0.958 . S
C1863 H1878 0.961 . S
C1863 H1879 0.960 . S
H1864 C1848 0.931 . S
H1865 C1853 0.929 . S
H1866 C1854 0.960 . S
H1867 C1854 0.962 . S
H1868 C1854 0.960 . S
H1869 C1855 0.961 . S
H1870 C1855 0.961 . S
H1871 C1855 0.961 . S
H1872 C1856 0.931 . S
H1873 C1861 0.930 . S
H1874 C1862 0.956 . S
H1875 C1862 0.961 . S
H1876 C1862 0.961 . S
H1877 C1863 0.958 . S
H1878 C1863 0.961 . S
H1879 C1863 0.960 . S
C1880 C1881 1.391 . S
C1880 C1882 1.394 . S
C1880 H1896 0.931 . S
C1881 C1880 1.391 . S
C1881 C1885 1.376 . S
C1882 C1880 1.394 . S
C1882 C1883 1.369 . S
C1882 C1886 1.531 . S
C1883 C1882 1.369 . S
C1883 C1884 1.410 . S
C1883 C1891 1.503 . S
C1884 C1883 1.410 . S
C1884 C1885 1.392 . S
C1884 C1887 1.511 . S
C1885 C1881 1.376 . S
C1885 C1884 1.392 . S
C1885 H1897 0.929 . S
C1886 C1882 1.531 . S
C1886 H1898 0.960 . S
C1886 H1899 0.962 . S
C1886 H1900 0.960 . S
C1887 C1884 1.511 . S
C1887 H1901 0.961 . S
C1887 H1902 0.961 . S
C1887 H1903 0.961 . S
C1888 C1889 1.370 . S
C1888 C1890 1.363 . S
C1888 H1904 0.931 . S
C1889 C1888 1.370 . S
C1889 C1893 1.408 . S
C1890 C1888 1.363 . S
C1890 C1891 1.370 . S
C1890 C1894 1.524 . S
C1891 C1883 1.503 . S
C1891 C1890 1.370 . S
C1891 C1892 1.403 . S
C1892 C1891 1.403 . S
C1892 C1893 1.404 . S
C1892 C1895 1.539 . S
C1893 C1889 1.408 . S
C1893 C1892 1.404 . S
C1893 H1905 0.930 . S
C1894 C1890 1.524 . S
C1894 H1906 0.956 . S
C1894 H1907 0.961 . S
C1894 H1908 0.961 . S
C1895 C1892 1.539 . S
C1895 H1909 0.958 . S
C1895 H1910 0.961 . S
C1895 H1911 0.960 . S
H1896 C1880 0.931 . S
H1897 C1885 0.929 . S
H1898 C1886 0.960 . S
H1899 C1886 0.962 . S
H1900 C1886 0.960 . S
H1901 C1887 0.961 . S
H1902 C1887 0.961 . S
H1903 C1887 0.961 . S
H1904 C1888 0.931 . S
H1905 C1893 0.930 . S
H1906 C1894 0.956 . S
H1907 C1894 0.961 . S
H1908 C1894 0.961 . S
H1909 C1895 0.958 . S
H1910 C1895 0.961 . S
H1911 C1895 0.960 . S
C1912 C1913 1.391 . S
C1912 C1914 1.394 . S
C1912 H1928 0.931 . S
C1913 C1912 1.391 . S
C1913 C1917 1.376 . S
C1914 C1912 1.394 . S
C1914 C1915 1.369 . S
C1914 C1918 1.531 . S
C1915 C1914 1.369 . S
C1915 C1916 1.410 . S
C1915 C1923 1.503 . S
C1916 C1915 1.410 . S
C1916 C1917 1.392 . S
C1916 C1919 1.511 . S
C1917 C1913 1.376 . S
C1917 C1916 1.392 . S
C1917 H1929 0.929 . S
C1918 C1914 1.531 . S
C1918 H1930 0.960 . S
C1918 H1931 0.962 . S
C1918 H1932 0.960 . S
C1919 C1916 1.511 . S
C1919 H1933 0.961 . S
C1919 H1934 0.961 . S
C1919 H1935 0.961 . S
C1920 C1921 1.370 . S
C1920 C1922 1.363 . S
C1920 H1936 0.931 . S
C1921 C1920 1.370 . S
C1921 C1925 1.408 . S
C1922 C1920 1.363 . S
C1922 C1923 1.370 . S
C1922 C1926 1.524 . S
C1923 C1915 1.503 . S
C1923 C1922 1.370 . S
C1923 C1924 1.403 . S
C1924 C1923 1.403 . S
C1924 C1925 1.404 . S
C1924 C1927 1.539 . S
C1925 C1921 1.408 . S
C1925 C1924 1.404 . S
C1925 H1937 0.930 . S
C1926 C1922 1.524 . S
C1926 H1938 0.956 . S
C1926 H1939 0.961 . S
C1926 H1940 0.961 . S
C1927 C1924 1.539 . S
C1927 H1941 0.958 . S
C1927 H1942 0.961 . S
C1927 H1943 0.960 . S
H1928 C1912 0.931 . S
H1929 C1917 0.929 . S
H1930 C1918 0.960 . S
H1931 C1918 0.962 . S
H1932 C1918 0.960 . S
H1933 C1919 0.961 . S
H1934 C1919 0.961 . S
H1935 C1919 0.961 . S
H1936 C1920 0.931 . S
H1937 C1925 0.930 . S
H1938 C1926 0.956 . S
H1939 C1926 0.961 . S
H1940 C1926 0.961 . S
H1941 C1927 0.958 . S
H1942 C1927 0.961 . S
H1943 C1927 0.960 . S
C1944 C1945 1.391 . S
C1944 C1946 1.394 . S
C1944 H1960 0.931 . S
C1945 C1944 1.391 . S
C1945 C1949 1.376 . S
C1946 C1944 1.394 . S
C1946 C1947 1.369 . S
C1946 C1950 1.531 . S
C1947 C1946 1.369 . S
C1947 C1948 1.410 . S
C1947 C1955 1.503 . S
C1948 C1947 1.410 . S
C1948 C1949 1.392 . S
C1948 C1951 1.511 . S
C1949 C1945 1.376 . S
C1949 C1948 1.392 . S
C1949 H1961 0.929 . S
C1950 C1946 1.531 . S
C1950 H1962 0.960 . S
C1950 H1963 0.962 . S
C1950 H1964 0.960 . S
C1951 C1948 1.511 . S
C1951 H1965 0.961 . S
C1951 H1966 0.961 . S
C1951 H1967 0.961 . S
C1952 C1953 1.370 . S
C1952 C1954 1.363 . S
C1952 H1968 0.931 . S
C1953 C1952 1.370 . S
C1953 C1957 1.408 . S
C1954 C1952 1.363 . S
C1954 C1955 1.370 . S
C1954 C1958 1.524 . S
C1955 C1947 1.503 . S
C1955 C1954 1.370 . S
C1955 C1956 1.403 . S
C1956 C1955 1.403 . S
C1956 C1957 1.404 . S
C1956 C1959 1.539 . S
C1957 C1953 1.408 . S
C1957 C1956 1.404 . S
C1957 H1969 0.930 . S
C1958 C1954 1.524 . S
C1958 H1970 0.956 . S
C1958 H1971 0.961 . S
C1958 H1972 0.961 . S
C1959 C1956 1.539 . S
C1959 H1973 0.958 . S
C1959 H1974 0.961 . S
C1959 H1975 0.960 . S
H1960 C1944 0.931 . S
H1961 C1949 0.929 . S
H1962 C1950 0.960 . S
H1963 C1950 0.962 . S
H1964 C1950 0.960 . S
H1965 C1951 0.961 . S
H1966 C1951 0.961 . S
H1967 C1951 0.961 . S
H1968 C1952 0.931 . S
H1969 C1957 0.930 . S
H1970 C1958 0.956 . S
H1971 C1958 0.961 . S
H1972 C1958 0.961 . S
H1973 C1959 0.958 . S
H1974 C1959 0.961 . S
H1975 C1959 0.960 . S
C1976 C1977 1.391 . S
C1976 C1978 1.394 . S
C1976 H1992 0.931 . S
C1977 C1976 1.391 . S
C1977 C1981 1.376 . S
C1978 C1976 1.394 . S
C1978 C1979 1.369 . S
C1978 C1982 1.531 . S
C1979 C1978 1.369 . S
C1979 C1980 1.410 . S
C1979 C1987 1.503 . S
C1980 C1979 1.410 . S
C1980 C1981 1.392 . S
C1980 C1983 1.511 . S
C1981 C1977 1.376 . S
C1981 C1980 1.392 . S
C1981 H1993 0.929 . S
C1982 C1978 1.531 . S
C1982 H1994 0.960 . S
C1982 H1995 0.962 . S
C1982 H1996 0.960 . S
C1983 C1980 1.511 . S
C1983 H1997 0.961 . S
C1983 H1998 0.961 . S
C1983 H1999 0.961 . S
C1984 C1985 1.370 . S
C1984 C1986 1.363 . S
C1984 H2000 0.931 . S
C1985 C1984 1.370 . S
C1985 C1989 1.408 . S
C1986 C1984 1.363 . S
C1986 C1987 1.370 . S
C1986 C1990 1.524 . S
C1987 C1979 1.503 . S
C1987 C1986 1.370 . S
C1987 C1988 1.403 . S
C1988 C1987 1.403 . S
C1988 C1989 1.404 . S
C1988 C1991 1.539 . S
C1989 C1985 1.408 . S
C1989 C1988 1.404 . S
C1989 H2001 0.930 . S
C1990 C1986 1.524 . S
C1990 H2002 0.956 . S
C1990 H2003 0.961 . S
C1990 H2004 0.961 . S
C1991 C1988 1.539 . S
C1991 H2005 0.958 . S
C1991 H2006 0.961 . S
C1991 H2007 0.960 . S
H1992 C1976 0.931 . S
H1993 C1981 0.929 . S
H1994 C1982 0.960 . S
H1995 C1982 0.962 . S
H1996 C1982 0.960 . S
H1997 C1983 0.961 . S
H1998 C1983 0.961 . S
H1999 C1983 0.961 . S
H2000 C1984 0.931 . S
H2001 C1989 0.930 . S
H2002 C1990 0.956 . S
H2003 C1990 0.961 . S
H2004 C1990 0.961 . S
H2005 C1991 0.958 . S
H2006 C1991 0.961 . S
H2007 C1991 0.960 . S
C2008 C2009 1.391 . S
C2008 C2010 1.394 . S
C2008 H2024 0.931 . S
C2009 C2008 1.391 . S
C2009 C2013 1.376 . S
C2010 C2008 1.394 . S
C2010 C2011 1.369 . S
C2010 C2014 1.531 . S
C2011 C2010 1.369 . S
C2011 C2012 1.410 . S
C2011 C2019 1.503 . S
C2012 C2011 1.410 . S
C2012 C2013 1.392 . S
C2012 C2015 1.511 . S
C2013 C2009 1.376 . S
C2013 C2012 1.392 . S
C2013 H2025 0.929 . S
C2014 C2010 1.531 . S
C2014 H2026 0.960 . S
C2014 H2027 0.962 . S
C2014 H2028 0.960 . S
C2015 C2012 1.511 . S
C2015 H2029 0.961 . S
C2015 H2030 0.961 . S
C2015 H2031 0.961 . S
C2016 C2017 1.370 . S
C2016 C2018 1.363 . S
C2016 H2032 0.931 . S
C2017 C2016 1.370 . S
C2017 C2021 1.408 . S
C2018 C2016 1.363 . S
C2018 C2019 1.370 . S
C2018 C2022 1.524 . S
C2019 C2011 1.503 . S
C2019 C2018 1.370 . S
C2019 C2020 1.403 . S
C2020 C2019 1.403 . S
C2020 C2021 1.404 . S
C2020 C2023 1.539 . S
C2021 C2017 1.408 . S
C2021 C2020 1.404 . S
C2021 H2033 0.930 . S
C2022 C2018 1.524 . S
C2022 H2034 0.956 . S
C2022 H2035 0.961 . S
C2022 H2036 0.961 . S
C2023 C2020 1.539 . S
C2023 H2037 0.958 . S
C2023 H2038 0.961 . S
C2023 H2039 0.960 . S
H2024 C2008 0.931 . S
H2025 C2013 0.929 . S
H2026 C2014 0.960 . S
H2027 C2014 0.962 . S
H2028 C2014 0.960 . S
H2029 C2015 0.961 . S
H2030 C2015 0.961 . S
H2031 C2015 0.961 . S
H2032 C2016 0.931 . S
H2033 C2021 0.930 . S
H2034 C2022 0.956 . S
H2035 C2022 0.961 . S
H2036 C2022 0.961 . S
H2037 C2023 0.958 . S
H2038 C2023 0.961 . S
H2039 C2023 0.960 . S
C2040 C2041 1.391 . S
C2040 C2042 1.394 . S
C2040 H2056 0.931 . S
C2041 C2040 1.391 . S
C2041 C2045 1.376 . S
C2042 C2040 1.394 . S
C2042 C2043 1.369 . S
C2042 C2046 1.531 . S
C2043 C2042 1.369 . S
C2043 C2044 1.410 . S
C2043 C2051 1.503 . S
C2044 C2043 1.410 . S
C2044 C2045 1.392 . S
C2044 C2047 1.511 . S
C2045 C2041 1.376 . S
C2045 C2044 1.392 . S
C2045 H2057 0.929 . S
C2046 C2042 1.531 . S
C2046 H2058 0.960 . S
C2046 H2059 0.962 . S
C2046 H2060 0.960 . S
C2047 C2044 1.511 . S
C2047 H2061 0.961 . S
C2047 H2062 0.961 . S
C2047 H2063 0.961 . S
C2048 C2049 1.370 . S
C2048 C2050 1.363 . S
C2048 H2064 0.931 . S
C2049 C2048 1.370 . S
C2049 C2053 1.408 . S
C2050 C2048 1.363 . S
C2050 C2051 1.370 . S
C2050 C2054 1.524 . S
C2051 C2043 1.503 . S
C2051 C2050 1.370 . S
C2051 C2052 1.403 . S
C2052 C2051 1.403 . S
C2052 C2053 1.404 . S
C2052 C2055 1.539 . S
C2053 C2049 1.408 . S
C2053 C2052 1.404 . S
C2053 H2065 0.930 . S
C2054 C2050 1.524 . S
C2054 H2066 0.956 . S
C2054 H2067 0.961 . S
C2054 H2068 0.961 . S
C2055 C2052 1.539 . S
C2055 H2069 0.958 . S
C2055 H2070 0.961 . S
C2055 H2071 0.960 . S
H2056 C2040 0.931 . S
H2057 C2045 0.929 . S
H2058 C2046 0.960 . S
H2059 C2046 0.962 . S
H2060 C2046 0.960 . S
H2061 C2047 0.961 . S
H2062 C2047 0.961 . S
H2063 C2047 0.961 . S
H2064 C2048 0.931 . S
H2065 C2053 0.930 . S
H2066 C2054 0.956 . S
H2067 C2054 0.961 . S
H2068 C2054 0.961 . S
H2069 C2055 0.958 . S
H2070 C2055 0.961 . S
H2071 C2055 0.960 . S
C2072 C2073 1.391 . S
C2072 C2074 1.394 . S
C2072 H2088 0.931 . S
C2073 C2072 1.391 . S
C2073 C2077 1.376 . S
C2074 C2072 1.394 . S
C2074 C2075 1.369 . S
C2074 C2078 1.531 . S
C2075 C2074 1.369 . S
C2075 C2076 1.410 . S
C2075 C2083 1.503 . S
C2076 C2075 1.410 . S
C2076 C2077 1.392 . S
C2076 C2079 1.511 . S
C2077 C2073 1.376 . S
C2077 C2076 1.392 . S
C2077 H2089 0.929 . S
C2078 C2074 1.531 . S
C2078 H2090 0.960 . S
C2078 H2091 0.962 . S
C2078 H2092 0.960 . S
C2079 C2076 1.511 . S
C2079 H2093 0.961 . S
C2079 H2094 0.961 . S
C2079 H2095 0.961 . S
C2080 C2081 1.370 . S
C2080 C2082 1.363 . S
C2080 H2096 0.931 . S
C2081 C2080 1.370 . S
C2081 C2085 1.408 . S
C2082 C2080 1.363 . S
C2082 C2083 1.370 . S
C2082 C2086 1.524 . S
C2083 C2075 1.503 . S
C2083 C2082 1.370 . S
C2083 C2084 1.403 . S
C2084 C2083 1.403 . S
C2084 C2085 1.404 . S
C2084 C2087 1.539 . S
C2085 C2081 1.408 . S
C2085 C2084 1.404 . S
C2085 H2097 0.930 . S
C2086 C2082 1.524 . S
C2086 H2098 0.956 . S
C2086 H2099 0.961 . S
C2086 H2100 0.961 . S
C2087 C2084 1.539 . S
C2087 H2101 0.958 . S
C2087 H2102 0.961 . S
C2087 H2103 0.960 . S
H2088 C2072 0.931 . S
H2089 C2077 0.929 . S
H2090 C2078 0.960 . S
H2091 C2078 0.962 . S
H2092 C2078 0.960 . S
H2093 C2079 0.961 . S
H2094 C2079 0.961 . S
H2095 C2079 0.961 . S
H2096 C2080 0.931 . S
H2097 C2085 0.930 . S
H2098 C2086 0.956 . S
H2099 C2086 0.961 . S
H2100 C2086 0.961 . S
H2101 C2087 0.958 . S
H2102 C2087 0.961 . S
H2103 C2087 0.960 . S
C2104 C2105 1.391 . S
C2104 C2106 1.394 . S
C2104 H2120 0.931 . S
C2105 C2104 1.391 . S
C2105 C2109 1.376 . S
C2106 C2104 1.394 . S
C2106 C2107 1.369 . S
C2106 C2110 1.531 . S
C2107 C2106 1.369 . S
C2107 C2108 1.410 . S
C2107 C2115 1.503 . S
C2108 C2107 1.410 . S
C2108 C2109 1.392 . S
C2108 C2111 1.511 . S
C2109 C2105 1.376 . S
C2109 C2108 1.392 . S
C2109 H2121 0.929 . S
C2110 C2106 1.531 . S
C2110 H2122 0.960 . S
C2110 H2123 0.962 . S
C2110 H2124 0.960 . S
C2111 C2108 1.511 . S
C2111 H2125 0.961 . S
C2111 H2126 0.961 . S
C2111 H2127 0.961 . S
C2112 C2113 1.370 . S
C2112 C2114 1.363 . S
C2112 H2128 0.931 . S
C2113 C2112 1.370 . S
C2113 C2117 1.408 . S
C2114 C2112 1.363 . S
C2114 C2115 1.370 . S
C2114 C2118 1.524 . S
C2115 C2107 1.503 . S
C2115 C2114 1.370 . S
C2115 C2116 1.403 . S
C2116 C2115 1.403 . S
C2116 C2117 1.404 . S
C2116 C2119 1.539 . S
C2117 C2113 1.408 . S
C2117 C2116 1.404 . S
C2117 H2129 0.930 . S
C2118 C2114 1.524 . S
C2118 H2130 0.956 . S
C2118 H2131 0.961 . S
C2118 H2132 0.961 . S
C2119 C2116 1.539 . S
C2119 H2133 0.958 . S
C2119 H2134 0.961 . S
C2119 H2135 0.960 . S
H2120 C2104 0.931 . S
H2121 C2109 0.929 . S
H2122 C2110 0.960 . S
H2123 C2110 0.962 . S
H2124 C2110 0.960 . S
H2125 C2111 0.961 . S
H2126 C2111 0.961 . S
H2127 C2111 0.961 . S
H2128 C2112 0.931 . S
H2129 C2117 0.930 . S
H2130 C2118 0.956 . S
H2131 C2118 0.961 . S
H2132 C2118 0.961 . S
H2133 C2119 0.958 . S
H2134 C2119 0.961 . S
H2135 C2119 0.960 . S
C2136 C2137 1.391 . S
C2136 C2138 1.394 . S
C2136 H2152 0.931 . S
C2137 C2136 1.391 . S
C2137 C2141 1.376 . S
C2138 C2136 1.394 . S
C2138 C2139 1.369 . S
C2138 C2142 1.531 . S
C2139 C2138 1.369 . S
C2139 C2140 1.410 . S
C2139 C2147 1.503 . S
C2140 C2139 1.410 . S
C2140 C2141 1.392 . S
C2140 C2143 1.511 . S
C2141 C2137 1.376 . S
C2141 C2140 1.392 . S
C2141 H2153 0.929 . S
C2142 C2138 1.531 . S
C2142 H2154 0.960 . S
C2142 H2155 0.962 . S
C2142 H2156 0.960 . S
C2143 C2140 1.511 . S
C2143 H2157 0.961 . S
C2143 H2158 0.961 . S
C2143 H2159 0.961 . S
C2144 C2145 1.370 . S
C2144 C2146 1.363 . S
C2144 H2160 0.931 . S
C2145 C2144 1.370 . S
C2145 C2149 1.408 . S
C2146 C2144 1.363 . S
C2146 C2147 1.370 . S
C2146 C2150 1.524 . S
C2147 C2139 1.503 . S
C2147 C2146 1.370 . S
C2147 C2148 1.403 . S
C2148 C2147 1.403 . S
C2148 C2149 1.404 . S
C2148 C2151 1.539 . S
C2149 C2145 1.408 . S
C2149 C2148 1.404 . S
C2149 H2161 0.930 . S
C2150 C2146 1.524 . S
C2150 H2162 0.956 . S
C2150 H2163 0.961 . S
C2150 H2164 0.961 . S
C2151 C2148 1.539 . S
C2151 H2165 0.958 . S
C2151 H2166 0.961 . S
C2151 H2167 0.960 . S
H2152 C2136 0.931 . S
H2153 C2141 0.929 . S
H2154 C2142 0.960 . S
H2155 C2142 0.962 . S
H2156 C2142 0.960 . S
H2157 C2143 0.961 . S
H2158 C2143 0.961 . S
H2159 C2143 0.961 . S
H2160 C2144 0.931 . S
H2161 C2149 0.930 . S
H2162 C2150 0.956 . S
H2163 C2150 0.961 . S
H2164 C2150 0.961 . S
H2165 C2151 0.958 . S
H2166 C2151 0.961 . S
H2167 C2151 0.960 . S
C2168 C2169 1.391 . S
C2168 C2170 1.394 . S
C2168 H2184 0.931 . S
C2169 C2168 1.391 . S
C2169 C2173 1.376 . S
C2170 C2168 1.394 . S
C2170 C2171 1.369 . S
C2170 C2174 1.531 . S
C2171 C2170 1.369 . S
C2171 C2172 1.410 . S
C2171 C2179 1.503 . S
C2172 C2171 1.410 . S
C2172 C2173 1.392 . S
C2172 C2175 1.511 . S
C2173 C2169 1.376 . S
C2173 C2172 1.392 . S
C2173 H2185 0.929 . S
C2174 C2170 1.531 . S
C2174 H2186 0.960 . S
C2174 H2187 0.962 . S
C2174 H2188 0.960 . S
C2175 C2172 1.511 . S
C2175 H2189 0.961 . S
C2175 H2190 0.961 . S
C2175 H2191 0.961 . S
C2176 C2177 1.370 . S
C2176 C2178 1.363 . S
C2176 H2192 0.931 . S
C2177 C2176 1.370 . S
C2177 C2181 1.408 . S
C2178 C2176 1.363 . S
C2178 C2179 1.370 . S
C2178 C2182 1.524 . S
C2179 C2171 1.503 . S
C2179 C2178 1.370 . S
C2179 C2180 1.403 . S
C2180 C2179 1.403 . S
C2180 C2181 1.404 . S
C2180 C2183 1.539 . S
C2181 C2177 1.408 . S
C2181 C2180 1.404 . S
C2181 H2193 0.930 . S
C2182 C2178 1.524 . S
C2182 H2194 0.956 . S
C2182 H2195 0.961 . S
C2182 H2196 0.961 . S
C2183 C2180 1.539 . S
C2183 H2197 0.958 . S
C2183 H2198 0.961 . S
C2183 H2199 0.960 . S
H2184 C2168 0.931 . S
H2185 C2173 0.929 . S
H2186 C2174 0.960 . S
H2187 C2174 0.962 . S
H2188 C2174 0.960 . S
H2189 C2175 0.961 . S
H2190 C2175 0.961 . S
H2191 C2175 0.961 . S
H2192 C2176 0.931 . S
H2193 C2181 0.930 . S
H2194 C2182 0.956 . S
H2195 C2182 0.961 . S
H2196 C2182 0.961 . S
H2197 C2183 0.958 . S
H2198 C2183 0.961 . S
H2199 C2183 0.960 . S
C2200 C2201 1.391 . S
C2200 C2202 1.394 . S
C2200 H2216 0.931 . S
C2201 C2200 1.391 . S
C2201 C2205 1.376 . S
C2202 C2200 1.394 . S
C2202 C2203 1.369 . S
C2202 C2206 1.531 . S
C2203 C2202 1.369 . S
C2203 C2204 1.410 . S
C2203 C2211 1.503 . S
C2204 C2203 1.410 . S
C2204 C2205 1.392 . S
C2204 C2207 1.511 . S
C2205 C2201 1.376 . S
C2205 C2204 1.392 . S
C2205 H2217 0.929 . S
C2206 C2202 1.531 . S
C2206 H2218 0.960 . S
C2206 H2219 0.962 . S
C2206 H2220 0.960 . S
C2207 C2204 1.511 . S
C2207 H2221 0.961 . S
C2207 H2222 0.961 . S
C2207 H2223 0.961 . S
C2208 C2209 1.370 . S
C2208 C2210 1.363 . S
C2208 H2224 0.931 . S
C2209 C2208 1.370 . S
C2209 C2213 1.408 . S
C2210 C2208 1.363 . S
C2210 C2211 1.370 . S
C2210 C2214 1.524 . S
C2211 C2203 1.503 . S
C2211 C2210 1.370 . S
C2211 C2212 1.403 . S
C2212 C2211 1.403 . S
C2212 C2213 1.404 . S
C2212 C2215 1.539 . S
C2213 C2209 1.408 . S
C2213 C2212 1.404 . S
C2213 H2225 0.930 . S
C2214 C2210 1.524 . S
C2214 H2226 0.956 . S
C2214 H2227 0.961 . S
C2214 H2228 0.961 . S
C2215 C2212 1.539 . S
C2215 H2229 0.958 . S
C2215 H2230 0.961 . S
C2215 H2231 0.960 . S
H2216 C2200 0.931 . S
H2217 C2205 0.929 . S
H2218 C2206 0.960 . S
H2219 C2206 0.962 . S
H2220 C2206 0.960 . S
H2221 C2207 0.961 . S
H2222 C2207 0.961 . S
H2223 C2207 0.961 . S
H2224 C2208 0.931 . S
H2225 C2213 0.930 . S
H2226 C2214 0.956 . S
H2227 C2214 0.961 . S
H2228 C2214 0.961 . S
H2229 C2215 0.958 . S
H2230 C2215 0.961 . S
H2231 C2215 0.960 . S
C2232 C2233 1.391 . S
C2232 C2234 1.394 . S
C2232 H2248 0.931 . S
C2233 C2232 1.391 . S
C2233 C2237 1.376 . S
C2234 C2232 1.394 . S
C2234 C2235 1.369 . S
C2234 C2238 1.531 . S
C2235 C2234 1.369 . S
C2235 C2236 1.410 . S
C2235 C2243 1.503 . S
C2236 C2235 1.410 . S
C2236 C2237 1.392 . S
C2236 C2239 1.511 . S
C2237 C2233 1.376 . S
C2237 C2236 1.392 . S
C2237 H2249 0.929 . S
C2238 C2234 1.531 . S
C2238 H2250 0.960 . S
C2238 H2251 0.962 . S
C2238 H2252 0.960 . S
C2239 C2236 1.511 . S
C2239 H2253 0.961 . S
C2239 H2254 0.961 . S
C2239 H2255 0.961 . S
C2240 C2241 1.370 . S
C2240 C2242 1.363 . S
C2240 H2256 0.931 . S
C2241 C2240 1.370 . S
C2241 C2245 1.408 . S
C2242 C2240 1.363 . S
C2242 C2243 1.370 . S
C2242 C2246 1.524 . S
C2243 C2235 1.503 . S
C2243 C2242 1.370 . S
C2243 C2244 1.403 . S
C2244 C2243 1.403 . S
C2244 C2245 1.404 . S
C2244 C2247 1.539 . S
C2245 C2241 1.408 . S
C2245 C2244 1.404 . S
C2245 H2257 0.930 . S
C2246 C2242 1.524 . S
C2246 H2258 0.956 . S
C2246 H2259 0.961 . S
C2246 H2260 0.961 . S
C2247 C2244 1.539 . S
C2247 H2261 0.958 . S
C2247 H2262 0.961 . S
C2247 H2263 0.960 . S
H2248 C2232 0.931 . S
H2249 C2237 0.929 . S
H2250 C2238 0.960 . S
H2251 C2238 0.962 . S
H2252 C2238 0.960 . S
H2253 C2239 0.961 . S
H2254 C2239 0.961 . S
H2255 C2239 0.961 . S
H2256 C2240 0.931 . S
H2257 C2245 0.930 . S
H2258 C2246 0.956 . S
H2259 C2246 0.961 . S
H2260 C2246 0.961 . S
H2261 C2247 0.958 . S
H2262 C2247 0.961 . S
H2263 C2247 0.960 . S
C2264 C2265 1.391 . S
C2264 C2266 1.394 . S
C2264 H2280 0.931 . S
C2265 C2264 1.391 . S
C2265 C2269 1.376 . S
C2266 C2264 1.394 . S
C2266 C2267 1.369 . S
C2266 C2270 1.531 . S
C2267 C2266 1.369 . S
C2267 C2268 1.410 . S
C2267 C2275 1.503 . S
C2268 C2267 1.410 . S
C2268 C2269 1.392 . S
C2268 C2271 1.511 . S
C2269 C2265 1.376 . S
C2269 C2268 1.392 . S
C2269 H2281 0.929 . S
C2270 C2266 1.531 . S
C2270 H2282 0.960 . S
C2270 H2283 0.962 . S
C2270 H2284 0.960 . S
C2271 C2268 1.511 . S
C2271 H2285 0.961 . S
C2271 H2286 0.961 . S
C2271 H2287 0.961 . S
C2272 C2273 1.370 . S
C2272 C2274 1.363 . S
C2272 H2288 0.931 . S
C2273 C2272 1.370 . S
C2273 C2277 1.408 . S
C2274 C2272 1.363 . S
C2274 C2275 1.370 . S
C2274 C2278 1.524 . S
C2275 C2267 1.503 . S
C2275 C2274 1.370 . S
C2275 C2276 1.403 . S
C2276 C2275 1.403 . S
C2276 C2277 1.404 . S
C2276 C2279 1.539 . S
C2277 C2273 1.408 . S
C2277 C2276 1.404 . S
C2277 H2289 0.930 . S
C2278 C2274 1.524 . S
C2278 H2290 0.956 . S
C2278 H2291 0.961 . S
C2278 H2292 0.961 . S
C2279 C2276 1.539 . S
C2279 H2293 0.958 . S
C2279 H2294 0.961 . S
C2279 H2295 0.960 . S
H2280 C2264 0.931 . S
H2281 C2269 0.929 . S
H2282 C2270 0.960 . S
H2283 C2270 0.962 . S
H2284 C2270 0.960 . S
H2285 C2271 0.961 . S
H2286 C2271 0.961 . S
H2287 C2271 0.961 . S
H2288 C2272 0.931 . S
H2289 C2277 0.930 . S
H2290 C2278 0.956 . S
H2291 C2278 0.961 . S
H2292 C2278 0.961 . S
H2293 C2279 0.958 . S
H2294 C2279 0.961 . S
H2295 C2279 0.960 . S
C2296 C2297 1.391 . S
C2296 C2298 1.394 . S
C2296 H2312 0.931 1_556 S
C2297 C2296 1.391 . S
C2297 C2301 1.376 . S
C2298 C2296 1.394 . S
C2298 C2299 1.369 . S
C2298 C2302 1.531 . S
C2299 C2298 1.369 . S
C2299 C2300 1.410 . S
C2299 C2307 1.503 . S
C2300 C2299 1.410 . S
C2300 C2301 1.392 . S
C2300 C2303 1.511 . S
C2301 C2297 1.376 . S
C2301 C2300 1.392 . S
C2301 H2313 0.929 . S
C2302 C2298 1.531 . S
C2302 H2314 0.960 . S
C2302 H2315 0.962 . S
C2302 H2316 0.960 1_556 S
C2303 C2300 1.511 . S
C2303 H2317 0.961 . S
C2303 H2318 0.961 . S
C2303 H2319 0.961 . S
C2304 C2305 1.370 . S
C2304 C2306 1.363 . S
C2304 H2320 0.931 . S
C2305 C2304 1.370 . S
C2305 C2309 1.408 . S
C2306 C2304 1.363 . S
C2306 C2307 1.370 . S
C2306 C2310 1.524 . S
C2307 C2299 1.503 . S
C2307 C2306 1.370 . S
C2307 C2308 1.403 . S
C2308 C2307 1.403 . S
C2308 C2309 1.404 . S
C2308 C2311 1.539 . S
C2309 C2305 1.408 . S
C2309 C2308 1.404 . S
C2309 H2321 0.930 . S
C2310 C2306 1.524 . S
C2310 H2322 0.956 . S
C2310 H2323 0.961 . S
C2310 H2324 0.961 . S
C2311 C2308 1.539 . S
C2311 H2325 0.958 . S
C2311 H2326 0.961 . S
C2311 H2327 0.960 . S
H2312 C2296 0.931 1_554 S
H2313 C2301 0.929 . S
H2314 C2302 0.960 . S
H2315 C2302 0.962 . S
H2316 C2302 0.960 1_554 S
H2317 C2303 0.961 . S
H2318 C2303 0.961 . S
H2319 C2303 0.961 . S
H2320 C2304 0.931 . S
H2321 C2309 0.930 . S
H2322 C2310 0.956 . S
H2323 C2310 0.961 . S
H2324 C2310 0.961 . S
H2325 C2311 0.958 . S
H2326 C2311 0.961 . S
H2327 C2311 0.960 . S
C2328 C2329 1.391 . S
C2328 C2330 1.394 . S
C2328 H2344 0.931 . S
C2329 C2328 1.391 . S
C2329 C2333 1.376 . S
C2330 C2328 1.394 . S
C2330 C2331 1.369 . S
C2330 C2334 1.531 . S
C2331 C2330 1.369 . S
C2331 C2332 1.410 . S
C2331 C2339 1.503 . S
C2332 C2331 1.410 . S
C2332 C2333 1.392 . S
C2332 C2335 1.511 . S
C2333 C2329 1.376 . S
C2333 C2332 1.392 . S
C2333 H2345 0.929 . S
C2334 C2330 1.531 . S
C2334 H2346 0.960 . S
C2334 H2347 0.962 . S
C2334 H2348 0.960 . S
C2335 C2332 1.511 . S
C2335 H2349 0.961 . S
C2335 H2350 0.961 . S
C2335 H2351 0.961 . S
C2336 C2337 1.370 . S
C2336 C2338 1.363 . S
C2336 H2352 0.931 . S
C2337 C2336 1.370 . S
C2337 C2341 1.408 . S
C2338 C2336 1.363 . S
C2338 C2339 1.370 . S
C2338 C2342 1.524 . S
C2339 C2331 1.503 . S
C2339 C2338 1.370 . S
C2339 C2340 1.403 . S
C2340 C2339 1.403 . S
C2340 C2341 1.404 . S
C2340 C2343 1.539 . S
C2341 C2337 1.408 . S
C2341 C2340 1.404 . S
C2341 H2353 0.930 . S
C2342 C2338 1.524 . S
C2342 H2354 0.956 . S
C2342 H2355 0.961 . S
C2342 H2356 0.961 . S
C2343 C2340 1.539 . S
C2343 H2357 0.958 . S
C2343 H2358 0.961 . S
C2343 H2359 0.960 . S
H2344 C2328 0.931 . S
H2345 C2333 0.929 . S
H2346 C2334 0.960 . S
H2347 C2334 0.962 . S
H2348 C2334 0.960 . S
H2349 C2335 0.961 . S
H2350 C2335 0.961 . S
H2351 C2335 0.961 . S
H2352 C2336 0.931 . S
H2353 C2341 0.930 . S
H2354 C2342 0.956 . S
H2355 C2342 0.961 . S
H2356 C2342 0.961 . S
H2357 C2343 0.958 . S
H2358 C2343 0.961 . S
H2359 C2343 0.960 . S
C2360 C2361 1.391 . S
C2360 C2362 1.394 . S
C2360 H2376 0.931 . S
C2361 C2360 1.391 . S
C2361 C2365 1.376 . S
C2362 C2360 1.394 . S
C2362 C2363 1.369 . S
C2362 C2366 1.531 . S
C2363 C2362 1.369 . S
C2363 C2364 1.410 . S
C2363 C2371 1.503 . S
C2364 C2363 1.410 . S
C2364 C2365 1.392 . S
C2364 C2367 1.511 . S
C2365 C2361 1.376 . S
C2365 C2364 1.392 . S
C2365 H2377 0.929 . S
C2366 C2362 1.531 . S
C2366 H2378 0.960 . S
C2366 H2379 0.962 . S
C2366 H2380 0.960 . S
C2367 C2364 1.511 . S
C2367 H2381 0.961 . S
C2367 H2382 0.961 . S
C2367 H2383 0.961 . S
C2368 C2369 1.370 . S
C2368 C2370 1.363 . S
C2368 H2384 0.931 . S
C2369 C2368 1.370 . S
C2369 C2373 1.408 . S
C2370 C2368 1.363 . S
C2370 C2371 1.370 . S
C2370 C2374 1.524 . S
C2371 C2363 1.503 . S
C2371 C2370 1.370 . S
C2371 C2372 1.403 . S
C2372 C2371 1.403 . S
C2372 C2373 1.404 . S
C2372 C2375 1.539 . S
C2373 C2369 1.408 . S
C2373 C2372 1.404 . S
C2373 H2385 0.930 . S
C2374 C2370 1.524 . S
C2374 H2386 0.956 . S
C2374 H2387 0.961 . S
C2374 H2388 0.961 . S
C2375 C2372 1.539 . S
C2375 H2389 0.958 . S
C2375 H2390 0.961 . S
C2375 H2391 0.960 . S
H2376 C2360 0.931 . S
H2377 C2365 0.929 . S
H2378 C2366 0.960 . S
H2379 C2366 0.962 . S
H2380 C2366 0.960 . S
H2381 C2367 0.961 . S
H2382 C2367 0.961 . S
H2383 C2367 0.961 . S
H2384 C2368 0.931 . S
H2385 C2373 0.930 . S
H2386 C2374 0.956 . S
H2387 C2374 0.961 . S
H2388 C2374 0.961 . S
H2389 C2375 0.958 . S
H2390 C2375 0.961 . S
H2391 C2375 0.960 . S
C2392 C2393 1.391 . S
C2392 C2394 1.394 . S
C2392 H2408 0.931 . S
C2393 C2392 1.391 . S
C2393 C2397 1.376 . S
C2394 C2392 1.394 . S
C2394 C2395 1.369 . S
C2394 C2398 1.531 . S
C2395 C2394 1.369 . S
C2395 C2396 1.410 . S
C2395 C2403 1.503 . S
C2396 C2395 1.410 . S
C2396 C2397 1.392 . S
C2396 C2399 1.511 . S
C2397 C2393 1.376 . S
C2397 C2396 1.392 . S
C2397 H2409 0.929 . S
C2398 C2394 1.531 . S
C2398 H2410 0.960 . S
C2398 H2411 0.962 . S
C2398 H2412 0.960 . S
C2399 C2396 1.511 . S
C2399 H2413 0.961 . S
C2399 H2414 0.961 . S
C2399 H2415 0.961 . S
C2400 C2401 1.370 . S
C2400 C2402 1.363 . S
C2400 H2416 0.931 . S
C2401 C2400 1.370 . S
C2401 C2405 1.408 . S
C2402 C2400 1.363 . S
C2402 C2403 1.370 . S
C2402 C2406 1.524 . S
C2403 C2395 1.503 . S
C2403 C2402 1.370 . S
C2403 C2404 1.403 . S
C2404 C2403 1.403 . S
C2404 C2405 1.404 . S
C2404 C2407 1.539 . S
C2405 C2401 1.408 . S
C2405 C2404 1.404 . S
C2405 H2417 0.930 . S
C2406 C2402 1.524 . S
C2406 H2418 0.956 . S
C2406 H2419 0.961 . S
C2406 H2420 0.961 . S
C2407 C2404 1.539 . S
C2407 H2421 0.958 . S
C2407 H2422 0.961 . S
C2407 H2423 0.960 . S
H2408 C2392 0.931 . S
H2409 C2397 0.929 . S
H2410 C2398 0.960 . S
H2411 C2398 0.962 . S
H2412 C2398 0.960 . S
H2413 C2399 0.961 . S
H2414 C2399 0.961 . S
H2415 C2399 0.961 . S
H2416 C2400 0.931 . S
H2417 C2405 0.930 . S
H2418 C2406 0.956 . S
H2419 C2406 0.961 . S
H2420 C2406 0.961 . S
H2421 C2407 0.958 . S
H2422 C2407 0.961 . S
H2423 C2407 0.960 . S
C2424 C2425 1.391 . S
C2424 C2426 1.394 . S
C2424 H2440 0.931 . S
C2425 C2424 1.391 . S
C2425 C2429 1.376 . S
C2426 C2424 1.394 . S
C2426 C2427 1.369 . S
C2426 C2430 1.531 . S
C2427 C2426 1.369 . S
C2427 C2428 1.410 . S
C2427 C2435 1.503 . S
C2428 C2427 1.410 . S
C2428 C2429 1.392 . S
C2428 C2431 1.511 . S
C2429 C2425 1.376 . S
C2429 C2428 1.392 . S
C2429 H2441 0.929 . S
C2430 C2426 1.531 . S
C2430 H2442 0.960 . S
C2430 H2443 0.962 . S
C2430 H2444 0.960 . S
C2431 C2428 1.511 . S
C2431 H2445 0.961 . S
C2431 H2446 0.961 . S
C2431 H2447 0.961 . S
C2432 C2433 1.370 . S
C2432 C2434 1.363 . S
C2432 H2448 0.931 . S
C2433 C2432 1.370 . S
C2433 C2437 1.408 . S
C2434 C2432 1.363 . S
C2434 C2435 1.370 . S
C2434 C2438 1.524 . S
C2435 C2427 1.503 . S
C2435 C2434 1.370 . S
C2435 C2436 1.403 . S
C2436 C2435 1.403 . S
C2436 C2437 1.404 . S
C2436 C2439 1.539 . S
C2437 C2433 1.408 . S
C2437 C2436 1.404 . S
C2437 H2449 0.930 . S
C2438 C2434 1.524 . S
C2438 H2450 0.956 . S
C2438 H2451 0.961 . S
C2438 H2452 0.961 . S
C2439 C2436 1.539 . S
C2439 H2453 0.958 . S
C2439 H2454 0.961 . S
C2439 H2455 0.960 . S
H2440 C2424 0.931 . S
H2441 C2429 0.929 . S
H2442 C2430 0.960 . S
H2443 C2430 0.962 . S
H2444 C2430 0.960 . S
H2445 C2431 0.961 . S
H2446 C2431 0.961 . S
H2447 C2431 0.961 . S
H2448 C2432 0.931 . S
H2449 C2437 0.930 . S
H2450 C2438 0.956 . S
H2451 C2438 0.961 . S
H2452 C2438 0.961 . S
H2453 C2439 0.958 . S
H2454 C2439 0.961 . S
H2455 C2439 0.960 . S
C2456 C2457 1.391 . S
C2456 C2458 1.394 . S
C2456 H2472 0.931 . S
C2457 C2456 1.391 . S
C2457 C2461 1.376 . S
C2458 C2456 1.394 . S
C2458 C2459 1.369 . S
C2458 C2462 1.531 . S
C2459 C2458 1.369 . S
C2459 C2460 1.410 . S
C2459 C2467 1.503 . S
C2460 C2459 1.410 . S
C2460 C2461 1.392 . S
C2460 C2463 1.511 . S
C2461 C2457 1.376 . S
C2461 C2460 1.392 . S
C2461 H2473 0.929 . S
C2462 C2458 1.531 . S
C2462 H2474 0.960 . S
C2462 H2475 0.962 . S
C2462 H2476 0.960 . S
C2463 C2460 1.511 . S
C2463 H2477 0.961 . S
C2463 H2478 0.961 . S
C2463 H2479 0.961 . S
C2464 C2465 1.370 . S
C2464 C2466 1.363 . S
C2464 H2480 0.931 . S
C2465 C2464 1.370 . S
C2465 C2469 1.408 . S
C2466 C2464 1.363 . S
C2466 C2467 1.370 . S
C2466 C2470 1.524 . S
C2467 C2459 1.503 . S
C2467 C2466 1.370 . S
C2467 C2468 1.403 . S
C2468 C2467 1.403 . S
C2468 C2469 1.404 . S
C2468 C2471 1.539 . S
C2469 C2465 1.408 . S
C2469 C2468 1.404 . S
C2469 H2481 0.930 . S
C2470 C2466 1.524 . S
C2470 H2482 0.956 . S
C2470 H2483 0.961 . S
C2470 H2484 0.961 . S
C2471 C2468 1.539 . S
C2471 H2485 0.958 . S
C2471 H2486 0.961 . S
C2471 H2487 0.960 . S
H2472 C2456 0.931 . S
H2473 C2461 0.929 . S
H2474 C2462 0.960 . S
H2475 C2462 0.962 . S
H2476 C2462 0.960 . S
H2477 C2463 0.961 . S
H2478 C2463 0.961 . S
H2479 C2463 0.961 . S
H2480 C2464 0.931 . S
H2481 C2469 0.930 . S
H2482 C2470 0.956 . S
H2483 C2470 0.961 . S
H2484 C2470 0.961 . S
H2485 C2471 0.958 . S
H2486 C2471 0.961 . S
H2487 C2471 0.960 . S
C2488 C2489 1.391 . S
C2488 C2490 1.394 . S
C2488 H2504 0.931 . S
C2489 C2488 1.391 . S
C2489 C2493 1.376 . S
C2490 C2488 1.394 . S
C2490 C2491 1.369 . S
C2490 C2494 1.531 . S
C2491 C2490 1.369 . S
C2491 C2492 1.410 . S
C2491 C2499 1.503 . S
C2492 C2491 1.410 . S
C2492 C2493 1.392 . S
C2492 C2495 1.511 . S
C2493 C2489 1.376 . S
C2493 C2492 1.392 . S
C2493 H2505 0.929 . S
C2494 C2490 1.531 . S
C2494 H2506 0.960 . S
C2494 H2507 0.962 . S
C2494 H2508 0.960 . S
C2495 C2492 1.511 . S
C2495 H2509 0.961 . S
C2495 H2510 0.961 . S
C2495 H2511 0.961 . S
C2496 C2497 1.370 . S
C2496 C2498 1.363 . S
C2496 H2512 0.931 . S
C2497 C2496 1.370 . S
C2497 C2501 1.408 . S
C2498 C2496 1.363 . S
C2498 C2499 1.370 . S
C2498 C2502 1.524 . S
C2499 C2491 1.503 . S
C2499 C2498 1.370 . S
C2499 C2500 1.403 . S
C2500 C2499 1.403 . S
C2500 C2501 1.404 . S
C2500 C2503 1.539 . S
C2501 C2497 1.408 . S
C2501 C2500 1.404 . S
C2501 H2513 0.930 . S
C2502 C2498 1.524 . S
C2502 H2514 0.956 . S
C2502 H2515 0.961 . S
C2502 H2516 0.961 . S
C2503 C2500 1.539 . S
C2503 H2517 0.958 . S
C2503 H2518 0.961 . S
C2503 H2519 0.960 . S
H2504 C2488 0.931 . S
H2505 C2493 0.929 . S
H2506 C2494 0.960 . S
H2507 C2494 0.962 . S
H2508 C2494 0.960 . S
H2509 C2495 0.961 . S
H2510 C2495 0.961 . S
H2511 C2495 0.961 . S
H2512 C2496 0.931 . S
H2513 C2501 0.930 . S
H2514 C2502 0.956 . S
H2515 C2502 0.961 . S
H2516 C2502 0.961 . S
H2517 C2503 0.958 . S
H2518 C2503 0.961 . S
H2519 C2503 0.960 . S
C2520 C2521 1.391 . S
C2520 C2522 1.394 . S
C2520 H2536 0.931 . S
C2521 C2520 1.391 . S
C2521 C2525 1.376 . S
C2522 C2520 1.394 . S
C2522 C2523 1.369 . S
C2522 C2526 1.531 . S
C2523 C2522 1.369 . S
C2523 C2524 1.410 . S
C2523 C2531 1.503 . S
C2524 C2523 1.410 . S
C2524 C2525 1.392 . S
C2524 C2527 1.511 . S
C2525 C2521 1.376 . S
C2525 C2524 1.392 . S
C2525 H2537 0.929 . S
C2526 C2522 1.531 . S
C2526 H2538 0.960 . S
C2526 H2539 0.962 . S
C2526 H2540 0.960 . S
C2527 C2524 1.511 . S
C2527 H2541 0.961 . S
C2527 H2542 0.961 . S
C2527 H2543 0.961 . S
C2528 C2529 1.370 . S
C2528 C2530 1.363 . S
C2528 H2544 0.931 . S
C2529 C2528 1.370 . S
C2529 C2533 1.408 . S
C2530 C2528 1.363 . S
C2530 C2531 1.370 . S
C2530 C2534 1.524 . S
C2531 C2523 1.503 . S
C2531 C2530 1.370 . S
C2531 C2532 1.403 . S
C2532 C2531 1.403 . S
C2532 C2533 1.404 . S
C2532 C2535 1.539 . S
C2533 C2529 1.408 . S
C2533 C2532 1.404 . S
C2533 H2545 0.930 . S
C2534 C2530 1.524 . S
C2534 H2546 0.956 . S
C2534 H2547 0.961 . S
C2534 H2548 0.961 . S
C2535 C2532 1.539 . S
C2535 H2549 0.958 . S
C2535 H2550 0.961 . S
C2535 H2551 0.960 . S
H2536 C2520 0.931 . S
H2537 C2525 0.929 . S
H2538 C2526 0.960 . S
H2539 C2526 0.962 . S
H2540 C2526 0.960 . S
H2541 C2527 0.961 . S
H2542 C2527 0.961 . S
H2543 C2527 0.961 . S
H2544 C2528 0.931 . S
H2545 C2533 0.930 . S
H2546 C2534 0.956 . S
H2547 C2534 0.961 . S
H2548 C2534 0.961 . S
H2549 C2535 0.958 . S
H2550 C2535 0.961 . S
H2551 C2535 0.960 . S
C2552 C2553 1.391 . S
C2552 C2554 1.394 . S
C2552 H2568 0.931 . S
C2553 C2552 1.391 . S
C2553 C2557 1.376 . S
C2554 C2552 1.394 . S
C2554 C2555 1.369 . S
C2554 C2558 1.531 . S
C2555 C2554 1.369 . S
C2555 C2556 1.410 . S
C2555 C2563 1.503 . S
C2556 C2555 1.410 . S
C2556 C2557 1.392 . S
C2556 C2559 1.511 . S
C2557 C2553 1.376 . S
C2557 C2556 1.392 . S
C2557 H2569 0.929 . S
C2558 C2554 1.531 . S
C2558 H2570 0.960 . S
C2558 H2571 0.962 . S
C2558 H2572 0.960 . S
C2559 C2556 1.511 . S
C2559 H2573 0.961 . S
C2559 H2574 0.961 . S
C2559 H2575 0.961 . S
C2560 C2561 1.370 . S
C2560 C2562 1.363 . S
C2560 H2576 0.931 . S
C2561 C2560 1.370 . S
C2561 C2565 1.408 . S
C2562 C2560 1.363 . S
C2562 C2563 1.370 . S
C2562 C2566 1.524 . S
C2563 C2555 1.503 . S
C2563 C2562 1.370 . S
C2563 C2564 1.403 . S
C2564 C2563 1.403 . S
C2564 C2565 1.404 . S
C2564 C2567 1.539 . S
C2565 C2561 1.408 . S
C2565 C2564 1.404 . S
C2565 H2577 0.930 . S
C2566 C2562 1.524 . S
C2566 H2578 0.956 . S
C2566 H2579 0.961 . S
C2566 H2580 0.961 . S
C2567 C2564 1.539 . S
C2567 H2581 0.958 . S
C2567 H2582 0.961 . S
C2567 H2583 0.960 . S
H2568 C2552 0.931 . S
H2569 C2557 0.929 . S
H2570 C2558 0.960 . S
H2571 C2558 0.962 . S
H2572 C2558 0.960 . S
H2573 C2559 0.961 . S
H2574 C2559 0.961 . S
H2575 C2559 0.961 . S
H2576 C2560 0.931 . S
H2577 C2565 0.930 . S
H2578 C2566 0.956 . S
H2579 C2566 0.961 . S
H2580 C2566 0.961 . S
H2581 C2567 0.958 . S
H2582 C2567 0.961 . S
H2583 C2567 0.960 . S
C2584 C2585 1.391 . S
C2584 C2586 1.394 . S
C2584 H2600 0.931 . S
C2585 C2584 1.391 . S
C2585 C2589 1.376 . S
C2586 C2584 1.394 . S
C2586 C2587 1.369 . S
C2586 C2590 1.531 . S
C2587 C2586 1.369 . S
C2587 C2588 1.410 . S
C2587 C2595 1.503 . S
C2588 C2587 1.410 . S
C2588 C2589 1.392 . S
C2588 C2591 1.511 . S
C2589 C2585 1.376 . S
C2589 C2588 1.392 . S
C2589 H2601 0.929 . S
C2590 C2586 1.531 . S
C2590 H2602 0.960 . S
C2590 H2603 0.962 . S
C2590 H2604 0.960 . S
C2591 C2588 1.511 . S
C2591 H2605 0.961 . S
C2591 H2606 0.961 . S
C2591 H2607 0.961 . S
C2592 C2593 1.370 . S
C2592 C2594 1.363 . S
C2592 H2608 0.931 . S
C2593 C2592 1.370 . S
C2593 C2597 1.408 . S
C2594 C2592 1.363 . S
C2594 C2595 1.370 . S
C2594 C2598 1.524 . S
C2595 C2587 1.503 . S
C2595 C2594 1.370 . S
C2595 C2596 1.403 . S
C2596 C2595 1.403 . S
C2596 C2597 1.404 . S
C2596 C2599 1.539 . S
C2597 C2593 1.408 . S
C2597 C2596 1.404 . S
C2597 H2609 0.930 . S
C2598 C2594 1.524 . S
C2598 H2610 0.956 . S
C2598 H2611 0.961 . S
C2598 H2612 0.961 . S
C2599 C2596 1.539 . S
C2599 H2613 0.958 . S
C2599 H2614 0.961 . S
C2599 H2615 0.960 . S
H2600 C2584 0.931 . S
H2601 C2589 0.929 . S
H2602 C2590 0.960 . S
H2603 C2590 0.962 . S
H2604 C2590 0.960 . S
H2605 C2591 0.961 . S
H2606 C2591 0.961 . S
H2607 C2591 0.961 . S
H2608 C2592 0.931 . S
H2609 C2597 0.930 . S
H2610 C2598 0.956 . S
H2611 C2598 0.961 . S
H2612 C2598 0.961 . S
H2613 C2599 0.958 . S
H2614 C2599 0.961 . S
H2615 C2599 0.960 . S
C2616 C2617 1.391 . S
C2616 C2618 1.394 . S
C2616 H2632 0.931 . S
C2617 C2616 1.391 . S
C2617 C2621 1.376 . S
C2618 C2616 1.394 . S
C2618 C2619 1.369 . S
C2618 C2622 1.531 . S
C2619 C2618 1.369 . S
C2619 C2620 1.410 . S
C2619 C2627 1.503 . S
C2620 C2619 1.410 . S
C2620 C2621 1.392 . S
C2620 C2623 1.511 . S
C2621 C2617 1.376 . S
C2621 C2620 1.392 . S
C2621 H2633 0.929 . S
C2622 C2618 1.531 . S
C2622 H2634 0.960 . S
C2622 H2635 0.962 . S
C2622 H2636 0.960 . S
C2623 C2620 1.511 . S
C2623 H2637 0.961 . S
C2623 H2638 0.961 . S
C2623 H2639 0.961 . S
C2624 C2625 1.370 . S
C2624 C2626 1.363 . S
C2624 H2640 0.931 . S
C2625 C2624 1.370 . S
C2625 C2629 1.408 . S
C2626 C2624 1.363 . S
C2626 C2627 1.370 . S
C2626 C2630 1.524 . S
C2627 C2619 1.503 . S
C2627 C2626 1.370 . S
C2627 C2628 1.403 . S
C2628 C2627 1.403 . S
C2628 C2629 1.404 . S
C2628 C2631 1.539 . S
C2629 C2625 1.408 . S
C2629 C2628 1.404 . S
C2629 H2641 0.930 . S
C2630 C2626 1.524 . S
C2630 H2642 0.956 . S
C2630 H2643 0.961 . S
C2630 H2644 0.961 . S
C2631 C2628 1.539 . S
C2631 H2645 0.958 . S
C2631 H2646 0.961 . S
C2631 H2647 0.960 . S
H2632 C2616 0.931 . S
H2633 C2621 0.929 . S
H2634 C2622 0.960 . S
H2635 C2622 0.962 . S
H2636 C2622 0.960 . S
H2637 C2623 0.961 . S
H2638 C2623 0.961 . S
H2639 C2623 0.961 . S
H2640 C2624 0.931 . S
H2641 C2629 0.930 . S
H2642 C2630 0.956 . S
H2643 C2630 0.961 . S
H2644 C2630 0.961 . S
H2645 C2631 0.958 . S
H2646 C2631 0.961 . S
H2647 C2631 0.960 . S
C2648 C2649 1.391 . S
C2648 C2650 1.394 . S
C2648 H2664 0.931 . S
C2649 C2648 1.391 . S
C2649 C2653 1.376 . S
C2650 C2648 1.394 . S
C2650 C2651 1.369 . S
C2650 C2654 1.531 . S
C2651 C2650 1.369 . S
C2651 C2652 1.410 . S
C2651 C2659 1.503 . S
C2652 C2651 1.410 . S
C2652 C2653 1.392 . S
C2652 C2655 1.511 . S
C2653 C2649 1.376 . S
C2653 C2652 1.392 . S
C2653 H2665 0.929 . S
C2654 C2650 1.531 . S
C2654 H2666 0.960 . S
C2654 H2667 0.962 . S
C2654 H2668 0.960 . S
C2655 C2652 1.511 . S
C2655 H2669 0.961 . S
C2655 H2670 0.961 . S
C2655 H2671 0.961 . S
C2656 C2657 1.370 . S
C2656 C2658 1.363 . S
C2656 H2672 0.931 . S
C2657 C2656 1.370 . S
C2657 C2661 1.408 . S
C2658 C2656 1.363 . S
C2658 C2659 1.370 . S
C2658 C2662 1.524 . S
C2659 C2651 1.503 . S
C2659 C2658 1.370 . S
C2659 C2660 1.403 . S
C2660 C2659 1.403 . S
C2660 C2661 1.404 . S
C2660 C2663 1.539 . S
C2661 C2657 1.408 . S
C2661 C2660 1.404 . S
C2661 H2673 0.930 . S
C2662 C2658 1.524 . S
C2662 H2674 0.956 . S
C2662 H2675 0.961 . S
C2662 H2676 0.961 . S
C2663 C2660 1.539 . S
C2663 H2677 0.958 . S
C2663 H2678 0.961 . S
C2663 H2679 0.960 . S
H2664 C2648 0.931 . S
H2665 C2653 0.929 . S
H2666 C2654 0.960 . S
H2667 C2654 0.962 . S
H2668 C2654 0.960 . S
H2669 C2655 0.961 . S
H2670 C2655 0.961 . S
H2671 C2655 0.961 . S
H2672 C2656 0.931 . S
H2673 C2661 0.930 . S
H2674 C2662 0.956 . S
H2675 C2662 0.961 . S
H2676 C2662 0.961 . S
H2677 C2663 0.958 . S
H2678 C2663 0.961 . S
H2679 C2663 0.960 . S
C2680 C2681 1.391 . S
C2680 C2682 1.394 . S
C2680 H2696 0.931 . S
C2681 C2680 1.391 . S
C2681 C2685 1.376 . S
C2682 C2680 1.394 . S
C2682 C2683 1.369 . S
C2682 C2686 1.531 . S
C2683 C2682 1.369 . S
C2683 C2684 1.410 . S
C2683 C2691 1.503 . S
C2684 C2683 1.410 . S
C2684 C2685 1.392 . S
C2684 C2687 1.511 . S
C2685 C2681 1.376 . S
C2685 C2684 1.392 . S
C2685 H2697 0.929 . S
C2686 C2682 1.531 . S
C2686 H2698 0.960 . S
C2686 H2699 0.962 . S
C2686 H2700 0.960 . S
C2687 C2684 1.511 . S
C2687 H2701 0.961 . S
C2687 H2702 0.961 . S
C2687 H2703 0.961 . S
C2688 C2689 1.370 . S
C2688 C2690 1.363 . S
C2688 H2704 0.931 . S
C2689 C2688 1.370 . S
C2689 C2693 1.408 . S
C2690 C2688 1.363 . S
C2690 C2691 1.370 . S
C2690 C2694 1.524 . S
C2691 C2683 1.503 . S
C2691 C2690 1.370 . S
C2691 C2692 1.403 . S
C2692 C2691 1.403 . S
C2692 C2693 1.404 . S
C2692 C2695 1.539 . S
C2693 C2689 1.408 . S
C2693 C2692 1.404 . S
C2693 H2705 0.930 . S
C2694 C2690 1.524 . S
C2694 H2706 0.956 . S
C2694 H2707 0.961 . S
C2694 H2708 0.961 . S
C2695 C2692 1.539 . S
C2695 H2709 0.958 . S
C2695 H2710 0.961 . S
C2695 H2711 0.960 . S
H2696 C2680 0.931 . S
H2697 C2685 0.929 . S
H2698 C2686 0.960 . S
H2699 C2686 0.962 . S
H2700 C2686 0.960 . S
H2701 C2687 0.961 . S
H2702 C2687 0.961 . S
H2703 C2687 0.961 . S
H2704 C2688 0.931 . S
H2705 C2693 0.930 . S
H2706 C2694 0.956 . S
H2707 C2694 0.961 . S
H2708 C2694 0.961 . S
H2709 C2695 0.958 . S
H2710 C2695 0.961 . S
H2711 C2695 0.960 . S
C2712 C2713 1.391 . S
C2712 C2714 1.394 . S
C2712 H2728 0.931 . S
C2713 C2712 1.391 . S
C2713 C2717 1.376 . S
C2714 C2712 1.394 . S
C2714 C2715 1.369 . S
C2714 C2718 1.531 . S
C2715 C2714 1.369 . S
C2715 C2716 1.410 . S
C2715 C2723 1.503 . S
C2716 C2715 1.410 . S
C2716 C2717 1.392 . S
C2716 C2719 1.511 . S
C2717 C2713 1.376 . S
C2717 C2716 1.392 . S
C2717 H2729 0.929 . S
C2718 C2714 1.531 . S
C2718 H2730 0.960 . S
C2718 H2731 0.962 . S
C2718 H2732 0.960 . S
C2719 C2716 1.511 . S
C2719 H2733 0.961 . S
C2719 H2734 0.961 . S
C2719 H2735 0.961 . S
C2720 C2721 1.370 . S
C2720 C2722 1.363 . S
C2720 H2736 0.931 . S
C2721 C2720 1.370 . S
C2721 C2725 1.408 . S
C2722 C2720 1.363 . S
C2722 C2723 1.370 . S
C2722 C2726 1.524 . S
C2723 C2715 1.503 . S
C2723 C2722 1.370 . S
C2723 C2724 1.403 . S
C2724 C2723 1.403 . S
C2724 C2725 1.404 . S
C2724 C2727 1.539 . S
C2725 C2721 1.408 . S
C2725 C2724 1.404 . S
C2725 H2737 0.930 . S
C2726 C2722 1.524 . S
C2726 H2738 0.956 . S
C2726 H2739 0.961 . S
C2726 H2740 0.961 . S
C2727 C2724 1.539 . S
C2727 H2741 0.958 . S
C2727 H2742 0.961 . S
C2727 H2743 0.960 . S
H2728 C2712 0.931 . S
H2729 C2717 0.929 . S
H2730 C2718 0.960 . S
H2731 C2718 0.962 . S
H2732 C2718 0.960 . S
H2733 C2719 0.961 . S
H2734 C2719 0.961 . S
H2735 C2719 0.961 . S
H2736 C2720 0.931 . S
H2737 C2725 0.930 . S
H2738 C2726 0.956 . S
H2739 C2726 0.961 . S
H2740 C2726 0.961 . S
H2741 C2727 0.958 . S
H2742 C2727 0.961 . S
H2743 C2727 0.960 . S
C2744 C2745 1.391 . S
C2744 C2746 1.394 . S
C2744 H2760 0.931 . S
C2745 C2744 1.391 . S
C2745 C2749 1.376 . S
C2746 C2744 1.394 . S
C2746 C2747 1.369 . S
C2746 C2750 1.531 . S
C2747 C2746 1.369 . S
C2747 C2748 1.410 . S
C2747 C2755 1.503 . S
C2748 C2747 1.410 . S
C2748 C2749 1.392 . S
C2748 C2751 1.511 . S
C2749 C2745 1.376 . S
C2749 C2748 1.392 . S
C2749 H2761 0.929 . S
C2750 C2746 1.531 . S
C2750 H2762 0.960 . S
C2750 H2763 0.962 . S
C2750 H2764 0.960 . S
C2751 C2748 1.511 . S
C2751 H2765 0.961 . S
C2751 H2766 0.961 . S
C2751 H2767 0.961 . S
C2752 C2753 1.370 . S
C2752 C2754 1.363 . S
C2752 H2768 0.931 . S
C2753 C2752 1.370 . S
C2753 C2757 1.408 . S
C2754 C2752 1.363 . S
C2754 C2755 1.370 . S
C2754 C2758 1.524 . S
C2755 C2747 1.503 . S
C2755 C2754 1.370 . S
C2755 C2756 1.403 . S
C2756 C2755 1.403 . S
C2756 C2757 1.404 . S
C2756 C2759 1.539 . S
C2757 C2753 1.408 . S
C2757 C2756 1.404 . S
C2757 H2769 0.930 . S
C2758 C2754 1.524 . S
C2758 H2770 0.956 . S
C2758 H2771 0.961 . S
C2758 H2772 0.961 . S
C2759 C2756 1.539 . S
C2759 H2773 0.958 . S
C2759 H2774 0.961 . S
C2759 H2775 0.960 . S
H2760 C2744 0.931 . S
H2761 C2749 0.929 . S
H2762 C2750 0.960 . S
H2763 C2750 0.962 . S
H2764 C2750 0.960 . S
H2765 C2751 0.961 . S
H2766 C2751 0.961 . S
H2767 C2751 0.961 . S
H2768 C2752 0.931 . S
H2769 C2757 0.930 . S
H2770 C2758 0.956 . S
H2771 C2758 0.961 . S
H2772 C2758 0.961 . S
H2773 C2759 0.958 . S
H2774 C2759 0.961 . S
H2775 C2759 0.960 . S
C2776 C2777 1.391 . S
C2776 C2778 1.394 . S
C2776 H2792 0.931 . S
C2777 C2776 1.391 . S
C2777 C2781 1.376 . S
C2778 C2776 1.394 . S
C2778 C2779 1.369 . S
C2778 C2782 1.531 . S
C2779 C2778 1.369 . S
C2779 C2780 1.410 . S
C2779 C2787 1.503 . S
C2780 C2779 1.410 . S
C2780 C2781 1.392 . S
C2780 C2783 1.511 . S
C2781 C2777 1.376 . S
C2781 C2780 1.392 . S
C2781 H2793 0.929 . S
C2782 C2778 1.531 . S
C2782 H2794 0.960 . S
C2782 H2795 0.962 . S
C2782 H2796 0.960 . S
C2783 C2780 1.511 . S
C2783 H2797 0.961 . S
C2783 H2798 0.961 . S
C2783 H2799 0.961 . S
C2784 C2785 1.370 . S
C2784 C2786 1.363 . S
C2784 H2800 0.931 . S
C2785 C2784 1.370 . S
C2785 C2789 1.408 . S
C2786 C2784 1.363 . S
C2786 C2787 1.370 . S
C2786 C2790 1.524 . S
C2787 C2779 1.503 . S
C2787 C2786 1.370 . S
C2787 C2788 1.403 . S
C2788 C2787 1.403 . S
C2788 C2789 1.404 . S
C2788 C2791 1.539 . S
C2789 C2785 1.408 . S
C2789 C2788 1.404 . S
C2789 H2801 0.930 . S
C2790 C2786 1.524 . S
C2790 H2802 0.956 . S
C2790 H2803 0.961 . S
C2790 H2804 0.961 . S
C2791 C2788 1.539 . S
C2791 H2805 0.958 . S
C2791 H2806 0.961 . S
C2791 H2807 0.960 . S
H2792 C2776 0.931 . S
H2793 C2781 0.929 . S
H2794 C2782 0.960 . S
H2795 C2782 0.962 . S
H2796 C2782 0.960 . S
H2797 C2783 0.961 . S
H2798 C2783 0.961 . S
H2799 C2783 0.961 . S
H2800 C2784 0.931 . S
H2801 C2789 0.930 . S
H2802 C2790 0.956 . S
H2803 C2790 0.961 . S
H2804 C2790 0.961 . S
H2805 C2791 0.958 . S
H2806 C2791 0.961 . S
H2807 C2791 0.960 . S
C1273 C1205 1.880 . S
C1281 C39 1.885 . S
C1305 C92 1.465 . S
C1313 C1241 1.467 . S
C1337 C1098 1.573 . S
C1345 C128 1.581 . S
C1369 C1142 1.345 . S
C1377 C188 1.349 . S
C1401 C1135 1.275 . S
C1409 C234 1.287 . S
C1433 C304 1.843 . S
C1441 C1204 1.839 . S
C1465 C1248 1.467 . S
C1473 C356 1.465 . S
C1497 C393 1.706 . S
C1505 C1099 1.702 . S
C1529 C462 1.709 . S
C1537 C1029 1.704 . S
C1561 C886 1.508 . S
C1569 C499 1.502 . S
C1593 C552 1.658 . S
C1601 C939 1.668 . S
C1625 C992 1.592 . S
C1633 C622 1.600 . S
C1657 C621 1.565 . S
C1665 C727 1.578 . S
C1689 C463 1.704 . S
C1697 C781 1.709 . S
C1721 C824 1.335 . S
C1729 C506 1.332 . S
C1753 C559 1.687 . S
C1761 C665 1.696 . S
C1785 C91 1.613 . S
C1793 C993 1.618 . S
C1817 C780 1.683 . S
C1825 C400 1.692 . S
C1849 C241 1.208 . S
C1857 C817 1.213 . S
C1881 C658 1.832 . S
C1889 C303 1.828 . S
C1913 C357 1.579 . S
C1921 C728 1.579 . S
C1945 C181 1.375 . S
C1953 C887 1.377 . S
C1977 C38 1.865 . S
C1985 C940 1.865 . S
C2009 C135 1.510 . S
C2017 C1036 1.519 . S
C2041 C347 1.270 . S
C2049 C1089 1.276 . S
C2073 C1151 1.518 . S
C2081 C410 1.521 . S
C2105 C1188 1.396 . S
C2113 C251 1.412 . S
C2137 C1258 1.711 . S
C2145 C287 1.708 . S
C2169 C145 1.824 . S
C2177 C1257 1.838 . S
C2201 C197 1.204 . S
C2209 C1082 1.213 . S
C2233 C22 1.520 . S
C2241 C1152 1.531 . S
C2265 C1195 1.353 . S
C2273 C75 1.362 . S
C2297 C569 1.477 . S
C2305 C718 1.469 . S
C2329 C605 1.549 . S
C2337 C764 1.569 . S
C2361 C453 1.172 . S
C2369 C833 1.173 . S
C2393 C516 1.516 . S
C2401 C674 1.526 . S
C2425 C515 1.565 . S
C2433 C1046 1.560 . S
C2457 C877 1.257 . S
C2465 C568 1.256 . S
C2489 C612 1.564 . S
C2497 C930 1.575 . S
C2521 C446 1.226 . S
C2529 C983 1.237 . S
C2553 C675 1.594 . S
C2561 C409 1.593 . S
C2585 C870 1.240 . S
C2593 C82 1.253 . S
C2617 C144 1.657 . S
C2625 C923 1.664 . S
C2649 C976 1.267 . S
C2657 C198 1.256 . S
C2681 C1045 1.592 . S
C2689 C29 1.590 . S
C2713 C294 1.475 . S
C2721 C771 1.487 . S
C2745 C834 1.301 . S
C2753 C340 1.295 . S
C2777 C711 1.418 . S
C2785 C250 1.426 . S
