# Generated by pormake.
# Topology uka, (4)-cn, num edge types: 1
# Building blocks:
#     Node 0, Type 0, BuildingBlock: CEKHIL_clean_sbu_0, # of connection points: 4
#     Node 1, Type 0, BuildingBlock: CEKHIL_clean_sbu_0, # of connection points: 4
#     Node 2, Type 0, BuildingBlock: CEKHIL_clean_sbu_0, # of connection points: 4
#     Node 3, Type 0, BuildingBlock: CEKHIL_clean_sbu_0, # of connection points: 4
#     Node 4, Type 0, BuildingBlock: CEKHIL_clean_sbu_0, # of connection points: 4
#     Node 5, Type 0, BuildingBlock: CEKHIL_clean_sbu_0, # of connection points: 4
#     Node 6, Type 0, BuildingBlock: CEKHIL_clean_sbu_0, # of connection points: 4
#     Node 7, Type 0, BuildingBlock: CEKHIL_clean_sbu_0, # of connection points: 4
#     Node 8, Type 0, BuildingBlock: CEKHIL_clean_sbu_0, # of connection points: 4
#     Node 9, Type 0, BuildingBlock: CEKHIL_clean_sbu_0, # of connection points: 4
#     Node 10, Type 0, BuildingBlock: CEKHIL_clean_sbu_0, # of connection points: 4
#     Node 11, Type 0, BuildingBlock: CEKHIL_clean_sbu_0, # of connection points: 4
#     Node 12, Type 0, BuildingBlock: CEKHIL_clean_sbu_0, # of connection points: 4
#     Node 13, Type 0, BuildingBlock: CEKHIL_clean_sbu_0, # of connection points: 4
#     Node 14, Type 0, BuildingBlock: CEKHIL_clean_sbu_0, # of connection points: 4
#     Node 15, Type 0, BuildingBlock: CEKHIL_clean_sbu_0, # of connection points: 4
#     Node 16, Type 0, BuildingBlock: CEKHIL_clean_sbu_0, # of connection points: 4
#     Node 17, Type 0, BuildingBlock: CEKHIL_clean_sbu_0, # of connection points: 4
#     Node 18, Type 0, BuildingBlock: CEKHIL_clean_sbu_0, # of connection points: 4
#     Node 19, Type 0, BuildingBlock: CEKHIL_clean_sbu_0, # of connection points: 4
#     Node 20, Type 0, BuildingBlock: CEKHIL_clean_sbu_0, # of connection points: 4
#     Node 21, Type 0, BuildingBlock: CEKHIL_clean_sbu_0, # of connection points: 4
#     Node 22, Type 0, BuildingBlock: CEKHIL_clean_sbu_0, # of connection points: 4
#     Node 23, Type 0, BuildingBlock: CEKHIL_clean_sbu_0, # of connection points: 4
#     Node 24, Type 0, BuildingBlock: CEKHIL_clean_sbu_0, # of connection points: 4
#     Node 25, Type 0, BuildingBlock: CEKHIL_clean_sbu_0, # of connection points: 4
#     Node 26, Type 0, BuildingBlock: CEKHIL_clean_sbu_0, # of connection points: 4
#     Node 27, Type 0, BuildingBlock: CEKHIL_clean_sbu_0, # of connection points: 4
#     Node 28, Type 0, BuildingBlock: CEKHIL_clean_sbu_0, # of connection points: 4
#     Node 29, Type 0, BuildingBlock: CEKHIL_clean_sbu_0, # of connection points: 4
#     Node 30, Type 0, BuildingBlock: CEKHIL_clean_sbu_0, # of connection points: 4
#     Node 31, Type 0, BuildingBlock: CEKHIL_clean_sbu_0, # of connection points: 4
#     Edge 32, Type (0, 0), BuildingBlock: XUDNAN_clean_linker_2, # of connection points: 2
#     Edge 33, Type (0, 0), BuildingBlock: XUDNAN_clean_linker_2, # of connection points: 2
#     Edge 34, Type (0, 0), BuildingBlock: XUDNAN_clean_linker_2, # of connection points: 2
#     Edge 35, Type (0, 0), BuildingBlock: XUDNAN_clean_linker_2, # of connection points: 2
#     Edge 36, Type (0, 0), BuildingBlock: XUDNAN_clean_linker_2, # of connection points: 2
#     Edge 37, Type (0, 0), BuildingBlock: XUDNAN_clean_linker_2, # of connection points: 2
#     Edge 38, Type (0, 0), BuildingBlock: XUDNAN_clean_linker_2, # of connection points: 2
#     Edge 39, Type (0, 0), BuildingBlock: XUDNAN_clean_linker_2, # of connection points: 2
#     Edge 40, Type (0, 0), BuildingBlock: XUDNAN_clean_linker_2, # of connection points: 2
#     Edge 41, Type (0, 0), BuildingBlock: XUDNAN_clean_linker_2, # of connection points: 2
#     Edge 42, Type (0, 0), BuildingBlock: XUDNAN_clean_linker_2, # of connection points: 2
#     Edge 43, Type (0, 0), BuildingBlock: XUDNAN_clean_linker_2, # of connection points: 2
#     Edge 44, Type (0, 0), BuildingBlock: XUDNAN_clean_linker_2, # of connection points: 2
#     Edge 45, Type (0, 0), BuildingBlock: XUDNAN_clean_linker_2, # of connection points: 2
#     Edge 46, Type (0, 0), BuildingBlock: XUDNAN_clean_linker_2, # of connection points: 2
#     Edge 47, Type (0, 0), BuildingBlock: XUDNAN_clean_linker_2, # of connection points: 2
#     Edge 48, Type (0, 0), BuildingBlock: XUDNAN_clean_linker_2, # of connection points: 2
#     Edge 49, Type (0, 0), BuildingBlock: XUDNAN_clean_linker_2, # of connection points: 2
#     Edge 50, Type (0, 0), BuildingBlock: XUDNAN_clean_linker_2, # of connection points: 2
#     Edge 51, Type (0, 0), BuildingBlock: XUDNAN_clean_linker_2, # of connection points: 2
#     Edge 52, Type (0, 0), BuildingBlock: XUDNAN_clean_linker_2, # of connection points: 2
#     Edge 53, Type (0, 0), BuildingBlock: XUDNAN_clean_linker_2, # of connection points: 2
#     Edge 54, Type (0, 0), BuildingBlock: XUDNAN_clean_linker_2, # of connection points: 2
#     Edge 55, Type (0, 0), BuildingBlock: XUDNAN_clean_linker_2, # of connection points: 2
#     Edge 56, Type (0, 0), BuildingBlock: XUDNAN_clean_linker_2, # of connection points: 2
#     Edge 57, Type (0, 0), BuildingBlock: XUDNAN_clean_linker_2, # of connection points: 2
#     Edge 58, Type (0, 0), BuildingBlock: XUDNAN_clean_linker_2, # of connection points: 2
#     Edge 59, Type (0, 0), BuildingBlock: XUDNAN_clean_linker_2, # of connection points: 2
#     Edge 60, Type (0, 0), BuildingBlock: XUDNAN_clean_linker_2, # of connection points: 2
#     Edge 61, Type (0, 0), BuildingBlock: XUDNAN_clean_linker_2, # of connection points: 2
#     Edge 62, Type (0, 0), BuildingBlock: XUDNAN_clean_linker_2, # of connection points: 2
#     Edge 63, Type (0, 0), BuildingBlock: XUDNAN_clean_linker_2, # of connection points: 2
#     Edge 64, Type (0, 0), BuildingBlock: XUDNAN_clean_linker_2, # of connection points: 2
#     Edge 65, Type (0, 0), BuildingBlock: XUDNAN_clean_linker_2, # of connection points: 2
#     Edge 66, Type (0, 0), BuildingBlock: XUDNAN_clean_linker_2, # of connection points: 2
#     Edge 67, Type (0, 0), BuildingBlock: XUDNAN_clean_linker_2, # of connection points: 2
#     Edge 68, Type (0, 0), BuildingBlock: XUDNAN_clean_linker_2, # of connection points: 2
#     Edge 69, Type (0, 0), BuildingBlock: XUDNAN_clean_linker_2, # of connection points: 2
#     Edge 70, Type (0, 0), BuildingBlock: XUDNAN_clean_linker_2, # of connection points: 2
#     Edge 71, Type (0, 0), BuildingBlock: XUDNAN_clean_linker_2, # of connection points: 2
#     Edge 72, Type (0, 0), BuildingBlock: XUDNAN_clean_linker_2, # of connection points: 2
#     Edge 73, Type (0, 0), BuildingBlock: XUDNAN_clean_linker_2, # of connection points: 2
#     Edge 74, Type (0, 0), BuildingBlock: XUDNAN_clean_linker_2, # of connection points: 2
#     Edge 75, Type (0, 0), BuildingBlock: XUDNAN_clean_linker_2, # of connection points: 2
#     Edge 76, Type (0, 0), BuildingBlock: XUDNAN_clean_linker_2, # of connection points: 2
#     Edge 77, Type (0, 0), BuildingBlock: XUDNAN_clean_linker_2, # of connection points: 2
#     Edge 78, Type (0, 0), BuildingBlock: XUDNAN_clean_linker_2, # of connection points: 2
#     Edge 79, Type (0, 0), BuildingBlock: XUDNAN_clean_linker_2, # of connection points: 2
#     Edge 80, Type (0, 0), BuildingBlock: XUDNAN_clean_linker_2, # of connection points: 2
#     Edge 81, Type (0, 0), BuildingBlock: XUDNAN_clean_linker_2, # of connection points: 2
#     Edge 82, Type (0, 0), BuildingBlock: XUDNAN_clean_linker_2, # of connection points: 2
#     Edge 83, Type (0, 0), BuildingBlock: XUDNAN_clean_linker_2, # of connection points: 2
#     Edge 84, Type (0, 0), BuildingBlock: XUDNAN_clean_linker_2, # of connection points: 2
#     Edge 85, Type (0, 0), BuildingBlock: XUDNAN_clean_linker_2, # of connection points: 2
#     Edge 86, Type (0, 0), BuildingBlock: XUDNAN_clean_linker_2, # of connection points: 2
#     Edge 87, Type (0, 0), BuildingBlock: XUDNAN_clean_linker_2, # of connection points: 2
#     Edge 88, Type (0, 0), BuildingBlock: XUDNAN_clean_linker_2, # of connection points: 2
#     Edge 89, Type (0, 0), BuildingBlock: XUDNAN_clean_linker_2, # of connection points: 2
#     Edge 90, Type (0, 0), BuildingBlock: XUDNAN_clean_linker_2, # of connection points: 2
#     Edge 91, Type (0, 0), BuildingBlock: XUDNAN_clean_linker_2, # of connection points: 2
#     Edge 92, Type (0, 0), BuildingBlock: XUDNAN_clean_linker_2, # of connection points: 2
#     Edge 93, Type (0, 0), BuildingBlock: XUDNAN_clean_linker_2, # of connection points: 2
#     Edge 94, Type (0, 0), BuildingBlock: XUDNAN_clean_linker_2, # of connection points: 2
#     Edge 95, Type (0, 0), BuildingBlock: XUDNAN_clean_linker_2, # of connection points: 2
# Relax obj value: 0.116
# Max RMSD: 0.170
# Mean RMSD: 0.170
data_MOF--net-uka--node1-CEKHIL_clean_sbu_0--edge1-XUDNAN_clean_linker_2
_symmetry_space_group_name_H-M    P1
_symmetry_Int_Tables_number       1
_symmetry_cell_setting            triclinic
loop_
_symmetry_equiv_pos_as_xyz
'x, y, z'
_cell_length_a     59.106193
_cell_length_b     59.036619
_cell_length_c     41.57678
_cell_angle_alpha  89.982326
_cell_angle_beta   89.956721
_cell_angle_gamma 89.971749
loop_
_atom_site_label
_atom_site_type_symbol
_atom_site_fract_x
_atom_site_fract_y
_atom_site_fract_z
_atom_type_partial_charge
Co0 Co 0.12935 0.26112 0.27371 0.0
O1 O 0.15651 0.24563 0.26025 0.0
O2 O 0.15528 0.27933 0.28376 0.0
C3 C 0.11337 0.23106 0.29794 0.0
O4 O 0.10578 0.28218 0.29265 0.0
Co5 Co 0.08093 0.24734 0.25222 0.0
O6 O 0.07101 0.26709 0.2884 0.0
C7 C 0.11143 0.27226 0.20774 0.0
C8 C 0.16735 0.26277 0.27236 0.0
C9 C 0.08463 0.28185 0.29951 0.0
O10 O 0.12594 0.27587 0.23023 0.0
O11 O 0.0939 0.25972 0.21118 0.0
O12 O 0.12838 0.24308 0.31303 0.0
O13 O 0.1096 0.23655 0.26844 0.0
Co14 Co 0.97535 0.87764 0.50497 0.0
O15 O 0.98792 0.89634 0.47158 0.0
O16 O 0.96068 0.90674 0.50513 0.0
C17 C 0.00885 0.86603 0.52468 0.0
O18 O 0.95892 0.86397 0.54346 0.0
Co19 Co 0.98323 0.82562 0.50817 0.0
O20 O 0.973 0.8293 0.55316 0.0
C21 C 0.94765 0.84435 0.46557 0.0
C22 C 0.97478 0.91225 0.48243 0.0
C23 C 0.96118 0.84635 0.56138 0.0
O24 O 0.9521 0.86472 0.47455 0.0
O25 O 0.95848 0.82686 0.47527 0.0
O26 O 0.00063 0.88562 0.53254 0.0
O27 O 0.99763 0.85483 0.50325 0.0
Co28 Co 0.36819 0.74628 0.73752 0.0
O29 O 0.34807 0.75709 0.70481 0.0
O30 O 0.33939 0.7311 0.74121 0.0
C31 C 0.37953 0.78096 0.75361 0.0
O32 O 0.38384 0.7319 0.77611 0.0
Co33 Co 0.41984 0.75646 0.73681 0.0
O34 O 0.41712 0.74964 0.78333 0.0
C35 C 0.40117 0.7182 0.69828 0.0
C36 C 0.33275 0.74443 0.71814 0.0
C37 C 0.40124 0.73687 0.79326 0.0
O38 O 0.38083 0.72211 0.70804 0.0
O39 O 0.41822 0.73044 0.70601 0.0
O40 O 0.36063 0.77249 0.76389 0.0
O41 O 0.38997 0.76914 0.73207 0.0
Co42 Co 0.50821 0.10775 0.02475 0.0
O43 O 0.49479 0.08139 0.00544 0.0
O44 O 0.5282 0.08226 0.02961 0.0
C45 C 0.47701 0.11883 0.0518 0.0
O46 O 0.52733 0.13087 0.04845 0.0
Co47 Co 0.49036 0.15665 0.01186 0.0
O48 O 0.51105 0.16531 0.04741 0.0
C49 C 0.51874 0.13324 0.9634 0.0
C50 C 0.51245 0.07044 0.01571 0.0
C51 C 0.52638 0.15175 0.05701 0.0
O52 O 0.52304 0.11686 0.98293 0.0
O53 O 0.50448 0.14903 0.96941 0.0
O54 O 0.48984 0.10292 0.06328 0.0
O55 O 0.4823 0.12609 0.02352 0.0
Co56 Co 0.14169 0.7248 0.23279 0.0
O57 O 0.16597 0.73722 0.25816 0.0
O58 O 0.16633 0.70371 0.23406 0.0
C59 C 0.13496 0.7561 0.20321 0.0
O60 O 0.12145 0.70655 0.20337 0.0
Co61 Co 0.09261 0.74362 0.23314 0.0
O62 O 0.08893 0.72498 0.19374 0.0
C63 C 0.10858 0.71462 0.28671 0.0
C64 C 0.17709 0.71896 0.25052 0.0
C65 C 0.10281 0.70899 0.18795 0.0
O66 O 0.12728 0.71046 0.27192 0.0
O67 O 0.09378 0.7287 0.27634 0.0
O68 O 0.1517 0.74278 0.19602 0.0
O69 O 0.12429 0.75131 0.22947 0.0
Co70 Co 0.51139 0.88118 0.49261 0.0
O71 O 0.50587 0.90822 0.51705 0.0
O72 O 0.53296 0.90406 0.48061 0.0
C73 C 0.47515 0.87515 0.47799 0.0
O74 O 0.52154 0.85679 0.46114 0.0
Co75 Co 0.49019 0.83452 0.50989 0.0
O76 O 0.49756 0.82733 0.46449 0.0
C77 C 0.53236 0.84993 0.54224 0.0
C78 C 0.52199 0.9173 0.50013 0.0
C79 C 0.51326 0.83817 0.45026 0.0
O80 O 0.53239 0.86872 0.52655 0.0
O81 O 0.51682 0.83492 0.53967 0.0
O82 O 0.48754 0.88988 0.46294 0.0
O83 O 0.48422 0.86637 0.50341 0.0
Co84 Co 0.36577 0.25598 0.73114 0.0
O85 O 0.33809 0.24762 0.75258 0.0
O86 O 0.34298 0.27828 0.72255 0.0
C87 C 0.37327 0.22164 0.70967 0.0
O88 O 0.39032 0.26985 0.70355 0.0
Co89 Co 0.41256 0.23433 0.74618 0.0
O90 O 0.4208 0.24708 0.7035 0.0
C91 C 0.39391 0.27041 0.78857 0.0
C92 C 0.32939 0.26547 0.73902 0.0
C93 C 0.4095 0.26363 0.69223 0.0
O94 O 0.3768 0.27342 0.76989 0.0
O95 O 0.40869 0.25482 0.78417 0.0
O96 O 0.35875 0.2351 0.69611 0.0
O97 O 0.38104 0.22837 0.73707 0.0
Co98 Co 0.99727 0.12396 0.98016 0.0
O99 O 0.01725 0.1071 0.0077 0.0
O100 O 0.98421 0.0948 0.98959 0.0
C101 C 0.02415 0.1351 0.94512 0.0
O102 O 0.97258 0.13588 0.95048 0.0
Co103 Co 0.00317 0.17593 0.96978 0.0
O104 O 0.98256 0.17054 0.93296 0.0
C105 C 0.98197 0.15859 0.02951 0.0
C106 C 0.00269 0.09072 0.00555 0.0
C107 C 0.96997 0.15307 0.93183 0.0
O108 O 0.98182 0.13822 0.01844 0.0
O109 O 0.9913 0.17526 0.0149 0.0
O110 O 0.01533 0.11504 0.94285 0.0
O111 O 0.01796 0.14684 0.96978 0.0
Co112 Co 0.86944 0.73829 0.75217 0.0
O113 O 0.8501 0.75166 0.78412 0.0
O114 O 0.84118 0.72226 0.75347 0.0
C115 C 0.87968 0.7713 0.72913 0.0
O116 O 0.88394 0.7203 0.71595 0.0
Co117 Co 0.92092 0.74827 0.74757 0.0
O118 O 0.91823 0.73447 0.70431 0.0
C119 C 0.90374 0.71411 0.79425 0.0
C120 C 0.83496 0.73714 0.77476 0.0
C121 C 0.90166 0.72143 0.69811 0.0
O122 O 0.88324 0.71708 0.78473 0.0
O123 O 0.92052 0.72564 0.78357 0.0
O124 O 0.86053 0.76186 0.72193 0.0
O125 O 0.8912 0.76155 0.75163 0.0
Co126 Co 0.99385 0.11285 0.47769 0.0
O127 O 0.98597 0.08619 0.5022 0.0
O128 O 0.01242 0.08796 0.46445 0.0
C129 C 0.95835 0.12375 0.46482 0.0
O130 O 0.00613 0.1355 0.44564 0.0
Co131 Co 0.97882 0.16206 0.49448 0.0
O132 O 0.99125 0.17021 0.45164 0.0
C133 C 0.01945 0.14182 0.52564 0.0
C134 C 0.00079 0.07571 0.4844 0.0
C135 C 0.00356 0.15609 0.43647 0.0
O136 O 0.01722 0.12292 0.51041 0.0
O137 O 0.00536 0.15823 0.52363 0.0
O138 O 0.9682 0.10744 0.44919 0.0
O139 O 0.96911 0.13101 0.48975 0.0
Co140 Co 0.64082 0.27204 0.21715 0.0
O141 O 0.66715 0.25773 0.23541 0.0
O142 O 0.66637 0.29184 0.21303 0.0
C143 C 0.62924 0.24182 0.18851 0.0
O144 O 0.61798 0.29211 0.19452 0.0
Co145 Co 0.5918 0.25458 0.22962 0.0
O146 O 0.58362 0.27574 0.19434 0.0
C147 C 0.61609 0.28081 0.27954 0.0
C148 C 0.67814 0.27556 0.22577 0.0
C149 C 0.59725 0.29121 0.18546 0.0
O150 O 0.63218 0.28574 0.25987 0.0
O151 O 0.60007 0.26697 0.27291 0.0
O152 O 0.64527 0.25473 0.17761 0.0
O153 O 0.62216 0.24635 0.21716 0.0
Co154 Co 0.4784 0.87392 0.98225 0.0
O155 O 0.4941 0.89032 0.01556 0.0
O156 O 0.46734 0.90445 0.98406 0.0
C157 C 0.50933 0.85843 0.95975 0.0
O158 O 0.45961 0.86365 0.94394 0.0
Co159 Co 0.4788 0.82142 0.97706 0.0
O160 O 0.4683 0.8274 0.93277 0.0
C161 C 0.44797 0.84379 0.02312 0.0
C162 C 0.48246 0.90782 0.0062 0.0
C163 C 0.45935 0.84626 0.92541 0.0
O164 O 0.45459 0.86347 0.01377 0.0
O165 O 0.45606 0.82515 0.01242 0.0
O166 O 0.50367 0.8792 0.95349 0.0
O167 O 0.49745 0.84827 0.98159 0.0
Co168 Co 0.85509 0.25541 0.76716 0.0
O169 O 0.82801 0.24595 0.7449 0.0
O170 O 0.8318 0.27746 0.7734 0.0
C171 C 0.86267 0.22176 0.79077 0.0
O172 O 0.8783 0.27073 0.79527 0.0
Co173 Co 0.90303 0.23538 0.75708 0.0
O174 O 0.91095 0.25148 0.79753 0.0
C175 C 0.88452 0.26851 0.71036 0.0
C176 C 0.81872 0.26394 0.75735 0.0
C177 C 0.89799 0.2673 0.80721 0.0
O178 O 0.86701 0.27211 0.72814 0.0
O179 O 0.89937 0.25332 0.71656 0.0
O180 O 0.84734 0.23513 0.80262 0.0
O181 O 0.87142 0.22816 0.76377 0.0
Co182 Co 0.49582 0.11582 0.5119 0.0
O183 O 0.51285 0.09668 0.48333 0.0
O184 O 0.48183 0.08648 0.50962 0.0
C185 C 0.52576 0.12888 0.53962 0.0
O186 O 0.47455 0.12998 0.54472 0.0
Co187 Co 0.50286 0.16819 0.51302 0.0
O188 O 0.48174 0.16731 0.54998 0.0
C189 C 0.4782 0.14662 0.45959 0.0
C190 C 0.49869 0.0808 0.49119 0.0
C191 C 0.47119 0.14936 0.55796 0.0
O192 O 0.47692 0.12773 0.47501 0.0
O193 O 0.48999 0.16349 0.46916 0.0
O194 O 0.51726 0.10918 0.54634 0.0
O195 O 0.51737 0.13893 0.51479 0.0
Co196 Co 0.62381 0.73711 0.26001 0.0
O197 O 0.64153 0.75603 0.23164 0.0
O198 O 0.65507 0.72854 0.26244 0.0
C199 C 0.60325 0.76523 0.28243 0.0
O200 O 0.61216 0.71489 0.29341 0.0
Co201 Co 0.57138 0.73307 0.25788 0.0
O202 O 0.57525 0.7213 0.30229 0.0
C203 C 0.59964 0.70847 0.21033 0.0
C204 C 0.65897 0.74482 0.24219 0.0
C205 C 0.59409 0.71248 0.31023 0.0
O206 O 0.61809 0.71457 0.2243 0.0
O207 O 0.57991 0.71511 0.21886 0.0
O208 O 0.62368 0.76114 0.29247 0.0
O209 O 0.59682 0.75363 0.25781 0.0
Co210 Co 0.02668 0.88993 0.02455 0.0
O211 O 0.0124 0.91705 0.00917 0.0
O212 O 0.04612 0.91561 0.03237 0.0
C213 C 0.99602 0.87657 0.05036 0.0
O214 O 0.04637 0.86561 0.04464 0.0
Co215 Co 0.00935 0.842 0.00553 0.0
O216 O 0.02815 0.83219 0.04268 0.0
C217 C 0.03725 0.86888 0.95993 0.0
C218 C 0.02993 0.92779 0.0201 0.0
C219 C 0.04417 0.84474 0.05277 0.0
O220 O 0.0411 0.88417 0.9813 0.0
O221 O 0.02369 0.85221 0.96423 0.0
O222 O 0.00896 0.89141 0.06418 0.0
O223 O 0.00094 0.8716 0.02099 0.0
Co224 Co 0.63409 0.75457 0.76442 0.0
O225 O 0.66186 0.74264 0.74679 0.0
O226 O 0.65882 0.7734 0.77714 0.0
C227 C 0.6203 0.72156 0.78316 0.0
O228 O 0.60999 0.77163 0.78895 0.0
Co229 Co 0.58567 0.74057 0.74339 0.0
O230 O 0.57573 0.75576 0.78381 0.0
C231 C 0.61313 0.77173 0.70298 0.0
C232 C 0.67175 0.75902 0.76232 0.0
C233 C 0.58914 0.76979 0.79713 0.0
O234 O 0.62836 0.77358 0.72493 0.0
O235 O 0.59635 0.75805 0.70484 0.0
O236 O 0.63565 0.73252 0.7992 0.0
O237 O 0.61542 0.72974 0.75522 0.0
Co238 Co 0.48006 0.39168 0.00968 0.0
O239 O 0.48976 0.41717 0.98395 0.0
O240 O 0.45774 0.41513 0.01157 0.0
C241 C 0.51298 0.38601 0.03602 0.0
O242 O 0.46461 0.37027 0.04074 0.0
Co243 Co 0.50121 0.34357 0.00566 0.0
O244 O 0.48107 0.33594 0.04225 0.0
C245 C 0.46902 0.35861 0.9559 0.0
C246 C 0.47148 0.42715 0.99423 0.0
C247 C 0.4664 0.35013 0.05207 0.0
O248 O 0.46432 0.37683 0.9717 0.0
O249 O 0.48504 0.34516 0.96383 0.0
O250 O 0.49939 0.40215 0.04479 0.0
O251 O 0.5075 0.37558 0.00987 0.0
Co252 Co 0.8747 0.25095 0.25848 0.0
O253 O 0.85664 0.26524 0.22606 0.0
O254 O 0.84652 0.23481 0.25381 0.0
C255 C 0.88343 0.28342 0.28375 0.0
O256 O 0.88809 0.23215 0.29473 0.0
Co257 Co 0.92568 0.26207 0.26767 0.0
O258 O 0.9212 0.24743 0.31019 0.0
C259 C 0.91066 0.23203 0.21439 0.0
C260 C 0.8412 0.25041 0.23303 0.0
C261 C 0.9047 0.23392 0.31447 0.0
O262 O 0.89025 0.23154 0.22525 0.0
O263 O 0.92632 0.2444 0.22648 0.0
O264 O 0.86445 0.27326 0.28994 0.0
O265 O 0.89578 0.27447 0.26156 0.0
Co266 Co 0.01191 0.61697 0.52206 0.0
O267 O 0.00012 0.59094 0.49941 0.0
O268 O 0.03243 0.59213 0.52637 0.0
C269 C 0.97925 0.62591 0.5472 0.0
O270 O 0.02958 0.63864 0.55009 0.0
Co271 Co 0.99466 0.66639 0.5158 0.0
O272 O 0.01239 0.67228 0.55549 0.0
C273 C 0.02642 0.64736 0.46708 0.0
C274 C 0.01762 0.58021 0.51081 0.0
C275 C 0.02776 0.65821 0.56319 0.0
O276 O 0.02831 0.62857 0.48266 0.0
O277 O 0.01285 0.66324 0.47543 0.0
O278 O 0.99202 0.60976 0.55813 0.0
O279 O 0.98571 0.63507 0.52054 0.0
Co280 Co 0.62014 0.24725 0.7537 0.0
O281 O 0.63958 0.26215 0.78418 0.0
O282 O 0.6487 0.23188 0.7554 0.0
C283 C 0.60876 0.27901 0.72813 0.0
O284 O 0.60601 0.22786 0.71887 0.0
Co285 Co 0.56831 0.2559 0.74947 0.0
O286 O 0.57091 0.24008 0.70759 0.0
C287 C 0.58656 0.22364 0.79782 0.0
C288 C 0.65496 0.24772 0.77514 0.0
C289 C 0.58804 0.22773 0.70156 0.0
O290 O 0.60697 0.22668 0.78779 0.0
O291 O 0.56956 0.2347 0.78694 0.0
O292 O 0.62823 0.26995 0.72166 0.0
O293 O 0.59775 0.26993 0.7517 0.0
Co294 Co 0.01263 0.36764 0.9856 0.0
O295 O 0.00061 0.38547 0.02031 0.0
O296 O 0.02681 0.397 0.98588 0.0
C297 C 0.97891 0.35583 0.96687 0.0
O298 O 0.02806 0.35492 0.94557 0.0
Co299 Co 0.00529 0.31554 0.9813 0.0
O300 O 0.01355 0.32037 0.93569 0.0
C301 C 0.04069 0.33414 0.02438 0.0
C302 C 0.01315 0.40183 0.00943 0.0
C303 C 0.02473 0.33774 0.92714 0.0
O304 O 0.03679 0.35444 0.01445 0.0
O305 O 0.02913 0.31693 0.01537 0.0
O306 O 0.98656 0.37577 0.95958 0.0
O307 O 0.99077 0.34454 0.9875 0.0
Co308 Co 0.86063 0.76251 0.22067 0.0
O309 O 0.83326 0.74971 0.23795 0.0
O310 O 0.83532 0.78167 0.2101 0.0
C311 C 0.87445 0.7306 0.19894 0.0
O312 O 0.88495 0.78033 0.19723 0.0
Co313 Co 0.90844 0.74733 0.24329 0.0
O314 O 0.91949 0.76569 0.20658 0.0
C315 C 0.8815 0.77851 0.28349 0.0
C316 C 0.82287 0.76678 0.22484 0.0
C317 C 0.90635 0.77931 0.19189 0.0
O318 O 0.86603 0.77982 0.26185 0.0
O319 O 0.89884 0.76563 0.28145 0.0
O320 O 0.85917 0.7423 0.18386 0.0
O321 O 0.87921 0.73714 0.2278 0.0
Co322 Co 0.50019 0.60768 0.48583 0.0
O323 O 0.50669 0.57944 0.50714 0.0
O324 O 0.47923 0.58499 0.47168 0.0
C325 C 0.53592 0.61626 0.47125 0.0
O326 O 0.48912 0.63306 0.45703 0.0
Co327 Co 0.51847 0.65382 0.5105 0.0
O328 O 0.50227 0.66701 0.47307 0.0
C329 C 0.48165 0.63112 0.54515 0.0
C330 C 0.49044 0.57102 0.48976 0.0
C331 C 0.491 0.6546 0.4539 0.0
O332 O 0.47896 0.61729 0.52155 0.0
O333 O 0.49825 0.64496 0.54699 0.0
O334 O 0.52424 0.60156 0.45509 0.0
O335 O 0.52671 0.6233 0.49767 0.0
Co336 Co 0.36542 0.24392 0.24158 0.0
O337 O 0.34553 0.25936 0.27058 0.0
O338 O 0.33783 0.2267 0.2467 0.0
C339 C 0.37369 0.27478 0.21216 0.0
O340 O 0.38148 0.22341 0.20964 0.0
Co341 Co 0.41611 0.25775 0.23524 0.0
O342 O 0.41488 0.23886 0.19585 0.0
C343 C 0.40096 0.22781 0.28882 0.0
C344 C 0.33117 0.2432 0.2652 0.0
C345 C 0.39946 0.224 0.19224 0.0
O346 O 0.3805 0.22736 0.2782 0.0
O347 O 0.41661 0.23999 0.27629 0.0
O348 O 0.35547 0.2633 0.20615 0.0
O349 O 0.38534 0.26831 0.23665 0.0
Co350 Co 0.49311 0.62812 0.98364 0.0
O351 O 0.47769 0.60754 0.01206 0.0
O352 O 0.50491 0.59801 0.97791 0.0
C353 C 0.46189 0.64573 0.96497 0.0
O354 O 0.51193 0.64356 0.94918 0.0
Co355 Co 0.49065 0.68062 0.99057 0.0
O356 O 0.50285 0.68053 0.9462 0.0
C357 C 0.52291 0.65409 0.0305 0.0
C358 C 0.48978 0.5917 -0.00124 0.0
C359 C 0.51256 0.66293 0.93519 0.0
O360 O 0.51675 0.6353 0.01737 0.0
O361 O 0.51384 0.67326 0.02401 0.0
O362 O 0.46797 0.62623 0.9534 0.0
O363 O 0.47346 0.6528 0.9893 0.0
Co364 Co 0.13524 0.77304 0.73008 0.0
O365 O 0.1612 0.76312 0.75463 0.0
O366 O 0.16014 0.79298 0.72238 0.0
C367 C 0.12624 0.7387 0.71001 0.0
O368 O 0.11355 0.78807 0.69889 0.0
Co369 Co 0.08597 0.7563 0.74034 0.0
O370 O 0.08006 0.77023 0.69778 0.0
C371 C 0.10459 0.79305 0.7814 0.0
C372 C 0.17203 0.77941 0.74017 0.0
C373 C 0.09395 0.78465 0.68652 0.0
O374 O 0.12367 0.79277 0.76638 0.0
O375 O 0.08848 0.77914 0.7756 0.0
O376 O 0.14256 0.75048 0.69759 0.0
O377 O 0.11717 0.747 0.73575 0.0
Co378 Co 0.98975 0.38406 0.50102 0.0
O379 O 0.0058 0.40213 0.53182 0.0
O380 O 0.97387 0.41211 0.50773 0.0
C381 C 0.01979 0.37522 0.46998 0.0
O382 O 0.96932 0.37092 0.46661 0.0
Co383 Co 0.0007 0.33269 0.49237 0.0
O384 O 0.98157 0.3359 0.45358 0.0
C385 C 0.97118 0.34758 0.54592 0.0
C386 C 0.99074 0.41767 0.52616 0.0
C387 C 0.96886 0.35303 0.44908 0.0
O388 O 0.97174 0.36828 0.53601 0.0
O389 O 0.98297 0.33172 0.53324 0.0
O390 O 0.00996 0.39475 0.46724 0.0
O391 O 0.01302 0.36293 0.49386 0.0
Co392 Co 0.37489 0.75801 0.27246 0.0
O393 O 0.35658 0.73791 0.24706 0.0
O394 O 0.34357 0.76619 0.27694 0.0
C395 C 0.39629 0.73108 0.29526 0.0
O396 O 0.38766 0.78108 0.30378 0.0
Co397 Co 0.42699 0.76215 0.26392 0.0
O398 O 0.4255 0.77715 0.30638 0.0
C399 C 0.39628 0.78617 0.21919 0.0
C400 C 0.33933 0.74894 0.2585 0.0
C401 C 0.4069 0.78506 0.31691 0.0
O402 O 0.37872 0.77928 0.23471 0.0
O403 O 0.41656 0.78046 0.2263 0.0
O404 O 0.37631 0.73557 0.30661 0.0
O405 O 0.40186 0.7414 0.26903 0.0
Co406 Co 0.98904 0.60165 0.01962 0.0
O407 O -0.00033 0.57519 0.99718 0.0
O408 O 0.96907 0.57664 0.02797 0.0
C409 C 0.0226 0.61157 0.0406 0.0
O410 O 0.97352 0.62483 0.04828 0.0
Co411 Co 0.00639 0.65013 0.00328 0.0
O412 O 0.9873 0.65991 0.04 0.0
C413 C 0.97464 0.62691 0.95981 0.0
C414 C 0.98307 0.56454 0.01106 0.0
C415 C 0.97441 0.64611 0.0548 0.0
O416 O 0.9706 0.61164 0.98116 0.0
O417 O 0.99024 0.6418 0.96272 0.0
O418 O 0.01067 0.59565 0.05383 0.0
O419 O 0.01504 0.61939 0.01367 0.0
Co420 Co 0.12855 0.24627 0.73106 0.0
O421 O 0.15064 0.26265 0.70652 0.0
O422 O 0.15792 0.23271 0.73701 0.0
C423 C 0.11204 0.27699 0.7532 0.0
O424 O 0.11054 0.22582 0.76079 0.0
Co425 Co 0.07689 0.25278 0.71913 0.0
O426 O 0.07424 0.23734 0.76145 0.0
C427 C 0.10415 0.22397 0.67537 0.0
C428 C 0.1655 0.24902 0.71894 0.0
C429 C 0.0904 0.22532 0.77243 0.0
O430 O 0.12163 0.2256 0.69366 0.0
O431 O 0.08575 0.23501 0.67992 0.0
O432 O 0.1306 0.26884 0.76516 0.0
O433 O 0.10536 0.26777 0.7267 0.0
Co434 Co 0.50292 0.37033 0.49895 0.0
O435 O 0.48886 0.39079 0.4689 0.0
O436 O 0.51727 0.3994 0.50148 0.0
C437 C 0.47064 0.3564 0.51985 0.0
O438 O 0.52108 0.35507 0.53418 0.0
Co439 Co 0.49591 0.31811 0.49879 0.0
O440 O 0.50792 0.32 0.54332 0.0
C441 C 0.52926 0.33952 0.4543 0.0
C442 C 0.50248 0.40606 0.4804 0.0
C443 C 0.52003 0.33694 0.55118 0.0
O444 O 0.5253 0.35945 0.46563 0.0
O445 O 0.51844 0.32178 0.4632 0.0
O446 O 0.47849 0.37575 0.52965 0.0
O447 O 0.48131 0.34727 0.4961 0.0
H448 H 0.01718 0.19939 0.42323 0.0
H449 H 0.02167 0.1302 0.38851 0.0
H450 H 0.04925 0.14222 0.34731 0.0
H451 H 0.02375 0.22549 0.34282 0.0
H452 H 0.04008 0.24893 0.3574 0.0
H453 H 0.01887 0.23625 0.3828 0.0
H454 H 0.04784 0.22861 0.42756 0.0
H455 H 0.06977 0.24155 0.40386 0.0
H456 H 0.07334 0.21305 0.41854 0.0
H457 H 0.07796 0.16142 0.31189 0.0
H458 H 0.10606 0.18655 0.28549 0.0
H459 H 0.08522 0.24194 0.34686 0.0
C460 C 0.02353 0.18688 0.40646 0.0
C461 C 0.01726 0.1639 0.40897 0.0
C462 C 0.02626 0.14793 0.38695 0.0
C463 C 0.0419 0.15458 0.36346 0.0
C464 C 0.04836 0.17723 0.36237 0.0
C465 C 0.03937 0.19316 0.38315 0.0
C466 C 0.0499 0.21619 0.37791 0.0
C467 C 0.03211 0.2327 0.36448 0.0
C468 C 0.06086 0.22537 0.40882 0.0
C469 C 0.06741 0.21036 0.3527 0.0
C470 C 0.06568 0.188 0.34316 0.0
C471 C 0.07956 0.17892 0.31927 0.0
C472 C 0.09552 0.19317 0.30464 0.0
C473 C 0.0979 0.21584 0.31486 0.0
C474 C 0.08382 0.22449 0.33924 0.0
H475 H 0.01484 0.82161 0.54147 0.0
H476 H 0.04455 0.88844 0.55028 0.0
H477 H 0.07321 0.87317 0.58773 0.0
H478 H 0.01675 0.81098 0.62333 0.0
H479 H 0.02198 0.78099 0.61998 0.0
H480 H 0.00722 0.79564 0.5884 0.0
H481 H 0.03673 0.78137 0.54685 0.0
H482 H 0.05152 0.76656 0.57841 0.0
H483 H 0.06638 0.7867 0.55358 0.0
H484 H 0.09611 0.85173 0.62763 0.0
H485 H 0.10984 0.82658 0.67081 0.0
H486 H 0.06193 0.77499 0.64101 0.0
C487 C 0.02767 0.8329 0.5507 0.0
C488 C 0.02768 0.85614 0.54292 0.0
C489 C 0.04448 0.87052 0.55589 0.0
C490 C 0.06081 0.86199 0.57704 0.0
C491 C 0.05977 0.83916 0.58537 0.0
C492 C 0.04349 0.82483 0.57286 0.0
C493 C 0.04382 0.80199 0.58943 0.0
C494 C 0.02111 0.79713 0.60628 0.0
C495 C 0.04999 0.78304 0.56564 0.0
C496 C 0.06258 0.80587 0.61353 0.0
C497 C 0.07192 0.8272 0.61021 0.0
C498 C 0.08907 0.83492 0.63034 0.0
C499 C 0.09674 0.82052 0.65477 0.0
C500 C 0.08688 0.7989 0.65924 0.0
C501 C 0.06973 0.79145 0.63814 0.0
H502 H 0.41493 0.8397 0.91395 0.0
H503 H 0.47911 0.85318 0.86782 0.0
H504 H 0.46196 0.84567 0.81467 0.0
H505 H 0.40376 0.79429 0.87458 0.0
H506 H 0.37361 0.79669 0.86871 0.0
H507 H 0.38688 0.81088 0.90184 0.0
H508 H 0.37222 0.84986 0.88431 0.0
H509 H 0.35713 0.83635 0.85187 0.0
H510 H 0.37635 0.85931 0.8435 0.0
H511 H 0.44109 0.82853 0.76965 0.0
H512 H 0.41822 0.80287 0.73603 0.0
H513 H 0.36737 0.79956 0.81115 0.0
C514 C 0.42486 0.84232 0.89235 0.0
C515 C 0.44798 0.84767 0.89438 0.0
C516 C 0.46113 0.84974 0.86622 0.0
C517 C 0.45152 0.84554 0.83605 0.0
C518 C 0.42877 0.83932 0.8347 0.0
C519 C 0.41548 0.83801 0.8621 0.0
C520 C 0.39288 0.82703 0.85499 0.0
C521 C 0.38907 0.80597 0.87624 0.0
C522 C 0.3735 0.84417 0.85889 0.0
C523 C 0.39624 0.82081 0.82001 0.0
C524 C 0.41673 0.82868 0.80849 0.0
C525 C 0.42472 0.82283 0.77805 0.0
C526 C 0.41167 0.80817 0.75918 0.0
C527 C 0.391 0.79941 0.77097 0.0
C528 C 0.3829 0.8064 0.80131 0.0
H529 H 0.42411 0.22557 0.137 0.0
H530 H 0.38579 0.18 0.19792 0.0
H531 H 0.39882 0.14748 0.16528 0.0
H532 H 0.41324 0.19392 0.06037 0.0
H533 H 0.44106 0.20054 0.04527 0.0
H534 H 0.42674 0.22013 0.07159 0.0
H535 H 0.46116 0.21938 0.1101 0.0
H536 H 0.47546 0.19957 0.08431 0.0
H537 H 0.47085 0.19266 0.12602 0.0
H538 H 0.42221 0.11991 0.13262 0.0
H539 H 0.44912 0.09984 0.09672 0.0
H540 H 0.46727 0.16386 0.05273 0.0
C541 C 0.41783 0.20886 0.14274 0.0
C542 C 0.40386 0.20527 0.16972 0.0
C543 C 0.39631 0.1831 0.17703 0.0
C544 C 0.40368 0.16454 0.15873 0.0
C545 C 0.418 0.16862 0.13271 0.0
C546 C 0.42443 0.19033 0.12416 0.0
C547 C 0.44046 0.19019 0.09583 0.0
C548 C 0.42972 0.20188 0.06653 0.0
C549 C 0.46332 0.20109 0.10462 0.0
C550 C 0.44278 0.16497 0.09061 0.0
C551 C 0.42992 0.15275 0.1123 0.0
C552 C 0.43176 0.12925 0.11479 0.0
C553 C 0.44713 0.11802 0.09452 0.0
C554 C 0.45996 0.1303 0.07174 0.0
C555 C 0.45737 0.15396 0.06942 0.0
H556 H 0.09134 0.77075 0.19721 0.0
H557 H 0.15835 0.77828 0.15603 0.0
H558 H 0.14267 0.80415 0.11468 0.0
H559 H 0.0635 0.76607 0.12235 0.0
H560 H 0.03823 0.78046 0.13557 0.0
H561 H 0.05525 0.76508 0.16406 0.0
H562 H 0.05896 0.80122 0.19908 0.0
H563 H 0.04198 0.81676 0.17071 0.0
H564 H 0.06971 0.82692 0.18131 0.0
H565 H 0.11929 0.82911 0.07796 0.0
H566 H 0.08969 0.84768 0.04496 0.0
H567 H 0.03777 0.81918 0.10646 0.0
C568 C 0.10282 0.77795 0.17978 0.0
C569 C 0.12609 0.77268 0.17992 0.0
C570 C 0.14046 0.78227 0.15635 0.0
C571 C 0.13172 0.79697 0.13288 0.0
C572 C 0.10854 0.80143 0.13305 0.0
C573 C 0.09426 0.79191 0.15562 0.0
C574 C 0.06976 0.79758 0.14892 0.0
C575 C 0.05588 0.77602 0.14232 0.0
C576 C 0.05951 0.81145 0.17665 0.0
C577 C 0.07242 0.81177 0.1189 0.0
C578 C 0.09494 0.81424 0.11054 0.0
C579 C 0.10161 0.82717 0.08414 0.0
C580 C 0.08476 0.83765 0.06564 0.0
C581 C 0.06164 0.83458 0.07323 0.0
C582 C 0.0554 0.82152 0.10014 0.0
H583 H 0.42151 0.82829 0.32058 0.0
H584 H 0.39564 0.77267 0.37748 0.0
H585 H 0.40371 0.79409 0.42741 0.0
H586 H 0.46633 0.8399 0.3642 0.0
H587 H 0.46597 0.87039 0.36187 0.0
H588 H 0.45299 0.85388 0.33074 0.0
H589 H 0.41479 0.87416 0.33898 0.0
H590 H 0.42752 0.89156 0.36967 0.0
H591 H 0.40237 0.87547 0.37854 0.0
H592 H 0.42149 0.81789 0.46995 0.0
H593 H 0.44745 0.84189 0.50156 0.0
H594 H 0.46055 0.88279 0.41691 0.0
C595 C 0.41673 0.82117 0.34362 0.0
C596 C 0.40768 0.79921 0.34565 0.0
C597 C 0.40218 0.78978 0.37585 0.0
C598 C 0.40665 0.80183 0.40418 0.0
C599 C 0.41617 0.82338 0.40159 0.0
C600 C 0.42078 0.83313 0.372 0.0
C601 C 0.43345 0.85522 0.37566 0.0
C602 C 0.45602 0.8548 0.35707 0.0
C603 C 0.41864 0.87529 0.36509 0.0
C604 C 0.43701 0.85538 0.41166 0.0
C605 C 0.42636 0.83726 0.42634 0.0
C606 C 0.42938 0.83249 0.45891 0.0
C607 C 0.44419 0.84618 0.47667 0.0
C608 C 0.45592 0.86421 0.46167 0.0
C609 C 0.45153 0.86934 0.42913 0.0
H610 H 0.37277 0.21427 0.64463 0.0
H611 H 0.40006 0.18834 0.73417 0.0
H612 H 0.42379 0.16137 0.70384 0.0
H613 H 0.37571 0.15823 0.59916 0.0
H614 H 0.38349 0.17241 0.56239 0.0
H615 H 0.36509 0.18626 0.59088 0.0
H616 H 0.39251 0.22062 0.5932 0.0
H617 H 0.41027 0.20681 0.56428 0.0
H618 H 0.42208 0.21563 0.60211 0.0
H619 H 0.44877 0.14177 0.66433 0.0
H620 H 0.47392 0.13235 0.61848 0.0
H621 H 0.4314 0.17178 0.55492 0.0
C622 C 0.38313 0.20234 0.65784 0.0
C623 C 0.38444 0.20318 0.69173 0.0
C624 C 0.3987 0.18781 0.7082 0.0
C625 C 0.41216 0.17237 0.69118 0.0
C626 C 0.41107 0.17243 0.65771 0.0
C627 C 0.39683 0.18694 0.64116 0.0
C628 C 0.40071 0.18537 0.60518 0.0
C629 C 0.38002 0.17494 0.58842 0.0
C630 C 0.40675 0.20851 0.59042 0.0
C631 C 0.42064 0.1693 0.60438 0.0
C632 C 0.4258 0.1613 0.63477 0.0
C633 C 0.4446 0.14753 0.64034 0.0
C634 C 0.45878 0.14228 0.61431 0.0
C635 C 0.45426 0.15125 0.58351 0.0
C636 C 0.43481 0.16451 0.57834 0.0
H637 H 0.06324 0.23182 0.82459 0.0
H638 H 0.10591 0.18207 0.77755 0.0
H639 H 0.09462 0.15338 0.81794 0.0
H640 H 0.0758 0.21291 0.9067 0.0
H641 H 0.04753 0.21873 0.92075 0.0
H642 H 0.05944 0.23526 0.88848 0.0
H643 H 0.02511 0.22502 0.85247 0.0
H644 H 0.01322 0.20833 0.88452 0.0
H645 H 0.01823 0.19564 0.84575 0.0
H646 H 0.07495 0.12923 0.85961 0.0
H647 H 0.05244 0.11269 0.90414 0.0
H648 H 0.02662 0.17949 0.92732 0.0
C649 C 0.07032 0.21492 0.82306 0.0
C650 C 0.0853 0.20898 0.79806 0.0
C651 C 0.09447 0.18686 0.79675 0.0
C652 C 0.08809 0.17048 0.81944 0.0
C653 C 0.073 0.17676 0.8436 0.0
C654 C 0.06462 0.19859 0.84597 0.0
C655 C 0.04892 0.20108 0.87446 0.0
C656 C 0.0585 0.21799 0.89905 0.0
C657 C 0.02496 0.20791 0.86363 0.0
C658 C 0.04938 0.17713 0.88733 0.0
C659 C 0.06309 0.16326 0.86897 0.0
C660 C 0.06456 0.14001 0.87461 0.0
C661 C 0.0517 0.13077 0.89978 0.0
C662 C 0.03803 0.14486 0.91926 0.0
C663 C 0.03714 0.16833 0.91313 0.0
H664 H 0.9721 0.82274 0.61528 0.0
H665 H 0.9194 0.86435 0.57321 0.0
H666 H 0.89368 0.85393 0.61773 0.0
H667 H 0.9396 0.77844 0.63598 0.0
H668 H 0.9532 0.77186 0.67361 0.0
H669 H 0.96879 0.78604 0.64248 0.0
H670 H 0.97837 0.81886 0.68148 0.0
H671 H 0.96301 0.80464 0.71306 0.0
H672 H 0.95588 0.83336 0.70236 0.0
H673 H 0.87163 0.83199 0.65856 0.0
H674 H 0.85623 0.80389 0.69692 0.0
H675 H 0.92409 0.77941 0.7156 0.0
C676 C 0.95539 0.83026 0.6161 0.0
C677 C 0.94765 0.84431 0.59096 0.0
C678 C 0.92567 0.85374 0.5925 0.0
C679 C 0.91096 0.84787 0.61764 0.0
C680 C 0.91877 0.83309 0.64134 0.0
C681 C 0.94069 0.82489 0.64124 0.0
C682 C 0.94439 0.80777 0.6678 0.0
C683 C 0.95192 0.78468 0.65413 0.0
C684 C 0.96142 0.8167 0.69265 0.0
C685 C 0.92078 0.80662 0.68171 0.0
C686 C 0.90624 0.82139 0.66621 0.0
C687 C 0.88296 0.82095 0.67168 0.0
C688 C 0.87435 0.80488 0.69331 0.0
C689 C 0.88903 0.78975 0.70942 0.0
C690 C 0.91255 0.79111 0.70418 0.0
H691 H 0.94473 0.12284 0.40196 0.0
H692 H 0.93501 0.15861 0.49202 0.0
H693 H 0.91484 0.18904 0.4633 0.0
H694 H 0.95891 0.16814 0.35803 0.0
H695 H 0.94492 0.16026 0.32118 0.0
H696 H 0.95375 0.13873 0.34901 0.0
H697 H 0.91286 0.12312 0.35229 0.0
H698 H 0.90385 0.14432 0.32381 0.0
H699 H 0.8899 0.14197 0.36224 0.0
H700 H 0.90373 0.21897 0.42418 0.0
H701 H 0.8987 0.24448 0.37732 0.0
H702 H 0.91419 0.1891 0.31285 0.0
C703 C 0.93744 0.13655 0.41582 0.0
C704 C 0.94134 0.13836 0.4492 0.0
C705 C 0.93211 0.15687 0.46642 0.0
C706 C 0.92062 0.17424 0.45031 0.0
C707 C 0.91821 0.17264 0.41708 0.0
C708 C 0.92592 0.15403 0.40007 0.0
C709 C 0.92353 0.15761 0.36417 0.0
C710 C 0.94665 0.1561 0.34712 0.0
C711 C 0.90652 0.14075 0.34978 0.0
C712 C 0.9143 0.18151 0.36361 0.0
C713 C 0.91117 0.18984 0.39439 0.0
C714 C 0.90537 0.21242 0.39998 0.0
C715 C 0.90268 0.2268 0.37341 0.0
C716 C 0.90566 0.21845 0.34191 0.0
C717 C 0.91122 0.19554 0.33688 0.0
H718 H 0.52362 0.18215 0.10637 0.0
H719 H 0.57106 0.14226 0.05042 0.0
H720 H 0.60301 0.16029 0.07903 0.0
H721 H 0.55535 0.23276 0.11012 0.0
H722 H 0.54803 0.23925 0.15117 0.0
H723 H 0.5289 0.22298 0.12668 0.0
H724 H 0.52908 0.19071 0.16901 0.0
H725 H 0.54809 0.20696 0.19376 0.0
H726 H 0.55564 0.17863 0.18166 0.0
H727 H 0.62956 0.18613 0.10909 0.0
H728 H 0.64886 0.21381 0.14456 0.0
H729 H 0.58411 0.23256 0.18573 0.0
C730 C 0.54075 0.17709 0.10047 0.0
C731 C 0.54504 0.16094 0.07628 0.0
C732 C 0.56757 0.15454 0.06913 0.0
C733 C 0.58577 0.16475 0.08509 0.0
C734 C 0.58103 0.18087 0.1086 0.0
C735 C 0.55908 0.18662 0.11681 0.0
C736 C 0.55861 0.20407 0.14342 0.0
C737 C 0.54704 0.22606 0.13216 0.0
C738 C 0.54718 0.19451 0.17377 0.0
C739 C 0.58371 0.20751 0.14846 0.0
C740 C 0.59638 0.1943 0.12776 0.0
C741 C 0.61987 0.19618 0.12596 0.0
C742 C 0.63066 0.21193 0.14602 0.0
C743 C 0.61796 0.22503 0.16802 0.0
C744 C 0.59427 0.22255 0.16948 0.0
H745 H 0.50938 0.81409 0.9394 0.0
H746 H 0.54708 0.877 0.93446 0.0
H747 H 0.5732 0.8598 0.8951 0.0
H748 H 0.55649 0.77411 0.92528 0.0
H749 H 0.53974 0.75619 0.89955 0.0
H750 H 0.52638 0.77194 0.93148 0.0
H751 H 0.499 0.79007 0.89018 0.0
H752 H 0.51242 0.77463 0.85805 0.0
H753 H 0.5104 0.80507 0.85607 0.0
H754 H 0.59343 0.83726 0.85435 0.0
H755 H 0.60631 0.811 0.81227 0.0
H756 H 0.55324 0.76364 0.83877 0.0
C757 C 0.52337 0.82406 0.93048 0.0
C758 C 0.52637 0.84682 0.93998 0.0
C759 C 0.54466 0.85949 0.92748 0.0
C760 C 0.55955 0.84987 0.9052 0.0
C761 C 0.55563 0.8277 0.89528 0.0
C762 C 0.53795 0.81493 0.90731 0.0
C763 C 0.53604 0.79246 0.88979 0.0
C764 C 0.5399 0.7725 0.91291 0.0
C765 C 0.51311 0.79045 0.8725 0.0
C766 C 0.55534 0.79472 0.86598 0.0
C767 C 0.56657 0.81505 0.87003 0.0
C768 C 0.58487 0.82124 0.85097 0.0
C769 C 0.59203 0.8062 0.82712 0.0
C770 C 0.58071 0.78533 0.8222 0.0
C771 C 0.56206 0.77956 0.84185 0.0
H772 H 0.90533 0.20468 0.78482 0.0
H773 H 0.84434 0.19933 0.84226 0.0
H774 H 0.86437 0.17376 0.87993 0.0
H775 H 0.93081 0.1482 0.80165 0.0
H776 H 0.95871 0.16029 0.80489 0.0
H777 H 0.93819 0.17279 0.77818 0.0
H778 H 0.94346 0.21156 0.80649 0.0
H779 H 0.96387 0.19926 0.83327 0.0
H780 H 0.93938 0.21351 0.84937 0.0
H781 H 0.89239 0.15268 0.91462 0.0
H782 H 0.92629 0.14279 0.94672 0.0
H783 H 0.96941 0.16683 0.86968 0.0
C784 C 0.89593 0.19773 0.80478 0.0
C785 C 0.87323 0.20387 0.81051 0.0
C786 C 0.86172 0.19465 0.83733 0.0
C787 C 0.87294 0.18004 0.85872 0.0
C788 C 0.8957 0.17513 0.8531 0.0
C789 C 0.9071 0.18396 0.82689 0.0
C790 C 0.9323 0.17985 0.82919 0.0
C791 C 0.94048 0.16435 0.80185 0.0
C792 C 0.94551 0.20237 0.82963 0.0
C793 C 0.93346 0.16793 0.86129 0.0
C794 C 0.91214 0.16459 0.8742 0.0
C795 C 0.90913 0.15496 0.90455 0.0
C796 C 0.92842 0.14932 0.92255 0.0
C797 C 0.95027 0.154 0.9104 0.0
C798 C 0.95279 0.16289 0.87918 0.0
H799 H 0.5649 0.23227 0.64538 0.0
H800 H 0.60648 0.18546 0.69985 0.0
H801 H 0.59846 0.15535 0.66017 0.0
H802 H 0.52247 0.19578 0.62588 0.0
H803 H 0.5178 0.20601 0.58559 0.0
H804 H 0.52936 0.22464 0.61555 0.0
H805 H 0.56404 0.23265 0.57916 0.0
H806 H 0.55249 0.21418 0.54881 0.0
H807 H 0.58063 0.20933 0.56403 0.0
H808 H 0.57998 0.12901 0.62089 0.0
H809 H 0.55607 0.10943 0.58068 0.0
H810 H 0.52973 0.17429 0.54914 0.0
C811 C 0.57275 0.21583 0.64843 0.0
C812 C 0.58623 0.21106 0.67551 0.0
C813 C 0.59624 0.18941 0.67899 0.0
C814 C 0.59176 0.17223 0.65665 0.0
C815 C 0.57778 0.17727 0.63065 0.0
C816 C 0.56888 0.1987 0.62601 0.0
C817 C 0.55343 0.19944 0.5971 0.0
C818 C 0.52935 0.20689 0.60663 0.0
C819 C 0.56325 0.21481 0.57071 0.0
C820 C 0.5541 0.17482 0.58722 0.0
C821 C 0.56823 0.16227 0.60681 0.0
C822 C 0.56941 0.13872 0.60472 0.0
C823 C 0.55572 0.12775 0.58202 0.0
C824 C 0.54137 0.14041 0.56161 0.0
C825 C 0.54093 0.16422 0.56389 0.0
H826 H 0.61097 0.79063 0.3369 0.0
H827 H 0.55798 0.76899 0.27147 0.0
H828 H 0.52935 0.78653 0.30642 0.0
H829 H 0.5813 0.78162 0.40898 0.0
H830 H 0.59176 0.80648 0.42924 0.0
H831 H 0.60851 0.79321 0.39836 0.0
H832 H 0.61045 0.83115 0.36707 0.0
H833 H 0.59385 0.84461 0.39802 0.0
H834 H 0.58461 0.84565 0.35674 0.0
H835 H 0.50615 0.80191 0.3515 0.0
H836 H 0.4902 0.81897 0.40097 0.0
H837 H 0.55788 0.8345 0.43433 0.0
C838 C 0.59338 0.7899 0.32971 0.0
C839 C 0.58671 0.7782 0.30166 0.0
C840 C 0.56352 0.77766 0.293 0.0
C841 C 0.54708 0.7876 0.31267 0.0
C842 C 0.55413 0.79849 0.34055 0.0
C843 C 0.57673 0.80016 0.34878 0.0
C844 C 0.57964 0.81276 0.38024 0.0
C845 C 0.59097 0.79761 0.4057 0.0
C846 C 0.59292 0.83486 0.3752 0.0
C847 C 0.55514 0.81746 0.38863 0.0
C848 C 0.54069 0.80885 0.36556 0.0
C849 C 0.51726 0.80926 0.36934 0.0
C850 C 0.50835 0.81891 0.39741 0.0
C851 C 0.52285 0.82845 0.42077 0.0
C852 C 0.54649 0.82784 0.41626 0.0
H853 H 0.94748 0.80054 0.19279 0.0
H854 H 0.8868 0.79178 0.13549 0.0
H855 H 0.90298 0.81642 0.09322 0.0
H856 H 0.95523 0.8598 0.17348 0.0
H857 H 0.98567 0.858 0.17271 0.0
H858 H 0.96963 0.83919 0.1981 0.0
H859 H 0.98887 0.80463 0.17108 0.0
H860 H 0.00485 0.82335 0.14553 0.0
H861 H 0.98753 0.80153 0.12797 0.0
H862 H 0.92665 0.8398 0.05601 0.0
H863 H 0.95512 0.86336 0.02794 0.0
H864 H -0.00119 0.85997 0.1115 0.0
C865 C 0.93767 0.80382 0.17129 0.0
C866 C 0.91597 0.7943 0.16718 0.0
C867 C 0.90343 0.79909 0.13902 0.0
C868 C 0.91249 0.81296 0.11491 0.0
C869 C 0.93391 0.82219 0.1197 0.0
C870 C 0.94624 0.81806 0.14732 0.0
C871 C 0.96857 0.83063 0.14685 0.0
C872 C 0.96984 0.84794 0.17442 0.0
C873 C 0.98863 0.81403 0.14792 0.0
C874 C 0.96695 0.84227 0.11449 0.0
C875 C 0.94693 0.83693 0.09907 0.0
C876 C 0.9422 0.84444 0.06803 0.0
C877 C 0.95841 0.85776 0.05232 0.0
C878 C 0.97875 0.86377 0.06797 0.0
C879 C 0.98303 0.85608 0.09949 0.0
H880 H 0.55639 0.67511 0.93568 0.0
H881 H 0.50099 0.65758 0.87238 0.0
H882 H 0.52539 0.6652 0.82492 0.0
H883 H 0.57506 0.72121 0.89259 0.0
H884 H 0.60478 0.71681 0.90008 0.0
H885 H 0.5842 0.70645 0.92828 0.0
H886 H 0.60092 0.66594 0.92299 0.0
H887 H 0.62154 0.67623 0.89455 0.0
H888 H 0.60317 0.65308 0.8838 0.0
H889 H 0.55435 0.67873 0.78531 0.0
H890 H 0.58445 0.6993 0.75643 0.0
H891 H 0.62078 0.70843 0.84616 0.0
C892 C 0.54971 0.67239 0.91173 0.0
C893 C 0.52716 0.66555 0.90718 0.0
C894 C 0.51846 0.66256 0.87588 0.0
C895 C 0.53219 0.66675 0.84898 0.0
C896 C 0.55445 0.67373 0.85415 0.0
C897 C 0.56315 0.67651 0.88478 0.0
C898 C 0.58672 0.6864 0.88397 0.0
C899 C 0.58772 0.70906 0.90229 0.0
C900 C 0.60412 0.6694 0.89711 0.0
C901 C 0.5896 0.68976 0.84818 0.0
C902 C 0.57103 0.68187 0.83132 0.0
C903 C 0.56911 0.68464 0.79818 0.0
C904 C 0.58629 0.69638 0.78201 0.0
C905 C 0.60492 0.70546 0.79912 0.0
C906 C 0.60688 0.70144 0.83241 0.0
H907 H 0.57248 0.28636 0.13099 0.0
H908 H 0.60281 0.3366 0.19347 0.0
H909 H 0.5863 0.36727 0.16011 0.0
H910 H 0.58246 0.31786 0.05637 0.0
H911 H 0.5564 0.30832 0.03843 0.0
H912 H 0.57089 0.29063 0.06712 0.0
H913 H 0.53455 0.28866 0.10202 0.0
H914 H 0.51997 0.30628 0.07344 0.0
H915 H 0.52129 0.31459 0.11509 0.0
H916 H 0.56231 0.39197 0.12335 0.0
H917 H 0.53656 0.40869 0.08263 0.0
H918 H 0.52708 0.34213 0.04074 0.0
C919 C 0.57572 0.30385 0.13741 0.0
C920 C 0.58865 0.30933 0.1647 0.0
C921 C 0.59288 0.33226 0.17245 0.0
C922 C 0.58358 0.34971 0.15374 0.0
C923 C 0.57069 0.34378 0.12698 0.0
C924 C 0.56719 0.32139 0.11847 0.0
C925 C 0.553 0.31946 0.08843 0.0
C926 C 0.5665 0.30842 0.06096 0.0
C927 C 0.5309 0.30649 0.09517 0.0
C928 C 0.54855 0.34423 0.08181 0.0
C929 C 0.55861 0.35804 0.10446 0.0
C930 C 0.55481 0.38138 0.105 0.0
C931 C 0.54018 0.39072 0.08189 0.0
C932 C 0.53002 0.37677 0.0583 0.0
C933 C 0.53476 0.35337 0.05799 0.0
H934 H 0.87762 0.2891 0.34814 0.0
H935 H 0.91033 0.31789 0.26433 0.0
H936 H 0.93032 0.34533 0.29891 0.0
H937 H 0.87583 0.34333 0.39892 0.0
H938 H 0.88238 0.32748 0.43479 0.0
H939 H 0.86587 0.31463 0.40322 0.0
H940 H 0.89419 0.2816 0.40123 0.0
H941 H 0.91149 0.29425 0.43168 0.0
H942 H 0.92369 0.28712 0.39322 0.0
H943 H 0.95145 0.3647 0.34202 0.0
H944 H 0.97406 0.37265 0.39086 0.0
H945 H 0.92958 0.32981 0.44686 0.0
C946 C 0.88821 0.3019 0.33711 0.0
C947 C 0.8922 0.30185 0.30372 0.0
C948 C 0.90694 0.318 0.28995 0.0
C949 C 0.91821 0.33371 0.30935 0.0
C950 C 0.9146 0.3329 0.34244 0.0
C951 C 0.89994 0.3174 0.35628 0.0
C952 C 0.90203 0.31738 0.39255 0.0
C953 C 0.88023 0.32624 0.4083 0.0
C954 C 0.90826 0.29369 0.40538 0.0
C955 C 0.92122 0.33405 0.39673 0.0
C956 C 0.92762 0.34349 0.36766 0.0
C957 C 0.94625 0.35789 0.36504 0.0
C958 C 0.95897 0.36232 0.39273 0.0
C959 C 0.95311 0.35206 0.42222 0.0
C960 C 0.93386 0.33817 0.42446 0.0
H961 H 0.92344 0.72712 0.64087 0.0
H962 H 0.88768 0.67756 0.69866 0.0
H963 H 0.89986 0.64725 0.66154 0.0
H964 H 0.91186 0.69854 0.56076 0.0
H965 H 0.93933 0.70657 0.54575 0.0
H966 H 0.92473 0.72461 0.57394 0.0
H967 H 0.95957 0.72325 0.61174 0.0
H968 H 0.97413 0.70504 0.58399 0.0
H969 H 0.97017 0.69618 0.62509 0.0
H970 H 0.9233 0.62198 0.62614 0.0
H971 H 0.95121 0.60425 0.58941 0.0
H972 H 0.9674 0.67043 0.55061 0.0
C973 C 0.91755 0.70999 0.64498 0.0
C974 C 0.90464 0.70458 0.67243 0.0
C975 C 0.89737 0.68202 0.67745 0.0
C976 C 0.90426 0.6647 0.65658 0.0
C977 C 0.91781 0.67042 0.63038 0.0
C978 C 0.92377 0.69263 0.62393 0.0
C979 C 0.93953 0.69414 0.59535 0.0
C980 C 0.92817 0.7067 0.56728 0.0
C981 C 0.96217 0.7053 0.60462 0.0
C982 C 0.94249 0.66925 0.58788 0.0
C983 C 0.92993 0.65579 0.60839 0.0
C984 C 0.93257 0.6323 0.60913 0.0
C985 C 0.94852 0.62239 0.5884 0.0
C986 C 0.96119 0.63596 0.56694 0.0
C987 C 0.95766 0.65956 0.56622 0.0
H988 H 0.5125 0.31324 0.60668 0.0
H989 H 0.56168 0.35581 0.55827 0.0
H990 H 0.58883 0.34933 0.60243 0.0
H991 H 0.5279 0.33151 0.68983 0.0
H992 H 0.52364 0.30359 0.70634 0.0
H993 H 0.50697 0.31292 0.67265 0.0
H994 H 0.51955 0.2782 0.63943 0.0
H995 H 0.53609 0.26826 0.67284 0.0
H996 H 0.54929 0.27255 0.63422 0.0
H997 H 0.61258 0.33261 0.64622 0.0
H998 H 0.62984 0.31001 0.68995 0.0
H999 H 0.56375 0.28305 0.71407 0.0
C1000 C 0.52882 0.32155 0.60581 0.0
C1001 C 0.53509 0.33496 0.57919 0.0
C1002 C 0.55656 0.34557 0.57864 0.0
C1003 C 0.57207 0.342 0.60357 0.0
C1004 C 0.56556 0.32833 0.62924 0.0
C1005 C 0.54426 0.3187 0.63094 0.0
C1006 C 0.54186 0.30395 0.66051 0.0
C1007 C 0.52404 0.31359 0.6837 0.0
C1008 C 0.53639 0.27929 0.65119 0.0
C1009 C 0.56541 0.30606 0.67437 0.0
C1010 C 0.57889 0.32008 0.65591 0.0
C1011 C 0.60205 0.32216 0.6615 0.0
C1012 C 0.61171 0.30927 0.68628 0.0
C1013 C 0.59811 0.29492 0.70548 0.0
C1014 C 0.57458 0.294 0.7001 0.0
H1015 H 0.97252 0.31071 0.9542 0.0
H1016 H 0.94521 0.3776 0.93512 0.0
H1017 H 0.91872 0.3611 0.89567 0.0
H1018 H 0.97524 0.29572 0.87368 0.0
H1019 H 0.96873 0.26615 0.87936 0.0
H1020 H 0.98212 0.28192 0.91109 0.0
H1021 H 0.94993 0.27103 0.95046 0.0
H1022 H 0.93655 0.25485 0.91903 0.0
H1023 H 0.92095 0.27674 0.93961 0.0
H1024 H 0.89787 0.3383 0.85548 0.0
H1025 H 0.88477 0.31098 0.81486 0.0
H1026 H 0.92895 0.25957 0.85533 0.0
C1027 C 0.96069 0.32183 0.94223 0.0
C1028 C 0.96084 0.34542 0.94765 0.0
C1029 C 0.94523 0.35944 0.9313 0.0
C1030 C 0.93014 0.35023 0.90893 0.0
C1031 C 0.93121 0.32705 0.90293 0.0
C1032 C 0.94614 0.31302 0.91895 0.0
C1033 C 0.94599 0.28931 0.90498 0.0
C1034 C 0.9694 0.28292 0.89147 0.0
C1035 C 0.93786 0.27196 0.93002 0.0
C1036 C 0.92882 0.29232 0.87834 0.0
C1037 C 0.9202 0.3141 0.87809 0.0
C1038 C 0.90435 0.32116 0.85552 0.0
C1039 C 0.89705 0.30552 0.83256 0.0
C1040 C 0.90592 0.28321 0.83198 0.0
C1041 C 0.92202 0.27655 0.85517 0.0
H1042 H 0.95289 0.68697 0.0565 0.0
H1043 H 0.96283 0.62503 0.11078 0.0
H1044 H 0.93849 0.64005 0.15433 0.0
H1045 H 0.95147 0.72581 0.12337 0.0
H1046 H 0.92938 0.7431 0.10635 0.0
H1047 H 0.94848 0.72795 0.08032 0.0
H1048 H 0.91442 0.70855 0.05235 0.0
H1049 H 0.89522 0.72364 0.07829 0.0
H1050 H 0.89414 0.69316 0.07628 0.0
H1051 H 0.91465 0.66283 0.19303 0.0
H1052 H 0.88962 0.69005 0.22143 0.0
H1053 H 0.89222 0.73502 0.13913 0.0
C1054 C 0.95003 0.67667 0.07767 0.0
C1055 C 0.9598 0.65496 0.08056 0.0
C1056 C 0.95541 0.64171 0.10824 0.0
C1057 C 0.94172 0.65013 0.13308 0.0
C1058 C 0.93226 0.67161 0.12948 0.0
C1059 C 0.93598 0.68457 0.10227 0.0
C1060 C 0.92291 0.7066 0.10357 0.0
C1061 C 0.93902 0.72707 0.1034 0.0
C1062 C 0.90565 0.70806 0.07599 0.0
C1063 C 0.9113 0.70402 0.13578 0.0
C1064 C 0.91722 0.68393 0.15064 0.0
C1065 C 0.9096 0.67845 0.18143 0.0
C1066 C 0.89546 0.69392 0.19734 0.0
C1067 C 0.88873 0.71418 0.182 0.0
C1068 C 0.8967 0.71927 0.15089 0.0
H1069 H 0.57337 0.7183 0.36813 0.0
H1070 H 0.6154 0.67179 0.31397 0.0
H1071 H 0.61142 0.64322 0.35708 0.0
H1072 H 0.59429 0.69905 0.45097 0.0
H1073 H 0.56652 0.70312 0.46798 0.0
H1074 H 0.57619 0.7212 0.43581 0.0
H1075 H 0.54071 0.71072 0.40236 0.0
H1076 H 0.531 0.69274 0.43425 0.0
H1077 H 0.53471 0.68132 0.39438 0.0
H1078 H 0.59463 0.61732 0.39761 0.0
H1079 H 0.56941 0.59732 0.43559 0.0
H1080 H 0.54366 0.66169 0.4693 0.0
C1081 C 0.58226 0.70232 0.36596 0.0
C1082 C 0.5946 0.69706 0.33793 0.0
C1083 C 0.60599 0.67607 0.33551 0.0
C1084 C 0.60388 0.65981 0.35987 0.0
C1085 C 0.59099 0.66521 0.38691 0.0
C1086 C 0.5809 0.68621 0.39054 0.0
C1087 C 0.56645 0.68709 0.42055 0.0
C1088 C 0.57647 0.70359 0.4453 0.0
C1089 C 0.54177 0.6933 0.41238 0.0
C1090 C 0.56855 0.6628 0.43186 0.0
C1091 C 0.5829 0.65046 0.41223 0.0
C1092 C 0.58415 0.6269 0.41406 0.0
C1093 C 0.56979 0.61567 0.43566 0.0
C1094 C 0.55485 0.62804 0.45557 0.0
C1095 C 0.55518 0.65188 0.45481 0.0
H1096 H 0.44232 0.31087 0.05717 0.0
H1097 H 0.45562 0.37481 0.10476 0.0
H1098 H 0.43007 0.36381 0.14927 0.0
H1099 H 0.38181 0.30931 0.08 0.0
H1100 H 0.38163 0.27895 0.0845 0.0
H1101 H 0.40043 0.29207 0.05587 0.0
H1102 H 0.4352 0.27265 0.08279 0.0
H1103 H 0.41584 0.25902 0.10985 0.0
H1104 H 0.43905 0.27543 0.12565 0.0
H1105 H 0.40718 0.34406 0.19098 0.0
H1106 H 0.38599 0.31766 0.22608 0.0
H1107 H 0.38395 0.26829 0.14911 0.0
C1108 C 0.43974 0.32249 0.07701 0.0
C1109 C 0.45095 0.34354 0.07799 0.0
C1110 C 0.44707 0.3586 0.10384 0.0
C1111 C 0.43261 0.35252 0.12908 0.0
C1112 C 0.42175 0.33162 0.12749 0.0
C1113 C 0.42482 0.31697 0.10192 0.0
C1114 C 0.41102 0.29559 0.10609 0.0
C1115 C 0.39263 0.29389 0.08007 0.0
C1116 C 0.42623 0.27444 0.10614 0.0
C1117 C 0.40072 0.29994 0.13888 0.0
C1118 C 0.40705 0.32092 0.15068 0.0
C1119 C 0.40156 0.32789 0.18173 0.0
C1120 C 0.38956 0.31287 0.20144 0.0
C1121 C 0.38291 0.29145 0.18973 0.0
C1122 C 0.38817 0.28502 0.15797 0.0
H1123 H 0.44143 0.638 0.90692 0.0
H1124 H 0.44934 0.68861 0.98174 0.0
H1125 H 0.42965 0.7166 0.9478 0.0
H1126 H 0.45345 0.67275 0.84352 0.0
H1127 H 0.43325 0.66086 0.81579 0.0
H1128 H 0.44447 0.64372 0.84776 0.0
H1129 H 0.40389 0.63514 0.86795 0.0
H1130 H 0.39244 0.65213 0.8358 0.0
H1131 H 0.38494 0.65824 0.87693 0.0
H1132 H 0.41582 0.74055 0.9027 0.0
H1133 H 0.406 0.75805 0.85036 0.0
H1134 H 0.40467 0.69186 0.80584 0.0
C1135 C 0.43838 0.65477 0.91656 0.0
C1136 C 0.44689 0.66115 0.94695 0.0
C1137 C 0.44294 0.68336 0.95852 0.0
C1138 C 0.43171 0.69936 0.93946 0.0
C1139 C 0.42423 0.69277 0.90912 0.0
C1140 C 0.42708 0.67091 0.8979 0.0
C1141 C 0.41924 0.66872 0.86337 0.0
C1142 C 0.43877 0.66108 0.84133 0.0
C1143 C 0.39891 0.6526 0.86088 0.0
C1144 C 0.41236 0.69295 0.85655 0.0
C1145 C 0.41529 0.70655 0.88333 0.0
C1146 C 0.41273 0.73 0.88188 0.0
C1147 C 0.40723 0.73982 0.85222 0.0
C1148 C 0.40404 0.72616 0.82475 0.0
C1149 C 0.40624 0.70246 0.82699 0.0
H1150 H 0.08131 0.72745 0.70795 0.0
H1151 H 0.14699 0.70933 0.66919 0.0
H1152 H 0.12851 0.68267 0.63158 0.0
H1153 H 0.05102 0.67355 0.69548 0.0
H1154 H 0.02566 0.68774 0.68228 0.0
H1155 H 0.04411 0.70123 0.71097 0.0
H1156 H 0.04725 0.73629 0.67355 0.0
H1157 H 0.02892 0.72285 0.64482 0.0
H1158 H 0.05654 0.73248 0.63257 0.0
H1159 H 0.10293 0.66065 0.5956 0.0
H1160 H 0.07226 0.64739 0.56005 0.0
H1161 H 0.02327 0.68472 0.61694 0.0
C1162 C 0.09188 0.71762 0.69205 0.0
C1163 C 0.11559 0.72033 0.69153 0.0
C1164 C 0.12878 0.70728 0.67005 0.0
C1165 C 0.11845 0.69212 0.6487 0.0
C1166 C 0.09491 0.69066 0.64877 0.0
C1167 C 0.08176 0.70327 0.66963 0.0
C1168 C 0.05685 0.70138 0.66151 0.0
C1169 C 0.04364 0.69031 0.68921 0.0
C1170 C 0.04682 0.72463 0.65259 0.0
C1171 C 0.05806 0.68594 0.63256 0.0
C1172 C 0.08012 0.67948 0.62619 0.0
C1173 C 0.0856 0.6655 0.6004 0.0
C1174 C 0.06809 0.65808 0.5804 0.0
C1175 C 0.04552 0.66516 0.58583 0.0
C1176 C 0.04044 0.67918 0.6123 0.0
H1177 H 0.03311 0.33121 0.46142 0.0
H1178 H 0.03631 0.39792 0.41778 0.0
H1179 H 0.05447 0.38139 0.36967 0.0
H1180 H 0.08621 0.30927 0.42823 0.0
H1181 H 0.07474 0.28135 0.42209 0.0
H1182 H 0.06425 0.29875 0.4544 0.0
H1183 H 0.02326 0.29481 0.43259 0.0
H1184 H 0.03375 0.27706 0.40081 0.0
H1185 H 0.0175 0.30202 0.39125 0.0
H1186 H 0.07073 0.35725 0.32535 0.0
H1187 H 0.08366 0.32707 0.28809 0.0
H1188 H 0.06767 0.27637 0.35979 0.0
C1189 C 0.03795 0.34242 0.44201 0.0
C1190 C 0.03333 0.36584 0.44332 0.0
C1191 C 0.03978 0.37991 0.41728 0.0
C1192 C 0.05007 0.37069 0.38986 0.0
C1193 C 0.05368 0.34739 0.38889 0.0
C1194 C 0.0479 0.33346 0.41433 0.0
C1195 C 0.05237 0.30883 0.40659 0.0
C1196 C 0.07047 0.29898 0.42917 0.0
C1197 C 0.0304 0.29487 0.40786 0.0
C1198 C 0.06115 0.31103 0.37256 0.0
C1199 C 0.06209 0.33343 0.36293 0.0
C1200 C 0.06999 0.33966 0.33258 0.0
C1201 C 0.0772 0.3225 0.3116 0.0
C1202 C 0.07601 0.29953 0.32098 0.0
C1203 C 0.06798 0.29376 0.35178 0.0
H1204 H 0.45588 0.68436 0.45371 0.0
H1205 H 0.50217 0.64788 0.39168 0.0
H1206 H 0.48372 0.66465 0.34372 0.0
H1207 H 0.40736 0.67555 0.40479 0.0
H1208 H 0.39494 0.70285 0.41289 0.0
H1209 H 0.41309 0.68976 0.44228 0.0
H1210 H 0.43879 0.72536 0.44247 0.0
H1211 H 0.42064 0.7386 0.41317 0.0
H1212 H 0.45044 0.73557 0.40508 0.0
H1213 H 0.46037 0.68553 0.30297 0.0
H1214 H 0.43178 0.70686 0.27172 0.0
H1215 H 0.39863 0.7268 0.3604 0.0
C1216 C 0.4622 0.68022 0.42996 0.0
C1217 C 0.48044 0.66517 0.42594 0.0
C1218 C 0.48818 0.65954 0.3948 0.0
C1219 C 0.47788 0.669 0.3676 0.0
C1220 C 0.45969 0.68367 0.3722 0.0
C1221 C 0.45176 0.6891 0.40257 0.0
C1222 C 0.431 0.70405 0.40078 0.0
C1223 C 0.41038 0.69234 0.41609 0.0
C1224 C 0.4355 0.72727 0.41629 0.0
C1225 C 0.42843 0.70606 0.36472 0.0
C1226 C 0.44537 0.69451 0.34867 0.0
C1227 C 0.44692 0.69449 0.31523 0.0
C1228 C 0.43066 0.70659 0.29772 0.0
C1229 C 0.41293 0.71805 0.31376 0.0
C1230 C 0.4118 0.71775 0.34762 0.0
H1231 H 0.03098 0.65675 0.04531 0.0
H1232 H 0.05448 0.59099 0.07732 0.0
H1233 H 0.08203 0.60962 0.11345 0.0
H1234 H 0.08473 0.68927 0.05418 0.0
H1235 H 0.07005 0.71358 0.07013 0.0
H1236 H 0.05621 0.69536 0.04146 0.0
H1237 H 0.02301 0.68963 0.08139 0.0
H1238 H 0.03679 0.7076 0.11024 0.0
H1239 H 0.0288 0.67918 0.12129 0.0
H1240 H 0.10401 0.63503 0.14944 0.0
H1241 H 0.11653 0.66498 0.18671 0.0
H1242 H 0.07519 0.71397 0.1356 0.0
C1243 C 0.0424 0.64631 0.05916 0.0
C1244 C 0.04101 0.62251 0.0583 0.0
C1245 C 0.05564 0.6093 0.07753 0.0
C1246 C 0.07133 0.61973 0.09794 0.0
C1247 C 0.07176 0.64332 0.09915 0.0
C1248 C 0.05753 0.65646 0.08048 0.0
C1249 C 0.05868 0.68118 0.09 0.0
C1250 C 0.06798 0.6957 0.06229 0.0
C1251 C 0.03545 0.68989 0.10142 0.0
C1252 C 0.07537 0.67979 0.11747 0.0
C1253 C 0.08318 0.65792 0.12172 0.0
C1254 C 0.09818 0.65226 0.14622 0.0
C1255 C 0.10516 0.66937 0.16725 0.0
C1256 C 0.09671 0.6917 0.16403 0.0
C1257 C 0.08183 0.697 0.13861 0.0
H1258 H 0.12071 0.29538 0.81216 0.0
H1259 H 0.0701 0.29273 0.73672 0.0
H1260 H 0.04362 0.3141 0.77117 0.0
H1261 H 0.08485 0.2848 0.87467 0.0
H1262 H 0.09828 0.30337 0.90329 0.0
H1263 H 0.1145 0.29148 0.87087 0.0
H1264 H 0.12638 0.33177 0.8527 0.0
H1265 H 0.11017 0.34385 0.88521 0.0
H1266 H 0.10493 0.35269 0.84439 0.0
H1267 H 0.02069 0.32905 0.8167 0.0
H1268 H 0.00358 0.33807 0.86955 0.0
H1269 H 0.06938 0.3331 0.91456 0.0
C1270 C 0.10429 0.29987 0.80254 0.0
C1271 C 0.09744 0.29244 0.77179 0.0
C1272 C 0.0757 0.29832 0.7602 0.0
C1273 C 0.06058 0.31052 0.77954 0.0
C1274 C 0.06761 0.31701 0.81017 0.0
C1275 C 0.08906 0.31213 0.82147 0.0
C1276 C 0.0917 0.31901 0.85632 0.0
C1277 C 0.09767 0.29844 0.87752 0.0
C1278 C 0.10934 0.33796 0.85985 0.0
C1279 C 0.06811 0.32765 0.86329 0.0
C1280 C 0.0545 0.32654 0.83625 0.0
C1281 C 0.03131 0.33078 0.83774 0.0
C1282 C 0.02174 0.33589 0.86771 0.0
C1283 C 0.03543 0.33698 0.89549 0.0
C1284 C 0.05889 0.3333 0.89321 0.0
H1285 H 0.46043 0.36217 0.58365 0.0
H1286 H 0.44835 0.31838 0.50163 0.0
H1287 H 0.42994 0.29046 0.53711 0.0
H1288 H 0.47557 0.31961 0.63605 0.0
H1289 H 0.46255 0.33146 0.67147 0.0
H1290 H 0.47176 0.34981 0.63944 0.0
H1291 H 0.43136 0.36663 0.63429 0.0
H1292 H 0.42209 0.34874 0.66686 0.0
H1293 H 0.40763 0.34787 0.62872 0.0
H1294 H 0.41744 0.26538 0.58167 0.0
H1295 H 0.40768 0.24632 0.63306 0.0
H1296 H 0.42743 0.30606 0.68606 0.0
C1297 C 0.45316 0.34709 0.57303 0.0
C1298 C 0.45563 0.34244 0.53993 0.0
C1299 C 0.4465 0.32226 0.52696 0.0
C1300 C 0.43606 0.30629 0.5469 0.0
C1301 C 0.4348 0.31088 0.57967 0.0
C1302 C 0.44271 0.33093 0.59264 0.0
C1303 C 0.44065 0.33092 0.62896 0.0
C1304 C 0.46402 0.3331 0.64493 0.0
C1305 C 0.42446 0.34965 0.64037 0.0
C1306 C 0.4307 0.30761 0.63434 0.0
C1307 C 0.42754 0.29632 0.60555 0.0
C1308 C 0.41963 0.27411 0.60434 0.0
C1309 C 0.41445 0.26331 0.63337 0.0
C1310 C 0.41724 0.27469 0.66287 0.0
C1311 C 0.42536 0.2971 0.66352 0.0
H1312 H 0.29391 0.21988 0.24378 0.0
H1313 H 0.31506 0.27268 0.30988 0.0
H1314 H 0.27519 0.28227 0.32036 0.0
H1315 H 0.25039 0.24986 0.20827 0.0
H1316 H 0.23096 0.22651 0.2043 0.0
H1317 H 0.26096 0.2213 0.20503 0.0
H1318 H 0.25612 0.19377 0.25307 0.0
H1319 H 0.226 0.19852 0.2521 0.0
H1320 H 0.24157 0.20324 0.28875 0.0
H1321 H 0.23396 0.28967 0.31819 0.0
H1322 H 0.19286 0.29145 0.30857 0.0
H1323 H 0.19781 0.23345 0.24473 0.0
C1324 C 0.29011 0.23293 0.26126 0.0
C1325 C 0.30755 0.24549 0.27611 0.0
C1326 C 0.30194 0.26281 0.2983 0.0
C1327 C 0.27935 0.26842 0.30438 0.0
C1328 C 0.26257 0.25644 0.28826 0.0
C1329 C 0.26757 0.23877 0.26762 0.0
C1330 C 0.2463 0.22953 0.25207 0.0
C1331 C 0.24722 0.23196 0.21524 0.0
C1332 C 0.24226 0.2048 0.26211 0.0
C1333 C 0.22871 0.24518 0.26658 0.0
C1334 C 0.23851 0.26055 0.28737 0.0
C1335 C 0.22599 0.2775 0.30239 0.0
C1336 C 0.2027 0.27848 0.29654 0.0
C1337 C 0.19217 0.26256 0.27597 0.0
C1338 C 0.2054 0.24576 0.26072 0.0
H1339 H 0.95524 0.94988 0.50922 0.0
H1340 H 0.00458 0.92862 0.4379 0.0
H1341 H 0.01729 0.96819 0.43199 0.0
H1342 H 0.94149 0.00488 0.47168 0.0
H1343 H 0.9386 0.01875 0.51008 0.0
H1344 H 0.93215 0.98905 0.50632 0.0
H1345 H 0.96057 0.98034 0.55213 0.0
H1346 H 0.96757 0.00993 0.55545 0.0
H1347 H 0.98957 0.9894 0.54819 0.0
H1348 H 0.02701 0.00919 0.43745 0.0
H1349 H 0.02949 0.05018 0.44802 0.0
H1350 H 0.97376 0.04493 0.51574 0.0
C1351 C 0.96829 0.95362 0.49171 0.0
C1352 C 0.97889 0.93618 0.47394 0.0
C1353 C 0.99614 0.94173 0.45164 0.0
C1354 C 0.00359 0.96413 0.44827 0.0
C1355 C 0.99351 0.98075 0.46725 0.0
C1356 C 0.97594 0.97588 0.48806 0.0
C1357 C 0.96838 0.99683 0.50618 0.0
C1358 C 0.94369 0.00273 0.49807 0.0
C1359 C 0.97173 0.99394 0.54264 0.0
C1360 C 0.98462 0.01418 0.49253 0.0
C1361 C -0.00096 0.00449 0.47027 0.0
C1362 C 0.01568 0.01702 0.45462 0.0
C1363 C 0.01705 0.04027 0.46098 0.0
C1364 C 0.00182 0.05076 0.48272 0.0
C1365 C 0.98573 0.03739 0.49918 0.0
H1366 H 0.29595 0.72579 0.74902 0.0
H1367 H 0.31497 0.77495 0.6761 0.0
H1368 H 0.27632 0.79036 0.67666 0.0
H1369 H 0.23761 0.71652 0.71789 0.0
H1370 H 0.2261 0.71334 0.7578 0.0
H1371 H 0.25488 0.70506 0.74971 0.0
H1372 H 0.26831 0.73138 0.79574 0.0
H1373 H 0.23966 0.74031 0.80328 0.0
H1374 H 0.26117 0.76106 0.79458 0.0
H1375 H 0.23767 0.80365 0.68983 0.0
H1376 H 0.19784 0.80861 0.70531 0.0
H1377 H 0.20247 0.74973 0.7677 0.0
C1378 C 0.2918 0.73933 0.73247 0.0
C1379 C 0.30854 0.74922 0.71261 0.0
C1380 C 0.30247 0.76706 0.69151 0.0
C1381 C 0.28059 0.77609 0.69184 0.0
C1382 C 0.26488 0.76685 0.71302 0.0
C1383 C 0.26989 0.74842 0.7322 0.0
C1384 C 0.24966 0.74174 0.75261 0.0
C1385 C 0.24158 0.71775 0.74397 0.0
C1386 C 0.25504 0.74375 0.78869 0.0
C1387 C 0.23269 0.75956 0.74221 0.0
C1388 C 0.24202 0.77404 0.71972 0.0
C1389 C 0.23002 0.79222 0.70703 0.0
C1390 C 0.20743 0.79501 0.71626 0.0
C1391 C 0.19696 0.77949 0.73761 0.0
C1392 C 0.21 0.76192 0.75145 0.0
H1393 H 0.48179 0.04163 0.98847 0.0
H1394 H 0.54396 0.04287 0.04397 0.0
H1395 H 0.54184 0.00132 0.05053 0.0
H1396 H 0.45358 -0.00035 0.03427 0.0
H1397 H 0.44046 0.9862 0.00013 0.0
H1398 H 0.44723 0.01592 -0.0013 0.0
H1399 H 0.47103 0.00975 0.94701 0.0
H1400 H 0.46392 0.9801 0.94789 0.0
H1401 H 0.49316 0.98872 0.94697 0.0
H1402 H 0.53196 0.95973 0.05282 0.0
H1403 H 0.51761 0.9208 0.04499 0.0
H1404 H 0.46197 0.94726 0.98814 0.0
C1405 C 0.49514 0.03315 0.00163 0.0
C1406 C 0.51305 0.04546 0.01568 0.0
C1407 C 0.53014 0.03374 0.03283 0.0
C1408 C 0.529 0.01018 0.0369 0.0
C1409 C 0.51071 0.99865 0.02357 0.0
C1410 C 0.49429 0.0097 0.00586 0.0
C1411 C 0.47652 0.9934 0.99371 0.0
C1412 C 0.45306 -0.00086 0.00754 0.0
C1413 C 0.47615 0.99297 0.9567 0.0
C1414 C 0.48546 0.97143 0.0074 0.0
C1415 C 0.5051 0.9748 0.02477 0.0
C1416 C 0.51661 0.95689 0.03924 0.0
C1417 C 0.50824 0.93486 0.03486 0.0
C1418 C 0.48865 0.93101 0.01604 0.0
C1419 C 0.47689 0.94965 0.00286 0.0
H1420 H 0.20528 0.75051 0.27741 0.0
H1421 H 0.20463 0.68396 0.233 0.0
H1422 H 0.24631 0.68425 0.23083 0.0
H1423 H 0.24839 0.7733 0.23131 0.0
H1424 H 0.26154 0.78927 0.26315 0.0
H1425 H 0.23178 0.78298 0.265 0.0
H1426 H 0.23694 0.76386 0.32063 0.0
H1427 H 0.26666 0.77056 0.31934 0.0
H1428 H 0.25767 0.74169 0.32528 0.0
H1429 H 0.28749 0.69363 0.22757 0.0
H1430 H 0.32613 0.7094 0.23003 0.0
H1431 H 0.29998 0.76958 0.27723 0.0
C1432 C 0.21391 0.73572 0.26808 0.0
C1433 C 0.20173 0.7172 0.25541 0.0
C1434 C 0.21363 0.6983 0.24298 0.0
C1435 C 0.2373 0.69833 0.2415 0.0
C1436 C 0.24877 0.7173 0.25286 0.0
C1437 C 0.23754 0.73545 0.26652 0.0
C1438 C 0.25384 0.75409 0.27583 0.0
C1439 C 0.24856 0.77621 0.25773 0.0
C1440 C 0.25377 0.75776 0.31245 0.0
C1441 C 0.2759 0.7438 0.26456 0.0
C1442 C 0.2726 0.72259 0.25134 0.0
C1443 C 0.29036 0.71009 0.23826 0.0
C1444 C 0.31219 0.71928 0.23952 0.0
C1445 C 0.31603 0.74069 0.25385 0.0
C1446 C 0.29757 0.75315 0.26618 0.0
H1447 H 0.49525 0.94916 0.52862 0.0
H1448 H 0.55369 0.94138 0.46628 0.0
H1449 H 0.5532 0.98253 0.45524 0.0
H1450 H 0.46646 0.98837 0.48027 0.0
H1451 H 0.45529 0.00478 0.51321 0.0
H1452 H 0.46137 0.97514 0.51868 0.0
H1453 H 0.48774 0.98436 0.56674 0.0
H1454 H 0.48126 0.01397 0.56196 0.0
H1455 H 0.51028 0.00459 0.5615 0.0
H1456 H 0.54492 0.02424 0.44884 0.0
H1457 H 0.53185 0.06396 0.45191 0.0
H1458 H 0.47801 0.04361 0.51683 0.0
C1459 C 0.50831 0.95615 0.51327 0.0
C1460 C 0.52461 0.94211 0.49847 0.0
C1461 C 0.54116 0.95188 0.47809 0.0
C1462 C 0.54091 0.97519 0.47149 0.0
C1463 C 0.52399 0.98839 0.48543 0.0
C1464 C 0.50818 0.97927 0.50623 0.0
C1465 C 0.49139 0.99693 0.51741 0.0
C1466 C 0.4672 0.99093 0.50674 0.0
C1467 C 0.49276 0.00016 0.55407 0.0
C1468 C 0.50018 0.01744 0.49961 0.0
C1469 C 0.51896 0.01219 0.48123 0.0
C1470 C 0.53024 0.02855 0.46317 0.0
C1471 C 0.52261 0.05102 0.46489 0.0
C1472 C 0.50385 0.05683 0.48444 0.0
C1473 C 0.49221 0.03967 0.50132 0.0
H1474 H 0.20075 0.22631 0.74743 0.0
H1475 H 0.1852 0.28366 0.68581 0.0
H1476 H 0.22511 0.29561 0.68787 0.0
H1477 H 0.24043 0.25476 0.79796 0.0
H1478 H 0.2593 0.2309 0.80158 0.0
H1479 H 0.22953 0.22632 0.79499 0.0
H1480 H 0.23833 0.2024 0.74422 0.0
H1481 H 0.26812 0.2065 0.75107 0.0
H1482 H 0.25585 0.21425 0.71294 0.0
H1483 H 0.26611 0.3022 0.69804 0.0
H1484 H 0.30695 0.3001 0.70955 0.0
H1485 H 0.29614 0.2383 0.76411 0.0
C1486 C 0.20581 0.24119 0.73398 0.0
C1487 C 0.18988 0.25404 0.71643 0.0
C1488 C 0.19713 0.2735 0.69933 0.0
C1489 C 0.21972 0.28053 0.70055 0.0
C1490 C 0.23484 0.2679 0.71888 0.0
C1491 C 0.22833 0.24844 0.73487 0.0
C1492 C 0.24811 0.23774 0.75233 0.0
C1493 C 0.24409 0.23742 0.78888 0.0
C1494 C 0.25289 0.21381 0.73935 0.0
C1495 C 0.26677 0.25414 0.74341 0.0
C1496 C 0.25866 0.27157 0.72446 0.0
C1497 C 0.2727 0.28862 0.7128 0.0
C1498 C 0.29586 0.28734 0.71962 0.0
C1499 C 0.30472 0.26904 0.73772 0.0
C1500 C 0.28985 0.25259 0.75044 0.0
H1501 H 0.97988 0.05142 0.99304 0.0
H1502 H 0.03926 0.07791 0.04146 0.0
H1503 H 0.05249 0.03888 0.05165 0.0
H1504 H 0.97235 0.00085 0.0445 0.0
H1505 H 0.96368 0.9836 0.01093 0.0
H1506 H 0.9578 0.01355 0.01092 0.0
H1507 H 0.97841 0.01734 0.95614 0.0
H1508 H 0.98476 0.98753 0.95627 0.0
H1509 H 0.00731 0.0079 0.95254 0.0
H1510 H 0.06097 0.99702 0.05204 0.0
H1511 H 0.06242 0.95532 0.04638 0.0
H1512 H 0.99775 0.95668 0.99698 0.0
C1513 C 0.99535 0.04903 0.00656 0.0
C1514 C 0.00849 0.06768 0.01661 0.0
C1515 C 0.02886 0.06384 0.03369 0.0
C1516 C 0.03656 0.04174 0.03951 0.0
C1517 C 0.02364 0.02372 0.02816 0.0
C1518 C 0.00331 0.02712 0.01242 0.0
C1519 C 0.99321 0.00495 0.00121 0.0
C1520 C 0.97041 0.00048 0.0179 0.0
C1521 C 0.99079 0.00441 0.96436 0.0
C1522 C 0.01121 0.9886 0.01259 0.0
C1523 C 0.0286 -0.0003 0.02817 0.0
C1524 C 0.04735 0.98811 0.04013 0.0
C1525 C 0.04811 0.96447 0.03661 0.0
C1526 C 0.03024 0.95278 0.0212 0.0
C1527 C 0.0117 0.96512 0.00885 0.0
H1528 H 0.79866 0.71438 0.74999 0.0
H1529 H 0.81702 0.76784 0.81675 0.0
H1530 H 0.77689 0.77889 0.82114 0.0
H1531 H 0.7591 0.745 0.7072 0.0
H1532 H 0.73933 0.72215 0.70127 0.0
H1533 H 0.76895 0.71609 0.70647 0.0
H1534 H 0.75999 0.68967 0.7546 0.0
H1535 H 0.73026 0.69515 0.74902 0.0
H1536 H 0.74321 0.7002 0.7876 0.0
H1537 H 0.736 0.7872 0.81295 0.0
H1538 H 0.69559 0.78901 0.79877 0.0
H1539 H 0.70362 0.72998 0.73747 0.0
C1540 C 0.79417 0.72793 0.76635 0.0
C1541 C 0.81093 0.74023 0.78311 0.0
C1542 C 0.80443 0.75812 0.80383 0.0
C1543 C 0.7817 0.76459 0.80635 0.0
C1544 C 0.76575 0.75288 0.78819 0.0
C1545 C 0.77158 0.73463 0.76911 0.0
C1546 C 0.7513 0.72564 0.75088 0.0
C1547 C 0.7549 0.72733 0.7143 0.0
C1548 C 0.74587 0.70122 0.76115 0.0
C1549 C 0.73327 0.74201 0.76219 0.0
C1550 C 0.74201 0.75759 0.78364 0.0
C1551 C 0.72887 0.7749 0.79654 0.0
C1552 C 0.70598 0.77589 0.7881 0.0
C1553 C 0.69646 0.75961 0.76704 0.0
C1554 C 0.71041 0.74266 0.75359 0.0
H1555 H 0.70762 0.24579 0.2544 0.0
H1556 H 0.70484 0.30555 0.19358 0.0
H1557 H 0.74599 0.30301 0.18474 0.0
H1558 H 0.76111 0.2599 0.29212 0.0
H1559 H 0.77036 0.23083 0.29408 0.0
H1560 H 0.74062 0.23739 0.29528 0.0
H1561 H 0.73416 0.21074 0.2466 0.0
H1562 H 0.76398 0.20453 0.24481 0.0
H1563 H 0.74965 0.2155 0.20985 0.0
H1564 H 0.78681 0.29344 0.1808 0.0
H1565 H 0.82622 0.28133 0.18937 0.0
H1566 H 0.80304 0.22837 0.25399 0.0
C1567 C 0.71573 0.25847 0.2395 0.0
C1568 C 0.70305 0.27584 0.22461 0.0
C1569 C 0.71424 0.29216 0.20536 0.0
C1570 C 0.73756 0.29073 0.19992 0.0
C1571 C 0.74945 0.27301 0.21413 0.0
C1572 C 0.73906 0.25745 0.23408 0.0
C1573 C 0.75602 0.24069 0.24753 0.0
C1574 C 0.7571 0.24231 0.28444 0.0
C1575 C 0.75062 0.21643 0.23653 0.0
C1576 C 0.77755 0.24935 0.23204 0.0
C1577 C 0.77326 0.26778 0.21247 0.0
C1578 C 0.79043 0.27905 0.1961 0.0
C1579 C 0.81275 0.27196 0.201 0.0
C1580 C 0.81768 0.25392 0.22234 0.0
C1581 C 0.79977 0.24204 0.23725 0.0
H1582 H 0.69084 0.22223 0.75483 0.0
H1583 H 0.67373 0.28348 0.8073 0.0
H1584 H 0.71386 0.29499 0.80631 0.0
H1585 H 0.74636 0.21292 0.79305 0.0
H1586 H 0.75873 0.20266 0.75618 0.0
H1587 H 0.72902 0.19854 0.76383 0.0
H1588 H 0.71984 0.21837 0.70975 0.0
H1589 H 0.74948 0.22318 0.7024 0.0
H1590 H 0.73004 0.24671 0.70263 0.0
H1591 H 0.75494 0.30154 0.79509 0.0
H1592 H 0.79562 0.29985 0.78229 0.0
H1593 H 0.78597 0.23423 0.73717 0.0
C1594 C 0.69559 0.23777 0.76689 0.0
C1595 C 0.67917 0.25195 0.7812 0.0
C1596 C 0.68605 0.27227 0.7964 0.0
C1597 C 0.70877 0.27905 0.79571 0.0
C1598 C 0.72433 0.26523 0.77994 0.0
C1599 C 0.71816 0.24477 0.76643 0.0
C1600 C 0.73812 0.23326 0.75046 0.0
C1601 C 0.74337 0.2105 0.76687 0.0
C1602 C 0.73412 0.23021 0.71416 0.0
C1603 C 0.75646 0.25054 0.75685 0.0
C1604 C 0.74808 0.26893 0.77366 0.0
C1605 C 0.76174 0.28714 0.78219 0.0
C1606 C 0.78479 0.28609 0.77457 0.0
C1607 C 0.79396 0.2669 0.75873 0.0
C1608 C 0.77944 0.2492 0.74904 0.0
H1609 H 0.79304 0.73806 0.25411 0.0
H1610 H 0.79638 0.79862 0.19508 0.0
H1611 H 0.7546 0.79931 0.19189 0.0
H1612 H 0.74728 0.71184 0.21309 0.0
H1613 H 0.73458 0.70043 0.24904 0.0
H1614 H 0.76466 0.70511 0.24741 0.0
H1615 H 0.76236 0.7303 0.29839 0.0
H1616 H 0.73231 0.72549 0.30038 0.0
H1617 H 0.74313 0.75401 0.29909 0.0
H1618 H 0.71227 0.79259 0.19413 0.0
H1619 H 0.67288 0.78027 0.20427 0.0
H1620 H 0.69792 0.72418 0.26164 0.0
C1621 C 0.78501 0.75159 0.24071 0.0
C1622 C 0.79793 0.7683 0.22485 0.0
C1623 C 0.78678 0.78568 0.20751 0.0
C1624 C 0.76308 0.78616 0.20546 0.0
C1625 C 0.75085 0.76918 0.22097 0.0
C1626 C 0.76145 0.75233 0.23846 0.0
C1627 C 0.74452 0.73606 0.25292 0.0
C1628 C 0.74797 0.71194 0.23982 0.0
C1629 C 0.74565 0.7365 0.28989 0.0
C1630 C 0.72271 0.7463 0.24073 0.0
C1631 C 0.72665 0.76537 0.22228 0.0
C1632 C 0.70899 0.7777 0.20857 0.0
C1633 C 0.68669 0.77053 0.21435 0.0
C1634 C 0.68235 0.75125 0.23367 0.0
C1635 C 0.70067 0.73894 0.24667 0.0
H1636 H 0.5009 0.45859 0.96902 0.0
H1637 H 0.43552 0.45172 0.01575 0.0
H1638 H 0.43365 0.49307 0.02284 0.0
H1639 H 0.52226 0.50107 0.01864 0.0
H1640 H 0.53649 0.51678 0.98743 0.0
H1641 H 0.53212 0.48677 0.98297 0.0
H1642 H 0.51131 0.49325 0.92891 0.0
H1643 H 0.51612 0.52326 0.93279 0.0
H1644 H 0.48778 0.51267 0.92734 0.0
H1645 H 0.44063 0.53431 0.03043 0.0
H1646 H 0.45315 0.57415 0.02994 0.0
H1647 H 0.51345 0.55476 0.97689 0.0
C1648 C 0.4859 0.46584 0.9799 0.0
C1649 C 0.46836 0.45191 0.99183 0.0
C1650 C 0.44915 0.46203 0.00634 0.0
C1651 C 0.44797 0.48551 0.01066 0.0
C1652 C 0.46601 0.49866 2e-05 0.0
C1653 C 0.48438 0.48931 0.98425 0.0
C1654 C 0.50164 0.50732 0.97569 0.0
C1655 C 0.52447 0.50269 0.99217 0.0
C1656 C 0.50436 0.50924 0.939 0.0
C1657 C 0.49024 0.52811 0.98961 0.0
C1658 C 0.4698 0.52268 0.00376 0.0
C1659 C 0.45647 0.53887 0.01906 0.0
C1660 C 0.46383 0.56141 0.01892 0.0
C1661 C 0.48424 0.56755 0.00333 0.0
C1662 C 0.49776 0.55058 0.98898 0.0
H1663 H 0.96704 0.45515 0.50663 0.0
H1664 H 0.02627 0.4342 0.56077 0.0
H1665 H 0.04001 0.4736 0.56092 0.0
H1666 H 0.99421 0.49296 0.45604 0.0
H1667 H 0.97215 0.51405 0.45539 0.0
H1668 H 0.96517 0.4848 0.46251 0.0
H1669 H 0.94551 0.49525 0.51623 0.0
H1670 H 0.95176 0.52465 0.50876 0.0
H1671 H 0.96072 0.51156 0.5458 0.0
H1672 H 0.04971 0.51378 0.54936 0.0
H1673 H 0.05139 0.55437 0.53607 0.0
H1674 H 0.98553 0.54974 0.49023 0.0
C1675 C 0.98251 0.45896 0.51946 0.0
C1676 C 0.99559 0.4416 0.5337 0.0
C1677 C 0.01592 0.44723 0.54982 0.0
C1678 C 0.02397 0.46953 0.54982 0.0
C1679 C 0.01135 0.48599 0.53389 0.0
C1680 C 0.99077 0.48116 0.51976 0.0
C1681 C 0.98086 0.50194 0.50361 0.0
C1682 C 0.97793 0.4982 0.46723 0.0
C1683 C 0.95839 0.50876 0.51956 0.0
C1684 C -0.0007 0.51908 0.51043 0.0
C1685 C 0.0168 0.50942 0.52768 0.0
C1686 C 0.03598 0.52164 0.53625 0.0
C1687 C 0.03685 0.54465 0.5283 0.0
C1688 C 0.01856 0.55525 0.51217 0.0
C1689 C -0.00018 0.5421 0.5024 0.0
H1690 H 0.03207 0.44031 0.98421 0.0
H1691 H 0.98292 0.41685 0.05437 0.0
H1692 H 0.96918 0.456 0.06127 0.0
H1693 H 0.04415 0.49517 0.02367 0.0
H1694 H 0.04697 0.50961 0.98567 0.0
H1695 H 0.0542 0.48005 0.9888 0.0
H1696 H 0.02642 0.47122 0.94227 0.0
H1697 H 0.01862 0.50064 0.9396 0.0
H1698 H 0.99715 0.47943 0.94594 0.0
H1699 H 0.95817 0.49687 0.0564 0.0
H1700 H 0.9546 0.53793 0.04649 0.0
H1701 H 0.01112 0.53479 0.97986 0.0
C1702 C 0.01885 0.44348 0.0017 0.0
C1703 C 0.00859 0.42553 0.01879 0.0
C1704 C 0.99113 0.43035 0.04113 0.0
C1705 C 0.98308 0.45251 0.04505 0.0
C1706 C 0.99282 0.46965 0.02666 0.0
C1707 C 0.01065 0.4655 0.00595 0.0
C1708 C 0.01777 0.48686 0.9885 0.0
C1709 C 0.04222 0.49331 0.99719 0.0
C1710 C 0.01481 0.48437 0.95191 0.0
C1711 C 0.00095 0.50358 0.00231 0.0
C1712 C 0.98662 0.49328 0.02411 0.0
C1713 C 0.96944 0.50519 0.03961 0.0
C1714 C 0.96741 0.52847 0.03359 0.0
C1715 C 0.98257 0.53956 0.0124 0.0
C1716 C -0.00077 0.52679 0.9961 0.0
H1717 H 0.52546 0.4416 0.50668 0.0
H1718 H 0.47107 0.42538 0.44047 0.0
H1719 H 0.46133 0.46601 0.43673 0.0
H1720 H 0.49626 0.48336 0.55007 0.0
H1721 H 0.52038 0.50163 0.55553 0.0
H1722 H 0.52439 0.47157 0.55105 0.0
H1723 H 0.55139 0.47823 0.50279 0.0
H1724 H 0.54788 0.50834 0.50759 0.0
H1725 H 0.54199 0.49524 0.46935 0.0
H1726 H 0.4561 0.50809 0.44305 0.0
H1727 H 0.45816 0.54907 0.45453 0.0
H1728 H 0.51565 0.53733 0.51733 0.0
C1729 C 0.5118 0.4466 0.49084 0.0
C1730 C 0.49906 0.43036 0.47376 0.0
C1731 C 0.48114 0.43757 0.45361 0.0
C1732 C 0.4754 0.46058 0.45149 0.0
C1733 C 0.48779 0.47607 0.46963 0.0
C1734 C 0.50581 0.46942 0.48856 0.0
C1735 C 0.51609 0.4893 0.50623 0.0
C1736 C 0.51415 0.48627 0.54289 0.0
C1737 C 0.5408 0.493 0.49585 0.0
C1738 C 0.50094 0.50819 0.49445 0.0
C1739 C 0.48468 0.50021 0.47344 0.0
C1740 C 0.46881 0.51455 0.45937 0.0
C1741 C 0.47003 0.53776 0.46621 0.0
C1742 C 0.48702 0.54636 0.48691 0.0
C1743 C 0.50236 0.53126 0.50164 0.0
H1744 H 0.05861 0.29341 0.04112 0.0
H1745 H 0.06411 0.36533 0.06108 0.0
H1746 H 0.0914 0.35697 0.10468 0.0
H1747 H 0.05487 0.27633 0.11751 0.0
H1748 H 0.07062 0.25038 0.11273 0.0
H1749 H 0.05629 0.2625 0.07889 0.0
H1750 H 0.09403 0.26312 0.04698 0.0
H1751 H 0.10856 0.25108 0.08106 0.0
H1752 H 0.11834 0.27728 0.06368 0.0
H1753 H 0.11248 0.34015 0.15196 0.0
H1754 H 0.12221 0.31692 0.1996 0.0
H1755 H 0.10208 0.25641 0.14838 0.0
C1756 C 0.06593 0.30753 0.05407 0.0
C1757 C 0.05915 0.33002 0.04774 0.0
C1758 C 0.06912 0.34794 0.06539 0.0
C1759 C 0.08474 0.34335 0.09007 0.0
C1760 C 0.09045 0.32081 0.09638 0.0
C1761 C 0.08138 0.30323 0.07861 0.0
C1762 C 0.08743 0.28041 0.09261 0.0
C1763 C 0.06604 0.26663 0.10095 0.0
C1764 C 0.10302 0.2672 0.06972 0.0
C1765 C 0.10001 0.28782 0.12239 0.0
C1766 C 0.10234 0.31113 0.1237 0.0
C1767 C 0.11125 0.32188 0.1508 0.0
C1768 C 0.11686 0.30857 0.17769 0.0
C1769 C 0.11302 0.28493 0.17734 0.0
C1770 C 0.10549 0.27443 0.1489 0.0
H1771 H 0.90592 0.81629 0.29312 0.0
H1772 H 0.85646 0.77235 0.33761 0.0
H1773 H 0.86272 0.79144 0.38989 0.0
H1774 H 0.9444 0.81376 0.34975 0.0
H1775 H 0.95409 0.8427 0.34871 0.0
H1776 H 0.94128 0.83049 0.31371 0.0
H1777 H 0.91149 0.86266 0.31234 0.0
H1778 H 0.92444 0.87525 0.3473 0.0
H1779 H 0.89471 0.86847 0.34761 0.0
H1780 H 0.88133 0.80762 0.43795 0.0
H1781 H 0.90911 0.82136 0.47784 0.0
H1782 H 0.94558 0.85653 0.40269 0.0
C1783 C 0.8956 0.81163 0.31363 0.0
C1784 C 0.88037 0.79336 0.3116 0.0
C1785 C 0.86774 0.78678 0.33883 0.0
C1786 C 0.87123 0.79752 0.36852 0.0
C1787 C 0.88716 0.81496 0.37019 0.0
C1788 C 0.8988 0.82234 0.34326 0.0
C1789 C 0.9172 0.83907 0.35213 0.0
C1790 C 0.9406 0.831 0.3404 0.0
C1791 C 0.91162 0.86277 0.33907 0.0
C1792 C 0.91543 0.83848 0.38843 0.0
C1793 C 0.89764 0.82488 0.39835 0.0
C1794 C 0.8947 0.819 0.43057 0.0
C1795 C 0.91056 0.82679 0.45302 0.0
C1796 C 0.92894 0.84041 0.44317 0.0
C1797 C 0.93107 0.84686 0.41073 0.0
H1798 H 0.43987 0.69401 0.6971 0.0
H1799 H 0.37364 0.69794 0.65286 0.0
H1800 H 0.38512 0.66832 0.61366 0.0
H1801 H 0.4702 0.69248 0.62943 0.0
H1802 H 0.49171 0.67324 0.64355 0.0
H1803 H 0.47643 0.69035 0.67178 0.0
H1804 H 0.46434 0.65425 0.70294 0.0
H1805 H 0.47964 0.63694 0.67457 0.0
H1806 H 0.45005 0.63169 0.68199 0.0
H1807 H 0.40664 0.64366 0.57361 0.0
H1808 H 0.43574 0.62845 0.53651 0.0
H1809 H 0.4874 0.64127 0.60797 0.0
C1810 C 0.42755 0.68826 0.67965 0.0
C1811 C 0.40594 0.6983 0.67779 0.0
C1812 C 0.39026 0.69032 0.65474 0.0
C1813 C 0.39664 0.67348 0.6325 0.0
C1814 C 0.41853 0.66453 0.63426 0.0
C1815 C 0.4336 0.67154 0.65765 0.0
C1816 C 0.45692 0.66173 0.65246 0.0
C1817 C 0.47483 0.68057 0.64907 0.0
C1818 C 0.46309 0.64517 0.67961 0.0
C1819 C 0.45318 0.64935 0.62117 0.0
C1820 C 0.43082 0.65048 0.6114 0.0
C1821 C 0.42403 0.64221 0.58144 0.0
C1822 C 0.44064 0.63349 0.56056 0.0
C1823 C 0.46373 0.63361 0.5696 0.0
C1824 C 0.4698 0.64074 0.60073 0.0
H1825 H 0.54523 0.20686 0.81371 0.0
H1826 H 0.61669 0.199 0.83505 0.0
H1827 H 0.60725 0.16873 0.87426 0.0
H1828 H 0.52555 0.20225 0.8911 0.0
H1829 H 0.50013 0.18721 0.88031 0.0
H1830 H 0.51328 0.2058 0.85173 0.0
H1831 H 0.51549 0.1727 0.81076 0.0
H1832 H 0.50267 0.15386 0.83962 0.0
H1833 H 0.5296 0.14678 0.82189 0.0
H1834 H 0.58901 0.14208 0.91535 0.0
H1835 H 0.56413 0.12506 0.9568 0.0
H1836 H 0.50531 0.1506 0.90641 0.0
C1837 C 0.55905 0.19876 0.82636 0.0
C1838 C 0.58173 0.20546 0.82143 0.0
C1839 C 0.59918 0.1942 0.83848 0.0
C1840 C 0.59398 0.17687 0.86058 0.0
C1841 C 0.57132 0.1708 0.86484 0.0
C1842 C 0.55421 0.18149 0.84806 0.0
C1843 C 0.5311 0.17349 0.85852 0.0
C1844 C 0.5167 0.19336 0.87118 0.0
C1845 C 0.51901 0.16096 0.83106 0.0
C1846 C 0.5377 0.15739 0.88507 0.0
C1847 C 0.56096 0.15553 0.88798 0.0
C1848 C 0.57081 0.14308 0.91286 0.0
C1849 C 0.55656 0.1333 0.93615 0.0
C1850 C 0.53284 0.13642 0.93452 0.0
C1851 C 0.52338 0.14771 0.90789 0.0
H1852 H 0.02825 0.6863 0.4322 0.0
H1853 H 0.05953 0.61994 0.43995 0.0
H1854 H 0.08635 0.63047 0.39642 0.0
H1855 H 0.03154 0.69202 0.34772 0.0
H1856 H 0.03733 0.72196 0.34957 0.0
H1857 H 0.02116 0.70865 0.38097 0.0
H1858 H 0.04953 0.72396 0.42331 0.0
H1859 H 0.066 0.73705 0.39195 0.0
H1860 H 0.07919 0.71742 0.41934 0.0
H1861 H 0.1097 0.64929 0.35079 0.0
H1862 H 0.12492 0.67302 0.30646 0.0
H1863 H 0.07796 0.72651 0.33229 0.0
C1864 C 0.04059 0.67376 0.42485 0.0
C1865 C 0.04166 0.65221 0.43953 0.0
C1866 C 0.05827 0.63653 0.42899 0.0
C1867 C 0.07365 0.64242 0.40443 0.0
C1868 C 0.07225 0.66407 0.39096 0.0
C1869 C 0.05601 0.67938 0.4009 0.0
C1870 C 0.05756 0.70149 0.3829 0.0
C1871 C 0.0356 0.70629 0.36418 0.0
C1872 C 0.06342 0.72113 0.40574 0.0
C1873 C 0.07697 0.69624 0.36063 0.0
C1874 C 0.0855 0.67472 0.36562 0.0
C1875 C 0.10317 0.6662 0.34687 0.0
C1876 C 0.11182 0.67983 0.3219 0.0
C1877 C 0.10259 0.7016 0.3159 0.0
C1878 C 0.08536 0.70994 0.33615 0.0
H1879 H 0.60115 0.76212 0.642 0.0
H1880 H 0.62264 0.81713 0.70352 0.0
H1881 H 0.61017 0.84481 0.6624 0.0
H1882 H 0.61217 0.79234 0.56103 0.0
H1883 H 0.58732 0.77912 0.54438 0.0
H1884 H 0.6042 0.76426 0.57372 0.0
H1885 H 0.56842 0.75867 0.60887 0.0
H1886 H 0.55158 0.77387 0.58028 0.0
H1887 H 0.55246 0.78315 0.62156 0.0
H1888 H 0.58705 0.866 0.62044 0.0
H1889 H 0.55747 0.87802 0.58153 0.0
H1890 H 0.55086 0.80859 0.54925 0.0
C1891 C 0.60425 0.77998 0.64603 0.0
C1892 C 0.61295 0.78757 0.67562 0.0
C1893 C 0.6164 0.81102 0.68063 0.0
C1894 C 0.60926 0.82684 0.65744 0.0
C1895 C 0.59922 0.8188 0.62925 0.0
C1896 C 0.59728 0.79581 0.6232 0.0
C1897 C 0.58304 0.79123 0.59376 0.0
C1898 C 0.59755 0.78115 0.56661 0.0
C1899 C 0.56268 0.77585 0.60163 0.0
C1900 C 0.57566 0.81503 0.58573 0.0
C1901 C 0.58563 0.83088 0.60566 0.0
C1902 C 0.57959 0.85377 0.60425 0.0
C1903 C 0.56274 0.86045 0.58225 0.0
C1904 C 0.55184 0.84414 0.56277 0.0
C1905 C 0.55887 0.82136 0.56407 0.0
H1906 H 0.42367 0.26499 0.83754 0.0
H1907 H 0.37498 0.3128 0.79888 0.0
H1908 H 0.38777 0.34145 0.83866 0.0
H1909 H 0.42046 0.28235 0.9214 0.0
H1910 H 0.45036 0.27785 0.92706 0.0
H1911 H 0.43505 0.26105 0.89825 0.0
H1912 H 0.46339 0.27338 0.85386 0.0
H1913 H 0.4785 0.29056 0.88233 0.0
H1914 H 0.46758 0.30312 0.846 0.0
H1915 H 0.4088 0.36576 0.88215 0.0
H1916 H 0.43441 0.38166 0.924 0.0
H1917 H 0.46939 0.31703 0.92856 0.0
C1918 C 0.41531 0.28133 0.83759 0.0
C1919 C 0.39831 0.28661 0.81506 0.0
C1920 C 0.38793 0.30827 0.81614 0.0
C1921 C 0.39518 0.32469 0.83853 0.0
C1922 C 0.41272 0.31908 0.85959 0.0
C1923 C 0.42242 0.29776 0.85927 0.0
C1924 C 0.44177 0.29586 0.88261 0.0
C1925 C 0.43659 0.27824 0.90889 0.0
C1926 C 0.46412 0.29042 0.86514 0.0
C1927 C 0.44182 0.31955 0.89596 0.0
C1928 C 0.42492 0.33284 0.88294 0.0
C1929 C 0.42206 0.3554 0.89243 0.0
C1930 C 0.43672 0.36434 0.91607 0.0
C1931 C 0.45413 0.35076 0.92943 0.0
C1932 C 0.45656 0.32817 0.9188 0.0
H1933 H 0.94536 0.23872 0.17273 0.0
H1934 H 0.89051 0.19233 0.19439 0.0
H1935 H 0.90377 0.16685 0.15077 0.0
H1936 H 0.94322 0.23219 0.08713 0.0
H1937 H 0.97345 0.2347 0.08261 0.0
H1938 H 0.95937 0.24866 0.11548 0.0
H1939 H 0.9859 0.22815 0.15578 0.0
H1940 H -0.00013 0.2139 0.12303 0.0
H1941 H 0.98756 0.19765 0.15531 0.0
H1942 H 0.92443 0.14607 0.10498 0.0
H1943 H 0.94778 0.13414 0.05837 0.0
H1944 H 0.98804 0.1952 0.06815 0.0
C1945 C 0.93607 0.22321 0.16838 0.0
C1946 C 0.917 0.2174 0.18703 0.0
C1947 C 0.90514 0.19711 0.18024 0.0
C1948 C 0.91264 0.1825 0.15571 0.0
C1949 C 0.93184 0.18861 0.13817 0.0
C1950 C 0.94315 0.20867 0.14404 0.0
C1951 C 0.96288 0.21192 0.12148 0.0
C1952 C 0.95952 0.23311 0.10043 0.0
C1953 C 0.98538 0.21296 0.14002 0.0
C1954 C 0.96109 0.19049 0.10195 0.0
C1955 C 0.94324 0.17709 0.11192 0.0
C1956 C 0.9384 0.15648 0.09698 0.0
C1957 C 0.95184 0.14977 0.0707 0.0
C1958 C 0.96968 0.16377 0.05959 0.0
C1959 C 0.97448 0.18414 0.07592 0.0
H1960 H 0.98614 0.64098 0.90025 0.0
H1961 H 0.92861 0.6211 0.95826 0.0
H1962 H 0.90273 0.63709 0.91724 0.0
H1963 H 0.96805 0.69224 0.88164 0.0
H1964 H 0.9785 0.69343 0.84093 0.0
H1965 H 0.99203 0.67529 0.86971 0.0
H1966 H 0.98575 0.64044 0.83292 0.0
H1967 H 0.97266 0.65859 0.80343 0.0
H1968 H 0.95773 0.63413 0.81838 0.0
H1969 H 0.88395 0.66235 0.87523 0.0
H1970 H 0.87422 0.69175 0.83491 0.0
H1971 H 0.94474 0.69507 0.8062 0.0
C1972 C 0.96806 0.6391 0.9036 0.0
C1973 C 0.9593 0.62974 0.93217 0.0
C1974 C 0.9356 0.62786 0.93617 0.0
C1975 C 0.92081 0.63703 0.91308 0.0
C1976 C 0.93009 0.64754 0.88601 0.0
C1977 C 0.95323 0.64808 0.88088 0.0
C1978 C 0.95933 0.66259 0.85224 0.0
C1979 C 0.9754 0.68203 0.86173 0.0
C1980 C 0.96946 0.64807 0.82513 0.0
C1981 C 0.93621 0.67136 0.84324 0.0
C1982 C 0.91942 0.6622 0.86238 0.0
C1983 C 0.89693 0.66925 0.8597 0.0
C1984 C 0.89158 0.68604 0.8369 0.0
C1985 C 0.90875 0.69585 0.81759 0.0
C1986 C 0.93121 0.68806 0.82068 0.0
H1987 H 0.09305 0.23062 0.61325 0.0
H1988 H 0.11177 0.17871 0.68156 0.0
H1989 H 0.09831 0.14915 0.64389 0.0
H1990 H 0.04407 0.21065 0.59311 0.0
H1991 H 0.04442 0.21732 0.55079 0.0
H1992 H 0.06147 0.2334 0.57805 0.0
H1993 H 0.09749 0.22384 0.5452 0.0
H1994 H 0.08043 0.20794 0.51724 0.0
H1995 H 0.10431 0.1947 0.53658 0.0
H1996 H 0.07364 0.12669 0.60509 0.0
H1997 H 0.04299 0.11419 0.5681 0.0
H1998 H 0.04217 0.18095 0.52499 0.0
C1999 C 0.09546 0.21295 0.61935 0.0
C2000 C 0.1037 0.20679 0.64982 0.0
C2001 C 0.106 0.18362 0.65783 0.0
C2002 C 0.09829 0.16675 0.63663 0.0
C2003 C 0.08892 0.17342 0.60729 0.0
C2004 C 0.08816 0.19603 0.59829 0.0
C2005 C 0.0747 0.19932 0.5678 0.0
C2006 C 0.05501 0.21614 0.57279 0.0
C2007 C 0.09016 0.20689 0.54006 0.0
C2008 C 0.06629 0.17547 0.56259 0.0
C2009 C 0.07501 0.16051 0.58495 0.0
C2010 C 0.06725 0.13812 0.58687 0.0
C2011 C 0.04984 0.13112 0.5659 0.0
C2012 C 0.04026 0.14668 0.54395 0.0
C2013 C 0.04925 0.16873 0.54164 0.0
H2014 H 0.54745 0.29935 0.43581 0.0
H2015 H 0.55305 0.37177 0.41955 0.0
H2016 H 0.58281 0.36458 0.37867 0.0
H2017 H 0.6078 0.28499 0.42268 0.0
H2018 H 0.60042 0.25878 0.40312 0.0
H2019 H 0.58251 0.27005 0.43439 0.0
H2020 H 0.54807 0.2691 0.39572 0.0
H2021 H 0.56575 0.25758 0.36469 0.0
H2022 H 0.55001 0.28323 0.35736 0.0
H2023 H 0.60841 0.34864 0.33466 0.0
H2024 H 0.62397 0.32593 0.28967 0.0
H2025 H 0.60095 0.26452 0.33626 0.0
C2026 C 0.55505 0.31385 0.42406 0.0
C2027 C 0.54779 0.33614 0.43078 0.0
C2028 C 0.55833 0.35452 0.4148 0.0
C2029 C 0.57536 0.3506 0.39174 0.0
C2030 C 0.58183 0.32826 0.38544 0.0
C2031 C 0.57193 0.31025 0.40132 0.0
C2032 C 0.57982 0.28775 0.38825 0.0
C2033 C 0.59345 0.27462 0.41363 0.0
C2034 C 0.55973 0.27361 0.37575 0.0
C2035 C 0.59484 0.29577 0.36122 0.0
C2036 C 0.59638 0.31916 0.36038 0.0
C2037 C 0.60768 0.33034 0.33551 0.0
C2038 C 0.61662 0.31732 0.31017 0.0
C2039 C 0.61375 0.29352 0.30981 0.0
C2040 C 0.60364 0.28267 0.33631 0.0
H2041 H 0.45273 0.8576 0.08461 0.0
H2042 H 0.40656 0.82419 0.01948 0.0
H2043 H 0.3819 0.81378 0.06525 0.0
H2044 H 0.45402 0.81603 0.13744 0.0
H2045 H 0.45614 0.83274 0.1736 0.0
H2046 H 0.46573 0.84422 0.1361 0.0
H2047 H 0.43909 0.87873 0.1432 0.0
H2048 H 0.42943 0.86733 0.18105 0.0
H2049 H 0.4093 0.87424 0.15001 0.0
H2050 H 0.36676 0.80039 0.11773 0.0
H2051 H 0.36479 0.78223 0.17135 0.0
H2052 H 0.42244 0.8218 0.20238 0.0
C2053 C 0.43678 0.84916 0.08007 0.0
C2054 C 0.43103 0.8422 0.04878 0.0
C2055 C 0.4108 0.83006 0.04342 0.0
C2056 C 0.3967 0.82419 0.06924 0.0
C2057 C 0.40326 0.8304 0.10023 0.0
C2058 C 0.42288 0.84267 0.10573 0.0
C2059 C 0.42872 0.84318 0.14116 0.0
C2060 C 0.45254 0.83344 0.1474 0.0
C2061 C 0.42649 0.86731 0.15465 0.0
C2062 C 0.41037 0.82791 0.15436 0.0
C2063 C 0.39524 0.82152 0.1307 0.0
C2064 C 0.37818 0.80568 0.13663 0.0
C2065 C 0.37713 0.79546 0.1671 0.0
C2066 C 0.39346 0.80073 0.19074 0.0
C2067 C 0.40967 0.81772 0.18464 0.0
H2068 H 0.96266 0.30478 0.56704 0.0
H2069 H 0.94252 0.37471 0.58228 0.0
H2070 H 0.91433 0.36185 0.62268 0.0
H2071 H 0.90706 0.28026 0.57385 0.0
H2072 H 0.91749 0.25523 0.59377 0.0
H2073 H 0.93525 0.27013 0.56561 0.0
H2074 H 0.96644 0.27435 0.60908 0.0
H2075 H 0.94898 0.25914 0.63713 0.0
H2076 H 0.95938 0.28693 0.64731 0.0
H2077 H 0.88921 0.34037 0.66364 0.0
H2078 H 0.87259 0.31338 0.70289 0.0
H2079 H 0.90936 0.25844 0.6575 0.0
C2080 C 0.95244 0.31758 0.57874 0.0
C2081 C 0.95496 0.34082 0.57149 0.0
C2082 C 0.941 0.3568 0.58749 0.0
C2083 C 0.92484 0.34963 0.61029 0.0
C2084 C 0.92272 0.32646 0.61647 0.0
C2085 C 0.93627 0.31077 0.60107 0.0
C2086 C 0.93157 0.28694 0.61232 0.0
C2087 C 0.92229 0.27229 0.58474 0.0
C2088 C 0.95285 0.27623 0.62736 0.0
C2089 C 0.91361 0.29155 0.63723 0.0
C2090 C 0.90839 0.31435 0.6392 0.0
C2091 C 0.89304 0.32248 0.662 0.0
C2092 C 0.88353 0.30702 0.68402 0.0
C2093 C 0.88965 0.28382 0.68315 0.0
C2094 C 0.90426 0.27605 0.6587 0.0
H2095 H 0.44287 0.22362 0.31519 0.0
H2096 H 0.37474 0.19644 0.32161 0.0
H2097 H 0.38793 0.1689 0.36262 0.0
H2098 H 0.4723 0.17066 0.32304 0.0
H2099 H 0.4949 0.18299 0.34627 0.0
H2100 H 0.47999 0.19992 0.3171 0.0
H2101 H 0.47012 0.22954 0.36107 0.0
H2102 H 0.48537 0.21296 0.39012 0.0
H2103 H 0.45622 0.22035 0.39741 0.0
H2104 H 0.40933 0.14501 0.40488 0.0
H2105 H 0.43551 0.13026 0.44665 0.0
H2106 H 0.48883 0.17313 0.40903 0.0
C2107 C 0.43055 0.21197 0.32508 0.0
C2108 C 0.40772 0.21228 0.31513 0.0
C2109 C 0.39232 0.19662 0.32893 0.0
C2110 C 0.3997 0.1808 0.35203 0.0
C2111 C 0.42251 0.18079 0.36075 0.0
C2112 C 0.43759 0.19612 0.34768 0.0
C2113 C 0.46101 0.1935 0.36149 0.0
C2114 C 0.47805 0.18634 0.33541 0.0
C2115 C 0.46861 0.21537 0.37854 0.0
C2116 C 0.4568 0.17458 0.38506 0.0
C2117 C 0.43462 0.16715 0.38422 0.0
C2118 C 0.42677 0.15057 0.40545 0.0
C2119 C 0.44177 0.14212 0.42888 0.0
C2120 C 0.46415 0.15054 0.43087 0.0
C2121 C 0.47183 0.16631 0.40792 0.0
H2122 H 0.55189 0.68859 0.04189 0.0
H2123 H 0.53561 0.62043 0.07287 0.0
H2124 H 0.56282 0.62427 0.11791 0.0
H2125 H 0.61358 0.68828 0.06929 0.0
H2126 H 0.61145 0.71759 0.08106 0.0
H2127 H 0.59545 0.70726 0.04718 0.0
H2128 H 0.55843 0.72198 0.07341 0.0
H2129 H 0.57427 0.73236 0.10701 0.0
H2130 H 0.55123 0.71289 0.11355 0.0
H2131 H 0.58446 0.63882 0.16559 0.0
H2132 H 0.59737 0.66262 0.211 0.0
H2133 H 0.60014 0.72088 0.14824 0.0
C2134 C 0.55452 0.67421 0.05763 0.0
C2135 C 0.54159 0.65427 0.05412 0.0
C2136 C 0.54547 0.63581 0.07509 0.0
C2137 C 0.56095 0.63784 0.10062 0.0
C2138 C 0.57276 0.65821 0.10423 0.0
C2139 C 0.56993 0.67595 0.08288 0.0
C2140 C 0.582 0.6971 0.09409 0.0
C2141 C 0.6018 0.70289 0.07156 0.0
C2142 C 0.56549 0.71723 0.09723 0.0
C2143 C 0.5905 0.68919 0.12647 0.0
C2144 C 0.58569 0.66648 0.13153 0.0
C2145 C 0.58906 0.65632 0.16147 0.0
C2146 C 0.59651 0.66989 0.1871 0.0
C2147 C 0.60043 0.69328 0.18252 0.0
C2148 C 0.59822 0.70279 0.1517 0.0
H2149 H 0.06335 0.80865 0.79863 0.0
H2150 H 0.1348 0.81785 0.81831 0.0
H2151 H 0.12505 0.84542 0.86133 0.0
H2152 H 0.04512 0.86776 0.81672 0.0
H2153 H 0.01902 0.85785 0.83421 0.0
H2154 H 0.032 0.8423 0.80177 0.0
H2155 H 0.03222 0.80592 0.83681 0.0
H2156 H 0.01911 0.82126 0.86904 0.0
H2157 H 0.04545 0.80662 0.87586 0.0
H2158 H 0.10663 0.8676 0.9074 0.0
H2159 H 0.0821 0.87953 0.95271 0.0
H2160 H 0.02329 0.85526 0.90118 0.0
C2161 C 0.07706 0.81666 0.81162 0.0
C2162 C 0.09983 0.81095 0.80539 0.0
C2163 C 0.11722 0.822 0.82274 0.0
C2164 C 0.11182 0.83774 0.84705 0.0
C2165 C 0.08902 0.84253 0.85307 0.0
C2166 C 0.07199 0.83234 0.83553 0.0
C2167 C 0.04882 0.83821 0.84833 0.0
C2168 C 0.03546 0.85238 0.82379 0.0
C2169 C 0.03566 0.81673 0.85811 0.0
C2170 C 0.05534 0.85225 0.87716 0.0
C2171 C 0.07854 0.85517 0.87917 0.0
C2172 C 0.08845 0.86581 0.90564 0.0
C2173 C 0.0744 0.87267 0.93119 0.0
C2174 C 0.05084 0.86841 0.93018 0.0
C2175 C 0.04122 0.85897 0.90227 0.0
loop_
_geom_bond_atom_site_label_1
_geom_bond_atom_site_label_2
_geom_bond_distance
_geom_bond_site_symmetry_2
_ccdc_geom_bond_type
Co0 O1 2.216 . S
Co0 O2 2.091 . S
Co0 O4 2.004 . S
Co0 O10 2.021 . S
Co0 O12 2.137 . S
Co0 O13 2.244 . S
O1 Co0 2.216 . S
O1 C8 1.247 . S
O2 Co0 2.091 . S
O2 C8 1.261 . S
C3 O12 1.247 . S
C3 O13 1.272 . S
O4 Co0 2.004 . S
O4 C9 1.259 . S
Co5 O6 2.061 . S
Co5 O11 2.052 . S
Co5 O13 2.135 . S
O6 Co5 2.061 . S
O6 C9 1.235 . S
C7 O10 1.238 . S
C7 O11 1.241 . S
C8 O1 1.247 . S
C8 O2 1.261 . S
C9 O4 1.259 . S
C9 O6 1.235 . S
O10 Co0 2.021 . S
O10 C7 1.238 . S
O11 Co5 2.052 . S
O11 C7 1.241 . S
O12 Co0 2.137 . S
O12 C3 1.247 . S
O13 Co0 2.244 . S
O13 C3 1.272 . S
O13 Co5 2.135 . S
Co14 O15 2.216 . S
Co14 O16 2.091 . S
Co14 O18 2.004 . S
Co14 O24 2.021 . S
Co14 O26 2.137 . S
Co14 O27 2.244 . S
O15 Co14 2.216 . S
O15 C22 1.247 . S
O16 Co14 2.091 . S
O16 C22 1.261 . S
C17 O26 1.247 . S
C17 O27 1.272 . S
O18 Co14 2.004 . S
O18 C23 1.259 . S
Co19 O20 2.061 . S
Co19 O25 2.052 . S
Co19 O27 2.135 . S
O20 Co19 2.061 . S
O20 C23 1.235 . S
C21 O24 1.238 . S
C21 O25 1.241 . S
C22 O15 1.247 . S
C22 O16 1.261 . S
C23 O18 1.259 . S
C23 O20 1.235 . S
O24 Co14 2.021 . S
O24 C21 1.238 . S
O25 Co19 2.052 . S
O25 C21 1.241 . S
O26 Co14 2.137 . S
O26 C17 1.247 . S
O27 Co14 2.244 . S
O27 C17 1.272 . S
O27 Co19 2.135 . S
Co28 O29 2.216 . S
Co28 O30 2.091 . S
Co28 O32 2.004 . S
Co28 O38 2.021 . S
Co28 O40 2.137 . S
Co28 O41 2.244 . S
O29 Co28 2.216 . S
O29 C36 1.247 . S
O30 Co28 2.091 . S
O30 C36 1.261 . S
C31 O40 1.247 . S
C31 O41 1.272 . S
O32 Co28 2.004 . S
O32 C37 1.259 . S
Co33 O34 2.061 . S
Co33 O39 2.052 . S
Co33 O41 2.135 . S
O34 Co33 2.061 . S
O34 C37 1.235 . S
C35 O38 1.238 . S
C35 O39 1.241 . S
C36 O29 1.247 . S
C36 O30 1.261 . S
C37 O32 1.259 . S
C37 O34 1.235 . S
O38 Co28 2.021 . S
O38 C35 1.238 . S
O39 Co33 2.052 . S
O39 C35 1.241 . S
O40 Co28 2.137 . S
O40 C31 1.247 . S
O41 Co28 2.244 . S
O41 C31 1.272 . S
O41 Co33 2.135 . S
Co42 O43 2.216 . S
Co42 O44 2.091 . S
Co42 O46 2.004 . S
Co42 O52 2.021 . S
Co42 O54 2.137 . S
Co42 O55 2.244 . S
O43 Co42 2.216 . S
O43 C50 1.247 . S
O44 Co42 2.091 . S
O44 C50 1.261 . S
C45 O54 1.247 . S
C45 O55 1.272 . S
O46 Co42 2.004 . S
O46 C51 1.259 . S
Co47 O48 2.061 . S
Co47 O53 2.052 1_554 S
Co47 O55 2.135 . S
O48 Co47 2.061 . S
O48 C51 1.235 . S
C49 O52 1.238 1_556 S
C49 O53 1.241 . S
C50 O43 1.247 . S
C50 O44 1.261 . S
C51 O46 1.259 . S
C51 O48 1.235 . S
O52 Co42 2.021 . S
O52 C49 1.238 1_554 S
O53 Co47 2.052 1_556 S
O53 C49 1.241 . S
O54 Co42 2.137 . S
O54 C45 1.247 . S
O55 Co42 2.244 . S
O55 C45 1.272 . S
O55 Co47 2.135 . S
Co56 O57 2.216 . S
Co56 O58 2.091 . S
Co56 O60 2.004 . S
Co56 O66 2.021 . S
Co56 O68 2.137 . S
Co56 O69 2.244 . S
O57 Co56 2.216 . S
O57 C64 1.247 . S
O58 Co56 2.091 . S
O58 C64 1.261 . S
C59 O68 1.247 . S
C59 O69 1.272 . S
O60 Co56 2.004 . S
O60 C65 1.259 . S
Co61 O62 2.061 . S
Co61 O67 2.052 . S
Co61 O69 2.135 . S
O62 Co61 2.061 . S
O62 C65 1.235 . S
C63 O66 1.238 . S
C63 O67 1.241 . S
C64 O57 1.247 . S
C64 O58 1.261 . S
C65 O60 1.259 . S
C65 O62 1.235 . S
O66 Co56 2.021 . S
O66 C63 1.238 . S
O67 Co61 2.052 . S
O67 C63 1.241 . S
O68 Co56 2.137 . S
O68 C59 1.247 . S
O69 Co56 2.244 . S
O69 C59 1.272 . S
O69 Co61 2.135 . S
Co70 O71 2.216 . S
Co70 O72 2.091 . S
Co70 O74 2.004 . S
Co70 O80 2.021 . S
Co70 O82 2.137 . S
Co70 O83 2.244 . S
O71 Co70 2.216 . S
O71 C78 1.247 . S
O72 Co70 2.091 . S
O72 C78 1.261 . S
C73 O82 1.247 . S
C73 O83 1.272 . S
O74 Co70 2.004 . S
O74 C79 1.259 . S
Co75 O76 2.061 . S
Co75 O81 2.052 . S
Co75 O83 2.135 . S
O76 Co75 2.061 . S
O76 C79 1.235 . S
C77 O80 1.238 . S
C77 O81 1.241 . S
C78 O71 1.247 . S
C78 O72 1.261 . S
C79 O74 1.259 . S
C79 O76 1.235 . S
O80 Co70 2.021 . S
O80 C77 1.238 . S
O81 Co75 2.052 . S
O81 C77 1.241 . S
O82 Co70 2.137 . S
O82 C73 1.247 . S
O83 Co70 2.244 . S
O83 C73 1.272 . S
O83 Co75 2.135 . S
Co84 O85 2.216 . S
Co84 O86 2.091 . S
Co84 O88 2.004 . S
Co84 O94 2.021 . S
Co84 O96 2.137 . S
Co84 O97 2.244 . S
O85 Co84 2.216 . S
O85 C92 1.247 . S
O86 Co84 2.091 . S
O86 C92 1.261 . S
C87 O96 1.247 . S
C87 O97 1.272 . S
O88 Co84 2.004 . S
O88 C93 1.259 . S
Co89 O90 2.061 . S
Co89 O95 2.052 . S
Co89 O97 2.135 . S
O90 Co89 2.061 . S
O90 C93 1.235 . S
C91 O94 1.238 . S
C91 O95 1.241 . S
C92 O85 1.247 . S
C92 O86 1.261 . S
C93 O88 1.259 . S
C93 O90 1.235 . S
O94 Co84 2.021 . S
O94 C91 1.238 . S
O95 Co89 2.052 . S
O95 C91 1.241 . S
O96 Co84 2.137 . S
O96 C87 1.247 . S
O97 Co84 2.244 . S
O97 C87 1.272 . S
O97 Co89 2.135 . S
Co98 O99 2.216 . S
Co98 O100 2.091 . S
Co98 O102 2.004 . S
Co98 O108 2.021 . S
Co98 O110 2.137 . S
Co98 O111 2.244 . S
O99 Co98 2.216 . S
O99 C106 1.247 . S
O100 Co98 2.091 . S
O100 C106 1.261 . S
C101 O110 1.247 . S
C101 O111 1.272 . S
O102 Co98 2.004 . S
O102 C107 1.259 . S
Co103 O104 2.061 . S
Co103 O109 2.052 1_556 S
Co103 O111 2.135 . S
O104 Co103 2.061 . S
O104 C107 1.235 . S
C105 O108 1.238 1_554 S
C105 O109 1.241 . S
C106 O99 1.247 . S
C106 O100 1.261 . S
C107 O102 1.259 . S
C107 O104 1.235 . S
O108 Co98 2.021 . S
O108 C105 1.238 1_556 S
O109 Co103 2.052 1_554 S
O109 C105 1.241 . S
O110 Co98 2.137 . S
O110 C101 1.247 . S
O111 Co98 2.244 . S
O111 C101 1.272 . S
O111 Co103 2.135 . S
Co112 O113 2.216 . S
Co112 O114 2.091 . S
Co112 O116 2.004 . S
Co112 O122 2.021 . S
Co112 O124 2.137 . S
Co112 O125 2.244 . S
O113 Co112 2.216 . S
O113 C120 1.247 . S
O114 Co112 2.091 . S
O114 C120 1.261 . S
C115 O124 1.247 . S
C115 O125 1.272 . S
O116 Co112 2.004 . S
O116 C121 1.259 . S
Co117 O118 2.061 . S
Co117 O123 2.052 . S
Co117 O125 2.135 . S
O118 Co117 2.061 . S
O118 C121 1.235 . S
C119 O122 1.238 . S
C119 O123 1.241 . S
C120 O113 1.247 . S
C120 O114 1.261 . S
C121 O116 1.259 . S
C121 O118 1.235 . S
O122 Co112 2.021 . S
O122 C119 1.238 . S
O123 Co117 2.052 . S
O123 C119 1.241 . S
O124 Co112 2.137 . S
O124 C115 1.247 . S
O125 Co112 2.244 . S
O125 C115 1.272 . S
O125 Co117 2.135 . S
Co126 O127 2.216 . S
Co126 O128 2.091 . S
Co126 O130 2.004 . S
Co126 O136 2.021 . S
Co126 O138 2.137 . S
Co126 O139 2.244 . S
O127 Co126 2.216 . S
O127 C134 1.247 . S
O128 Co126 2.091 . S
O128 C134 1.261 . S
C129 O138 1.247 . S
C129 O139 1.272 . S
O130 Co126 2.004 . S
O130 C135 1.259 . S
Co131 O132 2.061 . S
Co131 O137 2.052 . S
Co131 O139 2.135 . S
O132 Co131 2.061 . S
O132 C135 1.235 . S
C133 O136 1.238 . S
C133 O137 1.241 . S
C134 O127 1.247 . S
C134 O128 1.261 . S
C135 O130 1.259 . S
C135 O132 1.235 . S
O136 Co126 2.021 . S
O136 C133 1.238 . S
O137 Co131 2.052 . S
O137 C133 1.241 . S
O138 Co126 2.137 . S
O138 C129 1.247 . S
O139 Co126 2.244 . S
O139 C129 1.272 . S
O139 Co131 2.135 . S
Co140 O141 2.216 . S
Co140 O142 2.091 . S
Co140 O144 2.004 . S
Co140 O150 2.021 . S
Co140 O152 2.137 . S
Co140 O153 2.244 . S
O141 Co140 2.216 . S
O141 C148 1.247 . S
O142 Co140 2.091 . S
O142 C148 1.261 . S
C143 O152 1.247 . S
C143 O153 1.272 . S
O144 Co140 2.004 . S
O144 C149 1.259 . S
Co145 O146 2.061 . S
Co145 O151 2.052 . S
Co145 O153 2.135 . S
O146 Co145 2.061 . S
O146 C149 1.235 . S
C147 O150 1.238 . S
C147 O151 1.241 . S
C148 O141 1.247 . S
C148 O142 1.261 . S
C149 O144 1.259 . S
C149 O146 1.235 . S
O150 Co140 2.021 . S
O150 C147 1.238 . S
O151 Co145 2.052 . S
O151 C147 1.241 . S
O152 Co140 2.137 . S
O152 C143 1.247 . S
O153 Co140 2.244 . S
O153 C143 1.272 . S
O153 Co145 2.135 . S
Co154 O155 2.216 . S
Co154 O156 2.091 . S
Co154 O158 2.004 . S
Co154 O164 2.021 . S
Co154 O166 2.137 . S
Co154 O167 2.244 . S
O155 Co154 2.216 . S
O155 C162 1.247 . S
O156 Co154 2.091 . S
O156 C162 1.261 . S
C157 O166 1.247 . S
C157 O167 1.272 . S
O158 Co154 2.004 . S
O158 C163 1.259 . S
Co159 O160 2.061 . S
Co159 O165 2.052 1_556 S
Co159 O167 2.135 . S
O160 Co159 2.061 . S
O160 C163 1.235 . S
C161 O164 1.238 1_554 S
C161 O165 1.241 . S
C162 O155 1.247 . S
C162 O156 1.261 . S
C163 O158 1.259 . S
C163 O160 1.235 . S
O164 Co154 2.021 . S
O164 C161 1.238 1_556 S
O165 Co159 2.052 1_554 S
O165 C161 1.241 . S
O166 Co154 2.137 . S
O166 C157 1.247 . S
O167 Co154 2.244 . S
O167 C157 1.272 . S
O167 Co159 2.135 . S
Co168 O169 2.216 . S
Co168 O170 2.091 . S
Co168 O172 2.004 . S
Co168 O178 2.021 . S
Co168 O180 2.137 . S
Co168 O181 2.244 . S
O169 Co168 2.216 . S
O169 C176 1.247 . S
O170 Co168 2.091 . S
O170 C176 1.261 . S
C171 O180 1.247 . S
C171 O181 1.272 . S
O172 Co168 2.004 . S
O172 C177 1.259 . S
Co173 O174 2.061 . S
Co173 O179 2.052 . S
Co173 O181 2.135 . S
O174 Co173 2.061 . S
O174 C177 1.235 . S
C175 O178 1.238 . S
C175 O179 1.241 . S
C176 O169 1.247 . S
C176 O170 1.261 . S
C177 O172 1.259 . S
C177 O174 1.235 . S
O178 Co168 2.021 . S
O178 C175 1.238 . S
O179 Co173 2.052 . S
O179 C175 1.241 . S
O180 Co168 2.137 . S
O180 C171 1.247 . S
O181 Co168 2.244 . S
O181 C171 1.272 . S
O181 Co173 2.135 . S
Co182 O183 2.216 . S
Co182 O184 2.091 . S
Co182 O186 2.004 . S
Co182 O192 2.021 . S
Co182 O194 2.137 . S
Co182 O195 2.244 . S
O183 Co182 2.216 . S
O183 C190 1.247 . S
O184 Co182 2.091 . S
O184 C190 1.261 . S
C185 O194 1.247 . S
C185 O195 1.272 . S
O186 Co182 2.004 . S
O186 C191 1.259 . S
Co187 O188 2.061 . S
Co187 O193 2.052 . S
Co187 O195 2.135 . S
O188 Co187 2.061 . S
O188 C191 1.235 . S
C189 O192 1.238 . S
C189 O193 1.241 . S
C190 O183 1.247 . S
C190 O184 1.261 . S
C191 O186 1.259 . S
C191 O188 1.235 . S
O192 Co182 2.021 . S
O192 C189 1.238 . S
O193 Co187 2.052 . S
O193 C189 1.241 . S
O194 Co182 2.137 . S
O194 C185 1.247 . S
O195 Co182 2.244 . S
O195 C185 1.272 . S
O195 Co187 2.135 . S
Co196 O197 2.216 . S
Co196 O198 2.091 . S
Co196 O200 2.004 . S
Co196 O206 2.021 . S
Co196 O208 2.137 . S
Co196 O209 2.244 . S
O197 Co196 2.216 . S
O197 C204 1.247 . S
O198 Co196 2.091 . S
O198 C204 1.261 . S
C199 O208 1.247 . S
C199 O209 1.272 . S
O200 Co196 2.004 . S
O200 C205 1.259 . S
Co201 O202 2.061 . S
Co201 O207 2.052 . S
Co201 O209 2.135 . S
O202 Co201 2.061 . S
O202 C205 1.235 . S
C203 O206 1.238 . S
C203 O207 1.241 . S
C204 O197 1.247 . S
C204 O198 1.261 . S
C205 O200 1.259 . S
C205 O202 1.235 . S
O206 Co196 2.021 . S
O206 C203 1.238 . S
O207 Co201 2.052 . S
O207 C203 1.241 . S
O208 Co196 2.137 . S
O208 C199 1.247 . S
O209 Co196 2.244 . S
O209 C199 1.272 . S
O209 Co201 2.135 . S
Co210 O211 2.216 . S
Co210 O212 2.091 . S
Co210 O214 2.004 . S
Co210 O220 2.021 . S
Co210 O222 2.137 . S
Co210 O223 2.244 . S
O211 Co210 2.216 . S
O211 C218 1.247 . S
O212 Co210 2.091 . S
O212 C218 1.261 . S
C213 O222 1.247 . S
C213 O223 1.272 . S
O214 Co210 2.004 . S
O214 C219 1.259 . S
Co215 O216 2.061 . S
Co215 O221 2.052 1_554 S
Co215 O223 2.135 . S
O216 Co215 2.061 . S
O216 C219 1.235 . S
C217 O220 1.238 1_556 S
C217 O221 1.241 . S
C218 O211 1.247 . S
C218 O212 1.261 . S
C219 O214 1.259 . S
C219 O216 1.235 . S
O220 Co210 2.021 . S
O220 C217 1.238 1_554 S
O221 Co215 2.052 1_556 S
O221 C217 1.241 . S
O222 Co210 2.137 . S
O222 C213 1.247 . S
O223 Co210 2.244 . S
O223 C213 1.272 . S
O223 Co215 2.135 . S
Co224 O225 2.216 . S
Co224 O226 2.091 . S
Co224 O228 2.004 . S
Co224 O234 2.021 . S
Co224 O236 2.137 . S
Co224 O237 2.244 . S
O225 Co224 2.216 . S
O225 C232 1.247 . S
O226 Co224 2.091 . S
O226 C232 1.261 . S
C227 O236 1.247 . S
C227 O237 1.272 . S
O228 Co224 2.004 . S
O228 C233 1.259 . S
Co229 O230 2.061 . S
Co229 O235 2.052 . S
Co229 O237 2.135 . S
O230 Co229 2.061 . S
O230 C233 1.235 . S
C231 O234 1.238 . S
C231 O235 1.241 . S
C232 O225 1.247 . S
C232 O226 1.261 . S
C233 O228 1.259 . S
C233 O230 1.235 . S
O234 Co224 2.021 . S
O234 C231 1.238 . S
O235 Co229 2.052 . S
O235 C231 1.241 . S
O236 Co224 2.137 . S
O236 C227 1.247 . S
O237 Co224 2.244 . S
O237 C227 1.272 . S
O237 Co229 2.135 . S
Co238 O239 2.216 . S
Co238 O240 2.091 . S
Co238 O242 2.004 . S
Co238 O248 2.021 . S
Co238 O250 2.137 . S
Co238 O251 2.244 . S
O239 Co238 2.216 . S
O239 C246 1.247 . S
O240 Co238 2.091 . S
O240 C246 1.261 . S
C241 O250 1.247 . S
C241 O251 1.272 . S
O242 Co238 2.004 . S
O242 C247 1.259 . S
Co243 O244 2.061 . S
Co243 O249 2.052 1_554 S
Co243 O251 2.135 . S
O244 Co243 2.061 . S
O244 C247 1.235 . S
C245 O248 1.238 1_556 S
C245 O249 1.241 . S
C246 O239 1.247 . S
C246 O240 1.261 . S
C247 O242 1.259 . S
C247 O244 1.235 . S
O248 Co238 2.021 . S
O248 C245 1.238 1_554 S
O249 Co243 2.052 1_556 S
O249 C245 1.241 . S
O250 Co238 2.137 . S
O250 C241 1.247 . S
O251 Co238 2.244 . S
O251 C241 1.272 . S
O251 Co243 2.135 . S
Co252 O253 2.216 . S
Co252 O254 2.091 . S
Co252 O256 2.004 . S
Co252 O262 2.021 . S
Co252 O264 2.137 . S
Co252 O265 2.244 . S
O253 Co252 2.216 . S
O253 C260 1.247 . S
O254 Co252 2.091 . S
O254 C260 1.261 . S
C255 O264 1.247 . S
C255 O265 1.272 . S
O256 Co252 2.004 . S
O256 C261 1.259 . S
Co257 O258 2.061 . S
Co257 O263 2.052 . S
Co257 O265 2.135 . S
O258 Co257 2.061 . S
O258 C261 1.235 . S
C259 O262 1.238 . S
C259 O263 1.241 . S
C260 O253 1.247 . S
C260 O254 1.261 . S
C261 O256 1.259 . S
C261 O258 1.235 . S
O262 Co252 2.021 . S
O262 C259 1.238 . S
O263 Co257 2.052 . S
O263 C259 1.241 . S
O264 Co252 2.137 . S
O264 C255 1.247 . S
O265 Co252 2.244 . S
O265 C255 1.272 . S
O265 Co257 2.135 . S
Co266 O267 2.216 . S
Co266 O268 2.091 . S
Co266 O270 2.004 . S
Co266 O276 2.021 . S
Co266 O278 2.137 . S
Co266 O279 2.244 . S
O267 Co266 2.216 . S
O267 C274 1.247 . S
O268 Co266 2.091 . S
O268 C274 1.261 . S
C269 O278 1.247 . S
C269 O279 1.272 . S
O270 Co266 2.004 . S
O270 C275 1.259 . S
Co271 O272 2.061 . S
Co271 O277 2.052 . S
Co271 O279 2.135 . S
O272 Co271 2.061 . S
O272 C275 1.235 . S
C273 O276 1.238 . S
C273 O277 1.241 . S
C274 O267 1.247 . S
C274 O268 1.261 . S
C275 O270 1.259 . S
C275 O272 1.235 . S
O276 Co266 2.021 . S
O276 C273 1.238 . S
O277 Co271 2.052 . S
O277 C273 1.241 . S
O278 Co266 2.137 . S
O278 C269 1.247 . S
O279 Co266 2.244 . S
O279 C269 1.272 . S
O279 Co271 2.135 . S
Co280 O281 2.216 . S
Co280 O282 2.091 . S
Co280 O284 2.004 . S
Co280 O290 2.021 . S
Co280 O292 2.137 . S
Co280 O293 2.244 . S
O281 Co280 2.216 . S
O281 C288 1.247 . S
O282 Co280 2.091 . S
O282 C288 1.261 . S
C283 O292 1.247 . S
C283 O293 1.272 . S
O284 Co280 2.004 . S
O284 C289 1.259 . S
Co285 O286 2.061 . S
Co285 O291 2.052 . S
Co285 O293 2.135 . S
O286 Co285 2.061 . S
O286 C289 1.235 . S
C287 O290 1.238 . S
C287 O291 1.241 . S
C288 O281 1.247 . S
C288 O282 1.261 . S
C289 O284 1.259 . S
C289 O286 1.235 . S
O290 Co280 2.021 . S
O290 C287 1.238 . S
O291 Co285 2.052 . S
O291 C287 1.241 . S
O292 Co280 2.137 . S
O292 C283 1.247 . S
O293 Co280 2.244 . S
O293 C283 1.272 . S
O293 Co285 2.135 . S
Co294 O295 2.216 . S
Co294 O296 2.091 . S
Co294 O298 2.004 . S
Co294 O304 2.021 . S
Co294 O306 2.137 . S
Co294 O307 2.244 . S
O295 Co294 2.216 . S
O295 C302 1.247 . S
O296 Co294 2.091 . S
O296 C302 1.261 . S
C297 O306 1.247 . S
C297 O307 1.272 . S
O298 Co294 2.004 . S
O298 C303 1.259 . S
Co299 O300 2.061 . S
Co299 O305 2.052 1_556 S
Co299 O307 2.135 . S
O300 Co299 2.061 . S
O300 C303 1.235 . S
C301 O304 1.238 1_554 S
C301 O305 1.241 . S
C302 O295 1.247 . S
C302 O296 1.261 . S
C303 O298 1.259 . S
C303 O300 1.235 . S
O304 Co294 2.021 . S
O304 C301 1.238 1_556 S
O305 Co299 2.052 1_554 S
O305 C301 1.241 . S
O306 Co294 2.137 . S
O306 C297 1.247 . S
O307 Co294 2.244 . S
O307 C297 1.272 . S
O307 Co299 2.135 . S
Co308 O309 2.216 . S
Co308 O310 2.091 . S
Co308 O312 2.004 . S
Co308 O318 2.021 . S
Co308 O320 2.137 . S
Co308 O321 2.244 . S
O309 Co308 2.216 . S
O309 C316 1.247 . S
O310 Co308 2.091 . S
O310 C316 1.261 . S
C311 O320 1.247 . S
C311 O321 1.272 . S
O312 Co308 2.004 . S
O312 C317 1.259 . S
Co313 O314 2.061 . S
Co313 O319 2.052 . S
Co313 O321 2.135 . S
O314 Co313 2.061 . S
O314 C317 1.235 . S
C315 O318 1.238 . S
C315 O319 1.241 . S
C316 O309 1.247 . S
C316 O310 1.261 . S
C317 O312 1.259 . S
C317 O314 1.235 . S
O318 Co308 2.021 . S
O318 C315 1.238 . S
O319 Co313 2.052 . S
O319 C315 1.241 . S
O320 Co308 2.137 . S
O320 C311 1.247 . S
O321 Co308 2.244 . S
O321 C311 1.272 . S
O321 Co313 2.135 . S
Co322 O323 2.216 . S
Co322 O324 2.091 . S
Co322 O326 2.004 . S
Co322 O332 2.021 . S
Co322 O334 2.137 . S
Co322 O335 2.244 . S
O323 Co322 2.216 . S
O323 C330 1.247 . S
O324 Co322 2.091 . S
O324 C330 1.261 . S
C325 O334 1.247 . S
C325 O335 1.272 . S
O326 Co322 2.004 . S
O326 C331 1.259 . S
Co327 O328 2.061 . S
Co327 O333 2.052 . S
Co327 O335 2.135 . S
O328 Co327 2.061 . S
O328 C331 1.235 . S
C329 O332 1.238 . S
C329 O333 1.241 . S
C330 O323 1.247 . S
C330 O324 1.261 . S
C331 O326 1.259 . S
C331 O328 1.235 . S
O332 Co322 2.021 . S
O332 C329 1.238 . S
O333 Co327 2.052 . S
O333 C329 1.241 . S
O334 Co322 2.137 . S
O334 C325 1.247 . S
O335 Co322 2.244 . S
O335 C325 1.272 . S
O335 Co327 2.135 . S
Co336 O337 2.216 . S
Co336 O338 2.091 . S
Co336 O340 2.004 . S
Co336 O346 2.021 . S
Co336 O348 2.137 . S
Co336 O349 2.244 . S
O337 Co336 2.216 . S
O337 C344 1.247 . S
O338 Co336 2.091 . S
O338 C344 1.261 . S
C339 O348 1.247 . S
C339 O349 1.272 . S
O340 Co336 2.004 . S
O340 C345 1.259 . S
Co341 O342 2.061 . S
Co341 O347 2.052 . S
Co341 O349 2.135 . S
O342 Co341 2.061 . S
O342 C345 1.235 . S
C343 O346 1.238 . S
C343 O347 1.241 . S
C344 O337 1.247 . S
C344 O338 1.261 . S
C345 O340 1.259 . S
C345 O342 1.235 . S
O346 Co336 2.021 . S
O346 C343 1.238 . S
O347 Co341 2.052 . S
O347 C343 1.241 . S
O348 Co336 2.137 . S
O348 C339 1.247 . S
O349 Co336 2.244 . S
O349 C339 1.272 . S
O349 Co341 2.135 . S
Co350 O351 2.216 . S
Co350 O352 2.091 . S
Co350 O354 2.004 . S
Co350 O360 2.021 . S
Co350 O362 2.137 . S
Co350 O363 2.244 . S
O351 Co350 2.216 . S
O351 C358 1.247 . S
O352 Co350 2.091 . S
O352 C358 1.261 . S
C353 O362 1.247 . S
C353 O363 1.272 . S
O354 Co350 2.004 . S
O354 C359 1.259 . S
Co355 O356 2.061 . S
Co355 O361 2.052 1_556 S
Co355 O363 2.135 . S
O356 Co355 2.061 . S
O356 C359 1.235 . S
C357 O360 1.238 1_554 S
C357 O361 1.241 . S
C358 O351 1.247 . S
C358 O352 1.261 . S
C359 O354 1.259 . S
C359 O356 1.235 . S
O360 Co350 2.021 . S
O360 C357 1.238 1_556 S
O361 Co355 2.052 1_554 S
O361 C357 1.241 . S
O362 Co350 2.137 . S
O362 C353 1.247 . S
O363 Co350 2.244 . S
O363 C353 1.272 . S
O363 Co355 2.135 . S
Co364 O365 2.216 . S
Co364 O366 2.091 . S
Co364 O368 2.004 . S
Co364 O374 2.021 . S
Co364 O376 2.137 . S
Co364 O377 2.244 . S
O365 Co364 2.216 . S
O365 C372 1.247 . S
O366 Co364 2.091 . S
O366 C372 1.261 . S
C367 O376 1.247 . S
C367 O377 1.272 . S
O368 Co364 2.004 . S
O368 C373 1.259 . S
Co369 O370 2.061 . S
Co369 O375 2.052 . S
Co369 O377 2.135 . S
O370 Co369 2.061 . S
O370 C373 1.235 . S
C371 O374 1.238 . S
C371 O375 1.241 . S
C372 O365 1.247 . S
C372 O366 1.261 . S
C373 O368 1.259 . S
C373 O370 1.235 . S
O374 Co364 2.021 . S
O374 C371 1.238 . S
O375 Co369 2.052 . S
O375 C371 1.241 . S
O376 Co364 2.137 . S
O376 C367 1.247 . S
O377 Co364 2.244 . S
O377 C367 1.272 . S
O377 Co369 2.135 . S
Co378 O379 2.216 . S
Co378 O380 2.091 . S
Co378 O382 2.004 . S
Co378 O388 2.021 . S
Co378 O390 2.137 . S
Co378 O391 2.244 . S
O379 Co378 2.216 . S
O379 C386 1.247 . S
O380 Co378 2.091 . S
O380 C386 1.261 . S
C381 O390 1.247 . S
C381 O391 1.272 . S
O382 Co378 2.004 . S
O382 C387 1.259 . S
Co383 O384 2.061 . S
Co383 O389 2.052 . S
Co383 O391 2.135 . S
O384 Co383 2.061 . S
O384 C387 1.235 . S
C385 O388 1.238 . S
C385 O389 1.241 . S
C386 O379 1.247 . S
C386 O380 1.261 . S
C387 O382 1.259 . S
C387 O384 1.235 . S
O388 Co378 2.021 . S
O388 C385 1.238 . S
O389 Co383 2.052 . S
O389 C385 1.241 . S
O390 Co378 2.137 . S
O390 C381 1.247 . S
O391 Co378 2.244 . S
O391 C381 1.272 . S
O391 Co383 2.135 . S
Co392 O393 2.216 . S
Co392 O394 2.091 . S
Co392 O396 2.004 . S
Co392 O402 2.021 . S
Co392 O404 2.137 . S
Co392 O405 2.244 . S
O393 Co392 2.216 . S
O393 C400 1.247 . S
O394 Co392 2.091 . S
O394 C400 1.261 . S
C395 O404 1.247 . S
C395 O405 1.272 . S
O396 Co392 2.004 . S
O396 C401 1.259 . S
Co397 O398 2.061 . S
Co397 O403 2.052 . S
Co397 O405 2.135 . S
O398 Co397 2.061 . S
O398 C401 1.235 . S
C399 O402 1.238 . S
C399 O403 1.241 . S
C400 O393 1.247 . S
C400 O394 1.261 . S
C401 O396 1.259 . S
C401 O398 1.235 . S
O402 Co392 2.021 . S
O402 C399 1.238 . S
O403 Co397 2.052 . S
O403 C399 1.241 . S
O404 Co392 2.137 . S
O404 C395 1.247 . S
O405 Co392 2.244 . S
O405 C395 1.272 . S
O405 Co397 2.135 . S
Co406 O407 2.216 . S
Co406 O408 2.091 . S
Co406 O410 2.004 . S
Co406 O416 2.021 . S
Co406 O418 2.137 . S
Co406 O419 2.244 . S
O407 Co406 2.216 . S
O407 C414 1.247 . S
O408 Co406 2.091 . S
O408 C414 1.261 . S
C409 O418 1.247 . S
C409 O419 1.272 . S
O410 Co406 2.004 . S
O410 C415 1.259 . S
Co411 O412 2.061 . S
Co411 O417 2.052 1_554 S
Co411 O419 2.135 . S
O412 Co411 2.061 . S
O412 C415 1.235 . S
C413 O416 1.238 1_556 S
C413 O417 1.241 . S
C414 O407 1.247 . S
C414 O408 1.261 . S
C415 O410 1.259 . S
C415 O412 1.235 . S
O416 Co406 2.021 . S
O416 C413 1.238 1_554 S
O417 Co411 2.052 1_556 S
O417 C413 1.241 . S
O418 Co406 2.137 . S
O418 C409 1.247 . S
O419 Co406 2.244 . S
O419 C409 1.272 . S
O419 Co411 2.135 . S
Co420 O421 2.216 . S
Co420 O422 2.091 . S
Co420 O424 2.004 . S
Co420 O430 2.021 . S
Co420 O432 2.137 . S
Co420 O433 2.244 . S
O421 Co420 2.216 . S
O421 C428 1.247 . S
O422 Co420 2.091 . S
O422 C428 1.261 . S
C423 O432 1.247 . S
C423 O433 1.272 . S
O424 Co420 2.004 . S
O424 C429 1.259 . S
Co425 O426 2.061 . S
Co425 O431 2.052 . S
Co425 O433 2.135 . S
O426 Co425 2.061 . S
O426 C429 1.235 . S
C427 O430 1.238 . S
C427 O431 1.241 . S
C428 O421 1.247 . S
C428 O422 1.261 . S
C429 O424 1.259 . S
C429 O426 1.235 . S
O430 Co420 2.021 . S
O430 C427 1.238 . S
O431 Co425 2.052 . S
O431 C427 1.241 . S
O432 Co420 2.137 . S
O432 C423 1.247 . S
O433 Co420 2.244 . S
O433 C423 1.272 . S
O433 Co425 2.135 . S
Co434 O435 2.216 . S
Co434 O436 2.091 . S
Co434 O438 2.004 . S
Co434 O444 2.021 . S
Co434 O446 2.137 . S
Co434 O447 2.244 . S
O435 Co434 2.216 . S
O435 C442 1.247 . S
O436 Co434 2.091 . S
O436 C442 1.261 . S
C437 O446 1.247 . S
C437 O447 1.272 . S
O438 Co434 2.004 . S
O438 C443 1.259 . S
Co439 O440 2.061 . S
Co439 O445 2.052 . S
Co439 O447 2.135 . S
O440 Co439 2.061 . S
O440 C443 1.235 . S
C441 O444 1.238 . S
C441 O445 1.241 . S
C442 O435 1.247 . S
C442 O436 1.261 . S
C443 O438 1.259 . S
C443 O440 1.235 . S
O444 Co434 2.021 . S
O444 C441 1.238 . S
O445 Co439 2.052 . S
O445 C441 1.241 . S
O446 Co434 2.137 . S
O446 C437 1.247 . S
O447 Co434 2.244 . S
O447 C437 1.272 . S
O447 Co439 2.135 . S
H448 C460 0.930 . S
H449 C462 0.930 . S
H450 C463 0.930 . S
H451 C467 0.959 . S
H452 C467 0.959 . S
H453 C467 0.961 . S
H454 C468 0.960 . S
H455 C468 0.961 . S
H456 C468 0.959 . S
H457 C471 0.929 . S
H458 C472 0.931 . S
H459 C474 0.930 . S
C460 H448 0.930 . S
C460 C461 1.399 . S
C460 C465 1.399 . S
C461 C460 1.399 . S
C461 C462 1.376 . S
C462 H449 0.930 . S
C462 C461 1.376 . S
C462 C463 1.388 . S
C463 H450 0.930 . S
C463 C462 1.388 . S
C463 C464 1.390 . S
C464 C463 1.390 . S
C464 C465 1.394 . S
C464 C470 1.465 . S
C465 C460 1.399 . S
C465 C464 1.394 . S
C465 C466 1.516 . S
C466 C465 1.516 . S
C466 C467 1.502 . S
C466 C468 1.561 . S
C466 C469 1.526 . S
C467 H451 0.959 . S
C467 H452 0.959 . S
C467 H453 0.961 . S
C467 C466 1.502 . S
C468 H454 0.960 . S
C468 H455 0.961 . S
C468 H456 0.959 . S
C468 C466 1.561 . S
C469 C466 1.526 . S
C469 C470 1.396 . S
C469 C474 1.390 . S
C470 C464 1.465 . S
C470 C469 1.396 . S
C470 C471 1.399 . S
C471 H457 0.929 . S
C471 C470 1.399 . S
C471 C472 1.385 . S
C472 H458 0.931 . S
C472 C471 1.385 . S
C472 C473 1.389 . S
C473 C472 1.389 . S
C473 C474 1.387 . S
C474 H459 0.930 . S
C474 C469 1.390 . S
C474 C473 1.387 . S
H475 C487 0.930 . S
H476 C489 0.905 1_655 S
H477 C490 0.930 . S
H478 C494 0.959 . S
H479 C494 0.959 . S
H480 C494 0.961 . S
H481 C495 0.960 . S
H482 C495 0.961 . S
H483 C495 0.959 . S
H484 C498 0.929 . S
H485 C499 0.931 . S
H486 C501 0.930 . S
C487 H475 0.930 . S
C487 C488 1.398 . S
C487 C492 1.399 . S
C488 C487 1.398 . S
C488 C489 1.376 . S
C489 H476 0.905 1_455 S
C489 C488 1.376 . S
C489 C490 1.415 . S
C490 H477 0.930 . S
C490 C489 1.415 . S
C490 C491 1.390 . S
C491 C490 1.390 . S
C491 C492 1.394 . S
C491 C497 1.465 . S
C492 C487 1.399 . S
C492 C491 1.394 . S
C492 C493 1.516 . S
C493 C492 1.516 . S
C493 C494 1.502 . S
C493 C495 1.561 . S
C493 C496 1.526 . S
C494 H478 0.959 . S
C494 H479 0.959 . S
C494 H480 0.961 . S
C494 C493 1.502 . S
C495 H481 0.960 . S
C495 H482 0.961 . S
C495 H483 0.959 . S
C495 C493 1.561 . S
C496 C493 1.526 . S
C496 C497 1.396 . S
C496 C501 1.390 . S
C497 C491 1.465 . S
C497 C496 1.396 . S
C497 C498 1.399 . S
C498 H484 0.929 . S
C498 C497 1.399 . S
C498 C499 1.385 . S
C499 H485 0.931 . S
C499 C498 1.385 . S
C499 C500 1.389 . S
C500 C499 1.389 . S
C500 C501 1.387 . S
C501 H486 0.930 . S
C501 C496 1.390 . S
C501 C500 1.387 . S
H502 C514 0.930 . S
H503 C516 0.930 . S
H504 C517 0.930 . S
H505 C521 0.959 . S
H506 C521 0.959 . S
H507 C521 0.961 . S
H508 C522 0.960 . S
H509 C522 0.961 . S
H510 C522 0.959 . S
H511 C525 0.929 . S
H512 C526 0.931 . S
H513 C528 0.930 . S
C514 H502 0.930 . S
C514 C515 1.399 . S
C514 C519 1.399 . S
C515 C514 1.399 . S
C515 C516 1.376 . S
C516 H503 0.930 . S
C516 C515 1.376 . S
C516 C517 1.388 . S
C517 H504 0.930 . S
C517 C516 1.388 . S
C517 C518 1.390 . S
C518 C517 1.390 . S
C518 C519 1.394 . S
C518 C524 1.465 . S
C519 C514 1.399 . S
C519 C518 1.394 . S
C519 C520 1.516 . S
C520 C519 1.516 . S
C520 C521 1.502 . S
C520 C522 1.561 . S
C520 C523 1.526 . S
C521 H505 0.959 . S
C521 H506 0.959 . S
C521 H507 0.961 . S
C521 C520 1.502 . S
C522 H508 0.960 . S
C522 H509 0.961 . S
C522 H510 0.959 . S
C522 C520 1.561 . S
C523 C520 1.526 . S
C523 C524 1.396 . S
C523 C528 1.390 . S
C524 C518 1.465 . S
C524 C523 1.396 . S
C524 C525 1.399 . S
C525 H511 0.929 . S
C525 C524 1.399 . S
C525 C526 1.385 . S
C526 H512 0.931 . S
C526 C525 1.385 . S
C526 C527 1.389 . S
C527 C526 1.389 . S
C527 C528 1.387 . S
C528 H513 0.930 . S
C528 C523 1.390 . S
C528 C527 1.387 . S
H529 C541 0.930 . S
H530 C543 0.930 . S
H531 C544 0.930 . S
H532 C548 0.959 . S
H533 C548 0.959 . S
H534 C548 0.961 . S
H535 C549 0.960 . S
H536 C549 0.961 . S
H537 C549 0.959 . S
H538 C552 0.929 . S
H539 C553 0.931 . S
H540 C555 0.930 . S
C541 H529 0.930 . S
C541 C542 1.399 . S
C541 C546 1.399 . S
C542 C541 1.399 . S
C542 C543 1.376 . S
C543 H530 0.930 . S
C543 C542 1.376 . S
C543 C544 1.388 . S
C544 H531 0.930 . S
C544 C543 1.388 . S
C544 C545 1.390 . S
C545 C544 1.390 . S
C545 C546 1.394 . S
C545 C551 1.465 . S
C546 C541 1.399 . S
C546 C545 1.394 . S
C546 C547 1.516 . S
C547 C546 1.516 . S
C547 C548 1.502 . S
C547 C549 1.561 . S
C547 C550 1.526 . S
C548 H532 0.959 . S
C548 H533 0.959 . S
C548 H534 0.961 . S
C548 C547 1.502 . S
C549 H535 0.960 . S
C549 H536 0.961 . S
C549 H537 0.959 . S
C549 C547 1.561 . S
C550 C547 1.526 . S
C550 C551 1.396 . S
C550 C555 1.390 . S
C551 C545 1.465 . S
C551 C550 1.396 . S
C551 C552 1.399 . S
C552 H538 0.929 . S
C552 C551 1.399 . S
C552 C553 1.385 . S
C553 H539 0.931 . S
C553 C552 1.385 . S
C553 C554 1.389 . S
C554 C553 1.389 . S
C554 C555 1.387 . S
C555 H540 0.930 . S
C555 C550 1.390 . S
C555 C554 1.387 . S
H556 C568 0.930 . S
H557 C570 0.930 . S
H558 C571 0.930 . S
H559 C575 0.959 . S
H560 C575 0.959 . S
H561 C575 0.961 . S
H562 C576 0.960 . S
H563 C576 0.961 . S
H564 C576 0.959 . S
H565 C579 0.929 . S
H566 C580 0.931 . S
H567 C582 0.930 . S
C568 H556 0.930 . S
C568 C569 1.399 . S
C568 C573 1.399 . S
C569 C568 1.399 . S
C569 C570 1.376 . S
C570 H557 0.930 . S
C570 C569 1.376 . S
C570 C571 1.388 . S
C571 H558 0.930 . S
C571 C570 1.388 . S
C571 C572 1.390 . S
C572 C571 1.390 . S
C572 C573 1.394 . S
C572 C578 1.465 . S
C573 C568 1.399 . S
C573 C572 1.394 . S
C573 C574 1.516 . S
C574 C573 1.516 . S
C574 C575 1.502 . S
C574 C576 1.561 . S
C574 C577 1.526 . S
C575 H559 0.959 . S
C575 H560 0.959 . S
C575 H561 0.961 . S
C575 C574 1.502 . S
C576 H562 0.960 . S
C576 H563 0.961 . S
C576 H564 0.959 . S
C576 C574 1.561 . S
C577 C574 1.526 . S
C577 C578 1.396 . S
C577 C582 1.390 . S
C578 C572 1.465 . S
C578 C577 1.396 . S
C578 C579 1.399 . S
C579 H565 0.929 . S
C579 C578 1.399 . S
C579 C580 1.385 . S
C580 H566 0.931 . S
C580 C579 1.385 . S
C580 C581 1.389 . S
C581 C580 1.389 . S
C581 C582 1.387 . S
C582 H567 0.930 . S
C582 C577 1.390 . S
C582 C581 1.387 . S
H583 C595 0.930 . S
H584 C597 0.930 . S
H585 C598 0.930 . S
H586 C602 0.959 . S
H587 C602 0.959 . S
H588 C602 0.961 . S
H589 C603 0.960 . S
H590 C603 0.961 . S
H591 C603 0.959 . S
H592 C606 0.929 . S
H593 C607 0.931 . S
H594 C609 0.930 . S
C595 H583 0.930 . S
C595 C596 1.399 . S
C595 C600 1.399 . S
C596 C595 1.399 . S
C596 C597 1.376 . S
C597 H584 0.930 . S
C597 C596 1.376 . S
C597 C598 1.388 . S
C598 H585 0.930 . S
C598 C597 1.388 . S
C598 C599 1.390 . S
C599 C598 1.390 . S
C599 C600 1.394 . S
C599 C605 1.465 . S
C600 C595 1.399 . S
C600 C599 1.394 . S
C600 C601 1.516 . S
C601 C600 1.516 . S
C601 C602 1.502 . S
C601 C603 1.561 . S
C601 C604 1.526 . S
C602 H586 0.959 . S
C602 H587 0.959 . S
C602 H588 0.961 . S
C602 C601 1.502 . S
C603 H589 0.960 . S
C603 H590 0.961 . S
C603 H591 0.959 . S
C603 C601 1.561 . S
C604 C601 1.526 . S
C604 C605 1.396 . S
C604 C609 1.390 . S
C605 C599 1.465 . S
C605 C604 1.396 . S
C605 C606 1.399 . S
C606 H592 0.929 . S
C606 C605 1.399 . S
C606 C607 1.385 . S
C607 H593 0.931 . S
C607 C606 1.385 . S
C607 C608 1.389 . S
C608 C607 1.389 . S
C608 C609 1.387 . S
C609 H594 0.930 . S
C609 C604 1.390 . S
C609 C608 1.387 . S
H610 C622 0.930 . S
H611 C624 0.930 . S
H612 C625 0.930 . S
H613 C629 0.959 . S
H614 C629 0.959 . S
H615 C629 0.961 . S
H616 C630 0.960 . S
H617 C630 0.961 . S
H618 C630 0.959 . S
H619 C633 0.929 . S
H620 C634 0.931 . S
H621 C636 0.930 . S
C622 H610 0.930 . S
C622 C623 1.399 . S
C622 C627 1.399 . S
C623 C622 1.399 . S
C623 C624 1.376 . S
C624 H611 0.930 . S
C624 C623 1.376 . S
C624 C625 1.388 . S
C625 H612 0.930 . S
C625 C624 1.388 . S
C625 C626 1.390 . S
C626 C625 1.390 . S
C626 C627 1.394 . S
C626 C632 1.465 . S
C627 C622 1.399 . S
C627 C626 1.394 . S
C627 C628 1.516 . S
C628 C627 1.516 . S
C628 C629 1.502 . S
C628 C630 1.561 . S
C628 C631 1.526 . S
C629 H613 0.959 . S
C629 H614 0.959 . S
C629 H615 0.961 . S
C629 C628 1.502 . S
C630 H616 0.960 . S
C630 H617 0.961 . S
C630 H618 0.959 . S
C630 C628 1.561 . S
C631 C628 1.526 . S
C631 C632 1.396 . S
C631 C636 1.390 . S
C632 C626 1.465 . S
C632 C631 1.396 . S
C632 C633 1.399 . S
C633 H619 0.929 . S
C633 C632 1.399 . S
C633 C634 1.385 . S
C634 H620 0.931 . S
C634 C633 1.385 . S
C634 C635 1.389 . S
C635 C634 1.389 . S
C635 C636 1.387 . S
C636 H621 0.930 . S
C636 C631 1.390 . S
C636 C635 1.387 . S
H637 C649 0.930 . S
H638 C651 0.930 . S
H639 C652 0.930 . S
H640 C656 0.959 . S
H641 C656 0.959 . S
H642 C656 0.961 . S
H643 C657 0.960 . S
H644 C657 0.961 . S
H645 C657 0.959 . S
H646 C660 0.929 . S
H647 C661 0.931 1_655 S
H648 C663 0.930 . S
C649 H637 0.930 . S
C649 C650 1.399 . S
C649 C654 1.399 . S
C650 C649 1.399 . S
C650 C651 1.376 . S
C651 H638 0.930 . S
C651 C650 1.376 . S
C651 C652 1.388 . S
C652 H639 0.930 . S
C652 C651 1.388 . S
C652 C653 1.390 . S
C653 C652 1.390 . S
C653 C654 1.394 . S
C653 C659 1.465 . S
C654 C649 1.399 . S
C654 C653 1.394 . S
C654 C655 1.516 . S
C655 C654 1.516 . S
C655 C656 1.502 . S
C655 C657 1.561 . S
C655 C658 1.526 . S
C656 H640 0.959 . S
C656 H641 0.959 . S
C656 H642 0.961 . S
C656 C655 1.502 . S
C657 H643 0.960 . S
C657 H644 0.961 . S
C657 H645 0.959 . S
C657 C655 1.561 . S
C658 C655 1.526 . S
C658 C659 1.396 . S
C658 C663 1.390 . S
C659 C653 1.465 . S
C659 C658 1.396 . S
C659 C660 1.399 . S
C660 H646 0.929 . S
C660 C659 1.399 . S
C660 C661 1.385 . S
C661 H647 0.931 1_455 S
C661 C660 1.385 . S
C661 C662 1.390 . S
C662 C661 1.390 . S
C662 C663 1.388 . S
C663 H648 0.930 . S
C663 C658 1.390 . S
C663 C662 1.388 . S
H664 C676 0.930 . S
H665 C678 0.930 . S
H666 C679 0.930 . S
H667 C683 0.959 . S
H668 C683 0.959 . S
H669 C683 0.961 . S
H670 C684 0.960 . S
H671 C684 0.961 . S
H672 C684 0.959 . S
H673 C687 0.929 . S
H674 C688 0.931 . S
H675 C690 0.930 . S
C676 H664 0.930 . S
C676 C677 1.399 . S
C676 C681 1.399 . S
C677 C676 1.399 . S
C677 C678 1.376 . S
C678 H665 0.930 . S
C678 C677 1.376 . S
C678 C679 1.388 . S
C679 H666 0.930 . S
C679 C678 1.388 . S
C679 C680 1.390 . S
C680 C679 1.390 . S
C680 C681 1.394 . S
C680 C686 1.465 . S
C681 C676 1.399 . S
C681 C680 1.394 . S
C681 C682 1.516 . S
C682 C681 1.516 . S
C682 C683 1.502 . S
C682 C684 1.561 . S
C682 C685 1.526 . S
C683 H667 0.959 . S
C683 H668 0.959 . S
C683 H669 0.961 . S
C683 C682 1.502 . S
C684 H670 0.960 . S
C684 H671 0.961 . S
C684 H672 0.959 . S
C684 C682 1.561 . S
C685 C682 1.526 . S
C685 C686 1.396 . S
C685 C690 1.390 . S
C686 C680 1.465 . S
C686 C685 1.396 . S
C686 C687 1.399 . S
C687 H673 0.929 . S
C687 C686 1.399 . S
C687 C688 1.385 . S
C688 H674 0.931 . S
C688 C687 1.385 . S
C688 C689 1.389 . S
C689 C688 1.389 . S
C689 C690 1.387 . S
C690 H675 0.930 . S
C690 C685 1.390 . S
C690 C689 1.387 . S
H691 C703 0.930 . S
H692 C705 0.930 . S
H693 C706 0.930 . S
H694 C710 0.959 . S
H695 C710 0.959 . S
H696 C710 0.961 . S
H697 C711 0.960 . S
H698 C711 0.961 . S
H699 C711 0.959 . S
H700 C714 0.929 . S
H701 C715 0.931 . S
H702 C717 0.930 . S
C703 H691 0.930 . S
C703 C704 1.399 . S
C703 C708 1.399 . S
C704 C703 1.399 . S
C704 C705 1.376 . S
C705 H692 0.930 . S
C705 C704 1.376 . S
C705 C706 1.388 . S
C706 H693 0.930 . S
C706 C705 1.388 . S
C706 C707 1.390 . S
C707 C706 1.390 . S
C707 C708 1.394 . S
C707 C713 1.465 . S
C708 C703 1.399 . S
C708 C707 1.394 . S
C708 C709 1.516 . S
C709 C708 1.516 . S
C709 C710 1.502 . S
C709 C711 1.561 . S
C709 C712 1.526 . S
C710 H694 0.959 . S
C710 H695 0.959 . S
C710 H696 0.961 . S
C710 C709 1.502 . S
C711 H697 0.960 . S
C711 H698 0.961 . S
C711 H699 0.959 . S
C711 C709 1.561 . S
C712 C709 1.526 . S
C712 C713 1.396 . S
C712 C717 1.390 . S
C713 C707 1.465 . S
C713 C712 1.396 . S
C713 C714 1.399 . S
C714 H700 0.929 . S
C714 C713 1.399 . S
C714 C715 1.385 . S
C715 H701 0.931 . S
C715 C714 1.385 . S
C715 C716 1.389 . S
C716 C715 1.389 . S
C716 C717 1.387 . S
C717 H702 0.930 . S
C717 C712 1.390 . S
C717 C716 1.387 . S
H718 C730 0.930 . S
H719 C732 0.930 . S
H720 C733 0.930 . S
H721 C737 0.959 . S
H722 C737 0.959 . S
H723 C737 0.961 . S
H724 C738 0.960 . S
H725 C738 0.961 . S
H726 C738 0.959 . S
H727 C741 0.929 . S
H728 C742 0.931 . S
H729 C744 0.930 . S
C730 H718 0.930 . S
C730 C731 1.399 . S
C730 C735 1.399 . S
C731 C730 1.399 . S
C731 C732 1.376 . S
C732 H719 0.930 . S
C732 C731 1.376 . S
C732 C733 1.388 . S
C733 H720 0.930 . S
C733 C732 1.388 . S
C733 C734 1.390 . S
C734 C733 1.390 . S
C734 C735 1.394 . S
C734 C740 1.465 . S
C735 C730 1.399 . S
C735 C734 1.394 . S
C735 C736 1.516 . S
C736 C735 1.516 . S
C736 C737 1.502 . S
C736 C738 1.561 . S
C736 C739 1.526 . S
C737 H721 0.959 . S
C737 H722 0.959 . S
C737 H723 0.961 . S
C737 C736 1.502 . S
C738 H724 0.960 . S
C738 H725 0.961 . S
C738 H726 0.959 . S
C738 C736 1.561 . S
C739 C736 1.526 . S
C739 C740 1.396 . S
C739 C744 1.390 . S
C740 C734 1.465 . S
C740 C739 1.396 . S
C740 C741 1.399 . S
C741 H727 0.929 . S
C741 C740 1.399 . S
C741 C742 1.385 . S
C742 H728 0.931 . S
C742 C741 1.385 . S
C742 C743 1.389 . S
C743 C742 1.389 . S
C743 C744 1.387 . S
C744 H729 0.930 . S
C744 C739 1.390 . S
C744 C743 1.387 . S
H745 C757 0.930 . S
H746 C759 0.930 . S
H747 C760 0.930 . S
H748 C764 0.959 . S
H749 C764 0.959 . S
H750 C764 0.961 . S
H751 C765 0.960 . S
H752 C765 0.961 . S
H753 C765 0.959 . S
H754 C768 0.929 . S
H755 C769 0.931 . S
H756 C771 0.930 . S
C757 H745 0.930 . S
C757 C758 1.399 . S
C757 C762 1.399 . S
C758 C757 1.399 . S
C758 C759 1.376 . S
C759 H746 0.930 . S
C759 C758 1.376 . S
C759 C760 1.388 . S
C760 H747 0.930 . S
C760 C759 1.388 . S
C760 C761 1.390 . S
C761 C760 1.390 . S
C761 C762 1.394 . S
C761 C767 1.465 . S
C762 C757 1.399 . S
C762 C761 1.394 . S
C762 C763 1.516 . S
C763 C762 1.516 . S
C763 C764 1.502 . S
C763 C765 1.561 . S
C763 C766 1.526 . S
C764 H748 0.959 . S
C764 H749 0.959 . S
C764 H750 0.961 . S
C764 C763 1.502 . S
C765 H751 0.960 . S
C765 H752 0.961 . S
C765 H753 0.959 . S
C765 C763 1.561 . S
C766 C763 1.526 . S
C766 C767 1.396 . S
C766 C771 1.390 . S
C767 C761 1.465 . S
C767 C766 1.396 . S
C767 C768 1.399 . S
C768 H754 0.929 . S
C768 C767 1.399 . S
C768 C769 1.385 . S
C769 H755 0.931 . S
C769 C768 1.385 . S
C769 C770 1.389 . S
C770 C769 1.389 . S
C770 C771 1.387 . S
C771 H756 0.930 . S
C771 C766 1.390 . S
C771 C770 1.387 . S
H772 C784 0.930 . S
H773 C786 0.930 . S
H774 C787 0.930 . S
H775 C791 0.959 . S
H776 C791 0.959 . S
H777 C791 0.961 . S
H778 C792 0.960 . S
H779 C792 0.961 . S
H780 C792 0.959 . S
H781 C795 0.929 . S
H782 C796 0.931 . S
H783 C798 0.930 . S
C784 H772 0.930 . S
C784 C785 1.399 . S
C784 C789 1.399 . S
C785 C784 1.399 . S
C785 C786 1.376 . S
C786 H773 0.930 . S
C786 C785 1.376 . S
C786 C787 1.388 . S
C787 H774 0.930 . S
C787 C786 1.388 . S
C787 C788 1.390 . S
C788 C787 1.390 . S
C788 C789 1.394 . S
C788 C794 1.465 . S
C789 C784 1.399 . S
C789 C788 1.394 . S
C789 C790 1.516 . S
C790 C789 1.516 . S
C790 C791 1.502 . S
C790 C792 1.561 . S
C790 C793 1.526 . S
C791 H775 0.959 . S
C791 H776 0.959 . S
C791 H777 0.961 . S
C791 C790 1.502 . S
C792 H778 0.960 . S
C792 H779 0.961 . S
C792 H780 0.959 . S
C792 C790 1.561 . S
C793 C790 1.526 . S
C793 C794 1.396 . S
C793 C798 1.390 . S
C794 C788 1.465 . S
C794 C793 1.396 . S
C794 C795 1.399 . S
C795 H781 0.929 . S
C795 C794 1.399 . S
C795 C796 1.385 . S
C796 H782 0.931 . S
C796 C795 1.385 . S
C796 C797 1.389 . S
C797 C796 1.389 . S
C797 C798 1.387 . S
C798 H783 0.930 . S
C798 C793 1.390 . S
C798 C797 1.387 . S
H799 C811 0.930 . S
H800 C813 0.930 . S
H801 C814 0.930 . S
H802 C818 0.959 . S
H803 C818 0.959 . S
H804 C818 0.961 . S
H805 C819 0.960 . S
H806 C819 0.961 . S
H807 C819 0.959 . S
H808 C822 0.929 . S
H809 C823 0.931 . S
H810 C825 0.930 . S
C811 H799 0.930 . S
C811 C812 1.399 . S
C811 C816 1.399 . S
C812 C811 1.399 . S
C812 C813 1.376 . S
C813 H800 0.930 . S
C813 C812 1.376 . S
C813 C814 1.388 . S
C814 H801 0.930 . S
C814 C813 1.388 . S
C814 C815 1.390 . S
C815 C814 1.390 . S
C815 C816 1.394 . S
C815 C821 1.465 . S
C816 C811 1.399 . S
C816 C815 1.394 . S
C816 C817 1.516 . S
C817 C816 1.516 . S
C817 C818 1.502 . S
C817 C819 1.561 . S
C817 C820 1.526 . S
C818 H802 0.959 . S
C818 H803 0.959 . S
C818 H804 0.961 . S
C818 C817 1.502 . S
C819 H805 0.960 . S
C819 H806 0.961 . S
C819 H807 0.959 . S
C819 C817 1.561 . S
C820 C817 1.526 . S
C820 C821 1.396 . S
C820 C825 1.390 . S
C821 C815 1.465 . S
C821 C820 1.396 . S
C821 C822 1.399 . S
C822 H808 0.929 . S
C822 C821 1.399 . S
C822 C823 1.385 . S
C823 H809 0.931 . S
C823 C822 1.385 . S
C823 C824 1.389 . S
C824 C823 1.389 . S
C824 C825 1.387 . S
C825 H810 0.930 . S
C825 C820 1.390 . S
C825 C824 1.387 . S
H826 C838 0.930 . S
H827 C840 0.930 . S
H828 C841 0.930 . S
H829 C845 0.959 . S
H830 C845 0.959 . S
H831 C845 0.961 . S
H832 C846 0.960 . S
H833 C846 0.961 . S
H834 C846 0.959 . S
H835 C849 0.929 . S
H836 C850 0.931 . S
H837 C852 0.930 . S
C838 H826 0.930 . S
C838 C839 1.399 . S
C838 C843 1.399 . S
C839 C838 1.399 . S
C839 C840 1.376 . S
C840 H827 0.930 . S
C840 C839 1.376 . S
C840 C841 1.388 . S
C841 H828 0.930 . S
C841 C840 1.388 . S
C841 C842 1.390 . S
C842 C841 1.390 . S
C842 C843 1.394 . S
C842 C848 1.465 . S
C843 C838 1.399 . S
C843 C842 1.394 . S
C843 C844 1.516 . S
C844 C843 1.516 . S
C844 C845 1.502 . S
C844 C846 1.561 . S
C844 C847 1.526 . S
C845 H829 0.959 . S
C845 H830 0.959 . S
C845 H831 0.961 . S
C845 C844 1.502 . S
C846 H832 0.960 . S
C846 H833 0.961 . S
C846 H834 0.959 . S
C846 C844 1.561 . S
C847 C844 1.526 . S
C847 C848 1.396 . S
C847 C852 1.390 . S
C848 C842 1.465 . S
C848 C847 1.396 . S
C848 C849 1.399 . S
C849 H835 0.929 . S
C849 C848 1.399 . S
C849 C850 1.385 . S
C850 H836 0.931 . S
C850 C849 1.385 . S
C850 C851 1.389 . S
C851 C850 1.389 . S
C851 C852 1.387 . S
C852 H837 0.930 . S
C852 C847 1.390 . S
C852 C851 1.387 . S
H853 C865 0.930 . S
H854 C867 0.930 . S
H855 C868 0.930 . S
H856 C872 0.959 . S
H857 C872 0.959 . S
H858 C872 0.961 . S
H859 C873 0.960 . S
H860 C873 0.961 . S
H861 C873 0.959 . S
H862 C876 0.929 . S
H863 C877 0.931 . S
H864 C879 0.930 . S
C865 H853 0.930 . S
C865 C866 1.399 . S
C865 C870 1.399 . S
C866 C865 1.399 . S
C866 C867 1.376 . S
C867 H854 0.930 . S
C867 C866 1.376 . S
C867 C868 1.388 . S
C868 H855 0.930 . S
C868 C867 1.388 . S
C868 C869 1.390 . S
C869 C868 1.390 . S
C869 C870 1.394 . S
C869 C875 1.465 . S
C870 C865 1.399 . S
C870 C869 1.394 . S
C870 C871 1.516 . S
C871 C870 1.516 . S
C871 C872 1.502 . S
C871 C873 1.561 . S
C871 C874 1.526 . S
C872 H856 0.959 . S
C872 H857 0.959 . S
C872 H858 0.961 . S
C872 C871 1.502 . S
C873 H859 0.960 . S
C873 H860 0.961 . S
C873 H861 0.959 . S
C873 C871 1.561 . S
C874 C871 1.526 . S
C874 C875 1.396 . S
C874 C879 1.390 . S
C875 C869 1.465 . S
C875 C874 1.396 . S
C875 C876 1.399 . S
C876 H862 0.929 . S
C876 C875 1.399 . S
C876 C877 1.385 . S
C877 H863 0.931 . S
C877 C876 1.385 . S
C877 C878 1.403 . S
C878 C877 1.403 . S
C878 C879 1.398 . S
C879 H864 0.930 . S
C879 C874 1.390 . S
C879 C878 1.398 . S
H880 C892 0.930 . S
H881 C894 0.930 . S
H882 C895 0.930 . S
H883 C899 0.959 . S
H884 C899 0.959 . S
H885 C899 0.961 . S
H886 C900 0.960 . S
H887 C900 0.961 . S
H888 C900 0.959 . S
H889 C903 0.929 . S
H890 C904 0.931 . S
H891 C906 0.930 . S
C892 H880 0.930 . S
C892 C893 1.399 . S
C892 C897 1.399 . S
C893 C892 1.399 . S
C893 C894 1.376 . S
C894 H881 0.930 . S
C894 C893 1.376 . S
C894 C895 1.388 . S
C895 H882 0.930 . S
C895 C894 1.388 . S
C895 C896 1.390 . S
C896 C895 1.390 . S
C896 C897 1.394 . S
C896 C902 1.465 . S
C897 C892 1.399 . S
C897 C896 1.394 . S
C897 C898 1.516 . S
C898 C897 1.516 . S
C898 C899 1.502 . S
C898 C900 1.561 . S
C898 C901 1.526 . S
C899 H883 0.959 . S
C899 H884 0.959 . S
C899 H885 0.961 . S
C899 C898 1.502 . S
C900 H886 0.960 . S
C900 H887 0.961 . S
C900 H888 0.959 . S
C900 C898 1.561 . S
C901 C898 1.526 . S
C901 C902 1.396 . S
C901 C906 1.390 . S
C902 C896 1.465 . S
C902 C901 1.396 . S
C902 C903 1.399 . S
C903 H889 0.929 . S
C903 C902 1.399 . S
C903 C904 1.385 . S
C904 H890 0.931 . S
C904 C903 1.385 . S
C904 C905 1.389 . S
C905 C904 1.389 . S
C905 C906 1.387 . S
C906 H891 0.930 . S
C906 C901 1.390 . S
C906 C905 1.387 . S
H907 C919 0.930 . S
H908 C921 0.930 . S
H909 C922 0.930 . S
H910 C926 0.959 . S
H911 C926 0.959 . S
H912 C926 0.961 . S
H913 C927 0.960 . S
H914 C927 0.961 . S
H915 C927 0.959 . S
H916 C930 0.929 . S
H917 C931 0.931 . S
H918 C933 0.930 . S
C919 H907 0.930 . S
C919 C920 1.399 . S
C919 C924 1.399 . S
C920 C919 1.399 . S
C920 C921 1.376 . S
C921 H908 0.930 . S
C921 C920 1.376 . S
C921 C922 1.388 . S
C922 H909 0.930 . S
C922 C921 1.388 . S
C922 C923 1.390 . S
C923 C922 1.390 . S
C923 C924 1.394 . S
C923 C929 1.465 . S
C924 C919 1.399 . S
C924 C923 1.394 . S
C924 C925 1.516 . S
C925 C924 1.516 . S
C925 C926 1.502 . S
C925 C927 1.561 . S
C925 C928 1.526 . S
C926 H910 0.959 . S
C926 H911 0.959 . S
C926 H912 0.961 . S
C926 C925 1.502 . S
C927 H913 0.960 . S
C927 H914 0.961 . S
C927 H915 0.959 . S
C927 C925 1.561 . S
C928 C925 1.526 . S
C928 C929 1.396 . S
C928 C933 1.390 . S
C929 C923 1.465 . S
C929 C928 1.396 . S
C929 C930 1.399 . S
C930 H916 0.929 . S
C930 C929 1.399 . S
C930 C931 1.385 . S
C931 H917 0.931 . S
C931 C930 1.385 . S
C931 C932 1.389 . S
C932 C931 1.389 . S
C932 C933 1.387 . S
C933 H918 0.930 . S
C933 C928 1.390 . S
C933 C932 1.387 . S
H934 C946 0.930 . S
H935 C948 0.930 . S
H936 C949 0.930 . S
H937 C953 0.959 . S
H938 C953 0.959 . S
H939 C953 0.961 . S
H940 C954 0.960 . S
H941 C954 0.961 . S
H942 C954 0.959 . S
H943 C957 0.929 . S
H944 C958 0.931 . S
H945 C960 0.930 . S
C946 H934 0.930 . S
C946 C947 1.399 . S
C946 C951 1.399 . S
C947 C946 1.399 . S
C947 C948 1.376 . S
C948 H935 0.930 . S
C948 C947 1.376 . S
C948 C949 1.388 . S
C949 H936 0.930 . S
C949 C948 1.388 . S
C949 C950 1.390 . S
C950 C949 1.390 . S
C950 C951 1.394 . S
C950 C956 1.465 . S
C951 C946 1.399 . S
C951 C950 1.394 . S
C951 C952 1.516 . S
C952 C951 1.516 . S
C952 C953 1.502 . S
C952 C954 1.561 . S
C952 C955 1.526 . S
C953 H937 0.959 . S
C953 H938 0.959 . S
C953 H939 0.961 . S
C953 C952 1.502 . S
C954 H940 0.960 . S
C954 H941 0.961 . S
C954 H942 0.959 . S
C954 C952 1.561 . S
C955 C952 1.526 . S
C955 C956 1.396 . S
C955 C960 1.390 . S
C956 C950 1.465 . S
C956 C955 1.396 . S
C956 C957 1.399 . S
C957 H943 0.929 . S
C957 C956 1.399 . S
C957 C958 1.385 . S
C958 H944 0.931 . S
C958 C957 1.385 . S
C958 C959 1.389 . S
C959 C958 1.389 . S
C959 C960 1.387 . S
C960 H945 0.930 . S
C960 C955 1.390 . S
C960 C959 1.387 . S
H961 C973 0.930 . S
H962 C975 0.930 . S
H963 C976 0.930 . S
H964 C980 0.959 . S
H965 C980 0.959 . S
H966 C980 0.961 . S
H967 C981 0.960 . S
H968 C981 0.961 . S
H969 C981 0.959 . S
H970 C984 0.929 . S
H971 C985 0.931 . S
H972 C987 0.930 . S
C973 H961 0.930 . S
C973 C974 1.399 . S
C973 C978 1.399 . S
C974 C973 1.399 . S
C974 C975 1.376 . S
C975 H962 0.930 . S
C975 C974 1.376 . S
C975 C976 1.388 . S
C976 H963 0.930 . S
C976 C975 1.388 . S
C976 C977 1.390 . S
C977 C976 1.390 . S
C977 C978 1.394 . S
C977 C983 1.465 . S
C978 C973 1.399 . S
C978 C977 1.394 . S
C978 C979 1.516 . S
C979 C978 1.516 . S
C979 C980 1.502 . S
C979 C981 1.561 . S
C979 C982 1.526 . S
C980 H964 0.959 . S
C980 H965 0.959 . S
C980 H966 0.961 . S
C980 C979 1.502 . S
C981 H967 0.960 . S
C981 H968 0.961 . S
C981 H969 0.959 . S
C981 C979 1.561 . S
C982 C979 1.526 . S
C982 C983 1.396 . S
C982 C987 1.390 . S
C983 C977 1.465 . S
C983 C982 1.396 . S
C983 C984 1.399 . S
C984 H970 0.929 . S
C984 C983 1.399 . S
C984 C985 1.385 1_655 S
C985 H971 0.931 . S
C985 C984 1.385 1_455 S
C985 C986 1.391 . S
C986 C985 1.391 . S
C986 C987 1.360 1_455 S
C987 H972 0.930 . S
C987 C982 1.390 . S
C987 C986 1.360 1_655 S
H988 C1000 0.930 . S
H989 C1002 0.930 . S
H990 C1003 0.930 . S
H991 C1007 0.959 . S
H992 C1007 0.959 . S
H993 C1007 0.961 . S
H994 C1008 0.960 . S
H995 C1008 0.961 . S
H996 C1008 0.959 . S
H997 C1011 0.929 . S
H998 C1012 0.931 . S
H999 C1014 0.930 . S
C1000 H988 0.930 . S
C1000 C1001 1.399 . S
C1000 C1005 1.399 . S
C1001 C1000 1.399 . S
C1001 C1002 1.376 . S
C1002 H989 0.930 . S
C1002 C1001 1.376 . S
C1002 C1003 1.388 . S
C1003 H990 0.930 . S
C1003 C1002 1.388 . S
C1003 C1004 1.390 . S
C1004 C1003 1.390 . S
C1004 C1005 1.394 . S
C1004 C1010 1.465 . S
C1005 C1000 1.399 . S
C1005 C1004 1.394 . S
C1005 C1006 1.516 . S
C1006 C1005 1.516 . S
C1006 C1007 1.502 . S
C1006 C1008 1.561 . S
C1006 C1009 1.526 . S
C1007 H991 0.959 . S
C1007 H992 0.959 . S
C1007 H993 0.961 . S
C1007 C1006 1.502 . S
C1008 H994 0.960 . S
C1008 H995 0.961 . S
C1008 H996 0.959 . S
C1008 C1006 1.561 . S
C1009 C1006 1.526 . S
C1009 C1010 1.396 . S
C1009 C1014 1.390 . S
C1010 C1004 1.465 . S
C1010 C1009 1.396 . S
C1010 C1011 1.399 . S
C1011 H997 0.929 . S
C1011 C1010 1.399 . S
C1011 C1012 1.385 . S
C1012 H998 0.931 . S
C1012 C1011 1.385 . S
C1012 C1013 1.389 . S
C1013 C1012 1.389 . S
C1013 C1014 1.387 . S
C1014 H999 0.930 . S
C1014 C1009 1.390 . S
C1014 C1013 1.387 . S
H1015 C1027 0.938 . S
H1016 C1029 0.930 . S
H1017 C1030 0.930 . S
H1018 C1034 0.959 . S
H1019 C1034 0.959 . S
H1020 C1034 0.961 . S
H1021 C1035 0.960 . S
H1022 C1035 0.961 . S
H1023 C1035 0.959 . S
H1024 C1038 0.929 . S
H1025 C1039 0.931 . S
H1026 C1041 0.930 . S
C1027 H1015 0.938 . S
C1027 C1028 1.399 . S
C1027 C1032 1.399 . S
C1028 C1027 1.399 . S
C1028 C1029 1.376 . S
C1029 H1016 0.930 . S
C1029 C1028 1.376 . S
C1029 C1030 1.388 . S
C1030 H1017 0.930 . S
C1030 C1029 1.388 . S
C1030 C1031 1.390 . S
C1031 C1030 1.390 . S
C1031 C1032 1.394 . S
C1031 C1037 1.465 . S
C1032 C1027 1.399 . S
C1032 C1031 1.394 . S
C1032 C1033 1.516 . S
C1033 C1032 1.516 . S
C1033 C1034 1.502 . S
C1033 C1035 1.561 . S
C1033 C1036 1.526 . S
C1034 H1018 0.959 . S
C1034 H1019 0.959 . S
C1034 H1020 0.961 . S
C1034 C1033 1.502 . S
C1035 H1021 0.960 . S
C1035 H1022 0.961 . S
C1035 H1023 0.959 . S
C1035 C1033 1.561 . S
C1036 C1033 1.526 . S
C1036 C1037 1.396 . S
C1036 C1041 1.390 . S
C1037 C1031 1.465 . S
C1037 C1036 1.396 . S
C1037 C1038 1.399 . S
C1038 H1024 0.929 . S
C1038 C1037 1.399 . S
C1038 C1039 1.385 . S
C1039 H1025 0.931 . S
C1039 C1038 1.385 . S
C1039 C1040 1.389 . S
C1040 C1039 1.389 . S
C1040 C1041 1.387 . S
C1041 H1026 0.930 . S
C1041 C1036 1.390 . S
C1041 C1040 1.387 . S
H1042 C1054 0.930 . S
H1043 C1056 0.930 . S
H1044 C1057 0.930 . S
H1045 C1061 0.959 . S
H1046 C1061 0.959 . S
H1047 C1061 0.961 . S
H1048 C1062 0.960 . S
H1049 C1062 0.961 . S
H1050 C1062 0.959 . S
H1051 C1065 0.929 . S
H1052 C1066 0.931 . S
H1053 C1068 0.930 . S
C1054 H1042 0.930 . S
C1054 C1055 1.399 . S
C1054 C1059 1.399 . S
C1055 C1054 1.399 . S
C1055 C1056 1.376 . S
C1056 H1043 0.930 . S
C1056 C1055 1.376 . S
C1056 C1057 1.388 . S
C1057 H1044 0.930 . S
C1057 C1056 1.388 . S
C1057 C1058 1.390 . S
C1058 C1057 1.390 . S
C1058 C1059 1.394 . S
C1058 C1064 1.465 . S
C1059 C1054 1.399 . S
C1059 C1058 1.394 . S
C1059 C1060 1.516 . S
C1060 C1059 1.516 . S
C1060 C1061 1.502 . S
C1060 C1062 1.561 . S
C1060 C1063 1.526 . S
C1061 H1045 0.959 . S
C1061 H1046 0.959 . S
C1061 H1047 0.961 . S
C1061 C1060 1.502 . S
C1062 H1048 0.960 . S
C1062 H1049 0.961 . S
C1062 H1050 0.959 . S
C1062 C1060 1.561 . S
C1063 C1060 1.526 . S
C1063 C1064 1.396 . S
C1063 C1068 1.390 . S
C1064 C1058 1.465 . S
C1064 C1063 1.396 . S
C1064 C1065 1.399 . S
C1065 H1051 0.929 . S
C1065 C1064 1.399 . S
C1065 C1066 1.385 . S
C1066 H1052 0.931 . S
C1066 C1065 1.385 . S
C1066 C1067 1.389 . S
C1067 C1066 1.389 . S
C1067 C1068 1.387 . S
C1068 H1053 0.930 . S
C1068 C1063 1.390 . S
C1068 C1067 1.387 . S
H1069 C1081 0.930 . S
H1070 C1083 0.930 . S
H1071 C1084 0.930 . S
H1072 C1088 0.959 . S
H1073 C1088 0.959 . S
H1074 C1088 0.961 . S
H1075 C1089 0.960 . S
H1076 C1089 0.961 . S
H1077 C1089 0.959 . S
H1078 C1092 0.929 . S
H1079 C1093 0.931 . S
H1080 C1095 0.930 . S
C1081 H1069 0.930 . S
C1081 C1082 1.399 . S
C1081 C1086 1.399 . S
C1082 C1081 1.399 . S
C1082 C1083 1.376 . S
C1083 H1070 0.930 . S
C1083 C1082 1.376 . S
C1083 C1084 1.388 . S
C1084 H1071 0.930 . S
C1084 C1083 1.388 . S
C1084 C1085 1.390 . S
C1085 C1084 1.390 . S
C1085 C1086 1.394 . S
C1085 C1091 1.465 . S
C1086 C1081 1.399 . S
C1086 C1085 1.394 . S
C1086 C1087 1.516 . S
C1087 C1086 1.516 . S
C1087 C1088 1.502 . S
C1087 C1089 1.561 . S
C1087 C1090 1.526 . S
C1088 H1072 0.959 . S
C1088 H1073 0.959 . S
C1088 H1074 0.961 . S
C1088 C1087 1.502 . S
C1089 H1075 0.960 . S
C1089 H1076 0.961 . S
C1089 H1077 0.959 . S
C1089 C1087 1.561 . S
C1090 C1087 1.526 . S
C1090 C1091 1.396 . S
C1090 C1095 1.390 . S
C1091 C1085 1.465 . S
C1091 C1090 1.396 . S
C1091 C1092 1.399 . S
C1092 H1078 0.929 . S
C1092 C1091 1.399 . S
C1092 C1093 1.385 . S
C1093 H1079 0.931 . S
C1093 C1092 1.385 . S
C1093 C1094 1.389 . S
C1094 C1093 1.389 . S
C1094 C1095 1.387 . S
C1095 H1080 0.930 . S
C1095 C1090 1.390 . S
C1095 C1094 1.387 . S
H1096 C1108 0.930 . S
H1097 C1110 0.930 . S
H1098 C1111 0.930 . S
H1099 C1115 0.959 . S
H1100 C1115 0.959 . S
H1101 C1115 0.961 . S
H1102 C1116 0.960 . S
H1103 C1116 0.961 . S
H1104 C1116 0.959 . S
H1105 C1119 0.929 . S
H1106 C1120 0.931 . S
H1107 C1122 0.930 . S
C1108 H1096 0.930 . S
C1108 C1109 1.399 . S
C1108 C1113 1.399 . S
C1109 C1108 1.399 . S
C1109 C1110 1.376 . S
C1110 H1097 0.930 . S
C1110 C1109 1.376 . S
C1110 C1111 1.388 . S
C1111 H1098 0.930 . S
C1111 C1110 1.388 . S
C1111 C1112 1.390 . S
C1112 C1111 1.390 . S
C1112 C1113 1.394 . S
C1112 C1118 1.465 . S
C1113 C1108 1.399 . S
C1113 C1112 1.394 . S
C1113 C1114 1.516 . S
C1114 C1113 1.516 . S
C1114 C1115 1.502 . S
C1114 C1116 1.561 . S
C1114 C1117 1.526 . S
C1115 H1099 0.959 . S
C1115 H1100 0.959 . S
C1115 H1101 0.961 . S
C1115 C1114 1.502 . S
C1116 H1102 0.960 . S
C1116 H1103 0.961 . S
C1116 H1104 0.959 . S
C1116 C1114 1.561 . S
C1117 C1114 1.526 . S
C1117 C1118 1.396 . S
C1117 C1122 1.390 . S
C1118 C1112 1.465 . S
C1118 C1117 1.396 . S
C1118 C1119 1.399 . S
C1119 H1105 0.929 . S
C1119 C1118 1.399 . S
C1119 C1120 1.385 . S
C1120 H1106 0.931 . S
C1120 C1119 1.385 . S
C1120 C1121 1.389 . S
C1121 C1120 1.389 . S
C1121 C1122 1.387 . S
C1122 H1107 0.930 . S
C1122 C1117 1.390 . S
C1122 C1121 1.387 . S
H1123 C1135 0.930 . S
H1124 C1137 0.930 . S
H1125 C1138 0.930 . S
H1126 C1142 0.959 . S
H1127 C1142 0.959 . S
H1128 C1142 0.961 . S
H1129 C1143 0.960 . S
H1130 C1143 0.961 . S
H1131 C1143 0.959 . S
H1132 C1146 0.929 . S
H1133 C1147 0.931 . S
H1134 C1149 0.930 . S
C1135 H1123 0.930 . S
C1135 C1136 1.399 . S
C1135 C1140 1.399 . S
C1136 C1135 1.399 . S
C1136 C1137 1.376 . S
C1137 H1124 0.930 . S
C1137 C1136 1.376 . S
C1137 C1138 1.388 . S
C1138 H1125 0.930 . S
C1138 C1137 1.388 . S
C1138 C1139 1.390 . S
C1139 C1138 1.390 . S
C1139 C1140 1.394 . S
C1139 C1145 1.465 . S
C1140 C1135 1.399 . S
C1140 C1139 1.394 . S
C1140 C1141 1.516 . S
C1141 C1140 1.516 . S
C1141 C1142 1.502 . S
C1141 C1143 1.561 . S
C1141 C1144 1.526 . S
C1142 H1126 0.959 . S
C1142 H1127 0.959 . S
C1142 H1128 0.961 . S
C1142 C1141 1.502 . S
C1143 H1129 0.960 . S
C1143 H1130 0.961 . S
C1143 H1131 0.959 . S
C1143 C1141 1.561 . S
C1144 C1141 1.526 . S
C1144 C1145 1.396 . S
C1144 C1149 1.390 . S
C1145 C1139 1.465 . S
C1145 C1144 1.396 . S
C1145 C1146 1.399 . S
C1146 H1132 0.929 . S
C1146 C1145 1.399 . S
C1146 C1147 1.385 . S
C1147 H1133 0.931 . S
C1147 C1146 1.385 . S
C1147 C1148 1.389 . S
C1148 C1147 1.389 . S
C1148 C1149 1.387 . S
C1149 H1134 0.930 . S
C1149 C1144 1.390 . S
C1149 C1148 1.387 . S
H1150 C1162 0.930 . S
H1151 C1164 0.930 . S
H1152 C1165 0.930 . S
H1153 C1169 0.959 . S
H1154 C1169 0.959 . S
H1155 C1169 0.961 . S
H1156 C1170 0.960 . S
H1157 C1170 0.961 . S
H1158 C1170 0.959 . S
H1159 C1173 0.929 . S
H1160 C1174 0.931 . S
H1161 C1176 0.930 . S
C1162 H1150 0.930 . S
C1162 C1163 1.399 . S
C1162 C1167 1.399 . S
C1163 C1162 1.399 . S
C1163 C1164 1.376 . S
C1164 H1151 0.930 . S
C1164 C1163 1.376 . S
C1164 C1165 1.388 . S
C1165 H1152 0.930 . S
C1165 C1164 1.388 . S
C1165 C1166 1.390 . S
C1166 C1165 1.390 . S
C1166 C1167 1.394 . S
C1166 C1172 1.465 . S
C1167 C1162 1.399 . S
C1167 C1166 1.394 . S
C1167 C1168 1.516 . S
C1168 C1167 1.516 . S
C1168 C1169 1.502 . S
C1168 C1170 1.561 . S
C1168 C1171 1.526 . S
C1169 H1153 0.959 . S
C1169 H1154 0.959 . S
C1169 H1155 0.961 . S
C1169 C1168 1.502 . S
C1170 H1156 0.960 . S
C1170 H1157 0.961 . S
C1170 H1158 0.959 . S
C1170 C1168 1.561 . S
C1171 C1168 1.526 . S
C1171 C1172 1.396 . S
C1171 C1176 1.390 . S
C1172 C1166 1.465 . S
C1172 C1171 1.396 . S
C1172 C1173 1.399 . S
C1173 H1159 0.929 . S
C1173 C1172 1.399 . S
C1173 C1174 1.385 . S
C1174 H1160 0.931 . S
C1174 C1173 1.385 . S
C1174 C1175 1.389 . S
C1175 C1174 1.389 . S
C1175 C1176 1.387 . S
C1176 H1161 0.930 . S
C1176 C1171 1.390 . S
C1176 C1175 1.387 . S
H1177 C1189 0.930 . S
H1178 C1191 0.930 . S
H1179 C1192 0.930 . S
H1180 C1196 0.959 . S
H1181 C1196 0.959 . S
H1182 C1196 0.961 . S
H1183 C1197 0.960 . S
H1184 C1197 0.961 . S
H1185 C1197 0.959 . S
H1186 C1200 0.929 . S
H1187 C1201 0.931 . S
H1188 C1203 0.930 . S
C1189 H1177 0.930 . S
C1189 C1190 1.351 1_455 S
C1189 C1194 1.399 . S
C1190 C1189 1.351 1_655 S
C1190 C1191 1.389 . S
C1191 H1178 0.930 . S
C1191 C1190 1.389 . S
C1191 C1192 1.388 1_655 S
C1192 H1179 0.930 . S
C1192 C1191 1.388 1_455 S
C1192 C1193 1.390 . S
C1193 C1192 1.390 . S
C1193 C1194 1.394 . S
C1193 C1199 1.465 . S
C1194 C1189 1.399 . S
C1194 C1193 1.394 . S
C1194 C1195 1.516 . S
C1195 C1194 1.516 . S
C1195 C1196 1.502 . S
C1195 C1197 1.561 . S
C1195 C1198 1.526 . S
C1196 H1180 0.959 . S
C1196 H1181 0.959 . S
C1196 H1182 0.961 . S
C1196 C1195 1.502 . S
C1197 H1183 0.960 . S
C1197 H1184 0.961 . S
C1197 H1185 0.959 . S
C1197 C1195 1.561 . S
C1198 C1195 1.526 . S
C1198 C1199 1.396 . S
C1198 C1203 1.390 . S
C1199 C1193 1.465 . S
C1199 C1198 1.396 . S
C1199 C1200 1.399 . S
C1200 H1186 0.929 . S
C1200 C1199 1.399 . S
C1200 C1201 1.385 . S
C1201 H1187 0.931 . S
C1201 C1200 1.385 . S
C1201 C1202 1.389 . S
C1202 C1201 1.389 . S
C1202 C1203 1.387 . S
C1203 H1188 0.930 . S
C1203 C1198 1.390 . S
C1203 C1202 1.387 . S
H1204 C1216 0.930 . S
H1205 C1218 0.930 . S
H1206 C1219 0.930 . S
H1207 C1223 0.959 . S
H1208 C1223 0.959 . S
H1209 C1223 0.961 . S
H1210 C1224 0.960 . S
H1211 C1224 0.961 . S
H1212 C1224 0.959 . S
H1213 C1227 0.929 . S
H1214 C1228 0.931 . S
H1215 C1230 0.930 . S
C1216 H1204 0.930 . S
C1216 C1217 1.399 . S
C1216 C1221 1.399 . S
C1217 C1216 1.399 . S
C1217 C1218 1.376 . S
C1218 H1205 0.930 . S
C1218 C1217 1.376 . S
C1218 C1219 1.388 . S
C1219 H1206 0.930 . S
C1219 C1218 1.388 . S
C1219 C1220 1.390 . S
C1220 C1219 1.390 . S
C1220 C1221 1.394 . S
C1220 C1226 1.465 . S
C1221 C1216 1.399 . S
C1221 C1220 1.394 . S
C1221 C1222 1.516 . S
C1222 C1221 1.516 . S
C1222 C1223 1.502 . S
C1222 C1224 1.561 . S
C1222 C1225 1.526 . S
C1223 H1207 0.959 . S
C1223 H1208 0.959 . S
C1223 H1209 0.961 . S
C1223 C1222 1.502 . S
C1224 H1210 0.960 . S
C1224 H1211 0.961 . S
C1224 H1212 0.959 . S
C1224 C1222 1.561 . S
C1225 C1222 1.526 . S
C1225 C1226 1.396 . S
C1225 C1230 1.390 . S
C1226 C1220 1.465 . S
C1226 C1225 1.396 . S
C1226 C1227 1.399 . S
C1227 H1213 0.929 . S
C1227 C1226 1.399 . S
C1227 C1228 1.385 . S
C1228 H1214 0.931 . S
C1228 C1227 1.385 . S
C1228 C1229 1.389 . S
C1229 C1228 1.389 . S
C1229 C1230 1.387 . S
C1230 H1215 0.930 . S
C1230 C1225 1.390 . S
C1230 C1229 1.387 . S
H1231 C1243 0.930 . S
H1232 C1245 0.930 . S
H1233 C1246 0.930 . S
H1234 C1250 0.959 . S
H1235 C1250 0.959 . S
H1236 C1250 0.961 . S
H1237 C1251 0.960 . S
H1238 C1251 0.961 . S
H1239 C1251 0.959 . S
H1240 C1254 0.929 . S
H1241 C1255 0.931 . S
H1242 C1257 0.930 . S
C1243 H1231 0.930 . S
C1243 C1244 1.400 . S
C1243 C1248 1.399 . S
C1244 C1243 1.400 . S
C1244 C1245 1.377 . S
C1245 H1232 0.930 . S
C1245 C1244 1.377 . S
C1245 C1246 1.388 . S
C1246 H1233 0.930 . S
C1246 C1245 1.388 . S
C1246 C1247 1.390 . S
C1247 C1246 1.390 . S
C1247 C1248 1.394 . S
C1247 C1253 1.465 . S
C1248 C1243 1.399 . S
C1248 C1247 1.394 . S
C1248 C1249 1.516 . S
C1249 C1248 1.516 . S
C1249 C1250 1.502 . S
C1249 C1251 1.561 . S
C1249 C1252 1.526 . S
C1250 H1234 0.959 . S
C1250 H1235 0.959 . S
C1250 H1236 0.961 . S
C1250 C1249 1.502 . S
C1251 H1237 0.960 . S
C1251 H1238 0.961 . S
C1251 H1239 0.959 . S
C1251 C1249 1.561 . S
C1252 C1249 1.526 . S
C1252 C1253 1.396 . S
C1252 C1257 1.390 . S
C1253 C1247 1.465 . S
C1253 C1252 1.396 . S
C1253 C1254 1.399 . S
C1254 H1240 0.929 . S
C1254 C1253 1.399 . S
C1254 C1255 1.385 . S
C1255 H1241 0.931 . S
C1255 C1254 1.385 . S
C1255 C1256 1.389 . S
C1256 C1255 1.389 . S
C1256 C1257 1.387 . S
C1257 H1242 0.930 . S
C1257 C1252 1.390 . S
C1257 C1256 1.387 . S
H1258 C1270 0.930 . S
H1259 C1272 0.930 . S
H1260 C1273 0.930 . S
H1261 C1277 0.959 . S
H1262 C1277 0.959 . S
H1263 C1277 0.961 . S
H1264 C1278 0.960 . S
H1265 C1278 0.961 . S
H1266 C1278 0.959 . S
H1267 C1281 0.929 . S
H1268 C1282 0.931 . S
H1269 C1284 0.930 . S
C1270 H1258 0.930 . S
C1270 C1271 1.399 . S
C1270 C1275 1.399 . S
C1271 C1270 1.399 . S
C1271 C1272 1.376 . S
C1272 H1259 0.930 . S
C1272 C1271 1.376 . S
C1272 C1273 1.388 . S
C1273 H1260 0.930 . S
C1273 C1272 1.388 . S
C1273 C1274 1.390 . S
C1274 C1273 1.390 . S
C1274 C1275 1.394 . S
C1274 C1280 1.465 . S
C1275 C1270 1.399 . S
C1275 C1274 1.394 . S
C1275 C1276 1.516 . S
C1276 C1275 1.516 . S
C1276 C1277 1.502 . S
C1276 C1278 1.561 . S
C1276 C1279 1.526 . S
C1277 H1261 0.959 . S
C1277 H1262 0.959 . S
C1277 H1263 0.961 . S
C1277 C1276 1.502 . S
C1278 H1264 0.960 . S
C1278 H1265 0.961 . S
C1278 H1266 0.959 . S
C1278 C1276 1.561 . S
C1279 C1276 1.526 . S
C1279 C1280 1.396 . S
C1279 C1284 1.390 . S
C1280 C1274 1.465 . S
C1280 C1279 1.396 . S
C1280 C1281 1.399 . S
C1281 H1267 0.929 . S
C1281 C1280 1.399 . S
C1281 C1282 1.385 . S
C1282 H1268 0.931 . S
C1282 C1281 1.385 . S
C1282 C1283 1.389 . S
C1283 C1282 1.389 . S
C1283 C1284 1.387 . S
C1284 H1269 0.930 . S
C1284 C1279 1.390 . S
C1284 C1283 1.387 . S
H1285 C1297 0.930 . S
H1286 C1299 0.930 . S
H1287 C1300 0.930 . S
H1288 C1304 0.959 . S
H1289 C1304 0.959 . S
H1290 C1304 0.961 . S
H1291 C1305 0.960 . S
H1292 C1305 0.961 . S
H1293 C1305 0.959 . S
H1294 C1308 0.929 . S
H1295 C1309 0.931 . S
H1296 C1311 0.930 . S
C1297 H1285 0.930 . S
C1297 C1298 1.399 . S
C1297 C1302 1.399 . S
C1298 C1297 1.399 . S
C1298 C1299 1.376 . S
C1299 H1286 0.930 . S
C1299 C1298 1.376 . S
C1299 C1300 1.388 . S
C1300 H1287 0.930 . S
C1300 C1299 1.388 . S
C1300 C1301 1.390 . S
C1301 C1300 1.390 . S
C1301 C1302 1.394 . S
C1301 C1307 1.465 . S
C1302 C1297 1.399 . S
C1302 C1301 1.394 . S
C1302 C1303 1.516 . S
C1303 C1302 1.516 . S
C1303 C1304 1.502 . S
C1303 C1305 1.561 . S
C1303 C1306 1.526 . S
C1304 H1288 0.959 . S
C1304 H1289 0.959 . S
C1304 H1290 0.961 . S
C1304 C1303 1.502 . S
C1305 H1291 0.960 . S
C1305 H1292 0.961 . S
C1305 H1293 0.959 . S
C1305 C1303 1.561 . S
C1306 C1303 1.526 . S
C1306 C1307 1.396 . S
C1306 C1311 1.390 . S
C1307 C1301 1.465 . S
C1307 C1306 1.396 . S
C1307 C1308 1.399 . S
C1308 H1294 0.929 . S
C1308 C1307 1.399 . S
C1308 C1309 1.385 . S
C1309 H1295 0.931 . S
C1309 C1308 1.385 . S
C1309 C1310 1.389 . S
C1310 C1309 1.389 . S
C1310 C1311 1.387 . S
C1311 H1296 0.930 . S
C1311 C1306 1.390 . S
C1311 C1310 1.387 . S
H1312 C1324 0.930 . S
H1313 C1326 0.930 . S
H1314 C1327 0.930 . S
H1315 C1331 0.959 . S
H1316 C1331 0.959 . S
H1317 C1331 0.961 . S
H1318 C1332 0.960 . S
H1319 C1332 0.961 . S
H1320 C1332 0.959 . S
H1321 C1335 0.929 . S
H1322 C1336 0.931 . S
H1323 C1338 0.930 . S
C1324 H1312 0.930 . S
C1324 C1325 1.399 . S
C1324 C1329 1.399 . S
C1325 C1324 1.399 . S
C1325 C1326 1.376 . S
C1326 H1313 0.930 . S
C1326 C1325 1.376 . S
C1326 C1327 1.388 . S
C1327 H1314 0.930 . S
C1327 C1326 1.388 . S
C1327 C1328 1.390 . S
C1328 C1327 1.390 . S
C1328 C1329 1.394 . S
C1328 C1334 1.465 . S
C1329 C1324 1.399 . S
C1329 C1328 1.394 . S
C1329 C1330 1.516 . S
C1330 C1329 1.516 . S
C1330 C1331 1.502 . S
C1330 C1332 1.561 . S
C1330 C1333 1.526 . S
C1331 H1315 0.959 . S
C1331 H1316 0.959 . S
C1331 H1317 0.961 . S
C1331 C1330 1.502 . S
C1332 H1318 0.960 . S
C1332 H1319 0.961 . S
C1332 H1320 0.959 . S
C1332 C1330 1.561 . S
C1333 C1330 1.526 . S
C1333 C1334 1.396 . S
C1333 C1338 1.390 . S
C1334 C1328 1.465 . S
C1334 C1333 1.396 . S
C1334 C1335 1.399 . S
C1335 H1321 0.929 . S
C1335 C1334 1.399 . S
C1335 C1336 1.385 . S
C1336 H1322 0.931 . S
C1336 C1335 1.385 . S
C1336 C1337 1.389 . S
C1337 C1336 1.389 . S
C1337 C1338 1.387 . S
C1338 H1323 0.930 . S
C1338 C1333 1.390 . S
C1338 C1337 1.387 . S
H1339 C1351 0.930 . S
H1340 C1353 0.930 . S
H1341 C1354 0.930 . S
H1342 C1358 0.959 . S
H1343 C1358 0.959 . S
H1344 C1358 0.961 . S
H1345 C1359 0.960 1_565 S
H1346 C1359 0.961 . S
H1347 C1359 0.959 1_565 S
H1348 C1362 0.929 1_565 S
H1349 C1363 0.931 . S
H1350 C1365 0.930 . S
C1351 H1339 0.930 . S
C1351 C1352 1.399 . S
C1351 C1356 1.399 . S
C1352 C1351 1.399 . S
C1352 C1353 1.376 . S
C1353 H1340 0.930 . S
C1353 C1352 1.376 . S
C1353 C1354 1.388 . S
C1354 H1341 0.930 . S
C1354 C1353 1.388 . S
C1354 C1355 1.390 . S
C1355 C1354 1.390 . S
C1355 C1356 1.394 . S
C1355 C1361 1.465 1_665 S
C1356 C1351 1.399 . S
C1356 C1355 1.394 . S
C1356 C1357 1.513 1_665 S
C1357 C1356 1.513 1_445 S
C1357 C1358 1.498 1_455 S
C1357 C1359 1.566 . S
C1357 C1360 1.529 . S
C1358 H1342 0.959 . S
C1358 H1343 0.959 . S
C1358 H1344 0.961 . S
C1358 C1357 1.498 1_655 S
C1359 H1345 0.960 1_545 S
C1359 H1346 0.961 . S
C1359 H1347 0.959 1_545 S
C1359 C1357 1.566 . S
C1360 C1357 1.529 . S
C1360 C1361 1.396 . S
C1360 C1365 1.390 . S
C1361 C1355 1.465 1_445 S
C1361 C1360 1.396 . S
C1361 C1362 1.399 . S
C1362 H1348 0.929 1_545 S
C1362 C1361 1.399 . S
C1362 C1363 1.385 . S
C1363 H1349 0.931 . S
C1363 C1362 1.385 . S
C1363 C1364 1.389 . S
C1364 C1363 1.389 . S
C1364 C1365 1.387 . S
C1365 H1350 0.930 . S
C1365 C1360 1.390 . S
C1365 C1364 1.387 . S
H1366 C1378 0.930 . S
H1367 C1380 0.930 . S
H1368 C1381 0.930 . S
H1369 C1385 0.959 . S
H1370 C1385 0.959 . S
H1371 C1385 0.961 . S
H1372 C1386 0.960 . S
H1373 C1386 0.961 . S
H1374 C1386 0.959 . S
H1375 C1389 0.929 . S
H1376 C1390 0.931 . S
H1377 C1392 0.930 . S
C1378 H1366 0.930 . S
C1378 C1379 1.399 . S
C1378 C1383 1.399 . S
C1379 C1378 1.399 . S
C1379 C1380 1.376 . S
C1380 H1367 0.930 . S
C1380 C1379 1.376 . S
C1380 C1381 1.388 . S
C1381 H1368 0.930 . S
C1381 C1380 1.388 . S
C1381 C1382 1.390 . S
C1382 C1381 1.390 . S
C1382 C1383 1.394 . S
C1382 C1388 1.465 . S
C1383 C1378 1.399 . S
C1383 C1382 1.394 . S
C1383 C1384 1.516 . S
C1384 C1383 1.516 . S
C1384 C1385 1.502 . S
C1384 C1386 1.561 . S
C1384 C1387 1.526 . S
C1385 H1369 0.959 . S
C1385 H1370 0.959 . S
C1385 H1371 0.961 . S
C1385 C1384 1.502 . S
C1386 H1372 0.960 . S
C1386 H1373 0.961 . S
C1386 H1374 0.959 . S
C1386 C1384 1.561 . S
C1387 C1384 1.526 . S
C1387 C1388 1.396 . S
C1387 C1392 1.390 . S
C1388 C1382 1.465 . S
C1388 C1387 1.396 . S
C1388 C1389 1.399 . S
C1389 H1375 0.929 . S
C1389 C1388 1.399 . S
C1389 C1390 1.385 . S
C1390 H1376 0.931 . S
C1390 C1389 1.385 . S
C1390 C1391 1.389 . S
C1391 C1390 1.389 . S
C1391 C1392 1.387 . S
C1392 H1377 0.930 . S
C1392 C1387 1.390 . S
C1392 C1391 1.387 . S
H1393 C1405 0.948 . S
H1394 C1407 0.930 . S
H1395 C1408 0.930 1_565 S
H1396 C1412 0.959 . S
H1397 C1412 0.959 . S
H1398 C1412 0.961 . S
H1399 C1413 0.960 . S
H1400 C1413 0.961 . S
H1401 C1413 0.959 . S
H1402 C1416 0.929 . S
H1403 C1417 0.931 . S
H1404 C1419 0.930 . S
C1405 H1393 0.948 . S
C1405 C1406 1.376 1_556 S
C1405 C1410 1.404 . S
C1406 C1405 1.376 1_554 S
C1406 C1407 1.376 . S
C1407 H1394 0.930 . S
C1407 C1406 1.376 . S
C1407 C1408 1.388 . S
C1408 H1395 0.930 1_545 S
C1408 C1407 1.388 . S
C1408 C1409 1.390 . S
C1409 C1408 1.390 . S
C1409 C1410 1.394 1_554 S
C1409 C1415 1.465 1_545 S
C1410 C1405 1.404 . S
C1410 C1409 1.394 1_556 S
C1410 C1411 1.516 . S
C1411 C1410 1.516 . S
C1411 C1412 1.502 . S
C1411 C1413 1.561 . S
C1411 C1414 1.526 1_545 S
C1412 H1396 0.959 . S
C1412 H1397 0.959 . S
C1412 H1398 0.961 . S
C1412 C1411 1.502 . S
C1413 H1399 0.960 . S
C1413 H1400 0.961 . S
C1413 H1401 0.959 . S
C1413 C1411 1.561 . S
C1414 C1411 1.526 1_565 S
C1414 C1415 1.396 1_556 S
C1414 C1419 1.390 . S
C1415 C1409 1.465 1_565 S
C1415 C1414 1.396 1_554 S
C1415 C1416 1.399 . S
C1416 H1402 0.929 . S
C1416 C1415 1.399 . S
C1416 C1417 1.385 . S
C1417 H1403 0.931 . S
C1417 C1416 1.385 . S
C1417 C1418 1.389 1_554 S
C1418 C1417 1.389 1_556 S
C1418 C1419 1.387 . S
C1419 H1404 0.930 . S
C1419 C1414 1.390 . S
C1419 C1418 1.387 . S
H1420 C1432 0.930 . S
H1421 C1434 0.930 . S
H1422 C1435 0.930 . S
H1423 C1439 0.959 . S
H1424 C1439 0.959 . S
H1425 C1439 0.961 . S
H1426 C1440 0.960 . S
H1427 C1440 0.961 . S
H1428 C1440 0.959 . S
H1429 C1443 0.929 . S
H1430 C1444 0.931 . S
H1431 C1446 0.930 . S
C1432 H1420 0.930 . S
C1432 C1433 1.399 . S
C1432 C1437 1.399 . S
C1433 C1432 1.399 . S
C1433 C1434 1.376 . S
C1434 H1421 0.930 . S
C1434 C1433 1.376 . S
C1434 C1435 1.388 . S
C1435 H1422 0.930 . S
C1435 C1434 1.388 . S
C1435 C1436 1.390 . S
C1436 C1435 1.390 . S
C1436 C1437 1.394 . S
C1436 C1442 1.465 . S
C1437 C1432 1.399 . S
C1437 C1436 1.394 . S
C1437 C1438 1.516 . S
C1438 C1437 1.516 . S
C1438 C1439 1.502 . S
C1438 C1440 1.561 . S
C1438 C1441 1.526 . S
C1439 H1423 0.959 . S
C1439 H1424 0.959 . S
C1439 H1425 0.961 . S
C1439 C1438 1.502 . S
C1440 H1426 0.960 . S
C1440 H1427 0.961 . S
C1440 H1428 0.959 . S
C1440 C1438 1.561 . S
C1441 C1438 1.526 . S
C1441 C1442 1.396 . S
C1441 C1446 1.390 . S
C1442 C1436 1.465 . S
C1442 C1441 1.396 . S
C1442 C1443 1.399 . S
C1443 H1429 0.929 . S
C1443 C1442 1.399 . S
C1443 C1444 1.385 . S
C1444 H1430 0.931 . S
C1444 C1443 1.385 . S
C1444 C1445 1.389 . S
C1445 C1444 1.389 . S
C1445 C1446 1.387 . S
C1446 H1431 0.930 . S
C1446 C1441 1.390 . S
C1446 C1445 1.387 . S
H1447 C1459 0.930 . S
H1448 C1461 0.930 . S
H1449 C1462 0.930 . S
H1450 C1466 0.959 . S
H1451 C1466 0.959 . S
H1452 C1466 0.961 . S
H1453 C1467 0.960 1_565 S
H1454 C1467 0.961 . S
H1455 C1467 0.959 . S
H1456 C1470 0.929 . S
H1457 C1471 0.931 . S
H1458 C1473 0.930 . S
C1459 H1447 0.930 . S
C1459 C1460 1.399 . S
C1459 C1464 1.399 . S
C1460 C1459 1.399 . S
C1460 C1461 1.376 . S
C1461 H1448 0.930 . S
C1461 C1460 1.376 . S
C1461 C1462 1.388 . S
C1462 H1449 0.930 . S
C1462 C1461 1.388 . S
C1462 C1463 1.390 . S
C1463 C1462 1.390 . S
C1463 C1464 1.394 . S
C1463 C1469 1.465 1_565 S
C1464 C1459 1.399 . S
C1464 C1463 1.394 . S
C1464 C1465 1.516 . S
C1465 C1464 1.516 . S
C1465 C1466 1.502 . S
C1465 C1467 1.561 1_565 S
C1465 C1468 1.526 1_565 S
C1466 H1450 0.959 . S
C1466 H1451 0.959 . S
C1466 H1452 0.961 . S
C1466 C1465 1.502 . S
C1467 H1453 0.960 1_545 S
C1467 H1454 0.961 . S
C1467 H1455 0.959 . S
C1467 C1465 1.561 1_545 S
C1468 C1465 1.526 1_545 S
C1468 C1469 1.396 . S
C1468 C1473 1.390 . S
C1469 C1463 1.465 1_545 S
C1469 C1468 1.396 . S
C1469 C1470 1.399 . S
C1470 H1456 0.929 . S
C1470 C1469 1.399 . S
C1470 C1471 1.385 . S
C1471 H1457 0.931 . S
C1471 C1470 1.385 . S
C1471 C1472 1.389 . S
C1472 C1471 1.389 . S
C1472 C1473 1.387 . S
C1473 H1458 0.930 . S
C1473 C1468 1.390 . S
C1473 C1472 1.387 . S
H1474 C1486 0.930 . S
H1475 C1488 0.930 . S
H1476 C1489 0.930 . S
H1477 C1493 0.959 . S
H1478 C1493 0.959 . S
H1479 C1493 0.961 . S
H1480 C1494 0.960 . S
H1481 C1494 0.961 . S
H1482 C1494 0.959 . S
H1483 C1497 0.929 . S
H1484 C1498 0.931 . S
H1485 C1500 0.930 . S
C1486 H1474 0.930 . S
C1486 C1487 1.399 . S
C1486 C1491 1.399 . S
C1487 C1486 1.399 . S
C1487 C1488 1.376 . S
C1488 H1475 0.930 . S
C1488 C1487 1.376 . S
C1488 C1489 1.388 . S
C1489 H1476 0.930 . S
C1489 C1488 1.388 . S
C1489 C1490 1.390 . S
C1490 C1489 1.390 . S
C1490 C1491 1.394 . S
C1490 C1496 1.465 . S
C1491 C1486 1.399 . S
C1491 C1490 1.394 . S
C1491 C1492 1.516 . S
C1492 C1491 1.516 . S
C1492 C1493 1.502 . S
C1492 C1494 1.561 . S
C1492 C1495 1.526 . S
C1493 H1477 0.959 . S
C1493 H1478 0.959 . S
C1493 H1479 0.961 . S
C1493 C1492 1.502 . S
C1494 H1480 0.960 . S
C1494 H1481 0.961 . S
C1494 H1482 0.959 . S
C1494 C1492 1.561 . S
C1495 C1492 1.526 . S
C1495 C1496 1.396 . S
C1495 C1500 1.390 . S
C1496 C1490 1.465 . S
C1496 C1495 1.396 . S
C1496 C1497 1.399 . S
C1497 H1483 0.929 . S
C1497 C1496 1.399 . S
C1497 C1498 1.385 . S
C1498 H1484 0.931 . S
C1498 C1497 1.385 . S
C1498 C1499 1.389 . S
C1499 C1498 1.389 . S
C1499 C1500 1.387 . S
C1500 H1485 0.930 . S
C1500 C1495 1.390 . S
C1500 C1499 1.387 . S
H1501 C1513 0.930 . S
H1502 C1515 0.930 . S
H1503 C1516 0.930 1_554 S
H1504 C1520 0.959 . S
H1505 C1520 0.959 . S
H1506 C1520 0.961 1_556 S
H1507 C1521 0.960 . S
H1508 C1521 0.961 . S
H1509 C1521 0.959 . S
H1510 C1524 0.898 1_545 S
H1511 C1525 0.931 . S
H1512 C1527 0.930 . S
C1513 H1501 0.930 . S
C1513 C1514 1.399 . S
C1513 C1518 1.399 . S
C1514 C1513 1.399 . S
C1514 C1515 1.376 . S
C1515 H1502 0.930 . S
C1515 C1514 1.376 . S
C1515 C1516 1.388 1_655 S
C1516 H1503 0.930 1_556 S
C1516 C1515 1.388 1_455 S
C1516 C1517 1.390 . S
C1517 C1516 1.390 . S
C1517 C1518 1.394 1_455 S
C1517 C1523 1.465 1_546 S
C1518 C1513 1.399 . S
C1518 C1517 1.394 1_655 S
C1518 C1519 1.516 1_545 S
C1519 C1518 1.516 1_565 S
C1519 C1520 1.502 1_556 S
C1519 C1521 1.561 . S
C1519 C1522 1.526 1_656 S
C1520 H1504 0.959 . S
C1520 H1505 0.959 . S
C1520 H1506 0.961 1_554 S
C1520 C1519 1.502 1_554 S
C1521 H1507 0.960 . S
C1521 H1508 0.961 . S
C1521 H1509 0.959 . S
C1521 C1519 1.561 . S
C1522 C1519 1.526 1_454 S
C1522 C1523 1.396 . S
C1522 C1527 1.390 . S
C1523 C1517 1.465 1_564 S
C1523 C1522 1.396 . S
C1523 C1524 1.400 . S
C1524 H1510 0.898 1_565 S
C1524 C1523 1.400 . S
C1524 C1525 1.416 . S
C1525 H1511 0.931 . S
C1525 C1524 1.416 . S
C1525 C1526 1.389 . S
C1526 C1525 1.389 . S
C1526 C1527 1.387 . S
C1527 H1512 0.930 . S
C1527 C1522 1.390 . S
C1527 C1526 1.387 . S
H1528 C1540 0.930 . S
H1529 C1542 0.930 . S
H1530 C1543 0.930 . S
H1531 C1547 0.959 . S
H1532 C1547 0.959 . S
H1533 C1547 0.961 . S
H1534 C1548 0.960 . S
H1535 C1548 0.961 . S
H1536 C1548 0.959 . S
H1537 C1551 0.929 . S
H1538 C1552 0.931 . S
H1539 C1554 0.930 . S
C1540 H1528 0.930 . S
C1540 C1541 1.399 . S
C1540 C1545 1.399 . S
C1541 C1540 1.399 . S
C1541 C1542 1.376 . S
C1542 H1529 0.930 . S
C1542 C1541 1.376 . S
C1542 C1543 1.388 . S
C1543 H1530 0.930 . S
C1543 C1542 1.388 . S
C1543 C1544 1.390 . S
C1544 C1543 1.390 . S
C1544 C1545 1.394 . S
C1544 C1550 1.465 . S
C1545 C1540 1.399 . S
C1545 C1544 1.394 . S
C1545 C1546 1.516 . S
C1546 C1545 1.516 . S
C1546 C1547 1.502 . S
C1546 C1548 1.561 . S
C1546 C1549 1.526 . S
C1547 H1531 0.959 . S
C1547 H1532 0.959 . S
C1547 H1533 0.961 . S
C1547 C1546 1.502 . S
C1548 H1534 0.960 . S
C1548 H1535 0.961 . S
C1548 H1536 0.959 . S
C1548 C1546 1.561 . S
C1549 C1546 1.526 . S
C1549 C1550 1.396 . S
C1549 C1554 1.390 . S
C1550 C1544 1.465 . S
C1550 C1549 1.396 . S
C1550 C1551 1.399 . S
C1551 H1537 0.929 . S
C1551 C1550 1.399 . S
C1551 C1552 1.385 . S
C1552 H1538 0.931 . S
C1552 C1551 1.385 . S
C1552 C1553 1.389 . S
C1553 C1552 1.389 . S
C1553 C1554 1.387 . S
C1554 H1539 0.930 . S
C1554 C1549 1.390 . S
C1554 C1553 1.387 . S
H1555 C1567 0.930 . S
H1556 C1569 0.930 . S
H1557 C1570 0.930 . S
H1558 C1574 0.959 . S
H1559 C1574 0.959 . S
H1560 C1574 0.961 . S
H1561 C1575 0.960 . S
H1562 C1575 0.961 . S
H1563 C1575 0.959 . S
H1564 C1578 0.929 . S
H1565 C1579 0.931 . S
H1566 C1581 0.930 . S
C1567 H1555 0.930 . S
C1567 C1568 1.399 . S
C1567 C1572 1.399 . S
C1568 C1567 1.399 . S
C1568 C1569 1.376 . S
C1569 H1556 0.930 . S
C1569 C1568 1.376 . S
C1569 C1570 1.388 . S
C1570 H1557 0.930 . S
C1570 C1569 1.388 . S
C1570 C1571 1.390 . S
C1571 C1570 1.390 . S
C1571 C1572 1.394 . S
C1571 C1577 1.465 . S
C1572 C1567 1.399 . S
C1572 C1571 1.394 . S
C1572 C1573 1.516 . S
C1573 C1572 1.516 . S
C1573 C1574 1.502 . S
C1573 C1575 1.561 . S
C1573 C1576 1.526 . S
C1574 H1558 0.959 . S
C1574 H1559 0.959 . S
C1574 H1560 0.961 . S
C1574 C1573 1.502 . S
C1575 H1561 0.960 . S
C1575 H1562 0.961 . S
C1575 H1563 0.959 . S
C1575 C1573 1.561 . S
C1576 C1573 1.526 . S
C1576 C1577 1.396 . S
C1576 C1581 1.390 . S
C1577 C1571 1.465 . S
C1577 C1576 1.396 . S
C1577 C1578 1.399 . S
C1578 H1564 0.929 . S
C1578 C1577 1.399 . S
C1578 C1579 1.385 . S
C1579 H1565 0.931 . S
C1579 C1578 1.385 . S
C1579 C1580 1.389 . S
C1580 C1579 1.389 . S
C1580 C1581 1.387 . S
C1581 H1566 0.930 . S
C1581 C1576 1.390 . S
C1581 C1580 1.387 . S
H1582 C1594 0.930 . S
H1583 C1596 0.930 . S
H1584 C1597 0.930 . S
H1585 C1601 0.959 . S
H1586 C1601 0.959 . S
H1587 C1601 0.961 . S
H1588 C1602 0.960 . S
H1589 C1602 0.961 . S
H1590 C1602 0.959 . S
H1591 C1605 0.929 . S
H1592 C1606 0.931 . S
H1593 C1608 0.930 . S
C1594 H1582 0.930 . S
C1594 C1595 1.399 . S
C1594 C1599 1.399 . S
C1595 C1594 1.399 . S
C1595 C1596 1.376 . S
C1596 H1583 0.930 . S
C1596 C1595 1.376 . S
C1596 C1597 1.388 . S
C1597 H1584 0.930 . S
C1597 C1596 1.388 . S
C1597 C1598 1.390 . S
C1598 C1597 1.390 . S
C1598 C1599 1.394 . S
C1598 C1604 1.465 . S
C1599 C1594 1.399 . S
C1599 C1598 1.394 . S
C1599 C1600 1.516 . S
C1600 C1599 1.516 . S
C1600 C1601 1.502 . S
C1600 C1602 1.561 . S
C1600 C1603 1.526 . S
C1601 H1585 0.959 . S
C1601 H1586 0.959 . S
C1601 H1587 0.961 . S
C1601 C1600 1.502 . S
C1602 H1588 0.960 . S
C1602 H1589 0.961 . S
C1602 H1590 0.959 . S
C1602 C1600 1.561 . S
C1603 C1600 1.526 . S
C1603 C1604 1.396 . S
C1603 C1608 1.390 . S
C1604 C1598 1.465 . S
C1604 C1603 1.396 . S
C1604 C1605 1.399 . S
C1605 H1591 0.929 . S
C1605 C1604 1.399 . S
C1605 C1606 1.385 . S
C1606 H1592 0.931 . S
C1606 C1605 1.385 . S
C1606 C1607 1.389 . S
C1607 C1606 1.389 . S
C1607 C1608 1.387 . S
C1608 H1593 0.930 . S
C1608 C1603 1.390 . S
C1608 C1607 1.387 . S
H1609 C1621 0.930 . S
H1610 C1623 0.930 . S
H1611 C1624 0.930 . S
H1612 C1628 0.959 . S
H1613 C1628 0.959 . S
H1614 C1628 0.961 . S
H1615 C1629 0.960 . S
H1616 C1629 0.961 . S
H1617 C1629 0.959 . S
H1618 C1632 0.929 . S
H1619 C1633 0.931 . S
H1620 C1635 0.930 . S
C1621 H1609 0.930 . S
C1621 C1622 1.399 . S
C1621 C1626 1.399 . S
C1622 C1621 1.399 . S
C1622 C1623 1.376 . S
C1623 H1610 0.930 . S
C1623 C1622 1.376 . S
C1623 C1624 1.388 . S
C1624 H1611 0.930 . S
C1624 C1623 1.388 . S
C1624 C1625 1.390 . S
C1625 C1624 1.390 . S
C1625 C1626 1.394 . S
C1625 C1631 1.465 . S
C1626 C1621 1.399 . S
C1626 C1625 1.394 . S
C1626 C1627 1.516 . S
C1627 C1626 1.516 . S
C1627 C1628 1.502 . S
C1627 C1629 1.561 . S
C1627 C1630 1.526 . S
C1628 H1612 0.959 . S
C1628 H1613 0.959 . S
C1628 H1614 0.961 . S
C1628 C1627 1.502 . S
C1629 H1615 0.960 . S
C1629 H1616 0.961 . S
C1629 H1617 0.959 . S
C1629 C1627 1.561 . S
C1630 C1627 1.526 . S
C1630 C1631 1.396 . S
C1630 C1635 1.390 . S
C1631 C1625 1.465 . S
C1631 C1630 1.396 . S
C1631 C1632 1.399 . S
C1632 H1618 0.929 . S
C1632 C1631 1.399 . S
C1632 C1633 1.385 . S
C1633 H1619 0.931 . S
C1633 C1632 1.385 . S
C1633 C1634 1.389 . S
C1634 C1633 1.389 . S
C1634 C1635 1.387 . S
C1635 H1620 0.930 . S
C1635 C1630 1.390 . S
C1635 C1634 1.387 . S
H1636 C1648 0.930 . S
H1637 C1650 0.930 . S
H1638 C1651 0.930 . S
H1639 C1655 0.959 . S
H1640 C1655 0.959 . S
H1641 C1655 0.961 . S
H1642 C1656 0.960 . S
H1643 C1656 0.961 . S
H1644 C1656 0.959 . S
H1645 C1659 0.929 . S
H1646 C1660 0.931 . S
H1647 C1662 0.930 . S
C1648 H1636 0.930 . S
C1648 C1649 1.399 1_556 S
C1648 C1653 1.399 . S
C1649 C1648 1.399 1_554 S
C1649 C1650 1.376 . S
C1650 H1637 0.930 . S
C1650 C1649 1.376 . S
C1650 C1651 1.388 . S
C1651 H1638 0.930 . S
C1651 C1650 1.388 . S
C1651 C1652 1.390 . S
C1652 C1651 1.390 . S
C1652 C1653 1.394 1_554 S
C1652 C1658 1.465 . S
C1653 C1648 1.399 . S
C1653 C1652 1.394 1_556 S
C1653 C1654 1.516 . S
C1654 C1653 1.516 . S
C1654 C1655 1.502 . S
C1654 C1656 1.561 . S
C1654 C1657 1.526 . S
C1655 H1639 0.959 . S
C1655 H1640 0.959 . S
C1655 H1641 0.961 . S
C1655 C1654 1.502 . S
C1656 H1642 0.960 . S
C1656 H1643 0.961 . S
C1656 H1644 0.959 . S
C1656 C1654 1.561 . S
C1657 C1654 1.526 . S
C1657 C1658 1.396 1_556 S
C1657 C1662 1.390 . S
C1658 C1652 1.465 . S
C1658 C1657 1.396 1_554 S
C1658 C1659 1.399 . S
C1659 H1645 0.929 . S
C1659 C1658 1.399 . S
C1659 C1660 1.385 . S
C1660 H1646 0.931 . S
C1660 C1659 1.385 . S
C1660 C1661 1.389 1_554 S
C1661 C1660 1.389 1_556 S
C1661 C1662 1.387 . S
C1662 H1647 0.930 . S
C1662 C1657 1.390 . S
C1662 C1661 1.387 . S
H1663 C1675 0.930 . S
H1664 C1677 0.930 . S
H1665 C1678 0.930 . S
H1666 C1682 0.959 . S
H1667 C1682 0.959 . S
H1668 C1682 0.961 . S
H1669 C1683 0.960 . S
H1670 C1683 0.955 1_455 S
H1671 C1683 0.959 . S
H1672 C1686 0.942 . S
H1673 C1687 0.931 . S
H1674 C1689 0.930 . S
C1675 H1663 0.930 . S
C1675 C1676 1.399 . S
C1675 C1680 1.399 . S
C1676 C1675 1.399 . S
C1676 C1677 1.376 . S
C1677 H1664 0.930 . S
C1677 C1676 1.376 . S
C1677 C1678 1.388 . S
C1678 H1665 0.930 . S
C1678 C1677 1.388 . S
C1678 C1679 1.390 . S
C1679 C1678 1.390 . S
C1679 C1680 1.394 . S
C1679 C1685 1.465 1_655 S
C1680 C1675 1.399 . S
C1680 C1679 1.394 . S
C1680 C1681 1.516 1_655 S
C1681 C1680 1.516 1_455 S
C1681 C1682 1.502 . S
C1681 C1683 1.561 1_455 S
C1681 C1684 1.526 . S
C1682 H1666 0.959 . S
C1682 H1667 0.959 . S
C1682 H1668 0.961 . S
C1682 C1681 1.502 . S
C1683 H1669 0.960 . S
C1683 H1670 0.955 1_655 S
C1683 H1671 0.959 . S
C1683 C1681 1.561 1_655 S
C1684 C1681 1.526 . S
C1684 C1685 1.396 . S
C1684 C1689 1.390 . S
C1685 C1679 1.465 1_455 S
C1685 C1684 1.396 . S
C1685 C1686 1.399 . S
C1686 H1672 0.942 . S
C1686 C1685 1.399 . S
C1686 C1687 1.385 . S
C1687 H1673 0.931 . S
C1687 C1686 1.385 . S
C1687 C1688 1.389 . S
C1688 C1687 1.389 . S
C1688 C1689 1.387 . S
C1689 H1674 0.930 . S
C1689 C1684 1.390 . S
C1689 C1688 1.387 . S
H1690 C1702 0.930 . S
H1691 C1704 0.930 . S
H1692 C1705 0.930 . S
H1693 C1709 0.960 1_455 S
H1694 C1709 0.958 . S
H1695 C1709 0.961 1_455 S
H1696 C1710 0.960 . S
H1697 C1710 0.961 . S
H1698 C1710 0.959 . S
H1699 C1713 0.929 . S
H1700 C1714 0.931 . S
H1701 C1716 0.930 . S
C1702 H1690 0.930 . S
C1702 C1703 1.399 . S
C1702 C1707 1.399 . S
C1703 C1702 1.399 . S
C1703 C1704 1.376 1_556 S
C1704 H1691 0.930 . S
C1704 C1703 1.376 1_554 S
C1704 C1705 1.388 . S
C1705 H1692 0.930 . S
C1705 C1704 1.388 . S
C1705 C1706 1.390 . S
C1706 C1705 1.390 . S
C1706 C1707 1.394 1_554 S
C1706 C1712 1.465 1_455 S
C1707 C1702 1.399 . S
C1707 C1706 1.394 1_556 S
C1707 C1708 1.516 1_455 S
C1708 C1707 1.516 1_655 S
C1708 C1709 1.501 . S
C1708 C1710 1.561 . S
C1708 C1711 1.526 . S
C1709 H1693 0.960 1_655 S
C1709 H1694 0.958 . S
C1709 H1695 0.961 1_655 S
C1709 C1708 1.501 . S
C1710 H1696 0.960 . S
C1710 H1697 0.961 . S
C1710 H1698 0.959 . S
C1710 C1708 1.561 . S
C1711 C1708 1.526 . S
C1711 C1712 1.396 1_556 S
C1711 C1716 1.390 . S
C1712 C1706 1.465 1_655 S
C1712 C1711 1.396 1_554 S
C1712 C1713 1.399 . S
C1713 H1699 0.929 . S
C1713 C1712 1.399 . S
C1713 C1714 1.385 . S
C1714 H1700 0.931 . S
C1714 C1713 1.385 . S
C1714 C1715 1.389 . S
C1715 C1714 1.389 . S
C1715 C1716 1.387 1_554 S
C1716 H1701 0.930 . S
C1716 C1711 1.390 . S
C1716 C1715 1.387 1_556 S
H1717 C1729 0.930 . S
H1718 C1731 0.930 . S
H1719 C1732 0.930 . S
H1720 C1736 0.959 . S
H1721 C1736 0.959 . S
H1722 C1736 0.961 . S
H1723 C1737 0.960 . S
H1724 C1737 0.961 . S
H1725 C1737 0.959 . S
H1726 C1740 0.929 . S
H1727 C1741 0.931 . S
H1728 C1743 0.930 . S
C1729 H1717 0.930 . S
C1729 C1730 1.399 . S
C1729 C1734 1.399 . S
C1730 C1729 1.399 . S
C1730 C1731 1.376 . S
C1731 H1718 0.930 . S
C1731 C1730 1.376 . S
C1731 C1732 1.388 . S
C1732 H1719 0.930 . S
C1732 C1731 1.388 . S
C1732 C1733 1.390 . S
C1733 C1732 1.390 . S
C1733 C1734 1.394 . S
C1733 C1739 1.465 . S
C1734 C1729 1.399 . S
C1734 C1733 1.394 . S
C1734 C1735 1.516 . S
C1735 C1734 1.516 . S
C1735 C1736 1.502 . S
C1735 C1737 1.561 . S
C1735 C1738 1.526 . S
C1736 H1720 0.959 . S
C1736 H1721 0.959 . S
C1736 H1722 0.961 . S
C1736 C1735 1.502 . S
C1737 H1723 0.960 . S
C1737 H1724 0.961 . S
C1737 H1725 0.959 . S
C1737 C1735 1.561 . S
C1738 C1735 1.526 . S
C1738 C1739 1.396 . S
C1738 C1743 1.390 . S
C1739 C1733 1.465 . S
C1739 C1738 1.396 . S
C1739 C1740 1.399 . S
C1740 H1726 0.929 . S
C1740 C1739 1.399 . S
C1740 C1741 1.385 . S
C1741 H1727 0.931 . S
C1741 C1740 1.385 . S
C1741 C1742 1.389 . S
C1742 C1741 1.389 . S
C1742 C1743 1.387 . S
C1743 H1728 0.930 . S
C1743 C1738 1.390 . S
C1743 C1742 1.387 . S
H1744 C1756 0.930 . S
H1745 C1758 0.930 . S
H1746 C1759 0.930 . S
H1747 C1763 0.959 . S
H1748 C1763 0.959 . S
H1749 C1763 0.961 . S
H1750 C1764 0.960 . S
H1751 C1764 0.961 . S
H1752 C1764 0.959 . S
H1753 C1767 0.929 . S
H1754 C1768 0.931 . S
H1755 C1770 0.930 . S
C1756 H1744 0.930 . S
C1756 C1757 1.399 . S
C1756 C1761 1.399 . S
C1757 C1756 1.399 . S
C1757 C1758 1.376 . S
C1758 H1745 0.930 . S
C1758 C1757 1.376 . S
C1758 C1759 1.388 . S
C1759 H1746 0.930 . S
C1759 C1758 1.388 . S
C1759 C1760 1.390 . S
C1760 C1759 1.390 . S
C1760 C1761 1.394 . S
C1760 C1766 1.465 . S
C1761 C1756 1.399 . S
C1761 C1760 1.394 . S
C1761 C1762 1.516 . S
C1762 C1761 1.516 . S
C1762 C1763 1.502 . S
C1762 C1764 1.561 . S
C1762 C1765 1.526 . S
C1763 H1747 0.959 . S
C1763 H1748 0.959 . S
C1763 H1749 0.961 . S
C1763 C1762 1.502 . S
C1764 H1750 0.960 . S
C1764 H1751 0.961 . S
C1764 H1752 0.959 . S
C1764 C1762 1.561 . S
C1765 C1762 1.526 . S
C1765 C1766 1.396 . S
C1765 C1770 1.390 . S
C1766 C1760 1.465 . S
C1766 C1765 1.396 . S
C1766 C1767 1.399 . S
C1767 H1753 0.929 . S
C1767 C1766 1.399 . S
C1767 C1768 1.385 . S
C1768 H1754 0.931 . S
C1768 C1767 1.385 . S
C1768 C1769 1.389 . S
C1769 C1768 1.389 . S
C1769 C1770 1.387 . S
C1770 H1755 0.930 . S
C1770 C1765 1.390 . S
C1770 C1769 1.387 . S
H1771 C1783 0.930 . S
H1772 C1785 0.930 . S
H1773 C1786 0.930 . S
H1774 C1790 0.959 . S
H1775 C1790 0.959 . S
H1776 C1790 0.961 . S
H1777 C1791 0.960 . S
H1778 C1791 0.961 . S
H1779 C1791 0.959 . S
H1780 C1794 0.929 . S
H1781 C1795 0.931 . S
H1782 C1797 0.930 . S
C1783 H1771 0.930 . S
C1783 C1784 1.399 . S
C1783 C1788 1.399 . S
C1784 C1783 1.399 . S
C1784 C1785 1.376 . S
C1785 H1772 0.930 . S
C1785 C1784 1.376 . S
C1785 C1786 1.388 . S
C1786 H1773 0.930 . S
C1786 C1785 1.388 . S
C1786 C1787 1.390 . S
C1787 C1786 1.390 . S
C1787 C1788 1.394 . S
C1787 C1793 1.465 . S
C1788 C1783 1.399 . S
C1788 C1787 1.394 . S
C1788 C1789 1.516 . S
C1789 C1788 1.516 . S
C1789 C1790 1.502 . S
C1789 C1791 1.561 . S
C1789 C1792 1.526 . S
C1790 H1774 0.959 . S
C1790 H1775 0.959 . S
C1790 H1776 0.961 . S
C1790 C1789 1.502 . S
C1791 H1777 0.960 . S
C1791 H1778 0.961 . S
C1791 H1779 0.959 . S
C1791 C1789 1.561 . S
C1792 C1789 1.526 . S
C1792 C1793 1.396 . S
C1792 C1797 1.390 . S
C1793 C1787 1.465 . S
C1793 C1792 1.396 . S
C1793 C1794 1.399 . S
C1794 H1780 0.929 . S
C1794 C1793 1.399 . S
C1794 C1795 1.385 . S
C1795 H1781 0.931 . S
C1795 C1794 1.385 . S
C1795 C1796 1.389 . S
C1796 C1795 1.389 . S
C1796 C1797 1.387 . S
C1797 H1782 0.930 . S
C1797 C1792 1.390 . S
C1797 C1796 1.387 . S
H1798 C1810 0.930 . S
H1799 C1812 0.930 . S
H1800 C1813 0.930 . S
H1801 C1817 0.959 . S
H1802 C1817 0.959 . S
H1803 C1817 0.961 . S
H1804 C1818 0.960 . S
H1805 C1818 0.961 . S
H1806 C1818 0.959 . S
H1807 C1821 0.929 . S
H1808 C1822 0.931 . S
H1809 C1824 0.930 . S
C1810 H1798 0.930 . S
C1810 C1811 1.399 . S
C1810 C1815 1.399 . S
C1811 C1810 1.399 . S
C1811 C1812 1.376 . S
C1812 H1799 0.930 . S
C1812 C1811 1.376 . S
C1812 C1813 1.388 . S
C1813 H1800 0.930 . S
C1813 C1812 1.388 . S
C1813 C1814 1.390 . S
C1814 C1813 1.390 . S
C1814 C1815 1.394 . S
C1814 C1820 1.465 . S
C1815 C1810 1.399 . S
C1815 C1814 1.394 . S
C1815 C1816 1.516 . S
C1816 C1815 1.516 . S
C1816 C1817 1.502 . S
C1816 C1818 1.561 . S
C1816 C1819 1.526 . S
C1817 H1801 0.959 . S
C1817 H1802 0.959 . S
C1817 H1803 0.961 . S
C1817 C1816 1.502 . S
C1818 H1804 0.960 . S
C1818 H1805 0.961 . S
C1818 H1806 0.959 . S
C1818 C1816 1.561 . S
C1819 C1816 1.526 . S
C1819 C1820 1.396 . S
C1819 C1824 1.390 . S
C1820 C1814 1.465 . S
C1820 C1819 1.396 . S
C1820 C1821 1.399 . S
C1821 H1807 0.929 . S
C1821 C1820 1.399 . S
C1821 C1822 1.385 . S
C1822 H1808 0.931 . S
C1822 C1821 1.385 . S
C1822 C1823 1.389 . S
C1823 C1822 1.389 . S
C1823 C1824 1.387 . S
C1824 H1809 0.930 . S
C1824 C1819 1.390 . S
C1824 C1823 1.387 . S
H1825 C1837 0.930 . S
H1826 C1839 0.930 . S
H1827 C1840 0.930 . S
H1828 C1844 0.959 . S
H1829 C1844 0.959 . S
H1830 C1844 0.961 . S
H1831 C1845 0.960 . S
H1832 C1845 0.961 . S
H1833 C1845 0.959 . S
H1834 C1848 0.929 . S
H1835 C1849 0.931 . S
H1836 C1851 0.930 . S
C1837 H1825 0.930 . S
C1837 C1838 1.399 . S
C1837 C1842 1.399 . S
C1838 C1837 1.399 . S
C1838 C1839 1.376 . S
C1839 H1826 0.930 . S
C1839 C1838 1.376 . S
C1839 C1840 1.388 . S
C1840 H1827 0.930 . S
C1840 C1839 1.388 . S
C1840 C1841 1.390 . S
C1841 C1840 1.390 . S
C1841 C1842 1.394 . S
C1841 C1847 1.465 . S
C1842 C1837 1.399 . S
C1842 C1841 1.394 . S
C1842 C1843 1.516 . S
C1843 C1842 1.516 . S
C1843 C1844 1.502 . S
C1843 C1845 1.561 . S
C1843 C1846 1.526 . S
C1844 H1828 0.959 . S
C1844 H1829 0.959 . S
C1844 H1830 0.961 . S
C1844 C1843 1.502 . S
C1845 H1831 0.960 . S
C1845 H1832 0.961 . S
C1845 H1833 0.959 . S
C1845 C1843 1.561 . S
C1846 C1843 1.526 . S
C1846 C1847 1.396 . S
C1846 C1851 1.390 . S
C1847 C1841 1.465 . S
C1847 C1846 1.396 . S
C1847 C1848 1.399 . S
C1848 H1834 0.929 . S
C1848 C1847 1.399 . S
C1848 C1849 1.385 . S
C1849 H1835 0.931 . S
C1849 C1848 1.385 . S
C1849 C1850 1.389 . S
C1850 C1849 1.389 . S
C1850 C1851 1.387 . S
C1851 H1836 0.930 . S
C1851 C1846 1.390 . S
C1851 C1850 1.387 . S
H1852 C1864 0.930 . S
H1853 C1866 0.930 . S
H1854 C1867 0.930 . S
H1855 C1871 0.959 . S
H1856 C1871 0.959 . S
H1857 C1871 0.961 . S
H1858 C1872 0.960 . S
H1859 C1872 0.961 . S
H1860 C1872 0.959 . S
H1861 C1875 0.929 . S
H1862 C1876 0.931 . S
H1863 C1878 0.930 . S
C1864 H1852 0.930 . S
C1864 C1865 1.399 . S
C1864 C1869 1.399 . S
C1865 C1864 1.399 . S
C1865 C1866 1.376 . S
C1866 H1853 0.930 . S
C1866 C1865 1.376 . S
C1866 C1867 1.388 . S
C1867 H1854 0.930 . S
C1867 C1866 1.388 . S
C1867 C1868 1.390 . S
C1868 C1867 1.390 . S
C1868 C1869 1.394 . S
C1868 C1874 1.465 . S
C1869 C1864 1.399 . S
C1869 C1868 1.394 . S
C1869 C1870 1.516 . S
C1870 C1869 1.516 . S
C1870 C1871 1.502 . S
C1870 C1872 1.561 . S
C1870 C1873 1.526 . S
C1871 H1855 0.959 . S
C1871 H1856 0.959 . S
C1871 H1857 0.961 . S
C1871 C1870 1.502 . S
C1872 H1858 0.960 . S
C1872 H1859 0.961 . S
C1872 H1860 0.959 . S
C1872 C1870 1.561 . S
C1873 C1870 1.526 . S
C1873 C1874 1.396 . S
C1873 C1878 1.390 . S
C1874 C1868 1.465 . S
C1874 C1873 1.396 . S
C1874 C1875 1.399 . S
C1875 H1861 0.929 . S
C1875 C1874 1.399 . S
C1875 C1876 1.385 . S
C1876 H1862 0.931 . S
C1876 C1875 1.385 . S
C1876 C1877 1.389 . S
C1877 C1876 1.389 . S
C1877 C1878 1.387 . S
C1878 H1863 0.930 . S
C1878 C1873 1.390 . S
C1878 C1877 1.387 . S
H1879 C1891 0.930 . S
H1880 C1893 0.930 . S
H1881 C1894 0.930 . S
H1882 C1898 0.959 . S
H1883 C1898 0.959 . S
H1884 C1898 0.961 . S
H1885 C1899 0.960 . S
H1886 C1899 0.961 . S
H1887 C1899 0.959 . S
H1888 C1902 0.929 . S
H1889 C1903 0.931 . S
H1890 C1905 0.930 . S
C1891 H1879 0.930 . S
C1891 C1892 1.399 . S
C1891 C1896 1.399 . S
C1892 C1891 1.399 . S
C1892 C1893 1.376 . S
C1893 H1880 0.930 . S
C1893 C1892 1.376 . S
C1893 C1894 1.388 . S
C1894 H1881 0.930 . S
C1894 C1893 1.388 . S
C1894 C1895 1.390 . S
C1895 C1894 1.390 . S
C1895 C1896 1.394 . S
C1895 C1901 1.465 . S
C1896 C1891 1.399 . S
C1896 C1895 1.394 . S
C1896 C1897 1.516 . S
C1897 C1896 1.516 . S
C1897 C1898 1.502 . S
C1897 C1899 1.561 . S
C1897 C1900 1.526 . S
C1898 H1882 0.959 . S
C1898 H1883 0.959 . S
C1898 H1884 0.961 . S
C1898 C1897 1.502 . S
C1899 H1885 0.960 . S
C1899 H1886 0.961 . S
C1899 H1887 0.959 . S
C1899 C1897 1.561 . S
C1900 C1897 1.526 . S
C1900 C1901 1.396 . S
C1900 C1905 1.390 . S
C1901 C1895 1.465 . S
C1901 C1900 1.396 . S
C1901 C1902 1.399 . S
C1902 H1888 0.929 . S
C1902 C1901 1.399 . S
C1902 C1903 1.385 . S
C1903 H1889 0.931 . S
C1903 C1902 1.385 . S
C1903 C1904 1.389 . S
C1904 C1903 1.389 . S
C1904 C1905 1.387 . S
C1905 H1890 0.930 . S
C1905 C1900 1.390 . S
C1905 C1904 1.387 . S
H1906 C1918 0.930 . S
H1907 C1920 0.930 . S
H1908 C1921 0.930 . S
H1909 C1925 0.959 . S
H1910 C1925 0.959 . S
H1911 C1925 0.961 . S
H1912 C1926 0.960 . S
H1913 C1926 0.961 . S
H1914 C1926 0.959 . S
H1915 C1929 0.929 . S
H1916 C1930 0.931 . S
H1917 C1932 0.930 . S
C1918 H1906 0.930 . S
C1918 C1919 1.399 . S
C1918 C1923 1.399 . S
C1919 C1918 1.399 . S
C1919 C1920 1.376 . S
C1920 H1907 0.930 . S
C1920 C1919 1.376 . S
C1920 C1921 1.388 . S
C1921 H1908 0.930 . S
C1921 C1920 1.388 . S
C1921 C1922 1.390 . S
C1922 C1921 1.390 . S
C1922 C1923 1.394 . S
C1922 C1928 1.465 . S
C1923 C1918 1.399 . S
C1923 C1922 1.394 . S
C1923 C1924 1.516 . S
C1924 C1923 1.516 . S
C1924 C1925 1.502 . S
C1924 C1926 1.561 . S
C1924 C1927 1.526 . S
C1925 H1909 0.959 . S
C1925 H1910 0.959 . S
C1925 H1911 0.961 . S
C1925 C1924 1.502 . S
C1926 H1912 0.960 . S
C1926 H1913 0.961 . S
C1926 H1914 0.959 . S
C1926 C1924 1.561 . S
C1927 C1924 1.526 . S
C1927 C1928 1.396 . S
C1927 C1932 1.390 . S
C1928 C1922 1.465 . S
C1928 C1927 1.396 . S
C1928 C1929 1.399 . S
C1929 H1915 0.929 . S
C1929 C1928 1.399 . S
C1929 C1930 1.385 . S
C1930 H1916 0.931 . S
C1930 C1929 1.385 . S
C1930 C1931 1.389 . S
C1931 C1930 1.389 . S
C1931 C1932 1.387 . S
C1932 H1917 0.930 . S
C1932 C1927 1.390 . S
C1932 C1931 1.387 . S
H1933 C1945 0.930 . S
H1934 C1947 0.930 . S
H1935 C1948 0.930 . S
H1936 C1952 0.959 . S
H1937 C1952 0.959 . S
H1938 C1952 0.961 . S
H1939 C1953 0.960 . S
H1940 C1953 0.961 . S
H1941 C1953 0.959 . S
H1942 C1956 0.929 . S
H1943 C1957 0.931 . S
H1944 C1959 0.930 . S
C1945 H1933 0.930 . S
C1945 C1946 1.399 . S
C1945 C1950 1.399 . S
C1946 C1945 1.399 . S
C1946 C1947 1.376 . S
C1947 H1934 0.930 . S
C1947 C1946 1.376 . S
C1947 C1948 1.388 . S
C1948 H1935 0.930 . S
C1948 C1947 1.388 . S
C1948 C1949 1.390 . S
C1949 C1948 1.390 . S
C1949 C1950 1.394 . S
C1949 C1955 1.465 . S
C1950 C1945 1.399 . S
C1950 C1949 1.394 . S
C1950 C1951 1.516 . S
C1951 C1950 1.516 . S
C1951 C1952 1.502 . S
C1951 C1953 1.561 . S
C1951 C1954 1.526 . S
C1952 H1936 0.959 . S
C1952 H1937 0.959 . S
C1952 H1938 0.961 . S
C1952 C1951 1.502 . S
C1953 H1939 0.960 . S
C1953 H1940 0.961 . S
C1953 H1941 0.959 . S
C1953 C1951 1.561 . S
C1954 C1951 1.526 . S
C1954 C1955 1.396 . S
C1954 C1959 1.390 . S
C1955 C1949 1.465 . S
C1955 C1954 1.396 . S
C1955 C1956 1.399 . S
C1956 H1942 0.929 . S
C1956 C1955 1.399 . S
C1956 C1957 1.385 . S
C1957 H1943 0.931 . S
C1957 C1956 1.385 . S
C1957 C1958 1.389 . S
C1958 C1957 1.389 . S
C1958 C1959 1.387 . S
C1959 H1944 0.930 . S
C1959 C1954 1.390 . S
C1959 C1958 1.387 . S
H1960 C1972 0.930 . S
H1961 C1974 0.930 . S
H1962 C1975 0.930 . S
H1963 C1979 0.959 . S
H1964 C1979 0.959 . S
H1965 C1979 0.961 . S
H1966 C1980 0.960 . S
H1967 C1980 0.961 . S
H1968 C1980 0.959 . S
H1969 C1983 0.929 . S
H1970 C1984 0.931 . S
H1971 C1986 0.930 . S
C1972 H1960 0.930 . S
C1972 C1973 1.399 . S
C1972 C1977 1.399 . S
C1973 C1972 1.399 . S
C1973 C1974 1.376 . S
C1974 H1961 0.930 . S
C1974 C1973 1.376 . S
C1974 C1975 1.388 . S
C1975 H1962 0.930 . S
C1975 C1974 1.388 . S
C1975 C1976 1.390 . S
C1976 C1975 1.390 . S
C1976 C1977 1.394 . S
C1976 C1982 1.465 . S
C1977 C1972 1.399 . S
C1977 C1976 1.394 . S
C1977 C1978 1.516 . S
C1978 C1977 1.516 . S
C1978 C1979 1.502 . S
C1978 C1980 1.561 . S
C1978 C1981 1.526 . S
C1979 H1963 0.959 . S
C1979 H1964 0.959 . S
C1979 H1965 0.961 . S
C1979 C1978 1.502 . S
C1980 H1966 0.960 . S
C1980 H1967 0.961 . S
C1980 H1968 0.959 . S
C1980 C1978 1.561 . S
C1981 C1978 1.526 . S
C1981 C1982 1.396 . S
C1981 C1986 1.390 . S
C1982 C1976 1.465 . S
C1982 C1981 1.396 . S
C1982 C1983 1.399 . S
C1983 H1969 0.929 . S
C1983 C1982 1.399 . S
C1983 C1984 1.385 . S
C1984 H1970 0.931 . S
C1984 C1983 1.385 . S
C1984 C1985 1.389 . S
C1985 C1984 1.389 . S
C1985 C1986 1.387 . S
C1986 H1971 0.930 . S
C1986 C1981 1.390 . S
C1986 C1985 1.387 . S
H1987 C1999 0.930 . S
H1988 C2001 0.930 . S
H1989 C2002 0.930 . S
H1990 C2006 0.959 . S
H1991 C2006 0.959 . S
H1992 C2006 0.961 . S
H1993 C2007 0.960 . S
H1994 C2007 0.961 . S
H1995 C2007 0.959 . S
H1996 C2010 0.929 . S
H1997 C2011 0.931 . S
H1998 C2013 0.930 . S
C1999 H1987 0.930 . S
C1999 C2000 1.399 . S
C1999 C2004 1.399 . S
C2000 C1999 1.399 . S
C2000 C2001 1.376 . S
C2001 H1988 0.930 . S
C2001 C2000 1.376 . S
C2001 C2002 1.388 . S
C2002 H1989 0.930 . S
C2002 C2001 1.388 . S
C2002 C2003 1.390 . S
C2003 C2002 1.390 . S
C2003 C2004 1.394 . S
C2003 C2009 1.465 . S
C2004 C1999 1.399 . S
C2004 C2003 1.394 . S
C2004 C2005 1.516 . S
C2005 C2004 1.516 . S
C2005 C2006 1.502 . S
C2005 C2007 1.561 . S
C2005 C2008 1.526 . S
C2006 H1990 0.959 . S
C2006 H1991 0.959 . S
C2006 H1992 0.961 . S
C2006 C2005 1.502 . S
C2007 H1993 0.960 . S
C2007 H1994 0.961 . S
C2007 H1995 0.959 . S
C2007 C2005 1.561 . S
C2008 C2005 1.526 . S
C2008 C2009 1.396 . S
C2008 C2013 1.390 . S
C2009 C2003 1.465 . S
C2009 C2008 1.396 . S
C2009 C2010 1.399 . S
C2010 H1996 0.929 . S
C2010 C2009 1.399 . S
C2010 C2011 1.385 . S
C2011 H1997 0.931 . S
C2011 C2010 1.385 . S
C2011 C2012 1.389 . S
C2012 C2011 1.389 . S
C2012 C2013 1.387 . S
C2013 H1998 0.930 . S
C2013 C2008 1.390 . S
C2013 C2012 1.387 . S
H2014 C2026 0.930 . S
H2015 C2028 0.930 . S
H2016 C2029 0.930 . S
H2017 C2033 0.959 . S
H2018 C2033 0.959 . S
H2019 C2033 0.961 . S
H2020 C2034 0.960 . S
H2021 C2034 0.961 . S
H2022 C2034 0.959 . S
H2023 C2037 0.929 . S
H2024 C2038 0.931 . S
H2025 C2040 0.930 . S
C2026 H2014 0.930 . S
C2026 C2027 1.399 . S
C2026 C2031 1.399 . S
C2027 C2026 1.399 . S
C2027 C2028 1.376 . S
C2028 H2015 0.930 . S
C2028 C2027 1.376 . S
C2028 C2029 1.388 . S
C2029 H2016 0.930 . S
C2029 C2028 1.388 . S
C2029 C2030 1.390 . S
C2030 C2029 1.390 . S
C2030 C2031 1.394 . S
C2030 C2036 1.465 . S
C2031 C2026 1.399 . S
C2031 C2030 1.394 . S
C2031 C2032 1.516 . S
C2032 C2031 1.516 . S
C2032 C2033 1.502 . S
C2032 C2034 1.561 . S
C2032 C2035 1.526 . S
C2033 H2017 0.959 . S
C2033 H2018 0.959 . S
C2033 H2019 0.961 . S
C2033 C2032 1.502 . S
C2034 H2020 0.960 . S
C2034 H2021 0.961 . S
C2034 H2022 0.959 . S
C2034 C2032 1.561 . S
C2035 C2032 1.526 . S
C2035 C2036 1.396 . S
C2035 C2040 1.390 . S
C2036 C2030 1.465 . S
C2036 C2035 1.396 . S
C2036 C2037 1.399 . S
C2037 H2023 0.929 . S
C2037 C2036 1.399 . S
C2037 C2038 1.385 . S
C2038 H2024 0.931 . S
C2038 C2037 1.385 . S
C2038 C2039 1.389 . S
C2039 C2038 1.389 . S
C2039 C2040 1.387 . S
C2040 H2025 0.930 . S
C2040 C2035 1.390 . S
C2040 C2039 1.387 . S
H2041 C2053 0.930 . S
H2042 C2055 0.930 . S
H2043 C2056 0.930 . S
H2044 C2060 0.959 . S
H2045 C2060 0.959 . S
H2046 C2060 0.961 . S
H2047 C2061 0.960 . S
H2048 C2061 0.961 . S
H2049 C2061 0.959 . S
H2050 C2064 0.929 . S
H2051 C2065 0.931 . S
H2052 C2067 0.930 . S
C2053 H2041 0.930 . S
C2053 C2054 1.399 . S
C2053 C2058 1.399 . S
C2054 C2053 1.399 . S
C2054 C2055 1.376 . S
C2055 H2042 0.930 . S
C2055 C2054 1.376 . S
C2055 C2056 1.388 . S
C2056 H2043 0.930 . S
C2056 C2055 1.388 . S
C2056 C2057 1.390 . S
C2057 C2056 1.390 . S
C2057 C2058 1.394 . S
C2057 C2063 1.465 . S
C2058 C2053 1.399 . S
C2058 C2057 1.394 . S
C2058 C2059 1.516 . S
C2059 C2058 1.516 . S
C2059 C2060 1.502 . S
C2059 C2061 1.561 . S
C2059 C2062 1.526 . S
C2060 H2044 0.959 . S
C2060 H2045 0.959 . S
C2060 H2046 0.961 . S
C2060 C2059 1.502 . S
C2061 H2047 0.960 . S
C2061 H2048 0.961 . S
C2061 H2049 0.959 . S
C2061 C2059 1.561 . S
C2062 C2059 1.526 . S
C2062 C2063 1.396 . S
C2062 C2067 1.390 . S
C2063 C2057 1.465 . S
C2063 C2062 1.396 . S
C2063 C2064 1.399 . S
C2064 H2050 0.929 . S
C2064 C2063 1.399 . S
C2064 C2065 1.385 . S
C2065 H2051 0.931 . S
C2065 C2064 1.385 . S
C2065 C2066 1.389 . S
C2066 C2065 1.389 . S
C2066 C2067 1.387 . S
C2067 H2052 0.930 . S
C2067 C2062 1.390 . S
C2067 C2066 1.387 . S
H2068 C2080 0.930 . S
H2069 C2082 0.930 . S
H2070 C2083 0.930 . S
H2071 C2087 0.959 . S
H2072 C2087 0.959 . S
H2073 C2087 0.961 . S
H2074 C2088 0.960 . S
H2075 C2088 0.961 . S
H2076 C2088 0.959 . S
H2077 C2091 0.929 . S
H2078 C2092 0.931 . S
H2079 C2094 0.930 . S
C2080 H2068 0.930 . S
C2080 C2081 1.399 . S
C2080 C2085 1.399 . S
C2081 C2080 1.399 . S
C2081 C2082 1.376 . S
C2082 H2069 0.930 . S
C2082 C2081 1.376 . S
C2082 C2083 1.388 . S
C2083 H2070 0.930 . S
C2083 C2082 1.388 . S
C2083 C2084 1.390 . S
C2084 C2083 1.390 . S
C2084 C2085 1.394 . S
C2084 C2090 1.465 . S
C2085 C2080 1.399 . S
C2085 C2084 1.394 . S
C2085 C2086 1.516 . S
C2086 C2085 1.516 . S
C2086 C2087 1.502 . S
C2086 C2088 1.561 . S
C2086 C2089 1.526 . S
C2087 H2071 0.959 . S
C2087 H2072 0.959 . S
C2087 H2073 0.961 . S
C2087 C2086 1.502 . S
C2088 H2074 0.960 . S
C2088 H2075 0.961 . S
C2088 H2076 0.959 . S
C2088 C2086 1.561 . S
C2089 C2086 1.526 . S
C2089 C2090 1.396 . S
C2089 C2094 1.390 . S
C2090 C2084 1.465 . S
C2090 C2089 1.396 . S
C2090 C2091 1.399 . S
C2091 H2077 0.929 . S
C2091 C2090 1.399 . S
C2091 C2092 1.385 . S
C2092 H2078 0.931 . S
C2092 C2091 1.385 . S
C2092 C2093 1.389 . S
C2093 C2092 1.389 . S
C2093 C2094 1.387 . S
C2094 H2079 0.930 . S
C2094 C2089 1.390 . S
C2094 C2093 1.387 . S
H2095 C2107 0.930 . S
H2096 C2109 0.930 . S
H2097 C2110 0.930 . S
H2098 C2114 0.959 . S
H2099 C2114 0.959 . S
H2100 C2114 0.961 . S
H2101 C2115 0.960 . S
H2102 C2115 0.961 . S
H2103 C2115 0.959 . S
H2104 C2118 0.929 . S
H2105 C2119 0.931 . S
H2106 C2121 0.930 . S
C2107 H2095 0.930 . S
C2107 C2108 1.399 . S
C2107 C2112 1.399 . S
C2108 C2107 1.399 . S
C2108 C2109 1.376 . S
C2109 H2096 0.930 . S
C2109 C2108 1.376 . S
C2109 C2110 1.388 . S
C2110 H2097 0.930 . S
C2110 C2109 1.388 . S
C2110 C2111 1.390 . S
C2111 C2110 1.390 . S
C2111 C2112 1.394 . S
C2111 C2117 1.465 . S
C2112 C2107 1.399 . S
C2112 C2111 1.394 . S
C2112 C2113 1.516 . S
C2113 C2112 1.516 . S
C2113 C2114 1.502 . S
C2113 C2115 1.561 . S
C2113 C2116 1.526 . S
C2114 H2098 0.959 . S
C2114 H2099 0.959 . S
C2114 H2100 0.961 . S
C2114 C2113 1.502 . S
C2115 H2101 0.960 . S
C2115 H2102 0.961 . S
C2115 H2103 0.959 . S
C2115 C2113 1.561 . S
C2116 C2113 1.526 . S
C2116 C2117 1.396 . S
C2116 C2121 1.390 . S
C2117 C2111 1.465 . S
C2117 C2116 1.396 . S
C2117 C2118 1.399 . S
C2118 H2104 0.929 . S
C2118 C2117 1.399 . S
C2118 C2119 1.385 . S
C2119 H2105 0.931 . S
C2119 C2118 1.385 . S
C2119 C2120 1.389 . S
C2120 C2119 1.389 . S
C2120 C2121 1.387 . S
C2121 H2106 0.930 . S
C2121 C2116 1.390 . S
C2121 C2120 1.387 . S
H2122 C2134 0.930 . S
H2123 C2136 0.930 . S
H2124 C2137 0.930 . S
H2125 C2141 0.959 . S
H2126 C2141 0.959 . S
H2127 C2141 0.961 . S
H2128 C2142 0.960 . S
H2129 C2142 0.961 . S
H2130 C2142 0.959 . S
H2131 C2145 0.929 . S
H2132 C2146 0.931 . S
H2133 C2148 0.930 . S
C2134 H2122 0.930 . S
C2134 C2135 1.399 . S
C2134 C2139 1.399 . S
C2135 C2134 1.399 . S
C2135 C2136 1.376 . S
C2136 H2123 0.930 . S
C2136 C2135 1.376 . S
C2136 C2137 1.388 . S
C2137 H2124 0.930 . S
C2137 C2136 1.388 . S
C2137 C2138 1.390 . S
C2138 C2137 1.390 . S
C2138 C2139 1.394 . S
C2138 C2144 1.465 . S
C2139 C2134 1.399 . S
C2139 C2138 1.394 . S
C2139 C2140 1.516 . S
C2140 C2139 1.516 . S
C2140 C2141 1.502 . S
C2140 C2142 1.561 . S
C2140 C2143 1.526 . S
C2141 H2125 0.959 . S
C2141 H2126 0.959 . S
C2141 H2127 0.961 . S
C2141 C2140 1.502 . S
C2142 H2128 0.960 . S
C2142 H2129 0.961 . S
C2142 H2130 0.959 . S
C2142 C2140 1.561 . S
C2143 C2140 1.526 . S
C2143 C2144 1.396 . S
C2143 C2148 1.390 . S
C2144 C2138 1.465 . S
C2144 C2143 1.396 . S
C2144 C2145 1.399 . S
C2145 H2131 0.929 . S
C2145 C2144 1.399 . S
C2145 C2146 1.385 . S
C2146 H2132 0.931 . S
C2146 C2145 1.385 . S
C2146 C2147 1.389 . S
C2147 C2146 1.389 . S
C2147 C2148 1.387 . S
C2148 H2133 0.930 . S
C2148 C2143 1.390 . S
C2148 C2147 1.387 . S
H2149 C2161 0.930 . S
H2150 C2163 0.930 . S
H2151 C2164 0.930 . S
H2152 C2168 0.959 . S
H2153 C2168 0.959 . S
H2154 C2168 0.961 . S
H2155 C2169 0.960 . S
H2156 C2169 0.961 . S
H2157 C2169 0.959 . S
H2158 C2172 0.929 . S
H2159 C2173 0.931 . S
H2160 C2175 0.930 . S
C2161 H2149 0.930 . S
C2161 C2162 1.399 . S
C2161 C2166 1.399 . S
C2162 C2161 1.399 . S
C2162 C2163 1.376 . S
C2163 H2150 0.930 . S
C2163 C2162 1.376 . S
C2163 C2164 1.388 . S
C2164 H2151 0.930 . S
C2164 C2163 1.388 . S
C2164 C2165 1.390 . S
C2165 C2164 1.390 . S
C2165 C2166 1.394 . S
C2165 C2171 1.465 . S
C2166 C2161 1.399 . S
C2166 C2165 1.394 . S
C2166 C2167 1.516 . S
C2167 C2166 1.516 . S
C2167 C2168 1.502 . S
C2167 C2169 1.561 . S
C2167 C2170 1.526 . S
C2168 H2152 0.959 . S
C2168 H2153 0.959 . S
C2168 H2154 0.961 . S
C2168 C2167 1.502 . S
C2169 H2155 0.960 . S
C2169 H2156 0.961 . S
C2169 H2157 0.959 . S
C2169 C2167 1.561 . S
C2170 C2167 1.526 . S
C2170 C2171 1.396 . S
C2170 C2175 1.390 . S
C2171 C2165 1.465 . S
C2171 C2170 1.396 . S
C2171 C2172 1.399 . S
C2172 H2158 0.929 . S
C2172 C2171 1.399 . S
C2172 C2173 1.385 . S
C2173 H2159 0.931 . S
C2173 C2172 1.385 . S
C2173 C2174 1.389 . S
C2174 C2173 1.389 . S
C2174 C2175 1.387 . S
C2175 H2160 0.930 . S
C2175 C2170 1.390 . S
C2175 C2174 1.387 . S
C461 C135 1.176 . S
C473 C3 1.189 . S
C488 C17 1.180 1_455 S
C500 C373 1.118 . S
C515 C163 1.174 . S
C527 C31 1.198 . S
C542 C345 1.088 . S
C554 C45 1.180 . S
C569 C59 1.179 . S
C581 C219 1.110 . S
C596 C401 1.046 . S
C608 C73 1.201 . S
C623 C87 1.207 . S
C635 C191 1.087 . S
C650 C429 1.120 . S
C662 C101 1.178 1_455 S
C677 C23 1.111 . S
C689 C115 1.182 . S
C704 C129 1.205 1_655 S
C716 C261 1.108 . S
C731 C51 1.063 . S
C743 C143 1.191 . S
C758 C157 1.184 . S
C770 C233 1.178 . S
C785 C171 1.199 . S
C797 C107 1.041 . S
C812 C289 1.054 . S
C824 C185 1.193 . S
C839 C199 1.205 . S
C851 C79 1.105 . S
C866 C317 1.067 . S
C878 C213 1.183 1_655 S
C893 C359 1.043 . S
C905 C227 1.200 . S
C920 C149 1.162 . S
C932 C241 1.183 . S
C947 C255 1.208 . S
C959 C387 1.095 . S
C974 C121 1.071 . S
C986 C269 1.209 . S
C1001 C443 1.141 . S
C1013 C283 1.180 . S
C1028 C297 1.188 1_655 S
C1040 C177 1.175 . S
C1055 C415 1.170 . S
C1067 C311 1.200 . S
C1082 C205 1.061 . S
C1094 C325 1.184 . S
C1109 C247 1.096 . S
C1121 C339 1.206 . S
C1136 C353 1.208 . S
C1148 C37 1.066 . S
C1163 C367 1.179 . S
C1175 C275 1.144 . S
C1190 C381 1.236 . S
C1202 C9 1.048 . S
C1217 C331 1.118 . S
C1229 C395 1.204 . S
C1244 C409 1.177 1_455 S
C1256 C65 1.158 . S
C1271 C423 1.198 . S
C1283 C303 1.146 . S
C1298 C437 1.206 . S
C1310 C93 1.104 . S
C1325 C344 1.519 . S
C1337 C8 1.447 . S
C1352 C22 1.455 . S
C1364 C134 1.501 . S
C1379 C36 1.483 . S
C1391 C372 1.471 . S
C1406 C50 1.516 . S
C1418 C162 1.455 . S
C1433 C64 1.519 . S
C1445 C400 1.450 . S
C1460 C78 1.499 . S
C1472 C190 1.476 . S
C1487 C428 1.501 . S
C1499 C92 1.474 . S
C1514 C106 1.445 . S
C1526 C218 1.519 . S
C1541 C120 1.498 . S
C1553 C232 1.478 . S
C1568 C148 1.445 . S
C1580 C260 1.515 . S
C1595 C288 1.465 . S
C1607 C176 1.489 . S
C1622 C316 1.515 . S
C1634 C204 1.456 . S
C1649 C246 1.507 . S
C1661 C358 1.467 . S
C1676 C386 1.500 . S
C1688 C274 1.476 . S
C1703 C302 1.467 . S
C1715 C414 1.486 . S
C1730 C442 1.501 . S
C1742 C330 1.475 . S
C1757 C301 1.735 . S
C1769 C7 1.734 . S
C1784 C315 1.730 . S
C1796 C21 1.687 . S
C1811 C35 1.728 . S
C1823 C329 1.686 . S
C1838 C287 1.743 . S
C1850 C49 1.698 . S
C1865 C273 1.742 . S
C1877 C63 1.725 . S
C1892 C231 1.702 . S
C1904 C77 1.745 . S
C1919 C91 1.726 . S
C1931 C245 1.741 . S
C1946 C259 1.719 . S
C1958 C105 1.744 . S
C1973 C413 1.697 . S
C1985 C119 1.730 . S
C2000 C427 1.720 . S
C2012 C133 1.744 . S
C2027 C441 1.739 . S
C2039 C147 1.708 . S
C2054 C161 1.695 . S
C2066 C399 1.728 . S
C2081 C385 1.737 . S
C2093 C175 1.706 . S
C2108 C343 1.746 . S
C2120 C189 1.725 . S
C2135 C357 1.735 . S
C2147 C203 1.703 . S
C2162 C371 1.719 . S
C2174 C217 1.690 . S
