# Generated by pormake.
# Topology umz, (4)-cn, num edge types: 1
# Building blocks:
#     Node 0, Type 0, BuildingBlock: NAHDIM_clean_sbu_0, # of connection points: 4
#     Node 1, Type 0, BuildingBlock: NAHDIM_clean_sbu_0, # of connection points: 4
#     Node 2, Type 0, BuildingBlock: NAHDIM_clean_sbu_0, # of connection points: 4
#     Node 3, Type 0, BuildingBlock: NAHDIM_clean_sbu_0, # of connection points: 4
#     Node 4, Type 0, BuildingBlock: NAHDIM_clean_sbu_0, # of connection points: 4
#     Node 5, Type 0, BuildingBlock: NAHDIM_clean_sbu_0, # of connection points: 4
#     Node 6, Type 0, BuildingBlock: NAHDIM_clean_sbu_0, # of connection points: 4
#     Node 7, Type 0, BuildingBlock: NAHDIM_clean_sbu_0, # of connection points: 4
#     Node 8, Type 0, BuildingBlock: NAHDIM_clean_sbu_0, # of connection points: 4
#     Node 9, Type 0, BuildingBlock: NAHDIM_clean_sbu_0, # of connection points: 4
#     Node 10, Type 0, BuildingBlock: NAHDIM_clean_sbu_0, # of connection points: 4
#     Node 11, Type 0, BuildingBlock: NAHDIM_clean_sbu_0, # of connection points: 4
#     Node 12, Type 0, BuildingBlock: NAHDIM_clean_sbu_0, # of connection points: 4
#     Node 13, Type 0, BuildingBlock: NAHDIM_clean_sbu_0, # of connection points: 4
#     Node 14, Type 0, BuildingBlock: NAHDIM_clean_sbu_0, # of connection points: 4
#     Node 15, Type 0, BuildingBlock: NAHDIM_clean_sbu_0, # of connection points: 4
#     Edge 16, Type (0, 0), BuildingBlock: TEMPAE_clean_linker_10, # of connection points: 2
#     Edge 17, Type (0, 0), BuildingBlock: TEMPAE_clean_linker_10, # of connection points: 2
#     Edge 18, Type (0, 0), BuildingBlock: TEMPAE_clean_linker_10, # of connection points: 2
#     Edge 19, Type (0, 0), BuildingBlock: TEMPAE_clean_linker_10, # of connection points: 2
#     Edge 20, Type (0, 0), BuildingBlock: TEMPAE_clean_linker_10, # of connection points: 2
#     Edge 21, Type (0, 0), BuildingBlock: TEMPAE_clean_linker_10, # of connection points: 2
#     Edge 22, Type (0, 0), BuildingBlock: TEMPAE_clean_linker_10, # of connection points: 2
#     Edge 23, Type (0, 0), BuildingBlock: TEMPAE_clean_linker_10, # of connection points: 2
#     Edge 24, Type (0, 0), BuildingBlock: TEMPAE_clean_linker_10, # of connection points: 2
#     Edge 25, Type (0, 0), BuildingBlock: TEMPAE_clean_linker_10, # of connection points: 2
#     Edge 26, Type (0, 0), BuildingBlock: TEMPAE_clean_linker_10, # of connection points: 2
#     Edge 27, Type (0, 0), BuildingBlock: TEMPAE_clean_linker_10, # of connection points: 2
#     Edge 28, Type (0, 0), BuildingBlock: TEMPAE_clean_linker_10, # of connection points: 2
#     Edge 29, Type (0, 0), BuildingBlock: TEMPAE_clean_linker_10, # of connection points: 2
#     Edge 30, Type (0, 0), BuildingBlock: TEMPAE_clean_linker_10, # of connection points: 2
#     Edge 31, Type (0, 0), BuildingBlock: TEMPAE_clean_linker_10, # of connection points: 2
#     Edge 32, Type (0, 0), BuildingBlock: TEMPAE_clean_linker_10, # of connection points: 2
#     Edge 33, Type (0, 0), BuildingBlock: TEMPAE_clean_linker_10, # of connection points: 2
#     Edge 34, Type (0, 0), BuildingBlock: TEMPAE_clean_linker_10, # of connection points: 2
#     Edge 35, Type (0, 0), BuildingBlock: TEMPAE_clean_linker_10, # of connection points: 2
#     Edge 36, Type (0, 0), BuildingBlock: TEMPAE_clean_linker_10, # of connection points: 2
#     Edge 37, Type (0, 0), BuildingBlock: TEMPAE_clean_linker_10, # of connection points: 2
#     Edge 38, Type (0, 0), BuildingBlock: TEMPAE_clean_linker_10, # of connection points: 2
#     Edge 39, Type (0, 0), BuildingBlock: TEMPAE_clean_linker_10, # of connection points: 2
#     Edge 40, Type (0, 0), BuildingBlock: TEMPAE_clean_linker_10, # of connection points: 2
#     Edge 41, Type (0, 0), BuildingBlock: TEMPAE_clean_linker_10, # of connection points: 2
#     Edge 42, Type (0, 0), BuildingBlock: TEMPAE_clean_linker_10, # of connection points: 2
#     Edge 43, Type (0, 0), BuildingBlock: TEMPAE_clean_linker_10, # of connection points: 2
#     Edge 44, Type (0, 0), BuildingBlock: TEMPAE_clean_linker_10, # of connection points: 2
#     Edge 45, Type (0, 0), BuildingBlock: TEMPAE_clean_linker_10, # of connection points: 2
#     Edge 46, Type (0, 0), BuildingBlock: TEMPAE_clean_linker_10, # of connection points: 2
#     Edge 47, Type (0, 0), BuildingBlock: TEMPAE_clean_linker_10, # of connection points: 2
# Relax obj value: 0.220
# Max RMSD: 0.162
# Mean RMSD: 0.160
data_MOF--net-umz--node1-NAHDIM_clean_sbu_0--edge1-TEMPAE_clean_linker_10
_symmetry_space_group_name_H-M    P1
_symmetry_Int_Tables_number       1
_symmetry_cell_setting            triclinic
loop_
_symmetry_equiv_pos_as_xyz
'x, y, z'
_cell_length_a     60.483007
_cell_length_b     60.541888
_cell_length_c     21.983926
_cell_angle_alpha  90.003522
_cell_angle_beta   89.985962
_cell_angle_gamma 89.999019
loop_
_atom_site_label
_atom_site_type_symbol
_atom_site_fract_x
_atom_site_fract_y
_atom_site_fract_z
_atom_type_partial_charge
C0 C -0.00029 0.6812 0.11652 0.0
O1 O 0.99083 0.66373 0.09086 0.0
O2 O 0.98792 0.63019 0.19745 0.0
Zn3 Zn 0.01633 0.64725 0.18935 0.0
O4 O 0.03592 0.63414 0.12529 0.0
C5 C 0.03358 0.62371 0.28532 0.0
O6 O 0.02331 0.60871 0.25265 0.0
O7 O 0.01111 0.67869 0.16458 0.0
C8 C 0.05578 0.64102 0.1244 0.0
O9 O 0.06201 0.6558 0.16467 0.0
C10 C 0.98141 0.61605 0.15871 0.0
O11 O 0.9924 0.61374 0.10754 0.0
O12 O 0.03286 0.64376 0.26816 0.0
C13 C 0.81931 0.0221 0.61653 0.0
O14 O 0.83701 0.01279 0.59318 0.0
O15 O 0.86627 0.00575 0.70313 0.0
Zn16 Zn 0.8527 0.03598 0.69377 0.0
O17 O 0.86891 0.05393 0.63104 0.0
C18 C 0.87726 0.05171 0.78846 0.0
O19 O 0.89163 0.04369 0.74946 0.0
O20 O 0.8213 0.03335 0.66509 0.0
C21 C 0.86767 0.07488 0.63276 0.0
O22 O 0.85589 0.0843 0.67576 0.0
C23 C 0.884 0.00022 0.67616 0.0
O24 O 0.89283 0.01385 0.63653 0.0
O25 O 0.85682 0.05099 0.77492 0.0
C26 C 0.50089 0.81805 0.10205 0.0
O27 O 0.50709 0.83737 0.08077 0.0
O28 O 0.51379 0.86455 0.20037 0.0
Zn29 Zn 0.48561 0.847 0.19071 0.0
O30 O 0.4653 0.86272 0.13271 0.0
C31 C 0.48025 0.8512 0.32003 0.0
O32 O 0.50189 0.85296 0.31868 0.0
O33 O 0.49156 0.81725 0.15387 0.0
C34 C 0.45069 0.87655 0.14939 0.0
O35 O 0.44852 0.88121 0.20745 0.0
C36 C 0.51794 0.88157 0.16852 0.0
O37 O 0.50413 0.88729 0.12519 0.0
O38 O 0.47007 0.84611 0.27145 0.0
C39 C 0.69952 0.47973 0.70305 0.0
O40 O 0.68968 0.49879 0.71194 0.0
O41 O 0.64472 0.49295 0.74101 0.0
Zn42 Zn 0.65726 0.46205 0.74126 0.0
O43 O 0.6416 0.44258 0.68097 0.0
C44 C 0.63202 0.45346 0.84438 0.0
O45 O 0.61978 0.46767 0.81436 0.0
O46 O 0.68942 0.46202 0.717 0.0
C47 C 0.62187 0.44513 0.66244 0.0
O48 O 0.61023 0.4621 0.68138 0.0
C49 C 0.63953 0.5044 0.69478 0.0
O50 O 0.64322 0.4965 0.64004 0.0
O51 O 0.65094 0.4484 0.8232 0.0
C52 C 0.00816 0.82401 0.88378 0.0
O53 O 0.00115 0.84224 0.9098 0.0
O54 O 0.99494 0.87289 0.80599 0.0
Zn55 Zn 0.02418 0.85672 0.80702 0.0
O56 O 0.04643 0.86955 0.86546 0.0
C57 C 0.03347 0.87812 0.6973 0.0
O58 O 0.02173 0.89286 0.72688 0.0
O59 O 0.01891 0.82543 0.83419 0.0
C60 C 0.05058 0.88983 0.87485 0.0
O61 O 0.03929 0.90511 0.84603 0.0
C62 C 0.9872 0.88665 0.84407 0.0
O63 O 0.99809 0.89077 0.89448 0.0
O64 O 0.0371 0.8595 0.72236 0.0
C65 C 0.67638 0.02328 0.38125 0.0
O66 O 0.65869 0.01434 0.40568 0.0
O67 O 0.62585 0.01112 0.31106 0.0
Zn68 Zn 0.6428 0.0397 0.30632 0.0
O69 O 0.62973 0.06273 0.36145 0.0
C70 C 0.61929 0.05001 0.20326 0.0
O71 O 0.60438 0.04259 0.24167 0.0
O72 O 0.6742 0.03498 0.33356 0.0
C73 C 0.61807 0.05813 0.40777 0.0
O74 O 0.61368 0.03736 0.42018 0.0
C75 C 0.63204 0.99517 0.27755 0.0
O76 O 0.65015 0.99738 0.24508 0.0
O77 O 0.63937 0.05082 0.22035 0.0
C78 C 0.48341 0.68919 0.81853 0.0
O79 O 0.46304 0.68546 0.80045 0.0
O80 O 0.51335 0.62364 0.77352 0.0
Zn81 Zn 0.48829 0.6454 0.77533 0.0
O82 O 0.46432 0.63395 0.82978 0.0
C83 C 0.48512 0.64137 0.64435 0.0
O84 O 0.50644 0.63746 0.64776 0.0
O85 O 0.49802 0.67453 0.80918 0.0
C86 C 0.46799 0.62917 0.88505 0.0
O87 O 0.48813 0.63129 0.90668 0.0
C88 C 0.53335 0.62936 0.76543 0.0
O89 O 0.53821 0.65044 0.76054 0.0
O90 O 0.47476 0.6471 0.69211 0.0
C91 C 0.8293 0.46883 0.41736 0.0
O92 O 0.84953 0.47311 0.43571 0.0
O93 O 0.87023 0.48667 0.30631 0.0
Zn94 Zn 0.85532 0.45745 0.31973 0.0
O95 O 0.87435 0.43903 0.37482 0.0
C96 C 0.85465 0.45355 0.18992 0.0
O97 O 0.85156 0.47499 0.19319 0.0
O98 O 0.82643 0.46183 0.36335 0.0
C99 C 0.87532 0.4181 0.37112 0.0
O100 O 0.86404 0.4079 0.32848 0.0
C101 C 0.89059 0.48626 0.29219 0.0
O102 O 0.9009 0.46716 0.29035 0.0
O103 O 0.8539 0.44221 0.23856 0.0
C104 C 0.99004 0.31708 0.84715 0.0
O105 O 0.9875 0.31266 0.78906 0.0
O106 O 0.97367 0.35649 0.72941 0.0
Zn107 Zn 0.98578 0.36363 0.81197 0.0
O108 O 0.96289 0.38227 0.85371 0.0
C109 C 0.01283 0.39922 0.77538 0.0
O110 O 0.9934 0.40643 0.75751 0.0
O111 O 0.99034 0.33705 0.86469 0.0
C112 C 0.96636 0.39058 0.90582 0.0
O113 O 0.98582 0.38788 0.93139 0.0
C114 C 0.95332 0.35162 0.72455 0.0
O115 O 0.94165 0.34869 0.77433 0.0
O116 O 0.01403 0.38061 0.80183 0.0
C117 C 0.18928 0.95642 0.37445 0.0
O118 O 0.17559 0.93996 0.38431 0.0
O119 O 0.15335 0.95337 0.21907 0.0
Zn120 Zn 0.1533 0.9693 0.29957 0.0
O121 O 0.13375 0.95271 0.35823 0.0
C122 C 0.12408 0.00106 0.24884 0.0
O123 O 0.11936 0.98388 0.21475 0.0
O124 O 0.1838 0.97142 0.33682 0.0
C125 C 0.11555 0.94334 0.34509 0.0
O126 O 0.10787 0.94455 0.2893 0.0
C127 C 0.15081 0.93256 0.21644 0.0
O128 O 0.15166 0.92096 0.26688 0.0
O129 O 0.13928 -0.00069 0.28853 0.0
C130 C 0.52887 0.20353 0.84935 0.0
O131 O 0.5475 0.20325 0.81865 0.0
O132 O 0.54046 0.16458 0.72045 0.0
Zn133 Zn 0.52268 0.16011 0.79686 0.0
O134 O 0.54036 0.14161 0.85511 0.0
C135 C 0.49489 0.13103 0.72843 0.0
O136 O 0.51302 0.12935 0.69584 0.0
O137 O 0.51526 0.18774 0.84288 0.0
C138 C 0.55046 0.12378 0.84241 0.0
O139 O 0.54936 0.11578 0.78694 0.0
C140 C 0.5614 0.16296 0.72017 0.0
O141 O 0.57203 0.16317 0.77229 0.0
O142 O 0.49484 0.14358 0.77486 0.0
C143 C 0.32632 0.55783 0.36668 0.0
O144 O 0.34246 0.57193 0.37578 0.0
O145 O 0.35572 0.55442 0.19388 0.0
Zn146 Zn 0.35697 0.54164 0.27781 0.0
O147 O 0.38045 0.55905 0.32116 0.0
C148 C 0.38615 0.50836 0.24337 0.0
O149 O 0.39565 0.52616 0.22126 0.0
O150 O 0.3282 0.54349 0.32464 0.0
C151 C 0.39041 0.55192 0.36797 0.0
O152 O 0.38548 0.53223 0.38912 0.0
C153 C 0.35769 0.5752 0.18808 0.0
O154 O 0.35587 0.58768 0.23674 0.0
O155 O 0.36783 0.51038 0.27115 0.0
C156 C 0.97029 0.19361 0.14757 0.0
O157 O 0.95023 0.18533 0.1494 0.0
O158 O 0.96328 0.15349 0.28684 0.0
Zn159 Zn 0.97906 0.15287 0.20605 0.0
O160 O 0.95955 0.13794 0.14447 0.0
C161 C 0.00807 0.11944 0.25244 0.0
O162 O 0.99096 0.11574 0.28782 0.0
O163 O 0.98596 0.18303 0.17276 0.0
C164 C 0.94906 0.12008 0.15383 0.0
O165 O 0.95106 0.11002 0.20648 0.0
C166 C 0.94232 0.15453 0.29001 0.0
O167 O 0.93091 0.1578 0.24 0.0
O168 O 0.00707 0.13503 0.21379 0.0
C169 C 0.33185 0.95529 0.61154 0.0
O170 O 0.34548 0.93883 0.60127 0.0
O171 O 0.36703 0.95672 0.77549 0.0
Zn172 Zn 0.3674 0.96838 0.68961 0.0
O173 O 0.38685 0.94748 0.64293 0.0
C174 C 0.37831 0.01577 0.66262 0.0
O175 O 0.36178 0.01651 0.62391 0.0
O176 O 0.3372 0.97001 0.65015 0.0
C177 C 0.3961 0.95274 0.59318 0.0
O178 O 0.3932 0.97272 0.57128 0.0
C179 C 0.38539 0.95984 0.80244 0.0
O180 O 0.40116 0.9704 0.77345 0.0
O181 O 0.38227 0.99805 0.6915 0.0
C182 C 0.52825 0.30745 0.20509 0.0
O183 O 0.54754 0.30937 0.23201 0.0
O184 O 0.53735 0.34955 0.33191 0.0
Zn185 Zn 0.52142 0.35149 0.25161 0.0
O186 O 0.54131 0.3682 0.19444 0.0
C187 C 0.47966 0.372 0.22215 0.0
O188 O 0.4818 0.36078 0.17131 0.0
O189 O 0.51393 0.32257 0.21209 0.0
C190 C 0.54223 0.36435 0.13771 0.0
O191 O 0.52908 0.34939 0.11395 0.0
C192 C 0.5583 0.35133 0.33199 0.0
O193 O 0.56894 0.35047 0.27995 0.0
O194 O 0.49422 0.36991 0.26337 0.0
C195 C 0.19408 0.56163 0.64565 0.0
O196 O 0.1819 0.57958 0.64736 0.0
O197 O 0.15483 0.5636 0.78455 0.0
Zn198 Zn 0.15641 0.54573 0.70765 0.0
O199 O 0.1359 0.55994 0.64698 0.0
C200 C 0.13958 0.50118 0.68808 0.0
O201 O 0.14561 0.50443 0.63138 0.0
O202 O 0.18708 0.54429 0.67198 0.0
C203 C 0.13827 0.55831 0.58975 0.0
O204 O 0.15457 0.54638 0.56781 0.0
C205 C 0.14892 0.58374 0.78304 0.0
O206 O 0.14658 0.59351 0.73008 0.0
O207 O 0.14381 0.51591 0.72756 0.0
C208 C 0.98435 0.70588 0.036 0.0
C209 C 0.99871 0.70282 0.0854 0.0
C210 C 0.98462 0.72553 0.00223 0.0
C211 C -0.00025 0.74241 0.01791 0.0
C212 C 0.01396 0.73962 0.06852 0.0
C213 C 0.01318 0.71989 0.10191 0.0
C214 C 0.96899 0.72807 0.94911 0.0
C215 C 0.03038 0.75725 0.08644 0.0
C216 C 0.01708 0.78392 0.8975 0.0
C217 C 0.00489 0.80259 0.91474 0.0
C218 C 0.01537 0.7641 0.93029 0.0
C219 C 0.00095 0.76291 0.98097 0.0
C220 C 0.9881 0.78149 0.99736 0.0
C221 C 0.9903 0.80113 0.96421 0.0
C222 C 0.02942 0.74461 0.91172 0.0
C223 C 0.97233 0.78075 0.05062 0.0
H224 H 0.97306 0.69279 0.02315 0.0
H225 H 0.0244 0.71758 0.13983 0.0
H226 H 0.95903 0.74333 0.9544 0.0
H227 H 0.97857 0.72974 0.9063 0.0
H228 H 0.95758 0.71378 0.94453 0.0
H229 H 0.04001 0.75266 0.12758 0.0
H230 H 0.0421 0.76022 0.04844 0.0
H231 H 0.02168 0.77305 0.09541 0.0
H232 H 0.02843 0.78498 0.85944 0.0
H233 H 0.98071 0.81546 0.97755 0.0
H234 H 0.01881 0.73001 0.90296 0.0
H235 H 0.04083 0.74018 0.94932 0.0
H236 H 0.03937 0.74804 0.8703 0.0
H237 H 0.96059 0.76681 0.04528 0.0
H238 H 0.96273 0.79629 0.05551 0.0
H239 H 0.98168 0.77788 0.0933 0.0
C240 C 0.70035 0.00684 0.46177 0.0
C241 C 0.69796 0.02137 0.41249 0.0
C242 C 0.72007 0.00597 0.4952 0.0
C243 C 0.73777 0.0201 0.47923 0.0
C244 C 0.73565 0.03449 0.42877 0.0
C245 C 0.71578 0.03488 0.39579 0.0
C246 C 0.72182 0.99022 0.54826 0.0
C247 C 0.75419 0.04982 0.41051 0.0
C248 C 0.78019 0.03435 0.60047 0.0
C249 C 0.79797 0.02077 0.58387 0.0
C250 C 0.76044 0.03423 0.5669 0.0
C251 C 0.7584 0.02006 0.51595 0.0
C252 C 0.77611 0.00597 0.49982 0.0
C253 C 0.79571 0.00655 0.53384 0.0
C254 C 0.7419 0.04954 0.58532 0.0
C255 C 0.77445 0.99045 0.44621 0.0
H256 H 0.68669 0.99626 0.47478 0.0
H257 H 0.71402 0.0462 0.35789 0.0
H258 H 0.73642 0.97932 0.54253 0.0
H259 H 0.72424 -0.00036 0.59101 0.0
H260 H 0.70686 0.97973 0.55324 0.0
H261 H 0.75009 0.05966 0.36939 0.0
H262 H 0.75792 0.06134 0.4484 0.0
H263 H 0.76945 0.04021 0.40136 0.0
H264 H 0.78185 0.04543 0.63893 0.0
H265 H 0.80934 0.99593 0.52087 0.0
H266 H 0.72667 0.0399 0.59458 0.0
H267 H 0.73811 0.06107 0.5475 0.0
H268 H 0.74603 0.05938 0.62645 0.0
H269 H 0.75994 0.97941 0.45167 0.0
H270 H 0.78949 0.98011 0.44075 0.0
H271 H 0.7719 4e-05 0.40379 0.0
C272 C 0.49278 0.77817 0.08142 0.0
C273 C 0.50211 0.79826 0.06268 0.0
C274 C 0.49154 0.76012 0.0415 0.0
C275 C 0.49982 0.76224 0.98151 0.0
C276 C 0.51012 0.78213 0.96323 0.0
C277 C 0.51117 0.79989 0.00406 0.0
C278 C 0.48058 0.73908 0.06274 0.0
C279 C 0.5192 0.78499 0.8997 0.0
C280 C 0.50835 0.7099 0.88922 0.0
C281 C 0.48855 0.70881 0.85606 0.0
C282 C 0.51241 0.72734 0.92975 0.0
C283 C 0.49638 0.74417 0.93676 0.0
C284 C 0.4767 0.74355 0.90192 0.0
C285 C 0.47298 0.72582 0.86218 0.0
C286 C 0.53354 0.72743 0.96633 0.0
C287 C 0.45934 0.76137 0.90758 0.0
H288 H 0.48582 0.77675 0.12668 0.0
H289 H 0.51853 0.81531 0.98927 0.0
H290 H 0.46508 0.73639 0.03678 0.0
H291 H 0.49149 0.7247 0.05391 0.0
H292 H 0.4765 0.73951 0.112 0.0
H293 H 0.52823 0.80085 0.89416 0.0
H294 H 0.53056 0.77122 0.88828 0.0
H295 H 0.50543 0.78454 0.86638 0.0
H296 H 0.52042 0.69676 0.88493 0.0
H297 H 0.4577 0.72513 0.83651 0.0
H298 H 0.52959 0.72601 0.01547 0.0
H299 H 0.54244 0.74328 0.95988 0.0
H300 H 0.54475 0.71366 0.95356 0.0
H301 H 0.4527 0.76162 0.95462 0.0
H302 H 0.44537 0.7589 0.8755 0.0
H303 H 0.4668 0.7778 0.89878 0.0
C304 C 0.72879 0.49781 0.64011 0.0
C305 C 0.72038 0.47871 0.66789 0.0
C306 C 0.7469 0.49672 0.60036 0.0
C307 C 0.75697 0.47606 0.58857 0.0
C308 C 0.74912 0.45685 0.61827 0.0
C309 C 0.73086 0.45839 0.65745 0.0
C310 C 0.75482 0.51756 0.5695 0.0
C311 C 0.75966 0.43458 0.60746 0.0
C312 C 0.78872 0.46848 0.44084 0.0
C313 C 0.81062 0.47113 0.46038 0.0
C314 C 0.77106 0.4702 0.48207 0.0
C315 C 0.77546 0.47448 0.54427 0.0
C316 C 0.79751 0.4772 0.56419 0.0
C317 C 0.81481 0.47559 0.52198 0.0
C318 C 0.7477 0.46738 0.45914 0.0
C319 C 0.80286 0.48163 0.63019 0.0
H320 H 0.72078 0.51358 0.64778 0.0
H321 H 0.72452 0.44357 0.67887 0.0
H322 H 0.77269 0.52008 0.57832 0.0
H323 H 0.75272 0.516 0.51954 0.0
H324 H 0.74568 0.53243 0.58516 0.0
H325 H 0.75228 0.42144 0.63633 0.0
H326 H 0.75767 0.42981 0.55904 0.0
H327 H 0.77766 0.43541 0.61686 0.0
H328 H 0.78537 0.46507 0.39333 0.0
H329 H 0.83169 0.47758 0.53758 0.0
H330 H 0.73782 0.48233 0.46986 0.0
H331 H 0.73971 0.45324 0.48252 0.0
H332 H 0.74706 0.46447 0.40928 0.0
H333 H 0.79454 0.49699 0.64548 0.0
H334 H 0.82091 0.48335 0.63826 0.0
H335 H 0.79652 0.46796 0.65892 0.0
C336 C 0.98883 0.27698 0.87507 0.0
C337 C 0.9904 0.29915 0.89295 0.0
C338 C 0.98721 0.26006 0.9185 0.0
C339 C 0.9871 0.26548 0.98117 0.0
C340 C 0.98945 0.28774 -0.00048 0.0
C341 C 0.99112 0.3043 0.95521 0.0
C342 C 0.98487 0.23645 0.89728 0.0
C343 C 0.98936 0.29417 0.06592 0.0
C344 C 0.95725 0.22539 0.08499 0.0
C345 C 0.97484 0.21333 0.10987 0.0
C346 C 0.96107 0.24271 0.04404 0.0
C347 C 0.98304 0.24803 0.02732 0.0
C348 C 0.00092 0.23636 0.05359 0.0
C349 C 0.99661 0.21917 0.09479 0.0
C350 C 0.94157 0.25495 0.01749 0.0
C351 C 0.02455 0.24161 0.0368 0.0
H352 H 0.98836 0.27286 0.82711 0.0
H353 H 0.99241 0.32139 0.96953 0.0
H354 H 0.99737 0.22584 0.91985 0.0
H355 H 0.96833 0.23005 0.9102 0.0
H356 H 0.9868 0.23484 0.84722 0.0
H357 H 0.9929 0.312 0.07271 0.0
H358 H 0.97295 0.29043 0.08602 0.0
H359 H 0.00179 0.28438 0.09137 0.0
H360 H 0.94038 0.22105 0.09664 0.0
H361 H 0.0103 0.20988 0.11371 0.0
H362 H 0.94104 0.25246 0.96751 0.0
H363 H 0.94332 0.27295 0.0257 0.0
H364 H 0.92558 0.24937 0.03709 0.0
H365 H 0.02722 0.23824 0.98773 0.0
H366 H 0.03661 0.23172 0.06346 0.0
H367 H 0.028 0.25939 0.04433 0.0
C368 C 0.30765 0.94321 0.52595 0.0
C369 C 0.31102 0.95694 0.57651 0.0
C370 C 0.28812 0.94437 0.49185 0.0
C371 C 0.2714 0.95947 0.50909 0.0
C372 C 0.27474 0.97354 0.55974 0.0
C373 C 0.29459 0.9722 0.59271 0.0
C374 C 0.28527 0.92922 0.4378 0.0
C375 C 0.25715 0.98967 0.57981 0.0
C376 C 0.22693 0.97258 0.39224 0.0
C377 C 0.21022 0.95773 0.40904 0.0
C378 C 0.24689 0.97357 0.42487 0.0
C379 C 0.25001 0.9596 0.47583 0.0
C380 C 0.233 0.94492 0.49363 0.0
C381 C 0.2134 0.94407 0.45981 0.0
C382 C 0.26479 0.98925 0.40418 0.0
C383 C 0.23561 0.92991 0.54807 0.0
H384 H 0.32035 0.93152 0.51274 0.0
H385 H 0.29711 0.98288 0.63167 0.0
H386 H 0.27127 0.91777 0.44602 0.0
H387 H 0.28122 0.93899 0.39659 0.0
H388 H 0.30033 0.91928 0.42848 0.0
H389 H 0.26262 0.0 0.61876 0.0
H390 H 0.25255 0.00069 0.54154 0.0
H391 H 0.24202 0.98054 0.59336 0.0
H392 H 0.22457 0.98318 0.35305 0.0
H393 H 0.20047 0.9327 0.47348 0.0
H394 H 0.27973 0.97976 0.39097 0.0
H395 H 0.26961 0.00036 0.44203 0.0
H396 H 0.25952 -0.00051 0.36485 0.0
H397 H 0.24942 0.9182 0.54016 0.0
H398 H 0.22038 0.92024 0.55765 0.0
H399 H 0.23982 0.93975 0.58903 0.0
C400 C 0.51062 0.21527 0.94603 0.0
C401 C 0.52553 0.21981 0.8987 0.0
C402 C 0.5093 0.22902 0.99726 0.0
C403 C 0.52292 0.24796 0.00069 0.0
C404 C 0.53729 0.25317 0.95185 0.0
C405 C 0.53857 0.23891 0.90164 0.0
C406 C 0.494 0.22277 0.04876 0.0
C407 C 0.55173 0.27352 0.95335 0.0
C408 C 0.50903 0.29386 0.11181 0.0
C409 C 0.52499 0.29057 0.15729 0.0
C410 C 0.50789 0.27988 0.06104 0.0
C411 C 0.52278 0.26195 0.05624 0.0
C412 C 0.53818 0.25789 0.10348 0.0
C413 C 0.53924 0.27239 0.15321 0.0
C414 C 0.49144 0.28492 0.01125 0.0
C415 C 0.554 0.23863 0.10056 0.0
H416 H 0.50059 0.20045 0.94431 0.0
H417 H 0.55006 0.24253 0.86511 0.0
H418 H 0.50384 0.21917 0.09017 0.0
H419 H 0.48283 0.23673 0.05986 0.0
H420 H 0.48377 0.20805 0.03783 0.0
H421 H 0.56084 0.27601 0.91001 0.0
H422 H 0.54154 0.2884 0.9625 0.0
H423 H 0.56392 0.2721 0.99083 0.0
H424 H 0.49805 0.30798 0.11438 0.0
H425 H 0.55154 0.26973 0.18831 0.0
H426 H 0.48129 0.27012 0.00107 0.0
H427 H 0.50041 0.28934 0.96892 0.0
H428 H 0.48023 0.29877 0.02343 0.0
H429 H 0.54481 0.22306 0.09221 0.0
H430 H 0.56377 0.23679 0.14304 0.0
H431 H 0.56563 0.24093 0.06203 0.0
C432 C 0.30791 0.56934 0.46304 0.0
C433 C 0.30691 0.55792 0.40758 0.0
C434 C 0.28994 0.56938 0.5033 0.0
C435 C 0.27036 0.55801 0.4873 0.0
C436 C 0.26919 0.54648 0.43133 0.0
C437 C 0.28758 0.54642 0.39228 0.0
C438 C 0.29191 0.58162 0.56293 0.0
C439 C 0.24844 0.53446 0.41238 0.0
C440 C 0.22924 0.54352 0.61184 0.0
C441 C 0.21407 0.56094 0.607 0.0
C442 C 0.24774 0.54238 0.57334 0.0
C443 C 0.25087 0.55885 0.52839 0.0
C444 C 0.23556 0.57641 0.52323 0.0
C445 C 0.21746 0.57735 0.56293 0.0
C446 C 0.26396 0.52362 0.58082 0.0
C447 C 0.23818 0.59413 0.47537 0.0
H448 H 0.32287 0.57809 0.47546 0.0
H449 H 0.28672 0.53759 0.34944 0.0
H450 H 0.27953 0.59512 0.56479 0.0
H451 H 0.28836 0.57029 0.60139 0.0
H452 H 0.30861 0.58887 0.56961 0.0
H453 H 0.25027 0.52614 0.36761 0.0
H454 H 0.24401 0.52187 0.44696 0.0
H455 H 0.23444 0.54627 0.40963 0.0
H456 H 0.22669 0.53081 0.64586 0.0
H457 H 0.20567 0.59074 0.5585 0.0
H458 H 0.28072 0.53028 0.59004 0.0
H459 H 0.26498 0.51394 0.53807 0.0
H460 H 0.25928 0.51231 0.61847 0.0
H461 H 0.25405 0.60299 0.48208 0.0
H462 H 0.22451 0.60638 0.47647 0.0
H463 H 0.23872 0.5865 0.42949 0.0
C464 C 0.09372 0.63978 0.07933 0.0
C465 C 0.07155 0.63294 0.07808 0.0
C466 C 0.10876 0.63267 0.03484 0.0
C467 C 0.10139 0.61847 0.98796 0.0
C468 C 0.0791 0.61133 0.9868 0.0
C469 C 0.06445 0.61862 0.03197 0.0
C470 C 0.13244 0.64049 0.03765 0.0
C471 C 0.07063 0.5962 0.93738 0.0
C472 C 0.13004 0.61516 0.83514 0.0
C473 C 0.14035 0.59445 0.83877 0.0
C474 C 0.11819 0.62374 0.88462 0.0
C475 C 0.11675 0.61135 0.93905 0.0
C476 C 0.1284 0.59118 0.94446 0.0
C477 C 0.14007 0.58295 0.89419 0.0
C478 C 0.10609 0.6454 0.87726 0.0
C479 C 0.12744 0.57763 0.00207 0.0
H480 H 0.09935 0.65079 0.11498 0.0
H481 H 0.04736 0.61326 0.03071 0.0
H482 H 0.14382 0.62613 0.03864 0.0
H483 H 0.13645 0.65018 0.99626 0.0
H484 H 0.1357 0.65094 0.07823 0.0
H485 H 0.0529 0.59195 0.9435 0.0
H486 H 0.0727 0.6042 0.89232 0.0
H487 H 0.08039 0.58069 0.93673 0.0
H488 H 0.13029 0.62425 0.79266 0.0
H489 H 0.14813 0.56701 0.89757 0.0
H490 H 0.10961 0.6565 0.91621 0.0
H491 H 0.088 0.64232 0.87679 0.0
H492 H 0.11067 0.65403 0.83448 0.0
H493 H 0.13085 0.58813 0.04234 0.0
H494 H 0.13945 0.56374 0.0015 0.0
H495 H 0.11058 0.57071 0.00768 0.0
C496 C 0.908 0.14416 0.34637 0.0
C497 C 0.93092 0.14774 0.34656 0.0
C498 C 0.89743 0.13419 0.39605 0.0
C499 C 0.91006 0.12781 0.4473 0.0
C500 C 0.93294 0.13264 0.4494 0.0
C501 C 0.94312 0.14251 0.39889 0.0
C502 C 0.87298 0.12931 0.39215 0.0
C503 C 0.9469 0.12632 0.5036 0.0
C504 C 0.87921 0.11158 0.59105 0.0
C505 C 0.87899 0.08847 0.5863 0.0
C506 C 0.88953 0.12466 0.5466 0.0
C507 C 0.89972 0.11435 0.49611 0.0
C508 C 0.8997 0.09102 0.49132 0.0
C509 C 0.8894 0.07836 0.53657 0.0
C510 C 0.8894 0.14947 0.5534 0.0
C511 C 0.91032 0.07942 0.43793 0.0
H512 H 0.89841 0.14821 0.30624 0.0
H513 H 0.96082 0.14534 0.39959 0.0
H514 H 0.87041 0.11118 0.38945 0.0
H515 H 0.86437 0.13523 0.4336 0.0
H516 H 0.86518 0.13708 0.35173 0.0
H517 H 0.96382 0.13342 0.50106 0.0
H518 H 0.93898 0.13195 0.54639 0.0
H519 H 0.94832 0.10807 0.50604 0.0
H520 H 0.87128 0.11951 0.6295 0.0
H521 H 0.8893 0.06052 0.53255 0.0
H522 H 0.8805 0.15708 0.51458 0.0
H523 H 0.90658 0.1559 0.55251 0.0
H524 H 0.88137 0.15488 0.59634 0.0
H525 H 0.90233 0.08479 0.39498 0.0
H526 H 0.90904 0.06116 0.44132 0.0
H527 H 0.92806 0.08397 0.4349 0.0
C528 C 0.42195 0.90447 0.12036 0.0
C529 C 0.4371 0.88804 0.10325 0.0
C530 C 0.41018 0.91649 0.07634 0.0
C531 C 0.41373 0.91198 0.01394 0.0
C532 C 0.42831 0.89481 0.99657 0.0
C533 C 0.4398 0.88306 0.0414 0.0
C534 C 0.39468 0.93461 0.09651 0.0
C535 C 0.43255 0.88947 0.93044 0.0
C536 C 0.37723 0.93261 0.88551 0.0
C537 C 0.39025 0.9498 0.86221 0.0
C538 C 0.38397 0.92083 0.93739 0.0
C539 C 0.40412 0.92648 0.96633 0.0
C540 C 0.41649 0.94477 0.94528 0.0
C541 C 0.40941 0.95619 0.8935 0.0
C542 C 0.37026 0.90152 0.95893 0.0
C543 C 0.43799 0.95146 0.97509 0.0
H544 H 0.41965 0.90833 0.16809 0.0
H545 H 0.45133 0.87027 0.02775 0.0
H546 H 0.40181 0.9509 0.08437 0.0
H547 H 0.37857 0.93317 0.07268 0.0
H548 H 0.39171 0.93427 0.14637 0.0
H549 H 0.4431 0.87459 0.9247 0.0
H550 H 0.4167 0.88669 0.90627 0.0
H551 H 0.44089 0.90365 0.90819 0.0
H552 H 0.36236 0.92766 0.86161 0.0
H553 H 0.41939 0.96968 0.87622 0.0
H554 H 0.36826 0.90198 0.00907 0.0
H555 H 0.37886 0.88588 0.94743 0.0
H556 H 0.35363 0.90128 0.93748 0.0
H557 H 0.43577 0.95319 0.02494 0.0
H558 H 0.4445 0.96728 0.9568 0.0
H559 H 0.45058 0.93842 0.96746 0.0
C560 C 0.55917 0.35952 0.44361 0.0
C561 C 0.56965 0.35986 0.38671 0.0
C562 C 0.56807 0.37111 0.49325 0.0
C563 C 0.58759 0.38368 0.4852 0.0
C564 C 0.59884 0.38312 0.42877 0.0
C565 C 0.58987 0.37099 0.38044 0.0
C566 C 0.556 0.37078 0.55334 0.0
C567 C 0.61955 0.39652 0.41809 0.0
C568 C 0.5954 0.43553 0.57961 0.0
C569 C 0.61229 0.42909 0.61936 0.0
C570 C 0.587 0.42076 0.53623 0.0
C571 C 0.59532 0.39889 0.53374 0.0
C572 C 0.6118 0.39208 0.57535 0.0
C573 C 0.62032 0.40737 0.61717 0.0
C574 C 0.56973 0.42878 0.49179 0.0
C575 C 0.62063 0.36875 0.5751 0.0
H576 H 0.54362 0.35081 0.44883 0.0
H577 H 0.59806 0.37139 0.3366 0.0
H578 H 0.56773 0.36777 0.59123 0.0
H579 H 0.54816 0.38709 0.56141 0.0
H580 H 0.54291 0.35791 0.55459 0.0
H581 H 0.62704 0.3932 0.37285 0.0
H582 H 0.61555 0.41438 0.42104 0.0
H583 H 0.63203 0.39294 0.45368 0.0
H584 H 0.58924 0.45234 0.58113 0.0
H585 H 0.63322 0.40228 0.64842 0.0
H586 H 0.55476 0.41825 0.49459 0.0
H587 H 0.57619 0.42747 0.44467 0.0
H588 H 0.56484 0.4462 0.5003 0.0
H589 H 0.60679 0.35676 0.57744 0.0
H590 H 0.63206 0.3656 0.6137 0.0
H591 H 0.62964 0.36557 0.53202 0.0
C592 C 0.12424 0.9068 0.16761 0.0
C593 C 0.1406 0.92304 0.16148 0.0
C594 C 0.11098 0.90074 0.11806 0.0
C595 C 0.11467 0.91067 0.06063 0.0
C596 C 0.1322 0.92594 0.05326 0.0
C597 C 0.14473 0.93226 0.10413 0.0
C598 C 0.09213 0.88479 0.1282 0.0
C599 C 0.13712 0.93629 0.99228 0.0
C600 C 0.08622 0.88244 0.92787 0.0
C601 C 0.06767 0.89598 0.9195 0.0
C602 C 0.10222 0.88756 0.97187 0.0
C603 C 0.09913 0.90621 0.00971 0.0
C604 C 0.08049 0.92005 0.00101 0.0
C605 C 0.06515 0.91495 0.95522 0.0
C606 C 0.12225 0.87286 0.97841 0.0
C607 C 0.07632 0.93978 0.04147 0.0
H608 H 0.12079 0.89988 0.2121 0.0
H609 H 0.15738 0.94483 0.09942 0.0
H610 H 0.07617 0.89338 0.12032 0.0
H611 H 0.09307 0.87093 0.09534 0.0
H612 H 0.09205 0.87789 0.17502 0.0
H613 H 0.15304 0.94544 0.99242 0.0
H614 H 0.13773 0.92345 0.95629 0.0
H615 H 0.12372 0.94799 0.98008 0.0
H616 H 0.08828 0.86788 0.89972 0.0
H617 H 0.05073 0.92534 0.94891 0.0
H618 H 0.12176 0.86427 0.02294 0.0
H619 H 0.13758 0.88294 0.97744 0.0
H620 H 0.1232 0.86023 0.94185 0.0
H621 H 0.07474 0.9343 0.08945 0.0
H622 H 0.06107 0.94888 0.02858 0.0
H623 H 0.09051 0.95135 0.03927 0.0
C624 C 0.56012 0.15064 0.61174 0.0
C625 C 0.57241 0.15419 0.66503 0.0
C626 C 0.5684 0.13738 0.56466 0.0
C627 C 0.5895 0.12754 0.57096 0.0
C628 C 0.60276 0.13267 0.6221 0.0
C629 C 0.59406 0.14599 0.66854 0.0
C630 C 0.55383 0.1325 0.51053 0.0
C631 C 0.62544 0.12268 0.63017 0.0
C632 C 0.5978 0.07099 0.50037 0.0
C633 C 0.61029 0.07601 0.44847 0.0
C634 C 0.59086 0.08767 0.5403 0.0
C635 C 0.59655 0.10993 0.52806 0.0
C636 C 0.60897 0.11517 0.4755 0.0
C637 C 0.61569 0.09814 0.43629 0.0
C638 C 0.57756 0.08143 0.59591 0.0
C639 C 0.61528 0.13872 0.46099 0.0
H640 H 0.54345 0.15709 0.60829 0.0
H641 H 0.60376 0.14877 0.70929 0.0
H642 H 0.56335 0.13388 0.46756 0.0
H643 H 0.54763 0.11529 0.51373 0.0
H644 H 0.53939 0.1438 0.50818 0.0
H645 H 0.63475 0.13059 0.6679 0.0
H646 H 0.62377 0.1048 0.64036 0.0
H647 H 0.63523 0.1242 0.58772 0.0
H648 H 0.59354 0.05396 0.51011 0.0
H649 H 0.62534 0.10219 0.39625 0.0
H650 H 0.56145 0.0902 0.59552 0.0
H651 H 0.58647 0.08661 0.63766 0.0
H652 H 0.57438 0.06339 0.59858 0.0
H653 H 0.60024 0.14912 0.4577 0.0
H654 H 0.62465 0.14007 0.41768 0.0
H655 H 0.62556 0.14558 0.49826 0.0
C656 C 0.37272 0.60691 0.12822 0.0
C657 C 0.36798 0.58428 0.13231 0.0
C658 C 0.38685 0.61506 0.08283 0.0
C659 C 0.39649 0.60019 0.04081 0.0
C660 C 0.3904 0.57763 0.04178 0.0
C661 C 0.37611 0.56995 0.08735 0.0
C662 C 0.39266 0.63931 0.08261 0.0
C663 C 0.40028 0.56126 0.99763 0.0
C664 C 0.42773 0.62229 0.90375 0.0
C665 C 0.44967 0.62169 0.92464 0.0
C666 C 0.41018 0.61547 0.94108 0.0
C667 C 0.41471 0.60772 0.00047 0.0
C668 C 0.43681 0.607 0.02172 0.0
C669 C 0.45401 0.61408 0.98363 0.0
C670 C 0.38682 0.61661 0.91711 0.0
C671 C 0.44231 0.59869 0.08473 0.0
H672 H 0.36635 0.61813 0.16243 0.0
H673 H 0.37246 0.55245 0.08988 0.0
H674 H 0.40991 0.64147 0.09869 0.0
H675 H 0.39173 0.64611 0.03582 0.0
H676 H 0.38157 0.64909 0.11259 0.0
H677 H 0.39187 0.54496 -0.00039 0.0
H678 H 0.39932 0.56762 0.9504 0.0
H679 H 0.41803 0.55881 0.00851 0.0
H680 H 0.42422 0.62824 0.85827 0.0
H681 H 0.4709 0.61352 5e-05 0.0
H682 H 0.37662 0.62731 0.94696 0.0
H683 H 0.37923 0.59993 0.91767 0.0
H684 H 0.38608 0.62318 0.86997 0.0
H685 H 0.43379 0.60894 0.11938 0.0
H686 H 0.46035 0.59903 0.09413 0.0
H687 H 0.43631 0.58149 0.09024 0.0
C688 C 0.95442 0.35896 0.61264 0.0
C689 C 0.9421 0.35428 0.66518 0.0
C690 C 0.94399 0.36615 0.55919 0.0
C691 C 0.92075 0.36882 0.55854 0.0
C692 C 0.90811 0.36236 0.60974 0.0
C693 C 0.91895 0.35506 0.66242 0.0
C694 C 0.95801 0.37252 0.50514 0.0
C695 C 0.88328 0.36491 0.6108 0.0
C696 C 0.8974 0.41631 0.46679 0.0
C697 C 0.88792 0.40539 0.41698 0.0
C698 C 0.90835 0.40455 0.5126 0.0
C699 C 0.91003 0.38128 0.50836 0.0
C700 C 0.90098 0.37015 0.45754 0.0
C701 C 0.88993 0.38235 0.41246 0.0
C702 C 0.91773 0.41705 0.56623 0.0
C703 C 0.90267 0.34538 0.4513 0.0
H704 H 0.97231 0.35814 0.61414 0.0
H705 H 0.90927 0.3513 0.70261 0.0
H706 H 0.95065 0.36621 0.46233 0.0
H707 H 0.95875 0.39078 0.50164 0.0
H708 H 0.97518 0.36613 0.50912 0.0
H709 H 0.87568 0.35648 0.65053 0.0
H710 H 0.87901 0.38273 0.61304 0.0
H711 H 0.87584 0.35819 0.56858 0.0
H712 H 0.89593 0.4341 0.47069 0.0
H713 H 0.88271 0.3738 0.37396 0.0
H714 H 0.9357 0.41371 0.5705 0.0
H715 H 0.90973 0.41134 0.60885 0.0
H716 H 0.91528 0.43517 0.56216 0.0
H717 H 0.92018 0.34009 0.45513 0.0
H718 H 0.89594 0.33938 0.40728 0.0
H719 H 0.89345 0.33728 0.48879 0.0
C720 C 0.95203 0.41109 0.99627 0.0
C721 C 0.94811 0.4014 0.9394 0.0
C722 C 0.93465 0.41997 0.03067 0.0
C723 C 0.91277 0.41906 0.00777 0.0
C724 C 0.90875 0.40983 0.94971 0.0
C725 C 0.92648 0.40115 0.91612 0.0
C726 C 0.93963 0.42988 0.09224 0.0
C727 C 0.88566 0.40858 0.92386 0.0
C728 C 0.87003 0.42121 0.13334 0.0
C729 C 0.86513 0.44385 0.13519 0.0
C730 C 0.88443 0.41261 0.08927 0.0
C731 C 0.89417 0.42701 0.04619 0.0
C732 C 0.88788 0.44952 0.04473 0.0
C733 C 0.87334 0.45766 0.08915 0.0
C734 C 0.89046 0.38842 0.09176 0.0
C735 C 0.89781 0.46538 -0.00069 0.0
H736 H 0.96869 0.41146 0.01444 0.0
H737 H 0.92329 0.39369 0.87216 0.0
H738 H 0.93324 0.44703 0.09461 0.0
H739 H 0.93116 0.42023 0.12826 0.0
H740 H 0.95763 0.43014 0.10233 0.0
H741 H 0.8855 0.40222 0.87645 0.0
H742 H 0.87536 0.39753 0.95248 0.0
H743 H 0.87778 0.42512 0.92452 0.0
H744 H 0.86359 0.41037 0.16839 0.0
H745 H 0.86958 0.47516 0.08999 0.0
H746 H 0.90773 0.38666 0.10809 0.0
H747 H 0.88961 0.38095 0.04576 0.0
H748 H 0.87946 0.37898 0.12277 0.0
H749 H 0.91531 0.4686 0.01154 0.0
H750 H 0.88887 0.48141 0.99834 0.0
H751 H 0.89766 0.45817 0.95293 0.0
C752 C 0.03829 0.90467 0.61202 0.0
C753 C 0.04357 0.88423 0.63838 0.0
C754 C 0.0493 0.91224 0.5601 0.0
C755 C 0.06597 0.89901 0.5335 0.0
C756 C 0.0706 0.87784 0.5578 0.0
C757 C 0.05935 0.87068 0.61021 0.0
C758 C 0.04385 0.93493 0.53563 0.0
C759 C 0.0881 0.86319 0.5301 0.0
C760 C 0.08493 0.91804 0.37741 0.0
C761 C 0.10345 0.93089 0.39242 0.0
C762 C 0.07308 0.90666 0.42255 0.0
C763 C 0.0798 0.90841 0.48404 0.0
C764 C 0.09881 0.92089 0.49917 0.0
C765 C 0.11044 0.93189 0.45318 0.0
C766 C 0.05302 0.89331 0.40472 0.0
C767 C 0.10642 0.9233 0.5643 0.0
H768 H 0.02594 0.91516 0.63304 0.0
H769 H 0.06342 0.85483 0.63014 0.0
H770 H 0.0583 0.94601 0.54171 0.0
H771 H 0.04031 0.93407 0.4862 0.0
H772 H 0.02939 0.94245 0.55892 0.0
H773 H 0.08784 0.84627 0.5496 0.0
H774 H 0.08584 0.86205 0.48012 0.0
H775 H 0.10467 0.87048 0.53833 0.0
H776 H 0.07959 0.91698 0.33044 0.0
H777 H 0.12479 0.94169 0.46515 0.0
H778 H 0.03789 0.90132 0.42283 0.0
H779 H 0.05392 0.87653 0.42485 0.0
H780 H 0.05133 0.89175 0.35458 0.0
H781 H 0.09364 0.93219 0.59101 0.0
H782 H 0.12223 0.93253 0.56799 0.0
H783 H 0.10861 0.90681 0.58542 0.0
C784 C 0.59047 0.05422 0.12343 0.0
C785 C 0.61216 0.05827 0.14307 0.0
C786 C 0.58233 0.06364 0.06979 0.0
C787 C 0.5962 0.07752 0.03483 0.0
C788 C 0.61847 0.08081 0.05265 0.0
C789 C 0.62623 0.07109 0.10669 0.0
C790 C 0.55851 0.0596 0.05225 0.0
C791 C 0.63375 0.09543 0.01628 0.0
C792 C 0.57418 0.09233 0.87814 0.0
C793 C 0.56345 0.11242 0.89014 0.0
C794 C 0.58575 0.08113 0.9242 0.0
C795 C 0.58654 0.09024 0.98348 0.0
C796 C 0.57635 0.11084 0.99526 0.0
C797 C 0.56495 0.12165 0.94852 0.0
C798 C 0.5965 0.05922 0.90998 0.0
C799 C 0.5768 0.12112 0.05788 0.0
H800 H 0.57957 0.04407 0.15084 0.0
H801 H 0.64303 0.07419 0.1215 0.0
H802 H 0.54902 0.07522 0.05637 0.0
H803 H 0.55741 0.05418 0.00416 0.0
H804 H 0.55051 0.04692 0.08141 0.0
H805 H 0.65117 0.09417 0.03194 0.0
H806 H 0.63301 0.09107 0.9673 0.0
H807 H 0.62837 0.11288 0.02061 0.0
H808 H 0.57325 0.08516 0.83304 0.0
H809 H 0.55688 0.13726 0.95816 0.0
H810 H 0.58765 0.04582 0.93432 0.0
H811 H 0.61387 0.05909 0.92613 0.0
H812 H 0.5963 0.05547 0.86051 0.0
H813 H 0.56756 0.11051 0.09025 0.0
H814 H 0.56933 0.13789 0.05851 0.0
H815 H 0.59406 0.12232 0.07462 0.0
C816 C 0.41529 0.55968 0.45609 0.0
C817 C 0.40616 0.56638 0.40053 0.0
C818 C 0.4291 0.57382 0.48937 0.0
C819 C 0.43396 0.59513 0.46637 0.0
C820 C 0.42534 0.60177 0.40946 0.0
C821 C 0.41149 0.58732 0.37724 0.0
C822 C 0.438 0.56614 0.55 0.0
C823 C 0.4303 0.6243 0.38335 0.0
C824 C 0.44927 0.63552 0.59049 0.0
C825 C 0.4724 0.63379 0.59077 0.0
C826 C 0.43653 0.62407 0.54758 0.0
C827 C 0.44721 0.61068 0.50376 0.0
C828 C 0.47058 0.61038 0.50049 0.0
C829 C 0.48292 0.62197 0.5441 0.0
C830 C 0.41163 0.62499 0.55217 0.0
C831 C 0.48255 0.59653 0.45383 0.0
H832 H 0.4113 0.54353 0.47431 0.0
H833 H 0.40458 0.5926 0.33413 0.0
H834 H 0.4563 0.5674 0.55051 0.0
H835 H 0.43163 0.57695 0.5868 0.0
H836 H 0.43329 0.54881 0.56041 0.0
H837 H 0.42371 0.62628 0.3365 0.0
H838 H 0.42289 0.63723 0.4127 0.0
H839 H 0.44841 0.62722 0.3825 0.0
H840 H 0.44099 0.64482 0.62595 0.0
H841 H 0.5008 0.62068 0.54361 0.0
H842 H 0.40532 0.60885 0.5686 0.0
H843 H 0.40418 0.62805 0.50686 0.0
H844 H 0.40594 0.63807 0.58399 0.0
H845 H 0.48086 0.57881 0.46581 0.0
H846 H 0.50044 0.60061 0.45149 0.0
H847 H 0.47517 0.59883 0.40808 0.0
C848 C 0.8709 0.07236 0.88615 0.0
C849 C 0.88522 0.06127 0.84635 0.0
C850 C 0.87892 0.08202 0.94 0.0
C851 C 0.90172 0.08044 0.95411 0.0
C852 C 0.9161 0.06884 0.91469 0.0
C853 C 0.90769 0.05945 0.86138 0.0
C854 C 0.86315 0.09428 0.98112 0.0
C855 C 0.94052 0.06671 0.92814 0.0
C856 C 0.93172 0.12246 0.05099 0.0
C857 C 0.93506 0.11066 0.10513 0.0
C858 C 0.91979 0.11325 0.0026 0.0
C859 C 0.91105 0.09168 0.0084 0.0
C860 C 0.9135 0.08005 0.06386 0.0
C861 C 0.92547 0.0897 0.11168 0.0
C862 C 0.91748 0.12621 0.94424 0.0
C863 C 0.9044 0.057 0.07166 0.0
H864 H 0.85352 0.07378 0.87482 0.0
H865 H 0.91887 0.05077 0.83117 0.0
H866 H 0.86429 0.08778 0.0282 0.0
H867 H 0.86776 0.112 0.98283 0.0
H868 H 0.84573 0.09295 0.9655 0.0
H869 H 0.94928 0.05642 0.89394 0.0
H870 H 0.94827 0.08332 0.92888 0.0
H871 H 0.94301 0.05925 0.97371 0.0
H872 H 0.93884 0.13879 0.04578 0.0
H873 H 0.92785 0.08054 0.15353 0.0
H874 H 0.89999 0.1264 0.92908 0.0
H875 H 0.92731 0.11815 0.90784 0.0
H876 H 0.92328 0.14354 0.94915 0.0
H877 H 0.88688 0.05631 0.05691 0.0
H878 H 0.90549 0.05122 0.11953 0.0
H879 H 0.91383 0.04537 0.0425 0.0
C880 C 0.41118 0.91446 0.58133 0.0
C881 C 0.40906 0.9361 0.55906 0.0
C882 C 0.42278 0.89832 0.54845 0.0
C883 C 0.43248 0.90397 0.49205 0.0
C884 C 0.43065 0.92584 0.46969 0.0
C885 C 0.41896 0.94164 0.50347 0.0
C886 C 0.4244 0.87517 0.57365 0.0
C887 C 0.44084 0.9325 0.40967 0.0
C888 C 0.47883 0.87117 0.41946 0.0
C889 C 0.46766 0.86063 0.37163 0.0
C890 C 0.46739 0.8844 0.46136 0.0
C891 C 0.44425 0.88704 0.45535 0.0
C892 C 0.43267 0.87508 0.41014 0.0
C893 C 0.44452 0.86198 0.36884 0.0
C894 C 0.48029 0.89674 0.50934 0.0
C895 C 0.40795 0.8773 0.40266 0.0
H896 H 0.40359 0.91003 0.6243 0.0
H897 H 0.41743 0.95831 0.48599 0.0
H898 H 0.41631 0.86339 0.54208 0.0
H899 H 0.44199 0.87017 0.57749 0.0
H900 H 0.41651 0.87363 0.61909 0.0
H901 H 0.43825 0.95027 0.39928 0.0
H902 H 0.45886 0.92912 0.41022 0.0
H903 H 0.43356 0.92254 0.37232 0.0
H904 H 0.49669 0.87012 0.42226 0.0
H905 H 0.43571 0.85377 0.33235 0.0
H906 H 0.47224 0.89505 0.55445 0.0
H907 H 0.48057 0.91459 0.49793 0.0
H908 H 0.49762 0.89081 0.51287 0.0
H909 H 0.39948 0.8753 0.44707 0.0
H910 H 0.40115 0.865 0.37018 0.0
H911 H 0.40398 0.89409 0.38554 0.0
C912 C 0.55801 0.37353 0.03579 0.0
C913 C 0.55797 0.37665 0.09895 0.0
C914 C 0.57225 0.38569 0.99824 0.0
C915 C 0.58685 0.40129 0.02455 0.0
C916 C 0.58742 0.404 0.08844 0.0
C917 C 0.57292 0.39168 0.12491 0.0
C918 C 0.57114 0.38238 0.9302 0.0
C919 C 0.60285 0.42038 0.1181 0.0
C920 C 0.6322 0.42243 0.92008 0.0
C921 C 0.62234 0.44162 0.89684 0.0
C922 C 0.62126 0.40951 0.96388 0.0
C923 C 0.60006 0.41601 0.98458 0.0
C924 C 0.59062 0.43597 0.96362 0.0
C925 C 0.6019 0.44854 0.92014 0.0
C926 C 0.6319 0.38841 0.98577 0.0
C927 C 0.56808 0.44354 0.9848 0.0
H928 H 0.54662 0.36186 0.01541 0.0
H929 H 0.57314 0.39403 0.17379 0.0
H930 H 0.56522 0.39776 0.90813 0.0
H931 H 0.58785 0.37881 0.91182 0.0
H932 H 0.55988 0.36866 0.91727 0.0
H933 H 0.60272 0.41903 0.1685 0.0
H934 H 0.62 0.41787 0.10163 0.0
H935 H 0.59791 0.43742 0.10541 0.0
H936 H 0.64802 0.41701 0.90235 0.0
H937 H 0.59426 0.46348 0.90289 0.0
H938 H 0.62254 0.37404 0.96799 0.0
H939 H 0.63139 0.38748 0.03615 0.0
H940 H 0.64937 0.38696 0.9706 0.0
H941 H 0.55532 0.43165 0.96916 0.0
H942 H 0.56376 0.46019 0.96719 0.0
H943 H 0.5674 0.44395 0.0352 0.0
C944 C 0.12633 0.56938 0.48535 0.0
C945 C 0.12293 0.56997 0.54839 0.0
C946 C 0.11166 0.57995 0.4455 0.0
C947 C 0.09311 0.5913 0.46929 0.0
C948 C 0.08982 0.59236 0.53293 0.0
C949 C 0.1048 0.5817 0.57177 0.0
C950 C 0.11573 0.57853 0.37781 0.0
C951 C 0.07018 0.60426 0.55987 0.0
C952 C 0.06386 0.63043 0.36085 0.0
C953 C 0.04726 0.61669 0.33744 0.0
C954 C 0.07856 0.62265 0.40543 0.0
C955 C 0.07643 0.60073 0.42714 0.0
C956 C 0.05904 0.58719 0.4057 0.0
C957 C 0.04472 0.59532 0.36098 0.0
C958 C 0.09693 0.63753 0.42735 0.0
C959 C 0.05606 0.5638 0.42822 0.0
H960 H 0.14038 0.56049 0.46696 0.0
H961 H 0.10211 0.58231 0.6205 0.0
H962 H 0.10208 0.56926 0.3558 0.0
H963 H 0.11597 0.59531 0.35758 0.0
H964 H 0.13159 0.57016 0.36687 0.0
H965 H 0.07078 0.60477 0.61036 0.0
H966 H 0.06936 0.62143 0.54241 0.0
H967 H 0.05469 0.59585 0.54587 0.0
H968 H 0.0659 0.64695 0.3427 0.0
H969 H 0.03177 0.58469 0.34349 0.0
H970 H 0.11309 0.63085 0.41209 0.0
H971 H 0.09725 0.63804 0.47778 0.0
H972 H 0.09522 0.65467 0.40987 0.0
H973 H 0.07046 0.55363 0.41428 0.0
H974 H 0.0408 0.556 0.41007 0.0
H975 H 0.05533 0.56351 0.47863 0.0
C976 C 0.9253 0.50689 0.26948 0.0
C977 C 0.90219 0.50669 0.27393 0.0
C978 C 0.93659 0.52584 0.25014 0.0
C979 C 0.92444 0.54496 0.23403 0.0
C980 C 0.9011 0.54489 0.2384 0.0
C981 C 0.89024 0.52577 0.25874 0.0
C982 C 0.96154 0.52538 0.24686 0.0
C983 C 0.88763 0.56489 0.2209 0.0
C984 C 0.95729 0.59819 0.23669 0.0
C985 C 0.96419 0.59985 0.1759 0.0
C986 C 0.94359 0.58086 0.25584 0.0
C987 C 0.93638 0.56499 0.213 0.0
C988 C 0.94218 0.56732 0.15092 0.0
C989 C 0.95615 0.58466 0.13314 0.0
C990 C 0.93791 0.57885 0.32252 0.0
C991 C 0.93447 0.55089 0.10378 0.0
H992 H 0.93461 0.49221 0.28131 0.0
H993 H 0.87235 0.52564 0.26162 0.0
H994 H 0.96703 0.52846 0.19947 0.0
H995 H 0.96855 0.53872 0.27561 0.0
H996 H 0.96851 0.50933 0.26215 0.0
H997 H 0.86959 0.56214 0.22681 0.0
H998 H 0.8926 0.5793 0.24891 0.0
H999 H 0.89086 0.56925 0.17269 0.0
H1000 H 0.96344 0.60985 0.2701 0.0
H1001 H 0.96128 0.58594 0.08603 0.0
H1002 H 0.94611 0.56402 0.34176 0.0
H1003 H 0.91984 0.57665 0.32855 0.0
H1004 H 0.94325 0.59353 0.34906 0.0
H1005 H 0.94259 0.53472 0.11184 0.0
H1006 H 0.9384 0.55635 0.05674 0.0
H1007 H 0.91637 0.54827 0.10749 0.0
C1008 C 0.88713 0.96605 0.73976 0.0
C1009 C 0.89641 0.98055 0.69696 0.0
C1010 C 0.89969 0.94893 0.76542 0.0
C1011 C 0.92209 0.94641 0.7482 0.0
C1012 C 0.9313 0.96048 0.70341 0.0
C1013 C 0.91831 0.9773 0.6781 0.0
C1014 C 0.88923 0.93401 0.81233 0.0
C1015 C 0.95515 0.95829 0.68385 0.0
C1016 C 0.96424 0.92076 0.85442 0.0
C1017 C 0.96809 0.90039 0.82607 0.0
C1018 C 0.94856 0.93558 0.831 0.0
C1019 C 0.9363 0.92972 0.77852 0.0
C1020 C 0.9391 0.9086 0.75215 0.0
C1021 C 0.95506 0.89422 0.77606 0.0
C1022 C 0.94606 0.95801 0.86028 0.0
C1023 C 0.92608 0.90161 0.69679 0.0
H1024 H 0.87017 0.96839 0.75436 0.0
H1025 H 0.92562 0.98842 0.64508 0.0
H1026 H 0.89195 0.91644 0.80016 0.0
H1027 H 0.89712 0.93681 0.85722 0.0
H1028 H 0.87117 0.93695 0.81693 0.0
H1029 H 0.95957 0.97007 0.64704 0.0
H1030 H 0.96618 0.96135 0.7233 0.0
H1031 H 0.95846 0.94126 0.66762 0.0
H1032 H 0.97427 0.92564 0.89301 0.0
H1033 H 0.95781 0.87839 0.75427 0.0
H1034 H 0.9284 0.96152 0.86975 0.0
H1035 H 0.95207 0.97094 0.82856 0.0
H1036 H 0.9555 0.95935 0.90348 0.0
H1037 H 0.90822 0.90501 0.70341 0.0
H1038 H 0.92824 0.88379 0.68638 0.0
H1039 H 0.9316 0.91132 0.65677 0.0
C1040 C 0.54055 0.91552 0.15125 0.0
C1041 C 0.53695 0.89594 0.1838 0.0
C1042 C 0.55732 0.93027 0.16823 0.0
C1043 C 0.57087 0.92528 0.2189 0.0
C1044 C 0.5678 0.90523 0.25084 0.0
C1045 C 0.55084 0.89079 0.23295 0.0
C1046 C 0.56011 0.95151 0.13297 0.0
C1047 C 0.58202 0.89931 0.30487 0.0
C1048 C 0.62384 0.95863 0.22946 0.0
C1049 C 0.61749 0.97579 0.26865 0.0
C1050 C 0.60914 0.9415 0.21479 0.0
C1051 C 0.58757 0.94162 0.23974 0.0
C1052 C 0.5814 0.95834 0.28145 0.0
C1053 C 0.59646 0.97519 0.29553 0.0
C1054 C 0.61636 0.92383 0.17059 0.0
C1055 C 0.55854 0.95901 0.30906 0.0
H1056 H 0.52995 0.91962 0.11315 0.0
H1057 H 0.5482 0.87566 0.25832 0.0
H1058 H 0.55686 0.96583 0.16321 0.0
H1059 H 0.57736 0.95304 0.11641 0.0
H1060 H 0.54876 0.95252 0.09333 0.0
H1061 H 0.57847 0.88246 0.32228 0.0
H1062 H 0.59978 0.90031 0.29248 0.0
H1063 H 0.57916 0.91134 0.34214 0.0
H1064 H 0.6401 0.95889 0.20877 0.0
H1065 H 0.59143 0.98834 0.326 0.0
H1066 H 0.60689 0.92548 0.12761 0.0
H1067 H 0.61279 0.90719 0.18932 0.0
H1068 H 0.63428 0.92489 0.15984 0.0
H1069 H 0.54613 0.96199 0.27282 0.0
H1070 H 0.55688 0.97218 0.34394 0.0
H1071 H 0.55451 0.9429 0.33037 0.0
C1072 C 0.62415 0.53379 0.76226 0.0
C1073 C 0.62726 0.52532 0.70344 0.0
C1074 C 0.6105 0.55211 0.7725 0.0
C1075 C 0.59964 0.56219 0.72275 0.0
C1076 C 0.6035 0.55439 0.66295 0.0
C1077 C 0.61732 0.53603 0.65397 0.0
C1078 C 0.60689 0.56003 0.83692 0.0
C1079 C 0.59222 0.56476 0.60876 0.0
C1080 C 0.54474 0.58986 0.75578 0.0
C1081 C 0.55057 0.61229 0.75634 0.0
C1082 C 0.56057 0.57346 0.7446 0.0
C1083 C 0.58281 0.5796 0.73396 0.0
C1084 C 0.58889 0.60217 0.73494 0.0
C1085 C 0.57267 0.61828 0.74606 0.0
C1086 C 0.55344 0.54954 0.74396 0.0
C1087 C 0.61249 0.60927 0.72411 0.0
H1088 H 0.63191 0.52572 0.80076 0.0
H1089 H 0.61969 0.52962 0.60839 0.0
H1090 H 0.60952 0.57813 0.83993 0.0
H1091 H 0.58956 0.55671 0.8507 0.0
H1092 H 0.61809 0.55172 0.8698 0.0
H1093 H 0.59849 0.55808 0.56496 0.0
H1094 H 0.57416 0.56164 0.61132 0.0
H1095 H 0.59463 0.58292 0.60906 0.0
H1096 H 0.5277 0.58507 0.76353 0.0
H1097 H 0.5773 0.63557 0.74637 0.0
H1098 H 0.56265 0.54016 0.77911 0.0
H1099 H 0.55741 0.542 0.69927 0.0
H1100 H 0.53545 0.54756 0.75258 0.0
H1101 H 0.62351 0.60157 0.75841 0.0
H1102 H 0.61451 0.62749 0.72646 0.0
H1103 H 0.61809 0.60351 0.67875 0.0
C1104 C 0.11785 0.46753 0.6595 0.0
C1105 C 0.12473 0.48261 0.70408 0.0
C1106 C 0.10121 0.45199 0.67186 0.0
C1107 C 0.09118 0.45163 0.73006 0.0
C1108 C 0.09894 0.46594 0.77622 0.0
C1109 C 0.11567 0.4812 0.76275 0.0
C1110 C 0.09355 0.43678 0.62168 0.0
C1111 C 0.08867 0.46606 0.83887 0.0
C1112 C 0.03118 0.43385 0.73992 0.0
C1113 C 0.03298 0.41247 0.76392 0.0
C1114 C 0.05002 0.44667 0.7285 0.0
C1115 C 0.07123 0.43786 0.74101 0.0
C1116 C 0.07321 0.41624 0.76488 0.0
C1117 C 0.05404 0.40381 0.77628 0.0
C1118 C 0.04721 0.46973 0.7034 0.0
C1119 C 0.09556 0.40628 0.77842 0.0
H1120 H 0.12486 0.46838 0.61417 0.0
H1121 H 0.12096 0.49269 0.79766 0.0
H1122 H 0.09261 0.41951 0.63831 0.0
H1123 H 0.07669 0.44163 0.60698 0.0
H1124 H 0.10467 0.43734 0.58147 0.0
H1125 H 0.09795 0.47669 0.8712 0.0
H1126 H 0.07144 0.47226 0.83588 0.0
H1127 H 0.08794 0.44907 0.85758 0.0
H1128 H 0.01499 0.44067 0.7303 0.0
H1129 H 0.05557 0.38727 0.79461 0.0
H1130 H 0.05614 0.47129 0.65952 0.0
H1131 H 0.05452 0.48193 0.73525 0.0
H1132 H 0.02958 0.47408 0.69593 0.0
H1133 H 0.10589 0.40627 0.73671 0.0
H1134 H 0.09428 0.38908 0.79566 0.0
H1135 H 0.10431 0.41643 0.81284 0.0
C1136 C 0.04588 0.10829 0.21695 0.0
C1137 C 0.02752 0.10461 0.2547 0.0
C1138 C 0.06365 0.09336 0.21572 0.0
C1139 C 0.06295 0.07426 0.2528 0.0
C1140 C 0.04481 0.07085 0.29242 0.0
C1141 C 0.02737 0.08609 0.29301 0.0
C1142 C 0.08281 0.09764 0.1733 0.0
C1143 C 0.04342 0.05064 0.33256 0.0
C1144 C 0.09227 0.02182 0.20474 0.0
C1145 C 0.11011 0.02112 0.24546 0.0
C1146 C 0.07727 0.03946 0.20521 0.0
C1147 C 0.08024 0.05693 0.24719 0.0
C1148 C 0.09879 0.05688 0.28646 0.0
C1149 C 0.11351 0.03892 0.28526 0.0
C1150 C 0.05769 0.03889 0.16258 0.0
C1151 C 0.10261 0.07535 0.33138 0.0
H1152 H 0.04619 0.12263 0.18746 0.0
H1153 H 0.01331 0.08314 0.3225 0.0
H1154 H 0.0987 0.0963 0.19823 0.0
H1155 H 0.08301 0.08496 0.13687 0.0
H1156 H 0.08185 0.11421 0.15175 0.0
H1157 H 0.02881 0.05105 0.36319 0.0
H1158 H 0.04237 0.03559 0.30388 0.0
H1159 H 0.05855 0.04916 0.36075 0.0
H1160 H 0.08956 0.00822 0.17357 0.0
H1161 H 0.12731 0.03856 0.31668 0.0
H1162 H 0.0567 0.05448 0.13623 0.0
H1163 H 0.04219 0.03744 0.18931 0.0
H1164 H 0.05852 0.02483 0.13017 0.0
H1165 H 0.1016 0.0916 0.30822 0.0
H1166 H 0.11893 0.074 0.35425 0.0
H1167 H 0.0895 0.07502 0.36667 0.0
C1168 C 0.41091 0.0333 0.71235 0.0
C1169 C 0.39315 0.03497 0.67151 0.0
C1170 C 0.42593 0.05066 0.71988 0.0
C1171 C 0.42313 0.07031 0.68596 0.0
C1172 C 0.40496 0.0724 0.64572 0.0
C1173 C 0.39017 0.05465 0.63884 0.0
C1174 C 0.44511 0.04773 0.76318 0.0
C1175 C 0.40143 0.0932 0.60917 0.0
C1176 C 0.45604 0.11854 0.74846 0.0
C1177 C 0.4754 0.11729 0.71343 0.0
C1178 C 0.43826 0.10415 0.73773 0.0
C1179 C 0.43996 0.08809 0.69116 0.0
C1180 C 0.45902 0.08745 0.65386 0.0
C1181 C 0.47648 0.10209 0.66536 0.0
C1182 C 0.41811 0.10544 0.77812 0.0
C1183 C 0.46151 0.07052 0.60386 0.0
H1184 H 0.41335 0.01822 0.73806 0.0
H1185 H 0.37646 0.05609 0.60736 0.0
H1186 H 0.46094 0.04873 0.73776 0.0
H1187 H 0.44518 0.06118 0.79744 0.0
H1188 H 0.44454 0.03164 0.78745 0.0
H1189 H 0.38575 0.09277 0.58287 0.0
H1190 H 0.40118 0.1078 0.63967 0.0
H1191 H 0.41536 0.09551 0.57694 0.0
H1192 H 0.45499 0.13037 0.78535 0.0
H1193 H 0.4913 0.1011 0.63774 0.0
H1194 H 0.41755 0.09074 0.80821 0.0
H1195 H 0.4028 0.10534 0.75035 0.0
H1196 H 0.41816 0.12048 0.80707 0.0
H1197 H 0.4629 0.05379 0.62418 0.0
H1198 H 0.47637 0.07355 0.57535 0.0
H1199 H 0.4467 0.07051 0.5741 0.0
C1200 C 0.46148 0.40243 0.28044 0.0
C1201 C 0.46216 0.38895 0.22854 0.0
C1202 C 0.44696 0.42042 0.28398 0.0
C1203 C 0.43268 0.42499 0.23458 0.0
C1204 C 0.43235 0.4107 0.1836 0.0
C1205 C 0.44715 0.39285 0.18112 0.0
C1206 C 0.44782 0.43527 0.33916 0.0
C1207 C 0.41719 0.41493 0.13032 0.0
C1208 C 0.38739 0.46744 0.26141 0.0
C1209 C 0.3973 0.48667 0.23846 0.0
C1210 C 0.39844 0.44704 0.25914 0.0
C1211 C 0.41992 0.44595 0.2337 0.0
C1212 C 0.4298 0.46523 0.20948 0.0
C1213 C 0.41835 0.48532 0.212 0.0
C1214 C 0.38736 0.42677 0.28497 0.0
C1215 C 0.45272 0.46478 0.18216 0.0
H1216 H 0.4729 0.39945 0.31753 0.0
H1217 H 0.44744 0.38242 0.14105 0.0
H1218 H 0.45459 0.45162 0.32599 0.0
H1219 H 0.43095 0.43805 0.35743 0.0
H1220 H 0.45832 0.42832 0.37593 0.0
H1221 H 0.417 0.4009 0.09776 0.0
H1222 H 0.40006 0.418 0.1463 0.0
H1223 H 0.42272 0.42996 0.10576 0.0
H1224 H 0.37108 0.46835 0.28174 0.0
H1225 H 0.42613 0.50007 0.19406 0.0
H1226 H 0.39685 0.42066 0.32473 0.0
H1227 H 0.38719 0.41332 0.25067 0.0
H1228 H 0.3701 0.4301 0.29963 0.0
H1229 H 0.4649 0.4597 0.21722 0.0
H1230 H 0.45778 0.4811 0.16373 0.0
H1231 H 0.45349 0.45244 0.14492 0.0
loop_
_geom_bond_atom_site_label_1
_geom_bond_atom_site_label_2
_geom_bond_distance
_geom_bond_site_symmetry_2
_ccdc_geom_bond_type
C0 O1 1.160 . S
C0 O7 1.185 . S
O1 C0 1.160 . S
O2 Zn3 1.899 . S
O2 C10 1.284 1_455 S
Zn3 O2 1.899 . S
Zn3 O4 2.032 . S
Zn3 O7 2.086 . S
Zn3 O12 1.977 . S
O4 Zn3 2.032 . S
O4 C8 1.278 . S
C5 O6 1.203 . S
C5 O12 1.267 . S
O6 C5 1.203 . S
O7 C0 1.185 . S
O7 Zn3 2.086 . S
C8 O4 1.278 . S
C8 O9 1.211 . S
O9 C8 1.211 . S
C10 O2 1.284 1_655 S
C10 O11 1.273 1_655 S
O11 C10 1.273 1_455 S
O12 Zn3 1.977 . S
O12 C5 1.267 . S
C13 O14 1.160 . S
C13 O20 1.185 . S
O14 C13 1.160 . S
O15 Zn16 1.899 . S
O15 C23 1.284 1_545 S
Zn16 O15 1.899 . S
Zn16 O17 2.032 . S
Zn16 O20 2.086 . S
Zn16 O25 1.977 . S
O17 Zn16 2.032 . S
O17 C21 1.278 . S
C18 O19 1.203 . S
C18 O25 1.267 . S
O19 C18 1.203 . S
O20 C13 1.185 . S
O20 Zn16 2.086 . S
C21 O17 1.278 . S
C21 O22 1.211 . S
O22 C21 1.211 . S
C23 O15 1.284 1_565 S
C23 O24 1.273 1_565 S
O24 C23 1.273 1_545 S
O25 Zn16 1.977 . S
O25 C18 1.267 . S
C26 O27 1.160 . S
C26 O33 1.185 . S
O27 C26 1.160 . S
O28 Zn29 1.899 . S
O28 C36 1.284 . S
Zn29 O28 1.899 . S
Zn29 O30 2.032 . S
Zn29 O33 2.086 . S
Zn29 O38 1.977 . S
O30 Zn29 2.032 . S
O30 C34 1.278 . S
C31 O32 1.203 . S
C31 O38 1.267 . S
O32 C31 1.203 . S
O33 C26 1.185 . S
O33 Zn29 2.086 . S
C34 O30 1.278 . S
C34 O35 1.211 . S
O35 C34 1.211 . S
C36 O28 1.284 . S
C36 O37 1.273 . S
O37 C36 1.273 . S
O38 Zn29 1.977 . S
O38 C31 1.267 . S
C39 O40 1.160 . S
C39 O46 1.185 . S
O40 C39 1.160 . S
O41 Zn42 1.899 . S
O41 C49 1.284 . S
Zn42 O41 1.899 . S
Zn42 O43 2.032 . S
Zn42 O46 2.086 . S
Zn42 O51 1.977 . S
O43 Zn42 2.032 . S
O43 C47 1.278 . S
C44 O45 1.203 . S
C44 O51 1.267 . S
O45 C44 1.203 . S
O46 C39 1.185 . S
O46 Zn42 2.086 . S
C47 O43 1.278 . S
C47 O48 1.211 . S
O48 C47 1.211 . S
C49 O41 1.284 . S
C49 O50 1.273 . S
O50 C49 1.273 . S
O51 Zn42 1.977 . S
O51 C44 1.267 . S
C52 O53 1.160 . S
C52 O59 1.185 . S
O53 C52 1.160 . S
O54 Zn55 1.899 . S
O54 C62 1.284 1_455 S
Zn55 O54 1.899 . S
Zn55 O56 2.032 . S
Zn55 O59 2.086 . S
Zn55 O64 1.977 . S
O56 Zn55 2.032 . S
O56 C60 1.278 . S
C57 O58 1.203 . S
C57 O64 1.267 . S
O58 C57 1.203 . S
O59 C52 1.185 . S
O59 Zn55 2.086 . S
C60 O56 1.278 . S
C60 O61 1.211 . S
O61 C60 1.211 . S
C62 O54 1.284 1_655 S
C62 O63 1.273 1_655 S
O63 C62 1.273 1_455 S
O64 Zn55 1.977 . S
O64 C57 1.267 . S
C65 O66 1.160 . S
C65 O72 1.185 . S
O66 C65 1.160 . S
O67 Zn68 1.899 . S
O67 C75 1.284 1_545 S
Zn68 O67 1.899 . S
Zn68 O69 2.032 . S
Zn68 O72 2.086 . S
Zn68 O77 1.977 . S
O69 Zn68 2.032 . S
O69 C73 1.278 . S
C70 O71 1.203 . S
C70 O77 1.267 . S
O71 C70 1.203 . S
O72 C65 1.185 . S
O72 Zn68 2.086 . S
C73 O69 1.278 . S
C73 O74 1.211 . S
O74 C73 1.211 . S
C75 O67 1.284 1_565 S
C75 O76 1.273 1_565 S
O76 C75 1.273 1_545 S
O77 Zn68 1.977 . S
O77 C70 1.267 . S
C78 O79 1.160 . S
C78 O85 1.185 . S
O79 C78 1.160 . S
O80 Zn81 1.899 . S
O80 C88 1.284 . S
Zn81 O80 1.899 . S
Zn81 O82 2.032 . S
Zn81 O85 2.086 . S
Zn81 O90 1.977 . S
O82 Zn81 2.032 . S
O82 C86 1.278 . S
C83 O84 1.203 . S
C83 O90 1.267 . S
O84 C83 1.203 . S
O85 C78 1.185 . S
O85 Zn81 2.086 . S
C86 O82 1.278 . S
C86 O87 1.211 . S
O87 C86 1.211 . S
C88 O80 1.284 . S
C88 O89 1.273 . S
O89 C88 1.273 . S
O90 Zn81 1.977 . S
O90 C83 1.267 . S
C91 O92 1.160 . S
C91 O98 1.185 . S
O92 C91 1.160 . S
O93 Zn94 1.899 . S
O93 C101 1.284 . S
Zn94 O93 1.899 . S
Zn94 O95 2.032 . S
Zn94 O98 2.086 . S
Zn94 O103 1.977 . S
O95 Zn94 2.032 . S
O95 C99 1.278 . S
C96 O97 1.203 . S
C96 O103 1.267 . S
O97 C96 1.203 . S
O98 C91 1.185 . S
O98 Zn94 2.086 . S
C99 O95 1.278 . S
C99 O100 1.211 . S
O100 C99 1.211 . S
C101 O93 1.284 . S
C101 O102 1.273 . S
O102 C101 1.273 . S
O103 Zn94 1.977 . S
O103 C96 1.267 . S
C104 O105 1.160 . S
C104 O111 1.185 . S
O105 C104 1.160 . S
O106 Zn107 1.899 . S
O106 C114 1.284 . S
Zn107 O106 1.899 . S
Zn107 O108 2.032 . S
Zn107 O111 2.086 . S
Zn107 O116 1.977 1_655 S
O108 Zn107 2.032 . S
O108 C112 1.278 . S
C109 O110 1.204 . S
C109 O116 1.267 . S
O110 C109 1.204 . S
O111 C104 1.185 . S
O111 Zn107 2.086 . S
C112 O108 1.278 . S
C112 O113 1.211 . S
O113 C112 1.211 . S
C114 O106 1.284 . S
C114 O115 1.273 . S
O115 C114 1.273 . S
O116 Zn107 1.977 1_455 S
O116 C109 1.267 . S
C117 O118 1.160 . S
C117 O124 1.185 . S
O118 C117 1.160 . S
O119 Zn120 1.899 . S
O119 C127 1.284 . S
Zn120 O119 1.899 . S
Zn120 O121 2.032 . S
Zn120 O124 2.086 . S
Zn120 O129 1.977 1_565 S
O121 Zn120 2.032 . S
O121 C125 1.278 . S
C122 O123 1.204 . S
C122 O129 1.267 . S
O123 C122 1.204 . S
O124 C117 1.185 . S
O124 Zn120 2.086 . S
C125 O121 1.278 . S
C125 O126 1.211 . S
O126 C125 1.211 . S
C127 O119 1.284 . S
C127 O128 1.273 . S
O128 C127 1.273 . S
O129 Zn120 1.977 1_545 S
O129 C122 1.267 . S
C130 O131 1.160 . S
C130 O137 1.185 . S
O131 C130 1.160 . S
O132 Zn133 1.899 . S
O132 C140 1.284 . S
Zn133 O132 1.899 . S
Zn133 O134 2.032 . S
Zn133 O137 2.086 . S
Zn133 O142 1.977 . S
O134 Zn133 2.032 . S
O134 C138 1.278 . S
C135 O136 1.203 . S
C135 O142 1.267 . S
O136 C135 1.203 . S
O137 C130 1.185 . S
O137 Zn133 2.086 . S
C138 O134 1.278 . S
C138 O139 1.211 . S
O139 C138 1.211 . S
C140 O132 1.284 . S
C140 O141 1.273 . S
O141 C140 1.273 . S
O142 Zn133 1.977 . S
O142 C135 1.267 . S
C143 O144 1.160 . S
C143 O150 1.185 . S
O144 C143 1.160 . S
O145 Zn146 1.899 . S
O145 C153 1.284 . S
Zn146 O145 1.899 . S
Zn146 O147 2.032 . S
Zn146 O150 2.086 . S
Zn146 O155 1.977 . S
O147 Zn146 2.032 . S
O147 C151 1.278 . S
C148 O149 1.203 . S
C148 O155 1.267 . S
O149 C148 1.203 . S
O150 C143 1.185 . S
O150 Zn146 2.086 . S
C151 O147 1.278 . S
C151 O152 1.211 . S
O152 C151 1.211 . S
C153 O145 1.284 . S
C153 O154 1.273 . S
O154 C153 1.273 . S
O155 Zn146 1.977 . S
O155 C148 1.267 . S
C156 O157 1.160 . S
C156 O163 1.185 . S
O157 C156 1.160 . S
O158 Zn159 1.899 . S
O158 C166 1.284 . S
Zn159 O158 1.899 . S
Zn159 O160 2.032 . S
Zn159 O163 2.086 . S
Zn159 O168 1.977 1_655 S
O160 Zn159 2.032 . S
O160 C164 1.278 . S
C161 O162 1.204 . S
C161 O168 1.267 . S
O162 C161 1.204 . S
O163 C156 1.185 . S
O163 Zn159 2.086 . S
C164 O160 1.278 . S
C164 O165 1.211 . S
O165 C164 1.211 . S
C166 O158 1.284 . S
C166 O167 1.273 . S
O167 C166 1.273 . S
O168 Zn159 1.977 1_455 S
O168 C161 1.267 . S
C169 O170 1.160 . S
C169 O176 1.185 . S
O170 C169 1.160 . S
O171 Zn172 1.899 . S
O171 C179 1.284 . S
Zn172 O171 1.899 . S
Zn172 O173 2.032 . S
Zn172 O176 2.086 . S
Zn172 O181 1.977 1_565 S
O173 Zn172 2.032 . S
O173 C177 1.278 . S
C174 O175 1.204 . S
C174 O181 1.267 . S
O175 C174 1.204 . S
O176 C169 1.185 . S
O176 Zn172 2.086 . S
C177 O173 1.278 . S
C177 O178 1.211 . S
O178 C177 1.211 . S
C179 O171 1.284 . S
C179 O180 1.273 . S
O180 C179 1.273 . S
O181 Zn172 1.977 1_545 S
O181 C174 1.267 . S
C182 O183 1.160 . S
C182 O189 1.185 . S
O183 C182 1.160 . S
O184 Zn185 1.899 . S
O184 C192 1.284 . S
Zn185 O184 1.899 . S
Zn185 O186 2.032 . S
Zn185 O189 2.086 . S
Zn185 O194 1.977 . S
O186 Zn185 2.032 . S
O186 C190 1.278 . S
C187 O188 1.203 . S
C187 O194 1.267 . S
O188 C187 1.203 . S
O189 C182 1.185 . S
O189 Zn185 2.086 . S
C190 O186 1.278 . S
C190 O191 1.211 . S
O191 C190 1.211 . S
C192 O184 1.284 . S
C192 O193 1.273 . S
O193 C192 1.273 . S
O194 Zn185 1.977 . S
O194 C187 1.267 . S
C195 O196 1.160 . S
C195 O202 1.185 . S
O196 C195 1.160 . S
O197 Zn198 1.899 . S
O197 C205 1.284 . S
Zn198 O197 1.899 . S
Zn198 O199 2.032 . S
Zn198 O202 2.086 . S
Zn198 O207 1.977 . S
O199 Zn198 2.032 . S
O199 C203 1.278 . S
C200 O201 1.203 . S
C200 O207 1.267 . S
O201 C200 1.203 . S
O202 C195 1.185 . S
O202 Zn198 2.086 . S
C203 O199 1.278 . S
C203 O204 1.211 . S
O204 C203 1.211 . S
C205 O197 1.284 . S
C205 O206 1.273 . S
O206 C205 1.273 . S
O207 Zn198 1.977 . S
O207 C200 1.267 . S
C208 C209 1.391 . S
C208 C210 1.394 . S
C208 H224 0.931 1_455 S
C209 C208 1.391 . S
C209 C213 1.376 . S
C210 C208 1.394 . S
C210 C211 1.369 . S
C210 C214 1.531 1_455 S
C211 C210 1.369 . S
C211 C212 1.410 . S
C211 C219 1.503 1_554 S
C212 C211 1.410 . S
C212 C213 1.392 . S
C212 C215 1.511 1_554 S
C213 C209 1.376 . S
C213 C212 1.392 . S
C213 H225 0.929 . S
C214 C210 1.531 1_655 S
C214 H226 0.960 . S
C214 H227 0.962 . S
C214 H228 0.960 . S
C215 C212 1.511 1_556 S
C215 H229 0.961 . S
C215 H230 0.961 . S
C215 H231 0.961 1_556 S
C216 C217 1.370 . S
C216 C218 1.363 . S
C216 H232 0.931 . S
C217 C216 1.370 . S
C217 C221 1.408 . S
C218 C216 1.363 . S
C218 C219 1.370 . S
C218 C222 1.524 . S
C219 C211 1.503 1_556 S
C219 C218 1.370 . S
C219 C220 1.403 1_556 S
C220 C219 1.403 1_554 S
C220 C221 1.404 1_554 S
C220 C223 1.539 . S
C221 C217 1.408 . S
C221 C220 1.404 1_556 S
C221 H233 0.930 . S
C222 C218 1.524 . S
C222 H234 0.956 1_455 S
C222 H235 0.961 . S
C222 H236 0.961 1_455 S
C223 C220 1.539 . S
C223 H237 0.958 . S
C223 H238 0.961 . S
C223 H239 0.960 . S
H224 C208 0.931 1_655 S
H225 C213 0.929 . S
H226 C214 0.960 . S
H227 C214 0.962 . S
H228 C214 0.960 . S
H229 C215 0.961 . S
H230 C215 0.961 . S
H231 C215 0.961 1_554 S
H232 C216 0.931 . S
H233 C221 0.930 . S
H234 C222 0.956 1_655 S
H235 C222 0.961 . S
H236 C222 0.961 1_655 S
H237 C223 0.958 . S
H238 C223 0.961 . S
H239 C223 0.960 . S
C240 C241 1.391 . S
C240 C242 1.394 . S
C240 H256 0.931 . S
C241 C240 1.391 . S
C241 C245 1.376 . S
C242 C240 1.394 . S
C242 C243 1.369 . S
C242 C246 1.531 . S
C243 C242 1.369 . S
C243 C244 1.410 . S
C243 C251 1.503 . S
C244 C243 1.410 . S
C244 C245 1.392 . S
C244 C247 1.511 . S
C245 C241 1.376 . S
C245 C244 1.392 . S
C245 H257 0.929 . S
C246 C242 1.531 . S
C246 H258 0.960 1_545 S
C246 H259 0.962 . S
C246 H260 0.960 1_545 S
C247 C244 1.511 . S
C247 H261 0.961 . S
C247 H262 0.961 . S
C247 H263 0.961 . S
C248 C249 1.370 . S
C248 C250 1.363 . S
C248 H264 0.931 . S
C249 C248 1.370 . S
C249 C253 1.442 . S
C250 C248 1.363 . S
C250 C251 1.370 . S
C250 C254 1.524 . S
C251 C243 1.503 . S
C251 C250 1.370 . S
C251 C252 1.382 1_545 S
C252 C251 1.382 1_565 S
C252 C253 1.402 1_565 S
C252 C255 1.562 . S
C253 C249 1.442 . S
C253 C252 1.402 1_545 S
C253 H265 0.900 1_545 S
C254 C250 1.524 . S
C254 H266 0.956 . S
C254 H267 0.961 . S
C254 H268 0.961 . S
C255 C252 1.562 . S
C255 H269 0.958 . S
C255 H270 0.961 . S
C255 H271 0.960 . S
H256 C240 0.931 . S
H257 C245 0.929 . S
H258 C246 0.960 1_565 S
H259 C246 0.962 . S
H260 C246 0.960 1_565 S
H261 C247 0.961 . S
H262 C247 0.961 . S
H263 C247 0.961 . S
H264 C248 0.931 . S
H265 C253 0.900 1_565 S
H266 C254 0.956 . S
H267 C254 0.961 . S
H268 C254 0.961 . S
H269 C255 0.958 . S
H270 C255 0.961 . S
H271 C255 0.960 . S
C272 C273 1.391 . S
C272 C274 1.391 1_554 S
C272 H288 0.931 . S
C273 C272 1.391 . S
C273 C277 1.376 . S
C274 C272 1.391 1_556 S
C274 C275 1.368 1_556 S
C274 C278 1.533 . S
C275 C274 1.368 1_554 S
C275 C276 1.410 . S
C275 C283 1.503 1_554 S
C276 C275 1.410 . S
C276 C277 1.392 . S
C276 C279 1.511 . S
C277 C273 1.376 . S
C277 C276 1.392 . S
C277 H289 0.929 . S
C278 C274 1.533 . S
C278 H290 0.960 . S
C278 H291 0.962 . S
C278 H292 0.960 . S
C279 C276 1.511 . S
C279 H293 0.961 . S
C279 H294 0.961 . S
C279 H295 0.961 . S
C280 C281 1.370 . S
C280 C282 1.363 . S
C280 H296 0.931 . S
C281 C280 1.370 . S
C281 C285 1.408 . S
C282 C280 1.363 . S
C282 C283 1.370 . S
C282 C286 1.524 1_556 S
C283 C275 1.503 1_556 S
C283 C282 1.370 . S
C283 C284 1.403 . S
C284 C283 1.403 . S
C284 C285 1.404 . S
C284 C287 1.539 . S
C285 C281 1.408 . S
C285 C284 1.404 . S
C285 H297 0.930 . S
C286 C282 1.524 1_554 S
C286 H298 0.956 . S
C286 H299 0.961 . S
C286 H300 0.961 . S
C287 C284 1.539 . S
C287 H301 0.958 . S
C287 H302 0.961 . S
C287 H303 0.960 . S
H288 C272 0.931 . S
H289 C277 0.929 . S
H290 C278 0.960 . S
H291 C278 0.962 . S
H292 C278 0.960 . S
H293 C279 0.961 . S
H294 C279 0.961 . S
H295 C279 0.961 . S
H296 C280 0.931 . S
H297 C285 0.930 . S
H298 C286 0.956 . S
H299 C286 0.961 . S
H300 C286 0.961 . S
H301 C287 0.958 . S
H302 C287 0.961 . S
H303 C287 0.960 . S
C304 C305 1.391 . S
C304 C306 1.394 . S
C304 H320 0.931 . S
C305 C304 1.391 . S
C305 C309 1.376 . S
C306 C304 1.394 . S
C306 C307 1.369 . S
C306 C310 1.531 . S
C307 C306 1.369 . S
C307 C308 1.410 . S
C307 C315 1.503 . S
C308 C307 1.410 . S
C308 C309 1.392 . S
C308 C311 1.511 . S
C309 C305 1.376 . S
C309 C308 1.392 . S
C309 H321 0.929 . S
C310 C306 1.531 . S
C310 H322 0.960 . S
C310 H323 0.962 . S
C310 H324 0.960 . S
C311 C308 1.511 . S
C311 H325 0.961 . S
C311 H326 0.961 . S
C311 H327 0.961 . S
C312 C313 1.370 . S
C312 C314 1.363 . S
C312 H328 0.931 . S
C313 C312 1.370 . S
C313 C317 1.408 . S
C314 C312 1.363 . S
C314 C315 1.370 . S
C314 C318 1.524 . S
C315 C307 1.503 . S
C315 C314 1.370 . S
C315 C316 1.403 . S
C316 C315 1.403 . S
C316 C317 1.404 . S
C316 C319 1.539 . S
C317 C313 1.408 . S
C317 C316 1.404 . S
C317 H329 0.930 . S
C318 C314 1.524 . S
C318 H330 0.956 . S
C318 H331 0.961 . S
C318 H332 0.961 . S
C319 C316 1.539 . S
C319 H333 0.958 . S
C319 H334 0.961 . S
C319 H335 0.960 . S
H320 C304 0.931 . S
H321 C309 0.929 . S
H322 C310 0.960 . S
H323 C310 0.962 . S
H324 C310 0.960 . S
H325 C311 0.961 . S
H326 C311 0.961 . S
H327 C311 0.961 . S
H328 C312 0.931 . S
H329 C317 0.930 . S
H330 C318 0.956 . S
H331 C318 0.961 . S
H332 C318 0.961 . S
H333 C319 0.958 . S
H334 C319 0.961 . S
H335 C319 0.960 . S
C336 C337 1.391 . S
C336 C338 1.394 . S
C336 H352 0.931 . S
C337 C336 1.391 . S
C337 C341 1.376 . S
C338 C336 1.394 . S
C338 C339 1.369 . S
C338 C342 1.531 . S
C339 C338 1.369 . S
C339 C340 1.410 . S
C339 C347 1.503 1_556 S
C340 C339 1.410 . S
C340 C341 1.392 . S
C340 C343 1.511 1_656 S
C341 C337 1.376 . S
C341 C340 1.392 . S
C341 H353 0.929 1_655 S
C342 C338 1.531 . S
C342 H354 0.960 . S
C342 H355 0.962 . S
C342 H356 0.960 . S
C343 C340 1.511 1_454 S
C343 H357 0.961 . S
C343 H358 0.961 . S
C343 H359 0.961 . S
C344 C345 1.370 . S
C344 C346 1.363 . S
C344 H360 0.931 . S
C345 C344 1.370 . S
C345 C349 1.408 . S
C346 C344 1.363 . S
C346 C347 1.370 . S
C346 C350 1.524 . S
C347 C339 1.503 1_554 S
C347 C346 1.370 . S
C347 C348 1.403 . S
C348 C347 1.403 . S
C348 C349 1.404 . S
C348 C351 1.539 1_654 S
C349 C345 1.408 . S
C349 C348 1.404 . S
C349 H361 0.930 1_655 S
C350 C346 1.524 . S
C350 H362 0.956 . S
C350 H363 0.961 . S
C350 H364 0.961 . S
C351 C348 1.539 1_456 S
C351 H365 0.958 . S
C351 H366 0.961 . S
C351 H367 0.960 . S
H352 C336 0.931 . S
H353 C341 0.929 1_455 S
H354 C342 0.960 . S
H355 C342 0.962 . S
H356 C342 0.960 . S
H357 C343 0.961 . S
H358 C343 0.961 . S
H359 C343 0.961 . S
H360 C344 0.931 . S
H361 C349 0.930 1_455 S
H362 C350 0.956 . S
H363 C350 0.961 . S
H364 C350 0.961 . S
H365 C351 0.958 . S
H366 C351 0.961 . S
H367 C351 0.960 . S
C368 C369 1.391 . S
C368 C370 1.394 . S
C368 H384 0.931 . S
C369 C368 1.391 . S
C369 C373 1.376 . S
C370 C368 1.394 . S
C370 C371 1.369 . S
C370 C374 1.531 . S
C371 C370 1.369 . S
C371 C372 1.410 . S
C371 C379 1.503 . S
C372 C371 1.410 . S
C372 C373 1.392 . S
C372 C375 1.511 . S
C373 C369 1.376 . S
C373 C372 1.392 . S
C373 H385 0.929 . S
C374 C370 1.531 . S
C374 H386 0.960 . S
C374 H387 0.962 . S
C374 H388 0.960 . S
C375 C372 1.511 . S
C375 H389 0.961 . S
C375 H390 0.961 . S
C375 H391 0.961 . S
C376 C377 1.370 . S
C376 C378 1.363 . S
C376 H392 0.931 1_565 S
C377 C376 1.370 . S
C377 C381 1.408 . S
C378 C376 1.363 . S
C378 C379 1.370 . S
C378 C382 1.524 1_565 S
C379 C371 1.503 . S
C379 C378 1.370 . S
C379 C380 1.403 . S
C380 C379 1.403 . S
C380 C381 1.404 . S
C380 C383 1.539 . S
C381 C377 1.408 . S
C381 C380 1.404 . S
C381 H393 0.930 . S
C382 C378 1.524 1_545 S
C382 H394 0.956 . S
C382 H395 0.961 . S
C382 H396 0.961 . S
C383 C380 1.539 . S
C383 H397 0.958 . S
C383 H398 0.961 . S
C383 H399 0.960 . S
H384 C368 0.931 . S
H385 C373 0.929 . S
H386 C374 0.960 . S
H387 C374 0.962 . S
H388 C374 0.960 . S
H389 C375 0.961 . S
H390 C375 0.961 . S
H391 C375 0.961 . S
H392 C376 0.931 1_545 S
H393 C381 0.930 . S
H394 C382 0.956 . S
H395 C382 0.961 . S
H396 C382 0.961 . S
H397 C383 0.958 . S
H398 C383 0.961 . S
H399 C383 0.960 . S
C400 C401 1.391 . S
C400 C402 1.394 1_556 S
C400 H416 0.931 . S
C401 C400 1.391 . S
C401 C405 1.376 . S
C402 C400 1.394 1_554 S
C402 C403 1.369 1_554 S
C402 C406 1.531 . S
C403 C402 1.369 1_556 S
C403 C404 1.410 . S
C403 C411 1.503 1_556 S
C404 C403 1.410 . S
C404 C405 1.392 . S
C404 C407 1.511 . S
C405 C401 1.376 . S
C405 C404 1.392 . S
C405 H417 0.929 . S
C406 C402 1.531 . S
C406 H418 0.960 . S
C406 H419 0.962 . S
C406 H420 0.960 . S
C407 C404 1.511 . S
C407 H421 0.961 . S
C407 H422 0.961 . S
C407 H423 0.961 . S
C408 C409 1.370 . S
C408 C410 1.363 . S
C408 H424 0.931 . S
C409 C408 1.370 . S
C409 C413 1.408 . S
C410 C408 1.363 . S
C410 C411 1.370 . S
C410 C414 1.524 1_554 S
C411 C403 1.503 1_554 S
C411 C410 1.370 . S
C411 C412 1.403 . S
C412 C411 1.403 . S
C412 C413 1.404 . S
C412 C415 1.539 . S
C413 C409 1.408 . S
C413 C412 1.404 . S
C413 H425 0.930 . S
C414 C410 1.524 1_556 S
C414 H426 0.956 . S
C414 H427 0.961 . S
C414 H428 0.961 . S
C415 C412 1.539 . S
C415 H429 0.958 . S
C415 H430 0.961 . S
C415 H431 0.960 . S
H416 C400 0.931 . S
H417 C405 0.929 . S
H418 C406 0.960 . S
H419 C406 0.962 . S
H420 C406 0.960 . S
H421 C407 0.961 . S
H422 C407 0.961 . S
H423 C407 0.961 . S
H424 C408 0.931 . S
H425 C413 0.930 . S
H426 C414 0.956 . S
H427 C414 0.961 . S
H428 C414 0.961 . S
H429 C415 0.958 . S
H430 C415 0.961 . S
H431 C415 0.960 . S
C432 C433 1.391 . S
C432 C434 1.394 . S
C432 H448 0.931 . S
C433 C432 1.391 . S
C433 C437 1.376 . S
C434 C432 1.394 . S
C434 C435 1.369 . S
C434 C438 1.531 . S
C435 C434 1.369 . S
C435 C436 1.410 . S
C435 C443 1.503 . S
C436 C435 1.410 . S
C436 C437 1.392 . S
C436 C439 1.511 . S
C437 C433 1.376 . S
C437 C436 1.392 . S
C437 H449 0.929 . S
C438 C434 1.531 . S
C438 H450 0.960 . S
C438 H451 0.962 . S
C438 H452 0.960 . S
C439 C436 1.511 . S
C439 H453 0.961 . S
C439 H454 0.961 . S
C439 H455 0.961 . S
C440 C441 1.370 . S
C440 C442 1.363 . S
C440 H456 0.931 . S
C441 C440 1.370 . S
C441 C445 1.408 . S
C442 C440 1.363 . S
C442 C443 1.370 . S
C442 C446 1.524 . S
C443 C435 1.503 . S
C443 C442 1.370 . S
C443 C444 1.403 . S
C444 C443 1.403 . S
C444 C445 1.404 . S
C444 C447 1.539 . S
C445 C441 1.408 . S
C445 C444 1.404 . S
C445 H457 0.930 . S
C446 C442 1.524 . S
C446 H458 0.956 . S
C446 H459 0.961 . S
C446 H460 0.961 . S
C447 C444 1.539 . S
C447 H461 0.958 . S
C447 H462 0.961 . S
C447 H463 0.960 . S
H448 C432 0.931 . S
H449 C437 0.929 . S
H450 C438 0.960 . S
H451 C438 0.962 . S
H452 C438 0.960 . S
H453 C439 0.961 . S
H454 C439 0.961 . S
H455 C439 0.961 . S
H456 C440 0.931 . S
H457 C445 0.930 . S
H458 C446 0.956 . S
H459 C446 0.961 . S
H460 C446 0.961 . S
H461 C447 0.958 . S
H462 C447 0.961 . S
H463 C447 0.960 . S
C464 C465 1.391 . S
C464 C466 1.394 1_554 S
C464 H480 0.931 . S
C465 C464 1.391 . S
C465 C469 1.376 1_554 S
C466 C464 1.394 1_556 S
C466 C467 1.369 . S
C466 C470 1.533 . S
C467 C466 1.369 . S
C467 C468 1.410 . S
C467 C475 1.503 . S
C468 C467 1.410 . S
C468 C469 1.392 . S
C468 C471 1.511 . S
C469 C465 1.376 1_556 S
C469 C468 1.392 . S
C469 H481 0.929 . S
C470 C466 1.533 . S
C470 H482 0.967 . S
C470 H483 0.961 1_556 S
C470 H484 0.951 1_556 S
C471 C468 1.511 . S
C471 H485 0.961 . S
C471 H486 0.961 . S
C471 H487 0.961 . S
C472 C473 1.370 . S
C472 C474 1.363 . S
C472 H488 0.931 . S
C473 C472 1.370 . S
C473 C477 1.408 . S
C474 C472 1.363 . S
C474 C475 1.370 . S
C474 C478 1.524 . S
C475 C467 1.503 . S
C475 C474 1.370 . S
C475 C476 1.403 . S
C476 C475 1.403 . S
C476 C477 1.404 . S
C476 C479 1.539 . S
C477 C473 1.408 . S
C477 C476 1.404 . S
C477 H489 0.930 . S
C478 C474 1.524 . S
C478 H490 0.956 . S
C478 H491 0.961 . S
C478 H492 0.961 . S
C479 C476 1.539 . S
C479 H493 0.958 . S
C479 H494 0.961 . S
C479 H495 0.960 . S
H480 C464 0.931 . S
H481 C469 0.929 . S
H482 C470 0.967 . S
H483 C470 0.961 1_554 S
H484 C470 0.951 1_554 S
H485 C471 0.961 . S
H486 C471 0.961 . S
H487 C471 0.961 . S
H488 C472 0.931 . S
H489 C477 0.930 . S
H490 C478 0.956 . S
H491 C478 0.961 . S
H492 C478 0.961 . S
H493 C479 0.958 . S
H494 C479 0.961 . S
H495 C479 0.960 . S
C496 C497 1.391 . S
C496 C498 1.394 . S
C496 H512 0.931 . S
C497 C496 1.391 . S
C497 C501 1.376 . S
C498 C496 1.394 . S
C498 C499 1.369 . S
C498 C502 1.531 . S
C499 C498 1.369 . S
C499 C500 1.410 . S
C499 C507 1.503 . S
C500 C499 1.410 . S
C500 C501 1.392 . S
C500 C503 1.511 . S
C501 C497 1.376 . S
C501 C500 1.392 . S
C501 H513 0.929 . S
C502 C498 1.531 . S
C502 H514 0.960 . S
C502 H515 0.962 . S
C502 H516 0.960 . S
C503 C500 1.511 . S
C503 H517 0.961 . S
C503 H518 0.961 . S
C503 H519 0.961 . S
C504 C505 1.370 . S
C504 C506 1.363 . S
C504 H520 0.931 . S
C505 C504 1.370 . S
C505 C509 1.408 . S
C506 C504 1.363 . S
C506 C507 1.370 . S
C506 C510 1.524 . S
C507 C499 1.503 . S
C507 C506 1.370 . S
C507 C508 1.403 . S
C508 C507 1.403 . S
C508 C509 1.404 . S
C508 C511 1.539 . S
C509 C505 1.408 . S
C509 C508 1.404 . S
C509 H521 0.930 . S
C510 C506 1.524 . S
C510 H522 0.956 . S
C510 H523 0.961 . S
C510 H524 0.961 . S
C511 C508 1.539 . S
C511 H525 0.958 . S
C511 H526 0.961 . S
C511 H527 0.960 . S
H512 C496 0.931 . S
H513 C501 0.929 . S
H514 C502 0.960 . S
H515 C502 0.962 . S
H516 C502 0.960 . S
H517 C503 0.961 . S
H518 C503 0.961 . S
H519 C503 0.961 . S
H520 C504 0.931 . S
H521 C509 0.930 . S
H522 C510 0.956 . S
H523 C510 0.961 . S
H524 C510 0.961 . S
H525 C511 0.958 . S
H526 C511 0.961 . S
H527 C511 0.960 . S
C528 C529 1.391 . S
C528 C530 1.394 1_554 S
C528 H544 0.931 . S
C529 C528 1.391 . S
C529 C533 1.376 1_554 S
C530 C528 1.394 1_556 S
C530 C531 1.369 . S
C530 C534 1.531 . S
C531 C530 1.369 . S
C531 C532 1.410 . S
C531 C539 1.503 . S
C532 C531 1.410 . S
C532 C533 1.392 . S
C532 C535 1.511 . S
C533 C529 1.376 1_556 S
C533 C532 1.392 . S
C533 H545 0.929 . S
C534 C530 1.531 . S
C534 H546 0.960 . S
C534 H547 0.962 . S
C534 H548 0.960 . S
C535 C532 1.511 . S
C535 H549 0.961 . S
C535 H550 0.961 . S
C535 H551 0.961 . S
C536 C537 1.370 . S
C536 C538 1.363 . S
C536 H552 0.931 . S
C537 C536 1.370 . S
C537 C541 1.408 . S
C538 C536 1.363 . S
C538 C539 1.370 . S
C538 C542 1.524 . S
C539 C531 1.503 . S
C539 C538 1.370 . S
C539 C540 1.403 . S
C540 C539 1.403 . S
C540 C541 1.404 . S
C540 C543 1.539 . S
C541 C537 1.408 . S
C541 C540 1.404 . S
C541 H553 0.930 . S
C542 C538 1.524 . S
C542 H554 0.956 . S
C542 H555 0.961 . S
C542 H556 0.961 . S
C543 C540 1.539 . S
C543 H557 0.958 . S
C543 H558 0.961 . S
C543 H559 0.960 . S
H544 C528 0.931 . S
H545 C533 0.929 . S
H546 C534 0.960 . S
H547 C534 0.962 . S
H548 C534 0.960 . S
H549 C535 0.961 . S
H550 C535 0.961 . S
H551 C535 0.961 . S
H552 C536 0.931 . S
H553 C541 0.930 . S
H554 C542 0.956 . S
H555 C542 0.961 . S
H556 C542 0.961 . S
H557 C543 0.958 . S
H558 C543 0.961 . S
H559 C543 0.960 . S
C560 C561 1.391 . S
C560 C562 1.394 . S
C560 H576 0.931 . S
C561 C560 1.391 . S
C561 C565 1.376 . S
C562 C560 1.394 . S
C562 C563 1.369 . S
C562 C566 1.531 . S
C563 C562 1.369 . S
C563 C564 1.410 . S
C563 C571 1.503 . S
C564 C563 1.410 . S
C564 C565 1.392 . S
C564 C567 1.511 . S
C565 C561 1.376 . S
C565 C564 1.392 . S
C565 H577 0.929 . S
C566 C562 1.531 . S
C566 H578 0.960 . S
C566 H579 0.962 . S
C566 H580 0.960 . S
C567 C564 1.511 . S
C567 H581 0.961 . S
C567 H582 0.961 . S
C567 H583 0.961 . S
C568 C569 1.370 . S
C568 C570 1.363 . S
C568 H584 0.931 . S
C569 C568 1.370 . S
C569 C573 1.408 . S
C570 C568 1.363 . S
C570 C571 1.370 . S
C570 C574 1.524 . S
C571 C563 1.503 . S
C571 C570 1.370 . S
C571 C572 1.403 . S
C572 C571 1.403 . S
C572 C573 1.404 . S
C572 C575 1.539 . S
C573 C569 1.408 . S
C573 C572 1.404 . S
C573 H585 0.930 . S
C574 C570 1.524 . S
C574 H586 0.956 . S
C574 H587 0.961 . S
C574 H588 0.961 . S
C575 C572 1.539 . S
C575 H589 0.958 . S
C575 H590 0.961 . S
C575 H591 0.960 . S
H576 C560 0.931 . S
H577 C565 0.929 . S
H578 C566 0.960 . S
H579 C566 0.962 . S
H580 C566 0.960 . S
H581 C567 0.961 . S
H582 C567 0.961 . S
H583 C567 0.961 . S
H584 C568 0.931 . S
H585 C573 0.930 . S
H586 C574 0.956 . S
H587 C574 0.961 . S
H588 C574 0.961 . S
H589 C575 0.958 . S
H590 C575 0.961 . S
H591 C575 0.960 . S
C592 C593 1.391 . S
C592 C594 1.394 . S
C592 H608 0.931 . S
C593 C592 1.391 . S
C593 C597 1.376 . S
C594 C592 1.394 . S
C594 C595 1.369 . S
C594 C598 1.531 . S
C595 C594 1.369 . S
C595 C596 1.410 . S
C595 C603 1.503 . S
C596 C595 1.410 . S
C596 C597 1.392 . S
C596 C599 1.511 . S
C597 C593 1.376 . S
C597 C596 1.392 . S
C597 H609 0.929 . S
C598 C594 1.531 . S
C598 H610 0.960 . S
C598 H611 0.962 . S
C598 H612 0.960 . S
C599 C596 1.511 . S
C599 H613 0.961 . S
C599 H614 0.961 . S
C599 H615 0.961 . S
C600 C601 1.370 1_554 S
C600 C602 1.363 . S
C600 H616 0.931 . S
C601 C600 1.370 1_556 S
C601 C605 1.408 1_556 S
C602 C600 1.363 . S
C602 C603 1.370 . S
C602 C606 1.524 . S
C603 C595 1.503 . S
C603 C602 1.370 . S
C603 C604 1.403 . S
C604 C603 1.403 . S
C604 C605 1.404 . S
C604 C607 1.539 . S
C605 C601 1.408 1_554 S
C605 C604 1.404 . S
C605 H617 0.930 1_554 S
C606 C602 1.524 . S
C606 H618 0.956 . S
C606 H619 0.961 . S
C606 H620 0.961 . S
C607 C604 1.539 . S
C607 H621 0.958 . S
C607 H622 0.961 . S
C607 H623 0.960 . S
H608 C592 0.931 . S
H609 C597 0.929 . S
H610 C598 0.960 . S
H611 C598 0.962 . S
H612 C598 0.960 . S
H613 C599 0.961 . S
H614 C599 0.961 . S
H615 C599 0.961 . S
H616 C600 0.931 . S
H617 C605 0.930 1_556 S
H618 C606 0.956 . S
H619 C606 0.961 . S
H620 C606 0.961 . S
H621 C607 0.958 . S
H622 C607 0.961 . S
H623 C607 0.960 . S
C624 C625 1.391 . S
C624 C626 1.394 . S
C624 H640 0.931 . S
C625 C624 1.391 . S
C625 C629 1.376 . S
C626 C624 1.394 . S
C626 C627 1.369 . S
C626 C630 1.531 . S
C627 C626 1.369 . S
C627 C628 1.410 . S
C627 C635 1.503 . S
C628 C627 1.410 . S
C628 C629 1.392 . S
C628 C631 1.511 . S
C629 C625 1.376 . S
C629 C628 1.392 . S
C629 H641 0.929 . S
C630 C626 1.531 . S
C630 H642 0.960 . S
C630 H643 0.962 . S
C630 H644 0.960 . S
C631 C628 1.511 . S
C631 H645 0.961 . S
C631 H646 0.961 . S
C631 H647 0.961 . S
C632 C633 1.370 . S
C632 C634 1.363 . S
C632 H648 0.931 . S
C633 C632 1.370 . S
C633 C637 1.408 . S
C634 C632 1.363 . S
C634 C635 1.370 . S
C634 C638 1.524 . S
C635 C627 1.503 . S
C635 C634 1.370 . S
C635 C636 1.403 . S
C636 C635 1.403 . S
C636 C637 1.404 . S
C636 C639 1.539 . S
C637 C633 1.408 . S
C637 C636 1.404 . S
C637 H649 0.930 . S
C638 C634 1.524 . S
C638 H650 0.956 . S
C638 H651 0.961 . S
C638 H652 0.961 . S
C639 C636 1.539 . S
C639 H653 0.958 . S
C639 H654 0.961 . S
C639 H655 0.960 . S
H640 C624 0.931 . S
H641 C629 0.929 . S
H642 C630 0.960 . S
H643 C630 0.962 . S
H644 C630 0.960 . S
H645 C631 0.961 . S
H646 C631 0.961 . S
H647 C631 0.961 . S
H648 C632 0.931 . S
H649 C637 0.930 . S
H650 C638 0.956 . S
H651 C638 0.961 . S
H652 C638 0.961 . S
H653 C639 0.958 . S
H654 C639 0.961 . S
H655 C639 0.960 . S
C656 C657 1.391 . S
C656 C658 1.394 . S
C656 H672 0.931 . S
C657 C656 1.391 . S
C657 C661 1.376 . S
C658 C656 1.394 . S
C658 C659 1.369 . S
C658 C662 1.531 . S
C659 C658 1.369 . S
C659 C660 1.410 . S
C659 C667 1.503 . S
C660 C659 1.410 . S
C660 C661 1.392 . S
C660 C663 1.511 . S
C661 C657 1.376 . S
C661 C660 1.392 . S
C661 H673 0.929 . S
C662 C658 1.531 . S
C662 H674 0.960 . S
C662 H675 0.962 . S
C662 H676 0.960 . S
C663 C660 1.511 . S
C663 H677 0.961 . S
C663 H678 0.961 . S
C663 H679 0.961 . S
C664 C665 1.370 1_554 S
C664 C666 1.363 . S
C664 H680 0.931 . S
C665 C664 1.370 1_556 S
C665 C669 1.408 1_556 S
C666 C664 1.363 . S
C666 C667 1.370 . S
C666 C670 1.524 . S
C667 C659 1.503 . S
C667 C666 1.370 . S
C667 C668 1.403 . S
C668 C667 1.403 . S
C668 C669 1.404 . S
C668 C671 1.539 . S
C669 C665 1.408 1_554 S
C669 C668 1.404 . S
C669 H681 0.930 1_554 S
C670 C666 1.524 . S
C670 H682 0.956 . S
C670 H683 0.961 . S
C670 H684 0.961 . S
C671 C668 1.539 . S
C671 H685 0.958 . S
C671 H686 0.961 . S
C671 H687 0.960 . S
H672 C656 0.931 . S
H673 C661 0.929 . S
H674 C662 0.960 . S
H675 C662 0.962 . S
H676 C662 0.960 . S
H677 C663 0.961 . S
H678 C663 0.961 . S
H679 C663 0.961 . S
H680 C664 0.931 . S
H681 C669 0.930 1_556 S
H682 C670 0.956 . S
H683 C670 0.961 . S
H684 C670 0.961 . S
H685 C671 0.958 . S
H686 C671 0.961 . S
H687 C671 0.960 . S
C688 C689 1.391 . S
C688 C690 1.394 . S
C688 H704 0.931 . S
C689 C688 1.391 . S
C689 C693 1.376 . S
C690 C688 1.394 . S
C690 C691 1.369 . S
C690 C694 1.531 . S
C691 C690 1.369 . S
C691 C692 1.410 . S
C691 C699 1.503 . S
C692 C691 1.410 . S
C692 C693 1.392 . S
C692 C695 1.511 . S
C693 C689 1.376 . S
C693 C692 1.392 . S
C693 H705 0.929 . S
C694 C690 1.531 . S
C694 H706 0.960 . S
C694 H707 0.962 . S
C694 H708 0.960 . S
C695 C692 1.511 . S
C695 H709 0.961 . S
C695 H710 0.961 . S
C695 H711 0.961 . S
C696 C697 1.370 . S
C696 C698 1.363 . S
C696 H712 0.931 . S
C697 C696 1.370 . S
C697 C701 1.408 . S
C698 C696 1.363 . S
C698 C699 1.370 . S
C698 C702 1.524 . S
C699 C691 1.503 . S
C699 C698 1.370 . S
C699 C700 1.403 . S
C700 C699 1.403 . S
C700 C701 1.404 . S
C700 C703 1.539 . S
C701 C697 1.408 . S
C701 C700 1.404 . S
C701 H713 0.930 . S
C702 C698 1.524 . S
C702 H714 0.956 . S
C702 H715 0.961 . S
C702 H716 0.961 . S
C703 C700 1.539 . S
C703 H717 0.958 . S
C703 H718 0.961 . S
C703 H719 0.960 . S
H704 C688 0.931 . S
H705 C693 0.929 . S
H706 C694 0.960 . S
H707 C694 0.962 . S
H708 C694 0.960 . S
H709 C695 0.961 . S
H710 C695 0.961 . S
H711 C695 0.961 . S
H712 C696 0.931 . S
H713 C701 0.930 . S
H714 C702 0.956 . S
H715 C702 0.961 . S
H716 C702 0.961 . S
H717 C703 0.958 . S
H718 C703 0.961 . S
H719 C703 0.960 . S
C720 C721 1.391 1_554 S
C720 C722 1.394 . S
C720 H736 0.931 1_554 S
C721 C720 1.391 1_556 S
C721 C725 1.376 1_556 S
C722 C720 1.394 . S
C722 C723 1.369 . S
C722 C726 1.531 . S
C723 C722 1.369 . S
C723 C724 1.410 . S
C723 C731 1.503 . S
C724 C723 1.410 . S
C724 C725 1.392 . S
C724 C727 1.511 . S
C725 C721 1.376 1_554 S
C725 C724 1.392 . S
C725 H737 0.929 1_554 S
C726 C722 1.531 . S
C726 H738 0.960 . S
C726 H739 0.962 . S
C726 H740 0.960 . S
C727 C724 1.511 . S
C727 H741 0.961 . S
C727 H742 0.961 . S
C727 H743 0.961 . S
C728 C729 1.370 . S
C728 C730 1.363 . S
C728 H744 0.931 . S
C729 C728 1.370 . S
C729 C733 1.408 . S
C730 C728 1.363 . S
C730 C731 1.370 . S
C730 C734 1.524 . S
C731 C723 1.503 . S
C731 C730 1.370 . S
C731 C732 1.403 . S
C732 C731 1.403 . S
C732 C733 1.404 . S
C732 C735 1.539 . S
C733 C729 1.408 . S
C733 C732 1.404 . S
C733 H745 0.930 . S
C734 C730 1.524 . S
C734 H746 0.956 . S
C734 H747 0.961 . S
C734 H748 0.961 . S
C735 C732 1.539 . S
C735 H749 0.958 . S
C735 H750 0.961 . S
C735 H751 0.960 . S
H736 C720 0.931 1_556 S
H737 C725 0.929 1_556 S
H738 C726 0.960 . S
H739 C726 0.962 . S
H740 C726 0.960 . S
H741 C727 0.961 . S
H742 C727 0.961 . S
H743 C727 0.961 . S
H744 C728 0.931 . S
H745 C733 0.930 . S
H746 C734 0.956 . S
H747 C734 0.961 . S
H748 C734 0.961 . S
H749 C735 0.958 . S
H750 C735 0.961 . S
H751 C735 0.960 . S
C752 C753 1.391 . S
C752 C754 1.394 . S
C752 H768 0.931 . S
C753 C752 1.391 . S
C753 C757 1.376 . S
C754 C752 1.394 . S
C754 C755 1.369 . S
C754 C758 1.531 . S
C755 C754 1.369 . S
C755 C756 1.410 . S
C755 C763 1.503 . S
C756 C755 1.410 . S
C756 C757 1.392 . S
C756 C759 1.511 . S
C757 C753 1.376 . S
C757 C756 1.392 . S
C757 H769 0.929 . S
C758 C754 1.531 . S
C758 H770 0.960 . S
C758 H771 0.962 . S
C758 H772 0.960 . S
C759 C756 1.511 . S
C759 H773 0.961 . S
C759 H774 0.961 . S
C759 H775 0.961 . S
C760 C761 1.370 . S
C760 C762 1.363 . S
C760 H776 0.931 . S
C761 C760 1.370 . S
C761 C765 1.408 . S
C762 C760 1.363 . S
C762 C763 1.370 . S
C762 C766 1.524 . S
C763 C755 1.503 . S
C763 C762 1.370 . S
C763 C764 1.403 . S
C764 C763 1.403 . S
C764 C765 1.404 . S
C764 C767 1.539 . S
C765 C761 1.408 . S
C765 C764 1.404 . S
C765 H777 0.930 . S
C766 C762 1.524 . S
C766 H778 0.956 . S
C766 H779 0.961 . S
C766 H780 0.961 . S
C767 C764 1.539 . S
C767 H781 0.958 . S
C767 H782 0.961 . S
C767 H783 0.960 . S
H768 C752 0.931 . S
H769 C757 0.929 . S
H770 C758 0.960 . S
H771 C758 0.962 . S
H772 C758 0.960 . S
H773 C759 0.961 . S
H774 C759 0.961 . S
H775 C759 0.961 . S
H776 C760 0.931 . S
H777 C765 0.930 . S
H778 C766 0.956 . S
H779 C766 0.961 . S
H780 C766 0.961 . S
H781 C767 0.958 . S
H782 C767 0.961 . S
H783 C767 0.960 . S
C784 C785 1.391 . S
C784 C786 1.394 . S
C784 H800 0.931 . S
C785 C784 1.391 . S
C785 C789 1.376 . S
C786 C784 1.394 . S
C786 C787 1.369 . S
C786 C790 1.531 . S
C787 C786 1.369 . S
C787 C788 1.410 . S
C787 C795 1.503 . S
C788 C787 1.410 . S
C788 C789 1.392 . S
C788 C791 1.511 . S
C789 C785 1.376 . S
C789 C788 1.392 . S
C789 H801 0.929 . S
C790 C786 1.531 . S
C790 H802 0.960 . S
C790 H803 0.962 . S
C790 H804 0.960 . S
C791 C788 1.511 . S
C791 H805 0.961 . S
C791 H806 0.961 . S
C791 H807 0.961 . S
C792 C793 1.370 . S
C792 C794 1.363 1_556 S
C792 H808 0.931 . S
C793 C792 1.370 . S
C793 C797 1.408 1_556 S
C794 C792 1.363 1_554 S
C794 C795 1.370 . S
C794 C798 1.524 . S
C795 C787 1.503 . S
C795 C794 1.370 . S
C795 C796 1.403 . S
C796 C795 1.403 . S
C796 C797 1.404 . S
C796 C799 1.539 . S
C797 C793 1.408 1_554 S
C797 C796 1.404 . S
C797 H809 0.930 . S
C798 C794 1.524 . S
C798 H810 0.956 . S
C798 H811 0.961 . S
C798 H812 0.961 . S
C799 C796 1.539 . S
C799 H813 0.958 . S
C799 H814 0.961 . S
C799 H815 0.960 . S
H800 C784 0.931 . S
H801 C789 0.929 . S
H802 C790 0.960 . S
H803 C790 0.962 . S
H804 C790 0.960 . S
H805 C791 0.961 . S
H806 C791 0.961 . S
H807 C791 0.961 . S
H808 C792 0.931 . S
H809 C797 0.930 . S
H810 C798 0.956 . S
H811 C798 0.961 . S
H812 C798 0.961 . S
H813 C799 0.958 . S
H814 C799 0.961 . S
H815 C799 0.960 . S
C816 C817 1.391 . S
C816 C818 1.394 . S
C816 H832 0.931 . S
C817 C816 1.391 . S
C817 C821 1.376 . S
C818 C816 1.394 . S
C818 C819 1.369 . S
C818 C822 1.531 . S
C819 C818 1.369 . S
C819 C820 1.410 . S
C819 C827 1.503 . S
C820 C819 1.410 . S
C820 C821 1.392 . S
C820 C823 1.511 . S
C821 C817 1.376 . S
C821 C820 1.392 . S
C821 H833 0.929 . S
C822 C818 1.531 . S
C822 H834 0.960 . S
C822 H835 0.962 . S
C822 H836 0.960 . S
C823 C820 1.511 . S
C823 H837 0.961 . S
C823 H838 0.961 . S
C823 H839 0.961 . S
C824 C825 1.370 . S
C824 C826 1.363 . S
C824 H840 0.931 . S
C825 C824 1.370 . S
C825 C829 1.408 . S
C826 C824 1.363 . S
C826 C827 1.370 . S
C826 C830 1.524 . S
C827 C819 1.503 . S
C827 C826 1.370 . S
C827 C828 1.403 . S
C828 C827 1.403 . S
C828 C829 1.404 . S
C828 C831 1.539 . S
C829 C825 1.408 . S
C829 C828 1.404 . S
C829 H841 0.930 . S
C830 C826 1.524 . S
C830 H842 0.956 . S
C830 H843 0.961 . S
C830 H844 0.961 . S
C831 C828 1.539 . S
C831 H845 0.958 . S
C831 H846 0.961 . S
C831 H847 0.960 . S
H832 C816 0.931 . S
H833 C821 0.929 . S
H834 C822 0.960 . S
H835 C822 0.962 . S
H836 C822 0.960 . S
H837 C823 0.961 . S
H838 C823 0.961 . S
H839 C823 0.961 . S
H840 C824 0.931 . S
H841 C829 0.930 . S
H842 C830 0.956 . S
H843 C830 0.961 . S
H844 C830 0.961 . S
H845 C831 0.958 . S
H846 C831 0.961 . S
H847 C831 0.960 . S
C848 C849 1.391 . S
C848 C850 1.394 . S
C848 H864 0.931 . S
C849 C848 1.391 . S
C849 C853 1.376 . S
C850 C848 1.394 . S
C850 C851 1.369 . S
C850 C854 1.531 . S
C851 C850 1.369 . S
C851 C852 1.410 . S
C851 C859 1.503 . S
C852 C851 1.410 . S
C852 C853 1.392 . S
C852 C855 1.511 . S
C853 C849 1.376 . S
C853 C852 1.392 . S
C853 H865 0.929 . S
C854 C850 1.531 . S
C854 H866 0.960 . S
C854 H867 0.962 . S
C854 H868 0.960 . S
C855 C852 1.511 . S
C855 H869 0.961 . S
C855 H870 0.961 . S
C855 H871 0.961 . S
C856 C857 1.370 1_556 S
C856 C858 1.363 . S
C856 H872 0.931 . S
C857 C856 1.370 1_554 S
C857 C861 1.408 . S
C858 C856 1.363 . S
C858 C859 1.370 . S
C858 C862 1.524 . S
C859 C851 1.503 . S
C859 C858 1.370 . S
C859 C860 1.403 . S
C860 C859 1.403 . S
C860 C861 1.404 1_556 S
C860 C863 1.539 1_556 S
C861 C857 1.408 . S
C861 C860 1.404 1_554 S
C861 H873 0.930 . S
C862 C858 1.524 . S
C862 H874 0.956 . S
C862 H875 0.961 . S
C862 H876 0.961 . S
C863 C860 1.539 1_554 S
C863 H877 0.958 . S
C863 H878 0.961 . S
C863 H879 0.960 1_554 S
H864 C848 0.931 . S
H865 C853 0.929 . S
H866 C854 0.960 . S
H867 C854 0.962 . S
H868 C854 0.960 . S
H869 C855 0.961 . S
H870 C855 0.961 . S
H871 C855 0.961 . S
H872 C856 0.931 . S
H873 C861 0.930 . S
H874 C862 0.956 . S
H875 C862 0.961 . S
H876 C862 0.961 . S
H877 C863 0.958 . S
H878 C863 0.961 . S
H879 C863 0.960 1_556 S
C880 C881 1.391 . S
C880 C882 1.394 . S
C880 H896 0.931 . S
C881 C880 1.391 . S
C881 C885 1.376 . S
C882 C880 1.394 . S
C882 C883 1.369 . S
C882 C886 1.531 . S
C883 C882 1.369 . S
C883 C884 1.410 . S
C883 C891 1.503 . S
C884 C883 1.410 . S
C884 C885 1.392 . S
C884 C887 1.511 . S
C885 C881 1.376 . S
C885 C884 1.392 . S
C885 H897 0.929 . S
C886 C882 1.531 . S
C886 H898 0.960 . S
C886 H899 0.962 . S
C886 H900 0.960 . S
C887 C884 1.511 . S
C887 H901 0.961 . S
C887 H902 0.961 . S
C887 H903 0.961 . S
C888 C889 1.370 . S
C888 C890 1.363 . S
C888 H904 0.931 . S
C889 C888 1.370 . S
C889 C893 1.408 . S
C890 C888 1.363 . S
C890 C891 1.370 . S
C890 C894 1.524 . S
C891 C883 1.503 . S
C891 C890 1.370 . S
C891 C892 1.403 . S
C892 C891 1.403 . S
C892 C893 1.404 . S
C892 C895 1.539 . S
C893 C889 1.408 . S
C893 C892 1.404 . S
C893 H905 0.930 . S
C894 C890 1.524 . S
C894 H906 0.956 . S
C894 H907 0.961 . S
C894 H908 0.961 . S
C895 C892 1.539 . S
C895 H909 0.958 . S
C895 H910 0.961 . S
C895 H911 0.960 . S
H896 C880 0.931 . S
H897 C885 0.929 . S
H898 C886 0.960 . S
H899 C886 0.962 . S
H900 C886 0.960 . S
H901 C887 0.961 . S
H902 C887 0.961 . S
H903 C887 0.961 . S
H904 C888 0.931 . S
H905 C893 0.930 . S
H906 C894 0.956 . S
H907 C894 0.961 . S
H908 C894 0.961 . S
H909 C895 0.958 . S
H910 C895 0.961 . S
H911 C895 0.960 . S
C912 C913 1.391 1_556 S
C912 C914 1.394 . S
C912 H928 0.931 . S
C913 C912 1.391 1_554 S
C913 C917 1.376 . S
C914 C912 1.394 . S
C914 C915 1.369 . S
C914 C918 1.531 . S
C915 C914 1.369 . S
C915 C916 1.410 . S
C915 C923 1.503 . S
C916 C915 1.410 . S
C916 C917 1.392 1_556 S
C916 C919 1.511 . S
C917 C913 1.376 . S
C917 C916 1.392 1_554 S
C917 H929 0.929 . S
C918 C914 1.531 . S
C918 H930 0.960 . S
C918 H931 0.962 . S
C918 H932 0.960 . S
C919 C916 1.511 . S
C919 H933 0.961 1_556 S
C919 H934 0.961 . S
C919 H935 0.961 1_556 S
C920 C921 1.370 . S
C920 C922 1.363 . S
C920 H936 0.931 . S
C921 C920 1.370 . S
C921 C925 1.408 . S
C922 C920 1.363 . S
C922 C923 1.370 . S
C922 C926 1.524 . S
C923 C915 1.503 . S
C923 C922 1.370 . S
C923 C924 1.403 . S
C924 C923 1.403 . S
C924 C925 1.404 . S
C924 C927 1.539 . S
C925 C921 1.408 . S
C925 C924 1.404 . S
C925 H937 0.930 . S
C926 C922 1.524 . S
C926 H938 0.956 . S
C926 H939 0.961 . S
C926 H940 0.961 . S
C927 C924 1.539 . S
C927 H941 0.958 . S
C927 H942 0.961 . S
C927 H943 0.960 . S
H928 C912 0.931 . S
H929 C917 0.929 . S
H930 C918 0.960 . S
H931 C918 0.962 . S
H932 C918 0.960 . S
H933 C919 0.961 1_554 S
H934 C919 0.961 . S
H935 C919 0.961 1_554 S
H936 C920 0.931 . S
H937 C925 0.930 . S
H938 C926 0.956 . S
H939 C926 0.961 . S
H940 C926 0.961 . S
H941 C927 0.958 . S
H942 C927 0.961 . S
H943 C927 0.960 . S
C944 C945 1.391 . S
C944 C946 1.394 . S
C944 H960 0.931 . S
C945 C944 1.391 . S
C945 C949 1.376 . S
C946 C944 1.394 . S
C946 C947 1.369 . S
C946 C950 1.531 . S
C947 C946 1.369 . S
C947 C948 1.410 . S
C947 C955 1.503 . S
C948 C947 1.410 . S
C948 C949 1.392 . S
C948 C951 1.511 . S
C949 C945 1.376 . S
C949 C948 1.392 . S
C949 H961 0.929 . S
C950 C946 1.531 . S
C950 H962 0.960 . S
C950 H963 0.962 . S
C950 H964 0.960 . S
C951 C948 1.511 . S
C951 H965 0.961 . S
C951 H966 0.961 . S
C951 H967 0.961 . S
C952 C953 1.370 . S
C952 C954 1.363 . S
C952 H968 0.931 . S
C953 C952 1.370 . S
C953 C957 1.408 . S
C954 C952 1.363 . S
C954 C955 1.370 . S
C954 C958 1.524 . S
C955 C947 1.503 . S
C955 C954 1.370 . S
C955 C956 1.403 . S
C956 C955 1.403 . S
C956 C957 1.404 . S
C956 C959 1.539 . S
C957 C953 1.408 . S
C957 C956 1.404 . S
C957 H969 0.930 . S
C958 C954 1.524 . S
C958 H970 0.956 . S
C958 H971 0.961 . S
C958 H972 0.961 . S
C959 C956 1.539 . S
C959 H973 0.958 . S
C959 H974 0.961 . S
C959 H975 0.960 . S
H960 C944 0.931 . S
H961 C949 0.929 . S
H962 C950 0.960 . S
H963 C950 0.962 . S
H964 C950 0.960 . S
H965 C951 0.961 . S
H966 C951 0.961 . S
H967 C951 0.961 . S
H968 C952 0.931 . S
H969 C957 0.930 . S
H970 C958 0.956 . S
H971 C958 0.961 . S
H972 C958 0.961 . S
H973 C959 0.958 . S
H974 C959 0.961 . S
H975 C959 0.960 . S
C976 C977 1.391 . S
C976 C978 1.394 . S
C976 H992 0.931 . S
C977 C976 1.391 . S
C977 C981 1.376 . S
C978 C976 1.394 . S
C978 C979 1.369 . S
C978 C982 1.531 . S
C979 C978 1.369 . S
C979 C980 1.410 . S
C979 C987 1.503 . S
C980 C979 1.410 . S
C980 C981 1.392 . S
C980 C983 1.511 . S
C981 C977 1.376 . S
C981 C980 1.392 . S
C981 H993 0.929 . S
C982 C978 1.531 . S
C982 H994 0.960 . S
C982 H995 0.962 . S
C982 H996 0.960 . S
C983 C980 1.511 . S
C983 H997 0.961 . S
C983 H998 0.961 . S
C983 H999 0.961 . S
C984 C985 1.370 . S
C984 C986 1.363 . S
C984 H1000 0.931 . S
C985 C984 1.370 . S
C985 C989 1.408 . S
C986 C984 1.363 . S
C986 C987 1.370 . S
C986 C990 1.524 . S
C987 C979 1.503 . S
C987 C986 1.370 . S
C987 C988 1.403 . S
C988 C987 1.403 . S
C988 C989 1.404 . S
C988 C991 1.539 . S
C989 C985 1.408 . S
C989 C988 1.404 . S
C989 H1001 0.930 . S
C990 C986 1.524 . S
C990 H1002 0.956 . S
C990 H1003 0.961 . S
C990 H1004 0.961 . S
C991 C988 1.539 . S
C991 H1005 0.958 . S
C991 H1006 0.961 . S
C991 H1007 0.960 . S
H992 C976 0.931 . S
H993 C981 0.929 . S
H994 C982 0.960 . S
H995 C982 0.962 . S
H996 C982 0.960 . S
H997 C983 0.961 . S
H998 C983 0.961 . S
H999 C983 0.961 . S
H1000 C984 0.931 . S
H1001 C989 0.930 . S
H1002 C990 0.956 . S
H1003 C990 0.961 . S
H1004 C990 0.961 . S
H1005 C991 0.958 . S
H1006 C991 0.961 . S
H1007 C991 0.960 . S
C1008 C1009 1.391 . S
C1008 C1010 1.394 . S
C1008 H1024 0.931 . S
C1009 C1008 1.391 . S
C1009 C1013 1.376 . S
C1010 C1008 1.394 . S
C1010 C1011 1.369 . S
C1010 C1014 1.531 . S
C1011 C1010 1.369 . S
C1011 C1012 1.410 . S
C1011 C1019 1.503 . S
C1012 C1011 1.410 . S
C1012 C1013 1.392 . S
C1012 C1015 1.511 . S
C1013 C1009 1.376 . S
C1013 C1012 1.392 . S
C1013 H1025 0.929 . S
C1014 C1010 1.531 . S
C1014 H1026 0.960 . S
C1014 H1027 0.962 . S
C1014 H1028 0.960 . S
C1015 C1012 1.511 . S
C1015 H1029 0.961 . S
C1015 H1030 0.961 . S
C1015 H1031 0.961 . S
C1016 C1017 1.370 . S
C1016 C1018 1.363 . S
C1016 H1032 0.931 . S
C1017 C1016 1.370 . S
C1017 C1021 1.408 . S
C1018 C1016 1.363 . S
C1018 C1019 1.370 . S
C1018 C1022 1.524 . S
C1019 C1011 1.503 . S
C1019 C1018 1.370 . S
C1019 C1020 1.403 . S
C1020 C1019 1.403 . S
C1020 C1021 1.404 . S
C1020 C1023 1.539 . S
C1021 C1017 1.408 . S
C1021 C1020 1.404 . S
C1021 H1033 0.930 . S
C1022 C1018 1.524 . S
C1022 H1034 0.956 . S
C1022 H1035 0.961 . S
C1022 H1036 0.961 . S
C1023 C1020 1.539 . S
C1023 H1037 0.958 . S
C1023 H1038 0.961 . S
C1023 H1039 0.960 . S
H1024 C1008 0.931 . S
H1025 C1013 0.929 . S
H1026 C1014 0.960 . S
H1027 C1014 0.962 . S
H1028 C1014 0.960 . S
H1029 C1015 0.961 . S
H1030 C1015 0.961 . S
H1031 C1015 0.961 . S
H1032 C1016 0.931 . S
H1033 C1021 0.930 . S
H1034 C1022 0.956 . S
H1035 C1022 0.961 . S
H1036 C1022 0.961 . S
H1037 C1023 0.958 . S
H1038 C1023 0.961 . S
H1039 C1023 0.960 . S
C1040 C1041 1.391 . S
C1040 C1042 1.394 . S
C1040 H1056 0.931 . S
C1041 C1040 1.391 . S
C1041 C1045 1.376 . S
C1042 C1040 1.394 . S
C1042 C1043 1.369 . S
C1042 C1046 1.531 . S
C1043 C1042 1.369 . S
C1043 C1044 1.410 . S
C1043 C1051 1.503 . S
C1044 C1043 1.410 . S
C1044 C1045 1.392 . S
C1044 C1047 1.511 . S
C1045 C1041 1.376 . S
C1045 C1044 1.392 . S
C1045 H1057 0.929 . S
C1046 C1042 1.531 . S
C1046 H1058 0.960 . S
C1046 H1059 0.962 . S
C1046 H1060 0.960 . S
C1047 C1044 1.511 . S
C1047 H1061 0.961 . S
C1047 H1062 0.961 . S
C1047 H1063 0.961 . S
C1048 C1049 1.370 . S
C1048 C1050 1.363 . S
C1048 H1064 0.931 . S
C1049 C1048 1.370 . S
C1049 C1053 1.408 . S
C1050 C1048 1.363 . S
C1050 C1051 1.370 . S
C1050 C1054 1.524 . S
C1051 C1043 1.503 . S
C1051 C1050 1.370 . S
C1051 C1052 1.403 . S
C1052 C1051 1.403 . S
C1052 C1053 1.404 . S
C1052 C1055 1.539 . S
C1053 C1049 1.408 . S
C1053 C1052 1.404 . S
C1053 H1065 0.930 . S
C1054 C1050 1.524 . S
C1054 H1066 0.956 . S
C1054 H1067 0.961 . S
C1054 H1068 0.961 . S
C1055 C1052 1.539 . S
C1055 H1069 0.958 . S
C1055 H1070 0.961 . S
C1055 H1071 0.960 . S
H1056 C1040 0.931 . S
H1057 C1045 0.929 . S
H1058 C1046 0.960 . S
H1059 C1046 0.962 . S
H1060 C1046 0.960 . S
H1061 C1047 0.961 . S
H1062 C1047 0.961 . S
H1063 C1047 0.961 . S
H1064 C1048 0.931 . S
H1065 C1053 0.930 . S
H1066 C1054 0.956 . S
H1067 C1054 0.961 . S
H1068 C1054 0.961 . S
H1069 C1055 0.958 . S
H1070 C1055 0.961 . S
H1071 C1055 0.960 . S
C1072 C1073 1.391 . S
C1072 C1074 1.394 . S
C1072 H1088 0.931 . S
C1073 C1072 1.391 . S
C1073 C1077 1.376 . S
C1074 C1072 1.394 . S
C1074 C1075 1.369 . S
C1074 C1078 1.531 . S
C1075 C1074 1.369 . S
C1075 C1076 1.410 . S
C1075 C1083 1.503 . S
C1076 C1075 1.410 . S
C1076 C1077 1.392 . S
C1076 C1079 1.511 . S
C1077 C1073 1.376 . S
C1077 C1076 1.392 . S
C1077 H1089 0.929 . S
C1078 C1074 1.531 . S
C1078 H1090 0.960 . S
C1078 H1091 0.962 . S
C1078 H1092 0.960 . S
C1079 C1076 1.511 . S
C1079 H1093 0.961 . S
C1079 H1094 0.961 . S
C1079 H1095 0.961 . S
C1080 C1081 1.370 . S
C1080 C1082 1.363 . S
C1080 H1096 0.931 . S
C1081 C1080 1.370 . S
C1081 C1085 1.408 . S
C1082 C1080 1.363 . S
C1082 C1083 1.370 . S
C1082 C1086 1.524 . S
C1083 C1075 1.503 . S
C1083 C1082 1.370 . S
C1083 C1084 1.403 . S
C1084 C1083 1.403 . S
C1084 C1085 1.404 . S
C1084 C1087 1.539 . S
C1085 C1081 1.408 . S
C1085 C1084 1.404 . S
C1085 H1097 0.930 . S
C1086 C1082 1.524 . S
C1086 H1098 0.956 . S
C1086 H1099 0.961 . S
C1086 H1100 0.961 . S
C1087 C1084 1.539 . S
C1087 H1101 0.958 . S
C1087 H1102 0.961 . S
C1087 H1103 0.960 . S
H1088 C1072 0.931 . S
H1089 C1077 0.929 . S
H1090 C1078 0.960 . S
H1091 C1078 0.962 . S
H1092 C1078 0.960 . S
H1093 C1079 0.961 . S
H1094 C1079 0.961 . S
H1095 C1079 0.961 . S
H1096 C1080 0.931 . S
H1097 C1085 0.930 . S
H1098 C1086 0.956 . S
H1099 C1086 0.961 . S
H1100 C1086 0.961 . S
H1101 C1087 0.958 . S
H1102 C1087 0.961 . S
H1103 C1087 0.960 . S
C1104 C1105 1.391 . S
C1104 C1106 1.394 . S
C1104 H1120 0.931 . S
C1105 C1104 1.391 . S
C1105 C1109 1.376 . S
C1106 C1104 1.394 . S
C1106 C1107 1.369 . S
C1106 C1110 1.531 . S
C1107 C1106 1.369 . S
C1107 C1108 1.410 . S
C1107 C1115 1.503 . S
C1108 C1107 1.410 . S
C1108 C1109 1.392 . S
C1108 C1111 1.511 . S
C1109 C1105 1.376 . S
C1109 C1108 1.392 . S
C1109 H1121 0.929 . S
C1110 C1106 1.531 . S
C1110 H1122 0.960 . S
C1110 H1123 0.962 . S
C1110 H1124 0.960 . S
C1111 C1108 1.511 . S
C1111 H1125 0.961 . S
C1111 H1126 0.961 . S
C1111 H1127 0.961 . S
C1112 C1113 1.370 . S
C1112 C1114 1.363 . S
C1112 H1128 0.931 . S
C1113 C1112 1.370 . S
C1113 C1117 1.408 . S
C1114 C1112 1.363 . S
C1114 C1115 1.370 . S
C1114 C1118 1.524 . S
C1115 C1107 1.503 . S
C1115 C1114 1.370 . S
C1115 C1116 1.403 . S
C1116 C1115 1.403 . S
C1116 C1117 1.404 . S
C1116 C1119 1.539 . S
C1117 C1113 1.408 . S
C1117 C1116 1.404 . S
C1117 H1129 0.930 . S
C1118 C1114 1.524 . S
C1118 H1130 0.956 . S
C1118 H1131 0.961 . S
C1118 H1132 0.961 . S
C1119 C1116 1.539 . S
C1119 H1133 0.958 . S
C1119 H1134 0.961 . S
C1119 H1135 0.960 . S
H1120 C1104 0.931 . S
H1121 C1109 0.929 . S
H1122 C1110 0.960 . S
H1123 C1110 0.962 . S
H1124 C1110 0.960 . S
H1125 C1111 0.961 . S
H1126 C1111 0.961 . S
H1127 C1111 0.961 . S
H1128 C1112 0.931 . S
H1129 C1117 0.930 . S
H1130 C1118 0.956 . S
H1131 C1118 0.961 . S
H1132 C1118 0.961 . S
H1133 C1119 0.958 . S
H1134 C1119 0.961 . S
H1135 C1119 0.960 . S
C1136 C1137 1.391 . S
C1136 C1138 1.394 . S
C1136 H1152 0.931 . S
C1137 C1136 1.391 . S
C1137 C1141 1.376 . S
C1138 C1136 1.394 . S
C1138 C1139 1.369 . S
C1138 C1142 1.531 . S
C1139 C1138 1.369 . S
C1139 C1140 1.410 . S
C1139 C1147 1.503 . S
C1140 C1139 1.410 . S
C1140 C1141 1.392 . S
C1140 C1143 1.511 . S
C1141 C1137 1.376 . S
C1141 C1140 1.392 . S
C1141 H1153 0.929 . S
C1142 C1138 1.531 . S
C1142 H1154 0.960 . S
C1142 H1155 0.962 . S
C1142 H1156 0.960 . S
C1143 C1140 1.511 . S
C1143 H1157 0.961 . S
C1143 H1158 0.961 . S
C1143 H1159 0.961 . S
C1144 C1145 1.370 . S
C1144 C1146 1.363 . S
C1144 H1160 0.931 . S
C1145 C1144 1.370 . S
C1145 C1149 1.408 . S
C1146 C1144 1.363 . S
C1146 C1147 1.370 . S
C1146 C1150 1.524 . S
C1147 C1139 1.503 . S
C1147 C1146 1.370 . S
C1147 C1148 1.403 . S
C1148 C1147 1.403 . S
C1148 C1149 1.404 . S
C1148 C1151 1.539 . S
C1149 C1145 1.408 . S
C1149 C1148 1.404 . S
C1149 H1161 0.930 . S
C1150 C1146 1.524 . S
C1150 H1162 0.956 . S
C1150 H1163 0.961 . S
C1150 H1164 0.961 . S
C1151 C1148 1.539 . S
C1151 H1165 0.958 . S
C1151 H1166 0.961 . S
C1151 H1167 0.960 . S
H1152 C1136 0.931 . S
H1153 C1141 0.929 . S
H1154 C1142 0.960 . S
H1155 C1142 0.962 . S
H1156 C1142 0.960 . S
H1157 C1143 0.961 . S
H1158 C1143 0.961 . S
H1159 C1143 0.961 . S
H1160 C1144 0.931 . S
H1161 C1149 0.930 . S
H1162 C1150 0.956 . S
H1163 C1150 0.961 . S
H1164 C1150 0.961 . S
H1165 C1151 0.958 . S
H1166 C1151 0.961 . S
H1167 C1151 0.960 . S
C1168 C1169 1.391 . S
C1168 C1170 1.394 . S
C1168 H1184 0.931 . S
C1169 C1168 1.391 . S
C1169 C1173 1.376 . S
C1170 C1168 1.394 . S
C1170 C1171 1.369 . S
C1170 C1174 1.531 . S
C1171 C1170 1.369 . S
C1171 C1172 1.410 . S
C1171 C1179 1.503 . S
C1172 C1171 1.410 . S
C1172 C1173 1.392 . S
C1172 C1175 1.511 . S
C1173 C1169 1.376 . S
C1173 C1172 1.392 . S
C1173 H1185 0.929 . S
C1174 C1170 1.531 . S
C1174 H1186 0.960 . S
C1174 H1187 0.962 . S
C1174 H1188 0.960 . S
C1175 C1172 1.511 . S
C1175 H1189 0.961 . S
C1175 H1190 0.961 . S
C1175 H1191 0.961 . S
C1176 C1177 1.370 . S
C1176 C1178 1.363 . S
C1176 H1192 0.931 . S
C1177 C1176 1.370 . S
C1177 C1181 1.408 . S
C1178 C1176 1.363 . S
C1178 C1179 1.370 . S
C1178 C1182 1.524 . S
C1179 C1171 1.503 . S
C1179 C1178 1.370 . S
C1179 C1180 1.403 . S
C1180 C1179 1.403 . S
C1180 C1181 1.404 . S
C1180 C1183 1.539 . S
C1181 C1177 1.408 . S
C1181 C1180 1.404 . S
C1181 H1193 0.930 . S
C1182 C1178 1.524 . S
C1182 H1194 0.956 . S
C1182 H1195 0.961 . S
C1182 H1196 0.961 . S
C1183 C1180 1.539 . S
C1183 H1197 0.958 . S
C1183 H1198 0.961 . S
C1183 H1199 0.960 . S
H1184 C1168 0.931 . S
H1185 C1173 0.929 . S
H1186 C1174 0.960 . S
H1187 C1174 0.962 . S
H1188 C1174 0.960 . S
H1189 C1175 0.961 . S
H1190 C1175 0.961 . S
H1191 C1175 0.961 . S
H1192 C1176 0.931 . S
H1193 C1181 0.930 . S
H1194 C1182 0.956 . S
H1195 C1182 0.961 . S
H1196 C1182 0.961 . S
H1197 C1183 0.958 . S
H1198 C1183 0.961 . S
H1199 C1183 0.960 . S
C1200 C1201 1.391 . S
C1200 C1202 1.394 . S
C1200 H1216 0.931 . S
C1201 C1200 1.391 . S
C1201 C1205 1.376 . S
C1202 C1200 1.394 . S
C1202 C1203 1.369 . S
C1202 C1206 1.531 . S
C1203 C1202 1.369 . S
C1203 C1204 1.410 . S
C1203 C1211 1.503 . S
C1204 C1203 1.410 . S
C1204 C1205 1.392 . S
C1204 C1207 1.511 . S
C1205 C1201 1.376 . S
C1205 C1204 1.392 . S
C1205 H1217 0.929 . S
C1206 C1202 1.531 . S
C1206 H1218 0.960 . S
C1206 H1219 0.962 . S
C1206 H1220 0.960 . S
C1207 C1204 1.511 . S
C1207 H1221 0.961 . S
C1207 H1222 0.961 . S
C1207 H1223 0.961 . S
C1208 C1209 1.370 . S
C1208 C1210 1.363 . S
C1208 H1224 0.931 . S
C1209 C1208 1.370 . S
C1209 C1213 1.408 . S
C1210 C1208 1.363 . S
C1210 C1211 1.370 . S
C1210 C1214 1.524 . S
C1211 C1203 1.503 . S
C1211 C1210 1.370 . S
C1211 C1212 1.403 . S
C1212 C1211 1.403 . S
C1212 C1213 1.404 . S
C1212 C1215 1.539 . S
C1213 C1209 1.408 . S
C1213 C1212 1.404 . S
C1213 H1225 0.930 . S
C1214 C1210 1.524 . S
C1214 H1226 0.956 . S
C1214 H1227 0.961 . S
C1214 H1228 0.961 . S
C1215 C1212 1.539 . S
C1215 H1229 0.958 . S
C1215 H1230 0.961 . S
C1215 H1231 0.960 . S
H1216 C1200 0.931 . S
H1217 C1205 0.929 . S
H1218 C1206 0.960 . S
H1219 C1206 0.962 . S
H1220 C1206 0.960 . S
H1221 C1207 0.961 . S
H1222 C1207 0.961 . S
H1223 C1207 0.961 . S
H1224 C1208 0.931 . S
H1225 C1213 0.930 . S
H1226 C1214 0.956 . S
H1227 C1214 0.961 . S
H1228 C1214 0.961 . S
H1229 C1215 0.958 . S
H1230 C1215 0.961 . S
H1231 C1215 0.960 . S
C209 C0 1.220 . S
C217 C52 1.196 . S
C241 C65 1.185 . S
C249 C13 1.187 . S
C273 C26 1.168 . S
C281 C78 1.197 . S
C305 C39 1.219 . S
C313 C91 1.194 . S
C337 C104 1.272 . S
C345 C156 1.263 . S
C369 C169 1.237 . S
C377 C117 1.249 . S
C401 C130 1.236 . S
C409 C182 1.251 . S
C433 C143 1.236 . S
C441 C195 1.250 . S
C465 C8 1.203 . S
C473 C205 1.173 . S
C497 C166 1.139 . S
C505 C21 1.211 . S
C529 C34 1.227 . S
C537 C179 1.166 . S
C561 C192 1.224 . S
C569 C47 1.191 . S
C593 C127 1.167 . S
C601 C60 1.197 . S
C625 C140 1.227 . S
C633 C73 1.187 . S
C657 C153 1.168 . S
C665 C86 1.197 . S
C689 C114 1.226 . S
C697 C99 1.189 . S
C721 C112 1.103 . S
C729 C96 1.075 . S
C753 C57 1.046 . S
C761 C125 1.124 . S
C785 C70 1.099 . S
C793 C138 1.128 . S
C817 C151 1.098 . S
C825 C83 1.040 . S
C849 C18 1.081 . S
C857 C164 1.111 . S
C881 C177 1.136 . S
C889 C31 1.064 . S
C913 C190 1.088 . S
C921 C44 1.051 . S
C945 C203 1.096 . S
C953 C5 1.040 . S
C977 C101 1.338 . S
C985 C10 1.337 . S
C1009 C23 1.322 . S
C1017 C62 1.328 . S
C1041 C36 1.315 . S
C1049 C75 1.325 . S
C1073 C49 1.345 . S
C1081 C88 1.340 . S
C1105 C200 1.218 . S
C1113 C109 1.179 . S
C1137 C161 1.220 . S
C1145 C122 1.185 . S
C1169 C174 1.123 . S
C1177 C135 1.166 . S
C1201 C187 1.125 . S
C1209 C148 1.169 . S
