# Generated by pormake.
# Topology nfc, (4)-cn, num edge types: 1
# Building blocks:
#     Node 0, Type 0, BuildingBlock: NAWXER_clean_sbu_0, # of connection points: 4
#     Node 1, Type 0, BuildingBlock: NAWXER_clean_sbu_0, # of connection points: 4
#     Node 2, Type 0, BuildingBlock: NAWXER_clean_sbu_0, # of connection points: 4
#     Node 3, Type 0, BuildingBlock: NAWXER_clean_sbu_0, # of connection points: 4
#     Node 4, Type 0, BuildingBlock: NAWXER_clean_sbu_0, # of connection points: 4
#     Node 5, Type 0, BuildingBlock: NAWXER_clean_sbu_0, # of connection points: 4
#     Node 6, Type 0, BuildingBlock: NAWXER_clean_sbu_0, # of connection points: 4
#     Node 7, Type 0, BuildingBlock: NAWXER_clean_sbu_0, # of connection points: 4
#     Node 8, Type 0, BuildingBlock: NAWXER_clean_sbu_0, # of connection points: 4
#     Node 9, Type 0, BuildingBlock: NAWXER_clean_sbu_0, # of connection points: 4
#     Node 10, Type 0, BuildingBlock: NAWXER_clean_sbu_0, # of connection points: 4
#     Node 11, Type 0, BuildingBlock: NAWXER_clean_sbu_0, # of connection points: 4
#     Node 12, Type 0, BuildingBlock: NAWXER_clean_sbu_0, # of connection points: 4
#     Node 13, Type 0, BuildingBlock: NAWXER_clean_sbu_0, # of connection points: 4
#     Node 14, Type 0, BuildingBlock: NAWXER_clean_sbu_0, # of connection points: 4
#     Node 15, Type 0, BuildingBlock: NAWXER_clean_sbu_0, # of connection points: 4
#     Edge 16, Type (0, 0), BuildingBlock: CIFDUS_clean_linker_0, # of connection points: 2
#     Edge 17, Type (0, 0), BuildingBlock: CIFDUS_clean_linker_0, # of connection points: 2
#     Edge 18, Type (0, 0), BuildingBlock: CIFDUS_clean_linker_0, # of connection points: 2
#     Edge 19, Type (0, 0), BuildingBlock: CIFDUS_clean_linker_0, # of connection points: 2
#     Edge 20, Type (0, 0), BuildingBlock: CIFDUS_clean_linker_0, # of connection points: 2
#     Edge 21, Type (0, 0), BuildingBlock: CIFDUS_clean_linker_0, # of connection points: 2
#     Edge 22, Type (0, 0), BuildingBlock: CIFDUS_clean_linker_0, # of connection points: 2
#     Edge 23, Type (0, 0), BuildingBlock: CIFDUS_clean_linker_0, # of connection points: 2
#     Edge 24, Type (0, 0), BuildingBlock: CIFDUS_clean_linker_0, # of connection points: 2
#     Edge 25, Type (0, 0), BuildingBlock: CIFDUS_clean_linker_0, # of connection points: 2
#     Edge 26, Type (0, 0), BuildingBlock: CIFDUS_clean_linker_0, # of connection points: 2
#     Edge 27, Type (0, 0), BuildingBlock: CIFDUS_clean_linker_0, # of connection points: 2
#     Edge 28, Type (0, 0), BuildingBlock: CIFDUS_clean_linker_0, # of connection points: 2
#     Edge 29, Type (0, 0), BuildingBlock: CIFDUS_clean_linker_0, # of connection points: 2
#     Edge 30, Type (0, 0), BuildingBlock: CIFDUS_clean_linker_0, # of connection points: 2
#     Edge 31, Type (0, 0), BuildingBlock: CIFDUS_clean_linker_0, # of connection points: 2
#     Edge 32, Type (0, 0), BuildingBlock: CIFDUS_clean_linker_0, # of connection points: 2
#     Edge 33, Type (0, 0), BuildingBlock: CIFDUS_clean_linker_0, # of connection points: 2
#     Edge 34, Type (0, 0), BuildingBlock: CIFDUS_clean_linker_0, # of connection points: 2
#     Edge 35, Type (0, 0), BuildingBlock: CIFDUS_clean_linker_0, # of connection points: 2
#     Edge 36, Type (0, 0), BuildingBlock: CIFDUS_clean_linker_0, # of connection points: 2
#     Edge 37, Type (0, 0), BuildingBlock: CIFDUS_clean_linker_0, # of connection points: 2
#     Edge 38, Type (0, 0), BuildingBlock: CIFDUS_clean_linker_0, # of connection points: 2
#     Edge 39, Type (0, 0), BuildingBlock: CIFDUS_clean_linker_0, # of connection points: 2
#     Edge 40, Type (0, 0), BuildingBlock: CIFDUS_clean_linker_0, # of connection points: 2
#     Edge 41, Type (0, 0), BuildingBlock: CIFDUS_clean_linker_0, # of connection points: 2
#     Edge 42, Type (0, 0), BuildingBlock: CIFDUS_clean_linker_0, # of connection points: 2
#     Edge 43, Type (0, 0), BuildingBlock: CIFDUS_clean_linker_0, # of connection points: 2
#     Edge 44, Type (0, 0), BuildingBlock: CIFDUS_clean_linker_0, # of connection points: 2
#     Edge 45, Type (0, 0), BuildingBlock: CIFDUS_clean_linker_0, # of connection points: 2
#     Edge 46, Type (0, 0), BuildingBlock: CIFDUS_clean_linker_0, # of connection points: 2
#     Edge 47, Type (0, 0), BuildingBlock: CIFDUS_clean_linker_0, # of connection points: 2
# Relax obj value: 0.157
# Max RMSD: 0.167
# Mean RMSD: 0.167
data_MOF--net-nfc--node1-NAWXER_clean_sbu_0--edge1-CIFDUS_clean_linker_0
_symmetry_space_group_name_H-M    P1
_symmetry_Int_Tables_number       1
_symmetry_cell_setting            triclinic
loop_
_symmetry_equiv_pos_as_xyz
'x, y, z'
_cell_length_a     32.33877
_cell_length_b     32.188714
_cell_length_c     24.60756
_cell_angle_alpha  89.800572
_cell_angle_beta   90.008151
_cell_angle_gamma 89.800531
loop_
_atom_site_label
_atom_site_type_symbol
_atom_site_fract_x
_atom_site_fract_y
_atom_site_fract_z
_atom_type_partial_charge
C0 C 0.04919 0.02421 0.03356 0.0
C1 C 0.94061 0.93353 0.95183 0.0
O2 O 0.01669 0.04305 0.01704 0.0
Zn3 Zn 0.95957 0.0303 0.97816 0.0
O4 O 0.05335 0.98558 0.02322 0.0
Zn5 Zn 0.99802 0.97639 -0.01061 0.0
O6 O 1.00308 1.00458 0.91064 0.0
O7 O 0.96359 0.06049 0.90943 0.0
O8 O 0.97594 0.92115 0.96841 0.0
O9 O 0.9317 0.97238 0.95476 0.0
O10 O 0.92462 0.05024 0.03702 0.0
O11 O 0.96032 0.9937 0.05811 0.0
C12 C 0.98843 0.03612 0.88511 0.0
C13 C 0.93524 0.0228 0.0718 0.0
C14 C 0.23389 0.87694 0.23943 0.0
C15 C 0.33199 0.76829 0.16844 0.0
O16 O 0.21744 0.84496 0.21746 0.0
Zn17 Zn 0.23378 0.78721 0.17948 0.0
O18 O 0.27323 0.87986 0.23937 0.0
Zn19 Zn 0.28465 0.82494 0.20374 0.0
O20 O 0.26376 0.83442 0.12138 0.0
O21 O 0.20976 0.79413 0.10764 0.0
O22 O 0.34088 0.80264 0.19121 0.0
O23 O 0.29364 0.75891 0.16254 0.0
O24 O 0.20729 0.75026 0.23148 0.0
O25 O 0.25993 0.7849 0.26595 0.0
C26 C 0.23511 0.82105 0.0899 0.0
C27 C 0.22995 0.75931 0.27198 0.0
C28 C 0.51135 0.04391 0.56917 0.0
C29 C 0.456 0.03466 0.3838 0.0
O30 O 0.48577 0.06906 0.54731 0.0
Zn31 Zn 0.48402 0.04277 0.47575 0.0
O32 O 0.52839 0.01567 0.54023 0.0
Zn33 Zn 0.52605 0.9926 0.45912 0.0
O34 O 0.58015 1.00842 0.42657 0.0
O35 O 0.53982 0.0628 0.43739 0.0
O36 O 0.48471 1.00829 0.39432 0.0
O37 O 0.44475 0.06046 0.42008 0.0
O38 O 0.46242 0.98166 0.4987 0.0
O39 O 0.5095 0.93494 0.47672 0.0
C40 C 0.57376 0.04723 0.41995 0.0
C41 C 0.47471 0.94369 0.49849 0.0
C42 C 0.35886 0.21969 0.73861 0.0
C43 C 0.25135 0.31345 0.66005 0.0
O44 O 0.3658 0.25534 0.71776 0.0
Zn45 Zn 0.3075 0.26798 0.70057 0.0
O46 O 0.32179 0.20564 0.74 0.0
Zn47 Zn 0.25944 0.22545 0.72072 0.0
O48 O 0.24273 0.18274 0.67031 0.0
O49 O 0.29343 0.2222 0.63931 0.0
O50 O 0.23657 0.27959 0.6793 0.0
O51 O 0.28981 0.32048 0.66585 0.0
O52 O 0.28712 0.27116 0.78276 0.0
O53 O 0.23576 0.22717 0.79378 0.0
C54 C 0.26817 0.19192 0.6327 0.0
C55 C 0.26085 0.25332 0.81384 0.0
C56 C 1.00774 0.13909 0.51147 0.0
C57 C 0.10443 0.0394 0.42328 0.0
O58 O 0.99265 0.10256 0.505 0.0
Zn59 Zn 1.01166 0.04299 0.47108 0.0
O60 O 0.04334 0.14723 0.49202 0.0
Zn61 Zn 0.0561 0.09061 0.46714 0.0
O62 O 0.0167 0.08483 0.39568 0.0
O63 O 0.97285 0.0341 0.41253 0.0
O64 O 0.11174 0.07639 0.43846 0.0
O65 O 0.06877 0.0239 0.43347 0.0
O66 O 1.00707 1.00796 0.53503 0.0
O67 O 0.05148 0.05919 0.54544 0.0
C68 C 0.98652 0.06175 0.3803 0.0
C69 C 0.03099 0.0287 0.56552 0.0
C70 C 0.214 0.82701 0.77293 0.0
C71 C 0.21665 0.76051 0.59267 0.0
O72 O 0.18897 0.83516 0.73425 0.0
Zn73 Zn 0.21191 0.79514 0.68218 0.0
O74 O 0.24236 0.79968 0.7663 0.0
Zn75 Zn 0.26307 0.7557 0.70817 0.0
O76 O 0.32036 0.77474 0.69269 0.0
O77 O 0.27242 0.81935 0.66596 0.0
O78 O 0.24326 0.74653 0.62675 0.0
O79 O 0.19057 0.78782 0.608 0.0
O80 O 0.19307 0.74037 0.72279 0.0
O81 O 0.24749 0.7041 0.74853 0.0
C82 C 0.31069 0.80923 0.6702 0.0
C83 C 0.20831 0.70896 0.7477 0.0
C84 C 0.59 0.98662 0.03364 0.0
C85 C 0.50165 0.09716 0.94917 0.0
O86 O 0.59969 0.0248 0.02876 0.0
Zn87 Zn 0.54696 0.04522 -0.0056 0.0
O88 O 0.55481 0.97486 0.01568 0.0
Zn89 Zn 0.50075 0.99916 0.97851 0.0
O90 O 0.49912 0.97108 0.90896 0.0
O91 O 0.54695 0.01986 0.91313 0.0
O92 O 0.48588 0.06073 0.9512 0.0
O93 O 0.53623 0.1038 0.97264 0.0
O94 O 0.50283 0.03604 0.05891 0.0
O95 O 0.45931 0.98725 0.03308 0.0
C96 C 0.5266 0.99302 0.88562 0.0
C97 C 0.47149 1.01287 0.06882 0.0
C98 C 0.27417 0.29404 0.28691 0.0
C99 C 0.17748 0.18373 0.21887 0.0
O100 O 0.23482 0.29659 0.28863 0.0
Zn101 Zn 0.22211 0.24114 0.25415 0.0
O102 O 0.29047 0.26192 0.26495 0.0
Zn103 Zn 0.27486 0.20432 0.22874 0.0
O104 O 0.29493 0.21038 0.15432 0.0
O105 O 0.23871 0.24751 0.17066 0.0
O106 O 0.21612 0.17591 0.21331 0.0
O107 O 0.16649 0.21744 0.24222 0.0
O108 O 0.24629 0.19971 0.3138 0.0
O109 O 0.30055 0.1663 0.28087 0.0
C110 C 0.266 0.23403 0.13733 0.0
C111 C 0.27585 0.17355 0.32005 0.0
C112 C 0.74848 0.35417 0.79216 0.0
C113 C 0.8586 0.26099 0.71601 0.0
O114 O 0.73673 0.31844 0.77571 0.0
Zn115 Zn 0.76029 0.26346 0.74021 0.0
O116 O 0.78643 0.36383 0.78643 0.0
Zn117 Zn 0.80667 0.30986 0.75413 0.0
O118 O 0.78217 0.30801 0.67315 0.0
O119 O 0.73294 0.26066 0.67049 0.0
O120 O 0.86496 0.29779 0.73332 0.0
O121 O 0.82206 0.24581 0.71831 0.0
O122 O 0.74698 0.2232 0.79533 0.0
O123 O 0.79673 0.26621 0.82 0.0
C124 C 0.75511 0.28753 0.64637 0.0
C125 C 0.77306 0.23522 0.83056 0.0
C126 C 0.82383 0.72381 0.29365 0.0
C127 C 0.73786 0.83852 0.21495 0.0
O128 O 0.83447 0.75969 0.27703 0.0
Zn129 Zn 0.78077 0.78294 0.25621 0.0
O130 O 0.78537 0.71396 0.29101 0.0
Zn131 Zn 0.72839 0.74517 0.2647 0.0
O132 O 0.70746 0.71178 0.20606 0.0
O133 O 0.76315 0.74795 0.1845 0.0
O134 O 0.71737 0.80591 0.22811 0.0
O135 O 0.77629 0.83991 0.22616 0.0
O136 O 0.74933 0.78896 0.33339 0.0
O137 O 0.69532 0.74763 0.32958 0.0
C138 C 0.73392 0.72315 0.17095 0.0
C139 C 0.7168 0.77377 0.35567 0.0
C140 C 0.79994 0.26992 0.32975 0.0
C141 C 0.79578 0.21576 0.14442 0.0
O142 O 0.77004 0.28433 0.3012 0.0
Zn143 Zn 0.74681 0.28033 0.22061 0.0
O144 O 0.82677 0.24631 0.30784 0.0
Zn145 Zn 0.80042 0.24267 0.23681 0.0
O146 O 0.81413 0.3016 0.2004 0.0
O147 O 0.7566 0.33705 0.18928 0.0
O148 O 0.82248 0.20655 0.18058 0.0
O149 O 0.76678 0.24167 0.15526 0.0
O150 O 0.69198 0.25692 0.23759 0.0
O151 O 0.74237 0.21341 0.25819 0.0
C152 C 0.79573 0.33454 0.18362 0.0
C153 C 0.7036 0.22207 0.25744 0.0
C154 C 0.68116 0.68559 0.71002 0.0
C155 C 0.79441 0.77308 0.79018 0.0
O156 O 0.67072 0.72146 0.72765 0.0
Zn157 Zn 0.6963 0.77518 0.76397 0.0
O158 O 0.71875 0.67399 0.71535 0.0
Zn159 Zn 0.74107 0.72587 0.7496 0.0
O160 O 0.71421 0.72639 0.82869 0.0
O161 O 0.66846 0.77723 0.83434 0.0
O162 O 0.79974 0.73679 0.77042 0.0
O163 O 0.75818 0.7893 0.78844 0.0
O164 O 0.68548 0.81542 0.70589 0.0
O165 O 0.7326 0.76831 0.68425 0.0
C166 C 0.68798 0.74722 0.85663 0.0
C167 C 0.71091 0.80024 0.67172 0.0
C168 C 0.41186 0.45158 0.46514 0.0
C169 C 0.53068 0.53324 0.54091 0.0
O170 O 0.41121 0.49051 0.47467 0.0
Zn171 Zn 0.46856 0.49589 0.50494 0.0
O172 O 0.4437 0.43047 0.47938 0.0
Zn173 Zn 0.50299 0.43862 0.51568 0.0
O174 O 0.4991 0.41072 0.58678 0.0
O175 O 0.4644 0.46962 0.5836 0.0
O176 O 0.53623 0.49386 0.53773 0.0
O177 O 0.4961 0.54863 0.52558 0.0
O178 O 0.50512 0.47664 0.43701 0.0
O179 O 0.53656 0.41714 0.45602 0.0
C180 C 0.47747 0.43827 0.61074 0.0
C181 C 0.52879 0.44657 0.42271 0.0
C182 C 0.08512 0.49254 0.07409 0.0
C183 C 0.03752 0.4794 0.88631 0.0
O184 O 0.05639 0.51819 0.06076 0.0
Zn185 Zn 0.01605 0.531 -0.00618 0.0
O186 O 0.09642 0.46445 0.04086 0.0
Zn187 Zn 0.05953 0.48023 0.98191 0.0
O188 O 0.08293 0.54021 0.96117 0.0
O189 O 0.03435 0.58782 0.97273 0.0
O190 O 0.06216 0.45435 0.9102 0.0
O191 O 0.01836 0.50705 0.91383 0.0
O192 O 0.95996 0.5144 0.0234 0.0
O193 O 1.00186 0.4612 0.01415 0.0
C194 C 0.07099 0.57804 0.95779 0.0
C195 C 0.96669 0.47555 0.02904 0.0
C196 C 0.48216 0.5926 0.0374 0.0
C197 C 0.59958 0.50822 0.96273 0.0
O198 O 0.47546 0.55321 0.0368 0.0
Zn199 Zn 0.50872 0.49632 0.01553 0.0
O200 O 0.51683 0.60585 0.02008 0.0
Zn201 Zn 0.54261 0.55165 0.00194 0.0
O202 O 0.50615 0.52929 0.93365 0.0
O203 O 0.4753 0.4713 0.95969 0.0
O204 O 0.59939 0.54733 0.97064 0.0
O205 O 0.5683 0.48702 0.97847 0.0
O206 O 0.51368 0.46695 0.08401 0.0
O207 O 0.5495 0.52501 0.082 0.0
C208 C 0.48314 0.49788 0.92284 0.0
C209 C 0.53696 0.49275 0.10793 0.0
C210 C 0.07806 0.44556 0.49782 0.0
C211 C 0.97093 0.54753 0.43044 0.0
O212 O 0.08905 0.48381 0.49702 0.0
Zn213 Zn 0.06385 0.54444 0.4774 0.0
O214 O 0.04202 0.43602 0.48057 0.0
Zn215 Zn 0.02259 0.49307 0.46395 0.0
O216 O 0.06173 0.50836 0.39743 0.0
O217 O 0.10054 0.56231 0.41892 0.0
O218 O 0.96647 0.50841 0.43609 0.0
O219 O 1.00534 0.56371 0.4449 0.0
O220 O 0.06546 0.56924 0.55002 0.0
O221 O 0.024 0.51507 0.54483 0.0
C222 C 0.08965 0.5348 0.38474 0.0
C223 C 0.04186 0.54297 0.57315 0.0
H224 H 0.95399 0.09079 0.13002 0.0
H225 H 0.90513 0.96702 0.14492 0.0
H226 H 0.91196 0.9704 0.244 0.0
H227 H 0.94087 1.00476 0.32469 0.0
H228 H 0.99723 0.12545 0.30792 0.0
H229 H 0.97867 0.12715 0.21169 0.0
C230 C 0.9434 0.06524 0.15526 0.0
C231 C 0.92808 0.02909 0.13049 0.0
C232 C 0.94982 0.06652 0.21186 0.0
C233 C 0.91611 0.99546 0.1633 0.0
C234 C 0.92052 0.99724 0.21985 0.0
C235 C 0.9484 0.0318 0.30027 0.0
C236 C 0.97052 0.06491 0.32368 0.0
C237 C 0.93872 0.03203 0.24442 0.0
C238 C 0.98039 0.09946 0.29108 0.0
C239 C 0.96976 0.10047 0.23594 0.0
H240 H 0.28015 0.73478 0.35376 0.0
H241 H 0.15275 0.76124 0.31594 0.0
H242 H 0.13567 0.76204 0.413 0.0
H243 H 0.15947 0.76405 0.50928 0.0
H244 H 0.28675 0.73324 0.54474 0.0
H245 H 0.30113 0.72502 0.44863 0.0
C246 C 0.24842 0.73943 0.36683 0.0
C247 C 0.21778 0.74788 0.32794 0.0
C248 C 0.23889 0.73977 0.42254 0.0
C249 C 0.17679 0.75407 0.34521 0.0
C250 C 0.16713 0.75509 0.40076 0.0
C251 C 0.1901 0.75487 0.4959 0.0
C252 C 0.22199 0.74979 0.53438 0.0
C253 C 0.19826 0.74939 0.43994 0.0
C254 C 0.26148 0.73741 0.51631 0.0
C255 C 0.26992 0.73281 0.46113 0.0
H256 H 0.5295 0.06194 0.82378 0.0
H257 H 0.52599 0.92835 0.81355 0.0
H258 H 0.5239 0.93295 0.71393 0.0
H259 H 0.52004 0.97514 0.63057 0.0
H260 H 0.51371 0.10869 0.64149 0.0
H261 H 0.52192 0.10419 0.74062 0.0
C262 C 0.52874 0.03384 0.79963 0.0
C263 C 0.5287 0.99476 0.82569 0.0
C264 C 0.52533 0.0369 0.74283 0.0
C265 C 0.52658 0.95862 0.79421 0.0
C266 C 0.52522 0.96133 0.73742 0.0
C267 C 0.521 1.00331 0.65461 0.0
C268 C 0.51713 0.04231 0.6288 0.0
C269 C 0.52421 1.0003 0.7114 0.0
C270 C 0.51704 0.07845 0.66048 0.0
C271 C 0.52178 0.07582 0.71701 0.0
H272 H 0.20354 0.24152 0.89443 0.0
H273 H 0.3318 0.27152 0.86698 0.0
H274 H 0.3455 0.26795 0.96413 0.0
H275 H 0.32199 0.25258 0.05756 0.0
H276 H 0.19277 0.22839 0.08591 0.0
H277 H 0.1786 0.23338 -0.01134 0.0
C278 C 0.23427 0.24787 0.9099 0.0
C279 C 0.26644 0.25681 0.87343 0.0
C280 C 0.24197 0.24646 0.96624 0.0
C281 C 0.30622 0.26504 0.89411 0.0
C282 C 0.31428 0.26267 0.94977 0.0
C283 C 0.29079 0.24872 0.04225 0.0
C284 C 0.25856 0.24 0.07861 0.0
C285 C 0.28256 0.25281 -0.01375 0.0
C286 C 0.21809 0.2354 0.05855 0.0
C287 C 0.20993 0.2381 0.00293 0.0
H288 H 0.023 0.08868 0.64104 0.0
H289 H 0.03233 0.95588 0.62305 0.0
H290 H 0.02276 0.94685 0.72135 0.0
H291 H 1.00836 0.97671 0.81155 0.0
H292 H 0.99053 0.10897 0.82738 0.0
H293 H 1.00627 0.11838 0.73069 0.0
C294 C 0.02355 0.05782 0.65889 0.0
C295 C 0.02919 0.02296 0.62518 0.0
C296 C 0.01599 0.05288 0.71487 0.0
C297 C 0.02858 0.98309 0.64838 0.0
C298 C 0.02293 0.97799 0.70446 0.0
C299 C 1.00832 1.00765 0.79394 0.0
C300 C 0.99872 0.04219 0.82678 0.0
C301 C 0.01613 1.01263 0.73801 0.0
C302 C 0.9979 0.08195 0.80307 0.0
C303 C 1.007 0.08732 0.74783 0.0
H304 H 0.73256 0.2795 0.39259 0.0
H305 H 0.86575 0.27447 0.3998 0.0
H306 H 0.86315 0.28366 0.49874 0.0
H307 H 0.82266 0.29013 0.58306 0.0
H308 H 0.68949 0.28679 0.57637 0.0
H309 H 0.69219 0.28427 0.47675 0.0
C310 C 0.76107 0.28094 0.41576 0.0
C311 C 0.79938 0.27691 0.38903 0.0
C312 C 0.75917 0.28475 0.47245 0.0
C313 C 0.836 0.27771 0.41957 0.0
C314 C 0.83446 0.28299 0.47599 0.0
C315 C 0.79424 0.28957 0.55961 0.0
C316 C 0.75584 0.28948 0.58658 0.0
C317 C 0.7962 0.28625 0.50282 0.0
C318 C 0.71926 0.28735 0.55619 0.0
C319 C 0.72087 0.28578 0.49943 0.0
H320 H 0.46028 0.07802 0.13754 0.0
H321 H 0.44496 0.94539 0.12516 0.0
H322 H 0.43211 0.94082 0.22289 0.0
H323 H 0.43697 0.97327 0.31334 0.0
H324 H 0.44858 0.10619 0.32574 0.0
H325 H 0.45007 0.1122 0.22655 0.0
C326 C 0.45305 0.04832 0.15614 0.0
C327 C 0.45412 1.01201 0.12444 0.0
C328 C 0.44524 0.04599 0.21236 0.0
C329 C 0.44429 0.97375 0.14874 0.0
C330 C 0.43722 0.97109 0.2047 0.0
C331 C 0.43831 1.00364 0.29416 0.0
C332 C 0.44288 0.03921 0.3266 0.0
C333 C 0.43922 1.00679 0.23716 0.0
C334 C 0.44464 0.07843 0.30154 0.0
C335 C 0.44605 0.0818 0.24482 0.0
H336 H 0.66792 0.74713 0.11219 0.0
H337 H 0.78561 0.68482 0.09986 0.0
H338 H 0.7787 0.68241 0.00068 0.0
H339 H 0.7427 0.70418 0.91809 0.0
H340 H 0.62891 0.77413 0.92913 0.0
H341 H 0.63053 0.76743 0.02842 0.0
C342 C 0.69142 0.73207 0.08762 0.0
C343 C 0.7268 0.71525 0.11287 0.0
C344 C 0.68811 0.73277 0.03062 0.0
C345 C 0.75789 0.69721 0.08102 0.0
C346 C 0.75401 0.69613 0.02447 0.0
C347 C 0.71776 0.71738 0.94198 0.0
C348 C 0.68555 0.73949 0.91607 0.0
C349 C 0.71974 0.71468 -0.00116 0.0
C350 C 0.65397 0.75692 0.94797 0.0
C351 C 0.65495 0.75313 0.00473 0.0
H352 H 0.45065 0.50244 0.67197 0.0
H353 H 0.49427 0.37591 0.68504 0.0
H354 H 0.49431 0.38172 0.78448 0.0
H355 H 0.48868 0.42547 0.86707 0.0
H356 H 0.45276 0.554 0.85073 0.0
H357 H 0.44256 0.54466 0.75304 0.0
C358 C 0.45954 0.47572 0.69633 0.0
C359 C 0.47238 0.43868 0.67083 0.0
C360 C 0.46102 0.47986 0.75302 0.0
C361 C 0.48419 0.40473 0.70346 0.0
C362 C 0.48435 0.40813 0.76033 0.0
C363 C 0.47765 0.45106 0.84213 0.0
C364 C 0.47087 0.49028 0.86594 0.0
C365 C 0.47373 0.44588 0.7855 0.0
C366 C 0.45779 0.52356 0.83323 0.0
C367 C 0.45215 0.51823 0.77743 0.0
H368 H 0.83843 0.22633 0.89904 0.0
H369 H 0.7073 0.20451 0.88616 0.0
H370 H 0.70382 0.1891 -0.01666 0.0
H371 H 0.73609 0.19368 0.0737 0.0
H372 H 0.86744 0.21324 0.08682 0.0
H373 H 0.87317 0.21654 -0.0123 0.0
C374 C 0.80932 0.21727 0.91742 0.0
C375 C 0.77304 0.21725 0.88586 0.0
C376 C 0.80762 0.20817 0.97329 0.0
C377 C 0.7356 0.20486 0.90973 0.0
C378 C 0.73355 0.19626 0.96534 0.0
C379 C 0.76615 0.19717 0.05465 0.0
C380 C 0.80124 0.20351 0.08723 0.0
C381 C 0.76906 0.19944 -0.00219 0.0
C382 C 0.84008 0.20796 0.06243 0.0
C383 C 0.84325 0.21042 0.00579 0.0
H384 H 0.09891 0.56095 0.13477 0.0
H385 H 0.10607 0.42721 0.13927 0.0
H386 H 0.11513 0.42897 0.23802 0.0
H387 H 0.10843 0.46813 0.32345 0.0
H388 H 0.10236 0.60187 0.3191 0.0
H389 H 0.10641 0.60078 0.21969 0.0
C390 C 0.10355 0.53228 0.15734 0.0
C391 C 0.10122 0.49395 0.13017 0.0
C392 C 0.10859 0.53361 0.21399 0.0
C393 C 0.10776 0.45703 0.15942 0.0
C394 C 0.11259 0.45804 0.21589 0.0
C395 C 0.1093 0.49705 0.30067 0.0
C396 C 0.10466 0.53502 0.32819 0.0
C397 C 0.11125 0.49606 0.24371 0.0
C398 C 0.10609 0.57234 0.29866 0.0
C399 C 0.10793 0.57165 0.24184 0.0
H400 H 0.65262 0.78581 0.5969 0.0
H401 H 0.77315 0.83942 0.61887 0.0
H402 H 0.78391 0.8404 0.52028 0.0
H403 H 0.76314 0.81612 0.42961 0.0
H404 H 0.64495 0.75622 0.40925 0.0
H405 H 0.62908 0.76751 0.50501 0.0
C406 C 0.68043 0.79931 0.57972 0.0
C407 C 0.71163 0.8136 0.61459 0.0
C408 C 0.68725 0.7975 0.52334 0.0
C409 C 0.74836 0.82934 0.59243 0.0
C410 C 0.75471 0.8293 0.53619 0.0
C411 C 0.73363 0.80612 0.44589 0.0
C412 C 0.70551 0.78491 0.4123 0.0
C413 C 0.72505 0.81189 0.50143 0.0
C414 C 0.66741 0.77218 0.43421 0.0
C415 C 0.65823 0.7787 0.48903 0.0
H416 H 0.53349 0.42223 0.17043 0.0
H417 H 0.56094 0.55326 0.17773 0.0
H418 H 0.56642 0.54916 0.27634 0.0
H419 H 0.55486 0.51049 0.36099 0.0
H420 H 0.52942 0.37931 0.35539 0.0
H421 H 0.53259 0.38102 0.25579 0.0
C422 C 0.54125 0.44972 0.19361 0.0
C423 C 0.54615 0.48813 0.16672 0.0
C424 C 0.54472 0.44711 0.25062 0.0
C425 C 0.55682 0.52334 0.19726 0.0
C426 C 0.55985 0.52109 0.25377 0.0
C427 C 0.55115 0.48208 0.33791 0.0
C428 C 0.54184 0.44487 0.36525 0.0
C429 C 0.55272 0.48345 0.28093 0.0
C430 C 0.5371 0.40822 0.33515 0.0
C431 C 0.53839 0.40933 0.27821 0.0
H432 H 0.16982 0.82076 0.01859 0.0
H433 H 0.29954 0.85045 0.03085 0.0
H434 H 0.30273 0.86263 0.9332 0.0
H435 H 0.27129 0.85497 0.84305 0.0
H436 H 0.14157 0.82726 0.82928 0.0
H437 H 0.13535 0.82546 0.92854 0.0
C438 C 0.19858 0.83051 -9e-05 0.0
C439 C 0.23455 0.83397 0.03193 0.0
C440 C 0.20016 0.83803 0.94342 0.0
C441 C 0.27144 0.8473 0.00726 0.0
C442 C 0.27336 0.85424 0.9513 0.0
C443 C 0.24134 0.8502 0.86191 0.0
C444 C 0.20692 0.84144 0.82906 0.0
C445 C 0.23826 0.8485 0.91881 0.0
C446 C 0.16834 0.83483 0.85376 0.0
C447 C 0.16497 0.83306 0.91055 0.0
H448 H 0.03479 0.55045 0.82915 0.0
H449 H 0.04058 0.41744 0.80978 0.0
H450 H 0.04075 0.42615 0.7105 0.0
H451 H 0.03995 0.47176 0.63014 0.0
H452 H 0.0411 0.60487 0.64985 0.0
H453 H 0.03756 0.59607 0.749 0.0
C454 C 0.03565 0.52331 0.80316 0.0
C455 C 0.0368 0.48324 0.8265 0.0
C456 C 0.03715 0.52872 0.74663 0.0
C457 C 0.03925 0.44844 0.79258 0.0
C458 C 0.03938 0.4535 0.73601 0.0
C459 C 0.03907 0.4989 0.65616 0.0
C460 C 0.03995 0.53901 0.63291 0.0
C461 C 0.03835 0.49349 0.71273 0.0
C462 C 0.0401 0.57383 0.66694 0.0
C463 C 0.03809 0.56874 0.72343 0.0
H464 H 0.21993 0.14859 0.39464 0.0
H465 H 0.35043 0.16826 0.37083 0.0
H466 H 0.36097 0.16987 0.4693 0.0
H467 H 0.33042 0.18012 0.56028 0.0
H468 H 0.1999 0.15972 0.58385 0.0
H469 H 0.192 0.14329 0.4875 0.0
C470 C 0.25088 0.15166 0.41117 0.0
C471 C 0.2843 0.15882 0.37579 0.0
C472 C 0.2565 0.1533 0.4677 0.0
C473 C 0.3243 0.16252 0.39734 0.0
C474 C 0.33021 0.16404 0.45365 0.0
C475 C 0.30047 0.17104 0.5445 0.0
C476 C 0.26563 0.17193 0.57878 0.0
C477 C 0.29617 0.16175 0.48901 0.0
C478 C 0.22713 0.15945 0.55821 0.0
C479 C 0.22255 0.15032 0.50302 0.0
H480 H 0.03305 0.0939 0.09166 0.0
H481 H 0.13104 1.00666 0.05688 0.0
H482 H 0.17842 0.04701 0.11397 0.0
H483 H 0.19258 0.10879 0.1704 0.0
H484 H 0.09368 0.19493 0.2061 0.0
H485 H 0.04591 0.15278 0.15261 0.0
C486 C 0.06485 0.08365 0.09624 0.0
C487 C 0.07862 0.04753 0.06894 0.0
C488 C 0.09165 0.10672 0.12964 0.0
C489 C 0.11966 0.03439 0.07678 0.0
C490 C 0.14672 0.05751 0.10952 0.0
C491 C 0.16047 0.11828 0.16702 0.0
C492 C 0.14696 0.1554 0.19232 0.0
C493 C 0.13316 0.09395 0.13573 0.0
C494 C 0.10511 0.16673 0.18741 0.0
C495 C 0.07779 0.14269 0.15646 0.0
H496 H 0.08919 0.97297 0.35914 0.0
H497 H 0.1891 0.05061 0.41374 0.0
H498 H 0.23845 1.00866 0.36105 0.0
H499 H 0.25335 0.94773 0.30027 0.0
H500 H 0.15031 0.87406 0.24443 0.0
H501 H 0.10282 0.91653 0.29609 0.0
C502 C 0.12179 0.98078 0.35986 0.0
C503 C 0.13527 0.01467 0.39122 0.0
C504 C 0.14977 0.95708 0.32874 0.0
C505 C 0.17768 0.02457 0.39042 0.0
C506 C 0.20598 1.00053 0.36015 0.0
C507 C 0.2205 0.94125 0.299 0.0
C508 C 0.20595 0.90718 0.26819 0.0
C509 C 0.19245 0.96642 0.32915 0.0
C510 C 0.16301 0.89964 0.26745 0.0
C511 C 0.13548 0.92398 0.29729 0.0
H512 H 0.38355 0.79148 0.61519 0.0
H513 H 0.30695 0.89273 0.67092 0.0
H514 H 0.35039 0.94234 0.62295 0.0
H515 H 0.40758 0.95743 0.56202 0.0
H516 H 0.48546 0.85819 0.50351 0.0
H517 H 0.44413 0.80763 0.55501 0.0
C518 C 0.37696 0.82446 0.61758 0.0
C519 C 0.342 0.83829 0.64704 0.0
C520 C 0.40187 0.85323 0.58852 0.0
C521 C 0.33353 0.88114 0.64877 0.0
C522 C 0.3583 0.90962 0.62107 0.0
C523 C 0.41565 0.92473 0.56007 0.0
C524 C 0.4495 0.91182 0.5281 0.0
C525 C 0.39203 0.89603 0.59005 0.0
C526 C 0.45945 0.8692 0.52721 0.0
C527 C 0.43585 0.84023 0.55693 0.0
H528 H 0.41664 0.24385 0.81433 0.0
H529 H 0.37228 0.13809 0.72467 0.0
H530 H 0.41387 0.0916 0.78101 0.0
H531 H 0.45655 0.08003 0.86065 0.0
H532 H 0.50297 0.18356 0.9527 0.0
H533 H 0.46656 0.23197 0.89111 0.0
C534 C 0.41715 0.21075 0.8063 0.0
C535 C 0.39167 0.19439 0.76496 0.0
C536 C 0.44051 0.1838 0.84022 0.0
C537 C 0.39181 0.15138 0.75586 0.0
C538 C 0.41529 0.12475 0.7884 0.0
C539 C 0.45889 0.11322 0.86749 0.0
C540 C 0.48181 0.12808 0.91205 0.0
C541 C 0.43861 0.14047 0.83167 0.0
C542 C 0.48519 0.17124 0.91916 0.0
C543 C 0.46441 0.19887 0.88383 0.0
H544 H 0.9522 0.85639 0.90283 0.0
H545 H 0.85821 0.94633 0.9449 0.0
H546 H 0.80615 0.90517 0.89901 0.0
H547 H 0.78672 0.84555 0.84489 0.0
H548 H 0.87805 0.75385 0.80043 0.0
H549 H 0.93138 0.79368 0.84876 0.0
C550 C 0.92025 0.86665 0.90245 0.0
C551 C 0.90941 0.90472 0.92753 0.0
C552 C 0.8899 0.84273 0.87494 0.0
C553 C 0.86777 0.91752 0.92597 0.0
C554 C 0.8378 0.89395 0.89956 0.0
C555 C 0.81827 0.83402 0.84537 0.0
C556 C 0.82813 0.79666 0.81837 0.0
C557 C 0.84851 0.85687 0.87337 0.0
C558 C 0.86936 0.7825 0.8204 0.0
C559 C 0.8999 0.80531 0.84824 0.0
H560 H 0.91966 0.28478 0.64366 0.0
H561 H 0.86874 0.17847 0.72689 0.0
H562 H 0.91032 0.13193 0.67124 0.0
H563 H 0.9564 0.12058 0.59435 0.0
H564 H 1.01016 0.22499 0.51054 0.0
H565 H 0.97209 0.27295 0.57018 0.0
C566 C 0.9186 0.25151 0.65046 0.0
C567 C 0.89117 0.23517 0.68971 0.0
C568 C 0.94228 0.22448 0.61718 0.0
C569 C 0.88958 0.19188 0.69719 0.0
C570 C 0.91313 0.16516 0.66504 0.0
C571 C 0.9598 0.15385 0.58889 0.0
C572 C 0.98548 0.16912 0.5472 0.0
C573 C 0.93863 0.181 0.62396 0.0
C574 C 0.99024 0.21236 0.54184 0.0
C575 C 0.96854 0.23978 0.57611 0.0
H576 H 0.71829 0.14345 0.29705 0.0
H577 H 0.62097 0.23442 0.27776 0.0
H578 H 0.57315 0.18892 0.32646 0.0
H579 H 0.55901 0.12406 0.37653 0.0
H580 H 0.65532 0.0319 0.39388 0.0
H581 H 0.70327 0.07706 0.34423 0.0
C582 C 0.68654 0.15333 0.30313 0.0
C583 C 0.6735 0.19267 0.28348 0.0
C584 C 0.65899 0.12681 0.3313 0.0
C585 C 0.63209 0.20453 0.29196 0.0
C586 C 0.60467 0.17849 0.32013 0.0
C587 C 0.59056 0.11378 0.36975 0.0
C588 C 0.6035 0.07454 0.38972 0.0
C589 C 0.61783 0.13973 0.34042 0.0
C590 C 0.64439 0.06181 0.37944 0.0
C591 C 0.67186 0.0877 0.35092 0.0
H592 H 0.66922 0.83118 0.1531 0.0
H593 H 0.7595 0.92134 0.20342 0.0
H594 H 0.72314 0.97544 0.15089 0.0
H595 H 0.66362 0.99744 0.09163 0.0
H596 H 0.57652 0.9038 0.04048 0.0
H597 H 0.61379 0.85138 0.09157 0.0
C598 C 0.68098 0.86271 0.15297 0.0
C599 C 0.71677 0.87216 0.18306 0.0
C600 C 0.6604 0.89331 0.12202 0.0
C601 C 0.73189 0.91311 0.18106 0.0
C602 C 0.71105 0.94409 0.15092 0.0
C603 C 0.65303 0.96553 0.09133 0.0
C604 C 0.61679 0.95514 0.06213 0.0
C605 C 0.675 0.93466 0.12126 0.0
C606 C 0.60388 0.91333 0.06249 0.0
C607 C 0.62521 0.88301 0.09195 0.0
H608 H 0.52379 0.60859 0.59262 0.0
H609 H 0.61292 0.51497 0.54765 0.0
H610 H 0.66721 0.55233 0.59594 0.0
H611 H 0.68977 0.61142 0.65341 0.0
H612 H 0.59926 0.70353 0.70011 0.0
H613 H 0.54609 0.66716 0.64973 0.0
C614 C 0.55518 0.59665 0.59275 0.0
C615 C 0.56404 0.55905 0.566 0.0
C616 C 0.58638 0.61792 0.62181 0.0
C617 C 0.60497 0.54384 0.56765 0.0
C618 C 0.63618 0.56517 0.59553 0.0
C619 C 0.6584 0.62338 0.65287 0.0
C620 C 0.64902 0.66035 0.68105 0.0
C621 C 0.62728 0.6021 0.62338 0.0
C622 C 0.60792 0.67525 0.67921 0.0
C623 C 0.57718 0.65447 0.65008 0.0
H624 H 0.59429 0.43497 0.91022 0.0
H625 H 0.68075 0.53299 0.94437 0.0
H626 H 0.73488 0.49519 0.89413 0.0
H627 H 0.75794 0.43226 0.84125 0.0
H628 H 0.6673 0.33752 0.80649 0.0
H629 H 0.61523 0.37604 0.85558 0.0
C630 C 0.62501 0.4482 0.90709 0.0
C631 C 0.63338 0.48664 0.93193 0.0
C632 C 0.65556 0.42671 0.87755 0.0
C633 C 0.67331 0.5034 0.92606 0.0
C634 C 0.70432 0.4817 0.89725 0.0
C635 C 0.72676 0.42023 0.84414 0.0
C636 C 0.71719 0.3815 0.81998 0.0
C637 C 0.69592 0.44305 0.87282 0.0
C638 C 0.67627 0.36683 0.82441 0.0
C639 C 0.64611 0.38889 0.85276 0.0
H640 H 0.87237 0.32591 0.14116 0.0
H641 H 0.77559 0.41699 0.16034 0.0
H642 H 0.8188 0.46917 0.11414 0.0
H643 H 0.88599 0.48913 0.06875 0.0
H644 H 0.97942 0.39388 0.04915 0.0
H645 H 0.93578 0.34398 0.09448 0.0
C646 C 0.86051 0.3572 0.13563 0.0
C647 C 0.82073 0.36734 0.15505 0.0
C648 C 0.8852 0.38669 0.10848 0.0
C649 C 0.80605 0.40808 0.14622 0.0
C650 C 0.83088 0.43801 0.11971 0.0
C651 C 0.89668 0.45744 0.07418 0.0
C652 C 0.93653 0.44593 0.05518 0.0
C653 C 0.87079 0.42778 0.10065 0.0
C654 C 0.94934 0.40437 0.06288 0.0
C655 C 0.92429 0.37541 0.08912 0.0
H656 H 0.97793 0.62802 0.39598 0.0
H657 H 0.88933 0.5286 0.4078 0.0
H658 H 0.83624 0.57354 0.3669 0.0
H659 H 0.81462 0.64194 0.32768 0.0
H660 H 0.90518 0.73968 0.31433 0.0
H661 H 0.95726 0.69471 0.35545 0.0
C662 C 0.94699 0.61601 0.38989 0.0
C663 C 0.93789 0.57472 0.40559 0.0
C664 C 0.91669 0.64193 0.36569 0.0
C665 C 0.89751 0.56005 0.39647 0.0
C666 C 0.86703 0.58587 0.37297 0.0
C667 C 0.84576 0.65342 0.33362 0.0
C668 C 0.85553 0.69459 0.31763 0.0
C669 C 0.87617 0.62698 0.35735 0.0
C670 C 0.89633 0.70844 0.32584 0.0
C671 C 0.92634 0.68265 0.34959 0.0
H672 H 0.2566 0.36251 0.35413 0.0
H673 H 0.35739 0.2959 0.27807 0.0
H674 H 0.40704 0.33851 0.32512 0.0
H675 H 0.42357 0.39181 0.39103 0.0
H676 H 0.32639 0.46304 0.46611 0.0
H677 H 0.27424 0.42212 0.41656 0.0
C678 C 0.28938 0.3577 0.34738 0.0
C679 C 0.30271 0.32525 0.31256 0.0
C680 C 0.31876 0.38306 0.37485 0.0
C681 C 0.3456 0.31995 0.30463 0.0
C682 C 0.3744 0.34443 0.3317 0.0
C683 C 0.39094 0.39858 0.3966 0.0
C684 C 0.37901 0.43015 0.43287 0.0
C685 C 0.36148 0.3755 0.36751 0.0
C686 C 0.33656 0.43891 0.43856 0.0
C687 C 0.30672 0.41534 0.41027 0.0
H688 H 0.49083 0.67305 0.07549 0.0
H689 H 0.39972 0.57753 0.04989 0.0
H690 H 0.34608 0.62248 0.08755 0.0
H691 H 0.32424 0.68895 0.12848 0.0
H692 H 0.41527 0.78382 0.15808 0.0
H693 H 0.46904 0.73942 0.11888 0.0
C694 C 0.4592 0.66213 0.07785 0.0
C695 C 0.44963 0.62169 0.05929 0.0
C696 C 0.4282 0.68812 0.10079 0.0
C697 C 0.40835 0.60824 0.0636 0.0
C698 C 0.37747 0.63404 0.08528 0.0
C699 C 0.35584 0.70001 0.12657 0.0
C700 C 0.3653 0.74005 0.1465 0.0
C701 C 0.38693 0.67402 0.10421 0.0
C702 C 0.40672 0.75333 0.14349 0.0
C703 C 0.43764 0.72788 0.12079 0.0
H704 H 0.22213 0.66726 0.84414 0.0
H705 H 0.12797 0.69327 0.72455 0.0
H706 H 0.076 0.66023 0.78177 0.0
H707 H 0.05658 0.62321 0.86601 0.0
H708 H 0.15046 0.59476 -0.01547 0.0
H709 H 0.20254 0.63002 0.92885 0.0
C710 C 0.19042 0.66493 0.83019 0.0
C711 C 0.17927 0.68237 0.77961 0.0
C712 C 0.16016 0.64631 0.86399 0.0
C713 C 0.13766 0.67986 0.76296 0.0
C714 C 0.10771 0.66119 0.79591 0.0
C715 C 0.0882 0.62585 0.88027 0.0
C716 C 0.09936 0.60757 0.9302 0.0
C717 C 0.11839 0.6447 0.84682 0.0
C718 C 0.14088 0.60963 0.94699 0.0
C719 C 0.17081 0.62927 0.91474 0.0
H720 H 0.15801 0.4567 0.53022 0.0
H721 H 0.06203 0.36401 0.52512 0.0
H722 H 0.10666 0.31556 0.57522 0.0
H723 H 0.17245 0.3001 0.62295 0.0
H724 H 0.26848 0.39284 0.62625 0.0
H725 H 0.22427 0.44054 0.57477 0.0
C726 C 0.14678 0.4258 0.53962 0.0
C727 C 0.10642 0.41423 0.52361 0.0
C728 C 0.17262 0.39813 0.5687 0.0
C729 C 0.09282 0.3739 0.5364 0.0
C730 C 0.11834 0.3462 0.56542 0.0
C731 C 0.18374 0.33081 0.61265 0.0
C732 C 0.22388 0.34282 0.62919 0.0
C733 C 0.15817 0.35809 0.58231 0.0
C734 C 0.23788 0.38264 0.61456 0.0
C735 C 0.21254 0.40999 0.58495 0.0
loop_
_geom_bond_atom_site_label_1
_geom_bond_atom_site_label_2
_geom_bond_distance
_geom_bond_site_symmetry_2
_ccdc_geom_bond_type
C0 O2 1.247 . S
C0 O4 1.258 . S
C1 O8 1.247 . S
C1 O9 1.258 . S
O2 C0 1.247 . S
O2 Zn3 2.030 1_455 S
Zn3 O2 2.030 1_655 S
Zn3 O7 2.027 1_554 S
Zn3 O9 2.033 1_544 S
Zn3 O10 2.036 . S
O4 C0 1.258 . S
O4 Zn5 2.034 1_544 S
Zn5 O4 2.034 1_566 S
Zn5 O6 2.032 . S
Zn5 O8 2.029 1_455 S
Zn5 O11 2.031 1_556 S
O6 Zn5 2.032 . S
O6 C12 1.247 1_565 S
O7 Zn3 2.027 1_556 S
O7 C12 1.258 1_655 S
O8 C1 1.247 . S
O8 Zn5 2.029 1_655 S
O9 C1 1.258 . S
O9 Zn3 2.033 1_566 S
O10 Zn3 2.036 . S
O10 C13 1.247 1_545 S
O11 Zn5 2.031 1_554 S
O11 C13 1.258 1_455 S
C12 O6 1.247 1_545 S
C12 O7 1.258 1_455 S
C13 O10 1.247 1_565 S
C13 O11 1.258 1_655 S
C14 O16 1.247 . S
C14 O18 1.258 . S
C15 O22 1.247 . S
C15 O23 1.258 . S
O16 C14 1.247 . S
O16 Zn17 2.028 . S
Zn17 O16 2.028 . S
Zn17 O21 2.035 . S
Zn17 O23 2.035 . S
Zn17 O24 2.028 . S
O18 C14 1.258 . S
O18 Zn19 2.035 . S
Zn19 O18 2.035 . S
Zn19 O20 2.028 . S
Zn19 O22 2.028 . S
Zn19 O25 2.035 . S
O20 Zn19 2.028 . S
O20 C26 1.247 . S
O21 Zn17 2.035 . S
O21 C26 1.258 . S
O22 C15 1.247 . S
O22 Zn19 2.028 . S
O23 C15 1.258 . S
O23 Zn17 2.035 . S
O24 Zn17 2.028 . S
O24 C27 1.247 . S
O25 Zn19 2.035 . S
O25 C27 1.258 . S
C26 O20 1.247 . S
C26 O21 1.258 . S
C27 O24 1.247 . S
C27 O25 1.258 . S
C28 O30 1.247 . S
C28 O32 1.258 1_545 S
C29 O36 1.247 . S
C29 O37 1.258 1_565 S
O30 C28 1.247 . S
O30 Zn31 2.028 . S
Zn31 O30 2.028 . S
Zn31 O35 2.035 . S
Zn31 O37 2.035 . S
Zn31 O38 2.028 1_545 S
O32 C28 1.258 1_565 S
O32 Zn33 2.035 . S
Zn33 O32 2.035 . S
Zn33 O34 2.028 1_565 S
Zn33 O36 2.028 . S
Zn33 O39 2.035 . S
O34 Zn33 2.028 1_545 S
O34 C40 1.247 . S
O35 Zn31 2.035 . S
O35 C40 1.258 . S
O36 C29 1.247 . S
O36 Zn33 2.028 . S
O37 C29 1.258 1_545 S
O37 Zn31 2.035 . S
O38 Zn31 2.028 1_565 S
O38 C41 1.247 . S
O39 Zn33 2.035 . S
O39 C41 1.258 . S
C40 O34 1.247 . S
C40 O35 1.258 . S
C41 O38 1.247 . S
C41 O39 1.258 . S
C42 O44 1.247 . S
C42 O46 1.258 . S
C43 O50 1.247 . S
C43 O51 1.258 . S
O44 C42 1.247 . S
O44 Zn45 2.028 . S
Zn45 O44 2.028 . S
Zn45 O49 2.035 . S
Zn45 O51 2.035 . S
Zn45 O52 2.028 . S
O46 C42 1.258 . S
O46 Zn47 2.035 . S
Zn47 O46 2.035 . S
Zn47 O48 2.028 . S
Zn47 O50 2.028 . S
Zn47 O53 2.035 . S
O48 Zn47 2.028 . S
O48 C54 1.247 . S
O49 Zn45 2.035 . S
O49 C54 1.258 . S
O50 C43 1.247 . S
O50 Zn47 2.028 . S
O51 C43 1.258 . S
O51 Zn45 2.035 . S
O52 Zn45 2.028 . S
O52 C55 1.247 . S
O53 Zn47 2.035 . S
O53 C55 1.258 . S
C54 O48 1.247 . S
C54 O49 1.258 . S
C55 O52 1.247 . S
C55 O53 1.258 . S
C56 O58 1.247 . S
C56 O60 1.258 . S
C57 O64 1.247 . S
C57 O65 1.258 . S
O58 C56 1.247 . S
O58 Zn59 2.028 1_545 S
Zn59 O58 2.028 1_565 S
Zn59 O63 2.035 . S
Zn59 O65 2.035 1_655 S
Zn59 O66 2.028 . S
O60 C56 1.258 . S
O60 Zn61 2.035 1_655 S
Zn61 O60 2.035 1_455 S
Zn61 O62 2.028 . S
Zn61 O64 2.028 1_545 S
Zn61 O67 2.035 . S
O62 Zn61 2.028 . S
O62 C68 1.247 1_455 S
O63 Zn59 2.035 . S
O63 C68 1.258 1_565 S
O64 C57 1.247 . S
O64 Zn61 2.028 1_565 S
O65 C57 1.258 . S
O65 Zn59 2.035 1_455 S
O66 Zn59 2.028 . S
O66 C69 1.247 1_655 S
O67 Zn61 2.035 . S
O67 C69 1.258 1_545 S
C68 O62 1.247 1_655 S
C68 O63 1.258 1_545 S
C69 O66 1.247 1_455 S
C69 O67 1.258 1_565 S
C70 O72 1.247 . S
C70 O74 1.258 . S
C71 O78 1.247 . S
C71 O79 1.258 . S
O72 C70 1.247 . S
O72 Zn73 2.028 . S
Zn73 O72 2.028 . S
Zn73 O77 2.035 . S
Zn73 O79 2.035 . S
Zn73 O80 2.028 . S
O74 C70 1.258 . S
O74 Zn75 2.035 . S
Zn75 O74 2.035 . S
Zn75 O76 2.028 . S
Zn75 O78 2.028 . S
Zn75 O81 2.035 . S
O76 Zn75 2.028 . S
O76 C82 1.247 . S
O77 Zn73 2.035 . S
O77 C82 1.258 . S
O78 C71 1.247 . S
O78 Zn75 2.028 . S
O79 C71 1.258 . S
O79 Zn73 2.035 . S
O80 Zn73 2.028 . S
O80 C83 1.247 . S
O81 Zn75 2.035 . S
O81 C83 1.258 . S
C82 O76 1.247 . S
C82 O77 1.258 . S
C83 O80 1.247 . S
C83 O81 1.258 . S
C84 O86 1.247 . S
C84 O88 1.258 . S
C85 O92 1.247 . S
C85 O93 1.258 . S
O86 C84 1.247 . S
O86 Zn87 2.030 1_565 S
Zn87 O86 2.030 1_545 S
Zn87 O91 2.027 1_554 S
Zn87 O93 2.033 1_554 S
Zn87 O94 2.036 . S
O88 C84 1.258 . S
O88 Zn89 2.034 1_554 S
Zn89 O88 2.034 1_556 S
Zn89 O90 2.032 . S
Zn89 O92 2.029 1_565 S
Zn89 O95 2.031 1_556 S
O90 Zn89 2.032 . S
O90 C96 1.247 . S
O91 Zn87 2.027 1_556 S
O91 C96 1.258 1_545 S
O92 C85 1.247 . S
O92 Zn89 2.029 1_545 S
O93 C85 1.258 . S
O93 Zn87 2.033 1_556 S
O94 Zn87 2.036 . S
O94 C97 1.247 . S
O95 Zn89 2.031 1_554 S
O95 C97 1.258 1_565 S
C96 O90 1.247 . S
C96 O91 1.258 1_565 S
C97 O94 1.247 . S
C97 O95 1.258 1_545 S
C98 O100 1.247 . S
C98 O102 1.258 . S
C99 O106 1.247 . S
C99 O107 1.258 . S
O100 C98 1.247 . S
O100 Zn101 2.028 . S
Zn101 O100 2.028 . S
Zn101 O105 2.035 . S
Zn101 O107 2.035 . S
Zn101 O108 2.028 . S
O102 C98 1.258 . S
O102 Zn103 2.035 . S
Zn103 O102 2.035 . S
Zn103 O104 2.028 . S
Zn103 O106 2.028 . S
Zn103 O109 2.035 . S
O104 Zn103 2.028 . S
O104 C110 1.247 . S
O105 Zn101 2.035 . S
O105 C110 1.258 . S
O106 C99 1.247 . S
O106 Zn103 2.028 . S
O107 C99 1.258 . S
O107 Zn101 2.035 . S
O108 Zn101 2.028 . S
O108 C111 1.247 . S
O109 Zn103 2.035 . S
O109 C111 1.258 . S
C110 O104 1.247 . S
C110 O105 1.258 . S
C111 O108 1.247 . S
C111 O109 1.258 . S
C112 O114 1.247 . S
C112 O116 1.258 . S
C113 O120 1.247 . S
C113 O121 1.258 . S
O114 C112 1.247 . S
O114 Zn115 2.028 . S
Zn115 O114 2.028 . S
Zn115 O119 2.035 . S
Zn115 O121 2.035 . S
Zn115 O122 2.028 . S
O116 C112 1.258 . S
O116 Zn117 2.035 . S
Zn117 O116 2.035 . S
Zn117 O118 2.028 . S
Zn117 O120 2.028 . S
Zn117 O123 2.035 . S
O118 Zn117 2.028 . S
O118 C124 1.247 . S
O119 Zn115 2.035 . S
O119 C124 1.258 . S
O120 C113 1.247 . S
O120 Zn117 2.028 . S
O121 C113 1.258 . S
O121 Zn115 2.035 . S
O122 Zn115 2.028 . S
O122 C125 1.247 . S
O123 Zn117 2.035 . S
O123 C125 1.258 . S
C124 O118 1.247 . S
C124 O119 1.258 . S
C125 O122 1.247 . S
C125 O123 1.258 . S
C126 O128 1.247 . S
C126 O130 1.258 . S
C127 O134 1.247 . S
C127 O135 1.258 . S
O128 C126 1.247 . S
O128 Zn129 2.028 . S
Zn129 O128 2.028 . S
Zn129 O133 2.035 . S
Zn129 O135 2.035 . S
Zn129 O136 2.028 . S
O130 C126 1.258 . S
O130 Zn131 2.035 . S
Zn131 O130 2.035 . S
Zn131 O132 2.028 . S
Zn131 O134 2.028 . S
Zn131 O137 2.035 . S
O132 Zn131 2.028 . S
O132 C138 1.247 . S
O133 Zn129 2.035 . S
O133 C138 1.258 . S
O134 C127 1.247 . S
O134 Zn131 2.028 . S
O135 C127 1.258 . S
O135 Zn129 2.035 . S
O136 Zn129 2.028 . S
O136 C139 1.247 . S
O137 Zn131 2.035 . S
O137 C139 1.258 . S
C138 O132 1.247 . S
C138 O133 1.258 . S
C139 O136 1.247 . S
C139 O137 1.258 . S
C140 O142 1.247 . S
C140 O144 1.258 . S
C141 O148 1.247 . S
C141 O149 1.258 . S
O142 C140 1.247 . S
O142 Zn143 2.028 . S
Zn143 O142 2.028 . S
Zn143 O147 2.035 . S
Zn143 O149 2.035 . S
Zn143 O150 2.028 . S
O144 C140 1.258 . S
O144 Zn145 2.035 . S
Zn145 O144 2.035 . S
Zn145 O146 2.028 . S
Zn145 O148 2.028 . S
Zn145 O151 2.035 . S
O146 Zn145 2.028 . S
O146 C152 1.247 . S
O147 Zn143 2.035 . S
O147 C152 1.258 . S
O148 C141 1.247 . S
O148 Zn145 2.028 . S
O149 C141 1.258 . S
O149 Zn143 2.035 . S
O150 Zn143 2.028 . S
O150 C153 1.247 . S
O151 Zn145 2.035 . S
O151 C153 1.258 . S
C152 O146 1.247 . S
C152 O147 1.258 . S
C153 O150 1.247 . S
C153 O151 1.258 . S
C154 O156 1.247 . S
C154 O158 1.258 . S
C155 O162 1.247 . S
C155 O163 1.258 . S
O156 C154 1.247 . S
O156 Zn157 2.028 . S
Zn157 O156 2.028 . S
Zn157 O161 2.035 . S
Zn157 O163 2.035 . S
Zn157 O164 2.028 . S
O158 C154 1.258 . S
O158 Zn159 2.035 . S
Zn159 O158 2.035 . S
Zn159 O160 2.028 . S
Zn159 O162 2.028 . S
Zn159 O165 2.035 . S
O160 Zn159 2.028 . S
O160 C166 1.247 . S
O161 Zn157 2.035 . S
O161 C166 1.258 . S
O162 C155 1.247 . S
O162 Zn159 2.028 . S
O163 C155 1.258 . S
O163 Zn157 2.035 . S
O164 Zn157 2.028 . S
O164 C167 1.247 . S
O165 Zn159 2.035 . S
O165 C167 1.258 . S
C166 O160 1.247 . S
C166 O161 1.258 . S
C167 O164 1.247 . S
C167 O165 1.258 . S
C168 O170 1.247 . S
C168 O172 1.258 . S
C169 O176 1.247 . S
C169 O177 1.258 . S
O170 C168 1.247 . S
O170 Zn171 2.028 . S
Zn171 O170 2.028 . S
Zn171 O175 2.035 . S
Zn171 O177 2.035 . S
Zn171 O178 2.028 . S
O172 C168 1.258 . S
O172 Zn173 2.035 . S
Zn173 O172 2.035 . S
Zn173 O174 2.028 . S
Zn173 O176 2.028 . S
Zn173 O179 2.035 . S
O174 Zn173 2.028 . S
O174 C180 1.247 . S
O175 Zn171 2.035 . S
O175 C180 1.258 . S
O176 C169 1.247 . S
O176 Zn173 2.028 . S
O177 C169 1.258 . S
O177 Zn171 2.035 . S
O178 Zn171 2.028 . S
O178 C181 1.247 . S
O179 Zn173 2.035 . S
O179 C181 1.258 . S
C180 O174 1.247 . S
C180 O175 1.258 . S
C181 O178 1.247 . S
C181 O179 1.258 . S
C182 O184 1.247 1_455 S
C182 O186 1.258 . S
C183 O190 1.247 1_655 S
C183 O191 1.258 . S
O184 C182 1.247 1_655 S
O184 Zn185 2.036 . S
Zn185 O184 2.036 . S
Zn185 O189 2.033 1_654 S
Zn185 O191 2.027 1_554 S
Zn185 O192 2.030 . S
O186 C182 1.258 . S
O186 Zn187 2.031 1_554 S
Zn187 O186 2.031 1_556 S
Zn187 O188 2.029 . S
Zn187 O190 2.032 . S
Zn187 O193 2.034 1_456 S
O188 Zn187 2.029 . S
O188 C194 1.247 . S
O189 Zn185 2.033 1_456 S
O189 C194 1.258 . S
O190 C183 1.247 1_455 S
O190 Zn187 2.032 . S
O191 C183 1.258 . S
O191 Zn185 2.027 1_556 S
O192 Zn185 2.030 . S
O192 C195 1.247 . S
O193 Zn187 2.034 1_654 S
O193 C195 1.258 . S
C194 O188 1.247 . S
C194 O189 1.258 . S
C195 O192 1.247 . S
C195 O193 1.258 . S
C196 O198 1.247 . S
C196 O200 1.258 . S
C197 O204 1.247 . S
C197 O205 1.258 . S
O198 C196 1.247 . S
O198 Zn199 2.030 . S
Zn199 O198 2.030 . S
Zn199 O203 2.027 1_554 S
Zn199 O205 2.033 1_554 S
Zn199 O206 2.036 . S
O200 C196 1.258 . S
O200 Zn201 2.034 1_554 S
Zn201 O200 2.034 1_556 S
Zn201 O202 2.032 . S
Zn201 O204 2.029 . S
Zn201 O207 2.031 1_556 S
O202 Zn201 2.032 . S
O202 C208 1.247 . S
O203 Zn199 2.027 1_556 S
O203 C208 1.258 . S
O204 C197 1.247 . S
O204 Zn201 2.029 . S
O205 C197 1.258 . S
O205 Zn199 2.033 1_556 S
O206 Zn199 2.036 . S
O206 C209 1.247 . S
O207 Zn201 2.031 1_554 S
O207 C209 1.258 . S
C208 O202 1.247 . S
C208 O203 1.258 . S
C209 O206 1.247 . S
C209 O207 1.258 . S
C210 O212 1.247 . S
C210 O214 1.258 . S
C211 O218 1.247 . S
C211 O219 1.258 . S
O212 C210 1.247 . S
O212 Zn213 2.028 . S
Zn213 O212 2.028 . S
Zn213 O217 2.035 . S
Zn213 O219 2.035 1_455 S
Zn213 O220 2.028 . S
O214 C210 1.258 . S
O214 Zn215 2.035 1_455 S
Zn215 O214 2.035 1_655 S
Zn215 O216 2.028 . S
Zn215 O218 2.028 . S
Zn215 O221 2.035 . S
O216 Zn215 2.028 . S
O216 C222 1.247 1_655 S
O217 Zn213 2.035 . S
O217 C222 1.258 . S
O218 C211 1.247 . S
O218 Zn215 2.028 . S
O219 C211 1.258 . S
O219 Zn213 2.035 1_655 S
O220 Zn213 2.028 . S
O220 C223 1.247 1_455 S
O221 Zn215 2.035 . S
O221 C223 1.258 . S
C222 O216 1.247 1_455 S
C222 O217 1.258 . S
C223 O220 1.247 1_655 S
C223 O221 1.258 . S
H224 C230 0.930 . S
H225 C233 0.930 . S
H226 C234 0.930 . S
H227 C235 0.930 . S
H228 C238 0.930 . S
H229 C239 0.930 . S
C230 H224 0.930 . S
C230 C231 1.355 1_455 S
C230 C232 1.411 1_565 S
C231 C230 1.355 1_655 S
C231 C233 1.419 . S
C232 C230 1.411 1_545 S
C232 C237 1.424 1_445 S
C232 C239 1.414 . S
C233 H225 0.930 . S
C233 C231 1.419 . S
C233 C234 1.362 . S
C234 H226 0.930 . S
C234 C233 1.362 . S
C234 C237 1.413 . S
C235 H227 0.930 . S
C235 C236 1.355 . S
C235 C237 1.412 1_545 S
C236 C235 1.355 . S
C236 C238 1.419 1_655 S
C237 C232 1.424 1_665 S
C237 C234 1.413 . S
C237 C235 1.412 1_565 S
C238 H228 0.930 . S
C238 C236 1.419 1_455 S
C238 C239 1.362 . S
C239 H229 0.930 . S
C239 C232 1.414 . S
C239 C238 1.362 . S
H240 C246 0.930 . S
H241 C249 0.930 . S
H242 C250 0.930 . S
H243 C251 0.930 . S
H244 C254 0.930 . S
H245 C255 0.930 . S
C246 H240 0.930 . S
C246 C247 1.355 . S
C246 C248 1.415 . S
C247 C246 1.355 . S
C247 C249 1.419 . S
C248 C246 1.415 . S
C248 C253 1.425 . S
C248 C255 1.409 . S
C249 H241 0.930 . S
C249 C247 1.419 . S
C249 C250 1.362 . S
C250 H242 0.930 . S
C250 C249 1.362 . S
C250 C253 1.409 . S
C251 H243 0.930 . S
C251 C252 1.355 . S
C251 C253 1.415 . S
C252 C251 1.355 . S
C252 C254 1.419 . S
C253 C248 1.425 . S
C253 C250 1.409 . S
C253 C251 1.415 . S
C254 H244 0.930 . S
C254 C252 1.419 . S
C254 C255 1.362 . S
C255 H245 0.930 . S
C255 C248 1.409 . S
C255 C254 1.362 . S
H256 C262 0.929 . S
H257 C265 0.930 . S
H258 C266 0.930 . S
H259 C267 0.930 . S
H260 C270 0.930 . S
H261 C271 0.930 . S
C262 H256 0.929 . S
C262 C263 1.355 . S
C262 C264 1.415 1_565 S
C263 C262 1.355 . S
C263 C265 1.419 . S
C264 C262 1.415 1_545 S
C264 C269 1.425 1_545 S
C264 C271 1.409 . S
C265 H257 0.930 . S
C265 C263 1.419 . S
C265 C266 1.362 . S
C266 H258 0.930 . S
C266 C265 1.362 . S
C266 C269 1.409 . S
C267 H259 0.930 . S
C267 C268 1.355 . S
C267 C269 1.415 1_545 S
C268 C267 1.355 . S
C268 C270 1.419 . S
C269 C264 1.425 1_565 S
C269 C266 1.409 . S
C269 C267 1.415 1_565 S
C270 H260 0.930 . S
C270 C268 1.419 . S
C270 C271 1.362 . S
C271 H261 0.930 . S
C271 C264 1.409 . S
C271 C270 1.362 . S
H272 C278 0.930 . S
H273 C281 0.930 . S
H274 C282 0.930 . S
H275 C283 0.930 . S
H276 C286 0.930 . S
H277 C287 0.930 . S
C278 H272 0.930 . S
C278 C279 1.355 . S
C278 C280 1.415 . S
C279 C278 1.355 . S
C279 C281 1.419 . S
C280 C278 1.415 . S
C280 C285 1.425 1_556 S
C280 C287 1.409 1_556 S
C281 H273 0.930 . S
C281 C279 1.419 . S
C281 C282 1.362 . S
C282 H274 0.930 . S
C282 C281 1.362 . S
C282 C285 1.409 1_556 S
C283 H275 0.930 . S
C283 C284 1.355 . S
C283 C285 1.415 . S
C284 C283 1.355 . S
C284 C286 1.419 . S
C285 C280 1.425 1_554 S
C285 C282 1.409 1_554 S
C285 C283 1.415 . S
C286 H276 0.930 . S
C286 C284 1.419 . S
C286 C287 1.362 . S
C287 H277 0.930 . S
C287 C280 1.409 1_554 S
C287 C286 1.362 . S
H288 C294 0.930 . S
H289 C297 0.930 . S
H290 C298 0.930 . S
H291 C299 0.930 . S
H292 C302 0.930 . S
H293 C303 0.930 . S
C294 H288 0.930 . S
C294 C295 1.355 . S
C294 C296 1.415 . S
C295 C294 1.355 . S
C295 C297 1.419 1_465 S
C296 C294 1.415 . S
C296 C301 1.425 1_465 S
C296 C303 1.409 . S
C297 H289 0.930 . S
C297 C295 1.419 1_645 S
C297 C298 1.362 . S
C298 H290 0.930 . S
C298 C297 1.362 . S
C298 C301 1.409 . S
C299 H291 0.930 . S
C299 C300 1.355 1_655 S
C299 C301 1.415 . S
C300 C299 1.355 1_455 S
C300 C302 1.419 1_545 S
C301 C296 1.425 1_645 S
C301 C298 1.409 . S
C301 C299 1.415 . S
C302 H292 0.930 . S
C302 C300 1.419 1_565 S
C302 C303 1.362 . S
C303 H293 0.930 . S
C303 C296 1.409 . S
C303 C302 1.362 . S
H304 C310 0.930 . S
H305 C313 0.930 . S
H306 C314 0.930 . S
H307 C315 0.930 . S
H308 C318 0.930 . S
H309 C319 0.930 . S
C310 H304 0.930 . S
C310 C311 1.355 . S
C310 C312 1.415 . S
C311 C310 1.355 . S
C311 C313 1.419 . S
C312 C310 1.415 . S
C312 C317 1.425 . S
C312 C319 1.409 . S
C313 H305 0.930 . S
C313 C311 1.419 . S
C313 C314 1.362 . S
C314 H306 0.930 . S
C314 C313 1.362 . S
C314 C317 1.409 . S
C315 H307 0.930 . S
C315 C316 1.355 . S
C315 C317 1.415 . S
C316 C315 1.355 . S
C316 C318 1.419 . S
C317 C312 1.425 . S
C317 C314 1.409 . S
C317 C315 1.415 . S
C318 H308 0.930 . S
C318 C316 1.419 . S
C318 C319 1.362 . S
C319 H309 0.930 . S
C319 C312 1.409 . S
C319 C318 1.362 . S
H320 C326 0.930 . S
H321 C329 0.930 . S
H322 C330 0.930 . S
H323 C331 0.930 . S
H324 C334 0.930 . S
H325 C335 0.930 . S
C326 H320 0.930 . S
C326 C327 1.355 . S
C326 C328 1.415 . S
C327 C326 1.355 . S
C327 C329 1.419 1_545 S
C328 C326 1.415 . S
C328 C333 1.425 1_545 S
C328 C335 1.409 . S
C329 H321 0.930 . S
C329 C327 1.419 1_565 S
C329 C330 1.362 . S
C330 H322 0.930 . S
C330 C329 1.362 . S
C330 C333 1.409 . S
C331 H323 0.930 . S
C331 C332 1.355 . S
C331 C333 1.415 . S
C332 C331 1.355 . S
C332 C334 1.419 1_565 S
C333 C328 1.425 1_565 S
C333 C330 1.409 . S
C333 C331 1.415 . S
C334 H324 0.930 . S
C334 C332 1.419 1_545 S
C334 C335 1.362 . S
C335 H325 0.930 . S
C335 C328 1.409 . S
C335 C334 1.362 . S
H336 C342 0.930 . S
H337 C345 0.930 . S
H338 C346 0.930 . S
H339 C347 0.930 . S
H340 C350 0.930 . S
H341 C351 0.930 . S
C342 H336 0.930 . S
C342 C343 1.355 . S
C342 C344 1.415 . S
C343 C342 1.355 . S
C343 C345 1.419 . S
C344 C342 1.415 . S
C344 C349 1.425 1_554 S
C344 C351 1.409 1_554 S
C345 H337 0.930 . S
C345 C343 1.419 . S
C345 C346 1.362 . S
C346 H338 0.930 . S
C346 C345 1.362 . S
C346 C349 1.409 1_554 S
C347 H339 0.930 . S
C347 C348 1.355 . S
C347 C349 1.415 . S
C348 C347 1.355 . S
C348 C350 1.419 . S
C349 C344 1.425 1_556 S
C349 C346 1.409 1_556 S
C349 C347 1.415 . S
C350 H340 0.930 . S
C350 C348 1.419 . S
C350 C351 1.362 . S
C351 H341 0.930 . S
C351 C344 1.409 1_556 S
C351 C350 1.362 . S
H352 C358 0.930 . S
H353 C361 0.930 . S
H354 C362 0.930 . S
H355 C363 0.930 . S
H356 C366 0.930 . S
H357 C367 0.930 . S
C358 H352 0.930 . S
C358 C359 1.355 . S
C358 C360 1.415 . S
C359 C358 1.355 . S
C359 C361 1.419 . S
C360 C358 1.415 . S
C360 C365 1.425 . S
C360 C367 1.409 . S
C361 H353 0.930 . S
C361 C359 1.419 . S
C361 C362 1.362 . S
C362 H354 0.930 . S
C362 C361 1.362 . S
C362 C365 1.409 . S
C363 H355 0.930 . S
C363 C364 1.355 . S
C363 C365 1.415 . S
C364 C363 1.355 . S
C364 C366 1.419 . S
C365 C360 1.425 . S
C365 C362 1.409 . S
C365 C363 1.415 . S
C366 H356 0.930 . S
C366 C364 1.419 . S
C366 C367 1.362 . S
C367 H357 0.930 . S
C367 C360 1.409 . S
C367 C366 1.362 . S
H368 C374 0.930 . S
H369 C377 0.930 . S
H370 C378 0.930 . S
H371 C379 0.930 . S
H372 C382 0.930 . S
H373 C383 0.930 . S
C374 H368 0.930 . S
C374 C375 1.355 . S
C374 C376 1.415 . S
C375 C374 1.355 . S
C375 C377 1.419 . S
C376 C374 1.415 . S
C376 C381 1.425 1_556 S
C376 C383 1.409 1_556 S
C377 H369 0.930 . S
C377 C375 1.419 . S
C377 C378 1.362 . S
C378 H370 0.930 . S
C378 C377 1.362 . S
C378 C381 1.409 1_556 S
C379 H371 0.930 . S
C379 C380 1.355 . S
C379 C381 1.415 . S
C380 C379 1.355 . S
C380 C382 1.419 . S
C381 C376 1.425 1_554 S
C381 C378 1.409 1_554 S
C381 C379 1.415 . S
C382 H372 0.930 . S
C382 C380 1.419 . S
C382 C383 1.362 . S
C383 H373 0.930 . S
C383 C376 1.409 1_554 S
C383 C382 1.362 . S
H384 C390 0.930 . S
H385 C393 0.930 . S
H386 C394 0.930 . S
H387 C395 0.930 . S
H388 C398 0.930 . S
H389 C399 0.930 . S
C390 H384 0.930 . S
C390 C391 1.355 . S
C390 C392 1.415 . S
C391 C390 1.355 . S
C391 C393 1.419 1_455 S
C392 C390 1.415 . S
C392 C397 1.425 1_455 S
C392 C399 1.409 . S
C393 H385 0.930 . S
C393 C391 1.419 1_655 S
C393 C394 1.362 . S
C394 H386 0.930 . S
C394 C393 1.362 . S
C394 C397 1.409 . S
C395 H387 0.930 . S
C395 C396 1.355 1_655 S
C395 C397 1.415 . S
C396 C395 1.355 1_455 S
C396 C398 1.419 . S
C397 C392 1.425 1_655 S
C397 C394 1.409 . S
C397 C395 1.415 . S
C398 H388 0.930 . S
C398 C396 1.419 . S
C398 C399 1.362 . S
C399 H389 0.930 . S
C399 C392 1.409 . S
C399 C398 1.362 . S
H400 C406 0.930 . S
H401 C409 0.930 . S
H402 C410 0.930 . S
H403 C411 0.930 . S
H404 C414 0.930 . S
H405 C415 0.930 . S
C406 H400 0.930 . S
C406 C407 1.355 . S
C406 C408 1.415 . S
C407 C406 1.355 . S
C407 C409 1.419 . S
C408 C406 1.415 . S
C408 C413 1.425 . S
C408 C415 1.409 . S
C409 H401 0.930 . S
C409 C407 1.419 . S
C409 C410 1.362 . S
C410 H402 0.930 . S
C410 C409 1.362 . S
C410 C413 1.409 . S
C411 H403 0.930 . S
C411 C412 1.355 . S
C411 C413 1.415 . S
C412 C411 1.355 . S
C412 C414 1.419 . S
C413 C408 1.425 . S
C413 C410 1.409 . S
C413 C411 1.415 . S
C414 H404 0.930 . S
C414 C412 1.419 . S
C414 C415 1.362 . S
C415 H405 0.930 . S
C415 C408 1.409 . S
C415 C414 1.362 . S
H416 C422 0.930 . S
H417 C425 0.930 . S
H418 C426 0.930 . S
H419 C427 0.930 . S
H420 C430 0.930 . S
H421 C431 0.930 . S
C422 H416 0.930 . S
C422 C423 1.355 . S
C422 C424 1.415 . S
C423 C422 1.355 . S
C423 C425 1.419 . S
C424 C422 1.415 . S
C424 C429 1.425 . S
C424 C431 1.409 . S
C425 H417 0.930 . S
C425 C423 1.419 . S
C425 C426 1.362 . S
C426 H418 0.930 . S
C426 C425 1.362 . S
C426 C429 1.409 . S
C427 H419 0.930 . S
C427 C428 1.355 . S
C427 C429 1.415 . S
C428 C427 1.355 . S
C428 C430 1.419 . S
C429 C424 1.425 . S
C429 C426 1.409 . S
C429 C427 1.415 . S
C430 H420 0.930 . S
C430 C428 1.419 . S
C430 C431 1.362 . S
C431 H421 0.930 . S
C431 C424 1.409 . S
C431 C430 1.362 . S
H432 C438 0.930 . S
H433 C441 0.930 . S
H434 C442 0.930 . S
H435 C443 0.930 . S
H436 C446 0.930 . S
H437 C447 0.930 . S
C438 H432 0.930 . S
C438 C439 1.355 . S
C438 C440 1.415 . S
C439 C438 1.355 . S
C439 C441 1.419 . S
C440 C438 1.415 . S
C440 C445 1.425 1_554 S
C440 C447 1.409 1_554 S
C441 H433 0.930 . S
C441 C439 1.419 . S
C441 C442 1.362 . S
C442 H434 0.930 . S
C442 C441 1.362 . S
C442 C445 1.409 1_554 S
C443 H435 0.930 . S
C443 C444 1.355 . S
C443 C445 1.415 . S
C444 C443 1.355 . S
C444 C446 1.419 . S
C445 C440 1.425 1_556 S
C445 C442 1.409 1_556 S
C445 C443 1.415 . S
C446 H436 0.930 . S
C446 C444 1.419 . S
C446 C447 1.362 . S
C447 H437 0.930 . S
C447 C440 1.409 1_556 S
C447 C446 1.362 . S
H448 C454 0.930 . S
H449 C457 0.930 . S
H450 C458 0.930 . S
H451 C459 0.930 . S
H452 C462 0.930 . S
H453 C463 0.930 . S
C454 H448 0.930 . S
C454 C455 1.355 . S
C454 C456 1.415 . S
C455 C454 1.355 . S
C455 C457 1.419 1_655 S
C456 C454 1.415 . S
C456 C461 1.425 1_655 S
C456 C463 1.409 . S
C457 H449 0.930 . S
C457 C455 1.419 1_455 S
C457 C458 1.362 . S
C458 H450 0.930 . S
C458 C457 1.362 . S
C458 C461 1.409 . S
C459 H451 0.930 . S
C459 C460 1.355 1_455 S
C459 C461 1.415 . S
C460 C459 1.355 1_655 S
C460 C462 1.419 . S
C461 C456 1.425 1_455 S
C461 C458 1.409 . S
C461 C459 1.415 . S
C462 H452 0.930 . S
C462 C460 1.419 . S
C462 C463 1.362 . S
C463 H453 0.930 . S
C463 C456 1.409 . S
C463 C462 1.362 . S
H464 C470 0.930 . S
H465 C473 0.930 . S
H466 C474 0.930 . S
H467 C475 0.930 . S
H468 C478 0.930 . S
H469 C479 0.930 . S
C470 H464 0.930 . S
C470 C471 1.355 . S
C470 C472 1.415 . S
C471 C470 1.355 . S
C471 C473 1.419 . S
C472 C470 1.415 . S
C472 C477 1.425 . S
C472 C479 1.409 . S
C473 H465 0.930 . S
C473 C471 1.419 . S
C473 C474 1.362 . S
C474 H466 0.930 . S
C474 C473 1.362 . S
C474 C477 1.409 . S
C475 H467 0.930 . S
C475 C476 1.355 . S
C475 C477 1.415 . S
C476 C475 1.355 . S
C476 C478 1.419 . S
C477 C472 1.425 . S
C477 C474 1.409 . S
C477 C475 1.415 . S
C478 H468 0.930 . S
C478 C476 1.419 . S
C478 C479 1.362 . S
C479 H469 0.930 . S
C479 C472 1.409 . S
C479 C478 1.362 . S
H480 C486 0.930 . S
H481 C489 0.930 1_556 S
H482 C490 0.930 . S
H483 C491 0.930 . S
H484 C494 0.930 . S
H485 C495 0.930 . S
C486 H480 0.930 . S
C486 C487 1.355 . S
C486 C488 1.415 . S
C487 C486 1.355 . S
C487 C489 1.419 . S
C488 C486 1.415 . S
C488 C493 1.425 . S
C488 C495 1.409 . S
C489 H481 0.930 1_554 S
C489 C487 1.419 . S
C489 C490 1.362 . S
C490 H482 0.930 . S
C490 C489 1.362 . S
C490 C493 1.409 . S
C491 H483 0.930 . S
C491 C492 1.355 . S
C491 C493 1.415 . S
C492 C491 1.355 . S
C492 C494 1.419 . S
C493 C488 1.425 . S
C493 C490 1.409 . S
C493 C491 1.415 . S
C494 H484 0.930 . S
C494 C492 1.419 . S
C494 C495 1.362 . S
C495 H485 0.930 . S
C495 C488 1.409 . S
C495 C494 1.362 . S
H496 C502 0.930 . S
H497 C505 0.930 . S
H498 C506 0.930 . S
H499 C507 0.930 . S
H500 C510 0.930 . S
H501 C511 0.930 . S
C502 H496 0.930 . S
C502 C503 1.355 . S
C502 C504 1.415 . S
C503 C502 1.355 . S
C503 C505 1.419 . S
C504 C502 1.415 . S
C504 C509 1.425 . S
C504 C511 1.409 . S
C505 H497 0.930 . S
C505 C503 1.419 . S
C505 C506 1.362 . S
C506 H498 0.930 . S
C506 C505 1.362 . S
C506 C509 1.409 . S
C507 H499 0.930 . S
C507 C508 1.355 . S
C507 C509 1.415 . S
C508 C507 1.355 . S
C508 C510 1.419 . S
C509 C504 1.425 . S
C509 C506 1.409 . S
C509 C507 1.415 . S
C510 H500 0.930 . S
C510 C508 1.419 . S
C510 C511 1.362 . S
C511 H501 0.930 . S
C511 C504 1.409 . S
C511 C510 1.362 . S
H512 C518 0.930 . S
H513 C521 0.930 . S
H514 C522 0.930 . S
H515 C523 0.930 . S
H516 C526 0.930 . S
H517 C527 0.930 . S
C518 H512 0.930 . S
C518 C519 1.355 . S
C518 C520 1.415 . S
C519 C518 1.355 . S
C519 C521 1.419 . S
C520 C518 1.415 . S
C520 C525 1.425 . S
C520 C527 1.409 . S
C521 H513 0.930 . S
C521 C519 1.419 . S
C521 C522 1.362 . S
C522 H514 0.930 . S
C522 C521 1.362 . S
C522 C525 1.409 . S
C523 H515 0.930 . S
C523 C524 1.355 . S
C523 C525 1.415 . S
C524 C523 1.355 . S
C524 C526 1.419 . S
C525 C520 1.425 . S
C525 C522 1.409 . S
C525 C523 1.415 . S
C526 H516 0.930 . S
C526 C524 1.419 . S
C526 C527 1.362 . S
C527 H517 0.930 . S
C527 C520 1.409 . S
C527 C526 1.362 . S
H528 C534 0.930 . S
H529 C537 0.930 . S
H530 C538 0.930 . S
H531 C539 0.930 . S
H532 C542 0.930 . S
H533 C543 0.930 . S
C534 H528 0.930 . S
C534 C535 1.355 . S
C534 C536 1.415 . S
C535 C534 1.355 . S
C535 C537 1.419 . S
C536 C534 1.415 . S
C536 C541 1.425 . S
C536 C543 1.409 . S
C537 H529 0.930 . S
C537 C535 1.419 . S
C537 C538 1.362 . S
C538 H530 0.930 . S
C538 C537 1.362 . S
C538 C541 1.409 . S
C539 H531 0.930 . S
C539 C540 1.355 . S
C539 C541 1.415 . S
C540 C539 1.355 . S
C540 C542 1.419 . S
C541 C536 1.425 . S
C541 C538 1.409 . S
C541 C539 1.415 . S
C542 H532 0.930 . S
C542 C540 1.419 . S
C542 C543 1.362 . S
C543 H533 0.930 . S
C543 C536 1.409 . S
C543 C542 1.362 . S
H544 C550 0.930 . S
H545 C553 0.930 . S
H546 C554 0.930 . S
H547 C555 0.930 . S
H548 C558 0.930 . S
H549 C559 0.930 . S
C550 H544 0.930 . S
C550 C551 1.355 . S
C550 C552 1.415 . S
C551 C550 1.355 . S
C551 C553 1.419 . S
C552 C550 1.415 . S
C552 C557 1.425 . S
C552 C559 1.409 . S
C553 H545 0.930 . S
C553 C551 1.419 . S
C553 C554 1.362 . S
C554 H546 0.930 . S
C554 C553 1.362 . S
C554 C557 1.409 . S
C555 H547 0.930 . S
C555 C556 1.355 . S
C555 C557 1.415 . S
C556 C555 1.355 . S
C556 C558 1.419 . S
C557 C552 1.425 . S
C557 C554 1.409 . S
C557 C555 1.415 . S
C558 H548 0.930 . S
C558 C556 1.419 . S
C558 C559 1.362 . S
C559 H549 0.930 . S
C559 C552 1.409 . S
C559 C558 1.362 . S
H560 C566 0.930 . S
H561 C569 0.930 . S
H562 C570 0.930 . S
H563 C571 0.930 . S
H564 C574 0.930 . S
H565 C575 0.930 . S
C566 H560 0.930 . S
C566 C567 1.355 . S
C566 C568 1.415 . S
C567 C566 1.355 . S
C567 C569 1.419 . S
C568 C566 1.415 . S
C568 C573 1.425 . S
C568 C575 1.409 . S
C569 H561 0.930 . S
C569 C567 1.419 . S
C569 C570 1.362 . S
C570 H562 0.930 . S
C570 C569 1.362 . S
C570 C573 1.409 . S
C571 H563 0.930 . S
C571 C572 1.355 . S
C571 C573 1.415 . S
C572 C571 1.355 . S
C572 C574 1.419 . S
C573 C568 1.425 . S
C573 C570 1.409 . S
C573 C571 1.415 . S
C574 H564 0.930 . S
C574 C572 1.419 . S
C574 C575 1.362 . S
C575 H565 0.930 . S
C575 C568 1.409 . S
C575 C574 1.362 . S
H576 C582 0.930 . S
H577 C585 0.930 . S
H578 C586 0.930 . S
H579 C587 0.930 . S
H580 C590 0.930 . S
H581 C591 0.930 . S
C582 H576 0.930 . S
C582 C583 1.355 . S
C582 C584 1.415 . S
C583 C582 1.355 . S
C583 C585 1.419 . S
C584 C582 1.415 . S
C584 C589 1.425 . S
C584 C591 1.409 . S
C585 H577 0.930 . S
C585 C583 1.419 . S
C585 C586 1.362 . S
C586 H578 0.930 . S
C586 C585 1.362 . S
C586 C589 1.409 . S
C587 H579 0.930 . S
C587 C588 1.355 . S
C587 C589 1.415 . S
C588 C587 1.355 . S
C588 C590 1.419 . S
C589 C584 1.425 . S
C589 C586 1.409 . S
C589 C587 1.415 . S
C590 H580 0.930 . S
C590 C588 1.419 . S
C590 C591 1.362 . S
C591 H581 0.930 . S
C591 C584 1.409 . S
C591 C590 1.362 . S
H592 C598 0.930 . S
H593 C601 0.930 . S
H594 C602 0.930 . S
H595 C603 0.930 . S
H596 C606 0.930 . S
H597 C607 0.930 . S
C598 H592 0.930 . S
C598 C599 1.355 . S
C598 C600 1.415 . S
C599 C598 1.355 . S
C599 C601 1.419 . S
C600 C598 1.415 . S
C600 C605 1.425 . S
C600 C607 1.409 . S
C601 H593 0.930 . S
C601 C599 1.419 . S
C601 C602 1.362 . S
C602 H594 0.930 . S
C602 C601 1.362 . S
C602 C605 1.409 . S
C603 H595 0.930 . S
C603 C604 1.355 . S
C603 C605 1.415 . S
C604 C603 1.355 . S
C604 C606 1.419 . S
C605 C600 1.425 . S
C605 C602 1.409 . S
C605 C603 1.415 . S
C606 H596 0.930 . S
C606 C604 1.419 . S
C606 C607 1.362 . S
C607 H597 0.930 . S
C607 C600 1.409 . S
C607 C606 1.362 . S
H608 C614 0.930 . S
H609 C617 0.930 . S
H610 C618 0.930 . S
H611 C619 0.930 . S
H612 C622 0.930 . S
H613 C623 0.930 . S
C614 H608 0.930 . S
C614 C615 1.355 . S
C614 C616 1.415 . S
C615 C614 1.355 . S
C615 C617 1.419 . S
C616 C614 1.415 . S
C616 C621 1.425 . S
C616 C623 1.409 . S
C617 H609 0.930 . S
C617 C615 1.419 . S
C617 C618 1.362 . S
C618 H610 0.930 . S
C618 C617 1.362 . S
C618 C621 1.409 . S
C619 H611 0.930 . S
C619 C620 1.355 . S
C619 C621 1.415 . S
C620 C619 1.355 . S
C620 C622 1.419 . S
C621 C616 1.425 . S
C621 C618 1.409 . S
C621 C619 1.415 . S
C622 H612 0.930 . S
C622 C620 1.419 . S
C622 C623 1.362 . S
C623 H613 0.930 . S
C623 C616 1.409 . S
C623 C622 1.362 . S
H624 C630 0.930 . S
H625 C633 0.930 . S
H626 C634 0.930 . S
H627 C635 0.930 . S
H628 C638 0.930 . S
H629 C639 0.930 . S
C630 H624 0.930 . S
C630 C631 1.355 . S
C630 C632 1.415 . S
C631 C630 1.355 . S
C631 C633 1.419 . S
C632 C630 1.415 . S
C632 C637 1.425 . S
C632 C639 1.409 . S
C633 H625 0.930 . S
C633 C631 1.419 . S
C633 C634 1.362 . S
C634 H626 0.930 . S
C634 C633 1.362 . S
C634 C637 1.409 . S
C635 H627 0.930 . S
C635 C636 1.355 . S
C635 C637 1.415 . S
C636 C635 1.355 . S
C636 C638 1.419 . S
C637 C632 1.425 . S
C637 C634 1.409 . S
C637 C635 1.415 . S
C638 H628 0.930 . S
C638 C636 1.419 . S
C638 C639 1.362 . S
C639 H629 0.930 . S
C639 C632 1.409 . S
C639 C638 1.362 . S
H640 C646 0.930 . S
H641 C649 0.930 . S
H642 C650 0.930 . S
H643 C651 0.930 . S
H644 C654 0.930 1_556 S
H645 C655 0.930 . S
C646 H640 0.930 . S
C646 C647 1.355 . S
C646 C648 1.415 . S
C647 C646 1.355 . S
C647 C649 1.419 . S
C648 C646 1.415 . S
C648 C653 1.425 . S
C648 C655 1.409 . S
C649 H641 0.930 . S
C649 C647 1.419 . S
C649 C650 1.362 . S
C650 H642 0.930 . S
C650 C649 1.362 . S
C650 C653 1.409 . S
C651 H643 0.930 . S
C651 C652 1.355 . S
C651 C653 1.415 . S
C652 C651 1.355 . S
C652 C654 1.419 . S
C653 C648 1.425 . S
C653 C650 1.409 . S
C653 C651 1.415 . S
C654 H644 0.930 1_554 S
C654 C652 1.419 . S
C654 C655 1.362 . S
C655 H645 0.930 . S
C655 C648 1.409 . S
C655 C654 1.362 . S
H656 C662 0.930 . S
H657 C665 0.930 . S
H658 C666 0.930 . S
H659 C667 0.930 . S
H660 C670 0.930 . S
H661 C671 0.930 . S
C662 H656 0.930 . S
C662 C663 1.355 . S
C662 C664 1.415 . S
C663 C662 1.355 . S
C663 C665 1.419 . S
C664 C662 1.415 . S
C664 C669 1.425 . S
C664 C671 1.409 . S
C665 H657 0.930 . S
C665 C663 1.419 . S
C665 C666 1.362 . S
C666 H658 0.930 . S
C666 C665 1.362 . S
C666 C669 1.409 . S
C667 H659 0.930 . S
C667 C668 1.355 . S
C667 C669 1.415 . S
C668 C667 1.355 . S
C668 C670 1.419 . S
C669 C664 1.425 . S
C669 C666 1.409 . S
C669 C667 1.415 . S
C670 H660 0.930 . S
C670 C668 1.419 . S
C670 C671 1.362 . S
C671 H661 0.930 . S
C671 C664 1.409 . S
C671 C670 1.362 . S
H672 C678 0.930 . S
H673 C681 0.930 . S
H674 C682 0.930 . S
H675 C683 0.930 . S
H676 C686 0.930 . S
H677 C687 0.930 . S
C678 H672 0.930 . S
C678 C679 1.355 . S
C678 C680 1.415 . S
C679 C678 1.355 . S
C679 C681 1.419 . S
C680 C678 1.415 . S
C680 C685 1.425 . S
C680 C687 1.409 . S
C681 H673 0.930 . S
C681 C679 1.419 . S
C681 C682 1.362 . S
C682 H674 0.930 . S
C682 C681 1.362 . S
C682 C685 1.409 . S
C683 H675 0.930 . S
C683 C684 1.355 . S
C683 C685 1.415 . S
C684 C683 1.355 . S
C684 C686 1.419 . S
C685 C680 1.425 . S
C685 C682 1.409 . S
C685 C683 1.415 . S
C686 H676 0.930 . S
C686 C684 1.419 . S
C686 C687 1.362 . S
C687 H677 0.930 . S
C687 C680 1.409 . S
C687 C686 1.362 . S
H688 C694 0.930 . S
H689 C697 0.930 1_556 S
H690 C698 0.930 . S
H691 C699 0.930 . S
H692 C702 0.930 . S
H693 C703 0.930 . S
C694 H688 0.930 . S
C694 C695 1.355 . S
C694 C696 1.415 . S
C695 C694 1.355 . S
C695 C697 1.419 . S
C696 C694 1.415 . S
C696 C701 1.425 . S
C696 C703 1.409 . S
C697 H689 0.930 1_554 S
C697 C695 1.419 . S
C697 C698 1.362 . S
C698 H690 0.930 . S
C698 C697 1.362 . S
C698 C701 1.409 . S
C699 H691 0.930 . S
C699 C700 1.355 . S
C699 C701 1.415 . S
C700 C699 1.355 . S
C700 C702 1.419 . S
C701 C696 1.425 . S
C701 C698 1.409 . S
C701 C699 1.415 . S
C702 H692 0.930 . S
C702 C700 1.419 . S
C702 C703 1.362 . S
C703 H693 0.930 . S
C703 C696 1.409 . S
C703 C702 1.362 . S
H704 C710 0.930 . S
H705 C713 0.930 . S
H706 C714 0.930 . S
H707 C715 0.930 . S
H708 C718 0.930 . S
H709 C719 0.930 . S
C710 H704 0.930 . S
C710 C711 1.355 . S
C710 C712 1.415 . S
C711 C710 1.355 . S
C711 C713 1.419 . S
C712 C710 1.415 . S
C712 C717 1.425 . S
C712 C719 1.409 . S
C713 H705 0.930 . S
C713 C711 1.419 . S
C713 C714 1.362 . S
C714 H706 0.930 . S
C714 C713 1.362 . S
C714 C717 1.409 . S
C715 H707 0.930 . S
C715 C716 1.355 . S
C715 C717 1.415 . S
C716 C715 1.355 . S
C716 C718 1.419 . S
C717 C712 1.425 . S
C717 C714 1.409 . S
C717 C715 1.415 . S
C718 H708 0.930 . S
C718 C716 1.419 . S
C718 C719 1.362 . S
C719 H709 0.930 . S
C719 C712 1.409 . S
C719 C718 1.362 . S
H720 C726 0.930 . S
H721 C729 0.930 . S
H722 C730 0.930 . S
H723 C731 0.930 . S
H724 C734 0.930 . S
H725 C735 0.930 . S
C726 H720 0.930 . S
C726 C727 1.355 . S
C726 C728 1.415 . S
C727 C726 1.355 . S
C727 C729 1.419 . S
C728 C726 1.415 . S
C728 C733 1.425 . S
C728 C735 1.409 . S
C729 H721 0.930 . S
C729 C727 1.419 . S
C729 C730 1.362 . S
C730 H722 0.930 . S
C730 C729 1.362 . S
C730 C733 1.409 . S
C731 H723 0.930 . S
C731 C732 1.355 . S
C731 C733 1.415 . S
C732 C731 1.355 . S
C732 C734 1.419 . S
C733 C728 1.425 . S
C733 C730 1.409 . S
C733 C731 1.415 . S
C734 H724 0.930 . S
C734 C732 1.419 . S
C734 C735 1.362 . S
C735 H725 0.930 . S
C735 C728 1.409 . S
C735 C734 1.362 . S
C231 C13 0.951 . S
C236 C68 0.938 . S
C247 C27 0.923 . S
C252 C71 0.916 . S
C263 C96 0.953 . S
C268 C28 0.945 . S
C279 C55 0.927 . S
C284 C110 0.919 . S
C295 C69 0.924 . S
C300 C12 0.937 . S
C311 C140 0.926 . S
C316 C124 0.918 . S
C327 C97 0.915 . S
C332 C29 0.914 . S
C343 C138 0.956 . S
C348 C166 0.959 . S
C359 C180 0.916 . S
C364 C208 0.925 . S
C375 C125 0.921 . S
C380 C141 0.931 . S
C391 C182 0.915 . S
C396 C222 0.917 . S
C407 C167 0.959 . S
C412 C139 0.959 . S
C423 C209 0.918 . S
C428 C181 0.912 . S
C439 C26 0.914 . S
C444 C70 0.917 . S
C455 C183 0.924 . S
C460 C223 0.939 . S
C471 C111 0.920 . S
C476 C54 0.929 . S
C487 C0 1.587 . S
C492 C99 1.582 . S
C503 C57 1.561 . S
C508 C14 1.561 . S
C519 C82 1.589 . S
C524 C41 1.591 . S
C535 C42 1.567 . S
C540 C85 1.566 . S
C551 C1 1.574 . S
C556 C155 1.578 . S
C567 C113 1.559 . S
C572 C56 1.559 . S
C583 C153 1.584 . S
C588 C40 1.582 . S
C599 C127 1.571 . S
C604 C84 1.572 . S
C615 C169 1.578 . S
C620 C154 1.578 . S
C631 C197 1.573 . S
C636 C112 1.574 . S
C647 C152 1.589 . S
C652 C195 1.590 . S
C663 C211 1.583 . S
C668 C126 1.586 . S
C679 C98 1.589 . S
C684 C168 1.589 . S
C695 C196 1.583 . S
C700 C15 1.582 . S
C711 C83 1.589 . S
C716 C194 1.587 . S
C727 C210 1.585 . S
C732 C43 1.583 . S
