# Generated by pormake.
# Topology qtz-x, (6)-cn, num edge types: 1
# Building blocks:
#     Node 0, Type 0, BuildingBlock: KUMBUR_clean_sbu_0, # of connection points: 6
#     Node 1, Type 0, BuildingBlock: KUMBUR_clean_sbu_0, # of connection points: 6
#     Node 2, Type 0, BuildingBlock: KUMBUR_clean_sbu_0, # of connection points: 6
#     Edge 3, Type (0, 0), BuildingBlock: EZIPEK_clean_linker_0, # of connection points: 2
#     Edge 4, Type (0, 0), BuildingBlock: EZIPEK_clean_linker_0, # of connection points: 2
#     Edge 5, Type (0, 0), BuildingBlock: EZIPEK_clean_linker_0, # of connection points: 2
#     Edge 6, Type (0, 0), BuildingBlock: EZIPEK_clean_linker_0, # of connection points: 2
#     Edge 7, Type (0, 0), BuildingBlock: EZIPEK_clean_linker_0, # of connection points: 2
#     Edge 8, Type (0, 0), BuildingBlock: EZIPEK_clean_linker_0, # of connection points: 2
#     Edge 9, Type (0, 0), BuildingBlock: EZIPEK_clean_linker_0, # of connection points: 2
#     Edge 10, Type (0, 0), BuildingBlock: EZIPEK_clean_linker_0, # of connection points: 2
#     Edge 11, Type (0, 0), BuildingBlock: EZIPEK_clean_linker_0, # of connection points: 2
# Relax obj value: 0.162
# Max RMSD: 0.286
# Mean RMSD: 0.286
data_MOF--net-qtz-x--node1-KUMBUR_clean_sbu_0--edge1-EZIPEK_clean_linker_0
_symmetry_space_group_name_H-M    P1
_symmetry_Int_Tables_number       1
_symmetry_cell_setting            triclinic
loop_
_symmetry_equiv_pos_as_xyz
'x, y, z'
_cell_length_a     11.604756
_cell_length_b     11.650279
_cell_length_c     41.133218
_cell_angle_alpha  90.170336
_cell_angle_beta   90.256804
_cell_angle_gamma 119.92153
loop_
_atom_site_label
_atom_site_type_symbol
_atom_site_fract_x
_atom_site_fract_y
_atom_site_fract_z
_atom_type_partial_charge
Tb0 Tb 0.27178 0.49468 0.20218 0.0
C1 C 0.732 0.36404 0.14227 0.0
C2 C 0.57552 0.18837 0.17664 0.0
C3 C 0.50399 0.31624 0.14446 0.0
C4 C 0.7052 0.26698 0.16494 0.0
C5 C 0.63052 0.38704 0.13098 0.0
C6 C 0.47705 0.21703 0.16722 0.0
C7 C 0.78428 0.54097 0.09229 0.0
N8 N 0.85573 0.43057 0.12991 0.0
C9 C 0.88014 0.51153 0.10363 0.0
C10 C 0.65923 0.48013 0.10649 0.0
Tb11 Tb 0.00182 0.36679 0.14797 0.0
N12 N 0.80344 0.24228 0.17337 0.0
C13 C 0.77368 0.13063 0.19047 0.0
C14 C 0.54849 0.08309 0.19734 0.0
C15 C 0.64781 0.05259 0.20387 0.0
H16 H 0.97189 0.55085 0.09048 0.0
H17 H 0.62642 0.96658 0.21824 0.0
H18 H 0.38224 0.16562 0.17849 0.0
H19 H 0.80592 0.60795 0.07211 0.0
H20 H 0.84519 0.09845 0.19288 0.0
H21 H 0.66296 0.91048 0.13828 0.0
H22 H 0.45036 0.02169 0.20718 0.0
H23 H 0.29139 0.29232 0.25559 0.0
H24 H 0.44448 0.78082 0.16333 0.0
H25 H 0.45163 0.22317 0.27147 0.0
H26 H 0.42861 0.34092 0.13807 0.0
H27 H 0.83033 0.84035 0.14488 0.0
H28 H 0.89165 0.68733 0.17136 0.0
H29 H 0.58474 0.50247 0.09771 0.0
H30 H 0.83693 0.50223 0.20815 0.0
N31 N 0.47346 0.62176 0.1777 0.0
C32 C 0.5101 0.74107 0.16351 0.0
C33 C 0.73086 0.77884 0.15425 0.0
C34 C 0.69837 0.66641 0.17268 0.0
C35 C 0.6368 0.81832 0.15036 0.0
C36 C 0.56758 0.58884 0.18414 0.0
H37 H 0.67119 0.32555 0.24545 0.0
N38 N 0.41381 0.42341 0.21842 0.0
C39 C 0.4771 0.29778 0.25297 0.0
C40 C 0.53752 0.48798 0.20586 0.0
C41 C 0.38534 0.33524 0.24329 0.0
C42 C 0.60217 0.35809 0.23879 0.0
C43 C 0.63586 0.45886 0.21609 0.0
O44 O 0.27047 0.50849 0.25356 0.0
O45 O 0.05793 0.41717 0.19893 0.0
O46 O 0.02502 0.56299 0.16257 0.0
O47 O 0.23555 0.65939 0.18653 0.0
O48 O 0.12671 0.33886 0.23246 0.0
O49 O 0.37659 0.68172 0.22449 0.0
O50 O 0.0042 0.3514 0.09717 0.0
O51 O 0.2165 0.45029 0.15133 0.0
O52 O 0.2501 0.30004 0.18691 0.0
O53 O 0.04169 0.20206 0.16194 0.0
O54 O 0.14366 0.52453 0.1177 0.0
O55 O 0.89311 0.17743 0.1259 0.0
C56 C 0.02166 0.33947 0.22338 0.0
C57 C 0.47265 0.6789 0.27507 0.0
C58 C 0.57265 0.73056 0.32934 0.0
C59 C 0.45902 0.67688 0.30908 0.0
C60 C 0.69798 0.77409 0.31528 0.0
C61 C 0.59978 0.72751 0.26175 0.0
C62 C 0.71053 0.76949 0.28176 0.0
C63 C 0.13319 0.66917 0.17486 0.0
C64 C 0.35507 0.63431 0.25377 0.0
C65 C 0.76336 0.52987 0.20294 0.0
C66 C 0.79429 0.63351 0.18143 0.0
C67 C 0.25163 0.5328 0.12788 0.0
C68 C 0.80759 0.18821 0.07382 0.0
C69 C 0.83607 0.21548 0.04064 0.0
C70 C 0.74065 0.21436 0.01932 0.0
C71 C 0.61329 0.17725 0.03128 0.0
C72 C 0.67831 0.14549 0.08491 0.0
C73 C 0.58182 0.14051 0.06369 0.0
C74 C 0.14375 0.19359 0.17439 0.0
C75 C 0.91889 0.22572 0.09662 0.0
H76 H 0.36166 0.64131 0.31965 0.0
H77 H 0.78713 0.81564 0.3302 0.0
H78 H 0.61487 0.73639 0.23589 0.0
H79 H 0.80771 0.80536 0.27114 0.0
H80 H 0.93539 0.24674 0.03187 0.0
H81 H 0.53817 0.17706 0.01551 0.0
H82 H 0.65237 0.11862 0.11002 0.0
H83 H 0.48321 0.11083 0.07258 0.0
Tb84 Tb 0.61329 0.89178 0.53462 0.0
C85 C 0.9667 0.45724 0.49125 0.0
C86 C 0.90986 0.56536 0.53344 0.0
C87 C 0.11466 0.68757 0.50379 0.0
C88 C 0.8786 0.45304 0.51422 0.0
C89 C 0.08122 0.57772 0.48404 0.0
C90 C 0.03147 0.68095 0.52908 0.0
C91 C 0.12144 0.47006 0.4389 0.0
N92 N 0.93411 0.34649 0.47386 0.0
C93 C 0.00752 0.35187 0.44733 0.0
C94 C 0.15941 0.58359 0.45758 0.0
Tb95 Tb 0.73107 0.16838 0.48356 0.0
N96 N 0.75695 0.34389 0.51516 0.0
C97 C 0.65655 0.35005 0.53118 0.0
C98 C 0.81321 0.56249 0.55407 0.0
C99 C 0.68412 0.4562 0.5519 0.0
H100 H -0.025 0.26644 0.43176 0.0
H101 H 0.60522 0.4569 0.56568 0.0
H102 H 0.05817 0.76644 0.54416 0.0
H103 H 0.17913 0.47367 0.41793 0.0
H104 H 0.55507 0.27189 0.5295 0.0
H105 H 0.86152 0.65296 0.47482 0.0
H106 H 0.83393 0.64674 0.56933 0.0
H107 H 0.31751 0.73872 0.56813 0.0
H108 H 0.85208 0.80021 0.51396 0.0
H109 H 0.1237 0.51665 0.56668 0.0
H110 H 0.20807 0.77454 0.50056 0.0
H111 H 0.65466 0.47989 0.44832 0.0
H112 H 0.41017 0.34736 0.44964 0.0
H113 H 0.24856 0.6748 0.45135 0.0
H114 H 0.20711 0.3048 0.47809 0.0
N115 N 0.64512 0.73904 0.50519 0.0
C116 C 0.76132 0.73604 0.50122 0.0
C117 C 0.65179 0.54892 0.46513 0.0
C118 C 0.53123 0.53594 0.47405 0.0
C119 C 0.767 0.64526 0.48011 0.0
C120 C 0.53053 0.63368 0.49437 0.0
H121 H 0.11521 0.35184 0.52542 0.0
N122 N 0.41565 0.70245 0.52917 0.0
C123 C 0.20423 0.54111 0.55007 0.0
C124 C 0.41348 0.61127 0.50826 0.0
C125 C 0.31314 0.66853 0.55035 0.0
C126 C 0.19826 0.45 0.52707 0.0
C127 C 0.30119 0.48547 0.50544 0.0
O128 O 0.71303 0.93231 0.58031 0.0
O129 O 0.71992 0.10471 0.5339 0.0
O130 O 0.91742 0.16236 0.49544 0.0
O131 O 0.82842 0.9711 0.52683 0.0
O132 O 0.55998 0.01169 0.56368 0.0
O133 O 0.5633 0.73769 0.56851 0.0
O134 O 0.71321 0.15345 0.43248 0.0
O135 O 0.61966 0.95184 0.48414 0.0
O136 O 0.43377 0.91772 0.52622 0.0
O137 O 0.51826 0.10476 0.49332 0.0
O138 O 0.77864 0.04575 0.45382 0.0
O139 O 0.65782 0.27627 0.458 0.0
C140 C 0.66116 0.12526 0.55754 0.0
C141 C 0.57196 0.80225 0.62329 0.0
C142 C 0.53253 0.72779 0.67981 0.0
C143 C 0.59838 0.74301 0.64995 0.0
C144 C 0.44085 0.77212 0.68283 0.0
C145 C 0.47742 0.84332 0.62704 0.0
C146 C 0.41339 0.82922 0.65653 0.0
C147 C 0.93034 0.06933 0.51153 0.0
C148 C 0.63775 0.81453 0.59152 0.0
C149 C 0.29764 0.39539 0.48247 0.0
C150 C 0.41224 0.42154 0.46599 0.0
C151 C 0.68058 0.93156 0.46079 0.0
C152 C 0.75367 0.34344 0.40505 0.0
C153 C 0.74626 0.30687 0.37209 0.0
C154 C 0.84182 0.3938 0.34983 0.0
C155 C 0.93889 0.52088 0.36055 0.0
C156 C 0.84976 0.47182 0.41468 0.0
C157 C 0.94064 0.56039 0.39255 0.0
C158 C 0.41917 0.01085 0.51041 0.0
C159 C 0.67672 0.24054 0.42948 0.0
H160 H 0.66852 0.70779 0.64749 0.0
H161 H 0.38845 0.75977 0.70543 0.0
H162 H 0.44932 0.88402 0.60736 0.0
H163 H 0.34079 0.86123 0.65884 0.0
H164 H 0.67223 0.2081 0.36425 0.0
H165 H 0.01445 0.58961 0.34414 0.0
H166 H 0.85861 0.50236 0.4396 0.0
H167 H 0.01566 0.65834 0.40054 0.0
Tb168 Tb 0.63567 0.52965 0.86938 0.0
C169 C 0.75976 0.11979 0.80943 0.0
C170 C 0.94025 0.13779 0.84257 0.0
C171 C 0.80699 0.93947 0.81042 0.0
C172 C 0.86027 0.1893 0.83174 0.0
C173 C 0.73185 -0.00604 0.79843 0.0
C174 C 0.91196 0.01229 0.83205 0.0
C175 C 0.5685 -0.00761 0.76182 0.0
N176 N 0.69212 0.17737 0.79768 0.0
C177 C 0.60657 0.1208 0.77193 0.0
C178 C 0.62863 0.92701 0.77595 0.0
Tb179 Tb 0.75969 0.38625 0.81597 0.0
N180 N 0.88551 0.31121 0.84103 0.0
C181 C -0.00243 0.39078 0.85883 0.0
C182 C 0.04707 0.21438 0.86338 0.0
C183 C 0.0769 0.34234 0.8713 0.0
H184 H 0.56712 0.17389 0.75905 0.0
H185 H 0.16364 0.40536 0.88599 0.0
H186 H 0.96926 0.97053 0.8411 0.0
H187 H 0.49406 0.94493 0.74297 0.0
H188 H 0.03018 0.49354 0.86237 0.0
H189 H 0.21669 0.50044 0.80386 0.0
H190 H 0.10949 0.17754 0.87248 0.0
H191 H 0.83778 0.75115 0.92328 0.0
H192 H 0.34801 0.41344 0.82899 0.0
H193 H 0.90723 0.98016 0.93914 0.0
H194 H 0.78383 0.84097 0.80362 0.0
H195 H 0.28338 0.73524 0.81184 0.0
H196 H 0.43446 0.94984 0.8392 0.0
H197 H 0.59501 0.82578 0.76928 0.0
H198 H 0.62435 0.08274 0.87517 0.0
N199 N 0.50486 0.60089 0.84501 0.0
C200 C 0.38653 0.51807 0.82985 0.0
C201 C 0.3452 0.69833 0.82143 0.0
C202 C 0.45696 0.77849 0.84048 0.0
C203 C 0.30808 0.5663 0.81666 0.0
C204 C 0.53611 0.72674 0.85193 0.0
H205 H 0.80146 0.09517 0.91319 0.0
N206 N 0.70681 0.74214 0.88557 0.0
C207 C 0.8326 0.93098 0.92036 0.0
C208 C 0.63966 0.7993 0.87325 0.0
C209 C 0.79554 0.80223 0.91061 0.0
C210 C 0.77092 -0.00534 0.90609 0.0
C211 C 0.66903 0.92663 0.88332 0.0
O212 O 0.62837 0.51039 0.92048 0.0
O213 O 0.7095 0.39097 0.86665 0.0
O214 O 0.56206 0.21404 0.82938 0.0
O215 O 0.4681 0.32892 0.85346 0.0
O216 O 0.79495 0.54178 0.89916 0.0
O217 O 0.45206 0.45854 0.8928 0.0
O218 O 0.77904 0.42421 0.76574 0.0
O219 O 0.68134 0.52089 0.81885 0.0
O220 O 0.83055 0.70106 0.85379 0.0
O221 O 0.92691 0.58487 0.83207 0.0
O222 O 0.60194 0.37269 0.78532 0.0
O223 O 0.94577 0.45043 0.79399 0.0
C224 C 0.78957 0.43332 0.89091 0.0
C225 C 0.47332 0.55623 0.94484 0.0
C226 C 0.45356 0.60837 1.00131 0.0
C227 C 0.50463 0.55749 0.97796 0.0
C228 C 0.38935 0.67701 0.99045 0.0
C229 C 0.40808 0.6242 0.93466 0.0
C230 C 0.37111 0.6885 0.95736 0.0
C231 C 0.45611 0.21682 0.84125 0.0
C232 C 0.50487 0.47925 0.9217 0.0
C233 C 0.59604 -0.01851 0.87025 0.0
C234 C 0.48964 0.90709 0.84916 0.0
C235 C 0.59907 0.47553 0.79505 0.0
C236 C 0.91916 0.3622 0.74056 0.0
C237 C 0.86857 0.3528 0.709 0.0
C238 C 0.8707 0.26375 0.6864 0.0
C239 C 0.92845 0.18714 0.69518 0.0
C240 C -0.02208 0.28595 0.7489 0.0
C241 C -0.01757 0.19899 0.72623 0.0
C242 C 0.93709 0.69794 0.84257 0.0
C243 C 0.89867 0.44314 0.76485 0.0
H244 H 0.56343 0.51345 0.98554 0.0
H245 H 0.35082 0.7199 1.00766 0.0
H246 H 0.38446 0.62693 0.90931 0.0
H247 H 0.32323 0.74299 0.94936 0.0
H248 H 0.82487 0.41274 0.70215 0.0
H249 H 0.93375 0.12006 0.67776 0.0
H250 H 0.01867 0.29188 0.77297 0.0
H251 H 0.02805 0.14075 0.73277 0.0
C252 C 0.16084 0.88273 0.20398 0.0
C253 C 0.1429 0.80724 0.17486 0.0
C254 C 0.14587 -0.00531 0.14539 0.0
C255 C 0.13701 0.05651 0.17458 0.0
N256 N 0.11516 0.0372 0.2327 0.0
N257 N 0.11672 0.80166 0.11666 0.0
C258 C 0.13692 -0.00724 0.20408 0.0
C259 C 0.13067 0.8648 0.14544 0.0
N260 N 0.21152 0.85852 0.2313 0.0
N261 N 0.19258 0.06861 0.11822 0.0
H262 H 0.1345 0.72348 0.11457 0.0
H263 H 0.08675 0.82735 0.09526 0.0
H264 H 0.24633 0.16965 0.12092 0.0
H265 H 0.20893 0.03475 0.0962 0.0
H266 H 0.238 0.91845 0.252 0.0
H267 H 0.24541 0.79168 0.23178 0.0
H268 H 0.09912 -0.01375 0.25453 0.0
H269 H 0.10165 0.11849 0.23378 0.0
C270 C 0.22738 0.0237 0.54178 0.0
C271 C 0.28792 0.01754 0.51206 0.0
C272 C 0.12067 0.05414 0.48238 0.0
C273 C 0.06163 0.06456 0.51183 0.0
N274 N 0.0659 0.06166 0.57045 0.0
N275 N 0.23879 0.96051 0.45583 0.0
C276 C 0.11703 0.0492 0.54168 0.0
C277 C 0.22155 0.01754 0.48282 0.0
N278 N 0.26423 -0.01018 0.57007 0.0
N279 N 0.08189 0.0796 0.45325 0.0
H280 H 0.28212 0.90205 0.45797 0.0
H281 H 0.18599 0.94474 0.43416 0.0
H282 H 0.00715 0.10265 0.45097 0.0
H283 H 0.13402 0.09211 0.43175 0.0
H284 H 0.21539 0.97523 0.5921 0.0
H285 H 0.33547 0.96142 0.57111 0.0
H286 H 0.11314 0.07564 0.59285 0.0
H287 H -0.02091 0.0663 0.572 0.0
C288 C 0.13228 0.90044 0.87139 0.0
C289 C 0.07528 0.82648 0.84227 0.0
C290 C 0.26201 0.01223 0.8123 0.0
C291 C 0.31779 0.08756 0.84144 0.0
N292 N 0.27072 0.11172 0.89758 0.0
N293 N 0.11831 0.80138 0.78608 0.0
C294 C 0.24327 0.03371 0.87063 0.0
C295 C 0.14895 0.87989 0.81303 0.0
N296 N 0.08674 0.83949 0.90048 0.0
N297 N 0.31171 0.0706 0.78315 0.0
H298 H 0.04595 0.70243 0.78594 0.0
H299 H 0.17685 0.82777 0.76531 0.0
H300 H 0.39062 0.16629 0.78155 0.0
H301 H 0.26606 0.03107 0.76084 0.0
H302 H 0.13365 0.87957 0.92265 0.0
H303 H 0.01181 0.74156 0.90189 0.0
H304 H 0.21059 0.08306 0.9181 0.0
H305 H 0.3414 0.21123 0.89807 0.0
C306 C 0.38182 0.45671 0.05003 0.0
C307 C 0.45628 0.58566 0.03708 0.0
C308 C 0.42496 0.67931 0.08719 0.0
C309 C 0.34531 0.55048 0.10063 0.0
N310 N 0.21801 0.31743 0.0881 0.0
N311 N 0.59552 0.81636 0.04874 0.0
C312 C 0.31979 0.43937 0.08071 0.0
C313 C 0.49546 0.69515 0.05796 0.0
N314 N 0.36796 0.3487 0.03341 0.0
N315 N 0.41639 0.78453 0.09889 0.0
H316 H 0.64651 0.82966 0.02695 0.0
H317 H 0.63595 0.89784 0.06439 0.0
H318 H 0.35278 0.77668 0.11754 0.0
H319 H 0.46043 0.87605 0.0874 0.0
H320 H 0.33307 0.25658 0.04431 0.0
H321 H 0.40148 0.35078 0.01002 0.0
H322 H 0.17338 0.23956 0.0714 0.0
H323 H 0.17121 0.2959 0.11035 0.0
C324 C 0.86175 0.44509 0.29078 0.0
C325 C 0.84712 0.35513 0.31538 0.0
C326 C 0.89273 0.22972 0.27434 0.0
C327 C 0.93773 0.33694 0.2519 0.0
N328 N 0.01306 0.5715 0.24949 0.0
N329 N 0.87393 0.16975 0.33118 0.0
C330 C 0.93342 0.45112 0.2626 0.0
C331 C 0.86697 0.24769 0.30735 0.0
N332 N 0.81614 0.53159 0.29519 0.0
N333 N 0.88137 0.11256 0.26492 0.0
H334 H 0.86392 0.18293 0.35582 0.0
H335 H 0.90374 0.10027 0.32683 0.0
H336 H 0.90459 0.09568 0.24178 0.0
H337 H 0.83786 0.02923 0.27954 0.0
H338 H 0.82079 0.59536 0.27685 0.0
H339 H 0.76157 0.52833 0.31562 0.0
H340 H 0.01796 0.65752 0.25855 0.0
H341 H 0.08625 0.58605 0.23333 0.0
C342 C 0.69445 0.66078 0.75263 0.0
C343 C 0.58247 0.55185 0.76759 0.0
C344 C 0.44825 0.54018 0.71935 0.0
C345 C 0.55424 0.66174 0.70818 0.0
N346 N 0.77407 0.84758 0.71642 0.0
N347 N 0.35102 0.38136 0.76258 0.0
C348 C 0.67645 0.72397 0.7252 0.0
C349 C 0.45874 0.49035 0.75016 0.0
N350 N 0.82023 0.69963 0.76282 0.0
N351 N 0.34021 0.46864 0.69955 0.0
H352 H 0.25471 0.34351 0.75373 0.0
H353 H 0.35571 0.3328 0.78316 0.0
H354 H 0.33142 0.50063 0.67648 0.0
H355 H 0.26564 0.37215 0.70425 0.0
H356 H 0.90436 0.76446 0.74971 0.0
H357 H 0.84024 0.65975 0.78288 0.0
H358 H 0.85838 0.90432 0.73068 0.0
H359 H 0.76514 0.89843 0.69668 0.0
C360 C 0.67866 0.23572 0.93085 0.0
C361 C 0.79192 0.35506 0.92012 0.0
C362 C 0.87838 0.38433 0.97636 0.0
C363 C 0.77315 0.25686 0.98475 0.0
N364 N 0.60224 0.044 0.96516 0.0
N365 N 0.01595 0.52741 0.93372 0.0
C366 C 0.68522 0.17605 0.96011 0.0
C367 C 0.89825 0.42219 0.94304 0.0
N368 N 0.55824 0.1878 0.91644 0.0
N369 N 0.95203 0.4746 0.99998 0.0
H370 H 0.03387 0.56422 0.91027 0.0
H371 H 0.09893 0.57043 0.94893 0.0
H372 H 0.93489 0.45637 0.02475 0.0
H373 H 0.02039 0.57327 0.99494 0.0
H374 H 0.47248 0.10672 0.92547 0.0
H375 H 0.54258 0.23861 0.8983 0.0
H376 H 0.5408 -0.01909 0.94678 0.0
H377 H 0.60627 -0.00324 0.98631 0.0
C378 C 0.5187 0.83531 0.37673 0.0
C379 C 0.56589 0.75197 0.36496 0.0
C380 C 0.6854 0.7854 0.41586 0.0
C381 C 0.61933 0.84681 0.43077 0.0
N382 N 0.46248 0.9235 0.42272 0.0
N383 N 0.6608 0.61569 0.37828 0.0
C384 C 0.52914 0.86539 0.41063 0.0
C385 C 0.63495 0.71377 0.38657 0.0
N386 N 0.47772 0.89827 0.35551 0.0
N387 N 0.80707 0.81065 0.4265 0.0
H388 H 0.62287 0.55941 0.35707 0.0
H389 H 0.7078 0.58333 0.39436 0.0
H390 H 0.85485 0.87139 0.44638 0.0
H391 H 0.86345 0.77808 0.41389 0.0
H392 H 0.45894 0.97337 0.36252 0.0
H393 H 0.47715 0.88804 0.33037 0.0
H394 H 0.38737 0.92799 0.40983 0.0
H395 H 0.47895 0.96148 0.44602 0.0
C396 C 0.91286 0.2954 0.62685 0.0
C397 C 0.82158 0.25722 0.65265 0.0
C398 C 0.64353 0.20467 0.61314 0.0
C399 C 0.72735 0.20912 0.58749 0.0
N400 N 0.94785 0.27222 0.5706 0.0
N401 N 0.59517 0.16836 0.67062 0.0
C402 C 0.86407 0.26042 0.59455 0.0
C403 C 0.68556 0.21181 0.64598 0.0
N404 N 0.04647 0.36801 0.63321 0.0
N405 N 0.52357 0.19326 0.60596 0.0
H406 H 0.62122 0.16765 0.69487 0.0
H407 H 0.49293 0.12247 0.66665 0.0
H408 H 0.4943 0.19371 0.58203 0.0
H409 H 0.46187 0.19935 0.62337 0.0
H410 H 0.11889 0.40748 0.61531 0.0
H411 H 0.08509 0.39984 0.65655 0.0
H412 H 0.04028 0.28149 0.57528 0.0
H413 H 0.92438 0.277 0.54659 0.0
loop_
_geom_bond_atom_site_label_1
_geom_bond_atom_site_label_2
_geom_bond_distance
_geom_bond_site_symmetry_2
_ccdc_geom_bond_type
Tb0 N31 2.660 . S
Tb0 N38 2.600 . S
Tb0 O44 2.546 . S
Tb0 O45 2.610 1_455 S
Tb0 O47 2.320 . S
Tb0 O48 2.552 . S
Tb0 O49 2.413 . S
Tb0 O51 2.362 . S
Tb0 O52 2.421 . S
Tb0 C64 2.833 . S
C1 C4 1.432 . S
C1 C5 1.414 . S
C1 N8 1.359 . S
C2 C4 1.417 . S
C2 C6 1.432 . S
C2 C14 1.410 1_545 S
C3 C5 1.444 . S
C3 C6 1.317 . S
C3 H26 0.929 . S
C4 C1 1.432 . S
C4 C2 1.417 . S
C4 N12 1.360 . S
C5 C1 1.414 . S
C5 C3 1.444 . S
C5 C10 1.385 . S
C6 C2 1.432 . S
C6 C3 1.317 . S
C6 H18 0.930 . S
C7 C9 1.392 . S
C7 C10 1.370 . S
C7 H19 0.931 . S
N8 C1 1.359 . S
N8 C9 1.327 . S
N8 Tb11 2.600 . S
C9 C7 1.392 . S
C9 N8 1.327 . S
C9 H16 0.930 . S
C10 C5 1.385 . S
C10 C7 1.370 . S
C10 H29 0.930 . S
Tb11 N8 2.600 . S
Tb11 N12 2.660 . S
Tb11 O45 2.362 . S
Tb11 O46 2.421 . S
Tb11 O50 2.546 . S
Tb11 O51 2.610 1_655 S
Tb11 O53 2.320 . S
Tb11 O54 2.552 . S
Tb11 O55 2.413 . S
Tb11 C75 2.833 . S
N12 C4 1.360 . S
N12 Tb11 2.660 . S
N12 C13 1.305 . S
C13 N12 1.305 . S
C13 C15 1.407 1_545 S
C13 H20 0.930 . S
C14 C2 1.410 1_565 S
C14 C15 1.345 . S
C14 H22 0.930 . S
C15 C13 1.407 1_565 S
C15 C14 1.345 . S
C15 H17 0.930 . S
H16 C9 0.930 . S
H17 C15 0.930 . S
H18 C6 0.930 . S
H19 C7 0.931 . S
H20 C13 0.930 . S
H21 C35 0.930 . S
H22 C14 0.930 . S
H23 C41 0.930 . S
H24 C32 0.930 . S
H25 C39 0.931 . S
H26 C3 0.929 . S
H27 C33 0.930 . S
H28 C66 0.930 . S
H29 C10 0.930 . S
H30 C65 0.929 . S
N31 Tb0 2.660 . S
N31 C32 1.305 . S
N31 C36 1.360 . S
C32 H24 0.930 . S
C32 N31 1.305 . S
C32 C35 1.407 . S
C33 H27 0.930 . S
C33 C34 1.410 . S
C33 C35 1.345 . S
C34 C33 1.410 . S
C34 C36 1.417 . S
C34 C66 1.432 . S
C35 H21 0.930 . S
C35 C32 1.407 . S
C35 C33 1.345 . S
C36 N31 1.360 . S
C36 C34 1.417 . S
C36 C40 1.432 . S
H37 C42 0.930 . S
N38 Tb0 2.600 . S
N38 C40 1.359 . S
N38 C41 1.327 . S
C39 H25 0.931 . S
C39 C41 1.392 . S
C39 C42 1.370 . S
C40 C36 1.432 . S
C40 N38 1.359 . S
C40 C43 1.414 . S
C41 H23 0.930 . S
C41 N38 1.327 . S
C41 C39 1.392 . S
C42 H37 0.930 . S
C42 C39 1.370 . S
C42 C43 1.385 . S
C43 C40 1.414 . S
C43 C42 1.385 . S
C43 C65 1.444 . S
O44 Tb0 2.546 . S
O44 C64 1.251 . S
O45 Tb0 2.610 1_655 S
O45 Tb11 2.362 . S
O45 C56 1.283 . S
O46 Tb11 2.421 . S
O46 C63 1.262 1_655 S
O47 Tb0 2.320 . S
O47 C63 1.260 . S
O48 Tb0 2.552 . S
O48 C56 1.243 1_455 S
O49 Tb0 2.413 . S
O49 C64 1.256 . S
O50 Tb11 2.546 . S
O50 C75 1.251 . S
O51 Tb0 2.362 . S
O51 Tb11 2.610 1_455 S
O51 C67 1.283 . S
O52 Tb0 2.421 . S
O52 C74 1.262 1_455 S
O53 Tb11 2.320 . S
O53 C74 1.260 . S
O54 Tb11 2.552 . S
O54 C67 1.243 1_655 S
O55 Tb11 2.413 . S
O55 C75 1.256 . S
C56 O45 1.283 . S
C56 O48 1.243 1_655 S
C57 C59 1.382 . S
C57 C61 1.393 . S
C57 C64 1.500 . S
C58 C59 1.400 . S
C58 C60 1.384 . S
C59 C57 1.382 . S
C59 C58 1.400 . S
C59 H76 0.930 . S
C60 C58 1.384 . S
C60 C62 1.392 . S
C60 H77 0.931 . S
C61 C57 1.393 . S
C61 C62 1.401 . S
C61 H78 0.930 . S
C62 C60 1.392 . S
C62 C61 1.401 . S
C62 H79 0.930 . S
C63 O46 1.262 1_455 S
C63 O47 1.260 . S
C64 Tb0 2.833 . S
C64 O44 1.251 . S
C64 O49 1.256 . S
C64 C57 1.500 . S
C65 H30 0.929 . S
C65 C43 1.444 . S
C65 C66 1.317 . S
C66 H28 0.930 . S
C66 C34 1.432 . S
C66 C65 1.317 . S
C67 O51 1.283 . S
C67 O54 1.243 1_455 S
C68 C69 1.382 . S
C68 C72 1.393 . S
C68 C75 1.500 . S
C69 C68 1.382 . S
C69 C70 1.400 . S
C69 H80 0.930 . S
C70 C69 1.400 . S
C70 C71 1.384 1_554 S
C71 C70 1.384 1_556 S
C71 C73 1.392 1_556 S
C71 H81 0.931 . S
C72 C68 1.393 . S
C72 C73 1.401 . S
C72 H82 0.930 . S
C73 C71 1.392 1_554 S
C73 C72 1.401 . S
C73 H83 0.924 1_554 S
C74 O52 1.262 1_655 S
C74 O53 1.260 . S
C75 Tb11 2.833 . S
C75 O50 1.251 . S
C75 O55 1.256 . S
C75 C68 1.500 . S
H76 C59 0.930 . S
H77 C60 0.931 . S
H78 C61 0.930 . S
H79 C62 0.930 . S
H80 C69 0.930 . S
H81 C71 0.931 . S
H82 C72 0.930 . S
H83 C73 0.924 1_556 S
Tb84 N115 2.660 1_545 S
Tb84 N122 2.600 1_545 S
Tb84 O128 2.546 1_545 S
Tb84 O129 2.610 . S
Tb84 O131 2.320 . S
Tb84 O132 2.552 . S
Tb84 O133 2.413 1_545 S
Tb84 O135 2.362 . S
Tb84 O136 2.421 . S
Tb84 C148 2.833 1_545 S
C85 C88 1.432 . S
C85 C89 1.414 . S
C85 N92 1.359 . S
C86 C88 1.417 . S
C86 C90 1.432 . S
C86 C98 1.410 1_455 S
C87 C89 1.444 . S
C87 C90 1.317 . S
C87 H110 0.929 . S
C88 C85 1.432 . S
C88 C86 1.417 . S
C88 N96 1.360 1_455 S
C89 C85 1.414 . S
C89 C87 1.444 . S
C89 C94 1.385 . S
C90 C86 1.432 . S
C90 C87 1.317 . S
C90 H102 0.930 . S
C91 C93 1.392 . S
C91 C94 1.370 . S
C91 H103 0.931 . S
N92 C85 1.359 . S
N92 C93 1.327 . S
N92 Tb95 2.600 1_455 S
C93 C91 1.392 . S
C93 N92 1.327 . S
C93 H100 0.930 . S
C94 C89 1.385 . S
C94 C91 1.370 . S
C94 H113 0.930 . S
Tb95 N92 2.600 1_655 S
Tb95 N96 2.660 . S
Tb95 O129 2.362 . S
Tb95 O130 2.421 1_655 S
Tb95 O134 2.546 1_655 S
Tb95 O135 2.610 . S
Tb95 O137 2.320 . S
Tb95 O138 2.552 . S
Tb95 O139 2.413 . S
Tb95 C159 2.833 . S
N96 C88 1.360 1_655 S
N96 Tb95 2.660 . S
N96 C97 1.305 . S
C97 N96 1.305 . S
C97 C99 1.407 . S
C97 H104 0.930 . S
C98 C86 1.410 1_655 S
C98 C99 1.345 . S
C98 H106 0.930 . S
C99 C97 1.407 . S
C99 C98 1.345 . S
C99 H101 0.930 . S
H100 C93 0.930 . S
H101 C99 0.930 . S
H102 C90 0.930 . S
H103 C91 0.931 . S
H104 C97 0.930 . S
H105 C119 0.930 . S
H106 C98 0.930 . S
H107 C125 0.930 . S
H108 C116 0.930 . S
H109 C123 0.931 . S
H110 C87 0.929 . S
H111 C117 0.930 . S
H112 C150 0.930 . S
H113 C94 0.930 . S
H114 C149 0.929 . S
N115 Tb84 2.660 1_565 S
N115 C116 1.305 . S
N115 C120 1.360 . S
C116 H108 0.930 . S
C116 N115 1.305 . S
C116 C119 1.407 . S
C117 H111 0.930 . S
C117 C118 1.410 . S
C117 C119 1.345 . S
C118 C117 1.410 . S
C118 C120 1.417 . S
C118 C150 1.432 . S
C119 H105 0.930 . S
C119 C116 1.407 . S
C119 C117 1.345 . S
C120 N115 1.360 . S
C120 C118 1.417 . S
C120 C124 1.432 . S
H121 C126 0.930 . S
N122 Tb84 2.600 1_565 S
N122 C124 1.359 . S
N122 C125 1.327 . S
C123 H109 0.931 . S
C123 C125 1.392 . S
C123 C126 1.370 . S
C124 C120 1.432 . S
C124 N122 1.359 . S
C124 C127 1.414 . S
C125 H107 0.930 . S
C125 N122 1.327 . S
C125 C123 1.392 . S
C126 H121 0.930 . S
C126 C123 1.370 . S
C126 C127 1.385 . S
C127 C124 1.414 . S
C127 C126 1.385 . S
C127 C149 1.444 . S
O128 Tb84 2.546 1_565 S
O128 C148 1.251 . S
O129 Tb84 2.610 . S
O129 Tb95 2.362 . S
O129 C140 1.283 . S
O130 Tb95 2.421 1_455 S
O130 C147 1.262 . S
O131 Tb84 2.320 . S
O131 C147 1.260 1_655 S
O132 Tb84 2.552 . S
O132 C140 1.243 . S
O133 Tb84 2.413 1_565 S
O133 C148 1.256 . S
O134 Tb95 2.546 1_455 S
O134 C159 1.251 1_455 S
O135 Tb84 2.362 . S
O135 Tb95 2.610 . S
O135 C151 1.283 . S
O136 Tb84 2.421 . S
O136 C158 1.262 . S
O137 Tb95 2.320 . S
O137 C158 1.260 . S
O138 Tb95 2.552 . S
O138 C151 1.243 . S
O139 Tb95 2.413 . S
O139 C159 1.256 . S
C140 O129 1.283 . S
C140 O132 1.243 . S
C141 C143 1.382 . S
C141 C145 1.393 . S
C141 C148 1.500 . S
C142 C143 1.400 . S
C142 C144 1.384 . S
C143 C141 1.382 . S
C143 C142 1.400 . S
C143 H160 0.930 . S
C144 C142 1.384 . S
C144 C146 1.392 . S
C144 H161 0.931 . S
C145 C141 1.393 . S
C145 C146 1.401 . S
C145 H162 0.930 . S
C146 C144 1.392 . S
C146 C145 1.401 . S
C146 H163 0.930 . S
C147 O130 1.262 . S
C147 O131 1.260 1_455 S
C148 Tb84 2.833 1_565 S
C148 O128 1.251 . S
C148 O133 1.256 . S
C148 C141 1.500 . S
C149 H114 0.929 . S
C149 C127 1.444 . S
C149 C150 1.317 . S
C150 H112 0.930 . S
C150 C118 1.432 . S
C150 C149 1.317 . S
C151 O135 1.283 . S
C151 O138 1.243 . S
C152 C153 1.382 . S
C152 C156 1.393 1_655 S
C152 C159 1.500 . S
C153 C152 1.382 . S
C153 C154 1.400 . S
C153 H164 0.930 . S
C154 C153 1.400 . S
C154 C155 1.384 1_655 S
C155 C154 1.384 1_455 S
C155 C157 1.392 . S
C155 H165 0.931 . S
C156 C152 1.393 1_455 S
C156 C157 1.401 . S
C156 H166 0.930 . S
C157 C155 1.392 . S
C157 C156 1.401 . S
C157 H167 0.930 . S
C158 O136 1.262 . S
C158 O137 1.260 . S
C159 Tb95 2.833 . S
C159 O134 1.251 1_655 S
C159 O139 1.256 . S
C159 C152 1.500 . S
H160 C143 0.930 . S
H161 C144 0.931 . S
H162 C145 0.930 . S
H163 C146 0.930 . S
H164 C153 0.930 . S
H165 C155 0.931 . S
H166 C156 0.930 . S
H167 C157 0.930 . S
Tb168 N199 2.660 . S
Tb168 N206 2.600 . S
Tb168 O212 2.546 . S
Tb168 O213 2.610 . S
Tb168 O215 2.320 . S
Tb168 O216 2.552 . S
Tb168 O217 2.413 . S
Tb168 O219 2.362 . S
Tb168 O220 2.421 . S
Tb168 C232 2.833 . S
C169 C172 1.432 1_655 S
C169 C173 1.414 1_545 S
C169 N176 1.359 . S
C170 C172 1.417 . S
C170 C174 1.432 1_545 S
C170 C182 1.410 . S
C171 C173 1.444 . S
C171 C174 1.317 1_655 S
C171 H194 0.929 . S
C172 C169 1.432 1_455 S
C172 C170 1.417 . S
C172 N180 1.360 . S
C173 C169 1.414 1_565 S
C173 C171 1.444 . S
C173 C178 1.385 . S
C174 C170 1.432 1_565 S
C174 C171 1.317 1_455 S
C174 H186 0.930 . S
C175 C177 1.392 . S
C175 C178 1.370 . S
C175 H187 0.931 . S
N176 C169 1.359 . S
N176 C177 1.327 1_545 S
N176 Tb179 2.600 . S
C177 C175 1.392 . S
C177 N176 1.327 1_565 S
C177 H184 0.930 . S
C178 C173 1.385 . S
C178 C175 1.370 . S
C178 H197 0.930 . S
Tb179 N176 2.600 . S
Tb179 N180 2.660 1_655 S
Tb179 O213 2.362 . S
Tb179 O214 2.421 . S
Tb179 O218 2.546 . S
Tb179 O219 2.610 . S
Tb179 O221 2.320 1_655 S
Tb179 O222 2.552 . S
Tb179 O223 2.413 1_655 S
Tb179 C243 2.833 . S
N180 C172 1.360 . S
N180 Tb179 2.660 1_455 S
N180 C181 1.305 . S
C181 N180 1.305 . S
C181 C183 1.407 . S
C181 H188 0.930 . S
C182 C170 1.410 . S
C182 C183 1.345 . S
C182 H190 0.930 . S
C183 C181 1.407 . S
C183 C182 1.345 . S
C183 H185 0.930 . S
H184 C177 0.930 . S
H185 C183 0.930 . S
H186 C174 0.930 . S
H187 C175 0.931 . S
H188 C181 0.930 . S
H189 C203 0.930 . S
H190 C182 0.930 . S
H191 C209 0.930 . S
H192 C200 0.930 . S
H193 C207 0.928 1_545 S
H194 C171 0.929 . S
H195 C201 0.930 . S
H196 C234 0.930 . S
H197 C178 0.930 . S
H198 C233 0.929 1_545 S
N199 Tb168 2.660 . S
N199 C200 1.305 . S
N199 C204 1.360 . S
C200 H192 0.930 . S
C200 N199 1.305 . S
C200 C203 1.407 . S
C201 H195 0.930 . S
C201 C202 1.410 . S
C201 C203 1.345 . S
C202 C201 1.410 . S
C202 C204 1.417 . S
C202 C234 1.432 . S
C203 H189 0.930 . S
C203 C200 1.407 . S
C203 C201 1.345 . S
C204 N199 1.360 . S
C204 C202 1.417 . S
C204 C208 1.432 . S
H205 C210 0.930 . S
N206 Tb168 2.600 . S
N206 C208 1.359 . S
N206 C209 1.327 . S
C207 H193 0.928 1_565 S
C207 C209 1.399 . S
C207 C210 1.366 1_565 S
C208 C204 1.432 . S
C208 N206 1.359 . S
C208 C211 1.414 . S
C209 H191 0.930 . S
C209 N206 1.327 . S
C209 C207 1.399 . S
C210 H205 0.930 . S
C210 C207 1.366 1_545 S
C210 C211 1.385 1_545 S
C211 C208 1.414 . S
C211 C210 1.385 1_565 S
C211 C233 1.444 . S
O212 Tb168 2.546 . S
O212 C232 1.251 . S
O213 Tb168 2.610 . S
O213 Tb179 2.362 . S
O213 C224 1.283 . S
O214 Tb179 2.421 . S
O214 C231 1.262 . S
O215 Tb168 2.320 . S
O215 C231 1.260 . S
O216 Tb168 2.552 . S
O216 C224 1.243 . S
O217 Tb168 2.413 . S
O217 C232 1.256 . S
O218 Tb179 2.546 . S
O218 C243 1.251 . S
O219 Tb168 2.362 . S
O219 Tb179 2.610 . S
O219 C235 1.283 . S
O220 Tb168 2.421 . S
O220 C242 1.262 1_655 S
O221 Tb179 2.320 1_455 S
O221 C242 1.260 . S
O222 Tb179 2.552 . S
O222 C235 1.243 . S
O223 Tb179 2.413 1_455 S
O223 C243 1.256 1_455 S
C224 O213 1.283 . S
C224 O216 1.243 . S
C225 C227 1.382 . S
C225 C229 1.393 . S
C225 C232 1.500 . S
C226 C227 1.400 . S
C226 C228 1.384 1_556 S
C227 C225 1.382 . S
C227 C226 1.400 . S
C227 H244 0.930 . S
C228 C226 1.384 1_554 S
C228 C230 1.392 1_554 S
C228 H245 0.931 . S
C229 C225 1.393 . S
C229 C230 1.401 . S
C229 H246 0.930 . S
C230 C228 1.392 1_556 S
C230 C229 1.401 . S
C230 H247 0.924 1_556 S
C231 O214 1.262 . S
C231 O215 1.260 . S
C232 Tb168 2.833 . S
C232 O212 1.251 . S
C232 O217 1.256 . S
C232 C225 1.500 . S
C233 H198 0.929 1_565 S
C233 C211 1.444 . S
C233 C234 1.317 . S
C234 H196 0.930 . S
C234 C202 1.432 . S
C234 C233 1.317 . S
C235 O219 1.283 . S
C235 O222 1.243 . S
C236 C237 1.382 . S
C236 C240 1.393 1_455 S
C236 C243 1.500 1_455 S
C237 C236 1.382 . S
C237 C238 1.400 . S
C237 H248 0.930 . S
C238 C237 1.400 . S
C238 C239 1.384 . S
C239 C238 1.384 . S
C239 C241 1.392 . S
C239 H249 0.931 . S
C240 C236 1.393 1_655 S
C240 C241 1.401 1_655 S
C240 H250 0.930 . S
C241 C239 1.392 . S
C241 C240 1.401 1_455 S
C241 H251 0.930 1_445 S
C242 O220 1.262 1_455 S
C242 O221 1.260 . S
C243 Tb179 2.833 . S
C243 O218 1.251 . S
C243 O223 1.256 1_655 S
C243 C236 1.500 1_655 S
H244 C227 0.930 . S
H245 C228 0.931 . S
H246 C229 0.930 . S
H247 C230 0.924 1_554 S
H248 C237 0.930 . S
H249 C239 0.931 . S
H250 C240 0.930 . S
H251 C241 0.930 1_665 S
C252 C253 1.363 1_655 S
C252 C258 1.379 . S
C252 N260 1.356 . S
C253 C252 1.363 1_455 S
C253 C259 1.363 . S
C254 C255 1.363 1_465 S
C254 C259 1.379 . S
C254 N261 1.356 . S
C255 C254 1.363 1_645 S
C255 C258 1.363 1_545 S
N256 C258 1.356 1_545 S
N256 H268 0.984 . S
N256 H269 0.985 . S
N257 C259 1.356 . S
N257 H262 0.984 . S
N257 H263 0.985 . S
C258 C252 1.379 . S
C258 C255 1.363 1_565 S
C258 N256 1.356 1_565 S
C259 C253 1.363 . S
C259 C254 1.379 . S
C259 N257 1.356 . S
N260 C252 1.356 . S
N260 H266 0.984 . S
N260 H267 0.984 1_655 S
N261 C254 1.356 . S
N261 H264 0.984 1_465 S
N261 H265 0.985 . S
H262 N257 0.984 . S
H263 N257 0.985 . S
H264 N261 0.984 1_645 S
H265 N261 0.985 . S
H266 N260 0.984 . S
H267 N260 0.984 1_455 S
H268 N256 0.984 . S
H269 N256 0.985 . S
C270 C271 1.363 . S
C270 C276 1.379 . S
C270 N278 1.356 . S
C271 C270 1.363 . S
C271 C277 1.363 . S
C272 C273 1.363 . S
C272 C277 1.379 . S
C272 N279 1.356 . S
C273 C272 1.363 . S
C273 C276 1.363 . S
N274 C276 1.356 . S
N274 H286 0.984 . S
N274 H287 0.985 . S
N275 C277 1.356 . S
N275 H280 0.984 . S
N275 H281 0.985 1_545 S
C276 C270 1.379 . S
C276 C273 1.363 . S
C276 N274 1.356 . S
C277 C271 1.363 . S
C277 C272 1.379 . S
C277 N275 1.356 . S
N278 C270 1.356 . S
N278 H284 0.984 . S
N278 H285 0.984 . S
N279 C272 1.356 . S
N279 H282 0.984 1_455 S
N279 H283 0.985 1_545 S
H280 N275 0.984 . S
H281 N275 0.985 1_565 S
H282 N279 0.984 1_655 S
H283 N279 0.985 1_565 S
H284 N278 0.984 . S
H285 N278 0.984 . S
H286 N274 0.984 . S
H287 N274 0.985 . S
C288 C289 1.363 . S
C288 C294 1.379 . S
C288 N296 1.356 . S
C289 C288 1.363 . S
C289 C295 1.363 . S
C290 C291 1.363 1_565 S
C290 C295 1.379 . S
C290 N297 1.356 1_565 S
C291 C290 1.363 1_545 S
C291 C294 1.363 1_545 S
N292 C294 1.356 1_545 S
N292 H304 0.984 . S
N292 H305 0.985 . S
N293 C295 1.356 . S
N293 H298 0.984 . S
N293 H299 0.985 . S
C294 C288 1.379 . S
C294 C291 1.363 1_565 S
C294 N292 1.356 1_565 S
C295 C289 1.363 . S
C295 C290 1.379 . S
C295 N293 1.356 . S
N296 C288 1.356 . S
N296 H302 0.984 . S
N296 H303 0.984 . S
N297 C290 1.356 1_545 S
N297 H300 0.984 . S
N297 H301 0.985 . S
H298 N293 0.984 . S
H299 N293 0.985 . S
H300 N297 0.984 . S
H301 N297 0.985 . S
H302 N296 0.984 . S
H303 N296 0.984 . S
H304 N292 0.984 . S
H305 N292 0.985 . S
C306 C307 1.363 . S
C306 C312 1.379 . S
C306 N314 1.353 1_554 S
C307 C306 1.363 . S
C307 C313 1.363 . S
C308 C309 1.363 . S
C308 C313 1.379 . S
C308 N315 1.356 . S
C309 C308 1.363 . S
C309 C312 1.363 . S
N310 C312 1.356 . S
N310 H322 0.984 1_455 S
N310 H323 0.985 1_455 S
N311 C313 1.356 . S
N311 H316 0.984 . S
N311 H317 0.985 . S
C312 C306 1.379 . S
C312 C309 1.363 . S
C312 N310 1.356 . S
C313 C307 1.363 . S
C313 C308 1.379 . S
C313 N311 1.356 . S
N314 C306 1.353 1_556 S
N314 H320 0.985 . S
N314 H321 0.987 . S
N315 C308 1.356 . S
N315 H318 0.984 . S
N315 H319 0.985 . S
H316 N311 0.984 . S
H317 N311 0.985 . S
H318 N315 0.984 . S
H319 N315 0.985 . S
H320 N314 0.985 . S
H321 N314 0.987 . S
H322 N310 0.984 1_655 S
H323 N310 0.985 1_655 S
C324 C325 1.363 . S
C324 C330 1.379 . S
C324 N332 1.356 . S
C325 C324 1.363 . S
C325 C331 1.363 . S
C326 C327 1.363 . S
C326 C331 1.379 . S
C326 N333 1.356 . S
C327 C326 1.363 . S
C327 C330 1.363 . S
N328 C330 1.356 . S
N328 H340 0.984 . S
N328 H341 0.985 . S
N329 C331 1.356 . S
N329 H334 0.984 . S
N329 H335 0.985 . S
C330 C324 1.379 . S
C330 C327 1.363 . S
C330 N328 1.356 . S
C331 C325 1.363 . S
C331 C326 1.379 . S
C331 N329 1.356 . S
N332 C324 1.356 . S
N332 H338 0.984 . S
N332 H339 0.984 . S
N333 C326 1.356 . S
N333 H336 0.984 . S
N333 H337 0.985 . S
H334 N329 0.984 . S
H335 N329 0.985 . S
H336 N333 0.984 . S
H337 N333 0.985 . S
H338 N332 0.984 . S
H339 N332 0.984 . S
H340 N328 0.984 . S
H341 N328 0.985 . S
C342 C343 1.363 . S
C342 C348 1.379 . S
C342 N350 1.356 . S
C343 C342 1.363 . S
C343 C349 1.363 . S
C344 C345 1.363 . S
C344 C349 1.379 . S
C344 N351 1.356 . S
C345 C344 1.363 . S
C345 C348 1.363 . S
N346 C348 1.356 . S
N346 H358 0.984 . S
N346 H359 0.985 . S
N347 C349 1.356 . S
N347 H352 0.984 . S
N347 H353 0.985 . S
C348 C342 1.379 . S
C348 C345 1.363 . S
C348 N346 1.356 . S
C349 C343 1.363 . S
C349 C344 1.379 . S
C349 N347 1.356 . S
N350 C342 1.356 . S
N350 H356 0.984 . S
N350 H357 0.984 . S
N351 C344 1.356 . S
N351 H354 0.984 . S
N351 H355 0.985 . S
H352 N347 0.984 . S
H353 N347 0.985 . S
H354 N351 0.984 . S
H355 N351 0.985 . S
H356 N350 0.984 . S
H357 N350 0.984 . S
H358 N346 0.984 . S
H359 N346 0.985 . S
C360 C361 1.363 . S
C360 C366 1.379 . S
C360 N368 1.356 . S
C361 C360 1.363 . S
C361 C367 1.363 . S
C362 C363 1.363 . S
C362 C367 1.379 . S
C362 N369 1.356 1_556 S
C363 C362 1.363 . S
C363 C366 1.363 . S
N364 C366 1.356 1_565 S
N364 H376 0.984 . S
N364 H377 0.985 . S
N365 C367 1.356 . S
N365 H370 0.984 . S
N365 H371 0.985 1_655 S
C366 C360 1.379 . S
C366 C363 1.363 . S
C366 N364 1.356 1_545 S
C367 C361 1.363 . S
C367 C362 1.379 . S
C367 N365 1.356 . S
N368 C360 1.356 . S
N368 H374 0.984 . S
N368 H375 0.984 . S
N369 C362 1.356 1_554 S
N369 H372 0.984 . S
N369 H373 0.985 . S
H370 N365 0.984 . S
H371 N365 0.985 1_455 S
H372 N369 0.984 . S
H373 N369 0.985 . S
H374 N368 0.984 . S
H375 N368 0.984 . S
H376 N364 0.984 . S
H377 N364 0.985 . S
C378 C379 1.363 . S
C378 C384 1.379 1_565 S
C378 N386 1.356 1_565 S
C379 C378 1.363 . S
C379 C385 1.363 . S
C380 C381 1.363 . S
C380 C385 1.379 . S
C380 N387 1.356 . S
C381 C380 1.363 . S
C381 C384 1.363 1_565 S
N382 C384 1.356 . S
N382 H394 0.984 . S
N382 H395 0.985 . S
N383 C385 1.356 . S
N383 H388 0.984 . S
N383 H389 0.985 . S
C384 C378 1.379 1_545 S
C384 C381 1.363 1_545 S
C384 N382 1.356 . S
C385 C379 1.363 . S
C385 C380 1.379 . S
C385 N383 1.356 . S
N386 C378 1.356 1_545 S
N386 H392 0.984 . S
N386 H393 0.984 1_545 S
N387 C380 1.356 . S
N387 H390 0.984 . S
N387 H391 0.985 . S
H388 N383 0.984 . S
H389 N383 0.985 . S
H390 N387 0.984 . S
H391 N387 0.985 . S
H392 N386 0.984 . S
H393 N386 0.984 1_565 S
H394 N382 0.984 . S
H395 N382 0.985 . S
C396 C397 1.363 . S
C396 C402 1.379 . S
C396 N404 1.356 . S
C397 C396 1.363 . S
C397 C403 1.363 . S
C398 C399 1.363 1_455 S
C398 C403 1.379 . S
C398 N405 1.356 1_455 S
C399 C398 1.363 1_655 S
C399 C402 1.363 1_655 S
N400 C402 1.356 1_655 S
N400 H412 0.984 . S
N400 H413 0.985 . S
N401 C403 1.356 . S
N401 H406 0.984 . S
N401 H407 0.985 . S
C402 C396 1.379 . S
C402 C399 1.363 1_455 S
C402 N400 1.356 1_455 S
C403 C397 1.363 . S
C403 C398 1.379 . S
C403 N401 1.356 . S
N404 C396 1.356 . S
N404 H410 0.984 . S
N404 H411 0.984 . S
N405 C398 1.356 1_655 S
N405 H408 0.984 . S
N405 H409 0.985 . S
H406 N401 0.984 . S
H407 N401 0.985 . S
H408 N405 0.984 . S
H409 N405 0.985 . S
H410 N404 0.984 . S
H411 N404 0.984 . S
H412 N400 0.984 . S
H413 N400 0.985 . S
C253 C63 1.571 . S
C255 C74 1.571 . S
C271 C158 1.571 . S
C273 C147 1.571 . S
C289 C242 1.571 . S
C291 C231 1.571 . S
C307 C226 1.578 1_554 S
C309 C67 1.711 . S
C325 C154 1.540 . S
C327 C56 1.720 . S
C343 C235 1.711 . S
C345 C142 1.578 . S
C361 C224 1.719 . S
C363 C70 1.539 1_556 S
C379 C58 1.578 . S
C381 C151 1.711 1_565 S
C397 C238 1.540 . S
C399 C140 1.719 . S
