# Generated by pormake.
# Topology wkd, (5)-cn, num edge types: 1
# Building blocks:
#     Node 0, Type 0, BuildingBlock: XOMCOT_clean_sbu_0, # of connection points: 5
#     Node 1, Type 0, BuildingBlock: XOMCOT_clean_sbu_0, # of connection points: 5
#     Node 2, Type 0, BuildingBlock: XOMCOT_clean_sbu_0, # of connection points: 5
#     Node 3, Type 0, BuildingBlock: XOMCOT_clean_sbu_0, # of connection points: 5
#     Node 4, Type 0, BuildingBlock: XOMCOT_clean_sbu_0, # of connection points: 5
#     Node 5, Type 0, BuildingBlock: XOMCOT_clean_sbu_0, # of connection points: 5
#     Node 6, Type 0, BuildingBlock: XOMCOT_clean_sbu_0, # of connection points: 5
#     Node 7, Type 0, BuildingBlock: XOMCOT_clean_sbu_0, # of connection points: 5
#     Node 8, Type 0, BuildingBlock: XOMCOT_clean_sbu_0, # of connection points: 5
#     Node 9, Type 0, BuildingBlock: XOMCOT_clean_sbu_0, # of connection points: 5
#     Node 10, Type 0, BuildingBlock: XOMCOT_clean_sbu_0, # of connection points: 5
#     Node 11, Type 0, BuildingBlock: XOMCOT_clean_sbu_0, # of connection points: 5
#     Edge 12, Type (0, 0), BuildingBlock: OJICUG_clean_linker_0, # of connection points: 2
#     Edge 13, Type (0, 0), BuildingBlock: OJICUG_clean_linker_0, # of connection points: 2
#     Edge 14, Type (0, 0), BuildingBlock: OJICUG_clean_linker_0, # of connection points: 2
#     Edge 15, Type (0, 0), BuildingBlock: OJICUG_clean_linker_0, # of connection points: 2
#     Edge 16, Type (0, 0), BuildingBlock: OJICUG_clean_linker_0, # of connection points: 2
#     Edge 17, Type (0, 0), BuildingBlock: OJICUG_clean_linker_0, # of connection points: 2
#     Edge 18, Type (0, 0), BuildingBlock: OJICUG_clean_linker_0, # of connection points: 2
#     Edge 19, Type (0, 0), BuildingBlock: OJICUG_clean_linker_0, # of connection points: 2
#     Edge 20, Type (0, 0), BuildingBlock: OJICUG_clean_linker_0, # of connection points: 2
#     Edge 21, Type (0, 0), BuildingBlock: OJICUG_clean_linker_0, # of connection points: 2
#     Edge 22, Type (0, 0), BuildingBlock: OJICUG_clean_linker_0, # of connection points: 2
#     Edge 23, Type (0, 0), BuildingBlock: OJICUG_clean_linker_0, # of connection points: 2
#     Edge 24, Type (0, 0), BuildingBlock: OJICUG_clean_linker_0, # of connection points: 2
#     Edge 25, Type (0, 0), BuildingBlock: OJICUG_clean_linker_0, # of connection points: 2
#     Edge 26, Type (0, 0), BuildingBlock: OJICUG_clean_linker_0, # of connection points: 2
#     Edge 27, Type (0, 0), BuildingBlock: OJICUG_clean_linker_0, # of connection points: 2
#     Edge 28, Type (0, 0), BuildingBlock: OJICUG_clean_linker_0, # of connection points: 2
#     Edge 29, Type (0, 0), BuildingBlock: OJICUG_clean_linker_0, # of connection points: 2
#     Edge 30, Type (0, 0), BuildingBlock: OJICUG_clean_linker_0, # of connection points: 2
#     Edge 31, Type (0, 0), BuildingBlock: OJICUG_clean_linker_0, # of connection points: 2
#     Edge 32, Type (0, 0), BuildingBlock: OJICUG_clean_linker_0, # of connection points: 2
#     Edge 33, Type (0, 0), BuildingBlock: OJICUG_clean_linker_0, # of connection points: 2
#     Edge 34, Type (0, 0), BuildingBlock: OJICUG_clean_linker_0, # of connection points: 2
#     Edge 35, Type (0, 0), BuildingBlock: OJICUG_clean_linker_0, # of connection points: 2
#     Edge 36, Type (0, 0), BuildingBlock: OJICUG_clean_linker_0, # of connection points: 2
#     Edge 37, Type (0, 0), BuildingBlock: OJICUG_clean_linker_0, # of connection points: 2
#     Edge 38, Type (0, 0), BuildingBlock: OJICUG_clean_linker_0, # of connection points: 2
#     Edge 39, Type (0, 0), BuildingBlock: OJICUG_clean_linker_0, # of connection points: 2
#     Edge 40, Type (0, 0), BuildingBlock: OJICUG_clean_linker_0, # of connection points: 2
#     Edge 41, Type (0, 0), BuildingBlock: OJICUG_clean_linker_0, # of connection points: 2
# Relax obj value: 0.125
# Max RMSD: 0.194
# Mean RMSD: 0.192
data_MOF--net-wkd--node1-XOMCOT_clean_sbu_0--edge1-OJICUG_clean_linker_0
_symmetry_space_group_name_H-M    P1
_symmetry_Int_Tables_number       1
_symmetry_cell_setting            triclinic
loop_
_symmetry_equiv_pos_as_xyz
'x, y, z'
_cell_length_a     19.348413
_cell_length_b     19.34707
_cell_length_c     81.350631
_cell_angle_alpha  89.989223
_cell_angle_beta   90.006531
_cell_angle_gamma 119.67697
loop_
_atom_site_label
_atom_site_type_symbol
_atom_site_fract_x
_atom_site_fract_y
_atom_site_fract_z
_atom_type_partial_charge
Co0 Co 0.95527 0.30184 0.06208 0.0
C1 C 0.94971 0.42884 0.04258 0.0
C2 C 0.85519 0.3124 0.03605 0.0
C3 C 0.84849 0.36769 0.02661 0.0
N4 N 0.91915 0.35061 0.04593 0.0
N5 N 0.90764 0.4405 0.03078 0.0
H6 H 1.00109 0.47617 0.04867 0.0
H7 H 0.81501 0.24892 0.03588 0.0
C8 C 0.92448 0.15923 0.04205 0.0
O9 O 0.99938 0.17894 0.04411 0.0
N10 N 0.98857 0.25086 0.07884 0.0
C11 C 0.03772 0.28691 0.0917 0.0
C12 C 0.04885 0.23189 0.10029 0.0
C13 C 0.96646 0.17274 0.08061 0.0
N14 N 1.00407 0.16021 0.09329 0.0
C15 C 0.12374 0.37386 0.05651 0.0
C16 C 0.11602 0.36936 0.02257 0.0
C17 C 0.1904 0.41036 0.03023 0.0
C18 C 0.1939 0.41061 0.0474 0.0
C19 C 0.04723 0.33236 0.03215 0.0
N20 N 0.05126 0.3349 0.04897 0.0
H21 H 0.12833 0.38198 0.06958 0.0
H22 H 0.99042 0.30362 0.02596 0.0
H23 H 0.06525 0.34951 0.09462 0.0
H24 H 0.92441 0.1254 0.07284 0.0
O25 O 0.99556 0.39677 0.07504 0.0
O26 O 0.87274 0.29557 0.07708 0.0
O27 O 0.8954 0.19726 0.0496 0.0
C28 C 0.92535 0.36791 0.08146 0.0
H29 H 0.80177 0.35577 1.01784 0.0
H30 H 0.08732 0.24366 0.11082 0.0
H31 H 0.1109 0.36849 1.0093 0.0
H32 H 0.25012 0.444 0.05378 0.0
Co33 Co 0.70839 0.95777 0.22932 0.0
C34 C 0.56539 0.93587 0.211 0.0
C35 C 0.62217 0.87854 0.19891 0.0
C36 C 0.5579 0.86669 0.18967 0.0
N37 N 0.62772 0.92274 0.21223 0.0
N38 N 0.52243 0.90241 0.19731 0.0
H39 H 0.55148 0.96898 0.21984 0.0
H40 H 0.66147 0.85568 0.19596 0.0
C41 C 0.83975 0.95003 0.21166 0.0
O42 O 0.88753 0.02184 0.21738 0.0
N43 N 0.78904 0.99007 0.24677 0.0
C44 C 0.80731 0.04594 0.25851 0.0
C45 C 0.87151 0.05441 0.26744 0.0
C46 C 0.839 0.96104 0.24979 0.0
N47 N 0.89171 1.00138 0.26186 0.0
C48 C 0.77563 0.12668 0.2264 0.0
C49 C 0.81949 0.14069 0.19375 0.0
C50 C 0.8339 0.20937 0.20237 0.0
C51 C 0.81028 0.20099 0.21888 0.0
C52 C 0.78356 0.06691 0.20177 0.0
N53 N 0.76563 0.06092 0.21819 0.0
H54 H 0.75285 0.122 0.23861 0.0
H55 H 0.76961 1.01463 0.19462 0.0
H56 H 0.77612 0.07818 0.26081 0.0
H57 H 0.8391 0.9132 0.24295 0.0
O58 O 0.64416 0.98323 0.2433 0.0
O59 O 0.63599 0.86495 0.24253 0.0
O60 O 0.76646 0.91316 0.216 0.0
C61 C 0.61015 0.91065 0.24854 0.0
H62 H 0.53732 0.83261 0.1784 0.0
H63 H 0.90153 0.09675 0.27724 0.0
H64 H 0.83482 0.14344 0.18088 0.0
H65 H 0.81509 0.25086 0.22585 0.0
Co66 Co 0.77563 0.66727 0.39723 0.0
C67 C 0.6611 0.51733 0.37914 0.0
C68 C 0.78061 0.53831 0.38031 0.0
C69 C 0.73337 0.464 0.37386 0.0
N70 N 0.73602 0.57278 0.38347 0.0
N71 N 0.65842 0.4509 0.37318 0.0
H72 H 0.60854 0.52166 0.38133 0.0
H73 H 0.84293 0.56398 0.38338 0.0
C74 C 0.88198 0.71539 0.36818 0.0
O75 O 0.81681 0.67601 0.35943 0.0
N76 N 0.81806 0.7601 0.41147 0.0
C77 C 0.77512 0.78754 0.41926 0.0
C78 C 0.82634 0.8576 0.42711 0.0
C79 C 0.89512 0.81376 0.41478 0.0
N80 N 0.90194 0.87452 0.42428 0.0
C81 C 0.64771 0.68134 0.38348 0.0
C82 C 0.73662 0.82897 0.36899 0.0
C83 C 0.6535 0.79294 0.36901 0.0
C84 C 0.60925 0.71784 0.37617 0.0
C85 C 0.77322 0.79015 0.37661 0.0
N86 N 0.72864 0.71616 0.38346 0.0
H87 H 0.61157 0.62717 0.39011 0.0
H88 H 0.83723 0.8216 0.3777 0.0
H89 H 0.71094 0.75946 0.41894 0.0
H90 H 0.94512 0.80988 0.40991 0.0
O91 O 0.6865 0.61055 0.41169 0.0
O92 O 0.79899 0.60758 0.41377 0.0
O93 O 0.87784 0.71927 0.38387 0.0
C94 C 0.72604 0.58139 0.41881 0.0
H95 H 0.75216 0.42183 0.37036 0.0
H96 H 0.80897 0.89355 0.43431 0.0
H97 H 0.77281 0.88796 0.3639 0.0
H98 H 0.54487 0.68845 0.37663 0.0
Co99 Co 0.11646 0.73994 0.56262 0.0
C100 C 0.12434 0.61504 0.54254 0.0
C101 C 0.21842 0.73288 0.53674 0.0
C102 C 0.22665 0.67961 0.52697 0.0
N103 N 0.15373 0.6927 0.54635 0.0
N104 N 0.16781 0.60587 0.53065 0.0
H105 H 0.07269 0.56651 0.5483 0.0
H106 H 0.25809 0.79645 0.53697 0.0
C107 C 0.14399 0.88064 0.54213 0.0
O108 O 0.06849 0.85922 0.54385 0.0
N109 N 0.08291 0.7903 0.57946 0.0
C110 C 0.04086 0.75644 0.59329 0.0
C111 C 0.03311 0.81271 0.60226 0.0
C112 C 0.10262 0.86789 0.58073 0.0
N113 N 0.07155 0.88271 0.59427 0.0
C114 C 0.94776 0.66768 0.55779 0.0
C115 C 0.95161 0.66719 0.52382 0.0
C116 C 0.87806 0.62714 0.53185 0.0
C117 C 0.87651 0.62948 0.54903 0.0
C118 C 1.02147 0.70519 0.53303 0.0
N119 N 1.01931 0.70497 0.54986 0.0
H120 H 0.945 0.66254 0.57096 0.0
H121 H 0.07757 0.73329 0.52657 0.0
H122 H 1.01672 0.69475 0.59672 0.0
H123 H 0.14152 0.91418 0.57242 0.0
O124 O 0.07847 0.64528 0.5756 0.0
O125 O 0.20047 0.74833 0.57741 0.0
O126 O 0.17407 0.84443 0.55003 0.0
C127 C 0.14902 0.6758 0.58192 0.0
H128 H 0.27405 0.69356 0.51824 0.0
H129 H 1.00052 0.80247 0.61365 0.0
H130 H 0.95531 0.66658 0.51054 0.0
H131 H 0.82103 0.59727 0.55571 0.0
Co132 Co 0.34411 0.07529 0.72791 0.0
C133 C 0.4829 0.10885 0.70609 0.0
C134 C 0.40435 0.14345 0.695 0.0
C135 C 0.46739 0.16443 0.68466 0.0
N136 N 0.41312 0.10801 0.70852 0.0
N137 N 0.51779 0.14396 0.69168 0.0
H138 H 0.50927 0.08708 0.7149 0.0
H139 H 0.35615 0.15491 0.6926 0.0
C140 C 0.20993 0.09385 0.71484 0.0
O141 O 0.16167 0.02251 0.72072 0.0
N142 N 0.27572 0.04664 0.74757 0.0
C143 C 0.26355 0.99201 0.75924 0.0
C144 C 0.20473 0.98499 0.76981 0.0
C145 C 0.22862 0.07685 0.7523 0.0
N146 N 0.18223 0.0379 0.76532 0.0
C147 C 0.26404 0.906 0.72487 0.0
C148 C 0.20563 0.89325 0.69341 0.0
C149 C 0.19349 0.8241 0.70149 0.0
C150 C 0.22339 0.83163 0.71746 0.0
C151 C 0.24703 0.9671 0.70134 0.0
N152 N 0.27416 0.97299 0.71715 0.0
H153 H 0.2917 0.90949 0.73648 0.0
H154 H 0.25773 1.0192 0.69455 0.0
H155 H 0.29483 0.95901 0.76024 0.0
H156 H 0.22555 0.12449 0.74606 0.0
O157 O 0.41132 0.04236 0.73855 0.0
O158 O 0.42949 0.16408 0.74038 0.0
O159 O 0.28469 0.12706 0.71781 0.0
C160 C 0.45393 0.11389 0.74412 0.0
H161 H 0.47538 0.19361 0.67292 0.0
H162 H 0.17931 0.94307 0.77985 0.0
H163 H 0.18478 0.89071 0.68095 0.0
H164 H 0.21963 0.78099 0.72395 0.0
Co165 Co 0.28674 0.36989 0.89556 0.0
C166 C 0.39517 0.52681 0.87888 0.0
C167 C 0.27471 0.50119 0.88147 0.0
C168 C 0.31887 0.5772 0.87559 0.0
N169 N 0.32161 0.46814 0.8832 0.0
N170 N 0.39455 0.59326 0.874 0.0
H171 H 0.4493 0.52468 0.88042 0.0
H172 H 0.21284 0.47311 0.88506 0.0
C173 C 0.16996 0.32766 0.86867 0.0
O174 O 0.23227 0.36821 0.8592 0.0
N175 N 0.24872 0.27364 0.90863 0.0
C176 C 0.29327 0.24352 0.91452 0.0
C177 C 0.24435 0.17328 0.92257 0.0
C178 C 0.1731 0.22136 0.91326 0.0
N179 N 0.16851 0.1588 0.92176 0.0
C180 C 0.40506 0.36111 0.87615 0.0
C181 C 0.30902 0.2138 0.86212 0.0
C182 C 0.39036 0.25501 0.85835 0.0
C183 C 0.43827 0.32927 0.86557 0.0
C184 C 0.2775 0.24914 0.87259 0.0
N185 N 0.32524 0.32338 0.87908 0.0
H186 H 0.44498 0.41413 0.8827 0.0
H187 H 0.21529 0.21568 0.87587 0.0
H188 H 0.35689 0.2703 0.91289 0.0
H189 H 0.12235 0.22798 0.91013 0.0
O190 O 0.38231 0.42094 0.90832 0.0
O191 O 0.27376 0.42671 0.91433 0.0
O192 O 0.1792 0.3219 0.88415 0.0
C193 C 0.34824 0.44944 0.91758 0.0
H194 H 0.29729 0.6181 0.873 0.0
H195 H 0.26365 0.1359 0.9286 0.0
H196 H 0.2706 0.15495 0.85717 0.0
H197 H 0.50208 0.36114 0.86363 0.0
Co198 Co 0.75152 0.10521 0.80847 0.0
C199 C 0.6251 0.12798 0.82432 0.0
C200 C 0.74299 0.22711 0.82778 0.0
C201 C 0.68935 0.24738 0.83386 0.0
N202 N 0.70304 0.15244 0.82181 0.0
N203 N 0.6156 0.18537 0.83166 0.0
H204 H 0.5767 0.0719 0.82 0.0
H205 H 0.80657 0.26609 0.82689 0.0
C206 C 0.88603 0.13558 0.83111 0.0
O207 O 0.86201 0.0591 0.83062 0.0
N208 N 0.80399 0.062 0.79437 0.0
C209 C 0.77017 1.00795 0.78216 0.0
C210 C 0.82642 0.9935 0.77511 0.0
C211 C 0.88237 0.08353 0.79362 0.0
N212 N 0.89689 0.041 0.78233 0.0
C213 C 0.66931 0.93891 0.81659 0.0
C214 C 0.66705 0.95674 0.85024 0.0
C215 C 0.62799 0.88 0.8435 0.0
C216 C 0.63026 0.87167 0.82647 0.0
C217 C 0.70675 0.02273 0.83987 0.0
N218 N 0.70865 1.01343 0.82321 0.0
H219 H 0.66352 0.93042 0.80355 0.0
H220 H 0.73501 0.08154 0.84524 0.0
H221 H 0.70858 0.98057 0.77842 0.0
H222 H 0.92857 0.12948 0.80101 0.0
O223 O 0.66204 0.06456 0.79387 0.0
O224 O 0.76861 0.18418 0.79152 0.0
O225 O 0.85218 0.16476 0.82215 0.0
C226 C 0.69766 0.13227 0.78629 0.0
H227 H 0.70308 0.30453 0.83894 0.0
H228 H 0.8166 0.95202 0.76525 0.0
H229 H 0.66562 0.96574 0.86335 0.0
H230 H 0.59797 0.81374 0.8207 0.0
Co231 Co 0.69275 0.76045 0.9767 0.0
C232 C 0.54325 0.65006 0.99538 0.0
C233 C 0.56719 0.77038 0.99414 0.0
C234 C 0.49318 0.72499 1.00083 0.0
N235 N 0.60041 0.72444 0.99109 0.0
N236 N 0.47832 0.64952 1.00157 0.0
H237 H 0.54414 0.59615 0.99253 0.0
H238 H 0.59272 0.83216 0.99064 0.0
C239 C 0.7429 0.88012 1.00298 0.0
O240 O 0.71138 0.81833 1.01287 0.0
N241 N 0.78251 0.79937 0.96163 0.0
C242 C 0.81006 0.75522 0.9544 0.0
C243 C 0.87778 0.80477 0.94567 0.0
C244 C 0.83398 0.87549 0.95713 0.0
N245 N 0.89345 0.88069 0.94741 0.0
C246 C 0.71652 0.65122 0.99603 0.0
C247 C 0.87413 0.75189 1.00407 0.0
C248 C 0.83864 0.67099 1.00801 0.0
C249 C 0.75863 0.62113 1.00427 0.0
C250 C 0.82888 0.78025 0.99597 0.0
N251 N 0.75075 0.72975 0.992 0.0
H252 H 0.65844 0.60921 0.99171 0.0
H253 H 0.85799 0.84167 0.99206 0.0
H254 H 0.78385 0.6915 0.95571 0.0
H255 H 0.82963 0.92623 0.96133 0.0
O256 O 0.64015 0.66148 0.96526 0.0
O257 O 0.62308 0.76291 0.95914 0.0
O258 O 0.74115 0.87003 0.98733 0.0
C259 C 0.60181 0.68793 0.95679 0.0
H260 H 0.45203 0.74519 1.00425 0.0
H261 H 0.91298 0.78589 0.93864 0.0
H262 H 0.9367 0.79163 1.00645 0.0
H263 H 0.73013 0.55781 1.00672 0.0
Co264 Co 0.96991 0.69735 0.1435 0.0
C265 C 0.94562 0.55355 0.1619 0.0
C266 C 0.89453 0.61496 0.17453 0.0
C267 C 0.88196 0.55058 0.18383 0.0
N268 N 0.93533 0.61772 0.16083 0.0
N269 N 0.91375 0.51218 0.17584 0.0
H270 H 0.97566 0.53718 0.15279 0.0
H271 H 0.87472 0.65644 0.17776 0.0
C272 C 0.96046 0.82907 0.16057 0.0
O273 O 0.03207 0.877 0.15478 0.0
N274 N 1.00174 0.77668 0.12579 0.0
C275 C 0.05725 0.79388 0.11402 0.0
C276 C 0.06482 0.85668 0.10471 0.0
C277 C 0.97202 0.82576 0.12244 0.0
N278 N 1.01158 0.87701 0.11009 0.0
C279 C 0.13891 0.76597 0.14653 0.0
C280 C 0.15264 0.81209 0.17902 0.0
C281 C 0.22137 0.82581 0.17051 0.0
C282 C 0.21317 0.80125 0.15408 0.0
C283 C 0.07893 0.77559 0.17098 0.0
N284 N 0.07297 0.75617 0.15464 0.0
H285 H 0.13444 0.7425 0.13439 0.0
H286 H 1.02672 0.76236 0.17807 0.0
H287 H 0.08982 0.76283 0.11196 0.0
H288 H 0.92423 0.82631 0.12921 0.0
O289 O 0.99643 0.63308 0.12981 0.0
O290 O 0.8776 0.62372 0.1303 0.0
O291 O 0.92425 0.75545 0.15647 0.0
C292 C 0.92406 0.5985 0.12444 0.0
H293 H 0.85011 0.53202 0.19538 0.0
H294 H 0.10681 0.88576 0.09481 0.0
H295 H 0.1553 0.82832 0.19183 0.0
H296 H 0.26312 0.80567 0.1472 0.0
Co297 Co 0.30792 0.93542 0.31036 0.0
C298 C 0.426 0.91763 0.33101 0.0
C299 C 0.30565 0.82493 0.33527 0.0
C300 C 0.3551 0.81144 0.34516 0.0
N301 N 0.34969 0.89205 0.32656 0.0
N302 N 0.43046 0.86938 0.34246 0.0
H303 H 0.47688 0.96988 0.32601 0.0
H304 H 0.24198 0.78699 0.33431 0.0
C305 C 0.1628 0.90528 0.32942 0.0
O306 O 0.18584 0.98139 0.32827 0.0
N307 N 0.26243 0.97459 0.29356 0.0
C308 C 0.30108 0.02559 0.2811 0.0
C309 C 0.24796 0.03902 0.2723 0.0
C310 C 0.18491 0.95369 0.29127 0.0
N311 N 0.17498 0.99372 0.27873 0.0
C312 C 0.38278 0.10288 0.31716 0.0
C313 C 0.37432 0.0906 0.35102 0.0
C314 C 0.41729 0.16602 0.34381 0.0
C315 C 0.41958 0.1717 0.32667 0.0
C316 C 0.33694 0.02305 0.34102 0.0
N317 N 0.34147 0.02941 0.32422 0.0
H318 H 0.39274 0.10925 0.30416 0.0
H319 H 0.30619 0.96536 0.34684 0.0
H320 H 0.36401 0.05242 0.27858 0.0
H321 H 0.13596 0.91034 0.29852 0.0
O322 O 0.40546 0.97577 0.29833 0.0
O323 O 0.30227 0.85522 0.29475 0.0
O324 O 0.20038 0.87604 0.32176 0.0
C325 C 0.37615 0.90709 0.29121 0.0
H326 H 0.33744 0.76118 0.35331 0.0
H327 H 0.26185 0.07898 0.26196 0.0
H328 H 0.37186 0.0837 0.36426 0.0
H329 H 0.45456 0.22857 0.32061 0.0
Co330 Co 0.38094 0.2777 0.47633 0.0
C331 C 0.52544 0.38697 0.49661 0.0
C332 C 0.50358 0.26742 0.4946 0.0
C333 C 0.57582 0.31218 0.50204 0.0
N334 N 0.47063 0.31339 0.49139 0.0
N335 N 0.58953 0.38719 0.50323 0.0
H336 H 0.5233 0.4407 0.49438 0.0
H337 H 0.47898 0.20618 0.49076 0.0
C338 C 0.32625 0.16213 0.50358 0.0
O339 O 0.35851 0.22512 0.51313 0.0
N340 N 0.29319 0.23848 0.46079 0.0
C341 C 0.26685 0.28229 0.45297 0.0
C342 C 0.19879 0.23197 0.44438 0.0
C343 C 0.24089 0.16193 0.45677 0.0
N344 N 0.18202 0.1561 0.44681 0.0
C345 C 0.35804 0.39513 0.49261 0.0
C346 C 0.20344 0.2974 0.50304 0.0
C347 C 0.23888 0.37972 0.50534 0.0
C348 C 0.31726 0.42834 0.50024 0.0
C349 C 0.2469 0.26615 0.49525 0.0
N350 N 0.32404 0.31497 0.49037 0.0
H351 H 0.41511 0.43532 0.48746 0.0
H352 H 0.21716 0.20332 0.49248 0.0
H353 H 0.29383 0.34626 0.45385 0.0
H354 H 0.2439 0.11135 0.46158 0.0
O355 O 0.4393 0.37397 0.464 0.0
O356 O 0.4501 0.26709 0.45983 0.0
O357 O 0.32823 0.17021 0.48788 0.0
C358 C 0.4759 0.3423 0.45664 0.0
H359 H 0.61685 0.29207 0.50562 0.0
H360 H 0.16379 0.2501 0.43706 0.0
H361 H 0.14201 0.25834 0.50648 0.0
H362 H 0.34579 0.49246 0.50147 0.0
Co363 Co 0.08644 0.34329 0.64394 0.0
C364 C 0.09229 0.48041 0.66185 0.0
C365 C 0.16121 0.43583 0.67389 0.0
C366 C 0.1671 0.49856 0.68287 0.0
N367 N 0.11342 0.42353 0.66082 0.0
N368 N 0.12408 0.52636 0.67527 0.0
H369 H 0.05535 0.48868 0.65298 0.0
H370 H 0.19123 0.40278 0.67669 0.0
C371 C 0.08789 0.21529 0.66421 0.0
O372 O 1.0169 0.16669 0.65822 0.0
N373 N 0.0631 0.26355 0.62662 0.0
C374 C 1.02579 0.25636 0.61213 0.0
C375 C 1.02493 0.19573 0.60308 0.0
C376 C 0.08812 0.20933 0.62558 0.0
N377 N 0.06348 0.1656 0.61165 0.0
C378 C 0.9159 0.26311 0.64306 0.0
C379 C 0.89152 0.24346 0.67664 0.0
C380 C 0.82637 0.22324 0.66631 0.0
C381 C 0.83916 0.23201 0.64932 0.0
C382 C 0.9677 0.27491 0.66986 0.0
N383 N 0.97936 0.28384 0.6532 0.0
H384 H 0.92429 0.27474 0.63011 0.0
H385 H 1.0176 0.29409 0.67811 0.0
H386 H 1.00153 0.29322 0.60811 0.0
H387 H 0.12611 0.20315 0.63446 0.0
O388 O 0.06498 0.40684 0.62892 0.0
O389 O 0.18371 0.41755 0.6322 0.0
O390 O 0.127 0.28697 0.65892 0.0
C391 C 0.13963 0.44257 0.62504 0.0
H392 H 0.20265 0.52392 0.69381 0.0
H393 H 0.99713 0.17483 0.5912 0.0
H394 H 0.88437 0.23913 0.68987 0.0
H395 H 0.79047 0.2178 0.64091 0.0
C396 C 0.86471 1.01201 1.00693 0.0
C397 C 0.7847 0.95944 1.01062 0.0
H398 H 0.97227 0.11606 1.01433 0.0
C399 C 0.7491 0.97641 0.02393 0.0
H400 H 0.89368 0.99934 0.99691 0.0
C401 C 0.79344 0.04355 0.03374 0.0
C402 C 0.87484 0.09327 0.03074 0.0
H403 H 0.68753 0.93598 0.02709 0.0
H404 H 0.7651 0.05419 0.04416 0.0
C405 C 0.9097 0.07793 1.01704 0.0
C406 C 0.97408 0.93623 0.17962 0.0
C407 C 0.92701 0.8591 0.1733 0.0
H408 H 0.98421 0.0244 0.19668 0.0
C409 C 0.85051 0.81092 0.17989 0.0
H410 H 0.03346 0.97498 0.17495 0.0
C411 C 0.82191 0.83962 0.19251 0.0
C412 C 0.86955 0.91678 0.19884 0.0
H413 H 0.81282 0.7511 0.17535 0.0
H414 H 0.76265 0.80143 0.19728 0.0
C415 C 0.94593 0.96449 0.19223 0.0
C416 C 1.0136 0.83842 0.36424 0.0
C417 C 0.95825 0.76078 0.35939 0.0
H418 H 0.12108 0.94572 0.35821 0.0
C419 C 0.97247 0.72945 0.345 0.0
H420 H 1.00354 0.86413 0.37519 0.0
C421 C 0.04042 0.77534 0.33549 0.0
C422 C 0.09378 0.85427 0.33991 0.0
H423 H 0.9304 0.66967 0.341 0.0
H424 H 0.04967 0.75014 0.32437 0.0
C425 C 0.08022 0.88517 0.35445 0.0
C426 C 0.31824 0.06825 0.52531 0.0
C427 C 0.28402 0.08362 0.51154 0.0
H428 H 0.30115 0.99065 0.54565 0.0
C429 C 0.20544 0.02894 0.5072 0.0
H430 H 0.37875 0.11014 0.52893 0.0
C431 C 0.16032 0.96214 0.51708 0.0
C432 C 0.19381 0.94804 0.53117 0.0
H433 H 0.17759 0.04021 0.49677 0.0
H434 H 0.09876 0.92211 0.51385 0.0
C435 C 0.27393 1.00027 0.5349 0.0
C436 C 0.22805 0.20406 0.6956 0.0
C437 C 0.1787 0.12924 0.70281 0.0
H438 H 0.23839 0.29026 0.67768 0.0
C439 C 0.09949 0.08465 0.69743 0.0
H440 H 0.2894 0.23992 0.69945 0.0
C441 C 0.0708 0.11285 0.68491 0.0
C442 C 0.12021 0.18681 0.67746 0.0
H443 H 0.05965 0.02674 0.70263 0.0
H444 H 1.00956 0.0762 0.68105 0.0
C445 C 0.19896 0.23274 0.68309 0.0
C446 C 0.97024 0.15694 0.85602 0.0
C447 C 0.95428 0.18765 0.84173 0.0
H448 H 0.05014 0.17841 0.87619 0.0
C449 C 1.00563 0.2673 0.83744 0.0
H450 H 0.93109 0.09585 0.85971 0.0
C451 C 0.07419 0.31387 0.84671 0.0
C452 C 0.09141 0.28245 0.86071 0.0
H453 H 0.9947 0.29253 0.82652 0.0
H454 H 0.11489 0.37405 0.8427 0.0
C455 C 0.03775 0.20427 0.86556 0.0
C456 C 0.07725 0.09005 0.10022 0.0
C457 C 1.00464 0.08789 0.09735 0.0
H458 H 0.13605 0.02417 0.10621 0.0
C459 C 0.9336 1.01462 0.09856 0.0
H460 H 0.13277 0.14562 0.09925 0.0
C461 C 0.93536 0.94513 0.10293 0.0
C462 C 1.00833 0.94749 0.10558 0.0
H463 H 0.87693 1.01161 0.09644 0.0
H464 H 0.88005 0.88945 0.10403 0.0
C465 C 0.07913 1.02059 0.10408 0.0
C466 C 0.03596 0.06893 0.26731 0.0
C467 C 0.96256 0.9982 0.26609 0.0
H468 H 0.16117 0.12251 0.27197 0.0
C469 C 0.96008 0.9253 0.26889 0.0
H470 H 0.03959 0.1258 0.26506 0.0
C471 C 1.0296 0.92353 0.27321 0.0
C472 C 0.10312 0.99446 0.27424 0.0
H473 H 0.90421 0.87005 0.26801 0.0
H474 H 1.02627 0.86685 0.27553 0.0
C475 C 0.10551 0.06702 0.27112 0.0
C476 C 0.11322 1.0131 0.43838 0.0
C477 C 0.11215 0.0846 0.441 0.0
H478 H 0.04764 0.8904 0.43083 0.0
C479 C 0.04098 0.08524 0.43781 0.0
H480 H 0.167 1.01043 0.44059 0.0
C481 C 0.97301 1.01687 0.43228 0.0
C482 C 0.97369 0.94532 0.42964 0.0
H483 H 0.03714 0.13851 0.43983 0.0
H484 H 0.91983 1.02045 0.42994 0.0
C485 C 0.04499 0.94446 0.43264 0.0
C486 C 0.07542 0.07869 0.59075 0.0
C487 C 0.07158 0.0974 0.60732 0.0
H488 H 0.07902 0.99629 0.57364 0.0
C489 C 0.07138 0.04586 0.61955 0.0
H490 H 0.0762 0.11733 0.58104 0.0
C491 C 0.07246 0.97613 0.61531 0.0
C492 C 0.07499 0.95679 0.59873 0.0
H493 H 0.06775 0.0581 0.63241 0.0
H494 H 0.07097 0.93713 0.62501 0.0
C495 C 0.07769 1.00961 0.58652 0.0
C496 C 0.04112 0.96885 0.77375 0.0
C497 C 0.11231 0.04018 0.77082 0.0
H498 H 0.91675 0.9136 0.77946 0.0
C499 C 0.11221 0.11262 0.77235 0.0
H500 H 0.03902 0.91214 0.77246 0.0
C501 C 0.04221 0.11342 0.7767 0.0
C502 C 0.97062 0.04171 0.77908 0.0
H503 H 0.16619 0.16839 0.77012 0.0
H504 H 0.04325 0.16974 0.77769 0.0
C505 C 0.97105 0.9696 0.77762 0.0
C506 C 0.96112 0.0231 0.93844 0.0
C507 C 0.96226 0.95158 0.941 0.0
H508 H 1.02518 0.14482 0.93028 0.0
C509 C 0.03243 0.95024 0.93705 0.0
H510 H 0.90823 0.02655 0.94122 0.0
C511 C 0.09898 1.01756 0.93072 0.0
C512 C 0.09825 0.08913 0.92811 0.0
H513 H 0.0367 0.89719 0.939 0.0
H514 H 0.15097 1.01289 0.92772 0.0
C515 C 1.02809 0.09086 0.932 0.0
C516 C 0.40591 0.5238 1.01691 0.0
C517 C 0.40517 0.58199 1.00674 0.0
H518 H 0.33746 0.42287 0.03247 0.0
C519 C 0.33232 0.57718 1.00279 0.0
H520 H 0.46163 0.52669 0.02009 0.0
C521 C 0.26168 0.51771 1.0096 0.0
C522 C 0.26279 0.46259 0.02067 0.0
H523 H 0.33043 0.621 0.99481 0.0
H524 H 0.20684 0.5178 1.00696 0.0
C525 C 0.33523 0.46489 0.02398 0.0
C526 C 0.93312 0.43266 0.19679 0.0
C527 C 0.908 0.43873 0.18099 0.0
H528 H 0.93341 0.356 0.2156 0.0
C529 C 0.86716 0.37013 0.17133 0.0
H530 H 0.96501 0.48529 0.20434 0.0
C531 C 0.84633 0.29538 0.17791 0.0
C532 C 0.86718 0.28849 0.19419 0.0
H533 H 0.8467 0.37395 0.15915 0.0
H534 H 0.80985 0.24302 0.17059 0.0
C535 C 0.91409 0.35855 0.20324 0.0
C536 C 0.4992 0.85629 0.36643 0.0
C537 C 0.49947 0.87182 0.3496 0.0
H538 H 0.54983 0.8213 0.38583 0.0
C539 C 0.56054 0.87544 0.33963 0.0
H540 H 0.45288 0.85373 0.37431 0.0
C541 C 0.61602 0.85611 0.3462 0.0
C542 C 0.61076 0.83337 0.36277 0.0
H543 H 0.56126 0.88672 0.32658 0.0
H544 H 0.65884 0.85302 0.3381 0.0
C545 C 0.55445 0.83763 0.37297 0.0
C546 C 0.73194 0.57013 0.52629 0.0
C547 C 0.80473 0.57374 0.52263 0.0
H548 H 0.60528 0.50745 0.52258 0.0
C549 C 0.8059 0.51965 0.51129 0.0
H550 H 0.72957 0.61138 0.53496 0.0
C551 C 0.73534 0.46037 0.50445 0.0
C552 C 0.66229 0.45441 0.50866 0.0
H553 H 0.86089 0.52039 0.50836 0.0
H554 H 0.7375 0.41765 0.49617 0.0
C555 C 0.66119 0.51123 0.5192 0.0
C556 C 0.16005 0.66531 0.67019 0.0
C557 C 0.1223 0.59674 0.67996 0.0
H558 H 0.21324 0.79217 0.6694 0.0
C559 C 0.09632 0.60171 0.69574 0.0
H560 H 0.1813 0.66235 0.65803 0.0
C561 C 0.11287 0.67515 0.70217 0.0
C562 C 0.15797 0.74548 0.69309 0.0
H563 H 0.06715 0.54915 0.70341 0.0
H564 H 0.09457 0.67736 0.71465 0.0
C565 C 0.17816 0.7394 0.67672 0.0
C566 C 0.47883 0.26718 0.83512 0.0
C567 C 0.42919 0.22108 0.84801 0.0
H568 H 0.57747 0.29049 0.81961 0.0
C569 C 0.4316 0.15281 0.8531 0.0
H570 H 0.47806 0.32007 0.831 0.0
C571 C 0.48867 0.13587 0.84651 0.0
C572 C 0.54362 0.18719 0.83485 0.0
H573 H 0.3945 0.11694 0.86317 0.0
H574 H 0.49454 0.08718 0.85153 0.0
C575 C 0.53564 0.25048 0.82864 0.0
C576 C 0.57776 0.7374 0.85119 0.0
C577 C 0.57722 0.80909 0.85366 0.0
H578 H 0.51973 0.61197 0.85593 0.0
C579 C 0.52085 0.80993 0.8644 0.0
H580 H 0.62091 0.73528 0.84303 0.0
C581 C 0.46288 0.73948 0.87165 0.0
C582 C 0.4606 0.667 0.86843 0.0
H583 H 0.51866 0.86413 0.86646 0.0
H584 H 0.41833 0.74125 0.8794 0.0
C585 C 0.52024 0.66704 0.8586 0.0
C586 C 0.9096 0.5665 0.03637 0.0
C587 C 0.91505 0.5141 0.02517 0.0
H588 H 0.88119 0.66002 0.03952 0.0
C589 C 0.91271 0.52666 1.00827 0.0
H590 H 0.91025 0.55686 0.04947 0.0
C591 C 0.89806 0.58623 1.00262 0.0
C592 C 0.88424 0.63329 1.0138 0.0
H593 H 0.91648 0.48652 0.99951 0.0
H594 H 0.88989 0.59047 0.98955 0.0
C595 C 0.89341 0.62549 0.0307 0.0
C596 C 0.38098 0.85845 0.20177 0.0
C597 C 0.44981 0.89841 0.19215 0.0
H598 H 0.25396 0.8024 0.20241 0.0
C599 C 0.44439 0.92353 0.17631 0.0
H600 H 0.38431 0.83791 0.21398 0.0
C601 C 0.37061 0.90521 0.16977 0.0
C602 C 0.30026 0.85902 0.17878 0.0
H603 H 0.4972 0.95461 0.16877 0.0
H604 H 0.36851 0.9243 0.15736 0.0
C605 C 0.30657 0.83836 0.19511 0.0
C606 C 0.53269 0.38076 0.3577 0.0
C607 C 0.58983 0.37853 0.36796 0.0
H608 H 0.43224 0.31425 0.34191 0.0
C609 C 0.58301 0.30476 0.37192 0.0
H610 H 0.53699 0.43709 0.3545 0.0
C611 C 0.52291 0.23476 0.36497 0.0
C612 C 0.46912 0.23738 0.35375 0.0
H613 H 0.62592 0.30168 0.37999 0.0
H614 H 0.52169 0.17925 0.36759 0.0
C615 C 0.47317 0.31074 0.35051 0.0
C616 C 0.16306 0.47723 0.53468 0.0
C617 C 0.16112 0.53388 0.52415 0.0
H618 H 0.18915 0.38158 0.53678 0.0
C619 C 0.16825 0.52737 0.50716 0.0
H620 H 0.15862 0.48201 0.54785 0.0
C621 C 0.18457 0.47001 0.50086 0.0
C622 C 0.1948 0.41861 0.51148 0.0
H623 H 0.16697 0.5706 0.49889 0.0
H624 H 0.19604 0.47028 0.48781 0.0
C625 C 0.18033 0.41995 0.52836 0.0
C626 C 0.63262 0.22136 0.6733 0.0
C627 C 0.59543 0.1629 0.68554 0.0
H628 H 0.73377 0.28588 0.65783 0.0
C629 C 0.63608 0.12477 0.69169 0.0
H630 H 0.60526 0.25416 0.66852 0.0
C631 C 0.71148 0.14431 0.68559 0.0
C632 C 0.74708 0.20158 0.67312 0.0
H633 H 0.60961 0.07937 0.70106 0.0
H634 H 0.74135 0.11386 0.69043 0.0
C635 C 0.70696 0.24004 0.66714 0.0
C636 C 0.9404 0.55841 0.09675 0.0
C637 C 0.90064 0.53604 0.11185 0.0
H638 H 0.97848 0.52243 0.07545 0.0
C639 C 0.85922 0.4548 0.11613 0.0
H640 H 0.97431 0.62068 0.09336 0.0
C641 C 0.86154 0.3975 0.10575 0.0
C642 C 0.90686 0.42149 0.09123 0.0
H643 H 0.83037 0.43652 0.128 0.0
H644 H 0.83314 0.33595 0.10966 0.0
C645 C 0.94354 0.50202 0.0866 0.0
C646 C 0.5673 0.92194 0.27636 0.0
C647 C 0.54645 0.88556 0.26091 0.0
H648 H 0.52926 0.95594 0.29799 0.0
C649 C 0.46579 0.84619 0.25619 0.0
H650 H 0.62916 0.95434 0.28011 0.0
C651 C 0.40764 0.84725 0.26649 0.0
C652 C 0.43019 0.88922 0.28143 0.0
H653 H 0.44874 0.82005 0.24405 0.0
H654 H 0.34672 0.82068 0.26225 0.0
C655 C 0.51002 0.92368 0.28649 0.0
C656 C 0.5979 0.47422 0.45449 0.0
C657 C 0.55219 0.39643 0.44823 0.0
H658 H 0.69163 0.59347 0.45026 0.0
C659 C 0.57693 0.37677 0.4336 0.0
H660 H 0.58112 0.49134 0.46583 0.0
C661 C 0.64177 0.43624 0.4247 0.0
C662 C 0.68338 0.51534 0.43051 0.0
H663 H 0.5429 0.3176 0.42845 0.0
H664 H 0.65515 0.42194 0.41265 0.0
C665 C 0.66234 0.53282 0.44573 0.0
C666 C 0.14121 0.54569 0.58639 0.0
C667 C 0.16901 0.62398 0.59188 0.0
H668 H 0.11353 0.4272 0.59259 0.0
C669 C 0.20297 0.64551 0.60762 0.0
H670 H 0.1145 0.52734 0.57434 0.0
C671 C 0.20228 0.58733 0.61817 0.0
C672 C 0.16902 0.50773 0.61294 0.0
H673 H 0.2237 0.70511 0.61222 0.0
H674 H 0.22149 0.60303 0.6308 0.0
C675 C 0.1413 0.48835 0.59677 0.0
C676 C 0.56361 0.08624 0.75019 0.0
C677 C 0.5289 0.13425 0.75301 0.0
H678 H 0.64634 0.05043 0.75826 0.0
C679 C 0.56208 0.19342 0.76521 0.0
H680 H 0.54031 0.04046 0.74082 0.0
C681 C 0.62443 0.19942 0.77524 0.0
C682 C 0.65464 0.14705 0.773 0.0
H683 H 0.53646 0.23098 0.76772 0.0
H684 H 0.64455 0.24048 0.7855 0.0
C685 C 0.62526 0.0924 0.76006 0.0
C686 C 0.48236 0.64888 0.93775 0.0
C687 C 0.53056 0.629 0.94736 0.0
H688 H 0.38349 0.60596 0.9208 0.0
C689 C 0.50857 0.548 0.94877 0.0
H690 H 0.49687 0.71035 0.93655 0.0
C691 C 0.44353 0.48923 0.9403 0.0
C692 C 0.39752 0.50873 0.93013 0.0
H693 H 0.54276 0.52925 0.95621 0.0
H694 H 0.43166 0.42834 0.94103 0.0
C695 C 0.41646 0.58902 0.92907 0.0
loop_
_geom_bond_atom_site_label_1
_geom_bond_atom_site_label_2
_geom_bond_distance
_geom_bond_site_symmetry_2
_ccdc_geom_bond_type
Co0 N4 2.148 . S
Co0 N10 2.128 1_655 S
Co0 N20 2.194 1_655 S
Co0 O25 2.351 1_655 S
Co0 O26 2.155 . S
Co0 O27 2.096 . S
C1 N4 1.301 . S
C1 N5 1.328 . S
C1 H6 0.930 . S
C2 C3 1.333 . S
C2 N4 1.317 . S
C2 H7 0.930 . S
C3 C2 1.333 . S
C3 N5 1.350 . S
C3 H29 0.931 1_554 S
N4 Co0 2.148 . S
N4 C1 1.301 . S
N4 C2 1.317 . S
N5 C1 1.328 . S
N5 C3 1.350 . S
H6 C1 0.930 . S
H7 C2 0.930 . S
C8 O9 1.224 . S
C8 O27 1.247 . S
O9 C8 1.224 . S
N10 Co0 2.128 1_455 S
N10 C11 1.355 . S
N10 C13 1.311 1_455 S
C11 N10 1.355 . S
C11 C12 1.363 . S
C11 H23 0.929 . S
C12 C11 1.363 . S
C12 N14 1.375 . S
C12 H30 0.931 . S
C13 N10 1.311 1_655 S
C13 N14 1.347 1_655 S
C13 H24 0.929 . S
N14 C12 1.375 . S
N14 C13 1.347 1_455 S
C15 C18 1.365 . S
C15 N20 1.328 . S
C15 H21 0.929 . S
C16 C17 1.362 . S
C16 C19 1.378 . S
C16 H31 0.952 . S
C17 C16 1.362 . S
C17 C18 1.366 . S
C18 C15 1.365 . S
C18 C17 1.366 . S
C18 H32 0.930 . S
C19 C16 1.378 . S
C19 N20 1.315 . S
C19 H22 0.930 . S
N20 Co0 2.194 1_455 S
N20 C15 1.328 . S
N20 C19 1.315 . S
H21 C15 0.929 . S
H22 C19 0.930 . S
H23 C11 0.929 . S
H24 C13 0.929 . S
O25 Co0 2.351 1_455 S
O25 C28 1.244 1_455 S
O26 Co0 2.155 . S
O26 C28 1.240 . S
O27 Co0 2.096 . S
O27 C8 1.247 . S
C28 O25 1.244 1_655 S
C28 O26 1.240 . S
H29 C3 0.931 1_556 S
H30 C12 0.931 . S
H31 C16 0.952 . S
H32 C18 0.930 . S
Co33 N37 2.148 . S
Co33 N43 2.128 1_565 S
Co33 N53 2.194 1_565 S
Co33 O58 2.351 1_565 S
Co33 O59 2.155 . S
Co33 O60 2.096 . S
C34 N37 1.301 . S
C34 N38 1.328 . S
C34 H39 0.930 . S
C35 C36 1.333 . S
C35 N37 1.317 . S
C35 H40 0.930 . S
C36 C35 1.333 . S
C36 N38 1.350 . S
C36 H62 0.931 . S
N37 Co33 2.148 . S
N37 C34 1.301 . S
N37 C35 1.317 . S
N38 C34 1.328 . S
N38 C36 1.350 . S
H39 C34 0.930 . S
H40 C35 0.930 . S
C41 O42 1.224 . S
C41 O60 1.247 . S
O42 C41 1.224 . S
N43 Co33 2.128 1_545 S
N43 C44 1.355 . S
N43 C46 1.311 1_545 S
C44 N43 1.355 . S
C44 C45 1.363 . S
C44 H56 0.929 . S
C45 C44 1.363 . S
C45 N47 1.375 . S
C45 H63 0.931 . S
C46 N43 1.311 1_565 S
C46 N47 1.347 1_565 S
C46 H57 0.929 . S
N47 C45 1.375 . S
N47 C46 1.347 1_545 S
C48 C51 1.365 . S
C48 N53 1.328 . S
C48 H54 0.929 . S
C49 C50 1.362 . S
C49 C52 1.378 . S
C49 H64 0.929 . S
C50 C49 1.362 . S
C50 C51 1.366 . S
C51 C48 1.365 . S
C51 C50 1.366 . S
C51 H65 0.930 . S
C52 C49 1.378 . S
C52 N53 1.315 . S
C52 H55 0.930 . S
N53 Co33 2.194 1_545 S
N53 C48 1.328 . S
N53 C52 1.315 . S
H54 C48 0.929 . S
H55 C52 0.930 . S
H56 C44 0.929 . S
H57 C46 0.929 . S
O58 Co33 2.351 1_545 S
O58 C61 1.244 1_545 S
O59 Co33 2.155 . S
O59 C61 1.240 . S
O60 Co33 2.096 . S
O60 C41 1.247 . S
C61 O58 1.244 1_565 S
C61 O59 1.240 . S
H62 C36 0.931 . S
H63 C45 0.931 . S
H64 C49 0.929 . S
H65 C51 0.930 . S
Co66 N70 2.148 . S
Co66 N76 2.128 . S
Co66 N86 2.194 . S
Co66 O91 2.351 . S
Co66 O92 2.155 . S
Co66 O93 2.096 . S
C67 N70 1.301 . S
C67 N71 1.328 . S
C67 H72 0.930 . S
C68 C69 1.333 . S
C68 N70 1.317 . S
C68 H73 0.930 . S
C69 C68 1.333 . S
C69 N71 1.350 . S
C69 H95 0.931 . S
N70 Co66 2.148 . S
N70 C67 1.301 . S
N70 C68 1.317 . S
N71 C67 1.328 . S
N71 C69 1.350 . S
H72 C67 0.930 . S
H73 C68 0.930 . S
C74 O75 1.224 . S
C74 O93 1.247 . S
O75 C74 1.224 . S
N76 Co66 2.128 . S
N76 C77 1.355 . S
N76 C79 1.311 . S
C77 N76 1.355 . S
C77 C78 1.363 . S
C77 H89 0.929 . S
C78 C77 1.363 . S
C78 N80 1.375 . S
C78 H96 0.931 . S
C79 N76 1.311 . S
C79 N80 1.347 . S
C79 H90 0.929 . S
N80 C78 1.375 . S
N80 C79 1.347 . S
C81 C84 1.365 . S
C81 N86 1.328 . S
C81 H87 0.929 . S
C82 C83 1.362 . S
C82 C85 1.378 . S
C82 H97 0.929 . S
C83 C82 1.362 . S
C83 C84 1.366 . S
C84 C81 1.365 . S
C84 C83 1.366 . S
C84 H98 0.930 . S
C85 C82 1.378 . S
C85 N86 1.315 . S
C85 H88 0.930 . S
N86 Co66 2.194 . S
N86 C81 1.328 . S
N86 C85 1.315 . S
H87 C81 0.929 . S
H88 C85 0.930 . S
H89 C77 0.929 . S
H90 C79 0.929 . S
O91 Co66 2.351 . S
O91 C94 1.244 . S
O92 Co66 2.155 . S
O92 C94 1.240 . S
O93 Co66 2.096 . S
O93 C74 1.247 . S
C94 O91 1.244 . S
C94 O92 1.240 . S
H95 C69 0.931 . S
H96 C78 0.931 . S
H97 C82 0.929 . S
H98 C84 0.930 . S
Co99 N103 2.148 . S
Co99 N109 2.128 1_455 S
Co99 N119 2.194 1_455 S
Co99 O124 2.351 1_455 S
Co99 O125 2.155 . S
Co99 O126 2.096 . S
C100 N103 1.301 . S
C100 N104 1.328 . S
C100 H105 0.930 . S
C101 C102 1.333 . S
C101 N103 1.317 . S
C101 H106 0.930 . S
C102 C101 1.333 . S
C102 N104 1.350 . S
C102 H128 0.931 . S
N103 Co99 2.148 . S
N103 C100 1.301 . S
N103 C101 1.317 . S
N104 C100 1.328 . S
N104 C102 1.350 . S
H105 C100 0.930 . S
H106 C101 0.930 . S
C107 O108 1.224 . S
C107 O126 1.247 . S
O108 C107 1.224 . S
N109 Co99 2.128 1_655 S
N109 C110 1.355 . S
N109 C112 1.311 1_655 S
C110 N109 1.355 . S
C110 C111 1.363 . S
C110 H122 0.929 . S
C111 C110 1.363 . S
C111 N113 1.375 . S
C111 H129 0.931 . S
C112 N109 1.311 1_455 S
C112 N113 1.347 1_455 S
C112 H123 0.929 . S
N113 C111 1.375 . S
N113 C112 1.347 1_655 S
C114 C117 1.365 . S
C114 N119 1.328 . S
C114 H120 0.929 . S
C115 C116 1.362 . S
C115 C118 1.378 . S
C115 H130 0.929 . S
C116 C115 1.362 . S
C116 C117 1.366 . S
C117 C114 1.365 . S
C117 C116 1.366 . S
C117 H131 0.930 . S
C118 C115 1.378 . S
C118 N119 1.315 . S
C118 H121 0.930 . S
N119 Co99 2.194 1_655 S
N119 C114 1.328 . S
N119 C118 1.315 . S
H120 C114 0.929 . S
H121 C118 0.930 . S
H122 C110 0.929 . S
H123 C112 0.929 . S
O124 Co99 2.351 1_655 S
O124 C127 1.244 1_655 S
O125 Co99 2.155 . S
O125 C127 1.240 . S
O126 Co99 2.096 . S
O126 C107 1.247 . S
C127 O124 1.244 1_455 S
C127 O125 1.240 . S
H128 C102 0.931 . S
H129 C111 0.931 . S
H130 C115 0.929 . S
H131 C117 0.930 . S
Co132 N136 2.148 . S
Co132 N142 2.128 1_545 S
Co132 N152 2.194 1_545 S
Co132 O157 2.351 1_545 S
Co132 O158 2.155 . S
Co132 O159 2.096 . S
C133 N136 1.301 . S
C133 N137 1.328 . S
C133 H138 0.930 . S
C134 C135 1.333 . S
C134 N136 1.317 . S
C134 H139 0.930 . S
C135 C134 1.333 . S
C135 N137 1.350 . S
C135 H161 0.931 . S
N136 Co132 2.148 . S
N136 C133 1.301 . S
N136 C134 1.317 . S
N137 C133 1.328 . S
N137 C135 1.350 . S
H138 C133 0.930 . S
H139 C134 0.930 . S
C140 O141 1.224 . S
C140 O159 1.247 . S
O141 C140 1.224 . S
N142 Co132 2.128 1_565 S
N142 C143 1.355 . S
N142 C145 1.311 1_565 S
C143 N142 1.355 . S
C143 C144 1.363 . S
C143 H155 0.929 . S
C144 C143 1.363 . S
C144 N146 1.375 . S
C144 H162 0.931 . S
C145 N142 1.311 1_545 S
C145 N146 1.347 1_545 S
C145 H156 0.929 . S
N146 C144 1.375 . S
N146 C145 1.347 1_565 S
C147 C150 1.365 . S
C147 N152 1.328 . S
C147 H153 0.929 . S
C148 C149 1.362 . S
C148 C151 1.378 . S
C148 H163 0.929 . S
C149 C148 1.362 . S
C149 C150 1.366 . S
C150 C147 1.365 . S
C150 C149 1.366 . S
C150 H164 0.930 . S
C151 C148 1.378 . S
C151 N152 1.315 . S
C151 H154 0.930 . S
N152 Co132 2.194 1_565 S
N152 C147 1.328 . S
N152 C151 1.315 . S
H153 C147 0.929 . S
H154 C151 0.930 . S
H155 C143 0.929 . S
H156 C145 0.929 . S
O157 Co132 2.351 1_565 S
O157 C160 1.244 1_565 S
O158 Co132 2.155 . S
O158 C160 1.240 . S
O159 Co132 2.096 . S
O159 C140 1.247 . S
C160 O157 1.244 1_545 S
C160 O158 1.240 . S
H161 C135 0.931 . S
H162 C144 0.931 . S
H163 C148 0.929 . S
H164 C150 0.930 . S
Co165 N169 2.148 . S
Co165 N175 2.128 . S
Co165 N185 2.194 . S
Co165 O190 2.351 . S
Co165 O191 2.155 . S
Co165 O192 2.096 . S
C166 N169 1.301 . S
C166 N170 1.328 . S
C166 H171 0.930 . S
C167 C168 1.333 . S
C167 N169 1.317 . S
C167 H172 0.930 . S
C168 C167 1.333 . S
C168 N170 1.350 . S
C168 H194 0.931 . S
N169 Co165 2.148 . S
N169 C166 1.301 . S
N169 C167 1.317 . S
N170 C166 1.328 . S
N170 C168 1.350 . S
H171 C166 0.930 . S
H172 C167 0.930 . S
C173 O174 1.224 . S
C173 O192 1.247 . S
O174 C173 1.224 . S
N175 Co165 2.128 . S
N175 C176 1.355 . S
N175 C178 1.311 . S
C176 N175 1.355 . S
C176 C177 1.363 . S
C176 H188 0.929 . S
C177 C176 1.363 . S
C177 N179 1.375 . S
C177 H195 0.931 . S
C178 N175 1.311 . S
C178 N179 1.347 . S
C178 H189 0.929 . S
N179 C177 1.375 . S
N179 C178 1.347 . S
C180 C183 1.365 . S
C180 N185 1.328 . S
C180 H186 0.929 . S
C181 C182 1.362 . S
C181 C184 1.378 . S
C181 H196 0.929 . S
C182 C181 1.362 . S
C182 C183 1.366 . S
C183 C180 1.365 . S
C183 C182 1.366 . S
C183 H197 0.930 . S
C184 C181 1.378 . S
C184 N185 1.315 . S
C184 H187 0.930 . S
N185 Co165 2.194 . S
N185 C180 1.328 . S
N185 C184 1.315 . S
H186 C180 0.929 . S
H187 C184 0.930 . S
H188 C176 0.929 . S
H189 C178 0.929 . S
O190 Co165 2.351 . S
O190 C193 1.244 . S
O191 Co165 2.155 . S
O191 C193 1.240 . S
O192 Co165 2.096 . S
O192 C173 1.247 . S
C193 O190 1.244 . S
C193 O191 1.240 . S
H194 C168 0.931 . S
H195 C177 0.931 . S
H196 C181 0.929 . S
H197 C183 0.930 . S
Co198 N202 2.148 . S
Co198 N208 2.128 1_545 S
Co198 N218 2.194 1_545 S
Co198 O223 2.351 1_545 S
Co198 O224 2.155 . S
Co198 O225 2.096 . S
C199 N202 1.301 . S
C199 N203 1.328 . S
C199 H204 0.930 . S
C200 C201 1.333 . S
C200 N202 1.317 . S
C200 H205 0.930 . S
C201 C200 1.333 . S
C201 N203 1.350 . S
C201 H227 0.931 . S
N202 Co198 2.148 . S
N202 C199 1.301 . S
N202 C200 1.317 . S
N203 C199 1.328 . S
N203 C201 1.350 . S
H204 C199 0.930 . S
H205 C200 0.930 . S
C206 O207 1.224 . S
C206 O225 1.247 . S
O207 C206 1.224 . S
N208 Co198 2.128 1_565 S
N208 C209 1.355 . S
N208 C211 1.311 1_565 S
C209 N208 1.355 . S
C209 C210 1.363 . S
C209 H221 0.929 . S
C210 C209 1.363 . S
C210 N212 1.375 . S
C210 H228 0.931 . S
C211 N208 1.311 1_545 S
C211 N212 1.347 1_545 S
C211 H222 0.929 . S
N212 C210 1.375 . S
N212 C211 1.347 1_565 S
C213 C216 1.365 . S
C213 N218 1.328 . S
C213 H219 0.929 . S
C214 C215 1.362 . S
C214 C217 1.378 . S
C214 H229 0.929 . S
C215 C214 1.362 . S
C215 C216 1.366 . S
C216 C213 1.365 . S
C216 C215 1.366 . S
C216 H230 0.930 . S
C217 C214 1.378 . S
C217 N218 1.315 . S
C217 H220 0.930 . S
N218 Co198 2.194 1_565 S
N218 C213 1.328 . S
N218 C217 1.315 . S
H219 C213 0.929 . S
H220 C217 0.930 . S
H221 C209 0.929 . S
H222 C211 0.929 . S
O223 Co198 2.351 1_565 S
O223 C226 1.244 1_565 S
O224 Co198 2.155 . S
O224 C226 1.240 . S
O225 Co198 2.096 . S
O225 C206 1.247 . S
C226 O223 1.244 1_545 S
C226 O224 1.240 . S
H227 C201 0.931 . S
H228 C210 0.931 . S
H229 C214 0.929 . S
H230 C216 0.930 . S
Co231 N235 2.148 . S
Co231 N241 2.128 . S
Co231 N251 2.194 . S
Co231 O256 2.351 . S
Co231 O257 2.155 . S
Co231 O258 2.096 . S
C232 N235 1.301 . S
C232 N236 1.328 . S
C232 H237 0.930 . S
C233 C234 1.333 . S
C233 N235 1.317 . S
C233 H238 0.930 . S
C234 C233 1.333 . S
C234 N236 1.350 . S
C234 H260 0.931 1_556 S
N235 Co231 2.148 . S
N235 C232 1.301 . S
N235 C233 1.317 . S
N236 C232 1.328 . S
N236 C234 1.350 . S
H237 C232 0.930 . S
H238 C233 0.930 . S
C239 O240 1.224 . S
C239 O258 1.247 . S
O240 C239 1.224 . S
N241 Co231 2.128 . S
N241 C242 1.355 . S
N241 C244 1.311 . S
C242 N241 1.355 . S
C242 C243 1.363 . S
C242 H254 0.929 . S
C243 C242 1.363 . S
C243 N245 1.375 . S
C243 H261 0.931 . S
C244 N241 1.311 . S
C244 N245 1.347 . S
C244 H255 0.929 . S
N245 C243 1.375 . S
N245 C244 1.347 . S
C246 C249 1.365 . S
C246 N251 1.328 . S
C246 H252 0.929 . S
C247 C248 1.362 . S
C247 C250 1.378 . S
C247 H262 0.979 . S
C248 C247 1.362 . S
C248 C249 1.366 . S
C249 C246 1.365 . S
C249 C248 1.366 . S
C249 H263 0.930 . S
C250 C247 1.378 . S
C250 N251 1.315 . S
C250 H253 0.930 . S
N251 Co231 2.194 . S
N251 C246 1.328 . S
N251 C250 1.315 . S
H252 C246 0.929 . S
H253 C250 0.930 . S
H254 C242 0.929 . S
H255 C244 0.929 . S
O256 Co231 2.351 . S
O256 C259 1.244 . S
O257 Co231 2.155 . S
O257 C259 1.240 . S
O258 Co231 2.096 . S
O258 C239 1.247 . S
C259 O256 1.244 . S
C259 O257 1.240 . S
H260 C234 0.931 1_554 S
H261 C243 0.931 . S
H262 C247 0.979 . S
H263 C249 0.930 . S
Co264 N268 2.148 . S
Co264 N274 2.128 1_655 S
Co264 N284 2.194 1_655 S
Co264 O289 2.351 1_655 S
Co264 O290 2.155 . S
Co264 O291 2.096 . S
C265 N268 1.301 . S
C265 N269 1.328 . S
C265 H270 0.930 . S
C266 C267 1.333 . S
C266 N268 1.317 . S
C266 H271 0.930 . S
C267 C266 1.333 . S
C267 N269 1.350 . S
C267 H293 0.931 . S
N268 Co264 2.148 . S
N268 C265 1.301 . S
N268 C266 1.317 . S
N269 C265 1.328 . S
N269 C267 1.350 . S
H270 C265 0.930 . S
H271 C266 0.930 . S
C272 O273 1.224 . S
C272 O291 1.247 . S
O273 C272 1.224 . S
N274 Co264 2.128 1_455 S
N274 C275 1.355 . S
N274 C277 1.311 1_455 S
C275 N274 1.355 . S
C275 C276 1.363 . S
C275 H287 0.929 . S
C276 C275 1.363 . S
C276 N278 1.375 . S
C276 H294 0.931 . S
C277 N274 1.311 1_655 S
C277 N278 1.347 1_655 S
C277 H288 0.929 . S
N278 C276 1.375 . S
N278 C277 1.347 1_455 S
C279 C282 1.365 . S
C279 N284 1.328 . S
C279 H285 0.929 . S
C280 C281 1.362 . S
C280 C283 1.378 . S
C280 H295 0.929 . S
C281 C280 1.362 . S
C281 C282 1.366 . S
C282 C279 1.365 . S
C282 C281 1.366 . S
C282 H296 0.930 . S
C283 C280 1.378 . S
C283 N284 1.315 . S
C283 H286 0.930 . S
N284 Co264 2.194 1_455 S
N284 C279 1.328 . S
N284 C283 1.315 . S
H285 C279 0.929 . S
H286 C283 0.930 . S
H287 C275 0.929 . S
H288 C277 0.929 . S
O289 Co264 2.351 1_455 S
O289 C292 1.244 1_455 S
O290 Co264 2.155 . S
O290 C292 1.240 . S
O291 Co264 2.096 . S
O291 C272 1.247 . S
C292 O289 1.244 1_655 S
C292 O290 1.240 . S
H293 C267 0.931 . S
H294 C276 0.931 . S
H295 C280 0.929 . S
H296 C282 0.930 . S
Co297 N301 2.148 . S
Co297 N307 2.128 1_565 S
Co297 N317 2.194 1_565 S
Co297 O322 2.351 1_565 S
Co297 O323 2.155 . S
Co297 O324 2.096 . S
C298 N301 1.301 . S
C298 N302 1.328 . S
C298 H303 0.930 . S
C299 C300 1.333 . S
C299 N301 1.317 . S
C299 H304 0.930 . S
C300 C299 1.333 . S
C300 N302 1.350 . S
C300 H326 0.931 . S
N301 Co297 2.148 . S
N301 C298 1.301 . S
N301 C299 1.317 . S
N302 C298 1.328 . S
N302 C300 1.350 . S
H303 C298 0.930 . S
H304 C299 0.930 . S
C305 O306 1.224 . S
C305 O324 1.247 . S
O306 C305 1.224 . S
N307 Co297 2.128 1_545 S
N307 C308 1.355 . S
N307 C310 1.311 1_545 S
C308 N307 1.355 . S
C308 C309 1.363 . S
C308 H320 0.929 . S
C309 C308 1.363 . S
C309 N311 1.375 . S
C309 H327 0.931 . S
C310 N307 1.311 1_565 S
C310 N311 1.347 1_565 S
C310 H321 0.929 . S
N311 C309 1.375 . S
N311 C310 1.347 1_545 S
C312 C315 1.365 . S
C312 N317 1.328 . S
C312 H318 0.929 . S
C313 C314 1.362 . S
C313 C316 1.378 . S
C313 H328 0.929 . S
C314 C313 1.362 . S
C314 C315 1.366 . S
C315 C312 1.365 . S
C315 C314 1.366 . S
C315 H329 0.930 . S
C316 C313 1.378 . S
C316 N317 1.315 . S
C316 H319 0.930 . S
N317 Co297 2.194 1_545 S
N317 C312 1.328 . S
N317 C316 1.315 . S
H318 C312 0.929 . S
H319 C316 0.930 . S
H320 C308 0.929 . S
H321 C310 0.929 . S
O322 Co297 2.351 1_545 S
O322 C325 1.244 1_545 S
O323 Co297 2.155 . S
O323 C325 1.240 . S
O324 Co297 2.096 . S
O324 C305 1.247 . S
C325 O322 1.244 1_565 S
C325 O323 1.240 . S
H326 C300 0.931 . S
H327 C309 0.931 . S
H328 C313 0.929 . S
H329 C315 0.930 . S
Co330 N334 2.148 . S
Co330 N340 2.128 . S
Co330 N350 2.194 . S
Co330 O355 2.351 . S
Co330 O356 2.155 . S
Co330 O357 2.096 . S
C331 N334 1.301 . S
C331 N335 1.328 . S
C331 H336 0.930 . S
C332 C333 1.333 . S
C332 N334 1.317 . S
C332 H337 0.930 . S
C333 C332 1.333 . S
C333 N335 1.350 . S
C333 H359 0.931 . S
N334 Co330 2.148 . S
N334 C331 1.301 . S
N334 C332 1.317 . S
N335 C331 1.328 . S
N335 C333 1.350 . S
H336 C331 0.930 . S
H337 C332 0.930 . S
C338 O339 1.224 . S
C338 O357 1.247 . S
O339 C338 1.224 . S
N340 Co330 2.128 . S
N340 C341 1.355 . S
N340 C343 1.311 . S
C341 N340 1.355 . S
C341 C342 1.363 . S
C341 H353 0.929 . S
C342 C341 1.363 . S
C342 N344 1.375 . S
C342 H360 0.931 . S
C343 N340 1.311 . S
C343 N344 1.347 . S
C343 H354 0.929 . S
N344 C342 1.375 . S
N344 C343 1.347 . S
C345 C348 1.365 . S
C345 N350 1.328 . S
C345 H351 0.929 . S
C346 C347 1.362 . S
C346 C349 1.378 . S
C346 H361 0.929 . S
C347 C346 1.362 . S
C347 C348 1.366 . S
C348 C345 1.365 . S
C348 C347 1.366 . S
C348 H362 0.930 . S
C349 C346 1.378 . S
C349 N350 1.315 . S
C349 H352 0.930 . S
N350 Co330 2.194 . S
N350 C345 1.328 . S
N350 C349 1.315 . S
H351 C345 0.929 . S
H352 C349 0.930 . S
H353 C341 0.929 . S
H354 C343 0.929 . S
O355 Co330 2.351 . S
O355 C358 1.244 . S
O356 Co330 2.155 . S
O356 C358 1.240 . S
O357 Co330 2.096 . S
O357 C338 1.247 . S
C358 O355 1.244 . S
C358 O356 1.240 . S
H359 C333 0.931 . S
H360 C342 0.931 . S
H361 C346 0.929 . S
H362 C348 0.930 . S
Co363 N367 2.148 . S
Co363 N373 2.128 1_455 S
Co363 N383 2.194 1_455 S
Co363 O388 2.351 1_455 S
Co363 O389 2.155 . S
Co363 O390 2.096 . S
C364 N367 1.301 . S
C364 N368 1.328 . S
C364 H369 0.930 . S
C365 C366 1.333 . S
C365 N367 1.317 . S
C365 H370 0.930 . S
C366 C365 1.333 . S
C366 N368 1.350 . S
C366 H392 0.931 . S
N367 Co363 2.148 . S
N367 C364 1.301 . S
N367 C365 1.317 . S
N368 C364 1.328 . S
N368 C366 1.350 . S
H369 C364 0.930 . S
H370 C365 0.930 . S
C371 O372 1.224 . S
C371 O390 1.247 . S
O372 C371 1.224 . S
N373 Co363 2.128 1_655 S
N373 C374 1.355 . S
N373 C376 1.311 1_655 S
C374 N373 1.355 . S
C374 C375 1.363 . S
C374 H386 0.929 . S
C375 C374 1.363 . S
C375 N377 1.375 . S
C375 H393 0.931 . S
C376 N373 1.311 1_455 S
C376 N377 1.347 1_455 S
C376 H387 0.929 . S
N377 C375 1.375 . S
N377 C376 1.347 1_655 S
C378 C381 1.365 . S
C378 N383 1.328 . S
C378 H384 0.929 . S
C379 C380 1.362 . S
C379 C382 1.378 . S
C379 H394 0.929 . S
C380 C379 1.362 . S
C380 C381 1.366 . S
C381 C378 1.365 . S
C381 C380 1.366 . S
C381 H395 0.930 . S
C382 C379 1.378 . S
C382 N383 1.315 . S
C382 H385 0.930 . S
N383 Co363 2.194 1_655 S
N383 C378 1.328 . S
N383 C382 1.315 . S
H384 C378 0.929 . S
H385 C382 0.930 . S
H386 C374 0.929 . S
H387 C376 0.929 . S
O388 Co363 2.351 1_655 S
O388 C391 1.244 1_655 S
O389 Co363 2.155 . S
O389 C391 1.240 . S
O390 Co363 2.096 . S
O390 C371 1.247 . S
C391 O388 1.244 1_455 S
C391 O389 1.240 . S
H392 C366 0.931 . S
H393 C375 0.931 . S
H394 C379 0.929 . S
H395 C381 0.930 . S
C396 C397 1.387 . S
C396 H400 0.950 . S
C396 C405 1.390 1_566 S
C397 C396 1.387 . S
C397 C399 1.376 1_565 S
H398 C405 0.950 . S
C399 C397 1.376 1_545 S
C399 C401 1.398 1_556 S
C399 H403 0.953 1_545 S
H400 C396 0.950 . S
C401 C399 1.398 1_554 S
C401 C402 1.387 . S
C401 H404 0.950 . S
C402 C401 1.387 . S
C402 C405 1.387 . S
H403 C399 0.953 1_565 S
H404 C401 0.950 . S
C405 C396 1.390 1_544 S
C405 H398 0.950 . S
C405 C402 1.387 . S
C406 C407 1.387 . S
C406 H410 0.950 . S
C406 C415 1.390 . S
C407 C406 1.387 . S
C407 C409 1.387 . S
H408 C415 0.950 . S
C409 C407 1.387 . S
C409 C411 1.390 . S
C409 H413 0.950 . S
H410 C406 0.950 . S
C411 C409 1.390 . S
C411 C412 1.387 . S
C411 H414 0.950 . S
C412 C411 1.387 . S
C412 C415 1.387 . S
H413 C409 0.950 . S
H414 C411 0.950 . S
C415 C406 1.390 . S
C415 H408 0.950 . S
C415 C412 1.387 . S
C416 C417 1.387 . S
C416 H420 0.950 . S
C416 C425 1.390 1_655 S
C417 C416 1.387 . S
C417 C419 1.387 . S
H418 C425 0.950 . S
C419 C417 1.387 . S
C419 C421 1.390 1_655 S
C419 H423 0.950 . S
H420 C416 0.950 . S
C421 C419 1.390 1_455 S
C421 C422 1.387 . S
C421 H424 0.950 . S
C422 C421 1.387 . S
C422 C425 1.387 . S
H423 C419 0.950 . S
H424 C421 0.950 . S
C425 C416 1.390 1_455 S
C425 H418 0.950 . S
C425 C422 1.387 . S
C426 C427 1.387 . S
C426 H430 0.950 . S
C426 C435 1.390 1_545 S
C427 C426 1.387 . S
C427 C429 1.387 . S
H428 C435 0.950 . S
C429 C427 1.387 . S
C429 C431 1.390 1_545 S
C429 H433 0.950 . S
H430 C426 0.950 . S
C431 C429 1.390 1_565 S
C431 C432 1.387 . S
C431 H434 0.950 . S
C432 C431 1.387 . S
C432 C435 1.387 . S
H433 C429 0.950 . S
H434 C431 0.950 . S
C435 C426 1.390 1_565 S
C435 H428 0.950 . S
C435 C432 1.387 . S
C436 C437 1.387 . S
C436 H440 0.950 . S
C436 C445 1.390 . S
C437 C436 1.387 . S
C437 C439 1.387 . S
H438 C445 0.950 . S
C439 C437 1.387 . S
C439 C441 1.390 . S
C439 H443 0.950 . S
H440 C436 0.950 . S
C441 C439 1.390 . S
C441 C442 1.387 . S
C441 H444 0.950 . S
C442 C441 1.387 . S
C442 C445 1.387 . S
H443 C439 0.950 . S
H444 C441 0.950 . S
C445 C436 1.390 . S
C445 H438 0.950 . S
C445 C442 1.387 . S
C446 C447 1.387 . S
C446 H450 0.950 . S
C446 C455 1.390 . S
C447 C446 1.387 . S
C447 C449 1.387 . S
H448 C455 0.950 1_455 S
C449 C447 1.387 . S
C449 C451 1.390 1_655 S
C449 H453 0.950 . S
H450 C446 0.950 . S
C451 C449 1.390 1_455 S
C451 C452 1.387 . S
C451 H454 0.950 . S
C452 C451 1.387 . S
C452 C455 1.387 1_455 S
H453 C449 0.950 . S
H454 C451 0.950 . S
C455 C446 1.390 . S
C455 H448 0.950 1_655 S
C455 C452 1.387 1_655 S
C456 C457 1.387 . S
C456 H460 0.950 . S
C456 C465 1.390 . S
C457 C456 1.387 . S
C457 C459 1.387 1_455 S
H458 C465 0.950 . S
C459 C457 1.387 1_655 S
C459 C461 1.390 1_545 S
C459 H463 0.950 1_545 S
H460 C456 0.950 . S
C461 C459 1.390 1_565 S
C461 C462 1.387 1_655 S
C461 H464 0.950 . S
C462 C461 1.387 1_455 S
C462 C465 1.387 1_565 S
H463 C459 0.950 1_565 S
H464 C461 0.950 . S
C465 C456 1.390 . S
C465 H458 0.950 . S
C465 C462 1.387 1_545 S
C466 C467 1.387 1_455 S
C466 H470 0.950 . S
C466 C475 1.390 . S
C467 C466 1.387 1_655 S
C467 C469 1.387 1_545 S
H468 C475 0.950 . S
C469 C467 1.387 1_565 S
C469 C471 1.390 1_655 S
C469 H473 0.950 . S
H470 C466 0.950 . S
C471 C469 1.390 1_455 S
C471 C472 1.387 1_565 S
C471 H474 0.950 . S
C472 C471 1.387 1_545 S
C472 C475 1.387 . S
H473 C469 0.950 . S
H474 C471 0.950 . S
C475 C466 1.390 . S
C475 H468 0.950 . S
C475 C472 1.387 . S
C476 C477 1.387 1_565 S
C476 H480 0.950 . S
C476 C485 1.390 1_455 S
C477 C476 1.387 1_545 S
C477 C479 1.376 1_455 S
H478 C485 0.950 . S
C479 C477 1.376 1_655 S
C479 C481 1.395 . S
C479 H483 0.956 1_655 S
H480 C476 0.950 . S
C481 C479 1.395 . S
C481 C482 1.387 1_545 S
C481 H484 0.950 . S
C482 C481 1.387 1_565 S
C482 C485 1.387 . S
H483 C479 0.956 1_455 S
H484 C481 0.950 . S
C485 C476 1.390 1_655 S
C485 H478 0.950 . S
C485 C482 1.387 . S
C486 C487 1.387 . S
C486 H490 0.950 . S
C486 C495 1.390 1_545 S
C487 C486 1.387 . S
C487 C489 1.387 1_545 S
H488 C495 0.950 . S
C489 C487 1.387 1_565 S
C489 C491 1.390 . S
C489 H493 0.950 . S
H490 C486 0.950 . S
C491 C489 1.390 . S
C491 C492 1.387 . S
C491 H494 0.950 . S
C492 C491 1.387 . S
C492 C495 1.387 . S
H493 C489 0.950 . S
H494 C491 0.950 . S
C495 C486 1.390 1_565 S
C495 H488 0.950 . S
C495 C492 1.387 . S
C496 C497 1.387 1_655 S
C496 H500 0.950 . S
C496 C505 1.390 . S
C497 C496 1.387 1_455 S
C497 C499 1.387 1_565 S
H498 C505 0.950 . S
C499 C497 1.387 1_545 S
C499 C501 1.390 1_455 S
C499 H503 0.950 . S
H500 C496 0.950 . S
C501 C499 1.390 1_655 S
C501 C502 1.387 1_545 S
C501 H504 0.950 . S
C502 C501 1.387 1_565 S
C502 C505 1.387 . S
H503 C499 0.950 . S
H504 C501 0.950 . S
C505 C496 1.390 . S
C505 H498 0.950 . S
C505 C502 1.387 . S
C506 C507 1.387 1_545 S
C506 H510 0.950 . S
C506 C515 1.390 1_655 S
C507 C506 1.387 1_565 S
C507 C509 1.387 . S
H508 C515 0.950 . S
C509 C507 1.387 . S
C509 C511 1.390 1_655 S
C509 H513 0.950 . S
H510 C506 0.950 . S
C511 C509 1.390 1_455 S
C511 C512 1.387 1_565 S
C511 H514 0.950 . S
C512 C511 1.387 1_545 S
C512 C515 1.387 . S
H513 C509 0.950 . S
H514 C511 0.950 . S
C515 C506 1.390 1_455 S
C515 H508 0.950 . S
C515 C512 1.387 . S
C516 C517 1.387 1_554 S
C516 H520 0.950 . S
C516 C525 1.390 . S
C517 C516 1.387 1_556 S
C517 C519 1.387 . S
H518 C525 0.950 . S
C519 C517 1.387 . S
C519 C521 1.390 . S
C519 H523 0.950 . S
H520 C516 0.950 . S
C521 C519 1.390 . S
C521 C522 1.387 1_556 S
C521 H524 0.950 . S
C522 C521 1.387 1_554 S
C522 C525 1.387 . S
H523 C519 0.950 . S
H524 C521 0.950 . S
C525 C516 1.390 . S
C525 H518 0.950 . S
C525 C522 1.387 . S
C526 C527 1.387 . S
C526 H530 0.950 . S
C526 C535 1.390 . S
C527 C526 1.387 . S
C527 C529 1.387 . S
H528 C535 0.950 . S
C529 C527 1.387 . S
C529 C531 1.390 . S
C529 H533 0.950 . S
H530 C526 0.950 . S
C531 C529 1.390 . S
C531 C532 1.387 . S
C531 H534 0.950 . S
C532 C531 1.387 . S
C532 C535 1.387 . S
H533 C529 0.950 . S
H534 C531 0.950 . S
C535 C526 1.390 . S
C535 H528 0.950 . S
C535 C532 1.387 . S
C536 C537 1.387 . S
C536 H540 0.950 . S
C536 C545 1.390 . S
C537 C536 1.387 . S
C537 C539 1.387 . S
H538 C545 0.950 . S
C539 C537 1.387 . S
C539 C541 1.390 . S
C539 H543 0.950 . S
H540 C536 0.950 . S
C541 C539 1.390 . S
C541 C542 1.387 . S
C541 H544 0.950 . S
C542 C541 1.387 . S
C542 C545 1.387 . S
H543 C539 0.950 . S
H544 C541 0.950 . S
C545 C536 1.390 . S
C545 H538 0.950 . S
C545 C542 1.387 . S
C546 C547 1.387 . S
C546 H550 0.950 . S
C546 C555 1.390 . S
C547 C546 1.387 . S
C547 C549 1.387 . S
H548 C555 0.950 . S
C549 C547 1.387 . S
C549 C551 1.390 . S
C549 H553 0.950 . S
H550 C546 0.950 . S
C551 C549 1.390 . S
C551 C552 1.387 . S
C551 H554 0.950 . S
C552 C551 1.387 . S
C552 C555 1.387 . S
H553 C549 0.950 . S
H554 C551 0.950 . S
C555 C546 1.390 . S
C555 H548 0.950 . S
C555 C552 1.387 . S
C556 C557 1.387 . S
C556 H560 0.950 . S
C556 C565 1.390 . S
C557 C556 1.387 . S
C557 C559 1.387 . S
H558 C565 0.950 . S
C559 C557 1.387 . S
C559 C561 1.390 . S
C559 H563 0.950 . S
H560 C556 0.950 . S
C561 C559 1.390 . S
C561 C562 1.387 . S
C561 H564 0.950 . S
C562 C561 1.387 . S
C562 C565 1.387 . S
H563 C559 0.950 . S
H564 C561 0.950 . S
C565 C556 1.390 . S
C565 H558 0.950 . S
C565 C562 1.387 . S
C566 C567 1.387 . S
C566 H570 0.950 . S
C566 C575 1.390 . S
C567 C566 1.387 . S
C567 C569 1.387 . S
H568 C575 0.950 . S
C569 C567 1.387 . S
C569 C571 1.390 . S
C569 H573 0.950 . S
H570 C566 0.950 . S
C571 C569 1.390 . S
C571 C572 1.387 . S
C571 H574 0.950 . S
C572 C571 1.387 . S
C572 C575 1.387 . S
H573 C569 0.950 . S
H574 C571 0.950 . S
C575 C566 1.390 . S
C575 H568 0.950 . S
C575 C572 1.387 . S
C576 C577 1.387 . S
C576 H580 0.950 . S
C576 C585 1.390 . S
C577 C576 1.387 . S
C577 C579 1.387 . S
H578 C585 0.950 . S
C579 C577 1.387 . S
C579 C581 1.390 . S
C579 H583 0.950 . S
H580 C576 0.950 . S
C581 C579 1.390 . S
C581 C582 1.387 . S
C581 H584 0.950 . S
C582 C581 1.387 . S
C582 C585 1.387 . S
H583 C579 0.950 . S
H584 C581 0.950 . S
C585 C576 1.390 . S
C585 H578 0.950 . S
C585 C582 1.387 . S
C586 C587 1.387 . S
C586 H590 0.950 . S
C586 C595 1.390 . S
C587 C586 1.387 . S
C587 C589 1.387 1_554 S
H588 C595 0.950 . S
C589 C587 1.387 1_556 S
C589 C591 1.390 . S
C589 H593 0.950 . S
H590 C586 0.950 . S
C591 C589 1.390 . S
C591 C592 1.387 . S
C591 H594 0.950 . S
C592 C591 1.387 . S
C592 C595 1.387 1_556 S
H593 C589 0.950 . S
H594 C591 0.950 . S
C595 C586 1.390 . S
C595 H588 0.950 . S
C595 C592 1.387 1_554 S
C596 C597 1.387 . S
C596 H600 0.950 . S
C596 C605 1.390 . S
C597 C596 1.387 . S
C597 C599 1.387 . S
H598 C605 0.950 . S
C599 C597 1.387 . S
C599 C601 1.390 . S
C599 H603 0.950 . S
H600 C596 0.950 . S
C601 C599 1.390 . S
C601 C602 1.387 . S
C601 H604 0.950 . S
C602 C601 1.387 . S
C602 C605 1.387 . S
H603 C599 0.950 . S
H604 C601 0.950 . S
C605 C596 1.390 . S
C605 H598 0.950 . S
C605 C602 1.387 . S
C606 C607 1.387 . S
C606 H610 0.950 . S
C606 C615 1.390 . S
C607 C606 1.387 . S
C607 C609 1.387 . S
H608 C615 0.950 . S
C609 C607 1.387 . S
C609 C611 1.390 . S
C609 H613 0.950 . S
H610 C606 0.950 . S
C611 C609 1.390 . S
C611 C612 1.387 . S
C611 H614 0.950 . S
C612 C611 1.387 . S
C612 C615 1.387 . S
H613 C609 0.950 . S
H614 C611 0.950 . S
C615 C606 1.390 . S
C615 H608 0.950 . S
C615 C612 1.387 . S
C616 C617 1.387 . S
C616 H620 0.950 . S
C616 C625 1.390 . S
C617 C616 1.387 . S
C617 C619 1.387 . S
H618 C625 0.950 . S
C619 C617 1.387 . S
C619 C621 1.390 . S
C619 H623 0.950 . S
H620 C616 0.950 . S
C621 C619 1.390 . S
C621 C622 1.387 . S
C621 H624 0.950 . S
C622 C621 1.387 . S
C622 C625 1.387 . S
H623 C619 0.950 . S
H624 C621 0.950 . S
C625 C616 1.390 . S
C625 H618 0.950 . S
C625 C622 1.387 . S
C626 C627 1.387 . S
C626 H630 0.950 . S
C626 C635 1.390 . S
C627 C626 1.387 . S
C627 C629 1.387 . S
H628 C635 0.950 . S
C629 C627 1.387 . S
C629 C631 1.390 . S
C629 H633 0.950 . S
H630 C626 0.950 . S
C631 C629 1.390 . S
C631 C632 1.387 . S
C631 H634 0.950 . S
C632 C631 1.387 . S
C632 C635 1.387 . S
H633 C629 0.950 . S
H634 C631 0.950 . S
C635 C626 1.390 . S
C635 H628 0.950 . S
C635 C632 1.387 . S
C636 C637 1.387 . S
C636 H640 0.950 . S
C636 C645 1.390 . S
C637 C636 1.387 . S
C637 C639 1.387 . S
H638 C645 0.950 . S
C639 C637 1.387 . S
C639 C641 1.390 . S
C639 H643 0.950 . S
H640 C636 0.950 . S
C641 C639 1.390 . S
C641 C642 1.387 . S
C641 H644 0.950 . S
C642 C641 1.387 . S
C642 C645 1.387 . S
H643 C639 0.950 . S
H644 C641 0.950 . S
C645 C636 1.390 . S
C645 H638 0.950 . S
C645 C642 1.387 . S
C646 C647 1.387 1_545 S
C646 H650 0.950 . S
C646 C655 1.390 . S
C647 C646 1.387 1_565 S
C647 C649 1.387 . S
H648 C655 0.950 . S
C649 C647 1.387 . S
C649 C651 1.390 . S
C649 H653 0.950 . S
H650 C646 0.950 . S
C651 C649 1.390 . S
C651 C652 1.387 . S
C651 H654 0.950 . S
C652 C651 1.387 . S
C652 C655 1.387 1_565 S
H653 C649 0.950 . S
H654 C651 0.950 . S
C655 C646 1.390 . S
C655 H648 0.950 . S
C655 C652 1.387 1_545 S
C656 C657 1.387 . S
C656 H660 0.950 . S
C656 C665 1.390 . S
C657 C656 1.387 . S
C657 C659 1.387 . S
H658 C665 0.950 . S
C659 C657 1.387 . S
C659 C661 1.390 . S
C659 H663 0.950 . S
H660 C656 0.950 . S
C661 C659 1.390 . S
C661 C662 1.387 . S
C661 H664 0.950 . S
C662 C661 1.387 . S
C662 C665 1.387 . S
H663 C659 0.950 . S
H664 C661 0.950 . S
C665 C656 1.390 . S
C665 H658 0.950 . S
C665 C662 1.387 . S
C666 C667 1.387 . S
C666 H670 0.950 . S
C666 C675 1.390 . S
C667 C666 1.387 . S
C667 C669 1.387 . S
H668 C675 0.950 . S
C669 C667 1.387 . S
C669 C671 1.390 . S
C669 H673 0.950 . S
H670 C666 0.950 . S
C671 C669 1.390 . S
C671 C672 1.387 . S
C671 H674 0.950 . S
C672 C671 1.387 . S
C672 C675 1.387 . S
H673 C669 0.950 . S
H674 C671 0.950 . S
C675 C666 1.390 . S
C675 H668 0.950 . S
C675 C672 1.387 . S
C676 C677 1.387 1_565 S
C676 H680 0.950 . S
C676 C685 1.390 . S
C677 C676 1.387 1_545 S
C677 C679 1.387 . S
H678 C685 0.950 . S
C679 C677 1.387 . S
C679 C681 1.390 . S
C679 H683 0.950 . S
H680 C676 0.950 . S
C681 C679 1.390 . S
C681 C682 1.387 . S
C681 H684 0.950 . S
C682 C681 1.387 . S
C682 C685 1.387 1_545 S
H683 C679 0.950 . S
H684 C681 0.950 . S
C685 C676 1.390 . S
C685 H678 0.950 . S
C685 C682 1.387 1_565 S
C686 C687 1.387 . S
C686 H690 0.950 . S
C686 C695 1.390 . S
C687 C686 1.387 . S
C687 C689 1.387 . S
H688 C695 0.950 . S
C689 C687 1.387 . S
C689 C691 1.390 . S
C689 H693 0.950 . S
H690 C686 0.950 . S
C691 C689 1.390 . S
C691 C692 1.387 . S
C691 H694 0.950 . S
C692 C691 1.387 . S
C692 C695 1.387 . S
H693 C689 0.950 . S
H694 C691 0.950 . S
C695 C686 1.390 . S
C695 H688 0.950 . S
C695 C692 1.387 . S
C397 C239 1.721 . S
C402 C8 1.735 . S
C407 C272 1.646 . S
C412 C41 1.649 . S
C417 C74 1.721 . S
C422 C305 1.735 . S
C427 C338 1.723 . S
C432 C107 1.737 . S
C437 C140 1.648 . S
C442 C371 1.650 . S
C447 C206 1.735 . S
C452 C173 1.721 . S
C457 N14 1.729 . S
C462 N278 1.728 . S
C467 N47 1.728 . S
C472 N311 1.729 . S
C477 N344 1.649 . S
C482 N80 1.649 . S
C487 N377 1.727 . S
C492 N113 1.729 . S
C497 N146 1.728 . S
C502 N212 1.729 . S
C507 N245 1.649 . S
C512 N179 1.649 . S
C517 N236 1.076 . S
C522 C17 1.083 . S
C527 N269 1.191 . S
C532 C50 1.209 . S
C537 N302 1.240 . S
C542 C83 1.269 . S
C547 C116 1.084 . S
C552 N335 1.075 . S
C557 N368 1.189 . S
C562 C149 1.209 . S
C567 C182 1.268 . S
C572 N203 1.239 . S
C577 C215 1.084 . S
C582 N170 1.075 . S
C587 N5 1.238 . S
C592 C248 1.270 . S
C597 N38 1.189 . S
C602 C281 1.209 . S
C607 N71 1.076 . S
C612 C314 1.083 . S
C617 N104 1.237 . S
C622 C347 1.270 . S
C627 N137 1.190 . S
C632 C380 1.209 . S
C637 C292 1.603 . S
C642 C28 1.605 . S
C647 C61 1.604 . S
C652 C325 1.605 . S
C657 C358 1.743 . S
C662 C94 1.743 . S
C667 C127 1.604 . S
C672 C391 1.604 . S
C677 C160 1.604 . S
C682 C226 1.605 . S
C687 C259 1.743 . S
C692 C193 1.742 . S
