# Generated by pormake.
# Topology qtz-x, (6)-cn, num edge types: 1
# Building blocks:
#     Node 0, Type 0, BuildingBlock: GEDQOX_clean_sbu_0, # of connection points: 6
#     Node 1, Type 0, BuildingBlock: GEDQOX_clean_sbu_0, # of connection points: 6
#     Node 2, Type 0, BuildingBlock: GEDQOX_clean_sbu_0, # of connection points: 6
#     Edge 3, Type (0, 0), BuildingBlock: EZIPEK_clean_linker_0, # of connection points: 2
#     Edge 4, Type (0, 0), BuildingBlock: EZIPEK_clean_linker_0, # of connection points: 2
#     Edge 5, Type (0, 0), BuildingBlock: EZIPEK_clean_linker_0, # of connection points: 2
#     Edge 6, Type (0, 0), BuildingBlock: EZIPEK_clean_linker_0, # of connection points: 2
#     Edge 7, Type (0, 0), BuildingBlock: EZIPEK_clean_linker_0, # of connection points: 2
#     Edge 8, Type (0, 0), BuildingBlock: EZIPEK_clean_linker_0, # of connection points: 2
#     Edge 9, Type (0, 0), BuildingBlock: EZIPEK_clean_linker_0, # of connection points: 2
#     Edge 10, Type (0, 0), BuildingBlock: EZIPEK_clean_linker_0, # of connection points: 2
#     Edge 11, Type (0, 0), BuildingBlock: EZIPEK_clean_linker_0, # of connection points: 2
# Relax obj value: 0.326
# Max RMSD: 0.311
# Mean RMSD: 0.268
data_MOF--net-qtz-x--node1-GEDQOX_clean_sbu_0--edge1-EZIPEK_clean_linker_0
_symmetry_space_group_name_H-M    P1
_symmetry_Int_Tables_number       1
_symmetry_cell_setting            triclinic
loop_
_symmetry_equiv_pos_as_xyz
'x, y, z'
_cell_length_a     11.096461
_cell_length_b     11.055321
_cell_length_c     41.259254
_cell_angle_alpha  63.750881
_cell_angle_beta   117.55512
_cell_angle_gamma 122.00603
loop_
_atom_site_label
_atom_site_type_symbol
_atom_site_fract_x
_atom_site_fract_y
_atom_site_fract_z
_atom_type_partial_charge
Nd0 Nd 0.41668 0.70567 0.21347 0.0
Nd1 Nd 0.10954 0.56484 0.20862 0.0
C2 C 0.68796 0.89309 0.20745 0.0
C3 C 0.76721 0.96127 0.17927 0.0
C4 C 0.83454 0.11623 0.16681 0.0
C5 C 0.88573 0.1838 0.13524 0.0
C6 C 0.86953 0.09639 0.11596 0.0
C7 C 0.81478 0.94228 0.1304 0.0
C8 C 0.76347 0.87481 0.16184 0.0
C9 C 0.30789 0.40329 0.22284 0.0
C10 C 0.17178 0.67864 0.12864 0.0
C11 C 0.85328 0.39298 0.22495 0.0
C12 C 0.80617 0.3619 0.25747 0.0
C13 C 0.8005 0.23218 0.28715 0.0
C14 C 0.77172 0.20851 0.31968 0.0
C15 C 0.74512 0.31245 0.32317 0.0
C16 C 0.74368 0.43895 0.29285 0.0
C17 C 0.77497 0.46398 0.26052 0.0
C18 C 0.22429 0.86584 0.20161 0.0
C19 C 0.35802 0.58289 0.29281 0.0
O20 O 0.58294 0.93393 0.19827 0.0
O21 O 0.64977 0.7515 0.22344 0.0
O22 O 0.43378 0.48086 0.24335 0.0
O23 O 0.23986 0.48552 0.19849 0.0
O24 O 0.30965 0.75194 0.14776 0.0
O25 O 1.06981 0.58361 0.14653 0.0
O26 O 0.95099 0.34468 0.23265 0.0
O27 O 0.88024 0.52462 0.20136 0.0
O28 O 1.09711 0.79261 0.18053 0.0
O29 O 0.28775 0.77943 0.22515 0.0
O30 O 0.22076 0.51036 0.27382 0.0
O31 O 0.45754 0.68168 0.27496 0.0
H32 H 0.83947 0.18468 0.18012 0.0
H33 H 0.92775 0.30293 0.12429 0.0
H34 H 0.80184 0.87375 0.11567 0.0
H35 H 0.71317 0.75527 0.171 0.0
H36 H 0.82327 0.15083 0.2858 0.0
H37 H 0.77533 0.11108 0.3427 0.0
H38 H 0.72415 0.52113 0.2949 0.0
H39 H 0.77818 0.56508 0.23834 0.0
Nd40 Nd 0.70497 0.93231 0.55752 0.0
Nd41 Nd 0.87159 0.23067 0.55563 0.0
C42 C 0.57304 0.66601 0.54577 0.0
C43 C 0.54281 0.60534 0.5158 0.0
C44 C 0.6584 0.61076 0.50877 0.0
C45 C 0.63079 0.57772 0.47622 0.0
C46 C 0.48711 0.53913 0.45027 0.0
C47 C 0.36926 0.51808 0.45944 0.0
C48 C 0.39666 0.55076 0.49192 0.0
C49 C 0.53683 0.04716 0.55901 0.0
C50 C 0.72638 0.17735 0.47498 0.0
C51 C 1.0192 0.50557 0.56218 0.0
C52 C 1.09208 0.57807 0.59284 0.0
C53 C 1.01108 0.56048 0.61373 0.0
C54 C 1.08503 0.61989 0.64473 0.0
C55 C 0.24037 0.69855 0.65503 0.0
C56 C 0.32078 0.72213 0.63326 0.0
C57 C 0.24709 0.66013 0.60268 0.0
C58 C 1.0318 0.11868 0.54963 0.0
C59 C 0.83669 -0.00705 0.63941 0.0
O60 O 0.71093 0.72093 0.56669 0.0
O61 O 0.50282 0.74702 0.536 0.0
O62 O 0.54461 0.92203 0.58013 0.0
O63 O 0.61844 0.11082 0.53746 0.0
O64 O 0.72032 0.04372 0.49551 0.0
O65 O 0.75234 0.26856 0.49191 0.0
O66 O 0.8743 0.4383 0.55197 0.0
O67 O 1.08186 0.43034 0.56395 0.0
O68 O 1.01875 0.24137 0.52872 0.0
O69 O 0.95799 0.05447 0.5732 0.0
O70 O 0.87326 0.13235 0.61897 0.0
O71 O 0.77885 0.88811 0.62264 0.0
H72 H 0.77122 0.64744 0.52736 0.0
H73 H 0.72316 0.59313 0.46984 0.0
H74 H 0.25734 0.48446 0.44035 0.0
H75 H 0.30455 0.54102 0.49724 0.0
H76 H 0.89155 0.4979 0.60684 0.0
H77 H 1.02148 0.60213 0.66118 0.0
H78 H 0.44065 0.78349 0.64089 0.0
H79 H 0.31125 0.67328 0.5871 0.0
Nd80 Nd 1.08856 0.77413 0.89298 0.0
Nd81 Nd 0.92473 0.93751 0.87229 0.0
C82 C 0.26776 0.68458 0.8941 0.0
C83 C 0.31289 0.70916 0.86248 0.0
C84 C 0.40413 0.85144 0.84563 0.0
C85 C 0.4331 0.8777 0.81312 0.0
C86 C 0.36306 0.76437 0.79547 0.0
C87 C 0.27408 0.62141 0.81254 0.0
C88 C 0.25013 0.59378 0.84592 0.0
C89 C 0.79725 0.59404 0.89153 0.0
C90 C 0.93062 0.89584 0.80139 0.0
C91 C 0.77089 0.05423 0.8721 0.0
C92 C 0.78646 0.09877 0.90322 0.0
C93 C 0.69567 -0.00011 0.92698 0.0
C94 C 0.72262 0.03003 0.95962 0.0
C95 C 0.84116 0.15952 0.96934 0.0
C96 C 0.92891 0.26185 0.94504 0.0
C97 C 0.9026 0.23113 0.91236 0.0
C98 C 0.2119 0.11708 0.87128 0.0
C99 C 1.05494 0.77973 0.96512 0.0
O100 O 0.31637 0.80098 0.90515 0.0
O101 O 0.12757 0.59982 0.89174 0.0
O102 O 0.90931 0.56727 0.91813 0.0
O103 O 0.8396 0.71152 0.86647 0.0
O104 O 1.04627 0.86697 0.82724 0.0
O105 O 0.84455 0.90896 0.81243 0.0
O106 O 0.7239 0.91243 0.87776 0.0
O107 O 0.87968 0.13237 0.85703 0.0
O108 O 0.09788 0.13892 0.84466 0.0
O109 O 0.1732 0.00268 0.89754 0.0
O110 O 0.96586 0.84467 0.93828 0.0
O111 O 0.13814 0.76014 0.95482 0.0
H112 H 0.45113 0.94369 0.85704 0.0
H113 H 0.50438 -0.01202 0.80073 0.0
H114 H 0.22037 0.53175 0.79952 0.0
H115 H 0.17744 0.48359 0.85788 0.0
H116 H 0.6082 0.89539 0.92144 0.0
H117 H 0.6528 0.95023 0.9779 0.0
H118 H 1.02045 0.36271 0.95208 0.0
H119 H 0.97549 0.30905 0.89483 0.0
C120 C 0.35102 0.14444 0.19297 0.0
C121 C 0.25146 0.00295 0.20869 0.0
C122 C 0.18626 0.12339 0.23299 0.0
C123 C 0.28675 0.26506 0.2175 0.0
N124 N 0.47991 0.40937 0.18703 0.0
N125 N 1.08845 0.85466 0.24788 0.0
C126 C 0.37395 0.27482 0.1989 0.0
C127 C 0.17277 -0.00812 0.22982 0.0
N128 N 0.41872 0.15456 0.17079 0.0
N129 N 0.1037 0.115 0.25089 0.0
H130 H 1.07673 0.75714 0.24635 0.0
H131 H 1.03705 0.83541 0.26634 0.0
H132 H 0.11799 0.20724 0.25575 0.0
H133 H 1.01709 0.01908 0.25963 0.0
H134 H 0.48233 0.25342 0.15536 0.0
H135 H 0.40197 0.06244 0.16532 0.0
H136 H 0.55768 0.42473 0.17664 0.0
H137 H 0.49638 0.50747 0.18936 0.0
C138 C 0.43226 0.18312 0.56797 0.0
C139 C 0.40804 0.07776 0.55232 0.0
C140 C 0.13553 -0.00021 0.53413 0.0
C141 C 0.16 0.09419 0.55337 0.0
N142 N 0.33227 0.27029 0.59066 0.0
N143 N 0.23679 0.88925 0.51884 0.0
C144 C 0.30889 0.18526 0.57056 0.0
C145 C 0.25935 -0.01259 0.53484 0.0
N146 N 0.57402 0.28331 0.57982 0.0
N147 N 0.99361 0.92588 0.51395 0.0
H148 H 0.32381 0.88634 0.51602 0.0
H149 H 0.13345 0.80762 0.50942 0.0
H150 H 0.90095 0.92682 0.51436 0.0
H151 H 0.96708 0.86943 0.49539 0.0
H152 H 0.60123 0.37235 0.58841 0.0
H153 H 0.66526 0.2822 0.57876 0.0
H154 H 0.43631 0.32855 0.6071 0.0
H155 H 0.2454 0.27258 0.59371 0.0
C156 C 0.4055 0.33229 0.89851 0.0
C157 C 0.36113 0.23975 0.87621 0.0
C158 C 0.60067 0.38269 0.86285 0.0
C159 C 0.64457 0.47665 0.88468 0.0
N160 N 0.58374 0.55889 0.91798 0.0
N161 N 0.39927 0.19483 0.83031 0.0
C162 C 0.5449 0.45715 0.90078 0.0
C163 C 0.45361 0.27047 0.85627 0.0
N164 N 0.31527 0.29946 0.91791 0.0
N165 N 0.70058 0.39931 0.84896 0.0
H166 H 0.29322 0.10972 0.82536 0.0
H167 H 0.4543 0.2228 0.81168 0.0
H168 H 0.80855 0.48176 0.85271 0.0
H169 H 0.68071 0.32598 0.83591 0.0
H170 H 0.34722 0.35222 0.9379 0.0
H171 H 0.20916 0.21368 0.91547 0.0
H172 H 0.51246 0.56019 0.92745 0.0
H173 H 0.68617 0.6493 0.92056 0.0
C174 C 0.75311 0.19208 1.00939 0.0
C175 C 0.86862 0.18544 1.00496 0.0
C176 C 1.00995 0.186 0.0713 0.0
C177 C 0.88169 0.16 0.07716 0.0
N178 N 0.62911 0.13906 0.05229 0.0
N179 N 0.10699 0.16917 1.0324 0.0
C180 C 0.75357 0.16651 1.0462 0.0
C181 C 0.9991 0.18403 1.03587 0.0
N182 N 0.64205 0.22102 0.97829 0.0
N183 N 0.14128 0.21183 0.09976 0.0
H184 H 0.10173 0.16217 1.00739 0.0
H185 H 0.19585 0.15093 0.05527 0.0
H186 H 0.15007 0.21687 0.12545 0.0
H187 H 0.24251 0.24471 0.09629 0.0
H188 H 0.563 0.24211 0.97926 0.0
H189 H 0.63738 0.23647 0.95101 0.0
H190 H 0.52577 0.12195 1.03166 0.0
H191 H 0.62649 0.12501 0.0787 0.0
C192 C 0.83996 0.35578 0.42074 0.0
C193 C 0.72031 0.22813 0.43393 0.0
C194 C 0.60033 0.18306 0.3704 0.0
C195 C 0.73062 0.29323 0.35984 0.0
N196 N 0.97713 0.48442 0.37474 0.0
N197 N 0.48392 0.02149 0.42054 0.0
C198 C 0.85023 0.38096 0.38477 0.0
C199 C 0.59976 0.14226 0.40845 0.0
N200 N 0.94555 0.45261 0.44249 0.0
N201 N 0.47488 0.12178 0.34345 0.0
H202 H 0.47091 -0.00352 0.44655 0.0
H203 H 0.4033 0.94305 0.40536 0.0
H204 H 0.47098 0.15373 0.31521 0.0
H205 H 0.37167 0.0495 0.34806 0.0
H206 H 1.02232 0.5563 0.43248 0.0
H207 H 0.95194 0.43716 0.46982 0.0
H208 H 1.07292 0.54734 0.39206 0.0
H209 H 0.99138 0.50347 0.34939 0.0
C210 C 0.90582 0.81303 0.74848 0.0
C211 C 0.89894 0.91373 0.75979 0.0
C212 C 0.81446 0.03568 0.69205 0.0
C213 C 0.84979 0.95571 0.68101 0.0
N214 N 0.94104 0.76976 0.70121 0.0
N215 N 0.87319 0.14188 0.74037 0.0
C216 C 0.89778 0.84383 0.70992 0.0
C217 C 0.86051 0.03075 0.731 0.0
N218 N 0.91411 0.68446 0.77413 0.0
N219 N 0.72692 0.1087 0.66556 0.0
H220 H 0.91394 0.14859 0.76816 0.0
H221 H 0.8593 0.23613 0.72015 0.0
H222 H 0.67587 0.09902 0.63788 0.0
H223 H 0.68736 0.15868 0.6724 0.0
H224 H 0.90409 0.59977 0.76689 0.0
H225 H 0.91438 0.65479 0.80187 0.0
H226 H 0.98896 0.69654 0.72154 0.0
H227 H 0.94539 0.79304 0.67434 0.0
C228 C 0.15617 0.65532 1.03575 0.0
C229 C 1.06532 0.73224 1.00735 0.0
C230 C 1.02797 0.75433 0.05929 0.0
C231 C 0.13423 0.6962 0.08692 0.0
N232 N 0.30607 0.59692 0.10106 0.0
N233 N 0.85318 0.77185 0.99648 0.0
C234 C 0.20066 0.64929 0.07491 0.0
C235 C 0.98411 0.75976 1.02017 0.0
N236 N 0.18307 0.57001 1.02621 0.0
N237 N 0.97151 0.80944 0.07014 0.0
H238 H 0.80205 0.75218 0.96994 0.0
H239 H 0.78091 0.7735 1.00556 0.0
H240 H 1.00066 0.80833 0.09817 0.0
H241 H 0.90569 0.86754 0.05102 0.0
H242 H 0.24117 0.50472 1.04562 0.0
H243 H 0.12541 0.54299 1.00035 0.0
H244 H 0.37394 0.58055 0.0939 0.0
H245 H 0.33248 0.57865 0.13005 0.0
C246 C 0.37285 0.42884 0.36077 0.0
C247 C 0.39505 0.5688 0.33366 0.0
C248 C 0.49669 0.68798 0.38424 0.0
C249 C 0.4636 0.54739 0.41083 0.0
N250 N 0.36239 0.28249 0.42504 0.0
N251 N 0.44864 0.82657 0.31854 0.0
C252 C 0.39902 0.41704 0.39923 0.0
C253 C 0.45039 0.69723 0.34516 0.0
N254 N 0.33124 0.30853 0.3499 0.0
N255 N 0.57199 0.81372 0.39625 0.0
H256 H 0.40822 0.83811 0.28951 0.0
H257 H 0.47289 0.91944 0.32495 0.0
H258 H 0.59853 0.8141 0.42396 0.0
H259 H 0.61855 0.91838 0.3793 0.0
H260 H 0.32126 0.20477 0.36839 0.0
H261 H 0.31558 0.31435 0.32238 0.0
H262 H 0.30156 0.18182 0.41813 0.0
H263 H 0.38715 0.27139 0.45363 0.0
C264 C 0.31307 0.87805 0.72489 0.0
C265 C 0.37908 0.79162 0.75885 0.0
C266 C 0.39568 0.67752 0.72309 0.0
C267 C 0.31667 0.75237 0.6894 0.0
N268 N 0.23916 0.95268 0.656 0.0
N269 N 0.53577 0.66006 0.78939 0.0
C270 C 0.29057 0.86429 0.68964 0.0
C271 C 0.43892 0.70913 0.75749 0.0
N272 N 0.26348 0.9651 0.72628 0.0
N273 N 0.41893 0.56818 0.72289 0.0
H274 H 0.56795 0.68249 0.81493 0.0
H275 H 0.59582 0.61296 0.78935 0.0
H276 H 0.38864 0.54044 0.69832 0.0
H277 H 0.45961 0.49807 0.74748 0.0
H278 H 0.20755 0.025 0.70262 0.0
H279 H 0.27042 -0.027 0.75132 0.0
H280 H 0.22585 0.04304 0.65347 0.0
H281 H 0.21969 0.94111 0.63007 0.0
loop_
_geom_bond_atom_site_label_1
_geom_bond_atom_site_label_2
_geom_bond_distance
_geom_bond_site_symmetry_2
_ccdc_geom_bond_type
Nd0 C2 2.836 . S
Nd0 O20 2.500 1_565 S
Nd0 O21 2.492 . S
Nd0 O22 2.487 . S
Nd0 O23 2.682 1_455 S
Nd0 O24 2.410 1_455 S
Nd0 O29 2.414 . S
Nd0 O31 2.424 . S
Nd1 C11 2.836 . S
Nd1 O23 2.414 . S
Nd1 O25 2.424 . S
Nd1 O26 2.500 . S
Nd1 O27 2.492 . S
Nd1 O28 2.487 . S
Nd1 O29 2.682 1_655 S
Nd1 O30 2.410 1_655 S
C2 Nd0 2.836 . S
C2 C3 1.498 1_565 S
C2 O20 1.258 1_565 S
C2 O21 1.239 . S
C3 C2 1.498 1_545 S
C3 C4 1.366 . S
C3 C8 1.407 1_545 S
C4 C3 1.366 . S
C4 C5 1.392 1_554 S
C4 H32 0.930 . S
C5 C4 1.392 1_556 S
C5 C6 1.398 . S
C5 H33 0.929 . S
C6 C5 1.398 . S
C6 C7 1.352 1_556 S
C7 C6 1.352 1_554 S
C7 C8 1.384 1_545 S
C7 H34 0.930 1_545 S
C8 C3 1.407 1_565 S
C8 C7 1.384 1_565 S
C8 H35 0.929 . S
C9 O22 1.241 . S
C9 O23 1.273 1_455 S
C10 O24 1.251 . S
C10 O25 1.268 . S
C11 Nd1 2.836 . S
C11 C12 1.498 . S
C11 O26 1.258 . S
C11 O27 1.239 . S
C12 C11 1.498 . S
C12 C13 1.366 . S
C12 C17 1.407 . S
C13 C12 1.366 . S
C13 C14 1.392 . S
C13 H36 0.930 . S
C14 C13 1.392 . S
C14 C15 1.398 . S
C14 H37 0.929 . S
C15 C14 1.398 . S
C15 C16 1.352 . S
C16 C15 1.352 . S
C16 C17 1.384 . S
C16 H38 0.930 . S
C17 C12 1.407 . S
C17 C16 1.384 . S
C17 H39 0.929 . S
C18 O28 1.241 . S
C18 O29 1.273 1_655 S
C19 O30 1.251 . S
C19 O31 1.268 . S
O20 Nd0 2.500 1_545 S
O20 C2 1.258 1_545 S
O21 Nd0 2.492 . S
O21 C2 1.239 . S
O22 Nd0 2.487 . S
O22 C9 1.241 . S
O23 Nd0 2.682 1_655 S
O23 Nd1 2.414 . S
O23 C9 1.273 1_655 S
O24 Nd0 2.410 1_655 S
O24 C10 1.251 . S
O25 Nd1 2.424 . S
O25 C10 1.268 . S
O26 Nd1 2.500 . S
O26 C11 1.258 . S
O27 Nd1 2.492 . S
O27 C11 1.239 . S
O28 Nd1 2.487 . S
O28 C18 1.241 . S
O29 Nd0 2.414 . S
O29 Nd1 2.682 1_455 S
O29 C18 1.273 1_455 S
O30 Nd1 2.410 1_455 S
O30 C19 1.251 . S
O31 Nd0 2.424 . S
O31 C19 1.268 . S
H32 C4 0.930 . S
H33 C5 0.929 . S
H34 C7 0.930 1_565 S
H35 C8 0.929 . S
H36 C13 0.930 . S
H37 C14 0.929 . S
H38 C16 0.930 . S
H39 C17 0.929 . S
Nd40 C42 2.836 . S
Nd40 O60 2.500 . S
Nd40 O61 2.492 . S
Nd40 O62 2.487 . S
Nd40 O63 2.682 1_565 S
Nd40 O64 2.410 1_565 S
Nd40 O69 2.414 . S
Nd40 O71 2.424 . S
Nd41 C51 2.836 1_655 S
Nd41 O63 2.414 . S
Nd41 O65 2.424 . S
Nd41 O66 2.500 . S
Nd41 O67 2.492 1_655 S
Nd41 O68 2.487 1_655 S
Nd41 O69 2.682 1_545 S
Nd41 O70 2.410 1_545 S
C42 Nd40 2.836 . S
C42 C43 1.498 . S
C42 O60 1.258 . S
C42 O61 1.239 . S
C43 C42 1.498 . S
C43 C44 1.366 . S
C43 C48 1.407 . S
C44 C43 1.366 . S
C44 C45 1.392 . S
C44 H72 0.930 . S
C45 C44 1.392 . S
C45 C46 1.398 . S
C45 H73 0.929 . S
C46 C45 1.398 . S
C46 C47 1.352 . S
C47 C46 1.352 . S
C47 C48 1.384 . S
C47 H74 0.930 . S
C48 C43 1.407 . S
C48 C47 1.384 . S
C48 H75 0.929 . S
C49 O62 1.241 . S
C49 O63 1.273 1_565 S
C50 O64 1.251 . S
C50 O65 1.268 . S
C51 Nd41 2.836 1_455 S
C51 C52 1.498 . S
C51 O66 1.258 1_455 S
C51 O67 1.239 . S
C52 C51 1.498 . S
C52 C53 1.366 . S
C52 C57 1.407 . S
C53 C52 1.366 . S
C53 C54 1.392 . S
C53 H76 0.930 1_455 S
C54 C53 1.392 . S
C54 C55 1.398 . S
C54 H77 0.935 . S
C55 C54 1.398 . S
C55 C56 1.352 . S
C56 C55 1.352 . S
C56 C57 1.384 . S
C56 H78 0.930 . S
C57 C52 1.407 . S
C57 C56 1.384 . S
C57 H79 0.929 . S
C58 O68 1.241 . S
C58 O69 1.273 1_445 S
C59 O70 1.251 . S
C59 O71 1.268 . S
O60 Nd40 2.500 . S
O60 C42 1.258 . S
O61 Nd40 2.492 . S
O61 C42 1.239 . S
O62 Nd40 2.487 . S
O62 C49 1.241 . S
O63 Nd40 2.682 1_545 S
O63 Nd41 2.414 . S
O63 C49 1.273 1_545 S
O64 Nd40 2.410 1_545 S
O64 C50 1.251 . S
O65 Nd41 2.424 . S
O65 C50 1.268 . S
O66 Nd41 2.500 . S
O66 C51 1.258 1_655 S
O67 Nd41 2.492 1_455 S
O67 C51 1.239 . S
O68 Nd41 2.487 1_455 S
O68 C58 1.241 . S
O69 Nd40 2.414 . S
O69 Nd41 2.682 1_565 S
O69 C58 1.273 1_665 S
O70 Nd41 2.410 1_565 S
O70 C59 1.251 . S
O71 Nd40 2.424 . S
O71 C59 1.268 . S
H72 C44 0.930 . S
H73 C45 0.929 . S
H74 C47 0.930 . S
H75 C48 0.929 . S
H76 C53 0.930 1_655 S
H77 C54 0.935 . S
H78 C56 0.930 . S
H79 C57 0.929 . S
Nd80 C82 2.836 . S
Nd80 O100 2.500 . S
Nd80 O101 2.492 . S
Nd80 O102 2.487 1_455 S
Nd80 O103 2.682 1_455 S
Nd80 O104 2.410 1_455 S
Nd80 O109 2.414 1_565 S
Nd80 O111 2.424 . S
Nd81 C91 2.836 . S
Nd81 O103 2.414 1_545 S
Nd81 O105 2.424 . S
Nd81 O106 2.500 . S
Nd81 O107 2.492 . S
Nd81 O108 2.487 1_655 S
Nd81 O109 2.682 1_655 S
Nd81 O110 2.410 1_655 S
C82 Nd80 2.836 . S
C82 C83 1.498 . S
C82 O100 1.258 . S
C82 O101 1.239 . S
C83 C82 1.498 . S
C83 C84 1.366 . S
C83 C88 1.407 . S
C84 C83 1.366 . S
C84 C85 1.392 . S
C84 H112 0.930 1_565 S
C85 C84 1.392 . S
C85 C86 1.398 . S
C85 H113 0.929 . S
C86 C85 1.398 . S
C86 C87 1.352 . S
C87 C86 1.352 . S
C87 C88 1.384 . S
C87 H114 0.930 . S
C88 C83 1.407 . S
C88 C87 1.384 . S
C88 H115 0.929 . S
C89 O102 1.241 . S
C89 O103 1.273 . S
C90 O104 1.251 1_545 S
C90 O105 1.268 . S
C91 Nd81 2.836 . S
C91 C92 1.498 . S
C91 O106 1.258 . S
C91 O107 1.239 . S
C92 C91 1.498 . S
C92 C93 1.366 . S
C92 C97 1.407 . S
C93 C92 1.366 . S
C93 C94 1.392 . S
C93 H116 0.930 1_545 S
C94 C93 1.392 . S
C94 C95 1.398 . S
C94 H117 0.929 . S
C95 C94 1.398 . S
C95 C96 1.352 . S
C96 C95 1.352 . S
C96 C97 1.384 . S
C96 H118 0.930 . S
C97 C92 1.407 . S
C97 C96 1.384 . S
C97 H119 0.929 . S
C98 O108 1.241 . S
C98 O109 1.273 . S
C99 O110 1.251 1_565 S
C99 O111 1.268 . S
O100 Nd80 2.500 . S
O100 C82 1.258 . S
O101 Nd80 2.492 . S
O101 C82 1.239 . S
O102 Nd80 2.487 1_655 S
O102 C89 1.241 . S
O103 Nd80 2.682 1_655 S
O103 Nd81 2.414 1_565 S
O103 C89 1.273 . S
O104 Nd80 2.410 1_655 S
O104 C90 1.251 1_565 S
O105 Nd81 2.424 . S
O105 C90 1.268 . S
O106 Nd81 2.500 . S
O106 C91 1.258 . S
O107 Nd81 2.492 . S
O107 C91 1.239 . S
O108 Nd81 2.487 1_455 S
O108 C98 1.241 . S
O109 Nd80 2.414 1_545 S
O109 Nd81 2.682 1_455 S
O109 C98 1.273 . S
O110 Nd81 2.410 1_455 S
O110 C99 1.251 1_545 S
O111 Nd80 2.424 . S
O111 C99 1.268 . S
H112 C84 0.930 1_545 S
H113 C85 0.929 . S
H114 C87 0.930 . S
H115 C88 0.929 . S
H116 C93 0.930 1_565 S
H117 C94 0.929 . S
H118 C96 0.930 . S
H119 C97 0.929 . S
C120 C121 1.363 . S
C120 C126 1.379 . S
C120 N128 1.356 . S
C121 C120 1.363 . S
C121 C127 1.363 1_455 S
C122 C123 1.363 1_655 S
C122 C127 1.379 . S
C122 N129 1.356 . S
C123 C122 1.363 1_455 S
C123 C126 1.363 . S
N124 C126 1.356 . S
N124 H136 0.984 . S
N124 H137 0.985 . S
N125 C127 1.356 1_565 S
N125 H130 0.984 . S
N125 H131 0.985 . S
C126 C120 1.379 . S
C126 C123 1.363 . S
C126 N124 1.356 . S
C127 C121 1.363 1_655 S
C127 C122 1.379 . S
C127 N125 1.356 1_545 S
N128 C120 1.356 . S
N128 H134 0.984 . S
N128 H135 0.984 . S
N129 C122 1.356 . S
N129 H132 0.984 . S
N129 H133 0.985 . S
H130 N125 0.984 . S
H131 N125 0.985 . S
H132 N129 0.984 . S
H133 N129 0.985 . S
H134 N128 0.984 . S
H135 N128 0.984 . S
H136 N124 0.984 . S
H137 N124 0.985 . S
C138 C139 1.363 1_545 S
C138 C144 1.379 . S
C138 N146 1.356 . S
C139 C138 1.363 1_565 S
C139 C145 1.363 . S
C140 C141 1.363 1_565 S
C140 C145 1.379 . S
C140 N147 1.356 . S
C141 C140 1.363 1_545 S
C141 C144 1.363 . S
N142 C144 1.356 . S
N142 H154 0.984 . S
N142 H155 0.985 . S
N143 C145 1.356 . S
N143 H148 0.984 . S
N143 H149 0.985 . S
C144 C138 1.379 . S
C144 C141 1.363 . S
C144 N142 1.356 . S
C145 C139 1.363 . S
C145 C140 1.379 . S
C145 N143 1.356 . S
N146 C138 1.356 . S
N146 H152 0.984 . S
N146 H153 0.984 . S
N147 C140 1.356 . S
N147 H150 0.984 . S
N147 H151 0.985 1_455 S
H148 N143 0.984 . S
H149 N143 0.985 . S
H150 N147 0.984 . S
H151 N147 0.985 1_655 S
H152 N146 0.984 . S
H153 N146 0.984 . S
H154 N142 0.984 . S
H155 N142 0.985 . S
C156 C157 1.363 . S
C156 C162 1.379 . S
C156 N164 1.356 . S
C157 C156 1.363 . S
C157 C163 1.363 . S
C158 C159 1.363 . S
C158 C163 1.379 . S
C158 N165 1.356 . S
C159 C158 1.363 . S
C159 C162 1.363 . S
N160 C162 1.356 . S
N160 H172 0.984 . S
N160 H173 0.985 . S
N161 C163 1.356 . S
N161 H166 0.984 . S
N161 H167 0.985 . S
C162 C156 1.379 . S
C162 C159 1.363 . S
C162 N160 1.356 . S
C163 C157 1.363 . S
C163 C158 1.379 . S
C163 N161 1.356 . S
N164 C156 1.356 . S
N164 H170 0.984 . S
N164 H171 0.984 . S
N165 C158 1.356 . S
N165 H168 0.984 . S
N165 H169 0.985 . S
H166 N161 0.984 . S
H167 N161 0.985 . S
H168 N165 0.984 . S
H169 N165 0.985 . S
H170 N164 0.984 . S
H171 N164 0.984 . S
H172 N160 0.984 . S
H173 N160 0.985 . S
C174 C175 1.363 . S
C174 C180 1.379 . S
C174 N182 1.356 . S
C175 C174 1.363 . S
C175 C181 1.363 . S
C176 C177 1.363 . S
C176 C181 1.379 . S
C176 N183 1.356 1_556 S
C177 C176 1.363 . S
C177 C180 1.363 . S
N178 C180 1.356 . S
N178 H190 0.984 1_545 S
N178 H191 0.984 1_545 S
N179 C181 1.356 . S
N179 H184 0.984 . S
N179 H185 0.985 . S
C180 C174 1.379 . S
C180 C177 1.363 . S
C180 N178 1.356 . S
C181 C175 1.363 . S
C181 C176 1.379 . S
C181 N179 1.356 . S
N182 C174 1.356 . S
N182 H188 0.984 . S
N182 H189 0.984 . S
N183 C176 1.356 1_554 S
N183 H186 0.984 . S
N183 H187 0.985 . S
H184 N179 0.984 . S
H185 N179 0.985 . S
H186 N183 0.984 . S
H187 N183 0.985 . S
H188 N182 0.984 . S
H189 N182 0.984 . S
H190 N178 0.984 1_565 S
H191 N178 0.984 1_565 S
C192 C193 1.363 . S
C192 C198 1.379 . S
C192 N200 1.356 . S
C193 C192 1.363 . S
C193 C199 1.363 . S
C194 C195 1.363 . S
C194 C199 1.379 . S
C194 N201 1.356 . S
C195 C194 1.363 . S
C195 C198 1.363 . S
N196 C198 1.356 . S
N196 H208 0.984 . S
N196 H209 0.985 . S
N197 C199 1.356 . S
N197 H202 0.984 . S
N197 H203 0.985 1_545 S
C198 C192 1.379 . S
C198 C195 1.363 . S
C198 N196 1.356 . S
C199 C193 1.363 . S
C199 C194 1.379 . S
C199 N197 1.356 . S
N200 C192 1.356 . S
N200 H206 0.984 . S
N200 H207 0.984 . S
N201 C194 1.356 . S
N201 H204 0.984 . S
N201 H205 0.985 . S
H202 N197 0.984 . S
H203 N197 0.985 1_565 S
H204 N201 0.984 . S
H205 N201 0.985 . S
H206 N200 0.984 . S
H207 N200 0.984 . S
H208 N196 0.984 . S
H209 N196 0.985 . S
C210 C211 1.363 1_565 S
C210 C216 1.379 . S
C210 N218 1.356 1_655 S
C211 C210 1.363 1_545 S
C211 C217 1.363 . S
C212 C213 1.363 1_545 S
C212 C217 1.379 . S
C212 N219 1.356 . S
C213 C212 1.363 1_565 S
C213 C216 1.363 . S
N214 C216 1.356 . S
N214 H226 0.984 1_655 S
N214 H227 0.985 . S
N215 C217 1.356 . S
N215 H220 0.984 . S
N215 H221 0.985 . S
C216 C210 1.379 . S
C216 C213 1.363 . S
C216 N214 1.356 . S
C217 C211 1.363 . S
C217 C212 1.379 . S
C217 N215 1.356 . S
N218 C210 1.356 1_455 S
N218 H224 0.984 . S
N218 H225 0.984 . S
N219 C212 1.356 . S
N219 H222 0.984 1_545 S
N219 H223 0.985 . S
H220 N215 0.984 . S
H221 N215 0.985 . S
H222 N219 0.984 1_565 S
H223 N219 0.985 . S
H224 N218 0.984 . S
H225 N218 0.984 . S
H226 N214 0.984 1_455 S
H227 N214 0.985 . S
C228 C229 1.363 1_455 S
C228 C234 1.379 1_556 S
C228 N236 1.356 . S
C229 C228 1.363 1_655 S
C229 C235 1.363 . S
C230 C231 1.363 1_556 S
C230 C235 1.379 . S
C230 N237 1.356 . S
C231 C230 1.363 1_554 S
C231 C234 1.363 1_655 S
N232 C234 1.356 . S
N232 H244 0.984 . S
N232 H245 0.985 . S
N233 C235 1.356 . S
N233 H238 0.984 . S
N233 H239 0.985 . S
C234 C228 1.379 1_554 S
C234 C231 1.363 1_455 S
C234 N232 1.356 . S
C235 C229 1.363 . S
C235 C230 1.379 . S
C235 N233 1.356 . S
N236 C228 1.356 . S
N236 H242 0.984 1_556 S
N236 H243 0.984 . S
N237 C230 1.356 . S
N237 H240 0.948 1_556 S
N237 H241 0.985 . S
H238 N233 0.984 . S
H239 N233 0.985 . S
H240 N237 0.948 1_554 S
H241 N237 0.985 . S
H242 N236 0.984 1_554 S
H243 N236 0.984 . S
H244 N232 0.984 . S
H245 N232 0.985 . S
C246 C247 1.363 . S
C246 C252 1.379 . S
C246 N254 1.356 . S
C247 C246 1.363 . S
C247 C253 1.363 . S
C248 C249 1.363 . S
C248 C253 1.379 . S
C248 N255 1.356 . S
C249 C248 1.363 . S
C249 C252 1.363 . S
N250 C252 1.356 . S
N250 H262 0.984 . S
N250 H263 0.985 . S
N251 C253 1.356 . S
N251 H256 0.984 . S
N251 H257 0.985 . S
C252 C246 1.379 . S
C252 C249 1.363 . S
C252 N250 1.356 . S
C253 C247 1.363 . S
C253 C248 1.379 . S
C253 N251 1.356 . S
N254 C246 1.356 . S
N254 H260 0.984 1_455 S
N254 H261 0.984 . S
N255 C248 1.356 . S
N255 H258 0.984 . S
N255 H259 0.985 . S
H256 N251 0.984 . S
H257 N251 0.985 . S
H258 N255 0.984 . S
H259 N255 0.985 . S
H260 N254 0.984 1_655 S
H261 N254 0.984 . S
H262 N250 0.984 . S
H263 N250 0.985 . S
C264 C265 1.363 . S
C264 C270 1.379 . S
C264 N272 1.356 . S
C265 C264 1.363 . S
C265 C271 1.363 . S
C266 C267 1.363 . S
C266 C271 1.379 . S
C266 N273 1.356 . S
C267 C266 1.363 . S
C267 C270 1.363 . S
N268 C270 1.356 . S
N268 H280 0.984 . S
N268 H281 0.985 . S
N269 C271 1.356 . S
N269 H274 0.984 . S
N269 H275 0.985 . S
C270 C264 1.379 . S
C270 C267 1.363 . S
C270 N268 1.356 . S
C271 C265 1.363 . S
C271 C266 1.379 . S
C271 N269 1.356 . S
N272 C264 1.356 . S
N272 H278 0.984 . S
N272 H279 0.984 . S
N273 C266 1.356 . S
N273 H276 0.984 . S
N273 H277 0.985 . S
H274 N269 0.984 . S
H275 N269 0.985 . S
H276 N273 0.984 . S
H277 N273 0.985 . S
H278 N272 0.984 . S
H279 N272 0.984 . S
H280 N268 0.984 . S
H281 N268 0.985 . S
C121 C18 1.929 1_445 S
C123 C9 1.929 . S
C139 C49 1.986 . S
C141 C58 1.986 . S
C157 C98 1.592 . S
C159 C89 1.592 . S
C175 C95 1.031 . S
C177 C6 1.051 . S
C193 C50 2.278 . S
C195 C15 2.175 . S
C211 C90 2.788 . S
C213 C59 2.792 . S
C229 C99 2.716 1_655 S
C231 C10 2.594 . S
C247 C19 2.052 . S
C249 C46 1.853 . S
C265 C86 0.982 . S
C267 C55 1.001 . S
