# Generated by pormake.
# Topology wjd, (6)-cn, num edge types: 1
# Building blocks:
#     Node 0, Type 0, BuildingBlock: MIDCAF_clean_sbu_0, # of connection points: 6
#     Node 1, Type 0, BuildingBlock: MIDCAF_clean_sbu_0, # of connection points: 6
#     Node 2, Type 0, BuildingBlock: MIDCAF_clean_sbu_0, # of connection points: 6
#     Node 3, Type 0, BuildingBlock: MIDCAF_clean_sbu_0, # of connection points: 6
#     Node 4, Type 0, BuildingBlock: MIDCAF_clean_sbu_0, # of connection points: 6
#     Node 5, Type 0, BuildingBlock: MIDCAF_clean_sbu_0, # of connection points: 6
#     Node 6, Type 0, BuildingBlock: MIDCAF_clean_sbu_0, # of connection points: 6
#     Node 7, Type 0, BuildingBlock: MIDCAF_clean_sbu_0, # of connection points: 6
#     Node 8, Type 0, BuildingBlock: MIDCAF_clean_sbu_0, # of connection points: 6
#     Node 9, Type 0, BuildingBlock: MIDCAF_clean_sbu_0, # of connection points: 6
#     Node 10, Type 0, BuildingBlock: MIDCAF_clean_sbu_0, # of connection points: 6
#     Node 11, Type 0, BuildingBlock: MIDCAF_clean_sbu_0, # of connection points: 6
#     Edge 12, Type (0, 0), BuildingBlock: TEMPAE_clean_linker_10, # of connection points: 2
#     Edge 13, Type (0, 0), BuildingBlock: TEMPAE_clean_linker_10, # of connection points: 2
#     Edge 14, Type (0, 0), BuildingBlock: TEMPAE_clean_linker_10, # of connection points: 2
#     Edge 15, Type (0, 0), BuildingBlock: TEMPAE_clean_linker_10, # of connection points: 2
#     Edge 16, Type (0, 0), BuildingBlock: TEMPAE_clean_linker_10, # of connection points: 2
#     Edge 17, Type (0, 0), BuildingBlock: TEMPAE_clean_linker_10, # of connection points: 2
#     Edge 18, Type (0, 0), BuildingBlock: TEMPAE_clean_linker_10, # of connection points: 2
#     Edge 19, Type (0, 0), BuildingBlock: TEMPAE_clean_linker_10, # of connection points: 2
#     Edge 20, Type (0, 0), BuildingBlock: TEMPAE_clean_linker_10, # of connection points: 2
#     Edge 21, Type (0, 0), BuildingBlock: TEMPAE_clean_linker_10, # of connection points: 2
#     Edge 22, Type (0, 0), BuildingBlock: TEMPAE_clean_linker_10, # of connection points: 2
#     Edge 23, Type (0, 0), BuildingBlock: TEMPAE_clean_linker_10, # of connection points: 2
#     Edge 24, Type (0, 0), BuildingBlock: TEMPAE_clean_linker_10, # of connection points: 2
#     Edge 25, Type (0, 0), BuildingBlock: TEMPAE_clean_linker_10, # of connection points: 2
#     Edge 26, Type (0, 0), BuildingBlock: TEMPAE_clean_linker_10, # of connection points: 2
#     Edge 27, Type (0, 0), BuildingBlock: TEMPAE_clean_linker_10, # of connection points: 2
#     Edge 28, Type (0, 0), BuildingBlock: TEMPAE_clean_linker_10, # of connection points: 2
#     Edge 29, Type (0, 0), BuildingBlock: TEMPAE_clean_linker_10, # of connection points: 2
#     Edge 30, Type (0, 0), BuildingBlock: TEMPAE_clean_linker_10, # of connection points: 2
#     Edge 31, Type (0, 0), BuildingBlock: TEMPAE_clean_linker_10, # of connection points: 2
#     Edge 32, Type (0, 0), BuildingBlock: TEMPAE_clean_linker_10, # of connection points: 2
#     Edge 33, Type (0, 0), BuildingBlock: TEMPAE_clean_linker_10, # of connection points: 2
#     Edge 34, Type (0, 0), BuildingBlock: TEMPAE_clean_linker_10, # of connection points: 2
#     Edge 35, Type (0, 0), BuildingBlock: TEMPAE_clean_linker_10, # of connection points: 2
#     Edge 36, Type (0, 0), BuildingBlock: TEMPAE_clean_linker_10, # of connection points: 2
#     Edge 37, Type (0, 0), BuildingBlock: TEMPAE_clean_linker_10, # of connection points: 2
#     Edge 38, Type (0, 0), BuildingBlock: TEMPAE_clean_linker_10, # of connection points: 2
#     Edge 39, Type (0, 0), BuildingBlock: TEMPAE_clean_linker_10, # of connection points: 2
#     Edge 40, Type (0, 0), BuildingBlock: TEMPAE_clean_linker_10, # of connection points: 2
#     Edge 41, Type (0, 0), BuildingBlock: TEMPAE_clean_linker_10, # of connection points: 2
#     Edge 42, Type (0, 0), BuildingBlock: TEMPAE_clean_linker_10, # of connection points: 2
#     Edge 43, Type (0, 0), BuildingBlock: TEMPAE_clean_linker_10, # of connection points: 2
#     Edge 44, Type (0, 0), BuildingBlock: TEMPAE_clean_linker_10, # of connection points: 2
#     Edge 45, Type (0, 0), BuildingBlock: TEMPAE_clean_linker_10, # of connection points: 2
#     Edge 46, Type (0, 0), BuildingBlock: TEMPAE_clean_linker_10, # of connection points: 2
#     Edge 47, Type (0, 0), BuildingBlock: TEMPAE_clean_linker_10, # of connection points: 2
# Relax obj value: 0.343
# Max RMSD: 0.250
# Mean RMSD: 0.250
data_MOF--net-wjd--node1-MIDCAF_clean_sbu_0--edge1-TEMPAE_clean_linker_10
_symmetry_space_group_name_H-M    P1
_symmetry_Int_Tables_number       1
_symmetry_cell_setting            triclinic
loop_
_symmetry_equiv_pos_as_xyz
'x, y, z'
_cell_length_a     28.432246
_cell_length_b     28.329734
_cell_length_c     60.647773
_cell_angle_alpha  90.129392
_cell_angle_beta   89.90155
_cell_angle_gamma 119.90705
loop_
_atom_site_label
_atom_site_type_symbol
_atom_site_fract_x
_atom_site_fract_y
_atom_site_fract_z
_atom_type_partial_charge
Zn0 Zn 0.19703 0.03292 0.17344 0.0
Zn1 Zn 0.33154 0.10964 0.08987 0.0
Zn2 Zn 0.28957 0.06366 0.12085 0.0
C3 C 0.37223 0.17786 0.12527 0.0
C4 C 0.39949 0.07655 0.11011 0.0
O5 O 0.2301 0.97915 0.11452 0.0
O6 O 0.22082 0.00298 0.1472 0.0
C7 C 0.21983 0.12196 0.14108 0.0
O8 O 0.36634 0.13266 0.13245 0.0
O9 O 0.35115 0.17837 0.10699 0.0
O10 O 0.38473 0.08001 0.09076 0.0
O11 O 0.3731 0.08117 0.12651 0.0
O12 O 0.19638 0.0984 0.15916 0.0
O13 O 0.2487 0.10743 0.12978 0.0
O14 O 0.34738 0.07634 0.14802 0.0
O15 O 0.26641 0.03972 0.16063 0.0
C16 C 0.31663 0.0627 0.16504 0.0
O17 O 0.25634 0.00829 0.09148 0.0
O18 O 0.27009 0.07446 0.06889 0.0
C19 C 0.19917 0.97077 0.131 0.0
C20 C 0.24869 0.02398 0.07255 0.0
Zn21 Zn 0.81983 0.59882 0.41348 0.0
Zn22 Zn 0.79185 0.78281 0.36662 0.0
Zn23 Zn 0.82604 0.6777 0.38965 0.0
C24 C 0.76573 0.67612 0.3418 0.0
C25 C 0.88983 0.80246 0.37497 0.0
O26 O 0.80235 0.68144 0.42439 0.0
O27 O 0.80719 0.61791 0.44338 0.0
C28 C 0.73628 0.55985 0.37944 0.0
O29 O 0.77946 0.65444 0.35756 0.0
O30 O 0.77014 0.72292 0.34379 0.0
O31 O 0.87555 0.83482 0.3672 0.0
O32 O 0.85238 0.75404 0.37837 0.0
O33 O 0.75606 0.54564 0.39508 0.0
O34 O 0.75714 0.6103 0.37445 0.0
O35 O 0.89985 0.67215 0.38396 0.0
O36 O 0.8923 0.60892 0.407 0.0
C37 C 0.91883 0.64359 0.39231 0.0
O38 O 0.8214 0.74035 0.41111 0.0
O39 O 0.75697 0.7529 0.39699 0.0
C40 C 0.79857 0.65744 0.44279 0.0
C41 C 0.79178 0.76321 0.41202 0.0
Zn42 Zn 0.95245 0.24249 0.14531 0.0
Zn43 Zn 0.89375 0.33102 0.09181 0.0
Zn44 Zn 0.9128 0.27641 0.11882 0.0
C45 C 0.79499 0.23483 0.1042 0.0
C46 C 0.93233 0.39597 0.12831 0.0
O47 O 0.98791 0.28327 0.10487 0.0
O48 O 0.02842 0.28026 0.13533 0.0
C49 C 0.85836 0.15241 0.1286 0.0
O50 O 0.82784 0.22007 0.11179 0.0
O51 O 0.81363 0.28219 0.09631 0.0
O52 O 0.93103 0.4021 0.10775 0.0
O53 O 0.92105 0.34911 0.13602 0.0
O54 O 0.90297 0.16458 0.13771 0.0
O55 O 0.8502 0.19033 0.12133 0.0
O56 O 0.92046 0.31507 0.15255 0.0
O57 O 0.94001 0.26433 0.17399 0.0
C58 C 0.92746 0.30084 0.17198 0.0
O59 O 0.96221 0.29242 0.08736 0.0
O60 O 0.92598 0.32462 0.06388 0.0
C61 C 0.03033 0.28911 0.11493 0.0
C62 C 0.9583 0.30724 0.06757 0.0
Zn63 Zn 0.44142 0.15832 0.39935 0.0
Zn64 Zn 0.3074 0.04082 0.35091 0.0
Zn65 Zn 0.36989 0.1047 0.37368 0.0
C66 C 0.38256 0.11363 0.32367 0.0
C67 C 0.28894 0.13018 0.35314 0.0
O68 O 0.3306 0.08758 0.40701 0.0
O69 O 0.40116 0.14059 0.42777 0.0
C70 C 0.46662 0.08751 0.37403 0.0
O71 O 0.38012 0.14216 0.33983 0.0
O72 O 0.36185 0.06286 0.32637 0.0
O73 O 0.25973 0.07868 0.35308 0.0
O74 O 0.34064 0.15075 0.35511 0.0
O75 O 0.48271 0.12044 0.39015 0.0
O76 O 0.42186 0.07476 0.36469 0.0
O77 O 0.39624 0.18607 0.36036 0.0
O78 O 0.4605 0.22962 0.38528 0.0
C79 C 0.4349 0.23063 0.36843 0.0
O80 O 0.29659 0.04335 0.39102 0.0
O81 O 0.28837 0.97654 0.37008 0.0
C82 C 0.3511 0.10686 0.42611 0.0
C83 C 0.27418 0.9919 0.38715 0.0
Zn84 Zn 0.6857 0.59909 0.10446 0.0
Zn85 Zn 0.69015 0.69826 0.16459 0.0
Zn86 Zn 0.69542 0.65247 0.13561 0.0
C87 C 0.69164 0.61978 0.18447 0.0
C88 C 0.79381 0.75194 0.14295 0.0
O89 O 0.7274 0.71185 0.10644 0.0
O90 O 0.7095 0.65183 0.07978 0.0
C91 C 0.58339 0.55735 0.12604 0.0
O92 O 0.72253 0.63225 0.16733 0.0
O93 O 0.65522 0.63306 0.18473 0.0
O94 O 0.77561 0.73954 0.16247 0.0
O95 O 0.75933 0.73283 0.12699 0.0
O96 O 0.60655 0.54858 0.11 0.0
O97 O 0.61008 0.59959 0.13798 0.0
O98 O 0.7465 0.6214 0.14719 0.0
O99 O 0.73778 0.57735 0.11615 0.0
C100 C 0.75793 0.59112 0.13527 0.0
O101 O 0.7052 0.73281 0.12513 0.0
O102 O 0.65268 0.73623 0.15098 0.0
C103 C 0.72687 0.70054 0.08563 0.0
C104 C 0.67883 0.75506 0.13321 0.0
Zn105 Zn 0.87886 0.30573 0.40336 0.0
Zn106 Zn 0.95081 0.19378 0.34344 0.0
Zn107 Zn 0.94486 0.25262 0.37012 0.0
C108 C 0.8951 0.22538 0.31956 0.0
C109 C 0.91235 0.13187 0.38161 0.0
O110 O 0.92783 0.22358 0.40533 0.0
O111 O 0.88293 0.25541 0.42551 0.0
C112 C 0.98937 0.35868 0.38034 0.0
O113 O 0.89746 0.24478 0.33911 0.0
O114 O 0.91738 0.19728 0.31598 0.0
O115 O 0.91379 0.12724 0.36096 0.0
O116 O 0.92797 0.17927 0.38998 0.0
O117 O 0.94529 0.32375 0.38846 0.0
O118 O 0.01445 0.33871 0.37003 0.0
O119 O 0.86686 0.24483 0.35779 0.0
O120 O 0.82154 0.27119 0.38052 0.0
C121 C 0.82498 0.2497 0.36261 0.0
O122 O 0.03209 0.3003 0.36224 0.0
O123 O 0.03037 0.23277 0.34336 0.0
C124 C 0.90678 0.22758 0.42378 0.0
C125 C 0.05693 0.27953 0.35186 0.0
Zn126 Zn 0.16743 0.39355 0.59471 0.0
Zn127 Zn 0.9682 0.2248 0.65325 0.0
Zn128 Zn 0.09807 0.31731 0.62171 0.0
C129 C 0.06043 0.333 0.67216 0.0
C130 C 0.03824 0.19641 0.63948 0.0
O131 O 0.06818 0.30034 0.58721 0.0
O132 O 0.12866 0.36578 0.56611 0.0
C133 C 0.12289 0.43606 0.62713 0.0
O134 O 0.08676 0.34996 0.65373 0.0
O135 O 0.01781 0.28639 0.67402 0.0
O136 O 0.99447 0.16727 0.64987 0.0
O137 O 0.05058 0.24531 0.63638 0.0
O138 O 0.15684 0.4492 0.61154 0.0
O139 O 0.09602 0.38677 0.63379 0.0
O140 O 0.17247 0.31822 0.62685 0.0
O141 O 0.22701 0.37871 0.6028 0.0
C142 C 0.21899 0.3448 0.61791 0.0
O143 O 0.02668 0.25853 0.60304 0.0
O144 O 0.96744 0.26338 0.62442 0.0
C145 C 0.08424 0.32176 0.56807 0.0
C146 C 0.97669 0.24218 0.60778 0.0
Zn147 Zn 0.23 0.80606 0.89964 0.0
Zn148 Zn 0.13185 0.88216 0.85917 0.0
Zn149 Zn 0.18447 0.84901 0.88083 0.0
C150 C 0.15861 0.82935 0.82818 0.0
C151 C 0.06658 0.82189 0.89443 0.0
O152 O 0.15124 0.82953 0.91549 0.0
O153 O 0.21333 0.81475 0.93033 0.0
C154 C 0.31015 0.90473 0.88186 0.0
O155 O 0.17122 0.81441 0.84632 0.0
O156 O 0.14014 0.86161 0.82891 0.0
O157 O 0.06332 0.83888 0.87558 0.0
O158 O 0.1117 0.82655 0.90106 0.0
O159 O 0.30211 0.85887 0.88814 0.0
O160 O 0.27024 0.91378 0.88047 0.0
O161 O 0.1676 0.77599 0.86122 0.0
O162 O 0.19106 0.7338 0.88561 0.0
C163 C 0.16885 0.73323 0.86754 0.0
O164 O 0.2383 0.93818 0.88015 0.0
O165 O 0.17798 0.9592 0.86783 0.0
C166 C 0.17394 0.82302 0.93278 0.0
C167 C 0.22403 0.97379 0.87602 0.0
Zn168 Zn 0.60768 0.7508 0.61216 0.0
Zn169 Zn 0.72766 0.75779 0.66427 0.0
Zn170 Zn 0.65781 0.7368 0.63813 0.0
C171 C 0.63126 0.71315 0.68938 0.0
C172 C 0.74742 0.85325 0.64005 0.0
O173 O 0.66436 0.70369 0.6056 0.0
O174 O 0.66349 0.77148 0.58827 0.0
C175 C 0.54382 0.64994 0.63451 0.0
O176 O 0.61041 0.70812 0.66995 0.0
O177 O 0.68211 0.7347 0.6914 0.0
O178 O 0.76868 0.83766 0.6546 0.0
O179 O 0.70171 0.81961 0.63194 0.0
O180 O 0.54993 0.66882 0.61512 0.0
O181 O 0.5771 0.68015 0.64962 0.0
O182 O 0.59029 0.73979 0.65533 0.0
O183 O 0.5987 0.80326 0.63221 0.0
C184 C 0.5822 0.77948 0.65058 0.0
O185 O 0.68886 0.68699 0.62451 0.0
O186 O 0.74722 0.70473 0.65141 0.0
C187 C 0.67359 0.73276 0.58805 0.0
C188 C 0.72557 0.68006 0.63363 0.0
Zn189 Zn 0.08942 0.24185 0.85325 0.0
Zn190 Zn 0.15903 0.41277 0.89669 0.0
Zn191 Zn 0.1186 0.32524 0.87522 0.0
C192 C 0.23462 0.42774 0.86458 0.0
C193 C 0.06082 0.3939 0.87695 0.0
O194 O 0.02957 0.28918 0.87335 0.0
O195 O 0.01236 0.20817 0.86187 0.0
C196 C 0.14776 0.2357 0.88847 0.0
O197 O 0.19382 0.38328 0.85742 0.0
O198 O 0.23099 0.44829 0.88254 0.0
O199 O 0.104 0.43012 0.88584 0.0
O200 O 0.054 0.34615 0.87337 0.0
O201 O 0.13435 0.21772 0.86907 0.0
O202 O 0.13939 0.27372 0.89558 0.0
O203 O 0.15781 0.34911 0.84153 0.0
O204 O 0.10993 0.27201 0.82339 0.0
C205 C 0.14343 0.32241 0.82313 0.0
O206 O 0.13198 0.30796 0.91013 0.0
O207 O 0.15164 0.38499 0.92689 0.0
C208 C -0.00433 0.23855 0.86965 0.0
C209 C 0.13994 0.33589 0.92801 0.0
Zn210 Zn 0.25019 0.85197 0.59321 0.0
Zn211 Zn 0.17848 0.92831 0.64989 0.0
Zn212 Zn 0.21489 0.88988 0.62301 0.0
C213 C 0.23538 0.89648 0.67574 0.0
C214 C 0.08886 0.84144 0.63063 0.0
O215 O 0.24115 0.94504 0.59293 0.0
O216 O 0.25829 0.89838 0.56801 0.0
C217 C 0.31989 0.88016 0.6301 0.0
O218 O 0.25236 0.89283 0.65635 0.0
O219 O 0.19865 0.90872 0.67768 0.0
O220 O 0.10025 0.88465 0.64095 0.0
O221 O 0.12739 0.83321 0.62435 0.0
O222 O 0.31688 0.86911 0.60978 0.0
O223 O 0.2827 0.88673 0.63933 0.0
O224 O 0.15234 0.80577 0.61648 0.0
O225 O 0.19089 0.77494 0.59336 0.0
C226 C 0.15155 0.76626 0.60567 0.0
O227 O 0.22404 0.96738 0.61012 0.0
O228 O 0.22011 0.0055 0.64123 0.0
C229 C 0.25412 0.93932 0.57304 0.0
C230 C 0.22829 0.00883 0.62072 0.0
Zn231 Zn 0.566 0.74451 0.90979 0.0
Zn232 Zn 0.7339 0.83399 0.86801 0.0
Zn233 Zn 0.65068 0.78638 0.8904 0.0
C234 C 0.65243 0.81039 0.83848 0.0
C235 C 0.74157 0.90382 0.90231 0.0
O236 O 0.67156 0.81745 0.92531 0.0
O237 O 0.59606 0.75176 0.93949 0.0
C238 C 0.57332 0.66204 0.88807 0.0
O239 O 0.62736 0.8025 0.85707 0.0
O240 O 0.70153 0.82237 0.83833 0.0
O241 O 0.75907 0.90453 0.88309 0.0
O242 O 0.70321 0.85913 0.91042 0.0
O243 O 0.53833 0.67353 0.89499 0.0
O244 O 0.62381 0.69883 0.88791 0.0
O245 O 0.59591 0.80809 0.87279 0.0
O246 O 0.5381 0.79222 0.89992 0.0
C247 C 0.55652 0.8123 0.88118 0.0
O248 O 0.68015 0.7277 0.8888 0.0
O249 O 0.763 0.78704 0.87772 0.0
C250 C 0.64424 0.78968 0.94225 0.0
C251 C 0.72983 0.74069 0.88534 0.0
C252 C 0.1286 0.33149 0.10823 0.0
C253 C 0.07572 0.29093 0.10294 0.0
C254 C 0.17115 0.31992 0.10768 0.0
C255 C 0.15917 0.26647 0.10239 0.0
C256 C 0.10864 0.22977 0.0927 0.0
C257 C 0.06687 0.24205 0.09361 0.0
C258 C 0.22617 0.3615 0.1163 0.0
C259 C 0.09525 0.17329 0.0856 0.0
C260 C 0.23558 0.19194 0.11242 0.0
C261 C 0.21302 0.16706 0.13273 0.0
C262 C 0.22383 0.2302 0.1032 0.0
C263 C 0.1875 0.2424 0.1143 0.0
C264 C 0.16873 0.22119 0.13575 0.0
C265 C 0.18206 0.18404 0.1447 0.0
C266 C 0.24762 0.25424 0.08101 0.0
C267 C 0.1305 0.23369 0.14856 0.0
H268 H 0.13535 0.36943 0.11545 0.0
H269 H 0.02574 0.20981 0.09042 0.0
H270 H 0.22749 0.35664 0.1344 0.0
H271 H 0.2587 0.35602 0.1087 0.0
H272 H 0.2344 0.40352 0.11305 0.0
H273 H 0.0569 0.15246 0.07602 0.0
H274 H 0.12849 0.17521 0.07537 0.0
H275 H 0.09066 0.14825 0.10038 0.0
H276 H 0.26061 0.18003 0.10318 0.0
H277 H 0.16576 0.16619 0.16067 0.0
H278 H 0.2455 0.29152 0.07741 0.0
H279 H 0.22535 0.22363 0.06796 0.0
H280 H 0.2907 0.26435 0.08019 0.0
H281 H 0.14757 0.27828 0.15002 0.0
H282 H 0.12246 0.21626 0.16545 0.0
H283 H 0.09113 0.21663 0.13979 0.0
C284 C 0.19741 0.89765 0.39176 0.0
C285 C 0.22304 0.95262 0.39811 0.0
C286 C 0.14117 0.86441 0.39389 0.0
C287 C 0.11079 0.8866 0.40317 0.0
C288 C 0.1379 0.93797 0.4137 0.0
C289 C 0.19393 0.97124 0.41059 0.0
C290 C 0.11376 0.80847 0.38354 0.0
C291 C 0.10691 0.96038 0.42583 0.0
C292 C 0.98835 0.86599 0.37097 0.0
C293 C 0.94604 0.82181 0.38183 0.0
C294 C 0.04209 0.88663 0.37769 0.0
C295 C 0.05346 0.86405 0.39644 0.0
C296 C 0.01056 0.81987 0.40774 0.0
C297 C 0.95737 0.79839 0.39992 0.0
C298 C 0.08664 0.93246 0.36452 0.0
C299 C 0.01958 0.79484 0.42808 0.0
H300 H 0.22015 0.88235 0.38285 0.0
H301 H 0.2135 0.01323 0.41608 0.0
H302 H 0.08403 0.77809 0.39518 0.0
H303 H 0.0912 0.80845 0.36861 0.0
H304 H 0.14329 0.79545 0.3787 0.0
H305 H 0.1333 0.99234 0.43784 0.0
H306 H 0.09135 0.97887 0.41385 0.0
H307 H 0.07161 0.92743 0.43469 0.0
H308 H 0.97944 0.88394 0.35696 0.0
H309 H 0.9245 0.76454 0.40855 0.0
H310 H 0.11864 0.92251 0.36014 0.0
H311 H 0.10584 0.9703 0.37452 0.0
H312 H 0.07122 0.94088 0.34906 0.0
H313 H 0.06072 0.81961 0.43522 0.0
H314 H 0.01309 0.75387 0.42388 0.0
H315 H 0.98915 0.78895 0.44089 0.0
C316 C 0.78391 0.07224 0.1085 0.0
C317 C 0.81668 0.09431 0.12719 0.0
C318 C 0.75082 0.01541 0.10613 0.0
C319 C 0.75099 0.98056 0.12284 0.0
C320 C 0.78144 0.00323 0.14232 0.0
C321 C 0.81391 0.05968 0.14419 0.0
C322 C 0.71847 0.99283 0.08524 0.0
C323 C 0.7825 0.96782 0.16072 0.0
C324 C 0.65636 0.83005 0.13146 0.0
C325 C 0.69033 0.80937 0.12551 0.0
C326 C 0.67307 0.88543 0.12848 0.0
C327 C 0.72499 0.92071 0.11947 0.0
C328 C 0.75711 0.89891 0.11158 0.0
C329 C 0.73979 0.8438 0.11503 0.0
C330 C 0.63734 0.90699 0.13682 0.0
C331 C 0.81236 0.93472 0.10151 0.0
H332 H 0.78614 0.09908 0.09532 0.0
H333 H 0.83876 0.07682 0.15879 0.0
H334 H 0.74029 0.97909 0.0741 0.0
H335 H 0.6781 0.95705 0.08877 0.0
H336 H 0.71276 0.02397 0.07643 0.0
H337 H 0.80485 0.99196 0.17544 0.0
H338 H 0.7406 0.93759 0.1658 0.0
H339 H 0.8024 0.94494 0.15483 0.0
H340 H 0.61804 0.80364 0.13956 0.0
H341 H 0.76665 0.82849 0.11058 0.0
H342 H 0.63811 0.93785 0.12537 0.0
H343 H 0.65277 0.92717 0.15301 0.0
H344 H 0.59468 0.87387 0.13902 0.0
H345 H 0.81102 0.9636 0.08957 0.0
H346 H 0.82788 0.91049 0.09294 0.0
H347 H 0.84155 0.95901 0.1147 0.0
C348 C 0.29904 0.22322 0.35164 0.0
C349 C 0.26523 0.16634 0.35135 0.0
C350 C 0.27755 0.25836 0.35203 0.0
C351 C 0.22066 0.23612 0.35196 0.0
C352 C 0.18622 0.17872 0.35109 0.0
C353 C 0.20892 0.14458 0.35087 0.0
C354 C 0.31583 0.31906 0.35321 0.0
C355 C 0.12519 0.15319 0.35067 0.0
C356 C 0.1376 0.29711 0.3727 0.0
C357 C 0.11588 0.30215 0.35273 0.0
C358 C 0.17759 0.28171 0.37286 0.0
C359 C 0.19612 0.27192 0.35258 0.0
C360 C 0.18125 0.28667 0.3326 0.0
C361 C 0.14144 0.30212 0.33295 0.0
C362 C 0.19405 0.26856 0.3946 0.0
C363 C 0.20102 0.27835 0.31061 0.0
H364 H 0.34253 0.24058 0.35193 0.0
H365 H 0.18246 0.10077 0.35069 0.0
H366 H 0.30301 0.34111 0.34182 0.0
H367 H 0.31521 0.33356 0.37015 0.0
H368 H 0.35825 0.33006 0.3492 0.0
H369 H 0.10423 0.10806 0.34952 0.0
H370 H 0.11114 0.16441 0.36584 0.0
H371 H 0.11274 0.16889 0.3364 0.0
H372 H 0.11781 0.29698 0.38803 0.0
H373 H 0.12459 0.30607 0.31748 0.0
H374 H 0.23786 0.28152 0.39462 0.0
H375 H 0.17098 0.22385 0.39723 0.0
H376 H 0.18543 0.28845 0.40861 0.0
H377 H 0.24477 0.2912 0.31129 0.0
H378 H 0.19446 0.30125 0.29726 0.0
H379 H 0.17845 0.23439 0.30633 0.0
C380 C 0.10798 0.95888 0.13785 0.0
C381 C 0.13959 0.93811 0.12908 0.0
C382 C 0.0513 0.9287 0.13731 0.0
C383 C 0.02532 0.87575 0.12812 0.0
C384 C 0.05698 0.85515 0.11844 0.0
C385 C 0.11402 0.88698 0.11884 0.0
C386 C 0.0193 0.95289 0.14733 0.0
C387 C 0.03075 0.79872 0.10862 0.0
C388 C 0.88876 0.78403 0.15452 0.0
C389 C 0.85274 0.78393 0.13875 0.0
C390 C 0.9448 0.81145 0.15068 0.0
C391 C 0.96558 0.8407 0.13079 0.0
C392 C 0.92936 0.84035 0.11467 0.0
C393 C 0.87316 0.81129 0.11873 0.0
C394 C 0.98183 0.80988 0.16814 0.0
C395 C 0.94999 0.87188 0.09345 0.0
H396 H 0.1276 -0.00095 0.14517 0.0
H397 H 0.13855 0.87113 0.1119 0.0
H398 H 0.98744 0.94906 0.13573 0.0
H399 H -0.00138 0.93024 0.16252 0.0
H400 H 0.04547 0.99655 0.15167 0.0
H401 H 0.06043 0.79106 0.09967 0.0
H402 H 0.01199 0.7681 0.12196 0.0
H403 H -0.00213 0.79242 0.09709 0.0
H404 H 0.87303 0.7618 0.1698 0.0
H405 H 0.84531 0.81072 0.10641 0.0
H406 H 0.00704 0.85112 0.17529 0.0
H407 H 0.00984 0.7976 0.16072 0.0
H408 H 0.95896 0.78118 0.1817 0.0
H409 H 0.97318 0.91613 0.09715 0.0
H410 H 0.91651 0.86411 0.08194 0.0
H411 H 0.97817 0.86122 0.08508 0.0
C412 C 0.77604 0.83429 0.42905 0.0
C413 C 0.8122 0.81584 0.42376 0.0
C414 C 0.79446 0.89024 0.43125 0.0
C415 C 0.84965 0.92828 0.42693 0.0
C416 C 0.88729 0.90939 0.42537 0.0
C417 C 0.86805 0.85306 0.42431 0.0
C418 C 0.75356 0.90858 0.43484 0.0
C419 C 0.94673 0.94813 0.42126 0.0
C420 C 0.86703 0.03119 0.38345 0.0
C421 C 0.89283 0.08109 0.39479 0.0
C422 C 0.85306 0.98204 0.39386 0.0
C423 C 0.86341 0.98162 0.41667 0.0
C424 C 0.88691 0.03136 0.42868 0.0
C425 C 0.902 0.0807 0.41749 0.0
C426 C 0.82808 0.93057 0.38009 0.0
C427 C 0.89763 0.03322 0.45309 0.0
H428 H 0.73282 0.80549 0.42939 0.0
H429 H 0.89642 0.83897 0.4211 0.0
H430 H 0.77167 0.94727 0.44433 0.0
H431 H 0.74017 0.91577 0.41864 0.0
H432 H 0.71723 0.87716 0.44375 0.0
H433 H 0.97172 0.92875 0.42453 0.0
H434 H 0.95257 0.9612 0.40374 0.0
H435 H 0.96158 0.98503 0.43168 0.0
H436 H 0.85861 0.03036 0.36598 0.0
H437 H 0.92197 0.11872 0.4264 0.0
H438 H 0.78601 0.90256 0.38569 0.0
H439 H 0.85157 0.90924 0.38202 0.0
H440 H 0.82671 0.93871 0.36226 0.0
H441 H 0.86796 0.99494 0.46141 0.0
H442 H 0.89638 0.06798 0.46102 0.0
H443 H 0.93884 0.03913 0.4557 0.0
C444 C 0.24914 0.1042 0.61978 0.0
C445 C 0.22567 0.05326 0.60939 0.0
C446 C 0.22472 0.13653 0.61833 0.0
C447 C 0.17606 0.11701 0.60617 0.0
C448 C 0.15883 0.07115 0.59225 0.0
C449 C 0.18388 0.03939 0.5941 0.0
C450 C 0.24603 0.18683 0.63256 0.0
C451 C 0.10901 0.05101 0.57801 0.0
C452 C 0.06728 0.12688 0.63853 0.0
C453 C 0.07015 0.17366 0.62963 0.0
C454 C 0.10045 0.10718 0.63044 0.0
C455 C 0.1368 0.13459 0.61277 0.0
C456 C 0.13743 0.18 0.60286 0.0
C457 C 0.10419 0.19909 0.61149 0.0
C458 C 0.09793 0.05811 0.64142 0.0
C459 C 0.17433 0.20994 0.58374 0.0
H460 H 0.28197 0.11522 0.63141 0.0
H461 H 0.16532 -0.00011 0.58616 0.0
H462 H 0.24434 0.22005 0.62362 0.0
H463 H 0.22026 0.17729 0.64751 0.0
H464 H 0.2885 0.20158 0.63788 0.0
H465 H 0.10859 0.02395 0.56462 0.0
H466 H 0.07223 0.02748 0.5883 0.0
H467 H 0.10673 0.0856 0.5706 0.0
H468 H 0.04043 0.10673 0.65234 0.0
H469 H 0.10516 0.23419 0.60402 0.0
H470 H 0.13802 0.06942 0.64867 0.0
H471 H 0.08823 0.02559 0.62907 0.0
H472 H 0.06693 0.0412 0.65471 0.0
H473 H 0.21378 0.24251 0.5902 0.0
H474 H 0.15686 0.22968 0.57336 0.0
H475 H 0.1822 0.18253 0.57321 0.0
C476 C 0.99112 0.74035 0.91251 0.0
C477 C 0.01694 0.79615 0.90785 0.0
C478 C 0.93468 0.71073 0.91622 0.0
C479 C 0.90417 0.73776 0.91468 0.0
C480 C 0.9319 0.79548 0.91332 0.0
C481 C 0.98804 0.82385 0.90998 0.0
C482 C 0.90771 0.65004 0.9195 0.0
C483 C 0.90187 0.82694 0.91222 0.0
C484 C 0.78619 0.69958 0.87813 0.0
C485 C 0.75255 0.70697 0.89286 0.0
C486 C 0.83293 0.69995 0.88564 0.0
C487 C 0.84563 0.70764 0.90845 0.0
C488 C 0.80565 0.70316 0.9236 0.0
C489 C 0.75934 0.70343 0.91558 0.0
C490 C 0.87291 0.7017 0.86877 0.0
C491 C 0.81502 0.70582 0.94813 0.0
H492 H 0.01368 0.71891 0.91104 0.0
H493 H 0.00851 0.86722 0.90659 0.0
H494 H 0.86626 0.63282 0.92648 0.0
H495 H 0.90509 0.62997 0.90345 0.0
H496 H 0.93252 0.64016 0.93066 0.0
H497 H 0.92983 0.8717 0.91247 0.0
H498 H 0.87762 0.8164 0.89682 0.0
H499 H 0.87354 0.81621 0.92631 0.0
H500 H 0.78034 0.70161 0.86056 0.0
H501 H 0.7329 0.7085 0.92707 0.0
H502 H 0.88805 0.67396 0.87359 0.0
H503 H 0.90828 0.74359 0.86784 0.0
H504 H 0.85463 0.68981 0.85207 0.0
H505 H 0.84397 0.69184 0.95256 0.0
H506 H 0.77611 0.68049 0.95697 0.0
H507 H 0.83176 0.74838 0.95394 0.0
C508 C 0.81777 0.9506 0.64425 0.0
C509 C 0.77681 0.9093 0.63162 0.0
C510 C 0.84696 0.00384 0.63621 0.0
C511 C 0.83565 0.01567 0.61482 0.0
C512 C 0.79487 0.97391 0.60182 0.0
C513 C 0.76538 0.92117 0.6105 0.0
C514 C 0.8903 0.04724 0.65059 0.0
C515 C 0.78303 0.98479 0.57872 0.0
C516 C 0.88229 0.16474 0.6094 0.0
C517 C 0.93619 0.18502 0.60272 0.0
C518 C 0.847 0.10869 0.61159 0.0
C519 C 0.86603 0.07232 0.60659 0.0
C520 C 0.9181 0.09222 0.59717 0.0
C521 C 0.95273 0.14852 0.5954 0.0
C522 C 0.79176 0.08909 0.62172 0.0
C523 C 0.93963 0.05477 0.59115 0.0
H524 H 0.82672 0.94138 0.66052 0.0
H525 H 0.7342 0.88896 0.60055 0.0
H526 H 0.93063 0.0606 0.64314 0.0
H527 H 0.88472 0.08326 0.6517 0.0
H528 H 0.89021 0.03248 0.66756 0.0
H529 H 0.75073 0.94748 0.5706 0.0
H530 H 0.77025 0.01592 0.57903 0.0
H531 H 0.82041 0.00143 0.56855 0.0
H532 H 0.86906 0.19282 0.61474 0.0
H533 H 0.99426 0.16354 0.59026 0.0
H534 H 0.79234 0.07736 0.63913 0.0
H535 H 0.76024 0.05258 0.61297 0.0
H536 H 0.78 0.12107 0.62146 0.0
H537 H 0.95545 0.04524 0.60619 0.0
H538 H 0.97341 0.07409 0.57906 0.0
H539 H 0.90722 0.01584 0.58417 0.0
C540 C 0.22888 0.23973 0.90561 0.0
C541 C 0.17273 0.21134 0.90205 0.0
C542 C 0.2572 0.21124 0.90869 0.0
C543 C 0.2285 0.15359 0.90753 0.0
C544 C 0.17089 0.12543 0.9074 0.0
C545 C 0.14379 0.15487 0.9047 0.0
C546 C 0.31812 0.24309 0.91068 0.0
C547 C 0.13788 0.06395 0.90678 0.0
C548 C 0.26023 0.07095 0.86906 0.0
C549 C 0.25572 0.03055 0.88352 0.0
C550 C 0.26032 0.11738 0.87705 0.0
C551 C 0.25604 0.12323 0.9001 0.0
C552 C 0.26247 0.08794 0.91473 0.0
C553 C 0.26177 0.04131 0.90623 0.0
C554 C 0.2559 0.15504 0.86064 0.0
C555 C 0.26294 0.09517 0.93937 0.0
H556 H 0.25133 0.28361 0.90365 0.0
H557 H 0.10025 0.13319 0.90203 0.0
H558 H 0.33456 0.21826 0.91785 0.0
H559 H 0.33634 0.25745 0.89414 0.0
H560 H 0.33078 0.27975 0.92113 0.0
H561 H 0.09365 0.0487 0.90831 0.0
H562 H 0.14514 0.04879 0.89097 0.0
H563 H 0.15015 0.04625 0.92034 0.0
H564 H 0.25619 0.06268 0.85148 0.0
H565 H 0.2588 0.01023 0.91749 0.0
H566 H 0.2844 0.1981 0.86496 0.0
H567 H 0.21417 0.1489 0.861 0.0
H568 H 0.26485 0.1477 0.84354 0.0
H569 H 0.27658 0.13805 0.94396 0.0
H570 H 0.28997 0.08237 0.94732 0.0
H571 H 0.2215 0.06887 0.94603 0.0
C572 C 0.01742 0.75849 0.61078 0.0
C573 C 0.03147 0.80077 0.62606 0.0
C574 C 0.96291 0.71968 0.60666 0.0
C575 C 0.92151 0.7247 0.61745 0.0
C576 C 0.93557 0.76796 0.63265 0.0
C577 C 0.99021 0.80497 0.63687 0.0
C578 C 0.95038 0.6745 0.59042 0.0
C579 C 0.89296 0.77574 0.64444 0.0
C580 C 0.78204 0.68841 0.60194 0.0
C581 C 0.75603 0.65966 0.62108 0.0
C582 C 0.83612 0.70301 0.5978 0.0
C583 C 0.86312 0.68676 0.61292 0.0
C584 C 0.83242 0.6462 0.6287 0.0
C585 C 0.77871 0.63326 0.63278 0.0
C586 C 0.86681 0.74416 0.58 0.0
C587 C 0.85892 0.62451 0.64398 0.0
H588 H 0.04879 0.75605 0.60167 0.0
H589 H 0.0006 0.83758 0.64863 0.0
H590 H 0.91116 0.63729 0.59404 0.0
H591 H 0.94812 0.68856 0.5736 0.0
H592 H 0.98302 0.66376 0.59035 0.0
H593 H 0.91097 0.81254 0.65511 0.0
H594 H 0.86598 0.77966 0.63228 0.0
H595 H 0.86749 0.73984 0.65492 0.0
H596 H 0.76463 0.70848 0.59273 0.0
H597 H 0.75804 0.60973 0.64731 0.0
H598 H 0.8935 0.73272 0.57089 0.0
H599 H 0.89295 0.78471 0.58761 0.0
H600 H 0.83901 0.74781 0.56817 0.0
H601 H 0.82865 0.5844 0.65091 0.0
H602 H 0.87812 0.65341 0.65789 0.0
H603 H 0.89105 0.62032 0.63529 0.0
C604 C 0.9289 0.21606 0.90005 0.0
C605 C 0.93926 0.21133 0.87777 0.0
C606 C 0.88425 0.17283 0.91085 0.0
C607 C 0.85072 0.12412 0.8991 0.0
C608 C 0.85624 0.12339 0.87587 0.0
C609 C 0.90027 0.16733 0.86549 0.0
C610 C 0.87577 0.17705 0.93515 0.0
C611 C 0.82047 0.07323 0.86233 0.0
C612 C 0.82056 0.98556 0.9167 0.0
C613 C 0.76434 0.95646 0.91373 0.0
C614 C 0.8494 0.04252 0.91523 0.0
C615 C 0.82091 0.07077 0.9108 0.0
C616 C 0.76346 0.04204 0.91181 0.0
C617 C 0.73564 0.98477 0.91306 0.0
C618 C 0.91069 0.07112 0.91492 0.0
C619 C 0.73106 0.07045 0.90878 0.0
H620 H 0.95871 0.25041 0.90958 0.0
H621 H 0.90797 0.16415 0.84817 0.0
H622 H 0.83298 0.16595 0.93822 0.0
H623 H 0.88316 0.14778 0.94449 0.0
H624 H 0.90292 0.21873 0.94162 0.0
H625 H 0.8277 0.0808 0.84434 0.0
H626 H 0.82838 0.03988 0.86688 0.0
H627 H 0.77712 0.05899 0.86568 0.0
H628 H 0.84262 0.96347 0.91721 0.0
H629 H 0.692 0.96228 0.91075 0.0
H630 H 0.92818 0.10823 0.92533 0.0
H631 H 0.92547 0.08389 0.89781 0.0
H632 H 0.92628 0.04445 0.92089 0.0
H633 H 0.75528 0.11461 0.91253 0.0
H634 H 0.6946 0.0517 0.91956 0.0
H635 H 0.71659 0.06533 0.89149 0.0
C636 C 0.37877 0.16508 0.29075 0.0
C637 C 0.39869 0.1342 0.3009 0.0
C638 C 0.37561 0.16638 0.26753 0.0
C639 C 0.39227 0.13571 0.25439 0.0
C640 C 0.41857 0.11032 0.26465 0.0
C641 C 0.42159 0.11009 0.28772 0.0
C642 C 0.34962 0.19612 0.25722 0.0
C643 C 0.43759 0.07761 0.25152 0.0
C644 C 0.30369 0.05637 0.20572 0.0
C645 C 0.33705 0.08287 0.1876 0.0
C646 C 0.32097 0.07404 0.22736 0.0
C647 C 0.37259 0.12051 0.23114 0.0
C648 C 0.40589 0.14867 0.21281 0.0
C649 C 0.38812 0.12894 0.19126 0.0
C650 C 0.28428 0.04189 0.24626 0.0
C651 C 0.46054 0.19908 0.21587 0.0
H652 H 0.36098 0.18379 0.30084 0.0
H653 H 0.43738 0.08645 0.29553 0.0
H654 H 0.37081 0.21652 0.24174 0.0
H655 H 0.30685 0.1665 0.253 0.0
H656 H 0.34991 0.227 0.26863 0.0
H657 H 0.46374 0.06691 0.26145 0.0
H658 H 0.4018 0.03931 0.24578 0.0
H659 H 0.46052 0.1004 0.23672 0.0
H660 H 0.26416 0.02083 0.20297 0.0
H661 H 0.41386 0.15009 0.17728 0.0
H662 H 0.27513 0.06861 0.25663 0.0
H663 H 0.30504 0.02605 0.25689 0.0
H664 H 0.24533 0.00693 0.24052 0.0
H665 H 0.45955 0.22476 0.22951 0.0
H666 H 0.47426 0.22386 0.20057 0.0
H667 H 0.49101 0.18703 0.22014 0.0
C668 C 0.75439 0.60529 0.31317 0.0
C669 C 0.74784 0.64929 0.31973 0.0
C670 C 0.74452 0.58625 0.29111 0.0
C671 C 0.72911 0.6127 0.27518 0.0
C672 C 0.7204 0.65555 0.28204 0.0
C673 C 0.72906 0.67257 0.30408 0.0
C674 C 0.75252 0.53921 0.28484 0.0
C675 C 0.70368 0.68512 0.26589 0.0
C676 C 0.75716 0.6285 0.21378 0.0
C677 C 0.70406 0.60185 0.20555 0.0
C678 C 0.76707 0.62724 0.23649 0.0
C679 C 0.7229 0.59791 0.25116 0.0
C680 C 0.67031 0.56476 0.24231 0.0
C681 C 0.66135 0.56788 0.21969 0.0
C682 C 0.82396 0.66259 0.24504 0.0
C683 C 0.62241 0.53064 0.25707 0.0
H684 H 0.7687 0.58676 0.32503 0.0
H685 H 0.72288 0.70598 0.30884 0.0
H686 H 0.72247 0.51276 0.27229 0.0
H687 H 0.79359 0.55523 0.27765 0.0
H688 H 0.74923 0.51409 0.29943 0.0
H689 H 0.69978 0.71841 0.27379 0.0
H690 H 0.73402 0.7029 0.25241 0.0
H691 H 0.66414 0.65616 0.25828 0.0
H692 H 0.79029 0.65495 0.20296 0.0
H693 H 0.62022 0.54671 0.21334 0.0
H694 H 0.8335 0.64094 0.25793 0.0
H695 H 0.82727 0.69979 0.25268 0.0
H696 H 0.85462 0.67519 0.23166 0.0
H697 H 0.63371 0.51124 0.27034 0.0
H698 H 0.58777 0.49844 0.24761 0.0
H699 H 0.60877 0.55707 0.26503 0.0
C700 C 0.86412 0.30734 0.19845 0.0
C701 C 0.91743 0.32216 0.19255 0.0
C702 C 0.84911 0.30368 0.22079 0.0
C703 C 0.88779 0.31258 0.23735 0.0
C704 C 0.94308 0.33505 0.23133 0.0
C705 C 0.95719 0.3398 0.20896 0.0
C706 C 0.79065 0.28419 0.22648 0.0
C707 C 0.9863 0.34651 0.24832 0.0
C708 C 0.87716 0.29203 0.2993 0.0
C709 C 0.87327 0.24073 0.30044 0.0
C710 C 0.8751 0.31426 0.27877 0.0
C711 C 0.87004 0.28471 0.25916 0.0
C712 C 0.8588 0.2301 0.26071 0.0
C713 C 0.85998 0.20873 0.28135 0.0
C714 C 0.88321 0.37102 0.27814 0.0
C715 C 0.85193 0.19613 0.24042 0.0
H716 H 0.83307 0.29333 0.18581 0.0
H717 H -0.00161 0.35115 0.20436 0.0
H718 H 0.76751 0.23903 0.22642 0.0
H719 H 0.78676 0.29857 0.24307 0.0
H720 H 0.77194 0.29855 0.21406 0.0
H721 H 0.0278 0.36879 0.24119 0.0
H722 H 0.98382 0.37093 0.26209 0.0
H723 H 0.97986 0.30748 0.25526 0.0
H724 H 0.88651 0.31675 0.31407 0.0
H725 H 0.85547 0.16844 0.28226 0.0
H726 H 0.86651 0.37844 0.26285 0.0
H727 H 0.92721 0.40108 0.27897 0.0
H728 H 0.86364 0.37822 0.29263 0.0
H729 H 0.81982 0.19462 0.22962 0.0
H730 H 0.841 0.15369 0.24458 0.0
H731 H 0.89031 0.21481 0.23082 0.0
C732 C 0.05071 0.34974 0.7118 0.0
C733 C 0.08418 0.36305 0.69313 0.0
C734 C 0.0725 0.36076 0.73317 0.0
C735 C 0.12948 0.38687 0.73606 0.0
C736 C 0.16362 0.40747 0.71729 0.0
C737 C 0.14061 0.39488 0.69595 0.0
C738 C 0.03408 0.33849 0.75254 0.0
C739 C 0.22448 0.43857 0.71965 0.0
C740 C 0.16221 0.39962 0.79747 0.0
C741 C 0.15931 0.34938 0.80126 0.0
C742 C 0.15857 0.416 0.77583 0.0
C743 C 0.15113 0.38091 0.75778 0.0
C744 C 0.15434 0.3332 0.7615 0.0
C745 C 0.15876 0.31838 0.7831 0.0
C746 C 0.15805 0.46849 0.77264 0.0
C747 C 0.1469 0.29431 0.74296 0.0
H748 H 0.00703 0.32624 0.70979 0.0
H749 H 0.16699 0.40603 0.68167 0.0
H750 H 0.03653 0.30395 0.75992 0.0
H751 H 0.04554 0.37005 0.76547 0.0
H752 H 0.99131 0.32378 0.74769 0.0
H753 H 0.24444 0.46257 0.7046 0.0
H754 H 0.23681 0.46648 0.73405 0.0
H755 H 0.23941 0.40963 0.72246 0.0
H756 H 0.16267 0.42391 0.8114 0.0
H757 H 0.15717 0.27982 0.78594 0.0
H758 H 0.11559 0.46016 0.77306 0.0
H759 H 0.17588 0.48736 0.7565 0.0
H760 H 0.18071 0.49803 0.78602 0.0
H761 H 0.10472 0.27538 0.73664 0.0
H762 H 0.1546 0.2613 0.74835 0.0
H763 H 0.1746 0.31633 0.72909 0.0
C764 C 0.22085 0.81681 0.80241 0.0
C765 C 0.17163 0.81583 0.80617 0.0
C766 C 0.24146 0.82163 0.78081 0.0
C767 C 0.21209 0.82558 0.76268 0.0
C768 C 0.15989 0.81904 0.7664 0.0
C769 C 0.14048 0.81431 0.78802 0.0
C770 C 0.29656 0.82701 0.77772 0.0
C771 C 0.12644 0.82216 0.74772 0.0
C772 C 0.27076 0.91879 0.7137 0.0
C773 C 0.25239 0.88131 0.69628 0.0
C774 C 0.26398 0.90135 0.73573 0.0
C775 C 0.2378 0.84486 0.74047 0.0
C776 C 0.22582 0.80748 0.72288 0.0
C777 C 0.23269 0.8261 0.70093 0.0
C778 C 0.27841 0.94304 0.75382 0.0
C779 C 0.20007 0.74721 0.72709 0.0
H780 H 0.24538 0.81838 0.81637 0.0
H781 H 0.10228 0.81325 0.79084 0.0
H782 H 0.29914 0.80889 0.76184 0.0
H783 H 0.32793 0.87079 0.77759 0.0
H784 H 0.30622 0.80726 0.79142 0.0
H785 H 0.08509 0.81197 0.75313 0.0
H786 H 0.14702 0.864 0.74081 0.0
H787 H 0.12253 0.79391 0.73424 0.0
H788 H 0.28531 0.96139 0.71015 0.0
H789 H 0.21762 0.79682 0.68752 0.0
H790 H 0.29905 0.93506 0.7676 0.0
H791 H 0.24071 0.9403 0.76046 0.0
H792 H 0.30518 0.9852 0.74778 0.0
H793 H 0.21638 0.73914 0.74235 0.0
H794 H 0.20678 0.72603 0.71303 0.0
H795 H 0.15568 0.7296 0.72927 0.0
C796 C 0.56713 0.7274 0.71298 0.0
C797 C 0.59973 0.70368 0.70998 0.0
C798 C 0.55655 0.7399 0.73429 0.0
C799 C 0.57886 0.72782 0.75288 0.0
C800 C 0.60477 0.69652 0.7499 0.0
C801 C 0.61508 0.68512 0.7285 0.0
C802 C 0.52705 0.77154 0.73646 0.0
C803 C 0.62825 0.68133 0.76913 0.0
C804 C 0.65411 0.82782 0.79841 0.0
C805 C 0.6241 0.79945 0.817 0.0
C806 C 0.63649 0.80773 0.77708 0.0
C807 C 0.58749 0.75774 0.7742 0.0
C808 C 0.55372 0.73249 0.79273 0.0
C809 C 0.57251 0.75362 0.81405 0.0
C810 C 0.67346 0.8371 0.75787 0.0
C811 C 0.49986 0.68095 0.79016 0.0
H812 H 0.55474 0.74143 0.6988 0.0
H813 H 0.63991 0.66629 0.72624 0.0
H814 H 0.50645 0.76457 0.75266 0.0
H815 H 0.55663 0.81568 0.73491 0.0
H816 H 0.49659 0.76046 0.7231 0.0
H817 H 0.63983 0.65054 0.76446 0.0
H818 H 0.66504 0.71824 0.77521 0.0
H819 H 0.59884 0.66492 0.78295 0.0
H820 H 0.6937 0.86367 0.80065 0.0
H821 H 0.54901 0.7316 0.82838 0.0
H822 H 0.65023 0.84186 0.74424 0.0
H823 H 0.69142 0.8128 0.75151 0.0
H824 H 0.70704 0.87807 0.76257 0.0
H825 H 0.47545 0.68644 0.77723 0.0
H826 H 0.47633 0.66886 0.80579 0.0
H827 H 0.50641 0.64729 0.78467 0.0
C828 C 0.12818 0.85579 0.9598 0.0
C829 C 0.16113 0.83283 0.95562 0.0
C830 C 0.1278 0.87726 0.98081 0.0
C831 C 0.16257 0.87751 0.99766 0.0
C832 C 0.19159 0.84963 0.99406 0.0
C833 C 0.18965 0.82686 0.97331 0.0
C834 C 0.09302 0.90293 0.98447 0.0
C835 C 0.22927 0.84864 0.01136 0.0
C836 C 0.24048 0.0047 0.03237 0.0
C837 C 0.22219 0.98592 0.05381 0.0
C838 C 0.21971 0.9703 0.01401 0.0
C839 C 0.17787 0.91563 0.01689 0.0
C840 C 0.15689 0.89706 0.03841 0.0
C841 C 0.18022 0.93211 0.05671 0.0
C842 C 0.24492 0.992 0.99166 0.0
C843 C 0.11082 0.84006 0.04241 0.0
H844 H 0.10511 0.85978 0.94645 0.0
H845 H 0.21424 0.80799 0.97054 0.0
H846 H 0.07714 0.89591 1.0016 0.0
H847 H 0.11768 0.94752 0.98187 0.0
H848 H 0.05836 0.88653 0.97277 0.0
H849 H 0.24734 0.8234 0.0063 0.0
H850 H 0.26272 0.89074 0.01454 0.0
H851 H 0.20719 0.83238 0.02708 0.0
H852 H 0.27305 0.0462 0.02995 0.0
H853 H 0.16533 0.91752 0.07318 0.0
H854 H 0.21365 0.98877 0.9799 0.0
H855 H 0.26219 0.9674 0.98494 0.0
H856 H 0.27772 0.03528 0.99234 0.0
H857 H 0.08508 0.82249 0.02756 0.0
H858 H 0.08494 0.83954 0.05627 0.0
H859 H 0.12755 0.81357 0.04716 0.0
C860 C 0.74426 0.68935 0.46452 0.0
C861 C 0.78483 0.6751 0.46366 0.0
C862 C 0.72683 0.69937 0.48489 0.0
C863 C 0.75163 0.69647 0.50476 0.0
C864 C 0.79419 0.68423 0.50377 0.0
C865 C 0.80977 0.67316 0.4833 0.0
C866 C 0.6806 0.71115 0.4852 0.0
C867 C 0.82412 0.68367 0.52423 0.0
C868 C 0.73458 0.76671 0.55532 0.0
C869 C 0.69561 0.7225 0.56759 0.0
C870 C 0.7541 0.75878 0.53515 0.0
C871 C 0.73265 0.70543 0.52659 0.0
C872 C 0.69342 0.66056 0.53904 0.0
C873 C 0.67602 0.66958 0.55959 0.0
C874 C 0.79789 0.8075 0.52307 0.0
C875 C 0.66937 0.60306 0.53048 0.0
H876 H 0.7245 0.69028 0.44938 0.0
H877 H 0.8417 0.66282 0.48264 0.0
H878 H 0.64635 0.67939 0.49492 0.0
H879 H 0.69345 0.75079 0.49338 0.0
H880 H 0.66588 0.7123 0.46836 0.0
H881 H 0.84908 0.66413 0.52124 0.0
H882 H 0.85158 0.72627 0.52955 0.0
H883 H 0.79574 0.6622 0.53801 0.0
H884 H 0.75018 0.80769 0.56163 0.0
H885 H 0.64577 0.63543 0.56904 0.0
H886 H 0.78314 0.81099 0.50657 0.0
H887 H 0.8336 0.80218 0.52044 0.0
H888 H 0.81119 0.84616 0.53221 0.0
H889 H 0.65115 0.59982 0.51398 0.0
H890 H 0.63771 0.57287 0.54166 0.0
H891 H 0.70177 0.5924 0.52851 0.0
C892 C 0.15515 0.33864 0.96838 0.0
C893 C 0.12444 0.30989 0.94993 0.0
C894 C 0.13175 0.32872 0.9895 0.0
C895 C 0.07591 0.29052 0.99206 0.0
C896 C 0.04674 0.25673 0.97398 0.0
C897 C 0.07157 0.26657 0.95309 0.0
C898 C 0.16528 0.36315 0.00861 0.0
C899 C 0.98759 0.21438 0.97607 0.0
C900 C 0.00687 0.26469 0.04851 0.0
C901 C 0.99029 0.30366 0.04885 0.0
C902 C 0.03543 0.25994 0.03041 0.0
C903 C 0.04612 0.29402 0.0118 0.0
C904 C 0.02809 0.33257 0.01185 0.0
C905 C 0.00096 0.33719 0.03038 0.0
C906 C 0.05459 0.21901 0.03158 0.0
C907 C 0.03707 0.36887 0.99221 0.0
H908 H 0.19614 0.37212 0.96599 0.0
H909 H 0.04749 0.24453 0.93885 0.0
H910 H 0.15484 0.39533 0.01206 0.0
H911 H 0.15633 0.33797 0.02371 0.0
H912 H 0.20944 0.38311 0.00506 0.0
H913 H 0.97387 0.18506 0.96211 0.0
H914 H 0.97973 0.1915 0.99173 0.0
H915 H 0.963 0.2349 0.97625 0.0
H916 H -0.00426 0.23663 0.06207 0.0
H917 H 0.98765 0.36701 0.03032 0.0
H918 H 0.09613 0.23921 0.03863 0.0
H919 H 0.0562 0.20282 0.0151 0.0
H920 H 0.02797 0.18436 0.04247 0.0
H921 H 0.08119 0.39581 0.98937 0.0
H922 H 0.01827 0.39479 0.99445 0.0
H923 H 0.0198 0.34374 0.97715 0.0
C924 C 0.32709 0.12272 0.46388 0.0
C925 C 0.3196 0.08616 0.44679 0.0
C926 C 0.30924 0.10427 0.48546 0.0
C927 C 0.28431 0.04792 0.49017 0.0
C928 C 0.27315 0.0106 0.4726 0.0
C929 C 0.29122 0.03023 0.45115 0.0
C930 C 0.32099 0.14547 0.50349 0.0
C931 C 0.2465 0.95016 0.47673 0.0
C932 C 0.31475 0.00139 0.54428 0.0
C933 C 0.26497 0.97921 0.55534 0.0
C934 C 0.32217 0.0262 0.52359 0.0
C935 C 0.27855 0.02886 0.51355 0.0
C936 C 0.22912 0.00958 0.5253 0.0
C937 C 0.2227 0.98436 0.54599 0.0
C938 C 0.37569 0.04624 0.51184 0.0
C939 C 0.18187 0.01227 0.51543 0.0
H940 H 0.3495 0.1661 0.4606 0.0
H941 H 0.28707 0.00199 0.43822 0.0
H942 H 0.2857 0.13137 0.51474 0.0
H943 H 0.35588 0.15044 0.51345 0.0
H944 H 0.33119 0.18589 0.49672 0.0
H945 H 0.23354 0.92631 0.46114 0.0
H946 H 0.27559 0.9411 0.48527 0.0
H947 H 0.21058 0.93635 0.48758 0.0
H948 H 0.34705 0.99637 0.5513 0.0
H949 H 0.18346 0.96521 0.55404 0.0
H950 H 0.39212 0.08899 0.50643 0.0
H951 H 0.3695 0.02124 0.49685 0.0
H952 H 0.40644 0.04407 0.52241 0.0
H953 H 0.19566 0.05248 0.50763 0.0
H954 H 0.15047 0.00497 0.52799 0.0
H955 H 0.16293 0.98084 0.50237 0.0
C956 C 0.71769 0.77494 0.0675 0.0
C957 C 0.74091 0.74148 0.06789 0.0
C958 C 0.717 0.80156 0.04803 0.0
C959 C 0.7364 0.7912 0.02808 0.0
C960 C 0.76464 0.76179 0.02889 0.0
C961 C 0.76687 0.73767 0.04882 0.0
C962 C 0.68955 0.83538 0.04831 0.0
C963 C 0.78628 0.74969 0.00819 0.0
C964 C 0.63961 0.75355 0.97994 0.0
C965 C 0.6684 0.7955 0.96463 0.0
C966 C 0.66138 0.75253 1.00044 0.0
C967 C 0.71312 0.79569 0.00655 0.0
C968 C 0.74188 0.83971 0.99168 0.0
C969 C 0.71962 0.83861 0.97066 0.0
C970 C 0.62923 0.70377 0.01525 0.0
C971 C 0.7965 0.88738 0.99757 0.0
H972 H 0.69498 0.77577 0.08163 0.0
H973 H 0.78476 0.71164 0.04898 0.0
H974 H 0.70938 0.8698 0.03652 0.0
H975 H 0.64651 0.80975 0.0433 0.0
H976 H 0.69041 0.85178 0.06506 0.0
H977 H 0.81356 0.73318 0.0119 0.0
H978 H 0.75183 0.71921 0.99814 0.0
H979 H 0.80878 0.78694 0.99807 0.0
H980 H 0.60015 0.71967 0.97562 0.0
H981 H 0.74233 0.87122 0.95902 0.0
H982 H 0.61886 0.71684 0.03088 0.0
H983 H 0.6538 0.68452 0.01945 0.0
H984 H 0.59087 0.67238 0.00749 0.0
H985 H 0.80062 0.89516 0.0156 0.0
H986 H 0.80344 0.92491 0.98896 0.0
H987 H 0.82875 0.87871 0.99221 0.0
C988 C 0.02437 0.2387 0.5455 0.0
C989 C 0.0517 0.29543 0.54808 0.0
C990 C -0.00388 0.21395 0.52591 0.0
C991 C -0.00486 0.24692 0.50857 0.0
C992 C 0.02226 0.30428 0.51131 0.0
C993 C 0.05057 0.32775 0.5309 0.0
C994 C 0.96892 0.15287 0.52358 0.0
C995 C 0.02151 0.34112 0.4935 0.0
C996 C 0.97238 0.21647 0.44755 0.0
C997 C 0.92104 0.21139 0.4449 0.0
C998 C -0.00514 0.22153 0.46867 0.0
C999 C 0.96577 0.2227 0.48747 0.0
C1000 C 0.91154 0.21109 0.485 0.0
C1001 C 0.88972 0.20519 0.46375 0.0
C1002 C 0.05199 0.23153 0.47062 0.0
C1003 C 0.87869 0.21134 0.50453 0.0
H1004 H 0.02679 0.21385 0.55845 0.0
H1005 H 0.07175 0.37165 0.53285 0.0
H1006 H 0.92745 0.13593 0.51672 0.0
H1007 H 0.99249 0.14256 0.51187 0.0
H1008 H 0.96631 0.13267 0.53958 0.0
H1009 H 0.04308 0.38465 0.49852 0.0
H1010 H 0.04096 0.33692 0.47832 0.0
H1011 H 0.97901 0.32912 0.48929 0.0
H1012 H -0.00301 0.22132 0.43313 0.0
H1013 H 0.8498 0.20079 0.46186 0.0
H1014 H 0.05581 0.20964 0.48504 0.0
H1015 H 0.08032 0.27568 0.47313 0.0
H1016 H 0.06466 0.21844 0.45553 0.0
H1017 H 0.88328 0.18924 0.51868 0.0
H1018 H 0.83489 0.19263 0.50048 0.0
H1019 H 0.89371 0.25403 0.50985 0.0
C1020 C 0.71177 0.14864 0.11656 0.0
C1021 C 0.73534 0.19907 0.10572 0.0
C1022 C 0.65512 0.11692 0.11907 0.0
C1023 C 0.62167 0.13713 0.11117 0.0
C1024 C 0.64533 0.18781 0.1001 0.0
C1025 C 0.70157 0.2177 0.09733 0.0
C1026 C 0.63147 0.06265 0.1306 0.0
C1027 C 0.61133 0.21119 0.09146 0.0
C1028 C 0.47373 0.06178 0.09639 0.0
C1029 C 0.4521 0.079 0.11331 0.0
C1030 C 0.52818 0.07474 0.09683 0.0
C1031 C 0.56187 0.10675 0.11435 0.0
C1032 C 0.53878 0.11942 0.13255 0.0
C1033 C 0.48386 0.105 0.13188 0.0
C1034 C 0.55081 0.0589 0.07746 0.0
C1035 C 0.57324 0.15331 0.15159 0.0
H1036 H 0.73744 0.13435 0.12346 0.0
H1037 H 0.71916 0.25658 0.08894 0.0
H1038 H 0.61933 0.06664 0.14758 0.0
H1039 H 0.59463 0.03139 0.12195 0.0
H1040 H 0.66116 0.04807 0.13168 0.0
H1041 H 0.63627 0.25155 0.08354 0.0
H1042 H 0.58167 0.18306 0.07918 0.0
H1043 H 0.58798 0.21581 0.10515 0.0
H1044 H 0.44888 0.04069 0.0822 0.0
H1045 H 0.46716 0.11807 0.14508 0.0
H1046 H 0.57978 0.04596 0.08307 0.0
H1047 H 0.57323 0.09465 0.0665 0.0
H1048 H 0.51819 0.02543 0.06767 0.0
H1049 H 0.54816 0.15186 0.16593 0.0
H1050 H 0.59806 0.19633 0.14625 0.0
H1051 H 0.60152 0.13927 0.15694 0.0
C1052 C 0.67424 0.46274 0.37036 0.0
C1053 C 0.68877 0.51732 0.36738 0.0
C1054 C 0.62526 0.42064 0.36224 0.0
C1055 C 0.58993 0.43338 0.35046 0.0
C1056 C 0.60714 0.48834 0.34524 0.0
C1057 C 0.65613 0.52988 0.3541 0.0
C1058 C 0.60979 0.36264 0.36792 0.0
C1059 C 0.57315 0.50408 0.3314 0.0
C1060 C 0.47894 0.29462 0.33745 0.0
C1061 C 0.45286 0.2834 0.35795 0.0
C1062 C 0.51864 0.34826 0.33216 0.0
C1063 C 0.53239 0.38985 0.34802 0.0
C1064 C 0.49773 0.37989 0.36634 0.0
C1065 C 0.45849 0.32623 0.37125 0.0
C1066 C 0.5513 0.35872 0.31133 0.0
C1067 C 0.50832 0.42391 0.3829 0.0
H1068 H 0.7001 0.45268 0.38001 0.0
H1069 H 0.66735 0.57198 0.35141 0.0
H1070 H 0.57329 0.34427 0.37864 0.0
H1071 H 0.59995 0.33762 0.35275 0.0
H1072 H 0.64274 0.36009 0.37668 0.0
H1073 H 0.59946 0.53692 0.3197 0.0
H1074 H 0.54143 0.46924 0.32189 0.0
H1075 H 0.55333 0.52065 0.34224 0.0
H1076 H 0.4735 0.26128 0.32691 0.0
H1077 H 0.43692 0.31718 0.38683 0.0
H1078 H 0.58632 0.35264 0.31455 0.0
H1079 H 0.56725 0.40117 0.30552 0.0
H1080 H 0.5264 0.32995 0.29808 0.0
H1081 H 0.54449 0.43283 0.39293 0.0
H1082 H 0.47335 0.41157 0.39422 0.0
H1083 H 0.51676 0.46192 0.37438 0.0
C1084 C 0.90183 0.42553 0.16138 0.0
C1085 C 0.93568 0.43937 0.14287 0.0
C1086 C 0.88542 0.46149 0.1695 0.0
C1087 C 0.90194 0.51092 0.15819 0.0
C1088 C 0.94515 0.52957 0.14286 0.0
C1089 C 0.96135 0.49314 0.13518 0.0
C1090 C 0.84265 0.4421 0.18723 0.0
C1091 C 0.96668 0.58368 0.13142 0.0
C1092 C 0.78771 0.52316 0.13295 0.0
C1093 C 0.79195 0.5691 0.14347 0.0
C1094 C 0.82177 0.50285 0.13841 0.0
C1095 C 0.86165 0.52916 0.15502 0.0
C1096 C 0.86456 0.57412 0.16659 0.0
C1097 C 0.82921 0.5935 0.16074 0.0
C1098 C 0.81582 0.45411 0.12566 0.0
C1099 C 0.90443 0.60165 0.18512 0.0
H1100 H 0.88212 0.38433 0.16751 0.0
H1101 H 0.98909 0.50466 0.12133 0.0
H1102 H 0.84629 0.47687 0.19705 0.0
H1103 H 0.80187 0.42113 0.17947 0.0
H1104 H 0.84571 0.41272 0.19841 0.0
H1105 H 0.00769 0.59781 0.12441 0.0
H1106 H 0.939 0.57933 0.11769 0.0
H1107 H 0.96865 0.61512 0.14292 0.0
H1108 H 0.75796 0.50321 0.11999 0.0
H1109 H 0.83189 0.62854 0.16917 0.0
H1110 H 0.80734 0.42031 0.13711 0.0
H1111 H 0.85393 0.46505 0.1167 0.0
H1112 H 0.7824 0.43869 0.1134 0.0
H1113 H 0.88693 0.57836 0.20054 0.0
H1114 H 0.91265 0.64391 0.18784 0.0
H1115 H 0.94341 0.60273 0.18201 0.0
C1116 C 0.51432 0.08282 0.34054 0.0
C1117 C 0.50647 0.07614 0.36341 0.0
C1118 C 0.56556 0.09905 0.33134 0.0
C1119 C 0.60903 0.10886 0.34551 0.0
C1120 C 0.59804 0.09192 0.36784 0.0
C1121 C 0.54662 0.07572 0.37653 0.0
C1122 C 0.5743 0.11229 0.30711 0.0
C1123 C 0.64245 0.09905 0.38347 0.0
C1124 C 0.75934 0.17013 0.34009 0.0
C1125 C 0.77546 0.22172 0.34904 0.0
C1126 C 0.70453 0.13416 0.33511 0.0
C1127 C 0.6657 0.15018 0.33969 0.0
C1128 C 0.68347 0.20532 0.34508 0.0
C1129 C 0.73837 0.24049 0.34966 0.0
C1130 C 0.68794 0.07727 0.32752 0.0
C1131 C 0.64387 0.22532 0.34921 0.0
H1132 H 0.48288 0.08215 0.33023 0.0
H1133 H 0.53991 0.06919 0.39414 0.0
H1134 H 0.57966 0.15337 0.30429 0.0
H1135 H 0.61069 0.11178 0.30077 0.0
H1136 H 0.5382 0.08284 0.2975 0.0
H1137 H 0.62604 0.07875 0.39957 0.0
H1138 H 0.66664 0.08208 0.37618 0.0
H1139 H 0.67025 0.14309 0.38658 0.0
H1140 H 0.78801 0.15553 0.33921 0.0
H1141 H 0.75124 0.281 0.35596 0.0
H1142 H 0.64805 0.05772 0.31904 0.0
H1143 H 0.68511 0.05202 0.34196 0.0
H1144 H 0.71896 0.07786 0.31618 0.0
H1145 H 0.61459 0.21345 0.33541 0.0
H1146 H 0.66463 0.27029 0.35114 0.0
H1147 H 0.62046 0.20647 0.36449 0.0
C1148 C 0.45506 0.26307 0.13554 0.0
C1149 C 0.39932 0.22852 0.138 0.0
C1150 C 0.47846 0.31904 0.13985 0.0
C1151 C 0.44488 0.34045 0.14657 0.0
C1152 C 0.38962 0.30439 0.15149 0.0
C1153 C 0.36744 0.2487 0.14702 0.0
C1154 C 0.53783 0.35587 0.13468 0.0
C1155 C 0.35231 0.32473 0.15908 0.0
C1156 C 0.52932 0.49253 0.15554 0.0
C1157 C 0.53222 0.51068 0.1338 0.0
C1158 C 0.49619 0.43714 0.16081 0.0
C1159 C 0.46539 0.39983 0.14396 0.0
C1160 C 0.46218 0.41966 0.1229 0.0
C1161 C 0.49584 0.47497 0.11808 0.0
C1162 C 0.49898 0.41795 0.18369 0.0
C1163 C 0.42836 0.38162 0.1046 0.0
H1164 H 0.47937 0.24729 0.1283 0.0
H1165 H 0.32417 0.2217 0.14883 0.0
H1166 H 0.54185 0.37875 0.1193 0.0
H1167 H 0.55802 0.38604 0.14808 0.0
H1168 H 0.55949 0.33265 0.13238 0.0
H1169 H 0.33504 0.33419 0.14447 0.0
H1170 H 0.31791 0.29317 0.16885 0.0
H1171 H 0.37415 0.36228 0.16916 0.0
H1172 H 0.55758 0.52001 0.16776 0.0
H1173 H 0.49797 0.48912 0.1013 0.0
H1174 H 0.52763 0.40208 0.18372 0.0
H1175 H 0.45871 0.38442 0.18899 0.0
H1176 H 0.51355 0.45166 0.1959 0.0
H1177 H 0.44674 0.35694 0.09918 0.0
H1178 H 0.42561 0.404 0.0901 0.0
H1179 H 0.3867 0.35308 0.1105 0.0
C1180 C 0.00669 0.64513 0.3941 0.0
C1181 C 0.96216 0.63766 0.38153 0.0
C1182 C 0.03146 0.61352 0.3901 0.0
C1183 C 0.00896 0.57148 0.37407 0.0
C1184 C 0.96956 0.56978 0.35925 0.0
C1185 C 0.94738 0.60378 0.36295 0.0
C1186 C 0.07627 0.61979 0.4052 0.0
C1187 C 0.94382 0.52587 0.34191 0.0
C1188 C 0.04182 0.45626 0.36633 0.0
C1189 C 0.00426 0.41708 0.38089 0.0
C1190 C 0.04664 0.50841 0.36466 0.0
C1191 C 0.01227 0.52081 0.37748 0.0
C1192 C 0.97648 0.48206 0.39294 0.0
C1193 C 0.97395 0.43167 0.39473 0.0
C1194 C 0.08797 0.54989 0.34913 0.0
C1195 C 0.93829 0.49231 0.40693 0.0
H1196 H 0.01835 0.67126 0.40852 0.0
H1197 H 0.91262 0.59755 0.35331 0.0
H1198 H 0.05851 0.59194 0.41947 0.0
H1199 H 0.10428 0.6093 0.39655 0.0
H1200 H 0.09976 0.66207 0.41165 0.0
H1201 H 0.9224 0.53631 0.3292 0.0
H1202 H 0.97445 0.51863 0.33366 0.0
H1203 H 0.91375 0.48721 0.34992 0.0
H1204 H 0.06588 0.44561 0.35575 0.0
H1205 H 0.94576 0.40235 0.40644 0.0
H1206 H 0.1197 0.58417 0.35887 0.0
H1207 H 0.06906 0.56715 0.33824 0.0
H1208 H 0.10777 0.5324 0.33876 0.0
H1209 H 0.96179 0.52754 0.41802 0.0
H1210 H 0.91105 0.45667 0.41727 0.0
H1211 H 0.91269 0.50219 0.39627 0.0
C1212 C 0.10176 0.66812 0.59642 0.0
C1213 C 0.11153 0.70973 0.6113 0.0
C1214 C 0.08362 0.61521 0.60397 0.0
C1215 C 0.07656 0.60471 0.62694 0.0
C1216 C 0.07685 0.64417 0.64132 0.0
C1217 C 0.09419 0.69666 0.63325 0.0
C1218 C 0.08068 0.57322 0.5878 0.0
C1219 C 0.06679 0.63383 0.66571 0.0
C1220 C 0.0561 0.46481 0.63679 0.0
C1221 C 0.11024 0.47703 0.63547 0.0
C1222 C 0.04344 0.5068 0.6368 0.0
C1223 C 0.08611 0.56144 0.63571 0.0
C1224 C 0.14067 0.57347 0.63791 0.0
C1225 C 0.15207 0.53089 0.63745 0.0
C1226 C 0.98476 0.49219 0.63544 0.0
C1227 C 0.18759 0.63132 0.63789 0.0
H1228 H 0.11363 0.67806 0.5793 0.0
H1229 H 0.10051 0.72866 0.64475 0.0
H1230 H 0.11766 0.56962 0.58939 0.0
H1231 H 0.04503 0.53273 0.59129 0.0
H1232 H 0.07803 0.58448 0.5705 0.0
H1233 H 0.04917 0.65788 0.67273 0.0
H1234 H 0.03921 0.59004 0.66927 0.0
H1235 H 0.10595 0.64682 0.67419 0.0
H1236 H 0.0237 0.42284 0.63547 0.0
H1237 H 0.19389 0.53993 0.63686 0.0
H1238 H 0.97167 0.48509 0.61794 0.0
H1239 H 0.97835 0.52514 0.642 0.0
H1240 H 0.95849 0.45403 0.64464 0.0
H1241 H 0.19242 0.64902 0.62117 0.0
H1242 H 0.22642 0.63351 0.64255 0.0
H1243 H 0.17983 0.65689 0.64954 0.0
C1244 C 0.4071 0.95899 0.88868 0.0
C1245 C 0.36464 0.94274 0.87358 0.0
C1246 C 0.45351 0.95624 0.883 0.0
C1247 C 0.45679 0.93717 0.86174 0.0
C1248 C 0.42069 0.93459 0.84513 0.0
C1249 C 0.37441 0.93736 0.8513 0.0
C1250 C 0.49323 0.96337 0.90093 0.0
C1251 C 0.42533 0.91896 0.8218 0.0
C1252 C 0.56267 0.89253 0.86121 0.0
C1253 C 0.53143 0.83968 0.86958 0.0
C1254 C 0.53833 0.9241 0.85625 0.0
C1255 C 0.4819 0.90198 0.85994 0.0
C1256 C 0.44985 0.84633 0.866 0.0
C1257 C 0.47515 0.81615 0.87075 0.0
C1258 C 0.574 0.98203 0.84875 0.0
C1259 C 0.38946 0.81984 0.87002 0.0
H1260 H 0.39999 0.96437 0.90584 0.0
H1261 H 0.34197 0.92583 0.83942 0.0
H1262 H 0.48439 0.92275 0.90693 0.0
H1263 H 0.53534 0.98481 0.89451 0.0
H1264 H 0.49052 0.98671 0.91515 0.0
H1265 H 0.40676 0.9349 0.81001 0.0
H1266 H 0.46839 0.93448 0.8172 0.0
H1267 H 0.40338 0.8739 0.82031 0.0
H1268 H 0.60639 0.91064 0.86018 0.0
H1269 H 0.45114 0.77492 0.87696 0.0
H1270 H 0.59582 0.00782 0.86318 0.0
H1271 H 0.55053 -0.00106 0.84074 0.0
H1272 H 0.60518 0.98451 0.83701 0.0
H1273 H 0.38233 0.83735 0.88517 0.0
H1274 H 0.37017 0.77509 0.87232 0.0
H1275 H 0.36893 0.82737 0.85609 0.0
C1276 C 0.50576 0.55903 0.65231 0.0
C1277 C 0.49795 0.59593 0.63969 0.0
C1278 C 0.46421 0.50452 0.65441 0.0
C1279 C 0.41365 0.48747 0.64404 0.0
C1280 C 0.40476 0.52606 0.63261 0.0
C1281 C 0.4474 0.57955 0.63025 0.0
C1282 C 0.47602 0.46508 0.66646 0.0
C1283 C 0.3509 0.51051 0.62193 0.0
C1284 C 0.31244 0.3613 0.61648 0.0
C1285 C 0.26728 0.35096 0.62926 0.0
C1286 C 0.3647 0.39999 0.62344 0.0
C1287 C 0.37067 0.42921 0.64319 0.0
C1288 C 0.32676 0.4098 0.65817 0.0
C1289 C 0.27509 0.36973 0.65109 0.0
C1290 C 0.41158 0.41657 0.60778 0.0
C1291 C 0.33176 0.43794 0.67988 0.0
H1292 H 0.54528 0.57197 0.65949 0.0
H1293 H 0.44151 0.60851 0.6207 0.0
H1294 H 0.43906 0.43127 0.67405 0.0
H1295 H 0.49245 0.44713 0.65457 0.0
H1296 H 0.50702 0.48612 0.67951 0.0
H1297 H 0.34374 0.48265 0.60785 0.0
H1298 H 0.31726 0.48884 0.63388 0.0
H1299 H 0.34931 0.54652 0.61567 0.0
H1300 H 0.3064 0.34551 0.59978 0.0
H1301 H 0.24014 0.3608 0.66123 0.0
H1302 H 0.44978 0.42922 0.61696 0.0
H1303 H 0.41699 0.45173 0.59779 0.0
H1304 H 0.40409 0.38283 0.59635 0.0
H1305 H 0.3731 0.45516 0.6869 0.0
H1306 H 0.30177 0.40938 0.69198 0.0
H1307 H 0.32347 0.47189 0.67725 0.0
C1308 C 0.089 0.66156 0.84665 0.0
C1309 C 0.14133 0.68147 0.85522 0.0
C1310 C 0.05567 0.60548 0.84221 0.0
C1311 C 0.07545 0.56939 0.84672 0.0
C1312 C 0.13092 0.59112 0.8524 0.0
C1313 C 0.16302 0.64687 0.85649 0.0
C1314 C -0.0015 0.5844 0.83411 0.0
C1315 C 0.15505 0.55517 0.85708 0.0
C1316 C 0.01297 0.44473 0.88054 0.0
C1317 C 0.0259 0.41265 0.86708 0.0
C1318 C 0.01945 0.49414 0.87271 0.0
C1319 C 0.03776 0.51025 0.85076 0.0
C1320 C 0.03668 0.47115 0.83587 0.0
C1321 C 0.03093 0.42229 0.8443 0.0
C1322 C 0.01757 0.53323 0.88918 0.0
C1323 C 0.05107 0.48464 0.81191 0.0
H1324 H 0.07254 0.68868 0.84526 0.0
H1325 H 0.204 0.66273 0.86265 0.0
H1326 H 0.99271 0.56232 0.81832 0.0
H1327 H 0.96878 0.55487 0.846 0.0
H1328 H 0.98922 0.61771 0.83147 0.0
H1329 H 0.1998 0.579 0.85916 0.0
H1330 H 0.13724 0.53213 0.8725 0.0
H1331 H 0.14593 0.52548 0.84357 0.0
H1332 H 0.00776 0.43643 0.89811 0.0
H1333 H 0.03971 0.39677 0.83367 0.0
H1334 H -0.00112 0.55577 0.88188 0.0
H1335 H 0.05955 0.56347 0.89423 0.0
H1336 H 0.99434 0.51184 0.9042 0.0
H1337 H 0.03771 0.51297 0.80581 0.0
H1338 H 0.03234 0.44713 0.80164 0.0
H1339 H 0.09572 0.50462 0.80985 0.0
C1340 C 0.35608 0.86038 0.66457 0.0
C1341 C 0.36381 0.8793 0.6428 0.0
C1342 C 0.39234 0.84652 0.67445 0.0
C1343 C 0.43645 0.85069 0.66196 0.0
C1344 C 0.4468 0.87431 0.64064 0.0
C1345 C 0.41074 0.88884 0.63151 0.0
C1346 C 0.38084 0.82419 0.6976 0.0
C1347 C 0.49342 0.88015 0.62658 0.0
C1348 C 0.55952 0.83944 0.67245 0.0
C1349 C 0.5429 0.78876 0.66267 0.0
C1350 C 0.52191 0.8569 0.67642 0.0
C1351 C 0.46779 0.82417 0.6691 0.0
C1352 C 0.4497 0.76992 0.66219 0.0
C1353 C 0.48771 0.75264 0.65924 0.0
C1354 C 0.54156 0.91299 0.68577 0.0
C1355 C 0.39201 0.73295 0.65476 0.0
H1356 H 0.31997 0.85284 0.67335 0.0
H1357 H 0.41744 0.90447 0.6148 0.0
H1358 H 0.34936 0.78046 0.6971 0.0
H1359 H 0.41756 0.8282 0.70577 0.0
H1360 H 0.36442 0.8454 0.70775 0.0
H1361 H 0.49535 0.89905 0.61032 0.0
H1362 H 0.53251 0.90567 0.63516 0.0
H1363 H 0.48931 0.83957 0.62364 0.0
H1364 H 0.60235 0.86703 0.67537 0.0
H1365 H 0.47516 0.7133 0.65175 0.0
H1366 H 0.50912 0.91432 0.6955 0.0
H1367 H 0.55326 0.94274 0.6721 0.0
H1368 H 0.57768 0.92582 0.69644 0.0
H1369 H 0.36308 0.73318 0.66696 0.0
H1370 H 0.38297 0.69032 0.65239 0.0
H1371 H 0.38513 0.74794 0.63886 0.0
C1372 C 0.54835 0.60495 0.85476 0.0
C1373 C 0.55246 0.60827 0.87782 0.0
C1374 C 0.5021 0.5622 0.84463 0.0
C1375 C 0.45939 0.52378 0.85804 0.0
C1376 C 0.46925 0.52101 0.88077 0.0
C1377 C 0.51618 0.56338 0.89039 0.0
C1378 C 0.49541 0.56229 0.82 0.0
C1379 C 0.42628 0.47891 0.89567 0.0
C1380 C 0.32123 0.50951 0.85532 0.0
C1381 C 0.28829 0.45298 0.85383 0.0
C1382 C 0.37772 0.53415 0.85398 0.0
C1383 C 0.4019 0.50119 0.85086 0.0
C1384 C 0.36832 0.44511 0.84593 0.0
C1385 C 0.31151 0.42137 0.84762 0.0
C1386 C 0.41119 0.59451 0.85877 0.0
C1387 C 0.39168 0.40884 0.84084 0.0
H1388 H 0.57689 0.63933 0.84491 0.0
H1389 H 0.51994 0.56568 0.90821 0.0
H1390 H 0.47943 0.52048 0.81338 0.0
H1391 H 0.46536 0.57504 0.81596 0.0
H1392 H 0.53432 0.59027 0.81165 0.0
H1393 H 0.44244 0.47872 0.91231 0.0
H1394 H 0.39246 0.48758 0.89755 0.0
H1395 H 0.40947 0.43772 0.88838 0.0
H1396 H 0.30298 0.53397 0.85972 0.0
H1397 H 0.28601 0.37756 0.84621 0.0
H1398 H 0.44244 0.6153 0.84585 0.0
H1399 H 0.43238 0.60097 0.87479 0.0
H1400 H 0.386 0.61438 0.85962 0.0
H1401 H 0.4352 0.43232 0.83621 0.0
H1402 H 0.36866 0.38057 0.82717 0.0
H1403 H 0.38718 0.38344 0.85546 0.0
loop_
_geom_bond_atom_site_label_1
_geom_bond_atom_site_label_2
_geom_bond_distance
_geom_bond_site_symmetry_2
_ccdc_geom_bond_type
Zn0 O6 1.920 1_545 S
Zn0 O12 1.898 . S
Zn0 O15 1.905 . S
Zn1 O9 1.905 . S
Zn1 O10 1.898 . S
Zn1 O18 1.920 . S
Zn2 O5 2.080 . S
Zn2 O8 2.114 . S
Zn2 O11 2.120 . S
Zn2 O13 2.120 . S
Zn2 O14 2.114 . S
Zn2 O17 2.080 . S
C3 O8 1.166 . S
C3 O9 1.182 . S
C4 O10 1.167 . S
C4 O11 1.299 . S
O5 Zn2 2.080 . S
O5 C19 1.305 1_545 S
O6 Zn0 1.920 1_565 S
O6 C19 1.234 . S
C7 O12 1.167 . S
C7 O13 1.299 . S
O8 Zn2 2.114 . S
O8 C3 1.166 . S
O9 Zn1 1.905 . S
O9 C3 1.182 . S
O10 Zn1 1.898 . S
O10 C4 1.167 . S
O11 Zn2 2.120 . S
O11 C4 1.299 . S
O12 Zn0 1.898 . S
O12 C7 1.167 . S
O13 Zn2 2.120 . S
O13 C7 1.299 . S
O14 Zn2 2.114 . S
O14 C16 1.166 . S
O15 Zn0 1.905 . S
O15 C16 1.182 . S
C16 O14 1.166 . S
C16 O15 1.182 . S
O17 Zn2 2.080 . S
O17 C20 1.305 . S
O18 Zn1 1.920 . S
O18 C20 1.234 . S
C19 O5 1.305 1_565 S
C19 O6 1.234 . S
C20 O17 1.305 . S
C20 O18 1.234 . S
Zn21 O27 1.920 . S
Zn21 O33 1.898 . S
Zn21 O36 1.905 . S
Zn22 O30 1.905 . S
Zn22 O31 1.898 . S
Zn22 O39 1.920 . S
Zn23 O26 2.080 . S
Zn23 O29 2.114 . S
Zn23 O32 2.120 . S
Zn23 O34 2.120 . S
Zn23 O35 2.114 . S
Zn23 O38 2.080 . S
C24 O29 1.166 . S
C24 O30 1.182 . S
C25 O31 1.167 . S
C25 O32 1.299 . S
O26 Zn23 2.080 . S
O26 C40 1.305 . S
O27 Zn21 1.920 . S
O27 C40 1.234 . S
C28 O33 1.167 . S
C28 O34 1.299 . S
O29 Zn23 2.114 . S
O29 C24 1.166 . S
O30 Zn22 1.905 . S
O30 C24 1.182 . S
O31 Zn22 1.898 . S
O31 C25 1.167 . S
O32 Zn23 2.120 . S
O32 C25 1.299 . S
O33 Zn21 1.898 . S
O33 C28 1.167 . S
O34 Zn23 2.120 . S
O34 C28 1.299 . S
O35 Zn23 2.114 . S
O35 C37 1.166 . S
O36 Zn21 1.905 . S
O36 C37 1.182 . S
C37 O35 1.166 . S
C37 O36 1.182 . S
O38 Zn23 2.080 . S
O38 C41 1.305 . S
O39 Zn22 1.920 . S
O39 C41 1.234 . S
C40 O26 1.305 . S
C40 O27 1.234 . S
C41 O38 1.305 . S
C41 O39 1.234 . S
Zn42 O48 1.920 1_655 S
Zn42 O54 1.898 . S
Zn42 O57 1.905 . S
Zn43 O51 1.905 . S
Zn43 O52 1.898 . S
Zn43 O60 1.920 . S
Zn44 O47 2.080 . S
Zn44 O50 2.114 . S
Zn44 O53 2.120 . S
Zn44 O55 2.120 . S
Zn44 O56 2.114 . S
Zn44 O59 2.080 . S
C45 O50 1.166 . S
C45 O51 1.182 . S
C46 O52 1.167 . S
C46 O53 1.299 . S
O47 Zn44 2.080 . S
O47 C61 1.305 1_655 S
O48 Zn42 1.920 1_455 S
O48 C61 1.234 . S
C49 O54 1.167 . S
C49 O55 1.299 . S
O50 Zn44 2.114 . S
O50 C45 1.166 . S
O51 Zn43 1.905 . S
O51 C45 1.182 . S
O52 Zn43 1.898 . S
O52 C46 1.167 . S
O53 Zn44 2.120 . S
O53 C46 1.299 . S
O54 Zn42 1.898 . S
O54 C49 1.167 . S
O55 Zn44 2.120 . S
O55 C49 1.299 . S
O56 Zn44 2.114 . S
O56 C58 1.166 . S
O57 Zn42 1.905 . S
O57 C58 1.182 . S
C58 O56 1.166 . S
C58 O57 1.182 . S
O59 Zn44 2.080 . S
O59 C62 1.305 . S
O60 Zn43 1.920 . S
O60 C62 1.234 . S
C61 O47 1.305 1_455 S
C61 O48 1.234 . S
C62 O59 1.305 . S
C62 O60 1.234 . S
Zn63 O69 1.920 . S
Zn63 O75 1.898 . S
Zn63 O78 1.905 . S
Zn64 O72 1.905 . S
Zn64 O73 1.898 . S
Zn64 O81 1.920 1_545 S
Zn65 O68 2.080 . S
Zn65 O71 2.114 . S
Zn65 O74 2.120 . S
Zn65 O76 2.120 . S
Zn65 O77 2.114 . S
Zn65 O80 2.080 . S
C66 O71 1.166 . S
C66 O72 1.182 . S
C67 O73 1.167 . S
C67 O74 1.299 . S
O68 Zn65 2.080 . S
O68 C82 1.305 . S
O69 Zn63 1.920 . S
O69 C82 1.234 . S
C70 O75 1.167 . S
C70 O76 1.299 . S
O71 Zn65 2.114 . S
O71 C66 1.166 . S
O72 Zn64 1.905 . S
O72 C66 1.182 . S
O73 Zn64 1.898 . S
O73 C67 1.167 . S
O74 Zn65 2.120 . S
O74 C67 1.299 . S
O75 Zn63 1.898 . S
O75 C70 1.167 . S
O76 Zn65 2.120 . S
O76 C70 1.299 . S
O77 Zn65 2.114 . S
O77 C79 1.166 . S
O78 Zn63 1.905 . S
O78 C79 1.182 . S
C79 O77 1.166 . S
C79 O78 1.182 . S
O80 Zn65 2.080 . S
O80 C83 1.305 1_545 S
O81 Zn64 1.920 1_565 S
O81 C83 1.234 . S
C82 O68 1.305 . S
C82 O69 1.234 . S
C83 O80 1.305 1_565 S
C83 O81 1.234 . S
Zn84 O90 1.920 . S
Zn84 O96 1.898 . S
Zn84 O99 1.905 . S
Zn85 O93 1.905 . S
Zn85 O94 1.898 . S
Zn85 O102 1.920 . S
Zn86 O89 2.080 . S
Zn86 O92 2.114 . S
Zn86 O95 2.120 . S
Zn86 O97 2.120 . S
Zn86 O98 2.114 . S
Zn86 O101 2.080 . S
C87 O92 1.166 . S
C87 O93 1.182 . S
C88 O94 1.167 . S
C88 O95 1.299 . S
O89 Zn86 2.080 . S
O89 C103 1.305 . S
O90 Zn84 1.920 . S
O90 C103 1.234 . S
C91 O96 1.167 . S
C91 O97 1.299 . S
O92 Zn86 2.114 . S
O92 C87 1.166 . S
O93 Zn85 1.905 . S
O93 C87 1.182 . S
O94 Zn85 1.898 . S
O94 C88 1.167 . S
O95 Zn86 2.120 . S
O95 C88 1.299 . S
O96 Zn84 1.898 . S
O96 C91 1.167 . S
O97 Zn86 2.120 . S
O97 C91 1.299 . S
O98 Zn86 2.114 . S
O98 C100 1.166 . S
O99 Zn84 1.905 . S
O99 C100 1.182 . S
C100 O98 1.166 . S
C100 O99 1.182 . S
O101 Zn86 2.080 . S
O101 C104 1.305 . S
O102 Zn85 1.920 . S
O102 C104 1.234 . S
C103 O89 1.305 . S
C103 O90 1.234 . S
C104 O101 1.305 . S
C104 O102 1.234 . S
Zn105 O111 1.920 . S
Zn105 O117 1.898 . S
Zn105 O120 1.905 . S
Zn106 O114 1.905 . S
Zn106 O115 1.898 . S
Zn106 O123 1.920 1_655 S
Zn107 O110 2.080 . S
Zn107 O113 2.114 . S
Zn107 O116 2.120 . S
Zn107 O118 2.120 . S
Zn107 O119 2.114 . S
Zn107 O122 2.080 . S
C108 O113 1.166 . S
C108 O114 1.182 . S
C109 O115 1.167 . S
C109 O116 1.299 . S
O110 Zn107 2.080 . S
O110 C124 1.305 . S
O111 Zn105 1.920 . S
O111 C124 1.234 . S
C112 O117 1.167 . S
C112 O118 1.299 . S
O113 Zn107 2.114 . S
O113 C108 1.166 . S
O114 Zn106 1.905 . S
O114 C108 1.182 . S
O115 Zn106 1.898 . S
O115 C109 1.167 . S
O116 Zn107 2.120 . S
O116 C109 1.299 . S
O117 Zn105 1.898 . S
O117 C112 1.167 . S
O118 Zn107 2.120 . S
O118 C112 1.299 . S
O119 Zn107 2.114 . S
O119 C121 1.166 . S
O120 Zn105 1.905 . S
O120 C121 1.182 . S
C121 O119 1.166 . S
C121 O120 1.182 . S
O122 Zn107 2.080 . S
O122 C125 1.305 1_655 S
O123 Zn106 1.920 1_455 S
O123 C125 1.234 . S
C124 O110 1.305 . S
C124 O111 1.234 . S
C125 O122 1.305 1_455 S
C125 O123 1.234 . S
Zn126 O132 1.920 . S
Zn126 O138 1.898 . S
Zn126 O141 1.905 . S
Zn127 O135 1.905 . S
Zn127 O136 1.898 . S
Zn127 O144 1.920 1_455 S
Zn128 O131 2.080 . S
Zn128 O134 2.114 . S
Zn128 O137 2.120 . S
Zn128 O139 2.120 . S
Zn128 O140 2.114 . S
Zn128 O143 2.080 . S
C129 O134 1.166 . S
C129 O135 1.182 . S
C130 O136 1.167 . S
C130 O137 1.299 . S
O131 Zn128 2.080 . S
O131 C145 1.305 . S
O132 Zn126 1.920 . S
O132 C145 1.234 . S
C133 O138 1.167 . S
C133 O139 1.299 . S
O134 Zn128 2.114 . S
O134 C129 1.166 . S
O135 Zn127 1.905 . S
O135 C129 1.182 . S
O136 Zn127 1.898 . S
O136 C130 1.167 . S
O137 Zn128 2.120 . S
O137 C130 1.299 . S
O138 Zn126 1.898 . S
O138 C133 1.167 . S
O139 Zn128 2.120 . S
O139 C133 1.299 . S
O140 Zn128 2.114 . S
O140 C142 1.166 . S
O141 Zn126 1.905 . S
O141 C142 1.182 . S
C142 O140 1.166 . S
C142 O141 1.182 . S
O143 Zn128 2.080 . S
O143 C146 1.305 1_455 S
O144 Zn127 1.920 1_655 S
O144 C146 1.234 . S
C145 O131 1.305 . S
C145 O132 1.234 . S
C146 O143 1.305 1_655 S
C146 O144 1.234 . S
Zn147 O153 1.920 . S
Zn147 O159 1.898 . S
Zn147 O162 1.905 . S
Zn148 O156 1.905 . S
Zn148 O157 1.898 . S
Zn148 O165 1.920 1_565 S
Zn149 O152 2.080 . S
Zn149 O155 2.114 . S
Zn149 O158 2.120 . S
Zn149 O160 2.120 . S
Zn149 O161 2.114 . S
Zn149 O164 2.080 . S
C150 O155 1.166 . S
C150 O156 1.182 . S
C151 O157 1.167 . S
C151 O158 1.299 . S
O152 Zn149 2.080 . S
O152 C166 1.305 . S
O153 Zn147 1.920 . S
O153 C166 1.234 . S
C154 O159 1.167 . S
C154 O160 1.299 . S
O155 Zn149 2.114 . S
O155 C150 1.166 . S
O156 Zn148 1.905 . S
O156 C150 1.182 . S
O157 Zn148 1.898 . S
O157 C151 1.167 . S
O158 Zn149 2.120 . S
O158 C151 1.299 . S
O159 Zn147 1.898 . S
O159 C154 1.167 . S
O160 Zn149 2.120 . S
O160 C154 1.299 . S
O161 Zn149 2.114 . S
O161 C163 1.166 . S
O162 Zn147 1.905 . S
O162 C163 1.182 . S
C163 O161 1.166 . S
C163 O162 1.182 . S
O164 Zn149 2.080 . S
O164 C167 1.305 1_565 S
O165 Zn148 1.920 1_545 S
O165 C167 1.234 . S
C166 O152 1.305 . S
C166 O153 1.234 . S
C167 O164 1.305 1_545 S
C167 O165 1.234 . S
Zn168 O174 1.920 . S
Zn168 O180 1.898 . S
Zn168 O183 1.905 . S
Zn169 O177 1.905 . S
Zn169 O178 1.898 . S
Zn169 O186 1.920 . S
Zn170 O173 2.080 . S
Zn170 O176 2.114 . S
Zn170 O179 2.120 . S
Zn170 O181 2.120 . S
Zn170 O182 2.114 . S
Zn170 O185 2.080 . S
C171 O176 1.166 . S
C171 O177 1.182 . S
C172 O178 1.167 . S
C172 O179 1.299 . S
O173 Zn170 2.080 . S
O173 C187 1.305 . S
O174 Zn168 1.920 . S
O174 C187 1.234 . S
C175 O180 1.167 . S
C175 O181 1.299 . S
O176 Zn170 2.114 . S
O176 C171 1.166 . S
O177 Zn169 1.905 . S
O177 C171 1.182 . S
O178 Zn169 1.898 . S
O178 C172 1.167 . S
O179 Zn170 2.120 . S
O179 C172 1.299 . S
O180 Zn168 1.898 . S
O180 C175 1.167 . S
O181 Zn170 2.120 . S
O181 C175 1.299 . S
O182 Zn170 2.114 . S
O182 C184 1.166 . S
O183 Zn168 1.905 . S
O183 C184 1.182 . S
C184 O182 1.166 . S
C184 O183 1.182 . S
O185 Zn170 2.080 . S
O185 C188 1.305 . S
O186 Zn169 1.920 . S
O186 C188 1.234 . S
C187 O173 1.305 . S
C187 O174 1.234 . S
C188 O185 1.305 . S
C188 O186 1.234 . S
Zn189 O195 1.920 1_455 S
Zn189 O201 1.898 . S
Zn189 O204 1.905 . S
Zn190 O198 1.905 . S
Zn190 O199 1.898 . S
Zn190 O207 1.920 . S
Zn191 O194 2.080 . S
Zn191 O197 2.114 . S
Zn191 O200 2.120 . S
Zn191 O202 2.120 . S
Zn191 O203 2.114 . S
Zn191 O206 2.080 . S
C192 O197 1.166 . S
C192 O198 1.182 . S
C193 O199 1.167 . S
C193 O200 1.299 . S
O194 Zn191 2.080 . S
O194 C208 1.305 1_455 S
O195 Zn189 1.920 1_655 S
O195 C208 1.234 . S
C196 O201 1.167 . S
C196 O202 1.299 . S
O197 Zn191 2.114 . S
O197 C192 1.166 . S
O198 Zn190 1.905 . S
O198 C192 1.182 . S
O199 Zn190 1.898 . S
O199 C193 1.167 . S
O200 Zn191 2.120 . S
O200 C193 1.299 . S
O201 Zn189 1.898 . S
O201 C196 1.167 . S
O202 Zn191 2.120 . S
O202 C196 1.299 . S
O203 Zn191 2.114 . S
O203 C205 1.166 . S
O204 Zn189 1.905 . S
O204 C205 1.182 . S
C205 O203 1.166 . S
C205 O204 1.182 . S
O206 Zn191 2.080 . S
O206 C209 1.305 . S
O207 Zn190 1.920 . S
O207 C209 1.234 . S
C208 O194 1.305 1_655 S
C208 O195 1.234 . S
C209 O206 1.305 . S
C209 O207 1.234 . S
Zn210 O216 1.920 . S
Zn210 O222 1.898 . S
Zn210 O225 1.905 . S
Zn211 O219 1.905 . S
Zn211 O220 1.898 . S
Zn211 O228 1.920 1_565 S
Zn212 O215 2.080 . S
Zn212 O218 2.114 . S
Zn212 O221 2.120 . S
Zn212 O223 2.120 . S
Zn212 O224 2.114 . S
Zn212 O227 2.080 . S
C213 O218 1.166 . S
C213 O219 1.182 . S
C214 O220 1.167 . S
C214 O221 1.299 . S
O215 Zn212 2.080 . S
O215 C229 1.305 . S
O216 Zn210 1.920 . S
O216 C229 1.234 . S
C217 O222 1.167 . S
C217 O223 1.299 . S
O218 Zn212 2.114 . S
O218 C213 1.166 . S
O219 Zn211 1.905 . S
O219 C213 1.182 . S
O220 Zn211 1.898 . S
O220 C214 1.167 . S
O221 Zn212 2.120 . S
O221 C214 1.299 . S
O222 Zn210 1.898 . S
O222 C217 1.167 . S
O223 Zn212 2.120 . S
O223 C217 1.299 . S
O224 Zn212 2.114 . S
O224 C226 1.166 . S
O225 Zn210 1.905 . S
O225 C226 1.182 . S
C226 O224 1.166 . S
C226 O225 1.182 . S
O227 Zn212 2.080 . S
O227 C230 1.305 1_565 S
O228 Zn211 1.920 1_545 S
O228 C230 1.234 . S
C229 O215 1.305 . S
C229 O216 1.234 . S
C230 O227 1.305 1_545 S
C230 O228 1.234 . S
Zn231 O237 1.920 . S
Zn231 O243 1.898 . S
Zn231 O246 1.905 . S
Zn232 O240 1.905 . S
Zn232 O241 1.898 . S
Zn232 O249 1.920 . S
Zn233 O236 2.080 . S
Zn233 O239 2.114 . S
Zn233 O242 2.120 . S
Zn233 O244 2.120 . S
Zn233 O245 2.114 . S
Zn233 O248 2.080 . S
C234 O239 1.166 . S
C234 O240 1.182 . S
C235 O241 1.167 . S
C235 O242 1.299 . S
O236 Zn233 2.080 . S
O236 C250 1.305 . S
O237 Zn231 1.920 . S
O237 C250 1.234 . S
C238 O243 1.167 . S
C238 O244 1.299 . S
O239 Zn233 2.114 . S
O239 C234 1.166 . S
O240 Zn232 1.905 . S
O240 C234 1.182 . S
O241 Zn232 1.898 . S
O241 C235 1.167 . S
O242 Zn233 2.120 . S
O242 C235 1.299 . S
O243 Zn231 1.898 . S
O243 C238 1.167 . S
O244 Zn233 2.120 . S
O244 C238 1.299 . S
O245 Zn233 2.114 . S
O245 C247 1.166 . S
O246 Zn231 1.905 . S
O246 C247 1.182 . S
C247 O245 1.166 . S
C247 O246 1.182 . S
O248 Zn233 2.080 . S
O248 C251 1.305 . S
O249 Zn232 1.920 . S
O249 C251 1.234 . S
C250 O236 1.305 . S
C250 O237 1.234 . S
C251 O248 1.305 . S
C251 O249 1.234 . S
C252 C253 1.391 . S
C252 C254 1.394 . S
C252 H268 0.931 . S
C253 C252 1.391 . S
C253 C257 1.376 . S
C254 C252 1.394 . S
C254 C255 1.369 . S
C254 C258 1.531 . S
C255 C254 1.369 . S
C255 C256 1.410 . S
C255 C263 1.503 . S
C256 C255 1.410 . S
C256 C257 1.392 . S
C256 C259 1.511 . S
C257 C253 1.376 . S
C257 C256 1.392 . S
C257 H269 0.929 . S
C258 C254 1.531 . S
C258 H270 0.960 . S
C258 H271 0.962 . S
C258 H272 0.960 . S
C259 C256 1.511 . S
C259 H273 0.961 . S
C259 H274 0.961 . S
C259 H275 0.961 . S
C260 C261 1.370 . S
C260 C262 1.363 . S
C260 H276 0.931 . S
C261 C260 1.370 . S
C261 C265 1.408 . S
C262 C260 1.363 . S
C262 C263 1.370 . S
C262 C266 1.524 . S
C263 C255 1.503 . S
C263 C262 1.370 . S
C263 C264 1.403 . S
C264 C263 1.403 . S
C264 C265 1.404 . S
C264 C267 1.539 . S
C265 C261 1.408 . S
C265 C264 1.404 . S
C265 H277 0.930 . S
C266 C262 1.524 . S
C266 H278 0.956 . S
C266 H279 0.961 . S
C266 H280 0.961 . S
C267 C264 1.539 . S
C267 H281 0.958 . S
C267 H282 0.961 . S
C267 H283 0.960 . S
H268 C252 0.931 . S
H269 C257 0.929 . S
H270 C258 0.960 . S
H271 C258 0.962 . S
H272 C258 0.960 . S
H273 C259 0.961 . S
H274 C259 0.961 . S
H275 C259 0.961 . S
H276 C260 0.931 . S
H277 C265 0.930 . S
H278 C266 0.956 . S
H279 C266 0.961 . S
H280 C266 0.961 . S
H281 C267 0.958 . S
H282 C267 0.961 . S
H283 C267 0.960 . S
C284 C285 1.391 . S
C284 C286 1.394 . S
C284 H300 0.931 . S
C285 C284 1.391 . S
C285 C289 1.376 . S
C286 C284 1.394 . S
C286 C287 1.369 . S
C286 C290 1.531 . S
C287 C286 1.369 . S
C287 C288 1.410 . S
C287 C295 1.503 . S
C288 C287 1.410 . S
C288 C289 1.392 . S
C288 C291 1.511 . S
C289 C285 1.376 . S
C289 C288 1.392 . S
C289 H301 0.929 . S
C290 C286 1.531 . S
C290 H302 0.960 . S
C290 H303 0.962 . S
C290 H304 0.960 . S
C291 C288 1.511 . S
C291 H305 0.961 . S
C291 H306 0.961 . S
C291 H307 0.961 . S
C292 C293 1.370 . S
C292 C294 1.363 1_655 S
C292 H308 0.931 . S
C293 C292 1.370 . S
C293 C297 1.408 . S
C294 C292 1.363 1_455 S
C294 C295 1.370 . S
C294 C298 1.524 . S
C295 C287 1.503 . S
C295 C294 1.370 . S
C295 C296 1.403 1_455 S
C296 C295 1.403 1_655 S
C296 C297 1.404 . S
C296 C299 1.539 1_655 S
C297 C293 1.408 . S
C297 C296 1.404 . S
C297 H309 0.930 . S
C298 C294 1.524 . S
C298 H310 0.956 . S
C298 H311 0.961 . S
C298 H312 0.961 . S
C299 C296 1.539 1_455 S
C299 H313 0.958 . S
C299 H314 0.961 1_455 S
C299 H315 0.960 . S
H300 C284 0.931 . S
H301 C289 0.929 . S
H302 C290 0.960 . S
H303 C290 0.962 . S
H304 C290 0.960 . S
H305 C291 0.961 . S
H306 C291 0.961 . S
H307 C291 0.961 . S
H308 C292 0.931 . S
H309 C297 0.930 . S
H310 C298 0.956 . S
H311 C298 0.961 . S
H312 C298 0.961 . S
H313 C299 0.958 . S
H314 C299 0.961 1_655 S
H315 C299 0.960 . S
C316 C317 1.391 . S
C316 C318 1.394 . S
C316 H332 0.931 . S
C317 C316 1.391 . S
C317 C321 1.376 . S
C318 C316 1.394 . S
C318 C319 1.369 1_545 S
C318 C322 1.531 1_545 S
C319 C318 1.369 1_565 S
C319 C320 1.410 . S
C319 C327 1.503 . S
C320 C319 1.410 . S
C320 C321 1.392 1_565 S
C320 C323 1.511 . S
C321 C317 1.376 . S
C321 C320 1.392 1_545 S
C321 H333 0.929 . S
C322 C318 1.531 1_565 S
C322 H334 0.960 . S
C322 H335 0.962 . S
C322 H336 0.960 1_565 S
C323 C320 1.511 . S
C323 H337 0.961 . S
C323 H338 0.961 . S
C323 H339 0.961 . S
C324 C325 1.370 . S
C324 C326 1.363 . S
C324 H340 0.931 . S
C325 C324 1.370 . S
C325 C329 1.408 . S
C326 C324 1.363 . S
C326 C327 1.370 . S
C326 C330 1.524 . S
C327 C319 1.503 . S
C327 C326 1.370 . S
C327 C328 1.403 . S
C328 C327 1.403 . S
C328 C329 1.404 . S
C328 C331 1.539 . S
C329 C325 1.408 . S
C329 C328 1.404 . S
C329 H341 0.930 . S
C330 C326 1.524 . S
C330 H342 0.956 . S
C330 H343 0.961 . S
C330 H344 0.961 . S
C331 C328 1.539 . S
C331 H345 0.958 . S
C331 H346 0.961 . S
C331 H347 0.960 . S
H332 C316 0.931 . S
H333 C321 0.929 . S
H334 C322 0.960 . S
H335 C322 0.962 . S
H336 C322 0.960 1_545 S
H337 C323 0.961 . S
H338 C323 0.961 . S
H339 C323 0.961 . S
H340 C324 0.931 . S
H341 C329 0.930 . S
H342 C330 0.956 . S
H343 C330 0.961 . S
H344 C330 0.961 . S
H345 C331 0.958 . S
H346 C331 0.961 . S
H347 C331 0.960 . S
C348 C349 1.391 . S
C348 C350 1.394 . S
C348 H364 0.931 . S
C349 C348 1.391 . S
C349 C353 1.376 . S
C350 C348 1.394 . S
C350 C351 1.369 . S
C350 C354 1.531 . S
C351 C350 1.369 . S
C351 C352 1.410 . S
C351 C359 1.503 . S
C352 C351 1.410 . S
C352 C353 1.392 . S
C352 C355 1.511 . S
C353 C349 1.376 . S
C353 C352 1.392 . S
C353 H365 0.929 . S
C354 C350 1.531 . S
C354 H366 0.960 . S
C354 H367 0.962 . S
C354 H368 0.960 . S
C355 C352 1.511 . S
C355 H369 0.961 . S
C355 H370 0.961 . S
C355 H371 0.961 . S
C356 C357 1.370 . S
C356 C358 1.363 . S
C356 H372 0.931 . S
C357 C356 1.370 . S
C357 C361 1.408 . S
C358 C356 1.363 . S
C358 C359 1.370 . S
C358 C362 1.524 . S
C359 C351 1.503 . S
C359 C358 1.370 . S
C359 C360 1.403 . S
C360 C359 1.403 . S
C360 C361 1.404 . S
C360 C363 1.539 . S
C361 C357 1.408 . S
C361 C360 1.404 . S
C361 H373 0.930 . S
C362 C358 1.524 . S
C362 H374 0.956 . S
C362 H375 0.961 . S
C362 H376 0.961 . S
C363 C360 1.539 . S
C363 H377 0.958 . S
C363 H378 0.961 . S
C363 H379 0.960 . S
H364 C348 0.931 . S
H365 C353 0.929 . S
H366 C354 0.960 . S
H367 C354 0.962 . S
H368 C354 0.960 . S
H369 C355 0.961 . S
H370 C355 0.961 . S
H371 C355 0.961 . S
H372 C356 0.931 . S
H373 C361 0.930 . S
H374 C362 0.956 . S
H375 C362 0.961 . S
H376 C362 0.961 . S
H377 C363 0.958 . S
H378 C363 0.961 . S
H379 C363 0.960 . S
C380 C381 1.391 . S
C380 C382 1.394 . S
C380 H396 0.931 1_565 S
C381 C380 1.391 . S
C381 C385 1.376 . S
C382 C380 1.394 . S
C382 C383 1.369 . S
C382 C386 1.531 . S
C383 C382 1.369 . S
C383 C384 1.410 . S
C383 C391 1.503 . S
C384 C383 1.410 . S
C384 C385 1.392 . S
C384 C387 1.511 . S
C385 C381 1.376 . S
C385 C384 1.392 . S
C385 H397 0.929 . S
C386 C382 1.531 . S
C386 H398 0.960 . S
C386 H399 0.962 . S
C386 H400 0.960 . S
C387 C384 1.511 . S
C387 H401 0.961 . S
C387 H402 0.961 . S
C387 H403 0.961 . S
C388 C389 1.370 . S
C388 C390 1.363 1_655 S
C388 H404 0.931 . S
C389 C388 1.370 . S
C389 C393 1.408 . S
C390 C388 1.363 1_455 S
C390 C391 1.370 . S
C390 C394 1.524 . S
C391 C383 1.503 . S
C391 C390 1.370 . S
C391 C392 1.403 1_455 S
C392 C391 1.403 1_655 S
C392 C393 1.404 . S
C392 C395 1.539 1_655 S
C393 C389 1.408 . S
C393 C392 1.404 . S
C393 H405 0.930 . S
C394 C390 1.524 . S
C394 H406 0.956 . S
C394 H407 0.961 . S
C394 H408 0.961 . S
C395 C392 1.539 1_455 S
C395 H409 0.958 . S
C395 H410 0.961 1_455 S
C395 H411 0.960 . S
H396 C380 0.931 1_545 S
H397 C385 0.929 . S
H398 C386 0.960 . S
H399 C386 0.962 . S
H400 C386 0.960 . S
H401 C387 0.961 . S
H402 C387 0.961 . S
H403 C387 0.961 . S
H404 C388 0.931 . S
H405 C393 0.930 . S
H406 C394 0.956 . S
H407 C394 0.961 . S
H408 C394 0.961 . S
H409 C395 0.958 . S
H410 C395 0.961 1_655 S
H411 C395 0.960 . S
C412 C413 1.391 . S
C412 C414 1.394 . S
C412 H428 0.931 . S
C413 C412 1.391 . S
C413 C417 1.376 . S
C414 C412 1.394 . S
C414 C415 1.369 . S
C414 C418 1.531 . S
C415 C414 1.369 . S
C415 C416 1.410 . S
C415 C423 1.503 . S
C416 C415 1.410 . S
C416 C417 1.392 . S
C416 C419 1.511 . S
C417 C413 1.376 . S
C417 C416 1.392 . S
C417 H429 0.929 . S
C418 C414 1.531 . S
C418 H430 0.960 . S
C418 H431 0.962 . S
C418 H432 0.960 . S
C419 C416 1.511 . S
C419 H433 0.961 . S
C419 H434 0.961 . S
C419 H435 0.961 . S
C420 C421 1.370 . S
C420 C422 1.363 1_545 S
C420 H436 0.931 . S
C421 C420 1.370 . S
C421 C425 1.408 . S
C422 C420 1.363 1_565 S
C422 C423 1.370 . S
C422 C426 1.524 . S
C423 C415 1.503 . S
C423 C422 1.370 . S
C423 C424 1.403 1_565 S
C424 C423 1.403 1_545 S
C424 C425 1.404 . S
C424 C427 1.539 1_545 S
C425 C421 1.408 . S
C425 C424 1.404 . S
C425 H437 0.930 . S
C426 C422 1.524 . S
C426 H438 0.956 . S
C426 H439 0.961 . S
C426 H440 0.961 . S
C427 C424 1.539 1_565 S
C427 H441 0.958 . S
C427 H442 0.961 1_565 S
C427 H443 0.960 . S
H428 C412 0.931 . S
H429 C417 0.929 . S
H430 C418 0.960 . S
H431 C418 0.962 . S
H432 C418 0.960 . S
H433 C419 0.961 . S
H434 C419 0.961 . S
H435 C419 0.961 . S
H436 C420 0.931 . S
H437 C425 0.930 . S
H438 C426 0.956 . S
H439 C426 0.961 . S
H440 C426 0.961 . S
H441 C427 0.958 . S
H442 C427 0.961 1_545 S
H443 C427 0.960 . S
C444 C445 1.391 . S
C444 C446 1.394 . S
C444 H460 0.931 . S
C445 C444 1.391 . S
C445 C449 1.376 . S
C446 C444 1.394 . S
C446 C447 1.369 . S
C446 C450 1.531 . S
C447 C446 1.369 . S
C447 C448 1.410 . S
C447 C455 1.503 . S
C448 C447 1.410 . S
C448 C449 1.392 . S
C448 C451 1.511 . S
C449 C445 1.376 . S
C449 C448 1.392 . S
C449 H461 0.929 1_545 S
C450 C446 1.531 . S
C450 H462 0.960 . S
C450 H463 0.962 . S
C450 H464 0.960 . S
C451 C448 1.511 . S
C451 H465 0.961 . S
C451 H466 0.961 . S
C451 H467 0.961 . S
C452 C453 1.370 . S
C452 C454 1.363 . S
C452 H468 0.931 . S
C453 C452 1.370 . S
C453 C457 1.408 . S
C454 C452 1.363 . S
C454 C455 1.370 . S
C454 C458 1.524 . S
C455 C447 1.503 . S
C455 C454 1.370 . S
C455 C456 1.403 . S
C456 C455 1.403 . S
C456 C457 1.404 . S
C456 C459 1.539 . S
C457 C453 1.408 . S
C457 C456 1.404 . S
C457 H469 0.930 . S
C458 C454 1.524 . S
C458 H470 0.956 . S
C458 H471 0.961 . S
C458 H472 0.961 . S
C459 C456 1.539 . S
C459 H473 0.958 . S
C459 H474 0.961 . S
C459 H475 0.960 . S
H460 C444 0.931 . S
H461 C449 0.929 1_565 S
H462 C450 0.960 . S
H463 C450 0.962 . S
H464 C450 0.960 . S
H465 C451 0.961 . S
H466 C451 0.961 . S
H467 C451 0.961 . S
H468 C452 0.931 . S
H469 C457 0.930 . S
H470 C458 0.956 . S
H471 C458 0.961 . S
H472 C458 0.961 . S
H473 C459 0.958 . S
H474 C459 0.961 . S
H475 C459 0.960 . S
C476 C477 1.391 . S
C476 C478 1.394 1_455 S
C476 H492 0.931 . S
C477 C476 1.391 . S
C477 C481 1.376 . S
C478 C476 1.394 1_655 S
C478 C479 1.369 . S
C478 C482 1.531 . S
C479 C478 1.369 . S
C479 C480 1.410 1_655 S
C479 C487 1.503 . S
C480 C479 1.410 1_455 S
C480 C481 1.392 . S
C480 C483 1.511 1_455 S
C481 C477 1.376 . S
C481 C480 1.392 . S
C481 H493 0.929 . S
C482 C478 1.531 . S
C482 H494 0.960 . S
C482 H495 0.962 . S
C482 H496 0.960 . S
C483 C480 1.511 1_655 S
C483 H497 0.961 1_655 S
C483 H498 0.961 . S
C483 H499 0.961 . S
C484 C485 1.370 . S
C484 C486 1.363 . S
C484 H500 0.931 . S
C485 C484 1.370 . S
C485 C489 1.408 . S
C486 C484 1.363 . S
C486 C487 1.370 . S
C486 C490 1.524 . S
C487 C479 1.503 . S
C487 C486 1.370 . S
C487 C488 1.403 . S
C488 C487 1.403 . S
C488 C489 1.404 . S
C488 C491 1.539 . S
C489 C485 1.408 . S
C489 C488 1.404 . S
C489 H501 0.930 . S
C490 C486 1.524 . S
C490 H502 0.956 . S
C490 H503 0.961 . S
C490 H504 0.961 . S
C491 C488 1.539 . S
C491 H505 0.958 . S
C491 H506 0.961 . S
C491 H507 0.960 . S
H492 C476 0.931 . S
H493 C481 0.929 . S
H494 C482 0.960 . S
H495 C482 0.962 . S
H496 C482 0.960 . S
H497 C483 0.961 1_455 S
H498 C483 0.961 . S
H499 C483 0.961 . S
H500 C484 0.931 . S
H501 C489 0.930 . S
H502 C490 0.956 . S
H503 C490 0.961 . S
H504 C490 0.961 . S
H505 C491 0.958 . S
H506 C491 0.961 . S
H507 C491 0.960 . S
C508 C509 1.391 . S
C508 C510 1.394 1_565 S
C508 H524 0.931 . S
C509 C508 1.391 . S
C509 C513 1.376 . S
C510 C508 1.394 1_545 S
C510 C511 1.369 . S
C510 C514 1.531 . S
C511 C510 1.369 . S
C511 C512 1.410 1_545 S
C511 C519 1.503 . S
C512 C511 1.410 1_565 S
C512 C513 1.392 . S
C512 C515 1.511 1_565 S
C513 C509 1.376 . S
C513 C512 1.392 . S
C513 H525 0.929 . S
C514 C510 1.531 . S
C514 H526 0.960 . S
C514 H527 0.962 . S
C514 H528 0.960 . S
C515 C512 1.511 1_545 S
C515 H529 0.961 1_545 S
C515 H530 0.961 . S
C515 H531 0.961 . S
C516 C517 1.370 . S
C516 C518 1.363 . S
C516 H532 0.931 . S
C517 C516 1.370 . S
C517 C521 1.408 . S
C518 C516 1.363 . S
C518 C519 1.370 . S
C518 C522 1.524 . S
C519 C511 1.503 . S
C519 C518 1.370 . S
C519 C520 1.403 . S
C520 C519 1.403 . S
C520 C521 1.404 . S
C520 C523 1.539 . S
C521 C517 1.408 . S
C521 C520 1.404 . S
C521 H533 0.923 1_655 S
C522 C518 1.524 . S
C522 H534 0.956 . S
C522 H535 0.961 . S
C522 H536 0.961 . S
C523 C520 1.539 . S
C523 H537 0.958 . S
C523 H538 0.961 . S
C523 H539 0.960 . S
H524 C508 0.931 . S
H525 C513 0.929 . S
H526 C514 0.960 . S
H527 C514 0.962 . S
H528 C514 0.960 . S
H529 C515 0.961 1_565 S
H530 C515 0.961 . S
H531 C515 0.961 . S
H532 C516 0.931 . S
H533 C521 0.923 1_455 S
H534 C522 0.956 . S
H535 C522 0.961 . S
H536 C522 0.961 . S
H537 C523 0.958 . S
H538 C523 0.961 . S
H539 C523 0.960 . S
C540 C541 1.391 . S
C540 C542 1.394 . S
C540 H556 0.931 . S
C541 C540 1.391 . S
C541 C545 1.376 . S
C542 C540 1.394 . S
C542 C543 1.369 . S
C542 C546 1.531 . S
C543 C542 1.369 . S
C543 C544 1.410 . S
C543 C551 1.503 . S
C544 C543 1.410 . S
C544 C545 1.392 . S
C544 C547 1.511 . S
C545 C541 1.376 . S
C545 C544 1.392 . S
C545 H557 0.929 . S
C546 C542 1.531 . S
C546 H558 0.960 . S
C546 H559 0.962 . S
C546 H560 0.960 . S
C547 C544 1.511 . S
C547 H561 0.961 . S
C547 H562 0.961 . S
C547 H563 0.961 . S
C548 C549 1.370 . S
C548 C550 1.363 . S
C548 H564 0.931 . S
C549 C548 1.370 . S
C549 C553 1.408 . S
C550 C548 1.363 . S
C550 C551 1.370 . S
C550 C554 1.524 . S
C551 C543 1.503 . S
C551 C550 1.370 . S
C551 C552 1.403 . S
C552 C551 1.403 . S
C552 C553 1.404 . S
C552 C555 1.539 . S
C553 C549 1.408 . S
C553 C552 1.404 . S
C553 H565 0.930 . S
C554 C550 1.524 . S
C554 H566 0.956 . S
C554 H567 0.961 . S
C554 H568 0.961 . S
C555 C552 1.539 . S
C555 H569 0.958 . S
C555 H570 0.961 . S
C555 H571 0.960 . S
H556 C540 0.931 . S
H557 C545 0.929 . S
H558 C546 0.960 . S
H559 C546 0.962 . S
H560 C546 0.960 . S
H561 C547 0.961 . S
H562 C547 0.961 . S
H563 C547 0.961 . S
H564 C548 0.931 . S
H565 C553 0.930 . S
H566 C554 0.956 . S
H567 C554 0.961 . S
H568 C554 0.961 . S
H569 C555 0.958 . S
H570 C555 0.961 . S
H571 C555 0.960 . S
C572 C573 1.391 . S
C572 C574 1.394 1_455 S
C572 H588 0.931 . S
C573 C572 1.391 . S
C573 C577 1.376 . S
C574 C572 1.394 1_655 S
C574 C575 1.369 . S
C574 C578 1.531 . S
C575 C574 1.369 . S
C575 C576 1.410 1_655 S
C575 C583 1.503 . S
C576 C575 1.410 1_455 S
C576 C577 1.392 . S
C576 C579 1.511 1_455 S
C577 C573 1.376 . S
C577 C576 1.392 . S
C577 H589 0.929 . S
C578 C574 1.531 . S
C578 H590 0.960 . S
C578 H591 0.962 . S
C578 H592 0.960 . S
C579 C576 1.511 1_655 S
C579 H593 0.961 1_655 S
C579 H594 0.961 . S
C579 H595 0.961 . S
C580 C581 1.370 . S
C580 C582 1.363 . S
C580 H596 0.931 . S
C581 C580 1.370 . S
C581 C585 1.408 . S
C582 C580 1.363 . S
C582 C583 1.370 . S
C582 C586 1.524 . S
C583 C575 1.503 . S
C583 C582 1.370 . S
C583 C584 1.403 . S
C584 C583 1.403 . S
C584 C585 1.404 . S
C584 C587 1.539 . S
C585 C581 1.408 . S
C585 C584 1.404 . S
C585 H597 0.930 . S
C586 C582 1.524 . S
C586 H598 0.956 . S
C586 H599 0.961 . S
C586 H600 0.961 . S
C587 C584 1.539 . S
C587 H601 0.958 . S
C587 H602 0.961 . S
C587 H603 0.960 . S
H588 C572 0.931 . S
H589 C577 0.929 . S
H590 C578 0.960 . S
H591 C578 0.962 . S
H592 C578 0.960 . S
H593 C579 0.961 1_455 S
H594 C579 0.961 . S
H595 C579 0.961 . S
H596 C580 0.931 . S
H597 C585 0.930 . S
H598 C586 0.956 . S
H599 C586 0.961 . S
H600 C586 0.961 . S
H601 C587 0.958 . S
H602 C587 0.961 . S
H603 C587 0.960 . S
C604 C605 1.391 . S
C604 C606 1.394 . S
C604 H620 0.931 . S
C605 C604 1.391 . S
C605 C609 1.376 . S
C606 C604 1.394 . S
C606 C607 1.369 . S
C606 C610 1.531 . S
C607 C606 1.369 . S
C607 C608 1.410 . S
C607 C615 1.503 . S
C608 C607 1.410 . S
C608 C609 1.392 . S
C608 C611 1.511 . S
C609 C605 1.376 . S
C609 C608 1.392 . S
C609 H621 0.929 . S
C610 C606 1.531 . S
C610 H622 0.960 . S
C610 H623 0.962 . S
C610 H624 0.960 . S
C611 C608 1.511 . S
C611 H625 0.961 . S
C611 H626 0.961 . S
C611 H627 0.961 . S
C612 C613 1.370 . S
C612 C614 1.363 1_565 S
C612 H628 0.931 . S
C613 C612 1.370 . S
C613 C617 1.408 . S
C614 C612 1.363 1_545 S
C614 C615 1.370 . S
C614 C618 1.524 . S
C615 C607 1.503 . S
C615 C614 1.370 . S
C615 C616 1.403 . S
C616 C615 1.403 . S
C616 C617 1.404 1_545 S
C616 C619 1.539 . S
C617 C613 1.408 . S
C617 C616 1.404 1_565 S
C617 H629 0.930 . S
C618 C614 1.524 . S
C618 H630 0.956 . S
C618 H631 0.961 . S
C618 H632 0.961 . S
C619 C616 1.539 . S
C619 H633 0.958 . S
C619 H634 0.961 . S
C619 H635 0.960 . S
H620 C604 0.931 . S
H621 C609 0.929 . S
H622 C610 0.960 . S
H623 C610 0.962 . S
H624 C610 0.960 . S
H625 C611 0.961 . S
H626 C611 0.961 . S
H627 C611 0.961 . S
H628 C612 0.931 . S
H629 C617 0.930 . S
H630 C618 0.956 . S
H631 C618 0.961 . S
H632 C618 0.961 . S
H633 C619 0.958 . S
H634 C619 0.961 . S
H635 C619 0.960 . S
C636 C637 1.391 . S
C636 C638 1.394 . S
C636 H652 0.931 . S
C637 C636 1.391 . S
C637 C641 1.376 . S
C638 C636 1.394 . S
C638 C639 1.369 . S
C638 C642 1.531 . S
C639 C638 1.369 . S
C639 C640 1.410 . S
C639 C647 1.503 . S
C640 C639 1.410 . S
C640 C641 1.392 . S
C640 C643 1.511 . S
C641 C637 1.376 . S
C641 C640 1.392 . S
C641 H653 0.929 . S
C642 C638 1.531 . S
C642 H654 0.960 . S
C642 H655 0.962 . S
C642 H656 0.960 . S
C643 C640 1.511 . S
C643 H657 0.961 . S
C643 H658 0.961 . S
C643 H659 0.961 . S
C644 C645 1.370 . S
C644 C646 1.363 . S
C644 H660 0.931 . S
C645 C644 1.370 . S
C645 C649 1.408 . S
C646 C644 1.363 . S
C646 C647 1.370 . S
C646 C650 1.524 . S
C647 C639 1.503 . S
C647 C646 1.370 . S
C647 C648 1.403 . S
C648 C647 1.403 . S
C648 C649 1.404 . S
C648 C651 1.539 . S
C649 C645 1.408 . S
C649 C648 1.404 . S
C649 H661 0.930 . S
C650 C646 1.524 . S
C650 H662 0.956 . S
C650 H663 0.961 1_545 S
C650 H664 0.961 1_545 S
C651 C648 1.539 . S
C651 H665 0.958 . S
C651 H666 0.961 . S
C651 H667 0.960 . S
H652 C636 0.931 . S
H653 C641 0.929 . S
H654 C642 0.960 . S
H655 C642 0.962 . S
H656 C642 0.960 . S
H657 C643 0.961 . S
H658 C643 0.961 . S
H659 C643 0.961 . S
H660 C644 0.931 . S
H661 C649 0.930 . S
H662 C650 0.956 . S
H663 C650 0.961 1_565 S
H664 C650 0.961 1_565 S
H665 C651 0.958 . S
H666 C651 0.961 . S
H667 C651 0.960 . S
C668 C669 1.391 . S
C668 C670 1.394 . S
C668 H684 0.931 . S
C669 C668 1.391 . S
C669 C673 1.376 . S
C670 C668 1.394 . S
C670 C671 1.369 . S
C670 C674 1.531 . S
C671 C670 1.369 . S
C671 C672 1.410 . S
C671 C679 1.503 . S
C672 C671 1.410 . S
C672 C673 1.392 . S
C672 C675 1.511 . S
C673 C669 1.376 . S
C673 C672 1.392 . S
C673 H685 0.929 . S
C674 C670 1.531 . S
C674 H686 0.960 . S
C674 H687 0.962 . S
C674 H688 0.960 . S
C675 C672 1.511 . S
C675 H689 0.961 . S
C675 H690 0.961 . S
C675 H691 0.961 . S
C676 C677 1.370 . S
C676 C678 1.363 . S
C676 H692 0.931 . S
C677 C676 1.370 . S
C677 C681 1.408 . S
C678 C676 1.363 . S
C678 C679 1.370 . S
C678 C682 1.524 . S
C679 C671 1.503 . S
C679 C678 1.370 . S
C679 C680 1.403 . S
C680 C679 1.403 . S
C680 C681 1.404 . S
C680 C683 1.539 . S
C681 C677 1.408 . S
C681 C680 1.404 . S
C681 H693 0.930 . S
C682 C678 1.524 . S
C682 H694 0.956 . S
C682 H695 0.961 . S
C682 H696 0.961 . S
C683 C680 1.539 . S
C683 H697 0.958 . S
C683 H698 0.961 . S
C683 H699 0.960 . S
H684 C668 0.931 . S
H685 C673 0.929 . S
H686 C674 0.960 . S
H687 C674 0.962 . S
H688 C674 0.960 . S
H689 C675 0.961 . S
H690 C675 0.961 . S
H691 C675 0.961 . S
H692 C676 0.931 . S
H693 C681 0.930 . S
H694 C682 0.956 . S
H695 C682 0.961 . S
H696 C682 0.961 . S
H697 C683 0.958 . S
H698 C683 0.961 . S
H699 C683 0.960 . S
C700 C701 1.391 . S
C700 C702 1.394 . S
C700 H716 0.931 . S
C701 C700 1.391 . S
C701 C705 1.376 . S
C702 C700 1.394 . S
C702 C703 1.369 . S
C702 C706 1.531 . S
C703 C702 1.369 . S
C703 C704 1.410 . S
C703 C711 1.503 . S
C704 C703 1.410 . S
C704 C705 1.392 . S
C704 C707 1.511 1_655 S
C705 C701 1.376 . S
C705 C704 1.392 . S
C705 H717 0.929 . S
C706 C702 1.531 . S
C706 H718 0.960 . S
C706 H719 0.962 . S
C706 H720 0.960 . S
C707 C704 1.511 1_455 S
C707 H721 0.961 . S
C707 H722 0.961 . S
C707 H723 0.961 . S
C708 C709 1.370 . S
C708 C710 1.363 . S
C708 H724 0.931 . S
C709 C708 1.370 . S
C709 C713 1.408 . S
C710 C708 1.363 . S
C710 C711 1.370 . S
C710 C714 1.524 . S
C711 C703 1.503 . S
C711 C710 1.370 . S
C711 C712 1.403 . S
C712 C711 1.403 . S
C712 C713 1.404 . S
C712 C715 1.539 . S
C713 C709 1.408 . S
C713 C712 1.404 . S
C713 H725 0.930 . S
C714 C710 1.524 . S
C714 H726 0.956 . S
C714 H727 0.961 . S
C714 H728 0.961 . S
C715 C712 1.539 . S
C715 H729 0.958 . S
C715 H730 0.961 . S
C715 H731 0.960 . S
H716 C700 0.931 . S
H717 C705 0.929 . S
H718 C706 0.960 . S
H719 C706 0.962 . S
H720 C706 0.960 . S
H721 C707 0.961 . S
H722 C707 0.961 . S
H723 C707 0.961 . S
H724 C708 0.931 . S
H725 C713 0.930 . S
H726 C714 0.956 . S
H727 C714 0.961 . S
H728 C714 0.961 . S
H729 C715 0.958 . S
H730 C715 0.961 . S
H731 C715 0.960 . S
C732 C733 1.391 . S
C732 C734 1.394 . S
C732 H748 0.931 . S
C733 C732 1.391 . S
C733 C737 1.376 . S
C734 C732 1.394 . S
C734 C735 1.369 . S
C734 C738 1.531 1_455 S
C735 C734 1.369 . S
C735 C736 1.410 . S
C735 C743 1.503 . S
C736 C735 1.410 . S
C736 C737 1.392 . S
C736 C739 1.511 . S
C737 C733 1.376 . S
C737 C736 1.392 . S
C737 H749 0.929 . S
C738 C734 1.531 1_655 S
C738 H750 0.960 . S
C738 H751 0.962 . S
C738 H752 0.960 . S
C739 C736 1.511 . S
C739 H753 0.961 . S
C739 H754 0.961 . S
C739 H755 0.961 . S
C740 C741 1.370 . S
C740 C742 1.363 . S
C740 H756 0.931 . S
C741 C740 1.370 . S
C741 C745 1.408 . S
C742 C740 1.363 . S
C742 C743 1.370 . S
C742 C746 1.524 . S
C743 C735 1.503 . S
C743 C742 1.370 . S
C743 C744 1.403 . S
C744 C743 1.403 . S
C744 C745 1.404 . S
C744 C747 1.539 . S
C745 C741 1.408 . S
C745 C744 1.404 . S
C745 H757 0.930 . S
C746 C742 1.524 . S
C746 H758 0.956 . S
C746 H759 0.961 . S
C746 H760 0.961 . S
C747 C744 1.539 . S
C747 H761 0.958 . S
C747 H762 0.961 . S
C747 H763 0.960 . S
H748 C732 0.931 . S
H749 C737 0.929 . S
H750 C738 0.960 . S
H751 C738 0.962 . S
H752 C738 0.960 . S
H753 C739 0.961 . S
H754 C739 0.961 . S
H755 C739 0.961 . S
H756 C740 0.931 . S
H757 C745 0.930 . S
H758 C746 0.956 . S
H759 C746 0.961 . S
H760 C746 0.961 . S
H761 C747 0.958 . S
H762 C747 0.961 . S
H763 C747 0.960 . S
C764 C765 1.391 . S
C764 C766 1.394 . S
C764 H780 0.931 . S
C765 C764 1.391 . S
C765 C769 1.376 . S
C766 C764 1.394 . S
C766 C767 1.369 . S
C766 C770 1.531 . S
C767 C766 1.369 . S
C767 C768 1.410 . S
C767 C775 1.503 . S
C768 C767 1.410 . S
C768 C769 1.392 . S
C768 C771 1.511 . S
C769 C765 1.376 . S
C769 C768 1.392 . S
C769 H781 0.929 . S
C770 C766 1.531 . S
C770 H782 0.960 . S
C770 H783 0.962 . S
C770 H784 0.960 . S
C771 C768 1.511 . S
C771 H785 0.961 . S
C771 H786 0.961 . S
C771 H787 0.961 . S
C772 C773 1.370 . S
C772 C774 1.363 . S
C772 H788 0.931 . S
C773 C772 1.370 . S
C773 C777 1.408 . S
C774 C772 1.363 . S
C774 C775 1.370 . S
C774 C778 1.524 1_565 S
C775 C767 1.503 . S
C775 C774 1.370 . S
C775 C776 1.403 . S
C776 C775 1.403 . S
C776 C777 1.404 . S
C776 C779 1.539 . S
C777 C773 1.408 . S
C777 C776 1.404 . S
C777 H789 0.930 . S
C778 C774 1.524 1_545 S
C778 H790 0.956 . S
C778 H791 0.954 . S
C778 H792 0.961 . S
C779 C776 1.539 . S
C779 H793 0.958 . S
C779 H794 0.961 . S
C779 H795 0.960 . S
H780 C764 0.931 . S
H781 C769 0.929 . S
H782 C770 0.960 . S
H783 C770 0.962 . S
H784 C770 0.960 . S
H785 C771 0.961 . S
H786 C771 0.961 . S
H787 C771 0.961 . S
H788 C772 0.931 . S
H789 C777 0.930 . S
H790 C778 0.956 . S
H791 C778 0.954 . S
H792 C778 0.961 . S
H793 C779 0.958 . S
H794 C779 0.961 . S
H795 C779 0.960 . S
C796 C797 1.391 . S
C796 C798 1.394 . S
C796 H812 0.931 . S
C797 C796 1.391 . S
C797 C801 1.376 . S
C798 C796 1.394 . S
C798 C799 1.369 . S
C798 C802 1.531 . S
C799 C798 1.369 . S
C799 C800 1.410 . S
C799 C807 1.503 . S
C800 C799 1.410 . S
C800 C801 1.392 . S
C800 C803 1.511 . S
C801 C797 1.376 . S
C801 C800 1.392 . S
C801 H813 0.929 . S
C802 C798 1.531 . S
C802 H814 0.960 . S
C802 H815 0.962 . S
C802 H816 0.960 . S
C803 C800 1.511 . S
C803 H817 0.961 . S
C803 H818 0.961 . S
C803 H819 0.961 . S
C804 C805 1.370 . S
C804 C806 1.363 . S
C804 H820 0.931 . S
C805 C804 1.370 . S
C805 C809 1.408 . S
C806 C804 1.363 . S
C806 C807 1.370 . S
C806 C810 1.524 . S
C807 C799 1.503 . S
C807 C806 1.370 . S
C807 C808 1.403 . S
C808 C807 1.403 . S
C808 C809 1.404 . S
C808 C811 1.539 . S
C809 C805 1.408 . S
C809 C808 1.404 . S
C809 H821 0.930 . S
C810 C806 1.524 . S
C810 H822 0.956 . S
C810 H823 0.961 . S
C810 H824 0.961 . S
C811 C808 1.539 . S
C811 H825 0.958 . S
C811 H826 0.961 . S
C811 H827 0.960 . S
H812 C796 0.931 . S
H813 C801 0.929 . S
H814 C802 0.960 . S
H815 C802 0.962 . S
H816 C802 0.960 . S
H817 C803 0.961 . S
H818 C803 0.961 . S
H819 C803 0.961 . S
H820 C804 0.931 . S
H821 C809 0.930 . S
H822 C810 0.956 . S
H823 C810 0.961 . S
H824 C810 0.961 . S
H825 C811 0.958 . S
H826 C811 0.961 . S
H827 C811 0.960 . S
C828 C829 1.391 . S
C828 C830 1.394 . S
C828 H844 0.931 . S
C829 C828 1.391 . S
C829 C833 1.376 . S
C830 C828 1.394 . S
C830 C831 1.369 . S
C830 C834 1.531 . S
C831 C830 1.369 . S
C831 C832 1.410 . S
C831 C839 1.503 1_566 S
C832 C831 1.410 . S
C832 C833 1.392 . S
C832 C835 1.511 . S
C833 C829 1.376 . S
C833 C832 1.392 . S
C833 H845 0.929 . S
C834 C830 1.531 . S
C834 H846 0.960 1_556 S
C834 H847 0.962 1_565 S
C834 H848 0.960 . S
C835 C832 1.511 . S
C835 H849 0.961 . S
C835 H850 0.929 1_566 S
C835 H851 0.961 . S
C836 C837 1.370 . S
C836 C838 1.363 . S
C836 H852 0.931 . S
C837 C836 1.370 . S
C837 C841 1.408 1_545 S
C838 C836 1.363 . S
C838 C839 1.370 . S
C838 C842 1.524 1_554 S
C839 C831 1.503 1_544 S
C839 C838 1.370 . S
C839 C840 1.403 1_545 S
C840 C839 1.403 1_565 S
C840 C841 1.404 . S
C840 C843 1.539 . S
C841 C837 1.408 1_565 S
C841 C840 1.404 . S
C841 H853 0.930 . S
C842 C838 1.524 1_556 S
C842 H854 0.956 . S
C842 H855 0.961 . S
C842 H856 0.961 1_556 S
C843 C840 1.539 . S
C843 H857 0.958 . S
C843 H858 0.961 . S
C843 H859 0.960 . S
H844 C828 0.931 . S
H845 C833 0.929 . S
H846 C834 0.960 1_554 S
H847 C834 0.962 1_545 S
H848 C834 0.960 . S
H849 C835 0.961 . S
H850 C835 0.929 1_544 S
H851 C835 0.961 . S
H852 C836 0.931 . S
H853 C841 0.930 . S
H854 C842 0.956 . S
H855 C842 0.961 . S
H856 C842 0.961 1_554 S
H857 C843 0.958 . S
H858 C843 0.961 . S
H859 C843 0.960 . S
C860 C861 1.391 . S
C860 C862 1.394 . S
C860 H876 0.931 . S
C861 C860 1.391 . S
C861 C865 1.376 . S
C862 C860 1.394 . S
C862 C863 1.369 . S
C862 C866 1.531 . S
C863 C862 1.369 . S
C863 C864 1.410 . S
C863 C871 1.503 . S
C864 C863 1.410 . S
C864 C865 1.392 . S
C864 C867 1.511 . S
C865 C861 1.376 . S
C865 C864 1.392 . S
C865 H877 0.929 . S
C866 C862 1.531 . S
C866 H878 0.960 . S
C866 H879 0.962 . S
C866 H880 0.960 . S
C867 C864 1.511 . S
C867 H881 0.961 . S
C867 H882 0.961 . S
C867 H883 0.961 . S
C868 C869 1.370 . S
C868 C870 1.363 . S
C868 H884 0.931 . S
C869 C868 1.370 . S
C869 C873 1.408 . S
C870 C868 1.363 . S
C870 C871 1.370 . S
C870 C874 1.524 . S
C871 C863 1.503 . S
C871 C870 1.370 . S
C871 C872 1.403 . S
C872 C871 1.403 . S
C872 C873 1.404 . S
C872 C875 1.539 . S
C873 C869 1.408 . S
C873 C872 1.404 . S
C873 H885 0.930 . S
C874 C870 1.524 . S
C874 H886 0.956 . S
C874 H887 0.961 . S
C874 H888 0.961 . S
C875 C872 1.539 . S
C875 H889 0.958 . S
C875 H890 0.961 . S
C875 H891 0.960 . S
H876 C860 0.931 . S
H877 C865 0.929 . S
H878 C866 0.960 . S
H879 C866 0.962 . S
H880 C866 0.960 . S
H881 C867 0.961 . S
H882 C867 0.961 . S
H883 C867 0.961 . S
H884 C868 0.931 . S
H885 C873 0.930 . S
H886 C874 0.956 . S
H887 C874 0.961 . S
H888 C874 0.961 . S
H889 C875 0.958 . S
H890 C875 0.961 . S
H891 C875 0.960 . S
C892 C893 1.391 . S
C892 C894 1.394 . S
C892 H908 0.931 . S
C893 C892 1.391 . S
C893 C897 1.376 . S
C894 C892 1.394 . S
C894 C895 1.369 . S
C894 C898 1.529 1_556 S
C895 C894 1.369 . S
C895 C896 1.410 1_455 S
C895 C903 1.503 1_456 S
C896 C895 1.410 1_655 S
C896 C897 1.392 1_655 S
C896 C899 1.511 . S
C897 C893 1.376 . S
C897 C896 1.392 1_455 S
C897 H909 0.929 1_455 S
C898 C894 1.529 1_554 S
C898 H910 0.963 . S
C898 H911 0.962 . S
C898 H912 0.960 1_554 S
C899 C896 1.511 . S
C899 H913 0.961 . S
C899 H914 0.961 . S
C899 H915 0.961 . S
C900 C901 1.370 . S
C900 C902 1.363 . S
C900 H916 0.931 . S
C901 C900 1.370 . S
C901 C905 1.408 . S
C902 C900 1.363 . S
C902 C903 1.370 . S
C902 C906 1.516 1_554 S
C903 C895 1.503 1_654 S
C903 C902 1.370 . S
C903 C904 1.403 1_655 S
C904 C903 1.403 1_455 S
C904 C905 1.404 1_455 S
C904 C907 1.539 . S
C905 C901 1.408 . S
C905 C904 1.404 1_655 S
C905 H917 0.930 1_655 S
C906 C902 1.516 1_556 S
C906 H918 0.959 . S
C906 H919 0.969 . S
C906 H920 0.956 1_556 S
C907 C904 1.539 . S
C907 H921 0.958 . S
C907 H922 0.961 . S
C907 H923 0.960 . S
H908 C892 0.931 . S
H909 C897 0.929 1_655 S
H910 C898 0.963 . S
H911 C898 0.962 . S
H912 C898 0.960 1_556 S
H913 C899 0.961 . S
H914 C899 0.961 . S
H915 C899 0.961 . S
H916 C900 0.931 . S
H917 C905 0.930 1_455 S
H918 C906 0.959 . S
H919 C906 0.969 . S
H920 C906 0.956 1_554 S
H921 C907 0.958 . S
H922 C907 0.961 . S
H923 C907 0.960 . S
C924 C925 1.391 . S
C924 C926 1.394 . S
C924 H940 0.931 . S
C925 C924 1.391 . S
C925 C929 1.376 1_545 S
C926 C924 1.394 . S
C926 C927 1.369 . S
C926 C930 1.531 . S
C927 C926 1.369 . S
C927 C928 1.410 1_545 S
C927 C935 1.503 1_545 S
C928 C927 1.410 1_565 S
C928 C929 1.392 . S
C928 C931 1.511 . S
C929 C925 1.376 1_565 S
C929 C928 1.392 . S
C929 H941 0.929 . S
C930 C926 1.531 . S
C930 H942 0.960 . S
C930 H943 0.962 . S
C930 H944 0.960 . S
C931 C928 1.511 . S
C931 H945 0.961 . S
C931 H946 0.961 . S
C931 H947 0.961 . S
C932 C933 1.370 . S
C932 C934 1.363 . S
C932 H948 0.931 . S
C933 C932 1.370 . S
C933 C937 1.408 . S
C934 C932 1.363 . S
C934 C935 1.370 . S
C934 C938 1.524 1_565 S
C935 C927 1.503 1_565 S
C935 C934 1.370 . S
C935 C936 1.403 . S
C936 C935 1.403 . S
C936 C937 1.404 . S
C936 C939 1.539 . S
C937 C933 1.408 . S
C937 C936 1.404 . S
C937 H949 0.930 . S
C938 C934 1.524 1_545 S
C938 H950 0.956 . S
C938 H951 0.961 1_545 S
C938 H952 0.961 . S
C939 C936 1.539 . S
C939 H953 0.958 . S
C939 H954 0.961 . S
C939 H955 0.960 . S
H940 C924 0.931 . S
H941 C929 0.929 . S
H942 C930 0.960 . S
H943 C930 0.962 . S
H944 C930 0.960 . S
H945 C931 0.961 . S
H946 C931 0.961 . S
H947 C931 0.961 . S
H948 C932 0.931 . S
H949 C937 0.930 . S
H950 C938 0.956 . S
H951 C938 0.961 1_565 S
H952 C938 0.961 . S
H953 C939 0.958 . S
H954 C939 0.961 . S
H955 C939 0.960 . S
C956 C957 1.391 . S
C956 C958 1.394 . S
C956 H972 0.931 . S
C957 C956 1.391 . S
C957 C961 1.376 . S
C958 C956 1.394 . S
C958 C959 1.369 . S
C958 C962 1.531 . S
C959 C958 1.369 . S
C959 C960 1.410 . S
C959 C967 1.503 1_554 S
C960 C959 1.410 . S
C960 C961 1.392 . S
C960 C963 1.511 1_554 S
C961 C957 1.376 . S
C961 C960 1.392 . S
C961 H973 0.929 . S
C962 C958 1.531 . S
C962 H974 0.960 . S
C962 H975 0.962 . S
C962 H976 0.960 . S
C963 C960 1.511 1_556 S
C963 H977 0.961 1_556 S
C963 H978 0.961 . S
C963 H979 0.961 . S
C964 C965 1.370 . S
C964 C966 1.363 . S
C964 H980 0.931 . S
C965 C964 1.370 . S
C965 C969 1.408 . S
C966 C964 1.363 . S
C966 C967 1.370 . S
C966 C970 1.524 . S
C967 C959 1.503 1_556 S
C967 C966 1.370 . S
C967 C968 1.403 . S
C968 C967 1.403 . S
C968 C969 1.404 . S
C968 C971 1.539 . S
C969 C965 1.408 . S
C969 C968 1.404 . S
C969 H981 0.930 . S
C970 C966 1.524 . S
C970 H982 0.956 1_556 S
C970 H983 0.961 . S
C970 H984 0.961 . S
C971 C968 1.539 . S
C971 H985 0.958 . S
C971 H986 0.961 . S
C971 H987 0.960 . S
H972 C956 0.931 . S
H973 C961 0.929 . S
H974 C962 0.960 . S
H975 C962 0.962 . S
H976 C962 0.960 . S
H977 C963 0.961 1_554 S
H978 C963 0.961 . S
H979 C963 0.961 . S
H980 C964 0.931 . S
H981 C969 0.930 . S
H982 C970 0.956 1_554 S
H983 C970 0.961 . S
H984 C970 0.961 . S
H985 C971 0.958 . S
H986 C971 0.961 . S
H987 C971 0.960 . S
C988 C989 1.391 . S
C988 C990 1.394 . S
C988 H1004 0.931 . S
C989 C988 1.391 . S
C989 C993 1.376 . S
C990 C988 1.394 . S
C990 C991 1.366 1_455 S
C990 C994 1.531 . S
C991 C990 1.366 1_655 S
C991 C992 1.411 . S
C991 C999 1.504 . S
C992 C991 1.411 . S
C992 C993 1.392 1_655 S
C992 C995 1.511 . S
C993 C989 1.376 . S
C993 C992 1.392 1_455 S
C993 H1005 0.929 . S
C994 C990 1.531 . S
C994 H1006 0.960 . S
C994 H1007 0.962 . S
C994 H1008 0.960 . S
C995 C992 1.511 . S
C995 H1009 0.961 . S
C995 H1010 0.961 . S
C995 H1011 0.961 . S
C996 C997 1.369 1_455 S
C996 C998 1.364 . S
C996 H1012 0.932 . S
C997 C996 1.369 1_655 S
C997 C1001 1.408 . S
C998 C996 1.364 . S
C998 C999 1.370 1_455 S
C998 C1002 1.524 . S
C999 C991 1.504 . S
C999 C998 1.370 1_655 S
C999 C1000 1.403 . S
C1000 C999 1.403 . S
C1000 C1001 1.404 . S
C1000 C1003 1.539 . S
C1001 C997 1.408 . S
C1001 C1000 1.404 . S
C1001 H1013 0.930 . S
C1002 C998 1.524 . S
C1002 H1014 0.956 . S
C1002 H1015 0.961 . S
C1002 H1016 0.961 . S
C1003 C1000 1.539 . S
C1003 H1017 0.958 . S
C1003 H1018 0.961 . S
C1003 H1019 0.960 . S
H1004 C988 0.931 . S
H1005 C993 0.929 . S
H1006 C994 0.960 . S
H1007 C994 0.962 . S
H1008 C994 0.960 . S
H1009 C995 0.961 . S
H1010 C995 0.961 . S
H1011 C995 0.961 . S
H1012 C996 0.932 . S
H1013 C1001 0.930 . S
H1014 C1002 0.956 . S
H1015 C1002 0.961 . S
H1016 C1002 0.961 . S
H1017 C1003 0.958 . S
H1018 C1003 0.961 . S
H1019 C1003 0.960 . S
C1020 C1021 1.391 . S
C1020 C1022 1.394 . S
C1020 H1036 0.931 . S
C1021 C1020 1.391 . S
C1021 C1025 1.376 . S
C1022 C1020 1.394 . S
C1022 C1023 1.369 . S
C1022 C1026 1.531 . S
C1023 C1022 1.369 . S
C1023 C1024 1.410 . S
C1023 C1031 1.503 . S
C1024 C1023 1.410 . S
C1024 C1025 1.392 . S
C1024 C1027 1.511 . S
C1025 C1021 1.376 . S
C1025 C1024 1.392 . S
C1025 H1037 0.929 . S
C1026 C1022 1.531 . S
C1026 H1038 0.960 . S
C1026 H1039 0.962 . S
C1026 H1040 0.960 . S
C1027 C1024 1.511 . S
C1027 H1041 0.961 . S
C1027 H1042 0.961 . S
C1027 H1043 0.961 . S
C1028 C1029 1.370 . S
C1028 C1030 1.363 . S
C1028 H1044 0.931 . S
C1029 C1028 1.370 . S
C1029 C1033 1.408 . S
C1030 C1028 1.363 . S
C1030 C1031 1.370 . S
C1030 C1034 1.524 . S
C1031 C1023 1.503 . S
C1031 C1030 1.370 . S
C1031 C1032 1.403 . S
C1032 C1031 1.403 . S
C1032 C1033 1.404 . S
C1032 C1035 1.539 . S
C1033 C1029 1.408 . S
C1033 C1032 1.404 . S
C1033 H1045 0.930 . S
C1034 C1030 1.524 . S
C1034 H1046 0.956 . S
C1034 H1047 0.961 . S
C1034 H1048 0.957 1_545 S
C1035 C1032 1.539 . S
C1035 H1049 0.958 . S
C1035 H1050 0.961 . S
C1035 H1051 0.960 . S
H1036 C1020 0.931 . S
H1037 C1025 0.929 . S
H1038 C1026 0.960 . S
H1039 C1026 0.962 . S
H1040 C1026 0.960 . S
H1041 C1027 0.961 . S
H1042 C1027 0.961 . S
H1043 C1027 0.961 . S
H1044 C1028 0.931 . S
H1045 C1033 0.930 . S
H1046 C1034 0.956 . S
H1047 C1034 0.961 . S
H1048 C1034 0.957 1_565 S
H1049 C1035 0.958 . S
H1050 C1035 0.961 . S
H1051 C1035 0.960 . S
C1052 C1053 1.391 . S
C1052 C1054 1.394 . S
C1052 H1068 0.931 . S
C1053 C1052 1.391 . S
C1053 C1057 1.376 . S
C1054 C1052 1.394 . S
C1054 C1055 1.369 . S
C1054 C1058 1.531 . S
C1055 C1054 1.369 . S
C1055 C1056 1.410 . S
C1055 C1063 1.503 . S
C1056 C1055 1.410 . S
C1056 C1057 1.392 . S
C1056 C1059 1.511 . S
C1057 C1053 1.376 . S
C1057 C1056 1.392 . S
C1057 H1069 0.929 . S
C1058 C1054 1.531 . S
C1058 H1070 0.960 . S
C1058 H1071 0.962 . S
C1058 H1072 0.960 . S
C1059 C1056 1.511 . S
C1059 H1073 0.961 . S
C1059 H1074 0.961 . S
C1059 H1075 0.961 . S
C1060 C1061 1.370 . S
C1060 C1062 1.363 . S
C1060 H1076 0.931 . S
C1061 C1060 1.370 . S
C1061 C1065 1.408 . S
C1062 C1060 1.363 . S
C1062 C1063 1.370 . S
C1062 C1066 1.524 . S
C1063 C1055 1.503 . S
C1063 C1062 1.370 . S
C1063 C1064 1.403 . S
C1064 C1063 1.403 . S
C1064 C1065 1.404 . S
C1064 C1067 1.539 . S
C1065 C1061 1.408 . S
C1065 C1064 1.404 . S
C1065 H1077 0.930 . S
C1066 C1062 1.524 . S
C1066 H1078 0.956 . S
C1066 H1079 0.961 . S
C1066 H1080 0.961 . S
C1067 C1064 1.539 . S
C1067 H1081 0.958 . S
C1067 H1082 0.961 . S
C1067 H1083 0.960 . S
H1068 C1052 0.931 . S
H1069 C1057 0.929 . S
H1070 C1058 0.960 . S
H1071 C1058 0.962 . S
H1072 C1058 0.960 . S
H1073 C1059 0.961 . S
H1074 C1059 0.961 . S
H1075 C1059 0.961 . S
H1076 C1060 0.931 . S
H1077 C1065 0.930 . S
H1078 C1066 0.956 . S
H1079 C1066 0.961 . S
H1080 C1066 0.961 . S
H1081 C1067 0.958 . S
H1082 C1067 0.961 . S
H1083 C1067 0.960 . S
C1084 C1085 1.391 . S
C1084 C1086 1.394 . S
C1084 H1100 0.931 . S
C1085 C1084 1.391 . S
C1085 C1089 1.376 . S
C1086 C1084 1.394 . S
C1086 C1087 1.369 . S
C1086 C1090 1.531 . S
C1087 C1086 1.369 . S
C1087 C1088 1.410 . S
C1087 C1095 1.503 . S
C1088 C1087 1.410 . S
C1088 C1089 1.392 . S
C1088 C1091 1.511 . S
C1089 C1085 1.376 . S
C1089 C1088 1.392 . S
C1089 H1101 0.929 . S
C1090 C1086 1.531 . S
C1090 H1102 0.960 . S
C1090 H1103 0.962 . S
C1090 H1104 0.960 . S
C1091 C1088 1.511 . S
C1091 H1105 0.961 1_655 S
C1091 H1106 0.961 . S
C1091 H1107 0.961 . S
C1092 C1093 1.370 . S
C1092 C1094 1.363 . S
C1092 H1108 0.931 . S
C1093 C1092 1.370 . S
C1093 C1097 1.408 . S
C1094 C1092 1.363 . S
C1094 C1095 1.370 . S
C1094 C1098 1.524 . S
C1095 C1087 1.503 . S
C1095 C1094 1.370 . S
C1095 C1096 1.403 . S
C1096 C1095 1.403 . S
C1096 C1097 1.404 . S
C1096 C1099 1.539 . S
C1097 C1093 1.408 . S
C1097 C1096 1.404 . S
C1097 H1109 0.930 . S
C1098 C1094 1.524 . S
C1098 H1110 0.956 . S
C1098 H1111 0.961 . S
C1098 H1112 0.961 . S
C1099 C1096 1.539 . S
C1099 H1113 0.958 . S
C1099 H1114 0.961 . S
C1099 H1115 0.960 . S
H1100 C1084 0.931 . S
H1101 C1089 0.929 . S
H1102 C1090 0.960 . S
H1103 C1090 0.962 . S
H1104 C1090 0.960 . S
H1105 C1091 0.961 1_455 S
H1106 C1091 0.961 . S
H1107 C1091 0.961 . S
H1108 C1092 0.931 . S
H1109 C1097 0.930 . S
H1110 C1098 0.956 . S
H1111 C1098 0.961 . S
H1112 C1098 0.961 . S
H1113 C1099 0.958 . S
H1114 C1099 0.961 . S
H1115 C1099 0.960 . S
C1116 C1117 1.391 . S
C1116 C1118 1.394 . S
C1116 H1132 0.931 . S
C1117 C1116 1.391 . S
C1117 C1121 1.376 . S
C1118 C1116 1.394 . S
C1118 C1119 1.369 . S
C1118 C1122 1.531 . S
C1119 C1118 1.369 . S
C1119 C1120 1.410 . S
C1119 C1127 1.503 . S
C1120 C1119 1.410 . S
C1120 C1121 1.392 . S
C1120 C1123 1.511 . S
C1121 C1117 1.376 . S
C1121 C1120 1.392 . S
C1121 H1133 0.929 . S
C1122 C1118 1.531 . S
C1122 H1134 0.960 . S
C1122 H1135 0.962 . S
C1122 H1136 0.960 . S
C1123 C1120 1.511 . S
C1123 H1137 0.961 . S
C1123 H1138 0.961 . S
C1123 H1139 0.961 . S
C1124 C1125 1.370 . S
C1124 C1126 1.363 . S
C1124 H1140 0.931 . S
C1125 C1124 1.370 . S
C1125 C1129 1.408 . S
C1126 C1124 1.363 . S
C1126 C1127 1.370 . S
C1126 C1130 1.524 . S
C1127 C1119 1.503 . S
C1127 C1126 1.370 . S
C1127 C1128 1.403 . S
C1128 C1127 1.403 . S
C1128 C1129 1.404 . S
C1128 C1131 1.539 . S
C1129 C1125 1.408 . S
C1129 C1128 1.404 . S
C1129 H1141 0.930 . S
C1130 C1126 1.524 . S
C1130 H1142 0.956 . S
C1130 H1143 0.961 . S
C1130 H1144 0.961 . S
C1131 C1128 1.539 . S
C1131 H1145 0.958 . S
C1131 H1146 0.961 . S
C1131 H1147 0.960 . S
H1132 C1116 0.931 . S
H1133 C1121 0.929 . S
H1134 C1122 0.960 . S
H1135 C1122 0.962 . S
H1136 C1122 0.960 . S
H1137 C1123 0.961 . S
H1138 C1123 0.961 . S
H1139 C1123 0.961 . S
H1140 C1124 0.931 . S
H1141 C1129 0.930 . S
H1142 C1130 0.956 . S
H1143 C1130 0.961 . S
H1144 C1130 0.961 . S
H1145 C1131 0.958 . S
H1146 C1131 0.961 . S
H1147 C1131 0.960 . S
C1148 C1149 1.391 . S
C1148 C1150 1.394 . S
C1148 H1164 0.931 . S
C1149 C1148 1.391 . S
C1149 C1153 1.376 . S
C1150 C1148 1.394 . S
C1150 C1151 1.369 . S
C1150 C1154 1.531 . S
C1151 C1150 1.369 . S
C1151 C1152 1.410 . S
C1151 C1159 1.503 . S
C1152 C1151 1.410 . S
C1152 C1153 1.392 . S
C1152 C1155 1.511 . S
C1153 C1149 1.376 . S
C1153 C1152 1.392 . S
C1153 H1165 0.929 . S
C1154 C1150 1.531 . S
C1154 H1166 0.960 . S
C1154 H1167 0.962 . S
C1154 H1168 0.960 . S
C1155 C1152 1.511 . S
C1155 H1169 0.961 . S
C1155 H1170 0.961 . S
C1155 H1171 0.961 . S
C1156 C1157 1.370 . S
C1156 C1158 1.363 . S
C1156 H1172 0.931 . S
C1157 C1156 1.370 . S
C1157 C1161 1.408 . S
C1158 C1156 1.363 . S
C1158 C1159 1.370 . S
C1158 C1162 1.524 . S
C1159 C1151 1.503 . S
C1159 C1158 1.370 . S
C1159 C1160 1.403 . S
C1160 C1159 1.403 . S
C1160 C1161 1.404 . S
C1160 C1163 1.539 . S
C1161 C1157 1.408 . S
C1161 C1160 1.404 . S
C1161 H1173 0.930 . S
C1162 C1158 1.524 . S
C1162 H1174 0.956 . S
C1162 H1175 0.961 . S
C1162 H1176 0.961 . S
C1163 C1160 1.539 . S
C1163 H1177 0.958 . S
C1163 H1178 0.961 . S
C1163 H1179 0.960 . S
H1164 C1148 0.931 . S
H1165 C1153 0.929 . S
H1166 C1154 0.960 . S
H1167 C1154 0.962 . S
H1168 C1154 0.960 . S
H1169 C1155 0.961 . S
H1170 C1155 0.961 . S
H1171 C1155 0.961 . S
H1172 C1156 0.931 . S
H1173 C1161 0.930 . S
H1174 C1162 0.956 . S
H1175 C1162 0.961 . S
H1176 C1162 0.961 . S
H1177 C1163 0.958 . S
H1178 C1163 0.961 . S
H1179 C1163 0.960 . S
C1180 C1181 1.391 . S
C1180 C1182 1.394 . S
C1180 H1196 0.931 . S
C1181 C1180 1.391 . S
C1181 C1185 1.376 . S
C1182 C1180 1.394 . S
C1182 C1183 1.369 . S
C1182 C1186 1.531 . S
C1183 C1182 1.369 . S
C1183 C1184 1.410 . S
C1183 C1191 1.503 . S
C1184 C1183 1.410 . S
C1184 C1185 1.392 . S
C1184 C1187 1.511 . S
C1185 C1181 1.376 . S
C1185 C1184 1.392 . S
C1185 H1197 0.929 . S
C1186 C1182 1.531 . S
C1186 H1198 0.960 . S
C1186 H1199 0.962 . S
C1186 H1200 0.960 . S
C1187 C1184 1.511 . S
C1187 H1201 0.961 . S
C1187 H1202 0.961 . S
C1187 H1203 0.961 . S
C1188 C1189 1.370 . S
C1188 C1190 1.363 . S
C1188 H1204 0.931 . S
C1189 C1188 1.370 . S
C1189 C1193 1.408 . S
C1190 C1188 1.363 . S
C1190 C1191 1.370 . S
C1190 C1194 1.524 . S
C1191 C1183 1.503 . S
C1191 C1190 1.370 . S
C1191 C1192 1.403 . S
C1192 C1191 1.403 . S
C1192 C1193 1.404 . S
C1192 C1195 1.539 . S
C1193 C1189 1.408 . S
C1193 C1192 1.404 . S
C1193 H1205 0.930 . S
C1194 C1190 1.524 . S
C1194 H1206 0.956 . S
C1194 H1207 0.961 . S
C1194 H1208 0.961 . S
C1195 C1192 1.539 . S
C1195 H1209 0.958 . S
C1195 H1210 0.961 . S
C1195 H1211 0.960 . S
H1196 C1180 0.931 . S
H1197 C1185 0.929 . S
H1198 C1186 0.960 . S
H1199 C1186 0.962 . S
H1200 C1186 0.960 . S
H1201 C1187 0.961 . S
H1202 C1187 0.961 . S
H1203 C1187 0.961 . S
H1204 C1188 0.931 . S
H1205 C1193 0.930 . S
H1206 C1194 0.956 . S
H1207 C1194 0.961 . S
H1208 C1194 0.961 . S
H1209 C1195 0.958 . S
H1210 C1195 0.961 . S
H1211 C1195 0.960 . S
C1212 C1213 1.391 . S
C1212 C1214 1.394 . S
C1212 H1228 0.931 . S
C1213 C1212 1.391 . S
C1213 C1217 1.376 . S
C1214 C1212 1.394 . S
C1214 C1215 1.369 . S
C1214 C1218 1.531 . S
C1215 C1214 1.369 . S
C1215 C1216 1.410 . S
C1215 C1223 1.503 . S
C1216 C1215 1.410 . S
C1216 C1217 1.392 . S
C1216 C1219 1.511 . S
C1217 C1213 1.376 . S
C1217 C1216 1.392 . S
C1217 H1229 0.929 . S
C1218 C1214 1.531 . S
C1218 H1230 0.960 . S
C1218 H1231 0.962 . S
C1218 H1232 0.960 . S
C1219 C1216 1.511 . S
C1219 H1233 0.961 . S
C1219 H1234 0.961 . S
C1219 H1235 0.961 . S
C1220 C1221 1.370 . S
C1220 C1222 1.363 . S
C1220 H1236 0.931 . S
C1221 C1220 1.370 . S
C1221 C1225 1.408 . S
C1222 C1220 1.363 . S
C1222 C1223 1.370 . S
C1222 C1226 1.524 . S
C1223 C1215 1.503 . S
C1223 C1222 1.370 . S
C1223 C1224 1.403 . S
C1224 C1223 1.403 . S
C1224 C1225 1.404 . S
C1224 C1227 1.539 . S
C1225 C1221 1.408 . S
C1225 C1224 1.404 . S
C1225 H1237 0.930 . S
C1226 C1222 1.524 . S
C1226 H1238 0.956 . S
C1226 H1239 0.961 . S
C1226 H1240 0.961 . S
C1227 C1224 1.539 . S
C1227 H1241 0.958 . S
C1227 H1242 0.961 . S
C1227 H1243 0.960 . S
H1228 C1212 0.931 . S
H1229 C1217 0.929 . S
H1230 C1218 0.960 . S
H1231 C1218 0.962 . S
H1232 C1218 0.960 . S
H1233 C1219 0.961 . S
H1234 C1219 0.961 . S
H1235 C1219 0.961 . S
H1236 C1220 0.931 . S
H1237 C1225 0.930 . S
H1238 C1226 0.956 . S
H1239 C1226 0.961 . S
H1240 C1226 0.961 . S
H1241 C1227 0.958 . S
H1242 C1227 0.961 . S
H1243 C1227 0.960 . S
C1244 C1245 1.391 . S
C1244 C1246 1.394 . S
C1244 H1260 0.931 . S
C1245 C1244 1.391 . S
C1245 C1249 1.376 . S
C1246 C1244 1.394 . S
C1246 C1247 1.369 . S
C1246 C1250 1.531 . S
C1247 C1246 1.369 . S
C1247 C1248 1.410 . S
C1247 C1255 1.503 . S
C1248 C1247 1.410 . S
C1248 C1249 1.392 . S
C1248 C1251 1.511 . S
C1249 C1245 1.376 . S
C1249 C1248 1.392 . S
C1249 H1261 0.929 . S
C1250 C1246 1.531 . S
C1250 H1262 0.960 . S
C1250 H1263 0.962 . S
C1250 H1264 0.960 . S
C1251 C1248 1.511 . S
C1251 H1265 0.961 . S
C1251 H1266 0.961 . S
C1251 H1267 0.961 . S
C1252 C1253 1.370 . S
C1252 C1254 1.363 . S
C1252 H1268 0.931 . S
C1253 C1252 1.370 . S
C1253 C1257 1.408 . S
C1254 C1252 1.363 . S
C1254 C1255 1.370 . S
C1254 C1258 1.524 . S
C1255 C1247 1.503 . S
C1255 C1254 1.370 . S
C1255 C1256 1.403 . S
C1256 C1255 1.403 . S
C1256 C1257 1.404 . S
C1256 C1259 1.539 . S
C1257 C1253 1.408 . S
C1257 C1256 1.404 . S
C1257 H1269 0.930 . S
C1258 C1254 1.524 . S
C1258 H1270 0.956 . S
C1258 H1271 0.961 . S
C1258 H1272 0.961 . S
C1259 C1256 1.539 . S
C1259 H1273 0.958 . S
C1259 H1274 0.961 . S
C1259 H1275 0.960 . S
H1260 C1244 0.931 . S
H1261 C1249 0.929 . S
H1262 C1250 0.960 . S
H1263 C1250 0.962 . S
H1264 C1250 0.960 . S
H1265 C1251 0.961 . S
H1266 C1251 0.961 . S
H1267 C1251 0.961 . S
H1268 C1252 0.931 . S
H1269 C1257 0.930 . S
H1270 C1258 0.956 . S
H1271 C1258 0.961 . S
H1272 C1258 0.961 . S
H1273 C1259 0.958 . S
H1274 C1259 0.961 . S
H1275 C1259 0.960 . S
C1276 C1277 1.391 . S
C1276 C1278 1.394 . S
C1276 H1292 0.931 . S
C1277 C1276 1.391 . S
C1277 C1281 1.376 . S
C1278 C1276 1.394 . S
C1278 C1279 1.369 . S
C1278 C1282 1.531 . S
C1279 C1278 1.369 . S
C1279 C1280 1.410 . S
C1279 C1287 1.503 . S
C1280 C1279 1.410 . S
C1280 C1281 1.392 . S
C1280 C1283 1.511 . S
C1281 C1277 1.376 . S
C1281 C1280 1.392 . S
C1281 H1293 0.929 . S
C1282 C1278 1.531 . S
C1282 H1294 0.960 . S
C1282 H1295 0.962 . S
C1282 H1296 0.960 . S
C1283 C1280 1.511 . S
C1283 H1297 0.961 . S
C1283 H1298 0.961 . S
C1283 H1299 0.961 . S
C1284 C1285 1.370 . S
C1284 C1286 1.363 . S
C1284 H1300 0.931 . S
C1285 C1284 1.370 . S
C1285 C1289 1.408 . S
C1286 C1284 1.363 . S
C1286 C1287 1.370 . S
C1286 C1290 1.524 . S
C1287 C1279 1.503 . S
C1287 C1286 1.370 . S
C1287 C1288 1.403 . S
C1288 C1287 1.403 . S
C1288 C1289 1.404 . S
C1288 C1291 1.539 . S
C1289 C1285 1.408 . S
C1289 C1288 1.404 . S
C1289 H1301 0.930 . S
C1290 C1286 1.524 . S
C1290 H1302 0.956 . S
C1290 H1303 0.961 . S
C1290 H1304 0.961 . S
C1291 C1288 1.539 . S
C1291 H1305 0.958 . S
C1291 H1306 0.961 . S
C1291 H1307 0.960 . S
H1292 C1276 0.931 . S
H1293 C1281 0.929 . S
H1294 C1282 0.960 . S
H1295 C1282 0.962 . S
H1296 C1282 0.960 . S
H1297 C1283 0.961 . S
H1298 C1283 0.961 . S
H1299 C1283 0.961 . S
H1300 C1284 0.931 . S
H1301 C1289 0.930 . S
H1302 C1290 0.956 . S
H1303 C1290 0.961 . S
H1304 C1290 0.961 . S
H1305 C1291 0.958 . S
H1306 C1291 0.961 . S
H1307 C1291 0.960 . S
C1308 C1309 1.391 . S
C1308 C1310 1.394 . S
C1308 H1324 0.931 . S
C1309 C1308 1.391 . S
C1309 C1313 1.376 . S
C1310 C1308 1.394 . S
C1310 C1311 1.369 . S
C1310 C1314 1.531 . S
C1311 C1310 1.369 . S
C1311 C1312 1.410 . S
C1311 C1319 1.503 . S
C1312 C1311 1.410 . S
C1312 C1313 1.392 . S
C1312 C1315 1.511 . S
C1313 C1309 1.376 . S
C1313 C1312 1.392 . S
C1313 H1325 0.929 . S
C1314 C1310 1.531 . S
C1314 H1326 0.960 . S
C1314 H1327 0.962 . S
C1314 H1328 0.960 . S
C1315 C1312 1.511 . S
C1315 H1329 0.961 . S
C1315 H1330 0.961 . S
C1315 H1331 0.961 . S
C1316 C1317 1.370 . S
C1316 C1318 1.363 . S
C1316 H1332 0.931 . S
C1317 C1316 1.370 . S
C1317 C1321 1.408 . S
C1318 C1316 1.363 . S
C1318 C1319 1.370 . S
C1318 C1322 1.524 . S
C1319 C1311 1.503 . S
C1319 C1318 1.370 . S
C1319 C1320 1.403 . S
C1320 C1319 1.403 . S
C1320 C1321 1.404 . S
C1320 C1323 1.539 . S
C1321 C1317 1.408 . S
C1321 C1320 1.404 . S
C1321 H1333 0.930 . S
C1322 C1318 1.524 . S
C1322 H1334 0.956 . S
C1322 H1335 0.961 . S
C1322 H1336 0.961 . S
C1323 C1320 1.539 . S
C1323 H1337 0.958 . S
C1323 H1338 0.961 . S
C1323 H1339 0.960 . S
H1324 C1308 0.931 . S
H1325 C1313 0.929 . S
H1326 C1314 0.960 . S
H1327 C1314 0.962 . S
H1328 C1314 0.960 . S
H1329 C1315 0.961 . S
H1330 C1315 0.961 . S
H1331 C1315 0.961 . S
H1332 C1316 0.931 . S
H1333 C1321 0.930 . S
H1334 C1322 0.956 . S
H1335 C1322 0.961 . S
H1336 C1322 0.961 . S
H1337 C1323 0.958 . S
H1338 C1323 0.961 . S
H1339 C1323 0.960 . S
C1340 C1341 1.391 . S
C1340 C1342 1.394 . S
C1340 H1356 0.931 . S
C1341 C1340 1.391 . S
C1341 C1345 1.376 . S
C1342 C1340 1.394 . S
C1342 C1343 1.369 . S
C1342 C1346 1.531 . S
C1343 C1342 1.369 . S
C1343 C1344 1.410 . S
C1343 C1351 1.503 . S
C1344 C1343 1.410 . S
C1344 C1345 1.392 . S
C1344 C1347 1.511 . S
C1345 C1341 1.376 . S
C1345 C1344 1.392 . S
C1345 H1357 0.929 . S
C1346 C1342 1.531 . S
C1346 H1358 0.960 . S
C1346 H1359 0.962 . S
C1346 H1360 0.960 . S
C1347 C1344 1.511 . S
C1347 H1361 0.961 . S
C1347 H1362 0.961 . S
C1347 H1363 0.961 . S
C1348 C1349 1.370 . S
C1348 C1350 1.363 . S
C1348 H1364 0.931 . S
C1349 C1348 1.370 . S
C1349 C1353 1.408 . S
C1350 C1348 1.363 . S
C1350 C1351 1.370 . S
C1350 C1354 1.524 . S
C1351 C1343 1.503 . S
C1351 C1350 1.370 . S
C1351 C1352 1.403 . S
C1352 C1351 1.403 . S
C1352 C1353 1.404 . S
C1352 C1355 1.539 . S
C1353 C1349 1.408 . S
C1353 C1352 1.404 . S
C1353 H1365 0.930 . S
C1354 C1350 1.524 . S
C1354 H1366 0.956 . S
C1354 H1367 0.961 . S
C1354 H1368 0.961 . S
C1355 C1352 1.539 . S
C1355 H1369 0.958 . S
C1355 H1370 0.961 . S
C1355 H1371 0.960 . S
H1356 C1340 0.931 . S
H1357 C1345 0.929 . S
H1358 C1346 0.960 . S
H1359 C1346 0.962 . S
H1360 C1346 0.960 . S
H1361 C1347 0.961 . S
H1362 C1347 0.961 . S
H1363 C1347 0.961 . S
H1364 C1348 0.931 . S
H1365 C1353 0.930 . S
H1366 C1354 0.956 . S
H1367 C1354 0.961 . S
H1368 C1354 0.961 . S
H1369 C1355 0.958 . S
H1370 C1355 0.961 . S
H1371 C1355 0.960 . S
C1372 C1373 1.391 . S
C1372 C1374 1.394 . S
C1372 H1388 0.931 . S
C1373 C1372 1.391 . S
C1373 C1377 1.376 . S
C1374 C1372 1.394 . S
C1374 C1375 1.369 . S
C1374 C1378 1.531 . S
C1375 C1374 1.369 . S
C1375 C1376 1.410 . S
C1375 C1383 1.503 . S
C1376 C1375 1.410 . S
C1376 C1377 1.392 . S
C1376 C1379 1.511 . S
C1377 C1373 1.376 . S
C1377 C1376 1.392 . S
C1377 H1389 0.929 . S
C1378 C1374 1.531 . S
C1378 H1390 0.960 . S
C1378 H1391 0.962 . S
C1378 H1392 0.960 . S
C1379 C1376 1.511 . S
C1379 H1393 0.961 . S
C1379 H1394 0.961 . S
C1379 H1395 0.961 . S
C1380 C1381 1.370 . S
C1380 C1382 1.363 . S
C1380 H1396 0.931 . S
C1381 C1380 1.370 . S
C1381 C1385 1.408 . S
C1382 C1380 1.363 . S
C1382 C1383 1.370 . S
C1382 C1386 1.524 . S
C1383 C1375 1.503 . S
C1383 C1382 1.370 . S
C1383 C1384 1.403 . S
C1384 C1383 1.403 . S
C1384 C1385 1.404 . S
C1384 C1387 1.539 . S
C1385 C1381 1.408 . S
C1385 C1384 1.404 . S
C1385 H1397 0.930 . S
C1386 C1382 1.524 . S
C1386 H1398 0.956 . S
C1386 H1399 0.961 . S
C1386 H1400 0.961 . S
C1387 C1384 1.539 . S
C1387 H1401 0.958 . S
C1387 H1402 0.961 . S
C1387 H1403 0.960 . S
H1388 C1372 0.931 . S
H1389 C1377 0.929 . S
H1390 C1378 0.960 . S
H1391 C1378 0.962 . S
H1392 C1378 0.960 . S
H1393 C1379 0.961 . S
H1394 C1379 0.961 . S
H1395 C1379 0.961 . S
H1396 C1380 0.931 . S
H1397 C1385 0.930 . S
H1398 C1386 0.956 . S
H1399 C1386 0.961 . S
H1400 C1386 0.961 . S
H1401 C1387 0.958 . S
H1402 C1387 0.961 . S
H1403 C1387 0.960 . S
C253 C61 0.829 . S
C261 C7 0.980 . S
C285 C83 0.928 . S
C293 C25 0.995 . S
C317 C49 0.942 . S
C325 C104 0.889 . S
C349 C67 0.986 . S
C357 C125 0.895 . S
C381 C19 0.949 . S
C389 C88 1.011 . S
C413 C41 0.957 . S
C421 C109 1.004 . S
C445 C230 0.974 . S
C453 C130 1.010 . S
C477 C151 1.051 . S
C485 C251 0.951 . S
C509 C172 0.938 . S
C517 C146 0.885 . S
C541 C196 1.024 . S
C549 C167 0.937 . S
C573 C214 0.977 . S
C581 C188 0.891 . S
C605 C208 1.007 . S
C613 C235 1.032 . S
C637 C66 1.370 . S
C645 C16 1.356 . S
C669 C24 1.389 . S
C677 C87 1.361 . S
C701 C58 1.285 . S
C709 C108 1.320 . S
C733 C129 1.286 . S
C741 C205 1.320 . S
C765 C150 1.354 . S
C773 C213 1.343 . S
C797 C171 1.327 . S
C805 C234 1.332 . S
C829 C166 1.342 . S
C837 C20 1.384 . S
C861 C40 1.334 . S
C869 C187 1.367 . S
C893 C209 1.329 . S
C901 C62 1.371 . S
C925 C82 1.411 . S
C933 C229 1.384 . S
C957 C103 1.407 . S
C965 C250 1.391 . S
C989 C145 1.413 . S
C997 C124 1.369 . S
C1021 C45 1.037 . S
C1029 C4 0.904 . S
C1053 C28 0.849 . S
C1061 C79 1.094 . S
C1085 C46 0.996 . S
C1093 C100 1.097 . S
C1117 C70 0.919 . S
C1125 C121 1.072 . S
C1149 C3 1.052 . S
C1157 C91 0.887 . S
C1181 C37 1.043 . S
C1189 C112 0.890 . S
C1213 C226 1.055 . S
C1221 C133 0.887 . S
C1245 C154 0.832 . S
C1253 C247 1.071 . S
C1277 C175 0.997 . S
C1285 C142 1.090 . S
C1309 C163 1.045 . S
C1317 C193 0.915 . S
C1341 C217 0.910 . S
C1349 C184 1.071 . S
C1373 C238 1.014 . S
C1381 C192 1.114 . S
