# Generated by pormake.
# Topology wip, (6)-cn, num edge types: 1
# Building blocks:
#     Node 0, Type 0, BuildingBlock: KUMBOL_clean_sbu_1, # of connection points: 6
#     Node 1, Type 0, BuildingBlock: KUMBOL_clean_sbu_1, # of connection points: 6
#     Node 2, Type 0, BuildingBlock: KUMBOL_clean_sbu_1, # of connection points: 6
#     Node 3, Type 0, BuildingBlock: KUMBOL_clean_sbu_1, # of connection points: 6
#     Node 4, Type 0, BuildingBlock: KUMBOL_clean_sbu_1, # of connection points: 6
#     Node 5, Type 0, BuildingBlock: KUMBOL_clean_sbu_1, # of connection points: 6
#     Node 6, Type 0, BuildingBlock: KUMBOL_clean_sbu_1, # of connection points: 6
#     Node 7, Type 0, BuildingBlock: KUMBOL_clean_sbu_1, # of connection points: 6
#     Node 8, Type 0, BuildingBlock: KUMBOL_clean_sbu_1, # of connection points: 6
#     Node 9, Type 0, BuildingBlock: KUMBOL_clean_sbu_1, # of connection points: 6
#     Node 10, Type 0, BuildingBlock: KUMBOL_clean_sbu_1, # of connection points: 6
#     Node 11, Type 0, BuildingBlock: KUMBOL_clean_sbu_1, # of connection points: 6
#     Node 12, Type 0, BuildingBlock: KUMBOL_clean_sbu_1, # of connection points: 6
#     Node 13, Type 0, BuildingBlock: KUMBOL_clean_sbu_1, # of connection points: 6
#     Node 14, Type 0, BuildingBlock: KUMBOL_clean_sbu_1, # of connection points: 6
#     Node 15, Type 0, BuildingBlock: KUMBOL_clean_sbu_1, # of connection points: 6
#     Node 16, Type 0, BuildingBlock: KUMBOL_clean_sbu_1, # of connection points: 6
#     Node 17, Type 0, BuildingBlock: KUMBOL_clean_sbu_1, # of connection points: 6
#     Node 18, Type 0, BuildingBlock: KUMBOL_clean_sbu_1, # of connection points: 6
#     Node 19, Type 0, BuildingBlock: KUMBOL_clean_sbu_1, # of connection points: 6
#     Node 20, Type 0, BuildingBlock: KUMBOL_clean_sbu_1, # of connection points: 6
#     Node 21, Type 0, BuildingBlock: KUMBOL_clean_sbu_1, # of connection points: 6
#     Node 22, Type 0, BuildingBlock: KUMBOL_clean_sbu_1, # of connection points: 6
#     Node 23, Type 0, BuildingBlock: KUMBOL_clean_sbu_1, # of connection points: 6
#     Node 24, Type 0, BuildingBlock: KUMBOL_clean_sbu_1, # of connection points: 6
#     Node 25, Type 0, BuildingBlock: KUMBOL_clean_sbu_1, # of connection points: 6
#     Node 26, Type 0, BuildingBlock: KUMBOL_clean_sbu_1, # of connection points: 6
#     Node 27, Type 0, BuildingBlock: KUMBOL_clean_sbu_1, # of connection points: 6
#     Node 28, Type 0, BuildingBlock: KUMBOL_clean_sbu_1, # of connection points: 6
#     Node 29, Type 0, BuildingBlock: KUMBOL_clean_sbu_1, # of connection points: 6
#     Node 30, Type 0, BuildingBlock: KUMBOL_clean_sbu_1, # of connection points: 6
#     Node 31, Type 0, BuildingBlock: KUMBOL_clean_sbu_1, # of connection points: 6
#     Edge 32, Type (0, 0), BuildingBlock: OJICUG_clean_linker_0, # of connection points: 2
#     Edge 33, Type (0, 0), BuildingBlock: OJICUG_clean_linker_0, # of connection points: 2
#     Edge 34, Type (0, 0), BuildingBlock: OJICUG_clean_linker_0, # of connection points: 2
#     Edge 35, Type (0, 0), BuildingBlock: OJICUG_clean_linker_0, # of connection points: 2
#     Edge 36, Type (0, 0), BuildingBlock: OJICUG_clean_linker_0, # of connection points: 2
#     Edge 37, Type (0, 0), BuildingBlock: OJICUG_clean_linker_0, # of connection points: 2
#     Edge 38, Type (0, 0), BuildingBlock: OJICUG_clean_linker_0, # of connection points: 2
#     Edge 39, Type (0, 0), BuildingBlock: OJICUG_clean_linker_0, # of connection points: 2
#     Edge 40, Type (0, 0), BuildingBlock: OJICUG_clean_linker_0, # of connection points: 2
#     Edge 41, Type (0, 0), BuildingBlock: OJICUG_clean_linker_0, # of connection points: 2
#     Edge 42, Type (0, 0), BuildingBlock: OJICUG_clean_linker_0, # of connection points: 2
#     Edge 43, Type (0, 0), BuildingBlock: OJICUG_clean_linker_0, # of connection points: 2
#     Edge 44, Type (0, 0), BuildingBlock: OJICUG_clean_linker_0, # of connection points: 2
#     Edge 45, Type (0, 0), BuildingBlock: OJICUG_clean_linker_0, # of connection points: 2
#     Edge 46, Type (0, 0), BuildingBlock: OJICUG_clean_linker_0, # of connection points: 2
#     Edge 47, Type (0, 0), BuildingBlock: OJICUG_clean_linker_0, # of connection points: 2
#     Edge 48, Type (0, 0), BuildingBlock: OJICUG_clean_linker_0, # of connection points: 2
#     Edge 49, Type (0, 0), BuildingBlock: OJICUG_clean_linker_0, # of connection points: 2
#     Edge 50, Type (0, 0), BuildingBlock: OJICUG_clean_linker_0, # of connection points: 2
#     Edge 51, Type (0, 0), BuildingBlock: OJICUG_clean_linker_0, # of connection points: 2
#     Edge 52, Type (0, 0), BuildingBlock: OJICUG_clean_linker_0, # of connection points: 2
#     Edge 53, Type (0, 0), BuildingBlock: OJICUG_clean_linker_0, # of connection points: 2
#     Edge 54, Type (0, 0), BuildingBlock: OJICUG_clean_linker_0, # of connection points: 2
#     Edge 55, Type (0, 0), BuildingBlock: OJICUG_clean_linker_0, # of connection points: 2
#     Edge 56, Type (0, 0), BuildingBlock: OJICUG_clean_linker_0, # of connection points: 2
#     Edge 57, Type (0, 0), BuildingBlock: OJICUG_clean_linker_0, # of connection points: 2
#     Edge 58, Type (0, 0), BuildingBlock: OJICUG_clean_linker_0, # of connection points: 2
#     Edge 59, Type (0, 0), BuildingBlock: OJICUG_clean_linker_0, # of connection points: 2
#     Edge 60, Type (0, 0), BuildingBlock: OJICUG_clean_linker_0, # of connection points: 2
#     Edge 61, Type (0, 0), BuildingBlock: OJICUG_clean_linker_0, # of connection points: 2
#     Edge 62, Type (0, 0), BuildingBlock: OJICUG_clean_linker_0, # of connection points: 2
#     Edge 63, Type (0, 0), BuildingBlock: OJICUG_clean_linker_0, # of connection points: 2
#     Edge 64, Type (0, 0), BuildingBlock: OJICUG_clean_linker_0, # of connection points: 2
#     Edge 65, Type (0, 0), BuildingBlock: OJICUG_clean_linker_0, # of connection points: 2
#     Edge 66, Type (0, 0), BuildingBlock: OJICUG_clean_linker_0, # of connection points: 2
#     Edge 67, Type (0, 0), BuildingBlock: OJICUG_clean_linker_0, # of connection points: 2
#     Edge 68, Type (0, 0), BuildingBlock: OJICUG_clean_linker_0, # of connection points: 2
#     Edge 69, Type (0, 0), BuildingBlock: OJICUG_clean_linker_0, # of connection points: 2
#     Edge 70, Type (0, 0), BuildingBlock: OJICUG_clean_linker_0, # of connection points: 2
#     Edge 71, Type (0, 0), BuildingBlock: OJICUG_clean_linker_0, # of connection points: 2
#     Edge 72, Type (0, 0), BuildingBlock: OJICUG_clean_linker_0, # of connection points: 2
#     Edge 73, Type (0, 0), BuildingBlock: OJICUG_clean_linker_0, # of connection points: 2
#     Edge 74, Type (0, 0), BuildingBlock: OJICUG_clean_linker_0, # of connection points: 2
#     Edge 75, Type (0, 0), BuildingBlock: OJICUG_clean_linker_0, # of connection points: 2
#     Edge 76, Type (0, 0), BuildingBlock: OJICUG_clean_linker_0, # of connection points: 2
#     Edge 77, Type (0, 0), BuildingBlock: OJICUG_clean_linker_0, # of connection points: 2
#     Edge 78, Type (0, 0), BuildingBlock: OJICUG_clean_linker_0, # of connection points: 2
#     Edge 79, Type (0, 0), BuildingBlock: OJICUG_clean_linker_0, # of connection points: 2
#     Edge 80, Type (0, 0), BuildingBlock: OJICUG_clean_linker_0, # of connection points: 2
#     Edge 81, Type (0, 0), BuildingBlock: OJICUG_clean_linker_0, # of connection points: 2
#     Edge 82, Type (0, 0), BuildingBlock: OJICUG_clean_linker_0, # of connection points: 2
#     Edge 83, Type (0, 0), BuildingBlock: OJICUG_clean_linker_0, # of connection points: 2
#     Edge 84, Type (0, 0), BuildingBlock: OJICUG_clean_linker_0, # of connection points: 2
#     Edge 85, Type (0, 0), BuildingBlock: OJICUG_clean_linker_0, # of connection points: 2
#     Edge 86, Type (0, 0), BuildingBlock: OJICUG_clean_linker_0, # of connection points: 2
#     Edge 87, Type (0, 0), BuildingBlock: OJICUG_clean_linker_0, # of connection points: 2
#     Edge 88, Type (0, 0), BuildingBlock: OJICUG_clean_linker_0, # of connection points: 2
#     Edge 89, Type (0, 0), BuildingBlock: OJICUG_clean_linker_0, # of connection points: 2
#     Edge 90, Type (0, 0), BuildingBlock: OJICUG_clean_linker_0, # of connection points: 2
#     Edge 91, Type (0, 0), BuildingBlock: OJICUG_clean_linker_0, # of connection points: 2
#     Edge 92, Type (0, 0), BuildingBlock: OJICUG_clean_linker_0, # of connection points: 2
#     Edge 93, Type (0, 0), BuildingBlock: OJICUG_clean_linker_0, # of connection points: 2
#     Edge 94, Type (0, 0), BuildingBlock: OJICUG_clean_linker_0, # of connection points: 2
#     Edge 95, Type (0, 0), BuildingBlock: OJICUG_clean_linker_0, # of connection points: 2
#     Edge 96, Type (0, 0), BuildingBlock: OJICUG_clean_linker_0, # of connection points: 2
#     Edge 97, Type (0, 0), BuildingBlock: OJICUG_clean_linker_0, # of connection points: 2
#     Edge 98, Type (0, 0), BuildingBlock: OJICUG_clean_linker_0, # of connection points: 2
#     Edge 99, Type (0, 0), BuildingBlock: OJICUG_clean_linker_0, # of connection points: 2
#     Edge 100, Type (0, 0), BuildingBlock: OJICUG_clean_linker_0, # of connection points: 2
#     Edge 101, Type (0, 0), BuildingBlock: OJICUG_clean_linker_0, # of connection points: 2
#     Edge 102, Type (0, 0), BuildingBlock: OJICUG_clean_linker_0, # of connection points: 2
#     Edge 103, Type (0, 0), BuildingBlock: OJICUG_clean_linker_0, # of connection points: 2
#     Edge 104, Type (0, 0), BuildingBlock: OJICUG_clean_linker_0, # of connection points: 2
#     Edge 105, Type (0, 0), BuildingBlock: OJICUG_clean_linker_0, # of connection points: 2
#     Edge 106, Type (0, 0), BuildingBlock: OJICUG_clean_linker_0, # of connection points: 2
#     Edge 107, Type (0, 0), BuildingBlock: OJICUG_clean_linker_0, # of connection points: 2
#     Edge 108, Type (0, 0), BuildingBlock: OJICUG_clean_linker_0, # of connection points: 2
#     Edge 109, Type (0, 0), BuildingBlock: OJICUG_clean_linker_0, # of connection points: 2
#     Edge 110, Type (0, 0), BuildingBlock: OJICUG_clean_linker_0, # of connection points: 2
#     Edge 111, Type (0, 0), BuildingBlock: OJICUG_clean_linker_0, # of connection points: 2
#     Edge 112, Type (0, 0), BuildingBlock: OJICUG_clean_linker_0, # of connection points: 2
#     Edge 113, Type (0, 0), BuildingBlock: OJICUG_clean_linker_0, # of connection points: 2
#     Edge 114, Type (0, 0), BuildingBlock: OJICUG_clean_linker_0, # of connection points: 2
#     Edge 115, Type (0, 0), BuildingBlock: OJICUG_clean_linker_0, # of connection points: 2
#     Edge 116, Type (0, 0), BuildingBlock: OJICUG_clean_linker_0, # of connection points: 2
#     Edge 117, Type (0, 0), BuildingBlock: OJICUG_clean_linker_0, # of connection points: 2
#     Edge 118, Type (0, 0), BuildingBlock: OJICUG_clean_linker_0, # of connection points: 2
#     Edge 119, Type (0, 0), BuildingBlock: OJICUG_clean_linker_0, # of connection points: 2
#     Edge 120, Type (0, 0), BuildingBlock: OJICUG_clean_linker_0, # of connection points: 2
#     Edge 121, Type (0, 0), BuildingBlock: OJICUG_clean_linker_0, # of connection points: 2
#     Edge 122, Type (0, 0), BuildingBlock: OJICUG_clean_linker_0, # of connection points: 2
#     Edge 123, Type (0, 0), BuildingBlock: OJICUG_clean_linker_0, # of connection points: 2
#     Edge 124, Type (0, 0), BuildingBlock: OJICUG_clean_linker_0, # of connection points: 2
#     Edge 125, Type (0, 0), BuildingBlock: OJICUG_clean_linker_0, # of connection points: 2
#     Edge 126, Type (0, 0), BuildingBlock: OJICUG_clean_linker_0, # of connection points: 2
#     Edge 127, Type (0, 0), BuildingBlock: OJICUG_clean_linker_0, # of connection points: 2
# Relax obj value: 0.383
# Max RMSD: 0.283
# Mean RMSD: 0.254
data_MOF--net-wip--node1-KUMBOL_clean_sbu_1--edge1-OJICUG_clean_linker_0
_symmetry_space_group_name_H-M    P1
_symmetry_Int_Tables_number       1
_symmetry_cell_setting            triclinic
loop_
_symmetry_equiv_pos_as_xyz
'x, y, z'
_cell_length_a     50.439978
_cell_length_b     44.759223
_cell_length_c     26.793587
_cell_angle_alpha  74.712441
_cell_angle_beta   85.728256
_cell_angle_gamma 86.912578
loop_
_atom_site_label
_atom_site_type_symbol
_atom_site_fract_x
_atom_site_fract_y
_atom_site_fract_z
_atom_type_partial_charge
C0 C 0.06172 0.34765 0.14124 0.0
C1 C 0.01396 0.34307 0.15937 0.0
C2 C 0.03615 0.36049 0.13555 0.0
C3 C 0.01794 0.31294 0.19092 0.0
C4 C 0.06572 0.31734 0.17285 0.0
C5 C 0.04378 0.30017 0.1979 0.0
N6 N 0.08255 0.36446 0.11508 0.0
C7 C 0.10774 0.35168 0.11706 0.0
C8 C 0.09168 0.30507 0.17814 0.0
C9 C 0.11266 0.32227 0.15008 0.0
Gd10 Gd 0.10348 0.49126 0.10797 0.0
Gd11 Gd 0.07175 0.41632 0.07251 0.0
N12 N 0.03291 0.38972 0.1054 0.0
C13 C 0.98841 0.35634 0.15017 0.0
C14 C 0.00809 0.40225 0.09413 0.0
C15 C 0.98547 0.38596 0.11688 0.0
H16 H 0.00571 0.42487 0.06771 0.0
H17 H 0.96581 0.39622 0.10869 0.0
H18 H 0.16604 0.46798 0.07315 0.0
H19 H 0.12408 0.36488 0.09516 0.0
H20 H 0.20718 0.49275 0.03261 0.0
H21 H 0.97087 0.34374 0.16779 0.0
H22 H 0.00117 0.29925 0.20977 0.0
H23 H 0.05732 0.55029 0.09859 0.0
H24 H 0.09569 0.28195 0.20231 0.0
H25 H 0.13232 0.31198 0.15229 0.0
H26 H 0.1831 0.601 0.97922 0.0
H27 H 0.04657 0.27683 0.22222 0.0
H28 H 0.0932 0.63324 1.0099 0.0
H29 H 0.05413 0.60614 0.05861 0.0
N30 N 0.09726 0.54459 0.06979 0.0
C31 C 0.119 0.55899 0.04321 0.0
C32 C 0.07432 0.56129 0.07614 0.0
C33 C 0.09451 0.60836 0.02624 0.0
C34 C 0.07247 0.5932 0.05386 0.0
C35 C 0.11822 0.59139 0.02124 0.0
H36 H 0.14101 0.63086 0.9794 0.0
N37 N 0.14271 0.51026 0.06014 0.0
C38 C 0.14244 0.54155 0.03938 0.0
C39 C 0.18934 0.53878 1.01443 0.0
C40 C 0.16582 0.55659 1.0159 0.0
C41 C 0.16547 0.49269 0.05695 0.0
C42 C 0.18906 0.50669 0.03408 0.0
O43 O 0.04967 0.42659 0.14289 0.0
O44 O 0.07608 0.45956 0.17178 0.0
O45 O 0.13284 0.49922 0.15737 0.0
O46 O 0.09084 0.51274 0.16957 0.0
O47 O 0.04402 0.45549 0.07846 0.0
O48 O 0.06499 0.50158 0.0696 0.0
O49 O 0.09883 0.49654 0.02305 0.0
O50 O 0.10489 0.44556 0.02359 0.0
O51 O 0.05089 0.43333 0.99866 0.0
O52 O 0.07043 0.3875 0.01946 0.0
O53 O 0.12728 0.44644 0.11831 0.0
O54 O 0.10063 0.40561 0.14203 0.0
C55 C 0.05666 0.43939 0.17907 0.0
C56 C 0.04383 0.48515 0.07558 0.0
C57 C 0.12299 0.53624 0.20572 0.0
C58 C 0.13396 0.54901 0.28373 0.0
C59 C 0.13184 0.58932 0.2035 0.0
C60 C 0.12518 0.56739 0.17785 0.0
C61 C 0.13587 0.58026 0.2567 0.0
C62 C 0.12768 0.52732 0.25792 0.0
C63 C 0.115 0.51165 0.18439 0.0
C64 C 0.16518 0.58891 0.99558 0.0
C65 C 0.14128 0.60606 0.99655 0.0
H66 H 0.20785 0.54963 0.99867 0.0
C67 C 0.10108 0.47501 0.99768 0.0
C68 C 0.12044 0.42112 0.15294 0.0
C69 C 0.04819 0.39937 0.93719 0.0
C70 C 0.02021 0.40066 0.86199 0.0
C71 C 0.05878 0.36481 0.88155 0.0
C72 C 0.06417 0.37591 0.9231 0.0
C73 C 0.03746 0.37685 0.85173 0.0
C74 C 0.02601 0.41237 0.90557 0.0
C75 C 0.05553 0.40697 0.9867 0.0
H76 H 0.13357 0.61339 0.18244 0.0
H77 H 0.12158 0.57477 0.13713 0.0
H78 H 0.14034 0.59737 0.27658 0.0
H79 H 0.12546 0.50321 0.27934 0.0
H80 H 0.07156 0.34666 0.87187 0.0
H81 H 0.08118 0.36561 0.94469 0.0
H82 H 0.03497 0.36747 0.81914 0.0
H83 H 0.01317 0.43036 0.91559 0.0
C84 C 0.88349 0.6787 0.52735 0.0
C85 C 0.85191 0.63777 0.55794 0.0
C86 C 0.85836 0.66743 0.52651 0.0
C87 C 0.87085 0.61985 0.59001 0.0
C88 C 0.90299 0.65994 0.55697 0.0
C89 C 0.89643 0.63076 0.589 0.0
N90 N 0.88912 0.70765 0.49815 0.0
C91 C 0.91418 0.7184 0.49362 0.0
C92 C 0.92883 0.6706 0.55207 0.0
C93 C 0.93448 0.69999 0.5203 0.0
Gd94 Gd 0.81551 0.80421 0.47204 0.0
Gd95 Gd 0.85715 0.73255 0.44241 0.0
N96 N 0.84087 0.68474 0.49313 0.0
C97 C 0.82698 0.62643 0.55475 0.0
C98 C 0.81745 0.67252 0.48699 0.0
C99 C 0.80981 0.64374 0.51865 0.0
H100 H 0.80499 0.68397 0.45646 0.0
H101 H 0.79101 0.63448 0.51403 0.0
H102 H 0.86342 0.85296 0.41938 0.0
H103 H 0.91892 0.74045 0.46717 0.0
H104 H 0.86757 0.90408 0.35523 0.0
H105 H 0.8213 0.60378 0.57828 0.0
H106 H 0.86627 0.59693 0.61395 0.0
H107 H 0.74966 0.79133 0.49369 0.0
H108 H 0.94464 0.65581 0.57135 0.0
H109 H 0.95455 0.7082 0.51528 0.0
H110 H 0.77925 0.9298 0.29832 0.0
H111 H 0.91132 0.61611 0.61188 0.0
H112 H 0.70926 0.8635 0.38477 0.0
H113 H 0.70793 0.8159 0.45711 0.0
N114 N 0.77443 0.82375 0.44048 0.0
C115 C 0.7757 0.85028 0.40124 0.0
C116 C 0.75052 0.8118 0.46154 0.0
C117 C 0.7277 0.85252 0.40002 0.0
C118 C 0.72684 0.8257 0.44101 0.0
C119 C 0.75224 0.8655 0.38038 0.0
H120 H 0.73606 0.90575 0.32563 0.0
N121 N 0.82277 0.84933 0.40695 0.0
C122 C 0.8004 0.8637 0.38485 0.0
C123 C 0.82641 0.90711 0.33704 0.0
C124 C 0.8018 0.89286 0.34856 0.0
C125 C 0.84642 0.86386 0.3985 0.0
C126 C 0.84872 0.89274 0.36264 0.0
O127 O 0.852 0.73539 0.52607 0.0
O128 O 0.81023 0.75783 0.53262 0.0
O129 O 0.82811 0.81699 0.53929 0.0
O130 O 0.79348 0.83944 0.50049 0.0
O131 O 0.81446 0.73665 0.42429 0.0
O132 O 0.7923 0.76187 0.4812 0.0
O133 O 0.83359 0.80745 0.38888 0.0
O134 O 0.833 0.7597 0.37352 0.0
O135 O 0.86981 0.6936 0.41291 0.0
O136 O 0.89031 0.73704 0.38487 0.0
O137 O 0.85638 0.79784 0.49794 0.0
O138 O 0.87918 0.7761 0.43858 0.0
C139 C 0.82962 0.7384 0.5532 0.0
C140 C 0.79274 0.74506 0.44798 0.0
C141 C 0.79021 0.82706 0.58845 0.0
C142 C 0.77069 0.84143 0.6631 0.0
C143 C 0.75205 0.79994 0.6359 0.0
C144 C 0.77138 0.80404 0.59531 0.0
C145 C 0.75162 0.8186 0.66991 0.0
C146 C 0.79019 0.84551 0.62278 0.0
C147 C 0.80692 0.83468 0.54123 0.0
C148 C 0.77851 0.90747 0.32655 0.0
C149 C 0.75387 0.89377 0.34217 0.0
H150 H 0.82822 0.92965 0.30965 0.0
C151 C 0.82831 0.79005 0.358 0.0
C152 C 0.87854 0.78914 0.4772 0.0
C153 C 0.89177 0.70303 0.33158 0.0
C154 C 0.87257 0.69472 0.25699 0.0
C155 C 0.92057 0.69201 0.26216 0.0
C156 C 0.91735 0.69844 0.31029 0.0
C157 C 0.89827 0.69046 0.23541 0.0
C158 C 0.86934 0.70126 0.30503 0.0
C159 C 0.88882 0.70844 0.38245 0.0
H160 H 0.73728 0.78271 0.64032 0.0
H161 H 0.77112 0.78995 0.56827 0.0
H162 H 0.73639 0.81539 0.70146 0.0
H163 H 0.80447 0.86357 0.61706 0.0
H164 H 0.94032 0.68872 0.24523 0.0
H165 H 0.93474 0.69977 0.33094 0.0
H166 H 0.90129 0.6873 0.19716 0.0
H167 H 0.84953 0.70539 0.32124 0.0
C168 C 0.49712 0.64202 0.52725 0.0
C169 C 0.47755 0.69381 0.51313 0.0
C170 C 0.47498 0.66135 0.52941 0.0
C171 C 0.5019 0.70619 0.49011 0.0
C172 C 0.52211 0.65436 0.50769 0.0
C173 C 0.52412 0.68646 0.48704 0.0
N174 N 0.49483 0.61139 0.54953 0.0
C175 C 0.51682 0.59234 0.55889 0.0
C176 C 0.54458 0.63424 0.51244 0.0
C177 C 0.542 0.60316 0.53948 0.0
Gd178 Gd 0.40196 0.54099 0.51645 0.0
Gd179 Gd 0.45221 0.59341 0.57594 0.0
N180 N 0.4518 0.64856 0.55247 0.0
C181 C 0.45607 0.71288 0.52302 0.0
C182 C 0.43106 0.66738 0.5631 0.0
C183 C 0.43276 0.6996 0.54822 0.0
H184 H 0.41312 0.65808 0.58356 0.0
H185 H 0.41616 0.71419 0.55679 0.0
H186 H 0.43058 0.46884 0.54229 0.0
H187 H 0.51488 0.56917 0.58269 0.0
H188 H 0.41936 0.41608 0.59355 0.0
H189 H 0.4575 0.73786 0.51257 0.0
H190 H 0.50403 0.73103 0.47645 0.0
H191 H 0.34437 0.5804 0.49202 0.0
H192 H 0.56413 0.64279 0.49805 0.0
H193 H 0.5594 0.58773 0.54628 0.0
H194 H 0.32625 0.42435 0.63968 0.0
H195 H 0.54304 0.69636 0.47113 0.0
H196 H 0.28102 0.52169 0.56892 0.0
H197 H 0.29634 0.57224 0.51371 0.0
N198 N 0.35596 0.53516 0.53454 0.0
C199 C 0.34793 0.50683 0.56278 0.0
C200 C 0.33779 0.55835 0.5162 0.0
C201 C 0.30208 0.5252 0.55961 0.0
C202 C 0.31062 0.55377 0.52858 0.0
C203 C 0.32081 0.50114 0.57675 0.0
H204 H 0.29249 0.4667 0.61724 0.0
N205 N 0.39213 0.48865 0.5558 0.0
C206 C 0.36672 0.48286 0.57441 0.0
C207 C 0.37858 0.42866 0.60966 0.0
C208 C 0.35917 0.45268 0.60162 0.0
C209 C 0.41068 0.46476 0.55985 0.0
C210 C 0.40439 0.43467 0.58815 0.0
O211 O 0.4619 0.58895 0.49543 0.0
O212 O 0.41884 0.58747 0.47549 0.0
O213 O 0.42495 0.52332 0.4569 0.0
O214 O 0.38452 0.53982 0.44506 0.0
O215 O 0.41221 0.61292 0.54943 0.0
O216 O 0.38071 0.57669 0.5614 0.0
O217 O 0.41441 0.51955 0.59476 0.0
O218 O 0.4211 0.56114 0.62699 0.0
O219 O 0.46269 0.6084 0.64228 0.0
O220 O 0.46517 0.55867 0.64311 0.0
O221 O 0.44064 0.51871 0.55228 0.0
O222 O 0.47076 0.55695 0.53904 0.0
C223 C 0.44428 0.59047 0.46107 0.0
C224 C 0.3894 0.60238 0.57143 0.0
C225 C 0.39904 0.49658 0.41194 0.0
C226 C 0.4066 0.46111 0.35478 0.0
C227 C 0.37085 0.45251 0.42249 0.0
C228 C 0.37766 0.4785 0.43748 0.0
C229 C 0.38507 0.44395 0.38156 0.0
C230 C 0.41367 0.48767 0.37014 0.0
C231 C 0.40487 0.52508 0.42825 0.0
C232 C 0.33241 0.4473 0.61841 0.0
C233 C 0.31321 0.47144 0.60565 0.0
H234 H 0.37369 0.40528 0.63101 0.0
C235 C 0.41118 0.53377 0.63137 0.0
C236 C 0.46493 0.52771 0.55483 0.0
C237 C 0.47606 0.57178 0.72044 0.0
C238 C 0.47241 0.58063 0.80619 0.0
C239 C 0.50312 0.54054 0.78674 0.0
C240 C 0.49526 0.5481 0.73613 0.0
C241 C 0.49204 0.55683 0.8215 0.0
C242 C 0.46416 0.5873 0.75554 0.0
C243 C 0.46741 0.57963 0.66806 0.0
H244 H 0.35414 0.4391 0.44233 0.0
H245 H 0.36578 0.48473 0.4687 0.0
H246 H 0.37897 0.42398 0.37015 0.0
H247 H 0.42992 0.50152 0.34923 0.0
H248 H 0.51829 0.52253 0.79871 0.0
H249 H 0.50439 0.53585 0.70909 0.0
H250 H 0.49976 0.55143 0.85957 0.0
H251 H 0.44859 0.60469 0.74289 0.0
C252 C 0.63094 0.24856 0.87031 0.0
C253 C 0.58581 0.23072 0.88086 0.0
C254 C 0.61354 0.22421 0.88189 0.0
C255 C 0.57591 0.2614 0.87282 0.0
C256 C 0.62096 0.27959 0.85914 0.0
C257 C 0.59342 0.28579 0.86158 0.0
N258 N 0.65755 0.2421 0.87 0.0
C259 C 0.6752 0.26535 0.85807 0.0
C260 C 0.639 0.30355 0.8467 0.0
C261 C 0.66626 0.29638 0.84591 0.0
Gd262 Gd 0.72538 0.13677 0.81572 0.0
Gd263 Gd 0.67042 0.19013 0.90318 0.0
N264 N 0.62361 0.19447 0.89184 0.0
C265 C 0.56873 0.20633 0.88669 0.0
C266 C 0.60685 0.171 0.89305 0.0
C267 C 0.57938 0.1765 0.89136 0.0
H268 H 0.61385 0.14753 0.89598 0.0
H269 H 0.56641 0.15759 0.8938 0.0
H270 H 0.78474 0.17193 0.77936 0.0
H271 H 0.69609 0.25993 0.85998 0.0
H272 H 0.83141 0.16147 0.79942 0.0
H273 H 0.54738 0.21045 0.88567 0.0
H274 H 0.55468 0.26659 0.87381 0.0
H275 H 0.69744 0.06583 0.85134 0.0
H276 H 0.63208 0.3276 0.83803 0.0
H277 H 0.68038 0.3147 0.8372 0.0
H278 H 0.83455 0.05625 0.90111 0.0
H279 H 0.58542 0.30941 0.85412 0.0
H280 H 0.75317 0.00209 0.94038 0.0
H281 H 0.70737 0.01581 0.91321 0.0
N282 N 0.73534 0.08382 0.85491 0.0
C283 C 0.76068 0.07683 0.86957 0.0
C284 C 0.71711 0.06111 0.86578 0.0
C285 C 0.74857 0.02491 0.91572 0.0
C286 C 0.72284 0.03229 0.89953 0.0
C287 C 0.76815 0.04686 0.89895 0.0
H288 H 0.80087 0.01681 0.93303 0.0
N289 N 0.7716 0.12817 0.8265 0.0
C290 C 0.77947 0.09942 0.85388 0.0
C291 C 0.82511 0.1151 0.84607 0.0
C292 C 0.80641 0.09219 0.86474 0.0
C293 C 0.7902 0.14988 0.80507 0.0
C294 C 0.81699 0.14392 0.81548 0.0
O295 O 0.67688 0.20974 0.81675 0.0
O296 O 0.68564 0.16312 0.79449 0.0
O297 O 0.74312 0.15511 0.73815 0.0
O298 O 0.72297 0.1119 0.75602 0.0
O299 O 0.65938 0.14791 0.88156 0.0
O300 O 0.69265 0.11161 0.88101 0.0
O301 O 0.73818 0.13958 0.89041 0.0
O302 O 0.70115 0.15157 0.94308 0.0
O303 O 0.65907 0.18191 0.98553 0.0
O304 O 0.6885 0.21567 0.94868 0.0
O305 O 0.74335 0.18357 0.81675 0.0
O306 O 0.70758 0.18552 0.86188 0.0
C307 C 0.68105 0.19363 0.78152 0.0
C308 C 0.66957 0.12051 0.90226 0.0
C309 C 0.76023 0.11891 0.69281 0.0
C310 C 0.78968 0.1225 0.6135 0.0
C311 C 0.79736 0.08202 0.69244 0.0
C312 C 0.77552 0.09307 0.71837 0.0
C313 C 0.80438 0.09651 0.64067 0.0
C314 C 0.76739 0.13359 0.64011 0.0
C315 C 0.73771 0.13146 0.7215 0.0
C316 C 0.81394 0.06224 0.89292 0.0
C317 C 0.7948 0.03975 0.91074 0.0
H318 H 0.84592 0.11051 0.85389 0.0
C319 C 0.72461 0.13705 0.93488 0.0
C320 C 0.72971 0.19874 0.84574 0.0
C321 C 0.66345 0.22362 0.0216 0.0
C322 C 0.65505 0.23619 0.10418 0.0
C323 C 0.64002 0.2716 0.02539 0.0
C324 C 0.65064 0.25156 0.99699 0.0
C325 C 0.64216 0.26411 0.0787 0.0
C326 C 0.66556 0.21575 0.07548 0.0
C327 C 0.67477 0.20273 0.99139 0.0
H328 H 0.80887 0.06193 0.71254 0.0
H329 H 0.77063 0.08137 0.75852 0.0
H330 H 0.82103 0.08677 0.6215 0.0
H331 H 0.75577 0.1537 0.62015 0.0
H332 H 0.63025 0.29303 1.00564 0.0
H333 H 0.64892 0.25814 0.95587 0.0
H334 H 0.63326 0.27986 0.10025 0.0
H335 H 0.67515 0.19393 0.09487 0.0
C336 C 0.0409 0.64463 0.63211 0.0
C337 C 0.99272 0.64486 0.64303 0.0
C338 C 0.01778 0.62973 0.65331 0.0
C339 C 0.99127 0.67411 0.60763 0.0
C340 C 0.03934 0.67405 0.59648 0.0
C341 C 0.01445 0.68804 0.58268 0.0
N342 N 0.06477 0.63104 0.64787 0.0
C343 C 0.08754 0.64709 0.63275 0.0
C344 C 0.06279 0.68906 0.57706 0.0
C345 C 0.08669 0.67626 0.59673 0.0
Gd346 Gd 0.08964 0.49712 0.66823 0.0
Gd347 Gd 0.06301 0.57858 0.69568 0.0
N348 N 0.01983 0.60135 0.68679 0.0
C349 C 0.96994 0.63053 0.6697 0.0
C350 C 0.99775 0.58791 0.71483 0.0
C351 C 0.97251 0.60204 0.70617 0.0
H352 H -0.00055 0.56602 0.74374 0.0
H353 H 0.95508 0.59101 0.72777 0.0
H354 H 0.14353 0.5453 0.66308 0.0
H355 H 0.10638 0.63723 0.64731 0.0
H356 H 0.18693 0.54028 0.69591 0.0
H357 H 0.95038 0.64155 0.66343 0.0
H358 H 0.97242 0.68655 0.60019 0.0
H359 H 0.06326 0.42924 0.72186 0.0
H360 H 0.06279 0.71096 0.54784 0.0
H361 H 0.10404 0.68942 0.5827 0.0
H362 H 0.19364 0.43651 0.80099 0.0
H363 H 0.01288 0.71026 0.55447 0.0
H364 H 0.12022 0.37104 0.81567 0.0
H365 H 0.0771 0.37824 0.7756 0.0
N366 N 0.09906 0.45048 0.72783 0.0
C367 C 0.12358 0.4468 0.74658 0.0
C368 C 0.08211 0.42657 0.739 0.0
C369 C 0.11442 0.39357 0.79147 0.0
C370 C 0.08979 0.39765 0.7699 0.0
C371 C 0.13172 0.41821 0.77983 0.0
H372 H 0.1636 0.39295 0.82466 0.0
N373 N 0.13277 0.49858 0.69825 0.0
C374 C 0.14078 0.47139 0.73178 0.0
C375 C 0.18307 0.49274 0.73818 0.0
C376 C 0.16623 0.46779 0.75197 0.0
C377 C 0.14919 0.52317 0.68633 0.0
C378 C 0.17436 0.52057 0.70573 0.0
O379 O 0.04913 0.57355 0.61768 0.0
O380 O 0.06468 0.52624 0.60155 0.0
O381 O 0.11231 0.46344 0.63685 0.0
O382 O 0.06958 0.46775 0.63078 0.0
O383 O 0.03336 0.54631 0.68772 0.0
O384 O 0.05265 0.49916 0.71893 0.0
O385 O 0.07991 0.49811 0.75094 0.0
O386 O 0.09506 0.54622 0.74192 0.0
O387 O 0.04779 0.56036 0.77582 0.0
O388 O 0.06501 0.60607 0.75085 0.0
O389 O 0.10608 0.53873 0.61143 0.0
O390 O 0.10172 0.58332 0.64212 0.0
C391 C 0.05154 0.5536 0.58792 0.0
C392 C 0.03193 0.5164 0.70196 0.0
C393 C 0.09632 0.45075 0.56662 0.0
C394 C 0.11468 0.47037 0.47861 0.0
C395 C 0.10263 0.41651 0.50988 0.0
C396 C 0.09423 0.42154 0.55781 0.0
C397 C 0.11302 0.44075 0.47044 0.0
C398 C 0.10612 0.47536 0.52673 0.0
C399 C 0.09181 0.45411 0.61918 0.0
C400 C 0.17417 0.4395 0.78553 0.0
C401 C 0.15703 0.41475 0.79922 0.0
H402 H 0.20268 0.49091 0.75296 0.0
C403 C 0.09009 0.51798 0.7717 0.0
C404 C 0.10954 0.56835 0.60609 0.0
C405 C 0.03026 0.59817 0.81942 0.0
C406 C 0.00018 0.59238 0.89819 0.0
C407 C 0.00236 0.64175 0.83298 0.0
C408 C 0.0211 0.62919 0.80257 0.0
C409 C 0.99198 0.6236 0.88024 0.0
C410 C 0.01949 0.57962 0.86759 0.0
C411 C 0.05206 0.58598 0.78836 0.0
H412 H 0.10125 0.39378 0.50343 0.0
H413 H 0.08665 0.40247 0.58822 0.0
H414 H 0.11929 0.4365 0.43328 0.0
H415 H 0.10792 0.49796 0.53366 0.0
H416 H 0.99615 0.66592 0.82013 0.0
H417 H 0.02875 0.64407 0.76617 0.0
H418 H 0.9776 0.63407 0.90325 0.0
H419 H 0.02651 0.55576 0.88165 0.0
C420 C 0.62517 0.76337 0.94538 0.0
C421 C 0.58339 0.78894 0.96471 0.0
C422 C 0.60984 0.7908 0.94269 0.0
C423 C 0.57282 0.75997 0.98931 0.0
C424 C 0.61422 0.73423 0.96934 0.0
C425 C 0.58812 0.73276 0.99149 0.0
N426 N 0.65054 0.76493 0.92419 0.0
C427 C 0.66581 0.73864 0.92506 0.0
C428 C 0.6298 0.70723 0.97029 0.0
C429 C 0.65568 0.70947 0.94786 0.0
Gd430 Gd 0.72039 0.86331 0.94859 0.0
Gd431 Gd 0.66583 0.81482 0.89013 0.0
N432 N 0.62034 0.81893 0.91831 0.0
C433 C 0.56803 0.81625 0.96119 0.0
C434 C 0.60487 0.84558 0.91398 0.0
C435 C 0.57875 0.84457 0.93544 0.0
H436 H 0.61195 0.86812 0.89401 0.0
H437 H 0.56683 0.86579 0.932 0.0
H438 H 0.77623 0.81795 0.97055 0.0
H439 H 0.68607 0.73994 0.90935 0.0
H440 H 0.82247 0.81889 0.93393 0.0
H441 H 0.54773 0.81569 0.97773 0.0
H442 H 0.55262 0.75832 1.00645 0.0
H443 H 0.69597 0.93669 0.91892 0.0
H444 H 0.62201 0.68453 0.98824 0.0
H445 H 0.66793 0.68875 0.94855 0.0
H446 H 0.83059 0.92186 0.8245 0.0
H447 H 0.57951 0.71062 1.01023 0.0
H448 H 0.75526 0.99262 0.81949 0.0
H449 H 0.70909 0.98601 0.85716 0.0
N450 N 0.73349 0.9143 0.91034 0.0
C451 C 0.75894 0.91721 0.88936 0.0
C452 C 0.71616 0.93924 0.90218 0.0
C453 C 0.7496 0.9707 0.84573 0.0
C454 C 0.72362 0.96732 0.8679 0.0
C455 C 0.76775 0.94551 0.85668 0.0
H456 H 0.80083 0.96859 0.80779 0.0
N457 N 0.76675 0.86474 0.93046 0.0
C458 C 0.77608 0.89155 0.89972 0.0
C459 C 0.81914 0.86654 0.88961 0.0
C460 C 0.8024 0.89312 0.87772 0.0
C461 C 0.78341 0.83917 0.94477 0.0
C462 C 0.80969 0.83955 0.92404 0.0
O463 O 0.6748 0.79888 0.97374 0.0
O464 O 0.67963 0.84754 0.98073 0.0
O465 O 0.73656 0.83608 0.0225 0.0
O466 O 0.71844 0.88117 1.01697 0.0
O467 O 0.65716 0.86248 0.89702 0.0
O468 O 0.69302 0.89173 0.87837 0.0
O469 O 0.73709 0.8473 0.8824 0.0
O470 O 0.70084 0.84122 0.83787 0.0
O471 O 0.68023 0.82427 0.81009 0.0
O472 O 0.64743 0.79357 0.83742 0.0
O473 O 0.7337 0.81615 0.93321 0.0
O474 O 0.69769 0.78595 0.93493 0.0
C475 C 0.67633 0.81805 1.00264 0.0
C476 C 0.66924 0.88511 0.86426 0.0
C477 C 0.75293 0.86573 0.07846 0.0
C478 C 0.77951 0.85653 0.15846 0.0
C479 C 0.77443 0.9081 0.09796 0.0
C480 C 0.7605 0.89663 0.06496 0.0
C481 C 0.78261 0.88899 0.14438 0.0
C482 C 0.76329 0.84512 0.12513 0.0
C483 C 0.73181 0.85792 0.04616 0.0
C484 C 0.81096 0.92088 0.8438 0.0
C485 C 0.79386 0.94722 0.83389 0.0
H486 H 0.83939 0.86671 0.87289 0.0
C487 C 0.72519 0.85111 0.83964 0.0
C488 C 0.72306 0.79051 0.92927 0.0
C489 C 0.67683 0.78549 0.76865 0.0
C490 C 0.68223 0.77201 0.68688 0.0
C491 C 0.70663 0.7427 0.75934 0.0
C492 C 0.69479 0.76134 0.78973 0.0
C493 C 0.69989 0.7475 0.70827 0.0
C494 C 0.67154 0.79163 0.71671 0.0
C495 C 0.66423 0.80561 0.79889 0.0
H496 H 0.7782 0.93259 0.08807 0.0
H497 H 0.75417 0.91288 0.02986 0.0
H498 H 0.79106 0.90078 0.16925 0.0
H499 H 0.75835 0.82094 0.13551 0.0
H500 H 0.72051 0.72409 0.77571 0.0
H501 H 0.69971 0.75707 0.82928 0.0
H502 H 0.70791 0.73184 0.68579 0.0
H503 H 0.65792 0.8107 0.70045 0.0
C504 C 0.53178 0.3269 0.07979 0.0
C505 C 0.57231 0.35573 0.05781 0.0
C506 C 0.54549 0.35357 0.07729 0.0
C507 C 0.58523 0.33075 0.04256 0.0
C508 C 0.5451 0.30138 0.06638 0.0
C509 C 0.57182 0.30344 0.04767 0.0
N510 N 0.50579 0.32533 0.09748 0.0
C511 C 0.49224 0.29883 0.10445 0.0
C512 C 0.53144 0.27408 0.07379 0.0
C513 C 0.50486 0.27275 0.0927 0.0
Gd514 Gd 0.43962 0.42939 0.05488 0.0
Gd515 Gd 0.4895 0.36519 0.13289 0.0
N516 N 0.53311 0.37659 0.09608 0.0
C517 C 0.58576 0.38254 0.05581 0.0
C518 C 0.54694 0.40181 0.0974 0.0
C519 C 0.57303 0.40563 0.07584 0.0
H520 H 0.53882 0.41865 0.1167 0.0
H521 H 0.58362 0.42593 0.07639 0.0
H522 H 0.3905 0.38041 0.10061 0.0
H523 H 0.47214 0.29725 0.12163 0.0
H524 H 0.34413 0.3829 0.13722 0.0
H525 H 0.60627 0.38516 0.04059 0.0
H526 H 0.60585 0.3322 0.02812 0.0
H527 H 0.46332 0.50125 0.0317 0.0
H528 H 0.54165 0.25386 0.06608 0.0
H529 H 0.49431 0.25148 0.09944 0.0
H530 H 0.33002 0.48898 0.14278 0.0
H531 H 0.58226 0.28395 0.03726 0.0
H532 H 0.40143 0.55841 0.08107 0.0
H533 H 0.4469 0.55239 0.04263 0.0
N534 N 0.42806 0.47842 0.06671 0.0
C535 C 0.40271 0.48131 0.0867 0.0
C536 C 0.44375 0.50354 0.04999 0.0
C537 C 0.40866 0.53586 0.07713 0.0
C538 C 0.43438 0.53255 0.05551 0.0
C539 C 0.39239 0.51018 0.09255 0.0
H540 H 0.35787 0.53464 0.11778 0.0
N541 N 0.39739 0.42743 0.09642 0.0
C542 C 0.38679 0.45536 0.10068 0.0
C543 C 0.3451 0.43138 0.13482 0.0
C544 C 0.36042 0.45789 0.121 0.0
C545 C 0.38222 0.40188 0.10726 0.0
C546 C 0.356 0.40332 0.12757 0.0
O547 O 0.49008 0.37285 0.04636 0.0
O548 O 0.4818 0.42516 0.01953 0.0
O549 O 0.42107 0.4187 0.99179 0.0
O550 O 0.42581 0.46659 0.9927 0.0
O551 O 0.49331 0.4137 0.14101 0.0
O552 O 0.48009 0.44469 0.06282 0.0
O553 O 0.4292 0.4133 0.14249 0.0
O554 O 0.46769 0.39395 0.18349 0.0
O555 O 0.51977 0.34337 0.18376 0.0
O556 O 0.47965 0.32602 0.19806 0.0
O557 O 0.4384 0.38237 0.04259 0.0
O558 O 0.44882 0.34971 0.12052 0.0
C559 C 0.49376 0.39949 1.01249 0.0
C560 C 0.49068 0.44082 0.10718 0.0
C561 C 0.43042 0.45509 0.91405 0.0
C562 C 0.4234 0.47025 0.82382 0.0
C563 C 0.46785 0.47043 0.8522 0.0
C564 C 0.45761 0.46063 0.90321 0.0
C565 C 0.45064 0.47579 0.81241 0.0
C566 C 0.41331 0.45954 0.87448 0.0
C567 C 0.41925 0.44784 0.96649 0.0
C568 C 0.35023 0.48662 0.12713 0.0
C569 C 0.36614 0.51264 0.11299 0.0
H570 H 0.32476 0.43238 0.15063 0.0
C571 C 0.44386 0.40803 0.18304 0.0
C572 C 0.43925 0.35483 0.07453 0.0
C573 C 0.50714 0.31607 0.26836 0.0
C574 C 0.52273 0.32952 0.34264 0.0
C575 C 0.50299 0.27965 0.35266 0.0
C576 C 0.49933 0.28732 0.2998 0.0
C577 C 0.51441 0.30067 0.37416 0.0
C578 C 0.51906 0.33703 0.28958 0.0
C579 C 0.5039 0.32306 0.21312 0.0
H580 H 0.48868 0.47541 0.84367 0.0
H581 H 0.47044 0.45894 0.93419 0.0
H582 H 0.45813 0.48621 0.77316 0.0
H583 H 0.39208 0.45665 0.8831 0.0
H584 H 0.49684 0.25746 0.37706 0.0
H585 H 0.49051 0.2708 0.28337 0.0
H586 H 0.51611 0.29454 0.4157 0.0
H587 H 0.5252 0.35926 0.26503 0.0
C588 C 0.89132 0.2537 0.21824 0.0
C589 C 0.87427 0.30715 0.20211 0.0
C590 C 0.8711 0.27513 0.22502 0.0
C591 C 0.89772 0.31733 0.17238 0.0
C592 C 0.91494 0.26415 0.18843 0.0
C593 C 0.91793 0.29592 0.16544 0.0
N594 N 0.88859 0.22304 0.24258 0.0
C595 C 0.90899 0.20203 0.24003 0.0
C596 C 0.93533 0.24247 0.18377 0.0
C597 C 0.93234 0.21134 0.2096 0.0
Gd598 Gd 0.78917 0.16205 0.28509 0.0
Gd599 Gd 0.8502 0.21135 0.29802 0.0
N600 N 0.84898 0.26494 0.25582 0.0
C601 C 0.85414 0.32822 0.21106 0.0
C602 C 0.82988 0.28582 0.26665 0.0
C603 C 0.8319 0.31751 0.24353 0.0
H604 H 0.81311 0.27819 0.29342 0.0
H605 H 0.81655 0.33373 0.25172 0.0
H606 H 0.83229 0.10326 0.3468 0.0
H607 H 0.90732 0.17812 0.26205 0.0
H608 H 0.82737 0.05041 0.40109 0.0
H609 H 0.8559 0.3529 0.19426 0.0
H610 H 0.90069 0.3418 0.15539 0.0
H611 H 0.73128 0.20081 0.30442 0.0
H612 H 0.9537 0.24961 0.16113 0.0
H613 H 0.94827 0.1947 0.20656 0.0
H614 H 0.73308 0.0406 0.43615 0.0
H615 H 0.93605 0.30425 0.1429 0.0
H616 H 0.67799 0.13322 0.39268 0.0
H617 H 0.68688 0.18761 0.34624 0.0
N618 N 0.7487 0.15607 0.33487 0.0
C619 C 0.74455 0.1264 0.36221 0.0
C620 C 0.72849 0.1781 0.32987 0.0
C621 C 0.698 0.13948 0.37741 0.0
C622 C 0.70296 0.17025 0.35162 0.0
C623 C 0.71889 0.11714 0.38284 0.0
H624 H 0.69492 0.07786 0.41944 0.0
N625 N 0.79054 0.1145 0.3482 0.0
C626 C 0.76602 0.10507 0.36916 0.0
C627 C 0.78463 0.05435 0.40952 0.0
C628 C 0.7623 0.07435 0.39861 0.0
C629 C 0.81255 0.09551 0.3604 0.0
C630 C 0.8099 0.06531 0.39157 0.0
O631 O 0.82508 0.23445 0.23366 0.0
O632 O 0.8074 0.19363 0.21158 0.0
O633 O 0.78131 0.12845 0.24382 0.0
O634 O 0.75303 0.16653 0.24614 0.0
O635 O 0.81073 0.22116 0.33468 0.0
O636 O 0.78028 0.21232 0.28129 0.0
O637 O 0.79377 0.16435 0.36485 0.0
O638 O 0.83906 0.16812 0.36513 0.0
O639 O 0.85488 0.24132 0.3453 0.0
O640 O 0.88642 0.20563 0.34255 0.0
O641 O 0.82956 0.1407 0.26866 0.0
O642 O 0.85901 0.18009 0.24139 0.0
C643 C 0.81614 0.22194 0.1999 0.0
C644 C 0.78704 0.22548 0.31648 0.0
C645 C 0.76237 0.15514 0.16821 0.0
C646 C 0.772 0.14171 0.08845 0.0
C647 C 0.76209 0.19552 0.08788 0.0
C648 C 0.75864 0.18656 0.14152 0.0
C649 C 0.7689 0.17322 0.06108 0.0
C650 C 0.76964 0.1331 0.14176 0.0
C651 C 0.76074 0.14502 0.22376 0.0
C652 C 0.73648 0.06455 0.41581 0.0
C653 C 0.7148 0.08581 0.40707 0.0
H654 H 0.78262 0.03066 0.43261 0.0
C655 C 0.8152 0.16234 0.39002 0.0
C656 C 0.8495 0.15368 0.23764 0.0
C657 C 0.89048 0.24174 0.3965 0.0
C658 C 0.88369 0.26541 0.46838 0.0
C659 C 0.92708 0.26575 0.42229 0.0
C660 C 0.91709 0.2498 0.3898 0.0
C661 C 0.91065 0.27308 0.46202 0.0
C662 C 0.87378 0.25039 0.43455 0.0
C663 C 0.87845 0.2303 0.35792 0.0
H664 H 0.7591 0.21959 0.06742 0.0
H665 H 0.75345 0.20423 0.16183 0.0
H666 H 0.7698 0.18023 0.01912 0.0
H667 H 0.77157 0.10876 0.16246 0.0
H668 H 0.9475 0.2727 0.41651 0.0
H669 H 0.92958 0.24514 0.35791 0.0
H670 H 0.91922 0.28422 0.48802 0.0
H671 H 0.85277 0.24572 0.43719 0.0
C672 C 0.87764 0.43125 0.23538 0.0
C673 C 0.83062 0.43631 0.25963 0.0
C674 C 0.85476 0.44996 0.2375 0.0
C675 C 0.82982 0.40405 0.27957 0.0
C676 C 0.87703 0.39891 0.25756 0.0
C677 C 0.85307 0.38553 0.28015 0.0
N678 N 0.90016 0.44434 0.21004 0.0
C679 C 0.92264 0.42651 0.20548 0.0
C680 C 0.90025 0.38072 0.25447 0.0
C681 C 0.92317 0.39462 0.22829 0.0
Gd682 Gd 0.92827 0.57224 0.20359 0.0
Gd683 Gd 0.8959 0.49741 0.16948 0.0
N684 N 0.85577 0.48116 0.21635 0.0
C685 C 0.80777 0.45541 0.26005 0.0
C686 C 0.83368 0.49997 0.21858 0.0
C687 C 0.80944 0.48737 0.24048 0.0
H688 H 0.83408 0.52465 0.20257 0.0
H689 H 0.79189 0.50231 0.24123 0.0
H690 H 0.99436 0.56419 0.20623 0.0
H691 H 0.94022 0.43661 0.18379 0.0
H692 H 0.0339 0.59347 0.16478 0.0
H693 H 0.7887 0.44578 0.27524 0.0
H694 H 0.81119 0.39316 0.2942 0.0
H695 H 0.87535 0.62277 0.18065 0.0
H696 H 0.90052 0.35585 0.27106 0.0
H697 H 0.94111 0.38072 0.22476 0.0
H698 H 0.99741 0.68983 0.06382 0.0
H699 H 0.85216 0.36075 0.29689 0.0
H700 H 0.90275 0.70591 0.07264 0.0
H701 H 0.86639 0.6752 0.12261 0.0
N702 N 0.91685 0.6238 0.16044 0.0
C703 C 0.93747 0.64082 0.13383 0.0
C704 C 0.89152 0.63621 0.15861 0.0
C705 C 0.90702 0.68294 0.09708 0.0
C706 C 0.88624 0.66544 0.12531 0.0
C707 C 0.93311 0.67103 0.10209 0.0
H708 H 0.95179 0.71166 0.05203 0.0
N709 N 0.96677 0.59912 0.16931 0.0
C710 C 0.96317 0.62828 0.1391 0.0
C711 C 0.01083 0.63303 0.12364 0.0
C712 C 0.98514 0.64594 0.11476 0.0
C713 C 0.99172 0.58687 0.18007 0.0
C714 C 0.01413 0.60347 0.15695 0.0
O715 O 0.90082 0.4925 0.2546 0.0
O716 O 0.895 0.54362 0.25328 0.0
O717 O 0.94961 0.55607 0.27711 0.0
O718 O 0.92995 0.60174 0.25544 0.0
O719 O 0.87297 0.54283 0.15619 0.0
O720 O 0.9002 0.58306 0.13256 0.0
O721 O 0.9508 0.5605 0.13493 0.0
O722 O 0.92377 0.52826 0.1058 0.0
O723 O 0.86701 0.48784 0.12048 0.0
O724 O 0.90908 0.47537 0.10856 0.0
O725 O 0.95558 0.53229 0.19973 0.0
O726 O 0.93401 0.48647 0.20913 0.0
C727 C 0.89869 0.51423 0.27968 0.0
C728 C 0.88039 0.56773 0.12121 0.0
C729 C 0.95282 0.591 0.33694 0.0
C730 C 0.9813 0.5906 0.4111 0.0
C731 C 0.94383 0.62781 0.38907 0.0
C732 C 0.93764 0.61554 0.34931 0.0
C733 C 0.96517 0.61592 0.4188 0.0
C734 C 0.97476 0.57779 0.36914 0.0
C735 C 0.94504 0.58265 0.28829 0.0
C736 C 0.98081 0.67597 0.08309 0.0
C737 C 0.95484 0.68841 0.0765 0.0
H738 H 0.0282 0.64588 0.10572 0.0
C739 C 0.94363 0.54779 0.09883 0.0
C740 C 0.9554 0.50249 0.20368 0.0
C741 C 0.87754 0.45031 0.07328 0.0
C742 C 0.86685 0.43489 0.99719 0.0
C743 C 0.86874 0.3966 0.07965 0.0
C744 C 0.87533 0.41955 0.10313 0.0
C745 C 0.86476 0.40415 0.02654 0.0
C746 C 0.87295 0.45778 0.02081 0.0
C747 C 0.88505 0.47574 0.09346 0.0
H748 H 0.9317 0.64679 0.39748 0.0
H749 H 0.92067 0.62585 0.32762 0.0
H750 H 0.96833 0.62652 0.44964 0.0
H751 H 0.98684 0.55875 0.36081 0.0
H752 H 0.86698 0.37288 0.10231 0.0
H753 H 0.87878 0.41322 0.14388 0.0
H754 H 0.86021 0.38622 1.00846 0.0
H755 H 0.87484 0.48157 0.99765 0.0
C756 C 0.22336 0.13858 0.87293 0.0
C757 C 0.19775 0.09657 0.92876 0.0
C758 C 0.19878 0.1254 0.89149 0.0
C759 C 0.22136 0.08207 0.94944 0.0
C760 C 0.24711 0.12349 0.89255 0.0
C761 C 0.24591 0.09555 0.93162 0.0
N762 N 0.22416 0.16476 0.83297 0.0
C763 C 0.24781 0.17658 0.81011 0.0
C764 C 0.27145 0.1363 0.87094 0.0
C765 C 0.2718 0.16282 0.82934 0.0
Gd766 Gd 0.14124 0.25623 0.83298 0.0
Gd767 Gd 0.18266 0.18427 0.80397 0.0
N768 N 0.1761 0.1396 0.8705 0.0
C769 C 0.17313 0.0825 0.94253 0.0
C770 C 0.15243 0.12508 0.88091 0.0
C771 C 0.15046 0.0966 0.91796 0.0
H772 H 0.13513 0.13575 0.86083 0.0
H773 H 0.13157 0.08537 0.92709 0.0
H774 H 0.19359 0.30514 0.80899 0.0
H775 H 0.24821 0.19677 0.7774 0.0
H776 H 0.20527 0.35495 0.74944 0.0
H777 H 0.17158 0.06025 0.97083 0.0
H778 H 0.22092 0.05998 0.97834 0.0
H779 H 0.0792 0.24503 0.81255 0.0
H780 H 0.29011 0.12543 0.88521 0.0
H781 H 0.29054 0.17248 0.81177 0.0
H782 H 0.12672 0.38928 0.65753 0.0
H783 H 0.26396 0.08365 0.94717 0.0
H784 H 0.05044 0.32668 0.70607 0.0
H785 H 0.04263 0.27455 0.76383 0.0
N786 N 0.10801 0.27864 0.77845 0.0
C787 C 0.11266 0.30749 0.74768 0.0
C788 C 0.08328 0.2668 0.78474 0.0
C789 C 0.06689 0.31307 0.72507 0.0
C790 C 0.06236 0.28374 0.75792 0.0
C791 C 0.09232 0.32508 0.71887 0.0
H792 H 0.08196 0.36823 0.66475 0.0
N793 N 0.1561 0.30355 0.77825 0.0
C794 C 0.13759 0.31988 0.74619 0.0
C795 C 0.16788 0.36172 0.71348 0.0
C796 C 0.14297 0.34947 0.71324 0.0
C797 C 0.17984 0.31631 0.78066 0.0
C798 C 0.18631 0.34515 0.74761 0.0
O799 O 0.16532 0.18164 0.8874 0.0
O800 O 0.16565 0.22976 0.90154 0.0
O801 O 0.13033 0.29592 0.86203 0.0
O802 O 0.10815 0.25366 0.88999 0.0
O803 O 0.14159 0.19068 0.77949 0.0
O804 O 0.11946 0.21197 0.84008 0.0
O805 O 0.14631 0.25235 0.74996 0.0
O806 O 0.18825 0.23065 0.74349 0.0
O807 O 0.16896 0.17155 0.7375 0.0
O808 O 0.20353 0.14831 0.77535 0.0
O809 O 0.18414 0.2529 0.85009 0.0
O810 O 0.20608 0.22657 0.79438 0.0
C811 C 0.17058 0.19953 0.91751 0.0
C812 C 0.11964 0.19847 0.80205 0.0
C813 C 0.10837 0.28707 0.94373 0.0
C814 C 0.12775 0.29241 0.02026 0.0
C815 C 0.07973 0.29585 1.01505 0.0
C816 C 0.08285 0.29149 0.96549 0.0
C817 C 0.10206 0.29578 0.04259 0.0
C818 C 0.13091 0.28765 0.97087 0.0
C819 C 0.11089 0.28203 0.89255 0.0
C820 C 0.12304 0.36639 0.68255 0.0
C821 C 0.09766 0.35442 0.68621 0.0
H822 H 0.17274 0.38437 0.68877 0.0
C823 C 0.16892 0.2502 0.72312 0.0
C824 C 0.2058 0.2437 0.82717 0.0
C825 C 0.20613 0.16048 0.68751 0.0
C826 C 0.22743 0.1448 0.61514 0.0
C827 C 0.24303 0.18916 0.63868 0.0
C828 C 0.22357 0.18496 0.67881 0.0
C829 C 0.24504 0.16929 0.60657 0.0
C830 C 0.20781 0.14046 0.65542 0.0
C831 C 0.18968 0.15321 0.7351 0.0
H832 H 0.06002 0.29871 0.03249 0.0
H833 H 0.06541 0.29124 0.94432 0.0
H834 H 0.0991 0.29726 0.08179 0.0
H835 H 0.15068 0.28401 0.95406 0.0
H836 H 0.25675 0.20736 0.63357 0.0
H837 H 0.22299 0.19993 0.70456 0.0
H838 H 0.26034 0.17293 0.57513 0.0
H839 H 0.19476 0.12111 0.66281 0.0
C840 C 0.64749 0.48519 0.70833 0.0
C841 C 0.63677 0.53842 0.66252 0.0
C842 C 0.62911 0.50955 0.69506 0.0
C843 C 0.66315 0.54195 0.64181 0.0
C844 C 0.67432 0.48914 0.69004 0.0
C845 C 0.68195 0.51744 0.6558 0.0
N846 N 0.63925 0.45794 0.74042 0.0
C847 C 0.65714 0.4344 0.75889 0.0
C848 C 0.69266 0.46462 0.70709 0.0
C849 C 0.6841 0.4373 0.74224 0.0
Gd850 Gd 0.54307 0.39411 0.70656 0.0
Gd851 Gd 0.59303 0.45382 0.75756 0.0
N852 N 0.60374 0.5051 0.71489 0.0
C853 C 0.61771 0.56284 0.65215 0.0
C854 C 0.58536 0.52922 0.70721 0.0
C855 C 0.59199 0.55834 0.67533 0.0
H856 H 0.56533 0.5259 0.7245 0.0
H857 H 0.5772 0.57717 0.66829 0.0
H858 H 0.58525 0.33128 0.71288 0.0
H859 H 0.65038 0.41304 0.78518 0.0
H860 H 0.58379 0.27471 0.74441 0.0
H861 H 0.62277 0.58535 0.62717 0.0
H862 H 0.6693 0.56364 0.61559 0.0
H863 H 0.48041 0.41765 0.69492 0.0
H864 H 0.7135 0.4667 0.69402 0.0
H865 H 0.69822 0.41842 0.7562 0.0
H866 H 0.49261 0.25571 0.80328 0.0
H867 H 0.70238 0.52074 0.64045 0.0
H868 H 0.43044 0.34224 0.76654 0.0
H869 H 0.43545 0.39775 0.72154 0.0
N870 N 0.50032 0.3755 0.72863 0.0
C871 C 0.49813 0.34479 0.75035 0.0
C872 C 0.47829 0.3942 0.71696 0.0
C873 C 0.45016 0.35132 0.75617 0.0
C874 C 0.45287 0.38265 0.73103 0.0
C875 C 0.47293 0.33179 0.76507 0.0
H876 H 0.45209 0.28927 0.7978 0.0
N877 N 0.54463 0.33939 0.73534 0.0
C878 C 0.52099 0.32606 0.75362 0.0
C879 C 0.54215 0.27504 0.76873 0.0
C880 C 0.51917 0.29358 0.77139 0.0
C881 C 0.56686 0.32123 0.73073 0.0
C882 C 0.56602 0.28892 0.74773 0.0
O883 O 0.58521 0.47277 0.67532 0.0
O884 O 0.56796 0.43119 0.65242 0.0
O885 O 0.54377 0.37663 0.63809 0.0
O886 O 0.52627 0.42272 0.63848 0.0
O887 O 0.55381 0.47343 0.72221 0.0
O888 O 0.52512 0.4333 0.73734 0.0
O889 O 0.53347 0.39901 0.78703 0.0
O890 O 0.57616 0.40764 0.80145 0.0
O891 O 0.5724 0.47857 0.80982 0.0
O892 O 0.6088 0.45261 0.83178 0.0
O893 O 0.58491 0.38112 0.72905 0.0
O894 O 0.61448 0.41965 0.71193 0.0
C895 C 0.58064 0.45739 0.64183 0.0
C896 C 0.53063 0.46245 0.71738 0.0
C897 C 0.51615 0.40229 0.57015 0.0
C898 C 0.51459 0.3991 0.4818 0.0
C899 C 0.47427 0.41103 0.52951 0.0
C900 C 0.48873 0.40915 0.57262 0.0
C901 C 0.48701 0.4059 0.48442 0.0
C902 C 0.52904 0.39777 0.52478 0.0
C903 C 0.53269 0.4026 0.6118 0.0
C904 C 0.49431 0.28058 0.78893 0.0
C905 C 0.47123 0.29967 0.78583 0.0
H906 H 0.54157 0.25 0.78166 0.0
C907 C 0.55096 0.40387 0.81782 0.0
C908 C 0.606 0.39397 0.70244 0.0
C909 C 0.59885 0.49718 0.86465 0.0
C910 C 0.59347 0.53004 0.92629 0.0
C911 C 0.63158 0.53532 0.86352 0.0
C912 C 0.62249 0.51211 0.84381 0.0
C913 C 0.61728 0.54415 0.90422 0.0
C914 C 0.58409 0.50647 0.90597 0.0
C915 C 0.59026 0.47149 0.84409 0.0
H916 H 0.45313 0.41615 0.53091 0.0
H917 H 0.47862 0.41342 0.6072 0.0
H918 H 0.47503 0.40612 0.45242 0.0
H919 H 0.55039 0.39305 0.5231 0.0
H920 H 0.64997 0.54646 0.84735 0.0
H921 H 0.63414 0.50562 0.81242 0.0
H922 H 0.62486 0.56221 0.91874 0.0
H923 H 0.56592 0.495 0.92285 0.0
C924 C 0.2407 0.90998 0.4077 0.0
C925 C 0.19751 0.8874 0.41267 0.0
C926 C 0.22466 0.88451 0.42332 0.0
C927 C 0.18689 0.91605 0.38474 0.0
C928 C 0.23 0.93885 0.37986 0.0
C929 C 0.20312 0.94167 0.36813 0.0
N930 N 0.26661 0.90663 0.42007 0.0
C931 C 0.28236 0.93173 0.40822 0.0
C932 C 0.24678 0.9639 0.36376 0.0
C933 C 0.27314 0.96013 0.37744 0.0
Gd934 Gd 0.34264 0.80913 0.3734 0.0
Gd935 Gd 0.28195 0.85523 0.45646 0.0
N936 N 0.23564 0.85689 0.44906 0.0
C937 C 0.18183 0.86137 0.4305 0.0
C938 C 0.22018 0.83178 0.46853 0.0
C939 C 0.19316 0.83355 0.45906 0.0
H940 H 0.22863 0.81019 0.49103 0.0
H941 H 0.18111 0.81341 0.47366 0.0
H942 H 0.39069 0.85406 0.40565 0.0
H943 H 0.30264 0.92936 0.41968 0.0
H944 H 0.43794 0.84917 0.41677 0.0
H945 H 0.16092 0.86262 0.42298 0.0
H946 H 0.16614 0.91866 0.37586 0.0
H947 H 0.32446 0.73659 0.38087 0.0
H948 H 0.23962 0.98619 0.3408 0.0
H949 H 0.28653 0.97894 0.36338 0.0
H950 H 0.46224 0.7453 0.4127 0.0
H951 H 0.19466 0.96362 0.34646 0.0
H952 H 0.39366 0.67711 0.40656 0.0
H953 H 0.34553 0.68474 0.39348 0.0
N954 N 0.35948 0.75809 0.39108 0.0
C955 C 0.38591 0.75449 0.39883 0.0
C956 C 0.34507 0.73356 0.38887 0.0
C957 C 0.38425 0.6999 0.40259 0.0
C958 C 0.3571 0.70407 0.39529 0.0
C959 C 0.39906 0.72525 0.40378 0.0
H960 H 0.43708 0.70013 0.41147 0.0
N961 N 0.38719 0.80836 0.39607 0.0
C962 C 0.40013 0.78021 0.4005 0.0
C963 C 0.44148 0.80196 0.41192 0.0
C964 C 0.42775 0.77666 0.40718 0.0
C965 C 0.40044 0.83252 0.40387 0.0
C966 C 0.42764 0.82975 0.41137 0.0
O967 O 0.26588 0.84863 0.38696 0.0
O968 O 0.30349 0.83169 0.34341 0.0
O969 O 0.36275 0.79313 0.3098 0.0
O970 O 0.33511 0.83188 0.293 0.0
O971 O 0.27305 0.80626 0.45042 0.0
O972 O 0.30565 0.78327 0.40164 0.0
O973 O 0.33421 0.7868 0.4571 0.0
O974 O 0.32208 0.8328 0.47396 0.0
O975 O 0.26801 0.83287 0.53634 0.0
O976 O 0.28244 0.87916 0.51774 0.0
O977 O 0.34706 0.85348 0.39315 0.0
O978 O 0.30937 0.88349 0.38592 0.0
C979 C 0.27908 0.84397 0.34584 0.0
C980 C 0.28259 0.78413 0.4281 0.0
C981 C 0.33433 0.79568 0.24313 0.0
C982 C 0.33052 0.78214 0.16095 0.0
C983 C 0.30569 0.75454 0.23988 0.0
C984 C 0.31648 0.77266 0.26768 0.0
C985 C 0.31313 0.7586 0.18743 0.0
C986 C 0.33988 0.80167 0.18931 0.0
C987 C 0.34871 0.81131 0.27467 0.0
C988 C 0.44093 0.74799 0.40927 0.0
C989 C 0.42661 0.72227 0.40847 0.0
H990 H 0.46264 0.80003 0.41739 0.0
C991 C 0.32557 0.80263 0.49008 0.0
C992 C 0.33409 0.87798 0.36825 0.0
C993 C 0.24672 0.86687 0.5839 0.0
C994 C 0.21825 0.86263 0.66518 0.0
C995 C 0.20661 0.89964 0.58492 0.0
C996 C 0.229 0.89022 0.55838 0.0
C997 C 0.20124 0.88597 0.63753 0.0
C998 C 0.24133 0.85313 0.63811 0.0
C999 C 0.27041 0.85731 0.55324 0.0
H1000 H 0.29227 0.73645 0.25954 0.0
H1001 H 0.31088 0.76872 0.30845 0.0
H1002 H 0.30587 0.74231 0.16868 0.0
H1003 H 0.35231 0.82084 0.17044 0.0
H1004 H 0.19331 0.91781 0.56454 0.0
H1005 H 0.23251 0.90147 0.51764 0.0
H1006 H 0.18378 0.89403 0.65705 0.0
H1007 H 0.25476 0.83519 0.6588 0.0
C1008 C 0.88038 0.54751 0.52822 0.0
C1009 C 0.83537 0.5325 0.52326 0.0
C1010 C 0.86064 0.52554 0.54396 0.0
C1011 C 0.83061 0.56058 0.48605 0.0
C1012 C 0.87515 0.57624 0.49234 0.0
C1013 C 0.85045 0.5823 0.47051 0.0
N1014 N 0.90403 0.54187 0.55065 0.0
C1015 C 0.92213 0.5644 0.54265 0.0
C1016 C 0.89436 0.59886 0.48166 0.0
C1017 C 0.9176 0.59314 0.50816 0.0
Gd1018 Gd 0.93411 0.41244 0.58221 0.0
Gd1019 Gd 0.90903 0.49478 0.61152 0.0
N1020 N 0.86548 0.49856 0.58127 0.0
C1021 C 0.81515 0.51155 0.54164 0.0
C1022 C 0.8454 0.4783 0.59926 0.0
C1023 C 0.82017 0.48449 0.57988 0.0
H1024 H 0.84781 0.4574 0.62898 0.0
H1025 H 0.80445 0.46837 0.59491 0.0
H1026 H 0.99885 0.41833 0.5417 0.0
H1027 H 0.93904 0.56115 0.56564 0.0
H1028 H 0.04078 0.38777 0.55909 0.0
H1029 H 0.79545 0.51631 0.52716 0.0
H1030 H 0.81133 0.5661 0.46996 0.0
H1031 H 0.88579 0.35945 0.62269 0.0
H1032 H 0.89071 0.62148 0.45556 0.0
H1033 H 0.93131 0.61141 0.50434 0.0
H1034 H 0.01475 0.295 0.6867 0.0
H1035 H 0.84616 0.60423 0.44294 0.0
H1036 H 0.92152 0.27838 0.72161 0.0
H1037 H 0.88163 0.30792 0.68505 0.0
N1038 N 0.92766 0.36012 0.6274 0.0
C1039 C 0.94998 0.34359 0.6455 0.0
C1040 C 0.90342 0.34695 0.63887 0.0
C1041 C 0.92355 0.30112 0.69489 0.0
C1042 C 0.90097 0.31763 0.67379 0.0
C1043 C 0.94855 0.31372 0.67979 0.0
H1044 H 0.97145 0.27502 0.72547 0.0
N1045 N 0.9751 0.38476 0.5952 0.0
C1046 C 0.97448 0.35598 0.62765 0.0
C1047 C 0.02223 0.34973 0.61491 0.0
C1048 C 0.99814 0.33806 0.63996 0.0
C1049 C 0.99849 0.39604 0.56985 0.0
C1050 C 0.02236 0.37877 0.57938 0.0
O1051 O 0.91796 0.49308 0.52831 0.0
O1052 O 0.90218 0.44526 0.5371 0.0
O1053 O 0.95136 0.43118 0.50327 0.0
O1054 O 0.93216 0.38674 0.52435 0.0
O1055 O 0.88922 0.45476 0.66569 0.0
O1056 O 0.89604 0.40913 0.638 0.0
O1057 O 0.94923 0.41729 0.65926 0.0
O1058 O 0.93384 0.46426 0.67706 0.0
O1059 O 0.92852 0.51949 0.65841 0.0
O1060 O 0.8881 0.53168 0.63686 0.0
O1061 O 0.96504 0.44324 0.59003 0.0
O1062 O 0.94576 0.49074 0.56056 0.0
C1063 C 0.90764 0.47331 0.50729 0.0
C1064 C 0.88553 0.42529 0.67083 0.0
C1065 C 0.96832 0.39328 0.45854 0.0
C1066 C 0.99865 0.39696 0.38016 0.0
C1067 C 0.99549 0.34851 0.44757 0.0
C1068 C 0.97689 0.36211 0.47678 0.0
C1069 C 0.00621 0.36565 0.39982 0.0
C1070 C 0.9796 0.41087 0.40988 0.0
C1071 C 0.94647 0.4064 0.48869 0.0
C1072 C 0.99684 0.3089 0.67575 0.0
C1073 C 0.97211 0.29727 0.69707 0.0
H1074 H 0.04069 0.3362 0.62135 0.0
C1075 C 0.94695 0.43684 0.68973 0.0
C1076 C 0.96651 0.47316 0.57676 0.0
C1077 C 0.89707 0.53785 0.71578 0.0
C1078 C 0.87499 0.51306 0.79924 0.0
C1079 C 0.87354 0.56925 0.76718 0.0
C1080 C 0.88886 0.56694 0.72286 0.0
C1081 C 0.86659 0.54254 0.80518 0.0
C1082 C 0.89018 0.51086 0.75409 0.0
C1083 C 0.90698 0.53622 0.6639 0.0
H1084 H 0.00137 0.3243 0.46177 0.0
H1085 H 0.96887 0.3479 0.51347 0.0
H1086 H 0.02042 0.3543 0.37781 0.0
H1087 H 0.97307 0.4348 0.39466 0.0
H1088 H 0.86692 0.5918 0.77199 0.0
H1089 H 0.8934 0.58789 0.6932 0.0
H1090 H 0.85525 0.54507 0.83986 0.0
H1091 H 0.89585 0.4883 0.74803 0.0
C1092 C 0.24329 0.07012 0.39327 0.0
C1093 C 0.19759 0.08819 0.40391 0.0
C1094 C 0.22392 0.09334 0.3827 0.0
C1095 C 0.19141 0.05941 0.43805 0.0
C1096 C 0.23714 0.04095 0.42671 0.0
C1097 C 0.21118 0.03583 0.44954 0.0
N1098 N 0.26808 0.07599 0.37024 0.0
C1099 C 0.28726 0.05285 0.37669 0.0
C1100 C 0.25738 0.01802 0.43674 0.0
C1101 C 0.28259 0.02412 0.41184 0.0
Gd1102 Gd 0.32748 0.18433 0.38573 0.0
Gd1103 Gd 0.27657 0.12862 0.32915 0.0
N1104 N 0.23083 0.12093 0.35074 0.0
C1105 C 0.17833 0.1121 0.39002 0.0
C1106 C 0.21194 0.14395 0.3353 0.0
C1107 C 0.18549 0.13998 0.35492 0.0
H1108 H 0.21728 0.16578 0.30876 0.0
H1109 H 0.17072 0.15853 0.34342 0.0
H1110 H 0.37639 0.13487 0.4498 0.0
H1111 H 0.30682 0.05742 0.358 0.0
H1112 H 0.42235 0.11896 0.43005 0.0
H1113 H 0.15791 0.10917 0.4056 0.0
H1114 H 0.17144 0.05512 0.45553 0.0
H1115 H 0.32082 0.25907 0.32489 0.0
H1116 H 0.25374 -0.00445 0.46328 0.0
H1117 H 0.29852 0.00673 0.42006 0.0
H1118 H 0.45041 0.19776 0.27943 0.0
H1119 H 0.20616 0.01368 0.47577 0.0
H1120 H 0.39087 0.28595 0.22659 0.0
H1121 H 0.34534 0.29856 0.25828 0.0
N1122 N 0.35154 0.22448 0.32983 0.0
C1123 C 0.37686 0.21772 0.31519 0.0
C1124 C 0.34047 0.25338 0.31115 0.0
C1125 C 0.38005 0.26858 0.2557 0.0
C1126 C 0.35441 0.27581 0.27355 0.0
C1127 C 0.39179 0.23939 0.27719 0.0
H1128 H 0.42986 0.24772 0.23374 0.0
N1129 N 0.37389 0.17144 0.38118 0.0
C1130 C 0.38834 0.18998 0.34127 0.0
C1131 C 0.42698 0.15586 0.36014 0.0
C1132 C 0.41522 0.18272 0.32955 0.0
C1133 C 0.38657 0.14766 0.41511 0.0
C1134 C 0.41292 0.13883 0.4043 0.0
O1135 O 0.2601 0.1477 0.3933 0.0
O1136 O 0.29514 0.15484 0.44013 0.0
O1137 O 0.34151 0.19563 0.454 0.0
O1138 O 0.30913 0.22195 0.41226 0.0
O1139 O 0.26045 0.17577 0.33943 0.0
O1140 O 0.29748 0.20383 0.32669 0.0
O1141 O 0.32492 0.19205 0.30025 0.0
O1142 O 0.31835 0.14272 0.29594 0.0
O1143 O 0.26121 0.15605 0.25462 0.0
O1144 O 0.2768 0.10967 0.26213 0.0
O1145 O 0.33868 0.13441 0.39138 0.0
O1146 O 0.30387 0.10273 0.40009 0.0
C1147 C 0.27149 0.14375 0.43685 0.0
C1148 C 0.27194 0.20211 0.33586 0.0
C1149 C 0.31054 0.22471 0.49826 0.0
C1150 C 0.31079 0.22454 0.58876 0.0
C1151 C 0.27893 0.25747 0.53505 0.0
C1152 C 0.28996 0.24746 0.49283 0.0
C1153 C 0.28997 0.24686 0.58261 0.0
C1154 C 0.32078 0.21294 0.54692 0.0
C1155 C 0.32392 0.21843 0.45105 0.0
C1156 C 0.4298 0.20314 0.28925 0.0
C1157 C 0.41813 0.23158 0.2633 0.0
H1158 H 0.44715 0.14894 0.35103 0.0
C1159 C 0.32426 0.17173 0.2727 0.0
C1160 C 0.32596 0.1104 0.41896 0.0
C1161 C 0.24221 0.12651 0.20151 0.0
C1162 C 0.21592 0.13516 0.12137 0.0
C1163 C 0.21669 0.08534 0.18785 0.0
C1164 C 0.23184 0.09687 0.21897 0.0
C1165 C 0.21014 0.10338 0.13947 0.0
C1166 C 0.23336 0.14636 0.15285 0.0
C1167 C 0.26437 0.13345 0.23227 0.0
H1168 H 0.26299 0.27493 0.53018 0.0
H1169 H 0.28384 0.25913 0.45508 0.0
H1170 H 0.28284 0.25666 0.61428 0.0
H1171 H 0.33791 0.19707 0.55097 0.0
H1172 H 0.21071 0.06151 0.20067 0.0
H1173 H 0.23694 0.08145 0.25575 0.0
H1174 H 0.20093 0.0912 0.11632 0.0
H1175 H 0.24045 0.16969 0.13951 0.0
C1176 C 0.5889 0.50656 0.19834 0.0
C1177 C 0.63223 0.52825 0.16827 0.0
C1178 C 0.60547 0.53177 0.18574 0.0
C1179 C 0.64197 0.49926 0.16262 0.0
C1180 C 0.5987 0.4774 0.19298 0.0
C1181 C 0.62525 0.47396 0.17477 0.0
N1182 N 0.56346 0.51038 0.21691 0.0
C1183 C 0.54694 0.48599 0.23192 0.0
C1184 C 0.58164 0.45244 0.20681 0.0
C1185 C 0.55568 0.45673 0.22654 0.0
Gd1186 Gd 0.5052 0.62545 0.14333 0.0
Gd1187 Gd 0.55218 0.55969 0.22787 0.0
N1188 N 0.59547 0.55974 0.19083 0.0
C1189 C 0.64842 0.55397 0.15727 0.0
C1190 C 0.61139 0.58452 0.18247 0.0
C1191 C 0.63798 0.58217 0.16469 0.0
H1192 H 0.60351 0.60605 0.18939 0.0
H1193 H 0.65049 0.60198 0.15723 0.0
H1194 H 0.45604 0.5712 0.17044 0.0
H1195 H 0.52709 0.4891 0.2484 0.0
H1196 H 0.41017 0.56757 0.20648 0.0
H1197 H 0.66908 0.55221 0.14371 0.0
H1198 H 0.66245 0.49612 0.14909 0.0
H1199 H 0.52511 0.6927 0.15303 0.0
H1200 H 0.58841 0.4297 0.20306 0.0
H1201 H 0.54249 0.43747 0.23799 0.0
H1202 H 0.38843 0.66765 0.23428 0.0
H1203 H 0.63315 0.45171 0.17045 0.0
H1204 H 0.45566 0.74275 0.19151 0.0
H1205 H 0.50382 0.74109 0.16549 0.0
N1206 N 0.48982 0.66723 0.17421 0.0
C1207 C 0.46339 0.66769 0.18839 0.0
C1208 C 0.50449 0.69287 0.16705 0.0
C1209 C 0.46529 0.72133 0.18829 0.0
C1210 C 0.49239 0.72044 0.17349 0.0
C1211 C 0.45059 0.69467 0.19735 0.0
H1212 H 0.41335 0.71516 0.22055 0.0
N1213 N 0.46124 0.61637 0.1795 0.0
C1214 C 0.44893 0.6413 0.19289 0.0
C1215 C 0.40802 0.61376 0.21662 0.0
C1216 C 0.42184 0.64084 0.21068 0.0
C1217 C 0.44738 0.59036 0.18341 0.0
C1218 C 0.42088 0.58841 0.20306 0.0
O1219 O 0.56517 0.57422 0.14103 0.0
O1220 O 0.52893 0.59705 0.09463 0.0
O1221 O 0.47634 0.64587 0.08793 0.0
O1222 O 0.51561 0.66511 0.07983 0.0
O1223 O 0.55351 0.60727 0.23814 0.0
O1224 O 0.54618 0.63893 0.15779 0.0
O1225 O 0.50175 0.61828 0.23031 0.0
O1226 O 0.50941 0.5659 0.25642 0.0
O1227 O 0.5703 0.57018 0.29153 0.0
O1228 O 0.55757 0.52335 0.2978 0.0
O1229 O 0.50084 0.57749 0.13332 0.0
O1230 O 0.51183 0.54723 0.21325 0.0
C1231 C 0.55221 0.58168 0.09799 0.0
C1232 C 0.55472 0.6342 0.20451 0.0
C1233 C 0.49158 0.67465 1.00481 0.0
C1234 C 0.47661 0.66461 0.92683 0.0
C1235 C 0.50429 0.70858 0.92117 0.0
C1236 C 0.50512 0.70044 0.97482 0.0
C1237 C 0.49051 0.69061 0.89714 0.0
C1238 C 0.47666 0.65746 0.98096 0.0
C1239 C 0.49226 0.66705 0.06102 0.0
C1240 C 0.40928 0.6675 0.22118 0.0
C1241 C 0.42348 0.69453 0.21356 0.0
H1242 H 0.3873 0.61238 0.23074 0.0
C1243 C 0.49907 0.59175 0.26527 0.0
C1244 C 0.50396 0.55037 0.16684 0.0
C1245 C 0.59328 0.5285 0.34556 0.0
C1246 C 0.61055 0.50567 0.42875 0.0
C1247 C 0.63671 0.50221 0.35102 0.0
C1248 C 0.61623 0.51818 0.32121 0.0
C1249 C 0.63379 0.49558 0.40505 0.0
C1250 C 0.59118 0.52351 0.39871 0.0
C1251 C 0.56962 0.54145 0.31898 0.0
H1252 H 0.51488 0.72844 0.89806 0.0
H1253 H 0.5162 0.71436 0.99298 0.0
H1254 H 0.49166 0.69667 0.85524 0.0
H1255 H 0.46544 0.63827 1.00459 0.0
H1256 H 0.65431 0.49389 0.3324 0.0
H1257 H 0.61823 0.52188 0.27993 0.0
H1258 H 0.64887 0.48147 0.42816 0.0
H1259 H 0.57321 0.53137 0.41724 0.0
C1260 C 0.25446 0.85103 0.93169 0.0
C1261 C 0.23618 0.90391 0.91461 0.0
C1262 C 0.23303 0.87182 0.93474 0.0
C1263 C 0.2615 0.91497 0.89568 0.0
C1264 C 0.27948 0.86202 0.91017 0.0
C1265 C 0.28316 0.89408 0.89472 0.0
N1266 N 0.25098 0.82011 0.95085 0.0
C1267 C 0.27049 0.79878 0.94486 0.0
C1268 C 0.30021 0.84038 0.90646 0.0
C1269 C 0.29549 0.80865 0.92249 0.0
Gd1270 Gd 0.14516 0.77441 0.97396 0.0
Gd1271 Gd 0.21179 0.80839 1.00185 0.0
N1272 N 0.209 0.86053 0.9559 0.0
C1273 C 0.21386 0.92392 0.91477 0.0
C1274 C 0.18709 0.87981 0.9555 0.0
C1275 C 0.18915 0.91176 0.9345 0.0
H1276 H 0.16802 0.87083 0.97105 0.0
H1277 H 0.17175 0.92704 0.9343 0.0
H1278 H 0.18366 0.70778 0.97782 0.0
H1279 H 0.26723 0.77431 0.96043 0.0
H1280 H 0.18255 0.65306 0.02366 0.0
H1281 H 0.21546 0.94875 0.89939 0.0
H1282 H 0.26458 0.93963 0.8819 0.0
H1283 H 0.08894 0.80662 1.01374 0.0
H1284 H 0.31991 0.84784 0.89133 0.0
H1285 H 0.31135 0.79185 0.91928 0.0
H1286 H 0.10029 0.64372 0.12628 0.0
H1287 H 0.30272 0.90296 0.88219 0.0
H1288 H 0.04504 0.73463 0.11914 0.0
H1289 H 0.04891 0.7897 0.07108 0.0
N1290 N 0.10819 0.7621 0.03204 0.0
C1291 C 0.10645 0.73151 0.05752 0.0
C1292 C 0.08783 0.7828 0.03604 0.0
C1293 C 0.06291 0.74206 0.09494 0.0
C1294 C 0.06502 0.77319 0.06795 0.0
C1295 C 0.0836 0.72075 0.08968 0.0
H1296 H 0.06424 0.68044 0.13904 0.0
N1297 N 0.14862 0.72109 1.01734 0.0
C1298 C 0.12711 0.71056 0.05027 0.0
C1299 C 0.14555 0.65802 0.0666 0.0
C1300 C 0.12504 0.67866 0.0754 0.0
C1301 C 0.16793 0.70057 1.00678 0.0
C1302 C 0.16698 0.66901 0.0319 0.0
O1303 O 0.20379 0.82424 0.91722 0.0
O1304 O 0.16119 0.81204 0.90306 0.0
O1305 O 0.13031 0.74171 0.93827 0.0
O1306 O 0.11047 0.78741 0.92616 0.0
O1307 O 0.17582 0.82181 0.04619 0.0
O1308 O 0.13641 0.81651 1.01019 0.0
O1309 O 0.15795 0.7619 0.05621 0.0
O1310 O 0.20322 0.7592 0.04359 0.0
O1311 O 0.21222 0.81874 0.07512 0.0
O1312 O 0.24967 0.80846 0.03599 0.0
O1313 O 0.18297 0.76401 0.93025 0.0
O1314 O 0.21544 0.76171 0.98704 0.0
C1315 C 0.18443 0.82511 0.88661 0.0
C1316 C 0.15 0.8256 0.04444 0.0
C1317 C 0.10141 0.75451 0.87005 0.0
C1318 C 0.10788 0.73414 0.79325 0.0
C1319 C 0.06333 0.74331 0.82878 0.0
C1320 C 0.07387 0.75383 0.86736 0.0
C1321 C 0.08009 0.73361 0.79205 0.0
C1322 C 0.11857 0.74434 0.83306 0.0
C1323 C 0.11089 0.75986 0.91762 0.0
C1324 C 0.10235 0.66814 0.10749 0.0
C1325 C 0.08174 0.68907 0.11461 0.0
H1326 H 0.14475 0.63347 0.08547 0.0
C1327 C 0.18142 0.75213 0.07292 0.0
C1328 C 0.20727 0.75712 0.94468 0.0
C1329 C 0.2477 0.84858 0.07928 0.0
C1330 C 0.25034 0.87792 0.14147 0.0
C1331 C 0.27853 0.89038 0.06232 0.0
C1332 C 0.2684 0.86544 0.04827 0.0
C1333 C 0.27014 0.89603 0.11 0.0
C1334 C 0.23679 0.85762 0.12226 0.0
C1335 C 0.23806 0.81993 0.07214 0.0
H1336 H 0.04209 0.74183 0.82801 0.0
H1337 H 0.06047 0.75994 0.89688 0.0
H1338 H 0.0712 0.72512 0.76308 0.0
H1339 H 0.13993 0.7441 0.83556 0.0
H1340 H 0.29456 0.90335 0.03873 0.0
H1341 H 0.27742 0.85881 1.01489 0.0
H1342 H 0.28097 0.9119 0.12455 0.0
H1343 H 0.22135 0.84392 0.14712 0.0
C1344 C 0.55611 0.84424 0.64266 0.0
C1345 C 0.50797 0.8484 0.65373 0.0
C1346 C 0.53249 0.86115 0.63167 0.0
C1347 C 0.50778 0.81924 0.68969 0.0
C1348 C 0.55596 0.81473 0.67728 0.0
C1349 C 0.53177 0.80247 0.70162 0.0
N1350 N 0.58035 0.85672 0.61702 0.0
C1351 C 0.60464 0.83982 0.62424 0.0
C1352 C 0.58007 0.79822 0.68622 0.0
C1353 C 0.60363 0.81051 0.65991 0.0
Gd1354 Gd 0.60407 0.98772 0.60815 0.0
Gd1355 Gd 0.57588 0.90954 0.57145 0.0
N1356 N 0.53338 0.88954 0.59767 0.0
C1357 C 0.48441 0.86501 0.63793 0.0
C1358 C 0.51044 0.90436 0.57849 0.0
C1359 C 0.48575 0.89278 0.59917 0.0
H1360 H 0.51094 0.9259 0.54849 0.0
H1361 H 0.46793 0.90559 0.58516 0.0
H1362 H 0.66729 0.96851 0.57273 0.0
H1363 H 0.59353 0.85995 0.60617 0.0
H1364 H 0.70802 -0.00385 0.53759 0.0
H1365 H 0.46518 0.85614 0.65412 0.0
H1366 H 0.4892 0.80922 0.70764 0.0
H1367 H 0.55811 0.04325 0.61267 0.0
H1368 H 0.58077 0.77537 0.71297 0.0
H1369 H 0.62164 0.79666 0.66732 0.0
H1370 H 0.67965 0.10329 0.48884 0.0
H1371 H 0.53136 0.77979 0.7289 0.0
H1372 H 0.58857 0.12988 0.52455 0.0
H1373 H 0.55161 0.09973 0.57627 0.0
N1374 N 0.59593 0.04077 0.57379 0.0
C1375 C 0.6168 0.05682 0.54693 0.0
C1376 C 0.57317 0.05586 0.58605 0.0
C1377 C 0.59077 0.10487 0.5377 0.0
C1378 C 0.56986 0.08796 0.56687 0.0
C1379 C 0.6149 0.08948 0.52891 0.0
H1380 H 0.63653 0.13095 0.49257 0.0
N1381 N 0.64241 0.00952 0.56104 0.0
C1382 C 0.64093 0.04093 0.54207 0.0
C1383 C 0.68831 0.0412 0.52154 0.0
C1384 C 0.66392 0.05759 0.52154 0.0
C1385 C 0.66593 0.99332 0.558 0.0
C1386 C 0.68922 0.00894 0.53829 0.0
O1387 O 0.5579 0.91485 0.64865 0.0
O1388 O 0.57656 0.95638 0.6708 0.0
O1389 O 0.6327 -0.00256 0.65743 0.0
O1390 O 0.59004 0.00532 0.6737 0.0
O1391 O 0.54799 0.94759 0.57883 0.0
O1392 O 0.56563 -0.00437 0.5692 0.0
O1393 O 0.59946 0.99268 0.52281 0.0
O1394 O 0.60716 0.9419 0.52178 0.0
O1395 O 0.55531 0.9247 0.49768 0.0
O1396 O 0.57689 0.87991 0.51874 0.0
O1397 O 0.62898 0.94394 0.6165 0.0
O1398 O 0.60663 0.89974 0.63806 0.0
C1399 C 0.56145 0.93176 0.68133 0.0
C1400 C 0.54569 0.97718 0.57484 0.0
C1401 C 0.62012 0.03314 0.70723 0.0
C1402 C 0.6299 0.04947 0.78296 0.0
C1403 C 0.62478 0.08772 0.7015 0.0
C1404 C 0.62006 0.06418 0.67795 0.0
C1405 C 0.6294 0.08046 0.75423 0.0
C1406 C 0.62538 0.02603 0.75928 0.0
C1407 C 0.61422 0.0071 0.6869 0.0
C1408 C 0.6621 0.09008 0.5038 0.0
C1409 C 0.63754 0.1059 0.5062 0.0
H1410 H 0.70664 0.05324 0.50966 0.0
C1411 C 0.60207 0.97137 0.49675 0.0
C1412 C 0.62359 0.91802 0.65099 0.0
C1413 C 0.55297 0.88993 0.43821 0.0
C1414 C 0.52306 0.88938 0.36679 0.0
C1415 C 0.56092 0.85256 0.38706 0.0
C1416 C 0.56795 0.86534 0.42564 0.0
C1417 C 0.53883 0.86377 0.3592 0.0
C1418 C 0.53046 0.90272 0.40744 0.0
C1419 C 0.56067 0.8981 0.48685 0.0
H1420 H 0.62453 0.11162 0.67914 0.0
H1421 H 0.61625 0.07039 0.6376 0.0
H1422 H 0.63246 0.09878 0.77251 0.0
H1423 H 0.62517 0.00204 0.78213 0.0
H1424 H 0.57302 0.83379 0.37791 0.0
H1425 H 0.58524 0.85525 0.4465 0.0
H1426 H 0.53516 0.85274 0.32913 0.0
H1427 H 0.51852 0.92176 0.41613 0.0
C1428 C 0.38725 0.18141 0.0237 0.0
C1429 C 0.35864 0.13736 0.05063 0.0
C1430 C 0.3633 0.16776 0.02077 0.0
C1431 C 0.37816 0.121 0.08259 0.0
C1432 C 0.40745 0.16417 0.05345 0.0
C1433 C 0.40266 0.134 0.08345 0.0
N1434 N 0.39124 0.2111 0.99579 0.0
C1435 C 0.41522 0.22424 0.99308 0.0
C1436 C 0.4322 0.1774 0.0506 0.0
C1437 C 0.43608 0.20762 0.02055 0.0
Gd1438 Gd 0.31022 0.29719 0.97891 0.0
Gd1439 Gd 0.35882 0.23307 0.93931 0.0
N1440 N 0.34508 0.18379 0.98761 0.0
C1441 C 0.33474 0.12391 0.04669 0.0
C1442 C 0.32257 0.1699 0.98104 0.0
C1443 C 0.31675 0.14015 1.01132 0.0
H1444 H 0.3093 0.1809 0.95159 0.0
H1445 H 0.29868 0.12948 1.0065 0.0
H1446 H 0.35746 0.34794 0.93162 0.0
H1447 H 0.41877 0.24689 0.96749 0.0
H1448 H 0.36086 0.40133 0.87497 0.0
H1449 H 0.33034 0.10071 0.0697 0.0
H1450 H 0.3749 0.09767 0.10459 0.0
H1451 H 0.24572 0.27977 0.99062 0.0
H1452 H 0.4487 0.16407 0.06976 0.0
H1453 H 0.45531 0.21781 1.01725 0.0
H1454 H 0.27165 0.42969 0.82469 0.0
H1455 H 0.4179 0.12034 0.10677 0.0
H1456 H 0.2034 0.35726 0.89619 0.0
H1457 H 0.20335 0.30501 0.95719 0.0
N1458 N 0.26932 0.31676 0.94658 0.0
C1459 C 0.26987 0.34545 0.91302 0.0
C1460 C 0.24588 0.30226 0.96292 0.0
C1461 C 0.22204 0.34605 0.90988 0.0
C1462 C 0.22192 0.31655 0.94438 0.0
C1463 C 0.24614 0.36101 0.89425 0.0
H1464 H 0.22905 0.40362 0.84719 0.0
N1465 N 0.31662 0.34504 0.91973 0.0
C1466 C 0.29411 0.36013 0.89965 0.0
C1467 C 0.31941 0.40544 0.8585 0.0
C1468 C 0.29498 0.39076 0.86817 0.0
C1469 C 0.34019 0.3597 0.91281 0.0
C1470 C 0.34207 0.3899 0.88119 0.0
O1471 O 0.35117 0.23021 0.02523 0.0
O1472 O 0.30808 0.24851 0.03272 0.0
O1473 O 0.32237 0.32276 0.03144 0.0
O1474 O 0.28128 0.30917 0.03425 0.0
O1475 O 0.31702 0.23433 0.91693 0.0
O1476 O 0.29262 0.25249 0.97987 0.0
O1477 O 0.32413 0.30743 0.89159 0.0
O1478 O 0.33573 0.26146 0.86978 0.0
O1479 O 0.37356 0.19556 0.90779 0.0
O1480 O 0.39318 0.23958 0.88394 0.0
O1481 O 0.35044 0.2902 1.00903 0.0
O1482 O 0.37622 0.27821 0.94288 0.0
C1483 C 0.32817 0.23 0.05166 0.0
C1484 C 0.29448 0.23989 0.94106 0.0
C1485 C 0.28828 0.35346 0.06139 0.0
C1486 C 0.26862 0.37561 0.12867 0.0
C1487 C 0.26083 0.40068 0.03895 0.0
C1488 C 0.27604 0.37711 0.02397 0.0
C1489 C 0.25655 0.3996 0.09145 0.0
C1490 C 0.28616 0.35425 0.1128 0.0
C1491 C 0.29819 0.32424 0.05174 0.0
C1492 C 0.27139 0.40611 0.84889 0.0
C1493 C 0.24709 0.39127 0.86176 0.0
H1494 H 0.32086 0.42901 0.83462 0.0
C1495 C 0.32676 0.29078 0.85703 0.0
C1496 C 0.37359 0.28794 0.98527 0.0
C1497 C 0.39797 0.20608 0.82894 0.0
C1498 C 0.38205 0.20116 0.74912 0.0
C1499 C 0.4286 0.19029 0.76604 0.0
C1500 C 0.42373 0.19733 0.81361 0.0
C1501 C 0.40783 0.19242 0.73364 0.0
C1502 C 0.37704 0.20784 0.7969 0.0
C1503 C 0.39295 0.21114 0.87999 0.0
H1504 H 0.25096 0.4186 1.01026 0.0
H1505 H 0.2773 0.37686 0.98393 0.0
H1506 H 0.2426 0.41619 0.10292 0.0
H1507 H 0.29564 0.33575 0.14144 0.0
H1508 H 0.44847 0.18351 0.75404 0.0
H1509 H 0.43995 0.19562 0.83868 0.0
H1510 H 0.41199 0.18807 0.69609 0.0
H1511 H 0.35714 0.215 0.80856 0.0
C1512 C 0.00029 0.13551 1.00905 0.0
C1513 C 0.98679 0.18976 0.97779 0.0
C1514 C 0.98039 0.15883 1.0025 0.0
C1515 C 0.01265 0.19649 0.95591 0.0
C1516 C 0.02653 0.14245 0.9888 0.0
C1517 C 0.03242 0.17287 0.96106 0.0
N1518 N 0.99436 0.1065 0.03792 0.0
C1519 C 0.01383 0.08381 0.04978 0.0
C1520 C 0.04636 0.11889 0.99891 0.0
C1521 C 0.04001 0.08957 0.03002 0.0
Gd1522 Gd 0.90813 0.03781 0.01775 0.0
Gd1523 Gd 0.95041 0.10078 0.07281 0.0
N1524 N 0.95547 0.15185 0.02423 0.0
C1525 C 0.96746 0.21328 0.97852 0.0
C1526 C 0.93702 0.17477 0.02682 0.0
C1527 C 0.94261 0.20578 1.00401 0.0
H1528 H 0.91863 0.16929 0.04896 0.0
H1529 H 0.92785 0.22388 1.00654 0.0
H1530 H 0.93865 0.96899 0.06827 0.0
H1531 H 0.00941 0.06151 0.07544 0.0
H1532 H 0.92668 0.91803 0.12639 0.0
H1533 H 0.9718 0.23737 0.96106 0.0
H1534 H 0.01779 0.22008 0.93631 0.0
H1535 H 0.85091 0.07548 0.97987 0.0
H1536 H 0.06677 0.12337 0.98428 0.0
H1537 H 0.05537 0.07157 0.03973 0.0
H1538 H 0.83203 0.92757 0.15812 0.0
H1539 H 0.05244 0.17859 0.94507 0.0
H1540 H 0.78708 0.02052 0.06499 0.0
H1541 H 0.80261 0.0678 1.0012 0.0
N1542 N 0.8621 0.03189 0.02905 0.0
C1543 C 0.85394 0.00485 0.06195 0.0
C1544 C 0.84412 0.05431 1.00668 0.0
C1545 C 0.80818 0.02334 0.05508 0.0
C1546 C 0.8169 0.0503 0.01935 0.0
C1547 C 0.82677 8e-05 0.07667 0.0
H1548 H 0.79836 0.96865 0.12518 0.0
N1549 N 0.89882 0.98721 0.06607 0.0
C1550 C 0.87283 0.98172 0.08067 0.0
C1551 C 0.88481 0.93025 0.13144 0.0
C1552 C 0.86514 0.9533 0.11462 0.0
C1553 C 0.91807 0.96457 0.08092 0.0
C1554 C 0.91136 0.93578 0.11395 0.0
O1555 O 0.96459 0.09045 0.99802 0.0
O1556 O 0.92333 0.08415 0.97582 0.0
O1557 O 0.92484 0.00642 0.97164 0.0
O1558 O 0.89735 0.04344 0.93831 0.0
O1559 O 0.91043 0.11467 0.0404 0.0
O1560 O 0.8837 0.073 0.05776 0.0
O1561 O 0.90906 0.02256 0.10339 0.0
O1562 O 0.92489 0.06433 0.12941 0.0
O1563 O 0.93683 0.12328 0.13324 0.0
O1564 O 0.97851 0.10954 0.12328 0.0
O1565 O 0.95185 0.0268 0.03778 0.0
O1566 O 0.9618 0.0513 0.10088 0.0
C1567 C 0.94879 0.08698 0.96389 0.0
C1568 C 0.88882 0.10096 0.0636 0.0
C1569 C 0.89933 -0.00118 0.90352 0.0
C1570 C 0.89999 0.96863 0.83605 0.0
C1571 C 0.85867 0.97878 0.88519 0.0
C1572 C 0.87207 -0.00578 0.91352 0.0
C1573 C 0.87211 0.9668 0.84708 0.0
C1574 C 0.91352 0.98549 0.8652 0.0
C1575 C 0.9117 0.01948 0.93098 0.0
C1576 C 0.83821 0.94893 0.13101 0.0
C1577 C 0.81907 0.97231 0.11221 0.0
H1578 H 0.8797 0.90809 0.15756 0.0
C1579 C 0.91209 0.03801 0.13777 0.0
C1580 C 0.96352 0.02779 0.08006 0.0
C1581 C 0.96047 0.10265 0.2079 0.0
C1582 C 0.95375 0.10616 0.29631 0.0
C1583 C 0.97445 0.05965 0.27824 0.0
C1584 C 0.97325 0.0734 0.2252 0.0
C1585 C 0.96501 0.07612 0.31393 0.0
C1586 C 0.94975 0.11815 0.24363 0.0
C1587 C 0.96007 0.11865 0.15297 0.0
H1588 H 0.83737 0.97639 0.89233 0.0
H1589 H 0.86079 0.00349 0.94241 0.0
H1590 H 0.85967 0.95622 0.82673 0.0
H1591 H 0.93465 0.98891 0.85783 0.0
H1592 H 0.98383 0.03687 0.29149 0.0
H1593 H 0.98183 0.06094 0.19792 0.0
H1594 H 0.96831 0.0664 0.35458 0.0
H1595 H 0.9406 0.14103 0.22993 0.0
C1596 C 0.11803 0.73852 0.35806 0.0
C1597 C 0.07654 0.71242 0.3641 0.0
C1598 C 0.10411 0.71128 0.37082 0.0
C1599 C 0.06339 0.74108 0.3443 0.0
C1600 C 0.10485 0.76737 0.33829 0.0
C1601 C 0.07748 0.76848 0.3317 0.0
N1602 N 0.14414 0.73703 0.36759 0.0
C1603 C 0.15818 0.76331 0.3591 0.0
C1604 C 0.11937 0.7944 0.32751 0.0
C1605 C 0.14617 0.79235 0.3382 0.0
Gd1606 Gd 0.21978 0.63922 0.31847 0.0
Gd1607 Gd 0.16234 0.68786 0.40479 0.0
N1608 N 0.11703 0.68405 0.39289 0.0
C1609 C 0.06272 0.68487 0.37976 0.0
C1610 C 0.1031 0.65773 0.41202 0.0
C1611 C 0.07605 0.65744 0.4043 0.0
H1612 H 0.11253 0.6371 0.43441 0.0
H1613 H 0.06537 0.63623 0.41857 0.0
H1614 H 0.2768 0.67694 0.29272 0.0
H1615 H 0.17835 0.76182 0.37016 0.0
H1616 H 0.32404 0.66672 0.31223 0.0
H1617 H 0.04159 0.68476 0.37494 0.0
H1618 H 0.04216 0.74237 0.33983 0.0
H1619 H 0.19211 0.56881 0.34681 0.0
H1620 H 0.10993 0.81697 0.31213 0.0
H1621 H 0.15742 0.81312 0.33142 0.0
H1622 H 0.32861 0.55885 0.40352 0.0
H1623 H 0.06694 0.79051 0.31784 0.0
H1624 H 0.2484 0.50241 0.42955 0.0
H1625 H 0.20271 0.51649 0.40172 0.0
N1626 N 0.22999 0.58592 0.3525 0.0
C1627 C 0.25528 0.57871 0.36729 0.0
C1628 C 0.21194 0.5632 0.3602 0.0
C1629 C 0.24365 0.52575 0.40707 0.0
C1630 C 0.21798 0.53341 0.3905 0.0
C1631 C 0.26294 0.54826 0.39406 0.0
H1632 H 0.29561 0.51815 0.42831 0.0
N1633 N 0.26552 0.6309 0.33011 0.0
C1634 C 0.2737 0.60177 0.35486 0.0
C1635 C 0.31867 0.61865 0.35185 0.0
C1636 C 0.30046 0.59488 0.36702 0.0
C1637 C 0.28331 0.65397 0.31364 0.0
C1638 C 0.31008 0.64826 0.3246 0.0
O1639 O 0.16805 0.7074 0.31926 0.0
O1640 O 0.1791 0.66037 0.30613 0.0
O1641 O 0.23664 0.66092 0.2403 0.0
O1642 O 0.21564 0.6187 0.25406 0.0
O1643 O 0.15612 0.64226 0.38974 0.0
O1644 O 0.19381 0.61173 0.39094 0.0
O1645 O 0.23685 0.64939 0.3848 0.0
O1646 O 0.19986 0.66099 0.43688 0.0
O1647 O 0.15213 0.66858 0.48725 0.0
O1648 O 0.15772 0.71765 0.45678 0.0
O1649 O 0.22948 0.68901 0.31868 0.0
O1650 O 0.2014 0.70883 0.37868 0.0
C1651 C 0.17533 0.69024 0.28763 0.0
C1652 C 0.17008 0.61775 0.41206 0.0
C1653 C 0.25281 0.62553 0.19102 0.0
C1654 C 0.28076 0.62563 0.11058 0.0
C1655 C 0.28632 0.58448 0.18972 0.0
C1656 C 0.26629 0.59801 0.21609 0.0
C1657 C 0.2934 0.59799 0.13773 0.0
C1658 C 0.26041 0.63968 0.1378 0.0
C1659 C 0.23075 0.63852 0.22092 0.0
C1660 C 0.30819 0.56458 0.39358 0.0
C1661 C 0.2894 0.54138 0.40755 0.0
H1662 H 0.33939 0.61431 0.36052 0.0
C1663 C 0.22439 0.65002 0.42909 0.0
C1664 C 0.22226 0.70959 0.34581 0.0
C1665 C 0.17225 0.69514 0.54017 0.0
C1666 C 0.17321 0.69915 0.62886 0.0
C1667 C 0.21179 0.71276 0.56883 0.0
C1668 C 0.19796 0.70673 0.5293 0.0
C1669 C 0.19919 0.70986 0.61818 0.0
C1670 C 0.16127 0.68888 0.59114 0.0
C1671 C 0.15497 0.69484 0.49815 0.0
H1672 H 0.29635 0.56315 0.20967 0.0
H1673 H 0.26114 0.58663 0.25627 0.0
H1674 H 0.30896 0.58664 0.11846 0.0
H1675 H 0.25018 0.66082 0.11758 0.0
H1676 H 0.23157 0.7218 0.5602 0.0
H1677 H 0.20691 0.71211 0.49009 0.0
H1678 H 0.209 0.71778 0.64671 0.0
H1679 H 0.14253 0.67809 0.60105 0.0
C1680 C 0.55115 0.14554 0.12879 0.0
C1681 C 0.50308 0.15216 0.13271 0.0
C1682 C 0.52638 0.13387 0.14634 0.0
C1683 C 0.50499 0.18065 0.09527 0.0
C1684 C 0.55323 0.17493 0.09333 0.0
C1685 C 0.53001 0.19139 0.07408 0.0
N1686 N 0.57307 0.12876 0.14831 0.0
C1687 C 0.59752 0.14146 0.13779 0.0
C1688 C 0.5785 0.187 0.07905 0.0
C1689 C 0.60064 0.17046 0.10219 0.0
Gd1690 Gd 0.58968 -0.00511 0.16502 0.0
Gd1691 Gd 0.56554 0.07671 0.19334 0.0
N1692 N 0.52518 0.10547 0.17979 0.0
C1693 C 0.47875 0.14145 0.15793 0.0
C1694 C 0.50152 0.09497 0.20493 0.0
C1695 C 0.478 0.11278 0.19442 0.0
H1696 H 0.50069 0.07288 0.23356 0.0
H1697 H 0.45935 0.10443 0.21458 0.0
H1698 H 0.65025 0.03426 0.14867 0.0
H1699 H 0.61482 0.12874 0.15512 0.0
H1700 H 0.69324 0.0249 0.18382 0.0
H1701 H 0.46059 0.15547 0.15101 0.0
H1702 H 0.48733 0.19463 0.08274 0.0
H1703 H 0.56038 0.92844 0.21323 0.0
H1704 H 0.58103 0.20941 0.05155 0.0
H1705 H 0.62018 0.17979 0.09187 0.0
H1706 H 0.68804 0.92681 0.30807 0.0
H1707 H 0.53112 0.21272 0.04372 0.0
H1708 H 0.60986 0.86934 0.3224 0.0
H1709 H 0.56904 0.87861 0.27396 0.0
N1710 N 0.59544 0.94834 0.22666 0.0
C1711 C 0.61918 0.94322 0.2487 0.0
C1712 C 0.57748 0.92561 0.2357 0.0
C1713 C 0.60583 0.89185 0.29629 0.0
C1714 C 0.58245 0.89709 0.27026 0.0
C1715 C 0.62475 0.91479 0.28502 0.0
H1716 H 0.65398 0.88772 0.33491 0.0
N1717 N 0.63327 0.99237 0.19527 0.0
C1718 C 0.63851 0.96561 0.23276 0.0
C1719 C 0.68338 0.9812 0.23636 0.0
C1720 C 0.66369 0.95952 0.25406 0.0
C1721 C 0.65286 0.01338 0.1781 0.0
C1722 C 0.67795 0.00812 0.1982 0.0
O1723 O 0.55012 0.07211 0.11621 0.0
O1724 O 0.56485 0.02491 0.09874 0.0
O1725 O 0.56938 0.96865 0.12179 0.0
O1726 O 0.61032 0.95754 0.14058 0.0
O1727 O 0.53382 0.047 0.18479 0.0
O1728 O 0.55338 0.00018 0.2162 0.0
O1729 O 0.58039 -0.00358 0.24827 0.0
O1730 O 0.59698 0.04369 0.24018 0.0
O1731 O 0.54747 0.05831 0.27189 0.0
O1732 O 0.56817 0.10177 0.25171 0.0
O1733 O 0.6095 0.03425 0.10872 0.0
O1734 O 0.60359 0.07951 0.13751 0.0
C1735 C 0.55197 0.05249 0.08583 0.0
C1736 C 0.53248 0.01712 0.19921 0.0
C1737 C 0.59951 0.94875 0.06468 0.0
C1738 C 0.62123 0.97169 0.98029 0.0
C1739 C 0.62057 0.91563 1.01374 0.0
C1740 C 0.60617 0.91911 0.05841 0.0
C1741 C 0.62816 0.94173 0.97487 0.0
C1742 C 0.60694 0.97502 0.02554 0.0
C1743 C 0.59078 0.95176 0.11619 0.0
C1744 C 0.66883 0.93167 0.29153 0.0
C1745 C 0.64943 0.90942 0.30699 0.0
H1746 H 0.70297 0.97718 0.25144 0.0
C1747 C 0.59129 0.01562 0.26966 0.0
C1748 C 0.61344 0.06367 0.1037 0.0
C1749 C 0.53176 0.09682 0.31656 0.0
C1750 C 0.50229 0.09554 0.39556 0.0
C1751 C 0.50748 0.14346 0.32707 0.0
C1752 C 0.52458 0.12839 0.2977 0.0
C1753 C 0.49699 0.12747 0.37569 0.0
C1754 C 0.51989 0.0801 0.36545 0.0
C1755 C 0.55314 0.08268 0.28689 0.0
H1756 H 0.62604 0.89268 1.0094 0.0
H1757 H 0.60115 0.89866 0.0889 0.0
H1758 H 0.63889 0.9384 0.94008 0.0
H1759 H 0.60249 -0.00207 0.03119 0.0
H1760 H 0.50263 0.16793 0.31242 0.0
H1761 H 0.53275 0.14184 0.26054 0.0
H1762 H 0.48436 0.14027 0.39793 0.0
H1763 H 0.52509 0.05576 0.38071 0.0
C1764 C 0.1231 0.26176 0.44604 0.0
C1765 C 0.08214 0.28798 0.46732 0.0
C1766 C 0.10865 0.28936 0.44573 0.0
C1767 C 0.07055 0.25917 0.48855 0.0
C1768 C 0.1113 0.2328 0.4669 0.0
C1769 C 0.08504 0.23172 0.48824 0.0
N1770 N 0.1485 0.26303 0.42533 0.0
C1771 C 0.16302 0.23671 0.42337 0.0
C1772 C 0.12619 0.20565 0.46545 0.0
C1773 C 0.15216 0.20765 0.4433 0.0
Gd1774 Gd 0.22119 0.36368 0.44445 0.0
Gd1775 Gd 0.16542 0.31226 0.39456 0.0
N1776 N 0.12021 0.31724 0.42456 0.0
C1777 C 0.06784 0.31557 0.46719 0.0
C1778 C 0.10589 0.34426 0.4245 0.0
C1779 C 0.07971 0.34375 0.4455 0.0
H1780 H 0.11383 0.36683 0.4085 0.0
H1781 H 0.06869 0.36525 0.44511 0.0
H1782 H 0.27692 0.31566 0.46099 0.0
H1783 H 0.18274 0.23827 0.40522 0.0
H1784 H 0.32305 0.3162 0.42519 0.0
H1785 H 0.04762 0.31536 0.48389 0.0
H1786 H 0.05026 0.25789 0.50517 0.0
H1787 H 0.19847 0.43737 0.4121 0.0
H1788 H 0.11775 0.18307 0.48092 0.0
H1789 H 0.16376 0.18686 0.44135 0.0
H1790 H 0.33321 0.42 0.3196 0.0
H1791 H 0.0757 0.20972 0.50451 0.0
H1792 H 0.25814 0.49093 0.31013 0.0
H1793 H 0.21211 0.48574 0.34822 0.0
N1794 N 0.23533 0.41373 0.40314 0.0
C1795 C 0.26053 0.4155 0.38064 0.0
C1796 C 0.21852 0.43915 0.39458 0.0
C1797 C 0.25216 0.46926 0.33672 0.0
C1798 C 0.22627 0.46672 0.35926 0.0
C1799 C 0.26982 0.4436 0.34787 0.0
H1800 H 0.30342 0.46635 0.30046 0.0
N1801 N 0.26714 0.36194 0.41916 0.0
C1802 C 0.27699 0.38901 0.3895 0.0
C1803 C 0.3201 0.36378 0.38062 0.0
C1804 C 0.30359 0.39048 0.36847 0.0
C1805 C 0.28379 0.33644 0.4339 0.0
C1806 C 0.31026 0.33678 0.41422 0.0
O1807 O 0.17279 0.29966 0.47947 0.0
O1808 O 0.18133 0.34832 0.48482 0.0
O1809 O 0.24052 0.34102 0.51799 0.0
O1810 O 0.22542 0.38917 0.50171 0.0
O1811 O 0.15828 0.36085 0.39696 0.0
O1812 O 0.19309 0.39128 0.37608 0.0
O1813 O 0.22657 0.366 0.36193 0.0
O1814 O 0.20616 0.32269 0.35019 0.0
O1815 O 0.17188 0.33035 0.31143 0.0
O1816 O 0.15115 0.28773 0.34221 0.0
O1817 O 0.23337 0.31562 0.43525 0.0
O1818 O 0.19715 0.28454 0.44315 0.0
C1819 C 0.17719 0.31888 0.50724 0.0
C1820 C 0.1699 0.38312 0.36256 0.0
C1821 C 0.24779 0.37031 0.58442 0.0
C1822 C 0.27223 0.35599 0.6672 0.0
C1823 C 0.24824 0.406 0.63898 0.0
C1824 C 0.24096 0.39903 0.59464 0.0
C1825 C 0.26299 0.38487 0.67481 0.0
C1826 C 0.26385 0.34834 0.62138 0.0
C1827 C 0.23843 0.36652 0.53336 0.0
C1828 C 0.31294 0.41853 0.33643 0.0
C1829 C 0.29603 0.44495 0.32579 0.0
H1830 H 0.34061 0.36397 0.36525 0.0
C1831 C 0.22121 0.34735 0.33426 0.0
C1832 C 0.2228 0.28873 0.43885 0.0
C1833 C 0.18063 0.29156 0.26806 0.0
C1834 C 0.19368 0.28569 0.18188 0.0
C1835 C 0.21638 0.2551 0.25591 0.0
C1836 C 0.19986 0.26869 0.28869 0.0
C1837 C 0.21317 0.26331 0.20279 0.0
C1838 C 0.17847 0.30092 0.21453 0.0
C1839 C 0.16278 0.30609 0.30147 0.0
H1840 H 0.24224 0.42824 0.64586 0.0
H1841 H 0.22958 0.41666 0.56815 0.0
H1842 H 0.2671 0.39163 0.7093 0.0
H1843 H 0.27014 0.32629 0.61404 0.0
H1844 H 0.2312 0.23752 0.27163 0.0
H1845 H 0.20272 0.2621 0.32966 0.0
H1846 H 0.22504 0.25125 0.17829 0.0
H1847 H 0.16386 0.31888 0.19902 0.0
C1848 C 0.0327 0.82383 0.57348 0.0
C1849 C 0.07492 0.84924 0.5517 0.0
C1850 C 0.04779 0.8497 0.56902 0.0
C1851 C 0.08687 0.82218 0.54157 0.0
C1852 C 0.04477 0.79656 0.56409 0.0
C1853 C 0.07193 0.79578 0.5485 0.0
N1854 N 0.00647 0.82486 0.58905 0.0
C1855 C 0.99138 0.79944 0.59723 0.0
C1856 C 0.02935 0.7705 0.57227 0.0
C1857 C 0.00254 0.77189 0.58872 0.0
Gd1858 Gd 0.94352 0.93235 0.54264 0.0
Gd1859 Gd 0.99234 0.86682 0.62098 0.0
N1860 N 0.0362 0.87478 0.5831 0.0
C1861 C 0.08947 0.87575 0.54616 0.0
C1862 C 0.0507 0.90034 0.57902 0.0
C1863 C 0.07722 0.90148 0.55946 0.0
H1864 H 0.04256 0.91975 0.59182 0.0
H1865 H 0.08844 0.92196 0.55605 0.0
H1866 H 0.89232 0.88706 0.58721 0.0
H1867 H 0.97117 0.79975 0.61337 0.0
H1868 H 0.84695 0.89126 0.62776 0.0
H1869 H 0.11025 0.87642 0.53244 0.0
H1870 H 0.10778 0.82127 0.5292 0.0
H1871 H 0.96841 0.0034 0.51245 0.0
H1872 H 0.03815 0.74911 0.56691 0.0
H1873 H 0.99067 0.75156 0.59633 0.0
H1874 H 0.83838 -0.00312 0.63815 0.0
H1875 H 0.08157 0.77484 0.54172 0.0
H1876 H 0.91054 0.06358 0.56572 0.0
H1877 H 0.95431 0.05559 0.52205 0.0
N1878 N 0.93349 0.98216 0.55252 0.0
C1879 C 0.90929 0.98602 0.57635 0.0
C1880 C 0.94951 0.00668 0.53251 0.0
C1881 C 0.9168 0.04061 0.56236 0.0
C1882 C 0.94152 0.03621 0.5376 0.0
C1883 C 0.90021 0.01546 0.58161 0.0
H1884 H 0.86736 0.04147 0.60895 0.0
N1885 N 0.90186 0.93285 0.58631 0.0
C1886 C 0.89298 0.96072 0.59353 0.0
C1887 C 0.85064 0.93888 0.62875 0.0
C1888 C 0.86711 0.96441 0.61533 0.0
C1889 C 0.88539 0.90845 0.59614 0.0
C1890 C 0.85975 0.91086 0.61869 0.0
O1891 O 0.9941 0.87476 0.53404 0.0
O1892 O 0.98546 0.92707 0.50869 0.0
O1893 O 0.92307 0.92025 0.48304 0.0
O1894 O 0.93544 0.96762 0.47286 0.0
O1895 O 0.99822 0.91464 0.62961 0.0
O1896 O 0.98453 0.94557 0.55184 0.0
O1897 O 0.93334 0.91349 0.63039 0.0
O1898 O 0.97203 0.89705 0.67175 0.0
O1899 O 0.02149 0.84323 0.67289 0.0
O1900 O 0.98049 0.82844 0.68581 0.0
O1901 O 0.94188 0.88563 0.52955 0.0
O1902 O 0.95108 0.85363 0.60818 0.0
C1903 C 0.99579 0.9014 0.49904 0.0
C1904 C 0.9949 0.94182 0.59635 0.0
C1905 C 0.89844 0.96079 0.43013 0.0
C1906 C 0.87954 0.98425 0.34865 0.0
C1907 C 0.85532 0.9875 0.42855 0.0
C1908 C 0.87633 0.9713 0.45653 0.0
C1909 C 0.85709 -0.00547 0.37434 0.0
C1910 C 0.89922 0.96579 0.37692 0.0
C1911 C 0.92289 0.94869 0.45429 0.0
C1912 C 0.8582 0.99359 0.62142 0.0
C1913 C 0.87471 0.01902 0.6047 0.0
H1914 H 0.83063 0.94078 0.64566 0.0
C1915 C 0.94796 0.91065 0.67055 0.0
C1916 C 0.94243 0.85821 0.56166 0.0
C1917 C 0.00764 0.81553 0.75659 0.0
C1918 C 0.02602 0.82514 0.83119 0.0
C1919 C -0.00054 0.77995 0.84076 0.0
C1920 C 0.99617 0.78858 0.78773 0.0
C1921 C 0.01429 0.79812 0.86256 0.0
C1922 C 0.02274 0.8336 0.7782 0.0
C1923 C 0.00466 0.8237 0.70132 0.0
H1924 H 0.83836 -0.00405 0.44871 0.0
H1925 H 0.87558 0.96776 0.49798 0.0
H1926 H 0.84192 0.00934 0.35259 0.0
H1927 H 0.91679 0.95827 0.35675 0.0
H1928 H 0.99041 0.75929 0.86501 0.0
H1929 H 0.98472 0.77429 0.77097 0.0
H1930 H 0.01566 0.79167 0.9042 0.0
H1931 H 0.03133 0.85474 0.75425 0.0
C1932 C 0.39007 0.76842 0.71675 0.0
C1933 C 0.36814 0.81925 0.70821 0.0
C1934 C 0.36879 0.7869 0.72999 0.0
C1935 C 0.38869 0.83277 0.67269 0.0
C1936 C 0.41135 0.78238 0.68287 0.0
C1937 C 0.41029 0.81449 0.66023 0.0
N1938 N 0.3909 0.73732 0.73939 0.0
C1939 C 0.41326 0.71958 0.73385 0.0
C1940 C 0.43358 0.76383 0.67424 0.0
C1941 C 0.43469 0.7324 0.7004 0.0
Gd1942 Gd 0.29927 0.66149 0.77922 0.0
Gd1943 Gd 0.35545 0.71977 0.79914 0.0
N1944 N 0.34931 0.77346 0.76568 0.0
C1945 C 0.34706 0.83725 0.72344 0.0
C1946 C 0.32915 0.79103 0.782 0.0
C1947 C 0.32756 0.82309 0.7606 0.0
H1948 H 0.31433 0.78045 0.81156 0.0
H1949 H 0.31145 0.83693 0.77318 0.0
H1950 H 0.33254 0.59482 0.82535 0.0
H1951 H 0.41462 0.69552 0.7556 0.0
H1952 H 0.32228 0.54171 0.87627 0.0
H1953 H 0.34592 0.86216 0.70741 0.0
H1954 H 0.38823 0.85751 0.65554 0.0
H1955 H 0.24192 0.70474 0.77705 0.0
H1956 H 0.45038 0.77376 0.64881 0.0
H1957 H 0.4522 0.71815 0.69543 0.0
H1958 H 0.2285 0.54724 0.91827 0.0
H1959 H 0.42633 0.82551 0.63377 0.0
H1960 H 0.1828 0.64648 0.87009 0.0
H1961 H 0.19683 0.6983 0.81775 0.0
N1962 N 0.25564 0.65924 0.81601 0.0
C1963 C 0.24874 0.63091 0.8462 0.0
C1964 C 0.237 0.68285 0.80381 0.0
C1965 C 0.20332 0.64979 0.85529 0.0
C1966 C 0.21099 0.67894 0.82545 0.0
C1967 C 0.22213 0.62511 0.86472 0.0
H1968 H 0.19439 0.58942 0.90141 0.0
N1969 N 0.29331 0.61292 0.83614 0.0
C1970 C 0.26802 0.60698 0.85587 0.0
C1971 C 0.28091 0.55314 0.89114 0.0
C1972 C 0.26105 0.57672 0.88321 0.0
C1973 C 0.31272 0.59003 0.84283 0.0
C1974 C 0.30689 0.55988 0.8711 0.0
O1975 O 0.32925 0.7418 0.73471 0.0
O1976 O 0.31268 0.70073 0.70996 0.0
O1977 O 0.30766 0.62926 0.73238 0.0
O1978 O 0.27117 0.65852 0.72423 0.0
O1979 O 0.31528 0.72301 0.8392 0.0
O1980 O 0.28846 0.70985 0.78295 0.0
O1981 O 0.30645 0.65172 0.86347 0.0
O1982 O 0.33777 0.68597 0.87425 0.0
O1983 O 0.37234 0.75095 0.83535 0.0
O1984 O 0.38843 0.70325 0.8493 0.0
O1985 O 0.34249 0.6495 0.7804 0.0
O1986 O 0.36665 0.6903 0.74053 0.0
C1987 C 0.32041 0.72963 0.69995 0.0
C1988 C 0.29183 0.72009 0.82323 0.0
C1989 C 0.27111 0.61174 0.70022 0.0
C1990 C 0.25573 0.596 0.62921 0.0
C1991 C 0.23243 0.58015 0.71373 0.0
C1992 C 0.24993 0.59704 0.73278 0.0
C1993 C 0.23477 0.58048 0.66127 0.0
C1994 C 0.27543 0.60829 0.65052 0.0
C1995 C 0.28532 0.63655 0.71008 0.0
C1996 C 0.23438 0.57065 0.8995 0.0
C1997 C 0.21499 0.59473 0.89021 0.0
H1998 H 0.27629 0.52957 0.91192 0.0
C1999 C 0.32068 0.66328 0.89262 0.0
C2000 C 0.35823 0.6629 0.74115 0.0
C2001 C 0.39594 0.73263 0.91042 0.0
C2002 C 0.38747 0.75387 0.98572 0.0
C2003 C 0.43037 0.72916 0.97008 0.0
C2004 C 0.42169 0.72347 0.92554 0.0
C2005 C 0.4135 0.74408 1.00003 0.0
C2006 C 0.37868 0.74786 0.94066 0.0
C2007 C 0.38963 0.73047 0.85888 0.0
H2008 H 0.21576 0.56926 0.73832 0.0
H2009 H 0.24605 0.59985 0.77133 0.0
H2010 H 0.21913 0.57125 0.6448 0.0
H2011 H 0.29146 0.62056 0.62524 0.0
H2012 H 0.45036 0.72225 0.98133 0.0
H2013 H 0.43536 0.71274 0.90181 0.0
H2014 H 0.42085 0.74747 0.03502 0.0
H2015 H 0.35893 0.75576 0.92838 0.0
C2016 C 0.37874 0.93574 0.75747 0.0
C2017 C 0.33213 0.95147 0.76049 0.0
C2018 C 0.35882 0.95871 0.74486 0.0
C2019 C 0.32566 0.92061 0.7841 0.0
C2020 C 0.37249 0.90508 0.78396 0.0
C2021 C 0.34579 0.89754 0.79627 0.0
N2022 N 0.40416 0.943 0.74085 0.0
C2023 C 0.42452 0.92145 0.75172 0.0
C2024 C 0.39318 0.88259 0.79468 0.0
C2025 C 0.41933 0.8909 0.77863 0.0
Gd2026 Gd 0.4251 0.07213 0.70654 0.0
Gd2027 Gd 0.4097 0.99024 0.67975 0.0
N2028 N 0.36549 0.98787 0.71707 0.0
C2029 C 0.3127 0.97538 0.7514 0.0
C2030 C 0.34685 0.01161 0.71155 0.0
C2031 C 0.32023 0.0057 0.7283 0.0
H2032 H 0.3521 0.0352 0.69516 0.0
H2033 H 0.30546 0.02455 0.72293 0.0
H2034 H 0.49135 0.07137 0.72073 0.0
H2035 H 0.4445 0.92742 0.73691 0.0
H2036 H 0.52954 0.10296 0.68057 0.0
H2037 H 0.29199 0.97079 0.76337 0.0
H2038 H 0.30509 0.91437 0.7927 0.0
H2039 H 0.37051 0.11965 0.68349 0.0
H2040 H 0.38914 0.85868 0.81437 0.0
H2041 H 0.43532 0.87354 0.78506 0.0
H2042 H 0.49016 0.19404 0.56967 0.0
H2043 H 0.34054 0.87385 0.81425 0.0
H2044 H 0.39484 0.20295 0.57228 0.0
H2045 H 0.3594 0.16896 0.62098 0.0
N2046 N 0.41206 0.12327 0.66477 0.0
C2047 C 0.43204 0.14145 0.63826 0.0
C2048 C 0.38628 0.13388 0.6616 0.0
C2049 C 0.40002 0.18083 0.59848 0.0
C2050 C 0.37989 0.16209 0.62672 0.0
C2051 C 0.42658 0.17093 0.60504 0.0
H2052 H 0.44383 0.21223 0.55397 0.0
N2053 N 0.46268 0.10246 0.6773 0.0
C2054 C 0.45814 0.13093 0.64553 0.0
C2055 C 0.50545 0.1394 0.63383 0.0
C2056 C 0.47944 0.15 0.62206 0.0
C2057 C 0.48783 0.09305 0.6922 0.0
C2058 C 0.5096 0.11102 0.66991 0.0
O2059 O 0.41776 0.99123 0.76066 0.0
O2060 O 0.3971 0.03758 0.76188 0.0
O2061 O 0.446 0.05565 0.78012 0.0
O2062 O 0.42451 0.10063 0.76071 0.0
O2063 O 0.38728 0.02892 0.62583 0.0
O2064 O 0.38979 0.07573 0.64912 0.0
O2065 O 0.44391 0.06768 0.62853 0.0
O2066 O 0.43044 0.02312 0.60798 0.0
O2067 O 0.39408 0.95352 0.65458 0.0
O2068 O 0.43567 0.96335 0.63683 0.0
O2069 O 0.45924 0.04336 0.69009 0.0
O2070 O 0.44519 -0.00518 0.72227 0.0
C2071 C 0.40545 0.00931 0.78698 0.0
C2072 C 0.38168 0.05893 0.61777 0.0
C2073 C 0.44773 0.08915 0.84241 0.0
C2074 C 0.47699 0.08894 0.91553 0.0
C2075 C 0.43812 0.1245 0.89701 0.0
C2076 C 0.43194 0.11268 0.85667 0.0
C2077 C 0.46017 0.11327 0.92519 0.0
C2078 C 0.47038 0.07657 0.87309 0.0
C2079 C 0.44033 0.08174 0.79269 0.0
C2080 C 0.47407 0.17919 0.5885 0.0
C2081 C 0.4477 0.18955 0.57971 0.0
H2082 H 0.52235 0.15327 0.61645 0.0
C2083 C 0.44254 0.05006 0.59581 0.0
C2084 C 0.46406 0.01378 0.7017 0.0
C2085 C 0.41313 0.93806 0.58503 0.0
C2086 C 0.39257 0.95096 0.50287 0.0
C2087 C 0.40688 0.89779 0.54218 0.0
C2088 C 0.41549 0.90693 0.58398 0.0
C2089 C 0.39531 0.91967 0.50177 0.0
C2090 C 0.40178 0.96003 0.54447 0.0
C2091 C 0.41641 0.94575 0.63354 0.0
H2092 H 0.4255 0.14271 0.90687 0.0
H2093 H 0.41462 0.12268 0.83585 0.0
H2094 H 0.46326 0.12346 0.95658 0.0
H2095 H 0.48302 0.05844 0.86303 0.0
H2096 H 0.40875 0.87369 0.54155 0.0
H2097 H 0.42338 0.88959 0.61624 0.0
H2098 H 0.3888 0.91217 0.46953 0.0
H2099 H 0.39895 0.98383 0.54672 0.0
C2100 C 0.72951 0.63851 0.35699 0.0
C2101 C 0.7033 0.59302 0.39521 0.0
C2102 C 0.70508 0.62403 0.36566 0.0
C2103 C 0.72632 0.57662 0.41543 0.0
C2104 C 0.75264 0.62197 0.37704 0.0
C2105 C 0.75086 0.59103 0.4064 0.0
N2106 N 0.73093 0.66802 0.32643 0.0
C2107 C 0.75467 0.6823 0.31399 0.0
C2108 C 0.77702 0.63669 0.36544 0.0
C2109 C 0.77804 0.66695 0.3337 0.0
Gd2110 Gd 0.64158 0.75265 0.33354 0.0
Gd2111 Gd 0.69123 0.6891 0.29043 0.0
N2112 N 0.68299 0.64055 0.3462 0.0
C2113 C 0.67842 0.57939 0.40345 0.0
C2114 C 0.65883 0.62728 0.35302 0.0
C2115 C 0.65611 0.5966 0.38225 0.0
H2116 H 0.64172 0.64017 0.33555 0.0
H2117 H 0.6369 0.58612 0.38788 0.0
H2118 H 0.69204 0.80441 0.32034 0.0
H2119 H 0.75554 0.70542 0.28835 0.0
H2120 H 0.70327 0.85539 0.26492 0.0
H2121 H 0.67625 0.55557 0.42584 0.0
H2122 H 0.72536 0.5527 0.43799 0.0
H2123 H 0.58083 0.74103 0.30892 0.0
H2124 H 0.79524 0.6247 0.38002 0.0
H2125 H 0.79686 0.6783 0.32385 0.0
H2126 H 0.62605 0.88987 0.16944 0.0
H2127 H 0.76844 0.57788 0.4218 0.0
H2128 H 0.54988 0.82705 0.21686 0.0
H2129 H 0.54297 0.7729 0.26879 0.0
N2130 N 0.60851 0.77658 0.28027 0.0
C2131 C 0.6126 0.80643 0.25341 0.0
C2132 C 0.58412 0.76417 0.28481 0.0
C2133 C 0.56664 0.81262 0.23279 0.0
C2134 C 0.56264 0.78224 0.26223 0.0
C2135 C 0.59208 0.8246 0.22612 0.0
H2136 H 0.58176 0.86851 0.17302 0.0
N2137 N 0.65568 0.80228 0.28585 0.0
C2138 C 0.63718 0.81914 0.25425 0.0
C2139 C 0.6667 0.86204 0.22628 0.0
C2140 C 0.64224 0.84943 0.22372 0.0
C2141 C 0.67867 0.81561 0.29136 0.0
C2142 C 0.68482 0.84522 0.2608 0.0
O2143 O 0.68201 0.67862 0.37927 0.0
O2144 O 0.6635 0.72218 0.40316 0.0
O2145 O 0.62696 0.78873 0.3688 0.0
O2146 O 0.60693 0.74493 0.38811 0.0
O2147 O 0.65015 0.69398 0.26332 0.0
O2148 O 0.62493 0.70751 0.32905 0.0
O2149 O 0.64762 0.75573 0.24726 0.0
O2150 O 0.691 0.73854 0.2406 0.0
O2151 O 0.6829 0.6641 0.23414 0.0
O2152 O 0.7223 0.68133 0.23489 0.0
O2153 O 0.6833 0.75147 0.35579 0.0
O2154 O 0.70746 0.73436 0.29134 0.0
C2155 C 0.67557 0.69417 0.41476 0.0
C2156 C 0.62706 0.69807 0.28641 0.0
C2157 C 0.60024 0.77673 0.44569 0.0
C2158 C 0.6133 0.78364 0.52632 0.0
C2159 C 0.56659 0.7864 0.50939 0.0
C2160 C 0.57342 0.78049 0.46143 0.0
C2161 C 0.58649 0.78777 0.54207 0.0
C2162 C 0.62019 0.7784 0.47804 0.0
C2163 C 0.60706 0.77287 0.39427 0.0
C2164 C 0.62248 0.86656 0.19285 0.0
C2165 C 0.59729 0.85439 0.19479 0.0
H2166 H 0.6713 0.88522 0.20342 0.0
C2167 C 0.67017 0.75459 0.21974 0.0
C2168 C 0.70577 0.74579 0.33157 0.0
C2169 C 0.7199 0.63609 0.20662 0.0
C2170 C 0.73274 0.60713 0.14267 0.0
C2171 C 0.75187 0.59306 0.22716 0.0
C2172 C 0.73795 0.61782 0.2401 0.0
C2173 C 0.74954 0.58779 0.17885 0.0
C2174 C 0.71634 0.62959 0.15955 0.0
C2175 C 0.70756 0.66484 0.21543 0.0
H2176 H 0.5459 0.78954 0.52145 0.0
H2177 H 0.55787 0.77942 0.43621 0.0
H2178 H 0.58095 0.79123 0.57994 0.0
H2179 H 0.64094 0.77488 0.46626 0.0
H2180 H 0.76575 0.57903 0.2534 0.0
H2181 H 0.74221 0.62315 0.27512 0.0
H2182 H 0.76233 0.56957 0.17002 0.0
H2183 H 0.70218 0.64428 0.13517 0.0
C2184 C 0.14602 0.9913 0.20606 0.0
C2185 C 0.13142 0.04386 0.16361 0.0
C2186 C 0.12619 0.01438 0.1968 0.0
C2187 C 0.15664 0.04932 0.13811 0.0
C2188 C 0.17201 -0.00239 0.18403 0.0
C2189 C 0.17706 0.02646 0.14885 0.0
N2190 N 0.14001 0.96293 0.23743 0.0
C2191 C 0.15948 0.94069 0.25204 0.0
C2192 C 0.19206 0.97468 0.19798 0.0
C2193 C 0.18584 0.94635 0.23299 0.0
Gd2194 Gd 0.04884 0.89848 0.18443 0.0
Gd2195 Gd 0.0946 0.95436 0.25886 0.0
N2196 N 0.10158 0.00771 0.21989 0.0
C2197 C 0.11116 0.06692 0.15707 0.0
C2198 C 0.08263 0.03106 0.21798 0.0
C2199 C 0.0869 0.06073 0.18563 0.0
H2200 H 0.06396 0.02715 0.24069 0.0
H2201 H 0.07143 0.07875 0.18262 0.0
H2202 H 0.08518 0.83695 0.16376 0.0
H2203 H 0.15451 0.91841 0.27772 0.0
H2204 H 0.0823 0.78002 0.18693 0.0
H2205 H 0.11434 0.08981 0.13153 0.0
H2206 H 0.16051 0.07128 0.11062 0.0
H2207 H 0.98643 0.92529 0.20165 0.0
H2208 H 0.21239 0.97872 0.18244 0.0
H2209 H 0.20124 0.92865 0.24469 0.0
H2210 H 0.99775 0.76114 0.28194 0.0
H2211 H 0.19669 0.03138 0.13002 0.0
H2212 H 0.93931 0.84888 0.28234 0.0
H2213 H 0.94339 0.90517 0.24306 0.0
N2214 N 0.00671 0.88161 0.21961 0.0
C2215 C 0.00462 0.85049 0.23815 0.0
C2216 C 0.98494 0.90104 0.21967 0.0
C2217 C 0.95832 0.85778 0.26477 0.0
C2218 C 0.96052 0.88956 0.24271 0.0
C2219 C 0.98033 0.83774 0.26168 0.0
H2220 H 0.96008 0.79525 0.29813 0.0
N2221 N 0.04887 0.84419 0.20467 0.0
C2222 C 0.02619 0.83124 0.23005 0.0
C2223 C 0.0441 0.78027 0.22851 0.0
C2224 C 0.0235 0.79881 0.24378 0.0
C2225 C 0.06845 0.82633 0.18778 0.0
C2226 C 0.06658 0.79412 0.20004 0.0
O2227 O 0.0929 0.97528 0.17468 0.0
O2228 O 0.07918 0.93603 0.13905 0.0
O2229 O 0.05579 0.89277 0.1075 0.0
O2230 O 0.02153 0.92081 0.12718 0.0
O2231 O 0.05396 0.97815 0.236 0.0
O2232 O 0.05558 0.93868 0.20783 0.0
O2233 O 0.03382 0.90224 0.26447 0.0
O2234 O 0.07532 0.90745 0.29065 0.0
O2235 O 0.07507 0.96955 0.32402 0.0
O2236 O 0.11542 0.95103 0.32871 0.0
O2237 O 0.08635 0.87749 0.21887 0.0
O2238 O 0.11535 0.91673 0.2152 0.0
C2239 C 0.09299 0.96134 0.13753 0.0
C2240 C 0.04216 0.96353 0.20916 0.0
C2241 C 0.01827 0.89669 0.05989 0.0
C2242 C 0.01673 0.88394 0.97863 0.0
C2243 C 0.97591 0.88715 0.03119 0.0
C2244 C 0.99051 0.89475 0.06803 0.0
C2245 C 0.98891 0.88226 0.98606 0.0
C2246 C 0.03134 0.88976 1.01655 0.0
C2247 C 0.03415 0.90899 0.09212 0.0
C2248 C -9e-05 0.78602 0.2701 0.0
C2249 C 0.97844 0.80544 0.27929 0.0
H2250 H 0.04259 0.75534 0.23748 0.0
C2251 C 0.04939 0.9042 0.30101 0.0
C2252 C 0.10899 0.89056 0.20225 0.0
C2253 C 0.10403 0.99241 0.36894 0.0
C2254 C 0.09782 0.02652 0.4285 0.0
C2255 C 0.13387 0.03464 0.36138 0.0
C2256 C 0.12598 0.00977 0.34437 0.0
C2257 C 0.11996 0.04291 0.40293 0.0
C2258 C 0.0898 0.00101 0.41141 0.0
C2259 C 0.09641 0.96557 0.34993 0.0
H2260 H 0.95452 0.88565 0.03711 0.0
H2261 H 0.98012 0.89967 0.10198 0.0
H2262 H 0.97739 0.87668 0.95739 0.0
H2263 H 0.05285 0.89096 1.0105 0.0
H2264 H 0.15097 0.04757 0.34231 0.0
H2265 H 0.13726 0.00404 0.31196 0.0
H2266 H 0.12662 0.06223 0.41548 0.0
H2267 H 0.0729 0.98789 0.43113 0.0
C2268 C 0.73537 0.40963 0.90723 0.0
C2269 C 0.69096 0.38951 0.92067 0.0
C2270 C 0.71846 0.38544 0.9283 0.0
C2271 C 0.68114 0.41721 0.8881 0.0
C2272 C 0.72543 0.43782 0.87562 0.0
C2273 C 0.69837 0.44125 0.86537 0.0
N2274 N 0.7614 0.40579 0.91869 0.0
C2275 C 0.77805 0.42999 0.90209 0.0
C2276 C 0.74302 0.46173 0.85514 0.0
C2277 C 0.76944 0.45772 0.86835 0.0
Gd2278 Gd 0.82795 0.29994 0.87093 0.0
Gd2279 Gd 0.77572 0.35456 0.9595 0.0
N2280 N 0.72864 0.35869 0.9589 0.0
C2281 C 0.674 0.36611 0.94763 0.0
C2282 C 0.7118 0.33732 0.98936 0.0
C2283 C 0.6844 0.34037 0.98332 0.0
H2284 H 0.71947 0.31748 0.01783 0.0
H2285 H 0.67134 0.32299 1.00652 0.0
H2286 H 0.8867 0.33781 0.88269 0.0
H2287 H 0.79831 0.42772 0.91332 0.0
H2288 H 0.93382 0.32482 0.88174 0.0
H2289 H 0.65276 0.36835 0.94299 0.0
H2290 H 0.66015 0.42054 0.88118 0.0
H2291 H 0.799 0.23171 0.91153 0.0
H2292 H 0.73634 0.48348 0.82971 0.0
H2293 H 0.78327 0.47592 0.85219 0.0
H2294 H 0.93991 0.21657 0.89063 0.0
H2295 H 0.69045 0.46264 0.84081 0.0
H2296 H 0.8598 0.16034 0.92916 0.0
H2297 H 0.8121 0.17623 0.93163 0.0
N2298 N 0.83832 0.24705 0.90304 0.0
C2299 C 0.86464 0.23893 0.90203 0.0
C2300 C 0.81962 0.22497 0.9135 0.0
C2301 C 0.85402 0.1847 0.92233 0.0
C2302 C 0.8271 0.19353 0.92398 0.0
C2303 C 0.87317 0.20744 0.91077 0.0
H2304 H 0.90724 0.17577 0.91106 0.0
N2305 N 0.87453 0.29224 0.88351 0.0
C2306 C 0.88318 0.26208 0.89108 0.0
C2307 C 0.92897 0.27699 0.88457 0.0
C2308 C 0.91063 0.25392 0.88966 0.0
C2309 C 0.89254 0.31422 0.88363 0.0
C2310 C 0.91983 0.30702 0.88339 0.0
O2311 O 0.76574 0.36154 0.8783 0.0
O2312 O 0.79961 0.34014 0.82964 0.0
O2313 O 0.84012 0.30876 0.78931 0.0
O2314 O 0.80894 0.27641 0.82368 0.0
O2315 O 0.75495 0.31042 0.95546 0.0
O2316 O 0.78992 0.30907 0.90735 0.0
O2317 O 0.81885 0.27852 0.9549 0.0
O2318 O 0.8139 0.3248 0.97764 0.0
O2319 O 0.76709 0.33544 0.04233 0.0
O2320 O 0.77833 0.38318 1.01321 0.0
O2321 O 0.84115 0.34057 0.89455 0.0
O2322 O 0.81007 0.37901 0.89782 0.0
C2323 C 0.77839 0.35885 0.835 0.0
C2324 C 0.7676 0.29619 0.92424 0.0
C2325 C 0.83464 0.26818 0.75211 0.0
C2326 C 0.84441 0.25799 0.66883 0.0
C2327 C 0.85746 0.22013 0.74663 0.0
C2328 C 0.84633 0.23937 0.77608 0.0
C2329 C 0.85648 0.22929 0.69308 0.0
C2330 C 0.83373 0.2776 0.69836 0.0
C2331 C 0.82369 0.28899 0.78215 0.0
C2332 C 0.91898 0.22294 0.89435 0.0
C2333 C 0.90037 0.19969 0.90589 0.0
H2334 H 0.95017 0.27164 0.88349 0.0
C2335 C 0.81536 0.29409 0.99061 0.0
C2336 C 0.83209 0.3687 0.875 0.0
C2337 C 0.74406 0.37171 0.0816 0.0
C2338 C 0.71379 0.36496 0.16004 0.0
C2339 C 0.70297 0.40296 0.08045 0.0
C2340 C 0.7264 0.39492 0.05535 0.0
C2341 C 0.6967 0.38817 0.13223 0.0
C2342 C 0.73772 0.35682 0.13448 0.0
C2343 C 0.76811 0.36221 0.05275 0.0
H2344 H 0.86681 0.19819 0.76553 0.0
H2345 H 0.84683 0.23155 0.81728 0.0
H2346 H 0.86549 0.21423 0.67037 0.0
H2347 H 0.82486 0.30003 0.67964 0.0
H2348 H 0.68962 0.42093 0.05969 0.0
H2349 H 0.73063 0.40695 1.01519 0.0
H2350 H 0.67864 0.39546 0.15098 0.0
H2351 H 0.75112 0.33887 0.15534 0.0
C2352 C 0.37565 0.03576 0.04542 0.0
C2353 C 0.32949 0.02297 0.05011 0.0
C2354 C 0.35556 0.01569 0.06634 0.0
C2355 C 0.3248 0.04877 1.00822 0.0
C2356 C 0.37063 0.06312 1.00634 0.0
C2357 C 0.34545 0.06872 0.98604 0.0
N2358 N 0.39941 0.03001 0.06707 0.0
C2359 C 0.41831 0.05186 0.0543 0.0
C2360 C 0.39053 0.08485 0.99121 0.0
C2361 C 0.41405 0.07962 1.01693 0.0
Gd2362 Gd 0.44153 0.90246 0.08555 0.0
Gd2363 Gd 0.40642 0.9801 0.12199 0.0
N2364 N 0.36083 0.99143 0.10733 0.0
C2365 C 0.30874 0.00536 0.07878 0.0
C2366 C 0.34032 0.97729 0.13933 0.0
C2367 C 0.31407 0.98309 0.12468 0.0
H2368 H 0.34428 0.96179 0.1762 0.0
H2369 H 0.29797 0.9708 0.14921 0.0
H2370 H 0.50614 0.91232 0.04699 0.0
H2371 H 0.43611 0.04865 0.07464 0.0
H2372 H 0.54888 0.88331 0.06419 0.0
H2373 H 0.28839 0.01022 0.06781 0.0
H2374 H 0.30501 0.05442 0.99453 0.0
H2375 H 0.39442 0.84849 0.13403 0.0
H2376 H 0.3872 0.10658 0.9625 0.0
H2377 H 0.42847 0.09738 1.00976 0.0
H2378 H 0.52496 0.78881 0.18891 0.0
H2379 H 0.34133 0.08937 0.95545 0.0
H2380 H 0.43293 0.77324 0.24074 0.0
H2381 H 0.39237 0.7987 0.20282 0.0
N2382 N 0.4363 0.85096 0.13516 0.0
C2383 C 0.45924 0.83597 0.15322 0.0
C2384 C 0.4125 0.8371 0.15003 0.0
C2385 C 0.43424 0.79471 0.21044 0.0
C2386 C 0.41112 0.8092 0.18895 0.0
C2387 C 0.45881 0.80719 0.19071 0.0
H2388 H 0.48297 0.7694 0.23524 0.0
N2389 N 0.4833 0.87766 0.10014 0.0
C2390 C 0.48338 0.84899 0.13318 0.0
C2391 C 0.53117 0.8443 0.11918 0.0
C2392 C 0.50742 0.83188 0.14479 0.0
C2393 C 0.50637 0.88996 0.07495 0.0
C2394 C 0.53064 0.87353 0.08424 0.0
O2395 O 0.41724 0.98292 0.03761 0.0
O2396 O 0.40862 0.93296 0.03943 0.0
O2397 O 0.45941 0.91784 1.00593 0.0
O2398 O 0.44168 0.87189 0.03505 0.0
O2399 O 0.38204 0.93882 0.12703 0.0
O2400 O 0.40865 0.89602 0.15185 0.0
O2401 O 0.45764 0.90758 0.16023 0.0
O2402 O 0.43526 0.95034 0.18135 0.0
O2403 O 0.39798 0.97429 0.20399 0.0
O2404 O 0.41499 0.01701 0.15605 0.0
O2405 O 0.46964 0.93775 0.08883 0.0
O2406 O 0.44442 0.98263 0.07137 0.0
C2407 C 0.41136 0.96242 1.01319 0.0
C2408 C 0.38692 0.91226 0.15987 0.0
C2409 C 0.46221 0.88369 0.94639 0.0
C2410 C 0.48991 0.88788 0.8644 0.0
C2411 C 0.45506 0.85002 0.89132 0.0
C2412 C 0.44865 0.85967 0.93598 0.0
C2413 C 0.47529 0.86385 0.85611 0.0
C2414 C 0.4829 0.89821 0.90994 0.0
C2415 C 0.45507 0.89113 0.99709 0.0
C2416 C 0.50691 0.80281 0.18081 0.0
C2417 C 0.48285 0.79138 0.20605 0.0
H2418 H 0.54997 0.83146 0.12576 0.0
C2419 C 0.45188 0.92558 0.19225 0.0
C2420 C 0.46697 0.96751 0.08277 0.0
C2421 C 0.3861 0.01991 0.22848 0.0
C2422 C 0.3667 0.0259 0.31053 0.0
C2423 C 0.35839 0.06547 0.23185 0.0
C2424 C 0.3734 0.04775 0.20318 0.0
C2425 C 0.35556 0.05488 0.28589 0.0
C2426 C 0.38199 0.00865 0.28179 0.0
C2427 C 0.40462 0.00248 0.20136 0.0
H2428 H 0.44425 0.83154 0.88391 0.0
H2429 H 0.43293 0.84806 0.96267 0.0
H2430 H 0.47932 0.85566 0.82161 0.0
H2431 H 0.49393 0.91641 0.91779 0.0
H2432 H 0.34936 0.08754 0.21233 0.0
H2433 H 0.37544 0.05547 0.16168 0.0
H2434 H 0.34504 0.06924 0.30814 0.0
H2435 H 0.39162 0.98683 0.30139 0.0
C2436 C 0.74158 0.57155 0.88919 0.0
C2437 C 0.69743 0.595 0.89683 0.0
C2438 C 0.72426 0.59705 0.87761 0.0
C2439 C 0.68852 0.56697 0.92963 0.0
C2440 C 0.73242 0.543 0.9204 0.0
C2441 C 0.70592 0.54095 0.9411 0.0
N2442 N 0.76719 0.57452 0.86905 0.0
C2443 C 0.78427 0.54931 0.87625 0.0
C2444 C 0.75028 0.5175 0.93035 0.0
C2445 C 0.77629 0.52075 0.90835 0.0
Gd2446 Gd 0.83406 0.67529 0.88419 0.0
Gd2447 Gd 0.77989 0.62557 0.82853 0.0
N2448 N 0.73362 0.62381 0.84659 0.0
C2449 C 0.68037 0.62114 0.88217 0.0
C2450 C 0.71673 0.64872 0.82925 0.0
C2451 C 0.69 0.64799 0.84745 0.0
H2452 H 0.72402 0.6695 0.80235 0.0
H2453 H 0.67691 0.66816 0.83494 0.0
H2454 H 0.88845 0.62217 0.87952 0.0
H2455 H 0.80442 0.55166 0.85927 0.0
H2456 H 0.93324 0.62496 0.8405 0.0
H2457 H 0.65968 0.62062 0.89647 0.0
H2458 H 0.6682 0.5651 0.94595 0.0
H2459 H 0.81345 0.74977 0.86498 0.0
H2460 H 0.7442 0.49523 0.95475 0.0
H2461 H 0.79027 0.50128 0.91676 0.0
H2462 H 0.94755 0.73266 0.77052 0.0
H2463 H 0.69866 0.51932 0.96584 0.0
H2464 H 0.87786 0.8059 0.78989 0.0
H2465 H 0.83157 0.80122 0.82762 0.0
N2466 N 0.84943 0.7252 0.85149 0.0
C2467 C 0.87493 0.72699 0.8311 0.0
C2468 C 0.83387 0.75133 0.85015 0.0
C2469 C 0.8701 0.78311 0.80714 0.0
C2470 C 0.844 0.78062 0.82842 0.0
C2471 C 0.88585 0.75625 0.80799 0.0
H2472 H 0.92065 0.7802 0.76825 0.0
N2473 N 0.87982 0.67144 0.85687 0.0
C2474 C 0.89033 0.69968 0.83335 0.0
C2475 C 0.93197 0.67458 0.81312 0.0
C2476 C 0.91674 0.70178 0.81119 0.0
C2477 C 0.89537 0.64487 0.86021 0.0
C2478 C 0.92137 0.64612 0.8382 0.0
O2479 O 0.76238 0.64265 0.89389 0.0
O2480 O 0.79951 0.64846 0.93645 0.0
O2481 O 0.8218 0.66201 0.96565 0.0
O2482 O 0.84901 0.6993 0.93698 0.0
O2483 O 0.76598 0.67304 0.84169 0.0
O2484 O 0.80192 0.70376 0.83903 0.0
O2485 O 0.82479 0.6908 0.80042 0.0
O2486 O 0.82013 0.64217 0.79234 0.0
O2487 O 0.76812 0.65298 0.75179 0.0
O2488 O 0.77626 0.60405 0.76499 0.0
O2489 O 0.84352 0.62781 0.87702 0.0
O2490 O 0.80821 0.59773 0.89717 0.0
C2491 C 0.77482 0.63942 0.93595 0.0
C2492 C 0.77648 0.69934 0.84287 0.0
C2493 C 0.81867 0.70084 1.00877 0.0
C2494 C 0.8059 0.70692 0.09488 0.0
C2495 C 0.78693 0.74161 0.01966 0.0
C2496 C 0.80216 0.72645 0.98747 0.0
C2497 C 0.78872 0.73193 0.07316 0.0
C2498 C 0.81965 0.6904 0.0625 0.0
C2499 C 0.83439 0.68377 0.97647 0.0
C2500 C 0.92735 0.73086 0.78762 0.0
C2501 C 0.91204 0.75796 0.7863 0.0
H2502 H 0.952 0.67537 0.79547 0.0
C2503 C 0.82314 0.67193 0.77094 0.0
C2504 C 0.83209 0.60472 0.91008 0.0
C2505 C 0.7439 0.62684 0.70159 0.0
C2506 C 0.71758 0.64114 0.62214 0.0
C2507 C 0.70526 0.5978 0.6955 0.0
C2508 C 0.72621 0.60293 0.72301 0.0
C2509 C 0.70104 0.61653 0.64605 0.0
C2510 C 0.73936 0.64633 0.65038 0.0
C2511 C 0.76757 0.62931 0.73223 0.0
H2512 H 0.77428 0.76148 1.00311 0.0
H2513 H 0.80083 0.73454 0.94628 0.0
H2514 H 0.7779 0.74501 0.09734 0.0
H2515 H 0.83237 0.67046 0.0785 0.0
H2516 H 0.69218 0.57889 0.71261 0.0
H2517 H 0.72876 0.58764 0.76121 0.0
H2518 H 0.68458 0.61167 0.62596 0.0
H2519 H 0.75287 0.66468 0.63245 0.0
C2520 C 0.09418 0.00348 0.70419 0.0
C2521 C 0.13667 0.02812 0.67824 0.0
C2522 C 0.10963 0.0296 0.69537 0.0
C2523 C 0.14822 -1e-05 0.6719 0.0
C2524 C 0.10572 0.97534 0.69713 0.0
C2525 C 0.13284 0.97368 0.68147 0.0
N2526 N 0.06776 0.00592 0.71765 0.0
C2527 C 0.05193 0.98099 0.72572 0.0
C2528 C 0.0896 0.94973 0.70535 0.0
C2529 C 0.0626 0.95258 0.71975 0.0
Gd2530 Gd 0.01032 0.12244 0.64477 0.0
Gd2531 Gd 0.05341 0.05367 0.73299 0.0
N2532 N 0.09771 0.05696 0.6998 0.0
C2533 C 0.15117 0.05519 0.66671 0.0
C2534 C 0.11183 0.08327 0.68938 0.0
C2535 C 0.13866 0.08285 0.67221 0.0
H2536 H 0.10257 0.10465 0.69394 0.0
H2537 H 0.14966 0.10389 0.66328 0.0
H2538 H 0.96195 0.0673 0.6809 0.0
H2539 H 0.03107 0.98297 0.73762 0.0
H2540 H 0.91518 0.06537 0.71059 0.0
H2541 H 0.17194 0.05505 0.65313 0.0
H2542 H 0.16899 -0.00157 0.65891 0.0
H2543 H 0.02955 0.19172 0.6495 0.0
H2544 H 0.09778 0.92772 0.70048 0.0
H2545 H 0.05 0.9329 0.72634 0.0
H2546 H 0.89155 0.16862 0.7187 0.0
H2547 H 0.14204 0.95225 0.67592 0.0
H2548 H 0.95884 0.24372 0.67719 0.0
H2549 H 0.00761 0.24119 0.65717 0.0
N2550 N 0.99397 0.16669 0.66829 0.0
C2551 C 0.96737 0.16744 0.68088 0.0
C2552 C 0.00859 0.19242 0.66103 0.0
C2553 C 0.96877 0.22189 0.6764 0.0
C2554 C 0.99618 0.2205 0.66471 0.0
C2555 C 0.95415 0.19511 0.68597 0.0
H2556 H 0.91626 0.21663 0.70299 0.0
N2557 N 0.96598 0.11456 0.67944 0.0
C2558 C 0.95314 0.14061 0.68771 0.0
C2559 C 0.91205 0.11334 0.71139 0.0
C2560 C 0.92572 0.14076 0.70275 0.0
C2561 C 0.95252 0.08786 0.68751 0.0
C2562 C 0.92559 0.08671 0.7042 0.0
O2563 O 0.06663 0.06134 0.648 0.0
O2564 O 0.03818 0.09712 0.59648 0.0
O2565 O 0.98342 0.13819 0.58521 0.0
O2566 O 0.02137 0.16196 0.57966 0.0
O2567 O 0.05679 0.10045 0.74684 0.0
O2568 O 0.0498 0.13471 0.66791 0.0
O2569 O 0.00413 0.11604 0.73103 0.0
O2570 O 0.01044 0.06379 0.75501 0.0
O2571 O 0.07222 0.05271 0.80466 0.0
O2572 O 0.04933 0.0139 0.79597 0.0
O2573 O 0.00538 0.0757 0.63149 0.0
O2574 O 0.01347 0.04462 0.71175 0.0
C2575 C 0.05825 0.07634 0.60245 0.0
C2576 C 0.05655 0.12863 0.71624 0.0
C2577 C 0.99119 0.17936 0.51023 0.0
C2578 C 0.97122 0.1825 0.42948 0.0
C2579 C 0.98974 0.22816 0.44539 0.0
C2580 C 0.99677 0.21078 0.49405 0.0
C2581 C 0.97717 0.21416 0.41311 0.0
C2582 C 0.97847 0.16534 0.47836 0.0
C2583 C 0.99857 0.16071 0.56027 0.0
C2584 C 0.91265 0.16826 0.70817 0.0
C2585 C 0.92671 0.19546 0.69924 0.0
H2586 H 0.89104 0.11252 0.72337 0.0
C2587 C 0.00188 0.08958 0.76605 0.0
C2588 C 0.00794 0.04831 0.66383 0.0
C2589 C 0.06745 0.00671 0.87672 0.0
C2590 C 0.0928 0.99403 0.95196 0.0
C2591 C 0.05473 0.96378 0.94854 0.0
C2592 C 0.05059 0.98219 0.89939 0.0
C2593 C 0.07589 0.96925 0.97478 0.0
C2594 C 0.08835 0.01295 0.9031 0.0
C2595 C 0.06362 0.02477 0.82477 0.0
H2596 H 0.99428 0.25244 0.43242 0.0
H2597 H 0.00658 0.22173 0.51887 0.0
H2598 H 0.9726 0.22814 0.3751 0.0
H2599 H 0.97551 0.1406 0.49096 0.0
H2600 H 0.04106 0.94593 0.9665 0.0
H2601 H 0.03404 0.97741 0.87941 0.0
H2602 H 0.07824 0.95508 1.01385 0.0
H2603 H 0.1009 0.03248 0.88615 0.0
C2604 C 0.74841 0.36056 0.41685 0.0
C2605 C 0.72644 0.41156 0.39459 0.0
C2606 C 0.72553 0.37952 0.41801 0.0
C2607 C 0.75099 0.42467 0.37474 0.0
C2608 C 0.77279 0.37347 0.39514 0.0
C2609 C 0.77416 0.40575 0.37633 0.0
N2610 N 0.74666 0.32945 0.43651 0.0
C2611 C 0.76784 0.30974 0.43246 0.0
C2612 C 0.7951 0.35352 0.39364 0.0
C2613 C 0.79242 0.32149 0.41101 0.0
Gd2614 Gd 0.64242 0.28055 0.47175 0.0
Gd2615 Gd 0.70922 0.31609 0.49245 0.0
N2616 N 0.70233 0.36643 0.44063 0.0
C2617 C 0.70269 0.42944 0.39215 0.0
C2618 C 0.67902 0.38348 0.43718 0.0
C2619 C 0.67882 0.4152 0.41253 0.0
H2620 H 0.66055 0.3729 0.45282 0.0
H2621 H 0.6603 0.42872 0.4099 0.0
H2622 H 0.68312 0.21238 0.48833 0.0
H2623 H 0.76643 0.28527 0.45011 0.0
H2624 H 0.68136 0.15933 0.53854 0.0
H2625 H 0.70249 0.45414 0.37401 0.0
H2626 H 0.75227 0.44944 0.35816 0.0
H2627 H 0.58579 0.3135 0.50443 0.0
H2628 H 0.81447 0.36249 0.37914 0.0
H2629 H 0.80952 0.30592 0.40986 0.0
H2630 H 0.596 0.15201 0.62918 0.0
H2631 H 0.79302 0.41627 0.36238 0.0
H2632 H 0.53942 0.24286 0.60762 0.0
H2633 H 0.54403 0.29736 0.55704 0.0
N2634 N 0.60481 0.26912 0.52776 0.0
C2635 C 0.60286 0.23889 0.55511 0.0
C2636 C 0.58417 0.28998 0.52801 0.0
C2637 C 0.55797 0.24999 0.58564 0.0
C2638 C 0.56049 0.28081 0.5572 0.0
C2639 C 0.57919 0.22859 0.58477 0.0
H2640 H 0.5589 0.18895 0.63399 0.0
N2641 N 0.64631 0.22767 0.52038 0.0
C2642 C 0.62411 0.21778 0.55196 0.0
C2643 C 0.64288 0.16531 0.57524 0.0
C2644 C 0.62179 0.18623 0.57938 0.0
C2645 C 0.66639 0.20661 0.51509 0.0
C2646 C 0.66525 0.17559 0.54313 0.0
O2647 O 0.70462 0.32196 0.40913 0.0
O2648 O 0.65956 0.31766 0.4004 0.0
O2649 O 0.62343 0.24729 0.44387 0.0
O2650 O 0.60975 0.29564 0.41962 0.0
O2651 O 0.67488 0.33114 0.53962 0.0
O2652 O 0.63463 0.32298 0.50787 0.0
O2653 O 0.65161 0.27318 0.55425 0.0
O2654 O 0.69681 0.27017 0.54419 0.0
O2655 O 0.72452 0.34374 0.53661 0.0
O2656 O 0.74596 0.30158 0.52943 0.0
O2657 O 0.67913 0.26533 0.43102 0.0
O2658 O 0.71034 0.26729 0.48716 0.0
C2659 C 0.68415 0.32513 0.38081 0.0
C2660 C 0.64881 0.33417 0.53912 0.0
C2661 C 0.60027 0.26028 0.36934 0.0
C2662 C 0.61259 0.23724 0.29752 0.0
C2663 C 0.56604 0.24414 0.32431 0.0
C2664 C 0.57344 0.25684 0.36312 0.0
C2665 C 0.5854 0.23442 0.29169 0.0
C2666 C 0.61998 0.25045 0.33647 0.0
C2667 C 0.60672 0.26714 0.41737 0.0
C2668 C 0.59824 0.17619 0.60888 0.0
C2669 C 0.57704 0.19724 0.6115 0.0
H2670 H 0.64181 0.14098 0.59545 0.0
C2671 C 0.67471 0.2655 0.57333 0.0
C2672 C 0.70348 0.26038 0.44573 0.0
C2673 C 0.74791 0.31618 0.60592 0.0
C2674 C 0.7462 0.33317 0.68319 0.0
C2675 C 0.76489 0.282 0.68329 0.0
C2676 C 0.75946 0.28746 0.63155 0.0
C2677 C 0.75905 0.30527 0.70851 0.0
C2678 C 0.74083 0.33863 0.6322 0.0
C2679 C 0.74435 0.32428 0.55125 0.0
H2680 H 0.54526 0.2413 0.31996 0.0
H2681 H 0.5583 0.26255 0.39016 0.0
H2682 H 0.57898 0.22522 0.26118 0.0
H2683 H 0.64085 0.25213 0.34228 0.0
H2684 H 0.77475 0.2605 0.70298 0.0
H2685 H 0.76508 0.26982 0.6114 0.0
H2686 H 0.76611 0.30237 0.7463 0.0
H2687 H 0.73257 0.3612 0.6124 0.0
C2688 C 0.11397 0.54392 0.37197 0.0
C2689 C 0.1356 0.53775 0.33984 0.0
H2690 H 0.09042 0.52695 0.44275 0.0
C2691 C 0.15322 0.51264 0.35847 0.0
H2692 H 0.09982 0.56279 0.35764 0.0
C2693 C 0.14761 0.49186 0.40624 0.0
C2694 C 0.12437 0.49613 0.43596 0.0
H2695 H 0.16948 0.50712 0.3333 0.0
H2696 H 0.16022 0.47121 0.41808 0.0
C2697 C 0.10845 0.52324 0.42019 0.0
C2698 C 0.73204 0.87769 0.74657 0.0
C2699 C 0.74227 0.85976 0.79236 0.0
H2700 H 0.73668 0.88961 0.6641 0.0
C2701 C 0.7687 0.84796 0.79202 0.0
H2702 H 0.71227 0.88817 0.74655 0.0
C2703 C 0.78229 0.84803 0.74505 0.0
C2704 C 0.76939 0.86043 0.69934 0.0
H2705 H 0.77739 0.83494 0.82744 0.0
H2706 H 0.80038 0.83378 0.74505 0.0
C2707 C 0.74628 0.87915 0.69974 0.0
C2708 C 0.39607 0.5304 0.72255 0.0
C2709 C 0.40134 0.51581 0.6825 0.0
H2710 H 0.39777 0.52534 0.80353 0.0
C2711 C 0.40219 0.48325 0.69409 0.0
H2712 H 0.39379 0.55522 0.7148 0.0
C2713 C 0.40489 0.46616 0.74481 0.0
C2714 C 0.4054 0.48183 0.78327 0.0
H2715 H 0.4049 0.47118 0.664 0.0
H2716 H 0.41043 0.44171 0.75263 0.0
C2717 C 0.39783 0.51323 0.77339 0.0
C2718 C 0.7425 0.10652 0.07005 0.0
C2719 C 0.7684 0.11789 0.06243 0.0
H2720 H 0.70638 0.10739 0.03244 0.0
C2721 C 0.78243 0.12113 1.01486 0.0
H2722 H 0.73187 0.10208 0.1078 0.0
C2723 C 0.76805 0.12388 0.97204 0.0
C2724 C 0.74007 0.12231 0.97836 0.0
H2725 H 0.80284 0.12843 1.00926 0.0
H2726 H 0.77845 0.13186 0.93439 0.0
C2727 C 0.72768 0.11036 0.02723 0.0
C2728 C 0.88781 0.44314 0.90901 0.0
C2729 C 0.86472 0.44423 0.94105 0.0
H2730 H 0.90921 0.4645 0.83776 0.0
C2731 C 0.84291 0.46316 0.92131 0.0
H2732 H 0.90504 0.42913 0.92428 0.0
C2733 C 0.84516 0.48326 0.87181 0.0
C2734 C 0.8695 0.48523 0.84225 0.0
H2735 H 0.8252 0.46456 0.94614 0.0
H2736 H 0.82872 0.4992 0.85848 0.0
C2737 C 0.8902 0.46354 0.85968 0.0
C2738 C 0.21501 0.13418 0.53619 0.0
C2739 C 0.22992 0.12492 0.58002 0.0
H2740 H 0.21693 0.14634 0.4536 0.0
C2741 C 0.25467 0.10968 0.57675 0.0
H2742 H 0.1953 0.14487 0.5385 0.0
C2743 C 0.26776 0.113 0.52837 0.0
C2744 C 0.25542 0.12999 0.48424 0.0
H2745 H 0.26591 0.10103 0.61089 0.0
H2746 H 0.28806 0.10479 0.52609 0.0
C2747 C 0.22782 0.13627 0.48767 0.0
C2748 C 0.62086 0.49587 0.52117 0.0
C2749 C 0.60365 0.49366 0.48382 0.0
H2750 H 0.62659 0.48597 0.60237 0.0
C2751 C 0.57869 0.48056 0.49882 0.0
H2752 H 0.64008 0.50615 0.50987 0.0
C2753 C 0.57091 0.46988 0.55053 0.0
C2754 C 0.58815 0.47149 0.58799 0.0
H2755 H 0.56512 0.47851 0.47045 0.0
H2756 H 0.55144 0.46037 0.56103 0.0
C2757 C 0.61303 0.48485 0.57349 0.0
C2758 C 0.26545 0.8293 0.27161 0.0
C2759 C 0.26533 0.85152 0.29917 0.0
H2760 H 0.26111 0.82063 0.19924 0.0
C2761 C 0.2563 0.88211 0.27789 0.0
H2762 H 0.27211 0.80566 0.28833 0.0
C2763 C 0.25011 0.8912 0.22618 0.0
C2764 C 0.25208 0.86923 0.19736 0.0
H2765 H 0.25636 0.89938 0.29963 0.0
H2766 H 0.24514 0.91527 0.20814 0.0
C2767 C 0.25895 0.83803 0.22092 0.0
C2768 C 0.60741 0.02208 0.92067 0.0
C2769 C 0.62733 -0.00091 0.93707 0.0
H2770 H 0.59322 0.05764 0.85698 0.0
C2771 C 0.65137 -0.00017 0.90691 0.0
H2772 H 0.58867 0.02212 0.94321 0.0
C2773 C 0.65392 0.02023 0.85782 0.0
C2774 C 0.6326 0.04029 0.83885 0.0
H2775 H 0.66724 0.98287 0.91943 0.0
H2776 H 0.67124 0.01804 0.83246 0.0
C2777 C 0.61005 0.04263 0.87157 0.0
C2778 C 0.25305 0.39215 0.20796 0.0
C2779 C 0.2589 0.36851 0.18318 0.0
H2780 H 0.23611 0.40373 0.27596 0.0
C2781 C 0.25338 0.33763 0.20946 0.0
H2782 H 0.25729 0.41603 0.18857 0.0
C2783 C 0.2417 0.33064 0.25918 0.0
C2784 C 0.23479 0.35423 0.28307 0.0
H2785 H 0.25721 0.31882 0.19114 0.0
H2786 H 0.23807 0.30687 0.27874 0.0
C2787 C 0.24106 0.38503 0.25778 0.0
C2788 C 0.91854 0.02611 0.23032 0.0
C2789 C 0.90311 0.0234 0.19098 0.0
H2790 H 0.92293 0.01621 0.31113 0.0
C2791 C 0.87916 0.00762 0.20314 0.0
H2792 H 0.93731 0.03704 0.22126 0.0
C2793 C 0.87063 -0.00473 0.25497 0.0
C2794 C 0.88638 -0.00169 0.29407 0.0
H2795 H 0.86684 0.00558 0.1729 0.0
H2796 H 0.85217 0.98313 0.2645 0.0
C2797 C 0.91034 0.01383 0.28139 0.0
C2798 C 0.239 0.60354 0.49271 0.0
C2799 C 0.23831 0.63589 0.47433 0.0
H2800 H 0.24466 0.56502 0.55864 0.0
C2801 C 0.24654 0.65453 0.50376 0.0
H2802 H 0.23232 0.58914 0.46967 0.0
C2803 C 0.25367 0.64103 0.55352 0.0
C2804 C 0.25264 0.60865 0.57398 0.0
H2805 H 0.24597 0.67951 0.48945 0.0
H2806 H 0.25828 0.65618 0.57702 0.0
C2807 C 0.24573 0.58988 0.54315 0.0
C2808 C 0.39345 0.0027 0.43938 0.0
C2809 C 0.38098 0.97436 0.45988 0.0
H2810 H 0.39746 0.04257 0.37496 0.0
C2811 C 0.35905 0.96748 0.43606 0.0
H2812 H 0.41052 0.00847 0.45679 0.0
C2813 C 0.35165 0.98708 0.38926 0.0
C2814 C 0.36577 0.01394 0.36661 0.0
H2815 H 0.34878 0.94605 0.45179 0.0
H2816 H 0.33663 0.97986 0.36845 0.0
C2817 C 0.38582 0.02243 0.39296 0.0
C2818 C 0.76846 0.59963 0.0183 0.0
C2819 C 0.75975 0.62714 0.98481 0.0
H2820 H 0.76452 0.56868 0.09243 0.0
C2821 C 0.73616 0.64189 0.99779 0.0
H2822 H 0.78471 0.58599 1.00626 0.0
C2823 C 0.72497 0.63322 0.04824 0.0
C2824 C 0.73676 0.60877 0.08594 0.0
H2825 H 0.72714 0.66116 0.97015 0.0
H2826 H 0.70811 0.64722 0.05692 0.0
C2827 C 0.75659 0.58991 0.06802 0.0
C2828 C 0.09416 0.00911 0.06664 0.0
C2829 C 0.10458 0.97921 0.08839 0.0
H2830 H 0.08679 0.04225 0.99548 0.0
C2831 C 0.12502 0.96663 0.06108 0.0
H2832 H 0.08006 0.02054 0.08873 0.0
C2833 C 0.12898 0.97943 1.00794 0.0
C2834 C 0.11123 0.00314 0.98414 0.0
H2835 H 0.13603 0.94574 0.07938 0.0
H2836 H 0.14088 0.96634 0.98512 0.0
C2837 C 0.09878 0.02205 1.01375 0.0
C2838 C 0.72719 0.35598 0.75088 0.0
C2839 C 0.74414 0.35888 0.70644 0.0
H2840 H 0.72571 0.3554 0.83041 0.0
C2841 C 0.76688 0.37654 0.69903 0.0
H2842 H 0.70919 0.34302 0.75602 0.0
C2843 C 0.7772 0.38202 0.74204 0.0
C2844 C 0.76349 0.37143 0.79007 0.0
H2845 H 0.77956 0.37968 0.66369 0.0
H2846 H 0.79744 0.38956 0.73922 0.0
C2847 C 0.73687 0.36286 0.79334 0.0
C2848 C 0.16883 0.41742 0.26492 0.0
C2849 C 0.15787 0.3947 0.30795 0.0
H2850 H 0.16639 0.4434 0.18436 0.0
C2851 C 0.13472 0.38095 0.29745 0.0
H2852 H 0.18655 0.42889 0.26931 0.0
C2853 C 0.12337 0.38877 0.24832 0.0
C2854 C 0.13404 0.41143 0.20558 0.0
H2855 H 0.12557 0.36262 0.32695 0.0
H2856 H 0.10586 0.3769 0.24407 0.0
C2857 C 0.15713 0.42569 0.21536 0.0
C2858 C 0.91805 0.80919 0.57442 0.0
C2859 C 0.93293 0.83304 0.54215 0.0
H2860 H 0.88933 0.77512 0.57769 0.0
C2861 C 0.93519 0.83593 0.48822 0.0
H2862 H 0.91612 0.80634 0.61594 0.0
C2863 C 0.92 0.81807 0.46628 0.0
C2864 C 0.90249 0.79706 0.49813 0.0
H2865 H 0.94706 0.85384 0.46248 0.0
H2866 H 0.91979 0.82315 0.42446 0.0
C2867 C 0.90289 0.79129 0.55244 0.0
C2868 C 0.3495 0.65107 0.65432 0.0
C2869 C 0.3654 0.64773 0.69718 0.0
H2870 H 0.34324 0.63842 0.58336 0.0
C2871 C 0.38814 0.62843 0.69878 0.0
H2872 H 0.33208 0.66637 0.65048 0.0
C2873 C 0.39493 0.61337 0.65942 0.0
C2874 C 0.37864 0.61484 0.61764 0.0
H2875 H 0.40126 0.62557 0.73006 0.0
H2876 H 0.41402 0.60182 0.66159 0.0
C2877 C 0.35573 0.63459 0.61578 0.0
C2878 C 0.66298 0.07336 0.9831 0.0
C2879 C 0.65798 0.10453 0.95661 0.0
H2880 H 0.65307 0.03592 0.05028 0.0
C2881 C 0.64031 0.12177 0.9828 0.0
H2882 H 0.67636 0.05881 0.96542 0.0
C2883 C 0.62749 0.10934 0.03135 0.0
C2884 C 0.63139 0.07829 0.05689 0.0
H2885 H 0.63551 0.14537 0.96546 0.0
H2886 H 0.61321 0.12381 0.04718 0.0
C2887 C 0.64961 0.06034 0.03221 0.0
C2888 C 0.15035 0.59643 0.55701 0.0
C2889 C 0.12603 0.58234 0.55765 0.0
H2890 H 0.18472 0.6167 0.51117 0.0
C2891 C 0.11943 0.57553 0.5117 0.0
H2892 H 0.1567 0.60084 0.59206 0.0
C2893 C 0.1357 0.58389 0.46595 0.0
C2894 C 0.15922 0.59946 0.46399 0.0
H2895 H 0.10123 0.5639 0.51094 0.0
H2896 H 0.12879 0.58042 0.43078 0.0
C2897 C 0.16687 0.60462 0.51072 0.0
C2898 C 0.62871 0.88399 0.74467 0.0
C2899 C 0.63683 0.90948 0.70407 0.0
H2900 H 0.63241 0.85649 0.82201 0.0
C2901 C 0.65679 0.9274 0.71656 0.0
H2902 H 0.61366 0.86922 0.73837 0.0
C2903 C 0.66755 0.92034 0.76698 0.0
C2904 C 0.65909 0.89476 0.80787 0.0
H2905 H 0.66422 0.94719 0.68715 0.0
H2906 H 0.68257 0.93498 0.77373 0.0
C2907 C 0.63945 0.87697 0.79428 0.0
C2908 C 0.43214 0.33198 1.00175 0.0
C2909 C 0.42873 0.33009 0.0553 0.0
H2910 H 0.41744 0.3195 0.937 0.0
C2911 C 0.41119 0.30879 0.08648 0.0
H2912 H 0.4459 0.34808 0.97694 0.0
C2913 C 0.39498 0.2925 0.06346 0.0
C2914 C 0.39622 0.29717 1.00909 0.0
H2915 H 0.40822 0.30688 0.12765 0.0
H2916 H 0.38 0.278 0.08785 0.0
C2917 C 0.41604 0.31556 0.97877 0.0
C2918 C 0.8581 0.1076 0.19756 0.0
C2919 C 0.85913 0.13974 0.19323 0.0
H2920 H 0.86519 0.07029 0.16059 0.0
C2921 C 0.86638 0.15883 0.14377 0.0
H2922 H 0.85166 0.09203 0.23425 0.0
C2923 C 0.87317 0.14626 0.10107 0.0
C2924 C 0.87465 0.11398 0.10626 0.0
H2925 H 0.86604 0.18376 0.13757 0.0
H2926 H 0.877 0.16203 0.06338 0.0
C2927 C 0.8658 0.09499 0.15498 0.0
C2928 C 0.87438 0.60372 0.02877 0.0
C2929 C 0.86697 0.57734 0.06829 0.0
H2930 H 0.86909 0.6331 0.9531 0.0
C2931 C 0.84711 0.55955 0.05518 0.0
H2932 H 0.88922 0.61853 0.03568 0.0
C2933 C 0.83594 0.56738 1.00518 0.0
C2934 C 0.84335 0.59407 0.96558 0.0
H2935 H 0.84014 0.53914 0.0837 0.0
H2936 H 0.82147 0.55234 0.99773 0.0
C2937 C 0.86286 0.61181 0.97974 0.0
C2938 C 0.07944 0.17852 0.70608 0.0
C2939 C 0.06636 0.15288 0.73782 0.0
H2940 H 0.10619 0.21455 0.70313 0.0
C2941 C 0.06528 0.14834 0.79214 0.0
H2942 H 0.08043 0.18277 0.66427 0.0
C2943 C 0.07981 0.16667 0.81444 0.0
C2944 C 0.09552 0.18981 0.78263 0.0
H2945 H 0.05472 0.12914 0.81762 0.0
H2946 H 0.08101 0.16055 0.85614 0.0
C2947 C 0.09393 0.19685 0.72841 0.0
C2948 C 0.6176 0.37387 0.56964 0.0
C2949 C 0.63605 0.3488 0.58037 0.0
H2950 H 0.59486 0.40833 0.59675 0.0
C2951 C 0.64548 0.33993 0.63092 0.0
H2952 H 0.61029 0.38204 0.5312 0.0
C2953 C 0.63648 0.3551 0.6695 0.0
C2954 C 0.61828 0.38056 0.65884 0.0
H2955 H 0.66007 0.32101 0.6408 0.0
H2956 H 0.64365 0.34665 0.70802 0.0
C2957 C 0.60902 0.38947 0.60796 0.0
C2958 C 0.33101 0.89837 0.26966 0.0
C2959 C 0.34561 0.89302 0.31429 0.0
H2960 H 0.3324 0.90681 0.18621 0.0
C2961 C 0.37344 0.8955 0.30646 0.0
H2962 H 0.30966 0.89657 0.27361 0.0
C2963 C 0.38648 0.90052 0.25702 0.0
C2964 C 0.37223 0.90468 0.21257 0.0
H2965 H 0.38546 0.89313 0.33897 0.0
H2966 H 0.40791 0.90148 0.25373 0.0
C2967 C 0.34417 0.90366 0.21954 0.0
C2968 C 0.87285 0.37967 0.7445 0.0
C2969 C 0.86829 0.41055 0.71856 0.0
H2970 H 0.86585 0.34376 0.81105 0.0
C2971 C 0.85041 0.42847 0.74391 0.0
H2972 H 0.88691 0.36523 0.72809 0.0
C2973 C 0.83798 0.41564 0.79391 0.0
C2974 C 0.84354 0.38464 0.82061 0.0
H2975 H 0.8465 0.45278 0.72565 0.0
H2976 H 0.82468 0.43012 0.81189 0.0
C2977 C 0.86091 0.36737 0.79391 0.0
C2978 C 0.33823 0.11299 0.51058 0.0
C2979 C 0.33594 0.09522 0.47389 0.0
H2980 H 0.35329 0.11695 0.58236 0.0
C2981 C 0.34821 0.06541 0.48713 0.0
H2982 H 0.33004 0.13643 0.50255 0.0
C2983 C 0.36221 0.05438 0.53329 0.0
C2984 C 0.36496 0.07231 0.56956 0.0
H2985 H 0.34802 0.0509 0.4606 0.0
H2986 H 0.37166 0.03154 0.53964 0.0
C2987 C 0.35219 0.10193 0.55695 0.0
C2988 C 0.5867 0.67699 0.18887 0.0
C2989 C 0.56786 0.65815 0.22155 0.0
H2990 H 0.62037 0.70489 0.1846 0.0
C2991 C 0.56528 0.65775 0.27456 0.0
H2992 H 0.58909 0.67771 0.14806 0.0
C2993 C 0.58309 0.67325 0.29561 0.0
C2994 C 0.60386 0.68912 0.26393 0.0
H2995 H 0.55061 0.64357 0.30052 0.0
H2996 H 0.58195 0.6706 0.33708 0.0
C2997 C 0.60468 0.69225 0.21002 0.0
C2998 C 0.14458 0.83151 0.13647 0.0
C2999 C 0.13766 0.84186 0.08418 0.0
H3000 H 0.14212 0.83863 0.2134 0.0
C3001 C 0.12392 0.87057 0.07021 0.0
H3002 H 0.15527 0.80959 0.14923 0.0
C3003 C 0.11701 0.88775 0.10712 0.0
C3004 C 0.12386 0.8777 0.1598 0.0
H3005 H 0.11875 0.88008 0.03047 0.0
H3006 H 0.10535 0.90847 0.09322 0.0
C3007 C 0.13764 0.84874 0.1734 0.0
C3008 C 0.0034 0.5016 0.1861 0.0
C3009 C 0.9787 0.49194 0.1776 0.0
H3010 H 0.04331 0.50892 0.15805 0.0
C3011 C 0.97526 0.48313 0.13203 0.0
H3012 H 0.00633 0.50892 0.2207 0.0
C3013 C 0.99592 0.48511 0.09454 0.0
C3014 C 0.0206 0.4949 0.1029 0.0
H3015 H 0.95613 0.47724 0.12302 0.0
H3016 H 0.99292 0.47804 0.05975 0.0
C3017 C 0.02413 0.50332 0.14879 0.0
C3018 C 0.75599 0.71842 0.42775 0.0
C3019 C 0.76914 0.74564 0.42191 0.0
H3020 H 0.72701 0.69681 0.3983 0.0
C3021 C 0.76274 0.77245 0.38359 0.0
H3022 H 0.76113 0.69734 0.4565 0.0
C3023 C 0.74232 0.77259 0.35223 0.0
C3024 C 0.72916 0.74536 0.3582 0.0
H3025 H 0.77407 0.79297 0.37648 0.0
H3026 H 0.73726 0.79359 0.32316 0.0
C3027 C 0.73632 0.71825 0.395 0.0
C3028 C 0.525 0.49998 0.63091 0.0
C3029 C 0.51367 0.48078 0.67693 0.0
H3030 H 0.51897 0.52617 0.55296 0.0
C3031 C 0.48645 0.47567 0.68058 0.0
H3032 H 0.54574 0.50547 0.62709 0.0
C3033 C 0.47103 0.48818 0.63855 0.0
C3034 C 0.48226 0.50749 0.59268 0.0
H3035 H 0.47714 0.46157 0.71592 0.0
H3036 H 0.45021 0.4835 0.64283 0.0
C3037 C 0.50965 0.51206 0.58847 0.0
C3038 C 0.74244 0.21856 0.91962 0.0
C3039 C 0.74017 0.2232 0.866 0.0
H3040 H 0.75147 0.23871 0.98081 0.0
C3041 C 0.74658 0.2519 0.83263 0.0
H3042 H 0.73805 0.19638 0.94624 0.0
C3043 C 0.75424 0.27585 0.8527 0.0
C3044 C 0.75687 0.27119 0.90584 0.0
H3045 H 0.74443 0.25601 0.79154 0.0
H3046 H 0.75824 0.29832 0.82712 0.0
C3047 C 0.74995 0.24269 0.93959 0.0
C3048 C 0.00256 0.46378 0.63697 0.0
C3049 C 0.98596 0.48477 0.60336 0.0
H3050 H 0.02713 0.45681 0.70019 0.0
C3051 C 0.98414 0.51571 0.60397 0.0
H3052 H 0.00453 0.43949 0.63742 0.0
C3053 C 0.99656 0.52534 0.6407 0.0
C3054 C 0.01306 0.50439 0.67461 0.0
H3055 H 0.9732 0.53237 0.57591 0.0
H3056 H 0.99453 0.54966 0.63995 0.0
C3057 C 0.01533 0.47344 0.6734 0.0
C3058 C 0.75421 0.71559 0.91646 0.0
C3059 C 0.76044 0.72195 0.86297 0.0
H3060 H 0.73686 0.73242 0.97966 0.0
C3061 C 0.75677 0.75201 0.83204 0.0
H3062 H 0.75996 0.69392 0.94202 0.0
C3063 C 0.74569 0.77495 0.85436 0.0
C3064 C 0.73901 0.7683 0.90792 0.0
H3065 H 0.76226 0.75765 0.79081 0.0
H3066 H 0.74077 0.797 0.82888 0.0
C3067 C 0.7426 0.73824 0.93855 0.0
C3068 C 0.47351 0.48059 0.14938 0.0
C3069 C 0.49471 0.46819 0.12362 0.0
H3070 H 0.45974 0.51714 0.18338 0.0
C3071 C 0.51882 0.48298 0.1115 0.0
H3072 H 0.45447 0.47006 0.15662 0.0
C3073 C 0.52166 0.51014 0.12573 0.0
C3074 C 0.50032 0.52274 0.15092 0.0
H3075 H 0.53532 0.47365 0.09136 0.0
H3076 H 0.54079 0.52049 0.1189 0.0
C3077 C 0.47628 0.50783 0.16333 0.0
C3078 C 0.74284 0.2511 0.32656 0.0
C3079 C 0.76599 0.23622 0.3482 0.0
H3080 H 0.7038 0.26892 0.34167 0.0
C3081 C 0.76824 0.22897 0.40195 0.0
H3082 H 0.74092 0.25702 0.28504 0.0
C3083 C 0.74716 0.23523 0.43406 0.0
C3084 C 0.72395 0.24993 0.41264 0.0
H3085 H 0.7861 0.21785 0.41947 0.0
H3086 H 0.74928 0.2293 0.47552 0.0
C3087 C 0.72166 0.2575 0.35884 0.0
C3088 C 0.25738 0.21421 0.92006 0.0
C3089 C 0.27124 0.24096 0.91386 0.0
H3090 H 0.2244 0.19513 0.89739 0.0
C3091 C 0.264 0.26866 0.87841 0.0
H3092 H 0.26261 0.19284 0.94814 0.0
C3093 C 0.24309 0.26961 0.84776 0.0
C3094 C 0.22941 0.24274 0.85344 0.0
H3095 H 0.27452 0.28956 0.87398 0.0
H3096 H 0.23771 0.29109 0.82019 0.0
C3097 C 0.23611 0.21535 0.89024 0.0
C3098 C 0.23346 0.7608 0.35193 0.0
C3099 C 0.24187 0.73008 0.35468 0.0
H3100 H 0.23712 0.80074 0.37992 0.0
C3101 C 0.26217 0.71646 0.38724 0.0
H3102 H 0.21796 0.77185 0.32678 0.0
C3103 C 0.27288 0.73278 0.41828 0.0
C3104 C 0.2641 0.76334 0.41617 0.0
H3105 H 0.26862 0.69253 0.39133 0.0
H3106 H 0.28879 0.72196 0.44263 0.0
C3107 C 0.2438 0.77692 0.38361 0.0
C3108 C 0.24075 0.21482 0.40429 0.0
C3109 C 0.25847 0.22466 0.36093 0.0
H3110 H 0.21773 0.22681 0.46682 0.0
C3111 C 0.2657 0.25565 0.34556 0.0
H3112 H 0.23391 0.19166 0.41574 0.0
C3113 C 0.25606 0.27617 0.37417 0.0
C3114 C 0.23838 0.26608 0.41769 0.0
H3115 H 0.27829 0.26411 0.31075 0.0
H3116 H 0.26171 0.30009 0.36119 0.0
C3117 C 0.2315 0.23502 0.43352 0.0
C3118 C 0.25591 0.75722 0.83381 0.0
C3119 C 0.26873 0.72844 0.85189 0.0
H3120 H 0.22548 0.78845 0.85023 0.0
C3121 C 0.25972 0.70777 0.89818 0.0
H3122 H 0.26274 0.77322 0.79781 0.0
C3123 C 0.2389 0.71671 0.92841 0.0
C3124 C 0.2265 0.74586 0.911 0.0
H3125 H 0.2687 0.68489 0.91101 0.0
H3126 H 0.23275 0.70115 0.96533 0.0
C3127 C 0.23463 0.76579 0.86336 0.0
C3128 C 0.48915 0.97299 0.67134 0.0
C3129 C 0.4854 0.00413 0.66969 0.0
H3130 H 0.51021 0.93981 0.64077 0.0
C3131 C 0.49935 0.02661 0.63133 0.0
H3132 H 0.47922 0.95529 0.70107 0.0
C3133 C 0.51553 0.01799 0.59338 0.0
C3134 C 0.52081 0.98672 0.59753 0.0
H3135 H 0.49713 0.05106 0.62918 0.0
H3136 H 0.52541 0.0356 0.56311 0.0
C3137 C 0.50649 0.96431 0.63528 0.0
C3138 C 0.02574 0.98389 0.12054 0.0
C3139 C 0.02079 0.97659 0.17482 0.0
H3140 H 0.01042 0.00464 0.0461 0.0
C3141 C 0.99532 0.9815 0.19559 0.0
H3142 H 0.04523 0.98043 0.1033 0.0
C3143 C 0.97497 0.99287 0.16256 0.0
C3144 C 0.98023 0.00222 0.10846 0.0
H3145 H 0.99104 0.97589 0.23719 0.0
H3146 H 0.95549 -0.00317 0.17948 0.0
C3147 C 0.0056 -0.00332 0.08746 0.0
C3148 C 0.48439 0.0125 0.1036 0.0
C3149 C 0.48615 0.98091 0.10721 0.0
H3150 H 0.49562 0.04893 0.13367 0.0
C3151 C 0.5027 0.96126 0.14252 0.0
H3152 H 0.47396 0.02811 0.07323 0.0
C3153 C 0.51517 0.97282 0.177 0.0
C3154 C 0.51337 0.00433 0.1737 0.0
H3155 H 0.50477 0.93659 0.14613 0.0
H3156 H 0.52607 0.95721 0.20657 0.0
C3157 C 0.49714 0.02417 0.1378 0.0
C3158 C 0.97637 0.98231 0.63551 0.0
C3159 C 0.99835 0.96895 0.61335 0.0
H3160 H 0.96211 0.01864 0.66941 0.0
C3161 C 0.02324 0.98169 0.60756 0.0
H3162 H 0.95694 0.9727 0.6395 0.0
C3163 C 0.02607 0.0079 0.62421 0.0
C3164 C 0.00416 0.02143 0.64613 0.0
H3165 H 0.0404 0.97146 0.5907 0.0
H3166 H 0.04563 0.01654 0.62215 0.0
C3167 C 0.97922 0.00862 0.65205 0.0
C3168 C 0.98861 0.4421 0.80463 0.0
C3169 C 0.99718 0.41091 0.82533 0.0
H3170 H 0.96569 0.47475 0.74764 0.0
C3171 C 0.98599 0.38873 0.80431 0.0
H3172 H 0.99633 0.46021 0.8188 0.0
C3173 C 0.96981 0.39718 0.76167 0.0
C3174 C 0.96237 0.42827 0.73909 0.0
H3175 H 0.99057 0.36426 0.81966 0.0
H3176 H 0.96327 0.37902 0.74601 0.0
C3177 C 0.97109 0.45049 0.76306 0.0
C3178 C 0.82381 0.72971 0.15899 0.0
C3179 C 0.81493 0.70328 0.14725 0.0
H3180 H 0.84942 0.74722 0.20379 0.0
C3181 C 0.82079 0.67377 0.17976 0.0
H3182 H 0.81979 0.75273 0.13451 0.0
C3183 C 0.83826 0.67073 0.21909 0.0
C3184 C 0.84958 0.69718 0.22596 0.0
H3185 H 0.81404 0.65309 0.17152 0.0
H3186 H 0.84447 0.64783 0.24127 0.0
C3187 C 0.84104 0.72664 0.19815 0.0
C3188 C 0.48449 0.56408 0.35606 0.0
C3189 C 0.48323 0.59069 0.31439 0.0
H3190 H 0.47349 0.54357 0.43598 0.0
C3191 C 0.46741 0.61647 0.32088 0.0
H3192 H 0.49685 0.54404 0.35277 0.0
C3193 C 0.45286 0.61548 0.36771 0.0
C3194 C 0.45462 0.5891 0.40928 0.0
H3195 H 0.46669 0.63771 0.29044 0.0
H3196 H 0.44143 0.63589 0.37234 0.0
C3197 C 0.47084 0.56361 0.40346 0.0
C3198 C 0.65808 0.23384 0.71533 0.0
C3199 C 0.67774 0.21018 0.72763 0.0
H3200 H 0.64094 0.26924 0.65501 0.0
C3201 C 0.69517 0.20391 0.68841 0.0
H3202 H 0.64408 0.23879 0.74507 0.0
C3203 C 0.69449 0.22223 0.63807 0.0
C3204 C 0.67524 0.24614 0.62593 0.0
H3205 H 0.70971 0.18552 0.69642 0.0
H3206 H 0.7088 0.21745 0.60865 0.0
C3207 C 0.65639 0.25125 0.66425 0.0
C3208 C 0.98354 0.57181 0.04292 0.0
C3209 C 0.96006 0.55515 0.04824 0.0
H3210 H 0.01484 0.59583 0.99175 0.0
C3211 C 0.95215 0.54714 1.00422 0.0
H3212 H 0.99065 0.57821 0.07563 0.0
C3213 C 0.96644 0.5571 0.95581 0.0
C3214 C 0.98913 0.57495 0.95043 0.0
H3215 H 0.93429 0.53432 1.00661 0.0
H3216 H 0.95896 0.55221 0.92203 0.0
C3217 C 0.99775 0.58164 0.99481 0.0
C3218 C 0.65317 0.795 0.14324 0.0
C3219 C 0.67267 0.7725 0.16449 0.0
H3220 H 0.63997 0.8285 0.07569 0.0
C3221 C 0.69441 0.76666 0.1319 0.0
H3222 H 0.63565 0.79925 0.16608 0.0
C3223 C 0.69612 0.78236 0.07926 0.0
C3224 C 0.67682 0.80518 0.05882 0.0
H3225 H 0.70963 0.74918 0.14656 0.0
H3226 H 0.71231 0.77635 0.05432 0.0
C3227 C 0.65555 0.81173 0.09124 0.0
C3228 C 0.54334 0.36153 0.44714 0.0
C3229 C 0.52713 0.38873 0.4376 0.0
H3230 H 0.55574 0.32131 0.42174 0.0
C3231 C 0.51805 0.4012 0.38795 0.0
H3232 H 0.55117 0.35172 0.48469 0.0
C3233 C 0.51995 0.3833 0.35254 0.0
C3234 C 0.53137 0.35312 0.36662 0.0
H3235 H 0.50657 0.42291 0.37894 0.0
H3236 H 0.50944 0.39159 0.31748 0.0
C3237 C 0.5457 0.3439 0.41134 0.0
C3238 C 0.85955 0.29316 0.58507 0.0
C3239 C 0.84495 0.26753 0.61242 0.0
H3240 H 0.88344 0.31298 0.51615 0.0
C3241 C 0.83715 0.24634 0.58691 0.0
H3242 H 0.86479 0.31046 0.60374 0.0
C3243 C 0.84809 0.24725 0.5377 0.0
C3244 C 0.86647 0.26996 0.51299 0.0
H3245 H 0.82532 0.22682 0.60744 0.0
H3246 H 0.84421 0.22809 0.52204 0.0
C3247 C 0.87042 0.29435 0.53529 0.0
C3248 C 0.03097 0.59333 0.5131 0.0
C3249 C 0.03702 0.56212 0.53752 0.0
H3250 H 0.01225 0.62647 0.45241 0.0
C3251 C 0.02799 0.53984 0.51402 0.0
H3252 H 0.038 0.6115 0.52814 0.0
C3253 C 0.01118 0.54844 0.47134 0.0
C3254 C 0.0038 0.57983 0.44891 0.0
H3255 H 0.03256 0.51548 0.53063 0.0
H3256 H 0.00305 0.53038 0.45762 0.0
C3257 C 0.01564 0.60191 0.46926 0.0
C3258 C 0.17841 0.31653 0.096 0.0
C3259 C 0.18464 0.28771 0.13008 0.0
H3260 H 0.15495 0.34053 0.03288 0.0
C3261 C 0.1765 0.26042 0.12012 0.0
H3262 H 0.1845 0.33781 0.10313 0.0
C3263 C 0.15963 0.26204 0.08072 0.0
C3264 C 0.15085 0.2909 0.05083 0.0
H3265 H 0.18092 0.23794 0.14601 0.0
H3266 H 0.1517 0.24088 0.07642 0.0
C3267 C 0.16148 0.3181 0.0563 0.0
C3268 C 0.51991 0.42873 0.93311 0.0
C3269 C 0.51156 0.40038 0.9656 0.0
H3270 H 0.53637 0.4521 0.85874 0.0
C3271 C 0.51942 0.37287 0.95156 0.0
H3272 H 0.51484 0.4503 0.94318 0.0
C3273 C 0.53431 0.37393 0.90497 0.0
C3274 C 0.5414 0.40248 0.87144 0.0
H3275 H 0.51322 0.35056 0.97549 0.0
H3276 H 0.53908 0.35258 0.89385 0.0
C3277 C 0.53363 0.4298 0.88556 0.0
C3278 C 0.31351 0.75456 0.55595 0.0
C3279 C 0.31998 0.78584 0.54418 0.0
H3280 H 0.30781 0.7125 0.61456 0.0
C3281 C 0.32379 0.79956 0.58425 0.0
H3282 H 0.31014 0.7436 0.52551 0.0
C3283 C 0.32279 0.78156 0.63546 0.0
C3284 C 0.318 0.74969 0.64709 0.0
H3285 H 0.32877 0.8237 0.57587 0.0
H3286 H 0.32636 0.79253 0.66559 0.0
C3287 C 0.3123 0.73671 0.60699 0.0
C3288 C 0.0462 0.44256 0.27244 0.0
C3289 C 0.04012 0.43181 0.22976 0.0
H3290 H 0.03753 0.44057 0.35337 0.0
C3291 C 0.01807 0.41269 0.2363 0.0
H3292 H 0.06288 0.45736 0.26916 0.0
C3293 C 0.00349 0.40345 0.28416 0.0
C3294 C 0.01016 0.41317 0.32727 0.0
H3295 H 0.01235 0.40401 0.20478 0.0
H3296 H 0.98755 0.38753 0.2881 0.0
C3297 C 0.03146 0.43326 0.32063 0.0
C3298 C 0.32267 0.1822 0.12628 0.0
C3299 C 0.32661 0.21423 0.10755 0.0
H3300 H 0.3195 0.14293 0.1932 0.0
C3301 C 0.32949 0.23163 0.14283 0.0
H3302 H 0.31954 0.16858 0.09967 0.0
C3303 C 0.32882 0.21739 0.19577 0.0
C3304 C 0.32524 0.18517 0.21535 0.0
H3305 H 0.33239 0.25636 0.1294 0.0
H3306 H 0.33111 0.23207 0.22127 0.0
C3307 C 0.32227 0.16764 0.1798 0.0
C3308 C 0.45787 0.65345 0.84997 0.0
C3309 C 0.46531 0.6429 0.90126 0.0
H3310 H 0.4554 0.64252 0.77834 0.0
C3311 C 0.46642 0.61072 0.92435 0.0
H3312 H 0.45491 0.67795 0.83189 0.0
C3313 C 0.46476 0.58994 0.89432 0.0
C3314 C 0.46336 0.60093 0.84045 0.0
H3315 H 0.47124 0.60118 0.96421 0.0
H3316 H 0.46724 0.5654 0.91267 0.0
C3317 C 0.45757 0.63276 0.81933 0.0
C3318 C 0.14777 0.70479 0.76377 0.0
C3319 C 0.12501 0.72432 0.75218 0.0
H3320 H 0.18118 0.68121 0.73358 0.0
C3321 C 0.11782 0.73384 0.70053 0.0
H3322 H 0.15303 0.69613 0.80352 0.0
C3323 C 0.13305 0.72447 0.66147 0.0
C3324 C 0.15625 0.70576 0.67262 0.0
H3325 H 0.10052 0.74902 0.69003 0.0
H3326 H 0.12711 0.73279 0.62199 0.0
C3327 C 0.16352 0.69589 0.72414 0.0
C3328 C 0.47263 0.88642 0.2667 0.0
C3329 C 0.46629 0.91758 0.24263 0.0
H3330 H 0.49155 0.85334 0.327 0.0
C3331 C 0.47497 0.93988 0.26638 0.0
H3332 H 0.46568 0.86824 0.25158 0.0
C3333 C 0.49224 0.93139 0.30838 0.0
C3334 C 0.50008 0.90004 0.33013 0.0
H3335 H 0.46991 0.96417 0.25029 0.0
H3336 H 0.50032 0.9495 0.32207 0.0
C3337 C 0.4881 0.8779 0.31024 0.0
C3338 C 0.3456 0.24083 0.63308 0.0
C3339 C 0.32622 0.21949 0.63403 0.0
H3340 H 0.3786 0.25131 0.67015 0.0
C3341 C 0.32319 0.19319 0.67589 0.0
H3342 H 0.34776 0.2614 0.60108 0.0
C3343 C 0.34095 0.18734 0.71526 0.0
C3344 C 0.36144 0.2079 0.7122 0.0
H3345 H 0.30815 0.17665 0.67664 0.0
H3346 H 0.33949 0.16634 0.74653 0.0
C3347 C 0.36315 0.23506 0.67207 0.0
C3348 C 0.97022 0.05968 0.90141 0.0
C3349 C 0.96007 0.08721 0.91211 0.0
H3350 H 0.99117 0.03872 0.84622 0.0
C3351 C 0.96352 0.1155 0.87498 0.0
H3352 H 0.96852 0.03778 0.9305 0.0
C3353 C 0.97684 0.11626 0.82712 0.0
C3354 C 0.987 0.08867 0.81595 0.0
H3355 H 0.95642 0.13704 0.88345 0.0
H3356 H 0.97951 0.1385 0.79928 0.0
C3357 C 0.98339 0.06033 0.85346 0.0
C3358 C 0.18743 0.75164 0.16345 0.0
C3359 C 0.18329 0.73535 0.127 0.0
H3360 H 0.18797 0.74994 0.2438 0.0
C3361 C 0.17891 0.70356 0.14314 0.0
H3362 H 0.19142 0.77606 0.15141 0.0
C3363 C 0.17734 0.68837 0.19573 0.0
C3364 C 0.18008 0.70503 0.23246 0.0
H3365 H 0.17627 0.69062 0.11536 0.0
H3366 H 0.173 0.66397 0.20763 0.0
C3367 C 0.18556 0.73667 0.21604 0.0
C3368 C 0.49036 0.09536 0.48844 0.0
C3369 C 0.48971 0.08035 0.44851 0.0
H3370 H 0.47603 0.09858 0.56374 0.0
C3371 C 0.47378 0.05422 0.45798 0.0
H3372 H 0.50243 0.11542 0.48304 0.0
C3373 C 0.45845 0.04412 0.5055 0.0
C3374 C 0.45845 0.06008 0.54453 0.0
H3375 H 0.47238 0.04232 0.42799 0.0
H3376 H 0.44626 0.02416 0.51127 0.0
C3377 C 0.47489 0.08573 0.535 0.0
C3378 C 0.19838 0.2871 0.58631 0.0
C3379 C 0.17689 0.30596 0.56395 0.0
H3380 H 0.21319 0.25543 0.6543 0.0
C3381 C 0.15306 0.30651 0.59398 0.0
H3382 H 0.2166 0.28518 0.56311 0.0
C3383 C 0.15059 0.28826 0.64519 0.0
C3384 C 0.17212 0.26965 0.66839 0.0
H3385 H 0.13583 0.31973 0.57695 0.0
H3386 H 0.13138 0.28797 0.66583 0.0
C3387 C 0.19622 0.26958 0.63828 0.0
C3388 C 0.04773 0.8514 0.93892 0.0
C3389 C 0.03054 0.87754 0.93274 0.0
H3390 H 0.06087 0.81363 0.90763 0.0
C3391 C 0.02171 0.89253 0.8839 0.0
H3392 H 0.05518 0.8402 0.97634 0.0
C3393 C 0.02493 0.87746 0.84469 0.0
C3394 C 0.03663 0.84738 0.85534 0.0
H3395 H 0.00926 0.9135 0.8784 0.0
H3396 H 0.01438 0.88705 0.80992 0.0
C3397 C 0.05096 0.83628 0.89973 0.0
C3398 C 0.32903 0.76851 0.07468 0.0
C3399 C 0.34173 0.78298 0.10694 0.0
H3400 H 0.33357 0.74729 1.0114 0.0
C3401 C 0.36721 0.79431 0.08985 0.0
H3402 H 0.30878 0.76112 0.08382 0.0
C3403 C 0.38085 0.7879 0.04655 0.0
C3404 C 0.36983 0.76893 0.01988 0.0
H3405 H 0.37785 0.80604 0.11173 0.0
H3406 H 0.40095 0.79583 0.03652 0.0
C3407 C 0.34308 0.7611 0.0321 0.0
C3408 C 0.50925 0.04754 0.97178 0.0
C3409 C 0.50034 0.0787 0.95171 0.0
H3410 H 0.53277 0.01482 0.02764 0.0
C3411 C 0.51175 0.10078 0.97271 0.0
H3412 H 0.50148 0.02946 0.9576 0.0
C3413 C 0.52838 0.09225 1.01475 0.0
C3414 C 0.53613 0.06117 0.03678 0.0
H3415 H 0.50714 0.12527 0.95774 0.0
H3416 H 0.53502 0.11037 0.03038 0.0
C3417 C 0.52719 0.03907 1.01272 0.0
C3418 C 0.63615 0.75197 0.60056 0.0
C3419 C 0.63385 0.78009 0.56284 0.0
H3420 H 0.65456 0.72722 0.66916 0.0
C3421 C 0.65096 0.80414 0.56058 0.0
H3422 H 0.62318 0.7332 0.60197 0.0
C3423 C 0.66888 0.80083 0.5991 0.0
C3424 C 0.67007 0.77314 0.63871 0.0
H3425 H 0.64945 0.82582 0.5309 0.0
H3426 H 0.68063 0.82027 0.59977 0.0
C3427 C 0.65434 0.74841 0.63814 0.0
C3428 C 0.02455 0.93118 0.36107 0.0
C3429 C 0.03716 0.90422 0.35213 0.0
H3430 H 0.00213 0.95167 0.41538 0.0
C3431 C 0.03585 0.87636 0.39089 0.0
H3432 H 0.02458 0.95267 0.33076 0.0
C3433 C 0.02239 0.87546 0.43864 0.0
C3434 C 0.01023 0.90255 0.44853 0.0
H3435 H 0.04477 0.85517 0.38381 0.0
H3436 H 0.02134 0.85344 0.46751 0.0
C3437 C 0.01153 0.93048 0.40926 0.0
C3438 C 0.81551 0.29095 0.08445 0.0
C3439 C 0.81483 0.27629 0.04451 0.0
H3440 H 0.81582 0.28498 0.16591 0.0
C3441 C 0.81486 0.2438 0.05596 0.0
H3442 H 0.81615 0.31593 0.07638 0.0
C3443 C 0.81549 0.22618 0.10669 0.0
C3444 C 0.81553 0.24074 0.14674 0.0
H3445 H 0.81458 0.23177 0.02583 0.0
H3446 H 0.81609 0.20115 0.11446 0.0
C3447 C 0.81568 0.27323 0.13549 0.0
C3448 C 0.54408 0.89011 0.7567 0.0
C3449 C 0.5466 0.92189 0.73332 0.0
H3450 H 0.52627 0.85483 0.81773 0.0
C3451 C 0.53328 0.94302 0.75837 0.0
H3452 H 0.55443 0.87312 0.73934 0.0
C3453 C 0.51596 0.93241 0.80313 0.0
C3454 C 0.51221 0.90041 0.82449 0.0
H3455 H 0.53491 0.96771 0.74154 0.0
H3456 H 0.50448 0.94922 0.81915 0.0
C3457 C 0.52773 0.87963 0.80186 0.0
C3458 C 0.8044 0.72406 0.64128 0.0
C3459 C 0.82677 0.72001 0.60873 0.0
H3460 H 0.78607 0.71258 0.71873 0.0
C3461 C 0.847 0.69854 0.63036 0.0
H3462 H 0.78848 0.74044 0.62662 0.0
C3463 C 0.84469 0.68095 0.68199 0.0
C3464 C 0.82274 0.6856 0.71442 0.0
H3465 H 0.86519 0.69594 0.60815 0.0
H3466 H 0.86087 0.66506 0.69738 0.0
C3467 C 0.80279 0.70771 0.6939 0.0
C3468 C 0.96986 0.17483 0.34136 0.0
C3469 C 0.96112 0.16612 0.39381 0.0
H3470 H 0.97491 0.16222 0.2704 0.0
C3471 C 0.9463 0.13904 0.41263 0.0
H3472 H 0.9818 0.1949 0.32544 0.0
C3473 C 0.94249 0.11982 0.38048 0.0
C3474 C 0.95287 0.12789 0.32899 0.0
H3475 H 0.93872 0.13189 0.45271 0.0
H3476 H 0.9324 0.09826 0.39617 0.0
C3477 C 0.96587 0.15593 0.30951 0.0
C3478 C 0.66258 0.25032 0.18509 0.0
C3479 C 0.6548 0.22815 0.16109 0.0
H3480 H 0.65523 0.27042 0.24891 0.0
C3481 C 0.63988 0.20322 0.19019 0.0
H3482 H 0.67455 0.26943 0.16339 0.0
C3483 C 0.62869 0.20376 0.23917 0.0
C3484 C 0.63248 0.22923 0.25917 0.0
H3485 H 0.63419 0.18543 0.17292 0.0
H3486 H 0.61482 0.18613 0.25872 0.0
C3487 C 0.65149 0.25086 0.23408 0.0
C3488 C 0.09812 0.52828 0.8589 0.0
C3489 C 0.095 0.5074 0.82889 0.0
H3490 H 0.10205 0.53472 0.9346 0.0
C3491 C 0.09513 0.47542 0.85495 0.0
H3492 H 0.09805 0.55296 0.84088 0.0
C3493 C 0.09824 0.46472 0.90874 0.0
C3494 C 0.1004 0.4856 0.93913 0.0
H3495 H 0.09257 0.45835 0.83383 0.0
H3496 H 0.09834 0.44004 0.9266 0.0
C3497 C 0.10043 0.51762 0.91305 0.0
C3498 C 0.81197 0.8508 0.23176 0.0
C3499 C 0.79305 0.83715 0.20806 0.0
H3500 H 0.83643 0.84808 0.29516 0.0
C3501 C 0.78816 0.80561 0.2331 0.0
H3502 H 0.81927 0.87357 0.2142 0.0
C3503 C 0.80058 0.78967 0.27967 0.0
C3504 C 0.81732 0.80492 0.30486 0.0
H3505 H 0.77464 0.79312 0.21718 0.0
H3506 H 0.79619 0.76559 0.29703 0.0
C3507 C 0.8229 0.83562 0.27912 0.0
C3508 C 0.40591 0.45842 0.26293 0.0
C3509 C 0.41931 0.45143 0.30884 0.0
H3510 H 0.40212 0.4497 0.18992 0.0
C3511 C 0.44074 0.42951 0.31381 0.0
H3512 H 0.38884 0.47448 0.2583 0.0
C3513 C 0.44858 0.41522 0.27354 0.0
C3514 C 0.43474 0.42175 0.22775 0.0
H3515 H 0.4509 0.42267 0.34951 0.0
H3516 H 0.46519 0.39858 0.27874 0.0
C3517 C 0.41332 0.44366 0.22359 0.0
C3518 C 0.78332 0.15269 0.46848 0.0
C3519 C 0.81009 0.15406 0.4478 0.0
H3520 H 0.7561 0.14251 0.53526 0.0
C3521 C 0.83027 0.14734 0.48277 0.0
H3522 H 0.76684 0.15798 0.44348 0.0
C3523 C 0.82374 0.1383 0.53669 0.0
C3524 C 0.7969 0.13609 0.55687 0.0
H3525 H 0.85096 0.14843 0.46861 0.0
H3526 H 0.83977 0.13261 0.56268 0.0
C3527 C 0.77689 0.14412 0.52176 0.0
C3528 C 0.90064 0.46214 0.41995 0.0
C3529 C 0.90379 0.48338 0.44941 0.0
H3530 H 0.89713 0.45488 0.34454 0.0
C3531 C 0.90445 0.51514 0.42223 0.0
H3532 H 0.90014 0.43758 0.43868 0.0
C3533 C 0.90175 0.52533 0.36817 0.0
C3534 C 0.89933 0.5041 0.33844 0.0
H3535 H 0.90724 0.53245 0.44269 0.0
H3536 H 0.90211 0.5499 0.3496 0.0
C3537 C 0.89885 0.47226 0.36551 0.0
C3538 C 0.17428 0.1553 0.99833 0.0
C3539 C 0.18114 0.18526 0.971 0.0
H3540 H 0.17596 0.11875 0.06512 0.0
C3541 C 0.19852 0.20035 0.99521 0.0
H3542 H 0.16029 0.14308 0.98288 0.0
C3543 C 0.21013 0.18481 0.04287 0.0
C3544 C 0.20374 0.15398 0.06987 0.0
H3545 H 0.20391 0.22395 0.97644 0.0
H3546 H 0.22408 0.19709 0.05821 0.0
C3547 C 0.18438 0.1407 0.04662 0.0
C3548 C 0.59432 0.53507 1.01712 0.0
C3549 C 0.58036 0.53977 0.97206 0.0
H3550 H 0.59756 0.54549 0.08923 0.0
C3551 C 0.55703 0.5588 0.96817 0.0
H3552 H 0.61263 0.52104 0.02112 0.0
C3553 C 0.54814 0.57285 1.00827 0.0
C3554 C 0.56253 0.56865 0.05311 0.0
H3555 H 0.54615 0.56367 0.9334 0.0
H3556 H 0.53006 0.58723 1.00384 0.0
C3557 C 0.5857 0.54939 0.05647 0.0
C3558 C 0.21629 0.85123 0.81168 0.0
C3559 C 0.19187 0.83651 0.82921 0.0
H3560 H 0.24429 0.86956 0.74752 0.0
C3561 C 0.1773 0.82863 0.79195 0.0
H3562 H 0.22849 0.85742 0.83861 0.0
C3563 C 0.18665 0.83557 0.7393 0.0
C3564 C 0.21112 0.85 0.72221 0.0
H3565 H 0.15885 0.81665 0.80351 0.0
H3566 H 0.17452 0.82995 0.71156 0.0
C3567 C 0.2258 0.85765 0.7593 0.0
C3568 C 0.60174 0.01443 0.41199 0.0
C3569 C 0.60118 0.98239 0.43799 0.0
H3570 H 0.60002 0.05002 0.3398 0.0
C3571 C 0.59819 0.96186 0.40728 0.0
H3572 H 0.6039 0.03134 0.4337 0.0
C3573 C 0.59479 0.97287 0.35356 0.0
C3574 C 0.59567 0.00478 0.32736 0.0
H3575 H 0.59786 0.93719 0.42484 0.0
H3576 H 0.5912 0.95604 0.33265 0.0
C3577 C 0.59947 0.02535 0.3577 0.0
C3578 C 0.3073 0.35192 0.73343 0.0
C3579 C 0.2904 0.33647 0.70885 0.0
H3580 H 0.33043 0.35077 0.79823 0.0
C3581 C 0.28899 0.30405 0.73025 0.0
H3582 H 0.31047 0.37644 0.71794 0.0
C3583 C 0.30243 0.28864 0.77578 0.0
C3584 C 0.31675 0.30523 0.80299 0.0
H3585 H 0.27656 0.29077 0.71344 0.0
H3586 H 0.3001 0.26397 0.79162 0.0
C3587 C 0.31928 0.33703 0.7799 0.0
C3588 C 0.89799 0.93916 0.76453 0.0
C3589 C 0.91339 0.95317 0.79429 0.0
H3590 H 0.89619 0.91529 0.70525 0.0
C3591 C 0.94134 0.95134 0.78326 0.0
H3592 H 0.87668 0.93873 0.76884 0.0
C3593 C 0.95279 0.93656 0.74513 0.0
C3594 C 0.93682 0.9236 0.71535 0.0
H3595 H 0.95464 0.96126 0.80387 0.0
H3596 H 0.9742 0.93621 0.7378 0.0
C3597 C 0.90932 0.92515 0.72636 0.0
C3598 C 0.28922 0.61699 0.02171 0.0
C3599 C 0.28895 0.63746 0.0537 0.0
H3600 H 0.30001 0.60845 0.94786 0.0
C3601 C 0.30034 0.66656 0.03259 0.0
H3602 H 0.28085 0.59433 0.03651 0.0
C3603 C 0.31208 0.67454 0.98128 0.0
C3604 C 0.31255 0.65368 0.94968 0.0
H3605 H 0.30079 0.68281 0.05613 0.0
H3606 H 0.32012 0.69734 0.9659 0.0
C3607 C 0.30064 0.62496 0.97084 0.0
C3608 C 0.40971 0.95384 0.92302 0.0
C3609 C 0.40774 0.9739 0.95568 0.0
H3610 H 0.41087 0.94915 0.84533 0.0
C3611 C 0.40362 0.00595 0.9322 0.0
H3612 H 0.41299 0.92918 0.93901 0.0
C3613 C 0.40155 0.01754 0.87819 0.0
C3614 C 0.40437 -0.00242 0.84539 0.0
H3615 H 0.40228 0.02237 0.95555 0.0
H3616 H 0.39864 0.04226 0.86206 0.0
C3617 C 0.40841 0.9655 0.8689 0.0
C3618 C 0.71454 0.64264 0.52779 0.0
C3619 C 0.71143 0.65852 0.56693 0.0
H3620 H 0.70537 0.64003 0.45276 0.0
C3621 C 0.69599 0.68656 0.55566 0.0
H3622 H 0.72547 0.62056 0.53499 0.0
C3623 C 0.68419 0.69805 0.50719 0.0
C3624 C 0.68675 0.68154 0.4685 0.0
H3625 H 0.69213 0.69905 0.58513 0.0
H3626 H 0.67269 0.71972 0.50044 0.0
C3627 C 0.70243 0.65372 0.48023 0.0
C3628 C 0.06504 0.06009 0.46783 0.0
C3629 C 0.08489 0.03624 0.47418 0.0
H3630 H 0.04121 0.09164 0.50242 0.0
C3631 C 0.09653 0.0267 0.52205 0.0
H3632 H 0.0563 0.06872 0.4308 0.0
C3633 C 0.08872 0.04063 0.56229 0.0
C3634 C 0.06871 0.06443 0.55661 0.0
H3635 H 0.1124 0.00905 0.5278 0.0
H3636 H 0.09833 0.03231 0.59811 0.0
C3637 C 0.05686 0.07376 0.5086 0.0
C3638 C 0.67273 0.33425 0.28721 0.0
C3639 C 0.691 0.33491 0.32381 0.0
H3640 H 0.66583 0.34238 0.20652 0.0
C3641 C 0.71748 0.34282 0.30567 0.0
H3642 H 0.65251 0.32741 0.29957 0.0
C3643 C 0.72522 0.35077 0.25288 0.0
C3644 C 0.70674 0.35129 0.21625 0.0
H3645 H 0.73257 0.34301 0.33213 0.0
H3646 H 0.74545 0.3577 0.24072 0.0
C3647 C 0.6805 0.34247 0.234 0.0
loop_
_geom_bond_atom_site_label_1
_geom_bond_atom_site_label_2
_geom_bond_distance
_geom_bond_site_symmetry_2
_ccdc_geom_bond_type
C0 C2 1.422 . S
C0 C4 1.415 . S
C0 N6 1.369 . S
C1 C2 1.421 . S
C1 C3 1.417 . S
C1 C13 1.422 1_455 S
C2 C0 1.422 . S
C2 C1 1.421 . S
C2 N12 1.359 . S
C3 C1 1.417 . S
C3 C5 1.329 . S
C3 H22 0.930 . S
C4 C0 1.415 . S
C4 C5 1.437 . S
C4 C8 1.413 . S
C5 C3 1.329 . S
C5 C4 1.437 . S
C5 H27 0.929 . S
N6 C0 1.369 . S
N6 C7 1.338 . S
N6 Gd11 2.622 . S
C7 N6 1.338 . S
C7 C9 1.378 . S
C7 H19 0.929 . S
C8 C4 1.413 . S
C8 C9 1.348 . S
C8 H24 0.931 . S
C9 C7 1.378 . S
C9 C8 1.348 . S
C9 H25 0.930 . S
Gd10 N30 2.622 . S
Gd10 N37 2.570 . S
Gd10 O44 2.353 . S
Gd10 O45 2.468 . S
Gd10 O46 2.427 . S
Gd10 O48 2.388 . S
Gd10 O49 2.386 . S
Gd10 O53 2.307 . S
Gd10 C63 2.805 . S
Gd11 N6 2.622 . S
Gd11 N12 2.570 . S
Gd11 O43 2.386 . S
Gd11 O47 2.307 . S
Gd11 O50 2.353 . S
Gd11 O51 2.468 1_554 S
Gd11 O52 2.427 . S
Gd11 O54 2.388 . S
Gd11 C75 2.805 1_554 S
N12 C2 1.359 . S
N12 Gd11 2.570 . S
N12 C14 1.343 . S
C13 C1 1.422 1_655 S
C13 C15 1.321 . S
C13 H21 0.931 . S
C14 N12 1.343 . S
C14 C15 1.390 1_455 S
C14 H16 0.931 . S
C15 C13 1.321 . S
C15 C14 1.390 1_655 S
C15 H17 0.930 . S
H16 C14 0.931 . S
H17 C15 0.930 . S
H18 C41 0.931 . S
H19 C7 0.929 . S
H20 C42 0.930 . S
H21 C13 0.931 . S
H22 C3 0.930 . S
H23 C32 0.929 . S
H24 C8 0.931 . S
H25 C9 0.930 . S
H26 C64 0.930 . S
H27 C5 0.929 . S
H28 C33 0.931 . S
H29 C34 0.930 . S
N30 Gd10 2.622 . S
N30 C31 1.369 . S
N30 C32 1.338 . S
C31 N30 1.369 . S
C31 C35 1.415 . S
C31 C38 1.422 . S
C32 H23 0.929 . S
C32 N30 1.338 . S
C32 C34 1.378 . S
C33 H28 0.931 . S
C33 C34 1.348 1_556 S
C33 C35 1.413 1_556 S
C34 H29 0.930 . S
C34 C32 1.378 . S
C34 C33 1.348 1_554 S
C35 C31 1.415 . S
C35 C33 1.413 1_554 S
C35 C65 1.437 1_554 S
H36 C65 0.929 . S
N37 Gd10 2.570 . S
N37 C38 1.359 . S
N37 C41 1.343 . S
C38 C31 1.422 . S
C38 N37 1.359 . S
C38 C40 1.421 . S
C39 C40 1.422 . S
C39 C42 1.321 . S
C39 H66 0.931 1_554 S
C40 C38 1.421 . S
C40 C39 1.422 . S
C40 C64 1.417 1_554 S
C41 H18 0.931 . S
C41 N37 1.343 . S
C41 C42 1.390 . S
C42 H20 0.930 . S
C42 C39 1.321 . S
C42 C41 1.390 . S
O43 Gd11 2.386 . S
O43 C55 1.265 . S
O44 Gd10 2.353 . S
O44 C55 1.242 . S
O45 Gd10 2.468 . S
O45 C63 1.263 . S
O46 Gd10 2.427 . S
O46 C63 1.252 . S
O47 Gd11 2.307 . S
O47 C56 1.261 . S
O48 Gd10 2.388 . S
O48 C56 1.252 . S
O49 Gd10 2.386 . S
O49 C67 1.265 1_554 S
O50 Gd11 2.353 . S
O50 C67 1.242 1_554 S
O51 Gd11 2.468 1_556 S
O51 C75 1.263 . S
O52 Gd11 2.427 . S
O52 C75 1.252 1_554 S
O53 Gd10 2.307 . S
O53 C68 1.261 . S
O54 Gd11 2.388 . S
O54 C68 1.252 . S
C55 O43 1.265 . S
C55 O44 1.242 . S
C56 O47 1.261 . S
C56 O48 1.252 . S
C57 C60 1.394 . S
C57 C62 1.370 . S
C57 C63 1.500 . S
C58 C61 1.383 . S
C58 C62 1.395 . S
C59 C60 1.396 . S
C59 C61 1.365 . S
C59 H76 0.929 . S
C60 C57 1.394 . S
C60 C59 1.396 . S
C60 H77 0.930 . S
C61 C58 1.383 . S
C61 C59 1.365 . S
C61 H78 0.931 . S
C62 C57 1.370 . S
C62 C58 1.395 . S
C62 H79 0.930 . S
C63 Gd10 2.805 . S
C63 O45 1.263 . S
C63 O46 1.252 . S
C63 C57 1.500 . S
C64 H26 0.930 . S
C64 C40 1.417 1_556 S
C64 C65 1.329 . S
C65 C35 1.437 1_556 S
C65 H36 0.929 . S
C65 C64 1.329 . S
H66 C39 0.931 1_556 S
C67 O49 1.265 1_556 S
C67 O50 1.242 1_556 S
C68 O53 1.261 . S
C68 O54 1.252 . S
C69 C72 1.394 . S
C69 C74 1.370 . S
C69 C75 1.500 . S
C70 C73 1.383 . S
C70 C74 1.395 . S
C71 C72 1.396 . S
C71 C73 1.365 . S
C71 H80 0.929 . S
C72 C69 1.394 . S
C72 C71 1.396 . S
C72 H81 0.930 . S
C73 C70 1.383 . S
C73 C71 1.365 . S
C73 H82 0.931 . S
C74 C69 1.370 . S
C74 C70 1.395 . S
C74 H83 0.930 . S
C75 Gd11 2.805 1_556 S
C75 O51 1.263 . S
C75 O52 1.252 1_556 S
C75 C69 1.500 . S
H76 C59 0.929 . S
H77 C60 0.930 . S
H78 C61 0.931 . S
H79 C62 0.930 . S
H80 C71 0.929 . S
H81 C72 0.930 . S
H82 C73 0.931 . S
H83 C74 0.930 . S
C84 C86 1.422 . S
C84 C88 1.415 . S
C84 N90 1.369 . S
C85 C86 1.421 . S
C85 C87 1.417 . S
C85 C97 1.422 . S
C86 C84 1.422 . S
C86 C85 1.421 . S
C86 N96 1.359 . S
C87 C85 1.417 . S
C87 C89 1.329 . S
C87 H106 0.930 . S
C88 C84 1.415 . S
C88 C89 1.437 . S
C88 C92 1.413 . S
C89 C87 1.329 . S
C89 C88 1.437 . S
C89 H111 0.929 . S
N90 C84 1.369 . S
N90 C91 1.338 . S
N90 Gd95 2.622 . S
C91 N90 1.338 . S
C91 C93 1.378 . S
C91 H103 0.929 . S
C92 C88 1.413 . S
C92 C93 1.348 . S
C92 H108 0.931 . S
C93 C91 1.378 . S
C93 C92 1.348 . S
C93 H109 0.930 . S
Gd94 N114 2.622 . S
Gd94 N121 2.570 . S
Gd94 O128 2.353 . S
Gd94 O129 2.468 . S
Gd94 O130 2.427 . S
Gd94 O132 2.388 . S
Gd94 O133 2.386 . S
Gd94 O137 2.307 . S
Gd94 C147 2.805 . S
Gd95 N90 2.622 . S
Gd95 N96 2.570 . S
Gd95 O127 2.386 . S
Gd95 O131 2.307 . S
Gd95 O134 2.353 . S
Gd95 O135 2.468 . S
Gd95 O136 2.427 . S
Gd95 O138 2.388 . S
Gd95 C159 2.805 . S
N96 C86 1.359 . S
N96 Gd95 2.570 . S
N96 C98 1.343 . S
C97 C85 1.422 . S
C97 C99 1.321 . S
C97 H105 0.931 . S
C98 N96 1.343 . S
C98 C99 1.390 . S
C98 H100 0.931 . S
C99 C97 1.321 . S
C99 C98 1.390 . S
C99 H101 0.930 . S
H100 C98 0.931 . S
H101 C99 0.930 . S
H102 C125 0.931 . S
H103 C91 0.929 . S
H104 C126 0.930 . S
H105 C97 0.931 . S
H106 C87 0.930 . S
H107 C116 0.929 . S
H108 C92 0.931 . S
H109 C93 0.930 . S
H110 C148 0.930 . S
H111 C89 0.929 . S
H112 C117 0.931 . S
H113 C118 0.930 . S
N114 Gd94 2.622 . S
N114 C115 1.369 . S
N114 C116 1.338 . S
C115 N114 1.369 . S
C115 C119 1.415 . S
C115 C122 1.422 . S
C116 H107 0.929 . S
C116 N114 1.338 . S
C116 C118 1.378 . S
C117 H112 0.931 . S
C117 C118 1.348 . S
C117 C119 1.413 . S
C118 H113 0.930 . S
C118 C116 1.378 . S
C118 C117 1.348 . S
C119 C115 1.415 . S
C119 C117 1.413 . S
C119 C149 1.437 . S
H120 C149 0.929 . S
N121 Gd94 2.570 . S
N121 C122 1.359 . S
N121 C125 1.343 . S
C122 C115 1.422 . S
C122 N121 1.359 . S
C122 C124 1.421 . S
C123 C124 1.422 . S
C123 C126 1.321 . S
C123 H150 0.931 . S
C124 C122 1.421 . S
C124 C123 1.422 . S
C124 C148 1.417 . S
C125 H102 0.931 . S
C125 N121 1.343 . S
C125 C126 1.390 . S
C126 H104 0.930 . S
C126 C123 1.321 . S
C126 C125 1.390 . S
O127 Gd95 2.386 . S
O127 C139 1.265 . S
O128 Gd94 2.353 . S
O128 C139 1.242 . S
O129 Gd94 2.468 . S
O129 C147 1.263 . S
O130 Gd94 2.427 . S
O130 C147 1.252 . S
O131 Gd95 2.307 . S
O131 C140 1.261 . S
O132 Gd94 2.388 . S
O132 C140 1.252 . S
O133 Gd94 2.386 . S
O133 C151 1.265 . S
O134 Gd95 2.353 . S
O134 C151 1.242 . S
O135 Gd95 2.468 . S
O135 C159 1.263 . S
O136 Gd95 2.427 . S
O136 C159 1.252 . S
O137 Gd94 2.307 . S
O137 C152 1.261 . S
O138 Gd95 2.388 . S
O138 C152 1.252 . S
C139 O127 1.265 . S
C139 O128 1.242 . S
C140 O131 1.261 . S
C140 O132 1.252 . S
C141 C144 1.394 . S
C141 C146 1.370 . S
C141 C147 1.500 . S
C142 C145 1.383 . S
C142 C146 1.395 . S
C143 C144 1.396 . S
C143 C145 1.365 . S
C143 H160 0.929 . S
C144 C141 1.394 . S
C144 C143 1.396 . S
C144 H161 0.930 . S
C145 C142 1.383 . S
C145 C143 1.365 . S
C145 H162 0.931 . S
C146 C141 1.370 . S
C146 C142 1.395 . S
C146 H163 0.930 . S
C147 Gd94 2.805 . S
C147 O129 1.263 . S
C147 O130 1.252 . S
C147 C141 1.500 . S
C148 H110 0.930 . S
C148 C124 1.417 . S
C148 C149 1.329 . S
C149 C119 1.437 . S
C149 H120 0.929 . S
C149 C148 1.329 . S
H150 C123 0.931 . S
C151 O133 1.265 . S
C151 O134 1.242 . S
C152 O137 1.261 . S
C152 O138 1.252 . S
C153 C156 1.394 . S
C153 C158 1.370 . S
C153 C159 1.500 . S
C154 C157 1.383 . S
C154 C158 1.395 . S
C155 C156 1.396 . S
C155 C157 1.365 . S
C155 H164 0.929 . S
C156 C153 1.394 . S
C156 C155 1.396 . S
C156 H165 0.930 . S
C157 C154 1.383 . S
C157 C155 1.365 . S
C157 H166 0.931 . S
C158 C153 1.370 . S
C158 C154 1.395 . S
C158 H167 0.930 . S
C159 Gd95 2.805 . S
C159 O135 1.263 . S
C159 O136 1.252 . S
C159 C153 1.500 . S
H160 C143 0.929 . S
H161 C144 0.930 . S
H162 C145 0.931 . S
H163 C146 0.930 . S
H164 C155 0.929 . S
H165 C156 0.930 . S
H166 C157 0.931 . S
H167 C158 0.930 . S
C168 C170 1.422 . S
C168 C172 1.415 . S
C168 N174 1.369 . S
C169 C170 1.421 . S
C169 C171 1.417 . S
C169 C181 1.422 . S
C170 C168 1.422 . S
C170 C169 1.421 . S
C170 N180 1.359 . S
C171 C169 1.417 . S
C171 C173 1.329 . S
C171 H190 0.930 . S
C172 C168 1.415 . S
C172 C173 1.437 . S
C172 C176 1.413 . S
C173 C171 1.329 . S
C173 C172 1.437 . S
C173 H195 0.929 . S
N174 C168 1.369 . S
N174 C175 1.338 . S
N174 Gd179 2.622 . S
C175 N174 1.338 . S
C175 C177 1.378 . S
C175 H187 0.929 . S
C176 C172 1.413 . S
C176 C177 1.348 . S
C176 H192 0.931 . S
C177 C175 1.378 . S
C177 C176 1.348 . S
C177 H193 0.930 . S
Gd178 N198 2.622 . S
Gd178 N205 2.570 . S
Gd178 O212 2.353 . S
Gd178 O213 2.468 . S
Gd178 O214 2.427 . S
Gd178 O216 2.388 . S
Gd178 O217 2.386 . S
Gd178 O221 2.307 . S
Gd178 C231 2.805 . S
Gd179 N174 2.622 . S
Gd179 N180 2.570 . S
Gd179 O211 2.386 . S
Gd179 O215 2.307 . S
Gd179 O218 2.353 . S
Gd179 O219 2.468 . S
Gd179 O220 2.427 . S
Gd179 O222 2.388 . S
Gd179 C243 2.805 . S
N180 C170 1.359 . S
N180 Gd179 2.570 . S
N180 C182 1.343 . S
C181 C169 1.422 . S
C181 C183 1.321 . S
C181 H189 0.931 . S
C182 N180 1.343 . S
C182 C183 1.390 . S
C182 H184 0.931 . S
C183 C181 1.321 . S
C183 C182 1.390 . S
C183 H185 0.930 . S
H184 C182 0.931 . S
H185 C183 0.930 . S
H186 C209 0.931 . S
H187 C175 0.929 . S
H188 C210 0.930 . S
H189 C181 0.931 . S
H190 C171 0.930 . S
H191 C200 0.929 . S
H192 C176 0.931 . S
H193 C177 0.930 . S
H194 C232 0.930 . S
H195 C173 0.929 . S
H196 C201 0.931 . S
H197 C202 0.930 . S
N198 Gd178 2.622 . S
N198 C199 1.369 . S
N198 C200 1.338 . S
C199 N198 1.369 . S
C199 C203 1.415 . S
C199 C206 1.422 . S
C200 H191 0.929 . S
C200 N198 1.338 . S
C200 C202 1.378 . S
C201 H196 0.931 . S
C201 C202 1.348 . S
C201 C203 1.413 . S
C202 H197 0.930 . S
C202 C200 1.378 . S
C202 C201 1.348 . S
C203 C199 1.415 . S
C203 C201 1.413 . S
C203 C233 1.437 . S
H204 C233 0.929 . S
N205 Gd178 2.570 . S
N205 C206 1.359 . S
N205 C209 1.343 . S
C206 C199 1.422 . S
C206 N205 1.359 . S
C206 C208 1.421 . S
C207 C208 1.422 . S
C207 C210 1.321 . S
C207 H234 0.931 . S
C208 C206 1.421 . S
C208 C207 1.422 . S
C208 C232 1.417 . S
C209 H186 0.931 . S
C209 N205 1.343 . S
C209 C210 1.390 . S
C210 H188 0.930 . S
C210 C207 1.321 . S
C210 C209 1.390 . S
O211 Gd179 2.386 . S
O211 C223 1.265 . S
O212 Gd178 2.353 . S
O212 C223 1.242 . S
O213 Gd178 2.468 . S
O213 C231 1.263 . S
O214 Gd178 2.427 . S
O214 C231 1.252 . S
O215 Gd179 2.307 . S
O215 C224 1.261 . S
O216 Gd178 2.388 . S
O216 C224 1.252 . S
O217 Gd178 2.386 . S
O217 C235 1.265 . S
O218 Gd179 2.353 . S
O218 C235 1.242 . S
O219 Gd179 2.468 . S
O219 C243 1.263 . S
O220 Gd179 2.427 . S
O220 C243 1.252 . S
O221 Gd178 2.307 . S
O221 C236 1.261 . S
O222 Gd179 2.388 . S
O222 C236 1.252 . S
C223 O211 1.265 . S
C223 O212 1.242 . S
C224 O215 1.261 . S
C224 O216 1.252 . S
C225 C228 1.394 . S
C225 C230 1.370 . S
C225 C231 1.500 . S
C226 C229 1.383 . S
C226 C230 1.395 . S
C227 C228 1.396 . S
C227 C229 1.365 . S
C227 H244 0.929 . S
C228 C225 1.394 . S
C228 C227 1.396 . S
C228 H245 0.930 . S
C229 C226 1.383 . S
C229 C227 1.365 . S
C229 H246 0.931 . S
C230 C225 1.370 . S
C230 C226 1.395 . S
C230 H247 0.930 . S
C231 Gd178 2.805 . S
C231 O213 1.263 . S
C231 O214 1.252 . S
C231 C225 1.500 . S
C232 H194 0.930 . S
C232 C208 1.417 . S
C232 C233 1.329 . S
C233 C203 1.437 . S
C233 H204 0.929 . S
C233 C232 1.329 . S
H234 C207 0.931 . S
C235 O217 1.265 . S
C235 O218 1.242 . S
C236 O221 1.261 . S
C236 O222 1.252 . S
C237 C240 1.394 . S
C237 C242 1.370 . S
C237 C243 1.500 . S
C238 C241 1.383 . S
C238 C242 1.395 . S
C239 C240 1.396 . S
C239 C241 1.365 . S
C239 H248 0.929 . S
C240 C237 1.394 . S
C240 C239 1.396 . S
C240 H249 0.930 . S
C241 C238 1.383 . S
C241 C239 1.365 . S
C241 H250 0.931 . S
C242 C237 1.370 . S
C242 C238 1.395 . S
C242 H251 0.930 . S
C243 Gd179 2.805 . S
C243 O219 1.263 . S
C243 O220 1.252 . S
C243 C237 1.500 . S
H244 C227 0.929 . S
H245 C228 0.930 . S
H246 C229 0.931 . S
H247 C230 0.930 . S
H248 C239 0.929 . S
H249 C240 0.930 . S
H250 C241 0.931 . S
H251 C242 0.930 . S
C252 C254 1.422 . S
C252 C256 1.415 . S
C252 N258 1.369 . S
C253 C254 1.421 . S
C253 C255 1.417 . S
C253 C265 1.422 . S
C254 C252 1.422 . S
C254 C253 1.421 . S
C254 N264 1.359 . S
C255 C253 1.417 . S
C255 C257 1.329 . S
C255 H274 0.930 . S
C256 C252 1.415 . S
C256 C257 1.437 . S
C256 C260 1.413 . S
C257 C255 1.329 . S
C257 C256 1.437 . S
C257 H279 0.929 . S
N258 C252 1.369 . S
N258 C259 1.338 . S
N258 Gd263 2.622 . S
C259 N258 1.338 . S
C259 C261 1.378 . S
C259 H271 0.929 . S
C260 C256 1.413 . S
C260 C261 1.348 . S
C260 H276 0.931 . S
C261 C259 1.378 . S
C261 C260 1.348 . S
C261 H277 0.930 . S
Gd262 N282 2.622 . S
Gd262 N289 2.570 . S
Gd262 O296 2.353 . S
Gd262 O297 2.468 . S
Gd262 O298 2.427 . S
Gd262 O300 2.388 . S
Gd262 O301 2.386 . S
Gd262 O305 2.307 . S
Gd262 C315 2.805 . S
Gd263 N258 2.622 . S
Gd263 N264 2.570 . S
Gd263 O295 2.386 . S
Gd263 O299 2.307 . S
Gd263 O302 2.353 . S
Gd263 O303 2.468 . S
Gd263 O304 2.427 . S
Gd263 O306 2.388 . S
Gd263 C327 2.805 . S
N264 C254 1.359 . S
N264 Gd263 2.570 . S
N264 C266 1.343 . S
C265 C253 1.422 . S
C265 C267 1.321 . S
C265 H273 0.931 . S
C266 N264 1.343 . S
C266 C267 1.390 . S
C266 H268 0.931 . S
C267 C265 1.321 . S
C267 C266 1.390 . S
C267 H269 0.930 . S
H268 C266 0.931 . S
H269 C267 0.930 . S
H270 C293 0.931 . S
H271 C259 0.929 . S
H272 C294 0.930 . S
H273 C265 0.931 . S
H274 C255 0.930 . S
H275 C284 0.929 . S
H276 C260 0.931 . S
H277 C261 0.930 . S
H278 C316 0.930 . S
H279 C257 0.929 . S
H280 C285 0.931 . S
H281 C286 0.921 1_565 S
N282 Gd262 2.622 . S
N282 C283 1.369 . S
N282 C284 1.338 . S
C283 N282 1.369 . S
C283 C287 1.415 . S
C283 C290 1.422 . S
C284 H275 0.929 . S
C284 N282 1.338 . S
C284 C286 1.387 . S
C285 H280 0.931 . S
C285 C286 1.347 1_565 S
C285 C287 1.413 1_565 S
C286 H281 0.921 1_545 S
C286 C284 1.387 . S
C286 C285 1.347 1_545 S
C287 C283 1.415 . S
C287 C285 1.413 1_545 S
C287 C317 1.437 . S
H288 C317 0.900 1_565 S
N289 Gd262 2.570 . S
N289 C290 1.359 . S
N289 C293 1.343 . S
C290 C283 1.422 . S
C290 N289 1.359 . S
C290 C292 1.421 . S
C291 C292 1.422 . S
C291 C294 1.321 . S
C291 H318 0.931 . S
C292 C290 1.421 . S
C292 C291 1.422 . S
C292 C316 1.417 . S
C293 H270 0.931 . S
C293 N289 1.343 . S
C293 C294 1.390 . S
C294 H272 0.930 . S
C294 C291 1.321 . S
C294 C293 1.390 . S
O295 Gd263 2.386 . S
O295 C307 1.265 . S
O296 Gd262 2.353 . S
O296 C307 1.242 . S
O297 Gd262 2.468 . S
O297 C315 1.263 . S
O298 Gd262 2.427 . S
O298 C315 1.252 . S
O299 Gd263 2.307 . S
O299 C308 1.261 . S
O300 Gd262 2.388 . S
O300 C308 1.252 . S
O301 Gd262 2.386 . S
O301 C319 1.265 . S
O302 Gd263 2.353 . S
O302 C319 1.242 . S
O303 Gd263 2.468 . S
O303 C327 1.263 . S
O304 Gd263 2.427 . S
O304 C327 1.252 . S
O305 Gd262 2.307 . S
O305 C320 1.261 . S
O306 Gd263 2.388 . S
O306 C320 1.252 . S
C307 O295 1.265 . S
C307 O296 1.242 . S
C308 O299 1.261 . S
C308 O300 1.252 . S
C309 C312 1.394 . S
C309 C314 1.370 . S
C309 C315 1.500 . S
C310 C313 1.383 . S
C310 C314 1.395 . S
C311 C312 1.396 . S
C311 C313 1.365 . S
C311 H328 0.929 . S
C312 C309 1.394 . S
C312 C311 1.396 . S
C312 H329 0.930 . S
C313 C310 1.383 . S
C313 C311 1.365 . S
C313 H330 0.931 . S
C314 C309 1.370 . S
C314 C310 1.395 . S
C314 H331 0.930 . S
C315 Gd262 2.805 . S
C315 O297 1.263 . S
C315 O298 1.252 . S
C315 C309 1.500 . S
C316 H278 0.930 . S
C316 C292 1.417 . S
C316 C317 1.329 . S
C317 C287 1.437 . S
C317 H288 0.900 1_545 S
C317 C316 1.329 . S
H318 C291 0.931 . S
C319 O301 1.265 . S
C319 O302 1.242 . S
C320 O305 1.261 . S
C320 O306 1.252 . S
C321 C324 1.394 . S
C321 C326 1.370 . S
C321 C327 1.500 1_554 S
C322 C325 1.383 . S
C322 C326 1.395 . S
C323 C324 1.396 . S
C323 C325 1.365 . S
C323 H332 0.929 . S
C324 C321 1.394 . S
C324 C323 1.396 . S
C324 H333 0.930 . S
C325 C322 1.383 . S
C325 C323 1.365 . S
C325 H334 0.931 . S
C326 C321 1.370 . S
C326 C322 1.395 . S
C326 H335 0.930 . S
C327 Gd263 2.805 . S
C327 O303 1.263 . S
C327 O304 1.252 . S
C327 C321 1.500 1_556 S
H328 C311 0.929 . S
H329 C312 0.930 . S
H330 C313 0.931 . S
H331 C314 0.930 . S
H332 C323 0.929 . S
H333 C324 0.930 . S
H334 C325 0.931 . S
H335 C326 0.930 . S
C336 C338 1.422 . S
C336 C340 1.415 . S
C336 N342 1.369 . S
C337 C338 1.421 1_655 S
C337 C339 1.417 . S
C337 C349 1.422 . S
C338 C336 1.422 . S
C338 C337 1.421 1_455 S
C338 N348 1.359 . S
C339 C337 1.417 . S
C339 C341 1.329 1_655 S
C339 H358 0.930 . S
C340 C336 1.415 . S
C340 C341 1.437 . S
C340 C344 1.413 . S
C341 C339 1.329 1_455 S
C341 C340 1.437 . S
C341 H363 0.931 . S
N342 C336 1.369 . S
N342 C343 1.338 . S
N342 Gd347 2.622 . S
C343 N342 1.338 . S
C343 C345 1.378 . S
C343 H355 0.929 . S
C344 C340 1.413 . S
C344 C345 1.348 . S
C344 H360 0.931 . S
C345 C343 1.378 . S
C345 C344 1.348 . S
C345 H361 0.930 . S
Gd346 N366 2.622 . S
Gd346 N373 2.570 . S
Gd346 O380 2.353 . S
Gd346 O381 2.468 . S
Gd346 O382 2.427 . S
Gd346 O384 2.388 . S
Gd346 O385 2.386 . S
Gd346 O389 2.307 . S
Gd346 C399 2.805 . S
Gd347 N342 2.622 . S
Gd347 N348 2.570 . S
Gd347 O379 2.386 . S
Gd347 O383 2.307 . S
Gd347 O386 2.353 . S
Gd347 O387 2.468 . S
Gd347 O388 2.427 . S
Gd347 O390 2.388 . S
Gd347 C411 2.805 . S
N348 C338 1.359 . S
N348 Gd347 2.570 . S
N348 C350 1.343 1_455 S
C349 C337 1.422 . S
C349 C351 1.321 . S
C349 H357 0.931 . S
C350 N348 1.343 1_655 S
C350 C351 1.390 . S
C350 H352 0.931 . S
C351 C349 1.321 . S
C351 C350 1.390 . S
C351 H353 0.930 . S
H352 C350 0.931 . S
H353 C351 0.930 . S
H354 C377 0.931 . S
H355 C343 0.929 . S
H356 C378 0.930 . S
H357 C349 0.931 . S
H358 C339 0.930 . S
H359 C368 0.929 . S
H360 C344 0.931 . S
H361 C345 0.930 . S
H362 C400 0.930 . S
H363 C341 0.931 . S
H364 C369 0.931 . S
H365 C370 0.930 . S
N366 Gd346 2.622 . S
N366 C367 1.369 . S
N366 C368 1.338 . S
C367 N366 1.369 . S
C367 C371 1.415 . S
C367 C374 1.422 . S
C368 H359 0.929 . S
C368 N366 1.338 . S
C368 C370 1.378 . S
C369 H364 0.931 . S
C369 C370 1.348 . S
C369 C371 1.413 . S
C370 H365 0.930 . S
C370 C368 1.378 . S
C370 C369 1.348 . S
C371 C367 1.415 . S
C371 C369 1.413 . S
C371 C401 1.437 . S
H372 C401 0.929 . S
N373 Gd346 2.570 . S
N373 C374 1.359 . S
N373 C377 1.343 . S
C374 C367 1.422 . S
C374 N373 1.359 . S
C374 C376 1.421 . S
C375 C376 1.422 . S
C375 C378 1.321 . S
C375 H402 0.931 . S
C376 C374 1.421 . S
C376 C375 1.422 . S
C376 C400 1.417 . S
C377 H354 0.931 . S
C377 N373 1.343 . S
C377 C378 1.390 . S
C378 H356 0.930 . S
C378 C375 1.321 . S
C378 C377 1.390 . S
O379 Gd347 2.386 . S
O379 C391 1.265 . S
O380 Gd346 2.353 . S
O380 C391 1.242 . S
O381 Gd346 2.468 . S
O381 C399 1.263 . S
O382 Gd346 2.427 . S
O382 C399 1.252 . S
O383 Gd347 2.307 . S
O383 C392 1.261 . S
O384 Gd346 2.388 . S
O384 C392 1.252 . S
O385 Gd346 2.386 . S
O385 C403 1.265 . S
O386 Gd347 2.353 . S
O386 C403 1.242 . S
O387 Gd347 2.468 . S
O387 C411 1.263 . S
O388 Gd347 2.427 . S
O388 C411 1.252 . S
O389 Gd346 2.307 . S
O389 C404 1.261 . S
O390 Gd347 2.388 . S
O390 C404 1.252 . S
C391 O379 1.265 . S
C391 O380 1.242 . S
C392 O383 1.261 . S
C392 O384 1.252 . S
C393 C396 1.394 . S
C393 C398 1.370 . S
C393 C399 1.500 . S
C394 C397 1.383 . S
C394 C398 1.395 . S
C395 C396 1.396 . S
C395 C397 1.365 . S
C395 H412 0.929 . S
C396 C393 1.394 . S
C396 C395 1.396 . S
C396 H413 0.930 . S
C397 C394 1.383 . S
C397 C395 1.365 . S
C397 H414 0.931 . S
C398 C393 1.370 . S
C398 C394 1.395 . S
C398 H415 0.930 . S
C399 Gd346 2.805 . S
C399 O381 1.263 . S
C399 O382 1.252 . S
C399 C393 1.500 . S
C400 H362 0.930 . S
C400 C376 1.417 . S
C400 C401 1.329 . S
C401 C371 1.437 . S
C401 H372 0.929 . S
C401 C400 1.329 . S
H402 C375 0.931 . S
C403 O385 1.265 . S
C403 O386 1.242 . S
C404 O389 1.261 . S
C404 O390 1.252 . S
C405 C408 1.394 . S
C405 C410 1.370 . S
C405 C411 1.500 . S
C406 C409 1.377 1_655 S
C406 C410 1.392 1_655 S
C407 C408 1.396 . S
C407 C409 1.365 . S
C407 H416 0.929 . S
C408 C405 1.394 . S
C408 C407 1.396 . S
C408 H417 0.930 . S
C409 C406 1.377 1_455 S
C409 C407 1.365 . S
C409 H418 0.931 . S
C410 C405 1.370 . S
C410 C406 1.392 1_455 S
C410 H419 0.950 . S
C411 Gd347 2.805 . S
C411 O387 1.263 . S
C411 O388 1.252 . S
C411 C405 1.500 . S
H412 C395 0.929 . S
H413 C396 0.930 . S
H414 C397 0.931 . S
H415 C398 0.930 . S
H416 C407 0.929 . S
H417 C408 0.930 . S
H418 C409 0.931 . S
H419 C410 0.950 . S
C420 C422 1.422 . S
C420 C424 1.415 . S
C420 N426 1.369 . S
C421 C422 1.421 . S
C421 C423 1.417 . S
C421 C433 1.422 . S
C422 C420 1.422 . S
C422 C421 1.421 . S
C422 N432 1.359 . S
C423 C421 1.417 . S
C423 C425 1.329 . S
C423 H442 0.930 . S
C424 C420 1.415 . S
C424 C425 1.437 . S
C424 C428 1.413 . S
C425 C423 1.329 . S
C425 C424 1.437 . S
C425 H447 0.929 . S
N426 C420 1.369 . S
N426 C427 1.338 . S
N426 Gd431 2.622 . S
C427 N426 1.338 . S
C427 C429 1.378 . S
C427 H439 0.929 . S
C428 C424 1.413 . S
C428 C429 1.348 . S
C428 H444 0.931 . S
C429 C427 1.378 . S
C429 C428 1.348 . S
C429 H445 0.930 . S
Gd430 N450 2.622 . S
Gd430 N457 2.570 . S
Gd430 O464 2.353 . S
Gd430 O465 2.468 . S
Gd430 O466 2.427 . S
Gd430 O468 2.388 . S
Gd430 O469 2.386 . S
Gd430 O473 2.307 . S
Gd430 C483 2.805 . S
Gd431 N426 2.622 . S
Gd431 N432 2.570 . S
Gd431 O463 2.386 . S
Gd431 O467 2.307 . S
Gd431 O470 2.353 . S
Gd431 O471 2.468 . S
Gd431 O472 2.427 . S
Gd431 O474 2.388 . S
Gd431 C495 2.805 . S
N432 C422 1.359 . S
N432 Gd431 2.570 . S
N432 C434 1.343 . S
C433 C421 1.422 . S
C433 C435 1.321 . S
C433 H441 0.931 . S
C434 N432 1.343 . S
C434 C435 1.390 . S
C434 H436 0.931 . S
C435 C433 1.321 . S
C435 C434 1.390 . S
C435 H437 0.930 . S
H436 C434 0.931 . S
H437 C435 0.930 . S
H438 C461 0.931 . S
H439 C427 0.929 . S
H440 C462 0.930 . S
H441 C433 0.931 . S
H442 C423 0.930 . S
H443 C452 0.929 . S
H444 C428 0.931 . S
H445 C429 0.930 . S
H446 C484 0.930 . S
H447 C425 0.929 . S
H448 C453 0.931 . S
H449 C454 0.930 . S
N450 Gd430 2.622 . S
N450 C451 1.369 . S
N450 C452 1.338 . S
C451 N450 1.369 . S
C451 C455 1.415 . S
C451 C458 1.422 . S
C452 H443 0.929 . S
C452 N450 1.338 . S
C452 C454 1.378 1_565 S
C453 H448 0.931 . S
C453 C454 1.348 . S
C453 C455 1.413 1_545 S
C454 H449 0.930 . S
C454 C452 1.378 1_545 S
C454 C453 1.348 . S
C455 C451 1.415 . S
C455 C453 1.413 1_565 S
C455 C485 1.437 . S
H456 C485 0.929 . S
N457 Gd430 2.570 . S
N457 C458 1.359 . S
N457 C461 1.343 . S
C458 C451 1.422 . S
C458 N457 1.359 . S
C458 C460 1.421 . S
C459 C460 1.422 . S
C459 C462 1.321 . S
C459 H486 0.931 . S
C460 C458 1.421 . S
C460 C459 1.422 . S
C460 C484 1.417 . S
C461 H438 0.931 . S
C461 N457 1.343 . S
C461 C462 1.390 . S
C462 H440 0.930 . S
C462 C459 1.321 . S
C462 C461 1.390 . S
O463 Gd431 2.386 . S
O463 C475 1.265 . S
O464 Gd430 2.353 . S
O464 C475 1.242 . S
O465 Gd430 2.468 . S
O465 C483 1.263 . S
O466 Gd430 2.427 . S
O466 C483 1.252 . S
O467 Gd431 2.307 . S
O467 C476 1.261 . S
O468 Gd430 2.388 . S
O468 C476 1.252 . S
O469 Gd430 2.386 . S
O469 C487 1.265 . S
O470 Gd431 2.353 . S
O470 C487 1.242 . S
O471 Gd431 2.468 . S
O471 C495 1.263 . S
O472 Gd431 2.427 . S
O472 C495 1.252 . S
O473 Gd430 2.307 . S
O473 C488 1.261 . S
O474 Gd431 2.388 . S
O474 C488 1.252 . S
C475 O463 1.265 . S
C475 O464 1.242 . S
C476 O467 1.261 . S
C476 O468 1.252 . S
C477 C480 1.394 . S
C477 C482 1.370 . S
C477 C483 1.500 1_554 S
C478 C481 1.383 . S
C478 C482 1.395 . S
C479 C480 1.396 . S
C479 C481 1.365 . S
C479 H496 0.929 . S
C480 C477 1.394 . S
C480 C479 1.396 . S
C480 H497 0.930 . S
C481 C478 1.383 . S
C481 C479 1.365 . S
C481 H498 0.931 . S
C482 C477 1.370 . S
C482 C478 1.395 . S
C482 H499 0.930 . S
C483 Gd430 2.805 . S
C483 O465 1.263 . S
C483 O466 1.252 . S
C483 C477 1.500 1_556 S
C484 H446 0.930 . S
C484 C460 1.417 . S
C484 C485 1.329 . S
C485 C455 1.437 . S
C485 H456 0.929 . S
C485 C484 1.329 . S
H486 C459 0.931 . S
C487 O469 1.265 . S
C487 O470 1.242 . S
C488 O473 1.261 . S
C488 O474 1.252 . S
C489 C492 1.394 . S
C489 C494 1.370 . S
C489 C495 1.500 . S
C490 C493 1.383 . S
C490 C494 1.395 . S
C491 C492 1.396 . S
C491 C493 1.365 . S
C491 H500 0.929 . S
C492 C489 1.394 . S
C492 C491 1.396 . S
C492 H501 0.930 . S
C493 C490 1.383 . S
C493 C491 1.365 . S
C493 H502 0.931 . S
C494 C489 1.370 . S
C494 C490 1.395 . S
C494 H503 0.930 . S
C495 Gd431 2.805 . S
C495 O471 1.263 . S
C495 O472 1.252 . S
C495 C489 1.500 . S
H496 C479 0.929 . S
H497 C480 0.930 . S
H498 C481 0.931 . S
H499 C482 0.930 . S
H500 C491 0.929 . S
H501 C492 0.930 . S
H502 C493 0.931 . S
H503 C494 0.930 . S
C504 C506 1.422 . S
C504 C508 1.415 . S
C504 N510 1.369 . S
C505 C506 1.421 . S
C505 C507 1.417 . S
C505 C517 1.422 . S
C506 C504 1.422 . S
C506 C505 1.421 . S
C506 N516 1.359 . S
C507 C505 1.417 . S
C507 C509 1.329 . S
C507 H526 0.930 . S
C508 C504 1.415 . S
C508 C509 1.437 . S
C508 C512 1.413 . S
C509 C507 1.329 . S
C509 C508 1.437 . S
C509 H531 0.929 . S
N510 C504 1.369 . S
N510 C511 1.338 . S
N510 Gd515 2.622 . S
C511 N510 1.338 . S
C511 C513 1.378 . S
C511 H523 0.929 . S
C512 C508 1.413 . S
C512 C513 1.348 . S
C512 H528 0.931 . S
C513 C511 1.378 . S
C513 C512 1.348 . S
C513 H529 0.930 . S
Gd514 N534 2.622 . S
Gd514 N541 2.570 . S
Gd514 O548 2.353 1_554 S
Gd514 O549 2.468 1_554 S
Gd514 O550 2.427 1_554 S
Gd514 O552 2.388 . S
Gd514 O553 2.386 . S
Gd514 O557 2.307 . S
Gd514 C567 2.805 1_554 S
Gd515 N510 2.622 . S
Gd515 N516 2.570 . S
Gd515 O547 2.386 . S
Gd515 O551 2.307 . S
Gd515 O554 2.353 . S
Gd515 O555 2.468 . S
Gd515 O556 2.427 . S
Gd515 O558 2.388 . S
Gd515 C579 2.805 . S
N516 C506 1.359 . S
N516 Gd515 2.570 . S
N516 C518 1.343 . S
C517 C505 1.422 . S
C517 C519 1.321 . S
C517 H525 0.931 . S
C518 N516 1.343 . S
C518 C519 1.390 . S
C518 H520 0.931 . S
C519 C517 1.321 . S
C519 C518 1.390 . S
C519 H521 0.930 . S
H520 C518 0.931 . S
H521 C519 0.930 . S
H522 C545 0.931 . S
H523 C511 0.929 . S
H524 C546 0.930 . S
H525 C517 0.931 . S
H526 C507 0.930 . S
H527 C536 0.929 . S
H528 C512 0.931 . S
H529 C513 0.930 . S
H530 C568 0.930 . S
H531 C509 0.929 . S
H532 C537 0.931 . S
H533 C538 0.930 . S
N534 Gd514 2.622 . S
N534 C535 1.369 . S
N534 C536 1.338 . S
C535 N534 1.369 . S
C535 C539 1.415 . S
C535 C542 1.422 . S
C536 H527 0.929 . S
C536 N534 1.338 . S
C536 C538 1.378 . S
C537 H532 0.931 . S
C537 C538 1.348 . S
C537 C539 1.413 . S
C538 H533 0.930 . S
C538 C536 1.378 . S
C538 C537 1.348 . S
C539 C535 1.415 . S
C539 C537 1.413 . S
C539 C569 1.437 . S
H540 C569 0.929 . S
N541 Gd514 2.570 . S
N541 C542 1.359 . S
N541 C545 1.343 . S
C542 C535 1.422 . S
C542 N541 1.359 . S
C542 C544 1.421 . S
C543 C544 1.422 . S
C543 C546 1.321 . S
C543 H570 0.931 . S
C544 C542 1.421 . S
C544 C543 1.422 . S
C544 C568 1.417 . S
C545 H522 0.931 . S
C545 N541 1.343 . S
C545 C546 1.390 . S
C546 H524 0.930 . S
C546 C543 1.321 . S
C546 C545 1.390 . S
O547 Gd515 2.386 . S
O547 C559 1.265 1_554 S
O548 Gd514 2.353 1_556 S
O548 C559 1.242 . S
O549 Gd514 2.468 1_556 S
O549 C567 1.263 . S
O550 Gd514 2.427 1_556 S
O550 C567 1.252 . S
O551 Gd515 2.307 . S
O551 C560 1.261 . S
O552 Gd514 2.388 . S
O552 C560 1.252 . S
O553 Gd514 2.386 . S
O553 C571 1.265 . S
O554 Gd515 2.353 . S
O554 C571 1.242 . S
O555 Gd515 2.468 . S
O555 C579 1.263 . S
O556 Gd515 2.427 . S
O556 C579 1.252 . S
O557 Gd514 2.307 . S
O557 C572 1.261 . S
O558 Gd515 2.388 . S
O558 C572 1.252 . S
C559 O547 1.265 1_556 S
C559 O548 1.242 . S
C560 O551 1.261 . S
C560 O552 1.252 . S
C561 C564 1.394 . S
C561 C566 1.370 . S
C561 C567 1.500 . S
C562 C565 1.383 . S
C562 C566 1.395 . S
C563 C564 1.396 . S
C563 C565 1.365 . S
C563 H580 0.929 . S
C564 C561 1.394 . S
C564 C563 1.396 . S
C564 H581 0.930 . S
C565 C562 1.383 . S
C565 C563 1.365 . S
C565 H582 0.931 . S
C566 C561 1.370 . S
C566 C562 1.395 . S
C566 H583 0.930 . S
C567 Gd514 2.805 1_556 S
C567 O549 1.263 . S
C567 O550 1.252 . S
C567 C561 1.500 . S
C568 H530 0.930 . S
C568 C544 1.417 . S
C568 C569 1.329 . S
C569 C539 1.437 . S
C569 H540 0.929 . S
C569 C568 1.329 . S
H570 C543 0.931 . S
C571 O553 1.265 . S
C571 O554 1.242 . S
C572 O557 1.261 . S
C572 O558 1.252 . S
C573 C576 1.394 . S
C573 C578 1.370 . S
C573 C579 1.500 . S
C574 C577 1.383 . S
C574 C578 1.395 . S
C575 C576 1.396 . S
C575 C577 1.365 . S
C575 H584 0.929 . S
C576 C573 1.394 . S
C576 C575 1.396 . S
C576 H585 0.930 . S
C577 C574 1.383 . S
C577 C575 1.365 . S
C577 H586 0.931 . S
C578 C573 1.370 . S
C578 C574 1.395 . S
C578 H587 0.930 . S
C579 Gd515 2.805 . S
C579 O555 1.263 . S
C579 O556 1.252 . S
C579 C573 1.500 . S
H580 C563 0.929 . S
H581 C564 0.930 . S
H582 C565 0.931 . S
H583 C566 0.930 . S
H584 C575 0.929 . S
H585 C576 0.930 . S
H586 C577 0.931 . S
H587 C578 0.930 . S
C588 C590 1.422 . S
C588 C592 1.415 . S
C588 N594 1.369 . S
C589 C590 1.421 . S
C589 C591 1.417 . S
C589 C601 1.422 . S
C590 C588 1.422 . S
C590 C589 1.421 . S
C590 N600 1.359 . S
C591 C589 1.417 . S
C591 C593 1.329 . S
C591 H610 0.930 . S
C592 C588 1.415 . S
C592 C593 1.437 . S
C592 C596 1.413 . S
C593 C591 1.329 . S
C593 C592 1.437 . S
C593 H615 0.929 . S
N594 C588 1.369 . S
N594 C595 1.338 . S
N594 Gd599 2.622 . S
C595 N594 1.338 . S
C595 C597 1.378 . S
C595 H607 0.929 . S
C596 C592 1.413 . S
C596 C597 1.348 . S
C596 H612 0.931 . S
C597 C595 1.378 . S
C597 C596 1.348 . S
C597 H613 0.930 . S
Gd598 N618 2.622 . S
Gd598 N625 2.570 . S
Gd598 O632 2.353 . S
Gd598 O633 2.468 . S
Gd598 O634 2.427 . S
Gd598 O636 2.388 . S
Gd598 O637 2.386 . S
Gd598 O641 2.307 . S
Gd598 C651 2.805 . S
Gd599 N594 2.622 . S
Gd599 N600 2.570 . S
Gd599 O631 2.386 . S
Gd599 O635 2.307 . S
Gd599 O638 2.353 . S
Gd599 O639 2.468 . S
Gd599 O640 2.427 . S
Gd599 O642 2.388 . S
Gd599 C663 2.805 . S
N600 C590 1.359 . S
N600 Gd599 2.570 . S
N600 C602 1.343 . S
C601 C589 1.422 . S
C601 C603 1.321 . S
C601 H609 0.931 . S
C602 N600 1.343 . S
C602 C603 1.390 . S
C602 H604 0.931 . S
C603 C601 1.321 . S
C603 C602 1.390 . S
C603 H605 0.930 . S
H604 C602 0.931 . S
H605 C603 0.930 . S
H606 C629 0.931 . S
H607 C595 0.929 . S
H608 C630 0.930 . S
H609 C601 0.931 . S
H610 C591 0.930 . S
H611 C620 0.929 . S
H612 C596 0.931 . S
H613 C597 0.930 . S
H614 C652 0.930 . S
H615 C593 0.929 . S
H616 C621 0.931 . S
H617 C622 0.930 . S
N618 Gd598 2.622 . S
N618 C619 1.369 . S
N618 C620 1.338 . S
C619 N618 1.369 . S
C619 C623 1.415 . S
C619 C626 1.422 . S
C620 H611 0.929 . S
C620 N618 1.338 . S
C620 C622 1.378 . S
C621 H616 0.931 . S
C621 C622 1.348 . S
C621 C623 1.413 . S
C622 H617 0.930 . S
C622 C620 1.378 . S
C622 C621 1.348 . S
C623 C619 1.415 . S
C623 C621 1.413 . S
C623 C653 1.437 . S
H624 C653 0.929 . S
N625 Gd598 2.570 . S
N625 C626 1.359 . S
N625 C629 1.343 . S
C626 C619 1.422 . S
C626 N625 1.359 . S
C626 C628 1.421 . S
C627 C628 1.422 . S
C627 C630 1.321 . S
C627 H654 0.931 . S
C628 C626 1.421 . S
C628 C627 1.422 . S
C628 C652 1.417 . S
C629 H606 0.931 . S
C629 N625 1.343 . S
C629 C630 1.390 . S
C630 H608 0.930 . S
C630 C627 1.321 . S
C630 C629 1.390 . S
O631 Gd599 2.386 . S
O631 C643 1.265 . S
O632 Gd598 2.353 . S
O632 C643 1.242 . S
O633 Gd598 2.468 . S
O633 C651 1.263 . S
O634 Gd598 2.427 . S
O634 C651 1.252 . S
O635 Gd599 2.307 . S
O635 C644 1.261 . S
O636 Gd598 2.388 . S
O636 C644 1.252 . S
O637 Gd598 2.386 . S
O637 C655 1.265 . S
O638 Gd599 2.353 . S
O638 C655 1.242 . S
O639 Gd599 2.468 . S
O639 C663 1.263 . S
O640 Gd599 2.427 . S
O640 C663 1.252 . S
O641 Gd598 2.307 . S
O641 C656 1.261 . S
O642 Gd599 2.388 . S
O642 C656 1.252 . S
C643 O631 1.265 . S
C643 O632 1.242 . S
C644 O635 1.261 . S
C644 O636 1.252 . S
C645 C648 1.394 . S
C645 C650 1.370 . S
C645 C651 1.500 . S
C646 C649 1.383 . S
C646 C650 1.395 . S
C647 C648 1.396 . S
C647 C649 1.365 . S
C647 H664 0.929 . S
C648 C645 1.394 . S
C648 C647 1.396 . S
C648 H665 0.930 . S
C649 C646 1.383 . S
C649 C647 1.365 . S
C649 H666 0.931 . S
C650 C645 1.370 . S
C650 C646 1.395 . S
C650 H667 0.930 . S
C651 Gd598 2.805 . S
C651 O633 1.263 . S
C651 O634 1.252 . S
C651 C645 1.500 . S
C652 H614 0.930 . S
C652 C628 1.417 . S
C652 C653 1.329 . S
C653 C623 1.437 . S
C653 H624 0.929 . S
C653 C652 1.329 . S
H654 C627 0.931 . S
C655 O637 1.265 . S
C655 O638 1.242 . S
C656 O641 1.261 . S
C656 O642 1.252 . S
C657 C660 1.394 . S
C657 C662 1.370 . S
C657 C663 1.500 . S
C658 C661 1.383 . S
C658 C662 1.395 . S
C659 C660 1.396 . S
C659 C661 1.365 . S
C659 H668 0.929 . S
C660 C657 1.394 . S
C660 C659 1.396 . S
C660 H669 0.930 . S
C661 C658 1.383 . S
C661 C659 1.365 . S
C661 H670 0.931 . S
C662 C657 1.370 . S
C662 C658 1.395 . S
C662 H671 0.930 . S
C663 Gd599 2.805 . S
C663 O639 1.263 . S
C663 O640 1.252 . S
C663 C657 1.500 . S
H664 C647 0.929 . S
H665 C648 0.930 . S
H666 C649 0.931 . S
H667 C650 0.930 . S
H668 C659 0.929 . S
H669 C660 0.930 . S
H670 C661 0.931 . S
H671 C662 0.930 . S
C672 C674 1.422 . S
C672 C676 1.415 . S
C672 N678 1.369 . S
C673 C674 1.421 . S
C673 C675 1.417 . S
C673 C685 1.422 . S
C674 C672 1.422 . S
C674 C673 1.421 . S
C674 N684 1.359 . S
C675 C673 1.417 . S
C675 C677 1.329 . S
C675 H694 0.930 . S
C676 C672 1.415 . S
C676 C677 1.437 . S
C676 C680 1.413 . S
C677 C675 1.329 . S
C677 C676 1.437 . S
C677 H699 0.929 . S
N678 C672 1.369 . S
N678 C679 1.338 . S
N678 Gd683 2.622 . S
C679 N678 1.338 . S
C679 C681 1.378 . S
C679 H691 0.929 . S
C680 C676 1.413 . S
C680 C681 1.348 . S
C680 H696 0.931 . S
C681 C679 1.378 . S
C681 C680 1.348 . S
C681 H697 0.930 . S
Gd682 N702 2.622 . S
Gd682 N709 2.570 . S
Gd682 O716 2.353 . S
Gd682 O717 2.468 . S
Gd682 O718 2.427 . S
Gd682 O720 2.388 . S
Gd682 O721 2.386 . S
Gd682 O725 2.307 . S
Gd682 C735 2.805 . S
Gd683 N678 2.622 . S
Gd683 N684 2.570 . S
Gd683 O715 2.386 . S
Gd683 O719 2.307 . S
Gd683 O722 2.353 . S
Gd683 O723 2.468 . S
Gd683 O724 2.427 . S
Gd683 O726 2.388 . S
Gd683 C747 2.805 . S
N684 C674 1.359 . S
N684 Gd683 2.570 . S
N684 C686 1.343 . S
C685 C673 1.422 . S
C685 C687 1.321 . S
C685 H693 0.931 . S
C686 N684 1.343 . S
C686 C687 1.390 . S
C686 H688 0.931 . S
C687 C685 1.321 . S
C687 C686 1.390 . S
C687 H689 0.930 . S
H688 C686 0.931 . S
H689 C687 0.930 . S
H690 C713 0.931 . S
H691 C679 0.929 . S
H692 C714 0.930 . S
H693 C685 0.931 . S
H694 C675 0.930 . S
H695 C704 0.929 . S
H696 C680 0.931 . S
H697 C681 0.930 . S
H698 C736 0.930 . S
H699 C677 0.929 . S
H700 C705 0.931 . S
H701 C706 0.930 . S
N702 Gd682 2.622 . S
N702 C703 1.369 . S
N702 C704 1.338 . S
C703 N702 1.369 . S
C703 C707 1.415 . S
C703 C710 1.422 . S
C704 H695 0.929 . S
C704 N702 1.338 . S
C704 C706 1.378 . S
C705 H700 0.931 . S
C705 C706 1.348 . S
C705 C707 1.413 . S
C706 H701 0.930 . S
C706 C704 1.378 . S
C706 C705 1.348 . S
C707 C703 1.415 . S
C707 C705 1.413 . S
C707 C737 1.437 . S
H708 C737 0.929 . S
N709 Gd682 2.570 . S
N709 C710 1.359 . S
N709 C713 1.343 . S
C710 C703 1.422 . S
C710 N709 1.359 . S
C710 C712 1.421 . S
C711 C712 1.422 1_455 S
C711 C714 1.321 . S
C711 H738 0.931 . S
C712 C710 1.421 . S
C712 C711 1.422 1_655 S
C712 C736 1.417 . S
C713 H690 0.931 . S
C713 N709 1.343 . S
C713 C714 1.390 1_655 S
C714 H692 0.930 . S
C714 C711 1.321 . S
C714 C713 1.390 1_455 S
O715 Gd683 2.386 . S
O715 C727 1.265 . S
O716 Gd682 2.353 . S
O716 C727 1.242 . S
O717 Gd682 2.468 . S
O717 C735 1.263 . S
O718 Gd682 2.427 . S
O718 C735 1.252 . S
O719 Gd683 2.307 . S
O719 C728 1.261 . S
O720 Gd682 2.388 . S
O720 C728 1.252 . S
O721 Gd682 2.386 . S
O721 C739 1.265 . S
O722 Gd683 2.353 . S
O722 C739 1.242 . S
O723 Gd683 2.468 . S
O723 C747 1.263 . S
O724 Gd683 2.427 . S
O724 C747 1.252 . S
O725 Gd682 2.307 . S
O725 C740 1.261 . S
O726 Gd683 2.388 . S
O726 C740 1.252 . S
C727 O715 1.265 . S
C727 O716 1.242 . S
C728 O719 1.261 . S
C728 O720 1.252 . S
C729 C732 1.394 . S
C729 C734 1.370 . S
C729 C735 1.500 . S
C730 C733 1.383 . S
C730 C734 1.395 . S
C731 C732 1.396 . S
C731 C733 1.365 . S
C731 H748 0.929 . S
C732 C729 1.394 . S
C732 C731 1.396 . S
C732 H749 0.930 . S
C733 C730 1.383 . S
C733 C731 1.365 . S
C733 H750 0.931 . S
C734 C729 1.370 . S
C734 C730 1.395 . S
C734 H751 0.930 . S
C735 Gd682 2.805 . S
C735 O717 1.263 . S
C735 O718 1.252 . S
C735 C729 1.500 . S
C736 H698 0.930 . S
C736 C712 1.417 . S
C736 C737 1.329 . S
C737 C707 1.437 . S
C737 H708 0.929 . S
C737 C736 1.329 . S
H738 C711 0.931 . S
C739 O721 1.265 . S
C739 O722 1.242 . S
C740 O725 1.261 . S
C740 O726 1.252 . S
C741 C744 1.394 1_554 S
C741 C746 1.370 1_554 S
C741 C747 1.500 . S
C742 C745 1.383 . S
C742 C746 1.395 . S
C743 C744 1.396 . S
C743 C745 1.365 . S
C743 H752 0.929 . S
C744 C741 1.394 1_556 S
C744 C743 1.396 . S
C744 H753 0.930 1_556 S
C745 C742 1.383 . S
C745 C743 1.365 . S
C745 H754 0.931 . S
C746 C741 1.370 1_556 S
C746 C742 1.395 . S
C746 H755 0.930 . S
C747 Gd683 2.805 . S
C747 O723 1.263 . S
C747 O724 1.252 . S
C747 C741 1.500 . S
H748 C731 0.929 . S
H749 C732 0.930 . S
H750 C733 0.931 . S
H751 C734 0.930 . S
H752 C743 0.929 . S
H753 C744 0.930 1_554 S
H754 C745 0.931 . S
H755 C746 0.930 . S
C756 C758 1.422 . S
C756 C760 1.415 . S
C756 N762 1.369 . S
C757 C758 1.421 . S
C757 C759 1.417 . S
C757 C769 1.422 . S
C758 C756 1.422 . S
C758 C757 1.421 . S
C758 N768 1.359 . S
C759 C757 1.417 . S
C759 C761 1.329 . S
C759 H778 0.930 . S
C760 C756 1.415 . S
C760 C761 1.437 . S
C760 C764 1.413 . S
C761 C759 1.329 . S
C761 C760 1.437 . S
C761 H783 0.929 . S
N762 C756 1.369 . S
N762 C763 1.338 . S
N762 Gd767 2.622 . S
C763 N762 1.338 . S
C763 C765 1.378 . S
C763 H775 0.929 . S
C764 C760 1.413 . S
C764 C765 1.348 . S
C764 H780 0.931 . S
C765 C763 1.378 . S
C765 C764 1.348 . S
C765 H781 0.930 . S
Gd766 N786 2.622 . S
Gd766 N793 2.570 . S
Gd766 O800 2.353 . S
Gd766 O801 2.468 . S
Gd766 O802 2.427 . S
Gd766 O804 2.388 . S
Gd766 O805 2.386 . S
Gd766 O809 2.307 . S
Gd766 C819 2.805 . S
Gd767 N762 2.622 . S
Gd767 N768 2.570 . S
Gd767 O799 2.386 . S
Gd767 O803 2.307 . S
Gd767 O806 2.353 . S
Gd767 O807 2.468 . S
Gd767 O808 2.427 . S
Gd767 O810 2.388 . S
Gd767 C831 2.805 . S
N768 C758 1.359 . S
N768 Gd767 2.570 . S
N768 C770 1.343 . S
C769 C757 1.422 . S
C769 C771 1.321 . S
C769 H777 0.931 . S
C770 N768 1.343 . S
C770 C771 1.390 . S
C770 H772 0.931 . S
C771 C769 1.321 . S
C771 C770 1.390 . S
C771 H773 0.930 . S
H772 C770 0.931 . S
H773 C771 0.930 . S
H774 C797 0.931 . S
H775 C763 0.929 . S
H776 C798 0.930 . S
H777 C769 0.931 . S
H778 C759 0.930 . S
H779 C788 0.929 . S
H780 C764 0.931 . S
H781 C765 0.930 . S
H782 C820 0.930 . S
H783 C761 0.929 . S
H784 C789 0.931 . S
H785 C790 0.930 . S
N786 Gd766 2.622 . S
N786 C787 1.369 . S
N786 C788 1.338 . S
C787 N786 1.369 . S
C787 C791 1.415 . S
C787 C794 1.422 . S
C788 H779 0.929 . S
C788 N786 1.338 . S
C788 C790 1.378 . S
C789 H784 0.931 . S
C789 C790 1.348 . S
C789 C791 1.413 . S
C790 H785 0.930 . S
C790 C788 1.378 . S
C790 C789 1.348 . S
C791 C787 1.415 . S
C791 C789 1.413 . S
C791 C821 1.437 . S
H792 C821 0.929 . S
N793 Gd766 2.570 . S
N793 C794 1.359 . S
N793 C797 1.343 . S
C794 C787 1.422 . S
C794 N793 1.359 . S
C794 C796 1.421 . S
C795 C796 1.422 . S
C795 C798 1.321 . S
C795 H822 0.931 . S
C796 C794 1.421 . S
C796 C795 1.422 . S
C796 C820 1.417 . S
C797 H774 0.931 . S
C797 N793 1.343 . S
C797 C798 1.390 . S
C798 H776 0.930 . S
C798 C795 1.321 . S
C798 C797 1.390 . S
O799 Gd767 2.386 . S
O799 C811 1.265 . S
O800 Gd766 2.353 . S
O800 C811 1.242 . S
O801 Gd766 2.468 . S
O801 C819 1.263 . S
O802 Gd766 2.427 . S
O802 C819 1.252 . S
O803 Gd767 2.307 . S
O803 C812 1.261 . S
O804 Gd766 2.388 . S
O804 C812 1.252 . S
O805 Gd766 2.386 . S
O805 C823 1.265 . S
O806 Gd767 2.353 . S
O806 C823 1.242 . S
O807 Gd767 2.468 . S
O807 C831 1.263 . S
O808 Gd767 2.427 . S
O808 C831 1.252 . S
O809 Gd766 2.307 . S
O809 C824 1.261 . S
O810 Gd767 2.388 . S
O810 C824 1.252 . S
C811 O799 1.265 . S
C811 O800 1.242 . S
C812 O803 1.261 . S
C812 O804 1.252 . S
C813 C816 1.394 . S
C813 C818 1.370 . S
C813 C819 1.500 . S
C814 C817 1.383 . S
C814 C818 1.395 1_554 S
C815 C816 1.396 1_554 S
C815 C817 1.365 . S
C815 H832 0.929 . S
C816 C813 1.394 . S
C816 C815 1.396 1_556 S
C816 H833 0.930 . S
C817 C814 1.383 . S
C817 C815 1.365 . S
C817 H834 0.931 . S
C818 C813 1.370 . S
C818 C814 1.395 1_556 S
C818 H835 0.930 . S
C819 Gd766 2.805 . S
C819 O801 1.263 . S
C819 O802 1.252 . S
C819 C813 1.500 . S
C820 H782 0.930 . S
C820 C796 1.417 . S
C820 C821 1.329 . S
C821 C791 1.437 . S
C821 H792 0.929 . S
C821 C820 1.329 . S
H822 C795 0.931 . S
C823 O805 1.265 . S
C823 O806 1.242 . S
C824 O809 1.261 . S
C824 O810 1.252 . S
C825 C828 1.394 . S
C825 C830 1.370 . S
C825 C831 1.500 . S
C826 C829 1.383 . S
C826 C830 1.395 . S
C827 C828 1.396 . S
C827 C829 1.365 . S
C827 H836 0.929 . S
C828 C825 1.394 . S
C828 C827 1.396 . S
C828 H837 0.930 . S
C829 C826 1.383 . S
C829 C827 1.365 . S
C829 H838 0.931 . S
C830 C825 1.370 . S
C830 C826 1.395 . S
C830 H839 0.930 . S
C831 Gd767 2.805 . S
C831 O807 1.263 . S
C831 O808 1.252 . S
C831 C825 1.500 . S
H832 C815 0.929 . S
H833 C816 0.930 . S
H834 C817 0.931 . S
H835 C818 0.930 . S
H836 C827 0.929 . S
H837 C828 0.930 . S
H838 C829 0.931 . S
H839 C830 0.930 . S
C840 C842 1.422 . S
C840 C844 1.415 . S
C840 N846 1.369 . S
C841 C842 1.421 . S
C841 C843 1.417 . S
C841 C853 1.422 . S
C842 C840 1.422 . S
C842 C841 1.421 . S
C842 N852 1.359 . S
C843 C841 1.417 . S
C843 C845 1.329 . S
C843 H862 0.930 . S
C844 C840 1.415 . S
C844 C845 1.437 . S
C844 C848 1.413 . S
C845 C843 1.329 . S
C845 C844 1.437 . S
C845 H867 0.929 . S
N846 C840 1.369 . S
N846 C847 1.338 . S
N846 Gd851 2.622 . S
C847 N846 1.338 . S
C847 C849 1.378 . S
C847 H859 0.929 . S
C848 C844 1.413 . S
C848 C849 1.348 . S
C848 H864 0.931 . S
C849 C847 1.378 . S
C849 C848 1.348 . S
C849 H865 0.930 . S
Gd850 N870 2.622 . S
Gd850 N877 2.570 . S
Gd850 O884 2.353 . S
Gd850 O885 2.468 . S
Gd850 O886 2.427 . S
Gd850 O888 2.388 . S
Gd850 O889 2.386 . S
Gd850 O893 2.307 . S
Gd850 C903 2.805 . S
Gd851 N846 2.622 . S
Gd851 N852 2.570 . S
Gd851 O883 2.386 . S
Gd851 O887 2.307 . S
Gd851 O890 2.353 . S
Gd851 O891 2.468 . S
Gd851 O892 2.427 . S
Gd851 O894 2.388 . S
Gd851 C915 2.805 . S
N852 C842 1.359 . S
N852 Gd851 2.570 . S
N852 C854 1.343 . S
C853 C841 1.422 . S
C853 C855 1.321 . S
C853 H861 0.931 . S
C854 N852 1.343 . S
C854 C855 1.390 . S
C854 H856 0.931 . S
C855 C853 1.321 . S
C855 C854 1.390 . S
C855 H857 0.930 . S
H856 C854 0.931 . S
H857 C855 0.930 . S
H858 C881 0.931 . S
H859 C847 0.929 . S
H860 C882 0.930 . S
H861 C853 0.931 . S
H862 C843 0.930 . S
H863 C872 0.929 . S
H864 C848 0.931 . S
H865 C849 0.930 . S
H866 C904 0.930 . S
H867 C845 0.929 . S
H868 C873 0.931 . S
H869 C874 0.930 . S
N870 Gd850 2.622 . S
N870 C871 1.369 . S
N870 C872 1.338 . S
C871 N870 1.369 . S
C871 C875 1.415 . S
C871 C878 1.422 . S
C872 H863 0.929 . S
C872 N870 1.338 . S
C872 C874 1.378 . S
C873 H868 0.931 . S
C873 C874 1.348 . S
C873 C875 1.413 . S
C874 H869 0.930 . S
C874 C872 1.378 . S
C874 C873 1.348 . S
C875 C871 1.415 . S
C875 C873 1.413 . S
C875 C905 1.437 . S
H876 C905 0.929 . S
N877 Gd850 2.570 . S
N877 C878 1.359 . S
N877 C881 1.343 . S
C878 C871 1.422 . S
C878 N877 1.359 . S
C878 C880 1.421 . S
C879 C880 1.422 . S
C879 C882 1.321 . S
C879 H906 0.931 . S
C880 C878 1.421 . S
C880 C879 1.422 . S
C880 C904 1.417 . S
C881 H858 0.931 . S
C881 N877 1.343 . S
C881 C882 1.390 . S
C882 H860 0.930 . S
C882 C879 1.321 . S
C882 C881 1.390 . S
O883 Gd851 2.386 . S
O883 C895 1.265 . S
O884 Gd850 2.353 . S
O884 C895 1.242 . S
O885 Gd850 2.468 . S
O885 C903 1.263 . S
O886 Gd850 2.427 . S
O886 C903 1.252 . S
O887 Gd851 2.307 . S
O887 C896 1.261 . S
O888 Gd850 2.388 . S
O888 C896 1.252 . S
O889 Gd850 2.386 . S
O889 C907 1.265 . S
O890 Gd851 2.353 . S
O890 C907 1.242 . S
O891 Gd851 2.468 . S
O891 C915 1.263 . S
O892 Gd851 2.427 . S
O892 C915 1.252 . S
O893 Gd850 2.307 . S
O893 C908 1.261 . S
O894 Gd851 2.388 . S
O894 C908 1.252 . S
C895 O883 1.265 . S
C895 O884 1.242 . S
C896 O887 1.261 . S
C896 O888 1.252 . S
C897 C900 1.394 . S
C897 C902 1.370 . S
C897 C903 1.500 . S
C898 C901 1.383 . S
C898 C902 1.395 . S
C899 C900 1.396 . S
C899 C901 1.365 . S
C899 H916 0.929 . S
C900 C897 1.394 . S
C900 C899 1.396 . S
C900 H917 0.930 . S
C901 C898 1.383 . S
C901 C899 1.365 . S
C901 H918 0.931 . S
C902 C897 1.370 . S
C902 C898 1.395 . S
C902 H919 0.930 . S
C903 Gd850 2.805 . S
C903 O885 1.263 . S
C903 O886 1.252 . S
C903 C897 1.500 . S
C904 H866 0.930 . S
C904 C880 1.417 . S
C904 C905 1.329 . S
C905 C875 1.437 . S
C905 H876 0.929 . S
C905 C904 1.329 . S
H906 C879 0.931 . S
C907 O889 1.265 . S
C907 O890 1.242 . S
C908 O893 1.261 . S
C908 O894 1.252 . S
C909 C912 1.394 . S
C909 C914 1.370 . S
C909 C915 1.500 . S
C910 C913 1.383 . S
C910 C914 1.395 . S
C911 C912 1.396 . S
C911 C913 1.365 . S
C911 H920 0.929 . S
C912 C909 1.394 . S
C912 C911 1.396 . S
C912 H921 0.930 . S
C913 C910 1.383 . S
C913 C911 1.365 . S
C913 H922 0.931 . S
C914 C909 1.370 . S
C914 C910 1.395 . S
C914 H923 0.930 . S
C915 Gd851 2.805 . S
C915 O891 1.263 . S
C915 O892 1.252 . S
C915 C909 1.500 . S
H916 C899 0.929 . S
H917 C900 0.930 . S
H918 C901 0.931 . S
H919 C902 0.930 . S
H920 C911 0.929 . S
H921 C912 0.930 . S
H922 C913 0.931 . S
H923 C914 0.930 . S
C924 C926 1.422 . S
C924 C928 1.415 . S
C924 N930 1.369 . S
C925 C926 1.421 . S
C925 C927 1.417 . S
C925 C937 1.422 . S
C926 C924 1.422 . S
C926 C925 1.421 . S
C926 N936 1.359 . S
C927 C925 1.417 . S
C927 C929 1.329 . S
C927 H946 0.930 . S
C928 C924 1.415 . S
C928 C929 1.437 . S
C928 C932 1.413 1_565 S
C929 C927 1.329 . S
C929 C928 1.437 . S
C929 H951 0.900 1_565 S
N930 C924 1.369 . S
N930 C931 1.338 . S
N930 Gd935 2.622 . S
C931 N930 1.338 . S
C931 C933 1.388 . S
C931 H943 0.929 . S
C932 C928 1.413 1_545 S
C932 C933 1.347 1_545 S
C932 H948 0.931 . S
C933 C931 1.388 . S
C933 C932 1.347 1_565 S
C933 H949 0.921 1_565 S
Gd934 N954 2.622 . S
Gd934 N961 2.570 . S
Gd934 O968 2.353 . S
Gd934 O969 2.468 . S
Gd934 O970 2.427 . S
Gd934 O972 2.388 . S
Gd934 O973 2.386 . S
Gd934 O977 2.307 . S
Gd934 C987 2.805 . S
Gd935 N930 2.622 . S
Gd935 N936 2.570 . S
Gd935 O967 2.386 . S
Gd935 O971 2.307 . S
Gd935 O974 2.353 . S
Gd935 O975 2.468 . S
Gd935 O976 2.427 . S
Gd935 O978 2.388 . S
Gd935 C999 2.805 . S
N936 C926 1.359 . S
N936 Gd935 2.570 . S
N936 C938 1.343 . S
C937 C925 1.422 . S
C937 C939 1.321 . S
C937 H945 0.931 . S
C938 N936 1.343 . S
C938 C939 1.390 . S
C938 H940 0.931 . S
C939 C937 1.321 . S
C939 C938 1.390 . S
C939 H941 0.930 . S
H940 C938 0.931 . S
H941 C939 0.930 . S
H942 C965 0.931 . S
H943 C931 0.929 . S
H944 C966 0.930 . S
H945 C937 0.931 . S
H946 C927 0.930 . S
H947 C956 0.929 . S
H948 C932 0.931 . S
H949 C933 0.921 1_545 S
H950 C988 0.930 . S
H951 C929 0.900 1_545 S
H952 C957 0.931 . S
H953 C958 0.930 . S
N954 Gd934 2.622 . S
N954 C955 1.369 . S
N954 C956 1.338 . S
C955 N954 1.369 . S
C955 C959 1.415 . S
C955 C962 1.422 . S
C956 H947 0.929 . S
C956 N954 1.338 . S
C956 C958 1.378 . S
C957 H952 0.931 . S
C957 C958 1.348 . S
C957 C959 1.413 . S
C958 H953 0.930 . S
C958 C956 1.378 . S
C958 C957 1.348 . S
C959 C955 1.415 . S
C959 C957 1.413 . S
C959 C989 1.437 . S
H960 C989 0.929 . S
N961 Gd934 2.570 . S
N961 C962 1.359 . S
N961 C965 1.343 . S
C962 C955 1.422 . S
C962 N961 1.359 . S
C962 C964 1.421 . S
C963 C964 1.422 . S
C963 C966 1.321 . S
C963 H990 0.931 . S
C964 C962 1.421 . S
C964 C963 1.422 . S
C964 C988 1.417 . S
C965 H942 0.931 . S
C965 N961 1.343 . S
C965 C966 1.390 . S
C966 H944 0.930 . S
C966 C963 1.321 . S
C966 C965 1.390 . S
O967 Gd935 2.386 . S
O967 C979 1.265 . S
O968 Gd934 2.353 . S
O968 C979 1.242 . S
O969 Gd934 2.468 . S
O969 C987 1.263 . S
O970 Gd934 2.427 . S
O970 C987 1.252 . S
O971 Gd935 2.307 . S
O971 C980 1.261 . S
O972 Gd934 2.388 . S
O972 C980 1.252 . S
O973 Gd934 2.386 . S
O973 C991 1.265 . S
O974 Gd935 2.353 . S
O974 C991 1.242 . S
O975 Gd935 2.468 . S
O975 C999 1.263 . S
O976 Gd935 2.427 . S
O976 C999 1.252 . S
O977 Gd934 2.307 . S
O977 C992 1.261 . S
O978 Gd935 2.388 . S
O978 C992 1.252 . S
C979 O967 1.265 . S
C979 O968 1.242 . S
C980 O971 1.261 . S
C980 O972 1.252 . S
C981 C984 1.394 . S
C981 C986 1.370 . S
C981 C987 1.500 . S
C982 C985 1.383 . S
C982 C986 1.395 . S
C983 C984 1.396 . S
C983 C985 1.365 . S
C983 H1000 0.929 . S
C984 C981 1.394 . S
C984 C983 1.396 . S
C984 H1001 0.930 . S
C985 C982 1.383 . S
C985 C983 1.365 . S
C985 H1002 0.931 . S
C986 C981 1.370 . S
C986 C982 1.395 . S
C986 H1003 0.930 . S
C987 Gd934 2.805 . S
C987 O969 1.263 . S
C987 O970 1.252 . S
C987 C981 1.500 . S
C988 H950 0.930 . S
C988 C964 1.417 . S
C988 C989 1.329 . S
C989 C959 1.437 . S
C989 H960 0.929 . S
C989 C988 1.329 . S
H990 C963 0.931 . S
C991 O973 1.265 . S
C991 O974 1.242 . S
C992 O977 1.261 . S
C992 O978 1.252 . S
C993 C996 1.394 . S
C993 C998 1.370 . S
C993 C999 1.500 . S
C994 C997 1.383 . S
C994 C998 1.395 . S
C995 C996 1.396 . S
C995 C997 1.365 . S
C995 H1004 0.929 . S
C996 C993 1.394 . S
C996 C995 1.396 . S
C996 H1005 0.930 . S
C997 C994 1.383 . S
C997 C995 1.365 . S
C997 H1006 0.931 . S
C998 C993 1.370 . S
C998 C994 1.395 . S
C998 H1007 0.930 . S
C999 Gd935 2.805 . S
C999 O975 1.263 . S
C999 O976 1.252 . S
C999 C993 1.500 . S
H1000 C983 0.929 . S
H1001 C984 0.930 . S
H1002 C985 0.931 . S
H1003 C986 0.930 . S
H1004 C995 0.929 . S
H1005 C996 0.930 . S
H1006 C997 0.931 . S
H1007 C998 0.930 . S
C1008 C1010 1.422 . S
C1008 C1012 1.415 . S
C1008 N1014 1.369 . S
C1009 C1010 1.421 . S
C1009 C1011 1.417 . S
C1009 C1021 1.422 . S
C1010 C1008 1.422 . S
C1010 C1009 1.421 . S
C1010 N1020 1.359 . S
C1011 C1009 1.417 . S
C1011 C1013 1.329 . S
C1011 H1030 0.930 . S
C1012 C1008 1.415 . S
C1012 C1013 1.437 . S
C1012 C1016 1.413 . S
C1013 C1011 1.329 . S
C1013 C1012 1.437 . S
C1013 H1035 0.929 . S
N1014 C1008 1.369 . S
N1014 C1015 1.338 . S
N1014 Gd1019 2.622 . S
C1015 N1014 1.338 . S
C1015 C1017 1.378 . S
C1015 H1027 0.929 . S
C1016 C1012 1.413 . S
C1016 C1017 1.348 . S
C1016 H1032 0.931 . S
C1017 C1015 1.378 . S
C1017 C1016 1.348 . S
C1017 H1033 0.930 . S
Gd1018 N1038 2.622 . S
Gd1018 N1045 2.570 . S
Gd1018 O1052 2.353 . S
Gd1018 O1053 2.468 . S
Gd1018 O1054 2.427 . S
Gd1018 O1056 2.388 . S
Gd1018 O1057 2.386 . S
Gd1018 O1061 2.307 . S
Gd1018 C1071 2.805 . S
Gd1019 N1014 2.622 . S
Gd1019 N1020 2.570 . S
Gd1019 O1051 2.386 . S
Gd1019 O1055 2.307 . S
Gd1019 O1058 2.353 . S
Gd1019 O1059 2.468 . S
Gd1019 O1060 2.427 . S
Gd1019 O1062 2.388 . S
Gd1019 C1083 2.805 . S
N1020 C1010 1.359 . S
N1020 Gd1019 2.570 . S
N1020 C1022 1.343 . S
C1021 C1009 1.422 . S
C1021 C1023 1.321 . S
C1021 H1029 0.931 . S
C1022 N1020 1.343 . S
C1022 C1023 1.390 . S
C1022 H1024 0.931 . S
C1023 C1021 1.321 . S
C1023 C1022 1.390 . S
C1023 H1025 0.930 . S
H1024 C1022 0.931 . S
H1025 C1023 0.930 . S
H1026 C1049 0.931 . S
H1027 C1015 0.929 . S
H1028 C1050 0.930 . S
H1029 C1021 0.931 . S
H1030 C1011 0.930 . S
H1031 C1040 0.929 . S
H1032 C1016 0.931 . S
H1033 C1017 0.930 . S
H1034 C1072 0.930 . S
H1035 C1013 0.929 . S
H1036 C1041 0.931 . S
H1037 C1042 0.930 . S
N1038 Gd1018 2.622 . S
N1038 C1039 1.369 . S
N1038 C1040 1.338 . S
C1039 N1038 1.369 . S
C1039 C1043 1.415 . S
C1039 C1046 1.422 . S
C1040 H1031 0.929 . S
C1040 N1038 1.338 . S
C1040 C1042 1.378 . S
C1041 H1036 0.931 . S
C1041 C1042 1.348 . S
C1041 C1043 1.413 . S
C1042 H1037 0.930 . S
C1042 C1040 1.378 . S
C1042 C1041 1.348 . S
C1043 C1039 1.415 . S
C1043 C1041 1.413 . S
C1043 C1073 1.437 . S
H1044 C1073 0.931 . S
N1045 Gd1018 2.570 . S
N1045 C1046 1.359 . S
N1045 C1049 1.343 1_655 S
C1046 C1039 1.422 . S
C1046 N1045 1.359 . S
C1046 C1048 1.421 1_655 S
C1047 C1048 1.422 . S
C1047 C1050 1.321 . S
C1047 H1074 0.931 . S
C1048 C1046 1.421 1_455 S
C1048 C1047 1.422 . S
C1048 C1072 1.417 . S
C1049 H1026 0.931 . S
C1049 N1045 1.343 1_455 S
C1049 C1050 1.390 . S
C1050 H1028 0.930 . S
C1050 C1047 1.321 . S
C1050 C1049 1.390 . S
O1051 Gd1019 2.386 . S
O1051 C1063 1.265 . S
O1052 Gd1018 2.353 . S
O1052 C1063 1.242 . S
O1053 Gd1018 2.468 . S
O1053 C1071 1.263 . S
O1054 Gd1018 2.427 . S
O1054 C1071 1.252 . S
O1055 Gd1019 2.307 . S
O1055 C1064 1.261 . S
O1056 Gd1018 2.388 . S
O1056 C1064 1.252 . S
O1057 Gd1018 2.386 . S
O1057 C1075 1.265 . S
O1058 Gd1019 2.353 . S
O1058 C1075 1.242 . S
O1059 Gd1019 2.468 . S
O1059 C1083 1.263 . S
O1060 Gd1019 2.427 . S
O1060 C1083 1.252 . S
O1061 Gd1018 2.307 . S
O1061 C1076 1.261 . S
O1062 Gd1019 2.388 . S
O1062 C1076 1.252 . S
C1063 O1051 1.265 . S
C1063 O1052 1.242 . S
C1064 O1055 1.261 . S
C1064 O1056 1.252 . S
C1065 C1068 1.394 . S
C1065 C1070 1.370 . S
C1065 C1071 1.500 . S
C1066 C1069 1.377 1_455 S
C1066 C1070 1.392 1_455 S
C1067 C1068 1.396 . S
C1067 C1069 1.365 . S
C1067 H1084 0.929 . S
C1068 C1065 1.394 . S
C1068 C1067 1.396 . S
C1068 H1085 0.930 . S
C1069 C1066 1.377 1_655 S
C1069 C1067 1.365 . S
C1069 H1086 0.931 . S
C1070 C1065 1.370 . S
C1070 C1066 1.392 1_655 S
C1070 H1087 0.950 . S
C1071 Gd1018 2.805 . S
C1071 O1053 1.263 . S
C1071 O1054 1.252 . S
C1071 C1065 1.500 . S
C1072 H1034 0.930 . S
C1072 C1048 1.417 . S
C1072 C1073 1.329 1_455 S
C1073 C1043 1.437 . S
C1073 H1044 0.931 . S
C1073 C1072 1.329 1_655 S
H1074 C1047 0.931 . S
C1075 O1057 1.265 . S
C1075 O1058 1.242 . S
C1076 O1061 1.261 . S
C1076 O1062 1.252 . S
C1077 C1080 1.394 . S
C1077 C1082 1.370 . S
C1077 C1083 1.500 . S
C1078 C1081 1.383 . S
C1078 C1082 1.395 . S
C1079 C1080 1.396 . S
C1079 C1081 1.365 . S
C1079 H1088 0.929 . S
C1080 C1077 1.394 . S
C1080 C1079 1.396 . S
C1080 H1089 0.930 . S
C1081 C1078 1.383 . S
C1081 C1079 1.365 . S
C1081 H1090 0.931 . S
C1082 C1077 1.370 . S
C1082 C1078 1.395 . S
C1082 H1091 0.930 . S
C1083 Gd1019 2.805 . S
C1083 O1059 1.263 . S
C1083 O1060 1.252 . S
C1083 C1077 1.500 . S
H1084 C1067 0.929 . S
H1085 C1068 0.930 . S
H1086 C1069 0.931 . S
H1087 C1070 0.950 . S
H1088 C1079 0.929 . S
H1089 C1080 0.930 . S
H1090 C1081 0.931 . S
H1091 C1082 0.930 . S
C1092 C1094 1.422 . S
C1092 C1096 1.415 . S
C1092 N1098 1.369 . S
C1093 C1094 1.421 . S
C1093 C1095 1.417 . S
C1093 C1105 1.422 . S
C1094 C1092 1.422 . S
C1094 C1093 1.421 . S
C1094 N1104 1.359 . S
C1095 C1093 1.417 . S
C1095 C1097 1.329 . S
C1095 H1114 0.930 . S
C1096 C1092 1.415 . S
C1096 C1097 1.437 . S
C1096 C1100 1.413 1_545 S
C1097 C1095 1.329 . S
C1097 C1096 1.437 . S
C1097 H1119 0.929 . S
N1098 C1092 1.369 . S
N1098 C1099 1.338 . S
N1098 Gd1103 2.622 . S
C1099 N1098 1.338 . S
C1099 C1101 1.378 1_545 S
C1099 H1111 0.929 . S
C1100 C1096 1.413 1_565 S
C1100 C1101 1.348 . S
C1100 H1116 0.931 . S
C1101 C1099 1.378 1_565 S
C1101 C1100 1.348 . S
C1101 H1117 0.930 . S
Gd1102 N1122 2.622 . S
Gd1102 N1129 2.570 . S
Gd1102 O1136 2.353 . S
Gd1102 O1137 2.468 . S
Gd1102 O1138 2.427 . S
Gd1102 O1140 2.388 . S
Gd1102 O1141 2.386 . S
Gd1102 O1145 2.307 . S
Gd1102 C1155 2.805 . S
Gd1103 N1098 2.622 . S
Gd1103 N1104 2.570 . S
Gd1103 O1135 2.386 . S
Gd1103 O1139 2.307 . S
Gd1103 O1142 2.353 . S
Gd1103 O1143 2.468 . S
Gd1103 O1144 2.427 . S
Gd1103 O1146 2.388 . S
Gd1103 C1167 2.805 . S
N1104 C1094 1.359 . S
N1104 Gd1103 2.570 . S
N1104 C1106 1.343 . S
C1105 C1093 1.422 . S
C1105 C1107 1.321 . S
C1105 H1113 0.931 . S
C1106 N1104 1.343 . S
C1106 C1107 1.390 . S
C1106 H1108 0.931 . S
C1107 C1105 1.321 . S
C1107 C1106 1.390 . S
C1107 H1109 0.930 . S
H1108 C1106 0.931 . S
H1109 C1107 0.930 . S
H1110 C1133 0.931 . S
H1111 C1099 0.929 . S
H1112 C1134 0.930 . S
H1113 C1105 0.931 . S
H1114 C1095 0.930 . S
H1115 C1124 0.929 . S
H1116 C1100 0.931 . S
H1117 C1101 0.930 . S
H1118 C1156 0.930 . S
H1119 C1097 0.929 . S
H1120 C1125 0.931 . S
H1121 C1126 0.930 . S
N1122 Gd1102 2.622 . S
N1122 C1123 1.369 . S
N1122 C1124 1.338 . S
C1123 N1122 1.369 . S
C1123 C1127 1.415 . S
C1123 C1130 1.422 . S
C1124 H1115 0.929 . S
C1124 N1122 1.338 . S
C1124 C1126 1.378 . S
C1125 H1120 0.931 . S
C1125 C1126 1.348 . S
C1125 C1127 1.413 . S
C1126 H1121 0.930 . S
C1126 C1124 1.378 . S
C1126 C1125 1.348 . S
C1127 C1123 1.415 . S
C1127 C1125 1.413 . S
C1127 C1157 1.437 . S
H1128 C1157 0.929 . S
N1129 Gd1102 2.570 . S
N1129 C1130 1.359 . S
N1129 C1133 1.343 . S
C1130 C1123 1.422 . S
C1130 N1129 1.359 . S
C1130 C1132 1.421 . S
C1131 C1132 1.422 . S
C1131 C1134 1.321 . S
C1131 H1158 0.931 . S
C1132 C1130 1.421 . S
C1132 C1131 1.422 . S
C1132 C1156 1.417 . S
C1133 H1110 0.931 . S
C1133 N1129 1.343 . S
C1133 C1134 1.390 . S
C1134 H1112 0.930 . S
C1134 C1131 1.321 . S
C1134 C1133 1.390 . S
O1135 Gd1103 2.386 . S
O1135 C1147 1.265 . S
O1136 Gd1102 2.353 . S
O1136 C1147 1.242 . S
O1137 Gd1102 2.468 . S
O1137 C1155 1.263 . S
O1138 Gd1102 2.427 . S
O1138 C1155 1.252 . S
O1139 Gd1103 2.307 . S
O1139 C1148 1.261 . S
O1140 Gd1102 2.388 . S
O1140 C1148 1.252 . S
O1141 Gd1102 2.386 . S
O1141 C1159 1.265 . S
O1142 Gd1103 2.353 . S
O1142 C1159 1.242 . S
O1143 Gd1103 2.468 . S
O1143 C1167 1.263 . S
O1144 Gd1103 2.427 . S
O1144 C1167 1.252 . S
O1145 Gd1102 2.307 . S
O1145 C1160 1.261 . S
O1146 Gd1103 2.388 . S
O1146 C1160 1.252 . S
C1147 O1135 1.265 . S
C1147 O1136 1.242 . S
C1148 O1139 1.261 . S
C1148 O1140 1.252 . S
C1149 C1152 1.394 . S
C1149 C1154 1.370 . S
C1149 C1155 1.500 . S
C1150 C1153 1.383 . S
C1150 C1154 1.395 . S
C1151 C1152 1.396 . S
C1151 C1153 1.365 . S
C1151 H1168 0.929 . S
C1152 C1149 1.394 . S
C1152 C1151 1.396 . S
C1152 H1169 0.930 . S
C1153 C1150 1.383 . S
C1153 C1151 1.365 . S
C1153 H1170 0.931 . S
C1154 C1149 1.370 . S
C1154 C1150 1.395 . S
C1154 H1171 0.930 . S
C1155 Gd1102 2.805 . S
C1155 O1137 1.263 . S
C1155 O1138 1.252 . S
C1155 C1149 1.500 . S
C1156 H1118 0.930 . S
C1156 C1132 1.417 . S
C1156 C1157 1.329 . S
C1157 C1127 1.437 . S
C1157 H1128 0.929 . S
C1157 C1156 1.329 . S
H1158 C1131 0.931 . S
C1159 O1141 1.265 . S
C1159 O1142 1.242 . S
C1160 O1145 1.261 . S
C1160 O1146 1.252 . S
C1161 C1164 1.394 . S
C1161 C1166 1.370 . S
C1161 C1167 1.500 . S
C1162 C1165 1.383 . S
C1162 C1166 1.395 . S
C1163 C1164 1.396 . S
C1163 C1165 1.365 . S
C1163 H1172 0.929 . S
C1164 C1161 1.394 . S
C1164 C1163 1.396 . S
C1164 H1173 0.930 . S
C1165 C1162 1.383 . S
C1165 C1163 1.365 . S
C1165 H1174 0.931 . S
C1166 C1161 1.370 . S
C1166 C1162 1.395 . S
C1166 H1175 0.930 . S
C1167 Gd1103 2.805 . S
C1167 O1143 1.263 . S
C1167 O1144 1.252 . S
C1167 C1161 1.500 . S
H1168 C1151 0.929 . S
H1169 C1152 0.930 . S
H1170 C1153 0.931 . S
H1171 C1154 0.930 . S
H1172 C1163 0.929 . S
H1173 C1164 0.930 . S
H1174 C1165 0.931 . S
H1175 C1166 0.930 . S
C1176 C1178 1.422 . S
C1176 C1180 1.415 . S
C1176 N1182 1.369 . S
C1177 C1178 1.421 . S
C1177 C1179 1.417 . S
C1177 C1189 1.422 . S
C1178 C1176 1.422 . S
C1178 C1177 1.421 . S
C1178 N1188 1.359 . S
C1179 C1177 1.417 . S
C1179 C1181 1.329 . S
C1179 H1198 0.930 . S
C1180 C1176 1.415 . S
C1180 C1181 1.437 . S
C1180 C1184 1.413 . S
C1181 C1179 1.329 . S
C1181 C1180 1.437 . S
C1181 H1203 0.929 . S
N1182 C1176 1.369 . S
N1182 C1183 1.338 . S
N1182 Gd1187 2.622 . S
C1183 N1182 1.338 . S
C1183 C1185 1.378 . S
C1183 H1195 0.929 . S
C1184 C1180 1.413 . S
C1184 C1185 1.348 . S
C1184 H1200 0.931 . S
C1185 C1183 1.378 . S
C1185 C1184 1.348 . S
C1185 H1201 0.930 . S
Gd1186 N1206 2.622 . S
Gd1186 N1213 2.570 . S
Gd1186 O1220 2.353 . S
Gd1186 O1221 2.468 . S
Gd1186 O1222 2.427 . S
Gd1186 O1224 2.388 . S
Gd1186 O1225 2.386 . S
Gd1186 O1229 2.307 . S
Gd1186 C1239 2.805 . S
Gd1187 N1182 2.622 . S
Gd1187 N1188 2.570 . S
Gd1187 O1219 2.386 . S
Gd1187 O1223 2.307 . S
Gd1187 O1226 2.353 . S
Gd1187 O1227 2.468 . S
Gd1187 O1228 2.427 . S
Gd1187 O1230 2.388 . S
Gd1187 C1251 2.805 . S
N1188 C1178 1.359 . S
N1188 Gd1187 2.570 . S
N1188 C1190 1.343 . S
C1189 C1177 1.422 . S
C1189 C1191 1.321 . S
C1189 H1197 0.931 . S
C1190 N1188 1.343 . S
C1190 C1191 1.390 . S
C1190 H1192 0.931 . S
C1191 C1189 1.321 . S
C1191 C1190 1.390 . S
C1191 H1193 0.930 . S
H1192 C1190 0.931 . S
H1193 C1191 0.930 . S
H1194 C1217 0.931 . S
H1195 C1183 0.929 . S
H1196 C1218 0.930 . S
H1197 C1189 0.931 . S
H1198 C1179 0.930 . S
H1199 C1208 0.929 . S
H1200 C1184 0.931 . S
H1201 C1185 0.930 . S
H1202 C1240 0.930 . S
H1203 C1181 0.929 . S
H1204 C1209 0.931 . S
H1205 C1210 0.930 . S
N1206 Gd1186 2.622 . S
N1206 C1207 1.369 . S
N1206 C1208 1.338 . S
C1207 N1206 1.369 . S
C1207 C1211 1.415 . S
C1207 C1214 1.422 . S
C1208 H1199 0.929 . S
C1208 N1206 1.338 . S
C1208 C1210 1.378 . S
C1209 H1204 0.931 . S
C1209 C1210 1.348 . S
C1209 C1211 1.413 . S
C1210 H1205 0.930 . S
C1210 C1208 1.378 . S
C1210 C1209 1.348 . S
C1211 C1207 1.415 . S
C1211 C1209 1.413 . S
C1211 C1241 1.437 . S
H1212 C1241 0.929 . S
N1213 Gd1186 2.570 . S
N1213 C1214 1.359 . S
N1213 C1217 1.343 . S
C1214 C1207 1.422 . S
C1214 N1213 1.359 . S
C1214 C1216 1.421 . S
C1215 C1216 1.422 . S
C1215 C1218 1.321 . S
C1215 H1242 0.931 . S
C1216 C1214 1.421 . S
C1216 C1215 1.422 . S
C1216 C1240 1.417 . S
C1217 H1194 0.931 . S
C1217 N1213 1.343 . S
C1217 C1218 1.390 . S
C1218 H1196 0.930 . S
C1218 C1215 1.321 . S
C1218 C1217 1.390 . S
O1219 Gd1187 2.386 . S
O1219 C1231 1.265 . S
O1220 Gd1186 2.353 . S
O1220 C1231 1.242 . S
O1221 Gd1186 2.468 . S
O1221 C1239 1.263 . S
O1222 Gd1186 2.427 . S
O1222 C1239 1.252 . S
O1223 Gd1187 2.307 . S
O1223 C1232 1.261 . S
O1224 Gd1186 2.388 . S
O1224 C1232 1.252 . S
O1225 Gd1186 2.386 . S
O1225 C1243 1.265 . S
O1226 Gd1187 2.353 . S
O1226 C1243 1.242 . S
O1227 Gd1187 2.468 . S
O1227 C1251 1.263 . S
O1228 Gd1187 2.427 . S
O1228 C1251 1.252 . S
O1229 Gd1186 2.307 . S
O1229 C1244 1.261 . S
O1230 Gd1187 2.388 . S
O1230 C1244 1.252 . S
C1231 O1219 1.265 . S
C1231 O1220 1.242 . S
C1232 O1223 1.261 . S
C1232 O1224 1.252 . S
C1233 C1236 1.394 . S
C1233 C1238 1.370 . S
C1233 C1239 1.500 1_556 S
C1234 C1237 1.383 . S
C1234 C1238 1.395 . S
C1235 C1236 1.396 . S
C1235 C1237 1.365 . S
C1235 H1252 0.929 . S
C1236 C1233 1.394 . S
C1236 C1235 1.396 . S
C1236 H1253 0.930 . S
C1237 C1234 1.383 . S
C1237 C1235 1.365 . S
C1237 H1254 0.931 . S
C1238 C1233 1.370 . S
C1238 C1234 1.395 . S
C1238 H1255 0.930 . S
C1239 Gd1186 2.805 . S
C1239 O1221 1.263 . S
C1239 O1222 1.252 . S
C1239 C1233 1.500 1_554 S
C1240 H1202 0.930 . S
C1240 C1216 1.417 . S
C1240 C1241 1.329 . S
C1241 C1211 1.437 . S
C1241 H1212 0.929 . S
C1241 C1240 1.329 . S
H1242 C1215 0.931 . S
C1243 O1225 1.265 . S
C1243 O1226 1.242 . S
C1244 O1229 1.261 . S
C1244 O1230 1.252 . S
C1245 C1248 1.394 . S
C1245 C1250 1.370 . S
C1245 C1251 1.500 . S
C1246 C1249 1.383 . S
C1246 C1250 1.395 . S
C1247 C1248 1.396 . S
C1247 C1249 1.365 . S
C1247 H1256 0.929 . S
C1248 C1245 1.394 . S
C1248 C1247 1.396 . S
C1248 H1257 0.930 . S
C1249 C1246 1.383 . S
C1249 C1247 1.365 . S
C1249 H1258 0.931 . S
C1250 C1245 1.370 . S
C1250 C1246 1.395 . S
C1250 H1259 0.930 . S
C1251 Gd1187 2.805 . S
C1251 O1227 1.263 . S
C1251 O1228 1.252 . S
C1251 C1245 1.500 . S
H1252 C1235 0.929 . S
H1253 C1236 0.930 . S
H1254 C1237 0.931 . S
H1255 C1238 0.930 . S
H1256 C1247 0.929 . S
H1257 C1248 0.930 . S
H1258 C1249 0.931 . S
H1259 C1250 0.930 . S
C1260 C1262 1.422 . S
C1260 C1264 1.415 . S
C1260 N1266 1.369 . S
C1261 C1262 1.421 . S
C1261 C1263 1.417 . S
C1261 C1273 1.422 . S
C1262 C1260 1.422 . S
C1262 C1261 1.421 . S
C1262 N1272 1.359 . S
C1263 C1261 1.417 . S
C1263 C1265 1.329 . S
C1263 H1282 0.930 . S
C1264 C1260 1.415 . S
C1264 C1265 1.437 . S
C1264 C1268 1.413 . S
C1265 C1263 1.329 . S
C1265 C1264 1.437 . S
C1265 H1287 0.929 . S
N1266 C1260 1.369 . S
N1266 C1267 1.338 . S
N1266 Gd1271 2.622 . S
C1267 N1266 1.338 . S
C1267 C1269 1.378 . S
C1267 H1279 0.929 . S
C1268 C1264 1.413 . S
C1268 C1269 1.348 . S
C1268 H1284 0.931 . S
C1269 C1267 1.378 . S
C1269 C1268 1.348 . S
C1269 H1285 0.930 . S
Gd1270 N1290 2.622 1_556 S
Gd1270 N1297 2.570 . S
Gd1270 O1304 2.353 . S
Gd1270 O1305 2.468 . S
Gd1270 O1306 2.427 . S
Gd1270 O1308 2.388 . S
Gd1270 O1309 2.386 1_556 S
Gd1270 O1313 2.307 . S
Gd1270 C1323 2.805 . S
Gd1271 N1266 2.622 . S
Gd1271 N1272 2.570 . S
Gd1271 O1303 2.386 . S
Gd1271 O1307 2.306 . S
Gd1271 O1310 2.353 1_556 S
Gd1271 O1311 2.468 1_556 S
Gd1271 O1312 2.427 1_556 S
Gd1271 O1314 2.388 . S
Gd1271 C1335 2.805 1_556 S
N1272 C1262 1.359 . S
N1272 Gd1271 2.570 . S
N1272 C1274 1.343 . S
C1273 C1261 1.422 . S
C1273 C1275 1.321 . S
C1273 H1281 0.931 . S
C1274 N1272 1.343 . S
C1274 C1275 1.390 . S
C1274 H1276 0.931 . S
C1275 C1273 1.321 . S
C1275 C1274 1.390 . S
C1275 H1277 0.930 . S
H1276 C1274 0.931 . S
H1277 C1275 0.930 . S
H1278 C1301 0.931 . S
H1279 C1267 0.929 . S
H1280 C1302 0.930 . S
H1281 C1273 0.931 . S
H1282 C1263 0.930 . S
H1283 C1292 0.929 1_556 S
H1284 C1268 0.931 . S
H1285 C1269 0.930 . S
H1286 C1324 0.930 . S
H1287 C1265 0.929 . S
H1288 C1293 0.931 . S
H1289 C1294 0.930 . S
N1290 Gd1270 2.622 1_554 S
N1290 C1291 1.369 . S
N1290 C1292 1.338 . S
C1291 N1290 1.369 . S
C1291 C1295 1.415 . S
C1291 C1298 1.422 . S
C1292 H1283 0.929 1_554 S
C1292 N1290 1.338 . S
C1292 C1294 1.378 . S
C1293 H1288 0.931 . S
C1293 C1294 1.348 . S
C1293 C1295 1.413 . S
C1294 H1289 0.930 . S
C1294 C1292 1.378 . S
C1294 C1293 1.348 . S
C1295 C1291 1.415 . S
C1295 C1293 1.413 . S
C1295 C1325 1.437 . S
H1296 C1325 0.929 . S
N1297 Gd1270 2.570 . S
N1297 C1298 1.359 1_556 S
N1297 C1301 1.343 . S
C1298 C1291 1.422 . S
C1298 N1297 1.359 1_554 S
C1298 C1300 1.421 . S
C1299 C1300 1.422 . S
C1299 C1302 1.321 . S
C1299 H1326 0.931 . S
C1300 C1298 1.421 . S
C1300 C1299 1.422 . S
C1300 C1324 1.417 . S
C1301 H1278 0.931 . S
C1301 N1297 1.343 . S
C1301 C1302 1.390 1_556 S
C1302 H1280 0.930 . S
C1302 C1299 1.321 . S
C1302 C1301 1.390 1_554 S
O1303 Gd1271 2.386 . S
O1303 C1315 1.265 . S
O1304 Gd1270 2.353 . S
O1304 C1315 1.242 . S
O1305 Gd1270 2.468 . S
O1305 C1323 1.263 . S
O1306 Gd1270 2.427 . S
O1306 C1323 1.252 . S
O1307 Gd1271 2.306 . S
O1307 C1316 1.262 1_556 S
O1308 Gd1270 2.388 . S
O1308 C1316 1.252 1_556 S
O1309 Gd1270 2.386 1_554 S
O1309 C1327 1.265 . S
O1310 Gd1271 2.353 1_554 S
O1310 C1327 1.242 . S
O1311 Gd1271 2.468 1_554 S
O1311 C1335 1.263 . S
O1312 Gd1271 2.427 1_554 S
O1312 C1335 1.252 . S
O1313 Gd1270 2.307 . S
O1313 C1328 1.261 . S
O1314 Gd1271 2.388 . S
O1314 C1328 1.252 . S
C1315 O1303 1.265 . S
C1315 O1304 1.242 . S
C1316 O1307 1.262 1_554 S
C1316 O1308 1.252 1_554 S
C1317 C1320 1.394 . S
C1317 C1322 1.370 . S
C1317 C1323 1.500 . S
C1318 C1321 1.383 . S
C1318 C1322 1.395 . S
C1319 C1320 1.396 . S
C1319 C1321 1.365 . S
C1319 H1336 0.929 . S
C1320 C1317 1.394 . S
C1320 C1319 1.396 . S
C1320 H1337 0.930 . S
C1321 C1318 1.383 . S
C1321 C1319 1.365 . S
C1321 H1338 0.931 . S
C1322 C1317 1.370 . S
C1322 C1318 1.395 . S
C1322 H1339 0.930 . S
C1323 Gd1270 2.805 . S
C1323 O1305 1.263 . S
C1323 O1306 1.252 . S
C1323 C1317 1.500 . S
C1324 H1286 0.930 . S
C1324 C1300 1.417 . S
C1324 C1325 1.329 . S
C1325 C1295 1.437 . S
C1325 H1296 0.929 . S
C1325 C1324 1.329 . S
H1326 C1299 0.931 . S
C1327 O1309 1.265 . S
C1327 O1310 1.242 . S
C1328 O1313 1.261 . S
C1328 O1314 1.252 . S
C1329 C1332 1.394 . S
C1329 C1334 1.370 . S
C1329 C1335 1.500 . S
C1330 C1333 1.383 . S
C1330 C1334 1.395 . S
C1331 C1332 1.396 . S
C1331 C1333 1.365 . S
C1331 H1340 0.929 . S
C1332 C1329 1.394 . S
C1332 C1331 1.396 . S
C1332 H1341 0.930 . S
C1333 C1330 1.383 . S
C1333 C1331 1.365 . S
C1333 H1342 0.931 . S
C1334 C1329 1.370 . S
C1334 C1330 1.395 . S
C1334 H1343 0.930 . S
C1335 Gd1271 2.805 1_554 S
C1335 O1311 1.263 . S
C1335 O1312 1.252 . S
C1335 C1329 1.500 . S
H1336 C1319 0.929 . S
H1337 C1320 0.930 . S
H1338 C1321 0.931 . S
H1339 C1322 0.930 . S
H1340 C1331 0.929 . S
H1341 C1332 0.930 . S
H1342 C1333 0.931 . S
H1343 C1334 0.930 . S
C1344 C1346 1.422 . S
C1344 C1348 1.415 . S
C1344 N1350 1.369 . S
C1345 C1346 1.421 . S
C1345 C1347 1.417 . S
C1345 C1357 1.422 . S
C1346 C1344 1.422 . S
C1346 C1345 1.421 . S
C1346 N1356 1.359 . S
C1347 C1345 1.417 . S
C1347 C1349 1.329 . S
C1347 H1366 0.930 . S
C1348 C1344 1.415 . S
C1348 C1349 1.437 . S
C1348 C1352 1.413 . S
C1349 C1347 1.329 . S
C1349 C1348 1.437 . S
C1349 H1371 0.929 . S
N1350 C1344 1.369 . S
N1350 C1351 1.338 . S
N1350 Gd1355 2.622 . S
C1351 N1350 1.338 . S
C1351 C1353 1.378 . S
C1351 H1363 0.929 . S
C1352 C1348 1.413 . S
C1352 C1353 1.348 . S
C1352 H1368 0.931 . S
C1353 C1351 1.378 . S
C1353 C1352 1.348 . S
C1353 H1369 0.930 . S
Gd1354 N1374 2.622 1_565 S
Gd1354 N1381 2.570 1_565 S
Gd1354 O1388 2.353 . S
Gd1354 O1389 2.468 . S
Gd1354 O1390 2.427 1_565 S
Gd1354 O1392 2.388 . S
Gd1354 O1393 2.386 . S
Gd1354 O1397 2.307 . S
Gd1354 C1407 2.805 1_565 S
Gd1355 N1350 2.622 . S
Gd1355 N1356 2.570 . S
Gd1355 O1387 2.386 . S
Gd1355 O1391 2.307 . S
Gd1355 O1394 2.353 . S
Gd1355 O1395 2.468 . S
Gd1355 O1396 2.427 . S
Gd1355 O1398 2.388 . S
Gd1355 C1419 2.805 . S
N1356 C1346 1.359 . S
N1356 Gd1355 2.570 . S
N1356 C1358 1.343 . S
C1357 C1345 1.422 . S
C1357 C1359 1.321 . S
C1357 H1365 0.931 . S
C1358 N1356 1.343 . S
C1358 C1359 1.390 . S
C1358 H1360 0.931 . S
C1359 C1357 1.321 . S
C1359 C1358 1.390 . S
C1359 H1361 0.930 . S
H1360 C1358 0.931 . S
H1361 C1359 0.930 . S
H1362 C1385 0.931 1_565 S
H1363 C1351 0.929 . S
H1364 C1386 0.930 . S
H1365 C1357 0.931 . S
H1366 C1347 0.930 . S
H1367 C1376 0.929 . S
H1368 C1352 0.931 . S
H1369 C1353 0.930 . S
H1370 C1408 0.930 . S
H1371 C1349 0.929 . S
H1372 C1377 0.931 . S
H1373 C1378 0.930 . S
N1374 Gd1354 2.622 1_545 S
N1374 C1375 1.369 . S
N1374 C1376 1.338 . S
C1375 N1374 1.369 . S
C1375 C1379 1.415 . S
C1375 C1382 1.422 . S
C1376 H1367 0.929 . S
C1376 N1374 1.338 . S
C1376 C1378 1.378 . S
C1377 H1372 0.931 . S
C1377 C1378 1.348 . S
C1377 C1379 1.413 . S
C1378 H1373 0.930 . S
C1378 C1376 1.378 . S
C1378 C1377 1.348 . S
C1379 C1375 1.415 . S
C1379 C1377 1.413 . S
C1379 C1409 1.437 . S
H1380 C1409 0.929 . S
N1381 Gd1354 2.570 1_545 S
N1381 C1382 1.359 . S
N1381 C1385 1.343 . S
C1382 C1375 1.422 . S
C1382 N1381 1.359 . S
C1382 C1384 1.421 . S
C1383 C1384 1.422 . S
C1383 C1386 1.321 . S
C1383 H1410 0.931 . S
C1384 C1382 1.421 . S
C1384 C1383 1.422 . S
C1384 C1408 1.417 . S
C1385 H1362 0.931 1_545 S
C1385 N1381 1.343 . S
C1385 C1386 1.390 . S
C1386 H1364 0.930 . S
C1386 C1383 1.321 . S
C1386 C1385 1.390 . S
O1387 Gd1355 2.386 . S
O1387 C1399 1.265 . S
O1388 Gd1354 2.353 . S
O1388 C1399 1.242 . S
O1389 Gd1354 2.468 . S
O1389 C1407 1.263 1_565 S
O1390 Gd1354 2.427 1_545 S
O1390 C1407 1.252 . S
O1391 Gd1355 2.307 . S
O1391 C1400 1.261 . S
O1392 Gd1354 2.388 . S
O1392 C1400 1.252 . S
O1393 Gd1354 2.386 . S
O1393 C1411 1.265 . S
O1394 Gd1355 2.353 . S
O1394 C1411 1.242 . S
O1395 Gd1355 2.468 . S
O1395 C1419 1.263 . S
O1396 Gd1355 2.427 . S
O1396 C1419 1.252 . S
O1397 Gd1354 2.307 . S
O1397 C1412 1.261 . S
O1398 Gd1355 2.388 . S
O1398 C1412 1.252 . S
C1399 O1387 1.265 . S
C1399 O1388 1.242 . S
C1400 O1391 1.261 . S
C1400 O1392 1.252 . S
C1401 C1404 1.394 . S
C1401 C1406 1.370 . S
C1401 C1407 1.500 . S
C1402 C1405 1.383 . S
C1402 C1406 1.395 . S
C1403 C1404 1.396 . S
C1403 C1405 1.365 . S
C1403 H1420 0.929 . S
C1404 C1401 1.394 . S
C1404 C1403 1.396 . S
C1404 H1421 0.930 . S
C1405 C1402 1.383 . S
C1405 C1403 1.365 . S
C1405 H1422 0.931 . S
C1406 C1401 1.370 . S
C1406 C1402 1.395 . S
C1406 H1423 0.930 1_545 S
C1407 Gd1354 2.805 1_545 S
C1407 O1389 1.263 1_545 S
C1407 O1390 1.252 . S
C1407 C1401 1.500 . S
C1408 H1370 0.930 . S
C1408 C1384 1.417 . S
C1408 C1409 1.329 . S
C1409 C1379 1.437 . S
C1409 H1380 0.929 . S
C1409 C1408 1.329 . S
H1410 C1383 0.931 . S
C1411 O1393 1.265 . S
C1411 O1394 1.242 . S
C1412 O1397 1.261 . S
C1412 O1398 1.252 . S
C1413 C1416 1.394 . S
C1413 C1418 1.370 . S
C1413 C1419 1.500 . S
C1414 C1417 1.383 . S
C1414 C1418 1.395 . S
C1415 C1416 1.396 . S
C1415 C1417 1.365 . S
C1415 H1424 0.929 . S
C1416 C1413 1.394 . S
C1416 C1415 1.396 . S
C1416 H1425 0.930 . S
C1417 C1414 1.383 . S
C1417 C1415 1.365 . S
C1417 H1426 0.931 . S
C1418 C1413 1.370 . S
C1418 C1414 1.395 . S
C1418 H1427 0.930 . S
C1419 Gd1355 2.805 . S
C1419 O1395 1.263 . S
C1419 O1396 1.252 . S
C1419 C1413 1.500 . S
H1420 C1403 0.929 . S
H1421 C1404 0.930 . S
H1422 C1405 0.931 . S
H1423 C1406 0.930 1_565 S
H1424 C1415 0.929 . S
H1425 C1416 0.930 . S
H1426 C1417 0.931 . S
H1427 C1418 0.930 . S
C1428 C1430 1.422 . S
C1428 C1432 1.415 1_556 S
C1428 N1434 1.369 . S
C1429 C1430 1.421 1_554 S
C1429 C1431 1.417 . S
C1429 C1441 1.422 . S
C1430 C1428 1.422 . S
C1430 C1429 1.421 1_556 S
C1430 N1440 1.359 . S
C1431 C1429 1.417 . S
C1431 C1433 1.329 . S
C1431 H1450 0.930 . S
C1432 C1428 1.415 1_554 S
C1432 C1433 1.437 . S
C1432 C1436 1.413 . S
C1433 C1431 1.329 . S
C1433 C1432 1.437 . S
C1433 H1455 0.929 . S
N1434 C1428 1.369 . S
N1434 C1435 1.338 . S
N1434 Gd1439 2.622 . S
C1435 N1434 1.338 . S
C1435 C1437 1.378 . S
C1435 H1447 0.929 . S
C1436 C1432 1.413 . S
C1436 C1437 1.348 1_554 S
C1436 H1452 0.931 . S
C1437 C1435 1.378 . S
C1437 C1436 1.348 1_556 S
C1437 H1453 0.930 . S
Gd1438 N1458 2.622 . S
Gd1438 N1465 2.570 . S
Gd1438 O1472 2.353 1_556 S
Gd1438 O1473 2.468 1_556 S
Gd1438 O1474 2.427 1_556 S
Gd1438 O1476 2.388 . S
Gd1438 O1477 2.386 . S
Gd1438 O1481 2.307 . S
Gd1438 C1491 2.805 1_556 S
Gd1439 N1434 2.622 . S
Gd1439 N1440 2.570 . S
Gd1439 O1471 2.386 1_556 S
Gd1439 O1475 2.307 . S
Gd1439 O1478 2.353 . S
Gd1439 O1479 2.468 . S
Gd1439 O1480 2.427 . S
Gd1439 O1482 2.388 . S
Gd1439 C1503 2.805 . S
N1440 C1430 1.359 . S
N1440 Gd1439 2.570 . S
N1440 C1442 1.343 . S
C1441 C1429 1.422 . S
C1441 C1443 1.321 1_554 S
C1441 H1449 0.931 . S
C1442 N1440 1.343 . S
C1442 C1443 1.390 . S
C1442 H1444 0.931 . S
C1443 C1441 1.321 1_556 S
C1443 C1442 1.390 . S
C1443 H1445 0.930 . S
H1444 C1442 0.931 . S
H1445 C1443 0.930 . S
H1446 C1469 0.931 . S
H1447 C1435 0.929 . S
H1448 C1470 0.930 . S
H1449 C1441 0.931 . S
H1450 C1431 0.930 . S
H1451 C1460 0.929 . S
H1452 C1436 0.931 . S
H1453 C1437 0.930 . S
H1454 C1492 0.930 . S
H1455 C1433 0.929 . S
H1456 C1461 0.931 . S
H1457 C1462 0.930 . S
N1458 Gd1438 2.622 . S
N1458 C1459 1.369 . S
N1458 C1460 1.338 . S
C1459 N1458 1.369 . S
C1459 C1463 1.415 . S
C1459 C1466 1.422 . S
C1460 H1451 0.929 . S
C1460 N1458 1.338 . S
C1460 C1462 1.378 . S
C1461 H1456 0.931 . S
C1461 C1462 1.348 . S
C1461 C1463 1.413 . S
C1462 H1457 0.930 . S
C1462 C1460 1.378 . S
C1462 C1461 1.348 . S
C1463 C1459 1.415 . S
C1463 C1461 1.413 . S
C1463 C1493 1.437 . S
H1464 C1493 0.929 . S
N1465 Gd1438 2.570 . S
N1465 C1466 1.359 . S
N1465 C1469 1.343 . S
C1466 C1459 1.422 . S
C1466 N1465 1.359 . S
C1466 C1468 1.421 . S
C1467 C1468 1.422 . S
C1467 C1470 1.321 . S
C1467 H1494 0.931 . S
C1468 C1466 1.421 . S
C1468 C1467 1.422 . S
C1468 C1492 1.417 . S
C1469 H1446 0.931 . S
C1469 N1465 1.343 . S
C1469 C1470 1.390 . S
C1470 H1448 0.930 . S
C1470 C1467 1.321 . S
C1470 C1469 1.390 . S
O1471 Gd1439 2.386 1_554 S
O1471 C1483 1.265 . S
O1472 Gd1438 2.353 1_554 S
O1472 C1483 1.242 . S
O1473 Gd1438 2.468 1_554 S
O1473 C1491 1.263 . S
O1474 Gd1438 2.427 1_554 S
O1474 C1491 1.252 . S
O1475 Gd1439 2.307 . S
O1475 C1484 1.261 . S
O1476 Gd1438 2.388 . S
O1476 C1484 1.252 . S
O1477 Gd1438 2.386 . S
O1477 C1495 1.265 . S
O1478 Gd1439 2.353 . S
O1478 C1495 1.242 . S
O1479 Gd1439 2.468 . S
O1479 C1503 1.263 . S
O1480 Gd1439 2.427 . S
O1480 C1503 1.252 . S
O1481 Gd1438 2.307 . S
O1481 C1496 1.261 . S
O1482 Gd1439 2.388 . S
O1482 C1496 1.252 . S
C1483 O1471 1.265 . S
C1483 O1472 1.242 . S
C1484 O1475 1.261 . S
C1484 O1476 1.252 . S
C1485 C1488 1.394 . S
C1485 C1490 1.370 . S
C1485 C1491 1.500 . S
C1486 C1489 1.383 . S
C1486 C1490 1.395 . S
C1487 C1488 1.396 . S
C1487 C1489 1.365 . S
C1487 H1504 0.929 . S
C1488 C1485 1.394 . S
C1488 C1487 1.396 . S
C1488 H1505 0.930 . S
C1489 C1486 1.383 . S
C1489 C1487 1.365 . S
C1489 H1506 0.931 . S
C1490 C1485 1.370 . S
C1490 C1486 1.395 . S
C1490 H1507 0.930 . S
C1491 Gd1438 2.805 1_554 S
C1491 O1473 1.263 . S
C1491 O1474 1.252 . S
C1491 C1485 1.500 . S
C1492 H1454 0.930 . S
C1492 C1468 1.417 . S
C1492 C1493 1.329 . S
C1493 C1463 1.437 . S
C1493 H1464 0.929 . S
C1493 C1492 1.329 . S
H1494 C1467 0.931 . S
C1495 O1477 1.265 . S
C1495 O1478 1.242 . S
C1496 O1481 1.261 . S
C1496 O1482 1.252 . S
C1497 C1500 1.394 . S
C1497 C1502 1.370 . S
C1497 C1503 1.500 . S
C1498 C1501 1.383 . S
C1498 C1502 1.395 . S
C1499 C1500 1.396 . S
C1499 C1501 1.365 . S
C1499 H1508 0.929 . S
C1500 C1497 1.394 . S
C1500 C1499 1.396 . S
C1500 H1509 0.930 . S
C1501 C1498 1.383 . S
C1501 C1499 1.365 . S
C1501 H1510 0.931 . S
C1502 C1497 1.370 . S
C1502 C1498 1.395 . S
C1502 H1511 0.930 . S
C1503 Gd1439 2.805 . S
C1503 O1479 1.263 . S
C1503 O1480 1.252 . S
C1503 C1497 1.500 . S
H1504 C1487 0.929 . S
H1505 C1488 0.930 . S
H1506 C1489 0.931 . S
H1507 C1490 0.930 . S
H1508 C1499 0.929 . S
H1509 C1500 0.930 . S
H1510 C1501 0.931 . S
H1511 C1502 0.930 . S
C1512 C1514 1.422 . S
C1512 C1516 1.415 1_655 S
C1512 N1518 1.369 . S
C1513 C1514 1.421 . S
C1513 C1515 1.417 1_554 S
C1513 C1525 1.422 . S
C1514 C1512 1.422 . S
C1514 C1513 1.421 . S
C1514 N1524 1.359 . S
C1515 C1513 1.417 1_556 S
C1515 C1517 1.329 1_655 S
C1515 H1534 0.930 . S
C1516 C1512 1.415 1_455 S
C1516 C1517 1.437 1_554 S
C1516 C1520 1.413 . S
C1517 C1515 1.329 1_455 S
C1517 C1516 1.437 1_556 S
C1517 H1539 0.929 . S
N1518 C1512 1.369 . S
N1518 C1519 1.321 1_655 S
N1518 Gd1523 2.622 . S
C1519 N1518 1.321 1_455 S
C1519 C1521 1.398 . S
C1519 H1531 0.927 1_455 S
C1520 C1516 1.413 . S
C1520 C1521 1.348 . S
C1520 H1536 0.931 1_554 S
C1521 C1519 1.398 . S
C1521 C1520 1.348 . S
C1521 H1537 0.930 . S
Gd1522 N1542 2.622 1_545 S
Gd1522 N1549 2.570 1_545 S
Gd1522 O1556 2.353 1_554 S
Gd1522 O1557 2.468 1_544 S
Gd1522 O1558 2.427 1_554 S
Gd1522 O1560 2.388 . S
Gd1522 O1561 2.386 . S
Gd1522 O1565 2.307 . S
Gd1522 C1575 2.805 1_544 S
Gd1523 N1518 2.622 . S
Gd1523 N1524 2.570 . S
Gd1523 O1555 2.386 . S
Gd1523 O1559 2.307 . S
Gd1523 O1562 2.353 . S
Gd1523 O1563 2.468 . S
Gd1523 O1564 2.427 . S
Gd1523 O1566 2.388 . S
Gd1523 C1587 2.805 . S
N1524 C1514 1.359 . S
N1524 Gd1523 2.570 . S
N1524 C1526 1.343 . S
C1525 C1513 1.422 . S
C1525 C1527 1.323 . S
C1525 H1533 0.929 1_554 S
C1526 N1524 1.343 . S
C1526 C1527 1.390 . S
C1526 H1528 0.931 . S
C1527 C1525 1.323 . S
C1527 C1526 1.390 . S
C1527 H1529 0.930 . S
H1528 C1526 0.931 . S
H1529 C1527 0.930 . S
H1530 C1553 0.931 . S
H1531 C1519 0.927 1_655 S
H1532 C1554 0.930 . S
H1533 C1525 0.929 1_556 S
H1534 C1515 0.930 . S
H1535 C1544 0.929 . S
H1536 C1520 0.931 1_556 S
H1537 C1521 0.930 . S
H1538 C1576 0.930 . S
H1539 C1517 0.929 . S
H1540 C1545 0.931 . S
H1541 C1546 0.930 . S
N1542 Gd1522 2.622 1_565 S
N1542 C1543 1.369 . S
N1542 C1544 1.338 1_565 S
C1543 N1542 1.369 . S
C1543 C1547 1.415 . S
C1543 C1550 1.422 . S
C1544 H1535 0.929 . S
C1544 N1542 1.338 1_545 S
C1544 C1546 1.378 . S
C1545 H1540 0.931 . S
C1545 C1546 1.348 1_565 S
C1545 C1547 1.413 . S
C1546 H1541 0.930 . S
C1546 C1544 1.378 . S
C1546 C1545 1.348 1_545 S
C1547 C1543 1.415 . S
C1547 C1545 1.413 . S
C1547 C1577 1.437 . S
H1548 C1577 0.929 . S
N1549 Gd1522 2.570 1_565 S
N1549 C1550 1.359 . S
N1549 C1553 1.343 . S
C1550 C1543 1.422 . S
C1550 N1549 1.359 . S
C1550 C1552 1.421 . S
C1551 C1552 1.422 . S
C1551 C1554 1.321 . S
C1551 H1578 0.931 . S
C1552 C1550 1.421 . S
C1552 C1551 1.422 . S
C1552 C1576 1.417 . S
C1553 H1530 0.931 . S
C1553 N1549 1.343 . S
C1553 C1554 1.390 . S
C1554 H1532 0.930 . S
C1554 C1551 1.321 . S
C1554 C1553 1.390 . S
O1555 Gd1523 2.386 . S
O1555 C1567 1.265 1_554 S
O1556 Gd1522 2.353 1_556 S
O1556 C1567 1.242 . S
O1557 Gd1522 2.468 1_566 S
O1557 C1575 1.263 . S
O1558 Gd1522 2.427 1_556 S
O1558 C1575 1.252 1_545 S
O1559 Gd1523 2.307 . S
O1559 C1568 1.261 . S
O1560 Gd1522 2.388 . S
O1560 C1568 1.252 . S
O1561 Gd1522 2.386 . S
O1561 C1579 1.265 . S
O1562 Gd1523 2.353 . S
O1562 C1579 1.242 . S
O1563 Gd1523 2.468 . S
O1563 C1587 1.263 . S
O1564 Gd1523 2.427 . S
O1564 C1587 1.252 . S
O1565 Gd1522 2.307 . S
O1565 C1580 1.261 . S
O1566 Gd1523 2.388 . S
O1566 C1580 1.252 . S
C1567 O1555 1.265 1_556 S
C1567 O1556 1.242 . S
C1568 O1559 1.261 . S
C1568 O1560 1.252 . S
C1569 C1572 1.394 . S
C1569 C1574 1.370 . S
C1569 C1575 1.500 . S
C1570 C1573 1.383 . S
C1570 C1574 1.395 . S
C1571 C1572 1.396 . S
C1571 C1573 1.365 . S
C1571 H1588 0.929 . S
C1572 C1569 1.394 . S
C1572 C1571 1.396 . S
C1572 H1589 0.930 1_565 S
C1573 C1570 1.383 . S
C1573 C1571 1.365 . S
C1573 H1590 0.931 . S
C1574 C1569 1.370 . S
C1574 C1570 1.395 . S
C1574 H1591 0.930 . S
C1575 Gd1522 2.805 1_566 S
C1575 O1557 1.263 . S
C1575 O1558 1.252 1_565 S
C1575 C1569 1.500 . S
C1576 H1538 0.930 . S
C1576 C1552 1.417 . S
C1576 C1577 1.329 . S
C1577 C1547 1.437 . S
C1577 H1548 0.929 . S
C1577 C1576 1.329 . S
H1578 C1551 0.931 . S
C1579 O1561 1.265 . S
C1579 O1562 1.242 . S
C1580 O1565 1.261 . S
C1580 O1566 1.252 . S
C1581 C1584 1.394 . S
C1581 C1586 1.370 . S
C1581 C1587 1.500 . S
C1582 C1585 1.383 . S
C1582 C1586 1.395 . S
C1583 C1584 1.396 . S
C1583 C1585 1.365 . S
C1583 H1592 0.929 . S
C1584 C1581 1.394 . S
C1584 C1583 1.396 . S
C1584 H1593 0.930 . S
C1585 C1582 1.383 . S
C1585 C1583 1.365 . S
C1585 H1594 0.931 . S
C1586 C1581 1.370 . S
C1586 C1582 1.395 . S
C1586 H1595 0.930 . S
C1587 Gd1523 2.805 . S
C1587 O1563 1.263 . S
C1587 O1564 1.252 . S
C1587 C1581 1.500 . S
H1588 C1571 0.929 . S
H1589 C1572 0.930 1_545 S
H1590 C1573 0.931 . S
H1591 C1574 0.930 . S
H1592 C1583 0.929 . S
H1593 C1584 0.930 . S
H1594 C1585 0.931 . S
H1595 C1586 0.930 . S
C1596 C1598 1.422 . S
C1596 C1600 1.415 . S
C1596 N1602 1.369 . S
C1597 C1598 1.421 . S
C1597 C1599 1.417 . S
C1597 C1609 1.422 . S
C1598 C1596 1.422 . S
C1598 C1597 1.421 . S
C1598 N1608 1.359 . S
C1599 C1597 1.417 . S
C1599 C1601 1.329 . S
C1599 H1618 0.930 . S
C1600 C1596 1.415 . S
C1600 C1601 1.437 . S
C1600 C1604 1.413 . S
C1601 C1599 1.329 . S
C1601 C1600 1.437 . S
C1601 H1623 0.929 . S
N1602 C1596 1.369 . S
N1602 C1603 1.338 . S
N1602 Gd1607 2.622 . S
C1603 N1602 1.338 . S
C1603 C1605 1.378 . S
C1603 H1615 0.929 . S
C1604 C1600 1.413 . S
C1604 C1605 1.348 . S
C1604 H1620 0.931 . S
C1605 C1603 1.378 . S
C1605 C1604 1.348 . S
C1605 H1621 0.930 . S
Gd1606 N1626 2.622 . S
Gd1606 N1633 2.570 . S
Gd1606 O1640 2.353 . S
Gd1606 O1641 2.468 . S
Gd1606 O1642 2.427 . S
Gd1606 O1644 2.388 . S
Gd1606 O1645 2.386 . S
Gd1606 O1649 2.307 . S
Gd1606 C1659 2.805 . S
Gd1607 N1602 2.622 . S
Gd1607 N1608 2.570 . S
Gd1607 O1639 2.386 . S
Gd1607 O1643 2.307 . S
Gd1607 O1646 2.353 . S
Gd1607 O1647 2.468 . S
Gd1607 O1648 2.427 . S
Gd1607 O1650 2.388 . S
Gd1607 C1671 2.805 . S
N1608 C1598 1.359 . S
N1608 Gd1607 2.570 . S
N1608 C1610 1.343 . S
C1609 C1597 1.422 . S
C1609 C1611 1.321 . S
C1609 H1617 0.931 . S
C1610 N1608 1.343 . S
C1610 C1611 1.390 . S
C1610 H1612 0.931 . S
C1611 C1609 1.321 . S
C1611 C1610 1.390 . S
C1611 H1613 0.930 . S
H1612 C1610 0.931 . S
H1613 C1611 0.930 . S
H1614 C1637 0.931 . S
H1615 C1603 0.929 . S
H1616 C1638 0.930 . S
H1617 C1609 0.931 . S
H1618 C1599 0.930 . S
H1619 C1628 0.929 . S
H1620 C1604 0.931 . S
H1621 C1605 0.930 . S
H1622 C1660 0.930 . S
H1623 C1601 0.929 . S
H1624 C1629 0.931 . S
H1625 C1630 0.930 . S
N1626 Gd1606 2.622 . S
N1626 C1627 1.369 . S
N1626 C1628 1.338 . S
C1627 N1626 1.369 . S
C1627 C1631 1.415 . S
C1627 C1634 1.422 . S
C1628 H1619 0.929 . S
C1628 N1626 1.338 . S
C1628 C1630 1.378 . S
C1629 H1624 0.931 . S
C1629 C1630 1.348 . S
C1629 C1631 1.413 . S
C1630 H1625 0.930 . S
C1630 C1628 1.378 . S
C1630 C1629 1.348 . S
C1631 C1627 1.415 . S
C1631 C1629 1.413 . S
C1631 C1661 1.437 . S
H1632 C1661 0.929 . S
N1633 Gd1606 2.570 . S
N1633 C1634 1.359 . S
N1633 C1637 1.343 . S
C1634 C1627 1.422 . S
C1634 N1633 1.359 . S
C1634 C1636 1.421 . S
C1635 C1636 1.422 . S
C1635 C1638 1.321 . S
C1635 H1662 0.931 . S
C1636 C1634 1.421 . S
C1636 C1635 1.422 . S
C1636 C1660 1.417 . S
C1637 H1614 0.931 . S
C1637 N1633 1.343 . S
C1637 C1638 1.390 . S
C1638 H1616 0.930 . S
C1638 C1635 1.321 . S
C1638 C1637 1.390 . S
O1639 Gd1607 2.386 . S
O1639 C1651 1.265 . S
O1640 Gd1606 2.353 . S
O1640 C1651 1.242 . S
O1641 Gd1606 2.468 . S
O1641 C1659 1.263 . S
O1642 Gd1606 2.427 . S
O1642 C1659 1.252 . S
O1643 Gd1607 2.307 . S
O1643 C1652 1.261 . S
O1644 Gd1606 2.388 . S
O1644 C1652 1.252 . S
O1645 Gd1606 2.386 . S
O1645 C1663 1.265 . S
O1646 Gd1607 2.353 . S
O1646 C1663 1.242 . S
O1647 Gd1607 2.468 . S
O1647 C1671 1.263 . S
O1648 Gd1607 2.427 . S
O1648 C1671 1.252 . S
O1649 Gd1606 2.307 . S
O1649 C1664 1.261 . S
O1650 Gd1607 2.388 . S
O1650 C1664 1.252 . S
C1651 O1639 1.265 . S
C1651 O1640 1.242 . S
C1652 O1643 1.261 . S
C1652 O1644 1.252 . S
C1653 C1656 1.394 . S
C1653 C1658 1.370 . S
C1653 C1659 1.500 . S
C1654 C1657 1.383 . S
C1654 C1658 1.395 . S
C1655 C1656 1.396 . S
C1655 C1657 1.365 . S
C1655 H1672 0.929 . S
C1656 C1653 1.394 . S
C1656 C1655 1.396 . S
C1656 H1673 0.930 . S
C1657 C1654 1.383 . S
C1657 C1655 1.365 . S
C1657 H1674 0.931 . S
C1658 C1653 1.370 . S
C1658 C1654 1.395 . S
C1658 H1675 0.930 . S
C1659 Gd1606 2.805 . S
C1659 O1641 1.263 . S
C1659 O1642 1.252 . S
C1659 C1653 1.500 . S
C1660 H1622 0.930 . S
C1660 C1636 1.417 . S
C1660 C1661 1.329 . S
C1661 C1631 1.437 . S
C1661 H1632 0.929 . S
C1661 C1660 1.329 . S
H1662 C1635 0.931 . S
C1663 O1645 1.265 . S
C1663 O1646 1.242 . S
C1664 O1649 1.261 . S
C1664 O1650 1.252 . S
C1665 C1668 1.394 . S
C1665 C1670 1.370 . S
C1665 C1671 1.500 . S
C1666 C1669 1.383 . S
C1666 C1670 1.395 . S
C1667 C1668 1.396 . S
C1667 C1669 1.365 . S
C1667 H1676 0.929 . S
C1668 C1665 1.394 . S
C1668 C1667 1.396 . S
C1668 H1677 0.930 . S
C1669 C1666 1.383 . S
C1669 C1667 1.365 . S
C1669 H1678 0.931 . S
C1670 C1665 1.370 . S
C1670 C1666 1.395 . S
C1670 H1679 0.930 . S
C1671 Gd1607 2.805 . S
C1671 O1647 1.263 . S
C1671 O1648 1.252 . S
C1671 C1665 1.500 . S
H1672 C1655 0.929 . S
H1673 C1656 0.930 . S
H1674 C1657 0.931 . S
H1675 C1658 0.930 . S
H1676 C1667 0.929 . S
H1677 C1668 0.930 . S
H1678 C1669 0.931 . S
H1679 C1670 0.930 . S
C1680 C1682 1.422 . S
C1680 C1684 1.415 . S
C1680 N1686 1.369 . S
C1681 C1682 1.421 . S
C1681 C1683 1.417 . S
C1681 C1693 1.422 . S
C1682 C1680 1.422 . S
C1682 C1681 1.421 . S
C1682 N1692 1.359 . S
C1683 C1681 1.417 . S
C1683 C1685 1.329 . S
C1683 H1702 0.930 . S
C1684 C1680 1.415 . S
C1684 C1685 1.437 . S
C1684 C1688 1.413 . S
C1685 C1683 1.329 . S
C1685 C1684 1.437 . S
C1685 H1707 0.929 . S
N1686 C1680 1.369 . S
N1686 C1687 1.338 . S
N1686 Gd1691 2.622 . S
C1687 N1686 1.338 . S
C1687 C1689 1.378 . S
C1687 H1699 0.929 . S
C1688 C1684 1.413 . S
C1688 C1689 1.348 . S
C1688 H1704 0.931 . S
C1689 C1687 1.378 . S
C1689 C1688 1.348 . S
C1689 H1705 0.930 . S
Gd1690 N1710 2.622 1_545 S
Gd1690 N1717 2.570 . S
Gd1690 O1724 2.353 . S
Gd1690 O1725 2.468 . S
Gd1690 O1726 2.427 . S
Gd1690 O1728 2.388 . S
Gd1690 O1729 2.386 . S
Gd1690 O1733 2.307 . S
Gd1690 C1743 2.805 . S
Gd1691 N1686 2.622 . S
Gd1691 N1692 2.570 . S
Gd1691 O1723 2.386 . S
Gd1691 O1727 2.307 . S
Gd1691 O1730 2.353 . S
Gd1691 O1731 2.468 . S
Gd1691 O1732 2.427 . S
Gd1691 O1734 2.388 . S
Gd1691 C1755 2.805 . S
N1692 C1682 1.359 . S
N1692 Gd1691 2.570 . S
N1692 C1694 1.343 . S
C1693 C1681 1.422 . S
C1693 C1695 1.321 . S
C1693 H1701 0.931 . S
C1694 N1692 1.343 . S
C1694 C1695 1.390 . S
C1694 H1696 0.931 . S
C1695 C1693 1.321 . S
C1695 C1694 1.390 . S
C1695 H1697 0.930 . S
H1696 C1694 0.931 . S
H1697 C1695 0.930 . S
H1698 C1721 0.931 . S
H1699 C1687 0.929 . S
H1700 C1722 0.930 . S
H1701 C1693 0.931 . S
H1702 C1683 0.930 . S
H1703 C1712 0.929 . S
H1704 C1688 0.931 . S
H1705 C1689 0.930 . S
H1706 C1744 0.930 . S
H1707 C1685 0.929 . S
H1708 C1713 0.931 . S
H1709 C1714 0.930 . S
N1710 Gd1690 2.622 1_565 S
N1710 C1711 1.369 . S
N1710 C1712 1.338 . S
C1711 N1710 1.369 . S
C1711 C1715 1.415 . S
C1711 C1718 1.422 . S
C1712 H1703 0.929 . S
C1712 N1710 1.338 . S
C1712 C1714 1.378 . S
C1713 H1708 0.931 . S
C1713 C1714 1.348 . S
C1713 C1715 1.413 . S
C1714 H1709 0.930 . S
C1714 C1712 1.378 . S
C1714 C1713 1.348 . S
C1715 C1711 1.415 . S
C1715 C1713 1.413 . S
C1715 C1745 1.437 . S
H1716 C1745 0.929 . S
N1717 Gd1690 2.570 . S
N1717 C1718 1.359 1_545 S
N1717 C1721 1.343 . S
C1718 C1711 1.422 . S
C1718 N1717 1.359 1_565 S
C1718 C1720 1.421 . S
C1719 C1720 1.422 . S
C1719 C1722 1.321 1_565 S
C1719 H1746 0.931 . S
C1720 C1718 1.421 . S
C1720 C1719 1.422 . S
C1720 C1744 1.417 . S
C1721 H1698 0.931 . S
C1721 N1717 1.343 . S
C1721 C1722 1.390 . S
C1722 H1700 0.930 . S
C1722 C1719 1.321 1_545 S
C1722 C1721 1.390 . S
O1723 Gd1691 2.386 . S
O1723 C1735 1.265 . S
O1724 Gd1690 2.353 . S
O1724 C1735 1.242 . S
O1725 Gd1690 2.468 . S
O1725 C1743 1.263 . S
O1726 Gd1690 2.427 . S
O1726 C1743 1.252 . S
O1727 Gd1691 2.307 . S
O1727 C1736 1.261 . S
O1728 Gd1690 2.388 . S
O1728 C1736 1.252 . S
O1729 Gd1690 2.386 . S
O1729 C1747 1.265 . S
O1730 Gd1691 2.353 . S
O1730 C1747 1.242 . S
O1731 Gd1691 2.468 . S
O1731 C1755 1.263 . S
O1732 Gd1691 2.427 . S
O1732 C1755 1.252 . S
O1733 Gd1690 2.307 . S
O1733 C1748 1.261 . S
O1734 Gd1691 2.388 . S
O1734 C1748 1.252 . S
C1735 O1723 1.265 . S
C1735 O1724 1.242 . S
C1736 O1727 1.261 . S
C1736 O1728 1.252 . S
C1737 C1740 1.394 1_545 S
C1737 C1742 1.370 . S
C1737 C1743 1.500 1_556 S
C1738 C1741 1.383 1_545 S
C1738 C1742 1.395 . S
C1739 C1740 1.396 . S
C1739 C1741 1.365 . S
C1739 H1756 0.929 . S
C1740 C1737 1.394 1_565 S
C1740 C1739 1.396 . S
C1740 H1757 0.930 . S
C1741 C1738 1.383 1_565 S
C1741 C1739 1.365 . S
C1741 H1758 0.931 . S
C1742 C1737 1.370 . S
C1742 C1738 1.395 . S
C1742 H1759 0.930 . S
C1743 Gd1690 2.805 . S
C1743 O1725 1.263 . S
C1743 O1726 1.252 . S
C1743 C1737 1.500 1_554 S
C1744 H1706 0.930 . S
C1744 C1720 1.417 . S
C1744 C1745 1.329 . S
C1745 C1715 1.437 . S
C1745 H1716 0.929 . S
C1745 C1744 1.329 . S
H1746 C1719 0.931 . S
C1747 O1729 1.265 . S
C1747 O1730 1.242 . S
C1748 O1733 1.261 . S
C1748 O1734 1.252 . S
C1749 C1752 1.394 . S
C1749 C1754 1.370 . S
C1749 C1755 1.500 . S
C1750 C1753 1.383 . S
C1750 C1754 1.395 . S
C1751 C1752 1.396 . S
C1751 C1753 1.365 . S
C1751 H1760 0.929 . S
C1752 C1749 1.394 . S
C1752 C1751 1.396 . S
C1752 H1761 0.930 . S
C1753 C1750 1.383 . S
C1753 C1751 1.365 . S
C1753 H1762 0.931 . S
C1754 C1749 1.370 . S
C1754 C1750 1.395 . S
C1754 H1763 0.930 . S
C1755 Gd1691 2.805 . S
C1755 O1731 1.263 . S
C1755 O1732 1.252 . S
C1755 C1749 1.500 . S
H1756 C1739 0.929 . S
H1757 C1740 0.930 . S
H1758 C1741 0.931 . S
H1759 C1742 0.930 . S
H1760 C1751 0.929 . S
H1761 C1752 0.930 . S
H1762 C1753 0.931 . S
H1763 C1754 0.930 . S
C1764 C1766 1.422 . S
C1764 C1768 1.415 . S
C1764 N1770 1.369 . S
C1765 C1766 1.421 . S
C1765 C1767 1.417 . S
C1765 C1777 1.422 . S
C1766 C1764 1.422 . S
C1766 C1765 1.421 . S
C1766 N1776 1.359 . S
C1767 C1765 1.417 . S
C1767 C1769 1.329 . S
C1767 H1786 0.930 . S
C1768 C1764 1.415 . S
C1768 C1769 1.437 . S
C1768 C1772 1.413 . S
C1769 C1767 1.329 . S
C1769 C1768 1.437 . S
C1769 H1791 0.929 . S
N1770 C1764 1.369 . S
N1770 C1771 1.338 . S
N1770 Gd1775 2.622 . S
C1771 N1770 1.338 . S
C1771 C1773 1.378 . S
C1771 H1783 0.929 . S
C1772 C1768 1.413 . S
C1772 C1773 1.348 . S
C1772 H1788 0.931 . S
C1773 C1771 1.378 . S
C1773 C1772 1.348 . S
C1773 H1789 0.930 . S
Gd1774 N1794 2.622 . S
Gd1774 N1801 2.570 . S
Gd1774 O1808 2.353 . S
Gd1774 O1809 2.468 . S
Gd1774 O1810 2.427 . S
Gd1774 O1812 2.388 . S
Gd1774 O1813 2.386 . S
Gd1774 O1817 2.307 . S
Gd1774 C1827 2.805 . S
Gd1775 N1770 2.622 . S
Gd1775 N1776 2.570 . S
Gd1775 O1807 2.386 . S
Gd1775 O1811 2.307 . S
Gd1775 O1814 2.353 . S
Gd1775 O1815 2.468 . S
Gd1775 O1816 2.427 . S
Gd1775 O1818 2.388 . S
Gd1775 C1839 2.805 . S
N1776 C1766 1.359 . S
N1776 Gd1775 2.570 . S
N1776 C1778 1.343 . S
C1777 C1765 1.422 . S
C1777 C1779 1.321 . S
C1777 H1785 0.931 . S
C1778 N1776 1.343 . S
C1778 C1779 1.390 . S
C1778 H1780 0.931 . S
C1779 C1777 1.321 . S
C1779 C1778 1.390 . S
C1779 H1781 0.930 . S
H1780 C1778 0.931 . S
H1781 C1779 0.930 . S
H1782 C1805 0.931 . S
H1783 C1771 0.929 . S
H1784 C1806 0.930 . S
H1785 C1777 0.931 . S
H1786 C1767 0.930 . S
H1787 C1796 0.929 . S
H1788 C1772 0.931 . S
H1789 C1773 0.930 . S
H1790 C1828 0.930 . S
H1791 C1769 0.929 . S
H1792 C1797 0.931 . S
H1793 C1798 0.930 . S
N1794 Gd1774 2.622 . S
N1794 C1795 1.369 . S
N1794 C1796 1.338 . S
C1795 N1794 1.369 . S
C1795 C1799 1.415 . S
C1795 C1802 1.422 . S
C1796 H1787 0.929 . S
C1796 N1794 1.338 . S
C1796 C1798 1.378 . S
C1797 H1792 0.931 . S
C1797 C1798 1.348 . S
C1797 C1799 1.413 . S
C1798 H1793 0.930 . S
C1798 C1796 1.378 . S
C1798 C1797 1.348 . S
C1799 C1795 1.415 . S
C1799 C1797 1.413 . S
C1799 C1829 1.437 . S
H1800 C1829 0.929 . S
N1801 Gd1774 2.570 . S
N1801 C1802 1.359 . S
N1801 C1805 1.343 . S
C1802 C1795 1.422 . S
C1802 N1801 1.359 . S
C1802 C1804 1.421 . S
C1803 C1804 1.422 . S
C1803 C1806 1.321 . S
C1803 H1830 0.931 . S
C1804 C1802 1.421 . S
C1804 C1803 1.422 . S
C1804 C1828 1.417 . S
C1805 H1782 0.931 . S
C1805 N1801 1.343 . S
C1805 C1806 1.390 . S
C1806 H1784 0.930 . S
C1806 C1803 1.321 . S
C1806 C1805 1.390 . S
O1807 Gd1775 2.386 . S
O1807 C1819 1.265 . S
O1808 Gd1774 2.353 . S
O1808 C1819 1.242 . S
O1809 Gd1774 2.468 . S
O1809 C1827 1.263 . S
O1810 Gd1774 2.427 . S
O1810 C1827 1.252 . S
O1811 Gd1775 2.307 . S
O1811 C1820 1.261 . S
O1812 Gd1774 2.388 . S
O1812 C1820 1.252 . S
O1813 Gd1774 2.386 . S
O1813 C1831 1.265 . S
O1814 Gd1775 2.353 . S
O1814 C1831 1.242 . S
O1815 Gd1775 2.468 . S
O1815 C1839 1.263 . S
O1816 Gd1775 2.427 . S
O1816 C1839 1.252 . S
O1817 Gd1774 2.307 . S
O1817 C1832 1.261 . S
O1818 Gd1775 2.388 . S
O1818 C1832 1.252 . S
C1819 O1807 1.265 . S
C1819 O1808 1.242 . S
C1820 O1811 1.261 . S
C1820 O1812 1.252 . S
C1821 C1824 1.394 . S
C1821 C1826 1.370 . S
C1821 C1827 1.500 . S
C1822 C1825 1.383 . S
C1822 C1826 1.395 . S
C1823 C1824 1.396 . S
C1823 C1825 1.365 . S
C1823 H1840 0.929 . S
C1824 C1821 1.394 . S
C1824 C1823 1.396 . S
C1824 H1841 0.930 . S
C1825 C1822 1.383 . S
C1825 C1823 1.365 . S
C1825 H1842 0.931 . S
C1826 C1821 1.370 . S
C1826 C1822 1.395 . S
C1826 H1843 0.930 . S
C1827 Gd1774 2.805 . S
C1827 O1809 1.263 . S
C1827 O1810 1.252 . S
C1827 C1821 1.500 . S
C1828 H1790 0.930 . S
C1828 C1804 1.417 . S
C1828 C1829 1.329 . S
C1829 C1799 1.437 . S
C1829 H1800 0.929 . S
C1829 C1828 1.329 . S
H1830 C1803 0.931 . S
C1831 O1813 1.265 . S
C1831 O1814 1.242 . S
C1832 O1817 1.261 . S
C1832 O1818 1.252 . S
C1833 C1836 1.394 . S
C1833 C1838 1.370 . S
C1833 C1839 1.500 . S
C1834 C1837 1.383 . S
C1834 C1838 1.395 . S
C1835 C1836 1.396 . S
C1835 C1837 1.365 . S
C1835 H1844 0.929 . S
C1836 C1833 1.394 . S
C1836 C1835 1.396 . S
C1836 H1845 0.930 . S
C1837 C1834 1.383 . S
C1837 C1835 1.365 . S
C1837 H1846 0.931 . S
C1838 C1833 1.370 . S
C1838 C1834 1.395 . S
C1838 H1847 0.930 . S
C1839 Gd1775 2.805 . S
C1839 O1815 1.263 . S
C1839 O1816 1.252 . S
C1839 C1833 1.500 . S
H1840 C1823 0.929 . S
H1841 C1824 0.930 . S
H1842 C1825 0.931 . S
H1843 C1826 0.930 . S
H1844 C1835 0.929 . S
H1845 C1836 0.930 . S
H1846 C1837 0.931 . S
H1847 C1838 0.930 . S
C1848 C1850 1.422 . S
C1848 C1852 1.415 . S
C1848 N1854 1.369 . S
C1849 C1850 1.421 . S
C1849 C1851 1.417 . S
C1849 C1861 1.422 . S
C1850 C1848 1.422 . S
C1850 C1849 1.421 . S
C1850 N1860 1.359 . S
C1851 C1849 1.417 . S
C1851 C1853 1.329 . S
C1851 H1870 0.930 . S
C1852 C1848 1.415 . S
C1852 C1853 1.437 . S
C1852 C1856 1.413 . S
C1853 C1851 1.329 . S
C1853 C1852 1.437 . S
C1853 H1875 0.929 . S
N1854 C1848 1.369 . S
N1854 C1855 1.338 . S
N1854 Gd1859 2.613 1_455 S
C1855 N1854 1.338 . S
C1855 C1857 1.378 . S
C1855 H1867 0.929 1_455 S
C1856 C1852 1.413 . S
C1856 C1857 1.348 . S
C1856 H1872 0.931 . S
C1857 C1855 1.378 . S
C1857 C1856 1.348 . S
C1857 H1873 0.930 . S
Gd1858 N1878 2.622 . S
Gd1858 N1885 2.570 . S
Gd1858 O1892 2.353 . S
Gd1858 O1893 2.468 . S
Gd1858 O1894 2.427 . S
Gd1858 O1896 2.388 . S
Gd1858 O1897 2.386 . S
Gd1858 O1901 2.307 . S
Gd1858 C1911 2.805 . S
Gd1859 N1854 2.613 1_655 S
Gd1859 N1860 2.544 1_655 S
Gd1859 O1891 2.383 1_655 S
Gd1859 O1895 2.303 1_655 S
Gd1859 O1898 2.372 . S
Gd1859 O1899 2.455 1_655 S
Gd1859 O1900 2.425 1_655 S
Gd1859 O1902 2.409 . S
Gd1859 C1923 2.797 1_655 S
N1860 C1850 1.359 . S
N1860 Gd1859 2.544 1_455 S
N1860 C1862 1.343 . S
C1861 C1849 1.422 . S
C1861 C1863 1.321 . S
C1861 H1869 0.931 . S
C1862 N1860 1.343 . S
C1862 C1863 1.390 . S
C1862 H1864 0.931 . S
C1863 C1861 1.321 . S
C1863 C1862 1.390 . S
C1863 H1865 0.930 . S
H1864 C1862 0.931 . S
H1865 C1863 0.930 . S
H1866 C1889 0.931 . S
H1867 C1855 0.929 1_655 S
H1868 C1890 0.930 . S
H1869 C1861 0.931 . S
H1870 C1851 0.930 . S
H1871 C1880 0.929 . S
H1872 C1856 0.931 . S
H1873 C1857 0.930 . S
H1874 C1912 0.931 . S
H1875 C1853 0.929 . S
H1876 C1881 0.931 . S
H1877 C1882 0.930 . S
N1878 Gd1858 2.622 . S
N1878 C1879 1.369 . S
N1878 C1880 1.338 1_565 S
C1879 N1878 1.369 . S
C1879 C1883 1.415 1_565 S
C1879 C1886 1.422 . S
C1880 H1871 0.929 . S
C1880 N1878 1.338 1_545 S
C1880 C1882 1.378 . S
C1881 H1876 0.931 . S
C1881 C1882 1.348 . S
C1881 C1883 1.413 . S
C1882 H1877 0.930 . S
C1882 C1880 1.378 . S
C1882 C1881 1.348 . S
C1883 C1879 1.415 1_545 S
C1883 C1881 1.413 . S
C1883 C1913 1.437 . S
H1884 C1913 0.929 . S
N1885 Gd1858 2.570 . S
N1885 C1886 1.359 . S
N1885 C1889 1.343 . S
C1886 C1879 1.422 . S
C1886 N1885 1.359 . S
C1886 C1888 1.421 . S
C1887 C1888 1.422 . S
C1887 C1890 1.321 . S
C1887 H1914 0.931 . S
C1888 C1886 1.421 . S
C1888 C1887 1.422 . S
C1888 C1912 1.417 . S
C1889 H1866 0.931 . S
C1889 N1885 1.343 . S
C1889 C1890 1.390 . S
C1890 H1868 0.930 . S
C1890 C1887 1.321 . S
C1890 C1889 1.390 . S
O1891 Gd1859 2.383 1_455 S
O1891 C1903 1.265 . S
O1892 Gd1858 2.353 . S
O1892 C1903 1.242 1_655 S
O1893 Gd1858 2.468 . S
O1893 C1911 1.263 . S
O1894 Gd1858 2.427 . S
O1894 C1911 1.252 . S
O1895 Gd1859 2.303 1_455 S
O1895 C1904 1.261 . S
O1896 Gd1858 2.388 . S
O1896 C1904 1.252 1_655 S
O1897 Gd1858 2.386 . S
O1897 C1915 1.265 . S
O1898 Gd1859 2.372 . S
O1898 C1915 1.242 . S
O1899 Gd1859 2.455 1_455 S
O1899 C1923 1.263 . S
O1900 Gd1859 2.425 1_455 S
O1900 C1923 1.252 . S
O1901 Gd1858 2.307 . S
O1901 C1916 1.261 . S
O1902 Gd1859 2.409 . S
O1902 C1916 1.252 . S
C1903 O1891 1.265 . S
C1903 O1892 1.242 1_455 S
C1904 O1895 1.261 . S
C1904 O1896 1.252 1_455 S
C1905 C1908 1.394 . S
C1905 C1910 1.370 . S
C1905 C1911 1.500 . S
C1906 C1909 1.383 . S
C1906 C1910 1.395 . S
C1907 C1908 1.396 1_545 S
C1907 C1909 1.365 1_545 S
C1907 H1924 0.929 . S
C1908 C1905 1.394 . S
C1908 C1907 1.396 1_565 S
C1908 H1925 0.930 1_565 S
C1909 C1906 1.383 . S
C1909 C1907 1.365 1_565 S
C1909 H1926 0.931 . S
C1910 C1905 1.370 . S
C1910 C1906 1.395 . S
C1910 H1927 0.930 . S
C1911 Gd1858 2.805 . S
C1911 O1893 1.263 . S
C1911 O1894 1.252 . S
C1911 C1905 1.500 . S
C1912 H1874 0.931 . S
C1912 C1888 1.417 . S
C1912 C1913 1.329 1_565 S
C1913 C1883 1.437 . S
C1913 H1884 0.929 . S
C1913 C1912 1.329 1_545 S
H1914 C1887 0.931 . S
C1915 O1897 1.265 . S
C1915 O1898 1.242 . S
C1916 O1901 1.261 . S
C1916 O1902 1.252 . S
C1917 C1920 1.394 . S
C1917 C1922 1.370 . S
C1917 C1923 1.500 . S
C1918 C1921 1.383 . S
C1918 C1922 1.395 . S
C1919 C1920 1.396 . S
C1919 C1921 1.365 . S
C1919 H1928 0.929 . S
C1920 C1917 1.394 . S
C1920 C1919 1.396 . S
C1920 H1929 0.930 . S
C1921 C1918 1.383 . S
C1921 C1919 1.365 . S
C1921 H1930 0.931 . S
C1922 C1917 1.370 . S
C1922 C1918 1.395 . S
C1922 H1931 0.930 . S
C1923 Gd1859 2.797 1_455 S
C1923 O1899 1.263 . S
C1923 O1900 1.252 . S
C1923 C1917 1.500 . S
H1924 C1907 0.929 . S
H1925 C1908 0.930 1_545 S
H1926 C1909 0.931 . S
H1927 C1910 0.930 . S
H1928 C1919 0.929 . S
H1929 C1920 0.930 . S
H1930 C1921 0.931 . S
H1931 C1922 0.930 . S
C1932 C1934 1.422 . S
C1932 C1936 1.415 . S
C1932 N1938 1.369 . S
C1933 C1934 1.421 . S
C1933 C1935 1.417 . S
C1933 C1945 1.422 . S
C1934 C1932 1.422 . S
C1934 C1933 1.421 . S
C1934 N1944 1.359 . S
C1935 C1933 1.417 . S
C1935 C1937 1.329 . S
C1935 H1954 0.930 . S
C1936 C1932 1.415 . S
C1936 C1937 1.437 . S
C1936 C1940 1.413 . S
C1937 C1935 1.329 . S
C1937 C1936 1.437 . S
C1937 H1959 0.929 . S
N1938 C1932 1.369 . S
N1938 C1939 1.338 . S
N1938 Gd1943 2.622 . S
C1939 N1938 1.338 . S
C1939 C1941 1.378 . S
C1939 H1951 0.929 . S
C1940 C1936 1.413 . S
C1940 C1941 1.348 . S
C1940 H1956 0.931 . S
C1941 C1939 1.378 . S
C1941 C1940 1.348 . S
C1941 H1957 0.930 . S
Gd1942 N1962 2.622 . S
Gd1942 N1969 2.570 . S
Gd1942 O1976 2.353 . S
Gd1942 O1977 2.468 . S
Gd1942 O1978 2.427 . S
Gd1942 O1980 2.388 . S
Gd1942 O1981 2.386 . S
Gd1942 O1985 2.307 . S
Gd1942 C1995 2.805 . S
Gd1943 N1938 2.622 . S
Gd1943 N1944 2.570 . S
Gd1943 O1975 2.386 . S
Gd1943 O1979 2.307 . S
Gd1943 O1982 2.353 . S
Gd1943 O1983 2.468 . S
Gd1943 O1984 2.427 . S
Gd1943 O1986 2.388 . S
Gd1943 C2007 2.805 . S
N1944 C1934 1.359 . S
N1944 Gd1943 2.570 . S
N1944 C1946 1.343 . S
C1945 C1933 1.422 . S
C1945 C1947 1.321 . S
C1945 H1953 0.931 . S
C1946 N1944 1.343 . S
C1946 C1947 1.390 . S
C1946 H1948 0.931 . S
C1947 C1945 1.321 . S
C1947 C1946 1.390 . S
C1947 H1949 0.930 . S
H1948 C1946 0.931 . S
H1949 C1947 0.930 . S
H1950 C1973 0.931 . S
H1951 C1939 0.929 . S
H1952 C1974 0.930 . S
H1953 C1945 0.931 . S
H1954 C1935 0.930 . S
H1955 C1964 0.929 . S
H1956 C1940 0.931 . S
H1957 C1941 0.930 . S
H1958 C1996 0.930 . S
H1959 C1937 0.929 . S
H1960 C1965 0.931 . S
H1961 C1966 0.930 . S
N1962 Gd1942 2.622 . S
N1962 C1963 1.369 . S
N1962 C1964 1.338 . S
C1963 N1962 1.369 . S
C1963 C1967 1.415 . S
C1963 C1970 1.422 . S
C1964 H1955 0.929 . S
C1964 N1962 1.338 . S
C1964 C1966 1.378 . S
C1965 H1960 0.931 . S
C1965 C1966 1.348 . S
C1965 C1967 1.413 . S
C1966 H1961 0.930 . S
C1966 C1964 1.378 . S
C1966 C1965 1.348 . S
C1967 C1963 1.415 . S
C1967 C1965 1.413 . S
C1967 C1997 1.437 . S
H1968 C1997 0.929 . S
N1969 Gd1942 2.570 . S
N1969 C1970 1.359 . S
N1969 C1973 1.343 . S
C1970 C1963 1.422 . S
C1970 N1969 1.359 . S
C1970 C1972 1.421 . S
C1971 C1972 1.422 . S
C1971 C1974 1.321 . S
C1971 H1998 0.931 . S
C1972 C1970 1.421 . S
C1972 C1971 1.422 . S
C1972 C1996 1.417 . S
C1973 H1950 0.931 . S
C1973 N1969 1.343 . S
C1973 C1974 1.390 . S
C1974 H1952 0.930 . S
C1974 C1971 1.321 . S
C1974 C1973 1.390 . S
O1975 Gd1943 2.386 . S
O1975 C1987 1.265 . S
O1976 Gd1942 2.353 . S
O1976 C1987 1.242 . S
O1977 Gd1942 2.468 . S
O1977 C1995 1.263 . S
O1978 Gd1942 2.427 . S
O1978 C1995 1.252 . S
O1979 Gd1943 2.307 . S
O1979 C1988 1.261 . S
O1980 Gd1942 2.388 . S
O1980 C1988 1.252 . S
O1981 Gd1942 2.386 . S
O1981 C1999 1.265 . S
O1982 Gd1943 2.353 . S
O1982 C1999 1.242 . S
O1983 Gd1943 2.468 . S
O1983 C2007 1.263 . S
O1984 Gd1943 2.427 . S
O1984 C2007 1.252 . S
O1985 Gd1942 2.307 . S
O1985 C2000 1.261 . S
O1986 Gd1943 2.388 . S
O1986 C2000 1.252 . S
C1987 O1975 1.265 . S
C1987 O1976 1.242 . S
C1988 O1979 1.261 . S
C1988 O1980 1.252 . S
C1989 C1992 1.394 . S
C1989 C1994 1.370 . S
C1989 C1995 1.500 . S
C1990 C1993 1.383 . S
C1990 C1994 1.395 . S
C1991 C1992 1.396 . S
C1991 C1993 1.365 . S
C1991 H2008 0.929 . S
C1992 C1989 1.394 . S
C1992 C1991 1.396 . S
C1992 H2009 0.930 . S
C1993 C1990 1.383 . S
C1993 C1991 1.365 . S
C1993 H2010 0.931 . S
C1994 C1989 1.370 . S
C1994 C1990 1.395 . S
C1994 H2011 0.930 . S
C1995 Gd1942 2.805 . S
C1995 O1977 1.263 . S
C1995 O1978 1.252 . S
C1995 C1989 1.500 . S
C1996 H1958 0.930 . S
C1996 C1972 1.417 . S
C1996 C1997 1.329 . S
C1997 C1967 1.437 . S
C1997 H1968 0.929 . S
C1997 C1996 1.329 . S
H1998 C1971 0.931 . S
C1999 O1981 1.265 . S
C1999 O1982 1.242 . S
C2000 O1985 1.261 . S
C2000 O1986 1.252 . S
C2001 C2004 1.394 . S
C2001 C2006 1.370 . S
C2001 C2007 1.500 . S
C2002 C2005 1.383 . S
C2002 C2006 1.395 . S
C2003 C2004 1.396 . S
C2003 C2005 1.365 . S
C2003 H2012 0.929 . S
C2004 C2001 1.394 . S
C2004 C2003 1.396 . S
C2004 H2013 0.930 . S
C2005 C2002 1.383 . S
C2005 C2003 1.365 . S
C2005 H2014 0.931 1_556 S
C2006 C2001 1.370 . S
C2006 C2002 1.395 . S
C2006 H2015 0.930 . S
C2007 Gd1943 2.805 . S
C2007 O1983 1.263 . S
C2007 O1984 1.252 . S
C2007 C2001 1.500 . S
H2008 C1991 0.929 . S
H2009 C1992 0.930 . S
H2010 C1993 0.931 . S
H2011 C1994 0.930 . S
H2012 C2003 0.929 . S
H2013 C2004 0.930 . S
H2014 C2005 0.931 1_554 S
H2015 C2006 0.930 . S
C2016 C2018 1.422 . S
C2016 C2020 1.415 . S
C2016 N2022 1.369 . S
C2017 C2018 1.421 . S
C2017 C2019 1.417 . S
C2017 C2029 1.422 . S
C2018 C2016 1.422 . S
C2018 C2017 1.421 . S
C2018 N2028 1.359 . S
C2019 C2017 1.417 . S
C2019 C2021 1.329 . S
C2019 H2038 0.930 . S
C2020 C2016 1.415 . S
C2020 C2021 1.437 . S
C2020 C2024 1.413 . S
C2021 C2019 1.329 . S
C2021 C2020 1.437 . S
C2021 H2043 0.929 . S
N2022 C2016 1.369 . S
N2022 C2023 1.338 . S
N2022 Gd2027 2.622 1_565 S
C2023 N2022 1.338 . S
C2023 C2025 1.378 . S
C2023 H2035 0.929 . S
C2024 C2020 1.413 . S
C2024 C2025 1.348 . S
C2024 H2040 0.931 . S
C2025 C2023 1.378 . S
C2025 C2024 1.348 . S
C2025 H2041 0.930 . S
Gd2026 N2046 2.622 . S
Gd2026 N2053 2.570 . S
Gd2026 O2060 2.353 . S
Gd2026 O2061 2.468 . S
Gd2026 O2062 2.427 . S
Gd2026 O2064 2.388 . S
Gd2026 O2065 2.386 . S
Gd2026 O2069 2.307 . S
Gd2026 C2079 2.805 . S
Gd2027 N2022 2.622 1_545 S
Gd2027 N2028 2.570 1_545 S
Gd2027 O2059 2.386 . S
Gd2027 O2063 2.307 . S
Gd2027 O2066 2.353 . S
Gd2027 O2067 2.468 . S
Gd2027 O2068 2.427 1_545 S
Gd2027 O2070 2.388 . S
Gd2027 C2091 2.805 1_545 S
N2028 C2018 1.359 . S
N2028 Gd2027 2.570 1_565 S
N2028 C2030 1.343 . S
C2029 C2017 1.422 . S
C2029 C2031 1.321 . S
C2029 H2037 0.931 . S
C2030 N2028 1.343 . S
C2030 C2031 1.390 . S
C2030 H2032 0.931 1_565 S
C2031 C2029 1.321 . S
C2031 C2030 1.390 . S
C2031 H2033 0.930 . S
H2032 C2030 0.931 1_545 S
H2033 C2031 0.930 . S
H2034 C2057 0.931 . S
H2035 C2023 0.929 . S
H2036 C2058 0.930 . S
H2037 C2029 0.931 . S
H2038 C2019 0.930 . S
H2039 C2048 0.929 . S
H2040 C2024 0.931 . S
H2041 C2025 0.930 . S
H2042 C2080 0.930 . S
H2043 C2021 0.929 . S
H2044 C2049 0.931 . S
H2045 C2050 0.930 . S
N2046 Gd2026 2.622 . S
N2046 C2047 1.369 . S
N2046 C2048 1.338 . S
C2047 N2046 1.369 . S
C2047 C2051 1.415 . S
C2047 C2054 1.422 . S
C2048 H2039 0.929 . S
C2048 N2046 1.338 . S
C2048 C2050 1.378 . S
C2049 H2044 0.931 . S
C2049 C2050 1.348 . S
C2049 C2051 1.413 . S
C2050 H2045 0.930 . S
C2050 C2048 1.378 . S
C2050 C2049 1.348 . S
C2051 C2047 1.415 . S
C2051 C2049 1.413 . S
C2051 C2081 1.437 . S
H2052 C2081 0.929 . S
N2053 Gd2026 2.570 . S
N2053 C2054 1.359 . S
N2053 C2057 1.343 . S
C2054 C2047 1.422 . S
C2054 N2053 1.359 . S
C2054 C2056 1.421 . S
C2055 C2056 1.422 . S
C2055 C2058 1.321 . S
C2055 H2082 0.931 . S
C2056 C2054 1.421 . S
C2056 C2055 1.422 . S
C2056 C2080 1.417 . S
C2057 H2034 0.931 . S
C2057 N2053 1.343 . S
C2057 C2058 1.390 . S
C2058 H2036 0.930 . S
C2058 C2055 1.321 . S
C2058 C2057 1.390 . S
O2059 Gd2027 2.386 . S
O2059 C2071 1.265 . S
O2060 Gd2026 2.353 . S
O2060 C2071 1.242 . S
O2061 Gd2026 2.468 . S
O2061 C2079 1.263 . S
O2062 Gd2026 2.427 . S
O2062 C2079 1.252 . S
O2063 Gd2027 2.307 . S
O2063 C2072 1.261 . S
O2064 Gd2026 2.388 . S
O2064 C2072 1.252 . S
O2065 Gd2026 2.386 . S
O2065 C2083 1.265 . S
O2066 Gd2027 2.353 . S
O2066 C2083 1.242 . S
O2067 Gd2027 2.468 . S
O2067 C2091 1.263 1_545 S
O2068 Gd2027 2.427 1_565 S
O2068 C2091 1.252 . S
O2069 Gd2026 2.307 . S
O2069 C2084 1.261 . S
O2070 Gd2027 2.388 . S
O2070 C2084 1.252 . S
C2071 O2059 1.265 . S
C2071 O2060 1.242 . S
C2072 O2063 1.261 . S
C2072 O2064 1.252 . S
C2073 C2076 1.394 . S
C2073 C2078 1.370 . S
C2073 C2079 1.500 . S
C2074 C2077 1.383 . S
C2074 C2078 1.395 . S
C2075 C2076 1.396 . S
C2075 C2077 1.365 . S
C2075 H2092 0.929 . S
C2076 C2073 1.394 . S
C2076 C2075 1.396 . S
C2076 H2093 0.930 . S
C2077 C2074 1.383 . S
C2077 C2075 1.365 . S
C2077 H2094 0.931 . S
C2078 C2073 1.370 . S
C2078 C2074 1.395 . S
C2078 H2095 0.930 . S
C2079 Gd2026 2.805 . S
C2079 O2061 1.263 . S
C2079 O2062 1.252 . S
C2079 C2073 1.500 . S
C2080 H2042 0.930 . S
C2080 C2056 1.417 . S
C2080 C2081 1.329 . S
C2081 C2051 1.437 . S
C2081 H2052 0.929 . S
C2081 C2080 1.329 . S
H2082 C2055 0.931 . S
C2083 O2065 1.265 . S
C2083 O2066 1.242 . S
C2084 O2069 1.261 . S
C2084 O2070 1.252 . S
C2085 C2088 1.394 . S
C2085 C2090 1.370 . S
C2085 C2091 1.500 . S
C2086 C2089 1.383 . S
C2086 C2090 1.395 . S
C2087 C2088 1.396 . S
C2087 C2089 1.365 . S
C2087 H2096 0.929 . S
C2088 C2085 1.394 . S
C2088 C2087 1.396 . S
C2088 H2097 0.930 . S
C2089 C2086 1.383 . S
C2089 C2087 1.365 . S
C2089 H2098 0.931 . S
C2090 C2085 1.370 . S
C2090 C2086 1.395 . S
C2090 H2099 0.930 1_565 S
C2091 Gd2027 2.805 1_565 S
C2091 O2067 1.263 1_565 S
C2091 O2068 1.252 . S
C2091 C2085 1.500 . S
H2092 C2075 0.929 . S
H2093 C2076 0.930 . S
H2094 C2077 0.931 . S
H2095 C2078 0.930 . S
H2096 C2087 0.929 . S
H2097 C2088 0.930 . S
H2098 C2089 0.931 . S
H2099 C2090 0.930 1_545 S
C2100 C2102 1.422 . S
C2100 C2104 1.415 . S
C2100 N2106 1.369 . S
C2101 C2102 1.421 . S
C2101 C2103 1.417 . S
C2101 C2113 1.422 . S
C2102 C2100 1.422 . S
C2102 C2101 1.421 . S
C2102 N2112 1.359 . S
C2103 C2101 1.417 . S
C2103 C2105 1.329 . S
C2103 H2122 0.930 . S
C2104 C2100 1.415 . S
C2104 C2105 1.437 . S
C2104 C2108 1.413 . S
C2105 C2103 1.329 . S
C2105 C2104 1.437 . S
C2105 H2127 0.929 . S
N2106 C2100 1.369 . S
N2106 C2107 1.338 . S
N2106 Gd2111 2.622 . S
C2107 N2106 1.338 . S
C2107 C2109 1.378 . S
C2107 H2119 0.929 . S
C2108 C2104 1.413 . S
C2108 C2109 1.348 . S
C2108 H2124 0.931 . S
C2109 C2107 1.378 . S
C2109 C2108 1.348 . S
C2109 H2125 0.930 . S
Gd2110 N2130 2.622 . S
Gd2110 N2137 2.570 . S
Gd2110 O2144 2.353 . S
Gd2110 O2145 2.468 . S
Gd2110 O2146 2.427 . S
Gd2110 O2148 2.388 . S
Gd2110 O2149 2.386 . S
Gd2110 O2153 2.307 . S
Gd2110 C2163 2.805 . S
Gd2111 N2106 2.622 . S
Gd2111 N2112 2.570 . S
Gd2111 O2143 2.386 . S
Gd2111 O2147 2.307 . S
Gd2111 O2150 2.353 . S
Gd2111 O2151 2.468 . S
Gd2111 O2152 2.427 . S
Gd2111 O2154 2.388 . S
Gd2111 C2175 2.805 . S
N2112 C2102 1.359 . S
N2112 Gd2111 2.570 . S
N2112 C2114 1.343 . S
C2113 C2101 1.422 . S
C2113 C2115 1.321 . S
C2113 H2121 0.931 . S
C2114 N2112 1.343 . S
C2114 C2115 1.390 . S
C2114 H2116 0.931 . S
C2115 C2113 1.321 . S
C2115 C2114 1.390 . S
C2115 H2117 0.930 . S
H2116 C2114 0.931 . S
H2117 C2115 0.930 . S
H2118 C2141 0.931 . S
H2119 C2107 0.929 . S
H2120 C2142 0.930 . S
H2121 C2113 0.931 . S
H2122 C2103 0.930 . S
H2123 C2132 0.929 . S
H2124 C2108 0.931 . S
H2125 C2109 0.930 . S
H2126 C2164 0.930 . S
H2127 C2105 0.929 . S
H2128 C2133 0.931 . S
H2129 C2134 0.930 . S
N2130 Gd2110 2.622 . S
N2130 C2131 1.369 . S
N2130 C2132 1.338 . S
C2131 N2130 1.369 . S
C2131 C2135 1.415 . S
C2131 C2138 1.422 . S
C2132 H2123 0.929 . S
C2132 N2130 1.338 . S
C2132 C2134 1.378 . S
C2133 H2128 0.931 . S
C2133 C2134 1.348 . S
C2133 C2135 1.413 . S
C2134 H2129 0.930 . S
C2134 C2132 1.378 . S
C2134 C2133 1.348 . S
C2135 C2131 1.415 . S
C2135 C2133 1.413 . S
C2135 C2165 1.437 . S
H2136 C2165 0.929 . S
N2137 Gd2110 2.570 . S
N2137 C2138 1.359 . S
N2137 C2141 1.343 . S
C2138 C2131 1.422 . S
C2138 N2137 1.359 . S
C2138 C2140 1.421 . S
C2139 C2140 1.422 . S
C2139 C2142 1.321 . S
C2139 H2166 0.931 . S
C2140 C2138 1.421 . S
C2140 C2139 1.422 . S
C2140 C2164 1.417 . S
C2141 H2118 0.931 . S
C2141 N2137 1.343 . S
C2141 C2142 1.390 . S
C2142 H2120 0.930 . S
C2142 C2139 1.321 . S
C2142 C2141 1.390 . S
O2143 Gd2111 2.386 . S
O2143 C2155 1.265 . S
O2144 Gd2110 2.353 . S
O2144 C2155 1.242 . S
O2145 Gd2110 2.468 . S
O2145 C2163 1.263 . S
O2146 Gd2110 2.427 . S
O2146 C2163 1.252 . S
O2147 Gd2111 2.307 . S
O2147 C2156 1.261 . S
O2148 Gd2110 2.388 . S
O2148 C2156 1.252 . S
O2149 Gd2110 2.386 . S
O2149 C2167 1.265 . S
O2150 Gd2111 2.353 . S
O2150 C2167 1.242 . S
O2151 Gd2111 2.468 . S
O2151 C2175 1.263 . S
O2152 Gd2111 2.427 . S
O2152 C2175 1.252 . S
O2153 Gd2110 2.307 . S
O2153 C2168 1.261 . S
O2154 Gd2111 2.388 . S
O2154 C2168 1.252 . S
C2155 O2143 1.265 . S
C2155 O2144 1.242 . S
C2156 O2147 1.261 . S
C2156 O2148 1.252 . S
C2157 C2160 1.394 . S
C2157 C2162 1.370 . S
C2157 C2163 1.500 . S
C2158 C2161 1.383 . S
C2158 C2162 1.395 . S
C2159 C2160 1.396 . S
C2159 C2161 1.365 . S
C2159 H2176 0.929 . S
C2160 C2157 1.394 . S
C2160 C2159 1.396 . S
C2160 H2177 0.930 . S
C2161 C2158 1.383 . S
C2161 C2159 1.365 . S
C2161 H2178 0.931 . S
C2162 C2157 1.370 . S
C2162 C2158 1.395 . S
C2162 H2179 0.930 . S
C2163 Gd2110 2.805 . S
C2163 O2145 1.263 . S
C2163 O2146 1.252 . S
C2163 C2157 1.500 . S
C2164 H2126 0.930 . S
C2164 C2140 1.417 . S
C2164 C2165 1.329 . S
C2165 C2135 1.437 . S
C2165 H2136 0.929 . S
C2165 C2164 1.329 . S
H2166 C2139 0.931 . S
C2167 O2149 1.265 . S
C2167 O2150 1.242 . S
C2168 O2153 1.261 . S
C2168 O2154 1.252 . S
C2169 C2172 1.394 . S
C2169 C2174 1.370 . S
C2169 C2175 1.500 . S
C2170 C2173 1.383 . S
C2170 C2174 1.395 . S
C2171 C2172 1.396 . S
C2171 C2173 1.365 . S
C2171 H2180 0.929 . S
C2172 C2169 1.394 . S
C2172 C2171 1.396 . S
C2172 H2181 0.930 . S
C2173 C2170 1.383 . S
C2173 C2171 1.365 . S
C2173 H2182 0.931 . S
C2174 C2169 1.370 . S
C2174 C2170 1.395 . S
C2174 H2183 0.930 . S
C2175 Gd2111 2.805 . S
C2175 O2151 1.263 . S
C2175 O2152 1.252 . S
C2175 C2169 1.500 . S
H2176 C2159 0.929 . S
H2177 C2160 0.930 . S
H2178 C2161 0.931 . S
H2179 C2162 0.930 . S
H2180 C2171 0.929 . S
H2181 C2172 0.930 . S
H2182 C2173 0.931 . S
H2183 C2174 0.930 . S
C2184 C2186 1.422 . S
C2184 C2188 1.415 . S
C2184 N2190 1.369 . S
C2185 C2186 1.421 . S
C2185 C2187 1.417 . S
C2185 C2197 1.422 . S
C2186 C2184 1.422 . S
C2186 C2185 1.421 . S
C2186 N2196 1.359 . S
C2187 C2185 1.417 . S
C2187 C2189 1.329 . S
C2187 H2206 0.930 . S
C2188 C2184 1.415 . S
C2188 C2189 1.437 . S
C2188 C2192 1.413 . S
C2189 C2187 1.329 . S
C2189 C2188 1.437 . S
C2189 H2211 0.929 . S
N2190 C2184 1.369 . S
N2190 C2191 1.338 1_545 S
N2190 Gd2195 2.622 1_545 S
C2191 N2190 1.338 1_565 S
C2191 C2193 1.378 . S
C2191 H2203 0.929 . S
C2192 C2188 1.413 . S
C2192 C2193 1.348 1_545 S
C2192 H2208 0.931 . S
C2193 C2191 1.378 . S
C2193 C2192 1.348 1_565 S
C2193 H2209 0.930 . S
Gd2194 N2214 2.622 . S
Gd2194 N2221 2.570 . S
Gd2194 O2228 2.353 . S
Gd2194 O2229 2.468 . S
Gd2194 O2230 2.427 . S
Gd2194 O2232 2.388 . S
Gd2194 O2233 2.386 . S
Gd2194 O2237 2.307 . S
Gd2194 C2247 2.805 . S
Gd2195 N2190 2.622 1_565 S
Gd2195 N2196 2.570 1_565 S
Gd2195 O2227 2.386 . S
Gd2195 O2231 2.307 . S
Gd2195 O2234 2.353 . S
Gd2195 O2235 2.468 1_565 S
Gd2195 O2236 2.427 . S
Gd2195 O2238 2.388 . S
Gd2195 C2259 2.805 1_565 S
N2196 C2186 1.359 . S
N2196 Gd2195 2.570 1_545 S
N2196 C2198 1.343 . S
C2197 C2185 1.422 . S
C2197 C2199 1.321 . S
C2197 H2205 0.931 . S
C2198 N2196 1.343 . S
C2198 C2199 1.390 . S
C2198 H2200 0.931 . S
C2199 C2197 1.321 . S
C2199 C2198 1.390 . S
C2199 H2201 0.930 . S
H2200 C2198 0.931 . S
H2201 C2199 0.930 . S
H2202 C2225 0.931 . S
H2203 C2191 0.929 . S
H2204 C2226 0.930 . S
H2205 C2197 0.931 . S
H2206 C2187 0.930 . S
H2207 C2216 0.927 1_455 S
H2208 C2192 0.931 . S
H2209 C2193 0.930 . S
H2210 C2248 0.930 . S
H2211 C2189 0.929 . S
H2212 C2217 0.931 . S
H2213 C2218 0.930 . S
N2214 Gd2194 2.622 . S
N2214 C2215 1.369 . S
N2214 C2216 1.321 1_455 S
C2215 N2214 1.369 . S
C2215 C2219 1.415 1_455 S
C2215 C2222 1.422 . S
C2216 H2207 0.927 1_655 S
C2216 N2214 1.321 1_655 S
C2216 C2218 1.398 . S
C2217 H2212 0.931 . S
C2217 C2218 1.348 . S
C2217 C2219 1.413 . S
C2218 H2213 0.930 . S
C2218 C2216 1.398 . S
C2218 C2217 1.348 . S
C2219 C2215 1.415 1_655 S
C2219 C2217 1.413 . S
C2219 C2249 1.437 . S
H2220 C2249 0.929 . S
N2221 Gd2194 2.570 . S
N2221 C2222 1.359 . S
N2221 C2225 1.343 . S
C2222 C2215 1.422 . S
C2222 N2221 1.359 . S
C2222 C2224 1.421 . S
C2223 C2224 1.422 . S
C2223 C2226 1.321 . S
C2223 H2250 0.931 . S
C2224 C2222 1.421 . S
C2224 C2223 1.422 . S
C2224 C2248 1.417 . S
C2225 H2202 0.931 . S
C2225 N2221 1.343 . S
C2225 C2226 1.390 . S
C2226 H2204 0.930 . S
C2226 C2223 1.321 . S
C2226 C2225 1.390 . S
O2227 Gd2195 2.386 . S
O2227 C2239 1.265 . S
O2228 Gd2194 2.353 . S
O2228 C2239 1.242 . S
O2229 Gd2194 2.468 . S
O2229 C2247 1.263 . S
O2230 Gd2194 2.427 . S
O2230 C2247 1.252 . S
O2231 Gd2195 2.307 . S
O2231 C2240 1.261 . S
O2232 Gd2194 2.388 . S
O2232 C2240 1.252 . S
O2233 Gd2194 2.386 . S
O2233 C2251 1.265 . S
O2234 Gd2195 2.353 . S
O2234 C2251 1.242 . S
O2235 Gd2195 2.468 1_545 S
O2235 C2259 1.263 . S
O2236 Gd2195 2.427 . S
O2236 C2259 1.252 1_565 S
O2237 Gd2194 2.307 . S
O2237 C2252 1.261 . S
O2238 Gd2195 2.388 . S
O2238 C2252 1.252 . S
C2239 O2227 1.265 . S
C2239 O2228 1.242 . S
C2240 O2231 1.261 . S
C2240 O2232 1.252 . S
C2241 C2244 1.394 1_554 S
C2241 C2246 1.370 1_554 S
C2241 C2247 1.500 . S
C2242 C2245 1.383 . S
C2242 C2246 1.395 . S
C2243 C2244 1.396 . S
C2243 C2245 1.365 . S
C2243 H2260 0.929 . S
C2244 C2241 1.394 1_556 S
C2244 C2243 1.396 . S
C2244 H2261 0.930 1_556 S
C2245 C2242 1.383 . S
C2245 C2243 1.365 . S
C2245 H2262 0.931 . S
C2246 C2241 1.370 1_556 S
C2246 C2242 1.395 . S
C2246 H2263 0.933 . S
C2247 Gd2194 2.805 . S
C2247 O2229 1.263 . S
C2247 O2230 1.252 . S
C2247 C2241 1.500 . S
C2248 H2210 0.930 . S
C2248 C2224 1.417 . S
C2248 C2249 1.329 1_455 S
C2249 C2219 1.437 . S
C2249 H2220 0.929 . S
C2249 C2248 1.329 1_655 S
H2250 C2223 0.931 . S
C2251 O2233 1.265 . S
C2251 O2234 1.242 . S
C2252 O2237 1.261 . S
C2252 O2238 1.252 . S
C2253 C2256 1.394 . S
C2253 C2258 1.370 . S
C2253 C2259 1.500 . S
C2254 C2257 1.383 . S
C2254 C2258 1.395 . S
C2255 C2256 1.396 . S
C2255 C2257 1.365 . S
C2255 H2264 0.929 . S
C2256 C2253 1.394 . S
C2256 C2255 1.396 . S
C2256 H2265 0.930 1_545 S
C2257 C2254 1.383 . S
C2257 C2255 1.365 . S
C2257 H2266 0.931 . S
C2258 C2253 1.370 . S
C2258 C2254 1.395 . S
C2258 H2267 0.930 . S
C2259 Gd2195 2.805 1_545 S
C2259 O2235 1.263 . S
C2259 O2236 1.252 1_545 S
C2259 C2253 1.500 . S
H2260 C2243 0.929 . S
H2261 C2244 0.930 1_554 S
H2262 C2245 0.931 . S
H2263 C2246 0.933 . S
H2264 C2255 0.929 . S
H2265 C2256 0.930 1_565 S
H2266 C2257 0.931 . S
H2267 C2258 0.930 . S
C2268 C2270 1.422 . S
C2268 C2272 1.415 . S
C2268 N2274 1.369 . S
C2269 C2270 1.421 . S
C2269 C2271 1.417 . S
C2269 C2281 1.422 . S
C2270 C2268 1.422 . S
C2270 C2269 1.421 . S
C2270 N2280 1.359 . S
C2271 C2269 1.417 . S
C2271 C2273 1.329 . S
C2271 H2290 0.930 . S
C2272 C2268 1.415 . S
C2272 C2273 1.437 . S
C2272 C2276 1.413 . S
C2273 C2271 1.329 . S
C2273 C2272 1.437 . S
C2273 H2295 0.929 . S
N2274 C2268 1.369 . S
N2274 C2275 1.338 . S
N2274 Gd2279 2.622 . S
C2275 N2274 1.338 . S
C2275 C2277 1.378 . S
C2275 H2287 0.929 . S
C2276 C2272 1.413 . S
C2276 C2277 1.348 . S
C2276 H2292 0.931 . S
C2277 C2275 1.378 . S
C2277 C2276 1.348 . S
C2277 H2293 0.930 . S
Gd2278 N2298 2.622 . S
Gd2278 N2305 2.570 . S
Gd2278 O2312 2.353 . S
Gd2278 O2313 2.468 . S
Gd2278 O2314 2.427 . S
Gd2278 O2316 2.388 . S
Gd2278 O2317 2.386 . S
Gd2278 O2321 2.307 . S
Gd2278 C2331 2.805 . S
Gd2279 N2274 2.622 . S
Gd2279 N2280 2.570 . S
Gd2279 O2311 2.386 . S
Gd2279 O2315 2.307 . S
Gd2279 O2318 2.353 . S
Gd2279 O2319 2.468 . S
Gd2279 O2320 2.427 . S
Gd2279 O2322 2.388 . S
Gd2279 C2343 2.805 . S
N2280 C2270 1.359 . S
N2280 Gd2279 2.570 . S
N2280 C2282 1.343 . S
C2281 C2269 1.422 . S
C2281 C2283 1.321 . S
C2281 H2289 0.931 . S
C2282 N2280 1.343 . S
C2282 C2283 1.390 . S
C2282 H2284 0.931 . S
C2283 C2281 1.321 . S
C2283 C2282 1.390 . S
C2283 H2285 0.930 . S
H2284 C2282 0.931 . S
H2285 C2283 0.930 . S
H2286 C2309 0.931 . S
H2287 C2275 0.929 . S
H2288 C2310 0.930 . S
H2289 C2281 0.931 . S
H2290 C2271 0.930 . S
H2291 C2300 0.929 . S
H2292 C2276 0.931 . S
H2293 C2277 0.930 . S
H2294 C2332 0.930 . S
H2295 C2273 0.929 . S
H2296 C2301 0.931 . S
H2297 C2302 0.930 . S
N2298 Gd2278 2.622 . S
N2298 C2299 1.369 . S
N2298 C2300 1.338 . S
C2299 N2298 1.369 . S
C2299 C2303 1.415 . S
C2299 C2306 1.422 . S
C2300 H2291 0.929 . S
C2300 N2298 1.338 . S
C2300 C2302 1.378 . S
C2301 H2296 0.931 . S
C2301 C2302 1.348 . S
C2301 C2303 1.413 . S
C2302 H2297 0.930 . S
C2302 C2300 1.378 . S
C2302 C2301 1.348 . S
C2303 C2299 1.415 . S
C2303 C2301 1.413 . S
C2303 C2333 1.437 . S
H2304 C2333 0.929 . S
N2305 Gd2278 2.570 . S
N2305 C2306 1.359 . S
N2305 C2309 1.343 . S
C2306 C2299 1.422 . S
C2306 N2305 1.359 . S
C2306 C2308 1.421 . S
C2307 C2308 1.422 . S
C2307 C2310 1.321 . S
C2307 H2334 0.931 . S
C2308 C2306 1.421 . S
C2308 C2307 1.422 . S
C2308 C2332 1.417 . S
C2309 H2286 0.931 . S
C2309 N2305 1.343 . S
C2309 C2310 1.390 . S
C2310 H2288 0.930 . S
C2310 C2307 1.321 . S
C2310 C2309 1.390 . S
O2311 Gd2279 2.386 . S
O2311 C2323 1.265 . S
O2312 Gd2278 2.353 . S
O2312 C2323 1.242 . S
O2313 Gd2278 2.468 . S
O2313 C2331 1.263 . S
O2314 Gd2278 2.427 . S
O2314 C2331 1.252 . S
O2315 Gd2279 2.307 . S
O2315 C2324 1.261 . S
O2316 Gd2278 2.388 . S
O2316 C2324 1.252 . S
O2317 Gd2278 2.386 . S
O2317 C2335 1.265 . S
O2318 Gd2279 2.353 . S
O2318 C2335 1.242 . S
O2319 Gd2279 2.468 . S
O2319 C2343 1.263 . S
O2320 Gd2279 2.427 . S
O2320 C2343 1.252 . S
O2321 Gd2278 2.307 . S
O2321 C2336 1.261 . S
O2322 Gd2279 2.388 . S
O2322 C2336 1.252 . S
C2323 O2311 1.265 . S
C2323 O2312 1.242 . S
C2324 O2315 1.261 . S
C2324 O2316 1.252 . S
C2325 C2328 1.394 . S
C2325 C2330 1.370 . S
C2325 C2331 1.500 . S
C2326 C2329 1.383 . S
C2326 C2330 1.395 . S
C2327 C2328 1.396 . S
C2327 C2329 1.365 . S
C2327 H2344 0.929 . S
C2328 C2325 1.394 . S
C2328 C2327 1.396 . S
C2328 H2345 0.930 . S
C2329 C2326 1.383 . S
C2329 C2327 1.365 . S
C2329 H2346 0.931 . S
C2330 C2325 1.370 . S
C2330 C2326 1.395 . S
C2330 H2347 0.930 . S
C2331 Gd2278 2.805 . S
C2331 O2313 1.263 . S
C2331 O2314 1.252 . S
C2331 C2325 1.500 . S
C2332 H2294 0.930 . S
C2332 C2308 1.417 . S
C2332 C2333 1.329 . S
C2333 C2303 1.437 . S
C2333 H2304 0.929 . S
C2333 C2332 1.329 . S
H2334 C2307 0.931 . S
C2335 O2317 1.265 . S
C2335 O2318 1.242 . S
C2336 O2321 1.261 . S
C2336 O2322 1.252 . S
C2337 C2340 1.394 . S
C2337 C2342 1.370 . S
C2337 C2343 1.500 1_554 S
C2338 C2341 1.383 . S
C2338 C2342 1.395 . S
C2339 C2340 1.396 . S
C2339 C2341 1.365 . S
C2339 H2348 0.929 . S
C2340 C2337 1.394 . S
C2340 C2339 1.396 . S
C2340 H2349 0.930 . S
C2341 C2338 1.383 . S
C2341 C2339 1.365 . S
C2341 H2350 0.931 . S
C2342 C2337 1.370 . S
C2342 C2338 1.395 . S
C2342 H2351 0.930 . S
C2343 Gd2279 2.805 . S
C2343 O2319 1.263 . S
C2343 O2320 1.252 . S
C2343 C2337 1.500 1_556 S
H2344 C2327 0.929 . S
H2345 C2328 0.930 . S
H2346 C2329 0.931 . S
H2347 C2330 0.930 . S
H2348 C2339 0.929 . S
H2349 C2340 0.930 . S
H2350 C2341 0.931 . S
H2351 C2342 0.930 . S
C2352 C2354 1.422 . S
C2352 C2356 1.415 . S
C2352 N2358 1.369 . S
C2353 C2354 1.421 . S
C2353 C2355 1.417 . S
C2353 C2365 1.422 . S
C2354 C2352 1.422 . S
C2354 C2353 1.421 . S
C2354 N2364 1.359 1_545 S
C2355 C2353 1.417 . S
C2355 C2357 1.329 . S
C2355 H2374 0.930 . S
C2356 C2352 1.415 . S
C2356 C2357 1.437 . S
C2356 C2360 1.413 . S
C2357 C2355 1.329 . S
C2357 C2356 1.437 . S
C2357 H2379 0.929 1_554 S
N2358 C2352 1.369 . S
N2358 C2359 1.338 . S
N2358 Gd2363 2.622 1_545 S
C2359 N2358 1.338 . S
C2359 C2361 1.378 . S
C2359 H2371 0.929 . S
C2360 C2356 1.413 . S
C2360 C2361 1.348 . S
C2360 H2376 0.931 . S
C2361 C2359 1.378 . S
C2361 C2360 1.348 . S
C2361 H2377 0.930 . S
Gd2362 N2382 2.622 . S
Gd2362 N2389 2.570 . S
Gd2362 O2396 2.353 . S
Gd2362 O2397 2.468 . S
Gd2362 O2398 2.427 . S
Gd2362 O2400 2.388 . S
Gd2362 O2401 2.386 . S
Gd2362 O2405 2.307 . S
Gd2362 C2415 2.805 1_554 S
Gd2363 N2358 2.622 1_565 S
Gd2363 N2364 2.570 . S
Gd2363 O2395 2.386 . S
Gd2363 O2399 2.307 . S
Gd2363 O2402 2.353 . S
Gd2363 O2403 2.468 . S
Gd2363 O2404 2.427 . S
Gd2363 O2406 2.388 . S
Gd2363 C2427 2.805 . S
N2364 C2354 1.359 1_565 S
N2364 Gd2363 2.570 . S
N2364 C2366 1.343 . S
C2365 C2353 1.422 . S
C2365 C2367 1.321 1_545 S
C2365 H2373 0.931 . S
C2366 N2364 1.343 . S
C2366 C2367 1.390 . S
C2366 H2368 0.931 . S
C2367 C2365 1.321 1_565 S
C2367 C2366 1.390 . S
C2367 H2369 0.930 . S
H2368 C2366 0.931 . S
H2369 C2367 0.930 . S
H2370 C2393 0.931 . S
H2371 C2359 0.929 . S
H2372 C2394 0.930 . S
H2373 C2365 0.931 . S
H2374 C2355 0.930 . S
H2375 C2384 0.929 . S
H2376 C2360 0.931 . S
H2377 C2361 0.930 . S
H2378 C2416 0.930 . S
H2379 C2357 0.929 1_556 S
H2380 C2385 0.931 . S
H2381 C2386 0.930 . S
N2382 Gd2362 2.622 . S
N2382 C2383 1.369 . S
N2382 C2384 1.338 . S
C2383 N2382 1.369 . S
C2383 C2387 1.415 . S
C2383 C2390 1.422 . S
C2384 H2375 0.929 . S
C2384 N2382 1.338 . S
C2384 C2386 1.378 . S
C2385 H2380 0.931 . S
C2385 C2386 1.348 . S
C2385 C2387 1.413 . S
C2386 H2381 0.930 . S
C2386 C2384 1.378 . S
C2386 C2385 1.348 . S
C2387 C2383 1.415 . S
C2387 C2385 1.413 . S
C2387 C2417 1.437 . S
H2388 C2417 0.929 . S
N2389 Gd2362 2.570 . S
N2389 C2390 1.359 . S
N2389 C2393 1.343 . S
C2390 C2383 1.422 . S
C2390 N2389 1.359 . S
C2390 C2392 1.421 . S
C2391 C2392 1.422 . S
C2391 C2394 1.321 . S
C2391 H2418 0.931 . S
C2392 C2390 1.421 . S
C2392 C2391 1.422 . S
C2392 C2416 1.417 . S
C2393 H2370 0.931 . S
C2393 N2389 1.343 . S
C2393 C2394 1.390 . S
C2394 H2372 0.930 . S
C2394 C2391 1.321 . S
C2394 C2393 1.390 . S
O2395 Gd2363 2.386 . S
O2395 C2407 1.265 . S
O2396 Gd2362 2.353 . S
O2396 C2407 1.242 . S
O2397 Gd2362 2.468 . S
O2397 C2415 1.263 1_554 S
O2398 Gd2362 2.427 . S
O2398 C2415 1.252 1_554 S
O2399 Gd2363 2.307 . S
O2399 C2408 1.261 . S
O2400 Gd2362 2.388 . S
O2400 C2408 1.252 . S
O2401 Gd2362 2.386 . S
O2401 C2419 1.265 . S
O2402 Gd2363 2.353 . S
O2402 C2419 1.242 . S
O2403 Gd2363 2.468 . S
O2403 C2427 1.263 . S
O2404 Gd2363 2.427 . S
O2404 C2427 1.252 . S
O2405 Gd2362 2.307 . S
O2405 C2420 1.261 . S
O2406 Gd2363 2.388 . S
O2406 C2420 1.252 . S
C2407 O2395 1.265 . S
C2407 O2396 1.242 . S
C2408 O2399 1.261 . S
C2408 O2400 1.252 . S
C2409 C2412 1.394 . S
C2409 C2414 1.370 . S
C2409 C2415 1.500 . S
C2410 C2413 1.383 . S
C2410 C2414 1.395 . S
C2411 C2412 1.396 . S
C2411 C2413 1.365 . S
C2411 H2428 0.929 . S
C2412 C2409 1.394 . S
C2412 C2411 1.396 . S
C2412 H2429 0.930 . S
C2413 C2410 1.383 . S
C2413 C2411 1.365 . S
C2413 H2430 0.931 . S
C2414 C2409 1.370 . S
C2414 C2410 1.395 . S
C2414 H2431 0.930 . S
C2415 Gd2362 2.805 1_556 S
C2415 O2397 1.263 1_556 S
C2415 O2398 1.252 1_556 S
C2415 C2409 1.500 . S
C2416 H2378 0.930 . S
C2416 C2392 1.417 . S
C2416 C2417 1.329 . S
C2417 C2387 1.437 . S
C2417 H2388 0.929 . S
C2417 C2416 1.329 . S
H2418 C2391 0.931 . S
C2419 O2401 1.265 . S
C2419 O2402 1.242 . S
C2420 O2405 1.261 . S
C2420 O2406 1.252 . S
C2421 C2424 1.394 1_565 S
C2421 C2426 1.370 . S
C2421 C2427 1.500 . S
C2422 C2425 1.383 1_565 S
C2422 C2426 1.395 . S
C2423 C2424 1.396 . S
C2423 C2425 1.365 . S
C2423 H2432 0.929 . S
C2424 C2421 1.394 1_545 S
C2424 C2423 1.396 . S
C2424 H2433 0.930 . S
C2425 C2422 1.383 1_545 S
C2425 C2423 1.365 . S
C2425 H2434 0.931 . S
C2426 C2421 1.370 . S
C2426 C2422 1.395 . S
C2426 H2435 0.930 . S
C2427 Gd2363 2.805 . S
C2427 O2403 1.263 . S
C2427 O2404 1.252 . S
C2427 C2421 1.500 . S
H2428 C2411 0.929 . S
H2429 C2412 0.930 . S
H2430 C2413 0.931 . S
H2431 C2414 0.930 . S
H2432 C2423 0.929 . S
H2433 C2424 0.930 . S
H2434 C2425 0.931 . S
H2435 C2426 0.930 . S
C2436 C2438 1.422 . S
C2436 C2440 1.415 . S
C2436 N2442 1.369 . S
C2437 C2438 1.421 . S
C2437 C2439 1.417 . S
C2437 C2449 1.422 . S
C2438 C2436 1.422 . S
C2438 C2437 1.421 . S
C2438 N2448 1.359 . S
C2439 C2437 1.417 . S
C2439 C2441 1.329 . S
C2439 H2458 0.930 . S
C2440 C2436 1.415 . S
C2440 C2441 1.437 . S
C2440 C2444 1.413 . S
C2441 C2439 1.329 . S
C2441 C2440 1.437 . S
C2441 H2463 0.929 . S
N2442 C2436 1.369 . S
N2442 C2443 1.338 . S
N2442 Gd2447 2.622 . S
C2443 N2442 1.338 . S
C2443 C2445 1.378 . S
C2443 H2455 0.929 . S
C2444 C2440 1.413 . S
C2444 C2445 1.348 . S
C2444 H2460 0.931 . S
C2445 C2443 1.378 . S
C2445 C2444 1.348 . S
C2445 H2461 0.930 . S
Gd2446 N2466 2.622 . S
Gd2446 N2473 2.570 . S
Gd2446 O2480 2.353 . S
Gd2446 O2481 2.468 . S
Gd2446 O2482 2.427 . S
Gd2446 O2484 2.388 . S
Gd2446 O2485 2.386 . S
Gd2446 O2489 2.307 . S
Gd2446 C2499 2.805 . S
Gd2447 N2442 2.622 . S
Gd2447 N2448 2.570 . S
Gd2447 O2479 2.386 . S
Gd2447 O2483 2.307 . S
Gd2447 O2486 2.353 . S
Gd2447 O2487 2.468 . S
Gd2447 O2488 2.427 . S
Gd2447 O2490 2.388 . S
Gd2447 C2511 2.805 . S
N2448 C2438 1.359 . S
N2448 Gd2447 2.570 . S
N2448 C2450 1.343 . S
C2449 C2437 1.422 . S
C2449 C2451 1.321 . S
C2449 H2457 0.931 . S
C2450 N2448 1.343 . S
C2450 C2451 1.390 . S
C2450 H2452 0.931 . S
C2451 C2449 1.321 . S
C2451 C2450 1.390 . S
C2451 H2453 0.930 . S
H2452 C2450 0.931 . S
H2453 C2451 0.930 . S
H2454 C2477 0.931 . S
H2455 C2443 0.929 . S
H2456 C2478 0.930 . S
H2457 C2449 0.931 . S
H2458 C2439 0.930 . S
H2459 C2468 0.929 . S
H2460 C2444 0.931 . S
H2461 C2445 0.930 . S
H2462 C2500 0.930 . S
H2463 C2441 0.929 . S
H2464 C2469 0.931 . S
H2465 C2470 0.930 . S
N2466 Gd2446 2.622 . S
N2466 C2467 1.369 . S
N2466 C2468 1.338 . S
C2467 N2466 1.369 . S
C2467 C2471 1.415 . S
C2467 C2474 1.422 . S
C2468 H2459 0.929 . S
C2468 N2466 1.338 . S
C2468 C2470 1.378 . S
C2469 H2464 0.931 . S
C2469 C2470 1.348 . S
C2469 C2471 1.413 . S
C2470 H2465 0.930 . S
C2470 C2468 1.378 . S
C2470 C2469 1.348 . S
C2471 C2467 1.415 . S
C2471 C2469 1.413 . S
C2471 C2501 1.437 . S
H2472 C2501 0.929 . S
N2473 Gd2446 2.570 . S
N2473 C2474 1.359 . S
N2473 C2477 1.343 . S
C2474 C2467 1.422 . S
C2474 N2473 1.359 . S
C2474 C2476 1.421 . S
C2475 C2476 1.422 . S
C2475 C2478 1.321 . S
C2475 H2502 0.931 . S
C2476 C2474 1.421 . S
C2476 C2475 1.422 . S
C2476 C2500 1.417 . S
C2477 H2454 0.931 . S
C2477 N2473 1.343 . S
C2477 C2478 1.390 . S
C2478 H2456 0.930 . S
C2478 C2475 1.321 . S
C2478 C2477 1.390 . S
O2479 Gd2447 2.386 . S
O2479 C2491 1.265 . S
O2480 Gd2446 2.353 . S
O2480 C2491 1.242 . S
O2481 Gd2446 2.468 . S
O2481 C2499 1.263 . S
O2482 Gd2446 2.427 . S
O2482 C2499 1.252 . S
O2483 Gd2447 2.307 . S
O2483 C2492 1.261 . S
O2484 Gd2446 2.388 . S
O2484 C2492 1.252 . S
O2485 Gd2446 2.386 . S
O2485 C2503 1.265 . S
O2486 Gd2447 2.353 . S
O2486 C2503 1.242 . S
O2487 Gd2447 2.468 . S
O2487 C2511 1.263 . S
O2488 Gd2447 2.427 . S
O2488 C2511 1.252 . S
O2489 Gd2446 2.307 . S
O2489 C2504 1.261 . S
O2490 Gd2447 2.388 . S
O2490 C2504 1.252 . S
C2491 O2479 1.265 . S
C2491 O2480 1.242 . S
C2492 O2483 1.261 . S
C2492 O2484 1.252 . S
C2493 C2496 1.394 . S
C2493 C2498 1.370 . S
C2493 C2499 1.500 1_554 S
C2494 C2497 1.383 . S
C2494 C2498 1.395 . S
C2495 C2496 1.396 . S
C2495 C2497 1.365 . S
C2495 H2512 0.929 . S
C2496 C2493 1.394 . S
C2496 C2495 1.396 . S
C2496 H2513 0.930 . S
C2497 C2494 1.383 . S
C2497 C2495 1.365 . S
C2497 H2514 0.931 . S
C2498 C2493 1.370 . S
C2498 C2494 1.395 . S
C2498 H2515 0.930 . S
C2499 Gd2446 2.805 . S
C2499 O2481 1.263 . S
C2499 O2482 1.252 . S
C2499 C2493 1.500 1_556 S
C2500 H2462 0.930 . S
C2500 C2476 1.417 . S
C2500 C2501 1.329 . S
C2501 C2471 1.437 . S
C2501 H2472 0.929 . S
C2501 C2500 1.329 . S
H2502 C2475 0.931 . S
C2503 O2485 1.265 . S
C2503 O2486 1.242 . S
C2504 O2489 1.261 . S
C2504 O2490 1.252 . S
C2505 C2508 1.394 . S
C2505 C2510 1.370 . S
C2505 C2511 1.500 . S
C2506 C2509 1.383 . S
C2506 C2510 1.395 . S
C2507 C2508 1.396 . S
C2507 C2509 1.365 . S
C2507 H2516 0.929 . S
C2508 C2505 1.394 . S
C2508 C2507 1.396 . S
C2508 H2517 0.930 . S
C2509 C2506 1.383 . S
C2509 C2507 1.365 . S
C2509 H2518 0.931 . S
C2510 C2505 1.370 . S
C2510 C2506 1.395 . S
C2510 H2519 0.930 . S
C2511 Gd2447 2.805 . S
C2511 O2487 1.263 . S
C2511 O2488 1.252 . S
C2511 C2505 1.500 . S
H2512 C2495 0.929 . S
H2513 C2496 0.930 . S
H2514 C2497 0.931 . S
H2515 C2498 0.930 . S
H2516 C2507 0.929 . S
H2517 C2508 0.930 . S
H2518 C2509 0.931 . S
H2519 C2510 0.930 . S
C2520 C2522 1.422 . S
C2520 C2524 1.415 1_545 S
C2520 N2526 1.369 . S
C2521 C2522 1.421 . S
C2521 C2523 1.417 . S
C2521 C2533 1.422 . S
C2522 C2520 1.422 . S
C2522 C2521 1.421 . S
C2522 N2532 1.359 . S
C2523 C2521 1.417 . S
C2523 C2525 1.329 1_545 S
C2523 H2542 0.932 . S
C2524 C2520 1.415 1_565 S
C2524 C2525 1.437 . S
C2524 C2528 1.413 . S
C2525 C2523 1.329 1_565 S
C2525 C2524 1.437 . S
C2525 H2547 0.929 . S
N2526 C2520 1.369 . S
N2526 C2527 1.338 1_545 S
N2526 Gd2531 2.622 . S
C2527 N2526 1.338 1_565 S
C2527 C2529 1.378 . S
C2527 H2539 0.929 . S
C2528 C2524 1.413 . S
C2528 C2529 1.348 . S
C2528 H2544 0.931 . S
C2529 C2527 1.378 . S
C2529 C2528 1.348 . S
C2529 H2545 0.930 . S
Gd2530 N2550 2.613 1_455 S
Gd2530 N2557 2.544 1_455 S
Gd2530 O2564 2.372 . S
Gd2530 O2565 2.455 1_455 S
Gd2530 O2566 2.425 1_455 S
Gd2530 O2568 2.409 . S
Gd2530 O2569 2.383 1_455 S
Gd2530 O2573 2.303 1_455 S
Gd2530 C2583 2.797 1_455 S
Gd2531 N2526 2.622 . S
Gd2531 N2532 2.570 . S
Gd2531 O2563 2.386 . S
Gd2531 O2567 2.307 . S
Gd2531 O2570 2.353 . S
Gd2531 O2571 2.468 . S
Gd2531 O2572 2.427 . S
Gd2531 O2574 2.388 . S
Gd2531 C2595 2.805 . S
N2532 C2522 1.359 . S
N2532 Gd2531 2.570 . S
N2532 C2534 1.343 . S
C2533 C2521 1.422 . S
C2533 C2535 1.321 . S
C2533 H2541 0.931 . S
C2534 N2532 1.343 . S
C2534 C2535 1.390 . S
C2534 H2536 0.931 . S
C2535 C2533 1.321 . S
C2535 C2534 1.390 . S
C2535 H2537 0.930 . S
H2536 C2534 0.931 . S
H2537 C2535 0.930 . S
H2538 C2561 0.931 . S
H2539 C2527 0.929 . S
H2540 C2562 0.930 . S
H2541 C2533 0.931 . S
H2542 C2523 0.932 . S
H2543 C2552 0.929 1_455 S
H2544 C2528 0.931 . S
H2545 C2529 0.930 . S
H2546 C2584 0.930 . S
H2547 C2525 0.929 . S
H2548 C2553 0.931 . S
H2549 C2554 0.930 . S
N2550 Gd2530 2.613 1_655 S
N2550 C2551 1.369 . S
N2550 C2552 1.338 . S
C2551 N2550 1.369 . S
C2551 C2555 1.415 . S
C2551 C2558 1.422 . S
C2552 H2543 0.929 1_655 S
C2552 N2550 1.338 . S
C2552 C2554 1.378 . S
C2553 H2548 0.931 . S
C2553 C2554 1.348 . S
C2553 C2555 1.413 . S
C2554 H2549 0.930 . S
C2554 C2552 1.378 . S
C2554 C2553 1.348 . S
C2555 C2551 1.415 . S
C2555 C2553 1.413 . S
C2555 C2585 1.437 . S
H2556 C2585 0.929 . S
N2557 Gd2530 2.544 1_655 S
N2557 C2558 1.359 . S
N2557 C2561 1.343 . S
C2558 C2551 1.422 . S
C2558 N2557 1.359 . S
C2558 C2560 1.421 . S
C2559 C2560 1.422 . S
C2559 C2562 1.321 . S
C2559 H2586 0.931 . S
C2560 C2558 1.421 . S
C2560 C2559 1.422 . S
C2560 C2584 1.417 . S
C2561 H2538 0.931 . S
C2561 N2557 1.343 . S
C2561 C2562 1.390 . S
C2562 H2540 0.930 . S
C2562 C2559 1.321 . S
C2562 C2561 1.390 . S
O2563 Gd2531 2.386 . S
O2563 C2575 1.265 . S
O2564 Gd2530 2.372 . S
O2564 C2575 1.242 . S
O2565 Gd2530 2.455 1_655 S
O2565 C2583 1.263 . S
O2566 Gd2530 2.425 1_655 S
O2566 C2583 1.252 . S
O2567 Gd2531 2.307 . S
O2567 C2576 1.261 . S
O2568 Gd2530 2.409 . S
O2568 C2576 1.252 . S
O2569 Gd2530 2.383 1_655 S
O2569 C2587 1.265 . S
O2570 Gd2531 2.353 . S
O2570 C2587 1.242 1_455 S
O2571 Gd2531 2.468 . S
O2571 C2595 1.263 . S
O2572 Gd2531 2.427 . S
O2572 C2595 1.252 . S
O2573 Gd2530 2.303 1_655 S
O2573 C2588 1.261 . S
O2574 Gd2531 2.388 . S
O2574 C2588 1.252 1_455 S
C2575 O2563 1.265 . S
C2575 O2564 1.242 . S
C2576 O2567 1.261 . S
C2576 O2568 1.252 . S
C2577 C2580 1.394 . S
C2577 C2582 1.370 . S
C2577 C2583 1.500 . S
C2578 C2581 1.383 . S
C2578 C2582 1.395 . S
C2579 C2580 1.396 . S
C2579 C2581 1.365 . S
C2579 H2596 0.929 . S
C2580 C2577 1.394 . S
C2580 C2579 1.396 . S
C2580 H2597 0.930 . S
C2581 C2578 1.383 . S
C2581 C2579 1.365 . S
C2581 H2598 0.931 . S
C2582 C2577 1.370 . S
C2582 C2578 1.395 . S
C2582 H2599 0.930 . S
C2583 Gd2530 2.797 1_655 S
C2583 O2565 1.263 . S
C2583 O2566 1.252 . S
C2583 C2577 1.500 . S
C2584 H2546 0.930 . S
C2584 C2560 1.417 . S
C2584 C2585 1.329 . S
C2585 C2555 1.437 . S
C2585 H2556 0.929 . S
C2585 C2584 1.329 . S
H2586 C2559 0.931 . S
C2587 O2569 1.265 . S
C2587 O2570 1.242 1_655 S
C2588 O2573 1.261 . S
C2588 O2574 1.252 1_655 S
C2589 C2592 1.394 . S
C2589 C2594 1.370 . S
C2589 C2595 1.500 . S
C2590 C2593 1.383 . S
C2590 C2594 1.395 . S
C2591 C2592 1.396 1_565 S
C2591 C2593 1.365 1_565 S
C2591 H2600 0.929 . S
C2592 C2589 1.394 . S
C2592 C2591 1.396 1_545 S
C2592 H2601 0.930 1_545 S
C2593 C2590 1.383 . S
C2593 C2591 1.365 1_545 S
C2593 H2602 0.931 1_556 S
C2594 C2589 1.370 . S
C2594 C2590 1.395 . S
C2594 H2603 0.930 . S
C2595 Gd2531 2.805 . S
C2595 O2571 1.263 . S
C2595 O2572 1.252 . S
C2595 C2589 1.500 . S
H2596 C2579 0.929 . S
H2597 C2580 0.930 . S
H2598 C2581 0.931 . S
H2599 C2582 0.930 . S
H2600 C2591 0.929 . S
H2601 C2592 0.930 1_565 S
H2602 C2593 0.931 1_554 S
H2603 C2594 0.930 . S
C2604 C2606 1.422 . S
C2604 C2608 1.415 . S
C2604 N2610 1.369 . S
C2605 C2606 1.421 . S
C2605 C2607 1.417 . S
C2605 C2617 1.422 . S
C2606 C2604 1.422 . S
C2606 C2605 1.421 . S
C2606 N2616 1.359 . S
C2607 C2605 1.417 . S
C2607 C2609 1.329 . S
C2607 H2626 0.930 . S
C2608 C2604 1.415 . S
C2608 C2609 1.437 . S
C2608 C2612 1.413 . S
C2609 C2607 1.329 . S
C2609 C2608 1.437 . S
C2609 H2631 0.929 . S
N2610 C2604 1.369 . S
N2610 C2611 1.338 . S
N2610 Gd2615 2.622 . S
C2611 N2610 1.338 . S
C2611 C2613 1.378 . S
C2611 H2623 0.929 . S
C2612 C2608 1.413 . S
C2612 C2613 1.348 . S
C2612 H2628 0.931 . S
C2613 C2611 1.378 . S
C2613 C2612 1.348 . S
C2613 H2629 0.930 . S
Gd2614 N2634 2.622 . S
Gd2614 N2641 2.570 . S
Gd2614 O2648 2.353 . S
Gd2614 O2649 2.468 . S
Gd2614 O2650 2.427 . S
Gd2614 O2652 2.388 . S
Gd2614 O2653 2.386 . S
Gd2614 O2657 2.307 . S
Gd2614 C2667 2.805 . S
Gd2615 N2610 2.622 . S
Gd2615 N2616 2.570 . S
Gd2615 O2647 2.386 . S
Gd2615 O2651 2.307 . S
Gd2615 O2654 2.353 . S
Gd2615 O2655 2.468 . S
Gd2615 O2656 2.427 . S
Gd2615 O2658 2.388 . S
Gd2615 C2679 2.805 . S
N2616 C2606 1.359 . S
N2616 Gd2615 2.570 . S
N2616 C2618 1.343 . S
C2617 C2605 1.422 . S
C2617 C2619 1.321 . S
C2617 H2625 0.931 . S
C2618 N2616 1.343 . S
C2618 C2619 1.390 . S
C2618 H2620 0.931 . S
C2619 C2617 1.321 . S
C2619 C2618 1.390 . S
C2619 H2621 0.930 . S
H2620 C2618 0.931 . S
H2621 C2619 0.930 . S
H2622 C2645 0.931 . S
H2623 C2611 0.929 . S
H2624 C2646 0.930 . S
H2625 C2617 0.931 . S
H2626 C2607 0.930 . S
H2627 C2636 0.929 . S
H2628 C2612 0.931 . S
H2629 C2613 0.930 . S
H2630 C2668 0.930 . S
H2631 C2609 0.929 . S
H2632 C2637 0.931 . S
H2633 C2638 0.930 . S
N2634 Gd2614 2.622 . S
N2634 C2635 1.369 . S
N2634 C2636 1.338 . S
C2635 N2634 1.369 . S
C2635 C2639 1.415 . S
C2635 C2642 1.422 . S
C2636 H2627 0.929 . S
C2636 N2634 1.338 . S
C2636 C2638 1.378 . S
C2637 H2632 0.931 . S
C2637 C2638 1.348 . S
C2637 C2639 1.413 . S
C2638 H2633 0.930 . S
C2638 C2636 1.378 . S
C2638 C2637 1.348 . S
C2639 C2635 1.415 . S
C2639 C2637 1.413 . S
C2639 C2669 1.437 . S
H2640 C2669 0.929 . S
N2641 Gd2614 2.570 . S
N2641 C2642 1.359 . S
N2641 C2645 1.343 . S
C2642 C2635 1.422 . S
C2642 N2641 1.359 . S
C2642 C2644 1.421 . S
C2643 C2644 1.422 . S
C2643 C2646 1.321 . S
C2643 H2670 0.931 . S
C2644 C2642 1.421 . S
C2644 C2643 1.422 . S
C2644 C2668 1.417 . S
C2645 H2622 0.931 . S
C2645 N2641 1.343 . S
C2645 C2646 1.390 . S
C2646 H2624 0.930 . S
C2646 C2643 1.321 . S
C2646 C2645 1.390 . S
O2647 Gd2615 2.386 . S
O2647 C2659 1.265 . S
O2648 Gd2614 2.353 . S
O2648 C2659 1.242 . S
O2649 Gd2614 2.468 . S
O2649 C2667 1.263 . S
O2650 Gd2614 2.427 . S
O2650 C2667 1.252 . S
O2651 Gd2615 2.307 . S
O2651 C2660 1.261 . S
O2652 Gd2614 2.388 . S
O2652 C2660 1.252 . S
O2653 Gd2614 2.386 . S
O2653 C2671 1.265 . S
O2654 Gd2615 2.353 . S
O2654 C2671 1.242 . S
O2655 Gd2615 2.468 . S
O2655 C2679 1.263 . S
O2656 Gd2615 2.427 . S
O2656 C2679 1.252 . S
O2657 Gd2614 2.307 . S
O2657 C2672 1.261 . S
O2658 Gd2615 2.388 . S
O2658 C2672 1.252 . S
C2659 O2647 1.265 . S
C2659 O2648 1.242 . S
C2660 O2651 1.261 . S
C2660 O2652 1.252 . S
C2661 C2664 1.394 . S
C2661 C2666 1.370 . S
C2661 C2667 1.500 . S
C2662 C2665 1.383 . S
C2662 C2666 1.395 . S
C2663 C2664 1.396 . S
C2663 C2665 1.365 . S
C2663 H2680 0.929 . S
C2664 C2661 1.394 . S
C2664 C2663 1.396 . S
C2664 H2681 0.930 . S
C2665 C2662 1.383 . S
C2665 C2663 1.365 . S
C2665 H2682 0.931 . S
C2666 C2661 1.370 . S
C2666 C2662 1.395 . S
C2666 H2683 0.930 . S
C2667 Gd2614 2.805 . S
C2667 O2649 1.263 . S
C2667 O2650 1.252 . S
C2667 C2661 1.500 . S
C2668 H2630 0.930 . S
C2668 C2644 1.417 . S
C2668 C2669 1.329 . S
C2669 C2639 1.437 . S
C2669 H2640 0.929 . S
C2669 C2668 1.329 . S
H2670 C2643 0.931 . S
C2671 O2653 1.265 . S
C2671 O2654 1.242 . S
C2672 O2657 1.261 . S
C2672 O2658 1.252 . S
C2673 C2676 1.394 . S
C2673 C2678 1.370 . S
C2673 C2679 1.500 . S
C2674 C2677 1.383 . S
C2674 C2678 1.395 . S
C2675 C2676 1.396 . S
C2675 C2677 1.365 . S
C2675 H2684 0.929 . S
C2676 C2673 1.394 . S
C2676 C2675 1.396 . S
C2676 H2685 0.930 . S
C2677 C2674 1.383 . S
C2677 C2675 1.365 . S
C2677 H2686 0.931 . S
C2678 C2673 1.370 . S
C2678 C2674 1.395 . S
C2678 H2687 0.930 . S
C2679 Gd2615 2.805 . S
C2679 O2655 1.263 . S
C2679 O2656 1.252 . S
C2679 C2673 1.500 . S
H2680 C2663 0.929 . S
H2681 C2664 0.930 . S
H2682 C2665 0.931 . S
H2683 C2666 0.930 . S
H2684 C2675 0.929 . S
H2685 C2676 0.930 . S
H2686 C2677 0.931 . S
H2687 C2678 0.930 . S
C2688 C2689 1.387 . S
C2688 H2692 0.950 . S
C2688 C2697 1.390 . S
C2689 C2688 1.387 . S
C2689 C2691 1.387 . S
H2690 C2697 0.950 . S
C2691 C2689 1.387 . S
C2691 C2693 1.390 . S
C2691 H2695 0.950 . S
H2692 C2688 0.950 . S
C2693 C2691 1.390 . S
C2693 C2694 1.387 . S
C2693 H2696 0.950 . S
C2694 C2693 1.387 . S
C2694 C2697 1.387 . S
H2695 C2691 0.950 . S
H2696 C2693 0.950 . S
C2697 C2688 1.390 . S
C2697 H2690 0.950 . S
C2697 C2694 1.387 . S
C2698 C2699 1.387 . S
C2698 H2702 0.950 . S
C2698 C2707 1.390 . S
C2699 C2698 1.387 . S
C2699 C2701 1.387 . S
H2700 C2707 0.950 . S
C2701 C2699 1.387 . S
C2701 C2703 1.390 . S
C2701 H2705 0.950 . S
H2702 C2698 0.950 . S
C2703 C2701 1.390 . S
C2703 C2704 1.387 . S
C2703 H2706 0.950 . S
C2704 C2703 1.387 . S
C2704 C2707 1.387 . S
H2705 C2701 0.950 . S
H2706 C2703 0.950 . S
C2707 C2698 1.390 . S
C2707 H2700 0.950 . S
C2707 C2704 1.387 . S
C2708 C2709 1.387 . S
C2708 H2712 0.950 . S
C2708 C2717 1.390 . S
C2709 C2708 1.387 . S
C2709 C2711 1.387 . S
H2710 C2717 0.950 . S
C2711 C2709 1.387 . S
C2711 C2713 1.390 . S
C2711 H2715 0.950 . S
H2712 C2708 0.950 . S
C2713 C2711 1.390 . S
C2713 C2714 1.387 . S
C2713 H2716 0.950 . S
C2714 C2713 1.387 . S
C2714 C2717 1.387 . S
H2715 C2711 0.950 . S
H2716 C2713 0.950 . S
C2717 C2708 1.390 . S
C2717 H2710 0.950 . S
C2717 C2714 1.387 . S
C2718 C2719 1.387 . S
C2718 H2722 0.950 . S
C2718 C2727 1.390 . S
C2719 C2718 1.387 . S
C2719 C2721 1.387 1_554 S
H2720 C2727 0.950 . S
C2721 C2719 1.387 1_556 S
C2721 C2723 1.390 . S
C2721 H2725 0.950 . S
H2722 C2718 0.950 . S
C2723 C2721 1.390 . S
C2723 C2724 1.387 . S
C2723 H2726 0.950 . S
C2724 C2723 1.387 . S
C2724 C2727 1.387 1_556 S
H2725 C2721 0.950 . S
H2726 C2723 0.950 . S
C2727 C2718 1.390 . S
C2727 H2720 0.950 . S
C2727 C2724 1.387 1_554 S
C2728 C2729 1.387 . S
C2728 H2732 0.950 . S
C2728 C2737 1.390 . S
C2729 C2728 1.387 . S
C2729 C2731 1.387 . S
H2730 C2737 0.950 . S
C2731 C2729 1.387 . S
C2731 C2733 1.390 . S
C2731 H2735 0.950 . S
H2732 C2728 0.950 . S
C2733 C2731 1.390 . S
C2733 C2734 1.387 . S
C2733 H2736 0.950 . S
C2734 C2733 1.387 . S
C2734 C2737 1.387 . S
H2735 C2731 0.950 . S
H2736 C2733 0.950 . S
C2737 C2728 1.390 . S
C2737 H2730 0.950 . S
C2737 C2734 1.387 . S
C2738 C2739 1.387 . S
C2738 H2742 0.950 . S
C2738 C2747 1.390 . S
C2739 C2738 1.387 . S
C2739 C2741 1.387 . S
H2740 C2747 0.950 . S
C2741 C2739 1.387 . S
C2741 C2743 1.390 . S
C2741 H2745 0.950 . S
H2742 C2738 0.950 . S
C2743 C2741 1.390 . S
C2743 C2744 1.387 . S
C2743 H2746 0.950 . S
C2744 C2743 1.387 . S
C2744 C2747 1.387 . S
H2745 C2741 0.950 . S
H2746 C2743 0.950 . S
C2747 C2738 1.390 . S
C2747 H2740 0.950 . S
C2747 C2744 1.387 . S
C2748 C2749 1.387 . S
C2748 H2752 0.950 . S
C2748 C2757 1.390 . S
C2749 C2748 1.387 . S
C2749 C2751 1.387 . S
H2750 C2757 0.950 . S
C2751 C2749 1.387 . S
C2751 C2753 1.390 . S
C2751 H2755 0.950 . S
H2752 C2748 0.950 . S
C2753 C2751 1.390 . S
C2753 C2754 1.387 . S
C2753 H2756 0.950 . S
C2754 C2753 1.387 . S
C2754 C2757 1.387 . S
H2755 C2751 0.950 . S
H2756 C2753 0.950 . S
C2757 C2748 1.390 . S
C2757 H2750 0.950 . S
C2757 C2754 1.387 . S
C2758 C2759 1.387 . S
C2758 H2762 0.950 . S
C2758 C2767 1.390 . S
C2759 C2758 1.387 . S
C2759 C2761 1.387 . S
H2760 C2767 0.950 . S
C2761 C2759 1.387 . S
C2761 C2763 1.390 . S
C2761 H2765 0.950 . S
H2762 C2758 0.950 . S
C2763 C2761 1.390 . S
C2763 C2764 1.387 . S
C2763 H2766 0.950 . S
C2764 C2763 1.387 . S
C2764 C2767 1.387 . S
H2765 C2761 0.950 . S
H2766 C2763 0.950 . S
C2767 C2758 1.390 . S
C2767 H2760 0.950 . S
C2767 C2764 1.387 . S
C2768 C2769 1.387 . S
C2768 H2772 0.950 . S
C2768 C2777 1.390 . S
C2769 C2768 1.387 . S
C2769 C2771 1.387 . S
H2770 C2777 0.950 . S
C2771 C2769 1.387 . S
C2771 C2773 1.390 . S
C2771 H2775 0.950 . S
H2772 C2768 0.950 . S
C2773 C2771 1.390 . S
C2773 C2774 1.387 . S
C2773 H2776 0.950 . S
C2774 C2773 1.387 . S
C2774 C2777 1.387 . S
H2775 C2771 0.950 . S
H2776 C2773 0.950 . S
C2777 C2768 1.390 . S
C2777 H2770 0.950 . S
C2777 C2774 1.387 . S
C2778 C2779 1.387 . S
C2778 H2782 0.950 . S
C2778 C2787 1.390 . S
C2779 C2778 1.387 . S
C2779 C2781 1.387 . S
H2780 C2787 0.950 . S
C2781 C2779 1.387 . S
C2781 C2783 1.390 . S
C2781 H2785 0.950 . S
H2782 C2778 0.950 . S
C2783 C2781 1.390 . S
C2783 C2784 1.387 . S
C2783 H2786 0.950 . S
C2784 C2783 1.387 . S
C2784 C2787 1.387 . S
H2785 C2781 0.950 . S
H2786 C2783 0.950 . S
C2787 C2778 1.390 . S
C2787 H2780 0.950 . S
C2787 C2784 1.387 . S
C2788 C2789 1.387 . S
C2788 H2792 0.950 1_565 S
C2788 C2797 1.390 . S
C2789 C2788 1.387 . S
C2789 C2791 1.387 . S
H2790 C2797 0.950 . S
C2791 C2789 1.387 . S
C2791 C2793 1.390 . S
C2791 H2795 0.950 . S
H2792 C2788 0.950 1_545 S
C2793 C2791 1.390 . S
C2793 C2794 1.387 . S
C2793 H2796 0.950 . S
C2794 C2793 1.387 . S
C2794 C2797 1.387 . S
H2795 C2791 0.950 . S
H2796 C2793 0.950 . S
C2797 C2788 1.390 . S
C2797 H2790 0.950 . S
C2797 C2794 1.387 . S
C2798 C2799 1.387 . S
C2798 H2802 0.950 . S
C2798 C2807 1.390 . S
C2799 C2798 1.387 . S
C2799 C2801 1.387 . S
H2800 C2807 0.950 . S
C2801 C2799 1.387 . S
C2801 C2803 1.390 . S
C2801 H2805 0.950 . S
H2802 C2798 0.950 . S
C2803 C2801 1.390 . S
C2803 C2804 1.387 . S
C2803 H2806 0.950 . S
C2804 C2803 1.387 . S
C2804 C2807 1.387 . S
H2805 C2801 0.950 . S
H2806 C2803 0.950 . S
C2807 C2798 1.390 . S
C2807 H2800 0.950 . S
C2807 C2804 1.387 . S
C2808 C2809 1.387 . S
C2808 H2812 0.950 . S
C2808 C2817 1.390 . S
C2809 C2808 1.387 . S
C2809 C2811 1.387 . S
H2810 C2817 0.950 . S
C2811 C2809 1.387 . S
C2811 C2813 1.390 . S
C2811 H2815 0.950 . S
H2812 C2808 0.950 . S
C2813 C2811 1.390 . S
C2813 C2814 1.387 . S
C2813 H2816 0.950 . S
C2814 C2813 1.387 . S
C2814 C2817 1.387 . S
H2815 C2811 0.950 . S
H2816 C2813 0.950 . S
C2817 C2808 1.390 . S
C2817 H2810 0.950 . S
C2817 C2814 1.387 . S
C2818 C2819 1.387 1_554 S
C2818 H2822 0.950 . S
C2818 C2827 1.390 . S
C2819 C2818 1.387 1_556 S
C2819 C2821 1.387 . S
H2820 C2827 0.950 . S
C2821 C2819 1.387 . S
C2821 C2823 1.390 1_556 S
C2821 H2825 0.950 . S
H2822 C2818 0.950 . S
C2823 C2821 1.390 1_554 S
C2823 C2824 1.387 . S
C2823 H2826 0.950 . S
C2824 C2823 1.387 . S
C2824 C2827 1.387 . S
H2825 C2821 0.950 . S
H2826 C2823 0.950 . S
C2827 C2818 1.390 . S
C2827 H2820 0.950 . S
C2827 C2824 1.387 . S
C2828 C2829 1.387 . S
C2828 H2832 0.950 . S
C2828 C2837 1.390 1_554 S
C2829 C2828 1.387 . S
C2829 C2831 1.387 . S
H2830 C2837 0.950 . S
C2831 C2829 1.387 . S
C2831 C2833 1.390 1_554 S
C2831 H2835 0.950 . S
H2832 C2828 0.950 . S
C2833 C2831 1.390 1_556 S
C2833 C2834 1.387 . S
C2833 H2836 0.950 . S
C2834 C2833 1.387 . S
C2834 C2837 1.387 . S
H2835 C2831 0.950 . S
H2836 C2833 0.950 . S
C2837 C2828 1.390 1_556 S
C2837 H2830 0.950 . S
C2837 C2834 1.387 . S
C2838 C2839 1.387 . S
C2838 H2842 0.950 . S
C2838 C2847 1.390 . S
C2839 C2838 1.387 . S
C2839 C2841 1.387 . S
H2840 C2847 0.950 . S
C2841 C2839 1.387 . S
C2841 C2843 1.390 . S
C2841 H2845 0.950 . S
H2842 C2838 0.950 . S
C2843 C2841 1.390 . S
C2843 C2844 1.387 . S
C2843 H2846 0.950 . S
C2844 C2843 1.387 . S
C2844 C2847 1.387 . S
H2845 C2841 0.950 . S
H2846 C2843 0.950 . S
C2847 C2838 1.390 . S
C2847 H2840 0.950 . S
C2847 C2844 1.387 . S
C2848 C2849 1.387 . S
C2848 H2852 0.950 . S
C2848 C2857 1.390 . S
C2849 C2848 1.387 . S
C2849 C2851 1.387 . S
H2850 C2857 0.950 . S
C2851 C2849 1.387 . S
C2851 C2853 1.390 . S
C2851 H2855 0.950 . S
H2852 C2848 0.950 . S
C2853 C2851 1.390 . S
C2853 C2854 1.387 . S
C2853 H2856 0.950 . S
C2854 C2853 1.387 . S
C2854 C2857 1.387 . S
H2855 C2851 0.950 . S
H2856 C2853 0.950 . S
C2857 C2848 1.390 . S
C2857 H2850 0.950 . S
C2857 C2854 1.387 . S
C2858 C2859 1.387 . S
C2858 H2862 0.950 . S
C2858 C2867 1.390 . S
C2859 C2858 1.387 . S
C2859 C2861 1.387 . S
H2860 C2867 0.950 . S
C2861 C2859 1.387 . S
C2861 C2863 1.390 . S
C2861 H2865 0.950 . S
H2862 C2858 0.950 . S
C2863 C2861 1.390 . S
C2863 C2864 1.387 . S
C2863 H2866 0.950 . S
C2864 C2863 1.387 . S
C2864 C2867 1.387 . S
H2865 C2861 0.950 . S
H2866 C2863 0.950 . S
C2867 C2858 1.390 . S
C2867 H2860 0.950 . S
C2867 C2864 1.387 . S
C2868 C2869 1.387 . S
C2868 H2872 0.950 . S
C2868 C2877 1.390 . S
C2869 C2868 1.387 . S
C2869 C2871 1.387 . S
H2870 C2877 0.950 . S
C2871 C2869 1.387 . S
C2871 C2873 1.390 . S
C2871 H2875 0.950 . S
H2872 C2868 0.950 . S
C2873 C2871 1.390 . S
C2873 C2874 1.387 . S
C2873 H2876 0.950 . S
C2874 C2873 1.387 . S
C2874 C2877 1.387 . S
H2875 C2871 0.950 . S
H2876 C2873 0.950 . S
C2877 C2868 1.390 . S
C2877 H2870 0.950 . S
C2877 C2874 1.387 . S
C2878 C2879 1.387 1_554 S
C2878 H2882 0.946 1_554 S
C2878 C2887 1.390 . S
C2879 C2878 1.387 1_556 S
C2879 C2881 1.387 . S
H2880 C2887 0.950 . S
C2881 C2879 1.387 . S
C2881 C2883 1.390 1_556 S
C2881 H2885 0.950 . S
H2882 C2878 0.946 1_556 S
C2883 C2881 1.390 1_554 S
C2883 C2884 1.387 . S
C2883 H2886 0.950 . S
C2884 C2883 1.387 . S
C2884 C2887 1.387 . S
H2885 C2881 0.950 . S
H2886 C2883 0.950 . S
C2887 C2878 1.390 . S
C2887 H2880 0.950 . S
C2887 C2884 1.387 . S
C2888 C2889 1.387 . S
C2888 H2892 0.950 . S
C2888 C2897 1.390 . S
C2889 C2888 1.387 . S
C2889 C2891 1.387 . S
H2890 C2897 0.950 . S
C2891 C2889 1.387 . S
C2891 C2893 1.390 . S
C2891 H2895 0.950 . S
H2892 C2888 0.950 . S
C2893 C2891 1.390 . S
C2893 C2894 1.387 . S
C2893 H2896 0.950 . S
C2894 C2893 1.387 . S
C2894 C2897 1.387 . S
H2895 C2891 0.950 . S
H2896 C2893 0.950 . S
C2897 C2888 1.390 . S
C2897 H2890 0.950 . S
C2897 C2894 1.387 . S
C2898 C2899 1.387 . S
C2898 H2902 0.950 . S
C2898 C2907 1.390 . S
C2899 C2898 1.387 . S
C2899 C2901 1.387 . S
H2900 C2907 0.950 . S
C2901 C2899 1.387 . S
C2901 C2903 1.390 . S
C2901 H2905 0.950 . S
H2902 C2898 0.950 . S
C2903 C2901 1.390 . S
C2903 C2904 1.387 . S
C2903 H2906 0.950 . S
C2904 C2903 1.387 . S
C2904 C2907 1.387 . S
H2905 C2901 0.950 . S
H2906 C2903 0.950 . S
C2907 C2898 1.390 . S
C2907 H2900 0.950 . S
C2907 C2904 1.387 . S
C2908 C2909 1.387 1_556 S
C2908 H2912 0.950 . S
C2908 C2917 1.390 . S
C2909 C2908 1.387 1_554 S
C2909 C2911 1.387 . S
H2910 C2917 0.950 . S
C2911 C2909 1.387 . S
C2911 C2913 1.390 . S
C2911 H2915 0.950 . S
H2912 C2908 0.950 . S
C2913 C2911 1.390 . S
C2913 C2914 1.387 1_554 S
C2913 H2916 0.950 . S
C2914 C2913 1.387 1_556 S
C2914 C2917 1.387 . S
H2915 C2911 0.950 . S
H2916 C2913 0.950 . S
C2917 C2908 1.390 . S
C2917 H2910 0.950 . S
C2917 C2914 1.387 . S
C2918 C2919 1.387 . S
C2918 H2922 0.950 . S
C2918 C2927 1.390 . S
C2919 C2918 1.387 . S
C2919 C2921 1.387 . S
H2920 C2927 0.950 . S
C2921 C2919 1.387 . S
C2921 C2923 1.390 . S
C2921 H2925 0.950 . S
H2922 C2918 0.950 . S
C2923 C2921 1.390 . S
C2923 C2924 1.387 . S
C2923 H2926 0.950 . S
C2924 C2923 1.387 . S
C2924 C2927 1.387 . S
H2925 C2921 0.950 . S
H2926 C2923 0.950 . S
C2927 C2918 1.390 . S
C2927 H2920 0.950 . S
C2927 C2924 1.387 . S
C2928 C2929 1.387 . S
C2928 H2932 0.950 . S
C2928 C2937 1.390 1_554 S
C2929 C2928 1.387 . S
C2929 C2931 1.387 . S
H2930 C2937 0.950 . S
C2931 C2929 1.387 . S
C2931 C2933 1.390 . S
C2931 H2935 0.950 . S
H2932 C2928 0.950 . S
C2933 C2931 1.390 . S
C2933 C2934 1.387 1_554 S
C2933 H2936 0.950 . S
C2934 C2933 1.387 1_556 S
C2934 C2937 1.387 . S
H2935 C2931 0.950 . S
H2936 C2933 0.950 . S
C2937 C2928 1.390 1_556 S
C2937 H2930 0.950 . S
C2937 C2934 1.387 . S
C2938 C2939 1.387 . S
C2938 H2942 0.950 . S
C2938 C2947 1.390 . S
C2939 C2938 1.387 . S
C2939 C2941 1.387 . S
H2940 C2947 0.950 . S
C2941 C2939 1.387 . S
C2941 C2943 1.390 . S
C2941 H2945 0.950 . S
H2942 C2938 0.950 . S
C2943 C2941 1.390 . S
C2943 C2944 1.387 . S
C2943 H2946 0.950 . S
C2944 C2943 1.387 . S
C2944 C2947 1.387 . S
H2945 C2941 0.950 . S
H2946 C2943 0.950 . S
C2947 C2938 1.390 . S
C2947 H2940 0.950 . S
C2947 C2944 1.387 . S
C2948 C2949 1.387 . S
C2948 H2952 0.950 . S
C2948 C2957 1.390 . S
C2949 C2948 1.387 . S
C2949 C2951 1.387 . S
H2950 C2957 0.950 . S
C2951 C2949 1.387 . S
C2951 C2953 1.390 . S
C2951 H2955 0.950 . S
H2952 C2948 0.950 . S
C2953 C2951 1.390 . S
C2953 C2954 1.387 . S
C2953 H2956 0.950 . S
C2954 C2953 1.387 . S
C2954 C2957 1.387 . S
H2955 C2951 0.950 . S
H2956 C2953 0.950 . S
C2957 C2948 1.390 . S
C2957 H2950 0.950 . S
C2957 C2954 1.387 . S
C2958 C2959 1.387 . S
C2958 H2962 0.950 . S
C2958 C2967 1.390 . S
C2959 C2958 1.387 . S
C2959 C2961 1.387 . S
H2960 C2967 0.950 . S
C2961 C2959 1.387 . S
C2961 C2963 1.390 . S
C2961 H2965 0.950 . S
H2962 C2958 0.950 . S
C2963 C2961 1.390 . S
C2963 C2964 1.387 . S
C2963 H2966 0.950 . S
C2964 C2963 1.387 . S
C2964 C2967 1.387 . S
H2965 C2961 0.950 . S
H2966 C2963 0.950 . S
C2967 C2958 1.390 . S
C2967 H2960 0.950 . S
C2967 C2964 1.387 . S
C2968 C2969 1.387 . S
C2968 H2972 0.950 . S
C2968 C2977 1.390 . S
C2969 C2968 1.387 . S
C2969 C2971 1.387 . S
H2970 C2977 0.950 . S
C2971 C2969 1.387 . S
C2971 C2973 1.390 . S
C2971 H2975 0.950 . S
H2972 C2968 0.950 . S
C2973 C2971 1.390 . S
C2973 C2974 1.387 . S
C2973 H2976 0.950 . S
C2974 C2973 1.387 . S
C2974 C2977 1.387 . S
H2975 C2971 0.950 . S
H2976 C2973 0.950 . S
C2977 C2968 1.390 . S
C2977 H2970 0.950 . S
C2977 C2974 1.387 . S
C2978 C2979 1.387 . S
C2978 H2982 0.950 . S
C2978 C2987 1.390 . S
C2979 C2978 1.387 . S
C2979 C2981 1.387 . S
H2980 C2987 0.950 . S
C2981 C2979 1.387 . S
C2981 C2983 1.390 . S
C2981 H2985 0.950 . S
H2982 C2978 0.950 . S
C2983 C2981 1.390 . S
C2983 C2984 1.387 . S
C2983 H2986 0.950 . S
C2984 C2983 1.387 . S
C2984 C2987 1.387 . S
H2985 C2981 0.950 . S
H2986 C2983 0.950 . S
C2987 C2978 1.390 . S
C2987 H2980 0.950 . S
C2987 C2984 1.387 . S
C2988 C2989 1.387 . S
C2988 H2992 0.950 . S
C2988 C2997 1.390 . S
C2989 C2988 1.387 . S
C2989 C2991 1.387 . S
H2990 C2997 0.950 . S
C2991 C2989 1.387 . S
C2991 C2993 1.390 . S
C2991 H2995 0.950 . S
H2992 C2988 0.950 . S
C2993 C2991 1.390 . S
C2993 C2994 1.387 . S
C2993 H2996 0.950 . S
C2994 C2993 1.387 . S
C2994 C2997 1.387 . S
H2995 C2991 0.950 . S
H2996 C2993 0.950 . S
C2997 C2988 1.390 . S
C2997 H2990 0.950 . S
C2997 C2994 1.387 . S
C2998 C2999 1.387 . S
C2998 H3002 0.950 . S
C2998 C3007 1.390 . S
C2999 C2998 1.387 . S
C2999 C3001 1.387 . S
H3000 C3007 0.950 . S
C3001 C2999 1.387 . S
C3001 C3003 1.390 . S
C3001 H3005 0.970 . S
H3002 C2998 0.950 . S
C3003 C3001 1.390 . S
C3003 C3004 1.387 . S
C3003 H3006 0.950 . S
C3004 C3003 1.387 . S
C3004 C3007 1.387 . S
H3005 C3001 0.970 . S
H3006 C3003 0.950 . S
C3007 C2998 1.390 . S
C3007 H3000 0.950 . S
C3007 C3004 1.387 . S
C3008 C3009 1.387 1_455 S
C3008 H3012 0.950 . S
C3008 C3017 1.390 . S
C3009 C3008 1.387 1_655 S
C3009 C3011 1.387 . S
H3010 C3017 0.950 . S
C3011 C3009 1.387 . S
C3011 C3013 1.390 . S
C3011 H3015 0.950 . S
H3012 C3008 0.950 . S
C3013 C3011 1.390 . S
C3013 C3014 1.387 1_655 S
C3013 H3016 0.950 . S
C3014 C3013 1.387 1_455 S
C3014 C3017 1.387 . S
H3015 C3011 0.950 . S
H3016 C3013 0.950 . S
C3017 C3008 1.390 . S
C3017 H3010 0.950 . S
C3017 C3014 1.387 . S
C3018 C3019 1.387 . S
C3018 H3022 0.950 . S
C3018 C3027 1.390 . S
C3019 C3018 1.387 . S
C3019 C3021 1.387 . S
H3020 C3027 0.950 . S
C3021 C3019 1.387 . S
C3021 C3023 1.390 . S
C3021 H3025 0.950 . S
H3022 C3018 0.950 . S
C3023 C3021 1.390 . S
C3023 C3024 1.387 . S
C3023 H3026 0.950 . S
C3024 C3023 1.387 . S
C3024 C3027 1.387 . S
H3025 C3021 0.950 . S
H3026 C3023 0.950 . S
C3027 C3018 1.390 . S
C3027 H3020 0.950 . S
C3027 C3024 1.387 . S
C3028 C3029 1.387 . S
C3028 H3032 0.950 . S
C3028 C3037 1.390 . S
C3029 C3028 1.387 . S
C3029 C3031 1.387 . S
H3030 C3037 0.950 . S
C3031 C3029 1.387 . S
C3031 C3033 1.390 . S
C3031 H3035 0.950 . S
H3032 C3028 0.950 . S
C3033 C3031 1.390 . S
C3033 C3034 1.387 . S
C3033 H3036 0.950 . S
C3034 C3033 1.387 . S
C3034 C3037 1.387 . S
H3035 C3031 0.950 . S
H3036 C3033 0.950 . S
C3037 C3028 1.390 . S
C3037 H3030 0.950 . S
C3037 C3034 1.387 . S
C3038 C3039 1.387 . S
C3038 H3042 0.950 . S
C3038 C3047 1.390 . S
C3039 C3038 1.387 . S
C3039 C3041 1.387 . S
H3040 C3047 0.950 . S
C3041 C3039 1.387 . S
C3041 C3043 1.390 . S
C3041 H3045 0.950 . S
H3042 C3038 0.950 . S
C3043 C3041 1.390 . S
C3043 C3044 1.387 . S
C3043 H3046 0.950 . S
C3044 C3043 1.387 . S
C3044 C3047 1.387 . S
H3045 C3041 0.950 . S
H3046 C3043 0.950 . S
C3047 C3038 1.390 . S
C3047 H3040 0.950 . S
C3047 C3044 1.387 . S
C3048 C3049 1.387 1_455 S
C3048 H3052 0.950 . S
C3048 C3057 1.390 . S
C3049 C3048 1.387 1_655 S
C3049 C3051 1.387 . S
H3050 C3057 0.950 . S
C3051 C3049 1.387 . S
C3051 C3053 1.390 . S
C3051 H3055 0.950 . S
H3052 C3048 0.950 . S
C3053 C3051 1.390 . S
C3053 C3054 1.387 1_655 S
C3053 H3056 0.950 . S
C3054 C3053 1.387 1_455 S
C3054 C3057 1.387 . S
H3055 C3051 0.950 . S
H3056 C3053 0.950 . S
C3057 C3048 1.390 . S
C3057 H3050 0.950 . S
C3057 C3054 1.387 . S
C3058 C3059 1.387 . S
C3058 H3062 0.950 . S
C3058 C3067 1.390 . S
C3059 C3058 1.387 . S
C3059 C3061 1.387 . S
H3060 C3067 0.950 . S
C3061 C3059 1.387 . S
C3061 C3063 1.390 . S
C3061 H3065 0.950 . S
H3062 C3058 0.950 . S
C3063 C3061 1.390 . S
C3063 C3064 1.387 . S
C3063 H3066 0.950 . S
C3064 C3063 1.387 . S
C3064 C3067 1.387 . S
H3065 C3061 0.950 . S
H3066 C3063 0.950 . S
C3067 C3058 1.390 . S
C3067 H3060 0.950 . S
C3067 C3064 1.387 . S
C3068 C3069 1.387 . S
C3068 H3072 0.950 . S
C3068 C3077 1.390 . S
C3069 C3068 1.387 . S
C3069 C3071 1.387 . S
H3070 C3077 0.950 . S
C3071 C3069 1.387 . S
C3071 C3073 1.390 . S
C3071 H3075 0.950 . S
H3072 C3068 0.950 . S
C3073 C3071 1.390 . S
C3073 C3074 1.387 . S
C3073 H3076 0.950 . S
C3074 C3073 1.387 . S
C3074 C3077 1.387 . S
H3075 C3071 0.950 . S
H3076 C3073 0.950 . S
C3077 C3068 1.390 . S
C3077 H3070 0.950 . S
C3077 C3074 1.387 . S
C3078 C3079 1.387 . S
C3078 H3082 0.950 . S
C3078 C3087 1.390 . S
C3079 C3078 1.387 . S
C3079 C3081 1.387 . S
H3080 C3087 0.950 . S
C3081 C3079 1.387 . S
C3081 C3083 1.390 . S
C3081 H3085 0.950 . S
H3082 C3078 0.950 . S
C3083 C3081 1.390 . S
C3083 C3084 1.387 . S
C3083 H3086 0.950 . S
C3084 C3083 1.387 . S
C3084 C3087 1.387 . S
H3085 C3081 0.950 . S
H3086 C3083 0.950 . S
C3087 C3078 1.390 . S
C3087 H3080 0.950 . S
C3087 C3084 1.387 . S
C3088 C3089 1.387 . S
C3088 H3092 0.950 . S
C3088 C3097 1.390 . S
C3089 C3088 1.387 . S
C3089 C3091 1.387 . S
H3090 C3097 0.950 . S
C3091 C3089 1.387 . S
C3091 C3093 1.390 . S
C3091 H3095 0.950 . S
H3092 C3088 0.950 . S
C3093 C3091 1.390 . S
C3093 C3094 1.387 . S
C3093 H3096 0.950 . S
C3094 C3093 1.387 . S
C3094 C3097 1.387 . S
H3095 C3091 0.950 . S
H3096 C3093 0.950 . S
C3097 C3088 1.390 . S
C3097 H3090 0.950 . S
C3097 C3094 1.387 . S
C3098 C3099 1.387 . S
C3098 H3102 0.950 . S
C3098 C3107 1.390 . S
C3099 C3098 1.387 . S
C3099 C3101 1.387 . S
H3100 C3107 0.950 . S
C3101 C3099 1.387 . S
C3101 C3103 1.390 . S
C3101 H3105 0.950 . S
H3102 C3098 0.950 . S
C3103 C3101 1.390 . S
C3103 C3104 1.387 . S
C3103 H3106 0.950 . S
C3104 C3103 1.387 . S
C3104 C3107 1.387 . S
H3105 C3101 0.950 . S
H3106 C3103 0.950 . S
C3107 C3098 1.390 . S
C3107 H3100 0.950 . S
C3107 C3104 1.387 . S
C3108 C3109 1.387 . S
C3108 H3112 0.950 . S
C3108 C3117 1.390 . S
C3109 C3108 1.387 . S
C3109 C3111 1.387 . S
H3110 C3117 0.950 . S
C3111 C3109 1.387 . S
C3111 C3113 1.390 . S
C3111 H3115 0.950 . S
H3112 C3108 0.950 . S
C3113 C3111 1.390 . S
C3113 C3114 1.387 . S
C3113 H3116 0.950 . S
C3114 C3113 1.387 . S
C3114 C3117 1.387 . S
H3115 C3111 0.950 . S
H3116 C3113 0.950 . S
C3117 C3108 1.390 . S
C3117 H3110 0.950 . S
C3117 C3114 1.387 . S
C3118 C3119 1.387 . S
C3118 H3122 0.950 . S
C3118 C3127 1.390 . S
C3119 C3118 1.387 . S
C3119 C3121 1.387 . S
H3120 C3127 0.950 . S
C3121 C3119 1.387 . S
C3121 C3123 1.390 . S
C3121 H3125 0.950 . S
H3122 C3118 0.950 . S
C3123 C3121 1.390 . S
C3123 C3124 1.387 . S
C3123 H3126 0.950 . S
C3124 C3123 1.387 . S
C3124 C3127 1.387 . S
H3125 C3121 0.950 . S
H3126 C3123 0.950 . S
C3127 C3118 1.390 . S
C3127 H3120 0.950 . S
C3127 C3124 1.387 . S
C3128 C3129 1.387 1_565 S
C3128 H3132 0.950 . S
C3128 C3137 1.390 . S
C3129 C3128 1.387 1_545 S
C3129 C3131 1.387 . S
H3130 C3137 0.950 . S
C3131 C3129 1.387 . S
C3131 C3133 1.390 . S
C3131 H3135 0.950 . S
H3132 C3128 0.950 . S
C3133 C3131 1.390 . S
C3133 C3134 1.387 1_545 S
C3133 H3136 0.950 . S
C3134 C3133 1.387 1_565 S
C3134 C3137 1.387 . S
H3135 C3131 0.950 . S
H3136 C3133 0.950 . S
C3137 C3128 1.390 . S
C3137 H3130 0.950 . S
C3137 C3134 1.387 . S
C3138 C3139 1.387 . S
C3138 H3142 0.950 . S
C3138 C3147 1.390 1_455 S
C3139 C3138 1.387 . S
C3139 C3141 1.387 1_545 S
H3140 C3147 0.950 . S
C3141 C3139 1.387 1_565 S
C3141 C3143 1.390 1_455 S
C3141 H3145 0.950 . S
H3142 C3138 0.950 . S
C3143 C3141 1.390 1_655 S
C3143 C3144 1.387 . S
C3143 H3146 0.950 . S
C3144 C3143 1.387 . S
C3144 C3147 1.387 1_565 S
H3145 C3141 0.950 . S
H3146 C3143 0.950 . S
C3147 C3138 1.390 1_655 S
C3147 H3140 0.950 . S
C3147 C3144 1.387 1_545 S
C3148 C3149 1.387 1_545 S
C3148 H3152 0.950 . S
C3148 C3157 1.390 . S
C3149 C3148 1.387 1_565 S
C3149 C3151 1.387 . S
H3150 C3157 0.950 . S
C3151 C3149 1.387 . S
C3151 C3153 1.390 . S
C3151 H3155 0.950 . S
H3152 C3148 0.950 . S
C3153 C3151 1.390 . S
C3153 C3154 1.387 1_565 S
C3153 H3156 0.950 . S
C3154 C3153 1.387 1_545 S
C3154 C3157 1.387 . S
H3155 C3151 0.950 . S
H3156 C3153 0.950 . S
C3157 C3148 1.390 . S
C3157 H3150 0.950 . S
C3157 C3154 1.387 . S
C3158 C3159 1.387 1_655 S
C3158 H3162 0.950 . S
C3158 C3167 1.390 1_565 S
C3159 C3158 1.387 1_455 S
C3159 C3161 1.387 . S
H3160 C3167 0.950 . S
C3161 C3159 1.387 . S
C3161 C3163 1.390 1_565 S
C3161 H3165 0.950 . S
H3162 C3158 0.950 . S
C3163 C3161 1.390 1_545 S
C3163 C3164 1.387 1_455 S
C3163 H3166 0.950 . S
C3164 C3163 1.387 1_655 S
C3164 C3167 1.387 . S
H3165 C3161 0.950 . S
H3166 C3163 0.950 . S
C3167 C3158 1.390 1_545 S
C3167 H3160 0.950 . S
C3167 C3164 1.387 . S
C3168 C3169 1.387 1_655 S
C3168 H3172 0.950 1_655 S
C3168 C3177 1.390 . S
C3169 C3168 1.387 1_455 S
C3169 C3171 1.387 1_455 S
H3170 C3177 0.950 . S
C3171 C3169 1.387 1_655 S
C3171 C3173 1.390 . S
C3171 H3175 0.950 1_655 S
H3172 C3168 0.950 1_455 S
C3173 C3171 1.390 . S
C3173 C3174 1.387 . S
C3173 H3176 0.950 . S
C3174 C3173 1.387 . S
C3174 C3177 1.387 . S
H3175 C3171 0.950 1_455 S
H3176 C3173 0.950 . S
C3177 C3168 1.390 . S
C3177 H3170 0.950 . S
C3177 C3174 1.387 . S
C3178 C3179 1.387 . S
C3178 H3182 0.950 . S
C3178 C3187 1.390 . S
C3179 C3178 1.387 . S
C3179 C3181 1.387 . S
H3180 C3187 0.950 . S
C3181 C3179 1.387 . S
C3181 C3183 1.390 . S
C3181 H3185 0.950 . S
H3182 C3178 0.950 . S
C3183 C3181 1.390 . S
C3183 C3184 1.387 . S
C3183 H3186 0.950 . S
C3184 C3183 1.387 . S
C3184 C3187 1.387 . S
H3185 C3181 0.950 . S
H3186 C3183 0.950 . S
C3187 C3178 1.390 . S
C3187 H3180 0.950 . S
C3187 C3184 1.387 . S
C3188 C3189 1.387 . S
C3188 H3192 0.950 . S
C3188 C3197 1.390 . S
C3189 C3188 1.387 . S
C3189 C3191 1.387 . S
H3190 C3197 0.950 . S
C3191 C3189 1.387 . S
C3191 C3193 1.390 . S
C3191 H3195 0.950 . S
H3192 C3188 0.950 . S
C3193 C3191 1.390 . S
C3193 C3194 1.387 . S
C3193 H3196 0.950 . S
C3194 C3193 1.387 . S
C3194 C3197 1.387 . S
H3195 C3191 0.950 . S
H3196 C3193 0.950 . S
C3197 C3188 1.390 . S
C3197 H3190 0.950 . S
C3197 C3194 1.387 . S
C3198 C3199 1.387 . S
C3198 H3202 0.950 . S
C3198 C3207 1.390 . S
C3199 C3198 1.387 . S
C3199 C3201 1.387 . S
H3200 C3207 0.950 . S
C3201 C3199 1.387 . S
C3201 C3203 1.390 . S
C3201 H3205 0.950 . S
H3202 C3198 0.950 . S
C3203 C3201 1.390 . S
C3203 C3204 1.387 . S
C3203 H3206 0.950 . S
C3204 C3203 1.387 . S
C3204 C3207 1.387 . S
H3205 C3201 0.950 . S
H3206 C3203 0.950 . S
C3207 C3198 1.390 . S
C3207 H3200 0.950 . S
C3207 C3204 1.387 . S
C3208 C3209 1.387 . S
C3208 H3212 0.950 . S
C3208 C3217 1.390 1_554 S
C3209 C3208 1.387 . S
C3209 C3211 1.387 1_554 S
H3210 C3217 0.952 . S
C3211 C3209 1.387 1_556 S
C3211 C3213 1.390 . S
C3211 H3215 0.950 . S
H3212 C3208 0.950 . S
C3213 C3211 1.390 . S
C3213 C3214 1.387 . S
C3213 H3216 0.950 . S
C3214 C3213 1.387 . S
C3214 C3217 1.387 . S
H3215 C3211 0.950 . S
H3216 C3213 0.950 . S
C3217 C3208 1.390 1_556 S
C3217 H3210 0.952 . S
C3217 C3214 1.387 . S
C3218 C3219 1.387 . S
C3218 H3222 0.950 . S
C3218 C3227 1.390 . S
C3219 C3218 1.387 . S
C3219 C3221 1.387 . S
H3220 C3227 0.950 . S
C3221 C3219 1.387 . S
C3221 C3223 1.390 . S
C3221 H3225 0.950 . S
H3222 C3218 0.950 . S
C3223 C3221 1.390 . S
C3223 C3224 1.387 . S
C3223 H3226 0.950 . S
C3224 C3223 1.387 . S
C3224 C3227 1.387 . S
H3225 C3221 0.950 . S
H3226 C3223 0.950 . S
C3227 C3218 1.390 . S
C3227 H3220 0.950 . S
C3227 C3224 1.387 . S
C3228 C3229 1.387 . S
C3228 H3232 0.950 . S
C3228 C3237 1.390 . S
C3229 C3228 1.387 . S
C3229 C3231 1.387 . S
H3230 C3237 0.950 . S
C3231 C3229 1.387 . S
C3231 C3233 1.390 . S
C3231 H3235 0.950 . S
H3232 C3228 0.950 . S
C3233 C3231 1.390 . S
C3233 C3234 1.387 . S
C3233 H3236 0.950 . S
C3234 C3233 1.387 . S
C3234 C3237 1.387 . S
H3235 C3231 0.950 . S
H3236 C3233 0.950 . S
C3237 C3228 1.390 . S
C3237 H3230 0.950 . S
C3237 C3234 1.387 . S
C3238 C3239 1.387 . S
C3238 H3242 0.950 . S
C3238 C3247 1.390 . S
C3239 C3238 1.387 . S
C3239 C3241 1.387 . S
H3240 C3247 0.950 . S
C3241 C3239 1.387 . S
C3241 C3243 1.390 . S
C3241 H3245 0.950 . S
H3242 C3238 0.950 . S
C3243 C3241 1.390 . S
C3243 C3244 1.387 . S
C3243 H3246 0.950 . S
C3244 C3243 1.387 . S
C3244 C3247 1.387 . S
H3245 C3241 0.950 . S
H3246 C3243 0.950 . S
C3247 C3238 1.390 . S
C3247 H3240 0.950 . S
C3247 C3244 1.387 . S
C3248 C3249 1.387 . S
C3248 H3252 0.950 . S
C3248 C3257 1.390 . S
C3249 C3248 1.387 . S
C3249 C3251 1.387 . S
H3250 C3257 0.950 1_655 S
C3251 C3249 1.387 . S
C3251 C3253 1.390 . S
C3251 H3255 0.950 . S
H3252 C3248 0.950 . S
C3253 C3251 1.390 . S
C3253 C3254 1.387 1_455 S
C3253 H3256 0.950 1_455 S
C3254 C3253 1.387 1_655 S
C3254 C3257 1.387 1_655 S
H3255 C3251 0.950 . S
H3256 C3253 0.950 1_655 S
C3257 C3248 1.390 . S
C3257 H3250 0.950 1_455 S
C3257 C3254 1.387 1_455 S
C3258 C3259 1.387 . S
C3258 H3262 0.950 . S
C3258 C3267 1.390 . S
C3259 C3258 1.387 . S
C3259 C3261 1.387 . S
H3260 C3267 0.950 1_556 S
C3261 C3259 1.387 . S
C3261 C3263 1.390 . S
C3261 H3265 0.950 . S
H3262 C3258 0.950 . S
C3263 C3261 1.390 . S
C3263 C3264 1.387 . S
C3263 H3266 0.950 . S
C3264 C3263 1.387 . S
C3264 C3267 1.387 . S
H3265 C3261 0.950 . S
H3266 C3263 0.950 . S
C3267 C3258 1.390 . S
C3267 H3260 0.950 1_554 S
C3267 C3264 1.387 . S
C3268 C3269 1.387 . S
C3268 H3272 0.950 . S
C3268 C3277 1.390 . S
C3269 C3268 1.387 . S
C3269 C3271 1.387 . S
H3270 C3277 0.950 . S
C3271 C3269 1.387 . S
C3271 C3273 1.390 . S
C3271 H3275 0.950 . S
H3272 C3268 0.950 . S
C3273 C3271 1.390 . S
C3273 C3274 1.387 . S
C3273 H3276 0.950 . S
C3274 C3273 1.387 . S
C3274 C3277 1.387 . S
H3275 C3271 0.950 . S
H3276 C3273 0.950 . S
C3277 C3268 1.390 . S
C3277 H3270 0.950 . S
C3277 C3274 1.387 . S
C3278 C3279 1.387 . S
C3278 H3282 0.950 . S
C3278 C3287 1.390 . S
C3279 C3278 1.387 . S
C3279 C3281 1.387 . S
H3280 C3287 0.950 . S
C3281 C3279 1.387 . S
C3281 C3283 1.390 . S
C3281 H3285 0.950 . S
H3282 C3278 0.950 . S
C3283 C3281 1.390 . S
C3283 C3284 1.387 . S
C3283 H3286 0.950 . S
C3284 C3283 1.387 . S
C3284 C3287 1.387 . S
H3285 C3281 0.950 . S
H3286 C3283 0.950 . S
C3287 C3278 1.390 . S
C3287 H3280 0.950 . S
C3287 C3284 1.387 . S
C3288 C3289 1.387 . S
C3288 H3292 0.950 . S
C3288 C3297 1.390 . S
C3289 C3288 1.387 . S
C3289 C3291 1.387 . S
H3290 C3297 0.950 . S
C3291 C3289 1.387 . S
C3291 C3293 1.390 . S
C3291 H3295 0.950 . S
H3292 C3288 0.950 . S
C3293 C3291 1.390 . S
C3293 C3294 1.387 . S
C3293 H3296 0.950 . S
C3294 C3293 1.387 . S
C3294 C3297 1.387 . S
H3295 C3291 0.950 . S
H3296 C3293 0.950 . S
C3297 C3288 1.390 . S
C3297 H3290 0.950 . S
C3297 C3294 1.387 . S
C3298 C3299 1.387 . S
C3298 H3302 0.950 . S
C3298 C3307 1.390 . S
C3299 C3298 1.387 . S
C3299 C3301 1.387 . S
H3300 C3307 0.950 . S
C3301 C3299 1.387 . S
C3301 C3303 1.390 . S
C3301 H3305 0.950 . S
H3302 C3298 0.950 . S
C3303 C3301 1.390 . S
C3303 C3304 1.387 . S
C3303 H3306 0.950 . S
C3304 C3303 1.387 . S
C3304 C3307 1.387 . S
H3305 C3301 0.950 . S
H3306 C3303 0.950 . S
C3307 C3298 1.390 . S
C3307 H3300 0.950 . S
C3307 C3304 1.387 . S
C3308 C3309 1.387 . S
C3308 H3312 0.950 . S
C3308 C3317 1.390 . S
C3309 C3308 1.387 . S
C3309 C3311 1.387 . S
H3310 C3317 0.950 . S
C3311 C3309 1.387 . S
C3311 C3313 1.390 . S
C3311 H3315 0.950 . S
H3312 C3308 0.950 . S
C3313 C3311 1.390 . S
C3313 C3314 1.387 . S
C3313 H3316 0.950 . S
C3314 C3313 1.387 . S
C3314 C3317 1.387 . S
H3315 C3311 0.950 . S
H3316 C3313 0.950 . S
C3317 C3308 1.390 . S
C3317 H3310 0.950 . S
C3317 C3314 1.387 . S
C3318 C3319 1.387 . S
C3318 H3322 0.950 . S
C3318 C3327 1.390 . S
C3319 C3318 1.387 . S
C3319 C3321 1.387 . S
H3320 C3327 0.950 . S
C3321 C3319 1.387 . S
C3321 C3323 1.390 . S
C3321 H3325 0.950 . S
H3322 C3318 0.950 . S
C3323 C3321 1.390 . S
C3323 C3324 1.387 . S
C3323 H3326 0.950 . S
C3324 C3323 1.387 . S
C3324 C3327 1.387 . S
H3325 C3321 0.950 . S
H3326 C3323 0.950 . S
C3327 C3318 1.390 . S
C3327 H3320 0.950 . S
C3327 C3324 1.387 . S
C3328 C3329 1.387 . S
C3328 H3332 0.950 . S
C3328 C3337 1.390 . S
C3329 C3328 1.387 . S
C3329 C3331 1.387 . S
H3330 C3337 0.950 . S
C3331 C3329 1.387 . S
C3331 C3333 1.390 . S
C3331 H3335 0.950 . S
H3332 C3328 0.950 . S
C3333 C3331 1.390 . S
C3333 C3334 1.387 . S
C3333 H3336 0.950 . S
C3334 C3333 1.387 . S
C3334 C3337 1.387 . S
H3335 C3331 0.950 . S
H3336 C3333 0.950 . S
C3337 C3328 1.390 . S
C3337 H3330 0.950 . S
C3337 C3334 1.387 . S
C3338 C3339 1.387 . S
C3338 H3342 0.950 . S
C3338 C3347 1.390 . S
C3339 C3338 1.387 . S
C3339 C3341 1.387 . S
H3340 C3347 0.950 . S
C3341 C3339 1.387 . S
C3341 C3343 1.390 . S
C3341 H3345 0.950 . S
H3342 C3338 0.950 . S
C3343 C3341 1.390 . S
C3343 C3344 1.387 . S
C3343 H3346 0.950 . S
C3344 C3343 1.387 . S
C3344 C3347 1.387 . S
H3345 C3341 0.950 . S
H3346 C3343 0.950 . S
C3347 C3338 1.390 . S
C3347 H3340 0.950 . S
C3347 C3344 1.387 . S
C3348 C3349 1.387 . S
C3348 H3352 0.950 . S
C3348 C3357 1.390 . S
C3349 C3348 1.387 . S
C3349 C3351 1.387 . S
H3350 C3357 0.950 . S
C3351 C3349 1.387 . S
C3351 C3353 1.390 . S
C3351 H3355 0.950 . S
H3352 C3348 0.950 . S
C3353 C3351 1.390 . S
C3353 C3354 1.387 . S
C3353 H3356 0.950 . S
C3354 C3353 1.387 . S
C3354 C3357 1.387 . S
H3355 C3351 0.950 . S
H3356 C3353 0.950 . S
C3357 C3348 1.390 . S
C3357 H3350 0.950 . S
C3357 C3354 1.387 . S
C3358 C3359 1.387 . S
C3358 H3362 0.950 . S
C3358 C3367 1.390 . S
C3359 C3358 1.387 . S
C3359 C3361 1.387 . S
H3360 C3367 0.950 . S
C3361 C3359 1.387 . S
C3361 C3363 1.390 . S
C3361 H3365 0.950 . S
H3362 C3358 0.950 . S
C3363 C3361 1.390 . S
C3363 C3364 1.387 . S
C3363 H3366 0.950 . S
C3364 C3363 1.387 . S
C3364 C3367 1.387 . S
H3365 C3361 0.950 . S
H3366 C3363 0.950 . S
C3367 C3358 1.390 . S
C3367 H3360 0.950 . S
C3367 C3364 1.387 . S
C3368 C3369 1.387 . S
C3368 H3372 0.950 . S
C3368 C3377 1.390 . S
C3369 C3368 1.387 . S
C3369 C3371 1.387 . S
H3370 C3377 0.950 . S
C3371 C3369 1.387 . S
C3371 C3373 1.390 . S
C3371 H3375 0.950 . S
H3372 C3368 0.950 . S
C3373 C3371 1.390 . S
C3373 C3374 1.387 . S
C3373 H3376 0.950 . S
C3374 C3373 1.387 . S
C3374 C3377 1.387 . S
H3375 C3371 0.950 . S
H3376 C3373 0.950 . S
C3377 C3368 1.390 . S
C3377 H3370 0.950 . S
C3377 C3374 1.387 . S
C3378 C3379 1.387 . S
C3378 H3382 0.950 . S
C3378 C3387 1.390 . S
C3379 C3378 1.387 . S
C3379 C3381 1.387 . S
H3380 C3387 0.950 . S
C3381 C3379 1.387 . S
C3381 C3383 1.390 . S
C3381 H3385 0.950 . S
H3382 C3378 0.950 . S
C3383 C3381 1.390 . S
C3383 C3384 1.387 . S
C3383 H3386 0.950 . S
C3384 C3383 1.387 . S
C3384 C3387 1.387 . S
H3385 C3381 0.950 . S
H3386 C3383 0.950 . S
C3387 C3378 1.390 . S
C3387 H3380 0.950 . S
C3387 C3384 1.387 . S
C3388 C3389 1.387 . S
C3388 H3392 0.950 . S
C3388 C3397 1.390 . S
C3389 C3388 1.387 . S
C3389 C3391 1.387 . S
H3390 C3397 0.950 . S
C3391 C3389 1.387 . S
C3391 C3393 1.390 . S
C3391 H3395 0.950 . S
H3392 C3388 0.950 . S
C3393 C3391 1.390 . S
C3393 C3394 1.387 . S
C3393 H3396 0.950 . S
C3394 C3393 1.387 . S
C3394 C3397 1.387 . S
H3395 C3391 0.950 . S
H3396 C3393 0.950 . S
C3397 C3388 1.390 . S
C3397 H3390 0.950 . S
C3397 C3394 1.387 . S
C3398 C3399 1.387 . S
C3398 H3402 0.950 . S
C3398 C3407 1.390 . S
C3399 C3398 1.387 . S
C3399 C3401 1.387 . S
H3400 C3407 0.950 1_556 S
C3401 C3399 1.387 . S
C3401 C3403 1.390 . S
C3401 H3405 0.950 . S
H3402 C3398 0.950 . S
C3403 C3401 1.390 . S
C3403 C3404 1.387 . S
C3403 H3406 0.950 . S
C3404 C3403 1.387 . S
C3404 C3407 1.387 . S
H3405 C3401 0.950 . S
H3406 C3403 0.950 . S
C3407 C3398 1.390 . S
C3407 H3400 0.950 1_554 S
C3407 C3404 1.387 . S
C3408 C3409 1.387 . S
C3408 H3412 0.950 . S
C3408 C3417 1.390 . S
C3409 C3408 1.387 . S
C3409 C3411 1.387 . S
H3410 C3417 0.950 . S
C3411 C3409 1.387 . S
C3411 C3413 1.390 . S
C3411 H3415 0.950 . S
H3412 C3408 0.950 . S
C3413 C3411 1.390 . S
C3413 C3414 1.387 . S
C3413 H3416 0.950 . S
C3414 C3413 1.387 . S
C3414 C3417 1.387 . S
H3415 C3411 0.950 . S
H3416 C3413 0.950 . S
C3417 C3408 1.390 . S
C3417 H3410 0.950 . S
C3417 C3414 1.387 . S
C3418 C3419 1.387 . S
C3418 H3422 0.950 . S
C3418 C3427 1.390 . S
C3419 C3418 1.387 . S
C3419 C3421 1.387 . S
H3420 C3427 0.950 . S
C3421 C3419 1.387 . S
C3421 C3423 1.390 . S
C3421 H3425 0.950 . S
H3422 C3418 0.950 . S
C3423 C3421 1.390 . S
C3423 C3424 1.387 . S
C3423 H3426 0.950 . S
C3424 C3423 1.387 . S
C3424 C3427 1.387 . S
H3425 C3421 0.950 . S
H3426 C3423 0.950 . S
C3427 C3418 1.390 . S
C3427 H3420 0.950 . S
C3427 C3424 1.387 . S
C3428 C3429 1.387 . S
C3428 H3432 0.950 . S
C3428 C3437 1.390 . S
C3429 C3428 1.387 . S
C3429 C3431 1.387 . S
H3430 C3437 0.950 . S
C3431 C3429 1.387 . S
C3431 C3433 1.390 . S
C3431 H3435 0.950 . S
H3432 C3428 0.950 . S
C3433 C3431 1.390 . S
C3433 C3434 1.387 . S
C3433 H3436 0.950 . S
C3434 C3433 1.387 . S
C3434 C3437 1.387 . S
H3435 C3431 0.950 . S
H3436 C3433 0.950 . S
C3437 C3428 1.390 . S
C3437 H3430 0.950 . S
C3437 C3434 1.387 . S
C3438 C3439 1.387 . S
C3438 H3442 0.950 . S
C3438 C3447 1.390 . S
C3439 C3438 1.387 . S
C3439 C3441 1.387 . S
H3440 C3447 0.950 . S
C3441 C3439 1.387 . S
C3441 C3443 1.390 . S
C3441 H3445 0.950 . S
H3442 C3438 0.950 . S
C3443 C3441 1.390 . S
C3443 C3444 1.387 . S
C3443 H3446 0.950 . S
C3444 C3443 1.387 . S
C3444 C3447 1.387 . S
H3445 C3441 0.950 . S
H3446 C3443 0.950 . S
C3447 C3438 1.390 . S
C3447 H3440 0.950 . S
C3447 C3444 1.387 . S
C3448 C3449 1.387 . S
C3448 H3452 0.950 . S
C3448 C3457 1.390 . S
C3449 C3448 1.387 . S
C3449 C3451 1.387 . S
H3450 C3457 0.950 . S
C3451 C3449 1.387 . S
C3451 C3453 1.390 . S
C3451 H3455 0.950 . S
H3452 C3448 0.950 . S
C3453 C3451 1.390 . S
C3453 C3454 1.387 . S
C3453 H3456 0.950 . S
C3454 C3453 1.387 . S
C3454 C3457 1.387 . S
H3455 C3451 0.950 . S
H3456 C3453 0.950 . S
C3457 C3448 1.390 . S
C3457 H3450 0.950 . S
C3457 C3454 1.387 . S
C3458 C3459 1.387 . S
C3458 H3462 0.950 . S
C3458 C3467 1.390 . S
C3459 C3458 1.387 . S
C3459 C3461 1.387 . S
H3460 C3467 0.950 . S
C3461 C3459 1.387 . S
C3461 C3463 1.390 . S
C3461 H3465 0.950 . S
H3462 C3458 0.950 . S
C3463 C3461 1.390 . S
C3463 C3464 1.387 . S
C3463 H3466 0.950 . S
C3464 C3463 1.387 . S
C3464 C3467 1.387 . S
H3465 C3461 0.950 . S
H3466 C3463 0.950 . S
C3467 C3458 1.390 . S
C3467 H3460 0.950 . S
C3467 C3464 1.387 . S
C3468 C3469 1.387 . S
C3468 H3472 0.950 . S
C3468 C3477 1.390 . S
C3469 C3468 1.387 . S
C3469 C3471 1.387 . S
H3470 C3477 0.950 . S
C3471 C3469 1.387 . S
C3471 C3473 1.390 . S
C3471 H3475 0.950 . S
H3472 C3468 0.950 . S
C3473 C3471 1.390 . S
C3473 C3474 1.387 . S
C3473 H3476 0.950 . S
C3474 C3473 1.387 . S
C3474 C3477 1.387 . S
H3475 C3471 0.950 . S
H3476 C3473 0.950 . S
C3477 C3468 1.390 . S
C3477 H3470 0.950 . S
C3477 C3474 1.387 . S
C3478 C3479 1.387 . S
C3478 H3482 0.950 . S
C3478 C3487 1.390 . S
C3479 C3478 1.387 . S
C3479 C3481 1.387 . S
H3480 C3487 0.950 . S
C3481 C3479 1.387 . S
C3481 C3483 1.390 . S
C3481 H3485 0.950 . S
H3482 C3478 0.950 . S
C3483 C3481 1.390 . S
C3483 C3484 1.387 . S
C3483 H3486 0.950 . S
C3484 C3483 1.387 . S
C3484 C3487 1.387 . S
H3485 C3481 0.950 . S
H3486 C3483 0.950 . S
C3487 C3478 1.390 . S
C3487 H3480 0.950 . S
C3487 C3484 1.387 . S
C3488 C3489 1.387 . S
C3488 H3492 0.950 . S
C3488 C3497 1.390 . S
C3489 C3488 1.387 . S
C3489 C3491 1.387 . S
H3490 C3497 0.950 . S
C3491 C3489 1.387 . S
C3491 C3493 1.390 . S
C3491 H3495 0.950 . S
H3492 C3488 0.950 . S
C3493 C3491 1.390 . S
C3493 C3494 1.387 . S
C3493 H3496 0.950 . S
C3494 C3493 1.387 . S
C3494 C3497 1.387 . S
H3495 C3491 0.950 . S
H3496 C3493 0.950 . S
C3497 C3488 1.390 . S
C3497 H3490 0.950 . S
C3497 C3494 1.387 . S
C3498 C3499 1.387 . S
C3498 H3502 0.950 . S
C3498 C3507 1.390 . S
C3499 C3498 1.387 . S
C3499 C3501 1.387 . S
H3500 C3507 0.950 . S
C3501 C3499 1.387 . S
C3501 C3503 1.390 . S
C3501 H3505 0.950 . S
H3502 C3498 0.950 . S
C3503 C3501 1.390 . S
C3503 C3504 1.387 . S
C3503 H3506 0.950 . S
C3504 C3503 1.387 . S
C3504 C3507 1.387 . S
H3505 C3501 0.950 . S
H3506 C3503 0.950 . S
C3507 C3498 1.390 . S
C3507 H3500 0.950 . S
C3507 C3504 1.387 . S
C3508 C3509 1.387 . S
C3508 H3512 0.950 . S
C3508 C3517 1.390 . S
C3509 C3508 1.387 . S
C3509 C3511 1.387 . S
H3510 C3517 0.950 . S
C3511 C3509 1.387 . S
C3511 C3513 1.390 . S
C3511 H3515 0.950 . S
H3512 C3508 0.950 . S
C3513 C3511 1.390 . S
C3513 C3514 1.387 . S
C3513 H3516 0.950 . S
C3514 C3513 1.387 . S
C3514 C3517 1.387 . S
H3515 C3511 0.950 . S
H3516 C3513 0.950 . S
C3517 C3508 1.390 . S
C3517 H3510 0.950 . S
C3517 C3514 1.387 . S
C3518 C3519 1.387 . S
C3518 H3522 0.950 . S
C3518 C3527 1.390 . S
C3519 C3518 1.387 . S
C3519 C3521 1.387 . S
H3520 C3527 0.950 . S
C3521 C3519 1.387 . S
C3521 C3523 1.390 . S
C3521 H3525 0.950 . S
H3522 C3518 0.950 . S
C3523 C3521 1.390 . S
C3523 C3524 1.387 . S
C3523 H3526 0.950 . S
C3524 C3523 1.387 . S
C3524 C3527 1.387 . S
H3525 C3521 0.950 . S
H3526 C3523 0.950 . S
C3527 C3518 1.390 . S
C3527 H3520 0.950 . S
C3527 C3524 1.387 . S
C3528 C3529 1.387 . S
C3528 H3532 0.950 . S
C3528 C3537 1.390 . S
C3529 C3528 1.387 . S
C3529 C3531 1.387 . S
H3530 C3537 0.950 . S
C3531 C3529 1.387 . S
C3531 C3533 1.390 . S
C3531 H3535 0.950 . S
H3532 C3528 0.950 . S
C3533 C3531 1.390 . S
C3533 C3534 1.387 . S
C3533 H3536 0.950 . S
C3534 C3533 1.387 . S
C3534 C3537 1.387 . S
H3535 C3531 0.950 . S
H3536 C3533 0.950 . S
C3537 C3528 1.390 . S
C3537 H3530 0.950 . S
C3537 C3534 1.387 . S
C3538 C3539 1.387 . S
C3538 H3542 0.950 . S
C3538 C3547 1.390 1_556 S
C3539 C3538 1.387 . S
C3539 C3541 1.387 . S
H3540 C3547 0.950 . S
C3541 C3539 1.387 . S
C3541 C3543 1.390 1_556 S
C3541 H3545 0.950 . S
H3542 C3538 0.950 . S
C3543 C3541 1.390 1_554 S
C3543 C3544 1.387 . S
C3543 H3546 0.950 . S
C3544 C3543 1.387 . S
C3544 C3547 1.387 . S
H3545 C3541 0.950 . S
H3546 C3543 0.950 . S
C3547 C3538 1.390 1_554 S
C3547 H3540 0.950 . S
C3547 C3544 1.387 . S
C3548 C3549 1.387 . S
C3548 H3552 0.950 . S
C3548 C3557 1.390 1_556 S
C3549 C3548 1.387 . S
C3549 C3551 1.387 . S
H3550 C3557 0.950 . S
C3551 C3549 1.387 . S
C3551 C3553 1.390 . S
C3551 H3555 0.950 . S
H3552 C3548 0.950 . S
C3553 C3551 1.390 . S
C3553 C3554 1.387 1_556 S
C3553 H3556 0.950 . S
C3554 C3553 1.387 1_554 S
C3554 C3557 1.387 . S
H3555 C3551 0.950 . S
H3556 C3553 0.950 . S
C3557 C3548 1.390 1_554 S
C3557 H3550 0.950 . S
C3557 C3554 1.387 . S
C3558 C3559 1.387 . S
C3558 H3562 0.950 . S
C3558 C3567 1.390 . S
C3559 C3558 1.387 . S
C3559 C3561 1.387 . S
H3560 C3567 0.950 . S
C3561 C3559 1.387 . S
C3561 C3563 1.390 . S
C3561 H3565 0.950 . S
H3562 C3558 0.950 . S
C3563 C3561 1.390 . S
C3563 C3564 1.387 . S
C3563 H3566 0.950 . S
C3564 C3563 1.387 . S
C3564 C3567 1.387 . S
H3565 C3561 0.950 . S
H3566 C3563 0.950 . S
C3567 C3558 1.390 . S
C3567 H3560 0.950 . S
C3567 C3564 1.387 . S
C3568 C3569 1.387 1_545 S
C3568 H3572 0.950 . S
C3568 C3577 1.390 . S
C3569 C3568 1.387 1_565 S
C3569 C3571 1.387 . S
H3570 C3577 0.950 . S
C3571 C3569 1.387 . S
C3571 C3573 1.390 . S
C3571 H3575 0.950 . S
H3572 C3568 0.950 . S
C3573 C3571 1.390 . S
C3573 C3574 1.387 1_565 S
C3573 H3576 0.950 . S
C3574 C3573 1.387 1_545 S
C3574 C3577 1.387 . S
H3575 C3571 0.950 . S
H3576 C3573 0.950 . S
C3577 C3568 1.390 . S
C3577 H3570 0.950 . S
C3577 C3574 1.387 . S
C3578 C3579 1.387 . S
C3578 H3582 0.950 . S
C3578 C3587 1.390 . S
C3579 C3578 1.387 . S
C3579 C3581 1.387 . S
H3580 C3587 0.950 . S
C3581 C3579 1.387 . S
C3581 C3583 1.390 . S
C3581 H3585 0.950 . S
H3582 C3578 0.950 . S
C3583 C3581 1.390 . S
C3583 C3584 1.387 . S
C3583 H3586 0.950 . S
C3584 C3583 1.387 . S
C3584 C3587 1.387 . S
H3585 C3581 0.950 . S
H3586 C3583 0.950 . S
C3587 C3578 1.390 . S
C3587 H3580 0.950 . S
C3587 C3584 1.387 . S
C3588 C3589 1.387 . S
C3588 H3592 0.950 . S
C3588 C3597 1.390 . S
C3589 C3588 1.387 . S
C3589 C3591 1.387 . S
H3590 C3597 0.950 . S
C3591 C3589 1.387 . S
C3591 C3593 1.390 . S
C3591 H3595 0.950 . S
H3592 C3588 0.950 . S
C3593 C3591 1.390 . S
C3593 C3594 1.387 . S
C3593 H3596 0.950 . S
C3594 C3593 1.387 . S
C3594 C3597 1.387 . S
H3595 C3591 0.950 . S
H3596 C3593 0.950 . S
C3597 C3588 1.390 . S
C3597 H3590 0.950 . S
C3597 C3594 1.387 . S
C3598 C3599 1.387 . S
C3598 H3602 0.950 . S
C3598 C3607 1.390 1_554 S
C3599 C3598 1.387 . S
C3599 C3601 1.387 . S
H3600 C3607 0.950 . S
C3601 C3599 1.387 . S
C3601 C3603 1.390 1_554 S
C3601 H3605 0.950 . S
H3602 C3598 0.950 . S
C3603 C3601 1.390 1_556 S
C3603 C3604 1.387 . S
C3603 H3606 0.950 . S
C3604 C3603 1.387 . S
C3604 C3607 1.387 . S
H3605 C3601 0.950 . S
H3606 C3603 0.950 . S
C3607 C3598 1.390 1_556 S
C3607 H3600 0.950 . S
C3607 C3604 1.387 . S
C3608 C3609 1.387 . S
C3608 H3612 0.950 . S
C3608 C3617 1.390 . S
C3609 C3608 1.387 . S
C3609 C3611 1.387 . S
H3610 C3617 0.950 . S
C3611 C3609 1.387 . S
C3611 C3613 1.383 1_565 S
C3611 H3615 0.950 . S
H3612 C3608 0.950 . S
C3613 C3611 1.383 1_545 S
C3613 C3614 1.389 . S
C3613 H3616 0.957 . S
C3614 C3613 1.389 . S
C3614 C3617 1.387 1_545 S
H3615 C3611 0.950 . S
H3616 C3613 0.957 . S
C3617 C3608 1.390 . S
C3617 H3610 0.950 . S
C3617 C3614 1.387 1_565 S
C3618 C3619 1.387 . S
C3618 H3622 0.950 . S
C3618 C3627 1.390 . S
C3619 C3618 1.387 . S
C3619 C3621 1.387 . S
H3620 C3627 0.950 . S
C3621 C3619 1.387 . S
C3621 C3623 1.390 . S
C3621 H3625 0.950 . S
H3622 C3618 0.950 . S
C3623 C3621 1.390 . S
C3623 C3624 1.387 . S
C3623 H3626 0.950 . S
C3624 C3623 1.387 . S
C3624 C3627 1.387 . S
H3625 C3621 0.950 . S
H3626 C3623 0.950 . S
C3627 C3618 1.390 . S
C3627 H3620 0.950 . S
C3627 C3624 1.387 . S
C3628 C3629 1.387 . S
C3628 H3632 0.950 . S
C3628 C3637 1.390 . S
C3629 C3628 1.387 . S
C3629 C3631 1.387 . S
H3630 C3637 0.950 . S
C3631 C3629 1.387 . S
C3631 C3633 1.390 . S
C3631 H3635 0.950 . S
H3632 C3628 0.950 . S
C3633 C3631 1.390 . S
C3633 C3634 1.387 . S
C3633 H3636 0.950 . S
C3634 C3633 1.387 . S
C3634 C3637 1.387 . S
H3635 C3631 0.950 . S
H3636 C3633 0.950 . S
C3637 C3628 1.390 . S
C3637 H3630 0.950 . S
C3637 C3634 1.387 . S
C3638 C3639 1.387 . S
C3638 H3642 0.950 . S
C3638 C3647 1.390 . S
C3639 C3638 1.387 . S
C3639 C3641 1.387 . S
H3640 C3647 0.950 . S
C3641 C3639 1.387 . S
C3641 C3643 1.390 . S
C3641 H3645 0.950 . S
H3642 C3638 0.950 . S
C3643 C3641 1.390 . S
C3643 C3644 1.387 . S
C3643 H3646 0.950 . S
C3644 C3643 1.387 . S
C3644 C3647 1.387 . S
H3645 C3641 0.950 . S
H3646 C3643 0.950 . S
C3647 C3638 1.390 . S
C3647 H3640 0.950 . S
C3647 C3644 1.387 . S
C2689 C58 0.755 . S
C2694 C394 0.735 . S
C2699 C487 0.807 . S
C2704 C142 0.756 . S
C2709 C235 0.818 . S
C2714 C562 0.753 . S
C2719 C646 0.732 . S
C2724 C319 0.650 . S
C2729 C742 0.761 . S
C2734 C1078 0.743 . S
C2739 C826 0.757 . S
C2744 C1147 0.806 . S
C2749 C1246 0.751 . S
C2754 C895 0.818 . S
C2759 C979 0.653 . S
C2764 C1330 0.731 . S
C2769 C1738 0.736 . S
C2774 C1402 0.754 . S
C2779 C1486 0.755 . S
C2784 C1831 0.807 . S
C2789 C1579 0.818 1_565 S
C2794 C1906 0.749 . S
C2799 C1663 0.655 . S
C2804 C1990 0.728 . S
C2809 C2086 0.761 . S
C2814 C2422 0.743 . S
C2819 C2491 0.805 . S
C2824 C2170 0.746 . S
C2829 C2239 0.819 1_545 S
C2834 C2590 0.758 . S
C2839 C2674 0.732 . S
C2844 C2323 0.651 . S
C2849 C1820 2.293 . S
C2854 C68 2.388 . S
C2859 C1916 1.580 . S
C2864 C152 1.580 . S
C2869 C2000 2.441 . S
C2874 C224 2.396 . S
C2879 C308 1.956 . S
C2884 C1748 2.039 . S
C2889 C404 2.039 . S
C2894 C1652 1.957 . S
C2899 C1412 2.385 . S
C2904 C476 2.292 . S
C2909 C572 1.579 . S
C2914 C1496 1.580 . S
C2919 C656 2.443 . S
C2924 C1568 2.398 . S
C2929 C728 2.387 . S
C2934 C2504 2.293 . S
C2939 C2576 1.579 . S
C2944 C812 1.580 . S
C2949 C2660 2.441 . S
C2954 C908 2.396 . S
C2959 C992 1.955 . S
C2964 C2408 2.037 . S
C2969 C1064 2.039 . S
C2974 C2336 1.956 . S
C2979 C1160 2.292 . S
C2984 C2072 2.387 . S
C2989 C1232 1.579 . S
C2994 C2156 1.580 . S
C2999 C1316 2.444 . S
C3004 C2252 2.399 . S
C3009 C740 1.498 . S
C3014 C56 1.498 . S
C3019 C140 1.475 . S
C3024 C2168 1.475 . S
C3029 C896 1.845 . S
C3034 C236 1.845 . S
C3039 C320 1.755 . S
C3044 C2324 1.755 . S
C3049 C1076 1.482 . S
C3054 C392 1.482 . S
C3059 C2492 1.840 . S
C3064 C488 1.840 . S
C3069 C560 1.482 . S
C3074 C1244 1.482 . S
C3079 C644 1.692 . S
C3084 C2672 1.692 . S
C3089 C1484 1.475 . S
C3094 C824 1.475 . S
C3099 C1664 1.756 . S
C3104 C980 1.756 . S
C3109 C1148 1.840 . S
C3114 C1832 1.840 . S
C3119 C1988 1.690 . S
C3124 C1328 1.690 . S
C3129 C2084 1.502 . S
C3134 C1400 1.502 . S
C3139 C2240 1.844 1_545 S
C3144 C1580 1.844 1_565 S
C3149 C2420 1.488 . S
C3154 C1736 1.488 . S
C3159 C1904 1.481 . S
C3164 C2588 1.481 . S
C3169 C70 1.758 . S
C3174 C1075 1.785 . S
C3179 C2494 0.765 . S
C3184 C154 0.788 . S
C3189 C1243 2.192 . S
C3194 C223 2.053 . S
C3199 C307 1.802 . S
C3204 C2671 1.889 . S
C3209 C739 1.608 . S
C3214 C406 1.591 . S
C3219 C2167 2.184 . S
C3224 C475 2.051 1_554 S
C3229 C898 0.780 . S
C3234 C574 0.844 . S
C3239 C2326 0.908 . S
C3244 C658 1.080 . S
C3249 C391 1.785 . S
C3254 C730 1.758 . S
C3259 C1834 0.764 . S
C3264 C814 0.788 . S
C3269 C559 2.191 . S
C3274 C907 2.055 . S
C3279 C991 1.800 . S
C3284 C1987 1.890 . S
C3289 C55 1.608 . S
C3294 C1066 1.590 . S
C3299 C1483 2.184 . S
C3304 C1159 2.053 . S
C3309 C1234 0.845 . S
C3314 C238 0.770 . S
C3319 C1318 1.084 . S
C3324 C1666 0.906 . S
C3329 C2419 1.785 . S
C3334 C1414 1.757 . S
C3339 C1150 0.766 . S
C3344 C1498 0.787 . S
C3349 C1567 2.053 . S
C3354 C2587 2.192 . S
C3359 C1327 1.889 . S
C3364 C1651 1.802 . S
C3369 C1750 1.583 . S
C3374 C2083 1.608 . S
C3379 C1819 2.051 . S
C3384 C823 2.185 . S
C3389 C2242 0.779 . S
C3394 C1918 0.844 . S
C3399 C982 0.901 . S
C3404 C2002 1.082 1_554 S
C3409 C2074 1.757 . S
C3414 C1735 1.785 1_556 S
C3419 C2158 0.783 . S
C3424 C490 0.756 . S
C3429 C2251 2.055 . S
C3434 C1903 2.191 . S
C3439 C2335 1.801 1_554 S
C3444 C643 1.890 . S
C3449 C1399 1.608 . S
C3454 C2410 1.584 . S
C3459 C139 2.184 . S
C3464 C2503 2.052 . S
C3469 C2578 0.844 . S
C3474 C1582 0.770 . S
C3479 C322 0.910 . S
C3484 C2662 1.081 . S
C3489 C403 2.444 . S
C3494 C67 2.389 . S
C3499 C478 2.283 . S
C3504 C151 2.294 . S
C3509 C226 2.235 . S
C3514 C571 2.254 . S
C3519 C655 2.242 . S
C3524 C310 2.204 . S
C3529 C1063 2.443 . S
C3534 C727 2.390 . S
C3539 C811 2.294 . S
C3544 C1162 2.281 . S
C3549 C910 2.236 . S
C3554 C1231 2.255 . S
C3559 C1315 2.243 . S
C3564 C994 2.205 . S
C3569 C1411 2.389 . S
C3574 C1747 2.444 . S
C3579 C1822 2.283 . S
C3584 C1495 2.294 . S
C3589 C1570 2.237 . S
C3594 C1915 2.255 . S
C3599 C1654 2.206 . S
C3604 C1999 2.242 . S
C3609 C2407 2.443 1_556 S
C3614 C2071 2.390 . S
C3619 C2506 2.281 . S
C3624 C2155 2.295 . S
C3629 C2254 2.235 . S
C3634 C2575 2.254 . S
C3639 C2659 2.241 . S
C3644 C2338 2.205 . S
