# Generated by pormake.
# Topology flu-e, (6)-cn, num edge types: 1
# Building blocks:
#     Node 0, Type 0, BuildingBlock: IZENUY_clean_sbu_0, # of connection points: 6
#     Node 1, Type 0, BuildingBlock: IZENUY_clean_sbu_0, # of connection points: 6
#     Node 2, Type 0, BuildingBlock: IZENUY_clean_sbu_0, # of connection points: 6
#     Node 3, Type 0, BuildingBlock: IZENUY_clean_sbu_0, # of connection points: 6
#     Node 4, Type 0, BuildingBlock: IZENUY_clean_sbu_0, # of connection points: 6
#     Node 5, Type 0, BuildingBlock: IZENUY_clean_sbu_0, # of connection points: 6
#     Node 6, Type 0, BuildingBlock: IZENUY_clean_sbu_0, # of connection points: 6
#     Node 7, Type 0, BuildingBlock: IZENUY_clean_sbu_0, # of connection points: 6
#     Node 8, Type 0, BuildingBlock: IZENUY_clean_sbu_0, # of connection points: 6
#     Node 9, Type 0, BuildingBlock: IZENUY_clean_sbu_0, # of connection points: 6
#     Node 10, Type 0, BuildingBlock: IZENUY_clean_sbu_0, # of connection points: 6
#     Node 11, Type 0, BuildingBlock: IZENUY_clean_sbu_0, # of connection points: 6
#     Node 12, Type 0, BuildingBlock: IZENUY_clean_sbu_0, # of connection points: 6
#     Node 13, Type 0, BuildingBlock: IZENUY_clean_sbu_0, # of connection points: 6
#     Node 14, Type 0, BuildingBlock: IZENUY_clean_sbu_0, # of connection points: 6
#     Node 15, Type 0, BuildingBlock: IZENUY_clean_sbu_0, # of connection points: 6
#     Node 16, Type 0, BuildingBlock: IZENUY_clean_sbu_0, # of connection points: 6
#     Node 17, Type 0, BuildingBlock: IZENUY_clean_sbu_0, # of connection points: 6
#     Node 18, Type 0, BuildingBlock: IZENUY_clean_sbu_0, # of connection points: 6
#     Node 19, Type 0, BuildingBlock: IZENUY_clean_sbu_0, # of connection points: 6
#     Node 20, Type 0, BuildingBlock: IZENUY_clean_sbu_0, # of connection points: 6
#     Node 21, Type 0, BuildingBlock: IZENUY_clean_sbu_0, # of connection points: 6
#     Node 22, Type 0, BuildingBlock: IZENUY_clean_sbu_0, # of connection points: 6
#     Node 23, Type 0, BuildingBlock: IZENUY_clean_sbu_0, # of connection points: 6
#     Node 24, Type 0, BuildingBlock: IZENUY_clean_sbu_0, # of connection points: 6
#     Node 25, Type 0, BuildingBlock: IZENUY_clean_sbu_0, # of connection points: 6
#     Node 26, Type 0, BuildingBlock: IZENUY_clean_sbu_0, # of connection points: 6
#     Node 27, Type 0, BuildingBlock: IZENUY_clean_sbu_0, # of connection points: 6
#     Node 28, Type 0, BuildingBlock: IZENUY_clean_sbu_0, # of connection points: 6
#     Node 29, Type 0, BuildingBlock: IZENUY_clean_sbu_0, # of connection points: 6
#     Node 30, Type 0, BuildingBlock: IZENUY_clean_sbu_0, # of connection points: 6
#     Node 31, Type 0, BuildingBlock: IZENUY_clean_sbu_0, # of connection points: 6
#     Edge 32, Type (0, 0), BuildingBlock: ZUJKAS_clean_linker_0, # of connection points: 2
#     Edge 33, Type (0, 0), BuildingBlock: ZUJKAS_clean_linker_0, # of connection points: 2
#     Edge 34, Type (0, 0), BuildingBlock: ZUJKAS_clean_linker_0, # of connection points: 2
#     Edge 35, Type (0, 0), BuildingBlock: ZUJKAS_clean_linker_0, # of connection points: 2
#     Edge 36, Type (0, 0), BuildingBlock: ZUJKAS_clean_linker_0, # of connection points: 2
#     Edge 37, Type (0, 0), BuildingBlock: ZUJKAS_clean_linker_0, # of connection points: 2
#     Edge 38, Type (0, 0), BuildingBlock: ZUJKAS_clean_linker_0, # of connection points: 2
#     Edge 39, Type (0, 0), BuildingBlock: ZUJKAS_clean_linker_0, # of connection points: 2
#     Edge 40, Type (0, 0), BuildingBlock: ZUJKAS_clean_linker_0, # of connection points: 2
#     Edge 41, Type (0, 0), BuildingBlock: ZUJKAS_clean_linker_0, # of connection points: 2
#     Edge 42, Type (0, 0), BuildingBlock: ZUJKAS_clean_linker_0, # of connection points: 2
#     Edge 43, Type (0, 0), BuildingBlock: ZUJKAS_clean_linker_0, # of connection points: 2
#     Edge 44, Type (0, 0), BuildingBlock: ZUJKAS_clean_linker_0, # of connection points: 2
#     Edge 45, Type (0, 0), BuildingBlock: ZUJKAS_clean_linker_0, # of connection points: 2
#     Edge 46, Type (0, 0), BuildingBlock: ZUJKAS_clean_linker_0, # of connection points: 2
#     Edge 47, Type (0, 0), BuildingBlock: ZUJKAS_clean_linker_0, # of connection points: 2
#     Edge 48, Type (0, 0), BuildingBlock: ZUJKAS_clean_linker_0, # of connection points: 2
#     Edge 49, Type (0, 0), BuildingBlock: ZUJKAS_clean_linker_0, # of connection points: 2
#     Edge 50, Type (0, 0), BuildingBlock: ZUJKAS_clean_linker_0, # of connection points: 2
#     Edge 51, Type (0, 0), BuildingBlock: ZUJKAS_clean_linker_0, # of connection points: 2
#     Edge 52, Type (0, 0), BuildingBlock: ZUJKAS_clean_linker_0, # of connection points: 2
#     Edge 53, Type (0, 0), BuildingBlock: ZUJKAS_clean_linker_0, # of connection points: 2
#     Edge 54, Type (0, 0), BuildingBlock: ZUJKAS_clean_linker_0, # of connection points: 2
#     Edge 55, Type (0, 0), BuildingBlock: ZUJKAS_clean_linker_0, # of connection points: 2
#     Edge 56, Type (0, 0), BuildingBlock: ZUJKAS_clean_linker_0, # of connection points: 2
#     Edge 57, Type (0, 0), BuildingBlock: ZUJKAS_clean_linker_0, # of connection points: 2
#     Edge 58, Type (0, 0), BuildingBlock: ZUJKAS_clean_linker_0, # of connection points: 2
#     Edge 59, Type (0, 0), BuildingBlock: ZUJKAS_clean_linker_0, # of connection points: 2
#     Edge 60, Type (0, 0), BuildingBlock: ZUJKAS_clean_linker_0, # of connection points: 2
#     Edge 61, Type (0, 0), BuildingBlock: ZUJKAS_clean_linker_0, # of connection points: 2
#     Edge 62, Type (0, 0), BuildingBlock: ZUJKAS_clean_linker_0, # of connection points: 2
#     Edge 63, Type (0, 0), BuildingBlock: ZUJKAS_clean_linker_0, # of connection points: 2
#     Edge 64, Type (0, 0), BuildingBlock: ZUJKAS_clean_linker_0, # of connection points: 2
#     Edge 65, Type (0, 0), BuildingBlock: ZUJKAS_clean_linker_0, # of connection points: 2
#     Edge 66, Type (0, 0), BuildingBlock: ZUJKAS_clean_linker_0, # of connection points: 2
#     Edge 67, Type (0, 0), BuildingBlock: ZUJKAS_clean_linker_0, # of connection points: 2
#     Edge 68, Type (0, 0), BuildingBlock: ZUJKAS_clean_linker_0, # of connection points: 2
#     Edge 69, Type (0, 0), BuildingBlock: ZUJKAS_clean_linker_0, # of connection points: 2
#     Edge 70, Type (0, 0), BuildingBlock: ZUJKAS_clean_linker_0, # of connection points: 2
#     Edge 71, Type (0, 0), BuildingBlock: ZUJKAS_clean_linker_0, # of connection points: 2
#     Edge 72, Type (0, 0), BuildingBlock: ZUJKAS_clean_linker_0, # of connection points: 2
#     Edge 73, Type (0, 0), BuildingBlock: ZUJKAS_clean_linker_0, # of connection points: 2
#     Edge 74, Type (0, 0), BuildingBlock: ZUJKAS_clean_linker_0, # of connection points: 2
#     Edge 75, Type (0, 0), BuildingBlock: ZUJKAS_clean_linker_0, # of connection points: 2
#     Edge 76, Type (0, 0), BuildingBlock: ZUJKAS_clean_linker_0, # of connection points: 2
#     Edge 77, Type (0, 0), BuildingBlock: ZUJKAS_clean_linker_0, # of connection points: 2
#     Edge 78, Type (0, 0), BuildingBlock: ZUJKAS_clean_linker_0, # of connection points: 2
#     Edge 79, Type (0, 0), BuildingBlock: ZUJKAS_clean_linker_0, # of connection points: 2
#     Edge 80, Type (0, 0), BuildingBlock: ZUJKAS_clean_linker_0, # of connection points: 2
#     Edge 81, Type (0, 0), BuildingBlock: ZUJKAS_clean_linker_0, # of connection points: 2
#     Edge 82, Type (0, 0), BuildingBlock: ZUJKAS_clean_linker_0, # of connection points: 2
#     Edge 83, Type (0, 0), BuildingBlock: ZUJKAS_clean_linker_0, # of connection points: 2
#     Edge 84, Type (0, 0), BuildingBlock: ZUJKAS_clean_linker_0, # of connection points: 2
#     Edge 85, Type (0, 0), BuildingBlock: ZUJKAS_clean_linker_0, # of connection points: 2
#     Edge 86, Type (0, 0), BuildingBlock: ZUJKAS_clean_linker_0, # of connection points: 2
#     Edge 87, Type (0, 0), BuildingBlock: ZUJKAS_clean_linker_0, # of connection points: 2
#     Edge 88, Type (0, 0), BuildingBlock: ZUJKAS_clean_linker_0, # of connection points: 2
#     Edge 89, Type (0, 0), BuildingBlock: ZUJKAS_clean_linker_0, # of connection points: 2
#     Edge 90, Type (0, 0), BuildingBlock: ZUJKAS_clean_linker_0, # of connection points: 2
#     Edge 91, Type (0, 0), BuildingBlock: ZUJKAS_clean_linker_0, # of connection points: 2
#     Edge 92, Type (0, 0), BuildingBlock: ZUJKAS_clean_linker_0, # of connection points: 2
#     Edge 93, Type (0, 0), BuildingBlock: ZUJKAS_clean_linker_0, # of connection points: 2
#     Edge 94, Type (0, 0), BuildingBlock: ZUJKAS_clean_linker_0, # of connection points: 2
#     Edge 95, Type (0, 0), BuildingBlock: ZUJKAS_clean_linker_0, # of connection points: 2
#     Edge 96, Type (0, 0), BuildingBlock: ZUJKAS_clean_linker_0, # of connection points: 2
#     Edge 97, Type (0, 0), BuildingBlock: ZUJKAS_clean_linker_0, # of connection points: 2
#     Edge 98, Type (0, 0), BuildingBlock: ZUJKAS_clean_linker_0, # of connection points: 2
#     Edge 99, Type (0, 0), BuildingBlock: ZUJKAS_clean_linker_0, # of connection points: 2
#     Edge 100, Type (0, 0), BuildingBlock: ZUJKAS_clean_linker_0, # of connection points: 2
#     Edge 101, Type (0, 0), BuildingBlock: ZUJKAS_clean_linker_0, # of connection points: 2
#     Edge 102, Type (0, 0), BuildingBlock: ZUJKAS_clean_linker_0, # of connection points: 2
#     Edge 103, Type (0, 0), BuildingBlock: ZUJKAS_clean_linker_0, # of connection points: 2
#     Edge 104, Type (0, 0), BuildingBlock: ZUJKAS_clean_linker_0, # of connection points: 2
#     Edge 105, Type (0, 0), BuildingBlock: ZUJKAS_clean_linker_0, # of connection points: 2
#     Edge 106, Type (0, 0), BuildingBlock: ZUJKAS_clean_linker_0, # of connection points: 2
#     Edge 107, Type (0, 0), BuildingBlock: ZUJKAS_clean_linker_0, # of connection points: 2
#     Edge 108, Type (0, 0), BuildingBlock: ZUJKAS_clean_linker_0, # of connection points: 2
#     Edge 109, Type (0, 0), BuildingBlock: ZUJKAS_clean_linker_0, # of connection points: 2
#     Edge 110, Type (0, 0), BuildingBlock: ZUJKAS_clean_linker_0, # of connection points: 2
#     Edge 111, Type (0, 0), BuildingBlock: ZUJKAS_clean_linker_0, # of connection points: 2
#     Edge 112, Type (0, 0), BuildingBlock: ZUJKAS_clean_linker_0, # of connection points: 2
#     Edge 113, Type (0, 0), BuildingBlock: ZUJKAS_clean_linker_0, # of connection points: 2
#     Edge 114, Type (0, 0), BuildingBlock: ZUJKAS_clean_linker_0, # of connection points: 2
#     Edge 115, Type (0, 0), BuildingBlock: ZUJKAS_clean_linker_0, # of connection points: 2
#     Edge 116, Type (0, 0), BuildingBlock: ZUJKAS_clean_linker_0, # of connection points: 2
#     Edge 117, Type (0, 0), BuildingBlock: ZUJKAS_clean_linker_0, # of connection points: 2
#     Edge 118, Type (0, 0), BuildingBlock: ZUJKAS_clean_linker_0, # of connection points: 2
#     Edge 119, Type (0, 0), BuildingBlock: ZUJKAS_clean_linker_0, # of connection points: 2
#     Edge 120, Type (0, 0), BuildingBlock: ZUJKAS_clean_linker_0, # of connection points: 2
#     Edge 121, Type (0, 0), BuildingBlock: ZUJKAS_clean_linker_0, # of connection points: 2
#     Edge 122, Type (0, 0), BuildingBlock: ZUJKAS_clean_linker_0, # of connection points: 2
#     Edge 123, Type (0, 0), BuildingBlock: ZUJKAS_clean_linker_0, # of connection points: 2
#     Edge 124, Type (0, 0), BuildingBlock: ZUJKAS_clean_linker_0, # of connection points: 2
#     Edge 125, Type (0, 0), BuildingBlock: ZUJKAS_clean_linker_0, # of connection points: 2
#     Edge 126, Type (0, 0), BuildingBlock: ZUJKAS_clean_linker_0, # of connection points: 2
#     Edge 127, Type (0, 0), BuildingBlock: ZUJKAS_clean_linker_0, # of connection points: 2
# Relax obj value: 0.167
# Max RMSD: 0.165
# Mean RMSD: 0.165
data_MOF--net-flu-e--node1-IZENUY_clean_sbu_0--edge1-ZUJKAS_clean_linker_0
_symmetry_space_group_name_H-M    P1
_symmetry_Int_Tables_number       1
_symmetry_cell_setting            triclinic
loop_
_symmetry_equiv_pos_as_xyz
'x, y, z'
_cell_length_a     68.92842
_cell_length_b     68.923622
_cell_length_c     68.918938
_cell_angle_alpha  89.99583
_cell_angle_beta   89.997597
_cell_angle_gamma 89.999506
loop_
_atom_site_label
_atom_site_type_symbol
_atom_site_fract_x
_atom_site_fract_y
_atom_site_fract_z
_atom_type_partial_charge
Fe0 Fe 0.13627 0.16812 0.36333 0.0
Fe1 Fe 0.16909 0.13803 0.36405 0.0
O2 O 0.14778 0.14751 0.35327 0.0
Fe3 Fe 0.13809 0.13645 0.33221 0.0
O4 O 0.14133 0.15848 0.31829 0.0
O5 O 0.12797 0.17782 0.33984 0.0
O6 O 0.15785 0.18276 0.3601 0.0
C7 C 0.17445 0.17863 0.36655 0.0
C8 C 0.10455 0.1466 0.35374 0.0
O9 O 0.17826 0.16163 0.37244 0.0
C10 C 0.14789 0.10445 0.35319 0.0
O11 O 0.14264 0.16218 0.38854 0.0
O12 O 0.15674 0.13359 0.38684 0.0
O13 O 0.11272 0.14251 0.33779 0.0
O14 O 0.11388 0.15479 0.36716 0.0
C15 C 0.17852 0.13517 0.32567 0.0
O16 O 0.16377 0.11269 0.35748 0.0
O17 O 0.1344 0.11373 0.345 0.0
C18 C 0.14787 0.14641 0.39644 0.0
O19 O 0.18288 0.14203 0.34204 0.0
O20 O 0.16168 0.12848 0.32255 0.0
C21 C 0.13441 0.17479 0.32287 0.0
Fe22 Fe 0.86253 0.16877 0.36478 0.0
Fe23 Fe 0.86467 0.13813 0.33262 0.0
O24 O 0.85306 0.14779 0.35337 0.0
Fe25 Fe 0.83188 0.13666 0.36264 0.0
O26 O 0.81789 0.1586 0.35888 0.0
O27 O 0.83884 0.17805 0.3729 0.0
O28 O 0.85922 0.18297 0.34295 0.0
C29 C 0.86628 0.17874 0.32661 0.0
C30 C 0.8529 0.14728 0.39651 0.0
O31 O 0.87281 0.16184 0.3233 0.0
C32 C 0.85339 0.10459 0.35384 0.0
O33 O 0.88797 0.16348 0.35868 0.0
O34 O 0.88705 0.13428 0.34595 0.0
O35 O 0.83712 0.14285 0.38811 0.0
O36 O 0.86628 0.15576 0.38732 0.0
C37 C 0.82658 0.13467 0.32199 0.0
O38 O 0.85847 0.11274 0.33814 0.0
O39 O 0.84452 0.114 0.3668 0.0
C40 C 0.89625 0.14764 0.3544 0.0
O41 O 0.8431 0.14141 0.31799 0.0
O42 O 0.82281 0.1285 0.33889 0.0
C43 C 0.82208 0.17486 0.36609 0.0
Fe44 Fe 0.83221 0.86471 0.36285 0.0
Fe45 Fe 0.86478 0.86294 0.33254 0.0
O46 O 0.85323 0.85334 0.3534 0.0
Fe47 Fe 0.86258 0.83224 0.36468 0.0
O48 O 0.83882 0.82298 0.3726 0.0
O49 O 0.81789 0.84297 0.35932 0.0
O50 O 0.82305 0.87291 0.33914 0.0
C51 C 0.82663 0.86665 0.32222 0.0
C52 C 0.85323 0.85373 0.39658 0.0
O53 O 0.84307 0.85978 0.31812 0.0
C54 C 0.89645 0.85329 0.3542 0.0
O55 O 0.84514 0.88721 0.36689 0.0
O56 O 0.85879 0.88837 0.33809 0.0
O57 O 0.86639 0.84501 0.38733 0.0
O58 O 0.83751 0.8585 0.38828 0.0
C59 C 0.86627 0.82237 0.32643 0.0
O60 O 0.8873 0.8666 0.34559 0.0
O61 O 0.88806 0.83757 0.35875 0.0
C62 C 0.85394 0.89655 0.35385 0.0
O63 O 0.87277 0.83925 0.32312 0.0
O64 O 0.85926 0.81813 0.34278 0.0
C65 C 0.82196 0.82653 0.3662 0.0
Fe66 Fe 0.13648 0.8621 0.3327 0.0
Fe67 Fe 0.16858 0.86456 0.3634 0.0
O68 O 0.14786 0.85285 0.35381 0.0
Fe69 Fe 0.13861 0.83174 0.3651 0.0
O70 O 0.14247 0.81758 0.34329 0.0
O71 O 0.12845 0.83831 0.32361 0.0
O72 O 0.15835 0.85872 0.31858 0.0
C73 C 0.17466 0.86586 0.32278 0.0
C74 C 0.10473 0.85261 0.35422 0.0
O75 O 0.17793 0.87251 0.33963 0.0
C76 C 0.14733 0.85349 0.39701 0.0
O77 O 0.14251 0.8876 0.3378 0.0
O78 O 0.15522 0.88696 0.36702 0.0
O79 O 0.11315 0.83689 0.35883 0.0
O80 O 0.11389 0.86591 0.34559 0.0
C81 C 0.17926 0.82651 0.3672 0.0
O82 O 0.16302 0.85856 0.38884 0.0
O83 O 0.13439 0.84456 0.38765 0.0
C84 C 0.1468 0.89603 0.35356 0.0
O85 O 0.18324 0.84298 0.36033 0.0
O86 O 0.16235 0.82278 0.37338 0.0
C87 C 0.13536 0.82163 0.32695 0.0
Fe88 Fe 0.13828 0.83183 0.63711 0.0
Fe89 Fe 0.16881 0.86417 0.63866 0.0
O90 O 0.14784 0.85289 0.6483 0.0
Fe91 Fe 0.13657 0.86254 0.66928 0.0
O92 O 0.12847 0.83892 0.67876 0.0
O93 O 0.14166 0.81772 0.65898 0.0
O94 O 0.16197 0.82242 0.62908 0.0
C95 C 0.17887 0.82595 0.6354 0.0
C96 C 0.10466 0.85318 0.64783 0.0
O97 O 0.18305 0.84242 0.64213 0.0
C98 C 0.14733 0.89609 0.64784 0.0
O99 O 0.1344 0.84458 0.61446 0.0
O100 O 0.16331 0.85794 0.61328 0.0
O101 O 0.114 0.86637 0.6564 0.0
O102 O 0.11286 0.83737 0.6432 0.0
C103 C 0.17479 0.86606 0.67923 0.0
O104 O 0.1559 0.8867 0.63469 0.0
O105 O 0.14269 0.88794 0.66368 0.0
C106 C 0.14753 0.8532 0.60509 0.0
O107 O 0.1782 0.87237 0.6623 0.0
O108 O 0.15839 0.85921 0.68348 0.0
C109 C 0.13481 0.82199 0.67538 0.0
Fe110 Fe 0.13678 0.13771 0.66873 0.0
Fe111 Fe 0.16921 0.13594 0.63826 0.0
O112 O 0.14819 0.14728 0.64777 0.0
Fe113 Fe 0.13875 0.16836 0.63649 0.0
O114 O 0.1421 0.1825 0.65838 0.0
O115 O 0.12873 0.16136 0.6781 0.0
O116 O 0.15855 0.141 0.68303 0.0
C117 C 0.17498 0.13415 0.67887 0.0
C118 C 0.10499 0.14716 0.64713 0.0
O119 O 0.1785 0.12784 0.66196 0.0
C120 C 0.14806 0.14687 0.60457 0.0
O121 O 0.14283 0.1123 0.66322 0.0
O122 O 0.15631 0.11339 0.63434 0.0
O123 O 0.1133 0.16291 0.64245 0.0
O124 O 0.11421 0.13395 0.65582 0.0
C125 C 0.17933 0.17419 0.6349 0.0
O126 O 0.16378 0.14204 0.61283 0.0
O127 O 0.13494 0.15563 0.61384 0.0
C128 C 0.14757 0.10408 0.64745 0.0
O129 O 0.18349 0.15773 0.64168 0.0
O130 O 0.16245 0.17769 0.62852 0.0
C131 C 0.13522 0.17823 0.67477 0.0
Fe132 Fe 0.8636 0.13726 0.66873 0.0
Fe133 Fe 0.86476 0.16981 0.63838 0.0
O134 O 0.85375 0.14864 0.64789 0.0
Fe135 Fe 0.8327 0.13903 0.63675 0.0
O136 O 0.81872 0.14225 0.65877 0.0
O137 O 0.84009 0.12883 0.67823 0.0
O138 O 0.86015 0.15896 0.68314 0.0
C139 C 0.8668 0.17547 0.67894 0.0
C140 C 0.85432 0.10544 0.64716 0.0
O141 O 0.87302 0.17904 0.66202 0.0
C142 C 0.8538 0.14871 0.6047 0.0
O143 O 0.88891 0.14361 0.66302 0.0
O144 O 0.88741 0.15719 0.63419 0.0
O145 O 0.83845 0.11359 0.64261 0.0
O146 O 0.86752 0.1148 0.65569 0.0
C147 C 0.82642 0.17956 0.63533 0.0
O148 O 0.85842 0.16446 0.61301 0.0
O149 O 0.84535 0.13539 0.61399 0.0
C150 C 0.89693 0.14853 0.6472 0.0
O151 O 0.84286 0.18384 0.6421 0.0
O152 O 0.82307 0.16267 0.6289 0.0
C153 C 0.82316 0.13523 0.67506 0.0
Fe154 Fe 0.86487 0.86353 0.66882 0.0
Fe155 Fe 0.8323 0.8653 0.63848 0.0
O156 O 0.8534 0.85401 0.64788 0.0
Fe157 Fe 0.86289 0.83303 0.63648 0.0
O158 O 0.85959 0.81876 0.65826 0.0
O159 O 0.8729 0.8398 0.67813 0.0
O160 O 0.84315 0.86023 0.6832 0.0
C161 C 0.82669 0.86704 0.67912 0.0
C162 C 0.89663 0.85416 0.64714 0.0
O163 O 0.82305 0.8733 0.66222 0.0
C164 C 0.85344 0.85459 0.60469 0.0
O165 O 0.85883 0.88896 0.66335 0.0
O166 O 0.84501 0.88796 0.6346 0.0
O167 O 0.88834 0.83842 0.64249 0.0
O168 O 0.88738 0.86735 0.65582 0.0
C169 C 0.82233 0.82707 0.63495 0.0
O170 O 0.83769 0.85927 0.613 0.0
O171 O 0.86666 0.84598 0.61394 0.0
C172 C 0.85382 0.89723 0.64769 0.0
O173 O 0.81815 0.84345 0.6419 0.0
O174 O 0.83919 0.82369 0.62845 0.0
C175 C 0.86651 0.82291 0.67466 0.0
Fe176 Fe 0.36262 0.1363 0.16838 0.0
Fe177 Fe 0.36418 0.16871 0.13796 0.0
O178 O 0.35307 0.14757 0.14738 0.0
Fe179 Fe 0.3322 0.13788 0.13595 0.0
O180 O 0.31784 0.14123 0.15771 0.0
O181 O 0.33897 0.12804 0.17759 0.0
O182 O 0.35901 0.15805 0.18266 0.0
C183 C 0.36574 0.17453 0.17852 0.0
C184 C 0.35358 0.10436 0.14685 0.0
O185 O 0.37216 0.17805 0.16166 0.0
C186 C 0.35382 0.14737 0.10423 0.0
O187 O 0.38801 0.14262 0.16298 0.0
O188 O 0.38691 0.15609 0.13409 0.0
O189 O 0.33777 0.11251 0.14215 0.0
O190 O 0.36671 0.11377 0.15546 0.0
C191 C 0.32591 0.17832 0.13434 0.0
O192 O 0.35819 0.16323 0.1125 0.0
O193 O 0.34528 0.13408 0.11348 0.0
C194 C 0.39626 0.14748 0.14726 0.0
O195 O 0.34218 0.18266 0.14145 0.0
O196 O 0.32277 0.16149 0.12769 0.0
C197 C 0.32207 0.13443 0.17415 0.0
Fe198 Fe 0.86231 0.36466 0.16932 0.0
Fe199 Fe 0.83181 0.36318 0.1369 0.0
O200 O 0.85276 0.35352 0.14822 0.0
Fe201 Fe 0.86403 0.33254 0.13854 0.0
O202 O 0.87214 0.32304 0.16214 0.0
O203 O 0.85892 0.34273 0.18338 0.0
O204 O 0.83863 0.37267 0.17874 0.0
C205 C 0.8217 0.36647 0.17515 0.0
C206 C 0.89594 0.35398 0.14793 0.0
O207 O 0.81752 0.35977 0.15867 0.0
C208 C 0.8533 0.35396 0.10499 0.0
O209 O 0.86619 0.38738 0.1567 0.0
O210 O 0.83736 0.38854 0.14309 0.0
O211 O 0.8866 0.34541 0.13473 0.0
O212 O 0.88773 0.3586 0.16375 0.0
C213 C 0.82579 0.32263 0.13505 0.0
O214 O 0.84473 0.36712 0.11437 0.0
O215 O 0.85791 0.33813 0.11314 0.0
C216 C 0.8531 0.39672 0.14796 0.0
O217 O 0.8224 0.33956 0.12872 0.0
O218 O 0.84219 0.31834 0.14188 0.0
C219 C 0.86579 0.32635 0.17907 0.0
Fe220 Fe 0.66836 0.86289 0.13679 0.0
Fe221 Fe 0.6381 0.86437 0.16938 0.0
O222 O 0.64742 0.85331 0.14816 0.0
Fe223 Fe 0.63592 0.83247 0.13847 0.0
O224 O 0.65766 0.81808 0.14166 0.0
O225 O 0.67757 0.83921 0.1285 0.0
O226 O 0.68276 0.8593 0.15845 0.0
C227 C 0.67872 0.86599 0.17497 0.0
C228 C 0.64667 0.8539 0.10494 0.0
O229 O 0.66185 0.8723 0.17865 0.0
C230 C 0.60427 0.85409 0.14814 0.0
O231 O 0.66297 0.88828 0.14314 0.0
O232 O 0.63418 0.88713 0.15683 0.0
O233 O 0.642 0.83808 0.11307 0.0
O234 O 0.65535 0.86699 0.11433 0.0
C235 C 0.63445 0.8261 0.17893 0.0
O236 O 0.6126 0.85841 0.16398 0.0
O237 O 0.61348 0.84559 0.1348 0.0
C238 C 0.64728 0.8965 0.14813 0.0
O239 O 0.64162 0.84234 0.18326 0.0
O240 O 0.62776 0.82298 0.1621 0.0
C241 C 0.67408 0.82228 0.13478 0.0
Fe242 Fe 0.13607 0.63787 0.16898 0.0
Fe243 Fe 0.1685 0.63577 0.13856 0.0
O244 O 0.1476 0.6473 0.14804 0.0
Fe245 Fe 0.13833 0.66845 0.13681 0.0
O246 O 0.14204 0.68248 0.15871 0.0
O247 O 0.12795 0.6616 0.17819 0.0
O248 O 0.15779 0.64119 0.18333 0.0
C249 C 0.17423 0.63432 0.17922 0.0
C250 C 0.10446 0.64741 0.14728 0.0
O251 O 0.17776 0.62784 0.16235 0.0
C252 C 0.14732 0.64687 0.10487 0.0
O253 O 0.14212 0.61242 0.16372 0.0
O254 O 0.15547 0.61324 0.1348 0.0
O255 O 0.11283 0.66321 0.1429 0.0
O256 O 0.11362 0.63409 0.15587 0.0
C257 C 0.17893 0.67394 0.13497 0.0
O258 O 0.16299 0.64177 0.1131 0.0
O259 O 0.13431 0.65575 0.11419 0.0
C260 C 0.14678 0.60405 0.14803 0.0
O261 O 0.18297 0.65747 0.1418 0.0
O262 O 0.16205 0.67756 0.12868 0.0
C263 C 0.13491 0.6783 0.17501 0.0
Fe264 Fe 0.33269 0.86314 0.86499 0.0
Fe265 Fe 0.36292 0.86465 0.83236 0.0
O266 O 0.3535 0.85345 0.85345 0.0
Fe267 Fe 0.3647 0.83234 0.86287 0.0
O268 O 0.34272 0.81838 0.85943 0.0
O269 O 0.3233 0.83952 0.87325 0.0
O270 O 0.31819 0.85985 0.84334 0.0
C271 C 0.32229 0.86662 0.82686 0.0
C272 C 0.35436 0.85363 0.89665 0.0
O273 O 0.33921 0.87284 0.82321 0.0
C274 C 0.39666 0.85364 0.8534 0.0
O275 O 0.33825 0.88851 0.85879 0.0
O276 O 0.36704 0.88723 0.84516 0.0
O277 O 0.35875 0.83779 0.88837 0.0
O278 O 0.34588 0.86694 0.88739 0.0
C279 C 0.36616 0.82641 0.82231 0.0
O280 O 0.38833 0.8584 0.8377 0.0
O281 O 0.38742 0.84502 0.86665 0.0
C282 C 0.35402 0.89664 0.85392 0.0
O283 O 0.35929 0.84284 0.81817 0.0
O284 O 0.37265 0.82298 0.83916 0.0
C285 C 0.32644 0.82272 0.86651 0.0
Fe286 Fe 0.13726 0.36235 0.83254 0.0
Fe287 Fe 0.16881 0.36432 0.86377 0.0
O288 O 0.14827 0.35274 0.85366 0.0
Fe289 Fe 0.13878 0.33144 0.86446 0.0
O290 O 0.1429 0.3176 0.84252 0.0
O291 O 0.12936 0.33872 0.82293 0.0
O292 O 0.15934 0.3591 0.81871 0.0
C293 C 0.17562 0.36606 0.8233 0.0
C294 C 0.10521 0.35258 0.85344 0.0
O295 O 0.17861 0.37253 0.84028 0.0
C296 C 0.14694 0.35283 0.89681 0.0
O297 O 0.14328 0.38776 0.83804 0.0
O298 O 0.15545 0.38671 0.86745 0.0
O299 O 0.11346 0.3367 0.85777 0.0
O300 O 0.11451 0.36606 0.84525 0.0
C301 C 0.17939 0.32619 0.86724 0.0
O302 O 0.16276 0.35805 0.88898 0.0
O303 O 0.13421 0.34388 0.88717 0.0
C304 C 0.14732 0.39599 0.85396 0.0
O305 O 0.1835 0.34276 0.8607 0.0
O306 O 0.16237 0.32234 0.873 0.0
C307 C 0.13606 0.3219 0.82612 0.0
Fe308 Fe 0.6393 0.13613 0.8324 0.0
Fe309 Fe 0.6372 0.16898 0.86234 0.0
O310 O 0.6486 0.14784 0.85328 0.0
Fe311 Fe 0.66954 0.1386 0.86492 0.0
O312 O 0.68391 0.14192 0.84314 0.0
O313 O 0.6631 0.12792 0.82347 0.0
O314 O 0.64273 0.15771 0.81779 0.0
C315 C 0.63576 0.17417 0.82166 0.0
C316 C 0.64859 0.10467 0.85443 0.0
O317 O 0.62927 0.17787 0.83846 0.0
C318 C 0.64767 0.14821 0.89642 0.0
O319 O 0.61383 0.14227 0.83755 0.0
O320 O 0.61458 0.15617 0.86625 0.0
O321 O 0.66431 0.11307 0.85903 0.0
O322 O 0.63538 0.11379 0.84566 0.0
C323 C 0.67533 0.17909 0.86602 0.0
O324 O 0.64312 0.16389 0.88791 0.0
O325 O 0.65643 0.1349 0.88739 0.0
C326 C 0.60542 0.14727 0.85314 0.0
O327 O 0.65906 0.18314 0.85877 0.0
O328 O 0.67863 0.1624 0.87294 0.0
C329 C 0.67987 0.13465 0.82686 0.0
Fe330 Fe 0.8651 0.66954 0.86273 0.0
Fe331 Fe 0.86349 0.63691 0.83248 0.0
O332 O 0.85394 0.64835 0.85341 0.0
Fe333 Fe 0.83307 0.63877 0.86492 0.0
O334 O 0.82362 0.66244 0.87287 0.0
O335 O 0.84316 0.68355 0.85921 0.0
O336 O 0.87312 0.67872 0.83897 0.0
C337 C 0.86676 0.67509 0.82211 0.0
C338 C 0.85459 0.64853 0.89662 0.0
O339 O 0.86 0.6586 0.81808 0.0
C340 C 0.85435 0.60511 0.8542 0.0
O341 O 0.88775 0.65685 0.8667 0.0
O342 O 0.88889 0.64314 0.83791 0.0
O343 O 0.84611 0.63515 0.88747 0.0
O344 O 0.85905 0.66428 0.8882 0.0
C345 C 0.82288 0.63499 0.82675 0.0
O346 O 0.86747 0.6144 0.84546 0.0
O347 O 0.83861 0.61336 0.85897 0.0
C348 C 0.89708 0.64805 0.85365 0.0
O349 O 0.8398 0.62871 0.82324 0.0
O350 O 0.81871 0.6419 0.84316 0.0
C351 C 0.82683 0.67928 0.86623 0.0
Fe352 Fe 0.16828 0.36225 0.13664 0.0
Fe353 Fe 0.13761 0.36417 0.1688 0.0
O354 O 0.14723 0.35275 0.14791 0.0
Fe355 Fe 0.136 0.33169 0.13844 0.0
O356 O 0.15789 0.31755 0.14199 0.0
O357 O 0.17756 0.33859 0.12841 0.0
O358 O 0.18244 0.35877 0.15851 0.0
C359 C 0.17814 0.3657 0.17489 0.0
C360 C 0.14678 0.35298 0.10478 0.0
O361 O 0.16127 0.37225 0.17816 0.0
C362 C 0.10402 0.35317 0.14755 0.0
O363 O 0.16291 0.38766 0.14281 0.0
O364 O 0.13381 0.38669 0.15576 0.0
O365 O 0.14212 0.33717 0.113 0.0
O366 O 0.15543 0.36616 0.11408 0.0
C367 C 0.13415 0.32598 0.17904 0.0
O368 O 0.11222 0.35803 0.16329 0.0
O369 O 0.11338 0.34446 0.13446 0.0
C370 C 0.14712 0.39596 0.14729 0.0
O371 O 0.14094 0.34244 0.18318 0.0
O372 O 0.12788 0.32241 0.16213 0.0
C373 C 0.17421 0.32175 0.13494 0.0
Fe374 Fe 0.16955 0.63821 0.86478 0.0
Fe375 Fe 0.13857 0.63594 0.83296 0.0
O376 O 0.1483 0.6475 0.85371 0.0
Fe377 Fe 0.13699 0.66847 0.86323 0.0
O378 O 0.15873 0.68276 0.85946 0.0
O379 O 0.17866 0.66193 0.87298 0.0
O380 O 0.18342 0.64188 0.84278 0.0
C381 C 0.17908 0.63482 0.82647 0.0
C382 C 0.1482 0.64724 0.8968 0.0
O383 O 0.16226 0.62804 0.82339 0.0
C384 C 0.10507 0.64679 0.85444 0.0
O385 O 0.16443 0.61274 0.85856 0.0
O386 O 0.13505 0.61348 0.84622 0.0
O387 O 0.14336 0.66301 0.88861 0.0
O388 O 0.15694 0.63414 0.88746 0.0
C389 C 0.13471 0.67407 0.82262 0.0
O390 O 0.11318 0.64189 0.83867 0.0
O391 O 0.11449 0.65557 0.86743 0.0
C392 C 0.14859 0.60436 0.85448 0.0
O393 O 0.14154 0.65763 0.81845 0.0
O394 O 0.12863 0.67766 0.8396 0.0
C395 C 0.17514 0.6787 0.86638 0.0
Fe396 Fe 0.36526 0.16886 0.86251 0.0
Fe397 Fe 0.36348 0.1366 0.8319 0.0
O398 O 0.35397 0.14785 0.85295 0.0
Fe399 Fe 0.33302 0.13821 0.86429 0.0
O400 O 0.32363 0.16183 0.87247 0.0
O401 O 0.34341 0.18303 0.85927 0.0
O402 O 0.3732 0.17831 0.83881 0.0
C403 C 0.3668 0.17485 0.82192 0.0
C404 C 0.35459 0.14749 0.89615 0.0
O405 O 0.35998 0.15841 0.81773 0.0
C406 C 0.35435 0.10464 0.85337 0.0
O407 O 0.38791 0.15605 0.86625 0.0
O408 O 0.38888 0.14277 0.83728 0.0
O409 O 0.34597 0.13432 0.88682 0.0
O410 O 0.35927 0.16328 0.88794 0.0
C411 C 0.3229 0.13479 0.82609 0.0
O412 O 0.36747 0.11402 0.84473 0.0
O413 O 0.33855 0.11281 0.8581 0.0
C414 C 0.39718 0.14746 0.85302 0.0
O415 O 0.3398 0.12845 0.82261 0.0
O416 O 0.31872 0.14161 0.84253 0.0
C417 C 0.32703 0.17877 0.86618 0.0
Fe418 Fe 0.86292 0.36484 0.83249 0.0
Fe419 Fe 0.86506 0.33294 0.86336 0.0
O420 O 0.85362 0.3538 0.85374 0.0
Fe421 Fe 0.83276 0.36344 0.8652 0.0
O422 O 0.81828 0.3599 0.84355 0.0
O423 O 0.83919 0.37297 0.8234 0.0
O424 O 0.85922 0.34286 0.81858 0.0
C425 C 0.86627 0.32655 0.82288 0.0
C426 C 0.854 0.39693 0.85387 0.0
O427 O 0.87302 0.32344 0.8397 0.0
C428 C 0.85453 0.35438 0.89696 0.0
O429 O 0.88837 0.35858 0.83767 0.0
O430 O 0.88762 0.34602 0.86699 0.0
O431 O 0.83825 0.38877 0.8588 0.0
O432 O 0.86705 0.38754 0.8451 0.0
C433 C 0.82687 0.32295 0.86707 0.0
O434 O 0.8591 0.33854 0.88879 0.0
O435 O 0.84588 0.36751 0.88761 0.0
C436 C 0.89676 0.35431 0.85347 0.0
O437 O 0.84324 0.31869 0.86012 0.0
O438 O 0.82352 0.33981 0.8736 0.0
C439 C 0.82232 0.36667 0.82705 0.0
Fe440 Fe 0.6386 0.86447 0.83263 0.0
Fe441 Fe 0.66908 0.86289 0.865 0.0
O442 O 0.6481 0.85328 0.85372 0.0
Fe443 Fe 0.63679 0.83233 0.86339 0.0
O444 O 0.62874 0.82283 0.83978 0.0
O445 O 0.64197 0.84255 0.81854 0.0
O446 O 0.66229 0.87246 0.82326 0.0
C447 C 0.67918 0.8661 0.82676 0.0
C448 C 0.60491 0.85379 0.8539 0.0
O449 O 0.68336 0.85934 0.84323 0.0
C450 C 0.64752 0.85383 0.89691 0.0
O451 O 0.63474 0.88718 0.84534 0.0
O452 O 0.66367 0.88823 0.85869 0.0
O453 O 0.61418 0.8452 0.86714 0.0
O454 O 0.61319 0.85842 0.83813 0.0
C455 C 0.67504 0.8224 0.86693 0.0
O456 O 0.65615 0.86695 0.88751 0.0
O457 O 0.64287 0.83799 0.88879 0.0
C458 C 0.64793 0.89649 0.85397 0.0
O459 O 0.67838 0.83931 0.8733 0.0
O460 O 0.65863 0.8181 0.8601 0.0
C461 C 0.63513 0.82615 0.82286 0.0
Fe462 Fe 0.86471 0.63811 0.16875 0.0
Fe463 Fe 0.86276 0.66906 0.13685 0.0
O464 O 0.8532 0.64799 0.14801 0.0
Fe465 Fe 0.832 0.63696 0.13858 0.0
O466 O 0.82284 0.62869 0.16225 0.0
O467 O 0.84309 0.64141 0.18329 0.0
O468 O 0.873 0.66164 0.1783 0.0
C469 C 0.86659 0.67859 0.17517 0.0
C470 C 0.85335 0.60478 0.14725 0.0
O471 O 0.85962 0.68304 0.15886 0.0
C472 C 0.85301 0.64797 0.10483 0.0
O473 O 0.88711 0.63429 0.15557 0.0
O474 O 0.88821 0.66342 0.14268 0.0
O475 O 0.84459 0.6143 0.13432 0.0
O476 O 0.85842 0.6128 0.16302 0.0
C477 C 0.82222 0.67528 0.13555 0.0
O478 O 0.86635 0.65639 0.1141 0.0
O479 O 0.83728 0.64332 0.11317 0.0
C480 C 0.89642 0.64755 0.14707 0.0
O481 O 0.83908 0.67865 0.12905 0.0
O482 O 0.81799 0.65885 0.14235 0.0
C483 C 0.82656 0.63479 0.1792 0.0
Fe484 Fe 0.36257 0.86446 0.16897 0.0
Fe485 Fe 0.33195 0.86253 0.13673 0.0
O486 O 0.35301 0.85308 0.14801 0.0
Fe487 Fe 0.36442 0.83212 0.13847 0.0
O488 O 0.37256 0.82286 0.16216 0.0
O489 O 0.35923 0.84267 0.18324 0.0
O490 O 0.33891 0.87255 0.17834 0.0
C491 C 0.32202 0.86613 0.17498 0.0
C492 C 0.39623 0.85374 0.14773 0.0
O493 O 0.31779 0.85919 0.1586 0.0
C494 C 0.35344 0.85322 0.10479 0.0
O495 O 0.36638 0.88699 0.15602 0.0
O496 O 0.33741 0.888 0.14271 0.0
O497 O 0.38693 0.84511 0.13454 0.0
O498 O 0.38799 0.85838 0.16351 0.0
C499 C 0.32623 0.82187 0.13508 0.0
O500 O 0.34472 0.86636 0.11408 0.0
O501 O 0.35825 0.83751 0.11305 0.0
C502 C 0.35319 0.89626 0.14735 0.0
O503 O 0.32263 0.83877 0.12878 0.0
O504 O 0.3427 0.81778 0.14189 0.0
C505 C 0.36617 0.82628 0.17906 0.0
Fe506 Fe 0.63819 0.13663 0.16901 0.0
Fe507 Fe 0.6684 0.13825 0.13631 0.0
O508 O 0.6476 0.14791 0.14792 0.0
Fe509 Fe 0.63638 0.16904 0.13855 0.0
O510 O 0.62844 0.17834 0.16227 0.0
O511 O 0.64174 0.15843 0.18324 0.0
O512 O 0.66193 0.12851 0.17818 0.0
C513 C 0.67885 0.1347 0.17446 0.0
C514 C 0.60444 0.14762 0.14794 0.0
O515 O 0.68289 0.14144 0.15795 0.0
C516 C 0.64673 0.14792 0.10468 0.0
O517 O 0.63413 0.11404 0.15621 0.0
O518 O 0.66285 0.11285 0.1424 0.0
O519 O 0.61371 0.15631 0.13476 0.0
O520 O 0.61274 0.14282 0.16366 0.0
C521 C 0.67464 0.17875 0.13486 0.0
O522 O 0.65525 0.13456 0.11384 0.0
O523 O 0.6423 0.16368 0.11308 0.0
C524 C 0.64714 0.10467 0.14738 0.0
O525 O 0.67782 0.1619 0.12824 0.0
O526 O 0.65833 0.18307 0.1419 0.0
C527 C 0.6349 0.17487 0.17912 0.0
Fe528 Fe 0.36347 0.6367 0.669 0.0
Fe529 Fe 0.36507 0.66867 0.63807 0.0
O530 O 0.35379 0.64779 0.64792 0.0
Fe531 Fe 0.33269 0.63818 0.63686 0.0
O532 O 0.31863 0.64175 0.65877 0.0
O533 O 0.33988 0.62873 0.6786 0.0
O534 O 0.36018 0.65869 0.68299 0.0
C535 C 0.36699 0.67506 0.67853 0.0
C536 C 0.354 0.60461 0.64782 0.0
O537 O 0.37336 0.67824 0.66158 0.0
C538 C 0.35397 0.64715 0.60471 0.0
O539 O 0.38886 0.64271 0.66326 0.0
O540 O 0.38757 0.6557 0.63416 0.0
O541 O 0.33823 0.61282 0.6431 0.0
O542 O 0.36721 0.61393 0.6564 0.0
C543 C 0.32683 0.67875 0.63483 0.0
O544 O 0.35876 0.66298 0.61276 0.0
O545 O 0.34535 0.6341 0.6142 0.0
C546 C 0.39697 0.64719 0.64735 0.0
O547 O 0.34333 0.68299 0.64148 0.0
O548 O 0.32329 0.66179 0.62867 0.0
C549 C 0.32295 0.63505 0.67522 0.0
Fe550 Fe 0.66868 0.3654 0.6386 0.0
Fe551 Fe 0.6368 0.36312 0.66951 0.0
O552 O 0.64787 0.35386 0.64825 0.0
Fe553 Fe 0.63824 0.33301 0.63677 0.0
O554 O 0.66189 0.32375 0.62846 0.0
O555 O 0.68307 0.34364 0.64158 0.0
O556 O 0.67824 0.37323 0.66233 0.0
C557 C 0.67506 0.36647 0.67915 0.0
C558 C 0.64726 0.35481 0.605 0.0
O559 O 0.65874 0.35942 0.68341 0.0
C560 C 0.60471 0.35424 0.64812 0.0
O561 O 0.65552 0.38791 0.6351 0.0
O562 O 0.643 0.38861 0.66442 0.0
O563 O 0.63418 0.3461 0.61435 0.0
O564 O 0.66305 0.35953 0.61317 0.0
C565 C 0.63502 0.3225 0.67488 0.0
O566 O 0.61413 0.36725 0.65689 0.0
O567 O 0.61286 0.33849 0.64313 0.0
C568 C 0.64717 0.39701 0.64859 0.0
O569 O 0.62868 0.33935 0.67858 0.0
O570 O 0.64178 0.31852 0.65838 0.0
C571 C 0.67886 0.32724 0.63467 0.0
Fe572 Fe 0.33197 0.36309 0.36441 0.0
Fe573 Fe 0.36236 0.36411 0.33193 0.0
O574 O 0.35274 0.35317 0.35308 0.0
Fe575 Fe 0.36378 0.33213 0.3628 0.0
O576 O 0.34182 0.31815 0.35935 0.0
O577 O 0.32235 0.33956 0.37269 0.0
O578 O 0.31758 0.35972 0.34268 0.0
C579 C 0.32183 0.36634 0.32617 0.0
C580 C 0.35329 0.3536 0.39629 0.0
O581 O 0.33879 0.37247 0.32261 0.0
C582 C 0.39582 0.35321 0.35331 0.0
O583 O 0.33777 0.38832 0.35805 0.0
O584 O 0.36661 0.38682 0.34451 0.0
O585 O 0.35752 0.33768 0.38814 0.0
O586 O 0.34508 0.36699 0.38692 0.0
C587 C 0.36535 0.32576 0.32236 0.0
O588 O 0.38767 0.35758 0.3374 0.0
O589 O 0.38645 0.34495 0.3667 0.0
C590 C 0.35358 0.39635 0.35316 0.0
O591 O 0.35856 0.34216 0.31798 0.0
O592 O 0.37192 0.32258 0.33923 0.0
C593 C 0.32547 0.32263 0.36622 0.0
Fe594 Fe 0.6688 0.63832 0.36518 0.0
Fe595 Fe 0.63857 0.63678 0.33254 0.0
O596 O 0.64784 0.64784 0.3538 0.0
Fe597 Fe 0.63626 0.66863 0.3635 0.0
O598 O 0.65794 0.6831 0.36031 0.0
O599 O 0.67795 0.66203 0.37342 0.0
O600 O 0.68321 0.64189 0.34352 0.0
C601 C 0.6792 0.63518 0.327 0.0
C602 C 0.64711 0.64728 0.39705 0.0
O603 O 0.66233 0.62891 0.32328 0.0
C604 C 0.60469 0.64696 0.35377 0.0
O605 O 0.66343 0.61293 0.35891 0.0
O606 O 0.63472 0.61395 0.34498 0.0
O607 O 0.64235 0.66307 0.38891 0.0
O608 O 0.65581 0.63422 0.38765 0.0
C609 C 0.6348 0.67505 0.32305 0.0
O610 O 0.61304 0.64266 0.33793 0.0
O611 O 0.61386 0.65542 0.36715 0.0
C612 C 0.6478 0.60465 0.35378 0.0
O613 O 0.64205 0.65885 0.31872 0.0
O614 O 0.62806 0.6781 0.33987 0.0
C615 C 0.67439 0.67896 0.36714 0.0
Fe616 Fe 0.36488 0.66858 0.36332 0.0
Fe617 Fe 0.36292 0.63679 0.33226 0.0
O618 O 0.35345 0.64779 0.35346 0.0
Fe619 Fe 0.33242 0.63817 0.36465 0.0
O620 O 0.32314 0.66179 0.373 0.0
O621 O 0.34316 0.68299 0.36014 0.0
O622 O 0.37304 0.67822 0.33979 0.0
C623 C 0.36652 0.67515 0.32288 0.0
C624 C 0.35392 0.64698 0.39669 0.0
O625 O 0.35955 0.65885 0.31841 0.0
C626 C 0.35359 0.60461 0.35334 0.0
O627 O 0.38737 0.65549 0.367 0.0
O628 O 0.38836 0.64273 0.3378 0.0
O629 O 0.34527 0.63396 0.38719 0.0
O630 O 0.35873 0.66281 0.38866 0.0
C631 C 0.32233 0.63518 0.32639 0.0
O632 O 0.36675 0.61399 0.34475 0.0
O633 O 0.33786 0.61282 0.35822 0.0
C634 C 0.39663 0.64704 0.35366 0.0
O635 O 0.33922 0.6289 0.32281 0.0
O636 O 0.31818 0.64185 0.3429 0.0
C637 C 0.3267 0.67877 0.36689 0.0
Fe638 Fe 0.63806 0.33212 0.3652 0.0
Fe639 Fe 0.63575 0.36284 0.33312 0.0
O640 O 0.64741 0.35321 0.35386 0.0
Fe641 Fe 0.66854 0.36442 0.36319 0.0
O642 O 0.68263 0.34254 0.35946 0.0
O643 O 0.66176 0.323 0.37344 0.0
O644 O 0.64159 0.31799 0.34336 0.0
C645 C 0.63454 0.32221 0.327 0.0
C646 C 0.64735 0.35374 0.39694 0.0
O647 O 0.62788 0.33906 0.32371 0.0
C648 C 0.64692 0.39643 0.35438 0.0
O649 O 0.6126 0.33719 0.35899 0.0
O650 O 0.61332 0.36645 0.34641 0.0
O651 O 0.66318 0.35824 0.38866 0.0
O652 O 0.63412 0.34508 0.38771 0.0
C653 C 0.67387 0.36656 0.32253 0.0
O654 O 0.6417 0.38827 0.33874 0.0
O655 O 0.65588 0.38706 0.3673 0.0
C656 C 0.6042 0.35297 0.35476 0.0
O657 O 0.65736 0.35981 0.31849 0.0
O658 O 0.67765 0.3726 0.33947 0.0
C659 C 0.67851 0.32626 0.36665 0.0
Fe660 Fe 0.36475 0.36315 0.66874 0.0
Fe661 Fe 0.33199 0.36418 0.63861 0.0
O662 O 0.35342 0.35341 0.64785 0.0
Fe663 Fe 0.36332 0.33275 0.63626 0.0
O664 O 0.36053 0.31827 0.65797 0.0
O665 O 0.37324 0.33957 0.67801 0.0
O666 O 0.34313 0.35942 0.68321 0.0
C667 C 0.32657 0.36603 0.6792 0.0
C668 C 0.39669 0.35448 0.64696 0.0
O669 O 0.32285 0.37226 0.66233 0.0
C670 C 0.35299 0.35412 0.60469 0.0
O671 O 0.3582 0.38845 0.66317 0.0
O672 O 0.34428 0.38703 0.63446 0.0
O673 O 0.38868 0.33865 0.64213 0.0
O674 O 0.3872 0.36742 0.65574 0.0
C675 C 0.32291 0.32578 0.63528 0.0
O676 O 0.33712 0.35801 0.61313 0.0
O677 O 0.36665 0.34602 0.61377 0.0
C678 C 0.35304 0.39652 0.64744 0.0
O679 O 0.31841 0.34202 0.64238 0.0
O680 O 0.33973 0.32292 0.6284 0.0
C681 C 0.36729 0.32254 0.67442 0.0
Fe682 Fe 0.63826 0.63664 0.66907 0.0
Fe683 Fe 0.66948 0.63857 0.63748 0.0
O684 O 0.64818 0.64802 0.64829 0.0
Fe685 Fe 0.63692 0.6689 0.63847 0.0
O686 O 0.62846 0.6783 0.66201 0.0
O687 O 0.64133 0.65846 0.68338 0.0
O688 O 0.66181 0.62863 0.67885 0.0
C689 C 0.67869 0.6353 0.67588 0.0
C690 C 0.60493 0.64735 0.64732 0.0
O691 O 0.68319 0.64226 0.65958 0.0
C692 C 0.64844 0.64748 0.60514 0.0
O693 O 0.63469 0.6141 0.65596 0.0
O694 O 0.66413 0.61315 0.64374 0.0
O695 O 0.61445 0.65593 0.63427 0.0
O696 O 0.61294 0.6427 0.66322 0.0
C697 C 0.67513 0.67916 0.6355 0.0
O698 O 0.65708 0.63444 0.61467 0.0
O699 O 0.64347 0.66328 0.61319 0.0
C700 C 0.64821 0.60488 0.64779 0.0
O701 O 0.6788 0.66223 0.62936 0.0
O702 O 0.6586 0.68328 0.64211 0.0
C703 C 0.63459 0.67489 0.67901 0.0
H704 H 0.11798 0.28977 0.17629 0.0
H705 H 0.11692 0.26457 0.20124 0.0
H706 H 0.14635 0.30263 0.24121 0.0
H707 H 0.14764 0.32791 0.21635 0.0
H708 H 0.1624 0.26512 0.23891 0.0
H709 H 0.08267 0.26274 0.2503 0.0
H710 H 0.09019 0.26044 0.22544 0.0
H711 H 0.09464 0.2827 0.23826 0.0
C712 C 0.1241 0.29287 0.19043 0.0
C713 C 0.13279 0.31092 0.19434 0.0
C714 C 0.12339 0.27846 0.20469 0.0
C715 C 0.13132 0.28184 0.22313 0.0
C716 C 0.14004 0.2998 0.22709 0.0
H717 H 0.11906 0.21124 0.32691 0.0
H718 H 0.11837 0.23724 0.30275 0.0
C719 C 0.14071 0.31424 0.21287 0.0
C720 C 0.1312 0.26639 0.23807 0.0
H721 H 0.10122 0.23782 0.26528 0.0
C722 C 0.14903 0.25918 0.24473 0.0
C723 C 0.11374 0.25884 0.24576 0.0
C724 C 0.0942 0.26666 0.23974 0.0
C725 C 0.14988 0.24435 0.25867 0.0
C726 C 0.13241 0.23639 0.26592 0.0
C727 C 0.11457 0.24384 0.25953 0.0
C728 C 0.13239 0.22041 0.28029 0.0
C729 C 0.16945 0.2375 0.2657 0.0
C730 C 0.14021 0.20224 0.27552 0.0
C731 C 0.14062 0.18733 0.28926 0.0
C732 C 0.13313 0.1903 0.30802 0.0
C733 C 0.12496 0.20844 0.31261 0.0
C734 C 0.12454 0.22333 0.29884 0.0
H735 H 0.18108 0.24815 0.26233 0.0
H736 H 0.16927 0.23489 0.2816 0.0
H737 H 0.17314 0.22363 0.2584 0.0
H738 H 0.14604 0.1996 0.26117 0.0
H739 H 0.14699 0.17355 0.2852 0.0
H740 H 0.67584 0.12085 0.21164 0.0
H741 H 0.70109 0.12019 0.23661 0.0
H742 H 0.74193 0.14486 0.19616 0.0
H743 H 0.71682 0.14582 0.17119 0.0
H744 H 0.73767 0.10167 0.2364 0.0
H745 H 0.74493 0.18163 0.24289 0.0
H746 H 0.72464 0.17026 0.23086 0.0
H747 H 0.74755 0.17256 0.2186 0.0
C748 C 0.6902 0.1261 0.20802 0.0
C749 C 0.69427 0.13344 0.18941 0.0
C750 C 0.7046 0.12571 0.22232 0.0
C751 C 0.72327 0.13275 0.21831 0.0
C752 C 0.7275 0.13971 0.19966 0.0
H753 H 0.82962 0.14606 0.28403 0.0
H754 H 0.80463 0.14464 0.2589 0.0
C755 C 0.71314 0.14012 0.18537 0.0
C756 C 0.73838 0.13277 0.23361 0.0
H757 H 0.76826 0.16259 0.25953 0.0
C758 C 0.74431 0.11497 0.24154 0.0
C759 C 0.747 0.15017 0.24026 0.0
C760 C 0.74062 0.16977 0.23287 0.0
C761 C 0.75895 0.11408 0.2557 0.0
C762 C 0.76762 0.13148 0.26228 0.0
C763 C 0.76164 0.14927 0.25439 0.0
C764 C 0.7829 0.13161 0.27743 0.0
C765 C 0.76532 0.0945 0.26315 0.0
C766 C 0.77892 0.12486 0.29622 0.0
C767 C 0.79318 0.12561 0.31063 0.0
C768 C 0.81168 0.13322 0.30654 0.0
C769 C 0.81558 0.14 0.28767 0.0
C770 C 0.80131 0.13924 0.27328 0.0
H771 H 0.76091 0.0826 0.25321 0.0
H772 H 0.7813 0.09398 0.26508 0.0
H773 H 0.75846 0.09181 0.27746 0.0
H774 H 0.76467 0.1193 0.29983 0.0
H775 H 0.7896 0.12042 0.32502 0.0
H776 H 0.85411 0.78461 0.32851 0.0
H777 H 0.85562 0.75991 0.3031 0.0
H778 H 0.88259 0.80105 0.26446 0.0
H779 H 0.88136 0.82583 0.28981 0.0
H780 H 0.83852 0.76143 0.26637 0.0
H781 H 0.91852 0.75359 0.26104 0.0
H782 H 0.9068 0.76529 0.28135 0.0
H783 H 0.9099 0.7781 0.25885 0.0
C784 C 0.86054 0.78839 0.31468 0.0
C785 C 0.86774 0.80719 0.31126 0.0
C786 C 0.86135 0.77425 0.30016 0.0
C787 C 0.86945 0.77858 0.282 0.0
C788 C 0.87663 0.7973 0.27851 0.0
H789 H 0.85278 0.71582 0.17419 0.0
H790 H 0.85372 0.73997 0.20014 0.0
C791 C 0.87583 0.81147 0.293 0.0
C792 C 0.86968 0.7637 0.26648 0.0
H793 H 0.89976 0.73787 0.23674 0.0
C794 C 0.8519 0.75623 0.25993 0.0
C795 C 0.88718 0.75681 0.25825 0.0
C796 C 0.90671 0.7637 0.26532 0.0
C797 C 0.85113 0.74227 0.24512 0.0
C798 C 0.8686 0.73581 0.23651 0.0
C799 C 0.88639 0.74301 0.24327 0.0
C800 C 0.86865 0.7214 0.22056 0.0
C801 C 0.83166 0.73435 0.239 0.0
C802 C 0.87718 0.70313 0.2233 0.0
C803 C 0.87674 0.68928 0.20848 0.0
C804 C 0.86788 0.69353 0.19058 0.0
C805 C 0.85971 0.71204 0.18778 0.0
C806 C 0.86012 0.72584 0.20262 0.0
H807 H 0.82025 0.73733 0.24999 0.0
H808 H 0.82722 0.74132 0.22518 0.0
H809 H 0.83245 0.71845 0.23653 0.0
H810 H 0.8839 0.69948 0.23704 0.0
H811 H 0.88318 0.6752 0.21114 0.0
H812 H 0.21138 0.88077 0.3261 0.0
H813 H 0.23642 0.88252 0.30098 0.0
H814 H 0.19742 0.85574 0.26005 0.0
H815 H 0.17225 0.85409 0.28493 0.0
H816 H 0.25285 0.85152 0.28018 0.0
H817 H 0.21671 0.90381 0.23074 0.0
H818 H 0.20912 0.90031 0.25558 0.0
H819 H 0.20201 0.88328 0.23715 0.0
C820 C 0.20805 0.8754 0.31172 0.0
C821 C 0.18973 0.86743 0.30751 0.0
C822 C 0.22239 0.87639 0.29739 0.0
C823 C 0.21866 0.86954 0.27859 0.0
C824 C 0.20045 0.8615 0.27436 0.0
H825 H 0.28419 0.85415 0.17283 0.0
H826 H 0.25959 0.85537 0.19836 0.0
C827 C 0.18611 0.86048 0.28865 0.0
C828 C 0.23404 0.87011 0.26356 0.0
H829 H 0.24467 0.8877 0.21848 0.0
C830 C 0.25115 0.85955 0.26675 0.0
C831 C 0.23173 0.88056 0.24605 0.0
C832 C 0.21398 0.89278 0.24219 0.0
C833 C 0.26585 0.85876 0.25266 0.0
C834 C 0.26347 0.86909 0.23508 0.0
C835 C 0.24642 0.87978 0.23196 0.0
C836 C 0.2784 0.86876 0.21961 0.0
C837 C 0.28353 0.84643 0.25648 0.0
C838 C 0.29705 0.87617 0.22302 0.0
C839 C 0.31117 0.8755 0.20847 0.0
C840 C 0.30686 0.86751 0.19018 0.0
C841 C 0.28803 0.86041 0.18673 0.0
C842 C 0.27393 0.86109 0.20129 0.0
H843 H 0.28101 0.83583 0.26837 0.0
H844 H 0.2879 0.83837 0.24322 0.0
H845 H 0.29578 0.85593 0.26081 0.0
H846 H 0.30068 0.88248 0.23694 0.0
H847 H 0.32549 0.88115 0.21162 0.0
H848 H 0.12003 0.82542 0.71215 0.0
H849 H 0.1186 0.80047 0.73734 0.0
H850 H 0.14515 0.75936 0.69838 0.0
H851 H 0.14647 0.78409 0.673 0.0
H852 H 0.11272 0.74463 0.71856 0.0
H853 H 0.16528 0.7801 0.76835 0.0
H854 H 0.1453 0.79512 0.76098 0.0
H855 H 0.16268 0.78716 0.74326 0.0
C856 C 0.12553 0.81107 0.70889 0.0
C857 C 0.13339 0.80679 0.69054 0.0
C858 C 0.12481 0.79686 0.72336 0.0
C859 C 0.13202 0.77816 0.7198 0.0
C860 C 0.13957 0.77373 0.70143 0.0
H861 H 0.14587 0.67138 0.78457 0.0
H862 H 0.14428 0.69658 0.75969 0.0
C863 C 0.14031 0.78791 0.68695 0.0
C864 C 0.13163 0.76312 0.73517 0.0
H865 H 0.14945 0.75197 0.78003 0.0
C866 C 0.12076 0.7462 0.73199 0.0
C867 C 0.14213 0.76526 0.75268 0.0
C868 C 0.15466 0.7828 0.75653 0.0
C869 C 0.11995 0.7314 0.74597 0.0
C870 C 0.13056 0.73347 0.76342 0.0
C871 C 0.14131 0.75045 0.76665 0.0
C872 C 0.131 0.71802 0.77838 0.0
C873 C 0.10751 0.71381 0.74207 0.0
C874 C 0.1244 0.72184 0.79725 0.0
C875 C 0.12536 0.7075 0.81156 0.0
C876 C 0.13305 0.68907 0.80729 0.0
C877 C 0.13969 0.68533 0.78834 0.0
C878 C 0.13872 0.69969 0.77405 0.0
H879 H 0.09644 0.71674 0.73072 0.0
H880 H 0.11685 0.70177 0.73688 0.0
H881 H 0.10001 0.70894 0.75547 0.0
H882 H 0.11852 0.73595 0.80091 0.0
H883 H 0.12022 0.71092 0.82601 0.0
H884 H 0.21192 0.11982 0.67553 0.0
H885 H 0.23695 0.11837 0.70066 0.0
H886 H 0.19747 0.14424 0.74171 0.0
H887 H 0.17228 0.14559 0.71681 0.0
H888 H 0.25282 0.14955 0.72152 0.0
H889 H 0.21767 0.09644 0.77082 0.0
H890 H 0.20997 0.0999 0.74602 0.0
H891 H 0.20264 0.11677 0.76452 0.0
C892 C 0.20847 0.12504 0.68995 0.0
C893 C 0.19002 0.13269 0.69418 0.0
C894 C 0.22282 0.12423 0.70427 0.0
C895 C 0.21896 0.13092 0.72311 0.0
C896 C 0.20061 0.13861 0.72737 0.0
H897 H 0.28501 0.14647 0.8286 0.0
H898 H 0.26022 0.14524 0.80326 0.0
C899 C 0.18626 0.13945 0.71308 0.0
C900 C 0.23436 0.13057 0.7381 0.0
H901 H 0.24549 0.11281 0.783 0.0
C902 C 0.2513 0.1414 0.73491 0.0
C903 C 0.23229 0.11997 0.75556 0.0
C904 C 0.21475 0.10746 0.75943 0.0
C905 C 0.26606 0.1423 0.74892 0.0
C906 C 0.26394 0.13179 0.76642 0.0
C907 C 0.24705 0.12086 0.76957 0.0
C908 C 0.27898 0.13216 0.78177 0.0
C909 C 0.28356 0.1549 0.74509 0.0
C910 C 0.29767 0.12493 0.77816 0.0
C911 C 0.31189 0.12561 0.7926 0.0
C912 C 0.30765 0.13341 0.81099 0.0
C913 C 0.28879 0.14035 0.81463 0.0
C914 C 0.27459 0.13966 0.80017 0.0
H915 H 0.28083 0.16555 0.7333 0.0
H916 H 0.28789 0.16291 0.75839 0.0
H917 H 0.29591 0.14559 0.74062 0.0
H918 H 0.30124 0.11876 0.76416 0.0
H919 H 0.32623 0.1201 0.78931 0.0
H920 H 0.88223 0.29032 0.82629 0.0
H921 H 0.88329 0.26472 0.80175 0.0
H922 H 0.85415 0.30226 0.76106 0.0
H923 H 0.85282 0.32791 0.78553 0.0
H924 H 0.8381 0.26485 0.76361 0.0
H925 H 0.91796 0.26224 0.75312 0.0
H926 H 0.91014 0.26011 0.7779 0.0
H927 H 0.90591 0.28231 0.76489 0.0
C928 C 0.87616 0.29321 0.81208 0.0
C929 C 0.86754 0.31123 0.80785 0.0
C930 C 0.87687 0.27858 0.79805 0.0
C931 C 0.86904 0.28171 0.77952 0.0
C932 C 0.86037 0.29962 0.77526 0.0
H933 H 0.88217 0.21196 0.67573 0.0
H934 H 0.88266 0.2375 0.70033 0.0
C935 C 0.85968 0.31427 0.78925 0.0
C936 C 0.86929 0.26608 0.76478 0.0
H937 H 0.89951 0.2374 0.73796 0.0
C938 C 0.85152 0.25885 0.75797 0.0
C939 C 0.88682 0.25845 0.75732 0.0
C940 C 0.90631 0.26626 0.76352 0.0
C941 C 0.8508 0.24401 0.74405 0.0
C942 C 0.86833 0.23603 0.73698 0.0
C943 C 0.88611 0.24343 0.74358 0.0
C944 C 0.86848 0.22026 0.72238 0.0
C945 C 0.83129 0.23719 0.7368 0.0
C946 C 0.86064 0.20201 0.72678 0.0
C947 C 0.86034 0.18734 0.71277 0.0
C948 C 0.86796 0.19066 0.69412 0.0
C949 C 0.87616 0.20889 0.68992 0.0
C950 C 0.87647 0.22352 0.70396 0.0
H951 H 0.8196 0.24774 0.74022 0.0
H952 H 0.83161 0.23481 0.72087 0.0
H953 H 0.82761 0.2232 0.74386 0.0
H954 H 0.85468 0.19912 0.74103 0.0
H955 H 0.85394 0.17348 0.71651 0.0
H956 H 0.78968 0.88121 0.67595 0.0
H957 H 0.76476 0.88257 0.7012 0.0
H958 H 0.80457 0.85697 0.74209 0.0
H959 H 0.82964 0.85571 0.71708 0.0
H960 H 0.74917 0.85133 0.72212 0.0
H961 H 0.7842 0.90462 0.77129 0.0
H962 H 0.79184 0.9012 0.74647 0.0
H963 H 0.79932 0.88438 0.76495 0.0
C964 C 0.79322 0.87603 0.69036 0.0
C965 C 0.81173 0.86847 0.69451 0.0
C966 C 0.77894 0.87679 0.70475 0.0
C967 C 0.78292 0.87014 0.72358 0.0
C968 C 0.80133 0.86256 0.72777 0.0
H969 H 0.71708 0.8544 0.82927 0.0
H970 H 0.74186 0.85563 0.80391 0.0
C971 C 0.81562 0.86177 0.7134 0.0
C972 C 0.76758 0.87041 0.73864 0.0
H973 H 0.7565 0.88812 0.78357 0.0
C974 C 0.75068 0.85949 0.7355 0.0
C975 C 0.76966 0.88101 0.75608 0.0
C976 C 0.78715 0.89362 0.75989 0.0
C977 C 0.73597 0.85852 0.74956 0.0
C978 C 0.7381 0.86905 0.76705 0.0
C979 C 0.75494 0.88006 0.77014 0.0
C980 C 0.72307 0.86866 0.78241 0.0
C981 C 0.71852 0.84584 0.74579 0.0
C982 C 0.70438 0.87586 0.7788 0.0
C983 C 0.69016 0.87519 0.79325 0.0
C984 C 0.69442 0.86742 0.81164 0.0
C985 C 0.71329 0.8605 0.81529 0.0
C986 C 0.72748 0.86119 0.80082 0.0
H987 H 0.72128 0.83519 0.73401 0.0
H988 H 0.71424 0.83784 0.7591 0.0
H989 H 0.70612 0.85509 0.74133 0.0
H990 H 0.70079 0.88201 0.76479 0.0
H991 H 0.67582 0.88069 0.78995 0.0
H992 H 0.28459 0.14755 0.1724 0.0
H993 H 0.26019 0.14689 0.19816 0.0
H994 H 0.30087 0.11847 0.23624 0.0
H995 H 0.32535 0.11888 0.21057 0.0
H996 H 0.26315 0.10189 0.23629 0.0
H997 H 0.26141 0.18178 0.24689 0.0
H998 H 0.2576 0.17389 0.22233 0.0
H999 H 0.28063 0.1697 0.23381 0.0
C1000 C 0.28835 0.14107 0.18622 0.0
C1001 C 0.30696 0.13329 0.18942 0.0
C1002 C 0.27442 0.14082 0.20095 0.0
C1003 C 0.27884 0.13287 0.21917 0.0
C1004 C 0.29722 0.12474 0.2223 0.0
H1005 H 0.2159 0.14854 0.32702 0.0
H1006 H 0.24033 0.14723 0.30133 0.0
C1007 C 0.31118 0.125 0.20759 0.0
C1008 C 0.26431 0.13307 0.235 0.0
H1009 H 0.23791 0.16337 0.26396 0.0
C1010 C 0.25763 0.11531 0.24238 0.0
C1011 C 0.25736 0.15062 0.24305 0.0
C1012 C 0.26471 0.1701 0.23627 0.0
C1013 C 0.24391 0.11463 0.25742 0.0
C1014 C 0.23656 0.13218 0.26511 0.0
C1015 C 0.24347 0.14994 0.25792 0.0
C1016 C 0.22181 0.13247 0.28074 0.0
C1017 C 0.23761 0.09515 0.26519 0.0
C1018 C 0.20325 0.12473 0.2776 0.0
C1019 C 0.18924 0.12543 0.29225 0.0
C1020 C 0.19352 0.13396 0.3103 0.0
C1021 C 0.21214 0.14176 0.31335 0.0
C1022 C 0.22612 0.14107 0.29868 0.0
H1023 H 0.24796 0.08347 0.26114 0.0
H1024 H 0.23624 0.09552 0.28124 0.0
H1025 H 0.22322 0.0914 0.25903 0.0
H1026 H 0.19953 0.11836 0.26373 0.0
H1027 H 0.17502 0.11942 0.28935 0.0
H1028 H 0.88096 0.1753 0.2898 0.0
H1029 H 0.88263 0.20037 0.2647 0.0
H1030 H 0.85635 0.24149 0.30384 0.0
H1031 H 0.85477 0.21667 0.32907 0.0
H1032 H 0.85162 0.22119 0.24846 0.0
H1033 H 0.90427 0.27062 0.28404 0.0
H1034 H 0.90076 0.24583 0.29176 0.0
H1035 H 0.88384 0.26434 0.29893 0.0
C1036 C 0.87569 0.18972 0.29315 0.0
C1037 C 0.86786 0.19399 0.31152 0.0
C1038 C 0.87663 0.20401 0.27877 0.0
C1039 C 0.86989 0.22285 0.28251 0.0
C1040 C 0.86202 0.22715 0.30078 0.0
H1041 H 0.85399 0.32846 0.21696 0.0
H1042 H 0.85538 0.30294 0.24155 0.0
C1043 C 0.86105 0.2129 0.31516 0.0
C1044 C 0.87037 0.23783 0.26709 0.0
H1045 H 0.88791 0.28287 0.25621 0.0
C1046 C 0.85968 0.23461 0.25006 0.0
C1047 C 0.88086 0.25533 0.26927 0.0
C1048 C 0.89323 0.25923 0.2869 0.0
C1049 C 0.85878 0.24867 0.23534 0.0
C1050 C 0.86913 0.26625 0.2376 0.0
C1051 C 0.87996 0.26939 0.25455 0.0
C1052 C 0.86866 0.2817 0.22265 0.0
C1053 C 0.84631 0.24482 0.21776 0.0
C1054 C 0.87595 0.27829 0.20395 0.0
C1055 C 0.87518 0.29284 0.18983 0.0
C1056 C 0.86722 0.31113 0.1942 0.0
C1057 C 0.86023 0.31457 0.21308 0.0
C1058 C 0.861 0.30001 0.22717 0.0
H1059 H 0.83576 0.23292 0.22037 0.0
H1060 H 0.8382 0.25806 0.21345 0.0
H1061 H 0.85572 0.24051 0.20543 0.0
H1062 H 0.88224 0.26437 0.20028 0.0
H1063 H 0.88075 0.2897 0.17548 0.0
H1064 H 0.71664 0.8546 0.17186 0.0
H1065 H 0.74171 0.85565 0.19688 0.0
H1066 H 0.70087 0.88075 0.23707 0.0
H1067 H 0.67568 0.88 0.21206 0.0
H1068 H 0.73746 0.89922 0.2367 0.0
H1069 H 0.74456 0.81931 0.24399 0.0
H1070 H 0.7472 0.82814 0.21962 0.0
H1071 H 0.72429 0.83061 0.23184 0.0
C1072 C 0.71295 0.8604 0.18599 0.0
C1073 C 0.6941 0.86719 0.18995 0.0
C1074 C 0.72729 0.86087 0.20031 0.0
C1075 C 0.72305 0.86799 0.2189 0.0
C1076 C 0.70439 0.87511 0.22283 0.0
H1077 H 0.7897 0.88101 0.32544 0.0
H1078 H 0.76461 0.88203 0.30038 0.0
C1079 C 0.69002 0.87466 0.20851 0.0
C1080 C 0.73813 0.8681 0.23422 0.0
H1081 H 0.76793 0.83848 0.26045 0.0
C1082 C 0.74407 0.88596 0.24199 0.0
C1083 C 0.74669 0.85074 0.24106 0.0
C1084 C 0.74027 0.83109 0.23385 0.0
C1085 C 0.7587 0.88696 0.25614 0.0
C1086 C 0.76734 0.86961 0.26289 0.0
C1087 C 0.76132 0.85175 0.25518 0.0
C1088 C 0.7827 0.8696 0.27794 0.0
C1089 C 0.76509 0.90659 0.26342 0.0
C1090 C 0.80108 0.86196 0.27371 0.0
C1091 C 0.81543 0.86126 0.28801 0.0
C1092 C 0.81164 0.86811 0.30687 0.0
C1093 C 0.79318 0.87576 0.31104 0.0
C1094 C 0.77883 0.87645 0.29672 0.0
H1095 H 0.76061 0.91843 0.25344 0.0
H1096 H 0.75835 0.90937 0.27777 0.0
H1097 H 0.78109 0.90713 0.26523 0.0
H1098 H 0.80431 0.85649 0.25933 0.0
H1099 H 0.82944 0.85518 0.2843 0.0
H1100 H 0.15896 0.79021 0.32282 0.0
H1101 H 0.15869 0.76622 0.29668 0.0
H1102 H 0.10882 0.79437 0.27134 0.0
H1103 H 0.1097 0.81898 0.29688 0.0
H1104 H 0.13411 0.74016 0.28581 0.0
H1105 H 0.14271 0.79178 0.22496 0.0
H1106 H 0.14519 0.79913 0.24993 0.0
H1107 H 0.1215 0.79707 0.23903 0.0
C1108 C 0.14796 0.79128 0.31164 0.0
C1109 C 0.13444 0.80653 0.31178 0.0
C1110 C 0.14782 0.77757 0.2967 0.0
C1111 C 0.13401 0.77871 0.28175 0.0
C1112 C 0.12004 0.79355 0.28229 0.0
H1113 H 0.10944 0.68073 0.2053 0.0
H1114 H 0.10874 0.70518 0.23101 0.0
C1115 C 0.12044 0.80751 0.297 0.0
C1116 C 0.1341 0.76418 0.2658 0.0
H1117 H 0.13396 0.75942 0.21649 0.0
C1118 C 0.13419 0.74439 0.27065 0.0
C1119 C 0.13459 0.76964 0.24599 0.0
C1120 C 0.13621 0.79056 0.23967 0.0
C1121 C 0.13459 0.72994 0.2563 0.0
C1122 C 0.13403 0.7354 0.2365 0.0
C1123 C 0.13411 0.75519 0.23165 0.0
C1124 C 0.13388 0.72089 0.22054 0.0
C1125 C 0.13622 0.70902 0.26261 0.0
C1126 C 0.14762 0.72208 0.20552 0.0
C1127 C 0.14766 0.70848 0.1905 0.0
C1128 C 0.1341 0.69326 0.19033 0.0
C1129 C 0.1202 0.69218 0.2052 0.0
C1130 C 0.11991 0.70605 0.22 0.0
H1131 H 0.14277 0.70778 0.2773 0.0
H1132 H 0.12151 0.70252 0.26329 0.0
H1133 H 0.14516 0.70045 0.25231 0.0
H1134 H 0.15851 0.73342 0.20555 0.0
H1135 H 0.15861 0.70961 0.17927 0.0
H1136 H 0.21156 0.88079 0.67579 0.0
H1137 H 0.23676 0.88216 0.70074 0.0
H1138 H 0.19776 0.85568 0.74186 0.0
H1139 H 0.17238 0.85441 0.71713 0.0
H1140 H 0.21801 0.8881 0.75656 0.0
H1141 H 0.26766 0.83539 0.72111 0.0
H1142 H 0.26032 0.85536 0.70606 0.0
H1143 H 0.24257 0.83803 0.71408 0.0
C1144 C 0.2083 0.87529 0.69015 0.0
C1145 C 0.18993 0.86747 0.69444 0.0
C1146 C 0.22277 0.87598 0.70435 0.0
C1147 C 0.2192 0.86877 0.72305 0.0
C1148 C 0.20082 0.86126 0.72748 0.0
H1149 H 0.28433 0.85524 0.8297 0.0
H1150 H 0.25936 0.85662 0.80458 0.0
C1151 C 0.18634 0.86055 0.71331 0.0
C1152 C 0.23457 0.86914 0.73807 0.0
H1153 H 0.27945 0.85132 0.74915 0.0
C1154 C 0.23144 0.88004 0.75498 0.0
C1155 C 0.25206 0.85862 0.73592 0.0
C1156 C 0.25587 0.84604 0.7184 0.0
C1157 C 0.24545 0.88089 0.76974 0.0
C1158 C 0.26289 0.87028 0.76765 0.0
C1159 C 0.26607 0.85947 0.75068 0.0
C1160 C 0.27791 0.86992 0.78302 0.0
C1161 C 0.2416 0.89337 0.78731 0.0
C1162 C 0.29674 0.87659 0.77911 0.0
C1163 C 0.3111 0.87576 0.79341 0.0
C1164 C 0.30692 0.86811 0.81188 0.0
C1165 C 0.28802 0.86138 0.81571 0.0
C1166 C 0.27369 0.86224 0.8014 0.0
H1167 H 0.2302 0.9044 0.78441 0.0
H1168 H 0.23651 0.88405 0.79941 0.0
H1169 H 0.25501 0.90092 0.79209 0.0
H1170 H 0.30032 0.88245 0.76497 0.0
H1171 H 0.32551 0.88096 0.78992 0.0
H1172 H 0.12043 0.3253 0.78975 0.0
H1173 H 0.11936 0.30067 0.76424 0.0
H1174 H 0.148 0.25994 0.80211 0.0
H1175 H 0.14932 0.28449 0.82768 0.0
H1176 H 0.16425 0.26219 0.76475 0.0
H1177 H 0.08434 0.25231 0.76179 0.0
H1178 H 0.09232 0.27703 0.75961 0.0
H1179 H 0.09638 0.26407 0.78187 0.0
C1180 C 0.12639 0.31106 0.79273 0.0
C1181 C 0.13486 0.30684 0.81082 0.0
C1182 C 0.12568 0.29699 0.77815 0.0
C1183 C 0.13335 0.27842 0.78139 0.0
C1184 C 0.14189 0.27416 0.79937 0.0
H1185 H 0.1196 0.17488 0.71115 0.0
H1186 H 0.11922 0.19929 0.7369 0.0
C1187 C 0.14259 0.28821 0.81398 0.0
C1188 C 0.13306 0.26361 0.76582 0.0
H1189 H 0.10277 0.23705 0.73699 0.0
C1190 C 0.15082 0.25664 0.7587 0.0
C1191 C 0.11551 0.25629 0.75812 0.0
C1192 C 0.09603 0.26265 0.76582 0.0
C1193 C 0.1515 0.24273 0.74385 0.0
C1194 C 0.13395 0.23581 0.73577 0.0
C1195 C 0.11619 0.24254 0.7431 0.0
C1196 C 0.13376 0.22132 0.71992 0.0
C1197 C 0.17098 0.23532 0.73713 0.0
C1198 C 0.14176 0.22576 0.70174 0.0
C1199 C 0.14199 0.21187 0.68697 0.0
C1200 C 0.13413 0.19328 0.69009 0.0
C1201 C 0.12578 0.18903 0.70824 0.0
C1202 C 0.12554 0.20296 0.72298 0.0
H1203 H 0.18263 0.23856 0.7478 0.0
H1204 H 0.17053 0.21941 0.73463 0.0
H1205 H 0.17484 0.24245 0.72322 0.0
H1206 H 0.14789 0.23997 0.699 0.0
H1207 H 0.14852 0.21565 0.67318 0.0
H1208 H 0.82173 0.10949 0.70518 0.0
H1209 H 0.79701 0.10723 0.73056 0.0
H1210 H 0.76688 0.15609 0.7055 0.0
H1211 H 0.79098 0.15771 0.67956 0.0
H1212 H 0.78717 0.13068 0.75785 0.0
H1213 H 0.72248 0.12027 0.7117 0.0
H1214 H 0.74677 0.11907 0.70207 0.0
H1215 H 0.73495 0.14218 0.70538 0.0
C1216 C 0.8097 0.1196 0.70499 0.0
C1217 C 0.80815 0.13363 0.69028 0.0
C1218 C 0.79559 0.11832 0.71951 0.0
C1219 C 0.7798 0.13122 0.71977 0.0
C1220 C 0.77849 0.14551 0.70528 0.0
H1221 H 0.71164 0.15772 0.82239 0.0
H1222 H 0.73601 0.15627 0.79668 0.0
C1223 C 0.79236 0.14652 0.69052 0.0
C1224 C 0.76518 0.13023 0.73563 0.0
H1225 H 0.71648 0.12963 0.74463 0.0
C1226 C 0.77171 0.13024 0.75494 0.0
C1227 C 0.74499 0.12929 0.73192 0.0
C1228 C 0.73691 0.12748 0.71164 0.0
C1229 C 0.75868 0.12976 0.77059 0.0
C1230 C 0.73847 0.13009 0.76687 0.0
C1231 C 0.73194 0.12965 0.74756 0.0
C1232 C 0.72381 0.13089 0.78269 0.0
C1233 C 0.7668 0.12848 0.79089 0.0
C1234 C 0.70834 0.11761 0.78305 0.0
C1235 C 0.69407 0.11878 0.79742 0.0
C1236 C 0.69514 0.13309 0.8119 0.0
C1237 C 0.71064 0.14633 0.81161 0.0
C1238 C 0.72467 0.14542 0.79698 0.0
H1239 H 0.78141 0.12167 0.79094 0.0
H1240 H 0.76835 0.14333 0.79692 0.0
H1241 H 0.75717 0.11996 0.80058 0.0
H1242 H 0.70727 0.10632 0.77216 0.0
H1243 H 0.68228 0.10839 0.79728 0.0
H1244 H 0.88089 0.71213 0.82522 0.0
H1245 H 0.88146 0.73727 0.80016 0.0
H1246 H 0.85601 0.69733 0.75929 0.0
H1247 H 0.85515 0.67217 0.78424 0.0
H1248 H 0.8996 0.73716 0.76339 0.0
H1249 H 0.81962 0.74446 0.75708 0.0
H1250 H 0.83112 0.73218 0.77716 0.0
H1251 H 0.82845 0.72011 0.7542 0.0
C1252 C 0.87544 0.70866 0.81089 0.0
C1253 C 0.86791 0.69012 0.80677 0.0
C1254 C 0.87578 0.72305 0.7966 0.0
C1255 C 0.86851 0.71924 0.77798 0.0
C1256 C 0.86135 0.70068 0.77369 0.0
H1257 H 0.85478 0.78507 0.67201 0.0
H1258 H 0.8562 0.76009 0.69712 0.0
C1259 C 0.86099 0.68627 0.78795 0.0
C1260 C 0.86847 0.73466 0.76299 0.0
H1261 H 0.83857 0.76108 0.73364 0.0
C1262 C 0.88627 0.74249 0.75693 0.0
C1263 C 0.85104 0.74156 0.75464 0.0
C1264 C 0.83145 0.7343 0.76119 0.0
C1265 C 0.88713 0.75674 0.74239 0.0
C1266 C 0.8697 0.76354 0.73395 0.0
C1267 C 0.85191 0.75579 0.7401 0.0
C1268 C 0.86955 0.77863 0.71863 0.0
C1269 C 0.9067 0.76406 0.73585 0.0
C1270 C 0.87649 0.79739 0.72245 0.0
C1271 C 0.87574 0.81173 0.70811 0.0
C1272 C 0.86794 0.80759 0.6897 0.0
C1273 C 0.86098 0.78876 0.68597 0.0
C1274 C 0.86174 0.77445 0.70031 0.0
H1275 H 0.91859 0.75406 0.74019 0.0
H1276 H 0.9071 0.76593 0.71985 0.0
H1277 H 0.90953 0.77838 0.74263 0.0
H1278 H 0.88221 0.80103 0.73663 0.0
H1279 H 0.88108 0.82611 0.71154 0.0
H1280 H 0.29591 0.18016 0.10848 0.0
H1281 H 0.27059 0.20496 0.10644 0.0
H1282 H 0.29543 0.23433 0.15586 0.0
H1283 H 0.32132 0.21017 0.15727 0.0
H1284 H 0.24319 0.21453 0.12985 0.0
H1285 H 0.28953 0.27927 0.12068 0.0
H1286 H 0.29912 0.25498 0.11918 0.0
H1287 H 0.2957 0.26648 0.14244 0.0
C1288 C 0.29607 0.19204 0.11876 0.0
C1289 C 0.3107 0.19337 0.13289 0.0
C1290 C 0.28158 0.2062 0.11761 0.0
C1291 C 0.28128 0.22181 0.13073 0.0
C1292 C 0.29569 0.22288 0.14512 0.0
H1293 H 0.17858 0.28968 0.15764 0.0
H1294 H 0.20432 0.26535 0.15602 0.0
C1295 C 0.31042 0.20897 0.14601 0.0
C1296 C 0.26546 0.23647 0.12987 0.0
H1297 H 0.25657 0.2852 0.12998 0.0
C1298 C 0.24614 0.22998 0.12967 0.0
C1299 C 0.26922 0.25667 0.12926 0.0
C1300 C 0.28952 0.26474 0.12768 0.0
C1301 C 0.23053 0.24306 0.1293 0.0
C1302 C 0.23429 0.26326 0.12998 0.0
C1303 C 0.25361 0.26975 0.12974 0.0
C1304 C 0.21849 0.27794 0.13092 0.0
C1305 C 0.21022 0.23501 0.12777 0.0
C1306 C 0.21823 0.29361 0.11788 0.0
C1307 C 0.20385 0.30786 0.11916 0.0
C1308 C 0.18926 0.30656 0.13334 0.0
C1309 C 0.18946 0.29087 0.14635 0.0
C1310 C 0.2041 0.27686 0.14534 0.0
H1311 H 0.21018 0.2205 0.12073 0.0
H1312 H 0.20409 0.23323 0.14255 0.0
H1313 H 0.2006 0.2448 0.11934 0.0
H1314 H 0.2292 0.29485 0.10669 0.0
H1315 H 0.20406 0.3198 0.10894 0.0
H1316 H 0.17902 0.71039 0.8431 0.0
H1317 H 0.20498 0.73456 0.84358 0.0
H1318 H 0.23059 0.70609 0.89314 0.0
H1319 H 0.20523 0.68129 0.89203 0.0
H1320 H 0.21576 0.76046 0.86835 0.0
H1321 H 0.27687 0.70925 0.85922 0.0
H1322 H 0.25195 0.70177 0.85675 0.0
H1323 H 0.26288 0.70375 0.88043 0.0
C1324 C 0.19022 0.70929 0.85408 0.0
C1325 C 0.19021 0.69389 0.86743 0.0
C1326 C 0.20506 0.7231 0.85434 0.0
C1327 C 0.22004 0.72194 0.86812 0.0
C1328 C 0.21962 0.70695 0.88193 0.0
H1329 H 0.29631 0.82043 0.8922 0.0
H1330 H 0.27066 0.79591 0.89325 0.0
C1331 C 0.20502 0.69287 0.8814 0.0
C1332 C 0.2359 0.73656 0.86812 0.0
H1333 H 0.28517 0.7416 0.86804 0.0
C1334 C 0.23094 0.75633 0.86816 0.0
C1335 C 0.25574 0.73122 0.86753 0.0
C1336 C 0.26218 0.71035 0.86576 0.0
C1337 C 0.2452 0.77087 0.86774 0.0
C1338 C 0.26504 0.76552 0.86814 0.0
C1339 C 0.26999 0.74575 0.86799 0.0
C1340 C 0.28094 0.78011 0.86809 0.0
C1341 C 0.23876 0.79175 0.86622 0.0
C1342 C 0.29583 0.7789 0.85421 0.0
C1343 C 0.31082 0.79253 0.85399 0.0
C1344 C 0.31109 0.8078 0.86748 0.0
C1345 C 0.29633 0.80892 0.88149 0.0
C1346 C 0.28156 0.79502 0.88198 0.0
H1347 H 0.22401 0.79293 0.85983 0.0
H1348 H 0.23821 0.79821 0.88095 0.0
H1349 H 0.24892 0.8004 0.85719 0.0
H1350 H 0.29574 0.76752 0.84337 0.0
H1351 H 0.32197 0.79136 0.84296 0.0
H1352 H 0.29027 0.17527 0.8809 0.0
H1353 H 0.26509 0.20022 0.88247 0.0
H1354 H 0.30412 0.24151 0.85629 0.0
H1355 H 0.32947 0.21676 0.85481 0.0
H1356 H 0.28376 0.25593 0.88891 0.0
H1357 H 0.23433 0.22094 0.83568 0.0
H1358 H 0.24167 0.20572 0.85553 0.0
H1359 H 0.25943 0.21394 0.83831 0.0
C1360 C 0.29354 0.18966 0.8755 0.0
C1361 C 0.3119 0.19399 0.8677 0.0
C1362 C 0.27908 0.20387 0.87631 0.0
C1363 C 0.28267 0.22261 0.86924 0.0
C1364 C 0.30105 0.22709 0.86175 0.0
H1365 H 0.2175 0.32932 0.85645 0.0
H1366 H 0.24254 0.30428 0.85787 0.0
C1367 C 0.31552 0.21291 0.86092 0.0
C1368 C 0.2673 0.23763 0.86969 0.0
H1369 H 0.22249 0.24885 0.8518 0.0
C1370 C 0.27037 0.25442 0.88078 0.0
C1371 C 0.24985 0.23557 0.85908 0.0
C1372 C 0.24611 0.21816 0.84633 0.0
C1373 C 0.25634 0.26916 0.88172 0.0
C1374 C 0.23895 0.26716 0.87102 0.0
C1375 C 0.23583 0.25031 0.86002 0.0
C1376 C 0.22391 0.28253 0.87073 0.0
C1377 C 0.26012 0.2866 0.89441 0.0
C1378 C 0.20502 0.27849 0.87715 0.0
C1379 C 0.19062 0.29274 0.87628 0.0
C1380 C 0.19482 0.3113 0.86885 0.0
C1381 C 0.21379 0.31526 0.86241 0.0
C1382 C 0.22817 0.30099 0.8633 0.0
H1383 H 0.27143 0.28357 0.90549 0.0
H1384 H 0.2653 0.29878 0.88525 0.0
H1385 H 0.24667 0.29132 0.90191 0.0
H1386 H 0.20142 0.26427 0.88282 0.0
H1387 H 0.17616 0.28915 0.88127 0.0
H1388 H 0.67977 0.21046 0.84239 0.0
H1389 H 0.70584 0.23452 0.843 0.0
H1390 H 0.7305 0.20654 0.89331 0.0
H1391 H 0.70504 0.18186 0.8921 0.0
H1392 H 0.71626 0.26068 0.86764 0.0
H1393 H 0.7774 0.20922 0.86021 0.0
H1394 H 0.7525 0.20178 0.85738 0.0
H1395 H 0.76301 0.204 0.88122 0.0
C1396 C 0.69079 0.20944 0.85356 0.0
C1397 C 0.69048 0.19422 0.86711 0.0
C1398 C 0.70569 0.22319 0.8539 0.0
C1399 C 0.72043 0.22214 0.86794 0.0
C1400 C 0.71972 0.20731 0.88192 0.0
H1401 H 0.79637 0.32081 0.89235 0.0
H1402 H 0.77075 0.29626 0.89323 0.0
C1403 C 0.70506 0.1933 0.88133 0.0
C1404 C 0.73634 0.23672 0.86805 0.0
H1405 H 0.78562 0.24166 0.86883 0.0
C1406 C 0.73144 0.2565 0.86778 0.0
C1407 C 0.75617 0.23133 0.86789 0.0
C1408 C 0.76259 0.21043 0.86647 0.0
C1409 C 0.74574 0.27101 0.86748 0.0
C1410 C 0.76556 0.26562 0.86832 0.0
C1411 C 0.77046 0.24584 0.86846 0.0
C1412 C 0.78148 0.28019 0.86843 0.0
C1413 C 0.73938 0.29189 0.86561 0.0
C1414 C 0.79663 0.27884 0.85484 0.0
C1415 C 0.8116 0.2925 0.85472 0.0
C1416 C 0.81161 0.30794 0.86803 0.0
C1417 C 0.79661 0.30917 0.88178 0.0
C1418 C 0.78186 0.29525 0.88217 0.0
H1419 H 0.72475 0.29303 0.85893 0.0
H1420 H 0.73855 0.29851 0.88026 0.0
H1421 H 0.74972 0.30042 0.85669 0.0
H1422 H 0.79674 0.26734 0.84413 0.0
H1423 H 0.82292 0.29123 0.84389 0.0
H1424 H 0.71141 0.8259 0.88248 0.0
H1425 H 0.73722 0.80158 0.88293 0.0
H1426 H 0.69937 0.76064 0.85457 0.0
H1427 H 0.67348 0.78489 0.85387 0.0
H1428 H 0.7375 0.76396 0.89958 0.0
H1429 H 0.74806 0.76202 0.81968 0.0
H1430 H 0.73484 0.78118 0.83171 0.0
H1431 H 0.72353 0.75806 0.82758 0.0
C1432 C 0.70852 0.81171 0.87638 0.0
C1433 C 0.69037 0.80737 0.86809 0.0
C1434 C 0.72329 0.79784 0.87666 0.0
C1435 C 0.72027 0.77943 0.86855 0.0
C1436 C 0.70209 0.77489 0.86061 0.0
H1437 H 0.7906 0.67589 0.88218 0.0
H1438 H 0.76503 0.70044 0.88327 0.0
C1439 C 0.68727 0.78874 0.86034 0.0
C1440 C 0.73618 0.765 0.86839 0.0
H1441 H 0.76523 0.73863 0.83815 0.0
C1442 C 0.7436 0.75842 0.88617 0.0
C1443 C 0.74425 0.75803 0.85085 0.0
C1444 C 0.73742 0.76528 0.83135 0.0
C1445 C 0.75872 0.74478 0.88688 0.0
C1446 C 0.76641 0.73741 0.86935 0.0
C1447 C 0.75919 0.74422 0.85157 0.0
C1448 C 0.78205 0.72268 0.8691 0.0
C1449 C 0.76652 0.7386 0.90638 0.0
C1450 C 0.79997 0.72696 0.86046 0.0
C1451 C 0.81462 0.71296 0.85975 0.0
C1452 C 0.81155 0.69434 0.86756 0.0
C1453 C 0.79352 0.69011 0.87615 0.0
C1454 C 0.7789 0.70414 0.87688 0.0
H1455 H 0.76248 0.74899 0.91802 0.0
H1456 H 0.7604 0.72421 0.91021 0.0
H1457 H 0.78257 0.73725 0.90598 0.0
H1458 H 0.80263 0.74117 0.85427 0.0
H1459 H 0.82827 0.71668 0.85292 0.0
H1460 H 0.82562 0.71209 0.12092 0.0
H1461 H 0.80065 0.73726 0.11956 0.0
H1462 H 0.75961 0.69824 0.14614 0.0
H1463 H 0.78438 0.67288 0.1474 0.0
H1464 H 0.74495 0.71834 0.11354 0.0
H1465 H 0.78007 0.76829 0.16619 0.0
H1466 H 0.7952 0.76088 0.1463 0.0
H1467 H 0.78716 0.7432 0.16369 0.0
C1468 C 0.81128 0.70882 0.12646 0.0
C1469 C 0.80702 0.69045 0.13429 0.0
C1470 C 0.79707 0.72327 0.12577 0.0
C1471 C 0.77838 0.71968 0.13299 0.0
C1472 C 0.77398 0.70131 0.14055 0.0
H1473 H 0.67145 0.78428 0.14609 0.0
H1474 H 0.69672 0.75947 0.14474 0.0
C1475 C 0.78817 0.68684 0.14126 0.0
C1476 C 0.76331 0.73501 0.13253 0.0
H1477 H 0.75202 0.77991 0.15016 0.0
C1478 C 0.74646 0.73179 0.12156 0.0
C1479 C 0.76537 0.75255 0.14299 0.0
C1480 C 0.78283 0.75645 0.15561 0.0
C1481 C 0.73166 0.74575 0.12061 0.0
C1482 C 0.73365 0.76323 0.13118 0.0
C1483 C 0.75056 0.76651 0.14204 0.0
C1484 C 0.71818 0.77817 0.1315 0.0
C1485 C 0.71416 0.74181 0.10807 0.0
C1486 C 0.72199 0.79703 0.12485 0.0
C1487 C 0.7076 0.8113 0.12566 0.0
C1488 C 0.68914 0.807 0.13327 0.0
C1489 C 0.68542 0.78807 0.13998 0.0
C1490 C 0.69983 0.77383 0.13914 0.0
H1491 H 0.71716 0.73043 0.09704 0.0
H1492 H 0.70206 0.73664 0.11735 0.0
H1493 H 0.70932 0.75519 0.10051 0.0
H1494 H 0.73612 0.8007 0.11903 0.0
H1495 H 0.71101 0.82574 0.12048 0.0
H1496 H 0.21678 0.67135 0.14684 0.0
H1497 H 0.24159 0.6967 0.14582 0.0
H1498 H 0.20075 0.73584 0.11912 0.0
H1499 H 0.17577 0.7107 0.12024 0.0
H1500 H 0.25658 0.71718 0.11356 0.0
H1501 H 0.22068 0.76654 0.16621 0.0
H1502 H 0.21371 0.74144 0.16341 0.0
H1503 H 0.20574 0.75927 0.14613 0.0
C1504 C 0.21306 0.68533 0.14071 0.0
C1505 C 0.19424 0.68899 0.13366 0.0
C1506 C 0.22727 0.6998 0.14014 0.0
C1507 C 0.22292 0.71822 0.13265 0.0
C1508 C 0.20429 0.72183 0.12529 0.0
H1509 H 0.28925 0.82496 0.12079 0.0
H1510 H 0.26442 0.79963 0.11927 0.0
C1511 C 0.19007 0.70738 0.12584 0.0
C1512 C 0.23792 0.73362 0.13246 0.0
H1513 H 0.24864 0.77858 0.15029 0.0
C1514 C 0.25489 0.7306 0.12162 0.0
C1515 C 0.23563 0.7511 0.14297 0.0
C1516 C 0.21805 0.75479 0.15549 0.0
C1517 C 0.26955 0.74472 0.1208 0.0
C1518 C 0.2673 0.76216 0.13138 0.0
C1519 C 0.25029 0.76522 0.14215 0.0
C1520 C 0.28257 0.7773 0.13178 0.0
C1521 C 0.28717 0.74099 0.10835 0.0
C1522 C 0.30096 0.77317 0.13948 0.0
C1523 C 0.31519 0.78758 0.14036 0.0
C1524 C 0.31128 0.80647 0.13363 0.0
C1525 C 0.2928 0.81056 0.12599 0.0
C1526 C 0.27857 0.79612 0.12513 0.0
H1527 H 0.28437 0.72959 0.0973 0.0
H1528 H 0.29189 0.75444 0.10083 0.0
H1529 H 0.29927 0.73596 0.1177 0.0
H1530 H 0.30422 0.75885 0.14509 0.0
H1531 H 0.32919 0.78394 0.14649 0.0
H1532 H 0.71077 0.17541 0.11866 0.0
H1533 H 0.73658 0.19976 0.11806 0.0
H1534 H 0.69928 0.24029 0.14769 0.0
H1535 H 0.6734 0.21604 0.14853 0.0
H1536 H 0.73642 0.23775 0.10191 0.0
H1537 H 0.74871 0.2384 0.18157 0.0
H1538 H 0.73535 0.21937 0.16951 0.0
H1539 H 0.72399 0.24234 0.17429 0.0
C1540 C 0.708 0.18952 0.12501 0.0
C1541 C 0.69001 0.19375 0.13368 0.0
C1542 C 0.72278 0.2034 0.12464 0.0
C1543 C 0.7199 0.22171 0.13305 0.0
C1544 C 0.70188 0.22613 0.1414 0.0
H1545 H 0.78928 0.32597 0.11968 0.0
H1546 H 0.76389 0.30123 0.11858 0.0
C1547 C 0.68707 0.21228 0.14175 0.0
C1548 C 0.73579 0.23617 0.1331 0.0
H1549 H 0.76529 0.26226 0.16314 0.0
C1550 C 0.74278 0.24311 0.11527 0.0
C1551 C 0.74419 0.24291 0.15057 0.0
C1552 C 0.73784 0.23528 0.17009 0.0
C1553 C 0.75776 0.25689 0.11446 0.0
C1554 C 0.76577 0.26404 0.13195 0.0
C1555 C 0.759 0.25686 0.14976 0.0
C1556 C 0.78131 0.27889 0.13212 0.0
C1557 C 0.76509 0.26346 0.09491 0.0
C1558 C 0.79941 0.27462 0.14039 0.0
C1559 C 0.81394 0.28874 0.1411 0.0
C1560 C 0.8106 0.30746 0.13365 0.0
C1561 C 0.79241 0.31168 0.12541 0.0
C1562 C 0.77789 0.29753 0.12469 0.0
H1563 H 0.7609 0.25322 0.08319 0.0
H1564 H 0.75875 0.27785 0.09145 0.0
H1565 H 0.78113 0.26496 0.09498 0.0
H1566 H 0.80228 0.26035 0.14631 0.0
H1567 H 0.82773 0.28501 0.14766 0.0
H1568 H 0.67504 0.6192 0.71205 0.0
H1569 H 0.69929 0.61844 0.73798 0.0
H1570 H 0.74014 0.64784 0.70084 0.0
H1571 H 0.71602 0.64883 0.67487 0.0
H1572 H 0.73726 0.60204 0.73788 0.0
H1573 H 0.7383 0.68166 0.75033 0.0
H1574 H 0.71923 0.66972 0.73692 0.0
H1575 H 0.74223 0.67444 0.72559 0.0
C1576 C 0.68919 0.62547 0.70936 0.0
C1577 C 0.69356 0.63411 0.69137 0.0
C1578 C 0.70302 0.62501 0.72419 0.0
C1579 C 0.72139 0.6333 0.72139 0.0
C1580 C 0.72593 0.64164 0.70338 0.0
H1581 H 0.82592 0.61951 0.79024 0.0
H1582 H 0.80097 0.61841 0.76504 0.0
C1583 C 0.71214 0.64208 0.68852 0.0
C1584 C 0.73583 0.63324 0.73731 0.0
H1585 H 0.7622 0.6631 0.76674 0.0
C1586 C 0.7427 0.61537 0.74424 0.0
C1587 C 0.74268 0.65066 0.74571 0.0
C1588 C 0.73514 0.67023 0.73942 0.0
C1589 C 0.75655 0.61447 0.75916 0.0
C1590 C 0.76383 0.63191 0.76716 0.0
C1591 C 0.75669 0.64976 0.76046 0.0
C1592 C 0.77878 0.63199 0.78261 0.0
C1593 C 0.76309 0.59488 0.76642 0.0
C1594 C 0.77467 0.64027 0.80074 0.0
C1595 C 0.78889 0.64098 0.81517 0.0
C1596 C 0.80758 0.63353 0.81169 0.0
C1597 C 0.81165 0.62525 0.79347 0.0
C1598 C 0.79738 0.62452 0.77907 0.0
H1599 H 0.75278 0.58321 0.76225 0.0
H1600 H 0.77743 0.59137 0.75999 0.0
H1601 H 0.76467 0.59491 0.78245 0.0
H1602 H 0.76042 0.64622 0.80371 0.0
H1603 H 0.78527 0.64757 0.82897 0.0
H1604 H 0.21199 0.38168 0.82725 0.0
H1605 H 0.23785 0.38272 0.80296 0.0
H1606 H 0.20038 0.35449 0.76159 0.0
H1607 H 0.17448 0.3532 0.78576 0.0
H1608 H 0.23757 0.33787 0.76448 0.0
H1609 H 0.2413 0.41779 0.75459 0.0
H1610 H 0.24303 0.40966 0.7793 0.0
H1611 H 0.22093 0.40591 0.76601 0.0
C1612 C 0.20917 0.37582 0.81294 0.0
C1613 C 0.1911 0.36745 0.80843 0.0
C1614 C 0.22395 0.37651 0.79906 0.0
C1615 C 0.22093 0.36891 0.78042 0.0
C1616 C 0.20296 0.36053 0.77587 0.0
H1617 H 0.29015 0.38162 0.67643 0.0
H1618 H 0.26491 0.3823 0.70133 0.0
C1619 C 0.18816 0.35986 0.78971 0.0
C1620 C 0.23671 0.36906 0.76582 0.0
H1621 H 0.26569 0.39909 0.73911 0.0
C1622 C 0.24373 0.35124 0.75891 0.0
C1623 C 0.24455 0.38655 0.75848 0.0
C1624 C 0.23699 0.40609 0.76481 0.0
C1625 C 0.25854 0.35042 0.74496 0.0
C1626 C 0.26668 0.3679 0.73793 0.0
C1627 C 0.25953 0.38573 0.74468 0.0
C1628 C 0.28228 0.36794 0.72316 0.0
C1629 C 0.2651 0.33088 0.73758 0.0
C1630 C 0.30052 0.35991 0.72732 0.0
C1631 C 0.31501 0.35951 0.71313 0.0
C1632 C 0.31154 0.3672 0.69453 0.0
C1633 C 0.29333 0.37555 0.69057 0.0
C1634 C 0.27888 0.37598 0.70478 0.0
H1635 H 0.2545 0.31925 0.7411 0.0
H1636 H 0.26729 0.33122 0.72162 0.0
H1637 H 0.27915 0.32706 0.74446 0.0
H1638 H 0.30352 0.3539 0.74153 0.0
H1639 H 0.32886 0.35299 0.71669 0.0
H1640 H 0.28446 0.64685 0.32913 0.0
H1641 H 0.25944 0.64539 0.30405 0.0
H1642 H 0.30043 0.61969 0.2644 0.0
H1643 H 0.32553 0.62086 0.28944 0.0
H1644 H 0.26023 0.66305 0.26748 0.0
H1645 H 0.2537 0.58298 0.261 0.0
H1646 H 0.26553 0.59456 0.28131 0.0
H1647 H 0.27796 0.59218 0.25851 0.0
C1648 C 0.28815 0.64072 0.31514 0.0
C1649 C 0.307 0.63384 0.31136 0.0
C1650 C 0.27382 0.63993 0.30082 0.0
C1651 C 0.278 0.63218 0.28247 0.0
C1652 C 0.29679 0.62536 0.27859 0.0
H1653 H 0.21131 0.62027 0.17601 0.0
H1654 H 0.23655 0.61986 0.20099 0.0
C1655 C 0.31114 0.62613 0.29291 0.0
C1656 C 0.26288 0.63193 0.26719 0.0
H1657 H 0.23669 0.60184 0.23778 0.0
C1658 C 0.25501 0.64967 0.26103 0.0
C1659 C 0.25619 0.61445 0.25876 0.0
C1660 C 0.26363 0.59493 0.26531 0.0
C1661 C 0.24078 0.65044 0.24649 0.0
C1662 C 0.234 0.63295 0.23815 0.0
C1663 C 0.24193 0.61521 0.24422 0.0
C1664 C 0.21854 0.6328 0.2232 0.0
C1665 C 0.2334 0.66998 0.23992 0.0
C1666 C 0.19996 0.63989 0.22754 0.0
C1667 C 0.18552 0.64016 0.21332 0.0
C1668 C 0.18933 0.63321 0.1945 0.0
C1669 C 0.20787 0.62574 0.19033 0.0
C1670 C 0.22232 0.62549 0.20458 0.0
H1671 H 0.24352 0.68186 0.24397 0.0
H1672 H 0.23122 0.67027 0.22396 0.0
H1673 H 0.21923 0.67293 0.24697 0.0
H1674 H 0.19664 0.64525 0.24193 0.0
H1675 H 0.1714 0.64597 0.21708 0.0
H1676 H 0.71081 0.38087 0.32565 0.0
H1677 H 0.73568 0.38241 0.30039 0.0
H1678 H 0.69591 0.3568 0.25945 0.0
H1679 H 0.67086 0.35538 0.2845 0.0
H1680 H 0.75137 0.35132 0.27948 0.0
H1681 H 0.71619 0.4045 0.23027 0.0
H1682 H 0.7085 0.401 0.25508 0.0
H1683 H 0.70118 0.38415 0.23657 0.0
C1684 C 0.70726 0.37573 0.31123 0.0
C1685 C 0.68877 0.36812 0.30709 0.0
C1686 C 0.72151 0.37659 0.29682 0.0
C1687 C 0.71754 0.36998 0.27799 0.0
C1688 C 0.69914 0.36236 0.27379 0.0
H1689 H 0.78378 0.35491 0.17246 0.0
H1690 H 0.75892 0.35606 0.19772 0.0
C1691 C 0.68487 0.36148 0.28817 0.0
C1692 C 0.73291 0.37032 0.26294 0.0
H1693 H 0.74408 0.38825 0.21812 0.0
C1694 C 0.74986 0.3595 0.26612 0.0
C1695 C 0.73084 0.38097 0.24551 0.0
C1696 C 0.71328 0.39346 0.24166 0.0
C1697 C 0.76464 0.35868 0.25213 0.0
C1698 C 0.76254 0.36925 0.23466 0.0
C1699 C 0.74563 0.38015 0.23152 0.0
C1700 C 0.77763 0.36898 0.21935 0.0
C1701 C 0.78215 0.34608 0.25594 0.0
C1702 C 0.79632 0.37614 0.22306 0.0
C1703 C 0.8106 0.37551 0.20866 0.0
C1704 C 0.8064 0.36781 0.19022 0.0
C1705 C 0.78754 0.36095 0.18648 0.0
C1706 C 0.77329 0.36159 0.20089 0.0
H1707 H 0.77938 0.33535 0.26765 0.0
H1708 H 0.78656 0.33817 0.24262 0.0
H1709 H 0.79446 0.35538 0.26054 0.0
H1710 H 0.79987 0.38223 0.2371 0.0
H1711 H 0.82494 0.38097 0.21204 0.0
H1712 H 0.1757 0.61898 0.79016 0.0
H1713 H 0.20026 0.61803 0.76456 0.0
H1714 H 0.2409 0.64703 0.80226 0.0
H1715 H 0.21643 0.64824 0.82789 0.0
H1716 H 0.23843 0.66328 0.76502 0.0
H1717 H 0.2489 0.58345 0.76181 0.0
H1718 H 0.22413 0.59128 0.75968 0.0
H1719 H 0.23708 0.59534 0.78194 0.0
C1720 C 0.1899 0.62503 0.79308 0.0
C1721 C 0.19411 0.63358 0.81114 0.0
C1722 C 0.20395 0.6244 0.77845 0.0
C1723 C 0.22247 0.63223 0.78162 0.0
C1724 C 0.22671 0.64081 0.79957 0.0
H1725 H 0.32634 0.61957 0.71167 0.0
H1726 H 0.30183 0.61895 0.73732 0.0
C1727 C 0.21271 0.64144 0.81422 0.0
C1728 C 0.23724 0.63209 0.766 0.0
H1729 H 0.26414 0.60208 0.73716 0.0
C1730 C 0.24409 0.64992 0.75894 0.0
C1731 C 0.24472 0.61461 0.75826 0.0
C1732 C 0.2385 0.59506 0.76589 0.0
C1733 C 0.25805 0.65075 0.74414 0.0
C1734 C 0.26515 0.63328 0.73604 0.0
C1735 C 0.25852 0.61544 0.74329 0.0
C1736 C 0.27973 0.63325 0.72025 0.0
C1737 C 0.26533 0.67031 0.7375 0.0
C1738 C 0.27529 0.64123 0.70206 0.0
C1739 C 0.28924 0.6416 0.68734 0.0
C1740 C 0.30789 0.63391 0.69053 0.0
C1741 C 0.31215 0.62563 0.7087 0.0
C1742 C 0.29816 0.62524 0.72339 0.0
H1743 H 0.26192 0.68191 0.74816 0.0
H1744 H 0.28126 0.67 0.73511 0.0
H1745 H 0.25828 0.67413 0.72354 0.0
H1746 H 0.26103 0.64721 0.69925 0.0
H1747 H 0.28544 0.64807 0.67353 0.0
H1748 H 0.82545 0.38137 0.79027 0.0
H1749 H 0.80031 0.38284 0.76529 0.0
H1750 H 0.75954 0.35616 0.80452 0.0
H1751 H 0.78447 0.3548 0.8297 0.0
H1752 H 0.77987 0.3518 0.74901 0.0
H1753 H 0.7299 0.4038 0.78484 0.0
H1754 H 0.7547 0.40047 0.79259 0.0
H1755 H 0.73635 0.3833 0.79957 0.0
C1756 C 0.81109 0.37596 0.79368 0.0
C1757 C 0.80695 0.36809 0.81206 0.0
C1758 C 0.79676 0.37679 0.77935 0.0
C1759 C 0.778 0.36988 0.78315 0.0
C1760 C 0.77381 0.36196 0.80143 0.0
H1761 H 0.67289 0.35414 0.71683 0.0
H1762 H 0.69825 0.35532 0.74155 0.0
C1763 C 0.78813 0.36112 0.81578 0.0
C1764 C 0.76302 0.37028 0.76773 0.0
H1765 H 0.71801 0.38779 0.7567 0.0
C1766 C 0.7664 0.35978 0.75061 0.0
C1767 C 0.74546 0.38067 0.7699 0.0
C1768 C 0.7414 0.39285 0.78763 0.0
C1769 C 0.75248 0.35902 0.73576 0.0
C1770 C 0.73486 0.36931 0.73799 0.0
C1771 C 0.73153 0.37991 0.75505 0.0
C1772 C 0.71953 0.36895 0.72293 0.0
C1773 C 0.7565 0.34677 0.71806 0.0
C1774 C 0.72301 0.37647 0.70433 0.0
C1775 C 0.70854 0.37583 0.69012 0.0
C1776 C 0.69026 0.36774 0.69431 0.0
C1777 C 0.68677 0.36048 0.71308 0.0
C1778 C 0.70124 0.36114 0.72725 0.0
H1779 H 0.76844 0.33625 0.72062 0.0
H1780 H 0.74333 0.33865 0.71357 0.0
H1781 H 0.76084 0.35635 0.70587 0.0
H1782 H 0.73692 0.38287 0.70081 0.0
H1783 H 0.71171 0.38159 0.67585 0.0
H1784 H 0.3246 0.3831 0.29025 0.0
H1785 H 0.2999 0.384 0.2648 0.0
H1786 H 0.26014 0.35327 0.30206 0.0
H1787 H 0.28476 0.35217 0.3276 0.0
H1788 H 0.26361 0.33779 0.26393 0.0
H1789 H 0.2498 0.41721 0.26339 0.0
H1790 H 0.27489 0.41034 0.26148 0.0
H1791 H 0.26171 0.40506 0.28333 0.0
C1792 C 0.31056 0.37665 0.29312 0.0
C1793 C 0.30663 0.36765 0.31102 0.0
C1794 C 0.29644 0.37726 0.27857 0.0
C1795 C 0.27814 0.36891 0.28165 0.0
C1796 C 0.27416 0.3599 0.29946 0.0
H1797 H 0.17425 0.38013 0.21168 0.0
H1798 H 0.19865 0.38079 0.2374 0.0
C1799 C 0.28823 0.35934 0.31405 0.0
C1800 C 0.26338 0.36895 0.26605 0.0
H1801 H 0.23536 0.39878 0.23815 0.0
C1802 C 0.25738 0.3511 0.25831 0.0
C1803 C 0.25519 0.38634 0.25891 0.0
C1804 C 0.26056 0.40584 0.26728 0.0
C1805 C 0.24356 0.3502 0.24338 0.0
C1806 C 0.23574 0.36763 0.23588 0.0
C1807 C 0.24153 0.38546 0.24382 0.0
C1808 C 0.22122 0.36762 0.22003 0.0
C1809 C 0.23721 0.33059 0.23599 0.0
C1810 C 0.22595 0.36027 0.20164 0.0
C1811 C 0.21204 0.35986 0.18688 0.0
C1812 C 0.19317 0.3669 0.19022 0.0
C1813 C 0.18863 0.3746 0.20859 0.0
C1814 C 0.20255 0.375 0.22332 0.0
H1815 H 0.24096 0.31879 0.24632 0.0
H1816 H 0.22131 0.3303 0.23337 0.0
H1817 H 0.24463 0.32753 0.22204 0.0
H1818 H 0.24039 0.35483 0.19871 0.0
H1819 H 0.21605 0.35388 0.17292 0.0
H1820 H 0.67617 0.62083 0.29007 0.0
H1821 H 0.70148 0.61936 0.26523 0.0
H1822 H 0.74219 0.64539 0.30495 0.0
H1823 H 0.7171 0.64676 0.32996 0.0
H1824 H 0.72239 0.65053 0.24945 0.0
H1825 H 0.77148 0.59751 0.28507 0.0
H1826 H 0.74662 0.60098 0.2926 0.0
H1827 H 0.76504 0.61791 0.29995 0.0
C1828 C 0.69055 0.6261 0.2936 0.0
C1829 C 0.69463 0.63379 0.31208 0.0
C1830 C 0.70497 0.62527 0.27937 0.0
C1831 C 0.72377 0.63199 0.28335 0.0
C1832 C 0.72789 0.63974 0.30172 0.0
H1833 H 0.82939 0.64648 0.21706 0.0
H1834 H 0.80417 0.64553 0.24199 0.0
C1835 C 0.71348 0.64059 0.31597 0.0
C1836 C 0.73886 0.63159 0.26805 0.0
H1837 H 0.78366 0.61351 0.25707 0.0
C1838 C 0.73574 0.64234 0.25104 0.0
C1839 C 0.75626 0.62093 0.27022 0.0
C1840 C 0.76004 0.60853 0.28786 0.0
C1841 C 0.74975 0.64305 0.23628 0.0
C1842 C 0.76718 0.63244 0.23847 0.0
C1843 C 0.77027 0.62163 0.25545 0.0
C1844 C 0.78249 0.63255 0.22338 0.0
C1845 C 0.746 0.65555 0.21869 0.0
C1846 C 0.77874 0.62526 0.20475 0.0
C1847 C 0.79311 0.62578 0.19044 0.0
C1848 C 0.81156 0.63348 0.19456 0.0
C1849 C 0.81536 0.64043 0.21338 0.0
C1850 C 0.80097 0.63991 0.22766 0.0
H1851 H 0.73434 0.66635 0.22139 0.0
H1852 H 0.75936 0.66338 0.21424 0.0
H1853 H 0.74137 0.6462 0.20643 0.0
H1854 H 0.76467 0.61918 0.20126 0.0
H1855 H 0.78969 0.62024 0.17613 0.0
H1856 H 0.28984 0.67528 0.62069 0.0
H1857 H 0.26461 0.70019 0.61972 0.0
H1858 H 0.30416 0.74151 0.64504 0.0
H1859 H 0.32944 0.71668 0.64631 0.0
H1860 H 0.26778 0.74027 0.66313 0.0
H1861 H 0.26038 0.74699 0.58314 0.0
H1862 H 0.25824 0.72268 0.59231 0.0
H1863 H 0.28093 0.73534 0.59447 0.0
C1864 C 0.29326 0.6897 0.6259 0.0
C1865 C 0.31173 0.694 0.63347 0.0
C1866 C 0.27883 0.70394 0.62525 0.0
C1867 C 0.28261 0.72276 0.63204 0.0
C1868 C 0.30099 0.7271 0.63962 0.0
H1869 H 0.2168 0.82885 0.64674 0.0
H1870 H 0.24171 0.80368 0.64576 0.0
C1871 C 0.31543 0.71289 0.64028 0.0
C1872 C 0.26719 0.73773 0.632 0.0
H1873 H 0.23725 0.76377 0.60231 0.0
C1874 C 0.26115 0.74547 0.64984 0.0
C1875 C 0.25852 0.7444 0.61463 0.0
C1876 C 0.26492 0.73707 0.59502 0.0
C1877 C 0.24651 0.75958 0.65081 0.0
C1878 C 0.23793 0.76636 0.63343 0.0
C1879 C 0.24387 0.75853 0.6156 0.0
C1880 C 0.22292 0.78174 0.63349 0.0
C1881 C 0.24009 0.76685 0.67045 0.0
C1882 C 0.20424 0.77791 0.62637 0.0
C1883 C 0.18996 0.79231 0.62678 0.0
C1884 C 0.19415 0.81087 0.6342 0.0
C1885 C 0.21303 0.81473 0.64098 0.0
C1886 C 0.22727 0.80032 0.64055 0.0
H1887 H 0.24432 0.75671 0.68224 0.0
H1888 H 0.24708 0.78105 0.67338 0.0
H1889 H 0.22412 0.76893 0.67091 0.0
H1890 H 0.20064 0.76367 0.62077 0.0
H1891 H 0.17559 0.78884 0.62145 0.0
H1892 H 0.28999 0.3256 0.38392 0.0
H1893 H 0.26421 0.30123 0.38497 0.0
H1894 H 0.30002 0.26167 0.35234 0.0
H1895 H 0.32588 0.28592 0.35111 0.0
H1896 H 0.26127 0.26609 0.33812 0.0
H1897 H 0.26356 0.25024 0.41717 0.0
H1898 H 0.2618 0.27549 0.41085 0.0
H1899 H 0.28324 0.26209 0.40456 0.0
C1900 C 0.29246 0.31167 0.37707 0.0
C1901 C 0.31007 0.30768 0.36753 0.0
C1902 C 0.27773 0.29774 0.37776 0.0
C1903 C 0.28032 0.2796 0.36893 0.0
C1904 C 0.29781 0.27557 0.35934 0.0
H1905 H 0.21173 0.17503 0.37975 0.0
H1906 H 0.23702 0.19987 0.38028 0.0
C1907 C 0.31258 0.28944 0.35871 0.0
C1908 C 0.26458 0.26498 0.36916 0.0
H1909 H 0.23792 0.23602 0.39923 0.0
C1910 C 0.25615 0.25949 0.35146 0.0
C1911 C 0.2581 0.25631 0.38658 0.0
C1912 C 0.26721 0.26116 0.40589 0.0
C1913 C 0.24124 0.24564 0.35073 0.0
C1914 C 0.23446 0.23726 0.36821 0.0
C1915 C 0.24304 0.24261 0.38589 0.0
C1916 C 0.21884 0.2225 0.36837 0.0
C1917 C 0.23314 0.23981 0.33124 0.0
C1918 C 0.20013 0.2271 0.36179 0.0
C1919 C 0.18561 0.21293 0.36144 0.0
C1920 C 0.18952 0.19392 0.3678 0.0
C1921 C 0.20819 0.18951 0.37476 0.0
C1922 C 0.22269 0.20368 0.37509 0.0
H1923 H 0.24294 0.24404 0.31916 0.0
H1924 H 0.23067 0.2239 0.33056 0.0
H1925 H 0.21899 0.24716 0.32898 0.0
H1926 H 0.19677 0.24164 0.35687 0.0
H1927 H 0.17139 0.21686 0.35604 0.0
H1928 H 0.17619 0.78963 0.38167 0.0
H1929 H 0.20145 0.76476 0.38322 0.0
H1930 H 0.24231 0.80444 0.35735 0.0
H1931 H 0.21725 0.82948 0.3559 0.0
H1932 H 0.22229 0.74897 0.3521 0.0
H1933 H 0.27159 0.78431 0.40508 0.0
H1934 H 0.24677 0.79196 0.40163 0.0
H1935 H 0.26522 0.79927 0.38471 0.0
C1936 C 0.19059 0.79316 0.37647 0.0
C1937 C 0.19471 0.81162 0.36878 0.0
C1938 C 0.20499 0.77891 0.37734 0.0
C1939 C 0.22381 0.78285 0.37067 0.0
C1940 C 0.22799 0.80123 0.36296 0.0
H1941 H 0.32931 0.71671 0.35539 0.0
H1942 H 0.30403 0.74154 0.35665 0.0
C1943 C 0.2136 0.8155 0.36207 0.0
C1944 C 0.23886 0.76749 0.37102 0.0
H1945 H 0.28372 0.75638 0.38888 0.0
C1946 C 0.23567 0.75051 0.36025 0.0
C1947 C 0.2563 0.76959 0.38163 0.0
C1948 C 0.26017 0.78718 0.39407 0.0
C1949 C 0.24966 0.73573 0.35943 0.0
C1950 C 0.26715 0.73787 0.36996 0.0
C1951 C 0.2703 0.7548 0.38082 0.0
C1952 C 0.28248 0.7228 0.36966 0.0
C1953 C 0.24583 0.71819 0.34689 0.0
C1954 C 0.27883 0.7041 0.37684 0.0
C1955 C 0.29324 0.68984 0.37614 0.0
C1956 C 0.31164 0.69406 0.36836 0.0
C1957 C 0.31533 0.71294 0.3615 0.0
C1958 C 0.30091 0.72717 0.3622 0.0
H1959 H 0.23409 0.72092 0.33618 0.0
H1960 H 0.25914 0.71378 0.33894 0.0
H1961 H 0.24128 0.70589 0.35622 0.0
H1962 H 0.26481 0.70053 0.38299 0.0
H1963 H 0.28991 0.67549 0.38161 0.0
H1964 H 0.6718 0.71683 0.35542 0.0
H1965 H 0.69714 0.74162 0.35643 0.0
H1966 H 0.73634 0.70071 0.38295 0.0
H1967 H 0.71118 0.67572 0.38183 0.0
H1968 H 0.71763 0.75663 0.38849 0.0
H1969 H 0.76693 0.72062 0.33584 0.0
H1970 H 0.74187 0.71359 0.33875 0.0
H1971 H 0.75976 0.70576 0.35602 0.0
C1972 C 0.68578 0.71308 0.36152 0.0
C1973 C 0.68946 0.69424 0.3685 0.0
C1974 C 0.70025 0.72728 0.36207 0.0
C1975 C 0.71868 0.72291 0.3695 0.0
C1976 C 0.72231 0.70427 0.37682 0.0
H1977 H 0.82515 0.78967 0.38072 0.0
H1978 H 0.79991 0.76478 0.38244 0.0
C1979 C 0.70786 0.69004 0.37627 0.0
C1980 C 0.73407 0.73793 0.36963 0.0
H1981 H 0.77889 0.74875 0.3515 0.0
C1982 C 0.73102 0.75495 0.38038 0.0
C1983 C 0.7515 0.73565 0.35904 0.0
C1984 C 0.75522 0.71801 0.34661 0.0
C1985 C 0.74506 0.76969 0.38102 0.0
C1986 C 0.76245 0.76746 0.37036 0.0
C1987 C 0.76555 0.75039 0.35969 0.0
C1988 C 0.77752 0.78278 0.3698 0.0
C1989 C 0.74131 0.78738 0.39336 0.0
C1990 C 0.77333 0.8011 0.36197 0.0
C1991 C 0.78769 0.81537 0.36097 0.0
C1992 C 0.80659 0.81157 0.36772 0.0
C1993 C 0.81074 0.79315 0.37549 0.0
C1994 C 0.79635 0.77888 0.37646 0.0
H1995 H 0.72994 0.78462 0.40445 0.0
H1996 H 0.75476 0.79218 0.40082 0.0
H1997 H 0.73624 0.79942 0.38394 0.0
H1998 H 0.75899 0.80427 0.35636 0.0
H1999 H 0.78402 0.82932 0.35475 0.0
H2000 H 0.68064 0.29638 0.39259 0.0
H2001 H 0.70557 0.27121 0.39459 0.0
H2002 H 0.73469 0.29616 0.34507 0.0
H2003 H 0.71037 0.32191 0.34368 0.0
H2004 H 0.71501 0.24389 0.371 0.0
H2005 H 0.77974 0.29026 0.38016 0.0
H2006 H 0.75545 0.29982 0.38175 0.0
H2007 H 0.76687 0.29645 0.35845 0.0
C2008 C 0.69249 0.2966 0.38228 0.0
C2009 C 0.69369 0.31121 0.36811 0.0
C2010 C 0.70673 0.2822 0.38341 0.0
C2011 C 0.72228 0.28196 0.37023 0.0
C2012 C 0.72326 0.29637 0.35584 0.0
H2013 H 0.79021 0.1794 0.34316 0.0
H2014 H 0.76592 0.20519 0.34473 0.0
C2015 C 0.70927 0.31102 0.35497 0.0
C2016 C 0.73696 0.26616 0.37103 0.0
H2017 H 0.78568 0.25729 0.37091 0.0
C2018 C 0.73047 0.24684 0.37119 0.0
C2019 C 0.75715 0.26994 0.37163 0.0
C2020 C 0.76519 0.29025 0.37321 0.0
C2021 C 0.74354 0.23124 0.37153 0.0
C2022 C 0.76373 0.23502 0.37088 0.0
C2023 C 0.77022 0.25434 0.37114 0.0
C2024 C 0.7784 0.21922 0.36995 0.0
C2025 C 0.7355 0.21092 0.37302 0.0
C2026 C 0.79398 0.2189 0.38309 0.0
C2027 C 0.80819 0.20448 0.38186 0.0
C2028 C 0.80694 0.18995 0.36762 0.0
C2029 C 0.79135 0.19024 0.3545 0.0
C2030 C 0.77738 0.2049 0.35547 0.0
H2031 H 0.72097 0.21086 0.38001 0.0
H2032 H 0.73379 0.2048 0.35823 0.0
H2033 H 0.74527 0.2013 0.38148 0.0
H2034 H 0.79517 0.22982 0.39433 0.0
H2035 H 0.82006 0.20462 0.39216 0.0
H2036 H 0.82864 0.21742 0.64723 0.0
H2037 H 0.80319 0.24209 0.64595 0.0
H2038 H 0.76439 0.20092 0.61924 0.0
H2039 H 0.78966 0.17605 0.62062 0.0
H2040 H 0.78311 0.25678 0.61343 0.0
H2041 H 0.7331 0.22123 0.66574 0.0
H2042 H 0.75821 0.21422 0.66327 0.0
H2043 H 0.7406 0.2062 0.64581 0.0
C2044 C 0.81471 0.21358 0.64106 0.0
C2045 C 0.8112 0.19471 0.63406 0.0
C2046 C 0.80018 0.22771 0.64034 0.0
C2047 C 0.78184 0.22325 0.63275 0.0
C2048 C 0.77835 0.20455 0.62549 0.0
H2049 H 0.67549 0.29034 0.6202 0.0
H2050 H 0.7006 0.26528 0.61868 0.0
C2051 C 0.79286 0.1904 0.62619 0.0
C2052 C 0.76644 0.23826 0.63227 0.0
H2053 H 0.72139 0.24926 0.64972 0.0
C2054 C 0.76962 0.25517 0.62139 0.0
C2055 C 0.74886 0.23608 0.64264 0.0
C2056 C 0.74497 0.21854 0.65517 0.0
C2057 C 0.75559 0.26991 0.62042 0.0
C2058 C 0.73806 0.26779 0.6309 0.0
C2059 C 0.73482 0.25081 0.64167 0.0
C2060 C 0.72307 0.28322 0.63126 0.0
C2061 C 0.75951 0.28748 0.60796 0.0
C2062 C 0.72735 0.30156 0.63897 0.0
C2063 C 0.71307 0.31592 0.63984 0.0
C2064 C 0.69416 0.31219 0.6331 0.0
C2065 C 0.68992 0.29376 0.62541 0.0
C2066 C 0.70423 0.2794 0.62456 0.0
H2067 H 0.77091 0.28454 0.59695 0.0
H2068 H 0.74614 0.29232 0.6004 0.0
H2069 H 0.76464 0.29954 0.6173 0.0
H2070 H 0.74169 0.30468 0.64461 0.0
H2071 H 0.71683 0.32988 0.64602 0.0
H2072 H 0.32631 0.28987 0.6185 0.0
H2073 H 0.30198 0.26404 0.6175 0.0
H2074 H 0.2617 0.30053 0.64846 0.0
H2075 H 0.28592 0.3264 0.6497 0.0
H2076 H 0.2651 0.26266 0.66361 0.0
H2077 H 0.25234 0.26207 0.58402 0.0
H2078 H 0.27733 0.26007 0.59117 0.0
H2079 H 0.26417 0.28198 0.59628 0.0
C2080 C 0.31223 0.29248 0.62499 0.0
C2081 C 0.30804 0.31028 0.63407 0.0
C2082 C 0.29833 0.27772 0.62432 0.0
C2083 C 0.27997 0.28048 0.63268 0.0
C2084 C 0.27576 0.29816 0.64183 0.0
H2085 H 0.17592 0.211 0.62034 0.0
H2086 H 0.20058 0.2365 0.61987 0.0
C2087 C 0.28961 0.31295 0.64247 0.0
C2088 C 0.26533 0.26474 0.63245 0.0
H2089 H 0.23759 0.2369 0.60227 0.0
C2090 C 0.25906 0.25702 0.65021 0.0
C2091 C 0.25736 0.25758 0.61495 0.0
C2092 C 0.26297 0.26593 0.5955 0.0
C2093 C 0.24515 0.24216 0.65095 0.0
C2094 C 0.23752 0.23467 0.63343 0.0
C2095 C 0.24362 0.24255 0.61567 0.0
C2096 C 0.22286 0.21894 0.63328 0.0
C2097 C 0.23848 0.23484 0.67048 0.0
C2098 C 0.22734 0.20052 0.64069 0.0
C2099 C 0.21329 0.18589 0.64099 0.0
C2100 C 0.19451 0.18939 0.63378 0.0
C2101 C 0.19022 0.20779 0.62602 0.0
C2102 C 0.20429 0.22239 0.62572 0.0
H2103 H 0.24218 0.24513 0.68233 0.0
H2104 H 0.22255 0.23239 0.67057 0.0
H2105 H 0.24571 0.22081 0.67364 0.0
H2106 H 0.2417 0.19747 0.64629 0.0
H2107 H 0.21712 0.1719 0.64704 0.0
H2108 H 0.78449 0.82946 0.64677 0.0
H2109 H 0.7598 0.80403 0.64572 0.0
H2110 H 0.80085 0.76503 0.61913 0.0
H2111 H 0.82574 0.79028 0.62028 0.0
H2112 H 0.74499 0.78355 0.61341 0.0
H2113 H 0.78086 0.73432 0.66624 0.0
H2114 H 0.78777 0.75943 0.66344 0.0
H2115 H 0.79579 0.74163 0.64616 0.0
C2116 C 0.78829 0.8155 0.64066 0.0
C2117 C 0.80713 0.81191 0.63365 0.0
C2118 C 0.77415 0.80098 0.64007 0.0
C2119 C 0.77858 0.78259 0.6326 0.0
C2120 C 0.79724 0.77903 0.62528 0.0
H2121 H 0.7121 0.67595 0.62127 0.0
H2122 H 0.73697 0.70122 0.61962 0.0
C2123 C 0.81141 0.79353 0.62585 0.0
C2124 C 0.76361 0.76717 0.6324 0.0
H2125 H 0.75279 0.72234 0.65051 0.0
C2126 C 0.74665 0.77017 0.62154 0.0
C2127 C 0.76587 0.74974 0.64301 0.0
C2128 C 0.78346 0.74608 0.65552 0.0
C2129 C 0.73195 0.75609 0.62083 0.0
C2130 C 0.73415 0.73872 0.63153 0.0
C2131 C 0.75117 0.73567 0.64229 0.0
C2132 C 0.71885 0.72363 0.63204 0.0
C2133 C 0.71432 0.7598 0.60838 0.0
C2134 C 0.70047 0.72784 0.63972 0.0
C2135 C 0.68621 0.71346 0.64066 0.0
C2136 C 0.69009 0.69454 0.63402 0.0
C2137 C 0.70857 0.69038 0.62641 0.0
C2138 C 0.72282 0.70478 0.62548 0.0
H2139 H 0.71715 0.77113 0.59726 0.0
H2140 H 0.70956 0.74632 0.60094 0.0
H2141 H 0.70224 0.76491 0.61771 0.0
H2142 H 0.69724 0.74219 0.64525 0.0
H2143 H 0.67221 0.71715 0.64677 0.0
H2144 H 0.621 0.21092 0.82456 0.0
H2145 H 0.6195 0.23574 0.79928 0.0
H2146 H 0.64619 0.1963 0.75872 0.0
H2147 H 0.6476 0.17127 0.78382 0.0
H2148 H 0.65079 0.25176 0.77872 0.0
H2149 H 0.5984 0.21598 0.72906 0.0
H2150 H 0.60169 0.20841 0.75393 0.0
H2151 H 0.61886 0.20124 0.73566 0.0
C2152 C 0.6264 0.20743 0.81022 0.0
C2153 C 0.6343 0.18903 0.80619 0.0
C2154 C 0.62556 0.22166 0.79581 0.0
C2155 C 0.63247 0.21776 0.77707 0.0
C2156 C 0.6404 0.19946 0.77298 0.0
H2157 H 0.64703 0.28476 0.67191 0.0
H2158 H 0.64614 0.25969 0.69697 0.0
C2159 C 0.64127 0.18521 0.78739 0.0
C2160 C 0.63209 0.23312 0.76203 0.0
H2161 H 0.61417 0.24423 0.7172 0.0
C2162 C 0.64269 0.25019 0.76532 0.0
C2163 C 0.62156 0.23096 0.74456 0.0
C2164 C 0.60933 0.21324 0.74059 0.0
C2165 C 0.64335 0.26504 0.7514 0.0
C2166 C 0.63284 0.26288 0.73391 0.0
C2167 C 0.6222 0.24583 0.73064 0.0
C2168 C 0.63292 0.27807 0.7187 0.0
C2169 C 0.65569 0.2827 0.75534 0.0
C2170 C 0.62547 0.29663 0.72253 0.0
C2171 C 0.62596 0.31102 0.70825 0.0
C2172 C 0.63378 0.30707 0.68981 0.0
C2173 C 0.64089 0.28832 0.68593 0.0
C2174 C 0.6404 0.27395 0.70023 0.0
H2175 H 0.66645 0.28001 0.76703 0.0
H2176 H 0.66355 0.28732 0.74205 0.0
H2177 H 0.64621 0.29485 0.76001 0.0
H2178 H 0.6193 0.29998 0.73659 0.0
H2179 H 0.6203 0.32527 0.71171 0.0
H2180 H 0.38201 0.79009 0.82532 0.0
H2181 H 0.38313 0.7648 0.80048 0.0
H2182 H 0.35428 0.8029 0.76011 0.0
H2183 H 0.35291 0.82827 0.78489 0.0
H2184 H 0.33812 0.76551 0.76211 0.0
H2185 H 0.41799 0.76267 0.75199 0.0
H2186 H 0.41012 0.76033 0.77673 0.0
H2187 H 0.40597 0.78266 0.76392 0.0
C2188 C 0.37602 0.79318 0.81112 0.0
C2189 C 0.36747 0.81128 0.80708 0.0
C2190 C 0.37677 0.77872 0.79691 0.0
C2191 C 0.36904 0.78208 0.77838 0.0
C2192 C 0.36044 0.80007 0.7743 0.0
H2193 H 0.38257 0.71144 0.67484 0.0
H2194 H 0.383 0.7374 0.69905 0.0
C2195 C 0.35971 0.81456 0.78848 0.0
C2196 C 0.3693 0.7666 0.76347 0.0
H2197 H 0.39955 0.73779 0.73681 0.0
C2198 C 0.35154 0.75948 0.75652 0.0
C2199 C 0.38684 0.75892 0.75608 0.0
C2200 C 0.40633 0.76663 0.7624 0.0
C2201 C 0.35084 0.74463 0.7426 0.0
C2202 C 0.36837 0.73655 0.73565 0.0
C2203 C 0.38614 0.7439 0.74232 0.0
C2204 C 0.36854 0.72059 0.72125 0.0
C2205 C 0.33134 0.73789 0.73526 0.0
C2206 C 0.36056 0.70243 0.72586 0.0
C2207 C 0.36032 0.68755 0.71208 0.0
C2208 C 0.36812 0.69052 0.69345 0.0
C2209 C 0.37643 0.70864 0.68903 0.0
C2210 C 0.3767 0.7235 0.70284 0.0
H2211 H 0.31971 0.74858 0.73846 0.0
H2212 H 0.33177 0.73531 0.71936 0.0
H2213 H 0.32748 0.72402 0.74246 0.0
H2214 H 0.35448 0.6998 0.74011 0.0
H2215 H 0.35382 0.67379 0.716 0.0
H2216 H 0.60873 0.7049 0.32124 0.0
H2217 H 0.60632 0.73002 0.29625 0.0
H2218 H 0.65574 0.70538 0.26673 0.0
H2219 H 0.65754 0.67969 0.29108 0.0
H2220 H 0.62939 0.75754 0.28629 0.0
H2221 H 0.62023 0.71064 0.22198 0.0
H2222 H 0.61896 0.70122 0.24635 0.0
H2223 H 0.64211 0.7047 0.23467 0.0
C2224 C 0.61894 0.70475 0.30929 0.0
C2225 C 0.63318 0.69022 0.30797 0.0
C2226 C 0.61757 0.71912 0.29503 0.0
C2227 C 0.63058 0.7194 0.27931 0.0
C2228 C 0.64508 0.70512 0.27826 0.0
H2229 H 0.6572 0.8216 0.21092 0.0
H2230 H 0.65552 0.79591 0.23528 0.0
C2231 C 0.6462 0.69051 0.29228 0.0
C2232 C 0.62949 0.7351 0.26452 0.0
H2233 H 0.62944 0.7436 0.21572 0.0
C2234 C 0.62919 0.75447 0.27086 0.0
C2235 C 0.62883 0.73117 0.24436 0.0
C2236 C 0.62732 0.7108 0.23646 0.0
C2237 C 0.62873 0.76997 0.25765 0.0
C2238 C 0.62942 0.76605 0.23748 0.0
C2239 C 0.62922 0.74668 0.23115 0.0
C2240 C 0.63043 0.78175 0.22269 0.0
C2241 C 0.62712 0.79034 0.26555 0.0
C2242 C 0.61743 0.78197 0.20698 0.0
C2243 C 0.61873 0.79634 0.19271 0.0
C2244 C 0.6329 0.81094 0.19402 0.0
C2245 C 0.64591 0.81072 0.20972 0.0
C2246 C 0.64487 0.79611 0.22374 0.0
H2247 H 0.62003 0.79046 0.28002 0.0
H2248 H 0.64188 0.79651 0.26734 0.0
H2249 H 0.61871 0.79987 0.25566 0.0
H2250 H 0.60623 0.77101 0.20575 0.0
H2251 H 0.60853 0.79613 0.18076 0.0
H2252 H 0.35324 0.32753 0.28453 0.0
H2253 H 0.35401 0.30162 0.26031 0.0
H2254 H 0.38022 0.26311 0.30206 0.0
H2255 H 0.37974 0.28895 0.32635 0.0
H2256 H 0.39803 0.26225 0.26528 0.0
H2257 H 0.31805 0.25398 0.26001 0.0
H2258 H 0.3267 0.27827 0.25625 0.0
H2259 H 0.32962 0.26699 0.27958 0.0
C2260 C 0.35923 0.31358 0.28858 0.0
C2261 C 0.36641 0.31032 0.30742 0.0
C2262 C 0.35954 0.29875 0.27474 0.0
C2263 C 0.36691 0.28038 0.27949 0.0
C2264 C 0.3744 0.27717 0.29814 0.0
H2265 H 0.35126 0.17303 0.21548 0.0
H2266 H 0.35228 0.19846 0.24021 0.0
C2267 C 0.3741 0.29197 0.312 0.0
C2268 C 0.36688 0.2645 0.26501 0.0
H2269 H 0.33697 0.2365 0.23716 0.0
C2270 C 0.38469 0.25658 0.25914 0.0
C2271 C 0.34943 0.25699 0.25724 0.0
C2272 C 0.32983 0.26434 0.26369 0.0
C2273 C 0.38554 0.24154 0.24543 0.0
C2274 C 0.36813 0.23442 0.23725 0.0
C2275 C 0.3503 0.24212 0.24336 0.0
C2276 C 0.36806 0.2189 0.22239 0.0
C2277 C 0.40504 0.2332 0.23999 0.0
C2278 C 0.3765 0.22205 0.20414 0.0
C2279 C 0.37594 0.20757 0.18995 0.0
C2280 C 0.36691 0.18966 0.19376 0.0
C2281 C 0.35847 0.18658 0.2121 0.0
C2282 C 0.35898 0.20111 0.22624 0.0
H2283 H 0.41639 0.23695 0.2508 0.0
H2284 H 0.40425 0.21716 0.23866 0.0
H2285 H 0.40956 0.23916 0.22573 0.0
H2286 H 0.38328 0.23582 0.20077 0.0
H2287 H 0.38248 0.21048 0.17595 0.0
H2288 H 0.38075 0.21193 0.82534 0.0
H2289 H 0.38152 0.23718 0.80037 0.0
H2290 H 0.35663 0.19731 0.75909 0.0
H2291 H 0.35555 0.17206 0.78393 0.0
H2292 H 0.40006 0.23733 0.76391 0.0
H2293 H 0.32017 0.24422 0.75645 0.0
H2294 H 0.33143 0.23188 0.77662 0.0
H2295 H 0.32909 0.21991 0.75356 0.0
C2296 C 0.37546 0.2085 0.81095 0.0
C2297 C 0.36803 0.18997 0.80667 0.0
C2298 C 0.37592 0.22295 0.79671 0.0
C2299 C 0.36886 0.21919 0.77799 0.0
C2300 C 0.3618 0.20062 0.77356 0.0
H2301 H 0.35633 0.28448 0.67165 0.0
H2302 H 0.35773 0.25961 0.69686 0.0
C2303 C 0.36131 0.18617 0.78777 0.0
C2304 C 0.36896 0.23463 0.76304 0.0
H2305 H 0.33937 0.26078 0.73313 0.0
C2306 C 0.38681 0.24255 0.75724 0.0
C2307 C 0.35162 0.24141 0.7544 0.0
C2308 C 0.33196 0.23407 0.76067 0.0
C2309 C 0.38781 0.25677 0.74267 0.0
C2310 C 0.37048 0.26341 0.73392 0.0
C2311 C 0.35263 0.25559 0.73982 0.0
C2312 C 0.37047 0.27841 0.71852 0.0
C2313 C 0.40743 0.2642 0.73642 0.0
C2314 C 0.37712 0.29727 0.72237 0.0
C2315 C 0.37638 0.31155 0.70797 0.0
C2316 C 0.36889 0.30725 0.68946 0.0
C2317 C 0.36228 0.2883 0.68568 0.0
C2318 C 0.36303 0.27406 0.70009 0.0
H2319 H 0.41932 0.25435 0.74105 0.0
H2320 H 0.40809 0.26594 0.72041 0.0
H2321 H 0.41001 0.27861 0.74312 0.0
H2322 H 0.38256 0.30104 0.73662 0.0
H2323 H 0.38144 0.32602 0.71144 0.0
H2324 H 0.62044 0.78942 0.82659 0.0
H2325 H 0.61974 0.76376 0.8021 0.0
H2326 H 0.64617 0.8024 0.7606 0.0
H2327 H 0.64716 0.82812 0.78501 0.0
H2328 H 0.60195 0.76327 0.76517 0.0
H2329 H 0.68191 0.75452 0.76019 0.0
H2330 H 0.67034 0.76745 0.77981 0.0
H2331 H 0.67338 0.77888 0.75658 0.0
C2332 C 0.62607 0.79251 0.81225 0.0
C2333 C 0.6339 0.81084 0.8078 0.0
C2334 C 0.62564 0.77782 0.79828 0.0
C2335 C 0.63314 0.78111 0.77964 0.0
C2336 C 0.64062 0.79946 0.77501 0.0
H2337 H 0.61794 0.71088 0.676 0.0
H2338 H 0.61696 0.73642 0.70063 0.0
C2339 C 0.64106 0.81418 0.78897 0.0
C2340 C 0.63312 0.76531 0.76507 0.0
H2341 H 0.66297 0.73711 0.73735 0.0
C2342 C 0.61527 0.75752 0.75908 0.0
C2343 C 0.65055 0.7577 0.75736 0.0
C2344 C 0.67016 0.76491 0.7639 0.0
C2345 C 0.61439 0.74249 0.74535 0.0
C2346 C 0.6318 0.73523 0.73729 0.0
C2347 C 0.64965 0.74283 0.74347 0.0
C2348 C 0.63186 0.71959 0.72255 0.0
C2349 C 0.59487 0.73429 0.7398 0.0
C2350 C 0.64078 0.70177 0.72664 0.0
C2351 C 0.64138 0.68713 0.71261 0.0
C2352 C 0.63319 0.69012 0.69414 0.0
C2353 C 0.62427 0.70804 0.6901 0.0
C2354 C 0.62362 0.72263 0.70418 0.0
H2355 H 0.58345 0.73825 0.75046 0.0
H2356 H 0.59056 0.74015 0.72544 0.0
H2357 H 0.59553 0.71823 0.73863 0.0
H2358 H 0.64731 0.69919 0.7407 0.0
H2359 H 0.64849 0.67358 0.71619 0.0
H2360 H 0.61992 0.32556 0.29016 0.0
H2361 H 0.61843 0.30047 0.26507 0.0
H2362 H 0.64494 0.25953 0.30424 0.0
H2363 H 0.64633 0.28437 0.32946 0.0
H2364 H 0.64957 0.27975 0.24885 0.0
H2365 H 0.59711 0.23015 0.28452 0.0
H2366 H 0.60051 0.25497 0.29219 0.0
H2367 H 0.61753 0.23656 0.29939 0.0
C2368 C 0.62528 0.31117 0.29351 0.0
C2369 C 0.63311 0.30696 0.31189 0.0
C2370 C 0.62444 0.29687 0.27914 0.0
C2371 C 0.63129 0.27807 0.2829 0.0
C2372 C 0.63918 0.27383 0.30118 0.0
H2373 H 0.64695 0.17249 0.21693 0.0
H2374 H 0.6458 0.19789 0.24168 0.0
C2375 C 0.64005 0.2881 0.31555 0.0
C2376 C 0.63088 0.26307 0.2675 0.0
H2377 H 0.61341 0.21799 0.25664 0.0
C2378 C 0.64155 0.2663 0.25046 0.0
C2379 C 0.62044 0.24553 0.2697 0.0
C2380 C 0.6081 0.24161 0.28735 0.0
C2381 C 0.64245 0.25226 0.23574 0.0
C2382 C 0.63211 0.23467 0.23799 0.0
C2383 C 0.62133 0.23148 0.25497 0.0
C2384 C 0.63247 0.21928 0.22298 0.0
C2385 C 0.65489 0.25613 0.21813 0.0
C2386 C 0.62508 0.22282 0.20434 0.0
C2387 C 0.62571 0.20835 0.19014 0.0
C2388 C 0.63363 0.19 0.19436 0.0
C2389 C 0.64073 0.18643 0.21317 0.0
C2390 C 0.64009 0.20092 0.22735 0.0
H2391 H 0.66548 0.26799 0.22077 0.0
H2392 H 0.66294 0.24289 0.21375 0.0
H2393 H 0.64545 0.26053 0.20585 0.0
H2394 H 0.61881 0.23678 0.20078 0.0
H2395 H 0.62006 0.21159 0.17584 0.0
H2396 H 0.35369 0.82842 0.21671 0.0
H2397 H 0.35517 0.80311 0.24151 0.0
H2398 H 0.3828 0.76453 0.20074 0.0
H2399 H 0.38158 0.78979 0.17586 0.0
H2400 H 0.33834 0.76618 0.23983 0.0
H2401 H 0.41829 0.76165 0.24863 0.0
H2402 H 0.40651 0.78184 0.2368 0.0
H2403 H 0.40998 0.75939 0.22402 0.0
C2404 C 0.36026 0.81462 0.21303 0.0
C2405 C 0.36764 0.81119 0.1943 0.0
C2406 C 0.36105 0.80017 0.22723 0.0
C2407 C 0.36932 0.78206 0.22303 0.0
C2408 C 0.3767 0.77855 0.20438 0.0
H2409 H 0.35296 0.67412 0.28555 0.0
H2410 H 0.35386 0.70013 0.26146 0.0
C2411 C 0.3759 0.79298 0.19015 0.0
C2412 C 0.36952 0.76658 0.23794 0.0
H2413 H 0.39958 0.73716 0.26413 0.0
C2414 C 0.35173 0.75986 0.2452 0.0
C2415 C 0.38702 0.75854 0.24504 0.0
C2416 C 0.40656 0.76581 0.23838 0.0
C2417 C 0.35093 0.74506 0.25915 0.0
C2418 C 0.3684 0.73661 0.26581 0.0
C2419 C 0.38622 0.74356 0.25883 0.0
C2420 C 0.36845 0.72065 0.2802 0.0
C2421 C 0.33143 0.73874 0.26684 0.0
C2422 C 0.37681 0.72343 0.29853 0.0
C2423 C 0.3764 0.70858 0.31234 0.0
C2424 C 0.36774 0.69061 0.30799 0.0
C2425 C 0.35973 0.68777 0.28942 0.0
C2426 C 0.36012 0.70265 0.27565 0.0
H2427 H 0.31996 0.74965 0.26377 0.0
H2428 H 0.32718 0.72491 0.25977 0.0
H2429 H 0.33206 0.73623 0.28274 0.0
H2430 H 0.38338 0.73722 0.30227 0.0
H2431 H 0.38271 0.71127 0.32648 0.0
H2432 H 0.14715 0.92224 0.32405 0.0
H2433 H 0.14565 0.95752 0.32639 0.0
H2434 H 0.13874 0.95318 0.3885 0.0
H2435 H 0.14145 0.91779 0.3863 0.0
H2436 H 0.11973 0.98179 0.33711 0.0
H2437 H 0.18217 0.9905 0.38698 0.0
H2438 H 0.17616 0.96752 0.37608 0.0
H2439 H 0.16327 0.97589 0.39723 0.0
C2440 C 0.14532 0.92881 0.33822 0.0
C2441 C 0.14459 0.9173 0.35502 0.0
C2442 C 0.14445 0.949 0.33955 0.0
C2443 C 0.1425 0.95813 0.35767 0.0
C2444 C 0.14093 0.94658 0.37442 0.0
H2445 H 0.11501 0.08302 0.35894 0.0
H2446 H 0.11249 0.04767 0.36177 0.0
C2447 C 0.14231 0.92636 0.37314 0.0
C2448 C 0.14213 0.9797 0.3588 0.0
H2449 H 0.16393 0.01875 0.38014 0.0
C2450 C 0.12944 0.98987 0.3465 0.0
C2451 C 0.15495 0.99031 0.37087 0.0
C2452 C 0.17004 0.98051 0.38338 0.0
C2453 C 0.12945 0.01022 0.34561 0.0
C2454 C 0.14187 0.02083 0.3581 0.0
C2455 C 0.15428 0.01067 0.37068 0.0
C2456 C 0.14319 0.04238 0.35751 0.0
C2457 C 0.11678 0.02 0.33065 0.0
C2458 C 0.16137 0.05132 0.35519 0.0
C2459 C 0.16289 0.0715 0.35425 0.0
C2460 C 0.14623 0.08318 0.35526 0.0
C2461 C 0.12805 0.07432 0.35785 0.0
C2462 C 0.12659 0.05411 0.3593 0.0
H2463 H 0.11288 0.00993 0.31868 0.0
H2464 H 0.10309 0.0248 0.33762 0.0
H2465 H 0.12408 0.03286 0.32428 0.0
H2466 H 0.17442 0.04266 0.35381 0.0
H2467 H 0.17709 0.07792 0.35219 0.0
H2468 H 0.92281 0.17682 0.35402 0.0
H2469 H 0.95805 0.17406 0.35576 0.0
H2470 H 0.95291 0.11206 0.363 0.0
H2471 H 0.91758 0.11467 0.36002 0.0
H2472 H 0.98202 0.16321 0.3819 0.0
H2473 H 0.99053 0.11283 0.31982 0.0
H2474 H 0.96765 0.12404 0.32562 0.0
H2475 H 0.9757 0.10289 0.33872 0.0
C2476 C 0.9292 0.16259 0.35596 0.0
C2477 C 0.91749 0.14593 0.3567 0.0
C2478 C 0.94937 0.16102 0.35698 0.0
C2479 C 0.95827 0.1428 0.3591 0.0
C2480 C 0.9465 0.1262 0.36067 0.0
H2481 H 0.08323 0.14095 0.38674 0.0
H2482 H 0.04788 0.13814 0.38938 0.0
C2483 C 0.92631 0.12771 0.35914 0.0
C2484 C 0.97982 0.14142 0.35961 0.0
H2485 H 0.01875 0.11956 0.33812 0.0
C2486 C 0.99005 0.15368 0.37229 0.0
C2487 C 0.99036 0.12914 0.34693 0.0
C2488 C 0.98051 0.11664 0.33188 0.0
C2489 C 0.01041 0.15438 0.37235 0.0
C2490 C 0.02095 0.14173 0.36003 0.0
C2491 C 0.01072 0.12915 0.34768 0.0
C2492 C 0.04251 0.14222 0.35866 0.0
C2493 C 0.02028 0.16933 0.38496 0.0
C2494 C 0.0514 0.14442 0.34045 0.0
C2495 C 0.07157 0.14534 0.33886 0.0
C2496 C 0.0833 0.14443 0.3555 0.0
C2497 C 0.07449 0.14194 0.37371 0.0
C2498 C 0.05428 0.14051 0.37524 0.0
H2499 H 0.01028 0.18137 0.38884 0.0
H2500 H 0.02507 0.16238 0.39867 0.0
H2501 H 0.03316 0.17561 0.37762 0.0
H2502 H 0.04271 0.14574 0.32741 0.0
H2503 H 0.07794 0.14732 0.32463 0.0
H2504 H 0.86925 0.07913 0.3278 0.0
H2505 H 0.87111 0.04382 0.3304 0.0
H2506 H 0.84521 0.04645 0.38728 0.0
H2507 H 0.84302 0.08178 0.38477 0.0
H2508 H 0.88933 0.01968 0.35801 0.0
H2509 H 0.80933 0.00945 0.35741 0.0
H2510 H 0.82066 0.03209 0.35073 0.0
H2511 H 0.81824 0.02556 0.37586 0.0
C2512 C 0.86399 0.07225 0.34091 0.0
C2513 C 0.85577 0.08331 0.35598 0.0
C2514 C 0.86511 0.05205 0.34238 0.0
C2515 C 0.858 0.04251 0.35889 0.0
C2516 C 0.85042 0.05351 0.37425 0.0
H2517 H 0.84307 0.91954 0.38445 0.0
H2518 H 0.84554 0.95484 0.38695 0.0
C2519 C 0.84926 0.07372 0.3728 0.0
C2520 C 0.85817 0.02102 0.35978 0.0
H2521 H 0.82848 0.98142 0.36181 0.0
C2522 C 0.87604 0.01129 0.35887 0.0
C2523 C 0.8408 0.01013 0.3609 0.0
C2524 C 0.82114 0.01978 0.36112 0.0
C2525 C 0.87701 0.99093 0.35915 0.0
C2526 C 0.85963 0.98006 0.36004 0.0
C2527 C 0.84179 0.9898 0.3612 0.0
C2528 C 0.85949 0.95857 0.35909 0.0
C2529 C 0.89664 0.98125 0.35868 0.0
C2530 C 0.86653 0.94895 0.34258 0.0
C2531 C 0.86515 0.92877 0.34108 0.0
C2532 C 0.85655 0.91781 0.35601 0.0
C2533 C 0.84977 0.92749 0.37267 0.0
C2534 C 0.85116 0.94768 0.37414 0.0
H2535 H 0.90832 0.99125 0.36351 0.0
H2536 H 0.89685 0.96813 0.36804 0.0
H2537 H 0.89993 0.97671 0.34359 0.0
H2538 H 0.87266 0.95709 0.33062 0.0
H2539 H 0.87048 0.92182 0.32804 0.0
H2540 H 0.92106 0.82705 0.37094 0.0
H2541 H 0.95637 0.82882 0.3732 0.0
H2542 H 0.95556 0.88482 0.34533 0.0
H2543 H 0.92017 0.88333 0.34318 0.0
H2544 H 0.98148 0.8317 0.34167 0.0
H2545 H 0.99135 0.89386 0.39199 0.0
H2546 H 0.96851 0.88128 0.38943 0.0
H2547 H 0.97595 0.89871 0.37153 0.0
C2548 C 0.92833 0.83987 0.36547 0.0
C2549 C 0.91774 0.85503 0.35681 0.0
C2550 C 0.94853 0.84084 0.36678 0.0
C2551 C 0.95857 0.85702 0.35961 0.0
C2552 C 0.94807 0.87235 0.35129 0.0
H2553 H 0.08095 0.88236 0.34256 0.0
H2554 H 0.04551 0.88369 0.34442 0.0
C2555 C 0.92784 0.87141 0.34997 0.0
C2556 C 0.98008 0.85718 0.35968 0.0
H2557 H 0.0197 0.88176 0.37654 0.0
C2558 C 0.98984 0.84258 0.34938 0.0
C2559 C 0.99093 0.87148 0.36964 0.0
C2560 C 0.9812 0.88715 0.38142 0.0
C2561 C 0.01017 0.84198 0.34859 0.0
C2562 C 0.02104 0.85618 0.35867 0.0
C2563 C 0.0113 0.87087 0.36888 0.0
C2564 C 0.04254 0.85591 0.35872 0.0
C2565 C 0.01982 0.82639 0.33661 0.0
C2566 C 0.05261 0.84009 0.36661 0.0
C2567 C 0.07284 0.83923 0.36553 0.0
C2568 C 0.08341 0.85426 0.35662 0.0
C2569 C 0.07328 0.87047 0.34941 0.0
C2570 C 0.05303 0.87129 0.35048 0.0
H2571 H 0.00964 0.81986 0.32595 0.0
H2572 H 0.03254 0.83227 0.32865 0.0
H2573 H 0.02498 0.81466 0.34636 0.0
H2574 H 0.0448 0.82826 0.3734 0.0
H2575 H 0.08014 0.82663 0.37143 0.0
H2576 H 0.15803 0.081 0.61677 0.0
H2577 H 0.15534 0.0457 0.61435 0.0
H2578 H 0.12888 0.04368 0.67101 0.0
H2579 H 0.13126 0.07893 0.6735 0.0
H2580 H 0.17252 0.01906 0.63921 0.0
H2581 H 0.09262 0.00968 0.63875 0.0
H2582 H 0.10414 0.03275 0.63408 0.0
H2583 H 0.10135 0.02417 0.65856 0.0
C2584 C 0.15143 0.07309 0.62864 0.0
C2585 C 0.1449 0.08283 0.64536 0.0
C2586 C 0.14991 0.05291 0.62722 0.0
C2587 C 0.14169 0.04209 0.64239 0.0
C2588 C 0.1349 0.05177 0.65896 0.0
H2589 H 0.13211 0.92162 0.67422 0.0
H2590 H 0.13029 0.95695 0.6716 0.0
C2591 C 0.13641 0.07194 0.66041 0.0
C2592 C 0.14141 0.0206 0.64148 0.0
H2593 H 0.11153 0.98116 0.64415 0.0
C2594 C 0.15918 0.01076 0.64007 0.0
C2595 C 0.12398 0.00983 0.64269 0.0
C2596 C 0.10442 0.01962 0.64342 0.0
C2597 C 0.16005 0.99042 0.64042 0.0
C2598 C 0.14264 0.97965 0.64187 0.0
C2599 C 0.12484 0.98947 0.64304 0.0
C2600 C 0.14272 0.95816 0.6428 0.0
C2601 C 0.17965 0.98066 0.63989 0.0
C2602 C 0.14988 0.94711 0.62728 0.0
C2603 C 0.15101 0.92691 0.62873 0.0
C2604 C 0.14489 0.91737 0.64572 0.0
C2605 C 0.13707 0.92848 0.66097 0.0
C2606 C 0.13597 0.94868 0.6595 0.0
H2607 H 0.19158 0.99094 0.64332 0.0
H2608 H 0.18024 0.96841 0.65034 0.0
H2609 H 0.18224 0.97477 0.62514 0.0
H2610 H 0.1548 0.95414 0.61411 0.0
H2611 H 0.15693 0.91882 0.61663 0.0
H2612 H 0.92186 0.12834 0.67063 0.0
H2613 H 0.95725 0.1265 0.66814 0.0
H2614 H 0.95567 0.16177 0.61654 0.0
H2615 H 0.92027 0.16365 0.61876 0.0
H2616 H 0.98179 0.11471 0.63126 0.0
H2617 H 0.99166 0.18958 0.66014 0.0
H2618 H 0.97024 0.17538 0.6653 0.0
H2619 H 0.97356 0.18574 0.64168 0.0
C2620 C 0.929 0.13561 0.65866 0.0
C2621 C 0.91821 0.14627 0.64497 0.0
C2622 C 0.9492 0.13449 0.65725 0.0
C2623 C 0.95898 0.1441 0.64224 0.0
C2624 C 0.94831 0.15433 0.62827 0.0
H2625 H 0.08106 0.17029 0.62555 0.0
H2626 H 0.04576 0.16841 0.62281 0.0
C2627 C 0.92809 0.15536 0.62957 0.0
C2628 C 0.98042 0.14411 0.64164 0.0
H2629 H 0.01979 0.17249 0.65126 0.0
C2630 C 0.99017 0.12731 0.6356 0.0
C2631 C 0.99118 0.16062 0.64722 0.0
C2632 C 0.98124 0.17889 0.65406 0.0
C2633 C 0.01054 0.12665 0.63483 0.0
C2634 C 0.02136 0.14308 0.64077 0.0
C2635 C 0.01151 0.15991 0.6467 0.0
C2636 C 0.04291 0.14316 0.64128 0.0
C2637 C 0.02021 0.10851 0.62729 0.0
C2638 C 0.0531 0.12956 0.65252 0.0
C2639 C 0.07332 0.13049 0.65397 0.0
C2640 C 0.08373 0.14527 0.6445 0.0
C2641 C 0.0735 0.15876 0.6331 0.0
C2642 C 0.05331 0.15771 0.63151 0.0
H2643 H 0.01027 0.09999 0.61789 0.0
H2644 H 0.0335 0.11203 0.6189 0.0
H2645 H 0.02437 0.09919 0.63974 0.0
H2646 H 0.04539 0.11851 0.6606 0.0
H2647 H 0.08071 0.11995 0.66298 0.0
H2648 H 0.88221 0.08172 0.66265 0.0
H2649 H 0.88401 0.04632 0.66072 0.0
H2650 H 0.83305 0.04547 0.62451 0.0
H2651 H 0.83096 0.08089 0.62643 0.0
H2652 H 0.84961 0.02077 0.67226 0.0
H2653 H 0.87649 0.01044 0.59677 0.0
H2654 H 0.88104 0.03239 0.6104 0.0
H2655 H 0.85737 0.02783 0.60065 0.0
C2656 C 0.87148 0.07406 0.65409 0.0
C2657 C 0.85637 0.08416 0.64476 0.0
C2658 C 0.87255 0.05384 0.65303 0.0
C2659 C 0.85874 0.04337 0.6424 0.0
C2660 C 0.84394 0.05336 0.63265 0.0
H2661 H 0.83664 0.92147 0.62125 0.0
H2662 H 0.83851 0.95687 0.61998 0.0
C2663 C 0.84274 0.07358 0.63384 0.0
C2664 C 0.85905 0.02191 0.64254 0.0
H2665 H 0.86792 0.98224 0.61427 0.0
C2666 C 0.8537 0.01229 0.65964 0.0
C2667 C 0.8642 0.01102 0.62597 0.0
C2668 C 0.87022 0.02084 0.60737 0.0
C2669 C 0.85305 0.99196 0.66055 0.0
C2670 C 0.8585 0.98097 0.64405 0.0
C2671 C 0.86386 0.99066 0.62693 0.0
C2672 C 0.85832 0.95942 0.6442 0.0
C2673 C 0.84593 0.98252 0.67899 0.0
C2674 C 0.86926 0.94903 0.6579 0.0
C2675 C 0.86806 0.9288 0.65881 0.0
C2676 C 0.85615 0.91853 0.64581 0.0
C2677 C 0.84591 0.92892 0.63153 0.0
C2678 C 0.84696 0.94917 0.63077 0.0
H2679 H 0.83717 0.99271 0.6879 0.0
H2680 H 0.83698 0.96951 0.6758 0.0
H2681 H 0.85858 0.97792 0.68782 0.0
H2682 H 0.87858 0.95658 0.66804 0.0
H2683 H 0.87636 0.92123 0.6698 0.0
H2684 H 0.91985 0.88475 0.65754 0.0
H2685 H 0.95518 0.88694 0.65501 0.0
H2686 H 0.95695 0.83017 0.62878 0.0
H2687 H 0.92168 0.82791 0.631 0.0
H2688 H 0.98153 0.86196 0.67245 0.0
H2689 H 0.9914 0.86205 0.59259 0.0
H2690 H 0.96829 0.86692 0.60396 0.0
H2691 H 0.97673 0.84237 0.60133 0.0
C2692 C 0.92771 0.87281 0.65102 0.0
C2693 C 0.9179 0.85613 0.64451 0.0
C2694 C 0.94791 0.87409 0.6496 0.0
C2695 C 0.95867 0.85883 0.64149 0.0
C2696 C 0.94891 0.8423 0.63471 0.0
H2697 H 0.07921 0.82672 0.63263 0.0
H2698 H 0.04389 0.8293 0.63066 0.0
C2699 C 0.92873 0.84098 0.63613 0.0
C2700 C 0.98017 0.85959 0.64133 0.0
H2701 H 0.01978 0.85666 0.61169 0.0
C2702 C 0.98991 0.86102 0.65916 0.0
C2703 C 0.99103 0.85826 0.62397 0.0
C2704 C 0.98135 0.8575 0.60435 0.0
C2705 C 0.01024 0.86059 0.66015 0.0
C2706 C 0.02111 0.85905 0.64281 0.0
C2707 C 0.01139 0.85784 0.62495 0.0
C2708 C 0.0426 0.85812 0.64301 0.0
C2709 C 0.01989 0.86115 0.67981 0.0
C2710 C 0.0536 0.87366 0.65018 0.0
C2711 C 0.0738 0.87224 0.65139 0.0
C2712 C 0.08338 0.85524 0.64535 0.0
C2713 C 0.07232 0.83996 0.63753 0.0
C2714 C 0.05213 0.84141 0.63635 0.0
H2715 H 0.00954 0.85776 0.69169 0.0
H2716 H 0.03213 0.85071 0.68049 0.0
H2717 H 0.02576 0.87591 0.6824 0.0
H2718 H 0.04654 0.88684 0.65504 0.0
H2719 H 0.08185 0.88436 0.65732 0.0
H2720 H 0.34385 0.11662 0.08104 0.0
H2721 H 0.34664 0.11432 0.04574 0.0
H2722 H 0.37231 0.17134 0.04391 0.0
H2723 H 0.36981 0.17372 0.07917 0.0
H2724 H 0.32916 0.1391 0.01911 0.0
H2725 H 0.40909 0.13954 0.00993 0.0
H2726 H 0.39756 0.13464 0.03295 0.0
H2727 H 0.40005 0.15918 0.02446 0.0
C2728 C 0.35029 0.1286 0.07318 0.0
C2729 C 0.35657 0.14538 0.08297 0.0
C2730 C 0.35187 0.12725 0.05299 0.0
C2731 C 0.35989 0.14255 0.04223 0.0
C2732 C 0.36643 0.15919 0.05196 0.0
H2733 H 0.36968 0.17402 0.92159 0.0
H2734 H 0.37143 0.17158 0.95693 0.0
C2735 C 0.36486 0.16057 0.07213 0.0
C2736 C 0.36024 0.14168 0.02073 0.0
H2737 H 0.39021 0.14453 0.98136 0.0
C2738 C 0.34251 0.14007 0.01084 0.0
C2739 C 0.37768 0.14305 0.01 0.0
C2740 C 0.3972 0.14402 0.01986 0.0
C2741 C 0.34169 0.14036 0.9905 0.0
C2742 C 0.35912 0.14193 0.97976 0.0
C2743 C 0.37688 0.14332 0.98964 0.0
C2744 C 0.3591 0.14275 0.95827 0.0
C2745 C 0.32213 0.13963 0.98069 0.0
C2746 C 0.35203 0.12715 0.94727 0.0
C2747 C 0.35094 0.12849 0.92706 0.0
C2748 C 0.35702 0.14546 0.91744 0.0
C2749 C 0.36476 0.16079 0.9285 0.0
C2750 C 0.36581 0.15942 0.94871 0.0
H2751 H 0.31014 0.14306 0.99091 0.0
H2752 H 0.32149 0.14998 0.96835 0.0
H2753 H 0.31964 0.12481 0.97492 0.0
H2754 H 0.34714 0.114 0.95435 0.0
H2755 H 0.34508 0.11634 0.91901 0.0
H2756 H 0.84414 0.38515 0.91995 0.0
H2757 H 0.84658 0.38757 0.95527 0.0
H2758 H 0.87279 0.33081 0.95749 0.0
H2759 H 0.87065 0.32831 0.92222 0.0
H2760 H 0.82905 0.36275 0.98174 0.0
H2761 H 0.90885 0.36291 0.99186 0.0
H2762 H 0.89757 0.36765 0.9687 0.0
H2763 H 0.90018 0.34315 0.97728 0.0
C2764 C 0.85064 0.37326 0.92791 0.0
C2765 C 0.85716 0.35651 0.91821 0.0
C2766 C 0.85201 0.37468 0.9481 0.0
C2767 C 0.86008 0.35948 0.95898 0.0
C2768 C 0.86688 0.34288 0.94935 0.0
H2769 H 0.86863 0.32759 0.07952 0.0
H2770 H 0.87069 0.33023 0.04421 0.0
C2771 C 0.86551 0.34143 0.92917 0.0
C2772 C 0.86016 0.36037 0.98048 0.0
H2773 H 0.88967 0.3576 0.02021 0.0
C2774 C 0.84231 0.36185 0.99017 0.0
C2775 C 0.87748 0.3591 0.99142 0.0
C2776 C 0.89713 0.3583 0.98181 0.0
C2777 C 0.84124 0.36149 0.0105 0.0
C2778 C 0.85855 0.35998 0.02144 0.0
C2779 C 0.87643 0.35875 0.01177 0.0
C2780 C 0.85827 0.35902 0.04293 0.0
C2781 C 0.82156 0.36207 0.02008 0.0
C2782 C 0.85102 0.37453 0.05394 0.0
C2783 C 0.84976 0.37307 0.07414 0.0
C2784 C 0.85582 0.35608 0.08371 0.0
C2785 C 0.86371 0.34084 0.07264 0.0
C2786 C 0.86494 0.34232 0.05245 0.0
H2787 H 0.80971 0.35867 0.00969 0.0
H2788 H 0.82082 0.35163 0.03233 0.0
H2789 H 0.81894 0.37683 0.02593 0.0
H2790 H 0.84615 0.3877 0.04689 0.0
H2791 H 0.84378 0.38516 0.0822 0.0
H2792 H 0.65723 0.885 0.91968 0.0
H2793 H 0.65494 0.88754 0.955 0.0
H2794 H 0.6301 0.8302 0.95771 0.0
H2795 H 0.63207 0.82756 0.9224 0.0
H2796 H 0.61134 0.85763 0.98178 0.0
H2797 H 0.69133 0.8583 0.99208 0.0
H2798 H 0.68213 0.87653 0.97588 0.0
H2799 H 0.68012 0.85134 0.96946 0.0
C2800 C 0.6512 0.87294 0.92775 0.0
C2801 C 0.64503 0.85598 0.91819 0.0
C2802 C 0.64998 0.8744 0.94795 0.0
C2803 C 0.64267 0.85892 0.95898 0.0
C2804 C 0.63589 0.84226 0.94946 0.0
H2805 H 0.63043 0.82797 0.07962 0.0
H2806 H 0.62826 0.83058 0.04436 0.0
C2807 C 0.63707 0.84078 0.92927 0.0
C2808 C 0.64247 0.85986 0.98047 0.0
H2809 H 0.67209 0.86238 0.02009 0.0
C2810 C 0.6246 0.8587 0.99018 0.0
C2811 C 0.65981 0.86126 0.99136 0.0
C2812 C 0.67947 0.86177 0.98173 0.0
C2813 C 0.62361 0.85899 0.01054 0.0
C2814 C 0.64097 0.86015 0.02143 0.0
C2815 C 0.6588 0.86157 0.0117 0.0
C2816 C 0.64111 0.85918 0.04292 0.0
C2817 C 0.60399 0.85826 0.02021 0.0
C2818 C 0.64928 0.87431 0.05383 0.0
C2819 C 0.65067 0.87282 0.07402 0.0
C2820 C 0.64407 0.85608 0.08368 0.0
C2821 C 0.63563 0.84108 0.0727 0.0
C2822 C 0.63424 0.84259 0.05252 0.0
H2823 H 0.59226 0.86298 0.0102 0.0
H2824 H 0.60087 0.84312 0.02469 0.0
H2825 H 0.60364 0.86758 0.03335 0.0
H2826 H 0.65477 0.88719 0.04669 0.0
H2827 H 0.65724 0.88466 0.08201 0.0
H2828 H 0.17103 0.62673 0.08014 0.0
H2829 H 0.16893 0.62505 0.04469 0.0
H2830 H 0.11723 0.66018 0.04589 0.0
H2831 H 0.11906 0.6619 0.0813 0.0
H2832 H 0.13217 0.61345 0.01959 0.0
H2833 H 0.16144 0.6883 0.01072 0.0
H2834 H 0.16634 0.67386 0.03204 0.0
H2835 H 0.1428 0.68437 0.02863 0.0
C2836 C 0.15912 0.63399 0.0729 0.0
C2837 C 0.1453 0.64458 0.08358 0.0
C2838 C 0.15793 0.63296 0.05267 0.0
C2839 C 0.14301 0.64259 0.04278 0.0
C2840 C 0.1289 0.65272 0.05334 0.0
H2841 H 0.1267 0.67013 0.92102 0.0
H2842 H 0.12401 0.66786 0.95631 0.0
C2843 C 0.12998 0.65366 0.07357 0.0
C2844 C 0.14266 0.64279 0.02134 0.0
H2845 H 0.15258 0.67159 0.98235 0.0
C2846 C 0.13661 0.62612 0.01138 0.0
C2847 C 0.14837 0.6594 0.0108 0.0
C2848 C 0.15522 0.67753 0.02098 0.0
C2849 C 0.13594 0.6257 0.991 0.0
C2850 C 0.14197 0.64225 0.98039 0.0
C2851 C 0.14794 0.65893 0.99046 0.0
C2852 C 0.1425 0.64261 0.95885 0.0
C2853 C 0.12839 0.60771 0.98107 0.0
C2854 C 0.15375 0.62914 0.94851 0.0
C2855 C 0.15519 0.6303 0.9283 0.0
C2856 C 0.14567 0.64517 0.91806 0.0
C2857 C 0.13428 0.65854 0.92845 0.0
C2858 C 0.13272 0.65726 0.94863 0.0
H2859 H 0.11898 0.59905 0.99089 0.0
H2860 H 0.12 0.61142 0.96783 0.0
H2861 H 0.14083 0.59844 0.97677 0.0
H2862 H 0.16184 0.61801 0.95609 0.0
H2863 H 0.16419 0.61984 0.92078 0.0
H2864 H 0.36925 0.82688 0.92201 0.0
H2865 H 0.37095 0.82917 0.95738 0.0
H2866 H 0.34705 0.88692 0.95497 0.0
H2867 H 0.34506 0.88475 0.91962 0.0
H2868 H 0.38986 0.85632 0.98196 0.0
H2869 H 0.30976 0.85766 0.9913 0.0
H2870 H 0.32119 0.8507 0.96879 0.0
H2871 H 0.31932 0.87588 0.97529 0.0
C2872 C 0.36441 0.84012 0.92896 0.0
C2873 C 0.3568 0.85554 0.91796 0.0
C2874 C 0.36543 0.8414 0.94918 0.0
C2875 C 0.35881 0.85808 0.95879 0.0
C2876 C 0.35187 0.87377 0.94785 0.0
H2877 H 0.34304 0.88386 0.08161 0.0
H2878 H 0.3458 0.88622 0.0463 0.0
C2879 C 0.35083 0.87252 0.92763 0.0
C2880 C 0.35878 0.85882 0.98029 0.0
H2881 H 0.3287 0.86155 0.01956 0.0
C2882 C 0.37651 0.85748 0.99021 0.0
C2883 C 0.34132 0.86035 0.99098 0.0
C2884 C 0.32178 0.86107 0.98111 0.0
C2885 C 0.37726 0.85775 0.01058 0.0
C2886 C 0.35978 0.85906 0.02127 0.0
C2887 C 0.34208 0.86062 0.01133 0.0
C2888 C 0.35938 0.85815 0.04277 0.0
C2889 C 0.39677 0.85687 0.02047 0.0
C2890 C 0.36609 0.84157 0.05249 0.0
C2891 C 0.36454 0.84016 0.07266 0.0
C2892 C 0.35609 0.85525 0.08352 0.0
C2893 C 0.3496 0.87196 0.07373 0.0
C2894 C 0.35117 0.87335 0.05355 0.0
H2895 H 0.40864 0.86151 0.0106 0.0
H2896 H 0.39703 0.86618 0.03362 0.0
H2897 H 0.39972 0.8417 0.02498 0.0
H2898 H 0.3721 0.82949 0.04443 0.0
H2899 H 0.36965 0.82706 0.07969 0.0
H2900 H 0.12694 0.3289 0.08018 0.0
H2901 H 0.12491 0.33101 0.04476 0.0
H2902 H 0.15901 0.3834 0.04573 0.0
H2903 H 0.16108 0.38156 0.08112 0.0
H2904 H 0.11217 0.36679 0.01972 0.0
H2905 H 0.18804 0.34053 0.01037 0.0
H2906 H 0.17405 0.33545 0.03194 0.0
H2907 H 0.18372 0.35927 0.02805 0.0
C2908 C 0.1339 0.34096 0.0729 0.0
C2909 C 0.14431 0.35497 0.0835 0.0
C2910 C 0.13266 0.34215 0.05268 0.0
C2911 C 0.14192 0.35727 0.04272 0.0
C2912 C 0.15186 0.37158 0.05322 0.0
H2913 H 0.16848 0.37538 0.92123 0.0
H2914 H 0.16588 0.37779 0.9565 0.0
C2915 C 0.153 0.37049 0.07344 0.0
C2916 C 0.14195 0.35763 0.02128 0.0
H2917 H 0.17095 0.34908 0.98212 0.0
C2918 C 0.12497 0.36294 0.01142 0.0
C2919 C 0.15873 0.35265 0.01064 0.0
C2920 C 0.1772 0.34653 0.02068 0.0
C2921 C 0.12442 0.36365 0.99105 0.0
C2922 C 0.14116 0.35841 0.98034 0.0
C2923 C 0.15813 0.35313 0.99031 0.0
C2924 C 0.14151 0.35812 0.9588 0.0
C2925 C 0.10606 0.3704 0.98123 0.0
C2926 C 0.12859 0.34635 0.94832 0.0
C2927 C 0.12994 0.34508 0.9281 0.0
C2928 C 0.14445 0.35529 0.91802 0.0
C2929 C 0.1572 0.36725 0.92855 0.0
C2930 C 0.15572 0.36865 0.94871 0.0
H2931 H 0.09697 0.37929 0.99115 0.0
H2932 H 0.10933 0.37909 0.96806 0.0
H2933 H 0.0974 0.35757 0.97681 0.0
H2934 H 0.11781 0.33771 0.9558 0.0
H2935 H 0.11997 0.33563 0.92046 0.0
H2936 H 0.65827 0.1182 0.08078 0.0
H2937 H 0.65645 0.11705 0.04532 0.0
H2938 H 0.62756 0.17253 0.04487 0.0
H2939 H 0.62947 0.17396 0.08022 0.0
H2940 H 0.62429 0.11935 0.01934 0.0
H2941 H 0.67532 0.18101 0.01004 0.0
H2942 H 0.67249 0.16838 0.0328 0.0
H2943 H 0.6549 0.18615 0.02539 0.0
C2944 C 0.65144 0.13012 0.07317 0.0
C2945 C 0.64425 0.1463 0.08336 0.0
C2946 C 0.65039 0.12942 0.0529 0.0
C2947 C 0.6422 0.14487 0.04248 0.0
C2948 C 0.63431 0.16064 0.05263 0.0
H2949 H 0.63107 0.17462 0.92098 0.0
H2950 H 0.6285 0.17277 0.95628 0.0
C2951 C 0.63536 0.16138 0.07286 0.0
C2952 C 0.64235 0.14478 0.02098 0.0
H2953 H 0.65971 0.16948 0.98171 0.0
C2954 C 0.63207 0.13025 0.01108 0.0
C2955 C 0.65257 0.159 0.01028 0.0
C2956 C 0.6646 0.17443 0.02012 0.0
C2957 C 0.6314 0.12983 0.9907 0.0
C2958 C 0.64152 0.14414 0.98001 0.0
C2959 C 0.65187 0.15859 0.98994 0.0
C2960 C 0.64178 0.14442 0.9585 0.0
C2961 C 0.61954 0.11434 0.98078 0.0
C2962 C 0.65005 0.12904 0.94802 0.0
C2963 C 0.65154 0.13004 0.9278 0.0
C2964 C 0.64493 0.14651 0.9177 0.0
C2965 C 0.63635 0.16173 0.92826 0.0
C2966 C 0.63486 0.16071 0.94845 0.0
H2967 H 0.6088 0.1077 0.99081 0.0
H2968 H 0.61171 0.12034 0.96804 0.0
H2969 H 0.62935 0.10268 0.97558 0.0
H2970 H 0.65582 0.11649 0.95551 0.0
H2971 H 0.65826 0.11806 0.92016 0.0
H2972 H 0.86849 0.67602 0.92166 0.0
H2973 H 0.87044 0.67416 0.957 0.0
H2974 H 0.84807 0.61577 0.95538 0.0
H2975 H 0.84612 0.6174 0.91996 0.0
H2976 H 0.8383 0.66735 0.98175 0.0
H2977 H 0.89609 0.61197 0.99147 0.0
H2978 H 0.8926 0.62496 0.96897 0.0
H2979 H 0.87678 0.60524 0.97527 0.0
C2980 C 0.86417 0.66268 0.92875 0.0
C2981 C 0.85708 0.64687 0.91794 0.0
C2982 C 0.86529 0.66166 0.94897 0.0
C2983 C 0.85956 0.64478 0.95878 0.0
C2984 C 0.85285 0.62883 0.94806 0.0
H2985 H 0.82543 0.63492 0.07941 0.0
H2986 H 0.82751 0.63346 0.04404 0.0
C2987 C 0.85165 0.62984 0.92782 0.0
C2988 C 0.85943 0.64439 0.98027 0.0
H2989 H 0.879 0.62173 0.01978 0.0
C2990 C 0.84722 0.65741 0.99007 0.0
C2991 C 0.8712 0.6315 0.99105 0.0
C2992 C 0.88505 0.61771 0.98122 0.0
C2993 C 0.84627 0.65771 0.0104 0.0
C2994 C 0.8577 0.64453 0.02118 0.0
C2995 C 0.87014 0.6317 0.01142 0.0
C2996 C 0.85699 0.64409 0.04264 0.0
C2997 C 0.83321 0.67229 0.02022 0.0
C2998 C 0.87309 0.65004 0.05356 0.0
C2999 C 0.87197 0.65094 0.07381 0.0
C3000 C 0.85474 0.64576 0.08349 0.0
C3001 C 0.83888 0.63913 0.07246 0.0
C3002 C 0.84 0.63833 0.05224 0.0
H3003 H 0.82856 0.68397 0.01013 0.0
H3004 H 0.82003 0.66479 0.02563 0.0
H3005 H 0.84064 0.679 0.03284 0.0
H3006 H 0.88635 0.65447 0.04638 0.0
H3007 H 0.8845 0.65598 0.08184 0.0
H3008 H 0.07866 0.36867 0.17391 0.0
H3009 H 0.04335 0.37057 0.17148 0.0
H3010 H 0.04574 0.34549 0.11423 0.0
H3011 H 0.08108 0.34326 0.11657 0.0
H3012 H 0.01912 0.38919 0.14433 0.0
H3013 H 0.00882 0.3092 0.14365 0.0
H3014 H 0.03151 0.3204 0.15039 0.0
H3015 H 0.02485 0.31838 0.12526 0.0
C3016 C 0.07173 0.3636 0.16075 0.0
C3017 C 0.08273 0.35559 0.14552 0.0
C3018 C 0.05153 0.36473 0.15939 0.0
C3019 C 0.04192 0.35786 0.14282 0.0
C3020 C 0.05286 0.3505 0.12731 0.0
H3021 H 0.91893 0.34358 0.11718 0.0
H3022 H 0.95424 0.34599 0.11476 0.0
C3023 C 0.07307 0.34932 0.12865 0.0
C3024 C 0.02042 0.35807 0.14202 0.0
H3025 H 0.98079 0.32844 0.13961 0.0
C3026 C 0.01071 0.37593 0.14327 0.0
C3027 C 0.00952 0.34072 0.14065 0.0
C3028 C 0.01915 0.32106 0.14007 0.0
C3029 C 0.99036 0.37692 0.14308 0.0
C3030 C 0.97947 0.35956 0.14192 0.0
C3031 C 0.98919 0.34173 0.14043 0.0
C3032 C 0.95797 0.35943 0.14287 0.0
C3033 C 0.98069 0.39654 0.14391 0.0
C3034 C 0.94836 0.36619 0.1595 0.0
C3035 C 0.92817 0.36483 0.16095 0.0
C3036 C 0.91721 0.35653 0.14586 0.0
C3037 C 0.92689 0.35003 0.1291 0.0
C3038 C 0.94708 0.35139 0.12767 0.0
H3039 H 0.9907 0.4083 0.1393 0.0
H3040 H 0.96757 0.39694 0.13456 0.0
H3041 H 0.97615 0.39955 0.15906 0.0
H3042 H 0.95651 0.37208 0.17157 0.0
H3043 H 0.92123 0.36995 0.17409 0.0
H3044 H 0.07956 0.63118 0.8283 0.0
H3045 H 0.04424 0.62958 0.83082 0.0
H3046 H 0.04695 0.65502 0.8879 0.0
H3047 H 0.08231 0.65694 0.88547 0.0
H3048 H 0.01976 0.61145 0.85824 0.0
H3049 H 0.01055 0.69158 0.85806 0.0
H3050 H 0.03307 0.68001 0.85139 0.0
H3051 H 0.02648 0.68234 0.87651 0.0
C3052 C 0.0727 0.63638 0.84144 0.0
C3053 C 0.08379 0.64441 0.85659 0.0
C3054 C 0.05249 0.63541 0.84286 0.0
C3055 C 0.04298 0.64249 0.85939 0.0
C3056 C 0.05401 0.64984 0.87484 0.0
H3057 H 0.92005 0.65874 0.88432 0.0
H3058 H 0.95532 0.65595 0.88698 0.0
C3059 C 0.07422 0.65084 0.87345 0.0
C3060 C 0.02149 0.64258 0.86019 0.0
H3061 H 0.98226 0.67277 0.86212 0.0
C3062 C 0.01154 0.62484 0.85912 0.0
C3063 C 0.01082 0.66008 0.86134 0.0
C3064 C 0.02071 0.67962 0.86173 0.0
C3065 C 0.99117 0.62413 0.85926 0.0
C3066 C 0.98052 0.64165 0.86016 0.0
C3067 C 0.99047 0.65936 0.86149 0.0
C3068 C 0.95904 0.64206 0.85907 0.0
C3069 C 0.98124 0.60463 0.85863 0.0
C3070 C 0.94943 0.63519 0.84249 0.0
C3071 C 0.92928 0.63676 0.84091 0.0
C3072 C 0.91833 0.64539 0.85583 0.0
C3073 C 0.928 0.65204 0.87254 0.0
C3074 C 0.94816 0.65046 0.8741 0.0
H3075 H 0.99106 0.5928 0.86347 0.0
H3076 H 0.96806 0.60453 0.86788 0.0
H3077 H 0.97678 0.60146 0.84349 0.0
H3078 H 0.95758 0.62903 0.83055 0.0
H3079 H 0.92234 0.63153 0.82781 0.0
H3080 H 0.38471 0.91954 0.84311 0.0
H3081 H 0.3873 0.95485 0.84559 0.0
H3082 H 0.33087 0.95723 0.8725 0.0
H3083 H 0.32821 0.92198 0.87031 0.0
H3084 H 0.36244 0.98152 0.82849 0.0
H3085 H 0.36356 0.99125 0.90834 0.0
H3086 H 0.36804 0.96811 0.89689 0.0
H3087 H 0.34362 0.97681 0.89984 0.0
C3088 C 0.37292 0.92753 0.84976 0.0
C3089 C 0.35622 0.91789 0.85648 0.0
C3090 C 0.37444 0.94772 0.85116 0.0
C3091 C 0.35939 0.95864 0.85945 0.0
C3092 C 0.34284 0.94906 0.86642 0.0
H3093 H 0.32806 0.0792 0.86886 0.0
H3094 H 0.33061 0.04388 0.87075 0.0
C3095 C 0.34129 0.92889 0.86502 0.0
C3096 C 0.3604 0.98013 0.85962 0.0
H3097 H 0.35812 0.01971 0.88936 0.0
C3098 C 0.36172 0.98989 0.8418 0.0
C3099 C 0.35937 0.99098 0.87702 0.0
C3100 C 0.35875 0.98127 0.89663 0.0
C3101 C 0.36144 0.01022 0.84084 0.0
C3102 C 0.36016 0.02108 0.85822 0.0
C3103 C 0.3591 0.01134 0.87607 0.0
C3104 C 0.35928 0.04257 0.85806 0.0
C3105 C 0.36185 0.0199 0.8212 0.0
C3106 C 0.37476 0.05356 0.85071 0.0
C3107 C 0.37334 0.07377 0.84955 0.0
C3108 C 0.35643 0.08336 0.8558 0.0
C3109 C 0.34124 0.07231 0.86379 0.0
C3110 C 0.34267 0.05211 0.86493 0.0
H3111 H 0.35831 0.00958 0.80933 0.0
H3112 H 0.35144 0.03218 0.82063 0.0
H3113 H 0.37661 0.02574 0.81847 0.0
H3114 H 0.38786 0.04649 0.84569 0.0
H3115 H 0.3854 0.08182 0.84349 0.0
H3116 H 0.07867 0.32337 0.85249 0.0
H3117 H 0.04341 0.32607 0.85401 0.0
H3118 H 0.04843 0.38803 0.86176 0.0
H3119 H 0.08378 0.38547 0.85903 0.0
H3120 H 0.0194 0.33669 0.88022 0.0
H3121 H 0.01084 0.38751 0.81854 0.0
H3122 H 0.03373 0.3763 0.82425 0.0
H3123 H 0.02567 0.39737 0.83748 0.0
C3124 C 0.07225 0.33758 0.85448 0.0
C3125 C 0.08394 0.35425 0.85546 0.0
C3126 C 0.05207 0.33912 0.85536 0.0
C3127 C 0.04314 0.35731 0.85759 0.0
C3128 C 0.05487 0.37391 0.85935 0.0
H3129 H 0.91854 0.35963 0.8862 0.0
H3130 H 0.95394 0.36214 0.88841 0.0
C3131 C 0.07508 0.37243 0.85796 0.0
C3132 C 0.02158 0.35866 0.8581 0.0
H3133 H 0.98264 0.38083 0.83696 0.0
C3134 C 0.01137 0.34632 0.87071 0.0
C3135 C 0.01103 0.37106 0.84555 0.0
C3136 C 0.02087 0.38365 0.83056 0.0
C3137 C 0.99101 0.34571 0.87088 0.0
C3138 C 0.98046 0.35852 0.85874 0.0
C3139 C 0.99068 0.37113 0.8464 0.0
C3140 C 0.95889 0.35824 0.8576 0.0
C3141 C 0.98114 0.3307 0.88343 0.0
C3142 C 0.94975 0.35626 0.83948 0.0
C3143 C 0.92956 0.3555 0.83815 0.0
C3144 C 0.91804 0.35637 0.85494 0.0
C3145 C 0.9271 0.35866 0.87306 0.0
C3146 C 0.94734 0.35992 0.87434 0.0
H3147 H 0.99108 0.31854 0.88707 0.0
H3148 H 0.97655 0.33754 0.89726 0.0
H3149 H 0.96814 0.3246 0.87614 0.0
H3150 H 0.95827 0.35497 0.82634 0.0
H3151 H 0.92298 0.35367 0.82399 0.0
H3152 H 0.67381 0.92119 0.87104 0.0
H3153 H 0.67188 0.95647 0.87331 0.0
H3154 H 0.61627 0.95548 0.84468 0.0
H3155 H 0.61794 0.92008 0.84249 0.0
H3156 H 0.66921 0.98156 0.84156 0.0
H3157 H 0.60668 0.99117 0.89152 0.0
H3158 H 0.61945 0.9684 0.88912 0.0
H3159 H 0.60217 0.9757 0.87102 0.0
C3160 C 0.66105 0.92841 0.86538 0.0
C3161 C 0.64606 0.91777 0.8565 0.0
C3162 C 0.65998 0.94859 0.86671 0.0
C3163 C 0.64387 0.95857 0.85933 0.0
C3164 C 0.62869 0.94803 0.85078 0.0
H3165 H 0.61875 0.08102 0.84283 0.0
H3166 H 0.6173 0.04559 0.84463 0.0
C3167 C 0.62973 0.9278 0.84944 0.0
C3168 C 0.64365 0.98007 0.85944 0.0
H3169 H 0.61908 0.01959 0.87651 0.0
C3170 C 0.65831 0.98988 0.84928 0.0
C3171 C 0.62932 0.99086 0.86941 0.0
C3172 C 0.61358 0.98105 0.88103 0.0
C3173 C 0.65895 0.01021 0.84864 0.0
C3174 C 0.64475 0.02102 0.85877 0.0
C3175 C 0.62998 0.01124 0.86883 0.0
C3176 C 0.64504 0.04252 0.85897 0.0
C3177 C 0.6746 0.01992 0.83679 0.0
C3178 C 0.66087 0.05253 0.86693 0.0
C3179 C 0.6618 0.07275 0.86588 0.0
C3180 C 0.64683 0.08337 0.85694 0.0
C3181 C 0.63059 0.07331 0.8497 0.0
C3182 C 0.62971 0.05306 0.85073 0.0
H3183 H 0.68114 0.00981 0.82607 0.0
H3184 H 0.66878 0.03272 0.82892 0.0
H3185 H 0.68631 0.02498 0.84662 0.0
H3186 H 0.67267 0.04466 0.87371 0.0
H3187 H 0.67442 0.08001 0.87179 0.0
H3188 H 0.91932 0.61631 0.15617 0.0
H3189 H 0.95466 0.61403 0.15395 0.0
H3190 H 0.9571 0.67185 0.1302 0.0
H3191 H 0.92177 0.67423 0.13211 0.0
H3192 H 0.98152 0.645 0.1111 0.0
H3193 H 0.99125 0.64284 0.19114 0.0
H3194 H 0.97526 0.62465 0.18151 0.0
H3195 H 0.96865 0.64982 0.1799 0.0
C3196 C 0.92734 0.62853 0.15039 0.0
C3197 C 0.91769 0.64555 0.14452 0.0
C3198 C 0.94755 0.62722 0.14921 0.0
C3199 C 0.9585 0.6429 0.14225 0.0
C3200 C 0.9489 0.65962 0.13573 0.0
H3201 H 0.07945 0.67396 0.13154 0.0
H3202 H 0.04417 0.67168 0.12908 0.0
C3203 C 0.9287 0.66096 0.13687 0.0
C3204 C 0.97999 0.64212 0.14217 0.0
H3205 H 0.0194 0.63909 0.17203 0.0
C3206 C 0.98983 0.64369 0.1244 0.0
C3207 C 0.99077 0.64042 0.15956 0.0
C3208 C 0.981 0.6395 0.17915 0.0
C3209 C 0.01019 0.64346 0.12355 0.0
C3210 C 0.02095 0.64195 0.14096 0.0
C3211 C 0.01111 0.64018 0.1587 0.0
C3212 C 0.04245 0.64279 0.14127 0.0
C3213 C 0.02 0.64461 0.10401 0.0
C3214 C 0.05319 0.6274 0.14915 0.0
C3215 C 0.07337 0.62869 0.1507 0.0
C3216 C 0.0832 0.64551 0.14454 0.0
C3217 C 0.07239 0.66079 0.13639 0.0
C3218 C 0.05221 0.65946 0.13484 0.0
H3219 H 0.01005 0.64025 0.0921 0.0
H3220 H 0.02461 0.6598 0.1013 0.0
H3221 H 0.03308 0.63523 0.10354 0.0
H3222 H 0.04592 0.61444 0.15428 0.0
H3223 H 0.08122 0.61664 0.15702 0.0
H3224 H 0.32704 0.92144 0.1312 0.0
H3225 H 0.32956 0.95671 0.12882 0.0
H3226 H 0.38633 0.95463 0.15499 0.0
H3227 H 0.38391 0.91934 0.15766 0.0
H3228 H 0.36153 0.98132 0.17231 0.0
H3229 H 0.36181 0.99064 0.09238 0.0
H3230 H 0.34203 0.97618 0.10123 0.0
H3231 H 0.36652 0.96758 0.10391 0.0
C3232 C 0.34017 0.92843 0.13629 0.0
C3233 C 0.35525 0.91752 0.14468 0.0
C3234 C 0.34162 0.9486 0.13479 0.0
C3235 C 0.35824 0.95827 0.1415 0.0
C3236 C 0.37343 0.94743 0.14963 0.0
H3237 H 0.38462 0.08149 0.15675 0.0
H3238 H 0.38697 0.04614 0.15471 0.0
C3239 C 0.372 0.92725 0.15114 0.0
C3240 C 0.3592 0.97976 0.1412 0.0
H3241 H 0.3568 0.0192 0.11127 0.0
C3242 C 0.36071 0.98962 0.15896 0.0
C3243 C 0.35804 0.99053 0.12376 0.0
C3244 C 0.35719 0.98071 0.10421 0.0
C3245 C 0.36052 0.00996 0.15981 0.0
C3246 C 0.35914 0.02074 0.14239 0.0
C3247 C 0.35786 0.01089 0.1246 0.0
C3248 C 0.35834 0.04224 0.14243 0.0
C3249 C 0.36112 0.01973 0.1794 0.0
C3250 C 0.34176 0.05181 0.13554 0.0
C3251 C 0.3404 0.07201 0.13657 0.0
C3252 C 0.35564 0.08306 0.14449 0.0
C3253 C 0.37253 0.07344 0.15075 0.0
C3254 C 0.37388 0.05322 0.14968 0.0
H3255 H 0.35757 0.0095 0.19134 0.0
H3256 H 0.37593 0.02546 0.18201 0.0
H3257 H 0.3508 0.0321 0.17998 0.0
H3258 H 0.32966 0.04359 0.12979 0.0
H3259 H 0.32723 0.07892 0.1315 0.0
H3260 H 0.6735 0.92194 0.13251 0.0
H3261 H 0.67099 0.95728 0.13069 0.0
H3262 H 0.61399 0.95473 0.15632 0.0
H3263 H 0.61641 0.9194 0.15844 0.0
H3264 H 0.64337 0.98144 0.11232 0.0
H3265 H 0.6438 0.99175 0.19231 0.0
H3266 H 0.65056 0.96911 0.18101 0.0
H3267 H 0.62542 0.97558 0.18338 0.0
C3268 C 0.66039 0.92886 0.13772 0.0
C3269 C 0.64525 0.91781 0.14583 0.0
C3270 C 0.65898 0.94906 0.13663 0.0
C3271 C 0.64246 0.95863 0.14367 0.0
C3272 C 0.62704 0.94765 0.15116 0.0
H3273 H 0.61666 0.08162 0.15851 0.0
H3274 H 0.61425 0.04628 0.15616 0.0
C3275 C 0.62843 0.92744 0.15228 0.0
C3276 C 0.64157 0.98013 0.14348 0.0
H3277 H 0.63937 0.01976 0.17313 0.0
C3278 C 0.64247 0.98984 0.1256 0.0
C3279 C 0.64038 0.99103 0.16083 0.0
C3280 C 0.64015 0.9814 0.1805 0.0
C3281 C 0.64212 0.0102 0.1246 0.0
C3282 C 0.64117 0.0211 0.14198 0.0
C3283 C 0.64003 0.01137 0.15983 0.0
C3284 C 0.64206 0.0426 0.14209 0.0
C3285 C 0.64255 0.01986 0.10496 0.0
C3286 C 0.6585 0.05226 0.13495 0.0
C3287 C 0.65994 0.07244 0.13626 0.0
C3288 C 0.64502 0.08339 0.14489 0.0
C3289 C 0.62843 0.07367 0.15178 0.0
C3290 C 0.62702 0.05347 0.15047 0.0
H3291 H 0.6377 0.00983 0.09331 0.0
H3292 H 0.6332 0.03298 0.10474 0.0
H3293 H 0.65763 0.02438 0.10163 0.0
H3294 H 0.67046 0.04413 0.1288 0.0
H3295 H 0.67294 0.07941 0.13084 0.0
H3296 H 0.17789 0.57791 0.85385 0.0
H3297 H 0.17527 0.54263 0.85552 0.0
H3298 H 0.11331 0.54755 0.86325 0.0
H3299 H 0.11578 0.5829 0.86037 0.0
H3300 H 0.16462 0.5185 0.88168 0.0
H3301 H 0.11394 0.51016 0.81985 0.0
H3302 H 0.12514 0.53303 0.82567 0.0
H3303 H 0.10405 0.52492 0.83882 0.0
C3304 C 0.1637 0.57146 0.85589 0.0
C3305 C 0.14701 0.58311 0.85678 0.0
C3306 C 0.16221 0.55128 0.85686 0.0
C3307 C 0.14403 0.54231 0.85909 0.0
C3308 C 0.12742 0.55401 0.86084 0.0
H3309 H 0.14183 0.41746 0.88688 0.0
H3310 H 0.13925 0.45284 0.8894 0.0
C3311 C 0.12885 0.57422 0.85936 0.0
C3312 C 0.1427 0.52076 0.85953 0.0
H3313 H 0.12063 0.4819 0.83814 0.0
C3314 C 0.15503 0.5105 0.87211 0.0
C3315 C 0.13034 0.51025 0.84689 0.0
C3316 C 0.11778 0.52014 0.83191 0.0
C3317 C 0.15565 0.49013 0.87218 0.0
C3318 C 0.1429 0.47963 0.85994 0.0
C3319 C 0.13029 0.48989 0.84764 0.0
C3320 C 0.14325 0.45807 0.85864 0.0
C3321 C 0.17064 0.48021 0.88471 0.0
C3322 C 0.14531 0.4491 0.84045 0.0
C3323 C 0.14611 0.42892 0.83894 0.0
C3324 C 0.1452 0.41725 0.85563 0.0
C3325 C 0.14283 0.42615 0.87382 0.0
C3326 C 0.14153 0.44637 0.87527 0.0
H3327 H 0.18275 0.49016 0.88849 0.0
H3328 H 0.16375 0.47549 0.89848 0.0
H3329 H 0.1768 0.46728 0.87736 0.0
H3330 H 0.14664 0.45774 0.82738 0.0
H3331 H 0.14802 0.42248 0.82473 0.0
H3332 H 0.88401 0.58153 0.84192 0.0
H3333 H 0.8855 0.54607 0.84358 0.0
H3334 H 0.83071 0.54505 0.87374 0.0
H3335 H 0.82894 0.58039 0.872 0.0
H3336 H 0.88414 0.51988 0.87561 0.0
H3337 H 0.8214 0.51048 0.82596 0.0
H3338 H 0.83393 0.53331 0.82865 0.0
H3339 H 0.81657 0.52568 0.84656 0.0
C3340 C 0.87231 0.57379 0.849 0.0
C3341 C 0.85622 0.58381 0.8566 0.0
C3342 C 0.87321 0.55353 0.84995 0.0
C3343 C 0.85804 0.54295 0.85845 0.0
C3344 C 0.84238 0.55294 0.86676 0.0
H3345 H 0.82844 0.42191 0.87106 0.0
H3346 H 0.83069 0.4572 0.87318 0.0
C3347 C 0.84144 0.57316 0.8658 0.0
C3348 C 0.85827 0.52146 0.85818 0.0
H3349 H 0.83326 0.48215 0.84139 0.0
C3350 C 0.87308 0.51159 0.86807 0.0
C3351 C 0.84386 0.51073 0.84825 0.0
C3352 C 0.82813 0.52055 0.83659 0.0
C3353 C 0.87357 0.49121 0.86872 0.0
C3354 C 0.85902 0.48051 0.85898 0.0
C3355 C 0.84433 0.49041 0.84895 0.0
C3356 C 0.8586 0.45901 0.85896 0.0
C3357 C 0.88936 0.4813 0.8802 0.0
C3358 C 0.87361 0.44831 0.85032 0.0
C3359 C 0.87239 0.42808 0.84907 0.0
C3360 C 0.85604 0.41821 0.85631 0.0
C3361 C 0.84121 0.42901 0.86528 0.0
C3362 C 0.84246 0.44919 0.86652 0.0
H3363 H 0.89644 0.4914 0.89059 0.0
H3364 H 0.88349 0.46872 0.88838 0.0
H3365 H 0.90063 0.47586 0.87007 0.0
H3366 H 0.88604 0.45563 0.84407 0.0
H3367 H 0.88406 0.42024 0.84205 0.0
H3368 H 0.17485 0.4214 0.13466 0.0
H3369 H 0.17277 0.45676 0.13318 0.0
H3370 H 0.11354 0.45436 0.15307 0.0
H3371 H 0.11541 0.41889 0.15465 0.0
H3372 H 0.1223 0.48118 0.1199 0.0
H3373 H 0.1699 0.49028 0.18445 0.0
H3374 H 0.17889 0.4745 0.16571 0.0
H3375 H 0.15758 0.46779 0.17908 0.0
C3376 C 0.16131 0.42832 0.13861 0.0
C3377 C 0.14535 0.41728 0.14497 0.0
C3378 C 0.16018 0.44854 0.13778 0.0
C3379 C 0.14309 0.45811 0.14322 0.0
C3380 C 0.12689 0.44719 0.14888 0.0
H3381 H 0.13148 0.57916 0.17487 0.0
H3382 H 0.12913 0.54386 0.17287 0.0
C3383 C 0.12801 0.42694 0.14982 0.0
C3384 C 0.14242 0.47956 0.14373 0.0
H3385 H 0.16103 0.51877 0.16756 0.0
C3386 C 0.13072 0.48944 0.13031 0.0
C3387 C 0.15327 0.49021 0.15748 0.0
C3388 C 0.16553 0.48023 0.17263 0.0
C3389 C 0.12987 0.50982 0.13009 0.0
C3390 C 0.14109 0.52048 0.14357 0.0
C3391 C 0.15252 0.51054 0.15718 0.0
C3392 C 0.1412 0.54197 0.14397 0.0
C3393 C 0.11682 0.5198 0.11563 0.0
C3394 C 0.1487 0.55262 0.12832 0.0
C3395 C 0.15012 0.57285 0.12941 0.0
C3396 C 0.14413 0.58277 0.14623 0.0
C3397 C 0.13626 0.57203 0.16171 0.0
C3398 C 0.1349 0.55184 0.16061 0.0
H3399 H 0.10591 0.50968 0.10943 0.0
H3400 H 0.10913 0.5322 0.12247 0.0
H3401 H 0.12575 0.52555 0.10353 0.0
H3402 H 0.15392 0.54526 0.11546 0.0
H3403 H 0.15625 0.58065 0.11722 0.0
H3404 H 0.83038 0.42081 0.12614 0.0
H3405 H 0.83261 0.45608 0.12332 0.0
H3406 H 0.8821 0.45612 0.16161 0.0
H3407 H 0.88032 0.42081 0.1641 0.0
H3408 H 0.82849 0.48219 0.15167 0.0
H3409 H 0.90137 0.49089 0.11889 0.0
H3410 H 0.88909 0.46778 0.11987 0.0
H3411 H 0.90181 0.47686 0.1408 0.0
C3412 C 0.84189 0.42829 0.13379 0.0
C3413 C 0.85517 0.41797 0.14535 0.0
C3414 C 0.84314 0.44846 0.13215 0.0
C3415 C 0.85768 0.45875 0.14203 0.0
C3416 C 0.87107 0.44848 0.15345 0.0
H3417 H 0.87377 0.57986 0.17049 0.0
H3418 H 0.87539 0.54445 0.16815 0.0
C3419 C 0.86994 0.42828 0.15496 0.0
C3420 C 0.85796 0.4803 0.14143 0.0
H3421 H 0.88675 0.51957 0.1319 0.0
C3422 C 0.84118 0.49033 0.14716 0.0
C3423 C 0.87454 0.49095 0.13556 0.0
C3424 C 0.89265 0.48107 0.12825 0.0
C3425 C 0.84063 0.51067 0.14755 0.0
C3426 C 0.85728 0.52125 0.14202 0.0
C3427 C 0.87405 0.51133 0.13619 0.0
C3428 C 0.85746 0.5427 0.14247 0.0
C3429 C 0.8224 0.52079 0.15422 0.0
C3430 C 0.84714 0.55337 0.12857 0.0
C3431 C 0.84624 0.57359 0.12979 0.0
C3432 C 0.85555 0.58349 0.14504 0.0
C3433 C 0.86632 0.57271 0.15864 0.0
C3434 C 0.86732 0.55249 0.15731 0.0
H3435 H 0.81167 0.51051 0.16048 0.0
H3436 H 0.82593 0.53198 0.16525 0.0
H3437 H 0.81556 0.52825 0.14169 0.0
H3438 H 0.83952 0.546 0.11696 0.0
H3439 H 0.83785 0.58141 0.11904 0.0
H3440 H 0.34313 0.61639 0.58191 0.0
H3441 H 0.34563 0.61366 0.5466 0.0
H3442 H 0.37252 0.67009 0.54402 0.0
H3443 H 0.37031 0.67289 0.57926 0.0
H3444 H 0.3286 0.63845 0.51973 0.0
H3445 H 0.40847 0.63719 0.51027 0.0
H3446 H 0.39693 0.63279 0.53339 0.0
H3447 H 0.39996 0.65719 0.52463 0.0
C3448 C 0.34977 0.62814 0.57387 0.0
C3449 C 0.35649 0.64488 0.58345 0.0
C3450 C 0.35118 0.62655 0.55369 0.0
C3451 C 0.35948 0.64156 0.54271 0.0
C3452 C 0.36643 0.65816 0.55223 0.0
H3453 H 0.36946 0.67302 0.42234 0.0
H3454 H 0.37121 0.67027 0.45765 0.0
C3455 C 0.36502 0.65978 0.57239 0.0
C3456 C 0.35973 0.64046 0.52122 0.0
H3457 H 0.38959 0.64266 0.48174 0.0
C3458 C 0.34194 0.63914 0.51141 0.0
C3459 C 0.37715 0.64144 0.51043 0.0
C3460 C 0.39673 0.64205 0.5202 0.0
C3461 C 0.34105 0.63941 0.49106 0.0
C3462 C 0.35846 0.64067 0.48026 0.0
C3463 C 0.37628 0.6417 0.49007 0.0
C3464 C 0.35838 0.64165 0.45877 0.0
C3465 C 0.32144 0.63903 0.48132 0.0
C3466 C 0.351 0.62627 0.44766 0.0
C3467 C 0.34992 0.6278 0.42745 0.0
C3468 C 0.35629 0.64473 0.41797 0.0
C3469 C 0.36431 0.65983 0.42914 0.0
C3470 C 0.36536 0.65828 0.44933 0.0
H3471 H 0.30954 0.64257 0.49161 0.0
H3472 H 0.32091 0.64947 0.46906 0.0
H3473 H 0.31871 0.6243 0.47545 0.0
H3474 H 0.34589 0.61315 0.45464 0.0
H3475 H 0.34383 0.61582 0.41931 0.0
H3476 H 0.82704 0.87 0.42162 0.0
H3477 H 0.82941 0.87243 0.45688 0.0
H3478 H 0.88608 0.846 0.45512 0.0
H3479 H 0.88379 0.84326 0.41981 0.0
H3480 H 0.86118 0.82891 0.48177 0.0
H3481 H 0.86156 0.90886 0.49081 0.0
H3482 H 0.84178 0.90003 0.47634 0.0
H3483 H 0.86628 0.89725 0.4678 0.0
C3484 C 0.84011 0.86486 0.42867 0.0
C3485 C 0.85521 0.85638 0.41785 0.0
C3486 C 0.84149 0.8664 0.44885 0.0
C3487 C 0.85803 0.85964 0.4586 0.0
C3488 C 0.87323 0.8514 0.44785 0.0
H3489 H 0.88444 0.84499 0.58171 0.0
H3490 H 0.88662 0.84697 0.54636 0.0
C3491 C 0.87188 0.84985 0.42766 0.0
C3492 C 0.85889 0.86001 0.48009 0.0
H3493 H 0.85632 0.89007 0.51942 0.0
C3494 C 0.86033 0.84229 0.49001 0.0
C3495 C 0.85768 0.87749 0.49079 0.0
C3496 C 0.85692 0.89701 0.48091 0.0
C3497 C 0.86004 0.84151 0.51036 0.0
C3498 C 0.85862 0.85897 0.52106 0.0
C3499 C 0.8574 0.87672 0.51116 0.0
C3500 C 0.85788 0.85899 0.54255 0.0
C3501 C 0.86062 0.82196 0.52021 0.0
C3502 C 0.84127 0.86575 0.55217 0.0
C3503 C 0.83999 0.86474 0.57239 0.0
C3504 C 0.85535 0.85699 0.58339 0.0
C3505 C 0.87226 0.85087 0.57371 0.0
C3506 C 0.87352 0.85191 0.55349 0.0
H3507 H 0.85711 0.80998 0.51001 0.0
H3508 H 0.87541 0.81937 0.526 0.0
H3509 H 0.85026 0.82143 0.53254 0.0
H3510 H 0.82908 0.87138 0.54398 0.0
H3511 H 0.8268 0.86969 0.57935 0.0
H3512 H 0.61614 0.34513 0.58218 0.0
H3513 H 0.61377 0.34716 0.54683 0.0
H3514 H 0.67119 0.37182 0.54421 0.0
H3515 H 0.67365 0.37012 0.57954 0.0
H3516 H 0.64405 0.39035 0.51972 0.0
H3517 H 0.64311 0.31025 0.51039 0.0
H3518 H 0.62478 0.31968 0.52634 0.0
H3519 H 0.64992 0.3217 0.53293 0.0
C3520 C 0.62825 0.35108 0.57412 0.0
C3521 C 0.64518 0.35726 0.58371 0.0
C3522 C 0.62689 0.35214 0.5539 0.0
C3523 C 0.64245 0.3593 0.54289 0.0
C3524 C 0.65907 0.36614 0.55244 0.0
H3525 H 0.6736 0.36988 0.42201 0.0
H3526 H 0.67115 0.37242 0.45727 0.0
C3527 C 0.66044 0.36511 0.57265 0.0
C3528 C 0.64165 0.35925 0.5214 0.0
H3529 H 0.63912 0.32916 0.48213 0.0
C3530 C 0.64295 0.37699 0.51147 0.0
C3531 C 0.64022 0.34179 0.51071 0.0
C3532 C 0.6396 0.32224 0.52058 0.0
C3533 C 0.64274 0.37774 0.4911 0.0
C3534 C 0.64151 0.36025 0.48043 0.0
C3535 C 0.63999 0.34254 0.49036 0.0
C3536 C 0.64243 0.35985 0.45893 0.0
C3537 C 0.64361 0.39724 0.48119 0.0
C3538 C 0.6272 0.35171 0.44816 0.0
C3539 C 0.62859 0.35011 0.42799 0.0
C3540 C 0.64534 0.35647 0.4182 0.0
C3541 C 0.66047 0.36486 0.42904 0.0
C3542 C 0.65905 0.36646 0.44921 0.0
H3543 H 0.63904 0.40913 0.49107 0.0
H3544 H 0.65876 0.40016 0.47661 0.0
H3545 H 0.63425 0.3975 0.46808 0.0
H3546 H 0.61429 0.34643 0.45541 0.0
H3547 H 0.61665 0.3436 0.42012 0.0
H3548 H 0.12045 0.16245 0.58059 0.0
H3549 H 0.11867 0.16006 0.54521 0.0
H3550 H 0.16926 0.1233 0.54495 0.0
H3551 H 0.17129 0.12566 0.58033 0.0
H3552 H 0.15225 0.17117 0.51962 0.0
H3553 H 0.12674 0.09514 0.51012 0.0
H3554 H 0.12243 0.10876 0.53211 0.0
H3555 H 0.14614 0.09927 0.52713 0.0
C3556 C 0.13109 0.15368 0.57307 0.0
C3557 C 0.14608 0.14431 0.58331 0.0
C3558 C 0.13004 0.15235 0.55285 0.0
C3559 C 0.14375 0.1414 0.54255 0.0
C3560 C 0.15843 0.13165 0.5527 0.0
H3561 H 0.16603 0.1203 0.42038 0.0
H3562 H 0.16448 0.11885 0.45584 0.0
C3563 C 0.15961 0.1331 0.5729 0.0
C3564 C 0.14347 0.14127 0.52109 0.0
H3565 H 0.13526 0.11237 0.48171 0.0
C3566 C 0.14845 0.15837 0.51128 0.0
C3567 C 0.13873 0.12446 0.51038 0.0
C3568 C 0.13308 0.10583 0.52037 0.0
C3569 C 0.14906 0.15908 0.49095 0.0
C3570 C 0.14398 0.14235 0.48014 0.0
C3571 C 0.13905 0.1252 0.49 0.0
C3572 C 0.14389 0.1424 0.4586 0.0
C3573 C 0.15572 0.17758 0.4813 0.0
C3574 C 0.13238 0.15571 0.44834 0.0
C3575 C 0.13339 0.15671 0.42813 0.0
C3576 C 0.14568 0.14419 0.41771 0.0
C3577 C 0.15647 0.1302 0.42795 0.0
C3578 C 0.1556 0.12935 0.44822 0.0
H3579 H 0.16434 0.18677 0.49136 0.0
H3580 H 0.16466 0.17448 0.46826 0.0
H3581 H 0.14285 0.1861 0.47671 0.0
H3582 H 0.1228 0.16553 0.456 0.0
H3583 H 0.12467 0.16745 0.42067 0.0
H3584 H 0.32357 0.35329 0.57838 0.0
H3585 H 0.32599 0.35506 0.5431 0.0
H3586 H 0.38791 0.36324 0.54771 0.0
H3587 H 0.38565 0.36026 0.58306 0.0
H3588 H 0.33632 0.38136 0.51896 0.0
H3589 H 0.38739 0.3199 0.51023 0.0
H3590 H 0.37627 0.32559 0.53318 0.0
H3591 H 0.39721 0.33892 0.52497 0.0
C3592 C 0.33771 0.35544 0.57187 0.0
C3593 C 0.35445 0.35645 0.58344 0.0
C3594 C 0.33909 0.35647 0.55168 0.0
C3595 C 0.35719 0.35886 0.54262 0.0
C3596 C 0.37386 0.36071 0.55424 0.0
H3597 H 0.35848 0.38662 0.4177 0.0
H3598 H 0.36116 0.38923 0.45307 0.0
C3599 C 0.37255 0.35918 0.57445 0.0
C3600 C 0.35841 0.35935 0.52106 0.0
H3601 H 0.38035 0.33813 0.48203 0.0
C3602 C 0.34593 0.37186 0.51089 0.0
C3603 C 0.37078 0.34681 0.51046 0.0
C3604 C 0.38351 0.33191 0.52026 0.0
C3605 C 0.34516 0.37193 0.49052 0.0
C3606 C 0.35791 0.35978 0.47993 0.0
C3607 C 0.37068 0.34757 0.4901 0.0
C3608 C 0.3574 0.35846 0.45837 0.0
C3609 C 0.33003 0.38438 0.48072 0.0
C3610 C 0.3554 0.34024 0.44944 0.0
C3611 C 0.35454 0.33868 0.42927 0.0
C3612 C 0.35532 0.35535 0.41756 0.0
C3613 C 0.35759 0.37357 0.42641 0.0
C3614 C 0.35895 0.37508 0.44663 0.0
H3615 H 0.31797 0.3881 0.49075 0.0
H3616 H 0.33681 0.39818 0.47593 0.0
H3617 H 0.32381 0.37698 0.46783 0.0
H3618 H 0.35421 0.32718 0.45811 0.0
H3619 H 0.35272 0.32444 0.42286 0.0
H3620 H 0.17344 0.86924 0.42248 0.0
H3621 H 0.17091 0.87096 0.4578 0.0
H3622 H 0.11393 0.84531 0.45517 0.0
H3623 H 0.11637 0.84326 0.41983 0.0
H3624 H 0.14347 0.88913 0.48215 0.0
H3625 H 0.14373 0.80906 0.49185 0.0
H3626 H 0.15039 0.82051 0.46926 0.0
H3627 H 0.12527 0.81814 0.47585 0.0
C3628 C 0.16032 0.86402 0.42936 0.0
C3629 C 0.1452 0.85589 0.41829 0.0
C3630 C 0.1589 0.86505 0.44957 0.0
C3631 C 0.14238 0.85795 0.45911 0.0
C3632 C 0.12697 0.8505 0.4481 0.0
H3633 H 0.11692 0.84245 0.58206 0.0
H3634 H 0.11442 0.84505 0.54676 0.0
C3635 C 0.12837 0.84943 0.42789 0.0
C3636 C 0.14154 0.85799 0.48061 0.0
H3637 H 0.13944 0.82804 0.52002 0.0
C3638 C 0.14256 0.87579 0.49046 0.0
C3639 C 0.14036 0.84055 0.49138 0.0
C3640 C 0.14004 0.82095 0.48161 0.0
C3641 C 0.14232 0.87662 0.51082 0.0
C3642 C 0.14137 0.85917 0.52158 0.0
C3643 C 0.14011 0.8414 0.51173 0.0
C3644 C 0.14235 0.85888 0.54308 0.0
C3645 C 0.1429 0.89618 0.52064 0.0
C3646 C 0.15889 0.8658 0.55272 0.0
C3647 C 0.16039 0.86433 0.57289 0.0
C3648 C 0.14542 0.85578 0.58383 0.0
C3649 C 0.12874 0.8491 0.57412 0.0
C3650 C 0.12727 0.85057 0.55394 0.0
H3651 H 0.13811 0.90795 0.51072 0.0
H3652 H 0.13356 0.89635 0.53377 0.0
H3653 H 0.15801 0.89937 0.52518 0.0
H3654 H 0.17088 0.8719 0.54459 0.0
H3655 H 0.17346 0.86959 0.57985 0.0
H3656 H 0.65792 0.61658 0.41994 0.0
H3657 H 0.65567 0.61405 0.45526 0.0
H3658 H 0.62892 0.67055 0.45774 0.0
H3659 H 0.63088 0.67316 0.42245 0.0
H3660 H 0.67304 0.639 0.48178 0.0
H3661 H 0.59326 0.63787 0.49207 0.0
H3662 H 0.60456 0.6333 0.46887 0.0
H3663 H 0.60168 0.65776 0.47751 0.0
C3664 C 0.65135 0.62839 0.42795 0.0
C3665 C 0.64462 0.6451 0.41832 0.0
C3666 C 0.65009 0.62691 0.44815 0.0
C3667 C 0.64192 0.642 0.4591 0.0
C3668 C 0.63492 0.65855 0.44954 0.0
H3669 H 0.63281 0.67353 0.57957 0.0
H3670 H 0.63092 0.67082 0.54427 0.0
C3671 C 0.63618 0.66007 0.42935 0.0
C3672 C 0.6419 0.64102 0.4806 0.0
H3673 H 0.61244 0.64328 0.52039 0.0
C3674 C 0.65979 0.63972 0.49024 0.0
C3675 C 0.62458 0.64203 0.49157 0.0
C3676 C 0.60491 0.64264 0.482 0.0
C3677 C 0.66089 0.64001 0.51058 0.0
C3678 C 0.64359 0.64128 0.52156 0.0
C3679 C 0.62567 0.64231 0.51193 0.0
C3680 C 0.64388 0.64227 0.54305 0.0
C3681 C 0.6806 0.63966 0.52011 0.0
C3682 C 0.65141 0.62692 0.5541 0.0
C3683 C 0.65259 0.62843 0.57431 0.0
C3684 C 0.64615 0.6453 0.58385 0.0
C3685 C 0.63802 0.66038 0.57273 0.0
C3686 C 0.63688 0.65885 0.55254 0.0
H3687 H 0.69238 0.64323 0.5097 0.0
H3688 H 0.68123 0.65008 0.53238 0.0
H3689 H 0.68341 0.62491 0.52593 0.0
H3690 H 0.65654 0.61383 0.54708 0.0
H3691 H 0.65876 0.61646 0.58241 0.0
H3692 H 0.84508 0.11748 0.58157 0.0
H3693 H 0.84704 0.11559 0.54616 0.0
H3694 H 0.86968 0.17386 0.54413 0.0
H3695 H 0.86772 0.17598 0.57945 0.0
H3696 H 0.83761 0.167 0.51933 0.0
H3697 H 0.89518 0.11128 0.51028 0.0
H3698 H 0.87576 0.10477 0.52645 0.0
H3699 H 0.89166 0.12446 0.53267 0.0
C3700 C 0.85066 0.12984 0.57362 0.0
C3701 C 0.85617 0.14692 0.58338 0.0
C3702 C 0.85187 0.12868 0.55339 0.0
C3703 C 0.85867 0.14452 0.54256 0.0
C3704 C 0.86446 0.16145 0.55225 0.0
H3705 H 0.88433 0.1551 0.41964 0.0
H3706 H 0.88598 0.15361 0.4551 0.0
C3707 C 0.86333 0.16262 0.57245 0.0
C3708 C 0.85862 0.14396 0.52107 0.0
H3709 H 0.87832 0.12097 0.48182 0.0
C3710 C 0.84653 0.15696 0.51112 0.0
C3711 C 0.87039 0.13094 0.51044 0.0
C3712 C 0.88413 0.11715 0.52044 0.0
C3713 C 0.8457 0.15715 0.49079 0.0
C3714 C 0.85713 0.14385 0.48016 0.0
C3715 C 0.86945 0.13102 0.49007 0.0
C3716 C 0.85657 0.14331 0.45869 0.0
C3717 C 0.83277 0.17173 0.4808 0.0
C3718 C 0.83963 0.13757 0.44901 0.0
C3719 C 0.83862 0.13837 0.42878 0.0
C3720 C 0.85455 0.14497 0.41784 0.0
C3721 C 0.87175 0.15009 0.4276 0.0
C3722 C 0.87275 0.1492 0.44786 0.0
H3723 H 0.82808 0.18347 0.4908 0.0
H3724 H 0.84031 0.17835 0.4682 0.0
H3725 H 0.8196 0.16426 0.47533 0.0
H3726 H 0.82707 0.13276 0.45715 0.0
H3727 H 0.82519 0.13421 0.42177 0.0
H3728 H 0.32775 0.57945 0.36992 0.0
H3729 H 0.33001 0.54414 0.37177 0.0
H3730 H 0.38577 0.54602 0.34347 0.0
H3731 H 0.38379 0.5814 0.34174 0.0
H3732 H 0.33301 0.51938 0.33999 0.0
H3733 H 0.39576 0.50994 0.38968 0.0
H3734 H 0.38284 0.53263 0.38743 0.0
H3735 H 0.40018 0.52556 0.36929 0.0
C3736 C 0.34061 0.57242 0.36426 0.0
C3737 C 0.35557 0.5833 0.35562 0.0
C3738 C 0.34187 0.55221 0.36534 0.0
C3739 C 0.35814 0.54247 0.35794 0.0
C3740 C 0.37325 0.55327 0.3496 0.0
H3741 H 0.38334 0.41971 0.34054 0.0
H3742 H 0.38503 0.4552 0.34203 0.0
C3743 C 0.37202 0.5735 0.34852 0.0
C3744 C 0.35861 0.52097 0.35781 0.0
H3745 H 0.38371 0.48153 0.37435 0.0
C3746 C 0.34404 0.5111 0.34758 0.0
C3747 C 0.37313 0.51023 0.36758 0.0
C3748 C 0.38879 0.52008 0.37926 0.0
C3749 C 0.34363 0.49078 0.34675 0.0
C3750 C 0.35798 0.48002 0.35671 0.0
C3751 C 0.3727 0.48985 0.36677 0.0
C3752 C 0.35767 0.45853 0.35702 0.0
C3753 C 0.32798 0.48099 0.33494 0.0
C3754 C 0.34199 0.44867 0.36543 0.0
C3755 C 0.34093 0.42846 0.36458 0.0
C3756 C 0.35561 0.41766 0.35537 0.0
C3757 C 0.37172 0.42756 0.34764 0.0
C3758 C 0.37274 0.44783 0.34849 0.0
H3759 H 0.3213 0.49111 0.32431 0.0
H3760 H 0.33386 0.46828 0.32698 0.0
H3761 H 0.31637 0.4758 0.34482 0.0
H3762 H 0.33039 0.45665 0.37242 0.0
H3763 H 0.32842 0.42133 0.37088 0.0
H3764 H 0.66996 0.58062 0.37624 0.0
H3765 H 0.66817 0.54528 0.37847 0.0
H3766 H 0.62006 0.54503 0.33846 0.0
H3767 H 0.62136 0.58044 0.33658 0.0
H3768 H 0.61437 0.51972 0.36805 0.0
H3769 H 0.68784 0.50905 0.337 0.0
H3770 H 0.68787 0.52391 0.35837 0.0
H3771 H 0.67577 0.53226 0.33678 0.0
C3772 C 0.65895 0.57306 0.36795 0.0
C3773 C 0.64594 0.58335 0.35606 0.0
C3774 C 0.65802 0.55284 0.36916 0.0
C3775 C 0.6443 0.54246 0.35825 0.0
C3776 C 0.63087 0.55272 0.34689 0.0
H3777 H 0.62548 0.42098 0.33169 0.0
H3778 H 0.62367 0.4564 0.33379 0.0
C3779 C 0.63165 0.57297 0.34583 0.0
C3780 C 0.64411 0.52092 0.35847 0.0
H3781 H 0.67222 0.48105 0.34959 0.0
C3782 C 0.627 0.51127 0.36395 0.0
C3783 C 0.66056 0.50988 0.35299 0.0
C3784 C 0.67898 0.51928 0.34577 0.0
C3785 C 0.62602 0.49091 0.36438 0.0
C3786 C 0.64255 0.47998 0.35918 0.0
C3787 C 0.65963 0.48956 0.35372 0.0
C3788 C 0.64237 0.45851 0.3589 0.0
C3789 C 0.60744 0.48116 0.37057 0.0
C3790 C 0.65344 0.44804 0.37236 0.0
C3791 C 0.65445 0.42781 0.37128 0.0
C3792 C 0.64462 0.41771 0.35649 0.0
C3793 C 0.63327 0.42829 0.34321 0.0
C3794 C 0.63214 0.44851 0.34443 0.0
H3795 H 0.59705 0.49157 0.37717 0.0
H3796 H 0.60044 0.47444 0.35773 0.0
H3797 H 0.61052 0.46942 0.38118 0.0
H3798 H 0.66151 0.45556 0.38356 0.0
H3799 H 0.66334 0.42015 0.38172 0.0
H3800 H 0.38119 0.58042 0.66388 0.0
H3801 H 0.38273 0.54508 0.66153 0.0
H3802 H 0.33304 0.54531 0.62349 0.0
H3803 H 0.33106 0.5806 0.62618 0.0
H3804 H 0.32888 0.51936 0.65199 0.0
H3805 H 0.40152 0.51 0.61885 0.0
H3806 H 0.40217 0.52411 0.64071 0.0
H3807 H 0.38942 0.5332 0.6198 0.0
C3808 C 0.37072 0.57298 0.65483 0.0
C3809 C 0.35596 0.58335 0.64526 0.0
C3810 C 0.37171 0.55276 0.65339 0.0
C3811 C 0.35819 0.54254 0.64209 0.0
C3812 C 0.34367 0.55289 0.63224 0.0
H3813 H 0.33737 0.42001 0.61941 0.0
H3814 H 0.3392 0.45541 0.61735 0.0
C3815 C 0.34256 0.57307 0.63381 0.0
C3816 C 0.35831 0.52099 0.64157 0.0
H3817 H 0.38673 0.48147 0.63199 0.0
C3818 C 0.34148 0.51111 0.64743 0.0
C3819 C 0.37477 0.5102 0.63565 0.0
C3820 C 0.39292 0.51992 0.62821 0.0
C3821 C 0.34078 0.49077 0.64787 0.0
C3822 C 0.35731 0.48005 0.64227 0.0
C3823 C 0.37412 0.48983 0.63633 0.0
C3824 C 0.35732 0.4586 0.64276 0.0
C3825 C 0.3225 0.48082 0.65466 0.0
C3826 C 0.36721 0.44874 0.65753 0.0
C3827 C 0.36612 0.42853 0.65885 0.0
C3828 C 0.35522 0.41782 0.6453 0.0
C3829 C 0.34585 0.42778 0.63012 0.0
C3830 C 0.34685 0.448 0.62891 0.0
H3831 H 0.3119 0.49119 0.66097 0.0
H3832 H 0.31553 0.47339 0.64219 0.0
H3833 H 0.326 0.46961 0.66569 0.0
H3834 H 0.37539 0.45674 0.66832 0.0
H3835 H 0.37361 0.42133 0.67064 0.0
H3836 H 0.64678 0.42362 0.67779 0.0
H3837 H 0.6443 0.45881 0.67498 0.0
H3838 H 0.6384 0.45354 0.61284 0.0
H3839 H 0.64207 0.41829 0.61554 0.0
H3840 H 0.66169 0.48118 0.61989 0.0
H3841 H 0.59889 0.49267 0.668 0.0
H3842 H 0.6177 0.48039 0.68101 0.0
H3843 H 0.60635 0.46876 0.66048 0.0
C3844 C 0.64477 0.42996 0.66354 0.0
C3845 C 0.64453 0.41822 0.64688 0.0
C3846 C 0.64317 0.4501 0.66196 0.0
C3847 C 0.64063 0.45891 0.64374 0.0
C3848 C 0.64023 0.44714 0.62708 0.0
H3849 H 0.61508 0.58371 0.64258 0.0
H3850 H 0.61227 0.54845 0.63898 0.0
C3851 C 0.6423 0.427 0.62862 0.0
C3852 C 0.6396 0.48043 0.64204 0.0
H3853 H 0.61912 0.52071 0.66231 0.0
C3854 C 0.65215 0.48979 0.62898 0.0
C3855 C 0.62686 0.49179 0.65349 0.0
C3856 C 0.61155 0.48283 0.66634 0.0
C3857 C 0.65287 0.51011 0.62763 0.0
C3858 C 0.64138 0.52146 0.64034 0.0
C3859 C 0.62824 0.5121 0.6528 0.0
C3860 C 0.64314 0.54297 0.64141 0.0
C3861 C 0.66581 0.51906 0.6124 0.0
C3862 C 0.66136 0.55172 0.64406 0.0
C3863 C 0.66302 0.57185 0.64563 0.0
C3864 C 0.64641 0.58366 0.64524 0.0
C3865 C 0.62813 0.57495 0.64293 0.0
C3866 C 0.62652 0.55481 0.64089 0.0
H3867 H 0.66752 0.50924 0.59973 0.0
H3868 H 0.66 0.53315 0.60719 0.0
H3869 H 0.68046 0.52147 0.61863 0.0
H3870 H 0.67434 0.54296 0.64529 0.0
H3871 H 0.67727 0.57813 0.64772 0.0
H3872 H 0.42195 0.13047 0.8271 0.0
H3873 H 0.45725 0.12824 0.8291 0.0
H3874 H 0.4561 0.15682 0.88474 0.0
H3875 H 0.42072 0.15893 0.88302 0.0
H3876 H 0.48235 0.15973 0.83169 0.0
H3877 H 0.4918 0.11032 0.89465 0.0
H3878 H 0.46902 0.11274 0.88192 0.0
H3879 H 0.47642 0.13087 0.89914 0.0
C3880 C 0.42914 0.13611 0.83988 0.0
C3881 C 0.41847 0.14494 0.85487 0.0
C3882 C 0.44934 0.13481 0.84099 0.0
C3883 C 0.45928 0.14218 0.85714 0.0
C3884 C 0.44869 0.1507 0.8723 0.0
H3885 H 0.58162 0.15956 0.88263 0.0
H3886 H 0.54617 0.15778 0.88393 0.0
C3887 C 0.42846 0.152 0.87123 0.0
C3888 C 0.48079 0.14211 0.85744 0.0
H3889 H 0.52023 0.12556 0.88249 0.0
C3890 C 0.49064 0.15217 0.84274 0.0
C3891 C 0.49154 0.13235 0.87195 0.0
C3892 C 0.4817 0.12081 0.88774 0.0
C3893 C 0.51096 0.15292 0.84224 0.0
C3894 C 0.52174 0.14303 0.85664 0.0
C3895 C 0.51191 0.13307 0.87144 0.0
C3896 C 0.54323 0.1429 0.85646 0.0
C3897 C 0.52073 0.16462 0.8265 0.0
C3898 C 0.55332 0.13466 0.84083 0.0
C3899 C 0.57355 0.13568 0.83999 0.0
C3900 C 0.5841 0.1449 0.85484 0.0
C3901 C 0.57396 0.15247 0.87088 0.0
C3902 C 0.5537 0.15145 0.87168 0.0
H3903 H 0.5106 0.17518 0.81973 0.0
H3904 H 0.53342 0.17265 0.83232 0.0
H3905 H 0.52595 0.15467 0.81497 0.0
H3906 H 0.54552 0.12764 0.82913 0.0
H3907 H 0.58086 0.1295 0.82753 0.0
H3908 H 0.58012 0.87058 0.82787 0.0
H3909 H 0.54481 0.87268 0.82981 0.0
H3910 H 0.54599 0.84449 0.88564 0.0
H3911 H 0.58138 0.84249 0.88398 0.0
H3912 H 0.51988 0.84096 0.83264 0.0
H3913 H 0.51002 0.89098 0.89506 0.0
H3914 H 0.53282 0.88861 0.88236 0.0
H3915 H 0.52555 0.87057 0.89972 0.0
C3916 C 0.57293 0.865 0.84068 0.0
C3917 C 0.58362 0.8563 0.85575 0.0
C3918 C 0.55273 0.86622 0.84175 0.0
C3919 C 0.54279 0.85891 0.85794 0.0
C3920 C 0.55339 0.85054 0.87318 0.0
H3921 H 0.42032 0.8417 0.88315 0.0
H3922 H 0.45577 0.84346 0.8846 0.0
C3923 C 0.57363 0.84931 0.87214 0.0
C3924 C 0.52129 0.85889 0.85818 0.0
H3925 H 0.48169 0.87561 0.88288 0.0
C3926 C 0.51152 0.84862 0.84356 0.0
C3927 C 0.51045 0.86876 0.87255 0.0
C3928 C 0.52019 0.8805 0.88824 0.0
C3929 C 0.4912 0.8478 0.84299 0.0
C3930 C 0.48034 0.85784 0.85723 0.0
C3931 C 0.49008 0.86798 0.87196 0.0
C3932 C 0.45885 0.85794 0.85693 0.0
C3933 C 0.48154 0.83589 0.82736 0.0
C3934 C 0.44884 0.86597 0.84113 0.0
C3935 C 0.42862 0.86495 0.84021 0.0
C3936 C 0.41798 0.85597 0.85515 0.0
C3937 C 0.42804 0.84861 0.87134 0.0
C3938 C 0.44829 0.84962 0.87222 0.0
H3939 H 0.49171 0.82524 0.8208 0.0
H3940 H 0.46881 0.82792 0.83321 0.0
H3941 H 0.47639 0.84567 0.81566 0.0
H3942 H 0.4567 0.87281 0.82937 0.0
H3943 H 0.42137 0.87096 0.82763 0.0
H3944 H 0.42158 0.13211 0.17373 0.0
H3945 H 0.45692 0.13043 0.17149 0.0
H3946 H 0.45467 0.15561 0.11427 0.0
H3947 H 0.4193 0.15761 0.11642 0.0
H3948 H 0.4814 0.112 0.14434 0.0
H3949 H 0.49125 0.19204 0.14399 0.0
H3950 H 0.46861 0.18069 0.15063 0.0
H3951 H 0.47532 0.18285 0.12552 0.0
C3952 C 0.42855 0.13725 0.16062 0.0
C3953 C 0.41758 0.14521 0.14535 0.0
C3954 C 0.44877 0.13624 0.15936 0.0
C3955 C 0.45842 0.1432 0.14286 0.0
C3956 C 0.44752 0.15053 0.1273 0.0
H3957 H 0.58132 0.15821 0.11735 0.0
H3958 H 0.54601 0.15571 0.11501 0.0
C3959 C 0.42729 0.15157 0.12854 0.0
C3960 C 0.47992 0.14313 0.14215 0.0
H3961 H 0.5194 0.17298 0.13994 0.0
C3962 C 0.48973 0.12532 0.14336 0.0
C3963 C 0.49073 0.16053 0.14087 0.0
C3964 C 0.481 0.18014 0.14035 0.0
C3965 C 0.51009 0.12443 0.1432 0.0
C3966 C 0.52089 0.14186 0.14212 0.0
C3967 C 0.51108 0.15964 0.1407 0.0
C3968 C 0.54239 0.1421 0.14305 0.0
C3969 C 0.51986 0.10486 0.14395 0.0
C3970 C 0.55207 0.13527 0.15961 0.0
C3971 C 0.57226 0.13667 0.16102 0.0
C3972 C 0.58316 0.14508 0.14594 0.0
C3973 C 0.57341 0.15167 0.12925 0.0
C3974 C 0.55322 0.15026 0.12787 0.0
H3975 H 0.50992 0.09307 0.13929 0.0
H3976 H 0.53299 0.10457 0.13461 0.0
H3977 H 0.52441 0.10181 0.15909 0.0
H3978 H 0.54397 0.12927 0.17167 0.0
H3979 H 0.57925 0.13149 0.1741 0.0
H3980 H 0.58117 0.84439 0.11727 0.0
H3981 H 0.54587 0.847 0.11498 0.0
H3982 H 0.54384 0.87204 0.17227 0.0
H3983 H 0.57913 0.8697 0.17466 0.0
H3984 H 0.51938 0.82905 0.13964 0.0
H3985 H 0.50966 0.90893 0.14069 0.0
H3986 H 0.53274 0.89759 0.13566 0.0
H3987 H 0.52425 0.89977 0.16023 0.0
C3988 C 0.57326 0.85065 0.12932 0.0
C3989 C 0.58302 0.85679 0.14618 0.0
C3990 C 0.55308 0.85213 0.12797 0.0
C3991 C 0.54226 0.85991 0.14335 0.0
C3992 C 0.55194 0.86633 0.16007 0.0
H3993 H 0.42151 0.8689 0.17435 0.0
H3994 H 0.45683 0.87084 0.17203 0.0
C3995 C 0.57213 0.86486 0.16145 0.0
C3996 C 0.52077 0.86012 0.14245 0.0
H3997 H 0.4812 0.88981 0.14527 0.0
C3998 C 0.51101 0.84234 0.14067 0.0
C3999 C 0.50993 0.87748 0.14388 0.0
C4000 C 0.51965 0.89706 0.14504 0.0
C4001 C 0.49068 0.84138 0.14083 0.0
C4002 C 0.47982 0.85873 0.14245 0.0
C4003 C 0.48957 0.87654 0.14401 0.0
C4004 C 0.45832 0.85856 0.14319 0.0
C4005 C 0.48101 0.82175 0.13994 0.0
C4006 C 0.44742 0.85144 0.12753 0.0
C4007 C 0.4272 0.85024 0.12882 0.0
C4008 C 0.41751 0.85624 0.14576 0.0
C4009 C 0.42847 0.86403 0.16113 0.0
C4010 C 0.44867 0.86519 0.15983 0.0
H4011 H 0.49129 0.80982 0.14337 0.0
H4012 H 0.46861 0.82097 0.1502 0.0
H4013 H 0.47536 0.8193 0.12506 0.0
H4014 H 0.45457 0.84662 0.1144 0.0
H4015 H 0.41922 0.84435 0.11663 0.0
H4016 H 0.41953 0.38513 0.65807 0.0
H4017 H 0.45485 0.38776 0.65572 0.0
H4018 H 0.45733 0.33163 0.62822 0.0
H4019 H 0.42208 0.32893 0.63027 0.0
H4020 H 0.48144 0.36271 0.67269 0.0
H4021 H 0.4916 0.36459 0.59292 0.0
H4022 H 0.46841 0.36898 0.60428 0.0
H4023 H 0.47709 0.34458 0.60111 0.0
C4024 C 0.42755 0.37343 0.6513 0.0
C4025 C 0.41793 0.35679 0.64439 0.0
C4026 C 0.44774 0.37497 0.64999 0.0
C4027 C 0.4587 0.36001 0.64158 0.0
C4028 C 0.44914 0.34353 0.6344 0.0
H4029 H 0.57917 0.32819 0.63236 0.0
H4030 H 0.54386 0.33092 0.63042 0.0
C4031 C 0.42897 0.34197 0.63571 0.0
C4032 C 0.4802 0.36097 0.64153 0.0
H4033 H 0.51994 0.35874 0.61199 0.0
C4034 C 0.48987 0.36207 0.65942 0.0
C4035 C 0.49114 0.36004 0.62419 0.0
C4036 C 0.48155 0.35966 0.60452 0.0
C4037 C 0.5102 0.36166 0.66048 0.0
C4038 C 0.52115 0.36047 0.64316 0.0
C4039 C 0.51149 0.35964 0.62525 0.0
C4040 C 0.54264 0.35945 0.64342 0.0
C4041 C 0.51977 0.36183 0.68019 0.0
C4042 C 0.55369 0.37479 0.65098 0.0
C4043 C 0.57388 0.37328 0.65217 0.0
C4044 C 0.58343 0.3564 0.64574 0.0
C4045 C 0.57232 0.34134 0.63757 0.0
C4046 C 0.55213 0.34288 0.6364 0.0
H4047 H 0.50936 0.35823 0.69196 0.0
H4048 H 0.53199 0.35135 0.68072 0.0
H4049 H 0.52566 0.37653 0.68309 0.0
H4050 H 0.54667 0.38788 0.65612 0.0
H4051 H 0.58197 0.38524 0.65837 0.0
H4052 H 0.42167 0.63132 0.32716 0.0
H4053 H 0.45693 0.62889 0.32946 0.0
H4054 H 0.45514 0.65403 0.38671 0.0
H4055 H 0.41983 0.65677 0.3845 0.0
H4056 H 0.48166 0.6718 0.36217 0.0
H4057 H 0.49109 0.5919 0.3607 0.0
H4058 H 0.47655 0.60112 0.34115 0.0
H4059 H 0.46803 0.60329 0.36572 0.0
C4060 C 0.42872 0.63616 0.34034 0.0
C4061 C 0.41788 0.6443 0.35562 0.0
C4062 C 0.44889 0.63463 0.34167 0.0
C4063 C 0.45864 0.64104 0.35836 0.0
C4064 C 0.44788 0.6489 0.37375 0.0
H4065 H 0.58165 0.6557 0.38499 0.0
H4066 H 0.54632 0.65347 0.38713 0.0
C4067 C 0.42769 0.65045 0.37244 0.0
C4068 C 0.48013 0.64074 0.35918 0.0
H4069 H 0.5196 0.61095 0.35584 0.0
C4070 C 0.48997 0.65848 0.361 0.0
C4071 C 0.49091 0.62335 0.35754 0.0
C4072 C 0.48113 0.60381 0.35635 0.0
C4073 C 0.51031 0.65937 0.36069 0.0
C4074 C 0.52109 0.642 0.35886 0.0
C4075 C 0.51128 0.62423 0.35724 0.0
C4076 C 0.54258 0.6421 0.35811 0.0
C4077 C 0.52006 0.67895 0.36169 0.0
C4078 C 0.55223 0.63578 0.34134 0.0
C4079 C 0.57245 0.63693 0.34009 0.0
C4080 C 0.5834 0.64439 0.35562 0.0
C4081 C 0.57369 0.65007 0.37267 0.0
C4082 C 0.55348 0.64888 0.37391 0.0
H4083 H 0.5098 0.69096 0.35845 0.0
H4084 H 0.52585 0.68123 0.37654 0.0
H4085 H 0.53238 0.67977 0.35134 0.0
H4086 H 0.54408 0.63039 0.32903 0.0
H4087 H 0.57943 0.63233 0.32678 0.0
H4088 H 0.57791 0.32355 0.35423 0.0
H4089 H 0.54263 0.32599 0.35575 0.0
H4090 H 0.54717 0.38803 0.36305 0.0
H4091 H 0.58255 0.38574 0.3603 0.0
H4092 H 0.51838 0.33662 0.38173 0.0
H4093 H 0.50988 0.38692 0.31959 0.0
H4094 H 0.53282 0.37591 0.32555 0.0
H4095 H 0.5245 0.397 0.33857 0.0
C4096 C 0.57138 0.33772 0.35614 0.0
C4097 C 0.58294 0.35448 0.35696 0.0
C4098 C 0.55119 0.33911 0.35703 0.0
C4099 C 0.54212 0.35724 0.3591 0.0
C4100 C 0.55372 0.37394 0.36076 0.0
H4101 H 0.41713 0.35866 0.38632 0.0
H4102 H 0.45248 0.36139 0.389 0.0
C4103 C 0.57394 0.37262 0.35936 0.0
C4104 C 0.52055 0.35844 0.35946 0.0
H4105 H 0.4816 0.38005 0.33777 0.0
C4106 C 0.51034 0.34609 0.37207 0.0
C4107 C 0.51 0.37064 0.34671 0.0
C4108 C 0.51985 0.38321 0.33171 0.0
C4109 C 0.48998 0.34528 0.37203 0.0
C4110 C 0.47943 0.35787 0.35968 0.0
C4111 C 0.48964 0.37051 0.34736 0.0
C4112 C 0.45788 0.35733 0.35828 0.0
C4113 C 0.48014 0.33027 0.3846 0.0
C4114 C 0.449 0.35516 0.34006 0.0
C4115 C 0.42883 0.35428 0.33845 0.0
C4116 C 0.41708 0.35521 0.35508 0.0
C4117 C 0.42588 0.35764 0.3733 0.0
C4118 C 0.44609 0.35903 0.37485 0.0
H4119 H 0.49017 0.31825 0.38847 0.0
H4120 H 0.47532 0.33717 0.39832 0.0
H4121 H 0.46729 0.32396 0.37723 0.0
H4122 H 0.4577 0.35385 0.32703 0.0
H4123 H 0.42246 0.35234 0.32421 0.0
H4124 H 0.41983 0.65741 0.61643 0.0
H4125 H 0.45512 0.65481 0.61379 0.0
H4126 H 0.45759 0.62886 0.67067 0.0
H4127 H 0.42234 0.63117 0.67339 0.0
H4128 H 0.48189 0.6723 0.63842 0.0
H4129 H 0.49146 0.59242 0.63834 0.0
H4130 H 0.46835 0.60386 0.63369 0.0
H4131 H 0.47704 0.60124 0.65816 0.0
C4132 C 0.42783 0.65094 0.62831 0.0
C4133 C 0.41822 0.64453 0.64515 0.0
C4134 C 0.44801 0.64948 0.62676 0.0
C4135 C 0.45895 0.64143 0.64192 0.0
C4136 C 0.4494 0.63476 0.65862 0.0
H4137 H 0.57931 0.63198 0.67348 0.0
H4138 H 0.54402 0.63011 0.67072 0.0
C4139 C 0.42924 0.63622 0.6602 0.0
C4140 C 0.48044 0.6412 0.64086 0.0
H4141 H 0.51996 0.61142 0.64343 0.0
C4142 C 0.49023 0.65898 0.63929 0.0
C4143 C 0.49126 0.6238 0.64208 0.0
C4144 C 0.48151 0.60422 0.64298 0.0
C4145 C 0.51057 0.65991 0.63953 0.0
C4146 C 0.5214 0.64253 0.64101 0.0
C4147 C 0.51162 0.62471 0.64229 0.0
C4148 C 0.54289 0.64266 0.64198 0.0
C4149 C 0.52027 0.67953 0.63889 0.0
C4150 C 0.55399 0.64991 0.62653 0.0
C4151 C 0.57419 0.65107 0.62806 0.0
C4152 C 0.58367 0.64489 0.64506 0.0
C4153 C 0.57251 0.63698 0.66022 0.0
C4154 C 0.55233 0.63586 0.65867 0.0
H4155 H 0.50997 0.69146 0.6423 0.0
H4156 H 0.53256 0.68021 0.64929 0.0
H4157 H 0.52611 0.68209 0.6241 0.0
H4158 H 0.547 0.65487 0.61335 0.0
H4159 H 0.58233 0.65706 0.61603 0.0
loop_
_geom_bond_atom_site_label_1
_geom_bond_atom_site_label_2
_geom_bond_distance
_geom_bond_site_symmetry_2
_ccdc_geom_bond_type
Fe0 O2 1.918 . S
Fe0 O5 1.997 . S
Fe0 O6 2.002 . S
Fe0 O11 1.976 . S
Fe0 O14 1.996 . S
Fe1 O2 1.918 . S
Fe1 O9 1.997 . S
Fe1 O12 1.996 . S
Fe1 O16 1.976 . S
Fe1 O19 2.002 . S
O2 Fe0 1.918 . S
O2 Fe1 1.918 . S
O2 Fe3 1.918 . S
Fe3 O2 1.918 . S
Fe3 O4 2.002 . S
Fe3 O13 1.976 . S
Fe3 O17 1.996 . S
Fe3 O20 1.997 . S
O4 Fe3 2.002 . S
O4 C21 1.295 . S
O5 Fe0 1.997 . S
O5 C21 1.235 . S
O6 Fe0 2.002 . S
O6 C7 1.295 . S
C7 O6 1.295 . S
C7 O9 1.235 . S
C8 O13 1.287 . S
C8 O14 1.255 . S
O9 Fe1 1.997 . S
O9 C7 1.235 . S
C10 O16 1.287 . S
C10 O17 1.255 . S
O11 Fe0 1.976 . S
O11 C18 1.287 . S
O12 Fe1 1.996 . S
O12 C18 1.255 . S
O13 Fe3 1.976 . S
O13 C8 1.287 . S
O14 Fe0 1.996 . S
O14 C8 1.255 . S
C15 O19 1.295 . S
C15 O20 1.235 . S
O16 Fe1 1.976 . S
O16 C10 1.287 . S
O17 Fe3 1.996 . S
O17 C10 1.255 . S
C18 O11 1.287 . S
C18 O12 1.255 . S
O19 Fe1 2.002 . S
O19 C15 1.295 . S
O20 Fe3 1.997 . S
O20 C15 1.235 . S
C21 O4 1.295 . S
C21 O5 1.235 . S
Fe22 O24 1.918 . S
Fe22 O27 1.997 . S
Fe22 O28 2.002 . S
Fe22 O33 1.976 . S
Fe22 O36 1.996 . S
Fe23 O24 1.918 . S
Fe23 O31 1.997 . S
Fe23 O34 1.996 . S
Fe23 O38 1.976 . S
Fe23 O41 2.002 . S
O24 Fe22 1.918 . S
O24 Fe23 1.918 . S
O24 Fe25 1.918 . S
Fe25 O24 1.918 . S
Fe25 O26 2.002 . S
Fe25 O35 1.976 . S
Fe25 O39 1.996 . S
Fe25 O42 1.997 . S
O26 Fe25 2.002 . S
O26 C43 1.295 . S
O27 Fe22 1.997 . S
O27 C43 1.235 . S
O28 Fe22 2.002 . S
O28 C29 1.295 . S
C29 O28 1.295 . S
C29 O31 1.235 . S
C30 O35 1.287 . S
C30 O36 1.255 . S
O31 Fe23 1.997 . S
O31 C29 1.235 . S
C32 O38 1.287 . S
C32 O39 1.255 . S
O33 Fe22 1.976 . S
O33 C40 1.287 . S
O34 Fe23 1.996 . S
O34 C40 1.255 . S
O35 Fe25 1.976 . S
O35 C30 1.287 . S
O36 Fe22 1.996 . S
O36 C30 1.255 . S
C37 O41 1.295 . S
C37 O42 1.235 . S
O38 Fe23 1.976 . S
O38 C32 1.287 . S
O39 Fe25 1.996 . S
O39 C32 1.255 . S
C40 O33 1.287 . S
C40 O34 1.255 . S
O41 Fe23 2.002 . S
O41 C37 1.295 . S
O42 Fe25 1.997 . S
O42 C37 1.235 . S
C43 O26 1.295 . S
C43 O27 1.235 . S
Fe44 O46 1.918 . S
Fe44 O49 1.997 . S
Fe44 O50 2.002 . S
Fe44 O55 1.976 . S
Fe44 O58 1.996 . S
Fe45 O46 1.918 . S
Fe45 O53 1.997 . S
Fe45 O56 1.996 . S
Fe45 O60 1.976 . S
Fe45 O63 2.002 . S
O46 Fe44 1.918 . S
O46 Fe45 1.918 . S
O46 Fe47 1.918 . S
Fe47 O46 1.918 . S
Fe47 O48 2.002 . S
Fe47 O57 1.976 . S
Fe47 O61 1.996 . S
Fe47 O64 1.997 . S
O48 Fe47 2.002 . S
O48 C65 1.295 . S
O49 Fe44 1.997 . S
O49 C65 1.235 . S
O50 Fe44 2.002 . S
O50 C51 1.295 . S
C51 O50 1.295 . S
C51 O53 1.235 . S
C52 O57 1.287 . S
C52 O58 1.255 . S
O53 Fe45 1.997 . S
O53 C51 1.235 . S
C54 O60 1.287 . S
C54 O61 1.255 . S
O55 Fe44 1.976 . S
O55 C62 1.287 . S
O56 Fe45 1.996 . S
O56 C62 1.255 . S
O57 Fe47 1.976 . S
O57 C52 1.287 . S
O58 Fe44 1.996 . S
O58 C52 1.255 . S
C59 O63 1.295 . S
C59 O64 1.235 . S
O60 Fe45 1.976 . S
O60 C54 1.287 . S
O61 Fe47 1.996 . S
O61 C54 1.255 . S
C62 O55 1.287 . S
C62 O56 1.255 . S
O63 Fe45 2.002 . S
O63 C59 1.295 . S
O64 Fe47 1.997 . S
O64 C59 1.235 . S
C65 O48 1.295 . S
C65 O49 1.235 . S
Fe66 O68 1.918 . S
Fe66 O71 1.997 . S
Fe66 O72 2.002 . S
Fe66 O77 1.976 . S
Fe66 O80 1.996 . S
Fe67 O68 1.918 . S
Fe67 O75 1.997 . S
Fe67 O78 1.996 . S
Fe67 O82 1.976 . S
Fe67 O85 2.002 . S
O68 Fe66 1.918 . S
O68 Fe67 1.918 . S
O68 Fe69 1.918 . S
Fe69 O68 1.918 . S
Fe69 O70 2.002 . S
Fe69 O79 1.976 . S
Fe69 O83 1.996 . S
Fe69 O86 1.997 . S
O70 Fe69 2.002 . S
O70 C87 1.295 . S
O71 Fe66 1.997 . S
O71 C87 1.235 . S
O72 Fe66 2.002 . S
O72 C73 1.295 . S
C73 O72 1.295 . S
C73 O75 1.235 . S
C74 O79 1.287 . S
C74 O80 1.255 . S
O75 Fe67 1.997 . S
O75 C73 1.235 . S
C76 O82 1.287 . S
C76 O83 1.255 . S
O77 Fe66 1.976 . S
O77 C84 1.287 . S
O78 Fe67 1.996 . S
O78 C84 1.255 . S
O79 Fe69 1.976 . S
O79 C74 1.287 . S
O80 Fe66 1.996 . S
O80 C74 1.255 . S
C81 O85 1.295 . S
C81 O86 1.235 . S
O82 Fe67 1.976 . S
O82 C76 1.287 . S
O83 Fe69 1.996 . S
O83 C76 1.255 . S
C84 O77 1.287 . S
C84 O78 1.255 . S
O85 Fe67 2.002 . S
O85 C81 1.295 . S
O86 Fe69 1.997 . S
O86 C81 1.235 . S
C87 O70 1.295 . S
C87 O71 1.235 . S
Fe88 O90 1.918 . S
Fe88 O93 1.997 . S
Fe88 O94 2.002 . S
Fe88 O99 1.976 . S
Fe88 O102 1.996 . S
Fe89 O90 1.918 . S
Fe89 O97 1.997 . S
Fe89 O100 1.996 . S
Fe89 O104 1.976 . S
Fe89 O107 2.002 . S
O90 Fe88 1.918 . S
O90 Fe89 1.918 . S
O90 Fe91 1.918 . S
Fe91 O90 1.918 . S
Fe91 O92 2.002 . S
Fe91 O101 1.976 . S
Fe91 O105 1.996 . S
Fe91 O108 1.997 . S
O92 Fe91 2.002 . S
O92 C109 1.295 . S
O93 Fe88 1.997 . S
O93 C109 1.235 . S
O94 Fe88 2.002 . S
O94 C95 1.295 . S
C95 O94 1.295 . S
C95 O97 1.235 . S
C96 O101 1.287 . S
C96 O102 1.255 . S
O97 Fe89 1.997 . S
O97 C95 1.235 . S
C98 O104 1.287 . S
C98 O105 1.255 . S
O99 Fe88 1.976 . S
O99 C106 1.287 . S
O100 Fe89 1.996 . S
O100 C106 1.255 . S
O101 Fe91 1.976 . S
O101 C96 1.287 . S
O102 Fe88 1.996 . S
O102 C96 1.255 . S
C103 O107 1.295 . S
C103 O108 1.235 . S
O104 Fe89 1.976 . S
O104 C98 1.287 . S
O105 Fe91 1.996 . S
O105 C98 1.255 . S
C106 O99 1.287 . S
C106 O100 1.255 . S
O107 Fe89 2.002 . S
O107 C103 1.295 . S
O108 Fe91 1.997 . S
O108 C103 1.235 . S
C109 O92 1.295 . S
C109 O93 1.235 . S
Fe110 O112 1.918 . S
Fe110 O115 1.997 . S
Fe110 O116 2.002 . S
Fe110 O121 1.976 . S
Fe110 O124 1.996 . S
Fe111 O112 1.918 . S
Fe111 O119 1.997 . S
Fe111 O122 1.996 . S
Fe111 O126 1.976 . S
Fe111 O129 2.002 . S
O112 Fe110 1.918 . S
O112 Fe111 1.918 . S
O112 Fe113 1.918 . S
Fe113 O112 1.918 . S
Fe113 O114 2.002 . S
Fe113 O123 1.976 . S
Fe113 O127 1.996 . S
Fe113 O130 1.997 . S
O114 Fe113 2.002 . S
O114 C131 1.295 . S
O115 Fe110 1.997 . S
O115 C131 1.235 . S
O116 Fe110 2.002 . S
O116 C117 1.295 . S
C117 O116 1.295 . S
C117 O119 1.235 . S
C118 O123 1.287 . S
C118 O124 1.255 . S
O119 Fe111 1.997 . S
O119 C117 1.235 . S
C120 O126 1.287 . S
C120 O127 1.255 . S
O121 Fe110 1.976 . S
O121 C128 1.287 . S
O122 Fe111 1.996 . S
O122 C128 1.255 . S
O123 Fe113 1.976 . S
O123 C118 1.287 . S
O124 Fe110 1.996 . S
O124 C118 1.255 . S
C125 O129 1.295 . S
C125 O130 1.235 . S
O126 Fe111 1.976 . S
O126 C120 1.287 . S
O127 Fe113 1.996 . S
O127 C120 1.255 . S
C128 O121 1.287 . S
C128 O122 1.255 . S
O129 Fe111 2.002 . S
O129 C125 1.295 . S
O130 Fe113 1.997 . S
O130 C125 1.235 . S
C131 O114 1.295 . S
C131 O115 1.235 . S
Fe132 O134 1.918 . S
Fe132 O137 1.997 . S
Fe132 O138 2.002 . S
Fe132 O143 1.976 . S
Fe132 O146 1.996 . S
Fe133 O134 1.918 . S
Fe133 O141 1.997 . S
Fe133 O144 1.996 . S
Fe133 O148 1.976 . S
Fe133 O151 2.002 . S
O134 Fe132 1.918 . S
O134 Fe133 1.918 . S
O134 Fe135 1.918 . S
Fe135 O134 1.918 . S
Fe135 O136 2.002 . S
Fe135 O145 1.976 . S
Fe135 O149 1.996 . S
Fe135 O152 1.997 . S
O136 Fe135 2.002 . S
O136 C153 1.295 . S
O137 Fe132 1.997 . S
O137 C153 1.235 . S
O138 Fe132 2.002 . S
O138 C139 1.295 . S
C139 O138 1.295 . S
C139 O141 1.235 . S
C140 O145 1.287 . S
C140 O146 1.255 . S
O141 Fe133 1.997 . S
O141 C139 1.235 . S
C142 O148 1.287 . S
C142 O149 1.255 . S
O143 Fe132 1.976 . S
O143 C150 1.287 . S
O144 Fe133 1.996 . S
O144 C150 1.255 . S
O145 Fe135 1.976 . S
O145 C140 1.287 . S
O146 Fe132 1.996 . S
O146 C140 1.255 . S
C147 O151 1.295 . S
C147 O152 1.235 . S
O148 Fe133 1.976 . S
O148 C142 1.287 . S
O149 Fe135 1.996 . S
O149 C142 1.255 . S
C150 O143 1.287 . S
C150 O144 1.255 . S
O151 Fe133 2.002 . S
O151 C147 1.295 . S
O152 Fe135 1.997 . S
O152 C147 1.235 . S
C153 O136 1.295 . S
C153 O137 1.235 . S
Fe154 O156 1.918 . S
Fe154 O159 1.997 . S
Fe154 O160 2.002 . S
Fe154 O165 1.976 . S
Fe154 O168 1.996 . S
Fe155 O156 1.918 . S
Fe155 O163 1.997 . S
Fe155 O166 1.996 . S
Fe155 O170 1.976 . S
Fe155 O173 2.002 . S
O156 Fe154 1.918 . S
O156 Fe155 1.918 . S
O156 Fe157 1.918 . S
Fe157 O156 1.918 . S
Fe157 O158 2.002 . S
Fe157 O167 1.976 . S
Fe157 O171 1.996 . S
Fe157 O174 1.997 . S
O158 Fe157 2.002 . S
O158 C175 1.295 . S
O159 Fe154 1.997 . S
O159 C175 1.235 . S
O160 Fe154 2.002 . S
O160 C161 1.295 . S
C161 O160 1.295 . S
C161 O163 1.235 . S
C162 O167 1.287 . S
C162 O168 1.255 . S
O163 Fe155 1.997 . S
O163 C161 1.235 . S
C164 O170 1.287 . S
C164 O171 1.255 . S
O165 Fe154 1.976 . S
O165 C172 1.287 . S
O166 Fe155 1.996 . S
O166 C172 1.255 . S
O167 Fe157 1.976 . S
O167 C162 1.287 . S
O168 Fe154 1.996 . S
O168 C162 1.255 . S
C169 O173 1.295 . S
C169 O174 1.235 . S
O170 Fe155 1.976 . S
O170 C164 1.287 . S
O171 Fe157 1.996 . S
O171 C164 1.255 . S
C172 O165 1.287 . S
C172 O166 1.255 . S
O173 Fe155 2.002 . S
O173 C169 1.295 . S
O174 Fe157 1.997 . S
O174 C169 1.235 . S
C175 O158 1.295 . S
C175 O159 1.235 . S
Fe176 O178 1.918 . S
Fe176 O181 1.997 . S
Fe176 O182 2.002 . S
Fe176 O187 1.976 . S
Fe176 O190 1.996 . S
Fe177 O178 1.918 . S
Fe177 O185 1.997 . S
Fe177 O188 1.996 . S
Fe177 O192 1.976 . S
Fe177 O195 2.002 . S
O178 Fe176 1.918 . S
O178 Fe177 1.918 . S
O178 Fe179 1.918 . S
Fe179 O178 1.918 . S
Fe179 O180 2.002 . S
Fe179 O189 1.976 . S
Fe179 O193 1.996 . S
Fe179 O196 1.997 . S
O180 Fe179 2.002 . S
O180 C197 1.295 . S
O181 Fe176 1.997 . S
O181 C197 1.235 . S
O182 Fe176 2.002 . S
O182 C183 1.295 . S
C183 O182 1.295 . S
C183 O185 1.235 . S
C184 O189 1.287 . S
C184 O190 1.255 . S
O185 Fe177 1.997 . S
O185 C183 1.235 . S
C186 O192 1.287 . S
C186 O193 1.255 . S
O187 Fe176 1.976 . S
O187 C194 1.287 . S
O188 Fe177 1.996 . S
O188 C194 1.255 . S
O189 Fe179 1.976 . S
O189 C184 1.287 . S
O190 Fe176 1.996 . S
O190 C184 1.255 . S
C191 O195 1.295 . S
C191 O196 1.235 . S
O192 Fe177 1.976 . S
O192 C186 1.287 . S
O193 Fe179 1.996 . S
O193 C186 1.255 . S
C194 O187 1.287 . S
C194 O188 1.255 . S
O195 Fe177 2.002 . S
O195 C191 1.295 . S
O196 Fe179 1.997 . S
O196 C191 1.235 . S
C197 O180 1.295 . S
C197 O181 1.235 . S
Fe198 O200 1.918 . S
Fe198 O203 1.997 . S
Fe198 O204 2.002 . S
Fe198 O209 1.976 . S
Fe198 O212 1.996 . S
Fe199 O200 1.918 . S
Fe199 O207 1.997 . S
Fe199 O210 1.996 . S
Fe199 O214 1.976 . S
Fe199 O217 2.002 . S
O200 Fe198 1.918 . S
O200 Fe199 1.918 . S
O200 Fe201 1.918 . S
Fe201 O200 1.918 . S
Fe201 O202 2.002 . S
Fe201 O211 1.976 . S
Fe201 O215 1.996 . S
Fe201 O218 1.997 . S
O202 Fe201 2.002 . S
O202 C219 1.295 . S
O203 Fe198 1.997 . S
O203 C219 1.235 . S
O204 Fe198 2.002 . S
O204 C205 1.295 . S
C205 O204 1.295 . S
C205 O207 1.235 . S
C206 O211 1.287 . S
C206 O212 1.255 . S
O207 Fe199 1.997 . S
O207 C205 1.235 . S
C208 O214 1.287 . S
C208 O215 1.255 . S
O209 Fe198 1.976 . S
O209 C216 1.287 . S
O210 Fe199 1.996 . S
O210 C216 1.255 . S
O211 Fe201 1.976 . S
O211 C206 1.287 . S
O212 Fe198 1.996 . S
O212 C206 1.255 . S
C213 O217 1.295 . S
C213 O218 1.235 . S
O214 Fe199 1.976 . S
O214 C208 1.287 . S
O215 Fe201 1.996 . S
O215 C208 1.255 . S
C216 O209 1.287 . S
C216 O210 1.255 . S
O217 Fe199 2.002 . S
O217 C213 1.295 . S
O218 Fe201 1.997 . S
O218 C213 1.235 . S
C219 O202 1.295 . S
C219 O203 1.235 . S
Fe220 O222 1.918 . S
Fe220 O225 1.997 . S
Fe220 O226 2.002 . S
Fe220 O231 1.976 . S
Fe220 O234 1.996 . S
Fe221 O222 1.918 . S
Fe221 O229 1.997 . S
Fe221 O232 1.996 . S
Fe221 O236 1.976 . S
Fe221 O239 2.002 . S
O222 Fe220 1.918 . S
O222 Fe221 1.918 . S
O222 Fe223 1.918 . S
Fe223 O222 1.918 . S
Fe223 O224 2.002 . S
Fe223 O233 1.976 . S
Fe223 O237 1.996 . S
Fe223 O240 1.997 . S
O224 Fe223 2.002 . S
O224 C241 1.295 . S
O225 Fe220 1.997 . S
O225 C241 1.235 . S
O226 Fe220 2.002 . S
O226 C227 1.295 . S
C227 O226 1.295 . S
C227 O229 1.235 . S
C228 O233 1.287 . S
C228 O234 1.255 . S
O229 Fe221 1.997 . S
O229 C227 1.235 . S
C230 O236 1.287 . S
C230 O237 1.255 . S
O231 Fe220 1.976 . S
O231 C238 1.287 . S
O232 Fe221 1.996 . S
O232 C238 1.255 . S
O233 Fe223 1.976 . S
O233 C228 1.287 . S
O234 Fe220 1.996 . S
O234 C228 1.255 . S
C235 O239 1.295 . S
C235 O240 1.235 . S
O236 Fe221 1.976 . S
O236 C230 1.287 . S
O237 Fe223 1.996 . S
O237 C230 1.255 . S
C238 O231 1.287 . S
C238 O232 1.255 . S
O239 Fe221 2.002 . S
O239 C235 1.295 . S
O240 Fe223 1.997 . S
O240 C235 1.235 . S
C241 O224 1.295 . S
C241 O225 1.235 . S
Fe242 O244 1.918 . S
Fe242 O247 1.997 . S
Fe242 O248 2.002 . S
Fe242 O253 1.976 . S
Fe242 O256 1.996 . S
Fe243 O244 1.918 . S
Fe243 O251 1.997 . S
Fe243 O254 1.996 . S
Fe243 O258 1.976 . S
Fe243 O261 2.002 . S
O244 Fe242 1.918 . S
O244 Fe243 1.918 . S
O244 Fe245 1.918 . S
Fe245 O244 1.918 . S
Fe245 O246 2.002 . S
Fe245 O255 1.976 . S
Fe245 O259 1.996 . S
Fe245 O262 1.997 . S
O246 Fe245 2.002 . S
O246 C263 1.295 . S
O247 Fe242 1.997 . S
O247 C263 1.235 . S
O248 Fe242 2.002 . S
O248 C249 1.295 . S
C249 O248 1.295 . S
C249 O251 1.235 . S
C250 O255 1.287 . S
C250 O256 1.255 . S
O251 Fe243 1.997 . S
O251 C249 1.235 . S
C252 O258 1.287 . S
C252 O259 1.255 . S
O253 Fe242 1.976 . S
O253 C260 1.287 . S
O254 Fe243 1.996 . S
O254 C260 1.255 . S
O255 Fe245 1.976 . S
O255 C250 1.287 . S
O256 Fe242 1.996 . S
O256 C250 1.255 . S
C257 O261 1.295 . S
C257 O262 1.235 . S
O258 Fe243 1.976 . S
O258 C252 1.287 . S
O259 Fe245 1.996 . S
O259 C252 1.255 . S
C260 O253 1.287 . S
C260 O254 1.255 . S
O261 Fe243 2.002 . S
O261 C257 1.295 . S
O262 Fe245 1.997 . S
O262 C257 1.235 . S
C263 O246 1.295 . S
C263 O247 1.235 . S
Fe264 O266 1.918 . S
Fe264 O269 1.997 . S
Fe264 O270 2.002 . S
Fe264 O275 1.976 . S
Fe264 O278 1.996 . S
Fe265 O266 1.918 . S
Fe265 O273 1.997 . S
Fe265 O276 1.996 . S
Fe265 O280 1.976 . S
Fe265 O283 2.002 . S
O266 Fe264 1.918 . S
O266 Fe265 1.918 . S
O266 Fe267 1.918 . S
Fe267 O266 1.918 . S
Fe267 O268 2.002 . S
Fe267 O277 1.976 . S
Fe267 O281 1.996 . S
Fe267 O284 1.997 . S
O268 Fe267 2.002 . S
O268 C285 1.295 . S
O269 Fe264 1.997 . S
O269 C285 1.235 . S
O270 Fe264 2.002 . S
O270 C271 1.295 . S
C271 O270 1.295 . S
C271 O273 1.235 . S
C272 O277 1.287 . S
C272 O278 1.255 . S
O273 Fe265 1.997 . S
O273 C271 1.235 . S
C274 O280 1.287 . S
C274 O281 1.255 . S
O275 Fe264 1.976 . S
O275 C282 1.287 . S
O276 Fe265 1.996 . S
O276 C282 1.255 . S
O277 Fe267 1.976 . S
O277 C272 1.287 . S
O278 Fe264 1.996 . S
O278 C272 1.255 . S
C279 O283 1.295 . S
C279 O284 1.235 . S
O280 Fe265 1.976 . S
O280 C274 1.287 . S
O281 Fe267 1.996 . S
O281 C274 1.255 . S
C282 O275 1.287 . S
C282 O276 1.255 . S
O283 Fe265 2.002 . S
O283 C279 1.295 . S
O284 Fe267 1.997 . S
O284 C279 1.235 . S
C285 O268 1.295 . S
C285 O269 1.235 . S
Fe286 O288 1.918 . S
Fe286 O291 1.997 . S
Fe286 O292 2.002 . S
Fe286 O297 1.976 . S
Fe286 O300 1.996 . S
Fe287 O288 1.918 . S
Fe287 O295 1.997 . S
Fe287 O298 1.996 . S
Fe287 O302 1.976 . S
Fe287 O305 2.002 . S
O288 Fe286 1.918 . S
O288 Fe287 1.918 . S
O288 Fe289 1.918 . S
Fe289 O288 1.918 . S
Fe289 O290 2.002 . S
Fe289 O299 1.976 . S
Fe289 O303 1.996 . S
Fe289 O306 1.997 . S
O290 Fe289 2.002 . S
O290 C307 1.295 . S
O291 Fe286 1.997 . S
O291 C307 1.235 . S
O292 Fe286 2.002 . S
O292 C293 1.295 . S
C293 O292 1.295 . S
C293 O295 1.235 . S
C294 O299 1.287 . S
C294 O300 1.255 . S
O295 Fe287 1.997 . S
O295 C293 1.235 . S
C296 O302 1.287 . S
C296 O303 1.255 . S
O297 Fe286 1.976 . S
O297 C304 1.287 . S
O298 Fe287 1.996 . S
O298 C304 1.255 . S
O299 Fe289 1.976 . S
O299 C294 1.287 . S
O300 Fe286 1.996 . S
O300 C294 1.255 . S
C301 O305 1.295 . S
C301 O306 1.235 . S
O302 Fe287 1.976 . S
O302 C296 1.287 . S
O303 Fe289 1.996 . S
O303 C296 1.255 . S
C304 O297 1.287 . S
C304 O298 1.255 . S
O305 Fe287 2.002 . S
O305 C301 1.295 . S
O306 Fe289 1.997 . S
O306 C301 1.235 . S
C307 O290 1.295 . S
C307 O291 1.235 . S
Fe308 O310 1.918 . S
Fe308 O313 1.997 . S
Fe308 O314 2.002 . S
Fe308 O319 1.976 . S
Fe308 O322 1.996 . S
Fe309 O310 1.918 . S
Fe309 O317 1.997 . S
Fe309 O320 1.996 . S
Fe309 O324 1.976 . S
Fe309 O327 2.002 . S
O310 Fe308 1.918 . S
O310 Fe309 1.918 . S
O310 Fe311 1.918 . S
Fe311 O310 1.918 . S
Fe311 O312 2.002 . S
Fe311 O321 1.976 . S
Fe311 O325 1.996 . S
Fe311 O328 1.997 . S
O312 Fe311 2.002 . S
O312 C329 1.295 . S
O313 Fe308 1.997 . S
O313 C329 1.235 . S
O314 Fe308 2.002 . S
O314 C315 1.295 . S
C315 O314 1.295 . S
C315 O317 1.235 . S
C316 O321 1.287 . S
C316 O322 1.255 . S
O317 Fe309 1.997 . S
O317 C315 1.235 . S
C318 O324 1.287 . S
C318 O325 1.255 . S
O319 Fe308 1.976 . S
O319 C326 1.287 . S
O320 Fe309 1.996 . S
O320 C326 1.255 . S
O321 Fe311 1.976 . S
O321 C316 1.287 . S
O322 Fe308 1.996 . S
O322 C316 1.255 . S
C323 O327 1.295 . S
C323 O328 1.235 . S
O324 Fe309 1.976 . S
O324 C318 1.287 . S
O325 Fe311 1.996 . S
O325 C318 1.255 . S
C326 O319 1.287 . S
C326 O320 1.255 . S
O327 Fe309 2.002 . S
O327 C323 1.295 . S
O328 Fe311 1.997 . S
O328 C323 1.235 . S
C329 O312 1.295 . S
C329 O313 1.235 . S
Fe330 O332 1.918 . S
Fe330 O335 1.997 . S
Fe330 O336 2.002 . S
Fe330 O341 1.976 . S
Fe330 O344 1.996 . S
Fe331 O332 1.918 . S
Fe331 O339 1.997 . S
Fe331 O342 1.996 . S
Fe331 O346 1.976 . S
Fe331 O349 2.002 . S
O332 Fe330 1.918 . S
O332 Fe331 1.918 . S
O332 Fe333 1.918 . S
Fe333 O332 1.918 . S
Fe333 O334 2.002 . S
Fe333 O343 1.976 . S
Fe333 O347 1.996 . S
Fe333 O350 1.997 . S
O334 Fe333 2.002 . S
O334 C351 1.295 . S
O335 Fe330 1.997 . S
O335 C351 1.235 . S
O336 Fe330 2.002 . S
O336 C337 1.295 . S
C337 O336 1.295 . S
C337 O339 1.235 . S
C338 O343 1.287 . S
C338 O344 1.255 . S
O339 Fe331 1.997 . S
O339 C337 1.235 . S
C340 O346 1.287 . S
C340 O347 1.255 . S
O341 Fe330 1.976 . S
O341 C348 1.287 . S
O342 Fe331 1.996 . S
O342 C348 1.255 . S
O343 Fe333 1.976 . S
O343 C338 1.287 . S
O344 Fe330 1.996 . S
O344 C338 1.255 . S
C345 O349 1.295 . S
C345 O350 1.235 . S
O346 Fe331 1.976 . S
O346 C340 1.287 . S
O347 Fe333 1.996 . S
O347 C340 1.255 . S
C348 O341 1.287 . S
C348 O342 1.255 . S
O349 Fe331 2.002 . S
O349 C345 1.295 . S
O350 Fe333 1.997 . S
O350 C345 1.235 . S
C351 O334 1.295 . S
C351 O335 1.235 . S
Fe352 O354 1.918 . S
Fe352 O357 1.997 . S
Fe352 O358 2.002 . S
Fe352 O363 1.976 . S
Fe352 O366 1.996 . S
Fe353 O354 1.918 . S
Fe353 O361 1.997 . S
Fe353 O364 1.996 . S
Fe353 O368 1.976 . S
Fe353 O371 2.002 . S
O354 Fe352 1.918 . S
O354 Fe353 1.918 . S
O354 Fe355 1.918 . S
Fe355 O354 1.918 . S
Fe355 O356 2.002 . S
Fe355 O365 1.976 . S
Fe355 O369 1.996 . S
Fe355 O372 1.997 . S
O356 Fe355 2.002 . S
O356 C373 1.295 . S
O357 Fe352 1.997 . S
O357 C373 1.235 . S
O358 Fe352 2.002 . S
O358 C359 1.295 . S
C359 O358 1.295 . S
C359 O361 1.235 . S
C360 O365 1.287 . S
C360 O366 1.255 . S
O361 Fe353 1.997 . S
O361 C359 1.235 . S
C362 O368 1.287 . S
C362 O369 1.255 . S
O363 Fe352 1.976 . S
O363 C370 1.287 . S
O364 Fe353 1.996 . S
O364 C370 1.255 . S
O365 Fe355 1.976 . S
O365 C360 1.287 . S
O366 Fe352 1.996 . S
O366 C360 1.255 . S
C367 O371 1.295 . S
C367 O372 1.235 . S
O368 Fe353 1.976 . S
O368 C362 1.287 . S
O369 Fe355 1.996 . S
O369 C362 1.255 . S
C370 O363 1.287 . S
C370 O364 1.255 . S
O371 Fe353 2.002 . S
O371 C367 1.295 . S
O372 Fe355 1.997 . S
O372 C367 1.235 . S
C373 O356 1.295 . S
C373 O357 1.235 . S
Fe374 O376 1.918 . S
Fe374 O379 1.997 . S
Fe374 O380 2.002 . S
Fe374 O385 1.976 . S
Fe374 O388 1.996 . S
Fe375 O376 1.918 . S
Fe375 O383 1.997 . S
Fe375 O386 1.996 . S
Fe375 O390 1.976 . S
Fe375 O393 2.002 . S
O376 Fe374 1.918 . S
O376 Fe375 1.918 . S
O376 Fe377 1.918 . S
Fe377 O376 1.918 . S
Fe377 O378 2.002 . S
Fe377 O387 1.976 . S
Fe377 O391 1.996 . S
Fe377 O394 1.997 . S
O378 Fe377 2.002 . S
O378 C395 1.295 . S
O379 Fe374 1.997 . S
O379 C395 1.235 . S
O380 Fe374 2.002 . S
O380 C381 1.295 . S
C381 O380 1.295 . S
C381 O383 1.235 . S
C382 O387 1.287 . S
C382 O388 1.255 . S
O383 Fe375 1.997 . S
O383 C381 1.235 . S
C384 O390 1.287 . S
C384 O391 1.255 . S
O385 Fe374 1.976 . S
O385 C392 1.287 . S
O386 Fe375 1.996 . S
O386 C392 1.255 . S
O387 Fe377 1.976 . S
O387 C382 1.287 . S
O388 Fe374 1.996 . S
O388 C382 1.255 . S
C389 O393 1.295 . S
C389 O394 1.235 . S
O390 Fe375 1.976 . S
O390 C384 1.287 . S
O391 Fe377 1.996 . S
O391 C384 1.255 . S
C392 O385 1.287 . S
C392 O386 1.255 . S
O393 Fe375 2.002 . S
O393 C389 1.295 . S
O394 Fe377 1.997 . S
O394 C389 1.235 . S
C395 O378 1.295 . S
C395 O379 1.235 . S
Fe396 O398 1.918 . S
Fe396 O401 1.997 . S
Fe396 O402 2.002 . S
Fe396 O407 1.976 . S
Fe396 O410 1.996 . S
Fe397 O398 1.918 . S
Fe397 O405 1.997 . S
Fe397 O408 1.996 . S
Fe397 O412 1.976 . S
Fe397 O415 2.002 . S
O398 Fe396 1.918 . S
O398 Fe397 1.918 . S
O398 Fe399 1.918 . S
Fe399 O398 1.918 . S
Fe399 O400 2.002 . S
Fe399 O409 1.976 . S
Fe399 O413 1.996 . S
Fe399 O416 1.997 . S
O400 Fe399 2.002 . S
O400 C417 1.295 . S
O401 Fe396 1.997 . S
O401 C417 1.235 . S
O402 Fe396 2.002 . S
O402 C403 1.295 . S
C403 O402 1.295 . S
C403 O405 1.235 . S
C404 O409 1.287 . S
C404 O410 1.255 . S
O405 Fe397 1.997 . S
O405 C403 1.235 . S
C406 O412 1.287 . S
C406 O413 1.255 . S
O407 Fe396 1.976 . S
O407 C414 1.287 . S
O408 Fe397 1.996 . S
O408 C414 1.255 . S
O409 Fe399 1.976 . S
O409 C404 1.287 . S
O410 Fe396 1.996 . S
O410 C404 1.255 . S
C411 O415 1.295 . S
C411 O416 1.235 . S
O412 Fe397 1.976 . S
O412 C406 1.287 . S
O413 Fe399 1.996 . S
O413 C406 1.255 . S
C414 O407 1.287 . S
C414 O408 1.255 . S
O415 Fe397 2.002 . S
O415 C411 1.295 . S
O416 Fe399 1.997 . S
O416 C411 1.235 . S
C417 O400 1.295 . S
C417 O401 1.235 . S
Fe418 O420 1.918 . S
Fe418 O423 1.997 . S
Fe418 O424 2.002 . S
Fe418 O429 1.976 . S
Fe418 O432 1.996 . S
Fe419 O420 1.918 . S
Fe419 O427 1.997 . S
Fe419 O430 1.996 . S
Fe419 O434 1.976 . S
Fe419 O437 2.002 . S
O420 Fe418 1.918 . S
O420 Fe419 1.918 . S
O420 Fe421 1.918 . S
Fe421 O420 1.918 . S
Fe421 O422 2.002 . S
Fe421 O431 1.976 . S
Fe421 O435 1.996 . S
Fe421 O438 1.997 . S
O422 Fe421 2.002 . S
O422 C439 1.295 . S
O423 Fe418 1.997 . S
O423 C439 1.235 . S
O424 Fe418 2.002 . S
O424 C425 1.295 . S
C425 O424 1.295 . S
C425 O427 1.235 . S
C426 O431 1.287 . S
C426 O432 1.255 . S
O427 Fe419 1.997 . S
O427 C425 1.235 . S
C428 O434 1.287 . S
C428 O435 1.255 . S
O429 Fe418 1.976 . S
O429 C436 1.287 . S
O430 Fe419 1.996 . S
O430 C436 1.255 . S
O431 Fe421 1.976 . S
O431 C426 1.287 . S
O432 Fe418 1.996 . S
O432 C426 1.255 . S
C433 O437 1.295 . S
C433 O438 1.235 . S
O434 Fe419 1.976 . S
O434 C428 1.287 . S
O435 Fe421 1.996 . S
O435 C428 1.255 . S
C436 O429 1.287 . S
C436 O430 1.255 . S
O437 Fe419 2.002 . S
O437 C433 1.295 . S
O438 Fe421 1.997 . S
O438 C433 1.235 . S
C439 O422 1.295 . S
C439 O423 1.235 . S
Fe440 O442 1.918 . S
Fe440 O445 1.997 . S
Fe440 O446 2.002 . S
Fe440 O451 1.976 . S
Fe440 O454 1.996 . S
Fe441 O442 1.918 . S
Fe441 O449 1.997 . S
Fe441 O452 1.996 . S
Fe441 O456 1.976 . S
Fe441 O459 2.002 . S
O442 Fe440 1.918 . S
O442 Fe441 1.918 . S
O442 Fe443 1.918 . S
Fe443 O442 1.918 . S
Fe443 O444 2.002 . S
Fe443 O453 1.976 . S
Fe443 O457 1.996 . S
Fe443 O460 1.997 . S
O444 Fe443 2.002 . S
O444 C461 1.295 . S
O445 Fe440 1.997 . S
O445 C461 1.235 . S
O446 Fe440 2.002 . S
O446 C447 1.295 . S
C447 O446 1.295 . S
C447 O449 1.235 . S
C448 O453 1.287 . S
C448 O454 1.255 . S
O449 Fe441 1.997 . S
O449 C447 1.235 . S
C450 O456 1.287 . S
C450 O457 1.255 . S
O451 Fe440 1.976 . S
O451 C458 1.287 . S
O452 Fe441 1.996 . S
O452 C458 1.255 . S
O453 Fe443 1.976 . S
O453 C448 1.287 . S
O454 Fe440 1.996 . S
O454 C448 1.255 . S
C455 O459 1.295 . S
C455 O460 1.235 . S
O456 Fe441 1.976 . S
O456 C450 1.287 . S
O457 Fe443 1.996 . S
O457 C450 1.255 . S
C458 O451 1.287 . S
C458 O452 1.255 . S
O459 Fe441 2.002 . S
O459 C455 1.295 . S
O460 Fe443 1.997 . S
O460 C455 1.235 . S
C461 O444 1.295 . S
C461 O445 1.235 . S
Fe462 O464 1.918 . S
Fe462 O467 1.997 . S
Fe462 O468 2.002 . S
Fe462 O473 1.976 . S
Fe462 O476 1.996 . S
Fe463 O464 1.918 . S
Fe463 O471 1.997 . S
Fe463 O474 1.996 . S
Fe463 O478 1.976 . S
Fe463 O481 2.002 . S
O464 Fe462 1.918 . S
O464 Fe463 1.918 . S
O464 Fe465 1.918 . S
Fe465 O464 1.918 . S
Fe465 O466 2.002 . S
Fe465 O475 1.976 . S
Fe465 O479 1.996 . S
Fe465 O482 1.997 . S
O466 Fe465 2.002 . S
O466 C483 1.295 . S
O467 Fe462 1.997 . S
O467 C483 1.235 . S
O468 Fe462 2.002 . S
O468 C469 1.295 . S
C469 O468 1.295 . S
C469 O471 1.235 . S
C470 O475 1.287 . S
C470 O476 1.255 . S
O471 Fe463 1.997 . S
O471 C469 1.235 . S
C472 O478 1.287 . S
C472 O479 1.255 . S
O473 Fe462 1.976 . S
O473 C480 1.287 . S
O474 Fe463 1.996 . S
O474 C480 1.255 . S
O475 Fe465 1.976 . S
O475 C470 1.287 . S
O476 Fe462 1.996 . S
O476 C470 1.255 . S
C477 O481 1.295 . S
C477 O482 1.235 . S
O478 Fe463 1.976 . S
O478 C472 1.287 . S
O479 Fe465 1.996 . S
O479 C472 1.255 . S
C480 O473 1.287 . S
C480 O474 1.255 . S
O481 Fe463 2.002 . S
O481 C477 1.295 . S
O482 Fe465 1.997 . S
O482 C477 1.235 . S
C483 O466 1.295 . S
C483 O467 1.235 . S
Fe484 O486 1.918 . S
Fe484 O489 1.997 . S
Fe484 O490 2.002 . S
Fe484 O495 1.976 . S
Fe484 O498 1.996 . S
Fe485 O486 1.918 . S
Fe485 O493 1.997 . S
Fe485 O496 1.996 . S
Fe485 O500 1.976 . S
Fe485 O503 2.002 . S
O486 Fe484 1.918 . S
O486 Fe485 1.918 . S
O486 Fe487 1.918 . S
Fe487 O486 1.918 . S
Fe487 O488 2.002 . S
Fe487 O497 1.976 . S
Fe487 O501 1.996 . S
Fe487 O504 1.997 . S
O488 Fe487 2.002 . S
O488 C505 1.295 . S
O489 Fe484 1.997 . S
O489 C505 1.235 . S
O490 Fe484 2.002 . S
O490 C491 1.295 . S
C491 O490 1.295 . S
C491 O493 1.235 . S
C492 O497 1.287 . S
C492 O498 1.255 . S
O493 Fe485 1.997 . S
O493 C491 1.235 . S
C494 O500 1.287 . S
C494 O501 1.255 . S
O495 Fe484 1.976 . S
O495 C502 1.287 . S
O496 Fe485 1.996 . S
O496 C502 1.255 . S
O497 Fe487 1.976 . S
O497 C492 1.287 . S
O498 Fe484 1.996 . S
O498 C492 1.255 . S
C499 O503 1.295 . S
C499 O504 1.235 . S
O500 Fe485 1.976 . S
O500 C494 1.287 . S
O501 Fe487 1.996 . S
O501 C494 1.255 . S
C502 O495 1.287 . S
C502 O496 1.255 . S
O503 Fe485 2.002 . S
O503 C499 1.295 . S
O504 Fe487 1.997 . S
O504 C499 1.235 . S
C505 O488 1.295 . S
C505 O489 1.235 . S
Fe506 O508 1.918 . S
Fe506 O511 1.997 . S
Fe506 O512 2.002 . S
Fe506 O517 1.976 . S
Fe506 O520 1.996 . S
Fe507 O508 1.918 . S
Fe507 O515 1.997 . S
Fe507 O518 1.996 . S
Fe507 O522 1.976 . S
Fe507 O525 2.002 . S
O508 Fe506 1.918 . S
O508 Fe507 1.918 . S
O508 Fe509 1.918 . S
Fe509 O508 1.918 . S
Fe509 O510 2.002 . S
Fe509 O519 1.976 . S
Fe509 O523 1.996 . S
Fe509 O526 1.997 . S
O510 Fe509 2.002 . S
O510 C527 1.295 . S
O511 Fe506 1.997 . S
O511 C527 1.235 . S
O512 Fe506 2.002 . S
O512 C513 1.295 . S
C513 O512 1.295 . S
C513 O515 1.235 . S
C514 O519 1.287 . S
C514 O520 1.255 . S
O515 Fe507 1.997 . S
O515 C513 1.235 . S
C516 O522 1.287 . S
C516 O523 1.255 . S
O517 Fe506 1.976 . S
O517 C524 1.287 . S
O518 Fe507 1.996 . S
O518 C524 1.255 . S
O519 Fe509 1.976 . S
O519 C514 1.287 . S
O520 Fe506 1.996 . S
O520 C514 1.255 . S
C521 O525 1.295 . S
C521 O526 1.235 . S
O522 Fe507 1.976 . S
O522 C516 1.287 . S
O523 Fe509 1.996 . S
O523 C516 1.255 . S
C524 O517 1.287 . S
C524 O518 1.255 . S
O525 Fe507 2.002 . S
O525 C521 1.295 . S
O526 Fe509 1.997 . S
O526 C521 1.235 . S
C527 O510 1.295 . S
C527 O511 1.235 . S
Fe528 O530 1.918 . S
Fe528 O533 1.997 . S
Fe528 O534 2.002 . S
Fe528 O539 1.976 . S
Fe528 O542 1.996 . S
Fe529 O530 1.918 . S
Fe529 O537 1.997 . S
Fe529 O540 1.996 . S
Fe529 O544 1.976 . S
Fe529 O547 2.002 . S
O530 Fe528 1.918 . S
O530 Fe529 1.918 . S
O530 Fe531 1.918 . S
Fe531 O530 1.918 . S
Fe531 O532 2.002 . S
Fe531 O541 1.976 . S
Fe531 O545 1.996 . S
Fe531 O548 1.997 . S
O532 Fe531 2.002 . S
O532 C549 1.295 . S
O533 Fe528 1.997 . S
O533 C549 1.235 . S
O534 Fe528 2.002 . S
O534 C535 1.295 . S
C535 O534 1.295 . S
C535 O537 1.235 . S
C536 O541 1.287 . S
C536 O542 1.255 . S
O537 Fe529 1.997 . S
O537 C535 1.235 . S
C538 O544 1.287 . S
C538 O545 1.255 . S
O539 Fe528 1.976 . S
O539 C546 1.287 . S
O540 Fe529 1.996 . S
O540 C546 1.255 . S
O541 Fe531 1.976 . S
O541 C536 1.287 . S
O542 Fe528 1.996 . S
O542 C536 1.255 . S
C543 O547 1.295 . S
C543 O548 1.235 . S
O544 Fe529 1.976 . S
O544 C538 1.287 . S
O545 Fe531 1.996 . S
O545 C538 1.255 . S
C546 O539 1.287 . S
C546 O540 1.255 . S
O547 Fe529 2.002 . S
O547 C543 1.295 . S
O548 Fe531 1.997 . S
O548 C543 1.235 . S
C549 O532 1.295 . S
C549 O533 1.235 . S
Fe550 O552 1.918 . S
Fe550 O555 1.997 . S
Fe550 O556 2.002 . S
Fe550 O561 1.976 . S
Fe550 O564 1.996 . S
Fe551 O552 1.918 . S
Fe551 O559 1.997 . S
Fe551 O562 1.996 . S
Fe551 O566 1.976 . S
Fe551 O569 2.002 . S
O552 Fe550 1.918 . S
O552 Fe551 1.918 . S
O552 Fe553 1.918 . S
Fe553 O552 1.918 . S
Fe553 O554 2.002 . S
Fe553 O563 1.976 . S
Fe553 O567 1.996 . S
Fe553 O570 1.997 . S
O554 Fe553 2.002 . S
O554 C571 1.295 . S
O555 Fe550 1.997 . S
O555 C571 1.235 . S
O556 Fe550 2.002 . S
O556 C557 1.295 . S
C557 O556 1.295 . S
C557 O559 1.235 . S
C558 O563 1.287 . S
C558 O564 1.255 . S
O559 Fe551 1.997 . S
O559 C557 1.235 . S
C560 O566 1.287 . S
C560 O567 1.255 . S
O561 Fe550 1.976 . S
O561 C568 1.287 . S
O562 Fe551 1.996 . S
O562 C568 1.255 . S
O563 Fe553 1.976 . S
O563 C558 1.287 . S
O564 Fe550 1.996 . S
O564 C558 1.255 . S
C565 O569 1.295 . S
C565 O570 1.235 . S
O566 Fe551 1.976 . S
O566 C560 1.287 . S
O567 Fe553 1.996 . S
O567 C560 1.255 . S
C568 O561 1.287 . S
C568 O562 1.255 . S
O569 Fe551 2.002 . S
O569 C565 1.295 . S
O570 Fe553 1.997 . S
O570 C565 1.235 . S
C571 O554 1.295 . S
C571 O555 1.235 . S
Fe572 O574 1.918 . S
Fe572 O577 1.997 . S
Fe572 O578 2.002 . S
Fe572 O583 1.976 . S
Fe572 O586 1.996 . S
Fe573 O574 1.918 . S
Fe573 O581 1.997 . S
Fe573 O584 1.996 . S
Fe573 O588 1.976 . S
Fe573 O591 2.002 . S
O574 Fe572 1.918 . S
O574 Fe573 1.918 . S
O574 Fe575 1.918 . S
Fe575 O574 1.918 . S
Fe575 O576 2.002 . S
Fe575 O585 1.976 . S
Fe575 O589 1.996 . S
Fe575 O592 1.997 . S
O576 Fe575 2.002 . S
O576 C593 1.295 . S
O577 Fe572 1.997 . S
O577 C593 1.235 . S
O578 Fe572 2.002 . S
O578 C579 1.295 . S
C579 O578 1.295 . S
C579 O581 1.235 . S
C580 O585 1.287 . S
C580 O586 1.255 . S
O581 Fe573 1.997 . S
O581 C579 1.235 . S
C582 O588 1.287 . S
C582 O589 1.255 . S
O583 Fe572 1.976 . S
O583 C590 1.287 . S
O584 Fe573 1.996 . S
O584 C590 1.255 . S
O585 Fe575 1.976 . S
O585 C580 1.287 . S
O586 Fe572 1.996 . S
O586 C580 1.255 . S
C587 O591 1.295 . S
C587 O592 1.235 . S
O588 Fe573 1.976 . S
O588 C582 1.287 . S
O589 Fe575 1.996 . S
O589 C582 1.255 . S
C590 O583 1.287 . S
C590 O584 1.255 . S
O591 Fe573 2.002 . S
O591 C587 1.295 . S
O592 Fe575 1.997 . S
O592 C587 1.235 . S
C593 O576 1.295 . S
C593 O577 1.235 . S
Fe594 O596 1.918 . S
Fe594 O599 1.997 . S
Fe594 O600 2.002 . S
Fe594 O605 1.976 . S
Fe594 O608 1.996 . S
Fe595 O596 1.918 . S
Fe595 O603 1.997 . S
Fe595 O606 1.996 . S
Fe595 O610 1.976 . S
Fe595 O613 2.002 . S
O596 Fe594 1.918 . S
O596 Fe595 1.918 . S
O596 Fe597 1.918 . S
Fe597 O596 1.918 . S
Fe597 O598 2.002 . S
Fe597 O607 1.976 . S
Fe597 O611 1.996 . S
Fe597 O614 1.997 . S
O598 Fe597 2.002 . S
O598 C615 1.295 . S
O599 Fe594 1.997 . S
O599 C615 1.235 . S
O600 Fe594 2.002 . S
O600 C601 1.295 . S
C601 O600 1.295 . S
C601 O603 1.235 . S
C602 O607 1.287 . S
C602 O608 1.255 . S
O603 Fe595 1.997 . S
O603 C601 1.235 . S
C604 O610 1.287 . S
C604 O611 1.255 . S
O605 Fe594 1.976 . S
O605 C612 1.287 . S
O606 Fe595 1.996 . S
O606 C612 1.255 . S
O607 Fe597 1.976 . S
O607 C602 1.287 . S
O608 Fe594 1.996 . S
O608 C602 1.255 . S
C609 O613 1.295 . S
C609 O614 1.235 . S
O610 Fe595 1.976 . S
O610 C604 1.287 . S
O611 Fe597 1.996 . S
O611 C604 1.255 . S
C612 O605 1.287 . S
C612 O606 1.255 . S
O613 Fe595 2.002 . S
O613 C609 1.295 . S
O614 Fe597 1.997 . S
O614 C609 1.235 . S
C615 O598 1.295 . S
C615 O599 1.235 . S
Fe616 O618 1.918 . S
Fe616 O621 1.997 . S
Fe616 O622 2.002 . S
Fe616 O627 1.976 . S
Fe616 O630 1.996 . S
Fe617 O618 1.918 . S
Fe617 O625 1.997 . S
Fe617 O628 1.996 . S
Fe617 O632 1.976 . S
Fe617 O635 2.002 . S
O618 Fe616 1.918 . S
O618 Fe617 1.918 . S
O618 Fe619 1.918 . S
Fe619 O618 1.918 . S
Fe619 O620 2.002 . S
Fe619 O629 1.976 . S
Fe619 O633 1.996 . S
Fe619 O636 1.997 . S
O620 Fe619 2.002 . S
O620 C637 1.295 . S
O621 Fe616 1.997 . S
O621 C637 1.235 . S
O622 Fe616 2.002 . S
O622 C623 1.295 . S
C623 O622 1.295 . S
C623 O625 1.235 . S
C624 O629 1.287 . S
C624 O630 1.255 . S
O625 Fe617 1.997 . S
O625 C623 1.235 . S
C626 O632 1.287 . S
C626 O633 1.255 . S
O627 Fe616 1.976 . S
O627 C634 1.287 . S
O628 Fe617 1.996 . S
O628 C634 1.255 . S
O629 Fe619 1.976 . S
O629 C624 1.287 . S
O630 Fe616 1.996 . S
O630 C624 1.255 . S
C631 O635 1.295 . S
C631 O636 1.235 . S
O632 Fe617 1.976 . S
O632 C626 1.287 . S
O633 Fe619 1.996 . S
O633 C626 1.255 . S
C634 O627 1.287 . S
C634 O628 1.255 . S
O635 Fe617 2.002 . S
O635 C631 1.295 . S
O636 Fe619 1.997 . S
O636 C631 1.235 . S
C637 O620 1.295 . S
C637 O621 1.235 . S
Fe638 O640 1.918 . S
Fe638 O643 1.997 . S
Fe638 O644 2.002 . S
Fe638 O649 1.976 . S
Fe638 O652 1.996 . S
Fe639 O640 1.918 . S
Fe639 O647 1.997 . S
Fe639 O650 1.996 . S
Fe639 O654 1.976 . S
Fe639 O657 2.002 . S
O640 Fe638 1.918 . S
O640 Fe639 1.918 . S
O640 Fe641 1.918 . S
Fe641 O640 1.918 . S
Fe641 O642 2.002 . S
Fe641 O651 1.976 . S
Fe641 O655 1.996 . S
Fe641 O658 1.997 . S
O642 Fe641 2.002 . S
O642 C659 1.295 . S
O643 Fe638 1.997 . S
O643 C659 1.235 . S
O644 Fe638 2.002 . S
O644 C645 1.295 . S
C645 O644 1.295 . S
C645 O647 1.235 . S
C646 O651 1.287 . S
C646 O652 1.255 . S
O647 Fe639 1.997 . S
O647 C645 1.235 . S
C648 O654 1.287 . S
C648 O655 1.255 . S
O649 Fe638 1.976 . S
O649 C656 1.287 . S
O650 Fe639 1.996 . S
O650 C656 1.255 . S
O651 Fe641 1.976 . S
O651 C646 1.287 . S
O652 Fe638 1.996 . S
O652 C646 1.255 . S
C653 O657 1.295 . S
C653 O658 1.235 . S
O654 Fe639 1.976 . S
O654 C648 1.287 . S
O655 Fe641 1.996 . S
O655 C648 1.255 . S
C656 O649 1.287 . S
C656 O650 1.255 . S
O657 Fe639 2.002 . S
O657 C653 1.295 . S
O658 Fe641 1.997 . S
O658 C653 1.235 . S
C659 O642 1.295 . S
C659 O643 1.235 . S
Fe660 O662 1.918 . S
Fe660 O665 1.997 . S
Fe660 O666 2.002 . S
Fe660 O671 1.976 . S
Fe660 O674 1.996 . S
Fe661 O662 1.918 . S
Fe661 O669 1.997 . S
Fe661 O672 1.996 . S
Fe661 O676 1.976 . S
Fe661 O679 2.002 . S
O662 Fe660 1.918 . S
O662 Fe661 1.918 . S
O662 Fe663 1.918 . S
Fe663 O662 1.918 . S
Fe663 O664 2.002 . S
Fe663 O673 1.976 . S
Fe663 O677 1.996 . S
Fe663 O680 1.997 . S
O664 Fe663 2.002 . S
O664 C681 1.295 . S
O665 Fe660 1.997 . S
O665 C681 1.235 . S
O666 Fe660 2.002 . S
O666 C667 1.295 . S
C667 O666 1.295 . S
C667 O669 1.235 . S
C668 O673 1.287 . S
C668 O674 1.255 . S
O669 Fe661 1.997 . S
O669 C667 1.235 . S
C670 O676 1.287 . S
C670 O677 1.255 . S
O671 Fe660 1.976 . S
O671 C678 1.287 . S
O672 Fe661 1.996 . S
O672 C678 1.255 . S
O673 Fe663 1.976 . S
O673 C668 1.287 . S
O674 Fe660 1.996 . S
O674 C668 1.255 . S
C675 O679 1.295 . S
C675 O680 1.235 . S
O676 Fe661 1.976 . S
O676 C670 1.287 . S
O677 Fe663 1.996 . S
O677 C670 1.255 . S
C678 O671 1.287 . S
C678 O672 1.255 . S
O679 Fe661 2.002 . S
O679 C675 1.295 . S
O680 Fe663 1.997 . S
O680 C675 1.235 . S
C681 O664 1.295 . S
C681 O665 1.235 . S
Fe682 O684 1.918 . S
Fe682 O687 1.997 . S
Fe682 O688 2.002 . S
Fe682 O693 1.976 . S
Fe682 O696 1.996 . S
Fe683 O684 1.918 . S
Fe683 O691 1.997 . S
Fe683 O694 1.996 . S
Fe683 O698 1.976 . S
Fe683 O701 2.002 . S
O684 Fe682 1.918 . S
O684 Fe683 1.918 . S
O684 Fe685 1.918 . S
Fe685 O684 1.918 . S
Fe685 O686 2.002 . S
Fe685 O695 1.976 . S
Fe685 O699 1.996 . S
Fe685 O702 1.997 . S
O686 Fe685 2.002 . S
O686 C703 1.295 . S
O687 Fe682 1.997 . S
O687 C703 1.235 . S
O688 Fe682 2.002 . S
O688 C689 1.295 . S
C689 O688 1.295 . S
C689 O691 1.235 . S
C690 O695 1.287 . S
C690 O696 1.255 . S
O691 Fe683 1.997 . S
O691 C689 1.235 . S
C692 O698 1.287 . S
C692 O699 1.255 . S
O693 Fe682 1.976 . S
O693 C700 1.287 . S
O694 Fe683 1.996 . S
O694 C700 1.255 . S
O695 Fe685 1.976 . S
O695 C690 1.287 . S
O696 Fe682 1.996 . S
O696 C690 1.255 . S
C697 O701 1.295 . S
C697 O702 1.235 . S
O698 Fe683 1.976 . S
O698 C692 1.287 . S
O699 Fe685 1.996 . S
O699 C692 1.255 . S
C700 O693 1.287 . S
C700 O694 1.255 . S
O701 Fe683 2.002 . S
O701 C697 1.295 . S
O702 Fe685 1.997 . S
O702 C697 1.235 . S
C703 O686 1.295 . S
C703 O687 1.235 . S
H704 C712 0.929 . S
H705 C714 0.930 . S
H706 C716 0.930 . S
H707 C719 0.929 . S
H708 C722 0.930 . S
H709 C724 0.960 . S
H710 C724 0.960 . S
H711 C724 0.960 . S
C712 H704 0.929 . S
C712 C713 1.377 . S
C712 C714 1.384 . S
C713 C712 1.377 . S
C713 C719 1.390 . S
C714 H705 0.930 . S
C714 C712 1.384 . S
C714 C715 1.372 . S
C715 C714 1.372 . S
C715 C716 1.400 . S
C715 C720 1.490 . S
C716 H706 0.930 . S
C716 C715 1.400 . S
C716 C719 1.386 . S
H717 C733 0.930 . S
H718 C734 0.931 . S
C719 H707 0.929 . S
C719 C713 1.390 . S
C719 C716 1.386 . S
C720 C715 1.490 . S
C720 C722 1.395 . S
C720 C723 1.403 . S
H721 C727 0.930 . S
C722 H708 0.930 . S
C722 C720 1.395 . S
C722 C725 1.403 . S
C723 C720 1.403 . S
C723 C724 1.524 . S
C723 C727 1.400 . S
C724 H709 0.960 . S
C724 H710 0.960 . S
C724 H711 0.960 . S
C724 C723 1.524 . S
C725 C722 1.403 . S
C725 C726 1.392 . S
C725 C729 1.495 . S
C726 C725 1.392 . S
C726 C727 1.385 . S
C726 C728 1.478 . S
C727 H721 0.930 . S
C727 C723 1.400 . S
C727 C726 1.385 . S
C728 C726 1.478 . S
C728 C730 1.381 . S
C728 C734 1.383 . S
C729 C725 1.495 . S
C729 H735 0.959 . S
C729 H736 0.961 . S
C729 H737 0.960 . S
C730 C728 1.381 . S
C730 C731 1.394 . S
C730 H738 0.930 . S
C731 C730 1.394 . S
C731 C732 1.383 . S
C731 H739 0.929 . S
C732 C731 1.383 . S
C732 C733 1.377 . S
C733 H717 0.930 . S
C733 C732 1.377 . S
C733 C734 1.379 . S
C734 H718 0.931 . S
C734 C728 1.383 . S
C734 C733 1.379 . S
H735 C729 0.959 . S
H736 C729 0.961 . S
H737 C729 0.960 . S
H738 C730 0.930 . S
H739 C731 0.929 . S
H740 C748 0.929 . S
H741 C750 0.930 . S
H742 C752 0.930 . S
H743 C755 0.929 . S
H744 C758 0.930 . S
H745 C760 0.960 . S
H746 C760 0.960 . S
H747 C760 0.960 . S
C748 H740 0.929 . S
C748 C749 1.377 . S
C748 C750 1.384 . S
C749 C748 1.377 . S
C749 C755 1.390 . S
C750 H741 0.930 . S
C750 C748 1.384 . S
C750 C751 1.372 . S
C751 C750 1.372 . S
C751 C752 1.400 . S
C751 C756 1.490 . S
C752 H742 0.930 . S
C752 C751 1.400 . S
C752 C755 1.386 . S
H753 C769 0.930 . S
H754 C770 0.931 . S
C755 H743 0.929 . S
C755 C749 1.390 . S
C755 C752 1.386 . S
C756 C751 1.490 . S
C756 C758 1.395 . S
C756 C759 1.403 . S
H757 C763 0.930 . S
C758 H744 0.930 . S
C758 C756 1.395 . S
C758 C761 1.403 . S
C759 C756 1.403 . S
C759 C760 1.524 . S
C759 C763 1.400 . S
C760 H745 0.960 . S
C760 H746 0.960 . S
C760 H747 0.960 . S
C760 C759 1.524 . S
C761 C758 1.403 . S
C761 C762 1.392 . S
C761 C765 1.495 . S
C762 C761 1.392 . S
C762 C763 1.385 . S
C762 C764 1.478 . S
C763 H757 0.930 . S
C763 C759 1.400 . S
C763 C762 1.385 . S
C764 C762 1.478 . S
C764 C766 1.381 . S
C764 C770 1.383 . S
C765 C761 1.495 . S
C765 H771 0.959 . S
C765 H772 0.961 . S
C765 H773 0.960 . S
C766 C764 1.381 . S
C766 C767 1.394 . S
C766 H774 0.930 . S
C767 C766 1.394 . S
C767 C768 1.383 . S
C767 H775 0.929 . S
C768 C767 1.383 . S
C768 C769 1.377 . S
C769 H753 0.930 . S
C769 C768 1.377 . S
C769 C770 1.379 . S
C770 H754 0.931 . S
C770 C764 1.383 . S
C770 C769 1.379 . S
H771 C765 0.959 . S
H772 C765 0.961 . S
H773 C765 0.960 . S
H774 C766 0.930 . S
H775 C767 0.929 . S
H776 C784 0.929 . S
H777 C786 0.930 . S
H778 C788 0.930 . S
H779 C791 0.929 . S
H780 C794 0.930 . S
H781 C796 0.960 . S
H782 C796 0.960 . S
H783 C796 0.960 . S
C784 H776 0.929 . S
C784 C785 1.377 . S
C784 C786 1.384 . S
C785 C784 1.377 . S
C785 C791 1.390 . S
C786 H777 0.930 . S
C786 C784 1.384 . S
C786 C787 1.372 . S
C787 C786 1.372 . S
C787 C788 1.400 . S
C787 C792 1.490 . S
C788 H778 0.930 . S
C788 C787 1.400 . S
C788 C791 1.386 . S
H789 C805 0.930 . S
H790 C806 0.931 . S
C791 H779 0.929 . S
C791 C785 1.390 . S
C791 C788 1.386 . S
C792 C787 1.490 . S
C792 C794 1.395 . S
C792 C795 1.403 . S
H793 C799 0.930 . S
C794 H780 0.930 . S
C794 C792 1.395 . S
C794 C797 1.403 . S
C795 C792 1.403 . S
C795 C796 1.524 . S
C795 C799 1.400 . S
C796 H781 0.960 . S
C796 H782 0.960 . S
C796 H783 0.960 . S
C796 C795 1.524 . S
C797 C794 1.403 . S
C797 C798 1.392 . S
C797 C801 1.495 . S
C798 C797 1.392 . S
C798 C799 1.385 . S
C798 C800 1.478 . S
C799 H793 0.930 . S
C799 C795 1.400 . S
C799 C798 1.385 . S
C800 C798 1.478 . S
C800 C802 1.381 . S
C800 C806 1.383 . S
C801 C797 1.495 . S
C801 H807 0.959 . S
C801 H808 0.961 . S
C801 H809 0.960 . S
C802 C800 1.381 . S
C802 C803 1.394 . S
C802 H810 0.930 . S
C803 C802 1.394 . S
C803 C804 1.383 . S
C803 H811 0.929 . S
C804 C803 1.383 . S
C804 C805 1.377 . S
C805 H789 0.930 . S
C805 C804 1.377 . S
C805 C806 1.379 . S
C806 H790 0.931 . S
C806 C800 1.383 . S
C806 C805 1.379 . S
H807 C801 0.959 . S
H808 C801 0.961 . S
H809 C801 0.960 . S
H810 C802 0.930 . S
H811 C803 0.929 . S
H812 C820 0.929 . S
H813 C822 0.930 . S
H814 C824 0.930 . S
H815 C827 0.929 . S
H816 C830 0.930 . S
H817 C832 0.960 . S
H818 C832 0.960 . S
H819 C832 0.960 . S
C820 H812 0.929 . S
C820 C821 1.377 . S
C820 C822 1.384 . S
C821 C820 1.377 . S
C821 C827 1.390 . S
C822 H813 0.930 . S
C822 C820 1.384 . S
C822 C823 1.372 . S
C823 C822 1.372 . S
C823 C824 1.400 . S
C823 C828 1.490 . S
C824 H814 0.930 . S
C824 C823 1.400 . S
C824 C827 1.386 . S
H825 C841 0.930 . S
H826 C842 0.931 . S
C827 H815 0.929 . S
C827 C821 1.390 . S
C827 C824 1.386 . S
C828 C823 1.490 . S
C828 C830 1.395 . S
C828 C831 1.403 . S
H829 C835 0.930 . S
C830 H816 0.930 . S
C830 C828 1.395 . S
C830 C833 1.403 . S
C831 C828 1.403 . S
C831 C832 1.524 . S
C831 C835 1.400 . S
C832 H817 0.960 . S
C832 H818 0.960 . S
C832 H819 0.960 . S
C832 C831 1.524 . S
C833 C830 1.403 . S
C833 C834 1.392 . S
C833 C837 1.495 . S
C834 C833 1.392 . S
C834 C835 1.385 . S
C834 C836 1.478 . S
C835 H829 0.930 . S
C835 C831 1.400 . S
C835 C834 1.385 . S
C836 C834 1.478 . S
C836 C838 1.381 . S
C836 C842 1.383 . S
C837 C833 1.495 . S
C837 H843 0.959 . S
C837 H844 0.961 . S
C837 H845 0.960 . S
C838 C836 1.381 . S
C838 C839 1.394 . S
C838 H846 0.930 . S
C839 C838 1.394 . S
C839 C840 1.383 . S
C839 H847 0.929 . S
C840 C839 1.383 . S
C840 C841 1.377 . S
C841 H825 0.930 . S
C841 C840 1.377 . S
C841 C842 1.379 . S
C842 H826 0.931 . S
C842 C836 1.383 . S
C842 C841 1.379 . S
H843 C837 0.959 . S
H844 C837 0.961 . S
H845 C837 0.960 . S
H846 C838 0.930 . S
H847 C839 0.929 . S
H848 C856 0.929 . S
H849 C858 0.930 . S
H850 C860 0.930 . S
H851 C863 0.929 . S
H852 C866 0.930 . S
H853 C868 0.960 . S
H854 C868 0.960 . S
H855 C868 0.960 . S
C856 H848 0.929 . S
C856 C857 1.377 . S
C856 C858 1.384 . S
C857 C856 1.377 . S
C857 C863 1.390 . S
C858 H849 0.930 . S
C858 C856 1.384 . S
C858 C859 1.372 . S
C859 C858 1.372 . S
C859 C860 1.400 . S
C859 C864 1.490 . S
C860 H850 0.930 . S
C860 C859 1.400 . S
C860 C863 1.386 . S
H861 C877 0.930 . S
H862 C878 0.931 . S
C863 H851 0.929 . S
C863 C857 1.390 . S
C863 C860 1.386 . S
C864 C859 1.490 . S
C864 C866 1.395 . S
C864 C867 1.403 . S
H865 C871 0.930 . S
C866 H852 0.930 . S
C866 C864 1.395 . S
C866 C869 1.403 . S
C867 C864 1.403 . S
C867 C868 1.524 . S
C867 C871 1.400 . S
C868 H853 0.960 . S
C868 H854 0.960 . S
C868 H855 0.960 . S
C868 C867 1.524 . S
C869 C866 1.403 . S
C869 C870 1.392 . S
C869 C873 1.495 . S
C870 C869 1.392 . S
C870 C871 1.385 . S
C870 C872 1.478 . S
C871 H865 0.930 . S
C871 C867 1.400 . S
C871 C870 1.385 . S
C872 C870 1.478 . S
C872 C874 1.381 . S
C872 C878 1.383 . S
C873 C869 1.495 . S
C873 H879 0.959 . S
C873 H880 0.961 . S
C873 H881 0.960 . S
C874 C872 1.381 . S
C874 C875 1.394 . S
C874 H882 0.930 . S
C875 C874 1.394 . S
C875 C876 1.383 . S
C875 H883 0.929 . S
C876 C875 1.383 . S
C876 C877 1.377 . S
C877 H861 0.930 . S
C877 C876 1.377 . S
C877 C878 1.379 . S
C878 H862 0.931 . S
C878 C872 1.383 . S
C878 C877 1.379 . S
H879 C873 0.959 . S
H880 C873 0.961 . S
H881 C873 0.960 . S
H882 C874 0.930 . S
H883 C875 0.929 . S
H884 C892 0.929 . S
H885 C894 0.930 . S
H886 C896 0.930 . S
H887 C899 0.929 . S
H888 C902 0.930 . S
H889 C904 0.960 . S
H890 C904 0.960 . S
H891 C904 0.960 . S
C892 H884 0.929 . S
C892 C893 1.377 . S
C892 C894 1.384 . S
C893 C892 1.377 . S
C893 C899 1.390 . S
C894 H885 0.930 . S
C894 C892 1.384 . S
C894 C895 1.372 . S
C895 C894 1.372 . S
C895 C896 1.400 . S
C895 C900 1.490 . S
C896 H886 0.930 . S
C896 C895 1.400 . S
C896 C899 1.386 . S
H897 C913 0.930 . S
H898 C914 0.931 . S
C899 H887 0.929 . S
C899 C893 1.390 . S
C899 C896 1.386 . S
C900 C895 1.490 . S
C900 C902 1.395 . S
C900 C903 1.403 . S
H901 C907 0.930 . S
C902 H888 0.930 . S
C902 C900 1.395 . S
C902 C905 1.403 . S
C903 C900 1.403 . S
C903 C904 1.524 . S
C903 C907 1.400 . S
C904 H889 0.960 . S
C904 H890 0.960 . S
C904 H891 0.960 . S
C904 C903 1.524 . S
C905 C902 1.403 . S
C905 C906 1.392 . S
C905 C909 1.495 . S
C906 C905 1.392 . S
C906 C907 1.385 . S
C906 C908 1.478 . S
C907 H901 0.930 . S
C907 C903 1.400 . S
C907 C906 1.385 . S
C908 C906 1.478 . S
C908 C910 1.381 . S
C908 C914 1.383 . S
C909 C905 1.495 . S
C909 H915 0.959 . S
C909 H916 0.961 . S
C909 H917 0.960 . S
C910 C908 1.381 . S
C910 C911 1.394 . S
C910 H918 0.930 . S
C911 C910 1.394 . S
C911 C912 1.383 . S
C911 H919 0.929 . S
C912 C911 1.383 . S
C912 C913 1.377 . S
C913 H897 0.930 . S
C913 C912 1.377 . S
C913 C914 1.379 . S
C914 H898 0.931 . S
C914 C908 1.383 . S
C914 C913 1.379 . S
H915 C909 0.959 . S
H916 C909 0.961 . S
H917 C909 0.960 . S
H918 C910 0.930 . S
H919 C911 0.929 . S
H920 C928 0.929 . S
H921 C930 0.930 . S
H922 C932 0.930 . S
H923 C935 0.929 . S
H924 C938 0.930 . S
H925 C940 0.960 . S
H926 C940 0.960 . S
H927 C940 0.960 . S
C928 H920 0.929 . S
C928 C929 1.377 . S
C928 C930 1.384 . S
C929 C928 1.377 . S
C929 C935 1.390 . S
C930 H921 0.930 . S
C930 C928 1.384 . S
C930 C931 1.372 . S
C931 C930 1.372 . S
C931 C932 1.400 . S
C931 C936 1.490 . S
C932 H922 0.930 . S
C932 C931 1.400 . S
C932 C935 1.386 . S
H933 C949 0.930 . S
H934 C950 0.931 . S
C935 H923 0.929 . S
C935 C929 1.390 . S
C935 C932 1.386 . S
C936 C931 1.490 . S
C936 C938 1.395 . S
C936 C939 1.403 . S
H937 C943 0.930 . S
C938 H924 0.930 . S
C938 C936 1.395 . S
C938 C941 1.403 . S
C939 C936 1.403 . S
C939 C940 1.524 . S
C939 C943 1.400 . S
C940 H925 0.960 . S
C940 H926 0.960 . S
C940 H927 0.960 . S
C940 C939 1.524 . S
C941 C938 1.403 . S
C941 C942 1.392 . S
C941 C945 1.495 . S
C942 C941 1.392 . S
C942 C943 1.385 . S
C942 C944 1.478 . S
C943 H937 0.930 . S
C943 C939 1.400 . S
C943 C942 1.385 . S
C944 C942 1.478 . S
C944 C946 1.381 . S
C944 C950 1.383 . S
C945 C941 1.495 . S
C945 H951 0.959 . S
C945 H952 0.961 . S
C945 H953 0.960 . S
C946 C944 1.381 . S
C946 C947 1.394 . S
C946 H954 0.930 . S
C947 C946 1.394 . S
C947 C948 1.383 . S
C947 H955 0.929 . S
C948 C947 1.383 . S
C948 C949 1.377 . S
C949 H933 0.930 . S
C949 C948 1.377 . S
C949 C950 1.379 . S
C950 H934 0.931 . S
C950 C944 1.383 . S
C950 C949 1.379 . S
H951 C945 0.959 . S
H952 C945 0.961 . S
H953 C945 0.960 . S
H954 C946 0.930 . S
H955 C947 0.929 . S
H956 C964 0.929 . S
H957 C966 0.930 . S
H958 C968 0.930 . S
H959 C971 0.929 . S
H960 C974 0.930 . S
H961 C976 0.960 . S
H962 C976 0.960 . S
H963 C976 0.960 . S
C964 H956 0.929 . S
C964 C965 1.377 . S
C964 C966 1.384 . S
C965 C964 1.377 . S
C965 C971 1.390 . S
C966 H957 0.930 . S
C966 C964 1.384 . S
C966 C967 1.372 . S
C967 C966 1.372 . S
C967 C968 1.400 . S
C967 C972 1.490 . S
C968 H958 0.930 . S
C968 C967 1.400 . S
C968 C971 1.386 . S
H969 C985 0.930 . S
H970 C986 0.931 . S
C971 H959 0.929 . S
C971 C965 1.390 . S
C971 C968 1.386 . S
C972 C967 1.490 . S
C972 C974 1.395 . S
C972 C975 1.403 . S
H973 C979 0.930 . S
C974 H960 0.930 . S
C974 C972 1.395 . S
C974 C977 1.403 . S
C975 C972 1.403 . S
C975 C976 1.524 . S
C975 C979 1.400 . S
C976 H961 0.960 . S
C976 H962 0.960 . S
C976 H963 0.960 . S
C976 C975 1.524 . S
C977 C974 1.403 . S
C977 C978 1.392 . S
C977 C981 1.495 . S
C978 C977 1.392 . S
C978 C979 1.385 . S
C978 C980 1.478 . S
C979 H973 0.930 . S
C979 C975 1.400 . S
C979 C978 1.385 . S
C980 C978 1.478 . S
C980 C982 1.381 . S
C980 C986 1.383 . S
C981 C977 1.495 . S
C981 H987 0.959 . S
C981 H988 0.961 . S
C981 H989 0.960 . S
C982 C980 1.381 . S
C982 C983 1.394 . S
C982 H990 0.930 . S
C983 C982 1.394 . S
C983 C984 1.383 . S
C983 H991 0.929 . S
C984 C983 1.383 . S
C984 C985 1.377 . S
C985 H969 0.930 . S
C985 C984 1.377 . S
C985 C986 1.379 . S
C986 H970 0.931 . S
C986 C980 1.383 . S
C986 C985 1.379 . S
H987 C981 0.959 . S
H988 C981 0.961 . S
H989 C981 0.960 . S
H990 C982 0.930 . S
H991 C983 0.929 . S
H992 C1000 0.929 . S
H993 C1002 0.930 . S
H994 C1004 0.930 . S
H995 C1007 0.929 . S
H996 C1010 0.930 . S
H997 C1012 0.960 . S
H998 C1012 0.960 . S
H999 C1012 0.960 . S
C1000 H992 0.929 . S
C1000 C1001 1.377 . S
C1000 C1002 1.384 . S
C1001 C1000 1.377 . S
C1001 C1007 1.390 . S
C1002 H993 0.930 . S
C1002 C1000 1.384 . S
C1002 C1003 1.372 . S
C1003 C1002 1.372 . S
C1003 C1004 1.400 . S
C1003 C1008 1.490 . S
C1004 H994 0.930 . S
C1004 C1003 1.400 . S
C1004 C1007 1.386 . S
H1005 C1021 0.930 . S
H1006 C1022 0.931 . S
C1007 H995 0.929 . S
C1007 C1001 1.390 . S
C1007 C1004 1.386 . S
C1008 C1003 1.490 . S
C1008 C1010 1.395 . S
C1008 C1011 1.403 . S
H1009 C1015 0.930 . S
C1010 H996 0.930 . S
C1010 C1008 1.395 . S
C1010 C1013 1.403 . S
C1011 C1008 1.403 . S
C1011 C1012 1.524 . S
C1011 C1015 1.400 . S
C1012 H997 0.960 . S
C1012 H998 0.960 . S
C1012 H999 0.960 . S
C1012 C1011 1.524 . S
C1013 C1010 1.403 . S
C1013 C1014 1.392 . S
C1013 C1017 1.495 . S
C1014 C1013 1.392 . S
C1014 C1015 1.385 . S
C1014 C1016 1.478 . S
C1015 H1009 0.930 . S
C1015 C1011 1.400 . S
C1015 C1014 1.385 . S
C1016 C1014 1.478 . S
C1016 C1018 1.381 . S
C1016 C1022 1.383 . S
C1017 C1013 1.495 . S
C1017 H1023 0.959 . S
C1017 H1024 0.961 . S
C1017 H1025 0.960 . S
C1018 C1016 1.381 . S
C1018 C1019 1.394 . S
C1018 H1026 0.930 . S
C1019 C1018 1.394 . S
C1019 C1020 1.383 . S
C1019 H1027 0.929 . S
C1020 C1019 1.383 . S
C1020 C1021 1.377 . S
C1021 H1005 0.930 . S
C1021 C1020 1.377 . S
C1021 C1022 1.379 . S
C1022 H1006 0.931 . S
C1022 C1016 1.383 . S
C1022 C1021 1.379 . S
H1023 C1017 0.959 . S
H1024 C1017 0.961 . S
H1025 C1017 0.960 . S
H1026 C1018 0.930 . S
H1027 C1019 0.929 . S
H1028 C1036 0.929 . S
H1029 C1038 0.930 . S
H1030 C1040 0.930 . S
H1031 C1043 0.929 . S
H1032 C1046 0.930 . S
H1033 C1048 0.960 . S
H1034 C1048 0.960 . S
H1035 C1048 0.960 . S
C1036 H1028 0.929 . S
C1036 C1037 1.377 . S
C1036 C1038 1.384 . S
C1037 C1036 1.377 . S
C1037 C1043 1.390 . S
C1038 H1029 0.930 . S
C1038 C1036 1.384 . S
C1038 C1039 1.372 . S
C1039 C1038 1.372 . S
C1039 C1040 1.400 . S
C1039 C1044 1.490 . S
C1040 H1030 0.930 . S
C1040 C1039 1.400 . S
C1040 C1043 1.386 . S
H1041 C1057 0.930 . S
H1042 C1058 0.931 . S
C1043 H1031 0.929 . S
C1043 C1037 1.390 . S
C1043 C1040 1.386 . S
C1044 C1039 1.490 . S
C1044 C1046 1.395 . S
C1044 C1047 1.403 . S
H1045 C1051 0.930 . S
C1046 H1032 0.930 . S
C1046 C1044 1.395 . S
C1046 C1049 1.403 . S
C1047 C1044 1.403 . S
C1047 C1048 1.524 . S
C1047 C1051 1.400 . S
C1048 H1033 0.960 . S
C1048 H1034 0.960 . S
C1048 H1035 0.960 . S
C1048 C1047 1.524 . S
C1049 C1046 1.403 . S
C1049 C1050 1.392 . S
C1049 C1053 1.495 . S
C1050 C1049 1.392 . S
C1050 C1051 1.385 . S
C1050 C1052 1.478 . S
C1051 H1045 0.930 . S
C1051 C1047 1.400 . S
C1051 C1050 1.385 . S
C1052 C1050 1.478 . S
C1052 C1054 1.381 . S
C1052 C1058 1.383 . S
C1053 C1049 1.495 . S
C1053 H1059 0.959 . S
C1053 H1060 0.961 . S
C1053 H1061 0.960 . S
C1054 C1052 1.381 . S
C1054 C1055 1.394 . S
C1054 H1062 0.930 . S
C1055 C1054 1.394 . S
C1055 C1056 1.383 . S
C1055 H1063 0.929 . S
C1056 C1055 1.383 . S
C1056 C1057 1.377 . S
C1057 H1041 0.930 . S
C1057 C1056 1.377 . S
C1057 C1058 1.379 . S
C1058 H1042 0.931 . S
C1058 C1052 1.383 . S
C1058 C1057 1.379 . S
H1059 C1053 0.959 . S
H1060 C1053 0.961 . S
H1061 C1053 0.960 . S
H1062 C1054 0.930 . S
H1063 C1055 0.929 . S
H1064 C1072 0.929 . S
H1065 C1074 0.930 . S
H1066 C1076 0.930 . S
H1067 C1079 0.929 . S
H1068 C1082 0.930 . S
H1069 C1084 0.960 . S
H1070 C1084 0.960 . S
H1071 C1084 0.960 . S
C1072 H1064 0.929 . S
C1072 C1073 1.377 . S
C1072 C1074 1.384 . S
C1073 C1072 1.377 . S
C1073 C1079 1.390 . S
C1074 H1065 0.930 . S
C1074 C1072 1.384 . S
C1074 C1075 1.372 . S
C1075 C1074 1.372 . S
C1075 C1076 1.400 . S
C1075 C1080 1.490 . S
C1076 H1066 0.930 . S
C1076 C1075 1.400 . S
C1076 C1079 1.386 . S
H1077 C1093 0.930 . S
H1078 C1094 0.931 . S
C1079 H1067 0.929 . S
C1079 C1073 1.390 . S
C1079 C1076 1.386 . S
C1080 C1075 1.490 . S
C1080 C1082 1.395 . S
C1080 C1083 1.403 . S
H1081 C1087 0.930 . S
C1082 H1068 0.930 . S
C1082 C1080 1.395 . S
C1082 C1085 1.403 . S
C1083 C1080 1.403 . S
C1083 C1084 1.524 . S
C1083 C1087 1.400 . S
C1084 H1069 0.960 . S
C1084 H1070 0.960 . S
C1084 H1071 0.960 . S
C1084 C1083 1.524 . S
C1085 C1082 1.403 . S
C1085 C1086 1.392 . S
C1085 C1089 1.495 . S
C1086 C1085 1.392 . S
C1086 C1087 1.385 . S
C1086 C1088 1.478 . S
C1087 H1081 0.930 . S
C1087 C1083 1.400 . S
C1087 C1086 1.385 . S
C1088 C1086 1.478 . S
C1088 C1090 1.381 . S
C1088 C1094 1.383 . S
C1089 C1085 1.495 . S
C1089 H1095 0.959 . S
C1089 H1096 0.961 . S
C1089 H1097 0.960 . S
C1090 C1088 1.381 . S
C1090 C1091 1.394 . S
C1090 H1098 0.930 . S
C1091 C1090 1.394 . S
C1091 C1092 1.383 . S
C1091 H1099 0.929 . S
C1092 C1091 1.383 . S
C1092 C1093 1.377 . S
C1093 H1077 0.930 . S
C1093 C1092 1.377 . S
C1093 C1094 1.379 . S
C1094 H1078 0.931 . S
C1094 C1088 1.383 . S
C1094 C1093 1.379 . S
H1095 C1089 0.959 . S
H1096 C1089 0.961 . S
H1097 C1089 0.960 . S
H1098 C1090 0.930 . S
H1099 C1091 0.929 . S
H1100 C1108 0.929 . S
H1101 C1110 0.930 . S
H1102 C1112 0.930 . S
H1103 C1115 0.929 . S
H1104 C1118 0.930 . S
H1105 C1120 0.960 . S
H1106 C1120 0.960 . S
H1107 C1120 0.960 . S
C1108 H1100 0.929 . S
C1108 C1109 1.377 . S
C1108 C1110 1.384 . S
C1109 C1108 1.377 . S
C1109 C1115 1.390 . S
C1110 H1101 0.930 . S
C1110 C1108 1.384 . S
C1110 C1111 1.372 . S
C1111 C1110 1.372 . S
C1111 C1112 1.400 . S
C1111 C1116 1.490 . S
C1112 H1102 0.930 . S
C1112 C1111 1.400 . S
C1112 C1115 1.386 . S
H1113 C1129 0.930 . S
H1114 C1130 0.931 . S
C1115 H1103 0.929 . S
C1115 C1109 1.390 . S
C1115 C1112 1.386 . S
C1116 C1111 1.490 . S
C1116 C1118 1.395 . S
C1116 C1119 1.403 . S
H1117 C1123 0.930 . S
C1118 H1104 0.930 . S
C1118 C1116 1.395 . S
C1118 C1121 1.403 . S
C1119 C1116 1.403 . S
C1119 C1120 1.524 . S
C1119 C1123 1.400 . S
C1120 H1105 0.960 . S
C1120 H1106 0.960 . S
C1120 H1107 0.960 . S
C1120 C1119 1.524 . S
C1121 C1118 1.403 . S
C1121 C1122 1.392 . S
C1121 C1125 1.495 . S
C1122 C1121 1.392 . S
C1122 C1123 1.385 . S
C1122 C1124 1.478 . S
C1123 H1117 0.930 . S
C1123 C1119 1.400 . S
C1123 C1122 1.385 . S
C1124 C1122 1.478 . S
C1124 C1126 1.381 . S
C1124 C1130 1.383 . S
C1125 C1121 1.495 . S
C1125 H1131 0.959 . S
C1125 H1132 0.961 . S
C1125 H1133 0.960 . S
C1126 C1124 1.381 . S
C1126 C1127 1.394 . S
C1126 H1134 0.930 . S
C1127 C1126 1.394 . S
C1127 C1128 1.383 . S
C1127 H1135 0.929 . S
C1128 C1127 1.383 . S
C1128 C1129 1.377 . S
C1129 H1113 0.930 . S
C1129 C1128 1.377 . S
C1129 C1130 1.379 . S
C1130 H1114 0.931 . S
C1130 C1124 1.383 . S
C1130 C1129 1.379 . S
H1131 C1125 0.959 . S
H1132 C1125 0.961 . S
H1133 C1125 0.960 . S
H1134 C1126 0.930 . S
H1135 C1127 0.929 . S
H1136 C1144 0.929 . S
H1137 C1146 0.930 . S
H1138 C1148 0.930 . S
H1139 C1151 0.929 . S
H1140 C1154 0.930 . S
H1141 C1156 0.960 . S
H1142 C1156 0.960 . S
H1143 C1156 0.960 . S
C1144 H1136 0.929 . S
C1144 C1145 1.377 . S
C1144 C1146 1.384 . S
C1145 C1144 1.377 . S
C1145 C1151 1.390 . S
C1146 H1137 0.930 . S
C1146 C1144 1.384 . S
C1146 C1147 1.372 . S
C1147 C1146 1.372 . S
C1147 C1148 1.400 . S
C1147 C1152 1.490 . S
C1148 H1138 0.930 . S
C1148 C1147 1.400 . S
C1148 C1151 1.386 . S
H1149 C1165 0.930 . S
H1150 C1166 0.931 . S
C1151 H1139 0.929 . S
C1151 C1145 1.390 . S
C1151 C1148 1.386 . S
C1152 C1147 1.490 . S
C1152 C1154 1.395 . S
C1152 C1155 1.403 . S
H1153 C1159 0.930 . S
C1154 H1140 0.930 . S
C1154 C1152 1.395 . S
C1154 C1157 1.403 . S
C1155 C1152 1.403 . S
C1155 C1156 1.524 . S
C1155 C1159 1.400 . S
C1156 H1141 0.960 . S
C1156 H1142 0.960 . S
C1156 H1143 0.960 . S
C1156 C1155 1.524 . S
C1157 C1154 1.403 . S
C1157 C1158 1.392 . S
C1157 C1161 1.495 . S
C1158 C1157 1.392 . S
C1158 C1159 1.385 . S
C1158 C1160 1.478 . S
C1159 H1153 0.930 . S
C1159 C1155 1.400 . S
C1159 C1158 1.385 . S
C1160 C1158 1.478 . S
C1160 C1162 1.381 . S
C1160 C1166 1.383 . S
C1161 C1157 1.495 . S
C1161 H1167 0.959 . S
C1161 H1168 0.961 . S
C1161 H1169 0.960 . S
C1162 C1160 1.381 . S
C1162 C1163 1.394 . S
C1162 H1170 0.930 . S
C1163 C1162 1.394 . S
C1163 C1164 1.383 . S
C1163 H1171 0.929 . S
C1164 C1163 1.383 . S
C1164 C1165 1.377 . S
C1165 H1149 0.930 . S
C1165 C1164 1.377 . S
C1165 C1166 1.379 . S
C1166 H1150 0.931 . S
C1166 C1160 1.383 . S
C1166 C1165 1.379 . S
H1167 C1161 0.959 . S
H1168 C1161 0.961 . S
H1169 C1161 0.960 . S
H1170 C1162 0.930 . S
H1171 C1163 0.929 . S
H1172 C1180 0.929 . S
H1173 C1182 0.930 . S
H1174 C1184 0.930 . S
H1175 C1187 0.929 . S
H1176 C1190 0.930 . S
H1177 C1192 0.960 . S
H1178 C1192 0.960 . S
H1179 C1192 0.960 . S
C1180 H1172 0.929 . S
C1180 C1181 1.377 . S
C1180 C1182 1.384 . S
C1181 C1180 1.377 . S
C1181 C1187 1.390 . S
C1182 H1173 0.930 . S
C1182 C1180 1.384 . S
C1182 C1183 1.372 . S
C1183 C1182 1.372 . S
C1183 C1184 1.400 . S
C1183 C1188 1.490 . S
C1184 H1174 0.930 . S
C1184 C1183 1.400 . S
C1184 C1187 1.386 . S
H1185 C1201 0.930 . S
H1186 C1202 0.931 . S
C1187 H1175 0.929 . S
C1187 C1181 1.390 . S
C1187 C1184 1.386 . S
C1188 C1183 1.490 . S
C1188 C1190 1.395 . S
C1188 C1191 1.403 . S
H1189 C1195 0.930 . S
C1190 H1176 0.930 . S
C1190 C1188 1.395 . S
C1190 C1193 1.403 . S
C1191 C1188 1.403 . S
C1191 C1192 1.524 . S
C1191 C1195 1.400 . S
C1192 H1177 0.960 . S
C1192 H1178 0.960 . S
C1192 H1179 0.960 . S
C1192 C1191 1.524 . S
C1193 C1190 1.403 . S
C1193 C1194 1.392 . S
C1193 C1197 1.495 . S
C1194 C1193 1.392 . S
C1194 C1195 1.385 . S
C1194 C1196 1.478 . S
C1195 H1189 0.930 . S
C1195 C1191 1.400 . S
C1195 C1194 1.385 . S
C1196 C1194 1.478 . S
C1196 C1198 1.381 . S
C1196 C1202 1.383 . S
C1197 C1193 1.495 . S
C1197 H1203 0.959 . S
C1197 H1204 0.961 . S
C1197 H1205 0.960 . S
C1198 C1196 1.381 . S
C1198 C1199 1.394 . S
C1198 H1206 0.930 . S
C1199 C1198 1.394 . S
C1199 C1200 1.383 . S
C1199 H1207 0.929 . S
C1200 C1199 1.383 . S
C1200 C1201 1.377 . S
C1201 H1185 0.930 . S
C1201 C1200 1.377 . S
C1201 C1202 1.379 . S
C1202 H1186 0.931 . S
C1202 C1196 1.383 . S
C1202 C1201 1.379 . S
H1203 C1197 0.959 . S
H1204 C1197 0.961 . S
H1205 C1197 0.960 . S
H1206 C1198 0.930 . S
H1207 C1199 0.929 . S
H1208 C1216 0.929 . S
H1209 C1218 0.930 . S
H1210 C1220 0.930 . S
H1211 C1223 0.929 . S
H1212 C1226 0.930 . S
H1213 C1228 0.960 . S
H1214 C1228 0.960 . S
H1215 C1228 0.960 . S
C1216 H1208 0.929 . S
C1216 C1217 1.377 . S
C1216 C1218 1.384 . S
C1217 C1216 1.377 . S
C1217 C1223 1.390 . S
C1218 H1209 0.930 . S
C1218 C1216 1.384 . S
C1218 C1219 1.372 . S
C1219 C1218 1.372 . S
C1219 C1220 1.400 . S
C1219 C1224 1.490 . S
C1220 H1210 0.930 . S
C1220 C1219 1.400 . S
C1220 C1223 1.386 . S
H1221 C1237 0.930 . S
H1222 C1238 0.931 . S
C1223 H1211 0.929 . S
C1223 C1217 1.390 . S
C1223 C1220 1.386 . S
C1224 C1219 1.490 . S
C1224 C1226 1.395 . S
C1224 C1227 1.403 . S
H1225 C1231 0.930 . S
C1226 H1212 0.930 . S
C1226 C1224 1.395 . S
C1226 C1229 1.403 . S
C1227 C1224 1.403 . S
C1227 C1228 1.524 . S
C1227 C1231 1.400 . S
C1228 H1213 0.960 . S
C1228 H1214 0.960 . S
C1228 H1215 0.960 . S
C1228 C1227 1.524 . S
C1229 C1226 1.403 . S
C1229 C1230 1.392 . S
C1229 C1233 1.495 . S
C1230 C1229 1.392 . S
C1230 C1231 1.385 . S
C1230 C1232 1.478 . S
C1231 H1225 0.930 . S
C1231 C1227 1.400 . S
C1231 C1230 1.385 . S
C1232 C1230 1.478 . S
C1232 C1234 1.381 . S
C1232 C1238 1.383 . S
C1233 C1229 1.495 . S
C1233 H1239 0.959 . S
C1233 H1240 0.961 . S
C1233 H1241 0.960 . S
C1234 C1232 1.381 . S
C1234 C1235 1.394 . S
C1234 H1242 0.930 . S
C1235 C1234 1.394 . S
C1235 C1236 1.383 . S
C1235 H1243 0.929 . S
C1236 C1235 1.383 . S
C1236 C1237 1.377 . S
C1237 H1221 0.930 . S
C1237 C1236 1.377 . S
C1237 C1238 1.379 . S
C1238 H1222 0.931 . S
C1238 C1232 1.383 . S
C1238 C1237 1.379 . S
H1239 C1233 0.959 . S
H1240 C1233 0.961 . S
H1241 C1233 0.960 . S
H1242 C1234 0.930 . S
H1243 C1235 0.929 . S
H1244 C1252 0.929 . S
H1245 C1254 0.930 . S
H1246 C1256 0.930 . S
H1247 C1259 0.929 . S
H1248 C1262 0.930 . S
H1249 C1264 0.960 . S
H1250 C1264 0.960 . S
H1251 C1264 0.960 . S
C1252 H1244 0.929 . S
C1252 C1253 1.377 . S
C1252 C1254 1.384 . S
C1253 C1252 1.377 . S
C1253 C1259 1.390 . S
C1254 H1245 0.930 . S
C1254 C1252 1.384 . S
C1254 C1255 1.372 . S
C1255 C1254 1.372 . S
C1255 C1256 1.400 . S
C1255 C1260 1.490 . S
C1256 H1246 0.930 . S
C1256 C1255 1.400 . S
C1256 C1259 1.386 . S
H1257 C1273 0.930 . S
H1258 C1274 0.931 . S
C1259 H1247 0.929 . S
C1259 C1253 1.390 . S
C1259 C1256 1.386 . S
C1260 C1255 1.490 . S
C1260 C1262 1.395 . S
C1260 C1263 1.403 . S
H1261 C1267 0.930 . S
C1262 H1248 0.930 . S
C1262 C1260 1.395 . S
C1262 C1265 1.403 . S
C1263 C1260 1.403 . S
C1263 C1264 1.524 . S
C1263 C1267 1.400 . S
C1264 H1249 0.960 . S
C1264 H1250 0.960 . S
C1264 H1251 0.960 . S
C1264 C1263 1.524 . S
C1265 C1262 1.403 . S
C1265 C1266 1.392 . S
C1265 C1269 1.495 . S
C1266 C1265 1.392 . S
C1266 C1267 1.385 . S
C1266 C1268 1.478 . S
C1267 H1261 0.930 . S
C1267 C1263 1.400 . S
C1267 C1266 1.385 . S
C1268 C1266 1.478 . S
C1268 C1270 1.381 . S
C1268 C1274 1.383 . S
C1269 C1265 1.495 . S
C1269 H1275 0.959 . S
C1269 H1276 0.961 . S
C1269 H1277 0.960 . S
C1270 C1268 1.381 . S
C1270 C1271 1.394 . S
C1270 H1278 0.930 . S
C1271 C1270 1.394 . S
C1271 C1272 1.383 . S
C1271 H1279 0.929 . S
C1272 C1271 1.383 . S
C1272 C1273 1.377 . S
C1273 H1257 0.930 . S
C1273 C1272 1.377 . S
C1273 C1274 1.379 . S
C1274 H1258 0.931 . S
C1274 C1268 1.383 . S
C1274 C1273 1.379 . S
H1275 C1269 0.959 . S
H1276 C1269 0.961 . S
H1277 C1269 0.960 . S
H1278 C1270 0.930 . S
H1279 C1271 0.929 . S
H1280 C1288 0.929 . S
H1281 C1290 0.930 . S
H1282 C1292 0.930 . S
H1283 C1295 0.929 . S
H1284 C1298 0.930 . S
H1285 C1300 0.960 . S
H1286 C1300 0.960 . S
H1287 C1300 0.960 . S
C1288 H1280 0.929 . S
C1288 C1289 1.377 . S
C1288 C1290 1.384 . S
C1289 C1288 1.377 . S
C1289 C1295 1.390 . S
C1290 H1281 0.930 . S
C1290 C1288 1.384 . S
C1290 C1291 1.372 . S
C1291 C1290 1.372 . S
C1291 C1292 1.400 . S
C1291 C1296 1.490 . S
C1292 H1282 0.930 . S
C1292 C1291 1.400 . S
C1292 C1295 1.386 . S
H1293 C1309 0.930 . S
H1294 C1310 0.931 . S
C1295 H1283 0.929 . S
C1295 C1289 1.390 . S
C1295 C1292 1.386 . S
C1296 C1291 1.490 . S
C1296 C1298 1.395 . S
C1296 C1299 1.403 . S
H1297 C1303 0.930 . S
C1298 H1284 0.930 . S
C1298 C1296 1.395 . S
C1298 C1301 1.403 . S
C1299 C1296 1.403 . S
C1299 C1300 1.524 . S
C1299 C1303 1.400 . S
C1300 H1285 0.960 . S
C1300 H1286 0.960 . S
C1300 H1287 0.960 . S
C1300 C1299 1.524 . S
C1301 C1298 1.403 . S
C1301 C1302 1.392 . S
C1301 C1305 1.495 . S
C1302 C1301 1.392 . S
C1302 C1303 1.385 . S
C1302 C1304 1.478 . S
C1303 H1297 0.930 . S
C1303 C1299 1.400 . S
C1303 C1302 1.385 . S
C1304 C1302 1.478 . S
C1304 C1306 1.381 . S
C1304 C1310 1.383 . S
C1305 C1301 1.495 . S
C1305 H1311 0.959 . S
C1305 H1312 0.961 . S
C1305 H1313 0.960 . S
C1306 C1304 1.381 . S
C1306 C1307 1.394 . S
C1306 H1314 0.930 . S
C1307 C1306 1.394 . S
C1307 C1308 1.383 . S
C1307 H1315 0.929 . S
C1308 C1307 1.383 . S
C1308 C1309 1.377 . S
C1309 H1293 0.930 . S
C1309 C1308 1.377 . S
C1309 C1310 1.379 . S
C1310 H1294 0.931 . S
C1310 C1304 1.383 . S
C1310 C1309 1.379 . S
H1311 C1305 0.959 . S
H1312 C1305 0.961 . S
H1313 C1305 0.960 . S
H1314 C1306 0.930 . S
H1315 C1307 0.929 . S
H1316 C1324 0.929 . S
H1317 C1326 0.930 . S
H1318 C1328 0.930 . S
H1319 C1331 0.929 . S
H1320 C1334 0.930 . S
H1321 C1336 0.960 . S
H1322 C1336 0.960 . S
H1323 C1336 0.960 . S
C1324 H1316 0.929 . S
C1324 C1325 1.377 . S
C1324 C1326 1.384 . S
C1325 C1324 1.377 . S
C1325 C1331 1.390 . S
C1326 H1317 0.930 . S
C1326 C1324 1.384 . S
C1326 C1327 1.372 . S
C1327 C1326 1.372 . S
C1327 C1328 1.400 . S
C1327 C1332 1.490 . S
C1328 H1318 0.930 . S
C1328 C1327 1.400 . S
C1328 C1331 1.386 . S
H1329 C1345 0.930 . S
H1330 C1346 0.931 . S
C1331 H1319 0.929 . S
C1331 C1325 1.390 . S
C1331 C1328 1.386 . S
C1332 C1327 1.490 . S
C1332 C1334 1.395 . S
C1332 C1335 1.403 . S
H1333 C1339 0.930 . S
C1334 H1320 0.930 . S
C1334 C1332 1.395 . S
C1334 C1337 1.403 . S
C1335 C1332 1.403 . S
C1335 C1336 1.524 . S
C1335 C1339 1.400 . S
C1336 H1321 0.960 . S
C1336 H1322 0.960 . S
C1336 H1323 0.960 . S
C1336 C1335 1.524 . S
C1337 C1334 1.403 . S
C1337 C1338 1.392 . S
C1337 C1341 1.495 . S
C1338 C1337 1.392 . S
C1338 C1339 1.385 . S
C1338 C1340 1.478 . S
C1339 H1333 0.930 . S
C1339 C1335 1.400 . S
C1339 C1338 1.385 . S
C1340 C1338 1.478 . S
C1340 C1342 1.381 . S
C1340 C1346 1.383 . S
C1341 C1337 1.495 . S
C1341 H1347 0.959 . S
C1341 H1348 0.961 . S
C1341 H1349 0.960 . S
C1342 C1340 1.381 . S
C1342 C1343 1.394 . S
C1342 H1350 0.930 . S
C1343 C1342 1.394 . S
C1343 C1344 1.383 . S
C1343 H1351 0.929 . S
C1344 C1343 1.383 . S
C1344 C1345 1.377 . S
C1345 H1329 0.930 . S
C1345 C1344 1.377 . S
C1345 C1346 1.379 . S
C1346 H1330 0.931 . S
C1346 C1340 1.383 . S
C1346 C1345 1.379 . S
H1347 C1341 0.959 . S
H1348 C1341 0.961 . S
H1349 C1341 0.960 . S
H1350 C1342 0.930 . S
H1351 C1343 0.929 . S
H1352 C1360 0.929 . S
H1353 C1362 0.930 . S
H1354 C1364 0.930 . S
H1355 C1367 0.929 . S
H1356 C1370 0.930 . S
H1357 C1372 0.960 . S
H1358 C1372 0.960 . S
H1359 C1372 0.960 . S
C1360 H1352 0.929 . S
C1360 C1361 1.377 . S
C1360 C1362 1.384 . S
C1361 C1360 1.377 . S
C1361 C1367 1.390 . S
C1362 H1353 0.930 . S
C1362 C1360 1.384 . S
C1362 C1363 1.372 . S
C1363 C1362 1.372 . S
C1363 C1364 1.400 . S
C1363 C1368 1.490 . S
C1364 H1354 0.930 . S
C1364 C1363 1.400 . S
C1364 C1367 1.386 . S
H1365 C1381 0.930 . S
H1366 C1382 0.931 . S
C1367 H1355 0.929 . S
C1367 C1361 1.390 . S
C1367 C1364 1.386 . S
C1368 C1363 1.490 . S
C1368 C1370 1.395 . S
C1368 C1371 1.403 . S
H1369 C1375 0.930 . S
C1370 H1356 0.930 . S
C1370 C1368 1.395 . S
C1370 C1373 1.403 . S
C1371 C1368 1.403 . S
C1371 C1372 1.524 . S
C1371 C1375 1.400 . S
C1372 H1357 0.960 . S
C1372 H1358 0.960 . S
C1372 H1359 0.960 . S
C1372 C1371 1.524 . S
C1373 C1370 1.403 . S
C1373 C1374 1.392 . S
C1373 C1377 1.495 . S
C1374 C1373 1.392 . S
C1374 C1375 1.385 . S
C1374 C1376 1.478 . S
C1375 H1369 0.930 . S
C1375 C1371 1.400 . S
C1375 C1374 1.385 . S
C1376 C1374 1.478 . S
C1376 C1378 1.381 . S
C1376 C1382 1.383 . S
C1377 C1373 1.495 . S
C1377 H1383 0.959 . S
C1377 H1384 0.961 . S
C1377 H1385 0.960 . S
C1378 C1376 1.381 . S
C1378 C1379 1.394 . S
C1378 H1386 0.930 . S
C1379 C1378 1.394 . S
C1379 C1380 1.383 . S
C1379 H1387 0.929 . S
C1380 C1379 1.383 . S
C1380 C1381 1.377 . S
C1381 H1365 0.930 . S
C1381 C1380 1.377 . S
C1381 C1382 1.379 . S
C1382 H1366 0.931 . S
C1382 C1376 1.383 . S
C1382 C1381 1.379 . S
H1383 C1377 0.959 . S
H1384 C1377 0.961 . S
H1385 C1377 0.960 . S
H1386 C1378 0.930 . S
H1387 C1379 0.929 . S
H1388 C1396 0.929 . S
H1389 C1398 0.930 . S
H1390 C1400 0.930 . S
H1391 C1403 0.929 . S
H1392 C1406 0.930 . S
H1393 C1408 0.960 . S
H1394 C1408 0.960 . S
H1395 C1408 0.960 . S
C1396 H1388 0.929 . S
C1396 C1397 1.377 . S
C1396 C1398 1.384 . S
C1397 C1396 1.377 . S
C1397 C1403 1.390 . S
C1398 H1389 0.930 . S
C1398 C1396 1.384 . S
C1398 C1399 1.372 . S
C1399 C1398 1.372 . S
C1399 C1400 1.400 . S
C1399 C1404 1.490 . S
C1400 H1390 0.930 . S
C1400 C1399 1.400 . S
C1400 C1403 1.386 . S
H1401 C1417 0.930 . S
H1402 C1418 0.931 . S
C1403 H1391 0.929 . S
C1403 C1397 1.390 . S
C1403 C1400 1.386 . S
C1404 C1399 1.490 . S
C1404 C1406 1.395 . S
C1404 C1407 1.403 . S
H1405 C1411 0.930 . S
C1406 H1392 0.930 . S
C1406 C1404 1.395 . S
C1406 C1409 1.403 . S
C1407 C1404 1.403 . S
C1407 C1408 1.524 . S
C1407 C1411 1.400 . S
C1408 H1393 0.960 . S
C1408 H1394 0.960 . S
C1408 H1395 0.960 . S
C1408 C1407 1.524 . S
C1409 C1406 1.403 . S
C1409 C1410 1.392 . S
C1409 C1413 1.495 . S
C1410 C1409 1.392 . S
C1410 C1411 1.385 . S
C1410 C1412 1.478 . S
C1411 H1405 0.930 . S
C1411 C1407 1.400 . S
C1411 C1410 1.385 . S
C1412 C1410 1.478 . S
C1412 C1414 1.381 . S
C1412 C1418 1.383 . S
C1413 C1409 1.495 . S
C1413 H1419 0.959 . S
C1413 H1420 0.961 . S
C1413 H1421 0.960 . S
C1414 C1412 1.381 . S
C1414 C1415 1.394 . S
C1414 H1422 0.930 . S
C1415 C1414 1.394 . S
C1415 C1416 1.383 . S
C1415 H1423 0.929 . S
C1416 C1415 1.383 . S
C1416 C1417 1.377 . S
C1417 H1401 0.930 . S
C1417 C1416 1.377 . S
C1417 C1418 1.379 . S
C1418 H1402 0.931 . S
C1418 C1412 1.383 . S
C1418 C1417 1.379 . S
H1419 C1413 0.959 . S
H1420 C1413 0.961 . S
H1421 C1413 0.960 . S
H1422 C1414 0.930 . S
H1423 C1415 0.929 . S
H1424 C1432 0.929 . S
H1425 C1434 0.930 . S
H1426 C1436 0.930 . S
H1427 C1439 0.929 . S
H1428 C1442 0.930 . S
H1429 C1444 0.960 . S
H1430 C1444 0.960 . S
H1431 C1444 0.960 . S
C1432 H1424 0.929 . S
C1432 C1433 1.377 . S
C1432 C1434 1.384 . S
C1433 C1432 1.377 . S
C1433 C1439 1.390 . S
C1434 H1425 0.930 . S
C1434 C1432 1.384 . S
C1434 C1435 1.372 . S
C1435 C1434 1.372 . S
C1435 C1436 1.400 . S
C1435 C1440 1.490 . S
C1436 H1426 0.930 . S
C1436 C1435 1.400 . S
C1436 C1439 1.386 . S
H1437 C1453 0.930 . S
H1438 C1454 0.931 . S
C1439 H1427 0.929 . S
C1439 C1433 1.390 . S
C1439 C1436 1.386 . S
C1440 C1435 1.490 . S
C1440 C1442 1.395 . S
C1440 C1443 1.403 . S
H1441 C1447 0.930 . S
C1442 H1428 0.930 . S
C1442 C1440 1.395 . S
C1442 C1445 1.403 . S
C1443 C1440 1.403 . S
C1443 C1444 1.524 . S
C1443 C1447 1.400 . S
C1444 H1429 0.960 . S
C1444 H1430 0.960 . S
C1444 H1431 0.960 . S
C1444 C1443 1.524 . S
C1445 C1442 1.403 . S
C1445 C1446 1.392 . S
C1445 C1449 1.495 . S
C1446 C1445 1.392 . S
C1446 C1447 1.385 . S
C1446 C1448 1.478 . S
C1447 H1441 0.930 . S
C1447 C1443 1.400 . S
C1447 C1446 1.385 . S
C1448 C1446 1.478 . S
C1448 C1450 1.381 . S
C1448 C1454 1.383 . S
C1449 C1445 1.495 . S
C1449 H1455 0.959 . S
C1449 H1456 0.961 . S
C1449 H1457 0.960 . S
C1450 C1448 1.381 . S
C1450 C1451 1.394 . S
C1450 H1458 0.930 . S
C1451 C1450 1.394 . S
C1451 C1452 1.383 . S
C1451 H1459 0.929 . S
C1452 C1451 1.383 . S
C1452 C1453 1.377 . S
C1453 H1437 0.930 . S
C1453 C1452 1.377 . S
C1453 C1454 1.379 . S
C1454 H1438 0.931 . S
C1454 C1448 1.383 . S
C1454 C1453 1.379 . S
H1455 C1449 0.959 . S
H1456 C1449 0.961 . S
H1457 C1449 0.960 . S
H1458 C1450 0.930 . S
H1459 C1451 0.929 . S
H1460 C1468 0.929 . S
H1461 C1470 0.930 . S
H1462 C1472 0.930 . S
H1463 C1475 0.929 . S
H1464 C1478 0.930 . S
H1465 C1480 0.960 . S
H1466 C1480 0.960 . S
H1467 C1480 0.960 . S
C1468 H1460 0.929 . S
C1468 C1469 1.377 . S
C1468 C1470 1.384 . S
C1469 C1468 1.377 . S
C1469 C1475 1.390 . S
C1470 H1461 0.930 . S
C1470 C1468 1.384 . S
C1470 C1471 1.372 . S
C1471 C1470 1.372 . S
C1471 C1472 1.400 . S
C1471 C1476 1.490 . S
C1472 H1462 0.930 . S
C1472 C1471 1.400 . S
C1472 C1475 1.386 . S
H1473 C1489 0.930 . S
H1474 C1490 0.931 . S
C1475 H1463 0.929 . S
C1475 C1469 1.390 . S
C1475 C1472 1.386 . S
C1476 C1471 1.490 . S
C1476 C1478 1.395 . S
C1476 C1479 1.403 . S
H1477 C1483 0.930 . S
C1478 H1464 0.930 . S
C1478 C1476 1.395 . S
C1478 C1481 1.403 . S
C1479 C1476 1.403 . S
C1479 C1480 1.524 . S
C1479 C1483 1.400 . S
C1480 H1465 0.960 . S
C1480 H1466 0.960 . S
C1480 H1467 0.960 . S
C1480 C1479 1.524 . S
C1481 C1478 1.403 . S
C1481 C1482 1.392 . S
C1481 C1485 1.495 . S
C1482 C1481 1.392 . S
C1482 C1483 1.385 . S
C1482 C1484 1.478 . S
C1483 H1477 0.930 . S
C1483 C1479 1.400 . S
C1483 C1482 1.385 . S
C1484 C1482 1.478 . S
C1484 C1486 1.381 . S
C1484 C1490 1.383 . S
C1485 C1481 1.495 . S
C1485 H1491 0.959 . S
C1485 H1492 0.961 . S
C1485 H1493 0.960 . S
C1486 C1484 1.381 . S
C1486 C1487 1.394 . S
C1486 H1494 0.930 . S
C1487 C1486 1.394 . S
C1487 C1488 1.383 . S
C1487 H1495 0.929 . S
C1488 C1487 1.383 . S
C1488 C1489 1.377 . S
C1489 H1473 0.930 . S
C1489 C1488 1.377 . S
C1489 C1490 1.379 . S
C1490 H1474 0.931 . S
C1490 C1484 1.383 . S
C1490 C1489 1.379 . S
H1491 C1485 0.959 . S
H1492 C1485 0.961 . S
H1493 C1485 0.960 . S
H1494 C1486 0.930 . S
H1495 C1487 0.929 . S
H1496 C1504 0.929 . S
H1497 C1506 0.930 . S
H1498 C1508 0.930 . S
H1499 C1511 0.929 . S
H1500 C1514 0.930 . S
H1501 C1516 0.960 . S
H1502 C1516 0.960 . S
H1503 C1516 0.960 . S
C1504 H1496 0.929 . S
C1504 C1505 1.377 . S
C1504 C1506 1.384 . S
C1505 C1504 1.377 . S
C1505 C1511 1.390 . S
C1506 H1497 0.930 . S
C1506 C1504 1.384 . S
C1506 C1507 1.372 . S
C1507 C1506 1.372 . S
C1507 C1508 1.400 . S
C1507 C1512 1.490 . S
C1508 H1498 0.930 . S
C1508 C1507 1.400 . S
C1508 C1511 1.386 . S
H1509 C1525 0.930 . S
H1510 C1526 0.931 . S
C1511 H1499 0.929 . S
C1511 C1505 1.390 . S
C1511 C1508 1.386 . S
C1512 C1507 1.490 . S
C1512 C1514 1.395 . S
C1512 C1515 1.403 . S
H1513 C1519 0.930 . S
C1514 H1500 0.930 . S
C1514 C1512 1.395 . S
C1514 C1517 1.403 . S
C1515 C1512 1.403 . S
C1515 C1516 1.524 . S
C1515 C1519 1.400 . S
C1516 H1501 0.960 . S
C1516 H1502 0.960 . S
C1516 H1503 0.960 . S
C1516 C1515 1.524 . S
C1517 C1514 1.403 . S
C1517 C1518 1.392 . S
C1517 C1521 1.495 . S
C1518 C1517 1.392 . S
C1518 C1519 1.385 . S
C1518 C1520 1.478 . S
C1519 H1513 0.930 . S
C1519 C1515 1.400 . S
C1519 C1518 1.385 . S
C1520 C1518 1.478 . S
C1520 C1522 1.381 . S
C1520 C1526 1.383 . S
C1521 C1517 1.495 . S
C1521 H1527 0.959 . S
C1521 H1528 0.961 . S
C1521 H1529 0.960 . S
C1522 C1520 1.381 . S
C1522 C1523 1.394 . S
C1522 H1530 0.930 . S
C1523 C1522 1.394 . S
C1523 C1524 1.383 . S
C1523 H1531 0.929 . S
C1524 C1523 1.383 . S
C1524 C1525 1.377 . S
C1525 H1509 0.930 . S
C1525 C1524 1.377 . S
C1525 C1526 1.379 . S
C1526 H1510 0.931 . S
C1526 C1520 1.383 . S
C1526 C1525 1.379 . S
H1527 C1521 0.959 . S
H1528 C1521 0.961 . S
H1529 C1521 0.960 . S
H1530 C1522 0.930 . S
H1531 C1523 0.929 . S
H1532 C1540 0.929 . S
H1533 C1542 0.930 . S
H1534 C1544 0.930 . S
H1535 C1547 0.929 . S
H1536 C1550 0.930 . S
H1537 C1552 0.960 . S
H1538 C1552 0.960 . S
H1539 C1552 0.960 . S
C1540 H1532 0.929 . S
C1540 C1541 1.377 . S
C1540 C1542 1.384 . S
C1541 C1540 1.377 . S
C1541 C1547 1.390 . S
C1542 H1533 0.930 . S
C1542 C1540 1.384 . S
C1542 C1543 1.372 . S
C1543 C1542 1.372 . S
C1543 C1544 1.400 . S
C1543 C1548 1.490 . S
C1544 H1534 0.930 . S
C1544 C1543 1.400 . S
C1544 C1547 1.386 . S
H1545 C1561 0.930 . S
H1546 C1562 0.931 . S
C1547 H1535 0.929 . S
C1547 C1541 1.390 . S
C1547 C1544 1.386 . S
C1548 C1543 1.490 . S
C1548 C1550 1.395 . S
C1548 C1551 1.403 . S
H1549 C1555 0.930 . S
C1550 H1536 0.930 . S
C1550 C1548 1.395 . S
C1550 C1553 1.403 . S
C1551 C1548 1.403 . S
C1551 C1552 1.524 . S
C1551 C1555 1.400 . S
C1552 H1537 0.960 . S
C1552 H1538 0.960 . S
C1552 H1539 0.960 . S
C1552 C1551 1.524 . S
C1553 C1550 1.403 . S
C1553 C1554 1.392 . S
C1553 C1557 1.495 . S
C1554 C1553 1.392 . S
C1554 C1555 1.385 . S
C1554 C1556 1.478 . S
C1555 H1549 0.930 . S
C1555 C1551 1.400 . S
C1555 C1554 1.385 . S
C1556 C1554 1.478 . S
C1556 C1558 1.381 . S
C1556 C1562 1.383 . S
C1557 C1553 1.495 . S
C1557 H1563 0.959 . S
C1557 H1564 0.961 . S
C1557 H1565 0.960 . S
C1558 C1556 1.381 . S
C1558 C1559 1.394 . S
C1558 H1566 0.930 . S
C1559 C1558 1.394 . S
C1559 C1560 1.383 . S
C1559 H1567 0.929 . S
C1560 C1559 1.383 . S
C1560 C1561 1.377 . S
C1561 H1545 0.930 . S
C1561 C1560 1.377 . S
C1561 C1562 1.379 . S
C1562 H1546 0.931 . S
C1562 C1556 1.383 . S
C1562 C1561 1.379 . S
H1563 C1557 0.959 . S
H1564 C1557 0.961 . S
H1565 C1557 0.960 . S
H1566 C1558 0.930 . S
H1567 C1559 0.929 . S
H1568 C1576 0.929 . S
H1569 C1578 0.930 . S
H1570 C1580 0.930 . S
H1571 C1583 0.929 . S
H1572 C1586 0.930 . S
H1573 C1588 0.960 . S
H1574 C1588 0.960 . S
H1575 C1588 0.960 . S
C1576 H1568 0.929 . S
C1576 C1577 1.377 . S
C1576 C1578 1.384 . S
C1577 C1576 1.377 . S
C1577 C1583 1.390 . S
C1578 H1569 0.930 . S
C1578 C1576 1.384 . S
C1578 C1579 1.372 . S
C1579 C1578 1.372 . S
C1579 C1580 1.400 . S
C1579 C1584 1.490 . S
C1580 H1570 0.930 . S
C1580 C1579 1.400 . S
C1580 C1583 1.386 . S
H1581 C1597 0.930 . S
H1582 C1598 0.931 . S
C1583 H1571 0.929 . S
C1583 C1577 1.390 . S
C1583 C1580 1.386 . S
C1584 C1579 1.490 . S
C1584 C1586 1.395 . S
C1584 C1587 1.403 . S
H1585 C1591 0.930 . S
C1586 H1572 0.930 . S
C1586 C1584 1.395 . S
C1586 C1589 1.403 . S
C1587 C1584 1.403 . S
C1587 C1588 1.524 . S
C1587 C1591 1.400 . S
C1588 H1573 0.960 . S
C1588 H1574 0.960 . S
C1588 H1575 0.960 . S
C1588 C1587 1.524 . S
C1589 C1586 1.403 . S
C1589 C1590 1.392 . S
C1589 C1593 1.495 . S
C1590 C1589 1.392 . S
C1590 C1591 1.385 . S
C1590 C1592 1.478 . S
C1591 H1585 0.930 . S
C1591 C1587 1.400 . S
C1591 C1590 1.385 . S
C1592 C1590 1.478 . S
C1592 C1594 1.381 . S
C1592 C1598 1.383 . S
C1593 C1589 1.495 . S
C1593 H1599 0.959 . S
C1593 H1600 0.961 . S
C1593 H1601 0.960 . S
C1594 C1592 1.381 . S
C1594 C1595 1.394 . S
C1594 H1602 0.930 . S
C1595 C1594 1.394 . S
C1595 C1596 1.383 . S
C1595 H1603 0.929 . S
C1596 C1595 1.383 . S
C1596 C1597 1.377 . S
C1597 H1581 0.930 . S
C1597 C1596 1.377 . S
C1597 C1598 1.379 . S
C1598 H1582 0.931 . S
C1598 C1592 1.383 . S
C1598 C1597 1.379 . S
H1599 C1593 0.959 . S
H1600 C1593 0.961 . S
H1601 C1593 0.960 . S
H1602 C1594 0.930 . S
H1603 C1595 0.929 . S
H1604 C1612 0.929 . S
H1605 C1614 0.930 . S
H1606 C1616 0.930 . S
H1607 C1619 0.929 . S
H1608 C1622 0.930 . S
H1609 C1624 0.960 . S
H1610 C1624 0.960 . S
H1611 C1624 0.960 . S
C1612 H1604 0.929 . S
C1612 C1613 1.377 . S
C1612 C1614 1.384 . S
C1613 C1612 1.377 . S
C1613 C1619 1.390 . S
C1614 H1605 0.930 . S
C1614 C1612 1.384 . S
C1614 C1615 1.372 . S
C1615 C1614 1.372 . S
C1615 C1616 1.400 . S
C1615 C1620 1.490 . S
C1616 H1606 0.930 . S
C1616 C1615 1.400 . S
C1616 C1619 1.386 . S
H1617 C1633 0.930 . S
H1618 C1634 0.931 . S
C1619 H1607 0.929 . S
C1619 C1613 1.390 . S
C1619 C1616 1.386 . S
C1620 C1615 1.490 . S
C1620 C1622 1.395 . S
C1620 C1623 1.403 . S
H1621 C1627 0.930 . S
C1622 H1608 0.930 . S
C1622 C1620 1.395 . S
C1622 C1625 1.403 . S
C1623 C1620 1.403 . S
C1623 C1624 1.524 . S
C1623 C1627 1.400 . S
C1624 H1609 0.960 . S
C1624 H1610 0.960 . S
C1624 H1611 0.960 . S
C1624 C1623 1.524 . S
C1625 C1622 1.403 . S
C1625 C1626 1.392 . S
C1625 C1629 1.495 . S
C1626 C1625 1.392 . S
C1626 C1627 1.385 . S
C1626 C1628 1.478 . S
C1627 H1621 0.930 . S
C1627 C1623 1.400 . S
C1627 C1626 1.385 . S
C1628 C1626 1.478 . S
C1628 C1630 1.381 . S
C1628 C1634 1.383 . S
C1629 C1625 1.495 . S
C1629 H1635 0.959 . S
C1629 H1636 0.961 . S
C1629 H1637 0.960 . S
C1630 C1628 1.381 . S
C1630 C1631 1.394 . S
C1630 H1638 0.930 . S
C1631 C1630 1.394 . S
C1631 C1632 1.383 . S
C1631 H1639 0.929 . S
C1632 C1631 1.383 . S
C1632 C1633 1.377 . S
C1633 H1617 0.930 . S
C1633 C1632 1.377 . S
C1633 C1634 1.379 . S
C1634 H1618 0.931 . S
C1634 C1628 1.383 . S
C1634 C1633 1.379 . S
H1635 C1629 0.959 . S
H1636 C1629 0.961 . S
H1637 C1629 0.960 . S
H1638 C1630 0.930 . S
H1639 C1631 0.929 . S
H1640 C1648 0.929 . S
H1641 C1650 0.930 . S
H1642 C1652 0.930 . S
H1643 C1655 0.929 . S
H1644 C1658 0.930 . S
H1645 C1660 0.960 . S
H1646 C1660 0.960 . S
H1647 C1660 0.960 . S
C1648 H1640 0.929 . S
C1648 C1649 1.377 . S
C1648 C1650 1.384 . S
C1649 C1648 1.377 . S
C1649 C1655 1.390 . S
C1650 H1641 0.930 . S
C1650 C1648 1.384 . S
C1650 C1651 1.372 . S
C1651 C1650 1.372 . S
C1651 C1652 1.400 . S
C1651 C1656 1.490 . S
C1652 H1642 0.930 . S
C1652 C1651 1.400 . S
C1652 C1655 1.386 . S
H1653 C1669 0.930 . S
H1654 C1670 0.931 . S
C1655 H1643 0.929 . S
C1655 C1649 1.390 . S
C1655 C1652 1.386 . S
C1656 C1651 1.490 . S
C1656 C1658 1.395 . S
C1656 C1659 1.403 . S
H1657 C1663 0.930 . S
C1658 H1644 0.930 . S
C1658 C1656 1.395 . S
C1658 C1661 1.403 . S
C1659 C1656 1.403 . S
C1659 C1660 1.524 . S
C1659 C1663 1.400 . S
C1660 H1645 0.960 . S
C1660 H1646 0.960 . S
C1660 H1647 0.960 . S
C1660 C1659 1.524 . S
C1661 C1658 1.403 . S
C1661 C1662 1.392 . S
C1661 C1665 1.495 . S
C1662 C1661 1.392 . S
C1662 C1663 1.385 . S
C1662 C1664 1.478 . S
C1663 H1657 0.930 . S
C1663 C1659 1.400 . S
C1663 C1662 1.385 . S
C1664 C1662 1.478 . S
C1664 C1666 1.381 . S
C1664 C1670 1.383 . S
C1665 C1661 1.495 . S
C1665 H1671 0.959 . S
C1665 H1672 0.961 . S
C1665 H1673 0.960 . S
C1666 C1664 1.381 . S
C1666 C1667 1.394 . S
C1666 H1674 0.930 . S
C1667 C1666 1.394 . S
C1667 C1668 1.383 . S
C1667 H1675 0.929 . S
C1668 C1667 1.383 . S
C1668 C1669 1.377 . S
C1669 H1653 0.930 . S
C1669 C1668 1.377 . S
C1669 C1670 1.379 . S
C1670 H1654 0.931 . S
C1670 C1664 1.383 . S
C1670 C1669 1.379 . S
H1671 C1665 0.959 . S
H1672 C1665 0.961 . S
H1673 C1665 0.960 . S
H1674 C1666 0.930 . S
H1675 C1667 0.929 . S
H1676 C1684 0.929 . S
H1677 C1686 0.930 . S
H1678 C1688 0.930 . S
H1679 C1691 0.929 . S
H1680 C1694 0.930 . S
H1681 C1696 0.960 . S
H1682 C1696 0.960 . S
H1683 C1696 0.960 . S
C1684 H1676 0.929 . S
C1684 C1685 1.377 . S
C1684 C1686 1.384 . S
C1685 C1684 1.377 . S
C1685 C1691 1.390 . S
C1686 H1677 0.930 . S
C1686 C1684 1.384 . S
C1686 C1687 1.372 . S
C1687 C1686 1.372 . S
C1687 C1688 1.400 . S
C1687 C1692 1.490 . S
C1688 H1678 0.930 . S
C1688 C1687 1.400 . S
C1688 C1691 1.386 . S
H1689 C1705 0.930 . S
H1690 C1706 0.931 . S
C1691 H1679 0.929 . S
C1691 C1685 1.390 . S
C1691 C1688 1.386 . S
C1692 C1687 1.490 . S
C1692 C1694 1.395 . S
C1692 C1695 1.403 . S
H1693 C1699 0.930 . S
C1694 H1680 0.930 . S
C1694 C1692 1.395 . S
C1694 C1697 1.403 . S
C1695 C1692 1.403 . S
C1695 C1696 1.524 . S
C1695 C1699 1.400 . S
C1696 H1681 0.960 . S
C1696 H1682 0.960 . S
C1696 H1683 0.960 . S
C1696 C1695 1.524 . S
C1697 C1694 1.403 . S
C1697 C1698 1.392 . S
C1697 C1701 1.495 . S
C1698 C1697 1.392 . S
C1698 C1699 1.385 . S
C1698 C1700 1.478 . S
C1699 H1693 0.930 . S
C1699 C1695 1.400 . S
C1699 C1698 1.385 . S
C1700 C1698 1.478 . S
C1700 C1702 1.381 . S
C1700 C1706 1.383 . S
C1701 C1697 1.495 . S
C1701 H1707 0.959 . S
C1701 H1708 0.961 . S
C1701 H1709 0.960 . S
C1702 C1700 1.381 . S
C1702 C1703 1.394 . S
C1702 H1710 0.930 . S
C1703 C1702 1.394 . S
C1703 C1704 1.383 . S
C1703 H1711 0.929 . S
C1704 C1703 1.383 . S
C1704 C1705 1.377 . S
C1705 H1689 0.930 . S
C1705 C1704 1.377 . S
C1705 C1706 1.379 . S
C1706 H1690 0.931 . S
C1706 C1700 1.383 . S
C1706 C1705 1.379 . S
H1707 C1701 0.959 . S
H1708 C1701 0.961 . S
H1709 C1701 0.960 . S
H1710 C1702 0.930 . S
H1711 C1703 0.929 . S
H1712 C1720 0.929 . S
H1713 C1722 0.930 . S
H1714 C1724 0.930 . S
H1715 C1727 0.929 . S
H1716 C1730 0.930 . S
H1717 C1732 0.960 . S
H1718 C1732 0.960 . S
H1719 C1732 0.960 . S
C1720 H1712 0.929 . S
C1720 C1721 1.377 . S
C1720 C1722 1.384 . S
C1721 C1720 1.377 . S
C1721 C1727 1.390 . S
C1722 H1713 0.930 . S
C1722 C1720 1.384 . S
C1722 C1723 1.372 . S
C1723 C1722 1.372 . S
C1723 C1724 1.400 . S
C1723 C1728 1.490 . S
C1724 H1714 0.930 . S
C1724 C1723 1.400 . S
C1724 C1727 1.386 . S
H1725 C1741 0.930 . S
H1726 C1742 0.931 . S
C1727 H1715 0.929 . S
C1727 C1721 1.390 . S
C1727 C1724 1.386 . S
C1728 C1723 1.490 . S
C1728 C1730 1.395 . S
C1728 C1731 1.403 . S
H1729 C1735 0.930 . S
C1730 H1716 0.930 . S
C1730 C1728 1.395 . S
C1730 C1733 1.403 . S
C1731 C1728 1.403 . S
C1731 C1732 1.524 . S
C1731 C1735 1.400 . S
C1732 H1717 0.960 . S
C1732 H1718 0.960 . S
C1732 H1719 0.960 . S
C1732 C1731 1.524 . S
C1733 C1730 1.403 . S
C1733 C1734 1.392 . S
C1733 C1737 1.495 . S
C1734 C1733 1.392 . S
C1734 C1735 1.385 . S
C1734 C1736 1.478 . S
C1735 H1729 0.930 . S
C1735 C1731 1.400 . S
C1735 C1734 1.385 . S
C1736 C1734 1.478 . S
C1736 C1738 1.381 . S
C1736 C1742 1.383 . S
C1737 C1733 1.495 . S
C1737 H1743 0.959 . S
C1737 H1744 0.961 . S
C1737 H1745 0.960 . S
C1738 C1736 1.381 . S
C1738 C1739 1.394 . S
C1738 H1746 0.930 . S
C1739 C1738 1.394 . S
C1739 C1740 1.383 . S
C1739 H1747 0.929 . S
C1740 C1739 1.383 . S
C1740 C1741 1.377 . S
C1741 H1725 0.930 . S
C1741 C1740 1.377 . S
C1741 C1742 1.379 . S
C1742 H1726 0.931 . S
C1742 C1736 1.383 . S
C1742 C1741 1.379 . S
H1743 C1737 0.959 . S
H1744 C1737 0.961 . S
H1745 C1737 0.960 . S
H1746 C1738 0.930 . S
H1747 C1739 0.929 . S
H1748 C1756 0.929 . S
H1749 C1758 0.930 . S
H1750 C1760 0.930 . S
H1751 C1763 0.929 . S
H1752 C1766 0.930 . S
H1753 C1768 0.960 . S
H1754 C1768 0.960 . S
H1755 C1768 0.960 . S
C1756 H1748 0.929 . S
C1756 C1757 1.377 . S
C1756 C1758 1.384 . S
C1757 C1756 1.377 . S
C1757 C1763 1.390 . S
C1758 H1749 0.930 . S
C1758 C1756 1.384 . S
C1758 C1759 1.372 . S
C1759 C1758 1.372 . S
C1759 C1760 1.400 . S
C1759 C1764 1.490 . S
C1760 H1750 0.930 . S
C1760 C1759 1.400 . S
C1760 C1763 1.386 . S
H1761 C1777 0.930 . S
H1762 C1778 0.931 . S
C1763 H1751 0.929 . S
C1763 C1757 1.390 . S
C1763 C1760 1.386 . S
C1764 C1759 1.490 . S
C1764 C1766 1.395 . S
C1764 C1767 1.403 . S
H1765 C1771 0.930 . S
C1766 H1752 0.930 . S
C1766 C1764 1.395 . S
C1766 C1769 1.403 . S
C1767 C1764 1.403 . S
C1767 C1768 1.524 . S
C1767 C1771 1.400 . S
C1768 H1753 0.960 . S
C1768 H1754 0.960 . S
C1768 H1755 0.960 . S
C1768 C1767 1.524 . S
C1769 C1766 1.403 . S
C1769 C1770 1.392 . S
C1769 C1773 1.495 . S
C1770 C1769 1.392 . S
C1770 C1771 1.385 . S
C1770 C1772 1.478 . S
C1771 H1765 0.930 . S
C1771 C1767 1.400 . S
C1771 C1770 1.385 . S
C1772 C1770 1.478 . S
C1772 C1774 1.381 . S
C1772 C1778 1.383 . S
C1773 C1769 1.495 . S
C1773 H1779 0.959 . S
C1773 H1780 0.961 . S
C1773 H1781 0.960 . S
C1774 C1772 1.381 . S
C1774 C1775 1.394 . S
C1774 H1782 0.930 . S
C1775 C1774 1.394 . S
C1775 C1776 1.383 . S
C1775 H1783 0.929 . S
C1776 C1775 1.383 . S
C1776 C1777 1.377 . S
C1777 H1761 0.930 . S
C1777 C1776 1.377 . S
C1777 C1778 1.379 . S
C1778 H1762 0.931 . S
C1778 C1772 1.383 . S
C1778 C1777 1.379 . S
H1779 C1773 0.959 . S
H1780 C1773 0.961 . S
H1781 C1773 0.960 . S
H1782 C1774 0.930 . S
H1783 C1775 0.929 . S
H1784 C1792 0.929 . S
H1785 C1794 0.930 . S
H1786 C1796 0.930 . S
H1787 C1799 0.929 . S
H1788 C1802 0.930 . S
H1789 C1804 0.960 . S
H1790 C1804 0.960 . S
H1791 C1804 0.960 . S
C1792 H1784 0.929 . S
C1792 C1793 1.377 . S
C1792 C1794 1.384 . S
C1793 C1792 1.377 . S
C1793 C1799 1.390 . S
C1794 H1785 0.930 . S
C1794 C1792 1.384 . S
C1794 C1795 1.372 . S
C1795 C1794 1.372 . S
C1795 C1796 1.400 . S
C1795 C1800 1.490 . S
C1796 H1786 0.930 . S
C1796 C1795 1.400 . S
C1796 C1799 1.386 . S
H1797 C1813 0.930 . S
H1798 C1814 0.931 . S
C1799 H1787 0.929 . S
C1799 C1793 1.390 . S
C1799 C1796 1.386 . S
C1800 C1795 1.490 . S
C1800 C1802 1.395 . S
C1800 C1803 1.403 . S
H1801 C1807 0.930 . S
C1802 H1788 0.930 . S
C1802 C1800 1.395 . S
C1802 C1805 1.403 . S
C1803 C1800 1.403 . S
C1803 C1804 1.524 . S
C1803 C1807 1.400 . S
C1804 H1789 0.960 . S
C1804 H1790 0.960 . S
C1804 H1791 0.960 . S
C1804 C1803 1.524 . S
C1805 C1802 1.403 . S
C1805 C1806 1.392 . S
C1805 C1809 1.495 . S
C1806 C1805 1.392 . S
C1806 C1807 1.385 . S
C1806 C1808 1.478 . S
C1807 H1801 0.930 . S
C1807 C1803 1.400 . S
C1807 C1806 1.385 . S
C1808 C1806 1.478 . S
C1808 C1810 1.381 . S
C1808 C1814 1.383 . S
C1809 C1805 1.495 . S
C1809 H1815 0.959 . S
C1809 H1816 0.961 . S
C1809 H1817 0.960 . S
C1810 C1808 1.381 . S
C1810 C1811 1.394 . S
C1810 H1818 0.930 . S
C1811 C1810 1.394 . S
C1811 C1812 1.383 . S
C1811 H1819 0.929 . S
C1812 C1811 1.383 . S
C1812 C1813 1.377 . S
C1813 H1797 0.930 . S
C1813 C1812 1.377 . S
C1813 C1814 1.379 . S
C1814 H1798 0.931 . S
C1814 C1808 1.383 . S
C1814 C1813 1.379 . S
H1815 C1809 0.959 . S
H1816 C1809 0.961 . S
H1817 C1809 0.960 . S
H1818 C1810 0.930 . S
H1819 C1811 0.929 . S
H1820 C1828 0.929 . S
H1821 C1830 0.930 . S
H1822 C1832 0.930 . S
H1823 C1835 0.929 . S
H1824 C1838 0.930 . S
H1825 C1840 0.960 . S
H1826 C1840 0.960 . S
H1827 C1840 0.960 . S
C1828 H1820 0.929 . S
C1828 C1829 1.377 . S
C1828 C1830 1.384 . S
C1829 C1828 1.377 . S
C1829 C1835 1.390 . S
C1830 H1821 0.930 . S
C1830 C1828 1.384 . S
C1830 C1831 1.372 . S
C1831 C1830 1.372 . S
C1831 C1832 1.400 . S
C1831 C1836 1.490 . S
C1832 H1822 0.930 . S
C1832 C1831 1.400 . S
C1832 C1835 1.386 . S
H1833 C1849 0.930 . S
H1834 C1850 0.931 . S
C1835 H1823 0.929 . S
C1835 C1829 1.390 . S
C1835 C1832 1.386 . S
C1836 C1831 1.490 . S
C1836 C1838 1.395 . S
C1836 C1839 1.403 . S
H1837 C1843 0.930 . S
C1838 H1824 0.930 . S
C1838 C1836 1.395 . S
C1838 C1841 1.403 . S
C1839 C1836 1.403 . S
C1839 C1840 1.524 . S
C1839 C1843 1.400 . S
C1840 H1825 0.960 . S
C1840 H1826 0.960 . S
C1840 H1827 0.960 . S
C1840 C1839 1.524 . S
C1841 C1838 1.403 . S
C1841 C1842 1.392 . S
C1841 C1845 1.495 . S
C1842 C1841 1.392 . S
C1842 C1843 1.385 . S
C1842 C1844 1.478 . S
C1843 H1837 0.930 . S
C1843 C1839 1.400 . S
C1843 C1842 1.385 . S
C1844 C1842 1.478 . S
C1844 C1846 1.381 . S
C1844 C1850 1.383 . S
C1845 C1841 1.495 . S
C1845 H1851 0.959 . S
C1845 H1852 0.961 . S
C1845 H1853 0.960 . S
C1846 C1844 1.381 . S
C1846 C1847 1.394 . S
C1846 H1854 0.930 . S
C1847 C1846 1.394 . S
C1847 C1848 1.383 . S
C1847 H1855 0.929 . S
C1848 C1847 1.383 . S
C1848 C1849 1.377 . S
C1849 H1833 0.930 . S
C1849 C1848 1.377 . S
C1849 C1850 1.379 . S
C1850 H1834 0.931 . S
C1850 C1844 1.383 . S
C1850 C1849 1.379 . S
H1851 C1845 0.959 . S
H1852 C1845 0.961 . S
H1853 C1845 0.960 . S
H1854 C1846 0.930 . S
H1855 C1847 0.929 . S
H1856 C1864 0.929 . S
H1857 C1866 0.930 . S
H1858 C1868 0.930 . S
H1859 C1871 0.929 . S
H1860 C1874 0.930 . S
H1861 C1876 0.960 . S
H1862 C1876 0.960 . S
H1863 C1876 0.960 . S
C1864 H1856 0.929 . S
C1864 C1865 1.377 . S
C1864 C1866 1.384 . S
C1865 C1864 1.377 . S
C1865 C1871 1.390 . S
C1866 H1857 0.930 . S
C1866 C1864 1.384 . S
C1866 C1867 1.372 . S
C1867 C1866 1.372 . S
C1867 C1868 1.400 . S
C1867 C1872 1.490 . S
C1868 H1858 0.930 . S
C1868 C1867 1.400 . S
C1868 C1871 1.386 . S
H1869 C1885 0.930 . S
H1870 C1886 0.931 . S
C1871 H1859 0.929 . S
C1871 C1865 1.390 . S
C1871 C1868 1.386 . S
C1872 C1867 1.490 . S
C1872 C1874 1.395 . S
C1872 C1875 1.403 . S
H1873 C1879 0.930 . S
C1874 H1860 0.930 . S
C1874 C1872 1.395 . S
C1874 C1877 1.403 . S
C1875 C1872 1.403 . S
C1875 C1876 1.524 . S
C1875 C1879 1.400 . S
C1876 H1861 0.960 . S
C1876 H1862 0.960 . S
C1876 H1863 0.960 . S
C1876 C1875 1.524 . S
C1877 C1874 1.403 . S
C1877 C1878 1.392 . S
C1877 C1881 1.495 . S
C1878 C1877 1.392 . S
C1878 C1879 1.385 . S
C1878 C1880 1.478 . S
C1879 H1873 0.930 . S
C1879 C1875 1.400 . S
C1879 C1878 1.385 . S
C1880 C1878 1.478 . S
C1880 C1882 1.381 . S
C1880 C1886 1.383 . S
C1881 C1877 1.495 . S
C1881 H1887 0.959 . S
C1881 H1888 0.961 . S
C1881 H1889 0.960 . S
C1882 C1880 1.381 . S
C1882 C1883 1.394 . S
C1882 H1890 0.930 . S
C1883 C1882 1.394 . S
C1883 C1884 1.383 . S
C1883 H1891 0.929 . S
C1884 C1883 1.383 . S
C1884 C1885 1.377 . S
C1885 H1869 0.930 . S
C1885 C1884 1.377 . S
C1885 C1886 1.379 . S
C1886 H1870 0.931 . S
C1886 C1880 1.383 . S
C1886 C1885 1.379 . S
H1887 C1881 0.959 . S
H1888 C1881 0.961 . S
H1889 C1881 0.960 . S
H1890 C1882 0.930 . S
H1891 C1883 0.929 . S
H1892 C1900 0.929 . S
H1893 C1902 0.930 . S
H1894 C1904 0.930 . S
H1895 C1907 0.929 . S
H1896 C1910 0.930 . S
H1897 C1912 0.960 . S
H1898 C1912 0.960 . S
H1899 C1912 0.960 . S
C1900 H1892 0.929 . S
C1900 C1901 1.377 . S
C1900 C1902 1.384 . S
C1901 C1900 1.377 . S
C1901 C1907 1.390 . S
C1902 H1893 0.930 . S
C1902 C1900 1.384 . S
C1902 C1903 1.372 . S
C1903 C1902 1.372 . S
C1903 C1904 1.400 . S
C1903 C1908 1.490 . S
C1904 H1894 0.930 . S
C1904 C1903 1.400 . S
C1904 C1907 1.386 . S
H1905 C1921 0.930 . S
H1906 C1922 0.931 . S
C1907 H1895 0.929 . S
C1907 C1901 1.390 . S
C1907 C1904 1.386 . S
C1908 C1903 1.490 . S
C1908 C1910 1.395 . S
C1908 C1911 1.403 . S
H1909 C1915 0.930 . S
C1910 H1896 0.930 . S
C1910 C1908 1.395 . S
C1910 C1913 1.403 . S
C1911 C1908 1.403 . S
C1911 C1912 1.524 . S
C1911 C1915 1.400 . S
C1912 H1897 0.960 . S
C1912 H1898 0.960 . S
C1912 H1899 0.960 . S
C1912 C1911 1.524 . S
C1913 C1910 1.403 . S
C1913 C1914 1.392 . S
C1913 C1917 1.495 . S
C1914 C1913 1.392 . S
C1914 C1915 1.385 . S
C1914 C1916 1.478 . S
C1915 H1909 0.930 . S
C1915 C1911 1.400 . S
C1915 C1914 1.385 . S
C1916 C1914 1.478 . S
C1916 C1918 1.381 . S
C1916 C1922 1.383 . S
C1917 C1913 1.495 . S
C1917 H1923 0.959 . S
C1917 H1924 0.961 . S
C1917 H1925 0.960 . S
C1918 C1916 1.381 . S
C1918 C1919 1.394 . S
C1918 H1926 0.930 . S
C1919 C1918 1.394 . S
C1919 C1920 1.383 . S
C1919 H1927 0.929 . S
C1920 C1919 1.383 . S
C1920 C1921 1.377 . S
C1921 H1905 0.930 . S
C1921 C1920 1.377 . S
C1921 C1922 1.379 . S
C1922 H1906 0.931 . S
C1922 C1916 1.383 . S
C1922 C1921 1.379 . S
H1923 C1917 0.959 . S
H1924 C1917 0.961 . S
H1925 C1917 0.960 . S
H1926 C1918 0.930 . S
H1927 C1919 0.929 . S
H1928 C1936 0.929 . S
H1929 C1938 0.930 . S
H1930 C1940 0.930 . S
H1931 C1943 0.929 . S
H1932 C1946 0.930 . S
H1933 C1948 0.960 . S
H1934 C1948 0.960 . S
H1935 C1948 0.960 . S
C1936 H1928 0.929 . S
C1936 C1937 1.377 . S
C1936 C1938 1.384 . S
C1937 C1936 1.377 . S
C1937 C1943 1.390 . S
C1938 H1929 0.930 . S
C1938 C1936 1.384 . S
C1938 C1939 1.372 . S
C1939 C1938 1.372 . S
C1939 C1940 1.400 . S
C1939 C1944 1.490 . S
C1940 H1930 0.930 . S
C1940 C1939 1.400 . S
C1940 C1943 1.386 . S
H1941 C1957 0.930 . S
H1942 C1958 0.931 . S
C1943 H1931 0.929 . S
C1943 C1937 1.390 . S
C1943 C1940 1.386 . S
C1944 C1939 1.490 . S
C1944 C1946 1.395 . S
C1944 C1947 1.403 . S
H1945 C1951 0.930 . S
C1946 H1932 0.930 . S
C1946 C1944 1.395 . S
C1946 C1949 1.403 . S
C1947 C1944 1.403 . S
C1947 C1948 1.524 . S
C1947 C1951 1.400 . S
C1948 H1933 0.960 . S
C1948 H1934 0.960 . S
C1948 H1935 0.960 . S
C1948 C1947 1.524 . S
C1949 C1946 1.403 . S
C1949 C1950 1.392 . S
C1949 C1953 1.495 . S
C1950 C1949 1.392 . S
C1950 C1951 1.385 . S
C1950 C1952 1.478 . S
C1951 H1945 0.930 . S
C1951 C1947 1.400 . S
C1951 C1950 1.385 . S
C1952 C1950 1.478 . S
C1952 C1954 1.381 . S
C1952 C1958 1.383 . S
C1953 C1949 1.495 . S
C1953 H1959 0.959 . S
C1953 H1960 0.961 . S
C1953 H1961 0.960 . S
C1954 C1952 1.381 . S
C1954 C1955 1.394 . S
C1954 H1962 0.930 . S
C1955 C1954 1.394 . S
C1955 C1956 1.383 . S
C1955 H1963 0.929 . S
C1956 C1955 1.383 . S
C1956 C1957 1.377 . S
C1957 H1941 0.930 . S
C1957 C1956 1.377 . S
C1957 C1958 1.379 . S
C1958 H1942 0.931 . S
C1958 C1952 1.383 . S
C1958 C1957 1.379 . S
H1959 C1953 0.959 . S
H1960 C1953 0.961 . S
H1961 C1953 0.960 . S
H1962 C1954 0.930 . S
H1963 C1955 0.929 . S
H1964 C1972 0.929 . S
H1965 C1974 0.930 . S
H1966 C1976 0.930 . S
H1967 C1979 0.929 . S
H1968 C1982 0.930 . S
H1969 C1984 0.960 . S
H1970 C1984 0.960 . S
H1971 C1984 0.960 . S
C1972 H1964 0.929 . S
C1972 C1973 1.377 . S
C1972 C1974 1.384 . S
C1973 C1972 1.377 . S
C1973 C1979 1.390 . S
C1974 H1965 0.930 . S
C1974 C1972 1.384 . S
C1974 C1975 1.372 . S
C1975 C1974 1.372 . S
C1975 C1976 1.400 . S
C1975 C1980 1.490 . S
C1976 H1966 0.930 . S
C1976 C1975 1.400 . S
C1976 C1979 1.386 . S
H1977 C1993 0.930 . S
H1978 C1994 0.931 . S
C1979 H1967 0.929 . S
C1979 C1973 1.390 . S
C1979 C1976 1.386 . S
C1980 C1975 1.490 . S
C1980 C1982 1.395 . S
C1980 C1983 1.403 . S
H1981 C1987 0.930 . S
C1982 H1968 0.930 . S
C1982 C1980 1.395 . S
C1982 C1985 1.403 . S
C1983 C1980 1.403 . S
C1983 C1984 1.524 . S
C1983 C1987 1.400 . S
C1984 H1969 0.960 . S
C1984 H1970 0.960 . S
C1984 H1971 0.960 . S
C1984 C1983 1.524 . S
C1985 C1982 1.403 . S
C1985 C1986 1.392 . S
C1985 C1989 1.495 . S
C1986 C1985 1.392 . S
C1986 C1987 1.385 . S
C1986 C1988 1.478 . S
C1987 H1981 0.930 . S
C1987 C1983 1.400 . S
C1987 C1986 1.385 . S
C1988 C1986 1.478 . S
C1988 C1990 1.381 . S
C1988 C1994 1.383 . S
C1989 C1985 1.495 . S
C1989 H1995 0.959 . S
C1989 H1996 0.961 . S
C1989 H1997 0.960 . S
C1990 C1988 1.381 . S
C1990 C1991 1.394 . S
C1990 H1998 0.930 . S
C1991 C1990 1.394 . S
C1991 C1992 1.383 . S
C1991 H1999 0.929 . S
C1992 C1991 1.383 . S
C1992 C1993 1.377 . S
C1993 H1977 0.930 . S
C1993 C1992 1.377 . S
C1993 C1994 1.379 . S
C1994 H1978 0.931 . S
C1994 C1988 1.383 . S
C1994 C1993 1.379 . S
H1995 C1989 0.959 . S
H1996 C1989 0.961 . S
H1997 C1989 0.960 . S
H1998 C1990 0.930 . S
H1999 C1991 0.929 . S
H2000 C2008 0.929 . S
H2001 C2010 0.930 . S
H2002 C2012 0.930 . S
H2003 C2015 0.929 . S
H2004 C2018 0.930 . S
H2005 C2020 0.960 . S
H2006 C2020 0.960 . S
H2007 C2020 0.960 . S
C2008 H2000 0.929 . S
C2008 C2009 1.377 . S
C2008 C2010 1.384 . S
C2009 C2008 1.377 . S
C2009 C2015 1.390 . S
C2010 H2001 0.930 . S
C2010 C2008 1.384 . S
C2010 C2011 1.372 . S
C2011 C2010 1.372 . S
C2011 C2012 1.400 . S
C2011 C2016 1.490 . S
C2012 H2002 0.930 . S
C2012 C2011 1.400 . S
C2012 C2015 1.386 . S
H2013 C2029 0.930 . S
H2014 C2030 0.931 . S
C2015 H2003 0.929 . S
C2015 C2009 1.390 . S
C2015 C2012 1.386 . S
C2016 C2011 1.490 . S
C2016 C2018 1.395 . S
C2016 C2019 1.403 . S
H2017 C2023 0.930 . S
C2018 H2004 0.930 . S
C2018 C2016 1.395 . S
C2018 C2021 1.403 . S
C2019 C2016 1.403 . S
C2019 C2020 1.524 . S
C2019 C2023 1.400 . S
C2020 H2005 0.960 . S
C2020 H2006 0.960 . S
C2020 H2007 0.960 . S
C2020 C2019 1.524 . S
C2021 C2018 1.403 . S
C2021 C2022 1.392 . S
C2021 C2025 1.495 . S
C2022 C2021 1.392 . S
C2022 C2023 1.385 . S
C2022 C2024 1.478 . S
C2023 H2017 0.930 . S
C2023 C2019 1.400 . S
C2023 C2022 1.385 . S
C2024 C2022 1.478 . S
C2024 C2026 1.381 . S
C2024 C2030 1.383 . S
C2025 C2021 1.495 . S
C2025 H2031 0.959 . S
C2025 H2032 0.961 . S
C2025 H2033 0.960 . S
C2026 C2024 1.381 . S
C2026 C2027 1.394 . S
C2026 H2034 0.930 . S
C2027 C2026 1.394 . S
C2027 C2028 1.383 . S
C2027 H2035 0.929 . S
C2028 C2027 1.383 . S
C2028 C2029 1.377 . S
C2029 H2013 0.930 . S
C2029 C2028 1.377 . S
C2029 C2030 1.379 . S
C2030 H2014 0.931 . S
C2030 C2024 1.383 . S
C2030 C2029 1.379 . S
H2031 C2025 0.959 . S
H2032 C2025 0.961 . S
H2033 C2025 0.960 . S
H2034 C2026 0.930 . S
H2035 C2027 0.929 . S
H2036 C2044 0.929 . S
H2037 C2046 0.930 . S
H2038 C2048 0.930 . S
H2039 C2051 0.929 . S
H2040 C2054 0.930 . S
H2041 C2056 0.960 . S
H2042 C2056 0.960 . S
H2043 C2056 0.960 . S
C2044 H2036 0.929 . S
C2044 C2045 1.377 . S
C2044 C2046 1.384 . S
C2045 C2044 1.377 . S
C2045 C2051 1.390 . S
C2046 H2037 0.930 . S
C2046 C2044 1.384 . S
C2046 C2047 1.372 . S
C2047 C2046 1.372 . S
C2047 C2048 1.400 . S
C2047 C2052 1.490 . S
C2048 H2038 0.930 . S
C2048 C2047 1.400 . S
C2048 C2051 1.386 . S
H2049 C2065 0.930 . S
H2050 C2066 0.931 . S
C2051 H2039 0.929 . S
C2051 C2045 1.390 . S
C2051 C2048 1.386 . S
C2052 C2047 1.490 . S
C2052 C2054 1.395 . S
C2052 C2055 1.403 . S
H2053 C2059 0.930 . S
C2054 H2040 0.930 . S
C2054 C2052 1.395 . S
C2054 C2057 1.403 . S
C2055 C2052 1.403 . S
C2055 C2056 1.524 . S
C2055 C2059 1.400 . S
C2056 H2041 0.960 . S
C2056 H2042 0.960 . S
C2056 H2043 0.960 . S
C2056 C2055 1.524 . S
C2057 C2054 1.403 . S
C2057 C2058 1.392 . S
C2057 C2061 1.495 . S
C2058 C2057 1.392 . S
C2058 C2059 1.385 . S
C2058 C2060 1.478 . S
C2059 H2053 0.930 . S
C2059 C2055 1.400 . S
C2059 C2058 1.385 . S
C2060 C2058 1.478 . S
C2060 C2062 1.381 . S
C2060 C2066 1.383 . S
C2061 C2057 1.495 . S
C2061 H2067 0.959 . S
C2061 H2068 0.961 . S
C2061 H2069 0.960 . S
C2062 C2060 1.381 . S
C2062 C2063 1.394 . S
C2062 H2070 0.930 . S
C2063 C2062 1.394 . S
C2063 C2064 1.383 . S
C2063 H2071 0.929 . S
C2064 C2063 1.383 . S
C2064 C2065 1.377 . S
C2065 H2049 0.930 . S
C2065 C2064 1.377 . S
C2065 C2066 1.379 . S
C2066 H2050 0.931 . S
C2066 C2060 1.383 . S
C2066 C2065 1.379 . S
H2067 C2061 0.959 . S
H2068 C2061 0.961 . S
H2069 C2061 0.960 . S
H2070 C2062 0.930 . S
H2071 C2063 0.929 . S
H2072 C2080 0.929 . S
H2073 C2082 0.930 . S
H2074 C2084 0.930 . S
H2075 C2087 0.929 . S
H2076 C2090 0.930 . S
H2077 C2092 0.960 . S
H2078 C2092 0.960 . S
H2079 C2092 0.960 . S
C2080 H2072 0.929 . S
C2080 C2081 1.377 . S
C2080 C2082 1.384 . S
C2081 C2080 1.377 . S
C2081 C2087 1.390 . S
C2082 H2073 0.930 . S
C2082 C2080 1.384 . S
C2082 C2083 1.372 . S
C2083 C2082 1.372 . S
C2083 C2084 1.400 . S
C2083 C2088 1.490 . S
C2084 H2074 0.930 . S
C2084 C2083 1.400 . S
C2084 C2087 1.386 . S
H2085 C2101 0.930 . S
H2086 C2102 0.931 . S
C2087 H2075 0.929 . S
C2087 C2081 1.390 . S
C2087 C2084 1.386 . S
C2088 C2083 1.490 . S
C2088 C2090 1.395 . S
C2088 C2091 1.403 . S
H2089 C2095 0.930 . S
C2090 H2076 0.930 . S
C2090 C2088 1.395 . S
C2090 C2093 1.403 . S
C2091 C2088 1.403 . S
C2091 C2092 1.524 . S
C2091 C2095 1.400 . S
C2092 H2077 0.960 . S
C2092 H2078 0.960 . S
C2092 H2079 0.960 . S
C2092 C2091 1.524 . S
C2093 C2090 1.403 . S
C2093 C2094 1.392 . S
C2093 C2097 1.495 . S
C2094 C2093 1.392 . S
C2094 C2095 1.385 . S
C2094 C2096 1.478 . S
C2095 H2089 0.930 . S
C2095 C2091 1.400 . S
C2095 C2094 1.385 . S
C2096 C2094 1.478 . S
C2096 C2098 1.381 . S
C2096 C2102 1.383 . S
C2097 C2093 1.495 . S
C2097 H2103 0.959 . S
C2097 H2104 0.961 . S
C2097 H2105 0.960 . S
C2098 C2096 1.381 . S
C2098 C2099 1.394 . S
C2098 H2106 0.930 . S
C2099 C2098 1.394 . S
C2099 C2100 1.383 . S
C2099 H2107 0.929 . S
C2100 C2099 1.383 . S
C2100 C2101 1.377 . S
C2101 H2085 0.930 . S
C2101 C2100 1.377 . S
C2101 C2102 1.379 . S
C2102 H2086 0.931 . S
C2102 C2096 1.383 . S
C2102 C2101 1.379 . S
H2103 C2097 0.959 . S
H2104 C2097 0.961 . S
H2105 C2097 0.960 . S
H2106 C2098 0.930 . S
H2107 C2099 0.929 . S
H2108 C2116 0.929 . S
H2109 C2118 0.930 . S
H2110 C2120 0.930 . S
H2111 C2123 0.929 . S
H2112 C2126 0.930 . S
H2113 C2128 0.960 . S
H2114 C2128 0.960 . S
H2115 C2128 0.960 . S
C2116 H2108 0.929 . S
C2116 C2117 1.377 . S
C2116 C2118 1.384 . S
C2117 C2116 1.377 . S
C2117 C2123 1.390 . S
C2118 H2109 0.930 . S
C2118 C2116 1.384 . S
C2118 C2119 1.372 . S
C2119 C2118 1.372 . S
C2119 C2120 1.400 . S
C2119 C2124 1.490 . S
C2120 H2110 0.930 . S
C2120 C2119 1.400 . S
C2120 C2123 1.386 . S
H2121 C2137 0.930 . S
H2122 C2138 0.931 . S
C2123 H2111 0.929 . S
C2123 C2117 1.390 . S
C2123 C2120 1.386 . S
C2124 C2119 1.490 . S
C2124 C2126 1.395 . S
C2124 C2127 1.403 . S
H2125 C2131 0.930 . S
C2126 H2112 0.930 . S
C2126 C2124 1.395 . S
C2126 C2129 1.403 . S
C2127 C2124 1.403 . S
C2127 C2128 1.524 . S
C2127 C2131 1.400 . S
C2128 H2113 0.960 . S
C2128 H2114 0.960 . S
C2128 H2115 0.960 . S
C2128 C2127 1.524 . S
C2129 C2126 1.403 . S
C2129 C2130 1.392 . S
C2129 C2133 1.495 . S
C2130 C2129 1.392 . S
C2130 C2131 1.385 . S
C2130 C2132 1.478 . S
C2131 H2125 0.930 . S
C2131 C2127 1.400 . S
C2131 C2130 1.385 . S
C2132 C2130 1.478 . S
C2132 C2134 1.381 . S
C2132 C2138 1.383 . S
C2133 C2129 1.495 . S
C2133 H2139 0.959 . S
C2133 H2140 0.961 . S
C2133 H2141 0.960 . S
C2134 C2132 1.381 . S
C2134 C2135 1.394 . S
C2134 H2142 0.930 . S
C2135 C2134 1.394 . S
C2135 C2136 1.383 . S
C2135 H2143 0.929 . S
C2136 C2135 1.383 . S
C2136 C2137 1.377 . S
C2137 H2121 0.930 . S
C2137 C2136 1.377 . S
C2137 C2138 1.379 . S
C2138 H2122 0.931 . S
C2138 C2132 1.383 . S
C2138 C2137 1.379 . S
H2139 C2133 0.959 . S
H2140 C2133 0.961 . S
H2141 C2133 0.960 . S
H2142 C2134 0.930 . S
H2143 C2135 0.929 . S
H2144 C2152 0.929 . S
H2145 C2154 0.930 . S
H2146 C2156 0.930 . S
H2147 C2159 0.929 . S
H2148 C2162 0.930 . S
H2149 C2164 0.960 . S
H2150 C2164 0.960 . S
H2151 C2164 0.960 . S
C2152 H2144 0.929 . S
C2152 C2153 1.377 . S
C2152 C2154 1.384 . S
C2153 C2152 1.377 . S
C2153 C2159 1.390 . S
C2154 H2145 0.930 . S
C2154 C2152 1.384 . S
C2154 C2155 1.372 . S
C2155 C2154 1.372 . S
C2155 C2156 1.400 . S
C2155 C2160 1.490 . S
C2156 H2146 0.930 . S
C2156 C2155 1.400 . S
C2156 C2159 1.386 . S
H2157 C2173 0.930 . S
H2158 C2174 0.931 . S
C2159 H2147 0.929 . S
C2159 C2153 1.390 . S
C2159 C2156 1.386 . S
C2160 C2155 1.490 . S
C2160 C2162 1.395 . S
C2160 C2163 1.403 . S
H2161 C2167 0.930 . S
C2162 H2148 0.930 . S
C2162 C2160 1.395 . S
C2162 C2165 1.403 . S
C2163 C2160 1.403 . S
C2163 C2164 1.524 . S
C2163 C2167 1.400 . S
C2164 H2149 0.960 . S
C2164 H2150 0.960 . S
C2164 H2151 0.960 . S
C2164 C2163 1.524 . S
C2165 C2162 1.403 . S
C2165 C2166 1.392 . S
C2165 C2169 1.495 . S
C2166 C2165 1.392 . S
C2166 C2167 1.385 . S
C2166 C2168 1.478 . S
C2167 H2161 0.930 . S
C2167 C2163 1.400 . S
C2167 C2166 1.385 . S
C2168 C2166 1.478 . S
C2168 C2170 1.381 . S
C2168 C2174 1.383 . S
C2169 C2165 1.495 . S
C2169 H2175 0.959 . S
C2169 H2176 0.961 . S
C2169 H2177 0.960 . S
C2170 C2168 1.381 . S
C2170 C2171 1.394 . S
C2170 H2178 0.930 . S
C2171 C2170 1.394 . S
C2171 C2172 1.383 . S
C2171 H2179 0.929 . S
C2172 C2171 1.383 . S
C2172 C2173 1.377 . S
C2173 H2157 0.930 . S
C2173 C2172 1.377 . S
C2173 C2174 1.379 . S
C2174 H2158 0.931 . S
C2174 C2168 1.383 . S
C2174 C2173 1.379 . S
H2175 C2169 0.959 . S
H2176 C2169 0.961 . S
H2177 C2169 0.960 . S
H2178 C2170 0.930 . S
H2179 C2171 0.929 . S
H2180 C2188 0.929 . S
H2181 C2190 0.930 . S
H2182 C2192 0.930 . S
H2183 C2195 0.929 . S
H2184 C2198 0.930 . S
H2185 C2200 0.960 . S
H2186 C2200 0.960 . S
H2187 C2200 0.960 . S
C2188 H2180 0.929 . S
C2188 C2189 1.377 . S
C2188 C2190 1.384 . S
C2189 C2188 1.377 . S
C2189 C2195 1.390 . S
C2190 H2181 0.930 . S
C2190 C2188 1.384 . S
C2190 C2191 1.372 . S
C2191 C2190 1.372 . S
C2191 C2192 1.400 . S
C2191 C2196 1.490 . S
C2192 H2182 0.930 . S
C2192 C2191 1.400 . S
C2192 C2195 1.386 . S
H2193 C2209 0.930 . S
H2194 C2210 0.931 . S
C2195 H2183 0.929 . S
C2195 C2189 1.390 . S
C2195 C2192 1.386 . S
C2196 C2191 1.490 . S
C2196 C2198 1.395 . S
C2196 C2199 1.403 . S
H2197 C2203 0.930 . S
C2198 H2184 0.930 . S
C2198 C2196 1.395 . S
C2198 C2201 1.403 . S
C2199 C2196 1.403 . S
C2199 C2200 1.524 . S
C2199 C2203 1.400 . S
C2200 H2185 0.960 . S
C2200 H2186 0.960 . S
C2200 H2187 0.960 . S
C2200 C2199 1.524 . S
C2201 C2198 1.403 . S
C2201 C2202 1.392 . S
C2201 C2205 1.495 . S
C2202 C2201 1.392 . S
C2202 C2203 1.385 . S
C2202 C2204 1.478 . S
C2203 H2197 0.930 . S
C2203 C2199 1.400 . S
C2203 C2202 1.385 . S
C2204 C2202 1.478 . S
C2204 C2206 1.381 . S
C2204 C2210 1.383 . S
C2205 C2201 1.495 . S
C2205 H2211 0.959 . S
C2205 H2212 0.961 . S
C2205 H2213 0.960 . S
C2206 C2204 1.381 . S
C2206 C2207 1.394 . S
C2206 H2214 0.930 . S
C2207 C2206 1.394 . S
C2207 C2208 1.383 . S
C2207 H2215 0.929 . S
C2208 C2207 1.383 . S
C2208 C2209 1.377 . S
C2209 H2193 0.930 . S
C2209 C2208 1.377 . S
C2209 C2210 1.379 . S
C2210 H2194 0.931 . S
C2210 C2204 1.383 . S
C2210 C2209 1.379 . S
H2211 C2205 0.959 . S
H2212 C2205 0.961 . S
H2213 C2205 0.960 . S
H2214 C2206 0.930 . S
H2215 C2207 0.929 . S
H2216 C2224 0.929 . S
H2217 C2226 0.930 . S
H2218 C2228 0.930 . S
H2219 C2231 0.929 . S
H2220 C2234 0.930 . S
H2221 C2236 0.960 . S
H2222 C2236 0.960 . S
H2223 C2236 0.960 . S
C2224 H2216 0.929 . S
C2224 C2225 1.377 . S
C2224 C2226 1.384 . S
C2225 C2224 1.377 . S
C2225 C2231 1.390 . S
C2226 H2217 0.930 . S
C2226 C2224 1.384 . S
C2226 C2227 1.372 . S
C2227 C2226 1.372 . S
C2227 C2228 1.400 . S
C2227 C2232 1.490 . S
C2228 H2218 0.930 . S
C2228 C2227 1.400 . S
C2228 C2231 1.386 . S
H2229 C2245 0.930 . S
H2230 C2246 0.931 . S
C2231 H2219 0.929 . S
C2231 C2225 1.390 . S
C2231 C2228 1.386 . S
C2232 C2227 1.490 . S
C2232 C2234 1.395 . S
C2232 C2235 1.403 . S
H2233 C2239 0.930 . S
C2234 H2220 0.930 . S
C2234 C2232 1.395 . S
C2234 C2237 1.403 . S
C2235 C2232 1.403 . S
C2235 C2236 1.524 . S
C2235 C2239 1.400 . S
C2236 H2221 0.960 . S
C2236 H2222 0.960 . S
C2236 H2223 0.960 . S
C2236 C2235 1.524 . S
C2237 C2234 1.403 . S
C2237 C2238 1.392 . S
C2237 C2241 1.495 . S
C2238 C2237 1.392 . S
C2238 C2239 1.385 . S
C2238 C2240 1.478 . S
C2239 H2233 0.930 . S
C2239 C2235 1.400 . S
C2239 C2238 1.385 . S
C2240 C2238 1.478 . S
C2240 C2242 1.381 . S
C2240 C2246 1.383 . S
C2241 C2237 1.495 . S
C2241 H2247 0.959 . S
C2241 H2248 0.961 . S
C2241 H2249 0.960 . S
C2242 C2240 1.381 . S
C2242 C2243 1.394 . S
C2242 H2250 0.930 . S
C2243 C2242 1.394 . S
C2243 C2244 1.383 . S
C2243 H2251 0.929 . S
C2244 C2243 1.383 . S
C2244 C2245 1.377 . S
C2245 H2229 0.930 . S
C2245 C2244 1.377 . S
C2245 C2246 1.379 . S
C2246 H2230 0.931 . S
C2246 C2240 1.383 . S
C2246 C2245 1.379 . S
H2247 C2241 0.959 . S
H2248 C2241 0.961 . S
H2249 C2241 0.960 . S
H2250 C2242 0.930 . S
H2251 C2243 0.929 . S
H2252 C2260 0.929 . S
H2253 C2262 0.930 . S
H2254 C2264 0.930 . S
H2255 C2267 0.929 . S
H2256 C2270 0.930 . S
H2257 C2272 0.960 . S
H2258 C2272 0.960 . S
H2259 C2272 0.960 . S
C2260 H2252 0.929 . S
C2260 C2261 1.377 . S
C2260 C2262 1.384 . S
C2261 C2260 1.377 . S
C2261 C2267 1.390 . S
C2262 H2253 0.930 . S
C2262 C2260 1.384 . S
C2262 C2263 1.372 . S
C2263 C2262 1.372 . S
C2263 C2264 1.400 . S
C2263 C2268 1.490 . S
C2264 H2254 0.930 . S
C2264 C2263 1.400 . S
C2264 C2267 1.386 . S
H2265 C2281 0.930 . S
H2266 C2282 0.931 . S
C2267 H2255 0.929 . S
C2267 C2261 1.390 . S
C2267 C2264 1.386 . S
C2268 C2263 1.490 . S
C2268 C2270 1.395 . S
C2268 C2271 1.403 . S
H2269 C2275 0.930 . S
C2270 H2256 0.930 . S
C2270 C2268 1.395 . S
C2270 C2273 1.403 . S
C2271 C2268 1.403 . S
C2271 C2272 1.524 . S
C2271 C2275 1.400 . S
C2272 H2257 0.960 . S
C2272 H2258 0.960 . S
C2272 H2259 0.960 . S
C2272 C2271 1.524 . S
C2273 C2270 1.403 . S
C2273 C2274 1.392 . S
C2273 C2277 1.495 . S
C2274 C2273 1.392 . S
C2274 C2275 1.385 . S
C2274 C2276 1.478 . S
C2275 H2269 0.930 . S
C2275 C2271 1.400 . S
C2275 C2274 1.385 . S
C2276 C2274 1.478 . S
C2276 C2278 1.381 . S
C2276 C2282 1.383 . S
C2277 C2273 1.495 . S
C2277 H2283 0.959 . S
C2277 H2284 0.961 . S
C2277 H2285 0.960 . S
C2278 C2276 1.381 . S
C2278 C2279 1.394 . S
C2278 H2286 0.930 . S
C2279 C2278 1.394 . S
C2279 C2280 1.383 . S
C2279 H2287 0.929 . S
C2280 C2279 1.383 . S
C2280 C2281 1.377 . S
C2281 H2265 0.930 . S
C2281 C2280 1.377 . S
C2281 C2282 1.379 . S
C2282 H2266 0.931 . S
C2282 C2276 1.383 . S
C2282 C2281 1.379 . S
H2283 C2277 0.959 . S
H2284 C2277 0.961 . S
H2285 C2277 0.960 . S
H2286 C2278 0.930 . S
H2287 C2279 0.929 . S
H2288 C2296 0.929 . S
H2289 C2298 0.930 . S
H2290 C2300 0.930 . S
H2291 C2303 0.929 . S
H2292 C2306 0.930 . S
H2293 C2308 0.960 . S
H2294 C2308 0.960 . S
H2295 C2308 0.960 . S
C2296 H2288 0.929 . S
C2296 C2297 1.377 . S
C2296 C2298 1.384 . S
C2297 C2296 1.377 . S
C2297 C2303 1.390 . S
C2298 H2289 0.930 . S
C2298 C2296 1.384 . S
C2298 C2299 1.372 . S
C2299 C2298 1.372 . S
C2299 C2300 1.400 . S
C2299 C2304 1.490 . S
C2300 H2290 0.930 . S
C2300 C2299 1.400 . S
C2300 C2303 1.386 . S
H2301 C2317 0.930 . S
H2302 C2318 0.931 . S
C2303 H2291 0.929 . S
C2303 C2297 1.390 . S
C2303 C2300 1.386 . S
C2304 C2299 1.490 . S
C2304 C2306 1.395 . S
C2304 C2307 1.403 . S
H2305 C2311 0.930 . S
C2306 H2292 0.930 . S
C2306 C2304 1.395 . S
C2306 C2309 1.403 . S
C2307 C2304 1.403 . S
C2307 C2308 1.524 . S
C2307 C2311 1.400 . S
C2308 H2293 0.960 . S
C2308 H2294 0.960 . S
C2308 H2295 0.960 . S
C2308 C2307 1.524 . S
C2309 C2306 1.403 . S
C2309 C2310 1.392 . S
C2309 C2313 1.495 . S
C2310 C2309 1.392 . S
C2310 C2311 1.385 . S
C2310 C2312 1.478 . S
C2311 H2305 0.930 . S
C2311 C2307 1.400 . S
C2311 C2310 1.385 . S
C2312 C2310 1.478 . S
C2312 C2314 1.381 . S
C2312 C2318 1.383 . S
C2313 C2309 1.495 . S
C2313 H2319 0.959 . S
C2313 H2320 0.961 . S
C2313 H2321 0.960 . S
C2314 C2312 1.381 . S
C2314 C2315 1.394 . S
C2314 H2322 0.930 . S
C2315 C2314 1.394 . S
C2315 C2316 1.383 . S
C2315 H2323 0.929 . S
C2316 C2315 1.383 . S
C2316 C2317 1.377 . S
C2317 H2301 0.930 . S
C2317 C2316 1.377 . S
C2317 C2318 1.379 . S
C2318 H2302 0.931 . S
C2318 C2312 1.383 . S
C2318 C2317 1.379 . S
H2319 C2313 0.959 . S
H2320 C2313 0.961 . S
H2321 C2313 0.960 . S
H2322 C2314 0.930 . S
H2323 C2315 0.929 . S
H2324 C2332 0.929 . S
H2325 C2334 0.930 . S
H2326 C2336 0.930 . S
H2327 C2339 0.929 . S
H2328 C2342 0.930 . S
H2329 C2344 0.960 . S
H2330 C2344 0.960 . S
H2331 C2344 0.960 . S
C2332 H2324 0.929 . S
C2332 C2333 1.377 . S
C2332 C2334 1.384 . S
C2333 C2332 1.377 . S
C2333 C2339 1.390 . S
C2334 H2325 0.930 . S
C2334 C2332 1.384 . S
C2334 C2335 1.372 . S
C2335 C2334 1.372 . S
C2335 C2336 1.400 . S
C2335 C2340 1.490 . S
C2336 H2326 0.930 . S
C2336 C2335 1.400 . S
C2336 C2339 1.386 . S
H2337 C2353 0.930 . S
H2338 C2354 0.931 . S
C2339 H2327 0.929 . S
C2339 C2333 1.390 . S
C2339 C2336 1.386 . S
C2340 C2335 1.490 . S
C2340 C2342 1.395 . S
C2340 C2343 1.403 . S
H2341 C2347 0.930 . S
C2342 H2328 0.930 . S
C2342 C2340 1.395 . S
C2342 C2345 1.403 . S
C2343 C2340 1.403 . S
C2343 C2344 1.524 . S
C2343 C2347 1.400 . S
C2344 H2329 0.960 . S
C2344 H2330 0.960 . S
C2344 H2331 0.960 . S
C2344 C2343 1.524 . S
C2345 C2342 1.403 . S
C2345 C2346 1.392 . S
C2345 C2349 1.495 . S
C2346 C2345 1.392 . S
C2346 C2347 1.385 . S
C2346 C2348 1.478 . S
C2347 H2341 0.930 . S
C2347 C2343 1.400 . S
C2347 C2346 1.385 . S
C2348 C2346 1.478 . S
C2348 C2350 1.381 . S
C2348 C2354 1.383 . S
C2349 C2345 1.495 . S
C2349 H2355 0.959 . S
C2349 H2356 0.961 . S
C2349 H2357 0.960 . S
C2350 C2348 1.381 . S
C2350 C2351 1.394 . S
C2350 H2358 0.930 . S
C2351 C2350 1.394 . S
C2351 C2352 1.383 . S
C2351 H2359 0.929 . S
C2352 C2351 1.383 . S
C2352 C2353 1.377 . S
C2353 H2337 0.930 . S
C2353 C2352 1.377 . S
C2353 C2354 1.379 . S
C2354 H2338 0.931 . S
C2354 C2348 1.383 . S
C2354 C2353 1.379 . S
H2355 C2349 0.959 . S
H2356 C2349 0.961 . S
H2357 C2349 0.960 . S
H2358 C2350 0.930 . S
H2359 C2351 0.929 . S
H2360 C2368 0.929 . S
H2361 C2370 0.930 . S
H2362 C2372 0.930 . S
H2363 C2375 0.929 . S
H2364 C2378 0.930 . S
H2365 C2380 0.960 . S
H2366 C2380 0.960 . S
H2367 C2380 0.960 . S
C2368 H2360 0.929 . S
C2368 C2369 1.377 . S
C2368 C2370 1.384 . S
C2369 C2368 1.377 . S
C2369 C2375 1.390 . S
C2370 H2361 0.930 . S
C2370 C2368 1.384 . S
C2370 C2371 1.372 . S
C2371 C2370 1.372 . S
C2371 C2372 1.400 . S
C2371 C2376 1.490 . S
C2372 H2362 0.930 . S
C2372 C2371 1.400 . S
C2372 C2375 1.386 . S
H2373 C2389 0.930 . S
H2374 C2390 0.931 . S
C2375 H2363 0.929 . S
C2375 C2369 1.390 . S
C2375 C2372 1.386 . S
C2376 C2371 1.490 . S
C2376 C2378 1.395 . S
C2376 C2379 1.403 . S
H2377 C2383 0.930 . S
C2378 H2364 0.930 . S
C2378 C2376 1.395 . S
C2378 C2381 1.403 . S
C2379 C2376 1.403 . S
C2379 C2380 1.524 . S
C2379 C2383 1.400 . S
C2380 H2365 0.960 . S
C2380 H2366 0.960 . S
C2380 H2367 0.960 . S
C2380 C2379 1.524 . S
C2381 C2378 1.403 . S
C2381 C2382 1.392 . S
C2381 C2385 1.495 . S
C2382 C2381 1.392 . S
C2382 C2383 1.385 . S
C2382 C2384 1.478 . S
C2383 H2377 0.930 . S
C2383 C2379 1.400 . S
C2383 C2382 1.385 . S
C2384 C2382 1.478 . S
C2384 C2386 1.381 . S
C2384 C2390 1.383 . S
C2385 C2381 1.495 . S
C2385 H2391 0.959 . S
C2385 H2392 0.961 . S
C2385 H2393 0.960 . S
C2386 C2384 1.381 . S
C2386 C2387 1.394 . S
C2386 H2394 0.930 . S
C2387 C2386 1.394 . S
C2387 C2388 1.383 . S
C2387 H2395 0.929 . S
C2388 C2387 1.383 . S
C2388 C2389 1.377 . S
C2389 H2373 0.930 . S
C2389 C2388 1.377 . S
C2389 C2390 1.379 . S
C2390 H2374 0.931 . S
C2390 C2384 1.383 . S
C2390 C2389 1.379 . S
H2391 C2385 0.959 . S
H2392 C2385 0.961 . S
H2393 C2385 0.960 . S
H2394 C2386 0.930 . S
H2395 C2387 0.929 . S
H2396 C2404 0.929 . S
H2397 C2406 0.930 . S
H2398 C2408 0.930 . S
H2399 C2411 0.929 . S
H2400 C2414 0.930 . S
H2401 C2416 0.960 . S
H2402 C2416 0.960 . S
H2403 C2416 0.960 . S
C2404 H2396 0.929 . S
C2404 C2405 1.377 . S
C2404 C2406 1.384 . S
C2405 C2404 1.377 . S
C2405 C2411 1.390 . S
C2406 H2397 0.930 . S
C2406 C2404 1.384 . S
C2406 C2407 1.372 . S
C2407 C2406 1.372 . S
C2407 C2408 1.400 . S
C2407 C2412 1.490 . S
C2408 H2398 0.930 . S
C2408 C2407 1.400 . S
C2408 C2411 1.386 . S
H2409 C2425 0.930 . S
H2410 C2426 0.931 . S
C2411 H2399 0.929 . S
C2411 C2405 1.390 . S
C2411 C2408 1.386 . S
C2412 C2407 1.490 . S
C2412 C2414 1.395 . S
C2412 C2415 1.403 . S
H2413 C2419 0.930 . S
C2414 H2400 0.930 . S
C2414 C2412 1.395 . S
C2414 C2417 1.403 . S
C2415 C2412 1.403 . S
C2415 C2416 1.524 . S
C2415 C2419 1.400 . S
C2416 H2401 0.960 . S
C2416 H2402 0.960 . S
C2416 H2403 0.960 . S
C2416 C2415 1.524 . S
C2417 C2414 1.403 . S
C2417 C2418 1.392 . S
C2417 C2421 1.495 . S
C2418 C2417 1.392 . S
C2418 C2419 1.385 . S
C2418 C2420 1.478 . S
C2419 H2413 0.930 . S
C2419 C2415 1.400 . S
C2419 C2418 1.385 . S
C2420 C2418 1.478 . S
C2420 C2422 1.381 . S
C2420 C2426 1.383 . S
C2421 C2417 1.495 . S
C2421 H2427 0.959 . S
C2421 H2428 0.961 . S
C2421 H2429 0.960 . S
C2422 C2420 1.381 . S
C2422 C2423 1.394 . S
C2422 H2430 0.930 . S
C2423 C2422 1.394 . S
C2423 C2424 1.383 . S
C2423 H2431 0.929 . S
C2424 C2423 1.383 . S
C2424 C2425 1.377 . S
C2425 H2409 0.930 . S
C2425 C2424 1.377 . S
C2425 C2426 1.379 . S
C2426 H2410 0.931 . S
C2426 C2420 1.383 . S
C2426 C2425 1.379 . S
H2427 C2421 0.959 . S
H2428 C2421 0.961 . S
H2429 C2421 0.960 . S
H2430 C2422 0.930 . S
H2431 C2423 0.929 . S
H2432 C2440 0.929 . S
H2433 C2442 0.930 . S
H2434 C2444 0.930 . S
H2435 C2447 0.929 . S
H2436 C2450 0.930 . S
H2437 C2452 0.960 . S
H2438 C2452 0.960 . S
H2439 C2452 0.960 . S
C2440 H2432 0.929 . S
C2440 C2441 1.377 . S
C2440 C2442 1.384 . S
C2441 C2440 1.377 . S
C2441 C2447 1.390 . S
C2442 H2433 0.930 . S
C2442 C2440 1.384 . S
C2442 C2443 1.372 . S
C2443 C2442 1.372 . S
C2443 C2444 1.400 . S
C2443 C2448 1.490 . S
C2444 H2434 0.930 . S
C2444 C2443 1.400 . S
C2444 C2447 1.386 . S
H2445 C2461 0.930 . S
H2446 C2462 0.931 . S
C2447 H2435 0.929 . S
C2447 C2441 1.390 . S
C2447 C2444 1.386 . S
C2448 C2443 1.490 . S
C2448 C2450 1.395 . S
C2448 C2451 1.403 . S
H2449 C2455 0.930 . S
C2450 H2436 0.930 . S
C2450 C2448 1.395 . S
C2450 C2453 1.403 1_565 S
C2451 C2448 1.403 . S
C2451 C2452 1.524 . S
C2451 C2455 1.400 1_565 S
C2452 H2437 0.960 . S
C2452 H2438 0.960 . S
C2452 H2439 0.960 . S
C2452 C2451 1.524 . S
C2453 C2450 1.403 1_545 S
C2453 C2454 1.392 . S
C2453 C2457 1.495 . S
C2454 C2453 1.392 . S
C2454 C2455 1.385 . S
C2454 C2456 1.478 . S
C2455 H2449 0.930 . S
C2455 C2451 1.400 1_545 S
C2455 C2454 1.385 . S
C2456 C2454 1.478 . S
C2456 C2458 1.381 . S
C2456 C2462 1.383 . S
C2457 C2453 1.495 . S
C2457 H2463 0.959 . S
C2457 H2464 0.961 . S
C2457 H2465 0.960 . S
C2458 C2456 1.381 . S
C2458 C2459 1.394 . S
C2458 H2466 0.930 . S
C2459 C2458 1.394 . S
C2459 C2460 1.383 . S
C2459 H2467 0.929 . S
C2460 C2459 1.383 . S
C2460 C2461 1.377 . S
C2461 H2445 0.930 . S
C2461 C2460 1.377 . S
C2461 C2462 1.379 . S
C2462 H2446 0.931 . S
C2462 C2456 1.383 . S
C2462 C2461 1.379 . S
H2463 C2457 0.959 . S
H2464 C2457 0.961 . S
H2465 C2457 0.960 . S
H2466 C2458 0.930 . S
H2467 C2459 0.929 . S
H2468 C2476 0.929 . S
H2469 C2478 0.930 . S
H2470 C2480 0.930 . S
H2471 C2483 0.929 . S
H2472 C2486 0.930 . S
H2473 C2488 0.960 . S
H2474 C2488 0.960 . S
H2475 C2488 0.960 . S
C2476 H2468 0.929 . S
C2476 C2477 1.377 . S
C2476 C2478 1.384 . S
C2477 C2476 1.377 . S
C2477 C2483 1.390 . S
C2478 H2469 0.930 . S
C2478 C2476 1.384 . S
C2478 C2479 1.372 . S
C2479 C2478 1.372 . S
C2479 C2480 1.400 . S
C2479 C2484 1.490 . S
C2480 H2470 0.930 . S
C2480 C2479 1.400 . S
C2480 C2483 1.386 . S
H2481 C2497 0.930 . S
H2482 C2498 0.931 . S
C2483 H2471 0.929 . S
C2483 C2477 1.390 . S
C2483 C2480 1.386 . S
C2484 C2479 1.490 . S
C2484 C2486 1.395 . S
C2484 C2487 1.403 . S
H2485 C2491 0.930 . S
C2486 H2472 0.930 . S
C2486 C2484 1.395 . S
C2486 C2489 1.403 1_655 S
C2487 C2484 1.403 . S
C2487 C2488 1.524 . S
C2487 C2491 1.400 1_655 S
C2488 H2473 0.960 . S
C2488 H2474 0.960 . S
C2488 H2475 0.960 . S
C2488 C2487 1.524 . S
C2489 C2486 1.403 1_455 S
C2489 C2490 1.392 . S
C2489 C2493 1.495 . S
C2490 C2489 1.392 . S
C2490 C2491 1.385 . S
C2490 C2492 1.478 . S
C2491 H2485 0.930 . S
C2491 C2487 1.400 1_455 S
C2491 C2490 1.385 . S
C2492 C2490 1.478 . S
C2492 C2494 1.381 . S
C2492 C2498 1.383 . S
C2493 C2489 1.495 . S
C2493 H2499 0.959 . S
C2493 H2500 0.961 . S
C2493 H2501 0.960 . S
C2494 C2492 1.381 . S
C2494 C2495 1.394 . S
C2494 H2502 0.930 . S
C2495 C2494 1.394 . S
C2495 C2496 1.383 . S
C2495 H2503 0.929 . S
C2496 C2495 1.383 . S
C2496 C2497 1.377 . S
C2497 H2481 0.930 . S
C2497 C2496 1.377 . S
C2497 C2498 1.379 . S
C2498 H2482 0.931 . S
C2498 C2492 1.383 . S
C2498 C2497 1.379 . S
H2499 C2493 0.959 . S
H2500 C2493 0.961 . S
H2501 C2493 0.960 . S
H2502 C2494 0.930 . S
H2503 C2495 0.929 . S
H2504 C2512 0.929 . S
H2505 C2514 0.930 . S
H2506 C2516 0.930 . S
H2507 C2519 0.929 . S
H2508 C2522 0.930 . S
H2509 C2524 0.960 . S
H2510 C2524 0.960 . S
H2511 C2524 0.960 . S
C2512 H2504 0.929 . S
C2512 C2513 1.377 . S
C2512 C2514 1.384 . S
C2513 C2512 1.377 . S
C2513 C2519 1.390 . S
C2514 H2505 0.930 . S
C2514 C2512 1.384 . S
C2514 C2515 1.372 . S
C2515 C2514 1.372 . S
C2515 C2516 1.400 . S
C2515 C2520 1.490 . S
C2516 H2506 0.930 . S
C2516 C2515 1.400 . S
C2516 C2519 1.386 . S
H2517 C2533 0.930 . S
H2518 C2534 0.931 . S
C2519 H2507 0.929 . S
C2519 C2513 1.390 . S
C2519 C2516 1.386 . S
C2520 C2515 1.490 . S
C2520 C2522 1.395 . S
C2520 C2523 1.403 . S
H2521 C2527 0.930 . S
C2522 H2508 0.930 . S
C2522 C2520 1.395 . S
C2522 C2525 1.403 1_545 S
C2523 C2520 1.403 . S
C2523 C2524 1.524 . S
C2523 C2527 1.400 1_545 S
C2524 H2509 0.960 . S
C2524 H2510 0.960 . S
C2524 H2511 0.960 . S
C2524 C2523 1.524 . S
C2525 C2522 1.403 1_565 S
C2525 C2526 1.392 . S
C2525 C2529 1.495 . S
C2526 C2525 1.392 . S
C2526 C2527 1.385 . S
C2526 C2528 1.478 . S
C2527 H2521 0.930 . S
C2527 C2523 1.400 1_565 S
C2527 C2526 1.385 . S
C2528 C2526 1.478 . S
C2528 C2530 1.381 . S
C2528 C2534 1.383 . S
C2529 C2525 1.495 . S
C2529 H2535 0.959 . S
C2529 H2536 0.961 . S
C2529 H2537 0.960 . S
C2530 C2528 1.381 . S
C2530 C2531 1.394 . S
C2530 H2538 0.930 . S
C2531 C2530 1.394 . S
C2531 C2532 1.383 . S
C2531 H2539 0.929 . S
C2532 C2531 1.383 . S
C2532 C2533 1.377 . S
C2533 H2517 0.930 . S
C2533 C2532 1.377 . S
C2533 C2534 1.379 . S
C2534 H2518 0.931 . S
C2534 C2528 1.383 . S
C2534 C2533 1.379 . S
H2535 C2529 0.959 . S
H2536 C2529 0.961 . S
H2537 C2529 0.960 . S
H2538 C2530 0.930 . S
H2539 C2531 0.929 . S
H2540 C2548 0.929 . S
H2541 C2550 0.930 . S
H2542 C2552 0.930 . S
H2543 C2555 0.929 . S
H2544 C2558 0.930 . S
H2545 C2560 0.960 . S
H2546 C2560 0.960 . S
H2547 C2560 0.960 . S
C2548 H2540 0.929 . S
C2548 C2549 1.377 . S
C2548 C2550 1.384 . S
C2549 C2548 1.377 . S
C2549 C2555 1.390 . S
C2550 H2541 0.930 . S
C2550 C2548 1.384 . S
C2550 C2551 1.372 . S
C2551 C2550 1.372 . S
C2551 C2552 1.400 . S
C2551 C2556 1.490 . S
C2552 H2542 0.930 . S
C2552 C2551 1.400 . S
C2552 C2555 1.386 . S
H2553 C2569 0.930 . S
H2554 C2570 0.931 . S
C2555 H2543 0.929 . S
C2555 C2549 1.390 . S
C2555 C2552 1.386 . S
C2556 C2551 1.490 . S
C2556 C2558 1.395 . S
C2556 C2559 1.403 . S
H2557 C2563 0.930 . S
C2558 H2544 0.930 . S
C2558 C2556 1.395 . S
C2558 C2561 1.403 1_655 S
C2559 C2556 1.403 . S
C2559 C2560 1.524 . S
C2559 C2563 1.400 1_655 S
C2560 H2545 0.960 . S
C2560 H2546 0.960 . S
C2560 H2547 0.960 . S
C2560 C2559 1.524 . S
C2561 C2558 1.403 1_455 S
C2561 C2562 1.392 . S
C2561 C2565 1.495 . S
C2562 C2561 1.392 . S
C2562 C2563 1.385 . S
C2562 C2564 1.478 . S
C2563 H2557 0.930 . S
C2563 C2559 1.400 1_455 S
C2563 C2562 1.385 . S
C2564 C2562 1.478 . S
C2564 C2566 1.381 . S
C2564 C2570 1.383 . S
C2565 C2561 1.495 . S
C2565 H2571 0.959 . S
C2565 H2572 0.961 . S
C2565 H2573 0.960 . S
C2566 C2564 1.381 . S
C2566 C2567 1.394 . S
C2566 H2574 0.930 . S
C2567 C2566 1.394 . S
C2567 C2568 1.383 . S
C2567 H2575 0.929 . S
C2568 C2567 1.383 . S
C2568 C2569 1.377 . S
C2569 H2553 0.930 . S
C2569 C2568 1.377 . S
C2569 C2570 1.379 . S
C2570 H2554 0.931 . S
C2570 C2564 1.383 . S
C2570 C2569 1.379 . S
H2571 C2565 0.959 . S
H2572 C2565 0.961 . S
H2573 C2565 0.960 . S
H2574 C2566 0.930 . S
H2575 C2567 0.929 . S
H2576 C2584 0.929 . S
H2577 C2586 0.930 . S
H2578 C2588 0.930 . S
H2579 C2591 0.929 . S
H2580 C2594 0.930 . S
H2581 C2596 0.960 . S
H2582 C2596 0.960 . S
H2583 C2596 0.960 . S
C2584 H2576 0.929 . S
C2584 C2585 1.377 . S
C2584 C2586 1.384 . S
C2585 C2584 1.377 . S
C2585 C2591 1.390 . S
C2586 H2577 0.930 . S
C2586 C2584 1.384 . S
C2586 C2587 1.372 . S
C2587 C2586 1.372 . S
C2587 C2588 1.400 . S
C2587 C2592 1.490 . S
C2588 H2578 0.930 . S
C2588 C2587 1.400 . S
C2588 C2591 1.386 . S
H2589 C2605 0.930 . S
H2590 C2606 0.931 . S
C2591 H2579 0.929 . S
C2591 C2585 1.390 . S
C2591 C2588 1.386 . S
C2592 C2587 1.490 . S
C2592 C2594 1.395 . S
C2592 C2595 1.403 . S
H2593 C2599 0.930 . S
C2594 H2580 0.930 . S
C2594 C2592 1.395 . S
C2594 C2597 1.403 1_545 S
C2595 C2592 1.403 . S
C2595 C2596 1.524 . S
C2595 C2599 1.400 1_545 S
C2596 H2581 0.960 . S
C2596 H2582 0.960 . S
C2596 H2583 0.960 . S
C2596 C2595 1.524 . S
C2597 C2594 1.403 1_565 S
C2597 C2598 1.392 . S
C2597 C2601 1.495 . S
C2598 C2597 1.392 . S
C2598 C2599 1.385 . S
C2598 C2600 1.478 . S
C2599 H2593 0.930 . S
C2599 C2595 1.400 1_565 S
C2599 C2598 1.385 . S
C2600 C2598 1.478 . S
C2600 C2602 1.381 . S
C2600 C2606 1.383 . S
C2601 C2597 1.495 . S
C2601 H2607 0.959 . S
C2601 H2608 0.961 . S
C2601 H2609 0.960 . S
C2602 C2600 1.381 . S
C2602 C2603 1.394 . S
C2602 H2610 0.930 . S
C2603 C2602 1.394 . S
C2603 C2604 1.383 . S
C2603 H2611 0.929 . S
C2604 C2603 1.383 . S
C2604 C2605 1.377 . S
C2605 H2589 0.930 . S
C2605 C2604 1.377 . S
C2605 C2606 1.379 . S
C2606 H2590 0.931 . S
C2606 C2600 1.383 . S
C2606 C2605 1.379 . S
H2607 C2601 0.959 . S
H2608 C2601 0.961 . S
H2609 C2601 0.960 . S
H2610 C2602 0.930 . S
H2611 C2603 0.929 . S
H2612 C2620 0.929 . S
H2613 C2622 0.930 . S
H2614 C2624 0.930 . S
H2615 C2627 0.929 . S
H2616 C2630 0.930 . S
H2617 C2632 0.960 . S
H2618 C2632 0.960 . S
H2619 C2632 0.960 . S
C2620 H2612 0.929 . S
C2620 C2621 1.377 . S
C2620 C2622 1.384 . S
C2621 C2620 1.377 . S
C2621 C2627 1.390 . S
C2622 H2613 0.930 . S
C2622 C2620 1.384 . S
C2622 C2623 1.372 . S
C2623 C2622 1.372 . S
C2623 C2624 1.400 . S
C2623 C2628 1.490 . S
C2624 H2614 0.930 . S
C2624 C2623 1.400 . S
C2624 C2627 1.386 . S
H2625 C2641 0.930 . S
H2626 C2642 0.931 . S
C2627 H2615 0.929 . S
C2627 C2621 1.390 . S
C2627 C2624 1.386 . S
C2628 C2623 1.490 . S
C2628 C2630 1.395 . S
C2628 C2631 1.403 . S
H2629 C2635 0.930 . S
C2630 H2616 0.930 . S
C2630 C2628 1.395 . S
C2630 C2633 1.403 1_655 S
C2631 C2628 1.403 . S
C2631 C2632 1.524 . S
C2631 C2635 1.400 1_655 S
C2632 H2617 0.960 . S
C2632 H2618 0.960 . S
C2632 H2619 0.960 . S
C2632 C2631 1.524 . S
C2633 C2630 1.403 1_455 S
C2633 C2634 1.392 . S
C2633 C2637 1.495 . S
C2634 C2633 1.392 . S
C2634 C2635 1.385 . S
C2634 C2636 1.478 . S
C2635 H2629 0.930 . S
C2635 C2631 1.400 1_455 S
C2635 C2634 1.385 . S
C2636 C2634 1.478 . S
C2636 C2638 1.381 . S
C2636 C2642 1.383 . S
C2637 C2633 1.495 . S
C2637 H2643 0.959 . S
C2637 H2644 0.961 . S
C2637 H2645 0.960 . S
C2638 C2636 1.381 . S
C2638 C2639 1.394 . S
C2638 H2646 0.930 . S
C2639 C2638 1.394 . S
C2639 C2640 1.383 . S
C2639 H2647 0.929 . S
C2640 C2639 1.383 . S
C2640 C2641 1.377 . S
C2641 H2625 0.930 . S
C2641 C2640 1.377 . S
C2641 C2642 1.379 . S
C2642 H2626 0.931 . S
C2642 C2636 1.383 . S
C2642 C2641 1.379 . S
H2643 C2637 0.959 . S
H2644 C2637 0.961 . S
H2645 C2637 0.960 . S
H2646 C2638 0.930 . S
H2647 C2639 0.929 . S
H2648 C2656 0.929 . S
H2649 C2658 0.930 . S
H2650 C2660 0.930 . S
H2651 C2663 0.929 . S
H2652 C2666 0.930 . S
H2653 C2668 0.960 . S
H2654 C2668 0.960 . S
H2655 C2668 0.960 . S
C2656 H2648 0.929 . S
C2656 C2657 1.377 . S
C2656 C2658 1.384 . S
C2657 C2656 1.377 . S
C2657 C2663 1.390 . S
C2658 H2649 0.930 . S
C2658 C2656 1.384 . S
C2658 C2659 1.372 . S
C2659 C2658 1.372 . S
C2659 C2660 1.400 . S
C2659 C2664 1.490 . S
C2660 H2650 0.930 . S
C2660 C2659 1.400 . S
C2660 C2663 1.386 . S
H2661 C2677 0.930 . S
H2662 C2678 0.931 . S
C2663 H2651 0.929 . S
C2663 C2657 1.390 . S
C2663 C2660 1.386 . S
C2664 C2659 1.490 . S
C2664 C2666 1.395 . S
C2664 C2667 1.403 . S
H2665 C2671 0.930 . S
C2666 H2652 0.930 . S
C2666 C2664 1.395 . S
C2666 C2669 1.403 1_545 S
C2667 C2664 1.403 . S
C2667 C2668 1.524 . S
C2667 C2671 1.400 1_545 S
C2668 H2653 0.960 . S
C2668 H2654 0.960 . S
C2668 H2655 0.960 . S
C2668 C2667 1.524 . S
C2669 C2666 1.403 1_565 S
C2669 C2670 1.392 . S
C2669 C2673 1.495 . S
C2670 C2669 1.392 . S
C2670 C2671 1.385 . S
C2670 C2672 1.478 . S
C2671 H2665 0.930 . S
C2671 C2667 1.400 1_565 S
C2671 C2670 1.385 . S
C2672 C2670 1.478 . S
C2672 C2674 1.381 . S
C2672 C2678 1.383 . S
C2673 C2669 1.495 . S
C2673 H2679 0.959 . S
C2673 H2680 0.961 . S
C2673 H2681 0.960 . S
C2674 C2672 1.381 . S
C2674 C2675 1.394 . S
C2674 H2682 0.930 . S
C2675 C2674 1.394 . S
C2675 C2676 1.383 . S
C2675 H2683 0.929 . S
C2676 C2675 1.383 . S
C2676 C2677 1.377 . S
C2677 H2661 0.930 . S
C2677 C2676 1.377 . S
C2677 C2678 1.379 . S
C2678 H2662 0.931 . S
C2678 C2672 1.383 . S
C2678 C2677 1.379 . S
H2679 C2673 0.959 . S
H2680 C2673 0.961 . S
H2681 C2673 0.960 . S
H2682 C2674 0.930 . S
H2683 C2675 0.929 . S
H2684 C2692 0.929 . S
H2685 C2694 0.930 . S
H2686 C2696 0.930 . S
H2687 C2699 0.929 . S
H2688 C2702 0.930 . S
H2689 C2704 0.960 . S
H2690 C2704 0.960 . S
H2691 C2704 0.960 . S
C2692 H2684 0.929 . S
C2692 C2693 1.377 . S
C2692 C2694 1.384 . S
C2693 C2692 1.377 . S
C2693 C2699 1.390 . S
C2694 H2685 0.930 . S
C2694 C2692 1.384 . S
C2694 C2695 1.372 . S
C2695 C2694 1.372 . S
C2695 C2696 1.400 . S
C2695 C2700 1.490 . S
C2696 H2686 0.930 . S
C2696 C2695 1.400 . S
C2696 C2699 1.386 . S
H2697 C2713 0.930 . S
H2698 C2714 0.931 . S
C2699 H2687 0.929 . S
C2699 C2693 1.390 . S
C2699 C2696 1.386 . S
C2700 C2695 1.490 . S
C2700 C2702 1.395 . S
C2700 C2703 1.403 . S
H2701 C2707 0.930 . S
C2702 H2688 0.930 . S
C2702 C2700 1.395 . S
C2702 C2705 1.403 1_655 S
C2703 C2700 1.403 . S
C2703 C2704 1.524 . S
C2703 C2707 1.400 1_655 S
C2704 H2689 0.960 . S
C2704 H2690 0.960 . S
C2704 H2691 0.960 . S
C2704 C2703 1.524 . S
C2705 C2702 1.403 1_455 S
C2705 C2706 1.392 . S
C2705 C2709 1.495 . S
C2706 C2705 1.392 . S
C2706 C2707 1.385 . S
C2706 C2708 1.478 . S
C2707 H2701 0.930 . S
C2707 C2703 1.400 1_455 S
C2707 C2706 1.385 . S
C2708 C2706 1.478 . S
C2708 C2710 1.381 . S
C2708 C2714 1.383 . S
C2709 C2705 1.495 . S
C2709 H2715 0.959 . S
C2709 H2716 0.961 . S
C2709 H2717 0.960 . S
C2710 C2708 1.381 . S
C2710 C2711 1.394 . S
C2710 H2718 0.930 . S
C2711 C2710 1.394 . S
C2711 C2712 1.383 . S
C2711 H2719 0.929 . S
C2712 C2711 1.383 . S
C2712 C2713 1.377 . S
C2713 H2697 0.930 . S
C2713 C2712 1.377 . S
C2713 C2714 1.379 . S
C2714 H2698 0.931 . S
C2714 C2708 1.383 . S
C2714 C2713 1.379 . S
H2715 C2709 0.959 . S
H2716 C2709 0.961 . S
H2717 C2709 0.960 . S
H2718 C2710 0.930 . S
H2719 C2711 0.929 . S
H2720 C2728 0.929 . S
H2721 C2730 0.930 . S
H2722 C2732 0.930 . S
H2723 C2735 0.929 . S
H2724 C2738 0.930 . S
H2725 C2740 0.960 . S
H2726 C2740 0.960 . S
H2727 C2740 0.960 . S
C2728 H2720 0.929 . S
C2728 C2729 1.377 . S
C2728 C2730 1.384 . S
C2729 C2728 1.377 . S
C2729 C2735 1.390 . S
C2730 H2721 0.930 . S
C2730 C2728 1.384 . S
C2730 C2731 1.372 . S
C2731 C2730 1.372 . S
C2731 C2732 1.400 . S
C2731 C2736 1.490 . S
C2732 H2722 0.930 . S
C2732 C2731 1.400 . S
C2732 C2735 1.386 . S
H2733 C2749 0.930 . S
H2734 C2750 0.931 . S
C2735 H2723 0.929 . S
C2735 C2729 1.390 . S
C2735 C2732 1.386 . S
C2736 C2731 1.490 . S
C2736 C2738 1.395 . S
C2736 C2739 1.403 . S
H2737 C2743 0.930 . S
C2738 H2724 0.930 . S
C2738 C2736 1.395 . S
C2738 C2741 1.403 1_554 S
C2739 C2736 1.403 . S
C2739 C2740 1.524 . S
C2739 C2743 1.400 1_554 S
C2740 H2725 0.960 . S
C2740 H2726 0.960 . S
C2740 H2727 0.960 . S
C2740 C2739 1.524 . S
C2741 C2738 1.403 1_556 S
C2741 C2742 1.392 . S
C2741 C2745 1.495 . S
C2742 C2741 1.392 . S
C2742 C2743 1.385 . S
C2742 C2744 1.478 . S
C2743 H2737 0.930 . S
C2743 C2739 1.400 1_556 S
C2743 C2742 1.385 . S
C2744 C2742 1.478 . S
C2744 C2746 1.381 . S
C2744 C2750 1.383 . S
C2745 C2741 1.495 . S
C2745 H2751 0.959 . S
C2745 H2752 0.961 . S
C2745 H2753 0.960 . S
C2746 C2744 1.381 . S
C2746 C2747 1.394 . S
C2746 H2754 0.930 . S
C2747 C2746 1.394 . S
C2747 C2748 1.383 . S
C2747 H2755 0.929 . S
C2748 C2747 1.383 . S
C2748 C2749 1.377 . S
C2749 H2733 0.930 . S
C2749 C2748 1.377 . S
C2749 C2750 1.379 . S
C2750 H2734 0.931 . S
C2750 C2744 1.383 . S
C2750 C2749 1.379 . S
H2751 C2745 0.959 . S
H2752 C2745 0.961 . S
H2753 C2745 0.960 . S
H2754 C2746 0.930 . S
H2755 C2747 0.929 . S
H2756 C2764 0.929 . S
H2757 C2766 0.930 . S
H2758 C2768 0.930 . S
H2759 C2771 0.929 . S
H2760 C2774 0.930 . S
H2761 C2776 0.960 . S
H2762 C2776 0.960 . S
H2763 C2776 0.960 . S
C2764 H2756 0.929 . S
C2764 C2765 1.377 . S
C2764 C2766 1.384 . S
C2765 C2764 1.377 . S
C2765 C2771 1.390 . S
C2766 H2757 0.930 . S
C2766 C2764 1.384 . S
C2766 C2767 1.372 . S
C2767 C2766 1.372 . S
C2767 C2768 1.400 . S
C2767 C2772 1.490 . S
C2768 H2758 0.930 . S
C2768 C2767 1.400 . S
C2768 C2771 1.386 . S
H2769 C2785 0.930 . S
H2770 C2786 0.931 . S
C2771 H2759 0.929 . S
C2771 C2765 1.390 . S
C2771 C2768 1.386 . S
C2772 C2767 1.490 . S
C2772 C2774 1.395 . S
C2772 C2775 1.403 . S
H2773 C2779 0.930 . S
C2774 H2760 0.930 . S
C2774 C2772 1.395 . S
C2774 C2777 1.403 1_556 S
C2775 C2772 1.403 . S
C2775 C2776 1.524 . S
C2775 C2779 1.400 1_556 S
C2776 H2761 0.960 . S
C2776 H2762 0.960 . S
C2776 H2763 0.960 . S
C2776 C2775 1.524 . S
C2777 C2774 1.403 1_554 S
C2777 C2778 1.392 . S
C2777 C2781 1.495 . S
C2778 C2777 1.392 . S
C2778 C2779 1.385 . S
C2778 C2780 1.478 . S
C2779 H2773 0.930 . S
C2779 C2775 1.400 1_554 S
C2779 C2778 1.385 . S
C2780 C2778 1.478 . S
C2780 C2782 1.381 . S
C2780 C2786 1.383 . S
C2781 C2777 1.495 . S
C2781 H2787 0.959 . S
C2781 H2788 0.961 . S
C2781 H2789 0.960 . S
C2782 C2780 1.381 . S
C2782 C2783 1.394 . S
C2782 H2790 0.930 . S
C2783 C2782 1.394 . S
C2783 C2784 1.383 . S
C2783 H2791 0.929 . S
C2784 C2783 1.383 . S
C2784 C2785 1.377 . S
C2785 H2769 0.930 . S
C2785 C2784 1.377 . S
C2785 C2786 1.379 . S
C2786 H2770 0.931 . S
C2786 C2780 1.383 . S
C2786 C2785 1.379 . S
H2787 C2781 0.959 . S
H2788 C2781 0.961 . S
H2789 C2781 0.960 . S
H2790 C2782 0.930 . S
H2791 C2783 0.929 . S
H2792 C2800 0.929 . S
H2793 C2802 0.930 . S
H2794 C2804 0.930 . S
H2795 C2807 0.929 . S
H2796 C2810 0.930 . S
H2797 C2812 0.960 . S
H2798 C2812 0.960 . S
H2799 C2812 0.960 . S
C2800 H2792 0.929 . S
C2800 C2801 1.377 . S
C2800 C2802 1.384 . S
C2801 C2800 1.377 . S
C2801 C2807 1.390 . S
C2802 H2793 0.930 . S
C2802 C2800 1.384 . S
C2802 C2803 1.372 . S
C2803 C2802 1.372 . S
C2803 C2804 1.400 . S
C2803 C2808 1.490 . S
C2804 H2794 0.930 . S
C2804 C2803 1.400 . S
C2804 C2807 1.386 . S
H2805 C2821 0.930 . S
H2806 C2822 0.931 . S
C2807 H2795 0.929 . S
C2807 C2801 1.390 . S
C2807 C2804 1.386 . S
C2808 C2803 1.490 . S
C2808 C2810 1.395 . S
C2808 C2811 1.403 . S
H2809 C2815 0.930 . S
C2810 H2796 0.930 . S
C2810 C2808 1.395 . S
C2810 C2813 1.403 1_556 S
C2811 C2808 1.403 . S
C2811 C2812 1.524 . S
C2811 C2815 1.400 1_556 S
C2812 H2797 0.960 . S
C2812 H2798 0.960 . S
C2812 H2799 0.960 . S
C2812 C2811 1.524 . S
C2813 C2810 1.403 1_554 S
C2813 C2814 1.392 . S
C2813 C2817 1.495 . S
C2814 C2813 1.392 . S
C2814 C2815 1.385 . S
C2814 C2816 1.478 . S
C2815 H2809 0.930 . S
C2815 C2811 1.400 1_554 S
C2815 C2814 1.385 . S
C2816 C2814 1.478 . S
C2816 C2818 1.381 . S
C2816 C2822 1.383 . S
C2817 C2813 1.495 . S
C2817 H2823 0.959 . S
C2817 H2824 0.961 . S
C2817 H2825 0.960 . S
C2818 C2816 1.381 . S
C2818 C2819 1.394 . S
C2818 H2826 0.930 . S
C2819 C2818 1.394 . S
C2819 C2820 1.383 . S
C2819 H2827 0.929 . S
C2820 C2819 1.383 . S
C2820 C2821 1.377 . S
C2821 H2805 0.930 . S
C2821 C2820 1.377 . S
C2821 C2822 1.379 . S
C2822 H2806 0.931 . S
C2822 C2816 1.383 . S
C2822 C2821 1.379 . S
H2823 C2817 0.959 . S
H2824 C2817 0.961 . S
H2825 C2817 0.960 . S
H2826 C2818 0.930 . S
H2827 C2819 0.929 . S
H2828 C2836 0.929 . S
H2829 C2838 0.930 . S
H2830 C2840 0.930 . S
H2831 C2843 0.929 . S
H2832 C2846 0.930 . S
H2833 C2848 0.960 . S
H2834 C2848 0.960 . S
H2835 C2848 0.960 . S
C2836 H2828 0.929 . S
C2836 C2837 1.377 . S
C2836 C2838 1.384 . S
C2837 C2836 1.377 . S
C2837 C2843 1.390 . S
C2838 H2829 0.930 . S
C2838 C2836 1.384 . S
C2838 C2839 1.372 . S
C2839 C2838 1.372 . S
C2839 C2840 1.400 . S
C2839 C2844 1.490 . S
C2840 H2830 0.930 . S
C2840 C2839 1.400 . S
C2840 C2843 1.386 . S
H2841 C2857 0.930 . S
H2842 C2858 0.931 . S
C2843 H2831 0.929 . S
C2843 C2837 1.390 . S
C2843 C2840 1.386 . S
C2844 C2839 1.490 . S
C2844 C2846 1.395 . S
C2844 C2847 1.403 . S
H2845 C2851 0.930 . S
C2846 H2832 0.930 . S
C2846 C2844 1.395 . S
C2846 C2849 1.403 1_554 S
C2847 C2844 1.403 . S
C2847 C2848 1.524 . S
C2847 C2851 1.400 1_554 S
C2848 H2833 0.960 . S
C2848 H2834 0.960 . S
C2848 H2835 0.960 . S
C2848 C2847 1.524 . S
C2849 C2846 1.403 1_556 S
C2849 C2850 1.392 . S
C2849 C2853 1.495 . S
C2850 C2849 1.392 . S
C2850 C2851 1.385 . S
C2850 C2852 1.478 . S
C2851 H2845 0.930 . S
C2851 C2847 1.400 1_556 S
C2851 C2850 1.385 . S
C2852 C2850 1.478 . S
C2852 C2854 1.381 . S
C2852 C2858 1.383 . S
C2853 C2849 1.495 . S
C2853 H2859 0.959 . S
C2853 H2860 0.961 . S
C2853 H2861 0.960 . S
C2854 C2852 1.381 . S
C2854 C2855 1.394 . S
C2854 H2862 0.930 . S
C2855 C2854 1.394 . S
C2855 C2856 1.383 . S
C2855 H2863 0.929 . S
C2856 C2855 1.383 . S
C2856 C2857 1.377 . S
C2857 H2841 0.930 . S
C2857 C2856 1.377 . S
C2857 C2858 1.379 . S
C2858 H2842 0.931 . S
C2858 C2852 1.383 . S
C2858 C2857 1.379 . S
H2859 C2853 0.959 . S
H2860 C2853 0.961 . S
H2861 C2853 0.960 . S
H2862 C2854 0.930 . S
H2863 C2855 0.929 . S
H2864 C2872 0.929 . S
H2865 C2874 0.930 . S
H2866 C2876 0.930 . S
H2867 C2879 0.929 . S
H2868 C2882 0.930 . S
H2869 C2884 0.960 . S
H2870 C2884 0.960 . S
H2871 C2884 0.960 . S
C2872 H2864 0.929 . S
C2872 C2873 1.377 . S
C2872 C2874 1.384 . S
C2873 C2872 1.377 . S
C2873 C2879 1.390 . S
C2874 H2865 0.930 . S
C2874 C2872 1.384 . S
C2874 C2875 1.372 . S
C2875 C2874 1.372 . S
C2875 C2876 1.400 . S
C2875 C2880 1.490 . S
C2876 H2866 0.930 . S
C2876 C2875 1.400 . S
C2876 C2879 1.386 . S
H2877 C2893 0.930 . S
H2878 C2894 0.931 . S
C2879 H2867 0.929 . S
C2879 C2873 1.390 . S
C2879 C2876 1.386 . S
C2880 C2875 1.490 . S
C2880 C2882 1.395 . S
C2880 C2883 1.403 . S
H2881 C2887 0.930 . S
C2882 H2868 0.930 . S
C2882 C2880 1.395 . S
C2882 C2885 1.403 1_556 S
C2883 C2880 1.403 . S
C2883 C2884 1.524 . S
C2883 C2887 1.400 1_556 S
C2884 H2869 0.960 . S
C2884 H2870 0.960 . S
C2884 H2871 0.960 . S
C2884 C2883 1.524 . S
C2885 C2882 1.403 1_554 S
C2885 C2886 1.392 . S
C2885 C2889 1.495 . S
C2886 C2885 1.392 . S
C2886 C2887 1.385 . S
C2886 C2888 1.478 . S
C2887 H2881 0.930 . S
C2887 C2883 1.400 1_554 S
C2887 C2886 1.385 . S
C2888 C2886 1.478 . S
C2888 C2890 1.381 . S
C2888 C2894 1.383 . S
C2889 C2885 1.495 . S
C2889 H2895 0.959 . S
C2889 H2896 0.961 . S
C2889 H2897 0.960 . S
C2890 C2888 1.381 . S
C2890 C2891 1.394 . S
C2890 H2898 0.930 . S
C2891 C2890 1.394 . S
C2891 C2892 1.383 . S
C2891 H2899 0.929 . S
C2892 C2891 1.383 . S
C2892 C2893 1.377 . S
C2893 H2877 0.930 . S
C2893 C2892 1.377 . S
C2893 C2894 1.379 . S
C2894 H2878 0.931 . S
C2894 C2888 1.383 . S
C2894 C2893 1.379 . S
H2895 C2889 0.959 . S
H2896 C2889 0.961 . S
H2897 C2889 0.960 . S
H2898 C2890 0.930 . S
H2899 C2891 0.929 . S
H2900 C2908 0.929 . S
H2901 C2910 0.930 . S
H2902 C2912 0.930 . S
H2903 C2915 0.929 . S
H2904 C2918 0.930 . S
H2905 C2920 0.960 . S
H2906 C2920 0.960 . S
H2907 C2920 0.960 . S
C2908 H2900 0.929 . S
C2908 C2909 1.377 . S
C2908 C2910 1.384 . S
C2909 C2908 1.377 . S
C2909 C2915 1.390 . S
C2910 H2901 0.930 . S
C2910 C2908 1.384 . S
C2910 C2911 1.372 . S
C2911 C2910 1.372 . S
C2911 C2912 1.400 . S
C2911 C2916 1.490 . S
C2912 H2902 0.930 . S
C2912 C2911 1.400 . S
C2912 C2915 1.386 . S
H2913 C2929 0.930 . S
H2914 C2930 0.931 . S
C2915 H2903 0.929 . S
C2915 C2909 1.390 . S
C2915 C2912 1.386 . S
C2916 C2911 1.490 . S
C2916 C2918 1.395 . S
C2916 C2919 1.403 . S
H2917 C2923 0.930 . S
C2918 H2904 0.930 . S
C2918 C2916 1.395 . S
C2918 C2921 1.403 1_554 S
C2919 C2916 1.403 . S
C2919 C2920 1.524 . S
C2919 C2923 1.400 1_554 S
C2920 H2905 0.960 . S
C2920 H2906 0.960 . S
C2920 H2907 0.960 . S
C2920 C2919 1.524 . S
C2921 C2918 1.403 1_556 S
C2921 C2922 1.392 . S
C2921 C2925 1.495 . S
C2922 C2921 1.392 . S
C2922 C2923 1.385 . S
C2922 C2924 1.478 . S
C2923 H2917 0.930 . S
C2923 C2919 1.400 1_556 S
C2923 C2922 1.385 . S
C2924 C2922 1.478 . S
C2924 C2926 1.381 . S
C2924 C2930 1.383 . S
C2925 C2921 1.495 . S
C2925 H2931 0.959 . S
C2925 H2932 0.961 . S
C2925 H2933 0.960 . S
C2926 C2924 1.381 . S
C2926 C2927 1.394 . S
C2926 H2934 0.930 . S
C2927 C2926 1.394 . S
C2927 C2928 1.383 . S
C2927 H2935 0.929 . S
C2928 C2927 1.383 . S
C2928 C2929 1.377 . S
C2929 H2913 0.930 . S
C2929 C2928 1.377 . S
C2929 C2930 1.379 . S
C2930 H2914 0.931 . S
C2930 C2924 1.383 . S
C2930 C2929 1.379 . S
H2931 C2925 0.959 . S
H2932 C2925 0.961 . S
H2933 C2925 0.960 . S
H2934 C2926 0.930 . S
H2935 C2927 0.929 . S
H2936 C2944 0.929 . S
H2937 C2946 0.930 . S
H2938 C2948 0.930 . S
H2939 C2951 0.929 . S
H2940 C2954 0.930 . S
H2941 C2956 0.960 . S
H2942 C2956 0.960 . S
H2943 C2956 0.960 . S
C2944 H2936 0.929 . S
C2944 C2945 1.377 . S
C2944 C2946 1.384 . S
C2945 C2944 1.377 . S
C2945 C2951 1.390 . S
C2946 H2937 0.930 . S
C2946 C2944 1.384 . S
C2946 C2947 1.372 . S
C2947 C2946 1.372 . S
C2947 C2948 1.400 . S
C2947 C2952 1.490 . S
C2948 H2938 0.930 . S
C2948 C2947 1.400 . S
C2948 C2951 1.386 . S
H2949 C2965 0.930 . S
H2950 C2966 0.931 . S
C2951 H2939 0.929 . S
C2951 C2945 1.390 . S
C2951 C2948 1.386 . S
C2952 C2947 1.490 . S
C2952 C2954 1.395 . S
C2952 C2955 1.403 . S
H2953 C2959 0.930 . S
C2954 H2940 0.930 . S
C2954 C2952 1.395 . S
C2954 C2957 1.403 1_554 S
C2955 C2952 1.403 . S
C2955 C2956 1.524 . S
C2955 C2959 1.400 1_554 S
C2956 H2941 0.960 . S
C2956 H2942 0.960 . S
C2956 H2943 0.960 . S
C2956 C2955 1.524 . S
C2957 C2954 1.403 1_556 S
C2957 C2958 1.392 . S
C2957 C2961 1.495 . S
C2958 C2957 1.392 . S
C2958 C2959 1.385 . S
C2958 C2960 1.478 . S
C2959 H2953 0.930 . S
C2959 C2955 1.400 1_556 S
C2959 C2958 1.385 . S
C2960 C2958 1.478 . S
C2960 C2962 1.381 . S
C2960 C2966 1.383 . S
C2961 C2957 1.495 . S
C2961 H2967 0.959 . S
C2961 H2968 0.961 . S
C2961 H2969 0.960 . S
C2962 C2960 1.381 . S
C2962 C2963 1.394 . S
C2962 H2970 0.930 . S
C2963 C2962 1.394 . S
C2963 C2964 1.383 . S
C2963 H2971 0.929 . S
C2964 C2963 1.383 . S
C2964 C2965 1.377 . S
C2965 H2949 0.930 . S
C2965 C2964 1.377 . S
C2965 C2966 1.379 . S
C2966 H2950 0.931 . S
C2966 C2960 1.383 . S
C2966 C2965 1.379 . S
H2967 C2961 0.959 . S
H2968 C2961 0.961 . S
H2969 C2961 0.960 . S
H2970 C2962 0.930 . S
H2971 C2963 0.929 . S
H2972 C2980 0.929 . S
H2973 C2982 0.930 . S
H2974 C2984 0.930 . S
H2975 C2987 0.929 . S
H2976 C2990 0.930 . S
H2977 C2992 0.960 . S
H2978 C2992 0.960 . S
H2979 C2992 0.960 . S
C2980 H2972 0.929 . S
C2980 C2981 1.377 . S
C2980 C2982 1.384 . S
C2981 C2980 1.377 . S
C2981 C2987 1.390 . S
C2982 H2973 0.930 . S
C2982 C2980 1.384 . S
C2982 C2983 1.372 . S
C2983 C2982 1.372 . S
C2983 C2984 1.400 . S
C2983 C2988 1.490 . S
C2984 H2974 0.930 . S
C2984 C2983 1.400 . S
C2984 C2987 1.386 . S
H2985 C3001 0.930 . S
H2986 C3002 0.931 . S
C2987 H2975 0.929 . S
C2987 C2981 1.390 . S
C2987 C2984 1.386 . S
C2988 C2983 1.490 . S
C2988 C2990 1.395 . S
C2988 C2991 1.403 . S
H2989 C2995 0.930 . S
C2990 H2976 0.930 . S
C2990 C2988 1.395 . S
C2990 C2993 1.403 1_556 S
C2991 C2988 1.403 . S
C2991 C2992 1.524 . S
C2991 C2995 1.400 1_556 S
C2992 H2977 0.960 . S
C2992 H2978 0.960 . S
C2992 H2979 0.960 . S
C2992 C2991 1.524 . S
C2993 C2990 1.403 1_554 S
C2993 C2994 1.392 . S
C2993 C2997 1.495 . S
C2994 C2993 1.392 . S
C2994 C2995 1.385 . S
C2994 C2996 1.478 . S
C2995 H2989 0.930 . S
C2995 C2991 1.400 1_554 S
C2995 C2994 1.385 . S
C2996 C2994 1.478 . S
C2996 C2998 1.381 . S
C2996 C3002 1.383 . S
C2997 C2993 1.495 . S
C2997 H3003 0.959 . S
C2997 H3004 0.961 . S
C2997 H3005 0.960 . S
C2998 C2996 1.381 . S
C2998 C2999 1.394 . S
C2998 H3006 0.930 . S
C2999 C2998 1.394 . S
C2999 C3000 1.383 . S
C2999 H3007 0.929 . S
C3000 C2999 1.383 . S
C3000 C3001 1.377 . S
C3001 H2985 0.930 . S
C3001 C3000 1.377 . S
C3001 C3002 1.379 . S
C3002 H2986 0.931 . S
C3002 C2996 1.383 . S
C3002 C3001 1.379 . S
H3003 C2997 0.959 . S
H3004 C2997 0.961 . S
H3005 C2997 0.960 . S
H3006 C2998 0.930 . S
H3007 C2999 0.929 . S
H3008 C3016 0.929 . S
H3009 C3018 0.930 . S
H3010 C3020 0.930 . S
H3011 C3023 0.929 . S
H3012 C3026 0.930 . S
H3013 C3028 0.960 . S
H3014 C3028 0.960 . S
H3015 C3028 0.960 . S
C3016 H3008 0.929 . S
C3016 C3017 1.377 . S
C3016 C3018 1.384 . S
C3017 C3016 1.377 . S
C3017 C3023 1.390 . S
C3018 H3009 0.930 . S
C3018 C3016 1.384 . S
C3018 C3019 1.372 . S
C3019 C3018 1.372 . S
C3019 C3020 1.400 . S
C3019 C3024 1.490 . S
C3020 H3010 0.930 . S
C3020 C3019 1.400 . S
C3020 C3023 1.386 . S
H3021 C3037 0.930 . S
H3022 C3038 0.931 . S
C3023 H3011 0.929 . S
C3023 C3017 1.390 . S
C3023 C3020 1.386 . S
C3024 C3019 1.490 . S
C3024 C3026 1.395 . S
C3024 C3027 1.403 . S
H3025 C3031 0.930 . S
C3026 H3012 0.930 . S
C3026 C3024 1.395 . S
C3026 C3029 1.403 1_455 S
C3027 C3024 1.403 . S
C3027 C3028 1.524 . S
C3027 C3031 1.400 1_455 S
C3028 H3013 0.960 . S
C3028 H3014 0.960 . S
C3028 H3015 0.960 . S
C3028 C3027 1.524 . S
C3029 C3026 1.403 1_655 S
C3029 C3030 1.392 . S
C3029 C3033 1.495 . S
C3030 C3029 1.392 . S
C3030 C3031 1.385 . S
C3030 C3032 1.478 . S
C3031 H3025 0.930 . S
C3031 C3027 1.400 1_655 S
C3031 C3030 1.385 . S
C3032 C3030 1.478 . S
C3032 C3034 1.381 . S
C3032 C3038 1.383 . S
C3033 C3029 1.495 . S
C3033 H3039 0.959 . S
C3033 H3040 0.961 . S
C3033 H3041 0.960 . S
C3034 C3032 1.381 . S
C3034 C3035 1.394 . S
C3034 H3042 0.930 . S
C3035 C3034 1.394 . S
C3035 C3036 1.383 . S
C3035 H3043 0.929 . S
C3036 C3035 1.383 . S
C3036 C3037 1.377 . S
C3037 H3021 0.930 . S
C3037 C3036 1.377 . S
C3037 C3038 1.379 . S
C3038 H3022 0.931 . S
C3038 C3032 1.383 . S
C3038 C3037 1.379 . S
H3039 C3033 0.959 . S
H3040 C3033 0.961 . S
H3041 C3033 0.960 . S
H3042 C3034 0.930 . S
H3043 C3035 0.929 . S
H3044 C3052 0.929 . S
H3045 C3054 0.930 . S
H3046 C3056 0.930 . S
H3047 C3059 0.929 . S
H3048 C3062 0.930 . S
H3049 C3064 0.960 . S
H3050 C3064 0.960 . S
H3051 C3064 0.960 . S
C3052 H3044 0.929 . S
C3052 C3053 1.377 . S
C3052 C3054 1.384 . S
C3053 C3052 1.377 . S
C3053 C3059 1.390 . S
C3054 H3045 0.930 . S
C3054 C3052 1.384 . S
C3054 C3055 1.372 . S
C3055 C3054 1.372 . S
C3055 C3056 1.400 . S
C3055 C3060 1.490 . S
C3056 H3046 0.930 . S
C3056 C3055 1.400 . S
C3056 C3059 1.386 . S
H3057 C3073 0.930 . S
H3058 C3074 0.931 . S
C3059 H3047 0.929 . S
C3059 C3053 1.390 . S
C3059 C3056 1.386 . S
C3060 C3055 1.490 . S
C3060 C3062 1.395 . S
C3060 C3063 1.403 . S
H3061 C3067 0.930 . S
C3062 H3048 0.930 . S
C3062 C3060 1.395 . S
C3062 C3065 1.403 1_455 S
C3063 C3060 1.403 . S
C3063 C3064 1.524 . S
C3063 C3067 1.400 1_455 S
C3064 H3049 0.960 . S
C3064 H3050 0.960 . S
C3064 H3051 0.960 . S
C3064 C3063 1.524 . S
C3065 C3062 1.403 1_655 S
C3065 C3066 1.392 . S
C3065 C3069 1.495 . S
C3066 C3065 1.392 . S
C3066 C3067 1.385 . S
C3066 C3068 1.478 . S
C3067 H3061 0.930 . S
C3067 C3063 1.400 1_655 S
C3067 C3066 1.385 . S
C3068 C3066 1.478 . S
C3068 C3070 1.381 . S
C3068 C3074 1.383 . S
C3069 C3065 1.495 . S
C3069 H3075 0.959 . S
C3069 H3076 0.961 . S
C3069 H3077 0.960 . S
C3070 C3068 1.381 . S
C3070 C3071 1.394 . S
C3070 H3078 0.930 . S
C3071 C3070 1.394 . S
C3071 C3072 1.383 . S
C3071 H3079 0.929 . S
C3072 C3071 1.383 . S
C3072 C3073 1.377 . S
C3073 H3057 0.930 . S
C3073 C3072 1.377 . S
C3073 C3074 1.379 . S
C3074 H3058 0.931 . S
C3074 C3068 1.383 . S
C3074 C3073 1.379 . S
H3075 C3069 0.959 . S
H3076 C3069 0.961 . S
H3077 C3069 0.960 . S
H3078 C3070 0.930 . S
H3079 C3071 0.929 . S
H3080 C3088 0.929 . S
H3081 C3090 0.930 . S
H3082 C3092 0.930 . S
H3083 C3095 0.929 . S
H3084 C3098 0.930 . S
H3085 C3100 0.960 . S
H3086 C3100 0.960 . S
H3087 C3100 0.960 . S
C3088 H3080 0.929 . S
C3088 C3089 1.377 . S
C3088 C3090 1.384 . S
C3089 C3088 1.377 . S
C3089 C3095 1.390 . S
C3090 H3081 0.930 . S
C3090 C3088 1.384 . S
C3090 C3091 1.372 . S
C3091 C3090 1.372 . S
C3091 C3092 1.400 . S
C3091 C3096 1.490 . S
C3092 H3082 0.930 . S
C3092 C3091 1.400 . S
C3092 C3095 1.386 . S
H3093 C3109 0.930 . S
H3094 C3110 0.931 . S
C3095 H3083 0.929 . S
C3095 C3089 1.390 . S
C3095 C3092 1.386 . S
C3096 C3091 1.490 . S
C3096 C3098 1.395 . S
C3096 C3099 1.403 . S
H3097 C3103 0.930 . S
C3098 H3084 0.930 . S
C3098 C3096 1.395 . S
C3098 C3101 1.403 1_565 S
C3099 C3096 1.403 . S
C3099 C3100 1.524 . S
C3099 C3103 1.400 1_565 S
C3100 H3085 0.960 . S
C3100 H3086 0.960 . S
C3100 H3087 0.960 . S
C3100 C3099 1.524 . S
C3101 C3098 1.403 1_545 S
C3101 C3102 1.392 . S
C3101 C3105 1.495 . S
C3102 C3101 1.392 . S
C3102 C3103 1.385 . S
C3102 C3104 1.478 . S
C3103 H3097 0.930 . S
C3103 C3099 1.400 1_545 S
C3103 C3102 1.385 . S
C3104 C3102 1.478 . S
C3104 C3106 1.381 . S
C3104 C3110 1.383 . S
C3105 C3101 1.495 . S
C3105 H3111 0.959 . S
C3105 H3112 0.961 . S
C3105 H3113 0.960 . S
C3106 C3104 1.381 . S
C3106 C3107 1.394 . S
C3106 H3114 0.930 . S
C3107 C3106 1.394 . S
C3107 C3108 1.383 . S
C3107 H3115 0.929 . S
C3108 C3107 1.383 . S
C3108 C3109 1.377 . S
C3109 H3093 0.930 . S
C3109 C3108 1.377 . S
C3109 C3110 1.379 . S
C3110 H3094 0.931 . S
C3110 C3104 1.383 . S
C3110 C3109 1.379 . S
H3111 C3105 0.959 . S
H3112 C3105 0.961 . S
H3113 C3105 0.960 . S
H3114 C3106 0.930 . S
H3115 C3107 0.929 . S
H3116 C3124 0.929 . S
H3117 C3126 0.930 . S
H3118 C3128 0.930 . S
H3119 C3131 0.929 . S
H3120 C3134 0.930 . S
H3121 C3136 0.960 . S
H3122 C3136 0.960 . S
H3123 C3136 0.960 . S
C3124 H3116 0.929 . S
C3124 C3125 1.377 . S
C3124 C3126 1.384 . S
C3125 C3124 1.377 . S
C3125 C3131 1.390 . S
C3126 H3117 0.930 . S
C3126 C3124 1.384 . S
C3126 C3127 1.372 . S
C3127 C3126 1.372 . S
C3127 C3128 1.400 . S
C3127 C3132 1.490 . S
C3128 H3118 0.930 . S
C3128 C3127 1.400 . S
C3128 C3131 1.386 . S
H3129 C3145 0.930 . S
H3130 C3146 0.931 . S
C3131 H3119 0.929 . S
C3131 C3125 1.390 . S
C3131 C3128 1.386 . S
C3132 C3127 1.490 . S
C3132 C3134 1.395 . S
C3132 C3135 1.403 . S
H3133 C3139 0.930 . S
C3134 H3120 0.930 . S
C3134 C3132 1.395 . S
C3134 C3137 1.403 1_455 S
C3135 C3132 1.403 . S
C3135 C3136 1.524 . S
C3135 C3139 1.400 1_455 S
C3136 H3121 0.960 . S
C3136 H3122 0.960 . S
C3136 H3123 0.960 . S
C3136 C3135 1.524 . S
C3137 C3134 1.403 1_655 S
C3137 C3138 1.392 . S
C3137 C3141 1.495 . S
C3138 C3137 1.392 . S
C3138 C3139 1.385 . S
C3138 C3140 1.478 . S
C3139 H3133 0.930 . S
C3139 C3135 1.400 1_655 S
C3139 C3138 1.385 . S
C3140 C3138 1.478 . S
C3140 C3142 1.381 . S
C3140 C3146 1.383 . S
C3141 C3137 1.495 . S
C3141 H3147 0.959 . S
C3141 H3148 0.961 . S
C3141 H3149 0.960 . S
C3142 C3140 1.381 . S
C3142 C3143 1.394 . S
C3142 H3150 0.930 . S
C3143 C3142 1.394 . S
C3143 C3144 1.383 . S
C3143 H3151 0.929 . S
C3144 C3143 1.383 . S
C3144 C3145 1.377 . S
C3145 H3129 0.930 . S
C3145 C3144 1.377 . S
C3145 C3146 1.379 . S
C3146 H3130 0.931 . S
C3146 C3140 1.383 . S
C3146 C3145 1.379 . S
H3147 C3141 0.959 . S
H3148 C3141 0.961 . S
H3149 C3141 0.960 . S
H3150 C3142 0.930 . S
H3151 C3143 0.929 . S
H3152 C3160 0.929 . S
H3153 C3162 0.930 . S
H3154 C3164 0.930 . S
H3155 C3167 0.929 . S
H3156 C3170 0.930 . S
H3157 C3172 0.960 . S
H3158 C3172 0.960 . S
H3159 C3172 0.960 . S
C3160 H3152 0.929 . S
C3160 C3161 1.377 . S
C3160 C3162 1.384 . S
C3161 C3160 1.377 . S
C3161 C3167 1.390 . S
C3162 H3153 0.930 . S
C3162 C3160 1.384 . S
C3162 C3163 1.372 . S
C3163 C3162 1.372 . S
C3163 C3164 1.400 . S
C3163 C3168 1.490 . S
C3164 H3154 0.930 . S
C3164 C3163 1.400 . S
C3164 C3167 1.386 . S
H3165 C3181 0.930 . S
H3166 C3182 0.931 . S
C3167 H3155 0.929 . S
C3167 C3161 1.390 . S
C3167 C3164 1.386 . S
C3168 C3163 1.490 . S
C3168 C3170 1.395 . S
C3168 C3171 1.403 . S
H3169 C3175 0.930 . S
C3170 H3156 0.930 . S
C3170 C3168 1.395 . S
C3170 C3173 1.403 1_565 S
C3171 C3168 1.403 . S
C3171 C3172 1.524 . S
C3171 C3175 1.400 1_565 S
C3172 H3157 0.960 . S
C3172 H3158 0.960 . S
C3172 H3159 0.960 . S
C3172 C3171 1.524 . S
C3173 C3170 1.403 1_545 S
C3173 C3174 1.392 . S
C3173 C3177 1.495 . S
C3174 C3173 1.392 . S
C3174 C3175 1.385 . S
C3174 C3176 1.478 . S
C3175 H3169 0.930 . S
C3175 C3171 1.400 1_545 S
C3175 C3174 1.385 . S
C3176 C3174 1.478 . S
C3176 C3178 1.381 . S
C3176 C3182 1.383 . S
C3177 C3173 1.495 . S
C3177 H3183 0.959 . S
C3177 H3184 0.961 . S
C3177 H3185 0.960 . S
C3178 C3176 1.381 . S
C3178 C3179 1.394 . S
C3178 H3186 0.930 . S
C3179 C3178 1.394 . S
C3179 C3180 1.383 . S
C3179 H3187 0.929 . S
C3180 C3179 1.383 . S
C3180 C3181 1.377 . S
C3181 H3165 0.930 . S
C3181 C3180 1.377 . S
C3181 C3182 1.379 . S
C3182 H3166 0.931 . S
C3182 C3176 1.383 . S
C3182 C3181 1.379 . S
H3183 C3177 0.959 . S
H3184 C3177 0.961 . S
H3185 C3177 0.960 . S
H3186 C3178 0.930 . S
H3187 C3179 0.929 . S
H3188 C3196 0.929 . S
H3189 C3198 0.930 . S
H3190 C3200 0.930 . S
H3191 C3203 0.929 . S
H3192 C3206 0.930 . S
H3193 C3208 0.960 . S
H3194 C3208 0.960 . S
H3195 C3208 0.960 . S
C3196 H3188 0.929 . S
C3196 C3197 1.377 . S
C3196 C3198 1.384 . S
C3197 C3196 1.377 . S
C3197 C3203 1.390 . S
C3198 H3189 0.930 . S
C3198 C3196 1.384 . S
C3198 C3199 1.372 . S
C3199 C3198 1.372 . S
C3199 C3200 1.400 . S
C3199 C3204 1.490 . S
C3200 H3190 0.930 . S
C3200 C3199 1.400 . S
C3200 C3203 1.386 . S
H3201 C3217 0.930 . S
H3202 C3218 0.931 . S
C3203 H3191 0.929 . S
C3203 C3197 1.390 . S
C3203 C3200 1.386 . S
C3204 C3199 1.490 . S
C3204 C3206 1.395 . S
C3204 C3207 1.403 . S
H3205 C3211 0.930 . S
C3206 H3192 0.930 . S
C3206 C3204 1.395 . S
C3206 C3209 1.403 1_655 S
C3207 C3204 1.403 . S
C3207 C3208 1.524 . S
C3207 C3211 1.400 1_655 S
C3208 H3193 0.960 . S
C3208 H3194 0.960 . S
C3208 H3195 0.960 . S
C3208 C3207 1.524 . S
C3209 C3206 1.403 1_455 S
C3209 C3210 1.392 . S
C3209 C3213 1.495 . S
C3210 C3209 1.392 . S
C3210 C3211 1.385 . S
C3210 C3212 1.478 . S
C3211 H3205 0.930 . S
C3211 C3207 1.400 1_455 S
C3211 C3210 1.385 . S
C3212 C3210 1.478 . S
C3212 C3214 1.381 . S
C3212 C3218 1.383 . S
C3213 C3209 1.495 . S
C3213 H3219 0.959 . S
C3213 H3220 0.961 . S
C3213 H3221 0.960 . S
C3214 C3212 1.381 . S
C3214 C3215 1.394 . S
C3214 H3222 0.930 . S
C3215 C3214 1.394 . S
C3215 C3216 1.383 . S
C3215 H3223 0.929 . S
C3216 C3215 1.383 . S
C3216 C3217 1.377 . S
C3217 H3201 0.930 . S
C3217 C3216 1.377 . S
C3217 C3218 1.379 . S
C3218 H3202 0.931 . S
C3218 C3212 1.383 . S
C3218 C3217 1.379 . S
H3219 C3213 0.959 . S
H3220 C3213 0.961 . S
H3221 C3213 0.960 . S
H3222 C3214 0.930 . S
H3223 C3215 0.929 . S
H3224 C3232 0.929 . S
H3225 C3234 0.930 . S
H3226 C3236 0.930 . S
H3227 C3239 0.929 . S
H3228 C3242 0.930 . S
H3229 C3244 0.960 . S
H3230 C3244 0.960 . S
H3231 C3244 0.960 . S
C3232 H3224 0.929 . S
C3232 C3233 1.377 . S
C3232 C3234 1.384 . S
C3233 C3232 1.377 . S
C3233 C3239 1.390 . S
C3234 H3225 0.930 . S
C3234 C3232 1.384 . S
C3234 C3235 1.372 . S
C3235 C3234 1.372 . S
C3235 C3236 1.400 . S
C3235 C3240 1.490 . S
C3236 H3226 0.930 . S
C3236 C3235 1.400 . S
C3236 C3239 1.386 . S
H3237 C3253 0.930 . S
H3238 C3254 0.931 . S
C3239 H3227 0.929 . S
C3239 C3233 1.390 . S
C3239 C3236 1.386 . S
C3240 C3235 1.490 . S
C3240 C3242 1.395 . S
C3240 C3243 1.403 . S
H3241 C3247 0.930 . S
C3242 H3228 0.930 . S
C3242 C3240 1.395 . S
C3242 C3245 1.403 1_565 S
C3243 C3240 1.403 . S
C3243 C3244 1.524 . S
C3243 C3247 1.400 1_565 S
C3244 H3229 0.960 . S
C3244 H3230 0.960 . S
C3244 H3231 0.960 . S
C3244 C3243 1.524 . S
C3245 C3242 1.403 1_545 S
C3245 C3246 1.392 . S
C3245 C3249 1.495 . S
C3246 C3245 1.392 . S
C3246 C3247 1.385 . S
C3246 C3248 1.478 . S
C3247 H3241 0.930 . S
C3247 C3243 1.400 1_545 S
C3247 C3246 1.385 . S
C3248 C3246 1.478 . S
C3248 C3250 1.381 . S
C3248 C3254 1.383 . S
C3249 C3245 1.495 . S
C3249 H3255 0.959 . S
C3249 H3256 0.961 . S
C3249 H3257 0.960 . S
C3250 C3248 1.381 . S
C3250 C3251 1.394 . S
C3250 H3258 0.930 . S
C3251 C3250 1.394 . S
C3251 C3252 1.383 . S
C3251 H3259 0.929 . S
C3252 C3251 1.383 . S
C3252 C3253 1.377 . S
C3253 H3237 0.930 . S
C3253 C3252 1.377 . S
C3253 C3254 1.379 . S
C3254 H3238 0.931 . S
C3254 C3248 1.383 . S
C3254 C3253 1.379 . S
H3255 C3249 0.959 . S
H3256 C3249 0.961 . S
H3257 C3249 0.960 . S
H3258 C3250 0.930 . S
H3259 C3251 0.929 . S
H3260 C3268 0.929 . S
H3261 C3270 0.930 . S
H3262 C3272 0.930 . S
H3263 C3275 0.929 . S
H3264 C3278 0.930 . S
H3265 C3280 0.960 . S
H3266 C3280 0.960 . S
H3267 C3280 0.960 . S
C3268 H3260 0.929 . S
C3268 C3269 1.377 . S
C3268 C3270 1.384 . S
C3269 C3268 1.377 . S
C3269 C3275 1.390 . S
C3270 H3261 0.930 . S
C3270 C3268 1.384 . S
C3270 C3271 1.372 . S
C3271 C3270 1.372 . S
C3271 C3272 1.400 . S
C3271 C3276 1.490 . S
C3272 H3262 0.930 . S
C3272 C3271 1.400 . S
C3272 C3275 1.386 . S
H3273 C3289 0.930 . S
H3274 C3290 0.931 . S
C3275 H3263 0.929 . S
C3275 C3269 1.390 . S
C3275 C3272 1.386 . S
C3276 C3271 1.490 . S
C3276 C3278 1.395 . S
C3276 C3279 1.403 . S
H3277 C3283 0.930 . S
C3278 H3264 0.930 . S
C3278 C3276 1.395 . S
C3278 C3281 1.403 1_565 S
C3279 C3276 1.403 . S
C3279 C3280 1.524 . S
C3279 C3283 1.400 1_565 S
C3280 H3265 0.960 . S
C3280 H3266 0.960 . S
C3280 H3267 0.960 . S
C3280 C3279 1.524 . S
C3281 C3278 1.403 1_545 S
C3281 C3282 1.392 . S
C3281 C3285 1.495 . S
C3282 C3281 1.392 . S
C3282 C3283 1.385 . S
C3282 C3284 1.478 . S
C3283 H3277 0.930 . S
C3283 C3279 1.400 1_545 S
C3283 C3282 1.385 . S
C3284 C3282 1.478 . S
C3284 C3286 1.381 . S
C3284 C3290 1.383 . S
C3285 C3281 1.495 . S
C3285 H3291 0.959 . S
C3285 H3292 0.961 . S
C3285 H3293 0.960 . S
C3286 C3284 1.381 . S
C3286 C3287 1.394 . S
C3286 H3294 0.930 . S
C3287 C3286 1.394 . S
C3287 C3288 1.383 . S
C3287 H3295 0.929 . S
C3288 C3287 1.383 . S
C3288 C3289 1.377 . S
C3289 H3273 0.930 . S
C3289 C3288 1.377 . S
C3289 C3290 1.379 . S
C3290 H3274 0.931 . S
C3290 C3284 1.383 . S
C3290 C3289 1.379 . S
H3291 C3285 0.959 . S
H3292 C3285 0.961 . S
H3293 C3285 0.960 . S
H3294 C3286 0.930 . S
H3295 C3287 0.929 . S
H3296 C3304 0.929 . S
H3297 C3306 0.930 . S
H3298 C3308 0.930 . S
H3299 C3311 0.929 . S
H3300 C3314 0.930 . S
H3301 C3316 0.960 . S
H3302 C3316 0.960 . S
H3303 C3316 0.960 . S
C3304 H3296 0.929 . S
C3304 C3305 1.377 . S
C3304 C3306 1.384 . S
C3305 C3304 1.377 . S
C3305 C3311 1.390 . S
C3306 H3297 0.930 . S
C3306 C3304 1.384 . S
C3306 C3307 1.372 . S
C3307 C3306 1.372 . S
C3307 C3308 1.400 . S
C3307 C3312 1.490 . S
C3308 H3298 0.930 . S
C3308 C3307 1.400 . S
C3308 C3311 1.386 . S
H3309 C3325 0.930 . S
H3310 C3326 0.931 . S
C3311 H3299 0.929 . S
C3311 C3305 1.390 . S
C3311 C3308 1.386 . S
C3312 C3307 1.490 . S
C3312 C3314 1.395 . S
C3312 C3315 1.403 . S
H3313 C3319 0.930 . S
C3314 H3300 0.930 . S
C3314 C3312 1.395 . S
C3314 C3317 1.403 . S
C3315 C3312 1.403 . S
C3315 C3316 1.524 . S
C3315 C3319 1.400 . S
C3316 H3301 0.960 . S
C3316 H3302 0.960 . S
C3316 H3303 0.960 . S
C3316 C3315 1.524 . S
C3317 C3314 1.403 . S
C3317 C3318 1.392 . S
C3317 C3321 1.495 . S
C3318 C3317 1.392 . S
C3318 C3319 1.385 . S
C3318 C3320 1.478 . S
C3319 H3313 0.930 . S
C3319 C3315 1.400 . S
C3319 C3318 1.385 . S
C3320 C3318 1.478 . S
C3320 C3322 1.381 . S
C3320 C3326 1.383 . S
C3321 C3317 1.495 . S
C3321 H3327 0.959 . S
C3321 H3328 0.961 . S
C3321 H3329 0.960 . S
C3322 C3320 1.381 . S
C3322 C3323 1.394 . S
C3322 H3330 0.930 . S
C3323 C3322 1.394 . S
C3323 C3324 1.383 . S
C3323 H3331 0.929 . S
C3324 C3323 1.383 . S
C3324 C3325 1.377 . S
C3325 H3309 0.930 . S
C3325 C3324 1.377 . S
C3325 C3326 1.379 . S
C3326 H3310 0.931 . S
C3326 C3320 1.383 . S
C3326 C3325 1.379 . S
H3327 C3321 0.959 . S
H3328 C3321 0.961 . S
H3329 C3321 0.960 . S
H3330 C3322 0.930 . S
H3331 C3323 0.929 . S
H3332 C3340 0.929 . S
H3333 C3342 0.930 . S
H3334 C3344 0.930 . S
H3335 C3347 0.929 . S
H3336 C3350 0.930 . S
H3337 C3352 0.960 . S
H3338 C3352 0.960 . S
H3339 C3352 0.960 . S
C3340 H3332 0.929 . S
C3340 C3341 1.377 . S
C3340 C3342 1.384 . S
C3341 C3340 1.377 . S
C3341 C3347 1.390 . S
C3342 H3333 0.930 . S
C3342 C3340 1.384 . S
C3342 C3343 1.372 . S
C3343 C3342 1.372 . S
C3343 C3344 1.400 . S
C3343 C3348 1.490 . S
C3344 H3334 0.930 . S
C3344 C3343 1.400 . S
C3344 C3347 1.386 . S
H3345 C3361 0.930 . S
H3346 C3362 0.931 . S
C3347 H3335 0.929 . S
C3347 C3341 1.390 . S
C3347 C3344 1.386 . S
C3348 C3343 1.490 . S
C3348 C3350 1.395 . S
C3348 C3351 1.403 . S
H3349 C3355 0.930 . S
C3350 H3336 0.930 . S
C3350 C3348 1.395 . S
C3350 C3353 1.403 . S
C3351 C3348 1.403 . S
C3351 C3352 1.524 . S
C3351 C3355 1.400 . S
C3352 H3337 0.960 . S
C3352 H3338 0.960 . S
C3352 H3339 0.960 . S
C3352 C3351 1.524 . S
C3353 C3350 1.403 . S
C3353 C3354 1.392 . S
C3353 C3357 1.495 . S
C3354 C3353 1.392 . S
C3354 C3355 1.385 . S
C3354 C3356 1.478 . S
C3355 H3349 0.930 . S
C3355 C3351 1.400 . S
C3355 C3354 1.385 . S
C3356 C3354 1.478 . S
C3356 C3358 1.381 . S
C3356 C3362 1.383 . S
C3357 C3353 1.495 . S
C3357 H3363 0.959 . S
C3357 H3364 0.961 . S
C3357 H3365 0.960 . S
C3358 C3356 1.381 . S
C3358 C3359 1.394 . S
C3358 H3366 0.930 . S
C3359 C3358 1.394 . S
C3359 C3360 1.383 . S
C3359 H3367 0.929 . S
C3360 C3359 1.383 . S
C3360 C3361 1.377 . S
C3361 H3345 0.930 . S
C3361 C3360 1.377 . S
C3361 C3362 1.379 . S
C3362 H3346 0.931 . S
C3362 C3356 1.383 . S
C3362 C3361 1.379 . S
H3363 C3357 0.959 . S
H3364 C3357 0.961 . S
H3365 C3357 0.960 . S
H3366 C3358 0.930 . S
H3367 C3359 0.929 . S
H3368 C3376 0.929 . S
H3369 C3378 0.930 . S
H3370 C3380 0.930 . S
H3371 C3383 0.929 . S
H3372 C3386 0.930 . S
H3373 C3388 0.960 . S
H3374 C3388 0.960 . S
H3375 C3388 0.960 . S
C3376 H3368 0.929 . S
C3376 C3377 1.377 . S
C3376 C3378 1.384 . S
C3377 C3376 1.377 . S
C3377 C3383 1.390 . S
C3378 H3369 0.930 . S
C3378 C3376 1.384 . S
C3378 C3379 1.372 . S
C3379 C3378 1.372 . S
C3379 C3380 1.400 . S
C3379 C3384 1.490 . S
C3380 H3370 0.930 . S
C3380 C3379 1.400 . S
C3380 C3383 1.386 . S
H3381 C3397 0.930 . S
H3382 C3398 0.931 . S
C3383 H3371 0.929 . S
C3383 C3377 1.390 . S
C3383 C3380 1.386 . S
C3384 C3379 1.490 . S
C3384 C3386 1.395 . S
C3384 C3387 1.403 . S
H3385 C3391 0.930 . S
C3386 H3372 0.930 . S
C3386 C3384 1.395 . S
C3386 C3389 1.403 . S
C3387 C3384 1.403 . S
C3387 C3388 1.524 . S
C3387 C3391 1.400 . S
C3388 H3373 0.960 . S
C3388 H3374 0.960 . S
C3388 H3375 0.960 . S
C3388 C3387 1.524 . S
C3389 C3386 1.403 . S
C3389 C3390 1.392 . S
C3389 C3393 1.495 . S
C3390 C3389 1.392 . S
C3390 C3391 1.385 . S
C3390 C3392 1.478 . S
C3391 H3385 0.930 . S
C3391 C3387 1.400 . S
C3391 C3390 1.385 . S
C3392 C3390 1.478 . S
C3392 C3394 1.381 . S
C3392 C3398 1.383 . S
C3393 C3389 1.495 . S
C3393 H3399 0.959 . S
C3393 H3400 0.961 . S
C3393 H3401 0.960 . S
C3394 C3392 1.381 . S
C3394 C3395 1.394 . S
C3394 H3402 0.930 . S
C3395 C3394 1.394 . S
C3395 C3396 1.383 . S
C3395 H3403 0.929 . S
C3396 C3395 1.383 . S
C3396 C3397 1.377 . S
C3397 H3381 0.930 . S
C3397 C3396 1.377 . S
C3397 C3398 1.379 . S
C3398 H3382 0.931 . S
C3398 C3392 1.383 . S
C3398 C3397 1.379 . S
H3399 C3393 0.959 . S
H3400 C3393 0.961 . S
H3401 C3393 0.960 . S
H3402 C3394 0.930 . S
H3403 C3395 0.929 . S
H3404 C3412 0.929 . S
H3405 C3414 0.930 . S
H3406 C3416 0.930 . S
H3407 C3419 0.929 . S
H3408 C3422 0.930 . S
H3409 C3424 0.960 . S
H3410 C3424 0.960 . S
H3411 C3424 0.960 . S
C3412 H3404 0.929 . S
C3412 C3413 1.377 . S
C3412 C3414 1.384 . S
C3413 C3412 1.377 . S
C3413 C3419 1.390 . S
C3414 H3405 0.930 . S
C3414 C3412 1.384 . S
C3414 C3415 1.372 . S
C3415 C3414 1.372 . S
C3415 C3416 1.400 . S
C3415 C3420 1.490 . S
C3416 H3406 0.930 . S
C3416 C3415 1.400 . S
C3416 C3419 1.386 . S
H3417 C3433 0.930 . S
H3418 C3434 0.931 . S
C3419 H3407 0.929 . S
C3419 C3413 1.390 . S
C3419 C3416 1.386 . S
C3420 C3415 1.490 . S
C3420 C3422 1.395 . S
C3420 C3423 1.403 . S
H3421 C3427 0.930 . S
C3422 H3408 0.930 . S
C3422 C3420 1.395 . S
C3422 C3425 1.403 . S
C3423 C3420 1.403 . S
C3423 C3424 1.524 . S
C3423 C3427 1.400 . S
C3424 H3409 0.960 . S
C3424 H3410 0.960 . S
C3424 H3411 0.960 . S
C3424 C3423 1.524 . S
C3425 C3422 1.403 . S
C3425 C3426 1.392 . S
C3425 C3429 1.495 . S
C3426 C3425 1.392 . S
C3426 C3427 1.385 . S
C3426 C3428 1.478 . S
C3427 H3421 0.930 . S
C3427 C3423 1.400 . S
C3427 C3426 1.385 . S
C3428 C3426 1.478 . S
C3428 C3430 1.381 . S
C3428 C3434 1.383 . S
C3429 C3425 1.495 . S
C3429 H3435 0.959 . S
C3429 H3436 0.961 . S
C3429 H3437 0.960 . S
C3430 C3428 1.381 . S
C3430 C3431 1.394 . S
C3430 H3438 0.930 . S
C3431 C3430 1.394 . S
C3431 C3432 1.383 . S
C3431 H3439 0.929 . S
C3432 C3431 1.383 . S
C3432 C3433 1.377 . S
C3433 H3417 0.930 . S
C3433 C3432 1.377 . S
C3433 C3434 1.379 . S
C3434 H3418 0.931 . S
C3434 C3428 1.383 . S
C3434 C3433 1.379 . S
H3435 C3429 0.959 . S
H3436 C3429 0.961 . S
H3437 C3429 0.960 . S
H3438 C3430 0.930 . S
H3439 C3431 0.929 . S
H3440 C3448 0.929 . S
H3441 C3450 0.930 . S
H3442 C3452 0.930 . S
H3443 C3455 0.929 . S
H3444 C3458 0.930 . S
H3445 C3460 0.960 . S
H3446 C3460 0.960 . S
H3447 C3460 0.960 . S
C3448 H3440 0.929 . S
C3448 C3449 1.377 . S
C3448 C3450 1.384 . S
C3449 C3448 1.377 . S
C3449 C3455 1.390 . S
C3450 H3441 0.930 . S
C3450 C3448 1.384 . S
C3450 C3451 1.372 . S
C3451 C3450 1.372 . S
C3451 C3452 1.400 . S
C3451 C3456 1.490 . S
C3452 H3442 0.930 . S
C3452 C3451 1.400 . S
C3452 C3455 1.386 . S
H3453 C3469 0.930 . S
H3454 C3470 0.931 . S
C3455 H3443 0.929 . S
C3455 C3449 1.390 . S
C3455 C3452 1.386 . S
C3456 C3451 1.490 . S
C3456 C3458 1.395 . S
C3456 C3459 1.403 . S
H3457 C3463 0.930 . S
C3458 H3444 0.930 . S
C3458 C3456 1.395 . S
C3458 C3461 1.403 . S
C3459 C3456 1.403 . S
C3459 C3460 1.524 . S
C3459 C3463 1.400 . S
C3460 H3445 0.960 . S
C3460 H3446 0.960 . S
C3460 H3447 0.960 . S
C3460 C3459 1.524 . S
C3461 C3458 1.403 . S
C3461 C3462 1.392 . S
C3461 C3465 1.495 . S
C3462 C3461 1.392 . S
C3462 C3463 1.385 . S
C3462 C3464 1.478 . S
C3463 H3457 0.930 . S
C3463 C3459 1.400 . S
C3463 C3462 1.385 . S
C3464 C3462 1.478 . S
C3464 C3466 1.381 . S
C3464 C3470 1.383 . S
C3465 C3461 1.495 . S
C3465 H3471 0.959 . S
C3465 H3472 0.961 . S
C3465 H3473 0.960 . S
C3466 C3464 1.381 . S
C3466 C3467 1.394 . S
C3466 H3474 0.930 . S
C3467 C3466 1.394 . S
C3467 C3468 1.383 . S
C3467 H3475 0.929 . S
C3468 C3467 1.383 . S
C3468 C3469 1.377 . S
C3469 H3453 0.930 . S
C3469 C3468 1.377 . S
C3469 C3470 1.379 . S
C3470 H3454 0.931 . S
C3470 C3464 1.383 . S
C3470 C3469 1.379 . S
H3471 C3465 0.959 . S
H3472 C3465 0.961 . S
H3473 C3465 0.960 . S
H3474 C3466 0.930 . S
H3475 C3467 0.929 . S
H3476 C3484 0.929 . S
H3477 C3486 0.930 . S
H3478 C3488 0.930 . S
H3479 C3491 0.929 . S
H3480 C3494 0.930 . S
H3481 C3496 0.960 . S
H3482 C3496 0.960 . S
H3483 C3496 0.960 . S
C3484 H3476 0.929 . S
C3484 C3485 1.377 . S
C3484 C3486 1.384 . S
C3485 C3484 1.377 . S
C3485 C3491 1.390 . S
C3486 H3477 0.930 . S
C3486 C3484 1.384 . S
C3486 C3487 1.372 . S
C3487 C3486 1.372 . S
C3487 C3488 1.400 . S
C3487 C3492 1.490 . S
C3488 H3478 0.930 . S
C3488 C3487 1.400 . S
C3488 C3491 1.386 . S
H3489 C3505 0.930 . S
H3490 C3506 0.931 . S
C3491 H3479 0.929 . S
C3491 C3485 1.390 . S
C3491 C3488 1.386 . S
C3492 C3487 1.490 . S
C3492 C3494 1.395 . S
C3492 C3495 1.403 . S
H3493 C3499 0.930 . S
C3494 H3480 0.930 . S
C3494 C3492 1.395 . S
C3494 C3497 1.403 . S
C3495 C3492 1.403 . S
C3495 C3496 1.524 . S
C3495 C3499 1.400 . S
C3496 H3481 0.960 . S
C3496 H3482 0.960 . S
C3496 H3483 0.960 . S
C3496 C3495 1.524 . S
C3497 C3494 1.403 . S
C3497 C3498 1.392 . S
C3497 C3501 1.495 . S
C3498 C3497 1.392 . S
C3498 C3499 1.385 . S
C3498 C3500 1.478 . S
C3499 H3493 0.930 . S
C3499 C3495 1.400 . S
C3499 C3498 1.385 . S
C3500 C3498 1.478 . S
C3500 C3502 1.381 . S
C3500 C3506 1.383 . S
C3501 C3497 1.495 . S
C3501 H3507 0.959 . S
C3501 H3508 0.961 . S
C3501 H3509 0.960 . S
C3502 C3500 1.381 . S
C3502 C3503 1.394 . S
C3502 H3510 0.930 . S
C3503 C3502 1.394 . S
C3503 C3504 1.383 . S
C3503 H3511 0.929 . S
C3504 C3503 1.383 . S
C3504 C3505 1.377 . S
C3505 H3489 0.930 . S
C3505 C3504 1.377 . S
C3505 C3506 1.379 . S
C3506 H3490 0.931 . S
C3506 C3500 1.383 . S
C3506 C3505 1.379 . S
H3507 C3501 0.959 . S
H3508 C3501 0.961 . S
H3509 C3501 0.960 . S
H3510 C3502 0.930 . S
H3511 C3503 0.929 . S
H3512 C3520 0.929 . S
H3513 C3522 0.930 . S
H3514 C3524 0.930 . S
H3515 C3527 0.929 . S
H3516 C3530 0.930 . S
H3517 C3532 0.960 . S
H3518 C3532 0.960 . S
H3519 C3532 0.960 . S
C3520 H3512 0.929 . S
C3520 C3521 1.377 . S
C3520 C3522 1.384 . S
C3521 C3520 1.377 . S
C3521 C3527 1.390 . S
C3522 H3513 0.930 . S
C3522 C3520 1.384 . S
C3522 C3523 1.372 . S
C3523 C3522 1.372 . S
C3523 C3524 1.400 . S
C3523 C3528 1.490 . S
C3524 H3514 0.930 . S
C3524 C3523 1.400 . S
C3524 C3527 1.386 . S
H3525 C3541 0.930 . S
H3526 C3542 0.931 . S
C3527 H3515 0.929 . S
C3527 C3521 1.390 . S
C3527 C3524 1.386 . S
C3528 C3523 1.490 . S
C3528 C3530 1.395 . S
C3528 C3531 1.403 . S
H3529 C3535 0.930 . S
C3530 H3516 0.930 . S
C3530 C3528 1.395 . S
C3530 C3533 1.403 . S
C3531 C3528 1.403 . S
C3531 C3532 1.524 . S
C3531 C3535 1.400 . S
C3532 H3517 0.960 . S
C3532 H3518 0.960 . S
C3532 H3519 0.960 . S
C3532 C3531 1.524 . S
C3533 C3530 1.403 . S
C3533 C3534 1.392 . S
C3533 C3537 1.495 . S
C3534 C3533 1.392 . S
C3534 C3535 1.385 . S
C3534 C3536 1.478 . S
C3535 H3529 0.930 . S
C3535 C3531 1.400 . S
C3535 C3534 1.385 . S
C3536 C3534 1.478 . S
C3536 C3538 1.381 . S
C3536 C3542 1.383 . S
C3537 C3533 1.495 . S
C3537 H3543 0.959 . S
C3537 H3544 0.961 . S
C3537 H3545 0.960 . S
C3538 C3536 1.381 . S
C3538 C3539 1.394 . S
C3538 H3546 0.930 . S
C3539 C3538 1.394 . S
C3539 C3540 1.383 . S
C3539 H3547 0.929 . S
C3540 C3539 1.383 . S
C3540 C3541 1.377 . S
C3541 H3525 0.930 . S
C3541 C3540 1.377 . S
C3541 C3542 1.379 . S
C3542 H3526 0.931 . S
C3542 C3536 1.383 . S
C3542 C3541 1.379 . S
H3543 C3537 0.959 . S
H3544 C3537 0.961 . S
H3545 C3537 0.960 . S
H3546 C3538 0.930 . S
H3547 C3539 0.929 . S
H3548 C3556 0.929 . S
H3549 C3558 0.930 . S
H3550 C3560 0.930 . S
H3551 C3563 0.929 . S
H3552 C3566 0.930 . S
H3553 C3568 0.960 . S
H3554 C3568 0.960 . S
H3555 C3568 0.960 . S
C3556 H3548 0.929 . S
C3556 C3557 1.377 . S
C3556 C3558 1.384 . S
C3557 C3556 1.377 . S
C3557 C3563 1.390 . S
C3558 H3549 0.930 . S
C3558 C3556 1.384 . S
C3558 C3559 1.372 . S
C3559 C3558 1.372 . S
C3559 C3560 1.400 . S
C3559 C3564 1.490 . S
C3560 H3550 0.930 . S
C3560 C3559 1.400 . S
C3560 C3563 1.386 . S
H3561 C3577 0.930 . S
H3562 C3578 0.931 . S
C3563 H3551 0.929 . S
C3563 C3557 1.390 . S
C3563 C3560 1.386 . S
C3564 C3559 1.490 . S
C3564 C3566 1.395 . S
C3564 C3567 1.403 . S
H3565 C3571 0.930 . S
C3566 H3552 0.930 . S
C3566 C3564 1.395 . S
C3566 C3569 1.403 . S
C3567 C3564 1.403 . S
C3567 C3568 1.524 . S
C3567 C3571 1.400 . S
C3568 H3553 0.960 . S
C3568 H3554 0.960 . S
C3568 H3555 0.960 . S
C3568 C3567 1.524 . S
C3569 C3566 1.403 . S
C3569 C3570 1.392 . S
C3569 C3573 1.495 . S
C3570 C3569 1.392 . S
C3570 C3571 1.385 . S
C3570 C3572 1.478 . S
C3571 H3565 0.930 . S
C3571 C3567 1.400 . S
C3571 C3570 1.385 . S
C3572 C3570 1.478 . S
C3572 C3574 1.381 . S
C3572 C3578 1.383 . S
C3573 C3569 1.495 . S
C3573 H3579 0.959 . S
C3573 H3580 0.961 . S
C3573 H3581 0.960 . S
C3574 C3572 1.381 . S
C3574 C3575 1.394 . S
C3574 H3582 0.930 . S
C3575 C3574 1.394 . S
C3575 C3576 1.383 . S
C3575 H3583 0.929 . S
C3576 C3575 1.383 . S
C3576 C3577 1.377 . S
C3577 H3561 0.930 . S
C3577 C3576 1.377 . S
C3577 C3578 1.379 . S
C3578 H3562 0.931 . S
C3578 C3572 1.383 . S
C3578 C3577 1.379 . S
H3579 C3573 0.959 . S
H3580 C3573 0.961 . S
H3581 C3573 0.960 . S
H3582 C3574 0.930 . S
H3583 C3575 0.929 . S
H3584 C3592 0.929 . S
H3585 C3594 0.930 . S
H3586 C3596 0.930 . S
H3587 C3599 0.929 . S
H3588 C3602 0.930 . S
H3589 C3604 0.960 . S
H3590 C3604 0.960 . S
H3591 C3604 0.960 . S
C3592 H3584 0.929 . S
C3592 C3593 1.377 . S
C3592 C3594 1.384 . S
C3593 C3592 1.377 . S
C3593 C3599 1.390 . S
C3594 H3585 0.930 . S
C3594 C3592 1.384 . S
C3594 C3595 1.372 . S
C3595 C3594 1.372 . S
C3595 C3596 1.400 . S
C3595 C3600 1.490 . S
C3596 H3586 0.930 . S
C3596 C3595 1.400 . S
C3596 C3599 1.386 . S
H3597 C3613 0.930 . S
H3598 C3614 0.931 . S
C3599 H3587 0.929 . S
C3599 C3593 1.390 . S
C3599 C3596 1.386 . S
C3600 C3595 1.490 . S
C3600 C3602 1.395 . S
C3600 C3603 1.403 . S
H3601 C3607 0.930 . S
C3602 H3588 0.930 . S
C3602 C3600 1.395 . S
C3602 C3605 1.403 . S
C3603 C3600 1.403 . S
C3603 C3604 1.524 . S
C3603 C3607 1.400 . S
C3604 H3589 0.960 . S
C3604 H3590 0.960 . S
C3604 H3591 0.960 . S
C3604 C3603 1.524 . S
C3605 C3602 1.403 . S
C3605 C3606 1.392 . S
C3605 C3609 1.495 . S
C3606 C3605 1.392 . S
C3606 C3607 1.385 . S
C3606 C3608 1.478 . S
C3607 H3601 0.930 . S
C3607 C3603 1.400 . S
C3607 C3606 1.385 . S
C3608 C3606 1.478 . S
C3608 C3610 1.381 . S
C3608 C3614 1.383 . S
C3609 C3605 1.495 . S
C3609 H3615 0.959 . S
C3609 H3616 0.961 . S
C3609 H3617 0.960 . S
C3610 C3608 1.381 . S
C3610 C3611 1.394 . S
C3610 H3618 0.930 . S
C3611 C3610 1.394 . S
C3611 C3612 1.383 . S
C3611 H3619 0.929 . S
C3612 C3611 1.383 . S
C3612 C3613 1.377 . S
C3613 H3597 0.930 . S
C3613 C3612 1.377 . S
C3613 C3614 1.379 . S
C3614 H3598 0.931 . S
C3614 C3608 1.383 . S
C3614 C3613 1.379 . S
H3615 C3609 0.959 . S
H3616 C3609 0.961 . S
H3617 C3609 0.960 . S
H3618 C3610 0.930 . S
H3619 C3611 0.929 . S
H3620 C3628 0.929 . S
H3621 C3630 0.930 . S
H3622 C3632 0.930 . S
H3623 C3635 0.929 . S
H3624 C3638 0.930 . S
H3625 C3640 0.960 . S
H3626 C3640 0.960 . S
H3627 C3640 0.960 . S
C3628 H3620 0.929 . S
C3628 C3629 1.377 . S
C3628 C3630 1.384 . S
C3629 C3628 1.377 . S
C3629 C3635 1.390 . S
C3630 H3621 0.930 . S
C3630 C3628 1.384 . S
C3630 C3631 1.372 . S
C3631 C3630 1.372 . S
C3631 C3632 1.400 . S
C3631 C3636 1.490 . S
C3632 H3622 0.930 . S
C3632 C3631 1.400 . S
C3632 C3635 1.386 . S
H3633 C3649 0.930 . S
H3634 C3650 0.931 . S
C3635 H3623 0.929 . S
C3635 C3629 1.390 . S
C3635 C3632 1.386 . S
C3636 C3631 1.490 . S
C3636 C3638 1.395 . S
C3636 C3639 1.403 . S
H3637 C3643 0.930 . S
C3638 H3624 0.930 . S
C3638 C3636 1.395 . S
C3638 C3641 1.403 . S
C3639 C3636 1.403 . S
C3639 C3640 1.524 . S
C3639 C3643 1.400 . S
C3640 H3625 0.960 . S
C3640 H3626 0.960 . S
C3640 H3627 0.960 . S
C3640 C3639 1.524 . S
C3641 C3638 1.403 . S
C3641 C3642 1.392 . S
C3641 C3645 1.495 . S
C3642 C3641 1.392 . S
C3642 C3643 1.385 . S
C3642 C3644 1.478 . S
C3643 H3637 0.930 . S
C3643 C3639 1.400 . S
C3643 C3642 1.385 . S
C3644 C3642 1.478 . S
C3644 C3646 1.381 . S
C3644 C3650 1.383 . S
C3645 C3641 1.495 . S
C3645 H3651 0.959 . S
C3645 H3652 0.961 . S
C3645 H3653 0.960 . S
C3646 C3644 1.381 . S
C3646 C3647 1.394 . S
C3646 H3654 0.930 . S
C3647 C3646 1.394 . S
C3647 C3648 1.383 . S
C3647 H3655 0.929 . S
C3648 C3647 1.383 . S
C3648 C3649 1.377 . S
C3649 H3633 0.930 . S
C3649 C3648 1.377 . S
C3649 C3650 1.379 . S
C3650 H3634 0.931 . S
C3650 C3644 1.383 . S
C3650 C3649 1.379 . S
H3651 C3645 0.959 . S
H3652 C3645 0.961 . S
H3653 C3645 0.960 . S
H3654 C3646 0.930 . S
H3655 C3647 0.929 . S
H3656 C3664 0.929 . S
H3657 C3666 0.930 . S
H3658 C3668 0.930 . S
H3659 C3671 0.929 . S
H3660 C3674 0.930 . S
H3661 C3676 0.960 . S
H3662 C3676 0.960 . S
H3663 C3676 0.960 . S
C3664 H3656 0.929 . S
C3664 C3665 1.377 . S
C3664 C3666 1.384 . S
C3665 C3664 1.377 . S
C3665 C3671 1.390 . S
C3666 H3657 0.930 . S
C3666 C3664 1.384 . S
C3666 C3667 1.372 . S
C3667 C3666 1.372 . S
C3667 C3668 1.400 . S
C3667 C3672 1.490 . S
C3668 H3658 0.930 . S
C3668 C3667 1.400 . S
C3668 C3671 1.386 . S
H3669 C3685 0.930 . S
H3670 C3686 0.931 . S
C3671 H3659 0.929 . S
C3671 C3665 1.390 . S
C3671 C3668 1.386 . S
C3672 C3667 1.490 . S
C3672 C3674 1.395 . S
C3672 C3675 1.403 . S
H3673 C3679 0.930 . S
C3674 H3660 0.930 . S
C3674 C3672 1.395 . S
C3674 C3677 1.403 . S
C3675 C3672 1.403 . S
C3675 C3676 1.524 . S
C3675 C3679 1.400 . S
C3676 H3661 0.960 . S
C3676 H3662 0.960 . S
C3676 H3663 0.960 . S
C3676 C3675 1.524 . S
C3677 C3674 1.403 . S
C3677 C3678 1.392 . S
C3677 C3681 1.495 . S
C3678 C3677 1.392 . S
C3678 C3679 1.385 . S
C3678 C3680 1.478 . S
C3679 H3673 0.930 . S
C3679 C3675 1.400 . S
C3679 C3678 1.385 . S
C3680 C3678 1.478 . S
C3680 C3682 1.381 . S
C3680 C3686 1.383 . S
C3681 C3677 1.495 . S
C3681 H3687 0.959 . S
C3681 H3688 0.961 . S
C3681 H3689 0.960 . S
C3682 C3680 1.381 . S
C3682 C3683 1.394 . S
C3682 H3690 0.930 . S
C3683 C3682 1.394 . S
C3683 C3684 1.383 . S
C3683 H3691 0.929 . S
C3684 C3683 1.383 . S
C3684 C3685 1.377 . S
C3685 H3669 0.930 . S
C3685 C3684 1.377 . S
C3685 C3686 1.379 . S
C3686 H3670 0.931 . S
C3686 C3680 1.383 . S
C3686 C3685 1.379 . S
H3687 C3681 0.959 . S
H3688 C3681 0.961 . S
H3689 C3681 0.960 . S
H3690 C3682 0.930 . S
H3691 C3683 0.929 . S
H3692 C3700 0.929 . S
H3693 C3702 0.930 . S
H3694 C3704 0.930 . S
H3695 C3707 0.929 . S
H3696 C3710 0.930 . S
H3697 C3712 0.960 . S
H3698 C3712 0.960 . S
H3699 C3712 0.960 . S
C3700 H3692 0.929 . S
C3700 C3701 1.377 . S
C3700 C3702 1.384 . S
C3701 C3700 1.377 . S
C3701 C3707 1.390 . S
C3702 H3693 0.930 . S
C3702 C3700 1.384 . S
C3702 C3703 1.372 . S
C3703 C3702 1.372 . S
C3703 C3704 1.400 . S
C3703 C3708 1.490 . S
C3704 H3694 0.930 . S
C3704 C3703 1.400 . S
C3704 C3707 1.386 . S
H3705 C3721 0.930 . S
H3706 C3722 0.931 . S
C3707 H3695 0.929 . S
C3707 C3701 1.390 . S
C3707 C3704 1.386 . S
C3708 C3703 1.490 . S
C3708 C3710 1.395 . S
C3708 C3711 1.403 . S
H3709 C3715 0.930 . S
C3710 H3696 0.930 . S
C3710 C3708 1.395 . S
C3710 C3713 1.403 . S
C3711 C3708 1.403 . S
C3711 C3712 1.524 . S
C3711 C3715 1.400 . S
C3712 H3697 0.960 . S
C3712 H3698 0.960 . S
C3712 H3699 0.960 . S
C3712 C3711 1.524 . S
C3713 C3710 1.403 . S
C3713 C3714 1.392 . S
C3713 C3717 1.495 . S
C3714 C3713 1.392 . S
C3714 C3715 1.385 . S
C3714 C3716 1.478 . S
C3715 H3709 0.930 . S
C3715 C3711 1.400 . S
C3715 C3714 1.385 . S
C3716 C3714 1.478 . S
C3716 C3718 1.381 . S
C3716 C3722 1.383 . S
C3717 C3713 1.495 . S
C3717 H3723 0.959 . S
C3717 H3724 0.961 . S
C3717 H3725 0.960 . S
C3718 C3716 1.381 . S
C3718 C3719 1.394 . S
C3718 H3726 0.930 . S
C3719 C3718 1.394 . S
C3719 C3720 1.383 . S
C3719 H3727 0.929 . S
C3720 C3719 1.383 . S
C3720 C3721 1.377 . S
C3721 H3705 0.930 . S
C3721 C3720 1.377 . S
C3721 C3722 1.379 . S
C3722 H3706 0.931 . S
C3722 C3716 1.383 . S
C3722 C3721 1.379 . S
H3723 C3717 0.959 . S
H3724 C3717 0.961 . S
H3725 C3717 0.960 . S
H3726 C3718 0.930 . S
H3727 C3719 0.929 . S
H3728 C3736 0.929 . S
H3729 C3738 0.930 . S
H3730 C3740 0.930 . S
H3731 C3743 0.929 . S
H3732 C3746 0.930 . S
H3733 C3748 0.960 . S
H3734 C3748 0.960 . S
H3735 C3748 0.960 . S
C3736 H3728 0.929 . S
C3736 C3737 1.377 . S
C3736 C3738 1.384 . S
C3737 C3736 1.377 . S
C3737 C3743 1.390 . S
C3738 H3729 0.930 . S
C3738 C3736 1.384 . S
C3738 C3739 1.372 . S
C3739 C3738 1.372 . S
C3739 C3740 1.400 . S
C3739 C3744 1.490 . S
C3740 H3730 0.930 . S
C3740 C3739 1.400 . S
C3740 C3743 1.386 . S
H3741 C3757 0.930 . S
H3742 C3758 0.931 . S
C3743 H3731 0.929 . S
C3743 C3737 1.390 . S
C3743 C3740 1.386 . S
C3744 C3739 1.490 . S
C3744 C3746 1.395 . S
C3744 C3747 1.403 . S
H3745 C3751 0.930 . S
C3746 H3732 0.930 . S
C3746 C3744 1.395 . S
C3746 C3749 1.403 . S
C3747 C3744 1.403 . S
C3747 C3748 1.524 . S
C3747 C3751 1.400 . S
C3748 H3733 0.960 . S
C3748 H3734 0.960 . S
C3748 H3735 0.960 . S
C3748 C3747 1.524 . S
C3749 C3746 1.403 . S
C3749 C3750 1.392 . S
C3749 C3753 1.495 . S
C3750 C3749 1.392 . S
C3750 C3751 1.385 . S
C3750 C3752 1.478 . S
C3751 H3745 0.930 . S
C3751 C3747 1.400 . S
C3751 C3750 1.385 . S
C3752 C3750 1.478 . S
C3752 C3754 1.381 . S
C3752 C3758 1.383 . S
C3753 C3749 1.495 . S
C3753 H3759 0.959 . S
C3753 H3760 0.961 . S
C3753 H3761 0.960 . S
C3754 C3752 1.381 . S
C3754 C3755 1.394 . S
C3754 H3762 0.930 . S
C3755 C3754 1.394 . S
C3755 C3756 1.383 . S
C3755 H3763 0.929 . S
C3756 C3755 1.383 . S
C3756 C3757 1.377 . S
C3757 H3741 0.930 . S
C3757 C3756 1.377 . S
C3757 C3758 1.379 . S
C3758 H3742 0.931 . S
C3758 C3752 1.383 . S
C3758 C3757 1.379 . S
H3759 C3753 0.959 . S
H3760 C3753 0.961 . S
H3761 C3753 0.960 . S
H3762 C3754 0.930 . S
H3763 C3755 0.929 . S
H3764 C3772 0.929 . S
H3765 C3774 0.930 . S
H3766 C3776 0.930 . S
H3767 C3779 0.929 . S
H3768 C3782 0.930 . S
H3769 C3784 0.960 . S
H3770 C3784 0.960 . S
H3771 C3784 0.960 . S
C3772 H3764 0.929 . S
C3772 C3773 1.377 . S
C3772 C3774 1.384 . S
C3773 C3772 1.377 . S
C3773 C3779 1.390 . S
C3774 H3765 0.930 . S
C3774 C3772 1.384 . S
C3774 C3775 1.372 . S
C3775 C3774 1.372 . S
C3775 C3776 1.400 . S
C3775 C3780 1.490 . S
C3776 H3766 0.930 . S
C3776 C3775 1.400 . S
C3776 C3779 1.386 . S
H3777 C3793 0.930 . S
H3778 C3794 0.931 . S
C3779 H3767 0.929 . S
C3779 C3773 1.390 . S
C3779 C3776 1.386 . S
C3780 C3775 1.490 . S
C3780 C3782 1.395 . S
C3780 C3783 1.403 . S
H3781 C3787 0.930 . S
C3782 H3768 0.930 . S
C3782 C3780 1.395 . S
C3782 C3785 1.403 . S
C3783 C3780 1.403 . S
C3783 C3784 1.524 . S
C3783 C3787 1.400 . S
C3784 H3769 0.960 . S
C3784 H3770 0.960 . S
C3784 H3771 0.960 . S
C3784 C3783 1.524 . S
C3785 C3782 1.403 . S
C3785 C3786 1.392 . S
C3785 C3789 1.495 . S
C3786 C3785 1.392 . S
C3786 C3787 1.385 . S
C3786 C3788 1.478 . S
C3787 H3781 0.930 . S
C3787 C3783 1.400 . S
C3787 C3786 1.385 . S
C3788 C3786 1.478 . S
C3788 C3790 1.381 . S
C3788 C3794 1.383 . S
C3789 C3785 1.495 . S
C3789 H3795 0.959 . S
C3789 H3796 0.961 . S
C3789 H3797 0.960 . S
C3790 C3788 1.381 . S
C3790 C3791 1.394 . S
C3790 H3798 0.930 . S
C3791 C3790 1.394 . S
C3791 C3792 1.383 . S
C3791 H3799 0.929 . S
C3792 C3791 1.383 . S
C3792 C3793 1.377 . S
C3793 H3777 0.930 . S
C3793 C3792 1.377 . S
C3793 C3794 1.379 . S
C3794 H3778 0.931 . S
C3794 C3788 1.383 . S
C3794 C3793 1.379 . S
H3795 C3789 0.959 . S
H3796 C3789 0.961 . S
H3797 C3789 0.960 . S
H3798 C3790 0.930 . S
H3799 C3791 0.929 . S
H3800 C3808 0.929 . S
H3801 C3810 0.930 . S
H3802 C3812 0.930 . S
H3803 C3815 0.929 . S
H3804 C3818 0.930 . S
H3805 C3820 0.960 . S
H3806 C3820 0.960 . S
H3807 C3820 0.960 . S
C3808 H3800 0.929 . S
C3808 C3809 1.377 . S
C3808 C3810 1.384 . S
C3809 C3808 1.377 . S
C3809 C3815 1.390 . S
C3810 H3801 0.930 . S
C3810 C3808 1.384 . S
C3810 C3811 1.372 . S
C3811 C3810 1.372 . S
C3811 C3812 1.400 . S
C3811 C3816 1.490 . S
C3812 H3802 0.930 . S
C3812 C3811 1.400 . S
C3812 C3815 1.386 . S
H3813 C3829 0.930 . S
H3814 C3830 0.931 . S
C3815 H3803 0.929 . S
C3815 C3809 1.390 . S
C3815 C3812 1.386 . S
C3816 C3811 1.490 . S
C3816 C3818 1.395 . S
C3816 C3819 1.403 . S
H3817 C3823 0.930 . S
C3818 H3804 0.930 . S
C3818 C3816 1.395 . S
C3818 C3821 1.403 . S
C3819 C3816 1.403 . S
C3819 C3820 1.524 . S
C3819 C3823 1.400 . S
C3820 H3805 0.960 . S
C3820 H3806 0.960 . S
C3820 H3807 0.960 . S
C3820 C3819 1.524 . S
C3821 C3818 1.403 . S
C3821 C3822 1.392 . S
C3821 C3825 1.495 . S
C3822 C3821 1.392 . S
C3822 C3823 1.385 . S
C3822 C3824 1.478 . S
C3823 H3817 0.930 . S
C3823 C3819 1.400 . S
C3823 C3822 1.385 . S
C3824 C3822 1.478 . S
C3824 C3826 1.381 . S
C3824 C3830 1.383 . S
C3825 C3821 1.495 . S
C3825 H3831 0.959 . S
C3825 H3832 0.961 . S
C3825 H3833 0.960 . S
C3826 C3824 1.381 . S
C3826 C3827 1.394 . S
C3826 H3834 0.930 . S
C3827 C3826 1.394 . S
C3827 C3828 1.383 . S
C3827 H3835 0.929 . S
C3828 C3827 1.383 . S
C3828 C3829 1.377 . S
C3829 H3813 0.930 . S
C3829 C3828 1.377 . S
C3829 C3830 1.379 . S
C3830 H3814 0.931 . S
C3830 C3824 1.383 . S
C3830 C3829 1.379 . S
H3831 C3825 0.959 . S
H3832 C3825 0.961 . S
H3833 C3825 0.960 . S
H3834 C3826 0.930 . S
H3835 C3827 0.929 . S
H3836 C3844 0.929 . S
H3837 C3846 0.930 . S
H3838 C3848 0.930 . S
H3839 C3851 0.929 . S
H3840 C3854 0.930 . S
H3841 C3856 0.960 . S
H3842 C3856 0.960 . S
H3843 C3856 0.960 . S
C3844 H3836 0.929 . S
C3844 C3845 1.377 . S
C3844 C3846 1.384 . S
C3845 C3844 1.377 . S
C3845 C3851 1.390 . S
C3846 H3837 0.930 . S
C3846 C3844 1.384 . S
C3846 C3847 1.372 . S
C3847 C3846 1.372 . S
C3847 C3848 1.400 . S
C3847 C3852 1.490 . S
C3848 H3838 0.930 . S
C3848 C3847 1.400 . S
C3848 C3851 1.386 . S
H3849 C3865 0.930 . S
H3850 C3866 0.931 . S
C3851 H3839 0.929 . S
C3851 C3845 1.390 . S
C3851 C3848 1.386 . S
C3852 C3847 1.490 . S
C3852 C3854 1.395 . S
C3852 C3855 1.403 . S
H3853 C3859 0.930 . S
C3854 H3840 0.930 . S
C3854 C3852 1.395 . S
C3854 C3857 1.403 . S
C3855 C3852 1.403 . S
C3855 C3856 1.524 . S
C3855 C3859 1.400 . S
C3856 H3841 0.960 . S
C3856 H3842 0.960 . S
C3856 H3843 0.960 . S
C3856 C3855 1.524 . S
C3857 C3854 1.403 . S
C3857 C3858 1.392 . S
C3857 C3861 1.495 . S
C3858 C3857 1.392 . S
C3858 C3859 1.385 . S
C3858 C3860 1.478 . S
C3859 H3853 0.930 . S
C3859 C3855 1.400 . S
C3859 C3858 1.385 . S
C3860 C3858 1.478 . S
C3860 C3862 1.381 . S
C3860 C3866 1.383 . S
C3861 C3857 1.495 . S
C3861 H3867 0.959 . S
C3861 H3868 0.961 . S
C3861 H3869 0.960 . S
C3862 C3860 1.381 . S
C3862 C3863 1.394 . S
C3862 H3870 0.930 . S
C3863 C3862 1.394 . S
C3863 C3864 1.383 . S
C3863 H3871 0.929 . S
C3864 C3863 1.383 . S
C3864 C3865 1.377 . S
C3865 H3849 0.930 . S
C3865 C3864 1.377 . S
C3865 C3866 1.379 . S
C3866 H3850 0.931 . S
C3866 C3860 1.383 . S
C3866 C3865 1.379 . S
H3867 C3861 0.959 . S
H3868 C3861 0.961 . S
H3869 C3861 0.960 . S
H3870 C3862 0.930 . S
H3871 C3863 0.929 . S
H3872 C3880 0.929 . S
H3873 C3882 0.930 . S
H3874 C3884 0.930 . S
H3875 C3887 0.929 . S
H3876 C3890 0.930 . S
H3877 C3892 0.960 . S
H3878 C3892 0.960 . S
H3879 C3892 0.960 . S
C3880 H3872 0.929 . S
C3880 C3881 1.377 . S
C3880 C3882 1.384 . S
C3881 C3880 1.377 . S
C3881 C3887 1.390 . S
C3882 H3873 0.930 . S
C3882 C3880 1.384 . S
C3882 C3883 1.372 . S
C3883 C3882 1.372 . S
C3883 C3884 1.400 . S
C3883 C3888 1.490 . S
C3884 H3874 0.930 . S
C3884 C3883 1.400 . S
C3884 C3887 1.386 . S
H3885 C3901 0.930 . S
H3886 C3902 0.931 . S
C3887 H3875 0.929 . S
C3887 C3881 1.390 . S
C3887 C3884 1.386 . S
C3888 C3883 1.490 . S
C3888 C3890 1.395 . S
C3888 C3891 1.403 . S
H3889 C3895 0.930 . S
C3890 H3876 0.930 . S
C3890 C3888 1.395 . S
C3890 C3893 1.403 . S
C3891 C3888 1.403 . S
C3891 C3892 1.524 . S
C3891 C3895 1.400 . S
C3892 H3877 0.960 . S
C3892 H3878 0.960 . S
C3892 H3879 0.960 . S
C3892 C3891 1.524 . S
C3893 C3890 1.403 . S
C3893 C3894 1.392 . S
C3893 C3897 1.495 . S
C3894 C3893 1.392 . S
C3894 C3895 1.385 . S
C3894 C3896 1.478 . S
C3895 H3889 0.930 . S
C3895 C3891 1.400 . S
C3895 C3894 1.385 . S
C3896 C3894 1.478 . S
C3896 C3898 1.381 . S
C3896 C3902 1.383 . S
C3897 C3893 1.495 . S
C3897 H3903 0.959 . S
C3897 H3904 0.961 . S
C3897 H3905 0.960 . S
C3898 C3896 1.381 . S
C3898 C3899 1.394 . S
C3898 H3906 0.930 . S
C3899 C3898 1.394 . S
C3899 C3900 1.383 . S
C3899 H3907 0.929 . S
C3900 C3899 1.383 . S
C3900 C3901 1.377 . S
C3901 H3885 0.930 . S
C3901 C3900 1.377 . S
C3901 C3902 1.379 . S
C3902 H3886 0.931 . S
C3902 C3896 1.383 . S
C3902 C3901 1.379 . S
H3903 C3897 0.959 . S
H3904 C3897 0.961 . S
H3905 C3897 0.960 . S
H3906 C3898 0.930 . S
H3907 C3899 0.929 . S
H3908 C3916 0.929 . S
H3909 C3918 0.930 . S
H3910 C3920 0.930 . S
H3911 C3923 0.929 . S
H3912 C3926 0.930 . S
H3913 C3928 0.960 . S
H3914 C3928 0.960 . S
H3915 C3928 0.960 . S
C3916 H3908 0.929 . S
C3916 C3917 1.377 . S
C3916 C3918 1.384 . S
C3917 C3916 1.377 . S
C3917 C3923 1.390 . S
C3918 H3909 0.930 . S
C3918 C3916 1.384 . S
C3918 C3919 1.372 . S
C3919 C3918 1.372 . S
C3919 C3920 1.400 . S
C3919 C3924 1.490 . S
C3920 H3910 0.930 . S
C3920 C3919 1.400 . S
C3920 C3923 1.386 . S
H3921 C3937 0.930 . S
H3922 C3938 0.931 . S
C3923 H3911 0.929 . S
C3923 C3917 1.390 . S
C3923 C3920 1.386 . S
C3924 C3919 1.490 . S
C3924 C3926 1.395 . S
C3924 C3927 1.403 . S
H3925 C3931 0.930 . S
C3926 H3912 0.930 . S
C3926 C3924 1.395 . S
C3926 C3929 1.403 . S
C3927 C3924 1.403 . S
C3927 C3928 1.524 . S
C3927 C3931 1.400 . S
C3928 H3913 0.960 . S
C3928 H3914 0.960 . S
C3928 H3915 0.960 . S
C3928 C3927 1.524 . S
C3929 C3926 1.403 . S
C3929 C3930 1.392 . S
C3929 C3933 1.495 . S
C3930 C3929 1.392 . S
C3930 C3931 1.385 . S
C3930 C3932 1.478 . S
C3931 H3925 0.930 . S
C3931 C3927 1.400 . S
C3931 C3930 1.385 . S
C3932 C3930 1.478 . S
C3932 C3934 1.381 . S
C3932 C3938 1.383 . S
C3933 C3929 1.495 . S
C3933 H3939 0.959 . S
C3933 H3940 0.961 . S
C3933 H3941 0.960 . S
C3934 C3932 1.381 . S
C3934 C3935 1.394 . S
C3934 H3942 0.930 . S
C3935 C3934 1.394 . S
C3935 C3936 1.383 . S
C3935 H3943 0.929 . S
C3936 C3935 1.383 . S
C3936 C3937 1.377 . S
C3937 H3921 0.930 . S
C3937 C3936 1.377 . S
C3937 C3938 1.379 . S
C3938 H3922 0.931 . S
C3938 C3932 1.383 . S
C3938 C3937 1.379 . S
H3939 C3933 0.959 . S
H3940 C3933 0.961 . S
H3941 C3933 0.960 . S
H3942 C3934 0.930 . S
H3943 C3935 0.929 . S
H3944 C3952 0.929 . S
H3945 C3954 0.930 . S
H3946 C3956 0.930 . S
H3947 C3959 0.929 . S
H3948 C3962 0.930 . S
H3949 C3964 0.960 . S
H3950 C3964 0.960 . S
H3951 C3964 0.960 . S
C3952 H3944 0.929 . S
C3952 C3953 1.377 . S
C3952 C3954 1.384 . S
C3953 C3952 1.377 . S
C3953 C3959 1.390 . S
C3954 H3945 0.930 . S
C3954 C3952 1.384 . S
C3954 C3955 1.372 . S
C3955 C3954 1.372 . S
C3955 C3956 1.400 . S
C3955 C3960 1.490 . S
C3956 H3946 0.930 . S
C3956 C3955 1.400 . S
C3956 C3959 1.386 . S
H3957 C3973 0.930 . S
H3958 C3974 0.931 . S
C3959 H3947 0.929 . S
C3959 C3953 1.390 . S
C3959 C3956 1.386 . S
C3960 C3955 1.490 . S
C3960 C3962 1.395 . S
C3960 C3963 1.403 . S
H3961 C3967 0.930 . S
C3962 H3948 0.930 . S
C3962 C3960 1.395 . S
C3962 C3965 1.403 . S
C3963 C3960 1.403 . S
C3963 C3964 1.524 . S
C3963 C3967 1.400 . S
C3964 H3949 0.960 . S
C3964 H3950 0.960 . S
C3964 H3951 0.960 . S
C3964 C3963 1.524 . S
C3965 C3962 1.403 . S
C3965 C3966 1.392 . S
C3965 C3969 1.495 . S
C3966 C3965 1.392 . S
C3966 C3967 1.385 . S
C3966 C3968 1.478 . S
C3967 H3961 0.930 . S
C3967 C3963 1.400 . S
C3967 C3966 1.385 . S
C3968 C3966 1.478 . S
C3968 C3970 1.381 . S
C3968 C3974 1.383 . S
C3969 C3965 1.495 . S
C3969 H3975 0.959 . S
C3969 H3976 0.961 . S
C3969 H3977 0.960 . S
C3970 C3968 1.381 . S
C3970 C3971 1.394 . S
C3970 H3978 0.930 . S
C3971 C3970 1.394 . S
C3971 C3972 1.383 . S
C3971 H3979 0.929 . S
C3972 C3971 1.383 . S
C3972 C3973 1.377 . S
C3973 H3957 0.930 . S
C3973 C3972 1.377 . S
C3973 C3974 1.379 . S
C3974 H3958 0.931 . S
C3974 C3968 1.383 . S
C3974 C3973 1.379 . S
H3975 C3969 0.959 . S
H3976 C3969 0.961 . S
H3977 C3969 0.960 . S
H3978 C3970 0.930 . S
H3979 C3971 0.929 . S
H3980 C3988 0.929 . S
H3981 C3990 0.930 . S
H3982 C3992 0.930 . S
H3983 C3995 0.929 . S
H3984 C3998 0.930 . S
H3985 C4000 0.960 . S
H3986 C4000 0.960 . S
H3987 C4000 0.960 . S
C3988 H3980 0.929 . S
C3988 C3989 1.377 . S
C3988 C3990 1.384 . S
C3989 C3988 1.377 . S
C3989 C3995 1.390 . S
C3990 H3981 0.930 . S
C3990 C3988 1.384 . S
C3990 C3991 1.372 . S
C3991 C3990 1.372 . S
C3991 C3992 1.400 . S
C3991 C3996 1.490 . S
C3992 H3982 0.930 . S
C3992 C3991 1.400 . S
C3992 C3995 1.386 . S
H3993 C4009 0.930 . S
H3994 C4010 0.931 . S
C3995 H3983 0.929 . S
C3995 C3989 1.390 . S
C3995 C3992 1.386 . S
C3996 C3991 1.490 . S
C3996 C3998 1.395 . S
C3996 C3999 1.403 . S
H3997 C4003 0.930 . S
C3998 H3984 0.930 . S
C3998 C3996 1.395 . S
C3998 C4001 1.403 . S
C3999 C3996 1.403 . S
C3999 C4000 1.524 . S
C3999 C4003 1.400 . S
C4000 H3985 0.960 . S
C4000 H3986 0.960 . S
C4000 H3987 0.960 . S
C4000 C3999 1.524 . S
C4001 C3998 1.403 . S
C4001 C4002 1.392 . S
C4001 C4005 1.495 . S
C4002 C4001 1.392 . S
C4002 C4003 1.385 . S
C4002 C4004 1.478 . S
C4003 H3997 0.930 . S
C4003 C3999 1.400 . S
C4003 C4002 1.385 . S
C4004 C4002 1.478 . S
C4004 C4006 1.381 . S
C4004 C4010 1.383 . S
C4005 C4001 1.495 . S
C4005 H4011 0.959 . S
C4005 H4012 0.961 . S
C4005 H4013 0.960 . S
C4006 C4004 1.381 . S
C4006 C4007 1.394 . S
C4006 H4014 0.930 . S
C4007 C4006 1.394 . S
C4007 C4008 1.383 . S
C4007 H4015 0.929 . S
C4008 C4007 1.383 . S
C4008 C4009 1.377 . S
C4009 H3993 0.930 . S
C4009 C4008 1.377 . S
C4009 C4010 1.379 . S
C4010 H3994 0.931 . S
C4010 C4004 1.383 . S
C4010 C4009 1.379 . S
H4011 C4005 0.959 . S
H4012 C4005 0.961 . S
H4013 C4005 0.960 . S
H4014 C4006 0.930 . S
H4015 C4007 0.929 . S
H4016 C4024 0.929 . S
H4017 C4026 0.930 . S
H4018 C4028 0.930 . S
H4019 C4031 0.929 . S
H4020 C4034 0.930 . S
H4021 C4036 0.960 . S
H4022 C4036 0.960 . S
H4023 C4036 0.960 . S
C4024 H4016 0.929 . S
C4024 C4025 1.377 . S
C4024 C4026 1.384 . S
C4025 C4024 1.377 . S
C4025 C4031 1.390 . S
C4026 H4017 0.930 . S
C4026 C4024 1.384 . S
C4026 C4027 1.372 . S
C4027 C4026 1.372 . S
C4027 C4028 1.400 . S
C4027 C4032 1.490 . S
C4028 H4018 0.930 . S
C4028 C4027 1.400 . S
C4028 C4031 1.386 . S
H4029 C4045 0.930 . S
H4030 C4046 0.931 . S
C4031 H4019 0.929 . S
C4031 C4025 1.390 . S
C4031 C4028 1.386 . S
C4032 C4027 1.490 . S
C4032 C4034 1.395 . S
C4032 C4035 1.403 . S
H4033 C4039 0.930 . S
C4034 H4020 0.930 . S
C4034 C4032 1.395 . S
C4034 C4037 1.403 . S
C4035 C4032 1.403 . S
C4035 C4036 1.524 . S
C4035 C4039 1.400 . S
C4036 H4021 0.960 . S
C4036 H4022 0.960 . S
C4036 H4023 0.960 . S
C4036 C4035 1.524 . S
C4037 C4034 1.403 . S
C4037 C4038 1.392 . S
C4037 C4041 1.495 . S
C4038 C4037 1.392 . S
C4038 C4039 1.385 . S
C4038 C4040 1.478 . S
C4039 H4033 0.930 . S
C4039 C4035 1.400 . S
C4039 C4038 1.385 . S
C4040 C4038 1.478 . S
C4040 C4042 1.381 . S
C4040 C4046 1.383 . S
C4041 C4037 1.495 . S
C4041 H4047 0.959 . S
C4041 H4048 0.961 . S
C4041 H4049 0.960 . S
C4042 C4040 1.381 . S
C4042 C4043 1.394 . S
C4042 H4050 0.930 . S
C4043 C4042 1.394 . S
C4043 C4044 1.383 . S
C4043 H4051 0.929 . S
C4044 C4043 1.383 . S
C4044 C4045 1.377 . S
C4045 H4029 0.930 . S
C4045 C4044 1.377 . S
C4045 C4046 1.379 . S
C4046 H4030 0.931 . S
C4046 C4040 1.383 . S
C4046 C4045 1.379 . S
H4047 C4041 0.959 . S
H4048 C4041 0.961 . S
H4049 C4041 0.960 . S
H4050 C4042 0.930 . S
H4051 C4043 0.929 . S
H4052 C4060 0.929 . S
H4053 C4062 0.930 . S
H4054 C4064 0.930 . S
H4055 C4067 0.929 . S
H4056 C4070 0.930 . S
H4057 C4072 0.960 . S
H4058 C4072 0.960 . S
H4059 C4072 0.960 . S
C4060 H4052 0.929 . S
C4060 C4061 1.377 . S
C4060 C4062 1.384 . S
C4061 C4060 1.377 . S
C4061 C4067 1.390 . S
C4062 H4053 0.930 . S
C4062 C4060 1.384 . S
C4062 C4063 1.372 . S
C4063 C4062 1.372 . S
C4063 C4064 1.400 . S
C4063 C4068 1.490 . S
C4064 H4054 0.930 . S
C4064 C4063 1.400 . S
C4064 C4067 1.386 . S
H4065 C4081 0.930 . S
H4066 C4082 0.931 . S
C4067 H4055 0.929 . S
C4067 C4061 1.390 . S
C4067 C4064 1.386 . S
C4068 C4063 1.490 . S
C4068 C4070 1.395 . S
C4068 C4071 1.403 . S
H4069 C4075 0.930 . S
C4070 H4056 0.930 . S
C4070 C4068 1.395 . S
C4070 C4073 1.403 . S
C4071 C4068 1.403 . S
C4071 C4072 1.524 . S
C4071 C4075 1.400 . S
C4072 H4057 0.960 . S
C4072 H4058 0.960 . S
C4072 H4059 0.960 . S
C4072 C4071 1.524 . S
C4073 C4070 1.403 . S
C4073 C4074 1.392 . S
C4073 C4077 1.495 . S
C4074 C4073 1.392 . S
C4074 C4075 1.385 . S
C4074 C4076 1.478 . S
C4075 H4069 0.930 . S
C4075 C4071 1.400 . S
C4075 C4074 1.385 . S
C4076 C4074 1.478 . S
C4076 C4078 1.381 . S
C4076 C4082 1.383 . S
C4077 C4073 1.495 . S
C4077 H4083 0.959 . S
C4077 H4084 0.961 . S
C4077 H4085 0.960 . S
C4078 C4076 1.381 . S
C4078 C4079 1.394 . S
C4078 H4086 0.930 . S
C4079 C4078 1.394 . S
C4079 C4080 1.383 . S
C4079 H4087 0.929 . S
C4080 C4079 1.383 . S
C4080 C4081 1.377 . S
C4081 H4065 0.930 . S
C4081 C4080 1.377 . S
C4081 C4082 1.379 . S
C4082 H4066 0.931 . S
C4082 C4076 1.383 . S
C4082 C4081 1.379 . S
H4083 C4077 0.959 . S
H4084 C4077 0.961 . S
H4085 C4077 0.960 . S
H4086 C4078 0.930 . S
H4087 C4079 0.929 . S
H4088 C4096 0.929 . S
H4089 C4098 0.930 . S
H4090 C4100 0.930 . S
H4091 C4103 0.929 . S
H4092 C4106 0.930 . S
H4093 C4108 0.960 . S
H4094 C4108 0.960 . S
H4095 C4108 0.960 . S
C4096 H4088 0.929 . S
C4096 C4097 1.377 . S
C4096 C4098 1.384 . S
C4097 C4096 1.377 . S
C4097 C4103 1.390 . S
C4098 H4089 0.930 . S
C4098 C4096 1.384 . S
C4098 C4099 1.372 . S
C4099 C4098 1.372 . S
C4099 C4100 1.400 . S
C4099 C4104 1.490 . S
C4100 H4090 0.930 . S
C4100 C4099 1.400 . S
C4100 C4103 1.386 . S
H4101 C4117 0.930 . S
H4102 C4118 0.931 . S
C4103 H4091 0.929 . S
C4103 C4097 1.390 . S
C4103 C4100 1.386 . S
C4104 C4099 1.490 . S
C4104 C4106 1.395 . S
C4104 C4107 1.403 . S
H4105 C4111 0.930 . S
C4106 H4092 0.930 . S
C4106 C4104 1.395 . S
C4106 C4109 1.403 . S
C4107 C4104 1.403 . S
C4107 C4108 1.524 . S
C4107 C4111 1.400 . S
C4108 H4093 0.960 . S
C4108 H4094 0.960 . S
C4108 H4095 0.960 . S
C4108 C4107 1.524 . S
C4109 C4106 1.403 . S
C4109 C4110 1.392 . S
C4109 C4113 1.495 . S
C4110 C4109 1.392 . S
C4110 C4111 1.385 . S
C4110 C4112 1.478 . S
C4111 H4105 0.930 . S
C4111 C4107 1.400 . S
C4111 C4110 1.385 . S
C4112 C4110 1.478 . S
C4112 C4114 1.381 . S
C4112 C4118 1.383 . S
C4113 C4109 1.495 . S
C4113 H4119 0.959 . S
C4113 H4120 0.961 . S
C4113 H4121 0.960 . S
C4114 C4112 1.381 . S
C4114 C4115 1.394 . S
C4114 H4122 0.930 . S
C4115 C4114 1.394 . S
C4115 C4116 1.383 . S
C4115 H4123 0.929 . S
C4116 C4115 1.383 . S
C4116 C4117 1.377 . S
C4117 H4101 0.930 . S
C4117 C4116 1.377 . S
C4117 C4118 1.379 . S
C4118 H4102 0.931 . S
C4118 C4112 1.383 . S
C4118 C4117 1.379 . S
H4119 C4113 0.959 . S
H4120 C4113 0.961 . S
H4121 C4113 0.960 . S
H4122 C4114 0.930 . S
H4123 C4115 0.929 . S
H4124 C4132 0.929 . S
H4125 C4134 0.930 . S
H4126 C4136 0.930 . S
H4127 C4139 0.929 . S
H4128 C4142 0.930 . S
H4129 C4144 0.960 . S
H4130 C4144 0.960 . S
H4131 C4144 0.960 . S
C4132 H4124 0.929 . S
C4132 C4133 1.377 . S
C4132 C4134 1.384 . S
C4133 C4132 1.377 . S
C4133 C4139 1.390 . S
C4134 H4125 0.930 . S
C4134 C4132 1.384 . S
C4134 C4135 1.372 . S
C4135 C4134 1.372 . S
C4135 C4136 1.400 . S
C4135 C4140 1.490 . S
C4136 H4126 0.930 . S
C4136 C4135 1.400 . S
C4136 C4139 1.386 . S
H4137 C4153 0.930 . S
H4138 C4154 0.931 . S
C4139 H4127 0.929 . S
C4139 C4133 1.390 . S
C4139 C4136 1.386 . S
C4140 C4135 1.490 . S
C4140 C4142 1.395 . S
C4140 C4143 1.403 . S
H4141 C4147 0.930 . S
C4142 H4128 0.930 . S
C4142 C4140 1.395 . S
C4142 C4145 1.403 . S
C4143 C4140 1.403 . S
C4143 C4144 1.524 . S
C4143 C4147 1.400 . S
C4144 H4129 0.960 . S
C4144 H4130 0.960 . S
C4144 H4131 0.960 . S
C4144 C4143 1.524 . S
C4145 C4142 1.403 . S
C4145 C4146 1.392 . S
C4145 C4149 1.495 . S
C4146 C4145 1.392 . S
C4146 C4147 1.385 . S
C4146 C4148 1.478 . S
C4147 H4141 0.930 . S
C4147 C4143 1.400 . S
C4147 C4146 1.385 . S
C4148 C4146 1.478 . S
C4148 C4150 1.381 . S
C4148 C4154 1.383 . S
C4149 C4145 1.495 . S
C4149 H4155 0.959 . S
C4149 H4156 0.961 . S
C4149 H4157 0.960 . S
C4150 C4148 1.381 . S
C4150 C4151 1.394 . S
C4150 H4158 0.930 . S
C4151 C4150 1.394 . S
C4151 C4152 1.383 . S
C4151 H4159 0.929 . S
C4152 C4151 1.383 . S
C4152 C4153 1.377 . S
C4153 H4137 0.930 . S
C4153 C4152 1.377 . S
C4153 C4154 1.379 . S
C4154 H4138 0.931 . S
C4154 C4148 1.383 . S
C4154 C4153 1.379 . S
H4155 C4149 0.959 . S
H4156 C4149 0.961 . S
H4157 C4149 0.960 . S
H4158 C4150 0.930 . S
H4159 C4151 0.929 . S
C713 C367 0.848 . S
C732 C21 0.842 . S
C749 C513 0.846 . S
C768 C37 0.850 . S
C785 C59 0.847 . S
C804 C469 0.843 . S
C821 C73 0.848 . S
C840 C491 0.841 . S
C857 C109 0.847 . S
C876 C389 0.844 . S
C893 C117 0.847 . S
C912 C411 0.842 . S
C929 C425 0.847 . S
C948 C139 0.842 . S
C965 C161 0.847 . S
C984 C447 0.842 . S
C1001 C197 0.846 . S
C1020 C15 0.848 . S
C1037 C29 0.847 . S
C1056 C219 0.843 . S
C1073 C227 0.846 . S
C1092 C51 0.849 . S
C1109 C87 0.847 . S
C1128 C263 0.845 . S
C1145 C103 0.847 . S
C1164 C271 0.843 . S
C1181 C307 0.847 . S
C1200 C131 0.843 . S
C1217 C153 0.847 . S
C1236 C329 0.845 . S
C1253 C337 0.846 . S
C1272 C175 0.851 . S
C1289 C191 0.847 . S
C1308 C373 0.845 . S
C1325 C395 0.846 . S
C1344 C285 0.847 . S
C1361 C417 0.846 . S
C1380 C301 0.847 . S
C1397 C323 0.846 . S
C1416 C433 0.847 . S
C1433 C455 0.846 . S
C1452 C351 0.851 . S
C1469 C477 0.846 . S
C1488 C241 0.847 . S
C1505 C257 0.846 . S
C1524 C499 0.848 . S
C1541 C521 0.846 . S
C1560 C213 0.850 . S
C1577 C689 0.846 . S
C1596 C345 0.849 . S
C1613 C293 0.847 . S
C1632 C667 0.843 . S
C1649 C631 0.848 . S
C1668 C249 0.842 . S
C1685 C653 0.847 . S
C1704 C205 0.842 . S
C1721 C381 0.848 . S
C1740 C549 0.842 . S
C1757 C439 0.848 . S
C1776 C557 0.841 . S
C1793 C579 0.847 . S
C1812 C359 0.842 . S
C1829 C601 0.847 . S
C1848 C483 0.845 . S
C1865 C543 0.847 . S
C1884 C95 0.843 . S
C1901 C593 0.847 . S
C1920 C7 0.842 . S
C1937 C81 0.847 . S
C1956 C637 0.845 . S
C1973 C615 0.846 . S
C1992 C65 0.849 . S
C2009 C659 0.847 . S
C2028 C43 0.846 . S
C2045 C147 0.846 . S
C2064 C571 0.850 . S
C2081 C675 0.847 . S
C2100 C125 0.842 . S
C2117 C169 0.846 . S
C2136 C697 0.848 . S
C2153 C315 0.848 . S
C2172 C565 0.841 . S
C2189 C279 0.848 . S
C2208 C535 0.841 . S
C2225 C609 0.847 . S
C2244 C235 0.844 . S
C2261 C587 0.846 . S
C2280 C183 0.848 . S
C2297 C403 0.846 . S
C2316 C681 0.850 . S
C2333 C461 0.846 . S
C2352 C703 0.850 . S
C2369 C645 0.847 . S
C2388 C527 0.845 . S
C2405 C505 0.848 . S
C2424 C623 0.841 . S
C2441 C84 1.592 . S
C2460 C10 1.585 . S
C2477 C40 1.592 . S
C2496 C8 1.584 . S
C2513 C32 1.591 . S
C2532 C62 1.590 . S
C2549 C54 1.593 . S
C2568 C74 1.583 . S
C2585 C128 1.594 . S
C2604 C98 1.584 . S
C2621 C150 1.591 . S
C2640 C118 1.588 . S
C2657 C140 1.594 . S
C2676 C172 1.588 . S
C2693 C162 1.594 . S
C2712 C96 1.587 . S
C2729 C186 1.594 . S
C2748 C404 1.588 . S
C2765 C428 1.594 . S
C2784 C208 1.584 . S
C2801 C450 1.594 . S
C2820 C228 1.594 . S
C2837 C252 1.591 . S
C2856 C382 1.590 . S
C2873 C272 1.591 . S
C2892 C494 1.590 . S
C2909 C360 1.591 . S
C2928 C296 1.590 . S
C2945 C516 1.593 . S
C2964 C318 1.595 . S
C2981 C338 1.593 . S
C3000 C472 1.583 . S
C3017 C362 1.591 . S
C3036 C206 1.592 . S
C3053 C384 1.592 . S
C3072 C348 1.585 . S
C3089 C282 1.594 . S
C3108 C406 1.590 . S
C3125 C294 1.592 . S
C3144 C436 1.586 . S
C3161 C458 1.592 . S
C3180 C316 1.583 . S
C3197 C480 1.593 . S
C3216 C250 1.595 . S
C3233 C502 1.592 . S
C3252 C184 1.585 . S
C3269 C238 1.592 . S
C3288 C524 1.595 . S
C3305 C392 1.592 . S
C3324 C304 1.585 . S
C3341 C340 1.592 . S
C3360 C426 1.596 . S
C3377 C370 1.592 . S
C3396 C260 1.596 . S
C3413 C216 1.594 . S
C3432 C470 1.585 . S
C3449 C538 1.594 . S
C3468 C624 1.589 . S
C3485 C52 1.592 . S
C3504 C164 1.584 . S
C3521 C558 1.594 . S
C3540 C646 1.594 . S
C3557 C120 1.594 . S
C3576 C18 1.590 . S
C3593 C670 1.592 . S
C3612 C580 1.586 . S
C3629 C76 1.591 . S
C3648 C106 1.588 . S
C3665 C602 1.594 . S
C3684 C692 1.587 . S
C3701 C142 1.593 . S
C3720 C30 1.583 . S
C3737 C626 1.593 . S
C3756 C590 1.583 . S
C3773 C612 1.594 . S
C3792 C648 1.595 . S
C3809 C536 1.592 . S
C3828 C678 1.584 . S
C3845 C568 1.592 . S
C3864 C700 1.584 . S
C3881 C414 1.594 . S
C3900 C326 1.587 . S
C3917 C448 1.592 . S
C3936 C274 1.583 . S
C3953 C194 1.592 . S
C3972 C514 1.593 . S
C3989 C230 1.594 . S
C4008 C492 1.593 . S
C4025 C668 1.594 . S
C4044 C560 1.588 . S
C4061 C634 1.592 . S
C4080 C604 1.584 . S
C4097 C656 1.592 . S
C4116 C582 1.585 . S
C4133 C546 1.594 . S
C4152 C690 1.590 . S
