# Generated by pormake.
# Topology smc, (6)-cn, num edge types: 1
# Building blocks:
#     Node 0, Type 0, BuildingBlock: PAMTUU_clean_sbu_0, # of connection points: 6
#     Node 1, Type 0, BuildingBlock: PAMTUU_clean_sbu_0, # of connection points: 6
#     Node 2, Type 0, BuildingBlock: PAMTUU_clean_sbu_0, # of connection points: 6
#     Node 3, Type 0, BuildingBlock: PAMTUU_clean_sbu_0, # of connection points: 6
#     Node 4, Type 0, BuildingBlock: PAMTUU_clean_sbu_0, # of connection points: 6
#     Node 5, Type 0, BuildingBlock: PAMTUU_clean_sbu_0, # of connection points: 6
#     Node 6, Type 0, BuildingBlock: PAMTUU_clean_sbu_0, # of connection points: 6
#     Node 7, Type 0, BuildingBlock: PAMTUU_clean_sbu_0, # of connection points: 6
#     Node 8, Type 0, BuildingBlock: PAMTUU_clean_sbu_0, # of connection points: 6
#     Edge 9, Type (0, 0), BuildingBlock: KIFKEQ_clean_linker_1, # of connection points: 2
#     Edge 10, Type (0, 0), BuildingBlock: KIFKEQ_clean_linker_1, # of connection points: 2
#     Edge 11, Type (0, 0), BuildingBlock: KIFKEQ_clean_linker_1, # of connection points: 2
#     Edge 12, Type (0, 0), BuildingBlock: KIFKEQ_clean_linker_1, # of connection points: 2
#     Edge 13, Type (0, 0), BuildingBlock: KIFKEQ_clean_linker_1, # of connection points: 2
#     Edge 14, Type (0, 0), BuildingBlock: KIFKEQ_clean_linker_1, # of connection points: 2
#     Edge 15, Type (0, 0), BuildingBlock: KIFKEQ_clean_linker_1, # of connection points: 2
#     Edge 16, Type (0, 0), BuildingBlock: KIFKEQ_clean_linker_1, # of connection points: 2
#     Edge 17, Type (0, 0), BuildingBlock: KIFKEQ_clean_linker_1, # of connection points: 2
#     Edge 18, Type (0, 0), BuildingBlock: KIFKEQ_clean_linker_1, # of connection points: 2
#     Edge 19, Type (0, 0), BuildingBlock: KIFKEQ_clean_linker_1, # of connection points: 2
#     Edge 20, Type (0, 0), BuildingBlock: KIFKEQ_clean_linker_1, # of connection points: 2
#     Edge 21, Type (0, 0), BuildingBlock: KIFKEQ_clean_linker_1, # of connection points: 2
#     Edge 22, Type (0, 0), BuildingBlock: KIFKEQ_clean_linker_1, # of connection points: 2
#     Edge 23, Type (0, 0), BuildingBlock: KIFKEQ_clean_linker_1, # of connection points: 2
#     Edge 24, Type (0, 0), BuildingBlock: KIFKEQ_clean_linker_1, # of connection points: 2
#     Edge 25, Type (0, 0), BuildingBlock: KIFKEQ_clean_linker_1, # of connection points: 2
#     Edge 26, Type (0, 0), BuildingBlock: KIFKEQ_clean_linker_1, # of connection points: 2
#     Edge 27, Type (0, 0), BuildingBlock: KIFKEQ_clean_linker_1, # of connection points: 2
#     Edge 28, Type (0, 0), BuildingBlock: KIFKEQ_clean_linker_1, # of connection points: 2
#     Edge 29, Type (0, 0), BuildingBlock: KIFKEQ_clean_linker_1, # of connection points: 2
#     Edge 30, Type (0, 0), BuildingBlock: KIFKEQ_clean_linker_1, # of connection points: 2
#     Edge 31, Type (0, 0), BuildingBlock: KIFKEQ_clean_linker_1, # of connection points: 2
#     Edge 32, Type (0, 0), BuildingBlock: KIFKEQ_clean_linker_1, # of connection points: 2
#     Edge 33, Type (0, 0), BuildingBlock: KIFKEQ_clean_linker_1, # of connection points: 2
#     Edge 34, Type (0, 0), BuildingBlock: KIFKEQ_clean_linker_1, # of connection points: 2
#     Edge 35, Type (0, 0), BuildingBlock: KIFKEQ_clean_linker_1, # of connection points: 2
# Relax obj value: 0.293
# Max RMSD: 0.344
# Mean RMSD: 0.308
data_MOF--net-smc--node1-PAMTUU_clean_sbu_0--edge1-KIFKEQ_clean_linker_1
_symmetry_space_group_name_H-M    P1
_symmetry_Int_Tables_number       1
_symmetry_cell_setting            triclinic
loop_
_symmetry_equiv_pos_as_xyz
'x, y, z'
_cell_length_a     43.281209
_cell_length_b     32.491532
_cell_length_c     40.565202
_cell_angle_alpha  91.270598
_cell_angle_beta   89.924525
_cell_angle_gamma 119.29547
loop_
_atom_site_label
_atom_site_type_symbol
_atom_site_fract_x
_atom_site_fract_y
_atom_site_fract_z
_atom_type_partial_charge
Tb0 Tb 0.07124 0.42219 0.99899 0.0
Tb1 Tb 1.05362 0.50579 0.01519 0.0
C2 C 1.02814 0.44449 0.9478 0.0
C3 C 0.10847 0.34301 1.0029 0.0
C4 C 0.16926 0.33891 0.02103 0.0
C5 C 0.14537 0.30654 0.9974 0.0
C6 C 0.1153 0.30908 0.98804 0.0
C7 C 0.12945 0.37068 0.02947 0.0
C8 C 0.15956 0.36862 0.03858 0.0
C9 C 0.08251 0.35393 0.98861 0.0
O10 O 0.12232 0.48926 0.99897 0.0
O11 O 0.09962 0.5366 0.98415 0.0
O12 O 0.09006 0.51113 0.0557 0.0
O13 O 0.08534 0.43766 0.05103 0.0
O14 O 1.03101 0.54674 1.00008 0.0
O15 O 0.05541 0.55805 0.04792 0.0
O16 O 1.01719 0.44674 0.04331 0.0
O17 O 1.01412 0.39061 1.00731 0.0
O18 O 1.05474 0.43635 0.95189 0.0
O19 O 1.01949 0.46481 0.97206 0.0
C20 C 0.12674 0.52971 0.98783 0.0
O21 O 0.05906 0.35297 1.00918 0.0
O22 O 0.09589 0.39172 0.97083 0.0
C23 C 0.09549 0.4775 0.06752 0.0
C24 C 1.00318 0.56243 0.04468 0.0
C25 C 0.94213 0.55356 0.07581 0.0
C26 C 0.97479 0.59532 0.0797 0.0
C27 C 1.00508 0.59972 0.06418 0.0
C28 C 0.97081 0.52021 0.04143 0.0
C29 C 0.94049 0.51589 0.05674 0.0
C30 C 1.03527 0.56689 0.02905 0.0
C31 C 0.99972 0.40432 0.03047 0.0
H32 H 0.15158 0.28233 0.98404 0.0
H33 H 0.09885 0.28689 0.9678 0.0
H34 H 0.12419 0.39668 0.04139 0.0
H35 H 0.17704 0.39424 0.05685 0.0
H36 H 0.97671 0.62509 0.09395 0.0
H37 H 1.02994 0.63231 0.06725 0.0
H38 H 0.96894 0.49064 0.02693 0.0
H39 H 0.91573 0.48319 0.05357 0.0
Tb40 Tb 0.64856 0.65621 0.02305 0.0
Tb41 Tb 0.58066 0.61511 0.98177 0.0
C42 C 0.58486 0.61759 0.05999 0.0
C43 C 0.7178 0.67137 0.08366 0.0
C44 C 0.75353 0.6292 0.11388 0.0
C45 C 0.77187 0.67705 0.10526 0.0
C46 C 0.75412 0.69787 0.09036 0.0
C47 C 0.69872 0.62473 0.09431 0.0
C48 C 0.71644 0.60387 0.10955 0.0
C49 C 0.70183 0.69049 0.06118 0.0
O50 O 0.63453 0.57775 0.01651 0.0
O51 O 0.58074 0.54823 0.99082 0.0
O52 O 0.62252 0.63022 0.94352 0.0
O53 O 0.67207 0.67518 0.97471 0.0
O54 O 0.52999 0.55768 0.97539 0.0
O55 O 0.5485 0.61803 0.944 0.0
O56 O 0.58831 0.68673 0.98409 0.0
O57 O 0.63167 0.71463 0.02358 0.0
O58 O 0.60734 0.6043 0.05185 0.0
O59 O 0.57312 0.6316 0.03493 0.0
C60 C 0.60486 0.54015 1.0043 0.0
O61 O 0.70253 0.67958 0.0302 0.0
O62 O 0.67129 0.68627 0.06936 0.0
C63 C 0.65749 0.65725 0.946 0.0
C64 C 0.48848 0.57857 0.95906 0.0
C65 C 0.41955 0.55113 0.97913 0.0
C66 C 0.42596 0.54149 0.94664 0.0
C67 C 0.46035 0.55493 0.93674 0.0
C68 C 0.48269 0.59343 0.99008 0.0
C69 C 0.44824 0.57946 1.00019 0.0
C70 C 0.52152 0.57839 0.95279 0.0
C71 C 0.60803 0.72055 1.0053 0.0
H72 H 0.80041 0.69768 0.10759 0.0
H73 H 0.76923 0.73382 0.08204 0.0
H74 H 0.67056 0.60372 0.08921 0.0
H75 H 0.70137 0.56725 0.11637 0.0
H76 H 0.40425 0.51946 0.92999 0.0
H77 H 0.46455 0.54326 0.91275 0.0
H78 H 0.5044 0.61197 1.00751 0.0
H79 H 0.44384 0.58761 0.02522 0.0
Tb80 Tb 0.48985 1.04974 1.00714 0.0
Tb81 Tb 0.56404 0.10634 0.03953 0.0
C82 C 0.5487 0.10373 0.96097 0.0
C83 C 0.39812 0.95257 0.98692 0.0
C84 C 0.34253 0.85675 0.9876 0.0
C85 C 0.37628 0.86847 0.97534 0.0
C86 C 0.40369 0.91566 0.97503 0.0
C87 C 0.3647 0.94094 0.9996 0.0
C88 C 0.33737 0.89382 1.00004 0.0
C89 C 0.42643 1.00311 0.986 0.0
O90 O 0.50679 0.99305 1.00712 0.0
O91 O 0.55926 1.03517 0.03462 0.0
O92 O 0.52465 0.08826 0.08063 0.0
O93 O 0.48173 1.02208 0.0563 0.0
O94 O 0.61524 0.11605 0.03734 0.0
O95 O 0.60004 0.14732 0.07757 0.0
O96 O 0.55998 0.16941 0.03349 0.0
O97 O 0.50486 0.13074 1.00892 0.0
O98 O 0.52346 0.06131 0.9659 0.0
O99 O 0.56667 0.13015 0.98697 0.0
C100 C 0.53614 0.99533 0.01987 0.0
O101 O 0.43544 1.02663 0.01403 0.0
O102 O 0.45414 1.01319 0.96811 0.0
C103 C 0.49377 1.04903 0.08259 0.0
C104 C 0.66146 0.18158 0.06489 0.0
C105 C 0.73505 0.24194 0.06081 0.0
C106 C 0.72026 0.21489 0.08896 0.0
C107 C 0.68381 0.18512 0.09096 0.0
C108 C 0.6756 0.21053 0.03758 0.0
C109 C 0.71219 0.2407 0.03563 0.0
C110 C 0.62531 0.14171 0.06445 0.0
C111 C 0.5334 0.17187 0.02012 0.0
H112 H 0.38141 0.8413 0.96523 0.0
H113 H 0.42915 0.92319 0.96519 0.0
H114 H 0.35962 0.96846 1.00912 0.0
H115 H 0.31215 0.88653 1.01033 0.0
H116 H 0.73692 0.21436 0.10864 0.0
H117 H 0.67332 0.16255 0.11203 0.0
H118 H 0.65864 0.20803 0.01713 0.0
H119 H 0.72266 0.26176 0.0139 0.0
Tb120 Tb 0.74863 0.77885 0.33887 0.0
Tb121 Tb 0.68609 0.81663 0.35764 0.0
C122 C 0.69301 0.76917 0.2844 0.0
C123 C 0.85195 0.80057 0.33502 0.0
C124 C 0.92938 0.8309 0.33359 0.0
C125 C 0.90502 0.80215 0.30822 0.0
C126 C 0.86762 0.78713 0.30907 0.0
C127 C 0.87631 0.82947 0.36019 0.0
C128 C 0.91339 0.84348 0.35976 0.0
C129 C 0.81231 0.79003 0.33453 0.0
O130 O 0.75737 0.84615 0.32098 0.0
O131 O 0.73728 0.8785 0.35923 0.0
O132 O 0.71918 0.82764 0.40321 0.0
O133 O 0.73852 0.77351 0.39162 0.0
O134 O 0.6638 0.85727 0.34003 0.0
O135 O 0.6416 0.81422 0.38313 0.0
O136 O 0.66531 0.74579 0.37405 0.0
O137 O 0.69311 0.71416 0.34123 0.0
O138 O 0.72169 0.76582 0.29139 0.0
O139 O 0.67828 0.78632 0.30584 0.0
C140 C 0.7626 0.88175 0.34026 0.0
O141 O 0.80344 0.8183 0.35013 0.0
O142 O 0.78398 0.75239 0.3223 0.0
C143 C 0.73509 0.80302 0.41212 0.0
C144 C 0.61098 0.85832 0.3629 0.0
C145 C 0.55452 0.88287 0.3613 0.0
C146 C 0.55915 0.85902 0.38816 0.0
C147 C 0.58658 0.84691 0.38886 0.0
C148 C 0.60682 0.8827 0.33633 0.0
C149 C 0.57936 0.89464 0.33553 0.0
C150 C 0.63877 0.84218 0.36203 0.0
C151 C 0.66413 0.71063 0.35671 0.0
H152 H 0.91482 0.79071 0.2874 0.0
H153 H 0.85104 0.76583 0.28862 0.0
H154 H 0.86668 0.84192 0.38061 0.0
H155 H 0.92987 0.86566 0.37995 0.0
H156 H 0.5416 0.8496 0.40903 0.0
H157 H 0.58841 0.82806 0.40978 0.0
H158 H 0.62449 0.89183 0.31552 0.0
H159 H 0.57721 0.91215 0.31399 0.0
Tb160 Tb 0.29227 0.99917 0.3337 0.0
Tb161 Tb 0.25778 0.89408 0.3285 0.0
C162 C 0.30874 0.96238 0.26932 0.0
C163 C 0.3144 0.11628 0.36831 0.0
C164 C 0.29901 0.17778 0.40526 0.0
C165 C 0.33437 0.18971 0.39906 0.0
C166 C 0.34198 0.1592 0.3805 0.0
C167 C 0.27931 0.10241 0.37673 0.0
C168 C 0.27162 0.13306 0.39495 0.0
C169 C 0.32253 0.08628 0.34687 0.0
O170 O 0.23412 0.97546 0.32114 0.0
O171 O 0.21398 0.90587 0.34536 0.0
O172 O 0.26951 0.90756 0.38257 0.0
O173 O 0.26872 0.97653 0.38148 0.0
O174 O 0.21225 0.84749 0.30245 0.0
O175 O 0.24289 0.82182 0.32883 0.0
O176 O 0.30724 0.89913 0.34179 0.0
O177 O 0.33656 0.97984 0.33899 0.0
O178 O 0.30796 0.9982 0.28344 0.0
O179 O 0.29097 0.92023 0.28264 0.0
C180 C 0.20652 0.93693 0.33295 0.0
O181 O 0.32928 0.05678 0.36223 0.0
O182 O 0.30149 0.06654 0.32144 0.0
C183 C 0.27125 0.94472 0.39847 0.0
C184 C 0.2187 0.78787 0.27555 0.0
C185 C 0.21161 0.73209 0.21883 0.0
C186 C 0.23392 0.73533 0.24539 0.0
C187 C 0.23717 0.76263 0.27352 0.0
C188 C 0.19969 0.78889 0.24768 0.0
C189 C 0.19657 0.76175 0.21946 0.0
C190 C 0.21823 0.81227 0.30653 0.0
C191 C 0.33701 0.93913 0.34279 0.0
H192 H 0.35603 0.22358 0.40717 0.0
H193 H 0.36929 0.16973 0.37481 0.0
H194 H 0.25777 0.06874 0.36807 0.0
H195 H 0.24409 0.12289 0.399 0.0
H196 H 0.24608 0.71313 0.24619 0.0
H197 H 0.25256 0.76183 0.29428 0.0
H198 H 0.1856 0.80876 0.2482 0.0
H199 H 0.17953 0.76045 0.19945 0.0
Tb200 Tb 0.1363 0.38891 0.34276 0.0
Tb201 Tb 0.21654 0.47861 0.36524 0.0
C202 C 0.19138 0.44911 0.29059 0.0
C203 C 1.05259 0.27272 0.33073 0.0
C204 C 0.99446 0.18323 0.34139 0.0
C205 C 0.99545 0.22366 0.35562 0.0
C206 C 1.02431 0.26819 0.35026 0.0
C207 C 1.0523 0.23205 0.31795 0.0
C208 C 1.02357 0.18767 0.32337 0.0
C209 C 0.08073 0.31913 0.32059 0.0
O210 O 0.16102 0.36293 0.37642 0.0
O211 O 0.21456 0.41192 0.35528 0.0
O212 O 0.18143 0.46033 0.41076 0.0
O213 O 0.12476 0.40667 0.39084 0.0
O214 O 0.26479 0.54211 0.35708 0.0
O215 O 0.26104 0.49734 0.39652 0.0
O216 O 0.184 0.5121 0.35869 0.0
O217 O 0.13826 0.45302 0.3273 0.0
O218 O 0.17302 0.40651 0.30205 0.0
O219 O 0.21154 0.4842 0.31115 0.0
C220 C 0.19444 0.37565 0.37315 0.0
O221 O 0.08156 0.35663 0.33391 0.0
O222 O 0.11227 0.32369 0.31766 0.0
C223 C 0.14611 0.43329 0.41472 0.0
C224 C 0.32007 0.54375 0.3727 0.0
C225 C 0.39433 0.56871 0.36469 0.0
C226 C 0.36971 0.52734 0.38099 0.0
C227 C 0.33368 0.51542 0.38512 0.0
C228 C 0.34436 0.58467 0.35609 0.0
C229 C 0.38046 0.59685 0.35218 0.0
C230 C 0.28243 0.53437 0.37989 0.0
C231 C 0.15726 0.49733 0.33735 0.0
H232 H 0.97314 0.22111 0.36939 0.0
H233 H 1.02376 0.29899 0.3603 0.0
H234 H 0.07372 0.23462 0.30269 0.0
H235 H 1.02356 0.1569 0.31249 0.0
H236 H 0.37808 0.50364 0.39079 0.0
H237 H 0.31662 0.48414 0.39865 0.0
H238 H 0.33563 0.60826 0.34669 0.0
H239 H 0.39765 0.62942 0.34001 0.0
Tb240 Tb 0.4168 0.06915 0.68703 0.0
Tb241 Tb 0.40245 0.15574 0.68962 0.0
C242 C 0.38159 0.08622 0.62565 0.0
C243 C 0.45593 1.00076 0.71553 0.0
C244 C 0.5124 1.00541 0.75256 0.0
C245 C 0.48898 0.9636 0.73495 0.0
C246 C 0.46111 0.96154 0.71617 0.0
C247 C 0.4763 1.03996 0.73617 0.0
C248 C 0.50411 1.04226 0.75464 0.0
C249 C 0.43108 1.00316 0.6923 0.0
O250 O 0.46924 0.13604 0.68692 0.0
O251 O 0.44876 0.17796 0.65982 0.0
O252 O 0.4391 0.16508 0.73189 0.0
O253 O 0.41588 0.08701 0.73849 0.0
O254 O 0.39508 0.20731 0.666 0.0
O255 O 0.39741 0.20605 0.71894 0.0
O256 O 0.35682 0.09949 0.71283 0.0
O257 O 0.35847 1.03789 0.6865 0.0
O258 O 0.4047 0.07406 0.63587 0.0
O259 O 0.37271 0.11223 0.6451 0.0
C260 C 0.47551 0.17368 0.66994 0.0
O261 O 0.40391 1.00315 0.70601 0.0
O262 O 0.44563 1.03625 0.67062 0.0
C263 C 0.43532 0.12979 0.75026 0.0
C264 C 0.36119 0.23329 0.69634 0.0
C265 C 0.30362 0.2498 0.70516 0.0
C266 C 0.33841 0.28775 0.70341 0.0
C267 C 0.36693 0.27951 0.6991 0.0
C268 C 0.32657 0.19519 0.69745 0.0
C269 C 0.29795 0.20338 0.70181 0.0
C270 C 0.39174 0.22559 0.69373 0.0
C271 C 0.34071 0.05538 0.70248 0.0
H272 H 0.49384 0.93394 0.73355 0.0
H273 H 0.44494 0.9305 0.7009 0.0
H274 H 0.47232 0.07037 0.73621 0.0
H275 H 0.5211 0.07521 0.76765 0.0
H276 H 0.34362 0.3239 0.70529 0.0
H277 H 0.39354 0.30927 0.69822 0.0
H278 H 0.32179 0.15924 0.69537 0.0
H279 H 0.27151 0.1734 0.70329 0.0
Tb280 Tb 0.9676 0.33202 0.68888 0.0
Tb281 Tb 0.89766 0.29256 0.65107 0.0
C282 C 0.90543 0.29745 0.7297 0.0
C283 C 1.05177 0.35231 0.72484 0.0
C284 C 0.10477 0.32603 0.72821 0.0
C285 C 0.10772 0.36468 0.74715 0.0
C286 C 0.08139 0.37772 0.74544 0.0
C287 C 1.04833 0.31321 0.70644 0.0
C288 C 0.07457 0.30017 0.7081 0.0
C289 C 1.02528 0.36768 0.72117 0.0
O290 O 0.95378 0.25431 0.68088 0.0
O291 O 0.89728 0.22553 0.66193 0.0
O292 O 0.93837 0.3175 0.61042 0.0
O293 O 0.98706 0.33057 0.6402 0.0
O294 O 0.85047 0.23059 0.63991 0.0
O295 O 0.85962 0.29692 0.62115 0.0
O296 O 0.90197 0.3615 0.65831 0.0
O297 O 0.95234 0.39237 0.68984 0.0
O298 O 0.9286 0.28522 0.72192 0.0
O299 O 0.89194 0.3091 0.70471 0.0
C300 C 0.92249 0.21692 0.67195 0.0
O301 O 1.02214 0.37978 0.69155 0.0
O302 O 0.99448 0.34058 0.73392 0.0
C303 C 0.97251 0.32942 0.61183 0.0
C304 C 0.80288 0.24383 0.64063 0.0
C305 C 0.74125 0.20518 0.67847 0.0
C306 C 0.74039 0.18895 0.64584 0.0
C307 C 0.77113 0.20802 0.6271 0.0
C308 C 0.80313 0.26301 0.67206 0.0
C309 C 0.7725 0.24361 0.69097 0.0
C310 C 0.83634 0.25301 0.62584 0.0
C311 C 0.92576 0.39712 0.67593 0.0
H312 H 0.13047 0.38498 0.76315 0.0
H313 H 0.08439 0.408 0.7598 0.0
H314 H 1.02571 0.2934 0.6902 0.0
H315 H 0.07169 0.2707 0.69282 0.0
H316 H 0.71667 0.15908 0.63569 0.0
H317 H 0.77068 0.19244 0.60308 0.0
H318 H 0.82759 0.2906 0.6829 0.0
H319 H 0.77368 0.25701 0.7159 0.0
Tb320 Tb 0.8109 0.72802 0.67919 0.0
Tb321 Tb 0.89143 0.78867 0.69372 0.0
C322 C 0.85523 0.7744 0.62127 0.0
C323 C 0.72345 0.61434 0.67104 0.0
C324 C 0.6764 0.5141 0.6684 0.0
C325 C 0.67402 0.54401 0.64497 0.0
C326 C 0.69702 0.59331 0.6464 0.0
C327 C 0.72647 0.58428 0.69389 0.0
C328 C 0.70331 0.53519 0.69266 0.0
C329 C 0.74533 0.66728 0.67473 0.0
O330 O 0.83081 0.67579 0.69135 0.0
O331 O 0.88865 0.72117 0.67957 0.0
O332 O 0.86068 0.75801 0.74131 0.0
O333 O 0.81515 0.76596 0.72406 0.0
O334 O 0.94216 0.81646 0.67357 0.0
O335 O 0.93585 0.82425 0.72647 0.0
O336 O 0.87969 0.84662 0.69849 0.0
O337 O 0.82426 0.80772 0.67405 0.0
O338 O 0.83311 0.73256 0.63134 0.0
O339 O 0.87823 0.80508 0.64318 0.0
C340 C 0.86241 0.67902 0.68543 0.0
O341 O 0.76308 0.68335 0.70229 0.0
O342 O 0.76394 0.69181 0.64977 0.0
C343 C 0.83119 0.75964 0.7486 0.0
C344 C 0.99699 0.85825 0.70528 0.0
C345 C 0.07202 0.89961 0.70737 0.0
C346 C 1.05135 0.8745 0.73434 0.0
C347 C 1.01425 0.85439 0.73341 0.0
C348 C 1.01766 0.88377 0.67853 0.0
C349 C 1.05466 0.90452 0.67966 0.0
C350 C 0.95772 0.83187 0.70215 0.0
C351 C 0.85275 0.84897 0.68542 0.0
H352 H 0.6536 0.52952 0.62603 0.0
H353 H 0.6936 0.61516 0.62861 0.0
H354 H 0.7464 0.59874 0.71328 0.0
H355 H 0.70656 0.51367 0.71086 0.0
H356 H 0.06389 0.87039 0.75616 0.0
H357 H 0.99899 0.83448 0.75424 0.0
H358 H 1.00513 0.88709 0.6564 0.0
H359 H 0.06966 0.92331 0.65839 0.0
H360 H 0.40072 0.49991 0.03479 0.0
H361 H 0.35775 0.53847 0.95246 0.0
H362 H 0.34119 0.43849 0.04902 0.0
H363 H 0.2983 0.47745 0.96683 0.0
H364 H 0.20805 0.33902 0.96796 0.0
H365 H 0.27103 0.38956 0.96255 0.0
H366 H 0.28057 0.42307 0.06689 0.0
H367 H 0.21715 0.36968 0.07303 0.0
C368 C 0.37839 0.49625 0.02042 0.0
C369 C 0.38364 0.52359 0.99239 0.0
C370 C 0.34447 0.46083 0.02839 0.0
C371 C 0.31551 0.45237 1.00837 0.0
C372 C 0.32049 0.48229 0.98198 0.0
C373 C 0.35431 0.51753 0.97398 0.0
C374 C 0.22346 0.35493 0.99023 0.0
C375 C 0.20717 0.35162 0.02082 0.0
C376 C 0.25962 0.3848 0.9869 0.0
C377 C 0.28008 0.41194 0.01399 0.0
C378 C 0.26505 0.40331 0.04546 0.0
C379 C 0.22876 0.3728 0.04892 0.0
H380 H 0.5943 0.99114 0.0464 0.0
H381 H 0.5003 0.90242 0.98942 0.0
H382 H 0.61158 0.93016 0.04385 0.0
H383 H 0.51726 0.84049 0.98709 0.0
H384 H 0.56136 0.73748 0.96836 0.0
H385 H 0.54453 0.79845 0.97178 0.0
H386 H 0.61671 0.86403 0.05369 0.0
H387 H 0.63396 0.80216 0.04984 0.0
C388 C 0.57678 0.95851 0.03328 0.0
C389 C 0.54531 0.95363 0.01823 0.0
C390 C 0.58694 0.92241 0.0319 0.0
C391 C 0.56661 0.87805 0.01516 0.0
C392 C 0.53491 0.87305 1.00012 0.0
C393 C 0.52466 0.90932 1.00161 0.0
C394 C 0.57419 0.76473 0.98729 0.0
C395 C 0.59981 0.76304 1.00854 0.0
C396 C 0.56396 0.80062 0.98946 0.0
C397 C 0.57838 0.83846 0.01318 0.0
C398 C 0.60431 0.83711 0.03453 0.0
C399 C 0.61456 0.80076 0.03238 0.0
H400 H 0.34481 0.77403 0.99737 0.0
H401 H 0.27178 0.82472 0.97556 0.0
H402 H 0.29589 0.69275 0.99456 0.0
H403 H 0.22309 0.74435 0.97442 0.0
H404 H 0.14462 0.59835 0.9432 0.0
H405 H 0.19811 0.67466 0.94168 0.0
H406 H 0.2428 0.63447 0.0217 0.0
H407 H 0.18905 0.5568 0.02239 0.0
C408 C 0.31843 0.76805 0.99194 0.0
C409 C 0.31258 0.80651 0.98668 0.0
C410 C 0.29021 0.72125 0.99069 0.0
C411 C 0.25529 0.71144 0.98398 0.0
C412 C 0.24953 0.74998 0.97901 0.0
C413 C 0.27761 0.79653 0.98021 0.0
C414 C 0.16615 0.60533 0.96004 0.0
C415 C 0.16247 0.57136 0.98291 0.0
C416 C 0.19679 0.64951 0.95948 0.0
C417 C 0.22472 0.66169 0.98213 0.0
C418 C 0.22198 0.62663 1.00382 0.0
C419 C 0.19121 0.5819 1.00415 0.0
H420 H 0.50101 0.21524 0.98044 0.0
H421 H 0.58289 0.25292 0.05353 0.0
H422 H 0.51809 0.29938 0.97632 0.0
H423 H 0.59954 0.33522 0.04987 0.0
H424 H 0.64148 0.49537 0.03349 0.0
H425 H 0.62395 0.41137 0.03635 0.0
H426 H 0.52759 0.37497 0.98307 0.0
H427 H 0.54549 0.45837 0.9799 0.0
C428 C 0.52233 0.2407 0.99611 0.0
C429 C 0.53982 0.22433 0.01758 0.0
C430 C 0.53263 0.29042 0.99371 0.0
C431 C 0.56121 0.32769 1.0125 0.0
C432 C 0.57803 0.31061 0.03407 0.0
C433 C 0.56789 0.26157 0.03639 0.0
C434 C 0.61656 0.46983 0.02214 0.0
C435 C 0.5956 0.48646 1.00628 0.0
C436 C 0.60592 0.42011 0.02396 0.0
C437 C 0.5734 0.38278 1.01013 0.0
C438 C 0.55277 0.3999 0.99417 0.0
C439 C 0.56336 0.44932 0.9924 0.0
H440 H 0.77261 0.25052 1.00453 0.0
H441 H 0.78615 0.29074 0.10802 0.0
H442 H 0.83654 0.28769 0.9987 0.0
H443 H 0.84983 0.32474 0.10273 0.0
H444 H 0.96265 0.42766 0.074 0.0
H445 H 0.89925 0.38944 0.08081 0.0
H446 H 0.88632 0.27831 1.01209 0.0
H447 H 0.95036 0.31845 1.00379 0.0
C448 C 0.78918 0.26758 0.02601 0.0
C449 C 0.77414 0.26774 0.05674 0.0
C450 C 0.82588 0.28806 0.0228 0.0
C451 C 0.84843 0.30883 0.05029 0.0
C452 C 0.83338 0.30946 0.08093 0.0
C453 C 0.79675 0.2895 0.08405 0.0
C454 C 0.94645 0.39486 0.06045 0.0
C455 C 0.96162 0.37628 0.03812 0.0
C456 C 0.90992 0.3727 0.06457 0.0
C457 C 0.88751 0.33083 0.04692 0.0
C458 C 0.90276 0.31104 0.0256 0.0
C459 C 0.93948 0.33367 0.02114 0.0
H460 H 0.87919 0.52298 0.04414 0.0
H461 H 0.93164 0.57878 0.13799 0.0
H462 H 0.82862 0.52957 0.06284 0.0
H463 H 0.88014 0.58385 0.15759 0.0
H464 H 0.81515 0.66337 0.1503 0.0
H465 H 0.85698 0.63411 0.14787 0.0
H466 H 0.77919 0.50822 0.09574 0.0
H467 H 0.7386 0.53949 0.0955 0.0
C468 C 0.87938 0.53532 0.06921 0.0
C469 C 0.90946 0.55087 0.08947 0.0
C470 C 0.8502 0.53885 0.08013 0.0
C471 C 0.85017 0.55753 0.11179 0.0
C472 C 0.87946 0.57019 0.13285 0.0
C473 C 0.90892 0.56723 0.1217 0.0
C474 C 0.80681 0.62922 0.13857 0.0
C475 C 0.77394 0.60476 0.12204 0.0
C476 C 0.83071 0.61199 0.13759 0.0
C477 C 0.82196 0.56936 0.12064 0.0
C478 C 0.78733 0.54199 0.10797 0.0
C479 C 0.7637 0.55967 0.10836 0.0
H480 H 0.97738 0.85451 0.28008 0.0
H481 H 0.97777 0.84693 0.38575 0.0
H482 H 1.04137 0.88171 0.27964 0.0
H483 H 1.04133 0.87316 0.38526 0.0
H484 H 0.15126 0.87769 0.37352 0.0
H485 H 0.08835 0.85455 0.37345 0.0
H486 H 0.1046 0.94419 0.29132 0.0
H487 H 0.16842 0.96849 0.29203 0.0
C488 C 0.99062 0.85818 0.30345 0.0
C489 C 0.97049 0.84772 0.33298 0.0
C490 C 1.02821 0.87447 0.30321 0.0
C491 C 1.04842 0.88038 0.3324 0.0
C492 C 1.02816 0.86941 0.36184 0.0
C493 C 0.99085 0.85428 0.36215 0.0
C494 C 0.142 0.89332 0.35546 0.0
C495 C 0.16675 0.926 0.33304 0.0
C496 C 0.10504 0.87975 0.35546 0.0
C497 C 0.08946 0.89673 0.33241 0.0
C498 C 0.11413 0.92929 0.30967 0.0
C499 C 0.15153 0.94386 0.31022 0.0
H500 H 0.26158 0.41305 0.39572 0.0
H501 H 0.1622 0.28292 0.38968 0.0
H502 H 0.2901 0.37184 0.4193 0.0
H503 H 0.19102 0.24058 0.41134 0.0
H504 H 0.24655 0.16877 0.44779 0.0
H505 H 0.22226 0.22256 0.45251 0.0
H506 H 0.30681 0.32188 0.39147 0.0
H507 H 0.33074 0.26911 0.38702 0.0
C508 C 0.24589 0.37555 0.39957 0.0
C509 C 0.21007 0.35081 0.39018 0.0
C510 C 0.26213 0.35193 0.41314 0.0
C511 C 0.24306 0.30277 0.41661 0.0
C512 C 0.20648 0.27854 0.40929 0.0
C513 C 0.19002 0.30255 0.39646 0.0
C514 C 0.26037 0.20275 0.43621 0.0
C515 C 0.29019 0.21435 0.41658 0.0
C516 C 0.24645 0.23344 0.43885 0.0
C517 C 0.26218 0.27609 0.42188 0.0
C518 C 0.29409 0.28962 0.4052 0.0
C519 C 0.30795 0.25914 0.40263 0.0
H520 H 0.9525 0.14167 0.39446 0.0
H521 H 0.96244 0.1221 0.29005 0.0
H522 H 0.89635 0.06748 0.39447 0.0
H523 H 0.90648 1.04874 0.2899 0.0
H524 H 0.82248 0.89773 0.30801 0.0
H525 H 0.87981 0.96924 0.31004 0.0
H526 H 0.83637 1.03738 0.37262 0.0
H527 H 0.77924 0.96531 0.37148 0.0
C528 C 0.94266 0.12141 0.37161 0.0
C529 C 0.96178 0.13726 0.34233 0.0
C530 C 0.91058 0.07919 0.37155 0.0
C531 C 0.89711 0.05245 0.34216 0.0
C532 C 0.91651 0.06818 0.31302 0.0
C533 C 0.94855 0.11014 0.31312 0.0
C534 C 0.8251 0.92805 0.32204 0.0
C535 C 0.79638 0.92608 0.33946 0.0
C536 C 0.85791 0.96898 0.32318 0.0
C537 C 0.86252 1.00878 0.34154 0.0
C538 C 0.8337 1.00695 0.3587 0.0
C539 C 0.80092 0.96588 0.35775 0.0
H540 H 0.24294 0.68477 0.18733 0.0
H541 H 0.14137 0.67586 0.2016 0.0
H542 H 0.22024 0.6067 0.20963 0.0
H543 H 0.11865 0.59863 0.22416 0.0
H544 H 0.10255 0.48459 0.29742 0.0
H545 H 0.10904 0.52304 0.2449 0.0
H546 H 0.21781 0.62262 0.27047 0.0
H547 H 0.21174 0.58365 0.32223 0.0
C548 C 0.21497 0.66486 0.19286 0.0
C549 C 0.19534 0.68838 0.19778 0.0
C550 C 0.20203 0.62015 0.2061 0.0
C551 C 0.16886 0.59902 0.2216 0.0
C552 C 0.14519 0.61549 0.21428 0.0
C553 C 0.1584 0.66014 0.201 0.0
C554 C 0.12759 0.51554 0.29214 0.0
C555 C 0.15671 0.53098 0.31397 0.0
C556 C 0.13145 0.53677 0.26176 0.0
C557 C 0.1644 0.57412 0.2528 0.0
C558 C 0.19253 0.5922 0.2759 0.0
C559 C 0.18871 0.57099 0.3062 0.0
H560 H 0.43666 0.54564 0.40416 0.0
H561 H 0.44417 0.62463 0.31755 0.0
H562 H 0.49866 0.56783 0.3992 0.0
H563 H 0.50689 0.64946 0.31392 0.0
H564 H 0.62026 0.67835 0.30164 0.0
H565 H 0.5555 0.64069 0.30188 0.0
H566 H 0.55668 0.62198 0.4068 0.0
H567 H 0.62077 0.65803 0.40588 0.0
C568 C 0.45113 0.56764 0.38384 0.0
C569 C 0.43392 0.58281 0.36138 0.0
C570 C 0.48761 0.58127 0.38124 0.0
C571 C 0.50929 0.61123 0.35617 0.0
C572 C 0.49204 0.62607 0.33351 0.0
C573 C 0.45546 0.61218 0.33598 0.0
C574 C 0.60659 0.66371 0.32442 0.0
C575 C 0.62652 0.66989 0.35348 0.0
C576 C 0.569 0.64317 0.32487 0.0
C577 C 0.54946 0.62818 0.35452 0.0
C578 C 0.56945 0.6319 0.38314 0.0
C579 C 0.60683 0.65227 0.3826 0.0
H580 H 0.34217 0.85965 0.35318 0.0
H581 H 0.40966 1.00917 0.34118 0.0
H582 H 0.39319 0.8488 0.35735 0.0
H583 H 0.46202 0.99838 0.34648 0.0
H584 H 0.55022 0.95582 0.3291 0.0
H585 H 0.50066 0.97151 0.32523 0.0
H586 H 0.43919 0.85385 0.3878 0.0
H587 H 0.4876 0.8366 0.39012 0.0
C588 C 0.36799 0.8908 0.35175 0.0
C589 C 0.37089 0.9356 0.34692 0.0
C590 C 0.39787 0.88442 0.3545 0.0
C591 C 0.43279 0.92246 0.35277 0.0
C592 C 0.43601 0.96762 0.34785 0.0
C593 C 0.40572 0.97407 0.34504 0.0
C594 C 0.52608 0.93266 0.34181 0.0
C595 C 0.52387 0.89437 0.35984 0.0
C596 C 0.49738 0.94226 0.33991 0.0
C597 C 0.46484 0.91407 0.35588 0.0
C598 C 0.46293 0.87637 0.37434 0.0
C599 C 0.49148 0.86672 0.37617 0.0
H600 H 0.74267 0.175 0.74053 0.0
H601 H 0.67162 0.17315 0.66501 0.0
H602 H 0.69167 0.11727 0.77181 0.0
H603 H 0.62119 0.11549 0.696 0.0
H604 H 0.55253 0.97422 0.71938 0.0
H605 H 0.61535 1.02279 0.71183 0.0
H606 H 0.62077 0.11357 0.79324 0.0
H607 H 0.55748 0.06303 0.80265 0.0
C608 C 0.71617 0.16317 0.73107 0.0
C609 C 0.71092 0.17807 0.70022 0.0
C610 C 0.68724 0.13005 0.74884 0.0
C611 C 0.65299 0.11163 0.73576 0.0
C612 C 0.64765 0.12885 0.7061 0.0
C613 C 0.67636 0.16179 0.68847 0.0
C614 C 0.56697 1.00242 0.73731 0.0
C615 C 0.54935 1.01647 0.76034 0.0
C616 C 0.60321 1.0305 0.73272 0.0
C617 C 0.62216 0.07261 0.75112 0.0
C618 C 0.60629 0.08151 0.77842 0.0
C619 C 0.56999 0.05274 0.7835 0.0
H620 H 0.96921 0.49434 0.69964 0.0
H621 H 0.86427 0.40043 0.66218 0.0
H622 H 0.95426 0.55866 0.70294 0.0
H623 H 0.84958 0.4634 0.66535 0.0
H624 H 0.81724 0.57849 0.68964 0.0
H625 H 0.83269 0.51495 0.68936 0.0
H626 H 0.94315 0.61799 0.68215 0.0
H627 H 0.92766 0.68084 0.68245 0.0
C628 C 0.94289 0.48667 0.69216 0.0
C629 C 0.91848 0.44023 0.68047 0.0
C630 C 0.93406 0.52439 0.69386 0.0
C631 C 0.90006 0.51832 0.68449 0.0
C632 C 0.87585 0.47166 0.67337 0.0
C633 C 0.88472 0.43455 0.67132 0.0
C634 C 0.84492 0.58808 0.68802 0.0
C635 C 0.8707 0.63664 0.68602 0.0
C636 C 0.85412 0.55083 0.68766 0.0
C637 C 0.88982 0.55922 0.68564 0.0
C638 C 0.91542 0.60791 0.68406 0.0
C639 C 0.90622 0.6449 0.68406 0.0
H640 H 0.64926 0.45223 0.6149 0.0
H641 H 0.64472 0.45583 0.72105 0.0
H642 H 0.60668 0.36816 0.61408 0.0
H643 H 0.60129 0.37189 0.72035 0.0
H644 H 0.53318 0.21143 0.71341 0.0
H645 H 0.58471 0.29132 0.71265 0.0
H646 H 0.54752 0.31525 0.62007 0.0
H647 H 0.49766 0.23601 0.62047 0.0
C648 C 0.63901 0.43526 0.63814 0.0
C649 C 0.65061 0.46154 0.668 0.0
C650 C 0.61431 0.38662 0.63773 0.0
C651 C 0.59976 0.36225 0.66715 0.0
C652 C 0.6119 0.38847 0.69708 0.0
C653 C 0.63691 0.43708 0.69749 0.0
C654 C 0.53684 0.23327 0.69237 0.0
C655 C 0.51129 0.21676 0.66683 0.0
C656 C 0.56611 0.27966 0.69217 0.0
C657 C 0.5707 0.31086 0.66639 0.0
C658 C 0.54585 0.293 0.64022 0.0
C659 C 0.51688 0.24707 0.64046 0.0
H660 H 0.90355 0.93053 0.71748 0.0
H661 H 0.81816 0.8917 0.6481 0.0
H662 H 0.91967 1.01274 0.71413 0.0
H663 H 0.83466 0.9758 0.64444 0.0
H664 H 0.86035 0.1347 0.65234 0.0
H665 H 0.84278 1.05117 0.65491 0.0
H666 H 0.94449 0.08838 0.69742 0.0
H667 H 0.9618 0.1724 0.69509 0.0
C668 C 0.88765 0.93886 0.70126 0.0
C669 C 0.8588 0.90134 0.68334 0.0
C670 C 0.89748 0.98783 0.6991 0.0
C671 C 0.87948 1.00452 0.6787 0.0
C672 C 0.85008 0.96701 0.66089 0.0
C673 C 0.84016 0.91737 0.66304 0.0
C674 C 0.87946 0.12579 0.66231 0.0
C675 C 0.91312 0.16312 0.67342 0.0
C676 C 0.86907 0.07636 0.66371 0.0
C677 C 0.89135 0.05951 0.67655 0.0
C678 C 0.92524 0.09702 0.68759 0.0
C679 C 0.9357 0.14671 0.68606 0.0
H680 H 0.12199 0.988 0.68916 0.0
H681 H 0.11139 0.85821 0.72606 0.0
H682 H 0.18632 1.02205 0.68872 0.0
H683 H 0.17611 0.89243 0.72551 0.0
H684 H 0.2935 0.96366 0.68144 0.0
H685 H 0.22836 0.92368 0.68341 0.0
H686 H 0.23399 1.04634 0.73247 0.0
H687 H 0.29811 0.0856 0.73115 0.0
C688 C 0.13339 0.96665 0.69709 0.0
C689 C 0.11146 0.92041 0.70776 0.0
C690 C 0.17031 0.98625 0.69699 0.0
C691 C 0.18643 0.96 0.70712 0.0
C692 C 0.16455 0.91349 0.71739 0.0
C693 C 0.12751 0.89409 0.718 0.0
C694 C 0.28081 0.98179 0.69301 0.0
C695 C 0.30132 1.02806 0.70594 0.0
C696 C 0.2435 0.95889 0.69415 0.0
C697 C 0.22595 0.98206 0.70776 0.0
C698 C 0.24654 1.02772 0.72135 0.0
C699 C 0.28352 1.05018 0.72066 0.0
H700 H 0.23804 0.2055 0.67551 0.0
H701 H 0.30119 0.31464 0.74759 0.0
H702 H 0.18956 0.2227 0.68345 0.0
H703 H 0.25283 0.3319 0.75541 0.0
H704 H 0.17618 0.38642 0.72738 0.0
H705 H 0.22352 0.36652 0.7237 0.0
H706 H 0.14619 0.21815 0.72454 0.0
H707 H 0.09873 0.23805 0.72841 0.0
C708 C 0.24143 0.23278 0.69331 0.0
C709 C 0.27355 0.25891 0.71074 0.0
C710 C 0.21365 0.24262 0.69787 0.0
C711 C 0.21743 0.2788 0.71997 0.0
C712 C 0.24933 0.30435 0.73781 0.0
C713 C 0.27704 0.29449 0.73328 0.0
C714 C 0.16928 0.34957 0.72736 0.0
C715 C 0.13366 0.31383 0.72816 0.0
C716 C 0.19642 0.33816 0.72518 0.0
C717 C 0.18859 0.29075 0.72372 0.0
C718 C 0.15303 0.25499 0.72511 0.0
C719 C 0.12587 0.26641 0.72735 0.0
H720 H 0.2322 0.5157 0.24393 0.0
H721 H 0.12589 0.40453 0.26195 0.0
H722 H 0.21238 0.52862 0.18987 0.0
H723 H 0.10601 0.41963 0.20957 0.0
H724 H 0.0817 0.50433 0.12856 0.0
H725 H 0.10721 0.50216 0.1824 0.0
H726 H 0.17768 0.46262 0.13373 0.0
H727 H 0.15149 0.46327 0.08025 0.0
C728 C 0.2047 0.49418 0.23654 0.0
C729 C 0.18092 0.45841 0.25726 0.0
C730 C 0.19328 0.50178 0.20565 0.0
C731 C 0.15744 0.47549 0.19545 0.0
C732 C 0.13367 0.44071 0.21658 0.0
C733 C 0.14528 0.43183 0.2466 0.0
C734 C 0.10304 0.49599 0.1293 0.0
C735 C 0.11441 0.48386 0.09993 0.0
C736 C 0.11758 0.49454 0.16019 0.0
C737 C 0.14463 0.4823 0.16249 0.0
C738 C 0.15713 0.47248 0.13297 0.0
C739 C 0.14195 0.47264 0.10227 0.0
H740 H 0.63722 0.77517 0.25477 0.0
H741 H 0.70699 0.71729 0.23801 0.0
H742 H 0.60654 0.73914 0.20222 0.0
H743 H 0.67639 0.68138 0.18617 0.0
H744 H 0.594 0.57865 0.11471 0.0
H745 H 0.61839 0.61638 0.16802 0.0
H746 H 0.61352 0.73984 0.13873 0.0
H747 H 0.58913 0.70168 0.08452 0.0
C748 C 0.64628 0.7551 0.23996 0.0
C749 C 0.67495 0.74957 0.25116 0.0
C750 C 0.62861 0.73441 0.20962 0.0
C751 C 0.63849 0.70666 0.18967 0.0
C752 C 0.66738 0.7017 0.20078 0.0
C753 C 0.68528 0.72282 0.23069 0.0
C754 C 0.59704 0.61334 0.1198 0.0
C755 C 0.58897 0.63653 0.09503 0.0
C756 C 0.61168 0.63544 0.15042 0.0
C757 C 0.6188 0.68181 0.15793 0.0
C758 C 0.60853 0.70415 0.1341 0.0
C759 C 0.59406 0.68198 0.103 0.0
H760 H 0.43511 0.96371 0.09482 0.0
H761 H 0.49577 0.1032 0.13836 0.0
H762 H 0.39141 0.94223 0.13815 0.0
H763 H 0.45189 0.08141 0.18249 0.0
H764 H 0.34882 1.04624 0.23768 0.0
H765 H 0.3938 0.06619 0.19571 0.0
H766 H 0.37379 0.92243 0.19349 0.0
H767 H 0.3282 0.9023 0.23568 0.0
C768 C 0.4396 0.98991 0.11393 0.0
C769 C 0.46966 1.03548 0.11261 0.0
C770 C 0.4142 0.9773 0.13919 0.0
C771 C 0.41724 1.0097 0.16445 0.0
C772 C 0.44775 0.05515 0.16356 0.0
C773 C 0.47345 0.06772 0.13827 0.0
C774 C 0.35354 1.01842 0.2282 0.0
C775 C 0.33398 0.97221 0.24044 0.0
C776 C 0.38004 1.03023 0.20407 0.0
C777 C 0.38843 0.99645 0.19072 0.0
C778 C 0.36843 0.94988 0.20251 0.0
C779 C 0.34193 0.93808 0.22691 0.0
H780 H 0.54678 0.18552 0.94574 0.0
H781 H 0.54312 0.06169 0.9011 0.0
H782 H 0.52261 0.1986 0.89449 0.0
H783 H 0.51965 0.0748 0.8503 0.0
H784 H 0.42562 0.06041 0.79221 0.0
H785 H 0.45999 0.06309 0.83982 0.0
H786 H 0.5262 0.21333 0.8303 0.0
H787 H 0.49138 0.21063 0.78109 0.0
C788 C 0.54247 0.16234 0.9246 0.0
C789 C 0.54744 0.12273 0.92773 0.0
C790 C 0.52818 0.16957 0.89517 0.0
C791 C 0.51826 0.13722 0.86814 0.0
C792 C 0.52611 0.10006 0.87056 0.0
C793 C 0.54022 0.0929 0.8997 0.0
C794 C 0.44734 0.09443 0.79996 0.0
C795 C 0.4554 0.13531 0.78218 0.0
C796 C 0.46744 0.09582 0.82748 0.0
C797 C 0.49655 0.13823 0.83902 0.0
C798 C 0.5041 0.17985 0.82225 0.0
C799 C 0.48399 0.17837 0.79403 0.0
H800 H 0.97314 0.45806 0.92349 0.0
H801 H 1.03265 0.38682 0.90014 0.0
H802 H 0.93711 0.42318 0.87286 0.0
H803 H 0.99689 0.35214 0.85077 0.0
H804 H 0.91561 0.38469 0.75316 0.0
H805 H 0.94223 0.4221 0.80697 0.0
H806 H 0.93399 0.29119 0.83818 0.0
H807 H 0.90756 0.25429 0.78511 0.0
C808 C 0.97872 0.43523 0.90771 0.0
C809 C 1.00614 0.42561 0.91638 0.0
C810 C 0.95803 0.41523 0.87856 0.0
C811 C 0.96359 0.38416 0.85758 0.0
C812 C 0.99118 0.37512 0.86627 0.0
C813 C 1.01204 0.39552 0.8948 0.0
C814 C 0.91793 0.36331 0.77206 0.0
C815 C 0.90877 0.31598 0.76466 0.0
C816 C 0.93368 0.38499 0.80291 0.0
C817 C 0.94108 0.36013 0.82703 0.0
C818 C 0.92943 0.31198 0.8203 0.0
C819 C 0.91363 0.29045 0.78987 0.0
H820 H 0.77842 0.77817 0.76576 0.0
H821 H 0.83466 0.71104 0.80514 0.0
H822 H 0.7373 0.7503 0.81098 0.0
H823 H 0.79306 0.68368 0.85195 0.0
H824 H 0.72864 0.68514 0.94729 0.0
H825 H 0.77112 0.70791 0.90241 0.0
H826 H 0.68749 0.67876 0.83262 0.0
H827 H 0.64459 0.6552 0.87783 0.0
C828 C 0.78247 0.75767 0.78424 0.0
C829 C 0.81059 0.74723 0.781 0.0
C830 C 0.75822 0.74114 0.8104 0.0
C831 C 0.76075 0.71364 0.83543 0.0
C832 C 0.78973 0.70457 0.83332 0.0
C833 C 0.81402 0.72067 0.80645 0.0
C834 C 0.71894 0.68315 0.92239 0.0
C835 C 0.68258 0.66823 0.91677 0.0
C836 C 0.74364 0.69611 0.89637 0.0
C837 C 0.73346 0.69577 0.86332 0.0
C838 C 0.69696 0.68022 0.85754 0.0
C839 C 0.67201 0.66631 0.88362 0.0
H840 H 0.78416 0.88046 0.44989 0.0
H841 H 0.72039 0.72921 0.45138 0.0
H842 H 0.81685 0.8788 0.4991 0.0
H843 H 0.75153 0.72723 0.50055 0.0
H844 H 0.83245 0.72109 0.56471 0.0
H845 H 0.80397 0.73186 0.5167 0.0
H846 H 0.82329 0.8667 0.55674 0.0
H847 H 0.85329 0.85618 0.60473 0.0
C848 C 0.77619 0.84699 0.46135 0.0
C849 C 0.74904 0.80502 0.44666 0.0
C850 C 0.79525 0.84588 0.48959 0.0
C851 C 0.78791 0.8027 0.50404 0.0
C852 C 0.75936 0.76126 0.49011 0.0
C853 C 0.74075 0.76239 0.46198 0.0
C854 C 0.83154 0.75371 0.56301 0.0
C855 C 0.84586 0.78789 0.58876 0.0
C856 C 0.81437 0.75962 0.53549 0.0
C857 C 0.80991 0.79968 0.53254 0.0
C858 C 0.82583 0.83522 0.55759 0.0
C859 C 0.84347 0.82941 0.58521 0.0
H860 H 0.26228 1.00801 0.43687 0.0
H861 H 0.30275 0.9106 0.44224 0.0
H862 H 0.28713 1.04075 0.49078 0.0
H863 H 0.32677 0.94233 0.49752 0.0
H864 H 0.40206 1.04498 0.57702 0.0
H865 H 0.3725 1.0068 0.52549 0.0
H866 H 0.28895 1.03905 0.54777 0.0
H867 H 0.3195 0.07881 0.59932 0.0
C868 C 0.27577 0.99253 0.44991 0.0
C869 C 0.2802 0.9562 0.43473 0.0
C870 C 0.29011 1.01151 0.4813 0.0
C871 C 0.3096 0.99504 0.49919 0.0
C872 C 0.31269 0.95707 0.48467 0.0
C873 C 0.29829 0.93804 0.45299 0.0
C874 C 0.37744 1.04431 0.57103 0.0
C875 C 0.36353 0.06563 0.59272 0.0
C876 C 0.36007 1.02163 0.54129 0.0
C877 C 0.32776 1.01884 0.53183 0.0
C878 C 0.31388 1.04051 0.55348 0.0
C879 C 0.33147 0.06356 0.5833 0.0
H880 H 1.04341 0.35676 0.61118 0.0
H881 H 0.9599 0.33826 0.54445 0.0
H882 H 0.08577 0.38584 0.5672 0.0
H883 H 1.00268 0.36601 0.49922 0.0
H884 H 0.09014 0.44837 0.42499 0.0
H885 H 1.04882 0.42408 0.47072 0.0
H886 H 0.11295 0.37705 0.52186 0.0
H887 H 0.15489 0.40334 0.47623 0.0
C888 C 1.03363 0.35822 0.58693 0.0
C889 C 0.99738 0.34454 0.5821 0.0
C890 C 0.05848 0.37497 0.56114 0.0
C891 C 1.04871 0.37886 0.52866 0.0
C892 C 1.01225 0.36472 0.52357 0.0
C893 C 0.9872 0.34809 0.54969 0.0
C894 C 0.09616 0.43434 0.44654 0.0
C895 C 0.12697 0.42965 0.44694 0.0
C896 C 0.07173 0.4192 0.47281 0.0
C897 C 0.07636 0.39757 0.50082 0.0
C898 C 0.10784 0.39395 0.50155 0.0
C899 C 0.13253 0.40962 0.47524 0.0
loop_
_geom_bond_atom_site_label_1
_geom_bond_atom_site_label_2
_geom_bond_distance
_geom_bond_site_symmetry_2
_ccdc_geom_bond_type
Tb0 C9 2.764 . S
Tb0 O10 2.325 . S
Tb0 O13 2.303 1_556 S
Tb0 O17 2.322 1_456 S
Tb0 O18 2.350 . S
Tb0 O21 2.415 1_556 S
Tb0 O22 2.399 . S
Tb1 O11 2.322 1_655 S
Tb1 O12 2.349 1_655 S
Tb1 O14 2.415 1_554 S
Tb1 O15 2.399 . S
Tb1 O16 2.325 . S
Tb1 O19 2.303 1_554 S
Tb1 C30 2.764 . S
C2 O18 1.261 1_655 S
C2 O19 1.257 . S
C3 C6 1.359 1_554 S
C3 C7 1.331 . S
C3 C9 1.504 1_554 S
C4 C5 1.373 1_554 S
C4 C8 1.308 . S
C5 C4 1.373 1_556 S
C5 C6 1.429 . S
C5 H32 0.932 . S
C6 C3 1.359 1_556 S
C6 C5 1.429 . S
C6 H33 0.930 . S
C7 C3 1.331 . S
C7 C8 1.394 . S
C7 H34 0.932 . S
C8 C4 1.308 . S
C8 C7 1.394 . S
C8 H35 0.929 . S
C9 Tb0 2.764 . S
C9 C3 1.504 1_556 S
C9 O21 1.228 1_556 S
C9 O22 1.273 . S
O10 Tb0 2.325 . S
O10 C20 1.236 1_556 S
O11 Tb1 2.322 1_455 S
O11 C20 1.257 . S
O12 Tb1 2.349 1_455 S
O12 C23 1.261 . S
O13 Tb0 2.303 1_554 S
O13 C23 1.257 . S
O14 Tb1 2.415 1_556 S
O14 C30 1.239 1_556 S
O15 Tb1 2.399 . S
O15 C30 1.263 . S
O16 Tb1 2.325 . S
O16 C31 1.236 . S
O17 Tb0 2.322 1_654 S
O17 C31 1.257 . S
O18 Tb0 2.350 . S
O18 C2 1.261 1_455 S
O19 Tb1 2.303 1_556 S
O19 C2 1.257 . S
C20 O10 1.236 1_554 S
C20 O11 1.257 . S
O21 Tb0 2.415 1_554 S
O21 C9 1.228 1_554 S
O22 Tb0 2.399 . S
O22 C9 1.273 . S
C23 O12 1.261 . S
C23 O13 1.257 . S
C24 C27 1.358 . S
C24 C28 1.332 1_554 S
C24 C30 1.504 . S
C25 C26 1.373 . S
C25 C29 1.308 1_554 S
C26 C25 1.373 . S
C26 C27 1.429 . S
C26 H36 0.932 . S
C27 C24 1.358 . S
C27 C26 1.429 . S
C27 H37 0.930 . S
C28 C24 1.332 1_556 S
C28 C29 1.394 . S
C28 H38 0.932 . S
C29 C25 1.308 1_556 S
C29 C28 1.394 . S
C29 H39 0.929 . S
C30 Tb1 2.764 . S
C30 O14 1.239 1_554 S
C30 O15 1.263 . S
C30 C24 1.504 . S
C31 O16 1.236 . S
C31 O17 1.257 . S
H32 C5 0.932 . S
H33 C6 0.930 . S
H34 C7 0.932 . S
H35 C8 0.929 . S
H36 C26 0.932 . S
H37 C27 0.930 . S
H38 C28 0.932 . S
H39 C29 0.929 . S
Tb40 C49 2.764 . S
Tb40 O50 2.325 . S
Tb40 O53 2.303 1_554 S
Tb40 O57 2.322 . S
Tb40 O58 2.349 . S
Tb40 O61 2.415 1_554 S
Tb40 O62 2.399 . S
Tb41 O51 2.322 . S
Tb41 O52 2.349 . S
Tb41 O54 2.415 1_556 S
Tb41 O55 2.399 . S
Tb41 O56 2.325 . S
Tb41 O59 2.303 1_556 S
Tb41 C70 2.764 . S
C42 O58 1.261 . S
C42 O59 1.257 . S
C43 C46 1.358 . S
C43 C47 1.332 1_554 S
C43 C49 1.504 . S
C44 C45 1.373 . S
C44 C48 1.308 1_554 S
C45 C44 1.373 . S
C45 C46 1.429 . S
C45 H72 0.932 . S
C46 C43 1.358 . S
C46 C45 1.429 . S
C46 H73 0.930 . S
C47 C43 1.332 1_556 S
C47 C48 1.394 . S
C47 H74 0.932 . S
C48 C44 1.308 1_556 S
C48 C47 1.394 . S
C48 H75 0.929 . S
C49 Tb40 2.764 . S
C49 C43 1.504 . S
C49 O61 1.239 1_554 S
C49 O62 1.263 . S
O50 Tb40 2.325 . S
O50 C60 1.236 . S
O51 Tb41 2.322 . S
O51 C60 1.257 1_556 S
O52 Tb41 2.349 . S
O52 C63 1.261 . S
O53 Tb40 2.303 1_556 S
O53 C63 1.257 . S
O54 Tb41 2.415 1_554 S
O54 C70 1.239 1_554 S
O55 Tb41 2.399 . S
O55 C70 1.263 . S
O56 Tb41 2.325 . S
O56 C71 1.236 . S
O57 Tb40 2.322 . S
O57 C71 1.257 1_554 S
O58 Tb40 2.349 . S
O58 C42 1.261 . S
O59 Tb41 2.303 1_554 S
O59 C42 1.257 . S
C60 O50 1.236 . S
C60 O51 1.257 1_554 S
O61 Tb40 2.415 1_556 S
O61 C49 1.239 1_556 S
O62 Tb40 2.399 . S
O62 C49 1.263 . S
C63 O52 1.261 . S
C63 O53 1.257 . S
C64 C67 1.358 . S
C64 C68 1.332 1_556 S
C64 C70 1.504 . S
C65 C66 1.373 . S
C65 C69 1.308 1_556 S
C66 C65 1.373 . S
C66 C67 1.429 . S
C66 H76 0.932 . S
C67 C64 1.358 . S
C67 C66 1.429 . S
C67 H77 0.930 . S
C68 C64 1.332 1_554 S
C68 C69 1.394 . S
C68 H78 0.932 . S
C69 C65 1.308 1_554 S
C69 C68 1.394 . S
C69 H79 0.929 . S
C70 Tb41 2.764 . S
C70 O54 1.239 1_556 S
C70 O55 1.263 . S
C70 C64 1.504 . S
C71 O56 1.236 . S
C71 O57 1.257 1_556 S
H72 C45 0.932 . S
H73 C46 0.930 . S
H74 C47 0.932 . S
H75 C48 0.929 . S
H76 C66 0.932 . S
H77 C67 0.930 . S
H78 C68 0.932 . S
H79 C69 0.929 . S
Tb80 C89 2.764 . S
Tb80 O90 2.325 . S
Tb80 O93 2.303 1_556 S
Tb80 O97 2.322 1_566 S
Tb80 O98 2.349 . S
Tb80 O101 2.415 1_556 S
Tb80 O102 2.399 . S
Tb81 O91 2.322 1_545 S
Tb81 O92 2.349 . S
Tb81 O94 2.415 1_554 S
Tb81 O95 2.399 . S
Tb81 O96 2.325 . S
Tb81 O99 2.303 1_554 S
Tb81 C110 2.764 . S
C82 O98 1.261 1_545 S
C82 O99 1.257 . S
C83 C86 1.369 . S
C83 C87 1.321 1_556 S
C83 C89 1.505 . S
C84 C85 1.373 1_554 S
C84 C88 1.308 . S
C85 C84 1.373 1_556 S
C85 C86 1.429 . S
C85 H112 0.932 . S
C86 C83 1.369 . S
C86 C85 1.429 . S
C86 H113 0.930 . S
C87 C83 1.321 1_554 S
C87 C88 1.394 . S
C87 H114 0.932 . S
C88 C84 1.308 . S
C88 C87 1.394 . S
C88 H115 0.929 . S
C89 Tb80 2.764 . S
C89 C83 1.505 . S
C89 O101 1.239 1_556 S
C89 O102 1.263 . S
O90 Tb80 2.325 . S
O90 C100 1.236 1_556 S
O91 Tb81 2.322 1_565 S
O91 C100 1.257 . S
O92 Tb81 2.349 . S
O92 C103 1.261 1_545 S
O93 Tb80 2.303 1_554 S
O93 C103 1.257 . S
O94 Tb81 2.415 1_556 S
O94 C110 1.239 1_556 S
O95 Tb81 2.399 . S
O95 C110 1.263 . S
O96 Tb81 2.325 . S
O96 C111 1.236 . S
O97 Tb80 2.322 1_544 S
O97 C111 1.257 . S
O98 Tb80 2.349 . S
O98 C82 1.261 1_565 S
O99 Tb81 2.303 1_556 S
O99 C82 1.257 . S
C100 O90 1.236 1_554 S
C100 O91 1.257 . S
O101 Tb80 2.415 1_554 S
O101 C89 1.239 1_554 S
O102 Tb80 2.399 . S
O102 C89 1.263 . S
C103 O92 1.261 1_565 S
C103 O93 1.257 . S
C104 C107 1.358 . S
C104 C108 1.332 1_554 S
C104 C110 1.504 . S
C105 C106 1.373 . S
C105 C109 1.308 1_554 S
C106 C105 1.373 . S
C106 C107 1.429 . S
C106 H116 0.932 . S
C107 C104 1.358 . S
C107 C106 1.429 . S
C107 H117 0.930 . S
C108 C104 1.332 1_556 S
C108 C109 1.394 . S
C108 H118 0.932 . S
C109 C105 1.308 1_556 S
C109 C108 1.394 . S
C109 H119 0.929 . S
C110 Tb81 2.764 . S
C110 O94 1.239 1_554 S
C110 O95 1.263 . S
C110 C104 1.504 . S
C111 O96 1.236 . S
C111 O97 1.257 . S
H112 C85 0.932 . S
H113 C86 0.930 . S
H114 C87 0.932 . S
H115 C88 0.929 . S
H116 C106 0.932 . S
H117 C107 0.930 . S
H118 C108 0.932 . S
H119 C109 0.929 . S
Tb120 C129 2.764 . S
Tb120 O130 2.325 . S
Tb120 O133 2.303 . S
Tb120 O137 2.322 . S
Tb120 O138 2.349 . S
Tb120 O141 2.415 . S
Tb120 O142 2.399 . S
Tb121 O131 2.322 . S
Tb121 O132 2.349 . S
Tb121 O134 2.415 . S
Tb121 O135 2.399 . S
Tb121 O136 2.325 . S
Tb121 O139 2.303 . S
Tb121 C150 2.764 . S
C122 O138 1.261 . S
C122 O139 1.257 . S
C123 C126 1.358 . S
C123 C127 1.332 . S
C123 C129 1.504 . S
C124 C125 1.373 . S
C124 C128 1.308 . S
C125 C124 1.373 . S
C125 C126 1.429 . S
C125 H152 0.932 . S
C126 C123 1.358 . S
C126 C125 1.429 . S
C126 H153 0.930 . S
C127 C123 1.332 . S
C127 C128 1.394 . S
C127 H154 0.932 . S
C128 C124 1.308 . S
C128 C127 1.394 . S
C128 H155 0.929 . S
C129 Tb120 2.764 . S
C129 C123 1.504 . S
C129 O141 1.239 . S
C129 O142 1.263 . S
O130 Tb120 2.325 . S
O130 C140 1.236 . S
O131 Tb121 2.322 . S
O131 C140 1.257 . S
O132 Tb121 2.349 . S
O132 C143 1.261 . S
O133 Tb120 2.303 . S
O133 C143 1.257 . S
O134 Tb121 2.415 . S
O134 C150 1.239 . S
O135 Tb121 2.399 . S
O135 C150 1.263 . S
O136 Tb121 2.325 . S
O136 C151 1.236 . S
O137 Tb120 2.322 . S
O137 C151 1.257 . S
O138 Tb120 2.349 . S
O138 C122 1.261 . S
O139 Tb121 2.303 . S
O139 C122 1.257 . S
C140 O130 1.236 . S
C140 O131 1.257 . S
O141 Tb120 2.415 . S
O141 C129 1.239 . S
O142 Tb120 2.399 . S
O142 C129 1.263 . S
C143 O132 1.261 . S
C143 O133 1.257 . S
C144 C147 1.358 . S
C144 C148 1.332 . S
C144 C150 1.504 . S
C145 C146 1.373 . S
C145 C149 1.308 . S
C146 C145 1.373 . S
C146 C147 1.429 . S
C146 H156 0.932 . S
C147 C144 1.358 . S
C147 C146 1.429 . S
C147 H157 0.930 . S
C148 C144 1.332 . S
C148 C149 1.394 . S
C148 H158 0.932 . S
C149 C145 1.308 . S
C149 C148 1.394 . S
C149 H159 0.929 . S
C150 Tb121 2.764 . S
C150 O134 1.239 . S
C150 O135 1.263 . S
C150 C144 1.504 . S
C151 O136 1.236 . S
C151 O137 1.257 . S
H152 C125 0.932 . S
H153 C126 0.930 . S
H154 C127 0.932 . S
H155 C128 0.929 . S
H156 C146 0.932 . S
H157 C147 0.930 . S
H158 C148 0.932 . S
H159 C149 0.929 . S
Tb160 C169 2.764 1_565 S
Tb160 O170 2.325 . S
Tb160 O173 2.303 . S
Tb160 O177 2.322 . S
Tb160 O178 2.349 . S
Tb160 O181 2.415 . S
Tb160 O182 2.399 1_565 S
Tb161 O171 2.322 . S
Tb161 O172 2.349 . S
Tb161 O174 2.415 . S
Tb161 O175 2.399 . S
Tb161 O176 2.325 . S
Tb161 O179 2.303 . S
Tb161 C190 2.764 . S
C162 O178 1.261 . S
C162 O179 1.257 . S
C163 C166 1.358 . S
C163 C167 1.332 . S
C163 C169 1.504 . S
C164 C165 1.373 . S
C164 C168 1.308 . S
C165 C164 1.373 . S
C165 C166 1.429 . S
C165 H192 0.932 . S
C166 C163 1.358 . S
C166 C165 1.429 . S
C166 H193 0.930 . S
C167 C163 1.332 . S
C167 C168 1.394 . S
C167 H194 0.932 . S
C168 C164 1.308 . S
C168 C167 1.394 . S
C168 H195 0.929 . S
C169 Tb160 2.764 1_545 S
C169 C163 1.504 . S
C169 O181 1.239 1_545 S
C169 O182 1.263 . S
O170 Tb160 2.325 . S
O170 C180 1.236 . S
O171 Tb161 2.322 . S
O171 C180 1.257 . S
O172 Tb161 2.349 . S
O172 C183 1.261 . S
O173 Tb160 2.303 . S
O173 C183 1.257 . S
O174 Tb161 2.415 . S
O174 C190 1.239 . S
O175 Tb161 2.399 . S
O175 C190 1.263 . S
O176 Tb161 2.325 . S
O176 C191 1.236 . S
O177 Tb160 2.322 . S
O177 C191 1.257 . S
O178 Tb160 2.349 . S
O178 C162 1.261 . S
O179 Tb161 2.303 . S
O179 C162 1.257 . S
C180 O170 1.236 . S
C180 O171 1.257 . S
O181 Tb160 2.415 . S
O181 C169 1.239 1_565 S
O182 Tb160 2.399 1_545 S
O182 C169 1.263 . S
C183 O172 1.261 . S
C183 O173 1.257 . S
C184 C187 1.358 . S
C184 C188 1.332 . S
C184 C190 1.504 . S
C185 C186 1.373 . S
C185 C189 1.308 . S
C186 C185 1.373 . S
C186 C187 1.429 . S
C186 H196 0.932 . S
C187 C184 1.358 . S
C187 C186 1.429 . S
C187 H197 0.930 . S
C188 C184 1.332 . S
C188 C189 1.394 . S
C188 H198 0.932 . S
C189 C185 1.308 . S
C189 C188 1.394 . S
C189 H199 0.929 . S
C190 Tb161 2.764 . S
C190 O174 1.239 . S
C190 O175 1.263 . S
C190 C184 1.504 . S
C191 O176 1.236 . S
C191 O177 1.257 . S
H192 C165 0.932 . S
H193 C166 0.930 . S
H194 C167 0.932 . S
H195 C168 0.929 . S
H196 C186 0.932 . S
H197 C187 0.930 . S
H198 C188 0.932 . S
H199 C189 0.929 . S
Tb200 C209 2.764 . S
Tb200 O210 2.325 . S
Tb200 O213 2.303 . S
Tb200 O217 2.322 . S
Tb200 O218 2.349 . S
Tb200 O221 2.415 . S
Tb200 O222 2.399 . S
Tb201 O211 2.322 . S
Tb201 O212 2.349 . S
Tb201 O214 2.415 . S
Tb201 O215 2.399 . S
Tb201 O216 2.325 . S
Tb201 O219 2.303 . S
Tb201 C230 2.764 . S
C202 O218 1.261 . S
C202 O219 1.257 . S
C203 C206 1.358 . S
C203 C207 1.332 . S
C203 C209 1.504 1_655 S
C204 C205 1.373 . S
C204 C208 1.308 . S
C205 C204 1.373 . S
C205 C206 1.429 . S
C205 H232 0.932 . S
C206 C203 1.358 . S
C206 C205 1.429 . S
C206 H233 0.930 . S
C207 C203 1.332 . S
C207 C208 1.394 . S
C207 H234 0.932 . S
C208 C204 1.308 . S
C208 C207 1.394 . S
C208 H235 0.929 . S
C209 Tb200 2.764 . S
C209 C203 1.504 1_455 S
C209 O221 1.239 . S
C209 O222 1.263 . S
O210 Tb200 2.325 . S
O210 C220 1.236 . S
O211 Tb201 2.322 . S
O211 C220 1.257 . S
O212 Tb201 2.349 . S
O212 C223 1.261 . S
O213 Tb200 2.303 . S
O213 C223 1.257 . S
O214 Tb201 2.415 . S
O214 C230 1.239 . S
O215 Tb201 2.399 . S
O215 C230 1.263 . S
O216 Tb201 2.325 . S
O216 C231 1.236 . S
O217 Tb200 2.322 . S
O217 C231 1.257 . S
O218 Tb200 2.349 . S
O218 C202 1.261 . S
O219 Tb201 2.303 . S
O219 C202 1.257 . S
C220 O210 1.236 . S
C220 O211 1.257 . S
O221 Tb200 2.415 . S
O221 C209 1.239 . S
O222 Tb200 2.399 . S
O222 C209 1.263 . S
C223 O212 1.261 . S
C223 O213 1.257 . S
C224 C227 1.358 . S
C224 C228 1.332 . S
C224 C230 1.504 . S
C225 C226 1.373 . S
C225 C229 1.308 . S
C226 C225 1.373 . S
C226 C227 1.429 . S
C226 H236 0.932 . S
C227 C224 1.358 . S
C227 C226 1.429 . S
C227 H237 0.930 . S
C228 C224 1.332 . S
C228 C229 1.394 . S
C228 H238 0.932 . S
C229 C225 1.308 . S
C229 C228 1.394 . S
C229 H239 0.929 . S
C230 Tb201 2.764 . S
C230 O214 1.239 . S
C230 O215 1.263 . S
C230 C224 1.504 . S
C231 O216 1.236 . S
C231 O217 1.257 . S
H232 C205 0.932 . S
H233 C206 0.930 . S
H234 C207 0.932 . S
H235 C208 0.929 . S
H236 C226 0.932 . S
H237 C227 0.930 . S
H238 C228 0.932 . S
H239 C229 0.929 . S
Tb240 C249 2.764 . S
Tb240 O250 2.325 . S
Tb240 O253 2.303 . S
Tb240 O257 2.322 . S
Tb240 O258 2.349 . S
Tb240 O261 2.415 . S
Tb240 O262 2.399 . S
Tb241 O251 2.322 . S
Tb241 O252 2.349 . S
Tb241 O254 2.415 . S
Tb241 O255 2.399 . S
Tb241 O256 2.325 . S
Tb241 O259 2.303 . S
Tb241 C270 2.764 . S
C242 O258 1.261 . S
C242 O259 1.257 . S
C243 C246 1.358 . S
C243 C247 1.332 . S
C243 C249 1.504 . S
C244 C245 1.373 . S
C244 C248 1.308 . S
C245 C244 1.373 . S
C245 C246 1.429 . S
C245 H272 0.932 . S
C246 C243 1.358 . S
C246 C245 1.429 . S
C246 H273 0.930 . S
C247 C243 1.332 . S
C247 C248 1.394 . S
C247 H274 0.932 . S
C248 C244 1.308 . S
C248 C247 1.394 . S
C248 H275 0.929 . S
C249 Tb240 2.764 . S
C249 C243 1.504 . S
C249 O261 1.239 . S
C249 O262 1.263 . S
O250 Tb240 2.325 . S
O250 C260 1.236 . S
O251 Tb241 2.322 . S
O251 C260 1.257 . S
O252 Tb241 2.349 . S
O252 C263 1.261 . S
O253 Tb240 2.303 . S
O253 C263 1.257 . S
O254 Tb241 2.415 . S
O254 C270 1.239 . S
O255 Tb241 2.399 . S
O255 C270 1.263 . S
O256 Tb241 2.325 . S
O256 C271 1.236 . S
O257 Tb240 2.322 . S
O257 C271 1.257 . S
O258 Tb240 2.349 . S
O258 C242 1.261 . S
O259 Tb241 2.303 . S
O259 C242 1.257 . S
C260 O250 1.236 . S
C260 O251 1.257 . S
O261 Tb240 2.415 . S
O261 C249 1.239 . S
O262 Tb240 2.399 . S
O262 C249 1.263 . S
C263 O252 1.261 . S
C263 O253 1.257 . S
C264 C267 1.358 . S
C264 C268 1.332 . S
C264 C270 1.504 . S
C265 C266 1.373 . S
C265 C269 1.308 . S
C266 C265 1.373 . S
C266 C267 1.429 . S
C266 H276 0.932 . S
C267 C264 1.358 . S
C267 C266 1.429 . S
C267 H277 0.930 . S
C268 C264 1.332 . S
C268 C269 1.394 . S
C268 H278 0.932 . S
C269 C265 1.308 . S
C269 C268 1.394 . S
C269 H279 0.929 . S
C270 Tb241 2.764 . S
C270 O254 1.239 . S
C270 O255 1.263 . S
C270 C264 1.504 . S
C271 O256 1.236 . S
C271 O257 1.257 . S
H272 C245 0.932 . S
H273 C246 0.930 . S
H274 C247 0.932 . S
H275 C248 0.929 . S
H276 C266 0.932 . S
H277 C267 0.930 . S
H278 C268 0.932 . S
H279 C269 0.929 . S
Tb280 C289 2.764 . S
Tb280 O290 2.325 . S
Tb280 O293 2.303 . S
Tb280 O297 2.322 . S
Tb280 O298 2.349 . S
Tb280 O301 2.415 . S
Tb280 O302 2.399 . S
Tb281 O291 2.322 . S
Tb281 O292 2.349 . S
Tb281 O294 2.415 . S
Tb281 O295 2.399 . S
Tb281 O296 2.325 . S
Tb281 O299 2.303 . S
Tb281 C310 2.764 . S
C282 O298 1.261 . S
C282 O299 1.257 . S
C283 C286 1.358 . S
C283 C287 1.332 . S
C283 C289 1.504 1_455 S
C284 C285 1.373 . S
C284 C288 1.308 . S
C285 C284 1.373 . S
C285 C286 1.429 . S
C285 H312 0.932 . S
C286 C283 1.358 . S
C286 C285 1.429 . S
C286 H313 0.930 . S
C287 C283 1.332 . S
C287 C288 1.394 . S
C287 H314 0.932 . S
C288 C284 1.308 . S
C288 C287 1.394 . S
C288 H315 0.929 . S
C289 Tb280 2.764 . S
C289 C283 1.504 1_655 S
C289 O301 1.239 . S
C289 O302 1.263 . S
O290 Tb280 2.325 . S
O290 C300 1.236 . S
O291 Tb281 2.322 . S
O291 C300 1.257 . S
O292 Tb281 2.349 . S
O292 C303 1.261 . S
O293 Tb280 2.303 . S
O293 C303 1.257 . S
O294 Tb281 2.415 . S
O294 C310 1.239 . S
O295 Tb281 2.399 . S
O295 C310 1.263 . S
O296 Tb281 2.325 . S
O296 C311 1.236 . S
O297 Tb280 2.322 . S
O297 C311 1.257 . S
O298 Tb280 2.349 . S
O298 C282 1.261 . S
O299 Tb281 2.303 . S
O299 C282 1.257 . S
C300 O290 1.236 . S
C300 O291 1.257 . S
O301 Tb280 2.415 . S
O301 C289 1.239 . S
O302 Tb280 2.399 . S
O302 C289 1.263 . S
C303 O292 1.261 . S
C303 O293 1.257 . S
C304 C307 1.358 . S
C304 C308 1.332 . S
C304 C310 1.504 . S
C305 C306 1.373 . S
C305 C309 1.308 . S
C306 C305 1.373 . S
C306 C307 1.429 . S
C306 H316 0.932 . S
C307 C304 1.358 . S
C307 C306 1.429 . S
C307 H317 0.930 . S
C308 C304 1.332 . S
C308 C309 1.394 . S
C308 H318 0.932 . S
C309 C305 1.308 . S
C309 C308 1.394 . S
C309 H319 0.929 . S
C310 Tb281 2.764 . S
C310 O294 1.239 . S
C310 O295 1.263 . S
C310 C304 1.504 . S
C311 O296 1.236 . S
C311 O297 1.257 . S
H312 C285 0.932 . S
H313 C286 0.930 . S
H314 C287 0.932 . S
H315 C288 0.929 . S
H316 C306 0.932 . S
H317 C307 0.930 . S
H318 C308 0.932 . S
H319 C309 0.929 . S
Tb320 C329 2.764 . S
Tb320 O330 2.325 . S
Tb320 O333 2.303 . S
Tb320 O337 2.322 . S
Tb320 O338 2.349 . S
Tb320 O341 2.415 . S
Tb320 O342 2.399 . S
Tb321 O331 2.322 . S
Tb321 O332 2.349 . S
Tb321 O334 2.415 . S
Tb321 O335 2.399 . S
Tb321 O336 2.325 . S
Tb321 O339 2.303 . S
Tb321 C350 2.764 . S
C322 O338 1.261 . S
C322 O339 1.257 . S
C323 C326 1.358 . S
C323 C327 1.332 . S
C323 C329 1.504 . S
C324 C325 1.373 . S
C324 C328 1.308 . S
C325 C324 1.373 . S
C325 C326 1.429 . S
C325 H352 0.932 . S
C326 C323 1.358 . S
C326 C325 1.429 . S
C326 H353 0.930 . S
C327 C323 1.332 . S
C327 C328 1.394 . S
C327 H354 0.932 . S
C328 C324 1.308 . S
C328 C327 1.394 . S
C328 H355 0.929 . S
C329 Tb320 2.764 . S
C329 C323 1.504 . S
C329 O341 1.239 . S
C329 O342 1.263 . S
O330 Tb320 2.325 . S
O330 C340 1.236 . S
O331 Tb321 2.322 . S
O331 C340 1.257 . S
O332 Tb321 2.349 . S
O332 C343 1.261 . S
O333 Tb320 2.303 . S
O333 C343 1.257 . S
O334 Tb321 2.415 . S
O334 C350 1.239 . S
O335 Tb321 2.399 . S
O335 C350 1.263 . S
O336 Tb321 2.325 . S
O336 C351 1.236 . S
O337 Tb320 2.322 . S
O337 C351 1.257 . S
O338 Tb320 2.349 . S
O338 C322 1.261 . S
O339 Tb321 2.303 . S
O339 C322 1.257 . S
C340 O330 1.236 . S
C340 O331 1.257 . S
O341 Tb320 2.415 . S
O341 C329 1.239 . S
O342 Tb320 2.399 . S
O342 C329 1.263 . S
C343 O332 1.261 . S
C343 O333 1.257 . S
C344 C347 1.358 . S
C344 C348 1.332 . S
C344 C350 1.504 . S
C345 C346 1.375 1_455 S
C345 C349 1.298 1_455 S
C346 C345 1.375 1_655 S
C346 C347 1.429 . S
C346 H356 0.932 1_655 S
C347 C344 1.358 . S
C347 C346 1.429 . S
C347 H357 0.930 . S
C348 C344 1.332 . S
C348 C349 1.394 . S
C348 H358 0.932 . S
C349 C345 1.298 1_655 S
C349 C348 1.394 . S
C349 H359 0.929 . S
C350 Tb321 2.764 . S
C350 O334 1.239 . S
C350 O335 1.263 . S
C350 C344 1.504 . S
C351 O336 1.236 . S
C351 O337 1.257 . S
H352 C325 0.932 . S
H353 C326 0.930 . S
H354 C327 0.932 . S
H355 C328 0.929 . S
H356 C346 0.932 1_455 S
H357 C347 0.930 . S
H358 C348 0.932 . S
H359 C349 0.929 . S
H360 C368 0.950 . S
H361 C373 0.950 . S
H362 C370 0.950 . S
H363 C372 0.950 . S
H364 C374 0.950 . S
H365 C376 0.950 . S
H366 C378 0.950 . S
H367 C379 0.950 . S
C368 H360 0.950 . S
C368 C369 1.386 1_554 S
C368 C370 1.391 . S
C369 C368 1.386 1_556 S
C369 C373 1.393 . S
C370 H362 0.950 . S
C370 C368 1.391 . S
C370 C371 1.400 1_554 S
C371 C370 1.400 1_556 S
C371 C372 1.398 . S
C371 C377 1.491 . S
C372 H363 0.950 . S
C372 C371 1.398 . S
C372 C373 1.391 . S
C373 H361 0.950 . S
C373 C369 1.393 . S
C373 C372 1.391 . S
C374 H364 0.950 . S
C374 C375 1.389 1_556 S
C374 C376 1.391 . S
C375 C374 1.389 1_554 S
C375 C379 1.390 . S
C376 H365 0.950 . S
C376 C374 1.391 . S
C376 C377 1.400 . S
C377 C371 1.491 . S
C377 C376 1.400 . S
C377 C378 1.398 1_556 S
C378 H366 0.950 . S
C378 C377 1.398 1_554 S
C378 C379 1.391 . S
C379 H367 0.950 . S
C379 C375 1.390 . S
C379 C378 1.391 . S
H380 C388 0.950 . S
H381 C393 0.950 . S
H382 C390 0.950 . S
H383 C392 0.950 . S
H384 C394 0.950 . S
H385 C396 0.950 . S
H386 C398 0.950 . S
H387 C399 0.950 . S
C388 H380 0.950 . S
C388 C389 1.386 . S
C388 C390 1.391 . S
C389 C388 1.386 . S
C389 C393 1.393 1_554 S
C390 H382 0.950 . S
C390 C388 1.391 . S
C390 C391 1.400 . S
C391 C390 1.400 . S
C391 C392 1.398 1_554 S
C391 C397 1.491 1_554 S
C392 H383 0.950 . S
C392 C391 1.398 1_556 S
C392 C393 1.391 . S
C393 H381 0.950 . S
C393 C389 1.393 1_556 S
C393 C392 1.391 . S
C394 H384 0.950 . S
C394 C395 1.386 . S
C394 C396 1.391 . S
C395 C394 1.386 . S
C395 C399 1.393 1_556 S
C396 H385 0.950 . S
C396 C394 1.391 . S
C396 C397 1.399 . S
C397 C391 1.491 1_556 S
C397 C396 1.399 . S
C397 C398 1.399 1_556 S
C398 H386 0.950 . S
C398 C397 1.399 1_554 S
C398 C399 1.391 . S
C399 H387 0.950 . S
C399 C395 1.393 1_554 S
C399 C398 1.391 . S
H400 C408 0.950 . S
H401 C413 0.950 . S
H402 C410 0.950 . S
H403 C412 0.950 . S
H404 C414 0.950 . S
H405 C416 0.950 . S
H406 C418 0.950 . S
H407 C419 0.950 . S
C408 H400 0.950 . S
C408 C409 1.386 1_556 S
C408 C410 1.391 . S
C409 C408 1.386 1_554 S
C409 C413 1.393 . S
C410 H402 0.950 . S
C410 C408 1.391 . S
C410 C411 1.400 1_556 S
C411 C410 1.400 1_554 S
C411 C412 1.398 . S
C411 C417 1.491 . S
C412 H403 0.950 . S
C412 C411 1.398 . S
C412 C413 1.391 . S
C413 H401 0.950 . S
C413 C409 1.393 . S
C413 C412 1.391 . S
C414 H404 0.950 . S
C414 C415 1.386 . S
C414 C416 1.391 . S
C415 C414 1.386 . S
C415 C419 1.393 1_554 S
C416 H405 0.950 . S
C416 C414 1.391 . S
C416 C417 1.400 . S
C417 C411 1.491 . S
C417 C416 1.400 . S
C417 C418 1.398 1_554 S
C418 H406 0.950 . S
C418 C417 1.398 1_556 S
C418 C419 1.391 . S
C419 H407 0.950 . S
C419 C415 1.393 1_556 S
C419 C418 1.391 . S
H420 C428 0.950 . S
H421 C433 0.950 . S
H422 C430 0.950 . S
H423 C432 0.950 . S
H424 C434 0.950 . S
H425 C436 0.950 . S
H426 C438 0.950 . S
H427 C439 0.950 . S
C428 H420 0.950 . S
C428 C429 1.386 . S
C428 C430 1.391 . S
C429 C428 1.386 . S
C429 C433 1.393 . S
C430 H422 0.950 . S
C430 C428 1.391 . S
C430 C431 1.400 . S
C431 C430 1.400 . S
C431 C432 1.398 . S
C431 C437 1.491 . S
C432 H423 0.950 . S
C432 C431 1.398 . S
C432 C433 1.391 . S
C433 H421 0.950 . S
C433 C429 1.393 . S
C433 C432 1.391 . S
C434 H424 0.950 . S
C434 C435 1.386 . S
C434 C436 1.391 . S
C435 C434 1.386 . S
C435 C439 1.393 . S
C436 H425 0.950 . S
C436 C434 1.391 . S
C436 C437 1.400 . S
C437 C431 1.491 . S
C437 C436 1.400 . S
C437 C438 1.398 . S
C438 H426 0.950 . S
C438 C437 1.398 . S
C438 C439 1.391 . S
C439 H427 0.950 . S
C439 C435 1.393 . S
C439 C438 1.391 . S
H440 C448 0.950 . S
H441 C453 0.950 . S
H442 C450 0.950 . S
H443 C452 0.950 . S
H444 C454 0.950 . S
H445 C456 0.950 . S
H446 C458 0.950 . S
H447 C459 0.950 . S
C448 H440 0.950 . S
C448 C449 1.386 1_556 S
C448 C450 1.391 . S
C449 C448 1.386 1_554 S
C449 C453 1.393 . S
C450 H442 0.950 . S
C450 C448 1.391 . S
C450 C451 1.400 1_556 S
C451 C450 1.400 1_554 S
C451 C452 1.398 . S
C451 C457 1.491 . S
C452 H443 0.950 . S
C452 C451 1.398 . S
C452 C453 1.391 . S
C453 H441 0.950 . S
C453 C449 1.393 . S
C453 C452 1.391 . S
C454 H444 0.950 . S
C454 C455 1.386 . S
C454 C456 1.391 . S
C455 C454 1.386 . S
C455 C459 1.393 1_554 S
C456 H445 0.950 . S
C456 C454 1.391 . S
C456 C457 1.400 . S
C457 C451 1.491 . S
C457 C456 1.400 . S
C457 C458 1.398 1_554 S
C458 H446 0.950 . S
C458 C457 1.398 1_556 S
C458 C459 1.391 . S
C459 H447 0.950 . S
C459 C455 1.393 1_556 S
C459 C458 1.391 . S
H460 C468 0.950 . S
H461 C473 0.950 . S
H462 C470 0.950 . S
H463 C472 0.950 . S
H464 C474 0.950 . S
H465 C476 0.950 . S
H466 C478 0.950 . S
H467 C479 0.950 . S
C468 H460 0.950 . S
C468 C469 1.386 1_556 S
C468 C470 1.391 . S
C469 C468 1.386 1_554 S
C469 C473 1.393 . S
C470 H462 0.950 . S
C470 C468 1.391 . S
C470 C471 1.400 1_556 S
C471 C470 1.400 1_554 S
C471 C472 1.398 . S
C471 C477 1.491 . S
C472 H463 0.950 . S
C472 C471 1.398 . S
C472 C473 1.391 . S
C473 H461 0.950 . S
C473 C469 1.393 . S
C473 C472 1.391 . S
C474 H464 0.950 . S
C474 C475 1.386 . S
C474 C476 1.391 . S
C475 C474 1.386 . S
C475 C479 1.393 1_554 S
C476 H465 0.950 . S
C476 C474 1.391 . S
C476 C477 1.400 . S
C477 C471 1.491 . S
C477 C476 1.400 . S
C477 C478 1.398 1_554 S
C478 H466 0.950 . S
C478 C477 1.398 1_556 S
C478 C479 1.391 . S
C479 H467 0.950 . S
C479 C475 1.393 1_556 S
C479 C478 1.391 . S
H480 C488 0.950 . S
H481 C493 0.950 . S
H482 C490 0.950 . S
H483 C492 0.950 . S
H484 C494 0.950 . S
H485 C496 0.950 . S
H486 C498 0.950 . S
H487 C499 0.950 . S
C488 H480 0.950 . S
C488 C489 1.386 . S
C488 C490 1.391 . S
C489 C488 1.386 . S
C489 C493 1.393 . S
C490 H482 0.950 . S
C490 C488 1.391 . S
C490 C491 1.400 . S
C491 C490 1.400 . S
C491 C492 1.398 . S
C491 C497 1.491 1_655 S
C492 H483 0.950 . S
C492 C491 1.398 . S
C492 C493 1.391 . S
C493 H481 0.950 . S
C493 C489 1.393 . S
C493 C492 1.391 . S
C494 H484 0.950 . S
C494 C495 1.386 . S
C494 C496 1.391 . S
C495 C494 1.386 . S
C495 C499 1.393 . S
C496 H485 0.950 . S
C496 C494 1.391 . S
C496 C497 1.400 . S
C497 C491 1.491 1_455 S
C497 C496 1.400 . S
C497 C498 1.398 . S
C498 H486 0.950 . S
C498 C497 1.398 . S
C498 C499 1.391 . S
C499 H487 0.950 . S
C499 C495 1.393 . S
C499 C498 1.391 . S
H500 C508 0.950 . S
H501 C513 0.950 . S
H502 C510 0.950 . S
H503 C512 0.950 . S
H504 C514 0.950 . S
H505 C516 0.950 . S
H506 C518 0.950 . S
H507 C519 0.950 . S
C508 H500 0.950 . S
C508 C509 1.386 . S
C508 C510 1.391 . S
C509 C508 1.386 . S
C509 C513 1.393 . S
C510 H502 0.950 . S
C510 C508 1.391 . S
C510 C511 1.400 . S
C511 C510 1.400 . S
C511 C512 1.398 . S
C511 C517 1.491 . S
C512 H503 0.950 . S
C512 C511 1.398 . S
C512 C513 1.391 . S
C513 H501 0.950 . S
C513 C509 1.393 . S
C513 C512 1.391 . S
C514 H504 0.950 . S
C514 C515 1.386 . S
C514 C516 1.391 . S
C515 C514 1.386 . S
C515 C519 1.393 . S
C516 H505 0.950 . S
C516 C514 1.391 . S
C516 C517 1.400 . S
C517 C511 1.491 . S
C517 C516 1.400 . S
C517 C518 1.398 . S
C518 H506 0.950 . S
C518 C517 1.398 . S
C518 C519 1.391 . S
C519 H507 0.950 . S
C519 C515 1.393 . S
C519 C518 1.391 . S
H520 C528 0.950 . S
H521 C533 0.950 . S
H522 C530 0.950 . S
H523 C532 0.950 1_565 S
H524 C534 0.950 . S
H525 C536 0.950 . S
H526 C538 0.950 . S
H527 C539 0.950 . S
C528 H520 0.950 . S
C528 C529 1.386 . S
C528 C530 1.391 . S
C529 C528 1.386 . S
C529 C533 1.393 . S
C530 H522 0.950 . S
C530 C528 1.391 . S
C530 C531 1.400 . S
C531 C530 1.400 . S
C531 C532 1.398 . S
C531 C537 1.491 1_545 S
C532 H523 0.950 1_545 S
C532 C531 1.398 . S
C532 C533 1.391 . S
C533 H521 0.950 . S
C533 C529 1.393 . S
C533 C532 1.391 . S
C534 H524 0.950 . S
C534 C535 1.386 . S
C534 C536 1.391 . S
C535 C534 1.386 . S
C535 C539 1.393 . S
C536 H525 0.950 . S
C536 C534 1.391 . S
C536 C537 1.400 . S
C537 C531 1.491 1_565 S
C537 C536 1.400 . S
C537 C538 1.398 . S
C538 H526 0.950 . S
C538 C537 1.398 . S
C538 C539 1.391 . S
C539 H527 0.950 . S
C539 C535 1.393 . S
C539 C538 1.391 . S
H540 C548 0.950 . S
H541 C553 0.950 . S
H542 C550 0.950 . S
H543 C552 0.950 . S
H544 C554 0.950 . S
H545 C556 0.950 . S
H546 C558 0.950 . S
H547 C559 0.950 . S
C548 H540 0.950 . S
C548 C549 1.386 . S
C548 C550 1.391 . S
C549 C548 1.386 . S
C549 C553 1.393 . S
C550 H542 0.950 . S
C550 C548 1.391 . S
C550 C551 1.400 . S
C551 C550 1.400 . S
C551 C552 1.398 . S
C551 C557 1.491 . S
C552 H543 0.950 . S
C552 C551 1.398 . S
C552 C553 1.391 . S
C553 H541 0.950 . S
C553 C549 1.393 . S
C553 C552 1.391 . S
C554 H544 0.950 . S
C554 C555 1.386 . S
C554 C556 1.391 . S
C555 C554 1.386 . S
C555 C559 1.393 . S
C556 H545 0.950 . S
C556 C554 1.391 . S
C556 C557 1.400 . S
C557 C551 1.491 . S
C557 C556 1.400 . S
C557 C558 1.398 . S
C558 H546 0.950 . S
C558 C557 1.398 . S
C558 C559 1.391 . S
C559 H547 0.950 . S
C559 C555 1.393 . S
C559 C558 1.391 . S
H560 C568 0.950 . S
H561 C573 0.950 . S
H562 C570 0.950 . S
H563 C572 0.950 . S
H564 C574 0.950 . S
H565 C576 0.950 . S
H566 C578 0.950 . S
H567 C579 0.950 . S
C568 H560 0.950 . S
C568 C569 1.386 . S
C568 C570 1.391 . S
C569 C568 1.386 . S
C569 C573 1.393 . S
C570 H562 0.950 . S
C570 C568 1.391 . S
C570 C571 1.400 . S
C571 C570 1.400 . S
C571 C572 1.398 . S
C571 C577 1.491 . S
C572 H563 0.950 . S
C572 C571 1.398 . S
C572 C573 1.391 . S
C573 H561 0.950 . S
C573 C569 1.393 . S
C573 C572 1.391 . S
C574 H564 0.950 . S
C574 C575 1.386 . S
C574 C576 1.391 . S
C575 C574 1.386 . S
C575 C579 1.393 . S
C576 H565 0.950 . S
C576 C574 1.391 . S
C576 C577 1.400 . S
C577 C571 1.491 . S
C577 C576 1.400 . S
C577 C578 1.398 . S
C578 H566 0.950 . S
C578 C577 1.398 . S
C578 C579 1.391 . S
C579 H567 0.950 . S
C579 C575 1.393 . S
C579 C578 1.391 . S
H580 C588 0.950 . S
H581 C593 0.950 . S
H582 C590 0.950 . S
H583 C592 0.950 . S
H584 C594 0.950 . S
H585 C596 0.950 . S
H586 C598 0.950 . S
H587 C599 0.950 . S
C588 H580 0.950 . S
C588 C589 1.386 . S
C588 C590 1.391 . S
C589 C588 1.386 . S
C589 C593 1.393 . S
C590 H582 0.950 . S
C590 C588 1.391 . S
C590 C591 1.400 . S
C591 C590 1.400 . S
C591 C592 1.398 . S
C591 C597 1.491 . S
C592 H583 0.950 . S
C592 C591 1.398 . S
C592 C593 1.391 . S
C593 H581 0.950 . S
C593 C589 1.393 . S
C593 C592 1.391 . S
C594 H584 0.950 . S
C594 C595 1.386 . S
C594 C596 1.391 . S
C595 C594 1.386 . S
C595 C599 1.393 . S
C596 H585 0.950 . S
C596 C594 1.391 . S
C596 C597 1.400 . S
C597 C591 1.491 . S
C597 C596 1.400 . S
C597 C598 1.398 . S
C598 H586 0.950 . S
C598 C597 1.398 . S
C598 C599 1.391 . S
C599 H587 0.950 . S
C599 C595 1.393 . S
C599 C598 1.391 . S
H600 C608 0.950 . S
H601 C613 0.950 . S
H602 C610 0.950 . S
H603 C612 0.950 . S
H604 C614 0.950 . S
H605 C616 0.950 . S
H606 C618 0.950 . S
H607 C619 0.950 . S
C608 H600 0.950 . S
C608 C609 1.386 . S
C608 C610 1.391 . S
C609 C608 1.386 . S
C609 C613 1.393 . S
C610 H602 0.950 . S
C610 C608 1.391 . S
C610 C611 1.400 . S
C611 C610 1.400 . S
C611 C612 1.398 . S
C611 C617 1.491 . S
C612 H603 0.950 . S
C612 C611 1.398 . S
C612 C613 1.391 . S
C613 H601 0.950 . S
C613 C609 1.393 . S
C613 C612 1.391 . S
C614 H604 0.950 . S
C614 C615 1.386 . S
C614 C616 1.391 . S
C615 C614 1.386 . S
C615 C619 1.393 . S
C616 H605 0.950 . S
C616 C614 1.391 . S
C616 C617 1.400 . S
C617 C611 1.491 . S
C617 C616 1.400 . S
C617 C618 1.398 . S
C618 H606 0.950 . S
C618 C617 1.398 . S
C618 C619 1.391 . S
C619 H607 0.950 . S
C619 C615 1.393 . S
C619 C618 1.391 . S
H620 C628 0.950 . S
H621 C633 0.950 . S
H622 C630 0.950 . S
H623 C632 0.950 . S
H624 C634 0.950 . S
H625 C636 0.950 . S
H626 C638 0.950 . S
H627 C639 0.950 . S
C628 H620 0.950 . S
C628 C629 1.386 . S
C628 C630 1.391 . S
C629 C628 1.386 . S
C629 C633 1.393 . S
C630 H622 0.950 . S
C630 C628 1.391 . S
C630 C631 1.400 . S
C631 C630 1.400 . S
C631 C632 1.398 . S
C631 C637 1.491 . S
C632 H623 0.950 . S
C632 C631 1.398 . S
C632 C633 1.391 . S
C633 H621 0.950 . S
C633 C629 1.393 . S
C633 C632 1.391 . S
C634 H624 0.950 . S
C634 C635 1.386 . S
C634 C636 1.391 . S
C635 C634 1.386 . S
C635 C639 1.393 . S
C636 H625 0.950 . S
C636 C634 1.391 . S
C636 C637 1.400 . S
C637 C631 1.491 . S
C637 C636 1.400 . S
C637 C638 1.398 . S
C638 H626 0.950 . S
C638 C637 1.398 . S
C638 C639 1.391 . S
C639 H627 0.950 . S
C639 C635 1.393 . S
C639 C638 1.391 . S
H640 C648 0.950 . S
H641 C653 0.950 . S
H642 C650 0.950 . S
H643 C652 0.950 . S
H644 C654 0.950 . S
H645 C656 0.950 . S
H646 C658 0.950 . S
H647 C659 0.950 . S
C648 H640 0.950 . S
C648 C649 1.386 . S
C648 C650 1.391 . S
C649 C648 1.386 . S
C649 C653 1.393 . S
C650 H642 0.950 . S
C650 C648 1.391 . S
C650 C651 1.400 . S
C651 C650 1.400 . S
C651 C652 1.398 . S
C651 C657 1.491 . S
C652 H643 0.950 . S
C652 C651 1.398 . S
C652 C653 1.391 . S
C653 H641 0.950 . S
C653 C649 1.393 . S
C653 C652 1.391 . S
C654 H644 0.950 . S
C654 C655 1.386 . S
C654 C656 1.391 . S
C655 C654 1.386 . S
C655 C659 1.393 . S
C656 H645 0.950 . S
C656 C654 1.391 . S
C656 C657 1.400 . S
C657 C651 1.491 . S
C657 C656 1.400 . S
C657 C658 1.398 . S
C658 H646 0.950 . S
C658 C657 1.398 . S
C658 C659 1.391 . S
C659 H647 0.950 . S
C659 C655 1.393 . S
C659 C658 1.391 . S
H660 C668 0.950 . S
H661 C673 0.950 . S
H662 C670 0.950 . S
H663 C672 0.950 . S
H664 C674 0.950 . S
H665 C676 0.950 . S
H666 C678 0.950 1_565 S
H667 C679 0.950 . S
C668 H660 0.950 . S
C668 C669 1.386 . S
C668 C670 1.391 . S
C669 C668 1.386 . S
C669 C673 1.393 . S
C670 H662 0.950 . S
C670 C668 1.391 . S
C670 C671 1.400 . S
C671 C670 1.400 . S
C671 C672 1.398 . S
C671 C677 1.491 . S
C672 H663 0.950 . S
C672 C671 1.398 . S
C672 C673 1.391 . S
C673 H661 0.950 . S
C673 C669 1.393 . S
C673 C672 1.391 . S
C674 H664 0.950 . S
C674 C675 1.386 . S
C674 C676 1.391 1_545 S
C675 C674 1.386 . S
C675 C679 1.393 . S
C676 H665 0.950 . S
C676 C674 1.391 1_565 S
C676 C677 1.400 . S
C677 C671 1.491 . S
C677 C676 1.400 . S
C677 C678 1.398 1_565 S
C678 H666 0.950 1_545 S
C678 C677 1.398 1_545 S
C678 C679 1.391 . S
C679 H667 0.950 . S
C679 C675 1.393 . S
C679 C678 1.391 . S
H680 C688 0.950 . S
H681 C693 0.950 . S
H682 C690 0.950 1_545 S
H683 C692 0.950 . S
H684 C694 0.950 . S
H685 C696 0.950 . S
H686 C698 0.950 . S
H687 C699 0.950 . S
C688 H680 0.950 . S
C688 C689 1.386 . S
C688 C690 1.391 . S
C689 C688 1.386 . S
C689 C693 1.393 . S
C690 H682 0.950 1_565 S
C690 C688 1.391 . S
C690 C691 1.400 . S
C691 C690 1.400 . S
C691 C692 1.398 . S
C691 C697 1.491 . S
C692 H683 0.950 . S
C692 C691 1.398 . S
C692 C693 1.391 . S
C693 H681 0.950 . S
C693 C689 1.393 . S
C693 C692 1.391 . S
C694 H684 0.950 . S
C694 C695 1.386 1_565 S
C694 C696 1.391 . S
C695 C694 1.386 1_545 S
C695 C699 1.393 . S
C696 H685 0.950 . S
C696 C694 1.391 . S
C696 C697 1.400 . S
C697 C691 1.491 . S
C697 C696 1.400 . S
C697 C698 1.398 1_565 S
C698 H686 0.950 . S
C698 C697 1.398 1_545 S
C698 C699 1.391 . S
C699 H687 0.950 . S
C699 C695 1.393 . S
C699 C698 1.391 . S
H700 C708 0.950 . S
H701 C713 0.950 . S
H702 C710 0.950 . S
H703 C712 0.950 . S
H704 C714 0.950 . S
H705 C716 0.950 . S
H706 C718 0.950 . S
H707 C719 0.950 . S
C708 H700 0.950 . S
C708 C709 1.386 . S
C708 C710 1.391 . S
C709 C708 1.386 . S
C709 C713 1.393 . S
C710 H702 0.950 . S
C710 C708 1.391 . S
C710 C711 1.400 . S
C711 C710 1.400 . S
C711 C712 1.398 . S
C711 C717 1.491 . S
C712 H703 0.950 . S
C712 C711 1.398 . S
C712 C713 1.391 . S
C713 H701 0.950 . S
C713 C709 1.393 . S
C713 C712 1.391 . S
C714 H704 0.950 . S
C714 C715 1.386 . S
C714 C716 1.391 . S
C715 C714 1.386 . S
C715 C719 1.393 . S
C716 H705 0.950 . S
C716 C714 1.391 . S
C716 C717 1.400 . S
C717 C711 1.491 . S
C717 C716 1.400 . S
C717 C718 1.398 . S
C718 H706 0.950 . S
C718 C717 1.398 . S
C718 C719 1.391 . S
C719 H707 0.950 . S
C719 C715 1.393 . S
C719 C718 1.391 . S
H720 C728 0.950 . S
H721 C733 0.950 . S
H722 C730 0.950 . S
H723 C732 0.950 . S
H724 C734 0.950 . S
H725 C736 0.950 . S
H726 C738 0.950 . S
H727 C739 0.950 . S
C728 H720 0.950 . S
C728 C729 1.386 . S
C728 C730 1.391 . S
C729 C728 1.386 . S
C729 C733 1.393 . S
C730 H722 0.950 . S
C730 C728 1.391 . S
C730 C731 1.400 . S
C731 C730 1.400 . S
C731 C732 1.398 . S
C731 C737 1.491 . S
C732 H723 0.950 . S
C732 C731 1.398 . S
C732 C733 1.391 . S
C733 H721 0.950 . S
C733 C729 1.393 . S
C733 C732 1.391 . S
C734 H724 0.950 . S
C734 C735 1.386 . S
C734 C736 1.391 . S
C735 C734 1.386 . S
C735 C739 1.393 . S
C736 H725 0.950 . S
C736 C734 1.391 . S
C736 C737 1.400 . S
C737 C731 1.491 . S
C737 C736 1.400 . S
C737 C738 1.398 . S
C738 H726 0.950 . S
C738 C737 1.398 . S
C738 C739 1.391 . S
C739 H727 0.950 . S
C739 C735 1.393 . S
C739 C738 1.391 . S
H740 C748 0.950 . S
H741 C753 0.950 . S
H742 C750 0.950 . S
H743 C752 0.950 . S
H744 C754 0.950 . S
H745 C756 0.950 . S
H746 C758 0.950 . S
H747 C759 0.950 . S
C748 H740 0.950 . S
C748 C749 1.386 . S
C748 C750 1.391 . S
C749 C748 1.386 . S
C749 C753 1.393 . S
C750 H742 0.950 . S
C750 C748 1.391 . S
C750 C751 1.400 . S
C751 C750 1.400 . S
C751 C752 1.398 . S
C751 C757 1.491 . S
C752 H743 0.950 . S
C752 C751 1.398 . S
C752 C753 1.391 . S
C753 H741 0.950 . S
C753 C749 1.393 . S
C753 C752 1.391 . S
C754 H744 0.950 . S
C754 C755 1.386 . S
C754 C756 1.391 . S
C755 C754 1.386 . S
C755 C759 1.393 . S
C756 H745 0.950 . S
C756 C754 1.391 . S
C756 C757 1.400 . S
C757 C751 1.491 . S
C757 C756 1.400 . S
C757 C758 1.398 . S
C758 H746 0.950 . S
C758 C757 1.398 . S
C758 C759 1.391 . S
C759 H747 0.950 . S
C759 C755 1.393 . S
C759 C758 1.391 . S
H760 C768 0.950 . S
H761 C773 0.950 1_545 S
H762 C770 0.950 . S
H763 C772 0.950 . S
H764 C774 0.950 . S
H765 C776 0.950 . S
H766 C778 0.950 . S
H767 C779 0.950 . S
C768 H760 0.950 . S
C768 C769 1.386 . S
C768 C770 1.391 . S
C769 C768 1.386 . S
C769 C773 1.393 . S
C770 H762 0.950 . S
C770 C768 1.391 . S
C770 C771 1.400 . S
C771 C770 1.400 . S
C771 C772 1.398 . S
C771 C777 1.491 . S
C772 H763 0.950 . S
C772 C771 1.398 . S
C772 C773 1.391 . S
C773 H761 0.950 1_565 S
C773 C769 1.393 . S
C773 C772 1.391 . S
C774 H764 0.950 . S
C774 C775 1.386 . S
C774 C776 1.391 . S
C775 C774 1.386 . S
C775 C779 1.393 . S
C776 H765 0.950 . S
C776 C774 1.391 . S
C776 C777 1.400 . S
C777 C771 1.491 . S
C777 C776 1.400 . S
C777 C778 1.398 . S
C778 H766 0.950 . S
C778 C777 1.398 . S
C778 C779 1.391 . S
C779 H767 0.950 . S
C779 C775 1.393 . S
C779 C778 1.391 . S
H780 C788 0.950 . S
H781 C793 0.950 . S
H782 C790 0.950 . S
H783 C792 0.950 . S
H784 C794 0.950 . S
H785 C796 0.950 . S
H786 C798 0.950 . S
H787 C799 0.950 . S
C788 H780 0.950 . S
C788 C789 1.386 . S
C788 C790 1.391 . S
C789 C788 1.386 . S
C789 C793 1.393 . S
C790 H782 0.950 . S
C790 C788 1.391 . S
C790 C791 1.400 . S
C791 C790 1.400 . S
C791 C792 1.398 . S
C791 C797 1.491 . S
C792 H783 0.950 . S
C792 C791 1.398 . S
C792 C793 1.391 . S
C793 H781 0.950 . S
C793 C789 1.393 . S
C793 C792 1.391 . S
C794 H784 0.950 . S
C794 C795 1.386 . S
C794 C796 1.391 . S
C795 C794 1.386 . S
C795 C799 1.393 . S
C796 H785 0.950 . S
C796 C794 1.391 . S
C796 C797 1.400 . S
C797 C791 1.491 . S
C797 C796 1.400 . S
C797 C798 1.398 . S
C798 H786 0.950 . S
C798 C797 1.398 . S
C798 C799 1.391 . S
C799 H787 0.950 . S
C799 C795 1.393 . S
C799 C798 1.391 . S
H800 C808 0.950 . S
H801 C813 0.955 . S
H802 C810 0.950 . S
H803 C812 0.950 . S
H804 C814 0.950 . S
H805 C816 0.950 . S
H806 C818 0.950 . S
H807 C819 0.950 . S
C808 H800 0.950 . S
C808 C809 1.386 . S
C808 C810 1.391 . S
C809 C808 1.386 . S
C809 C813 1.393 . S
C810 H802 0.950 . S
C810 C808 1.391 . S
C810 C811 1.400 . S
C811 C810 1.400 . S
C811 C812 1.398 . S
C811 C817 1.491 . S
C812 H803 0.950 . S
C812 C811 1.398 . S
C812 C813 1.391 . S
C813 H801 0.955 . S
C813 C809 1.393 . S
C813 C812 1.391 . S
C814 H804 0.950 . S
C814 C815 1.386 . S
C814 C816 1.391 . S
C815 C814 1.386 . S
C815 C819 1.393 . S
C816 H805 0.950 . S
C816 C814 1.391 . S
C816 C817 1.400 . S
C817 C811 1.491 . S
C817 C816 1.400 . S
C817 C818 1.398 . S
C818 H806 0.950 . S
C818 C817 1.398 . S
C818 C819 1.391 . S
C819 H807 0.950 . S
C819 C815 1.393 . S
C819 C818 1.391 . S
H820 C828 0.950 . S
H821 C833 0.950 . S
H822 C830 0.950 . S
H823 C832 0.950 . S
H824 C834 0.950 . S
H825 C836 0.950 . S
H826 C838 0.950 . S
H827 C839 0.950 . S
C828 H820 0.950 . S
C828 C829 1.386 . S
C828 C830 1.391 . S
C829 C828 1.386 . S
C829 C833 1.393 . S
C830 H822 0.950 . S
C830 C828 1.391 . S
C830 C831 1.400 . S
C831 C830 1.400 . S
C831 C832 1.398 . S
C831 C837 1.491 . S
C832 H823 0.950 . S
C832 C831 1.398 . S
C832 C833 1.391 . S
C833 H821 0.950 . S
C833 C829 1.393 . S
C833 C832 1.391 . S
C834 H824 0.950 . S
C834 C835 1.386 . S
C834 C836 1.391 . S
C835 C834 1.386 . S
C835 C839 1.393 . S
C836 H825 0.950 . S
C836 C834 1.391 . S
C836 C837 1.400 . S
C837 C831 1.491 . S
C837 C836 1.400 . S
C837 C838 1.398 . S
C838 H826 0.950 . S
C838 C837 1.398 . S
C838 C839 1.391 . S
C839 H827 0.950 . S
C839 C835 1.393 . S
C839 C838 1.391 . S
H840 C848 0.950 . S
H841 C853 0.950 . S
H842 C850 0.950 . S
H843 C852 0.950 . S
H844 C854 0.950 . S
H845 C856 0.950 . S
H846 C858 0.950 . S
H847 C859 0.950 . S
C848 H840 0.950 . S
C848 C849 1.386 . S
C848 C850 1.391 . S
C849 C848 1.386 . S
C849 C853 1.393 . S
C850 H842 0.950 . S
C850 C848 1.391 . S
C850 C851 1.400 . S
C851 C850 1.400 . S
C851 C852 1.398 . S
C851 C857 1.491 . S
C852 H843 0.950 . S
C852 C851 1.398 . S
C852 C853 1.391 . S
C853 H841 0.950 . S
C853 C849 1.393 . S
C853 C852 1.391 . S
C854 H844 0.950 . S
C854 C855 1.386 . S
C854 C856 1.391 . S
C855 C854 1.386 . S
C855 C859 1.393 . S
C856 H845 0.950 . S
C856 C854 1.391 . S
C856 C857 1.400 . S
C857 C851 1.491 . S
C857 C856 1.400 . S
C857 C858 1.398 . S
C858 H846 0.950 . S
C858 C857 1.398 . S
C858 C859 1.391 . S
C859 H847 0.950 . S
C859 C855 1.393 . S
C859 C858 1.391 . S
H860 C868 0.950 . S
H861 C873 0.950 . S
H862 C870 0.950 . S
H863 C872 0.950 . S
H864 C874 0.950 . S
H865 C876 0.950 . S
H866 C878 0.950 . S
H867 C879 0.950 . S
C868 H860 0.950 . S
C868 C869 1.386 . S
C868 C870 1.391 . S
C869 C868 1.386 . S
C869 C873 1.393 . S
C870 H862 0.950 . S
C870 C868 1.391 . S
C870 C871 1.400 . S
C871 C870 1.400 . S
C871 C872 1.398 . S
C871 C877 1.491 1_565 S
C872 H863 0.950 . S
C872 C871 1.398 . S
C872 C873 1.391 . S
C873 H861 0.950 . S
C873 C869 1.393 . S
C873 C872 1.391 . S
C874 H864 0.950 . S
C874 C875 1.386 . S
C874 C876 1.391 . S
C875 C874 1.386 . S
C875 C879 1.393 . S
C876 H865 0.950 . S
C876 C874 1.391 . S
C876 C877 1.400 . S
C877 C871 1.491 1_545 S
C877 C876 1.400 . S
C877 C878 1.398 . S
C878 H866 0.950 . S
C878 C877 1.398 . S
C878 C879 1.391 . S
C879 H867 0.950 . S
C879 C875 1.393 . S
C879 C878 1.391 . S
H880 C888 0.950 . S
H881 C893 0.950 . S
H882 C890 0.950 . S
H883 C892 0.950 . S
H884 C894 0.950 . S
H885 C896 0.950 . S
H886 C898 0.950 . S
H887 C899 0.950 . S
C888 H880 0.950 . S
C888 C889 1.386 . S
C888 C890 1.391 . S
C889 C888 1.386 . S
C889 C893 1.393 . S
C890 H882 0.950 . S
C890 C888 1.391 . S
C890 C891 1.400 . S
C891 C890 1.400 . S
C891 C892 1.398 . S
C891 C897 1.491 1_655 S
C892 H883 0.950 . S
C892 C891 1.398 . S
C892 C893 1.391 . S
C893 H881 0.950 . S
C893 C889 1.393 . S
C893 C892 1.391 . S
C894 H884 0.950 . S
C894 C895 1.386 . S
C894 C896 1.391 . S
C895 C894 1.386 . S
C895 C899 1.393 . S
C896 H885 0.950 . S
C896 C894 1.391 . S
C896 C897 1.400 . S
C897 C891 1.491 1_455 S
C897 C896 1.400 . S
C897 C898 1.398 . S
C898 H886 0.950 . S
C898 C897 1.398 . S
C898 C899 1.391 . S
C899 H887 0.950 . S
C899 C895 1.393 . S
C899 C898 1.391 . S
C369 C65 0.551 . S
C375 C4 0.628 . S
C389 C100 3.358 . S
C395 C71 3.390 . S
C409 C84 0.973 . S
C415 C20 0.973 . S
C429 C111 3.018 . S
C435 C60 3.000 . S
C449 C105 2.002 . S
C455 C31 2.001 . S
C469 C25 0.591 . S
C475 C44 0.707 . S
C489 C124 2.819 . S
C495 C180 2.850 . S
C509 C220 0.799 . S
C515 C164 0.807 . S
C529 C204 0.831 . S
C535 C140 0.832 . S
C549 C185 0.354 . S
C555 C231 0.311 . S
C569 C225 2.074 . S
C575 C151 2.072 . S
C589 C191 2.307 . S
C595 C145 2.316 . S
C609 C305 0.533 . S
C615 C244 0.621 . S
C629 C311 3.426 . S
C635 C340 3.394 . S
C649 C324 0.990 . S
C655 C260 0.991 . S
C669 C351 2.957 . S
C675 C300 2.937 . S
C689 C345 2.027 . S
C695 C271 2.012 . S
C709 C265 0.563 . S
C715 C284 0.676 . S
C729 C202 2.324 . S
C735 C23 2.607 . S
C749 C122 2.036 . S
C755 C42 1.995 . S
C769 C103 2.993 . S
C775 C162 2.778 . S
C789 C82 2.345 . S
C795 C263 2.609 . S
C809 C2 1.996 . S
C815 C282 1.936 . S
C829 C343 2.976 . S
C835 C63 2.990 . S
C849 C143 2.662 . S
C855 C322 2.382 . S
C869 C183 2.151 . S
C875 C242 2.007 . S
C889 C303 2.953 . S
C895 C223 2.932 . S
