# Generated by pormake.
# Topology can, (4)-cn, num edge types: 1
# Building blocks:
#     Node 0, Type 0, BuildingBlock: TATPOV_clean_sbu_0, # of connection points: 4
#     Node 1, Type 0, BuildingBlock: TATPOV_clean_sbu_0, # of connection points: 4
#     Node 2, Type 0, BuildingBlock: TATPOV_clean_sbu_0, # of connection points: 4
#     Node 3, Type 0, BuildingBlock: TATPOV_clean_sbu_0, # of connection points: 4
#     Node 4, Type 0, BuildingBlock: TATPOV_clean_sbu_0, # of connection points: 4
#     Node 5, Type 0, BuildingBlock: TATPOV_clean_sbu_0, # of connection points: 4
#     Node 6, Type 0, BuildingBlock: TATPOV_clean_sbu_0, # of connection points: 4
#     Node 7, Type 0, BuildingBlock: TATPOV_clean_sbu_0, # of connection points: 4
#     Node 8, Type 0, BuildingBlock: TATPOV_clean_sbu_0, # of connection points: 4
#     Node 9, Type 0, BuildingBlock: TATPOV_clean_sbu_0, # of connection points: 4
#     Node 10, Type 0, BuildingBlock: TATPOV_clean_sbu_0, # of connection points: 4
#     Node 11, Type 0, BuildingBlock: TATPOV_clean_sbu_0, # of connection points: 4
#     Edge 12, Type (0, 0), BuildingBlock: OJICUG_clean_linker_0, # of connection points: 2
#     Edge 13, Type (0, 0), BuildingBlock: OJICUG_clean_linker_0, # of connection points: 2
#     Edge 14, Type (0, 0), BuildingBlock: OJICUG_clean_linker_0, # of connection points: 2
#     Edge 15, Type (0, 0), BuildingBlock: OJICUG_clean_linker_0, # of connection points: 2
#     Edge 16, Type (0, 0), BuildingBlock: OJICUG_clean_linker_0, # of connection points: 2
#     Edge 17, Type (0, 0), BuildingBlock: OJICUG_clean_linker_0, # of connection points: 2
#     Edge 18, Type (0, 0), BuildingBlock: OJICUG_clean_linker_0, # of connection points: 2
#     Edge 19, Type (0, 0), BuildingBlock: OJICUG_clean_linker_0, # of connection points: 2
#     Edge 20, Type (0, 0), BuildingBlock: OJICUG_clean_linker_0, # of connection points: 2
#     Edge 21, Type (0, 0), BuildingBlock: OJICUG_clean_linker_0, # of connection points: 2
#     Edge 22, Type (0, 0), BuildingBlock: OJICUG_clean_linker_0, # of connection points: 2
#     Edge 23, Type (0, 0), BuildingBlock: OJICUG_clean_linker_0, # of connection points: 2
#     Edge 24, Type (0, 0), BuildingBlock: OJICUG_clean_linker_0, # of connection points: 2
#     Edge 25, Type (0, 0), BuildingBlock: OJICUG_clean_linker_0, # of connection points: 2
#     Edge 26, Type (0, 0), BuildingBlock: OJICUG_clean_linker_0, # of connection points: 2
#     Edge 27, Type (0, 0), BuildingBlock: OJICUG_clean_linker_0, # of connection points: 2
#     Edge 28, Type (0, 0), BuildingBlock: OJICUG_clean_linker_0, # of connection points: 2
#     Edge 29, Type (0, 0), BuildingBlock: OJICUG_clean_linker_0, # of connection points: 2
#     Edge 30, Type (0, 0), BuildingBlock: OJICUG_clean_linker_0, # of connection points: 2
#     Edge 31, Type (0, 0), BuildingBlock: OJICUG_clean_linker_0, # of connection points: 2
#     Edge 32, Type (0, 0), BuildingBlock: OJICUG_clean_linker_0, # of connection points: 2
#     Edge 33, Type (0, 0), BuildingBlock: OJICUG_clean_linker_0, # of connection points: 2
#     Edge 34, Type (0, 0), BuildingBlock: OJICUG_clean_linker_0, # of connection points: 2
#     Edge 35, Type (0, 0), BuildingBlock: OJICUG_clean_linker_0, # of connection points: 2
# Relax obj value: 0.055
# Max RMSD: 0.074
# Mean RMSD: 0.074
data_MOF--net-can--node1-TATPOV_clean_sbu_0--edge1-OJICUG_clean_linker_0
_symmetry_space_group_name_H-M    P1
_symmetry_Int_Tables_number       1
_symmetry_cell_setting            triclinic
loop_
_symmetry_equiv_pos_as_xyz
'x, y, z'
_cell_length_a     40.634135
_cell_length_b     40.832532
_cell_length_c     20.737121
_cell_angle_alpha  90.199744
_cell_angle_beta   89.504671
_cell_angle_gamma 120.03029
loop_
_atom_site_label
_atom_site_type_symbol
_atom_site_fract_x
_atom_site_fract_y
_atom_site_fract_z
_atom_type_partial_charge
Zn0 Zn 1.02014 0.37926 0.22477 0.0
Zn1 Zn 0.09482 0.41171 0.22475 0.0
O2 O 0.07532 0.38202 0.31133 0.0
O3 O 1.01288 0.35197 0.30787 0.0
O4 O 0.15073 0.42638 0.22038 0.0
O5 O 1.013 0.3531 0.14026 0.0
O6 O 0.07543 0.38372 0.13752 0.0
C7 C 0.04305 0.35996 0.33749 0.0
C8 C 0.0615 0.46294 0.22714 0.0
O9 O 0.09187 0.46093 0.2267 0.0
O10 O 1.02934 0.43285 0.22641 0.0
C11 C 0.17259 0.43554 0.26886 0.0
O12 O 0.15962 0.43823 0.32572 0.0
C13 C 0.04365 0.362 0.11057 0.0
Zn14 Zn 0.66072 1.0043 0.70921 0.0
Zn15 Zn 0.70392 0.07888 0.70946 0.0
O16 O 0.71352 0.06045 0.79735 0.0
O17 O 0.6796 0.99831 0.79437 0.0
O18 O 0.74488 0.1345 0.7017 0.0
O19 O 0.68141 0.99621 0.62677 0.0
O20 O 0.71353 0.05829 0.6241 0.0
C21 C 0.70217 0.02831 0.82398 0.0
C22 C 0.61902 0.04632 0.70674 0.0
O23 O 0.65165 0.07621 0.70874 0.0
O24 O 0.6165 1.01406 0.70623 0.0
C25 C 0.76491 0.15596 0.74739 0.0
O26 O 0.75782 0.143 0.80677 0.0
C27 C 0.70392 0.02652 0.59761 0.0
Zn28 Zn 0.67922 0.64547 0.19948 0.0
Zn29 Zn 0.64905 0.68964 0.19834 0.0
O30 O 0.67886 0.70091 0.28476 0.0
O31 O 0.70751 0.6673 0.28102 0.0
O32 O 0.63532 0.73115 0.18949 0.0
O33 O 0.70513 0.66192 0.11378 0.0
O34 O 0.67745 0.69632 0.11149 0.0
C35 C 0.70059 0.6904 0.31042 0.0
C36 C 0.59533 0.60548 0.20488 0.0
O37 O 0.59869 0.63825 0.2022 0.0
O38 O 0.62481 0.60224 0.20449 0.0
C39 C 0.63254 0.75071 0.23491 0.0
O40 O 0.63641 0.74292 0.29482 0.0
C41 C 0.69794 0.68461 0.08427 0.0
Zn42 Zn 0.05207 0.66514 0.72248 0.0
Zn43 Zn 0.97736 0.63288 0.72557 0.0
O44 O 0.99714 0.6612 0.81301 0.0
O45 O 0.05957 0.69065 0.80766 0.0
O46 O 0.92141 0.6184 0.72524 0.0
O47 O 0.05918 0.69313 0.64011 0.0
O48 O 0.99677 0.66236 0.63928 0.0
C49 C 1.02952 0.68253 0.83868 0.0
C50 C 1.0104 0.58144 0.72052 0.0
O51 O 0.98012 0.58356 0.72353 0.0
O52 O 0.04261 0.61148 0.71928 0.0
C53 C 0.90188 0.60715 0.67384 0.0
O54 O 0.91738 0.60191 0.62185 0.0
C55 C 1.02849 0.68462 0.61187 0.0
Zn56 Zn 0.41121 0.04068 0.21476 0.0
Zn57 Zn 0.36803 0.96615 0.21377 0.0
O58 O 0.35644 0.98426 0.30089 0.0
O59 O 0.38932 0.04643 0.29762 0.0
O60 O 0.32715 0.91062 0.20506 0.0
O61 O 0.39358 0.0491 0.13005 0.0
O62 O 0.36041 0.98704 0.12767 0.0
C63 C 0.36658 1.0163 0.32706 0.0
C64 C 0.45289 0.99864 0.21754 0.0
O65 O 0.42025 0.96874 0.21596 0.0
O66 O 0.45542 0.0309 0.21734 0.0
C67 C 0.30692 0.88864 0.25045 0.0
O68 O 0.3137 0.90093 0.31019 0.0
C69 C 0.37124 1.01893 0.10073 0.0
Zn70 Zn 0.39352 0.39962 0.69538 0.0
Zn71 Zn 0.42391 0.35559 0.6932 0.0
O72 O 0.39669 0.34637 0.78259 0.0
O73 O 0.36898 0.38087 0.78142 0.0
O74 O 0.43771 0.31408 0.68409 0.0
O75 O 0.36396 0.37991 0.6142 0.0
O76 O 0.39294 0.34676 0.60934 0.0
C77 C 0.37631 0.35811 0.81041 0.0
C78 C 0.47741 0.43987 0.68957 0.0
O79 O 0.47416 0.40711 0.69101 0.0
O80 O 0.44787 0.44299 0.69053 0.0
C81 C 0.44072 0.29501 0.72978 0.0
O82 O 0.43716 0.30346 0.78965 0.0
C83 C 0.37096 0.35706 0.58426 0.0
Zn84 Zn 0.67996 0.04133 0.21368 0.0
Zn85 Zn 0.64849 0.96684 0.21363 0.0
O86 O 0.67649 0.98519 0.12497 0.0
O87 O 0.70499 0.04733 0.12793 0.0
O88 O 0.63397 0.91135 0.22174 0.0
O89 O 0.70875 0.04994 0.29544 0.0
O90 O 0.67868 0.98787 0.29835 0.0
C91 C 0.69739 1.01733 0.09809 0.0
C92 C 0.59596 0.99895 0.21759 0.0
O93 O 0.59869 0.96914 0.21544 0.0
O94 O 0.6258 0.03127 0.21775 0.0
C95 C 0.63311 0.88989 0.17629 0.0
O96 O 0.63948 0.90268 0.1168 0.0
C97 C 0.70085 1.01971 0.32456 0.0
Zn98 Zn 0.66331 0.6647 0.69554 0.0
Zn99 Zn 0.70604 0.63306 0.69462 0.0
O100 O 0.71711 0.66319 0.60839 0.0
O101 O 0.68466 0.69302 0.61347 0.0
O102 O 0.74742 0.61877 0.69933 0.0
O103 O 0.68086 0.69001 0.7809 0.0
O104 O 0.71369 0.66062 0.78221 0.0
C105 C 0.70711 0.68539 0.58316 0.0
C106 C 0.62133 0.58112 0.69041 0.0
O107 O 0.65389 0.58353 0.69174 0.0
O108 O 0.61901 0.61098 0.69158 0.0
C109 C 0.76069 0.60934 0.65149 0.0
O110 O 0.74573 0.60626 0.59431 0.0
C111 C 0.70288 0.68163 0.80993 0.0
Zn112 Zn 1.01532 0.64415 0.22668 0.0
Zn113 Zn 0.09016 0.68817 0.22749 0.0
O114 O 0.07244 0.6982 0.13932 0.0
O115 O 1.01 0.66405 0.14202 0.0
O116 O 0.1457 0.72942 0.23643 0.0
O117 O 1.00579 0.66321 0.30954 0.0
O118 O 0.06811 0.69669 0.31235 0.0
C119 C 0.04029 0.6869 0.1126 0.0
C120 C 0.05867 0.60379 0.22832 0.0
O121 O 0.08838 0.63655 0.22776 0.0
O122 O 1.026 0.6007 0.22827 0.0
C123 C 0.1681 0.74925 0.19109 0.0
O124 O 0.1563 0.74184 0.13121 0.0
C125 C 1.03582 0.68614 0.33869 0.0
Zn126 Zn 0.392 1.00375 0.71189 0.0
Zn127 Zn 0.42347 0.07819 0.7122 0.0
O128 O 0.39364 0.05935 0.62588 0.0
O129 O 0.3643 0.9972 0.62966 0.0
O130 O 0.43804 0.13372 0.71986 0.0
O131 O 0.36585 0.99559 0.7972 0.0
O132 O 0.39512 0.05766 0.79927 0.0
C133 C 0.37173 0.02719 0.60012 0.0
C134 C 0.47599 0.04611 0.70755 0.0
O135 O 0.47328 0.07594 0.70902 0.0
O136 O 0.44615 1.01379 0.70831 0.0
C137 C 0.43972 0.15514 0.67393 0.0
O138 O 0.43421 0.14221 0.61458 0.0
C139 C 0.37395 0.02583 0.82662 0.0
Zn140 Zn 0.40979 0.38064 0.20096 0.0
Zn141 Zn 0.36685 0.41211 0.19937 0.0
O142 O 0.3591 0.3843 0.11145 0.0
O143 O 0.39289 0.35587 0.11511 0.0
O144 O 0.32525 0.42628 0.19973 0.0
O145 O 0.38791 0.35176 0.28251 0.0
O146 O 0.35605 0.38214 0.28521 0.0
C147 C 0.37074 0.36359 0.08489 0.0
C148 C 0.45149 0.46424 0.20544 0.0
O149 O 0.41893 0.46173 0.20213 0.0
O150 O 0.4539 0.43443 0.20595 0.0
C151 C 0.31596 0.43701 0.25106 0.0
O152 O 0.33564 0.44175 0.30368 0.0
C153 C 0.36541 0.35981 0.31158 0.0
Zn154 Zn 0.05679 0.4005 0.72238 0.0
Zn155 Zn 0.98203 0.35633 0.72542 0.0
O156 O 1.00022 0.34527 0.63787 0.0
O157 O 0.06266 0.37904 0.63939 0.0
O158 O 0.92652 0.31496 0.73514 0.0
O159 O 0.06606 0.38321 0.80676 0.0
O160 O 1.00377 0.34899 0.81081 0.0
C161 C 1.03242 0.35593 0.61086 0.0
C162 C 1.01319 0.44061 0.72097 0.0
O163 O 0.98356 0.40782 0.72332 0.0
O164 O 0.04591 0.44381 0.72022 0.0
C165 C 0.90415 0.2959 0.68972 0.0
O166 O 0.916 0.3043 0.6297 0.0
C167 C 1.03607 0.36037 0.8368 0.0
C168 C 1.00706 0.33234 0.01001 0.0
C169 C 0.04229 0.35271 0.04122 0.0
H170 H 0.97741 0.31834 0.92041 0.0
C171 C 0.07574 0.36915 0.00376 0.0
H172 H 0.98073 0.31885 0.03743 0.0
C173 C 0.07381 0.3688 0.9365 0.0
C174 C 0.03839 0.35202 0.90549 0.0
H175 H 0.10336 0.38466 0.02622 0.0
H176 H 0.10005 0.38398 0.90915 0.0
C177 C 1.00513 0.33202 0.94278 0.0
C178 C 0.73101 0.05654 0.42478 0.0
C179 C 0.71154 1.02144 0.39308 0.0
H180 H 0.74443 0.08577 0.51499 0.0
C181 C 0.69691 0.98813 0.42981 0.0
H182 H 0.74317 0.08279 0.39788 0.0
C183 C 0.69772 0.98986 0.4971 0.0
C184 C 0.71313 0.02494 0.52885 0.0
H185 H 0.68223 0.96062 0.40691 0.0
H186 H 0.68366 0.9636 0.52402 0.0
C187 C 0.73178 0.05828 0.49207 0.0
C188 C 0.72679 0.67583 -0.01677 0.0
C189 C 0.70806 0.69243 0.01507 0.0
H190 H 0.74039 0.65982 0.89292 0.0
C191 C 0.69421 0.71174 -0.02163 0.0
H192 H 0.73826 0.66114 0.01009 0.0
C193 C 0.69549 0.71101 0.91107 0.0
C194 C 0.71064 0.69096 0.8792 0.0
H195 H 0.68003 0.72523 0.00135 0.0
H196 H 0.68229 0.72404 0.88421 0.0
C197 C 0.72807 0.6751 0.91592 0.0
C198 C 0.06678 0.71538 0.44351 0.0
C199 C 1.0335 0.69521 0.40718 0.0
H200 H 0.09127 0.72856 0.53743 0.0
C201 C 0.9981 0.67859 0.43922 0.0
H202 H 0.09449 0.729 0.42033 0.0
C203 C 0.99623 0.67828 0.50654 0.0
C204 C 1.02972 0.69461 0.54298 0.0
H205 H 0.97185 0.66332 0.41262 0.0
H206 H 0.96863 0.66273 0.52978 0.0
C207 C 0.06491 0.71511 0.5108 0.0
C208 C 0.37954 0.05753 0.93274 0.0
C209 C 0.36431 0.0242 0.89599 0.0
H210 H 0.39315 0.08203 0.02685 0.0
C211 C 0.34482 0.98911 0.9279 0.0
H212 H 0.39434 0.08503 0.90971 0.0
C213 C 0.34418 0.98736 -0.00481 0.0
C214 C 0.363 1.02067 0.03182 0.0
H215 H 0.33229 0.96286 0.90102 0.0
H216 H 0.33122 0.95985 0.01815 0.0
C217 C 0.37888 0.05578 3e-05 0.0
C218 C 0.33904 0.36525 0.41803 0.0
C219 C 0.35631 0.34927 0.38038 0.0
H220 H 0.32952 0.37968 0.5128 0.0
C221 C 0.37092 0.32868 0.41132 0.0
H222 H 0.32705 0.38086 0.39577 0.0
C223 C 0.37247 0.3281 0.47854 0.0
C224 C 0.35936 0.34802 0.51604 0.0
H225 H 0.38389 0.31546 0.38373 0.0
H226 H 0.38658 0.3145 0.50071 0.0
C227 C 0.34053 0.36461 0.48529 0.0
C228 C 0.9995 0.67846 0.9466 0.0
C229 C 1.03234 0.69262 0.90796 0.0
H230 H 0.97629 0.6663 0.04207 0.0
C231 C 0.06813 0.7116 0.9379 0.0
H232 H 0.97152 0.6641 0.92519 0.0
C233 C 0.07094 0.71274 0.00511 0.0
C234 C 0.038 0.69501 0.04368 0.0
H235 H 0.0941 0.72333 0.90955 0.0
H236 H 0.09887 0.72514 0.02651 0.0
C237 C 1.0023 0.67971 0.01378 0.0
C238 C 0.37334 0.05431 0.42613 0.0
C239 C 0.35781 1.01874 0.39586 0.0
H240 H 0.38958 0.08503 0.51498 0.0
C241 C 0.33965 0.98602 0.43414 0.0
H242 H 0.38703 0.08016 0.39806 0.0
C243 C 0.34094 0.98888 0.50137 0.0
C244 C 0.36056 0.0245 0.53158 0.0
H245 H 0.32697 0.95819 0.41247 0.0
H246 H 0.32906 0.96305 0.52941 0.0
C247 C 0.37479 0.05717 0.49334 0.0
C248 C 0.38184 0.3332 0.91767 0.0
C249 C 0.36636 0.35052 0.87979 0.0
H250 H 0.39481 0.32318 0.01268 0.0
C251 C 0.34607 0.36586 0.91057 0.0
H252 H 0.39733 0.32082 0.89559 0.0
C253 C 0.34475 0.3674 -0.0222 0.0
C254 C 0.36359 0.35354 0.01565 0.0
H255 H 0.3333 0.37899 0.88282 0.0
H256 H 0.33111 0.3817 -0.00018 0.0
C257 C 0.38043 0.33466 -0.01505 0.0
C258 C 0.07053 0.36257 0.51129 0.0
C259 C 1.03481 0.34711 0.54218 0.0
H260 H 0.10127 0.37841 0.42184 0.0
C261 C 1.00188 0.32882 0.50456 0.0
H262 H 0.09654 0.37637 0.53885 0.0
C263 C 1.00466 0.32982 0.43728 0.0
C264 C 0.04041 0.34927 0.40637 0.0
H265 H 0.97394 0.31621 0.52674 0.0
H266 H 0.97867 0.31781 0.40969 0.0
C267 C 0.07331 0.36372 0.44403 0.0
C268 C 0.72835 0.05838 0.93105 0.0
C269 C 0.70998 0.02569 0.89291 0.0
H270 H 0.73947 0.08136 0.02629 0.0
C271 C 0.69394 0.99008 0.92323 0.0
H272 H 0.74135 0.08623 0.90933 0.0
C273 C 0.69267 0.98721 -0.00954 0.0
C274 C 0.70751 1.01991 0.02871 0.0
H275 H 0.68 0.96425 0.89526 0.0
H276 H 0.67772 0.95937 0.01223 0.0
C277 C 0.72718 0.05552 -0.00172 0.0
C278 C 0.73221 0.68355 0.40839 0.0
C279 C 0.71212 0.69921 0.37879 0.0
H280 H 0.74686 0.66724 0.49676 0.0
C281 C 0.69778 0.71753 0.41755 0.0
H282 H 0.74422 0.66973 0.37992 0.0
C283 C 0.69956 0.7163 0.48473 0.0
C284 C 0.71556 0.69656 0.5144 0.0
H285 H 0.6826 0.7303 0.39638 0.0
H286 H 0.68574 0.72831 0.51324 0.0
C287 C 0.73383 0.68215 0.47555 0.0
C288 C 1.02717 0.53351 0.23108 0.0
C289 C 0.06103 0.5686 0.22885 0.0
H290 H 1.00089 0.47359 0.23243 0.0
C291 C 0.09589 0.56898 0.22676 0.0
H292 H 0.99971 0.53183 0.23289 0.0
C293 C 0.09659 0.53483 0.2265 0.0
C294 C 0.06243 0.49982 0.2283 0.0
H295 H 0.12251 0.59554 0.22505 0.0
H296 H 0.12372 0.53584 0.22458 0.0
C297 C 1.02786 0.49982 0.23081 0.0
C298 C 0.54816 0.08209 0.71133 0.0
C299 C 0.51345 0.0479 0.70533 0.0
H300 H 0.60914 0.10872 0.71661 0.0
C301 C 0.51431 1.0141 0.6982 0.0
H302 H 0.5485 0.10864 0.71683 0.0
C303 C 0.54854 1.01414 0.69809 0.0
C304 C 0.5833 0.04799 0.70512 0.0
H305 H 0.48834 0.98718 0.69297 0.0
H306 H 0.54754 0.98726 0.69278 0.0
C307 C 0.58285 0.08214 0.71123 0.0
C308 C 0.55605 0.53576 0.21938 0.0
C309 C 0.55756 0.57039 0.20809 0.0
H310 H 0.52212 0.47602 0.22787 0.0
C311 C 0.52323 0.5703 0.19854 0.0
H312 H 0.5817 0.53452 0.22767 0.0
C313 C 0.48831 0.53602 0.19864 0.0
C314 C 0.48727 0.50137 0.20832 0.0
H315 H 0.52341 0.59653 0.18986 0.0
H316 H 0.46235 0.53658 0.19005 0.0
C317 C 0.5216 0.50193 0.2195 0.0
C318 C 0.04367 0.54436 0.71138 0.0
C319 C 1.00933 0.5445 0.71884 0.0
H320 H 0.07163 0.51223 0.70595 0.0
C321 C 0.97535 0.50961 0.72552 0.0
H322 H 0.07047 0.57048 0.70568 0.0
C323 C 0.97603 0.47545 0.72567 0.0
C324 C 1.01072 0.47572 0.71916 0.0
H325 H 0.9484 0.50872 0.73128 0.0
H326 H 0.94959 0.449 0.73152 0.0
C327 C 0.04435 0.51066 0.71155 0.0
C328 C 0.4891 0.96286 0.21328 0.0
C329 C 0.48861 0.99698 0.21948 0.0
H330 H 0.52349 0.9364 0.20773 0.0
C331 C 0.52334 0.03083 0.22676 0.0
H332 H 0.46283 0.93627 0.20769 0.0
C333 C 0.55758 0.0309 0.22681 0.0
C334 C 0.55849 0.99713 0.21956 0.0
H335 H 0.52431 0.05769 0.23217 0.0
H336 H 0.58352 0.05782 0.23223 0.0
C337 C 0.5238 0.96293 0.21331 0.0
C338 C 0.5845 0.50927 0.69449 0.0
C339 C 0.58546 0.54405 0.68768 0.0
H340 H 0.54949 0.44863 0.70054 0.0
C341 C 0.55099 0.54368 0.67928 0.0
H342 H 0.61056 0.50856 0.70092 0.0
C343 C 0.51654 0.50987 0.67904 0.0
C344 C 0.51514 0.47505 0.6872 0.0
H345 H 0.55039 0.56972 0.67325 0.0
H346 H 0.49082 0.51125 0.67285 0.0
C347 C 0.54957 0.47499 0.69426 0.0
C348 C 0.23463 0.44844 0.31645 0.0
C349 C 0.21093 0.43948 0.26247 0.0
H350 H 0.28626 0.45502 0.35511 0.0
C351 C 0.22339 0.43223 0.20338 0.0
H352 H 0.22608 0.45432 0.36267 0.0
C353 C 0.25802 0.43257 0.19903 0.0
C354 C 0.28108 0.44025 0.25362 0.0
H355 H 0.20593 0.42529 0.16074 0.0
H356 H 0.26624 0.42589 0.15319 0.0
C357 C 0.26925 0.44886 0.31207 0.0
C358 C 0.8555 0.25056 0.7689 0.0
C359 C 0.86661 0.2621 0.70468 0.0
H360 H 0.81479 0.2083 0.83276 0.0
C361 C 0.84249 0.23971 0.65484 0.0
H362 H 0.87328 0.2671 0.80857 0.0
C363 C 0.80883 0.20594 0.66876 0.0
C364 C 0.79847 0.19366 0.73288 0.0
H365 H 0.85003 0.24775 0.60484 0.0
H366 H 0.79148 0.18897 0.62904 0.0
C367 C 0.82189 0.21675 0.78281 0.0
C368 C 0.62925 0.79546 0.15554 0.0
C369 C 0.62887 0.78436 0.21984 0.0
H370 H 0.63071 0.83718 0.09136 0.0
C371 C 0.62718 0.80701 0.26958 0.0
H372 H 0.63046 0.77872 0.11594 0.0
C373 C 0.62723 0.84057 0.25543 0.0
C374 C 0.62908 0.8524 0.19117 0.0
H375 H 0.62673 0.79931 0.31964 0.0
H376 H 0.62687 0.85774 0.29504 0.0
C377 C 0.62941 0.82907 0.1414 0.0
C378 C 0.84414 0.5951 0.61148 0.0
C379 C 0.86386 0.60407 0.67023 0.0
H380 H 0.79629 0.58955 0.55952 0.0
C381 C 0.84794 0.61237 0.72398 0.0
H382 H 0.85544 0.58848 0.56906 0.0
C383 C 0.81385 0.61293 0.71849 0.0
C384 C 0.79489 0.60529 0.65907 0.0
H385 H 0.86228 0.61936 0.77001 0.0
H386 H 0.80291 0.62031 0.76049 0.0
C387 C 0.81014 0.59574 0.60595 0.0
C388 C 0.26335 0.83962 0.17099 0.0
C389 C 0.27348 0.85107 0.23534 0.0
H390 H 0.22244 0.79861 0.10656 0.0
C391 C 0.24994 0.82728 0.28499 0.0
H392 H 0.28081 0.85715 0.13147 0.0
C393 C 0.21644 0.7936 0.27066 0.0
C394 C 0.20555 0.78289 0.2063 0.0
H395 H 0.25687 0.83508 0.33509 0.0
H396 H 0.19855 0.77649 0.31018 0.0
C397 C 0.2298 0.80599 0.15666 0.0
C398 C 0.44571 0.23883 0.76546 0.0
C399 C 0.4443 0.26119 0.71529 0.0
H400 H 0.44567 0.18815 0.79196 0.0
C401 C 0.44406 0.2496 0.65122 0.0
H402 H 0.44604 0.24689 0.81537 0.0
C403 C 0.4438 0.21582 0.63776 0.0
C404 C 0.44384 0.19278 0.688 0.0
H405 H 0.44306 0.26611 0.61131 0.0
H406 H 0.44263 0.20735 0.5879 0.0
C407 C 0.44552 0.20508 0.752 0.0
loop_
_geom_bond_atom_site_label_1
_geom_bond_atom_site_label_2
_geom_bond_distance
_geom_bond_site_symmetry_2
_ccdc_geom_bond_type
Zn0 O3 2.031 . S
Zn0 O5 2.049 1_455 S
Zn0 O10 2.067 . S
Zn1 O2 1.962 . S
Zn1 O4 1.986 . S
Zn1 O6 1.996 . S
Zn1 O9 1.943 . S
O2 Zn1 1.962 . S
O2 C7 1.254 . S
O3 Zn0 2.031 . S
O3 C7 1.269 . S
O4 Zn1 1.986 . S
O4 C11 1.262 . S
O5 Zn0 2.049 1_655 S
O5 C13 1.260 1_655 S
O6 Zn1 1.996 . S
O6 C13 1.257 . S
C7 O2 1.254 . S
C7 O3 1.269 . S
C8 O9 1.249 . S
C8 O10 1.270 . S
O9 Zn1 1.943 . S
O9 C8 1.249 . S
O10 Zn0 2.067 . S
O10 C8 1.270 . S
C11 O4 1.262 . S
C11 O12 1.232 . S
O12 C11 1.232 . S
C13 O5 1.260 1_455 S
C13 O6 1.257 . S
Zn14 O17 2.031 . S
Zn14 O19 2.049 1_545 S
Zn14 O24 2.067 . S
Zn15 O16 1.962 . S
Zn15 O18 1.986 . S
Zn15 O20 1.996 . S
Zn15 O23 1.943 . S
O16 Zn15 1.962 . S
O16 C21 1.254 . S
O17 Zn14 2.031 . S
O17 C21 1.269 . S
O18 Zn15 1.986 . S
O18 C25 1.262 . S
O19 Zn14 2.049 1_565 S
O19 C27 1.260 1_565 S
O20 Zn15 1.996 . S
O20 C27 1.257 . S
C21 O16 1.254 . S
C21 O17 1.269 . S
C22 O23 1.249 . S
C22 O24 1.270 . S
O23 Zn15 1.943 . S
O23 C22 1.249 . S
O24 Zn14 2.067 . S
O24 C22 1.270 . S
C25 O18 1.262 . S
C25 O26 1.232 . S
O26 C25 1.232 . S
C27 O19 1.260 1_545 S
C27 O20 1.257 . S
Zn28 O31 2.031 . S
Zn28 O33 2.049 . S
Zn28 O38 2.067 . S
Zn29 O30 1.962 . S
Zn29 O32 1.986 . S
Zn29 O34 1.996 . S
Zn29 O37 1.943 . S
O30 Zn29 1.962 . S
O30 C35 1.254 . S
O31 Zn28 2.031 . S
O31 C35 1.269 . S
O32 Zn29 1.986 . S
O32 C39 1.262 . S
O33 Zn28 2.049 . S
O33 C41 1.260 . S
O34 Zn29 1.996 . S
O34 C41 1.257 . S
C35 O30 1.254 . S
C35 O31 1.269 . S
C36 O37 1.249 . S
C36 O38 1.270 . S
O37 Zn29 1.943 . S
O37 C36 1.249 . S
O38 Zn28 2.067 . S
O38 C36 1.270 . S
C39 O32 1.262 . S
C39 O40 1.232 . S
O40 C39 1.232 . S
C41 O33 1.260 . S
C41 O34 1.257 . S
Zn42 O45 2.031 . S
Zn42 O47 2.049 1_655 S
Zn42 O52 2.067 . S
Zn43 O44 1.962 . S
Zn43 O46 1.986 . S
Zn43 O48 1.996 . S
Zn43 O51 1.943 . S
O44 Zn43 1.962 . S
O44 C49 1.254 . S
O45 Zn42 2.031 . S
O45 C49 1.269 . S
O46 Zn43 1.986 . S
O46 C53 1.262 . S
O47 Zn42 2.049 1_455 S
O47 C55 1.260 1_455 S
O48 Zn43 1.996 . S
O48 C55 1.257 . S
C49 O44 1.254 . S
C49 O45 1.269 . S
C50 O51 1.249 . S
C50 O52 1.270 . S
O51 Zn43 1.943 . S
O51 C50 1.249 . S
O52 Zn42 2.067 . S
O52 C50 1.270 . S
C53 O46 1.262 . S
C53 O54 1.232 . S
O54 C53 1.232 . S
C55 O47 1.260 1_655 S
C55 O48 1.257 . S
Zn56 O59 2.031 . S
Zn56 O61 2.049 1_565 S
Zn56 O66 2.067 . S
Zn57 O58 1.962 . S
Zn57 O60 1.986 . S
Zn57 O62 1.996 . S
Zn57 O65 1.943 . S
O58 Zn57 1.962 . S
O58 C63 1.254 . S
O59 Zn56 2.031 . S
O59 C63 1.269 . S
O60 Zn57 1.986 . S
O60 C67 1.262 . S
O61 Zn56 2.049 1_545 S
O61 C69 1.260 1_545 S
O62 Zn57 1.996 . S
O62 C69 1.257 . S
C63 O58 1.254 . S
C63 O59 1.269 . S
C64 O65 1.249 . S
C64 O66 1.270 . S
O65 Zn57 1.943 . S
O65 C64 1.249 . S
O66 Zn56 2.067 . S
O66 C64 1.270 . S
C67 O60 1.262 . S
C67 O68 1.232 . S
O68 C67 1.232 . S
C69 O61 1.260 1_565 S
C69 O62 1.257 . S
Zn70 O73 2.031 . S
Zn70 O75 2.049 . S
Zn70 O80 2.067 . S
Zn71 O72 1.962 . S
Zn71 O74 1.986 . S
Zn71 O76 1.996 . S
Zn71 O79 1.943 . S
O72 Zn71 1.962 . S
O72 C77 1.254 . S
O73 Zn70 2.031 . S
O73 C77 1.269 . S
O74 Zn71 1.986 . S
O74 C81 1.262 . S
O75 Zn70 2.049 . S
O75 C83 1.260 . S
O76 Zn71 1.996 . S
O76 C83 1.257 . S
C77 O72 1.254 . S
C77 O73 1.269 . S
C78 O79 1.249 . S
C78 O80 1.270 . S
O79 Zn71 1.943 . S
O79 C78 1.249 . S
O80 Zn70 2.067 . S
O80 C78 1.270 . S
C81 O74 1.262 . S
C81 O82 1.232 . S
O82 C81 1.232 . S
C83 O75 1.260 . S
C83 O76 1.257 . S
Zn84 O87 2.031 . S
Zn84 O89 2.049 1_565 S
Zn84 O94 2.067 . S
Zn85 O86 1.962 . S
Zn85 O88 1.986 . S
Zn85 O90 1.996 . S
Zn85 O93 1.943 . S
O86 Zn85 1.962 . S
O86 C91 1.254 . S
O87 Zn84 2.031 . S
O87 C91 1.269 . S
O88 Zn85 1.986 . S
O88 C95 1.262 . S
O89 Zn84 2.049 1_545 S
O89 C97 1.260 1_545 S
O90 Zn85 1.996 . S
O90 C97 1.257 . S
C91 O86 1.254 . S
C91 O87 1.269 . S
C92 O93 1.249 . S
C92 O94 1.270 . S
O93 Zn85 1.943 . S
O93 C92 1.249 . S
O94 Zn84 2.067 . S
O94 C92 1.270 . S
C95 O88 1.262 . S
C95 O96 1.232 . S
O96 C95 1.232 . S
C97 O89 1.260 1_565 S
C97 O90 1.257 . S
Zn98 O101 2.031 . S
Zn98 O103 2.049 . S
Zn98 O108 2.067 . S
Zn99 O100 1.962 . S
Zn99 O102 1.986 . S
Zn99 O104 1.996 . S
Zn99 O107 1.943 . S
O100 Zn99 1.962 . S
O100 C105 1.254 . S
O101 Zn98 2.031 . S
O101 C105 1.269 . S
O102 Zn99 1.986 . S
O102 C109 1.262 . S
O103 Zn98 2.049 . S
O103 C111 1.260 . S
O104 Zn99 1.996 . S
O104 C111 1.257 . S
C105 O100 1.254 . S
C105 O101 1.269 . S
C106 O107 1.249 . S
C106 O108 1.270 . S
O107 Zn99 1.943 . S
O107 C106 1.249 . S
O108 Zn98 2.067 . S
O108 C106 1.270 . S
C109 O102 1.262 . S
C109 O110 1.232 . S
O110 C109 1.232 . S
C111 O103 1.260 . S
C111 O104 1.257 . S
Zn112 O115 2.031 . S
Zn112 O117 2.049 1_455 S
Zn112 O122 2.067 . S
Zn113 O114 1.962 . S
Zn113 O116 1.986 . S
Zn113 O118 1.996 . S
Zn113 O121 1.943 . S
O114 Zn113 1.962 . S
O114 C119 1.254 . S
O115 Zn112 2.031 . S
O115 C119 1.269 . S
O116 Zn113 1.986 . S
O116 C123 1.262 . S
O117 Zn112 2.049 1_655 S
O117 C125 1.260 1_655 S
O118 Zn113 1.996 . S
O118 C125 1.257 . S
C119 O114 1.254 . S
C119 O115 1.269 . S
C120 O121 1.249 . S
C120 O122 1.270 . S
O121 Zn113 1.943 . S
O121 C120 1.249 . S
O122 Zn112 2.067 . S
O122 C120 1.270 . S
C123 O116 1.262 . S
C123 O124 1.232 . S
O124 C123 1.232 . S
C125 O117 1.260 1_455 S
C125 O118 1.257 . S
Zn126 O129 2.031 . S
Zn126 O131 2.049 1_545 S
Zn126 O136 2.067 . S
Zn127 O128 1.962 . S
Zn127 O130 1.986 . S
Zn127 O132 1.996 . S
Zn127 O135 1.943 . S
O128 Zn127 1.962 . S
O128 C133 1.254 . S
O129 Zn126 2.031 . S
O129 C133 1.269 . S
O130 Zn127 1.986 . S
O130 C137 1.262 . S
O131 Zn126 2.049 1_565 S
O131 C139 1.260 1_565 S
O132 Zn127 1.996 . S
O132 C139 1.257 . S
C133 O128 1.254 . S
C133 O129 1.269 . S
C134 O135 1.249 . S
C134 O136 1.270 . S
O135 Zn127 1.943 . S
O135 C134 1.249 . S
O136 Zn126 2.067 . S
O136 C134 1.270 . S
C137 O130 1.262 . S
C137 O138 1.232 . S
O138 C137 1.232 . S
C139 O131 1.260 1_545 S
C139 O132 1.257 . S
Zn140 O143 2.031 . S
Zn140 O145 2.049 . S
Zn140 O150 2.067 . S
Zn141 O142 1.962 . S
Zn141 O144 1.986 . S
Zn141 O146 1.996 . S
Zn141 O149 1.943 . S
O142 Zn141 1.962 . S
O142 C147 1.254 . S
O143 Zn140 2.031 . S
O143 C147 1.269 . S
O144 Zn141 1.986 . S
O144 C151 1.262 . S
O145 Zn140 2.049 . S
O145 C153 1.260 . S
O146 Zn141 1.996 . S
O146 C153 1.257 . S
C147 O142 1.254 . S
C147 O143 1.269 . S
C148 O149 1.249 . S
C148 O150 1.270 . S
O149 Zn141 1.943 . S
O149 C148 1.249 . S
O150 Zn140 2.067 . S
O150 C148 1.270 . S
C151 O144 1.262 . S
C151 O152 1.232 . S
O152 C151 1.232 . S
C153 O145 1.260 . S
C153 O146 1.257 . S
Zn154 O157 2.031 . S
Zn154 O159 2.049 1_655 S
Zn154 O164 2.067 . S
Zn155 O156 1.962 . S
Zn155 O158 1.986 . S
Zn155 O160 1.996 . S
Zn155 O163 1.943 . S
O156 Zn155 1.962 . S
O156 C161 1.254 . S
O157 Zn154 2.031 . S
O157 C161 1.269 . S
O158 Zn155 1.986 . S
O158 C165 1.262 . S
O159 Zn154 2.049 1_455 S
O159 C167 1.260 1_455 S
O160 Zn155 1.996 . S
O160 C167 1.257 . S
C161 O156 1.254 . S
C161 O157 1.269 . S
C162 O163 1.249 . S
C162 O164 1.270 . S
O163 Zn155 1.943 . S
O163 C162 1.249 . S
O164 Zn154 2.067 . S
O164 C162 1.270 . S
C165 O158 1.262 . S
C165 O166 1.232 . S
O166 C165 1.232 . S
C167 O159 1.260 1_655 S
C167 O160 1.257 . S
C168 C169 1.387 1_655 S
C168 H172 0.950 . S
C168 C177 1.390 1_554 S
C169 C168 1.387 1_455 S
C169 C171 1.387 . S
H170 C177 0.950 . S
C171 C169 1.387 . S
C171 C173 1.390 1_554 S
C171 H175 0.950 . S
H172 C168 0.950 . S
C173 C171 1.390 1_556 S
C173 C174 1.387 1_455 S
C173 H176 0.950 . S
C174 C173 1.387 1_655 S
C174 C177 1.387 . S
H175 C171 0.950 . S
H176 C173 0.950 . S
C177 C168 1.390 1_556 S
C177 H170 0.950 . S
C177 C174 1.387 . S
C178 C179 1.387 . S
C178 H182 0.950 . S
C178 C187 1.390 1_565 S
C179 C178 1.387 . S
C179 C181 1.387 . S
H180 C187 0.950 . S
C181 C179 1.387 . S
C181 C183 1.390 1_565 S
C181 H185 0.950 . S
H182 C178 0.950 . S
C183 C181 1.390 1_545 S
C183 C184 1.387 . S
C183 H186 0.950 . S
C184 C183 1.387 . S
C184 C187 1.387 . S
H185 C181 0.950 . S
H186 C183 0.950 . S
C187 C178 1.390 1_545 S
C187 H180 0.950 . S
C187 C184 1.387 . S
C188 C189 1.387 . S
C188 H192 0.950 . S
C188 C197 1.390 1_554 S
C189 C188 1.387 . S
C189 C191 1.387 . S
H190 C197 0.950 . S
C191 C189 1.387 . S
C191 C193 1.390 1_554 S
C191 H195 0.950 . S
H192 C188 0.950 . S
C193 C191 1.390 1_556 S
C193 C194 1.387 . S
C193 H196 0.950 . S
C194 C193 1.387 . S
C194 C197 1.387 . S
H195 C191 0.950 . S
H196 C193 0.950 . S
C197 C188 1.390 1_556 S
C197 H190 0.950 . S
C197 C194 1.387 . S
C198 C199 1.387 . S
C198 H202 0.950 . S
C198 C207 1.390 . S
C199 C198 1.387 . S
C199 C201 1.387 1_455 S
H200 C207 0.950 . S
C201 C199 1.387 1_655 S
C201 C203 1.390 . S
C201 H205 0.950 . S
H202 C198 0.950 . S
C203 C201 1.390 . S
C203 C204 1.387 . S
C203 H206 0.950 . S
C204 C203 1.387 . S
C204 C207 1.387 1_655 S
H205 C201 0.950 . S
H206 C203 0.950 . S
C207 C198 1.390 . S
C207 H200 0.950 . S
C207 C204 1.387 1_455 S
C208 C209 1.387 . S
C208 H212 0.950 . S
C208 C217 1.390 1_546 S
C209 C208 1.387 . S
C209 C211 1.387 . S
H210 C217 0.950 . S
C211 C209 1.387 . S
C211 C213 1.390 1_546 S
C211 H215 0.950 . S
H212 C208 0.950 . S
C213 C211 1.390 1_564 S
C213 C214 1.387 . S
C213 H216 0.950 . S
C214 C213 1.387 . S
C214 C217 1.387 . S
H215 C211 0.950 . S
H216 C213 0.950 . S
C217 C208 1.390 1_564 S
C217 H210 0.950 . S
C217 C214 1.387 . S
C218 C219 1.387 . S
C218 H222 0.950 . S
C218 C227 1.390 . S
C219 C218 1.387 . S
C219 C221 1.387 . S
H220 C227 0.950 . S
C221 C219 1.387 . S
C221 C223 1.390 . S
C221 H225 0.950 . S
H222 C218 0.950 . S
C223 C221 1.390 . S
C223 C224 1.387 . S
C223 H226 0.950 . S
C224 C223 1.387 . S
C224 C227 1.387 . S
H225 C221 0.950 . S
H226 C223 0.950 . S
C227 C218 1.390 . S
C227 H220 0.950 . S
C227 C224 1.387 . S
C228 C229 1.387 . S
C228 H232 0.950 . S
C228 C237 1.397 1_556 S
C229 C228 1.387 . S
C229 C231 1.388 1_655 S
H230 C237 0.954 . S
C231 C229 1.388 1_455 S
C231 C233 1.397 1_556 S
C231 H235 0.954 . S
H232 C228 0.950 . S
C233 C231 1.397 1_554 S
C233 C234 1.387 . S
C233 H236 0.950 . S
C234 C233 1.387 . S
C234 C237 1.388 1_455 S
H235 C231 0.954 . S
H236 C233 0.950 . S
C237 C228 1.397 1_554 S
C237 H230 0.954 . S
C237 C234 1.388 1_655 S
C238 C239 1.387 . S
C238 H242 0.950 . S
C238 C247 1.390 1_565 S
C239 C238 1.387 . S
C239 C241 1.387 . S
H240 C247 0.950 . S
C241 C239 1.387 . S
C241 C243 1.390 1_565 S
C241 H245 0.950 . S
H242 C238 0.950 . S
C243 C241 1.390 1_545 S
C243 C244 1.387 . S
C243 H246 0.950 . S
C244 C243 1.387 . S
C244 C247 1.387 . S
H245 C241 0.950 . S
H246 C243 0.950 . S
C247 C238 1.390 1_545 S
C247 H240 0.950 . S
C247 C244 1.387 . S
C248 C249 1.387 . S
C248 H252 0.950 . S
C248 C257 1.390 1_556 S
C249 C248 1.387 . S
C249 C251 1.387 . S
H250 C257 0.950 . S
C251 C249 1.387 . S
C251 C253 1.390 1_556 S
C251 H255 0.950 . S
H252 C248 0.950 . S
C253 C251 1.390 1_554 S
C253 C254 1.387 . S
C253 H256 0.950 . S
C254 C253 1.387 . S
C254 C257 1.387 . S
H255 C251 0.950 . S
H256 C253 0.950 . S
C257 C248 1.390 1_554 S
C257 H250 0.950 . S
C257 C254 1.387 . S
C258 C259 1.388 . S
C258 H262 0.948 . S
C258 C267 1.392 1_655 S
C259 C258 1.388 . S
C259 C261 1.387 . S
H260 C267 0.950 . S
C261 C259 1.387 . S
C261 C263 1.392 1_655 S
C261 H265 0.950 . S
H262 C258 0.948 . S
C263 C261 1.392 1_455 S
C263 C264 1.388 . S
C263 H266 0.948 . S
C264 C263 1.388 . S
C264 C267 1.387 . S
H265 C261 0.950 . S
H266 C263 0.948 . S
C267 C258 1.392 1_455 S
C267 H260 0.950 . S
C267 C264 1.387 . S
C268 C269 1.387 . S
C268 H272 0.950 . S
C268 C277 1.390 1_546 S
C269 C268 1.387 . S
C269 C271 1.387 . S
H270 C277 0.950 . S
C271 C269 1.387 . S
C271 C273 1.390 1_546 S
C271 H275 0.950 . S
H272 C268 0.950 . S
C273 C271 1.390 1_564 S
C273 C274 1.387 . S
C273 H276 0.950 . S
C274 C273 1.387 . S
C274 C277 1.387 . S
H275 C271 0.950 . S
H276 C273 0.950 . S
C277 C268 1.390 1_564 S
C277 H270 0.950 . S
C277 C274 1.387 . S
C278 C279 1.387 . S
C278 H282 0.950 . S
C278 C287 1.390 . S
C279 C278 1.387 . S
C279 C281 1.387 . S
H280 C287 0.950 . S
C281 C279 1.387 . S
C281 C283 1.390 . S
C281 H285 0.950 . S
H282 C278 0.950 . S
C283 C281 1.390 . S
C283 C284 1.387 . S
C283 H286 0.950 . S
C284 C283 1.387 . S
C284 C287 1.387 . S
H285 C281 0.950 . S
H286 C283 0.950 . S
C287 C278 1.390 . S
C287 H280 0.950 . S
C287 C284 1.387 . S
C288 C289 1.387 . S
C288 H292 0.950 . S
C288 C297 1.390 . S
C289 C288 1.387 . S
C289 C291 1.387 . S
H290 C297 0.950 . S
C291 C289 1.387 . S
C291 C293 1.390 . S
C291 H295 0.950 . S
H292 C288 0.950 . S
C293 C291 1.390 . S
C293 C294 1.387 . S
C293 H296 0.950 . S
C294 C293 1.387 . S
C294 C297 1.387 . S
H295 C291 0.950 . S
H296 C293 0.950 . S
C297 C288 1.390 . S
C297 H290 0.950 . S
C297 C294 1.387 . S
C298 C299 1.387 . S
C298 H302 0.950 . S
C298 C307 1.390 . S
C299 C298 1.387 . S
C299 C301 1.387 . S
H300 C307 0.950 . S
C301 C299 1.387 . S
C301 C303 1.390 . S
C301 H305 0.950 . S
H302 C298 0.950 . S
C303 C301 1.390 . S
C303 C304 1.387 . S
C303 H306 0.950 . S
C304 C303 1.387 . S
C304 C307 1.387 . S
H305 C301 0.950 . S
H306 C303 0.950 . S
C307 C298 1.390 . S
C307 H300 0.950 . S
C307 C304 1.387 . S
C308 C309 1.387 . S
C308 H312 0.950 . S
C308 C317 1.390 . S
C309 C308 1.387 . S
C309 C311 1.387 . S
H310 C317 0.950 . S
C311 C309 1.387 . S
C311 C313 1.390 . S
C311 H315 0.950 . S
H312 C308 0.950 . S
C313 C311 1.390 . S
C313 C314 1.387 . S
C313 H316 0.950 . S
C314 C313 1.387 . S
C314 C317 1.387 . S
H315 C311 0.950 . S
H316 C313 0.950 . S
C317 C308 1.390 . S
C317 H310 0.950 . S
C317 C314 1.387 . S
C318 C319 1.387 . S
C318 H322 0.950 . S
C318 C327 1.390 . S
C319 C318 1.387 . S
C319 C321 1.387 . S
H320 C327 0.950 . S
C321 C319 1.387 . S
C321 C323 1.390 . S
C321 H325 0.950 . S
H322 C318 0.950 . S
C323 C321 1.390 . S
C323 C324 1.387 . S
C323 H326 0.950 . S
C324 C323 1.387 . S
C324 C327 1.387 . S
H325 C321 0.950 . S
H326 C323 0.950 . S
C327 C318 1.390 . S
C327 H320 0.950 . S
C327 C324 1.387 . S
C328 C329 1.387 . S
C328 H332 0.950 . S
C328 C337 1.390 . S
C329 C328 1.387 . S
C329 C331 1.387 . S
H330 C337 0.950 . S
C331 C329 1.387 . S
C331 C333 1.390 . S
C331 H335 0.950 . S
H332 C328 0.950 . S
C333 C331 1.390 . S
C333 C334 1.387 . S
C333 H336 0.950 . S
C334 C333 1.387 . S
C334 C337 1.387 . S
H335 C331 0.950 . S
H336 C333 0.950 . S
C337 C328 1.390 . S
C337 H330 0.950 . S
C337 C334 1.387 . S
C338 C339 1.387 . S
C338 H342 0.950 . S
C338 C347 1.390 . S
C339 C338 1.387 . S
C339 C341 1.387 . S
H340 C347 0.950 . S
C341 C339 1.387 . S
C341 C343 1.390 . S
C341 H345 0.950 . S
H342 C338 0.950 . S
C343 C341 1.390 . S
C343 C344 1.387 . S
C343 H346 0.950 . S
C344 C343 1.387 . S
C344 C347 1.387 . S
H345 C341 0.950 . S
H346 C343 0.950 . S
C347 C338 1.390 . S
C347 H340 0.950 . S
C347 C344 1.387 . S
C348 C349 1.387 . S
C348 H352 0.950 . S
C348 C357 1.390 . S
C349 C348 1.387 . S
C349 C351 1.387 . S
H350 C357 0.950 . S
C351 C349 1.387 . S
C351 C353 1.390 . S
C351 H355 0.950 . S
H352 C348 0.950 . S
C353 C351 1.390 . S
C353 C354 1.387 . S
C353 H356 0.950 . S
C354 C353 1.387 . S
C354 C357 1.387 . S
H355 C351 0.950 . S
H356 C353 0.950 . S
C357 C348 1.390 . S
C357 H350 0.950 . S
C357 C354 1.387 . S
C358 C359 1.387 . S
C358 H362 0.950 . S
C358 C367 1.390 . S
C359 C358 1.387 . S
C359 C361 1.387 . S
H360 C367 0.950 . S
C361 C359 1.387 . S
C361 C363 1.390 . S
C361 H365 0.950 . S
H362 C358 0.950 . S
C363 C361 1.390 . S
C363 C364 1.387 . S
C363 H366 0.950 . S
C364 C363 1.387 . S
C364 C367 1.387 . S
H365 C361 0.950 . S
H366 C363 0.950 . S
C367 C358 1.390 . S
C367 H360 0.950 . S
C367 C364 1.387 . S
C368 C369 1.387 . S
C368 H372 0.950 . S
C368 C377 1.390 . S
C369 C368 1.387 . S
C369 C371 1.387 . S
H370 C377 0.950 . S
C371 C369 1.387 . S
C371 C373 1.390 . S
C371 H375 0.950 . S
H372 C368 0.950 . S
C373 C371 1.390 . S
C373 C374 1.387 . S
C373 H376 0.950 . S
C374 C373 1.387 . S
C374 C377 1.387 . S
H375 C371 0.950 . S
H376 C373 0.950 . S
C377 C368 1.390 . S
C377 H370 0.950 . S
C377 C374 1.387 . S
C378 C379 1.387 . S
C378 H382 0.950 . S
C378 C387 1.390 . S
C379 C378 1.387 . S
C379 C381 1.387 . S
H380 C387 0.950 . S
C381 C379 1.387 . S
C381 C383 1.390 . S
C381 H385 0.950 . S
H382 C378 0.950 . S
C383 C381 1.390 . S
C383 C384 1.387 . S
C383 H386 0.950 . S
C384 C383 1.387 . S
C384 C387 1.387 . S
H385 C381 0.950 . S
H386 C383 0.950 . S
C387 C378 1.390 . S
C387 H380 0.950 . S
C387 C384 1.387 . S
C388 C389 1.387 . S
C388 H392 0.950 . S
C388 C397 1.390 . S
C389 C388 1.387 . S
C389 C391 1.387 . S
H390 C397 0.950 . S
C391 C389 1.387 . S
C391 C393 1.390 . S
C391 H395 0.950 . S
H392 C388 0.950 . S
C393 C391 1.390 . S
C393 C394 1.387 . S
C393 H396 0.950 . S
C394 C393 1.387 . S
C394 C397 1.387 . S
H395 C391 0.950 . S
H396 C393 0.950 . S
C397 C388 1.390 . S
C397 H390 0.950 . S
C397 C394 1.387 . S
C398 C399 1.387 . S
C398 H402 0.950 . S
C398 C407 1.390 . S
C399 C398 1.387 . S
C399 C401 1.387 . S
H400 C407 0.950 . S
C401 C399 1.387 . S
C401 C403 1.390 . S
C401 H405 0.950 . S
H402 C398 0.950 . S
C403 C401 1.390 . S
C403 C404 1.387 . S
C403 H406 0.950 . S
C404 C403 1.387 . S
C404 C407 1.387 . S
H405 C401 0.950 . S
H406 C403 0.950 . S
C407 C398 1.390 . S
C407 H400 0.950 . S
C407 C404 1.387 . S
C169 C13 1.323 . S
C174 C167 1.321 . S
C179 C97 1.322 . S
C184 C27 1.322 . S
C189 C41 1.322 . S
C194 C111 1.322 . S
C199 C125 1.321 . S
C204 C55 1.323 . S
C209 C139 1.319 . S
C214 C69 1.318 . S
C219 C153 1.318 . S
C224 C83 1.320 . S
C229 C49 1.481 . S
C234 C119 1.481 . S
C239 C63 1.481 . S
C244 C133 1.481 . S
C249 C77 1.481 . S
C254 C147 1.480 . S
C259 C161 1.481 . S
C264 C7 1.481 . S
C269 C21 1.480 . S
C274 C91 1.480 . S
C279 C35 1.480 . S
C284 C105 1.481 . S
C289 C120 1.417 . S
C294 C8 1.420 . S
C299 C134 1.419 . S
C304 C22 1.419 . S
C309 C36 1.417 . S
C314 C148 1.420 . S
C319 C50 1.420 . S
C324 C162 1.417 . S
C329 C64 1.419 . S
C334 C92 1.419 . S
C339 C106 1.420 . S
C344 C78 1.417 . S
C349 C11 1.392 . S
C354 C151 1.392 . S
C359 C165 1.392 . S
C364 C25 1.392 . S
C369 C39 1.392 . S
C374 C95 1.392 . S
C379 C53 1.392 . S
C384 C109 1.392 . S
C389 C67 1.392 . S
C394 C123 1.392 . S
C399 C81 1.392 . S
C404 C137 1.392 . S
