# Generated by pormake.
# Topology vbm, (6)-cn, num edge types: 1
# Building blocks:
#     Node 0, Type 0, BuildingBlock: BETFAJ_clean_sbu_0, # of connection points: 6
#     Node 1, Type 0, BuildingBlock: BETFAJ_clean_sbu_0, # of connection points: 6
#     Node 2, Type 0, BuildingBlock: BETFAJ_clean_sbu_0, # of connection points: 6
#     Node 3, Type 0, BuildingBlock: BETFAJ_clean_sbu_0, # of connection points: 6
#     Node 4, Type 0, BuildingBlock: BETFAJ_clean_sbu_0, # of connection points: 6
#     Node 5, Type 0, BuildingBlock: BETFAJ_clean_sbu_0, # of connection points: 6
#     Node 6, Type 0, BuildingBlock: BETFAJ_clean_sbu_0, # of connection points: 6
#     Node 7, Type 0, BuildingBlock: BETFAJ_clean_sbu_0, # of connection points: 6
#     Node 8, Type 0, BuildingBlock: BETFAJ_clean_sbu_0, # of connection points: 6
#     Node 9, Type 0, BuildingBlock: BETFAJ_clean_sbu_0, # of connection points: 6
#     Node 10, Type 0, BuildingBlock: BETFAJ_clean_sbu_0, # of connection points: 6
#     Node 11, Type 0, BuildingBlock: BETFAJ_clean_sbu_0, # of connection points: 6
#     Node 12, Type 0, BuildingBlock: BETFAJ_clean_sbu_0, # of connection points: 6
#     Node 13, Type 0, BuildingBlock: BETFAJ_clean_sbu_0, # of connection points: 6
#     Node 14, Type 0, BuildingBlock: BETFAJ_clean_sbu_0, # of connection points: 6
#     Node 15, Type 0, BuildingBlock: BETFAJ_clean_sbu_0, # of connection points: 6
#     Edge 16, Type (0, 0), None
#     Edge 17, Type (0, 0), None
#     Edge 18, Type (0, 0), None
#     Edge 19, Type (0, 0), None
#     Edge 20, Type (0, 0), None
#     Edge 21, Type (0, 0), None
#     Edge 22, Type (0, 0), None
#     Edge 23, Type (0, 0), None
#     Edge 24, Type (0, 0), None
#     Edge 25, Type (0, 0), None
#     Edge 26, Type (0, 0), None
#     Edge 27, Type (0, 0), None
#     Edge 28, Type (0, 0), None
#     Edge 29, Type (0, 0), None
#     Edge 30, Type (0, 0), None
#     Edge 31, Type (0, 0), None
#     Edge 32, Type (0, 0), None
#     Edge 33, Type (0, 0), None
#     Edge 34, Type (0, 0), None
#     Edge 35, Type (0, 0), None
#     Edge 36, Type (0, 0), None
#     Edge 37, Type (0, 0), None
#     Edge 38, Type (0, 0), None
#     Edge 39, Type (0, 0), None
#     Edge 40, Type (0, 0), None
#     Edge 41, Type (0, 0), None
#     Edge 42, Type (0, 0), None
#     Edge 43, Type (0, 0), None
#     Edge 44, Type (0, 0), None
#     Edge 45, Type (0, 0), None
#     Edge 46, Type (0, 0), None
#     Edge 47, Type (0, 0), None
#     Edge 48, Type (0, 0), None
#     Edge 49, Type (0, 0), None
#     Edge 50, Type (0, 0), None
#     Edge 51, Type (0, 0), None
#     Edge 52, Type (0, 0), None
#     Edge 53, Type (0, 0), None
#     Edge 54, Type (0, 0), None
#     Edge 55, Type (0, 0), None
#     Edge 56, Type (0, 0), None
#     Edge 57, Type (0, 0), None
#     Edge 58, Type (0, 0), None
#     Edge 59, Type (0, 0), None
#     Edge 60, Type (0, 0), None
#     Edge 61, Type (0, 0), None
#     Edge 62, Type (0, 0), None
#     Edge 63, Type (0, 0), None
# Relax obj value: 0.099
# Max RMSD: 0.208
# Mean RMSD: 0.208
data_MOF--net-vbm--node1-BETFAJ_clean_sbu_0--edge1-none
_symmetry_space_group_name_H-M    P1
_symmetry_Int_Tables_number       1
_symmetry_cell_setting            triclinic
loop_
_symmetry_equiv_pos_as_xyz
'x, y, z'
_cell_length_a     23.54947
_cell_length_b     15.920435
_cell_length_c     23.29299
_cell_angle_alpha  90.458463
_cell_angle_beta   89.993366
_cell_angle_gamma 90.008533
loop_
_atom_site_label
_atom_site_type_symbol
_atom_site_fract_x
_atom_site_fract_y
_atom_site_fract_z
_atom_type_partial_charge
Sm0 Sm 0.1011 0.12801 0.1469 0.0
Sm1 Sm 0.02909 0.25408 0.1823 0.0
C2 C 0.14684 0.9795 0.12382 0.0
C3 C 0.12654 0.89351 0.13494 0.0
C4 C 0.10633 0.87185 0.18931 0.0
C5 C 0.08467 0.79204 0.19923 0.0
C6 C 0.08001 0.73195 0.15471 0.0
C7 C 0.10013 0.75438 0.09982 0.0
C8 C 0.124 0.83382 0.09051 0.0
C9 C 0.09384 0.24095 0.05872 0.0
C10 C -0.04028 0.11218 0.12964 0.0
C11 C -0.01341 0.40326 0.20724 0.0
C12 C 0.00932 0.48675 0.19248 0.0
C13 C 0.04526 0.4972 0.14485 0.0
C14 C 0.06871 0.57598 0.13259 0.0
C15 C 0.05483 0.64704 0.16633 0.0
C16 C 0.01717 0.6357 0.2127 0.0
C17 C -0.00297 0.5562 0.22705 0.0
C18 C 0.03118 0.11785 0.25965 0.0
C19 C 0.16319 0.299 0.18677 0.0
O20 O 0.16063 1.02496 0.16867 0.0
O21 O 0.11735 1.02162 0.08652 0.0
O22 O 0.05189 0.21641 0.08866 0.0
O23 O 0.14074 0.21659 0.08227 0.0
O24 O 0.00847 1.07284 0.13964 0.0
O25 O -0.04316 0.19356 0.13475 0.0
O26 O -0.03136 0.35755 0.16407 0.0
O27 O 0.01669 0.3602 0.24377 0.0
O28 O 0.07409 0.15224 0.23711 0.0
O29 O -0.01385 0.15928 0.24518 0.0
O30 O 0.11231 0.32882 0.17862 0.0
O31 O 0.1714 0.21695 0.18326 0.0
H32 H 0.10796 0.91619 0.22469 0.0
H33 H 0.07219 0.77832 0.24241 0.0
H34 H 0.09722 0.7115 0.06372 0.0
H35 H 0.13992 0.84925 0.04847 0.0
H36 H 0.05615 0.4441 0.11766 0.0
H37 H 0.09821 0.58019 0.09715 0.0
H38 H 0.00246 0.68811 0.23824 0.0
H39 H -0.0279 0.54926 0.26541 0.0
Sm40 Sm 0.76666 1.04183 0.15457 0.0
Sm41 Sm 0.84394 0.91209 0.17829 0.0
C42 C 0.7197 0.19139 0.14467 0.0
C43 C 0.74417 0.27665 0.14904 0.0
C44 C 0.75663 0.31287 0.20282 0.0
C45 C 0.78069 0.3927 0.20632 0.0
C46 C 0.79494 0.43642 0.15631 0.0
C47 C 0.78312 0.40034 0.10257 0.0
C48 C 0.75721 0.32153 0.09907 0.0
C49 C 0.7721 0.93566 0.06151 0.0
C50 C 0.90661 1.06413 0.12962 0.0
C51 C 0.89355 0.76457 0.18709 0.0
C52 C 0.86856 0.6806 0.17786 0.0
C53 C 0.89498 0.62141 0.14169 0.0
C54 C 0.87058 0.54199 0.13323 0.0
C55 C 0.8195 0.5213 0.16092 0.0
C56 C 0.79209 0.58184 0.19479 0.0
C57 C 0.81558 0.66115 0.20185 0.0
C58 C 0.84217 1.04084 0.26219 0.0
C59 C 0.70904 0.8661 0.19074 0.0
O60 O 0.71764 0.14782 0.19195 0.0
O61 O 0.73579 0.1465 0.10045 0.0
O62 O 0.8147 0.96058 0.09041 0.0
O63 O 0.72542 0.95855 0.08668 0.0
O64 O 0.85798 0.10118 0.14393 0.0
O65 O 0.91079 0.98265 0.1302 0.0
O66 O 0.89742 0.81036 0.14106 0.0
O67 O 0.87546 0.80718 0.23187 0.0
O68 O 0.79937 1.00553 0.23996 0.0
O69 O 0.88774 1.00393 0.24353 0.0
O70 O 0.76005 0.83764 0.17981 0.0
O71 O 0.69949 0.94801 0.18991 0.0
H72 H 0.74688 0.2804 0.2423 0.0
H73 H 0.78808 0.42061 0.24816 0.0
H74 H 0.79262 0.43397 0.0635 0.0
H75 H 0.74751 0.29525 0.05737 0.0
H76 H -0.06551 0.6364 0.1203 0.0
H77 H 0.89219 0.49624 0.10637 0.0
H78 H 0.7527 0.56771 0.21644 0.0
H79 H 0.79294 0.70623 0.22806 0.0
Sm80 Sm 0.10347 1.0375 0.40283 0.0
Sm81 Sm 0.02656 0.90898 0.37689 0.0
C82 C 0.14941 0.18797 0.40991 0.0
C83 C 0.12393 0.27231 0.40442 0.0
C84 C 0.1254 0.31384 0.35151 0.0
C85 C 0.10108 0.39309 0.34579 0.0
C86 C 0.07388 0.43225 0.39263 0.0
C87 C 0.07126 0.38987 0.44522 0.0
C88 C 0.09597 0.3107 0.451 0.0
C89 C 0.09702 0.93248 0.49516 0.0
C90 C -0.03605 1.06021 0.42902 0.0
C91 C -0.02307 0.76234 0.3621 0.0
C92 C 0.00137 0.67784 0.36991 0.0
C93 C -0.02517 0.61991 0.40605 0.0
C94 C -0.0017 0.54012 0.41401 0.0
C95 C 0.04934 0.5175 0.38651 0.0
C96 C 0.07737 0.57752 0.35305 0.0
C97 C 0.05407 0.65685 0.34556 0.0
C98 C 0.03019 1.03812 0.29448 0.0
C99 C 0.16146 0.85892 0.37293 0.0
O100 O 0.15076 0.14228 0.36309 0.0
O101 O 0.13523 0.14476 0.45514 0.0
O102 O 0.05459 0.95666 0.46587 0.0
O103 O 0.144 0.95783 0.47188 0.0
O104 O 0.01276 0.09708 0.41586 0.0
O105 O -0.04075 0.97877 0.42594 0.0
O106 O -0.02896 0.8066 0.40912 0.0
O107 O -0.00324 0.80647 0.31938 0.0
O108 O 0.0724 1.00139 0.31648 0.0
O109 O -0.01585 1.00322 0.31327 0.0
O110 O 0.10953 0.83187 0.38044 0.0
O111 O 0.1715 0.94073 0.37266 0.0
H112 H 0.14597 0.28547 0.31456 0.0
H113 H 0.10346 0.42346 0.30443 0.0
H114 H 0.05085 0.41829 0.4822 0.0
H115 H 0.0927 0.27926 0.49184 0.0
H116 H -0.06384 0.6366 0.42838 0.0
H117 H -0.02401 0.49597 0.44098 0.0
H118 H 0.11769 0.56373 0.3328 0.0
H119 H 0.07771 0.70142 0.32052 0.0
Sm120 Sm 0.771 0.12796 0.40745 0.0
Sm121 Sm 0.84469 0.25383 0.37836 0.0
C122 C 0.72592 0.97735 0.41865 0.0
C123 C 0.75045 0.8923 0.41187 0.0
C124 C 0.73767 0.84405 0.3629 0.0
C125 C 0.76027 0.76361 0.35616 0.0
C126 C 0.79654 0.72996 0.39799 0.0
C127 C 0.81026 0.77847 0.4465 0.0
C128 C 0.78805 0.85939 0.45298 0.0
C129 C 0.77556 0.23683 0.49926 0.0
C130 C 0.9114 0.10938 0.4301 0.0
C131 C 0.88959 0.40058 0.35462 0.0
C132 C 0.86724 0.48505 0.36761 0.0
C133 C 0.84262 0.50437 0.4213 0.0
C134 C 0.81951 0.58413 0.43181 0.0
C135 C 0.82177 0.64586 0.38915 0.0
C136 C 0.84773 0.62676 0.33665 0.0
C137 C 0.86769 0.54611 0.32492 0.0
C138 C 0.84225 0.12082 0.29738 0.0
C139 C 0.71136 0.30403 0.3772 0.0
O140 O 0.72073 1.02138 0.37184 0.0
O141 O 0.74367 1.02213 0.46224 0.0
O142 O 0.81873 0.21355 0.47012 0.0
O143 O 0.72928 0.21003 0.47516 0.0
O144 O 0.86253 1.07125 0.41868 0.0
O145 O 0.91523 0.19076 0.42631 0.0
O146 O 0.90587 0.35593 0.39853 0.0
O147 O 0.86054 0.35713 0.317 0.0
O148 O 0.79963 0.15711 0.31928 0.0
O149 O 0.88783 0.15799 0.31531 0.0
O150 O 0.76273 0.33183 0.38649 0.0
O151 O 0.70232 0.222 0.3756 0.0
H152 H 0.70976 0.86823 0.32997 0.0
H153 H 0.74866 0.72708 0.31857 0.0
H154 H 0.83916 0.75456 0.47866 0.0
H155 H 0.80069 0.89625 0.49008 0.0
H156 H 0.84037 0.45758 0.45473 0.0
H157 H 0.79965 0.59737 0.47286 0.0
H158 H 0.85318 0.67523 0.30521 0.0
H159 H 0.88296 0.53117 0.28237 0.0
Sm160 Sm 0.84315 0.90886 0.88091 0.0
Sm161 Sm 0.76571 1.03816 0.90364 0.0
C162 C 0.8937 0.7628 0.86577 0.0
C163 C 0.86976 0.67782 0.87114 0.0
C164 C 0.89987 0.61533 0.89985 0.0
C165 C 0.87691 0.53483 0.90541 0.0
C166 C 0.82251 0.51609 0.8835 0.0
C167 C 0.79133 0.5807 0.85761 0.0
C168 C 0.81466 0.66024 0.85159 0.0
C169 C 0.83944 1.03456 0.7962 0.0
C170 C 0.70839 0.85878 0.87641 0.0
C171 C 0.71983 0.18836 0.90502 0.0
C172 C 0.74616 0.27172 0.89991 0.0
C173 C 0.73284 0.32247 0.853 0.0
C174 C 0.75889 0.40049 0.84673 0.0
C175 C 0.79753 0.43062 0.88833 0.0
C176 C 0.81117 0.37881 0.93493 0.0
C177 C 0.78662 0.29965 0.94 0.0
C178 C 0.77157 0.93737 0.9982 0.0
C179 C 0.90514 1.06309 0.92972 0.0
O180 O 0.8974 0.80542 0.91374 0.0
O181 O 0.87462 0.80783 0.82321 0.0
O182 O 0.79743 0.99808 0.81868 0.0
O183 O 0.88558 1.00136 0.81605 0.0
O184 O 0.76001 0.83237 0.88645 0.0
O185 O 0.69847 0.94042 0.87357 0.0
O186 O 0.72134 0.14152 0.85877 0.0
O187 O 0.73052 0.14661 0.9519 0.0
O188 O 0.81435 0.96039 0.9688 0.0
O189 O 0.72471 0.96225 0.97444 0.0
O190 O 0.85619 0.09899 0.91595 0.0
O191 O 0.90993 0.9815 0.92887 0.0
H192 H -0.05913 0.62914 0.91838 0.0
H193 H 0.90217 0.48761 0.92653 0.0
H194 H 0.74852 0.57067 0.84224 0.0
H195 H 0.78921 0.70755 0.83124 0.0
H196 H 0.70252 0.30147 0.82097 0.0
H197 H 0.74865 0.43682 0.80904 0.0
H198 H 0.84028 0.39928 0.96812 0.0
H199 H 0.79941 0.26048 0.97548 0.0
Sm200 Sm 0.02596 0.25142 0.87244 0.0
Sm201 Sm 0.09831 0.12758 0.90378 0.0
C202 C -0.01496 0.39729 0.84035 0.0
C203 C 0.00713 0.48195 0.85294 0.0
C204 C 0.03145 0.50144 0.90667 0.0
C205 C 0.05447 0.58117 0.9172 0.0
C206 C 0.0527 0.64286 0.87444 0.0
C207 C 0.02831 0.62288 0.82123 0.0
C208 C 0.00765 0.54241 0.80978 0.0
C209 C 0.02773 0.11557 0.79375 0.0
C210 C 0.15808 0.30399 0.87475 0.0
C211 C 0.14282 0.97637 0.9141 0.0
C212 C 0.11899 0.89143 0.90388 0.0
C213 C 0.13123 0.84785 0.8527 0.0
C214 C 0.10981 0.76713 0.84325 0.0
C215 C 0.07561 0.72828 0.88479 0.0
C216 C 0.06208 0.77253 0.93527 0.0
C217 C 0.08288 0.85373 0.94432 0.0
C218 C 0.0937 0.23715 0.99508 0.0
C219 C -0.04225 0.11224 0.92817 0.0
O220 O -0.03582 0.3556 0.88374 0.0
O221 O 0.01754 0.35134 0.80733 0.0
O222 O 0.07052 0.1525 0.81474 0.0
O223 O -0.01768 0.15263 0.81204 0.0
O224 O 0.10664 0.33079 0.88434 0.0
O225 O 0.16736 0.22205 0.87269 0.0
O226 O 0.15067 1.02283 0.86883 0.0
O227 O 0.12256 1.01895 0.95761 0.0
O228 O 0.05057 0.21469 0.96552 0.0
O229 O 0.14005 0.20868 0.97194 0.0
O230 O 0.00639 1.07299 0.91732 0.0
O231 O -0.04579 0.19338 0.92179 0.0
H232 H 0.03311 0.45491 0.94031 0.0
H233 H 0.07348 0.59463 0.95862 0.0
H234 H 0.02445 0.67048 0.78903 0.0
H235 H -0.00791 0.52741 0.76723 0.0
H236 H 0.15803 0.87573 0.8202 0.0
H237 H 0.1209 0.73445 0.80385 0.0
H238 H 0.03447 0.74498 0.96722 0.0
H239 H 0.07024 0.88709 0.9829 0.0
Sm240 Sm 0.83967 0.25198 0.68604 0.0
Sm241 Sm 0.76679 0.12561 0.65074 0.0
C242 C 0.88183 0.40086 0.71247 0.0
C243 C 0.85915 0.48457 0.69832 0.0
C244 C 0.8226 0.49517 0.65121 0.0
C245 C 0.79896 0.57386 0.63941 0.0
C246 C 0.81329 0.6448 0.67301 0.0
C247 C 0.85155 0.63352 0.7189 0.0
C248 C 0.87218 0.55399 0.73273 0.0
C249 C 0.8381 0.11509 0.76247 0.0
C250 C 0.70577 0.29826 0.68939 0.0
C251 C 0.72082 0.97669 0.62965 0.0
C252 C 0.7415 0.89087 0.64103 0.0
C253 C 0.76077 0.869 0.69575 0.0
C254 C 0.78279 0.78938 0.70584 0.0
C255 C 0.78832 0.72966 0.66125 0.0
C256 C 0.76923 0.75226 0.60605 0.0
C257 C 0.74527 0.83152 0.59649 0.0
C258 C 0.77462 0.23874 0.56283 0.0
C259 C 0.90796 0.10983 0.63135 0.0
O260 O 0.89982 0.35596 0.66889 0.0
O261 O 0.8515 0.35716 0.74852 0.0
O262 O 0.795 0.14968 0.74051 0.0
O263 O 0.88304 0.15661 0.74789 0.0
O264 O 0.75686 0.32731 0.68152 0.0
O265 O 0.697 0.21627 0.68623 0.0
O266 O 0.70774 1.02285 0.6744 0.0
O267 O 0.74939 1.01839 0.59135 0.0
O268 O 0.81639 0.21382 0.59281 0.0
O269 O 0.72747 0.21359 0.58559 0.0
O270 O 0.85924 1.0705 0.64156 0.0
O271 O 0.91125 0.19118 0.63738 0.0
H272 H 0.81155 0.44229 0.6239 0.0
H273 H 0.76908 0.57824 0.6043 0.0
H274 H 0.86648 0.68615 0.74411 0.0
H275 H 0.89821 0.54698 0.77043 0.0
H276 H 0.75806 0.91296 0.73125 0.0
H277 H 0.79481 0.77528 0.74913 0.0
H278 H 0.773 0.70955 0.56993 0.0
H279 H 0.73017 0.84702 0.55416 0.0
Sm280 Sm 0.02474 0.90751 0.67452 0.0
Sm281 Sm 0.10158 1.03975 0.64965 0.0
C282 C -0.02488 0.75911 0.68048 0.0
C283 C -0.00243 0.67493 0.66604 0.0
C284 C 0.05337 0.65324 0.68103 0.0
C285 C 0.07489 0.57424 0.66773 0.0
C286 C 0.04139 0.51522 0.63873 0.0
C287 C -0.01372 0.53706 0.6215 0.0
C288 C -0.03507 0.61733 0.6341 0.0
C289 C 0.02761 1.03529 0.75907 0.0
C290 C 0.16057 0.86578 0.68708 0.0
C291 C 0.14584 0.19008 0.63422 0.0
C292 C 0.11794 0.27264 0.63398 0.0
C293 C 0.07094 0.2885 0.66962 0.0
C294 C 0.04384 0.36638 0.66842 0.0
C295 C 0.06325 0.42932 0.63171 0.0
C296 C 0.1089 0.41273 0.59467 0.0
C297 C 0.13581 0.33444 0.59554 0.0
C298 C 0.09615 0.93093 0.55833 0.0
C299 C -0.03913 1.06133 0.62926 0.0
O300 O -0.03114 0.80898 0.63678 0.0
O301 O -0.00284 0.79727 0.72531 0.0
O302 O 0.07008 1.00159 0.7352 0.0
O303 O -0.01806 0.9967 0.7422 0.0
O304 O 0.10977 0.83618 0.67632 0.0
O305 O 0.16962 0.94793 0.6858 0.0
O306 O 0.14745 0.15138 0.68354 0.0
O307 O 0.13179 0.14054 0.59173 0.0
O308 O 0.05353 0.95672 0.58688 0.0
O309 O 0.14284 0.95416 0.58328 0.0
O310 O 0.00991 0.09811 0.64197 0.0
O311 O -0.04344 0.97983 0.62948 0.0
H312 H 0.07995 0.69589 0.70518 0.0
H313 H 0.11702 0.55818 0.6822 0.0
H314 H -0.04014 0.4921 0.59877 0.0
H315 H 0.92289 0.63408 0.61942 0.0
H316 H 0.05551 0.2411 0.69882 0.0
H317 H 0.00907 0.37875 0.6976 0.0
H318 H 0.12461 0.461 0.56623 0.0
H319 H 0.17105 0.3224 0.56687 0.0
Sm320 Sm 0.60346 0.62583 0.16393 0.0
Sm321 Sm 0.52657 0.75433 0.18989 0.0
C322 C 0.64939 0.47537 0.15683 0.0
C323 C 0.62392 0.39102 0.16234 0.0
C324 C 0.62539 0.3495 0.21525 0.0
C325 C 0.60106 0.27025 0.22099 0.0
C326 C 0.57387 0.23106 0.17416 0.0
C327 C 0.57125 0.27342 0.12156 0.0
C328 C 0.59596 0.35261 0.11576 0.0
C329 C 0.59704 0.73086 0.07161 0.0
C330 C 0.46395 0.60314 0.13771 0.0
C331 C 0.47692 0.90093 0.20472 0.0
C332 C 0.50136 0.98545 0.1969 0.0
C333 C 0.47482 1.04337 0.16078 0.0
C334 C 0.49828 0.12317 0.1528 0.0
C335 C 0.54933 0.1458 0.18029 0.0
C336 C 0.57736 0.0858 0.21374 0.0
C337 C 0.55406 1.00646 0.22124 0.0
C338 C 0.5302 0.6252 0.27232 0.0
C339 C 0.66145 0.80441 0.19384 0.0
O340 O 0.65074 0.52107 0.20366 0.0
O341 O 0.6352 0.51857 0.11161 0.0
O342 O 0.5546 0.70667 0.1009 0.0
O343 O 0.64401 0.70552 0.09487 0.0
O344 O 0.51274 0.56626 0.1509 0.0
O345 O 0.45927 0.68457 0.1408 0.0
O346 O 0.47103 0.85668 0.15769 0.0
O347 O 0.49676 0.8568 0.24742 0.0
O348 O 0.5724 0.66193 0.25029 0.0
O349 O 0.48416 0.66002 0.25349 0.0
O350 O 0.60953 0.83146 0.18634 0.0
O351 O 0.67149 0.72261 0.19411 0.0
H352 H 0.64595 0.37789 0.25219 0.0
H353 H 0.60344 0.23988 0.26234 0.0
H354 H 0.55085 0.24499 0.08458 0.0
H355 H 0.5927 0.38404 0.07493 0.0
H356 H 0.43614 1.02666 0.13846 0.0
H357 H 0.47597 0.16731 0.12585 0.0
H358 H 0.61768 0.09962 0.23397 0.0
H359 H 0.57771 0.9619 0.24627 0.0
Sm360 Sm 0.27099 0.5354 0.15935 0.0
Sm361 Sm 0.34467 0.40955 0.18842 0.0
C362 C 0.22591 0.686 0.14818 0.0
C363 C 0.25043 0.77106 0.15495 0.0
C364 C 0.23765 0.81931 0.20392 0.0
C365 C 0.26024 0.89977 0.21066 0.0
C366 C 0.29652 0.93343 0.16882 0.0
C367 C 0.31024 0.88493 0.12031 0.0
C368 C 0.28803 0.80399 0.11383 0.0
C369 C 0.27552 0.42654 0.06754 0.0
C370 C 0.41139 0.55397 0.13663 0.0
C371 C 0.38958 0.26284 0.21217 0.0
C372 C 0.36723 0.17836 0.19919 0.0
C373 C 0.34261 0.15903 0.1455 0.0
C374 C 0.3195 1.07926 0.13499 0.0
C375 C 0.32175 1.01754 0.17766 0.0
C376 C 0.34771 1.03665 0.23015 0.0
C377 C 0.36768 0.1173 0.24188 0.0
C378 C 0.34225 0.54254 0.26941 0.0
C379 C 0.21135 0.3593 0.18959 0.0
O380 O 0.22074 0.64197 0.19499 0.0
O381 O 0.24366 0.64124 0.10458 0.0
O382 O 0.3187 0.44982 0.09667 0.0
O383 O 0.22925 0.45335 0.09165 0.0
O384 O 0.36253 0.59211 0.14809 0.0
O385 O 0.4152 0.4726 0.14041 0.0
O386 O 0.40587 0.30749 0.16826 0.0
O387 O 0.36051 0.30628 0.24978 0.0
O388 O 0.29962 0.50625 0.24751 0.0
O389 O 0.38783 0.50544 0.25143 0.0
O390 O 0.26272 0.33152 0.18029 0.0
O391 O 0.20231 0.44133 0.1912 0.0
H392 H 0.20974 0.79512 0.23686 0.0
H393 H 0.24864 0.93629 0.24825 0.0
H394 H 0.33914 0.90885 0.08815 0.0
H395 H 0.30067 0.76714 0.07673 0.0
H396 H 0.34037 0.20581 0.11207 0.0
H397 H 0.29964 1.06601 0.09395 0.0
H398 H 0.35316 0.98817 0.26159 0.0
H399 H 0.38296 0.13224 0.28442 0.0
Sm400 Sm 0.6011 0.53532 0.41985 0.0
Sm401 Sm 0.52908 0.40921 0.38446 0.0
C402 C 0.64685 0.68384 0.44293 0.0
C403 C 0.62655 0.76982 0.43181 0.0
C404 C 0.60633 0.79147 0.37745 0.0
C405 C 0.58466 0.87127 0.36754 0.0
C406 C 0.58002 0.93136 0.41206 0.0
C407 C 0.60015 0.90894 0.46694 0.0
C408 C 0.62402 0.82951 0.47624 0.0
C409 C 0.59381 0.42238 0.50804 0.0
C410 C 0.45971 0.55115 0.43708 0.0
C411 C 0.48657 0.26 0.35956 0.0
C412 C 0.50931 0.17652 0.37432 0.0
C413 C 0.54527 0.16609 0.42193 0.0
C414 C 0.56872 0.08733 0.43418 0.0
C415 C 0.55483 1.01625 0.40045 0.0
C416 C 0.51716 1.02757 0.3541 0.0
C417 C 0.49701 0.10706 0.33976 0.0
C418 C 0.53119 0.54543 0.30711 0.0
C419 C 0.66319 0.36433 0.38 0.0
O420 O 0.66063 0.63838 0.39807 0.0
O421 O 0.61735 0.6417 0.48023 0.0
O422 O 0.55187 0.44691 0.4781 0.0
O423 O 0.64071 0.44675 0.48448 0.0
O424 O 0.50848 0.59048 0.4271 0.0
O425 O 0.45681 0.46977 0.43196 0.0
O426 O 0.46864 0.30571 0.40274 0.0
O427 O 0.51665 0.30306 0.32301 0.0
O428 O 0.57409 0.51106 0.32965 0.0
O429 O 0.48616 0.50396 0.32156 0.0
O430 O 0.6123 0.33449 0.38813 0.0
O431 O 0.67141 0.44638 0.38352 0.0
H432 H 0.60795 0.74713 0.34207 0.0
H433 H 0.57218 0.88498 0.32437 0.0
H434 H 0.59725 0.95183 0.50304 0.0
H435 H 0.63996 0.81409 0.51828 0.0
H436 H 0.55616 0.2192 0.44911 0.0
H437 H 0.59823 0.08313 0.46961 0.0
H438 H 0.50245 0.97515 0.32858 0.0
H439 H 0.47207 0.11398 0.30142 0.0
Sm440 Sm 0.26665 0.62152 0.41222 0.0
Sm441 Sm 0.34395 0.7513 0.38848 0.0
C442 C 0.21969 0.47195 0.42214 0.0
C443 C 0.24417 0.3867 0.41777 0.0
C444 C 0.25663 0.35047 0.36399 0.0
C445 C 0.28069 0.27065 0.36049 0.0
C446 C 0.29494 0.22695 0.41051 0.0
C447 C 0.28313 0.26305 0.46425 0.0
C448 C 0.25722 0.34185 0.46774 0.0
C449 C 0.27212 0.7277 0.50528 0.0
C450 C 0.40661 0.59922 0.4371 0.0
C451 C 0.39356 0.89884 0.37973 0.0
C452 C 0.36857 0.9828 0.38897 0.0
C453 C 0.39498 1.04199 0.42515 0.0
C454 C 0.37057 0.12141 0.43361 0.0
C455 C 0.31951 0.14208 0.4059 0.0
C456 C 0.29211 1.08153 0.37203 0.0
C457 C 0.31559 1.00223 0.36497 0.0
C458 C 0.34217 0.62252 0.30461 0.0
C459 C 0.20904 0.79723 0.37604 0.0
O460 O 0.21763 0.51551 0.37485 0.0
O461 O 0.23577 0.51685 0.46636 0.0
O462 O 0.31471 0.70277 0.47636 0.0
O463 O 0.22543 0.70481 0.48012 0.0
O464 O 0.35796 0.56218 0.42283 0.0
O465 O 0.41081 0.6807 0.43651 0.0
O466 O 0.39741 0.85304 0.42575 0.0
O467 O 0.37549 0.85624 0.33493 0.0
O468 O 0.29938 0.65784 0.32684 0.0
O469 O 0.38774 0.6595 0.3232 0.0
O470 O 0.26006 0.82571 0.38694 0.0
O471 O 0.19947 0.71532 0.37689 0.0
H472 H 0.24688 0.38292 0.32451 0.0
H473 H 0.28809 0.24273 0.31865 0.0
H474 H 0.29263 0.22944 0.50332 0.0
H475 H 0.24753 0.36814 0.50944 0.0
H476 H 0.43447 1.02701 0.44655 0.0
H477 H 0.39218 0.16715 0.46047 0.0
H478 H 0.25272 0.09565 0.35037 0.0
H479 H 0.29296 0.95715 0.33876 0.0
Sm480 Sm 0.33965 0.41142 0.88076 0.0
Sm481 Sm 0.26678 0.53775 0.91607 0.0
C482 C 0.38181 0.26257 0.85429 0.0
C483 C 0.35913 0.17885 0.86845 0.0
C484 C 0.32259 0.16822 0.91558 0.0
C485 C 0.29895 0.08952 0.92738 0.0
C486 C 0.31327 1.01859 0.89377 0.0
C487 C 0.35152 1.02989 0.84787 0.0
C488 C 0.37215 0.10943 0.83403 0.0
C489 C 0.33811 0.54831 0.80433 0.0
C490 C 0.20577 0.3651 0.8774 0.0
C491 C 0.22082 0.68665 0.93717 0.0
C492 C 0.24149 0.77248 0.92578 0.0
C493 C 0.26077 0.79435 0.87106 0.0
C494 C 0.28279 0.87398 0.86096 0.0
C495 C 0.28831 0.93372 0.90554 0.0
C496 C 0.26921 0.91111 0.96074 0.0
C497 C 0.24526 0.83184 0.97032 0.0
C498 C 0.27458 0.42461 1.00397 0.0
C499 C 0.40794 0.55352 0.93548 0.0
O500 O 0.39981 0.30746 0.89786 0.0
O501 O 0.35147 0.30625 0.81826 0.0
O502 O 0.295 0.5137 0.82629 0.0
O503 O 0.38305 0.50684 0.81893 0.0
O504 O 0.25685 0.33606 0.88529 0.0
O505 O 0.197 0.44709 0.88055 0.0
O506 O 0.20773 0.64049 0.89243 0.0
O507 O 0.2494 0.64496 0.97546 0.0
O508 O 0.31636 0.44954 0.97399 0.0
O509 O 0.22744 0.44976 0.98122 0.0
O510 O 0.35924 0.59286 0.92526 0.0
O511 O 0.41121 0.47218 0.92946 0.0
H512 H 0.31155 0.22109 0.94289 0.0
H513 H 0.26908 0.08513 0.96251 0.0
H514 H 0.36645 0.97727 0.82265 0.0
H515 H 0.39817 0.11646 0.79632 0.0
H516 H 0.25807 0.75038 0.83556 0.0
H517 H 0.29481 0.88808 0.81767 0.0
H518 H 0.27298 0.95383 0.99687 0.0
H519 H 0.23016 0.81634 1.01265 0.0
Sm520 Sm 0.52475 0.75579 0.89226 0.0
Sm521 Sm 0.60157 0.62358 0.91711 0.0
C522 C 0.47513 0.90416 0.88625 0.0
C523 C 0.49757 0.98834 0.90068 0.0
C524 C 0.55337 1.01007 0.88568 0.0
C525 C 0.57488 0.08908 0.89898 0.0
C526 C 0.54137 0.14807 0.92799 0.0
C527 C 0.48626 0.12621 0.94522 0.0
C528 C 0.46492 1.04593 0.93261 0.0
C529 C 0.52762 0.62803 0.80768 0.0
C530 C 0.66057 0.79756 0.87969 0.0
C531 C 0.64582 0.47326 0.93253 0.0
C532 C 0.61792 0.39069 0.93277 0.0
C533 C 0.57091 0.37483 0.89713 0.0
C534 C 0.54382 0.29693 0.89832 0.0
C535 C 0.56323 0.23398 0.93502 0.0
C536 C 0.60888 0.25059 0.97206 0.0
C537 C 0.63578 0.32889 0.97119 0.0
C538 C 0.59617 0.7324 1.00843 0.0
C539 C 0.46086 0.60201 0.93757 0.0
O540 O 0.46884 0.85431 0.92995 0.0
O541 O 0.4972 0.86598 0.84143 0.0
O542 O 0.57008 0.66173 0.83156 0.0
O543 O 0.48195 0.66654 0.82461 0.0
O544 O 0.60977 0.82715 0.89047 0.0
O545 O 0.66961 0.71541 0.88095 0.0
O546 O 0.64743 0.51196 0.88321 0.0
O547 O 0.63176 0.52279 0.97502 0.0
O548 O 0.55354 0.70661 0.9799 0.0
O549 O 0.64284 0.70916 0.98347 0.0
O550 O 0.50989 0.56522 0.92481 0.0
O551 O 0.45658 0.6835 0.93737 0.0
H552 H 0.57996 0.96743 0.86154 0.0
H553 H 0.61701 0.10516 0.88452 0.0
H554 H 0.45983 0.17115 0.96795 0.0
H555 H 0.42288 1.02916 0.94729 0.0
H556 H 0.55548 0.42223 0.86794 0.0
H557 H 0.50906 0.28455 0.86915 0.0
H558 H 0.62458 0.20232 1.00048 0.0
H559 H 0.67102 0.34094 0.99986 0.0
Sm560 Sm 0.34316 0.75452 0.68587 0.0
Sm561 Sm 0.2657 0.62519 0.66315 0.0
C562 C 0.39369 0.9006 0.70098 0.0
C563 C 0.36975 0.98557 0.69561 0.0
C564 C 0.39985 1.04806 0.66687 0.0
C565 C 0.37688 0.12855 0.66132 0.0
C566 C 0.32248 0.14728 0.68326 0.0
C567 C 0.29132 0.08266 0.70917 0.0
C568 C 0.31465 1.00313 0.71519 0.0
C569 C 0.33944 0.62878 0.77054 0.0
C570 C 0.20839 0.80457 0.69036 0.0
C571 C 0.21981 0.47497 0.66178 0.0
C572 C 0.24614 0.39163 0.66689 0.0
C573 C 0.23281 0.34087 0.71379 0.0
C574 C 0.25887 0.26285 0.72006 0.0
C575 C 0.29751 0.23274 0.67845 0.0
C576 C 0.31116 0.28457 0.63185 0.0
C577 C 0.28661 0.36372 0.62679 0.0
C578 C 0.27159 0.72598 0.56859 0.0
C579 C 0.40515 0.60027 0.63709 0.0
O580 O 0.39741 0.85797 0.65301 0.0
O581 O 0.37462 0.85557 0.74356 0.0
O582 O 0.29743 0.66526 0.7481 0.0
O583 O 0.38559 0.66208 0.75075 0.0
O584 O 0.26002 0.83099 0.68034 0.0
O585 O 0.19846 0.72293 0.6932 0.0
O586 O 0.22132 0.52182 0.70803 0.0
O587 O 0.23051 0.51672 0.6149 0.0
O588 O 0.31436 0.70297 0.59798 0.0
O589 O 0.22472 0.70109 0.59235 0.0
O590 O 0.35617 0.56436 0.65083 0.0
O591 O 0.40995 0.68185 0.63794 0.0
H592 H 0.44084 1.03427 0.64832 0.0
H593 H 0.40213 0.17578 0.64017 0.0
H594 H 0.24851 0.09267 0.72456 0.0
H595 H 0.28921 0.95581 0.73556 0.0
H596 H 0.2025 0.36184 0.74583 0.0
H597 H 0.24862 0.22652 0.75774 0.0
H598 H 0.34027 0.26412 0.59866 0.0
H599 H 0.29941 0.40291 0.59131 0.0
Sm600 Sm 0.52594 0.41188 0.69433 0.0
Sm601 Sm 0.59831 0.53575 0.66297 0.0
C602 C 0.48501 0.26598 0.72639 0.0
C603 C 0.50711 0.18132 0.7138 0.0
C604 C 0.53143 0.16185 0.66006 0.0
C605 C 0.55446 0.08213 0.64953 0.0
C606 C 0.55267 1.02044 0.69229 0.0
C607 C 0.52827 1.0404 0.7455 0.0
C608 C 0.50762 0.12087 0.75695 0.0
C609 C 0.52772 0.54773 0.773 0.0
C610 C 0.65808 0.35936 0.69201 0.0
C611 C 0.64283 0.68697 0.65263 0.0
C612 C 0.61899 0.7719 0.66285 0.0
C613 C 0.63121 0.81548 0.71403 0.0
C614 C 0.60978 0.89619 0.72348 0.0
C615 C 0.57559 0.93502 0.68194 0.0
C616 C 0.56207 0.89077 0.63145 0.0
C617 C 0.58288 0.80958 0.6224 0.0
C618 C 0.59367 0.42616 0.57167 0.0
C619 C 0.45775 0.5511 0.63864 0.0
O620 O 0.46418 0.30767 0.68299 0.0
O621 O 0.51748 0.31193 0.75943 0.0
O622 O 0.57051 0.51081 0.75201 0.0
O623 O 0.48231 0.51062 0.75477 0.0
O624 O 0.60664 0.33254 0.68245 0.0
O625 O 0.66736 0.44131 0.69405 0.0
O626 O 0.65067 0.64053 0.69791 0.0
O627 O 0.62257 0.64438 0.60913 0.0
O628 O 0.55054 0.44863 0.60124 0.0
O629 O 0.64003 0.45463 0.59481 0.0
O630 O 0.5064 0.59035 0.64947 0.0
O631 O 0.45419 0.46996 0.64503 0.0
H632 H 0.5331 0.20838 0.62642 0.0
H633 H 0.57347 1.06867 0.6081 0.0
H634 H 0.52441 0.9928 0.7777 0.0
H635 H 0.49206 0.13586 0.7995 0.0
H636 H 0.65799 0.78762 0.74653 0.0
H637 H 0.62086 0.92887 0.76288 0.0
H638 H 0.53447 0.9183 0.5995 0.0
H639 H 0.57026 0.7762 0.58383 0.0
loop_
_geom_bond_atom_site_label_1
_geom_bond_atom_site_label_2
_geom_bond_distance
_geom_bond_site_symmetry_2
_ccdc_geom_bond_type
Sm0 C2 2.846 1_545 S
Sm0 O20 2.543 1_545 S
Sm0 O21 2.450 1_545 S
Sm0 O22 2.681 . S
Sm0 O23 2.464 . S
Sm0 O24 2.396 1_545 S
Sm0 O28 2.386 . S
Sm0 O31 2.408 . S
Sm1 C11 2.846 . S
Sm1 O22 2.386 . S
Sm1 O25 2.408 . S
Sm1 O26 2.543 . S
Sm1 O27 2.450 . S
Sm1 O28 2.681 . S
Sm1 O29 2.464 . S
Sm1 O30 2.396 . S
C2 Sm0 2.846 1_565 S
C2 C3 1.506 . S
C2 O20 1.261 . S
C2 O21 1.242 . S
C3 C2 1.506 . S
C3 C4 1.358 . S
C3 C8 1.382 . S
C4 C3 1.358 . S
C4 C5 1.385 . S
C4 H32 0.930 . S
C5 C4 1.385 . S
C5 C6 1.395 . S
C5 H33 0.929 . S
C6 C5 1.395 . S
C6 C7 1.335 . S
C7 C6 1.335 . S
C7 C8 1.398 . S
C7 H34 0.930 . S
C8 C3 1.382 . S
C8 C7 1.398 . S
C8 H35 0.929 . S
C9 O22 1.271 . S
C9 O23 1.251 . S
C10 O24 1.252 . S
C10 O25 1.272 1_565 S
C11 Sm1 2.846 . S
C11 C12 1.506 . S
C11 O26 1.261 . S
C11 O27 1.242 . S
C12 C11 1.506 . S
C12 C13 1.358 . S
C12 C17 1.382 . S
C13 C12 1.358 . S
C13 C14 1.385 . S
C13 H36 0.930 . S
C14 C13 1.385 . S
C14 C15 1.395 . S
C14 H37 0.929 . S
C15 C14 1.395 . S
C15 C16 1.335 . S
C16 C15 1.335 . S
C16 C17 1.398 . S
C16 H38 0.930 . S
C17 C12 1.382 . S
C17 C16 1.398 . S
C17 H39 0.929 . S
C18 O28 1.271 . S
C18 O29 1.251 . S
C19 O30 1.252 . S
C19 O31 1.272 . S
O20 Sm0 2.543 1_565 S
O20 C2 1.261 . S
O21 Sm0 2.450 1_565 S
O21 C2 1.242 . S
O22 Sm0 2.681 . S
O22 Sm1 2.386 . S
O22 C9 1.271 . S
O23 Sm0 2.464 . S
O23 C9 1.251 . S
O24 Sm0 2.396 1_565 S
O24 C10 1.252 . S
O25 Sm1 2.408 . S
O25 C10 1.272 1_545 S
O26 Sm1 2.543 . S
O26 C11 1.261 . S
O27 Sm1 2.450 . S
O27 C11 1.242 . S
O28 Sm0 2.386 . S
O28 Sm1 2.681 . S
O28 C18 1.271 . S
O29 Sm1 2.464 . S
O29 C18 1.251 . S
O30 Sm1 2.396 . S
O30 C19 1.252 . S
O31 Sm0 2.408 . S
O31 C19 1.272 . S
H32 C4 0.930 . S
H33 C5 0.929 . S
H34 C7 0.930 . S
H35 C8 0.929 . S
H36 C13 0.930 . S
H37 C14 0.929 . S
H38 C16 0.930 . S
H39 C17 0.929 . S
Sm40 C42 2.846 1_565 S
Sm40 O60 2.543 1_565 S
Sm40 O61 2.450 1_565 S
Sm40 O62 2.681 . S
Sm40 O63 2.464 . S
Sm40 O64 2.396 1_565 S
Sm40 O68 2.386 . S
Sm40 O71 2.408 . S
Sm41 C51 2.846 . S
Sm41 O62 2.386 . S
Sm41 O65 2.408 . S
Sm41 O66 2.543 . S
Sm41 O67 2.450 . S
Sm41 O68 2.681 . S
Sm41 O69 2.464 . S
Sm41 O70 2.396 . S
C42 Sm40 2.846 1_545 S
C42 C43 1.506 . S
C42 O60 1.261 . S
C42 O61 1.242 . S
C43 C42 1.506 . S
C43 C44 1.358 . S
C43 C48 1.382 . S
C44 C43 1.358 . S
C44 C45 1.385 . S
C44 H72 0.930 . S
C45 C44 1.385 . S
C45 C46 1.395 . S
C45 H73 0.929 . S
C46 C45 1.395 . S
C46 C47 1.335 . S
C47 C46 1.335 . S
C47 C48 1.398 . S
C47 H74 0.930 . S
C48 C43 1.382 . S
C48 C47 1.398 . S
C48 H75 0.929 . S
C49 O62 1.271 . S
C49 O63 1.251 . S
C50 O64 1.252 . S
C50 O65 1.272 1_545 S
C51 Sm41 2.846 . S
C51 C52 1.506 . S
C51 O66 1.261 . S
C51 O67 1.242 . S
C52 C51 1.506 . S
C52 C53 1.358 . S
C52 C57 1.382 . S
C53 C52 1.358 . S
C53 C54 1.385 . S
C53 H76 0.930 . S
C54 C53 1.385 . S
C54 C55 1.395 . S
C54 H77 0.929 . S
C55 C54 1.395 . S
C55 C56 1.335 . S
C56 C55 1.335 . S
C56 C57 1.398 . S
C56 H78 0.930 . S
C57 C52 1.382 . S
C57 C56 1.398 . S
C57 H79 0.929 . S
C58 O68 1.271 . S
C58 O69 1.251 . S
C59 O70 1.252 . S
C59 O71 1.272 . S
O60 Sm40 2.543 1_545 S
O60 C42 1.261 . S
O61 Sm40 2.450 1_545 S
O61 C42 1.242 . S
O62 Sm40 2.681 . S
O62 Sm41 2.386 . S
O62 C49 1.271 . S
O63 Sm40 2.464 . S
O63 C49 1.251 . S
O64 Sm40 2.396 1_545 S
O64 C50 1.252 . S
O65 Sm41 2.408 . S
O65 C50 1.272 1_565 S
O66 Sm41 2.543 . S
O66 C51 1.261 . S
O67 Sm41 2.450 . S
O67 C51 1.242 . S
O68 Sm40 2.386 . S
O68 Sm41 2.681 . S
O68 C58 1.271 . S
O69 Sm41 2.464 . S
O69 C58 1.251 . S
O70 Sm41 2.396 . S
O70 C59 1.252 . S
O71 Sm40 2.408 . S
O71 C59 1.272 . S
H72 C44 0.930 . S
H73 C45 0.929 . S
H74 C47 0.930 . S
H75 C48 0.929 . S
H76 C53 0.930 . S
H77 C54 0.929 . S
H78 C56 0.930 . S
H79 C57 0.929 . S
Sm80 C82 2.846 1_565 S
Sm80 O100 2.543 1_565 S
Sm80 O101 2.450 1_565 S
Sm80 O102 2.681 . S
Sm80 O103 2.464 . S
Sm80 O104 2.396 1_565 S
Sm80 O108 2.386 . S
Sm80 O111 2.408 . S
Sm81 C91 2.846 . S
Sm81 O102 2.386 . S
Sm81 O105 2.408 . S
Sm81 O106 2.543 . S
Sm81 O107 2.450 . S
Sm81 O108 2.681 . S
Sm81 O109 2.464 . S
Sm81 O110 2.396 . S
C82 Sm80 2.846 1_545 S
C82 C83 1.506 . S
C82 O100 1.261 . S
C82 O101 1.242 . S
C83 C82 1.506 . S
C83 C84 1.358 . S
C83 C88 1.382 . S
C84 C83 1.358 . S
C84 C85 1.385 . S
C84 H112 0.930 . S
C85 C84 1.385 . S
C85 C86 1.395 . S
C85 H113 0.929 . S
C86 C85 1.395 . S
C86 C87 1.335 . S
C87 C86 1.335 . S
C87 C88 1.398 . S
C87 H114 0.930 . S
C88 C83 1.382 . S
C88 C87 1.398 . S
C88 H115 0.929 . S
C89 O102 1.271 . S
C89 O103 1.251 . S
C90 O104 1.252 . S
C90 O105 1.272 1_545 S
C91 Sm81 2.846 . S
C91 C92 1.506 . S
C91 O106 1.261 . S
C91 O107 1.242 . S
C92 C91 1.506 . S
C92 C93 1.358 . S
C92 C97 1.382 . S
C93 C92 1.358 . S
C93 C94 1.385 . S
C93 H116 0.930 . S
C94 C93 1.385 . S
C94 C95 1.395 . S
C94 H117 0.929 . S
C95 C94 1.395 . S
C95 C96 1.335 . S
C96 C95 1.335 . S
C96 C97 1.398 . S
C96 H118 0.930 . S
C97 C92 1.382 . S
C97 C96 1.398 . S
C97 H119 0.929 . S
C98 O108 1.271 . S
C98 O109 1.251 . S
C99 O110 1.252 . S
C99 O111 1.272 . S
O100 Sm80 2.543 1_545 S
O100 C82 1.261 . S
O101 Sm80 2.450 1_545 S
O101 C82 1.242 . S
O102 Sm80 2.681 . S
O102 Sm81 2.386 . S
O102 C89 1.271 . S
O103 Sm80 2.464 . S
O103 C89 1.251 . S
O104 Sm80 2.396 1_545 S
O104 C90 1.252 . S
O105 Sm81 2.408 . S
O105 C90 1.272 1_565 S
O106 Sm81 2.543 . S
O106 C91 1.261 . S
O107 Sm81 2.450 . S
O107 C91 1.242 . S
O108 Sm80 2.386 . S
O108 Sm81 2.681 . S
O108 C98 1.271 . S
O109 Sm81 2.464 . S
O109 C98 1.251 . S
O110 Sm81 2.396 . S
O110 C99 1.252 . S
O111 Sm80 2.408 . S
O111 C99 1.272 . S
H112 C84 0.930 . S
H113 C85 0.929 . S
H114 C87 0.930 . S
H115 C88 0.929 . S
H116 C93 0.930 . S
H117 C94 0.929 . S
H118 C96 0.930 . S
H119 C97 0.929 . S
Sm120 C122 2.846 1_545 S
Sm120 O140 2.543 1_545 S
Sm120 O141 2.450 1_545 S
Sm120 O142 2.681 . S
Sm120 O143 2.464 . S
Sm120 O144 2.396 1_545 S
Sm120 O148 2.386 . S
Sm120 O151 2.408 . S
Sm121 C131 2.846 . S
Sm121 O142 2.386 . S
Sm121 O145 2.408 . S
Sm121 O146 2.543 . S
Sm121 O147 2.450 . S
Sm121 O148 2.681 . S
Sm121 O149 2.464 . S
Sm121 O150 2.396 . S
C122 Sm120 2.846 1_565 S
C122 C123 1.506 . S
C122 O140 1.261 . S
C122 O141 1.242 . S
C123 C122 1.506 . S
C123 C124 1.358 . S
C123 C128 1.382 . S
C124 C123 1.358 . S
C124 C125 1.385 . S
C124 H152 0.930 . S
C125 C124 1.385 . S
C125 C126 1.395 . S
C125 H153 0.929 . S
C126 C125 1.395 . S
C126 C127 1.335 . S
C127 C126 1.335 . S
C127 C128 1.398 . S
C127 H154 0.930 . S
C128 C123 1.382 . S
C128 C127 1.398 . S
C128 H155 0.929 . S
C129 O142 1.271 . S
C129 O143 1.251 . S
C130 O144 1.252 . S
C130 O145 1.272 1_565 S
C131 Sm121 2.846 . S
C131 C132 1.506 . S
C131 O146 1.261 . S
C131 O147 1.242 . S
C132 C131 1.506 . S
C132 C133 1.358 . S
C132 C137 1.382 . S
C133 C132 1.358 . S
C133 C134 1.385 . S
C133 H156 0.930 . S
C134 C133 1.385 . S
C134 C135 1.395 . S
C134 H157 0.929 . S
C135 C134 1.395 . S
C135 C136 1.335 . S
C136 C135 1.335 . S
C136 C137 1.398 . S
C136 H158 0.930 . S
C137 C132 1.382 . S
C137 C136 1.398 . S
C137 H159 0.929 . S
C138 O148 1.271 . S
C138 O149 1.251 . S
C139 O150 1.252 . S
C139 O151 1.272 . S
O140 Sm120 2.543 1_565 S
O140 C122 1.261 . S
O141 Sm120 2.450 1_565 S
O141 C122 1.242 . S
O142 Sm120 2.681 . S
O142 Sm121 2.386 . S
O142 C129 1.271 . S
O143 Sm120 2.464 . S
O143 C129 1.251 . S
O144 Sm120 2.396 1_565 S
O144 C130 1.252 . S
O145 Sm121 2.408 . S
O145 C130 1.272 1_545 S
O146 Sm121 2.543 . S
O146 C131 1.261 . S
O147 Sm121 2.450 . S
O147 C131 1.242 . S
O148 Sm120 2.386 . S
O148 Sm121 2.681 . S
O148 C138 1.271 . S
O149 Sm121 2.464 . S
O149 C138 1.251 . S
O150 Sm121 2.396 . S
O150 C139 1.252 . S
O151 Sm120 2.408 . S
O151 C139 1.272 . S
H152 C124 0.930 . S
H153 C125 0.929 . S
H154 C127 0.930 . S
H155 C128 0.929 . S
H156 C133 0.930 . S
H157 C134 0.929 . S
H158 C136 0.930 . S
H159 C137 0.929 . S
Sm160 C162 2.846 . S
Sm160 O180 2.543 . S
Sm160 O181 2.450 . S
Sm160 O182 2.681 . S
Sm160 O183 2.464 . S
Sm160 O184 2.396 . S
Sm160 O188 2.386 . S
Sm160 O191 2.408 . S
Sm161 C171 2.846 1_565 S
Sm161 O182 2.386 . S
Sm161 O185 2.408 . S
Sm161 O186 2.543 1_565 S
Sm161 O187 2.450 1_565 S
Sm161 O188 2.681 . S
Sm161 O189 2.464 . S
Sm161 O190 2.396 1_565 S
C162 Sm160 2.846 . S
C162 C163 1.506 . S
C162 O180 1.261 . S
C162 O181 1.242 . S
C163 C162 1.506 . S
C163 C164 1.358 . S
C163 C168 1.382 . S
C164 C163 1.358 . S
C164 C165 1.385 . S
C164 H192 0.930 . S
C165 C164 1.385 . S
C165 C166 1.395 . S
C165 H193 0.929 . S
C166 C165 1.395 . S
C166 C167 1.335 . S
C167 C166 1.335 . S
C167 C168 1.398 . S
C167 H194 0.930 . S
C168 C163 1.382 . S
C168 C167 1.398 . S
C168 H195 0.929 . S
C169 O182 1.271 . S
C169 O183 1.251 . S
C170 O184 1.252 . S
C170 O185 1.272 . S
C171 Sm161 2.846 1_545 S
C171 C172 1.506 . S
C171 O186 1.261 . S
C171 O187 1.242 . S
C172 C171 1.506 . S
C172 C173 1.358 . S
C172 C177 1.382 . S
C173 C172 1.358 . S
C173 C174 1.385 . S
C173 H196 0.930 . S
C174 C173 1.385 . S
C174 C175 1.395 . S
C174 H197 0.929 . S
C175 C174 1.395 . S
C175 C176 1.335 . S
C176 C175 1.335 . S
C176 C177 1.398 . S
C176 H198 0.930 . S
C177 C172 1.382 . S
C177 C176 1.398 . S
C177 H199 0.929 . S
C178 O188 1.271 . S
C178 O189 1.251 . S
C179 O190 1.252 . S
C179 O191 1.272 1_545 S
O180 Sm160 2.543 . S
O180 C162 1.261 . S
O181 Sm160 2.450 . S
O181 C162 1.242 . S
O182 Sm160 2.681 . S
O182 Sm161 2.386 . S
O182 C169 1.271 . S
O183 Sm160 2.464 . S
O183 C169 1.251 . S
O184 Sm160 2.396 . S
O184 C170 1.252 . S
O185 Sm161 2.408 . S
O185 C170 1.272 . S
O186 Sm161 2.543 1_545 S
O186 C171 1.261 . S
O187 Sm161 2.450 1_545 S
O187 C171 1.242 . S
O188 Sm160 2.386 . S
O188 Sm161 2.681 . S
O188 C178 1.271 . S
O189 Sm161 2.464 . S
O189 C178 1.251 . S
O190 Sm161 2.396 1_545 S
O190 C179 1.252 . S
O191 Sm160 2.408 . S
O191 C179 1.272 1_565 S
H192 C164 0.930 . S
H193 C165 0.929 . S
H194 C167 0.930 . S
H195 C168 0.929 . S
H196 C173 0.930 . S
H197 C174 0.929 . S
H198 C176 0.930 . S
H199 C177 0.929 . S
Sm200 C202 2.846 . S
Sm200 O220 2.543 . S
Sm200 O221 2.450 . S
Sm200 O222 2.681 . S
Sm200 O223 2.464 . S
Sm200 O224 2.396 . S
Sm200 O228 2.386 . S
Sm200 O231 2.408 . S
Sm201 C211 2.846 1_545 S
Sm201 O222 2.386 . S
Sm201 O225 2.408 . S
Sm201 O226 2.543 1_545 S
Sm201 O227 2.450 1_545 S
Sm201 O228 2.681 . S
Sm201 O229 2.464 . S
Sm201 O230 2.396 1_545 S
C202 Sm200 2.846 . S
C202 C203 1.506 . S
C202 O220 1.261 . S
C202 O221 1.242 . S
C203 C202 1.506 . S
C203 C204 1.358 . S
C203 C208 1.382 . S
C204 C203 1.358 . S
C204 C205 1.385 . S
C204 H232 0.930 . S
C205 C204 1.385 . S
C205 C206 1.395 . S
C205 H233 0.929 . S
C206 C205 1.395 . S
C206 C207 1.335 . S
C207 C206 1.335 . S
C207 C208 1.398 . S
C207 H234 0.930 . S
C208 C203 1.382 . S
C208 C207 1.398 . S
C208 H235 0.929 . S
C209 O222 1.271 . S
C209 O223 1.251 . S
C210 O224 1.252 . S
C210 O225 1.272 . S
C211 Sm201 2.846 1_565 S
C211 C212 1.506 . S
C211 O226 1.261 . S
C211 O227 1.242 . S
C212 C211 1.506 . S
C212 C213 1.358 . S
C212 C217 1.382 . S
C213 C212 1.358 . S
C213 C214 1.385 . S
C213 H236 0.930 . S
C214 C213 1.385 . S
C214 C215 1.395 . S
C214 H237 0.929 . S
C215 C214 1.395 . S
C215 C216 1.335 . S
C216 C215 1.335 . S
C216 C217 1.398 . S
C216 H238 0.930 . S
C217 C212 1.382 . S
C217 C216 1.398 . S
C217 H239 0.929 . S
C218 O228 1.271 . S
C218 O229 1.251 . S
C219 O230 1.252 . S
C219 O231 1.272 1_565 S
O220 Sm200 2.543 . S
O220 C202 1.261 . S
O221 Sm200 2.450 . S
O221 C202 1.242 . S
O222 Sm200 2.681 . S
O222 Sm201 2.386 . S
O222 C209 1.271 . S
O223 Sm200 2.464 . S
O223 C209 1.251 . S
O224 Sm200 2.396 . S
O224 C210 1.252 . S
O225 Sm201 2.408 . S
O225 C210 1.272 . S
O226 Sm201 2.543 1_565 S
O226 C211 1.261 . S
O227 Sm201 2.450 1_565 S
O227 C211 1.242 . S
O228 Sm200 2.386 . S
O228 Sm201 2.681 . S
O228 C218 1.271 . S
O229 Sm201 2.464 . S
O229 C218 1.251 . S
O230 Sm201 2.396 1_565 S
O230 C219 1.252 . S
O231 Sm200 2.408 . S
O231 C219 1.272 1_545 S
H232 C204 0.930 . S
H233 C205 0.929 . S
H234 C207 0.930 . S
H235 C208 0.929 . S
H236 C213 0.930 . S
H237 C214 0.929 . S
H238 C216 0.930 . S
H239 C217 0.929 . S
Sm240 C242 2.846 . S
Sm240 O260 2.543 . S
Sm240 O261 2.450 . S
Sm240 O262 2.681 . S
Sm240 O263 2.464 . S
Sm240 O264 2.396 . S
Sm240 O268 2.386 . S
Sm240 O271 2.408 . S
Sm241 C251 2.846 1_545 S
Sm241 O262 2.386 . S
Sm241 O265 2.408 . S
Sm241 O266 2.543 1_545 S
Sm241 O267 2.450 1_545 S
Sm241 O268 2.681 . S
Sm241 O269 2.464 . S
Sm241 O270 2.396 1_545 S
C242 Sm240 2.846 . S
C242 C243 1.506 . S
C242 O260 1.261 . S
C242 O261 1.242 . S
C243 C242 1.506 . S
C243 C244 1.358 . S
C243 C248 1.382 . S
C244 C243 1.358 . S
C244 C245 1.385 . S
C244 H272 0.930 . S
C245 C244 1.385 . S
C245 C246 1.395 . S
C245 H273 0.929 . S
C246 C245 1.395 . S
C246 C247 1.335 . S
C247 C246 1.335 . S
C247 C248 1.398 . S
C247 H274 0.930 . S
C248 C243 1.382 . S
C248 C247 1.398 . S
C248 H275 0.929 . S
C249 O262 1.271 . S
C249 O263 1.251 . S
C250 O264 1.252 . S
C250 O265 1.272 . S
C251 Sm241 2.846 1_565 S
C251 C252 1.506 . S
C251 O266 1.261 . S
C251 O267 1.242 . S
C252 C251 1.506 . S
C252 C253 1.358 . S
C252 C257 1.382 . S
C253 C252 1.358 . S
C253 C254 1.385 . S
C253 H276 0.930 . S
C254 C253 1.385 . S
C254 C255 1.395 . S
C254 H277 0.929 . S
C255 C254 1.395 . S
C255 C256 1.335 . S
C256 C255 1.335 . S
C256 C257 1.398 . S
C256 H278 0.930 . S
C257 C252 1.382 . S
C257 C256 1.398 . S
C257 H279 0.929 . S
C258 O268 1.271 . S
C258 O269 1.251 . S
C259 O270 1.252 . S
C259 O271 1.272 1_565 S
O260 Sm240 2.543 . S
O260 C242 1.261 . S
O261 Sm240 2.450 . S
O261 C242 1.242 . S
O262 Sm240 2.681 . S
O262 Sm241 2.386 . S
O262 C249 1.271 . S
O263 Sm240 2.464 . S
O263 C249 1.251 . S
O264 Sm240 2.396 . S
O264 C250 1.252 . S
O265 Sm241 2.408 . S
O265 C250 1.272 . S
O266 Sm241 2.543 1_565 S
O266 C251 1.261 . S
O267 Sm241 2.450 1_565 S
O267 C251 1.242 . S
O268 Sm240 2.386 . S
O268 Sm241 2.681 . S
O268 C258 1.271 . S
O269 Sm241 2.464 . S
O269 C258 1.251 . S
O270 Sm241 2.396 1_565 S
O270 C259 1.252 . S
O271 Sm240 2.408 . S
O271 C259 1.272 1_545 S
H272 C244 0.930 . S
H273 C245 0.929 . S
H274 C247 0.930 . S
H275 C248 0.929 . S
H276 C253 0.930 . S
H277 C254 0.929 . S
H278 C256 0.930 . S
H279 C257 0.929 . S
Sm280 C282 2.846 . S
Sm280 O300 2.543 . S
Sm280 O301 2.450 . S
Sm280 O302 2.681 . S
Sm280 O303 2.464 . S
Sm280 O304 2.396 . S
Sm280 O308 2.386 . S
Sm280 O311 2.408 . S
Sm281 C291 2.846 1_565 S
Sm281 O302 2.386 . S
Sm281 O305 2.408 . S
Sm281 O306 2.543 1_565 S
Sm281 O307 2.450 1_565 S
Sm281 O308 2.681 . S
Sm281 O309 2.464 . S
Sm281 O310 2.396 1_565 S
C282 Sm280 2.846 . S
C282 C283 1.506 . S
C282 O300 1.261 . S
C282 O301 1.242 . S
C283 C282 1.506 . S
C283 C284 1.358 . S
C283 C288 1.382 . S
C284 C283 1.358 . S
C284 C285 1.385 . S
C284 H312 0.930 . S
C285 C284 1.385 . S
C285 C286 1.395 . S
C285 H313 0.929 . S
C286 C285 1.395 . S
C286 C287 1.335 . S
C287 C286 1.335 . S
C287 C288 1.398 . S
C287 H314 0.930 . S
C288 C283 1.382 . S
C288 C287 1.398 . S
C288 H315 0.929 . S
C289 O302 1.271 . S
C289 O303 1.251 . S
C290 O304 1.252 . S
C290 O305 1.272 . S
C291 Sm281 2.846 1_545 S
C291 C292 1.506 . S
C291 O306 1.261 . S
C291 O307 1.242 . S
C292 C291 1.506 . S
C292 C293 1.358 . S
C292 C297 1.382 . S
C293 C292 1.358 . S
C293 C294 1.385 . S
C293 H316 0.930 . S
C294 C293 1.385 . S
C294 C295 1.395 . S
C294 H317 0.929 . S
C295 C294 1.395 . S
C295 C296 1.335 . S
C296 C295 1.335 . S
C296 C297 1.398 . S
C296 H318 0.930 . S
C297 C292 1.382 . S
C297 C296 1.398 . S
C297 H319 0.929 . S
C298 O308 1.271 . S
C298 O309 1.251 . S
C299 O310 1.252 . S
C299 O311 1.272 1_545 S
O300 Sm280 2.543 . S
O300 C282 1.261 . S
O301 Sm280 2.450 . S
O301 C282 1.242 . S
O302 Sm280 2.681 . S
O302 Sm281 2.386 . S
O302 C289 1.271 . S
O303 Sm280 2.464 . S
O303 C289 1.251 . S
O304 Sm280 2.396 . S
O304 C290 1.252 . S
O305 Sm281 2.408 . S
O305 C290 1.272 . S
O306 Sm281 2.543 1_545 S
O306 C291 1.261 . S
O307 Sm281 2.450 1_545 S
O307 C291 1.242 . S
O308 Sm280 2.386 . S
O308 Sm281 2.681 . S
O308 C298 1.271 . S
O309 Sm281 2.464 . S
O309 C298 1.251 . S
O310 Sm281 2.396 1_545 S
O310 C299 1.252 . S
O311 Sm280 2.408 . S
O311 C299 1.272 1_565 S
H312 C284 0.930 . S
H313 C285 0.929 . S
H314 C287 0.930 . S
H315 C288 0.929 . S
H316 C293 0.930 . S
H317 C294 0.929 . S
H318 C296 0.930 . S
H319 C297 0.929 . S
Sm320 C322 2.846 . S
Sm320 O340 2.543 . S
Sm320 O341 2.450 . S
Sm320 O342 2.681 . S
Sm320 O343 2.464 . S
Sm320 O344 2.396 . S
Sm320 O348 2.386 . S
Sm320 O351 2.408 . S
Sm321 C331 2.846 . S
Sm321 O342 2.386 . S
Sm321 O345 2.408 . S
Sm321 O346 2.543 . S
Sm321 O347 2.450 . S
Sm321 O348 2.681 . S
Sm321 O349 2.464 . S
Sm321 O350 2.396 . S
C322 Sm320 2.846 . S
C322 C323 1.506 . S
C322 O340 1.261 . S
C322 O341 1.242 . S
C323 C322 1.506 . S
C323 C324 1.358 . S
C323 C328 1.382 . S
C324 C323 1.358 . S
C324 C325 1.385 . S
C324 H352 0.930 . S
C325 C324 1.385 . S
C325 C326 1.395 . S
C325 H353 0.929 . S
C326 C325 1.395 . S
C326 C327 1.335 . S
C327 C326 1.335 . S
C327 C328 1.398 . S
C327 H354 0.930 . S
C328 C323 1.382 . S
C328 C327 1.398 . S
C328 H355 0.929 . S
C329 O342 1.271 . S
C329 O343 1.251 . S
C330 O344 1.252 . S
C330 O345 1.272 . S
C331 Sm321 2.846 . S
C331 C332 1.506 . S
C331 O346 1.261 . S
C331 O347 1.242 . S
C332 C331 1.506 . S
C332 C333 1.358 . S
C332 C337 1.382 . S
C333 C332 1.358 . S
C333 C334 1.385 1_565 S
C333 H356 0.930 . S
C334 C333 1.385 1_545 S
C334 C335 1.395 . S
C334 H357 0.929 . S
C335 C334 1.395 . S
C335 C336 1.335 . S
C336 C335 1.335 . S
C336 C337 1.398 1_545 S
C336 H358 0.930 . S
C337 C332 1.382 . S
C337 C336 1.398 1_565 S
C337 H359 0.929 . S
C338 O348 1.271 . S
C338 O349 1.251 . S
C339 O350 1.252 . S
C339 O351 1.272 . S
O340 Sm320 2.543 . S
O340 C322 1.261 . S
O341 Sm320 2.450 . S
O341 C322 1.242 . S
O342 Sm320 2.681 . S
O342 Sm321 2.386 . S
O342 C329 1.271 . S
O343 Sm320 2.464 . S
O343 C329 1.251 . S
O344 Sm320 2.396 . S
O344 C330 1.252 . S
O345 Sm321 2.408 . S
O345 C330 1.272 . S
O346 Sm321 2.543 . S
O346 C331 1.261 . S
O347 Sm321 2.450 . S
O347 C331 1.242 . S
O348 Sm320 2.386 . S
O348 Sm321 2.681 . S
O348 C338 1.271 . S
O349 Sm321 2.464 . S
O349 C338 1.251 . S
O350 Sm321 2.396 . S
O350 C339 1.252 . S
O351 Sm320 2.408 . S
O351 C339 1.272 . S
H352 C324 0.930 . S
H353 C325 0.929 . S
H354 C327 0.930 . S
H355 C328 0.929 . S
H356 C333 0.930 . S
H357 C334 0.929 . S
H358 C336 0.930 . S
H359 C337 0.929 . S
Sm360 C362 2.846 . S
Sm360 O380 2.543 . S
Sm360 O381 2.450 . S
Sm360 O382 2.681 . S
Sm360 O383 2.464 . S
Sm360 O384 2.396 . S
Sm360 O388 2.386 . S
Sm360 O391 2.408 . S
Sm361 C371 2.846 . S
Sm361 O382 2.386 . S
Sm361 O385 2.408 . S
Sm361 O386 2.543 . S
Sm361 O387 2.450 . S
Sm361 O388 2.681 . S
Sm361 O389 2.464 . S
Sm361 O390 2.396 . S
C362 Sm360 2.846 . S
C362 C363 1.506 . S
C362 O380 1.261 . S
C362 O381 1.242 . S
C363 C362 1.506 . S
C363 C364 1.358 . S
C363 C368 1.382 . S
C364 C363 1.358 . S
C364 C365 1.385 . S
C364 H392 0.930 . S
C365 C364 1.385 . S
C365 C366 1.395 . S
C365 H393 0.929 . S
C366 C365 1.395 . S
C366 C367 1.335 . S
C367 C366 1.335 . S
C367 C368 1.398 . S
C367 H394 0.930 . S
C368 C363 1.382 . S
C368 C367 1.398 . S
C368 H395 0.929 . S
C369 O382 1.271 . S
C369 O383 1.251 . S
C370 O384 1.252 . S
C370 O385 1.272 . S
C371 Sm361 2.846 . S
C371 C372 1.506 . S
C371 O386 1.261 . S
C371 O387 1.242 . S
C372 C371 1.506 . S
C372 C373 1.358 . S
C372 C377 1.382 . S
C373 C372 1.358 . S
C373 C374 1.385 1_545 S
C373 H396 0.930 . S
C374 C373 1.385 1_565 S
C374 C375 1.395 . S
C374 H397 0.929 . S
C375 C374 1.395 . S
C375 C376 1.335 . S
C376 C375 1.335 . S
C376 C377 1.398 1_565 S
C376 H398 0.930 . S
C377 C372 1.382 . S
C377 C376 1.398 1_545 S
C377 H399 0.929 . S
C378 O388 1.271 . S
C378 O389 1.251 . S
C379 O390 1.252 . S
C379 O391 1.272 . S
O380 Sm360 2.543 . S
O380 C362 1.261 . S
O381 Sm360 2.450 . S
O381 C362 1.242 . S
O382 Sm360 2.681 . S
O382 Sm361 2.386 . S
O382 C369 1.271 . S
O383 Sm360 2.464 . S
O383 C369 1.251 . S
O384 Sm360 2.396 . S
O384 C370 1.252 . S
O385 Sm361 2.408 . S
O385 C370 1.272 . S
O386 Sm361 2.543 . S
O386 C371 1.261 . S
O387 Sm361 2.450 . S
O387 C371 1.242 . S
O388 Sm360 2.386 . S
O388 Sm361 2.681 . S
O388 C378 1.271 . S
O389 Sm361 2.464 . S
O389 C378 1.251 . S
O390 Sm361 2.396 . S
O390 C379 1.252 . S
O391 Sm360 2.408 . S
O391 C379 1.272 . S
H392 C364 0.930 . S
H393 C365 0.929 . S
H394 C367 0.930 . S
H395 C368 0.929 . S
H396 C373 0.930 . S
H397 C374 0.929 . S
H398 C376 0.930 . S
H399 C377 0.929 . S
Sm400 C402 2.846 . S
Sm400 O420 2.543 . S
Sm400 O421 2.450 . S
Sm400 O422 2.681 . S
Sm400 O423 2.464 . S
Sm400 O424 2.396 . S
Sm400 O428 2.386 . S
Sm400 O431 2.408 . S
Sm401 C411 2.846 . S
Sm401 O422 2.386 . S
Sm401 O425 2.408 . S
Sm401 O426 2.543 . S
Sm401 O427 2.450 . S
Sm401 O428 2.681 . S
Sm401 O429 2.464 . S
Sm401 O430 2.396 . S
C402 Sm400 2.846 . S
C402 C403 1.506 . S
C402 O420 1.261 . S
C402 O421 1.242 . S
C403 C402 1.506 . S
C403 C404 1.358 . S
C403 C408 1.382 . S
C404 C403 1.358 . S
C404 C405 1.385 . S
C404 H432 0.930 . S
C405 C404 1.385 . S
C405 C406 1.395 . S
C405 H433 0.929 . S
C406 C405 1.395 . S
C406 C407 1.335 . S
C407 C406 1.335 . S
C407 C408 1.398 . S
C407 H434 0.930 . S
C408 C403 1.382 . S
C408 C407 1.398 . S
C408 H435 0.929 . S
C409 O422 1.271 . S
C409 O423 1.251 . S
C410 O424 1.252 . S
C410 O425 1.272 . S
C411 Sm401 2.846 . S
C411 C412 1.506 . S
C411 O426 1.261 . S
C411 O427 1.242 . S
C412 C411 1.506 . S
C412 C413 1.358 . S
C412 C417 1.382 . S
C413 C412 1.358 . S
C413 C414 1.385 1_545 S
C413 H436 0.930 . S
C414 C413 1.385 1_565 S
C414 C415 1.395 . S
C414 H437 0.929 . S
C415 C414 1.395 . S
C415 C416 1.335 . S
C416 C415 1.335 . S
C416 C417 1.398 1_565 S
C416 H438 0.930 . S
C417 C412 1.382 . S
C417 C416 1.398 1_545 S
C417 H439 0.929 . S
C418 O428 1.271 . S
C418 O429 1.251 . S
C419 O430 1.252 . S
C419 O431 1.272 . S
O420 Sm400 2.543 . S
O420 C402 1.261 . S
O421 Sm400 2.450 . S
O421 C402 1.242 . S
O422 Sm400 2.681 . S
O422 Sm401 2.386 . S
O422 C409 1.271 . S
O423 Sm400 2.464 . S
O423 C409 1.251 . S
O424 Sm400 2.396 . S
O424 C410 1.252 . S
O425 Sm401 2.408 . S
O425 C410 1.272 . S
O426 Sm401 2.543 . S
O426 C411 1.261 . S
O427 Sm401 2.450 . S
O427 C411 1.242 . S
O428 Sm400 2.386 . S
O428 Sm401 2.681 . S
O428 C418 1.271 . S
O429 Sm401 2.464 . S
O429 C418 1.251 . S
O430 Sm401 2.396 . S
O430 C419 1.252 . S
O431 Sm400 2.408 . S
O431 C419 1.272 . S
H432 C404 0.930 . S
H433 C405 0.929 . S
H434 C407 0.930 . S
H435 C408 0.929 . S
H436 C413 0.930 . S
H437 C414 0.929 . S
H438 C416 0.930 . S
H439 C417 0.929 . S
Sm440 C442 2.846 . S
Sm440 O460 2.543 . S
Sm440 O461 2.450 . S
Sm440 O462 2.681 . S
Sm440 O463 2.464 . S
Sm440 O464 2.396 . S
Sm440 O468 2.386 . S
Sm440 O471 2.408 . S
Sm441 C451 2.846 . S
Sm441 O462 2.386 . S
Sm441 O465 2.408 . S
Sm441 O466 2.543 . S
Sm441 O467 2.450 . S
Sm441 O468 2.681 . S
Sm441 O469 2.464 . S
Sm441 O470 2.396 . S
C442 Sm440 2.846 . S
C442 C443 1.506 . S
C442 O460 1.261 . S
C442 O461 1.242 . S
C443 C442 1.506 . S
C443 C444 1.358 . S
C443 C448 1.382 . S
C444 C443 1.358 . S
C444 C445 1.385 . S
C444 H472 0.930 . S
C445 C444 1.385 . S
C445 C446 1.395 . S
C445 H473 0.929 . S
C446 C445 1.395 . S
C446 C447 1.335 . S
C447 C446 1.335 . S
C447 C448 1.398 . S
C447 H474 0.930 . S
C448 C443 1.382 . S
C448 C447 1.398 . S
C448 H475 0.929 . S
C449 O462 1.271 . S
C449 O463 1.251 . S
C450 O464 1.252 . S
C450 O465 1.272 . S
C451 Sm441 2.846 . S
C451 C452 1.506 . S
C451 O466 1.261 . S
C451 O467 1.242 . S
C452 C451 1.506 . S
C452 C453 1.358 . S
C452 C457 1.382 . S
C453 C452 1.358 . S
C453 C454 1.385 1_565 S
C453 H476 0.930 . S
C454 C453 1.385 1_545 S
C454 C455 1.395 . S
C454 H477 0.929 . S
C455 C454 1.395 . S
C455 C456 1.335 . S
C456 C455 1.335 . S
C456 C457 1.398 1_545 S
C456 H478 0.930 . S
C457 C452 1.382 . S
C457 C456 1.398 1_565 S
C457 H479 0.929 . S
C458 O468 1.271 . S
C458 O469 1.251 . S
C459 O470 1.252 . S
C459 O471 1.272 . S
O460 Sm440 2.543 . S
O460 C442 1.261 . S
O461 Sm440 2.450 . S
O461 C442 1.242 . S
O462 Sm440 2.681 . S
O462 Sm441 2.386 . S
O462 C449 1.271 . S
O463 Sm440 2.464 . S
O463 C449 1.251 . S
O464 Sm440 2.396 . S
O464 C450 1.252 . S
O465 Sm441 2.408 . S
O465 C450 1.272 . S
O466 Sm441 2.543 . S
O466 C451 1.261 . S
O467 Sm441 2.450 . S
O467 C451 1.242 . S
O468 Sm440 2.386 . S
O468 Sm441 2.681 . S
O468 C458 1.271 . S
O469 Sm441 2.464 . S
O469 C458 1.251 . S
O470 Sm441 2.396 . S
O470 C459 1.252 . S
O471 Sm440 2.408 . S
O471 C459 1.272 . S
H472 C444 0.930 . S
H473 C445 0.929 . S
H474 C447 0.930 . S
H475 C448 0.929 . S
H476 C453 0.930 . S
H477 C454 0.929 . S
H478 C456 0.930 . S
H479 C457 0.929 . S
Sm480 C482 2.846 . S
Sm480 O500 2.543 . S
Sm480 O501 2.450 . S
Sm480 O502 2.681 . S
Sm480 O503 2.464 . S
Sm480 O504 2.396 . S
Sm480 O508 2.386 . S
Sm480 O511 2.408 . S
Sm481 C491 2.846 . S
Sm481 O502 2.386 . S
Sm481 O505 2.408 . S
Sm481 O506 2.543 . S
Sm481 O507 2.450 . S
Sm481 O508 2.681 . S
Sm481 O509 2.464 . S
Sm481 O510 2.396 . S
C482 Sm480 2.846 . S
C482 C483 1.506 . S
C482 O500 1.261 . S
C482 O501 1.242 . S
C483 C482 1.506 . S
C483 C484 1.358 . S
C483 C488 1.382 . S
C484 C483 1.358 . S
C484 C485 1.385 1_545 S
C484 H512 0.930 . S
C485 C484 1.385 1_565 S
C485 C486 1.395 . S
C485 H513 0.929 . S
C486 C485 1.395 . S
C486 C487 1.335 . S
C487 C486 1.335 . S
C487 C488 1.398 1_565 S
C487 H514 0.930 . S
C488 C483 1.382 . S
C488 C487 1.398 1_545 S
C488 H515 0.929 . S
C489 O502 1.271 . S
C489 O503 1.251 . S
C490 O504 1.252 . S
C490 O505 1.272 . S
C491 Sm481 2.846 . S
C491 C492 1.506 . S
C491 O506 1.261 . S
C491 O507 1.242 . S
C492 C491 1.506 . S
C492 C493 1.358 . S
C492 C497 1.382 . S
C493 C492 1.358 . S
C493 C494 1.385 . S
C493 H516 0.930 . S
C494 C493 1.385 . S
C494 C495 1.395 . S
C494 H517 0.929 . S
C495 C494 1.395 . S
C495 C496 1.335 . S
C496 C495 1.335 . S
C496 C497 1.398 . S
C496 H518 0.930 . S
C497 C492 1.382 . S
C497 C496 1.398 . S
C497 H519 0.929 . S
C498 O508 1.271 . S
C498 O509 1.251 . S
C499 O510 1.252 . S
C499 O511 1.272 . S
O500 Sm480 2.543 . S
O500 C482 1.261 . S
O501 Sm480 2.450 . S
O501 C482 1.242 . S
O502 Sm480 2.681 . S
O502 Sm481 2.386 . S
O502 C489 1.271 . S
O503 Sm480 2.464 . S
O503 C489 1.251 . S
O504 Sm480 2.396 . S
O504 C490 1.252 . S
O505 Sm481 2.408 . S
O505 C490 1.272 . S
O506 Sm481 2.543 . S
O506 C491 1.261 . S
O507 Sm481 2.450 . S
O507 C491 1.242 . S
O508 Sm480 2.386 . S
O508 Sm481 2.681 . S
O508 C498 1.271 . S
O509 Sm481 2.464 . S
O509 C498 1.251 . S
O510 Sm481 2.396 . S
O510 C499 1.252 . S
O511 Sm480 2.408 . S
O511 C499 1.272 . S
H512 C484 0.930 . S
H513 C485 0.929 . S
H514 C487 0.930 . S
H515 C488 0.929 . S
H516 C493 0.930 . S
H517 C494 0.929 . S
H518 C496 0.930 . S
H519 C497 0.929 . S
Sm520 C522 2.846 . S
Sm520 O540 2.543 . S
Sm520 O541 2.450 . S
Sm520 O542 2.681 . S
Sm520 O543 2.464 . S
Sm520 O544 2.396 . S
Sm520 O548 2.386 . S
Sm520 O551 2.408 . S
Sm521 C531 2.846 . S
Sm521 O542 2.386 . S
Sm521 O545 2.408 . S
Sm521 O546 2.543 . S
Sm521 O547 2.450 . S
Sm521 O548 2.681 . S
Sm521 O549 2.464 . S
Sm521 O550 2.396 . S
C522 Sm520 2.846 . S
C522 C523 1.506 . S
C522 O540 1.261 . S
C522 O541 1.242 . S
C523 C522 1.506 . S
C523 C524 1.358 . S
C523 C528 1.382 . S
C524 C523 1.358 . S
C524 C525 1.385 1_565 S
C524 H552 0.930 . S
C525 C524 1.385 1_545 S
C525 C526 1.395 . S
C525 H553 0.929 . S
C526 C525 1.395 . S
C526 C527 1.335 . S
C527 C526 1.335 . S
C527 C528 1.398 1_545 S
C527 H554 0.930 . S
C528 C523 1.382 . S
C528 C527 1.398 1_565 S
C528 H555 0.929 . S
C529 O542 1.271 . S
C529 O543 1.251 . S
C530 O544 1.252 . S
C530 O545 1.272 . S
C531 Sm521 2.846 . S
C531 C532 1.506 . S
C531 O546 1.261 . S
C531 O547 1.242 . S
C532 C531 1.506 . S
C532 C533 1.358 . S
C532 C537 1.382 . S
C533 C532 1.358 . S
C533 C534 1.385 . S
C533 H556 0.930 . S
C534 C533 1.385 . S
C534 C535 1.395 . S
C534 H557 0.929 . S
C535 C534 1.395 . S
C535 C536 1.335 . S
C536 C535 1.335 . S
C536 C537 1.398 . S
C536 H558 0.930 . S
C537 C532 1.382 . S
C537 C536 1.398 . S
C537 H559 0.929 . S
C538 O548 1.271 . S
C538 O549 1.251 . S
C539 O550 1.252 . S
C539 O551 1.272 . S
O540 Sm520 2.543 . S
O540 C522 1.261 . S
O541 Sm520 2.450 . S
O541 C522 1.242 . S
O542 Sm520 2.681 . S
O542 Sm521 2.386 . S
O542 C529 1.271 . S
O543 Sm520 2.464 . S
O543 C529 1.251 . S
O544 Sm520 2.396 . S
O544 C530 1.252 . S
O545 Sm521 2.408 . S
O545 C530 1.272 . S
O546 Sm521 2.543 . S
O546 C531 1.261 . S
O547 Sm521 2.450 . S
O547 C531 1.242 . S
O548 Sm520 2.386 . S
O548 Sm521 2.681 . S
O548 C538 1.271 . S
O549 Sm521 2.464 . S
O549 C538 1.251 . S
O550 Sm521 2.396 . S
O550 C539 1.252 . S
O551 Sm520 2.408 . S
O551 C539 1.272 . S
H552 C524 0.930 . S
H553 C525 0.929 . S
H554 C527 0.930 . S
H555 C528 0.929 . S
H556 C533 0.930 . S
H557 C534 0.929 . S
H558 C536 0.930 . S
H559 C537 0.929 . S
Sm560 C562 2.846 . S
Sm560 O580 2.543 . S
Sm560 O581 2.450 . S
Sm560 O582 2.681 . S
Sm560 O583 2.464 . S
Sm560 O584 2.396 . S
Sm560 O588 2.386 . S
Sm560 O591 2.408 . S
Sm561 C571 2.846 . S
Sm561 O582 2.386 . S
Sm561 O585 2.408 . S
Sm561 O586 2.543 . S
Sm561 O587 2.450 . S
Sm561 O588 2.681 . S
Sm561 O589 2.464 . S
Sm561 O590 2.396 . S
C562 Sm560 2.846 . S
C562 C563 1.506 . S
C562 O580 1.261 . S
C562 O581 1.242 . S
C563 C562 1.506 . S
C563 C564 1.358 . S
C563 C568 1.382 . S
C564 C563 1.358 . S
C564 C565 1.385 1_565 S
C564 H592 0.930 . S
C565 C564 1.385 1_545 S
C565 C566 1.395 . S
C565 H593 0.929 . S
C566 C565 1.395 . S
C566 C567 1.335 . S
C567 C566 1.335 . S
C567 C568 1.398 1_545 S
C567 H594 0.930 . S
C568 C563 1.382 . S
C568 C567 1.398 1_565 S
C568 H595 0.929 . S
C569 O582 1.271 . S
C569 O583 1.251 . S
C570 O584 1.252 . S
C570 O585 1.272 . S
C571 Sm561 2.846 . S
C571 C572 1.506 . S
C571 O586 1.261 . S
C571 O587 1.242 . S
C572 C571 1.506 . S
C572 C573 1.358 . S
C572 C577 1.382 . S
C573 C572 1.358 . S
C573 C574 1.385 . S
C573 H596 0.930 . S
C574 C573 1.385 . S
C574 C575 1.395 . S
C574 H597 0.929 . S
C575 C574 1.395 . S
C575 C576 1.335 . S
C576 C575 1.335 . S
C576 C577 1.398 . S
C576 H598 0.930 . S
C577 C572 1.382 . S
C577 C576 1.398 . S
C577 H599 0.929 . S
C578 O588 1.271 . S
C578 O589 1.251 . S
C579 O590 1.252 . S
C579 O591 1.272 . S
O580 Sm560 2.543 . S
O580 C562 1.261 . S
O581 Sm560 2.450 . S
O581 C562 1.242 . S
O582 Sm560 2.681 . S
O582 Sm561 2.386 . S
O582 C569 1.271 . S
O583 Sm560 2.464 . S
O583 C569 1.251 . S
O584 Sm560 2.396 . S
O584 C570 1.252 . S
O585 Sm561 2.408 . S
O585 C570 1.272 . S
O586 Sm561 2.543 . S
O586 C571 1.261 . S
O587 Sm561 2.450 . S
O587 C571 1.242 . S
O588 Sm560 2.386 . S
O588 Sm561 2.681 . S
O588 C578 1.271 . S
O589 Sm561 2.464 . S
O589 C578 1.251 . S
O590 Sm561 2.396 . S
O590 C579 1.252 . S
O591 Sm560 2.408 . S
O591 C579 1.272 . S
H592 C564 0.930 . S
H593 C565 0.929 . S
H594 C567 0.930 . S
H595 C568 0.929 . S
H596 C573 0.930 . S
H597 C574 0.929 . S
H598 C576 0.930 . S
H599 C577 0.929 . S
Sm600 C602 2.846 . S
Sm600 O620 2.543 . S
Sm600 O621 2.450 . S
Sm600 O622 2.681 . S
Sm600 O623 2.464 . S
Sm600 O624 2.396 . S
Sm600 O628 2.386 . S
Sm600 O631 2.408 . S
Sm601 C611 2.846 . S
Sm601 O622 2.386 . S
Sm601 O625 2.408 . S
Sm601 O626 2.543 . S
Sm601 O627 2.450 . S
Sm601 O628 2.681 . S
Sm601 O629 2.464 . S
Sm601 O630 2.396 . S
C602 Sm600 2.846 . S
C602 C603 1.506 . S
C602 O620 1.261 . S
C602 O621 1.242 . S
C603 C602 1.506 . S
C603 C604 1.358 . S
C603 C608 1.382 . S
C604 C603 1.358 . S
C604 C605 1.385 1_545 S
C604 H632 0.930 . S
C605 C604 1.385 1_565 S
C605 C606 1.395 . S
C605 H633 0.929 . S
C606 C605 1.395 . S
C606 C607 1.335 . S
C607 C606 1.335 . S
C607 C608 1.398 1_565 S
C607 H634 0.930 . S
C608 C603 1.382 . S
C608 C607 1.398 1_545 S
C608 H635 0.929 . S
C609 O622 1.271 . S
C609 O623 1.251 . S
C610 O624 1.252 . S
C610 O625 1.272 . S
C611 Sm601 2.846 . S
C611 C612 1.506 . S
C611 O626 1.261 . S
C611 O627 1.242 . S
C612 C611 1.506 . S
C612 C613 1.358 . S
C612 C617 1.382 . S
C613 C612 1.358 . S
C613 C614 1.385 . S
C613 H636 0.930 . S
C614 C613 1.385 . S
C614 C615 1.395 . S
C614 H637 0.929 . S
C615 C614 1.395 . S
C615 C616 1.335 . S
C616 C615 1.335 . S
C616 C617 1.398 . S
C616 H638 0.930 . S
C617 C612 1.382 . S
C617 C616 1.398 . S
C617 H639 0.929 . S
C618 O628 1.271 . S
C618 O629 1.251 . S
C619 O630 1.252 . S
C619 O631 1.272 . S
O620 Sm600 2.543 . S
O620 C602 1.261 . S
O621 Sm600 2.450 . S
O621 C602 1.242 . S
O622 Sm600 2.681 . S
O622 Sm601 2.386 . S
O622 C609 1.271 . S
O623 Sm600 2.464 . S
O623 C609 1.251 . S
O624 Sm600 2.396 . S
O624 C610 1.252 . S
O625 Sm601 2.408 . S
O625 C610 1.272 . S
O626 Sm601 2.543 . S
O626 C611 1.261 . S
O627 Sm601 2.450 . S
O627 C611 1.242 . S
O628 Sm600 2.386 . S
O628 Sm601 2.681 . S
O628 C618 1.271 . S
O629 Sm601 2.464 . S
O629 C618 1.251 . S
O630 Sm601 2.396 . S
O630 C619 1.252 . S
O631 Sm600 2.408 . S
O631 C619 1.272 . S
H632 C604 0.930 . S
H633 C605 0.929 . S
H634 C607 0.930 . S
H635 C608 0.929 . S
H636 C613 0.930 . S
H637 C614 0.929 . S
H638 C616 0.930 . S
H639 C617 0.929 . S
C19 C379 2.735 . S
C59 C339 2.735 . S
C459 C99 2.735 . S
C139 C419 2.735 . S
C530 C170 2.735 . S
C490 C210 2.735 . S
C610 C250 2.735 . S
C290 C570 2.735 . S
C98 C18 3.041 1_565 S
C138 C58 3.041 1_545 S
C249 C169 3.041 1_545 S
C209 C289 3.041 1_545 S
C418 C338 3.041 . S
C458 C378 3.041 . S
C489 C569 3.041 . S
C529 C609 3.041 . S
C218 C9 1.411 1_556 S
C178 C49 1.411 1_556 S
C89 C298 1.411 . S
C258 C129 1.411 . S
C329 C538 1.411 1_554 S
C498 C369 1.411 1_556 S
C409 C618 1.411 . S
C578 C449 1.411 . S
C50 C10 1.859 1_645 S
C130 C90 1.859 1_665 S
C219 C179 1.859 1_465 S
C259 C299 1.859 1_665 S
C370 C330 1.859 . S
C450 C410 1.859 . S
C499 C539 1.859 . S
C579 C619 1.859 . S
C6 C15 1.966 . S
C46 C55 1.966 . S
C86 C95 1.966 . S
C135 C126 1.966 . S
C175 C166 1.966 . S
C206 C215 1.966 . S
C255 C246 1.966 . S
C295 C286 1.966 . S
C335 C326 1.966 . S
C366 C375 1.966 . S
C415 C406 1.966 . S
C455 C446 1.966 . S
C495 C486 1.966 . S
C535 C526 1.966 . S
C566 C575 1.966 . S
C615 C606 1.966 . S
