# Generated by pormake.
# Topology zfk, (5)-cn, num edge types: 1
# Building blocks:
#     Node 0, Type 0, BuildingBlock: BEQFEK_clean_sbu_0, # of connection points: 5
#     Node 1, Type 0, BuildingBlock: BEQFEK_clean_sbu_0, # of connection points: 5
#     Node 2, Type 0, BuildingBlock: BEQFEK_clean_sbu_0, # of connection points: 5
#     Node 3, Type 0, BuildingBlock: BEQFEK_clean_sbu_0, # of connection points: 5
#     Node 4, Type 0, BuildingBlock: BEQFEK_clean_sbu_0, # of connection points: 5
#     Node 5, Type 0, BuildingBlock: BEQFEK_clean_sbu_0, # of connection points: 5
#     Node 6, Type 0, BuildingBlock: BEQFEK_clean_sbu_0, # of connection points: 5
#     Node 7, Type 0, BuildingBlock: BEQFEK_clean_sbu_0, # of connection points: 5
#     Node 8, Type 0, BuildingBlock: BEQFEK_clean_sbu_0, # of connection points: 5
#     Node 9, Type 0, BuildingBlock: BEQFEK_clean_sbu_0, # of connection points: 5
#     Node 10, Type 0, BuildingBlock: BEQFEK_clean_sbu_0, # of connection points: 5
#     Node 11, Type 0, BuildingBlock: BEQFEK_clean_sbu_0, # of connection points: 5
#     Node 12, Type 0, BuildingBlock: BEQFEK_clean_sbu_0, # of connection points: 5
#     Node 13, Type 0, BuildingBlock: BEQFEK_clean_sbu_0, # of connection points: 5
#     Node 14, Type 0, BuildingBlock: BEQFEK_clean_sbu_0, # of connection points: 5
#     Node 15, Type 0, BuildingBlock: BEQFEK_clean_sbu_0, # of connection points: 5
#     Edge 16, Type (0, 0), BuildingBlock: TEMPAE_clean_linker_10, # of connection points: 2
#     Edge 17, Type (0, 0), BuildingBlock: TEMPAE_clean_linker_10, # of connection points: 2
#     Edge 18, Type (0, 0), BuildingBlock: TEMPAE_clean_linker_10, # of connection points: 2
#     Edge 19, Type (0, 0), BuildingBlock: TEMPAE_clean_linker_10, # of connection points: 2
#     Edge 20, Type (0, 0), BuildingBlock: TEMPAE_clean_linker_10, # of connection points: 2
#     Edge 21, Type (0, 0), BuildingBlock: TEMPAE_clean_linker_10, # of connection points: 2
#     Edge 22, Type (0, 0), BuildingBlock: TEMPAE_clean_linker_10, # of connection points: 2
#     Edge 23, Type (0, 0), BuildingBlock: TEMPAE_clean_linker_10, # of connection points: 2
#     Edge 24, Type (0, 0), BuildingBlock: TEMPAE_clean_linker_10, # of connection points: 2
#     Edge 25, Type (0, 0), BuildingBlock: TEMPAE_clean_linker_10, # of connection points: 2
#     Edge 26, Type (0, 0), BuildingBlock: TEMPAE_clean_linker_10, # of connection points: 2
#     Edge 27, Type (0, 0), BuildingBlock: TEMPAE_clean_linker_10, # of connection points: 2
#     Edge 28, Type (0, 0), BuildingBlock: TEMPAE_clean_linker_10, # of connection points: 2
#     Edge 29, Type (0, 0), BuildingBlock: TEMPAE_clean_linker_10, # of connection points: 2
#     Edge 30, Type (0, 0), BuildingBlock: TEMPAE_clean_linker_10, # of connection points: 2
#     Edge 31, Type (0, 0), BuildingBlock: TEMPAE_clean_linker_10, # of connection points: 2
#     Edge 32, Type (0, 0), BuildingBlock: TEMPAE_clean_linker_10, # of connection points: 2
#     Edge 33, Type (0, 0), BuildingBlock: TEMPAE_clean_linker_10, # of connection points: 2
#     Edge 34, Type (0, 0), BuildingBlock: TEMPAE_clean_linker_10, # of connection points: 2
#     Edge 35, Type (0, 0), BuildingBlock: TEMPAE_clean_linker_10, # of connection points: 2
#     Edge 36, Type (0, 0), BuildingBlock: TEMPAE_clean_linker_10, # of connection points: 2
#     Edge 37, Type (0, 0), BuildingBlock: TEMPAE_clean_linker_10, # of connection points: 2
#     Edge 38, Type (0, 0), BuildingBlock: TEMPAE_clean_linker_10, # of connection points: 2
#     Edge 39, Type (0, 0), BuildingBlock: TEMPAE_clean_linker_10, # of connection points: 2
#     Edge 40, Type (0, 0), BuildingBlock: TEMPAE_clean_linker_10, # of connection points: 2
#     Edge 41, Type (0, 0), BuildingBlock: TEMPAE_clean_linker_10, # of connection points: 2
#     Edge 42, Type (0, 0), BuildingBlock: TEMPAE_clean_linker_10, # of connection points: 2
#     Edge 43, Type (0, 0), BuildingBlock: TEMPAE_clean_linker_10, # of connection points: 2
#     Edge 44, Type (0, 0), BuildingBlock: TEMPAE_clean_linker_10, # of connection points: 2
#     Edge 45, Type (0, 0), BuildingBlock: TEMPAE_clean_linker_10, # of connection points: 2
#     Edge 46, Type (0, 0), BuildingBlock: TEMPAE_clean_linker_10, # of connection points: 2
#     Edge 47, Type (0, 0), BuildingBlock: TEMPAE_clean_linker_10, # of connection points: 2
#     Edge 48, Type (0, 0), BuildingBlock: TEMPAE_clean_linker_10, # of connection points: 2
#     Edge 49, Type (0, 0), BuildingBlock: TEMPAE_clean_linker_10, # of connection points: 2
#     Edge 50, Type (0, 0), BuildingBlock: TEMPAE_clean_linker_10, # of connection points: 2
#     Edge 51, Type (0, 0), BuildingBlock: TEMPAE_clean_linker_10, # of connection points: 2
#     Edge 52, Type (0, 0), BuildingBlock: TEMPAE_clean_linker_10, # of connection points: 2
#     Edge 53, Type (0, 0), BuildingBlock: TEMPAE_clean_linker_10, # of connection points: 2
#     Edge 54, Type (0, 0), BuildingBlock: TEMPAE_clean_linker_10, # of connection points: 2
#     Edge 55, Type (0, 0), BuildingBlock: TEMPAE_clean_linker_10, # of connection points: 2
# Relax obj value: 0.168
# Max RMSD: 0.138
# Mean RMSD: 0.138
data_MOF--net-zfk--node1-BEQFEK_clean_sbu_0--edge1-TEMPAE_clean_linker_10
_symmetry_space_group_name_H-M    P1
_symmetry_Int_Tables_number       1
_symmetry_cell_setting            triclinic
loop_
_symmetry_equiv_pos_as_xyz
'x, y, z'
_cell_length_a     31.134974
_cell_length_b     31.053245
_cell_length_c     75.191571
_cell_angle_alpha  90.049748
_cell_angle_beta   89.982675
_cell_angle_gamma 90.024917
loop_
_atom_site_label
_atom_site_type_symbol
_atom_site_fract_x
_atom_site_fract_y
_atom_site_fract_z
_atom_type_partial_charge
Co0 Co 0.00984 0.31796 0.10293 0.0
Co1 Co 0.03739 0.33932 0.14276 0.0
C2 C -0.00046 0.25558 0.13379 0.0
O3 O -0.00399 0.26758 0.11765 0.0
O4 O 0.01491 0.28033 0.14576 0.0
C5 C 0.9561 0.28882 0.07271 0.0
O6 O 0.92485 0.28153 0.08405 0.0
C7 C 0.04794 0.3576 0.18187 0.0
C8 C 0.09376 0.41186 0.1803 0.0
C9 C 0.07093 0.38687 0.19224 0.0
N10 N 0.05674 0.36536 0.1646 0.0
N11 N 0.08452 0.39752 0.16387 0.0
C12 C 0.01672 0.32431 0.18812 0.0
H13 H 0.99179 0.31864 0.17783 0.0
H14 H 0.00144 0.33435 0.2008 0.0
H15 H 0.03413 0.29362 0.19038 0.0
C16 C 0.97229 0.40461 0.10662 0.0
N17 N 0.98922 0.36864 0.11366 0.0
N18 N -0.00292 0.37516 0.13067 0.0
C19 C 0.98285 0.41456 0.13512 0.0
C20 C 0.96814 0.43516 0.11998 0.0
C21 C 0.96807 0.41205 0.08705 0.0
H22 H 0.94827 0.38604 0.08112 0.0
H23 H 0.95317 0.44379 0.08421 0.0
H24 H 0.00035 0.41053 0.08082 0.0
O25 O 0.07201 0.32017 0.10096 0.0
O26 O 0.09106 0.33401 0.12876 0.0
H27 H 0.96576 0.46163 0.15492 0.0
H28 H 0.98598 0.41132 0.16363 0.0
C29 C 0.98948 0.43539 0.15286 0.0
H30 H 0.022 0.44987 0.15338 0.0
H31 H 0.09686 0.41007 0.15205 0.0
O32 O 0.99072 0.30629 0.07807 0.0
C33 C 0.10073 0.32644 0.11262 0.0
Co34 Co 0.15127 0.02011 0.60095 0.0
Co35 Co 0.14455 0.04968 0.6414 0.0
C36 C 0.2148 0.99451 0.63043 0.0
O37 O 0.19915 0.99558 0.61479 0.0
O38 O 0.19666 0.01397 0.64332 0.0
C39 C 0.1444 0.9727 0.56407 0.0
O40 O 0.10644 0.95482 0.56582 0.0
C41 C 0.13443 0.06368 0.68077 0.0
C42 C 0.08914 0.1185 0.68037 0.0
C43 C 0.1109 0.09111 0.6917 0.0
N44 N 0.12644 0.07423 0.6637 0.0
N45 N 0.09986 0.10744 0.66365 0.0
C46 C 0.16209 0.02678 0.68637 0.0
H47 H 0.15986 0.00031 0.67648 0.0
H48 H 0.15267 0.01492 0.69974 0.0
H49 H 0.19599 0.03774 0.6869 0.0
C50 C 0.05712 0.00706 0.60775 0.0
N51 N 0.09813 0.01271 0.61311 0.0
N52 N 0.09829 0.01934 0.63046 0.0
C53 C 0.05816 0.01484 0.63674 0.0
C54 C 0.03059 0.00838 0.6226 0.0
C55 C 0.0429 0.00862 0.58879 0.0
H56 H 0.06861 0.02227 0.58027 0.0
H57 H 0.03509 0.9755 0.58429 0.0
H58 H 0.01337 0.02838 0.58746 0.0
O59 O 0.16316 0.08126 0.59855 0.0
O60 O 0.15967 0.10089 0.62691 0.0
H61 H 0.03729 0.05135 0.65934 0.0
H62 H 0.01718 -0.00262 0.65862 0.0
C63 C 0.0458 0.01772 0.65595 0.0
H64 H 0.07272 0.00693 0.66449 0.0
H65 H 0.08819 0.12196 0.65211 0.0
O66 O 0.15988 0.99587 0.57646 0.0
C67 C 0.16592 0.10978 0.61059 0.0
Co68 Co 0.47428 0.16853 0.10215 0.0
Co69 Co 0.44538 0.15957 0.1427 0.0
C70 C 0.5068 0.22674 0.132 0.0
O71 O 0.50486 0.21289 0.11606 0.0
O72 O 0.48595 0.20857 0.14454 0.0
C73 C 0.52626 0.1637 0.06754 0.0
O74 O 0.55583 0.13818 0.07416 0.0
C75 C 0.4307 0.14645 0.18222 0.0
C76 C 0.36875 0.11192 0.18064 0.0
C77 C 0.39877 0.12727 0.19267 0.0
N78 N 0.41985 0.14191 0.16493 0.0
N79 N 0.38269 0.12143 0.16422 0.0
C80 C 0.4694 0.17071 0.18842 0.0
H81 H 0.48044 0.1935 0.17805 0.0
H82 H 0.49576 0.14758 0.1911 0.0
H83 H 0.4622 0.18864 0.20084 0.0
C84 C 0.48191 0.07291 0.10689 0.0
N85 N 0.47732 0.11338 0.11321 0.0
N86 N 0.46909 0.11139 0.13042 0.0
C87 C 0.4701 0.07002 0.13563 0.0
C88 C 0.47708 0.04419 0.12093 0.0
C89 C 0.48521 0.06182 0.08759 0.0
H90 H 0.47255 0.08847 0.0793 0.0
H91 H 0.51949 0.05656 0.08419 0.0
H92 H 0.46745 0.03164 0.08465 0.0
O93 O 0.4146 0.18769 0.1011 0.0
O94 O 0.39541 0.18149 0.1294 0.0
H95 H 0.42865 0.05088 0.1569 0.0
H96 H 0.47935 0.0234 0.15652 0.0
C97 C 0.46346 0.05497 0.15434 0.0
H98 H 0.47681 0.07879 0.16384 0.0
H99 H 0.36675 0.11385 0.15241 0.0
O100 O 0.49429 0.17487 0.07701 0.0
C101 C 0.38697 0.1915 0.1134 0.0
Co102 Co 0.34104 0.47643 0.59958 0.0
Co103 Co 0.34398 0.44576 0.64012 0.0
C104 C 0.2783 0.50709 0.62798 0.0
O105 O 0.29411 0.50573 0.61236 0.0
O106 O 0.29503 0.48611 0.6408 0.0
C107 C 0.32144 0.53067 0.56921 0.0
O108 O 0.30543 0.55709 0.58113 0.0
C109 C 0.35468 0.43409 0.67978 0.0
C110 C 0.37845 0.36705 0.67984 0.0
C111 C 0.36836 0.40102 0.69101 0.0
N112 N 0.35714 0.42009 0.66281 0.0
N113 N 0.37129 0.37997 0.66307 0.0
C114 C 0.33803 0.47744 0.68503 0.0
H115 H 0.31697 0.49069 0.67449 0.0
H116 H 0.36551 0.49977 0.68686 0.0
H117 H 0.32013 0.47544 0.69778 0.0
C118 C 0.43453 0.48558 0.60702 0.0
N119 N 0.39359 0.47979 0.61235 0.0
N120 N 0.3934 0.47017 0.62944 0.0
C121 C 0.43387 0.47098 0.63559 0.0
C122 C 0.46137 0.47966 0.62159 0.0
C123 C 0.44763 0.49119 0.58803 0.0
H124 H 0.42464 0.47439 0.57914 0.0
H125 H 0.44698 0.52601 0.58473 0.0
H126 H 0.4806 0.47884 0.58569 0.0
O127 O 0.32313 0.41629 0.59746 0.0
O128 O 0.32515 0.39614 0.62576 0.0
H129 H 0.44594 0.42699 0.65689 0.0
H130 H 0.47885 0.47476 0.65745 0.0
C131 C 0.44624 0.46221 0.65448 0.0
H132 H 0.42294 0.47778 0.66356 0.0
H133 H 0.3762 0.3613 0.65171 0.0
O134 O 0.34186 0.49742 0.5744 0.0
C135 C 0.31806 0.38804 0.60946 0.0
Co136 Co 0.01944 0.17004 0.91531 0.0
Co137 Co 0.04944 0.16544 0.87485 0.0
C138 C 0.9859 0.22956 0.88605 0.0
O139 O 0.98805 0.21423 0.90173 0.0
O140 O 0.00731 0.21308 0.87327 0.0
C141 C 0.96806 0.15769 0.94996 0.0
O142 O 0.9441 0.12612 0.94392 0.0
C143 C 0.06088 0.15317 0.83542 0.0
C144 C 0.12295 0.11862 0.8355 0.0
C145 C 0.09072 0.13318 0.82438 0.0
N146 N 0.07478 0.15004 0.85235 0.0
N147 N 0.11223 0.12997 0.85218 0.0
C148 C 0.01858 0.17196 0.83015 0.0
H149 H -0.00454 0.1699 0.84135 0.0
H150 H 0.00551 0.15516 0.81829 0.0
H151 H 0.02323 0.20641 0.82673 0.0
C152 C 0.01595 0.07435 0.9092 0.0
N153 N 0.01913 0.11555 0.90357 0.0
N154 N 0.02705 0.11545 0.88633 0.0
C155 C 0.02682 0.0746 0.88038 0.0
C156 C 0.02101 0.04714 0.89465 0.0
C157 C 0.01416 0.06118 0.9283 0.0
H158 H 0.02435 0.0881 0.93704 0.0
H159 H 0.98075 0.0518 0.93167 0.0
H160 H 0.03505 0.03278 0.93063 0.0
O161 O 0.07798 0.1921 0.91692 0.0
O162 O 0.09839 0.18871 0.88864 0.0
H163 H 0.066 0.05871 0.85793 0.0
H164 H 0.01587 0.03019 0.85877 0.0
C165 C 0.03149 0.06176 0.86128 0.0
H166 H 0.01656 0.08631 0.85257 0.0
H167 H 0.1299 0.12278 0.86358 0.0
O168 O -0.003 0.17431 0.94019 0.0
C169 C 0.1057 0.19822 0.90481 0.0
Co170 Co 0.32454 0.03398 0.41782 0.0
Co171 Co 0.32762 0.06183 0.37702 0.0
C172 C 0.25994 0.00355 0.39002 0.0
O173 O 0.27652 0.00559 0.40547 0.0
O174 O 0.27661 0.02321 0.37679 0.0
C175 C 0.30661 0.97871 0.44801 0.0
O176 O 0.29695 0.9496 0.43597 0.0
C177 C 0.33846 0.07245 0.3372 0.0
C178 C 0.37142 0.13547 0.33728 0.0
C179 C 0.35683 0.10337 0.32601 0.0
N180 N 0.34277 0.08582 0.3542 0.0
N181 N 0.36229 0.1236 0.35402 0.0
C182 C 0.31593 0.03183 0.33198 0.0
H183 H 0.29336 0.02162 0.34257 0.0
H184 H 0.34004 0.00591 0.33011 0.0
H185 H 0.29822 0.03635 0.31931 0.0
C186 C 0.41725 0.01796 0.41003 0.0
N187 N 0.37671 0.0272 0.40501 0.0
N188 N 0.37644 0.03588 0.38784 0.0
C189 C 0.41641 0.03114 0.38135 0.0
C190 C 0.44382 0.02065 0.39519 0.0
C191 C 0.4307 0.01107 0.4289 0.0
H192 H 0.40773 0.02681 0.43812 0.0
H193 H 0.43089 0.976 0.43171 0.0
H194 H 0.46356 0.02379 0.43121 0.0
O195 O 0.30911 0.09484 0.41935 0.0
O196 O 0.31073 0.11315 0.39084 0.0
H197 H 0.43226 0.07082 0.35906 0.0
H198 H 0.4587 0.01923 0.35908 0.0
C199 C 0.42821 0.03617 0.36216 0.0
H200 H 0.40241 0.02275 0.35367 0.0
H201 H 0.3698 0.14122 0.36543 0.0
O202 O 0.3235 0.01409 0.44308 0.0
C203 C 0.30444 0.12248 0.40709 0.0
Co204 Co 0.47274 0.31887 0.91424 0.0
Co205 Co 0.44597 0.3315 0.87383 0.0
C206 C 0.46542 0.24649 0.88617 0.0
O207 O 0.47023 0.26326 0.90149 0.0
O208 O 0.4587 0.26937 0.8724 0.0
C209 C 0.5321 0.30147 0.94576 0.0
O210 O 0.56668 0.31393 0.93719 0.0
C211 C 0.43235 0.34672 0.8345 0.0
C212 C 0.3869 0.40119 0.83628 0.0
C213 C 0.40805 0.37511 0.82418 0.0
N214 N 0.42585 0.35614 0.85182 0.0
N215 N 0.39861 0.3887 0.85267 0.0
C216 C 0.45947 0.31007 0.82814 0.0
H217 H 0.46308 0.2855 0.83871 0.0
H218 H 0.49188 0.32236 0.82469 0.0
H219 H 0.44517 0.29514 0.8161 0.0
C220 C 0.52174 0.39821 0.90546 0.0
N221 N 0.50084 0.362 0.90065 0.0
N222 N 0.49275 0.36365 0.88345 0.0
C223 C 0.51076 0.39936 0.87668 0.0
C224 C 0.52824 0.42344 0.89041 0.0
C225 C 0.52696 0.41247 0.92435 0.0
H226 H 0.56165 0.41282 0.92773 0.0
H227 H 0.51456 0.44574 0.92606 0.0
H228 H 0.5098 0.39045 0.93353 0.0
O229 O 0.41337 0.33517 0.91798 0.0
O230 O 0.39465 0.33652 0.88956 0.0
H231 H 0.47555 0.42907 0.85551 0.0
H232 H 0.53271 0.43638 0.85422 0.0
C233 C 0.50693 0.41311 0.85767 0.0
H234 H 0.50918 0.38464 0.84881 0.0
H235 H 0.38786 0.40244 0.86453 0.0
O236 O 0.49549 0.30407 0.93834 0.0
C237 C 0.38495 0.33867 0.90599 0.0
Co238 Co 0.16296 0.49881 0.41405 0.0
Co239 Co 0.15235 0.46712 0.37392 0.0
C240 C 0.22939 0.51248 0.3841 0.0
O241 O 0.21347 0.5149 0.39966 0.0
O242 O 0.20868 0.49513 0.37135 0.0
C243 C 0.20987 0.5207 0.44387 0.0
O244 O 0.23811 0.50207 0.43343 0.0
C245 C 0.13699 0.45153 0.33486 0.0
C246 C 0.09092 0.39755 0.33681 0.0
C247 C 0.11159 0.4239 0.32469 0.0
N248 N 0.13108 0.442 0.35219 0.0
N249 N 0.10395 0.40931 0.35314 0.0
C250 C 0.16401 0.48809 0.32838 0.0
H251 H 0.16761 0.51278 0.33896 0.0
H252 H 0.14965 0.50272 0.3163 0.0
H253 H 0.19638 0.47574 0.32491 0.0
C254 C 0.07188 0.52217 0.40717 0.0
N255 N 0.11181 0.51217 0.40162 0.0
N256 N 0.11075 0.50445 0.38437 0.0
C257 C 0.07102 0.51245 0.37831 0.0
C258 C 0.04451 0.5218 0.39257 0.0
C259 C 0.05864 0.5228 0.42627 0.0
H260 H 0.08645 0.53038 0.43493 0.0
H261 H 0.03267 0.54675 0.42836 0.0
H262 H 0.04596 0.4906 0.42995 0.0
O263 O 0.16673 0.43704 0.41755 0.0
O264 O 0.1615 0.41609 0.38941 0.0
H265 H 0.04771 0.47278 0.35704 0.0
H266 H 0.02854 0.52715 0.35658 0.0
C267 C 0.05699 0.50672 0.35941 0.0
H268 H 0.08344 0.51561 0.35025 0.0
H269 H 0.09347 0.39565 0.36506 0.0
O270 O 0.17127 0.52473 0.43838 0.0
C271 C 0.1664 0.40762 0.40585 0.0
Co272 Co 0.97735 0.66923 0.91513 0.0
Co273 Co 0.93956 0.66687 0.87556 0.0
C274 C 0.00668 0.72973 0.88573 0.0
O275 O 0.00842 0.71316 0.90118 0.0
O276 O 0.98169 0.71466 0.87381 0.0
C277 C 0.00916 0.70707 0.94571 0.0
O278 O 0.00256 0.73987 0.93504 0.0
C279 C 0.92562 0.65445 0.83614 0.0
C280 C 0.85903 0.62997 0.83665 0.0
C281 C 0.89274 0.63886 0.82519 0.0
N282 N 0.91188 0.65373 0.85318 0.0
N283 N 0.87191 0.63944 0.85325 0.0
C284 C 0.96879 0.67087 0.83063 0.0
H285 H 0.98163 0.69351 0.8407 0.0
H286 H 0.99141 0.6434 0.8295 0.0
H287 H 0.9668 0.68726 0.81754 0.0
C288 C 0.98076 0.57449 0.90802 0.0
N289 N 0.97524 0.61569 0.9028 0.0
N290 N 0.96282 0.616 0.88602 0.0
C291 C 0.96143 0.57526 0.87996 0.0
C292 C 0.97166 0.54751 0.89372 0.0
C293 C 0.99025 0.56132 0.92673 0.0
H294 H 0.97907 0.58636 0.93618 0.0
H295 H 0.02549 0.55758 0.92828 0.0
H296 H 0.97479 0.53002 0.92989 0.0
O297 O 0.91933 0.69178 0.91828 0.0
O298 O 0.89277 0.68906 0.89088 0.0
H299 H 0.91563 0.56396 0.85927 0.0
H300 H 0.96248 0.53 0.85806 0.0
C301 C 0.95091 0.56293 0.86121 0.0
H302 H 0.96634 0.58581 0.85191 0.0
H303 H 0.85356 0.63543 0.86475 0.0
O304 O 0.00187 0.66912 0.9399 0.0
C305 C 0.889 0.69809 0.90732 0.0
Co306 Co 0.8218 0.95129 0.41879 0.0
Co307 Co 0.82813 0.91952 0.37851 0.0
C308 C 0.76053 0.98035 0.38951 0.0
O309 O 0.77557 0.97964 0.40527 0.0
O310 O 0.77804 0.95903 0.3769 0.0
C311 C 0.80167 0.00743 0.44874 0.0
O312 O 0.79137 0.03605 0.43662 0.0
C313 C 0.84384 0.90662 0.3392 0.0
C314 C 0.87736 0.84396 0.34045 0.0
C315 C 0.86466 0.87588 0.32877 0.0
N316 N 0.84487 0.89345 0.3563 0.0
N317 N 0.86436 0.85565 0.35679 0.0
C318 C 0.82681 0.94932 0.33335 0.0
H319 H 0.82451 0.97174 0.34481 0.0
H320 H 0.8477 0.96328 0.32286 0.0
H321 H 0.79423 0.94478 0.32768 0.0
C322 C 0.91543 0.96553 0.41221 0.0
N323 N 0.87527 0.95596 0.40675 0.0
N324 N 0.87641 0.94564 0.38973 0.0
C325 C 0.91694 0.9496 0.38377 0.0
C326 C 0.9432 0.9613 0.39782 0.0
C327 C 0.92727 0.97465 0.43111 0.0
H328 H 0.90422 0.95885 0.44027 0.0
H329 H 0.92583 0.00993 0.4334 0.0
H330 H 0.9604 0.9635 0.43401 0.0
O331 O 0.80487 0.89093 0.42083 0.0
O332 O 0.80899 0.86976 0.3927 0.0
H333 H 0.93406 0.90825 0.36214 0.0
H334 H 0.96138 0.95939 0.36203 0.0
C335 C 0.93035 0.94315 0.36484 0.0
H336 H 0.90561 0.95651 0.35583 0.0
H337 H 0.8701 0.8384 0.36845 0.0
O338 O 0.81932 0.97231 0.44393 0.0
C339 C 0.80088 0.86219 0.40896 0.0
Co340 Co 0.52325 0.82113 0.91833 0.0
Co341 Co 0.56214 0.83187 0.87933 0.0
C342 C 0.53212 0.74721 0.89206 0.0
O343 O 0.52236 0.76417 0.90693 0.0
O344 O 0.54668 0.76981 0.87926 0.0
C345 C 0.46979 0.7836 0.94553 0.0
O346 O 0.4574 0.75846 0.93244 0.0
C347 C 0.5711 0.84416 0.83991 0.0
C348 C 0.63517 0.87466 0.83881 0.0
C349 C 0.60156 0.86076 0.82826 0.0
N350 N 0.58596 0.84849 0.85666 0.0
N351 N 0.6243 0.86676 0.85581 0.0
C352 C 0.52985 0.82238 0.83515 0.0
H353 H 0.51273 0.81146 0.84729 0.0
H354 H 0.50912 0.84489 0.82758 0.0
H355 H 0.53664 0.7944 0.8264 0.0
C356 C 0.47623 0.89859 0.90679 0.0
N357 N 0.50073 0.86411 0.90304 0.0
N358 N 0.51593 0.86788 0.88674 0.0
C359 C 0.50111 0.90476 0.87961 0.0
C360 C 0.47549 0.92545 0.89205 0.0
C361 C 0.45997 0.90884 0.92502 0.0
H362 H 0.44226 0.88068 0.93037 0.0
H363 H 0.43863 0.93748 0.9249 0.0
H364 H 0.48769 0.91505 0.93395 0.0
O365 O 0.58368 0.83301 0.92367 0.0
O366 O 0.61005 0.83825 0.89633 0.0
H367 H 0.50449 0.9566 0.86023 0.0
H368 H 0.50927 0.90302 0.85144 0.0
C369 C 0.51795 0.92411 0.86275 0.0
H370 H 0.55344 0.92652 0.86344 0.0
H371 H 0.64329 0.87372 0.86687 0.0
O372 O 0.49444 0.81527 0.94207 0.0
C373 C 0.6151 0.83843 0.91313 0.0
Co374 Co 0.65971 0.4884 0.41549 0.0
Co375 Co 0.65089 0.52076 0.37532 0.0
C376 C 0.72864 0.47809 0.38612 0.0
O377 O 0.71177 0.47486 0.40149 0.0
O378 O 0.70822 0.49487 0.37319 0.0
C379 C 0.70582 0.4679 0.44553 0.0
O380 O 0.73324 0.48888 0.43549 0.0
C381 C 0.63804 0.54268 0.33631 0.0
C382 C 0.58901 0.59348 0.33959 0.0
C383 C 0.61257 0.5718 0.32678 0.0
N384 N 0.62925 0.54706 0.35382 0.0
N385 N 0.60004 0.57763 0.35555 0.0
C386 C 0.67178 0.51313 0.32914 0.0
H387 H 0.69552 0.50507 0.33959 0.0
H388 H 0.65636 0.48281 0.32464 0.0
H389 H 0.68845 0.52809 0.31765 0.0
C390 C 0.56945 0.46399 0.40724 0.0
N391 N 0.60986 0.47394 0.4023 0.0
N392 N 0.61028 0.48131 0.38503 0.0
C393 C 0.57128 0.47272 0.37835 0.0
C394 C 0.5434 0.46388 0.39221 0.0
C395 C 0.55442 0.46426 0.42612 0.0
H396 H 0.58177 0.45936 0.43535 0.0
H397 H 0.52988 0.43879 0.42814 0.0
H398 H 0.5392 0.49579 0.42907 0.0
O399 O 0.66084 0.54996 0.41956 0.0
O400 O 0.65749 0.57117 0.39144 0.0
H401 H 0.54763 0.51047 0.35653 0.0
H402 H 0.53282 0.45484 0.35579 0.0
C403 C 0.55928 0.47742 0.35916 0.0
H404 H 0.58744 0.47068 0.35056 0.0
H405 H 0.58755 0.58773 0.36774 0.0
O406 O 0.66776 0.46172 0.43971 0.0
C407 C 0.66061 0.57955 0.40797 0.0
Co408 Co 0.97462 0.83289 0.104 0.0
Co409 Co 0.96218 0.83052 0.14585 0.0
C410 C 0.99104 0.7544 0.12883 0.0
O411 O 0.98695 0.7759 0.1145 0.0
O412 O 0.98496 0.77174 0.14402 0.0
C413 C 0.02246 0.80402 0.07339 0.0
O414 O 0.04589 0.78432 0.08542 0.0
C415 C 0.94981 0.83585 0.18582 0.0
C416 C 0.91342 0.89698 0.1866 0.0
C417 C 0.93017 0.86505 0.19734 0.0
N418 N 0.94506 0.85039 0.16903 0.0
N419 N 0.92281 0.88662 0.16971 0.0
C420 C 0.97377 0.79587 0.19065 0.0
H421 H -0.00158 0.78856 0.18041 0.0
H422 H 0.98906 0.79936 0.20391 0.0
H423 H 0.95086 0.76852 0.19121 0.0
C424 C 0.01401 0.91645 0.11419 0.0
N425 N 6e-05 0.87645 0.11796 0.0
N426 N -6e-05 0.87127 0.13534 0.0
C427 C 0.01668 0.90651 0.14301 0.0
C428 C 0.02418 0.93723 0.13004 0.0
C429 C 0.00929 0.93714 0.09635 0.0
H430 H 0.98518 0.9634 0.09715 0.0
H431 H -0.00101 0.91331 0.08622 0.0
H432 H 0.04034 0.95179 0.09235 0.0
O433 O 0.91229 0.83869 0.10414 0.0
O434 O 0.90654 0.82868 0.13318 0.0
H435 H -0.00436 0.92935 0.16859 0.0
H436 H 0.0523 0.93186 0.1651 0.0
C437 C 0.02319 0.91208 0.16262 0.0
H438 H 0.02678 0.88029 0.16918 0.0
H439 H 0.91447 0.90467 0.15853 0.0
O440 O 0.99296 0.82964 0.07849 0.0
C441 C 0.88947 0.83283 0.11791 0.0
Co442 Co 0.65389 0.97009 0.60333 0.0
Co443 Co 0.64925 0.93954 0.64387 0.0
C444 C 0.7151 0.00065 0.63255 0.0
O445 O 0.69973 -0.00131 0.61689 0.0
O446 O 0.69816 0.97989 0.64537 0.0
C447 C 0.64519 0.01689 0.56629 0.0
O448 O 0.60886 0.03753 0.56867 0.0
C449 C 0.63579 0.9289 0.68337 0.0
C450 C 0.61449 0.86109 0.68368 0.0
C451 C 0.62223 0.89588 0.69481 0.0
N452 N 0.63548 0.91381 0.66652 0.0
N453 N 0.62292 0.87323 0.66692 0.0
C454 C 0.64652 0.97457 0.68787 0.0
H455 H 0.64637 0.99481 0.6757 0.0
H456 H 0.62308 0.98757 0.69761 0.0
H457 H 0.67914 0.97593 0.69378 0.0
C458 C 0.55925 0.97843 0.61012 0.0
N459 N 0.60021 0.97328 0.61558 0.0
N460 N 0.60005 0.96413 0.63274 0.0
C461 C 0.55944 0.96507 0.63878 0.0
C462 C 0.53221 0.97331 0.62467 0.0
C463 C 0.54585 0.98117 0.59108 0.0
H464 H 0.57144 0.96825 0.58231 0.0
H465 H 0.5397 0.01537 0.58768 0.0
H466 H 0.51563 0.96295 0.58884 0.0
O467 O 0.67114 0.90996 0.60122 0.0
O468 O 0.66893 0.88994 0.62954 0.0
H469 H 0.54758 0.92202 0.66043 0.0
H470 H 0.51392 0.96931 0.66047 0.0
C471 C 0.54674 0.95709 0.65769 0.0
H472 H 0.56954 0.97357 0.6667 0.0
H473 H 0.6197 0.8538 0.65567 0.0
O474 O 0.6604 0.99307 0.57852 0.0
C475 C 0.67619 0.88178 0.61324 0.0
Co476 Co 0.52089 0.66385 0.10318 0.0
Co477 Co 0.54584 0.66634 0.14438 0.0
C478 C 0.48307 0.72699 0.13079 0.0
O479 O 0.48935 0.71101 0.11537 0.0
O480 O 0.50056 0.7108 0.1446 0.0
C481 C 0.46705 0.67968 0.07257 0.0
O482 O 0.44136 0.6971 0.08441 0.0
C483 C 0.55734 0.65474 0.1841 0.0
C484 C 0.62558 0.6353 0.18421 0.0
C485 C 0.59068 0.64159 0.19533 0.0
N486 N 0.5721 0.65527 0.1672 0.0
N487 N 0.61299 0.64392 0.16751 0.0
C488 C 0.5128 0.66779 0.18924 0.0
H489 H 0.49882 0.68935 0.17902 0.0
H490 H 0.49226 0.63869 0.19022 0.0
H491 H 0.51295 0.68421 0.20236 0.0
C492 C 0.51589 0.5704 0.11144 0.0
N493 N 0.51962 0.61196 0.1164 0.0
N494 N 0.52805 0.61369 0.13357 0.0
C495 C 0.52885 0.57336 0.14011 0.0
C496 C 0.52202 0.54455 0.12632 0.0
C497 C 0.51115 0.55597 0.09256 0.0
H498 H 0.52726 0.57908 0.08351 0.0
H499 H 0.4765 0.55514 0.08913 0.0
H500 H 0.52475 0.52328 0.0906 0.0
O501 O 0.58007 0.68458 0.10144 0.0
O502 O 0.5924 0.69322 0.13037 0.0
H503 H 0.57052 0.56499 0.16244 0.0
H504 H 0.52476 0.52934 0.16234 0.0
C505 C 0.53583 0.56248 0.15927 0.0
H506 H 0.51783 0.58539 0.16774 0.0
H507 H 0.63224 0.64136 0.1562 0.0
O508 O 0.5005 0.65992 0.07791 0.0
C509 C 0.60334 0.69774 0.11418 0.0
Co510 Co 0.84277 0.51313 0.60055 0.0
Co511 Co 0.84793 0.54197 0.64137 0.0
C512 C 0.77831 0.48563 0.62891 0.0
O513 O 0.79423 0.48676 0.61331 0.0
O514 O 0.79609 0.50511 0.64193 0.0
C515 C 0.82102 0.45908 0.57031 0.0
O516 O 0.80569 0.43266 0.58238 0.0
C517 C 0.85597 0.55689 0.68119 0.0
C518 C 0.89495 0.6163 0.68029 0.0
C519 C 0.87564 0.5879 0.69203 0.0
N520 N 0.86399 0.56674 0.66401 0.0
N521 N 0.88711 0.60241 0.66371 0.0
C522 C 0.82809 0.52017 0.68687 0.0
H523 H 0.80681 0.5099 0.67585 0.0
H524 H 0.84873 0.49249 0.6906 0.0
H525 H 0.80834 0.5294 0.69856 0.0
C526 C 0.93525 0.49882 0.60759 0.0
N527 N 0.89476 0.50563 0.61323 0.0
N528 N 0.89531 0.51387 0.63044 0.0
C529 C 0.93586 0.51062 0.63637 0.0
C530 C 0.96269 0.5024 0.6221 0.0
C531 C 0.94737 0.49592 0.58838 0.0
H532 H 0.93527 0.52482 0.58129 0.0
H533 H 0.93143 0.46743 0.58238 0.0
H534 H 0.98263 0.49336 0.58655 0.0
O535 O 0.82966 0.57437 0.59874 0.0
O536 O 0.83281 0.59325 0.62718 0.0
H537 H 0.95498 0.55263 0.65752 0.0
H538 H 0.97995 0.50058 0.65806 0.0
C539 C 0.94946 0.51781 0.65524 0.0
H540 H 0.92422 0.50623 0.66448 0.0
H541 H 0.8976 0.61738 0.65207 0.0
O542 O 0.84183 0.4923 0.57531 0.0
C543 C 0.82663 0.6025 0.61092 0.0
C544 C 0.94928 0.1505 0.98232 0.0
C545 C 0.96037 0.17645 0.9678 0.0
C546 C 0.94557 0.16819 0.99952 0.0
C547 C 0.95173 0.21306 1.00209 0.0
C548 C 0.96084 0.23957 0.98725 0.0
C549 C 0.96574 0.22087 0.97037 0.0
C550 C 0.93699 0.13863 0.01504 0.0
C551 C 0.96647 0.28765 0.98924 0.0
C552 C 0.91514 0.26527 0.04556 0.0
C553 C 0.95431 0.27057 0.05449 0.0
C554 C 0.91367 0.2468 0.02844 0.0
C555 C 0.9521 0.23196 0.02037 0.0
C556 C 0.99156 0.23654 0.02953 0.0
C557 C 0.99226 0.25636 0.04631 0.0
C558 C 0.87116 0.24375 0.01888 0.0
C559 C 0.03316 0.22025 0.02167 0.0
H560 H 0.94529 0.11614 0.98036 0.0
H561 H 0.97378 0.24113 0.95911 0.0
H562 H 0.96508 0.13881 0.02412 0.0
H563 H 0.90895 0.15019 0.02278 0.0
H564 H 0.93083 0.10495 0.01074 0.0
H565 H 0.96879 0.30422 0.97618 0.0
H566 H 0.93915 0.30157 0.99678 0.0
H567 H -0.00386 0.29452 0.9969 0.0
H568 H 0.88575 0.27618 0.05184 0.0
H569 H 0.02258 0.25971 0.05326 0.0
H570 H 0.86393 0.20971 0.01558 0.0
H571 H 0.87289 0.26168 1.00614 0.0
H572 H 0.84426 0.25696 0.02692 0.0
H573 H 0.02997 0.18574 0.01805 0.0
H574 H 0.06064 0.22383 0.03098 0.0
H575 H 0.04067 0.23816 0.0093 0.0
C576 C 0.2786 0.93417 0.47335 0.0
C577 C 0.28894 0.97467 0.46628 0.0
C578 C 0.25701 0.93042 0.48973 0.0
C579 C 0.24424 0.96808 0.49899 0.0
C580 C 0.25523 0.00901 0.49203 0.0
C581 C 0.27794 0.01177 0.47592 0.0
C582 C 0.24717 0.88619 0.49697 0.0
C583 C 0.24153 0.05002 0.50124 0.0
C584 C 0.14913 0.96379 0.53095 0.0
C585 C 0.1696 0.9674 0.54747 0.0
C586 C 0.17305 0.96324 0.51505 0.0
C587 C 0.21857 0.96504 0.51575 0.0
C588 C 0.23936 0.96657 0.53248 0.0
C589 C 0.21465 0.96842 0.5481 0.0
C590 C 0.14956 0.96259 0.49749 0.0
C591 C 0.28774 0.96723 0.53389 0.0
H592 H 0.28698 0.90538 0.46596 0.0
H593 H 0.28526 0.04323 0.47046 0.0
H594 H 0.25859 0.88353 0.51091 0.0
H595 H 0.21195 0.8809 0.49712 0.0
H596 H 0.26233 0.86025 0.48896 0.0
H597 H 0.25251 0.0793 0.49407 0.0
H598 H 0.20599 0.051 0.5023 0.0
H599 H 0.25455 0.05096 0.51496 0.0
H600 H 0.11434 0.96329 0.5304 0.0
H601 H 0.23065 0.97079 0.56087 0.0
H602 H 0.16076 0.9352 0.48924 0.0
H603 H 0.15672 0.99255 0.49001 0.0
H604 H 0.11421 0.95995 0.49921 0.0
H605 H 0.30182 0.94076 0.52586 0.0
H606 H 0.29892 0.96392 0.54786 0.0
H607 H 0.30032 -0.00204 0.52848 0.0
C608 C 0.55554 0.16302 0.03628 0.0
C609 C 0.53135 0.18322 0.04963 0.0
C610 C 0.559 0.18131 0.01918 0.0
C611 C 0.5387 0.22123 0.01551 0.0
C612 C 0.51546 0.24232 0.02915 0.0
C613 C 0.51167 0.22288 0.04591 0.0
C614 C 0.58327 0.15734 1.0049 0.0
C615 C 0.49396 0.28524 0.02598 0.0
C616 C 0.56996 0.28817 0.97487 0.0
C617 C 0.53525 0.28032 0.96344 0.0
C618 C 0.57201 0.26867 0.99178 0.0
C619 C 0.53912 0.23986 0.99718 0.0
C620 C 0.50479 0.23084 0.98541 0.0
C621 C 0.50303 0.2515 0.96883 0.0
C622 C 0.60866 0.27985 1.00408 0.0
C623 C 0.46945 0.19977 0.99042 0.0
H624 H 0.57079 0.13239 0.03906 0.0
H625 H 0.49341 0.23906 0.05622 0.0
H626 H 0.56095 0.14834 0.994 0.0
H627 H 0.60838 0.17832 0.99904 0.0
H628 H 0.59871 0.12761 0.01004 0.0
H629 H 0.48001 0.299 0.03834 0.0
H630 H 0.5174 0.3086 0.02044 0.0
H631 H 0.46786 0.28146 0.01606 0.0
H632 H 0.59495 0.31038 0.97079 0.0
H633 H 0.47638 0.2447 0.95998 0.0
H634 H 0.62519 0.25013 1.00854 0.0
H635 H 0.59597 0.2961 0.01613 0.0
H636 H 0.63258 0.30138 0.99766 0.0
H637 H 0.48339 0.16861 0.99473 0.0
H638 H 0.44693 0.19365 0.97924 0.0
H639 H 0.45086 0.21287 1.00179 0.0
C640 C 0.19589 0.52744 0.47665 0.0
C641 C 0.22338 0.53285 0.46207 0.0
C642 C 0.21156 0.5311 0.49418 0.0
C643 C 0.25545 0.54134 0.49711 0.0
C644 C 0.28245 0.54967 0.48236 0.0
C645 C 0.26624 0.54481 0.46506 0.0
C646 C 0.18182 0.52141 0.50951 0.0
C647 C 0.32908 0.5617 0.48481 0.0
C648 C 0.2907 0.57349 0.5439 0.0
C649 C 0.30849 0.53492 0.55026 0.0
C650 C 0.27394 0.57638 0.52655 0.0
C651 C 0.27411 0.53957 0.51541 0.0
C652 C 0.29256 0.50074 0.52169 0.0
C653 C 0.3099 0.49902 0.53892 0.0
C654 C 0.25562 0.61866 0.52021 0.0
C655 C 0.29305 0.46057 0.51034 0.0
H656 H 0.16288 0.5178 0.47438 0.0
H657 H 0.28755 0.54927 0.4538 0.0
H658 H 0.19232 0.49132 0.51617 0.0
H659 H 0.18324 0.54756 0.51955 0.0
H660 H 0.14798 0.51737 0.50513 0.0
H661 H 0.3443 0.57206 0.47215 0.0
H662 H 0.33222 0.58809 0.49468 0.0
H663 H 0.3471 0.53362 0.49003 0.0
H664 H 0.28946 0.60138 0.55256 0.0
H665 H 0.32313 0.46894 0.54375 0.0
H666 H 0.22088 0.61491 0.51734 0.0
H667 H 0.27144 0.62854 0.50763 0.0
H668 H 0.25971 0.64479 0.53017 0.0
H669 H 0.25974 0.45177 0.50653 0.0
H670 H 0.30789 0.43274 0.51729 0.0
H671 H 0.31113 0.4666 0.49788 0.0
C672 C 0.99273 0.80117 0.0424 0.0
C673 C 0.02575 0.79106 0.05439 0.0
C674 C 0.99306 0.7852 0.0249 0.0
C675 C 0.02757 0.75897 0.01909 0.0
C676 C 0.06156 0.74955 0.03097 0.0
C677 C 0.06009 0.76542 0.0485 0.0
C678 C 0.95602 0.79584 0.01271 0.0
C679 C 0.09932 0.72243 0.02521 0.0
C680 C 0.00541 0.68923 0.97828 0.0
C681 C 0.02001 0.71599 0.96455 0.0
C682 C 0.00895 0.70208 0.9962 0.0
C683 C 0.0282 0.74225 1.00044 0.0
C684 C 0.04536 0.76799 0.98664 0.0
C685 C 0.04072 0.75475 0.9689 0.0
C686 C 0.98994 0.67384 0.01051 0.0
C687 C 0.06691 0.81055 0.99053 0.0
H688 H 0.96587 0.82061 0.04683 0.0
H689 H 0.08574 0.75739 0.05765 0.0
H690 H 0.96792 0.81329 1.00082 0.0
H691 H 0.94063 0.76571 1.00796 0.0
H692 H 0.93126 0.81599 0.01934 0.0
H693 H 0.1237 0.71894 0.0359 0.0
H694 H 0.08812 0.68989 0.02125 0.0
H695 H 0.11491 0.73706 0.0134 0.0
H696 H 0.98907 0.65944 0.97498 0.0
H697 H 0.05233 0.77546 0.95833 0.0
H698 H 0.96192 0.69034 0.01658 0.0
H699 H 0.01369 0.66827 0.02125 0.0
H700 H 0.9792 0.64219 1.00523 0.0
H701 H 0.04278 0.83384 0.99557 0.0
H702 H 0.08241 0.82453 0.97854 0.0
H703 H 0.0916 0.8066 1.00104 0.0
C704 C 0.77469 0.0522 0.47423 0.0
C705 C 0.78425 0.01162 0.46704 0.0
C706 C 0.75382 0.05614 0.49078 0.0
C707 C 0.74088 0.0186 0.50007 0.0
C708 C 0.75086 0.97757 0.49292 0.0
C709 C 0.77296 0.97461 0.47667 0.0
C710 C 0.74511 0.10045 0.49821 0.0
C711 C 0.73685 0.93669 0.50213 0.0
C712 C 0.7144 0.0186 0.5495 0.0
C713 C 0.66938 0.02086 0.54938 0.0
C714 C 0.73813 0.01983 0.53361 0.0
C715 C 0.71631 0.0219 0.51711 0.0
C716 C 0.67081 0.02471 0.51693 0.0
C717 C 0.64793 0.02487 0.53309 0.0
C718 C 0.78655 0.01813 0.53448 0.0
C719 C 0.6462 0.02584 0.49964 0.0
H720 H 0.78329 0.08091 0.46685 0.0
H721 H 0.77963 0.9431 0.4711 0.0
H722 H 0.70999 0.10621 0.49879 0.0
H723 H 0.75757 0.10285 0.512 0.0
H724 H 0.76005 0.12625 0.49005 0.0
H725 H 0.7467 0.90732 0.49473 0.0
H726 H 0.75075 0.93521 0.51569 0.0
H727 H 0.70138 0.93645 0.5036 0.0
H728 H 0.73116 0.01593 0.56209 0.0
H729 H 0.61314 0.02634 0.53295 0.0
H730 H 0.80067 0.04448 0.52641 0.0
H731 H 0.79814 0.98728 0.5288 0.0
H732 H 0.7987 0.02091 0.54833 0.0
H733 H 0.65724 0.05319 0.49134 0.0
H734 H 0.61102 0.02891 0.50175 0.0
H735 H 0.65247 0.99589 0.492 0.0
C736 C 0.48047 0.79316 0.97843 0.0
C737 C 0.46176 0.77042 0.96427 0.0
C738 C 0.47806 0.77762 0.99597 0.0
C739 C 0.45634 0.73841 0.99949 0.0
C740 C 0.4359 0.71625 0.98538 0.0
C741 C 0.43884 0.73248 0.96797 0.0
C742 C 0.50013 0.8024 0.01064 0.0
C743 C 0.4122 0.67453 0.98856 0.0
C744 C 0.49238 0.6775 0.04084 0.0
C745 C 0.46137 0.68995 0.05338 0.0
C746 C 0.49047 0.69212 0.02316 0.0
C747 C 0.45668 0.71981 0.01782 0.0
C748 C 0.42431 0.73104 0.03021 0.0
C749 C 0.42704 0.71601 0.04781 0.0
C750 C 0.52553 0.67918 0.01035 0.0
C751 C 0.38759 0.76021 0.02505 0.0
H752 H 0.49825 0.82246 0.97575 0.0
H753 H 0.42422 0.71461 0.95716 0.0
H754 H 0.47719 0.80916 0.02159 0.0
H755 H 0.52654 0.7827 0.01629 0.0
H756 H 0.51375 0.8334 1.00589 0.0
H757 H 0.39553 0.66279 0.97643 0.0
H758 H 0.43516 0.64942 0.99299 0.0
H759 H 0.38815 0.67865 0.99932 0.0
H760 H 0.51903 0.65741 0.04497 0.0
H761 H 0.40285 0.72585 0.05735 0.0
H762 H 0.54382 0.70813 1.00616 0.0
H763 H 0.51136 0.66473 0.99819 0.0
H764 H 0.54831 0.65572 0.01629 0.0
H765 H 0.40016 0.79269 0.02178 0.0
H766 H 0.36345 0.76348 0.03585 0.0
H767 H 0.37132 0.74772 0.01298 0.0
C768 C 0.76266 0.44416 0.46651 0.0
C769 C 0.71958 0.45539 0.46365 0.0
C770 C 0.77924 0.43949 0.48375 0.0
C771 C 0.75237 0.44736 0.49859 0.0
C772 C 0.70826 0.45682 0.49579 0.0
C773 C 0.69224 0.46026 0.47831 0.0
C774 C 0.8261 0.42827 0.48605 0.0
C775 C 0.67865 0.46604 0.51122 0.0
C776 C 0.78953 0.41589 0.54521 0.0
C777 C 0.80709 0.45471 0.55147 0.0
C778 C 0.77214 0.41274 0.52796 0.0
C779 C 0.77139 0.44952 0.51683 0.0
C780 C 0.78947 0.48865 0.52304 0.0
C781 C 0.80748 0.49062 0.54016 0.0
C782 C 0.75426 0.37016 0.52171 0.0
C783 C 0.78896 0.52881 0.51172 0.0
H784 H 0.78386 0.44021 0.45517 0.0
H785 H 0.65906 0.46943 0.47613 0.0
H786 H 0.84378 0.45668 0.4912 0.0
H787 H 0.82986 0.40199 0.49591 0.0
H788 H 0.84123 0.4181 0.47333 0.0
H789 H 0.64465 0.46932 0.50695 0.0
H790 H 0.6808 0.44005 0.52128 0.0
H791 H 0.68867 0.49643 0.5178 0.0
H792 H 0.78905 0.38798 0.55385 0.0
H793 H 0.8205 0.52089 0.54491 0.0
H794 H 0.77007 0.36037 0.50911 0.0
H795 H 0.71944 0.3734 0.5189 0.0
H796 H 0.75878 0.34418 0.53168 0.0
H797 H 0.80695 0.52314 0.4992 0.0
H798 H 0.80337 0.55694 0.51864 0.0
H799 H 0.75543 0.53692 0.50801 0.0
C800 C 0.97151 0.1839 0.12504 0.0
C801 C 0.99303 0.20951 0.13757 0.0
C802 C 0.97493 0.13906 0.12545 0.0
C803 C 0.00015 0.11946 0.13881 0.0
C804 C 0.01881 0.14482 0.15242 0.0
C805 C 0.01497 0.18977 0.15165 0.0
C806 C 0.95402 0.11295 0.11085 0.0
C807 C 0.04518 0.12473 0.16706 0.0
C808 C 0.98576 -0.00059 0.14312 0.0
C809 C 0.0205 0.98386 0.13313 0.0
C810 C 0.97986 0.0435 0.14579 0.0
C811 C 0.00878 0.07271 0.13784 0.0
C812 C 0.04408 0.05723 0.12775 0.0
C813 C 0.04951 0.0127 0.1255 0.0
C814 C 0.94183 0.05877 0.15657 0.0
C815 C 0.07529 0.08772 0.11895 0.0
H816 H 0.95405 0.19903 0.11425 0.0
H817 H 0.03166 0.20941 0.16137 0.0
H818 H 0.97921 0.09813 0.10238 0.0
H819 H 0.93468 0.08637 0.11659 0.0
H820 H 0.93287 0.13286 0.10226 0.0
H821 H 0.05317 0.14822 0.17771 0.0
H822 H 0.02777 0.09716 0.17307 0.0
H823 H 0.07559 0.11205 0.16142 0.0
H824 H 0.96235 0.97705 0.14846 0.0
H825 H 0.07602 0.00043 0.11763 0.0
H826 H 0.91849 0.07516 0.14773 0.0
H827 H 0.95221 0.08254 0.16672 0.0
H828 H 0.92512 0.0318 0.16339 0.0
H829 H 0.05823 0.10731 0.10884 0.0
H830 H 0.10218 0.07049 0.11234 0.0
H831 H 0.08879 0.11032 0.12893 0.0
C832 C 0.28485 0.9909 0.64653 0.0
C833 C 0.25874 0.97726 0.63242 0.0
C834 C 0.32949 0.98489 0.6459 0.0
C835 C 0.34809 0.96469 0.63086 0.0
C836 C 0.3215 0.94731 0.61743 0.0
C837 C 0.27707 0.95365 0.61841 0.0
C838 C 0.35693 0.00318 0.66063 0.0
C839 C 0.3401 0.92516 0.60127 0.0
C840 C 0.45956 0.00257 0.61794 0.0
C841 C 0.48503 0.96956 0.62483 0.0
C842 C 0.41472 0.00102 0.6196 0.0
C843 C 0.39529 0.96554 0.62833 0.0
C844 C 0.42094 0.9314 0.63474 0.0
C845 C 0.46559 0.93372 0.6328 0.0
C846 C 0.38823 0.0378 0.61239 0.0
C847 C 0.40133 0.89297 0.644 0.0
H848 H 0.27093 0.00903 0.65743 0.0
H849 H 0.25699 0.94248 0.60757 0.0
H850 H 0.38121 0.97928 0.66499 0.0
H851 H 0.37456 0.03179 0.65563 0.0
H852 H 0.33748 0.01307 0.67233 0.0
H853 H 0.31504 0.90851 0.5933 0.0
H854 H 0.35605 0.94939 0.59267 0.0
H855 H 0.36481 0.9013 0.60522 0.0
H856 H 0.47481 0.03016 0.61175 0.0
H857 H 0.48546 0.90772 0.63777 0.0
H858 H 0.37061 0.05369 0.62342 0.0
H859 H 0.36393 0.02544 0.60288 0.0
H860 H 0.40822 0.06234 0.60553 0.0
H861 H 0.38462 0.90361 0.65627 0.0
H862 H 0.42575 0.86846 0.64766 0.0
H863 H 0.37692 0.87762 0.63532 0.0
C864 C 0.5629 0.47933 0.13555 0.0
C865 C 0.52691 0.49728 0.12715 0.0
C866 C 0.56678 0.43468 0.13772 0.0
C867 C 0.53401 0.40744 0.13117 0.0
C868 C 0.49818 0.42541 0.12219 0.0
C869 C 0.49509 0.47025 0.12027 0.0
C870 C 0.60552 0.41675 0.14724 0.0
C871 C 0.46272 0.39729 0.11489 0.0
C872 C 0.54928 0.28928 0.12102 0.0
C873 C 0.5253 0.27016 0.13473 0.0
C874 C 0.55505 0.33399 0.12032 0.0
C875 C 0.53668 0.36009 0.13373 0.0
C876 C 0.51659 0.34065 0.1486 0.0
C877 C 0.51124 0.29577 0.14896 0.0
C878 C 0.57729 0.35341 0.10438 0.0
C879 C 0.49727 0.36744 0.16333 0.0
H880 H 0.58792 0.50036 0.14057 0.0
H881 H 0.46731 0.48427 0.1138 0.0
H882 H 0.59517 0.3994 0.15941 0.0
H883 H 0.62229 0.39308 0.13864 0.0
H884 H 0.62869 0.4423 0.15112 0.0
H885 H 0.4375 0.41626 0.10799 0.0
H886 H 0.4762 0.37352 0.10538 0.0
H887 H 0.4475 0.37892 0.12587 0.0
H888 H 0.56079 0.26965 0.11008 0.0
H889 H 0.49286 0.28132 0.15965 0.0
H890 H 0.5998 0.37922 0.10851 0.0
H891 H 0.55296 0.36822 0.0955 0.0
H892 H 0.59535 0.3289 0.09663 0.0
H893 H 0.52 0.39288 0.16767 0.0
H894 H 0.48835 0.34755 0.17504 0.0
H895 H 0.46793 0.38371 0.15834 0.0
C896 C 0.21481 0.54468 0.61527 0.0
C897 C 0.2344 0.52461 0.6299 0.0
C898 C 0.17007 0.54779 0.61409 0.0
C899 C 0.14455 0.53113 0.62802 0.0
C900 C 0.16423 0.51584 0.64376 0.0
C901 C 0.20911 0.51279 0.64454 0.0
C902 C 0.15027 0.5649 0.59717 0.0
C903 C 0.1379 0.49889 0.6591 0.0
C904 C 0.0246 0.5502 0.62841 0.0
C905 C 0.0092 0.51078 0.62192 0.0
C906 C 0.06867 0.55764 0.63028 0.0
C907 C 0.09784 0.52498 0.62531 0.0
C908 C 0.08243 0.4857 0.61805 0.0
C909 C 0.03803 0.47901 0.61648 0.0
C910 C 0.08389 0.59984 0.63805 0.0
C911 C 0.1128 0.45036 0.61237 0.0
H912 H 0.23415 0.55471 0.60403 0.0
H913 H 0.22395 0.49775 0.656 0.0
H914 H 0.13767 0.53757 0.58921 0.0
H915 H 0.12287 0.58653 0.60015 0.0
H916 H 0.17397 0.58271 0.58893 0.0
H917 H 0.15764 0.49422 0.67126 0.0
H918 H 0.11111 0.52116 0.66226 0.0
H919 H 0.12358 0.46744 0.65535 0.0
H920 H 0.00199 0.57501 0.63232 0.0
H921 H 0.02581 0.44863 0.61147 0.0
H922 H 0.10761 0.61523 0.62906 0.0
H923 H 0.10033 0.59389 0.6509 0.0
H924 H 0.05704 0.62272 0.64036 0.0
H925 H 0.13627 0.46299 0.60256 0.0
H926 H 0.09569 0.42254 0.60635 0.0
H927 H 0.13129 0.43877 0.62404 0.0
C928 C 0.92916 0.48197 0.88632 0.0
C929 C 0.96655 0.50018 0.89353 0.0
C930 C 0.92525 0.43736 0.88408 0.0
C931 C 0.95929 0.41031 0.88949 0.0
C932 C -0.00363 0.42842 0.89753 0.0
C933 C -0.00041 0.47331 0.89943 0.0
C934 C 0.88524 0.41933 0.8755 0.0
C935 C 0.03308 0.40044 0.90373 0.0
C936 C 0.94504 0.29145 0.89859 0.0
C937 C 0.96712 0.27313 0.88415 0.0
C938 C 0.93995 0.33614 0.90004 0.0
C939 C 0.95667 0.36306 0.88656 0.0
C940 C 0.97456 0.34455 0.87101 0.0
C941 C 0.97958 0.29968 0.86997 0.0
C942 C 0.92027 0.35454 0.91676 0.0
C943 C 0.99175 0.37227 0.85613 0.0
H944 H 0.90317 0.50282 0.88212 0.0
H945 H 0.02842 0.48748 0.90502 0.0
H946 H 0.8938 0.40307 0.86284 0.0
H947 H 0.87036 0.39473 0.88423 0.0
H948 H 0.86106 0.44468 0.87263 0.0
H949 H 0.05885 0.41939 0.91032 0.0
H950 H 0.02117 0.3758 0.91321 0.0
H951 H 0.04717 0.38309 0.89222 0.0
H952 H 0.93472 0.27116 0.90952 0.0
H953 H -0.00357 0.2859 0.8587 0.0
H954 H 0.89713 0.38051 0.91354 0.0
H955 H 0.94595 0.36893 0.9251 0.0
H956 H 0.9035 0.32954 0.92473 0.0
H957 H 0.96828 0.3977 0.85257 0.0
H958 H -0.00075 0.35309 0.84404 0.0
H959 H 0.02157 0.38857 0.86061 0.0
C960 C 0.01335 -0.00265 0.40411 0.0
C961 C 0.99062 0.96185 0.39763 0.0
C962 C 0.05818 -0.00042 0.40227 0.0
C963 C 0.08043 0.96546 0.39373 0.0
C964 C 0.05759 0.92895 0.38768 0.0
C965 C 0.01295 0.92747 0.38984 0.0
C966 C 0.08164 0.0388 0.4091 0.0
C967 C 0.08015 0.89191 0.3786 0.0
C968 C 0.1889 -0.0033 0.37472 0.0
C969 C 0.21638 0.98476 0.38863 0.0
C970 C 0.14457 0.98867 0.37579 0.0
C971 C 0.1276 0.96824 0.3911 0.0
C972 C 0.15563 0.95301 0.40447 0.0
C973 C 0.1997 0.96124 0.40302 0.0
C974 C 0.11563 0.00463 0.3611 0.0
C975 C 0.13885 0.93074 0.42092 0.0
H976 H -0.00406 0.02387 0.41012 0.0
H977 H -0.0047 0.89959 0.38515 0.0
H978 H 0.10706 0.02899 0.4186 0.0
H979 H 0.09768 0.05557 0.39789 0.0
H980 H 0.0598 0.06189 0.41585 0.0
H981 H 0.05772 0.86544 0.37504 0.0
H982 H 0.09606 0.90345 0.36629 0.0
H983 H 0.10562 0.87877 0.38736 0.0
H984 H 0.20147 0.01483 0.36356 0.0
H985 H 0.22077 0.95143 0.41375 0.0
H986 H 0.09602 0.03193 0.36609 0.0
H987 H 0.0931 0.97889 0.35689 0.0
H988 H 0.13408 0.01569 0.34931 0.0
H989 H 0.12075 0.95417 0.42917 0.0
H990 H 0.16512 0.91697 0.42914 0.0
H991 H 0.11631 0.90452 0.41727 0.0
C992 C 0.48149 0.17563 0.8717 0.0
C993 C 0.4619 0.19938 0.88526 0.0
C994 C 0.48057 0.13036 0.87206 0.0
C995 C 0.4585 0.10899 0.886 0.0
C996 C 0.43659 0.13316 0.89909 0.0
C997 C 0.43907 0.17805 0.89868 0.0
C998 C 0.50488 0.10547 0.85805 0.0
C999 C 0.41181 0.11163 0.91391 0.0
C1000 C 0.43471 0.98951 0.88166 0.0
C1001 C 0.46743 0.97202 0.89213 0.0
C1002 C 0.431 0.03428 0.87963 0.0
C1003 C 0.46141 0.0616 0.88795 0.0
C1004 C 0.49431 0.04377 0.89866 0.0
C1005 C 0.49671 -0.00093 0.90071 0.0
C1006 C 0.395 0.0523 0.86846 0.0
C1007 C 0.52752 0.07182 0.90764 0.0
H1008 H 0.49897 0.19234 0.86131 0.0
H1009 H 0.42319 0.19664 0.90899 0.0
H1010 H 0.53202 0.08806 0.86436 0.0
H1011 H 0.48377 0.08093 0.85184 0.0
H1012 H 0.51788 0.12673 0.84747 0.0
H1013 H 0.39275 0.13504 0.92183 0.0
H1014 H 0.38973 0.08692 0.90842 0.0
H1015 H 0.43443 0.09495 0.92298 0.0
H1016 H 0.41267 0.96811 0.87483 0.0
H1017 H 0.52249 0.98505 0.90848 0.0
H1018 H 0.40844 0.06997 0.85691 0.0
H1019 H 0.37596 0.07571 0.87635 0.0
H1020 H 0.37313 0.02674 0.86345 0.0
H1021 H 0.54453 0.09159 0.89756 0.0
H1022 H 0.55165 0.05268 0.91511 0.0
H1023 H 0.51164 0.09434 0.91702 0.0
C1024 C 0.46571 0.44673 0.39672 0.0
C1025 C 0.49768 0.47585 0.39177 0.0
C1026 C 0.4222 0.45771 0.39481 0.0
C1027 C 0.41103 0.4984 0.38757 0.0
C1028 C 0.44343 0.52815 0.38296 0.0
C1029 C 0.48637 0.51679 0.38546 0.0
C1030 C 0.38821 0.42568 0.40031 0.0
C1031 C 0.43284 0.57158 0.37504 0.0
C1032 C 0.29906 0.50288 0.36812 0.0
C1033 C 0.27598 0.5204 0.38241 0.0
C1034 C 0.34374 0.49775 0.3692 0.0
C1035 C 0.36537 0.50997 0.38498 0.0
C1036 C 0.34281 0.53122 0.39872 0.0
C1037 C 0.29847 0.53696 0.39709 0.0
C1038 C 0.36727 0.47649 0.35399 0.0
C1039 C 0.3647 0.54458 0.4158 0.0
H1040 H 0.47474 0.41529 0.40174 0.0
H1041 H 0.51136 0.53975 0.38214 0.0
H1042 H 0.36594 0.44069 0.41003 0.0
H1043 H 0.36888 0.41608 0.38856 0.0
H1044 H 0.40223 0.39625 0.40637 0.0
H1045 H 0.46208 0.59062 0.37188 0.0
H1046 H 0.41397 0.56725 0.36265 0.0
H1047 H 0.41267 0.59041 0.38439 0.0
H1048 H 0.28202 0.49035 0.35666 0.0
H1049 H 0.28099 0.5514 0.40805 0.0
H1050 H 0.37722 0.44358 0.35797 0.0
H1051 H 0.39685 0.49474 0.35066 0.0
H1052 H 0.347 0.47398 0.34187 0.0
H1053 H 0.37454 0.5154 0.42327 0.0
H1054 H 0.34338 0.56417 0.42446 0.0
H1055 H 0.39421 0.56335 0.41297 0.0
C1056 C 0.0506 0.79078 0.89726 0.0
C1057 C 0.02527 0.77336 0.88356 0.0
C1058 C 0.05608 0.83539 0.89898 0.0
C1059 C 0.03638 0.86313 0.88652 0.0
C1060 C 0.01498 0.84558 0.87156 0.0
C1061 C 0.00973 0.80079 0.87022 0.0
C1062 C 0.0796 0.85275 0.91502 0.0
C1063 C 0.99437 0.87418 0.85776 0.0
C1064 C -0.0039 0.97259 0.90174 0.0
C1065 C 0.02699 -6e-05 0.89439 0.0
C1066 C -0.0006 0.92775 0.89965 0.0
C1067 C 0.03447 0.9102 0.89 0.0
C1068 C 0.06669 0.93775 0.88324 0.0
C1069 C 0.06266 0.98231 0.88562 0.0
C1070 C 0.96464 0.89926 0.90725 0.0
C1071 C 0.10468 0.92031 0.87303 0.0
H1072 H 0.06334 0.76982 0.90751 0.0
H1073 H 0.99039 0.78772 0.85952 0.0
H1074 H 0.10163 0.87924 0.91119 0.0
H1075 H 0.05598 0.86618 0.92459 0.0
H1076 H 0.09841 0.82735 0.92191 0.0
H1077 H 0.98373 0.85574 0.84588 0.0
H1078 H 0.96596 0.89039 0.86365 0.0
H1079 H 0.01702 0.89969 0.85343 0.0
H1080 H 0.96862 0.98633 0.90854 0.0
H1081 H 0.08712 0.00356 0.88031 0.0
H1082 H 0.97902 0.8743 0.91596 0.0
H1083 H 0.94774 0.8823 0.8963 0.0
H1084 H 0.94064 0.91775 0.91507 0.0
H1085 H 0.1213 0.89515 0.8809 0.0
H1086 H 0.1282 0.94588 0.86958 0.0
H1087 H 0.09341 0.90493 0.86056 0.0
C1088 C 0.69077 0.98552 0.37318 0.0
C1089 C 0.71736 -0.00063 0.3871 0.0
C1090 C 0.64638 0.99343 0.37361 0.0
C1091 C 0.62843 0.01572 0.38828 0.0
C1092 C 0.65563 0.03308 0.40152 0.0
C1093 C 0.6998 0.02489 0.40072 0.0
C1094 C 0.61836 0.97515 0.35907 0.0
C1095 C 0.63782 0.05742 0.41728 0.0
C1096 C 0.51298 0.05386 0.38582 0.0
C1097 C 0.49123 0.0203 0.39445 0.0
C1098 C 0.55765 0.05287 0.38368 0.0
C1099 C 0.58111 0.01773 0.39058 0.0
C1100 C 0.55941 0.98436 0.39982 0.0
C1101 C 0.51456 0.98606 0.40164 0.0
C1102 C 0.57962 0.0891 0.37384 0.0
C1103 C 0.58352 0.94659 0.40756 0.0
H1104 H 0.70403 0.96587 0.36259 0.0
H1105 H 0.72021 0.0362 0.41143 0.0
H1106 H 0.59925 0.94792 0.36443 0.0
H1107 H 0.59536 -0.00021 0.35424 0.0
H1108 H 0.63752 0.96327 0.3476 0.0
H1109 H 0.66352 0.07306 0.42525 0.0
H1110 H 0.61479 0.08247 0.41287 0.0
H1111 H 0.62003 0.03484 0.42603 0.0
H1112 H 0.49491 0.08088 0.38061 0.0
H1113 H 0.49763 0.96017 0.40831 0.0
H1114 H 0.59659 0.0762 0.36201 0.0
H1115 H 0.60418 0.10436 0.38248 0.0
H1116 H 0.55665 0.11426 0.36941 0.0
H1117 H 0.60044 0.92894 0.3968 0.0
H1118 H 0.56197 0.92375 0.41461 0.0
H1119 H 0.60828 0.95817 0.41703 0.0
C1120 C 0.496 0.49474 0.88428 0.0
C1121 C 0.53138 0.47083 0.89017 0.0
C1122 C 0.49742 0.53964 0.88357 0.0
C1123 C 0.5349 0.56126 0.88929 0.0
C1124 C 0.57071 0.53732 0.89547 0.0
C1125 C 0.56847 0.49209 0.89587 0.0
C1126 C 0.45844 0.56392 0.87704 0.0
C1127 C 0.61097 0.55951 0.90186 0.0
C1128 C 0.54607 0.67837 0.87547 0.0
C1129 C 0.5307 0.69966 0.89065 0.0
C1130 C 0.54838 0.6332 0.87491 0.0
C1131 C 0.53508 0.60898 0.88989 0.0
C1132 C 0.51929 0.63025 0.90516 0.0
C1133 C 0.51715 0.67522 0.90533 0.0
C1134 C 0.56495 0.61138 0.85833 0.0
C1135 C 0.50455 0.60552 0.92137 0.0
H1136 H 0.46679 0.47821 0.8804 0.0
H1137 H 0.59556 0.47338 0.90059 0.0
H1138 H 0.44498 0.5837 0.888 0.0
H1139 H 0.46761 0.58625 0.86618 0.0
H1140 H 0.43286 0.54205 0.87207 0.0
H1141 H 0.63656 0.53624 0.90554 0.0
H1142 H 0.62348 0.58125 0.89137 0.0
H1143 H 0.6035 0.57974 0.91363 0.0
H1144 H 0.55686 0.69696 0.86412 0.0
H1145 H 0.5054 0.69121 0.91719 0.0
H1146 H 0.53967 0.59022 0.85268 0.0
H1147 H 0.59277 0.59058 0.86167 0.0
H1148 H 0.575 0.63485 0.84799 0.0
H1149 H 0.47705 0.58447 0.91783 0.0
H1150 H 0.4945 0.62708 0.93241 0.0
H1151 H 0.53074 0.58435 0.92621 0.0
C1152 C 0.79773 0.45543 0.39971 0.0
C1153 C 0.77544 0.47106 0.38481 0.0
C1154 C 0.84216 0.46062 0.40124 0.0
C1155 C 0.865 0.48056 0.38726 0.0
C1156 C 0.84345 0.49235 0.37142 0.0
C1157 C 0.79871 0.48768 0.3704 0.0
C1158 C 0.86401 0.44771 0.41838 0.0
C1159 C 0.86724 0.51235 0.35599 0.0
C1160 C 0.9677 0.54118 0.39787 0.0
C1161 C -0.00147 0.51091 0.39286 0.0
C1162 C 0.9238 0.53142 0.39639 0.0
C1163 C 0.91108 0.49076 0.38955 0.0
C1164 C 0.94235 0.45981 0.38492 0.0
C1165 C 0.98573 0.47006 0.38693 0.0
C1166 C 0.89107 0.56476 0.40185 0.0
C1167 C 0.93006 0.41634 0.37745 0.0
H1168 H 0.78011 0.44177 0.41079 0.0
H1169 H 0.78182 0.49955 0.35879 0.0
H1170 H 0.89272 0.42767 0.41562 0.0
H1171 H 0.87518 0.47702 0.42546 0.0
H1172 H 0.84226 0.42953 0.42737 0.0
H1173 H 0.84671 0.51527 0.34397 0.0
H1174 H 0.87857 0.54497 0.35979 0.0
H1175 H 0.896 0.49293 0.35259 0.0
H1176 H 0.97792 0.5726 0.40253 0.0
H1177 H 0.00988 0.44635 0.38346 0.0
H1178 H 0.86863 0.55092 0.41179 0.0
H1179 H 0.87168 0.57445 0.39014 0.0
H1180 H 0.90624 0.59399 0.40762 0.0
H1181 H 0.90924 0.39884 0.38699 0.0
H1182 H 0.95853 0.39603 0.37446 0.0
H1183 H 0.91129 0.42062 0.36503 0.0
C1184 C -0.00518 0.68049 0.14208 0.0
C1185 C -0.00348 0.70735 0.12714 0.0
C1186 C 0.99237 0.63562 0.14009 0.0
C1187 C 0.99102 0.61761 0.12278 0.0
C1188 C -0.00523 0.64438 0.10771 0.0
C1189 C -0.00204 0.68886 0.11008 0.0
C1190 C 0.98964 0.60762 0.15646 0.0
C1191 C 0.99325 0.62629 0.08904 0.0
C1192 C 0.01422 0.49909 0.1174 0.0
C1193 C 0.97273 0.48173 0.11762 0.0
C1194 C 0.02068 0.54343 0.11893 0.0
C1195 C 0.98463 0.57082 0.12037 0.0
C1196 C 0.94251 0.55349 0.1197 0.0
C1197 C 0.93703 0.50875 0.11852 0.0
C1198 C 0.06601 0.56069 0.11983 0.0
C1199 C 0.90339 0.58207 0.12079 0.0
H1200 H 0.99385 0.6945 0.15528 0.0
H1201 H -0.00047 0.70924 0.0984 0.0
H1202 H 0.95765 0.59193 0.15705 0.0
H1203 H 0.01405 0.58163 0.15582 0.0
H1204 H 0.99453 0.62629 0.1689 0.0
H1205 H -0.00143 0.65141 0.07876 0.0
H1206 H 0.01788 0.60083 0.08735 0.0
H1207 H 0.96147 0.61116 0.08666 0.0
H1208 H 0.04167 0.4776 0.11694 0.0
H1209 H 0.90511 0.4948 0.11891 0.0
H1210 H 0.07151 0.57597 0.13298 0.0
H1211 H 0.07094 0.58588 0.10959 0.0
H1212 H 0.09044 0.53505 0.11787 0.0
H1213 H 0.90242 0.59835 0.13392 0.0
H1214 H 0.87305 0.56374 0.11898 0.0
H1215 H 0.9051 0.60759 0.11048 0.0
C1216 C 0.77642 0.04246 0.6203 0.0
C1217 C 0.75871 0.01884 0.63444 0.0
C1218 C 0.82092 0.04723 0.61857 0.0
C1219 C 0.84817 0.02839 0.63141 0.0
C1220 C 0.83037 0.00893 0.64677 0.0
C1221 C 0.78566 0.00446 0.64814 0.0
C1222 C 0.83866 0.0688 0.60214 0.0
C1223 C 0.85855 0.98931 0.66094 0.0
C1224 C 0.95577 0.9839 0.61651 0.0
C1225 C 0.98379 0.01509 0.62316 0.0
C1226 C 0.91125 0.98834 0.61881 0.0
C1227 C 0.89487 0.0249 0.6279 0.0
C1228 C 0.92316 0.05732 0.63394 0.0
C1229 C 0.96736 0.05209 0.63139 0.0
C1230 C 0.88185 0.95337 0.61198 0.0
C1231 C 0.90689 0.09685 0.64352 0.0
H1232 H 0.75571 0.05426 0.60979 0.0
H1233 H 0.77226 0.98641 0.65916 0.0
H1234 H 0.86568 0.09056 0.60556 0.0
H1235 H 0.85131 0.04388 0.59294 0.0
H1236 H 0.81372 0.08764 0.59499 0.0
H1237 H 0.84003 0.9806 0.67305 0.0
H1238 H 0.8739 0.95971 0.65563 0.0
H1239 H 0.88462 0.01185 0.66475 0.0
H1240 H 0.96875 0.9555 0.61007 0.0
H1241 H 0.98925 0.07674 0.6361 0.0
H1242 H 0.85731 0.96736 0.60298 0.0
H1243 H 0.86455 0.93829 0.62328 0.0
H1244 H 0.89958 0.92786 0.60466 0.0
H1245 H 0.88214 0.11336 0.6354 0.0
H1246 H 0.93304 0.1201 0.64653 0.0
H1247 H 0.8914 0.08725 0.6562 0.0
C1248 C 0.44457 0.78818 0.11649 0.0
C1249 C 0.46478 0.77096 0.13159 0.0
C1250 C 0.44029 0.83278 0.11427 0.0
C1251 C 0.4563 0.86075 0.12755 0.0
C1252 C 0.47253 0.84351 0.14364 0.0
C1253 C 0.47641 0.79871 0.14551 0.0
C1254 C 0.42204 0.84986 0.09706 0.0
C1255 C 0.48923 0.87237 0.15825 0.0
C1256 C 0.50228 0.96951 0.1144 0.0
C1257 C 0.46993 -0.00275 0.12026 0.0
C1258 C 0.4977 0.92472 0.11625 0.0
C1259 C 0.45976 0.90769 0.12403 0.0
C1260 C 0.42616 0.93571 0.12911 0.0
C1261 C 0.43167 0.98021 0.12713 0.0
C1262 C 0.53413 0.89572 0.11056 0.0
C1263 C 0.38516 0.91886 0.13727 0.0
H1264 H 0.43494 0.76697 0.10576 0.0
H1265 H 0.49197 0.7858 0.15724 0.0
H1266 H 0.39902 0.87639 0.09965 0.0
H1267 H 0.44845 0.86319 0.08882 0.0
H1268 H 0.40551 0.82434 0.08928 0.0
H1269 H 0.49611 0.85422 0.17066 0.0
H1270 H 0.51932 0.88817 0.15377 0.0
H1271 H 0.46575 0.8982 0.1613 0.0
H1272 H 0.53178 0.98292 0.1091 0.0
H1273 H 0.40641 0.0019 0.1314 0.0
H1274 H 0.52219 0.8707 0.10125 0.0
H1275 H 0.54747 0.87885 0.12233 0.0
H1276 H 0.56048 0.91382 0.10397 0.0
H1277 H 0.37118 0.89311 0.12884 0.0
H1278 H 0.36079 0.94462 0.1391 0.0
H1279 H 0.39223 0.90442 0.15044 0.0
C1280 C 0.52544 0.43587 0.62919 0.0
C1281 C 0.50826 0.47349 0.62175 0.0
C1282 C 0.56978 0.43096 0.63135 0.0
C1283 C 0.59745 0.46424 0.62563 0.0
C1284 C 0.5803 0.50152 0.61737 0.0
C1285 C 0.53567 0.50573 0.61554 0.0
C1286 C 0.58689 0.39078 0.64015 0.0
C1287 C 0.60905 0.53739 0.61087 0.0
C1288 C 0.70807 0.48274 0.64485 0.0
C1289 C 0.73404 0.46909 0.6307 0.0
C1290 C 0.66326 0.47875 0.64391 0.0
C1291 C 0.64436 0.46065 0.62849 0.0
C1292 C 0.67061 0.44286 0.61504 0.0
C1293 C 0.71523 0.44702 0.61637 0.0
C1294 C 0.63612 0.49715 0.65872 0.0
C1295 C 0.65165 0.42289 0.59848 0.0
H1296 H 0.50403 0.41053 0.63363 0.0
H1297 H 0.52213 0.53467 0.60975 0.0
H1298 H 0.61107 0.37502 0.63148 0.0
H1299 H 0.60331 0.39945 0.65275 0.0
H1300 H 0.56107 0.36719 0.64317 0.0
H1301 H 0.59072 0.56344 0.60418 0.0
H1302 H 0.62687 0.55152 0.62225 0.0
H1303 H 0.63318 0.5245 0.6014 0.0
H1304 H 0.72233 0.49956 0.65603 0.0
H1305 H 0.73515 0.43571 0.60551 0.0
H1306 H 0.6103 0.47429 0.66249 0.0
H1307 H 0.62043 0.52718 0.65406 0.0
H1308 H 0.6555 0.5048 0.67072 0.0
H1309 H 0.62541 0.40022 0.60192 0.0
H1310 H 0.67616 0.40539 0.59052 0.0
H1311 H 0.63759 0.44858 0.59004 0.0
C1312 C 0.13972 0.42375 0.29337 0.0
C1313 C 0.10497 0.42215 0.30518 0.0
C1314 C 0.13353 0.41793 0.27497 0.0
C1315 C 0.09151 0.41109 0.26824 0.0
C1316 C 0.05625 0.41052 0.28013 0.0
C1317 C 0.06349 0.41551 0.29845 0.0
C1318 C 0.17206 0.41808 0.26279 0.0
C1319 C 0.01086 0.40437 0.27351 0.0
C1320 C 0.07297 0.43378 0.21912 0.0
C1321 C 0.07257 0.39221 0.21182 0.0
C1322 C 0.07822 0.44032 0.23747 0.0
C1323 C 0.08436 0.40445 0.24879 0.0
C1324 C 0.08376 0.3623 0.24149 0.0
C1325 C 0.07753 0.35667 0.22309 0.0
C1326 C 0.07759 0.48569 0.24472 0.0
C1327 C 0.09085 0.32324 0.25305 0.0
H1328 H 0.17191 0.42795 0.29857 0.0
H1329 H 0.03653 0.41429 0.30757 0.0
H1330 H 0.17434 0.38675 0.25574 0.0
H1331 H 0.16838 0.44343 0.25251 0.0
H1332 H 0.20255 0.4238 0.27008 0.0
H1333 H 0.98683 0.40645 0.28441 0.0
H1334 H 0.00313 0.42915 0.26338 0.0
H1335 H 0.00773 0.37248 0.26699 0.0
H1336 H 0.0692 0.46133 0.21041 0.0
H1337 H 0.07823 0.32456 0.21744 0.0
H1338 H 0.10911 0.49347 0.2508 0.0
H1339 H 0.05299 0.48853 0.25533 0.0
H1340 H 0.0706 0.50994 0.23426 0.0
H1341 H 0.12273 0.32543 0.25959 0.0
H1342 H 0.08933 0.29272 0.24536 0.0
H1343 H 0.06633 0.32208 0.26375 0.0
C1344 C 0.06683 0.09202 0.71931 0.0
C1345 C 0.10746 0.09204 0.7113 0.0
C1346 C 0.06229 0.09675 0.73779 0.0
C1347 C 0.09923 0.10329 0.74844 0.0
C1348 C 0.14044 0.10312 0.74037 0.0
C1349 C 0.1441 0.09686 0.72189 0.0
C1350 C 0.01793 0.09519 0.74588 0.0
C1351 C 0.18055 0.11097 0.75117 0.0
C1352 C 0.08427 0.15975 0.79309 0.0
C1353 C 0.08909 0.12549 0.80499 0.0
C1354 C 0.08764 0.15304 0.77462 0.0
C1355 C 0.09471 0.11086 0.76797 0.0
C1356 C 0.09798 0.07597 0.78 0.0
C1357 C 0.09591 0.08385 0.79838 0.0
C1358 C 0.08498 0.19124 0.76228 0.0
C1359 C 0.10402 0.03036 0.77349 0.0
H1360 H 0.03851 0.0883 0.71105 0.0
H1361 H 0.17545 0.09754 0.71562 0.0
H1362 H 0.01696 0.07104 0.75675 0.0
H1363 H 0.0099 0.12687 0.75183 0.0
H1364 H 0.99286 0.0869 0.73594 0.0
H1365 H 0.2101 0.11007 0.7429 0.0
H1366 H 0.17851 0.14289 0.75778 0.0
H1367 H 0.18344 0.08642 0.7618 0.0
H1368 H 0.07963 0.19202 0.79826 0.0
H1369 H 0.09957 0.05735 0.80764 0.0
H1370 H 0.05838 0.18673 0.75265 0.0
H1371 H 0.11514 0.19393 0.75449 0.0
H1372 H 0.07971 0.22194 0.76956 0.0
H1373 H 0.07857 0.02203 0.76374 0.0
H1374 H 0.10312 0.00658 0.78451 0.0
H1375 H 0.13531 0.02738 0.76655 0.0
C1376 C 0.36382 0.14484 0.29775 0.0
C1377 C 0.36162 0.10469 0.3063 0.0
C1378 C 0.37114 0.14806 0.27939 0.0
C1379 C 0.37623 0.11017 0.26915 0.0
C1380 C 0.37397 0.06946 0.27762 0.0
C1381 C 0.36708 0.0672 0.29611 0.0
C1382 C 0.37351 0.19213 0.27094 0.0
C1383 C 0.37904 0.02828 0.26714 0.0
C1384 C 0.35281 0.12049 0.21974 0.0
C1385 C 0.39415 0.12366 0.21235 0.0
C1386 C 0.34664 0.11527 0.2381 0.0
C1387 C 0.38268 0.11343 0.24952 0.0
C1388 C 0.42456 0.11633 0.24221 0.0
C1389 C 0.42982 0.12097 0.2237 0.0
C1390 C 0.30144 0.11198 0.24528 0.0
C1391 C 0.46382 0.11467 0.25396 0.0
H1392 H 0.35987 0.17407 0.30547 0.0
H1393 H 0.36717 0.0361 0.30256 0.0
H1394 H 0.40471 0.19611 0.264 0.0
H1395 H 0.34784 0.19553 0.26081 0.0
H1396 H 0.36999 0.21848 0.28084 0.0
H1397 H 0.37579 -0.00081 0.27563 0.0
H1398 H 0.35452 0.02678 0.25645 0.0
H1399 H 0.41099 0.02761 0.26062 0.0
H1400 H 0.32495 0.12225 0.21114 0.0
H1401 H 0.46188 0.12155 0.21819 0.0
H1402 H 0.29495 0.13928 0.25442 0.0
H1403 H 0.29773 0.08189 0.25308 0.0
H1404 H 0.2769 0.11226 0.23456 0.0
H1405 H 0.46268 0.14124 0.26383 0.0
H1406 H 0.49414 0.11738 0.24625 0.0
H1407 H 0.46432 0.08401 0.26152 0.0
C1408 C 0.36335 0.39187 0.79755 0.0
C1409 C 0.40284 0.37819 0.80457 0.0
C1410 C 0.35742 0.39706 0.77918 0.0
C1411 C 0.39188 0.38857 0.76743 0.0
C1412 C 0.43199 0.37507 0.77439 0.0
C1413 C 0.43705 0.3702 0.79289 0.0
C1414 C 0.31412 0.41141 0.77234 0.0
C1415 C 0.4696 0.36591 0.76229 0.0
C1416 C 0.3647 0.36042 0.71954 0.0
C1417 C 0.37223 0.39948 0.71069 0.0
C1418 C 0.37092 0.35652 0.73795 0.0
C1419 C 0.38538 0.3925 0.74783 0.0
C1420 C 0.39296 0.43213 0.73902 0.0
C1421 C 0.38637 0.43514 0.72053 0.0
C1422 C 0.36219 0.31376 0.7468 0.0
C1423 C 0.40859 0.47118 0.74908 0.0
H1424 H 0.33678 0.39835 0.80648 0.0
H1425 H 0.46808 0.36116 0.79816 0.0
H1426 H 0.31765 0.44132 0.76441 0.0
H1427 H 0.30056 0.38644 0.76339 0.0
H1428 H 0.29085 0.41751 0.78326 0.0
H1429 H 0.49872 0.35604 0.76978 0.0
H1430 H 0.46112 0.33991 0.75279 0.0
H1431 H 0.47736 0.39496 0.75434 0.0
H1432 H 0.35391 0.33266 0.71201 0.0
H1433 H 0.39362 0.46501 0.71376 0.0
H1434 H 0.33742 0.31771 0.75729 0.0
H1435 H 0.39178 0.30187 0.75339 0.0
H1436 H 0.35099 0.28892 0.73723 0.0
H1437 H 0.38568 0.47932 0.75988 0.0
H1438 H 0.41243 0.49976 0.74034 0.0
H1439 H 0.43994 0.46406 0.75544 0.0
C1440 C 0.85169 0.63234 0.79675 0.0
C1441 C 0.8914 0.63125 0.80561 0.0
C1442 C 0.84844 0.6233 0.77849 0.0
C1443 C 0.88587 0.61313 0.76868 0.0
C1444 C 0.92607 0.61166 0.7775 0.0
C1445 C 0.92828 0.62023 0.79587 0.0
C1446 C 0.80487 0.62483 0.76968 0.0
C1447 C 0.96681 0.60116 0.76751 0.0
C1448 C 0.87399 0.55811 0.72345 0.0
C1449 C 0.87653 0.59324 0.71176 0.0
C1450 C 0.87669 0.56402 0.74201 0.0
C1451 C 0.88305 0.60591 0.74906 0.0
C1452 C 0.88615 0.64135 0.73733 0.0
C1453 C 0.88266 0.63462 0.71893 0.0
C1454 C 0.87294 0.5254 0.75409 0.0
C1455 C 0.89335 0.68651 0.74421 0.0
H1456 H 0.82286 0.6404 0.80412 0.0
H1457 H 0.95882 0.61727 0.80258 0.0
H1458 H 0.80451 0.65032 0.75935 0.0
H1459 H 0.79816 0.59378 0.76291 0.0
H1460 H 0.77863 0.63141 0.77932 0.0
H1461 H -0.00446 0.60143 0.77626 0.0
H1462 H 0.96407 0.56893 0.76124 0.0
H1463 H 0.97176 0.62483 0.75665 0.0
H1464 H 0.87097 0.52584 0.71821 0.0
H1465 H 0.88485 0.6621 0.7101 0.0
H1466 H 0.84646 0.53035 0.76376 0.0
H1467 H 0.90295 0.52148 0.76186 0.0
H1468 H 0.86677 0.49517 0.7466 0.0
H1469 H 0.86642 0.69608 0.75302 0.0
H1470 H 0.89605 0.71049 0.73331 0.0
H1471 H 0.92316 0.68768 0.75228 0.0
C1472 C 0.91157 0.82785 0.22594 0.0
C1473 C 0.92604 0.86457 0.21696 0.0
C1474 C 0.90186 0.82949 0.24422 0.0
C1475 C 0.90752 0.86857 0.25374 0.0
C1476 C 0.9236 0.90526 0.24478 0.0
C1477 C 0.9321 0.90294 0.22647 0.0
C1478 C 0.88418 0.78985 0.25323 0.0
C1479 C 0.93118 0.94722 0.25446 0.0
C1480 C 0.84528 0.88814 0.29672 0.0
C1481 C 0.87567 0.87663 0.30959 0.0
C1482 C 0.85505 0.88529 0.27847 0.0
C1483 C 0.89641 0.87133 0.27302 0.0
C1484 C 0.92741 0.86053 0.28603 0.0
C1485 C 0.91648 0.86282 0.30412 0.0
C1486 C 0.82089 0.89648 0.26501 0.0
C1487 C 0.97215 0.84655 0.28086 0.0
H1488 H 0.90599 0.79843 0.21853 0.0
H1489 H 0.94322 0.93141 0.2195 0.0
H1490 H 0.90461 0.78096 0.26473 0.0
H1491 H 0.85156 0.7967 0.25847 0.0
H1492 H 0.88223 0.76185 0.24406 0.0
H1493 H 0.946 0.97203 0.24576 0.0
H1494 H 0.90029 0.95993 0.2596 0.0
H1495 H 0.95246 0.94188 0.26608 0.0
H1496 H 0.81345 0.89799 0.30089 0.0
H1497 H 0.9401 0.85398 0.31406 0.0
H1498 H 0.81476 0.8684 0.25623 0.0
H1499 H 0.83211 0.92324 0.25642 0.0
H1500 H 0.79018 0.90616 0.27138 0.0
H1501 H 0.9706 0.81677 0.27272 0.0
H1502 H 0.99284 0.84034 0.29261 0.0
H1503 H 0.98757 0.87173 0.27256 0.0
C1504 C 0.63448 0.84776 0.7986 0.0
C1505 C 0.60036 0.86418 0.80866 0.0
C1506 C 0.63627 0.85382 0.78011 0.0
C1507 C 0.60384 0.87818 0.77155 0.0
C1508 C 0.56932 0.89502 0.78171 0.0
C1509 C 0.56775 0.88739 0.80016 0.0
C1510 C 0.67299 0.83427 0.76976 0.0
C1511 C 0.53472 0.92203 0.77318 0.0
C1512 C 0.63544 0.9236 0.72625 0.0
C1513 C 0.61557 0.89451 0.71453 0.0
C1514 C 0.63032 0.91985 0.74481 0.0
C1515 C 0.60598 0.88534 0.75192 0.0
C1516 C 0.58569 0.85605 0.74024 0.0
C1517 C 0.59034 0.86124 0.7218 0.0
C1518 C 0.65194 0.95222 0.75683 0.0
C1519 C 0.5602 0.81824 0.74721 0.0
H1520 H 0.65984 0.83008 0.80526 0.0
H1521 H 0.54197 0.90104 0.80804 0.0
H1522 H 0.66032 0.81338 0.75899 0.0
H1523 H 0.6922 0.86006 0.76338 0.0
H1524 H 0.69461 0.81477 0.77832 0.0
H1525 H 0.51016 0.93286 0.78292 0.0
H1526 H 0.54936 0.9508 0.76687 0.0
H1527 H 0.51849 0.90347 0.76251 0.0
H1528 H 0.65615 0.94856 0.72117 0.0
H1529 H 0.57461 0.83843 0.71304 0.0
H1530 H 0.67824 0.93636 0.7643 0.0
H1531 H 0.62871 0.96487 0.76673 0.0
H1532 H 0.66567 0.97973 0.74929 0.0
H1533 H 0.58148 0.79691 0.75511 0.0
H1534 H 0.54546 0.79894 0.73636 0.0
H1535 H 0.53434 0.82958 0.7562 0.0
C1536 C 0.55562 0.61722 0.22396 0.0
C1537 C 0.59149 0.63338 0.21485 0.0
C1538 C 0.55806 0.60646 0.24214 0.0
C1539 C 0.59746 0.6114 0.25137 0.0
C1540 C 0.63373 0.62765 0.24223 0.0
C1541 C 0.63028 0.63842 0.22416 0.0
C1542 C 0.51861 0.58933 0.25142 0.0
C1543 C 0.67637 0.6334 0.25151 0.0
C1544 C 0.59784 0.62253 0.30175 0.0
C1545 C 0.61 0.58112 0.30735 0.0
C1546 C 0.59308 0.63254 0.28366 0.0
C1547 C 0.6008 0.60047 0.27068 0.0
C1548 C 0.61289 0.55852 0.27617 0.0
C1549 C 0.61699 0.54924 0.29444 0.0
C1550 C 0.57989 0.6776 0.27843 0.0
C1551 C 0.62147 0.52341 0.26274 0.0
H1552 H 0.52596 0.6116 0.21685 0.0
H1553 H 0.65829 0.65066 0.21724 0.0
H1554 H 0.52488 0.55635 0.25643 0.0
H1555 H 0.51084 0.60974 0.2631 0.0
H1556 H 0.49017 0.58829 0.2425 0.0
H1557 H 0.70164 0.64597 0.24246 0.0
H1558 H 0.6728 0.65603 0.26284 0.0
H1559 H 0.68732 0.60216 0.25704 0.0
H1560 H 0.5921 0.64743 0.31157 0.0
H1561 H 0.6247 0.51677 0.29851 0.0
H1562 H 0.55031 0.67648 0.27022 0.0
H1563 H 0.6054 0.69261 0.2702 0.0
H1564 H 0.57386 0.69852 0.29016 0.0
H1565 H 0.59243 0.51786 0.25451 0.0
H1566 H 0.63076 0.49254 0.26913 0.0
H1567 H 0.64761 0.53347 0.25361 0.0
C1568 C 0.34313 0.24566 0.09726 0.0
C1569 C 0.3455 0.21171 0.10949 0.0
C1570 C 0.30505 0.26919 0.09521 0.0
C1571 C 0.26855 0.25753 0.10531 0.0
C1572 C 0.27032 0.22188 0.11703 0.0
C1573 C 0.30907 0.19977 0.11917 0.0
C1574 C 0.30448 0.30761 0.08292 0.0
C1575 C 0.23163 0.20779 0.12768 0.0
C1576 C 0.17895 0.33159 0.1192 0.0
C1577 C 0.1458 0.31746 0.10805 0.0
C1578 C 0.22058 0.31515 0.11734 0.0
C1579 C 0.22865 0.2832 0.10432 0.0
C1580 C 0.19618 0.2715 0.09211 0.0
C1581 C 0.15513 0.28923 0.09399 0.0
C1582 C 0.25494 0.32938 0.13024 0.0
C1583 C 0.20345 0.23716 0.07819 0.0
H1584 H 0.37162 0.25518 0.08995 0.0
H1585 H 0.31106 0.17337 0.12857 0.0
H1586 H 0.27664 0.30588 0.07376 0.0
H1587 H 0.30086 0.3375 0.09088 0.0
H1588 H 0.33438 0.31015 0.07492 0.0
H1589 H 0.23761 0.17753 0.13515 0.0
H1590 H 0.22276 0.23334 0.13733 0.0
H1591 H 0.20368 0.20277 0.11876 0.0
H1592 H 0.17191 0.35387 0.12992 0.0
H1593 H 0.12957 0.2782 0.08532 0.0
H1594 H 0.28575 0.33507 0.12321 0.0
H1595 H 0.26047 0.30359 0.14019 0.0
H1596 H 0.24571 0.35923 0.13744 0.0
H1597 H 0.23456 0.24204 0.0713 0.0
H1598 H 0.17738 0.23657 0.06811 0.0
H1599 H 0.20469 0.20518 0.08475 0.0
C1600 C 0.26588 0.34407 0.59234 0.0
C1601 C 0.29915 0.3463 0.60484 0.0
C1602 C 0.24194 0.30616 0.59029 0.0
C1603 C 0.25249 0.26976 0.60069 0.0
C1604 C 0.28816 0.27107 0.61236 0.0
C1605 C 0.3107 0.30965 0.6145 0.0
C1606 C 0.20364 0.30612 0.57798 0.0
C1607 C 0.30108 0.23245 0.62333 0.0
C1608 C 0.17184 0.18817 0.6167 0.0
C1609 C 0.18171 0.15286 0.60589 0.0
C1610 C 0.19237 0.22777 0.61417 0.0
C1611 C 0.22423 0.23151 0.60082 0.0
C1612 C 0.23245 0.19672 0.58918 0.0
C1613 C 0.21063 0.15777 0.59174 0.0
C1614 C 0.18194 0.26469 0.62653 0.0
C1615 C 0.26664 0.1994 0.57498 0.0
H1616 H 0.25675 0.37272 0.58502 0.0
H1617 H 0.33666 0.31154 0.62408 0.0
H1618 H 0.20314 0.27657 0.56969 0.0
H1619 H 0.17372 0.30629 0.58601 0.0
H1620 H 0.20334 0.33469 0.5691 0.0
H1621 H 0.33233 0.23737 0.63017 0.0
H1622 H 0.2762 0.22603 0.63356 0.0
H1623 H 0.30347 0.20337 0.61481 0.0
H1624 H 0.14909 0.18441 0.62752 0.0
H1625 H 0.21841 0.13035 0.5834 0.0
H1626 H 0.17739 0.29489 0.61888 0.0
H1627 H 0.20912 0.26992 0.63582 0.0
H1628 H 0.15252 0.25845 0.63449 0.0
H1629 H 0.26394 0.22993 0.56743 0.0
H1630 H 0.26483 0.172 0.5655 0.0
H1631 H 0.29878 0.19907 0.58136 0.0
C1632 C 0.14311 0.25844 0.91994 0.0
C1633 C 0.14514 0.22171 0.90913 0.0
C1634 C 0.17916 0.28496 0.92216 0.0
C1635 C 0.21814 0.2735 0.91376 0.0
C1636 C 0.22071 0.23521 0.90352 0.0
C1637 C 0.18384 0.21017 0.90105 0.0
C1638 C 0.17487 0.32619 0.93267 0.0
C1639 C 0.26213 0.22124 0.89476 0.0
C1640 C 0.30739 0.34608 0.89877 0.0
C1641 C 0.33941 0.33506 0.91102 0.0
C1642 C 0.26556 0.33015 0.90068 0.0
C1643 C 0.25625 0.30183 0.91491 0.0
C1644 C 0.28709 0.29475 0.92839 0.0
C1645 C 0.32833 0.31203 0.92639 0.0
C1646 C 0.23282 0.33989 0.88644 0.0
C1647 C 0.27844 0.26463 0.94373 0.0
H1648 H 0.11274 0.26765 0.9259 0.0
H1649 H 0.1851 0.18172 0.89269 0.0
H1650 H 0.20202 0.33003 0.94208 0.0
H1651 H 0.17582 0.35398 0.92341 0.0
H1652 H 0.14426 0.32752 0.94025 0.0
H1653 H 0.25945 0.18892 0.8885 0.0
H1654 H 0.27129 0.24477 0.88433 0.0
H1655 H 0.28851 0.22041 0.90467 0.0
H1656 H 0.31576 0.36449 0.88701 0.0
H1657 H 0.35295 0.30358 0.93597 0.0
H1658 H 0.20066 0.34537 0.89238 0.0
H1659 H 0.23025 0.31195 0.87729 0.0
H1660 H 0.24196 0.36863 0.8785 0.0
H1661 H 0.24576 0.26964 0.94922 0.0
H1662 H 0.30225 0.2688 0.9546 0.0
H1663 H 0.2803 0.23087 0.93892 0.0
C1664 C 0.20802 0.35737 0.4248 0.0
C1665 C 0.17851 0.36365 0.41097 0.0
C1666 C 0.22768 0.31728 0.42728 0.0
C1667 C 0.21661 0.28275 0.4159 0.0
C1668 C 0.18383 0.28796 0.40303 0.0
C1669 C 0.16555 0.32867 0.40054 0.0
C1670 C 0.26293 0.3131 0.44095 0.0
C1671 C 0.17029 0.25141 0.39102 0.0
C1672 C 0.29865 0.20078 0.40129 0.0
C1673 C 0.28681 0.16498 0.41143 0.0
C1674 C 0.2776 0.24019 0.40346 0.0
C1675 C 0.24306 0.24323 0.41566 0.0
C1676 C 0.23209 0.2076 0.42644 0.0
C1677 C 0.25459 0.16885 0.42434 0.0
C1678 C 0.29103 0.27798 0.39209 0.0
C1679 C 0.19491 0.20949 0.43931 0.0
H1680 H 0.21825 0.38454 0.43282 0.0
H1681 H 0.1424 0.33354 0.38995 0.0
H1682 H 0.25974 0.28261 0.4485 0.0
H1683 H 0.29448 0.31234 0.43409 0.0
H1684 H 0.26298 0.34045 0.45049 0.0
H1685 H 0.14027 0.25891 0.38366 0.0
H1686 H 0.19606 0.24491 0.38118 0.0
H1687 H 0.16531 0.22152 0.39882 0.0
H1688 H 0.32377 0.19764 0.39137 0.0
H1689 H 0.24519 0.14087 0.43204 0.0
H1690 H 0.2957 0.30707 0.40045 0.0
H1691 H 0.26535 0.28537 0.38233 0.0
H1692 H 0.32122 0.27153 0.38467 0.0
H1693 H 0.19665 0.23899 0.4476 0.0
H1694 H 0.1939 0.18094 0.44819 0.0
H1695 H 0.16434 0.21091 0.43174 0.0
C1696 C 0.85286 0.75169 0.92686 0.0
C1697 C 0.85013 0.72041 0.91343 0.0
C1698 C 0.81737 0.77751 0.93111 0.0
C1699 C 0.77833 0.77112 0.92189 0.0
C1700 C 0.77487 0.73785 0.90903 0.0
C1701 C 0.81106 0.71326 0.90479 0.0
C1702 C 0.82259 0.8131 0.94462 0.0
C1703 C 0.73338 0.72926 0.8992 0.0
C1704 C 0.66743 0.80687 0.9342 0.0
C1705 C 0.65915 0.83488 0.91999 0.0
C1706 C 0.70838 0.78906 0.93647 0.0
C1707 C 0.74146 0.80051 0.92448 0.0
C1708 C 0.73482 0.8341 0.91208 0.0
C1709 C 0.69338 0.85063 0.90982 0.0
C1710 C 0.7144 0.75377 0.95003 0.0
C1711 C 0.76995 0.84856 0.89961 0.0
H1712 H 0.88334 0.75752 0.93342 0.0
H1713 H 0.809 0.68886 0.8945 0.0
H1714 H 0.8274 0.84408 0.93755 0.0
H1715 H 0.79353 0.81648 0.95304 0.0
H1716 H 0.85084 0.80757 0.95335 0.0
H1717 H 0.73521 0.69991 0.89077 0.0
H1718 H 0.70651 0.72533 0.90876 0.0
H1719 H 0.72562 0.75707 0.89052 0.0
H1720 H 0.64103 0.79489 0.9422 0.0
H1721 H 0.68709 0.87299 0.89906 0.0
H1722 H 0.74663 0.7556 0.95626 0.0
H1723 H 0.71181 0.72205 0.94329 0.0
H1724 H 0.68957 0.75523 0.96063 0.0
H1725 H 0.80113 0.85089 0.90668 0.0
H1726 H 0.76249 0.88025 0.8935 0.0
H1727 H 0.7736 0.82454 0.88877 0.0
C1728 C 0.65916 0.65842 0.40263 0.0
C1729 C 0.6712 0.62373 0.41338 0.0
C1730 C 0.67716 0.69921 0.40527 0.0
C1731 C 0.70867 0.70479 0.41865 0.0
C1732 C 0.71828 0.67073 0.43046 0.0
C1733 C 0.69895 0.63054 0.4278 0.0
C1734 C 0.66514 0.73529 0.39278 0.0
C1735 C 0.75204 0.67536 0.44475 0.0
C1736 C 0.79384 0.78359 0.40422 0.0
C1737 C 0.78196 0.8205 0.41366 0.0
C1738 C 0.77169 0.74488 0.40661 0.0
C1739 C 0.73606 0.74366 0.41833 0.0
C1740 C 0.72504 0.78041 0.42845 0.0
C1741 C 0.74859 0.81846 0.42615 0.0
C1742 C 0.78514 0.70588 0.39594 0.0
C1743 C 0.68679 0.78044 0.44079 0.0
H1744 H 0.63728 0.65318 0.39162 0.0
H1745 H 0.70838 0.60363 0.43611 0.0
H1746 H 0.66016 0.76572 0.40023 0.0
H1747 H 0.6917 0.74073 0.38319 0.0
H1748 H 0.63552 0.72783 0.38513 0.0
H1749 H 0.75037 0.6488 0.45462 0.0
H1750 H 0.78433 0.67485 0.4385 0.0
H1751 H 0.74871 0.70652 0.45183 0.0
H1752 H 0.81986 0.78532 0.39465 0.0
H1753 H 0.73919 0.8473 0.4333 0.0
H1754 H 0.7601 0.69824 0.38593 0.0
H1755 H 0.78846 0.67741 0.40475 0.0
H1756 H 0.81607 0.71104 0.38888 0.0
H1757 H 0.65684 0.77987 0.4328 0.0
H1758 H 0.68616 0.8094 0.44947 0.0
H1759 H 0.68668 0.75127 0.44929 0.0
C1760 C 0.82173 0.83117 0.09992 0.0
C1761 C 0.84322 0.82365 0.11601 0.0
C1762 C 0.77972 0.81601 0.09729 0.0
C1763 C 0.75957 0.79195 0.11092 0.0
C1764 C 0.78047 0.78587 0.12742 0.0
C1765 C 0.82177 0.80235 0.12984 0.0
C1766 C 0.75759 0.82432 0.07978 0.0
C1767 C 0.76019 0.75999 0.14225 0.0
C1768 C 0.64213 0.76661 0.11571 0.0
C1769 C 0.64136 0.72349 0.11034 0.0
C1770 C 0.67975 0.79094 0.1143 0.0
C1771 C 0.71755 0.77095 0.10794 0.0
C1772 C 0.71612 0.728 0.10153 0.0
C1773 C 0.67759 0.70477 0.10263 0.0
C1774 C 0.67971 0.83697 0.12079 0.0
C1775 C 0.75599 0.70544 0.0949 0.0
H1776 H 0.8381 0.84789 0.08923 0.0
H1777 H 0.83811 0.79633 0.14232 0.0
H1778 H 0.75555 0.7939 0.07208 0.0
H1779 H 0.72426 0.83577 0.08202 0.0
H1780 H 0.77501 0.84852 0.07163 0.0
H1781 H 0.78079 0.75854 0.15429 0.0
H1782 H 0.72881 0.77416 0.14603 0.0
H1783 H 0.75405 0.72659 0.13763 0.0
H1784 H 0.61354 0.7809 0.12148 0.0
H1785 H 0.67647 0.67133 0.0985 0.0
H1786 H 0.69852 0.85788 0.11171 0.0
H1787 H 0.69504 0.83858 0.1341 0.0
H1788 H 0.6466 0.85003 0.12194 0.0
H1789 H 0.77328 0.72584 0.08515 0.0
H1790 H 0.7485 0.67397 0.08858 0.0
H1791 H 0.77808 0.69969 0.10624 0.0
C1792 C 0.68464 0.8035 0.61858 0.0
C1793 C 0.6949 0.83996 0.60855 0.0
C1794 C 0.70655 0.76474 0.61593 0.0
C1795 C 0.74026 0.76303 0.6033 0.0
C1796 C 0.74953 0.79927 0.5926 0.0
C1797 C 0.72626 0.83735 0.59522 0.0
C1798 C 0.69505 0.72629 0.62728 0.0
C1799 C 0.78581 0.79878 0.57927 0.0
C1800 C 0.82257 0.68084 0.61705 0.0
C1801 C 0.81074 0.64564 0.60651 0.0
C1802 C 0.802 0.72057 0.61509 0.0
C1803 C 0.76808 0.72453 0.60267 0.0
C1804 C 0.75776 0.68979 0.59127 0.0
C1805 C 0.7797 0.65071 0.59319 0.0
C1806 C 0.81468 0.75739 0.62714 0.0
C1807 C 0.72133 0.6927 0.57808 0.0
H1808 H 0.66012 0.8056 0.62879 0.0
H1809 H 0.73438 0.8658 0.58757 0.0
H1810 H 0.69093 0.69722 0.61886 0.0
H1811 H 0.72149 0.71963 0.63677 0.0
H1812 H 0.66506 0.73156 0.635 0.0
H1813 H 0.78535 0.82757 0.57051 0.0
H1814 H 0.81693 0.79808 0.58646 0.0
H1815 H 0.78431 0.76945 0.57087 0.0
H1816 H 0.84691 0.67686 0.62723 0.0
H1817 H 0.77041 0.62329 0.58512 0.0
H1818 H 0.78912 0.76276 0.63719 0.0
H1819 H 0.8182 0.78758 0.6194 0.0
H1820 H 0.84529 0.75093 0.63425 0.0
H1821 H 0.69032 0.69246 0.58536 0.0
H1822 H 0.72145 0.66533 0.56855 0.0
H1823 H 0.72294 0.72326 0.57049 0.0
loop_
_geom_bond_atom_site_label_1
_geom_bond_atom_site_label_2
_geom_bond_distance
_geom_bond_site_symmetry_2
_ccdc_geom_bond_type
Co0 O3 1.970 . S
Co0 N17 1.989 . S
Co0 O25 1.967 . S
Co0 O32 1.920 . S
Co1 O4 1.966 . S
Co1 N10 2.022 . S
Co1 N18 1.993 . S
Co1 O26 1.941 . S
C2 O3 1.258 . S
C2 O4 1.263 . S
O3 Co0 1.970 . S
O3 C2 1.258 . S
O4 Co1 1.966 . S
O4 C2 1.263 . S
C5 O6 1.235 1_455 S
C5 O32 1.289 . S
O6 C5 1.235 1_655 S
C7 C9 1.400 . S
C7 N10 1.351 . S
C7 C12 1.501 . S
C8 C9 1.387 . S
C8 N11 1.341 . S
C9 C7 1.400 . S
C9 C8 1.387 . S
N10 Co1 2.022 . S
N10 C7 1.351 . S
N10 N11 1.365 . S
N11 C8 1.341 . S
N11 N10 1.365 . S
N11 H31 0.862 . S
C12 C7 1.501 . S
C12 H13 0.961 . S
C12 H14 0.961 1_455 S
C12 H15 0.960 . S
H13 C12 0.961 . S
H14 C12 0.961 1_655 S
H15 C12 0.960 . S
C16 N17 1.342 . S
C16 C20 1.401 . S
C16 C21 1.499 . S
N17 Co0 1.989 . S
N17 C16 1.342 . S
N17 N18 1.388 . S
N18 Co1 1.993 . S
N18 N17 1.388 . S
N18 C19 1.346 . S
C19 N18 1.346 . S
C19 C20 1.396 . S
C19 C29 1.510 . S
C20 C16 1.401 . S
C20 C19 1.396 . S
C21 C16 1.499 . S
C21 H22 0.959 . S
C21 H23 0.960 . S
C21 H24 0.961 . S
H22 C21 0.959 . S
H23 C21 0.960 . S
H24 C21 0.961 . S
O25 Co0 1.967 . S
O25 C33 1.258 . S
O26 Co1 1.941 . S
O26 C33 1.266 . S
H27 C29 0.959 . S
H28 C29 0.961 . S
C29 C19 1.510 . S
C29 H27 0.959 . S
C29 H28 0.961 . S
C29 H30 0.960 . S
H30 C29 0.960 . S
H31 N11 0.862 . S
O32 Co0 1.920 . S
O32 C5 1.289 . S
C33 O25 1.258 . S
C33 O26 1.266 . S
Co34 O37 1.970 . S
Co34 N51 1.989 . S
Co34 O59 1.967 . S
Co34 O66 1.920 . S
Co35 O38 1.966 . S
Co35 N44 2.022 . S
Co35 N52 1.993 . S
Co35 O60 1.941 . S
C36 O37 1.258 . S
C36 O38 1.263 . S
O37 Co34 1.970 . S
O37 C36 1.258 . S
O38 Co35 1.966 . S
O38 C36 1.263 . S
C39 O40 1.235 1_545 S
C39 O66 1.289 . S
O40 C39 1.235 1_565 S
C41 C43 1.400 . S
C41 N44 1.351 . S
C41 C46 1.501 . S
C42 C43 1.387 . S
C42 N45 1.341 . S
C43 C41 1.400 . S
C43 C42 1.387 . S
N44 Co35 2.022 . S
N44 C41 1.351 . S
N44 N45 1.365 . S
N45 C42 1.341 . S
N45 N44 1.365 . S
N45 H65 0.862 . S
C46 C41 1.501 . S
C46 H47 0.961 . S
C46 H48 0.961 1_545 S
C46 H49 0.960 . S
H47 C46 0.961 . S
H48 C46 0.961 1_565 S
H49 C46 0.960 . S
C50 N51 1.342 . S
C50 C54 1.401 . S
C50 C55 1.499 . S
N51 Co34 1.989 . S
N51 C50 1.342 . S
N51 N52 1.388 . S
N52 Co35 1.993 . S
N52 N51 1.388 . S
N52 C53 1.346 . S
C53 N52 1.346 . S
C53 C54 1.396 . S
C53 C63 1.510 . S
C54 C50 1.401 . S
C54 C53 1.396 . S
C55 C50 1.499 . S
C55 H56 0.959 . S
C55 H57 0.960 . S
C55 H58 0.961 . S
H56 C55 0.959 . S
H57 C55 0.960 . S
H58 C55 0.961 . S
O59 Co34 1.967 . S
O59 C67 1.258 . S
O60 Co35 1.941 . S
O60 C67 1.266 . S
H61 C63 0.959 . S
H62 C63 0.961 . S
C63 C53 1.510 . S
C63 H61 0.959 . S
C63 H62 0.961 . S
C63 H64 0.960 . S
H64 C63 0.960 . S
H65 N45 0.862 . S
O66 Co34 1.920 . S
O66 C39 1.289 . S
C67 O59 1.258 . S
C67 O60 1.266 . S
Co68 O71 1.970 . S
Co68 N85 1.989 . S
Co68 O93 1.967 . S
Co68 O100 1.920 . S
Co69 O72 1.966 . S
Co69 N78 2.022 . S
Co69 N86 1.993 . S
Co69 O94 1.941 . S
C70 O71 1.258 . S
C70 O72 1.263 . S
O71 Co68 1.970 . S
O71 C70 1.258 . S
O72 Co69 1.966 . S
O72 C70 1.263 . S
C73 O74 1.235 . S
C73 O100 1.289 . S
O74 C73 1.235 . S
C75 C77 1.400 . S
C75 N78 1.351 . S
C75 C80 1.501 . S
C76 C77 1.387 . S
C76 N79 1.341 . S
C77 C75 1.400 . S
C77 C76 1.387 . S
N78 Co69 2.022 . S
N78 C75 1.351 . S
N78 N79 1.365 . S
N79 C76 1.341 . S
N79 N78 1.365 . S
N79 H99 0.862 . S
C80 C75 1.501 . S
C80 H81 0.961 . S
C80 H82 0.961 . S
C80 H83 0.960 . S
H81 C80 0.961 . S
H82 C80 0.961 . S
H83 C80 0.960 . S
C84 N85 1.342 . S
C84 C88 1.401 . S
C84 C89 1.499 . S
N85 Co68 1.989 . S
N85 C84 1.342 . S
N85 N86 1.388 . S
N86 Co69 1.993 . S
N86 N85 1.388 . S
N86 C87 1.346 . S
C87 N86 1.346 . S
C87 C88 1.396 . S
C87 C97 1.510 . S
C88 C84 1.401 . S
C88 C87 1.396 . S
C89 C84 1.499 . S
C89 H90 0.959 . S
C89 H91 0.960 . S
C89 H92 0.961 . S
H90 C89 0.959 . S
H91 C89 0.960 . S
H92 C89 0.961 . S
O93 Co68 1.967 . S
O93 C101 1.258 . S
O94 Co69 1.941 . S
O94 C101 1.266 . S
H95 C97 0.959 . S
H96 C97 0.961 . S
C97 C87 1.510 . S
C97 H95 0.959 . S
C97 H96 0.961 . S
C97 H98 0.960 . S
H98 C97 0.960 . S
H99 N79 0.862 . S
O100 Co68 1.920 . S
O100 C73 1.289 . S
C101 O93 1.258 . S
C101 O94 1.266 . S
Co102 O105 1.970 . S
Co102 N119 1.989 . S
Co102 O127 1.967 . S
Co102 O134 1.920 . S
Co103 O106 1.966 . S
Co103 N112 2.022 . S
Co103 N120 1.993 . S
Co103 O128 1.941 . S
C104 O105 1.258 . S
C104 O106 1.263 . S
O105 Co102 1.970 . S
O105 C104 1.258 . S
O106 Co103 1.966 . S
O106 C104 1.263 . S
C107 O108 1.235 . S
C107 O134 1.289 . S
O108 C107 1.235 . S
C109 C111 1.400 . S
C109 N112 1.351 . S
C109 C114 1.501 . S
C110 C111 1.387 . S
C110 N113 1.341 . S
C111 C109 1.400 . S
C111 C110 1.387 . S
N112 Co103 2.022 . S
N112 C109 1.351 . S
N112 N113 1.365 . S
N113 C110 1.341 . S
N113 N112 1.365 . S
N113 H133 0.862 . S
C114 C109 1.501 . S
C114 H115 0.961 . S
C114 H116 0.961 . S
C114 H117 0.960 . S
H115 C114 0.961 . S
H116 C114 0.961 . S
H117 C114 0.960 . S
C118 N119 1.342 . S
C118 C122 1.401 . S
C118 C123 1.499 . S
N119 Co102 1.989 . S
N119 C118 1.342 . S
N119 N120 1.388 . S
N120 Co103 1.993 . S
N120 N119 1.388 . S
N120 C121 1.346 . S
C121 N120 1.346 . S
C121 C122 1.396 . S
C121 C131 1.510 . S
C122 C118 1.401 . S
C122 C121 1.396 . S
C123 C118 1.499 . S
C123 H124 0.959 . S
C123 H125 0.960 . S
C123 H126 0.961 . S
H124 C123 0.959 . S
H125 C123 0.960 . S
H126 C123 0.961 . S
O127 Co102 1.967 . S
O127 C135 1.258 . S
O128 Co103 1.941 . S
O128 C135 1.266 . S
H129 C131 0.959 . S
H130 C131 0.961 . S
C131 C121 1.510 . S
C131 H129 0.959 . S
C131 H130 0.961 . S
C131 H132 0.960 . S
H132 C131 0.960 . S
H133 N113 0.862 . S
O134 Co102 1.920 . S
O134 C107 1.289 . S
C135 O127 1.258 . S
C135 O128 1.266 . S
Co136 O139 1.970 . S
Co136 N153 1.989 . S
Co136 O161 1.967 . S
Co136 O168 1.920 . S
Co137 O140 1.966 . S
Co137 N146 2.022 . S
Co137 N154 1.993 . S
Co137 O162 1.941 . S
C138 O139 1.258 . S
C138 O140 1.263 . S
O139 Co136 1.970 . S
O139 C138 1.258 . S
O140 Co137 1.966 . S
O140 C138 1.263 . S
C141 O142 1.235 1_455 S
C141 O168 1.289 . S
O142 C141 1.235 1_655 S
C143 C145 1.400 . S
C143 N146 1.351 . S
C143 C148 1.501 . S
C144 C145 1.387 . S
C144 N147 1.341 . S
C145 C143 1.400 . S
C145 C144 1.387 . S
N146 Co137 2.022 . S
N146 C143 1.351 . S
N146 N147 1.365 . S
N147 C144 1.341 . S
N147 N146 1.365 . S
N147 H167 0.862 . S
C148 C143 1.501 . S
C148 H149 0.961 . S
C148 H150 0.961 1_455 S
C148 H151 0.960 . S
H149 C148 0.961 . S
H150 C148 0.961 1_655 S
H151 C148 0.960 . S
C152 N153 1.342 . S
C152 C156 1.401 . S
C152 C157 1.499 . S
N153 Co136 1.989 . S
N153 C152 1.342 . S
N153 N154 1.388 . S
N154 Co137 1.993 . S
N154 N153 1.388 . S
N154 C155 1.346 . S
C155 N154 1.346 . S
C155 C156 1.396 . S
C155 C165 1.510 . S
C156 C152 1.401 . S
C156 C155 1.396 . S
C157 C152 1.499 . S
C157 H158 0.959 . S
C157 H159 0.960 . S
C157 H160 0.961 . S
H158 C157 0.959 . S
H159 C157 0.960 . S
H160 C157 0.961 . S
O161 Co136 1.967 . S
O161 C169 1.258 . S
O162 Co137 1.941 . S
O162 C169 1.266 . S
H163 C165 0.959 . S
H164 C165 0.961 . S
C165 C155 1.510 . S
C165 H163 0.959 . S
C165 H164 0.961 . S
C165 H166 0.960 . S
H166 C165 0.960 . S
H167 N147 0.862 . S
O168 Co136 1.920 . S
O168 C141 1.289 . S
C169 O161 1.258 . S
C169 O162 1.266 . S
Co170 O173 1.970 . S
Co170 N187 1.989 . S
Co170 O195 1.967 . S
Co170 O202 1.920 . S
Co171 O174 1.966 . S
Co171 N180 2.022 . S
Co171 N188 1.993 . S
Co171 O196 1.941 . S
C172 O173 1.258 . S
C172 O174 1.263 . S
O173 Co170 1.970 . S
O173 C172 1.258 . S
O174 Co171 1.966 . S
O174 C172 1.263 . S
C175 O176 1.235 1_545 S
C175 O202 1.289 . S
O176 C175 1.235 1_565 S
C177 C179 1.400 . S
C177 N180 1.351 . S
C177 C182 1.501 . S
C178 C179 1.387 . S
C178 N181 1.341 . S
C179 C177 1.400 . S
C179 C178 1.387 . S
N180 Co171 2.022 . S
N180 C177 1.351 . S
N180 N181 1.365 . S
N181 C178 1.341 . S
N181 N180 1.365 . S
N181 H201 0.862 . S
C182 C177 1.501 . S
C182 H183 0.961 . S
C182 H184 0.961 1_545 S
C182 H185 0.960 . S
H183 C182 0.961 . S
H184 C182 0.961 1_565 S
H185 C182 0.960 . S
C186 N187 1.342 . S
C186 C190 1.401 . S
C186 C191 1.499 . S
N187 Co170 1.989 . S
N187 C186 1.342 . S
N187 N188 1.388 . S
N188 Co171 1.993 . S
N188 N187 1.388 . S
N188 C189 1.346 . S
C189 N188 1.346 . S
C189 C190 1.396 . S
C189 C199 1.510 . S
C190 C186 1.401 . S
C190 C189 1.396 . S
C191 C186 1.499 . S
C191 H192 0.959 . S
C191 H193 0.960 . S
C191 H194 0.961 . S
H192 C191 0.959 . S
H193 C191 0.960 . S
H194 C191 0.961 . S
O195 Co170 1.967 . S
O195 C203 1.258 . S
O196 Co171 1.941 . S
O196 C203 1.266 . S
H197 C199 0.959 . S
H198 C199 0.961 . S
C199 C189 1.510 . S
C199 H197 0.959 . S
C199 H198 0.961 . S
C199 H200 0.960 . S
H200 C199 0.960 . S
H201 N181 0.862 . S
O202 Co170 1.920 . S
O202 C175 1.289 . S
C203 O195 1.258 . S
C203 O196 1.266 . S
Co204 O207 1.970 . S
Co204 N221 1.989 . S
Co204 O229 1.967 . S
Co204 O236 1.920 . S
Co205 O208 1.966 . S
Co205 N214 2.022 . S
Co205 N222 1.993 . S
Co205 O230 1.941 . S
C206 O207 1.258 . S
C206 O208 1.263 . S
O207 Co204 1.970 . S
O207 C206 1.258 . S
O208 Co205 1.966 . S
O208 C206 1.263 . S
C209 O210 1.235 . S
C209 O236 1.289 . S
O210 C209 1.235 . S
C211 C213 1.400 . S
C211 N214 1.351 . S
C211 C216 1.501 . S
C212 C213 1.387 . S
C212 N215 1.341 . S
C213 C211 1.400 . S
C213 C212 1.387 . S
N214 Co205 2.022 . S
N214 C211 1.351 . S
N214 N215 1.365 . S
N215 C212 1.341 . S
N215 N214 1.365 . S
N215 H235 0.862 . S
C216 C211 1.501 . S
C216 H217 0.961 . S
C216 H218 0.961 . S
C216 H219 0.960 . S
H217 C216 0.961 . S
H218 C216 0.961 . S
H219 C216 0.960 . S
C220 N221 1.342 . S
C220 C224 1.401 . S
C220 C225 1.499 . S
N221 Co204 1.989 . S
N221 C220 1.342 . S
N221 N222 1.388 . S
N222 Co205 1.993 . S
N222 N221 1.388 . S
N222 C223 1.346 . S
C223 N222 1.346 . S
C223 C224 1.396 . S
C223 C233 1.510 . S
C224 C220 1.401 . S
C224 C223 1.396 . S
C225 C220 1.499 . S
C225 H226 0.959 . S
C225 H227 0.960 . S
C225 H228 0.961 . S
H226 C225 0.959 . S
H227 C225 0.960 . S
H228 C225 0.961 . S
O229 Co204 1.967 . S
O229 C237 1.258 . S
O230 Co205 1.941 . S
O230 C237 1.266 . S
H231 C233 0.959 . S
H232 C233 0.961 . S
C233 C223 1.510 . S
C233 H231 0.959 . S
C233 H232 0.961 . S
C233 H234 0.960 . S
H234 C233 0.960 . S
H235 N215 0.862 . S
O236 Co204 1.920 . S
O236 C209 1.289 . S
C237 O229 1.258 . S
C237 O230 1.266 . S
Co238 O241 1.970 . S
Co238 N255 1.989 . S
Co238 O263 1.967 . S
Co238 O270 1.920 . S
Co239 O242 1.966 . S
Co239 N248 2.022 . S
Co239 N256 1.993 . S
Co239 O264 1.941 . S
C240 O241 1.258 . S
C240 O242 1.263 . S
O241 Co238 1.970 . S
O241 C240 1.258 . S
O242 Co239 1.966 . S
O242 C240 1.263 . S
C243 O244 1.235 . S
C243 O270 1.289 . S
O244 C243 1.235 . S
C245 C247 1.400 . S
C245 N248 1.351 . S
C245 C250 1.501 . S
C246 C247 1.387 . S
C246 N249 1.341 . S
C247 C245 1.400 . S
C247 C246 1.387 . S
N248 Co239 2.022 . S
N248 C245 1.351 . S
N248 N249 1.365 . S
N249 C246 1.341 . S
N249 N248 1.365 . S
N249 H269 0.862 . S
C250 C245 1.501 . S
C250 H251 0.961 . S
C250 H252 0.961 . S
C250 H253 0.960 . S
H251 C250 0.961 . S
H252 C250 0.961 . S
H253 C250 0.960 . S
C254 N255 1.342 . S
C254 C258 1.401 . S
C254 C259 1.499 . S
N255 Co238 1.989 . S
N255 C254 1.342 . S
N255 N256 1.388 . S
N256 Co239 1.993 . S
N256 N255 1.388 . S
N256 C257 1.346 . S
C257 N256 1.346 . S
C257 C258 1.396 . S
C257 C267 1.510 . S
C258 C254 1.401 . S
C258 C257 1.396 . S
C259 C254 1.499 . S
C259 H260 0.959 . S
C259 H261 0.960 . S
C259 H262 0.961 . S
H260 C259 0.959 . S
H261 C259 0.960 . S
H262 C259 0.961 . S
O263 Co238 1.967 . S
O263 C271 1.258 . S
O264 Co239 1.941 . S
O264 C271 1.266 . S
H265 C267 0.959 . S
H266 C267 0.961 . S
C267 C257 1.510 . S
C267 H265 0.959 . S
C267 H266 0.961 . S
C267 H268 0.960 . S
H268 C267 0.960 . S
H269 N249 0.862 . S
O270 Co238 1.920 . S
O270 C243 1.289 . S
C271 O263 1.258 . S
C271 O264 1.266 . S
Co272 O275 1.970 . S
Co272 N289 1.989 . S
Co272 O297 1.967 . S
Co272 O304 1.920 . S
Co273 O276 1.966 . S
Co273 N282 2.022 . S
Co273 N290 1.993 . S
Co273 O298 1.941 . S
C274 O275 1.258 . S
C274 O276 1.263 . S
O275 Co272 1.970 . S
O275 C274 1.258 . S
O276 Co273 1.966 . S
O276 C274 1.263 . S
C277 O278 1.235 1_655 S
C277 O304 1.289 . S
O278 C277 1.235 1_455 S
C279 C281 1.400 . S
C279 N282 1.351 . S
C279 C284 1.501 . S
C280 C281 1.387 . S
C280 N283 1.341 . S
C281 C279 1.400 . S
C281 C280 1.387 . S
N282 Co273 2.022 . S
N282 C279 1.351 . S
N282 N283 1.365 . S
N283 C280 1.341 . S
N283 N282 1.365 . S
N283 H303 0.862 . S
C284 C279 1.501 . S
C284 H285 0.961 . S
C284 H286 0.961 1_655 S
C284 H287 0.960 . S
H285 C284 0.961 . S
H286 C284 0.961 1_455 S
H287 C284 0.960 . S
C288 N289 1.342 . S
C288 C292 1.401 . S
C288 C293 1.499 . S
N289 Co272 1.989 . S
N289 C288 1.342 . S
N289 N290 1.388 . S
N290 Co273 1.993 . S
N290 N289 1.388 . S
N290 C291 1.346 . S
C291 N290 1.346 . S
C291 C292 1.396 . S
C291 C301 1.510 . S
C292 C288 1.401 . S
C292 C291 1.396 . S
C293 C288 1.499 . S
C293 H294 0.959 . S
C293 H295 0.960 . S
C293 H296 0.961 . S
H294 C293 0.959 . S
H295 C293 0.960 . S
H296 C293 0.961 . S
O297 Co272 1.967 . S
O297 C305 1.258 . S
O298 Co273 1.941 . S
O298 C305 1.266 . S
H299 C301 0.959 . S
H300 C301 0.961 . S
C301 C291 1.510 . S
C301 H299 0.959 . S
C301 H300 0.961 . S
C301 H302 0.960 . S
H302 C301 0.960 . S
H303 N283 0.862 . S
O304 Co272 1.920 . S
O304 C277 1.289 . S
C305 O297 1.258 . S
C305 O298 1.266 . S
Co306 O309 1.970 . S
Co306 N323 1.989 . S
Co306 O331 1.967 . S
Co306 O338 1.920 . S
Co307 O310 1.966 . S
Co307 N316 2.022 . S
Co307 N324 1.993 . S
Co307 O332 1.941 . S
C308 O309 1.258 . S
C308 O310 1.263 . S
O309 Co306 1.970 . S
O309 C308 1.258 . S
O310 Co307 1.966 . S
O310 C308 1.263 . S
C311 O312 1.235 1_565 S
C311 O338 1.289 . S
O312 C311 1.235 1_545 S
C313 C315 1.400 . S
C313 N316 1.351 . S
C313 C318 1.501 . S
C314 C315 1.387 . S
C314 N317 1.341 . S
C315 C313 1.400 . S
C315 C314 1.387 . S
N316 Co307 2.022 . S
N316 C313 1.351 . S
N316 N317 1.365 . S
N317 C314 1.341 . S
N317 N316 1.365 . S
N317 H337 0.862 . S
C318 C313 1.501 . S
C318 H319 0.961 . S
C318 H320 0.961 1_565 S
C318 H321 0.960 . S
H319 C318 0.961 . S
H320 C318 0.961 1_545 S
H321 C318 0.960 . S
C322 N323 1.342 . S
C322 C326 1.401 . S
C322 C327 1.499 . S
N323 Co306 1.989 . S
N323 C322 1.342 . S
N323 N324 1.388 . S
N324 Co307 1.993 . S
N324 N323 1.388 . S
N324 C325 1.346 . S
C325 N324 1.346 . S
C325 C326 1.396 . S
C325 C335 1.510 . S
C326 C322 1.401 . S
C326 C325 1.396 . S
C327 C322 1.499 . S
C327 H328 0.959 . S
C327 H329 0.960 . S
C327 H330 0.961 . S
H328 C327 0.959 . S
H329 C327 0.960 . S
H330 C327 0.961 . S
O331 Co306 1.967 . S
O331 C339 1.258 . S
O332 Co307 1.941 . S
O332 C339 1.266 . S
H333 C335 0.959 . S
H334 C335 0.961 . S
C335 C325 1.510 . S
C335 H333 0.959 . S
C335 H334 0.961 . S
C335 H336 0.960 . S
H336 C335 0.960 . S
H337 N317 0.862 . S
O338 Co306 1.920 . S
O338 C311 1.289 . S
C339 O331 1.258 . S
C339 O332 1.266 . S
Co340 O343 1.970 . S
Co340 N357 1.989 . S
Co340 O365 1.967 . S
Co340 O372 1.920 . S
Co341 O344 1.966 . S
Co341 N350 2.022 . S
Co341 N358 1.993 . S
Co341 O366 1.941 . S
C342 O343 1.258 . S
C342 O344 1.263 . S
O343 Co340 1.970 . S
O343 C342 1.258 . S
O344 Co341 1.966 . S
O344 C342 1.263 . S
C345 O346 1.235 . S
C345 O372 1.289 . S
O346 C345 1.235 . S
C347 C349 1.400 . S
C347 N350 1.351 . S
C347 C352 1.501 . S
C348 C349 1.387 . S
C348 N351 1.341 . S
C349 C347 1.400 . S
C349 C348 1.387 . S
N350 Co341 2.022 . S
N350 C347 1.351 . S
N350 N351 1.365 . S
N351 C348 1.341 . S
N351 N350 1.365 . S
N351 H371 0.862 . S
C352 C347 1.501 . S
C352 H353 0.961 . S
C352 H354 0.961 . S
C352 H355 0.960 . S
H353 C352 0.961 . S
H354 C352 0.961 . S
H355 C352 0.960 . S
C356 N357 1.342 . S
C356 C360 1.401 . S
C356 C361 1.499 . S
N357 Co340 1.989 . S
N357 C356 1.342 . S
N357 N358 1.388 . S
N358 Co341 1.993 . S
N358 N357 1.388 . S
N358 C359 1.346 . S
C359 N358 1.346 . S
C359 C360 1.396 . S
C359 C369 1.510 . S
C360 C356 1.401 . S
C360 C359 1.396 . S
C361 C356 1.499 . S
C361 H362 0.959 . S
C361 H363 0.960 . S
C361 H364 0.961 . S
H362 C361 0.959 . S
H363 C361 0.960 . S
H364 C361 0.961 . S
O365 Co340 1.967 . S
O365 C373 1.258 . S
O366 Co341 1.941 . S
O366 C373 1.266 . S
H367 C369 0.959 . S
H368 C369 0.961 . S
C369 C359 1.510 . S
C369 H367 0.959 . S
C369 H368 0.961 . S
C369 H370 0.960 . S
H370 C369 0.960 . S
H371 N351 0.862 . S
O372 Co340 1.920 . S
O372 C345 1.289 . S
C373 O365 1.258 . S
C373 O366 1.266 . S
Co374 O377 1.970 . S
Co374 N391 1.989 . S
Co374 O399 1.967 . S
Co374 O406 1.920 . S
Co375 O378 1.966 . S
Co375 N384 2.022 . S
Co375 N392 1.993 . S
Co375 O400 1.941 . S
C376 O377 1.258 . S
C376 O378 1.263 . S
O377 Co374 1.970 . S
O377 C376 1.258 . S
O378 Co375 1.966 . S
O378 C376 1.263 . S
C379 O380 1.235 . S
C379 O406 1.289 . S
O380 C379 1.235 . S
C381 C383 1.400 . S
C381 N384 1.351 . S
C381 C386 1.501 . S
C382 C383 1.387 . S
C382 N385 1.341 . S
C383 C381 1.400 . S
C383 C382 1.387 . S
N384 Co375 2.022 . S
N384 C381 1.351 . S
N384 N385 1.365 . S
N385 C382 1.341 . S
N385 N384 1.365 . S
N385 H405 0.862 . S
C386 C381 1.501 . S
C386 H387 0.961 . S
C386 H388 0.961 . S
C386 H389 0.960 . S
H387 C386 0.961 . S
H388 C386 0.961 . S
H389 C386 0.960 . S
C390 N391 1.342 . S
C390 C394 1.401 . S
C390 C395 1.499 . S
N391 Co374 1.989 . S
N391 C390 1.342 . S
N391 N392 1.388 . S
N392 Co375 1.993 . S
N392 N391 1.388 . S
N392 C393 1.346 . S
C393 N392 1.346 . S
C393 C394 1.396 . S
C393 C403 1.510 . S
C394 C390 1.401 . S
C394 C393 1.396 . S
C395 C390 1.499 . S
C395 H396 0.959 . S
C395 H397 0.960 . S
C395 H398 0.961 . S
H396 C395 0.959 . S
H397 C395 0.960 . S
H398 C395 0.961 . S
O399 Co374 1.967 . S
O399 C407 1.258 . S
O400 Co375 1.941 . S
O400 C407 1.266 . S
H401 C403 0.959 . S
H402 C403 0.961 . S
C403 C393 1.510 . S
C403 H401 0.959 . S
C403 H402 0.961 . S
C403 H404 0.960 . S
H404 C403 0.960 . S
H405 N385 0.862 . S
O406 Co374 1.920 . S
O406 C379 1.289 . S
C407 O399 1.258 . S
C407 O400 1.266 . S
Co408 O411 1.970 . S
Co408 N425 1.989 . S
Co408 O433 1.967 . S
Co408 O440 1.920 . S
Co409 O412 1.966 . S
Co409 N418 2.022 . S
Co409 N426 1.993 . S
Co409 O434 1.941 . S
C410 O411 1.258 . S
C410 O412 1.263 . S
O411 Co408 1.970 . S
O411 C410 1.258 . S
O412 Co409 1.966 . S
O412 C410 1.263 . S
C413 O414 1.235 1_655 S
C413 O440 1.289 . S
O414 C413 1.235 1_455 S
C415 C417 1.400 . S
C415 N418 1.351 . S
C415 C420 1.501 . S
C416 C417 1.387 . S
C416 N419 1.341 . S
C417 C415 1.400 . S
C417 C416 1.387 . S
N418 Co409 2.022 . S
N418 C415 1.351 . S
N418 N419 1.365 . S
N419 C416 1.341 . S
N419 N418 1.365 . S
N419 H439 0.862 . S
C420 C415 1.501 . S
C420 H421 0.961 . S
C420 H422 0.961 1_655 S
C420 H423 0.960 . S
H421 C420 0.961 . S
H422 C420 0.961 1_455 S
H423 C420 0.960 . S
C424 N425 1.342 . S
C424 C428 1.401 . S
C424 C429 1.499 . S
N425 Co408 1.989 . S
N425 C424 1.342 . S
N425 N426 1.388 . S
N426 Co409 1.993 . S
N426 N425 1.388 . S
N426 C427 1.346 . S
C427 N426 1.346 . S
C427 C428 1.396 . S
C427 C437 1.510 . S
C428 C424 1.401 . S
C428 C427 1.396 . S
C429 C424 1.499 . S
C429 H430 0.959 . S
C429 H431 0.960 . S
C429 H432 0.961 . S
H430 C429 0.959 . S
H431 C429 0.960 . S
H432 C429 0.961 . S
O433 Co408 1.967 . S
O433 C441 1.258 . S
O434 Co409 1.941 . S
O434 C441 1.266 . S
H435 C437 0.959 . S
H436 C437 0.961 . S
C437 C427 1.510 . S
C437 H435 0.959 . S
C437 H436 0.961 . S
C437 H438 0.960 . S
H438 C437 0.960 . S
H439 N419 0.862 . S
O440 Co408 1.920 . S
O440 C413 1.289 . S
C441 O433 1.258 . S
C441 O434 1.266 . S
Co442 O445 1.970 . S
Co442 N459 1.989 . S
Co442 O467 1.967 . S
Co442 O474 1.920 . S
Co443 O446 1.966 . S
Co443 N452 2.022 . S
Co443 N460 1.993 . S
Co443 O468 1.941 . S
C444 O445 1.258 . S
C444 O446 1.263 . S
O445 Co442 1.970 . S
O445 C444 1.258 . S
O446 Co443 1.966 . S
O446 C444 1.263 . S
C447 O448 1.235 1_565 S
C447 O474 1.289 . S
O448 C447 1.235 1_545 S
C449 C451 1.400 . S
C449 N452 1.351 . S
C449 C454 1.501 . S
C450 C451 1.387 . S
C450 N453 1.341 . S
C451 C449 1.400 . S
C451 C450 1.387 . S
N452 Co443 2.022 . S
N452 C449 1.351 . S
N452 N453 1.365 . S
N453 C450 1.341 . S
N453 N452 1.365 . S
N453 H473 0.862 . S
C454 C449 1.501 . S
C454 H455 0.961 . S
C454 H456 0.961 1_565 S
C454 H457 0.960 . S
H455 C454 0.961 . S
H456 C454 0.961 1_545 S
H457 C454 0.960 . S
C458 N459 1.342 . S
C458 C462 1.401 . S
C458 C463 1.499 . S
N459 Co442 1.989 . S
N459 C458 1.342 . S
N459 N460 1.388 . S
N460 Co443 1.993 . S
N460 N459 1.388 . S
N460 C461 1.346 . S
C461 N460 1.346 . S
C461 C462 1.396 . S
C461 C471 1.510 . S
C462 C458 1.401 . S
C462 C461 1.396 . S
C463 C458 1.499 . S
C463 H464 0.959 . S
C463 H465 0.960 . S
C463 H466 0.961 . S
H464 C463 0.959 . S
H465 C463 0.960 . S
H466 C463 0.961 . S
O467 Co442 1.967 . S
O467 C475 1.258 . S
O468 Co443 1.941 . S
O468 C475 1.266 . S
H469 C471 0.959 . S
H470 C471 0.961 . S
C471 C461 1.510 . S
C471 H469 0.959 . S
C471 H470 0.961 . S
C471 H472 0.960 . S
H472 C471 0.960 . S
H473 N453 0.862 . S
O474 Co442 1.920 . S
O474 C447 1.289 . S
C475 O467 1.258 . S
C475 O468 1.266 . S
Co476 O479 1.970 . S
Co476 N493 1.989 . S
Co476 O501 1.967 . S
Co476 O508 1.920 . S
Co477 O480 1.966 . S
Co477 N486 2.022 . S
Co477 N494 1.993 . S
Co477 O502 1.941 . S
C478 O479 1.258 . S
C478 O480 1.263 . S
O479 Co476 1.970 . S
O479 C478 1.258 . S
O480 Co477 1.966 . S
O480 C478 1.263 . S
C481 O482 1.235 . S
C481 O508 1.289 . S
O482 C481 1.235 . S
C483 C485 1.400 . S
C483 N486 1.351 . S
C483 C488 1.501 . S
C484 C485 1.387 . S
C484 N487 1.341 . S
C485 C483 1.400 . S
C485 C484 1.387 . S
N486 Co477 2.022 . S
N486 C483 1.351 . S
N486 N487 1.365 . S
N487 C484 1.341 . S
N487 N486 1.365 . S
N487 H507 0.862 . S
C488 C483 1.501 . S
C488 H489 0.961 . S
C488 H490 0.961 . S
C488 H491 0.960 . S
H489 C488 0.961 . S
H490 C488 0.961 . S
H491 C488 0.960 . S
C492 N493 1.342 . S
C492 C496 1.401 . S
C492 C497 1.499 . S
N493 Co476 1.989 . S
N493 C492 1.342 . S
N493 N494 1.388 . S
N494 Co477 1.993 . S
N494 N493 1.388 . S
N494 C495 1.346 . S
C495 N494 1.346 . S
C495 C496 1.396 . S
C495 C505 1.510 . S
C496 C492 1.401 . S
C496 C495 1.396 . S
C497 C492 1.499 . S
C497 H498 0.959 . S
C497 H499 0.960 . S
C497 H500 0.961 . S
H498 C497 0.959 . S
H499 C497 0.960 . S
H500 C497 0.961 . S
O501 Co476 1.967 . S
O501 C509 1.258 . S
O502 Co477 1.941 . S
O502 C509 1.266 . S
H503 C505 0.959 . S
H504 C505 0.961 . S
C505 C495 1.510 . S
C505 H503 0.959 . S
C505 H504 0.961 . S
C505 H506 0.960 . S
H506 C505 0.960 . S
H507 N487 0.862 . S
O508 Co476 1.920 . S
O508 C481 1.289 . S
C509 O501 1.258 . S
C509 O502 1.266 . S
Co510 O513 1.970 . S
Co510 N527 1.989 . S
Co510 O535 1.967 . S
Co510 O542 1.920 . S
Co511 O514 1.966 . S
Co511 N520 2.022 . S
Co511 N528 1.993 . S
Co511 O536 1.941 . S
C512 O513 1.258 . S
C512 O514 1.263 . S
O513 Co510 1.970 . S
O513 C512 1.258 . S
O514 Co511 1.966 . S
O514 C512 1.263 . S
C515 O516 1.235 . S
C515 O542 1.289 . S
O516 C515 1.235 . S
C517 C519 1.400 . S
C517 N520 1.351 . S
C517 C522 1.501 . S
C518 C519 1.387 . S
C518 N521 1.341 . S
C519 C517 1.400 . S
C519 C518 1.387 . S
N520 Co511 2.022 . S
N520 C517 1.351 . S
N520 N521 1.365 . S
N521 C518 1.341 . S
N521 N520 1.365 . S
N521 H541 0.862 . S
C522 C517 1.501 . S
C522 H523 0.961 . S
C522 H524 0.961 . S
C522 H525 0.960 . S
H523 C522 0.961 . S
H524 C522 0.961 . S
H525 C522 0.960 . S
C526 N527 1.342 . S
C526 C530 1.401 . S
C526 C531 1.499 . S
N527 Co510 1.989 . S
N527 C526 1.342 . S
N527 N528 1.388 . S
N528 Co511 1.993 . S
N528 N527 1.388 . S
N528 C529 1.346 . S
C529 N528 1.346 . S
C529 C530 1.396 . S
C529 C539 1.510 . S
C530 C526 1.401 . S
C530 C529 1.396 . S
C531 C526 1.499 . S
C531 H532 0.959 . S
C531 H533 0.960 . S
C531 H534 0.961 . S
H532 C531 0.959 . S
H533 C531 0.960 . S
H534 C531 0.961 . S
O535 Co510 1.967 . S
O535 C543 1.258 . S
O536 Co511 1.941 . S
O536 C543 1.266 . S
H537 C539 0.959 . S
H538 C539 0.961 . S
C539 C529 1.510 . S
C539 H537 0.959 . S
C539 H538 0.961 . S
C539 H540 0.960 . S
H540 C539 0.960 . S
H541 N521 0.862 . S
O542 Co510 1.920 . S
O542 C515 1.289 . S
C543 O535 1.258 . S
C543 O536 1.266 . S
C544 C545 1.391 . S
C544 C546 1.394 . S
C544 H560 0.931 1_455 S
C545 C544 1.391 . S
C545 C549 1.376 . S
C546 C544 1.394 . S
C546 C547 1.369 . S
C546 C550 1.531 1_456 S
C547 C546 1.369 . S
C547 C548 1.410 . S
C547 C555 1.503 1_556 S
C548 C547 1.410 . S
C548 C549 1.392 . S
C548 C551 1.511 . S
C549 C545 1.376 . S
C549 C548 1.392 . S
C549 H561 0.929 . S
C550 C546 1.531 1_654 S
C550 H562 0.960 1_655 S
C550 H563 0.962 . S
C550 H564 0.958 1_554 S
C551 C548 1.511 . S
C551 H565 0.961 . S
C551 H566 0.961 . S
C551 H567 0.961 . S
C552 C553 1.370 1_655 S
C552 C554 1.363 1_655 S
C552 H568 0.931 . S
C553 C552 1.370 1_455 S
C553 C557 1.408 . S
C554 C552 1.363 1_455 S
C554 C555 1.370 . S
C554 C558 1.546 1_455 S
C555 C547 1.503 1_554 S
C555 C554 1.370 . S
C555 C556 1.403 . S
C556 C555 1.403 . S
C556 C557 1.404 . S
C556 C559 1.539 . S
C557 C553 1.408 . S
C557 C556 1.404 . S
C557 H569 0.930 . S
C558 C554 1.546 1_655 S
C558 H570 0.949 1_554 S
C558 H571 0.934 1_554 S
C558 H572 0.973 . S
C559 C556 1.539 . S
C559 H573 0.958 . S
C559 H574 0.961 . S
C559 H575 0.960 . S
H560 C544 0.931 1_655 S
H561 C549 0.929 . S
H562 C550 0.960 1_455 S
H563 C550 0.962 . S
H564 C550 0.958 1_556 S
H565 C551 0.961 . S
H566 C551 0.961 . S
H567 C551 0.961 . S
H568 C552 0.931 . S
H569 C557 0.930 . S
H570 C558 0.949 1_556 S
H571 C558 0.934 1_556 S
H572 C558 0.973 . S
H573 C559 0.958 . S
H574 C559 0.961 . S
H575 C559 0.960 . S
C576 C577 1.391 . S
C576 C578 1.394 . S
C576 H592 0.931 1_545 S
C577 C576 1.391 . S
C577 C581 1.376 . S
C578 C576 1.394 . S
C578 C579 1.369 . S
C578 C582 1.531 1_545 S
C579 C578 1.369 . S
C579 C580 1.410 . S
C579 C587 1.503 . S
C580 C579 1.410 . S
C580 C581 1.392 . S
C580 C583 1.511 . S
C581 C577 1.376 . S
C581 C580 1.392 . S
C581 H593 0.929 . S
C582 C578 1.531 1_565 S
C582 H594 0.960 . S
C582 H595 0.962 . S
C582 H596 0.960 . S
C583 C580 1.511 . S
C583 H597 0.961 . S
C583 H598 0.961 . S
C583 H599 0.961 . S
C584 C585 1.370 . S
C584 C586 1.363 . S
C584 H600 0.931 1_545 S
C585 C584 1.370 . S
C585 C589 1.408 . S
C586 C584 1.363 . S
C586 C587 1.370 . S
C586 C590 1.524 1_545 S
C587 C579 1.503 . S
C587 C586 1.370 . S
C587 C588 1.403 . S
C588 C587 1.403 . S
C588 C589 1.404 . S
C588 C591 1.539 . S
C589 C585 1.408 . S
C589 C588 1.404 . S
C589 H601 0.930 . S
C590 C586 1.524 1_565 S
C590 H602 0.956 . S
C590 H603 0.961 . S
C590 H604 0.961 . S
C591 C588 1.539 . S
C591 H605 0.958 . S
C591 H606 0.961 . S
C591 H607 0.960 . S
H592 C576 0.931 1_565 S
H593 C581 0.929 . S
H594 C582 0.960 . S
H595 C582 0.962 . S
H596 C582 0.960 . S
H597 C583 0.961 . S
H598 C583 0.961 . S
H599 C583 0.961 . S
H600 C584 0.931 1_565 S
H601 C589 0.930 . S
H602 C590 0.956 . S
H603 C590 0.961 . S
H604 C590 0.961 . S
H605 C591 0.958 . S
H606 C591 0.961 . S
H607 C591 0.960 . S
C608 C609 1.391 . S
C608 C610 1.394 . S
C608 H624 0.931 . S
C609 C608 1.391 . S
C609 C613 1.376 . S
C610 C608 1.394 . S
C610 C611 1.369 . S
C610 C614 1.500 1_554 S
C611 C610 1.369 . S
C611 C612 1.410 . S
C611 C619 1.503 1_554 S
C612 C611 1.410 . S
C612 C613 1.392 . S
C612 C615 1.511 . S
C613 C609 1.376 . S
C613 C612 1.392 . S
C613 H625 0.929 . S
C614 C610 1.500 1_556 S
C614 H626 1.002 . S
C614 H627 0.962 . S
C614 H628 0.950 1_556 S
C615 C612 1.511 . S
C615 H629 0.961 . S
C615 H630 0.961 . S
C615 H631 0.961 . S
C616 C617 1.370 . S
C616 C618 1.363 . S
C616 H632 0.931 . S
C617 C616 1.370 . S
C617 C621 1.408 . S
C618 C616 1.363 . S
C618 C619 1.370 . S
C618 C622 1.524 1_556 S
C619 C611 1.503 1_556 S
C619 C618 1.370 . S
C619 C620 1.403 . S
C620 C619 1.403 . S
C620 C621 1.404 . S
C620 C623 1.539 . S
C621 C617 1.408 . S
C621 C620 1.404 . S
C621 H633 0.930 . S
C622 C618 1.524 1_554 S
C622 H634 0.956 . S
C622 H635 0.961 . S
C622 H636 0.961 1_554 S
C623 C620 1.539 . S
C623 H637 0.958 . S
C623 H638 0.961 . S
C623 H639 0.960 . S
H624 C608 0.931 . S
H625 C613 0.929 . S
H626 C614 1.002 . S
H627 C614 0.962 . S
H628 C614 0.950 1_554 S
H629 C615 0.961 . S
H630 C615 0.961 . S
H631 C615 0.961 . S
H632 C616 0.931 . S
H633 C621 0.930 . S
H634 C622 0.956 . S
H635 C622 0.961 . S
H636 C622 0.961 1_556 S
H637 C623 0.958 . S
H638 C623 0.961 . S
H639 C623 0.960 . S
C640 C641 1.391 . S
C640 C642 1.394 . S
C640 H656 0.931 . S
C641 C640 1.391 . S
C641 C645 1.376 . S
C642 C640 1.394 . S
C642 C643 1.369 . S
C642 C646 1.531 . S
C643 C642 1.369 . S
C643 C644 1.410 . S
C643 C651 1.503 . S
C644 C643 1.410 . S
C644 C645 1.392 . S
C644 C647 1.511 . S
C645 C641 1.376 . S
C645 C644 1.392 . S
C645 H657 0.929 . S
C646 C642 1.531 . S
C646 H658 0.960 . S
C646 H659 0.962 . S
C646 H660 0.960 . S
C647 C644 1.511 . S
C647 H661 0.961 . S
C647 H662 0.961 . S
C647 H663 0.961 . S
C648 C649 1.370 . S
C648 C650 1.363 . S
C648 H664 0.931 . S
C649 C648 1.370 . S
C649 C653 1.408 . S
C650 C648 1.363 . S
C650 C651 1.370 . S
C650 C654 1.524 . S
C651 C643 1.503 . S
C651 C650 1.370 . S
C651 C652 1.403 . S
C652 C651 1.403 . S
C652 C653 1.404 . S
C652 C655 1.539 . S
C653 C649 1.408 . S
C653 C652 1.404 . S
C653 H665 0.930 . S
C654 C650 1.524 . S
C654 H666 0.956 . S
C654 H667 0.961 . S
C654 H668 0.961 . S
C655 C652 1.539 . S
C655 H669 0.958 . S
C655 H670 0.961 . S
C655 H671 0.960 . S
H656 C640 0.931 . S
H657 C645 0.929 . S
H658 C646 0.960 . S
H659 C646 0.962 . S
H660 C646 0.960 . S
H661 C647 0.961 . S
H662 C647 0.961 . S
H663 C647 0.961 . S
H664 C648 0.931 . S
H665 C653 0.930 . S
H666 C654 0.956 . S
H667 C654 0.961 . S
H668 C654 0.961 . S
H669 C655 0.958 . S
H670 C655 0.961 . S
H671 C655 0.960 . S
C672 C673 1.391 . S
C672 C674 1.394 . S
C672 H688 0.931 . S
C673 C672 1.391 . S
C673 C677 1.376 1_655 S
C674 C672 1.394 . S
C674 C675 1.369 . S
C674 C678 1.531 . S
C675 C674 1.369 . S
C675 C676 1.410 1_655 S
C675 C683 1.503 1_554 S
C676 C675 1.410 1_455 S
C676 C677 1.392 . S
C676 C679 1.511 . S
C677 C673 1.376 1_455 S
C677 C676 1.392 . S
C677 H689 0.929 . S
C678 C674 1.531 . S
C678 H690 0.960 1_554 S
C678 H691 0.962 . S
C678 H692 0.960 . S
C679 C676 1.511 . S
C679 H693 0.961 . S
C679 H694 0.961 . S
C679 H695 0.961 . S
C680 C681 1.370 . S
C680 C682 1.363 . S
C680 H696 0.931 . S
C681 C680 1.370 . S
C681 C685 1.408 . S
C682 C680 1.363 . S
C682 C683 1.370 . S
C682 C686 1.524 1_556 S
C683 C675 1.503 1_556 S
C683 C682 1.370 . S
C683 C684 1.403 . S
C684 C683 1.403 . S
C684 C685 1.404 . S
C684 C687 1.539 1_655 S
C685 C681 1.408 . S
C685 C684 1.404 . S
C685 H697 0.930 1_655 S
C686 C682 1.524 1_554 S
C686 H698 0.956 . S
C686 H699 0.961 . S
C686 H700 0.950 1_554 S
C687 C684 1.539 1_455 S
C687 H701 0.958 1_455 S
C687 H702 0.961 . S
C687 H703 0.960 . S
H688 C672 0.931 . S
H689 C677 0.929 . S
H690 C678 0.960 1_556 S
H691 C678 0.962 . S
H692 C678 0.960 . S
H693 C679 0.961 . S
H694 C679 0.961 . S
H695 C679 0.961 . S
H696 C680 0.931 . S
H697 C685 0.930 1_455 S
H698 C686 0.956 . S
H699 C686 0.961 . S
H700 C686 0.950 1_556 S
H701 C687 0.958 1_655 S
H702 C687 0.961 . S
H703 C687 0.960 . S
C704 C705 1.391 1_545 S
C704 C706 1.394 . S
C704 H720 0.931 . S
C705 C704 1.391 1_565 S
C705 C709 1.376 . S
C706 C704 1.394 . S
C706 C707 1.369 1_545 S
C706 C710 1.531 . S
C707 C706 1.369 1_565 S
C707 C708 1.410 . S
C707 C715 1.503 . S
C708 C707 1.410 . S
C708 C709 1.392 . S
C708 C711 1.511 . S
C709 C705 1.376 . S
C709 C708 1.392 . S
C709 H721 0.929 . S
C710 C706 1.531 . S
C710 H722 0.960 . S
C710 H723 0.962 . S
C710 H724 0.960 . S
C711 C708 1.511 . S
C711 H725 0.961 . S
C711 H726 0.961 . S
C711 H727 0.961 . S
C712 C713 1.370 . S
C712 C714 1.363 . S
C712 H728 0.931 . S
C713 C712 1.370 . S
C713 C717 1.408 . S
C714 C712 1.363 . S
C714 C715 1.370 . S
C714 C718 1.524 . S
C715 C707 1.503 . S
C715 C714 1.370 . S
C715 C716 1.403 . S
C716 C715 1.403 . S
C716 C717 1.404 . S
C716 C719 1.539 1_565 S
C717 C713 1.408 . S
C717 C716 1.404 . S
C717 H729 0.930 1_565 S
C718 C714 1.524 . S
C718 H730 0.956 . S
C718 H731 0.961 . S
C718 H732 0.961 . S
C719 C716 1.539 1_545 S
C719 H733 0.958 . S
C719 H734 0.961 . S
C719 H735 0.960 . S
H720 C704 0.931 . S
H721 C709 0.929 . S
H722 C710 0.960 . S
H723 C710 0.962 . S
H724 C710 0.960 . S
H725 C711 0.961 . S
H726 C711 0.961 . S
H727 C711 0.961 . S
H728 C712 0.931 . S
H729 C717 0.930 1_545 S
H730 C718 0.956 . S
H731 C718 0.961 . S
H732 C718 0.961 . S
H733 C719 0.958 . S
H734 C719 0.961 . S
H735 C719 0.960 . S
C736 C737 1.391 . S
C736 C738 1.394 . S
C736 H752 0.931 . S
C737 C736 1.391 . S
C737 C741 1.376 . S
C738 C736 1.394 . S
C738 C739 1.369 . S
C738 C742 1.531 1_556 S
C739 C738 1.369 . S
C739 C740 1.410 . S
C739 C747 1.503 1_556 S
C740 C739 1.410 . S
C740 C741 1.392 . S
C740 C743 1.511 . S
C741 C737 1.376 . S
C741 C740 1.392 . S
C741 H753 0.929 . S
C742 C738 1.531 1_554 S
C742 H754 0.960 . S
C742 H755 0.962 . S
C742 H756 0.960 1_554 S
C743 C740 1.511 . S
C743 H757 0.961 . S
C743 H758 0.961 . S
C743 H759 0.961 . S
C744 C745 1.370 . S
C744 C746 1.363 . S
C744 H760 0.931 . S
C745 C744 1.370 . S
C745 C749 1.408 . S
C746 C744 1.363 . S
C746 C747 1.370 . S
C746 C750 1.524 1_554 S
C747 C739 1.503 1_554 S
C747 C746 1.370 . S
C747 C748 1.403 . S
C748 C747 1.403 . S
C748 C749 1.404 . S
C748 C751 1.539 . S
C749 C745 1.408 . S
C749 C748 1.404 . S
C749 H761 0.930 . S
C750 C746 1.524 1_556 S
C750 H762 0.956 . S
C750 H763 0.961 . S
C750 H764 0.961 1_556 S
C751 C748 1.539 . S
C751 H765 0.958 . S
C751 H766 0.961 . S
C751 H767 0.960 . S
H752 C736 0.931 . S
H753 C741 0.929 . S
H754 C742 0.960 . S
H755 C742 0.962 . S
H756 C742 0.960 1_556 S
H757 C743 0.961 . S
H758 C743 0.961 . S
H759 C743 0.961 . S
H760 C744 0.931 . S
H761 C749 0.930 . S
H762 C750 0.956 . S
H763 C750 0.961 . S
H764 C750 0.961 1_554 S
H765 C751 0.958 . S
H766 C751 0.961 . S
H767 C751 0.960 . S
C768 C769 1.391 . S
C768 C770 1.394 . S
C768 H784 0.931 . S
C769 C768 1.391 . S
C769 C773 1.376 . S
C770 C768 1.394 . S
C770 C771 1.369 . S
C770 C774 1.531 . S
C771 C770 1.369 . S
C771 C772 1.410 . S
C771 C779 1.503 . S
C772 C771 1.410 . S
C772 C773 1.392 . S
C772 C775 1.511 . S
C773 C769 1.376 . S
C773 C772 1.392 . S
C773 H785 0.929 . S
C774 C770 1.531 . S
C774 H786 0.960 . S
C774 H787 0.962 . S
C774 H788 0.960 . S
C775 C772 1.511 . S
C775 H789 0.961 . S
C775 H790 0.961 . S
C775 H791 0.961 . S
C776 C777 1.370 . S
C776 C778 1.363 . S
C776 H792 0.931 . S
C777 C776 1.370 . S
C777 C781 1.408 . S
C778 C776 1.363 . S
C778 C779 1.370 . S
C778 C782 1.524 . S
C779 C771 1.503 . S
C779 C778 1.370 . S
C779 C780 1.403 . S
C780 C779 1.403 . S
C780 C781 1.404 . S
C780 C783 1.539 . S
C781 C777 1.408 . S
C781 C780 1.404 . S
C781 H793 0.930 . S
C782 C778 1.524 . S
C782 H794 0.956 . S
C782 H795 0.961 . S
C782 H796 0.961 . S
C783 C780 1.539 . S
C783 H797 0.958 . S
C783 H798 0.961 . S
C783 H799 0.960 . S
H784 C768 0.931 . S
H785 C773 0.929 . S
H786 C774 0.960 . S
H787 C774 0.962 . S
H788 C774 0.960 . S
H789 C775 0.961 . S
H790 C775 0.961 . S
H791 C775 0.961 . S
H792 C776 0.931 . S
H793 C781 0.930 . S
H794 C782 0.956 . S
H795 C782 0.961 . S
H796 C782 0.961 . S
H797 C783 0.958 . S
H798 C783 0.961 . S
H799 C783 0.960 . S
C800 C801 1.391 1_655 S
C800 C802 1.394 . S
C800 H816 0.931 . S
C801 C800 1.391 1_455 S
C801 C805 1.376 . S
C802 C800 1.394 . S
C802 C803 1.369 1_655 S
C802 C806 1.531 . S
C803 C802 1.369 1_455 S
C803 C804 1.410 . S
C803 C811 1.504 . S
C804 C803 1.410 . S
C804 C805 1.392 . S
C804 C807 1.511 . S
C805 C801 1.376 . S
C805 C804 1.392 . S
C805 H817 0.929 . S
C806 C802 1.531 . S
C806 H818 0.960 . S
C806 H819 0.962 . S
C806 H820 0.960 . S
C807 C804 1.511 . S
C807 H821 0.961 . S
C807 H822 0.961 . S
C807 H823 0.961 . S
C808 C809 1.370 1_545 S
C808 C810 1.363 . S
C808 H824 0.931 1_545 S
C809 C808 1.370 1_565 S
C809 C813 1.408 1_655 S
C810 C808 1.363 . S
C810 C811 1.367 1_655 S
C810 C814 1.524 . S
C811 C803 1.504 . S
C811 C810 1.367 1_455 S
C811 C812 1.405 . S
C812 C811 1.405 . S
C812 C813 1.404 1_545 S
C812 C815 1.539 . S
C813 C809 1.408 1_455 S
C813 C812 1.404 1_565 S
C813 H825 0.930 . S
C814 C810 1.524 . S
C814 H826 0.956 . S
C814 H827 0.961 . S
C814 H828 0.961 . S
C815 C812 1.539 . S
C815 H829 0.958 . S
C815 H830 0.961 . S
C815 H831 0.960 . S
H816 C800 0.931 . S
H817 C805 0.929 . S
H818 C806 0.960 . S
H819 C806 0.962 . S
H820 C806 0.960 . S
H821 C807 0.961 . S
H822 C807 0.961 . S
H823 C807 0.961 . S
H824 C808 0.931 1_565 S
H825 C813 0.930 . S
H826 C814 0.956 . S
H827 C814 0.961 . S
H828 C814 0.961 . S
H829 C815 0.958 . S
H830 C815 0.961 . S
H831 C815 0.960 . S
C832 C833 1.391 . S
C832 C834 1.394 . S
C832 H848 0.931 . S
C833 C832 1.391 . S
C833 C837 1.376 1_545 S
C834 C832 1.394 . S
C834 C835 1.369 1_545 S
C834 C838 1.531 . S
C835 C834 1.369 1_565 S
C835 C836 1.410 . S
C835 C843 1.503 . S
C836 C835 1.410 . S
C836 C837 1.392 . S
C836 C839 1.511 . S
C837 C833 1.376 1_565 S
C837 C836 1.392 . S
C837 H849 0.929 . S
C838 C834 1.531 . S
C838 H850 0.960 . S
C838 H851 0.962 . S
C838 H852 0.960 . S
C839 C836 1.511 . S
C839 H853 0.961 . S
C839 H854 0.961 . S
C839 H855 0.961 . S
C840 C841 1.370 1_545 S
C840 C842 1.363 . S
C840 H856 0.931 . S
C841 C840 1.370 1_565 S
C841 C845 1.408 . S
C842 C840 1.363 . S
C842 C843 1.370 1_545 S
C842 C846 1.524 . S
C843 C835 1.503 . S
C843 C842 1.370 1_565 S
C843 C844 1.403 . S
C844 C843 1.403 . S
C844 C845 1.404 . S
C844 C847 1.539 . S
C845 C841 1.408 . S
C845 C844 1.404 . S
C845 H857 0.930 . S
C846 C842 1.524 . S
C846 H858 0.956 . S
C846 H859 0.961 . S
C846 H860 0.961 . S
C847 C844 1.539 . S
C847 H861 0.958 . S
C847 H862 0.961 . S
C847 H863 0.960 . S
H848 C832 0.931 . S
H849 C837 0.929 . S
H850 C838 0.960 . S
H851 C838 0.962 . S
H852 C838 0.960 . S
H853 C839 0.961 . S
H854 C839 0.961 . S
H855 C839 0.961 . S
H856 C840 0.931 . S
H857 C845 0.930 . S
H858 C846 0.956 . S
H859 C846 0.961 . S
H860 C846 0.961 . S
H861 C847 0.958 . S
H862 C847 0.961 . S
H863 C847 0.960 . S
C864 C865 1.391 . S
C864 C866 1.394 . S
C864 H880 0.931 . S
C865 C864 1.391 . S
C865 C869 1.376 . S
C866 C864 1.394 . S
C866 C867 1.369 . S
C866 C870 1.531 . S
C867 C866 1.369 . S
C867 C868 1.410 . S
C867 C875 1.503 . S
C868 C867 1.410 . S
C868 C869 1.392 . S
C868 C871 1.511 . S
C869 C865 1.376 . S
C869 C868 1.392 . S
C869 H881 0.929 . S
C870 C866 1.531 . S
C870 H882 0.960 . S
C870 H883 0.962 . S
C870 H884 0.960 . S
C871 C868 1.511 . S
C871 H885 0.961 . S
C871 H886 0.961 . S
C871 H887 0.961 . S
C872 C873 1.370 . S
C872 C874 1.363 . S
C872 H888 0.931 . S
C873 C872 1.370 . S
C873 C877 1.408 . S
C874 C872 1.363 . S
C874 C875 1.370 . S
C874 C878 1.524 . S
C875 C867 1.503 . S
C875 C874 1.370 . S
C875 C876 1.403 . S
C876 C875 1.403 . S
C876 C877 1.404 . S
C876 C879 1.539 . S
C877 C873 1.408 . S
C877 C876 1.404 . S
C877 H889 0.930 . S
C878 C874 1.524 . S
C878 H890 0.956 . S
C878 H891 0.961 . S
C878 H892 0.961 . S
C879 C876 1.539 . S
C879 H893 0.958 . S
C879 H894 0.961 . S
C879 H895 0.960 . S
H880 C864 0.931 . S
H881 C869 0.929 . S
H882 C870 0.960 . S
H883 C870 0.962 . S
H884 C870 0.960 . S
H885 C871 0.961 . S
H886 C871 0.961 . S
H887 C871 0.961 . S
H888 C872 0.931 . S
H889 C877 0.930 . S
H890 C878 0.956 . S
H891 C878 0.961 . S
H892 C878 0.961 . S
H893 C879 0.958 . S
H894 C879 0.961 . S
H895 C879 0.960 . S
C896 C897 1.391 . S
C896 C898 1.394 . S
C896 H912 0.931 . S
C897 C896 1.391 . S
C897 C901 1.376 . S
C898 C896 1.394 . S
C898 C899 1.369 . S
C898 C902 1.531 . S
C899 C898 1.369 . S
C899 C900 1.410 . S
C899 C907 1.503 . S
C900 C899 1.410 . S
C900 C901 1.392 . S
C900 C903 1.511 . S
C901 C897 1.376 . S
C901 C900 1.392 . S
C901 H913 0.929 . S
C902 C898 1.531 . S
C902 H914 0.960 . S
C902 H915 0.962 . S
C902 H916 0.960 . S
C903 C900 1.511 . S
C903 H917 0.961 . S
C903 H918 0.961 . S
C903 H919 0.961 . S
C904 C905 1.370 1_455 S
C904 C906 1.363 . S
C904 H920 0.930 1_455 S
C905 C904 1.370 1_655 S
C905 C909 1.408 . S
C906 C904 1.363 . S
C906 C907 1.370 . S
C906 C910 1.524 . S
C907 C899 1.503 . S
C907 C906 1.370 . S
C907 C908 1.403 . S
C908 C907 1.403 . S
C908 C909 1.404 1_455 S
C908 C911 1.539 . S
C909 C905 1.408 . S
C909 C908 1.404 1_655 S
C909 H921 0.930 . S
C910 C906 1.524 . S
C910 H922 0.956 . S
C910 H923 0.961 . S
C910 H924 0.961 . S
C911 C908 1.539 . S
C911 H925 0.958 . S
C911 H926 0.961 . S
C911 H927 0.960 . S
H912 C896 0.931 . S
H913 C901 0.929 . S
H914 C902 0.960 . S
H915 C902 0.962 . S
H916 C902 0.960 . S
H917 C903 0.961 . S
H918 C903 0.961 . S
H919 C903 0.961 . S
H920 C904 0.930 1_655 S
H921 C909 0.930 . S
H922 C910 0.956 . S
H923 C910 0.961 . S
H924 C910 0.961 . S
H925 C911 0.958 . S
H926 C911 0.961 . S
H927 C911 0.960 . S
C928 C929 1.391 . S
C928 C930 1.394 . S
C928 H944 0.931 . S
C929 C928 1.391 . S
C929 C933 1.376 1_655 S
C930 C928 1.394 . S
C930 C931 1.369 . S
C930 C934 1.531 . S
C931 C930 1.369 . S
C931 C932 1.410 1_655 S
C931 C939 1.503 1_655 S
C932 C931 1.410 1_455 S
C932 C933 1.392 . S
C932 C935 1.511 . S
C933 C929 1.376 1_455 S
C933 C932 1.392 . S
C933 H945 0.929 . S
C934 C930 1.531 . S
C934 H946 0.960 . S
C934 H947 0.962 . S
C934 H948 0.960 . S
C935 C932 1.511 . S
C935 H949 0.961 . S
C935 H950 0.961 . S
C935 H951 0.961 . S
C936 C937 1.370 . S
C936 C938 1.363 . S
C936 H952 0.931 . S
C937 C936 1.370 . S
C937 C941 1.408 . S
C938 C936 1.363 . S
C938 C939 1.370 . S
C938 C942 1.524 . S
C939 C931 1.503 1_455 S
C939 C938 1.370 . S
C939 C940 1.403 1_455 S
C940 C939 1.403 1_655 S
C940 C941 1.404 1_655 S
C940 C943 1.539 . S
C941 C937 1.408 . S
C941 C940 1.404 1_455 S
C941 H953 0.930 . S
C942 C938 1.524 . S
C942 H954 0.956 1_455 S
C942 H955 0.961 . S
C942 H956 0.961 . S
C943 C940 1.539 . S
C943 H957 0.958 . S
C943 H958 0.961 1_655 S
C943 H959 0.960 . S
H944 C928 0.931 . S
H945 C933 0.929 . S
H946 C934 0.960 . S
H947 C934 0.962 . S
H948 C934 0.960 . S
H949 C935 0.961 . S
H950 C935 0.961 . S
H951 C935 0.961 . S
H952 C936 0.931 . S
H953 C941 0.930 . S
H954 C942 0.956 1_655 S
H955 C942 0.961 . S
H956 C942 0.961 . S
H957 C943 0.958 . S
H958 C943 0.961 1_455 S
H959 C943 0.960 . S
C960 C961 1.391 1_545 S
C960 C962 1.394 1_655 S
C960 H976 0.931 . S
C961 C960 1.391 1_565 S
C961 C965 1.376 1_655 S
C962 C960 1.394 1_455 S
C962 C963 1.369 1_545 S
C962 C966 1.531 . S
C963 C962 1.369 1_565 S
C963 C964 1.410 . S
C963 C971 1.503 1_565 S
C964 C963 1.410 . S
C964 C965 1.392 . S
C964 C967 1.511 . S
C965 C961 1.376 1_455 S
C965 C964 1.392 . S
C965 H977 0.929 1_455 S
C966 C962 1.531 . S
C966 H978 0.960 . S
C966 H979 0.962 . S
C966 H980 0.960 . S
C967 C964 1.511 . S
C967 H981 0.961 . S
C967 H982 0.961 . S
C967 H983 0.961 . S
C968 C969 1.370 . S
C968 C970 1.363 . S
C968 H984 0.931 . S
C969 C968 1.370 . S
C969 C973 1.408 . S
C970 C968 1.363 . S
C970 C971 1.370 . S
C970 C974 1.524 . S
C971 C963 1.503 1_545 S
C971 C970 1.370 . S
C971 C972 1.403 . S
C972 C971 1.403 . S
C972 C973 1.404 . S
C972 C975 1.539 1_545 S
C973 C969 1.408 . S
C973 C972 1.404 . S
C973 H985 0.930 . S
C974 C970 1.524 . S
C974 H986 0.956 . S
C974 H987 0.961 1_545 S
C974 H988 0.961 . S
C975 C972 1.539 1_565 S
C975 H989 0.958 1_565 S
C975 H990 0.961 . S
C975 H991 0.960 . S
H976 C960 0.931 . S
H977 C965 0.929 1_655 S
H978 C966 0.960 . S
H979 C966 0.962 . S
H980 C966 0.960 . S
H981 C967 0.961 . S
H982 C967 0.961 . S
H983 C967 0.961 . S
H984 C968 0.931 . S
H985 C973 0.930 . S
H986 C974 0.956 . S
H987 C974 0.961 1_565 S
H988 C974 0.961 . S
H989 C975 0.958 1_545 S
H990 C975 0.961 . S
H991 C975 0.960 . S
C992 C993 1.391 . S
C992 C994 1.394 . S
C992 H1008 0.931 . S
C993 C992 1.391 . S
C993 C997 1.376 . S
C994 C992 1.394 . S
C994 C995 1.369 . S
C994 C998 1.531 . S
C995 C994 1.369 . S
C995 C996 1.410 . S
C995 C1003 1.503 . S
C996 C995 1.410 . S
C996 C997 1.392 . S
C996 C999 1.511 . S
C997 C993 1.376 . S
C997 C996 1.392 . S
C997 H1009 0.929 . S
C998 C994 1.531 . S
C998 H1010 0.960 . S
C998 H1011 0.962 . S
C998 H1012 0.960 . S
C999 C996 1.511 . S
C999 H1013 0.961 . S
C999 H1014 0.961 . S
C999 H1015 0.961 . S
C1000 C1001 1.370 . S
C1000 C1002 1.363 1_565 S
C1000 H1016 0.931 . S
C1001 C1000 1.370 . S
C1001 C1005 1.408 1_565 S
C1002 C1000 1.363 1_545 S
C1002 C1003 1.370 . S
C1002 C1006 1.524 . S
C1003 C995 1.503 . S
C1003 C1002 1.370 . S
C1003 C1004 1.403 . S
C1004 C1003 1.403 . S
C1004 C1005 1.404 . S
C1004 C1007 1.539 . S
C1005 C1001 1.408 1_545 S
C1005 C1004 1.404 . S
C1005 H1017 0.930 1_545 S
C1006 C1002 1.524 . S
C1006 H1018 0.956 . S
C1006 H1019 0.961 . S
C1006 H1020 0.961 . S
C1007 C1004 1.539 . S
C1007 H1021 0.958 . S
C1007 H1022 0.961 . S
C1007 H1023 0.960 . S
H1008 C992 0.931 . S
H1009 C997 0.929 . S
H1010 C998 0.960 . S
H1011 C998 0.962 . S
H1012 C998 0.960 . S
H1013 C999 0.961 . S
H1014 C999 0.961 . S
H1015 C999 0.961 . S
H1016 C1000 0.931 . S
H1017 C1005 0.930 1_565 S
H1018 C1006 0.956 . S
H1019 C1006 0.961 . S
H1020 C1006 0.961 . S
H1021 C1007 0.958 . S
H1022 C1007 0.961 . S
H1023 C1007 0.960 . S
C1024 C1025 1.391 . S
C1024 C1026 1.394 . S
C1024 H1040 0.931 . S
C1025 C1024 1.391 . S
C1025 C1029 1.376 . S
C1026 C1024 1.394 . S
C1026 C1027 1.369 . S
C1026 C1030 1.531 . S
C1027 C1026 1.369 . S
C1027 C1028 1.410 . S
C1027 C1035 1.503 . S
C1028 C1027 1.410 . S
C1028 C1029 1.392 . S
C1028 C1031 1.511 . S
C1029 C1025 1.376 . S
C1029 C1028 1.392 . S
C1029 H1041 0.929 . S
C1030 C1026 1.531 . S
C1030 H1042 0.960 . S
C1030 H1043 0.962 . S
C1030 H1044 0.960 . S
C1031 C1028 1.511 . S
C1031 H1045 0.961 . S
C1031 H1046 0.961 . S
C1031 H1047 0.961 . S
C1032 C1033 1.370 . S
C1032 C1034 1.363 . S
C1032 H1048 0.931 . S
C1033 C1032 1.370 . S
C1033 C1037 1.408 . S
C1034 C1032 1.363 . S
C1034 C1035 1.370 . S
C1034 C1038 1.524 . S
C1035 C1027 1.503 . S
C1035 C1034 1.370 . S
C1035 C1036 1.403 . S
C1036 C1035 1.403 . S
C1036 C1037 1.404 . S
C1036 C1039 1.539 . S
C1037 C1033 1.408 . S
C1037 C1036 1.404 . S
C1037 H1049 0.930 . S
C1038 C1034 1.524 . S
C1038 H1050 0.956 . S
C1038 H1051 0.961 . S
C1038 H1052 0.961 . S
C1039 C1036 1.539 . S
C1039 H1053 0.958 . S
C1039 H1054 0.961 . S
C1039 H1055 0.960 . S
H1040 C1024 0.931 . S
H1041 C1029 0.929 . S
H1042 C1030 0.960 . S
H1043 C1030 0.962 . S
H1044 C1030 0.960 . S
H1045 C1031 0.961 . S
H1046 C1031 0.961 . S
H1047 C1031 0.961 . S
H1048 C1032 0.931 . S
H1049 C1037 0.930 . S
H1050 C1038 0.956 . S
H1051 C1038 0.961 . S
H1052 C1038 0.961 . S
H1053 C1039 0.958 . S
H1054 C1039 0.961 . S
H1055 C1039 0.960 . S
C1056 C1057 1.391 . S
C1056 C1058 1.394 1_655 S
C1056 H1072 0.931 . S
C1057 C1056 1.391 . S
C1057 C1061 1.376 . S
C1058 C1056 1.394 1_455 S
C1058 C1059 1.369 . S
C1058 C1062 1.531 . S
C1059 C1058 1.369 . S
C1059 C1060 1.410 . S
C1059 C1067 1.503 . S
C1060 C1059 1.410 . S
C1060 C1061 1.392 1_455 S
C1060 C1063 1.511 . S
C1061 C1057 1.376 . S
C1061 C1060 1.392 1_655 S
C1061 H1073 0.929 . S
C1062 C1058 1.531 . S
C1062 H1074 0.960 . S
C1062 H1075 0.962 1_455 S
C1062 H1076 0.960 . S
C1063 C1060 1.511 . S
C1063 H1077 0.961 1_455 S
C1063 H1078 0.961 . S
C1063 H1079 0.961 . S
C1064 C1065 1.370 1_655 S
C1064 C1066 1.363 1_545 S
C1064 H1080 0.931 . S
C1065 C1064 1.370 1_455 S
C1065 C1069 1.408 1_545 S
C1066 C1064 1.363 1_565 S
C1066 C1067 1.370 1_655 S
C1066 C1070 1.524 . S
C1067 C1059 1.503 . S
C1067 C1066 1.370 1_455 S
C1067 C1068 1.403 . S
C1068 C1067 1.403 . S
C1068 C1069 1.404 . S
C1068 C1071 1.539 . S
C1069 C1065 1.408 1_565 S
C1069 C1068 1.404 . S
C1069 H1081 0.930 1_565 S
C1070 C1066 1.524 . S
C1070 H1082 0.956 . S
C1070 H1083 0.961 . S
C1070 H1084 0.961 . S
C1071 C1068 1.539 . S
C1071 H1085 0.958 . S
C1071 H1086 0.961 . S
C1071 H1087 0.960 . S
H1072 C1056 0.931 . S
H1073 C1061 0.929 . S
H1074 C1062 0.960 . S
H1075 C1062 0.962 1_655 S
H1076 C1062 0.960 . S
H1077 C1063 0.961 1_655 S
H1078 C1063 0.961 . S
H1079 C1063 0.961 . S
H1080 C1064 0.931 . S
H1081 C1069 0.930 1_545 S
H1082 C1070 0.956 . S
H1083 C1070 0.961 . S
H1084 C1070 0.961 . S
H1085 C1071 0.958 . S
H1086 C1071 0.961 . S
H1087 C1071 0.960 . S
C1088 C1089 1.391 . S
C1088 C1090 1.394 . S
C1088 H1104 0.931 . S
C1089 C1088 1.391 . S
C1089 C1093 1.376 1_565 S
C1090 C1088 1.394 . S
C1090 C1091 1.369 . S
C1090 C1094 1.531 . S
C1091 C1090 1.369 . S
C1091 C1092 1.410 1_565 S
C1091 C1099 1.503 1_565 S
C1092 C1091 1.410 1_545 S
C1092 C1093 1.392 . S
C1092 C1095 1.511 . S
C1093 C1089 1.376 1_545 S
C1093 C1092 1.392 . S
C1093 H1105 0.929 . S
C1094 C1090 1.531 . S
C1094 H1106 0.960 . S
C1094 H1107 0.962 . S
C1094 H1108 0.960 . S
C1095 C1092 1.511 . S
C1095 H1109 0.961 . S
C1095 H1110 0.961 . S
C1095 H1111 0.961 . S
C1096 C1097 1.370 . S
C1096 C1098 1.363 . S
C1096 H1112 0.931 . S
C1097 C1096 1.370 . S
C1097 C1101 1.408 . S
C1098 C1096 1.363 . S
C1098 C1099 1.370 . S
C1098 C1102 1.524 . S
C1099 C1091 1.503 1_545 S
C1099 C1098 1.370 . S
C1099 C1100 1.403 1_545 S
C1100 C1099 1.403 1_565 S
C1100 C1101 1.404 1_565 S
C1100 C1103 1.539 . S
C1101 C1097 1.408 . S
C1101 C1100 1.404 1_545 S
C1101 H1113 0.930 . S
C1102 C1098 1.524 . S
C1102 H1114 0.956 1_545 S
C1102 H1115 0.961 . S
C1102 H1116 0.961 . S
C1103 C1100 1.539 . S
C1103 H1117 0.958 . S
C1103 H1118 0.961 1_565 S
C1103 H1119 0.960 . S
H1104 C1088 0.931 . S
H1105 C1093 0.929 . S
H1106 C1094 0.960 . S
H1107 C1094 0.962 . S
H1108 C1094 0.960 . S
H1109 C1095 0.961 . S
H1110 C1095 0.961 . S
H1111 C1095 0.961 . S
H1112 C1096 0.931 . S
H1113 C1101 0.930 . S
H1114 C1102 0.956 1_565 S
H1115 C1102 0.961 . S
H1116 C1102 0.961 . S
H1117 C1103 0.958 . S
H1118 C1103 0.961 1_545 S
H1119 C1103 0.960 . S
C1120 C1121 1.391 . S
C1120 C1122 1.394 . S
C1120 H1136 0.931 . S
C1121 C1120 1.391 . S
C1121 C1125 1.376 . S
C1122 C1120 1.394 . S
C1122 C1123 1.369 . S
C1122 C1126 1.531 . S
C1123 C1122 1.369 . S
C1123 C1124 1.410 . S
C1123 C1131 1.503 . S
C1124 C1123 1.410 . S
C1124 C1125 1.392 . S
C1124 C1127 1.511 . S
C1125 C1121 1.376 . S
C1125 C1124 1.392 . S
C1125 H1137 0.929 . S
C1126 C1122 1.531 . S
C1126 H1138 0.960 . S
C1126 H1139 0.962 . S
C1126 H1140 0.960 . S
C1127 C1124 1.511 . S
C1127 H1141 0.961 . S
C1127 H1142 0.961 . S
C1127 H1143 0.961 . S
C1128 C1129 1.370 . S
C1128 C1130 1.363 . S
C1128 H1144 0.931 . S
C1129 C1128 1.370 . S
C1129 C1133 1.408 . S
C1130 C1128 1.363 . S
C1130 C1131 1.370 . S
C1130 C1134 1.524 . S
C1131 C1123 1.503 . S
C1131 C1130 1.370 . S
C1131 C1132 1.403 . S
C1132 C1131 1.403 . S
C1132 C1133 1.404 . S
C1132 C1135 1.539 . S
C1133 C1129 1.408 . S
C1133 C1132 1.404 . S
C1133 H1145 0.930 . S
C1134 C1130 1.524 . S
C1134 H1146 0.956 . S
C1134 H1147 0.961 . S
C1134 H1148 0.961 . S
C1135 C1132 1.539 . S
C1135 H1149 0.958 . S
C1135 H1150 0.961 . S
C1135 H1151 0.960 . S
H1136 C1120 0.931 . S
H1137 C1125 0.929 . S
H1138 C1126 0.960 . S
H1139 C1126 0.962 . S
H1140 C1126 0.960 . S
H1141 C1127 0.961 . S
H1142 C1127 0.961 . S
H1143 C1127 0.961 . S
H1144 C1128 0.931 . S
H1145 C1133 0.930 . S
H1146 C1134 0.956 . S
H1147 C1134 0.961 . S
H1148 C1134 0.961 . S
H1149 C1135 0.958 . S
H1150 C1135 0.961 . S
H1151 C1135 0.960 . S
C1152 C1153 1.391 . S
C1152 C1154 1.394 . S
C1152 H1168 0.931 . S
C1153 C1152 1.391 . S
C1153 C1157 1.376 . S
C1154 C1152 1.394 . S
C1154 C1155 1.369 . S
C1154 C1158 1.531 . S
C1155 C1154 1.369 . S
C1155 C1156 1.410 . S
C1155 C1163 1.503 . S
C1156 C1155 1.410 . S
C1156 C1157 1.392 . S
C1156 C1159 1.511 . S
C1157 C1153 1.376 . S
C1157 C1156 1.392 . S
C1157 H1169 0.929 . S
C1158 C1154 1.531 . S
C1158 H1170 0.960 . S
C1158 H1171 0.962 . S
C1158 H1172 0.960 . S
C1159 C1156 1.511 . S
C1159 H1173 0.961 . S
C1159 H1174 0.961 . S
C1159 H1175 0.961 . S
C1160 C1161 1.370 . S
C1160 C1162 1.363 1_455 S
C1160 H1176 0.931 . S
C1161 C1160 1.370 . S
C1161 C1165 1.408 1_455 S
C1162 C1160 1.363 1_655 S
C1162 C1163 1.370 . S
C1162 C1166 1.524 . S
C1163 C1155 1.503 . S
C1163 C1162 1.370 . S
C1163 C1164 1.403 . S
C1164 C1163 1.403 . S
C1164 C1165 1.404 . S
C1164 C1167 1.539 . S
C1165 C1161 1.408 1_655 S
C1165 C1164 1.404 . S
C1165 H1177 0.930 1_655 S
C1166 C1162 1.524 . S
C1166 H1178 0.956 . S
C1166 H1179 0.961 . S
C1166 H1180 0.961 . S
C1167 C1164 1.539 . S
C1167 H1181 0.958 . S
C1167 H1182 0.961 . S
C1167 H1183 0.960 . S
H1168 C1152 0.931 . S
H1169 C1157 0.929 . S
H1170 C1158 0.960 . S
H1171 C1158 0.962 . S
H1172 C1158 0.960 . S
H1173 C1159 0.961 . S
H1174 C1159 0.961 . S
H1175 C1159 0.961 . S
H1176 C1160 0.931 . S
H1177 C1165 0.930 1_455 S
H1178 C1166 0.956 . S
H1179 C1166 0.961 . S
H1180 C1166 0.961 . S
H1181 C1167 0.958 . S
H1182 C1167 0.961 . S
H1183 C1167 0.960 . S
C1184 C1185 1.391 1_455 S
C1184 C1186 1.394 . S
C1184 H1200 0.931 . S
C1185 C1184 1.391 1_655 S
C1185 C1189 1.376 . S
C1186 C1184 1.394 . S
C1186 C1187 1.369 1_455 S
C1186 C1190 1.531 . S
C1187 C1186 1.369 1_655 S
C1187 C1188 1.410 . S
C1187 C1195 1.503 1_655 S
C1188 C1187 1.410 . S
C1188 C1189 1.392 . S
C1188 C1191 1.511 . S
C1189 C1185 1.376 . S
C1189 C1188 1.392 . S
C1189 H1201 0.929 . S
C1190 C1186 1.531 . S
C1190 H1202 0.960 . S
C1190 H1203 0.962 . S
C1190 H1204 0.960 . S
C1191 C1188 1.511 . S
C1191 H1205 0.961 . S
C1191 H1206 0.961 . S
C1191 H1207 0.961 . S
C1192 C1193 1.370 . S
C1192 C1194 1.363 . S
C1192 H1208 0.931 . S
C1193 C1192 1.370 . S
C1193 C1197 1.408 1_455 S
C1194 C1192 1.363 . S
C1194 C1195 1.370 . S
C1194 C1198 1.524 . S
C1195 C1187 1.503 1_455 S
C1195 C1194 1.370 . S
C1195 C1196 1.403 1_455 S
C1196 C1195 1.403 1_655 S
C1196 C1197 1.404 . S
C1196 C1199 1.539 . S
C1197 C1193 1.408 1_655 S
C1197 C1196 1.404 . S
C1197 H1209 0.930 . S
C1198 C1194 1.524 . S
C1198 H1210 0.956 . S
C1198 H1211 0.961 . S
C1198 H1212 0.961 . S
C1199 C1196 1.539 . S
C1199 H1213 0.958 . S
C1199 H1214 0.961 . S
C1199 H1215 0.960 . S
H1200 C1184 0.931 . S
H1201 C1189 0.929 . S
H1202 C1190 0.960 . S
H1203 C1190 0.962 . S
H1204 C1190 0.960 . S
H1205 C1191 0.961 . S
H1206 C1191 0.961 . S
H1207 C1191 0.961 . S
H1208 C1192 0.931 . S
H1209 C1197 0.930 . S
H1210 C1198 0.956 . S
H1211 C1198 0.961 . S
H1212 C1198 0.961 . S
H1213 C1199 0.958 . S
H1214 C1199 0.961 . S
H1215 C1199 0.960 . S
C1216 C1217 1.391 1_545 S
C1216 C1218 1.394 . S
C1216 H1232 0.931 . S
C1217 C1216 1.391 1_565 S
C1217 C1221 1.376 . S
C1218 C1216 1.394 . S
C1218 C1219 1.369 . S
C1218 C1222 1.531 . S
C1219 C1218 1.369 . S
C1219 C1220 1.410 1_545 S
C1219 C1227 1.503 . S
C1220 C1219 1.410 1_565 S
C1220 C1221 1.392 . S
C1220 C1223 1.511 . S
C1221 C1217 1.376 . S
C1221 C1220 1.392 . S
C1221 H1233 0.929 . S
C1222 C1218 1.531 . S
C1222 H1234 0.960 . S
C1222 H1235 0.962 . S
C1222 H1236 0.960 . S
C1223 C1220 1.511 . S
C1223 H1237 0.961 . S
C1223 H1238 0.961 . S
C1223 H1239 0.961 1_565 S
C1224 C1225 1.370 1_565 S
C1224 C1226 1.363 1_455 S
C1224 H1240 0.931 . S
C1225 C1224 1.370 1_545 S
C1225 C1229 1.408 1_455 S
C1226 C1224 1.363 1_655 S
C1226 C1227 1.370 1_565 S
C1226 C1230 1.524 . S
C1227 C1219 1.503 . S
C1227 C1226 1.370 1_545 S
C1227 C1228 1.403 . S
C1228 C1227 1.403 . S
C1228 C1229 1.404 . S
C1228 C1231 1.539 . S
C1229 C1225 1.408 1_655 S
C1229 C1228 1.404 . S
C1229 H1241 0.930 1_655 S
C1230 C1226 1.524 . S
C1230 H1242 0.956 . S
C1230 H1243 0.961 . S
C1230 H1244 0.961 . S
C1231 C1228 1.539 . S
C1231 H1245 0.958 . S
C1231 H1246 0.961 . S
C1231 H1247 0.960 . S
H1232 C1216 0.931 . S
H1233 C1221 0.929 . S
H1234 C1222 0.960 . S
H1235 C1222 0.962 . S
H1236 C1222 0.960 . S
H1237 C1223 0.961 . S
H1238 C1223 0.961 . S
H1239 C1223 0.961 1_545 S
H1240 C1224 0.931 . S
H1241 C1229 0.930 1_455 S
H1242 C1230 0.956 . S
H1243 C1230 0.961 . S
H1244 C1230 0.961 . S
H1245 C1231 0.958 . S
H1246 C1231 0.961 . S
H1247 C1231 0.960 . S
C1248 C1249 1.391 . S
C1248 C1250 1.394 . S
C1248 H1264 0.931 . S
C1249 C1248 1.391 . S
C1249 C1253 1.376 . S
C1250 C1248 1.394 . S
C1250 C1251 1.369 . S
C1250 C1254 1.531 . S
C1251 C1250 1.369 . S
C1251 C1252 1.410 . S
C1251 C1259 1.503 . S
C1252 C1251 1.410 . S
C1252 C1253 1.392 . S
C1252 C1255 1.511 . S
C1253 C1249 1.376 . S
C1253 C1252 1.392 . S
C1253 H1265 0.929 . S
C1254 C1250 1.531 . S
C1254 H1266 0.960 . S
C1254 H1267 0.962 . S
C1254 H1268 0.960 . S
C1255 C1252 1.511 . S
C1255 H1269 0.961 . S
C1255 H1270 0.961 . S
C1255 H1271 0.961 . S
C1256 C1257 1.370 . S
C1256 C1258 1.363 1_545 S
C1256 H1272 0.931 . S
C1257 C1256 1.370 . S
C1257 C1261 1.408 1_545 S
C1258 C1256 1.363 1_565 S
C1258 C1259 1.370 . S
C1258 C1262 1.524 . S
C1259 C1251 1.503 . S
C1259 C1258 1.370 . S
C1259 C1260 1.403 . S
C1260 C1259 1.403 . S
C1260 C1261 1.404 . S
C1260 C1263 1.539 . S
C1261 C1257 1.408 1_565 S
C1261 C1260 1.404 . S
C1261 H1273 0.930 1_565 S
C1262 C1258 1.524 . S
C1262 H1274 0.956 . S
C1262 H1275 0.961 . S
C1262 H1276 0.961 . S
C1263 C1260 1.539 . S
C1263 H1277 0.958 . S
C1263 H1278 0.961 . S
C1263 H1279 0.960 . S
H1264 C1248 0.931 . S
H1265 C1253 0.929 . S
H1266 C1254 0.960 . S
H1267 C1254 0.962 . S
H1268 C1254 0.960 . S
H1269 C1255 0.961 . S
H1270 C1255 0.961 . S
H1271 C1255 0.961 . S
H1272 C1256 0.931 . S
H1273 C1261 0.930 1_545 S
H1274 C1262 0.956 . S
H1275 C1262 0.961 . S
H1276 C1262 0.961 . S
H1277 C1263 0.958 . S
H1278 C1263 0.961 . S
H1279 C1263 0.960 . S
C1280 C1281 1.391 . S
C1280 C1282 1.394 . S
C1280 H1296 0.931 . S
C1281 C1280 1.391 . S
C1281 C1285 1.376 . S
C1282 C1280 1.394 . S
C1282 C1283 1.369 . S
C1282 C1286 1.531 . S
C1283 C1282 1.369 . S
C1283 C1284 1.410 . S
C1283 C1291 1.503 . S
C1284 C1283 1.410 . S
C1284 C1285 1.392 . S
C1284 C1287 1.511 . S
C1285 C1281 1.376 . S
C1285 C1284 1.392 . S
C1285 H1297 0.929 . S
C1286 C1282 1.531 . S
C1286 H1298 0.960 . S
C1286 H1299 0.962 . S
C1286 H1300 0.960 . S
C1287 C1284 1.511 . S
C1287 H1301 0.961 . S
C1287 H1302 0.961 . S
C1287 H1303 0.961 . S
C1288 C1289 1.370 . S
C1288 C1290 1.363 . S
C1288 H1304 0.931 . S
C1289 C1288 1.370 . S
C1289 C1293 1.408 . S
C1290 C1288 1.363 . S
C1290 C1291 1.370 . S
C1290 C1294 1.524 . S
C1291 C1283 1.503 . S
C1291 C1290 1.370 . S
C1291 C1292 1.403 . S
C1292 C1291 1.403 . S
C1292 C1293 1.404 . S
C1292 C1295 1.539 . S
C1293 C1289 1.408 . S
C1293 C1292 1.404 . S
C1293 H1305 0.930 . S
C1294 C1290 1.524 . S
C1294 H1306 0.956 . S
C1294 H1307 0.961 . S
C1294 H1308 0.961 . S
C1295 C1292 1.539 . S
C1295 H1309 0.958 . S
C1295 H1310 0.961 . S
C1295 H1311 0.960 . S
H1296 C1280 0.931 . S
H1297 C1285 0.929 . S
H1298 C1286 0.960 . S
H1299 C1286 0.962 . S
H1300 C1286 0.960 . S
H1301 C1287 0.961 . S
H1302 C1287 0.961 . S
H1303 C1287 0.961 . S
H1304 C1288 0.931 . S
H1305 C1293 0.930 . S
H1306 C1294 0.956 . S
H1307 C1294 0.961 . S
H1308 C1294 0.961 . S
H1309 C1295 0.958 . S
H1310 C1295 0.961 . S
H1311 C1295 0.960 . S
C1312 C1313 1.391 . S
C1312 C1314 1.394 . S
C1312 H1328 0.931 . S
C1313 C1312 1.391 . S
C1313 C1317 1.376 . S
C1314 C1312 1.394 . S
C1314 C1315 1.369 . S
C1314 C1318 1.531 . S
C1315 C1314 1.369 . S
C1315 C1316 1.410 . S
C1315 C1323 1.503 . S
C1316 C1315 1.410 . S
C1316 C1317 1.392 . S
C1316 C1319 1.511 . S
C1317 C1313 1.376 . S
C1317 C1316 1.392 . S
C1317 H1329 0.929 . S
C1318 C1314 1.531 . S
C1318 H1330 0.960 . S
C1318 H1331 0.962 . S
C1318 H1332 0.960 . S
C1319 C1316 1.511 . S
C1319 H1333 0.961 . S
C1319 H1334 0.961 . S
C1319 H1335 0.961 . S
C1320 C1321 1.370 . S
C1320 C1322 1.363 . S
C1320 H1336 0.931 . S
C1321 C1320 1.370 . S
C1321 C1325 1.408 . S
C1322 C1320 1.363 . S
C1322 C1323 1.370 . S
C1322 C1326 1.524 . S
C1323 C1315 1.503 . S
C1323 C1322 1.370 . S
C1323 C1324 1.403 . S
C1324 C1323 1.403 . S
C1324 C1325 1.404 . S
C1324 C1327 1.539 . S
C1325 C1321 1.408 . S
C1325 C1324 1.404 . S
C1325 H1337 0.930 . S
C1326 C1322 1.524 . S
C1326 H1338 0.956 . S
C1326 H1339 0.961 . S
C1326 H1340 0.961 . S
C1327 C1324 1.539 . S
C1327 H1341 0.958 . S
C1327 H1342 0.961 . S
C1327 H1343 0.960 . S
H1328 C1312 0.931 . S
H1329 C1317 0.929 . S
H1330 C1318 0.960 . S
H1331 C1318 0.962 . S
H1332 C1318 0.960 . S
H1333 C1319 0.961 . S
H1334 C1319 0.961 . S
H1335 C1319 0.961 . S
H1336 C1320 0.931 . S
H1337 C1325 0.930 . S
H1338 C1326 0.956 . S
H1339 C1326 0.961 . S
H1340 C1326 0.961 . S
H1341 C1327 0.958 . S
H1342 C1327 0.961 . S
H1343 C1327 0.960 . S
C1344 C1345 1.391 . S
C1344 C1346 1.394 . S
C1344 H1360 0.931 . S
C1345 C1344 1.391 . S
C1345 C1349 1.376 . S
C1346 C1344 1.394 . S
C1346 C1347 1.369 . S
C1346 C1350 1.531 . S
C1347 C1346 1.369 . S
C1347 C1348 1.410 . S
C1347 C1355 1.503 . S
C1348 C1347 1.410 . S
C1348 C1349 1.392 . S
C1348 C1351 1.511 . S
C1349 C1345 1.376 . S
C1349 C1348 1.392 . S
C1349 H1361 0.929 . S
C1350 C1346 1.531 . S
C1350 H1362 0.960 . S
C1350 H1363 0.962 . S
C1350 H1364 0.960 . S
C1351 C1348 1.511 . S
C1351 H1365 0.961 . S
C1351 H1366 0.961 . S
C1351 H1367 0.961 . S
C1352 C1353 1.370 . S
C1352 C1354 1.363 . S
C1352 H1368 0.931 . S
C1353 C1352 1.370 . S
C1353 C1357 1.408 . S
C1354 C1352 1.363 . S
C1354 C1355 1.370 . S
C1354 C1358 1.524 . S
C1355 C1347 1.503 . S
C1355 C1354 1.370 . S
C1355 C1356 1.403 . S
C1356 C1355 1.403 . S
C1356 C1357 1.404 . S
C1356 C1359 1.539 . S
C1357 C1353 1.408 . S
C1357 C1356 1.404 . S
C1357 H1369 0.930 . S
C1358 C1354 1.524 . S
C1358 H1370 0.956 . S
C1358 H1371 0.961 . S
C1358 H1372 0.961 . S
C1359 C1356 1.539 . S
C1359 H1373 0.958 . S
C1359 H1374 0.961 . S
C1359 H1375 0.960 . S
H1360 C1344 0.931 . S
H1361 C1349 0.929 . S
H1362 C1350 0.960 . S
H1363 C1350 0.962 . S
H1364 C1350 0.960 . S
H1365 C1351 0.961 . S
H1366 C1351 0.961 . S
H1367 C1351 0.961 . S
H1368 C1352 0.931 . S
H1369 C1357 0.930 . S
H1370 C1358 0.956 . S
H1371 C1358 0.961 . S
H1372 C1358 0.961 . S
H1373 C1359 0.958 . S
H1374 C1359 0.961 . S
H1375 C1359 0.960 . S
C1376 C1377 1.391 . S
C1376 C1378 1.394 . S
C1376 H1392 0.931 . S
C1377 C1376 1.391 . S
C1377 C1381 1.376 . S
C1378 C1376 1.394 . S
C1378 C1379 1.369 . S
C1378 C1382 1.531 . S
C1379 C1378 1.369 . S
C1379 C1380 1.410 . S
C1379 C1387 1.503 . S
C1380 C1379 1.410 . S
C1380 C1381 1.392 . S
C1380 C1383 1.511 . S
C1381 C1377 1.376 . S
C1381 C1380 1.392 . S
C1381 H1393 0.929 1_545 S
C1382 C1378 1.531 . S
C1382 H1394 0.960 . S
C1382 H1395 0.962 . S
C1382 H1396 0.960 . S
C1383 C1380 1.511 . S
C1383 H1397 0.961 1_545 S
C1383 H1398 0.961 . S
C1383 H1399 0.961 . S
C1384 C1385 1.370 . S
C1384 C1386 1.363 . S
C1384 H1400 0.931 . S
C1385 C1384 1.370 . S
C1385 C1389 1.408 . S
C1386 C1384 1.363 . S
C1386 C1387 1.370 . S
C1386 C1390 1.524 . S
C1387 C1379 1.503 . S
C1387 C1386 1.370 . S
C1387 C1388 1.403 . S
C1388 C1387 1.403 . S
C1388 C1389 1.404 . S
C1388 C1391 1.539 . S
C1389 C1385 1.408 . S
C1389 C1388 1.404 . S
C1389 H1401 0.930 . S
C1390 C1386 1.524 . S
C1390 H1402 0.956 . S
C1390 H1403 0.961 . S
C1390 H1404 0.961 . S
C1391 C1388 1.539 . S
C1391 H1405 0.958 . S
C1391 H1406 0.961 . S
C1391 H1407 0.960 . S
H1392 C1376 0.931 . S
H1393 C1381 0.929 1_565 S
H1394 C1382 0.960 . S
H1395 C1382 0.962 . S
H1396 C1382 0.960 . S
H1397 C1383 0.961 1_565 S
H1398 C1383 0.961 . S
H1399 C1383 0.961 . S
H1400 C1384 0.931 . S
H1401 C1389 0.930 . S
H1402 C1390 0.956 . S
H1403 C1390 0.961 . S
H1404 C1390 0.961 . S
H1405 C1391 0.958 . S
H1406 C1391 0.961 . S
H1407 C1391 0.960 . S
C1408 C1409 1.391 . S
C1408 C1410 1.394 . S
C1408 H1424 0.931 . S
C1409 C1408 1.391 . S
C1409 C1413 1.376 . S
C1410 C1408 1.394 . S
C1410 C1411 1.369 . S
C1410 C1414 1.531 . S
C1411 C1410 1.369 . S
C1411 C1412 1.410 . S
C1411 C1419 1.503 . S
C1412 C1411 1.410 . S
C1412 C1413 1.392 . S
C1412 C1415 1.511 . S
C1413 C1409 1.376 . S
C1413 C1412 1.392 . S
C1413 H1425 0.929 . S
C1414 C1410 1.531 . S
C1414 H1426 0.960 . S
C1414 H1427 0.962 . S
C1414 H1428 0.960 . S
C1415 C1412 1.511 . S
C1415 H1429 0.961 . S
C1415 H1430 0.961 . S
C1415 H1431 0.961 . S
C1416 C1417 1.370 . S
C1416 C1418 1.363 . S
C1416 H1432 0.931 . S
C1417 C1416 1.370 . S
C1417 C1421 1.408 . S
C1418 C1416 1.363 . S
C1418 C1419 1.370 . S
C1418 C1422 1.524 . S
C1419 C1411 1.503 . S
C1419 C1418 1.370 . S
C1419 C1420 1.403 . S
C1420 C1419 1.403 . S
C1420 C1421 1.404 . S
C1420 C1423 1.539 . S
C1421 C1417 1.408 . S
C1421 C1420 1.404 . S
C1421 H1433 0.930 . S
C1422 C1418 1.524 . S
C1422 H1434 0.956 . S
C1422 H1435 0.961 . S
C1422 H1436 0.961 . S
C1423 C1420 1.539 . S
C1423 H1437 0.958 . S
C1423 H1438 0.961 . S
C1423 H1439 0.960 . S
H1424 C1408 0.931 . S
H1425 C1413 0.929 . S
H1426 C1414 0.960 . S
H1427 C1414 0.962 . S
H1428 C1414 0.960 . S
H1429 C1415 0.961 . S
H1430 C1415 0.961 . S
H1431 C1415 0.961 . S
H1432 C1416 0.931 . S
H1433 C1421 0.930 . S
H1434 C1422 0.956 . S
H1435 C1422 0.961 . S
H1436 C1422 0.961 . S
H1437 C1423 0.958 . S
H1438 C1423 0.961 . S
H1439 C1423 0.960 . S
C1440 C1441 1.391 . S
C1440 C1442 1.394 . S
C1440 H1456 0.931 . S
C1441 C1440 1.391 . S
C1441 C1445 1.376 . S
C1442 C1440 1.394 . S
C1442 C1443 1.369 . S
C1442 C1446 1.531 . S
C1443 C1442 1.369 . S
C1443 C1444 1.410 . S
C1443 C1451 1.503 . S
C1444 C1443 1.410 . S
C1444 C1445 1.392 . S
C1444 C1447 1.511 . S
C1445 C1441 1.376 . S
C1445 C1444 1.392 . S
C1445 H1457 0.929 . S
C1446 C1442 1.531 . S
C1446 H1458 0.960 . S
C1446 H1459 0.962 . S
C1446 H1460 0.960 . S
C1447 C1444 1.511 . S
C1447 H1461 0.961 1_655 S
C1447 H1462 0.961 . S
C1447 H1463 0.961 . S
C1448 C1449 1.370 . S
C1448 C1450 1.363 . S
C1448 H1464 0.931 . S
C1449 C1448 1.370 . S
C1449 C1453 1.408 . S
C1450 C1448 1.363 . S
C1450 C1451 1.370 . S
C1450 C1454 1.524 . S
C1451 C1443 1.503 . S
C1451 C1450 1.370 . S
C1451 C1452 1.403 . S
C1452 C1451 1.403 . S
C1452 C1453 1.404 . S
C1452 C1455 1.539 . S
C1453 C1449 1.408 . S
C1453 C1452 1.404 . S
C1453 H1465 0.930 . S
C1454 C1450 1.524 . S
C1454 H1466 0.956 . S
C1454 H1467 0.961 . S
C1454 H1468 0.961 . S
C1455 C1452 1.539 . S
C1455 H1469 0.958 . S
C1455 H1470 0.961 . S
C1455 H1471 0.960 . S
H1456 C1440 0.931 . S
H1457 C1445 0.929 . S
H1458 C1446 0.960 . S
H1459 C1446 0.962 . S
H1460 C1446 0.960 . S
H1461 C1447 0.961 1_455 S
H1462 C1447 0.961 . S
H1463 C1447 0.961 . S
H1464 C1448 0.931 . S
H1465 C1453 0.930 . S
H1466 C1454 0.956 . S
H1467 C1454 0.961 . S
H1468 C1454 0.961 . S
H1469 C1455 0.958 . S
H1470 C1455 0.961 . S
H1471 C1455 0.960 . S
C1472 C1473 1.391 . S
C1472 C1474 1.394 . S
C1472 H1488 0.931 . S
C1473 C1472 1.391 . S
C1473 C1477 1.376 . S
C1474 C1472 1.394 . S
C1474 C1475 1.369 . S
C1474 C1478 1.531 . S
C1475 C1474 1.369 . S
C1475 C1476 1.410 . S
C1475 C1483 1.503 . S
C1476 C1475 1.410 . S
C1476 C1477 1.392 . S
C1476 C1479 1.511 . S
C1477 C1473 1.376 . S
C1477 C1476 1.392 . S
C1477 H1489 0.929 . S
C1478 C1474 1.531 . S
C1478 H1490 0.960 . S
C1478 H1491 0.962 . S
C1478 H1492 0.960 . S
C1479 C1476 1.511 . S
C1479 H1493 0.961 . S
C1479 H1494 0.961 . S
C1479 H1495 0.961 . S
C1480 C1481 1.370 . S
C1480 C1482 1.363 . S
C1480 H1496 0.931 . S
C1481 C1480 1.370 . S
C1481 C1485 1.408 . S
C1482 C1480 1.363 . S
C1482 C1483 1.370 . S
C1482 C1486 1.524 . S
C1483 C1475 1.503 . S
C1483 C1482 1.370 . S
C1483 C1484 1.403 . S
C1484 C1483 1.403 . S
C1484 C1485 1.404 . S
C1484 C1487 1.539 . S
C1485 C1481 1.408 . S
C1485 C1484 1.404 . S
C1485 H1497 0.930 . S
C1486 C1482 1.524 . S
C1486 H1498 0.956 . S
C1486 H1499 0.961 . S
C1486 H1500 0.961 . S
C1487 C1484 1.539 . S
C1487 H1501 0.958 . S
C1487 H1502 0.961 . S
C1487 H1503 0.960 . S
H1488 C1472 0.931 . S
H1489 C1477 0.929 . S
H1490 C1478 0.960 . S
H1491 C1478 0.962 . S
H1492 C1478 0.960 . S
H1493 C1479 0.961 . S
H1494 C1479 0.961 . S
H1495 C1479 0.961 . S
H1496 C1480 0.931 . S
H1497 C1485 0.930 . S
H1498 C1486 0.956 . S
H1499 C1486 0.961 . S
H1500 C1486 0.961 . S
H1501 C1487 0.958 . S
H1502 C1487 0.961 . S
H1503 C1487 0.960 . S
C1504 C1505 1.391 . S
C1504 C1506 1.394 . S
C1504 H1520 0.931 . S
C1505 C1504 1.391 . S
C1505 C1509 1.376 . S
C1506 C1504 1.394 . S
C1506 C1507 1.369 . S
C1506 C1510 1.531 . S
C1507 C1506 1.369 . S
C1507 C1508 1.410 . S
C1507 C1515 1.503 . S
C1508 C1507 1.410 . S
C1508 C1509 1.392 . S
C1508 C1511 1.511 . S
C1509 C1505 1.376 . S
C1509 C1508 1.392 . S
C1509 H1521 0.929 . S
C1510 C1506 1.531 . S
C1510 H1522 0.960 . S
C1510 H1523 0.962 . S
C1510 H1524 0.960 . S
C1511 C1508 1.511 . S
C1511 H1525 0.961 . S
C1511 H1526 0.961 . S
C1511 H1527 0.961 . S
C1512 C1513 1.370 . S
C1512 C1514 1.363 . S
C1512 H1528 0.931 . S
C1513 C1512 1.370 . S
C1513 C1517 1.408 . S
C1514 C1512 1.363 . S
C1514 C1515 1.370 . S
C1514 C1518 1.524 . S
C1515 C1507 1.503 . S
C1515 C1514 1.370 . S
C1515 C1516 1.403 . S
C1516 C1515 1.403 . S
C1516 C1517 1.404 . S
C1516 C1519 1.539 . S
C1517 C1513 1.408 . S
C1517 C1516 1.404 . S
C1517 H1529 0.930 . S
C1518 C1514 1.524 . S
C1518 H1530 0.956 . S
C1518 H1531 0.961 . S
C1518 H1532 0.961 . S
C1519 C1516 1.539 . S
C1519 H1533 0.958 . S
C1519 H1534 0.961 . S
C1519 H1535 0.960 . S
H1520 C1504 0.931 . S
H1521 C1509 0.929 . S
H1522 C1510 0.960 . S
H1523 C1510 0.962 . S
H1524 C1510 0.960 . S
H1525 C1511 0.961 . S
H1526 C1511 0.961 . S
H1527 C1511 0.961 . S
H1528 C1512 0.931 . S
H1529 C1517 0.930 . S
H1530 C1518 0.956 . S
H1531 C1518 0.961 . S
H1532 C1518 0.961 . S
H1533 C1519 0.958 . S
H1534 C1519 0.961 . S
H1535 C1519 0.960 . S
C1536 C1537 1.391 . S
C1536 C1538 1.394 . S
C1536 H1552 0.931 . S
C1537 C1536 1.391 . S
C1537 C1541 1.376 . S
C1538 C1536 1.394 . S
C1538 C1539 1.369 . S
C1538 C1542 1.531 . S
C1539 C1538 1.369 . S
C1539 C1540 1.410 . S
C1539 C1547 1.503 . S
C1540 C1539 1.410 . S
C1540 C1541 1.392 . S
C1540 C1543 1.511 . S
C1541 C1537 1.376 . S
C1541 C1540 1.392 . S
C1541 H1553 0.929 . S
C1542 C1538 1.531 . S
C1542 H1554 0.960 . S
C1542 H1555 0.962 . S
C1542 H1556 0.960 . S
C1543 C1540 1.511 . S
C1543 H1557 0.961 . S
C1543 H1558 0.961 . S
C1543 H1559 0.961 . S
C1544 C1545 1.370 . S
C1544 C1546 1.363 . S
C1544 H1560 0.931 . S
C1545 C1544 1.370 . S
C1545 C1549 1.408 . S
C1546 C1544 1.363 . S
C1546 C1547 1.370 . S
C1546 C1550 1.524 . S
C1547 C1539 1.503 . S
C1547 C1546 1.370 . S
C1547 C1548 1.403 . S
C1548 C1547 1.403 . S
C1548 C1549 1.404 . S
C1548 C1551 1.539 . S
C1549 C1545 1.408 . S
C1549 C1548 1.404 . S
C1549 H1561 0.930 . S
C1550 C1546 1.524 . S
C1550 H1562 0.956 . S
C1550 H1563 0.961 . S
C1550 H1564 0.961 . S
C1551 C1548 1.539 . S
C1551 H1565 0.958 . S
C1551 H1566 0.961 . S
C1551 H1567 0.960 . S
H1552 C1536 0.931 . S
H1553 C1541 0.929 . S
H1554 C1542 0.960 . S
H1555 C1542 0.962 . S
H1556 C1542 0.960 . S
H1557 C1543 0.961 . S
H1558 C1543 0.961 . S
H1559 C1543 0.961 . S
H1560 C1544 0.931 . S
H1561 C1549 0.930 . S
H1562 C1550 0.956 . S
H1563 C1550 0.961 . S
H1564 C1550 0.961 . S
H1565 C1551 0.958 . S
H1566 C1551 0.961 . S
H1567 C1551 0.960 . S
C1568 C1569 1.391 . S
C1568 C1570 1.394 . S
C1568 H1584 0.931 . S
C1569 C1568 1.391 . S
C1569 C1573 1.376 . S
C1570 C1568 1.394 . S
C1570 C1571 1.369 . S
C1570 C1574 1.531 . S
C1571 C1570 1.369 . S
C1571 C1572 1.410 . S
C1571 C1579 1.503 . S
C1572 C1571 1.410 . S
C1572 C1573 1.392 . S
C1572 C1575 1.511 . S
C1573 C1569 1.376 . S
C1573 C1572 1.392 . S
C1573 H1585 0.929 . S
C1574 C1570 1.531 . S
C1574 H1586 0.960 . S
C1574 H1587 0.962 . S
C1574 H1588 0.960 . S
C1575 C1572 1.511 . S
C1575 H1589 0.961 . S
C1575 H1590 0.961 . S
C1575 H1591 0.961 . S
C1576 C1577 1.370 . S
C1576 C1578 1.363 . S
C1576 H1592 0.931 . S
C1577 C1576 1.370 . S
C1577 C1581 1.408 . S
C1578 C1576 1.363 . S
C1578 C1579 1.370 . S
C1578 C1582 1.524 . S
C1579 C1571 1.503 . S
C1579 C1578 1.370 . S
C1579 C1580 1.403 . S
C1580 C1579 1.403 . S
C1580 C1581 1.404 . S
C1580 C1583 1.539 . S
C1581 C1577 1.408 . S
C1581 C1580 1.404 . S
C1581 H1593 0.930 . S
C1582 C1578 1.524 . S
C1582 H1594 0.956 . S
C1582 H1595 0.961 . S
C1582 H1596 0.961 . S
C1583 C1580 1.539 . S
C1583 H1597 0.958 . S
C1583 H1598 0.961 . S
C1583 H1599 0.960 . S
H1584 C1568 0.931 . S
H1585 C1573 0.929 . S
H1586 C1574 0.960 . S
H1587 C1574 0.962 . S
H1588 C1574 0.960 . S
H1589 C1575 0.961 . S
H1590 C1575 0.961 . S
H1591 C1575 0.961 . S
H1592 C1576 0.931 . S
H1593 C1581 0.930 . S
H1594 C1582 0.956 . S
H1595 C1582 0.961 . S
H1596 C1582 0.961 . S
H1597 C1583 0.958 . S
H1598 C1583 0.961 . S
H1599 C1583 0.960 . S
C1600 C1601 1.391 . S
C1600 C1602 1.394 . S
C1600 H1616 0.931 . S
C1601 C1600 1.391 . S
C1601 C1605 1.376 . S
C1602 C1600 1.394 . S
C1602 C1603 1.369 . S
C1602 C1606 1.531 . S
C1603 C1602 1.369 . S
C1603 C1604 1.410 . S
C1603 C1611 1.503 . S
C1604 C1603 1.410 . S
C1604 C1605 1.392 . S
C1604 C1607 1.511 . S
C1605 C1601 1.376 . S
C1605 C1604 1.392 . S
C1605 H1617 0.929 . S
C1606 C1602 1.531 . S
C1606 H1618 0.960 . S
C1606 H1619 0.962 . S
C1606 H1620 0.960 . S
C1607 C1604 1.511 . S
C1607 H1621 0.961 . S
C1607 H1622 0.961 . S
C1607 H1623 0.961 . S
C1608 C1609 1.370 . S
C1608 C1610 1.363 . S
C1608 H1624 0.931 . S
C1609 C1608 1.370 . S
C1609 C1613 1.408 . S
C1610 C1608 1.363 . S
C1610 C1611 1.370 . S
C1610 C1614 1.524 . S
C1611 C1603 1.503 . S
C1611 C1610 1.370 . S
C1611 C1612 1.403 . S
C1612 C1611 1.403 . S
C1612 C1613 1.404 . S
C1612 C1615 1.539 . S
C1613 C1609 1.408 . S
C1613 C1612 1.404 . S
C1613 H1625 0.930 . S
C1614 C1610 1.524 . S
C1614 H1626 0.956 . S
C1614 H1627 0.961 . S
C1614 H1628 0.961 . S
C1615 C1612 1.539 . S
C1615 H1629 0.958 . S
C1615 H1630 0.961 . S
C1615 H1631 0.960 . S
H1616 C1600 0.931 . S
H1617 C1605 0.929 . S
H1618 C1606 0.960 . S
H1619 C1606 0.962 . S
H1620 C1606 0.960 . S
H1621 C1607 0.961 . S
H1622 C1607 0.961 . S
H1623 C1607 0.961 . S
H1624 C1608 0.931 . S
H1625 C1613 0.930 . S
H1626 C1614 0.956 . S
H1627 C1614 0.961 . S
H1628 C1614 0.961 . S
H1629 C1615 0.958 . S
H1630 C1615 0.961 . S
H1631 C1615 0.960 . S
C1632 C1633 1.391 . S
C1632 C1634 1.394 . S
C1632 H1648 0.931 . S
C1633 C1632 1.391 . S
C1633 C1637 1.376 . S
C1634 C1632 1.394 . S
C1634 C1635 1.369 . S
C1634 C1638 1.531 . S
C1635 C1634 1.369 . S
C1635 C1636 1.410 . S
C1635 C1643 1.503 . S
C1636 C1635 1.410 . S
C1636 C1637 1.392 . S
C1636 C1639 1.511 . S
C1637 C1633 1.376 . S
C1637 C1636 1.392 . S
C1637 H1649 0.929 . S
C1638 C1634 1.531 . S
C1638 H1650 0.960 . S
C1638 H1651 0.962 . S
C1638 H1652 0.960 . S
C1639 C1636 1.511 . S
C1639 H1653 0.961 . S
C1639 H1654 0.961 . S
C1639 H1655 0.961 . S
C1640 C1641 1.370 . S
C1640 C1642 1.363 . S
C1640 H1656 0.931 . S
C1641 C1640 1.370 . S
C1641 C1645 1.408 . S
C1642 C1640 1.363 . S
C1642 C1643 1.370 . S
C1642 C1646 1.524 . S
C1643 C1635 1.503 . S
C1643 C1642 1.370 . S
C1643 C1644 1.403 . S
C1644 C1643 1.403 . S
C1644 C1645 1.404 . S
C1644 C1647 1.539 . S
C1645 C1641 1.408 . S
C1645 C1644 1.404 . S
C1645 H1657 0.930 . S
C1646 C1642 1.524 . S
C1646 H1658 0.956 . S
C1646 H1659 0.961 . S
C1646 H1660 0.961 . S
C1647 C1644 1.539 . S
C1647 H1661 0.958 . S
C1647 H1662 0.961 . S
C1647 H1663 0.960 . S
H1648 C1632 0.931 . S
H1649 C1637 0.929 . S
H1650 C1638 0.960 . S
H1651 C1638 0.962 . S
H1652 C1638 0.960 . S
H1653 C1639 0.961 . S
H1654 C1639 0.961 . S
H1655 C1639 0.961 . S
H1656 C1640 0.931 . S
H1657 C1645 0.930 . S
H1658 C1646 0.956 . S
H1659 C1646 0.961 . S
H1660 C1646 0.961 . S
H1661 C1647 0.958 . S
H1662 C1647 0.961 . S
H1663 C1647 0.960 . S
C1664 C1665 1.391 . S
C1664 C1666 1.394 . S
C1664 H1680 0.931 . S
C1665 C1664 1.391 . S
C1665 C1669 1.376 . S
C1666 C1664 1.394 . S
C1666 C1667 1.369 . S
C1666 C1670 1.531 . S
C1667 C1666 1.369 . S
C1667 C1668 1.410 . S
C1667 C1675 1.503 . S
C1668 C1667 1.410 . S
C1668 C1669 1.392 . S
C1668 C1671 1.511 . S
C1669 C1665 1.376 . S
C1669 C1668 1.392 . S
C1669 H1681 0.929 . S
C1670 C1666 1.531 . S
C1670 H1682 0.960 . S
C1670 H1683 0.962 . S
C1670 H1684 0.960 . S
C1671 C1668 1.511 . S
C1671 H1685 0.961 . S
C1671 H1686 0.961 . S
C1671 H1687 0.961 . S
C1672 C1673 1.370 . S
C1672 C1674 1.363 . S
C1672 H1688 0.931 . S
C1673 C1672 1.370 . S
C1673 C1677 1.408 . S
C1674 C1672 1.363 . S
C1674 C1675 1.370 . S
C1674 C1678 1.524 . S
C1675 C1667 1.503 . S
C1675 C1674 1.370 . S
C1675 C1676 1.403 . S
C1676 C1675 1.403 . S
C1676 C1677 1.404 . S
C1676 C1679 1.539 . S
C1677 C1673 1.408 . S
C1677 C1676 1.404 . S
C1677 H1689 0.930 . S
C1678 C1674 1.524 . S
C1678 H1690 0.956 . S
C1678 H1691 0.961 . S
C1678 H1692 0.961 . S
C1679 C1676 1.539 . S
C1679 H1693 0.958 . S
C1679 H1694 0.961 . S
C1679 H1695 0.960 . S
H1680 C1664 0.931 . S
H1681 C1669 0.929 . S
H1682 C1670 0.960 . S
H1683 C1670 0.962 . S
H1684 C1670 0.960 . S
H1685 C1671 0.961 . S
H1686 C1671 0.961 . S
H1687 C1671 0.961 . S
H1688 C1672 0.931 . S
H1689 C1677 0.930 . S
H1690 C1678 0.956 . S
H1691 C1678 0.961 . S
H1692 C1678 0.961 . S
H1693 C1679 0.958 . S
H1694 C1679 0.961 . S
H1695 C1679 0.960 . S
C1696 C1697 1.391 . S
C1696 C1698 1.394 . S
C1696 H1712 0.931 . S
C1697 C1696 1.391 . S
C1697 C1701 1.376 . S
C1698 C1696 1.394 . S
C1698 C1699 1.369 . S
C1698 C1702 1.531 . S
C1699 C1698 1.369 . S
C1699 C1700 1.410 . S
C1699 C1707 1.503 . S
C1700 C1699 1.410 . S
C1700 C1701 1.392 . S
C1700 C1703 1.511 . S
C1701 C1697 1.376 . S
C1701 C1700 1.392 . S
C1701 H1713 0.929 . S
C1702 C1698 1.531 . S
C1702 H1714 0.960 . S
C1702 H1715 0.962 . S
C1702 H1716 0.960 . S
C1703 C1700 1.511 . S
C1703 H1717 0.961 . S
C1703 H1718 0.961 . S
C1703 H1719 0.961 . S
C1704 C1705 1.370 . S
C1704 C1706 1.363 . S
C1704 H1720 0.931 . S
C1705 C1704 1.370 . S
C1705 C1709 1.408 . S
C1706 C1704 1.363 . S
C1706 C1707 1.370 . S
C1706 C1710 1.524 . S
C1707 C1699 1.503 . S
C1707 C1706 1.370 . S
C1707 C1708 1.403 . S
C1708 C1707 1.403 . S
C1708 C1709 1.404 . S
C1708 C1711 1.539 . S
C1709 C1705 1.408 . S
C1709 C1708 1.404 . S
C1709 H1721 0.930 . S
C1710 C1706 1.524 . S
C1710 H1722 0.956 . S
C1710 H1723 0.961 . S
C1710 H1724 0.961 . S
C1711 C1708 1.539 . S
C1711 H1725 0.958 . S
C1711 H1726 0.961 . S
C1711 H1727 0.960 . S
H1712 C1696 0.931 . S
H1713 C1701 0.929 . S
H1714 C1702 0.960 . S
H1715 C1702 0.962 . S
H1716 C1702 0.960 . S
H1717 C1703 0.961 . S
H1718 C1703 0.961 . S
H1719 C1703 0.961 . S
H1720 C1704 0.931 . S
H1721 C1709 0.930 . S
H1722 C1710 0.956 . S
H1723 C1710 0.961 . S
H1724 C1710 0.961 . S
H1725 C1711 0.958 . S
H1726 C1711 0.961 . S
H1727 C1711 0.960 . S
C1728 C1729 1.391 . S
C1728 C1730 1.394 . S
C1728 H1744 0.931 . S
C1729 C1728 1.391 . S
C1729 C1733 1.376 . S
C1730 C1728 1.394 . S
C1730 C1731 1.369 . S
C1730 C1734 1.531 . S
C1731 C1730 1.369 . S
C1731 C1732 1.410 . S
C1731 C1739 1.503 . S
C1732 C1731 1.410 . S
C1732 C1733 1.392 . S
C1732 C1735 1.511 . S
C1733 C1729 1.376 . S
C1733 C1732 1.392 . S
C1733 H1745 0.929 . S
C1734 C1730 1.531 . S
C1734 H1746 0.960 . S
C1734 H1747 0.962 . S
C1734 H1748 0.960 . S
C1735 C1732 1.511 . S
C1735 H1749 0.961 . S
C1735 H1750 0.961 . S
C1735 H1751 0.961 . S
C1736 C1737 1.370 . S
C1736 C1738 1.363 . S
C1736 H1752 0.931 . S
C1737 C1736 1.370 . S
C1737 C1741 1.408 . S
C1738 C1736 1.363 . S
C1738 C1739 1.370 . S
C1738 C1742 1.524 . S
C1739 C1731 1.503 . S
C1739 C1738 1.370 . S
C1739 C1740 1.403 . S
C1740 C1739 1.403 . S
C1740 C1741 1.404 . S
C1740 C1743 1.539 . S
C1741 C1737 1.408 . S
C1741 C1740 1.404 . S
C1741 H1753 0.930 . S
C1742 C1738 1.524 . S
C1742 H1754 0.956 . S
C1742 H1755 0.961 . S
C1742 H1756 0.961 . S
C1743 C1740 1.539 . S
C1743 H1757 0.958 . S
C1743 H1758 0.961 . S
C1743 H1759 0.960 . S
H1744 C1728 0.931 . S
H1745 C1733 0.929 . S
H1746 C1734 0.960 . S
H1747 C1734 0.962 . S
H1748 C1734 0.960 . S
H1749 C1735 0.961 . S
H1750 C1735 0.961 . S
H1751 C1735 0.961 . S
H1752 C1736 0.931 . S
H1753 C1741 0.930 . S
H1754 C1742 0.956 . S
H1755 C1742 0.961 . S
H1756 C1742 0.961 . S
H1757 C1743 0.958 . S
H1758 C1743 0.961 . S
H1759 C1743 0.960 . S
C1760 C1761 1.391 . S
C1760 C1762 1.394 . S
C1760 H1776 0.931 . S
C1761 C1760 1.391 . S
C1761 C1765 1.376 . S
C1762 C1760 1.394 . S
C1762 C1763 1.369 . S
C1762 C1766 1.531 . S
C1763 C1762 1.369 . S
C1763 C1764 1.410 . S
C1763 C1771 1.503 . S
C1764 C1763 1.410 . S
C1764 C1765 1.392 . S
C1764 C1767 1.511 . S
C1765 C1761 1.376 . S
C1765 C1764 1.392 . S
C1765 H1777 0.929 . S
C1766 C1762 1.531 . S
C1766 H1778 0.960 . S
C1766 H1779 0.962 . S
C1766 H1780 0.960 . S
C1767 C1764 1.511 . S
C1767 H1781 0.961 . S
C1767 H1782 0.961 . S
C1767 H1783 0.961 . S
C1768 C1769 1.370 . S
C1768 C1770 1.363 . S
C1768 H1784 0.931 . S
C1769 C1768 1.370 . S
C1769 C1773 1.408 . S
C1770 C1768 1.363 . S
C1770 C1771 1.370 . S
C1770 C1774 1.524 . S
C1771 C1763 1.503 . S
C1771 C1770 1.370 . S
C1771 C1772 1.403 . S
C1772 C1771 1.403 . S
C1772 C1773 1.404 . S
C1772 C1775 1.539 . S
C1773 C1769 1.408 . S
C1773 C1772 1.404 . S
C1773 H1785 0.930 . S
C1774 C1770 1.524 . S
C1774 H1786 0.956 . S
C1774 H1787 0.961 . S
C1774 H1788 0.961 . S
C1775 C1772 1.539 . S
C1775 H1789 0.958 . S
C1775 H1790 0.961 . S
C1775 H1791 0.960 . S
H1776 C1760 0.931 . S
H1777 C1765 0.929 . S
H1778 C1766 0.960 . S
H1779 C1766 0.962 . S
H1780 C1766 0.960 . S
H1781 C1767 0.961 . S
H1782 C1767 0.961 . S
H1783 C1767 0.961 . S
H1784 C1768 0.931 . S
H1785 C1773 0.930 . S
H1786 C1774 0.956 . S
H1787 C1774 0.961 . S
H1788 C1774 0.961 . S
H1789 C1775 0.958 . S
H1790 C1775 0.961 . S
H1791 C1775 0.960 . S
C1792 C1793 1.391 . S
C1792 C1794 1.394 . S
C1792 H1808 0.931 . S
C1793 C1792 1.391 . S
C1793 C1797 1.376 . S
C1794 C1792 1.394 . S
C1794 C1795 1.369 . S
C1794 C1798 1.531 . S
C1795 C1794 1.369 . S
C1795 C1796 1.410 . S
C1795 C1803 1.503 . S
C1796 C1795 1.410 . S
C1796 C1797 1.392 . S
C1796 C1799 1.511 . S
C1797 C1793 1.376 . S
C1797 C1796 1.392 . S
C1797 H1809 0.929 . S
C1798 C1794 1.531 . S
C1798 H1810 0.960 . S
C1798 H1811 0.962 . S
C1798 H1812 0.960 . S
C1799 C1796 1.511 . S
C1799 H1813 0.961 . S
C1799 H1814 0.961 . S
C1799 H1815 0.961 . S
C1800 C1801 1.370 . S
C1800 C1802 1.363 . S
C1800 H1816 0.931 . S
C1801 C1800 1.370 . S
C1801 C1805 1.408 . S
C1802 C1800 1.363 . S
C1802 C1803 1.370 . S
C1802 C1806 1.524 . S
C1803 C1795 1.503 . S
C1803 C1802 1.370 . S
C1803 C1804 1.403 . S
C1804 C1803 1.403 . S
C1804 C1805 1.404 . S
C1804 C1807 1.539 . S
C1805 C1801 1.408 . S
C1805 C1804 1.404 . S
C1805 H1817 0.930 . S
C1806 C1802 1.524 . S
C1806 H1818 0.956 . S
C1806 H1819 0.961 . S
C1806 H1820 0.961 . S
C1807 C1804 1.539 . S
C1807 H1821 0.958 . S
C1807 H1822 0.961 . S
C1807 H1823 0.960 . S
H1808 C1792 0.931 . S
H1809 C1797 0.929 . S
H1810 C1798 0.960 . S
H1811 C1798 0.962 . S
H1812 C1798 0.960 . S
H1813 C1799 0.961 . S
H1814 C1799 0.961 . S
H1815 C1799 0.961 . S
H1816 C1800 0.931 . S
H1817 C1805 0.930 . S
H1818 C1806 0.956 . S
H1819 C1806 0.961 . S
H1820 C1806 0.961 . S
H1821 C1807 0.958 . S
H1822 C1807 0.961 . S
H1823 C1807 0.960 . S
C545 C141 1.608 . S
C553 C5 1.598 . S
C577 C175 1.610 . S
C585 C39 1.596 . S
C609 C73 1.610 . S
C617 C209 1.596 . S
C641 C243 1.605 . S
C649 C107 1.600 . S
C673 C413 1.606 . S
C681 C277 1.592 . S
C705 C311 1.578 . S
C713 C447 1.604 . S
C737 C345 1.602 . S
C745 C481 1.593 . S
C769 C379 1.600 . S
C777 C515 1.600 . S
C801 C2 1.363 . S
C809 C428 1.408 . S
C833 C36 1.406 . S
C841 C462 1.404 . S
C865 C496 1.396 . S
C873 C70 1.387 . S
C897 C104 1.370 . S
C905 C530 1.406 . S
C929 C292 1.393 . S
C937 C138 1.395 . S
C961 C326 1.412 . S
C969 C172 1.382 . S
C993 C206 1.368 . S
C1001 C360 1.410 . S
C1025 C394 1.411 . S
C1033 C240 1.379 . S
C1057 C274 1.397 . S
C1065 C156 1.405 . S
C1089 C308 1.364 . S
C1097 C190 1.410 . S
C1121 C224 1.410 . S
C1129 C342 1.379 . S
C1153 C376 1.382 . S
C1161 C258 1.408 . S
C1185 C410 1.393 . S
C1193 C20 1.403 . S
C1217 C444 1.403 . S
C1225 C54 1.404 . S
C1249 C478 1.387 . S
C1257 C88 1.407 . S
C1281 C122 1.412 . S
C1289 C512 1.380 . S
C1313 C247 1.590 . S
C1321 C9 1.656 . S
C1345 C43 1.682 . S
C1353 C145 1.634 . S
C1377 C179 1.618 . S
C1385 C77 1.660 . S
C1409 C213 1.623 . S
C1417 C111 1.659 . S
C1441 C281 1.638 . S
C1449 C519 1.624 . S
C1473 C417 1.684 . S
C1481 C315 1.629 . S
C1505 C349 1.685 . S
C1513 C451 1.630 . S
C1537 C485 1.600 . S
C1545 C383 1.660 . S
C1569 C101 0.320 . S
C1577 C33 0.234 . S
C1601 C135 0.331 . S
C1609 C67 0.220 . S
C1633 C169 0.227 . S
C1641 C237 0.264 . S
C1665 C271 0.305 . S
C1673 C203 0.245 . S
C1697 C305 0.111 . S
C1705 C373 0.214 . S
C1729 C407 0.292 . S
C1737 C339 0.260 . S
C1761 C441 0.265 . S
C1769 C509 0.264 . S
C1793 C475 0.318 . S
C1801 C543 0.248 . S
