# Generated by pormake.
# Topology sow, (4)-cn, num edge types: 1
# Building blocks:
#     Node 0, Type 0, BuildingBlock: QUQFOY_clean_sbu_1, # of connection points: 4
#     Node 1, Type 0, BuildingBlock: QUQFOY_clean_sbu_1, # of connection points: 4
#     Node 2, Type 0, BuildingBlock: QUQFOY_clean_sbu_1, # of connection points: 4
#     Node 3, Type 0, BuildingBlock: QUQFOY_clean_sbu_1, # of connection points: 4
#     Node 4, Type 0, BuildingBlock: QUQFOY_clean_sbu_1, # of connection points: 4
#     Node 5, Type 0, BuildingBlock: QUQFOY_clean_sbu_1, # of connection points: 4
#     Node 6, Type 0, BuildingBlock: QUQFOY_clean_sbu_1, # of connection points: 4
#     Node 7, Type 0, BuildingBlock: QUQFOY_clean_sbu_1, # of connection points: 4
#     Edge 8, Type (0, 0), BuildingBlock: AJUNOK_clean_linker_0, # of connection points: 2
#     Edge 9, Type (0, 0), BuildingBlock: AJUNOK_clean_linker_0, # of connection points: 2
#     Edge 10, Type (0, 0), BuildingBlock: AJUNOK_clean_linker_0, # of connection points: 2
#     Edge 11, Type (0, 0), BuildingBlock: AJUNOK_clean_linker_0, # of connection points: 2
#     Edge 12, Type (0, 0), BuildingBlock: AJUNOK_clean_linker_0, # of connection points: 2
#     Edge 13, Type (0, 0), BuildingBlock: AJUNOK_clean_linker_0, # of connection points: 2
#     Edge 14, Type (0, 0), BuildingBlock: AJUNOK_clean_linker_0, # of connection points: 2
#     Edge 15, Type (0, 0), BuildingBlock: AJUNOK_clean_linker_0, # of connection points: 2
#     Edge 16, Type (0, 0), BuildingBlock: AJUNOK_clean_linker_0, # of connection points: 2
#     Edge 17, Type (0, 0), BuildingBlock: AJUNOK_clean_linker_0, # of connection points: 2
#     Edge 18, Type (0, 0), BuildingBlock: AJUNOK_clean_linker_0, # of connection points: 2
#     Edge 19, Type (0, 0), BuildingBlock: AJUNOK_clean_linker_0, # of connection points: 2
#     Edge 20, Type (0, 0), BuildingBlock: AJUNOK_clean_linker_0, # of connection points: 2
#     Edge 21, Type (0, 0), BuildingBlock: AJUNOK_clean_linker_0, # of connection points: 2
#     Edge 22, Type (0, 0), BuildingBlock: AJUNOK_clean_linker_0, # of connection points: 2
#     Edge 23, Type (0, 0), BuildingBlock: AJUNOK_clean_linker_0, # of connection points: 2
# Relax obj value: 0.064
# Max RMSD: 0.116
# Mean RMSD: 0.116
data_MOF--net-sow--node1-QUQFOY_clean_sbu_1--edge1-AJUNOK_clean_linker_0
_symmetry_space_group_name_H-M    P1
_symmetry_Int_Tables_number       1
_symmetry_cell_setting            triclinic
loop_
_symmetry_equiv_pos_as_xyz
'x, y, z'
_cell_length_a     26.19215
_cell_length_b     28.476727
_cell_length_c     17.71363
_cell_angle_alpha  89.945624
_cell_angle_beta   90.147098
_cell_angle_gamma 89.893329
loop_
_atom_site_label
_atom_site_type_symbol
_atom_site_fract_x
_atom_site_fract_y
_atom_site_fract_z
_atom_type_partial_charge
O0 O 0.19295 0.23695 0.10284 0.0
Cd1 Cd 0.13769 0.24407 0.02202 0.0
Cd2 Cd 0.11632 0.1576 0.08817 0.0
O3 O 0.18728 0.16357 0.1414 0.0
O4 O 0.16505 0.29858 0.96415 0.0
O5 O 0.15263 0.22875 0.91286 0.0
C6 C 0.16875 0.27137 0.9066 0.0
C7 C 0.07166 0.08863 0.05369 0.0
C8 C 0.20859 0.20383 0.1449 0.0
C9 C 0.05311 0.24544 0.1239 0.0
O10 O 0.0676 0.20377 0.13728 0.0
O11 O 0.07172 0.26891 0.06969 0.0
O12 O 0.08494 0.09698 0.1224 0.0
O13 O 0.0882 0.11728 1.00275 0.0
O14 O 0.28724 0.30381 0.59763 0.0
Cd15 Cd 0.34736 0.28553 0.53146 0.0
Cd16 Cd 0.38893 0.3757 0.58513 0.0
O17 O 0.32708 0.3613 0.65822 0.0
O18 O 0.32155 0.23174 0.47012 0.0
O19 O 0.3447 0.29969 0.42057 0.0
C20 C 0.32484 0.2585 0.41157 0.0
C21 C 0.42434 0.4499 0.55753 0.0
C22 C 0.29014 0.33218 0.65257 0.0
C23 C 0.44459 0.28811 0.61543 0.0
O24 O 0.44811 0.32839 0.58567 0.0
O25 O 0.40664 0.26251 0.5992 0.0
O26 O 0.42632 0.43247 0.62461 0.0
O27 O 0.3969 0.42781 0.50834 0.0
O28 O 0.69649 0.29458 0.89685 0.0
Cd29 Cd 0.64348 0.28723 0.98085 0.0
Cd30 Cd 0.62403 0.3791 0.92299 0.0
O31 O 0.69449 0.37081 0.87039 0.0
O32 O 0.6667 0.2332 0.04473 0.0
O33 O 0.66252 0.30647 0.08636 0.0
C34 C 0.67419 0.26296 0.09834 0.0
C35 C 0.5796 0.44693 0.9614 0.0
C36 C 0.71343 0.32987 0.86085 0.0
C37 C 0.55385 0.29576 0.88819 0.0
O38 O 0.57171 0.3363 0.87597 0.0
O39 O 0.57331 0.2688 0.93759 0.0
O40 O 0.59269 0.441 0.89197 0.0
O41 O 0.59777 0.41754 0.01028 0.0
O42 O 0.8079 0.23924 0.40034 0.0
Cd43 Cd 0.86095 0.24525 0.48491 0.0
Cd44 Cd 0.88134 0.15734 0.42104 0.0
O45 O 0.81065 0.16421 0.3676 0.0
O46 O 0.83534 0.29959 0.54529 0.0
O47 O 0.84294 0.22774 0.59186 0.0
C48 C 0.82946 0.271 0.60081 0.0
C49 C 0.92458 0.08818 0.45641 0.0
C50 C 0.79149 0.20528 0.3607 0.0
C51 C 0.9472 0.24418 0.38731 0.0
O52 O 0.93111 0.20317 0.37349 0.0
O53 O 0.92913 0.26798 0.44152 0.0
O54 O 0.91541 0.09783 0.38667 0.0
O55 O 0.90494 0.11535 0.507 0.0
O56 O 0.80357 0.79144 0.89958 0.0
Cd57 Cd 0.85857 0.7782 0.97992 0.0
Cd58 Cd 0.87371 0.87731 0.94379 0.0
O59 O 0.8063 0.86904 0.88368 0.0
O60 O 0.83551 0.72474 0.0447 0.0
O61 O 0.84323 0.79801 0.08588 0.0
C62 C 0.82998 0.75494 0.09839 0.0
C63 C 0.91669 0.9467 0.98115 0.0
C64 C 0.78742 0.82881 0.86798 0.0
C65 C 0.94711 0.79698 0.89304 0.0
O66 O 0.9269 0.83718 0.89572 0.0
O67 O 0.92874 0.76345 0.93152 0.0
O68 O 0.90432 0.93944 0.91179 0.0
O69 O 0.89878 0.91768 0.03044 0.0
O70 O 0.69515 0.73954 0.40061 0.0
Cd71 Cd 0.64287 0.74968 0.48434 0.0
Cd72 Cd 0.61959 0.65916 0.42895 0.0
O73 O 0.68883 0.66442 0.3701 0.0
O74 O 0.67337 0.80352 0.53991 0.0
O75 O 0.65766 0.73496 0.59375 0.0
C76 C 0.67617 0.77688 0.59853 0.0
C77 C 0.57427 0.59198 0.46859 0.0
C78 C 0.70961 0.70465 0.36154 0.0
C79 C 0.55164 0.74541 0.3953 0.0
O80 O 0.56662 0.7036 0.38502 0.0
O81 O 0.57444 0.77253 0.44097 0.0
O82 O 0.58499 0.59917 0.39863 0.0
O83 O 0.59517 0.61956 0.51756 0.0
O84 O 0.29659 0.73408 0.09904 0.0
Cd85 Cd 0.35464 0.74639 0.02629 0.0
Cd86 Cd 0.38245 0.65714 0.07435 0.0
O87 O 0.31678 0.66351 0.14197 0.0
O88 O 0.32752 0.80254 0.97198 0.0
O89 O 0.34621 0.73632 0.91387 0.0
C90 C 0.32727 0.7782 0.91086 0.0
C91 C 0.42278 0.58635 0.03665 0.0
C92 C 0.28966 0.70078 0.14536 0.0
C93 C 0.44261 0.74196 0.12724 0.0
O94 O 0.43823 0.69801 0.11858 0.0
O95 O 0.41542 0.77035 0.08916 0.0
O96 O 0.4126 0.59525 0.1061 0.0
O97 O 0.4049 0.61523 0.98696 0.0
O98 O 0.19574 0.79471 0.61303 0.0
Cd99 Cd 0.14345 0.76963 0.53328 0.0
Cd100 Cd 0.12711 0.88258 0.57068 0.0
O101 O 0.19522 0.87308 0.62813 0.0
O102 O 0.17351 0.71819 0.47121 0.0
O103 O 0.15559 0.78942 0.42675 0.0
C104 C 0.1749 0.74803 0.41622 0.0
C105 C 0.07825 0.94863 0.5384 0.0
C106 C 0.213 0.83215 0.64382 0.0
C107 C 0.06021 0.79038 0.61449 0.0
O108 O 0.08591 0.82617 0.59797 0.0
O109 O 0.07245 0.75284 0.58082 0.0
O110 O 0.08637 0.93743 0.60792 0.0
O111 O 0.10254 0.92542 0.48696 0.0
C112 C 0.20531 0.32325 0.71664 0.0
C113 C 0.25896 0.32102 0.71942 0.0
C114 C 0.17557 0.30668 0.77721 0.0
C115 C 0.1988 0.28654 0.84113 0.0
H116 H 0.18636 0.33752 0.66725 0.0
H117 H 0.13438 0.30949 0.77401 0.0
S118 S 0.33697 0.26628 0.87112 0.0
N119 N 0.33323 0.29251 0.7881 0.0
N120 N 0.27766 0.26245 0.90187 0.0
C121 C 0.25208 0.28298 0.8436 0.0
C122 C 0.28213 0.29986 0.78257 0.0
C123 C 0.25663 0.18369 0.26434 0.0
C124 C 0.24561 0.21592 0.20626 0.0
C125 C 0.28421 0.19728 0.32896 0.0
C126 C 0.30195 0.24365 0.33837 0.0
H127 H 0.24213 0.14815 0.2615 0.0
H128 H 0.29022 0.17144 0.37303 0.0
S129 S 0.28397 0.34195 0.20299 0.0
N130 N 0.25615 0.29666 0.16225 0.0
N131 N 0.30692 0.32176 0.28351 0.0
C132 C 0.29253 0.27594 0.27991 0.0
C133 C 0.26469 0.2622 0.21405 0.0
C134 C 0.77422 0.25714 0.25147 0.0
C135 C 0.75954 0.21789 0.29482 0.0
C136 C 0.74543 0.27216 0.18937 0.0
C137 C 0.70092 0.24837 0.16788 0.0
H138 H 0.80874 0.27626 0.26527 0.0
H139 H 0.75882 0.30193 0.15682 0.0
S140 S 0.64349 0.14623 0.26544 0.0
N141 N 0.69607 0.15714 0.31419 0.0
N142 N 0.64186 0.18518 0.19618 0.0
C143 C 0.6854 0.20935 0.21073 0.0
C144 C 0.71477 0.19408 0.27453 0.0
C145 C 0.7215 0.29217 0.73643 0.0
C146 C 0.74424 0.31934 0.79365 0.0
C147 C 0.74985 0.27602 0.67485 0.0
C148 C 0.80195 0.28639 0.66855 0.0
H149 H 0.68144 0.28286 0.73985 0.0
H150 H 0.73084 0.25546 0.63169 0.0
S151 S 0.87993 0.35465 0.80399 0.0
N152 N 0.82205 0.3549 0.84113 0.0
N153 N 0.87557 0.32486 0.72414 0.0
C154 C 0.82523 0.31365 0.7249 0.0
C155 C 0.79627 0.33008 0.78797 0.0
C156 C 0.7638 0.77092 0.19491 0.0
C157 C 0.80308 0.74179 0.16854 0.0
C158 C 0.73418 0.75791 0.25704 0.0
C159 C 0.74276 0.71535 0.29599 0.0
H160 H 0.75481 0.80345 0.16591 0.0
H161 H 0.70353 0.78123 0.27395 0.0
S162 S 0.84428 0.62881 0.25329 0.0
N163 N 0.85106 0.66969 0.18776 0.0
N164 N 0.79544 0.6454 0.30595 0.0
C165 C 0.78247 0.68616 0.27099 0.0
C166 C 0.81265 0.6994 0.207 0.0
C167 C 0.68607 0.77846 0.73928 0.0
C168 C 0.70226 0.79347 0.66762 0.0
C169 C 0.71185 0.79275 0.80498 0.0
C170 C 0.75439 0.82275 0.80122 0.0
H171 H 0.65368 0.7551 0.74456 0.0
H172 H 0.69935 0.77917 0.85901 0.0
S173 S 0.81668 0.86572 0.6266 0.0
N174 N 0.76638 0.83626 0.59638 0.0
N175 N 0.8146 0.86301 0.71969 0.0
C176 C 0.77131 0.83749 0.72983 0.0
C177 C 0.74527 0.82286 0.66305 0.0
C178 C 0.31146 0.77504 0.77116 0.0
C179 C 0.30244 0.79657 0.84131 0.0
C180 C 0.28478 0.78913 0.70609 0.0
C181 C 0.24828 0.82547 0.70842 0.0
H182 H 0.33838 0.74625 0.76674 0.0
H183 H 0.2915 0.77028 0.65392 0.0
S184 S 0.20676 0.89013 0.87929 0.0
N185 N 0.25218 0.85454 0.90977 0.0
N186 N 0.20235 0.88078 0.78754 0.0
C187 C 0.23914 0.84758 0.77798 0.0
C188 C 0.26611 0.83315 0.84437 0.0
C189 C 0.22747 0.67898 0.24895 0.0
C190 C 0.25922 0.71205 0.21363 0.0
C191 C 0.19941 0.69099 0.31404 0.0
C192 C 0.20216 0.73638 0.34554 0.0
H193 H 0.22408 0.6439 0.22599 0.0
H194 H 0.17527 0.66465 0.33978 0.0
S195 S 0.2868 0.83287 0.28247 0.0
N196 N 0.29663 0.79028 0.22109 0.0
N197 N 0.24333 0.81264 0.34136 0.0
C198 C 0.23496 0.76917 0.31208 0.0
C199 C 0.26371 0.75699 0.24676 0.0
C200 C 0.97351 0.26933 0.18695 0.0
C201 C 0.02685 0.2686 0.1861 0.0
C202 C 0.94738 0.26921 0.2557 0.0
C203 C 0.97396 0.26689 0.32498 0.0
H204 H 0.95209 0.26457 0.1351 0.0
H205 H 0.90627 0.26486 0.25449 0.0
S206 S 0.11391 0.26935 0.35125 0.0
N207 N 0.10549 0.27164 0.25888 0.0
N208 N 0.05607 0.26833 0.38836 0.0
C209 C 0.02708 0.27076 0.32476 0.0
C210 C 0.05363 0.27243 0.25483 0.0
C211 C 0.50318 0.24834 0.70828 0.0
C212 C 0.46665 0.28294 0.6914 0.0
C213 C 0.52729 0.2475 0.77941 0.0
C214 C 0.51434 0.28047 0.83545 0.0
H215 H 0.51551 0.22403 0.665 0.0
H216 H 0.55943 0.22406 0.78793 0.0
S217 S 0.41869 0.37568 0.82064 0.0
N218 N 0.41811 0.34997 0.73718 0.0
N219 N 0.45994 0.34544 0.8718 0.0
C220 C 0.47465 0.31219 0.8211 0.0
C221 C 0.45203 0.31451 0.74844 0.0
C222 C 0.01009 0.74939 0.71719 0.0
C223 C 0.03116 0.79074 0.68649 0.0
C224 C 0.98675 0.74953 0.78889 0.0
C225 C 0.98526 0.79068 0.83276 0.0
H226 H 0.01088 0.717 0.68525 0.0
H227 H 0.96763 0.71806 0.80821 0.0
S228 S 0.03848 0.90727 0.78193 0.0
N229 N 0.04879 0.87384 0.70771 0.0
N230 N 0.01137 0.87233 0.84396 0.0
C231 C 0.00951 0.83112 0.80488 0.0
C232 C 0.03024 0.83177 0.73116 0.0
C233 C 0.50328 0.78664 0.21083 0.0
C234 C 0.4619 0.75601 0.20174 0.0
C235 C 0.52833 0.78978 0.28104 0.0
C236 C 0.5126 0.76214 0.34281 0.0
H237 H 0.51891 0.80491 0.16251 0.0
H238 H 0.56363 0.80946 0.28436 0.0
S239 S 0.40193 0.68163 0.34915 0.0
N240 N 0.40201 0.70264 0.26233 0.0
N241 N 0.45029 0.70739 0.3923 0.0
C242 C 0.46815 0.73533 0.3359 0.0
C243 C 0.44258 0.73242 0.26552 0.0
C244 C 0.01432 0.04585 0.96198 0.0
C245 C 0.0343 0.05052 0.03554 0.0
C246 C 0.97562 1.01311 0.94537 0.0
C247 C 0.95487 0.98368 1.00163 0.0
H248 H 0.02821 0.06803 0.9168 0.0
H249 H 0.96208 1.0108 0.88766 0.0
S250 S 0.99519 0.98039 0.20284 0.0
N251 N 0.03113 0.02157 0.16478 0.0
N252 N 0.95881 0.9606 0.1337 0.0
C253 C 0.97495 0.98764 0.07519 0.0
C254 C 0.01447 0.02078 0.09204 0.0
C255 C 0.53256 0.53959 0.56539 0.0
C256 C 0.53521 0.5564 0.49078 0.0
C257 C 0.49522 0.50678 0.58726 0.0
C258 C 0.45846 0.48972 0.53569 0.0
H259 H 0.56006 0.55129 0.60706 0.0
H260 H 0.49605 0.4939 0.6448 0.0
S261 S 0.44357 0.52843 0.33675 0.0
N262 N 0.49422 0.55715 0.3673 0.0
N263 N 0.4243 0.49601 0.40843 0.0
C264 C 0.45923 0.50799 0.46187 0.0
C265 C 0.49748 0.54107 0.43943 0.0
C266 C 0.483 0.54746 0.94505 0.0
C267 C 0.45947 0.54814 0.01649 0.0
C268 C 0.52245 0.51545 0.92827 0.0
C269 C 0.54033 0.48283 0.98229 0.0
H270 H 0.4717 0.57252 0.90208 0.0
H271 H 0.53908 0.51642 0.87237 0.0
S272 S 0.48857 0.46718 0.17557 0.0
N273 N 0.4551 0.51117 0.14013 0.0
N274 N 0.52887 0.45155 0.10879 0.0
C275 C 0.5163 0.48249 0.0533 0.0
C276 C 0.47604 0.51488 0.07027 0.0
C277 C 0.04483 1.01318 0.455 0.0
C278 C 0.03876 0.98406 0.51843 0.0
C279 C 0.00705 0.04601 0.4346 0.0
C280 C 0.96175 0.05087 0.47674 0.0
H281 H 0.07928 1.01099 0.42145 0.0
H282 H 0.01389 0.06852 0.38632 0.0
S283 S 0.92395 0.97835 0.64092 0.0
N284 N 0.98151 0.95905 0.61873 0.0
N285 N 0.91113 0.02115 0.5807 0.0
C286 C 0.95459 0.02117 0.53899 0.0
C287 C 0.99291 0.98765 0.55969 0.0
loop_
_geom_bond_atom_site_label_1
_geom_bond_atom_site_label_2
_geom_bond_distance
_geom_bond_site_symmetry_2
_ccdc_geom_bond_type
O0 Cd1 2.223 . S
O0 C8 1.315 . S
Cd1 O0 2.223 . S
Cd1 O4 2.297 1_554 S
Cd1 O5 2.439 1_554 S
Cd1 O11 2.240 . S
Cd2 O3 2.240 . S
Cd2 O10 2.223 . S
Cd2 O12 2.297 . S
Cd2 O13 2.439 1_554 S
O3 Cd2 2.240 . S
O3 C8 1.279 . S
O4 Cd1 2.297 1_556 S
O4 C6 1.247 . S
O5 Cd1 2.439 1_556 S
O5 C6 1.208 . S
C6 O4 1.247 . S
C6 O5 1.208 . S
C7 O12 1.247 . S
C7 O13 1.208 1_554 S
C8 O0 1.315 . S
C8 O3 1.279 . S
C9 O10 1.315 . S
C9 O11 1.279 . S
O10 Cd2 2.223 . S
O10 C9 1.315 . S
O11 Cd1 2.240 . S
O11 C9 1.279 . S
O12 Cd2 2.297 . S
O12 C7 1.247 . S
O13 Cd2 2.439 1_556 S
O13 C7 1.208 1_556 S
O14 Cd15 2.223 . S
O14 C22 1.315 . S
Cd15 O14 2.223 . S
Cd15 O18 2.297 . S
Cd15 O19 2.439 . S
Cd15 O25 2.240 . S
Cd16 O17 2.240 . S
Cd16 O24 2.223 . S
Cd16 O26 2.297 . S
Cd16 O27 2.439 . S
O17 Cd16 2.240 . S
O17 C22 1.279 . S
O18 Cd15 2.297 . S
O18 C20 1.247 . S
O19 Cd15 2.439 . S
O19 C20 1.208 . S
C20 O18 1.247 . S
C20 O19 1.208 . S
C21 O26 1.247 . S
C21 O27 1.208 . S
C22 O14 1.315 . S
C22 O17 1.279 . S
C23 O24 1.315 . S
C23 O25 1.279 . S
O24 Cd16 2.223 . S
O24 C23 1.315 . S
O25 Cd15 2.240 . S
O25 C23 1.279 . S
O26 Cd16 2.297 . S
O26 C21 1.247 . S
O27 Cd16 2.439 . S
O27 C21 1.208 . S
O28 Cd29 2.223 . S
O28 C36 1.315 . S
Cd29 O28 2.223 . S
Cd29 O32 2.297 1_556 S
Cd29 O33 2.439 1_556 S
Cd29 O39 2.240 . S
Cd30 O31 2.240 . S
Cd30 O38 2.223 . S
Cd30 O40 2.297 . S
Cd30 O41 2.439 1_556 S
O31 Cd30 2.240 . S
O31 C36 1.279 . S
O32 Cd29 2.297 1_554 S
O32 C34 1.247 . S
O33 Cd29 2.439 1_554 S
O33 C34 1.208 . S
C34 O32 1.247 . S
C34 O33 1.208 . S
C35 O40 1.247 . S
C35 O41 1.208 1_556 S
C36 O28 1.315 . S
C36 O31 1.279 . S
C37 O38 1.315 . S
C37 O39 1.279 . S
O38 Cd30 2.223 . S
O38 C37 1.315 . S
O39 Cd29 2.240 . S
O39 C37 1.279 . S
O40 Cd30 2.297 . S
O40 C35 1.247 . S
O41 Cd30 2.439 1_554 S
O41 C35 1.208 1_554 S
O42 Cd43 2.223 . S
O42 C50 1.315 . S
Cd43 O42 2.223 . S
Cd43 O46 2.297 . S
Cd43 O47 2.439 . S
Cd43 O53 2.240 . S
Cd44 O45 2.240 . S
Cd44 O52 2.223 . S
Cd44 O54 2.297 . S
Cd44 O55 2.439 . S
O45 Cd44 2.240 . S
O45 C50 1.279 . S
O46 Cd43 2.297 . S
O46 C48 1.247 . S
O47 Cd43 2.439 . S
O47 C48 1.208 . S
C48 O46 1.247 . S
C48 O47 1.208 . S
C49 O54 1.247 . S
C49 O55 1.208 . S
C50 O42 1.315 . S
C50 O45 1.279 . S
C51 O52 1.315 . S
C51 O53 1.279 . S
O52 Cd44 2.223 . S
O52 C51 1.315 . S
O53 Cd43 2.240 . S
O53 C51 1.279 . S
O54 Cd44 2.297 . S
O54 C49 1.247 . S
O55 Cd44 2.439 . S
O55 C49 1.208 . S
O56 Cd57 2.223 . S
O56 C64 1.315 . S
Cd57 O56 2.223 . S
Cd57 O60 2.297 1_556 S
Cd57 O61 2.439 1_556 S
Cd57 O67 2.240 . S
Cd58 O59 2.240 . S
Cd58 O66 2.223 . S
Cd58 O68 2.297 . S
Cd58 O69 2.439 1_556 S
O59 Cd58 2.240 . S
O59 C64 1.279 . S
O60 Cd57 2.297 1_554 S
O60 C62 1.247 . S
O61 Cd57 2.439 1_554 S
O61 C62 1.208 . S
C62 O60 1.247 . S
C62 O61 1.208 . S
C63 O68 1.247 . S
C63 O69 1.208 1_556 S
C64 O56 1.315 . S
C64 O59 1.279 . S
C65 O66 1.315 . S
C65 O67 1.279 . S
O66 Cd58 2.223 . S
O66 C65 1.315 . S
O67 Cd57 2.240 . S
O67 C65 1.279 . S
O68 Cd58 2.297 . S
O68 C63 1.247 . S
O69 Cd58 2.439 1_554 S
O69 C63 1.208 1_554 S
O70 Cd71 2.223 . S
O70 C78 1.315 . S
Cd71 O70 2.223 . S
Cd71 O74 2.297 . S
Cd71 O75 2.439 . S
Cd71 O81 2.240 . S
Cd72 O73 2.240 . S
Cd72 O80 2.223 . S
Cd72 O82 2.297 . S
Cd72 O83 2.439 . S
O73 Cd72 2.240 . S
O73 C78 1.279 . S
O74 Cd71 2.297 . S
O74 C76 1.247 . S
O75 Cd71 2.439 . S
O75 C76 1.208 . S
C76 O74 1.247 . S
C76 O75 1.208 . S
C77 O82 1.247 . S
C77 O83 1.208 . S
C78 O70 1.315 . S
C78 O73 1.279 . S
C79 O80 1.315 . S
C79 O81 1.279 . S
O80 Cd72 2.223 . S
O80 C79 1.315 . S
O81 Cd71 2.240 . S
O81 C79 1.279 . S
O82 Cd72 2.297 . S
O82 C77 1.247 . S
O83 Cd72 2.439 . S
O83 C77 1.208 . S
O84 Cd85 2.223 . S
O84 C92 1.315 . S
Cd85 O84 2.223 . S
Cd85 O88 2.297 1_554 S
Cd85 O89 2.439 1_554 S
Cd85 O95 2.240 . S
Cd86 O87 2.240 . S
Cd86 O94 2.223 . S
Cd86 O96 2.297 . S
Cd86 O97 2.439 1_554 S
O87 Cd86 2.240 . S
O87 C92 1.279 . S
O88 Cd85 2.297 1_556 S
O88 C90 1.247 . S
O89 Cd85 2.439 1_556 S
O89 C90 1.208 . S
C90 O88 1.247 . S
C90 O89 1.208 . S
C91 O96 1.247 . S
C91 O97 1.208 1_554 S
C92 O84 1.315 . S
C92 O87 1.279 . S
C93 O94 1.315 . S
C93 O95 1.279 . S
O94 Cd86 2.223 . S
O94 C93 1.315 . S
O95 Cd85 2.240 . S
O95 C93 1.279 . S
O96 Cd86 2.297 . S
O96 C91 1.247 . S
O97 Cd86 2.439 1_556 S
O97 C91 1.208 1_556 S
O98 Cd99 2.223 . S
O98 C106 1.315 . S
Cd99 O98 2.223 . S
Cd99 O102 2.297 . S
Cd99 O103 2.439 . S
Cd99 O109 2.240 . S
Cd100 O101 2.240 . S
Cd100 O108 2.223 . S
Cd100 O110 2.297 . S
Cd100 O111 2.439 . S
O101 Cd100 2.240 . S
O101 C106 1.279 . S
O102 Cd99 2.297 . S
O102 C104 1.247 . S
O103 Cd99 2.439 . S
O103 C104 1.208 . S
C104 O102 1.247 . S
C104 O103 1.208 . S
C105 O110 1.247 . S
C105 O111 1.208 . S
C106 O98 1.315 . S
C106 O101 1.279 . S
C107 O108 1.315 . S
C107 O109 1.279 . S
O108 Cd100 2.223 . S
O108 C107 1.315 . S
O109 Cd99 2.240 . S
O109 C107 1.279 . S
O110 Cd100 2.297 . S
O110 C105 1.247 . S
O111 Cd100 2.439 . S
O111 C105 1.208 . S
C112 C113 1.369 . S
C112 C114 1.419 . S
C112 H116 0.930 . S
C113 C112 1.369 . S
C113 C122 1.429 . S
C114 C112 1.419 . S
C114 C115 1.363 . S
C114 H117 0.929 . S
C115 C114 1.363 . S
C115 C121 1.428 . S
H116 C112 0.930 . S
H117 C114 0.929 . S
S118 N119 1.613 . S
S118 N120 1.610 . S
N119 S118 1.613 . S
N119 C122 1.350 . S
N120 S118 1.610 . S
N120 C121 1.351 . S
C121 C115 1.428 . S
C121 N120 1.351 . S
C121 C122 1.434 . S
C122 C113 1.429 . S
C122 N119 1.350 . S
C122 C121 1.434 . S
C123 C124 1.369 . S
C123 C125 1.419 . S
C123 H127 0.930 . S
C124 C123 1.369 . S
C124 C133 1.429 . S
C125 C123 1.419 . S
C125 C126 1.363 . S
C125 H128 0.929 . S
C126 C125 1.363 . S
C126 C132 1.428 . S
H127 C123 0.930 . S
H128 C125 0.929 . S
S129 N130 1.613 . S
S129 N131 1.610 . S
N130 S129 1.613 . S
N130 C133 1.350 . S
N131 S129 1.610 . S
N131 C132 1.351 . S
C132 C126 1.428 . S
C132 N131 1.351 . S
C132 C133 1.434 . S
C133 C124 1.429 . S
C133 N130 1.350 . S
C133 C132 1.434 . S
C134 C135 1.369 . S
C134 C136 1.419 . S
C134 H138 0.930 . S
C135 C134 1.369 . S
C135 C144 1.429 . S
C136 C134 1.419 . S
C136 C137 1.363 . S
C136 H139 0.929 . S
C137 C136 1.363 . S
C137 C143 1.428 . S
H138 C134 0.930 . S
H139 C136 0.929 . S
S140 N141 1.613 . S
S140 N142 1.610 . S
N141 S140 1.613 . S
N141 C144 1.350 . S
N142 S140 1.610 . S
N142 C143 1.351 . S
C143 C137 1.428 . S
C143 N142 1.351 . S
C143 C144 1.434 . S
C144 C135 1.429 . S
C144 N141 1.350 . S
C144 C143 1.434 . S
C145 C146 1.369 . S
C145 C147 1.419 . S
C145 H149 0.930 . S
C146 C145 1.369 . S
C146 C155 1.429 . S
C147 C145 1.419 . S
C147 C148 1.363 . S
C147 H150 0.929 . S
C148 C147 1.363 . S
C148 C154 1.428 . S
H149 C145 0.930 . S
H150 C147 0.929 . S
S151 N152 1.613 . S
S151 N153 1.610 . S
N152 S151 1.613 . S
N152 C155 1.350 . S
N153 S151 1.610 . S
N153 C154 1.351 . S
C154 C148 1.428 . S
C154 N153 1.351 . S
C154 C155 1.434 . S
C155 C146 1.429 . S
C155 N152 1.350 . S
C155 C154 1.434 . S
C156 C157 1.369 . S
C156 C158 1.419 . S
C156 H160 0.930 . S
C157 C156 1.369 . S
C157 C166 1.429 . S
C158 C156 1.419 . S
C158 C159 1.363 . S
C158 H161 0.929 . S
C159 C158 1.363 . S
C159 C165 1.428 . S
H160 C156 0.930 . S
H161 C158 0.929 . S
S162 N163 1.613 . S
S162 N164 1.610 . S
N163 S162 1.613 . S
N163 C166 1.350 . S
N164 S162 1.610 . S
N164 C165 1.351 . S
C165 C159 1.428 . S
C165 N164 1.351 . S
C165 C166 1.434 . S
C166 C157 1.429 . S
C166 N163 1.350 . S
C166 C165 1.434 . S
C167 C168 1.369 . S
C167 C169 1.419 . S
C167 H171 0.930 . S
C168 C167 1.369 . S
C168 C177 1.429 . S
C169 C167 1.419 . S
C169 C170 1.363 . S
C169 H172 0.929 . S
C170 C169 1.363 . S
C170 C176 1.428 . S
H171 C167 0.930 . S
H172 C169 0.929 . S
S173 N174 1.613 . S
S173 N175 1.610 . S
N174 S173 1.613 . S
N174 C177 1.350 . S
N175 S173 1.610 . S
N175 C176 1.351 . S
C176 C170 1.428 . S
C176 N175 1.351 . S
C176 C177 1.434 . S
C177 C168 1.429 . S
C177 N174 1.350 . S
C177 C176 1.434 . S
C178 C179 1.369 . S
C178 C180 1.419 . S
C178 H182 0.930 . S
C179 C178 1.369 . S
C179 C188 1.429 . S
C180 C178 1.419 . S
C180 C181 1.363 . S
C180 H183 0.929 . S
C181 C180 1.363 . S
C181 C187 1.428 . S
H182 C178 0.930 . S
H183 C180 0.929 . S
S184 N185 1.613 . S
S184 N186 1.610 . S
N185 S184 1.613 . S
N185 C188 1.350 . S
N186 S184 1.610 . S
N186 C187 1.351 . S
C187 C181 1.428 . S
C187 N186 1.351 . S
C187 C188 1.434 . S
C188 C179 1.429 . S
C188 N185 1.350 . S
C188 C187 1.434 . S
C189 C190 1.369 . S
C189 C191 1.419 . S
C189 H193 0.930 . S
C190 C189 1.369 . S
C190 C199 1.429 . S
C191 C189 1.419 . S
C191 C192 1.363 . S
C191 H194 0.929 . S
C192 C191 1.363 . S
C192 C198 1.428 . S
H193 C189 0.930 . S
H194 C191 0.929 . S
S195 N196 1.613 . S
S195 N197 1.610 . S
N196 S195 1.613 . S
N196 C199 1.350 . S
N197 S195 1.610 . S
N197 C198 1.351 . S
C198 C192 1.428 . S
C198 N197 1.351 . S
C198 C199 1.434 . S
C199 C190 1.429 . S
C199 N196 1.350 . S
C199 C198 1.434 . S
C200 C201 1.369 1_655 S
C200 C202 1.419 . S
C200 H204 0.930 . S
C201 C200 1.369 1_455 S
C201 C210 1.429 . S
C202 C200 1.419 . S
C202 C203 1.363 . S
C202 H205 0.929 . S
C203 C202 1.363 . S
C203 C209 1.428 1_655 S
H204 C200 0.930 . S
H205 C202 0.929 . S
S206 N207 1.613 . S
S206 N208 1.610 . S
N207 S206 1.613 . S
N207 C210 1.350 . S
N208 S206 1.610 . S
N208 C209 1.351 . S
C209 C203 1.428 1_455 S
C209 N208 1.351 . S
C209 C210 1.434 . S
C210 C201 1.429 . S
C210 N207 1.350 . S
C210 C209 1.434 . S
C211 C212 1.369 . S
C211 C213 1.419 . S
C211 H215 0.930 . S
C212 C211 1.369 . S
C212 C221 1.429 . S
C213 C211 1.419 . S
C213 C214 1.363 . S
C213 H216 0.929 . S
C214 C213 1.363 . S
C214 C220 1.428 . S
H215 C211 0.930 . S
H216 C213 0.929 . S
S217 N218 1.613 . S
S217 N219 1.610 . S
N218 S217 1.613 . S
N218 C221 1.350 . S
N219 S217 1.610 . S
N219 C220 1.351 . S
C220 C214 1.428 . S
C220 N219 1.351 . S
C220 C221 1.434 . S
C221 C212 1.429 . S
C221 N218 1.350 . S
C221 C220 1.434 . S
C222 C223 1.369 . S
C222 C224 1.419 1_455 S
C222 H226 0.930 . S
C223 C222 1.369 . S
C223 C232 1.429 . S
C224 C222 1.419 1_655 S
C224 C225 1.363 . S
C224 H227 0.929 . S
C225 C224 1.363 . S
C225 C231 1.428 . S
H226 C222 0.930 . S
H227 C224 0.929 . S
S228 N229 1.613 1_655 S
S228 N230 1.610 . S
N229 S228 1.613 1_455 S
N229 C232 1.350 . S
N230 S228 1.610 . S
N230 C231 1.351 . S
C231 C225 1.428 . S
C231 N230 1.351 . S
C231 C232 1.434 1_655 S
C232 C223 1.429 . S
C232 N229 1.350 . S
C232 C231 1.434 1_455 S
C233 C234 1.369 . S
C233 C235 1.419 . S
C233 H237 0.930 . S
C234 C233 1.369 . S
C234 C243 1.429 . S
C235 C233 1.419 . S
C235 C236 1.363 . S
C235 H238 0.929 . S
C236 C235 1.363 . S
C236 C242 1.428 . S
H237 C233 0.930 . S
H238 C235 0.929 . S
S239 N240 1.613 . S
S239 N241 1.610 . S
N240 S239 1.613 . S
N240 C243 1.350 . S
N241 S239 1.610 . S
N241 C242 1.351 . S
C242 C236 1.428 . S
C242 N241 1.351 . S
C242 C243 1.434 . S
C243 C234 1.429 . S
C243 N240 1.350 . S
C243 C242 1.434 . S
C244 C245 1.369 1_556 S
C244 C246 1.419 1_445 S
C244 H248 0.930 . S
C245 C244 1.369 1_554 S
C245 C254 1.429 . S
C246 C244 1.419 1_665 S
C246 C247 1.363 1_556 S
C246 H249 0.929 . S
C247 C246 1.363 1_554 S
C247 C253 1.428 . S
H248 C244 0.930 . S
H249 C246 0.929 . S
S250 N251 1.613 1_565 S
S250 N252 1.610 1_455 S
N251 S250 1.613 1_545 S
N251 C254 1.350 . S
N252 S250 1.610 1_655 S
N252 C253 1.351 . S
C253 C247 1.428 . S
C253 N252 1.351 . S
C253 C254 1.434 1_665 S
C254 C245 1.429 . S
C254 N251 1.350 . S
C254 C253 1.434 1_445 S
C255 C256 1.369 . S
C255 C257 1.419 . S
C255 H259 0.930 . S
C256 C255 1.369 . S
C256 C265 1.429 . S
C257 C255 1.419 . S
C257 C258 1.363 . S
C257 H260 0.929 . S
C258 C257 1.363 . S
C258 C264 1.428 . S
H259 C255 0.930 . S
H260 C257 0.929 . S
S261 N262 1.613 . S
S261 N263 1.610 . S
N262 S261 1.613 . S
N262 C265 1.350 . S
N263 S261 1.610 . S
N263 C264 1.351 . S
C264 C258 1.428 . S
C264 N263 1.351 . S
C264 C265 1.434 . S
C265 C256 1.429 . S
C265 N262 1.350 . S
C265 C264 1.434 . S
C266 C267 1.369 1_556 S
C266 C268 1.419 . S
C266 H270 0.930 . S
C267 C266 1.369 1_554 S
C267 C276 1.429 . S
C268 C266 1.419 . S
C268 C269 1.362 1_556 S
C268 H271 0.929 . S
C269 C268 1.362 1_554 S
C269 C275 1.429 . S
H270 C266 0.930 . S
H271 C268 0.929 . S
S272 N273 1.613 . S
S272 N274 1.610 . S
N273 S272 1.613 . S
N273 C276 1.350 . S
N274 S272 1.610 . S
N274 C275 1.351 . S
C275 C269 1.429 . S
C275 N274 1.351 . S
C275 C276 1.434 . S
C276 C267 1.429 . S
C276 N273 1.350 . S
C276 C275 1.434 . S
C277 C278 1.369 . S
C277 C279 1.419 1_565 S
C277 H281 0.930 . S
C278 C277 1.369 . S
C278 C287 1.429 1_455 S
C279 C277 1.419 1_545 S
C279 C280 1.363 1_455 S
C279 H282 0.929 . S
C280 C279 1.363 1_655 S
C280 C286 1.440 . S
H281 C277 0.930 . S
H282 C279 0.929 . S
S283 N284 1.613 . S
S283 N285 1.610 . S
N284 S283 1.613 . S
N284 C287 1.350 . S
N285 S283 1.610 . S
N285 C286 1.349 1_565 S
C286 C280 1.440 . S
C286 N285 1.349 1_545 S
C286 C287 1.423 1_545 S
C287 C278 1.429 1_655 S
C287 N284 1.350 . S
C287 C286 1.423 1_565 S
C113 C22 1.612 . S
C115 C6 1.616 . S
C124 C8 1.611 . S
C126 C20 1.617 . S
C135 C50 1.613 . S
C137 C34 1.616 . S
C146 C36 1.613 . S
C148 C48 1.616 . S
C157 C62 1.616 . S
C159 C78 1.613 . S
C168 C76 1.616 . S
C170 C64 1.613 . S
C179 C90 1.616 . S
C181 C106 1.613 . S
C190 C92 1.611 . S
C192 C104 1.617 . S
C201 C9 0.804 . S
C203 C51 0.817 . S
C212 C23 0.802 . S
C214 C37 0.814 . S
C223 C107 0.802 . S
C225 C65 0.807 . S
C234 C93 0.802 . S
C236 C79 0.813 . S
C245 C7 1.502 . S
C247 C63 1.510 1_554 S
C256 C77 1.502 . S
C258 C21 1.510 . S
C267 C91 1.501 . S
C269 C35 1.510 1_554 S
C278 C105 1.504 . S
C280 C49 1.508 . S
