# Generated by pormake.
# Topology uni, (4)-cn, num edge types: 1
# Building blocks:
#     Node 0, Type 0, BuildingBlock: AZAVOO_clean_sbu_0, # of connection points: 4
#     Node 1, Type 0, BuildingBlock: AZAVOO_clean_sbu_0, # of connection points: 4
#     Node 2, Type 0, BuildingBlock: AZAVOO_clean_sbu_0, # of connection points: 4
#     Node 3, Type 0, BuildingBlock: AZAVOO_clean_sbu_0, # of connection points: 4
#     Node 4, Type 0, BuildingBlock: AZAVOO_clean_sbu_0, # of connection points: 4
#     Node 5, Type 0, BuildingBlock: AZAVOO_clean_sbu_0, # of connection points: 4
#     Edge 6, Type (0, 0), BuildingBlock: MIFKUJ_clean_linker_0, # of connection points: 2
#     Edge 7, Type (0, 0), BuildingBlock: MIFKUJ_clean_linker_0, # of connection points: 2
#     Edge 8, Type (0, 0), BuildingBlock: MIFKUJ_clean_linker_0, # of connection points: 2
#     Edge 9, Type (0, 0), BuildingBlock: MIFKUJ_clean_linker_0, # of connection points: 2
#     Edge 10, Type (0, 0), BuildingBlock: MIFKUJ_clean_linker_0, # of connection points: 2
#     Edge 11, Type (0, 0), BuildingBlock: MIFKUJ_clean_linker_0, # of connection points: 2
#     Edge 12, Type (0, 0), BuildingBlock: MIFKUJ_clean_linker_0, # of connection points: 2
#     Edge 13, Type (0, 0), BuildingBlock: MIFKUJ_clean_linker_0, # of connection points: 2
#     Edge 14, Type (0, 0), BuildingBlock: MIFKUJ_clean_linker_0, # of connection points: 2
#     Edge 15, Type (0, 0), BuildingBlock: MIFKUJ_clean_linker_0, # of connection points: 2
#     Edge 16, Type (0, 0), BuildingBlock: MIFKUJ_clean_linker_0, # of connection points: 2
#     Edge 17, Type (0, 0), BuildingBlock: MIFKUJ_clean_linker_0, # of connection points: 2
# Relax obj value: 0.055
# Max RMSD: 0.097
# Mean RMSD: 0.097
data_MOF--net-uni--node1-AZAVOO_clean_sbu_0--edge1-MIFKUJ_clean_linker_0
_symmetry_space_group_name_H-M    P1
_symmetry_Int_Tables_number       1
_symmetry_cell_setting            triclinic
loop_
_symmetry_equiv_pos_as_xyz
'x, y, z'
_cell_length_a     51.342479
_cell_length_b     51.346176
_cell_length_c     28.418419
_cell_angle_alpha  90.013946
_cell_angle_beta   90.011363
_cell_angle_gamma 120.00017
loop_
_atom_site_label
_atom_site_type_symbol
_atom_site_fract_x
_atom_site_fract_y
_atom_site_fract_z
_atom_type_partial_charge
Mg0 Mg 0.65144 0.03102 0.01579 0.0
O1 O 0.62491 0.04047 0.07139 0.0
O2 O 0.61714 0.07721 0.04631 0.0
Mg3 Mg 0.63915 0.09152 0.97388 0.0
C4 C 0.61415 0.05789 0.07725 0.0
C5 C 0.63595 0.98212 0.08985 0.0
O6 O 0.60992 0.98021 0.08121 0.0
O7 O 0.69443 0.07365 0.03677 0.0
O8 O 0.68575 0.10906 0.00763 0.0
O9 O 0.60902 0.99818 0.98022 0.0
O10 O 0.6341 0.04663 0.96315 0.0
C11 C 0.7027 0.10119 0.02884 0.0
C12 C 0.61075 0.02052 0.95654 0.0
O13 O 0.65922 0.00215 0.06873 0.0
Mg14 Mg 0.64063 0.66221 0.1898 0.0
O15 O 0.61045 0.63371 0.25068 0.0
O16 O 0.56325 0.62175 0.23344 0.0
Mg17 Mg 0.56293 0.64026 0.16057 0.0
C18 C 0.58254 0.62107 0.26098 0.0
C19 C 0.70519 0.68025 0.21384 0.0
O20 O 0.70398 0.67721 0.16784 0.0
O21 O 0.63646 0.7025 0.21228 0.0
O22 O 0.58946 0.6884 0.18995 0.0
O23 O 0.63446 0.62108 0.15397 0.0
O24 O 0.60476 0.6402 0.14287 0.0
C25 C 0.61476 0.70772 0.20758 0.0
C26 C 0.61077 0.61909 0.13433 0.0
O27 O 0.68196 0.6766 0.23547 0.0
Mg28 Mg 0.00192 0.64376 0.35425 0.0
O29 O 0.99281 0.61053 0.41428 0.0
O30 O 0.9545 0.56571 0.39324 0.0
Mg31 Mg 0.94095 0.56969 0.31807 0.0
C32 C 0.97437 0.58288 0.42292 0.0
C33 C 0.05154 0.68258 0.42565 0.0
O34 O 0.05564 0.65947 0.42006 0.0
O35 O 0.95926 0.64521 0.37153 0.0
O36 O 0.92378 0.60087 0.34349 0.0
O37 O 0.03481 0.63265 0.32223 0.0
O38 O 0.98627 0.60846 0.30578 0.0
C39 C 0.93177 0.6264 0.36223 0.0
C40 C 0.01234 0.61093 0.30032 0.0
O41 O 0.03019 0.68294 0.40359 0.0
Mg42 Mg 0.37251 0.00634 0.51579 0.0
O43 O 0.40058 0.9981 0.57003 0.0
O44 O 0.40683 0.9603 0.5451 0.0
Mg45 Mg 0.38428 0.94571 0.47305 0.0
C46 C 0.41088 0.98025 0.57557 0.0
C47 C 0.34255 0.03771 0.57421 0.0
O48 O 0.31928 0.02213 0.5466 0.0
O49 O 0.33003 0.96365 0.53832 0.0
O50 O 0.33806 0.9281 0.50797 0.0
O51 O 0.41407 0.03934 0.47856 0.0
O52 O 0.38935 0.99065 0.46259 0.0
C53 C 0.32153 0.93609 0.53012 0.0
C54 C 0.41239 0.01688 0.45526 0.0
O55 O 0.36567 0.03494 0.56996 0.0
Mg56 Mg 0.39145 0.37893 0.69327 0.0
O57 O 0.42565 0.40365 0.75207 0.0
O58 O 0.46967 0.40831 0.7311 0.0
Mg59 Mg 0.46355 0.38637 0.65898 0.0
C60 C 0.45332 0.41266 0.76026 0.0
C61 C 0.32796 0.35068 0.74428 0.0
O62 O 0.3212 0.32756 0.71681 0.0
O63 O 0.38682 0.33414 0.71482 0.0
O64 O 0.4309 0.33996 0.69069 0.0
O65 O 0.40537 0.42248 0.65791 0.0
O66 O 0.42611 0.39457 0.64349 0.0
C67 C 0.40494 0.32416 0.70934 0.0
C68 C 0.4257 0.41915 0.63627 0.0
O69 O 0.3543 0.37341 0.74287 0.0
Mg70 Mg 0.02493 0.38978 0.85342 0.0
O71 O 0.03429 0.42277 0.91405 0.0
O72 O 0.07183 0.46807 0.89349 0.0
Mg73 Mg 0.08613 0.46408 0.81894 0.0
C74 C 0.05217 0.4505 0.92304 0.0
C75 C 0.97513 0.3514 0.92431 0.0
O76 O 0.9714 0.37469 0.91825 0.0
O77 O 0.06722 0.38783 0.87016 0.0
O78 O 0.10338 0.43313 0.84611 0.0
O79 O 0.99247 0.40155 0.8224 0.0
O80 O 0.04093 0.42523 0.80516 0.0
C81 C 0.09489 0.40712 0.86346 0.0
C82 C 0.01496 0.42311 0.80028 0.0
O83 O 0.99639 0.35064 0.9026 0.0
H84 H 0.59615 0.01449 0.1453 0.0
H85 H 0.56524 0.00805 0.21445 0.0
H86 H 0.56216 0.08786 0.17712 0.0
H87 H 0.59302 0.09454 0.10769 0.0
H88 H 0.57235 0.08353 0.27446 0.0
H89 H 0.50455 0.02252 0.1496 0.0
H90 H 0.48681 0.98331 0.08827 0.0
H91 H 0.47584 0.91775 0.19196 0.0
H92 H 0.49392 0.95669 0.25382 0.0
H93 H 0.44883 0.06762 0.4062 0.0
H94 H 0.4861 0.07475 0.34676 0.0
H95 H 0.46797 0.9841 0.37029 0.0
H96 H 0.42954 0.97647 0.42796 0.0
H97 H 0.471 0.9927 0.28274 0.0
H98 H 0.5352 0.05035 0.40884 0.0
H99 H 0.55481 0.08827 0.47218 0.0
H100 H 0.57527 0.15817 0.37134 0.0
H101 H 0.55541 0.12064 0.30744 0.0
C102 C 0.58909 0.03082 0.15184 0.0
C103 C 0.59688 0.05492 0.12065 0.0
C104 C 0.5714 0.02705 0.19138 0.0
C105 C 0.56126 0.04735 0.20059 0.0
C106 C 0.56979 0.07196 0.17053 0.0
C107 C 0.5873 0.07564 0.13076 0.0
C108 C 0.54069 0.04223 0.24043 0.0
C109 C 0.55007 0.06384 0.27626 0.0
C110 C 0.51209 0.01603 0.24332 0.0
C111 C 0.50086 0.99256 0.20623 0.0
C112 C 0.49855 -0.00022 0.15926 0.0
C113 C 0.48841 0.97761 0.12441 0.0
C114 C 0.48028 0.94808 0.13619 0.0
C115 C 0.48218 0.94064 0.18287 0.0
C116 C 0.49235 0.96275 0.21784 0.0
C117 C 0.45297 0.0493 0.39891 0.0
C118 C 0.4362 0.02145 0.42161 0.0
C119 C 0.47446 0.05345 0.36512 0.0
C120 C 0.48033 0.03015 0.35444 0.0
C121 C 0.46389 0.00244 0.37777 0.0
C122 C 0.44188 0.99807 0.41078 0.0
C123 C 0.50242 0.03415 0.31723 0.0
C124 C 0.49335 0.01233 0.28162 0.0
C125 C 0.53152 0.05995 0.31506 0.0
C126 C 0.54358 0.08263 0.35339 0.0
C127 C 0.54369 0.07379 0.4002 0.0
C128 C 0.55488 0.09522 0.4362 0.0
C129 C 0.56622 0.1256 0.4258 0.0
C130 C 0.56646 0.13463 0.37935 0.0
C131 C 0.55527 0.11329 0.34322 0.0
H132 H 0.57487 0.14215 0.45372 0.0
H133 H 0.47244 0.93094 0.10916 0.0
H134 H 0.60767 0.59356 0.31066 0.0
H135 H 0.5872 0.56196 0.38096 0.0
H136 H 0.51332 0.5794 0.38252 0.0
H137 H 0.53312 0.6103 0.31167 0.0
H138 H 0.54455 0.58284 0.47557 0.0
H139 H 0.49681 0.51981 0.33736 0.0
H140 H 0.49843 0.49838 0.26046 0.0
H141 H 0.54832 0.46027 0.3218 0.0
H142 H 0.54741 0.48194 0.39894 0.0
H143 H 0.42693 0.47066 0.60917 0.0
H144 H 0.46016 0.5076 0.55181 0.0
H145 H 0.50741 0.45846 0.53403 0.0
H146 H 0.47335 0.42068 0.59006 0.0
H147 H 0.49673 0.47253 0.45246 0.0
H148 H 0.53989 0.52818 0.5916 0.0
H149 H 0.5414 0.54986 0.6696 0.0
H150 H 0.50568 0.60248 0.61054 0.0
H151 H 0.50357 0.5808 0.53219 0.0
C152 C 0.58725 0.59092 0.32632 0.0
C153 C 0.57186 0.60422 0.30558 0.0
C154 C 0.57562 0.5729 0.36637 0.0
C155 C 0.54881 0.56845 0.38671 0.0
C156 C 0.53411 0.58271 0.36729 0.0
C157 C 0.54534 0.60017 0.32673 0.0
C158 C 0.53485 0.54732 0.42631 0.0
C159 C 0.53393 0.5587 0.47072 0.0
C160 C 0.52202 0.51598 0.42 0.0
C161 C 0.52237 0.50281 0.37373 0.0
C162 C 0.50839 0.50713 0.33433 0.0
C163 C 0.50912 0.49488 0.29073 0.0
C164 C 0.52354 0.47805 0.28622 0.0
C165 C 0.5372 0.47337 0.32533 0.0
C166 C 0.53658 0.48562 0.36899 0.0
C167 C 0.44458 0.46784 0.59346 0.0
C168 C 0.44754 0.44275 0.60438 0.0
C169 C 0.46374 0.48913 0.56083 0.0
C170 C 0.48666 0.48613 0.53902 0.0
C171 C 0.48998 0.46134 0.55046 0.0
C172 C 0.47056 0.43981 0.58273 0.0
C173 C 0.50577 0.50785 0.50218 0.0
C174 C 0.50768 0.49663 0.458 0.0
C175 C 0.52 0.53938 0.50905 0.0
C176 C 0.52137 0.55268 0.55604 0.0
C177 C 0.53216 0.54422 0.59528 0.0
C178 C 0.53316 0.55653 0.63957 0.0
C179 C 0.52358 0.57748 0.64507 0.0
C180 C 0.51308 0.58623 0.60623 0.0
C181 C 0.51202 0.57397 0.56185 0.0
H182 H 0.52436 0.58697 0.67941 0.0
H183 H 0.52405 0.46854 0.25247 0.0
H184 H 0.96202 0.41993 0.77631 0.0
H185 H 0.95423 0.45074 0.71872 0.0
H186 H 0.04998 0.504 0.69696 0.0
H187 H 0.05803 0.47302 0.75399 0.0
H188 H 0.01765 0.53776 0.70148 0.0
H189 H 0.01501 0.45253 0.62297 0.0
H190 H 0.99693 0.39849 0.61203 0.0
H191 H 0.90665 0.38142 0.59436 0.0
H192 H 0.92417 0.43534 0.6059 0.0
H193 H 0.02416 0.60264 0.47831 0.0
H194 H 0.02972 0.57858 0.54862 0.0
H195 H 0.93589 0.51042 0.54038 0.0
H196 H 0.93068 0.53358 0.46856 0.0
H197 H 0.96585 0.48449 0.5549 0.0
H198 H 0.96683 0.56873 0.62798 0.0
H199 H 0.98294 0.6222 0.64071 0.0
H200 H 0.07261 0.64103 0.67135 0.0
H201 H 0.05714 0.58773 0.6582 0.0
C202 C 0.98149 0.43844 0.7598 0.0
C203 C 0.01066 0.44392 0.76958 0.0
C204 C 0.97697 0.45601 0.72694 0.0
C205 C 0.00153 0.47949 0.70354 0.0
C206 C 0.03077 0.48601 0.71485 0.0
C207 C 0.0353 0.46822 0.74736 0.0
C208 C 0.99652 0.49554 0.66452 0.0
C209 C 0.00655 0.52631 0.66919 0.0
C210 C 0.98134 0.48027 0.6231 0.0
C211 C 0.97085 0.4479 0.61581 0.0
C212 C 0.99127 0.43721 0.61716 0.0
C213 C 0.98113 0.40661 0.61078 0.0
C214 C 0.95065 0.38652 0.60265 0.0
C215 C 0.93025 0.397 0.60074 0.0
C216 C 0.94027 0.42758 0.60717 0.0
C217 C 0.00464 0.58271 0.49181 0.0
C218 C 0.977 0.56993 0.46788 0.0
C219 C 0.00779 0.56905 0.53225 0.0
C220 C 0.98313 0.54284 0.55036 0.0
C221 C 0.95529 0.53057 0.52713 0.0
C222 C 0.9523 0.54384 0.48612 0.0
C223 C 0.98682 0.52703 0.59147 0.0
C224 C 0.97667 0.49616 0.5872 0.0
C225 C 0.00151 0.54221 0.63346 0.0
C226 C 0.01086 0.57426 0.64171 0.0
C227 C 0.99003 0.58431 0.63713 0.0
C228 C 0.99904 0.61458 0.64447 0.0
C229 C 0.02879 0.63501 0.65672 0.0
C230 C 0.04958 0.62518 0.66181 0.0
C231 C 0.04069 0.59493 0.65449 0.0
H232 H 0.03573 0.65844 0.66236 0.0
H233 H 0.94284 0.36284 0.5977 0.0
H234 H 0.5638 0.96722 0.92645 0.0
H235 H 0.52679 0.95938 0.86574 0.0
H236 H 0.56639 0.05529 0.84969 0.0
H237 H 0.60393 0.06341 0.90958 0.0
H238 H 0.49977 0.01986 0.85235 0.0
H239 H 0.58616 0.02458 0.77439 0.0
H240 H 0.62421 0.0093 0.76235 0.0
H241 H 0.55433 0.91839 0.73677 0.0
H242 H 0.51584 0.93307 0.74936 0.0
H243 H 0.44097 0.0295 0.63211 0.0
H244 H 0.47195 0.03498 0.70066 0.0
H245 H 0.45082 0.94278 0.68532 0.0
H246 H 0.42095 0.93765 0.61534 0.0
H247 H 0.50667 0.97472 0.70177 0.0
H248 H 0.41992 0.96786 0.77513 0.0
H249 H 0.38005 0.98034 0.78951 0.0
H250 H 0.44658 0.07053 0.82718 0.0
H251 H 0.4869 0.05871 0.81242 0.0
C252 C 0.56449 0.98669 0.91039 0.0
C253 C 0.58687 0.01597 0.92284 0.0
C254 C 0.54333 0.98213 0.87573 0.0
C255 C 0.544 0.00677 0.85329 0.0
C256 C 0.56552 0.03602 0.86682 0.0
C257 C 0.58698 0.0406 0.90101 0.0
C258 C 0.52337 0.00199 0.81374 0.0
C259 C 0.50135 0.01027 0.81918 0.0
C260 C 0.52501 0.98864 0.7712 0.0
C261 C 0.54813 0.97985 0.76333 0.0
C262 C 0.57891 0.00128 0.76662 0.0
C263 C 0.60055 0.99274 0.75961 0.0
C264 C 0.59169 0.96287 0.74894 0.0
C265 C 0.56116 0.9415 0.74512 0.0
C266 C 0.53942 0.94992 0.75216 0.0
C267 C 0.44278 0.01034 0.64353 0.0
C268 C 0.42852 0.98314 0.61835 0.0
C269 C 0.46036 0.01343 0.68295 0.0
C270 C 0.46338 0.98915 0.69878 0.0
C271 C 0.44887 0.96186 0.67388 0.0
C272 C 0.43177 0.95894 0.6339 0.0
C273 C 0.48273 0.99259 0.73995 0.0
C274 C 0.5047 0.98412 0.73489 0.0
C275 C 0.48064 0.00529 0.78311 0.0
C276 C 0.45645 0.01246 0.79225 0.0
C277 C 0.42607 0.99042 0.78616 0.0
C278 C 0.40338 0.99737 0.79443 0.0
C279 C 0.41078 0.02623 0.80913 0.0
C280 C 0.44088 0.04819 0.81574 0.0
C281 C 0.46366 0.04137 0.80748 0.0
H282 H 0.39318 0.03157 0.8155 0.0
H283 H 0.60848 0.9563 0.74351 0.0
H284 H 0.55308 0.59991 0.1047 0.0
H285 H 0.52404 0.56071 0.04662 0.0
H286 H 0.59744 0.5432 0.03156 0.0
H287 H 0.62635 0.58179 0.09048 0.0
H288 H 0.57345 0.55653 0.94456 0.0
H289 H 0.54347 0.4934 0.08252 0.0
H290 H 0.52305 0.47892 0.16276 0.0
H291 H 0.43935 0.4703 0.11721 0.0
H292 H 0.45948 0.48527 0.03678 0.0
H293 H 0.51049 0.43279 0.79246 0.0
H294 H 0.53469 0.46438 0.86094 0.0
H295 H 0.45255 0.46376 0.89518 0.0
H296 H 0.42787 0.43166 0.82703 0.0
H297 H 0.47988 0.4596 0.97399 0.0
H298 H 0.50764 0.52319 0.83922 0.0
H299 H 0.52663 0.54038 0.75894 0.0
H300 H 0.61236 0.55129 0.79778 0.0
H301 H 0.59374 0.53378 0.87822 0.0
C302 C 0.56291 0.5875 0.08953 0.0
C303 C 0.59202 0.59397 0.10217 0.0
C304 C 0.54627 0.56508 0.05643 0.0
C305 C 0.55868 0.54918 0.03496 0.0
C306 C 0.58753 0.55528 0.04791 0.0
C307 C 0.60393 0.57724 0.08165 0.0
C308 C 0.54227 0.52739 0.99701 0.0
C309 C 0.55324 0.53512 0.95098 0.0
C310 C 0.51537 0.50006 0.00551 0.0
C311 C 0.50311 0.4908 0.05373 0.0
C312 C 0.52082 0.48872 0.0897 0.0
C313 C 0.50927 0.48037 0.13521 0.0
C314 C 0.47995 0.47378 0.14513 0.0
C315 C 0.46208 0.47546 0.1095 0.0
C316 C 0.47354 0.48387 0.06393 0.0
C317 C 0.49743 0.43914 0.81466 0.0
C318 C 0.4673 0.42991 0.80387 0.0
C319 C 0.51134 0.45726 0.85379 0.0
C320 C 0.49557 0.46683 0.88271 0.0
C321 C 0.46516 0.4567 0.87324 0.0
C322 C 0.45114 0.43843 0.83415 0.0
C323 C 0.51131 0.48851 0.92139 0.0
C324 C 0.50015 0.48092 0.96749 0.0
C325 C 0.53785 0.51629 0.91294 0.0
C326 C 0.54919 0.52687 0.86462 0.0
C327 C 0.53047 0.52902 0.83054 0.0
C328 C 0.54118 0.53886 0.78502 0.0
C329 C 0.57066 0.54684 0.77321 0.0
C330 C 0.58952 0.54506 0.80696 0.0
C331 C 0.5789 0.5352 0.85254 0.0
H332 H 0.57893 0.55447 0.73796 0.0
H333 H 0.47105 0.4673 0.18039 0.0
H334 H 0.0926 0.50376 0.96432 0.0
H335 H 0.08568 0.52604 0.03595 0.0
H336 H 0.99767 0.44842 0.05504 0.0
H337 H 0.00447 0.42573 0.98377 0.0
H338 H -0.00055 0.50469 0.05679 0.0
H339 H 0.04928 0.45661 0.12789 0.0
H340 H 0.08959 0.44415 0.13657 0.0
H341 H 0.15415 0.53742 0.15863 0.0
H342 H 0.11428 0.5505 0.14939 0.0
H343 H 0.96974 0.55535 0.26835 0.0
H344 H 0.97654 0.52351 0.21192 0.0
H345 H 0.07128 0.58857 0.20363 0.0
H346 H 0.06479 0.61988 0.26191 0.0
H347 H 0.06451 0.53516 0.19865 0.0
H348 H 0.01855 0.58494 0.1206 0.0
H349 H 0.98055 0.60024 0.108 0.0
H350 H 0.91173 0.50768 0.09392 0.0
H351 H 0.94928 0.49181 0.10704 0.0
C352 C 0.07189 0.49127 0.98399 0.0
C353 C 0.04904 0.46302 0.96823 0.0
C354 C 0.06805 0.50398 0.02501 0.0
C355 C 0.04122 0.4888 0.05075 0.0
C356 C 0.01856 0.46041 0.03563 0.0
C357 C 0.02254 0.44748 0.99497 0.0
C358 C 0.03607 0.50351 0.09161 0.0
C359 C 0.01328 0.51087 0.08824 0.0
C360 C 0.05481 0.51238 0.13179 0.0
C361 C 0.07882 0.50456 0.13753 0.0
C362 C 0.07211 0.4745 0.13418 0.0
C363 C 0.09488 0.46732 0.13929 0.0
C364 C 0.12443 0.48999 0.14804 0.0
C365 C 0.13126 0.51988 0.15181 0.0
C366 C 0.10858 0.52719 0.1467 0.0
C367 C 0.99206 0.56277 0.25496 0.0
C368 C 0.01666 0.59029 0.26928 0.0
C369 C 0.99592 0.54457 0.22246 0.0
C370 C 0.0243 0.55396 0.20256 0.0
C371 C 0.04913 0.58087 0.21829 0.0
C372 C 0.04538 0.59879 0.25154 0.0
C373 C 0.02787 0.53651 0.16388 0.0
C374 C 0.05044 0.52874 0.16748 0.0
C375 C 0.00926 0.5277 0.12338 0.0
C376 C 0.98666 0.53718 0.11531 0.0
C377 C 0.99527 0.56785 0.11514 0.0
C378 C 0.97383 0.57662 0.10786 0.0
C379 C 0.94373 0.55494 0.10031 0.0
C380 C 0.93504 0.52444 0.09987 0.0
C381 C 0.95639 0.51554 0.10719 0.0
H382 H 0.92716 0.56178 0.09467 0.0
H383 H 0.14202 0.48438 0.15199 0.0
H384 H 0.57294 0.7232 0.23162 0.0
H385 H 0.57932 0.77363 0.23075 0.0
H386 H 0.67394 0.81137 0.20198 0.0
H387 H 0.66791 0.76099 0.20464 0.0
H388 H 0.66438 0.85041 0.2528 0.0
H389 H 0.62446 0.79184 0.11207 0.0
H390 H 0.58946 0.7474 0.06553 0.0
H391 H 0.51555 0.75846 0.10952 0.0
H392 H 0.5501 0.80274 0.15689 0.0
H393 H 0.68388 0.97333 0.10455 0.0
H394 H 0.68281 0.93014 0.14314 0.0
H395 H 0.58966 0.89537 0.17967 0.0
H396 H 0.59045 0.93819 0.1412 0.0
H397 H 0.59886 0.85573 0.12931 0.0
H398 H 0.64229 0.91915 0.26441 0.0
H399 H 0.67949 0.96445 0.30701 0.0
H400 H 0.74952 0.94602 0.26829 0.0
H401 H 0.7128 0.90082 0.22486 0.0
C402 C 0.59525 0.74232 0.22637 0.0
C403 C 0.61983 0.73816 0.2174 0.0
C404 C 0.59887 0.77111 0.22582 0.0
C405 C 0.62694 0.79614 0.21495 0.0
C406 C 0.65205 0.79234 0.21013 0.0
C407 C 0.64855 0.76353 0.21159 0.0
C408 C 0.62916 0.82525 0.20254 0.0
C409 C 0.6502 0.85167 0.22565 0.0
C410 C 0.6106 0.82687 0.16715 0.0
C411 C 0.58981 0.80039 0.1384 0.0
C412 C 0.60072 0.78467 0.11206 0.0
C413 C 0.58096 0.75953 0.08551 0.0
C414 C 0.55028 0.75006 0.08467 0.0
C415 C 0.53931 0.76578 0.11028 0.0
C416 C 0.55896 0.79091 0.13696 0.0
C417 C 0.66336 0.9568 0.12164 0.0
C418 C 0.63713 0.95894 0.11921 0.0
C419 C 0.66283 0.93221 0.14388 0.0
C420 C 0.63613 0.90955 0.16418 0.0
C421 C 0.61046 0.91258 0.1641 0.0
C422 C 0.61097 0.93707 0.14198 0.0
C423 C 0.6337 0.88094 0.18007 0.0
C424 C 0.61278 0.85453 0.15701 0.0
C425 C 0.6527 0.87959 0.21487 0.0
C426 C 0.67482 0.90674 0.241 0.0
C427 C 0.66566 0.9249 0.26461 0.0
C428 C 0.68666 0.95053 0.28899 0.0
C429 C 0.71686 0.95815 0.29026 0.0
C430 C 0.72612 0.94011 0.26724 0.0
C431 C 0.70522 0.91446 0.24278 0.0
H432 H 0.73308 0.978 0.30916 0.0
H433 H 0.53502 0.73059 0.0641 0.0
H434 H 0.87172 0.59276 0.3438 0.0
H435 H 0.83569 0.61008 0.33835 0.0
H436 H 0.90246 0.69749 0.38953 0.0
H437 H 0.93932 0.68054 0.39361 0.0
H438 H 0.80913 0.63149 0.39006 0.0
H439 H 0.89409 0.75043 0.32934 0.0
H440 H 0.94531 0.77902 0.29616 0.0
H441 H 0.93421 0.69874 0.2305 0.0
H442 H 0.88285 0.66981 0.26288 0.0
H443 H 0.71587 0.6881 0.30895 0.0
H444 H 0.75744 0.68862 0.35218 0.0
H445 H 0.79535 0.68055 0.22119 0.0
H446 H 0.75471 0.681 0.17797 0.0
H447 H 0.83884 0.71552 0.27741 0.0
H448 H 0.74733 0.61822 0.29109 0.0
H449 H 0.69444 0.58454 0.31387 0.0
H450 H 0.71605 0.61313 0.45764 0.0
H451 H 0.76903 0.64724 0.43552 0.0
C452 C 0.87878 0.61556 0.35465 0.0
C453 C 0.90867 0.63543 0.36821 0.0
C454 C 0.85798 0.6254 0.35179 0.0
C455 C 0.86647 0.65526 0.36268 0.0
C456 C 0.89557 0.6745 0.38008 0.0
C457 C 0.91658 0.66472 0.38255 0.0
C458 C 0.8457 0.66652 0.35059 0.0
C459 C 0.81575 0.65022 0.36609 0.0
C460 C 0.85418 0.69079 0.31899 0.0
C461 C 0.88488 0.70795 0.29905 0.0
C462 C 0.90262 0.73894 0.30778 0.0
C463 C 0.93164 0.75518 0.28911 0.0
C464 C 0.94305 0.74068 0.26141 0.0
C465 C 0.9254 0.70992 0.25212 0.0
C466 C 0.89635 0.6936 0.27063 0.0
C467 C 0.73336 0.68693 0.28938 0.0
C468 C 0.73181 0.68416 0.24006 0.0
C469 C 0.75704 0.68715 0.31414 0.0
C470 C 0.77928 0.68415 0.29001 0.0
C471 C 0.77851 0.68293 0.24065 0.0
C472 C 0.75511 0.68303 0.21594 0.0
C473 C 0.80206 0.67975 0.31546 0.0
C474 C 0.8324 0.69746 0.30266 0.0
C475 C 0.79373 0.65611 0.34825 0.0
C476 C 0.76199 0.63552 0.36158 0.0
C477 C 0.74073 0.61744 0.3275 0.0
C478 C 0.71076 0.59827 0.34029 0.0
C479 C 0.70187 0.59678 0.38715 0.0
C480 C 0.72295 0.61437 0.42134 0.0
C481 C 0.75295 0.63362 0.4087 0.0
H482 H 0.67865 0.58193 0.39698 0.0
H483 H 0.96553 0.75328 0.24703 0.0
H484 H 0.04974 0.73392 0.44588 0.0
H485 H 0.08886 0.77943 0.48436 0.0
H486 H 0.1419 0.73654 0.5053 0.0
H487 H 0.10271 0.69089 0.46827 0.0
H488 H 0.14812 0.77106 0.57862 0.0
H489 H 0.15173 0.78193 0.40836 0.0
H490 H 0.13104 0.78304 0.33049 0.0
H491 H 0.11587 0.8539 0.37722 0.0
H492 H 0.13617 0.85295 0.45558 0.0
H493 H 0.30047 0.8762 0.54188 0.0
H494 H 0.24808 0.83627 0.5463 0.0
H495 H 0.21969 0.9024 0.5482 0.0
H496 H 0.27235 0.94272 0.54399 0.0
H497 H 0.19429 0.86151 0.47652 0.0
H498 H 0.20427 0.85778 0.64165 0.0
H499 H 0.22798 0.85665 0.71646 0.0
H500 H 0.22061 0.77242 0.67747 0.0
H501 H 0.19726 0.77324 0.60208 0.0
C502 C 0.06955 0.73406 0.45931 0.0
C503 C 0.07332 0.70894 0.4534 0.0
C504 C 0.0919 0.76009 0.48124 0.0
C505 C 0.11855 0.76158 0.497 0.0
C506 C 0.12156 0.73595 0.49341 0.0
C507 C 0.09917 0.70989 0.47192 0.0
C508 C 0.14452 0.79034 0.51334 0.0
C509 C 0.15823 0.79088 0.55639 0.0
C510 C 0.15724 0.81651 0.48496 0.0
C511 C 0.14506 0.81709 0.43794 0.0
C512 C 0.14376 0.79758 0.4021 0.0
C513 C 0.13215 0.79821 0.35788 0.0
C514 C 0.12205 0.81845 0.34897 0.0
C515 C 0.12363 0.83818 0.38422 0.0
C516 C 0.13518 0.83761 0.42853 0.0
C517 C 0.28315 0.88232 0.54438 0.0
C518 C 0.29051 0.91259 0.54214 0.0
C519 C 0.25319 0.85945 0.54724 0.0
C520 C 0.22999 0.86637 0.54771 0.0
C521 C 0.2373 0.89662 0.54808 0.0
C522 C 0.26738 0.9196 0.5458 0.0
C523 C 0.1985 0.84192 0.54105 0.0
C524 C 0.18375 0.8421 0.49961 0.0
C525 C 0.18513 0.81636 0.57063 0.0
C526 C 0.19909 0.81565 0.61605 0.0
C527 C 0.20788 0.83911 0.64885 0.0
C528 C 0.22124 0.83851 0.6914 0.0
C529 C 0.22582 0.8145 0.70169 0.0
C530 C 0.21702 0.791 0.66946 0.0
C531 C 0.20367 0.7915 0.62684 0.0
H532 H 0.23617 0.81408 0.73465 0.0
H533 H 0.11307 0.81891 0.31471 0.0
H534 H 0.43865 0.29945 0.73672 0.0
H535 H 0.42386 0.24625 0.73381 0.0
H536 H 0.33342 0.22354 0.69661 0.0
H537 H 0.3478 0.27666 0.70175 0.0
H538 H 0.33237 0.17803 0.74437 0.0
H539 H 0.38601 0.23892 0.61138 0.0
H540 H 0.42775 0.28202 0.57074 0.0
H541 H 0.48949 0.25477 0.62056 0.0
H542 H 0.44815 0.21173 0.66208 0.0
H543 H 0.30086 0.05596 0.58407 0.0
H544 H 0.30745 0.10049 0.62628 0.0
H545 H 0.39381 0.1176 0.67683 0.0
H546 H 0.3875 0.07336 0.63502 0.0
H547 H 0.39629 0.16468 0.62697 0.0
H548 H 0.33826 0.09896 0.75308 0.0
H549 H 0.29424 0.0554 0.78863 0.0
H550 H 0.23776 0.09051 0.74476 0.0
H551 H 0.28139 0.13409 0.70833 0.0
C552 C 0.4154 0.283 0.72937 0.0
C553 C 0.39448 0.29216 0.71874 0.0
C554 C 0.40698 0.25263 0.72757 0.0
C555 C 0.37777 0.23104 0.71351 0.0
C556 C 0.35613 0.23982 0.70718 0.0
C557 C 0.36439 0.2702 0.71008 0.0
C558 C 0.37112 0.20051 0.69921 0.0
C559 C 0.34622 0.17505 0.71856 0.0
C560 C 0.3892 0.1966 0.66548 0.0
C561 C 0.41406 0.22231 0.64023 0.0
C562 C 0.40853 0.24224 0.6139 0.0
C563 C 0.4321 0.26664 0.5907 0.0
C564 C 0.46127 0.27118 0.59317 0.0
C565 C 0.46689 0.25126 0.61875 0.0
C566 C 0.4434 0.22686 0.64211 0.0
C567 C 0.32095 0.06883 0.605 0.0
C568 C 0.34385 0.06138 0.60557 0.0
C569 C 0.32461 0.09418 0.62928 0.0
C570 C 0.35116 0.11234 0.65456 0.0
C571 C 0.37319 0.1039 0.65743 0.0
C572 C 0.36954 0.07861 0.63338 0.0
C573 C 0.35785 0.14212 0.67264 0.0
C574 C 0.38265 0.16755 0.65338 0.0
C575 C 0.33932 0.14582 0.70563 0.0
C576 C 0.31307 0.11966 0.72758 0.0
C577 C 0.31641 0.09726 0.75063 0.0
C578 C 0.29153 0.0726 0.77103 0.0
C579 C 0.26321 0.07015 0.76885 0.0
C580 C 0.25971 0.09242 0.74637 0.0
C581 C 0.28452 0.11712 0.72589 0.0
H582 H 0.24397 0.05104 0.78467 0.0
H583 H 0.47949 0.29008 0.57518 0.0
H584 H 0.15364 0.44315 0.88782 0.0
H585 H 0.19352 0.43037 0.88503 0.0
H586 H 0.12818 0.33876 0.84928 0.0
H587 H 0.08801 0.35112 0.85448 0.0
H588 H 0.17167 0.33896 0.89831 0.0
H589 H 0.16702 0.39265 0.76335 0.0
H590 H 0.16619 0.43418 0.72109 0.0
H591 H 0.25362 0.49654 0.77578 0.0
H592 H 0.25479 0.45541 0.81888 0.0
H593 H 0.26779 0.30897 0.74927 0.0
H594 H 0.22827 0.31539 0.78628 0.0
H595 H 0.29526 0.40225 0.83874 0.0
H596 H 0.33478 0.39612 0.80205 0.0
H597 H 0.25168 0.40412 0.78547 0.0
H598 H 0.25667 0.34597 0.91417 0.0
H599 H 0.25578 0.30203 0.95086 0.0
H600 H 0.16584 0.2449 0.90038 0.0
H601 H 0.16633 0.28845 0.8628 0.0
C602 C 0.14772 0.42012 0.88052 0.0
C603 C 0.11783 0.39821 0.87073 0.0
C604 C 0.17052 0.41286 0.87873 0.0
C605 C 0.16396 0.38383 0.86547 0.0
C606 C 0.13382 0.36136 0.85925 0.0
C607 C 0.11088 0.36845 0.86218 0.0
C608 C 0.18861 0.37782 0.85324 0.0
C609 C 0.18908 0.35308 0.87344 0.0
C610 C 0.21141 0.39628 0.82083 0.0
C611 C 0.21085 0.42102 0.79471 0.0
C612 C 0.18598 0.41526 0.76659 0.0
C613 C 0.18546 0.43872 0.74247 0.0
C614 C 0.2098 0.468 0.74586 0.0
C615 C 0.23476 0.47386 0.77326 0.0
C616 C 0.23537 0.45049 0.79752 0.0
C617 C 0.27415 0.32918 0.76945 0.0
C618 C 0.3044 0.3522 0.77218 0.0
C619 C 0.25155 0.33274 0.79076 0.0
C620 C 0.25888 0.35931 0.81519 0.0
C621 C 0.28915 0.3816 0.81997 0.0
C622 C 0.31171 0.37804 0.79889 0.0
C623 C 0.23502 0.36553 0.83094 0.0
C624 C 0.23453 0.39021 0.81087 0.0
C625 C 0.21201 0.34665 0.86261 0.0
C626 C 0.21165 0.32045 0.8853 0.0
C627 C 0.23679 0.324 0.91054 0.0
C628 C 0.23634 0.29917 0.93157 0.0
C629 C 0.2108 0.27068 0.92785 0.0
C630 C 0.18562 0.26698 0.90319 0.0
C631 C 0.18596 0.29174 0.88207 0.0
H632 H 0.21049 0.25148 0.94416 0.0
H633 H 0.20935 0.48613 0.72716 0.0
H634 H 0.92447 0.3443 0.96691 0.0
H635 H 0.88523 0.29955 0.00538 0.0
H636 H 0.93663 0.25484 0.98502 0.0
H637 H 0.97585 0.29955 0.94496 0.0
H638 H 0.88217 0.22041 0.95613 0.0
H639 H 0.92298 0.27344 0.0977 0.0
H640 H 0.94391 0.31627 0.15278 0.0
H641 H 0.86035 0.31638 0.15144 0.0
H642 H 0.83902 0.27384 0.0958 0.0
H643 H 0.75147 0.09442 0.04715 0.0
H644 H 0.80423 0.13443 0.05125 0.0
H645 H 0.77698 0.20116 0.0396 0.0
H646 H 0.72444 0.16154 0.03563 0.0
H647 H 0.82629 0.21922 0.0993 0.0
H648 H 0.79268 0.1754 0.94236 0.0
H649 H 0.77204 0.13315 0.88604 0.0
H650 H 0.84398 0.11623 0.91832 0.0
H651 H 0.86481 0.15818 0.9753 0.0
C652 C 0.92772 0.32515 0.97117 0.0
C653 C 0.9532 0.32541 0.95252 0.0
C654 C 0.90532 0.2996 0.99366 0.0
C655 C 0.90808 0.27388 0.99875 0.0
C656 C 0.93404 0.27445 0.98168 0.0
C657 C 0.95643 0.3 0.95879 0.0
C658 C 0.8823 0.2456 0.01697 0.0
C659 C 0.87053 0.21993 0.98826 0.0
C660 C 0.86681 0.24493 0.05863 0.0
C661 C 0.87943 0.27046 0.09237 0.0
C662 C 0.90911 0.2827 0.10891 0.0
C663 C 0.92104 0.30692 0.14027 0.0
C664 C 0.90348 0.31905 0.15557 0.0
C665 C 0.87392 0.30695 0.13959 0.0
C666 C 0.86188 0.28273 0.1082 0.0
C667 C 0.75667 0.11762 0.04666 0.0
C668 C 0.73381 0.12482 0.04031 0.0
C669 C 0.78682 0.14044 0.04894 0.0
C670 C 0.79447 0.17071 0.04513 0.0
C671 C 0.77155 0.17794 0.04257 0.0
C672 C 0.74152 0.15523 0.03997 0.0
C673 C 0.82601 0.19477 0.03764 0.0
C674 C 0.83869 0.21955 0.06819 0.0
C675 C 0.84249 0.19468 0.99781 0.0
C676 C 0.83005 0.16961 0.96346 0.0
C677 C 0.80395 0.1625 0.93767 0.0
C678 C 0.79224 0.13865 0.90562 0.0
C679 C 0.80663 0.12195 0.89873 0.0
C680 C 0.83281 0.12913 0.92379 0.0
C681 C 0.84457 0.15294 0.95596 0.0
H682 H 0.79754 0.1035 0.87388 0.0
H683 H 0.91276 0.33782 0.17984 0.0
loop_
_geom_bond_atom_site_label_1
_geom_bond_atom_site_label_2
_geom_bond_distance
_geom_bond_site_symmetry_2
_ccdc_geom_bond_type
Mg0 O1 2.028 . S
Mg0 O7 1.986 . S
Mg0 O9 2.114 1_545 S
Mg0 O10 2.251 . S
Mg0 O13 2.010 1_545 S
O1 Mg0 2.028 . S
O1 C4 1.250 . S
O2 Mg3 2.028 . S
O2 C4 1.248 . S
Mg3 O2 2.028 . S
Mg3 O8 2.032 . S
Mg3 O10 2.079 . S
C4 O1 1.250 . S
C4 O2 1.248 . S
C5 O6 1.264 . S
C5 O13 1.249 . S
O6 C5 1.264 . S
O7 Mg0 1.986 . S
O7 C11 1.246 . S
O8 Mg3 2.032 . S
O8 C11 1.259 . S
O9 Mg0 2.114 1_565 S
O9 C12 1.252 1_564 S
O10 Mg0 2.251 . S
O10 Mg3 2.079 . S
O10 C12 1.273 1_554 S
C11 O7 1.246 . S
C11 O8 1.259 . S
C12 O9 1.252 1_546 S
C12 O10 1.273 1_556 S
O13 Mg0 2.010 1_565 S
O13 C5 1.249 . S
Mg14 O15 2.028 . S
Mg14 O21 1.986 . S
Mg14 O23 2.114 . S
Mg14 O24 2.251 . S
Mg14 O27 2.010 . S
O15 Mg14 2.028 . S
O15 C18 1.250 . S
O16 Mg17 2.028 . S
O16 C18 1.248 . S
Mg17 O16 2.028 . S
Mg17 O22 2.032 . S
Mg17 O24 2.079 . S
C18 O15 1.250 . S
C18 O16 1.248 . S
C19 O20 1.264 . S
C19 O27 1.249 . S
O20 C19 1.264 . S
O21 Mg14 1.986 . S
O21 C25 1.246 . S
O22 Mg17 2.032 . S
O22 C25 1.259 . S
O23 Mg14 2.114 . S
O23 C26 1.252 . S
O24 Mg14 2.251 . S
O24 Mg17 2.079 . S
O24 C26 1.273 . S
C25 O21 1.246 . S
C25 O22 1.259 . S
C26 O23 1.252 . S
C26 O24 1.273 . S
O27 Mg14 2.010 . S
O27 C19 1.249 . S
Mg28 O29 2.028 . S
Mg28 O35 1.986 1_455 S
Mg28 O37 2.114 . S
Mg28 O38 2.251 1_455 S
Mg28 O41 2.010 . S
O29 Mg28 2.028 . S
O29 C32 1.250 . S
O30 Mg31 2.028 . S
O30 C32 1.248 1_655 S
Mg31 O30 2.028 . S
Mg31 O36 2.032 . S
Mg31 O38 2.079 . S
C32 O29 1.250 . S
C32 O30 1.248 1_455 S
C33 O34 1.264 . S
C33 O41 1.249 . S
O34 C33 1.264 . S
O35 Mg28 1.986 1_655 S
O35 C39 1.246 . S
O36 Mg31 2.032 . S
O36 C39 1.259 . S
O37 Mg28 2.114 . S
O37 C40 1.252 . S
O38 Mg28 2.251 1_655 S
O38 Mg31 2.079 . S
O38 C40 1.273 1_655 S
C39 O35 1.246 . S
C39 O36 1.259 . S
C40 O37 1.252 . S
C40 O38 1.273 1_455 S
O41 Mg28 2.010 . S
O41 C33 1.249 . S
Mg42 O43 2.028 . S
Mg42 O49 1.986 1_545 S
Mg42 O51 2.114 . S
Mg42 O52 2.241 1_545 S
Mg42 O55 2.010 . S
O43 Mg42 2.028 . S
O43 C46 1.250 . S
O44 Mg45 2.028 . S
O44 C46 1.248 1_565 S
Mg45 O44 2.028 . S
Mg45 O50 2.032 . S
Mg45 O52 2.090 . S
C46 O43 1.250 . S
C46 O44 1.248 1_545 S
C47 O48 1.264 . S
C47 O55 1.249 . S
O48 C47 1.264 . S
O49 Mg42 1.986 1_565 S
O49 C53 1.246 . S
O50 Mg45 2.032 . S
O50 C53 1.259 . S
O51 Mg42 2.114 . S
O51 C54 1.252 . S
O52 Mg42 2.241 1_565 S
O52 Mg45 2.090 . S
O52 C54 1.264 1_565 S
C53 O49 1.246 . S
C53 O50 1.259 . S
C54 O51 1.252 . S
C54 O52 1.264 1_545 S
O55 Mg42 2.010 . S
O55 C47 1.249 . S
Mg56 O57 2.028 . S
Mg56 O63 1.986 . S
Mg56 O65 2.114 . S
Mg56 O66 2.251 . S
Mg56 O69 2.010 . S
O57 Mg56 2.028 . S
O57 C60 1.250 . S
O58 Mg59 2.028 . S
O58 C60 1.248 . S
Mg59 O58 2.028 . S
Mg59 O64 2.032 . S
Mg59 O66 2.079 . S
C60 O57 1.250 . S
C60 O58 1.248 . S
C61 O62 1.264 . S
C61 O69 1.249 . S
O62 C61 1.264 . S
O63 Mg56 1.986 . S
O63 C67 1.246 . S
O64 Mg59 2.032 . S
O64 C67 1.259 . S
O65 Mg56 2.114 . S
O65 C68 1.252 . S
O66 Mg56 2.251 . S
O66 Mg59 2.079 . S
O66 C68 1.273 . S
C67 O63 1.246 . S
C67 O64 1.259 . S
C68 O65 1.252 . S
C68 O66 1.273 . S
O69 Mg56 2.010 . S
O69 C61 1.249 . S
Mg70 O71 2.028 . S
Mg70 O77 1.986 . S
Mg70 O79 2.114 1_455 S
Mg70 O80 2.251 . S
Mg70 O83 2.010 1_455 S
O71 Mg70 2.028 . S
O71 C74 1.250 . S
O72 Mg73 2.028 . S
O72 C74 1.248 . S
Mg73 O72 2.028 . S
Mg73 O78 2.032 . S
Mg73 O80 2.079 . S
C74 O71 1.250 . S
C74 O72 1.248 . S
C75 O76 1.264 . S
C75 O83 1.249 . S
O76 C75 1.264 . S
O77 Mg70 1.986 . S
O77 C81 1.246 . S
O78 Mg73 2.032 . S
O78 C81 1.259 . S
O79 Mg70 2.114 1_655 S
O79 C82 1.252 1_655 S
O80 Mg70 2.251 . S
O80 Mg73 2.079 . S
O80 C82 1.273 . S
C81 O77 1.246 . S
C81 O78 1.259 . S
C82 O79 1.252 1_455 S
C82 O80 1.273 . S
O83 Mg70 2.010 1_655 S
O83 C75 1.249 . S
H84 C102 0.951 . S
H85 C104 0.951 . S
H86 C106 0.950 . S
H87 C107 0.950 . S
H88 C109 0.950 . S
H89 C112 0.950 . S
H90 C113 0.950 . S
H91 C115 0.950 . S
H92 C116 0.950 . S
H93 C117 0.951 . S
H94 C119 0.951 . S
H95 C121 0.950 . S
H96 C122 0.950 . S
H97 C124 0.930 1_565 S
H98 C127 0.950 . S
H99 C128 0.950 . S
H100 C130 0.950 . S
H101 C131 0.950 . S
C102 H84 0.951 . S
C102 C103 1.366 . S
C102 C104 1.388 . S
C103 C102 1.366 . S
C103 C107 1.385 . S
C104 H85 0.951 . S
C104 C102 1.388 . S
C104 C105 1.366 . S
C105 C104 1.366 . S
C105 C106 1.414 . S
C105 C108 1.499 . S
C106 H86 0.950 . S
C106 C105 1.414 . S
C106 C107 1.374 . S
C107 H87 0.950 . S
C107 C103 1.385 . S
C107 C106 1.374 . S
C108 C105 1.499 . S
C108 C109 1.373 . S
C108 C110 1.389 1_545 S
C109 H88 0.950 . S
C109 C108 1.373 . S
C109 C125 1.377 . S
C110 C108 1.389 1_565 S
C110 C111 1.524 . S
C110 C124 1.365 1_565 S
C111 C110 1.524 . S
C111 C112 1.397 . S
C111 C116 1.363 . S
C112 H89 0.950 . S
C112 C111 1.397 . S
C112 C113 1.334 . S
C113 H90 0.950 . S
C113 C112 1.334 . S
C113 C114 1.287 . S
C114 C113 1.287 . S
C114 C115 1.524 . S
C114 H133 0.913 . S
C115 H91 0.950 . S
C115 C114 1.524 . S
C115 C116 1.415 . S
C116 H92 0.950 . S
C116 C111 1.363 . S
C116 C115 1.415 . S
C117 H93 0.951 . S
C117 C118 1.366 . S
C117 C119 1.388 . S
C118 C117 1.366 . S
C118 C122 1.385 . S
C119 H94 0.951 . S
C119 C117 1.388 . S
C119 C120 1.366 . S
C120 C119 1.366 . S
C120 C121 1.414 . S
C120 C123 1.499 . S
C121 H95 0.950 . S
C121 C120 1.414 . S
C121 C122 1.374 . S
C122 H96 0.950 . S
C122 C118 1.385 . S
C122 C121 1.374 . S
C123 C120 1.499 . S
C123 C124 1.405 . S
C123 C125 1.389 . S
C124 H97 0.930 1_545 S
C124 C110 1.365 1_545 S
C124 C123 1.405 . S
C125 C109 1.377 . S
C125 C123 1.389 . S
C125 C126 1.524 . S
C126 C125 1.524 . S
C126 C127 1.397 . S
C126 C131 1.363 . S
C127 H98 0.950 . S
C127 C126 1.397 . S
C127 C128 1.334 . S
C128 H99 0.950 . S
C128 C127 1.334 . S
C128 C129 1.287 . S
C129 C128 1.287 . S
C129 C130 1.524 . S
C129 H132 0.999 . S
C130 H100 0.950 . S
C130 C129 1.524 . S
C130 C131 1.415 . S
C131 H101 0.950 . S
C131 C126 1.363 . S
C131 C130 1.415 . S
H132 C129 0.999 . S
H133 C114 0.913 . S
H134 C152 0.951 . S
H135 C154 0.951 . S
H136 C156 0.950 . S
H137 C157 0.950 . S
H138 C159 0.950 . S
H139 C162 0.950 . S
H140 C163 0.950 . S
H141 C165 0.950 . S
H142 C166 0.950 . S
H143 C167 0.951 . S
H144 C169 0.951 . S
H145 C171 0.950 . S
H146 C172 0.950 . S
H147 C174 0.950 . S
H148 C177 0.950 . S
H149 C178 0.950 . S
H150 C180 0.950 . S
H151 C181 0.950 . S
C152 H134 0.951 . S
C152 C153 1.366 . S
C152 C154 1.388 . S
C153 C152 1.366 . S
C153 C157 1.385 . S
C154 H135 0.951 . S
C154 C152 1.388 . S
C154 C155 1.366 . S
C155 C154 1.366 . S
C155 C156 1.414 . S
C155 C158 1.499 . S
C156 H136 0.950 . S
C156 C155 1.414 . S
C156 C157 1.374 . S
C157 H137 0.950 . S
C157 C153 1.385 . S
C157 C156 1.374 . S
C158 C155 1.499 . S
C158 C159 1.373 . S
C158 C160 1.389 . S
C159 H138 0.950 . S
C159 C158 1.373 . S
C159 C175 1.377 . S
C160 C158 1.389 . S
C160 C161 1.524 . S
C160 C174 1.377 . S
C161 C160 1.524 . S
C161 C162 1.397 . S
C161 C166 1.363 . S
C162 H139 0.950 . S
C162 C161 1.397 . S
C162 C163 1.334 . S
C163 H140 0.950 . S
C163 C162 1.334 . S
C163 C164 1.287 . S
C164 C163 1.287 . S
C164 C165 1.524 . S
C164 H183 0.913 . S
C165 H141 0.950 . S
C165 C164 1.524 . S
C165 C166 1.415 . S
C166 H142 0.950 . S
C166 C161 1.363 . S
C166 C165 1.415 . S
C167 H143 0.951 . S
C167 C168 1.366 . S
C167 C169 1.388 . S
C168 C167 1.366 . S
C168 C172 1.385 . S
C169 H144 0.951 . S
C169 C167 1.388 . S
C169 C170 1.366 . S
C170 C169 1.366 . S
C170 C171 1.414 . S
C170 C173 1.499 . S
C171 H145 0.950 . S
C171 C170 1.414 . S
C171 C172 1.374 . S
C172 H146 0.950 . S
C172 C168 1.385 . S
C172 C171 1.374 . S
C173 C170 1.499 . S
C173 C174 1.373 . S
C173 C175 1.389 . S
C174 H147 0.950 . S
C174 C160 1.377 . S
C174 C173 1.373 . S
C175 C159 1.377 . S
C175 C173 1.389 . S
C175 C176 1.524 . S
C176 C175 1.524 . S
C176 C177 1.397 . S
C176 C181 1.363 . S
C177 H148 0.950 . S
C177 C176 1.397 . S
C177 C178 1.334 . S
C178 H149 0.950 . S
C178 C177 1.334 . S
C178 C179 1.287 . S
C179 C178 1.287 . S
C179 C180 1.524 . S
C179 H182 0.999 . S
C180 H150 0.950 . S
C180 C179 1.524 . S
C180 C181 1.415 . S
C181 H151 0.950 . S
C181 C176 1.363 . S
C181 C180 1.415 . S
H182 C179 0.999 . S
H183 C164 0.913 . S
H184 C202 0.951 . S
H185 C204 0.951 . S
H186 C206 0.950 . S
H187 C207 0.950 . S
H188 C209 0.950 . S
H189 C212 0.950 . S
H190 C213 0.950 1_455 S
H191 C215 0.950 . S
H192 C216 0.950 . S
H193 C217 0.951 . S
H194 C219 0.951 . S
H195 C221 0.950 . S
H196 C222 0.950 . S
H197 C224 0.950 . S
H198 C227 0.950 1_655 S
H199 C228 0.950 . S
H200 C230 0.950 . S
H201 C231 0.950 . S
C202 H184 0.951 . S
C202 C203 1.366 1_655 S
C202 C204 1.388 . S
C203 C202 1.366 1_455 S
C203 C207 1.385 . S
C204 H185 0.951 . S
C204 C202 1.388 . S
C204 C205 1.366 1_655 S
C205 C204 1.366 1_455 S
C205 C206 1.414 . S
C205 C208 1.499 . S
C206 H186 0.950 . S
C206 C205 1.414 . S
C206 C207 1.374 . S
C207 H187 0.950 . S
C207 C203 1.385 . S
C207 C206 1.374 . S
C208 C205 1.499 . S
C208 C209 1.373 . S
C208 C210 1.389 1_455 S
C209 H188 0.950 . S
C209 C208 1.373 . S
C209 C225 1.377 . S
C210 C208 1.389 1_655 S
C210 C211 1.524 . S
C210 C224 1.377 . S
C211 C210 1.524 . S
C211 C212 1.397 1_655 S
C211 C216 1.363 . S
C212 H189 0.950 . S
C212 C211 1.397 1_455 S
C212 C213 1.334 1_455 S
C213 H190 0.950 1_655 S
C213 C212 1.334 1_655 S
C213 C214 1.287 . S
C214 C213 1.287 . S
C214 C215 1.524 . S
C214 H233 0.913 . S
C215 H191 0.950 . S
C215 C214 1.524 . S
C215 C216 1.415 . S
C216 H192 0.950 . S
C216 C211 1.363 . S
C216 C215 1.415 . S
C217 H193 0.951 . S
C217 C218 1.366 . S
C217 C219 1.388 . S
C218 C217 1.366 . S
C218 C222 1.385 1_455 S
C219 H194 0.951 . S
C219 C217 1.388 . S
C219 C220 1.366 . S
C220 C219 1.366 . S
C220 C221 1.414 1_455 S
C220 C223 1.499 . S
C221 H195 0.950 . S
C221 C220 1.414 1_655 S
C221 C222 1.374 . S
C222 H196 0.950 . S
C222 C218 1.385 1_655 S
C222 C221 1.374 . S
C223 C220 1.499 . S
C223 C224 1.373 1_455 S
C223 C225 1.389 . S
C224 H197 0.950 . S
C224 C210 1.377 . S
C224 C223 1.373 1_655 S
C225 C209 1.377 . S
C225 C223 1.389 . S
C225 C226 1.524 . S
C226 C225 1.524 . S
C226 C227 1.397 . S
C226 C231 1.363 . S
C227 H198 0.950 1_455 S
C227 C226 1.397 . S
C227 C228 1.334 . S
C228 H199 0.950 . S
C228 C227 1.334 . S
C228 C229 1.287 . S
C229 C228 1.287 . S
C229 C230 1.524 . S
C229 H232 0.999 . S
C230 H200 0.950 . S
C230 C229 1.524 . S
C230 C231 1.415 . S
C231 H201 0.950 . S
C231 C226 1.363 . S
C231 C230 1.415 . S
H232 C229 0.999 . S
H233 C214 0.913 . S
H234 C252 0.951 . S
H235 C254 0.951 . S
H236 C256 0.950 . S
H237 C257 0.950 . S
H238 C259 0.950 . S
H239 C262 0.950 . S
H240 C263 0.950 . S
H241 C265 0.950 . S
H242 C266 0.950 . S
H243 C267 0.951 . S
H244 C269 0.951 . S
H245 C271 0.950 . S
H246 C272 0.950 . S
H247 C274 0.951 1_565 S
H248 C277 0.950 1_565 S
H249 C278 0.950 1_565 S
H250 C280 0.950 . S
H251 C281 0.950 . S
C252 H234 0.951 . S
C252 C253 1.366 1_565 S
C252 C254 1.388 . S
C253 C252 1.366 1_545 S
C253 C257 1.385 . S
C254 H235 0.951 . S
C254 C252 1.388 . S
C254 C255 1.366 1_565 S
C255 C254 1.366 1_545 S
C255 C256 1.414 . S
C255 C258 1.499 . S
C256 H236 0.950 . S
C256 C255 1.414 . S
C256 C257 1.374 . S
C257 H237 0.950 . S
C257 C253 1.385 . S
C257 C256 1.374 . S
C258 C255 1.499 . S
C258 C259 1.373 . S
C258 C260 1.389 . S
C259 H238 0.950 . S
C259 C258 1.373 . S
C259 C275 1.377 . S
C260 C258 1.389 . S
C260 C261 1.524 1_545 S
C260 C274 1.377 . S
C261 C260 1.524 1_565 S
C261 C262 1.397 1_565 S
C261 C266 1.363 . S
C262 H239 0.950 . S
C262 C261 1.397 1_545 S
C262 C263 1.334 . S
C263 H240 0.950 . S
C263 C262 1.334 . S
C263 C264 1.287 1_545 S
C264 C263 1.287 1_565 S
C264 C265 1.524 . S
C264 H283 0.913 . S
C265 H241 0.950 . S
C265 C264 1.524 . S
C265 C266 1.415 . S
C266 H242 0.950 . S
C266 C261 1.363 . S
C266 C265 1.415 . S
C267 H243 0.951 . S
C267 C268 1.366 . S
C267 C269 1.388 . S
C268 C267 1.366 . S
C268 C272 1.385 1_545 S
C269 H244 0.951 . S
C269 C267 1.388 . S
C269 C270 1.366 . S
C270 C269 1.366 . S
C270 C271 1.414 1_545 S
C270 C273 1.499 . S
C271 H245 0.950 . S
C271 C270 1.414 1_565 S
C271 C272 1.374 . S
C272 H246 0.950 . S
C272 C268 1.385 1_565 S
C272 C271 1.374 . S
C273 C270 1.499 . S
C273 C274 1.371 . S
C273 C275 1.389 . S
C274 H247 0.951 1_545 S
C274 C260 1.377 . S
C274 C273 1.371 . S
C275 C259 1.377 . S
C275 C273 1.389 . S
C275 C276 1.524 . S
C276 C275 1.524 . S
C276 C277 1.397 . S
C276 C281 1.363 . S
C277 H248 0.950 1_545 S
C277 C276 1.397 . S
C277 C278 1.334 . S
C278 H249 0.950 1_545 S
C278 C277 1.334 . S
C278 C279 1.287 . S
C279 C278 1.287 . S
C279 C280 1.524 . S
C279 H282 0.999 . S
C280 H250 0.950 . S
C280 C279 1.524 . S
C280 C281 1.415 . S
C281 H251 0.950 . S
C281 C276 1.363 . S
C281 C280 1.415 . S
H282 C279 0.999 . S
H283 C264 0.913 . S
H284 C302 0.951 . S
H285 C304 0.951 . S
H286 C306 0.950 . S
H287 C307 0.950 . S
H288 C309 0.950 . S
H289 C312 0.950 . S
H290 C313 0.950 . S
H291 C315 0.950 . S
H292 C316 0.950 . S
H293 C317 0.951 . S
H294 C319 0.951 . S
H295 C321 0.950 . S
H296 C322 0.950 . S
H297 C324 0.950 . S
H298 C327 0.950 . S
H299 C328 0.950 . S
H300 C330 0.950 . S
H301 C331 0.950 . S
C302 H284 0.951 . S
C302 C303 1.366 . S
C302 C304 1.388 . S
C303 C302 1.366 . S
C303 C307 1.385 . S
C304 H285 0.951 . S
C304 C302 1.388 . S
C304 C305 1.366 . S
C305 C304 1.366 . S
C305 C306 1.414 . S
C305 C308 1.499 . S
C306 H286 0.950 . S
C306 C305 1.414 . S
C306 C307 1.374 . S
C307 H287 0.950 . S
C307 C303 1.385 . S
C307 C306 1.374 . S
C308 C305 1.499 . S
C308 C309 1.373 1_554 S
C308 C310 1.389 . S
C309 H288 0.950 . S
C309 C308 1.373 1_556 S
C309 C325 1.377 . S
C310 C308 1.389 . S
C310 C311 1.524 . S
C310 C324 1.377 1_554 S
C311 C310 1.524 . S
C311 C312 1.397 . S
C311 C316 1.363 . S
C312 H289 0.950 . S
C312 C311 1.397 . S
C312 C313 1.334 . S
C313 H290 0.950 . S
C313 C312 1.334 . S
C313 C314 1.287 . S
C314 C313 1.287 . S
C314 C315 1.524 . S
C314 H333 0.913 . S
C315 H291 0.950 . S
C315 C314 1.524 . S
C315 C316 1.415 . S
C316 H292 0.950 . S
C316 C311 1.363 . S
C316 C315 1.415 . S
C317 H293 0.951 . S
C317 C318 1.366 . S
C317 C319 1.388 . S
C318 C317 1.366 . S
C318 C322 1.385 . S
C319 H294 0.951 . S
C319 C317 1.388 . S
C319 C320 1.366 . S
C320 C319 1.366 . S
C320 C321 1.414 . S
C320 C323 1.499 . S
C321 H295 0.950 . S
C321 C320 1.414 . S
C321 C322 1.374 . S
C322 H296 0.950 . S
C322 C318 1.385 . S
C322 C321 1.374 . S
C323 C320 1.499 . S
C323 C324 1.373 . S
C323 C325 1.389 . S
C324 H297 0.950 . S
C324 C310 1.377 1_556 S
C324 C323 1.373 . S
C325 C309 1.377 . S
C325 C323 1.389 . S
C325 C326 1.524 . S
C326 C325 1.524 . S
C326 C327 1.397 . S
C326 C331 1.363 . S
C327 H298 0.950 . S
C327 C326 1.397 . S
C327 C328 1.334 . S
C328 H299 0.950 . S
C328 C327 1.334 . S
C328 C329 1.287 . S
C329 C328 1.287 . S
C329 C330 1.524 . S
C329 H332 0.999 . S
C330 H300 0.950 . S
C330 C329 1.524 . S
C330 C331 1.415 . S
C331 H301 0.950 . S
C331 C326 1.363 . S
C331 C330 1.415 . S
H332 C329 0.999 . S
H333 C314 0.913 . S
H334 C352 0.951 1_556 S
H335 C354 0.951 . S
H336 C356 0.950 . S
H337 C357 0.950 . S
H338 C359 0.950 . S
H339 C362 0.950 . S
H340 C363 0.950 . S
H341 C365 0.950 . S
H342 C366 0.950 . S
H343 C367 0.951 . S
H344 C369 0.951 . S
H345 C371 0.950 . S
H346 C372 0.950 . S
H347 C374 0.950 . S
H348 C377 0.950 1_455 S
H349 C378 0.950 . S
H350 C380 0.950 . S
H351 C381 0.950 . S
C352 H334 0.951 1_554 S
C352 C353 1.366 1_554 S
C352 C354 1.388 . S
C353 C352 1.366 1_556 S
C353 C357 1.385 1_456 S
C354 H335 0.951 . S
C354 C352 1.388 . S
C354 C355 1.366 . S
C355 C354 1.366 . S
C355 C356 1.414 1_455 S
C355 C358 1.499 . S
C356 H336 0.950 . S
C356 C355 1.414 1_655 S
C356 C357 1.374 . S
C357 H337 0.950 . S
C357 C353 1.385 1_654 S
C357 C356 1.374 . S
C358 C355 1.499 . S
C358 C359 1.373 1_455 S
C358 C360 1.389 . S
C359 H338 0.950 . S
C359 C358 1.373 1_655 S
C359 C375 1.377 . S
C360 C358 1.389 . S
C360 C361 1.524 . S
C360 C374 1.377 . S
C361 C360 1.524 . S
C361 C362 1.397 . S
C361 C366 1.363 . S
C362 H339 0.950 . S
C362 C361 1.397 . S
C362 C363 1.334 . S
C363 H340 0.950 . S
C363 C362 1.334 . S
C363 C364 1.287 . S
C364 C363 1.287 . S
C364 C365 1.524 . S
C364 H383 0.913 . S
C365 H341 0.950 . S
C365 C364 1.524 . S
C365 C366 1.415 . S
C366 H342 0.950 . S
C366 C361 1.363 . S
C366 C365 1.415 . S
C367 H343 0.951 . S
C367 C368 1.366 1_655 S
C367 C369 1.388 . S
C368 C367 1.366 1_455 S
C368 C372 1.385 . S
C369 H344 0.951 . S
C369 C367 1.388 . S
C369 C370 1.366 1_655 S
C370 C369 1.366 1_455 S
C370 C371 1.414 . S
C370 C373 1.499 . S
C371 H345 0.950 . S
C371 C370 1.414 . S
C371 C372 1.374 . S
C372 H346 0.950 . S
C372 C368 1.385 . S
C372 C371 1.374 . S
C373 C370 1.499 . S
C373 C374 1.373 . S
C373 C375 1.389 1_455 S
C374 H347 0.950 . S
C374 C360 1.377 . S
C374 C373 1.373 . S
C375 C359 1.377 . S
C375 C373 1.389 1_655 S
C375 C376 1.524 . S
C376 C375 1.524 . S
C376 C377 1.397 . S
C376 C381 1.363 . S
C377 H348 0.950 1_655 S
C377 C376 1.397 . S
C377 C378 1.334 . S
C378 H349 0.950 . S
C378 C377 1.334 . S
C378 C379 1.287 . S
C379 C378 1.287 . S
C379 C380 1.524 . S
C379 H382 0.999 . S
C380 H350 0.950 . S
C380 C379 1.524 . S
C380 C381 1.415 . S
C381 H351 0.950 . S
C381 C376 1.363 . S
C381 C380 1.415 . S
H382 C379 0.999 . S
H383 C364 0.913 . S
H384 C402 0.951 . S
H385 C404 0.951 . S
H386 C406 0.950 . S
H387 C407 0.950 . S
H388 C409 0.950 . S
H389 C412 0.950 . S
H390 C413 0.950 . S
H391 C415 0.950 . S
H392 C416 0.950 . S
H393 C417 0.951 . S
H394 C419 0.951 . S
H395 C421 0.950 . S
H396 C422 0.950 . S
H397 C424 0.950 . S
H398 C427 0.950 . S
H399 C428 0.950 . S
H400 C430 0.950 . S
H401 C431 0.950 . S
C402 H384 0.951 . S
C402 C403 1.366 . S
C402 C404 1.388 . S
C403 C402 1.366 . S
C403 C407 1.385 . S
C404 H385 0.951 . S
C404 C402 1.388 . S
C404 C405 1.366 . S
C405 C404 1.366 . S
C405 C406 1.414 . S
C405 C408 1.499 . S
C406 H386 0.950 . S
C406 C405 1.414 . S
C406 C407 1.374 . S
C407 H387 0.950 . S
C407 C403 1.385 . S
C407 C406 1.374 . S
C408 C405 1.499 . S
C408 C409 1.373 . S
C408 C410 1.389 . S
C409 H388 0.950 . S
C409 C408 1.373 . S
C409 C425 1.377 . S
C410 C408 1.389 . S
C410 C411 1.524 . S
C410 C424 1.377 . S
C411 C410 1.524 . S
C411 C412 1.397 . S
C411 C416 1.363 . S
C412 H389 0.950 . S
C412 C411 1.397 . S
C412 C413 1.334 . S
C413 H390 0.950 . S
C413 C412 1.334 . S
C413 C414 1.287 . S
C414 C413 1.287 . S
C414 C415 1.524 . S
C414 H433 0.913 . S
C415 H391 0.950 . S
C415 C414 1.524 . S
C415 C416 1.415 . S
C416 H392 0.950 . S
C416 C411 1.363 . S
C416 C415 1.415 . S
C417 H393 0.951 . S
C417 C418 1.366 . S
C417 C419 1.388 . S
C418 C417 1.366 . S
C418 C422 1.385 . S
C419 H394 0.951 . S
C419 C417 1.388 . S
C419 C420 1.366 . S
C420 C419 1.366 . S
C420 C421 1.414 . S
C420 C423 1.499 . S
C421 H395 0.950 . S
C421 C420 1.414 . S
C421 C422 1.374 . S
C422 H396 0.950 . S
C422 C418 1.385 . S
C422 C421 1.374 . S
C423 C420 1.499 . S
C423 C424 1.373 . S
C423 C425 1.389 . S
C424 H397 0.950 . S
C424 C410 1.377 . S
C424 C423 1.373 . S
C425 C409 1.377 . S
C425 C423 1.389 . S
C425 C426 1.524 . S
C426 C425 1.524 . S
C426 C427 1.397 . S
C426 C431 1.363 . S
C427 H398 0.950 . S
C427 C426 1.397 . S
C427 C428 1.334 . S
C428 H399 0.950 . S
C428 C427 1.334 . S
C428 C429 1.287 . S
C429 C428 1.287 . S
C429 C430 1.524 . S
C429 H432 0.999 . S
C430 H400 0.950 . S
C430 C429 1.524 . S
C430 C431 1.415 . S
C431 H401 0.950 . S
C431 C426 1.363 . S
C431 C430 1.415 . S
H432 C429 0.999 . S
H433 C414 0.913 . S
H434 C452 0.951 . S
H435 C454 0.951 . S
H436 C456 0.950 . S
H437 C457 0.950 . S
H438 C459 0.950 . S
H439 C462 0.950 . S
H440 C463 0.950 . S
H441 C465 0.950 . S
H442 C466 0.950 . S
H443 C467 0.951 . S
H444 C469 0.951 . S
H445 C471 0.950 . S
H446 C472 0.950 . S
H447 C474 0.950 . S
H448 C477 0.950 . S
H449 C478 0.950 . S
H450 C480 0.950 . S
H451 C481 0.950 . S
C452 H434 0.951 . S
C452 C453 1.366 . S
C452 C454 1.388 . S
C453 C452 1.366 . S
C453 C457 1.385 . S
C454 H435 0.951 . S
C454 C452 1.388 . S
C454 C455 1.366 . S
C455 C454 1.366 . S
C455 C456 1.414 . S
C455 C458 1.499 . S
C456 H436 0.950 . S
C456 C455 1.414 . S
C456 C457 1.374 . S
C457 H437 0.950 . S
C457 C453 1.385 . S
C457 C456 1.374 . S
C458 C455 1.499 . S
C458 C459 1.373 . S
C458 C460 1.389 . S
C459 H438 0.950 . S
C459 C458 1.373 . S
C459 C475 1.377 . S
C460 C458 1.389 . S
C460 C461 1.524 . S
C460 C474 1.377 . S
C461 C460 1.524 . S
C461 C462 1.397 . S
C461 C466 1.363 . S
C462 H439 0.950 . S
C462 C461 1.397 . S
C462 C463 1.334 . S
C463 H440 0.950 . S
C463 C462 1.334 . S
C463 C464 1.287 . S
C464 C463 1.287 . S
C464 C465 1.524 . S
C464 H483 0.913 . S
C465 H441 0.950 . S
C465 C464 1.524 . S
C465 C466 1.415 . S
C466 H442 0.950 . S
C466 C461 1.363 . S
C466 C465 1.415 . S
C467 H443 0.951 . S
C467 C468 1.366 . S
C467 C469 1.388 . S
C468 C467 1.366 . S
C468 C472 1.385 . S
C469 H444 0.951 . S
C469 C467 1.388 . S
C469 C470 1.366 . S
C470 C469 1.366 . S
C470 C471 1.414 . S
C470 C473 1.499 . S
C471 H445 0.950 . S
C471 C470 1.414 . S
C471 C472 1.374 . S
C472 H446 0.950 . S
C472 C468 1.385 . S
C472 C471 1.374 . S
C473 C470 1.499 . S
C473 C474 1.373 . S
C473 C475 1.389 . S
C474 H447 0.950 . S
C474 C460 1.377 . S
C474 C473 1.373 . S
C475 C459 1.377 . S
C475 C473 1.389 . S
C475 C476 1.524 . S
C476 C475 1.524 . S
C476 C477 1.397 . S
C476 C481 1.363 . S
C477 H448 0.950 . S
C477 C476 1.397 . S
C477 C478 1.334 . S
C478 H449 0.950 . S
C478 C477 1.334 . S
C478 C479 1.287 . S
C479 C478 1.287 . S
C479 C480 1.524 . S
C479 H482 0.999 . S
C480 H450 0.950 . S
C480 C479 1.524 . S
C480 C481 1.415 . S
C481 H451 0.950 . S
C481 C476 1.363 . S
C481 C480 1.415 . S
H482 C479 0.999 . S
H483 C464 0.913 . S
H484 C502 0.951 . S
H485 C504 0.951 . S
H486 C506 0.950 . S
H487 C507 0.950 . S
H488 C509 0.950 . S
H489 C512 0.950 . S
H490 C513 0.950 . S
H491 C515 0.950 . S
H492 C516 0.950 . S
H493 C517 0.951 . S
H494 C519 0.951 . S
H495 C521 0.950 . S
H496 C522 0.950 . S
H497 C524 0.950 . S
H498 C527 0.950 . S
H499 C528 0.950 . S
H500 C530 0.950 . S
H501 C531 0.950 . S
C502 H484 0.951 . S
C502 C503 1.366 . S
C502 C504 1.388 . S
C503 C502 1.366 . S
C503 C507 1.385 . S
C504 H485 0.951 . S
C504 C502 1.388 . S
C504 C505 1.366 . S
C505 C504 1.366 . S
C505 C506 1.414 . S
C505 C508 1.499 . S
C506 H486 0.950 . S
C506 C505 1.414 . S
C506 C507 1.374 . S
C507 H487 0.950 . S
C507 C503 1.385 . S
C507 C506 1.374 . S
C508 C505 1.499 . S
C508 C509 1.373 . S
C508 C510 1.389 . S
C509 H488 0.950 . S
C509 C508 1.373 . S
C509 C525 1.377 . S
C510 C508 1.389 . S
C510 C511 1.524 . S
C510 C524 1.377 . S
C511 C510 1.524 . S
C511 C512 1.397 . S
C511 C516 1.363 . S
C512 H489 0.950 . S
C512 C511 1.397 . S
C512 C513 1.334 . S
C513 H490 0.950 . S
C513 C512 1.334 . S
C513 C514 1.287 . S
C514 C513 1.287 . S
C514 C515 1.524 . S
C514 H533 0.913 . S
C515 H491 0.950 . S
C515 C514 1.524 . S
C515 C516 1.415 . S
C516 H492 0.950 . S
C516 C511 1.363 . S
C516 C515 1.415 . S
C517 H493 0.951 . S
C517 C518 1.366 . S
C517 C519 1.388 . S
C518 C517 1.366 . S
C518 C522 1.385 . S
C519 H494 0.951 . S
C519 C517 1.388 . S
C519 C520 1.366 . S
C520 C519 1.366 . S
C520 C521 1.414 . S
C520 C523 1.499 . S
C521 H495 0.950 . S
C521 C520 1.414 . S
C521 C522 1.374 . S
C522 H496 0.950 . S
C522 C518 1.385 . S
C522 C521 1.374 . S
C523 C520 1.499 . S
C523 C524 1.373 . S
C523 C525 1.389 . S
C524 H497 0.950 . S
C524 C510 1.377 . S
C524 C523 1.373 . S
C525 C509 1.377 . S
C525 C523 1.389 . S
C525 C526 1.524 . S
C526 C525 1.524 . S
C526 C527 1.397 . S
C526 C531 1.363 . S
C527 H498 0.950 . S
C527 C526 1.397 . S
C527 C528 1.334 . S
C528 H499 0.950 . S
C528 C527 1.334 . S
C528 C529 1.287 . S
C529 C528 1.287 . S
C529 C530 1.524 . S
C529 H532 0.999 . S
C530 H500 0.950 . S
C530 C529 1.524 . S
C530 C531 1.415 . S
C531 H501 0.950 . S
C531 C526 1.363 . S
C531 C530 1.415 . S
H532 C529 0.999 . S
H533 C514 0.913 . S
H534 C552 0.951 . S
H535 C554 0.951 . S
H536 C556 0.950 . S
H537 C557 0.950 . S
H538 C559 0.950 . S
H539 C562 0.950 . S
H540 C563 0.950 . S
H541 C565 0.950 . S
H542 C566 0.950 . S
H543 C567 0.951 . S
H544 C569 0.951 . S
H545 C571 0.950 . S
H546 C572 0.950 . S
H547 C574 0.950 . S
H548 C577 0.950 . S
H549 C578 0.950 . S
H550 C580 0.950 . S
H551 C581 0.950 . S
C552 H534 0.951 . S
C552 C553 1.366 . S
C552 C554 1.388 . S
C553 C552 1.366 . S
C553 C557 1.385 . S
C554 H535 0.951 . S
C554 C552 1.388 . S
C554 C555 1.366 . S
C555 C554 1.366 . S
C555 C556 1.414 . S
C555 C558 1.499 . S
C556 H536 0.950 . S
C556 C555 1.414 . S
C556 C557 1.374 . S
C557 H537 0.950 . S
C557 C553 1.385 . S
C557 C556 1.374 . S
C558 C555 1.499 . S
C558 C559 1.373 . S
C558 C560 1.389 . S
C559 H538 0.950 . S
C559 C558 1.373 . S
C559 C575 1.377 . S
C560 C558 1.389 . S
C560 C561 1.524 . S
C560 C574 1.377 . S
C561 C560 1.524 . S
C561 C562 1.397 . S
C561 C566 1.363 . S
C562 H539 0.950 . S
C562 C561 1.397 . S
C562 C563 1.334 . S
C563 H540 0.950 . S
C563 C562 1.334 . S
C563 C564 1.287 . S
C564 C563 1.287 . S
C564 C565 1.524 . S
C564 H583 0.913 . S
C565 H541 0.950 . S
C565 C564 1.524 . S
C565 C566 1.415 . S
C566 H542 0.950 . S
C566 C561 1.363 . S
C566 C565 1.415 . S
C567 H543 0.951 . S
C567 C568 1.366 . S
C567 C569 1.388 . S
C568 C567 1.366 . S
C568 C572 1.385 . S
C569 H544 0.951 . S
C569 C567 1.388 . S
C569 C570 1.366 . S
C570 C569 1.366 . S
C570 C571 1.414 . S
C570 C573 1.499 . S
C571 H545 0.950 . S
C571 C570 1.414 . S
C571 C572 1.374 . S
C572 H546 0.950 . S
C572 C568 1.385 . S
C572 C571 1.374 . S
C573 C570 1.499 . S
C573 C574 1.373 . S
C573 C575 1.389 . S
C574 H547 0.950 . S
C574 C560 1.377 . S
C574 C573 1.373 . S
C575 C559 1.377 . S
C575 C573 1.389 . S
C575 C576 1.524 . S
C576 C575 1.524 . S
C576 C577 1.397 . S
C576 C581 1.363 . S
C577 H548 0.950 . S
C577 C576 1.397 . S
C577 C578 1.334 . S
C578 H549 0.950 . S
C578 C577 1.334 . S
C578 C579 1.287 . S
C579 C578 1.287 . S
C579 C580 1.524 . S
C579 H582 0.999 . S
C580 H550 0.950 . S
C580 C579 1.524 . S
C580 C581 1.415 . S
C581 H551 0.950 . S
C581 C576 1.363 . S
C581 C580 1.415 . S
H582 C579 0.999 . S
H583 C564 0.913 . S
H584 C602 0.951 . S
H585 C604 0.951 . S
H586 C606 0.950 . S
H587 C607 0.950 . S
H588 C609 0.950 . S
H589 C612 0.950 . S
H590 C613 0.950 . S
H591 C615 0.950 . S
H592 C616 0.950 . S
H593 C617 0.951 . S
H594 C619 0.951 . S
H595 C621 0.950 . S
H596 C622 0.950 . S
H597 C624 0.950 . S
H598 C627 0.950 . S
H599 C628 0.950 . S
H600 C630 0.950 . S
H601 C631 0.950 . S
C602 H584 0.951 . S
C602 C603 1.366 . S
C602 C604 1.388 . S
C603 C602 1.366 . S
C603 C607 1.385 . S
C604 H585 0.951 . S
C604 C602 1.388 . S
C604 C605 1.366 . S
C605 C604 1.366 . S
C605 C606 1.414 . S
C605 C608 1.499 . S
C606 H586 0.950 . S
C606 C605 1.414 . S
C606 C607 1.374 . S
C607 H587 0.950 . S
C607 C603 1.385 . S
C607 C606 1.374 . S
C608 C605 1.499 . S
C608 C609 1.373 . S
C608 C610 1.389 . S
C609 H588 0.950 . S
C609 C608 1.373 . S
C609 C625 1.377 . S
C610 C608 1.389 . S
C610 C611 1.524 . S
C610 C624 1.377 . S
C611 C610 1.524 . S
C611 C612 1.397 . S
C611 C616 1.363 . S
C612 H589 0.950 . S
C612 C611 1.397 . S
C612 C613 1.334 . S
C613 H590 0.950 . S
C613 C612 1.334 . S
C613 C614 1.287 . S
C614 C613 1.287 . S
C614 C615 1.524 . S
C614 H633 0.913 . S
C615 H591 0.950 . S
C615 C614 1.524 . S
C615 C616 1.415 . S
C616 H592 0.950 . S
C616 C611 1.363 . S
C616 C615 1.415 . S
C617 H593 0.951 . S
C617 C618 1.366 . S
C617 C619 1.388 . S
C618 C617 1.366 . S
C618 C622 1.385 . S
C619 H594 0.951 . S
C619 C617 1.388 . S
C619 C620 1.366 . S
C620 C619 1.366 . S
C620 C621 1.414 . S
C620 C623 1.499 . S
C621 H595 0.950 . S
C621 C620 1.414 . S
C621 C622 1.374 . S
C622 H596 0.950 . S
C622 C618 1.385 . S
C622 C621 1.374 . S
C623 C620 1.499 . S
C623 C624 1.373 . S
C623 C625 1.389 . S
C624 H597 0.950 . S
C624 C610 1.377 . S
C624 C623 1.373 . S
C625 C609 1.377 . S
C625 C623 1.389 . S
C625 C626 1.524 . S
C626 C625 1.524 . S
C626 C627 1.397 . S
C626 C631 1.363 . S
C627 H598 0.950 . S
C627 C626 1.397 . S
C627 C628 1.334 . S
C628 H599 0.950 . S
C628 C627 1.334 . S
C628 C629 1.287 . S
C629 C628 1.287 . S
C629 C630 1.524 . S
C629 H632 0.999 . S
C630 H600 0.950 . S
C630 C629 1.524 . S
C630 C631 1.415 . S
C631 H601 0.950 . S
C631 C626 1.363 . S
C631 C630 1.415 . S
H632 C629 0.999 . S
H633 C614 0.913 . S
H634 C652 0.951 . S
H635 C654 0.951 . S
H636 C656 0.950 . S
H637 C657 0.950 . S
H638 C659 0.950 . S
H639 C662 0.950 . S
H640 C663 0.950 . S
H641 C665 0.950 . S
H642 C666 0.950 . S
H643 C667 0.951 . S
H644 C669 0.951 . S
H645 C671 0.958 . S
H646 C672 0.950 . S
H647 C674 0.950 . S
H648 C677 0.950 . S
H649 C678 0.950 . S
H650 C680 0.950 . S
H651 C681 0.950 . S
C652 H634 0.951 . S
C652 C653 1.366 . S
C652 C654 1.388 . S
C653 C652 1.366 . S
C653 C657 1.385 . S
C654 H635 0.951 . S
C654 C652 1.388 . S
C654 C655 1.366 . S
C655 C654 1.366 . S
C655 C656 1.414 . S
C655 C658 1.499 . S
C656 H636 0.950 . S
C656 C655 1.414 . S
C656 C657 1.374 . S
C657 H637 0.950 . S
C657 C653 1.385 . S
C657 C656 1.374 . S
C658 C655 1.499 . S
C658 C659 1.373 . S
C658 C660 1.389 1_556 S
C659 H638 0.950 . S
C659 C658 1.373 . S
C659 C675 1.377 . S
C660 C658 1.389 1_554 S
C660 C661 1.524 . S
C660 C674 1.377 . S
C661 C660 1.524 . S
C661 C662 1.397 . S
C661 C666 1.363 . S
C662 H639 0.950 . S
C662 C661 1.397 . S
C662 C663 1.334 . S
C663 H640 0.950 . S
C663 C662 1.334 . S
C663 C664 1.287 . S
C664 C663 1.287 . S
C664 C665 1.524 . S
C664 H683 0.913 . S
C665 H641 0.950 . S
C665 C664 1.524 . S
C665 C666 1.415 . S
C666 H642 0.950 . S
C666 C661 1.363 . S
C666 C665 1.415 . S
C667 H643 0.951 . S
C667 C668 1.366 . S
C667 C669 1.388 . S
C668 C667 1.366 . S
C668 C672 1.385 . S
C669 H644 0.951 . S
C669 C667 1.388 . S
C669 C670 1.366 . S
C670 C669 1.366 . S
C670 C671 1.414 . S
C670 C673 1.499 1_554 S
C671 H645 0.958 . S
C671 C670 1.414 . S
C671 C672 1.374 . S
C672 H646 0.950 . S
C672 C668 1.385 . S
C672 C671 1.374 . S
C673 C670 1.499 1_556 S
C673 C674 1.373 1_556 S
C673 C675 1.389 . S
C674 H647 0.950 . S
C674 C660 1.377 . S
C674 C673 1.373 1_554 S
C675 C659 1.377 . S
C675 C673 1.389 . S
C675 C676 1.524 . S
C676 C675 1.524 . S
C676 C677 1.397 . S
C676 C681 1.363 . S
C677 H648 0.950 . S
C677 C676 1.397 . S
C677 C678 1.334 . S
C678 H649 0.950 . S
C678 C677 1.334 . S
C678 C679 1.287 . S
C679 C678 1.287 . S
C679 C680 1.524 . S
C679 H682 0.999 . S
C680 H650 0.950 . S
C680 C679 1.524 . S
C680 C681 1.415 . S
C681 H651 0.950 . S
C681 C676 1.363 . S
C681 C680 1.415 . S
H682 C679 0.999 . S
H683 C664 0.913 . S
C103 C4 1.278 . S
C118 C54 1.312 . S
C153 C18 1.279 . S
C168 C68 1.312 . S
C203 C82 1.312 . S
C218 C32 1.279 . S
C253 C12 1.312 . S
C268 C46 1.278 . S
C303 C26 1.312 . S
C318 C60 1.279 . S
C353 C74 1.278 . S
C368 C40 1.312 . S
C403 C25 1.404 . S
C418 C5 1.258 . S
C453 C39 1.402 . S
C468 C19 1.257 . S
C503 C33 1.260 . S
C518 C53 1.403 . S
C553 C67 1.404 . S
C568 C47 1.258 . S
C603 C81 1.403 . S
C618 C61 1.258 . S
C653 C75 1.258 . S
C668 C11 1.403 . S
