# Generated by pormake.
# Topology gme, (4)-cn, num edge types: 1
# Building blocks:
#     Node 0, Type 0, BuildingBlock: CEKHIL_clean_sbu_0, # of connection points: 4
#     Node 1, Type 0, BuildingBlock: CEKHIL_clean_sbu_0, # of connection points: 4
#     Node 2, Type 0, BuildingBlock: CEKHIL_clean_sbu_0, # of connection points: 4
#     Node 3, Type 0, BuildingBlock: CEKHIL_clean_sbu_0, # of connection points: 4
#     Node 4, Type 0, BuildingBlock: CEKHIL_clean_sbu_0, # of connection points: 4
#     Node 5, Type 0, BuildingBlock: CEKHIL_clean_sbu_0, # of connection points: 4
#     Node 6, Type 0, BuildingBlock: CEKHIL_clean_sbu_0, # of connection points: 4
#     Node 7, Type 0, BuildingBlock: CEKHIL_clean_sbu_0, # of connection points: 4
#     Node 8, Type 0, BuildingBlock: CEKHIL_clean_sbu_0, # of connection points: 4
#     Node 9, Type 0, BuildingBlock: CEKHIL_clean_sbu_0, # of connection points: 4
#     Node 10, Type 0, BuildingBlock: CEKHIL_clean_sbu_0, # of connection points: 4
#     Node 11, Type 0, BuildingBlock: CEKHIL_clean_sbu_0, # of connection points: 4
#     Node 12, Type 0, BuildingBlock: CEKHIL_clean_sbu_0, # of connection points: 4
#     Node 13, Type 0, BuildingBlock: CEKHIL_clean_sbu_0, # of connection points: 4
#     Node 14, Type 0, BuildingBlock: CEKHIL_clean_sbu_0, # of connection points: 4
#     Node 15, Type 0, BuildingBlock: CEKHIL_clean_sbu_0, # of connection points: 4
#     Node 16, Type 0, BuildingBlock: CEKHIL_clean_sbu_0, # of connection points: 4
#     Node 17, Type 0, BuildingBlock: CEKHIL_clean_sbu_0, # of connection points: 4
#     Node 18, Type 0, BuildingBlock: CEKHIL_clean_sbu_0, # of connection points: 4
#     Node 19, Type 0, BuildingBlock: CEKHIL_clean_sbu_0, # of connection points: 4
#     Node 20, Type 0, BuildingBlock: CEKHIL_clean_sbu_0, # of connection points: 4
#     Node 21, Type 0, BuildingBlock: CEKHIL_clean_sbu_0, # of connection points: 4
#     Node 22, Type 0, BuildingBlock: CEKHIL_clean_sbu_0, # of connection points: 4
#     Node 23, Type 0, BuildingBlock: CEKHIL_clean_sbu_0, # of connection points: 4
#     Edge 24, Type (0, 0), BuildingBlock: MIFKUJ_clean_linker_0, # of connection points: 2
#     Edge 25, Type (0, 0), BuildingBlock: MIFKUJ_clean_linker_0, # of connection points: 2
#     Edge 26, Type (0, 0), BuildingBlock: MIFKUJ_clean_linker_0, # of connection points: 2
#     Edge 27, Type (0, 0), BuildingBlock: MIFKUJ_clean_linker_0, # of connection points: 2
#     Edge 28, Type (0, 0), BuildingBlock: MIFKUJ_clean_linker_0, # of connection points: 2
#     Edge 29, Type (0, 0), BuildingBlock: MIFKUJ_clean_linker_0, # of connection points: 2
#     Edge 30, Type (0, 0), BuildingBlock: MIFKUJ_clean_linker_0, # of connection points: 2
#     Edge 31, Type (0, 0), BuildingBlock: MIFKUJ_clean_linker_0, # of connection points: 2
#     Edge 32, Type (0, 0), BuildingBlock: MIFKUJ_clean_linker_0, # of connection points: 2
#     Edge 33, Type (0, 0), BuildingBlock: MIFKUJ_clean_linker_0, # of connection points: 2
#     Edge 34, Type (0, 0), BuildingBlock: MIFKUJ_clean_linker_0, # of connection points: 2
#     Edge 35, Type (0, 0), BuildingBlock: MIFKUJ_clean_linker_0, # of connection points: 2
#     Edge 36, Type (0, 0), BuildingBlock: MIFKUJ_clean_linker_0, # of connection points: 2
#     Edge 37, Type (0, 0), BuildingBlock: MIFKUJ_clean_linker_0, # of connection points: 2
#     Edge 38, Type (0, 0), BuildingBlock: MIFKUJ_clean_linker_0, # of connection points: 2
#     Edge 39, Type (0, 0), BuildingBlock: MIFKUJ_clean_linker_0, # of connection points: 2
#     Edge 40, Type (0, 0), BuildingBlock: MIFKUJ_clean_linker_0, # of connection points: 2
#     Edge 41, Type (0, 0), BuildingBlock: MIFKUJ_clean_linker_0, # of connection points: 2
#     Edge 42, Type (0, 0), BuildingBlock: MIFKUJ_clean_linker_0, # of connection points: 2
#     Edge 43, Type (0, 0), BuildingBlock: MIFKUJ_clean_linker_0, # of connection points: 2
#     Edge 44, Type (0, 0), BuildingBlock: MIFKUJ_clean_linker_0, # of connection points: 2
#     Edge 45, Type (0, 0), BuildingBlock: MIFKUJ_clean_linker_0, # of connection points: 2
#     Edge 46, Type (0, 0), BuildingBlock: MIFKUJ_clean_linker_0, # of connection points: 2
#     Edge 47, Type (0, 0), BuildingBlock: MIFKUJ_clean_linker_0, # of connection points: 2
#     Edge 48, Type (0, 0), BuildingBlock: MIFKUJ_clean_linker_0, # of connection points: 2
#     Edge 49, Type (0, 0), BuildingBlock: MIFKUJ_clean_linker_0, # of connection points: 2
#     Edge 50, Type (0, 0), BuildingBlock: MIFKUJ_clean_linker_0, # of connection points: 2
#     Edge 51, Type (0, 0), BuildingBlock: MIFKUJ_clean_linker_0, # of connection points: 2
#     Edge 52, Type (0, 0), BuildingBlock: MIFKUJ_clean_linker_0, # of connection points: 2
#     Edge 53, Type (0, 0), BuildingBlock: MIFKUJ_clean_linker_0, # of connection points: 2
#     Edge 54, Type (0, 0), BuildingBlock: MIFKUJ_clean_linker_0, # of connection points: 2
#     Edge 55, Type (0, 0), BuildingBlock: MIFKUJ_clean_linker_0, # of connection points: 2
#     Edge 56, Type (0, 0), BuildingBlock: MIFKUJ_clean_linker_0, # of connection points: 2
#     Edge 57, Type (0, 0), BuildingBlock: MIFKUJ_clean_linker_0, # of connection points: 2
#     Edge 58, Type (0, 0), BuildingBlock: MIFKUJ_clean_linker_0, # of connection points: 2
#     Edge 59, Type (0, 0), BuildingBlock: MIFKUJ_clean_linker_0, # of connection points: 2
#     Edge 60, Type (0, 0), BuildingBlock: MIFKUJ_clean_linker_0, # of connection points: 2
#     Edge 61, Type (0, 0), BuildingBlock: MIFKUJ_clean_linker_0, # of connection points: 2
#     Edge 62, Type (0, 0), BuildingBlock: MIFKUJ_clean_linker_0, # of connection points: 2
#     Edge 63, Type (0, 0), BuildingBlock: MIFKUJ_clean_linker_0, # of connection points: 2
#     Edge 64, Type (0, 0), BuildingBlock: MIFKUJ_clean_linker_0, # of connection points: 2
#     Edge 65, Type (0, 0), BuildingBlock: MIFKUJ_clean_linker_0, # of connection points: 2
#     Edge 66, Type (0, 0), BuildingBlock: MIFKUJ_clean_linker_0, # of connection points: 2
#     Edge 67, Type (0, 0), BuildingBlock: MIFKUJ_clean_linker_0, # of connection points: 2
#     Edge 68, Type (0, 0), BuildingBlock: MIFKUJ_clean_linker_0, # of connection points: 2
#     Edge 69, Type (0, 0), BuildingBlock: MIFKUJ_clean_linker_0, # of connection points: 2
#     Edge 70, Type (0, 0), BuildingBlock: MIFKUJ_clean_linker_0, # of connection points: 2
#     Edge 71, Type (0, 0), BuildingBlock: MIFKUJ_clean_linker_0, # of connection points: 2
# Relax obj value: 0.071
# Max RMSD: 0.095
# Mean RMSD: 0.095
data_MOF--net-gme--node1-CEKHIL_clean_sbu_0--edge1-MIFKUJ_clean_linker_0
_symmetry_space_group_name_H-M    P1
_symmetry_Int_Tables_number       1
_symmetry_cell_setting            triclinic
loop_
_symmetry_equiv_pos_as_xyz
'x, y, z'
_cell_length_a     69.937481
_cell_length_b     69.924922
_cell_length_c     73.539088
_cell_angle_alpha  89.997461
_cell_angle_beta   90.00359
_cell_angle_gamma 119.96252
loop_
_atom_site_label
_atom_site_type_symbol
_atom_site_fract_x
_atom_site_fract_y
_atom_site_fract_z
_atom_type_partial_charge
Co0 Co 0.38868 0.05898 0.11809 0.0
O1 O 0.3886 0.06288 0.09231 0.0
O2 O 0.37257 0.03042 0.1061 0.0
C3 C 0.38009 0.08508 0.12557 0.0
O4 O 0.38487 0.04931 0.14476 0.0
Co5 Co 0.42396 0.09851 0.14079 0.0
O6 O 0.4081 0.07897 0.1616 0.0
C7 C 0.43742 0.07308 0.11776 0.0
C8 C 0.37723 0.04158 0.09096 0.0
C9 C 0.39291 0.05885 0.16014 0.0
O10 O 0.41705 0.05806 0.11596 0.0
O11 O 0.44349 0.09166 0.12546 0.0
O12 O 0.36461 0.0654 0.12101 0.0
O13 O 0.39997 0.08875 0.12362 0.0
Co14 Co 0.32183 0.38199 0.62031 0.0
O15 O 0.3212 0.38703 0.59472 0.0
O16 O 0.33442 0.367 0.60683 0.0
C17 C 0.28696 0.37437 0.62553 0.0
O18 O 0.32403 0.37247 0.64629 0.0
Co19 Co 0.31602 0.41215 0.64817 0.0
O20 O 0.30901 0.38718 0.6647 0.0
C21 C 0.35894 0.42826 0.62988 0.0
C22 C 0.33014 0.37485 0.5923 0.0
C23 C 0.31609 0.37386 0.66175 0.0
O24 O 0.35184 0.40935 0.62223 0.0
O25 O 0.34699 0.43298 0.64002 0.0
O26 O 0.29068 0.35906 0.61947 0.0
O27 O 0.30405 0.39383 0.62683 0.0
Co28 Co 0.93467 0.32844 0.11706 0.0
O29 O 0.93144 0.32741 0.09116 0.0
O30 O 0.96356 0.34244 0.10539 0.0
C31 C 0.90863 0.29295 0.1218 0.0
O32 O 0.94355 0.33134 0.14397 0.0
Co33 Co 0.89438 0.32045 0.14074 0.0
O34 O 0.91171 0.31588 0.15985 0.0
C35 C 0.92028 0.36268 0.12139 0.0
C36 C 0.95274 0.33755 0.09006 0.0
C37 C 0.9325 0.32356 0.15885 0.0
O38 O 0.93511 0.35752 0.11759 0.0
O39 O 0.90199 0.34939 0.12918 0.0
O40 O 0.92854 0.29784 0.1173 0.0
O41 O 0.90487 0.30921 0.12157 0.0
Co42 Co 0.60801 0.9345 0.62028 0.0
O43 O 0.6038 0.93168 0.59449 0.0
O44 O 0.62311 0.96352 0.6088 0.0
C45 C 0.61637 0.90736 0.623 0.0
O46 O 0.61599 0.9429 0.64712 0.0
Co47 Co 0.57665 0.89418 0.64442 0.0
O48 O 0.5995 0.91105 0.66296 0.0
C49 C 0.56051 0.92223 0.62837 0.0
C50 C 0.61567 0.95295 0.59349 0.0
C51 C 0.61294 0.93176 0.66191 0.0
O52 O 0.58015 0.93619 0.62296 0.0
O53 O 0.55554 0.90379 0.63587 0.0
O54 O 0.6316 0.92714 0.61846 0.0
O55 O 0.5967 0.90443 0.62413 0.0
Co56 Co 0.67387 0.60782 0.12031 0.0
O57 O 0.67452 0.60392 0.09454 0.0
O58 O 0.65933 0.62155 0.10768 0.0
C59 C 0.70962 0.61827 0.12508 0.0
O60 O 0.67121 0.6156 0.14677 0.0
Co61 Co 0.68292 0.57792 0.14609 0.0
O62 O 0.68732 0.60095 0.16401 0.0
C63 C 0.64036 0.55942 0.12682 0.0
C64 C 0.66417 0.61484 0.09274 0.0
C65 C 0.67927 0.61364 0.162 0.0
O66 O 0.64509 0.57897 0.12191 0.0
O67 O 0.65398 0.55537 0.13526 0.0
O68 O 0.70419 0.63259 0.11963 0.0
O69 O 0.69367 0.59809 0.12579 0.0
Co70 Co 0.06295 0.6743 0.61865 0.0
O71 O 0.06771 0.67356 0.59306 0.0
O72 O 0.03489 0.66074 0.60583 0.0
C73 C 0.08996 0.7096 0.62235 0.0
O74 O 0.05222 0.67347 0.64472 0.0
Co75 Co 0.10043 0.6826 0.6458 0.0
O76 O 0.08249 0.68953 0.66253 0.0
C77 C 0.07409 0.63873 0.62862 0.0
C78 C 0.04655 0.66446 0.59107 0.0
C79 C 0.06198 0.68214 0.65989 0.0
O80 O 0.06088 0.64463 0.62176 0.0
O81 O 0.09156 0.65195 0.63747 0.0
O82 O 0.07058 0.70525 0.61674 0.0
O83 O 0.0927 0.69278 0.62416 0.0
Co84 Co 0.93294 0.60678 0.38544 0.0
O85 O 0.93067 0.6033 0.41129 0.0
O86 O 0.96224 0.62121 0.3963 0.0
C87 C 0.9069 0.61658 0.38253 0.0
O88 O 0.94079 0.6139 0.3585 0.0
Co89 Co 0.89161 0.57532 0.36239 0.0
O90 O 0.90858 0.59717 0.34317 0.0
C91 C 0.91846 0.5584 0.37912 0.0
C92 C 0.95201 0.61444 0.41182 0.0
C93 C 0.92934 0.61053 0.34385 0.0
O94 O 0.93338 0.57823 0.38318 0.0
O95 O 0.89975 0.55357 0.37226 0.0
O96 O 0.92696 0.63128 0.38692 0.0
O97 O 0.90297 0.5965 0.38193 0.0
Co98 Co 0.32552 0.93375 0.88292 0.0
O99 O 0.32821 0.92987 0.90842 0.0
O100 O 0.33921 0.96216 0.89528 0.0
C101 C 0.29024 0.90608 0.88081 0.0
O102 O 0.32439 0.94351 0.85681 0.0
Co103 Co 0.31612 0.89554 0.85614 0.0
O104 O 0.30731 0.91248 0.83998 0.0
C105 C 0.36102 0.92323 0.87123 0.0
C106 C 0.33685 0.95102 0.91014 0.0
C107 C 0.3147 0.93308 0.84212 0.0
O108 O 0.35525 0.93639 0.87843 0.0
O109 O 0.34746 0.9054 0.86297 0.0
O110 O 0.29454 0.92548 0.88632 0.0
O111 O 0.30719 0.90375 0.8782 0.0
Co112 Co 0.38682 0.32976 0.38228 0.0
O113 O 0.39272 0.33171 0.40787 0.0
O114 O 0.3724 0.3438 0.39456 0.0
C115 C 0.37841 0.29426 0.37971 0.0
O116 O 0.3769 0.32967 0.356 0.0
Co117 Co 0.41554 0.3199 0.35575 0.0
O118 O 0.39048 0.31231 0.33913 0.0
C119 C 0.43342 0.36459 0.37152 0.0
C120 C 0.38074 0.34097 0.40947 0.0
C121 C 0.37776 0.32031 0.34113 0.0
O122 O 0.41453 0.35918 0.37857 0.0
O123 O 0.43736 0.35094 0.363 0.0
O124 O 0.36346 0.2989 0.385 0.0
O125 O 0.39793 0.31096 0.37755 0.0
Co126 Co 0.06271 0.38685 0.88229 0.0
O127 O 0.0672 0.39339 0.90776 0.0
O128 O 0.0346 0.37213 0.8951 0.0
C129 C 0.09047 0.37945 0.87953 0.0
O130 O 0.05232 0.37601 0.85623 0.0
Co131 Co 0.09999 0.4156 0.85488 0.0
O132 O 0.08288 0.3898 0.83888 0.0
C133 C 0.07168 0.43214 0.86983 0.0
C134 C 0.04608 0.38102 0.90979 0.0
C135 C 0.06231 0.37669 0.84127 0.0
O136 O 0.05974 0.41379 0.87825 0.0
O137 O 0.08887 0.43637 0.86057 0.0
O138 O 0.07118 0.36423 0.88516 0.0
O139 O 0.09266 0.3987 0.87708 0.0
Co140 Co 0.6733 0.06312 0.38606 0.0
O141 O 0.67528 0.06682 0.41193 0.0
O142 O 0.65913 0.03443 0.39808 0.0
C143 C 0.70884 0.08853 0.3806 0.0
O144 O 0.66929 0.05374 0.35923 0.0
Co145 Co 0.6813 0.10321 0.36215 0.0
O146 O 0.68458 0.08522 0.34287 0.0
C147 C 0.63953 0.07822 0.38226 0.0
C148 C 0.66482 0.04553 0.41327 0.0
C149 C 0.67652 0.06439 0.34412 0.0
O150 O 0.64454 0.06331 0.3861 0.0
O151 O 0.65277 0.09631 0.37418 0.0
O152 O 0.70362 0.06856 0.38522 0.0
O153 O 0.6929 0.09277 0.38108 0.0
Co154 Co 0.61274 0.67485 0.8853 0.0
O155 O 0.60923 0.6748 0.91113 0.0
O156 O 0.62711 0.66042 0.89717 0.0
C157 C 0.62235 0.71052 0.88137 0.0
O158 O 0.61997 0.67295 0.85854 0.0
Co159 Co 0.58163 0.68382 0.86086 0.0
O160 O 0.6041 0.68862 0.84223 0.0
C161 C 0.56453 0.64069 0.8789 0.0
C162 C 0.62043 0.6647 0.91239 0.0
C163 C 0.61714 0.68088 0.84357 0.0
O164 O 0.58427 0.6458 0.88349 0.0
O165 O 0.5598 0.65425 0.87122 0.0
O166 O 0.63712 0.70542 0.8862 0.0
O167 O 0.60235 0.69427 0.88076 0.0
Co168 Co 0.61018 0.9359 0.88616 0.0
O169 O 0.60475 0.93185 0.91183 0.0
O170 O 0.62399 0.96436 0.89845 0.0
C171 C 0.61993 0.9098 0.88304 0.0
O172 O 0.61941 0.94583 0.85977 0.0
Co173 Co 0.58146 0.89668 0.86011 0.0
O174 O 0.60548 0.9149 0.84281 0.0
C175 C 0.56296 0.92284 0.876 0.0
C176 C 0.61618 0.95312 0.91342 0.0
C177 C 0.61801 0.93567 0.84474 0.0
O178 O 0.58194 0.9367 0.88272 0.0
O179 O 0.55916 0.90515 0.86777 0.0
O180 O 0.63436 0.92951 0.88845 0.0
O181 O 0.60004 0.90616 0.88134 0.0
Co182 Co 0.67322 0.61159 0.38425 0.0
O183 O 0.67233 0.60663 0.40994 0.0
O184 O 0.6587 0.62556 0.39657 0.0
C185 C 0.7089 0.62095 0.38093 0.0
O186 O 0.67227 0.62053 0.35779 0.0
Co187 Co 0.68311 0.5824 0.35822 0.0
O188 O 0.68949 0.60666 0.34102 0.0
C189 C 0.63877 0.56432 0.37459 0.0
C190 C 0.66248 0.61804 0.41156 0.0
C191 C 0.6813 0.61925 0.34285 0.0
O192 O 0.64409 0.58335 0.3813 0.0
O193 O 0.6524 0.56037 0.36606 0.0
O194 O 0.70388 0.63565 0.38617 0.0
O195 O 0.69251 0.60113 0.37939 0.0
Co196 Co 0.05732 0.6682 0.88359 0.0
O197 O 0.06056 0.66403 0.90896 0.0
O198 O 0.02885 0.65547 0.89568 0.0
C199 C 0.0862 0.70288 0.88236 0.0
O200 O 0.04815 0.67092 0.85762 0.0
Co201 Co 0.09482 0.67687 0.85636 0.0
O202 O 0.07934 0.68816 0.84106 0.0
C203 C 0.06476 0.63148 0.86963 0.0
C204 C 0.03952 0.65638 0.91047 0.0
C205 C 0.05886 0.68126 0.84321 0.0
O206 O 0.05305 0.63799 0.87829 0.0
O207 O 0.08236 0.64449 0.86085 0.0
O208 O 0.06706 0.69933 0.88788 0.0
O209 O 0.08759 0.68547 0.87912 0.0
Co210 Co 0.39282 0.06801 0.38544 0.0
O211 O 0.39164 0.06828 0.4114 0.0
O212 O 0.37647 0.03787 0.3947 0.0
C213 C 0.38419 0.09476 0.38153 0.0
O214 O 0.39028 0.06241 0.35792 0.0
Co215 Co 0.42844 0.11081 0.36635 0.0
O216 O 0.41085 0.09553 0.3445 0.0
C217 C 0.44166 0.08219 0.38526 0.0
C218 C 0.38028 0.04697 0.41076 0.0
C219 C 0.39689 0.07492 0.34368 0.0
O220 O 0.42124 0.06715 0.3867 0.0
O221 O 0.44787 0.10155 0.37909 0.0
O222 O 0.36864 0.07445 0.38397 0.0
O223 O 0.40404 0.09827 0.38319 0.0
Co224 Co 0.32994 0.39057 0.88738 0.0
O225 O 0.3325 0.39551 0.91313 0.0
O226 O 0.3439 0.37536 0.89851 0.0
C227 C 0.29455 0.38265 0.88567 0.0
O228 O 0.32912 0.3816 0.8607 0.0
Co229 Co 0.32031 0.42101 0.86271 0.0
O230 O 0.31278 0.3971 0.84478 0.0
C231 C 0.36452 0.43786 0.87897 0.0
C232 C 0.34156 0.38328 0.91387 0.0
C233 C 0.32004 0.38368 0.84612 0.0
O234 O 0.35943 0.41819 0.88384 0.0
O235 O 0.35067 0.44257 0.87181 0.0
O236 O 0.29906 0.36734 0.89011 0.0
O237 O 0.31135 0.40218 0.88385 0.0
Co238 Co 0.93507 0.3239 0.38615 0.0
O239 O 0.9345 0.32198 0.41217 0.0
O240 O 0.96509 0.33829 0.39569 0.0
C241 C 0.90913 0.28829 0.38161 0.0
O242 O 0.94113 0.32757 0.35867 0.0
Co243 Co 0.89208 0.31564 0.36655 0.0
O244 O 0.90781 0.31292 0.34517 0.0
C245 C 0.91987 0.35793 0.38519 0.0
C246 C 0.95583 0.33245 0.41165 0.0
C247 C 0.92862 0.32062 0.34444 0.0
O248 O 0.93501 0.35279 0.38746 0.0
O249 O 0.9008 0.34456 0.37863 0.0
O250 O 0.92952 0.29354 0.38444 0.0
O251 O 0.90499 0.3042 0.3834 0.0
Co252 Co 0.0594 0.38872 0.61976 0.0
O253 O 0.06276 0.39514 0.59418 0.0
O254 O 0.03079 0.37366 0.6078 0.0
C255 C 0.08714 0.38117 0.62178 0.0
O256 O 0.05009 0.3781 0.64602 0.0
Co257 Co 0.098 0.41789 0.64616 0.0
O258 O 0.08111 0.39278 0.6629 0.0
C259 C 0.0702 0.43493 0.63092 0.0
C260 C 0.04158 0.3825 0.59283 0.0
C261 C 0.06054 0.37938 0.66086 0.0
O262 O 0.05673 0.41582 0.62419 0.0
O263 O 0.08823 0.43931 0.6389 0.0
O264 O 0.06774 0.36604 0.61633 0.0
O265 O 0.08948 0.40048 0.62425 0.0
Co266 Co 0.6747 0.06609 0.11901 0.0
O267 O 0.67808 0.0675 0.09313 0.0
O268 O 0.66119 0.0364 0.10882 0.0
C269 C 0.70983 0.09222 0.12512 0.0
O270 O 0.66924 0.05919 0.14626 0.0
Co271 Co 0.68092 0.10844 0.1385 0.0
O272 O 0.67952 0.09146 0.16052 0.0
C273 C 0.64029 0.08072 0.11793 0.0
C274 C 0.66757 0.04615 0.09307 0.0
C275 C 0.67287 0.07082 0.16085 0.0
O276 O 0.6458 0.06577 0.11644 0.0
O277 O 0.65305 0.09984 0.12468 0.0
O278 O 0.70504 0.07199 0.12209 0.0
O279 O 0.69387 0.09614 0.12255 0.0
Co280 Co 0.60342 0.66725 0.61989 0.0
O281 O 0.59878 0.66667 0.59417 0.0
O282 O 0.61802 0.65339 0.60752 0.0
C283 C 0.61222 0.70275 0.62345 0.0
O284 O 0.61207 0.66607 0.64639 0.0
Co285 Co 0.57323 0.67586 0.64565 0.0
O286 O 0.59714 0.68221 0.66325 0.0
C287 C 0.55587 0.63235 0.62803 0.0
C288 C 0.61054 0.65719 0.59252 0.0
C289 C 0.61022 0.6746 0.6614 0.0
O290 O 0.57538 0.63787 0.62235 0.0
O291 O 0.55139 0.64571 0.63637 0.0
O292 O 0.62719 0.69804 0.61837 0.0
O293 O 0.59246 0.68616 0.62476 0.0
Co294 Co 0.93639 0.61217 0.11906 0.0
O295 O 0.93408 0.61401 0.09324 0.0
O296 O 0.96566 0.62686 0.10819 0.0
C297 C 0.91183 0.62297 0.12605 0.0
O298 O 0.94455 0.61385 0.14598 0.0
Co299 Co 0.89445 0.57788 0.14008 0.0
O300 O 0.91329 0.592 0.1616 0.0
C301 C 0.91942 0.56262 0.1183 0.0
C302 C 0.95542 0.62395 0.09275 0.0
C303 C 0.93395 0.60578 0.16098 0.0
O304 O 0.935 0.58274 0.11634 0.0
O305 O 0.9009 0.55736 0.12577 0.0
O306 O 0.93215 0.63762 0.12233 0.0
O307 O 0.90678 0.60271 0.12364 0.0
Co308 Co 0.32685 0.93926 0.61798 0.0
O309 O 0.32932 0.93446 0.59261 0.0
O310 O 0.34104 0.96727 0.60508 0.0
C311 C 0.29133 0.91233 0.62069 0.0
O312 O 0.32624 0.94997 0.64383 0.0
Co313 Co 0.31683 0.90151 0.64555 0.0
O314 O 0.30915 0.91958 0.66144 0.0
C315 C 0.36158 0.92782 0.62989 0.0
C316 C 0.33857 0.95563 0.59052 0.0
C317 C 0.3168 0.94014 0.65878 0.0
O318 O 0.35624 0.94124 0.62261 0.0
O319 O 0.34779 0.91027 0.63837 0.0
O320 O 0.29603 0.93165 0.61463 0.0
O321 O 0.308 0.90955 0.62334 0.0
Co322 Co 0.39337 0.32184 0.12009 0.0
O323 O 0.39331 0.31884 0.09416 0.0
O324 O 0.37834 0.33583 0.10874 0.0
C325 C 0.38352 0.2865 0.12637 0.0
O326 O 0.38962 0.32696 0.14697 0.0
Co327 Co 0.42695 0.31465 0.14269 0.0
O328 O 0.40949 0.31583 0.16341 0.0
C329 C 0.44249 0.35575 0.12191 0.0
C330 C 0.38265 0.32954 0.09335 0.0
C331 C 0.39582 0.32283 0.1623 0.0
O332 O 0.42236 0.35058 0.11874 0.0
O333 O 0.44775 0.34269 0.12976 0.0
O334 O 0.36853 0.29158 0.12221 0.0
O335 O 0.40363 0.30234 0.12485 0.0
H336 H 0.40891 0.09675 0.31135 0.0
H337 H 0.3965 0.08241 0.2811 0.0
H338 H 0.35351 0.0176 0.30315 0.0
H339 H 0.3663 0.03191 0.33404 0.0
H340 H 0.37575 0.01569 0.27368 0.0
H341 H 0.3316 0.04812 0.28608 0.0
H342 H 0.32304 0.07652 0.29658 0.0
H343 H 0.36632 0.12145 0.25602 0.0
H344 H 0.37549 0.09356 0.2455 0.0
H345 H 0.35021 0.03708 0.17212 0.0
H346 H 0.33824 0.02611 0.20377 0.0
H347 H 0.40473 0.04354 0.21846 0.0
H348 H 0.41664 0.05477 0.18717 0.0
H349 H 0.35471 0.05659 0.23054 0.0
H350 H 0.40522 0.01497 0.25473 0.0
H351 H 0.41327 0.98643 0.24377 0.0
H352 H 0.35492 0.95836 0.21067 0.0
H353 H 0.34629 0.98651 0.22162 0.0
C354 C 0.39671 0.07943 0.30998 0.0
C355 C 0.38857 0.06552 0.32529 0.0
C356 C 0.38949 0.07127 0.29255 0.0
C357 C 0.37369 0.04904 0.28982 0.0
C358 C 0.36556 0.0349 0.30496 0.0
C359 C 0.37288 0.0431 0.32259 0.0
C360 C 0.36683 0.04089 0.27091 0.0
C361 C 0.37083 0.02438 0.26426 0.0
C362 C 0.35974 0.05178 0.25868 0.0
C363 C 0.35422 0.06866 0.26498 0.0
C364 C 0.33939 0.06409 0.27946 0.0
C365 C 0.33443 0.08012 0.28542 0.0
C366 C 0.3441 0.10075 0.27694 0.0
C367 C 0.3588 0.10544 0.26254 0.0
C368 C 0.36386 0.08951 0.25655 0.0
C369 C 0.36199 0.0377 0.18202 0.0
C370 C 0.3843 0.04665 0.1773 0.0
C371 C 0.35519 0.03155 0.20008 0.0
C372 C 0.37055 0.03387 0.21349 0.0
C373 C 0.39248 0.04123 0.20836 0.0
C374 C 0.39931 0.04771 0.19048 0.0
C375 C 0.36513 0.03252 0.23317 0.0
C376 C 0.3589 0.04734 0.23999 0.0
C377 C 0.37009 0.02005 0.2455 0.0
C378 C 0.37514 0.00295 0.23898 0.0
C379 C 0.394 0.00263 0.24522 0.0
C380 C 0.39869 0.98653 0.23897 0.0
C381 C 0.38464 0.97061 0.22652 0.0
C382 C 0.36583 0.97074 0.22028 0.0
C383 C 0.36105 0.98679 0.22648 0.0
H384 H 0.38831 0.95817 0.2217 0.0
H385 H 0.34019 0.11311 0.28151 0.0
H386 H 0.35212 0.3785 0.67981 0.0
H387 H 0.35236 0.36886 0.71187 0.0
H388 H 0.28117 0.33269 0.71195 0.0
H389 H 0.28099 0.34285 0.68018 0.0
H390 H 0.29778 0.36722 0.73437 0.0
H391 H 0.31105 0.30743 0.72266 0.0
H392 H 0.33054 0.28955 0.70938 0.0
H393 H 0.3897 0.3349 0.7378 0.0
H394 H 0.37066 0.35328 0.75105 0.0
H395 H 0.28361 0.35582 0.82707 0.0
H396 H 0.28236 0.34337 0.79579 0.0
H397 H 0.35338 0.37407 0.7955 0.0
H398 H 0.35445 0.38547 0.82727 0.0
H399 H 0.33669 0.33954 0.77323 0.0
H400 H 0.32679 0.40211 0.78119 0.0
H401 H 0.31055 0.42444 0.79162 0.0
H402 H 0.24824 0.37763 0.76815 0.0
H403 H 0.26402 0.35487 0.7578 0.0
C404 C 0.3366 0.36753 0.68646 0.0
C405 C 0.31653 0.36127 0.6776 0.0
C406 C 0.33672 0.36206 0.7048 0.0
C407 C 0.31676 0.35015 0.71439 0.0
C408 C 0.29676 0.3419 0.70486 0.0
C409 C 0.29665 0.34758 0.68668 0.0
C410 C 0.31651 0.35044 0.73462 0.0
C411 C 0.30581 0.3606 0.74286 0.0
C412 C 0.32799 0.3429 0.74566 0.0
C413 C 0.33946 0.33186 0.73773 0.0
C414 C 0.32827 0.31373 0.72595 0.0
C415 C 0.33923 0.30347 0.71846 0.0
C416 C 0.36135 0.31111 0.72271 0.0
C417 C 0.37256 0.329 0.73451 0.0
C418 C 0.36169 0.33933 0.74203 0.0
C419 C 0.29885 0.35914 0.82052 0.0
C420 C 0.31911 0.37151 0.82949 0.0
C421 C 0.29817 0.35222 0.8026 0.0
C422 C 0.31783 0.35835 0.79306 0.0
C423 C 0.338 0.36922 0.8025 0.0
C424 C 0.33862 0.37568 0.82066 0.0
C425 C 0.31741 0.35582 0.7729 0.0
C426 C 0.32825 0.34565 0.7647 0.0
C427 C 0.30638 0.36372 0.76168 0.0
C428 C 0.29654 0.3767 0.76886 0.0
C429 C 0.30955 0.39643 0.77847 0.0
C430 C 0.30045 0.4092 0.78432 0.0
C431 C 0.27841 0.40248 0.78048 0.0
C432 C 0.26532 0.38282 0.77107 0.0
C433 C 0.27432 0.36998 0.76523 0.0
H434 H 0.2715 0.41257 0.78465 0.0
H435 H 0.3698 0.30314 0.7169 0.0
H436 H 0.91675 0.2934 0.18585 0.0
H437 H 0.9299 0.29845 0.21712 0.0
H438 H 0.98633 0.36099 0.2028 0.0
H439 H 0.97314 0.35601 0.17111 0.0
H440 H 0.98405 0.3215 0.23523 0.0
H441 H 0.96511 0.37886 0.21874 0.0
H442 H 0.94273 0.39051 0.20096 0.0
H443 H 0.88336 0.33631 0.22271 0.0
H444 H 0.90543 0.3242 0.24041 0.0
H445 H 0.97182 0.34692 0.33266 0.0
H446 H 0.98495 0.35235 0.30087 0.0
H447 H 0.9198 0.30342 0.28323 0.0
H448 H 0.90677 0.29773 0.3144 0.0
H449 H 0.93816 0.34707 0.26682 0.0
H450 H 0.95542 0.28921 0.282 0.0
H451 H 0.97554 0.27425 0.29886 0.0
H452 H 0.03723 0.32765 0.27975 0.0
H453 H 0.01745 0.34309 0.26297 0.0
C454 C 0.93234 0.30793 0.18918 0.0
C455 C 0.9438 0.32444 0.1761 0.0
C456 C 0.9399 0.31071 0.20704 0.0
C457 C 0.95902 0.33009 0.21227 0.0
C458 C 0.97161 0.34583 0.19896 0.0
C459 C 0.96407 0.34298 0.1809 0.0
C460 C 0.96267 0.33518 0.23195 0.0
C461 C 0.97471 0.32784 0.2422 0.0
C462 C 0.95016 0.34305 0.24101 0.0
C463 C 0.93689 0.3506 0.23079 0.0
C464 C 0.94728 0.36939 0.21964 0.0
C465 C 0.93466 0.37607 0.20959 0.0
C466 C 0.91164 0.36414 0.21068 0.0
C467 C 0.90119 0.34553 0.22187 0.0
C468 C 0.91374 0.33878 0.23193 0.0
C469 C 0.96047 0.33706 0.32201 0.0
C470 C 0.93815 0.32217 0.32606 0.0
C471 C 0.96797 0.3402 0.30389 0.0
C472 C 0.95323 0.32845 0.28972 0.0
C473 C 0.93137 0.31281 0.29394 0.0
C474 C 0.92395 0.30964 0.31182 0.0
C475 C 0.9594 0.33323 0.27026 0.0
C476 C 0.94866 0.34198 0.26 0.0
C477 C 0.97319 0.32676 0.26134 0.0
C478 C 0.98499 0.31749 0.27148 0.0
C479 C 0.97328 0.29791 0.28158 0.0
C480 C 0.98462 0.2893 0.29107 0.0
C481 C 0.00766 0.30004 0.29044 0.0
C482 C 0.0194 0.31938 0.28027 0.0
C483 C 0.00813 0.32806 0.27076 0.0
H484 H 0.0164 0.29335 0.29779 0.0
H485 H 0.9019 0.36932 0.20288 0.0
H486 H 0.62591 0.97432 0.67293 0.0
H487 H 0.63551 0.98871 0.70425 0.0
H488 H 0.63259 0.92829 0.72112 0.0
H489 H 0.62337 0.91404 0.69025 0.0
H490 H 0.60094 0.94399 0.73789 0.0
H491 H 0.6774 0.96283 0.72295 0.0
H492 H 0.71201 0.98406 0.7057 0.0
H493 H 0.71691 0.04473 0.72384 0.0
H494 H 0.68212 0.0238 0.741 0.0
H495 H 0.63548 0.92263 0.818 0.0
H496 H 0.64381 0.9369 0.78703 0.0
H497 H 0.63324 0.99043 0.8022 0.0
H498 H 0.62474 0.97608 0.83351 0.0
H499 H 0.67244 0.99006 0.76934 0.0
H500 H 0.59584 0.97131 0.7852 0.0
H501 H 0.56192 0.94926 0.80313 0.0
H502 H 0.55737 0.88948 0.78296 0.0
H503 H 0.59151 0.91125 0.76515 0.0
C504 C 0.62805 0.96447 0.68322 0.0
C505 C 0.62366 0.94296 0.67917 0.0
C506 C 0.63343 0.97266 0.70108 0.0
C507 C 0.63461 0.95946 0.71495 0.0
C508 C 0.63172 0.93869 0.7106 0.0
C509 C 0.62642 0.93058 0.69293 0.0
C510 C 0.63594 0.96548 0.73441 0.0
C511 C 0.61651 0.95454 0.7447 0.0
C512 C 0.65618 0.97934 0.74329 0.0
C513 C 0.67703 0.99178 0.73301 0.0
C514 C 0.68572 0.98069 0.72308 0.0
C515 C 0.7054 0.99266 0.71337 0.0
C516 C 0.71661 0.01573 0.71361 0.0
C517 C 0.70819 0.02687 0.72362 0.0
C518 C 0.6885 0.01496 0.73334 0.0
C519 C 0.6357 0.9379 0.81494 0.0
C520 C 0.62925 0.94813 0.82811 0.0
C521 C 0.64057 0.94609 0.79725 0.0
C522 C 0.63903 0.96462 0.79232 0.0
C523 C 0.63464 0.97616 0.8058 0.0
C524 C 0.62983 0.96798 0.82367 0.0
C525 C 0.63744 0.96847 0.77271 0.0
C526 C 0.65673 0.98065 0.76242 0.0
C527 C 0.61701 0.95601 0.76369 0.0
C528 C 0.59623 0.94287 0.77398 0.0
C529 C 0.58763 0.95346 0.78468 0.0
C530 C 0.56838 0.94102 0.7948 0.0
C531 C 0.55749 0.91798 0.79419 0.0
C532 C 0.56582 0.90733 0.78342 0.0
C533 C 0.58511 0.91971 0.77331 0.0
H534 H 0.54258 0.90838 0.80205 0.0
H535 H 0.73185 0.02497 0.70609 0.0
H536 H 0.64863 0.62736 0.33116 0.0
H537 H 0.6447 0.63838 0.30021 0.0
H538 H 0.70867 0.64757 0.2862 0.0
H539 H 0.71266 0.63686 0.31682 0.0
H540 H 0.70147 0.67712 0.26848 0.0
H541 H 0.6608 0.59718 0.28068 0.0
H542 H 0.63223 0.56424 0.29672 0.0
H543 H 0.58261 0.57922 0.27913 0.0
H544 H 0.61098 0.6124 0.26315 0.0
H545 H 0.71063 0.63186 0.1879 0.0
H546 H 0.7074 0.64467 0.21788 0.0
H547 H 0.64293 0.63419 0.20394 0.0
H548 H 0.64621 0.62125 0.17353 0.0
H549 H 0.64231 0.61319 0.23522 0.0
H550 H 0.6839 0.68633 0.21393 0.0
H551 H 0.71348 0.71795 0.19741 0.0
H552 H 0.7622 0.71568 0.23143 0.0
H553 H 0.73298 0.68385 0.24799 0.0
C554 C 0.66212 0.6325 0.32162 0.0
C555 C 0.68084 0.63104 0.3263 0.0
C556 C 0.65981 0.63864 0.30392 0.0
C557 C 0.67624 0.64346 0.29076 0.0
C558 C 0.69575 0.64392 0.29603 0.0
C559 C 0.69798 0.63769 0.31355 0.0
C560 C 0.67244 0.6451 0.27105 0.0
C561 C 0.68842 0.66328 0.26117 0.0
C562 C 0.65501 0.62736 0.26151 0.0
C563 C 0.63799 0.60736 0.27094 0.0
C564 C 0.6438 0.59348 0.28033 0.0
C565 C 0.62766 0.57479 0.2894 0.0
C566 C 0.60563 0.56968 0.289 0.0
C567 C 0.59969 0.58323 0.27947 0.0
C568 C 0.61578 0.60198 0.27041 0.0
C569 C 0.69598 0.63282 0.19103 0.0
C570 C 0.67865 0.62552 0.17842 0.0
C571 C 0.6942 0.64029 0.20816 0.0
C572 C 0.67499 0.64059 0.21318 0.0
C573 C 0.65798 0.63426 0.20032 0.0
C574 C 0.6599 0.627 0.18294 0.0
C575 C 0.67203 0.64473 0.23256 0.0
C576 C 0.65483 0.62756 0.24241 0.0
C577 C 0.68844 0.66335 0.24204 0.0
C578 C 0.70618 0.68264 0.23222 0.0
C579 C 0.70093 0.69249 0.21785 0.0
C580 C 0.71764 0.71047 0.20847 0.0
C581 C 0.73971 0.71882 0.21337 0.0
C582 C 0.7451 0.70922 0.22767 0.0
C583 C 0.72845 0.69123 0.23709 0.0
H584 H 0.75262 0.73274 0.20609 0.0
H585 H 0.59315 0.5552 0.29603 0.0
H586 H 0.06484 0.7179 0.67652 0.0
H587 H 0.05323 0.71925 0.70767 0.0
H588 H 0.02128 0.64826 0.71099 0.0
H589 H 0.0321 0.6469 0.67947 0.0
H590 H 0.0009 0.66499 0.73349 0.0
H591 H 0.07502 0.67867 0.72126 0.0
H592 H 0.11108 0.69803 0.70573 0.0
H593 H 0.12268 0.7598 0.72776 0.0
H594 H 0.08652 0.74082 0.74322 0.0
H595 H 0.02591 0.64759 0.82428 0.0
H596 H 0.01643 0.64943 0.79254 0.0
H597 H 0.05679 0.72047 0.79397 0.0
H598 H 0.06716 0.7184 0.82535 0.0
H599 H 0.07041 0.70602 0.76863 0.0
H600 H 0.99838 0.69132 0.78515 0.0
H601 H 0.9621 0.67192 0.80027 0.0
H602 H 0.94608 0.61266 0.77096 0.0
H603 H 0.9824 0.63161 0.75584 0.0
C604 C 0.05441 0.70256 0.68363 0.0
C605 C 0.04922 0.6823 0.67569 0.0
C606 C 0.0479 0.70332 0.70145 0.0
C607 C 0.03683 0.68389 0.71181 0.0
C608 C 0.02981 0.66345 0.70328 0.0
C609 C 0.03596 0.66267 0.68528 0.0
C610 C 0.03625 0.68516 0.73197 0.0
C611 C 0.01604 0.67391 0.74126 0.0
C612 C 0.056 0.69706 0.74208 0.0
C613 C 0.07801 0.70837 0.73325 0.0
C614 C 0.08525 0.69639 0.72274 0.0
C615 C 0.10569 0.70729 0.71394 0.0
C616 C 0.11914 0.73014 0.71572 0.0
C617 C 0.11223 0.74211 0.72638 0.0
C618 C 0.09177 0.73129 0.73517 0.0
C619 C 0.03192 0.66361 0.81801 0.0
C620 C 0.04713 0.68287 0.8272 0.0
C621 C 0.02653 0.66469 0.79983 0.0
C622 C 0.03593 0.68511 0.79072 0.0
C623 C 0.04941 0.7045 0.80059 0.0
C624 C 0.05519 0.70337 0.81857 0.0
C625 C 0.03495 0.68605 0.77049 0.0
C626 C 0.05506 0.6975 0.76107 0.0
C627 C 0.0151 0.67434 0.76041 0.0
C628 C 0.99321 0.66287 0.76946 0.0
C629 C 0.9872 0.67411 0.78203 0.0
C630 C 0.96661 0.66319 0.79058 0.0
C631 C 0.95181 0.64106 0.7866 0.0
C632 C 0.95757 0.6298 0.77403 0.0
C633 C 0.97814 0.64064 0.76545 0.0
H634 H 0.93588 0.63264 0.79324 0.0
H635 H 0.13494 0.73856 0.70887 0.0
H636 H 0.9254 0.57992 0.19056 0.0
H637 H 0.93945 0.59117 0.22125 0.0
H638 H 0.98279 0.65761 0.20243 0.0
H639 H 0.96856 0.64625 0.17129 0.0
H640 H 0.97797 0.60919 0.23942 0.0
H641 H 0.97953 0.69131 0.23573 0.0
H642 H 0.96519 0.71054 0.21677 0.0
H643 H 0.90873 0.64835 0.20252 0.0
H644 H 0.92259 0.62886 0.22159 0.0
H645 H 0.97319 0.62843 0.33406 0.0
H646 H 0.98863 0.63974 0.30331 0.0
H647 H 0.92508 0.62694 0.28382 0.0
H648 H 0.91002 0.61653 0.31416 0.0
H649 H 0.95502 0.65988 0.26584 0.0
H650 H 0.94251 0.58645 0.28377 0.0
H651 H 0.95 0.56183 0.3028 0.0
H652 H 0.01867 0.59883 0.28854 0.0
H653 H 0.01156 0.62377 0.26954 0.0
C654 C 0.93823 0.59685 0.19285 0.0
C655 C 0.94569 0.61229 0.17859 0.0
C656 C 0.94641 0.60323 0.2104 0.0
C657 C 0.96207 0.62526 0.21421 0.0
C658 C 0.97065 0.64052 0.1998 0.0
C659 C 0.96257 0.63403 0.18204 0.0
C660 C 0.96677 0.63218 0.23357 0.0
C661 C 0.97352 0.62073 0.24519 0.0
C662 C 0.96085 0.6471 0.24115 0.0
C663 C 0.95227 0.65867 0.22983 0.0
C664 C 0.96406 0.68179 0.22855 0.0
C665 C 0.956 0.69272 0.21781 0.0
C666 C 0.93611 0.68068 0.20839 0.0
C667 C 0.92416 0.65767 0.20977 0.0
C668 C 0.93211 0.64668 0.22054 0.0
C669 C 0.96274 0.62862 0.32327 0.0
C670 C 0.94027 0.62117 0.32649 0.0
C671 C 0.97154 0.63497 0.30569 0.0
C672 C 0.95794 0.63383 0.29112 0.0
C673 C 0.93599 0.62799 0.29473 0.0
C674 C 0.9273 0.6218 0.31215 0.0
C675 C 0.96509 0.63601 0.27178 0.0
C676 C 0.96063 0.64924 0.26011 0.0
C677 C 0.97235 0.62211 0.26417 0.0
C678 C 0.97657 0.60708 0.27546 0.0
C679 C 0.95921 0.58936 0.28478 0.0
C680 C 0.96338 0.57536 0.29554 0.0
C681 C 0.98481 0.57882 0.29693 0.0
C682 C 0.00209 0.59622 0.28749 0.0
C683 C 0.99801 0.61029 0.27673 0.0
H684 H 0.98802 0.56798 0.30528 0.0
H685 H 0.92993 0.68917 0.20005 0.0
H686 H 0.34831 0.96962 0.82592 0.0
H687 H 0.34833 0.98134 0.79441 0.0
H688 H 0.27863 0.93451 0.79047 0.0
H689 H 0.27882 0.92238 0.82156 0.0
H690 H 0.30078 0.92621 0.76611 0.0
H691 H 0.3001 0.99123 0.78614 0.0
H692 H 0.31322 0.02588 0.80326 0.0
H693 H 0.37561 0.05416 0.77571 0.0
H694 H 0.36298 0.01956 0.75859 0.0
H695 H 0.28091 0.93403 0.6773 0.0
H696 H 0.28058 0.94446 0.70896 0.0
H697 H 0.35166 0.98308 0.70859 0.0
H698 H 0.35193 0.97318 0.67657 0.0
H699 H 0.33022 0.99839 0.73481 0.0
H700 H 0.33248 0.93282 0.71756 0.0
H701 H 0.31993 0.89855 0.69998 0.0
H702 H 0.2552 0.87149 0.72323 0.0
H703 H 0.26729 0.9058 0.7407 0.0
C704 C 0.33286 0.96255 0.81852 0.0
C705 C 0.31356 0.94509 0.82606 0.0
C706 C 0.33287 0.96921 0.8005 0.0
C707 C 0.3135 0.95868 0.78998 0.0
C708 C 0.29381 0.94277 0.79824 0.0
C709 C 0.29388 0.93591 0.81603 0.0
C710 C 0.31425 0.96123 0.76985 0.0
C711 C 0.30685 0.94202 0.75938 0.0
C712 C 0.32302 0.98189 0.76093 0.0
C713 C 0.33066 0.00271 0.77121 0.0
C714 C 0.31669 0.00476 0.78385 0.0
C715 C 0.32403 0.02441 0.79353 0.0
C716 C 0.34526 0.04219 0.79062 0.0
C717 C 0.35918 0.04037 0.77798 0.0
C718 C 0.35193 0.02075 0.76826 0.0
C719 C 0.29636 0.94571 0.68369 0.0
C720 C 0.31643 0.95284 0.67459 0.0
C721 C 0.29619 0.95162 0.70179 0.0
C722 C 0.31612 0.9642 0.71122 0.0
C723 C 0.3361 0.97341 0.70156 0.0
C724 C 0.33625 0.96778 0.68327 0.0
C725 C 0.3161 0.96332 0.7314 0.0
C726 C 0.32393 0.98269 0.74174 0.0
C727 C 0.30787 0.94281 0.7404 0.0
C728 C 0.30072 0.92194 0.73029 0.0
C729 C 0.31554 0.91961 0.71884 0.0
C730 C 0.30851 0.90018 0.7089 0.0
C731 C 0.28677 0.88287 0.71046 0.0
C732 C 0.27203 0.88492 0.72202 0.0
C733 C 0.27896 0.90435 0.73194 0.0
H734 H 0.28135 0.86785 0.70274 0.0
H735 H 0.3509 0.05739 0.79812 0.0
H736 H 0.36975 0.35309 0.32985 0.0
H737 H 0.36003 0.35801 0.29877 0.0
H738 H 0.35087 0.2942 0.28406 0.0
H739 H 0.36018 0.28922 0.31484 0.0
H740 H 0.38533 0.36237 0.27169 0.0
H741 H 0.32108 0.27221 0.24806 0.0
H742 H 0.28603 0.24115 0.25909 0.0
H743 H 0.27482 0.28561 0.2916 0.0
H744 H 0.30964 0.31703 0.28056 0.0
H745 H 0.41346 0.3266 0.19587 0.0
H746 H 0.40001 0.33157 0.22482 0.0
H747 H 0.34594 0.33294 0.19788 0.0
H748 H 0.35946 0.32784 0.16831 0.0
H749 H 0.33301 0.30538 0.22889 0.0
H750 H 0.38335 0.37968 0.21546 0.0
H751 H 0.41787 0.41138 0.20423 0.0
H752 H 0.45453 0.40047 0.24575 0.0
H753 H 0.42031 0.3685 0.25708 0.0
C754 C 0.36471 0.33976 0.32015 0.0
C755 C 0.36589 0.32085 0.32468 0.0
C756 C 0.35928 0.34263 0.30236 0.0
C757 C 0.35467 0.32649 0.28898 0.0
C758 C 0.35393 0.30677 0.29408 0.0
C759 C 0.35945 0.30399 0.3117 0.0
C760 C 0.35483 0.33148 0.26927 0.0
C761 C 0.37359 0.35014 0.26235 0.0
C762 C 0.33921 0.31593 0.25695 0.0
C763 C 0.31805 0.29704 0.26346 0.0
C764 C 0.31107 0.27544 0.25742 0.0
C765 C 0.29125 0.25773 0.26373 0.0
C766 C 0.27821 0.2614 0.27605 0.0
C767 C 0.28496 0.28278 0.28208 0.0
C768 C 0.30476 0.30055 0.27582 0.0
C769 C 0.39873 0.32801 0.19593 0.0
C770 C 0.38753 0.32676 0.17969 0.0
C771 C 0.39113 0.33102 0.21256 0.0
C772 C 0.37214 0.33292 0.21351 0.0
C773 C 0.36074 0.33166 0.19741 0.0
C774 C 0.36851 0.32882 0.18056 0.0
C775 C 0.36427 0.33526 0.23169 0.0
C776 C 0.34419 0.31801 0.23825 0.0
C777 C 0.3785 0.35225 0.2437 0.0
C778 C 0.3992 0.37167 0.23714 0.0
C779 C 0.39878 0.38398 0.22216 0.0
C780 C 0.41831 0.402 0.21578 0.0
C781 C 0.43838 0.40794 0.22428 0.0
C782 C 0.43896 0.39588 0.23921 0.0
C783 C 0.41949 0.37783 0.24564 0.0
H784 H 0.45348 0.42188 0.2193 0.0
H785 H 0.26288 0.24767 0.28092 0.0
H786 H 0.07481 0.36075 0.68559 0.0
H787 H 0.05997 0.34771 0.71588 0.0
H788 H 0.00489 0.35726 0.70396 0.0
H789 H 0.01986 0.37038 0.6733 0.0
H790 H 0.02669 0.37916 0.73432 0.0
H791 H 0.995 0.30551 0.71414 0.0
H792 H 0.99276 0.27368 0.69779 0.0
H793 H 0.04541 0.27744 0.73047 0.0
H794 H 0.04821 0.30949 0.74685 0.0
H795 H 0.02093 0.36709 0.83011 0.0
H796 H 0.00543 0.3549 0.79948 0.0
H797 H 0.06067 0.3465 0.78533 0.0
H798 H 0.07595 0.35841 0.81568 0.0
H799 H 0.02376 0.31625 0.76795 0.0
H800 H 0.06263 0.39613 0.77923 0.0
H801 H 0.06737 0.42936 0.79502 0.0
H802 H 0.00245 0.41422 0.77828 0.0
H803 H 0.99726 0.38072 0.76258 0.0
C804 C 0.05917 0.35942 0.68921 0.0
C805 C 0.04849 0.36659 0.67712 0.0
C806 C 0.05061 0.35185 0.70653 0.0
C807 C 0.03122 0.35137 0.71223 0.0
C808 C 0.01981 0.35736 0.69982 0.0
C809 C 0.02827 0.3647 0.68228 0.0
C810 C 0.02509 0.34769 0.73183 0.0
C811 C 0.02524 0.365 0.74162 0.0
C812 C 0.0235 0.32939 0.74144 0.0
C813 C 0.02182 0.30997 0.73173 0.0
C814 C 0.00619 0.29964 0.71779 0.0
C815 C 0.00481 0.28154 0.70852 0.0
C816 C 0.01893 0.27355 0.71308 0.0
C817 C 0.03445 0.28363 0.72696 0.0
C818 C 0.03591 0.30174 0.73628 0.0
C819 C 0.02927 0.36183 0.82065 0.0
C820 C 0.04975 0.3639 0.82517 0.0
C821 C 0.0205 0.35502 0.80312 0.0
C822 C 0.03209 0.35014 0.78998 0.0
C823 C 0.05141 0.35019 0.79516 0.0
C824 C 0.0602 0.3571 0.81252 0.0
C825 C 0.02636 0.34814 0.77031 0.0
C826 C 0.02416 0.32987 0.76056 0.0
C827 C 0.02624 0.36563 0.76069 0.0
C828 C 0.02944 0.38582 0.76996 0.0
C829 C 0.04933 0.39984 0.77902 0.0
C830 C 0.0521 0.41871 0.78794 0.0
C831 C 0.03519 0.42386 0.78771 0.0
C832 C 0.01551 0.41018 0.77849 0.0
C833 C 0.01263 0.39124 0.76959 0.0
H834 H 0.03736 0.43848 0.79462 0.0
H835 H 0.01785 0.25954 0.70588 0.0
H836 H 0.64198 0.02479 0.33244 0.0
H837 H 0.63582 0.0104 0.30112 0.0
H838 H 0.7 0.06379 0.28576 0.0
H839 H 0.70607 0.07802 0.31667 0.0
H840 H 0.63277 0.03225 0.27273 0.0
H841 H 0.72155 0.05175 0.25111 0.0
H842 H 0.75137 0.04654 0.26353 0.0
H843 H 0.7047 0.99371 0.29732 0.0
H844 H 0.67452 0.99833 0.28492 0.0
H845 H 0.6701 0.08841 0.19299 0.0
H846 H 0.66466 0.07281 0.22317 0.0
H847 H 0.66077 0.01381 0.20117 0.0
H848 H 0.66644 0.02958 0.17031 0.0
H849 H 0.68808 0.03001 0.23185 0.0
H850 H 0.61472 0.00912 0.21727 0.0
H851 H 0.58458 0.0135 0.20439 0.0
H852 H 0.59822 0.06498 0.24284 0.0
H853 H 0.62868 0.0612 0.25576 0.0
C854 C 0.65501 0.03293 0.32247 0.0
C855 C 0.67447 0.05253 0.32693 0.0
C856 C 0.65145 0.0248 0.30458 0.0
C857 C 0.66749 0.03591 0.29105 0.0
C858 C 0.6875 0.05463 0.29592 0.0
C859 C 0.69092 0.06286 0.31362 0.0
C860 C 0.66256 0.03038 0.27142 0.0
C861 C 0.64461 0.03128 0.26381 0.0
C862 C 0.67761 0.02844 0.25973 0.0
C863 C 0.69573 0.02543 0.26708 0.0
C864 C 0.71759 0.03889 0.26107 0.0
C865 C 0.73458 0.03607 0.26815 0.0
C866 C 0.72994 0.01982 0.28122 0.0
C867 C 0.70829 0.00632 0.28723 0.0
C868 C 0.69123 0.00906 0.2802 0.0
C869 C 0.66806 0.07206 0.19437 0.0
C870 C 0.66877 0.06029 0.1791 0.0
C871 C 0.66476 0.06308 0.21174 0.0
C872 C 0.66197 0.04201 0.21445 0.0
C873 C 0.66272 0.03006 0.19935 0.0
C874 C 0.6659 0.03906 0.18175 0.0
C875 C 0.65925 0.03349 0.23336 0.0
C876 C 0.67579 0.03008 0.24079 0.0
C877 C 0.64271 0.03279 0.24491 0.0
C878 C 0.62402 0.03484 0.23751 0.0
C879 C 0.61134 0.02142 0.22296 0.0
C880 C 0.5942 0.02381 0.21563 0.0
C881 C 0.58948 0.0395 0.22279 0.0
C882 C 0.60186 0.0528 0.23733 0.0
C883 C 0.61905 0.0505 0.24469 0.0
H884 H 0.57624 0.04135 0.21707 0.0
H885 H 0.74312 0.01768 0.28668 0.0
H886 H 0.62915 0.70711 0.68634 0.0
H887 H 0.64167 0.70475 0.7167 0.0
H888 H 0.63008 0.63936 0.70484 0.0
H889 H 0.61748 0.64179 0.67408 0.0
H890 H 0.60886 0.64017 0.73548 0.0
H891 H 0.68232 0.67991 0.71474 0.0
H892 H 0.71452 0.70858 0.69811 0.0
H893 H 0.71305 0.75893 0.73047 0.0
H894 H 0.68065 0.73062 0.74713 0.0
H895 H 0.62463 0.64792 0.83162 0.0
H896 H 0.63459 0.6434 0.80044 0.0
H897 H 0.643 0.70696 0.78601 0.0
H898 H 0.63311 0.71145 0.81684 0.0
H899 H 0.67306 0.69937 0.76845 0.0
H900 H 0.5934 0.66019 0.78075 0.0
H901 H 0.56001 0.63229 0.79673 0.0
H902 H 0.57323 0.58134 0.77953 0.0
H903 H 0.60687 0.60903 0.76362 0.0
C904 C 0.62987 0.69247 0.69 0.0
C905 C 0.62235 0.67463 0.67788 0.0
C906 C 0.63715 0.69117 0.70736 0.0
C907 C 0.63698 0.67193 0.71309 0.0
C908 C 0.63049 0.65443 0.70068 0.0
C909 C 0.62345 0.65587 0.6831 0.0
C910 C 0.64073 0.66945 0.73267 0.0
C911 C 0.62328 0.65268 0.74263 0.0
C912 C 0.65939 0.68589 0.74209 0.0
C913 C 0.67899 0.70309 0.73219 0.0
C914 C 0.68878 0.6971 0.71825 0.0
C915 C 0.70708 0.7133 0.70882 0.0
C916 C 0.71582 0.73556 0.71323 0.0
C917 C 0.70629 0.74168 0.72709 0.0
C918 C 0.68797 0.72555 0.73657 0.0
C919 C 0.62931 0.66118 0.82191 0.0
C920 C 0.62794 0.67996 0.82656 0.0
C921 C 0.63486 0.65853 0.80409 0.0
C922 C 0.63929 0.67473 0.79081 0.0
C923 C 0.63968 0.69424 0.79597 0.0
C924 C 0.63392 0.69675 0.81359 0.0
C925 C 0.6408 0.67071 0.77114 0.0
C926 C 0.65915 0.68632 0.76121 0.0
C927 C 0.62295 0.65327 0.76171 0.0
C928 C 0.60276 0.63667 0.77123 0.0
C929 C 0.58925 0.64306 0.7805 0.0
C930 C 0.57029 0.62729 0.78952 0.0
C931 C 0.56455 0.60507 0.78919 0.0
C932 C 0.57774 0.59856 0.77981 0.0
C933 C 0.59675 0.61428 0.7708 0.0
H934 H 0.54983 0.59288 0.79614 0.0
H935 H 0.72999 0.74808 0.7059 0.0
H936 H 0.4096 0.1263 0.13751 0.0
H937 H 0.40285 0.15666 0.14376 0.0
H938 H 0.33352 0.11409 0.13266 0.0
H939 H 0.34024 0.08353 0.12624 0.0
H940 H 0.35027 0.15181 0.11365 0.0
H941 H 0.35013 0.13302 0.17549 0.0
H942 H 0.36303 0.12303 0.20318 0.0
H943 H 0.42323 0.18546 0.20188 0.0
H944 H 0.41086 0.19571 0.17402 0.0
H945 H 0.34298 0.24887 0.1272 0.0
H946 H 0.33528 0.21112 0.13305 0.0
H947 H 0.40453 0.23581 0.143 0.0
H948 H 0.41225 0.27336 0.1374 0.0
H949 H 0.37903 0.2027 0.16642 0.0
H950 H 0.38214 0.21684 0.10126 0.0
H951 H 0.37013 0.22668 0.07297 0.0
H952 H 0.30442 0.17229 0.08065 0.0
H953 H 0.31602 0.16231 0.10914 0.0
C954 C 0.39286 0.12329 0.13667 0.0
C955 C 0.37546 0.10259 0.13129 0.0
C956 C 0.38898 0.14062 0.14037 0.0
C957 C 0.36764 0.1376 0.13884 0.0
C958 C 0.3501 0.11674 0.13399 0.0
C959 C 0.35396 0.09932 0.13035 0.0
C960 C 0.36429 0.15686 0.14052 0.0
C961 C 0.35598 0.16262 0.12542 0.0
C962 C 0.37204 0.17112 0.15575 0.0
C963 C 0.37958 0.1651 0.17258 0.0
C964 C 0.36619 0.14457 0.18103 0.0
C965 C 0.3734 0.13887 0.19677 0.0
C966 C 0.39394 0.15359 0.20427 0.0
C967 C 0.40731 0.17407 0.19606 0.0
C968 C 0.40018 0.17985 0.1803 0.0
C969 C 0.35648 0.24623 0.13089 0.0
C970 C 0.37824 0.26402 0.13165 0.0
C971 C 0.35207 0.22469 0.13421 0.0
C972 C 0.36938 0.22065 0.13828 0.0
C973 C 0.39092 0.23854 0.13992 0.0
C974 C 0.39533 0.26 0.1366 0.0
C975 C 0.36566 0.19787 0.13935 0.0
C976 C 0.37271 0.19152 0.15492 0.0
C977 C 0.3568 0.18304 0.12454 0.0
C978 C 0.34986 0.18902 0.10743 0.0
C979 C 0.3651 0.20709 0.09698 0.0
C980 C 0.35837 0.21268 0.08091 0.0
C981 C 0.33651 0.20017 0.07505 0.0
C982 C 0.32134 0.182 0.08523 0.0
C983 C 0.32797 0.17638 0.10134 0.0
H984 H 0.33133 0.20451 0.0626 0.0
H985 H 0.39949 0.14914 0.21646 0.0
H986 H 0.08946 0.34439 0.61264 0.0
H987 H 0.12145 0.33915 0.61585 0.0
H988 H 0.15778 0.40281 0.64184 0.0
H989 H 0.12626 0.40835 0.63825 0.0
H990 H 0.18099 0.39937 0.61536 0.0
H991 H 0.13823 0.35342 0.66543 0.0
H992 H 0.10526 0.32298 0.67993 0.0
H993 H 0.11017 0.27619 0.64527 0.0
H994 H 0.143 0.30641 0.63038 0.0
H995 H 0.27604 0.40115 0.64404 0.0
H996 H 0.2397 0.39779 0.64633 0.0
H997 H 0.211 0.33601 0.61723 0.0
H998 H 0.24744 0.33901 0.61528 0.0
H999 H 0.18297 0.33613 0.64401 0.0
H1000 H 0.22551 0.38202 0.59406 0.0
H1001 H 0.25848 0.41243 0.57953 0.0
H1002 H 0.25346 0.45934 0.61394 0.0
H1003 H 0.22063 0.42916 0.62886 0.0
C1004 C 0.10421 0.35713 0.61921 0.0
C1005 C 0.10544 0.37684 0.62508 0.0
C1006 C 0.12243 0.35407 0.62111 0.0
C1007 C 0.142 0.37057 0.62914 0.0
C1008 C 0.1429 0.3899 0.63554 0.0
C1009 C 0.12485 0.39304 0.63349 0.0
C1010 C 0.16217 0.36864 0.62975 0.0
C1011 C 0.18144 0.38567 0.62186 0.0
C1012 C 0.16259 0.35039 0.63765 0.0
C1013 C 0.14294 0.3322 0.64667 0.0
C1014 C 0.13218 0.33666 0.6608 0.0
C1015 C 0.11353 0.31944 0.66911 0.0
C1016 C 0.10559 0.29767 0.66349 0.0
C1017 C 0.11632 0.29307 0.64959 0.0
C1018 C 0.13495 0.31023 0.64122 0.0
C1019 C 0.26195 0.38665 0.6384 0.0
C1020 C 0.26458 0.3705 0.62924 0.0
C1021 C 0.2412 0.38476 0.63971 0.0
C1022 C 0.22277 0.3669 0.63159 0.0
C1023 C 0.22506 0.34997 0.6235 0.0
C1024 C 0.24586 0.35174 0.62236 0.0
C1025 C 0.20177 0.36716 0.63008 0.0
C1026 C 0.18241 0.3498 0.63758 0.0
C1027 C 0.20115 0.38511 0.6218 0.0
C1028 C 0.22072 0.40331 0.61267 0.0
C1029 C 0.23152 0.39881 0.5986 0.0
C1030 C 0.25017 0.416 0.59029 0.0
C1031 C 0.25809 0.43779 0.59583 0.0
C1032 C 0.24732 0.44245 0.60967 0.0
C1033 C 0.22868 0.42531 0.61804 0.0
H1034 H 0.27254 0.45108 0.58939 0.0
H1035 H 0.09116 0.28436 0.66994 0.0
H1036 H 0.8665 0.27979 0.13184 0.0
H1037 H 0.83689 0.24245 0.13805 0.0
H1038 H 0.88162 0.21764 0.12937 0.0
H1039 H 0.91149 0.25526 0.12277 0.0
H1040 H 0.84411 0.19388 0.11103 0.0
H1041 H 0.86215 0.21764 0.17202 0.0
H1042 H 0.87144 0.24291 0.1981 0.0
H1043 H 0.80784 0.23797 0.19469 0.0
H1044 H 0.79829 0.213 0.16837 0.0
H1045 H 0.74762 0.08976 0.12777 0.0
H1046 H 0.78519 0.12039 0.13308 0.0
H1047 H 0.75985 0.16509 0.13877 0.0
H1048 H 0.72247 0.1347 0.1337 0.0
H1049 H 0.7926 0.1744 0.16315 0.0
H1050 H 0.77952 0.1587 0.09814 0.0
H1051 H 0.77049 0.13477 0.07113 0.0
H1052 H 0.82543 0.12525 0.08235 0.0
H1053 H 0.83461 0.14893 0.10956 0.0
C1054 C 0.87015 0.26646 0.13143 0.0
C1055 C 0.8913 0.27043 0.12678 0.0
C1056 C 0.85322 0.2451 0.13512 0.0
C1057 C 0.8571 0.22727 0.13446 0.0
C1058 C 0.87831 0.2312 0.13007 0.0
C1059 C 0.89533 0.25266 0.12632 0.0
C1060 C 0.83842 0.20449 0.13698 0.0
C1061 C 0.83318 0.18939 0.12268 0.0
C1062 C 0.82404 0.1987 0.1521 0.0
C1063 C 0.82953 0.21345 0.16815 0.0
C1064 C 0.85017 0.22202 0.17676 0.0
C1065 C 0.85549 0.2363 0.1916 0.0
C1066 C 0.84024 0.24204 0.19804 0.0
C1067 C 0.81962 0.23349 0.18969 0.0
C1068 C 0.81424 0.21923 0.17483 0.0
C1069 C 0.75008 0.10608 0.13041 0.0
C1070 C 0.73217 0.10991 0.13014 0.0
C1071 C 0.77152 0.12354 0.13342 0.0
C1072 C 0.77532 0.14505 0.13613 0.0
C1073 C 0.7573 0.14863 0.13673 0.0
C1074 C 0.73595 0.13125 0.13372 0.0
C1075 C 0.79799 0.16428 0.13691 0.0
C1076 C 0.80394 0.17869 0.1518 0.0
C1077 C 0.81304 0.16946 0.12236 0.0
C1078 C 0.80756 0.15532 0.10599 0.0
C1079 C 0.78956 0.15136 0.09491 0.0
C1080 C 0.78444 0.13787 0.07956 0.0
C1081 C 0.79733 0.12843 0.07507 0.0
C1082 C 0.81542 0.13253 0.08588 0.0
C1083 C 0.82059 0.14598 0.10126 0.0
H1084 H 0.79334 0.118 0.06318 0.0
H1085 H 0.84439 0.25312 0.20952 0.0
H1086 H 0.65217 0.74107 0.62162 0.0
H1087 H 0.6587 0.77897 0.62342 0.0
H1088 H 0.58933 0.75353 0.63325 0.0
H1089 H 0.58272 0.7159 0.63162 0.0
H1090 H 0.60663 0.78324 0.60403 0.0
H1091 H 0.62363 0.77632 0.66667 0.0
H1092 H 0.64403 0.7698 0.69094 0.0
H1093 H 0.70476 0.82479 0.67205 0.0
H1094 H 0.68474 0.83141 0.64746 0.0
H1095 H 0.58671 0.86535 0.63266 0.0
H1096 H 0.59242 0.83378 0.63422 0.0
H1097 H 0.66131 0.87578 0.62142 0.0
H1098 H 0.65572 0.9078 0.61979 0.0
H1099 H 0.65088 0.84116 0.64951 0.0
H1100 H 0.63349 0.8499 0.58831 0.0
H1101 H 0.61297 0.85647 0.56418 0.0
H1102 H 0.5534 0.79791 0.58001 0.0
H1103 H 0.57351 0.79118 0.60444 0.0
C1104 C 0.6384 0.74362 0.62441 0.0
C1105 C 0.61691 0.72556 0.62634 0.0
C1106 C 0.64216 0.76523 0.62546 0.0
C1107 C 0.62446 0.76896 0.62838 0.0
C1108 C 0.60317 0.75094 0.6309 0.0
C1109 C 0.59944 0.72946 0.62999 0.0
C1110 C 0.62752 0.79144 0.62762 0.0
C1111 C 0.61626 0.79588 0.614 0.0
C1112 C 0.64072 0.80812 0.64027 0.0
C1113 C 0.65273 0.80418 0.65507 0.0
C1114 C 0.64137 0.78688 0.66757 0.0
C1115 C 0.65285 0.78319 0.68141 0.0
C1116 C 0.67569 0.79682 0.683 0.0
C1117 C 0.68708 0.81421 0.67077 0.0
C1118 C 0.67567 0.81794 0.65688 0.0
C1119 C 0.60316 0.86801 0.63039 0.0
C1120 C 0.62073 0.889 0.62589 0.0
C1121 C 0.60639 0.84994 0.63132 0.0
C1122 C 0.62721 0.85247 0.62775 0.0
C1123 C 0.64512 0.87358 0.62421 0.0
C1124 C 0.64188 0.89177 0.62321 0.0
C1125 C 0.62939 0.83257 0.62626 0.0
C1126 C 0.64162 0.82864 0.63935 0.0
C1127 C 0.61715 0.81628 0.61307 0.0
C1128 C 0.60499 0.82014 0.59829 0.0
C1129 C 0.61598 0.83852 0.58674 0.0
C1130 C 0.60443 0.84226 0.57299 0.0
C1131 C 0.58189 0.82764 0.57058 0.0
C1132 C 0.57086 0.80922 0.58189 0.0
C1133 C 0.58234 0.80543 0.59568 0.0
H1134 H 0.57297 0.83056 0.55993 0.0
H1135 H 0.68455 0.79395 0.69373 0.0
H1136 H 0.74727 0.65706 0.11762 0.0
H1137 H 0.78542 0.66533 0.12198 0.0
H1138 H 0.76175 0.6015 0.14677 0.0
H1139 H 0.72367 0.59306 0.14231 0.0
H1140 H 0.79949 0.63573 0.16423 0.0
H1141 H 0.77334 0.60594 0.10413 0.0
H1142 H 0.75741 0.60466 0.07394 0.0
H1143 H 0.81102 0.66962 0.06206 0.0
H1144 H 0.8271 0.6714 0.09234 0.0
H1145 H 0.87281 0.59709 0.14312 0.0
H1146 H 0.84266 0.60475 0.14758 0.0
H1147 H 0.88218 0.6693 0.12382 0.0
H1148 H 0.91271 0.66186 0.11963 0.0
H1149 H 0.84037 0.64263 0.10716 0.0
H1150 H 0.86994 0.669 0.16578 0.0
H1151 H 0.88587 0.66871 0.19559 0.0
H1152 H 0.82644 0.60925 0.21006 0.0
H1153 H 0.81018 0.60907 0.18024 0.0
C1154 C 0.75023 0.64494 0.12424 0.0
C1155 C 0.73254 0.62433 0.12947 0.0
C1156 C 0.77199 0.64969 0.12672 0.0
C1157 C 0.77634 0.63397 0.13461 0.0
C1158 C 0.75871 0.61387 0.14071 0.0
C1159 C 0.73698 0.60902 0.13804 0.0
C1160 C 0.79902 0.63747 0.135 0.0
C1161 C 0.80848 0.63727 0.15178 0.0
C1162 C 0.81088 0.63994 0.11876 0.0
C1163 C 0.80123 0.63894 0.10059 0.0
C1164 C 0.7816 0.62005 0.09516 0.0
C1165 C 0.77257 0.61921 0.07802 0.0
C1166 C 0.78315 0.63709 0.06611 0.0
C1167 C 0.80281 0.65582 0.07132 0.0
C1168 C 0.81189 0.65675 0.08847 0.0
C1169 C 0.87524 0.61308 0.13917 0.0
C1170 C 0.89501 0.62885 0.13096 0.0
C1171 C 0.85805 0.61747 0.14181 0.0
C1172 C 0.86025 0.63761 0.13607 0.0
C1173 C 0.88026 0.65371 0.1284 0.0
C1174 C 0.89765 0.64946 0.12607 0.0
C1175 C 0.84076 0.64058 0.13637 0.0
C1176 C 0.83175 0.64178 0.11967 0.0
C1177 C 0.82932 0.63892 0.15268 0.0
C1178 C 0.83889 0.63895 0.1707 0.0
C1179 C 0.86031 0.65576 0.17526 0.0
C1180 C 0.86939 0.65571 0.19218 0.0
C1181 C 0.85721 0.63893 0.20469 0.0
C1182 C 0.83587 0.62223 0.20034 0.0
C1183 C 0.82668 0.62223 0.18345 0.0
H1184 H 0.8643 0.63889 0.21777 0.0
H1185 H 0.77615 0.6364 0.05284 0.0
H1186 H 0.27851 0.87072 0.63196 0.0
H1187 H 0.24102 0.83965 0.6344 0.0
H1188 H 0.21497 0.88185 0.61959 0.0
H1189 H 0.25276 0.91331 0.61692 0.0
H1190 H 0.19158 0.84655 0.65039 0.0
H1191 H 0.21448 0.8566 0.58752 0.0
H1192 H 0.24094 0.86371 0.56272 0.0
H1193 H 0.24348 0.80558 0.57739 0.0
H1194 H 0.2173 0.79833 0.60249 0.0
H1195 H 0.08879 0.74825 0.62154 0.0
H1196 H 0.12046 0.78594 0.62381 0.0
H1197 H 0.16385 0.75948 0.63194 0.0
H1198 H 0.13254 0.72206 0.62996 0.0
H1199 H 0.17551 0.79024 0.6027 0.0
H1200 H 0.15502 0.78095 0.66599 0.0
H1201 H 0.12957 0.77327 0.69169 0.0
H1202 H 0.12277 0.82903 0.67703 0.0
H1203 H 0.14791 0.83681 0.651 0.0
C1204 C 0.26486 0.87354 0.62945 0.0
C1205 C 0.26855 0.89438 0.62403 0.0
C1206 C 0.24346 0.85579 0.63093 0.0
C1207 C 0.22534 0.85853 0.62711 0.0
C1208 C 0.22882 0.87953 0.62265 0.0
C1209 C 0.25036 0.89739 0.62103 0.0
C1210 C 0.2032 0.83878 0.62591 0.0
C1211 C 0.18775 0.83441 0.63976 0.0
C1212 C 0.19853 0.82289 0.61219 0.0
C1213 C 0.21407 0.82703 0.59697 0.0
C1214 C 0.22082 0.84544 0.58555 0.0
C1215 C 0.23575 0.84947 0.57143 0.0
C1216 C 0.24392 0.83513 0.56851 0.0
C1217 C 0.23714 0.81668 0.57968 0.0
C1218 C 0.22224 0.81259 0.59385 0.0
C1219 C 0.10506 0.75053 0.62405 0.0
C1220 C 0.10825 0.73226 0.62543 0.0
C1221 C 0.12307 0.772 0.62538 0.0
C1222 C 0.14441 0.77537 0.62795 0.0
C1223 C 0.14747 0.75714 0.62989 0.0
C1224 C 0.12955 0.73579 0.62878 0.0
C1225 C 0.16394 0.79773 0.62735 0.0
C1226 C 0.179 0.80255 0.61312 0.0
C1227 C 0.16815 0.81388 0.64074 0.0
C1228 C 0.15309 0.80927 0.65639 0.0
C1229 C 0.1479 0.79143 0.66811 0.0
C1230 C 0.13358 0.78708 0.68277 0.0
C1231 C 0.12449 0.8006 0.68596 0.0
C1232 C 0.12978 0.81853 0.67452 0.0
C1233 C 0.14407 0.82292 0.65981 0.0
H1234 H 0.11342 0.79722 0.69732 0.0
H1235 H 0.25548 0.83828 0.55756 0.0
H1236 H 0.91034 0.65733 0.38369 0.0
H1237 H 0.8808 0.66597 0.37864 0.0
H1238 H 0.83525 0.59729 0.36735 0.0
H1239 H 0.86459 0.58864 0.37212 0.0
H1240 H 0.82929 0.62405 0.34418 0.0
H1241 H 0.83867 0.61935 0.4096 0.0
H1242 H 0.86011 0.63079 0.43812 0.0
H1243 H 0.87248 0.69694 0.43074 0.0
H1244 H 0.85132 0.68592 0.40205 0.0
H1245 H 0.72219 0.59249 0.36975 0.0
H1246 H 0.75971 0.59988 0.36535 0.0
H1247 H 0.78492 0.66845 0.37877 0.0
H1248 H 0.74704 0.66099 0.38357 0.0
H1249 H 0.80631 0.6519 0.39705 0.0
H1250 H 0.78867 0.65336 0.33513 0.0
H1251 H 0.76593 0.64084 0.30735 0.0
H1252 H 0.76854 0.58078 0.30785 0.0
H1253 H 0.79095 0.59274 0.33581 0.0
C1254 C 0.89406 0.64414 0.37996 0.0
C1255 C 0.8897 0.62228 0.37845 0.0
C1256 C 0.87723 0.6491 0.3771 0.0
C1257 C 0.8558 0.63224 0.37277 0.0
C1258 C 0.85168 0.61056 0.37063 0.0
C1259 C 0.86844 0.60562 0.37347 0.0
C1260 C 0.83717 0.63657 0.37153 0.0
C1261 C 0.82424 0.63018 0.3557 0.0
C1262 C 0.83107 0.64532 0.38634 0.0
C1263 C 0.84368 0.65189 0.4036 0.0
C1264 C 0.84611 0.63637 0.41401 0.0
C1265 C 0.85818 0.64277 0.4302 0.0
C1266 C 0.86771 0.6646 0.43621 0.0
C1267 C 0.86513 0.68005 0.42605 0.0
C1268 C 0.8531 0.67374 0.40983 0.0
C1269 C 0.73566 0.60922 0.37158 0.0
C1270 C 0.73169 0.62617 0.37703 0.0
C1271 C 0.75713 0.61346 0.36892 0.0
C1272 C 0.77513 0.6348 0.37143 0.0
C1273 C 0.77125 0.6519 0.37663 0.0
C1274 C 0.74964 0.64763 0.37935 0.0
C1275 C 0.79787 0.63849 0.36996 0.0
C1276 C 0.81162 0.64641 0.38527 0.0
C1277 C 0.8047 0.63112 0.35466 0.0
C1278 C 0.79148 0.62396 0.33763 0.0
C1279 C 0.78431 0.63743 0.32938 0.0
C1280 C 0.77147 0.63043 0.31359 0.0
C1281 C 0.76579 0.61003 0.30585 0.0
C1282 C 0.77297 0.5966 0.31386 0.0
C1283 C 0.78578 0.6035 0.32966 0.0
H1284 H 0.75584 0.60463 0.29363 0.0
H1285 H 0.87705 0.66952 0.44875 0.0
H1286 H 0.08816 0.74252 0.88815 0.0
H1287 H 0.12098 0.77941 0.88644 0.0
H1288 H 0.16008 0.75039 0.86994 0.0
H1289 H 0.12756 0.71367 0.87167 0.0
H1290 H 0.1784 0.77893 0.89828 0.0
H1291 H 0.14632 0.77726 0.83985 0.0
H1292 H 0.11675 0.77327 0.81923 0.0
H1293 H 0.1165 0.82824 0.84503 0.0
H1294 H 0.14584 0.83232 0.86603 0.0
H1295 H 0.27819 0.86511 0.8682 0.0
H1296 H 0.24121 0.83299 0.86718 0.0
H1297 H 0.21395 0.87243 0.88693 0.0
H1298 H 0.25118 0.90496 0.88792 0.0
H1299 H 0.18789 0.84093 0.85915 0.0
H1300 H 0.22115 0.84353 0.91669 0.0
H1301 H 0.25083 0.84746 0.93716 0.0
H1302 H 0.24849 0.7904 0.91305 0.0
H1303 H 0.21902 0.78634 0.89223 0.0
C1304 C 0.10373 0.74407 0.884 0.0
C1305 C 0.10535 0.72524 0.88014 0.0
C1306 C 0.12241 0.76512 0.88298 0.0
C1307 C 0.14292 0.76758 0.87806 0.0
C1308 C 0.1444 0.74881 0.87382 0.0
C1309 C 0.1258 0.72785 0.87479 0.0
C1310 C 0.16319 0.7895 0.87821 0.0
C1311 C 0.18052 0.79242 0.88961 0.0
C1312 C 0.16564 0.80729 0.86734 0.0
C1313 C 0.14809 0.80493 0.85466 0.0
C1314 C 0.13982 0.78837 0.84124 0.0
C1315 C 0.12313 0.78611 0.82946 0.0
C1316 C 0.11471 0.80045 0.83085 0.0
C1317 C 0.12301 0.81712 0.84399 0.0
C1318 C 0.13968 0.81941 0.85583 0.0
C1319 C 0.26434 0.86708 0.87213 0.0
C1320 C 0.26759 0.88748 0.87836 0.0
C1321 C 0.24322 0.8487 0.87152 0.0
C1322 C 0.22495 0.85032 0.87722 0.0
C1323 C 0.22791 0.8709 0.88253 0.0
C1324 C 0.24915 0.8894 0.88314 0.0
C1325 C 0.20318 0.83004 0.87886 0.0
C1326 C 0.18562 0.82748 0.86792 0.0
C1327 C 0.20041 0.81248 0.89018 0.0
C1328 C 0.21799 0.81474 0.9028 0.0
C1329 C 0.22708 0.83192 0.91566 0.0
C1330 C 0.24385 0.83416 0.92734 0.0
C1331 C 0.25157 0.81921 0.92638 0.0
C1332 C 0.2425 0.80197 0.91377 0.0
C1333 C 0.22575 0.79968 0.90204 0.0
H1334 H 0.26455 0.82097 0.93544 0.0
H1335 H 0.10179 0.79869 0.82172 0.0
H1336 H 0.34404 0.09266 0.37979 0.0
H1337 H 0.33729 0.12385 0.37786 0.0
H1338 H 0.40744 0.16895 0.37473 0.0
H1339 H 0.41429 0.13809 0.37671 0.0
H1340 H 0.38736 0.18026 0.40116 0.0
H1341 H 0.37559 0.1578 0.33799 0.0
H1342 H 0.35747 0.1311 0.31311 0.0
H1343 H 0.29486 0.12375 0.32833 0.0
H1344 H 0.31258 0.15013 0.35354 0.0
H1345 H 0.40792 0.28174 0.37002 0.0
H1346 H 0.40223 0.24446 0.36889 0.0
H1347 H 0.33349 0.2178 0.38217 0.0
H1348 H 0.33909 0.25544 0.38351 0.0
H1349 H 0.3459 0.19397 0.353 0.0
H1350 H 0.35844 0.2186 0.41504 0.0
H1351 H 0.37709 0.24552 0.4397 0.0
H1352 H 0.43833 0.24852 0.42646 0.0
H1353 H 0.42011 0.22188 0.40152 0.0
C1354 C 0.35798 0.10922 0.37847 0.0
C1355 C 0.3797 0.11299 0.37852 0.0
C1356 C 0.35409 0.12697 0.37735 0.0
C1357 C 0.37188 0.14866 0.37622 0.0
C1358 C 0.3935 0.15232 0.3757 0.0
C1359 C 0.39738 0.13466 0.37678 0.0
C1360 C 0.36836 0.16783 0.37655 0.0
C1361 C 0.37832 0.18324 0.3906 0.0
C1362 C 0.35595 0.17132 0.3631 0.0
C1363 C 0.34537 0.15572 0.34779 0.0
C1364 C 0.35793 0.15034 0.33613 0.0
C1365 C 0.34773 0.13529 0.32195 0.0
C1366 C 0.32501 0.12567 0.31918 0.0
C1367 C 0.31246 0.13117 0.33053 0.0
C1368 C 0.32257 0.14618 0.34476 0.0
C1369 C 0.3915 0.268 0.37248 0.0
C1370 C 0.37399 0.27151 0.37706 0.0
C1371 C 0.38828 0.24671 0.37177 0.0
C1372 C 0.3675 0.2285 0.37555 0.0
C1373 C 0.34963 0.23174 0.37918 0.0
C1374 C 0.35288 0.25319 0.38002 0.0
C1375 C 0.36544 0.20653 0.37731 0.0
C1376 C 0.35451 0.19066 0.36373 0.0
C1377 C 0.37693 0.20249 0.39121 0.0
C1378 C 0.38794 0.21837 0.40631 0.0
C1379 C 0.37593 0.22514 0.41729 0.0
C1380 C 0.38641 0.24033 0.43133 0.0
C1381 C 0.40889 0.24876 0.43462 0.0
C1382 C 0.42092 0.24198 0.42389 0.0
C1383 C 0.41052 0.22682 0.40981 0.0
H1384 H 0.41698 0.26051 0.4455 0.0
H1385 H 0.31712 0.11398 0.30822 0.0
H1386 H 0.25639 0.34264 0.88319 0.0
H1387 H 0.21883 0.33621 0.87846 0.0
H1388 H 0.24427 0.40656 0.87804 0.0
H1389 H 0.28157 0.41303 0.88209 0.0
H1390 H 0.19389 0.34787 0.89903 0.0
H1391 H 0.21639 0.42046 0.85034 0.0
H1392 H 0.24555 0.44261 0.82814 0.0
H1393 H 0.25367 0.38692 0.81644 0.0
H1394 H 0.22422 0.36426 0.83833 0.0
H1395 H 0.13317 0.41023 0.87334 0.0
H1396 H 0.16477 0.40472 0.8712 0.0
H1397 H 0.12174 0.33434 0.87669 0.0
H1398 H 0.08991 0.33994 0.8796 0.0
H1399 H 0.17766 0.38526 0.84902 0.0
H1400 H 0.14994 0.31245 0.89846 0.0
H1401 H 0.1248 0.29535 0.92453 0.0
H1402 H 0.1312 0.35794 0.93843 0.0
H1403 H 0.15656 0.37542 0.91259 0.0
C1404 C 0.2539 0.35668 0.88195 0.0
C1405 C 0.27188 0.37832 0.88283 0.0
C1406 C 0.23249 0.35299 0.8793 0.0
C1407 C 0.22882 0.37091 0.87753 0.0
C1408 C 0.24676 0.39249 0.87885 0.0
C1409 C 0.26808 0.39616 0.88125 0.0
C1410 C 0.2063 0.36737 0.87468 0.0
C1411 C 0.19011 0.35557 0.88785 0.0
C1412 C 0.20158 0.37783 0.86029 0.0
C1413 C 0.21813 0.39069 0.84605 0.0
C1414 C 0.22416 0.41283 0.84285 0.0
C1415 C 0.24078 0.4255 0.83036 0.0
C1416 C 0.2515 0.41621 0.82095 0.0
C1417 C 0.24538 0.39411 0.82377 0.0
C1418 C 0.22869 0.38133 0.83621 0.0
C1419 C 0.13037 0.39355 0.87401 0.0
C1420 C 0.10911 0.37552 0.8768 0.0
C1421 C 0.14847 0.3904 0.87271 0.0
C1422 C 0.14571 0.36914 0.87396 0.0
C1423 C 0.12433 0.35094 0.87601 0.0
C1424 C 0.10617 0.35414 0.8776 0.0
C1425 C 0.16553 0.36654 0.87379 0.0
C1426 C 0.18117 0.37704 0.85995 0.0
C1427 C 0.16997 0.35542 0.88782 0.0
C1428 C 0.15486 0.34514 0.90346 0.0
C1429 C 0.14598 0.32254 0.9071 0.0
C1430 C 0.1317 0.31279 0.92183 0.0
C1431 C 0.12633 0.32553 0.93308 0.0
C1432 C 0.13529 0.34807 0.92967 0.0
C1433 C 0.1496 0.3579 0.91497 0.0
H1434 H 0.11526 0.31795 0.94447 0.0
H1435 H 0.26461 0.42623 0.81154 0.0
H1436 H 0.72235 0.12959 0.36731 0.0
H1437 H 0.76009 0.1593 0.36246 0.0
H1438 H 0.78466 0.11622 0.37868 0.0
H1439 H 0.74666 0.08624 0.38368 0.0
H1440 H 0.80492 0.15507 0.39677 0.0
H1441 H 0.79038 0.13305 0.33518 0.0
H1442 H 0.76932 0.12171 0.30652 0.0
H1443 H 0.77267 0.1846 0.30288 0.0
H1444 H 0.79343 0.19621 0.33169 0.0
H1445 H 0.91124 0.25026 0.38298 0.0
H1446 H 0.88087 0.21245 0.37798 0.0
H1447 H 0.83745 0.23768 0.36492 0.0
H1448 H 0.86752 0.27529 0.36994 0.0
H1449 H 0.8313 0.20319 0.3422 0.0
H1450 H 0.83798 0.22079 0.40678 0.0
H1451 H 0.85783 0.232 0.43603 0.0
H1452 H 0.8686 0.17673 0.43383 0.0
H1453 H 0.84904 0.16537 0.4044 0.0
C1454 C 0.73574 0.12631 0.36961 0.0
C1455 C 0.73158 0.10563 0.37594 0.0
C1456 C 0.75732 0.14328 0.36671 0.0
C1457 C 0.77519 0.13992 0.37004 0.0
C1458 C 0.77108 0.11911 0.37595 0.0
C1459 C 0.74941 0.10202 0.37876 0.0
C1460 C 0.79801 0.15883 0.36885 0.0
C1461 C 0.81097 0.16525 0.38466 0.0
C1462 C 0.80575 0.17227 0.35313 0.0
C1463 C 0.79341 0.16547 0.33568 0.0
C1464 C 0.78651 0.14443 0.32835 0.0
C1465 C 0.77463 0.13795 0.31206 0.0
C1466 C 0.76964 0.15241 0.30289 0.0
C1467 C 0.77656 0.17341 0.30999 0.0
C1468 C 0.78841 0.17996 0.32629 0.0
C1469 C 0.89528 0.24772 0.37882 0.0
C1470 C 0.89167 0.26568 0.37701 0.0
C1471 C 0.87798 0.22615 0.37598 0.0
C1472 C 0.85691 0.22231 0.37118 0.0
C1473 C 0.8536 0.24031 0.36856 0.0
C1474 C 0.87078 0.26178 0.37155 0.0
C1475 C 0.83775 0.19964 0.37026 0.0
C1476 C 0.8255 0.1926 0.35409 0.0
C1477 C 0.83061 0.1856 0.38563 0.0
C1478 C 0.84234 0.19242 0.40329 0.0
C1479 C 0.84476 0.21115 0.41245 0.0
C1480 C 0.85592 0.21751 0.42908 0.0
C1481 C 0.86455 0.20513 0.43675 0.0
C1482 C 0.86197 0.18633 0.42784 0.0
C1483 C 0.85085 0.17993 0.41119 0.0
H1484 H 0.87317 0.21007 0.44963 0.0
H1485 H 0.76044 0.14737 0.29029 0.0
H1486 H 0.59463 0.72401 0.86843 0.0
H1487 H 0.60229 0.76173 0.86423 0.0
H1488 H 0.66973 0.78653 0.88107 0.0
H1489 H 0.66208 0.74854 0.88547 0.0
H1490 H 0.65054 0.80628 0.89916 0.0
H1491 H 0.65893 0.7925 0.8374 0.0
H1492 H 0.64937 0.77153 0.80869 0.0
H1493 H 0.58972 0.77464 0.805 0.0
H1494 H 0.59869 0.79529 0.83386 0.0
H1495 H 0.65995 0.91204 0.88708 0.0
H1496 H 0.66819 0.88216 0.88234 0.0
H1497 H 0.60092 0.83895 0.86538 0.0
H1498 H 0.59269 0.86861 0.86987 0.0
H1499 H 0.6295 0.83318 0.84451 0.0
H1500 H 0.61711 0.83862 0.90899 0.0
H1501 H 0.62493 0.85791 0.93848 0.0
H1502 H 0.69123 0.86936 0.93709 0.0
H1503 H 0.68385 0.85036 0.90746 0.0
C1504 C 0.61118 0.73745 0.87103 0.0
C1505 C 0.62775 0.73334 0.87734 0.0
C1506 C 0.61558 0.75903 0.8685 0.0
C1507 C 0.63666 0.77695 0.87214 0.0
C1508 C 0.6534 0.77292 0.8781 0.0
C1509 C 0.64901 0.75124 0.88057 0.0
C1510 C 0.64038 0.79972 0.87111 0.0
C1511 C 0.64655 0.81245 0.88705 0.0
C1512 C 0.63485 0.8076 0.85539 0.0
C1513 C 0.62947 0.7954 0.83787 0.0
C1514 C 0.6437 0.7886 0.83053 0.0
C1515 C 0.63839 0.77678 0.81422 0.0
C1516 C 0.61895 0.77174 0.80503 0.0
C1517 C 0.60478 0.77856 0.81213 0.0
C1518 C 0.60999 0.79036 0.82845 0.0
C1519 C 0.64702 0.89622 0.88215 0.0
C1520 C 0.62563 0.89258 0.879 0.0
C1521 C 0.65174 0.87919 0.87947 0.0
C1522 C 0.63511 0.85828 0.87366 0.0
C1523 C 0.61401 0.85495 0.86983 0.0
C1524 C 0.6093 0.87191 0.87251 0.0
C1525 C 0.63893 0.83928 0.87271 0.0
C1526 C 0.63414 0.82728 0.85642 0.0
C1527 C 0.64562 0.83198 0.88812 0.0
C1528 C 0.65003 0.84335 0.90592 0.0
C1529 C 0.6334 0.84542 0.91491 0.0
C1530 C 0.63774 0.85627 0.93166 0.0
C1531 C 0.65859 0.86493 0.93962 0.0
C1532 C 0.67511 0.8627 0.93088 0.0
C1533 C 0.67086 0.85189 0.91412 0.0
H1534 H 0.66191 0.87332 0.95259 0.0
H1535 H 0.61486 0.76258 0.79241 0.0
H1536 H 0.33346 0.93045 0.94229 0.0
H1537 H 0.34001 0.94601 0.97278 0.0
H1538 H 0.35935 0.01013 0.95035 0.0
H1539 H 0.35286 0.99458 0.91947 0.0
H1540 H 0.38681 0.0117 0.97848 0.0
H1541 H 0.30916 0.98038 0.96803 0.0
H1542 H 0.27181 0.95122 0.95924 0.0
H1543 H 0.27211 0.90975 0.00218 0.0
H1544 H 0.30962 0.93856 0.01106 0.0
H1545 H 0.38041 0.06196 0.05881 0.0
H1546 H 0.37268 0.04602 0.02845 0.0
H1547 H 0.35195 0.98173 0.05121 0.0
H1548 H 0.35941 0.99766 0.08199 0.0
H1549 H 0.32515 0.98004 0.02295 0.0
H1550 H 0.4023 0.01163 0.03404 0.0
H1551 H 0.439 0.04118 0.04363 0.0
H1552 H 0.4401 0.08188 0.99945 0.0
H1553 H 0.40296 0.05283 0.98998 0.0
C1554 C 0.33922 0.94791 0.94375 0.0
C1555 C 0.3425 0.96127 0.92842 0.0
C1556 C 0.34287 0.95675 0.96124 0.0
C1557 C 0.34981 0.97914 0.96386 0.0
C1558 C 0.35387 0.99276 0.94861 0.0
C1559 C 0.35015 0.98388 0.931 0.0
C1560 C 0.35246 0.98803 0.98261 0.0
C1561 C 0.37327 0.00502 0.98812 0.0
C1562 C 0.33491 0.97886 0.99534 0.0
C1563 C 0.31229 0.96156 0.9901 0.0
C1564 C 0.30133 0.96498 0.97551 0.0
C1565 C 0.28012 0.94853 0.97053 0.0
C1566 C 0.26961 0.92863 0.98012 0.0
C1567 C 0.28028 0.92517 0.99475 0.0
C1568 C 0.30151 0.94156 0.99977 0.0
C1569 C 0.37408 0.04438 0.05745 0.0
C1570 C 0.37074 0.03109 0.07282 0.0
C1571 C 0.3697 0.03531 0.04004 0.0
C1572 C 0.36214 0.01277 0.03752 0.0
C1573 C 0.3579 -0.00079 0.05286 0.0
C1574 C 0.3622 0.00831 0.0704 0.0
C1575 C 0.35949 0.00376 0.01881 0.0
C1576 C 0.3387 0.98672 0.01331 0.0
C1577 C 0.37709 0.01285 0.0061 0.0
C1578 C 0.39973 0.03011 0.0114 0.0
C1579 C 0.41028 0.02694 0.02643 0.0
C1580 C 0.43118 0.04361 0.03185 0.0
C1581 C 0.44191 0.06341 0.02214 0.0
C1582 C 0.43176 0.06655 0.00697 0.0
C1583 C 0.41075 0.04999 1.00159 0.0
H1584 H 0.45808 0.07632 0.02637 0.0
H1585 H 0.25319 0.91591 0.97623 0.0
H1586 H 0.40278 0.34408 0.44067 0.0
H1587 H 0.3943 0.35067 0.47135 0.0
H1588 H 0.34041 0.35765 0.4506 0.0
H1589 H 0.34919 0.35148 0.41953 0.0
H1590 H 0.36322 0.38787 0.47704 0.0
H1591 H 0.33103 0.30922 0.4702 0.0
H1592 H 0.33146 0.2751 0.46252 0.0
H1593 H 0.38044 0.28954 0.50364 0.0
H1594 H 0.38052 0.32391 0.51139 0.0
H1595 H 0.31081 0.37694 0.56102 0.0
H1596 H 0.31924 0.37126 0.53004 0.0
H1597 H 0.36933 0.3579 0.55029 0.0
H1598 H 0.36011 0.36259 0.5816 0.0
H1599 H 0.34835 0.33094 0.52384 0.0
H1600 H 0.38139 0.40934 0.53074 0.0
H1601 H 0.3823 0.44413 0.53838 0.0
H1602 H 0.33358 0.43119 0.49738 0.0
H1603 H 0.33217 0.39617 0.48965 0.0
C1604 C 0.38919 0.34715 0.44257 0.0
C1605 C 0.37649 0.34704 0.42769 0.0
C1606 C 0.38431 0.35083 0.46016 0.0
C1607 C 0.3664 0.35413 0.46335 0.0
C1608 C 0.35421 0.35496 0.44846 0.0
C1609 C 0.35923 0.35145 0.43073 0.0
C1610 C 0.36026 0.35623 0.48229 0.0
C1611 C 0.35965 0.37529 0.48722 0.0
C1612 C 0.35622 0.34009 0.49571 0.0
C1613 C 0.35589 0.31922 0.49128 0.0
C1614 C 0.34197 0.30518 0.47754 0.0
C1615 C 0.34212 0.28579 0.47318 0.0
C1616 C 0.356 0.28018 0.48256 0.0
C1617 C 0.36971 0.29391 0.49637 0.0
C1618 C 0.36964 0.31333 0.50077 0.0
C1619 C 0.3236 0.37274 0.5589 0.0
C1620 C 0.33495 0.37038 0.57371 0.0
C1621 C 0.32851 0.36963 0.54114 0.0
C1622 C 0.34535 0.36475 0.53771 0.0
C1623 C 0.35637 0.36182 0.55255 0.0
C1624 C 0.35112 0.3645 0.57042 0.0
C1625 C 0.35134 0.36265 0.51867 0.0
C1626 C 0.35192 0.34356 0.5137 0.0
C1627 C 0.35553 0.37886 0.50524 0.0
C1628 C 0.35655 0.40005 0.50972 0.0
C1629 C 0.37078 0.41386 0.52342 0.0
C1630 C 0.3714 0.43363 0.52776 0.0
C1631 C 0.35798 0.43985 0.51839 0.0
C1632 C 0.34396 0.42635 0.50463 0.0
C1633 C 0.34326 0.40655 0.50025 0.0
H1634 H 0.35846 0.45515 0.52178 0.0
H1635 H 0.35612 0.26518 0.47915 0.0
H1636 H 0.00226 0.35657 0.91952 0.0
H1637 H 0.98687 0.35021 0.95042 0.0
H1638 H 0.05231 0.39061 0.97232 0.0
H1639 H 0.0677 0.39689 0.94178 0.0
H1640 H 0.02985 0.35301 0.99134 0.0
H1641 H 0.01724 0.41039 0.96932 0.0
H1642 H 0.00334 0.42773 0.94786 0.0
H1643 H 0.93701 0.37496 0.95646 0.0
H1644 H 0.95055 0.35712 0.97777 0.0
H1645 H 0.99714 0.36195 0.08191 0.0
H1646 H 0.01396 0.37083 0.05149 0.0
H1647 H 0.94937 0.33391 0.02717 0.0
H1648 H 0.93261 0.32548 0.05719 0.0
H1649 H 0.97245 0.37113 0.00955 0.0
H1650 H 0.98519 0.31306 0.03066 0.0
H1651 H -0.00087 0.29538 0.05173 0.0
H1652 H 0.06521 0.34928 0.04463 0.0
H1653 H 0.05162 0.36742 0.02368 0.0
C1654 C 0.01331 0.36412 0.93093 0.0
C1655 C 0.03617 0.37724 0.92818 0.0
C1656 C 0.00452 0.36053 0.94856 0.0
C1657 C 0.01845 0.37003 0.96368 0.0
C1658 C 0.04125 0.38307 0.9609 0.0
C1659 C 0.04999 0.3867 0.94337 0.0
C1660 C 0.0095 0.36632 0.98248 0.0
C1661 C 0.01748 0.35721 0.99539 0.0
C1662 C 0.99315 0.37151 0.9877 0.0
C1663 C 0.98494 0.3823 0.975 0.0
C1664 C -0.00029 0.40239 0.96653 0.0
C1665 C 0.99189 0.41233 0.95441 0.0
C1666 C 0.96932 0.40243 0.95076 0.0
C1667 C 0.9545 0.3826 0.95928 0.0
C1668 C 0.96223 0.37257 0.97139 0.0
C1669 C 0.98659 0.35575 0.07006 0.0
C1670 C 0.96357 0.343 0.07198 0.0
C1671 C 0.9962 0.36077 0.05268 0.0
C1672 C 0.98293 0.35291 0.037 0.0
C1673 C 0.95997 0.34026 0.039 0.0
C1674 C 0.95042 0.33538 0.05624 0.0
C1675 C 0.99267 0.35762 0.01841 0.0
C1676 C 0.98485 0.36695 0.00553 0.0
C1677 C 0.00916 0.35261 0.01321 0.0
C1678 C 0.01736 0.34171 0.02577 0.0
C1679 C 0.00267 0.32122 0.0337 0.0
C1680 C 0.01051 0.3111 0.0456 0.0
C1681 C 0.03304 0.32123 0.04956 0.0
C1682 C 0.04777 0.34148 0.04158 0.0
C1683 C 0.04001 0.35167 0.02968 0.0
H1684 H 0.03908 0.31337 0.05877 0.0
H1685 H 0.96331 0.41015 0.94137 0.0
H1686 H 0.68204 0.06559 0.44548 0.0
H1687 H 0.67363 0.04959 0.47583 0.0
H1688 H 0.628 0.98595 0.4531 0.0
H1689 H 0.63647 0.00199 0.42233 0.0
H1690 H 0.61093 0.99785 0.48302 0.0
H1691 H 0.67569 0.99409 0.46844 0.0
H1692 H 0.71391 0.00834 0.45792 0.0
H1693 H 0.73792 0.05567 0.50138 0.0
H1694 H 0.69979 0.04191 0.51202 0.0
H1695 H 0.59704 0.93404 0.56125 0.0
H1696 H 0.60537 0.95065 0.53117 0.0
H1697 H 0.65316 0.01318 0.55437 0.0
H1698 H 0.64493 0.99644 0.58489 0.0
H1699 H 0.6692 0.00232 0.52429 0.0
H1700 H 0.60485 0.00614 0.53918 0.0
H1701 H 0.56674 0.99231 0.54982 0.0
H1702 H 0.54203 0.94555 0.50596 0.0
H1703 H 0.58003 0.95887 0.4952 0.0
C1704 C 0.67026 0.04815 0.44685 0.0
C1705 C 0.65991 0.03504 0.43147 0.0
C1706 C 0.66554 0.03902 0.46425 0.0
C1707 C 0.65033 0.01656 0.46674 0.0
C1708 C 0.63986 0.00333 0.45145 0.0
C1709 C 0.64475 0.01247 0.4339 0.0
C1710 C 0.6452 0.00726 0.48542 0.0
C1711 C 0.62357 0.99846 0.49196 0.0
C1712 C 0.66188 0.00881 0.49727 0.0
C1713 C 0.68485 0.0171 0.49092 0.0
C1714 C 0.6891 0.00767 0.47567 0.0
C1715 C 0.71075 0.01563 0.4697 0.0
C1716 C 0.72833 0.03293 0.47894 0.0
C1717 C 0.72428 0.04228 0.49421 0.0
C1718 C 0.70265 0.03439 0.50023 0.0
C1719 C 0.60927 0.95139 0.56006 0.0
C1720 C 0.62034 0.96395 0.5755 0.0
C1721 C 0.61392 0.96088 0.5428 0.0
C1722 C 0.62972 0.9832 0.5405 0.0
C1723 C 0.64084 0.99591 0.55586 0.0
C1724 C 0.63608 0.98638 0.57327 0.0
C1725 C 0.6349 0.99282 0.5219 0.0
C1726 C 0.65654 0.0017 0.51537 0.0
C1727 C 0.61824 0.99142 0.51008 0.0
C1728 C 0.59533 0.98338 0.51648 0.0
C1729 C 0.59131 0.99278 0.53188 0.0
C1730 C 0.56972 0.98505 0.53792 0.0
C1731 C 0.55198 0.96803 0.5286 0.0
C1732 C 0.55579 0.95872 0.51318 0.0
C1733 C 0.57735 0.96637 0.5071 0.0
H1734 H 0.53527 0.96207 0.53329 0.0
H1735 H 0.74508 0.03907 0.4743 0.0
H1736 H 0.64325 0.638 0.08342 0.0
H1737 H 0.63542 0.64585 0.0526 0.0
H1738 H 0.66489 0.60974 0.02991 0.0
H1739 H 0.67293 0.6021 0.06039 0.0
H1740 H 0.67915 0.64789 0.01241 0.0
H1741 H 0.60895 0.58751 0.03127 0.0
H1742 H 0.57663 0.56811 0.05141 0.0
H1743 H 0.56131 0.61989 0.0439 0.0
H1744 H 0.59374 0.63976 0.02391 0.0
H1745 H 0.64149 0.64133 0.92075 0.0
H1746 H 0.64858 0.6318 0.95123 0.0
H1747 H 0.61728 0.66549 0.97529 0.0
H1748 H 0.60984 0.67458 0.9452 0.0
H1749 H 0.60382 0.62779 0.99198 0.0
H1750 H 0.67417 0.68867 0.97387 0.0
H1751 H 0.70672 0.70863 0.95404 0.0
H1752 H 0.72191 0.65661 0.96039 0.0
H1753 H 0.68927 0.63619 0.98008 0.0
C1754 C 0.64798 0.63171 0.07184 0.0
C1755 C 0.65869 0.61942 0.07437 0.0
C1756 C 0.64346 0.63614 0.05425 0.0
C1757 C 0.64947 0.62827 0.03892 0.0
C1758 C 0.66015 0.61604 0.04149 0.0
C1759 C 0.66466 0.61162 0.05897 0.0
C1760 C 0.64493 0.63286 0.02014 0.0
C1761 C 0.66262 0.64325 0.00787 0.0
C1762 C 0.62346 0.62719 0.01429 0.0
C1763 C 0.6039 0.61522 0.02624 0.0
C1764 C 0.59879 0.59484 0.03403 0.0
C1765 C 0.58043 0.58375 0.0454 0.0
C1766 C 0.56696 0.59279 0.04897 0.0
C1767 C 0.57178 0.61292 0.04114 0.0
C1768 C 0.59014 0.6241 0.02978 0.0
C1769 C 0.63615 0.64666 0.93256 0.0
C1770 C 0.62513 0.65872 0.93053 0.0
C1771 C 0.64026 0.64129 0.94997 0.0
C1772 C 0.6336 0.64807 0.96561 0.0
C1773 C 0.62252 0.65999 0.9635 0.0
C1774 C 0.61834 0.66525 0.94622 0.0
C1775 C 0.63805 0.64291 0.98424 0.0
C1776 C 0.62034 0.6324 0.99649 0.0
C1777 C 0.65952 0.64855 0.99009 0.0
C1778 C 0.67915 0.6608 0.97828 0.0
C1779 C 0.68436 0.68141 0.97092 0.0
C1780 C 0.70284 0.69282 0.95973 0.0
C1781 C 0.71634 0.68387 0.95592 0.0
C1782 C 0.71142 0.66351 0.96333 0.0
C1783 C 0.69294 0.65201 0.97451 0.0
H1784 H 0.73064 0.69273 0.94725 0.0
H1785 H 0.55275 0.58417 0.05778 0.0
H1786 H 0.00341 0.63621 0.58134 0.0
H1787 H 0.98826 0.62747 0.55031 0.0
H1788 H 0.05253 0.67278 0.52848 0.0
H1789 H 0.06775 0.68128 0.55918 0.0
H1790 H 0.01785 0.67719 0.51298 0.0
H1791 H 0.03714 0.62164 0.52606 0.0
H1792 H 0.03686 0.59169 0.54397 0.0
H1793 H 0.96658 0.55248 0.5376 0.0
H1794 H 0.96639 0.58237 0.51989 0.0
H1795 H 0.99554 0.64412 0.41966 0.0
H1796 H 0.01306 0.65266 0.44984 0.0
H1797 H 0.95173 0.60357 0.47392 0.0
H1798 H 0.93431 0.595 0.44411 0.0
H1799 H 0.98629 0.60143 0.48804 0.0
H1800 H 0.96639 0.65683 0.47604 0.0
H1801 H 0.96593 0.68679 0.45872 0.0
H1802 H 0.0364 0.72619 0.4635 0.0
H1803 H 0.03731 0.69631 0.48064 0.0
C1804 C 0.01423 0.64431 0.56991 0.0
C1805 C 0.03676 0.65933 0.57267 0.0
C1806 C 0.00561 0.63929 0.55223 0.0
C1807 C 0.01934 0.64945 0.53713 0.0
C1808 C 0.04168 0.66479 0.53994 0.0
C1809 C 0.05035 0.66952 0.5575 0.0
C1810 C 0.01062 0.64396 0.51834 0.0
C1811 C 0.01118 0.6607 0.50742 0.0
C1812 C 0.00167 0.62238 0.51125 0.0
C1813 C 0.00172 0.60435 0.52183 0.0
C1814 C 0.02159 0.60672 0.52863 0.0
C1815 C 0.02153 0.58974 0.53871 0.0
C1816 C 0.00171 0.57022 0.54197 0.0
C1817 C 0.98191 0.56762 0.5351 0.0
C1818 C 0.98188 0.58458 0.52503 0.0
C1819 C 0.98591 0.63506 0.43139 0.0
C1820 C 0.96353 0.61901 0.42953 0.0
C1821 C 0.99588 0.63999 0.44861 0.0
C1822 C 0.98362 0.62885 0.46415 0.0
C1823 C 0.96151 0.61236 0.46215 0.0
C1824 C 0.95155 0.60757 0.44507 0.0
C1825 C 0.99339 0.63464 0.48264 0.0
C1826 C 0.99303 0.61796 0.49353 0.0
C1827 C 0.00243 0.65626 0.48975 0.0
C1828 C 0.00195 0.67423 0.47942 0.0
C1829 C 0.98181 0.6718 0.47325 0.0
C1830 C 0.98146 0.68878 0.46349 0.0
C1831 C 0.00113 0.70835 0.45996 0.0
C1832 C 0.02118 0.711 0.46621 0.0
C1833 C 0.02163 0.69405 0.47595 0.0
H1834 H 0.00082 0.72149 0.45241 0.0
H1835 H 0.00169 0.55709 0.54977 0.0
H1836 H 0.59478 0.93392 0.94481 0.0
H1837 H 0.60312 0.94924 0.97545 0.0
H1838 H 0.65564 0.01068 0.95434 0.0
H1839 H 0.64729 0.99535 0.92336 0.0
H1840 H 0.66839 0.99493 0.98414 0.0
H1841 H 0.60973 0.00848 0.96864 0.0
H1842 H 0.57275 0.99904 0.95759 0.0
H1843 H 0.54287 0.95183 1.00073 0.0
H1844 H 0.57969 0.96076 0.01189 0.0
H1845 H 0.68816 0.06256 0.06095 0.0
H1846 H 0.67899 0.0449 0.03124 0.0
H1847 H 0.62703 0.98523 0.05531 0.0
H1848 H 0.63624 0.00301 0.08545 0.0
H1849 H 0.61342 0.99853 0.02453 0.0
H1850 H 0.672 0.9856 0.04058 0.0
H1851 H 0.70893 0.99493 0.05164 0.0
H1852 H 0.73892 0.04067 0.00756 0.0
H1853 H 0.70215 0.03186 0.99637 0.0
C1854 C 0.60801 0.95078 0.94661 0.0
C1855 C 0.6204 0.96345 0.93165 0.0
C1856 C 0.61269 0.95953 0.96416 0.0
C1857 C 0.62993 0.98112 0.96719 0.0
C1858 C 0.64224 0.99396 0.95228 0.0
C1859 C 0.6374 0.98525 0.9346 0.0
C1860 C 0.63546 0.98985 0.98605 0.0
C1861 C 0.65649 0.99605 0.99289 0.0
C1862 C 0.61965 0.99054 0.99766 0.0
C1863 C 0.59748 0.98513 0.99099 0.0
C1864 C 0.59527 0.99594 0.97568 0.0
C1865 C 0.57434 0.99071 0.96941 0.0
C1866 C 0.55547 0.9748 0.97842 0.0
C1867 C 0.5575 0.96413 0.99375 0.0
C1868 C 0.5784 0.96928 1.00006 0.0
C1869 C 0.6749 0.04559 0.06003 0.0
C1870 C 0.6629 0.03416 0.07557 0.0
C1871 C 0.66974 0.03549 0.043 0.0
C1872 C 0.65242 0.01371 0.04104 0.0
C1873 C 0.64051 0.00206 0.05655 0.0
C1874 C 0.64585 0.01215 0.07374 0.0
C1875 C 0.64642 0.00376 0.02259 0.0
C1876 C 0.62529 0.99733 0.01581 0.0
C1877 C 0.66213 0.00282 0.01104 0.0
C1878 C 0.6843 0.0082 0.01772 0.0
C1879 C 0.68646 0.9978 0.03333 0.0
C1880 C 0.70737 0.00296 0.03961 0.0
C1881 C 0.72626 0.01842 0.03034 0.0
C1882 C 0.72427 0.02872 0.01474 0.0
C1883 C 0.7034 0.02362 0.00841 0.0
H1884 H 0.74243 0.0224 0.03522 0.0
H1885 H 0.53928 0.97078 0.97356 0.0
H1886 H 0.67386 0.60833 0.44408 0.0
H1887 H 0.66427 0.6146 0.47438 0.0
H1888 H 0.62746 0.64308 0.4512 0.0
H1889 H 0.63758 0.63728 0.42049 0.0
H1890 H 0.65145 0.66691 0.47952 0.0
H1891 H 0.60125 0.59032 0.46917 0.0
H1892 H 0.59004 0.55206 0.46054 0.0
H1893 H 0.62916 0.54847 0.50398 0.0
H1894 H 0.64087 0.58684 0.51271 0.0
H1895 H 0.59541 0.66308 0.56022 0.0
H1896 H 0.60392 0.65595 0.52978 0.0
H1897 H 0.64495 0.632 0.55237 0.0
H1898 H 0.63629 0.639 0.58324 0.0
H1899 H 0.61823 0.60569 0.52433 0.0
H1900 H 0.66845 0.68289 0.5343 0.0
H1901 H 0.67891 0.72101 0.54276 0.0
H1902 H 0.63845 0.72305 0.49974 0.0
H1903 H 0.6275 0.68481 0.49118 0.0
C1904 C 0.66367 0.61589 0.44533 0.0
C1905 C 0.65635 0.62218 0.42983 0.0
C1906 C 0.6581 0.61937 0.46273 0.0
C1907 C 0.64477 0.6289 0.46512 0.0
C1908 C 0.63767 0.63555 0.44969 0.0
C1909 C 0.64341 0.63221 0.43216 0.0
C1910 C 0.63866 0.63214 0.4838 0.0
C1911 C 0.64385 0.65344 0.48921 0.0
C1912 C 0.62923 0.61468 0.49663 0.0
C1913 C 0.62208 0.59153 0.4915 0.0
C1914 C 0.60758 0.58143 0.47681 0.0
C1915 C 0.60112 0.55972 0.47191 0.0
C1916 C 0.60892 0.54786 0.48168 0.0
C1917 C 0.62315 0.55768 0.49641 0.0
C1918 C 0.62968 0.57941 0.50135 0.0
C1919 C 0.60623 0.65625 0.55882 0.0
C1920 C 0.6153 0.65174 0.5742 0.0
C1921 C 0.61114 0.65226 0.54134 0.0
C1922 C 0.62535 0.64379 0.53876 0.0
C1923 C 0.63403 0.63867 0.55407 0.0
C1924 C 0.6291 0.64269 0.57167 0.0
C1925 C 0.63109 0.64044 0.52002 0.0
C1926 C 0.62581 0.61912 0.5146 0.0
C1927 C 0.64031 0.65785 0.50716 0.0
C1928 C 0.647 0.68091 0.5122 0.0
C1929 C 0.66166 0.6914 0.52673 0.0
C1930 C 0.66769 0.71304 0.53153 0.0
C1931 C 0.65931 0.72442 0.52182 0.0
C1932 C 0.64492 0.7142 0.50726 0.0
C1933 C 0.6388 0.69255 0.50242 0.0
H1934 H 0.664 0.74117 0.52556 0.0
H1935 H 0.6039 0.53105 0.47786 0.0
H1936 H 0.94356 0.63937 0.06378 0.0
H1937 H 0.95888 0.64601 0.03312 0.0
H1938 H 0.00739 0.62901 0.05078 0.0
H1939 H 0.9927 0.62351 0.08191 0.0
H1940 H 0.02513 0.66095 0.02682 0.0
H1941 H 0.95745 0.59098 0.02859 0.0
H1942 H 0.91785 0.56635 0.03489 0.0
H1943 H 0.90139 0.60331 0.99773 0.0
H1944 H 0.94091 0.62832 0.99137 0.0
H1945 H 0.05263 0.64186 0.93944 0.0
H1946 H 0.03829 0.63584 0.97043 0.0
H1947 H 0.98914 0.65235 0.95365 0.0
H1948 H 0.00287 0.65735 0.92229 0.0
H1949 H 0.97189 0.62039 0.97727 0.0
H1950 H 0.0395 0.69047 0.9756 0.0
H1951 H 0.07909 0.71531 0.96941 0.0
H1952 H 0.0957 0.67832 0.0064 0.0
H1953 H 0.0562 0.6531 0.01264 0.0
C1954 C 0.95773 0.63739 0.06117 0.0
C1955 C 0.96689 0.63079 0.07511 0.0
C1956 C 0.96636 0.641 0.04361 0.0
C1957 C 0.98382 0.63728 0.03945 0.0
C1958 C 0.99376 0.63177 0.05361 0.0
C1959 C 0.98543 0.62869 0.07137 0.0
C1960 C 0.9911 0.63841 0.02026 0.0
C1961 C 0.01353 0.65184 0.01604 0.0
C1962 C 0.97592 0.6269 0.00606 0.0
C1963 C 0.95214 0.6116 0.0096 0.0
C1964 C 0.94538 0.59389 0.02181 0.0
C1965 C 0.92295 0.57987 0.02539 0.0
C1966 C 0.90712 0.58329 0.01673 0.0
C1967 C 0.91368 0.60068 0.00442 0.0
C1968 C 0.93608 0.61477 1.00081 0.0
C1969 C 0.03858 0.64393 0.94232 0.0
C1970 C 0.02893 0.65022 0.92853 0.0
C1971 C 0.03051 0.64067 0.96008 0.0
C1972 C 0.01307 0.64431 0.96455 0.0
C1973 C 0.00275 0.64963 0.95059 0.0
C1974 C 0.01055 0.65244 0.93268 0.0
C1975 C 0.00592 0.64299 0.98381 0.0
C1976 C 0.98351 0.6295 0.98805 0.0
C1977 C 0.02112 0.65445 0.99802 0.0
C1978 C 0.04489 0.6698 0.99447 0.0
C1979 C 0.0516 0.68758 0.98234 0.0
C1980 C 0.07402 0.70173 0.97883 0.0
C1981 C 0.0899 0.69837 0.98748 0.0
C1982 C 0.08339 0.6809 0.9997 0.0
C1983 C 0.06099 0.66669 0.00325 0.0
H1984 H 0.10724 0.70932 0.98473 0.0
H1985 H 0.88977 0.57244 0.01955 0.0
H1986 H 0.3468 0.9964 0.579 0.0
H1987 H 0.35348 0.01034 0.54763 0.0
H1988 H 0.35146 0.95076 0.52933 0.0
H1989 H 0.34465 0.93673 0.56047 0.0
H1990 H 0.38524 0.98891 0.51285 0.0
H1991 H 0.30724 0.9542 0.52414 0.0
H1992 H 0.27394 0.94766 0.54085 0.0
H1993 H 0.29084 0.01503 0.53212 0.0
H1994 H 0.32444 0.02206 0.51558 0.0
H1995 H 0.37186 0.00481 0.41815 0.0
H1996 H 0.3636 0.98676 0.44819 0.0
H1997 H 0.36332 0.04311 0.47177 0.0
H1998 H 0.37168 0.06109 0.44216 0.0
H1999 H 0.3295 0.00393 0.48483 0.0
H2000 H 0.40783 0.03946 0.47491 0.0
H2001 H 0.44142 0.04693 0.45821 0.0
H2002 H 0.42469 0.97928 0.46466 0.0
H2003 H 0.39068 0.97129 0.48106 0.0
C2004 C 0.34808 0.98644 0.56832 0.0
C2005 C 0.34504 0.96543 0.57216 0.0
C2006 C 0.3518 0.99436 0.55041 0.0
C2007 C 0.35274 0.98146 0.53614 0.0
C2008 C 0.35075 0.96095 0.54011 0.0
C2009 C 0.34677 0.95294 0.55792 0.0
C2010 C 0.35467 0.98878 0.51695 0.0
C2011 C 0.37292 0.99192 0.50663 0.0
C2012 C 0.3387 0.99291 0.50891 0.0
C2013 C 0.31847 0.98871 0.51879 0.0
C2014 C 0.30396 0.96767 0.52592 0.0
C2015 C 0.28501 0.96387 0.53534 0.0
C2016 C 0.28031 0.98094 0.53759 0.0
C2017 C 0.29452 0.00184 0.53039 0.0
C2018 C 0.31351 0.00574 0.52098 0.0
C2019 C 0.36966 0.01309 0.42972 0.0
C2020 C 0.37253 0.03436 0.42788 0.0
C2021 C 0.36507 0.00287 0.44685 0.0
C2022 C 0.36303 0.01372 0.46222 0.0
C2023 C 0.36483 0.03446 0.46013 0.0
C2024 C 0.3697 0.04473 0.44319 0.0
C2025 C 0.36017 0.00428 0.48076 0.0
C2026 C 0.34173 0.00074 0.49098 0.0
C2027 C 0.37604 -8e-05 0.48871 0.0
C2028 C 0.39655 0.0047 0.479 0.0
C2029 C 0.41119 0.02612 0.47261 0.0
C2030 C 0.43033 0.03046 0.46323 0.0
C2031 C 0.43518 0.01359 0.46035 0.0
C2032 C 0.42089 0.99233 0.46687 0.0
C2033 C 0.40167 0.98788 0.4762 0.0
H2034 H 0.45002 0.017 0.45309 0.0
H2035 H 0.26563 0.97796 0.54488 0.0
H2036 H 0.37516 0.36335 0.08423 0.0
H2037 H 0.36837 0.37281 0.05367 0.0
H2038 H 0.36853 0.31555 0.03189 0.0
H2039 H 0.3763 0.30675 0.06207 0.0
H2040 H 0.39185 0.34811 0.01107 0.0
H2041 H 0.31975 0.3198 0.03795 0.0
H2042 H 0.293 0.31778 0.06082 0.0
H2043 H 0.31136 0.38511 0.04977 0.0
H2044 H 0.33841 0.38761 0.02699 0.0
H2045 H 0.34812 0.34885 0.92302 0.0
H2046 H 0.35506 0.33943 0.95355 0.0
H2047 H 0.35698 0.39776 0.97515 0.0
H2048 H 0.34933 0.40672 0.945 0.0
H2049 H 0.33254 0.36465 0.99599 0.0
H2050 H 0.40459 0.39274 0.96901 0.0
H2051 H 0.43109 0.39449 0.946 0.0
H2052 H 0.41241 0.32709 0.95714 0.0
H2053 H 0.38561 0.32486 0.98007 0.0
C2054 C 0.3735 0.35271 0.07291 0.0
C2055 C 0.37629 0.33436 0.0755 0.0
C2056 C 0.36956 0.35806 0.05545 0.0
C2057 C 0.36776 0.3448 0.04039 0.0
C2058 C 0.36998 0.32615 0.04318 0.0
C2059 C 0.37434 0.32108 0.06048 0.0
C2060 C 0.3644 0.3506 0.02161 0.0
C2061 C 0.37867 0.35143 0.00776 0.0
C2062 C 0.34757 0.35548 0.01725 0.0
C2063 C 0.33124 0.35395 0.03089 0.0
C2064 C 0.31818 0.33421 0.04049 0.0
C2065 C 0.30295 0.33298 0.05342 0.0
C2066 C 0.30052 0.35132 0.05678 0.0
C2067 C 0.31328 0.37092 0.04717 0.0
C2068 C 0.32854 0.37225 0.03424 0.0
C2069 C 0.3503 0.35975 0.93428 0.0
C2070 C 0.34813 0.37847 0.93164 0.0
C2071 C 0.3543 0.3544 0.95172 0.0
C2072 C 0.35665 0.36794 0.96672 0.0
C2073 C 0.35508 0.38695 0.9639 0.0
C2074 C 0.35079 0.3921 0.9466 0.0
C2075 C 0.35996 0.3621 0.98549 0.0
C2076 C 0.3457 0.36129 0.99932 0.0
C2077 C 0.37675 0.35719 0.98983 0.0
C2078 C 0.39296 0.35858 0.97613 0.0
C2079 C 0.40604 0.37825 0.96646 0.0
C2080 C 0.42113 0.37934 0.95345 0.0
C2081 C 0.42339 0.3609 0.95008 0.0
C2082 C 0.41062 0.34136 0.95975 0.0
C2083 C 0.3955 0.34018 0.97277 0.0
H2084 H 0.43507 0.36177 0.94 0.0
H2085 H 0.28873 0.35033 0.0668 0.0
H2086 H 0.00542 0.34449 0.58104 0.0
H2087 H 0.99136 0.33571 0.54966 0.0
H2088 H 0.03958 0.4015 0.5328 0.0
H2089 H 0.05417 0.41009 0.56385 0.0
H2090 H 0.9898 0.38026 0.5201 0.0
H2091 H 0.05513 0.37159 0.52255 0.0
H2092 H 0.07686 0.35612 0.53586 0.0
H2093 H 0.02324 0.29042 0.5264 0.0
H2094 H 0.00105 0.30555 0.5133 0.0
H2095 H 0.9902 0.3718 0.42338 0.0
H2096 H 0.00556 0.38026 0.45441 0.0
H2097 H 0.96447 0.31191 0.46937 0.0
H2098 H 0.94854 0.30364 0.43874 0.0
H2099 H 0.01028 0.33366 0.48326 0.0
H2100 H 0.94485 0.33789 0.48229 0.0
H2101 H 0.91834 0.34867 0.47118 0.0
H2102 H 0.96605 0.41696 0.48001 0.0
H2103 H 0.99304 0.40657 0.49087 0.0
C2104 C 0.01275 0.35714 0.57067 0.0
C2105 C 0.03087 0.37794 0.57481 0.0
C2106 C 0.0048 0.35209 0.55279 0.0
C2107 C 0.01454 0.36796 0.53897 0.0
C2108 C 0.03189 0.38907 0.5433 0.0
C2109 C 0.04019 0.39392 0.561 0.0
C2110 C 0.00741 0.36233 0.51981 0.0
C2111 C 0.99456 0.37038 0.51195 0.0
C2112 C 0.01297 0.34877 0.50943 0.0
C2113 C 0.02635 0.33969 0.51717 0.0
C2114 C 0.04789 0.35385 0.52349 0.0
C2115 C 0.06031 0.34514 0.53096 0.0
C2116 C 0.05141 0.3223 0.53203 0.0
C2117 C 0.0301 0.30811 0.5256 0.0
C2118 C 0.0176 0.31674 0.51814 0.0
C2119 C 0.98491 0.35857 0.43321 0.0
C2120 C 0.96833 0.33709 0.42876 0.0
C2121 C 0.99355 0.36339 0.4509 0.0
C2122 C 0.98608 0.34668 0.46415 0.0
C2123 C 0.9705 0.32499 0.45933 0.0
C2124 C 0.96144 0.32031 0.44187 0.0
C2125 C 0.9931 0.35205 0.48339 0.0
C2126 C 0.00577 0.34381 0.49132 0.0
C2127 C 0.98691 0.36496 0.49399 0.0
C2128 C 0.97108 0.37148 0.48709 0.0
C2129 C 0.94982 0.35523 0.48158 0.0
C2130 C 0.93468 0.36125 0.4754 0.0
C2131 C 0.94052 0.38347 0.47483 0.0
C2132 C 0.96156 0.39974 0.4804 0.0
C2133 C 0.97681 0.3938 0.48657 0.0
H2134 H 0.92865 0.38798 0.47017 0.0
H2135 H 0.06106 0.31559 0.53781 0.0
H2136 H 0.47922 0.10298 0.10746 0.0
H2137 H 0.50951 0.09624 0.10092 0.0
H2138 H 0.46591 0.0263 0.10814 0.0
H2139 H 0.43521 0.03293 0.11451 0.0
H2140 H 0.504 0.04338 0.12935 0.0
H2141 H 0.48744 0.04154 0.06662 0.0
H2142 H 0.47793 0.0526 0.03769 0.0
H2143 H 0.53653 0.11617 0.04113 0.0
H2144 H 0.54662 0.10537 0.06994 0.0
H2145 H 0.60364 0.03976 0.11431 0.0
H2146 H 0.56563 0.03125 0.10866 0.0
H2147 H 0.58803 0.10076 0.10388 0.0
H2148 H 0.62589 0.10943 0.10967 0.0
H2149 H 0.55613 0.07432 0.07751 0.0
H2150 H 0.56886 0.07706 0.14285 0.0
H2151 H 0.57891 0.06527 0.17115 0.0
H2152 H 0.52631 0.99884 0.16259 0.0
H2153 H 0.51615 0.0102 0.13408 0.0
C2154 C 0.47595 0.08611 0.10737 0.0
C2155 C 0.45488 0.0685 0.11163 0.0
C2156 C 0.49325 0.08227 0.10349 0.0
C2157 C 0.48993 0.06076 0.10394 0.0
C2158 C 0.46875 0.043 0.10763 0.0
C2159 C 0.45126 0.04682 0.11123 0.0
C2160 C 0.50927 0.05754 0.10252 0.0
C2161 C 0.5151 0.0495 0.11778 0.0
C2162 C 0.52387 0.06583 0.08756 0.0
C2163 C 0.5177 0.07269 0.07049 0.0
C2164 C 0.4982 0.05795 0.06128 0.0
C2165 C 0.49273 0.06414 0.04488 0.0
C2166 C 0.50649 0.08513 0.03766 0.0
C2167 C 0.52586 0.09992 0.04676 0.0
C2168 C 0.53153 0.09373 0.06307 0.0
C2169 C 0.6005 0.05321 0.1118 0.0
C2170 C 0.61774 0.07529 0.11259 0.0
C2171 C 0.57879 0.04831 0.10861 0.0
C2172 C 0.57407 0.0654 0.10596 0.0
C2173 C 0.59137 0.08735 0.10587 0.0
C2174 C 0.61297 0.09227 0.10929 0.0
C2175 C 0.55105 0.06079 0.10452 0.0
C2176 C 0.54467 0.06751 0.0888 0.0
C2177 C 0.53591 0.05121 0.11905 0.0
C2178 C 0.54195 0.04441 0.13621 0.0
C2179 C 0.55957 0.0599 0.14692 0.0
C2180 C 0.56527 0.0533 0.16301 0.0
C2181 C 0.55332 0.0313 0.16863 0.0
C2182 C 0.53559 0.01586 0.1582 0.0
C2183 C 0.52986 0.02237 0.14207 0.0
H2184 H 0.55775 0.02622 0.1811 0.0
H2185 H 0.5022 0.0899 0.02497 0.0
H2186 H 0.55781 0.59791 0.61174 0.0
H2187 H 0.52722 0.56032 0.60655 0.0
H2188 H 0.48231 0.57751 0.63205 0.0
H2189 H 0.51245 0.61488 0.63718 0.0
H2190 H 0.4994 0.52884 0.6311 0.0
H2191 H 0.43384 0.55268 0.61072 0.0
H2192 H 0.43222 0.58284 0.59474 0.0
H2193 H 0.49051 0.59739 0.56457 0.0
H2194 H 0.49231 0.56711 0.58018 0.0
H2195 H 0.3863 0.45961 0.65377 0.0
H2196 H 0.42348 0.49042 0.64801 0.0
H2197 H 0.42045 0.46783 0.59298 0.0
H2198 H 0.38335 0.43635 0.59884 0.0
H2199 H 0.43059 0.51576 0.60056 0.0
H2200 H 0.4547 0.4641 0.61135 0.0
H2201 H 0.45632 0.43401 0.62742 0.0
H2202 H 0.48134 0.47453 0.6751 0.0
H2203 H 0.47952 0.50477 0.65942 0.0
C2204 C 0.54141 0.5937 0.61621 0.0
C2205 C 0.53762 0.60949 0.62484 0.0
C2206 C 0.52398 0.57222 0.61324 0.0
C2207 C 0.50248 0.56625 0.61868 0.0
C2208 C 0.49872 0.58189 0.62743 0.0
C2209 C 0.51604 0.60326 0.63044 0.0
C2210 C 0.48383 0.54359 0.61576 0.0
C2211 C 0.48446 0.52591 0.6242 0.0
C2212 C 0.46448 0.53973 0.60648 0.0
C2213 C 0.46324 0.55765 0.59669 0.0
C2214 C 0.44621 0.56219 0.60057 0.0
C2215 C 0.44529 0.57934 0.59161 0.0
C2216 C 0.46127 0.59204 0.57866 0.0
C2217 C 0.47817 0.58757 0.57462 0.0
C2218 C 0.47916 0.57043 0.58354 0.0
C2219 C 0.39367 0.46103 0.64052 0.0
C2220 C 0.38199 0.44568 0.62673 0.0
C2221 C 0.4149 0.47855 0.63728 0.0
C2222 C 0.42462 0.48126 0.62011 0.0
C2223 C 0.41318 0.46583 0.60634 0.0
C2224 C 0.39209 0.44792 0.60972 0.0
C2225 C 0.44597 0.50133 0.61647 0.0
C2226 C 0.44576 0.51859 0.60697 0.0
C2227 C 0.46569 0.50476 0.62468 0.0
C2228 C 0.4668 0.48665 0.63424 0.0
C2229 C 0.46033 0.46653 0.62533 0.0
C2230 C 0.46134 0.44945 0.63435 0.0
C2231 C 0.46889 0.45234 0.65228 0.0
C2232 C 0.47548 0.47232 0.66121 0.0
C2233 C 0.47449 0.48944 0.65225 0.0
H2234 H 0.46967 0.43911 0.65924 0.0
H2235 H 0.46055 0.60533 0.57176 0.0
H2236 H 0.89006 0.3763 0.11884 0.0
H2237 H 0.89666 0.4132 0.11209 0.0
H2238 H 0.96636 0.43689 0.10671 0.0
H2239 H 0.95989 0.3997 0.11338 0.0
H2240 H 0.95625 0.46331 0.12922 0.0
H2241 H 0.94034 0.43413 0.06962 0.0
H2242 H 0.92045 0.40673 0.04556 0.0
H2243 H 0.86219 0.41079 0.05603 0.0
H2244 H 0.8816 0.43796 0.08036 0.0
H2245 H 0.95894 0.56513 0.11009 0.0
H2246 H 0.96548 0.5343 0.10451 0.0
H2247 H 0.89559 0.48853 0.10871 0.0
H2248 H 0.88889 0.51903 0.1142 0.0
H2249 H 0.91478 0.4773 0.08127 0.0
H2250 H 0.92867 0.49945 0.14506 0.0
H2251 H 0.94789 0.52599 0.16986 0.0
H2252 H 0.00998 0.53467 0.15139 0.0
H2253 H 0.99113 0.50837 0.12631 0.0
C2254 C 0.90681 0.38927 0.11616 0.0
C2255 C 0.92446 0.38504 0.1167 0.0
C2256 C 0.91053 0.41034 0.11218 0.0
C2257 C 0.93196 0.4277 0.10873 0.0
C2258 C 0.94968 0.42364 0.10923 0.0
C2259 C 0.94594 0.40241 0.11301 0.0
C2260 C 0.93555 0.45017 0.10555 0.0
C2261 C 0.94772 0.46663 0.11842 0.0
C2262 C 0.92424 0.45435 0.09157 0.0
C2263 C 0.91243 0.43804 0.07689 0.0
C2264 C 0.92324 0.42907 0.06689 0.0
C2265 C 0.91205 0.41359 0.05318 0.0
C2266 C 0.89007 0.407 0.04928 0.0
C2267 C 0.87923 0.41591 0.05906 0.0
C2268 C 0.89033 0.43139 0.0728 0.0
C2269 C 0.94494 0.54852 0.10955 0.0
C2270 C 0.9234 0.54452 0.1128 0.0
C2271 C 0.94873 0.53094 0.1064 0.0
C2272 C 0.93104 0.50914 0.10637 0.0
C2273 C 0.90948 0.50524 0.10867 0.0
C2274 C 0.9057 0.52271 0.11193 0.0
C2275 C 0.93474 0.49007 0.10534 0.0
C2276 C 0.9239 0.47424 0.0917 0.0
C2277 C 0.94725 0.48646 0.11862 0.0
C2278 C 0.95855 0.5022 0.13369 0.0
C2279 C 0.94645 0.50717 0.1462 0.0
C2280 C 0.95726 0.52214 0.16032 0.0
C2281 C 0.98015 0.53207 0.16216 0.0
C2282 C 0.99226 0.52701 0.14991 0.0
C2283 C 0.98152 0.51208 0.13575 0.0
H2284 H 0.9885 0.54365 0.1731 0.0
H2285 H 0.88144 0.39502 0.03866 0.0
H2286 H 0.39693 0.96314 0.61326 0.0
H2287 H 0.43514 0.97067 0.6117 0.0
H2288 H 0.41662 0.91105 0.64193 0.0
H2289 H 0.37887 0.90355 0.64378 0.0
H2290 H 0.45401 0.94528 0.65499 0.0
H2291 H 0.42293 0.91396 0.59532 0.0
H2292 H 0.40625 0.91407 0.56579 0.0
H2293 H 0.46205 0.97743 0.55323 0.0
H2294 H 0.47893 0.9778 0.58281 0.0
H2295 H 0.51778 0.89779 0.6396 0.0
H2296 H 0.48895 0.90745 0.63831 0.0
H2297 H 0.53352 0.96891 0.61186 0.0
H2298 H 0.56287 0.95936 0.61301 0.0
H2299 H 0.4898 0.94596 0.59654 0.0
H2300 H 0.52411 0.9729 0.65386 0.0
H2301 H 0.54073 0.97174 0.68311 0.0
H2302 H 0.47899 0.91671 0.70021 0.0
H2303 H 0.46207 0.91731 0.67095 0.0
C2304 C 0.40103 0.95167 0.6196 0.0
C2305 C 0.38477 0.93274 0.62866 0.0
C2306 C 0.42285 0.95598 0.61865 0.0
C2307 C 0.42869 0.9414 0.62669 0.0
C2308 C 0.41251 0.9226 0.63574 0.0
C2309 C 0.39085 0.9183 0.63671 0.0
C2310 C 0.45148 0.94517 0.6258 0.0
C2311 C 0.46188 0.94552 0.64221 0.0
C2312 C 0.46215 0.94637 0.60913 0.0
C2313 C 0.45204 0.94604 0.59135 0.0
C2314 C 0.43155 0.92799 0.58632 0.0
C2315 C 0.42208 0.92795 0.56956 0.0
C2316 C 0.43304 0.94578 0.55767 0.0
C2317 C 0.45355 0.96366 0.56248 0.0
C2318 C 0.46307 0.96379 0.57923 0.0
C2319 C 0.5216 0.91336 0.63342 0.0
C2320 C 0.54279 0.92788 0.62656 0.0
C2321 C 0.50505 0.91887 0.63274 0.0
C2322 C 0.50924 0.93903 0.62525 0.0
C2323 C 0.53006 0.95333 0.6178 0.0
C2324 C 0.54679 0.94785 0.61852 0.0
C2325 C 0.49161 0.94485 0.62572 0.0
C2326 C 0.48226 0.94641 0.60931 0.0
C2327 C 0.48184 0.9454 0.6424 0.0
C2328 C 0.49184 0.94513 0.66016 0.0
C2329 C 0.5141 0.96048 0.66382 0.0
C2330 C 0.52357 0.95992 0.68041 0.0
C2331 C 0.51092 0.94416 0.69351 0.0
C2332 C 0.48876 0.92893 0.69006 0.0
C2333 C 0.47921 0.9294 0.67348 0.0
H2334 H 0.51829 0.94375 0.70634 0.0
H2335 H 0.42568 0.94572 0.54471 0.0
H2336 H 0.60342 0.56048 0.11541 0.0
H2337 H 0.56676 0.52884 0.10895 0.0
H2338 H 0.59071 0.48436 0.12189 0.0
H2339 H 0.62711 0.51558 0.12842 0.0
H2340 H 0.56564 0.47312 0.08989 0.0
H2341 H 0.5624 0.4947 0.15267 0.0
H2342 H 0.56448 0.52091 0.17611 0.0
H2343 H 0.51342 0.52698 0.14894 0.0
H2344 H 0.51125 0.501 0.1252 0.0
H2345 H 0.48662 0.3703 0.1211 0.0
H2346 H 0.51666 0.40762 0.11576 0.0
H2347 H 0.46984 0.42967 0.10652 0.0
H2348 H 0.43935 0.39206 0.11202 0.0
H2349 H 0.50222 0.45654 0.13009 0.0
H2350 H 0.49961 0.42872 0.07124 0.0
H2351 H 0.4969 0.40233 0.04776 0.0
H2352 H 0.55797 0.40837 0.06609 0.0
H2353 H 0.56091 0.43455 0.08987 0.0
C2354 C 0.60088 0.54395 0.11682 0.0
C2355 C 0.61819 0.54057 0.12254 0.0
C2356 C 0.57994 0.52593 0.11314 0.0
C2357 C 0.57607 0.5043 0.11496 0.0
C2358 C 0.5934 0.50093 0.12034 0.0
C2359 C 0.61418 0.51883 0.12418 0.0
C2360 C 0.55393 0.48487 0.11188 0.0
C2361 C 0.55172 0.46946 0.09863 0.0
C2362 C 0.53555 0.48059 0.12278 0.0
C2363 C 0.53688 0.49617 0.13705 0.0
C2364 C 0.55176 0.50178 0.15161 0.0
C2365 C 0.55293 0.51656 0.16497 0.0
C2366 C 0.53915 0.52567 0.16398 0.0
C2367 C 0.52412 0.51996 0.14966 0.0
C2368 C 0.52292 0.50521 0.13626 0.0
C2369 C 0.48259 0.38296 0.11777 0.0
C2370 C 0.46053 0.37815 0.11706 0.0
C2371 C 0.49983 0.40432 0.11459 0.0
C2372 C 0.4955 0.4214 0.11054 0.0
C2373 C 0.47352 0.41669 0.10953 0.0
C2374 C 0.45615 0.39518 0.11263 0.0
C2375 C 0.51422 0.44427 0.10865 0.0
C2376 C 0.51584 0.46038 0.12094 0.0
C2377 C 0.53201 0.44928 0.09674 0.0
C2378 C 0.53043 0.43357 0.08241 0.0
C2379 C 0.5124 0.42432 0.07035 0.0
C2380 C 0.51083 0.40941 0.05697 0.0
C2381 C 0.52724 0.40366 0.05544 0.0
C2382 C 0.54528 0.41285 0.06728 0.0
C2383 C 0.54692 0.42777 0.0807 0.0
H2384 H 0.52599 0.39211 0.04507 0.0
H2385 H 0.54006 0.5371 0.17433 0.0
H2386 H 0.03526 0.43475 0.61327 0.0
H2387 H 0.02738 0.46522 0.61132 0.0
H2388 H 0.08532 0.50609 0.64346 0.0
H2389 H 0.09315 0.47609 0.64567 0.0
H2390 H 0.05014 0.5087 0.65518 0.0
H2391 H 0.08494 0.51029 0.59689 0.0
H2392 H 0.08653 0.4941 0.56752 0.0
H2393 H 0.02386 0.48667 0.5524 0.0
H2394 H 0.02179 0.50258 0.5818 0.0
H2395 H 0.09775 0.6203 0.64158 0.0
H2396 H 0.0885 0.58194 0.64012 0.0
H2397 H 0.02922 0.56549 0.61021 0.0
H2398 H 0.03841 0.60428 0.61148 0.0
H2399 H 0.05287 0.54508 0.59653 0.0
H2400 H 0.02254 0.55117 0.65256 0.0
H2401 H 0.02196 0.56832 0.68169 0.0
H2402 H 0.07596 0.56124 0.70122 0.0
H2403 H 0.0771 0.54436 0.6721 0.0
C2404 C 0.04626 0.45022 0.61997 0.0
C2405 C 0.06485 0.45292 0.62962 0.0
C2406 C 0.04175 0.46761 0.61879 0.0
C2407 C 0.05579 0.48792 0.62723 0.0
C2408 C 0.07419 0.49053 0.63693 0.0
C2409 C 0.07869 0.47331 0.6381 0.0
C2410 C 0.05194 0.5069 0.62605 0.0
C2411 C 0.05064 0.5166 0.64236 0.0
C2412 C 0.05172 0.51674 0.60929 0.0
C2413 C 0.05308 0.50734 0.59161 0.0
C2414 C 0.07143 0.50504 0.58735 0.0
C2415 C 0.07243 0.49594 0.57069 0.0
C2416 C 0.05527 0.48928 0.55813 0.0
C2417 C 0.03711 0.49178 0.56216 0.0
C2418 C 0.03602 0.50084 0.57882 0.0
C2419 C 0.08274 0.60867 0.63462 0.0
C2420 C 0.06872 0.61543 0.6268 0.0
C2421 C 0.07746 0.58668 0.63385 0.0
C2422 C 0.058 0.57084 0.62534 0.0
C2423 C 0.04424 0.57748 0.61695 0.0
C2424 C 0.04951 0.59963 0.61774 0.0
C2425 C 0.05229 0.54739 0.62571 0.0
C2426 C 0.05169 0.53683 0.60932 0.0
C2427 C 0.05074 0.53668 0.64242 0.0
C2428 C 0.04993 0.54654 0.6601 0.0
C2429 C 0.03437 0.55337 0.66303 0.0
C2430 C 0.03393 0.56304 0.67955 0.0
C2431 C 0.04892 0.56588 0.69329 0.0
C2432 C 0.06434 0.55901 0.69056 0.0
C2433 C 0.06486 0.54935 0.67406 0.0
H2434 H 0.04857 0.57338 0.70607 0.0
H2435 H 0.05607 0.48224 0.54524 0.0
H2436 H 0.95869 0.56099 0.38338 0.0
H2437 H 0.9658 0.53031 0.38803 0.0
H2438 H 0.89581 0.48427 0.38714 0.0
H2439 H 0.88855 0.51457 0.38228 0.0
H2440 H 0.91963 0.47846 0.41661 0.0
H2441 H 0.92364 0.48972 0.35071 0.0
H2442 H 0.93942 0.51225 0.32311 0.0
H2443 H 0.00338 0.52215 0.33699 0.0
H2444 H 0.98803 0.49996 0.36485 0.0
H2445 H 0.89042 0.3716 0.39233 0.0
H2446 H 0.89779 0.40928 0.39595 0.0
H2447 H 0.96768 0.43373 0.39086 0.0
H2448 H 0.96039 0.39572 0.38727 0.0
H2449 H 0.95329 0.45543 0.36812 0.0
H2450 H 0.95172 0.44373 0.43152 0.0
H2451 H 0.93961 0.4247 0.46098 0.0
H2452 H 0.87551 0.41768 0.45346 0.0
H2453 H 0.88752 0.4373 0.4241 0.0
C2454 C 0.94483 0.54433 0.38424 0.0
C2455 C 0.92305 0.54019 0.38239 0.0
C2456 C 0.94894 0.52686 0.38685 0.0
C2457 C 0.93131 0.50509 0.38789 0.0
C2458 C 0.90961 0.50099 0.38639 0.0
C2459 C 0.90551 0.51833 0.38352 0.0
C2460 C 0.93514 0.48628 0.39027 0.0
C2461 C 0.92698 0.47341 0.40601 0.0
C2462 C 0.94563 0.48029 0.37681 0.0
C2463 C 0.95475 0.49343 0.35997 0.0
C2464 C 0.94111 0.49687 0.34797 0.0
C2465 C 0.94996 0.50955 0.33226 0.0
C2466 C 0.9724 0.51868 0.32832 0.0
C2467 C 0.98601 0.51511 0.34007 0.0
C2468 C 0.97725 0.50248 0.35582 0.0
C2469 C 0.9074 0.38492 0.39221 0.0
C2470 C 0.92481 0.38066 0.38943 0.0
C2471 C 0.91161 0.40648 0.3944 0.0
C2472 C 0.9333 0.42432 0.39379 0.0
C2473 C 0.95083 0.42018 0.39144 0.0
C2474 C 0.94663 0.39847 0.38947 0.0
C2475 C 0.937 0.44713 0.39419 0.0
C2476 C 0.94648 0.46076 0.37895 0.0
C2477 C 0.92811 0.4541 0.40825 0.0
C2478 C 0.92046 0.44179 0.42558 0.0
C2479 C 0.93499 0.43797 0.4361 0.0
C2480 C 0.92816 0.42713 0.4528 0.0
C2481 C 0.90671 0.41972 0.45902 0.0
C2482 C 0.89211 0.42336 0.44861 0.0
C2483 C 0.89897 0.43449 0.43199 0.0
H2484 H 0.90144 0.41126 0.47195 0.0
H2485 H 0.97921 0.52846 0.31615 0.0
H2486 H 0.52122 0.89816 0.86261 0.0
H2487 H 0.49154 0.90664 0.863 0.0
H2488 H 0.5329 0.96697 0.89222 0.0
H2489 H 0.56306 0.95856 0.89204 0.0
H2490 H 0.48918 0.94302 0.90568 0.0
H2491 H 0.52524 0.97176 0.84922 0.0
H2492 H 0.54308 0.9715 0.82038 0.0
H2493 H 0.48238 0.91634 0.80168 0.0
H2494 H 0.46425 0.91603 0.83052 0.0
H2495 H 0.39582 0.95863 0.88833 0.0
H2496 H 0.43426 0.9669 0.89 0.0
H2497 H 0.41733 0.90851 0.85851 0.0
H2498 H 0.37935 0.90031 0.85654 0.0
H2499 H 0.455 0.94312 0.84656 0.0
H2500 H 0.42232 0.90977 0.90523 0.0
H2501 H 0.40439 0.90846 0.93446 0.0
H2502 H 0.45882 0.97196 0.94886 0.0
H2503 H 0.47694 0.97374 0.91959 0.0
C2504 C 0.52415 0.91324 0.8692 0.0
C2505 C 0.54467 0.92776 0.87717 0.0
C2506 C 0.50712 0.91809 0.86934 0.0
C2507 C 0.51017 0.93761 0.87736 0.0
C2508 C 0.53032 0.95189 0.88585 0.0
C2509 C 0.54751 0.94706 0.8857 0.0
C2510 C 0.49204 0.94273 0.87653 0.0
C2511 C 0.48199 0.94363 0.89277 0.0
C2512 C 0.48269 0.94346 0.85966 0.0
C2513 C 0.4934 0.94385 0.8421 0.0
C2514 C 0.51571 0.95951 0.839 0.0
C2515 C 0.52588 0.95946 0.82264 0.0
C2516 C 0.51387 0.94391 0.80921 0.0
C2517 C 0.49166 0.9284 0.81209 0.0
C2518 C 0.48141 0.92835 0.82843 0.0
C2519 C 0.40032 0.94761 0.88171 0.0
C2520 C 0.38442 0.92877 0.87233 0.0
C2521 C 0.42228 0.95234 0.88272 0.0
C2522 C 0.42863 0.93828 0.87441 0.0
C2523 C 0.41284 0.91967 0.86493 0.0
C2524 C 0.39104 0.91494 0.86391 0.0
C2525 C 0.4515 0.94227 0.87569 0.0
C2526 C 0.46252 0.94317 0.85948 0.0
C2527 C 0.46168 0.94317 0.89256 0.0
C2528 C 0.45083 0.94201 0.91015 0.0
C2529 C 0.43037 0.92352 0.91458 0.0
C2530 C 0.4202 0.92268 0.93115 0.0
C2531 C 0.43042 0.94015 0.94348 0.0
C2532 C 0.45089 0.95847 0.93928 0.0
C2533 C 0.46112 0.9594 0.9227 0.0
H2534 H 0.42252 0.93948 0.9563 0.0
H2535 H 0.52177 0.94388 0.79656 0.0
H2536 H 0.4718 0.38442 0.35235 0.0
H2537 H 0.50378 0.42071 0.35726 0.0
H2538 H 0.46944 0.43338 0.40008 0.0
H2539 H 0.43689 0.39677 0.39514 0.0
H2540 H 0.49544 0.47068 0.37702 0.0
H2541 H 0.50454 0.41901 0.41302 0.0
H2542 H 0.50389 0.38404 0.41923 0.0
H2543 H 0.5532 0.39952 0.37821 0.0
H2544 H 0.55391 0.43443 0.37155 0.0
H2545 H 0.60591 0.56192 0.39684 0.0
H2546 H 0.5685 0.53033 0.40068 0.0
H2547 H 0.58244 0.49391 0.36058 0.0
H2548 H 0.61955 0.52489 0.35687 0.0
H2549 H 0.56453 0.46979 0.39045 0.0
H2550 H 0.55061 0.51796 0.35123 0.0
H2551 H 0.55078 0.55253 0.34414 0.0
H2552 H 0.51078 0.5437 0.39117 0.0
H2553 H 0.51061 0.5092 0.39865 0.0
C2554 C 0.47088 0.39488 0.36277 0.0
C2555 C 0.45187 0.38753 0.37354 0.0
C2556 C 0.4892 0.41566 0.36553 0.0
C2557 C 0.48909 0.42952 0.37925 0.0
C2558 C 0.46984 0.42282 0.38949 0.0
C2559 C 0.45131 0.40192 0.38666 0.0
C2560 C 0.50971 0.45036 0.38324 0.0
C2561 C 0.5105 0.47059 0.38036 0.0
C2562 C 0.52931 0.45016 0.38759 0.0
C2563 C 0.52921 0.42932 0.39176 0.0
C2564 C 0.51517 0.41491 0.40526 0.0
C2565 C 0.5148 0.3951 0.40886 0.0
C2566 C 0.52849 0.38955 0.39911 0.0
C2567 C 0.54262 0.40384 0.38576 0.0
C2568 C 0.54304 0.42367 0.38209 0.0
C2569 C 0.60093 0.5472 0.38879 0.0
C2570 C 0.6158 0.54589 0.37663 0.0
C2571 C 0.57955 0.5292 0.39098 0.0
C2572 C 0.57271 0.50977 0.38093 0.0
C2573 C 0.58742 0.50867 0.3686 0.0
C2574 C 0.60868 0.52646 0.36648 0.0
C2575 C 0.55054 0.49009 0.38328 0.0
C2576 C 0.54943 0.47001 0.38752 0.0
C2577 C 0.53077 0.49051 0.38018 0.0
C2578 C 0.53083 0.51117 0.37562 0.0
C2579 C 0.542 0.52349 0.36013 0.0
C2580 C 0.54207 0.54305 0.35603 0.0
C2581 C 0.53086 0.55034 0.36723 0.0
C2582 C 0.51949 0.53805 0.38253 0.0
C2583 C 0.5194 0.5185 0.3867 0.0
H2584 H 0.53093 0.56549 0.36403 0.0
H2585 H 0.52816 0.3742 0.40191 0.0
H2586 H 0.05232 0.44168 0.89813 0.0
H2587 H 0.04615 0.47322 0.90042 0.0
H2588 H 0.07026 0.49236 0.84557 0.0
H2589 H 0.07732 0.46166 0.84359 0.0
H2590 H 0.09026 0.52591 0.86705 0.0
H2591 H 0.01317 0.46842 0.85909 0.0
H2592 H 0.9798 0.43383 0.86801 0.0
H2593 H 0.98051 0.46141 0.92035 0.0
H2594 H 0.01399 0.4961 0.91177 0.0
H2595 H 0.06846 0.60745 0.84242 0.0
H2596 H 0.06347 0.57041 0.84443 0.0
H2597 H 0.04264 0.56564 0.90028 0.0
H2598 H 0.04672 0.60259 0.89806 0.0
H2599 H 0.02108 0.52526 0.8833 0.0
H2600 H 0.09583 0.58274 0.89138 0.0
H2601 H 0.12982 0.61742 0.88382 0.0
H2602 H 0.13461 0.58961 0.83313 0.0
H2603 H 0.10046 0.55487 0.84027 0.0
C2604 C 0.05602 0.45253 0.88653 0.0
C2605 C 0.06551 0.44943 0.87075 0.0
C2606 C 0.05241 0.47047 0.88781 0.0
C2607 C 0.0577 0.48517 0.87314 0.0
C2608 C 0.06622 0.48137 0.85712 0.0
C2609 C 0.07025 0.46383 0.85599 0.0
C2610 C 0.05612 0.50552 0.87463 0.0
C2611 C 0.07501 0.52565 0.87038 0.0
C2612 C 0.03658 0.50542 0.87989 0.0
C2613 C 0.01617 0.48477 0.88484 0.0
C2614 C 0.00625 0.46707 0.87252 0.0
C2615 C 0.98731 0.44745 0.87751 0.0
C2616 C 0.97807 0.44541 0.89475 0.0
C2617 C 0.98768 0.46301 0.907 0.0
C2618 C 0.00661 0.48266 0.90207 0.0
C2619 C 0.0624 0.59834 0.85502 0.0
C2620 C 0.05829 0.60794 0.87017 0.0
C2621 C 0.05957 0.5772 0.85617 0.0
C2622 C 0.05329 0.56554 0.87266 0.0
C2623 C 0.04766 0.57443 0.88747 0.0
C2624 C 0.05003 0.59551 0.8862 0.0
C2625 C 0.05489 0.54529 0.87472 0.0
C2626 C 0.03624 0.52538 0.87994 0.0
C2627 C 0.07474 0.5455 0.87051 0.0
C2628 C 0.09552 0.56625 0.86632 0.0
C2629 C 0.10408 0.58406 0.87859 0.0
C2630 C 0.12338 0.60373 0.87437 0.0
C2631 C 0.13435 0.60573 0.85799 0.0
C2632 C 0.12609 0.58804 0.84581 0.0
C2633 C 0.10678 0.56835 0.84995 0.0
H2634 H 0.14927 0.62098 0.85475 0.0
H2635 H 0.96345 0.43019 0.89861 0.0
H2636 H 0.60213 0.03858 0.38902 0.0
H2637 H 0.56488 0.03221 0.39508 0.0
H2638 H 0.58951 0.10231 0.39258 0.0
H2639 H 0.62656 0.10882 0.38631 0.0
H2640 H 0.55958 0.08006 0.42215 0.0
H2641 H 0.56676 0.07349 0.35648 0.0
H2642 H 0.57341 0.05674 0.32945 0.0
H2643 H 0.51991 0.99316 0.34491 0.0
H2644 H 0.51314 0.00953 0.37218 0.0
H2645 H 0.48499 0.11106 0.39231 0.0
H2646 H 0.5143 0.10268 0.39804 0.0
H2647 H 0.46727 0.03298 0.39522 0.0
H2648 H 0.43757 0.04125 0.38949 0.0
H2649 H 0.50353 0.04511 0.37338 0.0
H2650 H 0.49072 0.05259 0.43502 0.0
H2651 H 0.48343 0.06838 0.46233 0.0
H2652 H 0.5458 0.12785 0.45583 0.0
H2653 H 0.55342 0.11254 0.42837 0.0
C2654 C 0.59963 0.05264 0.38992 0.0
C2655 C 0.61726 0.07421 0.38704 0.0
C2656 C 0.57836 0.04896 0.39338 0.0
C2657 C 0.57451 0.0668 0.39426 0.0
C2658 C 0.5922 0.08834 0.39202 0.0
C2659 C 0.61333 0.09201 0.3883 0.0
C2660 C 0.55194 0.06327 0.39637 0.0
C2661 C 0.54725 0.07238 0.41155 0.0
C2662 C 0.5356 0.05245 0.38287 0.0
C2663 C 0.53965 0.04266 0.36648 0.0
C2664 C 0.55656 0.05591 0.3542 0.0
C2665 C 0.56032 0.04649 0.33882 0.0
C2666 C 0.54715 0.02388 0.3355 0.0
C2667 C 0.53014 0.01066 0.34752 0.0
C2668 C 0.52633 0.01999 0.36294 0.0
C2669 C 0.48076 0.09392 0.39308 0.0
C2670 C 0.45895 0.07683 0.3903 0.0
C2671 C 0.49753 0.08915 0.39651 0.0
C2672 C 0.49293 0.06721 0.3972 0.0
C2673 C 0.47112 0.05002 0.39482 0.0
C2674 C 0.4542 0.05479 0.39158 0.0
C2675 C 0.51145 0.06273 0.39884 0.0
C2676 C 0.51547 0.05217 0.38433 0.0
C2677 C 0.52706 0.072 0.41307 0.0
C2678 C 0.5226 0.08143 0.42956 0.0
C2679 C 0.50282 0.06911 0.43932 0.0
C2680 C 0.49864 0.07796 0.45485 0.0
C2681 C 0.51411 0.09912 0.46078 0.0
C2682 C 0.53383 0.11146 0.45122 0.0
C2683 C 0.53812 0.10267 0.43569 0.0
H2684 H 0.51083 0.10595 0.47281 0.0
H2685 H 0.55007 0.01663 0.32358 0.0
H2686 H 0.56727 0.60323 0.88366 0.0
H2687 H 0.53661 0.56533 0.88752 0.0
H2688 H 0.49033 0.58903 0.88582 0.0
H2689 H 0.52066 0.62674 0.88173 0.0
H2690 H 0.48201 0.5576 0.9139 0.0
H2691 H 0.49764 0.56886 0.84904 0.0
H2692 H 0.52182 0.57801 0.82224 0.0
H2693 H 0.53341 0.52467 0.83482 0.0
H2694 H 0.50949 0.5154 0.8619 0.0
H2695 H 0.37835 0.48168 0.88099 0.0
H2696 H 0.41581 0.51217 0.88526 0.0
H2697 H 0.44013 0.46642 0.88748 0.0
H2698 H 0.40231 0.43545 0.88343 0.0
H2699 H 0.46405 0.50425 0.86333 0.0
H2700 H 0.44156 0.48838 0.9248 0.0
H2701 H 0.41667 0.47933 0.95111 0.0
H2702 H 0.41783 0.54098 0.94514 0.0
H2703 H 0.44245 0.55026 0.91859 0.0
C2704 C 0.55057 0.60036 0.88426 0.0
C2705 C 0.54636 0.61795 0.88228 0.0
C2706 C 0.53311 0.57874 0.88644 0.0
C2707 C 0.51127 0.57446 0.88693 0.0
C2708 C 0.5071 0.59205 0.88553 0.0
C2709 C 0.52445 0.61355 0.88308 0.0
C2710 C 0.49245 0.55165 0.88802 0.0
C2711 C 0.47808 0.54587 0.9029 0.0
C2712 C 0.48778 0.53618 0.87391 0.0
C2713 C 0.50205 0.54165 0.85762 0.0
C2714 C 0.50552 0.55922 0.84619 0.0
C2715 C 0.51914 0.5644 0.83093 0.0
C2716 C 0.52923 0.55199 0.82686 0.0
C2717 C 0.52564 0.53431 0.83802 0.0
C2718 C 0.51205 0.52908 0.85332 0.0
C2719 C 0.3916 0.478 0.8824 0.0
C2720 C 0.38736 0.45613 0.88183 0.0
C2721 C 0.41299 0.49546 0.88493 0.0
C2722 C 0.43065 0.49149 0.8868 0.0
C2723 C 0.42664 0.46974 0.88613 0.0
C2724 C 0.40507 0.45212 0.88387 0.0
C2725 C 0.45323 0.51047 0.88895 0.0
C2726 C 0.46829 0.51563 0.87464 0.0
C2727 C 0.45856 0.52538 0.90361 0.0
C2728 C 0.44378 0.51996 0.91962 0.0
C2729 C 0.43637 0.49994 0.929 0.0
C2730 C 0.42233 0.49478 0.94398 0.0
C2731 C 0.41565 0.50956 0.94978 0.0
C2732 C 0.42302 0.52955 0.94063 0.0
C2733 C 0.43705 0.53478 0.92563 0.0
H2734 H 0.40478 0.50554 0.96139 0.0
H2735 H 0.53977 0.55601 0.81504 0.0
loop_
_geom_bond_atom_site_label_1
_geom_bond_atom_site_label_2
_geom_bond_distance
_geom_bond_site_symmetry_2
_ccdc_geom_bond_type
Co0 O1 2.216 . S
Co0 O2 2.091 . S
Co0 O4 2.004 . S
Co0 O10 2.021 . S
Co0 O12 2.137 . S
Co0 O13 2.244 . S
O1 Co0 2.216 . S
O1 C8 1.247 . S
O2 Co0 2.091 . S
O2 C8 1.261 . S
C3 O12 1.247 . S
C3 O13 1.272 . S
O4 Co0 2.004 . S
O4 C9 1.259 . S
Co5 O6 2.061 . S
Co5 O11 2.052 . S
Co5 O13 2.135 . S
O6 Co5 2.061 . S
O6 C9 1.235 . S
C7 O10 1.238 . S
C7 O11 1.241 . S
C8 O1 1.247 . S
C8 O2 1.261 . S
C9 O4 1.259 . S
C9 O6 1.235 . S
O10 Co0 2.021 . S
O10 C7 1.238 . S
O11 Co5 2.052 . S
O11 C7 1.241 . S
O12 Co0 2.137 . S
O12 C3 1.247 . S
O13 Co0 2.244 . S
O13 C3 1.272 . S
O13 Co5 2.135 . S
Co14 O15 2.216 . S
Co14 O16 2.091 . S
Co14 O18 2.004 . S
Co14 O24 2.021 . S
Co14 O26 2.137 . S
Co14 O27 2.244 . S
O15 Co14 2.216 . S
O15 C22 1.247 . S
O16 Co14 2.091 . S
O16 C22 1.261 . S
C17 O26 1.247 . S
C17 O27 1.272 . S
O18 Co14 2.004 . S
O18 C23 1.259 . S
Co19 O20 2.061 . S
Co19 O25 2.052 . S
Co19 O27 2.135 . S
O20 Co19 2.061 . S
O20 C23 1.235 . S
C21 O24 1.238 . S
C21 O25 1.241 . S
C22 O15 1.247 . S
C22 O16 1.261 . S
C23 O18 1.259 . S
C23 O20 1.235 . S
O24 Co14 2.021 . S
O24 C21 1.238 . S
O25 Co19 2.052 . S
O25 C21 1.241 . S
O26 Co14 2.137 . S
O26 C17 1.247 . S
O27 Co14 2.244 . S
O27 C17 1.272 . S
O27 Co19 2.135 . S
Co28 O29 2.216 . S
Co28 O30 2.091 . S
Co28 O32 2.004 . S
Co28 O38 2.021 . S
Co28 O40 2.137 . S
Co28 O41 2.244 . S
O29 Co28 2.216 . S
O29 C36 1.247 . S
O30 Co28 2.091 . S
O30 C36 1.261 . S
C31 O40 1.247 . S
C31 O41 1.272 . S
O32 Co28 2.004 . S
O32 C37 1.259 . S
Co33 O34 2.061 . S
Co33 O39 2.052 . S
Co33 O41 2.135 . S
O34 Co33 2.061 . S
O34 C37 1.235 . S
C35 O38 1.238 . S
C35 O39 1.241 . S
C36 O29 1.247 . S
C36 O30 1.261 . S
C37 O32 1.259 . S
C37 O34 1.235 . S
O38 Co28 2.021 . S
O38 C35 1.238 . S
O39 Co33 2.052 . S
O39 C35 1.241 . S
O40 Co28 2.137 . S
O40 C31 1.247 . S
O41 Co28 2.244 . S
O41 C31 1.272 . S
O41 Co33 2.135 . S
Co42 O43 2.216 . S
Co42 O44 2.091 . S
Co42 O46 2.004 . S
Co42 O52 2.021 . S
Co42 O54 2.137 . S
Co42 O55 2.244 . S
O43 Co42 2.216 . S
O43 C50 1.247 . S
O44 Co42 2.091 . S
O44 C50 1.261 . S
C45 O54 1.247 . S
C45 O55 1.272 . S
O46 Co42 2.004 . S
O46 C51 1.259 . S
Co47 O48 2.061 . S
Co47 O53 2.052 . S
Co47 O55 2.135 . S
O48 Co47 2.061 . S
O48 C51 1.235 . S
C49 O52 1.238 . S
C49 O53 1.241 . S
C50 O43 1.247 . S
C50 O44 1.261 . S
C51 O46 1.259 . S
C51 O48 1.235 . S
O52 Co42 2.021 . S
O52 C49 1.238 . S
O53 Co47 2.052 . S
O53 C49 1.241 . S
O54 Co42 2.137 . S
O54 C45 1.247 . S
O55 Co42 2.244 . S
O55 C45 1.272 . S
O55 Co47 2.135 . S
Co56 O57 2.216 . S
Co56 O58 2.091 . S
Co56 O60 2.004 . S
Co56 O66 2.021 . S
Co56 O68 2.137 . S
Co56 O69 2.244 . S
O57 Co56 2.216 . S
O57 C64 1.247 . S
O58 Co56 2.091 . S
O58 C64 1.261 . S
C59 O68 1.247 . S
C59 O69 1.272 . S
O60 Co56 2.004 . S
O60 C65 1.259 . S
Co61 O62 2.061 . S
Co61 O67 2.052 . S
Co61 O69 2.135 . S
O62 Co61 2.061 . S
O62 C65 1.235 . S
C63 O66 1.238 . S
C63 O67 1.241 . S
C64 O57 1.247 . S
C64 O58 1.261 . S
C65 O60 1.259 . S
C65 O62 1.235 . S
O66 Co56 2.021 . S
O66 C63 1.238 . S
O67 Co61 2.052 . S
O67 C63 1.241 . S
O68 Co56 2.137 . S
O68 C59 1.247 . S
O69 Co56 2.244 . S
O69 C59 1.272 . S
O69 Co61 2.135 . S
Co70 O71 2.216 . S
Co70 O72 2.091 . S
Co70 O74 2.004 . S
Co70 O80 2.021 . S
Co70 O82 2.137 . S
Co70 O83 2.244 . S
O71 Co70 2.216 . S
O71 C78 1.247 . S
O72 Co70 2.091 . S
O72 C78 1.261 . S
C73 O82 1.247 . S
C73 O83 1.272 . S
O74 Co70 2.004 . S
O74 C79 1.259 . S
Co75 O76 2.061 . S
Co75 O81 2.052 . S
Co75 O83 2.135 . S
O76 Co75 2.061 . S
O76 C79 1.235 . S
C77 O80 1.238 . S
C77 O81 1.241 . S
C78 O71 1.247 . S
C78 O72 1.261 . S
C79 O74 1.259 . S
C79 O76 1.235 . S
O80 Co70 2.021 . S
O80 C77 1.238 . S
O81 Co75 2.052 . S
O81 C77 1.241 . S
O82 Co70 2.137 . S
O82 C73 1.247 . S
O83 Co70 2.244 . S
O83 C73 1.272 . S
O83 Co75 2.135 . S
Co84 O85 2.216 . S
Co84 O86 2.091 . S
Co84 O88 2.004 . S
Co84 O94 2.021 . S
Co84 O96 2.137 . S
Co84 O97 2.244 . S
O85 Co84 2.216 . S
O85 C92 1.247 . S
O86 Co84 2.091 . S
O86 C92 1.261 . S
C87 O96 1.247 . S
C87 O97 1.272 . S
O88 Co84 2.004 . S
O88 C93 1.259 . S
Co89 O90 2.061 . S
Co89 O95 2.052 . S
Co89 O97 2.135 . S
O90 Co89 2.061 . S
O90 C93 1.235 . S
C91 O94 1.238 . S
C91 O95 1.241 . S
C92 O85 1.247 . S
C92 O86 1.261 . S
C93 O88 1.259 . S
C93 O90 1.235 . S
O94 Co84 2.021 . S
O94 C91 1.238 . S
O95 Co89 2.052 . S
O95 C91 1.241 . S
O96 Co84 2.137 . S
O96 C87 1.247 . S
O97 Co84 2.244 . S
O97 C87 1.272 . S
O97 Co89 2.135 . S
Co98 O99 2.216 . S
Co98 O100 2.091 . S
Co98 O102 2.004 . S
Co98 O108 2.021 . S
Co98 O110 2.137 . S
Co98 O111 2.244 . S
O99 Co98 2.216 . S
O99 C106 1.247 . S
O100 Co98 2.091 . S
O100 C106 1.261 . S
C101 O110 1.247 . S
C101 O111 1.272 . S
O102 Co98 2.004 . S
O102 C107 1.259 . S
Co103 O104 2.061 . S
Co103 O109 2.052 . S
Co103 O111 2.135 . S
O104 Co103 2.061 . S
O104 C107 1.235 . S
C105 O108 1.238 . S
C105 O109 1.241 . S
C106 O99 1.247 . S
C106 O100 1.261 . S
C107 O102 1.259 . S
C107 O104 1.235 . S
O108 Co98 2.021 . S
O108 C105 1.238 . S
O109 Co103 2.052 . S
O109 C105 1.241 . S
O110 Co98 2.137 . S
O110 C101 1.247 . S
O111 Co98 2.244 . S
O111 C101 1.272 . S
O111 Co103 2.135 . S
Co112 O113 2.216 . S
Co112 O114 2.091 . S
Co112 O116 2.004 . S
Co112 O122 2.021 . S
Co112 O124 2.137 . S
Co112 O125 2.244 . S
O113 Co112 2.216 . S
O113 C120 1.247 . S
O114 Co112 2.091 . S
O114 C120 1.261 . S
C115 O124 1.247 . S
C115 O125 1.272 . S
O116 Co112 2.004 . S
O116 C121 1.259 . S
Co117 O118 2.061 . S
Co117 O123 2.052 . S
Co117 O125 2.135 . S
O118 Co117 2.061 . S
O118 C121 1.235 . S
C119 O122 1.238 . S
C119 O123 1.241 . S
C120 O113 1.247 . S
C120 O114 1.261 . S
C121 O116 1.259 . S
C121 O118 1.235 . S
O122 Co112 2.021 . S
O122 C119 1.238 . S
O123 Co117 2.052 . S
O123 C119 1.241 . S
O124 Co112 2.137 . S
O124 C115 1.247 . S
O125 Co112 2.244 . S
O125 C115 1.272 . S
O125 Co117 2.135 . S
Co126 O127 2.216 . S
Co126 O128 2.091 . S
Co126 O130 2.004 . S
Co126 O136 2.021 . S
Co126 O138 2.137 . S
Co126 O139 2.244 . S
O127 Co126 2.216 . S
O127 C134 1.247 . S
O128 Co126 2.091 . S
O128 C134 1.261 . S
C129 O138 1.247 . S
C129 O139 1.272 . S
O130 Co126 2.004 . S
O130 C135 1.259 . S
Co131 O132 2.061 . S
Co131 O137 2.052 . S
Co131 O139 2.135 . S
O132 Co131 2.061 . S
O132 C135 1.235 . S
C133 O136 1.238 . S
C133 O137 1.241 . S
C134 O127 1.247 . S
C134 O128 1.261 . S
C135 O130 1.259 . S
C135 O132 1.235 . S
O136 Co126 2.021 . S
O136 C133 1.238 . S
O137 Co131 2.052 . S
O137 C133 1.241 . S
O138 Co126 2.137 . S
O138 C129 1.247 . S
O139 Co126 2.244 . S
O139 C129 1.272 . S
O139 Co131 2.135 . S
Co140 O141 2.216 . S
Co140 O142 2.091 . S
Co140 O144 2.004 . S
Co140 O150 2.021 . S
Co140 O152 2.137 . S
Co140 O153 2.244 . S
O141 Co140 2.216 . S
O141 C148 1.247 . S
O142 Co140 2.091 . S
O142 C148 1.261 . S
C143 O152 1.247 . S
C143 O153 1.272 . S
O144 Co140 2.004 . S
O144 C149 1.259 . S
Co145 O146 2.061 . S
Co145 O151 2.052 . S
Co145 O153 2.135 . S
O146 Co145 2.061 . S
O146 C149 1.235 . S
C147 O150 1.238 . S
C147 O151 1.241 . S
C148 O141 1.247 . S
C148 O142 1.261 . S
C149 O144 1.259 . S
C149 O146 1.235 . S
O150 Co140 2.021 . S
O150 C147 1.238 . S
O151 Co145 2.052 . S
O151 C147 1.241 . S
O152 Co140 2.137 . S
O152 C143 1.247 . S
O153 Co140 2.244 . S
O153 C143 1.272 . S
O153 Co145 2.135 . S
Co154 O155 2.216 . S
Co154 O156 2.091 . S
Co154 O158 2.004 . S
Co154 O164 2.021 . S
Co154 O166 2.137 . S
Co154 O167 2.244 . S
O155 Co154 2.216 . S
O155 C162 1.247 . S
O156 Co154 2.091 . S
O156 C162 1.261 . S
C157 O166 1.247 . S
C157 O167 1.272 . S
O158 Co154 2.004 . S
O158 C163 1.259 . S
Co159 O160 2.061 . S
Co159 O165 2.052 . S
Co159 O167 2.135 . S
O160 Co159 2.061 . S
O160 C163 1.235 . S
C161 O164 1.238 . S
C161 O165 1.241 . S
C162 O155 1.247 . S
C162 O156 1.261 . S
C163 O158 1.259 . S
C163 O160 1.235 . S
O164 Co154 2.021 . S
O164 C161 1.238 . S
O165 Co159 2.052 . S
O165 C161 1.241 . S
O166 Co154 2.137 . S
O166 C157 1.247 . S
O167 Co154 2.244 . S
O167 C157 1.272 . S
O167 Co159 2.135 . S
Co168 O169 2.216 . S
Co168 O170 2.091 . S
Co168 O172 2.004 . S
Co168 O178 2.021 . S
Co168 O180 2.137 . S
Co168 O181 2.244 . S
O169 Co168 2.216 . S
O169 C176 1.247 . S
O170 Co168 2.091 . S
O170 C176 1.261 . S
C171 O180 1.247 . S
C171 O181 1.272 . S
O172 Co168 2.004 . S
O172 C177 1.259 . S
Co173 O174 2.061 . S
Co173 O179 2.052 . S
Co173 O181 2.135 . S
O174 Co173 2.061 . S
O174 C177 1.235 . S
C175 O178 1.238 . S
C175 O179 1.241 . S
C176 O169 1.247 . S
C176 O170 1.261 . S
C177 O172 1.259 . S
C177 O174 1.235 . S
O178 Co168 2.021 . S
O178 C175 1.238 . S
O179 Co173 2.052 . S
O179 C175 1.241 . S
O180 Co168 2.137 . S
O180 C171 1.247 . S
O181 Co168 2.244 . S
O181 C171 1.272 . S
O181 Co173 2.135 . S
Co182 O183 2.216 . S
Co182 O184 2.091 . S
Co182 O186 2.004 . S
Co182 O192 2.021 . S
Co182 O194 2.137 . S
Co182 O195 2.244 . S
O183 Co182 2.216 . S
O183 C190 1.247 . S
O184 Co182 2.091 . S
O184 C190 1.261 . S
C185 O194 1.247 . S
C185 O195 1.272 . S
O186 Co182 2.004 . S
O186 C191 1.259 . S
Co187 O188 2.061 . S
Co187 O193 2.052 . S
Co187 O195 2.135 . S
O188 Co187 2.061 . S
O188 C191 1.235 . S
C189 O192 1.238 . S
C189 O193 1.241 . S
C190 O183 1.247 . S
C190 O184 1.261 . S
C191 O186 1.259 . S
C191 O188 1.235 . S
O192 Co182 2.021 . S
O192 C189 1.238 . S
O193 Co187 2.052 . S
O193 C189 1.241 . S
O194 Co182 2.137 . S
O194 C185 1.247 . S
O195 Co182 2.244 . S
O195 C185 1.272 . S
O195 Co187 2.135 . S
Co196 O197 2.216 . S
Co196 O198 2.091 . S
Co196 O200 2.004 . S
Co196 O206 2.021 . S
Co196 O208 2.137 . S
Co196 O209 2.244 . S
O197 Co196 2.216 . S
O197 C204 1.247 . S
O198 Co196 2.091 . S
O198 C204 1.261 . S
C199 O208 1.247 . S
C199 O209 1.272 . S
O200 Co196 2.004 . S
O200 C205 1.259 . S
Co201 O202 2.061 . S
Co201 O207 2.052 . S
Co201 O209 2.135 . S
O202 Co201 2.061 . S
O202 C205 1.235 . S
C203 O206 1.238 . S
C203 O207 1.241 . S
C204 O197 1.247 . S
C204 O198 1.261 . S
C205 O200 1.259 . S
C205 O202 1.235 . S
O206 Co196 2.021 . S
O206 C203 1.238 . S
O207 Co201 2.052 . S
O207 C203 1.241 . S
O208 Co196 2.137 . S
O208 C199 1.247 . S
O209 Co196 2.244 . S
O209 C199 1.272 . S
O209 Co201 2.135 . S
Co210 O211 2.216 . S
Co210 O212 2.091 . S
Co210 O214 2.004 . S
Co210 O220 2.021 . S
Co210 O222 2.137 . S
Co210 O223 2.244 . S
O211 Co210 2.216 . S
O211 C218 1.247 . S
O212 Co210 2.091 . S
O212 C218 1.261 . S
C213 O222 1.247 . S
C213 O223 1.272 . S
O214 Co210 2.004 . S
O214 C219 1.259 . S
Co215 O216 2.061 . S
Co215 O221 2.052 . S
Co215 O223 2.135 . S
O216 Co215 2.061 . S
O216 C219 1.235 . S
C217 O220 1.238 . S
C217 O221 1.241 . S
C218 O211 1.247 . S
C218 O212 1.261 . S
C219 O214 1.259 . S
C219 O216 1.235 . S
O220 Co210 2.021 . S
O220 C217 1.238 . S
O221 Co215 2.052 . S
O221 C217 1.241 . S
O222 Co210 2.137 . S
O222 C213 1.247 . S
O223 Co210 2.244 . S
O223 C213 1.272 . S
O223 Co215 2.135 . S
Co224 O225 2.216 . S
Co224 O226 2.091 . S
Co224 O228 2.004 . S
Co224 O234 2.021 . S
Co224 O236 2.137 . S
Co224 O237 2.244 . S
O225 Co224 2.216 . S
O225 C232 1.247 . S
O226 Co224 2.091 . S
O226 C232 1.261 . S
C227 O236 1.247 . S
C227 O237 1.272 . S
O228 Co224 2.004 . S
O228 C233 1.259 . S
Co229 O230 2.061 . S
Co229 O235 2.052 . S
Co229 O237 2.135 . S
O230 Co229 2.061 . S
O230 C233 1.235 . S
C231 O234 1.238 . S
C231 O235 1.241 . S
C232 O225 1.247 . S
C232 O226 1.261 . S
C233 O228 1.259 . S
C233 O230 1.235 . S
O234 Co224 2.021 . S
O234 C231 1.238 . S
O235 Co229 2.052 . S
O235 C231 1.241 . S
O236 Co224 2.137 . S
O236 C227 1.247 . S
O237 Co224 2.244 . S
O237 C227 1.272 . S
O237 Co229 2.135 . S
Co238 O239 2.216 . S
Co238 O240 2.091 . S
Co238 O242 2.004 . S
Co238 O248 2.021 . S
Co238 O250 2.137 . S
Co238 O251 2.244 . S
O239 Co238 2.216 . S
O239 C246 1.247 . S
O240 Co238 2.091 . S
O240 C246 1.261 . S
C241 O250 1.247 . S
C241 O251 1.272 . S
O242 Co238 2.004 . S
O242 C247 1.259 . S
Co243 O244 2.061 . S
Co243 O249 2.052 . S
Co243 O251 2.135 . S
O244 Co243 2.061 . S
O244 C247 1.235 . S
C245 O248 1.238 . S
C245 O249 1.241 . S
C246 O239 1.247 . S
C246 O240 1.261 . S
C247 O242 1.259 . S
C247 O244 1.235 . S
O248 Co238 2.021 . S
O248 C245 1.238 . S
O249 Co243 2.052 . S
O249 C245 1.241 . S
O250 Co238 2.137 . S
O250 C241 1.247 . S
O251 Co238 2.244 . S
O251 C241 1.272 . S
O251 Co243 2.135 . S
Co252 O253 2.216 . S
Co252 O254 2.091 . S
Co252 O256 2.004 . S
Co252 O262 2.021 . S
Co252 O264 2.137 . S
Co252 O265 2.244 . S
O253 Co252 2.216 . S
O253 C260 1.247 . S
O254 Co252 2.091 . S
O254 C260 1.261 . S
C255 O264 1.247 . S
C255 O265 1.272 . S
O256 Co252 2.004 . S
O256 C261 1.259 . S
Co257 O258 2.061 . S
Co257 O263 2.052 . S
Co257 O265 2.135 . S
O258 Co257 2.061 . S
O258 C261 1.235 . S
C259 O262 1.238 . S
C259 O263 1.241 . S
C260 O253 1.247 . S
C260 O254 1.261 . S
C261 O256 1.259 . S
C261 O258 1.235 . S
O262 Co252 2.021 . S
O262 C259 1.238 . S
O263 Co257 2.052 . S
O263 C259 1.241 . S
O264 Co252 2.137 . S
O264 C255 1.247 . S
O265 Co252 2.244 . S
O265 C255 1.272 . S
O265 Co257 2.135 . S
Co266 O267 2.216 . S
Co266 O268 2.091 . S
Co266 O270 2.004 . S
Co266 O276 2.021 . S
Co266 O278 2.137 . S
Co266 O279 2.244 . S
O267 Co266 2.216 . S
O267 C274 1.247 . S
O268 Co266 2.091 . S
O268 C274 1.261 . S
C269 O278 1.247 . S
C269 O279 1.272 . S
O270 Co266 2.004 . S
O270 C275 1.259 . S
Co271 O272 2.061 . S
Co271 O277 2.052 . S
Co271 O279 2.135 . S
O272 Co271 2.061 . S
O272 C275 1.235 . S
C273 O276 1.238 . S
C273 O277 1.241 . S
C274 O267 1.247 . S
C274 O268 1.261 . S
C275 O270 1.259 . S
C275 O272 1.235 . S
O276 Co266 2.021 . S
O276 C273 1.238 . S
O277 Co271 2.052 . S
O277 C273 1.241 . S
O278 Co266 2.137 . S
O278 C269 1.247 . S
O279 Co266 2.244 . S
O279 C269 1.272 . S
O279 Co271 2.135 . S
Co280 O281 2.216 . S
Co280 O282 2.091 . S
Co280 O284 2.004 . S
Co280 O290 2.021 . S
Co280 O292 2.137 . S
Co280 O293 2.244 . S
O281 Co280 2.216 . S
O281 C288 1.247 . S
O282 Co280 2.091 . S
O282 C288 1.261 . S
C283 O292 1.247 . S
C283 O293 1.272 . S
O284 Co280 2.004 . S
O284 C289 1.259 . S
Co285 O286 2.061 . S
Co285 O291 2.052 . S
Co285 O293 2.135 . S
O286 Co285 2.061 . S
O286 C289 1.235 . S
C287 O290 1.238 . S
C287 O291 1.241 . S
C288 O281 1.247 . S
C288 O282 1.261 . S
C289 O284 1.259 . S
C289 O286 1.235 . S
O290 Co280 2.021 . S
O290 C287 1.238 . S
O291 Co285 2.052 . S
O291 C287 1.241 . S
O292 Co280 2.137 . S
O292 C283 1.247 . S
O293 Co280 2.244 . S
O293 C283 1.272 . S
O293 Co285 2.135 . S
Co294 O295 2.216 . S
Co294 O296 2.091 . S
Co294 O298 2.004 . S
Co294 O304 2.021 . S
Co294 O306 2.137 . S
Co294 O307 2.244 . S
O295 Co294 2.216 . S
O295 C302 1.247 . S
O296 Co294 2.091 . S
O296 C302 1.261 . S
C297 O306 1.247 . S
C297 O307 1.272 . S
O298 Co294 2.004 . S
O298 C303 1.259 . S
Co299 O300 2.061 . S
Co299 O305 2.052 . S
Co299 O307 2.135 . S
O300 Co299 2.061 . S
O300 C303 1.235 . S
C301 O304 1.238 . S
C301 O305 1.241 . S
C302 O295 1.247 . S
C302 O296 1.261 . S
C303 O298 1.259 . S
C303 O300 1.235 . S
O304 Co294 2.021 . S
O304 C301 1.238 . S
O305 Co299 2.052 . S
O305 C301 1.241 . S
O306 Co294 2.137 . S
O306 C297 1.247 . S
O307 Co294 2.244 . S
O307 C297 1.272 . S
O307 Co299 2.135 . S
Co308 O309 2.216 . S
Co308 O310 2.091 . S
Co308 O312 2.004 . S
Co308 O318 2.021 . S
Co308 O320 2.137 . S
Co308 O321 2.244 . S
O309 Co308 2.216 . S
O309 C316 1.247 . S
O310 Co308 2.091 . S
O310 C316 1.261 . S
C311 O320 1.247 . S
C311 O321 1.272 . S
O312 Co308 2.004 . S
O312 C317 1.259 . S
Co313 O314 2.061 . S
Co313 O319 2.052 . S
Co313 O321 2.135 . S
O314 Co313 2.061 . S
O314 C317 1.235 . S
C315 O318 1.238 . S
C315 O319 1.241 . S
C316 O309 1.247 . S
C316 O310 1.261 . S
C317 O312 1.259 . S
C317 O314 1.235 . S
O318 Co308 2.021 . S
O318 C315 1.238 . S
O319 Co313 2.052 . S
O319 C315 1.241 . S
O320 Co308 2.137 . S
O320 C311 1.247 . S
O321 Co308 2.244 . S
O321 C311 1.272 . S
O321 Co313 2.135 . S
Co322 O323 2.216 . S
Co322 O324 2.091 . S
Co322 O326 2.004 . S
Co322 O332 2.021 . S
Co322 O334 2.137 . S
Co322 O335 2.244 . S
O323 Co322 2.216 . S
O323 C330 1.247 . S
O324 Co322 2.091 . S
O324 C330 1.261 . S
C325 O334 1.247 . S
C325 O335 1.272 . S
O326 Co322 2.004 . S
O326 C331 1.259 . S
Co327 O328 2.061 . S
Co327 O333 2.052 . S
Co327 O335 2.135 . S
O328 Co327 2.061 . S
O328 C331 1.235 . S
C329 O332 1.238 . S
C329 O333 1.241 . S
C330 O323 1.247 . S
C330 O324 1.261 . S
C331 O326 1.259 . S
C331 O328 1.235 . S
O332 Co322 2.021 . S
O332 C329 1.238 . S
O333 Co327 2.052 . S
O333 C329 1.241 . S
O334 Co322 2.137 . S
O334 C325 1.247 . S
O335 Co322 2.244 . S
O335 C325 1.272 . S
O335 Co327 2.135 . S
H336 C354 0.951 . S
H337 C356 0.951 . S
H338 C358 0.950 . S
H339 C359 0.950 . S
H340 C361 0.950 . S
H341 C364 0.950 . S
H342 C365 0.950 . S
H343 C367 0.950 . S
H344 C368 0.950 . S
H345 C369 0.951 . S
H346 C371 0.951 . S
H347 C373 0.950 . S
H348 C374 0.950 . S
H349 C376 0.950 . S
H350 C379 0.950 . S
H351 C380 0.950 . S
H352 C382 0.950 . S
H353 C383 0.950 . S
C354 H336 0.951 . S
C354 C355 1.366 . S
C354 C356 1.388 . S
C355 C354 1.366 . S
C355 C359 1.385 . S
C356 H337 0.951 . S
C356 C354 1.388 . S
C356 C357 1.366 . S
C357 C356 1.366 . S
C357 C358 1.414 . S
C357 C360 1.499 . S
C358 H338 0.950 . S
C358 C357 1.414 . S
C358 C359 1.374 . S
C359 H339 0.950 . S
C359 C355 1.385 . S
C359 C358 1.374 . S
C360 C357 1.499 . S
C360 C361 1.373 . S
C360 C362 1.389 . S
C361 H340 0.950 . S
C361 C360 1.373 . S
C361 C377 1.377 . S
C362 C360 1.389 . S
C362 C363 1.524 . S
C362 C376 1.377 . S
C363 C362 1.524 . S
C363 C364 1.397 . S
C363 C368 1.363 . S
C364 H341 0.950 . S
C364 C363 1.397 . S
C364 C365 1.334 . S
C365 H342 0.950 . S
C365 C364 1.334 . S
C365 C366 1.287 . S
C366 C365 1.287 . S
C366 C367 1.524 . S
C366 H385 0.913 . S
C367 H343 0.950 . S
C367 C366 1.524 . S
C367 C368 1.415 . S
C368 H344 0.950 . S
C368 C363 1.363 . S
C368 C367 1.415 . S
C369 H345 0.951 . S
C369 C370 1.366 . S
C369 C371 1.388 . S
C370 C369 1.366 . S
C370 C374 1.385 . S
C371 H346 0.951 . S
C371 C369 1.388 . S
C371 C372 1.366 . S
C372 C371 1.366 . S
C372 C373 1.414 . S
C372 C375 1.499 . S
C373 H347 0.950 . S
C373 C372 1.414 . S
C373 C374 1.374 . S
C374 H348 0.950 . S
C374 C370 1.385 . S
C374 C373 1.374 . S
C375 C372 1.499 . S
C375 C376 1.373 . S
C375 C377 1.389 . S
C376 H349 0.950 . S
C376 C362 1.377 . S
C376 C375 1.373 . S
C377 C361 1.377 . S
C377 C375 1.389 . S
C377 C378 1.561 . S
C378 C377 1.561 . S
C378 C379 1.383 . S
C378 C383 1.341 1_545 S
C379 H350 0.950 . S
C379 C378 1.383 . S
C379 C380 1.334 1_545 S
C380 H351 0.950 . S
C380 C379 1.334 1_565 S
C380 C381 1.287 . S
C381 C380 1.287 . S
C381 C382 1.524 . S
C381 H384 0.999 . S
C382 H352 0.950 . S
C382 C381 1.524 . S
C382 C383 1.415 . S
C383 H353 0.950 . S
C383 C378 1.341 1_565 S
C383 C382 1.415 . S
H384 C381 0.999 . S
H385 C366 0.913 . S
H386 C404 0.951 . S
H387 C406 0.951 . S
H388 C408 0.950 . S
H389 C409 0.950 . S
H390 C411 0.950 . S
H391 C414 0.950 . S
H392 C415 0.950 . S
H393 C417 0.950 . S
H394 C418 0.950 . S
H395 C419 0.951 . S
H396 C421 0.951 . S
H397 C423 0.950 . S
H398 C424 0.950 . S
H399 C426 0.950 . S
H400 C429 0.950 . S
H401 C430 0.950 . S
H402 C432 0.950 . S
H403 C433 0.950 . S
C404 H386 0.951 . S
C404 C405 1.366 . S
C404 C406 1.388 . S
C405 C404 1.366 . S
C405 C409 1.385 . S
C406 H387 0.951 . S
C406 C404 1.388 . S
C406 C407 1.366 . S
C407 C406 1.366 . S
C407 C408 1.414 . S
C407 C410 1.499 . S
C408 H388 0.950 . S
C408 C407 1.414 . S
C408 C409 1.374 . S
C409 H389 0.950 . S
C409 C405 1.385 . S
C409 C408 1.374 . S
C410 C407 1.499 . S
C410 C411 1.373 . S
C410 C412 1.389 . S
C411 H390 0.950 . S
C411 C410 1.373 . S
C411 C427 1.377 . S
C412 C410 1.389 . S
C412 C413 1.524 . S
C412 C426 1.377 . S
C413 C412 1.524 . S
C413 C414 1.397 . S
C413 C418 1.363 . S
C414 H391 0.950 . S
C414 C413 1.397 . S
C414 C415 1.334 . S
C415 H392 0.950 . S
C415 C414 1.334 . S
C415 C416 1.287 . S
C416 C415 1.287 . S
C416 C417 1.524 . S
C416 H435 0.913 . S
C417 H393 0.950 . S
C417 C416 1.524 . S
C417 C418 1.415 . S
C418 H394 0.950 . S
C418 C413 1.363 . S
C418 C417 1.415 . S
C419 H395 0.951 . S
C419 C420 1.366 . S
C419 C421 1.388 . S
C420 C419 1.366 . S
C420 C424 1.385 . S
C421 H396 0.951 . S
C421 C419 1.388 . S
C421 C422 1.366 . S
C422 C421 1.366 . S
C422 C423 1.414 . S
C422 C425 1.499 . S
C423 H397 0.950 . S
C423 C422 1.414 . S
C423 C424 1.374 . S
C424 H398 0.950 . S
C424 C420 1.385 . S
C424 C423 1.374 . S
C425 C422 1.499 . S
C425 C426 1.373 . S
C425 C427 1.389 . S
C426 H399 0.950 . S
C426 C412 1.377 . S
C426 C425 1.373 . S
C427 C411 1.377 . S
C427 C425 1.389 . S
C427 C428 1.524 . S
C428 C427 1.524 . S
C428 C429 1.397 . S
C428 C433 1.363 . S
C429 H400 0.950 . S
C429 C428 1.397 . S
C429 C430 1.334 . S
C430 H401 0.950 . S
C430 C429 1.334 . S
C430 C431 1.287 . S
C431 C430 1.287 . S
C431 C432 1.524 . S
C431 H434 0.999 . S
C432 H402 0.950 . S
C432 C431 1.524 . S
C432 C433 1.415 . S
C433 H403 0.950 . S
C433 C428 1.363 . S
C433 C432 1.415 . S
H434 C431 0.999 . S
H435 C416 0.913 . S
H436 C454 0.951 . S
H437 C456 0.951 . S
H438 C458 0.950 . S
H439 C459 0.950 . S
H440 C461 0.950 . S
H441 C464 0.950 . S
H442 C465 0.950 . S
H443 C467 0.950 . S
H444 C468 0.950 . S
H445 C469 0.951 . S
H446 C471 0.951 . S
H447 C473 0.950 . S
H448 C474 0.950 . S
H449 C476 0.950 . S
H450 C479 0.950 . S
H451 C480 0.950 . S
H452 C482 0.950 . S
H453 C483 0.950 . S
C454 H436 0.951 . S
C454 C455 1.366 . S
C454 C456 1.388 . S
C455 C454 1.366 . S
C455 C459 1.385 . S
C456 H437 0.951 . S
C456 C454 1.388 . S
C456 C457 1.366 . S
C457 C456 1.366 . S
C457 C458 1.414 . S
C457 C460 1.499 . S
C458 H438 0.950 . S
C458 C457 1.414 . S
C458 C459 1.374 . S
C459 H439 0.950 . S
C459 C455 1.385 . S
C459 C458 1.374 . S
C460 C457 1.499 . S
C460 C461 1.373 . S
C460 C462 1.389 . S
C461 H440 0.950 . S
C461 C460 1.373 . S
C461 C477 1.377 . S
C462 C460 1.389 . S
C462 C463 1.524 . S
C462 C476 1.377 . S
C463 C462 1.524 . S
C463 C464 1.397 . S
C463 C468 1.363 . S
C464 H441 0.950 . S
C464 C463 1.397 . S
C464 C465 1.334 . S
C465 H442 0.950 . S
C465 C464 1.334 . S
C465 C466 1.287 . S
C466 C465 1.287 . S
C466 C467 1.524 . S
C466 H485 0.913 . S
C467 H443 0.950 . S
C467 C466 1.524 . S
C467 C468 1.415 . S
C468 H444 0.950 . S
C468 C463 1.363 . S
C468 C467 1.415 . S
C469 H445 0.951 . S
C469 C470 1.366 . S
C469 C471 1.388 . S
C470 C469 1.366 . S
C470 C474 1.385 . S
C471 H446 0.951 . S
C471 C469 1.388 . S
C471 C472 1.366 . S
C472 C471 1.366 . S
C472 C473 1.414 . S
C472 C475 1.499 . S
C473 H447 0.950 . S
C473 C472 1.414 . S
C473 C474 1.374 . S
C474 H448 0.950 . S
C474 C470 1.385 . S
C474 C473 1.374 . S
C475 C472 1.499 . S
C475 C476 1.373 . S
C475 C477 1.389 . S
C476 H449 0.950 . S
C476 C462 1.377 . S
C476 C475 1.373 . S
C477 C461 1.377 . S
C477 C475 1.389 . S
C477 C478 1.524 . S
C478 C477 1.524 . S
C478 C479 1.397 . S
C478 C483 1.363 1_655 S
C479 H450 0.950 . S
C479 C478 1.397 . S
C479 C480 1.334 . S
C480 H451 0.950 . S
C480 C479 1.334 . S
C480 C481 1.287 1_655 S
C481 C480 1.287 1_455 S
C481 C482 1.524 . S
C481 H484 0.999 . S
C482 H452 0.950 . S
C482 C481 1.524 . S
C482 C483 1.415 . S
C483 H453 0.950 . S
C483 C478 1.363 1_455 S
C483 C482 1.415 . S
H484 C481 0.999 . S
H485 C466 0.913 . S
H486 C504 0.951 . S
H487 C506 0.951 . S
H488 C508 0.950 . S
H489 C509 0.950 . S
H490 C511 0.950 . S
H491 C514 0.950 . S
H492 C515 0.950 1_565 S
H493 C517 0.950 . S
H494 C518 0.950 . S
H495 C519 0.951 . S
H496 C521 0.951 . S
H497 C523 0.950 . S
H498 C524 0.950 . S
H499 C526 0.950 . S
H500 C529 0.950 . S
H501 C530 0.950 . S
H502 C532 0.950 . S
H503 C533 0.950 . S
C504 H486 0.951 . S
C504 C505 1.366 . S
C504 C506 1.388 . S
C505 C504 1.366 . S
C505 C509 1.385 . S
C506 H487 0.951 . S
C506 C504 1.388 . S
C506 C507 1.366 . S
C507 C506 1.366 . S
C507 C508 1.414 . S
C507 C510 1.499 . S
C508 H488 0.950 . S
C508 C507 1.414 . S
C508 C509 1.374 . S
C509 H489 0.950 . S
C509 C505 1.385 . S
C509 C508 1.374 . S
C510 C507 1.499 . S
C510 C511 1.373 . S
C510 C512 1.389 . S
C511 H490 0.950 . S
C511 C510 1.373 . S
C511 C527 1.377 . S
C512 C510 1.389 . S
C512 C513 1.524 . S
C512 C526 1.377 . S
C513 C512 1.524 . S
C513 C514 1.397 . S
C513 C518 1.363 1_565 S
C514 H491 0.950 . S
C514 C513 1.397 . S
C514 C515 1.334 1_565 S
C515 H492 0.950 1_545 S
C515 C514 1.334 1_545 S
C515 C516 1.287 . S
C516 C515 1.287 . S
C516 C517 1.524 . S
C516 H535 0.913 . S
C517 H493 0.950 . S
C517 C516 1.524 . S
C517 C518 1.415 . S
C518 H494 0.950 . S
C518 C513 1.363 1_545 S
C518 C517 1.415 . S
C519 H495 0.951 . S
C519 C520 1.366 . S
C519 C521 1.388 . S
C520 C519 1.366 . S
C520 C524 1.385 . S
C521 H496 0.951 . S
C521 C519 1.388 . S
C521 C522 1.366 . S
C522 C521 1.366 . S
C522 C523 1.414 . S
C522 C525 1.499 . S
C523 H497 0.950 . S
C523 C522 1.414 . S
C523 C524 1.374 . S
C524 H498 0.950 . S
C524 C520 1.385 . S
C524 C523 1.374 . S
C525 C522 1.499 . S
C525 C526 1.373 . S
C525 C527 1.389 . S
C526 H499 0.950 . S
C526 C512 1.377 . S
C526 C525 1.373 . S
C527 C511 1.377 . S
C527 C525 1.389 . S
C527 C528 1.524 . S
C528 C527 1.524 . S
C528 C529 1.397 . S
C528 C533 1.363 . S
C529 H500 0.950 . S
C529 C528 1.397 . S
C529 C530 1.334 . S
C530 H501 0.950 . S
C530 C529 1.334 . S
C530 C531 1.287 . S
C531 C530 1.287 . S
C531 C532 1.524 . S
C531 H534 0.999 . S
C532 H502 0.950 . S
C532 C531 1.524 . S
C532 C533 1.415 . S
C533 H503 0.950 . S
C533 C528 1.363 . S
C533 C532 1.415 . S
H534 C531 0.999 . S
H535 C516 0.913 . S
H536 C554 0.951 . S
H537 C556 0.951 . S
H538 C558 0.950 . S
H539 C559 0.950 . S
H540 C561 0.950 . S
H541 C564 0.950 . S
H542 C565 0.950 . S
H543 C567 0.950 . S
H544 C568 0.950 . S
H545 C569 0.951 . S
H546 C571 0.951 . S
H547 C573 0.950 . S
H548 C574 0.950 . S
H549 C576 0.950 . S
H550 C579 0.950 . S
H551 C580 0.950 . S
H552 C582 0.950 . S
H553 C583 0.950 . S
C554 H536 0.951 . S
C554 C555 1.366 . S
C554 C556 1.388 . S
C555 C554 1.366 . S
C555 C559 1.385 . S
C556 H537 0.951 . S
C556 C554 1.388 . S
C556 C557 1.366 . S
C557 C556 1.366 . S
C557 C558 1.414 . S
C557 C560 1.499 . S
C558 H538 0.950 . S
C558 C557 1.414 . S
C558 C559 1.374 . S
C559 H539 0.950 . S
C559 C555 1.385 . S
C559 C558 1.374 . S
C560 C557 1.499 . S
C560 C561 1.373 . S
C560 C562 1.389 . S
C561 H540 0.950 . S
C561 C560 1.373 . S
C561 C577 1.377 . S
C562 C560 1.389 . S
C562 C563 1.524 . S
C562 C576 1.377 . S
C563 C562 1.524 . S
C563 C564 1.397 . S
C563 C568 1.363 . S
C564 H541 0.950 . S
C564 C563 1.397 . S
C564 C565 1.334 . S
C565 H542 0.950 . S
C565 C564 1.334 . S
C565 C566 1.287 . S
C566 C565 1.287 . S
C566 C567 1.524 . S
C566 H585 0.913 . S
C567 H543 0.950 . S
C567 C566 1.524 . S
C567 C568 1.415 . S
C568 H544 0.950 . S
C568 C563 1.363 . S
C568 C567 1.415 . S
C569 H545 0.951 . S
C569 C570 1.366 . S
C569 C571 1.388 . S
C570 C569 1.366 . S
C570 C574 1.385 . S
C571 H546 0.951 . S
C571 C569 1.388 . S
C571 C572 1.366 . S
C572 C571 1.366 . S
C572 C573 1.414 . S
C572 C575 1.499 . S
C573 H547 0.950 . S
C573 C572 1.414 . S
C573 C574 1.374 . S
C574 H548 0.950 . S
C574 C570 1.385 . S
C574 C573 1.374 . S
C575 C572 1.499 . S
C575 C576 1.373 . S
C575 C577 1.389 . S
C576 H549 0.950 . S
C576 C562 1.377 . S
C576 C575 1.373 . S
C577 C561 1.377 . S
C577 C575 1.389 . S
C577 C578 1.524 . S
C578 C577 1.524 . S
C578 C579 1.397 . S
C578 C583 1.363 . S
C579 H550 0.950 . S
C579 C578 1.397 . S
C579 C580 1.334 . S
C580 H551 0.950 . S
C580 C579 1.334 . S
C580 C581 1.287 . S
C581 C580 1.287 . S
C581 C582 1.524 . S
C581 H584 0.999 . S
C582 H552 0.950 . S
C582 C581 1.524 . S
C582 C583 1.415 . S
C583 H553 0.950 . S
C583 C578 1.363 . S
C583 C582 1.415 . S
H584 C581 0.999 . S
H585 C566 0.913 . S
H586 C604 0.951 . S
H587 C606 0.951 . S
H588 C608 0.950 . S
H589 C609 0.950 . S
H590 C611 0.950 . S
H591 C614 0.950 . S
H592 C615 0.950 . S
H593 C617 0.950 . S
H594 C618 0.950 . S
H595 C619 0.951 . S
H596 C621 0.951 . S
H597 C623 0.950 . S
H598 C624 0.950 . S
H599 C626 0.950 . S
H600 C629 0.953 . S
H601 C630 0.950 . S
H602 C632 0.950 . S
H603 C633 0.950 . S
C604 H586 0.951 . S
C604 C605 1.366 . S
C604 C606 1.388 . S
C605 C604 1.366 . S
C605 C609 1.385 . S
C606 H587 0.951 . S
C606 C604 1.388 . S
C606 C607 1.366 . S
C607 C606 1.366 . S
C607 C608 1.414 . S
C607 C610 1.499 . S
C608 H588 0.950 . S
C608 C607 1.414 . S
C608 C609 1.374 . S
C609 H589 0.950 . S
C609 C605 1.385 . S
C609 C608 1.374 . S
C610 C607 1.499 . S
C610 C611 1.373 . S
C610 C612 1.389 . S
C611 H590 0.950 . S
C611 C610 1.373 . S
C611 C627 1.377 . S
C612 C610 1.389 . S
C612 C613 1.524 . S
C612 C626 1.377 . S
C613 C612 1.524 . S
C613 C614 1.397 . S
C613 C618 1.363 . S
C614 H591 0.950 . S
C614 C613 1.397 . S
C614 C615 1.334 . S
C615 H592 0.950 . S
C615 C614 1.334 . S
C615 C616 1.287 . S
C616 C615 1.287 . S
C616 C617 1.524 . S
C616 H635 0.913 . S
C617 H593 0.950 . S
C617 C616 1.524 . S
C617 C618 1.415 . S
C618 H594 0.950 . S
C618 C613 1.363 . S
C618 C617 1.415 . S
C619 H595 0.951 . S
C619 C620 1.366 . S
C619 C621 1.388 . S
C620 C619 1.366 . S
C620 C624 1.385 . S
C621 H596 0.951 . S
C621 C619 1.388 . S
C621 C622 1.366 . S
C622 C621 1.366 . S
C622 C623 1.414 . S
C622 C625 1.499 . S
C623 H597 0.950 . S
C623 C622 1.414 . S
C623 C624 1.374 . S
C624 H598 0.950 . S
C624 C620 1.385 . S
C624 C623 1.374 . S
C625 C622 1.499 . S
C625 C626 1.373 . S
C625 C627 1.389 . S
C626 H599 0.950 . S
C626 C612 1.377 . S
C626 C625 1.373 . S
C627 C611 1.377 . S
C627 C625 1.389 . S
C627 C628 1.489 1_455 S
C628 C627 1.489 1_655 S
C628 C629 1.433 . S
C628 C633 1.367 . S
C629 H600 0.953 . S
C629 C628 1.433 . S
C629 C630 1.334 . S
C630 H601 0.950 . S
C630 C629 1.334 . S
C630 C631 1.287 . S
C631 C630 1.287 . S
C631 C632 1.524 . S
C631 H634 0.999 . S
C632 H602 0.950 . S
C632 C631 1.524 . S
C632 C633 1.415 . S
C633 H603 0.950 . S
C633 C628 1.367 . S
C633 C632 1.415 . S
H634 C631 0.999 . S
H635 C616 0.913 . S
H636 C654 0.951 . S
H637 C656 0.951 . S
H638 C658 0.950 . S
H639 C659 0.950 . S
H640 C661 0.950 . S
H641 C664 0.950 . S
H642 C665 0.950 . S
H643 C667 0.950 . S
H644 C668 0.950 . S
H645 C669 0.951 . S
H646 C671 0.951 . S
H647 C673 0.950 . S
H648 C674 0.950 . S
H649 C676 0.950 . S
H650 C679 0.950 . S
H651 C680 0.948 . S
H652 C682 0.950 . S
H653 C683 0.950 . S
C654 H636 0.951 . S
C654 C655 1.366 . S
C654 C656 1.388 . S
C655 C654 1.366 . S
C655 C659 1.385 . S
C656 H637 0.951 . S
C656 C654 1.388 . S
C656 C657 1.366 . S
C657 C656 1.366 . S
C657 C658 1.414 . S
C657 C660 1.499 . S
C658 H638 0.950 . S
C658 C657 1.414 . S
C658 C659 1.374 . S
C659 H639 0.950 . S
C659 C655 1.385 . S
C659 C658 1.374 . S
C660 C657 1.499 . S
C660 C661 1.373 . S
C660 C662 1.389 . S
C661 H640 0.950 . S
C661 C660 1.373 . S
C661 C677 1.377 . S
C662 C660 1.389 . S
C662 C663 1.524 . S
C662 C676 1.377 . S
C663 C662 1.524 . S
C663 C664 1.397 . S
C663 C668 1.363 . S
C664 H641 0.950 . S
C664 C663 1.397 . S
C664 C665 1.334 . S
C665 H642 0.950 . S
C665 C664 1.334 . S
C665 C666 1.287 . S
C666 C665 1.287 . S
C666 C667 1.524 . S
C666 H685 0.913 . S
C667 H643 0.950 . S
C667 C666 1.524 . S
C667 C668 1.415 . S
C668 H644 0.950 . S
C668 C663 1.363 . S
C668 C667 1.415 . S
C669 H645 0.951 . S
C669 C670 1.366 . S
C669 C671 1.388 . S
C670 C669 1.366 . S
C670 C674 1.385 . S
C671 H646 0.951 . S
C671 C669 1.388 . S
C671 C672 1.366 . S
C672 C671 1.366 . S
C672 C673 1.414 . S
C672 C675 1.499 . S
C673 H647 0.950 . S
C673 C672 1.414 . S
C673 C674 1.374 . S
C674 H648 0.950 . S
C674 C670 1.385 . S
C674 C673 1.374 . S
C675 C672 1.499 . S
C675 C676 1.373 . S
C675 C677 1.389 . S
C676 H649 0.950 . S
C676 C662 1.377 . S
C676 C675 1.373 . S
C677 C661 1.377 . S
C677 C675 1.389 . S
C677 C678 1.524 . S
C678 C677 1.524 . S
C678 C679 1.397 . S
C678 C683 1.363 1_655 S
C679 H650 0.950 . S
C679 C678 1.397 . S
C679 C680 1.334 1_655 S
C680 H651 0.948 . S
C680 C679 1.334 1_455 S
C680 C681 1.287 . S
C681 C680 1.287 . S
C681 C682 1.524 . S
C681 H684 0.999 . S
C682 H652 0.950 . S
C682 C681 1.524 . S
C682 C683 1.415 . S
C683 H653 0.950 . S
C683 C678 1.363 1_455 S
C683 C682 1.415 . S
H684 C681 0.999 . S
H685 C666 0.913 . S
H686 C704 0.951 . S
H687 C706 0.951 . S
H688 C708 0.950 . S
H689 C709 0.950 . S
H690 C711 0.950 . S
H691 C714 0.950 1_565 S
H692 C715 0.950 . S
H693 C717 0.950 . S
H694 C718 0.950 . S
H695 C719 0.951 . S
H696 C721 0.951 . S
H697 C723 0.950 . S
H698 C724 0.950 . S
H699 C726 0.950 . S
H700 C729 0.950 . S
H701 C730 0.950 . S
H702 C732 0.950 . S
H703 C733 0.950 . S
C704 H686 0.951 . S
C704 C705 1.366 . S
C704 C706 1.388 . S
C705 C704 1.366 . S
C705 C709 1.385 . S
C706 H687 0.951 . S
C706 C704 1.388 . S
C706 C707 1.366 . S
C707 C706 1.366 . S
C707 C708 1.414 . S
C707 C710 1.499 . S
C708 H688 0.950 . S
C708 C707 1.414 . S
C708 C709 1.374 . S
C709 H689 0.950 . S
C709 C705 1.385 . S
C709 C708 1.374 . S
C710 C707 1.499 . S
C710 C711 1.373 . S
C710 C712 1.389 . S
C711 H690 0.950 . S
C711 C710 1.373 . S
C711 C727 1.377 . S
C712 C710 1.389 . S
C712 C713 1.524 1_565 S
C712 C726 1.377 . S
C713 C712 1.524 1_545 S
C713 C714 1.397 . S
C713 C718 1.363 . S
C714 H691 0.950 1_545 S
C714 C713 1.397 . S
C714 C715 1.334 . S
C715 H692 0.950 . S
C715 C714 1.334 . S
C715 C716 1.287 . S
C716 C715 1.287 . S
C716 C717 1.524 . S
C716 H735 0.913 . S
C717 H693 0.950 . S
C717 C716 1.524 . S
C717 C718 1.415 . S
C718 H694 0.950 . S
C718 C713 1.363 . S
C718 C717 1.415 . S
C719 H695 0.951 . S
C719 C720 1.366 . S
C719 C721 1.388 . S
C720 C719 1.366 . S
C720 C724 1.385 . S
C721 H696 0.951 . S
C721 C719 1.388 . S
C721 C722 1.366 . S
C722 C721 1.366 . S
C722 C723 1.414 . S
C722 C725 1.499 . S
C723 H697 0.950 . S
C723 C722 1.414 . S
C723 C724 1.374 . S
C724 H698 0.950 . S
C724 C720 1.385 . S
C724 C723 1.374 . S
C725 C722 1.499 . S
C725 C726 1.373 . S
C725 C727 1.389 . S
C726 H699 0.950 . S
C726 C712 1.377 . S
C726 C725 1.373 . S
C727 C711 1.377 . S
C727 C725 1.389 . S
C727 C728 1.524 . S
C728 C727 1.524 . S
C728 C729 1.397 . S
C728 C733 1.363 . S
C729 H700 0.950 . S
C729 C728 1.397 . S
C729 C730 1.334 . S
C730 H701 0.950 . S
C730 C729 1.334 . S
C730 C731 1.287 . S
C731 C730 1.287 . S
C731 C732 1.524 . S
C731 H734 0.999 . S
C732 H702 0.950 . S
C732 C731 1.524 . S
C732 C733 1.415 . S
C733 H703 0.950 . S
C733 C728 1.363 . S
C733 C732 1.415 . S
H734 C731 0.999 . S
H735 C716 0.913 . S
H736 C754 0.951 . S
H737 C756 0.951 . S
H738 C758 0.950 . S
H739 C759 0.950 . S
H740 C761 0.950 . S
H741 C764 0.950 . S
H742 C765 0.950 . S
H743 C767 0.950 . S
H744 C768 0.950 . S
H745 C769 0.951 . S
H746 C771 0.951 . S
H747 C773 0.950 . S
H748 C774 0.950 . S
H749 C776 0.950 . S
H750 C779 0.950 . S
H751 C780 0.950 . S
H752 C782 0.950 . S
H753 C783 0.950 . S
C754 H736 0.951 . S
C754 C755 1.366 . S
C754 C756 1.388 . S
C755 C754 1.366 . S
C755 C759 1.385 . S
C756 H737 0.951 . S
C756 C754 1.388 . S
C756 C757 1.366 . S
C757 C756 1.366 . S
C757 C758 1.414 . S
C757 C760 1.499 . S
C758 H738 0.950 . S
C758 C757 1.414 . S
C758 C759 1.374 . S
C759 H739 0.950 . S
C759 C755 1.385 . S
C759 C758 1.374 . S
C760 C757 1.499 . S
C760 C761 1.373 . S
C760 C762 1.389 . S
C761 H740 0.950 . S
C761 C760 1.373 . S
C761 C777 1.377 . S
C762 C760 1.389 . S
C762 C763 1.524 . S
C762 C776 1.377 . S
C763 C762 1.524 . S
C763 C764 1.397 . S
C763 C768 1.363 . S
C764 H741 0.950 . S
C764 C763 1.397 . S
C764 C765 1.334 . S
C765 H742 0.950 . S
C765 C764 1.334 . S
C765 C766 1.287 . S
C766 C765 1.287 . S
C766 C767 1.524 . S
C766 H785 0.913 . S
C767 H743 0.950 . S
C767 C766 1.524 . S
C767 C768 1.415 . S
C768 H744 0.950 . S
C768 C763 1.363 . S
C768 C767 1.415 . S
C769 H745 0.951 . S
C769 C770 1.366 . S
C769 C771 1.388 . S
C770 C769 1.366 . S
C770 C774 1.385 . S
C771 H746 0.951 . S
C771 C769 1.388 . S
C771 C772 1.366 . S
C772 C771 1.366 . S
C772 C773 1.414 . S
C772 C775 1.499 . S
C773 H747 0.950 . S
C773 C772 1.414 . S
C773 C774 1.374 . S
C774 H748 0.950 . S
C774 C770 1.385 . S
C774 C773 1.374 . S
C775 C772 1.499 . S
C775 C776 1.373 . S
C775 C777 1.389 . S
C776 H749 0.950 . S
C776 C762 1.377 . S
C776 C775 1.373 . S
C777 C761 1.377 . S
C777 C775 1.389 . S
C777 C778 1.524 . S
C778 C777 1.524 . S
C778 C779 1.397 . S
C778 C783 1.363 . S
C779 H750 0.950 . S
C779 C778 1.397 . S
C779 C780 1.334 . S
C780 H751 0.950 . S
C780 C779 1.334 . S
C780 C781 1.287 . S
C781 C780 1.287 . S
C781 C782 1.524 . S
C781 H784 0.999 . S
C782 H752 0.950 . S
C782 C781 1.524 . S
C782 C783 1.415 . S
C783 H753 0.950 . S
C783 C778 1.363 . S
C783 C782 1.415 . S
H784 C781 0.999 . S
H785 C766 0.913 . S
H786 C804 0.951 . S
H787 C806 0.951 . S
H788 C808 0.950 . S
H789 C809 0.950 . S
H790 C811 0.950 . S
H791 C814 0.950 . S
H792 C815 0.950 1_655 S
H793 C817 0.950 . S
H794 C818 0.950 . S
H795 C819 0.951 . S
H796 C821 0.951 . S
H797 C823 0.950 . S
H798 C824 0.950 . S
H799 C826 0.950 . S
H800 C829 0.950 . S
H801 C830 0.950 . S
H802 C832 0.950 . S
H803 C833 0.950 . S
C804 H786 0.951 . S
C804 C805 1.366 . S
C804 C806 1.388 . S
C805 C804 1.366 . S
C805 C809 1.385 . S
C806 H787 0.951 . S
C806 C804 1.388 . S
C806 C807 1.366 . S
C807 C806 1.366 . S
C807 C808 1.414 . S
C807 C810 1.499 . S
C808 H788 0.950 . S
C808 C807 1.414 . S
C808 C809 1.374 . S
C809 H789 0.950 . S
C809 C805 1.385 . S
C809 C808 1.374 . S
C810 C807 1.499 . S
C810 C811 1.373 . S
C810 C812 1.389 . S
C811 H790 0.950 . S
C811 C810 1.373 . S
C811 C827 1.377 . S
C812 C810 1.389 . S
C812 C813 1.524 . S
C812 C826 1.377 . S
C813 C812 1.524 . S
C813 C814 1.397 . S
C813 C818 1.363 . S
C814 H791 0.950 . S
C814 C813 1.397 . S
C814 C815 1.334 . S
C815 H792 0.950 1_455 S
C815 C814 1.334 . S
C815 C816 1.287 . S
C816 C815 1.287 . S
C816 C817 1.524 . S
C816 H835 0.913 . S
C817 H793 0.950 . S
C817 C816 1.524 . S
C817 C818 1.415 . S
C818 H794 0.950 . S
C818 C813 1.363 . S
C818 C817 1.415 . S
C819 H795 0.951 . S
C819 C820 1.366 . S
C819 C821 1.388 . S
C820 C819 1.366 . S
C820 C824 1.385 . S
C821 H796 0.951 . S
C821 C819 1.388 . S
C821 C822 1.366 . S
C822 C821 1.366 . S
C822 C823 1.414 . S
C822 C825 1.499 . S
C823 H797 0.950 . S
C823 C822 1.414 . S
C823 C824 1.374 . S
C824 H798 0.950 . S
C824 C820 1.385 . S
C824 C823 1.374 . S
C825 C822 1.499 . S
C825 C826 1.373 . S
C825 C827 1.389 . S
C826 H799 0.950 . S
C826 C812 1.377 . S
C826 C825 1.373 . S
C827 C811 1.377 . S
C827 C825 1.389 . S
C827 C828 1.524 . S
C828 C827 1.524 . S
C828 C829 1.397 . S
C828 C833 1.363 . S
C829 H800 0.950 . S
C829 C828 1.397 . S
C829 C830 1.334 . S
C830 H801 0.950 . S
C830 C829 1.334 . S
C830 C831 1.287 . S
C831 C830 1.287 . S
C831 C832 1.524 . S
C831 H834 0.999 . S
C832 H802 0.950 . S
C832 C831 1.524 . S
C832 C833 1.415 . S
C833 H803 0.950 . S
C833 C828 1.363 . S
C833 C832 1.415 . S
H834 C831 0.999 . S
H835 C816 0.913 . S
H836 C854 0.951 . S
H837 C856 0.951 . S
H838 C858 0.950 . S
H839 C859 0.950 . S
H840 C861 0.950 . S
H841 C864 0.950 . S
H842 C865 0.950 . S
H843 C867 0.950 . S
H844 C868 0.950 . S
H845 C869 0.951 . S
H846 C871 0.951 . S
H847 C873 0.950 . S
H848 C874 0.950 . S
H849 C876 0.950 . S
H850 C879 0.950 . S
H851 C880 0.950 . S
H852 C882 0.950 . S
H853 C883 0.950 . S
C854 H836 0.951 . S
C854 C855 1.366 . S
C854 C856 1.388 . S
C855 C854 1.366 . S
C855 C859 1.385 . S
C856 H837 0.951 . S
C856 C854 1.388 . S
C856 C857 1.366 . S
C857 C856 1.366 . S
C857 C858 1.414 . S
C857 C860 1.499 . S
C858 H838 0.950 . S
C858 C857 1.414 . S
C858 C859 1.374 . S
C859 H839 0.950 . S
C859 C855 1.385 . S
C859 C858 1.374 . S
C860 C857 1.499 . S
C860 C861 1.373 . S
C860 C862 1.389 . S
C861 H840 0.950 . S
C861 C860 1.373 . S
C861 C877 1.377 . S
C862 C860 1.389 . S
C862 C863 1.524 . S
C862 C876 1.377 . S
C863 C862 1.524 . S
C863 C864 1.397 . S
C863 C868 1.363 1_545 S
C864 H841 0.950 . S
C864 C863 1.397 . S
C864 C865 1.334 . S
C865 H842 0.950 . S
C865 C864 1.334 . S
C865 C866 1.287 . S
C866 C865 1.287 . S
C866 C867 1.524 1_545 S
C866 H885 0.913 1_545 S
C867 H843 0.950 . S
C867 C866 1.524 1_565 S
C867 C868 1.415 . S
C868 H844 0.950 . S
C868 C863 1.363 1_565 S
C868 C867 1.415 . S
C869 H845 0.951 . S
C869 C870 1.366 . S
C869 C871 1.388 . S
C870 C869 1.366 . S
C870 C874 1.385 . S
C871 H846 0.951 . S
C871 C869 1.388 . S
C871 C872 1.366 . S
C872 C871 1.366 . S
C872 C873 1.414 . S
C872 C875 1.499 . S
C873 H847 0.950 . S
C873 C872 1.414 . S
C873 C874 1.374 . S
C874 H848 0.950 . S
C874 C870 1.385 . S
C874 C873 1.374 . S
C875 C872 1.499 . S
C875 C876 1.373 . S
C875 C877 1.389 . S
C876 H849 0.950 . S
C876 C862 1.377 . S
C876 C875 1.373 . S
C877 C861 1.377 . S
C877 C875 1.389 . S
C877 C878 1.524 . S
C878 C877 1.524 . S
C878 C879 1.397 . S
C878 C883 1.363 . S
C879 H850 0.950 . S
C879 C878 1.397 . S
C879 C880 1.334 . S
C880 H851 0.950 . S
C880 C879 1.334 . S
C880 C881 1.287 . S
C881 C880 1.287 . S
C881 C882 1.524 . S
C881 H884 0.999 . S
C882 H852 0.950 . S
C882 C881 1.524 . S
C882 C883 1.415 . S
C883 H853 0.950 . S
C883 C878 1.363 . S
C883 C882 1.415 . S
H884 C881 0.999 . S
H885 C866 0.913 1_565 S
H886 C904 0.951 . S
H887 C906 0.951 . S
H888 C908 0.950 . S
H889 C909 0.950 . S
H890 C911 0.950 . S
H891 C914 0.950 . S
H892 C915 0.950 . S
H893 C917 0.950 . S
H894 C918 0.950 . S
H895 C919 0.951 . S
H896 C921 0.951 . S
H897 C923 0.950 . S
H898 C924 0.950 . S
H899 C926 0.950 . S
H900 C929 0.950 . S
H901 C930 0.950 . S
H902 C932 0.950 . S
H903 C933 0.950 . S
C904 H886 0.951 . S
C904 C905 1.366 . S
C904 C906 1.388 . S
C905 C904 1.366 . S
C905 C909 1.385 . S
C906 H887 0.951 . S
C906 C904 1.388 . S
C906 C907 1.366 . S
C907 C906 1.366 . S
C907 C908 1.414 . S
C907 C910 1.499 . S
C908 H888 0.950 . S
C908 C907 1.414 . S
C908 C909 1.374 . S
C909 H889 0.950 . S
C909 C905 1.385 . S
C909 C908 1.374 . S
C910 C907 1.499 . S
C910 C911 1.373 . S
C910 C912 1.389 . S
C911 H890 0.950 . S
C911 C910 1.373 . S
C911 C927 1.377 . S
C912 C910 1.389 . S
C912 C913 1.524 . S
C912 C926 1.377 . S
C913 C912 1.524 . S
C913 C914 1.397 . S
C913 C918 1.363 . S
C914 H891 0.950 . S
C914 C913 1.397 . S
C914 C915 1.334 . S
C915 H892 0.950 . S
C915 C914 1.334 . S
C915 C916 1.287 . S
C916 C915 1.287 . S
C916 C917 1.524 . S
C916 H935 0.913 . S
C917 H893 0.950 . S
C917 C916 1.524 . S
C917 C918 1.415 . S
C918 H894 0.950 . S
C918 C913 1.363 . S
C918 C917 1.415 . S
C919 H895 0.951 . S
C919 C920 1.366 . S
C919 C921 1.388 . S
C920 C919 1.366 . S
C920 C924 1.385 . S
C921 H896 0.951 . S
C921 C919 1.388 . S
C921 C922 1.366 . S
C922 C921 1.366 . S
C922 C923 1.414 . S
C922 C925 1.499 . S
C923 H897 0.950 . S
C923 C922 1.414 . S
C923 C924 1.374 . S
C924 H898 0.950 . S
C924 C920 1.385 . S
C924 C923 1.374 . S
C925 C922 1.499 . S
C925 C926 1.373 . S
C925 C927 1.389 . S
C926 H899 0.950 . S
C926 C912 1.377 . S
C926 C925 1.373 . S
C927 C911 1.377 . S
C927 C925 1.389 . S
C927 C928 1.524 . S
C928 C927 1.524 . S
C928 C929 1.397 . S
C928 C933 1.363 . S
C929 H900 0.950 . S
C929 C928 1.397 . S
C929 C930 1.334 . S
C930 H901 0.950 . S
C930 C929 1.334 . S
C930 C931 1.287 . S
C931 C930 1.287 . S
C931 C932 1.524 . S
C931 H934 0.999 . S
C932 H902 0.950 . S
C932 C931 1.524 . S
C932 C933 1.415 . S
C933 H903 0.950 . S
C933 C928 1.363 . S
C933 C932 1.415 . S
H934 C931 0.999 . S
H935 C916 0.913 . S
H936 C954 0.951 . S
H937 C956 0.951 . S
H938 C958 0.950 . S
H939 C959 0.950 . S
H940 C961 0.950 . S
H941 C964 0.950 . S
H942 C965 0.950 . S
H943 C967 0.950 . S
H944 C968 0.950 . S
H945 C969 0.951 . S
H946 C971 0.951 . S
H947 C973 0.950 . S
H948 C974 0.950 . S
H949 C976 0.950 . S
H950 C979 0.950 . S
H951 C980 0.950 . S
H952 C982 0.950 . S
H953 C983 0.950 . S
C954 H936 0.951 . S
C954 C955 1.366 . S
C954 C956 1.388 . S
C955 C954 1.366 . S
C955 C959 1.385 . S
C956 H937 0.951 . S
C956 C954 1.388 . S
C956 C957 1.366 . S
C957 C956 1.366 . S
C957 C958 1.414 . S
C957 C960 1.499 . S
C958 H938 0.950 . S
C958 C957 1.414 . S
C958 C959 1.374 . S
C959 H939 0.950 . S
C959 C955 1.385 . S
C959 C958 1.374 . S
C960 C957 1.499 . S
C960 C961 1.373 . S
C960 C962 1.389 . S
C961 H940 0.950 . S
C961 C960 1.373 . S
C961 C977 1.377 . S
C962 C960 1.389 . S
C962 C963 1.524 . S
C962 C976 1.377 . S
C963 C962 1.524 . S
C963 C964 1.397 . S
C963 C968 1.363 . S
C964 H941 0.950 . S
C964 C963 1.397 . S
C964 C965 1.334 . S
C965 H942 0.950 . S
C965 C964 1.334 . S
C965 C966 1.287 . S
C966 C965 1.287 . S
C966 C967 1.524 . S
C966 H985 0.913 . S
C967 H943 0.950 . S
C967 C966 1.524 . S
C967 C968 1.415 . S
C968 H944 0.950 . S
C968 C963 1.363 . S
C968 C967 1.415 . S
C969 H945 0.951 . S
C969 C970 1.366 . S
C969 C971 1.388 . S
C970 C969 1.366 . S
C970 C974 1.385 . S
C971 H946 0.951 . S
C971 C969 1.388 . S
C971 C972 1.366 . S
C972 C971 1.366 . S
C972 C973 1.414 . S
C972 C975 1.499 . S
C973 H947 0.950 . S
C973 C972 1.414 . S
C973 C974 1.374 . S
C974 H948 0.950 . S
C974 C970 1.385 . S
C974 C973 1.374 . S
C975 C972 1.499 . S
C975 C976 1.373 . S
C975 C977 1.389 . S
C976 H949 0.950 . S
C976 C962 1.377 . S
C976 C975 1.373 . S
C977 C961 1.377 . S
C977 C975 1.389 . S
C977 C978 1.524 . S
C978 C977 1.524 . S
C978 C979 1.397 . S
C978 C983 1.363 . S
C979 H950 0.950 . S
C979 C978 1.397 . S
C979 C980 1.334 . S
C980 H951 0.950 . S
C980 C979 1.334 . S
C980 C981 1.287 . S
C981 C980 1.287 . S
C981 C982 1.524 . S
C981 H984 0.999 . S
C982 H952 0.950 . S
C982 C981 1.524 . S
C982 C983 1.415 . S
C983 H953 0.950 . S
C983 C978 1.363 . S
C983 C982 1.415 . S
H984 C981 0.999 . S
H985 C966 0.913 . S
H986 C1004 0.951 . S
H987 C1006 0.951 . S
H988 C1008 0.950 . S
H989 C1009 0.950 . S
H990 C1011 0.950 . S
H991 C1014 0.950 . S
H992 C1015 0.950 . S
H993 C1017 0.950 . S
H994 C1018 0.950 . S
H995 C1019 0.951 . S
H996 C1021 0.951 . S
H997 C1023 0.950 . S
H998 C1024 0.950 . S
H999 C1026 0.950 . S
H1000 C1029 0.950 . S
H1001 C1030 0.950 . S
H1002 C1032 0.950 . S
H1003 C1033 0.950 . S
C1004 H986 0.951 . S
C1004 C1005 1.366 . S
C1004 C1006 1.388 . S
C1005 C1004 1.366 . S
C1005 C1009 1.385 . S
C1006 H987 0.951 . S
C1006 C1004 1.388 . S
C1006 C1007 1.366 . S
C1007 C1006 1.366 . S
C1007 C1008 1.414 . S
C1007 C1010 1.499 . S
C1008 H988 0.950 . S
C1008 C1007 1.414 . S
C1008 C1009 1.374 . S
C1009 H989 0.950 . S
C1009 C1005 1.385 . S
C1009 C1008 1.374 . S
C1010 C1007 1.499 . S
C1010 C1011 1.373 . S
C1010 C1012 1.389 . S
C1011 H990 0.950 . S
C1011 C1010 1.373 . S
C1011 C1027 1.377 . S
C1012 C1010 1.389 . S
C1012 C1013 1.524 . S
C1012 C1026 1.377 . S
C1013 C1012 1.524 . S
C1013 C1014 1.397 . S
C1013 C1018 1.363 . S
C1014 H991 0.950 . S
C1014 C1013 1.397 . S
C1014 C1015 1.334 . S
C1015 H992 0.950 . S
C1015 C1014 1.334 . S
C1015 C1016 1.287 . S
C1016 C1015 1.287 . S
C1016 C1017 1.524 . S
C1016 H1035 0.913 . S
C1017 H993 0.950 . S
C1017 C1016 1.524 . S
C1017 C1018 1.415 . S
C1018 H994 0.950 . S
C1018 C1013 1.363 . S
C1018 C1017 1.415 . S
C1019 H995 0.951 . S
C1019 C1020 1.366 . S
C1019 C1021 1.388 . S
C1020 C1019 1.366 . S
C1020 C1024 1.385 . S
C1021 H996 0.951 . S
C1021 C1019 1.388 . S
C1021 C1022 1.366 . S
C1022 C1021 1.366 . S
C1022 C1023 1.414 . S
C1022 C1025 1.499 . S
C1023 H997 0.950 . S
C1023 C1022 1.414 . S
C1023 C1024 1.374 . S
C1024 H998 0.950 . S
C1024 C1020 1.385 . S
C1024 C1023 1.374 . S
C1025 C1022 1.499 . S
C1025 C1026 1.373 . S
C1025 C1027 1.389 . S
C1026 H999 0.950 . S
C1026 C1012 1.377 . S
C1026 C1025 1.373 . S
C1027 C1011 1.377 . S
C1027 C1025 1.389 . S
C1027 C1028 1.524 . S
C1028 C1027 1.524 . S
C1028 C1029 1.397 . S
C1028 C1033 1.363 . S
C1029 H1000 0.950 . S
C1029 C1028 1.397 . S
C1029 C1030 1.334 . S
C1030 H1001 0.950 . S
C1030 C1029 1.334 . S
C1030 C1031 1.287 . S
C1031 C1030 1.287 . S
C1031 C1032 1.524 . S
C1031 H1034 0.999 . S
C1032 H1002 0.950 . S
C1032 C1031 1.524 . S
C1032 C1033 1.415 . S
C1033 H1003 0.950 . S
C1033 C1028 1.363 . S
C1033 C1032 1.415 . S
H1034 C1031 0.999 . S
H1035 C1016 0.913 . S
H1036 C1054 0.951 . S
H1037 C1056 0.951 . S
H1038 C1058 0.950 . S
H1039 C1059 0.950 . S
H1040 C1061 0.950 . S
H1041 C1064 0.950 . S
H1042 C1065 0.950 . S
H1043 C1067 0.950 . S
H1044 C1068 0.950 . S
H1045 C1069 0.951 . S
H1046 C1071 0.951 . S
H1047 C1073 0.950 . S
H1048 C1074 0.950 . S
H1049 C1076 0.950 . S
H1050 C1079 0.950 . S
H1051 C1080 0.950 . S
H1052 C1082 0.950 . S
H1053 C1083 0.950 . S
C1054 H1036 0.951 . S
C1054 C1055 1.366 . S
C1054 C1056 1.388 . S
C1055 C1054 1.366 . S
C1055 C1059 1.385 . S
C1056 H1037 0.951 . S
C1056 C1054 1.388 . S
C1056 C1057 1.366 . S
C1057 C1056 1.366 . S
C1057 C1058 1.414 . S
C1057 C1060 1.499 . S
C1058 H1038 0.950 . S
C1058 C1057 1.414 . S
C1058 C1059 1.374 . S
C1059 H1039 0.950 . S
C1059 C1055 1.385 . S
C1059 C1058 1.374 . S
C1060 C1057 1.499 . S
C1060 C1061 1.373 . S
C1060 C1062 1.389 . S
C1061 H1040 0.950 . S
C1061 C1060 1.373 . S
C1061 C1077 1.377 . S
C1062 C1060 1.389 . S
C1062 C1063 1.524 . S
C1062 C1076 1.377 . S
C1063 C1062 1.524 . S
C1063 C1064 1.397 . S
C1063 C1068 1.363 . S
C1064 H1041 0.950 . S
C1064 C1063 1.397 . S
C1064 C1065 1.334 . S
C1065 H1042 0.950 . S
C1065 C1064 1.334 . S
C1065 C1066 1.287 . S
C1066 C1065 1.287 . S
C1066 C1067 1.524 . S
C1066 H1085 0.913 . S
C1067 H1043 0.950 . S
C1067 C1066 1.524 . S
C1067 C1068 1.415 . S
C1068 H1044 0.950 . S
C1068 C1063 1.363 . S
C1068 C1067 1.415 . S
C1069 H1045 0.951 . S
C1069 C1070 1.366 . S
C1069 C1071 1.388 . S
C1070 C1069 1.366 . S
C1070 C1074 1.385 . S
C1071 H1046 0.951 . S
C1071 C1069 1.388 . S
C1071 C1072 1.366 . S
C1072 C1071 1.366 . S
C1072 C1073 1.414 . S
C1072 C1075 1.499 . S
C1073 H1047 0.950 . S
C1073 C1072 1.414 . S
C1073 C1074 1.374 . S
C1074 H1048 0.950 . S
C1074 C1070 1.385 . S
C1074 C1073 1.374 . S
C1075 C1072 1.499 . S
C1075 C1076 1.373 . S
C1075 C1077 1.389 . S
C1076 H1049 0.950 . S
C1076 C1062 1.377 . S
C1076 C1075 1.373 . S
C1077 C1061 1.377 . S
C1077 C1075 1.389 . S
C1077 C1078 1.524 . S
C1078 C1077 1.524 . S
C1078 C1079 1.397 . S
C1078 C1083 1.363 . S
C1079 H1050 0.950 . S
C1079 C1078 1.397 . S
C1079 C1080 1.334 . S
C1080 H1051 0.950 . S
C1080 C1079 1.334 . S
C1080 C1081 1.287 . S
C1081 C1080 1.287 . S
C1081 C1082 1.524 . S
C1081 H1084 0.999 . S
C1082 H1052 0.950 . S
C1082 C1081 1.524 . S
C1082 C1083 1.415 . S
C1083 H1053 0.950 . S
C1083 C1078 1.363 . S
C1083 C1082 1.415 . S
H1084 C1081 0.999 . S
H1085 C1066 0.913 . S
H1086 C1104 0.951 . S
H1087 C1106 0.951 . S
H1088 C1108 0.950 . S
H1089 C1109 0.950 . S
H1090 C1111 0.950 . S
H1091 C1114 0.950 . S
H1092 C1115 0.950 . S
H1093 C1117 0.950 . S
H1094 C1118 0.950 . S
H1095 C1119 0.951 . S
H1096 C1121 0.951 . S
H1097 C1123 0.950 . S
H1098 C1124 0.950 . S
H1099 C1126 0.950 . S
H1100 C1129 0.950 . S
H1101 C1130 0.950 . S
H1102 C1132 0.950 . S
H1103 C1133 0.950 . S
C1104 H1086 0.951 . S
C1104 C1105 1.366 . S
C1104 C1106 1.388 . S
C1105 C1104 1.366 . S
C1105 C1109 1.385 . S
C1106 H1087 0.951 . S
C1106 C1104 1.388 . S
C1106 C1107 1.366 . S
C1107 C1106 1.366 . S
C1107 C1108 1.414 . S
C1107 C1110 1.499 . S
C1108 H1088 0.950 . S
C1108 C1107 1.414 . S
C1108 C1109 1.374 . S
C1109 H1089 0.950 . S
C1109 C1105 1.385 . S
C1109 C1108 1.374 . S
C1110 C1107 1.499 . S
C1110 C1111 1.373 . S
C1110 C1112 1.389 . S
C1111 H1090 0.950 . S
C1111 C1110 1.373 . S
C1111 C1127 1.377 . S
C1112 C1110 1.389 . S
C1112 C1113 1.524 . S
C1112 C1126 1.377 . S
C1113 C1112 1.524 . S
C1113 C1114 1.397 . S
C1113 C1118 1.363 . S
C1114 H1091 0.950 . S
C1114 C1113 1.397 . S
C1114 C1115 1.334 . S
C1115 H1092 0.950 . S
C1115 C1114 1.334 . S
C1115 C1116 1.287 . S
C1116 C1115 1.287 . S
C1116 C1117 1.524 . S
C1116 H1135 0.913 . S
C1117 H1093 0.950 . S
C1117 C1116 1.524 . S
C1117 C1118 1.415 . S
C1118 H1094 0.950 . S
C1118 C1113 1.363 . S
C1118 C1117 1.415 . S
C1119 H1095 0.951 . S
C1119 C1120 1.366 . S
C1119 C1121 1.388 . S
C1120 C1119 1.366 . S
C1120 C1124 1.385 . S
C1121 H1096 0.951 . S
C1121 C1119 1.388 . S
C1121 C1122 1.366 . S
C1122 C1121 1.366 . S
C1122 C1123 1.414 . S
C1122 C1125 1.499 . S
C1123 H1097 0.950 . S
C1123 C1122 1.414 . S
C1123 C1124 1.374 . S
C1124 H1098 0.950 . S
C1124 C1120 1.385 . S
C1124 C1123 1.374 . S
C1125 C1122 1.499 . S
C1125 C1126 1.373 . S
C1125 C1127 1.389 . S
C1126 H1099 0.950 . S
C1126 C1112 1.377 . S
C1126 C1125 1.373 . S
C1127 C1111 1.377 . S
C1127 C1125 1.389 . S
C1127 C1128 1.524 . S
C1128 C1127 1.524 . S
C1128 C1129 1.397 . S
C1128 C1133 1.363 . S
C1129 H1100 0.950 . S
C1129 C1128 1.397 . S
C1129 C1130 1.334 . S
C1130 H1101 0.950 . S
C1130 C1129 1.334 . S
C1130 C1131 1.287 . S
C1131 C1130 1.287 . S
C1131 C1132 1.524 . S
C1131 H1134 0.999 . S
C1132 H1102 0.950 . S
C1132 C1131 1.524 . S
C1132 C1133 1.415 . S
C1133 H1103 0.950 . S
C1133 C1128 1.363 . S
C1133 C1132 1.415 . S
H1134 C1131 0.999 . S
H1135 C1116 0.913 . S
H1136 C1154 0.951 . S
H1137 C1156 0.951 . S
H1138 C1158 0.950 . S
H1139 C1159 0.950 . S
H1140 C1161 0.950 . S
H1141 C1164 0.950 . S
H1142 C1165 0.950 . S
H1143 C1167 0.950 . S
H1144 C1168 0.950 . S
H1145 C1169 0.951 . S
H1146 C1171 0.951 . S
H1147 C1173 0.950 . S
H1148 C1174 0.950 . S
H1149 C1176 0.950 . S
H1150 C1179 0.950 . S
H1151 C1180 0.950 . S
H1152 C1182 0.950 . S
H1153 C1183 0.950 . S
C1154 H1136 0.951 . S
C1154 C1155 1.366 . S
C1154 C1156 1.388 . S
C1155 C1154 1.366 . S
C1155 C1159 1.385 . S
C1156 H1137 0.951 . S
C1156 C1154 1.388 . S
C1156 C1157 1.366 . S
C1157 C1156 1.366 . S
C1157 C1158 1.414 . S
C1157 C1160 1.499 . S
C1158 H1138 0.950 . S
C1158 C1157 1.414 . S
C1158 C1159 1.374 . S
C1159 H1139 0.950 . S
C1159 C1155 1.385 . S
C1159 C1158 1.374 . S
C1160 C1157 1.499 . S
C1160 C1161 1.373 . S
C1160 C1162 1.389 . S
C1161 H1140 0.950 . S
C1161 C1160 1.373 . S
C1161 C1177 1.377 . S
C1162 C1160 1.389 . S
C1162 C1163 1.524 . S
C1162 C1176 1.377 . S
C1163 C1162 1.524 . S
C1163 C1164 1.397 . S
C1163 C1168 1.363 . S
C1164 H1141 0.950 . S
C1164 C1163 1.397 . S
C1164 C1165 1.334 . S
C1165 H1142 0.950 . S
C1165 C1164 1.334 . S
C1165 C1166 1.287 . S
C1166 C1165 1.287 . S
C1166 C1167 1.524 . S
C1166 H1185 0.913 . S
C1167 H1143 0.950 . S
C1167 C1166 1.524 . S
C1167 C1168 1.415 . S
C1168 H1144 0.950 . S
C1168 C1163 1.363 . S
C1168 C1167 1.415 . S
C1169 H1145 0.951 . S
C1169 C1170 1.366 . S
C1169 C1171 1.388 . S
C1170 C1169 1.366 . S
C1170 C1174 1.385 . S
C1171 H1146 0.951 . S
C1171 C1169 1.388 . S
C1171 C1172 1.366 . S
C1172 C1171 1.366 . S
C1172 C1173 1.414 . S
C1172 C1175 1.499 . S
C1173 H1147 0.950 . S
C1173 C1172 1.414 . S
C1173 C1174 1.374 . S
C1174 H1148 0.950 . S
C1174 C1170 1.385 . S
C1174 C1173 1.374 . S
C1175 C1172 1.499 . S
C1175 C1176 1.373 . S
C1175 C1177 1.389 . S
C1176 H1149 0.950 . S
C1176 C1162 1.377 . S
C1176 C1175 1.373 . S
C1177 C1161 1.377 . S
C1177 C1175 1.389 . S
C1177 C1178 1.524 . S
C1178 C1177 1.524 . S
C1178 C1179 1.397 . S
C1178 C1183 1.363 . S
C1179 H1150 0.950 . S
C1179 C1178 1.397 . S
C1179 C1180 1.334 . S
C1180 H1151 0.950 . S
C1180 C1179 1.334 . S
C1180 C1181 1.287 . S
C1181 C1180 1.287 . S
C1181 C1182 1.524 . S
C1181 H1184 0.999 . S
C1182 H1152 0.950 . S
C1182 C1181 1.524 . S
C1182 C1183 1.415 . S
C1183 H1153 0.950 . S
C1183 C1178 1.363 . S
C1183 C1182 1.415 . S
H1184 C1181 0.999 . S
H1185 C1166 0.913 . S
H1186 C1204 0.951 . S
H1187 C1206 0.951 . S
H1188 C1208 0.950 . S
H1189 C1209 0.950 . S
H1190 C1211 0.950 . S
H1191 C1214 0.950 . S
H1192 C1215 0.950 . S
H1193 C1217 0.950 . S
H1194 C1218 0.950 . S
H1195 C1219 0.951 . S
H1196 C1221 0.951 . S
H1197 C1223 0.950 . S
H1198 C1224 0.950 . S
H1199 C1226 0.950 . S
H1200 C1229 0.950 . S
H1201 C1230 0.950 . S
H1202 C1232 0.950 . S
H1203 C1233 0.950 . S
C1204 H1186 0.951 . S
C1204 C1205 1.366 . S
C1204 C1206 1.388 . S
C1205 C1204 1.366 . S
C1205 C1209 1.385 . S
C1206 H1187 0.951 . S
C1206 C1204 1.388 . S
C1206 C1207 1.366 . S
C1207 C1206 1.366 . S
C1207 C1208 1.414 . S
C1207 C1210 1.499 . S
C1208 H1188 0.950 . S
C1208 C1207 1.414 . S
C1208 C1209 1.374 . S
C1209 H1189 0.950 . S
C1209 C1205 1.385 . S
C1209 C1208 1.374 . S
C1210 C1207 1.499 . S
C1210 C1211 1.373 . S
C1210 C1212 1.389 . S
C1211 H1190 0.950 . S
C1211 C1210 1.373 . S
C1211 C1227 1.377 . S
C1212 C1210 1.389 . S
C1212 C1213 1.524 . S
C1212 C1226 1.377 . S
C1213 C1212 1.524 . S
C1213 C1214 1.397 . S
C1213 C1218 1.363 . S
C1214 H1191 0.950 . S
C1214 C1213 1.397 . S
C1214 C1215 1.334 . S
C1215 H1192 0.950 . S
C1215 C1214 1.334 . S
C1215 C1216 1.287 . S
C1216 C1215 1.287 . S
C1216 C1217 1.524 . S
C1216 H1235 0.913 . S
C1217 H1193 0.950 . S
C1217 C1216 1.524 . S
C1217 C1218 1.415 . S
C1218 H1194 0.950 . S
C1218 C1213 1.363 . S
C1218 C1217 1.415 . S
C1219 H1195 0.951 . S
C1219 C1220 1.366 . S
C1219 C1221 1.388 . S
C1220 C1219 1.366 . S
C1220 C1224 1.385 . S
C1221 H1196 0.951 . S
C1221 C1219 1.388 . S
C1221 C1222 1.366 . S
C1222 C1221 1.366 . S
C1222 C1223 1.414 . S
C1222 C1225 1.499 . S
C1223 H1197 0.950 . S
C1223 C1222 1.414 . S
C1223 C1224 1.374 . S
C1224 H1198 0.950 . S
C1224 C1220 1.385 . S
C1224 C1223 1.374 . S
C1225 C1222 1.499 . S
C1225 C1226 1.373 . S
C1225 C1227 1.389 . S
C1226 H1199 0.950 . S
C1226 C1212 1.377 . S
C1226 C1225 1.373 . S
C1227 C1211 1.377 . S
C1227 C1225 1.389 . S
C1227 C1228 1.524 . S
C1228 C1227 1.524 . S
C1228 C1229 1.397 . S
C1228 C1233 1.363 . S
C1229 H1200 0.950 . S
C1229 C1228 1.397 . S
C1229 C1230 1.334 . S
C1230 H1201 0.950 . S
C1230 C1229 1.334 . S
C1230 C1231 1.287 . S
C1231 C1230 1.287 . S
C1231 C1232 1.524 . S
C1231 H1234 0.999 . S
C1232 H1202 0.950 . S
C1232 C1231 1.524 . S
C1232 C1233 1.415 . S
C1233 H1203 0.950 . S
C1233 C1228 1.363 . S
C1233 C1232 1.415 . S
H1234 C1231 0.999 . S
H1235 C1216 0.913 . S
H1236 C1254 0.951 . S
H1237 C1256 0.951 . S
H1238 C1258 0.950 . S
H1239 C1259 0.950 . S
H1240 C1261 0.950 . S
H1241 C1264 0.950 . S
H1242 C1265 0.950 . S
H1243 C1267 0.950 . S
H1244 C1268 0.950 . S
H1245 C1269 0.951 . S
H1246 C1271 0.951 . S
H1247 C1273 0.950 . S
H1248 C1274 0.950 . S
H1249 C1276 0.950 . S
H1250 C1279 0.950 . S
H1251 C1280 0.950 . S
H1252 C1282 0.950 . S
H1253 C1283 0.950 . S
C1254 H1236 0.951 . S
C1254 C1255 1.366 . S
C1254 C1256 1.388 . S
C1255 C1254 1.366 . S
C1255 C1259 1.385 . S
C1256 H1237 0.951 . S
C1256 C1254 1.388 . S
C1256 C1257 1.366 . S
C1257 C1256 1.366 . S
C1257 C1258 1.414 . S
C1257 C1260 1.499 . S
C1258 H1238 0.950 . S
C1258 C1257 1.414 . S
C1258 C1259 1.374 . S
C1259 H1239 0.950 . S
C1259 C1255 1.385 . S
C1259 C1258 1.374 . S
C1260 C1257 1.499 . S
C1260 C1261 1.373 . S
C1260 C1262 1.389 . S
C1261 H1240 0.950 . S
C1261 C1260 1.373 . S
C1261 C1277 1.377 . S
C1262 C1260 1.389 . S
C1262 C1263 1.524 . S
C1262 C1276 1.377 . S
C1263 C1262 1.524 . S
C1263 C1264 1.397 . S
C1263 C1268 1.363 . S
C1264 H1241 0.950 . S
C1264 C1263 1.397 . S
C1264 C1265 1.334 . S
C1265 H1242 0.950 . S
C1265 C1264 1.334 . S
C1265 C1266 1.287 . S
C1266 C1265 1.287 . S
C1266 C1267 1.524 . S
C1266 H1285 0.913 . S
C1267 H1243 0.950 . S
C1267 C1266 1.524 . S
C1267 C1268 1.415 . S
C1268 H1244 0.950 . S
C1268 C1263 1.363 . S
C1268 C1267 1.415 . S
C1269 H1245 0.951 . S
C1269 C1270 1.366 . S
C1269 C1271 1.388 . S
C1270 C1269 1.366 . S
C1270 C1274 1.385 . S
C1271 H1246 0.951 . S
C1271 C1269 1.388 . S
C1271 C1272 1.366 . S
C1272 C1271 1.366 . S
C1272 C1273 1.414 . S
C1272 C1275 1.499 . S
C1273 H1247 0.950 . S
C1273 C1272 1.414 . S
C1273 C1274 1.374 . S
C1274 H1248 0.950 . S
C1274 C1270 1.385 . S
C1274 C1273 1.374 . S
C1275 C1272 1.499 . S
C1275 C1276 1.373 . S
C1275 C1277 1.389 . S
C1276 H1249 0.950 . S
C1276 C1262 1.377 . S
C1276 C1275 1.373 . S
C1277 C1261 1.377 . S
C1277 C1275 1.389 . S
C1277 C1278 1.524 . S
C1278 C1277 1.524 . S
C1278 C1279 1.397 . S
C1278 C1283 1.363 . S
C1279 H1250 0.950 . S
C1279 C1278 1.397 . S
C1279 C1280 1.334 . S
C1280 H1251 0.950 . S
C1280 C1279 1.334 . S
C1280 C1281 1.287 . S
C1281 C1280 1.287 . S
C1281 C1282 1.524 . S
C1281 H1284 0.999 . S
C1282 H1252 0.950 . S
C1282 C1281 1.524 . S
C1282 C1283 1.415 . S
C1283 H1253 0.950 . S
C1283 C1278 1.363 . S
C1283 C1282 1.415 . S
H1284 C1281 0.999 . S
H1285 C1266 0.913 . S
H1286 C1304 0.951 . S
H1287 C1306 0.951 . S
H1288 C1308 0.950 . S
H1289 C1309 0.950 . S
H1290 C1311 0.950 . S
H1291 C1314 0.950 . S
H1292 C1315 0.950 . S
H1293 C1317 0.950 . S
H1294 C1318 0.950 . S
H1295 C1319 0.951 . S
H1296 C1321 0.951 . S
H1297 C1323 0.950 . S
H1298 C1324 0.950 . S
H1299 C1326 0.950 . S
H1300 C1329 0.950 . S
H1301 C1330 0.950 . S
H1302 C1332 0.950 . S
H1303 C1333 0.950 . S
C1304 H1286 0.951 . S
C1304 C1305 1.366 . S
C1304 C1306 1.388 . S
C1305 C1304 1.366 . S
C1305 C1309 1.385 . S
C1306 H1287 0.951 . S
C1306 C1304 1.388 . S
C1306 C1307 1.366 . S
C1307 C1306 1.366 . S
C1307 C1308 1.414 . S
C1307 C1310 1.499 . S
C1308 H1288 0.950 . S
C1308 C1307 1.414 . S
C1308 C1309 1.374 . S
C1309 H1289 0.950 . S
C1309 C1305 1.385 . S
C1309 C1308 1.374 . S
C1310 C1307 1.499 . S
C1310 C1311 1.373 . S
C1310 C1312 1.389 . S
C1311 H1290 0.950 . S
C1311 C1310 1.373 . S
C1311 C1327 1.377 . S
C1312 C1310 1.389 . S
C1312 C1313 1.524 . S
C1312 C1326 1.377 . S
C1313 C1312 1.524 . S
C1313 C1314 1.397 . S
C1313 C1318 1.363 . S
C1314 H1291 0.950 . S
C1314 C1313 1.397 . S
C1314 C1315 1.334 . S
C1315 H1292 0.950 . S
C1315 C1314 1.334 . S
C1315 C1316 1.287 . S
C1316 C1315 1.287 . S
C1316 C1317 1.524 . S
C1316 H1335 0.913 . S
C1317 H1293 0.950 . S
C1317 C1316 1.524 . S
C1317 C1318 1.415 . S
C1318 H1294 0.950 . S
C1318 C1313 1.363 . S
C1318 C1317 1.415 . S
C1319 H1295 0.951 . S
C1319 C1320 1.366 . S
C1319 C1321 1.388 . S
C1320 C1319 1.366 . S
C1320 C1324 1.385 . S
C1321 H1296 0.951 . S
C1321 C1319 1.388 . S
C1321 C1322 1.366 . S
C1322 C1321 1.366 . S
C1322 C1323 1.414 . S
C1322 C1325 1.499 . S
C1323 H1297 0.950 . S
C1323 C1322 1.414 . S
C1323 C1324 1.374 . S
C1324 H1298 0.950 . S
C1324 C1320 1.385 . S
C1324 C1323 1.374 . S
C1325 C1322 1.499 . S
C1325 C1326 1.373 . S
C1325 C1327 1.389 . S
C1326 H1299 0.950 . S
C1326 C1312 1.377 . S
C1326 C1325 1.373 . S
C1327 C1311 1.377 . S
C1327 C1325 1.389 . S
C1327 C1328 1.524 . S
C1328 C1327 1.524 . S
C1328 C1329 1.397 . S
C1328 C1333 1.363 . S
C1329 H1300 0.950 . S
C1329 C1328 1.397 . S
C1329 C1330 1.334 . S
C1330 H1301 0.950 . S
C1330 C1329 1.334 . S
C1330 C1331 1.287 . S
C1331 C1330 1.287 . S
C1331 C1332 1.524 . S
C1331 H1334 0.999 . S
C1332 H1302 0.950 . S
C1332 C1331 1.524 . S
C1332 C1333 1.415 . S
C1333 H1303 0.950 . S
C1333 C1328 1.363 . S
C1333 C1332 1.415 . S
H1334 C1331 0.999 . S
H1335 C1316 0.913 . S
H1336 C1354 0.951 . S
H1337 C1356 0.951 . S
H1338 C1358 0.950 . S
H1339 C1359 0.950 . S
H1340 C1361 0.950 . S
H1341 C1364 0.950 . S
H1342 C1365 0.950 . S
H1343 C1367 0.950 . S
H1344 C1368 0.950 . S
H1345 C1369 0.951 . S
H1346 C1371 0.951 . S
H1347 C1373 0.950 . S
H1348 C1374 0.950 . S
H1349 C1376 0.950 . S
H1350 C1379 0.950 . S
H1351 C1380 0.950 . S
H1352 C1382 0.950 . S
H1353 C1383 0.950 . S
C1354 H1336 0.951 . S
C1354 C1355 1.366 . S
C1354 C1356 1.388 . S
C1355 C1354 1.366 . S
C1355 C1359 1.385 . S
C1356 H1337 0.951 . S
C1356 C1354 1.388 . S
C1356 C1357 1.366 . S
C1357 C1356 1.366 . S
C1357 C1358 1.414 . S
C1357 C1360 1.499 . S
C1358 H1338 0.950 . S
C1358 C1357 1.414 . S
C1358 C1359 1.374 . S
C1359 H1339 0.950 . S
C1359 C1355 1.385 . S
C1359 C1358 1.374 . S
C1360 C1357 1.499 . S
C1360 C1361 1.373 . S
C1360 C1362 1.389 . S
C1361 H1340 0.950 . S
C1361 C1360 1.373 . S
C1361 C1377 1.377 . S
C1362 C1360 1.389 . S
C1362 C1363 1.524 . S
C1362 C1376 1.377 . S
C1363 C1362 1.524 . S
C1363 C1364 1.397 . S
C1363 C1368 1.363 . S
C1364 H1341 0.950 . S
C1364 C1363 1.397 . S
C1364 C1365 1.334 . S
C1365 H1342 0.950 . S
C1365 C1364 1.334 . S
C1365 C1366 1.287 . S
C1366 C1365 1.287 . S
C1366 C1367 1.524 . S
C1366 H1385 0.913 . S
C1367 H1343 0.950 . S
C1367 C1366 1.524 . S
C1367 C1368 1.415 . S
C1368 H1344 0.950 . S
C1368 C1363 1.363 . S
C1368 C1367 1.415 . S
C1369 H1345 0.951 . S
C1369 C1370 1.366 . S
C1369 C1371 1.388 . S
C1370 C1369 1.366 . S
C1370 C1374 1.385 . S
C1371 H1346 0.951 . S
C1371 C1369 1.388 . S
C1371 C1372 1.366 . S
C1372 C1371 1.366 . S
C1372 C1373 1.414 . S
C1372 C1375 1.499 . S
C1373 H1347 0.950 . S
C1373 C1372 1.414 . S
C1373 C1374 1.374 . S
C1374 H1348 0.950 . S
C1374 C1370 1.385 . S
C1374 C1373 1.374 . S
C1375 C1372 1.499 . S
C1375 C1376 1.373 . S
C1375 C1377 1.389 . S
C1376 H1349 0.950 . S
C1376 C1362 1.377 . S
C1376 C1375 1.373 . S
C1377 C1361 1.377 . S
C1377 C1375 1.389 . S
C1377 C1378 1.524 . S
C1378 C1377 1.524 . S
C1378 C1379 1.397 . S
C1378 C1383 1.363 . S
C1379 H1350 0.950 . S
C1379 C1378 1.397 . S
C1379 C1380 1.334 . S
C1380 H1351 0.950 . S
C1380 C1379 1.334 . S
C1380 C1381 1.287 . S
C1381 C1380 1.287 . S
C1381 C1382 1.524 . S
C1381 H1384 0.999 . S
C1382 H1352 0.950 . S
C1382 C1381 1.524 . S
C1382 C1383 1.415 . S
C1383 H1353 0.950 . S
C1383 C1378 1.363 . S
C1383 C1382 1.415 . S
H1384 C1381 0.999 . S
H1385 C1366 0.913 . S
H1386 C1404 0.951 . S
H1387 C1406 0.951 . S
H1388 C1408 0.950 . S
H1389 C1409 0.950 . S
H1390 C1411 0.950 . S
H1391 C1414 0.950 . S
H1392 C1415 0.950 . S
H1393 C1417 0.950 . S
H1394 C1418 0.950 . S
H1395 C1419 0.951 . S
H1396 C1421 0.951 . S
H1397 C1423 0.950 . S
H1398 C1424 0.950 . S
H1399 C1426 0.950 . S
H1400 C1429 0.950 . S
H1401 C1430 0.950 . S
H1402 C1432 0.950 . S
H1403 C1433 0.950 . S
C1404 H1386 0.951 . S
C1404 C1405 1.366 . S
C1404 C1406 1.388 . S
C1405 C1404 1.366 . S
C1405 C1409 1.385 . S
C1406 H1387 0.951 . S
C1406 C1404 1.388 . S
C1406 C1407 1.366 . S
C1407 C1406 1.366 . S
C1407 C1408 1.414 . S
C1407 C1410 1.499 . S
C1408 H1388 0.950 . S
C1408 C1407 1.414 . S
C1408 C1409 1.374 . S
C1409 H1389 0.950 . S
C1409 C1405 1.385 . S
C1409 C1408 1.374 . S
C1410 C1407 1.499 . S
C1410 C1411 1.373 . S
C1410 C1412 1.389 . S
C1411 H1390 0.950 . S
C1411 C1410 1.373 . S
C1411 C1427 1.377 . S
C1412 C1410 1.389 . S
C1412 C1413 1.524 . S
C1412 C1426 1.377 . S
C1413 C1412 1.524 . S
C1413 C1414 1.397 . S
C1413 C1418 1.363 . S
C1414 H1391 0.950 . S
C1414 C1413 1.397 . S
C1414 C1415 1.334 . S
C1415 H1392 0.950 . S
C1415 C1414 1.334 . S
C1415 C1416 1.287 . S
C1416 C1415 1.287 . S
C1416 C1417 1.524 . S
C1416 H1435 0.913 . S
C1417 H1393 0.950 . S
C1417 C1416 1.524 . S
C1417 C1418 1.415 . S
C1418 H1394 0.950 . S
C1418 C1413 1.363 . S
C1418 C1417 1.415 . S
C1419 H1395 0.951 . S
C1419 C1420 1.366 . S
C1419 C1421 1.388 . S
C1420 C1419 1.366 . S
C1420 C1424 1.385 . S
C1421 H1396 0.951 . S
C1421 C1419 1.388 . S
C1421 C1422 1.366 . S
C1422 C1421 1.366 . S
C1422 C1423 1.414 . S
C1422 C1425 1.499 . S
C1423 H1397 0.950 . S
C1423 C1422 1.414 . S
C1423 C1424 1.374 . S
C1424 H1398 0.950 . S
C1424 C1420 1.385 . S
C1424 C1423 1.374 . S
C1425 C1422 1.499 . S
C1425 C1426 1.373 . S
C1425 C1427 1.389 . S
C1426 H1399 0.950 . S
C1426 C1412 1.377 . S
C1426 C1425 1.373 . S
C1427 C1411 1.377 . S
C1427 C1425 1.389 . S
C1427 C1428 1.524 . S
C1428 C1427 1.524 . S
C1428 C1429 1.397 . S
C1428 C1433 1.363 . S
C1429 H1400 0.950 . S
C1429 C1428 1.397 . S
C1429 C1430 1.334 . S
C1430 H1401 0.950 . S
C1430 C1429 1.334 . S
C1430 C1431 1.287 . S
C1431 C1430 1.287 . S
C1431 C1432 1.524 . S
C1431 H1434 0.999 . S
C1432 H1402 0.950 . S
C1432 C1431 1.524 . S
C1432 C1433 1.415 . S
C1433 H1403 0.950 . S
C1433 C1428 1.363 . S
C1433 C1432 1.415 . S
H1434 C1431 0.999 . S
H1435 C1416 0.913 . S
H1436 C1454 0.951 . S
H1437 C1456 0.951 . S
H1438 C1458 0.950 . S
H1439 C1459 0.950 . S
H1440 C1461 0.950 . S
H1441 C1464 0.950 . S
H1442 C1465 0.950 . S
H1443 C1467 0.950 . S
H1444 C1468 0.950 . S
H1445 C1469 0.951 . S
H1446 C1471 0.951 . S
H1447 C1473 0.950 . S
H1448 C1474 0.950 . S
H1449 C1476 0.950 . S
H1450 C1479 0.950 . S
H1451 C1480 0.950 . S
H1452 C1482 0.950 . S
H1453 C1483 0.950 . S
C1454 H1436 0.951 . S
C1454 C1455 1.366 . S
C1454 C1456 1.388 . S
C1455 C1454 1.366 . S
C1455 C1459 1.385 . S
C1456 H1437 0.951 . S
C1456 C1454 1.388 . S
C1456 C1457 1.366 . S
C1457 C1456 1.366 . S
C1457 C1458 1.414 . S
C1457 C1460 1.499 . S
C1458 H1438 0.950 . S
C1458 C1457 1.414 . S
C1458 C1459 1.374 . S
C1459 H1439 0.950 . S
C1459 C1455 1.385 . S
C1459 C1458 1.374 . S
C1460 C1457 1.499 . S
C1460 C1461 1.373 . S
C1460 C1462 1.389 . S
C1461 H1440 0.950 . S
C1461 C1460 1.373 . S
C1461 C1477 1.377 . S
C1462 C1460 1.389 . S
C1462 C1463 1.524 . S
C1462 C1476 1.377 . S
C1463 C1462 1.524 . S
C1463 C1464 1.397 . S
C1463 C1468 1.363 . S
C1464 H1441 0.950 . S
C1464 C1463 1.397 . S
C1464 C1465 1.334 . S
C1465 H1442 0.950 . S
C1465 C1464 1.334 . S
C1465 C1466 1.287 . S
C1466 C1465 1.287 . S
C1466 C1467 1.524 . S
C1466 H1485 0.913 . S
C1467 H1443 0.950 . S
C1467 C1466 1.524 . S
C1467 C1468 1.415 . S
C1468 H1444 0.950 . S
C1468 C1463 1.363 . S
C1468 C1467 1.415 . S
C1469 H1445 0.951 . S
C1469 C1470 1.366 . S
C1469 C1471 1.388 . S
C1470 C1469 1.366 . S
C1470 C1474 1.385 . S
C1471 H1446 0.951 . S
C1471 C1469 1.388 . S
C1471 C1472 1.366 . S
C1472 C1471 1.366 . S
C1472 C1473 1.414 . S
C1472 C1475 1.499 . S
C1473 H1447 0.950 . S
C1473 C1472 1.414 . S
C1473 C1474 1.374 . S
C1474 H1448 0.950 . S
C1474 C1470 1.385 . S
C1474 C1473 1.374 . S
C1475 C1472 1.499 . S
C1475 C1476 1.373 . S
C1475 C1477 1.389 . S
C1476 H1449 0.950 . S
C1476 C1462 1.377 . S
C1476 C1475 1.373 . S
C1477 C1461 1.377 . S
C1477 C1475 1.389 . S
C1477 C1478 1.524 . S
C1478 C1477 1.524 . S
C1478 C1479 1.397 . S
C1478 C1483 1.363 . S
C1479 H1450 0.950 . S
C1479 C1478 1.397 . S
C1479 C1480 1.334 . S
C1480 H1451 0.950 . S
C1480 C1479 1.334 . S
C1480 C1481 1.287 . S
C1481 C1480 1.287 . S
C1481 C1482 1.524 . S
C1481 H1484 0.999 . S
C1482 H1452 0.950 . S
C1482 C1481 1.524 . S
C1482 C1483 1.415 . S
C1483 H1453 0.950 . S
C1483 C1478 1.363 . S
C1483 C1482 1.415 . S
H1484 C1481 0.999 . S
H1485 C1466 0.913 . S
H1486 C1504 0.951 . S
H1487 C1506 0.951 . S
H1488 C1508 0.950 . S
H1489 C1509 0.950 . S
H1490 C1511 0.950 . S
H1491 C1514 0.950 . S
H1492 C1515 0.950 . S
H1493 C1517 0.950 . S
H1494 C1518 0.950 . S
H1495 C1519 0.951 . S
H1496 C1521 0.951 . S
H1497 C1523 0.950 . S
H1498 C1524 0.950 . S
H1499 C1526 0.950 . S
H1500 C1529 0.950 . S
H1501 C1530 0.950 . S
H1502 C1532 0.950 . S
H1503 C1533 0.950 . S
C1504 H1486 0.951 . S
C1504 C1505 1.366 . S
C1504 C1506 1.388 . S
C1505 C1504 1.366 . S
C1505 C1509 1.385 . S
C1506 H1487 0.951 . S
C1506 C1504 1.388 . S
C1506 C1507 1.366 . S
C1507 C1506 1.366 . S
C1507 C1508 1.414 . S
C1507 C1510 1.499 . S
C1508 H1488 0.950 . S
C1508 C1507 1.414 . S
C1508 C1509 1.374 . S
C1509 H1489 0.950 . S
C1509 C1505 1.385 . S
C1509 C1508 1.374 . S
C1510 C1507 1.499 . S
C1510 C1511 1.373 . S
C1510 C1512 1.389 . S
C1511 H1490 0.950 . S
C1511 C1510 1.373 . S
C1511 C1527 1.377 . S
C1512 C1510 1.389 . S
C1512 C1513 1.524 . S
C1512 C1526 1.377 . S
C1513 C1512 1.524 . S
C1513 C1514 1.397 . S
C1513 C1518 1.363 . S
C1514 H1491 0.950 . S
C1514 C1513 1.397 . S
C1514 C1515 1.334 . S
C1515 H1492 0.950 . S
C1515 C1514 1.334 . S
C1515 C1516 1.287 . S
C1516 C1515 1.287 . S
C1516 C1517 1.524 . S
C1516 H1535 0.913 . S
C1517 H1493 0.950 . S
C1517 C1516 1.524 . S
C1517 C1518 1.415 . S
C1518 H1494 0.950 . S
C1518 C1513 1.363 . S
C1518 C1517 1.415 . S
C1519 H1495 0.951 . S
C1519 C1520 1.366 . S
C1519 C1521 1.388 . S
C1520 C1519 1.366 . S
C1520 C1524 1.385 . S
C1521 H1496 0.951 . S
C1521 C1519 1.388 . S
C1521 C1522 1.366 . S
C1522 C1521 1.366 . S
C1522 C1523 1.414 . S
C1522 C1525 1.499 . S
C1523 H1497 0.950 . S
C1523 C1522 1.414 . S
C1523 C1524 1.374 . S
C1524 H1498 0.950 . S
C1524 C1520 1.385 . S
C1524 C1523 1.374 . S
C1525 C1522 1.499 . S
C1525 C1526 1.373 . S
C1525 C1527 1.389 . S
C1526 H1499 0.950 . S
C1526 C1512 1.377 . S
C1526 C1525 1.373 . S
C1527 C1511 1.377 . S
C1527 C1525 1.389 . S
C1527 C1528 1.524 . S
C1528 C1527 1.524 . S
C1528 C1529 1.397 . S
C1528 C1533 1.363 . S
C1529 H1500 0.950 . S
C1529 C1528 1.397 . S
C1529 C1530 1.334 . S
C1530 H1501 0.950 . S
C1530 C1529 1.334 . S
C1530 C1531 1.287 . S
C1531 C1530 1.287 . S
C1531 C1532 1.524 . S
C1531 H1534 0.999 . S
C1532 H1502 0.950 . S
C1532 C1531 1.524 . S
C1532 C1533 1.415 . S
C1533 H1503 0.950 . S
C1533 C1528 1.363 . S
C1533 C1532 1.415 . S
H1534 C1531 0.999 . S
H1535 C1516 0.913 . S
H1536 C1554 0.951 . S
H1537 C1556 0.951 . S
H1538 C1558 0.950 . S
H1539 C1559 0.950 1_545 S
H1540 C1561 0.950 . S
H1541 C1564 0.950 . S
H1542 C1565 0.950 . S
H1543 C1567 0.975 . S
H1544 C1568 0.950 1_554 S
H1545 C1569 0.951 . S
H1546 C1571 0.951 . S
H1547 C1573 0.950 . S
H1548 C1574 0.950 1_565 S
H1549 C1576 0.950 . S
H1550 C1579 0.950 . S
H1551 C1580 0.950 . S
H1552 C1582 0.975 . S
H1553 C1583 0.950 1_556 S
C1554 H1536 0.951 . S
C1554 C1555 1.366 . S
C1554 C1556 1.388 . S
C1555 C1554 1.366 . S
C1555 C1559 1.385 . S
C1556 H1537 0.951 . S
C1556 C1554 1.388 . S
C1556 C1557 1.366 . S
C1557 C1556 1.366 . S
C1557 C1558 1.414 1_565 S
C1557 C1560 1.499 . S
C1558 H1538 0.950 . S
C1558 C1557 1.414 1_545 S
C1558 C1559 1.374 1_545 S
C1559 H1539 0.950 1_565 S
C1559 C1555 1.385 . S
C1559 C1558 1.374 1_565 S
C1560 C1557 1.499 . S
C1560 C1561 1.373 1_565 S
C1560 C1562 1.389 . S
C1561 H1540 0.950 . S
C1561 C1560 1.373 1_545 S
C1561 C1577 1.377 1_556 S
C1562 C1560 1.389 . S
C1562 C1563 1.524 . S
C1562 C1576 1.377 1_556 S
C1563 C1562 1.524 . S
C1563 C1564 1.397 . S
C1563 C1568 1.363 . S
C1564 H1541 0.950 . S
C1564 C1563 1.397 . S
C1564 C1565 1.334 . S
C1565 H1542 0.950 . S
C1565 C1564 1.334 . S
C1565 C1566 1.287 . S
C1566 C1565 1.287 . S
C1566 C1567 1.524 . S
C1566 H1585 0.913 . S
C1567 H1543 0.975 . S
C1567 C1566 1.524 . S
C1567 C1568 1.415 . S
C1568 H1544 0.950 1_556 S
C1568 C1563 1.363 . S
C1568 C1567 1.415 . S
C1569 H1545 0.951 . S
C1569 C1570 1.366 . S
C1569 C1571 1.388 . S
C1570 C1569 1.366 . S
C1570 C1574 1.385 . S
C1571 H1546 0.951 . S
C1571 C1569 1.388 . S
C1571 C1572 1.366 . S
C1572 C1571 1.366 . S
C1572 C1573 1.414 1_545 S
C1572 C1575 1.499 . S
C1573 H1547 0.950 . S
C1573 C1572 1.414 1_565 S
C1573 C1574 1.374 1_565 S
C1574 H1548 0.950 1_545 S
C1574 C1570 1.385 . S
C1574 C1573 1.374 1_545 S
C1575 C1572 1.499 . S
C1575 C1576 1.373 1_545 S
C1575 C1577 1.389 . S
C1576 H1549 0.950 . S
C1576 C1562 1.377 1_554 S
C1576 C1575 1.373 1_565 S
C1577 C1561 1.377 1_554 S
C1577 C1575 1.389 . S
C1577 C1578 1.524 . S
C1578 C1577 1.524 . S
C1578 C1579 1.397 . S
C1578 C1583 1.363 . S
C1579 H1550 0.950 . S
C1579 C1578 1.397 . S
C1579 C1580 1.334 . S
C1580 H1551 0.950 . S
C1580 C1579 1.334 . S
C1580 C1581 1.287 . S
C1581 C1580 1.287 . S
C1581 C1582 1.524 . S
C1581 H1584 0.999 . S
C1582 H1552 0.975 . S
C1582 C1581 1.524 . S
C1582 C1583 1.415 . S
C1583 H1553 0.950 1_554 S
C1583 C1578 1.363 . S
C1583 C1582 1.415 . S
H1584 C1581 0.999 . S
H1585 C1566 0.913 . S
H1586 C1604 0.951 . S
H1587 C1606 0.951 . S
H1588 C1608 0.950 . S
H1589 C1609 0.950 . S
H1590 C1611 0.950 . S
H1591 C1614 0.950 . S
H1592 C1615 0.950 . S
H1593 C1617 0.950 . S
H1594 C1618 0.950 . S
H1595 C1619 0.951 . S
H1596 C1621 0.951 . S
H1597 C1623 0.950 . S
H1598 C1624 0.950 . S
H1599 C1626 0.950 . S
H1600 C1629 0.950 . S
H1601 C1630 0.950 . S
H1602 C1632 0.950 . S
H1603 C1633 0.950 . S
C1604 H1586 0.951 . S
C1604 C1605 1.366 . S
C1604 C1606 1.388 . S
C1605 C1604 1.366 . S
C1605 C1609 1.385 . S
C1606 H1587 0.951 . S
C1606 C1604 1.388 . S
C1606 C1607 1.366 . S
C1607 C1606 1.366 . S
C1607 C1608 1.414 . S
C1607 C1610 1.499 . S
C1608 H1588 0.950 . S
C1608 C1607 1.414 . S
C1608 C1609 1.374 . S
C1609 H1589 0.950 . S
C1609 C1605 1.385 . S
C1609 C1608 1.374 . S
C1610 C1607 1.499 . S
C1610 C1611 1.373 . S
C1610 C1612 1.389 . S
C1611 H1590 0.950 . S
C1611 C1610 1.373 . S
C1611 C1627 1.377 . S
C1612 C1610 1.389 . S
C1612 C1613 1.524 . S
C1612 C1626 1.377 . S
C1613 C1612 1.524 . S
C1613 C1614 1.397 . S
C1613 C1618 1.363 . S
C1614 H1591 0.950 . S
C1614 C1613 1.397 . S
C1614 C1615 1.334 . S
C1615 H1592 0.950 . S
C1615 C1614 1.334 . S
C1615 C1616 1.287 . S
C1616 C1615 1.287 . S
C1616 C1617 1.524 . S
C1616 H1635 0.913 . S
C1617 H1593 0.950 . S
C1617 C1616 1.524 . S
C1617 C1618 1.415 . S
C1618 H1594 0.950 . S
C1618 C1613 1.363 . S
C1618 C1617 1.415 . S
C1619 H1595 0.951 . S
C1619 C1620 1.366 . S
C1619 C1621 1.388 . S
C1620 C1619 1.366 . S
C1620 C1624 1.385 . S
C1621 H1596 0.951 . S
C1621 C1619 1.388 . S
C1621 C1622 1.366 . S
C1622 C1621 1.366 . S
C1622 C1623 1.414 . S
C1622 C1625 1.499 . S
C1623 H1597 0.950 . S
C1623 C1622 1.414 . S
C1623 C1624 1.374 . S
C1624 H1598 0.950 . S
C1624 C1620 1.385 . S
C1624 C1623 1.374 . S
C1625 C1622 1.499 . S
C1625 C1626 1.373 . S
C1625 C1627 1.389 . S
C1626 H1599 0.950 . S
C1626 C1612 1.377 . S
C1626 C1625 1.373 . S
C1627 C1611 1.377 . S
C1627 C1625 1.389 . S
C1627 C1628 1.524 . S
C1628 C1627 1.524 . S
C1628 C1629 1.397 . S
C1628 C1633 1.363 . S
C1629 H1600 0.950 . S
C1629 C1628 1.397 . S
C1629 C1630 1.334 . S
C1630 H1601 0.950 . S
C1630 C1629 1.334 . S
C1630 C1631 1.287 . S
C1631 C1630 1.287 . S
C1631 C1632 1.524 . S
C1631 H1634 0.999 . S
C1632 H1602 0.950 . S
C1632 C1631 1.524 . S
C1632 C1633 1.415 . S
C1633 H1603 0.950 . S
C1633 C1628 1.363 . S
C1633 C1632 1.415 . S
H1634 C1631 0.999 . S
H1635 C1616 0.913 . S
H1636 C1654 0.951 1_655 S
H1637 C1656 0.951 . S
H1638 C1658 0.950 . S
H1639 C1659 0.950 . S
H1640 C1661 0.950 . S
H1641 C1664 0.950 . S
H1642 C1665 0.950 . S
H1643 C1667 0.950 . S
H1644 C1668 0.950 . S
H1645 C1669 0.951 1_455 S
H1646 C1671 0.951 . S
H1647 C1673 0.950 . S
H1648 C1674 0.950 . S
H1649 C1676 0.950 . S
H1650 C1679 0.950 . S
H1651 C1680 0.950 . S
H1652 C1682 0.950 . S
H1653 C1683 0.950 . S
C1654 H1636 0.951 1_455 S
C1654 C1655 1.366 . S
C1654 C1656 1.388 1_455 S
C1655 C1654 1.366 . S
C1655 C1659 1.385 . S
C1656 H1637 0.951 . S
C1656 C1654 1.388 1_655 S
C1656 C1657 1.366 1_655 S
C1657 C1656 1.366 1_455 S
C1657 C1658 1.414 . S
C1657 C1660 1.499 . S
C1658 H1638 0.950 . S
C1658 C1657 1.414 . S
C1658 C1659 1.374 . S
C1659 H1639 0.950 . S
C1659 C1655 1.385 . S
C1659 C1658 1.374 . S
C1660 C1657 1.499 . S
C1660 C1661 1.373 . S
C1660 C1662 1.389 1_455 S
C1661 H1640 0.950 . S
C1661 C1660 1.373 . S
C1661 C1677 1.377 1_556 S
C1662 C1660 1.389 1_655 S
C1662 C1663 1.524 . S
C1662 C1676 1.377 1_556 S
C1663 C1662 1.524 . S
C1663 C1664 1.397 . S
C1663 C1668 1.363 . S
C1664 H1641 0.950 . S
C1664 C1663 1.397 . S
C1664 C1665 1.334 . S
C1665 H1642 0.950 . S
C1665 C1664 1.334 . S
C1665 C1666 1.287 . S
C1666 C1665 1.287 . S
C1666 C1667 1.524 . S
C1666 H1685 0.913 . S
C1667 H1643 0.950 . S
C1667 C1666 1.524 . S
C1667 C1668 1.415 . S
C1668 H1644 0.950 . S
C1668 C1663 1.363 . S
C1668 C1667 1.415 . S
C1669 H1645 0.951 1_655 S
C1669 C1670 1.366 . S
C1669 C1671 1.388 1_655 S
C1670 C1669 1.366 . S
C1670 C1674 1.385 . S
C1671 H1646 0.951 . S
C1671 C1669 1.388 1_455 S
C1671 C1672 1.366 1_455 S
C1672 C1671 1.366 1_655 S
C1672 C1673 1.414 . S
C1672 C1675 1.499 . S
C1673 H1647 0.950 . S
C1673 C1672 1.414 . S
C1673 C1674 1.374 . S
C1674 H1648 0.950 . S
C1674 C1670 1.385 . S
C1674 C1673 1.374 . S
C1675 C1672 1.499 . S
C1675 C1676 1.373 . S
C1675 C1677 1.389 1_655 S
C1676 H1649 0.950 . S
C1676 C1662 1.377 1_554 S
C1676 C1675 1.373 . S
C1677 C1661 1.377 1_554 S
C1677 C1675 1.389 1_455 S
C1677 C1678 1.524 . S
C1678 C1677 1.524 . S
C1678 C1679 1.397 . S
C1678 C1683 1.363 . S
C1679 H1650 0.950 . S
C1679 C1678 1.397 . S
C1679 C1680 1.334 . S
C1680 H1651 0.950 . S
C1680 C1679 1.334 . S
C1680 C1681 1.287 . S
C1681 C1680 1.287 . S
C1681 C1682 1.524 . S
C1681 H1684 0.999 . S
C1682 H1652 0.950 . S
C1682 C1681 1.524 . S
C1682 C1683 1.415 . S
C1683 H1653 0.950 . S
C1683 C1678 1.363 . S
C1683 C1682 1.415 . S
H1684 C1681 0.999 . S
H1685 C1666 0.913 . S
H1686 C1704 0.951 . S
H1687 C1706 0.951 . S
H1688 C1708 0.977 . S
H1689 C1709 0.950 1_565 S
H1690 C1711 0.978 . S
H1691 C1714 0.950 . S
H1692 C1715 0.950 . S
H1693 C1717 0.950 . S
H1694 C1718 0.950 . S
H1695 C1719 0.951 . S
H1696 C1721 0.951 . S
H1697 C1723 0.977 . S
H1698 C1724 0.950 1_545 S
H1699 C1726 0.978 . S
H1700 C1729 0.950 . S
H1701 C1730 0.950 . S
H1702 C1732 0.950 . S
H1703 C1733 0.950 . S
C1704 H1686 0.951 . S
C1704 C1705 1.366 . S
C1704 C1706 1.388 . S
C1705 C1704 1.366 . S
C1705 C1709 1.385 . S
C1706 H1687 0.951 . S
C1706 C1704 1.388 . S
C1706 C1707 1.366 . S
C1707 C1706 1.366 . S
C1707 C1708 1.404 1_545 S
C1707 C1710 1.499 . S
C1708 H1688 0.977 . S
C1708 C1707 1.404 1_565 S
C1708 C1709 1.361 1_565 S
C1709 H1689 0.950 1_545 S
C1709 C1705 1.385 . S
C1709 C1708 1.361 1_545 S
C1710 C1707 1.499 . S
C1710 C1711 1.357 . S
C1710 C1712 1.389 . S
C1711 H1690 0.978 . S
C1711 C1710 1.357 . S
C1711 C1727 1.369 1_545 S
C1712 C1710 1.389 . S
C1712 C1713 1.524 . S
C1712 C1726 1.369 1_545 S
C1713 C1712 1.524 . S
C1713 C1714 1.397 1_545 S
C1713 C1718 1.363 . S
C1714 H1691 0.950 . S
C1714 C1713 1.397 1_565 S
C1714 C1715 1.334 . S
C1715 H1692 0.950 . S
C1715 C1714 1.334 . S
C1715 C1716 1.287 1_565 S
C1716 C1715 1.287 1_545 S
C1716 C1717 1.524 . S
C1716 H1735 0.913 . S
C1717 H1693 0.950 . S
C1717 C1716 1.524 . S
C1717 C1718 1.415 . S
C1718 H1694 0.950 . S
C1718 C1713 1.363 . S
C1718 C1717 1.415 . S
C1719 H1695 0.951 . S
C1719 C1720 1.366 . S
C1719 C1721 1.388 . S
C1720 C1719 1.366 . S
C1720 C1724 1.385 . S
C1721 H1696 0.951 . S
C1721 C1719 1.388 . S
C1721 C1722 1.366 . S
C1722 C1721 1.366 . S
C1722 C1723 1.404 1_565 S
C1722 C1725 1.499 . S
C1723 H1697 0.977 . S
C1723 C1722 1.404 1_545 S
C1723 C1724 1.361 1_545 S
C1724 H1698 0.950 1_565 S
C1724 C1720 1.385 . S
C1724 C1723 1.361 1_565 S
C1725 C1722 1.499 . S
C1725 C1726 1.357 . S
C1725 C1727 1.389 . S
C1726 H1699 0.978 . S
C1726 C1712 1.369 1_565 S
C1726 C1725 1.357 . S
C1727 C1711 1.369 1_565 S
C1727 C1725 1.389 . S
C1727 C1728 1.524 . S
C1728 C1727 1.524 . S
C1728 C1729 1.397 1_565 S
C1728 C1733 1.363 . S
C1729 H1700 0.950 . S
C1729 C1728 1.397 1_545 S
C1729 C1730 1.334 . S
C1730 H1701 0.950 . S
C1730 C1729 1.334 . S
C1730 C1731 1.287 1_545 S
C1731 C1730 1.287 1_565 S
C1731 C1732 1.524 . S
C1731 H1734 0.999 . S
C1732 H1702 0.950 . S
C1732 C1731 1.524 . S
C1732 C1733 1.415 . S
C1733 H1703 0.950 . S
C1733 C1728 1.363 . S
C1733 C1732 1.415 . S
H1734 C1731 0.999 . S
H1735 C1716 0.913 . S
H1736 C1754 0.951 . S
H1737 C1756 0.951 . S
H1738 C1758 0.950 . S
H1739 C1759 0.950 . S
H1740 C1761 0.950 . S
H1741 C1764 0.950 . S
H1742 C1765 0.950 . S
H1743 C1767 0.950 . S
H1744 C1768 0.950 . S
H1745 C1769 0.951 . S
H1746 C1771 0.951 . S
H1747 C1773 0.950 . S
H1748 C1774 0.950 . S
H1749 C1776 0.950 . S
H1750 C1779 0.950 . S
H1751 C1780 0.950 . S
H1752 C1782 0.950 . S
H1753 C1783 0.950 . S
C1754 H1736 0.951 . S
C1754 C1755 1.366 . S
C1754 C1756 1.388 . S
C1755 C1754 1.366 . S
C1755 C1759 1.385 . S
C1756 H1737 0.951 . S
C1756 C1754 1.388 . S
C1756 C1757 1.366 . S
C1757 C1756 1.366 . S
C1757 C1758 1.414 . S
C1757 C1760 1.499 . S
C1758 H1738 0.950 . S
C1758 C1757 1.414 . S
C1758 C1759 1.374 . S
C1759 H1739 0.950 . S
C1759 C1755 1.385 . S
C1759 C1758 1.374 . S
C1760 C1757 1.499 . S
C1760 C1761 1.373 . S
C1760 C1762 1.389 . S
C1761 H1740 0.950 . S
C1761 C1760 1.373 . S
C1761 C1777 1.377 1_554 S
C1762 C1760 1.389 . S
C1762 C1763 1.524 . S
C1762 C1776 1.377 1_554 S
C1763 C1762 1.524 . S
C1763 C1764 1.397 . S
C1763 C1768 1.363 . S
C1764 H1741 0.950 . S
C1764 C1763 1.397 . S
C1764 C1765 1.334 . S
C1765 H1742 0.950 . S
C1765 C1764 1.334 . S
C1765 C1766 1.287 . S
C1766 C1765 1.287 . S
C1766 C1767 1.524 . S
C1766 H1785 0.913 . S
C1767 H1743 0.950 . S
C1767 C1766 1.524 . S
C1767 C1768 1.415 . S
C1768 H1744 0.950 . S
C1768 C1763 1.363 . S
C1768 C1767 1.415 . S
C1769 H1745 0.951 . S
C1769 C1770 1.366 . S
C1769 C1771 1.388 . S
C1770 C1769 1.366 . S
C1770 C1774 1.385 . S
C1771 H1746 0.951 . S
C1771 C1769 1.388 . S
C1771 C1772 1.366 . S
C1772 C1771 1.366 . S
C1772 C1773 1.414 . S
C1772 C1775 1.499 . S
C1773 H1747 0.950 . S
C1773 C1772 1.414 . S
C1773 C1774 1.374 . S
C1774 H1748 0.950 . S
C1774 C1770 1.385 . S
C1774 C1773 1.374 . S
C1775 C1772 1.499 . S
C1775 C1776 1.373 . S
C1775 C1777 1.389 . S
C1776 H1749 0.950 . S
C1776 C1762 1.377 1_556 S
C1776 C1775 1.373 . S
C1777 C1761 1.377 1_556 S
C1777 C1775 1.389 . S
C1777 C1778 1.524 . S
C1778 C1777 1.524 . S
C1778 C1779 1.397 . S
C1778 C1783 1.363 . S
C1779 H1750 0.950 . S
C1779 C1778 1.397 . S
C1779 C1780 1.334 . S
C1780 H1751 0.950 . S
C1780 C1779 1.334 . S
C1780 C1781 1.287 . S
C1781 C1780 1.287 . S
C1781 C1782 1.524 . S
C1781 H1784 0.999 . S
C1782 H1752 0.950 . S
C1782 C1781 1.524 . S
C1782 C1783 1.415 . S
C1783 H1753 0.950 . S
C1783 C1778 1.363 . S
C1783 C1782 1.415 . S
H1784 C1781 0.999 . S
H1785 C1766 0.913 . S
H1786 C1804 0.951 . S
H1787 C1806 0.951 1_655 S
H1788 C1808 0.950 . S
H1789 C1809 0.950 . S
H1790 C1811 0.950 . S
H1791 C1814 0.950 . S
H1792 C1815 0.950 . S
H1793 C1817 0.950 . S
H1794 C1818 0.950 1_655 S
H1795 C1819 0.951 . S
H1796 C1821 0.951 1_455 S
H1797 C1823 0.950 . S
H1798 C1824 0.950 . S
H1799 C1826 0.950 . S
H1800 C1829 0.950 . S
H1801 C1830 0.950 . S
H1802 C1832 0.950 . S
H1803 C1833 0.950 1_455 S
C1804 H1786 0.951 . S
C1804 C1805 1.366 . S
C1804 C1806 1.388 . S
C1805 C1804 1.366 . S
C1805 C1809 1.385 . S
C1806 H1787 0.951 1_455 S
C1806 C1804 1.388 . S
C1806 C1807 1.366 . S
C1807 C1806 1.366 . S
C1807 C1808 1.414 . S
C1807 C1810 1.499 . S
C1808 H1788 0.950 . S
C1808 C1807 1.414 . S
C1808 C1809 1.374 . S
C1809 H1789 0.950 . S
C1809 C1805 1.385 . S
C1809 C1808 1.374 . S
C1810 C1807 1.499 . S
C1810 C1811 1.373 1_455 S
C1810 C1812 1.389 . S
C1811 H1790 0.950 . S
C1811 C1810 1.373 1_655 S
C1811 C1827 1.377 . S
C1812 C1810 1.389 . S
C1812 C1813 1.524 . S
C1812 C1826 1.377 . S
C1813 C1812 1.524 . S
C1813 C1814 1.397 . S
C1813 C1818 1.363 . S
C1814 H1791 0.950 . S
C1814 C1813 1.397 . S
C1814 C1815 1.334 . S
C1815 H1792 0.950 . S
C1815 C1814 1.334 . S
C1815 C1816 1.287 . S
C1816 C1815 1.287 . S
C1816 C1817 1.524 . S
C1816 H1835 0.913 . S
C1817 H1793 0.950 . S
C1817 C1816 1.524 . S
C1817 C1818 1.415 . S
C1818 H1794 0.950 1_455 S
C1818 C1813 1.363 . S
C1818 C1817 1.415 . S
C1819 H1795 0.951 . S
C1819 C1820 1.366 . S
C1819 C1821 1.388 . S
C1820 C1819 1.366 . S
C1820 C1824 1.385 . S
C1821 H1796 0.951 1_655 S
C1821 C1819 1.388 . S
C1821 C1822 1.366 . S
C1822 C1821 1.366 . S
C1822 C1823 1.414 . S
C1822 C1825 1.499 . S
C1823 H1797 0.950 . S
C1823 C1822 1.414 . S
C1823 C1824 1.374 . S
C1824 H1798 0.950 . S
C1824 C1820 1.385 . S
C1824 C1823 1.374 . S
C1825 C1822 1.499 . S
C1825 C1826 1.373 1_655 S
C1825 C1827 1.389 . S
C1826 H1799 0.950 . S
C1826 C1812 1.377 . S
C1826 C1825 1.373 1_455 S
C1827 C1811 1.377 . S
C1827 C1825 1.389 . S
C1827 C1828 1.524 . S
C1828 C1827 1.524 . S
C1828 C1829 1.397 . S
C1828 C1833 1.363 . S
C1829 H1800 0.950 . S
C1829 C1828 1.397 . S
C1829 C1830 1.334 . S
C1830 H1801 0.950 . S
C1830 C1829 1.334 . S
C1830 C1831 1.287 . S
C1831 C1830 1.287 . S
C1831 C1832 1.524 . S
C1831 H1834 0.999 . S
C1832 H1802 0.950 . S
C1832 C1831 1.524 . S
C1832 C1833 1.415 . S
C1833 H1803 0.950 1_655 S
C1833 C1828 1.363 . S
C1833 C1832 1.415 . S
H1834 C1831 0.999 . S
H1835 C1816 0.913 . S
H1836 C1854 0.951 . S
H1837 C1856 0.951 . S
H1838 C1858 0.950 1_545 S
H1839 C1859 0.950 . S
H1840 C1861 0.950 . S
H1841 C1864 0.950 . S
H1842 C1865 0.950 . S
H1843 C1867 0.949 1_565 S
H1844 C1868 0.950 . S
H1845 C1869 0.951 . S
H1846 C1871 0.951 . S
H1847 C1873 0.950 1_565 S
H1848 C1874 0.950 . S
H1849 C1876 0.950 . S
H1850 C1879 0.950 . S
H1851 C1880 0.950 . S
H1852 C1882 0.949 1_545 S
H1853 C1883 0.950 . S
C1854 H1836 0.951 . S
C1854 C1855 1.366 . S
C1854 C1856 1.388 . S
C1855 C1854 1.366 . S
C1855 C1859 1.385 . S
C1856 H1837 0.951 . S
C1856 C1854 1.388 . S
C1856 C1857 1.366 . S
C1857 C1856 1.366 . S
C1857 C1858 1.414 . S
C1857 C1860 1.499 . S
C1858 H1838 0.950 1_565 S
C1858 C1857 1.414 . S
C1858 C1859 1.374 . S
C1859 H1839 0.950 . S
C1859 C1855 1.385 . S
C1859 C1858 1.374 . S
C1860 C1857 1.499 . S
C1860 C1861 1.373 . S
C1860 C1862 1.389 1_565 S
C1861 H1840 0.950 . S
C1861 C1860 1.373 . S
C1861 C1877 1.377 1_556 S
C1862 C1860 1.389 1_545 S
C1862 C1863 1.524 . S
C1862 C1876 1.377 1_556 S
C1863 C1862 1.524 . S
C1863 C1864 1.397 . S
C1863 C1868 1.363 1_545 S
C1864 H1841 0.950 . S
C1864 C1863 1.397 . S
C1864 C1865 1.334 . S
C1865 H1842 0.950 . S
C1865 C1864 1.334 . S
C1865 C1866 1.287 . S
C1866 C1865 1.287 . S
C1866 C1867 1.523 . S
C1866 H1885 0.913 . S
C1867 H1843 0.949 1_545 S
C1867 C1866 1.523 . S
C1867 C1868 1.416 1_545 S
C1868 H1844 0.950 . S
C1868 C1863 1.363 1_565 S
C1868 C1867 1.416 1_565 S
C1869 H1845 0.951 . S
C1869 C1870 1.366 . S
C1869 C1871 1.388 . S
C1870 C1869 1.366 . S
C1870 C1874 1.385 . S
C1871 H1846 0.951 . S
C1871 C1869 1.388 . S
C1871 C1872 1.366 . S
C1872 C1871 1.366 . S
C1872 C1873 1.414 . S
C1872 C1875 1.499 . S
C1873 H1847 0.950 1_545 S
C1873 C1872 1.414 . S
C1873 C1874 1.374 . S
C1874 H1848 0.950 . S
C1874 C1870 1.385 . S
C1874 C1873 1.374 . S
C1875 C1872 1.499 . S
C1875 C1876 1.373 . S
C1875 C1877 1.389 1_545 S
C1876 H1849 0.950 . S
C1876 C1862 1.377 1_554 S
C1876 C1875 1.373 . S
C1877 C1861 1.377 1_554 S
C1877 C1875 1.389 1_565 S
C1877 C1878 1.524 . S
C1878 C1877 1.524 . S
C1878 C1879 1.397 . S
C1878 C1883 1.363 1_565 S
C1879 H1850 0.950 . S
C1879 C1878 1.397 . S
C1879 C1880 1.334 . S
C1880 H1851 0.950 . S
C1880 C1879 1.334 . S
C1880 C1881 1.287 . S
C1881 C1880 1.287 . S
C1881 C1882 1.523 . S
C1881 H1884 0.999 . S
C1882 H1852 0.949 1_565 S
C1882 C1881 1.523 . S
C1882 C1883 1.416 1_565 S
C1883 H1853 0.950 . S
C1883 C1878 1.363 1_545 S
C1883 C1882 1.416 1_545 S
H1884 C1881 0.999 . S
H1885 C1866 0.913 . S
H1886 C1904 0.951 . S
H1887 C1906 0.951 . S
H1888 C1908 0.950 . S
H1889 C1909 0.950 . S
H1890 C1911 0.950 . S
H1891 C1914 0.950 . S
H1892 C1915 0.950 . S
H1893 C1917 0.950 . S
H1894 C1918 0.950 . S
H1895 C1919 0.951 . S
H1896 C1921 0.951 . S
H1897 C1923 0.950 . S
H1898 C1924 0.950 . S
H1899 C1926 0.950 . S
H1900 C1929 0.950 . S
H1901 C1930 0.950 . S
H1902 C1932 0.950 . S
H1903 C1933 0.950 . S
C1904 H1886 0.951 . S
C1904 C1905 1.366 . S
C1904 C1906 1.388 . S
C1905 C1904 1.366 . S
C1905 C1909 1.385 . S
C1906 H1887 0.951 . S
C1906 C1904 1.388 . S
C1906 C1907 1.366 . S
C1907 C1906 1.366 . S
C1907 C1908 1.414 . S
C1907 C1910 1.499 . S
C1908 H1888 0.950 . S
C1908 C1907 1.414 . S
C1908 C1909 1.374 . S
C1909 H1889 0.950 . S
C1909 C1905 1.385 . S
C1909 C1908 1.374 . S
C1910 C1907 1.499 . S
C1910 C1911 1.373 . S
C1910 C1912 1.389 . S
C1911 H1890 0.950 . S
C1911 C1910 1.373 . S
C1911 C1927 1.377 . S
C1912 C1910 1.389 . S
C1912 C1913 1.524 . S
C1912 C1926 1.377 . S
C1913 C1912 1.524 . S
C1913 C1914 1.397 . S
C1913 C1918 1.363 . S
C1914 H1891 0.950 . S
C1914 C1913 1.397 . S
C1914 C1915 1.334 . S
C1915 H1892 0.950 . S
C1915 C1914 1.334 . S
C1915 C1916 1.287 . S
C1916 C1915 1.287 . S
C1916 C1917 1.524 . S
C1916 H1935 0.913 . S
C1917 H1893 0.950 . S
C1917 C1916 1.524 . S
C1917 C1918 1.415 . S
C1918 H1894 0.950 . S
C1918 C1913 1.363 . S
C1918 C1917 1.415 . S
C1919 H1895 0.951 . S
C1919 C1920 1.366 . S
C1919 C1921 1.388 . S
C1920 C1919 1.366 . S
C1920 C1924 1.385 . S
C1921 H1896 0.951 . S
C1921 C1919 1.388 . S
C1921 C1922 1.366 . S
C1922 C1921 1.366 . S
C1922 C1923 1.414 . S
C1922 C1925 1.499 . S
C1923 H1897 0.950 . S
C1923 C1922 1.414 . S
C1923 C1924 1.374 . S
C1924 H1898 0.950 . S
C1924 C1920 1.385 . S
C1924 C1923 1.374 . S
C1925 C1922 1.499 . S
C1925 C1926 1.373 . S
C1925 C1927 1.389 . S
C1926 H1899 0.950 . S
C1926 C1912 1.377 . S
C1926 C1925 1.373 . S
C1927 C1911 1.377 . S
C1927 C1925 1.389 . S
C1927 C1928 1.524 . S
C1928 C1927 1.524 . S
C1928 C1929 1.397 . S
C1928 C1933 1.363 . S
C1929 H1900 0.950 . S
C1929 C1928 1.397 . S
C1929 C1930 1.334 . S
C1930 H1901 0.950 . S
C1930 C1929 1.334 . S
C1930 C1931 1.287 . S
C1931 C1930 1.287 . S
C1931 C1932 1.524 . S
C1931 H1934 0.999 . S
C1932 H1902 0.950 . S
C1932 C1931 1.524 . S
C1932 C1933 1.415 . S
C1933 H1903 0.950 . S
C1933 C1928 1.363 . S
C1933 C1932 1.415 . S
H1934 C1931 0.999 . S
H1935 C1916 0.913 . S
H1936 C1954 0.951 . S
H1937 C1956 0.951 . S
H1938 C1958 0.950 . S
H1939 C1959 0.950 . S
H1940 C1961 0.950 . S
H1941 C1964 0.950 . S
H1942 C1965 0.950 . S
H1943 C1967 0.950 . S
H1944 C1968 0.950 1_556 S
H1945 C1969 0.951 . S
H1946 C1971 0.951 . S
H1947 C1973 0.950 . S
H1948 C1974 0.950 . S
H1949 C1976 0.950 . S
H1950 C1979 0.950 . S
H1951 C1980 0.950 . S
H1952 C1982 0.950 . S
H1953 C1983 0.950 1_554 S
C1954 H1936 0.951 . S
C1954 C1955 1.366 . S
C1954 C1956 1.388 . S
C1955 C1954 1.366 . S
C1955 C1959 1.385 . S
C1956 H1937 0.951 . S
C1956 C1954 1.388 . S
C1956 C1957 1.366 . S
C1957 C1956 1.366 . S
C1957 C1958 1.414 . S
C1957 C1960 1.499 . S
C1958 H1938 0.950 . S
C1958 C1957 1.414 . S
C1958 C1959 1.374 . S
C1959 H1939 0.950 . S
C1959 C1955 1.385 . S
C1959 C1958 1.374 . S
C1960 C1957 1.499 . S
C1960 C1961 1.373 1_655 S
C1960 C1962 1.389 . S
C1961 H1940 0.950 . S
C1961 C1960 1.373 1_455 S
C1961 C1977 1.377 1_554 S
C1962 C1960 1.389 . S
C1962 C1963 1.524 . S
C1962 C1976 1.377 1_554 S
C1963 C1962 1.524 . S
C1963 C1964 1.397 . S
C1963 C1968 1.363 . S
C1964 H1941 0.950 . S
C1964 C1963 1.397 . S
C1964 C1965 1.334 . S
C1965 H1942 0.950 . S
C1965 C1964 1.334 . S
C1965 C1966 1.287 . S
C1966 C1965 1.287 . S
C1966 C1967 1.524 . S
C1966 H1985 0.913 . S
C1967 H1943 0.950 . S
C1967 C1966 1.524 . S
C1967 C1968 1.415 . S
C1968 H1944 0.950 1_554 S
C1968 C1963 1.363 . S
C1968 C1967 1.415 . S
C1969 H1945 0.951 . S
C1969 C1970 1.366 . S
C1969 C1971 1.388 . S
C1970 C1969 1.366 . S
C1970 C1974 1.385 . S
C1971 H1946 0.951 . S
C1971 C1969 1.388 . S
C1971 C1972 1.366 . S
C1972 C1971 1.366 . S
C1972 C1973 1.414 . S
C1972 C1975 1.499 . S
C1973 H1947 0.950 . S
C1973 C1972 1.414 . S
C1973 C1974 1.374 . S
C1974 H1948 0.950 . S
C1974 C1970 1.385 . S
C1974 C1973 1.374 . S
C1975 C1972 1.499 . S
C1975 C1976 1.373 1_455 S
C1975 C1977 1.389 . S
C1976 H1949 0.950 . S
C1976 C1962 1.377 1_556 S
C1976 C1975 1.373 1_655 S
C1977 C1961 1.377 1_556 S
C1977 C1975 1.389 . S
C1977 C1978 1.524 . S
C1978 C1977 1.524 . S
C1978 C1979 1.397 . S
C1978 C1983 1.363 . S
C1979 H1950 0.950 . S
C1979 C1978 1.397 . S
C1979 C1980 1.334 . S
C1980 H1951 0.950 . S
C1980 C1979 1.334 . S
C1980 C1981 1.287 . S
C1981 C1980 1.287 . S
C1981 C1982 1.524 . S
C1981 H1984 0.999 . S
C1982 H1952 0.950 . S
C1982 C1981 1.524 . S
C1982 C1983 1.415 . S
C1983 H1953 0.950 1_556 S
C1983 C1978 1.363 . S
C1983 C1982 1.415 . S
H1984 C1981 0.999 . S
H1985 C1966 0.913 . S
H1986 C2004 0.951 . S
H1987 C2006 0.951 1_545 S
H1988 C2008 0.950 . S
H1989 C2009 0.950 . S
H1990 C2011 0.967 . S
H1991 C2014 0.950 . S
H1992 C2015 0.950 . S
H1993 C2017 0.950 . S
H1994 C2018 0.950 1_545 S
H1995 C2019 0.951 . S
H1996 C2021 0.951 1_565 S
H1997 C2023 0.950 . S
H1998 C2024 0.950 . S
H1999 C2026 0.967 . S
H2000 C2029 0.950 . S
H2001 C2030 0.950 . S
H2002 C2032 0.950 . S
H2003 C2033 0.950 1_565 S
C2004 H1986 0.951 . S
C2004 C2005 1.366 . S
C2004 C2006 1.388 . S
C2005 C2004 1.366 . S
C2005 C2009 1.385 . S
C2006 H1987 0.951 1_565 S
C2006 C2004 1.388 . S
C2006 C2007 1.366 . S
C2007 C2006 1.366 . S
C2007 C2008 1.414 . S
C2007 C2010 1.499 . S
C2008 H1988 0.950 . S
C2008 C2007 1.414 . S
C2008 C2009 1.374 . S
C2009 H1989 0.950 . S
C2009 C2005 1.385 . S
C2009 C2008 1.374 . S
C2010 C2007 1.499 . S
C2010 C2011 1.367 . S
C2010 C2012 1.389 . S
C2011 H1990 0.967 . S
C2011 C2010 1.367 . S
C2011 C2027 1.367 1_565 S
C2012 C2010 1.389 . S
C2012 C2013 1.524 . S
C2012 C2026 1.367 1_565 S
C2013 C2012 1.524 . S
C2013 C2014 1.397 . S
C2013 C2018 1.363 . S
C2014 H1991 0.950 . S
C2014 C2013 1.397 . S
C2014 C2015 1.334 . S
C2015 H1992 0.950 . S
C2015 C2014 1.334 . S
C2015 C2016 1.287 . S
C2016 C2015 1.287 . S
C2016 C2017 1.524 . S
C2016 H2035 0.913 . S
C2017 H1993 0.950 . S
C2017 C2016 1.524 . S
C2017 C2018 1.415 . S
C2018 H1994 0.950 1_565 S
C2018 C2013 1.363 . S
C2018 C2017 1.415 . S
C2019 H1995 0.951 . S
C2019 C2020 1.366 . S
C2019 C2021 1.388 . S
C2020 C2019 1.366 . S
C2020 C2024 1.385 . S
C2021 H1996 0.951 1_545 S
C2021 C2019 1.388 . S
C2021 C2022 1.366 . S
C2022 C2021 1.366 . S
C2022 C2023 1.414 . S
C2022 C2025 1.499 . S
C2023 H1997 0.950 . S
C2023 C2022 1.414 . S
C2023 C2024 1.374 . S
C2024 H1998 0.950 . S
C2024 C2020 1.385 . S
C2024 C2023 1.374 . S
C2025 C2022 1.499 . S
C2025 C2026 1.367 . S
C2025 C2027 1.389 . S
C2026 H1999 0.967 . S
C2026 C2012 1.367 1_545 S
C2026 C2025 1.367 . S
C2027 C2011 1.367 1_545 S
C2027 C2025 1.389 . S
C2027 C2028 1.524 . S
C2028 C2027 1.524 . S
C2028 C2029 1.397 . S
C2028 C2033 1.363 . S
C2029 H2000 0.950 . S
C2029 C2028 1.397 . S
C2029 C2030 1.334 . S
C2030 H2001 0.950 . S
C2030 C2029 1.334 . S
C2030 C2031 1.287 . S
C2031 C2030 1.287 . S
C2031 C2032 1.524 . S
C2031 H2034 0.999 . S
C2032 H2002 0.950 . S
C2032 C2031 1.524 . S
C2032 C2033 1.415 . S
C2033 H2003 0.950 1_545 S
C2033 C2028 1.363 . S
C2033 C2032 1.415 . S
H2034 C2031 0.999 . S
H2035 C2016 0.913 . S
H2036 C2054 0.951 . S
H2037 C2056 0.951 . S
H2038 C2058 0.950 . S
H2039 C2059 0.950 . S
H2040 C2061 0.950 . S
H2041 C2064 0.950 . S
H2042 C2065 0.950 . S
H2043 C2067 0.950 . S
H2044 C2068 0.950 . S
H2045 C2069 0.951 . S
H2046 C2071 0.951 . S
H2047 C2073 0.950 . S
H2048 C2074 0.950 . S
H2049 C2076 0.950 . S
H2050 C2079 0.950 . S
H2051 C2080 0.950 . S
H2052 C2082 0.950 . S
H2053 C2083 0.950 . S
C2054 H2036 0.951 . S
C2054 C2055 1.366 . S
C2054 C2056 1.388 . S
C2055 C2054 1.366 . S
C2055 C2059 1.385 . S
C2056 H2037 0.951 . S
C2056 C2054 1.388 . S
C2056 C2057 1.366 . S
C2057 C2056 1.366 . S
C2057 C2058 1.414 . S
C2057 C2060 1.499 . S
C2058 H2038 0.950 . S
C2058 C2057 1.414 . S
C2058 C2059 1.374 . S
C2059 H2039 0.950 . S
C2059 C2055 1.385 . S
C2059 C2058 1.374 . S
C2060 C2057 1.499 . S
C2060 C2061 1.373 . S
C2060 C2062 1.389 . S
C2061 H2040 0.950 . S
C2061 C2060 1.373 . S
C2061 C2077 1.377 1_554 S
C2062 C2060 1.389 . S
C2062 C2063 1.524 . S
C2062 C2076 1.377 1_554 S
C2063 C2062 1.524 . S
C2063 C2064 1.397 . S
C2063 C2068 1.363 . S
C2064 H2041 0.950 . S
C2064 C2063 1.397 . S
C2064 C2065 1.334 . S
C2065 H2042 0.950 . S
C2065 C2064 1.334 . S
C2065 C2066 1.287 . S
C2066 C2065 1.287 . S
C2066 C2067 1.524 . S
C2066 H2085 0.913 . S
C2067 H2043 0.950 . S
C2067 C2066 1.524 . S
C2067 C2068 1.415 . S
C2068 H2044 0.950 . S
C2068 C2063 1.363 . S
C2068 C2067 1.415 . S
C2069 H2045 0.951 . S
C2069 C2070 1.366 . S
C2069 C2071 1.388 . S
C2070 C2069 1.366 . S
C2070 C2074 1.385 . S
C2071 H2046 0.951 . S
C2071 C2069 1.388 . S
C2071 C2072 1.366 . S
C2072 C2071 1.366 . S
C2072 C2073 1.414 . S
C2072 C2075 1.499 . S
C2073 H2047 0.950 . S
C2073 C2072 1.414 . S
C2073 C2074 1.374 . S
C2074 H2048 0.950 . S
C2074 C2070 1.385 . S
C2074 C2073 1.374 . S
C2075 C2072 1.499 . S
C2075 C2076 1.373 . S
C2075 C2077 1.389 . S
C2076 H2049 0.950 . S
C2076 C2062 1.377 1_556 S
C2076 C2075 1.373 . S
C2077 C2061 1.377 1_556 S
C2077 C2075 1.389 . S
C2077 C2078 1.524 . S
C2078 C2077 1.524 . S
C2078 C2079 1.397 . S
C2078 C2083 1.363 . S
C2079 H2050 0.950 . S
C2079 C2078 1.397 . S
C2079 C2080 1.334 . S
C2080 H2051 0.950 . S
C2080 C2079 1.334 . S
C2080 C2081 1.287 . S
C2081 C2080 1.287 . S
C2081 C2082 1.524 . S
C2081 H2084 0.999 . S
C2082 H2052 0.950 . S
C2082 C2081 1.524 . S
C2082 C2083 1.415 . S
C2083 H2053 0.950 . S
C2083 C2078 1.363 . S
C2083 C2082 1.415 . S
H2084 C2081 0.999 . S
H2085 C2066 0.913 . S
H2086 C2104 0.951 . S
H2087 C2106 0.951 . S
H2088 C2108 0.950 . S
H2089 C2109 0.950 . S
H2090 C2111 0.950 . S
H2091 C2114 0.950 . S
H2092 C2115 0.950 . S
H2093 C2117 0.950 . S
H2094 C2118 0.950 . S
H2095 C2119 0.951 . S
H2096 C2121 0.951 . S
H2097 C2123 0.950 . S
H2098 C2124 0.950 . S
H2099 C2126 0.950 . S
H2100 C2129 0.950 . S
H2101 C2130 0.950 . S
H2102 C2132 0.950 . S
H2103 C2133 0.950 . S
C2104 H2086 0.951 . S
C2104 C2105 1.366 . S
C2104 C2106 1.388 . S
C2105 C2104 1.366 . S
C2105 C2109 1.385 . S
C2106 H2087 0.951 . S
C2106 C2104 1.388 . S
C2106 C2107 1.366 . S
C2107 C2106 1.366 . S
C2107 C2108 1.414 . S
C2107 C2110 1.499 . S
C2108 H2088 0.950 . S
C2108 C2107 1.414 . S
C2108 C2109 1.374 . S
C2109 H2089 0.950 . S
C2109 C2105 1.385 . S
C2109 C2108 1.374 . S
C2110 C2107 1.499 . S
C2110 C2111 1.373 1_455 S
C2110 C2112 1.389 . S
C2111 H2090 0.950 . S
C2111 C2110 1.373 1_655 S
C2111 C2127 1.377 . S
C2112 C2110 1.389 . S
C2112 C2113 1.524 . S
C2112 C2126 1.377 . S
C2113 C2112 1.524 . S
C2113 C2114 1.397 . S
C2113 C2118 1.363 . S
C2114 H2091 0.950 . S
C2114 C2113 1.397 . S
C2114 C2115 1.334 . S
C2115 H2092 0.950 . S
C2115 C2114 1.334 . S
C2115 C2116 1.287 . S
C2116 C2115 1.287 . S
C2116 C2117 1.524 . S
C2116 H2135 0.913 . S
C2117 H2093 0.950 . S
C2117 C2116 1.524 . S
C2117 C2118 1.415 . S
C2118 H2094 0.950 . S
C2118 C2113 1.363 . S
C2118 C2117 1.415 . S
C2119 H2095 0.951 . S
C2119 C2120 1.366 . S
C2119 C2121 1.388 . S
C2120 C2119 1.366 . S
C2120 C2124 1.385 . S
C2121 H2096 0.951 . S
C2121 C2119 1.388 . S
C2121 C2122 1.366 . S
C2122 C2121 1.366 . S
C2122 C2123 1.414 . S
C2122 C2125 1.499 . S
C2123 H2097 0.950 . S
C2123 C2122 1.414 . S
C2123 C2124 1.374 . S
C2124 H2098 0.950 . S
C2124 C2120 1.385 . S
C2124 C2123 1.374 . S
C2125 C2122 1.499 . S
C2125 C2126 1.373 1_655 S
C2125 C2127 1.389 . S
C2126 H2099 0.950 . S
C2126 C2112 1.377 . S
C2126 C2125 1.373 1_455 S
C2127 C2111 1.377 . S
C2127 C2125 1.389 . S
C2127 C2128 1.524 . S
C2128 C2127 1.524 . S
C2128 C2129 1.397 . S
C2128 C2133 1.363 . S
C2129 H2100 0.950 . S
C2129 C2128 1.397 . S
C2129 C2130 1.334 . S
C2130 H2101 0.950 . S
C2130 C2129 1.334 . S
C2130 C2131 1.287 . S
C2131 C2130 1.287 . S
C2131 C2132 1.524 . S
C2131 H2134 0.999 . S
C2132 H2102 0.950 . S
C2132 C2131 1.524 . S
C2132 C2133 1.415 . S
C2133 H2103 0.950 . S
C2133 C2128 1.363 . S
C2133 C2132 1.415 . S
H2134 C2131 0.999 . S
H2135 C2116 0.913 . S
H2136 C2154 0.951 . S
H2137 C2156 0.951 . S
H2138 C2158 0.950 . S
H2139 C2159 0.950 . S
H2140 C2161 0.950 . S
H2141 C2164 0.950 . S
H2142 C2165 0.950 . S
H2143 C2167 0.950 . S
H2144 C2168 0.950 . S
H2145 C2169 0.951 . S
H2146 C2171 0.951 . S
H2147 C2173 0.950 . S
H2148 C2174 0.950 . S
H2149 C2176 0.950 . S
H2150 C2179 0.950 . S
H2151 C2180 0.950 . S
H2152 C2182 0.950 . S
H2153 C2183 0.950 . S
C2154 H2136 0.951 . S
C2154 C2155 1.366 . S
C2154 C2156 1.388 . S
C2155 C2154 1.366 . S
C2155 C2159 1.385 . S
C2156 H2137 0.951 . S
C2156 C2154 1.388 . S
C2156 C2157 1.366 . S
C2157 C2156 1.366 . S
C2157 C2158 1.414 . S
C2157 C2160 1.499 . S
C2158 H2138 0.950 . S
C2158 C2157 1.414 . S
C2158 C2159 1.374 . S
C2159 H2139 0.950 . S
C2159 C2155 1.385 . S
C2159 C2158 1.374 . S
C2160 C2157 1.499 . S
C2160 C2161 1.373 . S
C2160 C2162 1.389 . S
C2161 H2140 0.950 . S
C2161 C2160 1.373 . S
C2161 C2177 1.377 . S
C2162 C2160 1.389 . S
C2162 C2163 1.524 . S
C2162 C2176 1.377 . S
C2163 C2162 1.524 . S
C2163 C2164 1.397 . S
C2163 C2168 1.363 . S
C2164 H2141 0.950 . S
C2164 C2163 1.397 . S
C2164 C2165 1.334 . S
C2165 H2142 0.950 . S
C2165 C2164 1.334 . S
C2165 C2166 1.287 . S
C2166 C2165 1.287 . S
C2166 C2167 1.524 . S
C2166 H2185 0.913 . S
C2167 H2143 0.950 . S
C2167 C2166 1.524 . S
C2167 C2168 1.415 . S
C2168 H2144 0.950 . S
C2168 C2163 1.363 . S
C2168 C2167 1.415 . S
C2169 H2145 0.951 . S
C2169 C2170 1.366 . S
C2169 C2171 1.388 . S
C2170 C2169 1.366 . S
C2170 C2174 1.385 . S
C2171 H2146 0.951 . S
C2171 C2169 1.388 . S
C2171 C2172 1.366 . S
C2172 C2171 1.366 . S
C2172 C2173 1.414 . S
C2172 C2175 1.499 . S
C2173 H2147 0.950 . S
C2173 C2172 1.414 . S
C2173 C2174 1.374 . S
C2174 H2148 0.950 . S
C2174 C2170 1.385 . S
C2174 C2173 1.374 . S
C2175 C2172 1.499 . S
C2175 C2176 1.373 . S
C2175 C2177 1.389 . S
C2176 H2149 0.950 . S
C2176 C2162 1.377 . S
C2176 C2175 1.373 . S
C2177 C2161 1.377 . S
C2177 C2175 1.389 . S
C2177 C2178 1.524 . S
C2178 C2177 1.524 . S
C2178 C2179 1.397 . S
C2178 C2183 1.363 . S
C2179 H2150 0.950 . S
C2179 C2178 1.397 . S
C2179 C2180 1.334 . S
C2180 H2151 0.950 . S
C2180 C2179 1.334 . S
C2180 C2181 1.287 . S
C2181 C2180 1.287 . S
C2181 C2182 1.524 . S
C2181 H2184 0.999 . S
C2182 H2152 0.950 . S
C2182 C2181 1.524 . S
C2182 C2183 1.415 . S
C2183 H2153 0.950 . S
C2183 C2178 1.363 . S
C2183 C2182 1.415 . S
H2184 C2181 0.999 . S
H2185 C2166 0.913 . S
H2186 C2204 0.951 . S
H2187 C2206 0.951 . S
H2188 C2208 0.950 . S
H2189 C2209 0.950 . S
H2190 C2211 0.950 . S
H2191 C2214 0.950 . S
H2192 C2215 0.950 . S
H2193 C2217 0.950 . S
H2194 C2218 0.950 . S
H2195 C2219 0.951 . S
H2196 C2221 0.951 . S
H2197 C2223 0.950 . S
H2198 C2224 0.950 . S
H2199 C2226 0.950 . S
H2200 C2229 0.950 . S
H2201 C2230 0.950 . S
H2202 C2232 0.950 . S
H2203 C2233 0.950 . S
C2204 H2186 0.951 . S
C2204 C2205 1.366 . S
C2204 C2206 1.388 . S
C2205 C2204 1.366 . S
C2205 C2209 1.385 . S
C2206 H2187 0.951 . S
C2206 C2204 1.388 . S
C2206 C2207 1.366 . S
C2207 C2206 1.366 . S
C2207 C2208 1.414 . S
C2207 C2210 1.499 . S
C2208 H2188 0.950 . S
C2208 C2207 1.414 . S
C2208 C2209 1.374 . S
C2209 H2189 0.950 . S
C2209 C2205 1.385 . S
C2209 C2208 1.374 . S
C2210 C2207 1.499 . S
C2210 C2211 1.373 . S
C2210 C2212 1.389 . S
C2211 H2190 0.950 . S
C2211 C2210 1.373 . S
C2211 C2227 1.377 . S
C2212 C2210 1.389 . S
C2212 C2213 1.524 . S
C2212 C2226 1.377 . S
C2213 C2212 1.524 . S
C2213 C2214 1.397 . S
C2213 C2218 1.363 . S
C2214 H2191 0.950 . S
C2214 C2213 1.397 . S
C2214 C2215 1.334 . S
C2215 H2192 0.950 . S
C2215 C2214 1.334 . S
C2215 C2216 1.287 . S
C2216 C2215 1.287 . S
C2216 C2217 1.524 . S
C2216 H2235 0.913 . S
C2217 H2193 0.950 . S
C2217 C2216 1.524 . S
C2217 C2218 1.415 . S
C2218 H2194 0.950 . S
C2218 C2213 1.363 . S
C2218 C2217 1.415 . S
C2219 H2195 0.951 . S
C2219 C2220 1.366 . S
C2219 C2221 1.388 . S
C2220 C2219 1.366 . S
C2220 C2224 1.385 . S
C2221 H2196 0.951 . S
C2221 C2219 1.388 . S
C2221 C2222 1.366 . S
C2222 C2221 1.366 . S
C2222 C2223 1.414 . S
C2222 C2225 1.499 . S
C2223 H2197 0.950 . S
C2223 C2222 1.414 . S
C2223 C2224 1.374 . S
C2224 H2198 0.950 . S
C2224 C2220 1.385 . S
C2224 C2223 1.374 . S
C2225 C2222 1.499 . S
C2225 C2226 1.373 . S
C2225 C2227 1.389 . S
C2226 H2199 0.950 . S
C2226 C2212 1.377 . S
C2226 C2225 1.373 . S
C2227 C2211 1.377 . S
C2227 C2225 1.389 . S
C2227 C2228 1.524 . S
C2228 C2227 1.524 . S
C2228 C2229 1.397 . S
C2228 C2233 1.363 . S
C2229 H2200 0.950 . S
C2229 C2228 1.397 . S
C2229 C2230 1.334 . S
C2230 H2201 0.950 . S
C2230 C2229 1.334 . S
C2230 C2231 1.287 . S
C2231 C2230 1.287 . S
C2231 C2232 1.524 . S
C2231 H2234 0.999 . S
C2232 H2202 0.950 . S
C2232 C2231 1.524 . S
C2232 C2233 1.415 . S
C2233 H2203 0.950 . S
C2233 C2228 1.363 . S
C2233 C2232 1.415 . S
H2234 C2231 0.999 . S
H2235 C2216 0.913 . S
H2236 C2254 0.951 . S
H2237 C2256 0.951 . S
H2238 C2258 0.950 . S
H2239 C2259 0.950 . S
H2240 C2261 0.950 . S
H2241 C2264 0.950 . S
H2242 C2265 0.950 . S
H2243 C2267 0.950 . S
H2244 C2268 0.950 . S
H2245 C2269 0.951 . S
H2246 C2271 0.951 . S
H2247 C2273 0.950 . S
H2248 C2274 0.950 . S
H2249 C2276 0.950 . S
H2250 C2279 0.950 . S
H2251 C2280 0.950 . S
H2252 C2282 0.950 . S
H2253 C2283 0.950 1_455 S
C2254 H2236 0.951 . S
C2254 C2255 1.366 . S
C2254 C2256 1.388 . S
C2255 C2254 1.366 . S
C2255 C2259 1.385 . S
C2256 H2237 0.951 . S
C2256 C2254 1.388 . S
C2256 C2257 1.366 . S
C2257 C2256 1.366 . S
C2257 C2258 1.414 . S
C2257 C2260 1.499 . S
C2258 H2238 0.950 . S
C2258 C2257 1.414 . S
C2258 C2259 1.374 . S
C2259 H2239 0.950 . S
C2259 C2255 1.385 . S
C2259 C2258 1.374 . S
C2260 C2257 1.499 . S
C2260 C2261 1.373 . S
C2260 C2262 1.389 . S
C2261 H2240 0.950 . S
C2261 C2260 1.373 . S
C2261 C2277 1.377 . S
C2262 C2260 1.389 . S
C2262 C2263 1.524 . S
C2262 C2276 1.377 . S
C2263 C2262 1.524 . S
C2263 C2264 1.397 . S
C2263 C2268 1.363 . S
C2264 H2241 0.950 . S
C2264 C2263 1.397 . S
C2264 C2265 1.334 . S
C2265 H2242 0.950 . S
C2265 C2264 1.334 . S
C2265 C2266 1.287 . S
C2266 C2265 1.287 . S
C2266 C2267 1.524 . S
C2266 H2285 0.913 . S
C2267 H2243 0.950 . S
C2267 C2266 1.524 . S
C2267 C2268 1.415 . S
C2268 H2244 0.950 . S
C2268 C2263 1.363 . S
C2268 C2267 1.415 . S
C2269 H2245 0.951 . S
C2269 C2270 1.366 . S
C2269 C2271 1.388 . S
C2270 C2269 1.366 . S
C2270 C2274 1.385 . S
C2271 H2246 0.951 . S
C2271 C2269 1.388 . S
C2271 C2272 1.366 . S
C2272 C2271 1.366 . S
C2272 C2273 1.414 . S
C2272 C2275 1.499 . S
C2273 H2247 0.950 . S
C2273 C2272 1.414 . S
C2273 C2274 1.374 . S
C2274 H2248 0.950 . S
C2274 C2270 1.385 . S
C2274 C2273 1.374 . S
C2275 C2272 1.499 . S
C2275 C2276 1.373 . S
C2275 C2277 1.389 . S
C2276 H2249 0.950 . S
C2276 C2262 1.377 . S
C2276 C2275 1.373 . S
C2277 C2261 1.377 . S
C2277 C2275 1.389 . S
C2277 C2278 1.524 . S
C2278 C2277 1.524 . S
C2278 C2279 1.397 . S
C2278 C2283 1.363 . S
C2279 H2250 0.950 . S
C2279 C2278 1.397 . S
C2279 C2280 1.334 . S
C2280 H2251 0.950 . S
C2280 C2279 1.334 . S
C2280 C2281 1.287 . S
C2281 C2280 1.287 . S
C2281 C2282 1.524 1_655 S
C2281 H2284 0.999 . S
C2282 H2252 0.950 . S
C2282 C2281 1.524 1_455 S
C2282 C2283 1.415 1_455 S
C2283 H2253 0.950 1_655 S
C2283 C2278 1.363 . S
C2283 C2282 1.415 1_655 S
H2284 C2281 0.999 . S
H2285 C2266 0.913 . S
H2286 C2304 0.951 . S
H2287 C2306 0.951 . S
H2288 C2308 0.950 . S
H2289 C2309 0.950 . S
H2290 C2311 0.950 . S
H2291 C2314 0.950 . S
H2292 C2315 0.950 . S
H2293 C2317 0.950 1_545 S
H2294 C2318 0.950 . S
H2295 C2319 0.951 . S
H2296 C2321 0.951 . S
H2297 C2323 0.950 . S
H2298 C2324 0.950 . S
H2299 C2326 0.950 . S
H2300 C2329 0.950 . S
H2301 C2330 0.950 . S
H2302 C2332 0.950 . S
H2303 C2333 0.950 . S
C2304 H2286 0.951 . S
C2304 C2305 1.366 . S
C2304 C2306 1.388 . S
C2305 C2304 1.366 . S
C2305 C2309 1.385 . S
C2306 H2287 0.951 . S
C2306 C2304 1.388 . S
C2306 C2307 1.366 . S
C2307 C2306 1.366 . S
C2307 C2308 1.414 . S
C2307 C2310 1.499 . S
C2308 H2288 0.950 . S
C2308 C2307 1.414 . S
C2308 C2309 1.374 . S
C2309 H2289 0.950 . S
C2309 C2305 1.385 . S
C2309 C2308 1.374 . S
C2310 C2307 1.499 . S
C2310 C2311 1.373 . S
C2310 C2312 1.389 . S
C2311 H2290 0.950 . S
C2311 C2310 1.373 . S
C2311 C2327 1.377 . S
C2312 C2310 1.389 . S
C2312 C2313 1.524 . S
C2312 C2326 1.377 . S
C2313 C2312 1.524 . S
C2313 C2314 1.397 . S
C2313 C2318 1.363 . S
C2314 H2291 0.950 . S
C2314 C2313 1.397 . S
C2314 C2315 1.334 . S
C2315 H2292 0.950 . S
C2315 C2314 1.334 . S
C2315 C2316 1.287 . S
C2316 C2315 1.287 . S
C2316 C2317 1.524 . S
C2316 H2335 0.913 . S
C2317 H2293 0.950 1_565 S
C2317 C2316 1.524 . S
C2317 C2318 1.415 . S
C2318 H2294 0.950 . S
C2318 C2313 1.363 . S
C2318 C2317 1.415 . S
C2319 H2295 0.951 . S
C2319 C2320 1.366 . S
C2319 C2321 1.388 . S
C2320 C2319 1.366 . S
C2320 C2324 1.385 . S
C2321 H2296 0.951 . S
C2321 C2319 1.388 . S
C2321 C2322 1.366 . S
C2322 C2321 1.366 . S
C2322 C2323 1.414 . S
C2322 C2325 1.499 . S
C2323 H2297 0.950 . S
C2323 C2322 1.414 . S
C2323 C2324 1.374 . S
C2324 H2298 0.950 . S
C2324 C2320 1.385 . S
C2324 C2323 1.374 . S
C2325 C2322 1.499 . S
C2325 C2326 1.373 . S
C2325 C2327 1.389 . S
C2326 H2299 0.950 . S
C2326 C2312 1.377 . S
C2326 C2325 1.373 . S
C2327 C2311 1.377 . S
C2327 C2325 1.389 . S
C2327 C2328 1.524 . S
C2328 C2327 1.524 . S
C2328 C2329 1.397 . S
C2328 C2333 1.363 . S
C2329 H2300 0.950 . S
C2329 C2328 1.397 . S
C2329 C2330 1.334 . S
C2330 H2301 0.950 . S
C2330 C2329 1.334 . S
C2330 C2331 1.287 . S
C2331 C2330 1.287 . S
C2331 C2332 1.524 . S
C2331 H2334 0.999 . S
C2332 H2302 0.950 . S
C2332 C2331 1.524 . S
C2332 C2333 1.415 . S
C2333 H2303 0.950 . S
C2333 C2328 1.363 . S
C2333 C2332 1.415 . S
H2334 C2331 0.999 . S
H2335 C2316 0.913 . S
H2336 C2354 0.951 . S
H2337 C2356 0.951 . S
H2338 C2358 0.950 . S
H2339 C2359 0.950 . S
H2340 C2361 0.950 . S
H2341 C2364 0.950 . S
H2342 C2365 0.950 . S
H2343 C2367 0.950 . S
H2344 C2368 0.950 . S
H2345 C2369 0.951 . S
H2346 C2371 0.951 . S
H2347 C2373 0.950 . S
H2348 C2374 0.950 . S
H2349 C2376 0.950 . S
H2350 C2379 0.950 . S
H2351 C2380 0.950 . S
H2352 C2382 0.950 . S
H2353 C2383 0.950 . S
C2354 H2336 0.951 . S
C2354 C2355 1.366 . S
C2354 C2356 1.388 . S
C2355 C2354 1.366 . S
C2355 C2359 1.385 . S
C2356 H2337 0.951 . S
C2356 C2354 1.388 . S
C2356 C2357 1.366 . S
C2357 C2356 1.366 . S
C2357 C2358 1.414 . S
C2357 C2360 1.499 . S
C2358 H2338 0.950 . S
C2358 C2357 1.414 . S
C2358 C2359 1.374 . S
C2359 H2339 0.950 . S
C2359 C2355 1.385 . S
C2359 C2358 1.374 . S
C2360 C2357 1.499 . S
C2360 C2361 1.373 . S
C2360 C2362 1.389 . S
C2361 H2340 0.950 . S
C2361 C2360 1.373 . S
C2361 C2377 1.377 . S
C2362 C2360 1.389 . S
C2362 C2363 1.524 . S
C2362 C2376 1.377 . S
C2363 C2362 1.524 . S
C2363 C2364 1.397 . S
C2363 C2368 1.363 . S
C2364 H2341 0.950 . S
C2364 C2363 1.397 . S
C2364 C2365 1.334 . S
C2365 H2342 0.950 . S
C2365 C2364 1.334 . S
C2365 C2366 1.287 . S
C2366 C2365 1.287 . S
C2366 C2367 1.524 . S
C2366 H2385 0.913 . S
C2367 H2343 0.950 . S
C2367 C2366 1.524 . S
C2367 C2368 1.415 . S
C2368 H2344 0.950 . S
C2368 C2363 1.363 . S
C2368 C2367 1.415 . S
C2369 H2345 0.951 . S
C2369 C2370 1.366 . S
C2369 C2371 1.388 . S
C2370 C2369 1.366 . S
C2370 C2374 1.385 . S
C2371 H2346 0.951 . S
C2371 C2369 1.388 . S
C2371 C2372 1.366 . S
C2372 C2371 1.366 . S
C2372 C2373 1.414 . S
C2372 C2375 1.499 . S
C2373 H2347 0.950 . S
C2373 C2372 1.414 . S
C2373 C2374 1.374 . S
C2374 H2348 0.950 . S
C2374 C2370 1.385 . S
C2374 C2373 1.374 . S
C2375 C2372 1.499 . S
C2375 C2376 1.373 . S
C2375 C2377 1.389 . S
C2376 H2349 0.950 . S
C2376 C2362 1.377 . S
C2376 C2375 1.373 . S
C2377 C2361 1.377 . S
C2377 C2375 1.389 . S
C2377 C2378 1.524 . S
C2378 C2377 1.524 . S
C2378 C2379 1.397 . S
C2378 C2383 1.363 . S
C2379 H2350 0.950 . S
C2379 C2378 1.397 . S
C2379 C2380 1.334 . S
C2380 H2351 0.950 . S
C2380 C2379 1.334 . S
C2380 C2381 1.287 . S
C2381 C2380 1.287 . S
C2381 C2382 1.524 . S
C2381 H2384 0.999 . S
C2382 H2352 0.950 . S
C2382 C2381 1.524 . S
C2382 C2383 1.415 . S
C2383 H2353 0.950 . S
C2383 C2378 1.363 . S
C2383 C2382 1.415 . S
H2384 C2381 0.999 . S
H2385 C2366 0.913 . S
H2386 C2404 0.951 . S
H2387 C2406 0.951 . S
H2388 C2408 0.950 . S
H2389 C2409 0.950 . S
H2390 C2411 0.950 . S
H2391 C2414 0.950 . S
H2392 C2415 0.950 . S
H2393 C2417 0.950 1_655 S
H2394 C2418 0.950 . S
H2395 C2419 0.951 . S
H2396 C2421 0.951 . S
H2397 C2423 0.950 . S
H2398 C2424 0.950 . S
H2399 C2426 0.950 . S
H2400 C2429 0.950 . S
H2401 C2430 0.950 . S
H2402 C2432 0.950 . S
H2403 C2433 0.950 . S
C2404 H2386 0.951 . S
C2404 C2405 1.366 . S
C2404 C2406 1.388 . S
C2405 C2404 1.366 . S
C2405 C2409 1.385 . S
C2406 H2387 0.951 . S
C2406 C2404 1.388 . S
C2406 C2407 1.366 . S
C2407 C2406 1.366 . S
C2407 C2408 1.414 . S
C2407 C2410 1.499 . S
C2408 H2388 0.950 . S
C2408 C2407 1.414 . S
C2408 C2409 1.374 . S
C2409 H2389 0.950 . S
C2409 C2405 1.385 . S
C2409 C2408 1.374 . S
C2410 C2407 1.499 . S
C2410 C2411 1.373 . S
C2410 C2412 1.389 . S
C2411 H2390 0.950 . S
C2411 C2410 1.373 . S
C2411 C2427 1.377 . S
C2412 C2410 1.389 . S
C2412 C2413 1.524 . S
C2412 C2426 1.377 . S
C2413 C2412 1.524 . S
C2413 C2414 1.397 . S
C2413 C2418 1.363 . S
C2414 H2391 0.950 . S
C2414 C2413 1.397 . S
C2414 C2415 1.334 . S
C2415 H2392 0.950 . S
C2415 C2414 1.334 . S
C2415 C2416 1.287 . S
C2416 C2415 1.287 . S
C2416 C2417 1.524 . S
C2416 H2435 0.913 . S
C2417 H2393 0.950 1_455 S
C2417 C2416 1.524 . S
C2417 C2418 1.415 . S
C2418 H2394 0.950 . S
C2418 C2413 1.363 . S
C2418 C2417 1.415 . S
C2419 H2395 0.951 . S
C2419 C2420 1.366 . S
C2419 C2421 1.388 . S
C2420 C2419 1.366 . S
C2420 C2424 1.385 . S
C2421 H2396 0.951 . S
C2421 C2419 1.388 . S
C2421 C2422 1.366 . S
C2422 C2421 1.366 . S
C2422 C2423 1.414 . S
C2422 C2425 1.499 . S
C2423 H2397 0.950 . S
C2423 C2422 1.414 . S
C2423 C2424 1.374 . S
C2424 H2398 0.950 . S
C2424 C2420 1.385 . S
C2424 C2423 1.374 . S
C2425 C2422 1.499 . S
C2425 C2426 1.373 . S
C2425 C2427 1.389 . S
C2426 H2399 0.950 . S
C2426 C2412 1.377 . S
C2426 C2425 1.373 . S
C2427 C2411 1.377 . S
C2427 C2425 1.389 . S
C2427 C2428 1.524 . S
C2428 C2427 1.524 . S
C2428 C2429 1.397 . S
C2428 C2433 1.363 . S
C2429 H2400 0.950 . S
C2429 C2428 1.397 . S
C2429 C2430 1.334 . S
C2430 H2401 0.950 . S
C2430 C2429 1.334 . S
C2430 C2431 1.287 . S
C2431 C2430 1.287 . S
C2431 C2432 1.524 . S
C2431 H2434 0.999 . S
C2432 H2402 0.950 . S
C2432 C2431 1.524 . S
C2432 C2433 1.415 . S
C2433 H2403 0.950 . S
C2433 C2428 1.363 . S
C2433 C2432 1.415 . S
H2434 C2431 0.999 . S
H2435 C2416 0.913 . S
H2436 C2454 0.951 . S
H2437 C2456 0.951 . S
H2438 C2458 0.950 . S
H2439 C2459 0.950 . S
H2440 C2461 0.950 . S
H2441 C2464 0.950 . S
H2442 C2465 0.950 . S
H2443 C2467 0.950 . S
H2444 C2468 0.950 1_455 S
H2445 C2469 0.951 . S
H2446 C2471 0.951 . S
H2447 C2473 0.950 . S
H2448 C2474 0.950 . S
H2449 C2476 0.950 . S
H2450 C2479 0.950 . S
H2451 C2480 0.950 . S
H2452 C2482 0.950 . S
H2453 C2483 0.950 . S
C2454 H2436 0.951 . S
C2454 C2455 1.366 . S
C2454 C2456 1.388 . S
C2455 C2454 1.366 . S
C2455 C2459 1.385 . S
C2456 H2437 0.951 . S
C2456 C2454 1.388 . S
C2456 C2457 1.366 . S
C2457 C2456 1.366 . S
C2457 C2458 1.414 . S
C2457 C2460 1.499 . S
C2458 H2438 0.950 . S
C2458 C2457 1.414 . S
C2458 C2459 1.374 . S
C2459 H2439 0.950 . S
C2459 C2455 1.385 . S
C2459 C2458 1.374 . S
C2460 C2457 1.499 . S
C2460 C2461 1.373 . S
C2460 C2462 1.389 . S
C2461 H2440 0.950 . S
C2461 C2460 1.373 . S
C2461 C2477 1.377 . S
C2462 C2460 1.389 . S
C2462 C2463 1.524 . S
C2462 C2476 1.377 . S
C2463 C2462 1.524 . S
C2463 C2464 1.397 . S
C2463 C2468 1.363 . S
C2464 H2441 0.950 . S
C2464 C2463 1.397 . S
C2464 C2465 1.334 . S
C2465 H2442 0.950 . S
C2465 C2464 1.334 . S
C2465 C2466 1.287 . S
C2466 C2465 1.287 . S
C2466 C2467 1.524 1_655 S
C2466 H2485 0.913 . S
C2467 H2443 0.950 . S
C2467 C2466 1.524 1_455 S
C2467 C2468 1.415 1_455 S
C2468 H2444 0.950 1_655 S
C2468 C2463 1.363 . S
C2468 C2467 1.415 1_655 S
C2469 H2445 0.951 . S
C2469 C2470 1.366 . S
C2469 C2471 1.388 . S
C2470 C2469 1.366 . S
C2470 C2474 1.385 . S
C2471 H2446 0.951 . S
C2471 C2469 1.388 . S
C2471 C2472 1.366 . S
C2472 C2471 1.366 . S
C2472 C2473 1.414 . S
C2472 C2475 1.499 . S
C2473 H2447 0.950 . S
C2473 C2472 1.414 . S
C2473 C2474 1.374 . S
C2474 H2448 0.950 . S
C2474 C2470 1.385 . S
C2474 C2473 1.374 . S
C2475 C2472 1.499 . S
C2475 C2476 1.373 . S
C2475 C2477 1.389 . S
C2476 H2449 0.950 . S
C2476 C2462 1.377 . S
C2476 C2475 1.373 . S
C2477 C2461 1.377 . S
C2477 C2475 1.389 . S
C2477 C2478 1.524 . S
C2478 C2477 1.524 . S
C2478 C2479 1.397 . S
C2478 C2483 1.363 . S
C2479 H2450 0.950 . S
C2479 C2478 1.397 . S
C2479 C2480 1.334 . S
C2480 H2451 0.950 . S
C2480 C2479 1.334 . S
C2480 C2481 1.287 . S
C2481 C2480 1.287 . S
C2481 C2482 1.524 . S
C2481 H2484 0.999 . S
C2482 H2452 0.950 . S
C2482 C2481 1.524 . S
C2482 C2483 1.415 . S
C2483 H2453 0.950 . S
C2483 C2478 1.363 . S
C2483 C2482 1.415 . S
H2484 C2481 0.999 . S
H2485 C2466 0.913 . S
H2486 C2504 0.951 . S
H2487 C2506 0.951 . S
H2488 C2508 0.950 . S
H2489 C2509 0.950 . S
H2490 C2511 0.950 . S
H2491 C2514 0.950 . S
H2492 C2515 0.950 . S
H2493 C2517 0.950 . S
H2494 C2518 0.950 . S
H2495 C2519 0.951 . S
H2496 C2521 0.951 . S
H2497 C2523 0.950 . S
H2498 C2524 0.950 . S
H2499 C2526 0.950 . S
H2500 C2529 0.950 . S
H2501 C2530 0.950 . S
H2502 C2532 0.950 . S
H2503 C2533 0.950 . S
C2504 H2486 0.951 . S
C2504 C2505 1.366 . S
C2504 C2506 1.388 . S
C2505 C2504 1.366 . S
C2505 C2509 1.385 . S
C2506 H2487 0.951 . S
C2506 C2504 1.388 . S
C2506 C2507 1.366 . S
C2507 C2506 1.366 . S
C2507 C2508 1.414 . S
C2507 C2510 1.499 . S
C2508 H2488 0.950 . S
C2508 C2507 1.414 . S
C2508 C2509 1.374 . S
C2509 H2489 0.950 . S
C2509 C2505 1.385 . S
C2509 C2508 1.374 . S
C2510 C2507 1.499 . S
C2510 C2511 1.373 . S
C2510 C2512 1.389 . S
C2511 H2490 0.950 . S
C2511 C2510 1.373 . S
C2511 C2527 1.377 . S
C2512 C2510 1.389 . S
C2512 C2513 1.524 . S
C2512 C2526 1.377 . S
C2513 C2512 1.524 . S
C2513 C2514 1.397 . S
C2513 C2518 1.363 . S
C2514 H2491 0.950 . S
C2514 C2513 1.397 . S
C2514 C2515 1.334 . S
C2515 H2492 0.950 . S
C2515 C2514 1.334 . S
C2515 C2516 1.287 . S
C2516 C2515 1.287 . S
C2516 C2517 1.524 . S
C2516 H2535 0.913 . S
C2517 H2493 0.950 . S
C2517 C2516 1.524 . S
C2517 C2518 1.415 . S
C2518 H2494 0.950 . S
C2518 C2513 1.363 . S
C2518 C2517 1.415 . S
C2519 H2495 0.951 . S
C2519 C2520 1.366 . S
C2519 C2521 1.388 . S
C2520 C2519 1.366 . S
C2520 C2524 1.385 . S
C2521 H2496 0.951 . S
C2521 C2519 1.388 . S
C2521 C2522 1.366 . S
C2522 C2521 1.366 . S
C2522 C2523 1.414 . S
C2522 C2525 1.499 . S
C2523 H2497 0.950 . S
C2523 C2522 1.414 . S
C2523 C2524 1.374 . S
C2524 H2498 0.950 . S
C2524 C2520 1.385 . S
C2524 C2523 1.374 . S
C2525 C2522 1.499 . S
C2525 C2526 1.373 . S
C2525 C2527 1.389 . S
C2526 H2499 0.950 . S
C2526 C2512 1.377 . S
C2526 C2525 1.373 . S
C2527 C2511 1.377 . S
C2527 C2525 1.389 . S
C2527 C2528 1.524 . S
C2528 C2527 1.524 . S
C2528 C2529 1.397 . S
C2528 C2533 1.363 . S
C2529 H2500 0.950 . S
C2529 C2528 1.397 . S
C2529 C2530 1.334 . S
C2530 H2501 0.950 . S
C2530 C2529 1.334 . S
C2530 C2531 1.287 . S
C2531 C2530 1.287 . S
C2531 C2532 1.524 . S
C2531 H2534 0.999 . S
C2532 H2502 0.950 . S
C2532 C2531 1.524 . S
C2532 C2533 1.415 . S
C2533 H2503 0.950 . S
C2533 C2528 1.363 . S
C2533 C2532 1.415 . S
H2534 C2531 0.999 . S
H2535 C2516 0.913 . S
H2536 C2554 0.951 . S
H2537 C2556 0.951 . S
H2538 C2558 0.950 . S
H2539 C2559 0.950 . S
H2540 C2561 0.950 . S
H2541 C2564 0.950 . S
H2542 C2565 0.950 . S
H2543 C2567 0.950 . S
H2544 C2568 0.950 . S
H2545 C2569 0.951 . S
H2546 C2571 0.951 . S
H2547 C2573 0.950 . S
H2548 C2574 0.950 . S
H2549 C2576 0.950 . S
H2550 C2579 0.950 . S
H2551 C2580 0.950 . S
H2552 C2582 0.950 . S
H2553 C2583 0.950 . S
C2554 H2536 0.951 . S
C2554 C2555 1.366 . S
C2554 C2556 1.388 . S
C2555 C2554 1.366 . S
C2555 C2559 1.385 . S
C2556 H2537 0.951 . S
C2556 C2554 1.388 . S
C2556 C2557 1.366 . S
C2557 C2556 1.366 . S
C2557 C2558 1.414 . S
C2557 C2560 1.499 . S
C2558 H2538 0.950 . S
C2558 C2557 1.414 . S
C2558 C2559 1.374 . S
C2559 H2539 0.950 . S
C2559 C2555 1.385 . S
C2559 C2558 1.374 . S
C2560 C2557 1.499 . S
C2560 C2561 1.373 . S
C2560 C2562 1.389 . S
C2561 H2540 0.950 . S
C2561 C2560 1.373 . S
C2561 C2577 1.377 . S
C2562 C2560 1.389 . S
C2562 C2563 1.524 . S
C2562 C2576 1.377 . S
C2563 C2562 1.524 . S
C2563 C2564 1.397 . S
C2563 C2568 1.363 . S
C2564 H2541 0.950 . S
C2564 C2563 1.397 . S
C2564 C2565 1.334 . S
C2565 H2542 0.950 . S
C2565 C2564 1.334 . S
C2565 C2566 1.287 . S
C2566 C2565 1.287 . S
C2566 C2567 1.524 . S
C2566 H2585 0.913 . S
C2567 H2543 0.950 . S
C2567 C2566 1.524 . S
C2567 C2568 1.415 . S
C2568 H2544 0.950 . S
C2568 C2563 1.363 . S
C2568 C2567 1.415 . S
C2569 H2545 0.951 . S
C2569 C2570 1.366 . S
C2569 C2571 1.388 . S
C2570 C2569 1.366 . S
C2570 C2574 1.385 . S
C2571 H2546 0.951 . S
C2571 C2569 1.388 . S
C2571 C2572 1.366 . S
C2572 C2571 1.366 . S
C2572 C2573 1.414 . S
C2572 C2575 1.499 . S
C2573 H2547 0.950 . S
C2573 C2572 1.414 . S
C2573 C2574 1.374 . S
C2574 H2548 0.950 . S
C2574 C2570 1.385 . S
C2574 C2573 1.374 . S
C2575 C2572 1.499 . S
C2575 C2576 1.373 . S
C2575 C2577 1.389 . S
C2576 H2549 0.950 . S
C2576 C2562 1.377 . S
C2576 C2575 1.373 . S
C2577 C2561 1.377 . S
C2577 C2575 1.389 . S
C2577 C2578 1.524 . S
C2578 C2577 1.524 . S
C2578 C2579 1.397 . S
C2578 C2583 1.363 . S
C2579 H2550 0.950 . S
C2579 C2578 1.397 . S
C2579 C2580 1.334 . S
C2580 H2551 0.950 . S
C2580 C2579 1.334 . S
C2580 C2581 1.287 . S
C2581 C2580 1.287 . S
C2581 C2582 1.524 . S
C2581 H2584 0.999 . S
C2582 H2552 0.950 . S
C2582 C2581 1.524 . S
C2582 C2583 1.415 . S
C2583 H2553 0.950 . S
C2583 C2578 1.363 . S
C2583 C2582 1.415 . S
H2584 C2581 0.999 . S
H2585 C2566 0.913 . S
H2586 C2604 0.951 . S
H2587 C2606 0.951 . S
H2588 C2608 0.950 . S
H2589 C2609 0.950 . S
H2590 C2611 0.950 . S
H2591 C2614 0.950 . S
H2592 C2615 0.950 . S
H2593 C2617 0.950 . S
H2594 C2618 0.950 . S
H2595 C2619 0.951 . S
H2596 C2621 0.951 . S
H2597 C2623 0.950 . S
H2598 C2624 0.950 . S
H2599 C2626 0.950 . S
H2600 C2629 0.950 . S
H2601 C2630 0.950 . S
H2602 C2632 0.950 . S
H2603 C2633 0.950 . S
C2604 H2586 0.951 . S
C2604 C2605 1.366 . S
C2604 C2606 1.388 . S
C2605 C2604 1.366 . S
C2605 C2609 1.385 . S
C2606 H2587 0.951 . S
C2606 C2604 1.388 . S
C2606 C2607 1.366 . S
C2607 C2606 1.366 . S
C2607 C2608 1.414 . S
C2607 C2610 1.499 . S
C2608 H2588 0.950 . S
C2608 C2607 1.414 . S
C2608 C2609 1.374 . S
C2609 H2589 0.950 . S
C2609 C2605 1.385 . S
C2609 C2608 1.374 . S
C2610 C2607 1.499 . S
C2610 C2611 1.373 . S
C2610 C2612 1.389 . S
C2611 H2590 0.950 . S
C2611 C2610 1.373 . S
C2611 C2627 1.377 . S
C2612 C2610 1.389 . S
C2612 C2613 1.524 . S
C2612 C2626 1.377 . S
C2613 C2612 1.524 . S
C2613 C2614 1.397 . S
C2613 C2618 1.363 . S
C2614 H2591 0.950 . S
C2614 C2613 1.397 . S
C2614 C2615 1.334 1_455 S
C2615 H2592 0.950 . S
C2615 C2614 1.334 1_655 S
C2615 C2616 1.287 . S
C2616 C2615 1.287 . S
C2616 C2617 1.524 1_655 S
C2616 H2635 0.913 . S
C2617 H2593 0.950 . S
C2617 C2616 1.524 1_455 S
C2617 C2618 1.415 . S
C2618 H2594 0.950 . S
C2618 C2613 1.363 . S
C2618 C2617 1.415 . S
C2619 H2595 0.951 . S
C2619 C2620 1.366 . S
C2619 C2621 1.388 . S
C2620 C2619 1.366 . S
C2620 C2624 1.385 . S
C2621 H2596 0.951 . S
C2621 C2619 1.388 . S
C2621 C2622 1.366 . S
C2622 C2621 1.366 . S
C2622 C2623 1.414 . S
C2622 C2625 1.499 . S
C2623 H2597 0.950 . S
C2623 C2622 1.414 . S
C2623 C2624 1.374 . S
C2624 H2598 0.950 . S
C2624 C2620 1.385 . S
C2624 C2623 1.374 . S
C2625 C2622 1.499 . S
C2625 C2626 1.373 . S
C2625 C2627 1.389 . S
C2626 H2599 0.950 . S
C2626 C2612 1.377 . S
C2626 C2625 1.373 . S
C2627 C2611 1.377 . S
C2627 C2625 1.389 . S
C2627 C2628 1.524 . S
C2628 C2627 1.524 . S
C2628 C2629 1.397 . S
C2628 C2633 1.363 . S
C2629 H2600 0.950 . S
C2629 C2628 1.397 . S
C2629 C2630 1.334 . S
C2630 H2601 0.950 . S
C2630 C2629 1.334 . S
C2630 C2631 1.287 . S
C2631 C2630 1.287 . S
C2631 C2632 1.524 . S
C2631 H2634 0.999 . S
C2632 H2602 0.950 . S
C2632 C2631 1.524 . S
C2632 C2633 1.415 . S
C2633 H2603 0.950 . S
C2633 C2628 1.363 . S
C2633 C2632 1.415 . S
H2634 C2631 0.999 . S
H2635 C2616 0.913 . S
H2636 C2654 0.951 . S
H2637 C2656 0.951 . S
H2638 C2658 0.950 . S
H2639 C2659 0.950 . S
H2640 C2661 0.950 . S
H2641 C2664 0.950 . S
H2642 C2665 0.950 . S
H2643 C2667 0.951 . S
H2644 C2668 0.950 . S
H2645 C2669 0.951 . S
H2646 C2671 0.951 . S
H2647 C2673 0.950 . S
H2648 C2674 0.950 . S
H2649 C2676 0.950 . S
H2650 C2679 0.950 . S
H2651 C2680 0.950 . S
H2652 C2682 0.950 . S
H2653 C2683 0.950 . S
C2654 H2636 0.951 . S
C2654 C2655 1.366 . S
C2654 C2656 1.388 . S
C2655 C2654 1.366 . S
C2655 C2659 1.385 . S
C2656 H2637 0.951 . S
C2656 C2654 1.388 . S
C2656 C2657 1.366 . S
C2657 C2656 1.366 . S
C2657 C2658 1.414 . S
C2657 C2660 1.499 . S
C2658 H2638 0.950 . S
C2658 C2657 1.414 . S
C2658 C2659 1.374 . S
C2659 H2639 0.950 . S
C2659 C2655 1.385 . S
C2659 C2658 1.374 . S
C2660 C2657 1.499 . S
C2660 C2661 1.373 . S
C2660 C2662 1.389 . S
C2661 H2640 0.950 . S
C2661 C2660 1.373 . S
C2661 C2677 1.377 . S
C2662 C2660 1.389 . S
C2662 C2663 1.524 . S
C2662 C2676 1.377 . S
C2663 C2662 1.524 . S
C2663 C2664 1.397 . S
C2663 C2668 1.363 . S
C2664 H2641 0.950 . S
C2664 C2663 1.397 . S
C2664 C2665 1.334 . S
C2665 H2642 0.950 . S
C2665 C2664 1.334 . S
C2665 C2666 1.287 . S
C2666 C2665 1.287 . S
C2666 C2667 1.524 . S
C2666 H2685 0.913 . S
C2667 H2643 0.951 . S
C2667 C2666 1.524 . S
C2667 C2668 1.415 . S
C2668 H2644 0.950 . S
C2668 C2663 1.363 . S
C2668 C2667 1.415 . S
C2669 H2645 0.951 . S
C2669 C2670 1.366 . S
C2669 C2671 1.388 . S
C2670 C2669 1.366 . S
C2670 C2674 1.385 . S
C2671 H2646 0.951 . S
C2671 C2669 1.388 . S
C2671 C2672 1.366 . S
C2672 C2671 1.366 . S
C2672 C2673 1.414 . S
C2672 C2675 1.499 . S
C2673 H2647 0.950 . S
C2673 C2672 1.414 . S
C2673 C2674 1.374 . S
C2674 H2648 0.950 . S
C2674 C2670 1.385 . S
C2674 C2673 1.374 . S
C2675 C2672 1.499 . S
C2675 C2676 1.373 . S
C2675 C2677 1.389 . S
C2676 H2649 0.950 . S
C2676 C2662 1.377 . S
C2676 C2675 1.373 . S
C2677 C2661 1.377 . S
C2677 C2675 1.389 . S
C2677 C2678 1.524 . S
C2678 C2677 1.524 . S
C2678 C2679 1.397 . S
C2678 C2683 1.363 . S
C2679 H2650 0.950 . S
C2679 C2678 1.397 . S
C2679 C2680 1.334 . S
C2680 H2651 0.950 . S
C2680 C2679 1.334 . S
C2680 C2681 1.287 . S
C2681 C2680 1.287 . S
C2681 C2682 1.524 . S
C2681 H2684 0.999 . S
C2682 H2652 0.950 . S
C2682 C2681 1.524 . S
C2682 C2683 1.415 . S
C2683 H2653 0.950 . S
C2683 C2678 1.363 . S
C2683 C2682 1.415 . S
H2684 C2681 0.999 . S
H2685 C2666 0.913 . S
H2686 C2704 0.951 . S
H2687 C2706 0.951 . S
H2688 C2708 0.950 . S
H2689 C2709 0.950 . S
H2690 C2711 0.950 . S
H2691 C2714 0.950 . S
H2692 C2715 0.950 . S
H2693 C2717 0.950 . S
H2694 C2718 0.950 . S
H2695 C2719 0.951 . S
H2696 C2721 0.951 . S
H2697 C2723 0.950 . S
H2698 C2724 0.950 . S
H2699 C2726 0.950 . S
H2700 C2729 0.950 . S
H2701 C2730 0.950 . S
H2702 C2732 0.950 . S
H2703 C2733 0.950 . S
C2704 H2686 0.951 . S
C2704 C2705 1.366 . S
C2704 C2706 1.388 . S
C2705 C2704 1.366 . S
C2705 C2709 1.385 . S
C2706 H2687 0.951 . S
C2706 C2704 1.388 . S
C2706 C2707 1.366 . S
C2707 C2706 1.366 . S
C2707 C2708 1.414 . S
C2707 C2710 1.499 . S
C2708 H2688 0.950 . S
C2708 C2707 1.414 . S
C2708 C2709 1.374 . S
C2709 H2689 0.950 . S
C2709 C2705 1.385 . S
C2709 C2708 1.374 . S
C2710 C2707 1.499 . S
C2710 C2711 1.373 . S
C2710 C2712 1.389 . S
C2711 H2690 0.950 . S
C2711 C2710 1.373 . S
C2711 C2727 1.377 . S
C2712 C2710 1.389 . S
C2712 C2713 1.524 . S
C2712 C2726 1.377 . S
C2713 C2712 1.524 . S
C2713 C2714 1.397 . S
C2713 C2718 1.363 . S
C2714 H2691 0.950 . S
C2714 C2713 1.397 . S
C2714 C2715 1.334 . S
C2715 H2692 0.950 . S
C2715 C2714 1.334 . S
C2715 C2716 1.287 . S
C2716 C2715 1.287 . S
C2716 C2717 1.524 . S
C2716 H2735 0.913 . S
C2717 H2693 0.950 . S
C2717 C2716 1.524 . S
C2717 C2718 1.415 . S
C2718 H2694 0.950 . S
C2718 C2713 1.363 . S
C2718 C2717 1.415 . S
C2719 H2695 0.951 . S
C2719 C2720 1.366 . S
C2719 C2721 1.388 . S
C2720 C2719 1.366 . S
C2720 C2724 1.385 . S
C2721 H2696 0.951 . S
C2721 C2719 1.388 . S
C2721 C2722 1.366 . S
C2722 C2721 1.366 . S
C2722 C2723 1.414 . S
C2722 C2725 1.499 . S
C2723 H2697 0.950 . S
C2723 C2722 1.414 . S
C2723 C2724 1.374 . S
C2724 H2698 0.950 . S
C2724 C2720 1.385 . S
C2724 C2723 1.374 . S
C2725 C2722 1.499 . S
C2725 C2726 1.373 . S
C2725 C2727 1.389 . S
C2726 H2699 0.950 . S
C2726 C2712 1.377 . S
C2726 C2725 1.373 . S
C2727 C2711 1.377 . S
C2727 C2725 1.389 . S
C2727 C2728 1.524 . S
C2728 C2727 1.524 . S
C2728 C2729 1.397 . S
C2728 C2733 1.363 . S
C2729 H2700 0.950 . S
C2729 C2728 1.397 . S
C2729 C2730 1.334 . S
C2730 H2701 0.950 . S
C2730 C2729 1.334 . S
C2730 C2731 1.287 . S
C2731 C2730 1.287 . S
C2731 C2732 1.524 . S
C2731 H2734 0.999 . S
C2732 H2702 0.950 . S
C2732 C2731 1.524 . S
C2732 C2733 1.415 . S
C2733 H2703 0.950 . S
C2733 C2728 1.363 . S
C2733 C2732 1.415 . S
H2734 C2731 0.999 . S
H2735 C2716 0.913 . S
C355 C219 1.170 . S
C370 C9 1.170 . S
C405 C23 1.169 . S
C420 C233 1.171 . S
C455 C37 1.170 . S
C470 C247 1.169 . S
C505 C51 1.169 . S
C520 C177 1.170 . S
C555 C191 1.170 . S
C570 C65 1.169 . S
C605 C79 1.171 . S
C620 C205 1.169 . S
C655 C303 1.170 . S
C670 C93 1.170 . S
C705 C107 1.169 . S
C720 C317 1.171 . S
C755 C121 1.170 . S
C770 C331 1.170 . S
C805 C261 1.169 . S
C820 C135 1.170 . S
C855 C149 1.169 . S
C870 C275 1.170 . S
C905 C289 1.169 . S
C920 C163 1.171 . S
C955 C3 1.613 . S
C970 C325 1.613 . S
C1005 C255 1.613 . S
C1020 C17 1.613 . S
C1055 C31 1.613 . S
C1070 C269 1.613 . S
C1105 C283 1.613 . S
C1120 C45 1.613 . S
C1155 C59 1.613 . S
C1170 C297 1.613 . S
C1205 C311 1.613 . S
C1220 C73 1.613 . S
C1255 C87 1.613 . S
C1270 C185 1.613 . S
C1305 C199 1.613 . S
C1320 C101 1.613 . S
C1355 C213 1.613 . S
C1370 C115 1.613 . S
C1405 C227 1.613 . S
C1420 C129 1.613 . S
C1455 C143 1.613 . S
C1470 C241 1.613 . S
C1505 C157 1.613 . S
C1520 C171 1.613 . S
C1555 C106 1.170 . S
C1570 C8 1.170 . S
C1605 C120 1.171 . S
C1620 C22 1.171 . S
C1655 C134 1.170 . S
C1670 C36 1.170 . S
C1705 C148 1.170 . S
C1720 C50 1.170 . S
C1755 C64 1.170 . S
C1770 C162 1.170 . S
C1805 C78 1.171 . S
C1820 C92 1.170 . S
C1855 C176 1.170 . S
C1870 C274 1.170 . S
C1905 C190 1.171 . S
C1920 C288 1.170 . S
C1955 C302 1.170 . S
C1970 C204 1.171 . S
C2005 C316 1.170 . S
C2020 C218 1.170 . S
C2055 C330 1.170 . S
C2070 C232 1.170 . S
C2105 C260 1.170 . S
C2120 C246 1.171 . S
C2155 C7 1.605 . S
C2170 C273 1.605 . S
C2205 C287 1.605 . S
C2220 C21 1.605 . S
C2255 C35 1.605 . S
C2270 C301 1.605 . S
C2305 C315 1.605 . S
C2320 C49 1.605 . S
C2355 C63 1.605 . S
C2370 C329 1.605 . S
C2405 C259 1.605 . S
C2420 C77 1.605 . S
C2455 C91 1.605 . S
C2470 C245 1.605 . S
C2505 C175 1.605 . S
C2520 C105 1.605 . S
C2555 C119 1.605 . S
C2570 C189 1.605 . S
C2605 C133 1.605 . S
C2620 C203 1.605 . S
C2655 C147 1.605 . S
C2670 C217 1.605 . S
C2705 C161 1.606 . S
C2720 C231 1.605 . S
