# Generated by pormake.
# Topology ukd, (4)-cn, num edge types: 1
# Building blocks:
#     Node 0, Type 0, BuildingBlock: QUQFOY_clean_sbu_1, # of connection points: 4
#     Node 1, Type 0, BuildingBlock: QUQFOY_clean_sbu_1, # of connection points: 4
#     Node 2, Type 0, BuildingBlock: QUQFOY_clean_sbu_1, # of connection points: 4
#     Node 3, Type 0, BuildingBlock: QUQFOY_clean_sbu_1, # of connection points: 4
#     Node 4, Type 0, BuildingBlock: QUQFOY_clean_sbu_1, # of connection points: 4
#     Node 5, Type 0, BuildingBlock: QUQFOY_clean_sbu_1, # of connection points: 4
#     Node 6, Type 0, BuildingBlock: QUQFOY_clean_sbu_1, # of connection points: 4
#     Node 7, Type 0, BuildingBlock: QUQFOY_clean_sbu_1, # of connection points: 4
#     Node 8, Type 0, BuildingBlock: QUQFOY_clean_sbu_1, # of connection points: 4
#     Node 9, Type 0, BuildingBlock: QUQFOY_clean_sbu_1, # of connection points: 4
#     Node 10, Type 0, BuildingBlock: QUQFOY_clean_sbu_1, # of connection points: 4
#     Node 11, Type 0, BuildingBlock: QUQFOY_clean_sbu_1, # of connection points: 4
#     Node 12, Type 0, BuildingBlock: QUQFOY_clean_sbu_1, # of connection points: 4
#     Node 13, Type 0, BuildingBlock: QUQFOY_clean_sbu_1, # of connection points: 4
#     Node 14, Type 0, BuildingBlock: QUQFOY_clean_sbu_1, # of connection points: 4
#     Node 15, Type 0, BuildingBlock: QUQFOY_clean_sbu_1, # of connection points: 4
#     Node 16, Type 0, BuildingBlock: QUQFOY_clean_sbu_1, # of connection points: 4
#     Node 17, Type 0, BuildingBlock: QUQFOY_clean_sbu_1, # of connection points: 4
#     Node 18, Type 0, BuildingBlock: QUQFOY_clean_sbu_1, # of connection points: 4
#     Node 19, Type 0, BuildingBlock: QUQFOY_clean_sbu_1, # of connection points: 4
#     Node 20, Type 0, BuildingBlock: QUQFOY_clean_sbu_1, # of connection points: 4
#     Node 21, Type 0, BuildingBlock: QUQFOY_clean_sbu_1, # of connection points: 4
#     Node 22, Type 0, BuildingBlock: QUQFOY_clean_sbu_1, # of connection points: 4
#     Node 23, Type 0, BuildingBlock: QUQFOY_clean_sbu_1, # of connection points: 4
#     Node 24, Type 0, BuildingBlock: QUQFOY_clean_sbu_1, # of connection points: 4
#     Node 25, Type 0, BuildingBlock: QUQFOY_clean_sbu_1, # of connection points: 4
#     Node 26, Type 0, BuildingBlock: QUQFOY_clean_sbu_1, # of connection points: 4
#     Node 27, Type 0, BuildingBlock: QUQFOY_clean_sbu_1, # of connection points: 4
#     Node 28, Type 0, BuildingBlock: QUQFOY_clean_sbu_1, # of connection points: 4
#     Node 29, Type 0, BuildingBlock: QUQFOY_clean_sbu_1, # of connection points: 4
#     Node 30, Type 0, BuildingBlock: QUQFOY_clean_sbu_1, # of connection points: 4
#     Node 31, Type 0, BuildingBlock: QUQFOY_clean_sbu_1, # of connection points: 4
#     Edge 32, Type (0, 0), None
#     Edge 33, Type (0, 0), None
#     Edge 34, Type (0, 0), None
#     Edge 35, Type (0, 0), None
#     Edge 36, Type (0, 0), None
#     Edge 37, Type (0, 0), None
#     Edge 38, Type (0, 0), None
#     Edge 39, Type (0, 0), None
#     Edge 40, Type (0, 0), None
#     Edge 41, Type (0, 0), None
#     Edge 42, Type (0, 0), None
#     Edge 43, Type (0, 0), None
#     Edge 44, Type (0, 0), None
#     Edge 45, Type (0, 0), None
#     Edge 46, Type (0, 0), None
#     Edge 47, Type (0, 0), None
#     Edge 48, Type (0, 0), None
#     Edge 49, Type (0, 0), None
#     Edge 50, Type (0, 0), None
#     Edge 51, Type (0, 0), None
#     Edge 52, Type (0, 0), None
#     Edge 53, Type (0, 0), None
#     Edge 54, Type (0, 0), None
#     Edge 55, Type (0, 0), None
#     Edge 56, Type (0, 0), None
#     Edge 57, Type (0, 0), None
#     Edge 58, Type (0, 0), None
#     Edge 59, Type (0, 0), None
#     Edge 60, Type (0, 0), None
#     Edge 61, Type (0, 0), None
#     Edge 62, Type (0, 0), None
#     Edge 63, Type (0, 0), None
#     Edge 64, Type (0, 0), None
#     Edge 65, Type (0, 0), None
#     Edge 66, Type (0, 0), None
#     Edge 67, Type (0, 0), None
#     Edge 68, Type (0, 0), None
#     Edge 69, Type (0, 0), None
#     Edge 70, Type (0, 0), None
#     Edge 71, Type (0, 0), None
#     Edge 72, Type (0, 0), None
#     Edge 73, Type (0, 0), None
#     Edge 74, Type (0, 0), None
#     Edge 75, Type (0, 0), None
#     Edge 76, Type (0, 0), None
#     Edge 77, Type (0, 0), None
#     Edge 78, Type (0, 0), None
#     Edge 79, Type (0, 0), None
#     Edge 80, Type (0, 0), None
#     Edge 81, Type (0, 0), None
#     Edge 82, Type (0, 0), None
#     Edge 83, Type (0, 0), None
#     Edge 84, Type (0, 0), None
#     Edge 85, Type (0, 0), None
#     Edge 86, Type (0, 0), None
#     Edge 87, Type (0, 0), None
#     Edge 88, Type (0, 0), None
#     Edge 89, Type (0, 0), None
#     Edge 90, Type (0, 0), None
#     Edge 91, Type (0, 0), None
#     Edge 92, Type (0, 0), None
#     Edge 93, Type (0, 0), None
#     Edge 94, Type (0, 0), None
#     Edge 95, Type (0, 0), None
# Relax obj value: 0.028
# Max RMSD: 0.054
# Mean RMSD: 0.054
data_MOF--net-ukd--node1-QUQFOY_clean_sbu_1--edge1-none
_symmetry_space_group_name_H-M    P1
_symmetry_Int_Tables_number       1
_symmetry_cell_setting            triclinic
loop_
_symmetry_equiv_pos_as_xyz
'x, y, z'
_cell_length_a     20.702571
_cell_length_b     20.702609
_cell_length_c     37.725523
_cell_angle_alpha  90.0
_cell_angle_beta   90.0
_cell_angle_gamma 90.000001
loop_
_atom_site_label
_atom_site_type_symbol
_atom_site_fract_x
_atom_site_fract_y
_atom_site_fract_z
_atom_type_partial_charge
O0 O 0.19116 0.16336 0.40618 0.0
Cd1 Cd 0.27013 0.2226 0.40194 0.0
Cd2 Cd 0.21707 0.24183 0.33882 0.0
O3 O 0.16383 0.15797 0.34969 0.0
O4 O 0.34485 0.18109 0.42714 0.0
O5 O 0.33838 0.19078 0.36873 0.0
C6 C 0.36784 0.16781 0.39609 0.0
C7 C 0.26585 0.26973 0.2852 0.0
C8 C 0.15637 0.13955 0.38167 0.0
C9 C 0.20672 0.34727 0.39503 0.0
O10 O 0.18813 0.32229 0.36604 0.0
O11 O 0.24786 0.31832 0.4145 0.0
O12 O 0.20383 0.26839 0.28818 0.0
O13 O 0.30013 0.25052 0.31166 0.0
O14 O 0.14917 0.94116 0.65617 0.0
Cd15 Cd 0.08993 1.02013 0.65193 0.0
Cd16 Cd 0.0707 0.96706 0.58881 0.0
O17 O 0.15455 0.91382 0.59968 0.0
O18 O 0.13144 0.09485 0.67714 0.0
O19 O 0.12175 0.08838 0.61872 0.0
C20 C 0.14472 0.11784 0.64609 0.0
C21 C 0.0428 1.01584 0.5352 0.0
C22 C 0.17297 0.90636 0.63167 0.0
C23 C 0.96526 0.95672 0.64503 0.0
O24 O 0.99023 0.93812 0.61604 0.0
O25 O 0.99421 0.99787 0.66449 0.0
O26 O 0.04414 0.95382 0.53818 0.0
O27 O 0.06201 0.05012 0.56166 0.0
O28 O 0.37136 0.89917 0.90618 0.0
Cd29 Cd 0.29239 0.83993 0.90194 0.0
Cd30 Cd 0.34545 0.82069 0.83882 0.0
O31 O 0.3987 0.90455 0.84969 0.0
O32 O 0.21767 0.88143 0.92714 0.0
O33 O 0.22415 0.87175 0.86873 0.0
C34 C 0.19468 0.89471 0.89609 0.0
C35 C 0.29667 0.79279 0.7852 0.0
C36 C 0.40616 0.92297 0.88167 0.0
C37 C 0.3558 0.71525 0.89503 0.0
O38 O 0.3744 0.74023 0.86604 0.0
O39 O 0.31466 0.7442 0.9145 0.0
O40 O 0.3587 0.79413 0.78818 0.0
O41 O 0.26239 0.81201 0.81166 0.0
O42 O 0.41335 0.12136 0.15617 0.0
Cd43 Cd 0.47259 0.04239 0.15193 0.0
Cd44 Cd 0.49183 0.09546 0.08881 0.0
O45 O 0.40797 0.14871 0.09968 0.0
O46 O 0.43109 0.96767 0.17714 0.0
O47 O 0.44077 0.97414 0.11872 0.0
C48 C 0.41781 0.94468 0.14609 0.0
C49 C 0.51973 0.04668 0.0352 0.0
C50 C 0.38955 0.15616 0.13167 0.0
C51 C 0.59726 0.1058 0.14503 0.0
O52 O 0.57229 0.1244 0.11604 0.0
O53 O 0.56831 0.06466 0.16449 0.0
O54 O 0.51839 0.10871 0.03818 0.0
O55 O 0.50052 1.0124 0.06166 0.0
O56 O 0.19116 0.89916 0.13164 0.0
Cd57 Cd 0.27013 0.83993 0.13587 0.0
Cd58 Cd 0.21707 0.82069 0.199 0.0
O59 O 0.16383 0.90455 0.18812 0.0
O60 O 0.34485 0.88143 0.11066 0.0
O61 O 0.33838 0.87175 0.16908 0.0
C62 C 0.36783 0.89471 0.14172 0.0
C63 C 0.26586 0.79279 0.25261 0.0
C64 C 0.15637 0.92297 0.15614 0.0
C65 C 0.20672 0.71525 0.14278 0.0
O66 O 0.18813 0.74023 0.17177 0.0
O67 O 0.24786 0.7442 0.12331 0.0
O68 O 0.20383 0.79413 0.24963 0.0
O69 O 0.30013 0.81201 0.22615 0.0
O70 O 0.41335 0.94116 0.38164 0.0
Cd71 Cd 0.47259 1.02013 0.38588 0.0
Cd72 Cd 0.49183 0.96706 0.449 0.0
O73 O 0.40797 0.91382 0.43813 0.0
O74 O 0.43109 0.09485 0.36067 0.0
O75 O 0.44077 0.08838 0.41909 0.0
C76 C 0.41781 0.11783 0.39172 0.0
C77 C 0.51973 1.01584 0.50261 0.0
C78 C 0.38955 0.90636 0.40614 0.0
C79 C 0.59726 0.95672 0.39278 0.0
O80 O 0.57229 0.93812 0.42177 0.0
O81 O 0.56831 0.99787 0.37332 0.0
O82 O 0.51839 0.95382 0.49963 0.0
O83 O 0.50052 0.05013 0.47616 0.0
O84 O 0.37136 0.16336 0.63164 0.0
Cd85 Cd 0.29239 0.2226 0.63587 0.0
Cd86 Cd 0.34545 0.24183 0.699 0.0
O87 O 0.3987 0.15797 0.68812 0.0
O88 O 0.21768 0.18109 0.61066 0.0
O89 O 0.22415 0.19078 0.66908 0.0
C90 C 0.1947 0.16781 0.64172 0.0
C91 C 0.29667 0.26973 0.75261 0.0
C92 C 0.40616 0.13956 0.65614 0.0
C93 C 0.3558 0.34727 0.64278 0.0
O94 O 0.3744 0.32229 0.67177 0.0
O95 O 0.31466 0.31832 0.62331 0.0
O96 O 0.3587 0.26839 0.74963 0.0
O97 O 0.26239 0.25052 0.72615 0.0
O98 O 0.14917 0.12136 0.88164 0.0
Cd99 Cd 0.08993 0.04239 0.88588 0.0
Cd100 Cd 0.0707 0.09546 0.949 0.0
O101 O 0.15455 0.1487 0.93813 0.0
O102 O 0.13144 0.96767 0.86067 0.0
O103 O 0.12175 0.97415 0.91909 0.0
C104 C 0.14472 0.94469 0.89172 0.0
C105 C 0.0428 0.04668 1.00261 0.0
C106 C 0.17297 0.15616 0.90614 0.0
C107 C 0.96526 0.1058 0.89278 0.0
O108 O 0.99023 0.1244 0.92177 0.0
O109 O 0.99421 0.06466 0.87332 0.0
O110 O 0.04414 0.10871 0.99963 0.0
O111 O 0.06201 1.0124 0.97616 0.0
O112 O 0.87441 0.74024 0.67177 0.0
Cd113 Cd 0.84547 0.8207 0.699 0.0
Cd114 Cd 0.7924 0.83994 0.63587 0.0
O115 O 0.81467 0.74422 0.62332 0.0
O116 O 0.85872 0.79414 0.74963 0.0
O117 O 0.76241 0.81201 0.72616 0.0
C118 C 0.79669 0.7928 0.75261 0.0
C119 C 0.69468 0.89471 0.64172 0.0
C120 C 0.85581 0.71526 0.64278 0.0
C121 C 0.90615 0.92299 0.65614 0.0
O122 O 0.87135 0.89919 0.63164 0.0
O123 O 0.89872 0.90455 0.68813 0.0
O124 O 0.71767 0.88143 0.61067 0.0
O125 O 0.72415 0.87175 0.66908 0.0
O126 O 0.91335 0.12136 0.38164 0.0
Cd127 Cd 0.97259 0.04239 0.38587 0.0
Cd128 Cd 0.99182 0.09545 0.449 0.0
O129 O 0.90797 0.14869 0.43813 0.0
O130 O 0.93109 0.96767 0.36067 0.0
O131 O 0.94078 0.97414 0.41908 0.0
C132 C 0.91781 0.94468 0.39172 0.0
C133 C 1.01972 0.04666 0.50261 0.0
C134 C 0.88955 0.15615 0.40614 0.0
C135 C 0.09726 0.1058 0.39278 0.0
O136 O 0.07229 0.12439 0.42177 0.0
O137 O 0.06831 0.06467 0.37331 0.0
O138 O 1.01838 0.10869 0.49963 0.0
O139 O 1.00051 1.01238 0.47615 0.0
O140 O 0.68812 0.32229 0.17177 0.0
Cd141 Cd 0.71705 0.24183 0.199 0.0
Cd142 Cd 0.77013 0.22259 0.13587 0.0
O143 O 0.74785 0.31831 0.12332 0.0
O144 O 0.70381 0.26839 0.24963 0.0
O145 O 0.80012 0.25051 0.22616 0.0
C146 C 0.76584 0.26972 0.25261 0.0
C147 C 0.86785 0.16781 0.14172 0.0
C148 C 0.70672 0.34726 0.14278 0.0
C149 C 0.65638 0.13954 0.15614 0.0
O150 O 0.69117 0.16333 0.13164 0.0
O151 O 0.66381 0.15797 0.18813 0.0
O152 O 0.84486 0.18109 0.11067 0.0
O153 O 0.83838 0.19077 0.16908 0.0
O154 O 0.64918 0.94117 0.88164 0.0
Cd155 Cd 0.58993 1.02013 0.88587 0.0
Cd156 Cd 0.5707 0.96708 0.949 0.0
O157 O 0.65456 0.91383 0.93813 0.0
O158 O 0.63144 0.09486 0.86067 0.0
O159 O 0.62175 0.08838 0.91908 0.0
C160 C 0.64471 0.11785 0.89172 0.0
C161 C 0.54281 1.01586 1.00261 0.0
C162 C 0.67298 0.90637 0.90614 0.0
C163 C 0.46526 0.95672 0.89278 0.0
O164 O 0.49024 0.93813 0.92177 0.0
O165 O 0.49421 0.99786 0.87331 0.0
O166 O 0.54415 0.95383 0.99963 0.0
O167 O 0.56202 0.05014 0.97615 0.0
O168 O 0.87441 0.32229 0.86604 0.0
Cd169 Cd 0.84547 0.24183 0.83881 0.0
Cd170 Cd 0.79239 0.22259 0.90194 0.0
O171 O 0.81467 0.31831 0.9145 0.0
O172 O 0.85872 0.26839 0.78818 0.0
O173 O 0.76241 0.25051 0.81166 0.0
C174 C 0.79669 0.26972 0.7852 0.0
C175 C 0.69469 0.16781 0.89609 0.0
C176 C 0.85581 0.34726 0.89503 0.0
C177 C 0.90615 0.13954 0.88167 0.0
O178 O 0.87135 0.16333 0.90618 0.0
O179 O 0.89871 0.15797 0.84969 0.0
O180 O 0.71767 0.18109 0.92714 0.0
O181 O 0.72415 0.19078 0.86873 0.0
O182 O 0.64918 0.12136 0.65618 0.0
Cd183 Cd 0.58993 0.04239 0.65194 0.0
Cd184 Cd 0.5707 0.09544 0.58881 0.0
O185 O 0.65456 0.14869 0.59969 0.0
O186 O 0.63143 0.96767 0.67715 0.0
O187 O 0.62174 0.97414 0.61873 0.0
C188 C 0.64471 0.94469 0.6461 0.0
C189 C 0.54281 0.04666 0.5352 0.0
C190 C 0.67298 0.15615 0.63167 0.0
C191 C 0.46526 0.1058 0.64503 0.0
O192 O 0.49024 0.12439 0.61604 0.0
O193 O 0.49421 0.06467 0.6645 0.0
O194 O 0.54415 0.10869 0.53818 0.0
O195 O 0.56202 1.01238 0.56166 0.0
O196 O 0.68812 0.74024 0.36604 0.0
Cd197 Cd 0.71706 0.8207 0.33881 0.0
Cd198 Cd 0.77013 0.83994 0.40194 0.0
O199 O 0.74785 0.74422 0.4145 0.0
O200 O 0.70381 0.79414 0.28818 0.0
O201 O 0.80012 0.81201 0.31166 0.0
C202 C 0.76584 0.7928 0.2852 0.0
C203 C 0.86783 0.89471 0.39609 0.0
C204 C 0.70672 0.71526 0.39503 0.0
C205 C 0.65638 0.92299 0.38167 0.0
O206 O 0.69117 0.89919 0.40618 0.0
O207 O 0.66381 0.90455 0.34969 0.0
O208 O 0.84486 0.88143 0.42714 0.0
O209 O 0.83838 0.87175 0.36873 0.0
O210 O 0.91335 0.94117 0.15618 0.0
Cd211 Cd 0.97259 1.02013 0.15194 0.0
Cd212 Cd 0.99182 0.96708 0.08881 0.0
O213 O 0.90797 0.91383 0.09969 0.0
O214 O 0.93109 0.09486 0.17715 0.0
O215 O 0.94078 0.08838 0.11873 0.0
C216 C 0.91781 0.11784 0.1461 0.0
C217 C 1.01972 1.01586 0.0352 0.0
C218 C 0.88955 0.90637 0.13167 0.0
C219 C 0.09726 0.95672 0.14503 0.0
O220 O 0.07229 0.93813 0.11604 0.0
O221 O 0.06831 0.99786 0.1645 0.0
O222 O 1.01838 0.95383 0.03818 0.0
O223 O 1.00051 0.05014 0.06166 0.0
O224 O 0.69117 0.66335 0.90617 0.0
Cd225 Cd 0.77014 0.7226 0.90194 0.0
Cd226 Cd 0.71708 0.74183 0.83881 0.0
O227 O 0.66383 0.65798 0.84968 0.0
O228 O 0.84486 0.68109 0.92714 0.0
O229 O 0.83838 0.69078 0.86873 0.0
C230 C 0.86785 0.66781 0.89609 0.0
C231 C 0.76587 0.76972 0.7852 0.0
C232 C 0.65637 0.63956 0.88167 0.0
C233 C 0.70673 0.84727 0.89503 0.0
O234 O 0.68814 0.82229 0.86604 0.0
O235 O 0.74786 0.81832 0.9145 0.0
O236 O 0.70384 0.76839 0.78818 0.0
O237 O 0.80014 0.75051 0.81166 0.0
O238 O 0.64919 0.44117 0.15617 0.0
Cd239 Cd 0.58994 0.52013 0.15194 0.0
Cd240 Cd 0.57069 0.46706 0.08881 0.0
O241 O 0.65454 0.41381 0.09968 0.0
O242 O 0.63144 0.59486 0.17714 0.0
O243 O 0.62175 0.58838 0.11873 0.0
C244 C 0.64471 0.61784 0.14609 0.0
C245 C 0.54279 0.51584 0.0352 0.0
C246 C 0.67298 0.40637 0.13167 0.0
C247 C 0.46526 0.45672 0.14503 0.0
O248 O 0.49023 0.43813 0.11604 0.0
O249 O 0.49422 0.49786 0.1645 0.0
O250 O 0.54413 0.45381 0.03818 0.0
O251 O 0.56201 0.55012 0.06166 0.0
O252 O 0.87136 0.39917 0.40617 0.0
Cd253 Cd 0.79239 0.33993 0.40194 0.0
Cd254 Cd 0.84544 0.32069 0.33881 0.0
O255 O 0.89869 0.40455 0.34968 0.0
O256 O 0.71767 0.38144 0.42714 0.0
O257 O 0.72414 0.37174 0.36873 0.0
C258 C 0.69468 0.39471 0.39609 0.0
C259 C 0.79666 0.2928 0.2852 0.0
C260 C 0.90616 0.42297 0.38167 0.0
C261 C 0.85579 0.21526 0.39503 0.0
O262 O 0.87438 0.24023 0.36604 0.0
O263 O 0.81466 0.24421 0.4145 0.0
O264 O 0.85869 0.29414 0.28818 0.0
O265 O 0.76238 0.31201 0.31166 0.0
O266 O 0.91334 0.62136 0.65617 0.0
Cd267 Cd 0.97259 0.54239 0.65194 0.0
Cd268 Cd 0.99184 0.59547 0.58881 0.0
O269 O 0.90798 0.64872 0.59968 0.0
O270 O 0.93109 0.46767 0.67714 0.0
O271 O 0.94078 0.47415 0.61873 0.0
C272 C 0.91781 0.44468 0.64609 0.0
C273 C 1.01973 0.54668 0.5352 0.0
C274 C 0.88955 0.65615 0.63167 0.0
C275 C 0.09727 0.6058 0.64503 0.0
O276 O 0.0723 0.6244 0.61604 0.0
O277 O 0.06831 0.56467 0.6645 0.0
O278 O 1.0184 0.60871 0.53818 0.0
O279 O 1.00051 0.5124 0.56166 0.0
O280 O 0.69117 0.39917 0.63164 0.0
Cd281 Cd 0.77014 0.33993 0.63587 0.0
Cd282 Cd 0.71708 0.32069 0.699 0.0
O283 O 0.66383 0.40455 0.68813 0.0
O284 O 0.84486 0.38143 0.61066 0.0
O285 O 0.83838 0.37174 0.66908 0.0
C286 C 0.86784 0.39471 0.64172 0.0
C287 C 0.76587 0.2928 0.75261 0.0
C288 C 0.65637 0.42297 0.65614 0.0
C289 C 0.70673 0.21526 0.64278 0.0
O290 O 0.68814 0.24023 0.67178 0.0
O291 O 0.74786 0.24421 0.62331 0.0
O292 O 0.70384 0.29414 0.74963 0.0
O293 O 0.80015 0.31201 0.72616 0.0
O294 O 0.91334 0.44117 0.88164 0.0
Cd295 Cd 0.97259 0.52013 0.88587 0.0
Cd296 Cd 0.99184 0.46706 0.949 0.0
O297 O 0.90798 0.41381 0.93813 0.0
O298 O 0.93109 0.59485 0.86067 0.0
O299 O 0.94078 0.58837 0.91908 0.0
C300 C 0.91781 0.61783 0.89172 0.0
C301 C 1.01973 0.51584 1.00261 0.0
C302 C 0.88955 0.40637 0.90614 0.0
C303 C 0.09727 0.45672 0.89278 0.0
O304 O 0.0723 0.43813 0.92177 0.0
O305 O 0.06831 0.49786 0.87331 0.0
O306 O 1.0184 0.45382 0.99964 0.0
O307 O 1.00051 0.55012 0.97616 0.0
O308 O 0.87136 0.66336 0.13164 0.0
Cd309 Cd 0.79239 0.7226 0.13587 0.0
Cd310 Cd 0.84544 0.74183 0.199 0.0
O311 O 0.89869 0.65798 0.18813 0.0
O312 O 0.71767 0.68109 0.11066 0.0
O313 O 0.72414 0.69078 0.16908 0.0
C314 C 0.69469 0.66781 0.14172 0.0
C315 C 0.79666 0.76972 0.25261 0.0
C316 C 0.90615 0.63956 0.15614 0.0
C317 C 0.85579 0.84727 0.14278 0.0
O318 O 0.87438 0.82229 0.17178 0.0
O319 O 0.81466 0.81832 0.12331 0.0
O320 O 0.85869 0.76839 0.24963 0.0
O321 O 0.76238 0.75051 0.22616 0.0
O322 O 0.64918 0.62136 0.38164 0.0
Cd323 Cd 0.58994 0.54239 0.38587 0.0
Cd324 Cd 0.57069 0.59547 0.449 0.0
O325 O 0.65454 0.64872 0.43813 0.0
O326 O 0.63144 0.46767 0.36067 0.0
O327 O 0.62175 0.47415 0.41908 0.0
C328 C 0.64471 0.44469 0.39172 0.0
C329 C 0.54279 0.54668 0.50261 0.0
C330 C 0.67298 0.65615 0.40614 0.0
C331 C 0.46526 0.6058 0.39278 0.0
O332 O 0.49023 0.6244 0.42177 0.0
O333 O 0.49421 0.56467 0.37331 0.0
O334 O 0.54413 0.60871 0.49964 0.0
O335 O 0.56201 0.5124 0.47616 0.0
O336 O 0.37439 0.24024 0.17178 0.0
Cd337 Cd 0.34546 0.3207 0.199 0.0
Cd338 Cd 0.29239 0.33994 0.13587 0.0
O339 O 0.31467 0.24422 0.12331 0.0
O340 O 0.3587 0.29414 0.24964 0.0
O341 O 0.2624 0.31202 0.22616 0.0
C342 C 0.29668 0.2928 0.25262 0.0
C343 C 0.19467 0.39471 0.14172 0.0
C344 C 0.3558 0.21527 0.14278 0.0
C345 C 0.40614 0.42299 0.15614 0.0
O346 O 0.37135 0.39919 0.13164 0.0
O347 O 0.39871 0.40455 0.18813 0.0
O348 O 0.21766 0.38144 0.11067 0.0
O349 O 0.22414 0.37175 0.16908 0.0
O350 O 0.41334 0.62135 0.88163 0.0
Cd351 Cd 0.47259 0.54239 0.88587 0.0
Cd352 Cd 0.49183 0.59545 0.949 0.0
O353 O 0.40797 0.6487 0.93813 0.0
O354 O 0.43109 0.46766 0.86067 0.0
O355 O 0.44078 0.47414 0.91908 0.0
C356 C 0.41782 0.44468 0.89172 0.0
C357 C 0.51972 0.54667 1.00261 0.0
C358 C 0.38954 0.65614 0.90614 0.0
C359 C 0.59726 0.6058 0.89278 0.0
O360 O 0.57229 0.62439 0.92177 0.0
O361 O 0.56831 0.56468 0.87331 0.0
O362 O 0.51839 0.60869 0.99963 0.0
O363 O 0.50051 0.51239 0.97615 0.0
O364 O 0.18813 0.82229 0.67178 0.0
Cd365 Cd 0.21706 0.74183 0.699 0.0
Cd366 Cd 0.27013 0.72258 0.63587 0.0
O367 O 0.24785 0.8183 0.62331 0.0
O368 O 0.20382 0.76838 0.74964 0.0
O369 O 0.30013 0.7505 0.72616 0.0
C370 C 0.26585 0.76972 0.75262 0.0
C371 C 0.36785 0.66781 0.64172 0.0
C372 C 0.20672 0.84726 0.64278 0.0
C373 C 0.15638 0.63954 0.65614 0.0
O374 O 0.19118 0.66333 0.63164 0.0
O375 O 0.16381 0.65797 0.68813 0.0
O376 O 0.34486 0.68109 0.61067 0.0
O377 O 0.33838 0.69078 0.66908 0.0
O378 O 0.14919 0.44117 0.38163 0.0
Cd379 Cd 0.08993 0.52013 0.38587 0.0
Cd380 Cd 0.0707 0.46707 0.449 0.0
O381 O 0.15455 0.41382 0.43813 0.0
O382 O 0.13143 0.59486 0.36067 0.0
O383 O 0.12174 0.58838 0.41908 0.0
C384 C 0.14471 0.61785 0.39172 0.0
C385 C 0.0428 0.51586 0.50261 0.0
C386 C 0.17298 0.40638 0.40614 0.0
C387 C 0.96526 0.45672 0.39278 0.0
O388 O 0.99023 0.43813 0.42177 0.0
O389 O 0.99422 0.49785 0.37331 0.0
O390 O 0.04414 0.45383 0.49963 0.0
O391 O 0.06202 0.55013 0.47615 0.0
O392 O 0.37439 0.82229 0.36604 0.0
Cd393 Cd 0.34546 0.74183 0.33881 0.0
Cd394 Cd 0.29239 0.72258 0.40194 0.0
O395 O 0.31467 0.8183 0.4145 0.0
O396 O 0.3587 0.76838 0.28817 0.0
O397 O 0.2624 0.7505 0.31165 0.0
C398 C 0.29668 0.76972 0.2852 0.0
C399 C 0.19468 0.66781 0.39609 0.0
C400 C 0.3558 0.84726 0.39503 0.0
C401 C 0.40614 0.63954 0.38167 0.0
O402 O 0.37135 0.66333 0.40617 0.0
O403 O 0.39871 0.65797 0.34968 0.0
O404 O 0.21766 0.68109 0.42714 0.0
O405 O 0.22414 0.69078 0.36873 0.0
O406 O 0.14919 0.62135 0.15618 0.0
Cd407 Cd 0.08993 0.54239 0.15195 0.0
Cd408 Cd 0.0707 0.59545 0.08881 0.0
O409 O 0.15455 0.6487 0.09969 0.0
O410 O 0.13143 0.46767 0.17715 0.0
O411 O 0.12174 0.47415 0.11874 0.0
C412 C 0.14471 0.44469 0.1461 0.0
C413 C 0.0428 0.54667 0.0352 0.0
C414 C 0.17298 0.65614 0.13167 0.0
C415 C 0.96526 0.6058 0.14503 0.0
O416 O 0.99023 0.62439 0.11604 0.0
O417 O 0.99422 0.56468 0.1645 0.0
O418 O 0.04414 0.60869 0.03818 0.0
O419 O 0.06202 0.51239 0.06166 0.0
O420 O 0.18813 0.24024 0.86604 0.0
Cd421 Cd 0.21707 0.3207 0.83881 0.0
Cd422 Cd 0.27014 0.33994 0.90194 0.0
O423 O 0.24785 0.24422 0.9145 0.0
O424 O 0.20382 0.29414 0.78817 0.0
O425 O 0.30013 0.31202 0.81165 0.0
C426 C 0.26585 0.2928 0.7852 0.0
C427 C 0.36784 0.39471 0.89609 0.0
C428 C 0.20672 0.21527 0.89503 0.0
C429 C 0.15638 0.42298 0.88167 0.0
O430 O 0.19118 0.39919 0.90617 0.0
O431 O 0.16382 0.40455 0.84968 0.0
O432 O 0.34486 0.38144 0.92714 0.0
O433 O 0.33838 0.37174 0.86873 0.0
O434 O 0.41334 0.44117 0.65618 0.0
Cd435 Cd 0.47259 0.52013 0.65195 0.0
Cd436 Cd 0.49183 0.46707 0.58881 0.0
O437 O 0.40797 0.41382 0.59969 0.0
O438 O 0.43109 0.59486 0.67715 0.0
O439 O 0.44079 0.58838 0.61874 0.0
C440 C 0.41782 0.61784 0.6461 0.0
C441 C 0.51972 0.51586 0.5352 0.0
C442 C 0.38954 0.40638 0.63167 0.0
C443 C 0.59726 0.45672 0.64503 0.0
O444 O 0.57229 0.43814 0.61604 0.0
O445 O 0.56831 0.49785 0.6645 0.0
O446 O 0.51839 0.45383 0.53818 0.0
O447 O 0.50051 0.55013 0.56166 0.0
loop_
_geom_bond_atom_site_label_1
_geom_bond_atom_site_label_2
_geom_bond_distance
_geom_bond_site_symmetry_2
_ccdc_geom_bond_type
O0 Cd1 2.223 . S
O0 C8 1.315 . S
Cd1 O0 2.223 . S
Cd1 O4 2.297 . S
Cd1 O5 2.439 . S
Cd1 O11 2.240 . S
Cd2 O3 2.240 . S
Cd2 O10 2.223 . S
Cd2 O12 2.297 . S
Cd2 O13 2.439 . S
O3 Cd2 2.240 . S
O3 C8 1.279 . S
O4 Cd1 2.297 . S
O4 C6 1.247 . S
O5 Cd1 2.439 . S
O5 C6 1.208 . S
C6 O4 1.247 . S
C6 O5 1.208 . S
C7 O12 1.247 . S
C7 O13 1.208 . S
C8 O0 1.315 . S
C8 O3 1.279 . S
C9 O10 1.315 . S
C9 O11 1.279 . S
O10 Cd2 2.223 . S
O10 C9 1.315 . S
O11 Cd1 2.240 . S
O11 C9 1.279 . S
O12 Cd2 2.297 . S
O12 C7 1.247 . S
O13 Cd2 2.439 . S
O13 C7 1.208 . S
O14 Cd15 2.223 . S
O14 C22 1.315 . S
Cd15 O14 2.223 . S
Cd15 O18 2.297 1_565 S
Cd15 O19 2.439 1_565 S
Cd15 O25 2.240 1_455 S
Cd16 O17 2.240 . S
Cd16 O24 2.223 1_455 S
Cd16 O26 2.297 1_455 S
Cd16 O27 2.439 . S
O17 Cd16 2.240 . S
O17 C22 1.279 . S
O18 Cd15 2.297 1_545 S
O18 C20 1.247 . S
O19 Cd15 2.439 1_545 S
O19 C20 1.208 . S
C20 O18 1.247 . S
C20 O19 1.208 . S
C21 O26 1.247 1_455 S
C21 O27 1.208 . S
C22 O14 1.315 . S
C22 O17 1.279 . S
C23 O24 1.315 . S
C23 O25 1.279 . S
O24 Cd16 2.223 1_655 S
O24 C23 1.315 . S
O25 Cd15 2.240 1_655 S
O25 C23 1.279 . S
O26 Cd16 2.297 1_655 S
O26 C21 1.247 1_655 S
O27 Cd16 2.439 . S
O27 C21 1.208 . S
O28 Cd29 2.223 . S
O28 C36 1.315 . S
Cd29 O28 2.223 . S
Cd29 O32 2.297 . S
Cd29 O33 2.439 . S
Cd29 O39 2.240 . S
Cd30 O31 2.240 . S
Cd30 O38 2.223 . S
Cd30 O40 2.297 . S
Cd30 O41 2.439 . S
O31 Cd30 2.240 . S
O31 C36 1.279 . S
O32 Cd29 2.297 . S
O32 C34 1.247 . S
O33 Cd29 2.439 . S
O33 C34 1.208 . S
C34 O32 1.247 . S
C34 O33 1.208 . S
C35 O40 1.247 . S
C35 O41 1.208 . S
C36 O28 1.315 . S
C36 O31 1.279 . S
C37 O38 1.315 . S
C37 O39 1.279 . S
O38 Cd30 2.223 . S
O38 C37 1.315 . S
O39 Cd29 2.240 . S
O39 C37 1.279 . S
O40 Cd30 2.297 . S
O40 C35 1.247 . S
O41 Cd30 2.439 . S
O41 C35 1.208 . S
O42 Cd43 2.223 . S
O42 C50 1.315 . S
Cd43 O42 2.223 . S
Cd43 O46 2.297 1_545 S
Cd43 O47 2.439 1_545 S
Cd43 O53 2.240 . S
Cd44 O45 2.240 . S
Cd44 O52 2.223 . S
Cd44 O54 2.297 . S
Cd44 O55 2.439 . S
O45 Cd44 2.240 . S
O45 C50 1.279 . S
O46 Cd43 2.297 1_565 S
O46 C48 1.247 . S
O47 Cd43 2.439 1_565 S
O47 C48 1.208 . S
C48 O46 1.247 . S
C48 O47 1.208 . S
C49 O54 1.247 . S
C49 O55 1.208 . S
C50 O42 1.315 . S
C50 O45 1.279 . S
C51 O52 1.315 . S
C51 O53 1.279 . S
O52 Cd44 2.223 . S
O52 C51 1.315 . S
O53 Cd43 2.240 . S
O53 C51 1.279 . S
O54 Cd44 2.297 . S
O54 C49 1.247 . S
O55 Cd44 2.439 . S
O55 C49 1.208 . S
O56 Cd57 2.223 . S
O56 C64 1.315 . S
Cd57 O56 2.223 . S
Cd57 O60 2.297 . S
Cd57 O61 2.439 . S
Cd57 O67 2.240 . S
Cd58 O59 2.240 . S
Cd58 O66 2.223 . S
Cd58 O68 2.297 . S
Cd58 O69 2.439 . S
O59 Cd58 2.240 . S
O59 C64 1.279 . S
O60 Cd57 2.297 . S
O60 C62 1.247 . S
O61 Cd57 2.439 . S
O61 C62 1.208 . S
C62 O60 1.247 . S
C62 O61 1.208 . S
C63 O68 1.247 . S
C63 O69 1.208 . S
C64 O56 1.315 . S
C64 O59 1.279 . S
C65 O66 1.315 . S
C65 O67 1.279 . S
O66 Cd58 2.223 . S
O66 C65 1.315 . S
O67 Cd57 2.240 . S
O67 C65 1.279 . S
O68 Cd58 2.297 . S
O68 C63 1.247 . S
O69 Cd58 2.439 . S
O69 C63 1.208 . S
O70 Cd71 2.223 . S
O70 C78 1.315 . S
Cd71 O70 2.223 . S
Cd71 O74 2.297 1_565 S
Cd71 O75 2.439 1_565 S
Cd71 O81 2.240 . S
Cd72 O73 2.240 . S
Cd72 O80 2.223 . S
Cd72 O82 2.297 . S
Cd72 O83 2.439 . S
O73 Cd72 2.240 . S
O73 C78 1.279 . S
O74 Cd71 2.297 1_545 S
O74 C76 1.247 . S
O75 Cd71 2.439 1_545 S
O75 C76 1.208 . S
C76 O74 1.247 . S
C76 O75 1.208 . S
C77 O82 1.247 . S
C77 O83 1.208 . S
C78 O70 1.315 . S
C78 O73 1.279 . S
C79 O80 1.315 . S
C79 O81 1.279 . S
O80 Cd72 2.223 . S
O80 C79 1.315 . S
O81 Cd71 2.240 . S
O81 C79 1.279 . S
O82 Cd72 2.297 . S
O82 C77 1.247 . S
O83 Cd72 2.439 . S
O83 C77 1.208 . S
O84 Cd85 2.223 . S
O84 C92 1.315 . S
Cd85 O84 2.223 . S
Cd85 O88 2.297 . S
Cd85 O89 2.439 . S
Cd85 O95 2.240 . S
Cd86 O87 2.240 . S
Cd86 O94 2.223 . S
Cd86 O96 2.297 . S
Cd86 O97 2.439 . S
O87 Cd86 2.240 . S
O87 C92 1.279 . S
O88 Cd85 2.297 . S
O88 C90 1.247 . S
O89 Cd85 2.439 . S
O89 C90 1.208 . S
C90 O88 1.247 . S
C90 O89 1.208 . S
C91 O96 1.247 . S
C91 O97 1.208 . S
C92 O84 1.315 . S
C92 O87 1.279 . S
C93 O94 1.315 . S
C93 O95 1.279 . S
O94 Cd86 2.223 . S
O94 C93 1.315 . S
O95 Cd85 2.240 . S
O95 C93 1.279 . S
O96 Cd86 2.297 . S
O96 C91 1.247 . S
O97 Cd86 2.439 . S
O97 C91 1.208 . S
O98 Cd99 2.223 . S
O98 C106 1.315 . S
Cd99 O98 2.223 . S
Cd99 O102 2.297 1_545 S
Cd99 O103 2.439 1_545 S
Cd99 O109 2.240 1_455 S
Cd100 O101 2.240 . S
Cd100 O108 2.223 1_455 S
Cd100 O110 2.297 1_455 S
Cd100 O111 2.439 . S
O101 Cd100 2.240 . S
O101 C106 1.279 . S
O102 Cd99 2.297 1_565 S
O102 C104 1.247 . S
O103 Cd99 2.439 1_565 S
O103 C104 1.208 . S
C104 O102 1.247 . S
C104 O103 1.208 . S
C105 O110 1.247 1_455 S
C105 O111 1.208 . S
C106 O98 1.315 . S
C106 O101 1.279 . S
C107 O108 1.315 . S
C107 O109 1.279 . S
O108 Cd100 2.223 1_655 S
O108 C107 1.315 . S
O109 Cd99 2.240 1_655 S
O109 C107 1.279 . S
O110 Cd100 2.297 1_655 S
O110 C105 1.247 1_655 S
O111 Cd100 2.439 . S
O111 C105 1.208 . S
O112 Cd113 2.223 . S
O112 C120 1.315 . S
Cd113 O112 2.223 . S
Cd113 O116 2.297 . S
Cd113 O117 2.439 . S
Cd113 O123 2.240 . S
Cd114 O115 2.240 . S
Cd114 O122 2.223 . S
Cd114 O124 2.297 . S
Cd114 O125 2.439 . S
O115 Cd114 2.240 . S
O115 C120 1.279 . S
O116 Cd113 2.297 . S
O116 C118 1.247 . S
O117 Cd113 2.439 . S
O117 C118 1.208 . S
C118 O116 1.247 . S
C118 O117 1.208 . S
C119 O124 1.247 . S
C119 O125 1.208 . S
C120 O112 1.315 . S
C120 O115 1.279 . S
C121 O122 1.315 . S
C121 O123 1.279 . S
O122 Cd114 2.223 . S
O122 C121 1.315 . S
O123 Cd113 2.240 . S
O123 C121 1.279 . S
O124 Cd114 2.297 . S
O124 C119 1.247 . S
O125 Cd114 2.439 . S
O125 C119 1.208 . S
O126 Cd127 2.223 . S
O126 C134 1.315 . S
Cd127 O126 2.223 . S
Cd127 O130 2.297 1_545 S
Cd127 O131 2.439 1_545 S
Cd127 O137 2.240 1_655 S
Cd128 O129 2.240 . S
Cd128 O136 2.223 1_655 S
Cd128 O138 2.297 1_655 S
Cd128 O139 2.439 . S
O129 Cd128 2.240 . S
O129 C134 1.279 . S
O130 Cd127 2.297 1_565 S
O130 C132 1.247 . S
O131 Cd127 2.439 1_565 S
O131 C132 1.208 . S
C132 O130 1.247 . S
C132 O131 1.208 . S
C133 O138 1.247 1_655 S
C133 O139 1.208 . S
C134 O126 1.315 . S
C134 O129 1.279 . S
C135 O136 1.315 . S
C135 O137 1.279 . S
O136 Cd128 2.223 1_455 S
O136 C135 1.315 . S
O137 Cd127 2.240 1_455 S
O137 C135 1.279 . S
O138 Cd128 2.297 1_455 S
O138 C133 1.247 1_455 S
O139 Cd128 2.439 . S
O139 C133 1.208 . S
O140 Cd141 2.223 . S
O140 C148 1.315 . S
Cd141 O140 2.223 . S
Cd141 O144 2.297 . S
Cd141 O145 2.439 . S
Cd141 O151 2.240 . S
Cd142 O143 2.240 . S
Cd142 O150 2.223 . S
Cd142 O152 2.297 . S
Cd142 O153 2.439 . S
O143 Cd142 2.240 . S
O143 C148 1.279 . S
O144 Cd141 2.297 . S
O144 C146 1.247 . S
O145 Cd141 2.439 . S
O145 C146 1.208 . S
C146 O144 1.247 . S
C146 O145 1.208 . S
C147 O152 1.247 . S
C147 O153 1.208 . S
C148 O140 1.315 . S
C148 O143 1.279 . S
C149 O150 1.315 . S
C149 O151 1.279 . S
O150 Cd142 2.223 . S
O150 C149 1.315 . S
O151 Cd141 2.240 . S
O151 C149 1.279 . S
O152 Cd142 2.297 . S
O152 C147 1.247 . S
O153 Cd142 2.439 . S
O153 C147 1.208 . S
O154 Cd155 2.223 . S
O154 C162 1.315 . S
Cd155 O154 2.223 . S
Cd155 O158 2.297 1_565 S
Cd155 O159 2.439 1_565 S
Cd155 O165 2.240 . S
Cd156 O157 2.240 . S
Cd156 O164 2.223 . S
Cd156 O166 2.297 . S
Cd156 O167 2.439 . S
O157 Cd156 2.240 . S
O157 C162 1.279 . S
O158 Cd155 2.297 1_545 S
O158 C160 1.247 . S
O159 Cd155 2.439 1_545 S
O159 C160 1.208 . S
C160 O158 1.247 . S
C160 O159 1.208 . S
C161 O166 1.247 . S
C161 O167 1.208 . S
C162 O154 1.315 . S
C162 O157 1.279 . S
C163 O164 1.315 . S
C163 O165 1.279 . S
O164 Cd156 2.223 . S
O164 C163 1.315 . S
O165 Cd155 2.240 . S
O165 C163 1.279 . S
O166 Cd156 2.297 . S
O166 C161 1.247 . S
O167 Cd156 2.439 . S
O167 C161 1.208 . S
O168 Cd169 2.223 . S
O168 C176 1.315 . S
Cd169 O168 2.223 . S
Cd169 O172 2.297 . S
Cd169 O173 2.439 . S
Cd169 O179 2.240 . S
Cd170 O171 2.240 . S
Cd170 O178 2.223 . S
Cd170 O180 2.297 . S
Cd170 O181 2.439 . S
O171 Cd170 2.240 . S
O171 C176 1.279 . S
O172 Cd169 2.297 . S
O172 C174 1.247 . S
O173 Cd169 2.439 . S
O173 C174 1.208 . S
C174 O172 1.247 . S
C174 O173 1.208 . S
C175 O180 1.247 . S
C175 O181 1.208 . S
C176 O168 1.315 . S
C176 O171 1.279 . S
C177 O178 1.315 . S
C177 O179 1.279 . S
O178 Cd170 2.223 . S
O178 C177 1.315 . S
O179 Cd169 2.240 . S
O179 C177 1.279 . S
O180 Cd170 2.297 . S
O180 C175 1.247 . S
O181 Cd170 2.439 . S
O181 C175 1.208 . S
O182 Cd183 2.223 . S
O182 C190 1.315 . S
Cd183 O182 2.223 . S
Cd183 O186 2.297 1_545 S
Cd183 O187 2.439 1_545 S
Cd183 O193 2.240 . S
Cd184 O185 2.240 . S
Cd184 O192 2.223 . S
Cd184 O194 2.297 . S
Cd184 O195 2.439 . S
O185 Cd184 2.240 . S
O185 C190 1.279 . S
O186 Cd183 2.297 1_565 S
O186 C188 1.247 . S
O187 Cd183 2.439 1_565 S
O187 C188 1.208 . S
C188 O186 1.247 . S
C188 O187 1.208 . S
C189 O194 1.247 . S
C189 O195 1.208 . S
C190 O182 1.315 . S
C190 O185 1.279 . S
C191 O192 1.315 . S
C191 O193 1.279 . S
O192 Cd184 2.223 . S
O192 C191 1.315 . S
O193 Cd183 2.240 . S
O193 C191 1.279 . S
O194 Cd184 2.297 . S
O194 C189 1.247 . S
O195 Cd184 2.439 . S
O195 C189 1.208 . S
O196 Cd197 2.223 . S
O196 C204 1.315 . S
Cd197 O196 2.223 . S
Cd197 O200 2.297 . S
Cd197 O201 2.439 . S
Cd197 O207 2.240 . S
Cd198 O199 2.240 . S
Cd198 O206 2.223 . S
Cd198 O208 2.297 . S
Cd198 O209 2.439 . S
O199 Cd198 2.240 . S
O199 C204 1.279 . S
O200 Cd197 2.297 . S
O200 C202 1.247 . S
O201 Cd197 2.439 . S
O201 C202 1.208 . S
C202 O200 1.247 . S
C202 O201 1.208 . S
C203 O208 1.247 . S
C203 O209 1.208 . S
C204 O196 1.315 . S
C204 O199 1.279 . S
C205 O206 1.315 . S
C205 O207 1.279 . S
O206 Cd198 2.223 . S
O206 C205 1.315 . S
O207 Cd197 2.240 . S
O207 C205 1.279 . S
O208 Cd198 2.297 . S
O208 C203 1.247 . S
O209 Cd198 2.439 . S
O209 C203 1.208 . S
O210 Cd211 2.223 . S
O210 C218 1.315 . S
Cd211 O210 2.223 . S
Cd211 O214 2.297 1_565 S
Cd211 O215 2.439 1_565 S
Cd211 O221 2.240 1_655 S
Cd212 O213 2.240 . S
Cd212 O220 2.223 1_655 S
Cd212 O222 2.297 1_655 S
Cd212 O223 2.439 . S
O213 Cd212 2.240 . S
O213 C218 1.279 . S
O214 Cd211 2.297 1_545 S
O214 C216 1.247 . S
O215 Cd211 2.439 1_545 S
O215 C216 1.208 . S
C216 O214 1.247 . S
C216 O215 1.208 . S
C217 O222 1.247 1_655 S
C217 O223 1.208 . S
C218 O210 1.315 . S
C218 O213 1.279 . S
C219 O220 1.315 . S
C219 O221 1.279 . S
O220 Cd212 2.223 1_455 S
O220 C219 1.315 . S
O221 Cd211 2.240 1_455 S
O221 C219 1.279 . S
O222 Cd212 2.297 1_455 S
O222 C217 1.247 1_455 S
O223 Cd212 2.439 . S
O223 C217 1.208 . S
O224 Cd225 2.223 . S
O224 C232 1.315 . S
Cd225 O224 2.223 . S
Cd225 O228 2.297 . S
Cd225 O229 2.439 . S
Cd225 O235 2.240 . S
Cd226 O227 2.240 . S
Cd226 O234 2.223 . S
Cd226 O236 2.297 . S
Cd226 O237 2.439 . S
O227 Cd226 2.240 . S
O227 C232 1.279 . S
O228 Cd225 2.297 . S
O228 C230 1.247 . S
O229 Cd225 2.439 . S
O229 C230 1.208 . S
C230 O228 1.247 . S
C230 O229 1.208 . S
C231 O236 1.247 . S
C231 O237 1.208 . S
C232 O224 1.315 . S
C232 O227 1.279 . S
C233 O234 1.315 . S
C233 O235 1.279 . S
O234 Cd226 2.223 . S
O234 C233 1.315 . S
O235 Cd225 2.240 . S
O235 C233 1.279 . S
O236 Cd226 2.297 . S
O236 C231 1.247 . S
O237 Cd226 2.439 . S
O237 C231 1.208 . S
O238 Cd239 2.223 . S
O238 C246 1.315 . S
Cd239 O238 2.223 . S
Cd239 O242 2.297 . S
Cd239 O243 2.439 . S
Cd239 O249 2.240 . S
Cd240 O241 2.240 . S
Cd240 O248 2.223 . S
Cd240 O250 2.297 . S
Cd240 O251 2.439 . S
O241 Cd240 2.240 . S
O241 C246 1.279 . S
O242 Cd239 2.297 . S
O242 C244 1.247 . S
O243 Cd239 2.439 . S
O243 C244 1.208 . S
C244 O242 1.247 . S
C244 O243 1.208 . S
C245 O250 1.247 . S
C245 O251 1.208 . S
C246 O238 1.315 . S
C246 O241 1.279 . S
C247 O248 1.315 . S
C247 O249 1.279 . S
O248 Cd240 2.223 . S
O248 C247 1.315 . S
O249 Cd239 2.240 . S
O249 C247 1.279 . S
O250 Cd240 2.297 . S
O250 C245 1.247 . S
O251 Cd240 2.439 . S
O251 C245 1.208 . S
O252 Cd253 2.223 . S
O252 C260 1.315 . S
Cd253 O252 2.223 . S
Cd253 O256 2.297 . S
Cd253 O257 2.439 . S
Cd253 O263 2.240 . S
Cd254 O255 2.240 . S
Cd254 O262 2.223 . S
Cd254 O264 2.297 . S
Cd254 O265 2.439 . S
O255 Cd254 2.240 . S
O255 C260 1.279 . S
O256 Cd253 2.297 . S
O256 C258 1.247 . S
O257 Cd253 2.439 . S
O257 C258 1.208 . S
C258 O256 1.247 . S
C258 O257 1.208 . S
C259 O264 1.247 . S
C259 O265 1.208 . S
C260 O252 1.315 . S
C260 O255 1.279 . S
C261 O262 1.315 . S
C261 O263 1.279 . S
O262 Cd254 2.223 . S
O262 C261 1.315 . S
O263 Cd253 2.240 . S
O263 C261 1.279 . S
O264 Cd254 2.297 . S
O264 C259 1.247 . S
O265 Cd254 2.439 . S
O265 C259 1.208 . S
O266 Cd267 2.223 . S
O266 C274 1.315 . S
Cd267 O266 2.223 . S
Cd267 O270 2.297 . S
Cd267 O271 2.439 . S
Cd267 O277 2.240 1_655 S
Cd268 O269 2.240 . S
Cd268 O276 2.223 1_655 S
Cd268 O278 2.297 1_655 S
Cd268 O279 2.439 . S
O269 Cd268 2.240 . S
O269 C274 1.279 . S
O270 Cd267 2.297 . S
O270 C272 1.247 . S
O271 Cd267 2.439 . S
O271 C272 1.208 . S
C272 O270 1.247 . S
C272 O271 1.208 . S
C273 O278 1.247 1_655 S
C273 O279 1.208 . S
C274 O266 1.315 . S
C274 O269 1.279 . S
C275 O276 1.315 . S
C275 O277 1.279 . S
O276 Cd268 2.223 1_455 S
O276 C275 1.315 . S
O277 Cd267 2.240 1_455 S
O277 C275 1.279 . S
O278 Cd268 2.297 1_455 S
O278 C273 1.247 1_455 S
O279 Cd268 2.439 . S
O279 C273 1.208 . S
O280 Cd281 2.223 . S
O280 C288 1.315 . S
Cd281 O280 2.223 . S
Cd281 O284 2.297 . S
Cd281 O285 2.439 . S
Cd281 O291 2.240 . S
Cd282 O283 2.240 . S
Cd282 O290 2.223 . S
Cd282 O292 2.297 . S
Cd282 O293 2.439 . S
O283 Cd282 2.240 . S
O283 C288 1.279 . S
O284 Cd281 2.297 . S
O284 C286 1.247 . S
O285 Cd281 2.439 . S
O285 C286 1.208 . S
C286 O284 1.247 . S
C286 O285 1.208 . S
C287 O292 1.247 . S
C287 O293 1.208 . S
C288 O280 1.315 . S
C288 O283 1.279 . S
C289 O290 1.315 . S
C289 O291 1.279 . S
O290 Cd282 2.223 . S
O290 C289 1.315 . S
O291 Cd281 2.240 . S
O291 C289 1.279 . S
O292 Cd282 2.297 . S
O292 C287 1.247 . S
O293 Cd282 2.439 . S
O293 C287 1.208 . S
O294 Cd295 2.223 . S
O294 C302 1.315 . S
Cd295 O294 2.223 . S
Cd295 O298 2.297 . S
Cd295 O299 2.439 . S
Cd295 O305 2.240 1_655 S
Cd296 O297 2.240 . S
Cd296 O304 2.223 1_655 S
Cd296 O306 2.297 1_655 S
Cd296 O307 2.439 . S
O297 Cd296 2.240 . S
O297 C302 1.279 . S
O298 Cd295 2.297 . S
O298 C300 1.247 . S
O299 Cd295 2.439 . S
O299 C300 1.208 . S
C300 O298 1.247 . S
C300 O299 1.208 . S
C301 O306 1.247 1_655 S
C301 O307 1.208 . S
C302 O294 1.315 . S
C302 O297 1.279 . S
C303 O304 1.315 . S
C303 O305 1.279 . S
O304 Cd296 2.223 1_455 S
O304 C303 1.315 . S
O305 Cd295 2.240 1_455 S
O305 C303 1.279 . S
O306 Cd296 2.297 1_455 S
O306 C301 1.247 1_455 S
O307 Cd296 2.439 . S
O307 C301 1.208 . S
O308 Cd309 2.223 . S
O308 C316 1.315 . S
Cd309 O308 2.223 . S
Cd309 O312 2.297 . S
Cd309 O313 2.439 . S
Cd309 O319 2.240 . S
Cd310 O311 2.240 . S
Cd310 O318 2.223 . S
Cd310 O320 2.297 . S
Cd310 O321 2.439 . S
O311 Cd310 2.240 . S
O311 C316 1.279 . S
O312 Cd309 2.297 . S
O312 C314 1.247 . S
O313 Cd309 2.439 . S
O313 C314 1.208 . S
C314 O312 1.247 . S
C314 O313 1.208 . S
C315 O320 1.247 . S
C315 O321 1.208 . S
C316 O308 1.315 . S
C316 O311 1.279 . S
C317 O318 1.315 . S
C317 O319 1.279 . S
O318 Cd310 2.223 . S
O318 C317 1.315 . S
O319 Cd309 2.240 . S
O319 C317 1.279 . S
O320 Cd310 2.297 . S
O320 C315 1.247 . S
O321 Cd310 2.439 . S
O321 C315 1.208 . S
O322 Cd323 2.223 . S
O322 C330 1.315 . S
Cd323 O322 2.223 . S
Cd323 O326 2.297 . S
Cd323 O327 2.439 . S
Cd323 O333 2.240 . S
Cd324 O325 2.240 . S
Cd324 O332 2.223 . S
Cd324 O334 2.297 . S
Cd324 O335 2.439 . S
O325 Cd324 2.240 . S
O325 C330 1.279 . S
O326 Cd323 2.297 . S
O326 C328 1.247 . S
O327 Cd323 2.439 . S
O327 C328 1.208 . S
C328 O326 1.247 . S
C328 O327 1.208 . S
C329 O334 1.247 . S
C329 O335 1.208 . S
C330 O322 1.315 . S
C330 O325 1.279 . S
C331 O332 1.315 . S
C331 O333 1.279 . S
O332 Cd324 2.223 . S
O332 C331 1.315 . S
O333 Cd323 2.240 . S
O333 C331 1.279 . S
O334 Cd324 2.297 . S
O334 C329 1.247 . S
O335 Cd324 2.439 . S
O335 C329 1.208 . S
O336 Cd337 2.223 . S
O336 C344 1.315 . S
Cd337 O336 2.223 . S
Cd337 O340 2.297 . S
Cd337 O341 2.439 . S
Cd337 O347 2.240 . S
Cd338 O339 2.240 . S
Cd338 O346 2.223 . S
Cd338 O348 2.297 . S
Cd338 O349 2.439 . S
O339 Cd338 2.240 . S
O339 C344 1.279 . S
O340 Cd337 2.297 . S
O340 C342 1.247 . S
O341 Cd337 2.439 . S
O341 C342 1.208 . S
C342 O340 1.247 . S
C342 O341 1.208 . S
C343 O348 1.247 . S
C343 O349 1.208 . S
C344 O336 1.315 . S
C344 O339 1.279 . S
C345 O346 1.315 . S
C345 O347 1.279 . S
O346 Cd338 2.223 . S
O346 C345 1.315 . S
O347 Cd337 2.240 . S
O347 C345 1.279 . S
O348 Cd338 2.297 . S
O348 C343 1.247 . S
O349 Cd338 2.439 . S
O349 C343 1.208 . S
O350 Cd351 2.223 . S
O350 C358 1.315 . S
Cd351 O350 2.223 . S
Cd351 O354 2.297 . S
Cd351 O355 2.439 . S
Cd351 O361 2.240 . S
Cd352 O353 2.240 . S
Cd352 O360 2.223 . S
Cd352 O362 2.297 . S
Cd352 O363 2.439 . S
O353 Cd352 2.240 . S
O353 C358 1.279 . S
O354 Cd351 2.297 . S
O354 C356 1.247 . S
O355 Cd351 2.439 . S
O355 C356 1.208 . S
C356 O354 1.247 . S
C356 O355 1.208 . S
C357 O362 1.247 . S
C357 O363 1.208 . S
C358 O350 1.315 . S
C358 O353 1.279 . S
C359 O360 1.315 . S
C359 O361 1.279 . S
O360 Cd352 2.223 . S
O360 C359 1.315 . S
O361 Cd351 2.240 . S
O361 C359 1.279 . S
O362 Cd352 2.297 . S
O362 C357 1.247 . S
O363 Cd352 2.439 . S
O363 C357 1.208 . S
O364 Cd365 2.223 . S
O364 C372 1.315 . S
Cd365 O364 2.223 . S
Cd365 O368 2.297 . S
Cd365 O369 2.439 . S
Cd365 O375 2.240 . S
Cd366 O367 2.240 . S
Cd366 O374 2.223 . S
Cd366 O376 2.297 . S
Cd366 O377 2.439 . S
O367 Cd366 2.240 . S
O367 C372 1.279 . S
O368 Cd365 2.297 . S
O368 C370 1.247 . S
O369 Cd365 2.439 . S
O369 C370 1.208 . S
C370 O368 1.247 . S
C370 O369 1.208 . S
C371 O376 1.247 . S
C371 O377 1.208 . S
C372 O364 1.315 . S
C372 O367 1.279 . S
C373 O374 1.315 . S
C373 O375 1.279 . S
O374 Cd366 2.223 . S
O374 C373 1.315 . S
O375 Cd365 2.240 . S
O375 C373 1.279 . S
O376 Cd366 2.297 . S
O376 C371 1.247 . S
O377 Cd366 2.439 . S
O377 C371 1.208 . S
O378 Cd379 2.223 . S
O378 C386 1.315 . S
Cd379 O378 2.223 . S
Cd379 O382 2.297 . S
Cd379 O383 2.439 . S
Cd379 O389 2.240 1_455 S
Cd380 O381 2.240 . S
Cd380 O388 2.223 1_455 S
Cd380 O390 2.297 1_455 S
Cd380 O391 2.439 . S
O381 Cd380 2.240 . S
O381 C386 1.279 . S
O382 Cd379 2.297 . S
O382 C384 1.247 . S
O383 Cd379 2.439 . S
O383 C384 1.208 . S
C384 O382 1.247 . S
C384 O383 1.208 . S
C385 O390 1.247 1_455 S
C385 O391 1.208 . S
C386 O378 1.315 . S
C386 O381 1.279 . S
C387 O388 1.315 . S
C387 O389 1.279 . S
O388 Cd380 2.223 1_655 S
O388 C387 1.315 . S
O389 Cd379 2.240 1_655 S
O389 C387 1.279 . S
O390 Cd380 2.297 1_655 S
O390 C385 1.247 1_655 S
O391 Cd380 2.439 . S
O391 C385 1.208 . S
O392 Cd393 2.223 . S
O392 C400 1.315 . S
Cd393 O392 2.223 . S
Cd393 O396 2.297 . S
Cd393 O397 2.439 . S
Cd393 O403 2.240 . S
Cd394 O395 2.240 . S
Cd394 O402 2.223 . S
Cd394 O404 2.297 . S
Cd394 O405 2.439 . S
O395 Cd394 2.240 . S
O395 C400 1.279 . S
O396 Cd393 2.297 . S
O396 C398 1.247 . S
O397 Cd393 2.439 . S
O397 C398 1.208 . S
C398 O396 1.247 . S
C398 O397 1.208 . S
C399 O404 1.247 . S
C399 O405 1.208 . S
C400 O392 1.315 . S
C400 O395 1.279 . S
C401 O402 1.315 . S
C401 O403 1.279 . S
O402 Cd394 2.223 . S
O402 C401 1.315 . S
O403 Cd393 2.240 . S
O403 C401 1.279 . S
O404 Cd394 2.297 . S
O404 C399 1.247 . S
O405 Cd394 2.439 . S
O405 C399 1.208 . S
O406 Cd407 2.223 . S
O406 C414 1.315 . S
Cd407 O406 2.223 . S
Cd407 O410 2.297 . S
Cd407 O411 2.439 . S
Cd407 O417 2.240 1_455 S
Cd408 O409 2.240 . S
Cd408 O416 2.223 1_455 S
Cd408 O418 2.297 1_455 S
Cd408 O419 2.439 . S
O409 Cd408 2.240 . S
O409 C414 1.279 . S
O410 Cd407 2.297 . S
O410 C412 1.247 . S
O411 Cd407 2.439 . S
O411 C412 1.208 . S
C412 O410 1.247 . S
C412 O411 1.208 . S
C413 O418 1.247 1_455 S
C413 O419 1.208 . S
C414 O406 1.315 . S
C414 O409 1.279 . S
C415 O416 1.315 . S
C415 O417 1.279 . S
O416 Cd408 2.223 1_655 S
O416 C415 1.315 . S
O417 Cd407 2.240 1_655 S
O417 C415 1.279 . S
O418 Cd408 2.297 1_655 S
O418 C413 1.247 1_655 S
O419 Cd408 2.439 . S
O419 C413 1.208 . S
O420 Cd421 2.223 . S
O420 C428 1.315 . S
Cd421 O420 2.223 . S
Cd421 O424 2.297 . S
Cd421 O425 2.439 . S
Cd421 O431 2.240 . S
Cd422 O423 2.240 . S
Cd422 O430 2.223 . S
Cd422 O432 2.297 . S
Cd422 O433 2.439 . S
O423 Cd422 2.240 . S
O423 C428 1.279 . S
O424 Cd421 2.297 . S
O424 C426 1.247 . S
O425 Cd421 2.439 . S
O425 C426 1.208 . S
C426 O424 1.247 . S
C426 O425 1.208 . S
C427 O432 1.247 . S
C427 O433 1.208 . S
C428 O420 1.315 . S
C428 O423 1.279 . S
C429 O430 1.315 . S
C429 O431 1.279 . S
O430 Cd422 2.223 . S
O430 C429 1.315 . S
O431 Cd421 2.240 . S
O431 C429 1.279 . S
O432 Cd422 2.297 . S
O432 C427 1.247 . S
O433 Cd422 2.439 . S
O433 C427 1.208 . S
O434 Cd435 2.223 . S
O434 C442 1.315 . S
Cd435 O434 2.223 . S
Cd435 O438 2.297 . S
Cd435 O439 2.439 . S
Cd435 O445 2.240 . S
Cd436 O437 2.240 . S
Cd436 O444 2.223 . S
Cd436 O446 2.297 . S
Cd436 O447 2.439 . S
O437 Cd436 2.240 . S
O437 C442 1.279 . S
O438 Cd435 2.297 . S
O438 C440 1.247 . S
O439 Cd435 2.439 . S
O439 C440 1.208 . S
C440 O438 1.247 . S
C440 O439 1.208 . S
C441 O446 1.247 . S
C441 O447 1.208 . S
C442 O434 1.315 . S
C442 O437 1.279 . S
C443 O444 1.315 . S
C443 O445 1.279 . S
O444 Cd436 2.223 . S
O444 C443 1.315 . S
O445 Cd435 2.240 . S
O445 C443 1.279 . S
O446 Cd436 2.297 . S
O446 C441 1.247 . S
O447 Cd436 2.439 . S
O447 C441 1.208 . S
C386 C9 1.626 . S
C23 C121 1.627 . S
C358 C37 1.626 . S
C51 C149 1.627 . S
C65 C414 1.626 . S
C79 C205 1.627 . S
C93 C442 1.626 . S
C107 C177 1.627 . S
C274 C120 1.627 . S
C8 C135 1.626 . S
C246 C148 1.627 . S
C163 C36 1.626 . S
C302 C176 1.627 . S
C92 C191 1.626 . S
C204 C330 1.626 . S
C64 C219 1.626 . S
C233 C162 1.626 . S
C247 C345 1.627 . S
C134 C261 1.626 . S
C373 C275 1.627 . S
C190 C289 1.626 . S
C429 C303 1.627 . S
C218 C317 1.626 . S
C331 C401 1.627 . S
C50 C344 1.627 . S
C359 C232 1.626 . S
C372 C22 1.627 . S
C387 C260 1.626 . S
C400 C78 1.627 . S
C415 C316 1.626 . S
C428 C106 1.626 . S
C443 C288 1.626 . S
C342 C7 1.735 . S
C21 C133 1.735 1_465 S
C370 C35 1.735 . S
C49 C161 1.735 1_544 S
C398 C63 1.735 . S
C77 C189 1.735 1_565 S
C426 C91 1.735 . S
C105 C217 1.735 1_446 S
C118 C231 1.735 . S
C146 C259 1.735 . S
C174 C287 1.735 . S
C202 C315 1.735 . S
C245 C357 1.735 1_554 S
C385 C273 1.735 1_455 S
C413 C301 1.735 1_454 S
C329 C441 1.735 . S
C6 C76 1.413 . S
C20 C90 1.413 . S
C34 C104 1.413 . S
C62 C48 1.413 . S
C119 C188 1.413 . S
C132 C203 1.413 . S
C147 C216 1.413 . S
C160 C175 1.413 . S
C230 C300 1.413 . S
C314 C244 1.413 . S
C258 C328 1.413 . S
C272 C286 1.413 . S
C412 C343 1.413 . S
C356 C427 1.413 . S
C440 C371 1.413 . S
C384 C399 1.413 . S
