# Generated by pormake.
# Topology wkq, (6)-cn, num edge types: 1
# Building blocks:
#     Node 0, Type 0, BuildingBlock: OJICUG_clean_sbu_0, # of connection points: 6
#     Node 1, Type 0, BuildingBlock: OJICUG_clean_sbu_0, # of connection points: 6
#     Node 2, Type 0, BuildingBlock: OJICUG_clean_sbu_0, # of connection points: 6
#     Node 3, Type 0, BuildingBlock: OJICUG_clean_sbu_0, # of connection points: 6
#     Node 4, Type 0, BuildingBlock: OJICUG_clean_sbu_0, # of connection points: 6
#     Node 5, Type 0, BuildingBlock: OJICUG_clean_sbu_0, # of connection points: 6
#     Node 6, Type 0, BuildingBlock: OJICUG_clean_sbu_0, # of connection points: 6
#     Node 7, Type 0, BuildingBlock: OJICUG_clean_sbu_0, # of connection points: 6
#     Node 8, Type 0, BuildingBlock: OJICUG_clean_sbu_0, # of connection points: 6
#     Node 9, Type 0, BuildingBlock: OJICUG_clean_sbu_0, # of connection points: 6
#     Node 10, Type 0, BuildingBlock: OJICUG_clean_sbu_0, # of connection points: 6
#     Node 11, Type 0, BuildingBlock: OJICUG_clean_sbu_0, # of connection points: 6
#     Edge 12, Type (0, 0), BuildingBlock: XUDNAN_clean_linker_2, # of connection points: 2
#     Edge 13, Type (0, 0), BuildingBlock: XUDNAN_clean_linker_2, # of connection points: 2
#     Edge 14, Type (0, 0), BuildingBlock: XUDNAN_clean_linker_2, # of connection points: 2
#     Edge 15, Type (0, 0), BuildingBlock: XUDNAN_clean_linker_2, # of connection points: 2
#     Edge 16, Type (0, 0), BuildingBlock: XUDNAN_clean_linker_2, # of connection points: 2
#     Edge 17, Type (0, 0), BuildingBlock: XUDNAN_clean_linker_2, # of connection points: 2
#     Edge 18, Type (0, 0), BuildingBlock: XUDNAN_clean_linker_2, # of connection points: 2
#     Edge 19, Type (0, 0), BuildingBlock: XUDNAN_clean_linker_2, # of connection points: 2
#     Edge 20, Type (0, 0), BuildingBlock: XUDNAN_clean_linker_2, # of connection points: 2
#     Edge 21, Type (0, 0), BuildingBlock: XUDNAN_clean_linker_2, # of connection points: 2
#     Edge 22, Type (0, 0), BuildingBlock: XUDNAN_clean_linker_2, # of connection points: 2
#     Edge 23, Type (0, 0), BuildingBlock: XUDNAN_clean_linker_2, # of connection points: 2
#     Edge 24, Type (0, 0), BuildingBlock: XUDNAN_clean_linker_2, # of connection points: 2
#     Edge 25, Type (0, 0), BuildingBlock: XUDNAN_clean_linker_2, # of connection points: 2
#     Edge 26, Type (0, 0), BuildingBlock: XUDNAN_clean_linker_2, # of connection points: 2
#     Edge 27, Type (0, 0), BuildingBlock: XUDNAN_clean_linker_2, # of connection points: 2
#     Edge 28, Type (0, 0), BuildingBlock: XUDNAN_clean_linker_2, # of connection points: 2
#     Edge 29, Type (0, 0), BuildingBlock: XUDNAN_clean_linker_2, # of connection points: 2
#     Edge 30, Type (0, 0), BuildingBlock: XUDNAN_clean_linker_2, # of connection points: 2
#     Edge 31, Type (0, 0), BuildingBlock: XUDNAN_clean_linker_2, # of connection points: 2
#     Edge 32, Type (0, 0), BuildingBlock: XUDNAN_clean_linker_2, # of connection points: 2
#     Edge 33, Type (0, 0), BuildingBlock: XUDNAN_clean_linker_2, # of connection points: 2
#     Edge 34, Type (0, 0), BuildingBlock: XUDNAN_clean_linker_2, # of connection points: 2
#     Edge 35, Type (0, 0), BuildingBlock: XUDNAN_clean_linker_2, # of connection points: 2
#     Edge 36, Type (0, 0), BuildingBlock: XUDNAN_clean_linker_2, # of connection points: 2
#     Edge 37, Type (0, 0), BuildingBlock: XUDNAN_clean_linker_2, # of connection points: 2
#     Edge 38, Type (0, 0), BuildingBlock: XUDNAN_clean_linker_2, # of connection points: 2
#     Edge 39, Type (0, 0), BuildingBlock: XUDNAN_clean_linker_2, # of connection points: 2
#     Edge 40, Type (0, 0), BuildingBlock: XUDNAN_clean_linker_2, # of connection points: 2
#     Edge 41, Type (0, 0), BuildingBlock: XUDNAN_clean_linker_2, # of connection points: 2
#     Edge 42, Type (0, 0), BuildingBlock: XUDNAN_clean_linker_2, # of connection points: 2
#     Edge 43, Type (0, 0), BuildingBlock: XUDNAN_clean_linker_2, # of connection points: 2
#     Edge 44, Type (0, 0), BuildingBlock: XUDNAN_clean_linker_2, # of connection points: 2
#     Edge 45, Type (0, 0), BuildingBlock: XUDNAN_clean_linker_2, # of connection points: 2
#     Edge 46, Type (0, 0), BuildingBlock: XUDNAN_clean_linker_2, # of connection points: 2
#     Edge 47, Type (0, 0), BuildingBlock: XUDNAN_clean_linker_2, # of connection points: 2
# Relax obj value: 0.340
# Max RMSD: 0.275
# Mean RMSD: 0.275
data_MOF--net-wkq--node1-OJICUG_clean_sbu_0--edge1-XUDNAN_clean_linker_2
_symmetry_space_group_name_H-M    P1
_symmetry_Int_Tables_number       1
_symmetry_cell_setting            triclinic
loop_
_symmetry_equiv_pos_as_xyz
'x, y, z'
_cell_length_a     39.159912
_cell_length_b     39.154193
_cell_length_c     35.23903
_cell_angle_alpha  90.040631
_cell_angle_beta   89.800748
_cell_angle_gamma 120.00135
loop_
_atom_site_label
_atom_site_type_symbol
_atom_site_fract_x
_atom_site_fract_y
_atom_site_fract_z
_atom_type_partial_charge
Sc0 Sc 0.22051 0.43447 0.9738 0.0
Sc1 Sc 0.25792 0.45655 0.06594 0.0
Sc2 Sc 0.21158 0.35875 0.03589 0.0
O3 O 0.23041 0.41655 0.02481 0.0
C4 C 0.13867 0.35689 0.99276 0.0
C5 C 0.21174 0.49505 0.02752 0.0
C6 C 0.18698 0.38811 0.10989 0.0
C7 C 0.31083 0.49798 0.99407 0.0
C8 C 0.24144 0.36745 0.95014 0.0
C9 C 0.28695 0.39528 0.0864 0.0
O10 O 0.15824 0.38952 0.97508 0.0
O11 O 0.2338 0.49281 0.05218 0.0
O12 O 0.188 0.36104 0.09077 0.0
O13 O 0.28191 0.4817 0.97086 0.0
O14 O 0.23292 0.35052 0.98235 0.0
O15 O 0.28567 0.42677 0.09007 0.0
O16 O 0.23806 0.39751 0.94281 0.0
O17 O 0.3075 0.4901 0.02946 0.0
O18 O 0.26578 0.36877 0.06252 0.0
O19 O 0.20199 0.47432 -0.00253 0.0
O20 O 0.15466 0.34227 0.01346 0.0
O21 O 0.20863 0.42465 0.1027 0.0
Sc22 Sc 0.85713 0.20207 0.19643 0.0
Sc23 Sc 0.8038 0.24569 0.22774 0.0
Sc24 Sc 0.78892 0.2069 0.13609 0.0
O25 O 0.81685 0.2188 0.18665 0.0
C26 C 0.87998 0.23674 0.11495 0.0
C27 C 0.89259 0.2814 0.24587 0.0
C28 C 0.80524 0.29304 0.15248 0.0
C29 C 0.81044 0.17744 0.27197 0.0
C30 C 0.79151 0.12931 0.15225 0.0
C31 C 0.71918 0.1914 0.19414 0.0
O32 O 0.88994 0.23602 0.14907 0.0
O33 O 0.86411 0.28745 0.24014 0.0
O34 O 0.80362 0.26771 0.12863 0.0
O35 O 0.82606 0.16795 0.24532 0.0
O36 O 0.77093 0.14509 0.14379 0.0
O37 O 0.74214 0.20638 0.22206 0.0
O38 O 0.82746 0.14976 0.16178 0.0
O39 O 0.80403 0.20625 0.26976 0.0
O40 O 0.73147 0.19247 0.16034 0.0
O41 O 0.89297 0.25112 0.23346 0.0
O42 O 0.84383 0.22158 0.10484 0.0
O43 O 0.80297 0.28738 0.18827 0.0
Sc44 Sc 0.58858 0.79305 0.30147 0.0
Sc45 Sc 0.5513 0.81028 0.38246 0.0
Sc46 Sc 0.65211 0.85579 0.37249 0.0
O47 O 0.59806 0.82063 0.35146 0.0
C48 C 0.66117 0.78656 0.33526 0.0
C49 C 0.51781 0.72738 0.34582 0.0
C50 C 0.60083 0.80166 0.4428 0.0
C51 C 0.52821 0.82701 0.30531 0.0
C52 C 0.66049 0.87888 0.2841 0.0
C53 C 0.61343 0.89671 0.41228 0.0
O54 O 0.63476 0.77796 0.31003 0.0
O55 O 0.51127 0.75406 0.3577 0.0
O56 O 0.63259 0.83029 0.42903 0.0
O57 O 0.54065 0.80576 0.28919 0.0
O58 O 0.67402 0.8844 0.31785 0.0
O59 O 0.58163 0.86394 0.41465 0.0
O60 O 0.62881 0.84822 0.27374 0.0
O61 O 0.53551 0.83781 0.33984 0.0
O62 O 0.64003 0.9022 0.38834 0.0
O63 O 0.54892 0.73597 0.32726 0.0
O64 O 0.66911 0.81277 0.36039 0.0
O65 O 0.56945 0.78285 0.42341 0.0
Sc66 Sc 0.81559 0.65952 0.52998 0.0
Sc67 Sc 0.76335 0.56113 0.56019 0.0
Sc68 Sc 0.80758 0.58373 0.46937 0.0
O69 O 0.79533 0.60137 0.51975 0.0
C70 C 0.78879 0.6518 0.44395 0.0
C71 C 0.73227 0.62166 0.57241 0.0
C72 C 0.71727 0.51868 0.48421 0.0
C73 C 0.83098 0.63079 0.60857 0.0
C74 C 0.88946 0.66128 0.48869 0.0
C75 C 0.8141 0.52415 0.52775 0.0
O76 O 0.79461 0.66716 0.47671 0.0
O77 O 0.72795 0.58734 0.5743 0.0
O78 O 0.74648 0.53787 0.46185 0.0
O79 O 0.83848 0.6577 0.58445 0.0
O80 O 0.87031 0.6273 0.47337 0.0
O81 O 0.7941 0.52915 0.55325 0.0
O82 O 0.87258 0.67657 0.50715 0.0
O83 O 0.80483 0.59487 0.60363 0.0
O84 O 0.8215 0.54164 0.49572 0.0
O85 O 0.76186 0.65034 0.55642 0.0
O86 O 0.79367 0.62261 0.43638 0.0
O87 O 0.71944 0.52422 0.51991 0.0
Sc88 Sc 0.23038 0.80398 0.63473 0.0
Sc89 Sc 0.19475 0.7443 0.71599 0.0
Sc90 Sc 0.15906 0.80778 0.69226 0.0
O91 O 0.19482 0.78526 0.68095 0.0
C92 C 0.23446 0.88378 0.65875 0.0
C93 C 0.28641 0.79782 0.6975 0.0
C94 C 0.19209 0.80805 0.77216 0.0
C95 C 0.2016 0.71203 0.63519 0.0
C96 C 0.14573 0.78869 0.60492 0.0
C97 C 0.10655 0.71967 0.72582 0.0
O98 O 0.25146 0.86531 0.64729 0.0
O99 O 0.25774 0.77417 0.71829 0.0
O100 O 0.18392 0.82646 0.7474 0.0
O101 O 0.21373 0.74478 0.61829 0.0
O102 O 0.13229 0.78931 0.63771 0.0
O103 O 0.13159 0.709 0.71862 0.0
O104 O 0.18129 0.79671 0.59902 0.0
O105 O 0.19447 0.70727 0.67058 0.0
O106 O 0.11321 0.75427 0.71844 0.0
O107 O 0.28184 0.81135 0.66615 0.0
O108 O 0.19936 0.86641 0.67125 0.0
O109 O 0.19461 0.77747 0.76476 0.0
Sc110 Sc 0.36339 0.16032 0.86319 0.0
Sc111 Sc 0.46128 0.20466 0.89257 0.0
Sc112 Sc 0.4387 0.22779 0.80312 0.0
O113 O 0.42136 0.19757 0.85293 0.0
C114 C 0.37129 0.14056 0.77851 0.0
C115 C 0.4013 0.11504 0.90619 0.0
C116 C 0.50341 0.20258 0.81494 0.0
C117 C 0.39102 0.20279 0.9415 0.0
C118 C 0.36269 0.23287 0.82371 0.0
C119 C 0.4988 0.29244 0.86238 0.0
O120 O 0.35899 0.12907 0.81205 0.0
O121 O 0.43682 0.14251 0.90275 0.0
O122 O 0.48199 0.20958 0.79266 0.0
O123 O 0.3648 0.18851 0.91583 0.0
O124 O 0.39819 0.24969 0.8119 0.0
O125 O 0.49099 0.2676 0.88878 0.0
O126 O 0.34491 0.19756 0.83583 0.0
O127 O 0.42564 0.20802 0.93726 0.0
O128 O 0.48382 0.28233 0.82934 0.0
O129 O 0.37254 0.11829 0.89416 0.0
O130 O 0.39607 0.17641 0.77015 0.0
O131 O 0.4998 0.20171 0.85091 0.0
Sc132 Sc 0.65668 0.81542 0.78781 0.0
Sc133 Sc 0.55529 0.74818 0.77875 0.0
Sc134 Sc 0.58974 0.81266 0.85653 0.0
O135 O 0.60067 0.79205 0.8077 0.0
C136 C 0.66231 0.79895 0.8757 0.0
C137 C 0.62156 0.72736 0.75695 0.0
C138 C 0.52928 0.71891 0.86204 0.0
C139 C 0.60736 0.81183 0.71556 0.0
C140 C 0.66222 0.89259 0.8251 0.0
C141 C 0.51839 0.80132 0.80565 0.0
O142 O 0.67456 0.80282 0.84146 0.0
O143 O 0.58564 0.71695 0.76265 0.0
O144 O 0.54637 0.75387 0.87525 0.0
O145 O 0.64017 0.82778 0.73318 0.0
O146 O 0.63123 0.87455 0.84524 0.0
O147 O 0.51731 0.77233 0.78838 0.0
O148 O 0.67442 0.87442 0.80446 0.0
O149 O 0.57563 0.783 0.7285 0.0
O150 O 0.54499 0.8221 0.82975 0.0
O151 O 0.64946 0.76133 0.76558 0.0
O152 O 0.63336 0.80344 0.88573 0.0
O153 O 0.53192 0.71109 0.82756 0.0
Sc154 Sc 0.86323 0.65814 0.96143 0.0
Sc155 Sc 0.8273 0.55871 0.93997 0.0
Sc156 Sc 0.78784 0.58494 0.01759 0.0
O157 O 0.82603 0.60044 0.97308 0.0
C158 C 0.87072 0.65343 0.0504 0.0
C159 C 0.91637 0.62058 0.93493 0.0
C160 C 0.8127 0.51879 0.0219 0.0
C161 C 0.83834 0.62554 0.88003 0.0
C162 C 0.78724 0.66168 0.98888 0.0
C163 C 0.73497 0.52527 0.9519 0.0
O164 O 0.8855 0.66754 0.01801 0.0
O165 O 0.89059 0.58483 0.94148 0.0
O166 O 0.8007 0.54056 0.03656 0.0
O167 O 0.84371 0.65192 0.90409 0.0
O168 O 0.76971 0.62757 0.00385 0.0
O169 O 0.7645 0.5294 0.93299 0.0
O170 O 0.82191 0.6769 0.97562 0.0
O171 O 0.83368 0.59202 0.88928 0.0
O172 O 0.73799 0.54203 0.98382 0.0
O173 O 0.90988 0.64876 0.94144 0.0
O174 O 0.83527 0.62538 0.05517 0.0
O175 O 0.82229 0.52094 0.9871 0.0
Sc176 Sc 0.20231 0.85339 0.12815 0.0
Sc177 Sc 0.26295 0.8156 0.10139 0.0
Sc178 Sc 0.20665 0.78186 0.18538 0.0
O179 O 0.22395 0.81686 0.13841 0.0
C180 C 0.22237 0.86616 0.21576 0.0
C181 C 0.29105 0.90526 0.09627 0.0
C182 C 0.2977 0.80812 0.18034 0.0
C183 C 0.2007 0.82175 0.04693 0.0
C184 C 0.12635 0.7784 0.16343 0.0
C185 C 0.20631 0.72471 0.11956 0.0
O186 O 0.22 0.87872 0.18318 0.0
O187 O 0.3003 0.87863 0.09983 0.0
O188 O 0.26634 0.7981 0.19908 0.0
O189 O 0.18351 0.83098 0.07211 0.0
O190 O 0.14467 0.76201 0.17696 0.0
O191 O 0.2289 0.75295 0.09787 0.0
O192 O 0.14409 0.81218 0.14793 0.0
O193 O 0.23047 0.81789 0.05367 0.0
O194 O 0.1971 0.72978 0.15311 0.0
O195 O 0.25688 0.89944 0.10443 0.0
O196 O 0.21598 0.83121 0.22167 0.0
O197 O 0.30039 0.81345 0.14471 0.0
Sc198 Sc 0.36228 0.20528 0.2976 0.0
Sc199 Sc 0.46207 0.26276 0.27198 0.0
Sc200 Sc 0.43521 0.20384 0.35442 0.0
O201 O 0.41987 0.22391 0.30792 0.0
C202 C 0.36751 0.21871 0.38721 0.0
C203 C 0.39978 0.2929 0.26935 0.0
C204 C 0.50045 0.2959 0.35215 0.0
C205 C 0.39604 0.20773 0.21436 0.0
C206 C 0.3579 0.12585 0.32579 0.0
C207 C 0.4961 0.20575 0.29296 0.0
O208 O 0.35007 0.21204 0.35549 0.0
O209 O 0.43283 0.29594 0.26141 0.0
O210 O 0.48272 0.26203 0.36774 0.0
O211 O 0.36801 0.19815 0.23789 0.0
O212 O 0.38883 0.14303 0.34613 0.0
O213 O 0.49618 0.23372 0.2747 0.0
O214 O 0.34572 0.14472 0.30604 0.0
O215 O 0.43227 0.2276 0.22344 0.0
O216 O 0.47393 0.1897 0.32176 0.0
O217 O 0.37255 0.26374 0.28711 0.0
O218 O 0.39929 0.21775 0.39169 0.0
O219 O 0.49516 0.30195 0.31775 0.0
Sc220 Sc 0.16256 0.35391 0.45716 0.0
Sc221 Sc 0.20202 0.45037 0.4287 0.0
Sc222 Sc 0.23342 0.43098 0.51345 0.0
O223 O 0.19917 0.4117 0.4671 0.0
C224 C 0.1542 0.3604 0.54645 0.0
C225 C 0.11058 0.38444 0.42484 0.0
C226 C 0.19891 0.4903 0.50355 0.0
C227 C 0.19646 0.38866 0.37469 0.0
C228 C 0.23925 0.35511 0.48635 0.0
C229 C 0.29164 0.49357 0.45517 0.0
O230 O 0.14669 0.34036 0.51612 0.0
O231 O 0.14118 0.41427 0.41163 0.0
O232 O 0.22033 0.47911 0.52109 0.0
O233 O 0.17204 0.36081 0.39603 0.0
O234 O 0.24912 0.38446 0.50865 0.0
O235 O 0.26281 0.49272 0.43811 0.0
O236 O 0.21033 0.34273 0.46353 0.0
O237 O 0.21994 0.42266 0.38765 0.0
O238 O 0.28684 0.46885 0.48102 0.0
O239 O 0.1124 0.36208 0.44989 0.0
O240 O 0.18288 0.39549 0.5496 0.0
O241 O 0.18519 0.47823 0.47048 0.0
Sc242 Sc 0.81547 0.15724 0.62607 0.0
Sc243 Sc 0.75629 0.19768 0.60134 0.0
Sc244 Sc 0.81886 0.23429 0.68081 0.0
O245 O 0.79694 0.19652 0.63601 0.0
C246 C 0.80173 0.15076 0.71498 0.0
C247 C 0.72475 0.10656 0.60098 0.0
C248 C 0.7282 0.2106 0.68247 0.0
C249 C 0.81129 0.18313 0.54326 0.0
C250 C 0.89549 0.23209 0.65474 0.0
C251 C 0.81577 0.2894 0.61493 0.0
O252 O 0.80163 0.13596 0.68288 0.0
O253 O 0.71761 0.13481 0.60158 0.0
O254 O 0.76122 0.22176 0.69826 0.0
O255 O 0.82954 0.17455 0.5678 0.0
O256 O 0.87959 0.25099 0.66817 0.0
O257 O 0.79107 0.26049 0.59513 0.0
O258 O 0.87564 0.19766 0.64103 0.0
O259 O 0.78457 0.19127 0.55187 0.0
O260 O 0.82792 0.28527 0.64726 0.0
O261 O 0.75841 0.11088 0.60822 0.0
O262 O 0.80972 0.18643 0.71927 0.0
O263 O 0.72219 0.20244 0.64734 0.0
H264 H 0.21291 0.52841 0.09567 0.0
H265 H 0.17992 0.52659 0.9779 0.0
H266 H 0.16453 0.57957 0.99199 0.0
H267 H 0.14013 0.55166 0.13844 0.0
H268 H 0.17488 0.58296 0.17382 0.0
H269 H 0.17723 0.54114 0.15559 0.0
H270 H 0.25037 0.58702 0.13671 0.0
H271 H 0.24827 0.62883 0.15483 0.0
H272 H 0.26324 0.62885 0.1064 0.0
H273 H 0.16259 0.63906 0.01708 0.0
H274 H 0.17431 0.69959 0.05014 0.0
H275 H 0.20756 0.66156 0.15193 0.0
C276 C 0.20177 0.53852 0.07279 0.0
C277 C 0.19774 0.52333 0.03551 0.0
C278 C 0.18305 0.53755 0.00664 0.0
C279 C 0.17421 0.5676 0.01447 0.0
C280 C 0.17965 0.58259 0.05139 0.0
C281 C 0.1928 0.5682 0.08013 0.0
C282 C 0.19967 0.59135 0.11657 0.0
C283 C 0.17128 0.56521 0.14796 0.0
C284 C 0.24295 0.61012 0.12934 0.0
C285 C 0.18986 0.62228 0.10363 0.0
C286 C 0.17785 0.61638 0.06606 0.0
C287 C 0.17102 0.64335 0.04667 0.0
C288 C 0.17773 0.67762 0.0657 0.0
C289 C 0.191 0.68471 0.1038 0.0
C290 C 0.19606 0.65613 0.1233 0.0
H291 H 0.54612 0.2331 0.23169 0.0
H292 H 0.50786 0.14715 0.32298 0.0
H293 H 0.55463 0.12636 0.30034 0.0
H294 H 0.56214 0.17446 0.15958 0.0
H295 H 0.60506 0.21709 0.14054 0.0
H296 H 0.5658 0.22219 0.16154 0.0
H297 H 0.61544 0.27522 0.20773 0.0
H298 H 0.65478 0.27063 0.18657 0.0
H299 H 0.64613 0.26383 0.23699 0.0
H300 H 0.61082 0.12039 0.27186 0.0
H301 H 0.67322 0.13209 0.24242 0.0
H302 H 0.6731 0.22028 0.1686 0.0
C303 C 0.54701 0.20949 0.2468 0.0
C304 C 0.52306 0.19174 0.27923 0.0
C305 C 0.52572 0.16121 0.2981 0.0
C306 C 0.55208 0.14906 0.28528 0.0
C307 C 0.57533 0.16742 0.25332 0.0
C308 C 0.57296 0.197 0.23437 0.0
C309 C 0.60312 0.21422 0.20258 0.0
C310 C 0.5828 0.20651 0.16376 0.0
C311 C 0.63154 0.25858 0.20887 0.0
C312 C 0.62382 0.19056 0.20721 0.0
C313 C 0.60702 0.16333 0.23635 0.0
C314 C 0.62353 0.14086 0.24842 0.0
C315 C 0.65878 0.14745 0.23137 0.0
C316 C 0.67703 0.17601 0.20235 0.0
C317 C 0.65868 0.19696 0.18941 0.0
H318 H 0.31124 0.56527 0.42684 0.0
H319 H 0.36179 0.4921 0.4549 0.0
H320 H 0.42546 0.54222 0.42595 0.0
H321 H 0.3569 0.59852 0.33731 0.0
H322 H 0.36411 0.64746 0.34284 0.0
H323 H 0.32362 0.60641 0.36659 0.0
H324 H 0.34768 0.64152 0.43153 0.0
H325 H 0.38769 0.68303 0.40788 0.0
H326 H 0.3978 0.65876 0.44603 0.0
H327 H 0.48353 0.60137 0.3903 0.0
H328 H 0.53083 0.66547 0.36034 0.0
H329 H 0.43946 0.69711 0.35727 0.0
C330 C 0.33573 0.55974 0.42719 0.0
C331 C 0.33154 0.5247 0.443 0.0
C332 C 0.36445 0.51889 0.44318 0.0
C333 C 0.40055 0.54703 0.42647 0.0
C334 C 0.40316 0.58081 0.41006 0.0
C335 C 0.37159 0.58732 0.41099 0.0
C336 C 0.38136 0.6259 0.39239 0.0
C337 C 0.35492 0.61914 0.35773 0.0
C338 C 0.37848 0.65395 0.42118 0.0
C339 C 0.42349 0.64041 0.38057 0.0
C340 C 0.43576 0.6141 0.39054 0.0
C341 C 0.47406 0.62206 0.38249 0.0
C342 C 0.50062 0.65832 0.36509 0.0
C343 C 0.48876 0.68617 0.35635 0.0
C344 C 0.44942 0.67641 0.3635 0.0
H345 H 0.81079 0.48825 0.59567 0.0
H346 H 0.84464 0.49203 0.47762 0.0
H347 H 0.85734 0.43715 0.48977 0.0
H348 H 0.88172 0.46128 0.63621 0.0
H349 H 0.84668 0.42958 0.67141 0.0
H350 H 0.84531 0.47235 0.65457 0.0
H351 H 0.77201 0.42811 0.63599 0.0
H352 H 0.77312 0.3853 0.65266 0.0
H353 H 0.7583 0.38687 0.60463 0.0
H354 H 0.85685 0.3759 0.51255 0.0
H355 H 0.84514 0.31469 0.54435 0.0
H356 H 0.81411 0.35198 0.64827 0.0
C357 C 0.82167 0.4782 0.57242 0.0
C358 C 0.82674 0.49468 0.53557 0.0
C359 C 0.84076 0.48024 0.50609 0.0
C360 C 0.84806 0.44902 0.51276 0.0
C361 C 0.84174 0.43286 0.5492 0.0
C362 C 0.82926 0.44728 0.57864 0.0
C363 C 0.82197 0.42305 0.6145 0.0
C364 C 0.85064 0.44806 0.64604 0.0
C365 C 0.77879 0.40475 0.62769 0.0
C366 C 0.83094 0.39178 0.60036 0.0
C367 C 0.84259 0.39818 0.56265 0.0
C368 C 0.84873 0.37119 0.54226 0.0
C369 C 0.84205 0.33653 0.56055 0.0
C370 C 0.82973 0.32919 0.59897 0.0
C371 C 0.82493 0.3576 0.61932 0.0
H372 H 0.44078 0.75002 0.79408 0.0
H373 H 0.52751 0.87455 0.79119 0.0
H374 H 0.47805 0.88844 0.76183 0.0
H375 H 0.39619 0.74431 0.70686 0.0
H376 H 0.34676 0.71001 0.72253 0.0
H377 H 0.38816 0.71059 0.74519 0.0
H378 H 0.365 0.72166 0.81072 0.0
H379 H 0.32304 0.72029 0.78839 0.0
H380 H 0.35594 0.76217 0.81684 0.0
H381 H 0.41916 0.88656 0.72602 0.0
H382 H 0.35483 0.87044 0.69723 0.0
H383 H 0.30757 0.74778 0.72796 0.0
C384 C 0.44912 0.78034 0.78799 0.0
C385 C 0.48782 0.81127 0.79503 0.0
C386 C 0.49779 0.85053 0.78651 0.0
C387 C 0.46999 0.85857 0.76949 0.0
C388 C 0.43227 0.82707 0.76183 0.0
C389 C 0.42171 0.78885 0.77173 0.0
C390 C 0.37956 0.76 0.7609 0.0
C391 C 0.37758 0.72944 0.73216 0.0
C392 C 0.3544 0.73986 0.79632 0.0
C393 C 0.36797 0.78769 0.7428 0.0
C394 C 0.3987 0.82625 0.74304 0.0
C395 C 0.39484 0.8565 0.7262 0.0
C396 C 0.3584 0.84711 0.70962 0.0
C397 C 0.3263 0.80796 0.71059 0.0
C398 C 0.33152 0.77807 0.72714 0.0
H399 H 0.67032 0.46247 0.98465 0.0
H400 H 0.71288 0.52888 0.88006 0.0
H401 H 0.65194 0.48047 0.8474 0.0
H402 H 0.63406 0.37116 0.94277 0.0
H403 H 0.59157 0.34508 0.97317 0.0
H404 H 0.63453 0.38853 0.99028 0.0
H405 H 0.59202 0.42046 0.00599 0.0
H406 H 0.54879 0.37688 0.98906 0.0
H407 H 0.5621 0.42447 0.96944 0.0
H408 H 0.59035 0.42109 0.82416 0.0
H409 H 0.53433 0.35431 0.81179 0.0
H410 H 0.53273 0.32505 0.9309 0.0
C411 C 0.66595 0.46747 0.95529 0.0
C412 C 0.69575 0.49976 0.93499 0.0
C413 C 0.69 0.50457 0.89615 0.0
C414 C 0.65548 0.47727 0.8774 0.0
C415 C 0.62703 0.44504 0.8978 0.0
C416 C 0.63183 0.43999 0.93593 0.0
C417 C 0.5991 0.40042 0.95002 0.0
C418 C 0.61583 0.3748 0.96492 0.0
C419 C 0.57401 0.4059 0.98043 0.0
C420 C 0.57593 0.38368 0.9137 0.0
C421 C 0.59208 0.41012 0.88406 0.0
C422 C 0.5771 0.40031 0.84729 0.0
C423 C 0.54522 0.36226 0.84051 0.0
C424 C 0.52891 0.33424 0.87026 0.0
C425 C 0.5442 0.34567 0.90744 0.0
H426 H 0.33217 0.3583 0.0842 0.0
H427 H 0.28314 0.41046 0.15996 0.0
H428 H 0.31118 0.39473 0.2148 0.0
H429 H 0.31708 0.27888 0.14469 0.0
H430 H 0.3631 0.28117 0.1334 0.0
H431 H 0.34015 0.29729 0.09915 0.0
H432 H 0.40402 0.36492 0.09503 0.0
H433 H 0.42733 0.3498 0.12999 0.0
H434 H 0.42433 0.39374 0.13747 0.0
H435 H 0.33822 0.3681 0.26206 0.0
H436 H 0.36669 0.33434 0.29876 0.0
H437 H 0.40434 0.30521 0.19384 0.0
C438 C 0.32778 0.36662 0.11232 0.0
C439 C 0.30597 0.38607 0.11776 0.0
C440 C 0.30048 0.39629 0.15503 0.0
C441 C 0.31613 0.38737 0.18647 0.0
C442 C 0.33784 0.36868 0.18035 0.0
C443 C 0.34411 0.35868 0.14431 0.0
C444 C 0.36859 0.33854 0.14622 0.0
C445 C 0.34586 0.29648 0.12991 0.0
C446 C 0.40843 0.36323 0.12596 0.0
C447 C 0.37397 0.33804 0.18884 0.0
C448 C 0.35583 0.35544 0.20797 0.0
C449 C 0.35352 0.35529 0.24753 0.0
C450 C 0.36979 0.33628 0.26816 0.0
C451 C 0.38882 0.31869 0.24908 0.0
C452 C 0.39142 0.32009 0.20903 0.0
H453 H 0.97275 0.31295 0.24337 0.0
H454 H 0.87689 0.30016 0.31508 0.0
H455 H 0.92242 0.32692 0.36954 0.0
H456 H 0.02259 0.2874 0.30784 0.0
H457 H 0.07165 0.32478 0.29407 0.0
H458 H 0.03217 0.30693 0.26021 0.0
H459 H 0.04661 0.37788 0.24843 0.0
H460 H 0.08587 0.39671 0.28258 0.0
H461 H 0.0465 0.40738 0.28773 0.0
H462 H 0.97655 0.34527 0.41822 0.0
H463 H 0.03818 0.36565 0.45455 0.0
H464 H 0.09934 0.37309 0.34955 0.0
C465 C 0.96174 0.31683 0.27032 0.0
C466 C 0.9216 0.30498 0.27511 0.0
C467 C 0.90786 0.30994 0.31079 0.0
C468 C 0.93336 0.32469 0.34194 0.0
C469 C 0.97268 0.33526 0.33662 0.0
C470 C 0.98705 0.33264 0.30142 0.0
C471 C 0.0307 0.3469 0.30304 0.0
C472 C 0.03977 0.31456 0.29056 0.0
C473 C 0.05376 0.38444 0.27901 0.0
C474 C 0.03812 0.35571 0.345 0.0
C475 C 1.00432 0.3487 0.36404 0.0
C476 C 1.00347 0.35184 0.40352 0.0
C477 C 0.03833 0.3631 0.42394 0.0
C478 C 0.07335 0.37159 0.40459 0.0
C479 C 0.07309 0.36778 0.36477 0.0
H480 H 0.71318 0.10083 0.52594 0.0
H481 H 0.67891 0.03177 0.62936 0.0
H482 H 0.64216 0.97048 0.59134 0.0
H483 H 0.62268 0.03671 0.46889 0.0
H484 H 0.65229 0.0465 0.42667 0.0
H485 H 0.66782 0.08296 0.46385 0.0
H486 H 0.73533 0.08326 0.46577 0.0
H487 H 0.71763 0.04571 0.42972 0.0
H488 H 0.73437 0.03749 0.47456 0.0
H489 H 0.61215 0.91747 0.54193 0.0
H490 H 0.59433 0.8753 0.48542 0.0
H491 H 0.6547 0.9787 0.41334 0.0
C492 C 0.69664 0.0728 0.54051 0.0
C493 C 0.69732 0.07067 0.58045 0.0
C494 C 0.67743 0.0337 0.59881 0.0
C495 C 0.65674 0.99895 0.57742 0.0
C496 C 0.65718 1.00198 0.53787 0.0
C497 C 0.67681 0.03796 0.51959 0.0
C498 C 0.67627 0.03303 0.47687 0.0
C499 C 0.65343 0.05086 0.45791 0.0
C500 C 0.71838 0.05093 0.46078 0.0
C501 C 0.65395 0.98851 0.47379 0.0
C502 C 0.64242 0.97131 0.50933 0.0
C503 C 0.6209 0.93066 0.51403 0.0
C504 C 0.61086 0.90697 0.48165 0.0
C505 C 0.62303 0.92374 0.44494 0.0
C506 C 0.64505 0.96513 0.441 0.0
H507 H 0.68811 0.75118 0.71496 0.0
H508 H 0.57635 0.64733 0.7429 0.0
H509 H 0.59057 0.60868 0.69602 0.0
H510 H 0.6823 0.73371 0.61593 0.0
H511 H 0.73451 0.75289 0.61012 0.0
H512 H 0.71669 0.77124 0.64762 0.0
H513 H 0.75353 0.7531 0.69763 0.0
H514 H 0.77212 0.73547 0.66022 0.0
H515 H 0.74515 0.70346 0.69927 0.0
H516 H 0.61847 0.58179 0.64556 0.0
H517 H 0.65749 0.56904 0.59802 0.0
H518 H 0.74762 0.69272 0.60096 0.0
C519 C 0.66685 0.72008 0.71199 0.0
C520 C 0.63136 0.70211 0.73319 0.0
C521 C 0.60395 0.6616 0.72735 0.0
C522 C 0.6117 0.63953 0.70064 0.0
C523 C 0.64663 0.65861 0.67958 0.0
C524 C 0.67368 0.69803 0.68506 0.0
C525 C 0.70832 0.71233 0.65814 0.0
C526 C 0.71056 0.74444 0.63137 0.0
C527 C 0.74706 0.72693 0.68013 0.0
C528 C 0.69702 0.67465 0.63685 0.0
C529 C 0.66141 0.64388 0.64955 0.0
C530 C 0.64618 0.6058 0.63522 0.0
C531 C 0.66846 0.59886 0.6081 0.0
C532 C 0.70538 0.62996 0.59528 0.0
C533 C 0.71914 0.66844 0.60936 0.0
H534 H 0.06207 0.74182 0.76779 0.0
H535 H 0.07731 0.6414 0.74436 0.0
H536 H 0.03241 0.60515 0.79773 0.0
H537 H 0.06609 0.73735 0.8658 0.0
H538 H 0.02977 0.75174 0.87525 0.0
H539 H 0.05871 0.76787 0.83238 0.0
H540 H 0.99513 0.73696 0.7914 0.0
H541 H 0.96601 0.72198 0.83421 0.0
H542 H 0.95825 0.68594 0.79842 0.0
H543 H 0.9873 0.58114 0.85662 0.0
H544 H 0.94291 0.57037 0.9112 0.0
H545 H 0.96377 0.68954 0.89758 0.0
C546 C 0.05513 0.71176 0.77295 0.0
C547 C 0.07302 0.6944 0.75144 0.0
C548 C 0.06371 0.65527 0.76009 0.0
C549 C 0.03844 0.63453 0.79057 0.0
C550 C 0.02292 0.6534 0.81231 0.0
C551 C 0.03063 0.691 0.80349 0.0
C552 C 0.01205 0.7057 0.83205 0.0
C553 C 0.04354 0.74285 0.85257 0.0
C554 C 0.98102 0.71306 0.81288 0.0
C555 C 0.993 0.67072 0.85863 0.0
C556 C 0.99914 0.64059 0.84679 0.0
C557 C 0.9825 0.60468 0.8662 0.0
C558 C 0.95763 0.59895 0.89746 0.0
C559 C 0.95003 0.62916 0.90927 0.0
C560 C 0.96928 0.66589 0.89011 0.0
H561 H 0.33077 0.06453 0.93916 0.0
H562 H 0.4521 0.09041 0.93181 0.0
H563 H 0.43852 0.04105 0.98222 0.0
H564 H 0.32395 0.05789 0.03813 0.0
H565 H 0.27322 0.01879 0.03908 0.0
H566 H 0.29131 0.05287 -0.00011 0.0
H567 H 0.26901 0.995 0.95225 0.0
H568 H 0.24984 0.96068 0.9912 0.0
H569 H 0.2851 0.95959 0.95896 0.0
H570 H 0.41067 0.98874 0.03501 0.0
H571 H 0.37077 0.93724 0.08255 0.0
H572 H 0.27056 0.95212 0.05728 0.0
C573 C 0.3544 0.05928 0.94731 0.0
C574 C 0.39243 0.08109 0.93112 0.0
C575 C 0.42261 0.07379 0.94351 0.0
C576 C 0.41523 0.04599 0.97228 0.0
C577 C 0.37768 0.02616 0.98858 0.0
C578 C 0.34779 0.03243 0.97628 0.0
C579 C 0.31051 0.00897 -0.00079 0.0
C580 C 0.2991 0.03627 0.02032 0.0
C581 C 0.27663 0.9793 0.9739 0.0
C582 C 0.32392 0.98836 0.02647 0.0
C583 C 0.36261 0.99827 0.0199 0.0
C584 C 0.38045 0.98105 0.04055 0.0
C585 C 0.35767 0.95204 0.06767 0.0
C586 C 0.31771 0.94104 0.07416 0.0
C587 C 0.30125 0.9604 0.05385 0.0
H588 H 0.4625 0.65059 0.84331 0.0
H589 H 0.53792 0.71388 0.93837 0.0
H590 H 0.49289 0.66034 0.98165 0.0
H591 H 0.37344 0.62023 0.89143 0.0
H592 H 0.34685 0.57283 0.86856 0.0
H593 H 0.38739 0.6134 0.84444 0.0
H594 H 0.42142 0.57165 0.83567 0.0
H595 H 0.38089 0.53086 0.85978 0.0
H596 H 0.43057 0.54979 0.87658 0.0
H597 H 0.43837 0.60224 0.01467 0.0
H598 H 0.37585 0.54596 0.03654 0.0
H599 H 0.3339 0.52179 0.92017 0.0
C600 C 0.46994 0.65272 0.87312 0.0
C601 C 0.50383 0.68605 0.88757 0.0
C602 C 0.5121 0.68847 0.92685 0.0
C603 C 0.48685 0.65816 0.95153 0.0
C604 C 0.45338 0.62591 0.93645 0.0
C605 C 0.44472 0.62309 0.89821 0.0
C606 C 0.40507 0.58716 0.8898 0.0
C607 C 0.37651 0.59914 0.87255 0.0
C608 C 0.40979 0.55815 0.86393 0.0
C609 C 0.39245 0.57058 0.92942 0.0
C610 C 0.42107 0.59302 0.95576 0.0
C611 C 0.41582 0.5843 0.99431 0.0
C612 C 0.38009 0.55217 0.00641 0.0
C613 C 0.34974 0.52934 0.9801 0.0
C614 C 0.35642 0.53851 0.94102 0.0
H615 H 0.81259 0.45046 0.00182 0.0
H616 H 0.81885 0.52185 0.09887 0.0
H617 H 0.82052 0.4732 0.14178 0.0
H618 H 0.74823 0.35774 0.04482 0.0
H619 H 0.77108 0.33222 0.02355 0.0
H620 H 0.7731 0.37386 -0.00029 0.0
H621 H 0.84934 0.40826 -0.00294 0.0
H622 H 0.84754 0.36664 0.02083 0.0
H623 H 0.87658 0.41547 0.04032 0.0
H624 H 0.81892 0.41675 0.1744 0.0
H625 H 0.8134 0.35458 0.1957 0.0
H626 H 0.80709 0.31764 0.07827 0.0
C627 C 0.81482 0.45605 0.03206 0.0
C628 C 0.8156 0.49001 0.04697 0.0
C629 C 0.81799 0.49599 0.08676 0.0
C630 C 0.81912 0.4686 0.11141 0.0
C631 C 0.81775 0.43526 0.09591 0.0
C632 C 0.81565 0.42872 0.05724 0.0
C633 C 0.81279 0.38939 0.04843 0.0
C634 C 0.77399 0.36167 0.02792 0.0
C635 C 0.8487 0.39531 0.02529 0.0
C636 C 0.8132 0.37482 0.08824 0.0
C637 C 0.81636 0.402 0.11504 0.0
C638 C 0.8166 0.39525 0.15373 0.0
C639 C 0.81335 0.35966 0.1655 0.0
C640 C 0.80975 0.33095 0.13873 0.0
C641 C 0.80991 0.3389 0.0995 0.0
H642 H 0.35003 0.78242 0.16629 0.0
H643 H 0.32581 0.85544 0.24163 0.0
H644 H 0.38757 0.8747 0.27628 0.0
H645 H 0.38484 0.74481 0.23937 0.0
H646 H 0.42177 0.74279 0.21033 0.0
H647 H 0.37812 0.73828 0.18876 0.0
H648 H 0.42173 0.79675 0.14403 0.0
H649 H 0.46556 0.80172 0.16585 0.0
H650 H 0.4578 0.84336 0.16405 0.0
H651 H 0.45019 0.88537 0.3029 0.0
H652 H 0.5051 0.87895 0.32772 0.0
H653 H 0.48719 0.79459 0.23881 0.0
C654 C 0.35812 0.80271 0.18991 0.0
C655 C 0.33367 0.81781 0.20136 0.0
C656 C 0.34437 0.84363 0.2327 0.0
C657 C 0.37947 0.85499 0.25223 0.0
C658 C 0.40311 0.83974 0.24029 0.0
C659 C 0.39264 0.81355 0.2104 0.0
C660 C 0.42136 0.79844 0.20614 0.0
C661 C 0.40026 0.75342 0.21148 0.0
C662 C 0.44289 0.81082 0.16773 0.0
C663 C 0.44924 0.81985 0.23866 0.0
C664 C 0.43855 0.84421 0.25725 0.0
C665 C 0.45886 0.86636 0.2887 0.0
C666 C 0.49006 0.86241 0.30257 0.0
C667 C 0.50031 0.83592 0.28546 0.0
C668 C 0.48029 0.81524 0.25237 0.0
H669 H 0.69891 0.49183 0.41014 0.0
H670 H 0.64912 0.47366 0.52382 0.0
H671 H 0.58736 0.41786 0.50081 0.0
H672 H 0.60591 0.46481 0.35957 0.0
H673 H 0.61646 0.44045 0.32171 0.0
H674 H 0.65629 0.48138 0.34615 0.0
H675 H 0.68705 0.43792 0.36192 0.0
H676 H 0.64728 0.39685 0.33774 0.0
H677 H 0.65781 0.3918 0.38651 0.0
H678 H 0.53402 0.36039 0.46835 0.0
H679 H 0.48961 0.30593 0.4263 0.0
H680 H 0.57093 0.36139 0.33236 0.0
C681 C 0.67483 0.47652 0.43006 0.0
C682 C 0.67916 0.48725 0.46887 0.0
C683 C 0.64685 0.46617 0.49399 0.0
C684 C 0.61146 0.43436 0.48122 0.0
C685 C 0.60847 0.42409 0.44313 0.0
C686 C 0.63897 0.44466 0.41772 0.0
C687 C 0.62815 0.42622 0.37853 0.0
C688 C 0.62661 0.45493 0.34979 0.0
C689 C 0.65678 0.41238 0.36542 0.0
C690 C 0.58731 0.39153 0.38632 0.0
C691 C 0.57667 0.39105 0.42383 0.0
C692 C 0.54165 0.36069 0.43877 0.0
C693 C 0.51677 0.32981 0.41475 0.0
C694 C 0.52683 0.32968 0.37616 0.0
C695 C 0.56233 0.3612 0.36163 0.0
H696 H 0.22089 0.65541 0.65203 0.0
H697 H 0.1668 0.6923 0.56628 0.0
H698 H 0.15545 0.63587 0.52616 0.0
H699 H 0.27324 0.62938 0.58652 0.0
H700 H 0.26793 0.58783 0.6134 0.0
H701 H 0.26805 0.62848 0.63743 0.0
H702 H 0.20051 0.5804 0.66813 0.0
H703 H 0.20015 0.53956 0.64411 0.0
H704 H 0.15953 0.54844 0.63826 0.0
H705 H 0.15133 0.57772 0.49508 0.0
H706 H 0.15984 0.5239 0.47078 0.0
H707 H 0.22088 0.52578 0.57438 0.0
C708 C 0.20614 0.65108 0.62504 0.0
C709 C 0.19429 0.67773 0.61219 0.0
C710 C 0.17598 0.67203 0.57643 0.0
C711 C 0.16922 0.64001 0.55364 0.0
C712 C 0.18149 0.61439 0.56688 0.0
C713 C 0.19997 0.61968 0.60147 0.0
C714 C 0.2132 0.58963 0.60723 0.0
C715 C 0.25828 0.61006 0.61138 0.0
C716 C 0.19208 0.56292 0.64147 0.0
C717 C 0.19956 0.56693 0.57027 0.0
C718 C 0.18077 0.58144 0.54787 0.0
C719 C 0.16596 0.56603 0.5123 0.0
C720 C 0.17103 0.53534 0.49879 0.0
C721 C 0.19127 0.52051 0.52055 0.0
C722 C 0.20529 0.53633 0.55704 0.0
H723 H 0.53144 0.21293 0.74094 0.0
H724 H 0.54799 0.17888 0.85385 0.0
H725 H 0.60486 0.17463 0.83092 0.0
H726 H 0.56076 0.14922 0.68898 0.0
H727 H 0.58556 0.18513 0.65197 0.0
H728 H 0.54392 0.18292 0.67626 0.0
H729 H 0.5864 0.25683 0.69372 0.0
H730 H 0.62822 0.2592 0.66978 0.0
H731 H 0.63206 0.27358 0.71888 0.0
H732 H 0.66311 0.18009 0.79878 0.0
H733 H 0.71777 0.19015 0.75686 0.0
H734 H 0.66383 0.21791 0.66331 0.0
C735 C 0.54662 0.20394 0.76066 0.0
C736 C 0.53517 0.19647 0.79929 0.0
C737 C 0.55611 0.18504 0.82419 0.0
C738 C 0.58853 0.18242 0.81146 0.0
C739 C 0.5996 0.1909 0.77363 0.0
C740 C 0.57916 0.20095 0.74835 0.0
C741 C 0.59842 0.20968 0.70939 0.0
C742 C 0.5705 0.17996 0.67991 0.0
C743 C 0.61209 0.25236 0.69724 0.0
C744 C 0.63327 0.20383 0.71717 0.0
C745 C 0.63321 0.19303 0.75449 0.0
C746 C 0.66329 0.18803 0.76934 0.0
C747 C 0.69434 0.19409 0.74537 0.0
C748 C 0.69496 0.20471 0.70687 0.0
C749 C 0.66382 0.20935 0.69253 0.0
H750 H 0.23211 0.29358 0.94595 0.0
H751 H 0.28841 0.40685 0.88863 0.0
H752 H 0.32124 0.38281 0.84457 0.0
H753 H 0.31211 0.27822 0.94359 0.0
H754 H 0.28329 0.2258 0.93579 0.0
H755 H 0.26172 0.25095 0.9599 0.0
H756 H 0.20504 0.22407 0.9107 0.0
H757 H 0.22652 0.1988 0.88637 0.0
H758 H 0.21667 0.23281 0.86084 0.0
H759 H 0.35475 0.34821 0.81228 0.0
H760 H 0.38222 0.3057 0.79337 0.0
H761 H 0.30001 0.21466 0.86994 0.0
C762 C 0.25082 0.31321 0.92375 0.0
C763 C 0.25766 0.35213 0.92077 0.0
C764 C 0.28244 0.3768 0.8913 0.0
C765 C 0.30128 0.36341 0.86619 0.0
C766 C 0.29448 0.32504 0.87049 0.0
C767 C 0.26934 0.30019 0.89829 0.0
C768 C 0.26807 0.26095 0.89835 0.0
C769 C 0.28214 0.25358 0.93666 0.0
C770 C 0.22661 0.22716 0.88846 0.0
C771 C 0.29719 0.2678 0.86689 0.0
C772 C 0.31227 0.30487 0.85105 0.0
C773 C 0.34243 0.3188 0.82392 0.0
C774 C 0.35786 0.29445 0.81329 0.0
C775 C 0.34286 0.25646 0.82952 0.0
C776 C 0.31152 0.24299 0.85603 0.0
H777 H 0.9578 0.28161 0.13095 0.0
H778 H 0.87733 0.23534 0.0357 0.0
H779 H 0.9348 0.2648 0.99149 0.0
H780 H 0.03058 0.37319 0.0876 0.0
H781 H 0.07075 0.37146 0.11056 0.0
H782 H 0.02312 0.34957 0.13319 0.0
H783 H 0.02199 0.28293 0.1381 0.0
H784 H 0.06955 0.3047 0.11556 0.0
H785 H 0.02861 0.26094 0.09578 0.0
H786 H 1.00477 0.2984 0.95808 0.0
H787 H 0.07622 0.32911 0.94124 0.0
H788 H 0.10578 0.34919 0.06052 0.0
C789 C 0.95178 0.27762 0.1008 0.0
C790 C 0.91283 0.25585 0.0869 0.0
C791 C 0.90686 0.25192 0.04711 0.0
C792 C 0.93936 0.26857 0.02182 0.0
C793 C 0.97749 0.28922 0.03685 0.0
C794 C 0.98344 0.29371 0.07561 0.0
C795 C 0.02662 0.31526 0.08567 0.0
C796 C 0.03844 0.35471 0.1054 0.0
C797 C 0.03729 0.2894 0.11019 0.0
C798 C 0.04447 0.32167 0.0466 0.0
C799 C 0.01619 0.30715 0.01843 0.0
C800 C 0.02695 0.30985 0.98008 0.0
C801 C 0.06745 0.32731 0.97068 0.0
C802 C 0.09617 0.34097 -0.00032 0.0
C803 C 0.08429 0.33851 0.03781 0.0
H804 H 0.6403 0.93156 0.25713 0.0
H805 H 0.73002 0.89802 0.2497 0.0
H806 H 0.76873 0.95374 0.20564 0.0
H807 H 0.64891 0.96911 0.15873 0.0
H808 H 0.64273 0.00976 0.1736 0.0
H809 H 0.61947 0.96419 0.20003 0.0
H810 H 0.65371 1.00211 0.26152 0.0
H811 H 0.67663 0.04766 0.23534 0.0
H812 H 0.70659 0.03328 0.26205 0.0
H813 H 0.80037 0.0162 0.16788 0.0
H814 H 0.82557 0.08374 0.1436 0.0
H815 H 0.71599 0.07818 0.17604 0.0
C816 C 0.66767 0.93558 0.24538 0.0
C817 C 0.68209 0.91036 0.25599 0.0
C818 C 0.71849 0.91692 0.24132 0.0
C819 C 0.74048 0.94832 0.21623 0.0
C820 C 0.72569 0.97299 0.20639 0.0
C821 C 0.69024 0.96717 0.22071 0.0
C822 C 0.68312 1.00041 0.20902 0.0
C823 C 0.64637 0.98493 0.18384 0.0
C824 C 0.67984 0.02214 0.24406 0.0
C825 C 0.72046 0.02626 0.18654 0.0
C826 C 0.7443 0.00955 0.1849 0.0
C827 C 0.7817 0.02927 0.16844 0.0
C828 C 0.79573 0.06761 0.1546 0.0
C829 C 0.77252 0.086 0.15729 0.0
C830 C 0.73389 0.06445 0.1724 0.0
H831 H 0.7251 0.80382 0.37894 0.0
H832 H 0.64414 0.71696 0.29897 0.0
H833 H 0.67433 0.67551 0.31161 0.0
H834 H 0.81075 0.79059 0.36035 0.0
H835 H 0.82414 0.79712 0.4098 0.0
H836 H 0.80021 0.82198 0.38966 0.0
H837 H 0.74547 0.79076 0.44107 0.0
H838 H 0.76908 0.7658 0.46125 0.0
H839 H 0.7183 0.7379 0.44659 0.0
H840 H 0.70917 0.63998 0.33986 0.0
H841 H 0.74295 0.61461 0.38105 0.0
H842 H 0.79925 0.7257 0.44184 0.0
C843 C 0.71411 0.77651 0.3633 0.0
C844 C 0.68222 0.7638 0.33783 0.0
C845 C 0.66876 0.7276 0.31835 0.0
C846 C 0.68575 0.70384 0.32541 0.0
C847 C 0.71639 0.71686 0.35171 0.0
C848 C 0.73052 0.75262 0.37006 0.0
C849 C 0.76099 0.75881 0.39956 0.0
C850 C 0.80142 0.79422 0.3892 0.0
C851 C 0.74764 0.76357 0.43945 0.0
C852 C 0.76114 0.72046 0.39594 0.0
C853 C 0.73578 0.69668 0.36789 0.0
C854 C 0.72952 0.65871 0.36146 0.0
C855 C 0.74893 0.64456 0.38487 0.0
C856 C 0.7738 0.66818 0.41463 0.0
C857 C 0.78055 0.7069 0.41929 0.0
H858 H 0.08621 0.80421 0.59438 0.0
H859 H 0.1391 0.73985 0.5459 0.0
H860 H 0.08205 0.70529 0.5025 0.0
H861 H 0.99229 0.72838 0.59833 0.0
H862 H 0.96874 0.75642 0.58641 0.0
H863 H 0.01647 0.7805 0.60826 0.0
H864 H 0.04459 0.83035 0.55248 0.0
H865 H 0.99668 0.80652 0.5305 0.0
H866 H 0.03901 0.8124 0.50448 0.0
H867 H 0.01242 0.66891 0.47342 0.0
H868 H 0.9411 0.63862 0.45925 0.0
H869 H 0.93746 0.73089 0.5244 0.0
C870 C 0.08644 0.78386 0.57368 0.0
C871 C 0.11713 0.77489 0.57324 0.0
C872 C 0.11618 0.74764 0.54621 0.0
C873 C 0.08377 0.72775 0.5216 0.0
C874 C 0.0531 0.73619 0.52381 0.0
C875 C 0.05479 0.76437 0.54869 0.0
C876 C 0.01713 0.76617 0.54805 0.0
C877 C 0.99753 0.75732 0.58759 0.0
C878 C 0.02483 0.80624 0.53297 0.0
C879 C 0.99314 0.73343 0.52026 0.0
C880 C 0.01417 0.71644 0.50626 0.0
C881 C 0.9961 0.68274 0.48344 0.0
C882 C 0.95551 0.6657 0.47547 0.0
C883 C 0.93342 0.6824 0.4903 0.0
C884 C 0.95322 0.71745 0.51194 0.0
H885 H 0.37335 0.07261 0.7793 0.0
H886 H 0.33382 0.13876 0.71219 0.0
H887 H 0.29873 0.08138 0.66892 0.0
H888 H 0.38734 0.01953 0.69778 0.0
H889 H 0.37103 0.97541 0.72561 0.0
H890 H 0.39605 0.02306 0.7482 0.0
H891 H 0.33727 1.00076 0.79475 0.0
H892 H 0.312 0.95327 0.7722 0.0
H893 H 0.28836 0.98254 0.77607 0.0
H894 H 0.25864 0.01225 0.64043 0.0
H895 H 0.22389 0.94078 0.62483 0.0
H896 H 0.29541 0.92277 0.70682 0.0
C897 C 0.35818 0.0753 0.75483 0.0
C898 C 0.35633 0.10996 0.74875 0.0
C899 C 0.33593 0.11253 0.71686 0.0
C900 C 0.31584 0.08006 0.69233 0.0
C901 C 0.31739 0.04577 0.69969 0.0
C902 C 0.33891 0.04365 0.72972 0.0
C903 C 0.33485 1.0032 0.73263 0.0
C904 C 0.37469 1.00545 0.72563 0.0
C905 C 0.31705 0.98382 0.77119 0.0
C906 C 0.30646 0.98223 0.70048 0.0
C907 C 0.29651 0.00711 0.6818 0.0
C908 C 0.26722 0.99291 0.65401 0.0
C909 C 0.24763 0.95239 0.64531 0.0
C910 C 0.25803 0.92686 0.66379 0.0
C911 C 0.28812 0.94213 0.69128 0.0
H912 H 0.80496 0.72039 0.93766 0.0
H913 H 0.72001 0.65145 0.02519 0.0
H914 H 0.68259 0.68559 0.01082 0.0
H915 H 0.80228 0.8122 0.94921 0.0
H916 H 0.80584 0.8212 0.8988 0.0
H917 H 0.82825 0.79511 0.91951 0.0
H918 H 0.78888 0.73664 0.87357 0.0
H919 H 0.76647 0.76252 0.8527 0.0
H920 H 0.73592 0.71374 0.87192 0.0
H921 H 0.65247 0.72501 0.98353 0.0
H922 H 0.62933 0.76063 0.94275 0.0
H923 H 0.7332 0.80086 0.87164 0.0
C924 C 0.77902 0.71302 0.95457 0.0
C925 C 0.76578 0.68362 0.98304 0.0
C926 C 0.73093 0.67411 0.00352 0.0
C927 C 0.7096 0.69347 -0.00438 0.0
C928 C 0.72338 0.72204 0.96701 0.0
C929 C 0.75722 0.73152 0.94669 0.0
C930 C 0.76394 0.76022 0.9149 0.0
C931 C 0.80236 0.79951 0.92099 0.0
C932 C 0.76377 0.74219 0.87599 0.0
C933 C 0.72821 0.76505 0.91994 0.0
C934 C 0.7055 0.74343 0.95054 0.0
C935 C 0.67026 0.74227 0.95973 0.0
C936 C 0.65746 0.76283 0.93648 0.0
C937 C 0.67952 0.78377 0.90401 0.0
C938 C 0.71575 0.78541 0.89633 0.0
H939 H 0.07922 0.80152 0.12848 0.0
H940 H 0.07426 0.70447 0.19248 0.0
H941 H 1.00249 0.66507 0.18033 0.0
H942 H 0.97857 0.78396 0.15243 0.0
H943 H 0.97221 0.79687 0.10493 0.0
H944 H 0.02066 0.81991 0.12578 0.0
H945 H 0.04633 0.79731 0.06859 0.0
H946 H 0.99821 0.77439 0.04765 0.0
H947 H 0.02183 0.74572 0.05635 0.0
H948 H 0.933 0.63316 0.15297 0.0
H949 H 0.87603 0.61098 0.10964 0.0
H950 H 0.92887 0.72864 0.0622 0.0
C951 C 0.06304 0.77245 0.14109 0.0
C952 C 0.08253 0.75631 0.16175 0.0
C953 C 0.06005 0.71771 0.17685 0.0
C954 C 0.01919 0.69515 0.17019 0.0
C955 C 1.00124 0.71165 0.14855 0.0
C956 C 0.02265 0.74956 0.13432 0.0
C957 C 0.99837 0.75893 0.10753 0.0
C958 C 0.99208 0.79187 0.12365 0.0
C959 C 0.01731 0.76968 0.0677 0.0
C960 C 0.96034 0.71984 0.10748 0.0
C961 C 0.96196 0.69314 0.13205 0.0
C962 C 0.9312 0.65409 0.13424 0.0
C963 C 0.89882 0.64177 0.10972 0.0
C964 C 0.89802 0.66828 0.08292 0.0
C965 C 0.92854 0.70799 0.08284 0.0
H966 H 0.29025 0.08004 0.28619 0.0
H967 H 0.37659 0.07251 0.3572 0.0
H968 H 0.34357 1.00066 0.34507 0.0
H969 H 0.20462 0.98184 0.30959 0.0
H970 H 0.18704 0.97472 0.26142 0.0
H971 H 0.21339 0.02371 0.28111 0.0
H972 H 0.2636 0.04608 0.22548 0.0
H973 H 0.2374 0.99739 0.20564 0.0
H974 H 0.28921 0.01941 0.21604 0.0
H975 H 0.30558 0.93072 0.31787 0.0
H976 H 0.26952 0.87236 0.27619 0.0
H977 H 0.20951 0.92764 0.22352 0.0
C978 C 0.30185 0.06333 0.30005 0.0
C979 C 0.33603 0.08209 0.32281 0.0
C980 C 0.35031 0.05888 0.33986 0.0
C981 C 0.33165 0.01798 0.33321 0.0
C982 C 0.29855 1.00068 0.30975 0.0
C983 C 0.28379 0.0228 0.29363 0.0
C984 C 0.2507 0.99868 0.26628 0.0
C985 C 0.21162 0.99449 0.28047 0.0
C986 C 0.26087 0.01644 0.226 0.0
C987 C 0.25001 0.95981 0.26828 0.0
C988 C 0.27717 0.96103 0.29402 0.0
C989 C 0.28372 0.92926 0.2982 0.0
C990 C 0.26296 0.89611 0.2746 0.0
C991 C 0.23655 0.89543 0.24686 0.0
C992 C 0.22921 0.92718 0.24475 0.0
H993 H 0.29219 0.203 0.39674 0.0
H994 H 0.4092 0.27061 0.44467 0.0
H995 H 0.38661 0.30845 0.48344 0.0
H996 H 0.27759 0.27955 0.38245 0.0
H997 H 0.22564 0.25417 0.39342 0.0
H998 H 0.24823 0.22686 0.37654 0.0
H999 H 0.22367 0.18194 0.43607 0.0
H1000 H 0.20028 0.20873 0.45297 0.0
H1001 H 0.23501 0.20387 0.48265 0.0
H1002 H 0.35345 0.3469 0.50784 0.0
H1003 H 0.31296 0.37882 0.51705 0.0
H1004 H 0.21873 0.28504 0.45213 0.0
C1005 C 0.31271 0.22471 0.41651 0.0
C1006 C 0.35236 0.2336 0.41791 0.0
C1007 C 0.37848 0.26273 0.44365 0.0
C1008 C 0.36592 0.28457 0.4656 0.0
C1009 C 0.32704 0.27646 0.46188 0.0
C1010 C 0.30069 0.24659 0.4384 0.0
C1011 C 0.26193 0.24611 0.43587 0.0
C1012 C 0.25286 0.25205 0.39465 0.0
C1013 C 0.22823 0.20789 0.45292 0.0
C1014 C 0.27093 0.28135 0.46027 0.0
C1015 C 0.30834 0.29836 0.47557 0.0
C1016 C 0.32382 0.33325 0.4966 0.0
C1017 C 0.30063 0.35124 0.50168 0.0
C1018 C 0.26257 0.33455 0.48538 0.0
C1019 C 0.24758 0.2987 0.46517 0.0
H1020 H 0.1054 0.38561 0.5728 0.0
H1021 H 0.1349 0.29348 0.58557 0.0
H1022 H 0.07594 0.25564 0.626 0.0
H1023 H 0.05536 0.37355 0.66887 0.0
H1024 H 0.01798 0.38157 0.64801 0.0
H1025 H 0.06721 0.40585 0.62849 0.0
H1026 H 0.03883 0.37639 0.5625 0.0
H1027 H 0.98971 0.35177 0.58177 0.0
H1028 H 1.0082 0.32371 0.55755 0.0
H1029 H 1.0091 0.22274 0.65391 0.0
H1030 H 0.93845 0.19637 0.66725 0.0
H1031 H 0.94984 0.30865 0.63594 0.0
C1032 C 0.10036 0.35843 0.58587 0.0
C1033 C 0.12519 0.34289 0.5774 0.0
C1034 C 0.1167 0.30619 0.59282 0.0
C1035 C 0.08329 0.28457 0.61573 0.0
C1036 C 0.05847 0.29993 0.62256 0.0
C1037 C 0.06662 0.33615 0.60825 0.0
C1038 C 0.03218 0.34306 0.61477 0.0
C1039 C 0.04389 0.37809 0.64164 0.0
C1040 C 0.01631 0.34906 0.57691 0.0
C1041 C 1.00281 0.30445 0.63354 0.0
C1042 C 0.01894 0.28035 0.63833 0.0
C1043 C 0.99646 0.24166 0.6512 0.0
C1044 C 0.95632 0.22689 0.65858 0.0
C1045 C 0.93892 0.25068 0.65318 0.0
C1046 C 0.96272 0.29028 0.64144 0.0
H1047 H 0.81641 0.09116 0.72724 0.0
H1048 H 0.75276 0.14582 0.77342 0.0
H1049 H 0.71503 0.0879 0.81542 0.0
H1050 H 0.73889 1.00053 0.71797 0.0
H1051 H 0.76342 0.9735 0.73019 0.0
H1052 H 0.79135 0.02236 0.71097 0.0
H1053 H 0.83745 0.04487 0.76947 0.0
H1054 H 0.81003 0.99569 0.78872 0.0
H1055 H 0.81656 0.03721 0.81649 0.0
H1056 H 0.67532 0.01767 0.84248 0.0
H1057 H 0.64137 0.94556 0.85412 0.0
H1058 H 0.73279 0.93907 0.79004 0.0
C1059 C 0.79574 0.09169 0.74741 0.0
C1060 C 0.78779 0.12307 0.74746 0.0
C1061 C 0.75991 0.12243 0.77357 0.0
C1062 C 0.73817 0.08949 0.79732 0.0
C1063 C 0.74526 0.05792 0.79503 0.0
C1064 C 0.77412 0.05932 0.77122 0.0
C1065 C 0.77349 0.02041 0.77049 0.0
C1066 C 0.76634 1.00322 0.73002 0.0
C1067 C 0.81165 0.02482 0.78731 0.0
C1068 C 0.73858 0.99613 0.79612 0.0
C1069 C 0.7228 0.01812 0.81053 0.0
C1070 C 0.68808 1.0005 0.83204 0.0
C1071 C 0.66892 0.95946 0.83848 0.0
C1072 C 0.68435 0.93646 0.82313 0.0
C1073 C 0.72016 0.95558 0.8025 0.0
H1074 H 0.18761 0.33417 0.32026 0.0
H1075 H 0.18107 0.44011 0.33991 0.0
H1076 H 0.15763 0.43719 0.27502 0.0
H1077 H 0.23132 0.36544 0.23218 0.0
H1078 H 0.20832 0.31731 0.21055 0.0
H1079 H 0.21514 0.32195 0.26099 0.0
H1080 H 0.13996 0.27393 0.26997 0.0
H1081 H 0.13297 0.27043 0.21924 0.0
H1082 H 0.10516 0.28554 0.24873 0.0
H1083 H 0.13899 0.42676 0.20939 0.0
H1084 H 0.15151 0.42556 0.14121 0.0
H1085 H 0.17564 0.33018 0.15948 0.0
C1086 C 0.18034 0.35607 0.31083 0.0
C1087 C 0.18554 0.38701 0.33488 0.0
C1088 C 0.17722 0.41615 0.32167 0.0
C1089 C 0.16295 0.4142 0.2852 0.0
C1090 C 0.15715 0.38296 0.26216 0.0
C1091 C 0.16706 0.35526 0.27378 0.0
C1092 C 0.16716 0.33078 0.24054 0.0
C1093 C 0.20789 0.33411 0.23578 0.0
C1094 C 0.13435 0.2876 0.24489 0.0
C1095 C 0.15812 0.35077 0.20838 0.0
C1096 C 0.14996 0.37906 0.22203 0.0
C1097 C 0.14495 0.40453 0.19819 0.0
C1098 C 0.15209 0.40364 0.15955 0.0
C1099 C 0.16478 0.378 0.14556 0.0
C1100 C 0.16515 0.34942 0.16964 0.0
H1101 H 0.77137 0.191 0.48421 0.0
H1102 H 0.86161 0.16111 0.51054 0.0
H1103 H 0.86298 0.14417 0.44304 0.0
H1104 H 0.71823 0.11443 0.41257 0.0
H1105 H 0.70859 0.14773 0.38583 0.0
H1106 H 0.71356 0.15262 0.43666 0.0
H1107 H 0.76876 0.22642 0.4262 0.0
H1108 H 0.76358 0.21951 0.37573 0.0
H1109 H 0.81103 0.23674 0.39741 0.0
H1110 H 0.85728 0.13532 0.37139 0.0
H1111 H 0.85077 0.14339 0.3026 0.0
H1112 H 0.76061 0.17389 0.32655 0.0
C1113 C 0.79156 0.18094 0.47608 0.0
C1114 C 0.81647 0.17753 0.5027 0.0
C1115 C 0.84239 0.16423 0.49055 0.0
C1116 C 0.84299 0.15402 0.45243 0.0
C1117 C 0.81713 0.1568 0.42721 0.0
C1118 C 0.79211 0.17019 0.43866 0.0
C1119 C 0.7693 0.17362 0.40602 0.0
C1120 C 0.72477 0.14542 0.41063 0.0
C1121 C 0.77877 0.21661 0.40104 0.0
C1122 C 0.78583 0.16073 0.37407 0.0
C1123 C 0.81312 0.15073 0.3866 0.0
C1124 C 0.8354 0.1423 0.36131 0.0
C1125 C 0.83124 0.14655 0.3223 0.0
C1126 C 0.80517 0.15927 0.30951 0.0
C1127 C 0.78055 0.16386 0.33563 0.0
H1128 H 0.66437 0.837 0.66021 0.0
H1129 H 0.54479 0.81118 0.68319 0.0
H1130 H 0.53197 0.8083 0.61483 0.0
H1131 H 0.67568 0.89647 0.56815 0.0
H1132 H 0.70509 0.878 0.54666 0.0
H1133 H 0.70767 0.88663 0.59711 0.0
H1134 H 0.69075 0.81442 0.60813 0.0
H1135 H 0.68619 0.80483 0.55795 0.0
H1136 H 0.64555 0.77468 0.5892 0.0
H1137 H 0.52608 0.78995 0.54859 0.0
H1138 H 0.5328 0.77821 0.48157 0.0
H1139 H 0.65807 0.82214 0.49761 0.0
C1140 C 0.6363 0.8329 0.6507 0.0
C1141 C 0.60539 0.82389 0.67668 0.0
C1142 C 0.56866 0.81778 0.66352 0.0
C1143 C 0.56106 0.81602 0.62481 0.0
C1144 C 0.59089 0.82151 0.59984 0.0
C1145 C 0.62836 0.83164 0.61186 0.0
C1146 C 0.65403 0.83367 0.57859 0.0
C1147 C 0.6876 0.87623 0.57225 0.0
C1148 C 0.67005 0.8052 0.58381 0.0
C1149 C 0.62418 0.82034 0.54676 0.0
C1150 C 0.58799 0.81329 0.55998 0.0
C1151 C 0.55457 0.79677 0.53739 0.0
C1152 C 0.55864 0.78945 0.49947 0.0
C1153 C 0.59611 0.79955 0.48426 0.0
C1154 C 0.62918 0.81445 0.50845 0.0
H1155 H 0.83149 0.57793 0.82075 0.0
H1156 H 0.85709 0.69676 0.84766 0.0
H1157 H 0.87116 0.71488 0.78 0.0
H1158 H 0.90624 0.60598 0.74528 0.0
H1159 H 0.87449 0.56317 0.71728 0.0
H1160 H 0.87084 0.56084 0.76833 0.0
H1161 H 0.79622 0.53804 0.76458 0.0
H1162 H 0.79952 0.53936 0.71374 0.0
H1163 H 0.78072 0.56718 0.73792 0.0
H1164 H 0.87686 0.71819 0.70937 0.0
H1165 H 0.8644 0.7039 0.64111 0.0
H1166 H 0.83627 0.58325 0.66146 0.0
C1167 C 0.84019 0.60787 0.81262 0.0
C1168 C 0.84309 0.63588 0.83949 0.0
C1169 C 0.85445 0.67469 0.8275 0.0
C1170 C 0.86308 0.68543 0.78927 0.0
C1171 C 0.86058 0.65715 0.76367 0.0
C1172 C 0.84909 0.61909 0.77487 0.0
C1173 C 0.84497 0.5931 0.74159 0.0
C1174 C 0.876 0.58002 0.74323 0.0
C1175 C 0.80287 0.55736 0.73933 0.0
C1176 C 0.85355 0.62185 0.70958 0.0
C1177 C 0.86378 0.659 0.72287 0.0
C1178 C 0.86951 0.68945 0.69855 0.0
C1179 C 0.86248 0.68106 0.65981 0.0
C1180 C 0.84912 0.64236 0.64623 0.0
C1181 C 0.84658 0.61309 0.67116 0.0
H1182 H 0.21846 0.78312 0.83115 0.0
H1183 H 0.1678 0.85662 0.80379 0.0
H1184 H 0.16017 0.86513 0.87225 0.0
H1185 H 0.15477 0.73218 0.90714 0.0
H1186 H 0.19211 0.73017 0.93522 0.0
H1187 H 0.19587 0.7319 0.88425 0.0
H1188 H 0.26537 0.79429 0.88763 0.0
H1189 H 0.26233 0.79205 0.93861 0.0
H1190 H 0.27198 0.83649 0.91427 0.0
H1191 H 0.1559 0.863 0.94419 0.0
H1192 H 0.16286 0.85687 0.01332 0.0
H1193 H 0.2137 0.78254 0.9908 0.0
C1194 C 0.20623 0.80147 0.8394 0.0
C1195 C 0.19368 0.81914 0.81222 0.0
C1196 C 0.17791 0.84303 0.82425 0.0
C1197 C 0.17309 0.84771 0.86299 0.0
C1198 C 0.18427 0.82838 0.88898 0.0
C1199 C 0.20103 0.80624 0.8776 0.0
C1200 C 0.21057 0.78829 0.91076 0.0
C1201 C 0.18691 0.74295 0.90923 0.0
C1202 C 0.25521 0.80372 0.91295 0.0
C1203 C 0.19671 0.80389 0.94275 0.0
C1204 C 0.18137 0.82675 0.92984 0.0
C1205 C 0.16777 0.8451 0.95465 0.0
C1206 C 0.17148 0.84115 0.99376 0.0
C1207 C 0.18884 0.81927 0.00717 0.0
C1208 C 0.20035 0.79949 0.98129 0.0
H1209 H 0.43964 0.2516 -0.00418 0.0
H1210 H 0.31767 0.1639 0.97413 0.0
H1211 H 0.30381 0.15871 0.04298 0.0
H1212 H 0.45365 0.20635 0.06861 0.0
H1213 H 0.48432 0.24921 0.09701 0.0
H1214 H 0.48295 0.25389 0.04642 0.0
H1215 H 0.46254 0.30692 0.05409 0.0
H1216 H 0.46435 0.30343 0.10498 0.0
H1217 H 0.42004 0.29647 0.08248 0.0
H1218 H 0.30676 0.15427 0.11419 0.0
H1219 H 0.32435 0.1572 0.18197 0.0
H1220 H 0.44505 0.246 0.15513 0.0
C1221 C 0.40965 0.23247 0.00547 0.0
C1222 C 0.37975 0.20813 0.97989 0.0
C1223 C 0.3409 0.18316 0.99337 0.0
C1224 C 0.33282 0.17984 0.03242 0.0
C1225 C 0.36379 0.20223 0.05716 0.0
C1226 C 0.40121 0.22883 0.04411 0.0
C1227 C 0.43032 0.24658 0.0762 0.0
C1228 C 0.46481 0.23849 0.07177 0.0
C1229 C 0.44519 0.29098 0.07966 0.0
C1230 C 0.40407 0.224 0.10913 0.0
C1231 C 0.36565 0.1991 0.09787 0.0
C1232 C 0.33661 0.17417 0.12343 0.0
C1233 C 0.34697 0.17569 0.16172 0.0
C1234 C 0.38616 0.2015 0.17374 0.0
C1235 C 0.41496 0.22552 0.14686 0.0
loop_
_geom_bond_atom_site_label_1
_geom_bond_atom_site_label_2
_geom_bond_distance
_geom_bond_site_symmetry_2
_ccdc_geom_bond_type
Sc0 O3 2.025 1_556 S
Sc0 O10 2.105 1_556 S
Sc0 O13 2.105 . S
Sc0 O16 2.105 . S
Sc0 O19 2.105 1_556 S
Sc1 O3 2.025 . S
Sc1 O11 2.105 . S
Sc1 O15 2.105 . S
Sc1 O17 2.105 . S
Sc1 O21 2.105 . S
Sc2 O3 2.025 . S
Sc2 O12 2.105 . S
Sc2 O14 2.105 . S
Sc2 O18 2.105 . S
Sc2 O20 2.105 . S
O3 Sc0 2.025 1_554 S
O3 Sc1 2.025 . S
O3 Sc2 2.025 . S
C4 O10 1.268 . S
C4 O20 1.268 . S
C5 O11 1.268 . S
C5 O19 1.268 . S
C6 O12 1.268 . S
C6 O21 1.268 . S
C7 O13 1.268 . S
C7 O17 1.268 1_556 S
C8 O14 1.268 1_556 S
C8 O16 1.268 . S
C9 O15 1.268 . S
C9 O18 1.268 . S
O10 Sc0 2.105 1_554 S
O10 C4 1.268 . S
O11 Sc1 2.105 . S
O11 C5 1.268 . S
O12 Sc2 2.105 . S
O12 C6 1.268 . S
O13 Sc0 2.105 . S
O13 C7 1.268 . S
O14 Sc2 2.105 . S
O14 C8 1.268 1_554 S
O15 Sc1 2.105 . S
O15 C9 1.268 . S
O16 Sc0 2.105 . S
O16 C8 1.268 . S
O17 Sc1 2.105 . S
O17 C7 1.268 1_554 S
O18 Sc2 2.105 . S
O18 C9 1.268 . S
O19 Sc0 2.105 1_554 S
O19 C5 1.268 . S
O20 Sc2 2.105 . S
O20 C4 1.268 . S
O21 Sc1 2.105 . S
O21 C6 1.268 . S
Sc22 O25 2.025 . S
Sc22 O32 2.105 . S
Sc22 O35 2.105 . S
Sc22 O38 2.105 . S
Sc22 O41 2.105 . S
Sc23 O25 2.025 . S
Sc23 O33 2.105 . S
Sc23 O37 2.105 . S
Sc23 O39 2.105 . S
Sc23 O43 2.105 . S
Sc24 O25 2.025 . S
Sc24 O34 2.105 . S
Sc24 O36 2.105 . S
Sc24 O40 2.105 . S
Sc24 O42 2.105 . S
O25 Sc22 2.025 . S
O25 Sc23 2.025 . S
O25 Sc24 2.025 . S
C26 O32 1.268 . S
C26 O42 1.268 . S
C27 O33 1.268 . S
C27 O41 1.268 . S
C28 O34 1.268 . S
C28 O43 1.268 . S
C29 O35 1.268 . S
C29 O39 1.268 . S
C30 O36 1.268 . S
C30 O38 1.268 . S
C31 O37 1.268 . S
C31 O40 1.268 . S
O32 Sc22 2.105 . S
O32 C26 1.268 . S
O33 Sc23 2.105 . S
O33 C27 1.268 . S
O34 Sc24 2.105 . S
O34 C28 1.268 . S
O35 Sc22 2.105 . S
O35 C29 1.268 . S
O36 Sc24 2.105 . S
O36 C30 1.268 . S
O37 Sc23 2.105 . S
O37 C31 1.268 . S
O38 Sc22 2.105 . S
O38 C30 1.268 . S
O39 Sc23 2.105 . S
O39 C29 1.268 . S
O40 Sc24 2.105 . S
O40 C31 1.268 . S
O41 Sc22 2.105 . S
O41 C27 1.268 . S
O42 Sc24 2.105 . S
O42 C26 1.268 . S
O43 Sc23 2.105 . S
O43 C28 1.268 . S
Sc44 O47 2.025 . S
Sc44 O54 2.105 . S
Sc44 O57 2.105 . S
Sc44 O60 2.105 . S
Sc44 O63 2.105 . S
Sc45 O47 2.025 . S
Sc45 O55 2.105 . S
Sc45 O59 2.105 . S
Sc45 O61 2.105 . S
Sc45 O65 2.105 . S
Sc46 O47 2.025 . S
Sc46 O56 2.105 . S
Sc46 O58 2.105 . S
Sc46 O62 2.105 . S
Sc46 O64 2.105 . S
O47 Sc44 2.025 . S
O47 Sc45 2.025 . S
O47 Sc46 2.025 . S
C48 O54 1.268 . S
C48 O64 1.268 . S
C49 O55 1.268 . S
C49 O63 1.268 . S
C50 O56 1.268 . S
C50 O65 1.268 . S
C51 O57 1.268 . S
C51 O61 1.268 . S
C52 O58 1.268 . S
C52 O60 1.268 . S
C53 O59 1.268 . S
C53 O62 1.268 . S
O54 Sc44 2.105 . S
O54 C48 1.268 . S
O55 Sc45 2.105 . S
O55 C49 1.268 . S
O56 Sc46 2.105 . S
O56 C50 1.268 . S
O57 Sc44 2.105 . S
O57 C51 1.268 . S
O58 Sc46 2.105 . S
O58 C52 1.268 . S
O59 Sc45 2.105 . S
O59 C53 1.268 . S
O60 Sc44 2.105 . S
O60 C52 1.268 . S
O61 Sc45 2.105 . S
O61 C51 1.268 . S
O62 Sc46 2.105 . S
O62 C53 1.268 . S
O63 Sc44 2.105 . S
O63 C49 1.268 . S
O64 Sc46 2.105 . S
O64 C48 1.268 . S
O65 Sc45 2.105 . S
O65 C50 1.268 . S
Sc66 O69 2.025 . S
Sc66 O76 2.105 . S
Sc66 O79 2.105 . S
Sc66 O82 2.105 . S
Sc66 O85 2.105 . S
Sc67 O69 2.025 . S
Sc67 O77 2.105 . S
Sc67 O81 2.105 . S
Sc67 O83 2.105 . S
Sc67 O87 2.105 . S
Sc68 O69 2.025 . S
Sc68 O78 2.105 . S
Sc68 O80 2.105 . S
Sc68 O84 2.105 . S
Sc68 O86 2.105 . S
O69 Sc66 2.025 . S
O69 Sc67 2.025 . S
O69 Sc68 2.025 . S
C70 O76 1.268 . S
C70 O86 1.268 . S
C71 O77 1.268 . S
C71 O85 1.268 . S
C72 O78 1.268 . S
C72 O87 1.268 . S
C73 O79 1.268 . S
C73 O83 1.268 . S
C74 O80 1.268 . S
C74 O82 1.268 . S
C75 O81 1.268 . S
C75 O84 1.268 . S
O76 Sc66 2.105 . S
O76 C70 1.268 . S
O77 Sc67 2.105 . S
O77 C71 1.268 . S
O78 Sc68 2.105 . S
O78 C72 1.268 . S
O79 Sc66 2.105 . S
O79 C73 1.268 . S
O80 Sc68 2.105 . S
O80 C74 1.268 . S
O81 Sc67 2.105 . S
O81 C75 1.268 . S
O82 Sc66 2.105 . S
O82 C74 1.268 . S
O83 Sc67 2.105 . S
O83 C73 1.268 . S
O84 Sc68 2.105 . S
O84 C75 1.268 . S
O85 Sc66 2.105 . S
O85 C71 1.268 . S
O86 Sc68 2.105 . S
O86 C70 1.268 . S
O87 Sc67 2.105 . S
O87 C72 1.268 . S
Sc88 O91 2.025 . S
Sc88 O98 2.105 . S
Sc88 O101 2.105 . S
Sc88 O104 2.105 . S
Sc88 O107 2.105 . S
Sc89 O91 2.025 . S
Sc89 O99 2.105 . S
Sc89 O103 2.105 . S
Sc89 O105 2.105 . S
Sc89 O109 2.105 . S
Sc90 O91 2.025 . S
Sc90 O100 2.105 . S
Sc90 O102 2.105 . S
Sc90 O106 2.105 . S
Sc90 O108 2.105 . S
O91 Sc88 2.025 . S
O91 Sc89 2.025 . S
O91 Sc90 2.025 . S
C92 O98 1.268 . S
C92 O108 1.268 . S
C93 O99 1.268 . S
C93 O107 1.268 . S
C94 O100 1.268 . S
C94 O109 1.268 . S
C95 O101 1.268 . S
C95 O105 1.268 . S
C96 O102 1.268 . S
C96 O104 1.268 . S
C97 O103 1.268 . S
C97 O106 1.268 . S
O98 Sc88 2.105 . S
O98 C92 1.268 . S
O99 Sc89 2.105 . S
O99 C93 1.268 . S
O100 Sc90 2.105 . S
O100 C94 1.268 . S
O101 Sc88 2.105 . S
O101 C95 1.268 . S
O102 Sc90 2.105 . S
O102 C96 1.268 . S
O103 Sc89 2.105 . S
O103 C97 1.268 . S
O104 Sc88 2.105 . S
O104 C96 1.268 . S
O105 Sc89 2.105 . S
O105 C95 1.268 . S
O106 Sc90 2.105 . S
O106 C97 1.268 . S
O107 Sc88 2.105 . S
O107 C93 1.268 . S
O108 Sc90 2.105 . S
O108 C92 1.268 . S
O109 Sc89 2.105 . S
O109 C94 1.268 . S
Sc110 O113 2.025 . S
Sc110 O120 2.105 . S
Sc110 O123 2.105 . S
Sc110 O126 2.105 . S
Sc110 O129 2.105 . S
Sc111 O113 2.025 . S
Sc111 O121 2.105 . S
Sc111 O125 2.105 . S
Sc111 O127 2.105 . S
Sc111 O131 2.105 . S
Sc112 O113 2.025 . S
Sc112 O122 2.105 . S
Sc112 O124 2.105 . S
Sc112 O128 2.105 . S
Sc112 O130 2.105 . S
O113 Sc110 2.025 . S
O113 Sc111 2.025 . S
O113 Sc112 2.025 . S
C114 O120 1.268 . S
C114 O130 1.268 . S
C115 O121 1.268 . S
C115 O129 1.268 . S
C116 O122 1.268 . S
C116 O131 1.268 . S
C117 O123 1.268 . S
C117 O127 1.268 . S
C118 O124 1.268 . S
C118 O126 1.268 . S
C119 O125 1.268 . S
C119 O128 1.268 . S
O120 Sc110 2.105 . S
O120 C114 1.268 . S
O121 Sc111 2.105 . S
O121 C115 1.268 . S
O122 Sc112 2.105 . S
O122 C116 1.268 . S
O123 Sc110 2.105 . S
O123 C117 1.268 . S
O124 Sc112 2.105 . S
O124 C118 1.268 . S
O125 Sc111 2.105 . S
O125 C119 1.268 . S
O126 Sc110 2.105 . S
O126 C118 1.268 . S
O127 Sc111 2.105 . S
O127 C117 1.268 . S
O128 Sc112 2.105 . S
O128 C119 1.268 . S
O129 Sc110 2.105 . S
O129 C115 1.268 . S
O130 Sc112 2.105 . S
O130 C114 1.268 . S
O131 Sc111 2.105 . S
O131 C116 1.268 . S
Sc132 O135 2.025 . S
Sc132 O142 2.105 . S
Sc132 O145 2.105 . S
Sc132 O148 2.105 . S
Sc132 O151 2.105 . S
Sc133 O135 2.025 . S
Sc133 O143 2.105 . S
Sc133 O147 2.105 . S
Sc133 O149 2.105 . S
Sc133 O153 2.105 . S
Sc134 O135 2.025 . S
Sc134 O144 2.105 . S
Sc134 O146 2.105 . S
Sc134 O150 2.105 . S
Sc134 O152 2.105 . S
O135 Sc132 2.025 . S
O135 Sc133 2.025 . S
O135 Sc134 2.025 . S
C136 O142 1.268 . S
C136 O152 1.268 . S
C137 O143 1.268 . S
C137 O151 1.268 . S
C138 O144 1.268 . S
C138 O153 1.268 . S
C139 O145 1.268 . S
C139 O149 1.268 . S
C140 O146 1.268 . S
C140 O148 1.268 . S
C141 O147 1.268 . S
C141 O150 1.268 . S
O142 Sc132 2.105 . S
O142 C136 1.268 . S
O143 Sc133 2.105 . S
O143 C137 1.268 . S
O144 Sc134 2.105 . S
O144 C138 1.268 . S
O145 Sc132 2.105 . S
O145 C139 1.268 . S
O146 Sc134 2.105 . S
O146 C140 1.268 . S
O147 Sc133 2.105 . S
O147 C141 1.268 . S
O148 Sc132 2.105 . S
O148 C140 1.268 . S
O149 Sc133 2.105 . S
O149 C139 1.268 . S
O150 Sc134 2.105 . S
O150 C141 1.268 . S
O151 Sc132 2.105 . S
O151 C137 1.268 . S
O152 Sc134 2.105 . S
O152 C136 1.268 . S
O153 Sc133 2.105 . S
O153 C138 1.268 . S
Sc154 O157 2.025 . S
Sc154 O164 2.105 . S
Sc154 O167 2.105 . S
Sc154 O170 2.105 . S
Sc154 O173 2.105 . S
Sc155 O157 2.025 . S
Sc155 O165 2.105 . S
Sc155 O169 2.105 . S
Sc155 O171 2.105 . S
Sc155 O175 2.105 . S
Sc156 O157 2.025 1_554 S
Sc156 O166 2.105 . S
Sc156 O168 2.105 1_554 S
Sc156 O172 2.105 1_554 S
Sc156 O174 2.105 . S
O157 Sc154 2.025 . S
O157 Sc155 2.025 . S
O157 Sc156 2.025 1_556 S
C158 O164 1.268 1_554 S
C158 O174 1.268 . S
C159 O165 1.268 . S
C159 O173 1.268 . S
C160 O166 1.268 . S
C160 O175 1.268 1_554 S
C161 O167 1.268 . S
C161 O171 1.268 . S
C162 O168 1.268 . S
C162 O170 1.268 . S
C163 O169 1.268 . S
C163 O172 1.268 . S
O164 Sc154 2.105 . S
O164 C158 1.268 1_556 S
O165 Sc155 2.105 . S
O165 C159 1.268 . S
O166 Sc156 2.105 . S
O166 C160 1.268 . S
O167 Sc154 2.105 . S
O167 C161 1.268 . S
O168 Sc156 2.105 1_556 S
O168 C162 1.268 . S
O169 Sc155 2.105 . S
O169 C163 1.268 . S
O170 Sc154 2.105 . S
O170 C162 1.268 . S
O171 Sc155 2.105 . S
O171 C161 1.268 . S
O172 Sc156 2.105 1_556 S
O172 C163 1.268 . S
O173 Sc154 2.105 . S
O173 C159 1.268 . S
O174 Sc156 2.105 . S
O174 C158 1.268 . S
O175 Sc155 2.105 . S
O175 C160 1.268 1_556 S
Sc176 O179 2.025 . S
Sc176 O186 2.105 . S
Sc176 O189 2.105 . S
Sc176 O192 2.105 . S
Sc176 O195 2.105 . S
Sc177 O179 2.025 . S
Sc177 O187 2.105 . S
Sc177 O191 2.105 . S
Sc177 O193 2.105 . S
Sc177 O197 2.105 . S
Sc178 O179 2.025 . S
Sc178 O188 2.105 . S
Sc178 O190 2.105 . S
Sc178 O194 2.105 . S
Sc178 O196 2.105 . S
O179 Sc176 2.025 . S
O179 Sc177 2.025 . S
O179 Sc178 2.025 . S
C180 O186 1.268 . S
C180 O196 1.268 . S
C181 O187 1.268 . S
C181 O195 1.268 . S
C182 O188 1.268 . S
C182 O197 1.268 . S
C183 O189 1.268 . S
C183 O193 1.268 . S
C184 O190 1.268 . S
C184 O192 1.268 . S
C185 O191 1.268 . S
C185 O194 1.268 . S
O186 Sc176 2.105 . S
O186 C180 1.268 . S
O187 Sc177 2.105 . S
O187 C181 1.268 . S
O188 Sc178 2.105 . S
O188 C182 1.268 . S
O189 Sc176 2.105 . S
O189 C183 1.268 . S
O190 Sc178 2.105 . S
O190 C184 1.268 . S
O191 Sc177 2.105 . S
O191 C185 1.268 . S
O192 Sc176 2.105 . S
O192 C184 1.268 . S
O193 Sc177 2.105 . S
O193 C183 1.268 . S
O194 Sc178 2.105 . S
O194 C185 1.268 . S
O195 Sc176 2.105 . S
O195 C181 1.268 . S
O196 Sc178 2.105 . S
O196 C180 1.268 . S
O197 Sc177 2.105 . S
O197 C182 1.268 . S
Sc198 O201 2.025 . S
Sc198 O208 2.105 . S
Sc198 O211 2.105 . S
Sc198 O214 2.105 . S
Sc198 O217 2.105 . S
Sc199 O201 2.025 . S
Sc199 O209 2.105 . S
Sc199 O213 2.105 . S
Sc199 O215 2.105 . S
Sc199 O219 2.105 . S
Sc200 O201 2.025 . S
Sc200 O210 2.105 . S
Sc200 O212 2.105 . S
Sc200 O216 2.105 . S
Sc200 O218 2.105 . S
O201 Sc198 2.025 . S
O201 Sc199 2.025 . S
O201 Sc200 2.025 . S
C202 O208 1.268 . S
C202 O218 1.268 . S
C203 O209 1.268 . S
C203 O217 1.268 . S
C204 O210 1.268 . S
C204 O219 1.268 . S
C205 O211 1.268 . S
C205 O215 1.268 . S
C206 O212 1.268 . S
C206 O214 1.268 . S
C207 O213 1.268 . S
C207 O216 1.268 . S
O208 Sc198 2.105 . S
O208 C202 1.268 . S
O209 Sc199 2.105 . S
O209 C203 1.268 . S
O210 Sc200 2.105 . S
O210 C204 1.268 . S
O211 Sc198 2.105 . S
O211 C205 1.268 . S
O212 Sc200 2.105 . S
O212 C206 1.268 . S
O213 Sc199 2.105 . S
O213 C207 1.268 . S
O214 Sc198 2.105 . S
O214 C206 1.268 . S
O215 Sc199 2.105 . S
O215 C205 1.268 . S
O216 Sc200 2.105 . S
O216 C207 1.268 . S
O217 Sc198 2.105 . S
O217 C203 1.268 . S
O218 Sc200 2.105 . S
O218 C202 1.268 . S
O219 Sc199 2.105 . S
O219 C204 1.268 . S
Sc220 O223 2.025 . S
Sc220 O230 2.105 . S
Sc220 O233 2.105 . S
Sc220 O236 2.105 . S
Sc220 O239 2.105 . S
Sc221 O223 2.025 . S
Sc221 O231 2.105 . S
Sc221 O235 2.105 . S
Sc221 O237 2.105 . S
Sc221 O241 2.105 . S
Sc222 O223 2.025 . S
Sc222 O232 2.105 . S
Sc222 O234 2.105 . S
Sc222 O238 2.105 . S
Sc222 O240 2.105 . S
O223 Sc220 2.025 . S
O223 Sc221 2.025 . S
O223 Sc222 2.025 . S
C224 O230 1.268 . S
C224 O240 1.268 . S
C225 O231 1.268 . S
C225 O239 1.268 . S
C226 O232 1.268 . S
C226 O241 1.268 . S
C227 O233 1.268 . S
C227 O237 1.268 . S
C228 O234 1.268 . S
C228 O236 1.268 . S
C229 O235 1.268 . S
C229 O238 1.268 . S
O230 Sc220 2.105 . S
O230 C224 1.268 . S
O231 Sc221 2.105 . S
O231 C225 1.268 . S
O232 Sc222 2.105 . S
O232 C226 1.268 . S
O233 Sc220 2.105 . S
O233 C227 1.268 . S
O234 Sc222 2.105 . S
O234 C228 1.268 . S
O235 Sc221 2.105 . S
O235 C229 1.268 . S
O236 Sc220 2.105 . S
O236 C228 1.268 . S
O237 Sc221 2.105 . S
O237 C227 1.268 . S
O238 Sc222 2.105 . S
O238 C229 1.268 . S
O239 Sc220 2.105 . S
O239 C225 1.268 . S
O240 Sc222 2.105 . S
O240 C224 1.268 . S
O241 Sc221 2.105 . S
O241 C226 1.268 . S
Sc242 O245 2.025 . S
Sc242 O252 2.105 . S
Sc242 O255 2.105 . S
Sc242 O258 2.105 . S
Sc242 O261 2.105 . S
Sc243 O245 2.025 . S
Sc243 O253 2.105 . S
Sc243 O257 2.105 . S
Sc243 O259 2.105 . S
Sc243 O263 2.105 . S
Sc244 O245 2.025 . S
Sc244 O254 2.105 . S
Sc244 O256 2.105 . S
Sc244 O260 2.105 . S
Sc244 O262 2.105 . S
O245 Sc242 2.025 . S
O245 Sc243 2.025 . S
O245 Sc244 2.025 . S
C246 O252 1.268 . S
C246 O262 1.268 . S
C247 O253 1.268 . S
C247 O261 1.268 . S
C248 O254 1.268 . S
C248 O263 1.268 . S
C249 O255 1.268 . S
C249 O259 1.268 . S
C250 O256 1.268 . S
C250 O258 1.268 . S
C251 O257 1.268 . S
C251 O260 1.268 . S
O252 Sc242 2.105 . S
O252 C246 1.268 . S
O253 Sc243 2.105 . S
O253 C247 1.268 . S
O254 Sc244 2.105 . S
O254 C248 1.268 . S
O255 Sc242 2.105 . S
O255 C249 1.268 . S
O256 Sc244 2.105 . S
O256 C250 1.268 . S
O257 Sc243 2.105 . S
O257 C251 1.268 . S
O258 Sc242 2.105 . S
O258 C250 1.268 . S
O259 Sc243 2.105 . S
O259 C249 1.268 . S
O260 Sc244 2.105 . S
O260 C251 1.268 . S
O261 Sc242 2.105 . S
O261 C247 1.268 . S
O262 Sc244 2.105 . S
O262 C246 1.268 . S
O263 Sc243 2.105 . S
O263 C248 1.268 . S
H264 C276 0.930 . S
H265 C278 0.930 . S
H266 C279 0.930 . S
H267 C283 0.959 . S
H268 C283 0.959 . S
H269 C283 0.961 . S
H270 C284 0.960 . S
H271 C284 0.961 . S
H272 C284 0.959 . S
H273 C287 0.929 . S
H274 C288 0.931 . S
H275 C290 0.930 . S
C276 H264 0.930 . S
C276 C277 1.399 . S
C276 C281 1.399 . S
C277 C276 1.399 . S
C277 C278 1.376 . S
C278 H265 0.930 . S
C278 C277 1.376 . S
C278 C279 1.388 . S
C279 H266 0.930 . S
C279 C278 1.388 . S
C279 C280 1.390 . S
C280 C279 1.390 . S
C280 C281 1.394 . S
C280 C286 1.465 . S
C281 C276 1.399 . S
C281 C280 1.394 . S
C281 C282 1.516 . S
C282 C281 1.516 . S
C282 C283 1.502 . S
C282 C284 1.561 . S
C282 C285 1.526 . S
C283 H267 0.959 . S
C283 H268 0.959 . S
C283 H269 0.961 . S
C283 C282 1.502 . S
C284 H270 0.960 . S
C284 H271 0.961 . S
C284 H272 0.959 . S
C284 C282 1.561 . S
C285 C282 1.526 . S
C285 C286 1.396 . S
C285 C290 1.390 . S
C286 C280 1.465 . S
C286 C285 1.396 . S
C286 C287 1.399 . S
C287 H273 0.929 . S
C287 C286 1.399 . S
C287 C288 1.385 . S
C288 H274 0.931 . S
C288 C287 1.385 . S
C288 C289 1.389 . S
C289 C288 1.389 . S
C289 C290 1.387 . S
C290 H275 0.930 . S
C290 C285 1.390 . S
C290 C289 1.387 . S
H291 C303 0.930 . S
H292 C305 0.930 . S
H293 C306 0.930 . S
H294 C310 0.959 . S
H295 C310 0.959 . S
H296 C310 0.961 . S
H297 C311 0.960 . S
H298 C311 0.961 . S
H299 C311 0.959 . S
H300 C314 0.929 . S
H301 C315 0.931 . S
H302 C317 0.930 . S
C303 H291 0.930 . S
C303 C304 1.399 . S
C303 C308 1.399 . S
C304 C303 1.399 . S
C304 C305 1.376 . S
C305 H292 0.930 . S
C305 C304 1.376 . S
C305 C306 1.388 . S
C306 H293 0.930 . S
C306 C305 1.388 . S
C306 C307 1.390 . S
C307 C306 1.390 . S
C307 C308 1.394 . S
C307 C313 1.465 . S
C308 C303 1.399 . S
C308 C307 1.394 . S
C308 C309 1.516 . S
C309 C308 1.516 . S
C309 C310 1.502 . S
C309 C311 1.561 . S
C309 C312 1.526 . S
C310 H294 0.959 . S
C310 H295 0.959 . S
C310 H296 0.961 . S
C310 C309 1.502 . S
C311 H297 0.960 . S
C311 H298 0.961 . S
C311 H299 0.959 . S
C311 C309 1.561 . S
C312 C309 1.526 . S
C312 C313 1.396 . S
C312 C317 1.390 . S
C313 C307 1.465 . S
C313 C312 1.396 . S
C313 C314 1.399 . S
C314 H300 0.929 . S
C314 C313 1.399 . S
C314 C315 1.385 . S
C315 H301 0.931 . S
C315 C314 1.385 . S
C315 C316 1.389 . S
C316 C315 1.389 . S
C316 C317 1.387 . S
C317 H302 0.930 . S
C317 C312 1.390 . S
C317 C316 1.387 . S
H318 C330 0.930 . S
H319 C332 0.930 . S
H320 C333 0.930 . S
H321 C337 0.959 . S
H322 C337 0.959 . S
H323 C337 0.961 . S
H324 C338 0.960 . S
H325 C338 0.961 . S
H326 C338 0.959 . S
H327 C341 0.929 . S
H328 C342 0.931 . S
H329 C344 0.930 . S
C330 H318 0.930 . S
C330 C331 1.399 . S
C330 C335 1.399 . S
C331 C330 1.399 . S
C331 C332 1.376 . S
C332 H319 0.930 . S
C332 C331 1.376 . S
C332 C333 1.388 . S
C333 H320 0.930 . S
C333 C332 1.388 . S
C333 C334 1.390 . S
C334 C333 1.390 . S
C334 C335 1.394 . S
C334 C340 1.465 . S
C335 C330 1.399 . S
C335 C334 1.394 . S
C335 C336 1.516 . S
C336 C335 1.516 . S
C336 C337 1.502 . S
C336 C338 1.561 . S
C336 C339 1.526 . S
C337 H321 0.959 . S
C337 H322 0.959 . S
C337 H323 0.961 . S
C337 C336 1.502 . S
C338 H324 0.960 . S
C338 H325 0.961 . S
C338 H326 0.959 . S
C338 C336 1.561 . S
C339 C336 1.526 . S
C339 C340 1.396 . S
C339 C344 1.390 . S
C340 C334 1.465 . S
C340 C339 1.396 . S
C340 C341 1.399 . S
C341 H327 0.929 . S
C341 C340 1.399 . S
C341 C342 1.385 . S
C342 H328 0.931 . S
C342 C341 1.385 . S
C342 C343 1.389 . S
C343 C342 1.389 . S
C343 C344 1.387 . S
C344 H329 0.930 . S
C344 C339 1.390 . S
C344 C343 1.387 . S
H345 C357 0.930 . S
H346 C359 0.930 . S
H347 C360 0.930 . S
H348 C364 0.959 . S
H349 C364 0.959 . S
H350 C364 0.961 . S
H351 C365 0.960 . S
H352 C365 0.961 . S
H353 C365 0.959 . S
H354 C368 0.929 . S
H355 C369 0.931 . S
H356 C371 0.930 . S
C357 H345 0.930 . S
C357 C358 1.399 . S
C357 C362 1.399 . S
C358 C357 1.399 . S
C358 C359 1.376 . S
C359 H346 0.930 . S
C359 C358 1.376 . S
C359 C360 1.388 . S
C360 H347 0.930 . S
C360 C359 1.388 . S
C360 C361 1.390 . S
C361 C360 1.390 . S
C361 C362 1.394 . S
C361 C367 1.465 . S
C362 C357 1.399 . S
C362 C361 1.394 . S
C362 C363 1.516 . S
C363 C362 1.516 . S
C363 C364 1.502 . S
C363 C365 1.561 . S
C363 C366 1.526 . S
C364 H348 0.959 . S
C364 H349 0.959 . S
C364 H350 0.961 . S
C364 C363 1.502 . S
C365 H351 0.960 . S
C365 H352 0.961 . S
C365 H353 0.959 . S
C365 C363 1.561 . S
C366 C363 1.526 . S
C366 C367 1.396 . S
C366 C371 1.390 . S
C367 C361 1.465 . S
C367 C366 1.396 . S
C367 C368 1.399 . S
C368 H354 0.929 . S
C368 C367 1.399 . S
C368 C369 1.385 . S
C369 H355 0.931 . S
C369 C368 1.385 . S
C369 C370 1.389 . S
C370 C369 1.389 . S
C370 C371 1.387 . S
C371 H356 0.930 . S
C371 C366 1.390 . S
C371 C370 1.387 . S
H372 C384 0.930 . S
H373 C386 0.930 . S
H374 C387 0.930 . S
H375 C391 0.959 . S
H376 C391 0.959 . S
H377 C391 0.961 . S
H378 C392 0.960 . S
H379 C392 0.961 . S
H380 C392 0.959 . S
H381 C395 0.929 . S
H382 C396 0.931 . S
H383 C398 0.930 . S
C384 H372 0.930 . S
C384 C385 1.399 . S
C384 C389 1.399 . S
C385 C384 1.399 . S
C385 C386 1.376 . S
C386 H373 0.930 . S
C386 C385 1.376 . S
C386 C387 1.388 . S
C387 H374 0.930 . S
C387 C386 1.388 . S
C387 C388 1.390 . S
C388 C387 1.390 . S
C388 C389 1.394 . S
C388 C394 1.465 . S
C389 C384 1.399 . S
C389 C388 1.394 . S
C389 C390 1.516 . S
C390 C389 1.516 . S
C390 C391 1.502 . S
C390 C392 1.561 . S
C390 C393 1.526 . S
C391 H375 0.959 . S
C391 H376 0.959 . S
C391 H377 0.961 . S
C391 C390 1.502 . S
C392 H378 0.960 . S
C392 H379 0.961 . S
C392 H380 0.959 . S
C392 C390 1.561 . S
C393 C390 1.526 . S
C393 C394 1.396 . S
C393 C398 1.390 . S
C394 C388 1.465 . S
C394 C393 1.396 . S
C394 C395 1.399 . S
C395 H381 0.929 . S
C395 C394 1.399 . S
C395 C396 1.385 . S
C396 H382 0.931 . S
C396 C395 1.385 . S
C396 C397 1.389 . S
C397 C396 1.389 . S
C397 C398 1.387 . S
C398 H383 0.930 . S
C398 C393 1.390 . S
C398 C397 1.387 . S
H399 C411 0.930 . S
H400 C413 0.930 . S
H401 C414 0.930 . S
H402 C418 0.959 . S
H403 C418 0.959 . S
H404 C418 0.939 1_554 S
H405 C419 0.960 1_554 S
H406 C419 0.961 . S
H407 C419 0.959 . S
H408 C422 0.929 . S
H409 C423 0.931 . S
H410 C425 0.930 . S
C411 H399 0.930 . S
C411 C412 1.399 . S
C411 C416 1.399 . S
C412 C411 1.399 . S
C412 C413 1.376 . S
C413 H400 0.930 . S
C413 C412 1.376 . S
C413 C414 1.388 . S
C414 H401 0.930 . S
C414 C413 1.388 . S
C414 C415 1.390 . S
C415 C414 1.390 . S
C415 C416 1.394 . S
C415 C421 1.465 . S
C416 C411 1.399 . S
C416 C415 1.394 . S
C416 C417 1.516 . S
C417 C416 1.516 . S
C417 C418 1.502 . S
C417 C419 1.561 . S
C417 C420 1.526 . S
C418 H402 0.959 . S
C418 H403 0.959 . S
C418 H404 0.939 1_556 S
C418 C417 1.502 . S
C419 H405 0.960 1_556 S
C419 H406 0.961 . S
C419 H407 0.959 . S
C419 C417 1.561 . S
C420 C417 1.526 . S
C420 C421 1.396 . S
C420 C425 1.390 . S
C421 C415 1.465 . S
C421 C420 1.396 . S
C421 C422 1.399 . S
C422 H408 0.929 . S
C422 C421 1.399 . S
C422 C423 1.385 . S
C423 H409 0.931 . S
C423 C422 1.385 . S
C423 C424 1.389 . S
C424 C423 1.389 . S
C424 C425 1.387 . S
C425 H410 0.930 . S
C425 C420 1.390 . S
C425 C424 1.387 . S
H426 C438 0.930 . S
H427 C440 0.930 . S
H428 C441 0.930 . S
H429 C445 0.959 . S
H430 C445 0.959 . S
H431 C445 0.961 . S
H432 C446 0.960 . S
H433 C446 0.961 . S
H434 C446 0.959 . S
H435 C449 0.929 . S
H436 C450 0.931 . S
H437 C452 0.930 . S
C438 H426 0.930 . S
C438 C439 1.399 . S
C438 C443 1.399 . S
C439 C438 1.399 . S
C439 C440 1.376 . S
C440 H427 0.930 . S
C440 C439 1.376 . S
C440 C441 1.388 . S
C441 H428 0.930 . S
C441 C440 1.388 . S
C441 C442 1.390 . S
C442 C441 1.390 . S
C442 C443 1.394 . S
C442 C448 1.465 . S
C443 C438 1.399 . S
C443 C442 1.394 . S
C443 C444 1.516 . S
C444 C443 1.516 . S
C444 C445 1.502 . S
C444 C446 1.561 . S
C444 C447 1.526 . S
C445 H429 0.959 . S
C445 H430 0.959 . S
C445 H431 0.961 . S
C445 C444 1.502 . S
C446 H432 0.960 . S
C446 H433 0.961 . S
C446 H434 0.959 . S
C446 C444 1.561 . S
C447 C444 1.526 . S
C447 C448 1.396 . S
C447 C452 1.390 . S
C448 C442 1.465 . S
C448 C447 1.396 . S
C448 C449 1.399 . S
C449 H435 0.929 . S
C449 C448 1.399 . S
C449 C450 1.385 . S
C450 H436 0.931 . S
C450 C449 1.385 . S
C450 C451 1.389 . S
C451 C450 1.389 . S
C451 C452 1.387 . S
C452 H437 0.930 . S
C452 C447 1.390 . S
C452 C451 1.387 . S
H453 C465 0.930 . S
H454 C467 0.930 . S
H455 C468 0.930 . S
H456 C472 0.959 . S
H457 C472 0.959 . S
H458 C472 0.961 . S
H459 C473 0.960 1_655 S
H460 C473 0.961 . S
H461 C473 0.959 1_655 S
H462 C476 0.929 1_655 S
H463 C477 0.931 . S
H464 C479 0.930 . S
C465 H453 0.930 . S
C465 C466 1.399 . S
C465 C470 1.399 . S
C466 C465 1.399 . S
C466 C467 1.376 . S
C467 H454 0.930 . S
C467 C466 1.376 . S
C467 C468 1.388 . S
C468 H455 0.930 . S
C468 C467 1.388 . S
C468 C469 1.390 . S
C469 C468 1.390 . S
C469 C470 1.394 . S
C469 C475 1.465 1_655 S
C470 C465 1.399 . S
C470 C469 1.394 . S
C470 C471 1.516 1_655 S
C471 C470 1.516 1_455 S
C471 C472 1.502 . S
C471 C473 1.561 . S
C471 C474 1.526 . S
C472 H456 0.959 . S
C472 H457 0.959 . S
C472 H458 0.961 . S
C472 C471 1.502 . S
C473 H459 0.960 1_455 S
C473 H460 0.961 . S
C473 H461 0.959 1_455 S
C473 C471 1.561 . S
C474 C471 1.526 . S
C474 C475 1.396 . S
C474 C479 1.390 . S
C475 C469 1.465 1_455 S
C475 C474 1.396 . S
C475 C476 1.399 . S
C476 H462 0.929 1_455 S
C476 C475 1.399 . S
C476 C477 1.385 . S
C477 H463 0.931 . S
C477 C476 1.385 . S
C477 C478 1.389 . S
C478 C477 1.389 . S
C478 C479 1.387 . S
C479 H464 0.930 . S
C479 C474 1.390 . S
C479 C478 1.387 . S
H480 C492 0.930 . S
H481 C494 0.930 . S
H482 C495 0.930 . S
H483 C499 0.959 . S
H484 C499 0.959 . S
H485 C499 0.961 . S
H486 C500 0.960 . S
H487 C500 0.961 . S
H488 C500 0.959 . S
H489 C503 0.929 . S
H490 C504 0.931 . S
H491 C506 0.930 . S
C492 H480 0.930 . S
C492 C493 1.399 . S
C492 C497 1.399 . S
C493 C492 1.399 . S
C493 C494 1.376 . S
C494 H481 0.930 . S
C494 C493 1.376 . S
C494 C495 1.388 1_545 S
C495 H482 0.930 . S
C495 C494 1.388 1_565 S
C495 C496 1.390 1_565 S
C496 C495 1.390 1_545 S
C496 C497 1.394 . S
C496 C502 1.465 1_545 S
C497 C492 1.399 . S
C497 C496 1.394 . S
C497 C498 1.516 . S
C498 C497 1.516 . S
C498 C499 1.502 . S
C498 C500 1.561 . S
C498 C501 1.526 1_545 S
C499 H483 0.959 . S
C499 H484 0.959 . S
C499 H485 0.961 . S
C499 C498 1.502 . S
C500 H486 0.960 . S
C500 H487 0.961 . S
C500 H488 0.959 . S
C500 C498 1.561 . S
C501 C498 1.526 1_565 S
C501 C502 1.396 . S
C501 C506 1.390 . S
C502 C496 1.465 1_565 S
C502 C501 1.396 . S
C502 C503 1.399 . S
C503 H489 0.929 . S
C503 C502 1.399 . S
C503 C504 1.385 . S
C504 H490 0.931 . S
C504 C503 1.385 . S
C504 C505 1.389 . S
C505 C504 1.389 . S
C505 C506 1.387 . S
C506 H491 0.930 . S
C506 C501 1.390 . S
C506 C505 1.387 . S
H507 C519 0.930 . S
H508 C521 0.930 . S
H509 C522 0.930 . S
H510 C526 0.959 . S
H511 C526 0.959 . S
H512 C526 0.961 . S
H513 C527 0.960 . S
H514 C527 0.961 . S
H515 C527 0.959 . S
H516 C530 0.929 . S
H517 C531 0.931 . S
H518 C533 0.930 . S
C519 H507 0.930 . S
C519 C520 1.399 . S
C519 C524 1.399 . S
C520 C519 1.399 . S
C520 C521 1.376 . S
C521 H508 0.930 . S
C521 C520 1.376 . S
C521 C522 1.388 . S
C522 H509 0.930 . S
C522 C521 1.388 . S
C522 C523 1.390 . S
C523 C522 1.390 . S
C523 C524 1.394 . S
C523 C529 1.465 . S
C524 C519 1.399 . S
C524 C523 1.394 . S
C524 C525 1.516 . S
C525 C524 1.516 . S
C525 C526 1.502 . S
C525 C527 1.561 . S
C525 C528 1.526 . S
C526 H510 0.959 . S
C526 H511 0.959 . S
C526 H512 0.961 . S
C526 C525 1.502 . S
C527 H513 0.960 . S
C527 H514 0.961 . S
C527 H515 0.959 . S
C527 C525 1.561 . S
C528 C525 1.526 . S
C528 C529 1.396 . S
C528 C533 1.390 . S
C529 C523 1.465 . S
C529 C528 1.396 . S
C529 C530 1.399 . S
C530 H516 0.929 . S
C530 C529 1.399 . S
C530 C531 1.385 . S
C531 H517 0.931 . S
C531 C530 1.385 . S
C531 C532 1.389 . S
C532 C531 1.389 . S
C532 C533 1.387 . S
C533 H518 0.930 . S
C533 C528 1.390 . S
C533 C532 1.387 . S
H534 C546 0.930 . S
H535 C548 0.930 . S
H536 C549 0.930 . S
H537 C553 0.959 . S
H538 C553 0.959 . S
H539 C553 0.961 . S
H540 C554 0.960 . S
H541 C554 0.961 . S
H542 C554 0.959 . S
H543 C557 0.929 . S
H544 C558 0.931 . S
H545 C560 0.930 . S
C546 H534 0.930 . S
C546 C547 1.399 . S
C546 C551 1.399 . S
C547 C546 1.399 . S
C547 C548 1.376 . S
C548 H535 0.930 . S
C548 C547 1.376 . S
C548 C549 1.388 . S
C549 H536 0.930 . S
C549 C548 1.388 . S
C549 C550 1.390 . S
C550 C549 1.390 . S
C550 C551 1.394 . S
C550 C556 1.465 1_455 S
C551 C546 1.399 . S
C551 C550 1.394 . S
C551 C552 1.516 . S
C552 C551 1.516 . S
C552 C553 1.502 1_455 S
C552 C554 1.561 . S
C552 C555 1.526 1_455 S
C553 H537 0.959 . S
C553 H538 0.959 . S
C553 H539 0.961 . S
C553 C552 1.502 1_655 S
C554 H540 0.960 . S
C554 H541 0.961 . S
C554 H542 0.959 . S
C554 C552 1.561 . S
C555 C552 1.526 1_655 S
C555 C556 1.396 . S
C555 C560 1.390 . S
C556 C550 1.465 1_655 S
C556 C555 1.396 . S
C556 C557 1.399 . S
C557 H543 0.929 . S
C557 C556 1.399 . S
C557 C558 1.385 . S
C558 H544 0.931 . S
C558 C557 1.385 . S
C558 C559 1.389 . S
C559 C558 1.389 . S
C559 C560 1.387 . S
C560 H545 0.930 . S
C560 C555 1.390 . S
C560 C559 1.387 . S
H561 C573 0.930 . S
H562 C575 0.930 . S
H563 C576 0.930 . S
H564 C580 0.959 . S
H565 C580 0.959 . S
H566 C580 0.961 . S
H567 C581 0.960 . S
H568 C581 0.961 . S
H569 C581 0.959 . S
H570 C584 0.930 . S
H571 C585 0.931 . S
H572 C587 0.930 . S
C573 H561 0.930 . S
C573 C574 1.399 . S
C573 C578 1.399 . S
C574 C573 1.399 . S
C574 C575 1.376 . S
C575 H562 0.930 . S
C575 C574 1.376 . S
C575 C576 1.388 1_545 S
C576 H563 0.930 . S
C576 C575 1.388 1_565 S
C576 C577 1.390 1_565 S
C577 C576 1.390 1_545 S
C577 C578 1.394 . S
C577 C583 1.465 1_546 S
C578 C573 1.399 . S
C578 C577 1.394 . S
C578 C579 1.516 1_556 S
C579 C578 1.516 1_554 S
C579 C580 1.502 . S
C579 C581 1.561 . S
C579 C582 1.526 1_545 S
C580 H564 0.959 . S
C580 H565 0.959 . S
C580 H566 0.961 . S
C580 C579 1.502 . S
C581 H567 0.960 . S
C581 H568 0.961 . S
C581 H569 0.959 . S
C581 C579 1.561 . S
C582 C579 1.526 1_565 S
C582 C583 1.396 . S
C582 C587 1.390 . S
C583 C577 1.465 1_564 S
C583 C582 1.396 . S
C583 C584 1.399 1_554 S
C584 H570 0.930 . S
C584 C583 1.399 1_556 S
C584 C585 1.385 1_556 S
C585 H571 0.931 . S
C585 C584 1.385 1_554 S
C585 C586 1.389 . S
C586 C585 1.389 . S
C586 C587 1.387 . S
C587 H572 0.930 . S
C587 C582 1.390 . S
C587 C586 1.387 . S
H588 C600 0.930 . S
H589 C602 0.930 . S
H590 C603 0.930 . S
H591 C607 0.959 . S
H592 C607 0.959 . S
H593 C607 0.961 . S
H594 C608 0.960 . S
H595 C608 0.961 . S
H596 C608 0.959 . S
H597 C611 0.926 1_554 S
H598 C612 0.931 1_554 S
H599 C614 0.930 . S
C600 H588 0.930 . S
C600 C601 1.399 . S
C600 C605 1.399 . S
C601 C600 1.399 . S
C601 C602 1.376 . S
C602 H589 0.930 . S
C602 C601 1.376 . S
C602 C603 1.388 . S
C603 H590 0.930 . S
C603 C602 1.388 . S
C603 C604 1.390 . S
C604 C603 1.390 . S
C604 C605 1.394 . S
C604 C610 1.465 . S
C605 C600 1.399 . S
C605 C604 1.394 . S
C605 C606 1.516 . S
C606 C605 1.516 . S
C606 C607 1.502 . S
C606 C608 1.561 . S
C606 C609 1.526 . S
C607 H591 0.959 . S
C607 H592 0.959 . S
C607 H593 0.961 . S
C607 C606 1.502 . S
C608 H594 0.960 . S
C608 H595 0.961 . S
C608 H596 0.959 . S
C608 C606 1.561 . S
C609 C606 1.526 . S
C609 C610 1.396 . S
C609 C614 1.390 . S
C610 C604 1.465 . S
C610 C609 1.396 . S
C610 C611 1.399 . S
C611 H597 0.926 1_556 S
C611 C610 1.399 . S
C611 C612 1.385 . S
C612 H598 0.931 1_556 S
C612 C611 1.385 . S
C612 C613 1.389 . S
C613 C612 1.389 . S
C613 C614 1.387 . S
C614 H599 0.930 . S
C614 C609 1.390 . S
C614 C613 1.387 . S
H615 C627 0.930 1_556 S
H616 C629 0.930 . S
H617 C630 0.930 . S
H618 C634 0.959 . S
H619 C634 0.959 . S
H620 C634 0.963 1_556 S
H621 C635 0.960 1_556 S
H622 C635 0.961 . S
H623 C635 0.959 . S
H624 C638 0.929 . S
H625 C639 0.931 . S
H626 C641 0.930 . S
C627 H615 0.930 1_554 S
C627 C628 1.399 . S
C627 C632 1.399 . S
C628 C627 1.399 . S
C628 C629 1.376 . S
C629 H616 0.930 . S
C629 C628 1.376 . S
C629 C630 1.388 . S
C630 H617 0.930 . S
C630 C629 1.388 . S
C630 C631 1.390 . S
C631 C630 1.390 . S
C631 C632 1.394 . S
C631 C637 1.465 . S
C632 C627 1.399 . S
C632 C631 1.394 . S
C632 C633 1.516 . S
C633 C632 1.516 . S
C633 C634 1.502 . S
C633 C635 1.561 . S
C633 C636 1.526 . S
C634 H618 0.959 . S
C634 H619 0.959 . S
C634 H620 0.963 1_554 S
C634 C633 1.502 . S
C635 H621 0.960 1_554 S
C635 H622 0.961 . S
C635 H623 0.959 . S
C635 C633 1.561 . S
C636 C633 1.526 . S
C636 C637 1.396 . S
C636 C641 1.390 . S
C637 C631 1.465 . S
C637 C636 1.396 . S
C637 C638 1.399 . S
C638 H624 0.929 . S
C638 C637 1.399 . S
C638 C639 1.385 . S
C639 H625 0.931 . S
C639 C638 1.385 . S
C639 C640 1.389 . S
C640 C639 1.389 . S
C640 C641 1.387 . S
C641 H626 0.930 . S
C641 C636 1.390 . S
C641 C640 1.387 . S
H642 C654 0.930 . S
H643 C656 0.930 . S
H644 C657 0.930 . S
H645 C661 0.959 . S
H646 C661 0.959 . S
H647 C661 0.961 . S
H648 C662 0.960 . S
H649 C662 0.961 . S
H650 C662 0.959 . S
H651 C665 0.929 . S
H652 C666 0.931 . S
H653 C668 0.930 . S
C654 H642 0.930 . S
C654 C655 1.399 . S
C654 C659 1.399 . S
C655 C654 1.399 . S
C655 C656 1.376 . S
C656 H643 0.930 . S
C656 C655 1.376 . S
C656 C657 1.388 . S
C657 H644 0.930 . S
C657 C656 1.388 . S
C657 C658 1.390 . S
C658 C657 1.390 . S
C658 C659 1.394 . S
C658 C664 1.465 . S
C659 C654 1.399 . S
C659 C658 1.394 . S
C659 C660 1.516 . S
C660 C659 1.516 . S
C660 C661 1.502 . S
C660 C662 1.561 . S
C660 C663 1.526 . S
C661 H645 0.959 . S
C661 H646 0.959 . S
C661 H647 0.961 . S
C661 C660 1.502 . S
C662 H648 0.960 . S
C662 H649 0.961 . S
C662 H650 0.959 . S
C662 C660 1.561 . S
C663 C660 1.526 . S
C663 C664 1.396 . S
C663 C668 1.390 . S
C664 C658 1.465 . S
C664 C663 1.396 . S
C664 C665 1.399 . S
C665 H651 0.929 . S
C665 C664 1.399 . S
C665 C666 1.385 . S
C666 H652 0.931 . S
C666 C665 1.385 . S
C666 C667 1.389 . S
C667 C666 1.389 . S
C667 C668 1.387 . S
C668 H653 0.930 . S
C668 C663 1.390 . S
C668 C667 1.387 . S
H669 C681 0.930 . S
H670 C683 0.930 . S
H671 C684 0.930 . S
H672 C688 0.959 . S
H673 C688 0.959 . S
H674 C688 0.961 . S
H675 C689 0.960 . S
H676 C689 0.961 . S
H677 C689 0.959 . S
H678 C692 0.929 . S
H679 C693 0.931 . S
H680 C695 0.930 . S
C681 H669 0.930 . S
C681 C682 1.399 . S
C681 C686 1.399 . S
C682 C681 1.399 . S
C682 C683 1.376 . S
C683 H670 0.930 . S
C683 C682 1.376 . S
C683 C684 1.388 . S
C684 H671 0.930 . S
C684 C683 1.388 . S
C684 C685 1.390 . S
C685 C684 1.390 . S
C685 C686 1.394 . S
C685 C691 1.465 . S
C686 C681 1.399 . S
C686 C685 1.394 . S
C686 C687 1.516 . S
C687 C686 1.516 . S
C687 C688 1.502 . S
C687 C689 1.561 . S
C687 C690 1.526 . S
C688 H672 0.959 . S
C688 H673 0.959 . S
C688 H674 0.961 . S
C688 C687 1.502 . S
C689 H675 0.960 . S
C689 H676 0.961 . S
C689 H677 0.959 . S
C689 C687 1.561 . S
C690 C687 1.526 . S
C690 C691 1.396 . S
C690 C695 1.390 . S
C691 C685 1.465 . S
C691 C690 1.396 . S
C691 C692 1.399 . S
C692 H678 0.929 . S
C692 C691 1.399 . S
C692 C693 1.385 . S
C693 H679 0.931 . S
C693 C692 1.385 . S
C693 C694 1.389 . S
C694 C693 1.389 . S
C694 C695 1.387 . S
C695 H680 0.930 . S
C695 C690 1.390 . S
C695 C694 1.387 . S
H696 C708 0.930 . S
H697 C710 0.930 . S
H698 C711 0.930 . S
H699 C715 0.959 . S
H700 C715 0.959 . S
H701 C715 0.961 . S
H702 C716 0.960 . S
H703 C716 0.961 . S
H704 C716 0.959 . S
H705 C719 0.929 . S
H706 C720 0.931 . S
H707 C722 0.930 . S
C708 H696 0.930 . S
C708 C709 1.399 . S
C708 C713 1.399 . S
C709 C708 1.399 . S
C709 C710 1.376 . S
C710 H697 0.930 . S
C710 C709 1.376 . S
C710 C711 1.388 . S
C711 H698 0.930 . S
C711 C710 1.388 . S
C711 C712 1.390 . S
C712 C711 1.390 . S
C712 C713 1.394 . S
C712 C718 1.465 . S
C713 C708 1.399 . S
C713 C712 1.394 . S
C713 C714 1.516 . S
C714 C713 1.516 . S
C714 C715 1.502 . S
C714 C716 1.561 . S
C714 C717 1.526 . S
C715 H699 0.959 . S
C715 H700 0.959 . S
C715 H701 0.961 . S
C715 C714 1.502 . S
C716 H702 0.960 . S
C716 H703 0.961 . S
C716 H704 0.959 . S
C716 C714 1.561 . S
C717 C714 1.526 . S
C717 C718 1.396 . S
C717 C722 1.390 . S
C718 C712 1.465 . S
C718 C717 1.396 . S
C718 C719 1.399 . S
C719 H705 0.929 . S
C719 C718 1.399 . S
C719 C720 1.385 . S
C720 H706 0.931 . S
C720 C719 1.385 . S
C720 C721 1.389 . S
C721 C720 1.389 . S
C721 C722 1.387 . S
C722 H707 0.930 . S
C722 C717 1.390 . S
C722 C721 1.387 . S
H723 C735 0.930 . S
H724 C737 0.930 . S
H725 C738 0.930 . S
H726 C742 0.959 . S
H727 C742 0.959 . S
H728 C742 0.961 . S
H729 C743 0.960 . S
H730 C743 0.961 . S
H731 C743 0.959 . S
H732 C746 0.929 . S
H733 C747 0.931 . S
H734 C749 0.930 . S
C735 H723 0.930 . S
C735 C736 1.399 . S
C735 C740 1.399 . S
C736 C735 1.399 . S
C736 C737 1.376 . S
C737 H724 0.930 . S
C737 C736 1.376 . S
C737 C738 1.388 . S
C738 H725 0.930 . S
C738 C737 1.388 . S
C738 C739 1.390 . S
C739 C738 1.390 . S
C739 C740 1.394 . S
C739 C745 1.465 . S
C740 C735 1.399 . S
C740 C739 1.394 . S
C740 C741 1.516 . S
C741 C740 1.516 . S
C741 C742 1.502 . S
C741 C743 1.561 . S
C741 C744 1.526 . S
C742 H726 0.959 . S
C742 H727 0.959 . S
C742 H728 0.961 . S
C742 C741 1.502 . S
C743 H729 0.960 . S
C743 H730 0.961 . S
C743 H731 0.959 . S
C743 C741 1.561 . S
C744 C741 1.526 . S
C744 C745 1.396 . S
C744 C749 1.390 . S
C745 C739 1.465 . S
C745 C744 1.396 . S
C745 C746 1.399 . S
C746 H732 0.929 . S
C746 C745 1.399 . S
C746 C747 1.385 . S
C747 H733 0.931 . S
C747 C746 1.385 . S
C747 C748 1.389 . S
C748 C747 1.389 . S
C748 C749 1.387 . S
C749 H734 0.930 . S
C749 C744 1.390 . S
C749 C748 1.387 . S
H750 C762 0.927 . S
H751 C764 0.930 . S
H752 C765 0.930 . S
H753 C769 0.959 . S
H754 C769 0.959 . S
H755 C769 0.961 1_554 S
H756 C770 0.960 1_554 S
H757 C770 0.961 . S
H758 C770 0.959 . S
H759 C773 0.929 . S
H760 C774 0.931 . S
H761 C776 0.930 . S
C762 H750 0.927 . S
C762 C763 1.399 . S
C762 C767 1.399 . S
C763 C762 1.399 . S
C763 C764 1.376 . S
C764 H751 0.930 . S
C764 C763 1.376 . S
C764 C765 1.388 . S
C765 H752 0.930 . S
C765 C764 1.388 . S
C765 C766 1.390 . S
C766 C765 1.390 . S
C766 C767 1.394 . S
C766 C772 1.465 . S
C767 C762 1.399 . S
C767 C766 1.394 . S
C767 C768 1.516 . S
C768 C767 1.516 . S
C768 C769 1.502 . S
C768 C770 1.561 . S
C768 C771 1.526 . S
C769 H753 0.959 . S
C769 H754 0.959 . S
C769 H755 0.961 1_556 S
C769 C768 1.502 . S
C770 H756 0.960 1_556 S
C770 H757 0.961 . S
C770 H758 0.959 . S
C770 C768 1.561 . S
C771 C768 1.526 . S
C771 C772 1.396 . S
C771 C776 1.390 . S
C772 C766 1.465 . S
C772 C771 1.396 . S
C772 C773 1.399 . S
C773 H759 0.929 . S
C773 C772 1.399 . S
C773 C774 1.385 . S
C774 H760 0.931 . S
C774 C773 1.385 . S
C774 C775 1.389 . S
C775 C774 1.389 . S
C775 C776 1.387 . S
C776 H761 0.930 . S
C776 C771 1.390 . S
C776 C775 1.387 . S
H777 C789 0.930 . S
H778 C791 0.930 . S
H779 C792 0.930 . S
H780 C796 0.959 1_655 S
H781 C796 0.959 . S
H782 C796 0.961 1_655 S
H783 C797 0.960 . S
H784 C797 0.961 . S
H785 C797 0.959 . S
H786 C800 0.929 . S
H787 C801 0.931 . S
H788 C803 0.930 . S
C789 H777 0.930 . S
C789 C790 1.399 . S
C789 C794 1.399 . S
C790 C789 1.399 . S
C790 C791 1.376 . S
C791 H778 0.930 . S
C791 C790 1.376 . S
C791 C792 1.388 . S
C792 H779 0.930 . S
C792 C791 1.388 . S
C792 C793 1.390 . S
C793 C792 1.390 . S
C793 C794 1.394 . S
C793 C799 1.465 1_655 S
C794 C789 1.399 . S
C794 C793 1.394 . S
C794 C795 1.516 1_655 S
C795 C794 1.516 1_455 S
C795 C796 1.502 . S
C795 C797 1.561 . S
C795 C798 1.526 . S
C796 H780 0.959 1_455 S
C796 H781 0.959 . S
C796 H782 0.961 1_455 S
C796 C795 1.502 . S
C797 H783 0.960 . S
C797 H784 0.961 . S
C797 H785 0.959 . S
C797 C795 1.561 . S
C798 C795 1.526 . S
C798 C799 1.396 . S
C798 C803 1.390 . S
C799 C793 1.465 1_455 S
C799 C798 1.396 . S
C799 C800 1.399 . S
C800 H786 0.929 . S
C800 C799 1.399 . S
C800 C801 1.385 . S
C801 H787 0.931 . S
C801 C800 1.385 . S
C801 C802 1.389 . S
C802 C801 1.389 . S
C802 C803 1.387 . S
C803 H788 0.930 . S
C803 C798 1.390 . S
C803 C802 1.387 . S
H804 C816 0.930 . S
H805 C818 0.930 . S
H806 C819 0.930 1_545 S
H807 C823 0.959 . S
H808 C823 0.959 . S
H809 C823 0.961 . S
H810 C824 0.960 . S
H811 C824 0.961 1_545 S
H812 C824 0.959 1_545 S
H813 C827 0.929 . S
H814 C828 0.931 . S
H815 C830 0.930 . S
C816 H804 0.930 . S
C816 C817 1.399 . S
C816 C821 1.399 . S
C817 C816 1.399 . S
C817 C818 1.376 . S
C818 H805 0.930 . S
C818 C817 1.376 . S
C818 C819 1.388 . S
C819 H806 0.930 1_565 S
C819 C818 1.388 . S
C819 C820 1.397 . S
C820 C819 1.397 . S
C820 C821 1.399 . S
C820 C826 1.453 1_565 S
C821 C816 1.399 . S
C821 C820 1.399 . S
C821 C822 1.516 . S
C822 C821 1.516 . S
C822 C823 1.502 . S
C822 C824 1.561 . S
C822 C825 1.526 1_565 S
C823 H807 0.959 . S
C823 H808 0.959 . S
C823 H809 0.961 . S
C823 C822 1.502 . S
C824 H810 0.960 . S
C824 H811 0.961 1_565 S
C824 H812 0.959 1_565 S
C824 C822 1.561 . S
C825 C822 1.526 1_545 S
C825 C826 1.396 . S
C825 C830 1.390 . S
C826 C820 1.453 1_545 S
C826 C825 1.396 . S
C826 C827 1.399 . S
C827 H813 0.929 . S
C827 C826 1.399 . S
C827 C828 1.385 . S
C828 H814 0.931 . S
C828 C827 1.385 . S
C828 C829 1.389 . S
C829 C828 1.389 . S
C829 C830 1.387 . S
C830 H815 0.930 . S
C830 C825 1.390 . S
C830 C829 1.387 . S
H831 C843 0.930 . S
H832 C845 0.930 . S
H833 C846 0.930 . S
H834 C850 0.959 . S
H835 C850 0.959 . S
H836 C850 0.961 . S
H837 C851 0.960 . S
H838 C851 0.961 . S
H839 C851 0.959 . S
H840 C854 0.929 . S
H841 C855 0.931 . S
H842 C857 0.930 . S
C843 H831 0.930 . S
C843 C844 1.399 . S
C843 C848 1.399 . S
C844 C843 1.399 . S
C844 C845 1.376 . S
C845 H832 0.930 . S
C845 C844 1.376 . S
C845 C846 1.388 . S
C846 H833 0.930 . S
C846 C845 1.388 . S
C846 C847 1.390 . S
C847 C846 1.390 . S
C847 C848 1.394 . S
C847 C853 1.465 . S
C848 C843 1.399 . S
C848 C847 1.394 . S
C848 C849 1.516 . S
C849 C848 1.516 . S
C849 C850 1.502 . S
C849 C851 1.561 . S
C849 C852 1.526 . S
C850 H834 0.959 . S
C850 H835 0.959 . S
C850 H836 0.961 . S
C850 C849 1.502 . S
C851 H837 0.960 . S
C851 H838 0.961 . S
C851 H839 0.959 . S
C851 C849 1.561 . S
C852 C849 1.526 . S
C852 C853 1.396 . S
C852 C857 1.390 . S
C853 C847 1.465 . S
C853 C852 1.396 . S
C853 C854 1.399 . S
C854 H840 0.929 . S
C854 C853 1.399 . S
C854 C855 1.385 . S
C855 H841 0.931 . S
C855 C854 1.385 . S
C855 C856 1.389 . S
C856 C855 1.389 . S
C856 C857 1.387 . S
C857 H842 0.930 . S
C857 C852 1.390 . S
C857 C856 1.387 . S
H858 C870 0.930 . S
H859 C872 0.930 . S
H860 C873 0.930 . S
H861 C877 0.959 . S
H862 C877 0.959 . S
H863 C877 0.961 . S
H864 C878 0.960 . S
H865 C878 0.961 . S
H866 C878 0.959 . S
H867 C881 0.929 . S
H868 C882 0.931 . S
H869 C884 0.930 . S
C870 H858 0.930 . S
C870 C871 1.399 . S
C870 C875 1.399 . S
C871 C870 1.399 . S
C871 C872 1.376 . S
C872 H859 0.930 . S
C872 C871 1.376 . S
C872 C873 1.388 . S
C873 H860 0.930 . S
C873 C872 1.388 . S
C873 C874 1.390 . S
C874 C873 1.390 . S
C874 C875 1.394 . S
C874 C880 1.465 1_455 S
C875 C870 1.399 . S
C875 C874 1.394 . S
C875 C876 1.516 1_455 S
C876 C875 1.516 1_655 S
C876 C877 1.502 . S
C876 C878 1.561 . S
C876 C879 1.526 . S
C877 H861 0.959 . S
C877 H862 0.959 . S
C877 H863 0.961 . S
C877 C876 1.502 . S
C878 H864 0.960 . S
C878 H865 0.961 . S
C878 H866 0.959 . S
C878 C876 1.561 . S
C879 C876 1.526 . S
C879 C880 1.396 . S
C879 C884 1.390 . S
C880 C874 1.465 1_655 S
C880 C879 1.396 . S
C880 C881 1.399 . S
C881 H867 0.929 . S
C881 C880 1.399 . S
C881 C882 1.385 . S
C882 H868 0.931 . S
C882 C881 1.385 . S
C882 C883 1.389 . S
C883 C882 1.389 . S
C883 C884 1.387 . S
C884 H869 0.930 . S
C884 C879 1.390 . S
C884 C883 1.387 . S
H885 C897 0.930 . S
H886 C899 0.930 . S
H887 C900 0.930 1_565 S
H888 C904 0.959 . S
H889 C904 0.959 . S
H890 C904 0.961 . S
H891 C905 0.960 . S
H892 C905 0.961 1_565 S
H893 C905 0.959 1_565 S
H894 C908 0.929 . S
H895 C909 0.931 . S
H896 C911 0.930 . S
C897 H885 0.930 . S
C897 C898 1.399 . S
C897 C902 1.399 . S
C898 C897 1.399 . S
C898 C899 1.376 . S
C899 H886 0.930 . S
C899 C898 1.376 . S
C899 C900 1.388 . S
C900 H887 0.930 1_545 S
C900 C899 1.388 . S
C900 C901 1.394 . S
C901 C900 1.394 . S
C901 C902 1.398 . S
C901 C907 1.457 1_545 S
C902 C897 1.399 . S
C902 C901 1.398 . S
C902 C903 1.516 . S
C903 C902 1.516 . S
C903 C904 1.502 . S
C903 C905 1.561 . S
C903 C906 1.526 1_545 S
C904 H888 0.959 . S
C904 H889 0.959 . S
C904 H890 0.961 . S
C904 C903 1.502 . S
C905 H891 0.960 . S
C905 H892 0.961 1_545 S
C905 H893 0.959 1_545 S
C905 C903 1.561 . S
C906 C903 1.526 1_565 S
C906 C907 1.396 . S
C906 C911 1.390 . S
C907 C901 1.457 1_565 S
C907 C906 1.396 . S
C907 C908 1.399 . S
C908 H894 0.929 . S
C908 C907 1.399 . S
C908 C909 1.385 . S
C909 H895 0.931 . S
C909 C908 1.385 . S
C909 C910 1.389 . S
C910 C909 1.389 . S
C910 C911 1.387 . S
C911 H896 0.930 . S
C911 C906 1.390 . S
C911 C910 1.387 . S
H912 C924 0.930 . S
H913 C926 0.930 . S
H914 C927 0.930 . S
H915 C931 0.959 . S
H916 C931 0.959 . S
H917 C931 0.961 1_554 S
H918 C932 0.969 . S
H919 C932 0.961 . S
H920 C932 0.959 . S
H921 C935 0.929 . S
H922 C936 0.931 . S
H923 C938 0.930 . S
C924 H912 0.930 . S
C924 C925 1.399 . S
C924 C929 1.399 . S
C925 C924 1.399 . S
C925 C926 1.376 . S
C926 H913 0.930 . S
C926 C925 1.376 . S
C926 C927 1.388 . S
C927 H914 0.930 . S
C927 C926 1.388 . S
C927 C928 1.390 . S
C928 C927 1.390 . S
C928 C929 1.394 . S
C928 C934 1.465 . S
C929 C924 1.399 . S
C929 C928 1.394 . S
C929 C930 1.516 . S
C930 C929 1.516 . S
C930 C931 1.502 . S
C930 C932 1.561 . S
C930 C933 1.526 . S
C931 H915 0.959 . S
C931 H916 0.959 . S
C931 H917 0.961 1_556 S
C931 C930 1.502 . S
C932 H918 0.969 . S
C932 H919 0.961 . S
C932 H920 0.959 . S
C932 C930 1.561 . S
C933 C930 1.526 . S
C933 C934 1.396 . S
C933 C938 1.390 . S
C934 C928 1.465 . S
C934 C933 1.396 . S
C934 C935 1.399 . S
C935 H921 0.929 . S
C935 C934 1.399 . S
C935 C936 1.385 . S
C936 H922 0.931 . S
C936 C935 1.385 . S
C936 C937 1.389 . S
C937 C936 1.389 . S
C937 C938 1.387 . S
C938 H923 0.930 . S
C938 C933 1.390 . S
C938 C937 1.387 . S
H939 C951 0.930 . S
H940 C953 0.930 . S
H941 C954 0.930 . S
H942 C958 0.959 . S
H943 C958 0.959 . S
H944 C958 0.957 1_455 S
H945 C959 0.960 . S
H946 C959 0.961 1_655 S
H947 C959 0.959 . S
H948 C962 0.929 . S
H949 C963 0.931 1_556 S
H950 C965 0.930 . S
C951 H939 0.930 . S
C951 C952 1.399 . S
C951 C956 1.399 . S
C952 C951 1.399 . S
C952 C953 1.376 . S
C953 H940 0.930 . S
C953 C952 1.376 . S
C953 C954 1.388 . S
C954 H941 0.930 . S
C954 C953 1.388 . S
C954 C955 1.390 . S
C955 C954 1.390 . S
C955 C956 1.394 . S
C955 C961 1.465 1_455 S
C956 C951 1.399 . S
C956 C955 1.394 . S
C956 C957 1.528 . S
C957 C956 1.528 . S
C957 C958 1.498 1_455 S
C957 C959 1.557 . S
C957 C960 1.523 1_455 S
C958 H942 0.959 . S
C958 H943 0.959 . S
C958 H944 0.957 1_655 S
C958 C957 1.498 1_655 S
C959 H945 0.960 . S
C959 H946 0.961 1_455 S
C959 H947 0.959 . S
C959 C957 1.557 . S
C960 C957 1.523 1_655 S
C960 C961 1.396 . S
C960 C965 1.390 . S
C961 C955 1.465 1_655 S
C961 C960 1.396 . S
C961 C962 1.399 . S
C962 H948 0.929 . S
C962 C961 1.399 . S
C962 C963 1.385 . S
C963 H949 0.931 1_554 S
C963 C962 1.385 . S
C963 C964 1.389 . S
C964 C963 1.389 . S
C964 C965 1.387 . S
C965 H950 0.930 . S
C965 C960 1.390 . S
C965 C964 1.387 . S
H966 C978 0.930 . S
H967 C980 0.930 . S
H968 C981 0.930 . S
H969 C985 0.959 . S
H970 C985 0.958 1_565 S
H971 C985 0.961 . S
H972 C986 0.960 . S
H973 C986 0.961 . S
H974 C986 0.959 . S
H975 C989 0.929 . S
H976 C990 0.931 . S
H977 C992 0.930 . S
C978 H966 0.930 . S
C978 C979 1.399 . S
C978 C983 1.399 . S
C979 C978 1.399 . S
C979 C980 1.376 . S
C980 H967 0.930 . S
C980 C979 1.376 . S
C980 C981 1.388 . S
C981 H968 0.930 . S
C981 C980 1.388 . S
C981 C982 1.390 . S
C982 C981 1.390 . S
C982 C983 1.394 . S
C982 C988 1.465 1_545 S
C983 C978 1.399 . S
C983 C982 1.394 . S
C983 C984 1.516 . S
C984 C983 1.516 . S
C984 C985 1.502 . S
C984 C986 1.561 . S
C984 C987 1.526 1_545 S
C985 H969 0.959 . S
C985 H970 0.958 1_545 S
C985 H971 0.961 . S
C985 C984 1.502 . S
C986 H972 0.960 . S
C986 H973 0.961 . S
C986 H974 0.959 . S
C986 C984 1.561 . S
C987 C984 1.526 1_565 S
C987 C988 1.396 . S
C987 C992 1.390 . S
C988 C982 1.465 1_565 S
C988 C987 1.396 . S
C988 C989 1.399 . S
C989 H975 0.929 . S
C989 C988 1.399 . S
C989 C990 1.385 . S
C990 H976 0.931 . S
C990 C989 1.385 . S
C990 C991 1.389 . S
C991 C990 1.389 . S
C991 C992 1.387 . S
C992 H977 0.930 . S
C992 C987 1.390 . S
C992 C991 1.387 . S
H993 C1005 0.930 . S
H994 C1007 0.930 . S
H995 C1008 0.930 . S
H996 C1012 0.959 . S
H997 C1012 0.959 . S
H998 C1012 0.961 . S
H999 C1013 0.960 . S
H1000 C1013 0.961 . S
H1001 C1013 0.959 . S
H1002 C1016 0.929 . S
H1003 C1017 0.931 . S
H1004 C1019 0.930 . S
C1005 H993 0.930 . S
C1005 C1006 1.399 . S
C1005 C1010 1.399 . S
C1006 C1005 1.399 . S
C1006 C1007 1.376 . S
C1007 H994 0.930 . S
C1007 C1006 1.376 . S
C1007 C1008 1.388 . S
C1008 H995 0.930 . S
C1008 C1007 1.388 . S
C1008 C1009 1.390 . S
C1009 C1008 1.390 . S
C1009 C1010 1.394 . S
C1009 C1015 1.465 . S
C1010 C1005 1.399 . S
C1010 C1009 1.394 . S
C1010 C1011 1.516 . S
C1011 C1010 1.516 . S
C1011 C1012 1.502 . S
C1011 C1013 1.561 . S
C1011 C1014 1.526 . S
C1012 H996 0.959 . S
C1012 H997 0.959 . S
C1012 H998 0.961 . S
C1012 C1011 1.502 . S
C1013 H999 0.960 . S
C1013 H1000 0.961 . S
C1013 H1001 0.959 . S
C1013 C1011 1.561 . S
C1014 C1011 1.526 . S
C1014 C1015 1.396 . S
C1014 C1019 1.390 . S
C1015 C1009 1.465 . S
C1015 C1014 1.396 . S
C1015 C1016 1.399 . S
C1016 H1002 0.929 . S
C1016 C1015 1.399 . S
C1016 C1017 1.385 . S
C1017 H1003 0.931 . S
C1017 C1016 1.385 . S
C1017 C1018 1.389 . S
C1018 C1017 1.389 . S
C1018 C1019 1.387 . S
C1019 H1004 0.930 . S
C1019 C1014 1.390 . S
C1019 C1018 1.387 . S
H1020 C1032 0.930 . S
H1021 C1034 0.930 . S
H1022 C1035 0.930 1_655 S
H1023 C1039 0.959 . S
H1024 C1039 0.959 . S
H1025 C1039 0.961 . S
H1026 C1040 0.960 . S
H1027 C1040 0.954 1_655 S
H1028 C1040 0.959 . S
H1029 C1043 0.929 . S
H1030 C1044 0.931 . S
H1031 C1046 0.930 . S
C1032 H1020 0.930 . S
C1032 C1033 1.399 . S
C1032 C1037 1.399 . S
C1033 C1032 1.399 . S
C1033 C1034 1.376 . S
C1034 H1021 0.930 . S
C1034 C1033 1.376 . S
C1034 C1035 1.388 . S
C1035 H1022 0.930 1_455 S
C1035 C1034 1.388 . S
C1035 C1036 1.394 . S
C1036 C1035 1.394 . S
C1036 C1037 1.398 . S
C1036 C1042 1.457 1_455 S
C1037 C1032 1.399 . S
C1037 C1036 1.398 . S
C1037 C1038 1.516 . S
C1038 C1037 1.516 . S
C1038 C1039 1.502 . S
C1038 C1040 1.561 . S
C1038 C1041 1.526 1_455 S
C1039 H1023 0.959 . S
C1039 H1024 0.959 . S
C1039 H1025 0.961 . S
C1039 C1038 1.502 . S
C1040 H1026 0.960 . S
C1040 H1027 0.954 1_455 S
C1040 H1028 0.959 . S
C1040 C1038 1.561 . S
C1041 C1038 1.526 1_655 S
C1041 C1042 1.396 . S
C1041 C1046 1.390 . S
C1042 C1036 1.457 1_655 S
C1042 C1041 1.396 . S
C1042 C1043 1.399 . S
C1043 H1029 0.929 . S
C1043 C1042 1.399 . S
C1043 C1044 1.385 . S
C1044 H1030 0.931 . S
C1044 C1043 1.385 . S
C1044 C1045 1.389 . S
C1045 C1044 1.389 . S
C1045 C1046 1.387 . S
C1046 H1031 0.930 . S
C1046 C1041 1.390 . S
C1046 C1045 1.387 . S
H1047 C1059 0.930 . S
H1048 C1061 0.930 . S
H1049 C1062 0.930 . S
H1050 C1066 0.959 1_565 S
H1051 C1066 0.959 1_565 S
H1052 C1066 0.961 . S
H1053 C1067 0.960 . S
H1054 C1067 0.961 . S
H1055 C1067 0.959 . S
H1056 C1070 0.929 . S
H1057 C1071 0.931 . S
H1058 C1073 0.930 . S
C1059 H1047 0.930 . S
C1059 C1060 1.399 . S
C1059 C1064 1.399 . S
C1060 C1059 1.399 . S
C1060 C1061 1.376 . S
C1061 H1048 0.930 . S
C1061 C1060 1.376 . S
C1061 C1062 1.388 . S
C1062 H1049 0.930 . S
C1062 C1061 1.388 . S
C1062 C1063 1.390 . S
C1063 C1062 1.390 . S
C1063 C1064 1.394 . S
C1063 C1069 1.465 1_545 S
C1064 C1059 1.399 . S
C1064 C1063 1.394 . S
C1064 C1065 1.516 . S
C1065 C1064 1.516 . S
C1065 C1066 1.502 . S
C1065 C1067 1.561 . S
C1065 C1068 1.526 1_545 S
C1066 H1050 0.959 1_545 S
C1066 H1051 0.959 1_545 S
C1066 H1052 0.961 . S
C1066 C1065 1.502 . S
C1067 H1053 0.960 . S
C1067 H1054 0.961 . S
C1067 H1055 0.959 . S
C1067 C1065 1.561 . S
C1068 C1065 1.526 1_565 S
C1068 C1069 1.396 . S
C1068 C1073 1.390 . S
C1069 C1063 1.465 1_565 S
C1069 C1068 1.396 . S
C1069 C1070 1.399 . S
C1070 H1056 0.929 . S
C1070 C1069 1.399 . S
C1070 C1071 1.385 . S
C1071 H1057 0.931 . S
C1071 C1070 1.385 . S
C1071 C1072 1.389 . S
C1072 C1071 1.389 . S
C1072 C1073 1.387 . S
C1073 H1058 0.930 . S
C1073 C1068 1.390 . S
C1073 C1072 1.387 . S
H1074 C1086 0.930 . S
H1075 C1088 0.930 . S
H1076 C1089 0.930 . S
H1077 C1093 0.959 . S
H1078 C1093 0.959 . S
H1079 C1093 0.961 . S
H1080 C1094 0.960 . S
H1081 C1094 0.961 . S
H1082 C1094 0.959 . S
H1083 C1097 0.929 . S
H1084 C1098 0.931 . S
H1085 C1100 0.930 . S
C1086 H1074 0.930 . S
C1086 C1087 1.399 . S
C1086 C1091 1.399 . S
C1087 C1086 1.399 . S
C1087 C1088 1.376 . S
C1088 H1075 0.930 . S
C1088 C1087 1.376 . S
C1088 C1089 1.388 . S
C1089 H1076 0.930 . S
C1089 C1088 1.388 . S
C1089 C1090 1.390 . S
C1090 C1089 1.390 . S
C1090 C1091 1.394 . S
C1090 C1096 1.465 . S
C1091 C1086 1.399 . S
C1091 C1090 1.394 . S
C1091 C1092 1.516 . S
C1092 C1091 1.516 . S
C1092 C1093 1.502 . S
C1092 C1094 1.561 . S
C1092 C1095 1.526 . S
C1093 H1077 0.959 . S
C1093 H1078 0.959 . S
C1093 H1079 0.961 . S
C1093 C1092 1.502 . S
C1094 H1080 0.960 . S
C1094 H1081 0.961 . S
C1094 H1082 0.959 . S
C1094 C1092 1.561 . S
C1095 C1092 1.526 . S
C1095 C1096 1.396 . S
C1095 C1100 1.390 . S
C1096 C1090 1.465 . S
C1096 C1095 1.396 . S
C1096 C1097 1.399 . S
C1097 H1083 0.929 . S
C1097 C1096 1.399 . S
C1097 C1098 1.385 . S
C1098 H1084 0.931 . S
C1098 C1097 1.385 . S
C1098 C1099 1.389 . S
C1099 C1098 1.389 . S
C1099 C1100 1.387 . S
C1100 H1085 0.930 . S
C1100 C1095 1.390 . S
C1100 C1099 1.387 . S
H1101 C1113 0.930 . S
H1102 C1115 0.930 . S
H1103 C1116 0.930 . S
H1104 C1120 0.959 . S
H1105 C1120 0.959 . S
H1106 C1120 0.961 . S
H1107 C1121 0.960 . S
H1108 C1121 0.961 . S
H1109 C1121 0.959 . S
H1110 C1124 0.929 . S
H1111 C1125 0.931 . S
H1112 C1127 0.930 . S
C1113 H1101 0.930 . S
C1113 C1114 1.399 . S
C1113 C1118 1.399 . S
C1114 C1113 1.399 . S
C1114 C1115 1.376 . S
C1115 H1102 0.930 . S
C1115 C1114 1.376 . S
C1115 C1116 1.388 . S
C1116 H1103 0.930 . S
C1116 C1115 1.388 . S
C1116 C1117 1.390 . S
C1117 C1116 1.390 . S
C1117 C1118 1.394 . S
C1117 C1123 1.465 . S
C1118 C1113 1.399 . S
C1118 C1117 1.394 . S
C1118 C1119 1.516 . S
C1119 C1118 1.516 . S
C1119 C1120 1.502 . S
C1119 C1121 1.561 . S
C1119 C1122 1.526 . S
C1120 H1104 0.959 . S
C1120 H1105 0.959 . S
C1120 H1106 0.961 . S
C1120 C1119 1.502 . S
C1121 H1107 0.960 . S
C1121 H1108 0.961 . S
C1121 H1109 0.959 . S
C1121 C1119 1.561 . S
C1122 C1119 1.526 . S
C1122 C1123 1.396 . S
C1122 C1127 1.390 . S
C1123 C1117 1.465 . S
C1123 C1122 1.396 . S
C1123 C1124 1.399 . S
C1124 H1110 0.929 . S
C1124 C1123 1.399 . S
C1124 C1125 1.385 . S
C1125 H1111 0.931 . S
C1125 C1124 1.385 . S
C1125 C1126 1.389 . S
C1126 C1125 1.389 . S
C1126 C1127 1.387 . S
C1127 H1112 0.930 . S
C1127 C1122 1.390 . S
C1127 C1126 1.387 . S
H1128 C1140 0.930 . S
H1129 C1142 0.930 . S
H1130 C1143 0.930 . S
H1131 C1147 0.959 . S
H1132 C1147 0.959 . S
H1133 C1147 0.961 . S
H1134 C1148 0.960 . S
H1135 C1148 0.961 . S
H1136 C1148 0.959 . S
H1137 C1151 0.929 . S
H1138 C1152 0.931 . S
H1139 C1154 0.930 . S
C1140 H1128 0.930 . S
C1140 C1141 1.399 . S
C1140 C1145 1.399 . S
C1141 C1140 1.399 . S
C1141 C1142 1.376 . S
C1142 H1129 0.930 . S
C1142 C1141 1.376 . S
C1142 C1143 1.388 . S
C1143 H1130 0.930 . S
C1143 C1142 1.388 . S
C1143 C1144 1.390 . S
C1144 C1143 1.390 . S
C1144 C1145 1.394 . S
C1144 C1150 1.465 . S
C1145 C1140 1.399 . S
C1145 C1144 1.394 . S
C1145 C1146 1.516 . S
C1146 C1145 1.516 . S
C1146 C1147 1.502 . S
C1146 C1148 1.561 . S
C1146 C1149 1.526 . S
C1147 H1131 0.959 . S
C1147 H1132 0.959 . S
C1147 H1133 0.961 . S
C1147 C1146 1.502 . S
C1148 H1134 0.960 . S
C1148 H1135 0.961 . S
C1148 H1136 0.959 . S
C1148 C1146 1.561 . S
C1149 C1146 1.526 . S
C1149 C1150 1.396 . S
C1149 C1154 1.390 . S
C1150 C1144 1.465 . S
C1150 C1149 1.396 . S
C1150 C1151 1.399 . S
C1151 H1137 0.929 . S
C1151 C1150 1.399 . S
C1151 C1152 1.385 . S
C1152 H1138 0.931 . S
C1152 C1151 1.385 . S
C1152 C1153 1.389 . S
C1153 C1152 1.389 . S
C1153 C1154 1.387 . S
C1154 H1139 0.930 . S
C1154 C1149 1.390 . S
C1154 C1153 1.387 . S
H1155 C1167 0.930 . S
H1156 C1169 0.930 . S
H1157 C1170 0.930 . S
H1158 C1174 0.959 . S
H1159 C1174 0.959 . S
H1160 C1174 0.961 . S
H1161 C1175 0.960 . S
H1162 C1175 0.961 . S
H1163 C1175 0.959 . S
H1164 C1178 0.929 . S
H1165 C1179 0.931 . S
H1166 C1181 0.930 . S
C1167 H1155 0.930 . S
C1167 C1168 1.399 . S
C1167 C1172 1.399 . S
C1168 C1167 1.399 . S
C1168 C1169 1.376 . S
C1169 H1156 0.930 . S
C1169 C1168 1.376 . S
C1169 C1170 1.388 . S
C1170 H1157 0.930 . S
C1170 C1169 1.388 . S
C1170 C1171 1.390 . S
C1171 C1170 1.390 . S
C1171 C1172 1.394 . S
C1171 C1177 1.465 . S
C1172 C1167 1.399 . S
C1172 C1171 1.394 . S
C1172 C1173 1.516 . S
C1173 C1172 1.516 . S
C1173 C1174 1.502 . S
C1173 C1175 1.561 . S
C1173 C1176 1.526 . S
C1174 H1158 0.959 . S
C1174 H1159 0.959 . S
C1174 H1160 0.961 . S
C1174 C1173 1.502 . S
C1175 H1161 0.960 . S
C1175 H1162 0.961 . S
C1175 H1163 0.959 . S
C1175 C1173 1.561 . S
C1176 C1173 1.526 . S
C1176 C1177 1.396 . S
C1176 C1181 1.390 . S
C1177 C1171 1.465 . S
C1177 C1176 1.396 . S
C1177 C1178 1.399 . S
C1178 H1164 0.929 . S
C1178 C1177 1.399 . S
C1178 C1179 1.385 . S
C1179 H1165 0.931 . S
C1179 C1178 1.385 . S
C1179 C1180 1.389 . S
C1180 C1179 1.389 . S
C1180 C1181 1.387 . S
C1181 H1166 0.930 . S
C1181 C1176 1.390 . S
C1181 C1180 1.387 . S
H1182 C1194 0.930 . S
H1183 C1196 0.930 . S
H1184 C1197 0.930 . S
H1185 C1201 0.959 . S
H1186 C1201 0.959 . S
H1187 C1201 0.961 . S
H1188 C1202 0.960 . S
H1189 C1202 0.961 . S
H1190 C1202 0.959 . S
H1191 C1205 0.929 . S
H1192 C1206 0.931 . S
H1193 C1208 0.930 . S
C1194 H1182 0.930 . S
C1194 C1195 1.399 . S
C1194 C1199 1.399 . S
C1195 C1194 1.399 . S
C1195 C1196 1.376 . S
C1196 H1183 0.930 . S
C1196 C1195 1.376 . S
C1196 C1197 1.388 . S
C1197 H1184 0.930 . S
C1197 C1196 1.388 . S
C1197 C1198 1.390 . S
C1198 C1197 1.390 . S
C1198 C1199 1.394 . S
C1198 C1204 1.465 . S
C1199 C1194 1.399 . S
C1199 C1198 1.394 . S
C1199 C1200 1.516 . S
C1200 C1199 1.516 . S
C1200 C1201 1.502 . S
C1200 C1202 1.561 . S
C1200 C1203 1.526 . S
C1201 H1185 0.959 . S
C1201 H1186 0.959 . S
C1201 H1187 0.961 . S
C1201 C1200 1.502 . S
C1202 H1188 0.960 . S
C1202 H1189 0.961 . S
C1202 H1190 0.959 . S
C1202 C1200 1.561 . S
C1203 C1200 1.526 . S
C1203 C1204 1.396 . S
C1203 C1208 1.390 . S
C1204 C1198 1.465 . S
C1204 C1203 1.396 . S
C1204 C1205 1.399 . S
C1205 H1191 0.929 . S
C1205 C1204 1.399 . S
C1205 C1206 1.385 1_556 S
C1206 H1192 0.931 . S
C1206 C1205 1.385 1_554 S
C1206 C1207 1.389 . S
C1207 C1206 1.389 . S
C1207 C1208 1.387 1_554 S
C1208 H1193 0.930 . S
C1208 C1203 1.390 . S
C1208 C1207 1.387 1_556 S
H1209 C1221 0.923 1_556 S
H1210 C1223 0.938 . S
H1211 C1224 0.930 . S
H1212 C1228 0.959 . S
H1213 C1228 0.959 . S
H1214 C1228 0.961 . S
H1215 C1229 0.960 . S
H1216 C1229 0.961 . S
H1217 C1229 0.959 . S
H1218 C1232 0.929 . S
H1219 C1233 0.931 . S
H1220 C1235 0.930 . S
C1221 H1209 0.923 1_554 S
C1221 C1222 1.399 1_554 S
C1221 C1226 1.399 . S
C1222 C1221 1.399 1_556 S
C1222 C1223 1.381 . S
C1223 H1210 0.938 . S
C1223 C1222 1.381 . S
C1223 C1224 1.376 1_556 S
C1224 H1211 0.930 . S
C1224 C1223 1.376 1_554 S
C1224 C1225 1.390 . S
C1225 C1224 1.390 . S
C1225 C1226 1.394 . S
C1225 C1231 1.465 . S
C1226 C1221 1.399 . S
C1226 C1225 1.394 . S
C1226 C1227 1.516 . S
C1227 C1226 1.516 . S
C1227 C1228 1.502 . S
C1227 C1229 1.561 . S
C1227 C1230 1.526 . S
C1228 H1212 0.959 . S
C1228 H1213 0.959 . S
C1228 H1214 0.961 . S
C1228 C1227 1.502 . S
C1229 H1215 0.960 . S
C1229 H1216 0.961 . S
C1229 H1217 0.959 . S
C1229 C1227 1.561 . S
C1230 C1227 1.526 . S
C1230 C1231 1.396 . S
C1230 C1235 1.390 . S
C1231 C1225 1.465 . S
C1231 C1230 1.396 . S
C1231 C1232 1.399 . S
C1232 H1218 0.929 . S
C1232 C1231 1.399 . S
C1232 C1233 1.385 . S
C1233 H1219 0.931 . S
C1233 C1232 1.385 . S
C1233 C1234 1.389 . S
C1234 C1233 1.389 . S
C1234 C1235 1.387 . S
C1235 H1220 0.930 . S
C1235 C1230 1.390 . S
C1235 C1234 1.387 . S
C277 C5 1.407 . S
C289 C185 1.404 . S
C304 C207 1.463 . S
C316 C31 1.461 . S
C331 C229 1.450 . S
C343 C49 1.455 . S
C358 C75 1.421 . S
C370 C251 1.415 . S
C385 C141 1.462 . S
C397 C93 1.459 . S
C412 C163 1.445 . S
C424 C119 1.451 . S
C439 C9 0.874 . S
C451 C203 1.002 . S
C466 C27 0.836 . S
C478 C225 0.955 . S
C493 C247 0.960 . S
C505 C53 0.839 . S
C520 C137 1.004 . S
C532 C71 0.880 . S
C547 C97 0.855 . S
C559 C159 0.899 . S
C574 C115 0.966 . S
C586 C181 0.840 . S
C601 C138 1.339 . S
C613 C7 1.305 . S
C628 C160 1.341 . S
C640 C28 1.309 . S
C655 C182 1.327 . S
C667 C51 1.348 . S
C682 C72 1.264 . S
C694 C204 1.284 . S
C709 C95 1.347 . S
C721 C226 1.322 . S
C736 C116 1.309 . S
C748 C248 1.340 . S
C763 C8 1.705 . S
C775 C118 1.683 . S
C790 C26 1.691 . S
C802 C4 1.656 . S
C817 C52 1.666 . S
C829 C30 1.652 . S
C844 C48 1.649 . S
C856 C70 1.680 . S
C871 C96 1.705 . S
C883 C74 1.679 . S
C898 C114 1.664 . S
C910 C92 1.654 . S
C925 C162 1.650 . S
C937 C136 1.668 . S
C952 C184 1.664 . S
C964 C158 1.660 . S
C979 C206 1.693 . S
C991 C180 1.673 . S
C1006 C202 1.682 . S
C1018 C228 1.651 . S
C1033 C224 1.662 . S
C1045 C250 1.656 . S
C1060 C246 1.661 . S
C1072 C140 1.675 . S
C1087 C227 0.532 . S
C1099 C6 0.604 . S
C1114 C249 0.596 . S
C1126 C29 0.548 . S
C1141 C139 0.656 . S
C1153 C50 0.471 . S
C1168 C161 0.625 . S
C1180 C73 0.515 . S
C1195 C94 0.468 . S
C1207 C183 0.656 . S
C1222 C117 0.530 . S
C1234 C205 0.610 . S
