# Generated by pormake.
# Topology unh, (4)-cn, num edge types: 1
# Building blocks:
#     Node 0, Type 0, BuildingBlock: NAWXER_clean_sbu_0, # of connection points: 4
#     Node 1, Type 0, BuildingBlock: NAWXER_clean_sbu_0, # of connection points: 4
#     Node 2, Type 0, BuildingBlock: NAWXER_clean_sbu_0, # of connection points: 4
#     Node 3, Type 0, BuildingBlock: NAWXER_clean_sbu_0, # of connection points: 4
#     Node 4, Type 0, BuildingBlock: NAWXER_clean_sbu_0, # of connection points: 4
#     Node 5, Type 0, BuildingBlock: NAWXER_clean_sbu_0, # of connection points: 4
#     Edge 6, Type (0, 0), BuildingBlock: XUDNAN_clean_linker_2, # of connection points: 2
#     Edge 7, Type (0, 0), BuildingBlock: XUDNAN_clean_linker_2, # of connection points: 2
#     Edge 8, Type (0, 0), BuildingBlock: XUDNAN_clean_linker_2, # of connection points: 2
#     Edge 9, Type (0, 0), BuildingBlock: XUDNAN_clean_linker_2, # of connection points: 2
#     Edge 10, Type (0, 0), BuildingBlock: XUDNAN_clean_linker_2, # of connection points: 2
#     Edge 11, Type (0, 0), BuildingBlock: XUDNAN_clean_linker_2, # of connection points: 2
#     Edge 12, Type (0, 0), BuildingBlock: XUDNAN_clean_linker_2, # of connection points: 2
#     Edge 13, Type (0, 0), BuildingBlock: XUDNAN_clean_linker_2, # of connection points: 2
#     Edge 14, Type (0, 0), BuildingBlock: XUDNAN_clean_linker_2, # of connection points: 2
#     Edge 15, Type (0, 0), BuildingBlock: XUDNAN_clean_linker_2, # of connection points: 2
#     Edge 16, Type (0, 0), BuildingBlock: XUDNAN_clean_linker_2, # of connection points: 2
#     Edge 17, Type (0, 0), BuildingBlock: XUDNAN_clean_linker_2, # of connection points: 2
# Relax obj value: 0.020
# Max RMSD: 0.247
# Mean RMSD: 0.247
data_MOF--net-unh--node1-NAWXER_clean_sbu_0--edge1-XUDNAN_clean_linker_2
_symmetry_space_group_name_H-M    P1
_symmetry_Int_Tables_number       1
_symmetry_cell_setting            triclinic
loop_
_symmetry_equiv_pos_as_xyz
'x, y, z'
_cell_length_a     44.483459
_cell_length_b     44.430025
_cell_length_c     21.26934
_cell_angle_alpha  90.030759
_cell_angle_beta   89.886594
_cell_angle_gamma 120.0119
loop_
_atom_site_label
_atom_site_type_symbol
_atom_site_fract_x
_atom_site_fract_y
_atom_site_fract_z
_atom_type_partial_charge
C0 C 0.11896 0.56471 0.20913 0.0
C1 C 0.19528 0.6427 0.04732 0.0
O2 O 0.13428 0.59761 0.20656 0.0
Zn3 Zn 0.1591 0.60346 0.12896 0.0
O4 O 0.12449 0.54793 0.16584 0.0
Zn5 Zn 0.15411 0.5609 0.0797 0.0
O6 O 0.18592 0.54463 0.09077 0.0
O7 O 0.1989 0.58995 0.15046 0.0
O8 O 0.18473 0.61084 0.03346 0.0
O9 O 0.18697 0.65036 0.09952 0.0
O10 O 0.1169 0.58067 0.05926 0.0
O11 O 0.11889 0.53577 0.01963 0.0
C12 C 0.20579 0.56669 0.13081 0.0
C13 C 0.10481 0.55451 0.02161 0.0
C14 C 0.59181 0.20575 0.20336 0.0
C15 C 0.56685 0.10798 0.33975 0.0
O16 O 0.5678 0.19092 0.2439 0.0
Zn17 Zn 0.5784 0.15574 0.26875 0.0
O18 O 0.61178 0.19331 0.1913 0.0
Zn19 Zn 0.61703 0.1498 0.22393 0.0
O20 O 0.60608 0.11953 0.15247 0.0
O21 O 0.56039 0.12053 0.1898 0.0
O22 O 0.59126 0.11429 0.30054 0.0
O23 O 0.55195 0.12598 0.33775 0.0
O24 O 0.63073 0.18643 0.30732 0.0
O25 O 0.66405 0.17252 0.2517 0.0
C26 C 0.57383 0.10894 0.14996 0.0
C27 C 0.66068 0.18987 0.29583 0.0
C28 C 0.49645 0.58098 0.35186 0.0
C29 C 0.44954 0.63143 0.49662 0.0
O30 O 0.50977 0.61129 0.3748 0.0
Zn31 Zn 0.47216 0.604 0.42801 0.0
O32 O 0.46581 0.55779 0.36932 0.0
Zn33 Zn 0.42707 0.5569 0.4336 0.0
O34 O 0.38847 0.5422 0.3799 0.0
O35 O 0.43066 0.59588 0.36107 0.0
O36 O 0.42698 0.59944 0.48578 0.0
O37 O 0.47979 0.64415 0.47367 0.0
O38 O 0.47242 0.56982 0.50151 0.0
O39 O 0.42062 0.52343 0.49551 0.0
C40 C 0.40016 0.57025 0.34914 0.0
C41 C 0.45009 0.5394 0.52151 0.0
C42 C 0.8265 0.44451 0.64143 0.0
C43 C 0.9284 0.4676 0.5175 0.0
O44 O 0.84347 0.46917 0.6029 0.0
Zn45 Zn 0.87851 0.45725 0.58221 0.0
O46 O 0.83733 0.42335 0.65464 0.0
Zn47 Zn 0.88062 0.41664 0.6279 0.0
O48 O 0.90723 0.42501 0.70299 0.0
O49 O 0.91048 0.47277 0.66577 0.0
O50 O 0.91933 0.44238 0.55619 0.0
O51 O 0.91179 0.48398 0.51682 0.0
O52 O 0.84791 0.40553 0.53979 0.0
O53 O 0.85794 0.37016 0.59779 0.0
C54 C 0.91917 0.4575 0.70711 0.0
C55 C 0.84307 0.37497 0.55118 0.0
C56 C 0.36807 0.83581 0.79268 0.0
C57 C 0.45535 0.92021 0.65138 0.0
O58 O 0.36458 0.85295 0.74838 0.0
Zn59 Zn 0.41216 0.87832 0.72405 0.0
O60 O 0.39841 0.8409 0.80633 0.0
Zn61 Zn 0.45095 0.87297 0.76934 0.0
O62 O 0.47641 0.90239 0.83892 0.0
O63 O 0.43655 0.91334 0.80218 0.0
O64 O 0.46891 0.90874 0.69107 0.0
O65 O 0.42299 0.90913 0.65359 0.0
O66 O 0.41935 0.83638 0.68973 0.0
O67 O 0.46276 0.83856 0.74352 0.0
C68 C 0.46096 0.91986 0.84141 0.0
C69 C 0.43948 0.82417 0.70172 0.0
C70 C 0.54218 0.45201 0.85159 0.0
C71 C 0.5852 0.40123 1.00349 0.0
O72 O 0.52774 0.4221 0.87652 0.0
Zn73 Zn 0.56441 0.42842 0.93095 0.0
O74 O 0.57324 0.47451 0.86789 0.0
Zn75 Zn 0.61109 0.47491 0.93292 0.0
O76 O 0.64945 0.48503 0.87874 0.0
O77 O 0.60497 0.43191 0.86761 0.0
O78 O 0.60857 0.43265 0.99039 0.0
O79 O 0.55497 0.38888 0.98063 0.0
O80 O 0.56643 0.46473 1.00107 0.0
O81 O 0.61871 0.51036 0.9926 0.0
C82 C 0.63619 0.45525 0.85328 0.0
C83 C 0.58927 0.49528 0.0193 0.0
H84 H 0.0639 0.49329 0.96114 0.0
H85 H 0.07862 0.59666 0.98736 0.0
H86 H 0.03088 0.58274 0.91215 0.0
H87 H 0.04698 0.48649 0.79843 0.0
H88 H 1.01467 0.44099 0.80102 0.0
H89 H 0.04881 0.45889 0.8586 0.0
H90 H 1.00306 0.43629 0.94819 0.0
H91 H 0.96873 0.41823 0.89084 0.0
H92 H 0.96987 0.44828 0.94907 0.0
H93 H 0.98388 0.55811 0.82742 0.0
H94 H 0.94006 0.52415 0.74605 0.0
H95 H 0.95561 0.43665 0.7806 0.0
C96 C 0.05701 0.513 0.95146 0.0
C97 C 0.07504 0.54611 0.97991 0.0
C98 C 0.06505 0.57107 0.96622 0.0
C99 C 0.03804 0.56342 0.9235 0.0
C100 C 0.02108 0.53056 0.89569 0.0
C101 C 0.03002 0.50568 0.90975 0.0
C102 C 1.00823 0.47248 0.87339 0.0
C103 C 0.03104 0.46425 0.83031 0.0
C104 C 0.98616 0.44203 0.91804 0.0
C105 C 0.98589 0.48261 0.83575 0.0
C106 C 0.99364 0.51621 0.84895 0.0
C107 C 0.97734 0.53164 0.81737 0.0
C108 C 0.95256 0.5122 0.77115 0.0
C109 C 0.94419 0.47765 0.7574 0.0
C110 C 0.96101 0.46279 0.79064 0.0
H111 H 0.52199 0.95331 0.90747 0.0
H112 H 0.42411 0.95078 0.8798 0.0
H113 H 0.44224 0.99893 0.95572 0.0
H114 H 0.53097 0.97301 0.07319 0.0
H115 H 0.57727 1.00172 0.06878 0.0
H116 H 0.55606 0.9664 0.01378 0.0
H117 H 0.58201 1.00989 0.92109 0.0
H118 H 0.60318 0.04537 0.97581 0.0
H119 H 0.57448 0.04612 0.91693 0.0
H120 H 0.47077 0.04678 0.03623 0.0
H121 H 0.50847 0.09219 0.11216 0.0
H122 H 0.58877 0.06528 0.08293 0.0
C123 C 0.50425 0.9627 0.91772 0.0
C124 C 0.47153 0.94815 0.88801 0.0
C125 C 0.44929 0.96153 0.90203 0.0
C126 C 0.45934 0.98883 0.94513 0.0
C127 C 0.49186 1.00273 0.97331 0.0
C128 C 0.51406 0.99025 0.95993 0.0
C129 C 0.54798 1.01036 0.99528 0.0
C130 C 0.55337 0.98644 0.04044 0.0
C131 C 0.57872 0.02904 0.94954 0.0
C132 C 0.54134 0.03601 0.03084 0.0
C133 C 0.50873 0.03103 0.01788 0.0
C134 C 0.49644 0.05104 0.04645 0.0
C135 C 0.51801 0.07675 0.08953 0.0
C136 C 0.55164 0.08247 0.1031 0.0
C137 C 0.56338 0.06185 0.07297 0.0
H138 H 0.474 0.52126 0.28112 0.0
H139 H 0.56383 0.62293 0.3161 0.0
H140 H 0.59706 0.61133 0.23672 0.0
H141 H 0.52177 0.4756 0.25598 0.0
H142 H 0.49361 0.44856 0.19401 0.0
H143 H 0.47678 0.46424 0.25502 0.0
H144 H 0.45552 0.49142 0.17083 0.0
H145 H 0.47233 0.47588 0.10959 0.0
H146 H 0.48601 0.52147 0.11431 0.0
H147 H 0.6205 0.58982 0.1528 0.0
H148 H 0.63284 0.55945 0.06863 0.0
H149 H 0.52818 0.4715 0.08614 0.0
C150 C 0.50072 0.54098 0.27235 0.0
C151 C 0.51627 0.57302 0.30505 0.0
C152 C 0.55126 0.59821 0.29178 0.0
C153 C 0.57043 0.59187 0.24676 0.0
C154 C 0.55433 0.56022 0.21516 0.0
C155 C 0.52032 0.53513 0.22722 0.0
C156 C 0.50921 0.50359 0.18544 0.0
C157 C 0.49979 0.47108 0.22499 0.0
C158 C 0.47898 0.49776 0.1425 0.0
C159 C 0.54227 0.51502 0.14798 0.0
C160 C 0.56794 0.54775 0.16613 0.0
C161 C 0.60066 0.56412 0.13822 0.0
C162 C 0.60739 0.54662 0.09035 0.0
C163 C 0.58154 0.51304 0.07063 0.0
C164 C 0.54855 0.4971 0.10013 0.0
H165 H 0.96702 0.52871 0.45173 0.0
H166 H 0.95619 0.42732 0.48464 0.0
H167 H 1.00478 0.44177 0.41184 0.0
H168 H 0.98835 0.53497 0.28781 0.0
H169 H 0.01974 0.58075 0.29045 0.0
H170 H 0.98402 0.56246 0.34519 0.0
H171 H 0.02731 0.58682 0.43813 0.0
H172 H 0.06318 0.60508 0.38365 0.0
H173 H 0.06112 0.57586 0.44447 0.0
H174 H 0.05255 0.46591 0.33167 0.0
H175 H 0.09821 0.49941 0.25288 0.0
H176 H 0.08066 0.58643 0.27649 0.0
C177 C 0.97487 0.50957 0.44353 0.0
C178 C 0.95772 0.47683 0.47376 0.0
C179 C 0.96897 0.45259 0.46219 0.0
C180 C 0.99653 0.46053 0.42084 0.0
C181 C 1.01293 0.493 0.39193 0.0
C182 C 1.00274 0.51727 0.40303 0.0
C183 C 0.02506 0.5504 0.36629 0.0
C184 C 1.00297 0.55755 0.31967 0.0
C185 C 0.04537 0.58137 0.4108 0.0
C186 C 0.04909 0.54078 0.33234 0.0
C187 C 0.0415 0.50747 0.34755 0.0
C188 C 0.05902 0.49218 0.3199 0.0
C189 C 0.08487 0.51136 0.27521 0.0
C190 C 0.09325 0.54562 0.25921 0.0
C191 C 0.07528 0.56054 0.28871 0.0
H192 H 0.50581 0.07465 0.40652 0.0
H193 H 0.60371 0.07722 0.37788 0.0
H194 H 0.58598 0.02961 0.45473 0.0
H195 H 0.49751 0.056 0.57264 0.0
H196 H 0.45123 0.0271 0.56939 0.0
H197 H 0.47205 0.06205 0.51345 0.0
H198 H 0.44586 0.01789 0.42188 0.0
H199 H 0.42503 0.9828 0.47755 0.0
H200 H 0.45354 0.98174 0.41835 0.0
H201 H 0.55808 0.98249 0.53632 0.0
H202 H 0.5208 0.93738 0.61322 0.0
H203 H 0.43999 0.96356 0.58458 0.0
C204 C 0.52359 0.06534 0.41671 0.0
C205 C 0.55622 0.07976 0.38647 0.0
C206 C 0.57857 0.06654 0.40046 0.0
C207 C 0.56878 0.03955 0.44412 0.0
C208 C 0.53639 0.02581 0.4729 0.0
C209 C 0.51403 0.03807 0.45951 0.0
C210 C 0.48029 0.01811 0.49567 0.0
C211 C 0.47498 0.04226 0.54045 0.0
C212 C 0.44936 0.999 0.45067 0.0
C213 C 0.48723 0.9928 0.53164 0.0
C214 C 0.51984 0.99785 0.51822 0.0
C215 C 0.53241 0.97816 0.54694 0.0
C216 C 0.51108 0.95264 0.59059 0.0
C217 C 0.47742 0.94679 0.60454 0.0
C218 C 0.46543 0.96714 0.57436 0.0
H219 H 0.56613 0.51131 0.77864 0.0
H220 H 0.47435 0.41166 0.81819 0.0
H221 H 0.44141 0.42437 0.74045 0.0
H222 H 0.52114 0.55981 0.75565 0.0
H223 H 0.54882 0.58572 0.69204 0.0
H224 H 0.5656 0.56951 0.75204 0.0
H225 H 0.58391 0.54016 0.66672 0.0
H226 H 0.56721 0.5563 0.60648 0.0
H227 H 0.55195 0.51039 0.61196 0.0
H228 H 0.41827 0.44659 0.65884 0.0
H229 H 0.406 0.47694 0.57522 0.0
H230 H 0.51223 0.56275 0.58538 0.0
C231 C 0.53908 0.49226 0.77108 0.0
C232 C 0.52287 0.46046 0.80472 0.0
C233 C 0.48744 0.43616 0.79313 0.0
C234 C 0.46842 0.44314 0.74908 0.0
C235 C 0.48511 0.47455 0.71672 0.0
C236 C 0.5196 0.49876 0.72686 0.0
C237 C 0.53115 0.53018 0.6844 0.0
C238 C 0.54234 0.56326 0.72337 0.0
C239 C 0.56028 0.5345 0.63974 0.0
C240 C 0.49775 0.51965 0.64883 0.0
C241 C 0.4716 0.48748 0.66864 0.0
C242 C 0.43848 0.47182 0.6429 0.0
C243 C 0.43181 0.48936 0.59528 0.0
C244 C 0.45812 0.5223 0.57351 0.0
C245 C 0.49153 0.53768 0.60104 0.0
H246 H 0.25308 0.60655 0.223 0.0
H247 H 0.22946 0.52476 0.08679 0.0
H248 H 0.28099 0.52233 0.12028 0.0
H249 H 0.34834 0.64965 0.20858 0.0
H250 H 0.35551 0.65894 0.29146 0.0
H251 H 0.31807 0.65658 0.25399 0.0
H252 H 0.27768 0.60986 0.33425 0.0
H253 H 0.31498 0.61234 0.37221 0.0
H254 H 0.28061 0.57111 0.34417 0.0
H255 H 0.33155 0.5248 0.1726 0.0
H256 H 0.37761 0.5308 0.24496 0.0
H257 H 0.37084 0.61171 0.34667 0.0
C258 C 0.25896 0.58837 0.19989 0.0
C259 C 0.23713 0.56589 0.15212 0.0
C260 C 0.24562 0.54226 0.12349 0.0
C261 C 0.27502 0.54079 0.1419 0.0
C262 C 0.29592 0.56318 0.18896 0.0
C263 C 0.28836 0.58648 0.21785 0.0
C264 C 0.31421 0.60607 0.26989 0.0
C265 C 0.33528 0.64513 0.25507 0.0
C266 C 0.29576 0.59943 0.33391 0.0
C267 C 0.33686 0.58946 0.26655 0.0
C268 C 0.32594 0.56504 0.21894 0.0
C269 C 0.34082 0.54429 0.20924 0.0
C270 C 0.36699 0.54793 0.25028 0.0
C271 C 0.37821 0.57231 0.29985 0.0
C272 C 0.36346 0.59381 0.3075 0.0
H273 H 0.67297 0.25035 0.35286 0.0
H274 H 0.71752 0.18419 0.3219 0.0
H275 H 0.76921 0.22471 0.38337 0.0
H276 H 0.75369 0.33132 0.33602 0.0
H277 H 0.74321 0.35364 0.39529 0.0
H278 H 0.70903 0.31881 0.35096 0.0
H279 H 0.67971 0.28676 0.45451 0.0
H280 H 0.71374 0.32153 0.49915 0.0
H281 H 0.70436 0.27746 0.51049 0.0
H282 H 0.81449 0.27063 0.45194 0.0
H283 H 0.85296 0.32172 0.5169 0.0
H284 H 0.78181 0.36103 0.49585 0.0
C285 C 0.69354 0.24435 0.35949 0.0
C286 C 0.69123 0.21404 0.33325 0.0
C287 C 0.71886 0.20728 0.34175 0.0
C288 C 0.74824 0.23008 0.37663 0.0
C289 C 0.74983 0.25982 0.40169 0.0
C290 C 0.72344 0.26726 0.39301 0.0
C291 C 0.7323 0.30168 0.4231 0.0
C292 C 0.73471 0.32791 0.37336 0.0
C293 C 0.70596 0.29653 0.47489 0.0
C294 C 0.76763 0.31221 0.45055 0.0
C295 C 0.77702 0.28746 0.4382 0.0
C296 C 0.80765 0.29041 0.46131 0.0
C297 C 0.82927 0.31941 0.49818 0.0
C298 C 0.82045 0.34534 0.51054 0.0
C299 C 0.78939 0.34183 0.48598 0.0
H300 H 0.48749 0.80378 0.67945 0.0
H301 H 0.37913 0.77255 0.65202 0.0
H302 H 0.36896 0.71789 0.60251 0.0
H303 H 0.49777 0.77151 0.53075 0.0
H304 H 0.52704 0.75804 0.56092 0.0
H305 H 0.52518 0.79372 0.59705 0.0
H306 H 0.51227 0.76237 0.70478 0.0
H307 H 0.51379 0.72643 0.66882 0.0
H308 H 0.47582 0.7189 0.7123 0.0
H309 H 0.3704 0.6659 0.55793 0.0
H310 H 0.38494 0.62397 0.50997 0.0
H311 H 0.49299 0.69099 0.56048 0.0
C312 C 0.46162 0.78536 0.66317 0.0
C313 C 0.43404 0.79226 0.66978 0.0
C314 C 0.40065 0.7678 0.64715 0.0
C315 C 0.39456 0.73659 0.61938 0.0
C316 C 0.42226 0.73045 0.61384 0.0
C317 C 0.45524 0.75439 0.6342 0.0
C318 C 0.48092 0.74242 0.61938 0.0
C319 C 0.5094 0.76794 0.57434 0.0
C320 C 0.49662 0.73722 0.67994 0.0
C321 C 0.45725 0.70803 0.58753 0.0
C322 C 0.42339 0.7013 0.58569 0.0
C323 C 0.39684 0.67094 0.55894 0.0
C324 C 0.40528 0.64719 0.53217 0.0
C325 C 0.44005 0.65427 0.5315 0.0
C326 C 0.46619 0.68494 0.56018 0.0
H327 H 0.69742 0.5002 0.79398 0.0
H328 H 0.62464 0.39049 0.82338 0.0
H329 H 0.66454 0.37577 0.76842 0.0
H330 H 0.72659 0.49018 0.63621 0.0
H331 H 0.77065 0.52417 0.65001 0.0
H332 H 0.7352 0.52586 0.68768 0.0
H333 H 0.76349 0.53045 0.79626 0.0
H334 H 0.7988 0.52839 0.75908 0.0
H335 H 0.77363 0.49752 0.81955 0.0
H336 H 0.71521 0.37333 0.7219 0.0
H337 H 0.7704 0.38298 0.67584 0.0
H338 H 0.80885 0.49396 0.67029 0.0
C339 C 0.6896 0.47305 0.78784 0.0
C340 C 0.65788 0.44647 0.81292 0.0
C341 C 0.64864 0.41128 0.8041 0.0
C342 C 0.67121 0.40266 0.7732 0.0
C343 C 0.70265 0.42951 0.75043 0.0
C344 C 0.71158 0.46397 0.75624 0.0
C345 C 0.74721 0.48786 0.72855 0.0
C346 C 0.74475 0.50821 0.67226 0.0
C347 C 0.77225 0.5125 0.77887 0.0
C348 C 0.75731 0.46149 0.70772 0.0
C349 C 0.7313 0.42799 0.72112 0.0
C350 C 0.7355 0.39938 0.71018 0.0
C351 C 0.76699 0.40513 0.68443 0.0
C352 C 0.7937 0.43916 0.66915 0.0
C353 C 0.78863 0.46763 0.68064 0.0
H354 H 0.36259 0.81078 0.9128 0.0
H355 H 0.30373 0.7972 0.74228 0.0
H356 H 0.25284 0.74664 0.78961 0.0
H357 H 0.32859 0.72187 0.94951 0.0
H358 H 0.32637 0.72693 0.03318 0.0
H359 H 0.35815 0.76259 0.98669 0.0
H360 H 0.33499 0.80202 0.02829 0.0
H361 H 0.30328 0.76654 0.07532 0.0
H362 H 0.28953 0.78808 0.02028 0.0
H363 H 0.21062 0.69424 0.85085 0.0
H364 H 0.17666 0.64781 0.92852 0.0
H365 H 0.26024 0.69851 0.06331 0.0
C366 C 0.33884 0.79731 0.88581 0.0
C367 C 0.33702 0.80778 0.82391 0.0
C368 C 0.30554 0.78972 0.78997 0.0
C369 C 0.27658 0.76088 0.8163 0.0
C370 C 0.2793 0.75091 0.87709 0.0
C371 C 0.30934 0.76897 0.91201 0.0
C372 C 0.30507 0.75313 0.97683 0.0
C373 C 0.33109 0.74037 0.98712 0.0
C374 C 0.30841 0.77898 0.02821 0.0
C375 C 0.2682 0.72297 0.97233 0.0
C376 C 0.254 0.72193 0.91405 0.0
C377 C 0.22116 0.69513 0.89708 0.0
C378 C 0.20217 0.66888 0.94115 0.0
C379 C 0.21584 0.67014 1.0016 0.0
C380 C 0.24914 0.69752 0.01754 0.0
H381 H 0.54074 0.34126 0.066 0.0
H382 H 0.64953 0.4087 0.02015 0.0
H383 H 0.66333 0.3663 0.06782 0.0
H384 H 0.55573 0.31122 0.21781 0.0
H385 H 0.51925 0.26801 0.20779 0.0
H386 H 0.51853 0.30462 0.17308 0.0
H387 H 0.50675 0.27486 0.064 0.0
H388 H 0.50789 0.23838 0.09815 0.0
H389 H 0.53633 0.26177 0.03354 0.0
H390 H 0.66411 0.31368 0.11047 0.0
H391 H 0.65307 0.25807 0.15716 0.0
H392 H 0.54438 0.22668 0.18089 0.0
C393 C 0.56755 0.34736 0.06689 0.0
C394 C 0.59409 0.37827 0.03943 0.0
C395 C 0.62885 0.38533 0.04144 0.0
C396 C 0.63689 0.36131 0.06807 0.0
C397 C 0.60997 0.33067 0.09337 0.0
C398 C 0.5761 0.32397 0.09416 0.0
C399 C 0.55194 0.28905 0.124 0.0
C400 C 0.5354 0.29351 0.18426 0.0
C401 C 0.52409 0.26458 0.07711 0.0
C402 C 0.57738 0.27681 0.13873 0.0
C403 C 0.61068 0.30106 0.12024 0.0
C404 C 0.63824 0.29473 0.12596 0.0
C405 C 0.63168 0.263 0.15208 0.0
C406 C 0.59793 0.23822 0.17286 0.0
C407 C 0.57051 0.24533 0.16603 0.0
loop_
_geom_bond_atom_site_label_1
_geom_bond_atom_site_label_2
_geom_bond_distance
_geom_bond_site_symmetry_2
_ccdc_geom_bond_type
C0 O2 1.247 . S
C0 O4 1.258 . S
C1 O8 1.247 . S
C1 O9 1.258 . S
O2 C0 1.247 . S
O2 Zn3 2.028 . S
Zn3 O2 2.028 . S
Zn3 O7 2.035 . S
Zn3 O9 2.035 . S
Zn3 O10 2.028 . S
O4 C0 1.258 . S
O4 Zn5 2.035 . S
Zn5 O4 2.035 . S
Zn5 O6 2.028 . S
Zn5 O8 2.028 . S
Zn5 O11 2.035 . S
O6 Zn5 2.028 . S
O6 C12 1.247 . S
O7 Zn3 2.035 . S
O7 C12 1.258 . S
O8 C1 1.247 . S
O8 Zn5 2.028 . S
O9 C1 1.258 . S
O9 Zn3 2.035 . S
O10 Zn3 2.028 . S
O10 C13 1.247 . S
O11 Zn5 2.035 . S
O11 C13 1.258 . S
C12 O6 1.247 . S
C12 O7 1.258 . S
C13 O10 1.247 . S
C13 O11 1.258 . S
C14 O16 1.247 . S
C14 O18 1.258 . S
C15 O22 1.247 . S
C15 O23 1.258 . S
O16 C14 1.247 . S
O16 Zn17 2.028 . S
Zn17 O16 2.028 . S
Zn17 O21 2.035 . S
Zn17 O23 2.035 . S
Zn17 O24 2.028 . S
O18 C14 1.258 . S
O18 Zn19 2.035 . S
Zn19 O18 2.035 . S
Zn19 O20 2.028 . S
Zn19 O22 2.028 . S
Zn19 O25 2.035 . S
O20 Zn19 2.028 . S
O20 C26 1.247 . S
O21 Zn17 2.035 . S
O21 C26 1.258 . S
O22 C15 1.247 . S
O22 Zn19 2.028 . S
O23 C15 1.258 . S
O23 Zn17 2.035 . S
O24 Zn17 2.028 . S
O24 C27 1.247 . S
O25 Zn19 2.035 . S
O25 C27 1.258 . S
C26 O20 1.247 . S
C26 O21 1.258 . S
C27 O24 1.247 . S
C27 O25 1.258 . S
C28 O30 1.247 . S
C28 O32 1.258 . S
C29 O36 1.247 . S
C29 O37 1.258 . S
O30 C28 1.247 . S
O30 Zn31 2.028 . S
Zn31 O30 2.028 . S
Zn31 O35 2.035 . S
Zn31 O37 2.035 . S
Zn31 O38 2.028 . S
O32 C28 1.258 . S
O32 Zn33 2.035 . S
Zn33 O32 2.035 . S
Zn33 O34 2.028 . S
Zn33 O36 2.028 . S
Zn33 O39 2.035 . S
O34 Zn33 2.028 . S
O34 C40 1.247 . S
O35 Zn31 2.035 . S
O35 C40 1.258 . S
O36 C29 1.247 . S
O36 Zn33 2.028 . S
O37 C29 1.258 . S
O37 Zn31 2.035 . S
O38 Zn31 2.028 . S
O38 C41 1.247 . S
O39 Zn33 2.035 . S
O39 C41 1.258 . S
C40 O34 1.247 . S
C40 O35 1.258 . S
C41 O38 1.247 . S
C41 O39 1.258 . S
C42 O44 1.247 . S
C42 O46 1.258 . S
C43 O50 1.247 . S
C43 O51 1.258 . S
O44 C42 1.247 . S
O44 Zn45 2.028 . S
Zn45 O44 2.028 . S
Zn45 O49 2.035 . S
Zn45 O51 2.035 . S
Zn45 O52 2.028 . S
O46 C42 1.258 . S
O46 Zn47 2.035 . S
Zn47 O46 2.035 . S
Zn47 O48 2.028 . S
Zn47 O50 2.028 . S
Zn47 O53 2.035 . S
O48 Zn47 2.028 . S
O48 C54 1.247 . S
O49 Zn45 2.035 . S
O49 C54 1.258 . S
O50 C43 1.247 . S
O50 Zn47 2.028 . S
O51 C43 1.258 . S
O51 Zn45 2.035 . S
O52 Zn45 2.028 . S
O52 C55 1.247 . S
O53 Zn47 2.035 . S
O53 C55 1.258 . S
C54 O48 1.247 . S
C54 O49 1.258 . S
C55 O52 1.247 . S
C55 O53 1.258 . S
C56 O58 1.247 . S
C56 O60 1.258 . S
C57 O64 1.247 . S
C57 O65 1.258 . S
O58 C56 1.247 . S
O58 Zn59 2.028 . S
Zn59 O58 2.028 . S
Zn59 O63 2.035 . S
Zn59 O65 2.035 . S
Zn59 O66 2.028 . S
O60 C56 1.258 . S
O60 Zn61 2.035 . S
Zn61 O60 2.035 . S
Zn61 O62 2.028 . S
Zn61 O64 2.028 . S
Zn61 O67 2.035 . S
O62 Zn61 2.028 . S
O62 C68 1.247 . S
O63 Zn59 2.035 . S
O63 C68 1.258 . S
O64 C57 1.247 . S
O64 Zn61 2.028 . S
O65 C57 1.258 . S
O65 Zn59 2.035 . S
O66 Zn59 2.028 . S
O66 C69 1.247 . S
O67 Zn61 2.035 . S
O67 C69 1.258 . S
C68 O62 1.247 . S
C68 O63 1.258 . S
C69 O66 1.247 . S
C69 O67 1.258 . S
C70 O72 1.247 . S
C70 O74 1.258 . S
C71 O78 1.247 . S
C71 O79 1.258 . S
O72 C70 1.247 . S
O72 Zn73 2.028 . S
Zn73 O72 2.028 . S
Zn73 O77 2.035 . S
Zn73 O79 2.035 . S
Zn73 O80 2.028 . S
O74 C70 1.258 . S
O74 Zn75 2.035 . S
Zn75 O74 2.035 . S
Zn75 O76 2.028 . S
Zn75 O78 2.028 . S
Zn75 O81 2.035 . S
O76 Zn75 2.028 . S
O76 C82 1.247 . S
O77 Zn73 2.035 . S
O77 C82 1.258 . S
O78 C71 1.247 . S
O78 Zn75 2.028 . S
O79 C71 1.258 . S
O79 Zn73 2.035 . S
O80 Zn73 2.028 . S
O80 C83 1.247 . S
O81 Zn75 2.035 . S
O81 C83 1.258 . S
C82 O76 1.247 . S
C82 O77 1.258 . S
C83 O80 1.247 . S
C83 O81 1.258 . S
H84 C96 0.930 . S
H85 C98 0.930 . S
H86 C99 0.930 . S
H87 C103 0.959 . S
H88 C103 0.959 . S
H89 C103 0.961 . S
H90 C104 0.960 . S
H91 C104 0.961 . S
H92 C104 0.959 . S
H93 C107 0.929 . S
H94 C108 0.931 . S
H95 C110 0.930 . S
C96 H84 0.930 . S
C96 C97 1.399 . S
C96 C101 1.399 . S
C97 C96 1.399 . S
C97 C98 1.376 . S
C98 H85 0.930 . S
C98 C97 1.376 . S
C98 C99 1.388 . S
C99 H86 0.930 . S
C99 C98 1.388 . S
C99 C100 1.390 . S
C100 C99 1.390 . S
C100 C101 1.394 . S
C100 C106 1.484 . S
C101 C96 1.399 . S
C101 C100 1.394 . S
C101 C102 1.516 1_455 S
C102 C101 1.516 1_655 S
C102 C103 1.502 . S
C102 C104 1.561 . S
C102 C105 1.526 . S
C103 H87 0.959 . S
C103 H88 0.959 . S
C103 H89 0.961 . S
C103 C102 1.502 . S
C104 H90 0.960 . S
C104 H91 0.961 . S
C104 H92 0.959 . S
C104 C102 1.561 . S
C105 C102 1.526 . S
C105 C106 1.368 1_655 S
C105 C110 1.390 . S
C106 C100 1.484 . S
C106 C105 1.368 1_455 S
C106 C107 1.405 . S
C107 H93 0.929 . S
C107 C106 1.405 . S
C107 C108 1.385 1_455 S
C108 H94 0.931 . S
C108 C107 1.385 1_655 S
C108 C109 1.389 . S
C109 C108 1.389 . S
C109 C110 1.387 . S
C110 H95 0.930 . S
C110 C105 1.390 . S
C110 C109 1.387 . S
H111 C123 0.930 . S
H112 C125 0.930 . S
H113 C126 0.930 1_554 S
H114 C130 0.959 . S
H115 C130 0.959 . S
H116 C130 0.961 . S
H117 C131 0.960 . S
H118 C131 0.961 . S
H119 C131 0.959 . S
H120 C134 0.929 1_565 S
H121 C135 0.931 . S
H122 C137 0.930 . S
C123 H111 0.930 . S
C123 C124 1.399 . S
C123 C128 1.399 . S
C124 C123 1.399 . S
C124 C125 1.376 . S
C125 H112 0.930 . S
C125 C124 1.376 . S
C125 C126 1.388 . S
C126 H113 0.930 1_556 S
C126 C125 1.388 . S
C126 C127 1.390 . S
C127 C126 1.390 . S
C127 C128 1.394 . S
C127 C133 1.465 1_566 S
C128 C123 1.399 . S
C128 C127 1.394 . S
C128 C129 1.516 1_565 S
C129 C128 1.516 1_545 S
C129 C130 1.502 . S
C129 C131 1.561 . S
C129 C132 1.526 1_556 S
C130 H114 0.959 . S
C130 H115 0.959 . S
C130 H116 0.961 . S
C130 C129 1.502 . S
C131 H117 0.960 . S
C131 H118 0.961 . S
C131 H119 0.959 . S
C131 C129 1.561 . S
C132 C129 1.526 1_554 S
C132 C133 1.396 . S
C132 C137 1.390 . S
C133 C127 1.465 1_544 S
C133 C132 1.396 . S
C133 C134 1.399 . S
C134 H120 0.929 1_545 S
C134 C133 1.399 . S
C134 C135 1.385 . S
C135 H121 0.931 . S
C135 C134 1.385 . S
C135 C136 1.389 . S
C136 C135 1.389 . S
C136 C137 1.387 . S
C137 H122 0.930 . S
C137 C132 1.390 . S
C137 C136 1.387 . S
H138 C150 0.930 . S
H139 C152 0.930 . S
H140 C153 0.930 . S
H141 C157 0.959 . S
H142 C157 0.959 . S
H143 C157 0.961 . S
H144 C158 0.960 . S
H145 C158 0.961 . S
H146 C158 0.959 . S
H147 C161 0.929 . S
H148 C162 0.931 1_556 S
H149 C164 0.930 . S
C150 H138 0.930 . S
C150 C151 1.399 . S
C150 C155 1.399 . S
C151 C150 1.399 . S
C151 C152 1.376 . S
C152 H139 0.930 . S
C152 C151 1.376 . S
C152 C153 1.388 . S
C153 H140 0.930 . S
C153 C152 1.388 . S
C153 C154 1.390 . S
C154 C153 1.390 . S
C154 C155 1.394 . S
C154 C160 1.465 . S
C155 C150 1.399 . S
C155 C154 1.394 . S
C155 C156 1.516 . S
C156 C155 1.516 . S
C156 C157 1.502 . S
C156 C158 1.561 . S
C156 C159 1.526 . S
C157 H141 0.959 . S
C157 H142 0.959 . S
C157 H143 0.961 . S
C157 C156 1.502 . S
C158 H144 0.960 . S
C158 H145 0.961 . S
C158 H146 0.959 . S
C158 C156 1.561 . S
C159 C156 1.526 . S
C159 C160 1.396 . S
C159 C164 1.390 . S
C160 C154 1.465 . S
C160 C159 1.396 . S
C160 C161 1.399 . S
C161 H147 0.929 . S
C161 C160 1.399 . S
C161 C162 1.385 . S
C162 H148 0.931 1_554 S
C162 C161 1.385 . S
C162 C163 1.389 . S
C163 C162 1.389 . S
C163 C164 1.387 . S
C164 H149 0.930 . S
C164 C159 1.390 . S
C164 C163 1.387 . S
H165 C177 0.930 . S
H166 C179 0.930 . S
H167 C180 0.930 . S
H168 C184 0.959 . S
H169 C184 0.959 1_455 S
H170 C184 0.961 . S
H171 C185 0.960 . S
H172 C185 0.961 . S
H173 C185 0.959 . S
H174 C188 0.929 . S
H175 C189 0.931 . S
H176 C191 0.930 . S
C177 H165 0.930 . S
C177 C178 1.399 . S
C177 C182 1.399 . S
C178 C177 1.399 . S
C178 C179 1.376 . S
C179 H166 0.930 . S
C179 C178 1.376 . S
C179 C180 1.388 . S
C180 H167 0.930 . S
C180 C179 1.388 . S
C180 C181 1.390 . S
C181 C180 1.390 . S
C181 C182 1.394 . S
C181 C187 1.465 1_655 S
C182 C177 1.399 . S
C182 C181 1.394 . S
C182 C183 1.516 1_655 S
C183 C182 1.516 1_455 S
C183 C184 1.502 1_455 S
C183 C185 1.561 . S
C183 C186 1.526 . S
C184 H168 0.959 . S
C184 H169 0.959 1_655 S
C184 H170 0.961 . S
C184 C183 1.502 1_655 S
C185 H171 0.960 . S
C185 H172 0.961 . S
C185 H173 0.959 . S
C185 C183 1.561 . S
C186 C183 1.526 . S
C186 C187 1.396 . S
C186 C191 1.390 . S
C187 C181 1.465 1_455 S
C187 C186 1.396 . S
C187 C188 1.399 . S
C188 H174 0.929 . S
C188 C187 1.399 . S
C188 C189 1.385 . S
C189 H175 0.931 . S
C189 C188 1.385 . S
C189 C190 1.389 . S
C190 C189 1.389 . S
C190 C191 1.387 . S
C191 H176 0.930 . S
C191 C186 1.390 . S
C191 C190 1.387 . S
H192 C204 0.930 . S
H193 C206 0.930 . S
H194 C207 0.930 . S
H195 C211 0.959 . S
H196 C211 0.959 . S
H197 C211 0.961 . S
H198 C212 0.960 . S
H199 C212 0.961 . S
H200 C212 0.959 . S
H201 C215 0.929 . S
H202 C216 0.931 . S
H203 C218 0.930 . S
C204 H192 0.930 . S
C204 C205 1.399 . S
C204 C209 1.399 . S
C205 C204 1.399 . S
C205 C206 1.376 . S
C206 H193 0.930 . S
C206 C205 1.376 . S
C206 C207 1.388 1_545 S
C207 H194 0.930 . S
C207 C206 1.388 1_565 S
C207 C208 1.395 . S
C208 C207 1.395 . S
C208 C209 1.373 1_565 S
C208 C214 1.479 . S
C209 C204 1.399 . S
C209 C208 1.373 1_545 S
C209 C210 1.516 . S
C210 C209 1.516 . S
C210 C211 1.502 . S
C210 C212 1.561 . S
C210 C213 1.526 1_545 S
C211 H195 0.959 . S
C211 H196 0.959 . S
C211 H197 0.961 . S
C211 C210 1.502 . S
C212 H198 0.960 . S
C212 H199 0.961 . S
C212 H200 0.959 . S
C212 C210 1.561 . S
C213 C210 1.526 1_565 S
C213 C214 1.396 . S
C213 C218 1.390 . S
C214 C208 1.479 . S
C214 C213 1.396 . S
C214 C215 1.399 . S
C215 H201 0.929 . S
C215 C214 1.399 . S
C215 C216 1.385 . S
C216 H202 0.931 . S
C216 C215 1.385 . S
C216 C217 1.389 . S
C217 C216 1.389 . S
C217 C218 1.387 . S
C218 H203 0.930 . S
C218 C213 1.390 . S
C218 C217 1.387 . S
H219 C231 0.930 . S
H220 C233 0.930 . S
H221 C234 0.930 . S
H222 C238 0.959 . S
H223 C238 0.959 . S
H224 C238 0.961 . S
H225 C239 0.960 . S
H226 C239 0.961 . S
H227 C239 0.959 . S
H228 C242 0.929 . S
H229 C243 0.931 . S
H230 C245 0.930 . S
C231 H219 0.930 . S
C231 C232 1.399 . S
C231 C236 1.399 . S
C232 C231 1.399 . S
C232 C233 1.376 . S
C233 H220 0.930 . S
C233 C232 1.376 . S
C233 C234 1.388 . S
C234 H221 0.930 . S
C234 C233 1.388 . S
C234 C235 1.390 . S
C235 C234 1.390 . S
C235 C236 1.394 . S
C235 C241 1.465 . S
C236 C231 1.399 . S
C236 C235 1.394 . S
C236 C237 1.516 . S
C237 C236 1.516 . S
C237 C238 1.502 . S
C237 C239 1.561 . S
C237 C240 1.526 . S
C238 H222 0.959 . S
C238 H223 0.959 . S
C238 H224 0.961 . S
C238 C237 1.502 . S
C239 H225 0.960 . S
C239 H226 0.961 . S
C239 H227 0.959 . S
C239 C237 1.561 . S
C240 C237 1.526 . S
C240 C241 1.396 . S
C240 C245 1.390 . S
C241 C235 1.465 . S
C241 C240 1.396 . S
C241 C242 1.399 . S
C242 H228 0.929 . S
C242 C241 1.399 . S
C242 C243 1.385 . S
C243 H229 0.931 . S
C243 C242 1.385 . S
C243 C244 1.389 . S
C244 C243 1.389 . S
C244 C245 1.387 . S
C245 H230 0.930 . S
C245 C240 1.390 . S
C245 C244 1.387 . S
H246 C258 0.930 . S
H247 C260 0.930 . S
H248 C261 0.930 . S
H249 C265 0.959 . S
H250 C265 0.959 . S
H251 C265 0.961 . S
H252 C266 0.960 . S
H253 C266 0.961 . S
H254 C266 0.959 . S
H255 C269 0.929 . S
H256 C270 0.931 . S
H257 C272 0.930 . S
C258 H246 0.930 . S
C258 C259 1.399 . S
C258 C263 1.399 . S
C259 C258 1.399 . S
C259 C260 1.376 . S
C260 H247 0.930 . S
C260 C259 1.376 . S
C260 C261 1.388 . S
C261 H248 0.930 . S
C261 C260 1.388 . S
C261 C262 1.390 . S
C262 C261 1.390 . S
C262 C263 1.394 . S
C262 C268 1.465 . S
C263 C258 1.399 . S
C263 C262 1.394 . S
C263 C264 1.516 . S
C264 C263 1.516 . S
C264 C265 1.502 . S
C264 C266 1.561 . S
C264 C267 1.526 . S
C265 H249 0.959 . S
C265 H250 0.959 . S
C265 H251 0.961 . S
C265 C264 1.502 . S
C266 H252 0.960 . S
C266 H253 0.961 . S
C266 H254 0.959 . S
C266 C264 1.561 . S
C267 C264 1.526 . S
C267 C268 1.396 . S
C267 C272 1.390 . S
C268 C262 1.465 . S
C268 C267 1.396 . S
C268 C269 1.399 . S
C269 H255 0.929 . S
C269 C268 1.399 . S
C269 C270 1.385 . S
C270 H256 0.931 . S
C270 C269 1.385 . S
C270 C271 1.389 . S
C271 C270 1.389 . S
C271 C272 1.387 . S
C272 H257 0.930 . S
C272 C267 1.390 . S
C272 C271 1.387 . S
H273 C285 0.930 . S
H274 C287 0.930 . S
H275 C288 0.930 . S
H276 C292 0.959 . S
H277 C292 0.959 . S
H278 C292 0.961 . S
H279 C293 0.960 . S
H280 C293 0.961 . S
H281 C293 0.959 . S
H282 C296 0.929 . S
H283 C297 0.931 . S
H284 C299 0.930 . S
C285 H273 0.930 . S
C285 C286 1.399 . S
C285 C290 1.399 . S
C286 C285 1.399 . S
C286 C287 1.376 . S
C287 H274 0.930 . S
C287 C286 1.376 . S
C287 C288 1.388 . S
C288 H275 0.930 . S
C288 C287 1.388 . S
C288 C289 1.390 . S
C289 C288 1.390 . S
C289 C290 1.394 . S
C289 C295 1.465 . S
C290 C285 1.399 . S
C290 C289 1.394 . S
C290 C291 1.516 . S
C291 C290 1.516 . S
C291 C292 1.502 . S
C291 C293 1.561 . S
C291 C294 1.526 . S
C292 H276 0.959 . S
C292 H277 0.959 . S
C292 H278 0.961 . S
C292 C291 1.502 . S
C293 H279 0.960 . S
C293 H280 0.961 . S
C293 H281 0.959 . S
C293 C291 1.561 . S
C294 C291 1.526 . S
C294 C295 1.396 . S
C294 C299 1.390 . S
C295 C289 1.465 . S
C295 C294 1.396 . S
C295 C296 1.399 . S
C296 H282 0.929 . S
C296 C295 1.399 . S
C296 C297 1.385 . S
C297 H283 0.931 . S
C297 C296 1.385 . S
C297 C298 1.389 . S
C298 C297 1.389 . S
C298 C299 1.387 . S
C299 H284 0.930 . S
C299 C294 1.390 . S
C299 C298 1.387 . S
H300 C312 0.930 . S
H301 C314 0.930 . S
H302 C315 0.930 . S
H303 C319 0.959 . S
H304 C319 0.959 . S
H305 C319 0.961 . S
H306 C320 0.960 . S
H307 C320 0.961 . S
H308 C320 0.959 . S
H309 C323 0.929 . S
H310 C324 0.931 . S
H311 C326 0.930 . S
C312 H300 0.930 . S
C312 C313 1.399 . S
C312 C317 1.399 . S
C313 C312 1.399 . S
C313 C314 1.376 . S
C314 H301 0.930 . S
C314 C313 1.376 . S
C314 C315 1.388 . S
C315 H302 0.930 . S
C315 C314 1.388 . S
C315 C316 1.390 . S
C316 C315 1.390 . S
C316 C317 1.394 . S
C316 C322 1.465 . S
C317 C312 1.399 . S
C317 C316 1.394 . S
C317 C318 1.516 . S
C318 C317 1.516 . S
C318 C319 1.502 . S
C318 C320 1.561 . S
C318 C321 1.526 . S
C319 H303 0.959 . S
C319 H304 0.959 . S
C319 H305 0.961 . S
C319 C318 1.502 . S
C320 H306 0.960 . S
C320 H307 0.961 . S
C320 H308 0.959 . S
C320 C318 1.561 . S
C321 C318 1.526 . S
C321 C322 1.396 . S
C321 C326 1.390 . S
C322 C316 1.465 . S
C322 C321 1.396 . S
C322 C323 1.399 . S
C323 H309 0.929 . S
C323 C322 1.399 . S
C323 C324 1.385 . S
C324 H310 0.931 . S
C324 C323 1.385 . S
C324 C325 1.389 . S
C325 C324 1.389 . S
C325 C326 1.387 . S
C326 H311 0.930 . S
C326 C321 1.390 . S
C326 C325 1.387 . S
H327 C339 0.930 . S
H328 C341 0.930 . S
H329 C342 0.930 . S
H330 C346 0.959 . S
H331 C346 0.959 . S
H332 C346 0.961 . S
H333 C347 0.960 . S
H334 C347 0.961 . S
H335 C347 0.959 . S
H336 C350 0.929 . S
H337 C351 0.931 . S
H338 C353 0.930 . S
C339 H327 0.930 . S
C339 C340 1.399 . S
C339 C344 1.399 . S
C340 C339 1.399 . S
C340 C341 1.376 . S
C341 H328 0.930 . S
C341 C340 1.376 . S
C341 C342 1.388 . S
C342 H329 0.930 . S
C342 C341 1.388 . S
C342 C343 1.390 . S
C343 C342 1.390 . S
C343 C344 1.394 . S
C343 C349 1.465 . S
C344 C339 1.399 . S
C344 C343 1.394 . S
C344 C345 1.516 . S
C345 C344 1.516 . S
C345 C346 1.502 . S
C345 C347 1.561 . S
C345 C348 1.526 . S
C346 H330 0.959 . S
C346 H331 0.959 . S
C346 H332 0.961 . S
C346 C345 1.502 . S
C347 H333 0.960 . S
C347 H334 0.961 . S
C347 H335 0.959 . S
C347 C345 1.561 . S
C348 C345 1.526 . S
C348 C349 1.396 . S
C348 C353 1.390 . S
C349 C343 1.465 . S
C349 C348 1.396 . S
C349 C350 1.399 . S
C350 H336 0.929 . S
C350 C349 1.399 . S
C350 C351 1.385 . S
C351 H337 0.931 . S
C351 C350 1.385 . S
C351 C352 1.389 . S
C352 C351 1.389 . S
C352 C353 1.387 . S
C353 H338 0.930 . S
C353 C348 1.390 . S
C353 C352 1.387 . S
H354 C366 0.930 . S
H355 C368 0.930 . S
H356 C369 0.930 . S
H357 C373 0.959 . S
H358 C373 0.959 . S
H359 C373 0.961 . S
H360 C374 0.960 . S
H361 C374 0.961 . S
H362 C374 0.959 1_556 S
H363 C377 0.929 . S
H364 C378 0.931 . S
H365 C380 0.930 1_554 S
C366 H354 0.930 . S
C366 C367 1.399 . S
C366 C371 1.399 . S
C367 C366 1.399 . S
C367 C368 1.376 . S
C368 H355 0.930 . S
C368 C367 1.376 . S
C368 C369 1.388 . S
C369 H356 0.930 . S
C369 C368 1.388 . S
C369 C370 1.390 . S
C370 C369 1.390 . S
C370 C371 1.394 . S
C370 C376 1.465 . S
C371 C366 1.399 . S
C371 C370 1.394 . S
C371 C372 1.516 . S
C372 C371 1.516 . S
C372 C373 1.502 1_556 S
C372 C374 1.561 1_556 S
C372 C375 1.526 . S
C373 H357 0.959 . S
C373 H358 0.959 . S
C373 H359 0.961 . S
C373 C372 1.502 1_554 S
C374 H360 0.960 . S
C374 H361 0.961 . S
C374 H362 0.959 1_554 S
C374 C372 1.561 1_554 S
C375 C372 1.526 . S
C375 C376 1.396 . S
C375 C380 1.390 . S
C376 C370 1.465 . S
C376 C375 1.396 . S
C376 C377 1.399 . S
C377 H363 0.929 . S
C377 C376 1.399 . S
C377 C378 1.385 . S
C378 H364 0.931 . S
C378 C377 1.385 . S
C378 C379 1.389 . S
C379 C378 1.389 . S
C379 C380 1.387 . S
C380 H365 0.930 1_556 S
C380 C375 1.390 . S
C380 C379 1.387 . S
H381 C393 0.930 . S
H382 C395 0.930 . S
H383 C396 0.930 . S
H384 C400 0.959 . S
H385 C400 0.959 . S
H386 C400 0.961 . S
H387 C401 0.960 . S
H388 C401 0.961 . S
H389 C401 0.959 . S
H390 C404 0.929 1_556 S
H391 C405 0.931 . S
H392 C407 0.930 . S
C393 H381 0.930 . S
C393 C394 1.399 . S
C393 C398 1.399 . S
C394 C393 1.399 . S
C394 C395 1.376 1_554 S
C395 H382 0.930 . S
C395 C394 1.376 1_556 S
C395 C396 1.388 . S
C396 H383 0.930 . S
C396 C395 1.388 . S
C396 C397 1.390 1_556 S
C397 C396 1.390 1_554 S
C397 C398 1.394 . S
C397 C403 1.465 . S
C398 C393 1.399 . S
C398 C397 1.394 . S
C398 C399 1.516 . S
C399 C398 1.516 . S
C399 C400 1.502 . S
C399 C401 1.561 . S
C399 C402 1.526 . S
C400 H384 0.959 . S
C400 H385 0.959 . S
C400 H386 0.961 . S
C400 C399 1.502 . S
C401 H387 0.960 . S
C401 H388 0.961 . S
C401 H389 0.959 . S
C401 C399 1.561 . S
C402 C399 1.526 . S
C402 C403 1.396 . S
C402 C407 1.390 . S
C403 C397 1.465 . S
C403 C402 1.396 . S
C403 C404 1.399 . S
C404 H390 0.929 1_554 S
C404 C403 1.399 . S
C404 C405 1.385 . S
C405 H391 0.931 . S
C405 C404 1.385 . S
C405 C406 1.389 . S
C406 C405 1.389 . S
C406 C407 1.387 . S
C407 H392 0.930 . S
C407 C402 1.390 . S
C407 C406 1.387 . S
C97 C13 1.805 1_556 S
C109 C54 1.827 . S
C124 C68 1.820 . S
C136 C26 1.833 . S
C151 C28 1.795 . S
C163 C83 1.818 1_554 S
C178 C43 1.831 . S
C190 C0 1.826 . S
C205 C15 1.828 . S
C217 C57 1.804 . S
C232 C70 1.796 . S
C244 C41 1.806 . S
C259 C12 1.609 . S
C271 C40 1.591 . S
C286 C27 1.591 . S
C298 C55 1.620 . S
C313 C69 1.595 . S
C325 C29 1.629 . S
C340 C82 1.608 . S
C352 C42 1.632 . S
C367 C56 1.590 . S
C379 C1 1.625 1_556 S
C394 C71 1.591 1_554 S
C406 C14 1.619 . S
