# Generated by pormake.
# Topology lhb, (8)-cn, num edge types: 1
# Building blocks:
#     Node 0, Type 0, BuildingBlock: TAGTUT_clean_sbu_1, # of connection points: 8
#     Node 1, Type 0, BuildingBlock: TAGTUT_clean_sbu_1, # of connection points: 8
#     Node 2, Type 0, BuildingBlock: TAGTUT_clean_sbu_1, # of connection points: 8
#     Node 3, Type 0, BuildingBlock: TAGTUT_clean_sbu_1, # of connection points: 8
#     Node 4, Type 0, BuildingBlock: TAGTUT_clean_sbu_1, # of connection points: 8
#     Node 5, Type 0, BuildingBlock: TAGTUT_clean_sbu_1, # of connection points: 8
#     Node 6, Type 0, BuildingBlock: TAGTUT_clean_sbu_1, # of connection points: 8
#     Node 7, Type 0, BuildingBlock: TAGTUT_clean_sbu_1, # of connection points: 8
#     Edge 8, Type (0, 0), BuildingBlock: UVAHIK_clean_linker_0, # of connection points: 2
#     Edge 9, Type (0, 0), BuildingBlock: UVAHIK_clean_linker_0, # of connection points: 2
#     Edge 10, Type (0, 0), BuildingBlock: UVAHIK_clean_linker_0, # of connection points: 2
#     Edge 11, Type (0, 0), BuildingBlock: UVAHIK_clean_linker_0, # of connection points: 2
#     Edge 12, Type (0, 0), BuildingBlock: UVAHIK_clean_linker_0, # of connection points: 2
#     Edge 13, Type (0, 0), BuildingBlock: UVAHIK_clean_linker_0, # of connection points: 2
#     Edge 14, Type (0, 0), BuildingBlock: UVAHIK_clean_linker_0, # of connection points: 2
#     Edge 15, Type (0, 0), BuildingBlock: UVAHIK_clean_linker_0, # of connection points: 2
#     Edge 16, Type (0, 0), BuildingBlock: UVAHIK_clean_linker_0, # of connection points: 2
#     Edge 17, Type (0, 0), BuildingBlock: UVAHIK_clean_linker_0, # of connection points: 2
#     Edge 18, Type (0, 0), BuildingBlock: UVAHIK_clean_linker_0, # of connection points: 2
#     Edge 19, Type (0, 0), BuildingBlock: UVAHIK_clean_linker_0, # of connection points: 2
#     Edge 20, Type (0, 0), BuildingBlock: UVAHIK_clean_linker_0, # of connection points: 2
#     Edge 21, Type (0, 0), BuildingBlock: UVAHIK_clean_linker_0, # of connection points: 2
#     Edge 22, Type (0, 0), BuildingBlock: UVAHIK_clean_linker_0, # of connection points: 2
#     Edge 23, Type (0, 0), BuildingBlock: UVAHIK_clean_linker_0, # of connection points: 2
#     Edge 24, Type (0, 0), BuildingBlock: UVAHIK_clean_linker_0, # of connection points: 2
#     Edge 25, Type (0, 0), BuildingBlock: UVAHIK_clean_linker_0, # of connection points: 2
#     Edge 26, Type (0, 0), BuildingBlock: UVAHIK_clean_linker_0, # of connection points: 2
#     Edge 27, Type (0, 0), BuildingBlock: UVAHIK_clean_linker_0, # of connection points: 2
#     Edge 28, Type (0, 0), BuildingBlock: UVAHIK_clean_linker_0, # of connection points: 2
#     Edge 29, Type (0, 0), BuildingBlock: UVAHIK_clean_linker_0, # of connection points: 2
#     Edge 30, Type (0, 0), BuildingBlock: UVAHIK_clean_linker_0, # of connection points: 2
#     Edge 31, Type (0, 0), BuildingBlock: UVAHIK_clean_linker_0, # of connection points: 2
#     Edge 32, Type (0, 0), BuildingBlock: UVAHIK_clean_linker_0, # of connection points: 2
#     Edge 33, Type (0, 0), BuildingBlock: UVAHIK_clean_linker_0, # of connection points: 2
#     Edge 34, Type (0, 0), BuildingBlock: UVAHIK_clean_linker_0, # of connection points: 2
#     Edge 35, Type (0, 0), BuildingBlock: UVAHIK_clean_linker_0, # of connection points: 2
#     Edge 36, Type (0, 0), BuildingBlock: UVAHIK_clean_linker_0, # of connection points: 2
#     Edge 37, Type (0, 0), BuildingBlock: UVAHIK_clean_linker_0, # of connection points: 2
#     Edge 38, Type (0, 0), BuildingBlock: UVAHIK_clean_linker_0, # of connection points: 2
#     Edge 39, Type (0, 0), BuildingBlock: UVAHIK_clean_linker_0, # of connection points: 2
# Relax obj value: 0.070
# Max RMSD: 0.161
# Mean RMSD: 0.161
data_MOF--net-lhb--node1-TAGTUT_clean_sbu_1--edge1-UVAHIK_clean_linker_0
_symmetry_space_group_name_H-M    P1
_symmetry_Int_Tables_number       1
_symmetry_cell_setting            triclinic
loop_
_symmetry_equiv_pos_as_xyz
'x, y, z'
_cell_length_a     41.551302
_cell_length_b     18.778412
_cell_length_c     74.444551
_cell_angle_alpha  94.999742
_cell_angle_beta   90.262604
_cell_angle_gamma 90.04779
loop_
_atom_site_label
_atom_site_type_symbol
_atom_site_fract_x
_atom_site_fract_y
_atom_site_fract_z
_atom_type_partial_charge
C0 C 0.04597 0.03315 0.06853 0.0
C1 C 0.08037 0.06659 0.0153 0.0
C2 C 0.95543 0.13785 1.00446 0.0
Mg3 Mg 0.04637 0.94154 0.03151 0.0
O4 O 0.00747 -0.01143 0.02852 0.0
Mg5 Mg 0.00588 0.09452 0.03338 0.0
Mg6 Mg 0.98468 -0.01904 1.00466 0.0
O7 O 0.96162 0.9732 0.98098 0.0
Mg8 Mg 0.92136 0.01616 0.9791 0.0
Mg9 Mg 0.96341 0.86719 0.9749 0.0
C10 C 0.00391 0.81694 0.01097 0.0
C11 C 0.03586 0.93227 0.97308 0.0
O12 O 0.02977 0.08041 0.06092 0.0
O13 O 0.05428 0.97364 0.06003 0.0
O14 O 0.0572 0.10766 0.02108 0.0
O15 O 0.07974 -0.00085 0.01652 0.0
O16 O 0.02783 0.83617 0.02137 0.0
O17 O 0.98604 0.86224 1.00374 0.0
C18 C 0.93509 0.02156 0.03747 0.0
O19 O 0.93962 -0.01481 0.02227 0.0
O20 O 0.95585 0.06761 0.04411 0.0
O21 O 0.94343 0.89293 0.94633 0.0
O22 O 0.91709 -0.00171 0.9505 0.0
O23 O 0.91103 0.8472 0.98489 0.0
C24 C 0.92761 0.94503 0.94029 0.0
O25 O 0.88679 0.95214 0.99109 0.0
O26 O 0.93145 0.11683 0.99443 0.0
C27 C 0.88685 0.88434 0.99079 0.0
O28 O 0.98084 0.10003 1.00595 0.0
O29 O 0.03106 0.97392 0.98742 0.0
O30 O 0.01435 0.88915 0.96624 0.0
C31 C 0.34399 0.20066 0.19286 0.0
C32 C 0.38044 0.13897 0.2444 0.0
C33 C 0.26253 0.07739 0.26233 0.0
Mg34 Mg 0.34873 0.27259 0.23171 0.0
O35 O 0.30784 0.23184 0.23278 0.0
Mg36 Mg 0.30483 0.12604 0.22661 0.0
Mg37 Mg 0.28346 0.24062 0.25594 0.0
O38 O 0.25959 0.24911 0.27935 0.0
Mg39 Mg 0.22028 0.20334 0.28195 0.0
Mg40 Mg 0.26252 0.35471 0.28438 0.0
C41 C 0.31482 0.39626 0.2563 0.0
C42 C 0.33186 0.2771 0.28981 0.0
O43 O 0.32718 0.14971 0.19867 0.0
O44 O 0.35454 0.25377 0.2032 0.0
O45 O 0.35617 0.10299 0.23795 0.0
O46 O 0.38145 0.20671 0.24458 0.0
O47 O 0.33902 0.3741 0.24672 0.0
O48 O 0.28905 0.35933 0.25748 0.0
C49 C 0.23391 0.19744 0.22286 0.0
O50 O 0.23819 0.23733 0.23758 0.0
O51 O 0.25516 0.15299 0.21647 0.0
O52 O 0.23721 0.34218 0.31144 0.0
O53 O 0.21142 0.23679 0.31028 0.0
O54 O 0.21197 0.36988 0.27107 0.0
C55 C 0.22007 0.29607 0.31883 0.0
O56 O 0.18852 0.26212 0.26614 0.0
O57 O 0.23867 0.09704 0.27259 0.0
C58 C 0.18873 0.32955 0.26484 0.0
O59 O 0.28004 0.12233 0.2548 0.0
O60 O 0.32746 0.24134 0.27449 0.0
O61 O 0.31161 0.32467 0.2961 0.0
C62 C 0.84478 0.72374 0.1932 0.0
C63 C 0.87724 0.6259 0.24186 0.0
C64 C 0.75479 0.56845 0.25429 0.0
Mg65 Mg 0.8494 0.77041 0.23406 0.0
O66 O 0.80765 0.73369 0.23308 0.0
Mg67 Mg 0.80265 0.6322 0.22288 0.0
Mg68 Mg 0.78273 0.73114 0.25583 0.0
O69 O 0.75854 0.72891 0.27902 0.0
Mg70 Mg 0.71789 0.68764 0.28013 0.0
Mg71 Mg 0.76446 0.83148 0.288 0.0
C72 C 0.81742 0.8851 0.26183 0.0
C73 C 0.83153 0.74156 0.29022 0.0
O74 O 0.82732 0.66977 0.19668 0.0
O75 O 0.85552 0.76911 0.20565 0.0
O76 O 0.8527 0.5962 0.23385 0.0
O77 O 0.87975 0.69349 0.24449 0.0
O78 O 0.84144 0.86576 0.25181 0.0
O79 O 0.79141 0.84837 0.26202 0.0
C80 C 0.73372 0.71439 0.22149 0.0
O81 O 0.73793 0.74405 0.23756 0.0
O82 O 0.75441 0.67199 0.21363 0.0
O83 O 0.73859 0.80583 0.31382 0.0
O84 O 0.71002 0.70432 0.30925 0.0
O85 O 0.7146 0.86267 0.27577 0.0
C86 C 0.72037 0.7578 0.31962 0.0
O87 O 0.68801 0.76093 0.26756 0.0
O88 O 0.73168 0.58604 0.26531 0.0
C89 C 0.69019 0.82899 0.26851 0.0
O90 O 0.77568 0.61402 0.24983 0.0
O91 O 0.82618 0.71474 0.27402 0.0
O92 O 0.81259 0.7883 0.29819 0.0
C93 C 0.04392 0.56502 0.56919 0.0
C94 C 0.07192 0.61089 0.51541 0.0
C95 C 0.94455 0.63867 0.5031 0.0
Mg96 Mg 0.04913 0.47562 0.53211 0.0
O97 O 0.00713 0.50678 0.52929 0.0
Mg98 Mg 0.99758 0.61033 0.53438 0.0
Mg99 Mg 0.98446 0.49038 0.50547 0.0
O100 O 0.96172 0.47367 0.48178 0.0
Mg101 Mg 0.91921 0.50304 0.4792 0.0
Mg102 Mg 0.97084 0.36928 0.47628 0.0
C103 C 0.01752 0.33673 0.51157 0.0
C104 C 0.03706 0.46036 0.4735 0.0
O105 O 0.02399 0.60606 0.56185 0.0
O106 O 0.05588 0.50933 0.56049 0.0
O107 O 0.0466 0.6439 0.52156 0.0
O108 O 0.07626 0.54428 0.51675 0.0
O109 O 0.03973 0.36523 0.52195 0.0
O110 O 0.99561 0.37413 0.50467 0.0
C111 C 0.93387 0.50978 0.53856 0.0
O112 O 0.94064 0.47716 0.52317 0.0
O113 O 0.95096 0.56253 0.5455 0.0
O114 O 0.94812 0.38297 0.44764 0.0
O115 O 0.91504 0.47838 0.45073 0.0
O116 O 0.92082 0.33361 0.48738 0.0
C117 C 0.92875 0.42763 0.44103 0.0
O118 O 0.89047 0.43126 0.4925 0.0
O119 O 0.92309 0.61009 0.49231 0.0
C120 C 0.8949 0.36452 0.4932 0.0
O121 O 0.97063 0.60628 0.50699 0.0
O122 O 0.02988 0.50051 0.4878 0.0
O123 O 0.0189 0.4092 0.46702 0.0
C124 C 0.34819 0.70219 0.69488 0.0
C125 C 0.3769 0.60711 0.74448 0.0
C126 C 0.24893 0.55857 0.75148 0.0
Mg127 Mg 0.35055 0.75187 0.73577 0.0
O128 O 0.30879 0.71487 0.7341 0.0
Mg129 Mg 0.30346 0.61389 0.7239 0.0
Mg130 Mg 0.28315 0.7125 0.75655 0.0
O131 O 0.25814 0.71164 0.77953 0.0
Mg132 Mg 0.21655 0.67501 0.78014 0.0
Mg133 Mg 0.26506 0.81433 0.78861 0.0
C134 C 0.31538 0.87249 0.76022 0.0
C135 C 0.33115 0.72084 0.79124 0.0
O136 O 0.32973 0.64964 0.69812 0.0
O137 O 0.35883 0.74712 0.70744 0.0
O138 O 0.35284 0.57743 0.73589 0.0
O139 O 0.3793 0.67477 0.74737 0.0
O140 O 0.34016 0.85336 0.75076 0.0
O141 O 0.29218 0.82926 0.76247 0.0
C142 C 0.23533 0.69837 0.72165 0.0
O143 O 0.23913 0.72733 0.73783 0.0
O144 O 0.25601 0.65547 0.71394 0.0
O145 O 0.23831 0.78926 0.81427 0.0
O146 O 0.20844 0.68959 0.80925 0.0
O147 O 0.21586 0.85038 0.77643 0.0
C148 C 0.2193 0.74205 0.81981 0.0
O149 O 0.18756 0.75144 0.76826 0.0
O150 O 0.22591 0.57804 0.76237 0.0
C151 C 0.1909 0.81911 0.76921 0.0
O152 O 0.27461 0.59582 0.75014 0.0
O153 O 0.32588 0.69412 0.77503 0.0
O154 O 0.31252 0.76856 0.79905 0.0
C155 C 0.84535 0.20016 0.69252 0.0
C156 C 0.88373 0.13929 0.74369 0.0
C157 C 0.76653 0.0749 0.7625 0.0
Mg158 Mg 0.85085 0.27205 0.73135 0.0
O159 O 0.81013 0.23064 0.73272 0.0
Mg160 Mg 0.80761 0.12462 0.72662 0.0
Mg161 Mg 0.78654 0.23872 0.75615 0.0
O162 O 0.76349 0.24646 0.77981 0.0
Mg163 Mg 0.72457 0.19985 0.78267 0.0
Mg164 Mg 0.76615 0.35203 0.78506 0.0
C165 C 0.8174 0.3948 0.75646 0.0
C166 C 0.83583 0.274 0.78965 0.0
O167 O 0.82888 0.1489 0.69844 0.0
O168 O 0.85598 0.25338 0.70279 0.0
O169 O 0.85946 0.10286 0.73744 0.0
O170 O 0.88439 0.20705 0.7439 0.0
O171 O 0.84127 0.37315 0.74654 0.0
O172 O 0.79178 0.35759 0.75788 0.0
C173 C 0.73593 0.1932 0.72376 0.0
O174 O 0.74058 0.23402 0.7383 0.0
O175 O 0.75725 0.14939 0.71716 0.0
O176 O 0.74115 0.33909 0.81224 0.0
O177 O 0.71692 0.23179 0.81114 0.0
O178 O 0.71514 0.36711 0.77218 0.0
C179 C 0.72481 0.2917 0.81965 0.0
O180 O 0.692 0.25891 0.76738 0.0
O181 O 0.74283 0.09406 0.77291 0.0
C182 C 0.69188 0.32637 0.76613 0.0
O183 O 0.78386 0.12026 0.75501 0.0
O184 O 0.83098 0.24005 0.77415 0.0
O185 O 0.81577 0.32108 0.79646 0.0
C186 C 0.54957 0.00753 0.57023 0.0
C187 C 0.58516 0.06119 0.51888 0.0
C188 C 0.46593 0.14437 0.50564 0.0
Mg189 Mg 0.55028 0.92958 0.53165 0.0
O190 O 0.51126 0.97688 0.52968 0.0
Mg191 Mg 0.51045 0.08274 0.53666 0.0
Mg192 Mg 0.48665 0.97672 0.50638 0.0
O193 O 0.46141 -0.02079 0.4837 0.0
Mg194 Mg 0.42195 0.02724 0.48512 0.0
Mg195 Mg 0.46063 0.87574 0.47544 0.0
C196 C 0.51261 0.81744 0.50364 0.0
C197 C 0.53352 0.93664 0.47216 0.0
O198 O 0.53421 0.05815 0.56344 0.0
O199 O 0.5574 0.94955 0.56079 0.0
O200 O 0.56168 0.10055 0.52487 0.0
O201 O 0.5847 -0.0065 0.51926 0.0
O202 O 0.53647 0.83408 0.51433 0.0
O203 O 0.4877 0.85725 0.50245 0.0
C204 C 0.43925 0.01156 0.54054 0.0
O205 O 0.44287 0.97787 0.52493 0.0
O206 O 0.46057 0.05568 0.54733 0.0
O207 O 0.43669 0.91139 0.44877 0.0
O208 O 0.4123 0.01619 0.45689 0.0
O209 O 0.40945 0.85805 0.4876 0.0
C210 C 0.42048 0.96662 0.44489 0.0
O211 O 0.38872 0.96308 0.49819 0.0
O212 O 0.43942 0.12927 0.49722 0.0
C213 C 0.38713 0.89513 0.49578 0.0
O214 O 0.48576 0.0958 0.50948 0.0
O215 O 0.53135 0.97146 0.48776 0.0
O216 O 0.51039 0.89877 0.46501 0.0
C217 C 0.54415 0.55622 0.0696 0.0
C218 C 0.57453 0.58996 0.01531 0.0
C219 C 0.44864 0.62581 1.00136 0.0
Mg220 Mg 0.54909 0.46026 0.03348 0.0
O221 O 0.50778 0.49415 0.02981 0.0
Mg222 Mg 0.49973 0.5985 0.03375 0.0
Mg223 Mg 0.48586 0.47565 1.00581 0.0
O224 O 0.46402 0.45653 0.98192 0.0
Mg225 Mg 0.4221 0.48859 0.97864 0.0
Mg226 Mg 0.47123 0.35074 0.97784 0.0
C227 C 0.51485 0.32129 0.01457 0.0
C228 C 0.53989 0.43305 0.9753 0.0
O229 O 0.52506 0.59709 0.06161 0.0
O230 O 0.55555 0.49854 0.06159 0.0
O231 O 0.54958 0.62575 0.02092 0.0
O232 O 0.57782 0.52364 0.01748 0.0
O233 O 0.53732 0.34942 0.02484 0.0
O234 O 0.49445 0.35914 1.00662 0.0
C235 C 0.43437 0.5032 0.0382 0.0
O236 O 0.44097 0.46889 0.023 0.0
O237 O 0.45219 0.55493 0.04499 0.0
O238 O 0.45036 0.36156 0.94853 0.0
O239 O 0.4186 0.45937 0.9504 0.0
O240 O 0.41996 0.3217 0.98831 0.0
C241 C 0.43186 0.4064 0.94131 0.0
O242 O 0.39116 0.422 0.99229 0.0
O243 O 0.42719 0.59704 0.9906 0.0
C244 C 0.39428 0.35518 0.99348 0.0
O245 O 0.47399 0.59234 1.00595 0.0
O246 O 0.53251 0.47829 0.98862 0.0
O247 O 0.52087 0.38267 0.96931 0.0
C248 C 0.07866 0.00642 0.0957 0.0
C249 C 0.05654 0.05024 0.08751 0.0
C250 C 0.09076 0.02663 0.11298 0.0
C251 C 0.1055 0.18844 0.14345 0.0
H252 H 0.12796 0.05208 0.17765 0.0
C253 C 0.20731 0.23253 0.19533 0.0
C254 C 0.2047 0.20393 0.21202 0.0
C255 C 0.18257 0.223 0.18261 0.0
C256 C 0.12132 0.09116 0.16842 0.0
H257 H 0.02856 0.14796 0.09155 0.0
H258 H 0.0494 0.18252 0.12163 0.0
H259 H 0.09684 0.01267 0.15071 0.0
H260 H 0.17423 0.14502 0.22896 0.0
H261 H 0.13045 0.12835 0.20666 0.0
H262 H 0.1305 0.26658 0.16097 0.0
C263 C 0.05788 0.13326 0.11457 0.0
C264 C 0.10387 0.06832 0.15285 0.0
C265 C 0.04584 0.11318 0.09732 0.0
C266 C 0.17636 0.16858 0.21624 0.0
C267 C 0.15158 0.15843 0.20343 0.0
C268 C 0.12299 0.21119 0.15898 0.0
C269 C 0.08096 0.09102 0.12248 0.0
C270 C 0.09638 0.11636 0.13998 0.0
C271 C 0.15491 0.18362 0.18626 0.0
C272 C 0.13179 0.16248 0.17143 0.0
H273 H 0.08744 0.95762 0.08856 0.0
H274 H 0.10876 -0.00685 0.11859 0.0
H275 H 0.10038 0.22684 0.13378 0.0
H276 H 0.22933 0.25866 0.19171 0.0
H277 H 0.18616 0.24226 0.16947 0.0
C278 C 0.89195 0.9352 0.04475 0.0
C279 C 0.90898 -0.00082 0.04931 0.0
C280 C 0.87445 0.90271 0.05784 0.0
C281 C 0.84654 0.92817 0.10574 0.0
H282 H 0.87089 0.72903 0.10676 0.0
C283 C 0.86832 0.80067 0.17092 0.0
C284 C 0.84977 0.74048 0.17427 0.0
C285 C 0.86897 0.82551 0.15386 0.0
C286 C 0.86336 0.78414 0.10648 0.0
H287 H 0.91795 0.08294 0.07069 0.0
H288 H 0.88797 0.02647 0.09339 0.0
H289 H 0.88055 0.79025 0.07961 0.0
H290 H 0.81899 0.65659 0.16179 0.0
H291 H 0.82117 0.69943 0.13149 0.0
H292 H 0.83161 0.9231 0.1331 0.0
C293 C 0.88795 0.00101 0.07977 0.0
C294 C 0.86873 0.81933 0.09092 0.0
C295 C 0.90535 0.03349 0.06671 0.0
C296 C 0.8335 0.70305 0.1597 0.0
C297 C 0.83458 0.72764 0.14241 0.0
C298 C 0.84157 0.89328 0.1213 0.0
C299 C 0.87354 0.93358 0.07573 0.0
C300 C 0.86149 0.89259 0.09061 0.0
C301 C 0.85154 0.7904 0.13956 0.0
C302 C 0.85095 0.82175 0.12201 0.0
H303 H 0.89403 0.90729 0.03146 0.0
H304 H 0.86304 0.8516 0.05415 0.0
H305 H 0.84 -0.01598 0.10586 0.0
H306 H 0.88148 0.83066 0.18167 0.0
H307 H 0.88274 0.87323 0.15188 0.0
C308 C 0.06512 0.50737 0.4479 0.0
C309 C 0.06677 0.47169 0.46363 0.0
C310 C 0.08932 0.49802 0.43493 0.0
C311 C 0.14497 0.35699 0.41829 0.0
H312 H 0.16906 0.49398 0.38468 0.0
C313 C 0.18561 0.27272 0.34543 0.0
C314 C 0.20906 0.31419 0.33763 0.0
C315 C 0.17349 0.29376 0.36259 0.0
C316 C 0.16299 0.45511 0.39405 0.0
H317 H 0.09533 0.40153 0.47881 0.0
H318 H 0.13827 0.38638 0.45637 0.0
H319 H 0.14106 0.5348 0.41238 0.0
H320 H 0.23918 0.40872 0.34219 0.0
H321 H 0.21839 0.44456 0.37209 0.0
H322 H 0.1666 0.2772 0.39989 0.0
C323 C 0.11825 0.42117 0.45392 0.0
C324 C 0.14669 0.47852 0.40987 0.0
C325 C 0.09399 0.43061 0.46688 0.0
C326 C 0.22088 0.37577 0.34767 0.0
C327 C 0.20885 0.39663 0.36481 0.0
C328 C 0.16127 0.3336 0.40247 0.0
C329 C 0.11543 0.45212 0.43742 0.0
C330 C 0.1369 0.42955 0.42201 0.0
C331 C 0.18463 0.3566 0.37238 0.0
C332 C 0.16991 0.38214 0.38998 0.0
H333 H 0.04387 0.5378 0.44497 0.0
H334 H 0.08614 0.52213 0.42235 0.0
H335 H 0.13746 0.31755 0.42719 0.0
H336 H 0.17591 0.22511 0.33809 0.0
H337 H 0.15459 0.26203 0.36792 0.0
C338 C 0.86442 0.73795 0.31849 0.0
C339 C 0.85642 0.70795 0.30108 0.0
C340 C 0.8815 0.69812 0.33039 0.0
C341 C 0.92602 0.6036 0.35148 0.0
H342 H 0.87926 0.42812 0.3573 0.0
C343 C 0.95219 0.42994 0.41031 0.0
C344 C 0.92492 0.42789 0.42134 0.0
C345 C 0.94928 0.45046 0.39271 0.0
C346 C 0.89291 0.47628 0.35564 0.0
H347 H 0.8624 0.61434 0.28209 0.0
H348 H 0.89183 0.54495 0.30295 0.0
H349 H 0.86738 0.49638 0.33154 0.0
H350 H 0.87319 0.44062 0.42241 0.0
H351 H 0.86788 0.47297 0.39144 0.0
H352 H 0.95074 0.58457 0.37596 0.0
C353 C 0.88481 0.59921 0.30736 0.0
C354 C 0.88624 0.5152 0.34088 0.0
C355 C 0.86813 0.63934 0.29538 0.0
C356 C 0.89449 0.44108 0.41408 0.0
C357 C 0.8915 0.45968 0.39639 0.0
C358 C 0.93312 0.5639 0.36607 0.0
C359 C 0.8906 0.62725 0.32518 0.0
C360 C 0.90202 0.58038 0.33896 0.0
C361 C 0.91896 0.46733 0.38579 0.0
C362 C 0.91591 0.50106 0.36857 0.0
H363 H 0.85587 0.79064 0.3233 0.0
H364 H 0.88556 0.72103 0.34408 0.0
H365 H 0.93852 0.65361 0.3503 0.0
H366 H 0.97597 0.42126 0.41573 0.0
H367 H 0.97079 0.45603 0.38479 0.0
C368 C 0.04551 0.65055 0.5971 0.0
C369 C 0.05443 0.58455 0.58808 0.0
C370 C 0.0574 0.67147 0.61437 0.0
C371 C 0.09761 0.60434 0.6542 0.0
H372 H 0.13559 0.79368 0.66028 0.0
C373 C 0.17603 0.69149 0.71626 0.0
C374 C 0.20662 0.71345 0.71105 0.0
C375 C 0.15039 0.68851 0.70389 0.0
C376 C 0.12476 0.74099 0.65889 0.0
H377 H 0.08194 0.48769 0.59056 0.0
H378 H 0.10269 0.52427 0.62061 0.0
H379 H 0.1039 0.75825 0.6333 0.0
H380 H 0.23433 0.75314 0.68951 0.0
H381 H 0.18974 0.74969 0.66812 0.0
H382 H 0.11989 0.58588 0.67937 0.0
C383 C 0.08633 0.5597 0.61435 0.0
C384 C 0.10645 0.72077 0.64347 0.0
C385 C 0.07462 0.53895 0.59704 0.0
C386 C 0.21077 0.73696 0.69385 0.0
C387 C 0.18519 0.73502 0.68163 0.0
C388 C 0.11576 0.62473 0.66968 0.0
C389 C 0.07829 0.62669 0.62311 0.0
C390 C 0.09353 0.65142 0.64068 0.0
C391 C 0.15503 0.70819 0.68625 0.0
C392 C 0.13041 0.69247 0.6719 0.0
H393 H 0.02992 0.68703 0.59067 0.0
H394 H 0.05052 0.72312 0.62082 0.0
H395 H 0.0876 0.55088 0.65255 0.0
H396 H 0.17257 0.67181 0.72937 0.0
H397 H 0.12737 0.66786 0.70784 0.0
C398 C 0.82265 0.19972 0.66145 0.0
C399 C 0.84956 0.20357 0.67299 0.0
C400 C 0.82517 0.22109 0.64394 0.0
C401 C 0.88071 0.25374 0.60767 0.0
H402 H 0.83032 0.42294 0.60041 0.0
C403 C 0.90138 0.50975 0.56696 0.0
C404 C 0.90994 0.47654 0.55 0.0
C405 C 0.88552 0.47102 0.57953 0.0
C406 C 0.84419 0.3752 0.60215 0.0
H407 H 0.90037 0.22844 0.67515 0.0
H408 H 0.90517 0.26218 0.64427 0.0
H409 H 0.82016 0.35627 0.62675 0.0
H410 H 0.90625 0.37796 0.53253 0.0
H411 H 0.87868 0.31108 0.55438 0.0
H412 H 0.90542 0.27349 0.58344 0.0
C413 C 0.88211 0.24367 0.64879 0.0
C414 C 0.83827 0.33689 0.61712 0.0
C415 C 0.87941 0.22426 0.6664 0.0
C416 C 0.89992 0.40561 0.54538 0.0
C417 C 0.88436 0.36686 0.55797 0.0
C418 C 0.8862 0.29111 0.59255 0.0
C419 C 0.85481 0.24465 0.63762 0.0
C420 C 0.8571 0.277 0.62024 0.0
C421 C 0.87821 0.3983 0.5754 0.0
C422 C 0.86859 0.3533 0.58989 0.0
H423 H 0.79926 0.1852 0.66638 0.0
H424 H 0.80382 0.22154 0.63555 0.0
H425 H 0.89561 0.20793 0.60986 0.0
H426 H 0.90868 0.56425 0.57096 0.0
H427 H 0.88113 0.49653 0.59291 0.0
C428 C 0.1804 0.71954 0.84455 0.0
C429 C 0.20843 0.7526 0.8388 0.0
C430 C 0.168 0.73828 0.86179 0.0
C431 C 0.15314 0.76931 0.9019 0.0
H432 H 0.15169 0.97321 0.91595 0.0
C433 C 0.08906 0.87775 0.9665 0.0
C434 C 0.06679 0.93179 0.96373 0.0
C435 C 0.11316 0.8605 0.95381 0.0
C436 C 0.15204 0.91613 0.91227 0.0
H437 H 0.24665 0.82747 0.84716 0.0
H438 H 0.22532 0.85904 0.87712 0.0
H439 H 0.17947 0.92832 0.88851 0.0
H440 H 0.05273 0.01252 0.94627 0.0
H441 H 0.09494 -0.01668 0.92413 0.0
H442 H 0.12446 0.75746 0.92523 0.0
C443 C 0.21243 0.82012 0.8682 0.0
C444 C 0.16818 0.89024 0.89662 0.0
C445 C 0.22472 0.80165 0.85102 0.0
C446 C 0.07022 0.97181 0.94884 0.0
C447 C 0.09432 0.95472 0.93615 0.0
C448 C 0.13706 0.7952 0.91759 0.0
C449 C 0.18347 0.7902 0.87364 0.0
C450 C 0.16848 0.81661 0.89107 0.0
C451 C 0.11514 0.89674 0.93808 0.0
C452 C 0.13584 0.86904 0.92279 0.0
H453 H 0.16724 0.68171 0.83547 0.0
H454 H 0.14552 0.71447 0.86552 0.0
H455 H 0.15318 0.7123 0.89811 0.0
H456 H 0.08636 0.84544 0.97777 0.0
H457 H 0.12911 0.81629 0.95582 0.0
C458 C 0.86538 0.27603 0.81926 0.0
C459 C 0.86101 0.24611 0.80142 0.0
C460 C 0.88185 0.23806 0.83183 0.0
C461 C 0.92589 0.14653 0.85453 0.0
H462 H 0.88325 0.96323 0.85634 0.0
C463 C 0.95201 0.95686 0.91027 0.0
C464 C 0.92436 0.95005 0.92076 0.0
C465 C 0.94958 -0.01712 0.89323 0.0
C466 C 0.89573 0.01369 0.85582 0.0
H467 H 0.8733 0.15551 0.78252 0.0
H468 H 0.90166 0.08987 0.80442 0.0
H469 H 0.87267 0.03514 0.83108 0.0
H470 H 0.87255 0.96098 0.92151 0.0
H471 H 0.86807 0.00253 0.89133 0.0
H472 H 0.94836 0.12547 0.87954 0.0
C473 C 0.89219 0.14236 0.80867 0.0
C474 C 0.8898 0.05474 0.84137 0.0
C475 C 0.87611 0.18052 0.79609 0.0
C476 C 0.8941 0.9646 0.91349 0.0
C477 C 0.89159 -0.01135 0.89631 0.0
C478 C 0.93237 0.10468 0.8688 0.0
C479 C 0.89398 0.16934 0.82682 0.0
C480 C 0.9042 0.12233 0.84081 0.0
C481 C 0.91938 0.00064 0.88633 0.0
C482 C 0.9167 0.03873 0.86978 0.0
H483 H 0.85417 0.32637 0.82384 0.0
H484 H 0.8829 0.26009 0.84576 0.0
H485 H 0.93724 0.19844 0.85442 0.0
H486 H 0.97565 0.94751 0.9158 0.0
H487 H 0.97131 -0.00817 0.88577 0.0
C488 C 0.70477 0.22996 0.69783 0.0
C489 C 0.70556 0.19537 0.71375 0.0
C490 C 0.6803 0.21481 0.68514 0.0
C491 C 0.62942 0.06382 0.66907 0.0
H492 H 0.59545 0.19789 0.6371 0.0
C493 C 0.54579 0.07558 0.60053 0.0
C494 C 0.55984 0.01986 0.58936 0.0
C495 C 0.558 0.09474 0.61777 0.0
C496 C 0.60429 0.15966 0.64603 0.0
H497 H 0.68117 0.12034 0.72945 0.0
H498 H 0.63785 0.09427 0.70735 0.0
H499 H 0.62459 0.2424 0.66425 0.0
H500 H 0.59674 0.93809 0.58799 0.0
H501 H 0.61842 0.97215 0.61811 0.0
H502 H 0.60953 -0.01901 0.65067 0.0
C503 C 0.6561 0.13305 0.70462 0.0
C504 C 0.62123 0.18526 0.66152 0.0
C505 C 0.68056 0.14859 0.71736 0.0
C506 C 0.58534 -0.01883 0.59624 0.0
C507 C 0.5977 0.00064 0.61353 0.0
C508 C 0.61252 0.03816 0.65353 0.0
C509 C 0.65642 0.16393 0.68806 0.0
C510 C 0.63453 0.13763 0.67305 0.0
C511 C 0.58469 0.05894 0.6243 0.0
C512 C 0.60022 0.08573 0.64166 0.0
H513 H 0.72433 0.26485 0.69463 0.0
H514 H 0.68152 0.23897 0.67247 0.0
H515 H 0.63968 0.02557 0.67755 0.0
H516 H 0.52578 0.1059 0.59578 0.0
H517 H 0.54693 0.13878 0.62584 0.0
C518 C 0.39635 0.92451 0.54776 0.0
C519 C 0.41355 -0.01193 0.55249 0.0
C520 C 0.37903 0.89117 0.56077 0.0
C521 C 0.35246 0.91298 0.60897 0.0
H522 H 0.37528 0.71236 0.60839 0.0
C523 C 0.37436 0.77631 0.67284 0.0
C524 C 0.35416 0.71853 0.67601 0.0
C525 C 0.37549 0.80239 0.65592 0.0
C526 C 0.36821 0.76793 0.60856 0.0
H527 H 0.42324 0.07 0.57421 0.0
H528 H 0.39375 0.01185 0.59681 0.0
H529 H 0.38482 0.77632 0.58167 0.0
H530 H 0.32105 0.63971 0.66335 0.0
H531 H 0.32407 0.68461 0.63332 0.0
H532 H 0.33815 0.90543 0.63635 0.0
C533 C 0.39331 -0.01248 0.58309 0.0
C534 C 0.37349 0.80469 0.59325 0.0
C535 C 0.41046 0.02095 0.57008 0.0
C536 C 0.33687 0.68422 0.66139 0.0
C537 C 0.3384 0.71002 0.64426 0.0
C538 C 0.34762 0.8765 0.62429 0.0
C539 C 0.37861 0.92057 0.5788 0.0
C540 C 0.36675 0.8784 0.5935 0.0
C541 C 0.35691 0.77085 0.64163 0.0
C542 C 0.35641 0.80438 0.62439 0.0
H543 H 0.39819 0.89747 0.53437 0.0
H544 H 0.36739 0.84049 0.55689 0.0
H545 H 0.3463 0.96915 0.60953 0.0
H546 H 0.38832 0.80377 0.68365 0.0
H547 H 0.3904 0.84858 0.65409 0.0
C548 C 0.58911 0.37082 0.9646 0.0
C549 C 0.57147 0.43464 0.96656 0.0
C550 C 0.61315 0.36126 0.95165 0.0
C551 C 0.66369 0.44052 0.9184 0.0
H552 H 0.63778 0.27269 0.88762 0.0
C553 C 0.71103 0.3804 0.84554 0.0
C554 C 0.71344 0.30881 0.83836 0.0
C555 C 0.69813 0.39742 0.86268 0.0
C556 C 0.646 0.31877 0.89617 0.0
H557 H 0.56683 0.54108 0.95785 0.0
H558 H 0.60938 0.52445 0.93496 0.0
H559 H 0.61002 0.30261 0.9158 0.0
H560 H 0.70576 0.19879 0.84393 0.0
H561 H 0.68457 0.22802 0.87411 0.0
H562 H 0.70001 0.45622 0.89879 0.0
C563 C 0.60461 0.48201 0.94355 0.0
C564 C 0.62988 0.33616 0.91232 0.0
C565 C 0.58041 0.49168 0.95664 0.0
C566 C 0.70383 0.25448 0.84898 0.0
C567 C 0.69147 0.27143 0.86627 0.0
C568 C 0.68028 0.42244 0.90227 0.0
C569 C 0.61986 0.41522 0.94031 0.0
C570 C 0.63846 0.39717 0.92359 0.0
C571 C 0.68776 0.34323 0.87322 0.0
C572 C 0.67151 0.3614 0.89088 0.0
H573 H 0.58256 0.32615 0.97213 0.0
H574 H 0.6249 0.30971 0.94962 0.0
H575 H 0.67073 0.48785 0.92687 0.0
H576 H 0.71808 0.42364 0.83766 0.0
H577 H 0.6953 0.45326 0.86737 0.0
C578 C 0.45555 0.4101 0.91074 0.0
C579 C 0.42828 0.40393 0.92158 0.0
C580 C 0.45225 0.43064 0.89317 0.0
C581 C 0.43396 0.54274 0.86677 0.0
H582 H 0.36874 0.47278 0.8322 0.0
C583 C 0.36374 0.71636 0.81963 0.0
C584 C 0.35566 0.6865 0.80222 0.0
C585 C 0.38096 0.67646 0.83148 0.0
C586 C 0.38744 0.49238 0.84155 0.0
H587 H 0.3763 0.40931 0.92233 0.0
H588 H 0.37037 0.44168 0.89141 0.0
H589 H 0.38208 0.4035 0.85754 0.0
H590 H 0.36128 0.59274 0.78326 0.0
H591 H 0.39115 0.52351 0.80393 0.0
H592 H 0.43786 0.63389 0.85139 0.0
C593 C 0.39428 0.43144 0.89646 0.0
C594 C 0.39494 0.45284 0.85608 0.0
C595 C 0.39762 0.4127 0.91412 0.0
C596 C 0.36718 0.61776 0.79651 0.0
C597 C 0.38408 0.57767 0.80841 0.0
C598 C 0.42606 0.58294 0.85239 0.0
C599 C 0.42158 0.44362 0.88608 0.0
C600 C 0.41777 0.47837 0.86904 0.0
C601 C 0.39014 0.60567 0.82621 0.0
C602 C 0.40222 0.55888 0.83985 0.0
H603 H 0.47947 0.40502 0.91635 0.0
H604 H 0.47366 0.43963 0.88543 0.0
H605 H 0.45141 0.56408 0.87668 0.0
H606 H 0.35529 0.7691 0.82447 0.0
H607 H 0.38517 0.69938 0.84515 0.0
C608 C 0.54473 0.64456 0.097 0.0
C609 C 0.55435 0.57823 0.08843 0.0
C610 C 0.5563 0.66778 0.11421 0.0
C611 C 0.59741 0.60657 0.15456 0.0
H612 H 0.63172 0.79939 0.16 0.0
C613 C 0.67458 0.70198 0.21631 0.0
C614 C 0.7045 0.72795 0.21116 0.0
C615 C 0.64888 0.69657 0.20399 0.0
C616 C 0.62196 0.74567 0.15878 0.0
H617 H 0.58283 0.48331 0.09163 0.0
H618 H 0.6031 0.52399 0.12151 0.0
H619 H 0.60085 0.75942 0.13304 0.0
H620 H 0.7309 0.77209 0.18976 0.0
H621 H 0.68624 0.76407 0.1684 0.0
H622 H 0.62004 0.5916 0.17983 0.0
C623 C 0.58639 0.55784 0.11499 0.0
C624 C 0.60408 0.72285 0.14338 0.0
C625 C 0.57494 0.53471 0.09777 0.0
C626 C 0.70781 0.75297 0.19407 0.0
C627 C 0.68218 0.74836 0.18187 0.0
C628 C 0.6152 0.62948 0.16999 0.0
C629 C 0.57762 0.62512 0.12331 0.0
C630 C 0.59245 0.65231 0.14082 0.0
C631 C 0.65282 0.71742 0.1864 0.0
C632 C 0.62856 0.69857 0.172 0.0
H633 H 0.52879 0.67944 0.09029 0.0
H634 H 0.5488 0.71954 0.12031 0.0
H635 H 0.58837 0.55225 0.15313 0.0
H636 H 0.67182 0.68093 0.22931 0.0
H637 H 0.62649 0.67289 0.2079 0.0
C638 C 0.37834 0.22513 0.16687 0.0
C639 C 0.34845 0.20415 0.17336 0.0
C640 C 0.3812 0.24454 0.14927 0.0
C641 C 0.33798 0.33794 0.11754 0.0
H642 H 0.40419 0.2716 0.08357 0.0
C643 C 0.3986 0.40233 0.04525 0.0
C644 C 0.40984 0.47245 0.04974 0.0
C645 C 0.38284 0.36488 0.05802 0.0
C646 C 0.38524 0.29006 0.09278 0.0
H647 H 0.29824 0.18536 0.16656 0.0
H648 H 0.30308 0.22174 0.13575 0.0
H649 H 0.39435 0.20693 0.11015 0.0
H650 H 0.41033 0.56045 0.07064 0.0
H651 H 0.38231 0.49508 0.09289 0.0
H652 H 0.33039 0.42396 0.10077 0.0
C653 C 0.32434 0.22147 0.14422 0.0
C654 C 0.37973 0.25319 0.10798 0.0
C655 C 0.32167 0.20007 0.16172 0.0
C656 C 0.40211 0.50653 0.06674 0.0
C657 C 0.386 0.46915 0.07948 0.0
C658 C 0.34395 0.37577 0.1025 0.0
C659 C 0.35402 0.24525 0.13801 0.0
C660 C 0.35643 0.27745 0.12063 0.0
C661 C 0.37763 0.39693 0.07549 0.0
C662 C 0.36798 0.35273 0.09013 0.0
H663 H 0.3992 0.22949 0.1757 0.0
H664 H 0.40427 0.2632 0.14482 0.0
H665 H 0.32012 0.35806 0.12725 0.0
H666 H 0.40421 0.37404 0.03236 0.0
H667 H 0.37632 0.30949 0.05455 0.0
C668 C 0.56222 0.96629 0.44488 0.0
C669 C 0.56324 0.93821 0.4617 0.0
C670 C 0.58688 0.95165 0.43247 0.0
C671 C 0.64087 0.80786 0.41825 0.0
H672 H 0.67394 0.9424 0.38623 0.0
C673 C 0.68377 0.73021 0.34505 0.0
C674 C 0.70992 0.76825 0.3387 0.0
C675 C 0.67157 0.74802 0.36239 0.0
C676 C 0.66532 0.90414 0.39517 0.0
H677 H 0.59088 0.87511 0.47919 0.0
H678 H 0.63418 0.84811 0.45722 0.0
H679 H 0.64409 -0.01365 0.41305 0.0
H680 H 0.74523 0.8512 0.34615 0.0
H681 H 0.72405 0.88165 0.37618 0.0
H682 H 0.66113 0.7254 0.39996 0.0
C683 C 0.6145 0.88223 0.45376 0.0
C684 C 0.64811 0.92938 0.41048 0.0
C685 C 0.59002 0.89817 0.46635 0.0
C686 C 0.72472 0.82145 0.35044 0.0
C687 C 0.71257 0.83915 0.36768 0.0
C688 C 0.65784 0.78248 0.4028 0.0
C689 C 0.61264 0.90723 0.43651 0.0
C690 C 0.6352 0.88148 0.422 0.0
C691 C 0.68532 0.80412 0.37367 0.0
C692 C 0.6698 0.83033 0.39094 0.0
H693 H 0.54141 -0.00385 0.44095 0.0
H694 H 0.58461 0.97102 0.41923 0.0
H695 H 0.63085 0.76966 0.42679 0.0
H696 H 0.67184 0.68893 0.33637 0.0
H697 H 0.65043 0.72025 0.36661 0.0
C698 C 0.39277 0.03503 0.42217 0.0
C699 C 0.41409 -0.02012 0.42583 0.0
C700 C 0.39147 0.06007 0.40513 0.0
C701 C 0.39988 0.02841 0.3581 0.0
H702 H 0.42287 0.2293 0.35969 0.0
C703 C 0.37378 0.18832 0.29742 0.0
C704 C 0.35697 0.25233 0.30208 0.0
C705 C 0.39043 0.15382 0.31054 0.0
C706 C 0.41642 0.17323 0.35896 0.0
H707 H 0.44899 0.90408 0.41394 0.0
H708 H 0.44583 0.94718 0.38366 0.0
H709 H 0.43061 0.16429 0.38637 0.0
H710 H 0.34729 0.33368 0.32388 0.0
H711 H 0.37573 0.27361 0.34668 0.0
H712 H 0.3834 0.03824 0.33116 0.0
C713 C 0.43066 0.97132 0.3943 0.0
C714 C 0.42106 0.136 0.37419 0.0
C715 C 0.43226 0.94648 0.41156 0.0
C716 C 0.3598 0.28438 0.31978 0.0
C717 C 0.37631 0.2498 0.3329 0.0
C718 C 0.39484 0.06592 0.34287 0.0
C719 C 0.41108 0.03004 0.39123 0.0
C720 C 0.41191 0.06399 0.37406 0.0
C721 C 0.39063 0.18253 0.32862 0.0
C722 C 0.402 0.13953 0.34333 0.0
H723 H 0.37809 0.0615 0.43273 0.0
H724 H 0.37581 0.10465 0.40294 0.0
H725 H 0.39249 0.97297 0.35777 0.0
H726 H 0.37219 0.16199 0.28392 0.0
H727 H 0.40178 0.10292 0.30667 0.0
C728 C 0.95794 0.73384 0.01198 0.0
C729 C 0.99143 0.74453 0.01197 0.0
C730 C 0.94506 0.67262 0.0184 0.0
C731 C 0.96729 0.52615 0.04622 0.0
H732 H 0.90378 0.41881 0.01682 0.0
C733 C 0.97832 0.24205 0.02315 0.0
C734 C 0.95144 0.20299 0.01653 0.0
C735 C 0.97417 0.30867 0.03256 0.0
C736 C 0.92059 0.44877 0.02572 0.0
H737 H 0.03777 0.69787 0.01734 0.0
H738 H 0.01533 0.58867 0.02759 0.0
H739 H 0.91489 0.54097 0.01128 0.0
H740 H 0.89924 0.19668 0.01689 0.0
H741 H 0.89205 0.31382 0.03314 0.0
H742 H 0.97507 0.43099 0.05948 0.0
C743 C 0.99901 0.62919 0.02346 0.0
C744 C 0.92714 0.51893 0.02241 0.0
C745 C 0.01188 0.69074 0.01721 0.0
C746 C 0.92039 0.22737 0.02125 0.0
C747 C 0.91623 0.29367 0.0308 0.0
C748 C 0.96084 0.45568 0.04948 0.0
C749 C 0.96549 0.62084 0.02472 0.0
C750 C 0.9522 0.55616 0.03173 0.0
C751 C 0.94305 0.33681 0.03547 0.0
C752 C 0.93931 0.41489 0.03825 0.0
H753 H 0.94154 0.77514 0.00844 0.0
H754 H 0.91914 0.66727 0.0191 0.0
H755 H 0.9859 0.55509 0.05406 0.0
H756 H 0.0025 0.22359 0.01996 0.0
H757 H 0.99537 0.34082 0.03589 0.0
C758 C 0.34943 0.48889 0.27261 0.0
C759 C 0.31853 0.4626 0.26801 0.0
C760 C 0.35312 0.55589 0.28193 0.0
C761 C 0.30717 0.7154 0.30066 0.0
H762 H 0.35251 0.80455 0.26306 0.0
C763 C 0.25499 0.95104 0.26867 0.0
C764 C 0.2753 0.0055 0.26371 0.0
C765 C 0.26804 0.88961 0.27495 0.0
C766 C 0.3404 0.78138 0.27402 0.0
H767 H 0.26734 0.48119 0.27127 0.0
H768 H 0.27364 0.5992 0.28685 0.0
H769 H 0.36442 0.68234 0.26823 0.0
H770 H 0.32506 0.03827 0.26118 0.0
H771 H 0.3478 0.93056 0.27174 0.0
H772 H 0.2814 0.81368 0.30539 0.0
C773 C 0.29509 0.56803 0.28362 0.0
C774 C 0.34742 0.71121 0.27712 0.0
C775 C 0.29141 0.50086 0.27441 0.0
C776 C 0.30882 -0.00389 0.26429 0.0
C777 C 0.32187 0.93505 0.2707 0.0
C778 C 0.30021 0.78583 0.29758 0.0
C779 C 0.32597 0.59775 0.28653 0.0
C780 C 0.329 0.67598 0.28944 0.0
C781 C 0.30158 0.88216 0.27653 0.0
C782 C 0.31512 0.81725 0.28332 0.0
H783 H 0.37079 0.45907 0.26836 0.0
H784 H 0.37715 0.57731 0.28424 0.0
H785 H 0.29318 0.68968 0.31051 0.0
H786 H 0.22907 0.95738 0.26847 0.0
H787 H 0.25185 0.84836 0.27878 0.0
C788 C 0.79197 -0.01236 0.27977 0.0
C789 C 0.81987 0.95273 0.27318 0.0
C790 C 0.79325 0.05979 0.28576 0.0
C791 C 0.83343 0.19357 0.26539 0.0
H792 H 0.77274 0.31622 0.29254 0.0
C793 C 0.79365 0.47142 0.24598 0.0
C794 C 0.76216 0.49206 0.2508 0.0
C795 C 0.80562 0.40619 0.25049 0.0
C796 C 0.78966 0.28223 0.28481 0.0
H797 H 0.87188 0.9607 0.27116 0.0
H798 H 0.87385 0.08747 0.28123 0.0
H799 H 0.79002 0.20505 0.30435 0.0
H800 H 0.71646 0.45514 0.26056 0.0
H801 H 0.73691 0.33943 0.26756 0.0
H802 H 0.83128 0.26734 0.2452 0.0
C803 C 0.85104 0.05954 0.28152 0.0
C804 C 0.79999 0.21966 0.29175 0.0
C805 C 0.84978 -0.01262 0.27551 0.0
C806 C 0.74116 0.44148 0.25718 0.0
C807 C 0.753 0.37584 0.26149 0.0
C808 C 0.8229 0.25566 0.25838 0.0
C809 C 0.82239 0.09744 0.28503 0.0
C810 C 0.82077 0.17325 0.28168 0.0
C811 C 0.78587 0.36014 0.25941 0.0
C812 C 0.79982 0.29873 0.26765 0.0
H813 H 0.76867 0.96176 0.2785 0.0
H814 H 0.77076 0.08768 0.28853 0.0
H815 H 0.84911 0.15823 0.25716 0.0
H816 H 0.81015 0.50848 0.24063 0.0
H817 H 0.83094 0.39482 0.24837 0.0
C818 C 0.92392 0.76117 0.50114 0.0
C819 C 0.93829 0.71069 0.51141 0.0
C820 C 0.92222 0.83236 0.50796 0.0
C821 C 0.92507 -0.01584 0.52482 0.0
H822 H 0.0167 0.01407 0.53248 0.0
C823 C 0.0251 0.22414 0.52591 0.0
C824 C 0.01204 0.25973 0.51172 0.0
C825 C 0.01223 0.1594 0.53006 0.0
C826 C 0.99094 0.00743 0.53082 0.0
H827 H 0.9564 0.69191 0.53792 0.0
H828 H 0.95451 0.81655 0.54966 0.0
H829 H 0.99374 0.89828 0.5361 0.0
H830 H 0.97813 0.25151 0.4894 0.0
H831 H 0.95693 0.13597 0.49599 0.0
H832 H 0.92273 0.09326 0.51882 0.0
C833 C 0.94526 0.80142 0.53623 0.0
C834 C 0.97768 0.94106 0.53304 0.0
C835 C 0.94714 0.73039 0.52934 0.0
C836 C 0.9883 0.22581 0.50057 0.0
C837 C 0.97577 0.16036 0.50456 0.0
C838 C 0.93831 0.05112 0.52282 0.0
C839 C 0.93477 0.85345 0.52515 0.0
C840 C 0.94503 0.92787 0.5291 0.0
C841 C 0.98668 0.12824 0.51981 0.0
C842 C 0.97166 0.062 0.52488 0.0
H843 H 0.9162 0.74668 0.48737 0.0
H844 H 0.91413 0.87155 0.49909 0.0
H845 H 0.89978 0.97502 0.52183 0.0
H846 H 0.0434 0.24886 0.53481 0.0
H847 H 0.02124 0.13577 0.54185 0.0
C848 C 0.33053 -0.00123 0.75742 0.0
C849 C 0.30965 0.94934 0.76441 0.0
C850 C 0.31913 0.06579 0.75393 0.0
C851 C 0.25076 0.19011 0.75964 0.0
H852 H 0.27624 0.23408 0.71169 0.0
C853 C 0.2167 0.45208 0.74039 0.0
C854 C 0.24609 0.48927 0.7409 0.0
C855 C 0.2161 0.37898 0.73543 0.0
C856 C 0.26839 0.22137 0.7249 0.0
H857 H 0.26318 0.93664 0.7769 0.0
H858 H 0.24305 0.05247 0.77045 0.0
H859 H 0.29591 0.12516 0.72368 0.0
H860 H 0.29643 0.48317 0.73325 0.0
H861 H 0.29555 0.3557 0.72506 0.0
H862 H 0.22412 0.28705 0.76118 0.0
C863 C 0.26781 0.03914 0.76716 0.0
C864 C 0.28012 0.16014 0.73193 0.0
C865 C 0.27936 0.9725 0.77084 0.0
C866 C 0.27361 0.45538 0.73343 0.0
C867 C 0.27299 0.38229 0.7285 0.0
C868 C 0.23883 0.25085 0.75257 0.0
C869 C 0.28688 0.08398 0.75749 0.0
C870 C 0.27245 0.14575 0.74965 0.0
C871 C 0.24493 0.34285 0.73114 0.0
C872 C 0.24863 0.26852 0.73545 0.0
H873 H 0.35445 -0.01664 0.75286 0.0
H874 H 0.33479 0.10119 0.74723 0.0
H875 H 0.24434 0.18008 0.77328 0.0
H876 H 0.1948 0.47779 0.74542 0.0
H877 H 0.19406 0.34952 0.73716 0.0
C878 C 0.85256 0.48647 0.77268 0.0
C879 C 0.82149 0.46078 0.76826 0.0
C880 C 0.85664 0.55335 0.782 0.0
C881 C 0.81159 0.71394 0.80088 0.0
H882 H 0.85659 0.80159 0.76291 0.0
C883 C 0.75921 0.94844 0.76869 0.0
C884 C 0.77941 0.00299 0.76367 0.0
C885 C 0.77239 0.88715 0.77497 0.0
C886 C 0.8446 0.77883 0.77396 0.0
H887 H 0.77044 0.48009 0.77189 0.0
H888 H 0.77741 0.59807 0.78743 0.0
H889 H 0.86822 0.67931 0.76818 0.0
H890 H 0.82912 0.03582 0.76088 0.0
H891 H 0.85207 0.92822 0.77144 0.0
H892 H 0.78618 0.81268 0.80561 0.0
C893 C 0.7987 0.56652 0.78407 0.0
C894 C 0.85144 0.70863 0.77712 0.0
C895 C 0.79462 0.49939 0.77488 0.0
C896 C 0.81295 -0.00634 0.76409 0.0
C897 C 0.82613 0.93268 0.77049 0.0
C898 C 0.8048 0.78439 0.79775 0.0
C899 C 0.82973 0.59573 0.78676 0.0
C900 C 0.83309 0.67393 0.78958 0.0
C901 C 0.80595 0.87988 0.77647 0.0
C902 C 0.81956 0.81523 0.78335 0.0
H903 H 0.87374 0.45632 0.76829 0.0
H904 H 0.88079 0.57433 0.78416 0.0
H905 H 0.79766 0.68866 0.81083 0.0
H906 H 0.73329 0.95469 0.76859 0.0
H907 H 0.75628 0.84591 0.77889 0.0
C908 C 0.54666 0.72869 0.48598 0.0
C909 C 0.51589 0.75372 0.49103 0.0
C910 C 0.55029 0.66138 0.47686 0.0
C911 C 0.50414 0.49506 0.46291 0.0
H912 H 0.55319 0.42572 0.5023 0.0
C913 C 0.45683 0.27214 0.50129 0.0
C914 C 0.47797 0.2178 0.50553 0.0
C915 C 0.46878 0.33357 0.49453 0.0
C916 C 0.53996 0.44338 0.49093 0.0
H917 H 0.46467 0.7345 0.4881 0.0
H918 H 0.47085 0.61524 0.4732 0.0
H919 H 0.56393 0.54354 0.49319 0.0
H920 H 0.5283 0.18862 0.50787 0.0
H921 H 0.54907 0.29645 0.49643 0.0
H922 H 0.47854 0.39596 0.46175 0.0
C923 C 0.49229 0.6473 0.47591 0.0
C924 C 0.54631 0.51087 0.48551 0.0
C925 C 0.48866 0.71517 0.48476 0.0
C926 C 0.51136 0.22954 0.50481 0.0
C927 C 0.52331 0.29086 0.49799 0.0
C928 C 0.4978 0.42737 0.46833 0.0
C929 C 0.52323 0.61775 0.47322 0.0
C930 C 0.52668 0.53946 0.47246 0.0
C931 C 0.50202 0.34158 0.49197 0.0
C932 C 0.51414 0.40347 0.48324 0.0
H933 H 0.56804 0.75914 0.49003 0.0
H934 H 0.57435 0.6405 0.4745 0.0
H935 H 0.48918 0.51534 0.45254 0.0
H936 H 0.43099 0.26488 0.50189 0.0
H937 H 0.45194 0.37365 0.4907 0.0
C938 C 0.44817 0.71574 0.02796 0.0
C939 C 0.44207 0.69777 0.0096 0.0
C940 C 0.4433 0.78509 0.03548 0.0
C941 C 0.41893 0.96705 0.02491 0.0
H942 H 0.50631 0.01133 0.0407 0.0
C943 C 0.48479 0.21085 1.00423 0.0
C944 C 0.50669 0.24646 0.01626 0.0
C945 C 0.47039 0.14771 0.00853 0.0
C946 C 0.48149 0.00076 0.03684 0.0
H947 H 0.42289 0.73542 0.98504 0.0
H948 H 0.41646 0.85838 0.99779 0.0
H949 H 0.48644 0.8915 0.04145 0.0
H950 H 0.53166 0.24289 0.04191 0.0
H951 H 0.50625 0.13373 0.04946 0.0
H952 H 0.41494 0.07652 0.01938 0.0
C953 C 0.42416 0.81857 1.00658 0.0
C954 C 0.46996 0.9318 0.03736 0.0
C955 C 0.42848 0.74867 0.99917 0.0
C956 C 0.51522 0.21611 0.0322 0.0
C957 C 0.50039 0.1539 0.03665 0.0
C958 C 0.43042 0.03658 0.02456 0.0
C959 C 0.43301 0.83792 0.02459 0.0
C960 C 0.43939 0.91339 0.03029 0.0
C961 C 0.47743 0.11982 0.02502 0.0
C962 C 0.46249 0.05262 0.02946 0.0
H963 H 0.4571 0.67714 0.03654 0.0
H964 H 0.44975 0.79858 0.04948 0.0
H965 H 0.39507 0.95407 0.01967 0.0
H966 H 0.47789 0.23308 0.99184 0.0
H967 H 0.45359 0.12109 0.999 0.0
C968 C 0.36121 0.24318 0.99381 0.0
C969 C 0.36587 0.3159 0.99936 0.0
C970 C 0.33136 0.21072 0.99632 0.0
C971 C 0.25308 0.23586 0.02025 0.0
H972 H 0.21838 0.12658 0.97793 0.0
C973 C 0.11835 0.16995 0.01449 0.0
C974 C 0.11079 0.09808 0.00935 0.0
C975 C 0.14961 0.19548 0.01235 0.0
C976 C 0.22781 0.15655 0.9899 0.0
H977 H 0.34395 0.40986 0.01329 0.0
H978 H 0.29235 0.35375 0.01762 0.0
H979 H 0.27424 0.16709 0.97805 0.0
H980 H 0.12938 -0.00165 0.99652 0.0
H981 H 0.18374 0.04306 0.99274 0.0
H982 H 0.20657 0.22621 0.032 0.0
C983 C 0.31142 0.32151 0.01126 0.0
C984 C 0.25989 0.17933 0.99003 0.0
C985 C 0.34102 0.35389 0.00867 0.0
C986 C 0.13449 0.05388 1.00078 0.0
C987 C 0.16566 0.07953 0.99855 0.0
C988 C 0.22103 0.21336 0.02009 0.0
C989 C 0.30584 0.25025 1.0046 0.0
C990 C 0.27281 0.21989 1.00515 0.0
C991 C 0.17386 0.14987 1.0049 0.0
C992 C 0.20792 0.17407 1.00485 0.0
H993 H 0.37993 0.21247 0.98664 0.0
H994 H 0.32798 0.1553 0.99132 0.0
H995 H 0.26239 0.26608 0.03222 0.0
H996 H 0.10068 0.20546 0.0211 0.0
H997 H 0.15505 0.25043 0.01702 0.0
C998 C 0.85024 0.77748 0.98938 0.0
C999 C 0.85671 0.84879 0.99568 0.0
C1000 C 0.81945 0.74865 0.99123 0.0
C1001 C 0.73498 0.80805 0.99645 0.0
H1002 H 0.71907 0.6123 1.00661 0.0
C1003 C 0.60927 0.69839 0.01368 0.0
C1004 C 0.60254 0.62656 0.00807 0.0
C1005 C 0.63951 0.72746 0.01038 0.0
C1006 C 0.72311 0.66683 1.00348 0.0
H1007 H 0.83681 0.94372 0.01025 0.0
H1008 H 0.78357 0.89308 0.01379 0.0
H1009 H 0.7742 0.65639 1.00606 0.0
H1010 H 0.62089 0.53102 0.99307 0.0
H1011 H 0.67314 0.58214 0.98697 0.0
H1012 H 0.68384 0.81859 0.99399 0.0
C1013 C 0.80184 0.86014 0.00687 0.0
C1014 C 0.75474 0.69212 1.00323 0.0
C1015 C 0.83246 0.88895 1.00496 0.0
C1016 C 0.62554 0.58631 0.99779 0.0
C1017 C 0.6556 0.61537 0.99443 0.0
C1018 C 0.70334 0.78277 0.99671 0.0
C1019 C 0.79464 0.79049 0.99951 0.0
C1020 C 0.76105 0.76314 0.9998 0.0
C1021 C 0.66342 0.68528 1.00132 0.0
C1022 C 0.69702 0.71189 1.00026 0.0
H1023 H 0.86839 0.74515 0.98217 0.0
H1024 H 0.81471 0.69477 0.98541 0.0
H1025 H 0.73902 0.86268 0.9934 0.0
H1026 H 0.59209 0.73059 0.0217 0.0
H1027 H 0.64477 0.78154 0.01588 0.0
C1028 C 0.15098 0.43297 0.26409 0.0
C1029 C 0.15897 0.36204 0.25826 0.0
C1030 C 0.11986 0.45845 0.26146 0.0
C1031 C 0.04377 0.42674 0.23649 0.0
H1032 H 0.00531 0.51365 0.28045 0.0
C1033 C 0.91042 0.51364 0.23849 0.0
C1034 C 0.90513 0.58266 0.24682 0.0
C1035 C 0.93991 0.47924 0.24073 0.0
C1036 C 0.0157 0.49001 0.26801 0.0
H1037 H 0.14147 0.2643 0.24375 0.0
H1038 H 0.08742 0.30944 0.23885 0.0
H1039 H 0.06124 0.47515 0.28067 0.0
H1040 H 0.92544 0.66706 0.26523 0.0
H1041 H 0.97648 0.60811 0.26892 0.0
H1042 H 0.99848 0.44328 0.2237 0.0
C1043 C 0.10505 0.34492 0.24564 0.0
C1044 C 0.04779 0.46819 0.26814 0.0
C1045 C 0.13602 0.31912 0.24847 0.0
C1046 C 0.92888 0.61423 0.25843 0.0
C1047 C 0.95817 0.58004 0.26067 0.0
C1048 C 0.01169 0.44933 0.23631 0.0
C1049 C 0.09632 0.41386 0.25274 0.0
C1050 C 0.06226 0.4371 0.25235 0.0
C1051 C 0.96448 0.51309 0.25143 0.0
C1052 C 0.99738 0.48205 0.25203 0.0
H1053 H 0.16807 0.46735 0.27169 0.0
H1054 H 0.11387 0.51229 0.2668 0.0
H1055 H 0.05435 0.40279 0.22414 0.0
H1056 H 0.8925 0.48778 0.22953 0.0
H1057 H 0.94378 0.42703 0.2337 0.0
C1058 C 0.34838 0.79215 0.49256 0.0
C1059 C 0.35666 0.86035 0.50053 0.0
C1060 C 0.31716 0.76555 0.49422 0.0
C1061 C 0.23418 0.83073 0.50236 0.0
H1062 H 0.21518 0.63087 0.50653 0.0
C1063 C 0.1068 0.72003 0.51636 0.0
C1064 C 0.09942 0.65084 0.50875 0.0
C1065 C 0.13727 0.74952 0.51382 0.0
C1066 C 0.22006 0.68674 0.50508 0.0
H1067 H 0.33939 0.95149 0.51773 0.0
H1068 H 0.28531 0.90445 0.52091 0.0
H1069 H 0.27093 0.67098 0.50698 0.0
H1070 H 0.11671 0.56142 0.49102 0.0
H1071 H 0.16929 0.61348 0.48621 0.0
H1072 H 0.1832 0.84641 0.50058 0.0
C1073 C 0.30259 0.87247 0.51291 0.0
C1074 C 0.25206 0.70973 0.50541 0.0
C1075 C 0.3337 0.89914 0.5112 0.0
C1076 C 0.12187 0.61456 0.49723 0.0
C1077 C 0.15212 0.64407 0.49462 0.0
C1078 C 0.20213 0.80772 0.50206 0.0
C1079 C 0.29362 0.80642 0.50396 0.0
C1080 C 0.25954 0.782 0.50406 0.0
C1081 C 0.16072 0.7104 0.50355 0.0
C1082 C 0.1947 0.73539 0.50336 0.0
H1083 H 0.36544 0.76096 0.48421 0.0
H1084 H 0.31107 0.7145 0.48711 0.0
H1085 H 0.2391 0.88661 0.50095 0.0
H1086 H 0.09005 0.74899 0.52539 0.0
H1087 H 0.14311 0.80082 0.52087 0.0
C1088 C 0.84333 0.35807 0.50985 0.0
C1089 C 0.86765 0.32261 0.49951 0.0
C1090 C 0.81442 0.32379 0.51299 0.0
C1091 C 0.76248 0.18252 0.49183 0.0
H1092 H 0.71227 0.22183 0.53535 0.0
C1093 C 0.63897 0.05181 0.504 0.0
C1094 C 0.61543 0.0943 0.51326 0.0
C1095 C 0.66985 0.07859 0.50157 0.0
C1096 C 0.72586 0.21109 0.52302 0.0
H1097 H 0.88165 0.22157 0.48545 0.0
H1098 H 0.83085 0.16096 0.49107 0.0
H1099 H 0.76781 0.26323 0.53459 0.0
H1100 H 0.60526 0.19982 0.52617 0.0
H1101 H 0.65927 0.24685 0.5218 0.0
H1102 H 0.72039 0.1304 0.48028 0.0
C1103 C 0.83412 0.21592 0.49648 0.0
C1104 C 0.75775 0.23444 0.52263 0.0
C1105 C 0.86331 0.2503 0.49343 0.0
C1106 C 0.62286 0.16567 0.51903 0.0
C1107 C 0.65388 0.19233 0.5167 0.0
C1108 C 0.73058 0.15887 0.49226 0.0
C1109 C 0.80899 0.2531 0.50584 0.0
C1110 C 0.77634 0.22126 0.50695 0.0
C1111 C 0.67796 0.14838 0.5084 0.0
C1112 C 0.7118 0.17367 0.50779 0.0
H1113 H 0.84605 0.41366 0.51489 0.0
H1114 H 0.79565 0.35429 0.52017 0.0
H1115 H 0.77591 0.1725 0.47944 0.0
H1116 H 0.63394 -0.00327 0.49923 0.0
H1117 H 0.68781 0.04337 0.49512 0.0
C1118 C 0.93735 0.14237 0.75905 0.0
C1119 C 0.91327 0.10289 0.74926 0.0
C1120 C 0.96754 0.11249 0.76172 0.0
C1121 C 0.0216 0.97729 0.74019 0.0
H1122 H 0.07138 0.00959 0.78434 0.0
C1123 C 0.13872 0.8268 0.75284 0.0
C1124 C 0.16323 0.86131 0.7634 0.0
C1125 C 0.10968 0.86121 0.75001 0.0
C1126 C 0.05802 0.00122 0.7718 0.0
H1127 H 0.90132 -0.00061 0.73566 0.0
H1128 H 0.95422 0.94691 0.7404 0.0
H1129 H 0.01635 0.05445 0.78326 0.0
H1130 H 0.17722 0.961 0.77827 0.0
H1131 H 0.12629 0.02182 0.77316 0.0
H1132 H 0.06317 0.92428 0.72869 0.0
C1133 C 0.94978 0.0015 0.74574 0.0
C1134 C 0.0264 0.02645 0.77124 0.0
C1135 C 0.9194 0.03129 0.74318 0.0
C1136 C 0.1588 0.9329 0.77011 0.0
C1137 C 0.12951 0.96742 0.76734 0.0
C1138 C 0.05322 0.95232 0.74073 0.0
C1139 C 0.97444 0.0425 0.7546 0.0
C1140 C 0.00775 0.01426 0.75546 0.0
C1141 C 0.1043 0.93116 0.75768 0.0
C1142 C 0.07174 0.96343 0.75659 0.0
H1143 H 0.93329 0.1975 0.76409 0.0
H1144 H 0.98597 0.14551 0.76859 0.0
H1145 H 0.00812 0.96848 0.7277 0.0
H1146 H 0.14133 0.77174 0.74741 0.0
H1147 H 0.09082 0.83139 0.74261 0.0
C1148 C 0.65272 0.42758 0.76649 0.0
C1149 C 0.66174 0.3582 0.75984 0.0
C1150 C 0.62124 0.45144 0.76409 0.0
C1151 C 0.54573 0.41896 0.73851 0.0
H1152 H 0.50574 0.49632 0.78297 0.0
C1153 C 0.41127 0.49674 0.7405 0.0
C1154 C 0.40483 0.56404 0.74953 0.0
C1155 C 0.44116 0.46384 0.74262 0.0
C1156 C 0.51654 0.47538 0.77039 0.0
H1157 H 0.64576 0.26184 0.74411 0.0
H1158 H 0.59104 0.3042 0.73963 0.0
H1159 H 0.56218 0.4615 0.78305 0.0
H1160 H 0.42359 0.64666 0.76899 0.0
H1161 H 0.47528 0.59027 0.77253 0.0
H1162 H 0.50035 0.43455 0.72571 0.0
C1163 C 0.60812 0.33968 0.7469 0.0
C1164 C 0.54893 0.45564 0.77044 0.0
C1165 C 0.63945 0.31545 0.74949 0.0
C1166 C 0.42786 0.59507 0.7617 0.0
C1167 C 0.45756 0.56236 0.76382 0.0
C1168 C 0.51335 0.43947 0.7384 0.0
C1169 C 0.59836 0.40681 0.75478 0.0
C1170 C 0.56397 0.42796 0.75448 0.0
C1171 C 0.46505 0.49748 0.75387 0.0
C1172 C 0.49843 0.4687 0.75432 0.0
H1173 H 0.66929 0.46171 0.77456 0.0
H1174 H 0.61447 0.50396 0.77005 0.0
H1175 H 0.55672 0.3977 0.72601 0.0
H1176 H 0.394 0.47141 0.73105 0.0
H1177 H 0.44591 0.41312 0.73503 0.0
C1178 C 0.65642 0.94029 0.26944 0.0
C1179 C 0.66166 0.86884 0.26285 0.0
C1180 C 0.62654 0.97263 0.26693 0.0
C1181 C 0.54963 0.95228 0.24114 0.0
H1182 H 0.51314 0.05363 0.28388 0.0
C1183 C 0.41573 0.03042 0.24402 0.0
C1184 C 0.40972 0.10204 0.25013 0.0
C1185 C 0.44607 0.00038 0.24657 0.0
C1186 C 0.52306 0.02581 0.27181 0.0
H1187 H 0.64038 0.77715 0.24739 0.0
H1188 H 0.58885 0.8332 0.24297 0.0
H1189 H 0.56851 0.01079 0.28457 0.0
H1190 H 0.42984 0.19633 0.26504 0.0
H1191 H 0.48241 0.14401 0.26951 0.0
H1192 H 0.50413 0.96693 0.22841 0.0
C1193 C 0.60758 0.86452 0.25009 0.0
C1194 C 0.55487 0.00173 0.27215 0.0
C1195 C 0.63722 0.83222 0.25268 0.0
C1196 C 0.43381 0.1412 0.25998 0.0
C1197 C 0.46395 0.11109 0.26264 0.0
C1198 C 0.51783 0.97621 0.24081 0.0
C1199 C 0.60151 0.93431 0.25764 0.0
C1200 C 0.5685 0.96446 0.25684 0.0
C1201 C 0.47078 0.04117 0.25544 0.0
C1202 C 0.50413 0.01306 0.25615 0.0
H1203 H 0.67471 0.96998 0.27735 0.0
H1204 H 0.62276 0.02697 0.27265 0.0
H1205 H 0.55951 0.92448 0.22905 0.0
H1206 H 0.39764 -0.00124 0.23644 0.0
H1207 H 0.45045 0.94583 0.24117 0.0
loop_
_geom_bond_atom_site_label_1
_geom_bond_atom_site_label_2
_geom_bond_distance
_geom_bond_site_symmetry_2
_ccdc_geom_bond_type
C0 O12 1.241 1_565 S
C0 O13 1.280 . S
C1 O14 1.277 . S
C1 O15 1.245 . S
C2 O26 1.239 1_554 S
C2 O28 1.306 1_655 S
Mg3 O4 1.926 . S
Mg3 O13 1.984 . S
Mg3 O15 1.988 1_565 S
Mg3 O16 2.061 . S
O4 Mg3 1.926 . S
O4 Mg5 1.986 1_565 S
O4 Mg6 1.916 1_565 S
Mg5 O4 1.986 1_545 S
Mg5 O12 2.042 . S
Mg5 O14 2.041 . S
Mg5 O20 2.038 1_455 S
Mg5 O28 2.238 . S
Mg6 O4 1.916 1_545 S
Mg6 O7 1.918 1_454 S
Mg6 O17 2.095 1_544 S
Mg6 O19 2.077 1_445 S
Mg6 O28 2.121 . S
Mg6 O29 2.080 1_554 S
O7 Mg6 1.918 1_656 S
O7 Mg8 1.926 . S
O7 Mg9 1.986 1_545 S
Mg8 O7 1.926 . S
Mg8 O22 1.984 . S
Mg8 O25 1.988 1_545 S
Mg8 O26 2.061 . S
Mg9 O7 1.986 1_565 S
Mg9 O17 2.226 1_655 S
Mg9 O21 2.042 . S
Mg9 O23 2.041 . S
Mg9 O30 2.038 1_655 S
C10 O16 1.247 . S
C10 O17 1.302 1_554 S
C11 O29 1.245 1_565 S
C11 O30 1.274 . S
O12 C0 1.241 1_545 S
O12 Mg5 2.042 . S
O13 C0 1.280 . S
O13 Mg3 1.984 . S
O14 C1 1.277 . S
O14 Mg5 2.041 . S
O15 C1 1.245 . S
O15 Mg3 1.988 1_545 S
O16 Mg3 2.061 . S
O16 C10 1.247 . S
O17 Mg6 2.095 1_566 S
O17 Mg9 2.226 1_455 S
O17 C10 1.302 1_556 S
C18 O19 1.245 1_545 S
C18 O20 1.274 . S
O19 Mg6 2.077 1_665 S
O19 C18 1.245 1_565 S
O20 Mg5 2.038 1_655 S
O20 C18 1.274 . S
O21 Mg9 2.042 . S
O21 C24 1.241 1_565 S
O22 Mg8 1.984 . S
O22 C24 1.280 . S
O23 Mg9 2.041 . S
O23 C27 1.277 . S
C24 O21 1.241 1_545 S
C24 O22 1.280 . S
O25 Mg8 1.988 1_565 S
O25 C27 1.245 . S
O26 C2 1.239 1_556 S
O26 Mg8 2.061 . S
C27 O23 1.277 . S
C27 O25 1.245 . S
O28 C2 1.306 1_455 S
O28 Mg5 2.238 . S
O28 Mg6 2.121 . S
O29 Mg6 2.080 1_556 S
O29 C11 1.245 1_545 S
O30 Mg9 2.038 1_455 S
O30 C11 1.274 . S
C31 O43 1.241 . S
C31 O44 1.280 . S
C32 O45 1.277 . S
C32 O46 1.245 . S
C33 O57 1.247 . S
C33 O59 1.289 . S
Mg34 O35 1.926 . S
Mg34 O44 1.984 . S
Mg34 O46 1.988 . S
Mg34 O47 2.061 . S
O35 Mg34 1.926 . S
O35 Mg36 1.986 . S
O35 Mg37 1.917 . S
Mg36 O35 1.986 . S
Mg36 O43 2.042 . S
Mg36 O45 2.041 . S
Mg36 O51 2.038 . S
Mg36 O59 2.238 . S
Mg37 O35 1.917 . S
Mg37 O38 1.917 . S
Mg37 O48 2.106 . S
Mg37 O50 2.079 . S
Mg37 O59 2.106 . S
Mg37 O60 2.079 . S
O38 Mg37 1.917 . S
O38 Mg39 1.926 . S
O38 Mg40 1.986 . S
Mg39 O38 1.926 . S
Mg39 O53 1.984 . S
Mg39 O56 1.988 . S
Mg39 O57 2.061 . S
Mg40 O38 1.986 . S
Mg40 O48 2.238 . S
Mg40 O52 2.042 . S
Mg40 O54 2.041 . S
Mg40 O61 2.038 . S
C41 O47 1.247 . S
C41 O48 1.289 . S
C42 O60 1.245 . S
C42 O61 1.274 . S
O43 C31 1.241 . S
O43 Mg36 2.042 . S
O44 C31 1.280 . S
O44 Mg34 1.984 . S
O45 C32 1.277 . S
O45 Mg36 2.041 . S
O46 C32 1.245 . S
O46 Mg34 1.988 . S
O47 Mg34 2.061 . S
O47 C41 1.247 . S
O48 Mg37 2.106 . S
O48 Mg40 2.238 . S
O48 C41 1.289 . S
C49 O50 1.245 . S
C49 O51 1.274 . S
O50 Mg37 2.079 . S
O50 C49 1.245 . S
O51 Mg36 2.038 . S
O51 C49 1.274 . S
O52 Mg40 2.042 . S
O52 C55 1.241 . S
O53 Mg39 1.984 . S
O53 C55 1.280 . S
O54 Mg40 2.041 . S
O54 C58 1.277 . S
C55 O52 1.241 . S
C55 O53 1.280 . S
O56 Mg39 1.988 . S
O56 C58 1.245 . S
O57 C33 1.247 . S
O57 Mg39 2.061 . S
C58 O54 1.277 . S
C58 O56 1.245 . S
O59 C33 1.289 . S
O59 Mg36 2.238 . S
O59 Mg37 2.106 . S
O60 Mg37 2.079 . S
O60 C42 1.245 . S
O61 Mg40 2.038 . S
O61 C42 1.274 . S
C62 O74 1.241 . S
C62 O75 1.280 . S
C63 O76 1.277 . S
C63 O77 1.245 . S
C64 O88 1.247 . S
C64 O90 1.289 . S
Mg65 O66 1.926 . S
Mg65 O75 1.984 . S
Mg65 O77 1.988 . S
Mg65 O78 2.061 . S
O66 Mg65 1.926 . S
O66 Mg67 1.986 . S
O66 Mg68 1.917 . S
Mg67 O66 1.986 . S
Mg67 O74 2.042 . S
Mg67 O76 2.041 . S
Mg67 O82 2.038 . S
Mg67 O90 2.238 . S
Mg68 O66 1.917 . S
Mg68 O69 1.917 . S
Mg68 O79 2.106 . S
Mg68 O81 2.079 . S
Mg68 O90 2.106 . S
Mg68 O91 2.079 . S
O69 Mg68 1.917 . S
O69 Mg70 1.926 . S
O69 Mg71 1.986 . S
Mg70 O69 1.926 . S
Mg70 O84 1.984 . S
Mg70 O87 1.988 . S
Mg70 O88 2.061 . S
Mg71 O69 1.986 . S
Mg71 O79 2.238 . S
Mg71 O83 2.042 . S
Mg71 O85 2.041 . S
Mg71 O92 2.038 . S
C72 O78 1.247 . S
C72 O79 1.289 . S
C73 O91 1.245 . S
C73 O92 1.274 . S
O74 C62 1.241 . S
O74 Mg67 2.042 . S
O75 C62 1.280 . S
O75 Mg65 1.984 . S
O76 C63 1.277 . S
O76 Mg67 2.041 . S
O77 C63 1.245 . S
O77 Mg65 1.988 . S
O78 Mg65 2.061 . S
O78 C72 1.247 . S
O79 Mg68 2.106 . S
O79 Mg71 2.238 . S
O79 C72 1.289 . S
C80 O81 1.245 . S
C80 O82 1.274 . S
O81 Mg68 2.079 . S
O81 C80 1.245 . S
O82 Mg67 2.038 . S
O82 C80 1.274 . S
O83 Mg71 2.042 . S
O83 C86 1.241 . S
O84 Mg70 1.984 . S
O84 C86 1.280 . S
O85 Mg71 2.041 . S
O85 C89 1.277 . S
C86 O83 1.241 . S
C86 O84 1.280 . S
O87 Mg70 1.988 . S
O87 C89 1.245 . S
O88 C64 1.247 . S
O88 Mg70 2.061 . S
C89 O85 1.277 . S
C89 O87 1.245 . S
O90 C64 1.289 . S
O90 Mg67 2.238 . S
O90 Mg68 2.106 . S
O91 Mg68 2.079 . S
O91 C73 1.245 . S
O92 Mg71 2.038 . S
O92 C73 1.274 . S
C93 O105 1.241 . S
C93 O106 1.280 . S
C94 O107 1.277 . S
C94 O108 1.245 . S
C95 O119 1.247 . S
C95 O121 1.289 1_655 S
Mg96 O97 1.926 . S
Mg96 O106 1.984 . S
Mg96 O108 1.988 . S
Mg96 O109 2.061 . S
O97 Mg96 1.926 . S
O97 Mg98 1.986 . S
O97 Mg99 1.917 . S
Mg98 O97 1.986 . S
Mg98 O105 2.042 . S
Mg98 O107 2.041 . S
Mg98 O113 2.038 1_455 S
Mg98 O121 2.238 . S
Mg99 O97 1.917 . S
Mg99 O100 1.917 1_455 S
Mg99 O110 2.109 . S
Mg99 O112 2.079 1_455 S
Mg99 O121 2.106 . S
Mg99 O122 2.079 . S
O100 Mg99 1.917 1_655 S
O100 Mg101 1.926 . S
O100 Mg102 1.986 . S
Mg101 O100 1.926 . S
Mg101 O115 1.984 . S
Mg101 O118 1.988 . S
Mg101 O119 2.061 . S
Mg102 O100 1.986 . S
Mg102 O110 2.226 1_655 S
Mg102 O114 2.042 . S
Mg102 O116 2.041 . S
Mg102 O123 2.038 1_655 S
C103 O109 1.247 . S
C103 O110 1.302 . S
C104 O122 1.245 . S
C104 O123 1.274 . S
O105 C93 1.241 . S
O105 Mg98 2.042 . S
O106 C93 1.280 . S
O106 Mg96 1.984 . S
O107 C94 1.277 . S
O107 Mg98 2.041 . S
O108 C94 1.245 . S
O108 Mg96 1.988 . S
O109 Mg96 2.061 . S
O109 C103 1.247 . S
O110 Mg99 2.109 . S
O110 Mg102 2.226 1_455 S
O110 C103 1.302 . S
C111 O112 1.245 . S
C111 O113 1.274 . S
O112 Mg99 2.079 1_655 S
O112 C111 1.245 . S
O113 Mg98 2.038 1_655 S
O113 C111 1.274 . S
O114 Mg102 2.042 . S
O114 C117 1.241 . S
O115 Mg101 1.984 . S
O115 C117 1.280 . S
O116 Mg102 2.041 . S
O116 C120 1.277 . S
C117 O114 1.241 . S
C117 O115 1.280 . S
O118 Mg101 1.988 . S
O118 C120 1.245 . S
O119 C95 1.247 . S
O119 Mg101 2.061 . S
C120 O116 1.277 . S
C120 O118 1.245 . S
O121 C95 1.289 1_455 S
O121 Mg98 2.238 . S
O121 Mg99 2.106 . S
O122 Mg99 2.079 . S
O122 C104 1.245 . S
O123 Mg102 2.038 1_455 S
O123 C104 1.274 . S
C124 O136 1.241 . S
C124 O137 1.280 . S
C125 O138 1.277 . S
C125 O139 1.245 . S
C126 O150 1.247 . S
C126 O152 1.289 . S
Mg127 O128 1.926 . S
Mg127 O137 1.984 . S
Mg127 O139 1.988 . S
Mg127 O140 2.061 . S
O128 Mg127 1.926 . S
O128 Mg129 1.986 . S
O128 Mg130 1.917 . S
Mg129 O128 1.986 . S
Mg129 O136 2.042 . S
Mg129 O138 2.041 . S
Mg129 O144 2.038 . S
Mg129 O152 2.238 . S
Mg130 O128 1.917 . S
Mg130 O131 1.917 . S
Mg130 O141 2.106 . S
Mg130 O143 2.079 . S
Mg130 O152 2.106 . S
Mg130 O153 2.079 . S
O131 Mg130 1.917 . S
O131 Mg132 1.926 . S
O131 Mg133 1.986 . S
Mg132 O131 1.926 . S
Mg132 O146 1.984 . S
Mg132 O149 1.988 . S
Mg132 O150 2.061 . S
Mg133 O131 1.986 . S
Mg133 O141 2.238 . S
Mg133 O145 2.042 . S
Mg133 O147 2.041 . S
Mg133 O154 2.038 . S
C134 O140 1.247 . S
C134 O141 1.289 . S
C135 O153 1.245 . S
C135 O154 1.274 . S
O136 C124 1.241 . S
O136 Mg129 2.042 . S
O137 C124 1.280 . S
O137 Mg127 1.984 . S
O138 C125 1.277 . S
O138 Mg129 2.041 . S
O139 C125 1.245 . S
O139 Mg127 1.988 . S
O140 Mg127 2.061 . S
O140 C134 1.247 . S
O141 Mg130 2.106 . S
O141 Mg133 2.238 . S
O141 C134 1.289 . S
C142 O143 1.245 . S
C142 O144 1.274 . S
O143 Mg130 2.079 . S
O143 C142 1.245 . S
O144 Mg129 2.038 . S
O144 C142 1.274 . S
O145 Mg133 2.042 . S
O145 C148 1.241 . S
O146 Mg132 1.984 . S
O146 C148 1.280 . S
O147 Mg133 2.041 . S
O147 C151 1.277 . S
C148 O145 1.241 . S
C148 O146 1.280 . S
O149 Mg132 1.988 . S
O149 C151 1.245 . S
O150 C126 1.247 . S
O150 Mg132 2.061 . S
C151 O147 1.277 . S
C151 O149 1.245 . S
O152 C126 1.289 . S
O152 Mg129 2.238 . S
O152 Mg130 2.106 . S
O153 Mg130 2.079 . S
O153 C135 1.245 . S
O154 Mg133 2.038 . S
O154 C135 1.274 . S
C155 O167 1.241 . S
C155 O168 1.280 . S
C156 O169 1.277 . S
C156 O170 1.245 . S
C157 O181 1.247 . S
C157 O183 1.289 . S
Mg158 O159 1.926 . S
Mg158 O168 1.984 . S
Mg158 O170 1.988 . S
Mg158 O171 2.061 . S
O159 Mg158 1.926 . S
O159 Mg160 1.986 . S
O159 Mg161 1.917 . S
Mg160 O159 1.986 . S
Mg160 O167 2.042 . S
Mg160 O169 2.041 . S
Mg160 O175 2.038 . S
Mg160 O183 2.238 . S
Mg161 O159 1.917 . S
Mg161 O162 1.917 . S
Mg161 O172 2.106 . S
Mg161 O174 2.079 . S
Mg161 O183 2.106 . S
Mg161 O184 2.079 . S
O162 Mg161 1.917 . S
O162 Mg163 1.926 . S
O162 Mg164 1.986 . S
Mg163 O162 1.926 . S
Mg163 O177 1.984 . S
Mg163 O180 1.988 . S
Mg163 O181 2.061 . S
Mg164 O162 1.986 . S
Mg164 O172 2.238 . S
Mg164 O176 2.042 . S
Mg164 O178 2.041 . S
Mg164 O185 2.038 . S
C165 O171 1.247 . S
C165 O172 1.289 . S
C166 O184 1.245 . S
C166 O185 1.274 . S
O167 C155 1.241 . S
O167 Mg160 2.042 . S
O168 C155 1.280 . S
O168 Mg158 1.984 . S
O169 C156 1.277 . S
O169 Mg160 2.041 . S
O170 C156 1.245 . S
O170 Mg158 1.988 . S
O171 Mg158 2.061 . S
O171 C165 1.247 . S
O172 Mg161 2.106 . S
O172 Mg164 2.238 . S
O172 C165 1.289 . S
C173 O174 1.245 . S
C173 O175 1.274 . S
O174 Mg161 2.079 . S
O174 C173 1.245 . S
O175 Mg160 2.038 . S
O175 C173 1.274 . S
O176 Mg164 2.042 . S
O176 C179 1.241 . S
O177 Mg163 1.984 . S
O177 C179 1.280 . S
O178 Mg164 2.041 . S
O178 C182 1.277 . S
C179 O176 1.241 . S
C179 O177 1.280 . S
O180 Mg163 1.988 . S
O180 C182 1.245 . S
O181 C157 1.247 . S
O181 Mg163 2.061 . S
C182 O178 1.277 . S
C182 O180 1.245 . S
O183 C157 1.289 . S
O183 Mg160 2.238 . S
O183 Mg161 2.106 . S
O184 Mg161 2.079 . S
O184 C166 1.245 . S
O185 Mg164 2.038 . S
O185 C166 1.274 . S
C186 O198 1.241 1_565 S
C186 O199 1.280 . S
C187 O200 1.277 . S
C187 O201 1.245 . S
C188 O212 1.247 . S
C188 O214 1.289 . S
Mg189 O190 1.926 . S
Mg189 O199 1.984 . S
Mg189 O201 1.988 1_565 S
Mg189 O202 2.061 . S
O190 Mg189 1.926 . S
O190 Mg191 1.986 1_565 S
O190 Mg192 1.916 1_565 S
Mg191 O190 1.986 1_545 S
Mg191 O198 2.042 . S
Mg191 O200 2.041 . S
Mg191 O206 2.038 . S
Mg191 O214 2.238 . S
Mg192 O190 1.916 1_545 S
Mg192 O193 1.918 . S
Mg192 O203 2.094 1_545 S
Mg192 O205 2.077 1_545 S
Mg192 O214 2.119 . S
Mg192 O215 2.080 . S
O193 Mg192 1.918 . S
O193 Mg194 1.926 . S
O193 Mg195 1.986 1_545 S
Mg194 O193 1.926 . S
Mg194 O208 1.984 . S
Mg194 O211 1.988 1_545 S
Mg194 O212 2.061 . S
Mg195 O193 1.986 1_565 S
Mg195 O203 2.238 . S
Mg195 O207 2.042 . S
Mg195 O209 2.041 . S
Mg195 O216 2.038 . S
C196 O202 1.247 . S
C196 O203 1.289 . S
C197 O215 1.245 1_565 S
C197 O216 1.274 . S
O198 C186 1.241 1_545 S
O198 Mg191 2.042 . S
O199 C186 1.280 . S
O199 Mg189 1.984 . S
O200 C187 1.277 . S
O200 Mg191 2.041 . S
O201 C187 1.245 . S
O201 Mg189 1.988 1_545 S
O202 Mg189 2.061 . S
O202 C196 1.247 . S
O203 Mg192 2.094 1_565 S
O203 Mg195 2.238 . S
O203 C196 1.289 . S
C204 O205 1.245 1_545 S
C204 O206 1.274 . S
O205 Mg192 2.077 1_565 S
O205 C204 1.245 1_565 S
O206 Mg191 2.038 . S
O206 C204 1.274 . S
O207 Mg195 2.042 . S
O207 C210 1.241 1_565 S
O208 Mg194 1.984 . S
O208 C210 1.280 . S
O209 Mg195 2.041 . S
O209 C213 1.277 . S
C210 O207 1.241 1_545 S
C210 O208 1.280 . S
O211 Mg194 1.988 1_565 S
O211 C213 1.245 . S
O212 C188 1.247 . S
O212 Mg194 2.061 . S
C213 O209 1.277 . S
C213 O211 1.245 . S
O214 C188 1.289 . S
O214 Mg191 2.238 . S
O214 Mg192 2.119 . S
O215 Mg192 2.080 . S
O215 C197 1.245 1_545 S
O216 Mg195 2.038 . S
O216 C197 1.274 . S
C217 O229 1.241 . S
C217 O230 1.280 . S
C218 O231 1.277 . S
C218 O232 1.245 . S
C219 O243 1.239 1_554 S
C219 O245 1.306 . S
Mg220 O221 1.926 . S
Mg220 O230 1.984 . S
Mg220 O232 1.988 . S
Mg220 O233 2.061 . S
O221 Mg220 1.926 . S
O221 Mg222 1.986 . S
O221 Mg223 1.917 . S
Mg222 O221 1.986 . S
Mg222 O229 2.042 . S
Mg222 O231 2.041 . S
Mg222 O237 2.038 . S
Mg222 O245 2.238 . S
Mg223 O221 1.917 . S
Mg223 O224 1.917 1_554 S
Mg223 O234 2.106 1_554 S
Mg223 O236 2.079 . S
Mg223 O245 2.106 . S
Mg223 O246 2.079 1_554 S
O224 Mg223 1.917 1_556 S
O224 Mg225 1.926 . S
O224 Mg226 1.986 . S
Mg225 O224 1.926 . S
Mg225 O239 1.984 . S
Mg225 O242 1.988 . S
Mg225 O243 2.061 . S
Mg226 O224 1.986 . S
Mg226 O234 2.238 . S
Mg226 O238 2.042 . S
Mg226 O240 2.041 . S
Mg226 O247 2.038 . S
C227 O233 1.247 . S
C227 O234 1.289 1_554 S
C228 O246 1.245 . S
C228 O247 1.274 . S
O229 C217 1.241 . S
O229 Mg222 2.042 . S
O230 C217 1.280 . S
O230 Mg220 1.984 . S
O231 C218 1.277 . S
O231 Mg222 2.041 . S
O232 C218 1.245 . S
O232 Mg220 1.988 . S
O233 Mg220 2.061 . S
O233 C227 1.247 . S
O234 Mg223 2.106 1_556 S
O234 Mg226 2.238 . S
O234 C227 1.289 1_556 S
C235 O236 1.245 . S
C235 O237 1.274 . S
O236 Mg223 2.079 . S
O236 C235 1.245 . S
O237 Mg222 2.038 . S
O237 C235 1.274 . S
O238 Mg226 2.042 . S
O238 C241 1.241 . S
O239 Mg225 1.984 . S
O239 C241 1.280 . S
O240 Mg226 2.041 . S
O240 C244 1.277 . S
C241 O238 1.241 . S
C241 O239 1.280 . S
O242 Mg225 1.988 . S
O242 C244 1.245 . S
O243 C219 1.239 1_556 S
O243 Mg225 2.061 . S
C244 O240 1.277 . S
C244 O242 1.245 . S
O245 C219 1.306 . S
O245 Mg222 2.238 . S
O245 Mg223 2.106 . S
O246 Mg223 2.079 1_556 S
O246 C228 1.245 . S
O247 Mg226 2.038 . S
O247 C228 1.274 . S
C248 C249 1.349 . S
C248 C250 1.327 . S
C248 H273 0.950 . S
C249 C248 1.349 . S
C249 C265 1.349 1_565 S
C250 C248 1.327 . S
C250 C269 1.429 1_565 S
C250 H274 0.950 . S
C251 C268 1.574 . S
C251 C270 1.368 . S
C251 H275 0.949 . S
H252 C256 0.949 . S
C253 C254 1.349 . S
C253 C255 1.327 . S
C253 H276 0.950 . S
C254 C253 1.349 . S
C254 C266 1.349 . S
C255 C253 1.327 . S
C255 C271 1.429 . S
C255 H277 0.950 . S
C256 H252 0.949 . S
C256 C264 1.574 . S
C256 C272 1.368 . S
H257 C265 0.950 . S
H258 C263 0.950 . S
H259 C264 0.949 1_565 S
H260 C266 0.950 . S
H261 C267 0.950 . S
H262 C268 0.949 . S
C263 H258 0.950 . S
C263 C265 1.327 . S
C263 C269 1.429 . S
C264 C256 1.574 . S
C264 H259 0.949 1_545 S
C264 C270 1.368 . S
C265 C249 1.349 1_545 S
C265 H257 0.950 . S
C265 C263 1.327 . S
C266 C254 1.349 . S
C266 H260 0.950 . S
C266 C267 1.327 . S
C267 H261 0.950 . S
C267 C266 1.327 . S
C267 C271 1.429 . S
C268 C251 1.574 . S
C268 H262 0.949 . S
C268 C272 1.368 . S
C269 C250 1.429 1_545 S
C269 C263 1.429 . S
C269 C270 1.523 . S
C270 C251 1.368 . S
C270 C264 1.368 . S
C270 C269 1.523 . S
C271 C255 1.429 . S
C271 C267 1.429 . S
C271 C272 1.523 . S
C272 C256 1.368 . S
C272 C268 1.368 . S
C272 C271 1.523 . S
H273 C248 0.950 . S
H274 C250 0.950 . S
H275 C251 0.949 . S
H276 C253 0.950 . S
H277 C255 0.950 . S
C278 C279 1.349 . S
C278 C280 1.327 . S
C278 H303 0.950 . S
C279 C278 1.349 . S
C279 C295 1.349 1_565 S
C280 C278 1.327 . S
C280 C299 1.429 . S
C280 H304 0.950 . S
C281 C298 1.574 . S
C281 C300 1.368 . S
C281 H305 0.949 1_565 S
H282 C286 0.949 . S
C283 C284 1.349 . S
C283 C285 1.327 . S
C283 H306 0.950 . S
C284 C283 1.349 . S
C284 C296 1.349 . S
C285 C283 1.327 . S
C285 C301 1.429 . S
C285 H307 0.950 . S
C286 H282 0.949 . S
C286 C294 1.574 . S
C286 C302 1.368 . S
H287 C295 0.950 . S
H288 C293 0.950 . S
H289 C294 0.949 . S
H290 C296 0.950 . S
H291 C297 0.950 . S
H292 C298 0.949 . S
C293 H288 0.950 . S
C293 C295 1.327 . S
C293 C299 1.429 1_545 S
C294 C286 1.574 . S
C294 H289 0.949 . S
C294 C300 1.368 . S
C295 C279 1.349 1_545 S
C295 H287 0.950 . S
C295 C293 1.327 . S
C296 C284 1.349 . S
C296 H290 0.950 . S
C296 C297 1.327 . S
C297 H291 0.950 . S
C297 C296 1.327 . S
C297 C301 1.429 . S
C298 C281 1.574 . S
C298 H292 0.949 . S
C298 C302 1.368 . S
C299 C280 1.429 . S
C299 C293 1.429 1_565 S
C299 C300 1.523 . S
C300 C281 1.368 . S
C300 C294 1.368 . S
C300 C299 1.523 . S
C301 C285 1.429 . S
C301 C297 1.429 . S
C301 C302 1.523 . S
C302 C286 1.368 . S
C302 C298 1.368 . S
C302 C301 1.523 . S
H303 C278 0.950 . S
H304 C280 0.950 . S
H305 C281 0.949 1_545 S
H306 C283 0.950 . S
H307 C285 0.950 . S
C308 C309 1.349 . S
C308 C310 1.327 . S
C308 H333 0.950 . S
C309 C308 1.349 . S
C309 C325 1.349 . S
C310 C308 1.327 . S
C310 C329 1.429 . S
C310 H334 0.950 . S
C311 C328 1.574 . S
C311 C330 1.368 . S
C311 H335 0.949 . S
H312 C316 0.949 . S
C313 C314 1.349 . S
C313 C315 1.327 . S
C313 H336 0.950 . S
C314 C313 1.349 . S
C314 C326 1.349 . S
C315 C313 1.327 . S
C315 C331 1.429 . S
C315 H337 0.950 . S
C316 H312 0.949 . S
C316 C324 1.574 . S
C316 C332 1.368 . S
H317 C325 0.950 . S
H318 C323 0.950 . S
H319 C324 0.949 . S
H320 C326 0.950 . S
H321 C327 0.950 . S
H322 C328 0.949 . S
C323 H318 0.950 . S
C323 C325 1.327 . S
C323 C329 1.429 . S
C324 C316 1.574 . S
C324 H319 0.949 . S
C324 C330 1.368 . S
C325 C309 1.349 . S
C325 H317 0.950 . S
C325 C323 1.327 . S
C326 C314 1.349 . S
C326 H320 0.950 . S
C326 C327 1.327 . S
C327 H321 0.950 . S
C327 C326 1.327 . S
C327 C331 1.429 . S
C328 C311 1.574 . S
C328 H322 0.949 . S
C328 C332 1.368 . S
C329 C310 1.429 . S
C329 C323 1.429 . S
C329 C330 1.523 . S
C330 C311 1.368 . S
C330 C324 1.368 . S
C330 C329 1.523 . S
C331 C315 1.429 . S
C331 C327 1.429 . S
C331 C332 1.523 . S
C332 C316 1.368 . S
C332 C328 1.368 . S
C332 C331 1.523 . S
H333 C308 0.950 . S
H334 C310 0.950 . S
H335 C311 0.949 . S
H336 C313 0.950 . S
H337 C315 0.950 . S
C338 C339 1.349 . S
C338 C340 1.327 . S
C338 H363 0.950 . S
C339 C338 1.349 . S
C339 C355 1.349 . S
C340 C338 1.327 . S
C340 C359 1.429 . S
C340 H364 0.950 . S
C341 C358 1.574 . S
C341 C360 1.368 . S
C341 H365 0.949 . S
H342 C346 0.949 . S
C343 C344 1.349 . S
C343 C345 1.327 . S
C343 H366 0.950 . S
C344 C343 1.349 . S
C344 C356 1.349 . S
C345 C343 1.327 . S
C345 C361 1.429 . S
C345 H367 0.950 . S
C346 H342 0.949 . S
C346 C354 1.574 . S
C346 C362 1.368 . S
H347 C355 0.950 . S
H348 C353 0.950 . S
H349 C354 0.949 . S
H350 C356 0.950 . S
H351 C357 0.950 . S
H352 C358 0.949 . S
C353 H348 0.950 . S
C353 C355 1.327 . S
C353 C359 1.429 . S
C354 C346 1.574 . S
C354 H349 0.949 . S
C354 C360 1.368 . S
C355 C339 1.349 . S
C355 H347 0.950 . S
C355 C353 1.327 . S
C356 C344 1.349 . S
C356 H350 0.950 . S
C356 C357 1.327 . S
C357 H351 0.950 . S
C357 C356 1.327 . S
C357 C361 1.429 . S
C358 C341 1.574 . S
C358 H352 0.949 . S
C358 C362 1.368 . S
C359 C340 1.429 . S
C359 C353 1.429 . S
C359 C360 1.523 . S
C360 C341 1.368 . S
C360 C354 1.368 . S
C360 C359 1.523 . S
C361 C345 1.429 . S
C361 C357 1.429 . S
C361 C362 1.523 . S
C362 C346 1.368 . S
C362 C358 1.368 . S
C362 C361 1.523 . S
H363 C338 0.950 . S
H364 C340 0.950 . S
H365 C341 0.949 . S
H366 C343 0.950 . S
H367 C345 0.950 . S
C368 C369 1.349 . S
C368 C370 1.327 . S
C368 H393 0.950 . S
C369 C368 1.349 . S
C369 C385 1.349 . S
C370 C368 1.327 . S
C370 C389 1.429 . S
C370 H394 0.950 . S
C371 C388 1.574 . S
C371 C390 1.368 . S
C371 H395 0.949 . S
H372 C376 0.949 . S
C373 C374 1.349 . S
C373 C375 1.327 . S
C373 H396 0.950 . S
C374 C373 1.349 . S
C374 C386 1.349 . S
C375 C373 1.327 . S
C375 C391 1.429 . S
C375 H397 0.950 . S
C376 H372 0.949 . S
C376 C384 1.574 . S
C376 C392 1.368 . S
H377 C385 0.950 . S
H378 C383 0.950 . S
H379 C384 0.949 . S
H380 C386 0.950 . S
H381 C387 0.950 . S
H382 C388 0.949 . S
C383 H378 0.950 . S
C383 C385 1.327 . S
C383 C389 1.429 . S
C384 C376 1.574 . S
C384 H379 0.949 . S
C384 C390 1.368 . S
C385 C369 1.349 . S
C385 H377 0.950 . S
C385 C383 1.327 . S
C386 C374 1.349 . S
C386 H380 0.950 . S
C386 C387 1.327 . S
C387 H381 0.950 . S
C387 C386 1.327 . S
C387 C391 1.429 . S
C388 C371 1.574 . S
C388 H382 0.949 . S
C388 C392 1.368 . S
C389 C370 1.429 . S
C389 C383 1.429 . S
C389 C390 1.523 . S
C390 C371 1.368 . S
C390 C384 1.368 . S
C390 C389 1.523 . S
C391 C375 1.429 . S
C391 C387 1.429 . S
C391 C392 1.523 . S
C392 C376 1.368 . S
C392 C388 1.368 . S
C392 C391 1.523 . S
H393 C368 0.950 . S
H394 C370 0.950 . S
H395 C371 0.949 . S
H396 C373 0.950 . S
H397 C375 0.950 . S
C398 C399 1.349 . S
C398 C400 1.327 . S
C398 H423 0.950 . S
C399 C398 1.349 . S
C399 C415 1.349 . S
C400 C398 1.327 . S
C400 C419 1.429 . S
C400 H424 0.950 . S
C401 C418 1.574 . S
C401 C420 1.368 . S
C401 H425 0.949 . S
H402 C406 0.949 . S
C403 C404 1.349 . S
C403 C405 1.327 . S
C403 H426 0.950 . S
C404 C403 1.349 . S
C404 C416 1.349 . S
C405 C403 1.327 . S
C405 C421 1.429 . S
C405 H427 0.950 . S
C406 H402 0.949 . S
C406 C414 1.574 . S
C406 C422 1.368 . S
H407 C415 0.950 . S
H408 C413 0.950 . S
H409 C414 0.949 . S
H410 C416 0.950 . S
H411 C417 0.950 . S
H412 C418 0.949 . S
C413 H408 0.950 . S
C413 C415 1.327 . S
C413 C419 1.429 . S
C414 C406 1.574 . S
C414 H409 0.949 . S
C414 C420 1.368 . S
C415 C399 1.349 . S
C415 H407 0.950 . S
C415 C413 1.327 . S
C416 C404 1.349 . S
C416 H410 0.950 . S
C416 C417 1.327 . S
C417 H411 0.950 . S
C417 C416 1.327 . S
C417 C421 1.429 . S
C418 C401 1.574 . S
C418 H412 0.949 . S
C418 C422 1.368 . S
C419 C400 1.429 . S
C419 C413 1.429 . S
C419 C420 1.523 . S
C420 C401 1.368 . S
C420 C414 1.368 . S
C420 C419 1.523 . S
C421 C405 1.429 . S
C421 C417 1.429 . S
C421 C422 1.523 . S
C422 C406 1.368 . S
C422 C418 1.368 . S
C422 C421 1.523 . S
H423 C398 0.950 . S
H424 C400 0.950 . S
H425 C401 0.949 . S
H426 C403 0.950 . S
H427 C405 0.950 . S
C428 C429 1.349 . S
C428 C430 1.327 . S
C428 H453 0.950 . S
C429 C428 1.349 . S
C429 C445 1.349 . S
C430 C428 1.327 . S
C430 C449 1.429 . S
C430 H454 0.950 . S
C431 C448 1.574 . S
C431 C450 1.368 . S
C431 H455 0.949 . S
H432 C436 0.949 . S
C433 C434 1.349 . S
C433 C435 1.327 . S
C433 H456 0.950 . S
C434 C433 1.349 . S
C434 C446 1.349 . S
C435 C433 1.327 . S
C435 C451 1.429 . S
C435 H457 0.950 . S
C436 H432 0.949 . S
C436 C444 1.574 . S
C436 C452 1.368 . S
H437 C445 0.950 . S
H438 C443 0.950 . S
H439 C444 0.949 . S
H440 C446 0.950 1_545 S
H441 C447 0.950 . S
H442 C448 0.949 . S
C443 H438 0.950 . S
C443 C445 1.327 . S
C443 C449 1.429 . S
C444 C436 1.574 . S
C444 H439 0.949 . S
C444 C450 1.368 . S
C445 C429 1.349 . S
C445 H437 0.950 . S
C445 C443 1.327 . S
C446 C434 1.349 . S
C446 H440 0.950 1_565 S
C446 C447 1.327 . S
C447 H441 0.950 . S
C447 C446 1.327 . S
C447 C451 1.429 . S
C448 C431 1.574 . S
C448 H442 0.949 . S
C448 C452 1.368 . S
C449 C430 1.429 . S
C449 C443 1.429 . S
C449 C450 1.523 . S
C450 C431 1.368 . S
C450 C444 1.368 . S
C450 C449 1.523 . S
C451 C435 1.429 . S
C451 C447 1.429 . S
C451 C452 1.523 . S
C452 C436 1.368 . S
C452 C448 1.368 . S
C452 C451 1.523 . S
H453 C428 0.950 . S
H454 C430 0.950 . S
H455 C431 0.949 . S
H456 C433 0.950 . S
H457 C435 0.950 . S
C458 C459 1.349 . S
C458 C460 1.327 . S
C458 H483 0.950 . S
C459 C458 1.349 . S
C459 C475 1.349 . S
C460 C458 1.327 . S
C460 C479 1.429 . S
C460 H484 0.950 . S
C461 C478 1.574 . S
C461 C480 1.368 . S
C461 H485 0.949 . S
H462 C466 0.949 . S
C463 C464 1.349 . S
C463 C465 1.327 . S
C463 H486 0.950 1_545 S
C464 C463 1.349 . S
C464 C476 1.349 . S
C465 C463 1.327 . S
C465 C481 1.429 . S
C465 H487 0.950 . S
C466 H462 0.949 . S
C466 C474 1.574 . S
C466 C482 1.368 . S
H467 C475 0.950 . S
H468 C473 0.950 . S
H469 C474 0.949 . S
H470 C476 0.950 . S
H471 C477 0.950 . S
H472 C478 0.949 . S
C473 H468 0.950 . S
C473 C475 1.327 . S
C473 C479 1.429 . S
C474 C466 1.574 . S
C474 H469 0.949 . S
C474 C480 1.368 . S
C475 C459 1.349 . S
C475 H467 0.950 . S
C475 C473 1.327 . S
C476 C464 1.349 . S
C476 H470 0.950 . S
C476 C477 1.327 . S
C477 H471 0.950 . S
C477 C476 1.327 . S
C477 C481 1.429 . S
C478 C461 1.574 . S
C478 H472 0.949 . S
C478 C482 1.368 . S
C479 C460 1.429 . S
C479 C473 1.429 . S
C479 C480 1.523 . S
C480 C461 1.368 . S
C480 C474 1.368 . S
C480 C479 1.523 . S
C481 C465 1.429 . S
C481 C477 1.429 . S
C481 C482 1.523 . S
C482 C466 1.368 . S
C482 C478 1.368 . S
C482 C481 1.523 . S
H483 C458 0.950 . S
H484 C460 0.950 . S
H485 C461 0.949 . S
H486 C463 0.950 1_565 S
H487 C465 0.950 . S
C488 C489 1.349 . S
C488 C490 1.327 . S
C488 H513 0.950 . S
C489 C488 1.349 . S
C489 C505 1.349 . S
C490 C488 1.327 . S
C490 C509 1.429 . S
C490 H514 0.950 . S
C491 C508 1.574 . S
C491 C510 1.368 . S
C491 H515 0.949 . S
H492 C496 0.949 . S
C493 C494 1.349 . S
C493 C495 1.331 . S
C493 H516 0.950 . S
C494 C493 1.349 . S
C494 C506 1.349 1_565 S
C495 C493 1.331 . S
C495 C511 1.420 1_565 S
C495 H517 0.955 . S
C496 H492 0.949 . S
C496 C504 1.574 . S
C496 C512 1.368 . S
H497 C505 0.950 . S
H498 C503 0.950 . S
H499 C504 0.949 . S
H500 C506 0.950 . S
H501 C507 0.950 . S
H502 C508 0.949 . S
C503 H498 0.950 . S
C503 C505 1.327 . S
C503 C509 1.429 . S
C504 C496 1.574 . S
C504 H499 0.949 . S
C504 C510 1.368 . S
C505 C489 1.349 . S
C505 H497 0.950 . S
C505 C503 1.327 . S
C506 C494 1.349 1_545 S
C506 H500 0.950 . S
C506 C507 1.327 . S
C507 H501 0.950 . S
C507 C506 1.327 . S
C507 C511 1.429 . S
C508 C491 1.574 . S
C508 H502 0.949 . S
C508 C512 1.368 . S
C509 C490 1.429 . S
C509 C503 1.429 . S
C509 C510 1.523 . S
C510 C491 1.368 . S
C510 C504 1.368 . S
C510 C509 1.523 . S
C511 C495 1.420 1_545 S
C511 C507 1.429 . S
C511 C512 1.523 . S
C512 C496 1.368 . S
C512 C508 1.368 . S
C512 C511 1.523 . S
H513 C488 0.950 . S
H514 C490 0.950 . S
H515 C491 0.949 . S
H516 C493 0.950 . S
H517 C495 0.955 . S
C518 C519 1.349 . S
C518 C520 1.327 . S
C518 H543 0.950 . S
C519 C518 1.349 . S
C519 C535 1.349 1_565 S
C520 C518 1.327 . S
C520 C539 1.429 . S
C520 H544 0.950 . S
C521 C538 1.574 . S
C521 C540 1.368 . S
C521 H545 0.949 . S
H522 C526 0.949 . S
C523 C524 1.349 . S
C523 C525 1.327 . S
C523 H546 0.950 . S
C524 C523 1.349 . S
C524 C536 1.349 . S
C525 C523 1.327 . S
C525 C541 1.429 . S
C525 H547 0.950 . S
C526 H522 0.949 . S
C526 C534 1.574 . S
C526 C542 1.368 . S
H527 C535 0.950 . S
H528 C533 0.948 1_545 S
H529 C534 0.949 . S
H530 C536 0.950 . S
H531 C537 0.950 . S
H532 C538 0.949 . S
C533 H528 0.948 1_565 S
C533 C535 1.326 1_565 S
C533 C539 1.432 . S
C534 C526 1.574 . S
C534 H529 0.949 . S
C534 C540 1.368 . S
C535 C519 1.349 1_545 S
C535 H527 0.950 . S
C535 C533 1.326 1_545 S
C536 C524 1.349 . S
C536 H530 0.950 . S
C536 C537 1.327 . S
C537 H531 0.950 . S
C537 C536 1.327 . S
C537 C541 1.429 . S
C538 C521 1.574 . S
C538 H532 0.949 . S
C538 C542 1.368 . S
C539 C520 1.429 . S
C539 C533 1.432 . S
C539 C540 1.523 . S
C540 C521 1.368 . S
C540 C534 1.368 . S
C540 C539 1.523 . S
C541 C525 1.429 . S
C541 C537 1.429 . S
C541 C542 1.523 . S
C542 C526 1.368 . S
C542 C538 1.368 . S
C542 C541 1.523 . S
H543 C518 0.950 . S
H544 C520 0.950 . S
H545 C521 0.949 . S
H546 C523 0.950 . S
H547 C525 0.950 . S
C548 C549 1.349 . S
C548 C550 1.327 . S
C548 H573 0.950 . S
C549 C548 1.349 . S
C549 C565 1.349 . S
C550 C548 1.327 . S
C550 C569 1.429 . S
C550 H574 0.950 . S
C551 C568 1.574 . S
C551 C570 1.368 . S
C551 H575 0.949 . S
H552 C556 0.949 . S
C553 C554 1.349 . S
C553 C555 1.327 . S
C553 H576 0.950 . S
C554 C553 1.349 . S
C554 C566 1.349 . S
C555 C553 1.327 . S
C555 C571 1.429 . S
C555 H577 0.950 . S
C556 H552 0.949 . S
C556 C564 1.574 . S
C556 C572 1.368 . S
H557 C565 0.950 . S
H558 C563 0.950 . S
H559 C564 0.949 . S
H560 C566 0.950 . S
H561 C567 0.950 . S
H562 C568 0.949 . S
C563 H558 0.950 . S
C563 C565 1.327 . S
C563 C569 1.429 . S
C564 C556 1.574 . S
C564 H559 0.949 . S
C564 C570 1.368 . S
C565 C549 1.349 . S
C565 H557 0.950 . S
C565 C563 1.327 . S
C566 C554 1.349 . S
C566 H560 0.950 . S
C566 C567 1.327 . S
C567 H561 0.950 . S
C567 C566 1.327 . S
C567 C571 1.429 . S
C568 C551 1.574 . S
C568 H562 0.949 . S
C568 C572 1.368 . S
C569 C550 1.429 . S
C569 C563 1.429 . S
C569 C570 1.523 . S
C570 C551 1.368 . S
C570 C564 1.368 . S
C570 C569 1.523 . S
C571 C555 1.429 . S
C571 C567 1.429 . S
C571 C572 1.523 . S
C572 C556 1.368 . S
C572 C568 1.368 . S
C572 C571 1.523 . S
H573 C548 0.950 . S
H574 C550 0.950 . S
H575 C551 0.949 . S
H576 C553 0.950 . S
H577 C555 0.950 . S
C578 C579 1.349 . S
C578 C580 1.327 . S
C578 H603 0.950 . S
C579 C578 1.349 . S
C579 C595 1.349 . S
C580 C578 1.327 . S
C580 C599 1.429 . S
C580 H604 0.950 . S
C581 C598 1.574 . S
C581 C600 1.368 . S
C581 H605 0.949 . S
H582 C586 0.949 . S
C583 C584 1.349 . S
C583 C585 1.327 . S
C583 H606 0.950 . S
C584 C583 1.349 . S
C584 C596 1.349 . S
C585 C583 1.327 . S
C585 C601 1.429 . S
C585 H607 0.950 . S
C586 H582 0.949 . S
C586 C594 1.574 . S
C586 C602 1.368 . S
H587 C595 0.950 . S
H588 C593 0.950 . S
H589 C594 0.949 . S
H590 C596 0.950 . S
H591 C597 0.950 . S
H592 C598 0.949 . S
C593 H588 0.950 . S
C593 C595 1.327 . S
C593 C599 1.429 . S
C594 C586 1.574 . S
C594 H589 0.949 . S
C594 C600 1.368 . S
C595 C579 1.349 . S
C595 H587 0.950 . S
C595 C593 1.327 . S
C596 C584 1.349 . S
C596 H590 0.950 . S
C596 C597 1.327 . S
C597 H591 0.950 . S
C597 C596 1.327 . S
C597 C601 1.429 . S
C598 C581 1.574 . S
C598 H592 0.949 . S
C598 C602 1.368 . S
C599 C580 1.429 . S
C599 C593 1.429 . S
C599 C600 1.523 . S
C600 C581 1.368 . S
C600 C594 1.368 . S
C600 C599 1.523 . S
C601 C585 1.429 . S
C601 C597 1.429 . S
C601 C602 1.523 . S
C602 C586 1.368 . S
C602 C598 1.368 . S
C602 C601 1.523 . S
H603 C578 0.950 . S
H604 C580 0.950 . S
H605 C581 0.949 . S
H606 C583 0.950 . S
H607 C585 0.950 . S
C608 C609 1.349 . S
C608 C610 1.327 . S
C608 H633 0.950 . S
C609 C608 1.349 . S
C609 C625 1.349 . S
C610 C608 1.327 . S
C610 C629 1.429 . S
C610 H634 0.950 . S
C611 C628 1.574 . S
C611 C630 1.368 . S
C611 H635 0.949 . S
H612 C616 0.949 . S
C613 C614 1.349 . S
C613 C615 1.327 . S
C613 H636 0.950 . S
C614 C613 1.349 . S
C614 C626 1.349 . S
C615 C613 1.327 . S
C615 C631 1.429 . S
C615 H637 0.950 . S
C616 H612 0.949 . S
C616 C624 1.574 . S
C616 C632 1.368 . S
H617 C625 0.950 . S
H618 C623 0.950 . S
H619 C624 0.949 . S
H620 C626 0.950 . S
H621 C627 0.950 . S
H622 C628 0.949 . S
C623 H618 0.950 . S
C623 C625 1.327 . S
C623 C629 1.429 . S
C624 C616 1.574 . S
C624 H619 0.949 . S
C624 C630 1.368 . S
C625 C609 1.349 . S
C625 H617 0.950 . S
C625 C623 1.327 . S
C626 C614 1.349 . S
C626 H620 0.950 . S
C626 C627 1.327 . S
C627 H621 0.950 . S
C627 C626 1.327 . S
C627 C631 1.429 . S
C628 C611 1.574 . S
C628 H622 0.949 . S
C628 C632 1.368 . S
C629 C610 1.429 . S
C629 C623 1.429 . S
C629 C630 1.523 . S
C630 C611 1.368 . S
C630 C624 1.368 . S
C630 C629 1.523 . S
C631 C615 1.429 . S
C631 C627 1.429 . S
C631 C632 1.523 . S
C632 C616 1.368 . S
C632 C628 1.368 . S
C632 C631 1.523 . S
H633 C608 0.950 . S
H634 C610 0.950 . S
H635 C611 0.949 . S
H636 C613 0.950 . S
H637 C615 0.950 . S
C638 C639 1.349 . S
C638 C640 1.327 . S
C638 H663 0.950 . S
C639 C638 1.349 . S
C639 C655 1.349 . S
C640 C638 1.327 . S
C640 C659 1.429 . S
C640 H664 0.950 . S
C641 C658 1.574 . S
C641 C660 1.368 . S
C641 H665 0.949 . S
H642 C646 0.949 . S
C643 C644 1.349 . S
C643 C645 1.327 . S
C643 H666 0.950 . S
C644 C643 1.349 . S
C644 C656 1.349 . S
C645 C643 1.327 . S
C645 C661 1.429 . S
C645 H667 0.950 . S
C646 H642 0.949 . S
C646 C654 1.574 . S
C646 C662 1.368 . S
H647 C655 0.950 . S
H648 C653 0.950 . S
H649 C654 0.949 . S
H650 C656 0.950 . S
H651 C657 0.950 . S
H652 C658 0.949 . S
C653 H648 0.950 . S
C653 C655 1.327 . S
C653 C659 1.429 . S
C654 C646 1.574 . S
C654 H649 0.949 . S
C654 C660 1.368 . S
C655 C639 1.349 . S
C655 H647 0.950 . S
C655 C653 1.327 . S
C656 C644 1.349 . S
C656 H650 0.950 . S
C656 C657 1.327 . S
C657 H651 0.950 . S
C657 C656 1.327 . S
C657 C661 1.429 . S
C658 C641 1.574 . S
C658 H652 0.949 . S
C658 C662 1.368 . S
C659 C640 1.429 . S
C659 C653 1.429 . S
C659 C660 1.523 . S
C660 C641 1.368 . S
C660 C654 1.368 . S
C660 C659 1.523 . S
C661 C645 1.429 . S
C661 C657 1.429 . S
C661 C662 1.523 . S
C662 C646 1.368 . S
C662 C658 1.368 . S
C662 C661 1.523 . S
H663 C638 0.950 . S
H664 C640 0.950 . S
H665 C641 0.949 . S
H666 C643 0.950 . S
H667 C645 0.950 . S
C668 C669 1.349 1_545 S
C668 C670 1.327 1_545 S
C668 H693 0.950 . S
C669 C668 1.349 1_565 S
C669 C685 1.349 . S
C670 C668 1.327 1_565 S
C670 C689 1.429 . S
C670 H694 0.950 1_565 S
C671 C688 1.574 . S
C671 C690 1.368 . S
C671 H695 0.949 . S
H672 C676 0.949 . S
C673 C674 1.349 . S
C673 C675 1.327 . S
C673 H696 0.950 . S
C674 C673 1.349 . S
C674 C686 1.349 . S
C675 C673 1.327 . S
C675 C691 1.429 . S
C675 H697 0.950 . S
C676 H672 0.949 . S
C676 C684 1.574 . S
C676 C692 1.368 . S
H677 C685 0.950 . S
H678 C683 0.950 . S
H679 C684 0.949 . S
H680 C686 0.950 . S
H681 C687 0.950 . S
H682 C688 0.949 . S
C683 H678 0.950 . S
C683 C685 1.327 . S
C683 C689 1.429 . S
C684 C676 1.574 . S
C684 H679 0.949 . S
C684 C690 1.368 . S
C685 C669 1.349 . S
C685 H677 0.950 . S
C685 C683 1.327 . S
C686 C674 1.349 . S
C686 H680 0.950 . S
C686 C687 1.327 . S
C687 H681 0.950 . S
C687 C686 1.327 . S
C687 C691 1.429 . S
C688 C671 1.574 . S
C688 H682 0.949 . S
C688 C692 1.368 . S
C689 C670 1.429 . S
C689 C683 1.429 . S
C689 C690 1.523 . S
C690 C671 1.368 . S
C690 C684 1.368 . S
C690 C689 1.523 . S
C691 C675 1.429 . S
C691 C687 1.429 . S
C691 C692 1.523 . S
C692 C676 1.368 . S
C692 C688 1.368 . S
C692 C691 1.523 . S
H693 C668 0.950 . S
H694 C670 0.950 1_545 S
H695 C671 0.949 . S
H696 C673 0.950 . S
H697 C675 0.950 . S
C698 C699 1.349 . S
C698 C700 1.327 . S
C698 H723 0.950 . S
C699 C698 1.349 . S
C699 C715 1.349 . S
C700 C698 1.327 . S
C700 C719 1.429 . S
C700 H724 0.950 . S
C701 C718 1.574 . S
C701 C720 1.368 . S
C701 H725 0.949 . S
H702 C706 0.949 . S
C703 C704 1.349 . S
C703 C705 1.327 . S
C703 H726 0.950 . S
C704 C703 1.349 . S
C704 C716 1.349 . S
C705 C703 1.327 . S
C705 C721 1.429 . S
C705 H727 0.950 . S
C706 H702 0.949 . S
C706 C714 1.574 . S
C706 C722 1.368 . S
H707 C715 0.950 1_565 S
H708 C713 0.950 . S
H709 C714 0.949 . S
H710 C716 0.950 . S
H711 C717 0.950 . S
H712 C718 0.949 . S
C713 H708 0.950 . S
C713 C715 1.327 . S
C713 C719 1.429 . S
C714 C706 1.574 . S
C714 H709 0.949 . S
C714 C720 1.368 . S
C715 C699 1.349 . S
C715 H707 0.950 1_545 S
C715 C713 1.327 . S
C716 C704 1.349 . S
C716 H710 0.950 . S
C716 C717 1.327 . S
C717 H711 0.950 . S
C717 C716 1.327 . S
C717 C721 1.429 . S
C718 C701 1.574 . S
C718 H712 0.949 . S
C718 C722 1.368 . S
C719 C700 1.429 . S
C719 C713 1.429 . S
C719 C720 1.523 . S
C720 C701 1.368 . S
C720 C714 1.368 . S
C720 C719 1.523 . S
C721 C705 1.429 . S
C721 C717 1.429 . S
C721 C722 1.523 . S
C722 C706 1.368 . S
C722 C718 1.368 . S
C722 C721 1.523 . S
H723 C698 0.950 . S
H724 C700 0.950 . S
H725 C701 0.949 . S
H726 C703 0.950 . S
H727 C705 0.950 . S
C728 C729 1.349 1_655 S
C728 C730 1.327 . S
C728 H753 0.950 . S
C729 C728 1.349 1_455 S
C729 C745 1.349 1_554 S
C730 C728 1.327 . S
C730 C749 1.429 1_655 S
C730 H754 0.950 . S
C731 C748 1.574 . S
C731 C750 1.368 1_556 S
C731 H755 0.949 . S
H732 C736 0.949 . S
C733 C734 1.406 . S
C733 C735 1.327 . S
C733 H756 0.950 . S
C734 C733 1.406 . S
C734 C746 1.297 1_456 S
C735 C733 1.327 . S
C735 C751 1.428 1_556 S
C735 H757 0.950 . S
C736 H732 0.949 . S
C736 C744 1.574 . S
C736 C752 1.403 1_655 S
H737 C745 0.950 . S
H738 C743 0.950 . S
H739 C744 0.949 . S
H740 C746 0.950 . S
H741 C747 0.950 . S
H742 C748 0.949 . S
C743 H738 0.950 . S
C743 C745 1.327 . S
C743 C749 1.429 1_556 S
C744 C736 1.574 . S
C744 H739 0.949 . S
C744 C750 1.368 1_655 S
C745 C729 1.349 1_556 S
C745 H737 0.950 . S
C745 C743 1.327 . S
C746 C734 1.297 1_654 S
C746 H740 0.950 . S
C746 C747 1.327 . S
C747 H741 0.950 . S
C747 C746 1.327 . S
C747 C751 1.430 1_655 S
C748 C731 1.574 . S
C748 H742 0.949 . S
C748 C752 1.333 1_556 S
C749 C730 1.429 1_455 S
C749 C743 1.429 1_554 S
C749 C750 1.523 . S
C750 C731 1.368 1_554 S
C750 C744 1.368 1_455 S
C750 C749 1.523 . S
C751 C735 1.428 1_554 S
C751 C747 1.430 1_455 S
C751 C752 1.526 . S
C752 C736 1.403 1_455 S
C752 C748 1.333 1_554 S
C752 C751 1.526 . S
H753 C728 0.950 . S
H754 C730 0.950 . S
H755 C731 0.949 . S
H756 C733 0.950 . S
H757 C735 0.950 . S
C758 C759 1.349 . S
C758 C760 1.327 . S
C758 H783 0.950 . S
C759 C758 1.349 . S
C759 C775 1.349 . S
C760 C758 1.327 . S
C760 C779 1.429 . S
C760 H784 0.950 . S
C761 C778 1.574 . S
C761 C780 1.368 . S
C761 H785 0.949 . S
H762 C766 0.949 . S
C763 C764 1.349 . S
C763 C765 1.327 1_545 S
C763 H786 0.950 . S
C764 C763 1.349 . S
C764 C776 1.349 . S
C765 C763 1.327 1_565 S
C765 C781 1.429 . S
C765 H787 0.950 . S
C766 H762 0.949 . S
C766 C774 1.574 . S
C766 C782 1.368 . S
H767 C775 0.950 . S
H768 C773 0.950 . S
H769 C774 0.949 . S
H770 C776 0.950 . S
H771 C777 0.950 . S
H772 C778 0.949 . S
C773 H768 0.950 . S
C773 C775 1.327 . S
C773 C779 1.429 . S
C774 C766 1.574 . S
C774 H769 0.949 . S
C774 C780 1.368 . S
C775 C759 1.349 . S
C775 H767 0.950 . S
C775 C773 1.327 . S
C776 C764 1.349 . S
C776 H770 0.950 . S
C776 C777 1.327 1_545 S
C777 H771 0.950 . S
C777 C776 1.327 1_565 S
C777 C781 1.429 . S
C778 C761 1.574 . S
C778 H772 0.949 . S
C778 C782 1.368 . S
C779 C760 1.429 . S
C779 C773 1.429 . S
C779 C780 1.523 . S
C780 C761 1.368 . S
C780 C774 1.368 . S
C780 C779 1.523 . S
C781 C765 1.429 . S
C781 C777 1.429 . S
C781 C782 1.523 . S
C782 C766 1.368 . S
C782 C778 1.368 . S
C782 C781 1.523 . S
H783 C758 0.950 . S
H784 C760 0.950 . S
H785 C761 0.949 . S
H786 C763 0.950 . S
H787 C765 0.950 . S
C788 C789 1.349 . S
C788 C790 1.327 1_565 S
C788 H813 0.950 . S
C789 C788 1.349 . S
C789 C805 1.349 . S
C790 C788 1.327 1_545 S
C790 C809 1.429 . S
C790 H814 0.950 . S
C791 C808 1.574 . S
C791 C810 1.368 . S
C791 H815 0.949 . S
H792 C796 0.949 . S
C793 C794 1.349 . S
C793 C795 1.327 . S
C793 H816 0.950 . S
C794 C793 1.349 . S
C794 C806 1.349 . S
C795 C793 1.327 . S
C795 C811 1.429 . S
C795 H817 0.950 . S
C796 H792 0.949 . S
C796 C804 1.574 . S
C796 C812 1.368 . S
H797 C805 0.950 . S
H798 C803 0.950 . S
H799 C804 0.949 . S
H800 C806 0.950 . S
H801 C807 0.950 . S
H802 C808 0.949 . S
C803 H798 0.950 . S
C803 C805 1.327 1_545 S
C803 C809 1.429 . S
C804 C796 1.574 . S
C804 H799 0.949 . S
C804 C810 1.368 . S
C805 C789 1.349 . S
C805 H797 0.950 . S
C805 C803 1.327 1_565 S
C806 C794 1.349 . S
C806 H800 0.950 . S
C806 C807 1.327 . S
C807 H801 0.950 . S
C807 C806 1.327 . S
C807 C811 1.429 . S
C808 C791 1.574 . S
C808 H802 0.949 . S
C808 C812 1.368 . S
C809 C790 1.429 . S
C809 C803 1.429 . S
C809 C810 1.523 . S
C810 C791 1.368 . S
C810 C804 1.368 . S
C810 C809 1.523 . S
C811 C795 1.429 . S
C811 C807 1.429 . S
C811 C812 1.523 . S
C812 C796 1.368 . S
C812 C808 1.368 . S
C812 C811 1.523 . S
H813 C788 0.950 . S
H814 C790 0.950 . S
H815 C791 0.949 . S
H816 C793 0.950 . S
H817 C795 0.950 . S
C818 C819 1.340 1_655 S
C818 C820 1.327 . S
C818 H843 0.950 . S
C819 C818 1.340 1_455 S
C819 C835 1.358 . S
C820 C818 1.327 . S
C820 C839 1.429 1_655 S
C820 H844 0.950 . S
C821 C838 1.574 1_565 S
C821 C840 1.368 . S
C821 H845 0.949 . S
H822 C826 0.949 . S
C823 C824 1.349 . S
C823 C825 1.327 . S
C823 H846 0.950 . S
C824 C823 1.349 . S
C824 C836 1.349 1_455 S
C825 C823 1.327 . S
C825 C841 1.429 . S
C825 H847 0.950 . S
C826 H822 0.949 . S
C826 C834 1.574 1_545 S
C826 C842 1.368 1_655 S
H827 C835 0.950 . S
H828 C833 0.950 . S
H829 C834 0.949 . S
H830 C836 0.950 . S
H831 C837 0.950 . S
H832 C838 0.949 . S
C833 H828 0.950 . S
C833 C835 1.327 . S
C833 C839 1.429 . S
C834 C826 1.574 1_565 S
C834 H829 0.949 . S
C834 C840 1.368 1_655 S
C835 C819 1.358 . S
C835 H827 0.950 . S
C835 C833 1.327 . S
C836 C824 1.349 1_655 S
C836 H830 0.950 . S
C836 C837 1.327 . S
C837 H831 0.950 . S
C837 C836 1.327 . S
C837 C841 1.429 1_655 S
C838 C821 1.574 1_545 S
C838 H832 0.949 . S
C838 C842 1.368 . S
C839 C820 1.429 1_455 S
C839 C833 1.429 . S
C839 C840 1.523 . S
C840 C821 1.368 . S
C840 C834 1.368 1_455 S
C840 C839 1.523 . S
C841 C825 1.429 . S
C841 C837 1.429 1_455 S
C841 C842 1.523 . S
C842 C826 1.368 1_455 S
C842 C838 1.368 . S
C842 C841 1.523 . S
H843 C818 0.950 . S
H844 C820 0.950 . S
H845 C821 0.949 . S
H846 C823 0.950 . S
H847 C825 0.950 . S
C848 C849 1.349 . S
C848 C850 1.327 1_565 S
C848 H873 0.950 . S
C849 C848 1.349 . S
C849 C865 1.349 . S
C850 C848 1.327 1_545 S
C850 C869 1.429 . S
C850 H874 0.950 . S
C851 C868 1.574 . S
C851 C870 1.368 . S
C851 H875 0.949 . S
H852 C856 0.949 . S
C853 C854 1.349 . S
C853 C855 1.327 . S
C853 H876 0.950 . S
C854 C853 1.349 . S
C854 C866 1.349 . S
C855 C853 1.327 . S
C855 C871 1.429 . S
C855 H877 0.950 . S
C856 H852 0.949 . S
C856 C864 1.574 . S
C856 C872 1.368 . S
H857 C865 0.950 . S
H858 C863 0.950 . S
H859 C864 0.949 . S
H860 C866 0.950 . S
H861 C867 0.950 . S
H862 C868 0.949 . S
C863 H858 0.950 . S
C863 C865 1.327 1_545 S
C863 C869 1.429 . S
C864 C856 1.574 . S
C864 H859 0.949 . S
C864 C870 1.368 . S
C865 C849 1.349 . S
C865 H857 0.950 . S
C865 C863 1.327 1_565 S
C866 C854 1.349 . S
C866 H860 0.950 . S
C866 C867 1.327 . S
C867 H861 0.950 . S
C867 C866 1.327 . S
C867 C871 1.429 . S
C868 C851 1.574 . S
C868 H862 0.949 . S
C868 C872 1.368 . S
C869 C850 1.429 . S
C869 C863 1.429 . S
C869 C870 1.523 . S
C870 C851 1.368 . S
C870 C864 1.368 . S
C870 C869 1.523 . S
C871 C855 1.429 . S
C871 C867 1.429 . S
C871 C872 1.523 . S
C872 C856 1.368 . S
C872 C868 1.368 . S
C872 C871 1.523 . S
H873 C848 0.950 . S
H874 C850 0.950 . S
H875 C851 0.949 . S
H876 C853 0.950 . S
H877 C855 0.950 . S
C878 C879 1.349 . S
C878 C880 1.327 . S
C878 H903 0.950 . S
C879 C878 1.349 . S
C879 C895 1.349 . S
C880 C878 1.327 . S
C880 C899 1.429 . S
C880 H904 0.950 . S
C881 C898 1.574 . S
C881 C900 1.368 . S
C881 H905 0.949 . S
H882 C886 0.949 . S
C883 C884 1.349 . S
C883 C885 1.327 1_545 S
C883 H906 0.950 . S
C884 C883 1.349 . S
C884 C896 1.349 . S
C885 C883 1.327 1_565 S
C885 C901 1.429 . S
C885 H907 0.950 . S
C886 H882 0.949 . S
C886 C894 1.574 . S
C886 C902 1.368 . S
H887 C895 0.950 . S
H888 C893 0.950 . S
H889 C894 0.949 . S
H890 C896 0.950 . S
H891 C897 0.950 . S
H892 C898 0.949 . S
C893 H888 0.950 . S
C893 C895 1.327 . S
C893 C899 1.429 . S
C894 C886 1.574 . S
C894 H889 0.949 . S
C894 C900 1.368 . S
C895 C879 1.349 . S
C895 H887 0.950 . S
C895 C893 1.327 . S
C896 C884 1.349 . S
C896 H890 0.950 . S
C896 C897 1.327 1_545 S
C897 H891 0.950 . S
C897 C896 1.327 1_565 S
C897 C901 1.429 . S
C898 C881 1.574 . S
C898 H892 0.949 . S
C898 C902 1.368 . S
C899 C880 1.429 . S
C899 C893 1.429 . S
C899 C900 1.523 . S
C900 C881 1.368 . S
C900 C894 1.368 . S
C900 C899 1.523 . S
C901 C885 1.429 . S
C901 C897 1.429 . S
C901 C902 1.523 . S
C902 C886 1.368 . S
C902 C898 1.368 . S
C902 C901 1.523 . S
H903 C878 0.950 . S
H904 C880 0.950 . S
H905 C881 0.949 . S
H906 C883 0.950 . S
H907 C885 0.950 . S
C908 C909 1.349 . S
C908 C910 1.327 . S
C908 H933 0.950 . S
C909 C908 1.349 . S
C909 C925 1.349 . S
C910 C908 1.327 . S
C910 C929 1.429 . S
C910 H934 0.950 . S
C911 C928 1.574 . S
C911 C930 1.368 . S
C911 H935 0.949 . S
H912 C916 0.949 . S
C913 C914 1.349 . S
C913 C915 1.327 . S
C913 H936 0.950 . S
C914 C913 1.349 . S
C914 C926 1.349 . S
C915 C913 1.327 . S
C915 C931 1.429 . S
C915 H937 0.950 . S
C916 H912 0.949 . S
C916 C924 1.574 . S
C916 C932 1.368 . S
H917 C925 0.950 . S
H918 C923 0.950 . S
H919 C924 0.949 . S
H920 C926 0.950 . S
H921 C927 0.950 . S
H922 C928 0.949 . S
C923 H918 0.950 . S
C923 C925 1.327 . S
C923 C929 1.429 . S
C924 C916 1.574 . S
C924 H919 0.949 . S
C924 C930 1.368 . S
C925 C909 1.349 . S
C925 H917 0.950 . S
C925 C923 1.327 . S
C926 C914 1.349 . S
C926 H920 0.950 . S
C926 C927 1.327 . S
C927 H921 0.950 . S
C927 C926 1.327 . S
C927 C931 1.429 . S
C928 C911 1.574 . S
C928 H922 0.949 . S
C928 C932 1.368 . S
C929 C910 1.429 . S
C929 C923 1.429 . S
C929 C930 1.523 . S
C930 C911 1.368 . S
C930 C924 1.368 . S
C930 C929 1.523 . S
C931 C915 1.429 . S
C931 C927 1.429 . S
C931 C932 1.523 . S
C932 C916 1.368 . S
C932 C928 1.368 . S
C932 C931 1.523 . S
H933 C908 0.950 . S
H934 C910 0.950 . S
H935 C911 0.949 . S
H936 C913 0.950 . S
H937 C915 0.950 . S
C938 C939 1.311 1_554 S
C938 C940 1.327 . S
C938 H963 0.950 . S
C939 C938 1.311 1_556 S
C939 C955 1.392 . S
C940 C938 1.327 . S
C940 C959 1.430 . S
C940 H964 0.950 . S
C941 C958 1.574 1_565 S
C941 C960 1.337 1_556 S
C941 H965 0.949 . S
H942 C946 0.949 . S
C943 C944 1.349 1_556 S
C943 C945 1.327 . S
C943 H966 0.950 . S
C944 C943 1.349 1_554 S
C944 C956 1.349 . S
C945 C943 1.327 . S
C945 C961 1.429 1_556 S
C945 H967 0.950 . S
C946 H942 0.949 . S
C946 C954 1.574 1_545 S
C946 C962 1.368 . S
H947 C955 0.950 . S
H948 C953 0.950 . S
H949 C954 0.949 . S
H950 C956 0.950 . S
H951 C957 0.950 . S
H952 C958 0.949 . S
C953 H948 0.950 . S
C953 C955 1.327 . S
C953 C959 1.428 1_556 S
C954 C946 1.574 1_565 S
C954 H949 0.949 . S
C954 C960 1.398 . S
C955 C939 1.392 . S
C955 H947 0.950 . S
C955 C953 1.327 . S
C956 C944 1.349 . S
C956 H950 0.950 . S
C956 C957 1.327 . S
C957 H951 0.950 . S
C957 C956 1.327 . S
C957 C961 1.429 . S
C958 C941 1.574 1_545 S
C958 H952 0.949 . S
C958 C962 1.368 1_556 S
C959 C940 1.430 . S
C959 C953 1.428 1_554 S
C959 C960 1.526 . S
C960 C941 1.337 1_554 S
C960 C954 1.398 . S
C960 C959 1.526 . S
C961 C945 1.429 1_554 S
C961 C957 1.429 . S
C961 C962 1.523 . S
C962 C946 1.368 . S
C962 C958 1.368 1_554 S
C962 C961 1.523 . S
H963 C938 0.950 . S
H964 C940 0.950 . S
H965 C941 0.949 . S
H966 C943 0.950 . S
H967 C945 0.950 . S
C968 C969 1.349 . S
C968 C970 1.327 . S
C968 H993 0.950 . S
C969 C968 1.349 . S
C969 C985 1.349 1_556 S
C970 C968 1.327 . S
C970 C989 1.460 . S
C970 H994 0.950 . S
C971 C988 1.574 . S
C971 C990 1.385 . S
C971 H995 0.949 . S
H972 C976 0.949 . S
C973 C974 1.349 . S
C973 C975 1.327 . S
C973 H996 0.950 . S
C974 C973 1.349 . S
C974 C986 1.349 1_554 S
C975 C973 1.327 . S
C975 C991 1.429 . S
C975 H997 0.950 . S
C976 H972 0.949 . S
C976 C984 1.574 . S
C976 C992 1.368 1_556 S
H977 C985 0.950 . S
H978 C983 0.950 . S
H979 C984 0.949 . S
H980 C986 0.950 . S
H981 C987 0.950 . S
H982 C988 0.949 . S
C983 H978 0.950 . S
C983 C985 1.327 . S
C983 C989 1.402 1_554 S
C984 C976 1.574 . S
C984 H979 0.949 . S
C984 C990 1.353 1_556 S
C985 C969 1.349 1_554 S
C985 H977 0.950 . S
C985 C983 1.327 . S
C986 C974 1.349 1_556 S
C986 H980 0.950 . S
C986 C987 1.327 . S
C987 H981 0.950 . S
C987 C986 1.327 . S
C987 C991 1.429 1_556 S
C988 C971 1.574 . S
C988 H982 0.949 . S
C988 C992 1.368 . S
C989 C970 1.460 . S
C989 C983 1.402 1_556 S
C989 C990 1.519 1_556 S
C990 C971 1.385 . S
C990 C984 1.353 1_554 S
C990 C989 1.519 1_554 S
C991 C975 1.429 . S
C991 C987 1.429 1_554 S
C991 C992 1.523 . S
C992 C976 1.368 1_554 S
C992 C988 1.368 . S
C992 C991 1.523 . S
H993 C968 0.950 . S
H994 C970 0.950 . S
H995 C971 0.949 . S
H996 C973 0.950 . S
H997 C975 0.950 . S
C998 C999 1.349 . S
C998 C1000 1.327 . S
C998 H1023 0.950 . S
C999 C998 1.349 . S
C999 C1015 1.349 1_556 S
C1000 C998 1.327 . S
C1000 C1019 1.442 . S
C1000 H1024 0.950 . S
C1001 C1018 1.574 . S
C1001 C1020 1.375 . S
C1001 H1025 0.949 . S
H1002 C1006 0.949 . S
C1003 C1004 1.349 . S
C1003 C1005 1.327 . S
C1003 H1026 0.950 . S
C1004 C1003 1.349 . S
C1004 C1016 1.349 1_554 S
C1005 C1003 1.327 . S
C1005 C1021 1.429 . S
C1005 H1027 0.950 . S
C1006 H1002 0.949 . S
C1006 C1014 1.574 . S
C1006 C1022 1.368 1_556 S
H1007 C1015 0.950 . S
H1008 C1013 0.950 . S
H1009 C1014 0.949 . S
H1010 C1016 0.950 . S
H1011 C1017 0.950 . S
H1012 C1018 0.949 . S
C1013 H1008 0.950 . S
C1013 C1015 1.327 . S
C1013 C1019 1.420 1_554 S
C1014 C1006 1.574 . S
C1014 H1009 0.949 . S
C1014 C1020 1.363 1_556 S
C1015 C999 1.349 1_554 S
C1015 H1007 0.950 . S
C1015 C1013 1.327 . S
C1016 C1004 1.349 1_556 S
C1016 H1010 0.950 . S
C1016 C1017 1.327 . S
C1017 H1011 0.950 . S
C1017 C1016 1.327 . S
C1017 C1021 1.429 1_556 S
C1018 C1001 1.574 . S
C1018 H1012 0.949 . S
C1018 C1022 1.368 . S
C1019 C1000 1.442 . S
C1019 C1013 1.420 1_556 S
C1019 C1020 1.519 1_556 S
C1020 C1001 1.375 . S
C1020 C1014 1.363 1_554 S
C1020 C1019 1.519 1_554 S
C1021 C1005 1.429 . S
C1021 C1017 1.429 1_554 S
C1021 C1022 1.523 . S
C1022 C1006 1.368 1_554 S
C1022 C1018 1.368 . S
C1022 C1021 1.523 . S
H1023 C998 0.950 . S
H1024 C1000 0.950 . S
H1025 C1001 0.949 . S
H1026 C1003 0.950 . S
H1027 C1005 0.950 . S
C1028 C1029 1.349 . S
C1028 C1030 1.327 . S
C1028 H1053 0.950 . S
C1029 C1028 1.349 . S
C1029 C1045 1.349 . S
C1030 C1028 1.327 . S
C1030 C1049 1.429 . S
C1030 H1054 0.950 . S
C1031 C1048 1.574 1_455 S
C1031 C1050 1.368 . S
C1031 H1055 0.949 . S
H1032 C1036 0.949 . S
C1033 C1034 1.349 . S
C1033 C1035 1.327 . S
C1033 H1056 0.950 . S
C1034 C1033 1.349 . S
C1034 C1046 1.349 . S
C1035 C1033 1.327 . S
C1035 C1051 1.429 . S
C1035 H1057 0.950 . S
C1036 H1032 0.949 . S
C1036 C1044 1.574 1_655 S
C1036 C1052 1.368 . S
H1037 C1045 0.950 . S
H1038 C1043 0.950 . S
H1039 C1044 0.949 . S
H1040 C1046 0.950 . S
H1041 C1047 0.950 . S
H1042 C1048 0.949 . S
C1043 H1038 0.950 . S
C1043 C1045 1.327 . S
C1043 C1049 1.429 . S
C1044 C1036 1.574 1_455 S
C1044 H1039 0.949 . S
C1044 C1050 1.368 . S
C1045 C1029 1.349 . S
C1045 H1037 0.950 . S
C1045 C1043 1.327 . S
C1046 C1034 1.349 . S
C1046 H1040 0.950 . S
C1046 C1047 1.327 . S
C1047 H1041 0.950 . S
C1047 C1046 1.327 . S
C1047 C1051 1.429 . S
C1048 C1031 1.574 1_655 S
C1048 H1042 0.949 . S
C1048 C1052 1.368 . S
C1049 C1030 1.429 . S
C1049 C1043 1.429 . S
C1049 C1050 1.523 . S
C1050 C1031 1.368 . S
C1050 C1044 1.368 . S
C1050 C1049 1.523 . S
C1051 C1035 1.429 . S
C1051 C1047 1.429 . S
C1051 C1052 1.523 . S
C1052 C1036 1.368 . S
C1052 C1048 1.368 . S
C1052 C1051 1.523 . S
H1053 C1028 0.950 . S
H1054 C1030 0.950 . S
H1055 C1031 0.949 . S
H1056 C1033 0.950 . S
H1057 C1035 0.950 . S
C1058 C1059 1.349 . S
C1058 C1060 1.327 . S
C1058 H1083 0.950 . S
C1059 C1058 1.349 . S
C1059 C1075 1.349 . S
C1060 C1058 1.327 . S
C1060 C1079 1.429 . S
C1060 H1084 0.950 . S
C1061 C1078 1.574 . S
C1061 C1080 1.368 . S
C1061 H1085 0.949 . S
H1062 C1066 0.949 . S
C1063 C1064 1.349 . S
C1063 C1065 1.327 . S
C1063 H1086 0.950 . S
C1064 C1063 1.349 . S
C1064 C1076 1.349 . S
C1065 C1063 1.327 . S
C1065 C1081 1.429 . S
C1065 H1087 0.950 . S
C1066 H1062 0.949 . S
C1066 C1074 1.574 . S
C1066 C1082 1.368 . S
H1067 C1075 0.950 . S
H1068 C1073 0.950 . S
H1069 C1074 0.949 . S
H1070 C1076 0.950 . S
H1071 C1077 0.950 . S
H1072 C1078 0.949 . S
C1073 H1068 0.950 . S
C1073 C1075 1.327 . S
C1073 C1079 1.429 . S
C1074 C1066 1.574 . S
C1074 H1069 0.949 . S
C1074 C1080 1.368 . S
C1075 C1059 1.349 . S
C1075 H1067 0.950 . S
C1075 C1073 1.327 . S
C1076 C1064 1.349 . S
C1076 H1070 0.950 . S
C1076 C1077 1.327 . S
C1077 H1071 0.950 . S
C1077 C1076 1.327 . S
C1077 C1081 1.429 . S
C1078 C1061 1.574 . S
C1078 H1072 0.949 . S
C1078 C1082 1.368 . S
C1079 C1060 1.429 . S
C1079 C1073 1.429 . S
C1079 C1080 1.523 . S
C1080 C1061 1.368 . S
C1080 C1074 1.368 . S
C1080 C1079 1.523 . S
C1081 C1065 1.429 . S
C1081 C1077 1.429 . S
C1081 C1082 1.523 . S
C1082 C1066 1.368 . S
C1082 C1078 1.368 . S
C1082 C1081 1.523 . S
H1083 C1058 0.950 . S
H1084 C1060 0.950 . S
H1085 C1061 0.949 . S
H1086 C1063 0.950 . S
H1087 C1065 0.950 . S
C1088 C1089 1.349 . S
C1088 C1090 1.327 . S
C1088 H1113 0.950 . S
C1089 C1088 1.349 . S
C1089 C1105 1.349 . S
C1090 C1088 1.327 . S
C1090 C1109 1.429 . S
C1090 H1114 0.950 . S
C1091 C1108 1.574 . S
C1091 C1110 1.368 . S
C1091 H1115 0.949 . S
H1092 C1096 0.949 . S
C1093 C1094 1.349 . S
C1093 C1095 1.327 . S
C1093 H1116 0.950 . S
C1094 C1093 1.349 . S
C1094 C1106 1.349 . S
C1095 C1093 1.327 . S
C1095 C1111 1.429 . S
C1095 H1117 0.950 . S
C1096 H1092 0.949 . S
C1096 C1104 1.574 . S
C1096 C1112 1.368 . S
H1097 C1105 0.950 . S
H1098 C1103 0.950 . S
H1099 C1104 0.949 . S
H1100 C1106 0.950 . S
H1101 C1107 0.950 . S
H1102 C1108 0.949 . S
C1103 H1098 0.950 . S
C1103 C1105 1.327 . S
C1103 C1109 1.429 . S
C1104 C1096 1.574 . S
C1104 H1099 0.949 . S
C1104 C1110 1.368 . S
C1105 C1089 1.349 . S
C1105 H1097 0.950 . S
C1105 C1103 1.327 . S
C1106 C1094 1.349 . S
C1106 H1100 0.950 . S
C1106 C1107 1.327 . S
C1107 H1101 0.950 . S
C1107 C1106 1.327 . S
C1107 C1111 1.429 . S
C1108 C1091 1.574 . S
C1108 H1102 0.949 . S
C1108 C1112 1.368 . S
C1109 C1090 1.429 . S
C1109 C1103 1.429 . S
C1109 C1110 1.523 . S
C1110 C1091 1.368 . S
C1110 C1104 1.368 . S
C1110 C1109 1.523 . S
C1111 C1095 1.429 . S
C1111 C1107 1.429 . S
C1111 C1112 1.523 . S
C1112 C1096 1.368 . S
C1112 C1108 1.368 . S
C1112 C1111 1.523 . S
H1113 C1088 0.950 . S
H1114 C1090 0.950 . S
H1115 C1091 0.949 . S
H1116 C1093 0.950 . S
H1117 C1095 0.950 . S
C1118 C1119 1.349 . S
C1118 C1120 1.327 . S
C1118 H1143 0.950 . S
C1119 C1118 1.349 . S
C1119 C1135 1.349 . S
C1120 C1118 1.327 . S
C1120 C1139 1.429 . S
C1120 H1144 0.950 . S
C1121 C1138 1.574 1_655 S
C1121 C1140 1.368 . S
C1121 H1145 0.949 . S
H1122 C1126 0.949 . S
C1123 C1124 1.349 . S
C1123 C1125 1.327 . S
C1123 H1146 0.950 . S
C1124 C1123 1.349 . S
C1124 C1136 1.349 . S
C1125 C1123 1.327 . S
C1125 C1141 1.429 . S
C1125 H1147 0.950 . S
C1126 H1122 0.949 . S
C1126 C1134 1.574 1_455 S
C1126 C1142 1.368 . S
H1127 C1135 0.950 . S
H1128 C1133 0.950 . S
H1129 C1134 0.949 . S
H1130 C1136 0.950 . S
H1131 C1137 0.950 . S
H1132 C1138 0.949 . S
C1133 H1128 0.950 . S
C1133 C1135 1.327 . S
C1133 C1139 1.429 . S
C1134 C1126 1.574 1_655 S
C1134 H1129 0.949 . S
C1134 C1140 1.368 1_565 S
C1135 C1119 1.349 . S
C1135 H1127 0.950 . S
C1135 C1133 1.327 . S
C1136 C1124 1.349 . S
C1136 H1130 0.950 . S
C1136 C1137 1.327 . S
C1137 H1131 0.950 . S
C1137 C1136 1.327 . S
C1137 C1141 1.429 . S
C1138 C1121 1.574 1_455 S
C1138 H1132 0.949 . S
C1138 C1142 1.368 1_545 S
C1139 C1120 1.429 . S
C1139 C1133 1.429 . S
C1139 C1140 1.523 . S
C1140 C1121 1.368 . S
C1140 C1134 1.368 1_545 S
C1140 C1139 1.523 . S
C1141 C1125 1.429 . S
C1141 C1137 1.429 . S
C1141 C1142 1.523 . S
C1142 C1126 1.368 . S
C1142 C1138 1.368 1_565 S
C1142 C1141 1.523 . S
H1143 C1118 0.950 . S
H1144 C1120 0.950 . S
H1145 C1121 0.949 . S
H1146 C1123 0.950 . S
H1147 C1125 0.950 . S
C1148 C1149 1.349 . S
C1148 C1150 1.327 . S
C1148 H1173 0.950 . S
C1149 C1148 1.349 . S
C1149 C1165 1.349 . S
C1150 C1148 1.327 . S
C1150 C1169 1.429 . S
C1150 H1174 0.950 . S
C1151 C1168 1.574 . S
C1151 C1170 1.368 . S
C1151 H1175 0.949 . S
H1152 C1156 0.949 . S
C1153 C1154 1.349 . S
C1153 C1155 1.327 . S
C1153 H1176 0.950 . S
C1154 C1153 1.349 . S
C1154 C1166 1.349 . S
C1155 C1153 1.327 . S
C1155 C1171 1.429 . S
C1155 H1177 0.950 . S
C1156 H1152 0.949 . S
C1156 C1164 1.574 . S
C1156 C1172 1.368 . S
H1157 C1165 0.950 . S
H1158 C1163 0.950 . S
H1159 C1164 0.949 . S
H1160 C1166 0.950 . S
H1161 C1167 0.950 . S
H1162 C1168 0.949 . S
C1163 H1158 0.950 . S
C1163 C1165 1.327 . S
C1163 C1169 1.429 . S
C1164 C1156 1.574 . S
C1164 H1159 0.949 . S
C1164 C1170 1.368 . S
C1165 C1149 1.349 . S
C1165 H1157 0.950 . S
C1165 C1163 1.327 . S
C1166 C1154 1.349 . S
C1166 H1160 0.950 . S
C1166 C1167 1.327 . S
C1167 H1161 0.950 . S
C1167 C1166 1.327 . S
C1167 C1171 1.429 . S
C1168 C1151 1.574 . S
C1168 H1162 0.949 . S
C1168 C1172 1.368 . S
C1169 C1150 1.429 . S
C1169 C1163 1.429 . S
C1169 C1170 1.523 . S
C1170 C1151 1.368 . S
C1170 C1164 1.368 . S
C1170 C1169 1.523 . S
C1171 C1155 1.429 . S
C1171 C1167 1.429 . S
C1171 C1172 1.523 . S
C1172 C1156 1.368 . S
C1172 C1168 1.368 . S
C1172 C1171 1.523 . S
H1173 C1148 0.950 . S
H1174 C1150 0.950 . S
H1175 C1151 0.949 . S
H1176 C1153 0.950 . S
H1177 C1155 0.950 . S
C1178 C1179 1.349 . S
C1178 C1180 1.327 . S
C1178 H1203 0.950 . S
C1179 C1178 1.349 . S
C1179 C1195 1.349 . S
C1180 C1178 1.327 . S
C1180 C1199 1.429 . S
C1180 H1204 0.950 1_565 S
C1181 C1198 1.574 . S
C1181 C1200 1.368 . S
C1181 H1205 0.949 . S
H1182 C1186 0.949 . S
C1183 C1184 1.349 . S
C1183 C1185 1.327 . S
C1183 H1206 0.950 . S
C1184 C1183 1.349 . S
C1184 C1196 1.349 . S
C1185 C1183 1.327 . S
C1185 C1201 1.429 . S
C1185 H1207 0.950 1_545 S
C1186 H1182 0.949 . S
C1186 C1194 1.574 . S
C1186 C1202 1.368 . S
H1187 C1195 0.950 . S
H1188 C1193 0.950 . S
H1189 C1194 0.949 . S
H1190 C1196 0.950 . S
H1191 C1197 0.950 . S
H1192 C1198 0.949 . S
C1193 H1188 0.950 . S
C1193 C1195 1.327 . S
C1193 C1199 1.429 . S
C1194 C1186 1.574 . S
C1194 H1189 0.949 . S
C1194 C1200 1.368 1_545 S
C1195 C1179 1.349 . S
C1195 H1187 0.950 . S
C1195 C1193 1.327 . S
C1196 C1184 1.349 . S
C1196 H1190 0.950 . S
C1196 C1197 1.327 . S
C1197 H1191 0.950 . S
C1197 C1196 1.327 . S
C1197 C1201 1.429 . S
C1198 C1181 1.574 . S
C1198 H1192 0.949 . S
C1198 C1202 1.368 1_565 S
C1199 C1180 1.429 . S
C1199 C1193 1.429 . S
C1199 C1200 1.523 . S
C1200 C1181 1.368 . S
C1200 C1194 1.368 1_565 S
C1200 C1199 1.523 . S
C1201 C1185 1.429 . S
C1201 C1197 1.429 . S
C1201 C1202 1.523 . S
C1202 C1186 1.368 . S
C1202 C1198 1.368 1_545 S
C1202 C1201 1.523 . S
H1203 C1178 0.950 . S
H1204 C1180 0.950 1_545 S
H1205 C1181 0.949 . S
H1206 C1183 0.950 . S
H1207 C1185 0.950 1_565 S
C249 C0 1.503 . S
C254 C49 1.535 . S
C279 C18 1.817 1_565 S
C284 C62 1.801 . S
C309 C104 1.535 . S
C314 C55 1.503 . S
C339 C73 1.817 . S
C344 C117 1.801 . S
C369 C93 1.503 . S
C374 C142 1.535 . S
C399 C155 1.801 . S
C404 C111 1.816 . S
C429 C148 1.503 . S
C434 C11 1.535 . S
C459 C166 1.817 . S
C464 C24 1.801 . S
C489 C173 1.535 . S
C494 C186 1.503 . S
C519 C204 1.816 1_565 S
C524 C124 1.801 . S
C549 C228 1.535 . S
C554 C179 1.503 . S
C579 C241 1.801 . S
C584 C135 1.817 . S
C609 C217 1.503 . S
C614 C80 1.535 . S
C639 C31 1.801 . S
C644 C235 1.817 . S
C669 C197 1.535 . S
C674 C86 1.503 . S
C699 C210 1.801 . S
C704 C42 1.817 . S
C729 C10 0.499 . S
C734 C2 0.468 1_456 S
C759 C41 0.499 . S
C764 C33 0.499 . S
C789 C72 0.499 . S
C794 C64 0.499 . S
C819 C95 0.489 1_455 S
C824 C103 0.499 . S
C849 C134 0.499 . S
C854 C126 0.499 . S
C879 C165 0.499 . S
C884 C157 0.499 . S
C909 C196 0.499 . S
C914 C188 0.499 . S
C939 C219 0.478 1_556 S
C944 C227 0.499 . S
C969 C244 1.525 . S
C974 C1 1.525 . S
C999 C27 1.525 . S
C1004 C218 1.525 . S
C1029 C58 1.525 . S
C1034 C63 1.525 . S
C1059 C213 1.525 . S
C1064 C94 1.525 . S
C1089 C120 1.525 . S
C1094 C187 1.525 . S
C1119 C156 1.525 . S
C1124 C151 1.525 . S
C1149 C182 1.525 . S
C1154 C125 1.525 . S
C1179 C89 1.525 . S
C1184 C32 1.525 . S
