# Generated by pormake.
# Topology vce, (5)-cn, num edge types: 1
# Building blocks:
#     Node 0, Type 0, BuildingBlock: XOMCOT_clean_sbu_1, # of connection points: 5
#     Node 1, Type 0, BuildingBlock: XOMCOT_clean_sbu_1, # of connection points: 5
#     Node 2, Type 0, BuildingBlock: XOMCOT_clean_sbu_1, # of connection points: 5
#     Node 3, Type 0, BuildingBlock: XOMCOT_clean_sbu_1, # of connection points: 5
#     Node 4, Type 0, BuildingBlock: XOMCOT_clean_sbu_1, # of connection points: 5
#     Node 5, Type 0, BuildingBlock: XOMCOT_clean_sbu_1, # of connection points: 5
#     Node 6, Type 0, BuildingBlock: XOMCOT_clean_sbu_1, # of connection points: 5
#     Node 7, Type 0, BuildingBlock: XOMCOT_clean_sbu_1, # of connection points: 5
#     Node 8, Type 0, BuildingBlock: XOMCOT_clean_sbu_1, # of connection points: 5
#     Node 9, Type 0, BuildingBlock: XOMCOT_clean_sbu_1, # of connection points: 5
#     Node 10, Type 0, BuildingBlock: XOMCOT_clean_sbu_1, # of connection points: 5
#     Node 11, Type 0, BuildingBlock: XOMCOT_clean_sbu_1, # of connection points: 5
#     Node 12, Type 0, BuildingBlock: XOMCOT_clean_sbu_1, # of connection points: 5
#     Node 13, Type 0, BuildingBlock: XOMCOT_clean_sbu_1, # of connection points: 5
#     Node 14, Type 0, BuildingBlock: XOMCOT_clean_sbu_1, # of connection points: 5
#     Node 15, Type 0, BuildingBlock: XOMCOT_clean_sbu_1, # of connection points: 5
#     Node 16, Type 0, BuildingBlock: XOMCOT_clean_sbu_1, # of connection points: 5
#     Node 17, Type 0, BuildingBlock: XOMCOT_clean_sbu_1, # of connection points: 5
#     Node 18, Type 0, BuildingBlock: XOMCOT_clean_sbu_1, # of connection points: 5
#     Node 19, Type 0, BuildingBlock: XOMCOT_clean_sbu_1, # of connection points: 5
#     Node 20, Type 0, BuildingBlock: XOMCOT_clean_sbu_1, # of connection points: 5
#     Node 21, Type 0, BuildingBlock: XOMCOT_clean_sbu_1, # of connection points: 5
#     Node 22, Type 0, BuildingBlock: XOMCOT_clean_sbu_1, # of connection points: 5
#     Node 23, Type 0, BuildingBlock: XOMCOT_clean_sbu_1, # of connection points: 5
#     Node 24, Type 0, BuildingBlock: XOMCOT_clean_sbu_1, # of connection points: 5
#     Node 25, Type 0, BuildingBlock: XOMCOT_clean_sbu_1, # of connection points: 5
#     Node 26, Type 0, BuildingBlock: XOMCOT_clean_sbu_1, # of connection points: 5
#     Node 27, Type 0, BuildingBlock: XOMCOT_clean_sbu_1, # of connection points: 5
#     Node 28, Type 0, BuildingBlock: XOMCOT_clean_sbu_1, # of connection points: 5
#     Node 29, Type 0, BuildingBlock: XOMCOT_clean_sbu_1, # of connection points: 5
#     Node 30, Type 0, BuildingBlock: XOMCOT_clean_sbu_1, # of connection points: 5
#     Node 31, Type 0, BuildingBlock: XOMCOT_clean_sbu_1, # of connection points: 5
#     Edge 32, Type (0, 0), BuildingBlock: OJICUG_clean_linker_0, # of connection points: 2
#     Edge 33, Type (0, 0), BuildingBlock: OJICUG_clean_linker_0, # of connection points: 2
#     Edge 34, Type (0, 0), BuildingBlock: OJICUG_clean_linker_0, # of connection points: 2
#     Edge 35, Type (0, 0), BuildingBlock: OJICUG_clean_linker_0, # of connection points: 2
#     Edge 36, Type (0, 0), BuildingBlock: OJICUG_clean_linker_0, # of connection points: 2
#     Edge 37, Type (0, 0), BuildingBlock: OJICUG_clean_linker_0, # of connection points: 2
#     Edge 38, Type (0, 0), BuildingBlock: OJICUG_clean_linker_0, # of connection points: 2
#     Edge 39, Type (0, 0), BuildingBlock: OJICUG_clean_linker_0, # of connection points: 2
#     Edge 40, Type (0, 0), BuildingBlock: OJICUG_clean_linker_0, # of connection points: 2
#     Edge 41, Type (0, 0), BuildingBlock: OJICUG_clean_linker_0, # of connection points: 2
#     Edge 42, Type (0, 0), BuildingBlock: OJICUG_clean_linker_0, # of connection points: 2
#     Edge 43, Type (0, 0), BuildingBlock: OJICUG_clean_linker_0, # of connection points: 2
#     Edge 44, Type (0, 0), BuildingBlock: OJICUG_clean_linker_0, # of connection points: 2
#     Edge 45, Type (0, 0), BuildingBlock: OJICUG_clean_linker_0, # of connection points: 2
#     Edge 46, Type (0, 0), BuildingBlock: OJICUG_clean_linker_0, # of connection points: 2
#     Edge 47, Type (0, 0), BuildingBlock: OJICUG_clean_linker_0, # of connection points: 2
#     Edge 48, Type (0, 0), BuildingBlock: OJICUG_clean_linker_0, # of connection points: 2
#     Edge 49, Type (0, 0), BuildingBlock: OJICUG_clean_linker_0, # of connection points: 2
#     Edge 50, Type (0, 0), BuildingBlock: OJICUG_clean_linker_0, # of connection points: 2
#     Edge 51, Type (0, 0), BuildingBlock: OJICUG_clean_linker_0, # of connection points: 2
#     Edge 52, Type (0, 0), BuildingBlock: OJICUG_clean_linker_0, # of connection points: 2
#     Edge 53, Type (0, 0), BuildingBlock: OJICUG_clean_linker_0, # of connection points: 2
#     Edge 54, Type (0, 0), BuildingBlock: OJICUG_clean_linker_0, # of connection points: 2
#     Edge 55, Type (0, 0), BuildingBlock: OJICUG_clean_linker_0, # of connection points: 2
#     Edge 56, Type (0, 0), BuildingBlock: OJICUG_clean_linker_0, # of connection points: 2
#     Edge 57, Type (0, 0), BuildingBlock: OJICUG_clean_linker_0, # of connection points: 2
#     Edge 58, Type (0, 0), BuildingBlock: OJICUG_clean_linker_0, # of connection points: 2
#     Edge 59, Type (0, 0), BuildingBlock: OJICUG_clean_linker_0, # of connection points: 2
#     Edge 60, Type (0, 0), BuildingBlock: OJICUG_clean_linker_0, # of connection points: 2
#     Edge 61, Type (0, 0), BuildingBlock: OJICUG_clean_linker_0, # of connection points: 2
#     Edge 62, Type (0, 0), BuildingBlock: OJICUG_clean_linker_0, # of connection points: 2
#     Edge 63, Type (0, 0), BuildingBlock: OJICUG_clean_linker_0, # of connection points: 2
#     Edge 64, Type (0, 0), BuildingBlock: OJICUG_clean_linker_0, # of connection points: 2
#     Edge 65, Type (0, 0), BuildingBlock: OJICUG_clean_linker_0, # of connection points: 2
#     Edge 66, Type (0, 0), BuildingBlock: OJICUG_clean_linker_0, # of connection points: 2
#     Edge 67, Type (0, 0), BuildingBlock: OJICUG_clean_linker_0, # of connection points: 2
#     Edge 68, Type (0, 0), BuildingBlock: OJICUG_clean_linker_0, # of connection points: 2
#     Edge 69, Type (0, 0), BuildingBlock: OJICUG_clean_linker_0, # of connection points: 2
#     Edge 70, Type (0, 0), BuildingBlock: OJICUG_clean_linker_0, # of connection points: 2
#     Edge 71, Type (0, 0), BuildingBlock: OJICUG_clean_linker_0, # of connection points: 2
#     Edge 72, Type (0, 0), BuildingBlock: OJICUG_clean_linker_0, # of connection points: 2
#     Edge 73, Type (0, 0), BuildingBlock: OJICUG_clean_linker_0, # of connection points: 2
#     Edge 74, Type (0, 0), BuildingBlock: OJICUG_clean_linker_0, # of connection points: 2
#     Edge 75, Type (0, 0), BuildingBlock: OJICUG_clean_linker_0, # of connection points: 2
#     Edge 76, Type (0, 0), BuildingBlock: OJICUG_clean_linker_0, # of connection points: 2
#     Edge 77, Type (0, 0), BuildingBlock: OJICUG_clean_linker_0, # of connection points: 2
#     Edge 78, Type (0, 0), BuildingBlock: OJICUG_clean_linker_0, # of connection points: 2
#     Edge 79, Type (0, 0), BuildingBlock: OJICUG_clean_linker_0, # of connection points: 2
#     Edge 80, Type (0, 0), BuildingBlock: OJICUG_clean_linker_0, # of connection points: 2
#     Edge 81, Type (0, 0), BuildingBlock: OJICUG_clean_linker_0, # of connection points: 2
#     Edge 82, Type (0, 0), BuildingBlock: OJICUG_clean_linker_0, # of connection points: 2
#     Edge 83, Type (0, 0), BuildingBlock: OJICUG_clean_linker_0, # of connection points: 2
#     Edge 84, Type (0, 0), BuildingBlock: OJICUG_clean_linker_0, # of connection points: 2
#     Edge 85, Type (0, 0), BuildingBlock: OJICUG_clean_linker_0, # of connection points: 2
#     Edge 86, Type (0, 0), BuildingBlock: OJICUG_clean_linker_0, # of connection points: 2
#     Edge 87, Type (0, 0), BuildingBlock: OJICUG_clean_linker_0, # of connection points: 2
#     Edge 88, Type (0, 0), BuildingBlock: OJICUG_clean_linker_0, # of connection points: 2
#     Edge 89, Type (0, 0), BuildingBlock: OJICUG_clean_linker_0, # of connection points: 2
#     Edge 90, Type (0, 0), BuildingBlock: OJICUG_clean_linker_0, # of connection points: 2
#     Edge 91, Type (0, 0), BuildingBlock: OJICUG_clean_linker_0, # of connection points: 2
#     Edge 92, Type (0, 0), BuildingBlock: OJICUG_clean_linker_0, # of connection points: 2
#     Edge 93, Type (0, 0), BuildingBlock: OJICUG_clean_linker_0, # of connection points: 2
#     Edge 94, Type (0, 0), BuildingBlock: OJICUG_clean_linker_0, # of connection points: 2
#     Edge 95, Type (0, 0), BuildingBlock: OJICUG_clean_linker_0, # of connection points: 2
#     Edge 96, Type (0, 0), BuildingBlock: OJICUG_clean_linker_0, # of connection points: 2
#     Edge 97, Type (0, 0), BuildingBlock: OJICUG_clean_linker_0, # of connection points: 2
#     Edge 98, Type (0, 0), BuildingBlock: OJICUG_clean_linker_0, # of connection points: 2
#     Edge 99, Type (0, 0), BuildingBlock: OJICUG_clean_linker_0, # of connection points: 2
#     Edge 100, Type (0, 0), BuildingBlock: OJICUG_clean_linker_0, # of connection points: 2
#     Edge 101, Type (0, 0), BuildingBlock: OJICUG_clean_linker_0, # of connection points: 2
#     Edge 102, Type (0, 0), BuildingBlock: OJICUG_clean_linker_0, # of connection points: 2
#     Edge 103, Type (0, 0), BuildingBlock: OJICUG_clean_linker_0, # of connection points: 2
#     Edge 104, Type (0, 0), BuildingBlock: OJICUG_clean_linker_0, # of connection points: 2
#     Edge 105, Type (0, 0), BuildingBlock: OJICUG_clean_linker_0, # of connection points: 2
#     Edge 106, Type (0, 0), BuildingBlock: OJICUG_clean_linker_0, # of connection points: 2
#     Edge 107, Type (0, 0), BuildingBlock: OJICUG_clean_linker_0, # of connection points: 2
#     Edge 108, Type (0, 0), BuildingBlock: OJICUG_clean_linker_0, # of connection points: 2
#     Edge 109, Type (0, 0), BuildingBlock: OJICUG_clean_linker_0, # of connection points: 2
#     Edge 110, Type (0, 0), BuildingBlock: OJICUG_clean_linker_0, # of connection points: 2
#     Edge 111, Type (0, 0), BuildingBlock: OJICUG_clean_linker_0, # of connection points: 2
# Relax obj value: 0.148
# Max RMSD: 0.168
# Mean RMSD: 0.168
data_MOF--net-vce--node1-XOMCOT_clean_sbu_1--edge1-OJICUG_clean_linker_0
_symmetry_space_group_name_H-M    P1
_symmetry_Int_Tables_number       1
_symmetry_cell_setting            triclinic
loop_
_symmetry_equiv_pos_as_xyz
'x, y, z'
_cell_length_a     37.81915
_cell_length_b     97.184506
_cell_length_c     19.313048
_cell_angle_alpha  89.997067
_cell_angle_beta   89.956383
_cell_angle_gamma 89.959504
loop_
_atom_site_label
_atom_site_type_symbol
_atom_site_fract_x
_atom_site_fract_y
_atom_site_fract_z
_atom_type_partial_charge
C0 C 0.05022 0.25461 0.39702 0.0
C1 C 0.03743 0.26738 0.38051 0.0
N2 N 0.00197 0.26718 0.38608 0.0
N3 N 0.02327 0.2461 0.41327 0.0
C4 C -0.00603 0.25417 0.40677 0.0
H5 H 0.07775 0.25161 0.3955 0.0
Co6 Co 0.03288 0.22723 0.43517 0.0
C7 C 0.05899 0.21881 0.29629 0.0
O8 O 0.03581 0.20874 0.29667 0.0
N9 N 0.04506 0.20843 0.45915 0.0
C10 C 0.04994 0.18955 0.525 0.0
C11 C 0.03626 0.20262 0.52053 0.0
C12 C 0.06657 0.1988 0.42964 0.0
N13 N 0.06904 0.18712 0.4677 0.0
O14 O 0.0706 0.2331 0.49379 0.0
H15 H 0.02084 0.20761 0.56045 0.0
H16 H 0.08122 0.20029 0.38238 0.0
O17 O 0.06232 0.22649 0.34987 0.0
C18 C 0.05465 0.23565 0.55101 0.0
O19 O 0.02001 0.23453 0.55275 0.0
N20 N -0.00843 0.22164 0.38763 0.0
C21 C 0.91968 0.22006 0.35827 0.0
C22 C 0.94254 0.22716 0.31344 0.0
C23 C 0.97884 0.22759 0.32838 0.0
C24 C 0.96956 0.214 0.42827 0.0
C25 C 0.93405 0.21265 0.41315 0.0
H26 H -0.00421 0.23405 0.29711 0.0
H27 H 0.9778 0.2103 0.47775 0.0
H28 H 0.9673 0.25051 0.41547 0.0
H29 H 0.05309 0.27599 0.36255 0.0
H30 H 0.04703 0.18253 0.56819 0.0
H31 H 0.93214 0.23321 0.27097 0.0
H32 H 0.91723 0.20742 0.45022 0.0
C33 C 0.13495 0.06847 0.35756 0.0
C34 C 0.14232 0.05613 0.32562 0.0
N35 N 0.16553 0.05836 0.27382 0.0
N36 N 0.1534 0.07867 0.32674 0.0
C37 C 0.17113 0.07217 0.27486 0.0
H38 H 0.11845 0.06966 0.40281 0.0
Co39 Co 0.15856 0.09736 0.35778 0.0
C40 C 0.1377 0.11474 0.23365 0.0
O41 O 0.15492 0.12544 0.25763 0.0
N42 N 0.16301 0.11597 0.38936 0.0
C43 C 0.18314 0.13608 0.42875 0.0
C44 C 0.19205 0.12273 0.41185 0.0
C45 C 0.1365 0.12532 0.39668 0.0
N46 N 0.14816 0.1377 0.41905 0.0
O47 O 0.11396 0.09667 0.40557 0.0
H48 H 0.21815 0.11829 0.41614 0.0
H49 H 0.10925 0.12325 0.38311 0.0
O50 O 0.13746 0.10342 0.26796 0.0
C51 C 0.12546 0.09412 0.46688 0.0
O52 O 0.15895 0.0908 0.47375 0.0
N53 N 0.20516 0.09744 0.3254 0.0
C54 C 0.27764 0.10038 0.34243 0.0
C55 C 0.25963 0.10807 0.29168 0.0
C56 C 0.22304 0.10631 0.28323 0.0
C57 C 0.22316 0.08897 0.3693 0.0
C58 C 0.25926 0.09019 0.37827 0.0
H59 H 0.20927 0.11288 0.24758 0.0
H60 H 0.20903 0.08196 0.40262 0.0
H61 H 0.18915 0.07743 0.24042 0.0
H62 H 0.13287 0.04618 0.34255 0.0
H63 H 0.20095 0.14394 0.44772 0.0
H64 H 0.27326 0.11588 0.26189 0.0
H65 H 0.27188 0.08403 0.41797 0.0
C66 C 0.04886 0.08696 0.87561 0.0
C67 C 0.03584 0.07422 0.89223 0.0
N68 N 0.00033 0.07464 0.88849 0.0
N69 N 0.02198 0.09564 0.86116 0.0
C70 C -0.00746 0.08771 0.86856 0.0
H71 H 0.07649 0.08983 0.876 0.0
Co72 Co 0.03108 0.11457 0.84038 0.0
C73 C 0.05989 0.12274 0.97764 0.0
O74 O 0.03694 0.13289 0.97915 0.0
N75 N 0.04249 0.13341 0.81694 0.0
C76 C 0.04566 0.15246 0.75199 0.0
C77 C 0.03194 0.13942 0.75715 0.0
C78 C 0.06496 0.1429 0.84458 0.0
N79 N 0.06645 0.15469 0.80714 0.0
O80 O 0.06791 0.10893 0.77905 0.0
H81 H 0.0154 0.13457 0.71863 0.0
H82 H 0.081 0.14121 0.88988 0.0
O83 O 0.06203 0.11507 0.92373 0.0
C84 C 0.05174 0.10658 0.72193 0.0
O85 O 0.0171 0.10773 0.72078 0.0
N86 N -0.00936 0.11995 0.89155 0.0
C87 C 0.91903 0.11959 0.92367 0.0
C88 C 0.94354 0.11314 0.96762 0.0
C89 C 0.97964 0.11367 0.95124 0.0
C90 C 0.96715 0.1274 0.85325 0.0
C91 C 0.93157 0.12774 0.86967 0.0
H92 H -0.00218 0.10743 0.98094 0.0
H93 H 0.9743 0.13161 0.80411 0.0
H94 H 0.9659 0.09153 0.8613 0.0
H95 H 0.05136 0.06549 0.90922 0.0
H96 H 0.04163 0.15959 0.70962 0.0
H97 H 0.93466 0.10664 1.00975 0.0
H98 H 0.91355 0.13265 0.83369 0.0
C99 C 0.13872 0.27283 0.91882 0.0
C100 C 0.14602 0.28494 0.95292 0.0
N101 N 0.16815 0.28226 1.00592 0.0
N102 N 0.15611 0.26233 0.94944 0.0
C103 C 0.17326 0.26842 1.0032 0.0
H104 H 0.12285 0.272 0.87258 0.0
Co105 Co 0.16003 0.2437 0.91703 0.0
C106 C 0.1352 0.22617 0.03791 0.0
O107 O 0.15131 0.21522 1.01358 0.0
N108 N 0.16338 0.22518 0.88367 0.0
C109 C 0.18277 0.20502 0.84344 0.0
C110 C 0.19222 0.21824 0.8615 0.0
C111 C 0.13641 0.21611 0.87459 0.0
N112 N 0.14763 0.20368 0.85199 0.0
O113 O 0.11634 0.24518 0.86705 0.0
H114 H 0.21861 0.22243 0.85846 0.0
H115 H 0.10919 0.21839 0.88767 0.0
O116 O 0.13692 0.23763 1.00496 0.0
C117 C 0.12843 0.24773 0.80619 0.0
O118 O 0.16219 0.2507 0.80022 0.0
N119 N 0.20582 0.24273 0.95267 0.0
C120 C 0.27724 0.2371 0.93771 0.0
C121 C 0.25717 0.23022 0.98831 0.0
C122 C 0.22118 0.23335 0.99577 0.0
C123 C 0.22609 0.25062 0.90984 0.0
C124 C 0.26185 0.24803 0.90175 0.0
H125 H 0.20569 0.22738 0.03133 0.0
H126 H 0.2138 0.25805 0.87599 0.0
H127 H 0.19033 0.26283 0.03815 0.0
H128 H 0.13719 0.29503 0.93692 0.0
H129 H 0.20037 0.19704 0.82487 0.0
H130 H 0.26859 0.22194 0.01851 0.0
H131 H 0.2763 0.25365 0.86244 0.0
C132 C 0.92265 0.82728 0.69905 0.0
C133 C 0.93433 0.81477 0.72244 0.0
N134 N 0.96883 0.81348 0.70665 0.0
N135 N 0.94942 0.83415 0.66836 0.0
C136 C 0.97744 0.82537 0.67351 0.0
H137 H 0.8959 0.83112 0.70377 0.0
Co138 Co 0.94105 0.85173 0.62637 0.0
C139 C 0.91863 0.86681 0.75228 0.0
O140 O 0.94207 0.87638 0.73804 0.0
N141 N 0.9299 0.86885 0.5817 0.0
C142 C 0.92322 0.88289 0.49126 0.0
C143 C 0.9372 0.87069 0.51384 0.0
C144 C 0.90938 0.87992 0.59783 0.0
N145 N 0.90548 0.88878 0.54398 0.0
O146 O 0.90156 0.84427 0.5781 0.0
H147 H 0.9521 0.86353 0.48239 0.0
H148 H 0.89554 0.88114 0.64625 0.0
O149 O 0.91363 0.85686 0.70981 0.0
C150 C 0.91508 0.83879 0.52384 0.0
O151 O 0.9493 0.83638 0.52365 0.0
N152 N -0.01653 0.85889 0.665 0.0
C153 C 0.05505 0.86268 0.69053 0.0
C154 C 0.03379 0.85589 0.73934 0.0
C155 C -0.00252 0.85448 0.72649 0.0
C156 C 0.00378 0.86657 0.62107 0.0
C157 C 0.03902 0.86906 0.63432 0.0
H158 H 0.98156 0.8486 0.76236 0.0
H159 H -0.00529 0.86969 0.57125 0.0
H160 H 0.00348 0.82761 0.65308 0.0
H161 H 0.91864 0.80726 0.75018 0.0
H162 H 0.92592 0.88697 0.43946 0.0
H163 H 0.04552 0.85075 0.78348 0.0
H164 H 0.05461 0.87416 0.59477 0.0
C165 C 0.80483 1.00501 0.63482 0.0
C166 C 0.79065 1.0172 0.65709 0.0
N167 N 0.75523 1.01648 0.65163 0.0
N168 N 0.77876 0.99638 0.61511 0.0
C169 C 0.74863 1.00378 0.62521 0.0
H170 H 0.83267 1.00246 0.63466 0.0
Co171 Co 0.78954 0.9782 0.58444 0.0
C172 C 0.81808 0.96791 0.71877 0.0
O173 O 0.79586 0.95753 0.71628 0.0
N174 N 0.80253 0.96024 0.55118 0.0
C175 C 0.80897 0.9438 0.47153 0.0
C176 C 0.79475 0.95644 0.48565 0.0
C177 C 0.82343 0.94979 0.57445 0.0
N178 N 0.82728 0.93953 0.52728 0.0
O179 O 0.82658 0.98541 0.52779 0.0
H180 H 0.77937 0.96252 0.44976 0.0
H181 H 0.83735 0.94994 0.62309 0.0
O182 O 0.81987 0.97633 0.66781 0.0
C183 C 0.81103 0.98922 0.47202 0.0
O184 O 0.77627 0.98919 0.47085 0.0
N185 N 0.74918 0.97122 0.6306 0.0
C186 C 0.67789 0.9678 0.66152 0.0
C187 C 0.70031 0.97455 0.70849 0.0
C188 C 0.73638 0.97589 0.69264 0.0
C189 C 0.72773 0.96383 0.58772 0.0
C190 C 0.69259 0.96157 0.60338 0.0
H191 H 0.75288 0.98209 0.72606 0.0
H192 H 0.73591 0.96102 0.5367 0.0
H193 H 0.72238 0.99985 0.61495 0.0
H194 H 0.80534 1.02573 0.67878 0.0
H195 H 0.80593 0.93827 0.42332 0.0
H196 H 0.68961 0.97968 0.75367 0.0
H197 H 0.67609 0.95663 0.56482 0.0
C198 C 0.89188 1.02144 0.10324 0.0
C199 C 0.89772 1.03384 0.07083 0.0
N200 N 0.91894 1.03177 1.01564 0.0
N201 N 0.90928 1.01135 0.0693 0.0
C202 C 0.92478 1.01798 1.01519 0.0
H203 H 0.87747 1.02014 0.15107 0.0
Co204 Co 0.91699 0.99282 0.10024 0.0
C205 C 0.89298 0.975 0.97904 0.0
O206 O 0.91036 0.96422 1.0018 0.0
N207 N 0.92449 0.97438 0.13268 0.0
C208 C 0.95005 0.95532 0.17334 0.0
C209 C 0.9552 0.96887 0.15552 0.0
C210 C 0.90053 0.96411 0.14196 0.0
N211 N 0.91567 0.95231 0.16456 0.0
O212 O 0.87393 0.9931 0.153 0.0
H213 H 0.97998 0.97432 0.15939 0.0
H214 H 0.87277 0.96507 0.12912 0.0
O215 O 0.89377 0.98635 1.01308 0.0
C216 C 0.88671 0.99561 0.21334 0.0
O217 O 0.92055 0.99855 0.21795 0.0
N218 N 0.9622 0.99319 0.0616 0.0
C219 C 0.03403 0.98892 0.07697 0.0
C220 C 0.01487 0.9814 0.02739 0.0
C221 C 0.97858 0.98387 0.01959 0.0
C222 C 0.98158 1.00179 0.10246 0.0
C223 C 0.01761 0.99993 0.11042 0.0
H224 H 0.96369 0.97728 0.98595 0.0
H225 H 0.96844 1.00908 0.13603 0.0
H226 H 0.94171 1.01282 0.97828 0.0
H227 H 0.88888 0.04373 0.08983 0.0
H228 H 0.97001 0.94822 0.19178 0.0
H229 H 0.0271 0.97301 0.99933 0.0
H230 H 0.03138 1.00601 0.14892 0.0
C231 C 0.84276 0.83323 0.09143 0.0
C232 C 0.83002 0.82085 0.06841 0.0
N233 N 0.79504 0.82032 0.0811 0.0
N234 N 0.81622 0.8408 0.11855 0.0
C235 C 0.78733 0.83254 0.11221 0.0
H236 H 0.86994 0.83659 0.08767 0.0
Co237 Co 0.82518 0.85897 0.15319 0.0
C238 C 0.84833 0.87077 1.01775 0.0
O239 O 0.82428 0.88048 0.02308 0.0
N240 N 0.83663 0.87708 0.189 0.0
C241 C 0.84062 0.89439 0.26528 0.0
C242 C 0.82999 0.88101 0.25508 0.0
C243 C 0.85383 0.88816 0.16196 0.0
N244 N 0.85558 0.8989 0.20649 0.0
O245 O 0.86387 0.85187 0.20591 0.0
H246 H 0.81743 0.8746 0.29367 0.0
H247 H 0.86565 0.88849 0.11132 0.0
O248 O 0.85308 0.86224 0.06759 0.0
C249 C 0.84715 0.84772 0.25992 0.0
O250 O 0.81238 0.84812 0.25902 0.0
N251 N 0.78311 0.86545 0.11287 0.0
C252 C 0.71132 0.86888 0.08825 0.0
C253 C 0.73301 0.86273 0.03791 0.0
C254 C 0.76925 0.86124 0.05099 0.0
C255 C 0.76207 0.87189 0.16024 0.0
C256 C 0.72667 0.87421 0.14784 0.0
H257 H 0.78533 0.85552 1.01466 0.0
H258 H 0.77109 0.87384 0.21177 0.0
H259 H 0.76117 0.83551 0.1294 0.0
H260 H 0.84541 0.81302 0.04235 0.0
H261 H 0.83809 0.90028 0.31263 0.0
H262 H 0.72165 0.85819 0.9918 0.0
H263 H 0.71059 0.87848 0.18912 0.0
C264 C 0.07595 0.75723 0.90393 0.0
C265 C 0.06962 0.76994 0.87479 0.0
N266 N 0.04693 0.7684 0.82162 0.0
N267 N 0.05743 0.7475 0.86964 0.0
C268 C 0.04044 0.75467 0.81909 0.0
H269 H 0.09209 0.75541 0.94912 0.0
Co270 Co 0.0529 0.72824 0.89218 0.0
C271 C 0.0706 0.71403 0.75741 0.0
O272 O 0.05272 0.70298 0.77461 0.0
N273 N 0.04949 0.70887 0.91372 0.0
C274 C 0.03034 0.68827 0.94833 0.0
C275 C 0.02132 0.70189 0.93839 0.0
C276 C 0.0757 0.69925 0.91169 0.0
N277 N 0.06464 0.68653 0.93124 0.0
O278 O 0.09813 0.72851 0.93789 0.0
H279 H -0.0042 0.70641 0.94947 0.0
H280 H 0.10227 0.70153 0.89434 0.0
O281 O 0.07235 0.72424 0.79921 0.0
C282 C 0.08583 0.7294 0.99995 0.0
O283 O 0.0514 0.72995 1.00817 0.0
N284 N 0.00544 0.72876 0.86433 0.0
C285 C 0.93242 0.72861 0.88384 0.0
C286 C 0.94798 0.72068 0.83074 0.0
C287 C -0.01507 0.72095 0.82142 0.0
C288 C -0.00996 0.73701 0.91291 0.0
C289 C 0.95402 0.73714 0.92329 0.0
H290 H -0.00338 0.71428 0.7834 0.0
H291 H 0.00598 0.74306 0.94774 0.0
H292 H 0.02259 0.74992 0.78244 0.0
H293 H 0.07947 0.77967 0.89403 0.0
H294 H 0.01301 0.68033 0.9681 0.0
H295 H 0.93198 0.71401 0.79863 0.0
H296 H 0.94364 0.74325 0.96558 0.0
C297 C 0.13789 0.5689 0.84844 0.0
C298 C 0.14741 0.55656 0.81862 0.0
N299 N 0.18287 0.55614 0.81294 0.0
N300 N 0.16706 0.57639 0.86276 0.0
C301 C 0.19409 0.56827 0.84024 0.0
H302 H 0.11105 0.57238 0.85665 0.0
Co303 Co 0.1659 0.5951 0.89617 0.0
C304 C 0.14468 0.61026 0.76755 0.0
O305 O 0.16469 0.62081 0.78415 0.0
N306 N 0.16345 0.61391 0.92783 0.0
C307 C 0.17673 0.63434 0.97385 0.0
C308 C 0.18802 0.62102 0.96381 0.0
C309 C 0.13666 0.62318 0.91952 0.0
N310 N 0.14447 0.63584 0.94528 0.0
O311 O 0.12228 0.59193 0.94404 0.0
H312 H 0.21285 0.61694 0.98208 0.0
H313 H 0.11239 0.62079 0.89246 0.0
O314 O 0.14283 0.59989 0.8081 0.0
C315 C 0.13184 0.58609 1.00061 0.0
O316 O 0.16352 0.58061 1.0034 0.0
N317 N 0.21159 0.59781 0.86334 0.0
C318 C 0.28439 0.60133 0.86117 0.0
C319 C 0.26415 0.60414 0.80168 0.0
C320 C 0.22739 0.60197 0.80327 0.0
C321 C 0.23149 0.59442 0.91954 0.0
C322 C 0.26768 0.5961 0.91972 0.0
H323 H 0.21219 0.6037 0.75693 0.0
H324 H 0.21884 0.59094 0.96631 0.0
H325 H 0.22157 0.57125 0.84242 0.0
H326 H 0.12938 0.54877 0.79983 0.0
H327 H 0.19131 0.6423 1.00064 0.0
H328 H 0.27659 0.60793 0.75491 0.0
H329 H 0.28227 0.59387 0.96669 0.0
C330 C 0.04428 0.56793 0.36449 0.0
C331 C 0.03513 0.55577 0.39632 0.0
N332 N 0.02053 0.55865 0.45831 0.0
N333 N 0.03573 0.57861 0.40594 0.0
C334 C 0.02178 0.57257 0.46322 0.0
H335 H 0.05475 0.56882 0.31265 0.0
Co336 Co 0.036 0.59768 0.38197 0.0
C337 C 0.07128 0.61175 0.50391 0.0
O338 O 0.05786 0.62376 0.48729 0.0
N339 N 0.03644 0.61668 0.35692 0.0
C340 C 0.02 0.63799 0.3291 0.0
C341 C 0.00843 0.62485 0.34276 0.0
C342 C 0.06488 0.62498 0.34726 0.0
N343 N 0.05554 0.6381 0.33253 0.0
O344 O 0.07598 0.59487 0.32235 0.0
H345 H 0.98115 0.62155 0.34285 0.0
H346 H 0.09188 0.62163 0.35521 0.0
O347 O 0.0648 0.60112 0.46654 0.0
C348 C 0.06105 0.59479 0.26254 0.0
O349 O 0.02648 0.59606 0.25963 0.0
N350 N -0.00676 0.59996 0.42787 0.0
C351 C 0.92211 0.60637 0.43515 0.0
C352 C 0.94608 0.6126 0.48093 0.0
C353 C 0.98199 0.60901 0.47736 0.0
C354 C 0.96962 0.59314 0.3874 0.0
C355 C 0.93404 0.59599 0.39098 0.0
H356 H 0.0004 0.61439 0.50977 0.0
H357 H 0.97877 0.58631 0.34704 0.0
H358 H 0.01124 0.57834 0.50645 0.0
H359 H 0.03717 0.54563 0.37343 0.0
H360 H 0.00348 0.64681 0.31777 0.0
H361 H 0.93753 0.62066 0.51589 0.0
H362 H 0.91663 0.59108 0.35395 0.0
C363 C 0.16629 0.75068 0.42397 0.0
C364 C 0.17995 0.76328 0.44144 0.0
N365 N 0.21523 0.76301 0.43185 0.0
N366 N 0.19256 0.74221 0.4034 0.0
C367 C 0.22224 0.75009 0.40836 0.0
H368 H 0.13868 0.74783 0.42647 0.0
Co369 Co 0.18336 0.72378 0.37419 0.0
C370 C 0.15165 0.7127 0.50301 0.0
O371 O 0.17409 0.70239 0.49934 0.0
N372 N 0.17218 0.70562 0.3412 0.0
C373 C 0.16898 0.68813 0.26609 0.0
C374 C 0.18423 0.70064 0.28009 0.0
C375 C 0.14734 0.69622 0.36025 0.0
N376 N 0.14572 0.68533 0.31672 0.0
O377 O 0.14761 0.73027 0.31429 0.0
H378 H 0.20252 0.70599 0.24646 0.0
H379 H 0.12946 0.69748 0.40325 0.0
O380 O 0.15089 0.72174 0.45461 0.0
C381 C 0.16273 0.73348 0.25724 0.0
O382 O 0.19742 0.73424 0.25589 0.0
N383 N 0.22212 0.71738 0.42632 0.0
C384 C 0.29108 0.71467 0.47264 0.0
C385 C 0.26591 0.72149 0.51362 0.0
C386 C 0.23114 0.7226 0.48969 0.0
C387 C 0.24578 0.70959 0.39023 0.0
C388 C 0.27985 0.70762 0.41386 0.0
H389 H 0.21273 0.72899 0.51807 0.0
H390 H 0.24046 0.70621 0.33869 0.0
H391 H 0.24842 0.74639 0.39534 0.0
H392 H 0.16496 0.77189 0.46155 0.0
H393 H 0.1735 0.68186 0.22059 0.0
H394 H 0.27387 0.72718 0.55925 0.0
H395 H 0.29857 0.70252 0.37993 0.0
C396 C 0.89653 0.32166 0.17453 0.0
C397 C 0.90288 0.30905 0.20449 0.0
N398 N 0.92285 0.31089 0.26149 0.0
N399 N 0.91231 0.33165 0.21201 0.0
C400 C 0.92769 0.32472 0.26528 0.0
H401 H 0.88243 0.32323 0.1266 0.0
Co402 Co 0.91608 0.35086 0.1893 0.0
C403 C 0.89189 0.36523 0.32089 0.0
O404 O 0.90818 0.37671 0.30477 0.0
N405 N 0.919 0.37013 0.16642 0.0
C406 C 0.93884 0.39069 0.13288 0.0
C407 C 0.94753 0.37706 0.14298 0.0
C408 C 0.89278 0.37973 0.16641 0.0
N409 N 0.90436 0.39244 0.14816 0.0
O410 O 0.87235 0.35003 0.139 0.0
H411 H 0.97317 0.37253 0.13335 0.0
H412 H 0.86594 0.3775 0.18232 0.0
O413 O 0.89332 0.35485 0.27999 0.0
C414 C 0.88539 0.34901 0.07766 0.0
O415 O 0.91997 0.34855 0.07114 0.0
N416 N 0.96235 0.35104 0.2237 0.0
C417 C 0.0346 0.35507 0.2072 0.0
C418 C 0.01581 0.36229 0.25862 0.0
C419 C 0.97938 0.35998 0.2668 0.0
C420 C 0.98119 0.34309 0.17858 0.0
C421 C 0.01719 0.34481 0.17008 0.0
H422 H 0.96497 0.36629 0.30264 0.0
H423 H 0.96773 0.33627 0.14323 0.0
H424 H 0.94332 0.32975 0.30474 0.0
H425 H 0.89505 0.29921 0.18323 0.0
H426 H 0.95655 0.39866 0.11472 0.0
H427 H 0.02866 0.37019 0.28909 0.0
H428 H 0.03044 0.33906 0.12958 0.0
C429 C 0.83213 0.50881 0.24792 0.0
C430 C 0.82292 0.52126 0.27617 0.0
N431 N 0.788 0.52321 0.26704 0.0
N432 N 0.80326 0.50267 0.22092 0.0
C433 C 0.77662 0.51184 0.23287 0.0
H434 H 0.85821 0.50425 0.24939 0.0
Co435 Co 0.80493 0.48416 0.18651 0.0
C436 C 0.82229 0.46925 0.31795 0.0
O437 O 0.80018 0.45926 0.30287 0.0
N438 N 0.80793 0.4654 0.1537 0.0
C439 C 0.79752 0.44558 0.09866 0.0
C440 C 0.78631 0.45889 0.10853 0.0
C441 C 0.83318 0.45576 0.16773 0.0
N442 N 0.82693 0.44349 0.13631 0.0
O443 O 0.84892 0.48749 0.14163 0.0
H444 H 0.7639 0.4634 0.08259 0.0
H445 H 0.85552 0.45765 0.20135 0.0
O446 O 0.82669 0.47915 0.27532 0.0
C447 C 0.84053 0.49397 0.08615 0.0
O448 O 0.80974 0.5002 0.08378 0.0
N449 N 0.75926 0.48149 0.21653 0.0
C450 C 0.68627 0.48097 0.21271 0.0
C451 C 0.70397 0.47916 0.27609 0.0
C452 C 0.74121 0.47957 0.27706 0.0
C453 C 0.7418 0.48383 0.15623 0.0
C454 C 0.7056 0.48324 0.15265 0.0
H455 H 0.75502 0.47891 0.32583 0.0
H456 H 0.7564 0.48622 0.1098 0.0
H457 H 0.7492 0.50997 0.22006 0.0
H458 H 0.8405 0.52826 0.3029 0.0
H459 H 0.78519 0.43808 0.06503 0.0
H460 H 0.6893 0.47795 0.32385 0.0
H461 H 0.69266 0.48509 0.10342 0.0
C462 C 0.92509 0.51024 0.72735 0.0
C463 C 0.9349 0.5225 0.69712 0.0
N464 N 0.94929 0.51981 0.63471 0.0
N465 N 0.93298 0.49973 0.68433 0.0
C466 C 0.94729 0.50595 0.62793 0.0
H467 H 0.91461 0.50912 0.77909 0.0
Co468 Co 0.93165 0.48055 0.70474 0.0
C469 C 0.89844 0.46734 0.57858 0.0
O470 O 0.91311 0.45543 0.59282 0.0
N471 N 0.93024 0.46132 0.72574 0.0
C472 C 0.94563 0.43966 0.74852 0.0
C473 C 0.95784 0.45282 0.73795 0.0
C474 C 0.90139 0.45313 0.73288 0.0
N475 N 0.91011 0.43984 0.74481 0.0
O476 O 0.89104 0.48319 0.7625 0.0
H477 H -0.01472 0.45589 0.73867 0.0
H478 H 0.87456 0.45673 0.72547 0.0
O479 O 0.90382 0.47776 0.61812 0.0
C480 C 0.90556 0.48252 0.8226 0.0
O481 O 0.93985 0.48048 0.82635 0.0
N482 N 0.97497 0.47849 0.66189 0.0
C483 C 0.04605 0.47222 0.6565 0.0
C484 C 0.02317 0.46739 0.60453 0.0
C485 C -0.01286 0.47073 0.608 0.0
C486 C -0.00225 0.48431 0.70791 0.0
C487 C 0.03334 0.48142 0.70586 0.0
H488 H 0.96941 0.46639 0.57049 0.0
H489 H -0.01216 0.49052 0.75002 0.0
H490 H 0.95742 0.50032 0.58385 0.0
H491 H 0.93341 0.53253 0.72123 0.0
H492 H 0.9617 0.43064 0.75812 0.0
H493 H 0.03259 0.46051 0.56446 0.0
H494 H 0.05049 0.48581 0.74499 0.0
C495 C 0.80154 0.3272 0.65757 0.0
C496 C 0.78822 0.31476 0.63641 0.0
N497 N 0.75283 0.31496 0.64406 0.0
N498 N 0.77492 0.33544 0.67871 0.0
C499 C 0.74543 0.32758 0.67071 0.0
H500 H 0.82906 0.33021 0.65585 0.0
Co501 Co 0.78308 0.35394 0.70751 0.0
C502 C 0.80985 0.36531 0.57484 0.0
O503 O 0.78637 0.37523 0.58029 0.0
N504 N 0.79339 0.37229 0.73919 0.0
C505 C 0.79778 0.38984 0.81374 0.0
C506 C 0.78291 0.37718 0.80158 0.0
C507 C 0.81694 0.38193 0.71717 0.0
N508 N 0.81926 0.39284 0.76049 0.0
O509 O 0.82131 0.348 0.76355 0.0
H510 H 0.76646 0.37162 0.83785 0.0
H511 H 0.83363 0.3808 0.67227 0.0
O512 O 0.81287 0.35642 0.62358 0.0
C513 C 0.80723 0.34463 0.82142 0.0
O514 O 0.77261 0.34353 0.82441 0.0
N515 N 0.74185 0.35971 0.66082 0.0
C516 C 0.67071 0.36127 0.62634 0.0
C517 C 0.69487 0.35522 0.5803 0.0
C518 C 0.73081 0.3548 0.59799 0.0
C519 C 0.71856 0.36635 0.70308 0.0
C520 C 0.68339 0.36775 0.68558 0.0
H521 H 0.74882 0.34909 0.56531 0.0
H522 H 0.72552 0.36913 0.75478 0.0
H523 H 0.719 0.33117 0.6825 0.0
H524 H 0.80343 0.30644 0.61399 0.0
H525 H 0.79456 0.39601 0.86 0.0
H526 H 0.68573 0.34985 0.53455 0.0
H527 H 0.66547 0.37211 0.72358 0.0
C528 C 0.54544 0.24996 0.90289 0.0
C529 C 0.53248 0.26266 0.88496 0.0
N530 N 0.497 0.26236 0.88986 0.0
N531 N 0.51851 0.24144 0.91927 0.0
C532 C 0.48915 0.24943 0.91181 0.0
H533 H 0.57301 0.247 0.90216 0.0
Co534 Co 0.52719 0.2226 0.94255 0.0
C535 C 0.55592 0.21342 0.80687 0.0
O536 O 0.53261 0.2034 0.80722 0.0
N537 N 0.5382 0.20389 0.9687 0.0
C538 C 0.54163 0.18533 0.03706 0.0
C539 C 0.52748 0.19826 0.02931 0.0
C540 C 0.56117 0.19434 0.94324 0.0
N541 N 0.56287 0.18284 0.98279 0.0
O542 O 0.5641 0.22836 1.00323 0.0
H543 H 0.51066 0.20333 0.06671 0.0
H544 H 0.57755 0.19582 0.89816 0.0
O545 O 0.55826 0.22147 0.85934 0.0
C546 C 0.54813 0.231 0.06031 0.0
O547 O 0.51341 0.23036 0.06144 0.0
N548 N 0.48665 0.21709 0.89182 0.0
C549 C 0.41499 0.21775 0.86063 0.0
C550 C 0.43954 0.22404 0.81616 0.0
C551 C 0.4757 0.2233 0.83192 0.0
C552 C 0.46312 0.20967 0.93018 0.0
C553 C 0.42749 0.20949 0.91421 0.0
H554 H 0.494 0.22939 0.80172 0.0
H555 H 0.47023 0.20537 0.97909 0.0
H556 H 0.46252 0.24575 0.9205 0.0
H557 H 0.548 0.27126 0.86643 0.0
H558 H 0.5377 0.17851 0.08071 0.0
H559 H 0.43073 0.23058 0.77417 0.0
H560 H 0.40947 0.20464 0.95041 0.0
C561 C 0.64527 0.06465 0.88997 0.0
C562 C 0.65257 0.05275 0.85395 0.0
N563 N 0.67136 0.056 0.79693 0.0
N564 N 0.6593 0.07553 0.85631 0.0
C565 C 0.67449 0.0699 0.79918 0.0
H566 H 0.63192 0.06511 0.93935 0.0
Co567 Co 0.66204 0.09418 0.88733 0.0
C568 C 0.63419 0.11089 0.76601 0.0
O569 O 0.64934 0.1222 0.78822 0.0
N570 N 0.66418 0.11281 0.91898 0.0
C571 C 0.68251 0.13336 0.95555 0.0
C572 C 0.69274 0.12015 0.93896 0.0
C573 C 0.63666 0.12162 0.92797 0.0
N574 N 0.64721 0.13429 0.94825 0.0
O575 O 0.61928 0.09211 0.93997 0.0
H576 H 0.71948 0.11626 0.94108 0.0
H577 H 0.60952 0.119 0.91605 0.0
O578 O 0.63736 0.09965 0.80035 0.0
C579 C 0.63273 0.09006 1.00022 0.0
O580 O 0.66719 0.08855 1.00468 0.0
N581 N 0.70722 0.0956 0.84908 0.0
C582 C 0.77895 0.1012 0.85734 0.0
C583 C 0.75767 0.10811 0.80875 0.0
C584 C 0.72152 0.10502 0.80473 0.0
C585 C 0.72845 0.08782 0.89053 0.0
C586 C 0.76432 0.09039 0.89525 0.0
H587 H 0.70519 0.111 0.77073 0.0
H588 H 0.71698 0.08042 0.92566 0.0
H589 H 0.68886 0.07589 0.76131 0.0
H590 H 0.64637 1.04243 0.87108 0.0
H591 H 0.69972 0.14164 0.97192 0.0
H592 H 0.7684 0.11635 0.77732 0.0
H593 H 0.77963 0.08478 0.93334 0.0
C594 C 0.54968 0.07876 0.42081 0.0
C595 C 0.53697 0.06606 0.43869 0.0
N596 N 0.5019 0.06582 0.42721 0.0
N597 N 0.52307 0.08683 0.39792 0.0
C598 C 0.49405 0.07853 0.40184 0.0
H599 H 0.57697 0.08197 0.42499 0.0
Co600 Co 0.53323 0.10539 0.3693 0.0
C601 C 0.55699 0.11534 0.50743 0.0
O602 O 0.53257 0.12496 0.50527 0.0
N603 N 0.54616 0.1237 0.33881 0.0
C604 C 0.55705 0.14027 0.26123 0.0
C605 C 0.54242 0.12752 0.27181 0.0
C606 C 0.56424 0.13443 0.36737 0.0
N607 N 0.57079 0.14468 0.32139 0.0
O608 O 0.57171 0.09863 0.31507 0.0
H609 H 0.52979 0.12135 0.23241 0.0
H610 H 0.57458 0.13457 0.4193 0.0
O611 O 0.56155 0.10739 0.45521 0.0
C612 C 0.55653 0.09478 0.25894 0.0
O613 O 0.52177 0.09473 0.25706 0.0
N614 N 0.49132 0.11186 0.41192 0.0
C615 C 0.41859 0.11354 0.43013 0.0
C616 C 0.43953 0.1065 0.47863 0.0
C617 C 0.4763 0.10606 0.46941 0.0
C618 C 0.47126 0.11985 0.36905 0.0
C619 C 0.43519 0.12117 0.37851 0.0
H620 H 0.49195 0.09966 0.50347 0.0
H621 H 0.48163 0.12391 0.32168 0.0
H622 H 0.46771 0.08177 0.38714 0.0
H623 H 0.55235 0.05776 0.46081 0.0
H624 H 0.55774 0.14585 0.21271 0.0
H625 H 0.42744 0.10044 0.51931 0.0
H626 H 0.41999 0.12654 0.33932 0.0
C627 C 0.63547 0.26479 0.42804 0.0
C628 C 0.64355 0.27683 0.46209 0.0
N629 N 0.66629 0.274 0.51389 0.0
N630 N 0.65299 0.2542 0.4576 0.0
C631 C 0.67088 0.26015 0.51078 0.0
H632 H 0.61914 0.26406 0.38236 0.0
Co633 Co 0.65691 0.23559 0.42475 0.0
C634 C 0.63572 0.21853 0.55105 0.0
O635 O 0.65194 0.20746 0.52854 0.0
N636 N 0.66013 0.21711 0.39171 0.0
C637 C 0.67831 0.19833 0.33579 0.0
C638 C 0.6872 0.21149 0.35591 0.0
C639 C 0.63463 0.20726 0.3905 0.0
N640 N 0.6453 0.19562 0.35816 0.0
O641 O 0.61203 0.23682 0.37832 0.0
H642 H 0.7117 0.21671 0.34396 0.0
H643 H 0.60855 0.20865 0.41261 0.0
O644 O 0.6362 0.22962 0.51494 0.0
C645 C 0.62374 0.23957 0.31728 0.0
O646 O 0.65746 0.24253 0.3107 0.0
N647 N 0.70396 0.23499 0.45489 0.0
C648 C 0.77626 0.23177 0.43351 0.0
C649 C 0.75826 0.22342 0.48155 0.0
C650 C 0.72182 0.22526 0.49196 0.0
C651 C 0.72196 0.24388 0.413 0.0
C652 C 0.75792 0.24252 0.40196 0.0
H653 H 0.7081 0.21818 0.52501 0.0
H654 H 0.70788 0.25139 0.38248 0.0
H655 H 0.68832 0.25447 0.5447 0.0
H656 H 0.63499 0.28701 0.44671 0.0
H657 H 0.69494 0.19128 0.30709 0.0
H658 H 0.77179 0.21512 0.50801 0.0
H659 H 0.77045 0.24915 0.36414 0.0
C660 C 0.44329 0.82314 0.06244 0.0
C661 C 0.45317 0.81107 0.09478 0.0
N662 N 0.46552 0.81415 0.15836 0.0
N663 N 0.44916 0.83382 0.1055 0.0
C664 C 0.46224 0.82797 0.16377 0.0
H665 H 0.43413 0.82404 1.00964 0.0
Co666 Co 0.44692 0.85295 0.08686 0.0
C667 C 0.41645 0.8651 0.21782 0.0
O668 O 0.43166 0.87698 0.20531 0.0
N669 N 0.44404 0.87221 0.06885 0.0
C670 C 0.4564 0.89428 0.04932 0.0
C671 C 0.47044 0.88128 0.05719 0.0
C672 C 0.41415 0.87991 0.06495 0.0
N673 N 0.42096 0.89341 0.05451 0.0
O674 O 0.40548 0.8503 0.03155 0.0
H675 H 0.49822 0.87869 0.05508 0.0
H676 H 0.38792 0.87575 0.07306 0.0
O677 O 0.42047 0.85507 0.17537 0.0
C678 C 0.41938 0.85095 0.97079 0.0
O679 O 0.45355 0.8531 0.96585 0.0
N680 N 0.49142 0.855 0.12627 0.0
C681 C 0.5642 0.85824 0.1311 0.0
C682 C 0.54269 0.86405 0.183 0.0
C683 C 0.50585 0.86214 0.18016 0.0
C684 C 0.51252 0.84891 0.07794 0.0
C685 C 0.54865 0.85029 0.0796 0.0
H686 H 0.48948 0.86689 0.21891 0.0
H687 H 0.50112 0.84329 0.03536 0.0
H688 H 0.47055 0.83385 0.20844 0.0
H689 H 0.45312 0.80093 0.07167 0.0
H690 H 0.47116 0.90365 0.04026 0.0
H691 H 0.55412 0.87024 0.22388 0.0
H692 H 0.56408 0.84579 0.03803 0.0
C693 C 0.29876 1.00319 0.14323 0.0
C694 C 0.28561 1.01583 0.16162 0.0
N695 N 0.25034 1.01575 0.15257 0.0
N696 N 0.27216 0.9949 0.12254 0.0
C697 C 0.24283 1.00298 0.12783 0.0
H698 H 0.32622 1.00013 0.1461 0.0
Co699 Co 0.2813 0.97628 0.09557 0.0
C700 C 0.30907 0.96566 0.22812 0.0
O701 O 0.28611 0.95555 0.2235 0.0
N702 N 0.29313 0.95799 0.06532 0.0
C703 C 0.29967 0.94051 0.99093 0.0
C704 C 0.28286 0.9528 1.00347 0.0
C705 C 0.31843 0.94896 0.0866 0.0
N706 N 0.32217 0.93809 0.04331 0.0
O707 O 0.31849 0.98248 0.0378 0.0
H708 H 0.26492 0.95789 0.96819 0.0
H709 H 0.33534 0.95055 0.13078 0.0
O710 O 0.31165 0.97441 0.17873 0.0
C711 C 0.30356 0.98554 0.98033 0.0
O712 O 0.26883 0.98595 0.97823 0.0
N713 N 0.24064 0.97015 0.14476 0.0
C714 C 0.16884 0.97027 0.17332 0.0
C715 C 0.19245 0.97702 0.21788 0.0
C716 C 0.22879 0.97645 0.2038 0.0
C717 C 0.21816 0.96199 0.10782 0.0
C718 C 0.18242 0.96155 0.12264 0.0
H719 H 0.24651 0.98273 0.23429 0.0
H720 H 0.22603 0.95712 0.06082 0.0
H721 H 0.21644 0.99948 0.11529 0.0
H722 H 0.30081 1.02426 0.18291 0.0
H723 H 0.29697 0.93423 0.94495 0.0
H724 H 0.18278 0.98381 0.25815 0.0
H725 H 0.16513 0.95618 0.087 0.0
C726 C 0.39171 1.01051 0.62458 0.0
C727 C 0.39859 1.02317 0.59548 0.0
N728 N 0.42088 1.02147 0.54171 0.0
N729 N 0.40948 1.00062 0.58984 0.0
C730 C 0.42656 1.00766 0.53888 0.0
H731 H 0.37571 1.00885 0.67014 0.0
Co732 Co 0.41311 0.98135 0.61335 0.0
C733 C 0.3912 0.96683 0.48126 0.0
O734 O 0.40819 0.95553 0.49804 0.0
N735 N 0.4158 0.96207 0.63672 0.0
C736 C 0.43519 0.94161 0.67266 0.0
C737 C 0.44395 0.95522 0.6623 0.0
C738 C 0.38972 0.9524 0.63519 0.0
N739 N 0.40104 0.93971 0.65495 0.0
O740 O 0.36881 0.98216 0.66193 0.0
H741 H 0.46939 0.95981 0.67315 0.0
H742 H 0.36323 0.95458 0.61713 0.0
O743 O 0.3915 0.97724 0.52203 0.0
C744 C 0.38166 0.98335 0.72332 0.0
O745 O 0.41618 0.98403 0.73001 0.0
N746 N 0.45986 0.9812 0.58136 0.0
C747 C 0.53265 0.9785 0.59702 0.0
C748 C 0.51467 0.97104 0.54537 0.0
C749 C 0.47793 0.97264 0.53783 0.0
C750 C 0.47774 0.98922 0.62757 0.0
C751 C 0.51387 0.98812 0.63587 0.0
H752 H 0.46434 0.96627 0.50113 0.0
H753 H 0.46356 0.99583 0.66286 0.0
H754 H 0.44391 1.00276 0.50178 0.0
H755 H 0.38937 1.03296 0.61524 0.0
H756 H 0.45276 0.93375 0.69247 0.0
H757 H 0.52854 0.96363 0.51349 0.0
H758 H 0.52639 0.99401 0.67669 0.0
C759 C 0.33602 0.81767 0.61001 0.0
C760 C 0.32773 0.80502 0.58233 0.0
N761 N 0.30365 0.80677 0.53172 0.0
N762 N 0.31729 0.82761 0.57764 0.0
C763 C 0.29855 0.8206 0.52888 0.0
H764 H 0.35337 0.81928 0.65363 0.0
Co765 Co 0.31313 0.8468 0.60381 0.0
C766 C 0.33528 0.862 0.47325 0.0
O767 O 0.31788 0.87313 0.49111 0.0
N768 N 0.31003 0.8659 0.63001 0.0
C769 C 0.29093 0.88601 0.67127 0.0
C770 C 0.28224 0.87245 0.65893 0.0
C771 C 0.3359 0.87564 0.62872 0.0
N772 N 0.32474 0.88813 0.65169 0.0
O773 O 0.35703 0.84606 0.65241 0.0
H774 H 0.25716 0.86768 0.67094 0.0
H775 H 0.36218 0.87366 0.6089 0.0
O776 O 0.33503 0.85143 0.51298 0.0
C777 C 0.34419 0.84402 0.71331 0.0
O778 O 0.31004 0.84189 0.71922 0.0
N779 N 0.26637 0.84699 0.57196 0.0
C780 C 0.19446 0.85033 0.59618 0.0
C781 C 0.21169 0.85831 0.54551 0.0
C782 C 0.248 0.85636 0.53347 0.0
C783 C 0.24886 0.83842 0.6163 0.0
C784 C 0.21316 0.8398 0.62853 0.0
H785 H 0.26127 0.86322 0.49859 0.0
H786 H 0.26313 0.83122 0.64826 0.0
H787 H 0.28003 0.82552 0.49415 0.0
H788 H 0.33707 0.79521 0.60152 0.0
H789 H 0.27363 0.89365 0.69393 0.0
H790 H 0.19779 0.86645 0.51862 0.0
H791 H 0.20126 0.83348 0.66846 0.0
C792 C 0.55657 0.7694 0.44704 0.0
C793 C 0.54777 0.78117 0.41131 0.0
N794 N 0.53361 0.77755 0.3499 0.0
N795 N 0.54817 0.75829 0.40856 0.0
C796 C 0.53468 0.76362 0.3493 0.0
H797 H 0.56675 0.76907 0.49925 0.0
Co798 Co 0.54821 0.73952 0.43575 0.0
C799 C 0.57646 0.72472 0.30726 0.0
O800 O 0.56154 0.71302 0.32432 0.0
N801 N 0.54884 0.72066 0.46299 0.0
C802 C 0.53345 0.69942 0.49367 0.0
C803 C 0.52197 0.71281 0.48647 0.0
C804 C 0.57685 0.71199 0.46103 0.0
N805 N 0.56793 0.69883 0.47617 0.0
O806 O 0.59052 0.74235 0.4892 0.0
H807 H 0.49524 0.71641 0.49474 0.0
H808 H 0.60276 0.71514 0.44331 0.0
O809 O 0.57324 0.73531 0.34667 0.0
C810 C 0.57576 0.7432 0.5492 0.0
O811 O 0.54114 0.74235 0.55283 0.0
N812 N 0.50305 0.73753 0.39875 0.0
C813 C 0.43166 0.73172 0.41104 0.0
C814 C 0.45233 0.72486 0.36123 0.0
C815 C 0.48836 0.72806 0.35525 0.0
C816 C 0.48223 0.7451 0.44205 0.0
C817 C 0.44665 0.74244 0.44876 0.0
H818 H 0.50423 0.72218 0.32006 0.0
H819 H 0.4938 0.75245 0.47723 0.0
H820 H 0.52448 0.75732 0.3077 0.0
H821 H 0.54983 0.79156 0.43102 0.0
H822 H 0.51692 0.69065 0.50573 0.0
H823 H 0.44124 0.71667 0.33005 0.0
H824 H 0.43188 0.74794 0.48808 0.0
C825 C 0.73561 0.59481 0.4065 0.0
C826 C 0.75049 0.58195 0.40399 0.0
N827 N 0.72954 0.57367 0.36609 0.0
N828 N 0.70529 0.59497 0.36987 0.0
C829 C 0.70174 0.58174 0.34748 0.0
H830 H 0.7468 0.60368 0.43216 0.0
Co831 Co 0.67913 0.61174 0.36139 0.0
C832 C 0.65858 0.599 0.21766 0.0
O833 O 0.68378 0.58987 0.20909 0.0
N834 N 0.65356 0.62849 0.3537 0.0
C835 C 0.63484 0.64791 0.30492 0.0
C836 C 0.64945 0.63524 0.29306 0.0
C837 C 0.64099 0.6374 0.40208 0.0
N838 N 0.62977 0.64937 0.37347 0.0
O839 O 0.6422 0.60387 0.41591 0.0
H840 H 0.6585 0.63154 0.24332 0.0
H841 H 0.64219 0.63556 0.45727 0.0
O842 O 0.65735 0.60634 0.27269 0.0
C843 C 0.6538 0.60604 0.47729 0.0
O844 O 0.68354 0.61291 0.48416 0.0
N845 N 0.71782 0.62012 0.31852 0.0
C846 C 0.78979 0.624 0.32571 0.0
C847 C 0.77535 0.61585 0.27281 0.0
C848 C 0.73879 0.61405 0.2699 0.0
C849 C 0.73116 0.6301 0.36085 0.0
C850 C 0.76736 0.63235 0.36468 0.0
H851 H 0.72861 0.60617 0.23665 0.0
H852 H 0.71475 0.63467 0.40042 0.0
H853 H 0.67911 0.57798 0.31915 0.0
H854 H 0.77574 0.57911 0.42612 0.0
H855 H 0.62939 0.65566 0.26611 0.0
H856 H 0.79221 0.60933 0.2414 0.0
H857 H 0.77763 0.63874 0.40602 0.0
C858 C 0.56449 0.57971 0.88458 0.0
C859 C 0.55077 0.56733 0.90525 0.0
N860 N 0.51538 0.56776 0.89817 0.0
N861 N 0.53817 0.58818 0.86425 0.0
C862 C 0.50841 0.58046 0.87214 0.0
H863 H 0.59212 0.58255 0.88666 0.0
Co864 Co 0.54754 0.60682 0.83862 0.0
C865 C 0.57216 0.61477 0.98193 0.0
O866 O 0.54691 0.62391 0.99034 0.0
N867 N 0.55878 0.62534 0.81214 0.0
C868 C 0.56773 0.64251 0.73766 0.0
C869 C 0.55776 0.62904 0.7448 0.0
C870 C 0.57038 0.63692 0.8449 0.0
N871 N 0.57558 0.6476 0.80064 0.0
O872 O 0.58764 0.60093 0.78637 0.0
H873 H 0.54989 0.62232 0.70298 0.0
H874 H 0.57523 0.63762 0.89968 0.0
O875 O 0.57525 0.60839 0.92429 0.0
C876 C 0.57638 0.59604 0.72892 0.0
O877 O 0.54223 0.59389 0.72223 0.0
N878 N 0.50495 0.61252 0.87937 0.0
C879 C 0.43196 0.61377 0.89624 0.0
C880 C 0.45346 0.60829 0.94888 0.0
C881 C 0.49021 0.60778 0.93946 0.0
C882 C 0.48428 0.61865 0.83044 0.0
C883 C 0.44805 0.61967 0.83849 0.0
H884 H 0.50607 0.60214 0.97644 0.0
H885 H 0.49495 0.62135 0.78064 0.0
H886 H 0.48206 0.5842 0.86103 0.0
H887 H 0.56569 0.55891 0.92756 0.0
H888 H 0.56969 0.64803 0.68915 0.0
H889 H 0.44186 0.60349 0.99412 0.0
H890 H 0.43257 0.62362 0.79567 0.0
C891 C 0.65529 0.76335 0.98651 0.0
C892 C 0.66838 0.77547 1.012 0.0
N893 N 0.70295 0.77628 0.99598 0.0
N894 N 0.6812 0.75623 0.95434 0.0
C895 C 0.71012 0.76446 0.96069 0.0
H896 H 0.62818 0.75993 0.99109 0.0
Co897 Co 0.67114 0.73889 0.91157 0.0
C898 C 0.6501 0.72472 0.04311 0.0
O899 O 0.67412 0.71515 0.03312 0.0
N900 N 0.65847 0.72171 0.86772 0.0
C901 C 0.64664 0.7082 0.77707 0.0
C902 C 0.6607 0.72048 0.79809 0.0
C903 C 0.64195 0.70985 0.88749 0.0
N904 N 0.63475 0.70146 0.83313 0.0
O905 O 0.63078 0.74663 0.86778 0.0
H906 H 0.67185 0.72818 0.76408 0.0
H907 H 0.63327 0.70765 0.93948 0.0
O908 O 0.64517 0.73399 0.99701 0.0
C909 C 0.64258 0.75273 0.8136 0.0
O910 O 0.67629 0.75601 0.81197 0.0
N911 N 0.71433 0.73159 0.94318 0.0
C912 C 0.78582 0.72537 0.95692 0.0
C913 C 0.76707 0.73119 1.0126 0.0
C914 C 0.73083 0.73407 1.00495 0.0
C915 C 0.73289 0.72602 0.88948 0.0
C916 C 0.76788 0.72228 0.89618 0.0
H917 H 0.71682 0.73924 0.04633 0.0
H918 H 0.72205 0.72561 0.83834 0.0
H919 H 0.73579 0.76189 0.93949 0.0
H920 H 0.65354 0.78301 0.0413 0.0
H921 H 0.64497 0.70456 0.7242 0.0
H922 H 0.78065 0.73417 0.0596 0.0
H923 H 0.78184 0.71849 0.85094 0.0
C924 C 0.38596 0.31515 0.67618 0.0
C925 C 0.39229 0.30279 0.70878 0.0
N926 N 0.41441 0.30493 0.76245 0.0
N927 N 0.40395 0.32526 0.70847 0.0
C928 C 0.42029 0.31872 0.76186 0.0
H929 H 0.37076 0.31638 0.62929 0.0
Co930 Co 0.41151 0.34373 0.67643 0.0
C931 C 0.39017 0.3619 0.7977 0.0
O932 O 0.40835 0.37235 0.77352 0.0
N933 N 0.41879 0.3621 0.64328 0.0
C934 C 0.44322 0.38147 0.60379 0.0
C935 C 0.44929 0.36795 0.62165 0.0
C936 C 0.39416 0.37213 0.63378 0.0
N937 N 0.40854 0.38408 0.61159 0.0
O938 O 0.36769 0.34362 0.62629 0.0
H939 H 0.47456 0.36281 0.6189 0.0
H940 H 0.36643 0.37089 0.64624 0.0
O941 O 0.38967 0.35045 0.76451 0.0
C942 C 0.37957 0.34083 0.56551 0.0
O943 O 0.41284 0.3371 0.55985 0.0
N944 N 0.45725 0.34319 0.71203 0.0
C945 C 0.52957 0.3463 0.69714 0.0
C946 C 0.51117 0.35381 0.74803 0.0
C947 C 0.47461 0.35198 0.75536 0.0
C948 C 0.47565 0.33465 0.66914 0.0
C949 C 0.5118 0.33597 0.66108 0.0
H950 H 0.46046 0.35848 0.79075 0.0
H951 H 0.46176 0.32768 0.63519 0.0
H952 H 0.43778 0.32393 0.79745 0.0
H953 H 0.38306 0.29288 0.69087 0.0
H954 H 0.46275 0.3888 0.58604 0.0
H955 H 0.52441 0.36164 0.77832 0.0
H956 H 0.52485 0.32991 0.62154 0.0
C957 C 0.31824 0.50164 0.67601 0.0
C958 C 0.30474 0.51379 0.69999 0.0
N959 N 0.26937 0.51354 0.69303 0.0
N960 N 0.29194 0.49335 0.6537 0.0
C961 C 0.26216 0.50105 0.66414 0.0
H962 H 0.34598 0.49893 0.67583 0.0
Co963 Co 0.30471 0.47535 0.61935 0.0
C964 C 0.33195 0.46534 0.75507 0.0
O965 O 0.30888 0.45524 0.75413 0.0
N966 N 0.32059 0.45774 0.58387 0.0
C967 C 0.32923 0.4408 0.50706 0.0
C968 C 0.31629 0.45388 0.51694 0.0
C969 C 0.3384 0.44694 0.61219 0.0
N970 N 0.34313 0.43644 0.56711 0.0
O971 O 0.34043 0.48365 0.56404 0.0
H972 H 0.30314 0.45999 0.47794 0.0
H973 H 0.34814 0.44658 0.66445 0.0
O974 O 0.33479 0.47341 0.70286 0.0
C975 C 0.32284 0.48711 0.50995 0.0
O976 O 0.28822 0.48585 0.51139 0.0
N977 N 0.265 0.46721 0.66291 0.0
C978 C 0.19408 0.46165 0.68548 0.0
C979 C 0.21305 0.46962 0.73338 0.0
C980 C 0.2491 0.47208 0.72172 0.0
C981 C 0.24714 0.45826 0.62109 0.0
C982 C 0.21241 0.45482 0.6335 0.0
H983 H 0.26305 0.47906 0.75565 0.0
H984 H 0.25748 0.45485 0.5726 0.0
H985 H 0.23579 0.49751 0.6517 0.0
H986 H 0.31994 0.52203 0.72303 0.0
H987 H 0.32866 0.43496 0.45931 0.0
H988 H 0.19962 0.47499 0.77493 0.0
H989 H 0.19871 0.44837 0.59638 0.0
C990 C 0.40294 0.51978 0.13329 0.0
C991 C 0.40996 0.5315 0.09568 0.0
N992 N 0.43076 0.52816 0.04151 0.0
N993 N 0.41922 0.50891 0.10359 0.0
C994 C 0.43528 0.51434 0.04692 0.0
H995 H 0.38829 0.51947 0.18127 0.0
Co996 Co 0.42397 0.49054 0.13894 0.0
C997 C 0.40375 0.47258 1.01714 0.0
O998 O 0.42032 0.46185 0.04262 0.0
N999 N 0.42754 0.47214 0.17374 0.0
C1000 C 0.446 0.45182 0.21352 0.0
C1001 C 0.45592 0.46511 0.19732 0.0
C1002 C 0.40038 0.46308 0.18005 0.0
N1003 N 0.41102 0.45057 0.20238 0.0
O1004 O 0.3796 0.49201 0.18706 0.0
H1005 H 0.48231 0.46926 0.20201 0.0
H1006 H 0.37349 0.4654 0.16476 0.0
O1007 O 0.40324 0.48398 0.05055 0.0
C1008 C 0.39247 0.49507 0.24682 0.0
O1009 O 0.4264 0.49779 0.25079 0.0
N1010 N 0.4707 0.49 0.10697 0.0
C1011 C 0.54329 0.48804 0.12635 0.0
C1012 C 0.52603 0.47925 0.07931 0.0
C1013 C 0.48932 0.4805 0.06961 0.0
C1014 C 0.488 0.49931 0.1474 0.0
C1015 C 0.52395 0.49855 0.15765 0.0
H1016 H 0.47615 0.47314 0.03723 0.0
H1017 H 0.47354 0.5068 0.17725 0.0
H1018 H 0.45144 0.50831 1.01205 0.0
H1019 H 0.40218 0.54183 0.1101 0.0
H1020 H 0.46315 0.44371 0.23229 0.0
H1021 H 0.54036 0.47111 0.05315 0.0
H1022 H 0.5358 0.50551 0.19476 0.0
C1023 C 0.30175 0.33535 0.15095 0.0
C1024 C 0.28776 0.32289 0.13239 0.0
N1025 N 0.25237 0.32354 0.13866 0.0
N1026 N 0.27565 0.34413 0.16905 0.0
C1027 C 0.24564 0.33649 0.162 0.0
H1028 H 0.32954 0.33796 0.14957 0.0
Co1029 Co 0.28715 0.36272 0.1938 0.0
C1030 C 0.31537 0.37118 0.0564 0.0
O1031 O 0.29331 0.38163 0.05651 0.0
N1032 N 0.30128 0.38106 0.22107 0.0
C1033 C 0.3082 0.39905 0.29215 0.0
C1034 C 0.29315 0.38631 0.28407 0.0
C1035 C 0.32361 0.39067 0.19391 0.0
N1036 N 0.32741 0.40183 0.2354 0.0
O1037 O 0.32364 0.35587 0.25264 0.0
H1038 H 0.27697 0.38117 0.3223 0.0
H1039 H 0.33779 0.3895 0.14584 0.0
O1040 O 0.31741 0.36335 0.10969 0.0
C1041 C 0.30716 0.35314 0.30906 0.0
O1042 O 0.27257 0.35449 0.31003 0.0
N1043 N 0.24689 0.36939 0.14538 0.0
C1044 C 0.17453 0.37046 0.12124 0.0
C1045 C 0.19684 0.36339 0.07515 0.0
C1046 C 0.23343 0.3633 0.0872 0.0
C1047 C 0.22567 0.37768 0.18461 0.0
C1048 C 0.18976 0.37868 0.17218 0.0
H1049 H 0.24996 0.3567 0.05573 0.0
H1050 H 0.2347 0.38214 0.23188 0.0
H1051 H 0.21936 0.34044 0.17207 0.0
H1052 H 0.30256 0.31421 0.1125 0.0
H1053 H 0.30603 0.40562 0.33725 0.0
H1054 H 0.18591 0.35694 0.03478 0.0
H1055 H 0.17358 0.3842 0.20931 0.0
C1056 C 0.10944 0.23608 0.14864 0.0
C1057 C 0.11567 0.22482 0.10444 0.0
H1058 H 0.08737 0.24301 0.24559 0.0
C1059 C 0.10422 0.2117 0.12547 0.0
H1060 H 0.1182 0.24629 0.13413 0.0
C1061 C 0.0866 0.20987 0.18825 0.0
C1062 C 0.08035 0.22103 0.23272 0.0
H1063 H 0.10851 0.20278 0.09287 0.0
H1064 H 0.07778 0.19961 0.20196 0.0
C1065 C 0.09221 0.23418 0.21269 0.0
C1066 C 0.10988 0.105 0.12441 0.0
C1067 C 0.11832 0.11629 0.167 0.0
H1068 H 0.08556 0.09817 0.02943 0.0
C1069 C 0.10883 0.12956 0.14463 0.0
H1070 H 0.11705 0.09466 0.13994 0.0
C1071 C 0.09075 0.13153 0.08244 0.0
C1072 C 0.08215 0.12033 0.03981 0.0
H1073 H 0.11482 0.13851 0.17592 0.0
H1074 H 0.0833 0.1419 0.06785 0.0
C1075 C 0.09225 0.10702 0.06089 0.0
C1076 C 0.89123 0.85559 0.85686 0.0
C1077 C 0.89955 0.86754 0.81917 0.0
H1078 H 0.86954 0.84723 0.95097 0.0
C1079 C 0.89204 0.88044 0.84853 0.0
H1080 H 0.89721 0.84552 0.83582 0.0
C1081 C 0.87599 0.8814 0.91354 0.0
C1082 C 0.868 0.86951 0.95175 0.0
H1083 H 0.89832 0.88982 0.82085 0.0
H1084 H 0.86991 0.89151 0.93414 0.0
C1085 C 0.87597 0.85657 0.92307 0.0
C1086 C 0.84945 0.98325 0.80514 0.0
C1087 C 0.83901 0.97004 0.78304 0.0
H1088 H 0.87396 0.99532 0.88553 0.0
C1089 C 0.84624 0.95874 0.82607 0.0
H1090 H 0.84382 0.99218 0.77349 0.0
C1091 C 0.8635 0.96051 0.88934 0.0
C1092 C 0.87356 0.97367 0.91232 0.0
H1093 H 0.83848 0.94845 0.81084 0.0
H1094 H 0.86865 0.95149 0.92074 0.0
C1095 C 0.86628 0.98506 0.86959 0.0
C1096 C 0.1168 0.70127 0.59575 0.0
C1097 C 0.12796 0.71351 0.56397 0.0
H1098 H 0.0899 0.69189 0.68069 0.0
C1099 C 0.11919 0.72615 0.59503 0.0
H1100 H 0.12319 0.69138 0.57307 0.0
C1101 C 0.10061 0.72646 0.6582 0.0
C1102 C 0.08987 0.71414 0.69031 0.0
H1103 H 0.12785 0.73574 0.57195 0.0
H1104 H 0.09474 0.7363 0.68192 0.0
C1105 C 0.09772 0.70158 0.65759 0.0
C1106 C 0.11185 0.59812 0.67117 0.0
C1107 C 0.12611 0.61025 0.69976 0.0
H1108 H 0.08382 0.58895 0.58583 0.0
C1109 C 0.12335 0.62255 0.66193 0.0
H1110 H 0.11379 0.58845 0.6988 0.0
C1111 C 0.10629 0.62282 0.59792 0.0
C1112 C 0.09175 0.61078 0.56932 0.0
H1113 H 0.13406 0.63207 0.68209 0.0
H1114 H 0.10435 0.63256 0.5709 0.0
C1115 C 0.09501 0.59837 0.60624 0.0
C1116 C 0.84015 0.37724 0.47746 0.0
C1117 C 0.83268 0.36491 0.51236 0.0
H1118 H 0.86458 0.38695 0.39063 0.0
C1119 C 0.84505 0.35245 0.4841 0.0
H1120 H 0.83101 0.387 0.49782 0.0
C1121 C 0.86388 0.35237 0.42113 0.0
C1122 C 0.87128 0.36479 0.38643 0.0
H1123 H 0.83936 0.34277 0.5096 0.0
H1124 H 0.87288 0.34266 0.39997 0.0
C1125 C 0.85943 0.37719 0.41585 0.0
C1126 C 0.85651 0.48114 0.41309 0.0
C1127 C 0.84127 0.46911 0.38532 0.0
H1128 H 0.88593 0.49016 0.49706 0.0
C1129 C 0.84376 0.45683 0.42328 0.0
H1130 H 0.85479 0.49081 0.38536 0.0
C1131 C 0.86169 0.45646 0.48645 0.0
C1132 C 0.87718 0.46841 0.51418 0.0
H1133 H 0.83231 0.44739 0.40365 0.0
H1134 H 0.86354 0.44673 0.51359 0.0
C1135 C 0.87404 0.48082 0.47729 0.0
C1136 C 0.58703 0.20345 0.70484 0.0
C1137 C 0.57876 0.21508 0.74479 0.0
H1138 H 0.61133 0.19544 0.61354 0.0
C1139 C 0.58984 0.22809 0.72118 0.0
H1140 H 0.57885 0.19328 0.72144 0.0
C1141 C 0.60805 0.2294 0.65777 0.0
C1142 C 0.6161 0.21768 0.61782 0.0
H1143 H 0.58347 0.23727 0.75053 0.0
H1144 H 0.61591 0.23953 0.64021 0.0
C1145 C 0.60568 0.2047 0.64276 0.0
C1146 C 0.58297 0.12541 0.61448 0.0
C1147 C 0.5784 0.11391 0.57143 0.0
H1148 H 0.60393 0.13341 0.70882 0.0
C1149 C 0.59214 0.10114 0.59301 0.0
H1150 H 0.57267 0.13538 0.59953 0.0
C1151 C 0.60963 0.09992 0.6571 0.0
C1152 C 0.61425 0.11152 0.69981 0.0
H1153 H 0.58865 0.09206 0.56122 0.0
H1154 H 0.61992 0.08999 0.67275 0.0
C1155 C 0.60088 0.12426 0.67734 0.0
C1156 C 0.36299 0.87497 0.37585 0.0
C1157 C 0.35597 0.86224 0.40759 0.0
H1158 H 0.38714 0.88576 0.29215 0.0
C1159 C 0.36846 0.85017 0.37535 0.0
H1160 H 0.35394 0.8845 0.39894 0.0
C1161 C 0.38747 0.8509 0.3126 0.0
C1162 C 0.39477 0.86373 0.28179 0.0
H1163 H 0.36337 0.8402 0.3983 0.0
H1164 H 0.39698 0.84149 0.28898 0.0
C1165 C 0.3822 0.8757 0.31433 0.0
C1166 C 0.36236 0.97928 0.38082 0.0
C1167 C 0.37079 0.96697 0.4156 0.0
H1168 H 0.33691 0.98855 0.2925 0.0
C1169 C 0.35999 0.95442 0.3864 0.0
H1170 H 0.37054 0.98911 0.40185 0.0
C1171 C 0.34063 0.95412 0.32499 0.0
C1172 C 0.33207 0.96634 0.29011 0.0
H1173 H 0.36595 0.94474 0.41171 0.0
H1174 H 0.33225 0.94424 0.30482 0.0
C1175 C 0.34347 0.97896 0.31804 0.0
C1176 C 0.62778 0.71294 0.14955 0.0
C1177 C 0.63041 0.725 0.10982 0.0
H1178 H 0.60895 0.70348 0.24238 0.0
C1179 C 0.61592 0.73727 0.13657 0.0
H1180 H 0.63873 0.70334 0.1308 0.0
C1181 C 0.59933 0.73743 0.20187 0.0
C1182 C 0.59634 0.72526 0.24088 0.0
H1183 H 0.61789 0.74678 0.10761 0.0
H1184 H 0.58822 0.74697 0.22111 0.0
C1185 C 0.61074 0.71304 0.21375 0.0
C1186 C 0.58824 0.61648 0.10786 0.0
C1187 C 0.59452 0.61079 0.04199 0.0
H1188 H 0.60259 0.61698 0.21502 0.0
C1189 C 0.62115 0.60077 0.03511 0.0
H1190 H 0.56768 0.6241 0.11542 0.0
C1191 C 0.64126 0.59669 0.09245 0.0
C1192 C 0.63526 0.60251 0.15818 0.0
H1193 H 0.62656 0.59608 0.98536 0.0
H1194 H 0.66188 0.5891 0.08487 0.0
C1195 C 0.60824 0.61236 0.16522 0.0
C1196 C 0.34442 0.37945 0.94827 0.0
C1197 C 0.33641 0.36847 0.9928 0.0
H1198 H 0.36744 0.38595 0.85275 0.0
C1199 C 0.34609 0.35505 0.9727 0.0
H1200 H 0.33726 0.3899 0.96198 0.0
C1201 C 0.36291 0.3527 0.9086 0.0
C1202 C 0.37095 0.36378 0.86433 0.0
H1203 H 0.33983 0.34635 1.00559 0.0
H1204 H 0.36995 0.34229 0.89409 0.0
C1205 C 0.3617 0.37716 0.88541 0.0
C1206 C 0.37688 0.45791 0.92538 0.0
C1207 C 0.38599 0.47112 0.94905 0.0
H1208 H 0.35301 0.44582 0.84574 0.0
C1209 C 0.37889 0.48252 0.90632 0.0
H1210 H 0.38197 0.4489 0.95685 0.0
C1211 C 0.36281 0.48069 0.84131 0.0
C1212 C 0.353 0.46745 0.81881 0.0
H1213 H 0.38589 0.49281 0.92293 0.0
H1214 H 0.35701 0.48962 0.8098 0.0
C1215 C 0.36034 0.45613 0.86151 0.0
C1216 C 0.8366 0.23946 0.39626 0.0
C1217 C 0.81279 0.2287 0.41035 0.0
H1218 H 0.88896 0.24509 0.3655 0.0
C1219 C 0.82323 0.21508 0.3969 0.0
H1220 H 0.82938 0.25007 0.40614 0.0
C1221 C 0.8573 0.21226 0.3728 0.0
C1222 C 0.88148 0.22301 0.36149 0.0
H1223 H 0.80515 0.20661 0.40531 0.0
H1224 H 0.86539 0.20164 0.36621 0.0
C1225 C 0.87052 0.23665 0.37173 0.0
C1226 C 0.35669 0.12083 0.40382 0.0
C1227 C 0.38084 0.11032 0.42016 0.0
H1228 H 0.30523 0.1259 0.36525 0.0
C1229 C 0.37087 0.09655 0.41062 0.0
H1230 H 0.36404 0.13153 0.40981 0.0
C1231 C 0.33782 0.09335 0.38311 0.0
C1232 C 0.31391 0.10384 0.36518 0.0
H1233 H 0.38938 0.08827 0.42062 0.0
H1234 H 0.33118 0.08263 0.37486 0.0
C1235 C 0.32349 0.11762 0.37669 0.0
C1236 C 0.82139 0.12013 0.88569 0.0
C1237 C 0.81483 0.10605 0.87538 0.0
H1238 H 0.85959 0.13553 0.91255 0.0
C1239 C 0.84182 0.09651 0.88928 0.0
H1240 H 0.80076 0.12768 0.87719 0.0
C1241 C 0.87492 0.10096 0.91138 0.0
C1242 C 0.88188 0.11504 0.91971 0.0
H1243 H 0.83756 0.08559 0.88174 0.0
H1244 H 0.89569 0.09343 0.91774 0.0
C1245 C 0.85467 0.12459 0.90755 0.0
C1246 C 0.37194 0.23673 0.87516 0.0
C1247 C 0.37809 0.22261 0.86593 0.0
H1248 H 0.33587 0.25235 0.90811 0.0
C1249 C 0.35058 0.21327 0.87929 0.0
H1250 H 0.39298 0.2441 0.8679 0.0
C1251 C 0.31797 0.21795 0.90387 0.0
C1252 C 0.31236 0.23206 0.91557 0.0
H1253 H 0.35485 0.2023 0.87355 0.0
H1254 H 0.29717 0.21055 0.91368 0.0
C1255 C 0.33946 0.24141 0.89975 0.0
C1256 C 0.13543 0.84305 0.64107 0.0
C1257 C 0.1588 0.85369 0.62261 0.0
H1258 H 0.08472 0.83767 0.68148 0.0
C1259 C 0.14943 0.86738 0.63712 0.0
H1260 H 0.14189 0.8324 0.63048 0.0
C1261 C 0.11669 0.87038 0.66704 0.0
C1262 C 0.09298 0.85973 0.68335 0.0
H1263 H 0.16734 0.87575 0.6253 0.0
H1264 H 0.10905 0.88103 0.67412 0.0
C1265 C 0.10303 0.84604 0.67175 0.0
C1266 C 0.58174 0.96197 0.6228 0.0
C1267 C 0.56981 0.97559 0.61617 0.0
H1268 H 0.62548 0.94872 0.64617 0.0
C1269 C 0.59264 0.98643 0.63434 0.0
H1270 H 0.56444 0.95341 0.61104 0.0
C1271 C 0.62699 0.98374 0.65659 0.0
C1272 C 0.63939 0.97016 0.6604 0.0
H1273 H 0.58421 0.99704 0.62973 0.0
H1274 H 0.64458 0.99232 0.66622 0.0
C1275 C 0.61626 0.95928 0.64466 0.0
C1276 C 0.07332 0.97018 0.12054 0.0
C1277 C 0.06854 0.98411 0.10318 0.0
H1278 H 0.10871 0.95488 0.16035 0.0
C1279 C 0.09538 0.99358 0.11867 0.0
H1280 H 0.05256 0.96273 0.11127 0.0
C1281 C 0.12692 0.98915 0.14845 0.0
C1282 C 0.1323 0.97517 0.16336 0.0
H1283 H 0.09226 1.00439 0.10634 0.0
H1284 H 0.14798 0.99653 0.15538 0.0
C1285 C 0.10495 0.96575 0.15034 0.0
C1286 C 0.62547 0.85034 0.10706 0.0
C1287 C 0.60228 0.8611 0.12471 0.0
H1288 H 0.67794 0.84456 0.07821 0.0
C1289 C 0.61474 0.87468 0.12505 0.0
H1290 H 0.61645 0.83976 0.1065 0.0
C1291 C 0.64993 0.87744 0.108 0.0
C1292 C 0.67293 0.86665 0.08989 0.0
H1293 H 0.59715 0.88316 0.13698 0.0
H1294 H 0.65945 0.88794 0.1104 0.0
C1295 C 0.66036 0.8531 0.08928 0.0
C1296 C 0.84168 0.73829 0.95069 0.0
C1297 C 0.82463 0.72552 0.95258 0.0
H1298 H 0.88808 0.74941 0.9227 0.0
C1299 C 0.843 0.71368 0.93115 0.0
H1300 H 0.82756 0.74763 0.9642 0.0
C1301 C 0.87782 0.71465 0.90722 0.0
C1302 C 0.89461 0.72751 0.90348 0.0
H1303 H 0.82986 0.70378 0.93034 0.0
H1304 H 0.89157 0.70536 0.89187 0.0
C1305 C 0.87611 0.7393 0.92569 0.0
C1306 C 0.3702 0.62102 0.86611 0.0
C1307 C 0.3935 0.61108 0.89328 0.0
H1308 H 0.31737 0.62555 0.83264 0.0
C1309 C 0.38078 0.59779 0.90696 0.0
H1310 H 0.37935 0.63134 0.85485 0.0
C1311 C 0.34563 0.59448 0.89342 0.0
C1312 C 0.32248 0.60437 0.86583 0.0
H1313 H 0.39826 0.5898 0.92592 0.0
H1314 H 0.33643 0.58416 0.90471 0.0
C1315 C 0.335 0.61767 0.85224 0.0
C1316 C 0.8812 0.62566 0.40554 0.0
C1317 C 0.88624 0.61174 0.42302 0.0
H1318 H 0.84632 0.64058 0.35935 0.0
C1319 C 0.85884 0.60232 0.41158 0.0
H1320 H 0.90222 0.63308 0.41299 0.0
C1321 C 0.82841 0.60639 0.37739 0.0
C1322 C 0.82391 0.6201 0.35648 0.0
H1323 H 0.86204 0.59155 0.4248 0.0
H1324 H 0.80839 0.59875 0.36683 0.0
C1325 C 0.84985 0.62987 0.37323 0.0
C1326 C 0.33651 0.73269 0.46817 0.0
C1327 C 0.32855 0.71866 0.47436 0.0
H1328 H 0.37448 0.74777 0.43858 0.0
C1329 C 0.35512 0.70886 0.46161 0.0
H1330 H 0.31628 0.74043 0.47556 0.0
C1331 C 0.3886 0.71306 0.43969 0.0
C1332 C 0.39584 0.7271 0.42999 0.0
H1333 H 0.34933 0.69796 0.46499 0.0
H1334 H 0.4087 0.70535 0.43006 0.0
C1335 C 0.36964 0.73687 0.44553 0.0
C1336 C 0.12844 0.35273 0.14039 0.0
C1337 C 0.13702 0.36665 0.13057 0.0
H1338 H 0.09005 0.3382 0.17569 0.0
C1339 C 0.11161 0.37675 0.14622 0.0
H1340 H 0.14785 0.34475 0.13108 0.0
C1341 C 0.07868 0.37303 0.17312 0.0
C1342 C 0.07056 0.35912 0.18488 0.0
H1343 H 0.11777 0.38757 0.13994 0.0
H1344 H 0.05948 0.38101 0.18417 0.0
C1345 C 0.09562 0.34901 0.16741 0.0
C1346 C 0.59289 0.47264 0.16504 0.0
C1347 C 0.58021 0.48588 0.14915 0.0
H1348 H 0.63705 0.46066 0.20101 0.0
C1349 C 0.60171 0.49735 0.16296 0.0
H1350 H 0.57666 0.46364 0.15609 0.0
C1351 C 0.63495 0.49567 0.19212 0.0
C1352 C 0.64795 0.48248 0.20635 0.0
H1353 H 0.59298 0.50767 0.15045 0.0
H1354 H 0.65157 0.50464 0.19935 0.0
C1355 C 0.62678 0.47095 0.19289 0.0
C1356 C 0.10516 0.46823 0.60456 0.0
C1357 C 0.08293 0.46765 0.66216 0.0
H1358 H 0.15806 0.46713 0.56764 0.0
C1359 C 0.09691 0.46408 0.7274 0.0
H1360 H 0.09504 0.47114 0.55417 0.0
C1361 C 0.13306 0.46181 0.73552 0.0
C1362 C 0.15549 0.46289 0.67827 0.0
H1363 H 0.07995 0.46343 0.77252 0.0
H1364 H 0.1435 0.45941 0.78633 0.0
C1365 C 0.14118 0.46595 0.6126 0.0
C1366 C 0.59032 0.34005 0.65664 0.0
C1367 C 0.56547 0.35021 0.67442 0.0
H1368 H 0.64312 0.33575 0.62391 0.0
C1369 C 0.57405 0.36413 0.6643 0.0
H1370 H 0.58438 0.32924 0.66353 0.0
C1371 C 0.60754 0.36783 0.64046 0.0
C1372 C 0.63295 0.35767 0.62624 0.0
H1373 H 0.55498 0.37216 0.67534 0.0
H1374 H 0.61436 0.37864 0.63702 0.0
C1375 C 0.62369 0.34375 0.63247 0.0
C1376 C 0.07451 0.16172 0.47028 0.0
C1377 C 0.08855 0.17466 0.45247 0.0
H1378 H 0.08225 0.13981 0.47262 0.0
C1379 C 0.12227 0.17519 0.42194 0.0
H1380 H 0.04852 0.16098 0.49353 0.0
C1381 C 0.14184 0.16308 0.41124 0.0
C1382 C 0.12778 0.15015 0.42921 0.0
H1383 H 0.13386 0.18499 0.40807 0.0
H1384 H 0.16794 0.1638 0.38845 0.0
C1385 C 0.09369 0.1496 0.45802 0.0
C1386 C 0.07276 0.18006 0.80377 0.0
C1387 C 0.08662 0.16704 0.82091 0.0
H1388 H 0.08114 0.20192 0.80102 0.0
C1389 C 0.12071 0.16633 0.84962 0.0
H1390 H 0.04649 0.18094 0.78199 0.0
C1391 C 0.14074 0.17833 0.85941 0.0
C1392 C 0.12685 0.19134 0.84218 0.0
H1393 H 0.13218 0.15648 0.86293 0.0
H1394 H 0.16704 0.17746 0.88107 0.0
C1395 C 0.09247 0.19207 0.81498 0.0
C1396 C 0.87531 0.90708 0.47672 0.0
C1397 C 0.88541 0.90152 0.54102 0.0
H1398 H 0.85057 0.92336 0.42163 0.0
C1399 C 0.87614 0.90883 0.60145 0.0
H1400 H 0.88125 0.90182 0.4288 0.0
C1401 C 0.85739 0.92133 0.59734 0.0
C1402 C 0.84749 0.92685 0.53269 0.0
H1403 H 0.88363 0.90499 0.65194 0.0
H1404 H 0.85039 0.92656 0.64486 0.0
C1405 C 0.857 0.91952 0.47261 0.0
C1406 C 0.91648 0.92712 0.14684 0.0
C1407 C 0.89961 0.93894 0.173 0.0
H1408 H 0.91533 0.90512 0.13593 0.0
C1409 C 0.86764 0.9374 0.20917 0.0
H1410 H 0.94109 0.92805 0.11854 0.0
C1411 C 0.85336 0.92426 0.22054 0.0
C1412 C 0.87021 0.91243 0.19421 0.0
H1413 H 0.85427 0.94634 0.2301 0.0
H1414 H 0.82894 0.92333 0.24945 0.0
C1415 C 0.9017 0.91403 0.15648 0.0
C1416 C 0.12183 0.67384 0.94011 0.0
C1417 C 0.08479 0.67374 0.93351 0.0
H1418 H 0.16959 0.66213 0.94847 0.0
C1419 C 0.06779 0.66082 0.92974 0.0
H1420 H 0.13601 0.68348 0.94355 0.0
C1421 C 0.08716 0.64845 0.9329 0.0
C1422 C 0.12417 0.64857 0.94053 0.0
H1423 H 0.03939 0.66022 0.92375 0.0
H1424 H 0.07302 0.63878 0.93038 0.0
C1425 C 0.14114 0.66149 0.94374 0.0
C1426 C 0.13458 0.66052 0.29683 0.0
C1427 C 0.12296 0.67341 0.32114 0.0
H1428 H 0.12232 0.63915 0.28184 0.0
C1429 C 0.08879 0.67445 0.34923 0.0
H1430 H 0.16088 0.65936 0.27545 0.0
C1431 C 0.06664 0.66291 0.35223 0.0
C1432 C 0.07831 0.65001 0.3282 0.0
H1433 H 0.07894 0.68423 0.3679 0.0
H1434 H 0.04051 0.66405 0.37436 0.0
C1435 C 0.11264 0.64892 0.30089 0.0
C1436 C 0.82926 0.41791 0.13258 0.0
C1437 C 0.8465 0.43065 0.14173 0.0
H1438 H 0.8338 0.39592 0.12741 0.0
C1439 C 0.88308 0.43052 0.15468 0.0
H1440 H 0.80105 0.41754 0.12347 0.0
C1441 C 0.90193 0.41804 0.15685 0.0
C1442 C 0.8847 0.40531 0.14695 0.0
H1443 H 0.89729 0.44008 0.16177 0.0
H1444 H 0.93007 0.41838 0.1668 0.0
C1445 C 0.84801 0.40545 0.13547 0.0
C1446 C 0.85289 0.42915 0.77668 0.0
C1447 C 0.88683 0.42807 0.7476 0.0
H1448 H 0.80487 0.41872 0.8039 0.0
C1449 C 0.89783 0.41525 0.72127 0.0
H1450 H 0.84374 0.43886 0.79751 0.0
C1451 C 0.8755 0.40377 0.72423 0.0
C1452 C 0.84183 0.40478 0.75459 0.0
H1453 H 0.92366 0.41413 0.69777 0.0
H1454 H 0.88492 0.39404 0.70414 0.0
C1455 C 0.83078 0.41761 0.7807 0.0
C1456 C 0.59138 0.14569 0.98334 0.0
C1457 C 0.62572 0.14651 0.95594 0.0
H1458 H 0.54462 0.15665 1.01383 0.0
C1459 C 0.63879 0.15949 0.93598 0.0
H1460 H 0.58066 0.13586 0.99933 0.0
C1461 C 0.61798 0.17136 0.94324 0.0
C1462 C 0.5839 0.17058 0.97199 0.0
H1463 H 0.66502 0.16042 0.91404 0.0
H1464 H 0.62885 0.1812 0.92782 0.0
C1465 C 0.57087 0.1576 0.99195 0.0
C1466 C 0.60416 0.17763 0.40203 0.0
C1467 C 0.62598 0.18288 0.34914 0.0
H1468 H 0.57008 0.16114 0.43531 0.0
C1469 C 0.62962 0.17522 0.2878 0.0
H1470 H 0.60112 0.18323 0.45014 0.0
C1471 C 0.61165 0.16274 0.27908 0.0
C1472 C 0.59005 0.15739 0.33199 0.0
H1473 H 0.64611 0.17899 0.24607 0.0
H1474 H 0.61497 0.15717 0.23097 0.0
C1475 C 0.58671 0.16494 0.39386 0.0
C1476 C 0.40496 0.9177 0.07863 0.0
C1477 C 0.39585 0.90463 0.05276 0.0
H1478 H 0.38861 0.93855 0.09664 0.0
C1479 C 0.36182 0.90272 0.02525 0.0
H1480 H 0.43083 0.91946 0.10085 0.0
C1481 C 0.33773 0.91368 0.02246 0.0
C1482 C 0.34685 0.92675 0.04819 0.0
H1483 H 0.35405 0.89281 1.00469 0.0
H1484 H 0.31181 0.91191 1.00048 0.0
C1485 C 0.38066 0.9286 0.0769 0.0
C1486 C 0.38124 0.90144 0.65168 0.0
C1487 C 0.34404 0.90113 0.65288 0.0
H1488 H 0.42828 0.91367 0.65083 0.0
C1489 C 0.32599 0.91385 0.65469 0.0
H1490 H 0.39628 0.89197 0.65067 0.0
C1491 C 0.34447 0.92642 0.65534 0.0
C1492 C 0.38169 0.92673 0.65445 0.0
H1493 H 0.29741 0.91418 0.65472 0.0
H1494 H 0.32946 0.93589 0.65714 0.0
C1495 C 0.39972 0.914 0.65255 0.0
C1496 C 0.57928 0.67368 0.48872 0.0
C1497 C 0.58758 0.68651 0.45851 0.0
H1498 H 0.58667 0.6517 0.48571 0.0
C1499 C 0.61287 0.68682 0.4051 0.0
H1500 H 0.56023 0.67306 0.53045 0.0
C1501 C 0.62771 0.67468 0.37973 0.0
C1502 C 0.61799 0.66183 0.40712 0.0
H1503 H 0.61994 0.69637 0.37997 0.0
H1504 H 0.64619 0.67531 0.33702 0.0
C1505 C 0.59453 0.66146 0.46352 0.0
C1506 C 0.5935 0.68537 0.7766 0.0
C1507 C 0.6164 0.68838 0.83176 0.0
H1508 H 0.5619 0.67043 0.72484 0.0
C1509 C 0.62323 0.67801 0.88091 0.0
H1510 H 0.58713 0.69319 0.73865 0.0
C1511 C 0.60899 0.66469 0.87249 0.0
C1512 C 0.5875 0.66153 0.81492 0.0
H1513 H 0.64087 0.68003 0.92385 0.0
H1514 H 0.61597 0.65676 0.90937 0.0
C1515 C 0.57917 0.67223 0.76852 0.0
C1516 C 0.40649 0.40927 0.62923 0.0
C1517 C 0.39127 0.3972 0.6023 0.0
H1518 H 0.40259 0.43123 0.64034 0.0
C1519 C 0.35955 0.39821 0.56494 0.0
H1520 H 0.43085 0.40873 0.65851 0.0
C1521 C 0.34389 0.41109 0.55311 0.0
C1522 C 0.35907 0.42317 0.5802 0.0
H1523 H 0.34742 0.38906 0.5435 0.0
H1524 H 0.31971 0.41163 0.52324 0.0
C1525 C 0.39029 0.4221 0.61917 0.0
C1526 C 0.35544 0.43899 0.23682 0.0
C1527 C 0.38976 0.43828 0.20928 0.0
H1528 H 0.30891 0.4279 0.26732 0.0
C1529 C 0.40292 0.42537 0.18832 0.0
H1530 H 0.34468 0.44878 0.25351 0.0
C1531 C 0.38214 0.41344 0.19474 0.0
C1532 C 0.34813 0.41413 0.22393 0.0
H1533 H 0.42917 0.42454 0.16634 0.0
H1534 H 0.39298 0.40364 0.17863 0.0
C1535 C 0.33507 0.42705 0.24488 0.0
C1536 C 0.97139 0.30279 0.33828 0.0
C1537 C 0.93992 0.30013 0.3019 0.0
H1538 H 0.01513 0.2945 0.39481 0.0
C1539 C 0.92707 0.28648 0.30133 0.0
H1540 H 0.98237 0.31305 0.34023 0.0
C1541 C 0.94624 0.27572 0.33246 0.0
C1542 C 0.97881 0.27832 0.36491 0.0
H1543 H 0.90262 0.284 0.27513 0.0
H1544 H 0.93647 0.26529 0.328 0.0
C1545 C -0.00955 0.29206 0.36925 0.0
C1546 C 0.23781 1.04046 0.17308 0.0
C1547 C 0.22651 1.02666 0.17385 0.0
H1548 H 0.22793 0.06123 0.20373 0.0
C1549 C 0.19322 1.0237 0.20243 0.0
H1550 H 0.26317 0.04316 0.1509 0.0
C1551 C 0.17251 1.03416 0.23218 0.0
C1552 C 0.18465 0.0479 0.23481 0.0
H1553 H 0.184 1.0132 0.20507 0.0
H1554 H 0.14737 1.03136 0.25484 0.0
C1555 C 0.21729 0.05091 0.20307 0.0
C1556 C 0.94513 0.06672 0.9459 0.0
C1557 C 0.97685 0.06374 0.91123 0.0
H1558 H 0.90134 0.05904 1.00434 0.0
C1559 C -0.01271 0.04987 0.90579 0.0
H1560 H 0.93672 0.07727 0.95228 0.0
C1561 C 0.96761 1.03936 0.9372 0.0
C1562 C 0.93669 1.04236 0.97507 0.0
H1563 H 0.01142 0.04717 0.87886 0.0
H1564 H 0.9777 1.02898 0.93397 0.0
C1565 C 0.92521 0.0562 0.97699 0.0
C1566 C 0.19558 0.31635 0.08451 0.0
C1567 C 0.22808 0.31296 0.11532 0.0
H1568 H 0.1507 0.30932 0.02709 0.0
C1569 C 0.23848 0.29904 0.1158 0.0
H1570 H 0.18685 0.32694 0.08269 0.0
C1571 C 0.21821 0.28892 0.08274 0.0
C1572 C 0.18667 0.29237 0.04818 0.0
H1573 H 0.26308 0.29599 0.13997 0.0
H1574 H 0.2283 0.27852 0.08195 0.0
C1575 C 0.17511 0.30619 0.05158 0.0
C1576 C 0.04473 0.79255 0.7774 0.0
C1577 C 0.02925 0.77938 0.7839 0.0
H1578 H 0.0379 0.81372 0.74673 0.0
C1579 C -0.00503 0.77749 0.75746 0.0
H1580 H 0.07124 0.79439 0.79626 0.0
C1581 C 0.97606 0.78854 0.72906 0.0
C1582 C -0.0092 0.80184 0.7257 0.0
H1583 H 0.98194 0.76762 0.7616 0.0
H1584 H 0.9493 0.78675 0.71137 0.0
C1585 C 0.02581 0.80363 0.74834 0.0
C1586 C 0.72031 0.05036 0.71583 0.0
C1587 C 0.68946 0.0464 0.75133 0.0
H1588 H 0.7648 0.04404 0.65515 0.0
C1589 C 0.67841 1.03257 0.74587 0.0
H1590 H 0.72995 0.06082 0.7185 0.0
C1591 C 0.69879 1.02283 0.70964 0.0
C1592 C 0.73078 1.02669 0.67807 0.0
H1593 H 0.65449 1.02914 0.7713 0.0
H1594 H 0.69047 1.01218 0.70948 0.0
C1595 C 0.7406 1.04066 0.67981 0.0
C1596 C 0.76272 0.78512 0.02595 0.0
C1597 C 0.72647 0.78743 1.01551 0.0
H1598 H 0.81248 0.79348 0.05715 0.0
C1599 C 0.71311 0.80078 0.02795 0.0
H1600 H 0.77388 0.77498 0.01809 0.0
C1601 C 0.73526 0.81148 0.05042 0.0
C1602 C 0.77153 0.80917 0.06107 0.0
H1603 H 0.68544 0.80306 0.01962 0.0
H1604 H 0.72402 0.8216 0.05816 0.0
C1605 C 0.78486 0.7958 0.04865 0.0
C1606 C 0.23719 0.54839 0.75159 0.0
C1607 C 0.20386 0.5454 0.78005 0.0
H1608 H 0.28319 0.54087 0.6996 0.0
C1609 C 0.19131 0.53174 0.77474 0.0
H1610 H 0.24753 0.55877 0.75278 0.0
C1611 C 0.21197 0.52134 0.74374 0.0
C1612 C 0.24574 0.52433 0.71725 0.0
H1613 H 0.16585 0.52897 0.79615 0.0
H1614 H 0.20205 0.5109 0.74277 0.0
C1615 C 0.25766 0.53807 0.72061 0.0
C1616 C -0.00567 0.52534 0.54497 0.0
C1617 C 0.96695 0.52957 0.58953 0.0
H1618 H 0.03332 0.5312 0.4702 0.0
C1619 C 0.95805 0.54365 0.59103 0.0
H1620 H 0.00253 0.51468 0.54321 0.0
C1621 C 0.97587 0.55319 0.5491 0.0
C1622 C 0.00319 0.54895 0.50435 0.0
H1623 H 0.93692 0.54731 0.62406 0.0
H1624 H 0.96764 0.56385 0.55083 0.0
C1625 C 0.01219 0.53488 0.50314 0.0
C1626 C 0.29573 0.78229 0.4952 0.0
C1627 C 0.28318 0.79598 0.49816 0.0
H1628 H 0.28417 0.76115 0.47181 0.0
C1629 C 0.24902 0.79863 0.47257 0.0
H1630 H 0.32202 0.77979 0.51331 0.0
C1631 C 0.22756 0.78792 0.44816 0.0
C1632 C 0.2394 0.77416 0.4485 0.0
H1633 H 0.23808 0.80891 0.47392 0.0
H1634 H 0.20121 0.79042 0.43033 0.0
C1635 C 0.27416 0.77155 0.47065 0.0
C1636 C 0.74336 0.54201 0.25491 0.0
C1637 C 0.76792 0.53462 0.29518 0.0
H1638 H 0.71175 0.56041 0.24577 0.0
C1639 C 0.7756 0.53944 0.36204 0.0
H1640 H 0.73703 0.53855 0.2031 0.0
C1641 C 0.76099 0.55172 0.38666 0.0
C1642 C 0.7385 0.55974 0.34493 0.0
H1643 H 0.79395 0.53387 0.39472 0.0
H1644 H 0.76842 0.5552 0.43785 0.0
C1645 C 0.72886 0.5545 0.27946 0.0
C1646 C 0.69509 0.3077 0.59416 0.0
C1647 C 0.72877 0.30436 0.61995 0.0
H1648 H 0.64857 0.30072 0.54158 0.0
C1649 C 0.73995 0.29055 0.61588 0.0
H1650 H 0.68573 0.3182 0.59581 0.0
C1651 C 0.71896 0.28052 0.58383 0.0
C1652 C 0.68598 0.28396 0.5548 0.0
H1653 H 0.7655 0.28753 0.63602 0.0
H1654 H 0.72946 0.27021 0.57942 0.0
C1655 C 0.67398 0.29764 0.56211 0.0
C1656 C 0.46389 0.29751 0.83941 0.0
C1657 C 0.43271 0.29442 0.80264 0.0
H1658 H 0.50814 0.28985 0.89701 0.0
C1659 C 0.42141 0.28056 0.80158 0.0
H1660 H 0.47389 0.30791 0.84191 0.0
C1661 C 0.44164 0.27012 0.83265 0.0
C1662 C 0.47347 0.2732 0.86656 0.0
H1663 H 0.39743 0.27763 0.775 0.0
H1664 H 0.43337 0.25955 0.82686 0.0
C1665 C 0.48386 0.28708 0.87085 0.0
C1666 C 0.49162 1.04086 0.44448 0.0
C1667 C 0.47875 0.05447 0.44563 0.0
H1668 H 0.48389 1.01985 0.47365 0.0
C1669 C 0.44469 0.05677 0.4724 0.0
H1670 H 0.51753 1.03865 0.42335 0.0
C1671 C 0.42506 0.04586 0.50118 0.0
C1672 C 0.4389 1.03235 0.50371 0.0
H1673 H 0.43395 0.0671 0.47429 0.0
H1674 H 0.39937 0.04811 0.52308 0.0
C1675 C 0.47208 1.02999 0.47296 0.0
C1676 C 0.47391 0.79082 0.20818 0.0
C1677 C 0.48261 0.80489 0.20662 0.0
H1678 H 0.48276 0.77116 0.25498 0.0
C1679 C 0.50901 0.80969 0.25183 0.0
H1680 H 0.45356 0.78678 0.17448 0.0
C1681 C 0.52605 0.8007 0.29764 0.0
C1682 C 0.51712 0.78665 0.29992 0.0
H1683 H 0.51704 0.82037 0.25111 0.0
H1684 H 0.54646 0.8048 0.33096 0.0
C1685 C 0.49086 0.78183 0.25428 0.0
C1686 C 0.48123 0.53387 0.964 0.0
C1687 C 0.44933 0.5377 0.99631 0.0
H1688 H 0.52659 0.54029 0.90622 0.0
C1689 C 0.43758 0.5514 0.98812 0.0
H1690 H 0.49145 0.52352 0.96874 0.0
C1691 C 0.45818 0.56114 0.95252 0.0
C1692 C 0.49108 0.55744 0.92411 0.0
H1693 H 0.4129 0.55474 1.01094 0.0
H1694 H 0.44918 0.5717 0.95037 0.0
C1695 C 0.50169 0.54357 0.92846 0.0
C1696 C 0.10845 0.24362 0.61512 0.0
C1697 C 0.07336 0.23914 0.61592 0.0
H1698 H 0.15279 0.25021 0.67427 0.0
C1699 C 0.05562 0.23804 0.6801 0.0
H1700 H 0.12269 0.24465 0.56671 0.0
C1701 C 0.07289 0.24111 0.74234 0.0
C1702 C 0.10811 0.24552 0.74154 0.0
H1703 H 0.02846 0.23455 0.68247 0.0
H1704 H 0.05888 0.23984 0.79086 0.0
C1705 C 0.12552 0.24687 0.6771 0.0
C1706 C 0.12204 0.09489 0.59577 0.0
C1707 C 0.10495 0.09654 0.5312 0.0
H1708 H 0.11906 0.09694 0.70615 0.0
C1709 C 0.07007 0.10136 0.53025 0.0
H1710 H 0.14904 0.09122 0.59883 0.0
C1711 C 0.05282 0.10452 0.59254 0.0
C1712 C 0.0703 0.1031 0.6568 0.0
H1713 H 0.05634 0.10286 0.48164 0.0
H1714 H 0.02591 0.10831 0.59021 0.0
C1715 C 0.10504 0.09823 0.65767 0.0
C1716 C 0.84464 0.84459 0.38803 0.0
C1717 C 0.86464 0.84429 0.32626 0.0
H1718 H 0.84467 0.84309 0.49882 0.0
C1719 C 0.90063 0.84106 0.32988 0.0
H1720 H 0.81673 0.84709 0.38724 0.0
C1721 C 0.9164 0.83845 0.39412 0.0
C1722 C 0.89666 0.83931 0.45618 0.0
H1723 H 0.91662 0.84069 0.28335 0.0
H1724 H 0.94449 0.83629 0.39516 0.0
C1725 C 0.86051 0.84225 0.45225 0.0
C1726 C 0.81165 0.99196 0.3429 0.0
C1727 C 0.8303 0.99155 0.40627 0.0
H1728 H 0.81461 0.9934 0.23188 0.0
C1729 C 0.86714 0.99267 0.40515 0.0
H1730 H 0.78312 0.99101 0.34185 0.0
C1731 C 0.88495 0.99415 0.34224 0.0
C1732 C 0.86644 0.99438 0.27873 0.0
H1733 H 0.88224 0.99233 0.45276 0.0
H1734 H 0.91351 0.99491 0.34361 0.0
C1735 C 0.82956 0.99327 0.27969 0.0
C1736 C 0.08991 0.72798 0.12764 0.0
C1737 C 0.10729 0.73009 0.06381 0.0
H1738 H 0.09326 0.72771 0.2379 0.0
C1739 C 0.1431 0.73372 0.06406 0.0
H1740 H 0.06228 0.72507 0.12973 0.0
C1741 C 0.16097 0.73529 0.12729 0.0
C1742 C 0.14325 0.73323 0.19095 0.0
H1743 H 0.15704 0.73553 1.0159 0.0
H1744 H 0.18874 0.73798 0.12624 0.0
C1745 C 0.10755 0.72958 0.19018 0.0
C1746 C 0.1125 0.58602 0.1934 0.0
C1747 C 0.08021 0.59297 0.19646 0.0
H1748 H 0.15336 0.57797 0.12897 0.0
C1749 C 0.06424 0.59738 0.13419 0.0
H1750 H 0.12514 0.58237 0.24026 0.0
C1751 C 0.08029 0.59492 0.07009 0.0
C1752 C 0.11248 0.58784 0.06682 0.0
H1753 H 0.03921 0.6028 0.13496 0.0
H1754 H 0.06768 0.59865 0.02338 0.0
C1755 C 0.12832 0.58338 0.12927 0.0
C1756 C 0.88166 0.34949 0.94917 0.0
C1757 C 0.86427 0.34794 1.01342 0.0
H1758 H 0.87768 0.34947 0.83868 0.0
C1759 C 0.82816 0.34479 1.01388 0.0
H1760 H 0.90955 0.35197 0.94666 0.0
C1761 C 0.80993 0.34322 0.95118 0.0
C1762 C 0.82744 0.34486 0.88701 0.0
H1763 H 0.81417 0.34343 0.06235 0.0
H1764 H 0.78193 0.34091 0.95311 0.0
C1765 C 0.86351 0.34798 0.88687 0.0
C1766 C 0.88632 0.48198 1.01407 0.0
C1767 C 0.85874 0.49153 0.01947 0.0
H1768 H 0.92194 0.4714 0.94662 0.0
C1769 C 0.84528 0.49761 0.9584 0.0
H1770 H 0.89681 0.47694 0.05967 0.0
C1771 C 0.85897 0.49417 0.89341 0.0
C1772 C 0.88674 0.48474 0.88836 0.0
H1773 H 0.82378 0.50496 0.96054 0.0
H1774 H 0.84866 0.49919 0.84759 0.0
C1775 C 0.90027 0.47868 0.94919 0.0
C1776 C 0.603 0.23698 0.12595 0.0
C1777 C 0.56708 0.23367 0.12597 0.0
H1778 H 0.64852 0.24169 0.18582 0.0
C1779 C 0.54907 0.23274 0.18997 0.0
H1780 H 0.61754 0.23781 0.07777 0.0
C1781 C 0.56689 0.23482 0.25278 0.0
C1782 C 0.60294 0.23806 0.25262 0.0
H1783 H 0.52124 0.23014 0.19173 0.0
H1784 H 0.55261 0.23377 0.30112 0.0
C1785 C 0.62062 0.23924 0.18834 0.0
C1786 C 0.57542 0.0911 0.06671 0.0
C1787 C 0.61237 0.09049 0.06573 0.0
H1788 H 0.52884 0.0927 0.12881 0.0
C1789 C 0.63084 0.09071 0.12932 0.0
H1790 H 0.5605 0.09096 0.01887 0.0
C1791 C 0.61291 0.09185 0.19228 0.0
C1792 C 0.57603 0.09261 0.19333 0.0
H1793 H 0.65945 0.0903 0.13074 0.0
H1794 H 0.62796 0.09228 0.23994 0.0
C1795 C 0.55742 0.09206 0.12992 0.0
C1796 C 0.36516 0.84403 0.90483 0.0
C1797 C 0.39961 0.84916 0.90554 0.0
H1798 H 0.32114 0.83803 0.84321 0.0
C1799 C 0.41652 0.85212 0.84191 0.0
H1800 H 0.35165 0.84154 0.95269 0.0
C1801 C 0.39922 0.85011 0.77886 0.0
C1802 C 0.36467 0.84507 0.77815 0.0
H1803 H 0.44323 0.85612 0.84057 0.0
H1804 H 0.41261 0.85273 0.73104 0.0
C1805 C 0.34792 0.84196 0.84178 0.0
C1806 C 0.3601 0.98419 0.91421 0.0
C1807 C 0.32345 0.98595 0.91444 0.0
H1808 H 0.40672 0.98182 0.85418 0.0
C1809 C 0.30544 0.98693 0.8505 0.0
H1810 H 0.3747 0.98328 0.96224 0.0
C1811 C 0.32382 0.98597 0.78757 0.0
C1812 C 0.36051 0.98411 0.78769 0.0
H1813 H 0.277 0.9882 0.84894 0.0
H1814 H 0.30943 0.98672 0.73925 0.0
C1815 C 0.37836 0.98329 0.85178 0.0
C1816 C 0.6263 0.7527 0.6195 0.0
C1817 C 0.5946 0.74535 0.61529 0.0
H1818 H 0.6656 0.76136 0.68617 0.0
C1819 C 0.5778 0.74115 0.67703 0.0
H1820 H 0.63942 0.75627 0.57297 0.0
C1821 C 0.59226 0.74418 0.7416 0.0
C1822 C 0.62401 0.7515 0.7463 0.0
H1823 H 0.55321 0.73544 0.67556 0.0
H1824 H 0.57901 0.74047 0.78769 0.0
C1825 C 0.6408 0.75581 0.68449 0.0
C1826 C 0.6329 0.60146 0.66741 0.0
C1827 C 0.59842 0.59626 0.66554 0.0
H1828 H 0.67726 0.60852 0.60956 0.0
C1829 C 0.5833 0.59299 0.60075 0.0
H1830 H 0.64532 0.60407 0.71619 0.0
C1831 C 0.60145 0.5957 0.53901 0.0
C1832 C 0.63513 0.60167 0.541 0.0
H1833 H 0.55672 0.5889 0.59745 0.0
H1834 H 0.58867 0.59359 0.48999 0.0
C1835 C 0.65104 0.60411 0.60592 0.0
C1836 C 0.37752 0.3421 0.43655 0.0
C1837 C 0.35966 0.34329 0.50061 0.0
H1838 H 0.3753 0.34441 0.3262 0.0
C1839 C 0.32428 0.34752 0.50073 0.0
H1840 H 0.40494 0.33893 0.43422 0.0
C1841 C 0.30725 0.35053 0.43812 0.0
C1842 C 0.32542 0.34956 0.37433 0.0
H1843 H 0.30992 0.34862 0.54895 0.0
H1844 H 0.27994 0.35386 0.43992 0.0
C1845 C 0.3607 0.3453 0.37428 0.0
C1846 C 0.37565 0.49372 0.4397 0.0
C1847 C 0.33994 0.4902 0.44293 0.0
H1848 H 0.4197 0.49834 0.37566 0.0
C1849 C 0.32054 0.48898 0.38064 0.0
H1850 H 0.39118 0.49476 0.48652 0.0
C1851 C 0.33695 0.49082 0.31622 0.0
C1852 C 0.3729 0.49413 0.31309 0.0
H1853 H 0.29283 0.48619 0.38145 0.0
H1854 H 0.32175 0.48943 0.26924 0.0
C1855 C 0.39183 0.49578 0.37569 0.0
loop_
_geom_bond_atom_site_label_1
_geom_bond_atom_site_label_2
_geom_bond_distance
_geom_bond_site_symmetry_2
_ccdc_geom_bond_type
C0 C1 1.351 . S
C0 N3 1.368 . S
C0 H5 0.931 . S
C1 C0 1.351 . S
C1 N2 1.373 . S
C1 H29 0.930 . S
N2 C1 1.373 . S
N2 C4 1.340 . S
N3 C0 1.368 . S
N3 C4 1.321 . S
N3 Co6 2.135 . S
C4 N2 1.340 . S
C4 N3 1.321 . S
C4 H28 0.930 . S
H5 C0 0.931 . S
Co6 N3 2.135 . S
Co6 N9 2.121 . S
Co6 O14 2.055 . S
Co6 O17 2.039 . S
Co6 N20 2.140 . S
C7 O8 1.227 . S
C7 O17 1.265 . S
O8 C7 1.227 . S
N9 Co6 2.121 . S
N9 C11 1.375 . S
N9 C12 1.313 . S
C10 C11 1.338 . S
C10 N13 1.377 . S
C10 H30 0.930 . S
C11 N9 1.375 . S
C11 C10 1.338 . S
C11 H15 0.931 . S
C12 N9 1.313 . S
C12 N13 1.344 . S
C12 H16 0.930 . S
N13 C10 1.377 . S
N13 C12 1.344 . S
O14 Co6 2.055 . S
O14 C18 1.253 . S
H15 C11 0.931 . S
H16 C12 0.930 . S
O17 Co6 2.039 . S
O17 C7 1.265 . S
C18 O14 1.253 . S
C18 O19 1.227 . S
O19 C18 1.227 . S
N20 Co6 2.140 . S
N20 C23 1.346 1_455 S
N20 C24 1.345 1_455 S
C21 C22 1.387 . S
C21 C25 1.391 . S
C22 C21 1.387 . S
C22 C23 1.369 . S
C22 H31 0.929 . S
C23 N20 1.346 1_655 S
C23 C22 1.369 . S
C23 H26 0.920 1_655 S
C24 N20 1.345 1_655 S
C24 C25 1.371 . S
C24 H27 0.931 1_655 S
C25 C21 1.391 . S
C25 C24 1.371 . S
C25 H32 0.930 . S
H26 C23 0.920 1_455 S
H27 C24 0.931 1_455 S
H28 C4 0.930 . S
H29 C1 0.930 . S
H30 C10 0.930 . S
H31 C22 0.929 . S
H32 C25 0.930 . S
C33 C34 1.351 . S
C33 N36 1.368 . S
C33 H38 0.931 . S
C34 C33 1.351 . S
C34 N35 1.373 . S
C34 H62 0.930 . S
N35 C34 1.373 . S
N35 C37 1.340 . S
N36 C33 1.368 . S
N36 C37 1.321 . S
N36 Co39 2.135 . S
C37 N35 1.340 . S
C37 N36 1.321 . S
C37 H61 0.930 . S
H38 C33 0.931 . S
Co39 N36 2.135 . S
Co39 N42 2.121 . S
Co39 O47 2.055 . S
Co39 O50 2.039 . S
Co39 N53 2.140 . S
C40 O41 1.227 . S
C40 O50 1.265 . S
O41 C40 1.227 . S
N42 Co39 2.121 . S
N42 C44 1.375 . S
N42 C45 1.313 . S
C43 C44 1.338 . S
C43 N46 1.377 . S
C43 H63 0.930 . S
C44 N42 1.375 . S
C44 C43 1.338 . S
C44 H48 0.931 . S
C45 N42 1.313 . S
C45 N46 1.344 . S
C45 H49 0.930 . S
N46 C43 1.377 . S
N46 C45 1.344 . S
O47 Co39 2.055 . S
O47 C51 1.253 . S
H48 C44 0.931 . S
H49 C45 0.930 . S
O50 Co39 2.039 . S
O50 C40 1.265 . S
C51 O47 1.253 . S
C51 O52 1.227 . S
O52 C51 1.227 . S
N53 Co39 2.140 . S
N53 C56 1.346 . S
N53 C57 1.345 . S
C54 C55 1.387 . S
C54 C58 1.391 . S
C55 C54 1.387 . S
C55 C56 1.369 . S
C55 H64 0.929 . S
C56 N53 1.346 . S
C56 C55 1.369 . S
C56 H59 0.928 . S
C57 N53 1.345 . S
C57 C58 1.371 . S
C57 H60 0.931 . S
C58 C54 1.391 . S
C58 C57 1.371 . S
C58 H65 0.930 . S
H59 C56 0.928 . S
H60 C57 0.931 . S
H61 C37 0.930 . S
H62 C34 0.930 . S
H63 C43 0.930 . S
H64 C55 0.929 . S
H65 C58 0.930 . S
C66 C67 1.351 . S
C66 N69 1.368 . S
C66 H71 0.931 . S
C67 C66 1.351 . S
C67 N68 1.373 . S
C67 H95 0.930 . S
N68 C67 1.373 . S
N68 C70 1.340 . S
N69 C66 1.368 . S
N69 C70 1.321 . S
N69 Co72 2.135 . S
C70 N68 1.340 . S
C70 N69 1.321 . S
C70 H94 0.930 . S
H71 C66 0.931 . S
Co72 N69 2.135 . S
Co72 N75 2.121 . S
Co72 O80 2.055 . S
Co72 O83 2.039 . S
Co72 N86 2.140 . S
C73 O74 1.227 . S
C73 O83 1.265 1_554 S
O74 C73 1.227 . S
N75 Co72 2.121 . S
N75 C77 1.375 . S
N75 C78 1.313 . S
C76 C77 1.338 . S
C76 N79 1.377 . S
C76 H96 0.930 . S
C77 N75 1.375 . S
C77 C76 1.338 . S
C77 H81 0.931 . S
C78 N75 1.313 . S
C78 N79 1.344 . S
C78 H82 0.930 . S
N79 C76 1.377 . S
N79 C78 1.344 . S
O80 Co72 2.055 . S
O80 C84 1.253 . S
H81 C77 0.931 . S
H82 C78 0.930 . S
O83 Co72 2.039 . S
O83 C73 1.265 1_556 S
C84 O80 1.253 . S
C84 O85 1.227 . S
O85 C84 1.227 . S
N86 Co72 2.140 . S
N86 C89 1.346 1_455 S
N86 C90 1.345 1_455 S
C87 C88 1.387 . S
C87 C91 1.391 . S
C88 C87 1.387 . S
C88 C89 1.369 . S
C88 H97 0.929 . S
C89 N86 1.346 1_655 S
C89 C88 1.369 . S
C89 H92 0.920 1_655 S
C90 N86 1.345 1_655 S
C90 C91 1.371 . S
C90 H93 0.931 1_655 S
C91 C87 1.391 . S
C91 C90 1.371 . S
C91 H98 0.930 . S
H92 C89 0.920 1_455 S
H93 C90 0.931 1_455 S
H94 C70 0.930 . S
H95 C67 0.930 . S
H96 C76 0.930 . S
H97 C88 0.929 . S
H98 C91 0.930 . S
C99 C100 1.351 . S
C99 N102 1.368 . S
C99 H104 0.931 . S
C100 C99 1.351 . S
C100 N101 1.373 . S
C100 H128 0.930 . S
N101 C100 1.373 . S
N101 C103 1.340 . S
N102 C99 1.368 . S
N102 C103 1.321 . S
N102 Co105 2.135 . S
C103 N101 1.340 . S
C103 N102 1.321 . S
C103 H127 0.930 . S
H104 C99 0.931 . S
Co105 N102 2.135 . S
Co105 N108 2.121 . S
Co105 O113 2.055 . S
Co105 O116 2.039 . S
Co105 N119 2.140 . S
C106 O107 1.227 . S
C106 O116 1.265 1_554 S
O107 C106 1.227 . S
N108 Co105 2.121 . S
N108 C110 1.375 . S
N108 C111 1.313 . S
C109 C110 1.338 . S
C109 N112 1.377 . S
C109 H129 0.930 . S
C110 N108 1.375 . S
C110 C109 1.338 . S
C110 H114 0.931 . S
C111 N108 1.313 . S
C111 N112 1.344 . S
C111 H115 0.930 . S
N112 C109 1.377 . S
N112 C111 1.344 . S
O113 Co105 2.055 . S
O113 C117 1.253 . S
H114 C110 0.931 . S
H115 C111 0.930 . S
O116 Co105 2.039 . S
O116 C106 1.265 1_556 S
C117 O113 1.253 . S
C117 O118 1.227 . S
O118 C117 1.227 . S
N119 Co105 2.140 . S
N119 C122 1.346 . S
N119 C123 1.345 . S
C120 C121 1.387 . S
C120 C124 1.391 . S
C121 C120 1.387 . S
C121 C122 1.369 . S
C121 H130 0.929 . S
C122 N119 1.346 . S
C122 C121 1.369 . S
C122 H125 0.928 . S
C123 N119 1.345 . S
C123 C124 1.371 . S
C123 H126 0.931 . S
C124 C120 1.391 . S
C124 C123 1.371 . S
C124 H131 0.930 . S
H125 C122 0.928 . S
H126 C123 0.931 . S
H127 C103 0.930 . S
H128 C100 0.930 . S
H129 C109 0.930 . S
H130 C121 0.929 . S
H131 C124 0.930 . S
C132 C133 1.351 . S
C132 N135 1.368 . S
C132 H137 0.931 . S
C133 C132 1.351 . S
C133 N134 1.373 . S
C133 H161 0.930 . S
N134 C133 1.373 . S
N134 C136 1.340 . S
N135 C132 1.368 . S
N135 C136 1.321 . S
N135 Co138 2.135 . S
C136 N134 1.340 . S
C136 N135 1.321 . S
C136 H160 0.930 . S
H137 C132 0.931 . S
Co138 N135 2.135 . S
Co138 N141 2.121 . S
Co138 O146 2.055 . S
Co138 O149 2.039 . S
Co138 N152 2.140 . S
C139 O140 1.227 . S
C139 O149 1.265 . S
O140 C139 1.227 . S
N141 Co138 2.121 . S
N141 C143 1.375 . S
N141 C144 1.313 . S
C142 C143 1.338 . S
C142 N145 1.377 . S
C142 H162 0.930 . S
C143 N141 1.375 . S
C143 C142 1.338 . S
C143 H147 0.931 . S
C144 N141 1.313 . S
C144 N145 1.344 . S
C144 H148 0.930 . S
N145 C142 1.377 . S
N145 C144 1.344 . S
O146 Co138 2.055 . S
O146 C150 1.253 . S
H147 C143 0.931 . S
H148 C144 0.930 . S
O149 Co138 2.039 . S
O149 C139 1.265 . S
C150 O146 1.253 . S
C150 O151 1.227 . S
O151 C150 1.227 . S
N152 Co138 2.140 . S
N152 C155 1.346 1_655 S
N152 C156 1.345 1_655 S
C153 C154 1.387 . S
C153 C157 1.391 . S
C154 C153 1.387 . S
C154 C155 1.369 . S
C154 H163 0.929 . S
C155 N152 1.346 1_455 S
C155 C154 1.369 . S
C155 H158 0.920 1_455 S
C156 N152 1.345 1_455 S
C156 C157 1.371 . S
C156 H159 0.931 1_455 S
C157 C153 1.391 . S
C157 C156 1.371 . S
C157 H164 0.930 . S
H158 C155 0.920 1_655 S
H159 C156 0.931 1_655 S
H160 C136 0.930 . S
H161 C133 0.930 . S
H162 C142 0.930 . S
H163 C154 0.929 . S
H164 C157 0.930 . S
C165 C166 1.351 . S
C165 N168 1.368 . S
C165 H170 0.931 . S
C166 C165 1.351 . S
C166 N167 1.373 . S
C166 H194 0.930 . S
N167 C166 1.373 . S
N167 C169 1.340 . S
N168 C165 1.368 . S
N168 C169 1.321 . S
N168 Co171 2.135 . S
C169 N167 1.340 . S
C169 N168 1.321 . S
C169 H193 0.930 . S
H170 C165 0.931 . S
Co171 N168 2.135 . S
Co171 N174 2.121 . S
Co171 O179 2.055 . S
Co171 O182 2.039 . S
Co171 N185 2.140 . S
C172 O173 1.227 . S
C172 O182 1.265 . S
O173 C172 1.227 . S
N174 Co171 2.121 . S
N174 C176 1.375 . S
N174 C177 1.313 . S
C175 C176 1.338 . S
C175 N178 1.377 . S
C175 H195 0.930 . S
C176 N174 1.375 . S
C176 C175 1.338 . S
C176 H180 0.931 . S
C177 N174 1.313 . S
C177 N178 1.344 . S
C177 H181 0.930 . S
N178 C175 1.377 . S
N178 C177 1.344 . S
O179 Co171 2.055 . S
O179 C183 1.253 . S
H180 C176 0.931 . S
H181 C177 0.930 . S
O182 Co171 2.039 . S
O182 C172 1.265 . S
C183 O179 1.253 . S
C183 O184 1.227 . S
O184 C183 1.227 . S
N185 Co171 2.140 . S
N185 C188 1.346 . S
N185 C189 1.345 . S
C186 C187 1.387 . S
C186 C190 1.391 . S
C187 C186 1.387 . S
C187 C188 1.369 . S
C187 H196 0.929 . S
C188 N185 1.346 . S
C188 C187 1.369 . S
C188 H191 0.928 . S
C189 N185 1.345 . S
C189 C190 1.371 . S
C189 H192 0.931 . S
C190 C186 1.391 . S
C190 C189 1.371 . S
C190 H197 0.930 . S
H191 C188 0.928 . S
H192 C189 0.931 . S
H193 C169 0.930 . S
H194 C166 0.930 . S
H195 C175 0.930 . S
H196 C187 0.929 . S
H197 C190 0.930 . S
C198 C199 1.351 . S
C198 N201 1.368 . S
C198 H203 0.931 . S
C199 C198 1.351 . S
C199 N200 1.373 . S
C199 H227 0.930 . S
N200 C199 1.373 . S
N200 C202 1.340 . S
N201 C198 1.368 . S
N201 C202 1.321 . S
N201 Co204 2.135 . S
C202 N200 1.340 . S
C202 N201 1.321 . S
C202 H226 0.930 . S
H203 C198 0.931 . S
Co204 N201 2.135 . S
Co204 N207 2.121 . S
Co204 O212 2.055 . S
Co204 O215 2.039 . S
Co204 N218 2.140 . S
C205 O206 1.227 . S
C205 O215 1.265 1_556 S
O206 C205 1.227 . S
N207 Co204 2.121 . S
N207 C209 1.375 . S
N207 C210 1.313 . S
C208 C209 1.338 . S
C208 N211 1.377 . S
C208 H228 0.930 . S
C209 N207 1.375 . S
C209 C208 1.338 . S
C209 H213 0.931 . S
C210 N207 1.313 . S
C210 N211 1.344 . S
C210 H214 0.930 . S
N211 C208 1.377 . S
N211 C210 1.344 . S
O212 Co204 2.055 . S
O212 C216 1.253 . S
H213 C209 0.931 . S
H214 C210 0.930 . S
O215 Co204 2.039 . S
O215 C205 1.265 1_554 S
C216 O212 1.253 . S
C216 O217 1.227 . S
O217 C216 1.227 . S
N218 Co204 2.140 . S
N218 C221 1.346 1_655 S
N218 C222 1.345 1_655 S
C219 C220 1.387 . S
C219 C223 1.391 . S
C220 C219 1.387 . S
C220 C221 1.369 . S
C220 H229 0.929 . S
C221 N218 1.346 1_455 S
C221 C220 1.369 . S
C221 H224 0.920 1_455 S
C222 N218 1.345 1_455 S
C222 C223 1.371 . S
C222 H225 0.931 1_455 S
C223 C219 1.391 . S
C223 C222 1.371 . S
C223 H230 0.930 . S
H224 C221 0.920 1_655 S
H225 C222 0.931 1_655 S
H226 C202 0.930 . S
H227 C199 0.930 . S
H228 C208 0.930 . S
H229 C220 0.929 . S
H230 C223 0.930 . S
C231 C232 1.351 . S
C231 N234 1.368 . S
C231 H236 0.931 . S
C232 C231 1.351 . S
C232 N233 1.373 . S
C232 H260 0.930 . S
N233 C232 1.373 . S
N233 C235 1.340 . S
N234 C231 1.368 . S
N234 C235 1.321 . S
N234 Co237 2.135 . S
C235 N233 1.340 . S
C235 N234 1.321 . S
C235 H259 0.930 . S
H236 C231 0.931 . S
Co237 N234 2.135 . S
Co237 N240 2.121 . S
Co237 O245 2.055 . S
Co237 O248 2.039 . S
Co237 N251 2.140 . S
C238 O239 1.227 . S
C238 O248 1.265 1_556 S
O239 C238 1.227 . S
N240 Co237 2.121 . S
N240 C242 1.375 . S
N240 C243 1.313 . S
C241 C242 1.338 . S
C241 N244 1.377 . S
C241 H261 0.930 . S
C242 N240 1.375 . S
C242 C241 1.338 . S
C242 H246 0.931 . S
C243 N240 1.313 . S
C243 N244 1.344 . S
C243 H247 0.930 . S
N244 C241 1.377 . S
N244 C243 1.344 . S
O245 Co237 2.055 . S
O245 C249 1.253 . S
H246 C242 0.931 . S
H247 C243 0.930 . S
O248 Co237 2.039 . S
O248 C238 1.265 1_554 S
C249 O245 1.253 . S
C249 O250 1.227 . S
O250 C249 1.227 . S
N251 Co237 2.140 . S
N251 C254 1.346 . S
N251 C255 1.345 . S
C252 C253 1.387 . S
C252 C256 1.391 . S
C253 C252 1.387 . S
C253 C254 1.369 . S
C253 H262 0.929 . S
C254 N251 1.346 . S
C254 C253 1.369 . S
C254 H257 0.928 . S
C255 N251 1.345 . S
C255 C256 1.371 . S
C255 H258 0.931 . S
C256 C252 1.391 . S
C256 C255 1.371 . S
C256 H263 0.930 . S
H257 C254 0.928 . S
H258 C255 0.931 . S
H259 C235 0.930 . S
H260 C232 0.930 . S
H261 C241 0.930 . S
H262 C253 0.929 . S
H263 C256 0.930 . S
C264 C265 1.351 . S
C264 N267 1.368 . S
C264 H269 0.931 . S
C265 C264 1.351 . S
C265 N266 1.373 . S
C265 H293 0.930 . S
N266 C265 1.373 . S
N266 C268 1.340 . S
N267 C264 1.368 . S
N267 C268 1.321 . S
N267 Co270 2.135 . S
C268 N266 1.340 . S
C268 N267 1.321 . S
C268 H292 0.930 . S
H269 C264 0.931 . S
Co270 N267 2.135 . S
Co270 N273 2.121 . S
Co270 O278 2.055 . S
Co270 O281 2.039 . S
Co270 N284 2.140 . S
C271 O272 1.227 . S
C271 O281 1.265 . S
O272 C271 1.227 . S
N273 Co270 2.121 . S
N273 C275 1.375 . S
N273 C276 1.313 . S
C274 C275 1.338 . S
C274 N277 1.377 . S
C274 H294 0.930 . S
C275 N273 1.375 . S
C275 C274 1.338 . S
C275 H279 0.931 . S
C276 N273 1.313 . S
C276 N277 1.344 . S
C276 H280 0.930 . S
N277 C274 1.377 . S
N277 C276 1.344 . S
O278 Co270 2.055 . S
O278 C282 1.253 . S
H279 C275 0.931 . S
H280 C276 0.930 . S
O281 Co270 2.039 . S
O281 C271 1.265 . S
C282 O278 1.253 . S
C282 O283 1.227 . S
O283 C282 1.227 . S
N284 Co270 2.140 . S
N284 C287 1.346 1_455 S
N284 C288 1.345 1_455 S
C285 C286 1.387 . S
C285 C289 1.391 . S
C286 C285 1.387 . S
C286 C287 1.369 . S
C286 H295 0.929 . S
C287 N284 1.346 1_655 S
C287 C286 1.369 . S
C287 H290 0.920 1_655 S
C288 N284 1.345 1_655 S
C288 C289 1.371 . S
C288 H291 0.931 1_655 S
C289 C285 1.391 . S
C289 C288 1.371 . S
C289 H296 0.930 . S
H290 C287 0.920 1_455 S
H291 C288 0.931 1_455 S
H292 C268 0.930 . S
H293 C265 0.930 . S
H294 C274 0.930 . S
H295 C286 0.929 . S
H296 C289 0.930 . S
C297 C298 1.351 . S
C297 N300 1.368 . S
C297 H302 0.931 . S
C298 C297 1.351 . S
C298 N299 1.373 . S
C298 H326 0.930 . S
N299 C298 1.373 . S
N299 C301 1.340 . S
N300 C297 1.368 . S
N300 C301 1.321 . S
N300 Co303 2.135 . S
C301 N299 1.340 . S
C301 N300 1.321 . S
C301 H325 0.930 . S
H302 C297 0.931 . S
Co303 N300 2.135 . S
Co303 N306 2.121 . S
Co303 O311 2.055 . S
Co303 O314 2.039 . S
Co303 N317 2.140 . S
C304 O305 1.227 . S
C304 O314 1.265 . S
O305 C304 1.227 . S
N306 Co303 2.121 . S
N306 C308 1.375 . S
N306 C309 1.313 . S
C307 C308 1.338 . S
C307 N310 1.377 . S
C307 H327 0.930 . S
C308 N306 1.375 . S
C308 C307 1.338 . S
C308 H312 0.931 . S
C309 N306 1.313 . S
C309 N310 1.344 . S
C309 H313 0.930 . S
N310 C307 1.377 . S
N310 C309 1.344 . S
O311 Co303 2.055 . S
O311 C315 1.253 . S
H312 C308 0.931 . S
H313 C309 0.930 . S
O314 Co303 2.039 . S
O314 C304 1.265 . S
C315 O311 1.253 . S
C315 O316 1.227 . S
O316 C315 1.227 . S
N317 Co303 2.140 . S
N317 C320 1.346 . S
N317 C321 1.345 . S
C318 C319 1.387 . S
C318 C322 1.391 . S
C319 C318 1.387 . S
C319 C320 1.369 . S
C319 H328 0.929 . S
C320 N317 1.346 . S
C320 C319 1.369 . S
C320 H323 0.928 . S
C321 N317 1.345 . S
C321 C322 1.371 . S
C321 H324 0.931 . S
C322 C318 1.391 . S
C322 C321 1.371 . S
C322 H329 0.930 . S
H323 C320 0.928 . S
H324 C321 0.931 . S
H325 C301 0.930 . S
H326 C298 0.930 . S
H327 C307 0.930 . S
H328 C319 0.929 . S
H329 C322 0.930 . S
C330 C331 1.351 . S
C330 N333 1.368 . S
C330 H335 0.931 . S
C331 C330 1.351 . S
C331 N332 1.373 . S
C331 H359 0.930 . S
N332 C331 1.373 . S
N332 C334 1.340 . S
N333 C330 1.368 . S
N333 C334 1.321 . S
N333 Co336 2.135 . S
C334 N332 1.340 . S
C334 N333 1.321 . S
C334 H358 0.930 . S
H335 C330 0.931 . S
Co336 N333 2.135 . S
Co336 N339 2.121 . S
Co336 O344 2.055 . S
Co336 O347 2.039 . S
Co336 N350 2.140 . S
C337 O338 1.227 . S
C337 O347 1.265 . S
O338 C337 1.227 . S
N339 Co336 2.121 . S
N339 C341 1.375 . S
N339 C342 1.313 . S
C340 C341 1.338 . S
C340 N343 1.377 . S
C340 H360 0.930 . S
C341 N339 1.375 . S
C341 C340 1.338 . S
C341 H345 0.931 . S
C342 N339 1.313 . S
C342 N343 1.344 . S
C342 H346 0.930 . S
N343 C340 1.377 . S
N343 C342 1.344 . S
O344 Co336 2.055 . S
O344 C348 1.253 . S
H345 C341 0.931 . S
H346 C342 0.930 . S
O347 Co336 2.039 . S
O347 C337 1.265 . S
C348 O344 1.253 . S
C348 O349 1.227 . S
O349 C348 1.227 . S
N350 Co336 2.140 . S
N350 C353 1.346 1_455 S
N350 C354 1.345 1_455 S
C351 C352 1.387 . S
C351 C355 1.391 . S
C352 C351 1.387 . S
C352 C353 1.369 . S
C352 H361 0.929 . S
C353 N350 1.346 1_655 S
C353 C352 1.369 . S
C353 H356 0.920 1_655 S
C354 N350 1.345 1_655 S
C354 C355 1.371 . S
C354 H357 0.931 1_655 S
C355 C351 1.391 . S
C355 C354 1.371 . S
C355 H362 0.930 . S
H356 C353 0.920 1_455 S
H357 C354 0.931 1_455 S
H358 C334 0.930 . S
H359 C331 0.930 . S
H360 C340 0.930 . S
H361 C352 0.929 . S
H362 C355 0.930 . S
C363 C364 1.351 . S
C363 N366 1.368 . S
C363 H368 0.931 . S
C364 C363 1.351 . S
C364 N365 1.373 . S
C364 H392 0.930 . S
N365 C364 1.373 . S
N365 C367 1.340 . S
N366 C363 1.368 . S
N366 C367 1.321 . S
N366 Co369 2.135 . S
C367 N365 1.340 . S
C367 N366 1.321 . S
C367 H391 0.930 . S
H368 C363 0.931 . S
Co369 N366 2.135 . S
Co369 N372 2.121 . S
Co369 O377 2.055 . S
Co369 O380 2.039 . S
Co369 N383 2.140 . S
C370 O371 1.227 . S
C370 O380 1.265 . S
O371 C370 1.227 . S
N372 Co369 2.121 . S
N372 C374 1.375 . S
N372 C375 1.313 . S
C373 C374 1.338 . S
C373 N376 1.377 . S
C373 H393 0.930 . S
C374 N372 1.375 . S
C374 C373 1.338 . S
C374 H378 0.931 . S
C375 N372 1.313 . S
C375 N376 1.344 . S
C375 H379 0.930 . S
N376 C373 1.377 . S
N376 C375 1.344 . S
O377 Co369 2.055 . S
O377 C381 1.253 . S
H378 C374 0.931 . S
H379 C375 0.930 . S
O380 Co369 2.039 . S
O380 C370 1.265 . S
C381 O377 1.253 . S
C381 O382 1.227 . S
O382 C381 1.227 . S
N383 Co369 2.140 . S
N383 C386 1.346 . S
N383 C387 1.345 . S
C384 C385 1.387 . S
C384 C388 1.391 . S
C385 C384 1.387 . S
C385 C386 1.369 . S
C385 H394 0.929 . S
C386 N383 1.346 . S
C386 C385 1.369 . S
C386 H389 0.928 . S
C387 N383 1.345 . S
C387 C388 1.371 . S
C387 H390 0.931 . S
C388 C384 1.391 . S
C388 C387 1.371 . S
C388 H395 0.930 . S
H389 C386 0.928 . S
H390 C387 0.931 . S
H391 C367 0.930 . S
H392 C364 0.930 . S
H393 C373 0.930 . S
H394 C385 0.929 . S
H395 C388 0.930 . S
C396 C397 1.351 . S
C396 N399 1.368 . S
C396 H401 0.931 . S
C397 C396 1.351 . S
C397 N398 1.373 . S
C397 H425 0.930 . S
N398 C397 1.373 . S
N398 C400 1.340 . S
N399 C396 1.368 . S
N399 C400 1.321 . S
N399 Co402 2.135 . S
C400 N398 1.340 . S
C400 N399 1.321 . S
C400 H424 0.930 . S
H401 C396 0.931 . S
Co402 N399 2.135 . S
Co402 N405 2.121 . S
Co402 O410 2.055 . S
Co402 O413 2.039 . S
Co402 N416 2.140 . S
C403 O404 1.227 . S
C403 O413 1.265 . S
O404 C403 1.227 . S
N405 Co402 2.121 . S
N405 C407 1.375 . S
N405 C408 1.313 . S
C406 C407 1.338 . S
C406 N409 1.377 . S
C406 H426 0.930 . S
C407 N405 1.375 . S
C407 C406 1.338 . S
C407 H411 0.931 . S
C408 N405 1.313 . S
C408 N409 1.344 . S
C408 H412 0.930 . S
N409 C406 1.377 . S
N409 C408 1.344 . S
O410 Co402 2.055 . S
O410 C414 1.253 . S
H411 C407 0.931 . S
H412 C408 0.930 . S
O413 Co402 2.039 . S
O413 C403 1.265 . S
C414 O410 1.253 . S
C414 O415 1.227 . S
O415 C414 1.227 . S
N416 Co402 2.140 . S
N416 C419 1.346 1_655 S
N416 C420 1.345 1_655 S
C417 C418 1.387 . S
C417 C421 1.391 . S
C418 C417 1.387 . S
C418 C419 1.369 . S
C418 H427 0.929 . S
C419 N416 1.346 1_455 S
C419 C418 1.369 . S
C419 H422 0.920 1_455 S
C420 N416 1.345 1_455 S
C420 C421 1.371 . S
C420 H423 0.931 1_455 S
C421 C417 1.391 . S
C421 C420 1.371 . S
C421 H428 0.930 . S
H422 C419 0.920 1_655 S
H423 C420 0.931 1_655 S
H424 C400 0.930 . S
H425 C397 0.930 . S
H426 C406 0.930 . S
H427 C418 0.929 . S
H428 C421 0.930 . S
C429 C430 1.351 . S
C429 N432 1.368 . S
C429 H434 0.931 . S
C430 C429 1.351 . S
C430 N431 1.373 . S
C430 H458 0.930 . S
N431 C430 1.373 . S
N431 C433 1.340 . S
N432 C429 1.368 . S
N432 C433 1.321 . S
N432 Co435 2.135 . S
C433 N431 1.340 . S
C433 N432 1.321 . S
C433 H457 0.930 . S
H434 C429 0.931 . S
Co435 N432 2.135 . S
Co435 N438 2.121 . S
Co435 O443 2.055 . S
Co435 O446 2.039 . S
Co435 N449 2.140 . S
C436 O437 1.227 . S
C436 O446 1.265 . S
O437 C436 1.227 . S
N438 Co435 2.121 . S
N438 C440 1.375 . S
N438 C441 1.313 . S
C439 C440 1.338 . S
C439 N442 1.377 . S
C439 H459 0.930 . S
C440 N438 1.375 . S
C440 C439 1.338 . S
C440 H444 0.931 . S
C441 N438 1.313 . S
C441 N442 1.344 . S
C441 H445 0.930 . S
N442 C439 1.377 . S
N442 C441 1.344 . S
O443 Co435 2.055 . S
O443 C447 1.253 . S
H444 C440 0.931 . S
H445 C441 0.930 . S
O446 Co435 2.039 . S
O446 C436 1.265 . S
C447 O443 1.253 . S
C447 O448 1.227 . S
O448 C447 1.227 . S
N449 Co435 2.140 . S
N449 C452 1.346 . S
N449 C453 1.345 . S
C450 C451 1.387 . S
C450 C454 1.391 . S
C451 C450 1.387 . S
C451 C452 1.369 . S
C451 H460 0.929 . S
C452 N449 1.346 . S
C452 C451 1.369 . S
C452 H455 0.928 . S
C453 N449 1.345 . S
C453 C454 1.371 . S
C453 H456 0.931 . S
C454 C450 1.391 . S
C454 C453 1.371 . S
C454 H461 0.930 . S
H455 C452 0.928 . S
H456 C453 0.931 . S
H457 C433 0.930 . S
H458 C430 0.930 . S
H459 C439 0.930 . S
H460 C451 0.929 . S
H461 C454 0.930 . S
C462 C463 1.351 . S
C462 N465 1.368 . S
C462 H467 0.931 . S
C463 C462 1.351 . S
C463 N464 1.373 . S
C463 H491 0.930 . S
N464 C463 1.373 . S
N464 C466 1.340 . S
N465 C462 1.368 . S
N465 C466 1.321 . S
N465 Co468 2.135 . S
C466 N464 1.340 . S
C466 N465 1.321 . S
C466 H490 0.930 . S
H467 C462 0.931 . S
Co468 N465 2.135 . S
Co468 N471 2.121 . S
Co468 O476 2.055 . S
Co468 O479 2.039 . S
Co468 N482 2.140 . S
C469 O470 1.227 . S
C469 O479 1.265 . S
O470 C469 1.227 . S
N471 Co468 2.121 . S
N471 C473 1.375 . S
N471 C474 1.313 . S
C472 C473 1.338 . S
C472 N475 1.377 . S
C472 H492 0.930 . S
C473 N471 1.375 . S
C473 C472 1.338 . S
C473 H477 0.931 . S
C474 N471 1.313 . S
C474 N475 1.344 . S
C474 H478 0.930 . S
N475 C472 1.377 . S
N475 C474 1.344 . S
O476 Co468 2.055 . S
O476 C480 1.253 . S
H477 C473 0.931 . S
H478 C474 0.930 . S
O479 Co468 2.039 . S
O479 C469 1.265 . S
C480 O476 1.253 . S
C480 O481 1.227 . S
O481 C480 1.227 . S
N482 Co468 2.140 . S
N482 C485 1.346 1_655 S
N482 C486 1.345 1_655 S
C483 C484 1.387 . S
C483 C487 1.391 . S
C484 C483 1.387 . S
C484 C485 1.369 . S
C484 H493 0.929 . S
C485 N482 1.346 1_455 S
C485 C484 1.369 . S
C485 H488 0.920 1_455 S
C486 N482 1.345 1_455 S
C486 C487 1.371 . S
C486 H489 0.931 1_455 S
C487 C483 1.391 . S
C487 C486 1.371 . S
C487 H494 0.930 . S
H488 C485 0.920 1_655 S
H489 C486 0.931 1_655 S
H490 C466 0.930 . S
H491 C463 0.930 . S
H492 C472 0.930 . S
H493 C484 0.929 . S
H494 C487 0.930 . S
C495 C496 1.351 . S
C495 N498 1.368 . S
C495 H500 0.931 . S
C496 C495 1.351 . S
C496 N497 1.373 . S
C496 H524 0.930 . S
N497 C496 1.373 . S
N497 C499 1.340 . S
N498 C495 1.368 . S
N498 C499 1.321 . S
N498 Co501 2.135 . S
C499 N497 1.340 . S
C499 N498 1.321 . S
C499 H523 0.930 . S
H500 C495 0.931 . S
Co501 N498 2.135 . S
Co501 N504 2.121 . S
Co501 O509 2.055 . S
Co501 O512 2.039 . S
Co501 N515 2.140 . S
C502 O503 1.227 . S
C502 O512 1.265 . S
O503 C502 1.227 . S
N504 Co501 2.121 . S
N504 C506 1.375 . S
N504 C507 1.313 . S
C505 C506 1.338 . S
C505 N508 1.377 . S
C505 H525 0.930 . S
C506 N504 1.375 . S
C506 C505 1.338 . S
C506 H510 0.931 . S
C507 N504 1.313 . S
C507 N508 1.344 . S
C507 H511 0.930 . S
N508 C505 1.377 . S
N508 C507 1.344 . S
O509 Co501 2.055 . S
O509 C513 1.253 . S
H510 C506 0.931 . S
H511 C507 0.930 . S
O512 Co501 2.039 . S
O512 C502 1.265 . S
C513 O509 1.253 . S
C513 O514 1.227 . S
O514 C513 1.227 . S
N515 Co501 2.140 . S
N515 C518 1.346 . S
N515 C519 1.345 . S
C516 C517 1.387 . S
C516 C520 1.391 . S
C517 C516 1.387 . S
C517 C518 1.369 . S
C517 H526 0.929 . S
C518 N515 1.346 . S
C518 C517 1.369 . S
C518 H521 0.928 . S
C519 N515 1.345 . S
C519 C520 1.371 . S
C519 H522 0.931 . S
C520 C516 1.391 . S
C520 C519 1.371 . S
C520 H527 0.930 . S
H521 C518 0.928 . S
H522 C519 0.931 . S
H523 C499 0.930 . S
H524 C496 0.930 . S
H525 C505 0.930 . S
H526 C517 0.929 . S
H527 C520 0.930 . S
C528 C529 1.351 . S
C528 N531 1.368 . S
C528 H533 0.931 . S
C529 C528 1.351 . S
C529 N530 1.373 . S
C529 H557 0.930 . S
N530 C529 1.373 . S
N530 C532 1.340 . S
N531 C528 1.368 . S
N531 C532 1.321 . S
N531 Co534 2.135 . S
C532 N530 1.340 . S
C532 N531 1.321 . S
C532 H556 0.930 . S
H533 C528 0.931 . S
Co534 N531 2.135 . S
Co534 N537 2.121 . S
Co534 O542 2.055 . S
Co534 O545 2.039 . S
Co534 N548 2.140 . S
C535 O536 1.227 . S
C535 O545 1.265 . S
O536 C535 1.227 . S
N537 Co534 2.121 . S
N537 C539 1.375 . S
N537 C540 1.313 . S
C538 C539 1.338 . S
C538 N541 1.377 . S
C538 H558 0.930 . S
C539 N537 1.375 . S
C539 C538 1.338 . S
C539 H543 0.931 . S
C540 N537 1.313 . S
C540 N541 1.344 . S
C540 H544 0.930 . S
N541 C538 1.377 . S
N541 C540 1.344 . S
O542 Co534 2.055 . S
O542 C546 1.253 . S
H543 C539 0.931 . S
H544 C540 0.930 . S
O545 Co534 2.039 . S
O545 C535 1.265 . S
C546 O542 1.253 . S
C546 O547 1.227 . S
O547 C546 1.227 . S
N548 Co534 2.140 . S
N548 C551 1.346 . S
N548 C552 1.345 . S
C549 C550 1.387 . S
C549 C553 1.391 . S
C550 C549 1.387 . S
C550 C551 1.369 . S
C550 H559 0.929 . S
C551 N548 1.346 . S
C551 C550 1.369 . S
C551 H554 0.928 . S
C552 N548 1.345 . S
C552 C553 1.371 . S
C552 H555 0.931 . S
C553 C549 1.391 . S
C553 C552 1.371 . S
C553 H560 0.930 . S
H554 C551 0.928 . S
H555 C552 0.931 . S
H556 C532 0.930 . S
H557 C529 0.930 . S
H558 C538 0.930 . S
H559 C550 0.929 . S
H560 C553 0.930 . S
C561 C562 1.351 . S
C561 N564 1.368 . S
C561 H566 0.931 . S
C562 C561 1.351 . S
C562 N563 1.373 . S
C562 H590 0.930 . S
N563 C562 1.373 . S
N563 C565 1.340 . S
N564 C561 1.368 . S
N564 C565 1.321 . S
N564 Co567 2.135 . S
C565 N563 1.340 . S
C565 N564 1.321 . S
C565 H589 0.930 . S
H566 C561 0.931 . S
Co567 N564 2.135 . S
Co567 N570 2.121 . S
Co567 O575 2.055 . S
Co567 O578 2.039 . S
Co567 N581 2.140 . S
C568 O569 1.227 . S
C568 O578 1.265 . S
O569 C568 1.227 . S
N570 Co567 2.121 . S
N570 C572 1.375 . S
N570 C573 1.313 . S
C571 C572 1.338 . S
C571 N574 1.377 . S
C571 H591 0.930 . S
C572 N570 1.375 . S
C572 C571 1.338 . S
C572 H576 0.931 . S
C573 N570 1.313 . S
C573 N574 1.344 . S
C573 H577 0.930 . S
N574 C571 1.377 . S
N574 C573 1.344 . S
O575 Co567 2.055 . S
O575 C579 1.253 . S
H576 C572 0.931 . S
H577 C573 0.930 . S
O578 Co567 2.039 . S
O578 C568 1.265 . S
C579 O575 1.253 . S
C579 O580 1.227 . S
O580 C579 1.227 . S
N581 Co567 2.140 . S
N581 C584 1.346 . S
N581 C585 1.345 . S
C582 C583 1.387 . S
C582 C586 1.391 . S
C583 C582 1.387 . S
C583 C584 1.369 . S
C583 H592 0.929 . S
C584 N581 1.346 . S
C584 C583 1.369 . S
C584 H587 0.928 . S
C585 N581 1.345 . S
C585 C586 1.371 . S
C585 H588 0.931 . S
C586 C582 1.391 . S
C586 C585 1.371 . S
C586 H593 0.930 . S
H587 C584 0.928 . S
H588 C585 0.931 . S
H589 C565 0.930 . S
H590 C562 0.930 . S
H591 C571 0.930 . S
H592 C583 0.929 . S
H593 C586 0.930 . S
C594 C595 1.351 . S
C594 N597 1.368 . S
C594 H599 0.931 . S
C595 C594 1.351 . S
C595 N596 1.373 . S
C595 H623 0.930 . S
N596 C595 1.373 . S
N596 C598 1.340 . S
N597 C594 1.368 . S
N597 C598 1.321 . S
N597 Co600 2.135 . S
C598 N596 1.340 . S
C598 N597 1.321 . S
C598 H622 0.930 . S
H599 C594 0.931 . S
Co600 N597 2.135 . S
Co600 N603 2.121 . S
Co600 O608 2.055 . S
Co600 O611 2.039 . S
Co600 N614 2.140 . S
C601 O602 1.227 . S
C601 O611 1.265 . S
O602 C601 1.227 . S
N603 Co600 2.121 . S
N603 C605 1.375 . S
N603 C606 1.313 . S
C604 C605 1.338 . S
C604 N607 1.377 . S
C604 H624 0.930 . S
C605 N603 1.375 . S
C605 C604 1.338 . S
C605 H609 0.931 . S
C606 N603 1.313 . S
C606 N607 1.344 . S
C606 H610 0.930 . S
N607 C604 1.377 . S
N607 C606 1.344 . S
O608 Co600 2.055 . S
O608 C612 1.253 . S
H609 C605 0.931 . S
H610 C606 0.930 . S
O611 Co600 2.039 . S
O611 C601 1.265 . S
C612 O608 1.253 . S
C612 O613 1.227 . S
O613 C612 1.227 . S
N614 Co600 2.140 . S
N614 C617 1.346 . S
N614 C618 1.345 . S
C615 C616 1.387 . S
C615 C619 1.391 . S
C616 C615 1.387 . S
C616 C617 1.369 . S
C616 H625 0.929 . S
C617 N614 1.346 . S
C617 C616 1.369 . S
C617 H620 0.928 . S
C618 N614 1.345 . S
C618 C619 1.371 . S
C618 H621 0.931 . S
C619 C615 1.391 . S
C619 C618 1.371 . S
C619 H626 0.930 . S
H620 C617 0.928 . S
H621 C618 0.931 . S
H622 C598 0.930 . S
H623 C595 0.930 . S
H624 C604 0.930 . S
H625 C616 0.929 . S
H626 C619 0.930 . S
C627 C628 1.351 . S
C627 N630 1.368 . S
C627 H632 0.931 . S
C628 C627 1.351 . S
C628 N629 1.373 . S
C628 H656 0.930 . S
N629 C628 1.373 . S
N629 C631 1.340 . S
N630 C627 1.368 . S
N630 C631 1.321 . S
N630 Co633 2.135 . S
C631 N629 1.340 . S
C631 N630 1.321 . S
C631 H655 0.930 . S
H632 C627 0.931 . S
Co633 N630 2.135 . S
Co633 N636 2.121 . S
Co633 O641 2.055 . S
Co633 O644 2.039 . S
Co633 N647 2.140 . S
C634 O635 1.227 . S
C634 O644 1.265 . S
O635 C634 1.227 . S
N636 Co633 2.121 . S
N636 C638 1.375 . S
N636 C639 1.313 . S
C637 C638 1.338 . S
C637 N640 1.377 . S
C637 H657 0.930 . S
C638 N636 1.375 . S
C638 C637 1.338 . S
C638 H642 0.931 . S
C639 N636 1.313 . S
C639 N640 1.344 . S
C639 H643 0.930 . S
N640 C637 1.377 . S
N640 C639 1.344 . S
O641 Co633 2.055 . S
O641 C645 1.253 . S
H642 C638 0.931 . S
H643 C639 0.930 . S
O644 Co633 2.039 . S
O644 C634 1.265 . S
C645 O641 1.253 . S
C645 O646 1.227 . S
O646 C645 1.227 . S
N647 Co633 2.140 . S
N647 C650 1.346 . S
N647 C651 1.345 . S
C648 C649 1.387 . S
C648 C652 1.391 . S
C649 C648 1.387 . S
C649 C650 1.369 . S
C649 H658 0.929 . S
C650 N647 1.346 . S
C650 C649 1.369 . S
C650 H653 0.928 . S
C651 N647 1.345 . S
C651 C652 1.371 . S
C651 H654 0.931 . S
C652 C648 1.391 . S
C652 C651 1.371 . S
C652 H659 0.930 . S
H653 C650 0.928 . S
H654 C651 0.931 . S
H655 C631 0.930 . S
H656 C628 0.930 . S
H657 C637 0.930 . S
H658 C649 0.929 . S
H659 C652 0.930 . S
C660 C661 1.351 . S
C660 N663 1.368 . S
C660 H665 0.931 . S
C661 C660 1.351 . S
C661 N662 1.373 . S
C661 H689 0.930 . S
N662 C661 1.373 . S
N662 C664 1.340 . S
N663 C660 1.368 . S
N663 C664 1.321 . S
N663 Co666 2.135 . S
C664 N662 1.340 . S
C664 N663 1.321 . S
C664 H688 0.930 . S
H665 C660 0.931 . S
Co666 N663 2.135 . S
Co666 N669 2.121 . S
Co666 O674 2.055 . S
Co666 O677 2.039 . S
Co666 N680 2.140 . S
C667 O668 1.227 . S
C667 O677 1.265 . S
O668 C667 1.227 . S
N669 Co666 2.121 . S
N669 C671 1.375 . S
N669 C672 1.313 . S
C670 C671 1.338 . S
C670 N673 1.377 . S
C670 H690 0.930 . S
C671 N669 1.375 . S
C671 C670 1.338 . S
C671 H675 0.931 . S
C672 N669 1.313 . S
C672 N673 1.344 . S
C672 H676 0.930 . S
N673 C670 1.377 . S
N673 C672 1.344 . S
O674 Co666 2.055 . S
O674 C678 1.253 . S
H675 C671 0.931 . S
H676 C672 0.930 . S
O677 Co666 2.039 . S
O677 C667 1.265 . S
C678 O674 1.253 . S
C678 O679 1.227 . S
O679 C678 1.227 . S
N680 Co666 2.140 . S
N680 C683 1.346 . S
N680 C684 1.345 . S
C681 C682 1.387 . S
C681 C685 1.391 . S
C682 C681 1.387 . S
C682 C683 1.369 . S
C682 H691 0.929 . S
C683 N680 1.346 . S
C683 C682 1.369 . S
C683 H686 0.928 . S
C684 N680 1.345 . S
C684 C685 1.371 . S
C684 H687 0.931 . S
C685 C681 1.391 . S
C685 C684 1.371 . S
C685 H692 0.930 . S
H686 C683 0.928 . S
H687 C684 0.931 . S
H688 C664 0.930 . S
H689 C661 0.930 . S
H690 C670 0.930 . S
H691 C682 0.929 . S
H692 C685 0.930 . S
C693 C694 1.351 . S
C693 N696 1.368 . S
C693 H698 0.931 . S
C694 C693 1.351 . S
C694 N695 1.373 . S
C694 H722 0.930 . S
N695 C694 1.373 . S
N695 C697 1.340 . S
N696 C693 1.368 . S
N696 C697 1.321 . S
N696 Co699 2.135 . S
C697 N695 1.340 . S
C697 N696 1.321 . S
C697 H721 0.930 . S
H698 C693 0.931 . S
Co699 N696 2.135 . S
Co699 N702 2.121 . S
Co699 O707 2.055 . S
Co699 O710 2.039 . S
Co699 N713 2.140 . S
C700 O701 1.227 . S
C700 O710 1.265 . S
O701 C700 1.227 . S
N702 Co699 2.121 . S
N702 C704 1.375 . S
N702 C705 1.313 . S
C703 C704 1.338 . S
C703 N706 1.377 . S
C703 H723 0.930 . S
C704 N702 1.375 . S
C704 C703 1.338 . S
C704 H708 0.931 . S
C705 N702 1.313 . S
C705 N706 1.344 . S
C705 H709 0.930 . S
N706 C703 1.377 . S
N706 C705 1.344 . S
O707 Co699 2.055 . S
O707 C711 1.253 . S
H708 C704 0.931 . S
H709 C705 0.930 . S
O710 Co699 2.039 . S
O710 C700 1.265 . S
C711 O707 1.253 . S
C711 O712 1.227 . S
O712 C711 1.227 . S
N713 Co699 2.140 . S
N713 C716 1.346 . S
N713 C717 1.345 . S
C714 C715 1.387 . S
C714 C718 1.391 . S
C715 C714 1.387 . S
C715 C716 1.369 . S
C715 H724 0.929 . S
C716 N713 1.346 . S
C716 C715 1.369 . S
C716 H719 0.928 . S
C717 N713 1.345 . S
C717 C718 1.371 . S
C717 H720 0.931 . S
C718 C714 1.391 . S
C718 C717 1.371 . S
C718 H725 0.930 . S
H719 C716 0.928 . S
H720 C717 0.931 . S
H721 C697 0.930 . S
H722 C694 0.930 . S
H723 C703 0.930 . S
H724 C715 0.929 . S
H725 C718 0.930 . S
C726 C727 1.351 . S
C726 N729 1.368 . S
C726 H731 0.931 . S
C727 C726 1.351 . S
C727 N728 1.373 . S
C727 H755 0.930 . S
N728 C727 1.373 . S
N728 C730 1.340 . S
N729 C726 1.368 . S
N729 C730 1.321 . S
N729 Co732 2.135 . S
C730 N728 1.340 . S
C730 N729 1.321 . S
C730 H754 0.930 . S
H731 C726 0.931 . S
Co732 N729 2.135 . S
Co732 N735 2.121 . S
Co732 O740 2.055 . S
Co732 O743 2.039 . S
Co732 N746 2.140 . S
C733 O734 1.227 . S
C733 O743 1.265 . S
O734 C733 1.227 . S
N735 Co732 2.121 . S
N735 C737 1.375 . S
N735 C738 1.313 . S
C736 C737 1.338 . S
C736 N739 1.377 . S
C736 H756 0.930 . S
C737 N735 1.375 . S
C737 C736 1.338 . S
C737 H741 0.931 . S
C738 N735 1.313 . S
C738 N739 1.344 . S
C738 H742 0.930 . S
N739 C736 1.377 . S
N739 C738 1.344 . S
O740 Co732 2.055 . S
O740 C744 1.253 . S
H741 C737 0.931 . S
H742 C738 0.930 . S
O743 Co732 2.039 . S
O743 C733 1.265 . S
C744 O740 1.253 . S
C744 O745 1.227 . S
O745 C744 1.227 . S
N746 Co732 2.140 . S
N746 C749 1.346 . S
N746 C750 1.345 . S
C747 C748 1.387 . S
C747 C751 1.391 . S
C748 C747 1.387 . S
C748 C749 1.369 . S
C748 H757 0.929 . S
C749 N746 1.346 . S
C749 C748 1.369 . S
C749 H752 0.928 . S
C750 N746 1.345 . S
C750 C751 1.371 . S
C750 H753 0.931 . S
C751 C747 1.391 . S
C751 C750 1.371 . S
C751 H758 0.930 . S
H752 C749 0.928 . S
H753 C750 0.931 . S
H754 C730 0.930 . S
H755 C727 0.930 . S
H756 C736 0.930 . S
H757 C748 0.929 . S
H758 C751 0.930 . S
C759 C760 1.351 . S
C759 N762 1.368 . S
C759 H764 0.931 . S
C760 C759 1.351 . S
C760 N761 1.373 . S
C760 H788 0.930 . S
N761 C760 1.373 . S
N761 C763 1.340 . S
N762 C759 1.368 . S
N762 C763 1.321 . S
N762 Co765 2.135 . S
C763 N761 1.340 . S
C763 N762 1.321 . S
C763 H787 0.930 . S
H764 C759 0.931 . S
Co765 N762 2.135 . S
Co765 N768 2.121 . S
Co765 O773 2.055 . S
Co765 O776 2.039 . S
Co765 N779 2.140 . S
C766 O767 1.227 . S
C766 O776 1.265 . S
O767 C766 1.227 . S
N768 Co765 2.121 . S
N768 C770 1.375 . S
N768 C771 1.313 . S
C769 C770 1.338 . S
C769 N772 1.377 . S
C769 H789 0.930 . S
C770 N768 1.375 . S
C770 C769 1.338 . S
C770 H774 0.931 . S
C771 N768 1.313 . S
C771 N772 1.344 . S
C771 H775 0.930 . S
N772 C769 1.377 . S
N772 C771 1.344 . S
O773 Co765 2.055 . S
O773 C777 1.253 . S
H774 C770 0.931 . S
H775 C771 0.930 . S
O776 Co765 2.039 . S
O776 C766 1.265 . S
C777 O773 1.253 . S
C777 O778 1.227 . S
O778 C777 1.227 . S
N779 Co765 2.140 . S
N779 C782 1.346 . S
N779 C783 1.345 . S
C780 C781 1.387 . S
C780 C784 1.391 . S
C781 C780 1.387 . S
C781 C782 1.369 . S
C781 H790 0.929 . S
C782 N779 1.346 . S
C782 C781 1.369 . S
C782 H785 0.928 . S
C783 N779 1.345 . S
C783 C784 1.371 . S
C783 H786 0.931 . S
C784 C780 1.391 . S
C784 C783 1.371 . S
C784 H791 0.930 . S
H785 C782 0.928 . S
H786 C783 0.931 . S
H787 C763 0.930 . S
H788 C760 0.930 . S
H789 C769 0.930 . S
H790 C781 0.929 . S
H791 C784 0.930 . S
C792 C793 1.351 . S
C792 N795 1.368 . S
C792 H797 0.931 . S
C793 C792 1.351 . S
C793 N794 1.373 . S
C793 H821 0.930 . S
N794 C793 1.373 . S
N794 C796 1.340 . S
N795 C792 1.368 . S
N795 C796 1.321 . S
N795 Co798 2.135 . S
C796 N794 1.340 . S
C796 N795 1.321 . S
C796 H820 0.930 . S
H797 C792 0.931 . S
Co798 N795 2.135 . S
Co798 N801 2.121 . S
Co798 O806 2.055 . S
Co798 O809 2.039 . S
Co798 N812 2.140 . S
C799 O800 1.227 . S
C799 O809 1.265 . S
O800 C799 1.227 . S
N801 Co798 2.121 . S
N801 C803 1.375 . S
N801 C804 1.313 . S
C802 C803 1.338 . S
C802 N805 1.377 . S
C802 H822 0.930 . S
C803 N801 1.375 . S
C803 C802 1.338 . S
C803 H807 0.931 . S
C804 N801 1.313 . S
C804 N805 1.344 . S
C804 H808 0.930 . S
N805 C802 1.377 . S
N805 C804 1.344 . S
O806 Co798 2.055 . S
O806 C810 1.253 . S
H807 C803 0.931 . S
H808 C804 0.930 . S
O809 Co798 2.039 . S
O809 C799 1.265 . S
C810 O806 1.253 . S
C810 O811 1.227 . S
O811 C810 1.227 . S
N812 Co798 2.140 . S
N812 C815 1.346 . S
N812 C816 1.345 . S
C813 C814 1.387 . S
C813 C817 1.391 . S
C814 C813 1.387 . S
C814 C815 1.369 . S
C814 H823 0.929 . S
C815 N812 1.346 . S
C815 C814 1.369 . S
C815 H818 0.928 . S
C816 N812 1.345 . S
C816 C817 1.371 . S
C816 H819 0.931 . S
C817 C813 1.391 . S
C817 C816 1.371 . S
C817 H824 0.930 . S
H818 C815 0.928 . S
H819 C816 0.931 . S
H820 C796 0.930 . S
H821 C793 0.930 . S
H822 C802 0.930 . S
H823 C814 0.929 . S
H824 C817 0.930 . S
C825 C826 1.351 . S
C825 N828 1.368 . S
C825 H830 0.931 . S
C826 C825 1.351 . S
C826 N827 1.373 . S
C826 H854 0.930 . S
N827 C826 1.373 . S
N827 C829 1.340 . S
N828 C825 1.368 . S
N828 C829 1.321 . S
N828 Co831 2.135 . S
C829 N827 1.340 . S
C829 N828 1.321 . S
C829 H853 0.930 . S
H830 C825 0.931 . S
Co831 N828 2.135 . S
Co831 N834 2.121 . S
Co831 O839 2.055 . S
Co831 O842 2.039 . S
Co831 N845 2.140 . S
C832 O833 1.227 . S
C832 O842 1.265 . S
O833 C832 1.227 . S
N834 Co831 2.121 . S
N834 C836 1.375 . S
N834 C837 1.313 . S
C835 C836 1.338 . S
C835 N838 1.377 . S
C835 H855 0.930 . S
C836 N834 1.375 . S
C836 C835 1.338 . S
C836 H840 0.931 . S
C837 N834 1.313 . S
C837 N838 1.344 . S
C837 H841 0.930 . S
N838 C835 1.377 . S
N838 C837 1.344 . S
O839 Co831 2.055 . S
O839 C843 1.253 . S
H840 C836 0.931 . S
H841 C837 0.930 . S
O842 Co831 2.039 . S
O842 C832 1.265 . S
C843 O839 1.253 . S
C843 O844 1.227 . S
O844 C843 1.227 . S
N845 Co831 2.140 . S
N845 C848 1.346 . S
N845 C849 1.345 . S
C846 C847 1.387 . S
C846 C850 1.391 . S
C847 C846 1.387 . S
C847 C848 1.369 . S
C847 H856 0.929 . S
C848 N845 1.346 . S
C848 C847 1.369 . S
C848 H851 0.928 . S
C849 N845 1.345 . S
C849 C850 1.371 . S
C849 H852 0.931 . S
C850 C846 1.391 . S
C850 C849 1.371 . S
C850 H857 0.930 . S
H851 C848 0.928 . S
H852 C849 0.931 . S
H853 C829 0.930 . S
H854 C826 0.930 . S
H855 C835 0.930 . S
H856 C847 0.929 . S
H857 C850 0.930 . S
C858 C859 1.351 . S
C858 N861 1.368 . S
C858 H863 0.931 . S
C859 C858 1.351 . S
C859 N860 1.373 . S
C859 H887 0.930 . S
N860 C859 1.373 . S
N860 C862 1.340 . S
N861 C858 1.368 . S
N861 C862 1.321 . S
N861 Co864 2.135 . S
C862 N860 1.340 . S
C862 N861 1.321 . S
C862 H886 0.930 . S
H863 C858 0.931 . S
Co864 N861 2.135 . S
Co864 N867 2.121 . S
Co864 O872 2.055 . S
Co864 O875 2.039 . S
Co864 N878 2.140 . S
C865 O866 1.227 . S
C865 O875 1.265 1_554 S
O866 C865 1.227 . S
N867 Co864 2.121 . S
N867 C869 1.375 . S
N867 C870 1.313 . S
C868 C869 1.338 . S
C868 N871 1.377 . S
C868 H888 0.930 . S
C869 N867 1.375 . S
C869 C868 1.338 . S
C869 H873 0.931 . S
C870 N867 1.313 . S
C870 N871 1.344 . S
C870 H874 0.930 . S
N871 C868 1.377 . S
N871 C870 1.344 . S
O872 Co864 2.055 . S
O872 C876 1.253 . S
H873 C869 0.931 . S
H874 C870 0.930 . S
O875 Co864 2.039 . S
O875 C865 1.265 1_556 S
C876 O872 1.253 . S
C876 O877 1.227 . S
O877 C876 1.227 . S
N878 Co864 2.140 . S
N878 C881 1.346 . S
N878 C882 1.345 . S
C879 C880 1.387 . S
C879 C883 1.391 . S
C880 C879 1.387 . S
C880 C881 1.369 . S
C880 H889 0.929 . S
C881 N878 1.346 . S
C881 C880 1.369 . S
C881 H884 0.928 . S
C882 N878 1.345 . S
C882 C883 1.371 . S
C882 H885 0.931 . S
C883 C879 1.391 . S
C883 C882 1.371 . S
C883 H890 0.930 . S
H884 C881 0.928 . S
H885 C882 0.931 . S
H886 C862 0.930 . S
H887 C859 0.930 . S
H888 C868 0.930 . S
H889 C880 0.929 . S
H890 C883 0.930 . S
C891 C892 1.351 . S
C891 N894 1.368 . S
C891 H896 0.931 . S
C892 C891 1.351 . S
C892 N893 1.373 . S
C892 H920 0.930 . S
N893 C892 1.373 . S
N893 C895 1.340 . S
N894 C891 1.368 . S
N894 C895 1.321 . S
N894 Co897 2.135 . S
C895 N893 1.340 . S
C895 N894 1.321 . S
C895 H919 0.930 . S
H896 C891 0.931 . S
Co897 N894 2.135 . S
Co897 N900 2.121 . S
Co897 O905 2.055 . S
Co897 O908 2.039 . S
Co897 N911 2.140 . S
C898 O899 1.227 . S
C898 O908 1.265 1_554 S
O899 C898 1.227 . S
N900 Co897 2.121 . S
N900 C902 1.375 . S
N900 C903 1.313 . S
C901 C902 1.338 . S
C901 N904 1.377 . S
C901 H921 0.930 . S
C902 N900 1.375 . S
C902 C901 1.338 . S
C902 H906 0.931 . S
C903 N900 1.313 . S
C903 N904 1.344 . S
C903 H907 0.930 . S
N904 C901 1.377 . S
N904 C903 1.344 . S
O905 Co897 2.055 . S
O905 C909 1.253 . S
H906 C902 0.931 . S
H907 C903 0.930 . S
O908 Co897 2.039 . S
O908 C898 1.265 1_556 S
C909 O905 1.253 . S
C909 O910 1.227 . S
O910 C909 1.227 . S
N911 Co897 2.140 . S
N911 C914 1.346 . S
N911 C915 1.345 . S
C912 C913 1.387 . S
C912 C916 1.391 . S
C913 C912 1.387 . S
C913 C914 1.369 . S
C913 H922 0.929 . S
C914 N911 1.346 . S
C914 C913 1.369 . S
C914 H917 0.928 . S
C915 N911 1.345 . S
C915 C916 1.371 . S
C915 H918 0.931 . S
C916 C912 1.391 . S
C916 C915 1.371 . S
C916 H923 0.930 . S
H917 C914 0.928 . S
H918 C915 0.931 . S
H919 C895 0.930 . S
H920 C892 0.930 . S
H921 C901 0.930 . S
H922 C913 0.929 . S
H923 C916 0.930 . S
C924 C925 1.351 . S
C924 N927 1.368 . S
C924 H929 0.931 . S
C925 C924 1.351 . S
C925 N926 1.373 . S
C925 H953 0.930 . S
N926 C925 1.373 . S
N926 C928 1.340 . S
N927 C924 1.368 . S
N927 C928 1.321 . S
N927 Co930 2.135 . S
C928 N926 1.340 . S
C928 N927 1.321 . S
C928 H952 0.930 . S
H929 C924 0.931 . S
Co930 N927 2.135 . S
Co930 N933 2.121 . S
Co930 O938 2.055 . S
Co930 O941 2.039 . S
Co930 N944 2.140 . S
C931 O932 1.227 . S
C931 O941 1.265 . S
O932 C931 1.227 . S
N933 Co930 2.121 . S
N933 C935 1.375 . S
N933 C936 1.313 . S
C934 C935 1.338 . S
C934 N937 1.377 . S
C934 H954 0.930 . S
C935 N933 1.375 . S
C935 C934 1.338 . S
C935 H939 0.931 . S
C936 N933 1.313 . S
C936 N937 1.344 . S
C936 H940 0.930 . S
N937 C934 1.377 . S
N937 C936 1.344 . S
O938 Co930 2.055 . S
O938 C942 1.253 . S
H939 C935 0.931 . S
H940 C936 0.930 . S
O941 Co930 2.039 . S
O941 C931 1.265 . S
C942 O938 1.253 . S
C942 O943 1.227 . S
O943 C942 1.227 . S
N944 Co930 2.140 . S
N944 C947 1.346 . S
N944 C948 1.345 . S
C945 C946 1.387 . S
C945 C949 1.391 . S
C946 C945 1.387 . S
C946 C947 1.369 . S
C946 H955 0.929 . S
C947 N944 1.346 . S
C947 C946 1.369 . S
C947 H950 0.928 . S
C948 N944 1.345 . S
C948 C949 1.371 . S
C948 H951 0.931 . S
C949 C945 1.391 . S
C949 C948 1.371 . S
C949 H956 0.930 . S
H950 C947 0.928 . S
H951 C948 0.931 . S
H952 C928 0.930 . S
H953 C925 0.930 . S
H954 C934 0.930 . S
H955 C946 0.929 . S
H956 C949 0.930 . S
C957 C958 1.351 . S
C957 N960 1.368 . S
C957 H962 0.931 . S
C958 C957 1.351 . S
C958 N959 1.373 . S
C958 H986 0.930 . S
N959 C958 1.373 . S
N959 C961 1.340 . S
N960 C957 1.368 . S
N960 C961 1.321 . S
N960 Co963 2.135 . S
C961 N959 1.340 . S
C961 N960 1.321 . S
C961 H985 0.930 . S
H962 C957 0.931 . S
Co963 N960 2.135 . S
Co963 N966 2.121 . S
Co963 O971 2.055 . S
Co963 O974 2.039 . S
Co963 N977 2.140 . S
C964 O965 1.227 . S
C964 O974 1.265 . S
O965 C964 1.227 . S
N966 Co963 2.121 . S
N966 C968 1.375 . S
N966 C969 1.313 . S
C967 C968 1.338 . S
C967 N970 1.377 . S
C967 H987 0.930 . S
C968 N966 1.375 . S
C968 C967 1.338 . S
C968 H972 0.931 . S
C969 N966 1.313 . S
C969 N970 1.344 . S
C969 H973 0.930 . S
N970 C967 1.377 . S
N970 C969 1.344 . S
O971 Co963 2.055 . S
O971 C975 1.253 . S
H972 C968 0.931 . S
H973 C969 0.930 . S
O974 Co963 2.039 . S
O974 C964 1.265 . S
C975 O971 1.253 . S
C975 O976 1.227 . S
O976 C975 1.227 . S
N977 Co963 2.140 . S
N977 C980 1.346 . S
N977 C981 1.345 . S
C978 C979 1.387 . S
C978 C982 1.391 . S
C979 C978 1.387 . S
C979 C980 1.369 . S
C979 H988 0.929 . S
C980 N977 1.346 . S
C980 C979 1.369 . S
C980 H983 0.928 . S
C981 N977 1.345 . S
C981 C982 1.371 . S
C981 H984 0.931 . S
C982 C978 1.391 . S
C982 C981 1.371 . S
C982 H989 0.930 . S
H983 C980 0.928 . S
H984 C981 0.931 . S
H985 C961 0.930 . S
H986 C958 0.930 . S
H987 C967 0.930 . S
H988 C979 0.929 . S
H989 C982 0.930 . S
C990 C991 1.351 . S
C990 N993 1.368 . S
C990 H995 0.931 . S
C991 C990 1.351 . S
C991 N992 1.373 . S
C991 H1019 0.930 . S
N992 C991 1.373 . S
N992 C994 1.340 . S
N993 C990 1.368 . S
N993 C994 1.321 . S
N993 Co996 2.135 . S
C994 N992 1.340 . S
C994 N993 1.321 . S
C994 H1018 0.930 . S
H995 C990 0.931 . S
Co996 N993 2.135 . S
Co996 N999 2.121 . S
Co996 O1004 2.055 . S
Co996 O1007 2.039 . S
Co996 N1010 2.140 . S
C997 O998 1.227 . S
C997 O1007 1.265 1_556 S
O998 C997 1.227 . S
N999 Co996 2.121 . S
N999 C1001 1.375 . S
N999 C1002 1.313 . S
C1000 C1001 1.338 . S
C1000 N1003 1.377 . S
C1000 H1020 0.930 . S
C1001 N999 1.375 . S
C1001 C1000 1.338 . S
C1001 H1005 0.931 . S
C1002 N999 1.313 . S
C1002 N1003 1.344 . S
C1002 H1006 0.930 . S
N1003 C1000 1.377 . S
N1003 C1002 1.344 . S
O1004 Co996 2.055 . S
O1004 C1008 1.253 . S
H1005 C1001 0.931 . S
H1006 C1002 0.930 . S
O1007 Co996 2.039 . S
O1007 C997 1.265 1_554 S
C1008 O1004 1.253 . S
C1008 O1009 1.227 . S
O1009 C1008 1.227 . S
N1010 Co996 2.140 . S
N1010 C1013 1.346 . S
N1010 C1014 1.345 . S
C1011 C1012 1.387 . S
C1011 C1015 1.391 . S
C1012 C1011 1.387 . S
C1012 C1013 1.369 . S
C1012 H1021 0.929 . S
C1013 N1010 1.346 . S
C1013 C1012 1.369 . S
C1013 H1016 0.928 . S
C1014 N1010 1.345 . S
C1014 C1015 1.371 . S
C1014 H1017 0.931 . S
C1015 C1011 1.391 . S
C1015 C1014 1.371 . S
C1015 H1022 0.930 . S
H1016 C1013 0.928 . S
H1017 C1014 0.931 . S
H1018 C994 0.930 . S
H1019 C991 0.930 . S
H1020 C1000 0.930 . S
H1021 C1012 0.929 . S
H1022 C1015 0.930 . S
C1023 C1024 1.351 . S
C1023 N1026 1.368 . S
C1023 H1028 0.931 . S
C1024 C1023 1.351 . S
C1024 N1025 1.373 . S
C1024 H1052 0.930 . S
N1025 C1024 1.373 . S
N1025 C1027 1.340 . S
N1026 C1023 1.368 . S
N1026 C1027 1.321 . S
N1026 Co1029 2.135 . S
C1027 N1025 1.340 . S
C1027 N1026 1.321 . S
C1027 H1051 0.930 . S
H1028 C1023 0.931 . S
Co1029 N1026 2.135 . S
Co1029 N1032 2.121 . S
Co1029 O1037 2.055 . S
Co1029 O1040 2.039 . S
Co1029 N1043 2.140 . S
C1030 O1031 1.227 . S
C1030 O1040 1.265 1_556 S
O1031 C1030 1.227 . S
N1032 Co1029 2.121 . S
N1032 C1034 1.375 . S
N1032 C1035 1.313 . S
C1033 C1034 1.338 . S
C1033 N1036 1.377 . S
C1033 H1053 0.930 . S
C1034 N1032 1.375 . S
C1034 C1033 1.338 . S
C1034 H1038 0.931 . S
C1035 N1032 1.313 . S
C1035 N1036 1.344 . S
C1035 H1039 0.930 . S
N1036 C1033 1.377 . S
N1036 C1035 1.344 . S
O1037 Co1029 2.055 . S
O1037 C1041 1.253 . S
H1038 C1034 0.931 . S
H1039 C1035 0.930 . S
O1040 Co1029 2.039 . S
O1040 C1030 1.265 1_554 S
C1041 O1037 1.253 . S
C1041 O1042 1.227 . S
O1042 C1041 1.227 . S
N1043 Co1029 2.140 . S
N1043 C1046 1.346 . S
N1043 C1047 1.345 . S
C1044 C1045 1.387 . S
C1044 C1048 1.391 . S
C1045 C1044 1.387 . S
C1045 C1046 1.369 . S
C1045 H1054 0.929 . S
C1046 N1043 1.346 . S
C1046 C1045 1.369 . S
C1046 H1049 0.928 . S
C1047 N1043 1.345 . S
C1047 C1048 1.371 . S
C1047 H1050 0.931 . S
C1048 C1044 1.391 . S
C1048 C1047 1.371 . S
C1048 H1055 0.930 . S
H1049 C1046 0.928 . S
H1050 C1047 0.931 . S
H1051 C1027 0.930 . S
H1052 C1024 0.930 . S
H1053 C1033 0.930 . S
H1054 C1045 0.929 . S
H1055 C1048 0.930 . S
C1056 C1057 1.387 . S
C1056 H1060 0.950 . S
C1056 C1065 1.390 . S
C1057 C1056 1.387 . S
C1057 C1059 1.387 . S
H1058 C1065 0.950 . S
C1059 C1057 1.387 . S
C1059 C1061 1.390 . S
C1059 H1063 0.950 . S
H1060 C1056 0.950 . S
C1061 C1059 1.390 . S
C1061 C1062 1.387 . S
C1061 H1064 0.950 . S
C1062 C1061 1.387 . S
C1062 C1065 1.387 . S
H1063 C1059 0.950 . S
H1064 C1061 0.950 . S
C1065 C1056 1.390 . S
C1065 H1058 0.950 . S
C1065 C1062 1.387 . S
C1066 C1067 1.387 . S
C1066 H1070 0.950 . S
C1066 C1075 1.390 . S
C1067 C1066 1.387 . S
C1067 C1069 1.387 . S
H1068 C1075 0.950 . S
C1069 C1067 1.387 . S
C1069 C1071 1.390 . S
C1069 H1073 0.950 . S
H1070 C1066 0.950 . S
C1071 C1069 1.390 . S
C1071 C1072 1.387 . S
C1071 H1074 0.950 . S
C1072 C1071 1.387 . S
C1072 C1075 1.387 . S
H1073 C1069 0.950 . S
H1074 C1071 0.950 . S
C1075 C1066 1.390 . S
C1075 H1068 0.950 . S
C1075 C1072 1.387 . S
C1076 C1077 1.387 . S
C1076 H1080 0.950 . S
C1076 C1085 1.390 . S
C1077 C1076 1.387 . S
C1077 C1079 1.387 . S
H1078 C1085 0.950 . S
C1079 C1077 1.387 . S
C1079 C1081 1.390 . S
C1079 H1083 0.950 . S
H1080 C1076 0.950 . S
C1081 C1079 1.390 . S
C1081 C1082 1.387 . S
C1081 H1084 0.950 . S
C1082 C1081 1.387 . S
C1082 C1085 1.387 . S
H1083 C1079 0.950 . S
H1084 C1081 0.950 . S
C1085 C1076 1.390 . S
C1085 H1078 0.950 . S
C1085 C1082 1.387 . S
C1086 C1087 1.387 . S
C1086 H1090 0.950 . S
C1086 C1095 1.390 . S
C1087 C1086 1.387 . S
C1087 C1089 1.387 . S
H1088 C1095 0.950 . S
C1089 C1087 1.387 . S
C1089 C1091 1.390 . S
C1089 H1093 0.950 . S
H1090 C1086 0.950 . S
C1091 C1089 1.390 . S
C1091 C1092 1.387 . S
C1091 H1094 0.950 . S
C1092 C1091 1.387 . S
C1092 C1095 1.387 . S
H1093 C1089 0.950 . S
H1094 C1091 0.950 . S
C1095 C1086 1.390 . S
C1095 H1088 0.950 . S
C1095 C1092 1.387 . S
C1096 C1097 1.387 . S
C1096 H1100 0.950 . S
C1096 C1105 1.390 . S
C1097 C1096 1.387 . S
C1097 C1099 1.387 . S
H1098 C1105 0.950 . S
C1099 C1097 1.387 . S
C1099 C1101 1.390 . S
C1099 H1103 0.950 . S
H1100 C1096 0.950 . S
C1101 C1099 1.390 . S
C1101 C1102 1.387 . S
C1101 H1104 0.950 . S
C1102 C1101 1.387 . S
C1102 C1105 1.387 . S
H1103 C1099 0.950 . S
H1104 C1101 0.950 . S
C1105 C1096 1.390 . S
C1105 H1098 0.950 . S
C1105 C1102 1.387 . S
C1106 C1107 1.387 . S
C1106 H1110 0.950 . S
C1106 C1115 1.390 . S
C1107 C1106 1.387 . S
C1107 C1109 1.387 . S
H1108 C1115 0.950 . S
C1109 C1107 1.387 . S
C1109 C1111 1.390 . S
C1109 H1113 0.950 . S
H1110 C1106 0.950 . S
C1111 C1109 1.390 . S
C1111 C1112 1.387 . S
C1111 H1114 0.950 . S
C1112 C1111 1.387 . S
C1112 C1115 1.387 . S
H1113 C1109 0.950 . S
H1114 C1111 0.950 . S
C1115 C1106 1.390 . S
C1115 H1108 0.950 . S
C1115 C1112 1.387 . S
C1116 C1117 1.387 . S
C1116 H1120 0.950 . S
C1116 C1125 1.390 . S
C1117 C1116 1.387 . S
C1117 C1119 1.387 . S
H1118 C1125 0.950 . S
C1119 C1117 1.387 . S
C1119 C1121 1.390 . S
C1119 H1123 0.950 . S
H1120 C1116 0.950 . S
C1121 C1119 1.390 . S
C1121 C1122 1.387 . S
C1121 H1124 0.950 . S
C1122 C1121 1.387 . S
C1122 C1125 1.387 . S
H1123 C1119 0.950 . S
H1124 C1121 0.950 . S
C1125 C1116 1.390 . S
C1125 H1118 0.950 . S
C1125 C1122 1.387 . S
C1126 C1127 1.387 . S
C1126 H1130 0.950 . S
C1126 C1135 1.390 . S
C1127 C1126 1.387 . S
C1127 C1129 1.387 . S
H1128 C1135 0.950 . S
C1129 C1127 1.387 . S
C1129 C1131 1.390 . S
C1129 H1133 0.950 . S
H1130 C1126 0.950 . S
C1131 C1129 1.390 . S
C1131 C1132 1.387 . S
C1131 H1134 0.950 . S
C1132 C1131 1.387 . S
C1132 C1135 1.387 . S
H1133 C1129 0.950 . S
H1134 C1131 0.950 . S
C1135 C1126 1.390 . S
C1135 H1128 0.950 . S
C1135 C1132 1.387 . S
C1136 C1137 1.387 . S
C1136 H1140 0.950 . S
C1136 C1145 1.390 . S
C1137 C1136 1.387 . S
C1137 C1139 1.387 . S
H1138 C1145 0.950 . S
C1139 C1137 1.387 . S
C1139 C1141 1.390 . S
C1139 H1143 0.950 . S
H1140 C1136 0.950 . S
C1141 C1139 1.390 . S
C1141 C1142 1.387 . S
C1141 H1144 0.950 . S
C1142 C1141 1.387 . S
C1142 C1145 1.387 . S
H1143 C1139 0.950 . S
H1144 C1141 0.950 . S
C1145 C1136 1.390 . S
C1145 H1138 0.950 . S
C1145 C1142 1.387 . S
C1146 C1147 1.387 . S
C1146 H1150 0.950 . S
C1146 C1155 1.390 . S
C1147 C1146 1.387 . S
C1147 C1149 1.387 . S
H1148 C1155 0.950 . S
C1149 C1147 1.387 . S
C1149 C1151 1.390 . S
C1149 H1153 0.950 . S
H1150 C1146 0.950 . S
C1151 C1149 1.390 . S
C1151 C1152 1.387 . S
C1151 H1154 0.950 . S
C1152 C1151 1.387 . S
C1152 C1155 1.387 . S
H1153 C1149 0.950 . S
H1154 C1151 0.950 . S
C1155 C1146 1.390 . S
C1155 H1148 0.950 . S
C1155 C1152 1.387 . S
C1156 C1157 1.387 . S
C1156 H1160 0.950 . S
C1156 C1165 1.390 . S
C1157 C1156 1.387 . S
C1157 C1159 1.387 . S
H1158 C1165 0.950 . S
C1159 C1157 1.387 . S
C1159 C1161 1.390 . S
C1159 H1163 0.950 . S
H1160 C1156 0.950 . S
C1161 C1159 1.390 . S
C1161 C1162 1.387 . S
C1161 H1164 0.950 . S
C1162 C1161 1.387 . S
C1162 C1165 1.387 . S
H1163 C1159 0.950 . S
H1164 C1161 0.950 . S
C1165 C1156 1.390 . S
C1165 H1158 0.950 . S
C1165 C1162 1.387 . S
C1166 C1167 1.387 . S
C1166 H1170 0.950 . S
C1166 C1175 1.390 . S
C1167 C1166 1.387 . S
C1167 C1169 1.387 . S
H1168 C1175 0.950 . S
C1169 C1167 1.387 . S
C1169 C1171 1.390 . S
C1169 H1173 0.950 . S
H1170 C1166 0.950 . S
C1171 C1169 1.390 . S
C1171 C1172 1.387 . S
C1171 H1174 0.950 . S
C1172 C1171 1.387 . S
C1172 C1175 1.387 . S
H1173 C1169 0.950 . S
H1174 C1171 0.950 . S
C1175 C1166 1.390 . S
C1175 H1168 0.950 . S
C1175 C1172 1.387 . S
C1176 C1177 1.387 . S
C1176 H1180 0.950 . S
C1176 C1185 1.390 . S
C1177 C1176 1.387 . S
C1177 C1179 1.387 . S
H1178 C1185 0.950 . S
C1179 C1177 1.387 . S
C1179 C1181 1.390 . S
C1179 H1183 0.950 . S
H1180 C1176 0.950 . S
C1181 C1179 1.390 . S
C1181 C1182 1.387 . S
C1181 H1184 0.950 . S
C1182 C1181 1.387 . S
C1182 C1185 1.387 . S
H1183 C1179 0.950 . S
H1184 C1181 0.950 . S
C1185 C1176 1.390 . S
C1185 H1178 0.950 . S
C1185 C1182 1.387 . S
C1186 C1187 1.387 . S
C1186 H1190 0.950 . S
C1186 C1195 1.390 . S
C1187 C1186 1.387 . S
C1187 C1189 1.387 . S
H1188 C1195 0.950 . S
C1189 C1187 1.387 . S
C1189 C1191 1.390 . S
C1189 H1193 0.950 . S
H1190 C1186 0.950 . S
C1191 C1189 1.390 . S
C1191 C1192 1.387 . S
C1191 H1194 0.950 . S
C1192 C1191 1.387 . S
C1192 C1195 1.387 . S
H1193 C1189 0.950 . S
H1194 C1191 0.950 . S
C1195 C1186 1.390 . S
C1195 H1188 0.950 . S
C1195 C1192 1.387 . S
C1196 C1197 1.387 . S
C1196 H1200 0.950 . S
C1196 C1205 1.390 . S
C1197 C1196 1.387 . S
C1197 C1199 1.387 . S
H1198 C1205 0.950 . S
C1199 C1197 1.387 . S
C1199 C1201 1.390 . S
C1199 H1203 0.950 . S
H1200 C1196 0.950 . S
C1201 C1199 1.390 . S
C1201 C1202 1.387 . S
C1201 H1204 0.950 . S
C1202 C1201 1.387 . S
C1202 C1205 1.387 . S
H1203 C1199 0.950 . S
H1204 C1201 0.950 . S
C1205 C1196 1.390 . S
C1205 H1198 0.950 . S
C1205 C1202 1.387 . S
C1206 C1207 1.387 . S
C1206 H1210 0.950 . S
C1206 C1215 1.390 . S
C1207 C1206 1.387 . S
C1207 C1209 1.387 . S
H1208 C1215 0.950 . S
C1209 C1207 1.387 . S
C1209 C1211 1.390 . S
C1209 H1213 0.950 . S
H1210 C1206 0.950 . S
C1211 C1209 1.390 . S
C1211 C1212 1.387 . S
C1211 H1214 0.950 . S
C1212 C1211 1.387 . S
C1212 C1215 1.387 . S
H1213 C1209 0.950 . S
H1214 C1211 0.950 . S
C1215 C1206 1.390 . S
C1215 H1208 0.950 . S
C1215 C1212 1.387 . S
C1216 C1217 1.387 . S
C1216 H1220 0.950 . S
C1216 C1225 1.390 . S
C1217 C1216 1.387 . S
C1217 C1219 1.387 . S
H1218 C1225 0.950 . S
C1219 C1217 1.387 . S
C1219 C1221 1.390 . S
C1219 H1223 0.950 . S
H1220 C1216 0.950 . S
C1221 C1219 1.390 . S
C1221 C1222 1.387 . S
C1221 H1224 0.950 . S
C1222 C1221 1.387 . S
C1222 C1225 1.387 . S
H1223 C1219 0.950 . S
H1224 C1221 0.950 . S
C1225 C1216 1.390 . S
C1225 H1218 0.950 . S
C1225 C1222 1.387 . S
C1226 C1227 1.387 . S
C1226 H1230 0.950 . S
C1226 C1235 1.390 . S
C1227 C1226 1.387 . S
C1227 C1229 1.387 . S
H1228 C1235 0.950 . S
C1229 C1227 1.387 . S
C1229 C1231 1.390 . S
C1229 H1233 0.950 . S
H1230 C1226 0.950 . S
C1231 C1229 1.390 . S
C1231 C1232 1.387 . S
C1231 H1234 0.950 . S
C1232 C1231 1.387 . S
C1232 C1235 1.387 . S
H1233 C1229 0.950 . S
H1234 C1231 0.950 . S
C1235 C1226 1.390 . S
C1235 H1228 0.950 . S
C1235 C1232 1.387 . S
C1236 C1237 1.387 . S
C1236 H1240 0.950 . S
C1236 C1245 1.390 . S
C1237 C1236 1.387 . S
C1237 C1239 1.387 . S
H1238 C1245 0.950 . S
C1239 C1237 1.387 . S
C1239 C1241 1.390 . S
C1239 H1243 0.950 . S
H1240 C1236 0.950 . S
C1241 C1239 1.390 . S
C1241 C1242 1.387 . S
C1241 H1244 0.950 . S
C1242 C1241 1.387 . S
C1242 C1245 1.387 . S
H1243 C1239 0.950 . S
H1244 C1241 0.950 . S
C1245 C1236 1.390 . S
C1245 H1238 0.950 . S
C1245 C1242 1.387 . S
C1246 C1247 1.387 . S
C1246 H1250 0.950 . S
C1246 C1255 1.390 . S
C1247 C1246 1.387 . S
C1247 C1249 1.387 . S
H1248 C1255 0.950 . S
C1249 C1247 1.387 . S
C1249 C1251 1.390 . S
C1249 H1253 0.950 . S
H1250 C1246 0.950 . S
C1251 C1249 1.390 . S
C1251 C1252 1.387 . S
C1251 H1254 0.950 . S
C1252 C1251 1.387 . S
C1252 C1255 1.387 . S
H1253 C1249 0.950 . S
H1254 C1251 0.950 . S
C1255 C1246 1.390 . S
C1255 H1248 0.950 . S
C1255 C1252 1.387 . S
C1256 C1257 1.387 . S
C1256 H1260 0.950 . S
C1256 C1265 1.390 . S
C1257 C1256 1.387 . S
C1257 C1259 1.387 . S
H1258 C1265 0.950 . S
C1259 C1257 1.387 . S
C1259 C1261 1.390 . S
C1259 H1263 0.950 . S
H1260 C1256 0.950 . S
C1261 C1259 1.390 . S
C1261 C1262 1.387 . S
C1261 H1264 0.950 . S
C1262 C1261 1.387 . S
C1262 C1265 1.387 . S
H1263 C1259 0.950 . S
H1264 C1261 0.950 . S
C1265 C1256 1.390 . S
C1265 H1258 0.950 . S
C1265 C1262 1.387 . S
C1266 C1267 1.387 . S
C1266 H1270 0.950 . S
C1266 C1275 1.390 . S
C1267 C1266 1.387 . S
C1267 C1269 1.387 . S
H1268 C1275 0.950 . S
C1269 C1267 1.387 . S
C1269 C1271 1.390 . S
C1269 H1273 0.950 . S
H1270 C1266 0.950 . S
C1271 C1269 1.390 . S
C1271 C1272 1.387 . S
C1271 H1274 0.950 . S
C1272 C1271 1.387 . S
C1272 C1275 1.387 . S
H1273 C1269 0.950 . S
H1274 C1271 0.950 . S
C1275 C1266 1.390 . S
C1275 H1268 0.950 . S
C1275 C1272 1.387 . S
C1276 C1277 1.387 . S
C1276 H1280 0.950 . S
C1276 C1285 1.390 . S
C1277 C1276 1.387 . S
C1277 C1279 1.387 . S
H1278 C1285 0.950 . S
C1279 C1277 1.387 . S
C1279 C1281 1.390 . S
C1279 H1283 0.950 . S
H1280 C1276 0.950 . S
C1281 C1279 1.390 . S
C1281 C1282 1.387 . S
C1281 H1284 0.950 . S
C1282 C1281 1.387 . S
C1282 C1285 1.387 . S
H1283 C1279 0.950 . S
H1284 C1281 0.950 . S
C1285 C1276 1.390 . S
C1285 H1278 0.950 . S
C1285 C1282 1.387 . S
C1286 C1287 1.387 . S
C1286 H1290 0.950 . S
C1286 C1295 1.390 . S
C1287 C1286 1.387 . S
C1287 C1289 1.387 . S
H1288 C1295 0.950 . S
C1289 C1287 1.387 . S
C1289 C1291 1.390 . S
C1289 H1293 0.950 . S
H1290 C1286 0.950 . S
C1291 C1289 1.390 . S
C1291 C1292 1.387 . S
C1291 H1294 0.950 . S
C1292 C1291 1.387 . S
C1292 C1295 1.387 . S
H1293 C1289 0.950 . S
H1294 C1291 0.950 . S
C1295 C1286 1.390 . S
C1295 H1288 0.950 . S
C1295 C1292 1.387 . S
C1296 C1297 1.387 . S
C1296 H1300 0.950 . S
C1296 C1305 1.390 . S
C1297 C1296 1.387 . S
C1297 C1299 1.387 . S
H1298 C1305 0.950 . S
C1299 C1297 1.387 . S
C1299 C1301 1.390 . S
C1299 H1303 0.950 . S
H1300 C1296 0.950 . S
C1301 C1299 1.390 . S
C1301 C1302 1.387 . S
C1301 H1304 0.950 . S
C1302 C1301 1.387 . S
C1302 C1305 1.387 . S
H1303 C1299 0.950 . S
H1304 C1301 0.950 . S
C1305 C1296 1.390 . S
C1305 H1298 0.950 . S
C1305 C1302 1.387 . S
C1306 C1307 1.387 . S
C1306 H1310 0.950 . S
C1306 C1315 1.390 . S
C1307 C1306 1.387 . S
C1307 C1309 1.387 . S
H1308 C1315 0.950 . S
C1309 C1307 1.387 . S
C1309 C1311 1.390 . S
C1309 H1313 0.950 . S
H1310 C1306 0.950 . S
C1311 C1309 1.390 . S
C1311 C1312 1.387 . S
C1311 H1314 0.950 . S
C1312 C1311 1.387 . S
C1312 C1315 1.387 . S
H1313 C1309 0.950 . S
H1314 C1311 0.950 . S
C1315 C1306 1.390 . S
C1315 H1308 0.950 . S
C1315 C1312 1.387 . S
C1316 C1317 1.387 . S
C1316 H1320 0.950 . S
C1316 C1325 1.390 . S
C1317 C1316 1.387 . S
C1317 C1319 1.387 . S
H1318 C1325 0.950 . S
C1319 C1317 1.387 . S
C1319 C1321 1.390 . S
C1319 H1323 0.950 . S
H1320 C1316 0.950 . S
C1321 C1319 1.390 . S
C1321 C1322 1.387 . S
C1321 H1324 0.950 . S
C1322 C1321 1.387 . S
C1322 C1325 1.387 . S
H1323 C1319 0.950 . S
H1324 C1321 0.950 . S
C1325 C1316 1.390 . S
C1325 H1318 0.950 . S
C1325 C1322 1.387 . S
C1326 C1327 1.387 . S
C1326 H1330 0.950 . S
C1326 C1335 1.390 . S
C1327 C1326 1.387 . S
C1327 C1329 1.387 . S
H1328 C1335 0.950 . S
C1329 C1327 1.387 . S
C1329 C1331 1.390 . S
C1329 H1333 0.950 . S
H1330 C1326 0.950 . S
C1331 C1329 1.390 . S
C1331 C1332 1.387 . S
C1331 H1334 0.950 . S
C1332 C1331 1.387 . S
C1332 C1335 1.387 . S
H1333 C1329 0.950 . S
H1334 C1331 0.950 . S
C1335 C1326 1.390 . S
C1335 H1328 0.950 . S
C1335 C1332 1.387 . S
C1336 C1337 1.387 . S
C1336 H1340 0.950 . S
C1336 C1345 1.390 . S
C1337 C1336 1.387 . S
C1337 C1339 1.387 . S
H1338 C1345 0.950 . S
C1339 C1337 1.387 . S
C1339 C1341 1.390 . S
C1339 H1343 0.950 . S
H1340 C1336 0.950 . S
C1341 C1339 1.390 . S
C1341 C1342 1.387 . S
C1341 H1344 0.950 . S
C1342 C1341 1.387 . S
C1342 C1345 1.387 . S
H1343 C1339 0.950 . S
H1344 C1341 0.950 . S
C1345 C1336 1.390 . S
C1345 H1338 0.950 . S
C1345 C1342 1.387 . S
C1346 C1347 1.387 . S
C1346 H1350 0.950 . S
C1346 C1355 1.390 . S
C1347 C1346 1.387 . S
C1347 C1349 1.387 . S
H1348 C1355 0.950 . S
C1349 C1347 1.387 . S
C1349 C1351 1.390 . S
C1349 H1353 0.950 . S
H1350 C1346 0.950 . S
C1351 C1349 1.390 . S
C1351 C1352 1.387 . S
C1351 H1354 0.950 . S
C1352 C1351 1.387 . S
C1352 C1355 1.387 . S
H1353 C1349 0.950 . S
H1354 C1351 0.950 . S
C1355 C1346 1.390 . S
C1355 H1348 0.950 . S
C1355 C1352 1.387 . S
C1356 C1357 1.387 . S
C1356 H1360 0.950 . S
C1356 C1365 1.390 . S
C1357 C1356 1.387 . S
C1357 C1359 1.387 . S
H1358 C1365 0.950 . S
C1359 C1357 1.387 . S
C1359 C1361 1.390 . S
C1359 H1363 0.950 . S
H1360 C1356 0.950 . S
C1361 C1359 1.390 . S
C1361 C1362 1.387 . S
C1361 H1364 0.950 . S
C1362 C1361 1.387 . S
C1362 C1365 1.387 . S
H1363 C1359 0.950 . S
H1364 C1361 0.950 . S
C1365 C1356 1.390 . S
C1365 H1358 0.950 . S
C1365 C1362 1.387 . S
C1366 C1367 1.387 . S
C1366 H1370 0.950 . S
C1366 C1375 1.390 . S
C1367 C1366 1.387 . S
C1367 C1369 1.387 . S
H1368 C1375 0.950 . S
C1369 C1367 1.387 . S
C1369 C1371 1.390 . S
C1369 H1373 0.950 . S
H1370 C1366 0.950 . S
C1371 C1369 1.390 . S
C1371 C1372 1.387 . S
C1371 H1374 0.950 . S
C1372 C1371 1.387 . S
C1372 C1375 1.387 . S
H1373 C1369 0.950 . S
H1374 C1371 0.950 . S
C1375 C1366 1.390 . S
C1375 H1368 0.950 . S
C1375 C1372 1.387 . S
C1376 C1377 1.387 . S
C1376 H1380 0.950 . S
C1376 C1385 1.390 . S
C1377 C1376 1.387 . S
C1377 C1379 1.387 . S
H1378 C1385 0.950 . S
C1379 C1377 1.387 . S
C1379 C1381 1.390 . S
C1379 H1383 0.950 . S
H1380 C1376 0.950 . S
C1381 C1379 1.390 . S
C1381 C1382 1.387 . S
C1381 H1384 0.950 . S
C1382 C1381 1.387 . S
C1382 C1385 1.387 . S
H1383 C1379 0.950 . S
H1384 C1381 0.950 . S
C1385 C1376 1.390 . S
C1385 H1378 0.950 . S
C1385 C1382 1.387 . S
C1386 C1387 1.387 . S
C1386 H1390 0.950 . S
C1386 C1395 1.390 . S
C1387 C1386 1.387 . S
C1387 C1389 1.387 . S
H1388 C1395 0.950 . S
C1389 C1387 1.387 . S
C1389 C1391 1.390 . S
C1389 H1393 0.950 . S
H1390 C1386 0.950 . S
C1391 C1389 1.390 . S
C1391 C1392 1.387 . S
C1391 H1394 0.950 . S
C1392 C1391 1.387 . S
C1392 C1395 1.387 . S
H1393 C1389 0.950 . S
H1394 C1391 0.950 . S
C1395 C1386 1.390 . S
C1395 H1388 0.950 . S
C1395 C1392 1.387 . S
C1396 C1397 1.387 . S
C1396 H1400 0.950 . S
C1396 C1405 1.390 . S
C1397 C1396 1.387 . S
C1397 C1399 1.387 . S
H1398 C1405 0.950 . S
C1399 C1397 1.387 . S
C1399 C1401 1.390 . S
C1399 H1403 0.950 . S
H1400 C1396 0.950 . S
C1401 C1399 1.390 . S
C1401 C1402 1.387 . S
C1401 H1404 0.950 . S
C1402 C1401 1.387 . S
C1402 C1405 1.387 . S
H1403 C1399 0.950 . S
H1404 C1401 0.950 . S
C1405 C1396 1.390 . S
C1405 H1398 0.950 . S
C1405 C1402 1.387 . S
C1406 C1407 1.387 . S
C1406 H1410 0.950 . S
C1406 C1415 1.390 . S
C1407 C1406 1.387 . S
C1407 C1409 1.387 . S
H1408 C1415 0.950 . S
C1409 C1407 1.387 . S
C1409 C1411 1.390 . S
C1409 H1413 0.950 . S
H1410 C1406 0.950 . S
C1411 C1409 1.390 . S
C1411 C1412 1.387 . S
C1411 H1414 0.950 . S
C1412 C1411 1.387 . S
C1412 C1415 1.387 . S
H1413 C1409 0.950 . S
H1414 C1411 0.950 . S
C1415 C1406 1.390 . S
C1415 H1408 0.950 . S
C1415 C1412 1.387 . S
C1416 C1417 1.387 . S
C1416 H1420 0.950 . S
C1416 C1425 1.390 . S
C1417 C1416 1.387 . S
C1417 C1419 1.387 . S
H1418 C1425 0.950 . S
C1419 C1417 1.387 . S
C1419 C1421 1.390 . S
C1419 H1423 0.950 1_556 S
H1420 C1416 0.950 . S
C1421 C1419 1.390 . S
C1421 C1422 1.387 . S
C1421 H1424 0.950 1_556 S
C1422 C1421 1.387 . S
C1422 C1425 1.387 . S
H1423 C1419 0.950 1_554 S
H1424 C1421 0.950 1_554 S
C1425 C1416 1.390 . S
C1425 H1418 0.950 . S
C1425 C1422 1.387 . S
C1426 C1427 1.387 . S
C1426 H1430 0.950 . S
C1426 C1435 1.390 . S
C1427 C1426 1.387 . S
C1427 C1429 1.387 . S
H1428 C1435 0.950 . S
C1429 C1427 1.387 . S
C1429 C1431 1.390 . S
C1429 H1433 0.950 . S
H1430 C1426 0.950 . S
C1431 C1429 1.390 . S
C1431 C1432 1.387 . S
C1431 H1434 0.950 . S
C1432 C1431 1.387 . S
C1432 C1435 1.387 . S
H1433 C1429 0.950 . S
H1434 C1431 0.950 . S
C1435 C1426 1.390 . S
C1435 H1428 0.950 . S
C1435 C1432 1.387 . S
C1436 C1437 1.387 . S
C1436 H1440 0.950 . S
C1436 C1445 1.390 . S
C1437 C1436 1.387 . S
C1437 C1439 1.387 . S
H1438 C1445 0.950 . S
C1439 C1437 1.387 . S
C1439 C1441 1.390 . S
C1439 H1443 0.950 1_554 S
H1440 C1436 0.950 . S
C1441 C1439 1.390 . S
C1441 C1442 1.387 . S
C1441 H1444 0.950 1_554 S
C1442 C1441 1.387 . S
C1442 C1445 1.387 . S
H1443 C1439 0.950 1_556 S
H1444 C1441 0.950 1_556 S
C1445 C1436 1.390 . S
C1445 H1438 0.950 . S
C1445 C1442 1.387 . S
C1446 C1447 1.387 . S
C1446 H1450 0.950 . S
C1446 C1455 1.390 . S
C1447 C1446 1.387 . S
C1447 C1449 1.387 . S
H1448 C1455 0.950 . S
C1449 C1447 1.387 . S
C1449 C1451 1.390 . S
C1449 H1453 0.950 . S
H1450 C1446 0.950 . S
C1451 C1449 1.390 . S
C1451 C1452 1.387 . S
C1451 H1454 0.950 . S
C1452 C1451 1.387 . S
C1452 C1455 1.387 . S
H1453 C1449 0.950 . S
H1454 C1451 0.950 . S
C1455 C1446 1.390 . S
C1455 H1448 0.950 . S
C1455 C1452 1.387 . S
C1456 C1457 1.387 . S
C1456 H1460 0.950 1_556 S
C1456 C1465 1.390 . S
C1457 C1456 1.387 . S
C1457 C1459 1.387 . S
H1458 C1465 0.950 1_554 S
C1459 C1457 1.387 . S
C1459 C1461 1.390 . S
C1459 H1463 0.950 . S
H1460 C1456 0.950 1_554 S
C1461 C1459 1.390 . S
C1461 C1462 1.387 . S
C1461 H1464 0.950 . S
C1462 C1461 1.387 . S
C1462 C1465 1.387 . S
H1463 C1459 0.950 . S
H1464 C1461 0.950 . S
C1465 C1456 1.390 . S
C1465 H1458 0.950 1_556 S
C1465 C1462 1.387 . S
C1466 C1467 1.387 . S
C1466 H1470 0.950 . S
C1466 C1475 1.390 . S
C1467 C1466 1.387 . S
C1467 C1469 1.387 . S
H1468 C1475 0.950 . S
C1469 C1467 1.387 . S
C1469 C1471 1.390 . S
C1469 H1473 0.950 . S
H1470 C1466 0.950 . S
C1471 C1469 1.390 . S
C1471 C1472 1.387 . S
C1471 H1474 0.950 . S
C1472 C1471 1.387 . S
C1472 C1475 1.387 . S
H1473 C1469 0.950 . S
H1474 C1471 0.950 . S
C1475 C1466 1.390 . S
C1475 H1468 0.950 . S
C1475 C1472 1.387 . S
C1476 C1477 1.387 . S
C1476 H1480 0.950 1_554 S
C1476 C1485 1.390 . S
C1477 C1476 1.387 . S
C1477 C1479 1.387 . S
H1478 C1485 0.950 1_556 S
C1479 C1477 1.387 . S
C1479 C1481 1.390 . S
C1479 H1483 0.950 . S
H1480 C1476 0.950 1_556 S
C1481 C1479 1.390 . S
C1481 C1482 1.387 . S
C1481 H1484 0.950 . S
C1482 C1481 1.387 . S
C1482 C1485 1.387 . S
H1483 C1479 0.950 . S
H1484 C1481 0.950 . S
C1485 C1476 1.390 . S
C1485 H1478 0.950 1_554 S
C1485 C1482 1.387 . S
C1486 C1487 1.387 . S
C1486 H1490 0.950 . S
C1486 C1495 1.390 . S
C1487 C1486 1.387 . S
C1487 C1489 1.387 . S
H1488 C1495 0.950 . S
C1489 C1487 1.387 . S
C1489 C1491 1.390 . S
C1489 H1493 0.950 . S
H1490 C1486 0.950 . S
C1491 C1489 1.390 . S
C1491 C1492 1.387 . S
C1491 H1494 0.950 . S
C1492 C1491 1.387 . S
C1492 C1495 1.387 . S
H1493 C1489 0.950 . S
H1494 C1491 0.950 . S
C1495 C1486 1.390 . S
C1495 H1488 0.950 . S
C1495 C1492 1.387 . S
C1496 C1497 1.387 . S
C1496 H1500 0.950 . S
C1496 C1505 1.390 . S
C1497 C1496 1.387 . S
C1497 C1499 1.387 . S
H1498 C1505 0.950 . S
C1499 C1497 1.387 . S
C1499 C1501 1.390 . S
C1499 H1503 0.950 . S
H1500 C1496 0.950 . S
C1501 C1499 1.390 . S
C1501 C1502 1.387 . S
C1501 H1504 0.950 . S
C1502 C1501 1.387 . S
C1502 C1505 1.387 . S
H1503 C1499 0.950 . S
H1504 C1501 0.950 . S
C1505 C1496 1.390 . S
C1505 H1498 0.950 . S
C1505 C1502 1.387 . S
C1506 C1507 1.387 . S
C1506 H1510 0.950 . S
C1506 C1515 1.390 . S
C1507 C1506 1.387 . S
C1507 C1509 1.387 . S
H1508 C1515 0.950 . S
C1509 C1507 1.387 . S
C1509 C1511 1.390 . S
C1509 H1513 0.950 . S
H1510 C1506 0.950 . S
C1511 C1509 1.390 . S
C1511 C1512 1.387 . S
C1511 H1514 0.950 . S
C1512 C1511 1.387 . S
C1512 C1515 1.387 . S
H1513 C1509 0.950 . S
H1514 C1511 0.950 . S
C1515 C1506 1.390 . S
C1515 H1508 0.950 . S
C1515 C1512 1.387 . S
C1516 C1517 1.387 . S
C1516 H1520 0.950 . S
C1516 C1525 1.390 . S
C1517 C1516 1.387 . S
C1517 C1519 1.387 . S
H1518 C1525 0.950 . S
C1519 C1517 1.387 . S
C1519 C1521 1.390 . S
C1519 H1523 0.950 . S
H1520 C1516 0.950 . S
C1521 C1519 1.390 . S
C1521 C1522 1.387 . S
C1521 H1524 0.950 . S
C1522 C1521 1.387 . S
C1522 C1525 1.387 . S
H1523 C1519 0.950 . S
H1524 C1521 0.950 . S
C1525 C1516 1.390 . S
C1525 H1518 0.950 . S
C1525 C1522 1.387 . S
C1526 C1527 1.387 . S
C1526 H1530 0.950 . S
C1526 C1535 1.390 . S
C1527 C1526 1.387 . S
C1527 C1529 1.387 . S
H1528 C1535 0.950 . S
C1529 C1527 1.387 . S
C1529 C1531 1.390 . S
C1529 H1533 0.950 . S
H1530 C1526 0.950 . S
C1531 C1529 1.390 . S
C1531 C1532 1.387 . S
C1531 H1534 0.950 . S
C1532 C1531 1.387 . S
C1532 C1535 1.387 . S
H1533 C1529 0.950 . S
H1534 C1531 0.950 . S
C1535 C1526 1.390 . S
C1535 H1528 0.950 . S
C1535 C1532 1.387 . S
C1536 C1537 1.387 . S
C1536 H1540 0.950 . S
C1536 C1545 1.390 . S
C1537 C1536 1.387 . S
C1537 C1539 1.387 1_655 S
H1538 C1545 0.950 . S
C1539 C1537 1.387 1_455 S
C1539 C1541 1.390 . S
C1539 H1543 0.950 . S
H1540 C1536 0.950 . S
C1541 C1539 1.390 . S
C1541 C1542 1.387 . S
C1541 H1544 0.950 . S
C1542 C1541 1.387 . S
C1542 C1545 1.387 1_455 S
H1543 C1539 0.950 . S
H1544 C1541 0.950 . S
C1545 C1536 1.390 . S
C1545 H1538 0.950 . S
C1545 C1542 1.387 1_655 S
C1546 C1547 1.387 1_545 S
C1546 H1550 0.950 . S
C1546 C1555 1.390 . S
C1547 C1546 1.387 1_565 S
C1547 C1549 1.387 . S
H1548 C1555 0.950 . S
C1549 C1547 1.387 . S
C1549 C1551 1.390 . S
C1549 H1553 0.950 . S
H1550 C1546 0.950 . S
C1551 C1549 1.390 . S
C1551 C1552 1.387 1_565 S
C1551 H1554 0.950 . S
C1552 C1551 1.387 1_545 S
C1552 C1555 1.387 . S
H1553 C1549 0.950 . S
H1554 C1551 0.950 . S
C1555 C1546 1.390 . S
C1555 H1548 0.950 . S
C1555 C1552 1.387 . S
C1556 C1557 1.387 1_554 S
C1556 H1560 0.950 . S
C1556 C1565 1.390 1_455 S
C1557 C1556 1.387 1_556 S
C1557 C1559 1.387 1_545 S
H1558 C1565 0.950 . S
C1559 C1557 1.387 1_565 S
C1559 C1561 1.390 1_455 S
C1559 H1563 0.950 . S
H1560 C1556 0.950 . S
C1561 C1559 1.390 1_655 S
C1561 C1562 1.387 1_556 S
C1561 H1564 0.950 . S
C1562 C1561 1.387 1_554 S
C1562 C1565 1.387 1_565 S
H1563 C1559 0.950 . S
H1564 C1561 0.950 . S
C1565 C1556 1.390 1_655 S
C1565 H1558 0.950 . S
C1565 C1562 1.387 1_545 S
C1566 C1567 1.387 1_556 S
C1566 H1570 0.950 . S
C1566 C1575 1.390 . S
C1567 C1566 1.387 1_554 S
C1567 C1569 1.387 . S
H1568 C1575 0.950 . S
C1569 C1567 1.387 . S
C1569 C1571 1.390 . S
C1569 H1573 0.950 . S
H1570 C1566 0.950 . S
C1571 C1569 1.390 . S
C1571 C1572 1.387 1_554 S
C1571 H1574 0.950 . S
C1572 C1571 1.387 1_556 S
C1572 C1575 1.387 . S
H1573 C1569 0.950 . S
H1574 C1571 0.950 . S
C1575 C1566 1.390 . S
C1575 H1568 0.950 . S
C1575 C1572 1.387 . S
C1576 C1577 1.387 . S
C1576 H1580 0.950 . S
C1576 C1585 1.390 1_455 S
C1577 C1576 1.387 . S
C1577 C1579 1.387 . S
H1578 C1585 0.950 . S
C1579 C1577 1.387 . S
C1579 C1581 1.390 1_455 S
C1579 H1583 0.950 . S
H1580 C1576 0.950 . S
C1581 C1579 1.390 1_655 S
C1581 C1582 1.387 . S
C1581 H1584 0.950 . S
C1582 C1581 1.387 . S
C1582 C1585 1.387 . S
H1583 C1579 0.950 . S
H1584 C1581 0.950 . S
C1585 C1576 1.390 1_655 S
C1585 H1578 0.950 . S
C1585 C1582 1.387 . S
C1586 C1587 1.387 . S
C1586 H1590 0.950 . S
C1586 C1595 1.390 1_545 S
C1587 C1586 1.387 . S
C1587 C1589 1.387 . S
H1588 C1595 0.950 . S
C1589 C1587 1.387 . S
C1589 C1591 1.390 1_545 S
C1589 H1593 0.950 . S
H1590 C1586 0.950 . S
C1591 C1589 1.390 1_565 S
C1591 C1592 1.387 . S
C1591 H1594 0.950 . S
C1592 C1591 1.387 . S
C1592 C1595 1.387 . S
H1593 C1589 0.950 . S
H1594 C1591 0.950 . S
C1595 C1586 1.390 1_565 S
C1595 H1588 0.950 . S
C1595 C1592 1.387 . S
C1596 C1597 1.387 1_554 S
C1596 H1600 0.950 . S
C1596 C1605 1.390 . S
C1597 C1596 1.387 1_556 S
C1597 C1599 1.387 . S
H1598 C1605 0.950 . S
C1599 C1597 1.387 . S
C1599 C1601 1.390 . S
C1599 H1603 0.950 . S
H1600 C1596 0.950 . S
C1601 C1599 1.390 . S
C1601 C1602 1.387 1_556 S
C1601 H1604 0.950 . S
C1602 C1601 1.387 1_554 S
C1602 C1605 1.387 . S
H1603 C1599 0.950 . S
H1604 C1601 0.950 . S
C1605 C1596 1.390 . S
C1605 H1598 0.950 . S
C1605 C1602 1.387 . S
C1606 C1607 1.387 . S
C1606 H1610 0.950 . S
C1606 C1615 1.390 . S
C1607 C1606 1.387 . S
C1607 C1609 1.387 . S
H1608 C1615 0.950 . S
C1609 C1607 1.387 . S
C1609 C1611 1.390 . S
C1609 H1613 0.950 . S
H1610 C1606 0.950 . S
C1611 C1609 1.390 . S
C1611 C1612 1.387 . S
C1611 H1614 0.950 . S
C1612 C1611 1.387 . S
C1612 C1615 1.387 . S
H1613 C1609 0.950 . S
H1614 C1611 0.950 . S
C1615 C1606 1.390 . S
C1615 H1608 0.950 . S
C1615 C1612 1.387 . S
C1616 C1617 1.387 . S
C1616 H1620 0.950 . S
C1616 C1625 1.390 1_655 S
C1617 C1616 1.387 . S
C1617 C1619 1.387 . S
H1618 C1625 0.950 . S
C1619 C1617 1.387 . S
C1619 C1621 1.390 1_655 S
C1619 H1623 0.950 . S
H1620 C1616 0.950 . S
C1621 C1619 1.390 1_455 S
C1621 C1622 1.387 . S
C1621 H1624 0.950 . S
C1622 C1621 1.387 . S
C1622 C1625 1.387 . S
H1623 C1619 0.950 . S
H1624 C1621 0.950 . S
C1625 C1616 1.390 1_455 S
C1625 H1618 0.950 . S
C1625 C1622 1.387 . S
C1626 C1627 1.387 . S
C1626 H1630 0.950 . S
C1626 C1635 1.390 . S
C1627 C1626 1.387 . S
C1627 C1629 1.387 . S
H1628 C1635 0.950 . S
C1629 C1627 1.387 . S
C1629 C1631 1.390 . S
C1629 H1633 0.950 . S
H1630 C1626 0.950 . S
C1631 C1629 1.390 . S
C1631 C1632 1.387 . S
C1631 H1634 0.950 . S
C1632 C1631 1.387 . S
C1632 C1635 1.387 . S
H1633 C1629 0.950 . S
H1634 C1631 0.950 . S
C1635 C1626 1.390 . S
C1635 H1628 0.950 . S
C1635 C1632 1.387 . S
C1636 C1637 1.387 . S
C1636 H1640 0.950 . S
C1636 C1645 1.390 . S
C1637 C1636 1.387 . S
C1637 C1639 1.387 . S
H1638 C1645 0.950 . S
C1639 C1637 1.387 . S
C1639 C1641 1.390 . S
C1639 H1643 0.950 . S
H1640 C1636 0.950 . S
C1641 C1639 1.390 . S
C1641 C1642 1.387 . S
C1641 H1644 0.950 . S
C1642 C1641 1.387 . S
C1642 C1645 1.387 . S
H1643 C1639 0.950 . S
H1644 C1641 0.950 . S
C1645 C1636 1.390 . S
C1645 H1638 0.950 . S
C1645 C1642 1.387 . S
C1646 C1647 1.387 . S
C1646 H1650 0.950 . S
C1646 C1655 1.390 . S
C1647 C1646 1.387 . S
C1647 C1649 1.387 . S
H1648 C1655 0.950 . S
C1649 C1647 1.387 . S
C1649 C1651 1.390 . S
C1649 H1653 0.950 . S
H1650 C1646 0.950 . S
C1651 C1649 1.390 . S
C1651 C1652 1.387 . S
C1651 H1654 0.950 . S
C1652 C1651 1.387 . S
C1652 C1655 1.387 . S
H1653 C1649 0.950 . S
H1654 C1651 0.950 . S
C1655 C1646 1.390 . S
C1655 H1648 0.950 . S
C1655 C1652 1.387 . S
C1656 C1657 1.387 . S
C1656 H1660 0.950 . S
C1656 C1665 1.390 . S
C1657 C1656 1.387 . S
C1657 C1659 1.387 . S
H1658 C1665 0.950 . S
C1659 C1657 1.387 . S
C1659 C1661 1.390 . S
C1659 H1663 0.950 . S
H1660 C1656 0.950 . S
C1661 C1659 1.390 . S
C1661 C1662 1.387 . S
C1661 H1664 0.950 . S
C1662 C1661 1.387 . S
C1662 C1665 1.387 . S
H1663 C1659 0.950 . S
H1664 C1661 0.950 . S
C1665 C1656 1.390 . S
C1665 H1658 0.950 . S
C1665 C1662 1.387 . S
C1666 C1667 1.387 1_565 S
C1666 H1670 0.950 . S
C1666 C1675 1.390 . S
C1667 C1666 1.387 1_545 S
C1667 C1669 1.387 . S
H1668 C1675 0.950 . S
C1669 C1667 1.387 . S
C1669 C1671 1.390 . S
C1669 H1673 0.950 . S
H1670 C1666 0.950 . S
C1671 C1669 1.390 . S
C1671 C1672 1.387 1_545 S
C1671 H1674 0.950 . S
C1672 C1671 1.387 1_565 S
C1672 C1675 1.387 . S
H1673 C1669 0.950 . S
H1674 C1671 0.950 . S
C1675 C1666 1.390 . S
C1675 H1668 0.950 . S
C1675 C1672 1.387 . S
C1676 C1677 1.387 . S
C1676 H1680 0.950 . S
C1676 C1685 1.390 . S
C1677 C1676 1.387 . S
C1677 C1679 1.387 . S
H1678 C1685 0.950 . S
C1679 C1677 1.387 . S
C1679 C1681 1.390 . S
C1679 H1683 0.950 . S
H1680 C1676 0.950 . S
C1681 C1679 1.390 . S
C1681 C1682 1.387 . S
C1681 H1684 0.950 . S
C1682 C1681 1.387 . S
C1682 C1685 1.387 . S
H1683 C1679 0.950 . S
H1684 C1681 0.950 . S
C1685 C1676 1.390 . S
C1685 H1678 0.950 . S
C1685 C1682 1.387 . S
C1686 C1687 1.387 1_556 S
C1686 H1690 0.950 . S
C1686 C1695 1.390 . S
C1687 C1686 1.387 1_554 S
C1687 C1689 1.387 . S
H1688 C1695 0.950 . S
C1689 C1687 1.387 . S
C1689 C1691 1.390 . S
C1689 H1693 0.950 . S
H1690 C1686 0.950 . S
C1691 C1689 1.390 . S
C1691 C1692 1.387 1_554 S
C1691 H1694 0.950 . S
C1692 C1691 1.387 1_556 S
C1692 C1695 1.387 . S
H1693 C1689 0.950 . S
H1694 C1691 0.950 . S
C1695 C1686 1.390 . S
C1695 H1688 0.950 . S
C1695 C1692 1.387 . S
C1696 C1697 1.387 . S
C1696 H1700 0.950 . S
C1696 C1705 1.390 . S
C1697 C1696 1.387 . S
C1697 C1699 1.387 . S
H1698 C1705 0.950 . S
C1699 C1697 1.387 . S
C1699 C1701 1.390 . S
C1699 H1703 0.950 . S
H1700 C1696 0.950 . S
C1701 C1699 1.390 . S
C1701 C1702 1.387 . S
C1701 H1704 0.950 . S
C1702 C1701 1.387 . S
C1702 C1705 1.387 . S
H1703 C1699 0.950 . S
H1704 C1701 0.950 . S
C1705 C1696 1.390 . S
C1705 H1698 0.950 . S
C1705 C1702 1.387 . S
C1706 C1707 1.387 . S
C1706 H1710 0.950 . S
C1706 C1715 1.390 . S
C1707 C1706 1.387 . S
C1707 C1709 1.387 . S
H1708 C1715 0.950 . S
C1709 C1707 1.387 . S
C1709 C1711 1.390 . S
C1709 H1713 0.950 . S
H1710 C1706 0.950 . S
C1711 C1709 1.390 . S
C1711 C1712 1.387 . S
C1711 H1714 0.950 . S
C1712 C1711 1.387 . S
C1712 C1715 1.387 . S
H1713 C1709 0.950 . S
H1714 C1711 0.950 . S
C1715 C1706 1.390 . S
C1715 H1708 0.950 . S
C1715 C1712 1.387 . S
C1716 C1717 1.387 . S
C1716 H1720 0.950 . S
C1716 C1725 1.390 . S
C1717 C1716 1.387 . S
C1717 C1719 1.387 . S
H1718 C1725 0.950 . S
C1719 C1717 1.387 . S
C1719 C1721 1.390 . S
C1719 H1723 0.950 . S
H1720 C1716 0.950 . S
C1721 C1719 1.390 . S
C1721 C1722 1.387 . S
C1721 H1724 0.950 . S
C1722 C1721 1.387 . S
C1722 C1725 1.387 . S
H1723 C1719 0.950 . S
H1724 C1721 0.950 . S
C1725 C1716 1.390 . S
C1725 H1718 0.950 . S
C1725 C1722 1.387 . S
C1726 C1727 1.387 . S
C1726 H1730 0.950 . S
C1726 C1735 1.390 . S
C1727 C1726 1.387 . S
C1727 C1729 1.387 . S
H1728 C1735 0.950 . S
C1729 C1727 1.387 . S
C1729 C1731 1.390 . S
C1729 H1733 0.950 . S
H1730 C1726 0.950 . S
C1731 C1729 1.390 . S
C1731 C1732 1.387 . S
C1731 H1734 0.950 . S
C1732 C1731 1.387 . S
C1732 C1735 1.387 . S
H1733 C1729 0.950 . S
H1734 C1731 0.950 . S
C1735 C1726 1.390 . S
C1735 H1728 0.950 . S
C1735 C1732 1.387 . S
C1736 C1737 1.387 . S
C1736 H1740 0.950 . S
C1736 C1745 1.390 . S
C1737 C1736 1.387 . S
C1737 C1739 1.387 . S
H1738 C1745 0.950 . S
C1739 C1737 1.387 . S
C1739 C1741 1.390 . S
C1739 H1743 0.950 . S
H1740 C1736 0.950 . S
C1741 C1739 1.390 . S
C1741 C1742 1.387 . S
C1741 H1744 0.950 . S
C1742 C1741 1.387 . S
C1742 C1745 1.387 . S
H1743 C1739 0.950 . S
H1744 C1741 0.950 . S
C1745 C1736 1.390 . S
C1745 H1738 0.950 . S
C1745 C1742 1.387 . S
C1746 C1747 1.387 . S
C1746 H1750 0.950 . S
C1746 C1755 1.390 . S
C1747 C1746 1.387 . S
C1747 C1749 1.387 . S
H1748 C1755 0.950 . S
C1749 C1747 1.387 . S
C1749 C1751 1.390 . S
C1749 H1753 0.950 . S
H1750 C1746 0.950 . S
C1751 C1749 1.390 . S
C1751 C1752 1.387 . S
C1751 H1754 0.950 . S
C1752 C1751 1.387 . S
C1752 C1755 1.387 . S
H1753 C1749 0.950 . S
H1754 C1751 0.950 . S
C1755 C1746 1.390 . S
C1755 H1748 0.950 . S
C1755 C1752 1.387 . S
C1756 C1757 1.387 . S
C1756 H1760 0.950 . S
C1756 C1765 1.390 . S
C1757 C1756 1.387 . S
C1757 C1759 1.387 . S
H1758 C1765 0.950 . S
C1759 C1757 1.387 . S
C1759 C1761 1.390 . S
C1759 H1763 0.950 . S
H1760 C1756 0.950 . S
C1761 C1759 1.390 . S
C1761 C1762 1.387 . S
C1761 H1764 0.950 . S
C1762 C1761 1.387 . S
C1762 C1765 1.387 . S
H1763 C1759 0.950 . S
H1764 C1761 0.950 . S
C1765 C1756 1.390 . S
C1765 H1758 0.950 . S
C1765 C1762 1.387 . S
C1766 C1767 1.387 . S
C1766 H1770 0.950 . S
C1766 C1775 1.390 . S
C1767 C1766 1.387 . S
C1767 C1769 1.387 . S
H1768 C1775 0.950 . S
C1769 C1767 1.387 . S
C1769 C1771 1.390 . S
C1769 H1773 0.950 . S
H1770 C1766 0.950 . S
C1771 C1769 1.390 . S
C1771 C1772 1.387 . S
C1771 H1774 0.950 . S
C1772 C1771 1.387 . S
C1772 C1775 1.387 . S
H1773 C1769 0.950 . S
H1774 C1771 0.950 . S
C1775 C1766 1.390 . S
C1775 H1768 0.950 . S
C1775 C1772 1.387 . S
C1776 C1777 1.387 . S
C1776 H1780 0.950 . S
C1776 C1785 1.390 . S
C1777 C1776 1.387 . S
C1777 C1779 1.387 . S
H1778 C1785 0.950 . S
C1779 C1777 1.387 . S
C1779 C1781 1.390 . S
C1779 H1783 0.950 . S
H1780 C1776 0.950 . S
C1781 C1779 1.390 . S
C1781 C1782 1.387 . S
C1781 H1784 0.950 . S
C1782 C1781 1.387 . S
C1782 C1785 1.387 . S
H1783 C1779 0.950 . S
H1784 C1781 0.950 . S
C1785 C1776 1.390 . S
C1785 H1778 0.950 . S
C1785 C1782 1.387 . S
C1786 C1787 1.387 . S
C1786 H1790 0.950 . S
C1786 C1795 1.390 . S
C1787 C1786 1.387 . S
C1787 C1789 1.387 . S
H1788 C1795 0.950 . S
C1789 C1787 1.387 . S
C1789 C1791 1.390 . S
C1789 H1793 0.950 . S
H1790 C1786 0.950 . S
C1791 C1789 1.390 . S
C1791 C1792 1.387 . S
C1791 H1794 0.950 . S
C1792 C1791 1.387 . S
C1792 C1795 1.387 . S
H1793 C1789 0.950 . S
H1794 C1791 0.950 . S
C1795 C1786 1.390 . S
C1795 H1788 0.950 . S
C1795 C1792 1.387 . S
C1796 C1797 1.387 . S
C1796 H1800 0.950 . S
C1796 C1805 1.390 . S
C1797 C1796 1.387 . S
C1797 C1799 1.387 . S
H1798 C1805 0.950 . S
C1799 C1797 1.387 . S
C1799 C1801 1.390 . S
C1799 H1803 0.950 . S
H1800 C1796 0.950 . S
C1801 C1799 1.390 . S
C1801 C1802 1.387 . S
C1801 H1804 0.950 . S
C1802 C1801 1.387 . S
C1802 C1805 1.387 . S
H1803 C1799 0.950 . S
H1804 C1801 0.950 . S
C1805 C1796 1.390 . S
C1805 H1798 0.950 . S
C1805 C1802 1.387 . S
C1806 C1807 1.387 . S
C1806 H1810 0.950 . S
C1806 C1815 1.390 . S
C1807 C1806 1.387 . S
C1807 C1809 1.387 . S
H1808 C1815 0.950 . S
C1809 C1807 1.387 . S
C1809 C1811 1.390 . S
C1809 H1813 0.950 . S
H1810 C1806 0.950 . S
C1811 C1809 1.390 . S
C1811 C1812 1.387 . S
C1811 H1814 0.950 . S
C1812 C1811 1.387 . S
C1812 C1815 1.387 . S
H1813 C1809 0.950 . S
H1814 C1811 0.950 . S
C1815 C1806 1.390 . S
C1815 H1808 0.950 . S
C1815 C1812 1.387 . S
C1816 C1817 1.387 . S
C1816 H1820 0.950 . S
C1816 C1825 1.390 . S
C1817 C1816 1.387 . S
C1817 C1819 1.387 . S
H1818 C1825 0.950 . S
C1819 C1817 1.387 . S
C1819 C1821 1.390 . S
C1819 H1823 0.950 . S
H1820 C1816 0.950 . S
C1821 C1819 1.390 . S
C1821 C1822 1.387 . S
C1821 H1824 0.950 . S
C1822 C1821 1.387 . S
C1822 C1825 1.387 . S
H1823 C1819 0.950 . S
H1824 C1821 0.950 . S
C1825 C1816 1.390 . S
C1825 H1818 0.950 . S
C1825 C1822 1.387 . S
C1826 C1827 1.387 . S
C1826 H1830 0.950 . S
C1826 C1835 1.390 . S
C1827 C1826 1.387 . S
C1827 C1829 1.387 . S
H1828 C1835 0.950 . S
C1829 C1827 1.387 . S
C1829 C1831 1.390 . S
C1829 H1833 0.950 . S
H1830 C1826 0.950 . S
C1831 C1829 1.390 . S
C1831 C1832 1.387 . S
C1831 H1834 0.950 . S
C1832 C1831 1.387 . S
C1832 C1835 1.387 . S
H1833 C1829 0.950 . S
H1834 C1831 0.950 . S
C1835 C1826 1.390 . S
C1835 H1828 0.950 . S
C1835 C1832 1.387 . S
C1836 C1837 1.387 . S
C1836 H1840 0.950 . S
C1836 C1845 1.390 . S
C1837 C1836 1.387 . S
C1837 C1839 1.387 . S
H1838 C1845 0.950 . S
C1839 C1837 1.387 . S
C1839 C1841 1.390 . S
C1839 H1843 0.950 . S
H1840 C1836 0.950 . S
C1841 C1839 1.390 . S
C1841 C1842 1.387 . S
C1841 H1844 0.950 . S
C1842 C1841 1.387 . S
C1842 C1845 1.387 . S
H1843 C1839 0.950 . S
H1844 C1841 0.950 . S
C1845 C1836 1.390 . S
C1845 H1838 0.950 . S
C1845 C1842 1.387 . S
C1846 C1847 1.387 . S
C1846 H1850 0.950 . S
C1846 C1855 1.390 . S
C1847 C1846 1.387 . S
C1847 C1849 1.387 . S
H1848 C1855 0.950 . S
C1849 C1847 1.387 . S
C1849 C1851 1.390 . S
C1849 H1853 0.950 . S
H1850 C1846 0.950 . S
C1851 C1849 1.390 . S
C1851 C1852 1.387 . S
C1851 H1854 0.950 . S
C1852 C1851 1.387 . S
C1852 C1855 1.387 . S
H1853 C1849 0.950 . S
H1854 C1851 0.950 . S
C1855 C1846 1.390 . S
C1855 H1848 0.950 . S
C1855 C1852 1.387 . S
C1057 C106 1.173 . S
C1062 C7 1.173 . S
C1067 C40 1.173 . S
C1072 C73 1.173 . S
C1077 C139 1.173 . S
C1082 C238 1.173 . S
C1087 C172 1.173 . S
C1092 C205 1.173 . S
C1097 C370 1.173 . S
C1102 C271 1.173 . S
C1107 C304 1.173 . S
C1112 C337 1.173 . S
C1117 C502 1.173 . S
C1122 C403 1.173 . S
C1127 C436 1.173 . S
C1132 C469 1.173 . S
C1137 C535 1.173 . S
C1142 C634 1.173 . S
C1147 C601 1.173 . S
C1152 C568 1.173 . S
C1157 C766 1.173 . S
C1162 C667 1.173 . S
C1167 C733 1.173 . S
C1172 C700 1.173 . S
C1177 C898 1.173 . S
C1182 C799 1.173 . S
C1187 C865 1.173 . S
C1192 C832 1.173 . S
C1197 C1030 1.173 . S
C1202 C931 1.173 . S
C1207 C997 1.173 . S
C1212 C964 1.173 . S
C1217 C648 0.940 . S
C1222 C21 0.940 . S
C1227 C615 0.942 . S
C1232 C54 0.942 . S
C1237 C582 0.942 . S
C1242 C87 0.942 . S
C1247 C549 0.940 . S
C1252 C120 0.940 . S
C1257 C780 0.942 . S
C1262 C153 0.942 . S
C1267 C747 0.940 . S
C1272 C186 0.940 . S
C1277 C219 0.940 . S
C1282 C714 0.940 . S
C1287 C681 0.942 . S
C1292 C252 0.942 . S
C1297 C912 0.940 . S
C1302 C285 0.940 . S
C1307 C879 0.942 . S
C1312 C318 0.942 . S
C1317 C351 0.942 . S
C1322 C846 0.942 . S
C1327 C384 0.940 . S
C1332 C813 0.940 . S
C1337 C1044 0.942 . S
C1342 C417 0.942 . S
C1347 C1011 0.940 . S
C1352 C450 0.940 . S
C1357 C483 0.942 . S
C1362 C978 0.942 . S
C1367 C945 0.942 . S
C1372 C516 0.942 . S
C1377 N13 1.554 . S
C1382 N46 1.554 . S
C1387 N79 1.554 . S
C1392 N112 1.554 . S
C1397 N145 1.554 . S
C1402 N178 1.554 . S
C1407 N211 1.554 . S
C1412 N244 1.554 . S
C1417 N277 1.554 . S
C1422 N310 1.554 . S
C1427 N376 1.554 . S
C1432 N343 1.554 . S
C1437 N442 1.553 . S
C1442 N409 1.553 . S
C1447 N475 1.553 . S
C1452 N508 1.553 . S
C1457 N574 1.553 . S
C1462 N541 1.553 . S
C1467 N640 1.554 . S
C1472 N607 1.554 . S
C1477 N673 1.554 . S
C1482 N706 1.554 . S
C1487 N772 1.553 . S
C1492 N739 1.553 . S
C1497 N805 1.553 . S
C1502 N838 1.553 . S
C1507 N904 1.553 . S
C1512 N871 1.553 . S
C1517 N937 1.554 . S
C1522 N970 1.554 . S
C1527 N1003 1.553 . S
C1532 N1036 1.553 . S
C1537 N398 1.994 . S
C1542 N2 1.994 . S
C1547 N695 1.995 . S
C1552 N35 1.995 . S
C1557 N68 1.995 . S
C1562 N200 1.995 . S
C1567 N1025 1.993 . S
C1572 N101 1.993 . S
C1577 N266 1.994 . S
C1582 N134 1.994 . S
C1587 N563 1.995 . S
C1592 N167 1.995 . S
C1597 N893 1.995 . S
C1602 N233 1.995 . S
C1607 N299 1.995 . S
C1612 N959 1.995 . S
C1617 N464 1.993 . S
C1622 N332 1.993 . S
C1627 N761 1.995 . S
C1632 N365 1.995 . S
C1637 N431 1.995 . S
C1642 N827 1.995 . S
C1647 N497 1.993 . S
C1652 N629 1.993 . S
C1657 N926 1.994 . S
C1662 N530 1.994 . S
C1667 N596 1.994 . S
C1672 N728 1.994 . S
C1677 N662 1.995 . S
C1682 N794 1.995 . S
C1687 N992 1.994 . S
C1692 N860 1.994 . S
C1697 C18 1.461 . S
C1702 C117 1.461 . S
C1707 C51 1.461 . S
C1712 C84 1.461 . S
C1717 C249 1.461 . S
C1722 C150 1.461 . S
C1727 C183 1.461 . S
C1732 C216 1.461 . S
C1737 C282 1.460 1_554 S
C1742 C381 1.460 . S
C1747 C348 1.462 . S
C1752 C315 1.462 1_554 S
C1757 C414 1.461 1_556 S
C1762 C513 1.461 . S
C1767 C447 1.462 1_556 S
C1772 C480 1.462 . S
C1777 C546 1.461 1_554 S
C1782 C645 1.461 . S
C1787 C579 1.462 1_554 S
C1792 C612 1.462 . S
C1797 C678 1.461 1_556 S
C1802 C777 1.461 . S
C1807 C711 1.462 1_556 S
C1812 C744 1.462 . S
C1817 C810 1.461 . S
C1822 C909 1.461 . S
C1827 C876 1.461 . S
C1832 C843 1.461 . S
C1837 C942 1.461 . S
C1842 C1041 1.461 . S
C1847 C975 1.462 . S
C1852 C1008 1.462 . S
