# Generated by pormake.
# Topology smm, (6)-cn, num edge types: 1
# Building blocks:
#     Node 0, Type 0, BuildingBlock: VOLQOD_clean_sbu_1, # of connection points: 6
#     Node 1, Type 0, BuildingBlock: VOLQOD_clean_sbu_1, # of connection points: 6
#     Node 2, Type 0, BuildingBlock: VOLQOD_clean_sbu_1, # of connection points: 6
#     Node 3, Type 0, BuildingBlock: VOLQOD_clean_sbu_1, # of connection points: 6
#     Node 4, Type 0, BuildingBlock: VOLQOD_clean_sbu_1, # of connection points: 6
#     Node 5, Type 0, BuildingBlock: VOLQOD_clean_sbu_1, # of connection points: 6
#     Node 6, Type 0, BuildingBlock: VOLQOD_clean_sbu_1, # of connection points: 6
#     Node 7, Type 0, BuildingBlock: VOLQOD_clean_sbu_1, # of connection points: 6
#     Node 8, Type 0, BuildingBlock: VOLQOD_clean_sbu_1, # of connection points: 6
#     Edge 9, Type (0, 0), BuildingBlock: EZIPEK_clean_linker_0, # of connection points: 2
#     Edge 10, Type (0, 0), BuildingBlock: EZIPEK_clean_linker_0, # of connection points: 2
#     Edge 11, Type (0, 0), BuildingBlock: EZIPEK_clean_linker_0, # of connection points: 2
#     Edge 12, Type (0, 0), BuildingBlock: EZIPEK_clean_linker_0, # of connection points: 2
#     Edge 13, Type (0, 0), BuildingBlock: EZIPEK_clean_linker_0, # of connection points: 2
#     Edge 14, Type (0, 0), BuildingBlock: EZIPEK_clean_linker_0, # of connection points: 2
#     Edge 15, Type (0, 0), BuildingBlock: EZIPEK_clean_linker_0, # of connection points: 2
#     Edge 16, Type (0, 0), BuildingBlock: EZIPEK_clean_linker_0, # of connection points: 2
#     Edge 17, Type (0, 0), BuildingBlock: EZIPEK_clean_linker_0, # of connection points: 2
#     Edge 18, Type (0, 0), BuildingBlock: EZIPEK_clean_linker_0, # of connection points: 2
#     Edge 19, Type (0, 0), BuildingBlock: EZIPEK_clean_linker_0, # of connection points: 2
#     Edge 20, Type (0, 0), BuildingBlock: EZIPEK_clean_linker_0, # of connection points: 2
#     Edge 21, Type (0, 0), BuildingBlock: EZIPEK_clean_linker_0, # of connection points: 2
#     Edge 22, Type (0, 0), BuildingBlock: EZIPEK_clean_linker_0, # of connection points: 2
#     Edge 23, Type (0, 0), BuildingBlock: EZIPEK_clean_linker_0, # of connection points: 2
#     Edge 24, Type (0, 0), BuildingBlock: EZIPEK_clean_linker_0, # of connection points: 2
#     Edge 25, Type (0, 0), BuildingBlock: EZIPEK_clean_linker_0, # of connection points: 2
#     Edge 26, Type (0, 0), BuildingBlock: EZIPEK_clean_linker_0, # of connection points: 2
#     Edge 27, Type (0, 0), BuildingBlock: EZIPEK_clean_linker_0, # of connection points: 2
#     Edge 28, Type (0, 0), BuildingBlock: EZIPEK_clean_linker_0, # of connection points: 2
#     Edge 29, Type (0, 0), BuildingBlock: EZIPEK_clean_linker_0, # of connection points: 2
#     Edge 30, Type (0, 0), BuildingBlock: EZIPEK_clean_linker_0, # of connection points: 2
#     Edge 31, Type (0, 0), BuildingBlock: EZIPEK_clean_linker_0, # of connection points: 2
#     Edge 32, Type (0, 0), BuildingBlock: EZIPEK_clean_linker_0, # of connection points: 2
#     Edge 33, Type (0, 0), BuildingBlock: EZIPEK_clean_linker_0, # of connection points: 2
#     Edge 34, Type (0, 0), BuildingBlock: EZIPEK_clean_linker_0, # of connection points: 2
#     Edge 35, Type (0, 0), BuildingBlock: EZIPEK_clean_linker_0, # of connection points: 2
# Relax obj value: 0.260
# Max RMSD: 0.218
# Mean RMSD: 0.217
data_MOF--net-smm--node1-VOLQOD_clean_sbu_1--edge1-EZIPEK_clean_linker_0
_symmetry_space_group_name_H-M    P1
_symmetry_Int_Tables_number       1
_symmetry_cell_setting            triclinic
loop_
_symmetry_equiv_pos_as_xyz
'x, y, z'
_cell_length_a     41.692842
_cell_length_b     41.381086
_cell_length_c     12.976677
_cell_angle_alpha  90.023427
_cell_angle_beta   89.964871
_cell_angle_gamma 120.25578
loop_
_atom_site_label
_atom_site_type_symbol
_atom_site_fract_x
_atom_site_fract_y
_atom_site_fract_z
_atom_type_partial_charge
O0 O 0.93911 0.1453 0.77392 0.0
Zn1 Zn 0.9326 0.14584 0.92899 0.0
O2 O -0.01953 0.16554 -0.00037 0.0
Zn3 Zn -0.01011 0.20637 0.09103 0.0
Zn4 Zn 0.01973 0.18404 0.90029 0.0
Zn5 Zn -0.0177 0.12702 0.0775 0.0
O6 O -0.00538 0.19511 0.23866 0.0
O7 O -0.01963 0.13573 0.22799 0.0
O8 O 0.9079 0.17564 0.96561 0.0
O9 O 0.94609 0.21316 0.08748 0.0
O10 O 0.03192 0.25585 0.04202 0.0
O11 O 0.04581 0.23855 0.89433 0.0
O12 O 0.05598 0.16751 0.92443 0.0
O13 O 0.89805 0.09298 0.97398 0.0
O14 O 0.02756 0.12319 0.04299 0.0
O15 O 0.9366 0.07848 0.05278 0.0
C16 C 0.96814 0.15458 0.72035 0.0
C17 C -0.01341 0.16416 0.28089 0.0
C18 C 0.04904 0.26363 0.95623 0.0
C19 C 0.91672 0.20083 0.03394 0.0
C20 C 0.05446 0.14186 0.9812 0.0
C21 C 0.90471 0.06947 0.01769 0.0
O22 O -3e-05 0.16811 0.76106 0.0
O23 O 0.78555 0.82452 0.30184 0.0
Zn24 Zn 0.78305 0.83644 0.15261 0.0
O25 O 0.81104 0.81994 0.07085 0.0
Zn26 Zn 0.77928 0.77868 0.98434 0.0
Zn27 Zn 0.83666 0.80405 0.16038 0.0
Zn28 Zn 0.84616 0.8591 0.98669 0.0
O29 O 0.79652 0.78552 0.83817 0.0
O30 O 0.83384 0.84728 0.83933 0.0
O31 O 0.73084 0.81384 0.09998 0.0
O32 O 0.73243 0.77833 0.9735 0.0
O33 O 0.76686 0.72974 0.04866 0.0
O34 O 0.80756 0.74933 0.17728 0.0
O35 O 0.88736 0.81914 0.10992 0.0
O36 O 0.80392 0.89178 0.13683 0.0
O37 O 0.89591 0.86542 0.00559 0.0
O38 O 0.84713 0.90625 0.01651 0.0
C39 C 0.81204 0.82386 0.34915 0.0
C40 C 0.81544 0.81655 0.79122 0.0
C41 C 0.78052 0.7234 0.12844 0.0
C42 C 0.71615 0.79233 0.02296 0.0
C43 C 0.90788 0.84646 0.05142 0.0
C44 C 0.82913 0.91533 0.07737 0.0
O45 O 0.83837 0.82314 0.30158 0.0
O46 O 0.19081 0.03352 0.72988 0.0
Zn47 Zn 0.19047 0.04311 0.8835 0.0
O48 O 0.15853 -0.00416 0.95271 0.0
Zn49 Zn 0.18566 0.97928 0.03514 0.0
Zn50 Zn 0.13144 0.95801 0.85266 0.0
Zn51 Zn 0.1241 0.0 0.04023 0.0
O52 O 0.17492 0.97922 0.18619 0.0
O53 O 0.13901 0.00463 0.18667 0.0
O54 O 0.24204 0.06685 0.94517 0.0
O55 O 0.23798 0.01796 0.02917 0.0
O56 O 0.18244 0.93181 0.98345 0.0
O57 O 0.15152 0.9241 0.83943 0.0
O58 O 0.07883 0.92519 0.8922 0.0
O59 O 0.17034 0.0783 0.90296 0.0
O60 O 0.07406 0.95537 0.02748 0.0
O61 O 0.12141 0.04462 0.0042 0.0
C62 C 0.16475 0.00844 0.67487 0.0
C63 C 0.15844 -0.00636 0.23388 0.0
C64 C 0.16907 0.91428 0.8993 0.0
C65 C 0.25645 0.05162 -0.00119 0.0
C66 C 0.0601 0.92798 0.9651 0.0
C67 C 0.14177 0.07375 0.95155 0.0
O68 O 0.13664 0.98032 0.71462 0.0
O69 O 0.67264 0.50927 0.60085 0.0
Zn70 Zn 0.67983 0.51656 0.44556 0.0
O71 O 0.63401 0.48418 0.37283 0.0
Zn72 Zn 0.61877 0.51198 0.2858 0.0
Zn73 Zn 0.59567 0.45679 0.47032 0.0
Zn74 Zn 0.63923 0.44922 0.2892 0.0
O75 O 0.60963 0.49409 0.13781 0.0
O76 O 0.63913 0.46195 0.14254 0.0
O77 O 0.69997 0.56992 0.40399 0.0
O78 O 0.66195 0.56312 0.27452 0.0
O79 O 0.5782 0.51767 0.3532 0.0
O80 O 0.56621 0.48083 0.48956 0.0
O81 O 0.56272 0.40446 0.42867 0.0
O82 O 0.71947 0.50694 0.39344 0.0
O83 O 0.59694 0.39722 0.30914 0.0
O84 O 0.68842 0.45361 0.30622 0.0
C85 C 0.64534 0.48414 0.65246 0.0
C86 C 0.62498 0.47801 0.09245 0.0
C87 C 0.56176 0.50434 0.43877 0.0
C88 C 0.69105 0.58285 0.32726 0.0
C89 C 0.56791 0.38435 0.36474 0.0
C90 C 0.71862 0.48066 0.34045 0.0
O91 O 0.61564 0.45961 0.60924 0.0
O92 O 0.45888 0.13827 0.48887 0.0
Zn93 Zn 0.45607 0.15194 0.3416 0.0
O94 O 0.49185 0.14843 0.25806 0.0
Zn95 Zn 0.4685 0.10594 0.17078 0.0
Zn96 Zn 0.52458 0.14342 0.34829 0.0
Zn97 Zn 0.51667 0.19028 0.17084 0.0
O98 O 0.49192 0.11689 0.03027 0.0
O99 O 0.50153 0.17487 0.02502 0.0
O100 O 0.40663 0.12498 0.27395 0.0
O101 O 0.41745 0.09617 0.14518 0.0
O102 O 0.4642 0.06176 0.24597 0.0
O103 O 0.50651 0.0895 0.36955 0.0
O104 O 0.57706 0.17441 0.3016 0.0
O105 O 0.46782 0.20435 0.3459 0.0
O106 O 0.57109 0.21025 0.18329 0.0
O107 O 0.50665 0.23053 0.2152 0.0
C108 C 0.48926 0.14854 0.53679 0.0
C109 C 0.4967 0.14543 0.9797 0.0
C110 C 0.48025 0.06033 0.32801 0.0
C111 C 0.39654 0.10551 0.19189 0.0
C112 C 0.59087 0.20102 0.23636 0.0
C113 C 0.48734 0.2323 0.28873 0.0
O114 O 0.5196 0.15893 0.48909 0.0
O115 O 0.83821 0.33986 0.4252 0.0
Zn116 Zn 0.82425 0.32789 0.27467 0.0
O117 O 0.84415 0.37329 0.19421 0.0
Zn118 Zn 0.88557 0.37864 0.11403 0.0
Zn119 Zn 0.86083 0.41342 0.28936 0.0
Zn120 Zn 0.80753 0.3756 0.11065 0.0
O121 O 0.87954 0.38848 0.96553 0.0
O122 O 0.82015 0.37414 0.96357 0.0
O123 O 0.83989 0.29285 0.21774 0.0
O124 O 0.88386 0.32973 0.10755 0.0
O125 O 0.93424 0.41348 0.18535 0.0
O126 O 0.91397 0.43683 0.30639 0.0
O127 O 0.84815 0.45157 0.2554 0.0
O128 O 0.7694 0.30046 0.26301 0.0
O129 O 0.8048 0.42235 0.13805 0.0
O130 O 0.75763 0.33144 0.1421 0.0
C131 C 0.84034 0.3674 0.47534 0.0
C132 C 0.84992 0.38113 0.91728 0.0
C133 C 0.93965 0.43355 0.26521 0.0
C134 C 0.86436 0.29816 0.15081 0.0
C135 C 0.82373 0.45065 0.19587 0.0
C136 C 0.74697 0.3045 0.20563 0.0
O137 O 0.84182 0.39527 0.42988 0.0
O138 O 0.2952 0.83667 0.42894 0.0
Zn139 Zn 0.28278 0.82516 0.58005 0.0
O140 O 0.32715 0.84011 0.65939 0.0
Zn141 Zn 0.34067 0.88423 0.74054 0.0
Zn142 Zn 0.36679 0.85054 0.56761 0.0
Zn143 Zn 0.31919 0.80095 0.751 0.0
O144 O 0.35422 0.8784 0.88625 0.0
O145 O 0.31813 0.81656 0.89474 0.0
O146 O 0.25525 0.84777 0.64255 0.0
O147 O 0.29486 0.88766 0.75812 0.0
O148 O 0.38029 0.93044 0.66775 0.0
O149 O 0.40036 0.9046 0.55339 0.0
O150 O 0.39529 0.82665 0.61075 0.0
O151 O 0.2466 0.77054 0.59533 0.0
O152 O 0.36006 0.78944 0.73768 0.0
O153 O 0.27144 0.75453 0.72241 0.0
C154 C 0.32171 0.83665 0.37967 0.0
C155 C 0.33642 0.8483 0.93833 0.0
C156 C 0.40162 0.93308 0.59365 0.0
C157 C 0.26302 0.87105 0.71556 0.0
C158 C 0.38836 0.80212 0.67927 0.0
C159 C 0.24557 0.74642 0.65783 0.0
O160 O 0.34829 0.83592 0.42543 0.0
O161 O 0.09601 0.50066 0.8984 0.0
Zn162 Zn 0.10022 0.51171 0.74258 0.0
O163 O 0.13202 0.49582 0.67709 0.0
Zn164 Zn 0.10667 0.45262 0.59002 0.0
Zn165 Zn 0.15751 0.48572 0.78042 0.0
Zn166 Zn 0.16625 0.53313 0.58723 0.0
O167 O 0.12517 0.46054 0.44123 0.0
O168 O 0.14809 0.52181 0.44301 0.0
O169 O 0.05247 0.48898 0.66079 0.0
O170 O 0.05813 0.44691 0.56679 0.0
O171 O 0.09962 0.40634 0.66069 0.0
O172 O 0.13711 0.4317 0.79541 0.0
O173 O 0.21075 0.51029 0.75195 0.0
O174 O 0.12308 0.56768 0.72675 0.0
O175 O 0.2166 0.53898 0.60196 0.0
O176 O 0.17053 0.58114 0.62239 0.0
C177 C 0.12132 0.50097 0.955 0.0
C178 C 0.13471 0.49115 0.394 0.0
C179 C 0.11393 0.40343 0.74436 0.0
C180 C 0.0409 0.46369 0.59142 0.0
C181 C 0.23015 0.52961 0.67625 0.0
C182 C 0.15168 0.59113 0.67657 0.0
O183 O 0.14924 0.50083 0.91646 0.0
O184 O 0.52265 0.68447 0.53362 0.0
Zn185 Zn 0.51626 0.69477 0.68232 0.0
O186 O 0.48574 0.64908 0.75778 0.0
Zn187 Zn 0.51693 0.63705 0.8376 0.0
Zn188 Zn 0.45831 0.61101 0.65886 0.0
Zn189 Zn 0.4517 0.65386 0.84633 0.0
O190 O 0.50329 0.6315 -0.01185 0.0
O191 O 0.46413 0.65321 -0.0064 0.0
O192 O 0.56409 0.72582 0.75644 0.0
O193 O 0.56758 0.68141 0.84328 0.0
O194 O 0.52021 0.59481 0.7712 0.0
O195 O 0.47553 0.57497 0.65285 0.0
O196 O 0.40438 0.58634 0.67799 0.0
O197 O 0.49113 0.72445 0.68024 0.0
O198 O 0.39962 0.61391 0.8195 0.0
O199 O 0.45179 0.70074 0.81236 0.0
C200 C 0.49729 0.65871 0.47879 0.0
C201 C 0.48467 0.64302 0.0386 0.0
C202 C 0.50192 0.57343 0.69634 0.0
C203 C 0.5812 0.71537 0.81637 0.0
C204 C 0.38509 0.59049 0.74641 0.0
C205 C 0.46696 0.72437 0.73996 0.0
O206 O 0.46855 0.63155 0.51841 0.0
C207 C 0.04455 0.31735 0.88893 0.0
C208 C 0.067 0.30186 0.91591 0.0
C209 C 0.11915 0.35077 0.81872 0.0
C210 C 0.09733 0.36735 0.79739 0.0
N211 N 0.04313 0.37239 0.83523 0.0
N212 N 0.12677 0.30626 0.9224 0.0
C213 C 0.06116 0.35245 0.83927 0.0
C214 C 0.10476 0.31941 0.88566 0.0
N215 N 0.00697 0.29772 0.90488 0.0
N216 N 0.15309 0.36446 0.77281 0.0
H217 H 0.11682 0.2835 0.97259 0.0
H218 H 0.15534 0.31967 0.91074 0.0
H219 H 0.16424 0.38743 0.72317 0.0
H220 H 0.16891 0.35149 0.7773 0.0
H221 H -0.01097 0.30595 0.87472 0.0
H222 H -0.00697 0.27158 0.94024 0.0
H223 H 0.01868 0.36464 0.87559 0.0
H224 H 0.05412 0.39847 0.79984 0.0
C225 C 0.6786 0.79336 0.87897 0.0
C226 C 0.68002 0.78414 0.98326 0.0
C227 C 0.61351 0.74142 0.98238 0.0
C228 C 0.61408 0.74346 0.87291 0.0
N229 N 0.64722 0.77172 0.71517 0.0
N230 N 0.64919 0.75024 0.13739 0.0
C231 C 0.64639 0.77021 0.82039 0.0
C232 C 0.64743 0.75907 0.03689 0.0
N233 N 0.70857 0.82376 0.83642 0.0
N234 N 0.58049 0.72281 0.03373 0.0
H235 H 0.67356 0.76361 0.18064 0.0
H236 H 0.62697 0.72836 0.17614 0.0
H237 H 0.55509 0.71056 -0.00454 0.0
H238 H 0.57825 0.72296 0.11366 0.0
H239 H 0.70848 0.83369 0.76274 0.0
H240 H 0.73219 0.84117 0.87977 0.0
H241 H 0.67141 0.78798 0.67301 0.0
H242 H 0.62427 0.75472 0.66937 0.0
C243 C 0.1775 0.87977 0.75311 0.0
C244 C 0.18051 0.88765 0.86006 0.0
C245 C 0.22652 0.86787 0.87206 0.0
C246 C 0.23254 0.87389 0.764 0.0
N247 N 0.2118 0.88383 0.59904 0.0
N248 N 0.19902 0.87682 0.02631 0.0
C249 C 0.20709 0.87873 0.70314 0.0
C250 C 0.2022 0.87763 0.92156 0.0
N251 N 0.14602 0.87195 0.70089 0.0
N252 N 0.24208 0.85072 0.92547 0.0
H253 H 0.17711 0.87758 0.06295 0.0
H254 H 0.21774 0.87516 0.076 0.0
H255 H 0.25781 0.84068 0.89007 0.0
H256 H 0.23631 0.84286 0.00249 0.0
H257 H 0.14156 0.86344 0.62406 0.0
H258 H 0.12252 0.86878 0.73883 0.0
H259 H 0.19461 0.88911 0.55264 0.0
H260 H 0.23458 0.88588 0.55986 0.0
C261 C 0.36048 0.10525 0.03772 0.0
C262 C 0.3611 0.09653 0.14364 0.0
C263 C 0.29482 0.07322 0.15531 0.0
C264 C 0.29311 0.07419 0.04633 0.0
N265 N 0.32388 0.08934 0.88142 0.0
N266 N 0.32764 0.06772 0.30092 0.0
C267 C 0.32585 0.09011 0.98651 0.0
C268 C 0.32802 0.07973 0.20253 0.0
N269 N 0.39273 0.12893 0.98725 0.0
N270 N 0.26445 0.06574 0.21322 0.0
H271 H 0.35105 0.07014 0.3372 0.0
H272 H 0.30327 0.0519 0.34281 0.0
H273 H 0.23985 0.06157 0.18006 0.0
H274 H 0.26503 0.06768 0.29336 0.0
H275 H 0.39341 0.13845 0.91252 0.0
H276 H 0.41856 0.14228 0.02359 0.0
H277 H 0.34675 0.09658 0.83417 0.0
H278 H 0.29889 0.07918 0.84164 0.0
C279 C 0.87387 0.24393 0.19194 0.0
C280 C 0.86971 0.26691 0.11821 0.0
C281 C 0.88919 0.23998 0.98052 0.0
C282 C 0.89291 0.21696 0.05445 0.0
N283 N 0.87539 0.18691 0.21984 0.0
N284 N 0.86049 0.27663 0.93939 0.0
C285 C 0.88052 0.21548 0.15665 0.0
C286 C 0.87315 0.26161 0.01129 0.0
N287 N 0.87452 0.25087 0.29514 0.0
N288 N 0.90274 0.24293 0.88297 0.0
H289 H 0.84697 0.29116 0.95939 0.0
H290 H 0.85962 0.27104 0.86081 0.0
H291 H 0.91432 0.22722 0.85688 0.0
H292 H 0.90471 0.26285 0.83025 0.0
H293 H 0.88125 0.23697 0.35037 0.0
H294 H 0.8722 0.27289 0.32549 0.0
H295 H 0.86328 0.18264 0.29259 0.0
H296 H 0.87935 0.16525 0.19413 0.0
C297 C 0.76318 0.65675 0.15279 0.0
C298 C 0.75907 0.68744 0.18109 0.0
C299 C 0.7172 0.6515 0.32198 0.0
C300 C 0.71792 0.61968 0.28627 0.0
N301 N 0.73971 0.5901 0.16706 0.0
N302 N 0.72959 0.71399 0.28388 0.0
C303 C 0.74058 0.62177 0.20173 0.0
C304 C 0.73551 0.68492 0.26375 0.0
N305 N 0.78915 0.66135 0.08089 0.0
N306 N 0.69933 0.64973 0.41199 0.0
H307 H 0.74258 0.73917 0.24325 0.0
H308 H 0.7097 0.71229 0.33557 0.0
H309 H 0.68588 0.62543 0.4563 0.0
H310 H 0.70068 0.67293 0.44763 0.0
H311 H 0.7963 0.64117 0.06435 0.0
H312 H 0.8055 0.68658 0.04219 0.0
H313 H 0.75193 0.58873 0.0985 0.0
H314 H 0.7251 0.56437 0.20465 0.0
C315 C 0.02233 0.48679 0.43876 0.0
C316 C 0.01254 0.45924 0.51709 0.0
C317 C 0.96285 0.41281 0.40926 0.0
C318 C 0.97 0.44119 0.33594 0.0
N319 N 0.00323 0.50577 0.28464 0.0
N320 N 0.97015 0.39856 0.58591 0.0
C321 C -0.0012 0.47842 0.35185 0.0
C322 C -0.01829 0.42296 0.50481 0.0
N323 N 0.05508 0.52007 0.44423 0.0
N324 N 0.93756 0.37621 0.38806 0.0
H325 H -0.0166 0.40587 0.65745 0.0
H326 H 0.94556 0.37284 0.58587 0.0
H327 H 0.92265 0.36751 0.31935 0.0
H328 H 0.93366 0.35401 0.43455 0.0
H329 H 0.06573 0.53893 0.38318 0.0
H330 H 0.07299 0.52795 0.50715 0.0
H331 H 0.02081 0.5342 0.29862 0.0
H332 H -0.01225 0.49989 0.21691 0.0
C333 C 0.49589 0.51658 0.61105 0.0
C334 C 0.51807 0.55495 0.63678 0.0
C335 C 0.56854 0.56015 0.52974 0.0
C336 C 0.54511 0.52292 0.49533 0.0
N337 N 0.4851 0.46687 0.49172 0.0
N338 N 0.57118 0.61573 0.59529 0.0
C339 C 0.50825 0.50143 0.53262 0.0
C340 C 0.5532 0.57751 0.58924 0.0
N341 N 0.4635 0.49466 0.66312 0.0
N342 N 0.60592 0.57853 0.51081 0.0
H343 H 0.5607 0.63052 0.6339 0.0
H344 H 0.59477 0.63301 0.55185 0.0
H345 H 0.61918 0.56706 0.46931 0.0
H346 H 0.62436 0.60396 0.54561 0.0
H347 H 0.44766 0.46575 0.65455 0.0
H348 H 0.45411 0.50511 0.72177 0.0
H349 H 0.45691 0.45108 0.50888 0.0
H350 H 0.49352 0.45538 0.43338 0.0
C351 C 0.42343 0.01621 0.42579 0.0
C352 C 0.46034 0.02732 0.39504 0.0
C353 C 0.46119 0.98286 0.51771 0.0
C354 C 0.42281 0.9684 0.53669 0.0
N355 N 0.36535 0.96575 0.48816 0.0
N356 N 0.51355 0.0192 0.40389 0.0
C357 C 0.4033 0.98351 0.48529 0.0
C358 C 0.47912 0.01016 0.43914 0.0
N359 N 0.40804 0.03783 0.40348 0.0
N360 N 0.48044 0.97083 0.57597 0.0
H361 H 0.52711 0.03884 0.3456 0.0
H362 H 0.52726 0.00513 0.42597 0.0
H363 H 0.46797 0.9512 0.63492 0.0
H364 H 0.50914 0.98263 0.57235 0.0
H365 H 0.38266 0.03247 0.43383 0.0
H366 H 0.4222 0.0636 0.36621 0.0
H367 H 0.35008 0.97358 0.44141 0.0
H368 H 0.34876 0.94106 0.52856 0.0
C369 C 0.11148 0.10377 0.86034 0.0
C370 C 0.13056 0.10218 0.94838 0.0
C371 C 0.10724 0.13598 0.04958 0.0
C372 C 0.08294 0.13122 0.9673 0.0
N373 N 0.0599 0.10897 0.79539 0.0
N374 N 0.14942 0.11823 0.125 0.0
C375 C 0.08501 0.11542 0.87196 0.0
C376 C 0.12972 0.11932 0.0422 0.0
N377 N 0.11798 0.09317 0.7665 0.0
N378 N 0.10898 0.15672 0.13371 0.0
H379 H 0.16798 0.10834 0.1193 0.0
H380 H 0.14662 0.12588 0.19941 0.0
H381 H 0.09274 0.16925 0.14086 0.0
H382 H 0.12837 0.164 0.19256 0.0
H383 H 0.10758 0.09699 0.69751 0.0
H384 H 0.13677 0.08384 0.75636 0.0
H385 H 0.05728 0.09366 0.7291 0.0
H386 H 0.03941 0.11626 0.80109 0.0
C387 C 0.85255 0.97859 0.15601 0.0
C388 C 0.83667 0.95397 0.07138 0.0
C389 C 0.85653 0.00639 0.95268 0.0
C390 C 0.87455 0.031 0.03619 0.0
N391 N 0.87864 0.04207 0.21921 0.0
N392 N 0.81149 0.94327 0.8997 0.0
C393 C 0.86855 0.01749 0.13884 0.0
C394 C 0.8344 0.96763 0.97319 0.0
N395 N 0.85487 0.96525 0.25035 0.0
N396 N 0.86272 0.01948 0.85373 0.0
H397 H 0.79472 0.91466 0.91401 0.0
H398 H 0.80634 0.95178 0.82916 0.0
H399 H 0.87867 0.04777 0.8353 0.0
H400 H 0.85387 0.00206 0.78939 0.0
H401 H 0.87025 0.98246 0.31134 0.0
H402 H 0.84317 0.93684 0.26624 0.0
H403 H 0.8723 0.03373 0.2958 0.0
H404 H 0.89006 0.0708 0.20794 0.0
C405 C 0.97264 0.86686 0.11003 0.0
C406 C 0.94617 0.85607 0.02979 0.0
C407 C -0.00497 0.88652 0.9015 0.0
C408 C 0.02159 0.8982 0.98192 0.0
N409 N 0.03651 0.88748 0.15361 0.0
N410 N 0.93201 0.84255 0.8495 0.0
C411 C 0.01062 0.88417 0.08333 0.0
C412 C 0.95746 0.86125 0.92536 0.0
N413 N 0.96212 0.86328 0.21107 0.0
N414 N 0.00478 0.90162 0.80496 0.0
H415 H 0.90421 0.82338 0.86586 0.0
H416 H 0.93926 0.84303 0.77241 0.0
H417 H 0.03174 0.92154 0.784 0.0
H418 H -0.01464 0.89678 0.74766 0.0
H419 H -0.01893 0.87502 0.27136 0.0
H420 H 0.93458 0.85091 0.23487 0.0
H421 H 0.02957 0.875 0.22615 0.0
H422 H 0.06457 0.89917 0.13497 0.0
C423 C 0.78333 0.49142 0.36112 0.0
C424 C 0.75345 0.48564 0.2971 0.0
C425 C 0.78437 0.47802 0.14663 0.0
C426 C 0.81066 0.4776 0.21423 0.0
N427 N 0.84792 0.50812 0.3641 0.0
N428 N 0.73413 0.49098 0.12528 0.0
C429 C 0.81457 0.49258 0.31463 0.0
C430 C 0.75675 0.48469 0.18803 0.0
N431 N 0.78124 0.49365 0.46565 0.0
N432 N 0.78558 0.47117 0.04427 0.0
H433 H 0.7151 0.49804 0.15411 0.0
H434 H 0.73666 0.49292 0.04541 0.0
H435 H 0.8079 0.46978 0.01258 0.0
H436 H 0.76473 0.46654 -0.00792 0.0
H437 H 0.80109 0.4941 0.51539 0.0
H438 H 0.75843 0.49225 0.50297 0.0
H439 H 0.8526 0.52129 0.43552 0.0
H440 H 0.87189 0.51226 0.32677 0.0
C441 C 0.52864 0.31995 0.43431 0.0
C442 C 0.53866 0.34541 0.35116 0.0
C443 C 0.49894 0.29479 0.23411 0.0
C444 C 0.4922 0.26923 0.31507 0.0
N445 N 0.48369 0.25893 0.49905 0.0
N446 N 0.52482 0.35962 0.18234 0.0
C447 C 0.5013 0.2822 0.41783 0.0
C448 C 0.52088 0.33365 0.25407 0.0
N449 N 0.54663 0.33117 0.52685 0.0
N450 N 0.48508 0.28149 0.13819 0.0
H451 H 0.54026 0.38835 0.19621 0.0
H452 H 0.5106 0.35295 0.11259 0.0
H453 H 0.46635 0.25314 0.12515 0.0
H454 H 0.49239 0.29801 0.07226 0.0
H455 H 0.54319 0.31251 0.58557 0.0
H456 H 0.56733 0.35863 0.54216 0.0
H457 H 0.48816 0.268 0.57537 0.0
H458 H 0.46068 0.2323 0.48991 0.0
C459 C 0.64941 0.25143 0.31218 0.0
C460 C 0.63123 0.22533 0.23152 0.0
C461 C 0.68871 0.25211 0.13168 0.0
C462 C 0.70723 0.27718 0.21438 0.0
N463 N 0.70737 0.2986 0.38775 0.0
N464 N 0.63281 0.19683 0.07132 0.0
C465 C 0.68826 0.27604 0.30629 0.0
C466 C 0.65065 0.22457 0.1429 0.0
N467 N 0.62916 0.25407 0.39153 0.0
N468 N 0.70753 0.25482 0.04265 0.0
H469 H 0.60484 0.17633 0.07765 0.0
H470 H 0.64597 0.19232 0.00952 0.0
H471 H 0.736 0.27299 0.03397 0.0
H472 H 0.69485 0.24043 0.97524 0.0
H473 H 0.64 0.2755 0.44582 0.0
H474 H 0.60059 0.23632 0.39961 0.0
H475 H 0.69619 0.29552 0.46127 0.0
H476 H 0.73529 0.31933 0.38404 0.0
C477 C 0.45615 0.77602 0.78935 0.0
C478 C 0.45204 0.74878 0.71634 0.0
C479 C 0.41248 0.76272 0.6088 0.0
C480 C 0.4128 0.78645 0.68815 0.0
N481 N 0.43403 0.81635 0.85359 0.0
N482 N 0.42427 0.71319 0.56095 0.0
C483 C 0.43455 0.79346 0.7783 0.0
C484 C 0.43022 0.74174 0.62617 0.0
N485 N 0.48135 0.78562 0.86756 0.0
N486 N 0.39464 0.75969 0.51766 0.0
H487 H 0.43662 0.69687 0.57003 0.0
H488 H 0.40478 0.70348 0.50178 0.0
H489 H 0.37865 0.77211 0.50418 0.0
H490 H 0.39762 0.74682 0.45232 0.0
H491 H 0.48822 0.80759 0.91847 0.0
H492 H 0.49779 0.77339 0.87662 0.0
H493 H 0.44553 0.81908 0.92645 0.0
H494 H 0.42056 0.83166 0.84479 0.0
C495 C 0.17562 0.65292 0.76604 0.0
C496 C 0.16361 0.63117 0.67495 0.0
C497 C 0.19998 0.68652 0.56881 0.0
C498 C 0.21304 0.70829 0.65997 0.0
N499 N 0.20225 0.71493 0.83958 0.0
N500 N 0.15218 0.62873 0.49265 0.0
C501 C 0.19705 0.69235 0.75688 0.0
C502 C 0.17142 0.64873 0.57728 0.0
N503 N 0.16895 0.63619 0.86053 0.0
N504 N 0.21664 0.70051 0.47579 0.0
H505 H 0.13087 0.60087 0.49798 0.0
H506 H 0.15467 0.64082 0.42048 0.0
H507 H 0.23897 0.72749 0.46563 0.0
H508 H 0.21044 0.68407 0.40978 0.0
H509 H 0.18127 0.65089 0.92801 0.0
H510 H 0.15286 0.60739 0.87113 0.0
H511 H 0.18874 0.70483 0.90985 0.0
H512 H 0.2168 0.74407 0.8341 0.0
C513 C 0.33214 0.59906 0.70291 0.0
C514 C 0.34549 0.57444 0.72626 0.0
C515 C 0.2844 0.52052 0.69194 0.0
C516 C 0.27021 0.54514 0.68278 0.0
N517 N 0.27901 0.60742 0.69972 0.0
N518 N 0.33468 0.51208 0.75274 0.0
C519 C 0.2936 0.58434 0.69321 0.0
C520 C 0.32178 0.53516 0.72303 0.0
N521 N 0.35627 0.63632 0.68616 0.0
N522 N 0.26231 0.48342 0.66892 0.0
H523 H 0.36204 0.52211 0.77618 0.0
H524 H 0.3177 0.4833 0.76201 0.0
H525 H 0.23485 0.47201 0.64454 0.0
H526 H 0.27201 0.46468 0.66503 0.0
H527 H 0.34789 0.65449 0.65796 0.0
H528 H 0.38503 0.64847 0.69012 0.0
H529 H 0.29479 0.63561 0.71951 0.0
H530 H 0.25069 0.59801 0.69514 0.0
C531 C 0.95304 0.17088 0.54768 0.0
C532 C 0.96642 0.15142 0.60711 0.0
C533 C -0.00472 0.14248 0.45386 0.0
C534 C -0.0203 0.1596 0.39315 0.0
N535 N 0.93379 0.17885 0.37906 0.0
N536 N -0.00888 0.10983 0.61245 0.0
C537 C 0.95555 0.17044 0.43894 0.0
C538 C -0.01545 0.13427 0.55854 0.0
N539 N 0.93981 0.1915 0.59415 0.0
N540 N 0.02167 0.13579 0.41349 0.0
H541 H -0.01758 0.10235 0.68857 0.0
H542 H 0.00145 0.09408 0.57853 0.0
H543 H 0.0316 0.14296 0.3383 0.0
H544 H 0.03644 0.12668 0.45776 0.0
H545 H 0.93383 0.20954 0.55345 0.0
H546 H 0.9379 0.19335 0.67373 0.0
H547 H 0.91332 0.18348 0.40956 0.0
H548 H 0.9331 0.17692 0.29898 0.0
C549 C 0.82053 0.79345 0.61729 0.0
C550 C 0.81357 0.81764 0.67817 0.0
C551 C 0.80813 0.84796 0.52282 0.0
C552 C 0.81122 0.82121 0.46225 0.0
N553 N 0.81001 0.76218 0.45347 0.0
N554 N 0.79091 0.86121 0.68819 0.0
C555 C 0.81439 0.79204 0.50986 0.0
C556 C 0.8045 0.84301 0.63089 0.0
N557 N 0.83443 0.77298 0.66088 0.0
N558 N 0.8101 0.87882 0.47814 0.0
H559 H 0.78614 0.85724 0.76722 0.0
H560 H 0.78054 0.87709 0.65544 0.0
H561 H 0.81368 0.88404 0.39917 0.0
H562 H 0.81186 0.90103 0.5207 0.0
H563 H 0.84334 0.75777 0.61751 0.0
H564 H 0.8407 0.77427 0.7391 0.0
H565 H 0.80852 0.73855 0.48676 0.0
H566 H 0.8036 0.7591 0.37523 0.0
C567 C 0.17191 0.03754 0.49958 0.0
C568 C 0.16881 0.00808 0.56204 0.0
C569 C 0.15716 0.96876 0.41032 0.0
C570 C 0.16285 -0.00106 0.34657 0.0
N571 N 0.18504 0.06526 0.32963 0.0
N572 N 0.17073 0.95095 0.57416 0.0
C573 C 0.17305 0.03438 0.39079 0.0
C574 C 0.16534 0.97536 0.51642 0.0
N575 N 0.17223 0.06772 0.54338 0.0
N576 N 0.142 0.93333 0.37134 0.0
H577 H 0.17871 0.9558 0.6514 0.0
H578 H 0.17159 0.92841 0.54184 0.0
H579 H 0.13356 0.92666 0.29489 0.0
H580 H 0.13396 0.90989 0.41763 0.0
H581 H 0.17004 0.08785 0.50074 0.0
H582 H 0.17185 0.07118 0.62283 0.0
H583 H 0.1962 0.09225 0.35899 0.0
H584 H 0.18745 0.06463 0.24984 0.0
C585 C 0.633 0.4506 0.81977 0.0
C586 C 0.64533 0.48475 0.76633 0.0
C587 C 0.64771 0.51564 0.92933 0.0
C588 C 0.62977 0.48029 0.97934 0.0
N589 N 0.59926 0.41297 0.96695 0.0
N590 N 0.65653 0.54824 0.7685 0.0
C591 C 0.62074 0.44738 0.92308 0.0
C592 C 0.65071 0.51699 0.8204 0.0
N593 N 0.63358 0.42144 0.77215 0.0
N594 N 0.6634 0.54804 0.9853 0.0
H595 H 0.65768 0.55049 0.6885 0.0
H596 H 0.65653 0.57069 0.80499 0.0
H597 H 0.66324 0.54865 0.06553 0.0
H598 H 0.68005 0.57428 0.95213 0.0
H599 H 0.62801 0.39703 0.81049 0.0
H600 H 0.64352 0.42333 0.69724 0.0
H601 H 0.58896 0.38803 0.92594 0.0
H602 H 0.58846 0.40941 0.04129 0.0
C603 C 0.51718 0.17925 0.70455 0.0
C604 C 0.48983 0.14755 0.6503 0.0
C605 C 0.46508 0.11475 0.81325 0.0
C606 C 0.49542 0.14457 0.86603 0.0
N607 N 0.55544 0.20105 0.85709 0.0
N608 N 0.4437 0.08162 0.65201 0.0
C609 C 0.52303 0.17565 0.81025 0.0
C610 C 0.46539 0.11423 0.70417 0.0
N611 N 0.53667 0.21312 0.65631 0.0
N612 N 0.43512 0.08786 0.86611 0.0
H613 H 0.44424 0.07955 0.57217 0.0
H614 H 0.42824 0.05587 0.68881 0.0
H615 H 0.43277 0.08761 0.94599 0.0
H616 H 0.41084 0.06798 0.82963 0.0
H617 H 0.55449 0.23777 0.69542 0.0
H618 H 0.53197 0.21736 0.57984 0.0
H619 H 0.57775 0.22233 0.81694 0.0
H620 H 0.56165 0.19834 0.93336 0.0
C621 C 0.81662 0.34045 0.65085 0.0
C622 C 0.84413 0.36911 0.58858 0.0
C623 C 0.8744 0.4068 0.74196 0.0
C624 C 0.8487 0.37692 0.80441 0.0
N625 N 0.80093 0.31176 0.81935 0.0
N626 N 0.90423 0.42539 0.57596 0.0
C627 C 0.82142 0.34264 0.75925 0.0
C628 C 0.87456 0.40107 0.6345 0.0
N629 N 0.78506 0.31213 0.60734 0.0
N630 N 0.89758 0.44112 0.78434 0.0
H631 H 0.90594 0.42151 0.49743 0.0
H632 H 0.92875 0.44699 0.607 0.0
H633 H 0.89782 0.4467 0.86279 0.0
H634 H 0.91403 0.46494 0.74042 0.0
H635 H 0.76232 0.2929 0.65049 0.0
H636 H 0.78008 0.30979 0.5282 0.0
H637 H 0.78353 0.2852 0.78903 0.0
H638 H 0.80404 0.31174 0.89905 0.0
C639 C 0.32996 0.81402 0.20979 0.0
C640 C 0.32362 0.83954 0.26638 0.0
C641 C 0.32624 0.87238 0.10694 0.0
C642 C 0.33631 0.84901 0.05221 0.0
N643 N 0.35804 0.80485 0.05828 0.0
N644 N 0.32508 0.89872 0.27223 0.0
C645 C 0.3413 0.82201 0.10579 0.0
C646 C 0.32437 0.87039 0.21614 0.0
N647 N 0.3241 0.78156 0.25443 0.0
N648 N 0.31684 0.89525 0.05559 0.0
H649 H 0.32462 0.89899 0.3525 0.0
H650 H 0.3298 0.92371 0.23923 0.0
H651 H 0.31742 0.89773 0.97574 0.0
H652 H 0.30514 0.90929 0.0922 0.0
H653 H 0.32506 0.76043 0.21327 0.0
H654 H 0.31438 0.774 0.32974 0.0
H655 H 0.36529 0.78739 0.09701 0.0
H656 H 0.36853 0.81145 0.98343 0.0
C657 C 0.09141 0.47051 0.12417 0.0
C658 C 0.11982 0.50123 0.06899 0.0
C659 C 0.15917 0.52088 0.22246 0.0
C660 C 0.1298 0.49221 0.28074 0.0
N661 N 0.0644 0.44556 0.29089 0.0
N662 N 0.17607 0.56121 0.07325 0.0
C663 C 0.09481 0.46863 0.23291 0.0
C664 C 0.15211 0.52829 0.12109 0.0
N665 N 0.0621 0.4422 0.07288 0.0
N666 N 0.19436 0.53985 0.26184 0.0
H667 H 0.17112 0.56774 -0.0006 0.0
H668 H 0.19841 0.58338 0.11083 0.0
H669 H 0.20131 0.53365 0.33344 0.0
H670 H 0.21734 0.55867 0.21869 0.0
H671 H 0.04307 0.41711 0.10812 0.0
H672 H 0.05826 0.44253 -0.00636 0.0
H673 H 0.0376 0.43103 0.26073 0.0
H674 H 0.06522 0.44358 0.37059 0.0
C675 C 0.49938 0.62721 0.31875 0.0
C676 C 0.5006 0.65867 0.36608 0.0
C677 C 0.49696 0.68266 0.19749 0.0
C678 C 0.48995 0.64832 0.15153 0.0
N679 N 0.4775 0.58498 0.17357 0.0
N680 N 0.49497 0.71374 0.35326 0.0
C681 C 0.48954 0.61983 0.21338 0.0
C682 C 0.49808 0.68585 0.30634 0.0
N683 N 0.5077 0.60444 0.37484 0.0
N684 N 0.50398 0.71285 0.13809 0.0
H685 H 0.49627 0.71752 0.43291 0.0
H686 H 0.48815 0.73135 0.31357 0.0
H687 H 0.50453 0.7129 0.05796 0.0
H688 H 0.51329 0.7394 0.16864 0.0
H689 H 0.51068 0.58308 0.34217 0.0
H690 H 0.51535 0.6094 0.45231 0.0
H691 H 0.47331 0.56227 0.21835 0.0
H692 H 0.46772 0.57753 0.09839 0.0
loop_
_geom_bond_atom_site_label_1
_geom_bond_atom_site_label_2
_geom_bond_distance
_geom_bond_site_symmetry_2
_ccdc_geom_bond_type
O0 Zn1 1.953 . S
O0 C16 1.225 . S
Zn1 O0 1.953 . S
Zn1 O2 1.949 1_656 S
Zn1 O8 1.919 . S
Zn1 O13 1.924 . S
O2 Zn1 1.949 1_454 S
O2 Zn3 1.923 . S
O2 Zn4 1.950 1_554 S
O2 Zn5 1.945 . S
Zn3 O2 1.923 . S
Zn3 O6 1.933 . S
Zn3 O9 1.941 1_455 S
Zn3 O10 1.965 . S
Zn4 O2 1.950 1_556 S
Zn4 O11 1.938 . S
Zn4 O12 1.906 . S
Zn4 O22 1.953 . S
Zn5 O2 1.945 . S
Zn5 O7 1.932 . S
Zn5 O14 1.977 . S
Zn5 O15 1.910 1_455 S
O6 Zn3 1.933 . S
O6 C17 1.226 . S
O7 Zn5 1.932 . S
O7 C17 1.307 . S
O8 Zn1 1.919 . S
O8 C19 1.253 1_556 S
O9 Zn3 1.941 1_655 S
O9 C19 1.283 . S
O10 Zn3 1.965 . S
O10 C18 1.303 1_554 S
O11 Zn4 1.938 . S
O11 C18 1.247 . S
O12 Zn4 1.906 . S
O12 C20 1.304 1_556 S
O13 Zn1 1.924 . S
O13 C21 1.311 1_556 S
O14 Zn5 1.977 . S
O14 C20 1.272 . S
O15 Zn5 1.910 1_655 S
O15 C21 1.231 . S
C16 O0 1.225 . S
C16 O22 1.298 1_655 S
C17 O6 1.226 . S
C17 O7 1.307 . S
C18 O10 1.303 1_556 S
C18 O11 1.247 . S
C19 O8 1.253 1_554 S
C19 O9 1.283 . S
C20 O12 1.304 1_554 S
C20 O14 1.272 . S
C21 O13 1.311 1_554 S
C21 O15 1.231 . S
O22 Zn4 1.953 . S
O22 C16 1.298 1_455 S
O23 Zn24 1.953 . S
O23 C39 1.225 . S
Zn24 O23 1.953 . S
Zn24 O25 1.949 . S
Zn24 O31 1.919 . S
Zn24 O36 1.924 . S
O25 Zn24 1.949 . S
O25 Zn26 1.923 1_554 S
O25 Zn27 1.950 . S
O25 Zn28 1.945 1_554 S
Zn26 O25 1.923 1_556 S
Zn26 O29 1.933 . S
Zn26 O32 1.941 . S
Zn26 O33 1.965 . S
Zn27 O25 1.950 . S
Zn27 O34 1.938 . S
Zn27 O35 1.906 . S
Zn27 O45 1.953 . S
Zn28 O25 1.945 1_556 S
Zn28 O30 1.932 . S
Zn28 O37 1.977 . S
Zn28 O38 1.910 . S
O29 Zn26 1.933 . S
O29 C40 1.226 . S
O30 Zn28 1.932 . S
O30 C40 1.307 . S
O31 Zn24 1.919 . S
O31 C42 1.253 1_554 S
O32 Zn26 1.941 . S
O32 C42 1.283 . S
O33 Zn26 1.965 . S
O33 C41 1.303 1_556 S
O34 Zn27 1.938 . S
O34 C41 1.247 . S
O35 Zn27 1.906 . S
O35 C43 1.304 1_554 S
O36 Zn24 1.924 . S
O36 C44 1.311 . S
O37 Zn28 1.977 . S
O37 C43 1.272 . S
O38 Zn28 1.910 . S
O38 C44 1.231 1_556 S
C39 O23 1.225 . S
C39 O45 1.298 . S
C40 O29 1.226 . S
C40 O30 1.307 . S
C41 O33 1.303 1_554 S
C41 O34 1.247 . S
C42 O31 1.253 1_556 S
C42 O32 1.283 . S
C43 O35 1.304 1_556 S
C43 O37 1.272 . S
C44 O36 1.311 . S
C44 O38 1.231 1_554 S
O45 Zn27 1.953 . S
O45 C39 1.298 . S
O46 Zn47 1.953 . S
O46 C62 1.225 . S
Zn47 O46 1.953 . S
Zn47 O48 1.949 1_556 S
Zn47 O54 1.919 . S
Zn47 O59 1.924 . S
O48 Zn47 1.949 1_554 S
O48 Zn49 1.908 1_545 S
O48 Zn50 1.950 1_544 S
O48 Zn51 1.945 . S
Zn49 O48 1.908 1_565 S
Zn49 O52 1.933 . S
Zn49 O55 1.934 1_565 S
Zn49 O56 1.989 . S
Zn50 O48 1.950 1_566 S
Zn50 O57 1.938 . S
Zn50 O58 1.906 . S
Zn50 O68 1.953 . S
Zn51 O48 1.945 . S
Zn51 O53 1.932 . S
Zn51 O60 1.977 1_545 S
Zn51 O61 1.910 . S
O52 Zn49 1.933 . S
O52 C63 1.236 . S
O53 Zn51 1.932 . S
O53 C63 1.296 1_545 S
O54 Zn47 1.919 . S
O54 C65 1.253 1_556 S
O55 Zn49 1.934 1_545 S
O55 C65 1.283 . S
O56 Zn49 1.989 . S
O56 C64 1.303 1_554 S
O57 Zn50 1.938 . S
O57 C64 1.247 . S
O58 Zn50 1.906 . S
O58 C66 1.304 1_556 S
O59 Zn47 1.924 . S
O59 C67 1.311 1_556 S
O60 Zn51 1.977 1_565 S
O60 C66 1.272 . S
O61 Zn51 1.910 . S
O61 C67 1.231 . S
C62 O46 1.225 . S
C62 O68 1.298 1_545 S
C63 O52 1.236 . S
C63 O53 1.296 1_565 S
C64 O56 1.303 1_556 S
C64 O57 1.247 . S
C65 O54 1.253 1_554 S
C65 O55 1.283 . S
C66 O58 1.304 1_554 S
C66 O60 1.272 . S
C67 O59 1.311 1_554 S
C67 O61 1.231 . S
O68 Zn50 1.953 . S
O68 C62 1.298 1_565 S
O69 Zn70 1.953 . S
O69 C85 1.225 . S
Zn70 O69 1.953 . S
Zn70 O71 1.949 . S
Zn70 O77 1.919 . S
Zn70 O82 1.924 . S
O71 Zn70 1.949 . S
O71 Zn72 1.923 . S
O71 Zn73 1.950 . S
O71 Zn74 1.945 . S
Zn72 O71 1.923 . S
Zn72 O75 1.933 . S
Zn72 O78 1.941 . S
Zn72 O79 1.965 . S
Zn73 O71 1.950 . S
Zn73 O80 1.938 . S
Zn73 O81 1.906 . S
Zn73 O91 1.953 . S
Zn74 O71 1.945 . S
Zn74 O76 1.932 . S
Zn74 O83 1.977 . S
Zn74 O84 1.910 . S
O75 Zn72 1.933 . S
O75 C86 1.226 . S
O76 Zn74 1.932 . S
O76 C86 1.307 . S
O77 Zn70 1.919 . S
O77 C88 1.253 . S
O78 Zn72 1.941 . S
O78 C88 1.283 . S
O79 Zn72 1.965 . S
O79 C87 1.303 . S
O80 Zn73 1.938 . S
O80 C87 1.247 . S
O81 Zn73 1.906 . S
O81 C89 1.304 . S
O82 Zn70 1.924 . S
O82 C90 1.311 . S
O83 Zn74 1.977 . S
O83 C89 1.272 . S
O84 Zn74 1.910 . S
O84 C90 1.231 . S
C85 O69 1.225 . S
C85 O91 1.298 . S
C86 O75 1.226 . S
C86 O76 1.307 . S
C87 O79 1.303 . S
C87 O80 1.247 . S
C88 O77 1.253 . S
C88 O78 1.283 . S
C89 O81 1.304 . S
C89 O83 1.272 . S
C90 O82 1.311 . S
C90 O84 1.231 . S
O91 Zn73 1.953 . S
O91 C85 1.298 . S
O92 Zn93 1.953 . S
O92 C108 1.225 . S
Zn93 O92 1.953 . S
Zn93 O94 1.949 . S
Zn93 O100 1.919 . S
Zn93 O105 1.924 . S
O94 Zn93 1.949 . S
O94 Zn95 1.923 . S
O94 Zn96 1.950 . S
O94 Zn97 1.945 . S
Zn95 O94 1.923 . S
Zn95 O98 1.933 . S
Zn95 O101 1.941 . S
Zn95 O102 1.965 . S
Zn96 O94 1.950 . S
Zn96 O103 1.938 . S
Zn96 O104 1.906 . S
Zn96 O114 1.953 . S
Zn97 O94 1.945 . S
Zn97 O99 1.932 . S
Zn97 O106 1.977 . S
Zn97 O107 1.910 . S
O98 Zn95 1.933 . S
O98 C109 1.226 . S
O99 Zn97 1.932 . S
O99 C109 1.307 . S
O100 Zn93 1.919 . S
O100 C111 1.253 . S
O101 Zn95 1.941 . S
O101 C111 1.283 . S
O102 Zn95 1.965 . S
O102 C110 1.303 . S
O103 Zn96 1.938 . S
O103 C110 1.247 . S
O104 Zn96 1.906 . S
O104 C112 1.304 . S
O105 Zn93 1.924 . S
O105 C113 1.311 . S
O106 Zn97 1.977 . S
O106 C112 1.272 . S
O107 Zn97 1.910 . S
O107 C113 1.231 . S
C108 O92 1.225 . S
C108 O114 1.298 . S
C109 O98 1.226 . S
C109 O99 1.307 . S
C110 O102 1.303 . S
C110 O103 1.247 . S
C111 O100 1.253 . S
C111 O101 1.283 . S
C112 O104 1.304 . S
C112 O106 1.272 . S
C113 O105 1.311 . S
C113 O107 1.231 . S
O114 Zn96 1.953 . S
O114 C108 1.298 . S
O115 Zn116 1.953 . S
O115 C131 1.225 . S
Zn116 O115 1.953 . S
Zn116 O117 1.949 . S
Zn116 O123 1.919 . S
Zn116 O128 1.924 . S
O117 Zn116 1.949 . S
O117 Zn118 1.923 . S
O117 Zn119 1.950 . S
O117 Zn120 1.945 . S
Zn118 O117 1.923 . S
Zn118 O121 1.933 . S
Zn118 O124 1.941 . S
Zn118 O125 1.965 . S
Zn119 O117 1.950 . S
Zn119 O126 1.938 . S
Zn119 O127 1.906 . S
Zn119 O137 1.953 . S
Zn120 O117 1.945 . S
Zn120 O122 1.932 . S
Zn120 O129 1.977 . S
Zn120 O130 1.910 . S
O121 Zn118 1.933 . S
O121 C132 1.226 . S
O122 Zn120 1.932 . S
O122 C132 1.307 . S
O123 Zn116 1.919 . S
O123 C134 1.253 . S
O124 Zn118 1.941 . S
O124 C134 1.283 . S
O125 Zn118 1.965 . S
O125 C133 1.303 . S
O126 Zn119 1.938 . S
O126 C133 1.247 . S
O127 Zn119 1.906 . S
O127 C135 1.304 . S
O128 Zn116 1.924 . S
O128 C136 1.311 . S
O129 Zn120 1.977 . S
O129 C135 1.272 . S
O130 Zn120 1.910 . S
O130 C136 1.231 . S
C131 O115 1.225 . S
C131 O137 1.298 . S
C132 O121 1.226 . S
C132 O122 1.307 . S
C133 O125 1.303 . S
C133 O126 1.247 . S
C134 O123 1.253 . S
C134 O124 1.283 . S
C135 O127 1.304 . S
C135 O129 1.272 . S
C136 O128 1.311 . S
C136 O130 1.231 . S
O137 Zn119 1.953 . S
O137 C131 1.298 . S
O138 Zn139 1.953 . S
O138 C154 1.225 . S
Zn139 O138 1.953 . S
Zn139 O140 1.949 . S
Zn139 O146 1.919 . S
Zn139 O151 1.924 . S
O140 Zn139 1.949 . S
O140 Zn141 1.923 . S
O140 Zn142 1.950 . S
O140 Zn143 1.945 . S
Zn141 O140 1.923 . S
Zn141 O144 1.933 . S
Zn141 O147 1.941 . S
Zn141 O148 1.965 . S
Zn142 O140 1.950 . S
Zn142 O149 1.938 . S
Zn142 O150 1.906 . S
Zn142 O160 1.953 . S
Zn143 O140 1.945 . S
Zn143 O145 1.932 . S
Zn143 O152 1.977 . S
Zn143 O153 1.910 . S
O144 Zn141 1.933 . S
O144 C155 1.226 . S
O145 Zn143 1.932 . S
O145 C155 1.307 . S
O146 Zn139 1.919 . S
O146 C157 1.253 . S
O147 Zn141 1.941 . S
O147 C157 1.283 . S
O148 Zn141 1.965 . S
O148 C156 1.303 . S
O149 Zn142 1.938 . S
O149 C156 1.247 . S
O150 Zn142 1.906 . S
O150 C158 1.304 . S
O151 Zn139 1.924 . S
O151 C159 1.311 . S
O152 Zn143 1.977 . S
O152 C158 1.272 . S
O153 Zn143 1.910 . S
O153 C159 1.231 . S
C154 O138 1.225 . S
C154 O160 1.298 . S
C155 O144 1.226 . S
C155 O145 1.307 . S
C156 O148 1.303 . S
C156 O149 1.247 . S
C157 O146 1.253 . S
C157 O147 1.283 . S
C158 O150 1.304 . S
C158 O152 1.272 . S
C159 O151 1.311 . S
C159 O153 1.231 . S
O160 Zn142 1.953 . S
O160 C154 1.298 . S
O161 Zn162 1.953 . S
O161 C177 1.225 . S
Zn162 O161 1.953 . S
Zn162 O163 1.949 . S
Zn162 O169 1.919 . S
Zn162 O174 1.924 . S
O163 Zn162 1.949 . S
O163 Zn164 1.923 . S
O163 Zn165 1.950 . S
O163 Zn166 1.945 . S
Zn164 O163 1.923 . S
Zn164 O167 1.933 . S
Zn164 O170 1.941 . S
Zn164 O171 1.965 . S
Zn165 O163 1.950 . S
Zn165 O172 1.938 . S
Zn165 O173 1.906 . S
Zn165 O183 1.953 . S
Zn166 O163 1.945 . S
Zn166 O168 1.932 . S
Zn166 O175 1.977 . S
Zn166 O176 1.910 . S
O167 Zn164 1.933 . S
O167 C178 1.226 . S
O168 Zn166 1.932 . S
O168 C178 1.307 . S
O169 Zn162 1.919 . S
O169 C180 1.253 . S
O170 Zn164 1.941 . S
O170 C180 1.283 . S
O171 Zn164 1.965 . S
O171 C179 1.303 . S
O172 Zn165 1.938 . S
O172 C179 1.247 . S
O173 Zn165 1.906 . S
O173 C181 1.304 . S
O174 Zn162 1.924 . S
O174 C182 1.311 . S
O175 Zn166 1.977 . S
O175 C181 1.272 . S
O176 Zn166 1.910 . S
O176 C182 1.231 . S
C177 O161 1.225 . S
C177 O183 1.298 . S
C178 O167 1.226 . S
C178 O168 1.307 . S
C179 O171 1.303 . S
C179 O172 1.247 . S
C180 O169 1.253 . S
C180 O170 1.283 . S
C181 O173 1.304 . S
C181 O175 1.272 . S
C182 O174 1.311 . S
C182 O176 1.231 . S
O183 Zn165 1.953 . S
O183 C177 1.298 . S
O184 Zn185 1.953 . S
O184 C200 1.225 . S
Zn185 O184 1.953 . S
Zn185 O186 1.949 . S
Zn185 O192 1.919 . S
Zn185 O197 1.924 . S
O186 Zn185 1.949 . S
O186 Zn187 1.923 . S
O186 Zn188 1.950 . S
O186 Zn189 1.945 . S
Zn187 O186 1.923 . S
Zn187 O190 1.933 . S
Zn187 O193 1.941 . S
Zn187 O194 1.965 . S
Zn188 O186 1.950 . S
Zn188 O195 1.938 . S
Zn188 O196 1.906 . S
Zn188 O206 1.953 . S
Zn189 O186 1.945 . S
Zn189 O191 1.932 . S
Zn189 O198 1.977 . S
Zn189 O199 1.910 . S
O190 Zn187 1.933 . S
O190 C201 1.226 . S
O191 Zn189 1.932 . S
O191 C201 1.307 . S
O192 Zn185 1.919 . S
O192 C203 1.253 . S
O193 Zn187 1.941 . S
O193 C203 1.283 . S
O194 Zn187 1.965 . S
O194 C202 1.303 . S
O195 Zn188 1.938 . S
O195 C202 1.247 . S
O196 Zn188 1.906 . S
O196 C204 1.304 . S
O197 Zn185 1.924 . S
O197 C205 1.311 . S
O198 Zn189 1.977 . S
O198 C204 1.272 . S
O199 Zn189 1.910 . S
O199 C205 1.231 . S
C200 O184 1.225 . S
C200 O206 1.298 . S
C201 O190 1.226 . S
C201 O191 1.307 . S
C202 O194 1.303 . S
C202 O195 1.247 . S
C203 O192 1.253 . S
C203 O193 1.283 . S
C204 O196 1.304 . S
C204 O198 1.272 . S
C205 O197 1.311 . S
C205 O199 1.231 . S
O206 Zn188 1.953 . S
O206 C200 1.298 . S
C207 C208 1.363 . S
C207 C213 1.379 . S
C207 N215 1.356 1_556 S
C208 C207 1.363 . S
C208 C214 1.363 . S
C209 C210 1.363 . S
C209 C214 1.379 . S
C209 N216 1.356 . S
C210 C209 1.363 . S
C210 C213 1.363 . S
N211 C213 1.356 . S
N211 H223 0.984 . S
N211 H224 0.985 . S
N212 C214 1.356 . S
N212 H217 0.984 . S
N212 H218 0.985 . S
C213 C207 1.379 . S
C213 C210 1.363 . S
C213 N211 1.356 . S
C214 C208 1.363 . S
C214 C209 1.379 . S
C214 N212 1.356 . S
N215 C207 1.356 1_554 S
N215 H221 0.984 . S
N215 H222 0.984 . S
N216 C209 1.356 . S
N216 H219 0.984 . S
N216 H220 0.985 . S
H217 N212 0.984 . S
H218 N212 0.985 . S
H219 N216 0.984 . S
H220 N216 0.985 . S
H221 N215 0.984 . S
H222 N215 0.984 . S
H223 N211 0.984 . S
H224 N211 0.985 . S
C225 C226 1.363 . S
C225 C231 1.379 . S
C225 N233 1.356 . S
C226 C225 1.363 . S
C226 C232 1.363 . S
C227 C228 1.363 . S
C227 C232 1.379 . S
C227 N234 1.356 . S
C228 C227 1.363 . S
C228 C231 1.363 . S
N229 C231 1.356 . S
N229 H241 0.984 . S
N229 H242 0.985 . S
N230 C232 1.356 1_554 S
N230 H235 0.984 . S
N230 H236 0.985 . S
C231 C225 1.379 . S
C231 C228 1.363 . S
C231 N229 1.356 . S
C232 C226 1.363 . S
C232 C227 1.379 . S
C232 N230 1.356 1_556 S
N233 C225 1.356 . S
N233 H239 0.984 . S
N233 H240 0.984 . S
N234 C227 1.356 . S
N234 H237 0.984 . S
N234 H238 0.985 . S
H235 N230 0.984 . S
H236 N230 0.985 . S
H237 N234 0.984 . S
H238 N234 0.985 . S
H239 N233 0.984 . S
H240 N233 0.984 . S
H241 N229 0.984 . S
H242 N229 0.985 . S
C243 C244 1.363 . S
C243 C249 1.379 . S
C243 N251 1.356 . S
C244 C243 1.363 . S
C244 C250 1.363 . S
C245 C246 1.363 . S
C245 C250 1.379 . S
C245 N252 1.356 . S
C246 C245 1.363 . S
C246 C249 1.363 . S
N247 C249 1.356 . S
N247 H259 0.984 . S
N247 H260 0.985 . S
N248 C250 1.356 1_554 S
N248 H253 0.984 . S
N248 H254 0.985 . S
C249 C243 1.379 . S
C249 C246 1.363 . S
C249 N247 1.356 . S
C250 C244 1.363 . S
C250 C245 1.379 . S
C250 N248 1.356 1_556 S
N251 C243 1.356 . S
N251 H257 0.984 . S
N251 H258 0.984 . S
N252 C245 1.356 . S
N252 H255 0.984 . S
N252 H256 0.985 . S
H253 N248 0.984 . S
H254 N248 0.985 . S
H255 N252 0.984 . S
H256 N252 0.985 . S
H257 N251 0.984 . S
H258 N251 0.984 . S
H259 N247 0.984 . S
H260 N247 0.985 . S
C261 C262 1.363 . S
C261 C267 1.379 . S
C261 N269 1.356 . S
C262 C261 1.363 . S
C262 C268 1.363 . S
C263 C264 1.363 . S
C263 C268 1.379 . S
C263 N270 1.356 . S
C264 C263 1.363 . S
C264 C267 1.363 . S
N265 C267 1.356 1_556 S
N265 H277 0.984 . S
N265 H278 0.985 . S
N266 C268 1.356 . S
N266 H271 0.984 . S
N266 H272 0.985 . S
C267 C261 1.379 . S
C267 C264 1.363 . S
C267 N265 1.356 1_554 S
C268 C262 1.363 . S
C268 C263 1.379 . S
C268 N266 1.356 . S
N269 C261 1.356 . S
N269 H275 0.984 . S
N269 H276 0.984 . S
N270 C263 1.356 . S
N270 H273 0.984 . S
N270 H274 0.985 . S
H271 N266 0.984 . S
H272 N266 0.985 . S
H273 N270 0.984 . S
H274 N270 0.985 . S
H275 N269 0.984 . S
H276 N269 0.984 . S
H277 N265 0.984 . S
H278 N265 0.985 . S
C279 C280 1.363 . S
C279 C285 1.379 . S
C279 N287 1.356 . S
C280 C279 1.363 . S
C280 C286 1.363 . S
C281 C282 1.363 . S
C281 C286 1.379 . S
C281 N288 1.356 1_554 S
C282 C281 1.363 . S
C282 C285 1.363 . S
N283 C285 1.356 . S
N283 H295 0.984 . S
N283 H296 0.985 . S
N284 C286 1.356 . S
N284 H289 0.984 . S
N284 H290 0.985 . S
C285 C279 1.379 . S
C285 C282 1.363 . S
C285 N283 1.356 . S
C286 C280 1.363 . S
C286 C281 1.379 . S
C286 N284 1.356 . S
N287 C279 1.356 . S
N287 H293 0.984 . S
N287 H294 0.984 . S
N288 C281 1.356 1_556 S
N288 H291 0.984 . S
N288 H292 0.985 . S
H289 N284 0.984 . S
H290 N284 0.985 . S
H291 N288 0.984 . S
H292 N288 0.985 . S
H293 N287 0.984 . S
H294 N287 0.984 . S
H295 N283 0.984 . S
H296 N283 0.985 . S
C297 C298 1.363 . S
C297 C303 1.379 . S
C297 N305 1.356 . S
C298 C297 1.363 . S
C298 C304 1.363 . S
C299 C300 1.363 . S
C299 C304 1.379 . S
C299 N306 1.356 . S
C300 C299 1.363 . S
C300 C303 1.363 . S
N301 C303 1.356 . S
N301 H313 0.984 . S
N301 H314 0.985 . S
N302 C304 1.356 . S
N302 H307 0.984 . S
N302 H308 0.985 . S
C303 C297 1.379 . S
C303 C300 1.363 . S
C303 N301 1.356 . S
C304 C298 1.363 . S
C304 C299 1.379 . S
C304 N302 1.356 . S
N305 C297 1.356 . S
N305 H311 0.984 . S
N305 H312 0.984 . S
N306 C299 1.356 . S
N306 H309 0.984 . S
N306 H310 0.985 . S
H307 N302 0.984 . S
H308 N302 0.985 . S
H309 N306 0.984 . S
H310 N306 0.985 . S
H311 N305 0.984 . S
H312 N305 0.984 . S
H313 N301 0.984 . S
H314 N301 0.985 . S
C315 C316 1.363 . S
C315 C321 1.379 . S
C315 N323 1.356 . S
C316 C315 1.363 . S
C316 C322 1.363 . S
C317 C318 1.363 . S
C317 C322 1.379 1_655 S
C317 N324 1.356 . S
C318 C317 1.363 . S
C318 C321 1.363 1_655 S
N319 C321 1.356 1_655 S
N319 H331 0.984 . S
N319 H332 0.985 . S
N320 C322 1.356 . S
N320 H325 0.984 . S
N320 H326 0.985 . S
C321 C315 1.379 . S
C321 C318 1.363 1_455 S
C321 N319 1.356 1_455 S
C322 C316 1.363 . S
C322 C317 1.379 1_455 S
C322 N320 1.356 . S
N323 C315 1.356 . S
N323 H329 0.984 . S
N323 H330 0.984 . S
N324 C317 1.356 . S
N324 H327 0.984 . S
N324 H328 0.985 . S
H325 N320 0.984 . S
H326 N320 0.985 . S
H327 N324 0.984 . S
H328 N324 0.985 . S
H329 N323 0.984 . S
H330 N323 0.984 . S
H331 N319 0.984 . S
H332 N319 0.985 . S
C333 C334 1.363 . S
C333 C339 1.379 . S
C333 N341 1.356 . S
C334 C333 1.363 . S
C334 C340 1.363 . S
C335 C336 1.363 . S
C335 C340 1.379 . S
C335 N342 1.356 . S
C336 C335 1.363 . S
C336 C339 1.363 . S
N337 C339 1.356 . S
N337 H349 0.984 . S
N337 H350 0.985 . S
N338 C340 1.356 . S
N338 H343 0.984 . S
N338 H344 0.985 . S
C339 C333 1.379 . S
C339 C336 1.363 . S
C339 N337 1.356 . S
C340 C334 1.363 . S
C340 C335 1.379 . S
C340 N338 1.356 . S
N341 C333 1.356 . S
N341 H347 0.984 . S
N341 H348 0.984 . S
N342 C335 1.356 . S
N342 H345 0.984 . S
N342 H346 0.985 . S
H343 N338 0.984 . S
H344 N338 0.985 . S
H345 N342 0.984 . S
H346 N342 0.985 . S
H347 N341 0.984 . S
H348 N341 0.984 . S
H349 N337 0.984 . S
H350 N337 0.985 . S
C351 C352 1.363 . S
C351 C357 1.379 1_545 S
C351 N359 1.356 . S
C352 C351 1.363 . S
C352 C358 1.363 . S
C353 C354 1.363 1_545 S
C353 C358 1.379 . S
C353 N360 1.356 1_545 S
C354 C353 1.363 1_565 S
C354 C357 1.363 . S
N355 C357 1.356 . S
N355 H367 0.984 . S
N355 H368 0.985 . S
N356 C358 1.356 . S
N356 H361 0.984 . S
N356 H362 0.985 . S
C357 C351 1.379 1_565 S
C357 C354 1.363 . S
C357 N355 1.356 . S
C358 C352 1.363 . S
C358 C353 1.379 . S
C358 N356 1.356 . S
N359 C351 1.356 . S
N359 H365 0.984 . S
N359 H366 0.984 . S
N360 C353 1.356 1_565 S
N360 H363 0.984 . S
N360 H364 0.985 1_565 S
H361 N356 0.984 . S
H362 N356 0.985 . S
H363 N360 0.984 . S
H364 N360 0.985 1_545 S
H365 N359 0.984 . S
H366 N359 0.984 . S
H367 N355 0.984 . S
H368 N355 0.985 . S
C369 C370 1.363 . S
C369 C375 1.379 . S
C369 N377 1.356 . S
C370 C369 1.363 . S
C370 C376 1.363 1_556 S
C371 C372 1.363 . S
C371 C376 1.379 . S
C371 N378 1.356 . S
C372 C371 1.363 . S
C372 C375 1.363 1_554 S
N373 C375 1.356 . S
N373 H385 0.984 . S
N373 H386 0.985 . S
N374 C376 1.356 . S
N374 H379 0.984 . S
N374 H380 0.985 . S
C375 C369 1.379 . S
C375 C372 1.363 1_556 S
C375 N373 1.356 . S
C376 C370 1.363 1_554 S
C376 C371 1.379 . S
C376 N374 1.356 . S
N377 C369 1.356 . S
N377 H383 0.984 . S
N377 H384 0.984 . S
N378 C371 1.356 . S
N378 H381 0.984 . S
N378 H382 0.985 . S
H379 N374 0.984 . S
H380 N374 0.985 . S
H381 N378 0.984 . S
H382 N378 0.985 . S
H383 N377 0.984 . S
H384 N377 0.984 . S
H385 N373 0.984 . S
H386 N373 0.985 . S
C387 C388 1.363 . S
C387 C393 1.379 1_565 S
C387 N395 1.356 . S
C388 C387 1.363 . S
C388 C394 1.363 1_554 S
C389 C390 1.363 . S
C389 C394 1.379 1_545 S
C389 N396 1.356 . S
C390 C389 1.363 . S
C390 C393 1.363 1_556 S
N391 C393 1.356 . S
N391 H403 0.984 . S
N391 H404 0.985 . S
N392 C394 1.356 . S
N392 H397 0.984 . S
N392 H398 0.985 . S
C393 C387 1.379 1_545 S
C393 C390 1.363 1_554 S
C393 N391 1.356 . S
C394 C388 1.363 1_556 S
C394 C389 1.379 1_565 S
C394 N392 1.356 . S
N395 C387 1.356 . S
N395 H401 0.984 . S
N395 H402 0.984 . S
N396 C389 1.356 . S
N396 H399 0.984 . S
N396 H400 0.985 . S
H397 N392 0.984 . S
H398 N392 0.985 . S
H399 N396 0.984 . S
H400 N396 0.985 . S
H401 N395 0.984 . S
H402 N395 0.984 . S
H403 N391 0.984 . S
H404 N391 0.985 . S
C405 C406 1.363 1_554 S
C405 C411 1.379 1_655 S
C405 N413 1.356 . S
C406 C405 1.363 1_556 S
C406 C412 1.363 . S
C407 C408 1.363 1_556 S
C407 C412 1.379 1_455 S
C407 N414 1.356 . S
C408 C407 1.363 1_554 S
C408 C411 1.363 . S
N409 C411 1.356 . S
N409 H421 0.984 . S
N409 H422 0.985 . S
N410 C412 1.356 . S
N410 H415 0.984 . S
N410 H416 0.985 . S
C411 C405 1.379 1_455 S
C411 C408 1.363 . S
C411 N409 1.356 . S
C412 C406 1.363 . S
C412 C407 1.379 1_655 S
C412 N410 1.356 . S
N413 C405 1.356 . S
N413 H419 0.984 . S
N413 H420 0.984 . S
N414 C407 1.356 . S
N414 H417 0.984 . S
N414 H418 0.985 . S
H415 N410 0.984 . S
H416 N410 0.985 . S
H417 N414 0.984 . S
H418 N414 0.985 . S
H419 N413 0.984 . S
H420 N413 0.984 . S
H421 N409 0.984 . S
H422 N409 0.985 . S
C423 C424 1.363 . S
C423 C429 1.379 . S
C423 N431 1.356 . S
C424 C423 1.363 . S
C424 C430 1.363 . S
C425 C426 1.363 . S
C425 C430 1.379 . S
C425 N432 1.356 . S
C426 C425 1.363 . S
C426 C429 1.363 . S
N427 C429 1.356 . S
N427 H439 0.984 . S
N427 H440 0.985 . S
N428 C430 1.356 . S
N428 H433 0.984 . S
N428 H434 0.985 . S
C429 C423 1.379 . S
C429 C426 1.363 . S
C429 N427 1.356 . S
C430 C424 1.363 . S
C430 C425 1.379 . S
C430 N428 1.356 . S
N431 C423 1.356 . S
N431 H437 0.984 . S
N431 H438 0.984 . S
N432 C425 1.356 . S
N432 H435 0.984 . S
N432 H436 0.985 . S
H433 N428 0.984 . S
H434 N428 0.985 . S
H435 N432 0.984 . S
H436 N432 0.985 . S
H437 N431 0.984 . S
H438 N431 0.984 . S
H439 N427 0.984 . S
H440 N427 0.985 . S
C441 C442 1.363 . S
C441 C447 1.379 . S
C441 N449 1.356 . S
C442 C441 1.363 . S
C442 C448 1.363 . S
C443 C444 1.363 . S
C443 C448 1.379 . S
C443 N450 1.356 . S
C444 C443 1.363 . S
C444 C447 1.363 . S
N445 C447 1.356 . S
N445 H457 0.984 . S
N445 H458 0.985 . S
N446 C448 1.356 . S
N446 H451 0.984 . S
N446 H452 0.985 . S
C447 C441 1.379 . S
C447 C444 1.363 . S
C447 N445 1.356 . S
C448 C442 1.363 . S
C448 C443 1.379 . S
C448 N446 1.356 . S
N449 C441 1.356 . S
N449 H455 0.984 . S
N449 H456 0.984 . S
N450 C443 1.356 . S
N450 H453 0.984 . S
N450 H454 0.985 . S
H451 N446 0.984 . S
H452 N446 0.985 . S
H453 N450 0.984 . S
H454 N450 0.985 . S
H455 N449 0.984 . S
H456 N449 0.984 . S
H457 N445 0.984 . S
H458 N445 0.985 . S
C459 C460 1.363 . S
C459 C465 1.379 . S
C459 N467 1.356 . S
C460 C459 1.363 . S
C460 C466 1.363 . S
C461 C462 1.363 . S
C461 C466 1.379 . S
C461 N468 1.356 . S
C462 C461 1.363 . S
C462 C465 1.363 . S
N463 C465 1.356 . S
N463 H475 0.984 . S
N463 H476 0.985 . S
N464 C466 1.356 . S
N464 H469 0.984 . S
N464 H470 0.985 . S
C465 C459 1.379 . S
C465 C462 1.363 . S
C465 N463 1.356 . S
C466 C460 1.363 . S
C466 C461 1.379 . S
C466 N464 1.356 . S
N467 C459 1.356 . S
N467 H473 0.984 . S
N467 H474 0.984 . S
N468 C461 1.356 . S
N468 H471 0.984 . S
N468 H472 0.985 . S
H469 N464 0.984 . S
H470 N464 0.985 . S
H471 N468 0.984 . S
H472 N468 0.985 . S
H473 N467 0.984 . S
H474 N467 0.984 . S
H475 N463 0.984 . S
H476 N463 0.985 . S
C477 C478 1.363 . S
C477 C483 1.379 . S
C477 N485 1.356 . S
C478 C477 1.363 . S
C478 C484 1.363 . S
C479 C480 1.363 . S
C479 C484 1.379 . S
C479 N486 1.356 . S
C480 C479 1.363 . S
C480 C483 1.363 . S
N481 C483 1.356 . S
N481 H493 0.984 . S
N481 H494 0.985 . S
N482 C484 1.356 . S
N482 H487 0.984 . S
N482 H488 0.985 . S
C483 C477 1.379 . S
C483 C480 1.363 . S
C483 N481 1.356 . S
C484 C478 1.363 . S
C484 C479 1.379 . S
C484 N482 1.356 . S
N485 C477 1.356 . S
N485 H491 0.984 . S
N485 H492 0.984 . S
N486 C479 1.356 . S
N486 H489 0.984 . S
N486 H490 0.985 . S
H487 N482 0.984 . S
H488 N482 0.985 . S
H489 N486 0.984 . S
H490 N486 0.985 . S
H491 N485 0.984 . S
H492 N485 0.984 . S
H493 N481 0.984 . S
H494 N481 0.985 . S
C495 C496 1.363 . S
C495 C501 1.379 . S
C495 N503 1.356 . S
C496 C495 1.363 . S
C496 C502 1.363 . S
C497 C498 1.363 . S
C497 C502 1.379 . S
C497 N504 1.356 . S
C498 C497 1.363 . S
C498 C501 1.363 . S
N499 C501 1.356 . S
N499 H511 0.984 . S
N499 H512 0.985 . S
N500 C502 1.356 . S
N500 H505 0.984 . S
N500 H506 0.985 . S
C501 C495 1.379 . S
C501 C498 1.363 . S
C501 N499 1.356 . S
C502 C496 1.363 . S
C502 C497 1.379 . S
C502 N500 1.356 . S
N503 C495 1.356 . S
N503 H509 0.984 . S
N503 H510 0.984 . S
N504 C497 1.356 . S
N504 H507 0.984 . S
N504 H508 0.985 . S
H505 N500 0.984 . S
H506 N500 0.985 . S
H507 N504 0.984 . S
H508 N504 0.985 . S
H509 N503 0.984 . S
H510 N503 0.984 . S
H511 N499 0.984 . S
H512 N499 0.985 . S
C513 C514 1.363 . S
C513 C519 1.379 . S
C513 N521 1.356 . S
C514 C513 1.363 . S
C514 C520 1.363 . S
C515 C516 1.363 . S
C515 C520 1.379 . S
C515 N522 1.356 . S
C516 C515 1.363 . S
C516 C519 1.363 . S
N517 C519 1.356 . S
N517 H529 0.984 . S
N517 H530 0.985 . S
N518 C520 1.356 . S
N518 H523 0.984 . S
N518 H524 0.985 . S
C519 C513 1.379 . S
C519 C516 1.363 . S
C519 N517 1.356 . S
C520 C514 1.363 . S
C520 C515 1.379 . S
C520 N518 1.356 . S
N521 C513 1.356 . S
N521 H527 0.984 . S
N521 H528 0.984 . S
N522 C515 1.356 . S
N522 H525 0.984 . S
N522 H526 0.985 . S
H523 N518 0.984 . S
H524 N518 0.985 . S
H525 N522 0.984 . S
H526 N522 0.985 . S
H527 N521 0.984 . S
H528 N521 0.984 . S
H529 N517 0.984 . S
H530 N517 0.985 . S
C531 C532 1.363 1_455 S
C531 C537 1.379 . S
C531 N539 1.356 . S
C532 C531 1.363 1_655 S
C532 C538 1.363 . S
C533 C534 1.363 . S
C533 C538 1.379 1_455 S
C533 N540 1.356 . S
C534 C533 1.363 . S
C534 C537 1.363 . S
N535 C537 1.356 . S
N535 H547 0.984 . S
N535 H548 0.985 . S
N536 C538 1.356 . S
N536 H541 0.984 . S
N536 H542 0.985 . S
C537 C531 1.379 . S
C537 C534 1.363 . S
C537 N535 1.356 . S
C538 C532 1.363 . S
C538 C533 1.379 1_655 S
C538 N536 1.356 . S
N539 C531 1.356 . S
N539 H545 0.984 . S
N539 H546 0.984 1_455 S
N540 C533 1.356 . S
N540 H543 0.984 . S
N540 H544 0.985 . S
H541 N536 0.984 . S
H542 N536 0.985 . S
H543 N540 0.984 . S
H544 N540 0.985 . S
H545 N539 0.984 . S
H546 N539 0.984 1_655 S
H547 N535 0.984 . S
H548 N535 0.985 . S
C549 C550 1.363 . S
C549 C555 1.379 . S
C549 N557 1.356 . S
C550 C549 1.363 . S
C550 C556 1.363 . S
C551 C552 1.363 . S
C551 C556 1.379 . S
C551 N558 1.356 . S
C552 C551 1.363 . S
C552 C555 1.363 . S
N553 C555 1.356 . S
N553 H565 0.984 . S
N553 H566 0.985 . S
N554 C556 1.356 . S
N554 H559 0.984 . S
N554 H560 0.985 . S
C555 C549 1.379 . S
C555 C552 1.363 . S
C555 N553 1.356 . S
C556 C550 1.363 . S
C556 C551 1.379 . S
C556 N554 1.356 . S
N557 C549 1.356 . S
N557 H563 0.984 . S
N557 H564 0.984 . S
N558 C551 1.356 . S
N558 H561 0.984 . S
N558 H562 0.985 . S
H559 N554 0.984 . S
H560 N554 0.985 . S
H561 N558 0.984 . S
H562 N558 0.985 . S
H563 N557 0.984 . S
H564 N557 0.984 . S
H565 N553 0.984 . S
H566 N553 0.985 . S
C567 C568 1.363 . S
C567 C573 1.379 . S
C567 N575 1.356 . S
C568 C567 1.363 . S
C568 C574 1.363 1_545 S
C569 C570 1.363 1_565 S
C569 C574 1.379 . S
C569 N576 1.356 . S
C570 C569 1.363 1_545 S
C570 C573 1.363 . S
N571 C573 1.356 . S
N571 H583 0.984 . S
N571 H584 0.985 . S
N572 C574 1.356 . S
N572 H577 0.984 . S
N572 H578 0.985 . S
C573 C567 1.379 . S
C573 C570 1.363 . S
C573 N571 1.356 . S
C574 C568 1.363 1_565 S
C574 C569 1.379 . S
C574 N572 1.356 . S
N575 C567 1.356 . S
N575 H581 0.984 . S
N575 H582 0.984 . S
N576 C569 1.356 . S
N576 H579 0.984 . S
N576 H580 0.985 . S
H577 N572 0.984 . S
H578 N572 0.985 . S
H579 N576 0.984 . S
H580 N576 0.985 . S
H581 N575 0.984 . S
H582 N575 0.984 . S
H583 N571 0.984 . S
H584 N571 0.985 . S
C585 C586 1.363 . S
C585 C591 1.379 . S
C585 N593 1.356 . S
C586 C585 1.363 . S
C586 C592 1.363 . S
C587 C588 1.363 . S
C587 C592 1.379 . S
C587 N594 1.356 1_556 S
C588 C587 1.363 . S
C588 C591 1.363 . S
N589 C591 1.356 . S
N589 H601 0.984 . S
N589 H602 0.985 . S
N590 C592 1.356 . S
N590 H595 0.984 . S
N590 H596 0.985 . S
C591 C585 1.379 . S
C591 C588 1.363 . S
C591 N589 1.356 . S
C592 C586 1.363 . S
C592 C587 1.379 . S
C592 N590 1.356 . S
N593 C585 1.356 . S
N593 H599 0.984 . S
N593 H600 0.984 . S
N594 C587 1.356 1_554 S
N594 H597 0.984 . S
N594 H598 0.985 . S
H595 N590 0.984 . S
H596 N590 0.985 . S
H597 N594 0.984 . S
H598 N594 0.985 . S
H599 N593 0.984 . S
H600 N593 0.984 . S
H601 N589 0.984 . S
H602 N589 0.985 . S
C603 C604 1.363 . S
C603 C609 1.379 . S
C603 N611 1.356 . S
C604 C603 1.363 . S
C604 C610 1.363 . S
C605 C606 1.363 . S
C605 C610 1.379 . S
C605 N612 1.356 . S
C606 C605 1.363 . S
C606 C609 1.363 . S
N607 C609 1.356 . S
N607 H619 0.984 . S
N607 H620 0.985 1_556 S
N608 C610 1.356 . S
N608 H613 0.984 . S
N608 H614 0.985 . S
C609 C603 1.379 . S
C609 C606 1.363 . S
C609 N607 1.356 . S
C610 C604 1.363 . S
C610 C605 1.379 . S
C610 N608 1.356 . S
N611 C603 1.356 . S
N611 H617 0.984 . S
N611 H618 0.984 . S
N612 C605 1.356 . S
N612 H615 0.984 1_556 S
N612 H616 0.985 . S
H613 N608 0.984 . S
H614 N608 0.985 . S
H615 N612 0.984 1_554 S
H616 N612 0.985 . S
H617 N611 0.984 . S
H618 N611 0.984 . S
H619 N607 0.984 . S
H620 N607 0.985 1_554 S
C621 C622 1.363 . S
C621 C627 1.379 . S
C621 N629 1.356 . S
C622 C621 1.363 . S
C622 C628 1.363 . S
C623 C624 1.363 . S
C623 C628 1.379 . S
C623 N630 1.356 . S
C624 C623 1.363 . S
C624 C627 1.363 . S
N625 C627 1.356 . S
N625 H637 0.984 . S
N625 H638 0.985 1_556 S
N626 C628 1.356 . S
N626 H631 0.984 . S
N626 H632 0.985 . S
C627 C621 1.379 . S
C627 C624 1.363 . S
C627 N625 1.356 . S
C628 C622 1.363 . S
C628 C623 1.379 . S
C628 N626 1.356 . S
N629 C621 1.356 . S
N629 H635 0.984 . S
N629 H636 0.984 . S
N630 C623 1.356 . S
N630 H633 0.984 1_556 S
N630 H634 0.985 . S
H631 N626 0.984 . S
H632 N626 0.985 . S
H633 N630 0.984 1_554 S
H634 N630 0.985 . S
H635 N629 0.984 . S
H636 N629 0.984 . S
H637 N625 0.984 . S
H638 N625 0.985 1_554 S
C639 C640 1.363 . S
C639 C645 1.379 . S
C639 N647 1.356 . S
C640 C639 1.363 . S
C640 C646 1.363 . S
C641 C642 1.363 . S
C641 C646 1.379 . S
C641 N648 1.356 . S
C642 C641 1.363 . S
C642 C645 1.363 . S
N643 C645 1.356 . S
N643 H655 0.984 . S
N643 H656 0.985 1_554 S
N644 C646 1.356 . S
N644 H649 0.984 . S
N644 H650 0.985 . S
C645 C639 1.379 . S
C645 C642 1.363 . S
C645 N643 1.356 . S
C646 C640 1.363 . S
C646 C641 1.379 . S
C646 N644 1.356 . S
N647 C639 1.356 . S
N647 H653 0.984 . S
N647 H654 0.984 . S
N648 C641 1.356 . S
N648 H651 0.984 1_554 S
N648 H652 0.985 . S
H649 N644 0.984 . S
H650 N644 0.985 . S
H651 N648 0.984 1_556 S
H652 N648 0.985 . S
H653 N647 0.984 . S
H654 N647 0.984 . S
H655 N643 0.984 . S
H656 N643 0.985 1_556 S
C657 C658 1.363 . S
C657 C663 1.379 . S
C657 N665 1.356 . S
C658 C657 1.363 . S
C658 C664 1.363 . S
C659 C660 1.363 . S
C659 C664 1.379 . S
C659 N666 1.356 . S
C660 C659 1.363 . S
C660 C663 1.363 . S
N661 C663 1.356 . S
N661 H673 0.984 . S
N661 H674 0.985 . S
N662 C664 1.356 . S
N662 H667 0.984 1_554 S
N662 H668 0.985 . S
C663 C657 1.379 . S
C663 C660 1.363 . S
C663 N661 1.356 . S
C664 C658 1.363 . S
C664 C659 1.379 . S
C664 N662 1.356 . S
N665 C657 1.356 . S
N665 H671 0.984 . S
N665 H672 0.984 1_554 S
N666 C659 1.356 . S
N666 H669 0.984 . S
N666 H670 0.985 . S
H667 N662 0.984 1_556 S
H668 N662 0.985 . S
H669 N666 0.984 . S
H670 N666 0.985 . S
H671 N665 0.984 . S
H672 N665 0.984 1_556 S
H673 N661 0.984 . S
H674 N661 0.985 . S
C675 C676 1.363 . S
C675 C681 1.379 . S
C675 N683 1.356 . S
C676 C675 1.363 . S
C676 C682 1.363 . S
C677 C678 1.363 . S
C677 C682 1.379 . S
C677 N684 1.356 . S
C678 C677 1.363 . S
C678 C681 1.363 . S
N679 C681 1.356 . S
N679 H691 0.984 . S
N679 H692 0.985 . S
N680 C682 1.356 . S
N680 H685 0.984 . S
N680 H686 0.985 . S
C681 C675 1.379 . S
C681 C678 1.363 . S
C681 N679 1.356 . S
C682 C676 1.363 . S
C682 C677 1.379 . S
C682 N680 1.356 . S
N683 C675 1.356 . S
N683 H689 0.984 . S
N683 H690 0.984 . S
N684 C677 1.356 . S
N684 H687 0.984 1_554 S
N684 H688 0.985 . S
H685 N680 0.984 . S
H686 N680 0.985 . S
H687 N684 0.984 1_556 S
H688 N684 0.985 . S
H689 N683 0.984 . S
H690 N683 0.984 . S
H691 N679 0.984 . S
H692 N679 0.985 . S
C208 C18 1.312 . S
C210 C179 1.312 . S
C226 C42 1.281 . S
C228 C203 1.282 . S
C244 C64 1.303 . S
C246 C157 1.291 . S
C262 C111 1.268 . S
C264 C65 1.267 . S
C280 C134 1.273 . S
C282 C19 1.276 . S
C298 C41 1.298 . S
C300 C88 1.286 . S
C316 C180 1.297 . S
C318 C133 1.309 . S
C334 C202 1.320 . S
C336 C87 1.319 . S
C352 C110 1.326 . S
C354 C156 1.326 . S
C370 C67 1.175 1_556 S
C372 C20 1.158 . S
C388 C44 1.177 . S
C390 C21 1.178 1_556 S
C406 C43 1.160 . S
C408 C66 1.160 . S
C424 C90 1.181 . S
C426 C135 1.164 . S
C442 C89 1.166 . S
C444 C113 1.185 . S
C460 C112 1.159 . S
C462 C136 1.179 . S
C478 C205 1.187 . S
C480 C158 1.170 . S
C496 C182 1.185 . S
C498 C159 1.186 . S
C514 C204 1.166 . S
C516 C181 1.169 . S
C532 C16 1.443 . S
C534 C17 1.447 . S
C550 C40 1.444 . S
C552 C39 1.440 . S
C568 C62 1.440 . S
C570 C63 1.443 1_545 S
C586 C85 1.445 . S
C588 C86 1.449 1_556 S
C604 C108 1.442 . S
C606 C109 1.446 1_556 S
C622 C131 1.440 . S
C624 C132 1.444 1_556 S
C640 C154 1.445 . S
C642 C155 1.449 1_554 S
C658 C177 1.445 1_554 S
C660 C178 1.449 . S
C676 C200 1.442 . S
C678 C201 1.446 1_554 S
