# Generated by pormake.
# Topology qtz-g, (3)-cn, num edge types: 1
# Building blocks:
#     Node 0, Type 0, BuildingBlock: OLANEW_clean_sbu_2, # of connection points: 3
#     Node 1, Type 0, BuildingBlock: OLANEW_clean_sbu_2, # of connection points: 3
#     Node 2, Type 0, BuildingBlock: OLANEW_clean_sbu_2, # of connection points: 3
#     Node 3, Type 0, BuildingBlock: OLANEW_clean_sbu_2, # of connection points: 3
#     Node 4, Type 0, BuildingBlock: OLANEW_clean_sbu_2, # of connection points: 3
#     Node 5, Type 0, BuildingBlock: OLANEW_clean_sbu_2, # of connection points: 3
#     Node 6, Type 0, BuildingBlock: OLANEW_clean_sbu_2, # of connection points: 3
#     Node 7, Type 0, BuildingBlock: OLANEW_clean_sbu_2, # of connection points: 3
#     Node 8, Type 0, BuildingBlock: OLANEW_clean_sbu_2, # of connection points: 3
#     Node 9, Type 0, BuildingBlock: OLANEW_clean_sbu_2, # of connection points: 3
#     Node 10, Type 0, BuildingBlock: OLANEW_clean_sbu_2, # of connection points: 3
#     Node 11, Type 0, BuildingBlock: OLANEW_clean_sbu_2, # of connection points: 3
#     Edge 12, Type (0, 0), BuildingBlock: XUDNAN_clean_linker_2, # of connection points: 2
#     Edge 13, Type (0, 0), BuildingBlock: XUDNAN_clean_linker_2, # of connection points: 2
#     Edge 14, Type (0, 0), BuildingBlock: XUDNAN_clean_linker_2, # of connection points: 2
#     Edge 15, Type (0, 0), BuildingBlock: XUDNAN_clean_linker_2, # of connection points: 2
#     Edge 16, Type (0, 0), BuildingBlock: XUDNAN_clean_linker_2, # of connection points: 2
#     Edge 17, Type (0, 0), BuildingBlock: XUDNAN_clean_linker_2, # of connection points: 2
#     Edge 18, Type (0, 0), BuildingBlock: XUDNAN_clean_linker_2, # of connection points: 2
#     Edge 19, Type (0, 0), BuildingBlock: XUDNAN_clean_linker_2, # of connection points: 2
#     Edge 20, Type (0, 0), BuildingBlock: XUDNAN_clean_linker_2, # of connection points: 2
#     Edge 21, Type (0, 0), BuildingBlock: XUDNAN_clean_linker_2, # of connection points: 2
#     Edge 22, Type (0, 0), BuildingBlock: XUDNAN_clean_linker_2, # of connection points: 2
#     Edge 23, Type (0, 0), BuildingBlock: XUDNAN_clean_linker_2, # of connection points: 2
#     Edge 24, Type (0, 0), BuildingBlock: XUDNAN_clean_linker_2, # of connection points: 2
#     Edge 25, Type (0, 0), BuildingBlock: XUDNAN_clean_linker_2, # of connection points: 2
#     Edge 26, Type (0, 0), BuildingBlock: XUDNAN_clean_linker_2, # of connection points: 2
#     Edge 27, Type (0, 0), BuildingBlock: XUDNAN_clean_linker_2, # of connection points: 2
#     Edge 28, Type (0, 0), BuildingBlock: XUDNAN_clean_linker_2, # of connection points: 2
#     Edge 29, Type (0, 0), BuildingBlock: XUDNAN_clean_linker_2, # of connection points: 2
# Relax obj value: 0.011
# Max RMSD: 0.024
# Mean RMSD: 0.024
data_MOF--net-qtz-g--node1-OLANEW_clean_sbu_2--edge1-XUDNAN_clean_linker_2
_symmetry_space_group_name_H-M    P1
_symmetry_Int_Tables_number       1
_symmetry_cell_setting            triclinic
loop_
_symmetry_equiv_pos_as_xyz
'x, y, z'
_cell_length_a     44.331486
_cell_length_b     44.352309
_cell_length_c     84.039764
_cell_angle_alpha  89.992818
_cell_angle_beta   89.998565
_cell_angle_gamma 120.02936
loop_
_atom_site_label
_atom_site_type_symbol
_atom_site_fract_x
_atom_site_fract_y
_atom_site_fract_z
_atom_type_partial_charge
O0 O 0.02096 0.38222 0.06694 0.0
Cd1 Cd 0.03622 0.33683 0.07181 0.0
O2 O 0.07363 0.4273 0.07011 0.0
Cd3 Cd 0.08939 0.39433 0.08253 0.0
O4 O 0.08647 0.36603 0.10425 0.0
C5 C 0.05704 0.35172 0.11118 0.0
O6 O 0.03124 0.35347 0.10441 0.0
C7 C 0.04186 0.4149 0.06626 0.0
C8 C 0.08172 0.33521 0.04918 0.0
O9 O 0.04895 0.32067 0.04642 0.0
O10 O 0.09298 0.35058 0.06257 0.0
O11 O 0.63518 0.02188 0.35251 0.0
Cd12 Cd 0.68434 0.01143 0.35248 0.0
O13 O 0.62732 0.01291 0.37824 0.0
Cd14 Cd 0.60318 0.01221 0.40114 0.0
O15 O 0.5838 0.01181 0.42512 0.0
C16 C 0.59134 0.99659 0.4359 0.0
O17 O 0.60954 0.98171 0.43201 0.0
C18 C 0.61818 0.01987 0.36502 0.0
C19 C 0.74637 0.06995 0.34301 0.0
O20 O 0.72474 0.04891 0.33272 0.0
O21 O 0.73864 0.06339 0.35778 0.0
O22 O 0.61538 0.61587 0.69097 0.0
Cd23 Cd 0.6733 0.66613 0.68655 0.0
O24 O 0.61944 0.63088 0.71604 0.0
Cd25 Cd 0.60355 0.62451 0.74106 0.0
O26 O 0.58666 0.62011 0.76578 0.0
C27 C 0.60433 0.61663 0.77679 0.0
O28 O 0.63249 0.61546 0.77302 0.0
C29 C 0.60208 0.61016 0.7048 0.0
C30 C 0.6721 0.72821 0.68389 0.0
O31 O 0.66909 0.70985 0.67157 0.0
O32 O 0.67553 0.71711 0.69747 0.0
O33 O 0.01188 0.6207 0.02832 0.0
Cd34 Cd 0.01296 0.67464 0.02117 0.0
O35 O 0.99226 0.62395 0.05183 0.0
Cd36 Cd 0.97907 0.60852 0.07676 0.0
O37 O 0.976 0.6109 0.1027 0.0
C38 C 0.97594 0.6375 0.10828 0.0
O39 O 0.97692 0.66079 0.0983 0.0
C40 C 0.00163 0.60818 0.04215 0.0
C41 C 0.94654 0.66698 0.0203 0.0
O42 O 0.96043 0.66285 0.00773 0.0
O43 O 0.96399 0.67453 0.03329 0.0
O44 O 0.37992 0.02268 0.35871 0.0
Cd45 Cd 0.32304 0.01755 0.36311 0.0
O46 O 0.38316 0.01224 0.38396 0.0
Cd47 Cd 0.4091 0.00923 0.40562 0.0
O48 O 0.42707 0.00558 0.42938 0.0
C49 C 0.41763 0.01801 0.44069 0.0
O50 O 0.3988 0.0325 0.43733 0.0
C51 C 0.39668 0.01914 0.37013 0.0
C52 C 0.26706 0.95016 0.3591 0.0
O53 O 0.27966 0.97114 0.34729 0.0
O54 O 0.28126 0.96093 0.37278 0.0
O55 O 0.37529 0.37624 0.68998 0.0
Cd56 Cd 0.32241 0.32061 0.68499 0.0
O57 O 0.36211 0.36853 0.71533 0.0
Cd58 Cd 0.37115 0.38116 0.74068 0.0
O59 O 0.37659 0.3887 0.76642 0.0
C60 C 0.3789 0.41571 0.77285 0.0
O61 O 0.37844 0.43959 0.76377 0.0
C62 C 0.3822 0.38732 0.70421 0.0
C63 C 0.33322 0.26389 0.68375 0.0
O64 O 0.33445 0.28062 0.6711 0.0
O65 O 0.32737 0.27432 0.69701 0.0
O66 O 0.62027 0.99299 0.63357 0.0
Cd67 Cd 0.67843 0.00085 0.6373 0.0
O68 O 0.62745 0.99392 0.60773 0.0
Cd69 Cd 0.61249 0.99469 0.58293 0.0
O70 O 0.59985 0.99258 0.55767 0.0
C71 C 0.57868 0.00145 0.55219 0.0
O72 O 0.5632 0.01242 0.56204 0.0
C73 C 0.60843 0.99109 0.61961 0.0
C74 C 0.67609 0.94351 0.65222 0.0
O75 O 0.67853 0.96909 0.66035 0.0
O76 O 0.67474 0.94507 0.63702 0.0
O77 O 0.62043 0.6103 0.97587 0.0
Cd78 Cd 0.67275 0.66627 0.9812 0.0
O79 O 0.62839 0.62373 0.95057 0.0
Cd80 Cd 0.61571 0.61827 0.92518 0.0
O81 O 0.60827 0.6146 0.89942 0.0
C82 C 0.58195 0.6141 0.89314 0.0
O83 O 0.55879 0.61551 0.90239 0.0
C84 C 0.61052 0.60238 0.96152 0.0
C85 C 0.72725 0.66043 0.99455 0.0
O86 O 0.70457 0.6622 0.00335 0.0
O87 O 0.72388 0.66097 0.97942 0.0
O88 O 0.00274 0.62928 0.30755 0.0
Cd89 Cd 0.99906 0.68218 0.31029 0.0
O90 O 0.99483 0.62913 0.28184 0.0
Cd91 Cd 0.99145 0.61406 0.25675 0.0
O92 O 0.98764 0.61564 0.23081 0.0
C93 C 0.98593 0.64146 0.22534 0.0
O94 O 0.98653 0.66443 0.23541 0.0
C95 C 0.9996 0.61506 0.29406 0.0
C96 C 0.05763 0.7355 0.32533 0.0
O97 O 0.03167 0.71267 0.3334 0.0
O98 O 0.05593 0.73309 0.31012 0.0
O99 O 0.37491 0.98475 0.6379 0.0
Cd100 Cd 0.32156 0.98648 0.64309 0.0
O101 O 0.36729 0.98893 0.61238 0.0
Cd102 Cd 0.38363 0.99459 0.58743 0.0
O103 O 0.39797 0.00104 0.56228 0.0
C104 C 0.41929 0.99274 0.55644 0.0
O105 O 0.43371 0.97981 0.56582 0.0
C106 C 0.38469 0.98569 0.62361 0.0
C107 C 0.33276 0.04864 0.65667 0.0
O108 O 0.32911 0.02329 0.66537 0.0
O109 O 0.33162 0.04475 0.64152 0.0
O110 O 0.37769 0.37383 0.97415 0.0
Cd111 Cd 0.32426 0.31924 0.98011 0.0
O112 O 0.36208 0.37043 0.94916 0.0
Cd113 Cd 0.36807 0.38969 0.9247 0.0
O114 O 0.37336 0.40804 0.90018 0.0
C115 C 0.37654 0.39048 0.88903 0.0
O116 O 0.3768 0.36176 0.89258 0.0
C117 C 0.38439 0.38607 0.9601 0.0
C118 C 0.26856 0.32696 0.99022 0.0
O119 O 0.29147 0.32881 1.0001 0.0
O120 O 0.27234 0.32207 0.97549 0.0
O121 O 0.9993 0.37543 0.27842 0.0
Cd122 Cd 0.99289 0.31962 0.2702 0.0
O123 O 0.96622 0.377 0.25932 0.0
Cd124 Cd 0.96322 0.33253 0.24677 0.0
O125 O 0.97406 0.31276 0.22506 0.0
C126 C 0.00308 0.31394 0.22317 0.0
O127 O 0.02528 0.3243 0.23507 0.0
C128 C 0.98441 0.39027 0.27177 0.0
C129 C 0.94502 0.26611 0.28973 0.0
O130 O 0.97715 0.28445 0.2937 0.0
O131 O 0.93552 0.27283 0.27642 0.0
H132 H 0.05253 0.59167 0.03742 0.0
H133 H 0.94953 0.55252 0.05754 0.0
H134 H 0.94741 0.49726 0.0646 0.0
H135 H 0.04045 0.51098 0.02148 0.0
H136 H 0.08333 0.51953 0.02697 0.0
H137 H 0.07604 0.55521 0.02276 0.0
H138 H 0.10082 0.58197 0.05043 0.0
H139 H 0.10842 0.54653 0.05467 0.0
H140 H 0.08239 0.55592 0.06805 0.0
H141 H 0.95569 0.44565 0.06835 0.0
H142 H 0.97689 0.40417 0.07223 0.0
H143 H 0.07684 0.47916 0.05203 0.0
C144 C 0.02955 0.57133 0.04327 0.0
C145 C 0.00107 0.57599 0.04689 0.0
C146 C 0.9716 0.54927 0.05476 0.0
C147 C 0.9701 0.51781 0.05869 0.0
C148 C 0.99858 0.51391 0.05492 0.0
C149 C 0.02803 0.54018 0.04766 0.0
C150 C 0.05594 0.53022 0.04586 0.0
C151 C 0.06443 0.5289 0.02822 0.0
C152 C 0.08883 0.55514 0.05532 0.0
C153 C 0.03752 0.49417 0.05316 0.0
C154 C 0.00422 0.48502 0.05802 0.0
C155 C 0.98181 0.45261 0.06471 0.0
C156 C 0.994 0.42918 0.06678 0.0
C157 C 0.0285 0.43858 0.06248 0.0
C158 C 0.05042 0.47143 0.05551 0.0
H159 H 0.55733 0.98769 0.38213 0.0
H160 H 0.61091 0.064 0.34495 0.0
H161 H 0.56028 0.07286 0.34247 0.0
H162 H 0.47306 0.9495 0.3654 0.0
H163 H 0.45085 0.94301 0.38414 0.0
H164 H 0.49172 0.94361 0.38338 0.0
H165 H 0.51748 0.99285 0.40446 0.0
H166 H 0.47663 0.99236 0.40533 0.0
H167 H 0.51627 0.03232 0.40094 0.0
H168 H 0.5034 0.07225 0.34362 0.0
H169 H 0.44424 0.06269 0.34849 0.0
H170 H 0.42803 0.98657 0.38485 0.0
C171 C 0.5589 0.00708 0.37384 0.0
C172 C 0.58839 0.0259 0.36403 0.0
C173 C 0.58862 0.04957 0.35267 0.0
C174 C 0.56007 0.05482 0.3512 0.0
C175 C 0.5315 0.03606 0.36116 0.0
C176 C 0.53068 0.01268 0.37226 0.0
C177 C 0.49639 0.99503 0.38117 0.0
C178 C 0.47686 0.95544 0.37834 0.0
C179 C 0.50204 0.00366 0.39903 0.0
C180 C 0.47798 0.01204 0.37328 0.0
C181 C 0.49869 0.03566 0.36179 0.0
C182 C 0.48704 0.05403 0.35267 0.0
C183 C 0.4534 0.04833 0.35548 0.0
C184 C 0.43193 0.02458 0.36733 0.0
C185 C 0.44434 0.00597 0.37619 0.0
H186 H 0.44461 0.41811 0.68865 0.0
H187 H 0.38849 0.43471 0.72672 0.0
H188 H 0.43931 0.49298 0.73165 0.0
H189 H 0.53005 0.46284 0.70732 0.0
H190 H 0.55254 0.48106 0.68885 0.0
H191 H 0.51224 0.44008 0.68886 0.0
H192 H 0.48611 0.46482 0.66859 0.0
H193 H 0.52626 0.50589 0.66857 0.0
H194 H 0.48583 0.50436 0.67325 0.0
H195 H 0.49495 0.55093 0.73121 0.0
H196 H 0.55215 0.60314 0.72624 0.0
H197 H 0.57274 0.54811 0.68902 0.0
C198 C 0.44318 0.43394 0.6981 0.0
C199 C 0.41298 0.42162 0.70758 0.0
C200 C 0.41185 0.44313 0.71973 0.0
C201 C 0.44044 0.47644 0.72248 0.0
C202 C 0.4699 0.48779 0.71295 0.0
C203 C 0.47154 0.46713 0.70106 0.0
C204 C 0.50605 0.48565 0.69236 0.0
C205 C 0.52642 0.46625 0.69448 0.0
C206 C 0.50073 0.49046 0.67464 0.0
C207 C 0.52342 0.52012 0.70109 0.0
C208 C 0.50215 0.52086 0.71291 0.0
C209 C 0.51214 0.55038 0.72222 0.0
C210 C 0.54492 0.57978 0.71947 0.0
C211 C 0.56746 0.57927 0.70767 0.0
C212 C 0.55626 0.54911 0.69827 0.0
H213 H 0.57566 0.01601 0.63847 0.0
H214 H 0.56117 0.95379 0.5963 0.0
H215 H 0.50291 0.94696 0.59234 0.0
H216 H 0.4876 0.9654 0.65269 0.0
H217 H 0.48576 0.00257 0.66012 0.0
H218 H 0.52682 0.00353 0.65931 0.0
H219 H 0.55296 0.05991 0.64238 0.0
H220 H 0.51197 0.05912 0.64313 0.0
H221 H 0.53162 0.0603 0.62419 0.0
H222 H 0.44592 0.94597 0.59328 0.0
H223 H 0.39386 0.95074 0.59908 0.0
H224 H 0.44491 0.01284 0.64088 0.0
C225 C 0.5602 0.001 0.62839 0.0
C226 C 0.57331 0.98636 0.61738 0.0
C227 C 0.55225 0.96655 0.60445 0.0
C228 C 0.51894 0.96212 0.60224 0.0
C229 C 0.50698 0.97736 0.61317 0.0
C230 C 0.52688 0.99627 0.62603 0.0
C231 C 0.50771 0.00955 0.63616 0.0
C232 C 0.50161 0.99434 0.65307 0.0
C233 C 0.52723 0.0496 0.63647 0.0
C234 C 0.47389 0.99507 0.62699 0.0
C235 C 0.47405 0.97665 0.61376 0.0
C236 C 0.44564 0.96069 0.60349 0.0
C237 C 0.41636 0.96386 0.60678 0.0
C238 C 0.41582 0.98293 0.62017 0.0
C239 C 0.44481 0.99836 0.63048 0.0
H240 H 0.42139 0.44166 0.97975 0.0
H241 H 0.42427 0.40086 0.93323 0.0
H242 H 0.48167 0.45275 0.92808 0.0
H243 H 0.46393 0.53306 0.96837 0.0
H244 H 0.48775 0.5479 0.98679 0.0
H245 H 0.44607 0.50839 0.98639 0.0
H246 H 0.4741 0.47455 0.9986 0.0
H247 H 0.51588 0.51389 0.99897 0.0
H248 H 0.51096 0.47585 0.98885 0.0
H249 H 0.54044 0.50741 0.92872 0.0
H250 H 0.59516 0.56166 0.93475 0.0
H251 H 0.55349 0.56746 0.98062 0.0
C252 C 0.43399 0.44387 0.96842 0.0
C253 C 0.41798 0.41776 0.95669 0.0
C254 C 0.4354 0.42124 0.9421 0.0
C255 C 0.46823 0.45041 0.93916 0.0
C256 C 0.48326 0.47577 0.95095 0.0
C257 C 0.46666 0.47286 0.96527 0.0
C258 C 0.48875 0.50339 0.97609 0.0
C259 C 0.47054 0.52443 0.97961 0.0
C260 C 0.49797 0.49117 0.99154 0.0
C261 C 0.52055 0.52374 0.96569 0.0
C262 C 0.51688 0.50741 0.95124 0.0
C263 C 0.54332 0.5208 0.93987 0.0
C264 C 0.57416 0.55192 0.94331 0.0
C265 C 0.57815 0.56946 0.95791 0.0
C266 C 0.55105 0.55485 0.96927 0.0
H267 H 0.96898 0.56214 0.27199 0.0
H268 H 0.03423 0.59478 0.31415 0.0
H269 H 0.03673 0.54044 0.31331 0.0
H270 H 0.9198 0.47207 0.28159 0.0
H271 H 0.91773 0.45724 0.26144 0.0
H272 H 0.92141 0.49895 0.26515 0.0
H273 H 0.97684 0.52911 0.24758 0.0
H274 H 0.97311 0.48744 0.24368 0.0
H275 H 0.01289 0.52237 0.25185 0.0
H276 H 0.03198 0.48261 0.308 0.0
H277 H 0.02113 0.42554 0.29828 0.0
H278 H 0.95955 0.43097 0.25934 0.0
C279 C 0.98456 0.55836 0.28078 0.0
C280 C 0.00202 0.58307 0.29294 0.0
C281 C 0.02079 0.57626 0.30468 0.0
C282 C 0.02239 0.54551 0.3043 0.0
C283 C 0.00496 0.52173 0.29214 0.0
C284 C 0.98646 0.52779 0.28058 0.0
C285 C 0.96975 0.4978 0.26891 0.0
C286 C 0.9298 0.4805 0.26931 0.0
C287 C 0.98401 0.50991 0.25201 0.0
C288 C 0.98181 0.47398 0.27572 0.0
C289 C 0.00202 0.48825 0.28914 0.0
C290 C 0.0162 0.47115 0.29749 0.0
C291 C 0.00985 0.43871 0.29189 0.0
C292 C 0.98948 0.4237 0.27805 0.0
C293 C 0.97515 0.44162 0.26998 0.0
H294 H 0.96677 0.30189 0.19535 0.0
H295 H 0.06465 0.3179 0.21448 0.0
H296 H 0.08642 0.32066 0.18717 0.0
H297 H 0.96462 0.25128 0.15902 0.0
H298 H 0.94648 0.2722 0.14715 0.0
H299 H 0.93631 0.26467 0.16806 0.0
H300 H 0.95821 0.33039 0.172 0.0
H301 H 0.96867 0.33818 0.15122 0.0
H302 H 0.00183 0.36196 0.16592 0.0
H303 H 0.10077 0.33106 0.15799 0.0
H304 H 0.10609 0.34756 0.1296 0.0
H305 H 0.99879 0.32476 0.12977 0.0
C306 C 0.99237 0.30485 0.19384 0.0
C307 C 0.01395 0.30957 0.20707 0.0
C308 C 0.04756 0.31405 0.20454 0.0
C309 C 0.06013 0.31557 0.18905 0.0
C310 C 0.03866 0.3122 0.17625 0.0
C311 C 0.00531 0.30654 0.1785 0.0
C312 C 0.98881 0.30758 0.1629 0.0
C313 C 0.95719 0.27179 0.15906 0.0
C314 C 0.97883 0.33624 0.16303 0.0
C315 C 0.01864 0.31635 0.1516 0.0
C316 C 0.04697 0.3183 0.15945 0.0
C317 C 0.07852 0.32891 0.15167 0.0
C318 C 0.08133 0.33833 0.13555 0.0
C319 C 0.05283 0.33736 0.12745 0.0
C320 C 0.02094 0.32541 0.13555 0.0
H321 H 0.6104 0.97286 0.4618 0.0
H322 H 0.55082 0.02208 0.44808 0.0
H323 H 0.53777 0.02566 0.47643 0.0
H324 H 0.55527 0.92237 0.4951 0.0
H325 H 0.59194 0.92874 0.50691 0.0
H326 H 0.59406 0.92777 0.48552 0.0
H327 H 0.65028 0.98831 0.4858 0.0
H328 H 0.64829 0.98952 0.50715 0.0
H329 H 0.6498 0.02435 0.49547 0.0
H330 H 0.53413 0.02651 0.50668 0.0
H331 H 0.54069 0.02508 0.53587 0.0
H332 H 0.60353 0.97613 0.52915 0.0
C333 C 0.59422 0.984 0.46469 0.0
C334 C 0.5816 0.99715 0.45271 0.0
C335 C 0.56079 0.01183 0.45706 0.0
C336 C 0.55316 0.01389 0.47313 0.0
C337 C 0.56649 0.00108 0.48466 0.0
C338 C 0.58651 0.98636 0.4806 0.0
C339 C 0.59919 0.976 0.49517 0.0
C340 C 0.58421 0.93636 0.4957 0.0
C341 C 0.63926 0.99573 0.49594 0.0
C342 C 0.58377 0.98778 0.50813 0.0
C343 C 0.56469 0.00187 0.50189 0.0
C344 C 0.5488 0.01528 0.51168 0.0
C345 C 0.55272 0.01441 0.52824 0.0
C346 C 0.57273 0.0006 0.53481 0.0
C347 C 0.58808 0.98687 0.52454 0.0
H348 H 0.63786 0.61154 0.80319 0.0
H349 H 0.54713 0.61767 0.78855 0.0
H350 H 0.5305 0.61598 0.81672 0.0
H351 H 0.59691 0.5528 0.83642 0.0
H352 H 0.63542 0.57379 0.84866 0.0
H353 H 0.63945 0.5743 0.82732 0.0
H354 H 0.67623 0.64171 0.82775 0.0
H355 H 0.67229 0.64142 0.84908 0.0
H356 H 0.65877 0.66629 0.83711 0.0
H357 H 0.52463 0.6151 0.84659 0.0
H358 H 0.53019 0.61548 0.87585 0.0
H359 H 0.62491 0.61017 0.87077 0.0
C360 C 0.61437 0.61233 0.80587 0.0
C361 C 0.59379 0.61471 0.79364 0.0
C362 C 0.56332 0.61582 0.7977 0.0
C363 C 0.55363 0.61484 0.81367 0.0
C364 C 0.57463 0.61269 0.82543 0.0
C365 C 0.60434 0.6114 0.82172 0.0
C366 C 0.62281 0.60986 0.83658 0.0
C367 C 0.62368 0.57565 0.83728 0.0
C368 C 0.6597 0.64172 0.83769 0.0
C369 C 0.59907 0.61087 0.84925 0.0
C370 C 0.57133 0.61231 0.84259 0.0
C371 C 0.54619 0.61386 0.85194 0.0
C372 C 0.54958 0.61408 0.86855 0.0
C373 C 0.57798 0.61286 0.87562 0.0
C374 C 0.60287 0.61108 0.86576 0.0
H375 H 0.98401 0.59902 0.20087 0.0
H376 H 0.98236 0.69439 0.21057 0.0
H377 H 0.97863 0.70288 0.18183 0.0
H378 H 0.03679 0.62944 0.16564 0.0
H379 H 0.01358 0.58839 0.15534 0.0
H380 H 0.01555 0.58928 0.17675 0.0
H381 H 0.94812 0.5542 0.1781 0.0
H382 H 0.94594 0.55322 0.15669 0.0
H383 H 0.92326 0.57037 0.16794 0.0
H384 H 0.9758 0.70174 0.15222 0.0
H385 H 0.97435 0.69117 0.12339 0.0
H386 H 0.97768 0.59647 0.13255 0.0
C387 C 0.98279 0.62164 0.19695 0.0
C388 C 0.98346 0.64603 0.20801 0.0
C389 C 0.98187 0.67531 0.20237 0.0
C390 C 0.97973 0.68039 0.18605 0.0
C391 C 0.97915 0.65594 0.17549 0.0
C392 C 0.98062 0.62714 0.18066 0.0
C393 C 0.97987 0.60503 0.16673 0.0
C394 C 0.01345 0.60293 0.16608 0.0
C395 C 0.94736 0.56855 0.16741 0.0
C396 C 0.97793 0.62605 0.15294 0.0
C397 C 0.97747 0.65526 0.1583 0.0
C398 C 0.97608 0.67892 0.14787 0.0
C399 C 0.97526 0.67266 0.13149 0.0
C400 C 0.97586 0.64298 0.12567 0.0
C401 C 0.97708 0.61934 0.1366 0.0
H402 H 0.39507 0.03608 0.46728 0.0
H403 H 0.45818 0.99175 0.45202 0.0
H404 H 0.46854 0.98327 0.4802 0.0
H405 H 0.44606 0.08103 0.50242 0.0
H406 H 0.40793 0.07168 0.51384 0.0
H407 H 0.40787 0.07643 0.49255 0.0
H408 H 0.35261 0.01537 0.49048 0.0
H409 H 0.35256 0.01039 0.51173 0.0
H410 H 0.35316 0.97821 0.49885 0.0
H411 H 0.46885 0.97664 0.5103 0.0
H412 H 0.45948 0.97283 0.53942 0.0
H413 H 0.39554 0.02102 0.53429 0.0
C414 C 0.41144 0.02497 0.46981 0.0
C415 C 0.42583 0.0146 0.45744 0.0
C416 C 0.44687 0.99989 0.46131 0.0
C417 C 0.45295 0.99505 0.47727 0.0
C418 C 0.43788 0.00513 0.48918 0.0
C419 C 0.41766 0.01989 0.48559 0.0
C420 C 0.40309 0.02713 0.50044 0.0
C421 C 0.41709 0.0664 0.50243 0.0
C422 C 0.36299 0.00654 0.50036 0.0
C423 C 0.41775 0.01361 0.51298 0.0
C424 C 0.43798 0.00126 0.50632 0.0
C425 C 0.45337 0.9866 0.51564 0.0
C426 C 0.4478 0.98445 0.53216 0.0
C427 C 0.42672 0.99657 0.53915 0.0
C428 C 0.41184 0.01156 0.52936 0.0
H429 H 0.37987 0.35668 0.86237 0.0
H430 H 0.37851 0.44948 0.87771 0.0
H431 H 0.38104 0.4672 0.84965 0.0
H432 H 0.43904 0.39639 0.8291 0.0
H433 H 0.4165 0.3583 0.81671 0.0
H434 H 0.41599 0.35373 0.83802 0.0
H435 H 0.34845 0.31955 0.83772 0.0
H436 H 0.34875 0.32403 0.81642 0.0
H437 H 0.32535 0.33891 0.82863 0.0
H438 H 0.38205 0.47388 0.8198 0.0
H439 H 0.38084 0.46867 0.7905 0.0
H440 H 0.38117 0.37128 0.7949 0.0
C441 C 0.38033 0.38086 0.85986 0.0
C442 C 0.37903 0.40171 0.87225 0.0
C443 C 0.37951 0.43307 0.86842 0.0
C444 C 0.38099 0.44339 0.85252 0.0
C445 C 0.38203 0.42209 0.8406 0.0
C446 C 0.38175 0.3915 0.84409 0.0
C447 C 0.38215 0.37282 0.82908 0.0
C448 C 0.4154 0.37017 0.82818 0.0
C449 C 0.34921 0.3367 0.8279 0.0
C450 C 0.38228 0.39746 0.8166 0.0
C451 C 0.38242 0.42584 0.82346 0.0
C452 C 0.38207 0.45184 0.81429 0.0
C453 C 0.38137 0.44864 0.79766 0.0
C454 C 0.38089 0.41957 0.79038 0.0
C455 C 0.38156 0.39384 0.80006 0.0
H456 H 0.25758 0.34542 0.01987 0.0
H457 H 0.21033 0.31302 0.97317 0.0
H458 H 0.15783 0.31321 0.98291 0.0
H459 H 0.18125 0.29464 0.04248 0.0
H460 H 0.19174 0.32716 0.05763 0.0
H461 H 0.22612 0.3259 0.0468 0.0
H462 H 0.25106 0.39032 0.03841 0.0
H463 H 0.21681 0.39182 0.04928 0.0
H464 H 0.2232 0.40314 0.02847 0.0
H465 H 0.10897 0.31326 0.9983 0.0
H466 H 0.06878 0.31632 0.01779 0.0
H467 H 0.14901 0.35067 0.05406 0.0
C468 C 0.23632 0.33863 0.01164 0.0
C469 C 0.23803 0.32915 0.99576 0.0
C470 C 0.20964 0.32046 0.98537 0.0
C471 C 0.1797 0.32045 0.9908 0.0
C472 C 0.17871 0.32952 0.00659 0.0
C473 C 0.20641 0.33879 0.01681 0.0
C474 C 0.19866 0.34712 0.03326 0.0
C475 C 0.19949 0.32221 0.04578 0.0
C476 C 0.22394 0.38537 0.0376 0.0
C477 C 0.16205 0.34056 0.03077 0.0
C478 C 0.15096 0.33037 0.01532 0.0
C479 C 0.11751 0.32156 0.01039 0.0
C480 C 0.09484 0.32328 0.02154 0.0
C481 C 0.10583 0.33392 0.0374 0.0
C482 C 0.13996 0.3428 0.04198 0.0
H483 H 0.87893 0.21405 0.28235 0.0
H484 H 0.95369 0.25547 0.32104 0.0
H485 H 0.91088 0.21003 0.33896 0.0
H486 H 0.80247 0.19125 0.30543 0.0
H487 H 0.77526 0.15163 0.29461 0.0
H488 H 0.81168 0.18757 0.28485 0.0
H489 H 0.83627 0.14739 0.27724 0.0
H490 H 0.79988 0.11131 0.28694 0.0
H491 H 0.84376 0.12352 0.29261 0.0
H492 H 0.85921 0.16125 0.35288 0.0
H493 H 0.80366 0.11034 0.36137 0.0
H494 H 0.76365 0.09923 0.31329 0.0
C495 C 0.88629 0.21358 0.29459 0.0
C496 C 0.9196 0.23838 0.30032 0.0
C497 C 0.92834 0.2367 0.31639 0.0
C498 C 0.90417 0.21105 0.32667 0.0
C499 C 0.87153 0.18707 0.32065 0.0
C500 C 0.86266 0.1879 0.30496 0.0
C501 C 0.82609 0.15867 0.3014 0.0
C502 C 0.80249 0.17316 0.29627 0.0
C503 C 0.82655 0.13375 0.2888 0.0
C504 C 0.81571 0.14141 0.31757 0.0
C505 C 0.84218 0.15833 0.32854 0.0
C506 C 0.83837 0.14765 0.34437 0.0
C507 C 0.8067 0.11878 0.34909 0.0
C508 C 0.77942 0.10073 0.33798 0.0
C509 C 0.78413 0.11231 0.32202 0.0
H510 H 0.66831 0.75999 0.65656 0.0
H511 H 0.67597 0.77172 0.70794 0.0
H512 H 0.67691 0.82768 0.70548 0.0
H513 H 0.72579 0.8496 0.64722 0.0
H514 H 0.701 0.84963 0.63022 0.0
H515 H 0.70002 0.81009 0.63606 0.0
H516 H 0.63266 0.77852 0.63798 0.0
H517 H 0.63343 0.81796 0.63212 0.0
H518 H 0.61238 0.79647 0.6504 0.0
H519 H 0.6779 0.88282 0.69737 0.0
H520 H 0.67899 0.93314 0.68419 0.0
H521 H 0.67092 0.88529 0.63814 0.0
C522 C 0.67004 0.77422 0.66731 0.0
C523 C 0.67203 0.76144 0.68245 0.0
C524 C 0.6744 0.78097 0.69621 0.0
C525 C 0.67494 0.81278 0.69494 0.0
C526 C 0.67308 0.82468 0.67983 0.0
C527 C 0.67066 0.806 0.66626 0.0
C528 C 0.6695 0.82478 0.65143 0.0
C529 C 0.70095 0.83408 0.6406 0.0
C530 C 0.63493 0.80314 0.64246 0.0
C531 C 0.67179 0.85703 0.65877 0.0
C532 C 0.67376 0.85645 0.67516 0.0
C533 C 0.67631 0.88354 0.68454 0.0
C534 C 0.67692 0.91201 0.67694 0.0
C535 C 0.67504 0.91318 0.66014 0.0
C536 C 0.67237 0.8852 0.651 0.0
H537 H 0.90685 0.65963 0.99396 0.0
H538 H 0.90761 0.6676 0.04547 0.0
H539 H 0.85028 0.66417 0.04457 0.0
H540 H 0.86955 0.71278 0.9864 0.0
H541 H 0.84376 0.68742 0.96973 0.0
H542 H 0.88386 0.68847 0.97449 0.0
H543 H 0.85083 0.6211 0.97637 0.0
H544 H 0.81059 0.61984 0.9716 0.0
H545 H 0.8139 0.59936 0.98952 0.0
H546 H 0.79373 0.66171 0.03799 0.0
H547 H 0.74268 0.66163 0.02618 0.0
H548 H 0.77934 0.65604 0.97896 0.0
C549 C 0.89483 0.66032 0.00507 0.0
C550 C 0.91167 0.66377 0.0198 0.0
C551 C 0.8952 0.66494 0.03405 0.0
C552 C 0.86261 0.66294 0.03366 0.0
C553 C 0.84685 0.65981 0.01894 0.0
C554 C 0.86241 0.65853 0.0049 0.0
C555 C 0.8406 0.6564 0.99061 0.0
C556 C 0.86064 0.68816 0.97967 0.0
C557 C 0.82825 0.62213 0.98149 0.0
C558 C 0.81049 0.65702 0.9988 0.0
C559 C 0.81447 0.65875 0.01514 0.0
C560 C 0.79027 0.66022 0.02521 0.0
C561 C 0.76135 0.66016 0.01839 0.0
C562 C 0.75697 0.65881 0.00165 0.0
C563 C 0.78185 0.65699 0.99179 0.0
H564 H 0.23371 0.91852 0.33132 0.0
H565 H 0.23081 0.9023 0.38238 0.0
H566 H 0.17789 0.84474 0.37921 0.0
H567 H 0.14262 0.87996 0.32561 0.0
H568 H 0.14209 0.86019 0.3068 0.0
H569 H 0.1806 0.89943 0.31299 0.0
H570 H 0.21718 0.869 0.30971 0.0
H571 H 0.17877 0.82967 0.30345 0.0
H572 H 0.2041 0.82863 0.32 0.0
H573 H 0.12353 0.79038 0.37063 0.0
H574 H 0.07276 0.74222 0.35716 0.0
H575 H 0.11195 0.79343 0.31165 0.0
C576 C 0.22213 0.90277 0.34183 0.0
C577 C 0.2364 0.91494 0.35711 0.0
C578 C 0.22039 0.89352 0.37056 0.0
C579 C 0.19032 0.86078 0.36888 0.0
C580 C 0.17673 0.84975 0.35367 0.0
C581 C 0.19223 0.86998 0.34037 0.0
C582 C 0.1721 0.85231 0.3254 0.0
C583 C 0.15855 0.87428 0.31722 0.0
C584 C 0.19437 0.84443 0.31397 0.0
C585 C 0.14255 0.8192 0.33238 0.0
C586 C 0.14571 0.81821 0.34871 0.0
C587 C 0.12093 0.79073 0.35784 0.0
C588 C 0.09215 0.76354 0.35008 0.0
C589 C 0.08845 0.76398 0.33335 0.0
C590 C 0.11416 0.79217 0.32444 0.0
H591 H 0.33809 0.23093 0.65709 0.0
H592 H 0.33672 0.22599 0.7087 0.0
H593 H 0.34007 0.17211 0.7074 0.0
H594 H 0.28384 0.14091 0.65063 0.0
H595 H 0.30675 0.13929 0.63322 0.0
H596 H 0.30708 0.17891 0.63822 0.0
H597 H 0.37461 0.21244 0.63829 0.0
H598 H 0.37449 0.17289 0.63326 0.0
H599 H 0.39753 0.19728 0.65067 0.0
H600 H 0.34024 0.11703 0.70045 0.0
H601 H 0.33673 0.06462 0.68837 0.0
H602 H 0.33762 0.1055 0.64131 0.0
C603 C 0.33898 0.21881 0.66813 0.0
C604 C 0.33727 0.23276 0.683 0.0
C605 C 0.33806 0.21583 0.69717 0.0
C606 C 0.34003 0.18525 0.69655 0.0
C607 C 0.34124 0.17197 0.68169 0.0
C608 C 0.34081 0.18824 0.66774 0.0
C609 C 0.34068 0.16774 0.6533 0.0
C610 C 0.30762 0.15602 0.64326 0.0
C611 C 0.37381 0.18885 0.64329 0.0
C612 C 0.34055 0.13711 0.66132 0.0
C613 C 0.34114 0.14016 0.67769 0.0
C614 C 0.34004 0.11449 0.68764 0.0
C615 C 0.33801 0.08479 0.68066 0.0
C616 C 0.33697 0.08096 0.66389 0.0
C617 C 0.33859 0.10771 0.65416 0.0
loop_
_geom_bond_atom_site_label_1
_geom_bond_atom_site_label_2
_geom_bond_distance
_geom_bond_site_symmetry_2
_ccdc_geom_bond_type
O0 Cd1 2.300 . S
O0 C7 1.275 . S
Cd1 O0 2.300 . S
Cd1 O9 2.381 . S
Cd1 O10 2.378 . S
O2 Cd3 2.385 . S
O2 C7 1.255 . S
Cd3 O2 2.385 . S
Cd3 O4 2.317 . S
O4 Cd3 2.317 . S
O4 C5 1.232 . S
C5 O4 1.232 . S
C5 O6 1.218 . S
O6 C5 1.218 . S
C7 O0 1.275 . S
C7 O2 1.255 . S
C8 O9 1.258 . S
C8 O10 1.256 . S
O9 Cd1 2.381 . S
O9 C8 1.258 . S
O10 Cd1 2.378 . S
O10 C8 1.256 . S
O11 Cd12 2.300 . S
O11 C18 1.275 . S
Cd12 O11 2.300 . S
Cd12 O20 2.381 . S
Cd12 O21 2.378 . S
O13 Cd14 2.385 . S
O13 C18 1.255 . S
Cd14 O13 2.385 . S
Cd14 O15 2.317 . S
O15 Cd14 2.317 . S
O15 C16 1.232 . S
C16 O15 1.232 . S
C16 O17 1.218 . S
O17 C16 1.218 . S
C18 O11 1.275 . S
C18 O13 1.255 . S
C19 O20 1.258 . S
C19 O21 1.256 . S
O20 Cd12 2.381 . S
O20 C19 1.258 . S
O21 Cd12 2.378 . S
O21 C19 1.256 . S
O22 Cd23 2.300 . S
O22 C29 1.275 . S
Cd23 O22 2.300 . S
Cd23 O31 2.381 . S
Cd23 O32 2.378 . S
O24 Cd25 2.385 . S
O24 C29 1.255 . S
Cd25 O24 2.385 . S
Cd25 O26 2.317 . S
O26 Cd25 2.317 . S
O26 C27 1.232 . S
C27 O26 1.232 . S
C27 O28 1.218 . S
O28 C27 1.218 . S
C29 O22 1.275 . S
C29 O24 1.255 . S
C30 O31 1.258 . S
C30 O32 1.256 . S
O31 Cd23 2.381 . S
O31 C30 1.258 . S
O32 Cd23 2.378 . S
O32 C30 1.256 . S
O33 Cd34 2.300 . S
O33 C40 1.275 . S
Cd34 O33 2.300 . S
Cd34 O42 2.381 . S
Cd34 O43 2.378 . S
O35 Cd36 2.385 . S
O35 C40 1.255 . S
Cd36 O35 2.385 . S
Cd36 O37 2.317 . S
O37 Cd36 2.317 . S
O37 C38 1.232 . S
C38 O37 1.232 . S
C38 O39 1.218 . S
O39 C38 1.218 . S
C40 O33 1.275 . S
C40 O35 1.255 . S
C41 O42 1.258 . S
C41 O43 1.256 . S
O42 Cd34 2.381 . S
O42 C41 1.258 . S
O43 Cd34 2.378 . S
O43 C41 1.256 . S
O44 Cd45 2.300 . S
O44 C51 1.275 . S
Cd45 O44 2.300 . S
Cd45 O53 2.381 . S
Cd45 O54 2.378 . S
O46 Cd47 2.385 . S
O46 C51 1.255 . S
Cd47 O46 2.385 . S
Cd47 O48 2.317 . S
O48 Cd47 2.317 . S
O48 C49 1.232 . S
C49 O48 1.232 . S
C49 O50 1.218 . S
O50 C49 1.218 . S
C51 O44 1.275 . S
C51 O46 1.255 . S
C52 O53 1.258 . S
C52 O54 1.256 . S
O53 Cd45 2.381 . S
O53 C52 1.258 . S
O54 Cd45 2.378 . S
O54 C52 1.256 . S
O55 Cd56 2.300 . S
O55 C62 1.275 . S
Cd56 O55 2.300 . S
Cd56 O64 2.381 . S
Cd56 O65 2.378 . S
O57 Cd58 2.385 . S
O57 C62 1.255 . S
Cd58 O57 2.385 . S
Cd58 O59 2.317 . S
O59 Cd58 2.317 . S
O59 C60 1.232 . S
C60 O59 1.232 . S
C60 O61 1.218 . S
O61 C60 1.218 . S
C62 O55 1.275 . S
C62 O57 1.255 . S
C63 O64 1.258 . S
C63 O65 1.256 . S
O64 Cd56 2.381 . S
O64 C63 1.258 . S
O65 Cd56 2.378 . S
O65 C63 1.256 . S
O66 Cd67 2.300 . S
O66 C73 1.275 . S
Cd67 O66 2.300 . S
Cd67 O75 2.381 . S
Cd67 O76 2.378 . S
O68 Cd69 2.385 . S
O68 C73 1.255 . S
Cd69 O68 2.385 . S
Cd69 O70 2.317 . S
O70 Cd69 2.317 . S
O70 C71 1.232 . S
C71 O70 1.232 . S
C71 O72 1.218 . S
O72 C71 1.218 . S
C73 O66 1.275 . S
C73 O68 1.255 . S
C74 O75 1.258 . S
C74 O76 1.256 . S
O75 Cd67 2.381 . S
O75 C74 1.258 . S
O76 Cd67 2.378 . S
O76 C74 1.256 . S
O77 Cd78 2.300 . S
O77 C84 1.275 . S
Cd78 O77 2.300 . S
Cd78 O86 2.381 . S
Cd78 O87 2.378 . S
O79 Cd80 2.385 . S
O79 C84 1.255 . S
Cd80 O79 2.385 . S
Cd80 O81 2.317 . S
O81 Cd80 2.317 . S
O81 C82 1.232 . S
C82 O81 1.232 . S
C82 O83 1.218 . S
O83 C82 1.218 . S
C84 O77 1.275 . S
C84 O79 1.255 . S
C85 O86 1.258 . S
C85 O87 1.256 . S
O86 Cd78 2.381 . S
O86 C85 1.258 . S
O87 Cd78 2.378 . S
O87 C85 1.256 . S
O88 Cd89 2.300 . S
O88 C95 1.275 . S
Cd89 O88 2.300 . S
Cd89 O97 2.381 . S
Cd89 O98 2.378 . S
O90 Cd91 2.385 . S
O90 C95 1.255 . S
Cd91 O90 2.385 . S
Cd91 O92 2.317 . S
O92 Cd91 2.317 . S
O92 C93 1.232 . S
C93 O92 1.232 . S
C93 O94 1.218 . S
O94 C93 1.218 . S
C95 O88 1.275 . S
C95 O90 1.255 . S
C96 O97 1.258 . S
C96 O98 1.256 . S
O97 Cd89 2.381 . S
O97 C96 1.258 . S
O98 Cd89 2.378 . S
O98 C96 1.256 . S
O99 Cd100 2.300 . S
O99 C106 1.275 . S
Cd100 O99 2.300 . S
Cd100 O108 2.381 . S
Cd100 O109 2.378 . S
O101 Cd102 2.385 . S
O101 C106 1.255 . S
Cd102 O101 2.385 . S
Cd102 O103 2.317 . S
O103 Cd102 2.317 . S
O103 C104 1.232 . S
C104 O103 1.232 . S
C104 O105 1.218 . S
O105 C104 1.218 . S
C106 O99 1.275 . S
C106 O101 1.255 . S
C107 O108 1.258 . S
C107 O109 1.256 . S
O108 Cd100 2.381 . S
O108 C107 1.258 . S
O109 Cd100 2.378 . S
O109 C107 1.256 . S
O110 Cd111 2.300 . S
O110 C117 1.275 . S
Cd111 O110 2.300 . S
Cd111 O119 2.381 . S
Cd111 O120 2.378 . S
O112 Cd113 2.385 . S
O112 C117 1.255 . S
Cd113 O112 2.385 . S
Cd113 O114 2.317 . S
O114 Cd113 2.317 . S
O114 C115 1.232 . S
C115 O114 1.232 . S
C115 O116 1.218 . S
O116 C115 1.218 . S
C117 O110 1.275 . S
C117 O112 1.255 . S
C118 O119 1.258 . S
C118 O120 1.256 . S
O119 Cd111 2.381 . S
O119 C118 1.258 . S
O120 Cd111 2.378 . S
O120 C118 1.256 . S
O121 Cd122 2.300 . S
O121 C128 1.275 . S
Cd122 O121 2.300 . S
Cd122 O130 2.381 . S
Cd122 O131 2.378 . S
O123 Cd124 2.385 . S
O123 C128 1.255 . S
Cd124 O123 2.385 . S
Cd124 O125 2.317 . S
O125 Cd124 2.317 . S
O125 C126 1.232 . S
C126 O125 1.232 . S
C126 O127 1.218 . S
O127 C126 1.218 . S
C128 O121 1.275 . S
C128 O123 1.255 . S
C129 O130 1.258 . S
C129 O131 1.256 . S
O130 Cd122 2.381 . S
O130 C129 1.258 . S
O131 Cd122 2.378 . S
O131 C129 1.256 . S
H132 C144 0.930 . S
H133 C146 0.930 . S
H134 C147 0.930 . S
H135 C151 0.959 . S
H136 C151 0.959 . S
H137 C151 0.961 . S
H138 C152 0.960 . S
H139 C152 0.961 . S
H140 C152 0.959 . S
H141 C155 0.929 . S
H142 C156 0.931 . S
H143 C158 0.930 . S
C144 H132 0.930 . S
C144 C145 1.399 1_455 S
C144 C149 1.399 . S
C145 C144 1.399 1_655 S
C145 C146 1.376 . S
C146 H133 0.930 . S
C146 C145 1.376 . S
C146 C147 1.388 . S
C147 H134 0.930 . S
C147 C146 1.388 . S
C147 C148 1.390 . S
C148 C147 1.390 . S
C148 C149 1.394 1_655 S
C148 C154 1.465 . S
C149 C144 1.399 . S
C149 C148 1.394 1_455 S
C149 C150 1.516 . S
C150 C149 1.516 . S
C150 C151 1.502 . S
C150 C152 1.561 . S
C150 C153 1.526 . S
C151 H135 0.959 . S
C151 H136 0.959 . S
C151 H137 0.961 . S
C151 C150 1.502 . S
C152 H138 0.960 . S
C152 H139 0.961 . S
C152 H140 0.959 . S
C152 C150 1.561 . S
C153 C150 1.526 . S
C153 C154 1.396 1_455 S
C153 C158 1.390 . S
C154 C148 1.465 . S
C154 C153 1.396 1_655 S
C154 C155 1.399 . S
C155 H141 0.929 . S
C155 C154 1.399 . S
C155 C156 1.385 . S
C156 H142 0.931 . S
C156 C155 1.385 . S
C156 C157 1.389 . S
C157 C156 1.389 . S
C157 C158 1.387 1_655 S
C158 H143 0.930 . S
C158 C153 1.390 . S
C158 C157 1.387 1_455 S
H159 C171 0.930 . S
H160 C173 0.930 . S
H161 C174 0.930 . S
H162 C178 0.959 . S
H163 C178 0.959 . S
H164 C178 0.961 . S
H165 C179 0.960 . S
H166 C179 0.961 1_565 S
H167 C179 0.959 . S
H168 C182 0.929 . S
H169 C183 0.931 . S
H170 C185 0.930 . S
C171 H159 0.930 . S
C171 C172 1.399 1_565 S
C171 C176 1.399 . S
C172 C171 1.399 1_545 S
C172 C173 1.376 . S
C173 H160 0.930 . S
C173 C172 1.376 . S
C173 C174 1.388 . S
C174 H161 0.930 . S
C174 C173 1.388 . S
C174 C175 1.390 . S
C175 C174 1.390 . S
C175 C176 1.394 1_545 S
C175 C181 1.465 . S
C176 C171 1.399 . S
C176 C175 1.394 1_565 S
C176 C177 1.516 . S
C177 C176 1.516 . S
C177 C178 1.502 . S
C177 C179 1.561 1_565 S
C177 C180 1.526 . S
C178 H162 0.959 . S
C178 H163 0.959 . S
C178 H164 0.961 . S
C178 C177 1.502 . S
C179 H165 0.960 . S
C179 H166 0.961 1_545 S
C179 H167 0.959 . S
C179 C177 1.561 1_545 S
C180 C177 1.526 . S
C180 C181 1.396 1_565 S
C180 C185 1.390 . S
C181 C175 1.465 . S
C181 C180 1.396 1_545 S
C181 C182 1.399 . S
C182 H168 0.929 . S
C182 C181 1.399 . S
C182 C183 1.385 . S
C183 H169 0.931 . S
C183 C182 1.385 . S
C183 C184 1.388 1_545 S
C184 C183 1.388 1_565 S
C184 C185 1.390 . S
C185 H170 0.930 . S
C185 C180 1.390 . S
C185 C184 1.390 . S
H186 C198 0.930 . S
H187 C200 0.930 . S
H188 C201 0.930 . S
H189 C205 0.959 . S
H190 C205 0.959 . S
H191 C205 0.961 . S
H192 C206 0.960 . S
H193 C206 0.961 . S
H194 C206 0.959 . S
H195 C209 0.929 . S
H196 C210 0.931 . S
H197 C212 0.930 . S
C198 H186 0.930 . S
C198 C199 1.399 . S
C198 C203 1.399 . S
C199 C198 1.399 . S
C199 C200 1.376 . S
C200 H187 0.930 . S
C200 C199 1.376 . S
C200 C201 1.388 . S
C201 H188 0.930 . S
C201 C200 1.388 . S
C201 C202 1.390 . S
C202 C201 1.390 . S
C202 C203 1.394 . S
C202 C208 1.465 . S
C203 C198 1.399 . S
C203 C202 1.394 . S
C203 C204 1.516 . S
C204 C203 1.516 . S
C204 C205 1.502 . S
C204 C206 1.561 . S
C204 C207 1.526 . S
C205 H189 0.959 . S
C205 H190 0.959 . S
C205 H191 0.961 . S
C205 C204 1.502 . S
C206 H192 0.960 . S
C206 H193 0.961 . S
C206 H194 0.959 . S
C206 C204 1.561 . S
C207 C204 1.526 . S
C207 C208 1.396 . S
C207 C212 1.390 . S
C208 C202 1.465 . S
C208 C207 1.396 . S
C208 C209 1.399 . S
C209 H195 0.929 . S
C209 C208 1.399 . S
C209 C210 1.385 . S
C210 H196 0.931 . S
C210 C209 1.385 . S
C210 C211 1.389 . S
C211 C210 1.389 . S
C211 C212 1.387 . S
C212 H197 0.930 . S
C212 C207 1.390 . S
C212 C211 1.387 . S
H213 C225 0.930 . S
H214 C227 0.930 . S
H215 C228 0.930 . S
H216 C232 0.959 1_565 S
H217 C232 0.959 . S
H218 C232 0.961 . S
H219 C233 0.960 . S
H220 C233 0.961 . S
H221 C233 0.959 . S
H222 C236 0.929 . S
H223 C237 0.931 . S
H224 C239 0.930 . S
C225 H213 0.930 . S
C225 C226 1.399 1_545 S
C225 C230 1.399 . S
C226 C225 1.399 1_565 S
C226 C227 1.376 . S
C227 H214 0.930 . S
C227 C226 1.376 . S
C227 C228 1.388 . S
C228 H215 0.930 . S
C228 C227 1.388 . S
C228 C229 1.390 . S
C229 C228 1.390 . S
C229 C230 1.394 1_565 S
C229 C235 1.465 . S
C230 C225 1.399 . S
C230 C229 1.394 1_545 S
C230 C231 1.516 . S
C231 C230 1.516 . S
C231 C232 1.502 . S
C231 C233 1.561 . S
C231 C234 1.526 . S
C232 H216 0.959 1_545 S
C232 H217 0.959 . S
C232 H218 0.961 . S
C232 C231 1.502 . S
C233 H219 0.960 . S
C233 H220 0.961 . S
C233 H221 0.959 . S
C233 C231 1.561 . S
C234 C231 1.526 . S
C234 C235 1.396 1_545 S
C234 C239 1.390 . S
C235 C229 1.465 . S
C235 C234 1.396 1_565 S
C235 C236 1.399 . S
C236 H222 0.929 . S
C236 C235 1.399 . S
C236 C237 1.385 . S
C237 H223 0.931 . S
C237 C236 1.385 . S
C237 C238 1.379 1_565 S
C238 C237 1.379 1_545 S
C238 C239 1.387 . S
C239 H224 0.930 . S
C239 C234 1.390 . S
C239 C238 1.387 . S
H240 C252 0.930 . S
H241 C254 0.930 . S
H242 C255 0.930 . S
H243 C259 0.959 . S
H244 C259 0.959 . S
H245 C259 0.961 . S
H246 C260 0.960 . S
H247 C260 0.961 . S
H248 C260 0.959 . S
H249 C263 0.929 . S
H250 C264 0.931 . S
H251 C266 0.930 . S
C252 H240 0.930 . S
C252 C253 1.399 . S
C252 C257 1.399 . S
C253 C252 1.399 . S
C253 C254 1.376 . S
C254 H241 0.930 . S
C254 C253 1.376 . S
C254 C255 1.388 . S
C255 H242 0.930 . S
C255 C254 1.388 . S
C255 C256 1.390 . S
C256 C255 1.390 . S
C256 C257 1.394 . S
C256 C262 1.465 . S
C257 C252 1.399 . S
C257 C256 1.394 . S
C257 C258 1.516 . S
C258 C257 1.516 . S
C258 C259 1.502 . S
C258 C260 1.561 . S
C258 C261 1.526 . S
C259 H243 0.959 . S
C259 H244 0.959 . S
C259 H245 0.961 . S
C259 C258 1.502 . S
C260 H246 0.960 . S
C260 H247 0.961 . S
C260 H248 0.959 . S
C260 C258 1.561 . S
C261 C258 1.526 . S
C261 C262 1.396 . S
C261 C266 1.390 . S
C262 C256 1.465 . S
C262 C261 1.396 . S
C262 C263 1.399 . S
C263 H249 0.929 . S
C263 C262 1.399 . S
C263 C264 1.385 . S
C264 H250 0.931 . S
C264 C263 1.385 . S
C264 C265 1.389 . S
C265 C264 1.389 . S
C265 C266 1.387 . S
C266 H251 0.930 . S
C266 C261 1.390 . S
C266 C265 1.387 . S
H267 C279 0.922 1_655 S
H268 C281 0.930 . S
H269 C282 0.930 . S
H270 C286 0.959 . S
H271 C286 0.959 . S
H272 C286 0.961 . S
H273 C287 0.960 . S
H274 C287 0.961 . S
H275 C287 0.959 . S
H276 C290 0.929 . S
H277 C291 0.931 . S
H278 C293 0.930 . S
C279 H267 0.922 1_455 S
C279 C280 1.393 . S
C279 C284 1.413 . S
C280 C279 1.393 . S
C280 C281 1.376 . S
C281 H268 0.930 . S
C281 C280 1.376 . S
C281 C282 1.388 . S
C282 H269 0.930 . S
C282 C281 1.388 . S
C282 C283 1.390 . S
C283 C282 1.390 . S
C283 C284 1.394 . S
C283 C289 1.465 . S
C284 C279 1.413 . S
C284 C283 1.394 . S
C284 C285 1.510 . S
C285 C284 1.510 . S
C285 C286 1.489 1_455 S
C285 C287 1.575 . S
C285 C288 1.523 . S
C286 H270 0.959 . S
C286 H271 0.959 . S
C286 H272 0.961 . S
C286 C285 1.489 1_655 S
C287 H273 0.960 . S
C287 H274 0.961 . S
C287 H275 0.959 . S
C287 C285 1.575 . S
C288 C285 1.523 . S
C288 C289 1.395 . S
C288 C293 1.400 1_455 S
C289 C283 1.465 . S
C289 C288 1.395 . S
C289 C290 1.399 . S
C290 H276 0.929 . S
C290 C289 1.399 . S
C290 C291 1.385 . S
C291 H277 0.931 . S
C291 C290 1.385 . S
C291 C292 1.389 1_455 S
C292 C291 1.389 1_655 S
C292 C293 1.387 . S
C293 H278 0.930 . S
C293 C288 1.400 1_655 S
C293 C292 1.387 . S
H294 C306 0.930 . S
H295 C308 0.930 . S
H296 C309 0.930 . S
H297 C313 0.959 . S
H298 C313 0.959 . S
H299 C313 0.961 . S
H300 C314 0.960 . S
H301 C314 0.961 . S
H302 C314 0.959 . S
H303 C317 0.929 . S
H304 C318 0.931 . S
H305 C320 0.930 . S
C306 H294 0.930 . S
C306 C307 1.401 1_655 S
C306 C311 1.399 . S
C307 C306 1.401 1_455 S
C307 C308 1.373 . S
C308 H295 0.930 . S
C308 C307 1.373 . S
C308 C309 1.388 . S
C309 H296 0.930 . S
C309 C308 1.388 . S
C309 C310 1.390 . S
C310 C309 1.390 . S
C310 C311 1.393 1_455 S
C310 C316 1.465 . S
C311 C306 1.399 . S
C311 C310 1.393 1_655 S
C311 C312 1.516 . S
C312 C311 1.516 . S
C312 C313 1.502 1_655 S
C312 C314 1.561 . S
C312 C315 1.526 . S
C313 H297 0.959 . S
C313 H298 0.959 . S
C313 H299 0.961 . S
C313 C312 1.502 1_455 S
C314 H300 0.960 . S
C314 H301 0.961 . S
C314 H302 0.959 . S
C314 C312 1.561 . S
C315 C312 1.526 . S
C315 C316 1.400 1_655 S
C315 C320 1.390 . S
C316 C310 1.465 . S
C316 C315 1.400 1_455 S
C316 C317 1.396 . S
C317 H303 0.929 . S
C317 C316 1.396 . S
C317 C318 1.385 . S
C318 H304 0.931 . S
C318 C317 1.385 . S
C318 C319 1.393 1_455 S
C319 C318 1.393 1_655 S
C319 C320 1.384 . S
C320 H305 0.930 . S
C320 C315 1.390 . S
C320 C319 1.384 . S
H321 C333 0.930 . S
H322 C335 0.930 . S
H323 C336 0.930 . S
H324 C340 0.959 . S
H325 C340 0.959 . S
H326 C340 0.961 . S
H327 C341 0.960 . S
H328 C341 0.961 . S
H329 C341 0.959 . S
H330 C344 0.929 . S
H331 C345 0.931 . S
H332 C347 0.930 . S
C333 H321 0.930 . S
C333 C334 1.399 1_565 S
C333 C338 1.399 . S
C334 C333 1.399 1_545 S
C334 C335 1.376 . S
C335 H322 0.930 . S
C335 C334 1.376 . S
C335 C336 1.388 . S
C336 H323 0.930 . S
C336 C335 1.388 . S
C336 C337 1.390 . S
C337 C336 1.390 . S
C337 C338 1.394 1_545 S
C337 C343 1.465 . S
C338 C333 1.399 . S
C338 C337 1.394 1_565 S
C338 C339 1.516 . S
C339 C338 1.516 . S
C339 C340 1.502 . S
C339 C341 1.561 . S
C339 C342 1.526 . S
C340 H324 0.959 . S
C340 H325 0.959 . S
C340 H326 0.961 . S
C340 C339 1.502 . S
C341 H327 0.960 . S
C341 H328 0.961 . S
C341 H329 0.959 . S
C341 C339 1.561 . S
C342 C339 1.526 . S
C342 C343 1.396 1_565 S
C342 C347 1.390 . S
C343 C337 1.465 . S
C343 C342 1.396 1_545 S
C343 C344 1.399 . S
C344 H330 0.929 . S
C344 C343 1.399 . S
C344 C345 1.385 . S
C345 H331 0.931 . S
C345 C344 1.385 . S
C345 C346 1.389 . S
C346 C345 1.389 . S
C346 C347 1.387 1_545 S
C347 H332 0.930 . S
C347 C342 1.390 . S
C347 C346 1.387 1_565 S
H348 C360 0.930 . S
H349 C362 0.930 . S
H350 C363 0.930 . S
H351 C367 0.959 . S
H352 C367 0.959 . S
H353 C367 0.961 . S
H354 C368 0.960 . S
H355 C368 0.961 . S
H356 C368 0.959 . S
H357 C371 0.929 . S
H358 C372 0.931 . S
H359 C374 0.930 . S
C360 H348 0.930 . S
C360 C361 1.399 . S
C360 C365 1.399 . S
C361 C360 1.399 . S
C361 C362 1.376 . S
C362 H349 0.930 . S
C362 C361 1.376 . S
C362 C363 1.388 . S
C363 H350 0.930 . S
C363 C362 1.388 . S
C363 C364 1.390 . S
C364 C363 1.390 . S
C364 C365 1.394 . S
C364 C370 1.465 . S
C365 C360 1.399 . S
C365 C364 1.394 . S
C365 C366 1.516 . S
C366 C365 1.516 . S
C366 C367 1.502 . S
C366 C368 1.561 . S
C366 C369 1.526 . S
C367 H351 0.959 . S
C367 H352 0.959 . S
C367 H353 0.961 . S
C367 C366 1.502 . S
C368 H354 0.960 . S
C368 H355 0.961 . S
C368 H356 0.959 . S
C368 C366 1.561 . S
C369 C366 1.526 . S
C369 C370 1.396 . S
C369 C374 1.390 . S
C370 C364 1.465 . S
C370 C369 1.396 . S
C370 C371 1.399 . S
C371 H357 0.929 . S
C371 C370 1.399 . S
C371 C372 1.385 . S
C372 H358 0.931 . S
C372 C371 1.385 . S
C372 C373 1.389 . S
C373 C372 1.389 . S
C373 C374 1.387 . S
C374 H359 0.930 . S
C374 C369 1.390 . S
C374 C373 1.387 . S
H375 C387 0.930 . S
H376 C389 0.930 . S
H377 C390 0.930 . S
H378 C394 0.959 . S
H379 C394 0.959 . S
H380 C394 0.961 . S
H381 C395 0.960 . S
H382 C395 0.961 . S
H383 C395 0.959 . S
H384 C398 0.929 . S
H385 C399 0.931 . S
H386 C401 0.930 . S
C387 H375 0.930 . S
C387 C388 1.399 . S
C387 C392 1.399 . S
C388 C387 1.399 . S
C388 C389 1.376 1_655 S
C389 H376 0.930 . S
C389 C388 1.376 1_455 S
C389 C390 1.388 . S
C390 H377 0.930 . S
C390 C389 1.388 . S
C390 C391 1.394 1_455 S
C391 C390 1.394 1_655 S
C391 C392 1.388 . S
C391 C397 1.465 1_655 S
C392 C387 1.399 . S
C392 C391 1.388 . S
C392 C393 1.516 . S
C393 C392 1.516 . S
C393 C394 1.502 1_655 S
C393 C395 1.561 . S
C393 C396 1.526 . S
C394 H378 0.959 . S
C394 H379 0.959 . S
C394 H380 0.961 . S
C394 C393 1.502 1_455 S
C395 H381 0.960 . S
C395 H382 0.961 . S
C395 H383 0.959 . S
C395 C393 1.561 . S
C396 C393 1.526 . S
C396 C397 1.403 1_655 S
C396 C401 1.390 . S
C397 C391 1.465 1_455 S
C397 C396 1.403 1_455 S
C397 C398 1.394 . S
C398 H384 0.929 . S
C398 C397 1.394 . S
C398 C399 1.385 . S
C399 H385 0.931 . S
C399 C398 1.385 . S
C399 C400 1.389 . S
C400 C399 1.389 . S
C400 C401 1.387 1_455 S
C401 H386 0.930 . S
C401 C396 1.390 . S
C401 C400 1.387 1_655 S
H402 C414 0.930 . S
H403 C416 0.930 . S
H404 C417 0.930 . S
H405 C421 0.959 . S
H406 C421 0.959 . S
H407 C421 0.961 . S
H408 C422 0.960 . S
H409 C422 0.961 . S
H410 C422 0.959 . S
H411 C425 0.929 . S
H412 C426 0.931 . S
H413 C428 0.930 . S
C414 H402 0.930 . S
C414 C415 1.399 1_545 S
C414 C419 1.399 . S
C415 C414 1.399 1_565 S
C415 C416 1.376 . S
C416 H403 0.930 . S
C416 C415 1.376 . S
C416 C417 1.388 . S
C417 H404 0.930 . S
C417 C416 1.388 . S
C417 C418 1.390 . S
C418 C417 1.390 . S
C418 C419 1.394 1_565 S
C418 C424 1.465 . S
C419 C414 1.399 . S
C419 C418 1.394 1_545 S
C419 C420 1.516 . S
C420 C419 1.516 . S
C420 C421 1.502 . S
C420 C422 1.561 . S
C420 C423 1.526 . S
C421 H405 0.959 . S
C421 H406 0.959 . S
C421 H407 0.961 . S
C421 C420 1.502 . S
C422 H408 0.960 . S
C422 H409 0.961 . S
C422 H410 0.959 . S
C422 C420 1.561 . S
C423 C420 1.526 . S
C423 C424 1.396 1_545 S
C423 C428 1.390 . S
C424 C418 1.465 . S
C424 C423 1.396 1_565 S
C424 C425 1.399 . S
C425 H411 0.929 . S
C425 C424 1.399 . S
C425 C426 1.385 . S
C426 H412 0.931 . S
C426 C425 1.385 . S
C426 C427 1.389 . S
C427 C426 1.389 . S
C427 C428 1.387 1_565 S
C428 H413 0.930 . S
C428 C423 1.390 . S
C428 C427 1.387 1_545 S
H429 C441 0.930 . S
H430 C443 0.930 . S
H431 C444 0.930 . S
H432 C448 0.959 . S
H433 C448 0.959 . S
H434 C448 0.961 . S
H435 C449 0.960 . S
H436 C449 0.961 . S
H437 C449 0.959 . S
H438 C452 0.929 . S
H439 C453 0.931 . S
H440 C455 0.930 . S
C441 H429 0.930 . S
C441 C442 1.399 . S
C441 C446 1.399 . S
C442 C441 1.399 . S
C442 C443 1.376 . S
C443 H430 0.930 . S
C443 C442 1.376 . S
C443 C444 1.388 . S
C444 H431 0.930 . S
C444 C443 1.388 . S
C444 C445 1.390 . S
C445 C444 1.390 . S
C445 C446 1.394 . S
C445 C451 1.465 . S
C446 C441 1.399 . S
C446 C445 1.394 . S
C446 C447 1.516 . S
C447 C446 1.516 . S
C447 C448 1.502 . S
C447 C449 1.561 . S
C447 C450 1.526 . S
C448 H432 0.959 . S
C448 H433 0.959 . S
C448 H434 0.961 . S
C448 C447 1.502 . S
C449 H435 0.960 . S
C449 H436 0.961 . S
C449 H437 0.959 . S
C449 C447 1.561 . S
C450 C447 1.526 . S
C450 C451 1.396 . S
C450 C455 1.390 . S
C451 C445 1.465 . S
C451 C450 1.396 . S
C451 C452 1.399 . S
C452 H438 0.929 . S
C452 C451 1.399 . S
C452 C453 1.385 . S
C453 H439 0.931 . S
C453 C452 1.385 . S
C453 C454 1.389 . S
C454 C453 1.389 . S
C454 C455 1.387 . S
C455 H440 0.930 . S
C455 C450 1.390 . S
C455 C454 1.387 . S
H456 C468 0.930 . S
H457 C470 0.930 . S
H458 C471 0.930 . S
H459 C475 0.959 . S
H460 C475 0.959 . S
H461 C475 0.961 . S
H462 C476 0.960 . S
H463 C476 0.961 1_554 S
H464 C476 0.959 . S
H465 C479 0.929 1_556 S
H466 C480 0.931 . S
H467 C482 0.930 . S
C468 H456 0.930 . S
C468 C469 1.399 . S
C468 C473 1.399 . S
C469 C468 1.399 . S
C469 C470 1.376 . S
C470 H457 0.930 . S
C470 C469 1.376 . S
C470 C471 1.388 . S
C471 H458 0.930 . S
C471 C470 1.388 . S
C471 C472 1.390 . S
C472 C471 1.390 . S
C472 C473 1.394 . S
C472 C478 1.429 1_556 S
C473 C468 1.399 . S
C473 C472 1.394 . S
C473 C474 1.516 1_556 S
C474 C473 1.516 1_554 S
C474 C475 1.502 . S
C474 C476 1.561 1_554 S
C474 C477 1.526 . S
C475 H459 0.959 . S
C475 H460 0.959 . S
C475 H461 0.961 . S
C475 C474 1.502 . S
C476 H462 0.960 . S
C476 H463 0.961 1_556 S
C476 H464 0.959 . S
C476 C474 1.561 1_556 S
C477 C474 1.526 . S
C477 C478 1.432 . S
C477 C482 1.390 . S
C478 C472 1.429 1_554 S
C478 C477 1.432 . S
C478 C479 1.406 . S
C479 H465 0.929 1_554 S
C479 C478 1.406 . S
C479 C480 1.385 . S
C480 H466 0.931 . S
C480 C479 1.385 . S
C480 C481 1.389 . S
C481 C480 1.389 . S
C481 C482 1.387 . S
C482 H467 0.930 . S
C482 C477 1.390 . S
C482 C481 1.387 . S
H483 C495 0.930 . S
H484 C497 0.930 . S
H485 C498 0.930 . S
H486 C502 0.959 . S
H487 C502 0.959 . S
H488 C502 0.961 . S
H489 C503 0.960 . S
H490 C503 0.961 . S
H491 C503 0.959 . S
H492 C506 0.929 . S
H493 C507 0.931 . S
H494 C509 0.930 . S
C495 H483 0.930 . S
C495 C496 1.399 . S
C495 C500 1.399 . S
C496 C495 1.399 . S
C496 C497 1.376 . S
C497 H484 0.930 . S
C497 C496 1.376 . S
C497 C498 1.388 . S
C498 H485 0.930 . S
C498 C497 1.388 . S
C498 C499 1.390 . S
C499 C498 1.390 . S
C499 C500 1.394 . S
C499 C505 1.465 . S
C500 C495 1.399 . S
C500 C499 1.394 . S
C500 C501 1.516 . S
C501 C500 1.516 . S
C501 C502 1.502 . S
C501 C503 1.561 . S
C501 C504 1.526 . S
C502 H486 0.959 . S
C502 H487 0.959 . S
C502 H488 0.961 . S
C502 C501 1.502 . S
C503 H489 0.960 . S
C503 H490 0.961 . S
C503 H491 0.959 . S
C503 C501 1.561 . S
C504 C501 1.526 . S
C504 C505 1.396 . S
C504 C509 1.390 . S
C505 C499 1.465 . S
C505 C504 1.396 . S
C505 C506 1.399 . S
C506 H492 0.929 . S
C506 C505 1.399 . S
C506 C507 1.385 . S
C507 H493 0.931 . S
C507 C506 1.385 . S
C507 C508 1.389 . S
C508 C507 1.389 . S
C508 C509 1.387 . S
C509 H494 0.930 . S
C509 C504 1.390 . S
C509 C508 1.387 . S
H510 C522 0.930 . S
H511 C524 0.930 . S
H512 C525 0.930 . S
H513 C529 0.959 . S
H514 C529 0.959 . S
H515 C529 0.961 . S
H516 C530 0.960 . S
H517 C530 0.961 . S
H518 C530 0.959 . S
H519 C533 0.929 . S
H520 C534 0.931 . S
H521 C536 0.930 . S
C522 H510 0.930 . S
C522 C523 1.399 . S
C522 C527 1.399 . S
C523 C522 1.399 . S
C523 C524 1.376 . S
C524 H511 0.930 . S
C524 C523 1.376 . S
C524 C525 1.388 . S
C525 H512 0.930 . S
C525 C524 1.388 . S
C525 C526 1.390 . S
C526 C525 1.390 . S
C526 C527 1.394 . S
C526 C532 1.465 . S
C527 C522 1.399 . S
C527 C526 1.394 . S
C527 C528 1.516 . S
C528 C527 1.516 . S
C528 C529 1.502 . S
C528 C530 1.561 . S
C528 C531 1.526 . S
C529 H513 0.959 . S
C529 H514 0.959 . S
C529 H515 0.961 . S
C529 C528 1.502 . S
C530 H516 0.960 . S
C530 H517 0.961 . S
C530 H518 0.959 . S
C530 C528 1.561 . S
C531 C528 1.526 . S
C531 C532 1.396 . S
C531 C536 1.390 . S
C532 C526 1.465 . S
C532 C531 1.396 . S
C532 C533 1.399 . S
C533 H519 0.929 . S
C533 C532 1.399 . S
C533 C534 1.385 . S
C534 H520 0.931 . S
C534 C533 1.385 . S
C534 C535 1.389 . S
C535 C534 1.389 . S
C535 C536 1.387 . S
C536 H521 0.930 . S
C536 C531 1.390 . S
C536 C535 1.387 . S
H537 C549 0.930 . S
H538 C551 0.930 . S
H539 C552 0.930 . S
H540 C556 0.959 . S
H541 C556 0.959 . S
H542 C556 0.961 . S
H543 C557 0.960 . S
H544 C557 0.961 1_556 S
H545 C557 0.959 . S
H546 C560 0.929 1_554 S
H547 C561 0.931 . S
H548 C563 0.930 . S
C549 H537 0.930 . S
C549 C550 1.399 . S
C549 C554 1.399 . S
C550 C549 1.399 . S
C550 C551 1.376 . S
C551 H538 0.930 . S
C551 C550 1.376 . S
C551 C552 1.388 . S
C552 H539 0.930 . S
C552 C551 1.388 . S
C552 C553 1.390 . S
C553 C552 1.390 . S
C553 C554 1.394 . S
C553 C559 1.427 1_554 S
C554 C549 1.399 . S
C554 C553 1.394 . S
C554 C555 1.516 1_554 S
C555 C554 1.516 1_556 S
C555 C556 1.502 . S
C555 C557 1.561 1_556 S
C555 C558 1.526 . S
C556 H540 0.959 . S
C556 H541 0.959 . S
C556 H542 0.961 . S
C556 C555 1.502 . S
C557 H543 0.960 . S
C557 H544 0.961 1_554 S
C557 H545 0.959 . S
C557 C555 1.561 1_554 S
C558 C555 1.526 . S
C558 C559 1.434 . S
C558 C563 1.390 . S
C559 C553 1.427 1_556 S
C559 C558 1.434 . S
C559 C560 1.407 . S
C560 H546 0.929 1_556 S
C560 C559 1.407 . S
C560 C561 1.385 . S
C561 H547 0.931 . S
C561 C560 1.385 . S
C561 C562 1.389 . S
C562 C561 1.389 . S
C562 C563 1.387 . S
C563 H548 0.930 . S
C563 C558 1.390 . S
C563 C562 1.387 . S
H564 C576 0.930 . S
H565 C578 0.930 . S
H566 C579 0.930 . S
H567 C583 0.959 . S
H568 C583 0.959 . S
H569 C583 0.961 . S
H570 C584 0.960 . S
H571 C584 0.961 . S
H572 C584 0.959 . S
H573 C587 0.929 . S
H574 C588 0.931 . S
H575 C590 0.930 . S
C576 H564 0.930 . S
C576 C577 1.399 . S
C576 C581 1.399 . S
C577 C576 1.399 . S
C577 C578 1.376 . S
C578 H565 0.930 . S
C578 C577 1.376 . S
C578 C579 1.388 . S
C579 H566 0.930 . S
C579 C578 1.388 . S
C579 C580 1.390 . S
C580 C579 1.390 . S
C580 C581 1.394 . S
C580 C586 1.465 . S
C581 C576 1.399 . S
C581 C580 1.394 . S
C581 C582 1.516 . S
C582 C581 1.516 . S
C582 C583 1.502 . S
C582 C584 1.561 . S
C582 C585 1.526 . S
C583 H567 0.959 . S
C583 H568 0.959 . S
C583 H569 0.961 . S
C583 C582 1.502 . S
C584 H570 0.960 . S
C584 H571 0.961 . S
C584 H572 0.959 . S
C584 C582 1.561 . S
C585 C582 1.526 . S
C585 C586 1.396 . S
C585 C590 1.390 . S
C586 C580 1.465 . S
C586 C585 1.396 . S
C586 C587 1.399 . S
C587 H573 0.929 . S
C587 C586 1.399 . S
C587 C588 1.385 . S
C588 H574 0.931 . S
C588 C587 1.385 . S
C588 C589 1.389 . S
C589 C588 1.389 . S
C589 C590 1.387 . S
C590 H575 0.930 . S
C590 C585 1.390 . S
C590 C589 1.387 . S
H591 C603 0.930 . S
H592 C605 0.930 . S
H593 C606 0.930 . S
H594 C610 0.959 . S
H595 C610 0.959 . S
H596 C610 0.961 . S
H597 C611 0.960 . S
H598 C611 0.961 . S
H599 C611 0.959 . S
H600 C614 0.929 . S
H601 C615 0.931 . S
H602 C617 0.930 . S
C603 H591 0.930 . S
C603 C604 1.399 . S
C603 C608 1.399 . S
C604 C603 1.399 . S
C604 C605 1.376 . S
C605 H592 0.930 . S
C605 C604 1.376 . S
C605 C606 1.388 . S
C606 H593 0.930 . S
C606 C605 1.388 . S
C606 C607 1.390 . S
C607 C606 1.390 . S
C607 C608 1.394 . S
C607 C613 1.465 . S
C608 C603 1.399 . S
C608 C607 1.394 . S
C608 C609 1.516 . S
C609 C608 1.516 . S
C609 C610 1.502 . S
C609 C611 1.561 . S
C609 C612 1.526 . S
C610 H594 0.959 . S
C610 H595 0.959 . S
C610 H596 0.961 . S
C610 C609 1.502 . S
C611 H597 0.960 . S
C611 H598 0.961 . S
C611 H599 0.959 . S
C611 C609 1.561 . S
C612 C609 1.526 . S
C612 C613 1.396 . S
C612 C617 1.390 . S
C613 C607 1.465 . S
C613 C612 1.396 . S
C613 C614 1.399 . S
C614 H600 0.929 . S
C614 C613 1.399 . S
C614 C615 1.385 . S
C615 H601 0.931 . S
C615 C614 1.385 . S
C615 C616 1.389 . S
C616 C615 1.389 . S
C616 C617 1.387 . S
C617 H602 0.930 . S
C617 C612 1.390 . S
C617 C616 1.387 . S
C145 C40 1.497 . S
C157 C7 1.588 1_655 S
C172 C18 1.494 . S
C184 C51 1.564 . S
C199 C62 1.582 . S
C211 C29 1.514 . S
C226 C73 1.540 . S
C238 C106 1.578 . S
C253 C117 1.577 . S
C265 C84 1.523 . S
C280 C95 1.508 . S
C292 C128 1.545 . S
C307 C126 1.219 1_455 S
C319 C5 1.232 1_655 S
C334 C16 1.298 . S
C346 C71 1.373 1_545 S
C361 C27 1.225 . S
C373 C82 1.327 . S
C388 C93 1.362 1_655 S
C400 C38 1.352 1_455 S
C415 C49 1.295 . S
C427 C104 1.372 1_565 S
C442 C115 1.223 . S
C454 C60 1.325 . S
C469 C118 1.617 . S
C481 C8 1.647 . S
C496 C129 1.624 . S
C508 C19 1.587 . S
C523 C30 1.595 . S
C535 C74 1.639 . S
C550 C41 1.617 . S
C562 C85 1.647 . S
C577 C52 1.587 . S
C589 C96 1.609 . S
C604 C63 1.590 . S
C616 C107 1.634 . S
