# Generated by pormake.
# Topology sra, (4)-cn, num edge types: 1
# Building blocks:
#     Node 0, Type 0, BuildingBlock: NAHDIM_clean_sbu_0, # of connection points: 4
#     Node 1, Type 0, BuildingBlock: NAHDIM_clean_sbu_0, # of connection points: 4
#     Node 2, Type 0, BuildingBlock: NAHDIM_clean_sbu_0, # of connection points: 4
#     Node 3, Type 0, BuildingBlock: NAHDIM_clean_sbu_0, # of connection points: 4
#     Node 4, Type 0, BuildingBlock: NAHDIM_clean_sbu_0, # of connection points: 4
#     Node 5, Type 0, BuildingBlock: NAHDIM_clean_sbu_0, # of connection points: 4
#     Node 6, Type 0, BuildingBlock: NAHDIM_clean_sbu_0, # of connection points: 4
#     Node 7, Type 0, BuildingBlock: NAHDIM_clean_sbu_0, # of connection points: 4
#     Edge 8, Type (0, 0), BuildingBlock: EZIPEK_clean_linker_0, # of connection points: 2
#     Edge 9, Type (0, 0), BuildingBlock: EZIPEK_clean_linker_0, # of connection points: 2
#     Edge 10, Type (0, 0), BuildingBlock: EZIPEK_clean_linker_0, # of connection points: 2
#     Edge 11, Type (0, 0), BuildingBlock: EZIPEK_clean_linker_0, # of connection points: 2
#     Edge 12, Type (0, 0), BuildingBlock: EZIPEK_clean_linker_0, # of connection points: 2
#     Edge 13, Type (0, 0), BuildingBlock: EZIPEK_clean_linker_0, # of connection points: 2
#     Edge 14, Type (0, 0), BuildingBlock: EZIPEK_clean_linker_0, # of connection points: 2
#     Edge 15, Type (0, 0), BuildingBlock: EZIPEK_clean_linker_0, # of connection points: 2
#     Edge 16, Type (0, 0), BuildingBlock: EZIPEK_clean_linker_0, # of connection points: 2
#     Edge 17, Type (0, 0), BuildingBlock: EZIPEK_clean_linker_0, # of connection points: 2
#     Edge 18, Type (0, 0), BuildingBlock: EZIPEK_clean_linker_0, # of connection points: 2
#     Edge 19, Type (0, 0), BuildingBlock: EZIPEK_clean_linker_0, # of connection points: 2
#     Edge 20, Type (0, 0), BuildingBlock: EZIPEK_clean_linker_0, # of connection points: 2
#     Edge 21, Type (0, 0), BuildingBlock: EZIPEK_clean_linker_0, # of connection points: 2
#     Edge 22, Type (0, 0), BuildingBlock: EZIPEK_clean_linker_0, # of connection points: 2
#     Edge 23, Type (0, 0), BuildingBlock: EZIPEK_clean_linker_0, # of connection points: 2
# Relax obj value: 0.090
# Max RMSD: 0.091
# Mean RMSD: 0.091
data_MOF--net-sra--node1-NAHDIM_clean_sbu_0--edge1-EZIPEK_clean_linker_0
_symmetry_space_group_name_H-M    P1
_symmetry_Int_Tables_number       1
_symmetry_cell_setting            triclinic
loop_
_symmetry_equiv_pos_as_xyz
'x, y, z'
_cell_length_a     18.402878
_cell_length_b     35.773
_cell_length_c     30.344082
_cell_angle_alpha  89.775767
_cell_angle_beta   90.062832
_cell_angle_gamma 89.817556
loop_
_atom_site_label
_atom_site_type_symbol
_atom_site_fract_x
_atom_site_fract_y
_atom_site_fract_z
_atom_type_partial_charge
C0 C 0.99346 0.02885 0.08035 0.0
O1 O 0.98844 0.00954 0.11711 0.0
O2 O 0.8853 0.07624 0.16651 0.0
Zn3 Zn 0.98194 0.08946 0.13984 0.0
O4 O 0.0654 0.07462 0.17913 0.0
C5 C 0.97853 0.16543 0.16584 0.0
O6 O 0.97005 0.14954 0.20455 0.0
O7 O 0.99218 0.0643 0.08151 0.0
C8 C 0.12562 0.09054 0.17123 0.0
O9 O 0.13096 0.11321 0.13725 0.0
C10 C 0.87698 0.06954 0.20732 0.0
O11 O 0.9337 0.06901 0.23361 0.0
O12 O 0.98487 0.14527 0.1317 0.0
C13 C 0.0478 0.42731 0.06453 0.0
O14 O 0.10151 0.40469 0.07504 0.0
O15 O 0.0819 0.41099 0.1834 0.0
Zn16 Zn 0.99215 0.40271 0.14752 0.0
O17 O 0.90495 0.41728 0.18275 0.0
C18 C 0.99205 0.32631 0.1687 0.0
O19 O 0.00225 0.34087 0.20788 0.0
O20 O -0.00522 0.4314 0.0908 0.0
C21 C 0.84269 0.41326 0.1655 0.0
O22 O 0.83704 0.4007 0.12504 0.0
C23 C 0.09096 0.43849 0.20911 0.0
O24 O 0.04176 0.46512 0.21104 0.0
O25 O 0.98602 0.3477 0.13539 0.0
C26 C 0.01072 0.95399 0.91259 0.0
O27 O -0.00295 0.97247 0.876 0.0
O28 O 0.92751 0.91072 0.82255 0.0
Zn29 Zn 0.02012 0.89367 0.85259 0.0
O30 O 0.10957 0.9083 0.81805 0.0
C31 C 0.04081 0.81443 0.83461 0.0
O32 O 0.06535 0.82666 0.79667 0.0
O33 O 0.02367 0.91915 0.91113 0.0
C34 C 0.1121 0.90795 0.7762 0.0
O35 O 0.05326 0.90003 0.75361 0.0
C36 C 0.89396 0.89052 0.79496 0.0
O37 O 0.9204 0.85771 0.78419 0.0
O38 O 0.01879 0.83753 0.86343 0.0
C39 C 0.04293 0.51026 0.90095 0.0
O40 O 0.04361 0.49384 0.86231 0.0
O41 O 0.144 0.5678 0.81871 0.0
Zn42 Zn 0.04765 0.57662 0.84819 0.0
O43 O 0.96414 0.56483 0.80754 0.0
C44 C 0.04848 0.65465 0.83294 0.0
O45 O 0.0592 0.64294 0.79255 0.0
O46 O 0.04326 0.54568 0.90318 0.0
C47 C 0.9013 0.57567 0.81923 0.0
O48 O 0.89267 0.59158 0.85779 0.0
C49 C 0.15069 0.56382 0.77733 0.0
O50 O 0.0927 0.56384 0.75208 0.0
O51 O 0.04147 0.63112 0.86404 0.0
C52 C 0.57192 0.54312 0.57469 0.0
O53 O 0.61595 0.52866 0.60432 0.0
O54 O 0.45285 0.59185 0.67516 0.0
Zn55 Zn 0.54502 0.59954 0.64086 0.0
O56 O 0.63588 0.58397 0.67403 0.0
C57 C 0.55398 0.67641 0.66141 0.0
O58 O 0.5528 0.66249 0.70152 0.0
O59 O 0.53686 0.57283 0.58317 0.0
C60 C 0.63897 0.58196 0.71582 0.0
O61 O 0.58013 0.5875 0.73924 0.0
C62 C 0.43345 0.56182 0.69412 0.0
O63 O 0.47622 0.53236 0.69315 0.0
O64 O 0.55154 0.65451 0.62862 0.0
C65 C 0.52222 0.97311 0.5821 0.0
O66 O 0.53119 0.99358 0.61751 0.0
O67 O 0.61292 0.92486 0.67644 0.0
Zn68 Zn 0.51929 0.91378 0.64505 0.0
O69 O 0.43325 0.92972 0.68127 0.0
C70 C 0.56969 0.83713 0.64411 0.0
O71 O 0.6334 0.85254 0.6507 0.0
O72 O 0.51616 0.93793 0.58561 0.0
C73 C 0.37244 0.91534 0.67134 0.0
O74 O 0.36753 0.89372 0.6366 0.0
C75 C 0.61481 0.92507 0.71825 0.0
O76 O 0.55384 0.92356 0.74064 0.0
O77 O 0.51388 0.85771 0.63874 0.0
C78 C 0.53218 0.47288 0.40533 0.0
O79 O 0.55504 0.48878 0.36881 0.0
O80 O 0.40513 0.43214 0.31267 0.0
Zn81 Zn 0.49236 0.41376 0.34674 0.0
O82 O 0.58341 0.41971 0.31073 0.0
C83 C 0.4746 0.33682 0.32707 0.0
O84 O 0.46503 0.35066 0.28737 0.0
O85 O 0.50246 0.44095 0.40387 0.0
C86 C 0.58226 0.42746 0.26984 0.0
O87 O 0.52018 0.43444 0.2501 0.0
C88 C 0.34313 0.41766 0.31915 0.0
O89 O 0.33536 0.39227 0.35016 0.0
O90 O 0.48409 0.35875 0.35934 0.0
C91 C 0.50198 0.03965 0.40899 0.0
O92 O 0.51095 0.019 0.37373 0.0
O93 O 0.57865 0.08909 0.31268 0.0
Zn94 Zn 0.48499 0.09834 0.34524 0.0
O95 O 0.39867 0.07958 0.31158 0.0
C96 C 0.50917 0.17694 0.33067 0.0
O97 O 0.5603 0.16467 0.30426 0.0
O98 O 0.48965 0.07443 0.40497 0.0
C99 C 0.38818 0.09316 0.27337 0.0
O100 O 0.43594 0.11628 0.25648 0.0
C101 C 0.59297 0.06186 0.28738 0.0
O102 O 0.54425 0.03582 0.28031 0.0
O103 O 0.4709 0.15391 0.35251 0.0
C104 C 0.92655 0.26727 0.14855 0.0
C105 C 0.99058 0.28522 0.16365 0.0
C106 C 0.0473 0.22447 0.1791 0.0
C107 C 0.98425 0.20651 0.16269 0.0
N108 N 0.86856 0.20972 0.12544 0.0
N109 N 0.11702 0.28171 0.18418 0.0
C110 C 0.92549 0.22761 0.14515 0.0
C111 C 0.05246 0.26402 0.1764 0.0
N112 N 0.86551 0.28794 0.1398 0.0
N113 N 0.10197 0.20372 0.19769 0.0
H114 H 0.12322 0.31061 0.18158 0.0
H115 H 0.16601 0.26771 0.18923 0.0
H116 H 0.10247 0.17458 0.19776 0.0
H117 H 0.14495 0.21527 0.21527 0.0
H118 H 0.81466 0.27631 0.13392 0.0
H119 H 0.86411 0.31702 0.14145 0.0
H120 H 0.82813 0.22349 0.10761 0.0
H121 H 0.86416 0.18069 0.12418 0.0
C122 C 0.9743 0.75362 0.83883 0.0
C123 C 0.04014 0.77373 0.84335 0.0
C124 C 0.10772 0.715 0.85252 0.0
C125 C 0.04378 0.69513 0.84151 0.0
N126 N 0.91633 0.69422 0.82337 0.0
N127 N 0.16934 0.77485 0.85592 0.0
C128 C 0.97682 0.71405 0.8349 0.0
C129 C 0.10681 0.75474 0.85101 0.0
N130 N 0.90953 0.7724 0.83852 0.0
N131 N 0.16889 0.69574 0.86472 0.0
H132 H 0.16951 0.8039 0.85854 0.0
H133 H 0.22113 0.7631 0.85602 0.0
H134 H 0.17109 0.6666 0.86591 0.0
H135 H 0.21569 0.70829 0.87685 0.0
H136 H 0.85908 0.75936 0.83926 0.0
H137 H 0.90614 0.80134 0.84145 0.0
H138 H 0.868 0.70646 0.81272 0.0
H139 H 0.91551 0.66508 0.82227 0.0
C140 C 0.50318 0.74011 0.67604 0.0
C141 C 0.55568 0.71739 0.65477 0.0
C142 C 0.60846 0.77304 0.62033 0.0
C143 C 0.56254 0.79594 0.6464 0.0
N144 N 0.47642 0.80089 0.70633 0.0
N145 N 0.66687 0.71273 0.61281 0.0
C146 C 0.51239 0.77943 0.67617 0.0
C147 C 0.61063 0.73392 0.6284 0.0
N148 N 0.44321 0.72431 0.69495 0.0
N149 N 0.64835 0.78843 0.58695 0.0
H150 H 0.67181 0.68414 0.61895 0.0
H151 H 0.71229 0.72417 0.59742 0.0
H152 H 0.64666 0.81686 0.57919 0.0
H153 H 0.67716 0.7725 0.56417 0.0
H154 H 0.39981 0.73999 0.70701 0.0
H155 H 0.4331 0.69564 0.69436 0.0
H156 H 0.44507 0.78961 0.73165 0.0
H157 H 0.48389 0.82961 0.70915 0.0
C158 C 0.42084 0.27296 0.32131 0.0
C159 C 0.4804 0.29592 0.33308 0.0
C160 C 0.55245 0.24038 0.35183 0.0
C161 C 0.49653 0.21756 0.33458 0.0
N162 N 0.38017 0.21164 0.2985 0.0
N163 N 0.60654 0.30185 0.35433 0.0
C164 C 0.43104 0.23365 0.31847 0.0
C165 C 0.54708 0.27979 0.34736 0.0
N166 N 0.35416 0.28872 0.31379 0.0
N167 N 0.60998 0.22433 0.3734 0.0
H168 H 0.60548 0.33089 0.35157 0.0
H169 H 0.65864 0.29121 0.35937 0.0
H170 H 0.61543 0.19548 0.37751 0.0
H171 H 0.64857 0.23961 0.39078 0.0
H172 H 0.30689 0.27322 0.3095 0.0
H173 H 0.34475 0.31744 0.31583 0.0
H174 H 0.3353 0.22224 0.2816 0.0
H175 H 0.38552 0.18273 0.29579 0.0
C176 C 0.31756 0.06798 0.20974 0.0
C177 C 0.31839 0.08734 0.25039 0.0
C178 C 0.18786 0.1001 0.24381 0.0
C179 C 0.18914 0.08513 0.20054 0.0
N180 N 0.25365 0.05463 0.14158 0.0
N181 N 0.25728 0.12533 0.30459 0.0
C182 C 0.25358 0.06883 0.18337 0.0
C183 C 0.25412 0.10387 0.2674 0.0
N184 N 0.37758 0.04814 0.197 0.0
N185 N 0.12358 0.11113 0.26228 0.0
H186 H 0.30443 0.12878 0.32318 0.0
H187 H 0.21469 0.1422 0.31534 0.0
H188 H 0.07417 0.11057 0.24562 0.0
H189 H 0.11804 0.11808 0.29539 0.0
H190 H 0.3788 0.03047 0.16986 0.0
H191 H 0.42511 0.047 0.21575 0.0
H192 H 0.30047 0.04657 0.12488 0.0
H193 H 0.20656 0.05221 0.12263 0.0
C194 C 0.688 0.38982 0.24277 0.0
C195 C 0.64962 0.42433 0.24354 0.0
C196 C 0.73549 0.45091 0.19032 0.0
C197 C 0.77709 0.41756 0.19281 0.0
N198 N 0.80039 0.35746 0.22648 0.0
N199 N 0.64224 0.48959 0.22371 0.0
C200 C 0.75576 0.38774 0.22075 0.0
C201 C 0.67468 0.45543 0.21873 0.0
N202 N 0.65779 0.35843 0.26082 0.0
N203 N 0.75372 0.47805 0.1605 0.0
H204 H 0.59823 0.49404 0.2447 0.0
H205 H 0.66258 0.51416 0.21007 0.0
H206 H 0.79945 0.47618 0.14032 0.0
H207 H 0.72101 0.50114 0.15359 0.0
H208 H 0.67954 0.33172 0.25707 0.0
H209 H 0.60697 0.35832 0.27582 0.0
H210 H 0.79162 0.33696 0.25033 0.0
H211 H 0.84952 0.35426 0.20985 0.0
C212 C 0.24383 0.89133 0.7641 0.0
C213 C 0.18213 0.91348 0.75282 0.0
C214 C 0.2478 0.93926 0.68927 0.0
C215 C 0.30997 0.91823 0.7017 0.0
N216 N 0.37309 0.88092 0.75616 0.0
N217 N 0.13132 0.96496 0.71133 0.0
C218 C 0.31001 0.8967 0.74101 0.0
C219 C 0.18584 0.93937 0.71728 0.0
N220 N 0.23825 0.86322 0.79457 0.0
N221 N 0.24769 0.95874 0.65042 0.0
H222 H 0.0863 0.96664 0.7321 0.0
H223 H 0.13395 0.98682 0.68863 0.0
H224 H 0.29352 0.96098 0.63036 0.0
H225 H 0.20124 0.9709 0.63687 0.0
H226 H 0.2786 0.84321 0.79979 0.0
H227 H 0.19102 0.85746 0.81201 0.0
H228 H 0.37803 0.86865 0.78722 0.0
H229 H 0.42237 0.88291 0.73953 0.0
C230 C 0.71914 0.54814 0.7697 0.0
C231 C 0.70974 0.57742 0.7385 0.0
C232 C 0.83349 0.59923 0.75318 0.0
C233 C 0.83888 0.57337 0.7886 0.0
N234 N 0.78638 0.52426 0.83271 0.0
N235 N 0.75342 0.63482 0.70564 0.0
C236 C 0.78155 0.54804 0.79744 0.0
C237 C 0.76597 0.60383 0.73115 0.0
N238 N 0.66947 0.51984 0.77182 0.0
N239 N 0.89265 0.61967 0.74072 0.0
H240 H 0.70416 0.64022 0.68989 0.0
H241 H 0.78944 0.65714 0.70346 0.0
H242 H 0.94262 0.61782 0.75664 0.0
H243 H 0.89408 0.63591 0.71216 0.0
H244 H 0.67662 0.49582 0.79082 0.0
H245 H 0.62388 0.51874 0.75139 0.0
H246 H 0.74306 0.5083 0.84414 0.0
H247 H 0.83297 0.52197 0.85217 0.0
C248 C 0.74271 0.94409 0.73601 0.0
C249 C 0.68493 0.91822 0.74074 0.0
C250 C 0.76109 0.87882 0.78807 0.0
C251 C 0.8215 0.90188 0.77855 0.0
N252 N 0.87276 0.95463 0.7399 0.0
N253 N 0.64394 0.85692 0.76377 0.0
C254 C 0.81315 0.93425 0.75178 0.0
C255 C 0.69518 0.88453 0.7649 0.0
N256 N 0.72983 0.97829 0.71731 0.0
N257 N 0.76593 0.85214 0.82032 0.0
H258 H 0.59566 0.85905 0.74597 0.0
H259 H 0.65271 0.83029 0.7768 0.0
H260 H 0.8126 0.84817 0.8393 0.0
H261 H 0.72135 0.83695 0.83152 0.0
H262 H 0.76783 -0.0002 0.71689 0.0
H263 H 0.67881 0.98633 0.70552 0.0
H264 H 0.87126 0.97601 0.71653 0.0
H265 H 0.9251 0.94838 0.75095 0.0
C266 C 0.34569 0.58873 0.74871 0.0
C267 C 0.36263 0.56064 0.71738 0.0
C268 C 0.24384 0.53168 0.7303 0.0
C269 C 0.22399 0.56228 0.75737 0.0
N270 N 0.25136 0.62384 0.78537 0.0
N271 N 0.32231 0.50919 0.67216 0.0
C272 C 0.27368 0.59186 0.76481 0.0
C273 C 0.31037 0.53297 0.70658 0.0
N274 N 0.39882 0.61181 0.76428 0.0
N275 N 0.20022 0.50088 0.72822 0.0
H276 H 0.36924 0.50977 0.653 0.0
H277 H 0.28268 0.49129 0.65988 0.0
H278 H 0.15151 0.4987 0.74557 0.0
H279 H 0.21568 0.47618 0.71271 0.0
H280 H 0.3911 0.62997 0.79064 0.0
H281 H 0.45263 0.61026 0.75398 0.0
H282 H 0.28298 0.6479 0.78704 0.0
H283 H 0.19872 0.62782 0.79696 0.0
C284 C 0.71541 0.03309 0.27277 0.0
C285 C 0.66321 0.06137 0.26377 0.0
C286 C 0.75209 0.0957 0.21957 0.0
C287 C 0.80287 0.06617 0.22585 0.0
N288 N 0.82846 0.00344 0.25105 0.0
N289 N 0.62584 0.1146 0.22025 0.0
C290 C 0.78328 0.03384 0.25035 0.0
C291 C 0.67976 0.09116 0.23459 0.0
N292 N 0.70145 0.00645 0.30402 0.0
N293 N 0.77365 0.12891 0.20143 0.0
H294 H 0.57179 0.1116 0.22981 0.0
H295 H 0.63327 0.13446 0.19547 0.0
H296 H 0.82659 0.13408 0.19103 0.0
H297 H 0.74081 0.15269 0.20066 0.0
H298 H 0.74054 0.98773 0.31563 0.0
H299 H 0.65223 0.00484 0.32092 0.0
H300 H 0.81385 0.97774 0.26456 0.0
H301 H 0.87814 0.00281 0.23455 0.0
C302 C 0.22552 0.43499 0.21757 0.0
C303 C 0.15642 0.43929 0.23744 0.0
C304 C 0.21383 0.43858 0.31032 0.0
C305 C 0.28054 0.4278 0.29066 0.0
N306 N 0.34659 0.40977 0.22507 0.0
N307 N 0.08294 0.44007 0.30348 0.0
C308 C 0.28591 0.42475 0.24409 0.0
C309 C 0.14992 0.44011 0.28406 0.0
N310 N 0.23362 0.44115 0.17337 0.0
N311 N 0.21176 0.44817 0.35386 0.0
H312 H 0.03446 0.44033 0.28572 0.0
H313 H 0.07543 0.43638 0.33725 0.0
H314 H 0.25793 0.44831 0.37385 0.0
H315 H 0.16601 0.4597 0.36884 0.0
H316 H 0.2841 0.44194 0.15786 0.0
H317 H 0.19061 0.44944 0.1531 0.0
H318 H 0.34976 0.40324 0.1917 0.0
H319 H 0.3911 0.40027 0.24308 0.0
C320 C 0.06358 0.9915 0.02522 0.0
C321 C -0.0021 0.00946 0.03762 0.0
C322 C 0.93926 0.98848 0.96958 0.0
C323 C 0.00654 0.97315 0.95555 0.0
N324 N 0.13531 0.96439 0.96633 0.0
N325 N 0.87544 0.02902 0.02043 0.0
C326 C 0.06943 0.97564 0.98247 0.0
C327 C 0.93647 0.00927 0.00933 0.0
N328 N 0.12024 0.98956 0.05436 0.0
N329 N 0.8773 0.98151 0.94607 0.0
H330 H 0.86938 0.04271 0.05049 0.0
H331 H 0.83245 0.03386 -0.0012 0.0
H332 H 0.87678 0.96589 0.91712 0.0
H333 H 0.82538 0.98831 0.95708 0.0
H334 H 0.16636 0.97321 0.04939 0.0
H335 H 0.11934 0.00247 0.08512 0.0
H336 H 0.18449 0.96913 0.9823 0.0
H337 H 0.1418 0.95291 0.93502 0.0
C338 C 0.10585 0.49123 0.97067 0.0
C339 C 0.04547 0.48775 0.94186 0.0
C340 C 0.99191 0.44079 0.99086 0.0
C341 C 0.04809 0.44745 0.02191 0.0
N342 N 0.15255 0.48314 0.04474 0.0
N343 N 0.92583 0.46345 0.92696 0.0
C344 C 0.10367 0.47371 0.01271 0.0
C345 C 0.9871 0.46356 0.95249 0.0
N346 N 0.16637 0.5102 0.95724 0.0
N347 N 0.94467 0.41184 -0.00275 0.0
H348 H 0.92017 0.47977 0.89861 0.0
H349 H 0.87831 0.4496 0.93581 0.0
H350 H 0.94699 0.39419 0.02468 0.0
H351 H 0.90751 0.40313 0.97354 0.0
H352 H 0.21492 0.51029 0.97491 0.0
H353 H 0.17053 0.52299 0.92639 0.0
H354 H 0.18913 0.50514 0.04155 0.0
H355 H 0.15241 0.47121 0.07614 0.0
C356 C 0.4813 0.49902 0.47528 0.0
C357 C 0.54249 0.49149 0.4483 0.0
C358 C 0.62238 0.52072 0.50276 0.0
C359 C 0.56223 0.52479 0.53154 0.0
N360 N 0.43687 0.51161 0.54883 0.0
N361 N 0.67288 0.48861 0.4397 0.0
C362 C 0.49225 0.51223 0.51882 0.0
C363 C 0.61357 0.50059 0.46287 0.0
N364 N 0.41262 0.4949 0.45877 0.0
N365 N 0.68721 0.53728 0.51264 0.0
H366 H 0.66899 0.47316 0.41073 0.0
H367 H 0.72593 0.49094 0.45134 0.0
H368 H 0.69576 0.55259 0.54136 0.0
H369 H 0.73043 0.53875 0.49057 0.0
H370 H 0.36614 0.50372 0.47535 0.0
H371 H 0.40224 0.48597 0.42669 0.0
H372 H 0.3869 0.49902 0.54281 0.0
H373 H 0.443 0.52051 0.58132 0.0
C374 C 0.4533 0.01001 0.52569 0.0
C375 C 0.51775 0.99087 0.53822 0.0
C376 C 0.57374 0.00614 0.46719 0.0
C377 C 0.50728 0.02267 0.45334 0.0
N378 N 0.38021 0.03534 0.46605 0.0
N379 N 0.63641 0.96658 0.52011 0.0
C380 C 0.4461 0.02347 0.48176 0.0
C381 C 0.57706 0.98759 0.50864 0.0
N382 N 0.39898 0.01531 0.55579 0.0
N383 N 0.63458 0.00977 0.44166 0.0
H384 H 0.64271 0.95428 0.55112 0.0
H385 H 0.67737 0.95931 0.49809 0.0
H386 H 0.63466 0.02361 0.41134 0.0
H387 H 0.68639 0.00195 0.45202 0.0
H388 H 0.35448 0.03277 0.55035 0.0
H389 H 0.40053 0.00418 0.5876 0.0
H390 H 0.33181 0.03283 0.48351 0.0
H391 H 0.37245 0.04485 0.43384 0.0
loop_
_geom_bond_atom_site_label_1
_geom_bond_atom_site_label_2
_geom_bond_distance
_geom_bond_site_symmetry_2
_ccdc_geom_bond_type
C0 O1 1.160 1_455 S
C0 O7 1.185 . S
O1 C0 1.160 1_655 S
O2 Zn3 1.899 1_655 S
O2 C10 1.284 . S
Zn3 O2 1.899 1_455 S
Zn3 O4 2.032 . S
Zn3 O7 2.086 . S
Zn3 O12 1.977 . S
O4 Zn3 2.032 . S
O4 C8 1.278 . S
C5 O6 1.203 1_455 S
C5 O12 1.267 . S
O6 C5 1.203 1_655 S
O7 C0 1.185 . S
O7 Zn3 2.086 . S
C8 O4 1.278 . S
C8 O9 1.211 . S
O9 C8 1.211 . S
C10 O2 1.284 . S
C10 O11 1.273 . S
O11 C10 1.273 . S
O12 Zn3 1.977 . S
O12 C5 1.267 . S
C13 O14 1.160 . S
C13 O20 1.185 . S
O14 C13 1.160 . S
O15 Zn16 1.899 . S
O15 C23 1.284 . S
Zn16 O15 1.899 . S
Zn16 O17 2.032 1_455 S
Zn16 O20 2.086 . S
Zn16 O25 1.977 . S
O17 Zn16 2.032 1_655 S
O17 C21 1.278 . S
C18 O19 1.203 . S
C18 O25 1.267 . S
O19 C18 1.203 . S
O20 C13 1.185 . S
O20 Zn16 2.086 . S
C21 O17 1.278 . S
C21 O22 1.211 . S
O22 C21 1.211 . S
C23 O15 1.284 . S
C23 O24 1.273 . S
O24 C23 1.273 . S
O25 Zn16 1.977 . S
O25 C18 1.267 . S
C26 O27 1.160 1_455 S
C26 O33 1.185 . S
O27 C26 1.160 1_655 S
O28 Zn29 1.899 1_655 S
O28 C36 1.284 . S
Zn29 O28 1.899 1_455 S
Zn29 O30 2.032 . S
Zn29 O33 2.086 . S
Zn29 O38 1.977 . S
O30 Zn29 2.032 . S
O30 C34 1.278 . S
C31 O32 1.203 1_455 S
C31 O38 1.267 . S
O32 C31 1.203 1_655 S
O33 C26 1.185 . S
O33 Zn29 2.086 . S
C34 O30 1.278 . S
C34 O35 1.211 . S
O35 C34 1.211 . S
C36 O28 1.284 . S
C36 O37 1.273 . S
O37 C36 1.273 . S
O38 Zn29 1.977 . S
O38 C31 1.267 . S
C39 O40 1.160 . S
C39 O46 1.185 . S
O40 C39 1.160 . S
O41 Zn42 1.899 . S
O41 C49 1.284 . S
Zn42 O41 1.899 . S
Zn42 O43 2.032 1_455 S
Zn42 O46 2.086 . S
Zn42 O51 1.977 . S
O43 Zn42 2.032 1_655 S
O43 C47 1.278 . S
C44 O45 1.203 . S
C44 O51 1.267 . S
O45 C44 1.203 . S
O46 C39 1.185 . S
O46 Zn42 2.086 . S
C47 O43 1.278 . S
C47 O48 1.211 . S
O48 C47 1.211 . S
C49 O41 1.284 . S
C49 O50 1.273 . S
O50 C49 1.273 . S
O51 Zn42 1.977 . S
O51 C44 1.267 . S
C52 O53 1.160 . S
C52 O59 1.185 . S
O53 C52 1.160 . S
O54 Zn55 1.899 . S
O54 C62 1.284 . S
Zn55 O54 1.899 . S
Zn55 O56 2.032 . S
Zn55 O59 2.086 . S
Zn55 O64 1.977 . S
O56 Zn55 2.032 . S
O56 C60 1.278 . S
C57 O58 1.203 . S
C57 O64 1.267 . S
O58 C57 1.203 . S
O59 C52 1.185 . S
O59 Zn55 2.086 . S
C60 O56 1.278 . S
C60 O61 1.211 . S
O61 C60 1.211 . S
C62 O54 1.284 . S
C62 O63 1.273 . S
O63 C62 1.273 . S
O64 Zn55 1.977 . S
O64 C57 1.267 . S
C65 O66 1.160 . S
C65 O72 1.185 . S
O66 C65 1.160 . S
O67 Zn68 1.899 . S
O67 C75 1.284 . S
Zn68 O67 1.899 . S
Zn68 O69 2.032 . S
Zn68 O72 2.086 . S
Zn68 O77 1.977 . S
O69 Zn68 2.032 . S
O69 C73 1.278 . S
C70 O71 1.203 . S
C70 O77 1.267 . S
O71 C70 1.203 . S
O72 C65 1.185 . S
O72 Zn68 2.086 . S
C73 O69 1.278 . S
C73 O74 1.211 . S
O74 C73 1.211 . S
C75 O67 1.284 . S
C75 O76 1.273 . S
O76 C75 1.273 . S
O77 Zn68 1.977 . S
O77 C70 1.267 . S
C78 O79 1.160 . S
C78 O85 1.185 . S
O79 C78 1.160 . S
O80 Zn81 1.899 . S
O80 C88 1.284 . S
Zn81 O80 1.899 . S
Zn81 O82 2.032 . S
Zn81 O85 2.086 . S
Zn81 O90 1.977 . S
O82 Zn81 2.032 . S
O82 C86 1.278 . S
C83 O84 1.203 . S
C83 O90 1.267 . S
O84 C83 1.203 . S
O85 C78 1.185 . S
O85 Zn81 2.086 . S
C86 O82 1.278 . S
C86 O87 1.211 . S
O87 C86 1.211 . S
C88 O80 1.284 . S
C88 O89 1.273 . S
O89 C88 1.273 . S
O90 Zn81 1.977 . S
O90 C83 1.267 . S
C91 O92 1.160 . S
C91 O98 1.185 . S
O92 C91 1.160 . S
O93 Zn94 1.899 . S
O93 C101 1.284 . S
Zn94 O93 1.899 . S
Zn94 O95 2.032 . S
Zn94 O98 2.086 . S
Zn94 O103 1.977 . S
O95 Zn94 2.032 . S
O95 C99 1.278 . S
C96 O97 1.203 . S
C96 O103 1.267 . S
O97 C96 1.203 . S
O98 C91 1.185 . S
O98 Zn94 2.086 . S
C99 O95 1.278 . S
C99 O100 1.211 . S
O100 C99 1.211 . S
C101 O93 1.284 . S
C101 O102 1.273 . S
O102 C101 1.273 . S
O103 Zn94 1.977 . S
O103 C96 1.267 . S
C104 C105 1.363 1_655 S
C104 C110 1.379 . S
C104 N112 1.356 . S
C105 C104 1.363 1_455 S
C105 C111 1.363 . S
C106 C107 1.363 . S
C106 C111 1.379 . S
C106 N113 1.356 . S
C107 C106 1.363 . S
C107 C110 1.363 1_455 S
N108 C110 1.356 . S
N108 H120 0.984 . S
N108 H121 0.985 . S
N109 C111 1.356 . S
N109 H114 0.984 . S
N109 H115 0.985 . S
C110 C104 1.379 . S
C110 C107 1.363 1_655 S
C110 N108 1.356 . S
C111 C105 1.363 . S
C111 C106 1.379 . S
C111 N109 1.356 . S
N112 C104 1.356 . S
N112 H118 0.984 . S
N112 H119 0.984 . S
N113 C106 1.356 . S
N113 H116 0.984 . S
N113 H117 0.985 . S
H114 N109 0.984 . S
H115 N109 0.985 . S
H116 N113 0.984 . S
H117 N113 0.985 . S
H118 N112 0.984 . S
H119 N112 0.984 . S
H120 N108 0.984 . S
H121 N108 0.985 . S
C122 C123 1.363 1_655 S
C122 C128 1.379 . S
C122 N130 1.356 . S
C123 C122 1.363 1_455 S
C123 C129 1.363 . S
C124 C125 1.363 . S
C124 C129 1.379 . S
C124 N131 1.356 . S
C125 C124 1.363 . S
C125 C128 1.363 1_455 S
N126 C128 1.356 . S
N126 H138 0.984 . S
N126 H139 0.985 . S
N127 C129 1.356 . S
N127 H132 0.984 . S
N127 H133 0.985 . S
C128 C122 1.379 . S
C128 C125 1.363 1_655 S
C128 N126 1.356 . S
C129 C123 1.363 . S
C129 C124 1.379 . S
C129 N127 1.356 . S
N130 C122 1.356 . S
N130 H136 0.984 . S
N130 H137 0.984 . S
N131 C124 1.356 . S
N131 H134 0.984 . S
N131 H135 0.985 . S
H132 N127 0.984 . S
H133 N127 0.985 . S
H134 N131 0.984 . S
H135 N131 0.985 . S
H136 N130 0.984 . S
H137 N130 0.984 . S
H138 N126 0.984 . S
H139 N126 0.985 . S
C140 C141 1.363 . S
C140 C146 1.379 . S
C140 N148 1.356 . S
C141 C140 1.363 . S
C141 C147 1.363 . S
C142 C143 1.363 . S
C142 C147 1.379 . S
C142 N149 1.356 . S
C143 C142 1.363 . S
C143 C146 1.363 . S
N144 C146 1.356 . S
N144 H156 0.984 . S
N144 H157 0.985 . S
N145 C147 1.356 . S
N145 H150 0.984 . S
N145 H151 0.985 . S
C146 C140 1.379 . S
C146 C143 1.363 . S
C146 N144 1.356 . S
C147 C141 1.363 . S
C147 C142 1.379 . S
C147 N145 1.356 . S
N148 C140 1.356 . S
N148 H154 0.984 . S
N148 H155 0.984 . S
N149 C142 1.356 . S
N149 H152 0.984 . S
N149 H153 0.985 . S
H150 N145 0.984 . S
H151 N145 0.985 . S
H152 N149 0.984 . S
H153 N149 0.985 . S
H154 N148 0.984 . S
H155 N148 0.984 . S
H156 N144 0.984 . S
H157 N144 0.985 . S
C158 C159 1.363 . S
C158 C164 1.379 . S
C158 N166 1.356 . S
C159 C158 1.363 . S
C159 C165 1.363 . S
C160 C161 1.363 . S
C160 C165 1.379 . S
C160 N167 1.356 . S
C161 C160 1.363 . S
C161 C164 1.363 . S
N162 C164 1.356 . S
N162 H174 0.984 . S
N162 H175 0.985 . S
N163 C165 1.356 . S
N163 H168 0.984 . S
N163 H169 0.985 . S
C164 C158 1.379 . S
C164 C161 1.363 . S
C164 N162 1.356 . S
C165 C159 1.363 . S
C165 C160 1.379 . S
C165 N163 1.356 . S
N166 C158 1.356 . S
N166 H172 0.984 . S
N166 H173 0.984 . S
N167 C160 1.356 . S
N167 H170 0.984 . S
N167 H171 0.985 . S
H168 N163 0.984 . S
H169 N163 0.985 . S
H170 N167 0.984 . S
H171 N167 0.985 . S
H172 N166 0.984 . S
H173 N166 0.984 . S
H174 N162 0.984 . S
H175 N162 0.985 . S
C176 C177 1.363 . S
C176 C182 1.379 . S
C176 N184 1.356 . S
C177 C176 1.363 . S
C177 C183 1.363 . S
C178 C179 1.363 . S
C178 C183 1.379 . S
C178 N185 1.356 . S
C179 C178 1.363 . S
C179 C182 1.363 . S
N180 C182 1.356 . S
N180 H192 1.007 . S
N180 H193 0.985 . S
N181 C183 1.356 . S
N181 H186 0.984 . S
N181 H187 0.985 . S
C182 C176 1.379 . S
C182 C179 1.363 . S
C182 N180 1.356 . S
C183 C177 1.363 . S
C183 C178 1.379 . S
C183 N181 1.356 . S
N184 C176 1.356 . S
N184 H190 1.007 . S
N184 H191 0.984 . S
N185 C178 1.356 . S
N185 H188 0.984 . S
N185 H189 0.985 . S
H186 N181 0.984 . S
H187 N181 0.985 . S
H188 N185 0.984 . S
H189 N185 0.985 . S
H190 N184 1.007 . S
H191 N184 0.984 . S
H192 N180 1.007 . S
H193 N180 0.985 . S
C194 C195 1.363 . S
C194 C200 1.379 . S
C194 N202 1.356 . S
C195 C194 1.363 . S
C195 C201 1.363 . S
C196 C197 1.363 . S
C196 C201 1.379 . S
C196 N203 1.356 . S
C197 C196 1.363 . S
C197 C200 1.363 . S
N198 C200 1.356 . S
N198 H210 0.984 . S
N198 H211 0.985 . S
N199 C201 1.356 . S
N199 H204 0.984 . S
N199 H205 0.985 . S
C200 C194 1.379 . S
C200 C197 1.363 . S
C200 N198 1.356 . S
C201 C195 1.363 . S
C201 C196 1.379 . S
C201 N199 1.356 . S
N202 C194 1.356 . S
N202 H208 0.984 . S
N202 H209 0.984 . S
N203 C196 1.356 . S
N203 H206 0.984 . S
N203 H207 0.985 . S
H204 N199 0.984 . S
H205 N199 0.985 . S
H206 N203 0.984 . S
H207 N203 0.985 . S
H208 N202 0.984 . S
H209 N202 0.984 . S
H210 N198 0.984 . S
H211 N198 0.985 . S
C212 C213 1.363 . S
C212 C218 1.379 . S
C212 N220 1.356 . S
C213 C212 1.363 . S
C213 C219 1.363 . S
C214 C215 1.363 . S
C214 C219 1.379 . S
C214 N221 1.356 . S
C215 C214 1.363 . S
C215 C218 1.363 . S
N216 C218 1.356 . S
N216 H228 0.984 . S
N216 H229 0.985 . S
N217 C219 1.356 . S
N217 H222 0.984 . S
N217 H223 1.006 . S
C218 C212 1.379 . S
C218 C215 1.363 . S
C218 N216 1.356 . S
C219 C213 1.363 . S
C219 C214 1.379 . S
C219 N217 1.356 . S
N220 C212 1.356 . S
N220 H226 0.984 . S
N220 H227 0.984 . S
N221 C214 1.356 . S
N221 H224 0.984 . S
N221 H225 1.007 . S
H222 N217 0.984 . S
H223 N217 1.006 . S
H224 N221 0.984 . S
H225 N221 1.007 . S
H226 N220 0.984 . S
H227 N220 0.984 . S
H228 N216 0.984 . S
H229 N216 0.985 . S
C230 C231 1.363 . S
C230 C236 1.379 . S
C230 N238 1.356 . S
C231 C230 1.363 . S
C231 C237 1.363 . S
C232 C233 1.363 . S
C232 C237 1.379 . S
C232 N239 1.356 . S
C233 C232 1.363 . S
C233 C236 1.363 . S
N234 C236 1.356 . S
N234 H246 0.984 . S
N234 H247 0.985 . S
N235 C237 1.356 . S
N235 H240 0.984 . S
N235 H241 0.985 . S
C236 C230 1.379 . S
C236 C233 1.363 . S
C236 N234 1.356 . S
C237 C231 1.363 . S
C237 C232 1.379 . S
C237 N235 1.356 . S
N238 C230 1.356 . S
N238 H244 0.984 . S
N238 H245 0.984 . S
N239 C232 1.356 . S
N239 H242 0.984 . S
N239 H243 0.985 . S
H240 N235 0.984 . S
H241 N235 0.985 . S
H242 N239 0.984 . S
H243 N239 0.985 . S
H244 N238 0.984 . S
H245 N238 0.984 . S
H246 N234 0.984 . S
H247 N234 0.985 . S
C248 C249 1.363 . S
C248 C254 1.379 . S
C248 N256 1.356 . S
C249 C248 1.363 . S
C249 C255 1.363 . S
C250 C251 1.363 . S
C250 C255 1.379 . S
C250 N257 1.356 . S
C251 C250 1.363 . S
C251 C254 1.363 . S
N252 C254 1.356 . S
N252 H264 0.984 . S
N252 H265 0.985 . S
N253 C255 1.356 . S
N253 H258 0.984 . S
N253 H259 0.985 . S
C254 C248 1.379 . S
C254 C251 1.363 . S
C254 N252 1.356 . S
C255 C249 1.363 . S
C255 C250 1.379 . S
C255 N253 1.356 . S
N256 C248 1.356 . S
N256 H262 0.984 . S
N256 H263 0.984 . S
N257 C250 1.356 . S
N257 H260 0.984 . S
N257 H261 0.985 . S
H258 N253 0.984 . S
H259 N253 0.985 . S
H260 N257 0.984 . S
H261 N257 0.985 . S
H262 N256 0.984 . S
H263 N256 0.984 . S
H264 N252 0.984 . S
H265 N252 0.985 . S
C266 C267 1.363 . S
C266 C272 1.379 . S
C266 N274 1.356 . S
C267 C266 1.363 . S
C267 C273 1.363 . S
C268 C269 1.363 . S
C268 C273 1.379 . S
C268 N275 1.356 . S
C269 C268 1.363 . S
C269 C272 1.363 . S
N270 C272 1.356 . S
N270 H282 0.984 . S
N270 H283 0.985 . S
N271 C273 1.356 . S
N271 H276 0.984 . S
N271 H277 0.985 . S
C272 C266 1.379 . S
C272 C269 1.363 . S
C272 N270 1.356 . S
C273 C267 1.363 . S
C273 C268 1.379 . S
C273 N271 1.356 . S
N274 C266 1.356 . S
N274 H280 0.984 . S
N274 H281 0.984 . S
N275 C268 1.356 . S
N275 H278 0.984 . S
N275 H279 0.985 . S
H276 N271 0.984 . S
H277 N271 0.985 . S
H278 N275 0.984 . S
H279 N275 0.985 . S
H280 N274 0.984 . S
H281 N274 0.984 . S
H282 N270 0.984 . S
H283 N270 0.985 . S
C284 C285 1.363 . S
C284 C290 1.379 . S
C284 N292 1.356 . S
C285 C284 1.363 . S
C285 C291 1.363 . S
C286 C287 1.363 . S
C286 C291 1.379 . S
C286 N293 1.356 . S
C287 C286 1.363 . S
C287 C290 1.363 . S
N288 C290 1.356 . S
N288 H300 0.984 . S
N288 H301 0.985 . S
N289 C291 1.356 . S
N289 H294 0.984 . S
N289 H295 0.985 . S
C290 C284 1.379 . S
C290 C287 1.363 . S
C290 N288 1.356 . S
C291 C285 1.363 . S
C291 C286 1.379 . S
C291 N289 1.356 . S
N292 C284 1.356 . S
N292 H298 0.984 . S
N292 H299 0.984 . S
N293 C286 1.356 . S
N293 H296 0.984 . S
N293 H297 0.985 . S
H294 N289 0.984 . S
H295 N289 0.985 . S
H296 N293 0.984 . S
H297 N293 0.985 . S
H298 N292 0.984 . S
H299 N292 0.984 . S
H300 N288 0.984 . S
H301 N288 0.985 . S
C302 C303 1.363 . S
C302 C308 1.379 . S
C302 N310 1.356 . S
C303 C302 1.363 . S
C303 C309 1.363 . S
C304 C305 1.363 . S
C304 C309 1.379 . S
C304 N311 1.356 . S
C305 C304 1.363 . S
C305 C308 1.363 . S
N306 C308 1.356 . S
N306 H318 0.984 . S
N306 H319 0.985 . S
N307 C309 1.356 . S
N307 H312 0.984 . S
N307 H313 0.985 . S
C308 C302 1.379 . S
C308 C305 1.363 . S
C308 N306 1.356 . S
C309 C303 1.363 . S
C309 C304 1.379 . S
C309 N307 1.356 . S
N310 C302 1.356 . S
N310 H316 0.984 . S
N310 H317 0.984 . S
N311 C304 1.356 . S
N311 H314 0.984 . S
N311 H315 0.985 . S
H312 N307 0.984 . S
H313 N307 0.985 . S
H314 N311 0.984 . S
H315 N311 0.985 . S
H316 N310 0.984 . S
H317 N310 0.984 . S
H318 N306 0.984 . S
H319 N306 0.985 . S
C320 C321 1.363 1_565 S
C320 C326 1.379 1_554 S
C320 N328 1.356 . S
C321 C320 1.363 1_545 S
C321 C327 1.363 1_455 S
C322 C323 1.363 1_645 S
C322 C327 1.379 1_556 S
C322 N329 1.356 . S
C323 C322 1.363 1_465 S
C323 C326 1.363 . S
N324 C326 1.356 . S
N324 H336 0.984 . S
N324 H337 0.985 . S
N325 C327 1.356 . S
N325 H330 0.984 . S
N325 H331 0.985 . S
C326 C320 1.379 1_556 S
C326 C323 1.363 . S
C326 N324 1.356 . S
C327 C321 1.363 1_655 S
C327 C322 1.379 1_554 S
C327 N325 1.356 . S
N328 C320 1.356 . S
N328 H334 0.984 . S
N328 H335 0.984 1_565 S
N329 C322 1.356 . S
N329 H332 0.984 1_545 S
N329 H333 0.985 . S
H330 N325 0.984 . S
H331 N325 0.985 . S
H332 N329 0.984 1_565 S
H333 N329 0.985 . S
H334 N328 0.984 . S
H335 N328 0.984 1_545 S
H336 N324 0.984 . S
H337 N324 0.985 . S
C338 C339 1.363 . S
C338 C344 1.379 1_556 S
C338 N346 1.356 . S
C339 C338 1.363 . S
C339 C345 1.363 1_455 S
C340 C341 1.363 1_655 S
C340 C345 1.379 1_554 S
C340 N347 1.356 . S
C341 C340 1.363 1_455 S
C341 C344 1.363 . S
N342 C344 1.356 . S
N342 H354 0.984 . S
N342 H355 0.985 . S
N343 C345 1.356 . S
N343 H348 0.984 . S
N343 H349 0.985 . S
C344 C338 1.379 1_554 S
C344 C341 1.363 . S
C344 N342 1.356 . S
C345 C339 1.363 1_655 S
C345 C340 1.379 1_556 S
C345 N343 1.356 . S
N346 C338 1.356 . S
N346 H352 0.984 1_556 S
N346 H353 0.984 . S
N347 C340 1.356 . S
N347 H350 0.984 . S
N347 H351 0.985 1_554 S
H348 N343 0.984 . S
H349 N343 0.985 . S
H350 N347 0.984 . S
H351 N347 0.985 1_556 S
H352 N346 0.984 1_554 S
H353 N346 0.984 . S
H354 N342 0.984 . S
H355 N342 0.985 . S
C356 C357 1.363 . S
C356 C362 1.379 . S
C356 N364 1.356 . S
C357 C356 1.363 . S
C357 C363 1.363 . S
C358 C359 1.363 . S
C358 C363 1.379 . S
C358 N365 1.356 . S
C359 C358 1.363 . S
C359 C362 1.363 . S
N360 C362 1.356 . S
N360 H372 0.984 . S
N360 H373 0.985 . S
N361 C363 1.356 . S
N361 H366 0.984 . S
N361 H367 0.985 . S
C362 C356 1.379 . S
C362 C359 1.363 . S
C362 N360 1.356 . S
C363 C357 1.363 . S
C363 C358 1.379 . S
C363 N361 1.356 . S
N364 C356 1.356 . S
N364 H370 0.984 . S
N364 H371 0.984 . S
N365 C358 1.356 . S
N365 H368 0.984 . S
N365 H369 0.985 . S
H366 N361 0.984 . S
H367 N361 0.985 . S
H368 N365 0.984 . S
H369 N365 0.985 . S
H370 N364 0.984 . S
H371 N364 0.984 . S
H372 N360 0.984 . S
H373 N360 0.985 . S
C374 C375 1.363 1_545 S
C374 C380 1.379 . S
C374 N382 1.356 . S
C375 C374 1.363 1_565 S
C375 C381 1.363 . S
C376 C377 1.363 1_565 S
C376 C381 1.379 . S
C376 N383 1.356 . S
C377 C376 1.363 1_545 S
C377 C380 1.363 . S
N378 C380 1.356 . S
N378 H390 0.984 . S
N378 H391 0.985 . S
N379 C381 1.356 . S
N379 H384 0.984 . S
N379 H385 0.985 . S
C380 C374 1.379 . S
C380 C377 1.363 . S
C380 N378 1.356 . S
C381 C375 1.363 . S
C381 C376 1.379 . S
C381 N379 1.356 . S
N382 C374 1.356 . S
N382 H388 0.984 . S
N382 H389 0.984 1_545 S
N383 C376 1.356 . S
N383 H386 0.984 1_565 S
N383 H387 0.985 . S
H384 N379 0.984 . S
H385 N379 0.985 . S
H386 N383 0.984 1_545 S
H387 N383 0.985 . S
H388 N382 0.984 . S
H389 N382 0.984 1_565 S
H390 N378 0.984 . S
H391 N378 0.985 . S
C105 C18 1.438 . S
C107 C5 1.438 . S
C123 C31 1.438 . S
C125 C44 1.438 . S
C141 C57 1.438 . S
C143 C70 1.438 . S
C159 C83 1.438 . S
C161 C96 1.438 . S
C177 C99 1.359 . S
C179 C8 1.359 . S
C195 C86 1.359 . S
C197 C21 1.359 . S
C213 C34 1.359 . S
C215 C73 1.359 . S
C231 C60 1.359 . S
C233 C47 1.359 . S
C249 C75 1.464 . S
C251 C36 1.464 . S
C267 C62 1.464 . S
C269 C49 1.464 . S
C285 C101 1.464 . S
C287 C10 1.464 . S
C303 C23 1.464 . S
C305 C88 1.464 . S
C321 C0 1.335 . S
C323 C26 1.335 . S
C339 C39 1.335 . S
C341 C13 1.335 . S
C357 C78 1.335 . S
C359 C52 1.335 . S
C375 C65 1.335 . S
C377 C91 1.335 . S
