# Generated by pormake.
# Topology zga, (5)-cn, num edge types: 1
# Building blocks:
#     Node 0, Type 0, BuildingBlock: BEQFEK_clean_sbu_0, # of connection points: 5
#     Node 1, Type 0, BuildingBlock: BEQFEK_clean_sbu_0, # of connection points: 5
#     Node 2, Type 0, BuildingBlock: BEQFEK_clean_sbu_0, # of connection points: 5
#     Node 3, Type 0, BuildingBlock: BEQFEK_clean_sbu_0, # of connection points: 5
#     Node 4, Type 0, BuildingBlock: BEQFEK_clean_sbu_0, # of connection points: 5
#     Node 5, Type 0, BuildingBlock: BEQFEK_clean_sbu_0, # of connection points: 5
#     Node 6, Type 0, BuildingBlock: BEQFEK_clean_sbu_0, # of connection points: 5
#     Node 7, Type 0, BuildingBlock: BEQFEK_clean_sbu_0, # of connection points: 5
#     Node 8, Type 0, BuildingBlock: BEQFEK_clean_sbu_0, # of connection points: 5
#     Node 9, Type 0, BuildingBlock: BEQFEK_clean_sbu_0, # of connection points: 5
#     Node 10, Type 0, BuildingBlock: BEQFEK_clean_sbu_0, # of connection points: 5
#     Node 11, Type 0, BuildingBlock: BEQFEK_clean_sbu_0, # of connection points: 5
#     Node 12, Type 0, BuildingBlock: BEQFEK_clean_sbu_0, # of connection points: 5
#     Node 13, Type 0, BuildingBlock: BEQFEK_clean_sbu_0, # of connection points: 5
#     Node 14, Type 0, BuildingBlock: BEQFEK_clean_sbu_0, # of connection points: 5
#     Node 15, Type 0, BuildingBlock: BEQFEK_clean_sbu_0, # of connection points: 5
#     Edge 16, Type (0, 0), BuildingBlock: FUNLAD_clean_linker_0, # of connection points: 2
#     Edge 17, Type (0, 0), BuildingBlock: FUNLAD_clean_linker_0, # of connection points: 2
#     Edge 18, Type (0, 0), BuildingBlock: FUNLAD_clean_linker_0, # of connection points: 2
#     Edge 19, Type (0, 0), BuildingBlock: FUNLAD_clean_linker_0, # of connection points: 2
#     Edge 20, Type (0, 0), BuildingBlock: FUNLAD_clean_linker_0, # of connection points: 2
#     Edge 21, Type (0, 0), BuildingBlock: FUNLAD_clean_linker_0, # of connection points: 2
#     Edge 22, Type (0, 0), BuildingBlock: FUNLAD_clean_linker_0, # of connection points: 2
#     Edge 23, Type (0, 0), BuildingBlock: FUNLAD_clean_linker_0, # of connection points: 2
#     Edge 24, Type (0, 0), BuildingBlock: FUNLAD_clean_linker_0, # of connection points: 2
#     Edge 25, Type (0, 0), BuildingBlock: FUNLAD_clean_linker_0, # of connection points: 2
#     Edge 26, Type (0, 0), BuildingBlock: FUNLAD_clean_linker_0, # of connection points: 2
#     Edge 27, Type (0, 0), BuildingBlock: FUNLAD_clean_linker_0, # of connection points: 2
#     Edge 28, Type (0, 0), BuildingBlock: FUNLAD_clean_linker_0, # of connection points: 2
#     Edge 29, Type (0, 0), BuildingBlock: FUNLAD_clean_linker_0, # of connection points: 2
#     Edge 30, Type (0, 0), BuildingBlock: FUNLAD_clean_linker_0, # of connection points: 2
#     Edge 31, Type (0, 0), BuildingBlock: FUNLAD_clean_linker_0, # of connection points: 2
#     Edge 32, Type (0, 0), BuildingBlock: FUNLAD_clean_linker_0, # of connection points: 2
#     Edge 33, Type (0, 0), BuildingBlock: FUNLAD_clean_linker_0, # of connection points: 2
#     Edge 34, Type (0, 0), BuildingBlock: FUNLAD_clean_linker_0, # of connection points: 2
#     Edge 35, Type (0, 0), BuildingBlock: FUNLAD_clean_linker_0, # of connection points: 2
#     Edge 36, Type (0, 0), BuildingBlock: FUNLAD_clean_linker_0, # of connection points: 2
#     Edge 37, Type (0, 0), BuildingBlock: FUNLAD_clean_linker_0, # of connection points: 2
#     Edge 38, Type (0, 0), BuildingBlock: FUNLAD_clean_linker_0, # of connection points: 2
#     Edge 39, Type (0, 0), BuildingBlock: FUNLAD_clean_linker_0, # of connection points: 2
#     Edge 40, Type (0, 0), BuildingBlock: FUNLAD_clean_linker_0, # of connection points: 2
#     Edge 41, Type (0, 0), BuildingBlock: FUNLAD_clean_linker_0, # of connection points: 2
#     Edge 42, Type (0, 0), BuildingBlock: FUNLAD_clean_linker_0, # of connection points: 2
#     Edge 43, Type (0, 0), BuildingBlock: FUNLAD_clean_linker_0, # of connection points: 2
#     Edge 44, Type (0, 0), BuildingBlock: FUNLAD_clean_linker_0, # of connection points: 2
#     Edge 45, Type (0, 0), BuildingBlock: FUNLAD_clean_linker_0, # of connection points: 2
#     Edge 46, Type (0, 0), BuildingBlock: FUNLAD_clean_linker_0, # of connection points: 2
#     Edge 47, Type (0, 0), BuildingBlock: FUNLAD_clean_linker_0, # of connection points: 2
#     Edge 48, Type (0, 0), BuildingBlock: FUNLAD_clean_linker_0, # of connection points: 2
#     Edge 49, Type (0, 0), BuildingBlock: FUNLAD_clean_linker_0, # of connection points: 2
#     Edge 50, Type (0, 0), BuildingBlock: FUNLAD_clean_linker_0, # of connection points: 2
#     Edge 51, Type (0, 0), BuildingBlock: FUNLAD_clean_linker_0, # of connection points: 2
#     Edge 52, Type (0, 0), BuildingBlock: FUNLAD_clean_linker_0, # of connection points: 2
#     Edge 53, Type (0, 0), BuildingBlock: FUNLAD_clean_linker_0, # of connection points: 2
#     Edge 54, Type (0, 0), BuildingBlock: FUNLAD_clean_linker_0, # of connection points: 2
#     Edge 55, Type (0, 0), BuildingBlock: FUNLAD_clean_linker_0, # of connection points: 2
# Relax obj value: 0.158
# Max RMSD: 0.222
# Mean RMSD: 0.178
data_MOF--net-zga--node1-BEQFEK_clean_sbu_0--edge1-FUNLAD_clean_linker_0
_symmetry_space_group_name_H-M    P1
_symmetry_Int_Tables_number       1
_symmetry_cell_setting            triclinic
loop_
_symmetry_equiv_pos_as_xyz
'x, y, z'
_cell_length_a     61.200488
_cell_length_b     103.72734
_cell_length_c     21.373162
_cell_angle_alpha  91.118305
_cell_angle_beta   90.030652
_cell_angle_gamma 101.16174
loop_
_atom_site_label
_atom_site_type_symbol
_atom_site_fract_x
_atom_site_fract_y
_atom_site_fract_z
_atom_type_partial_charge
Co0 Co 0.08229 0.53979 0.09044 0.0
Co1 Co 0.06696 0.53755 0.22991 0.0
C2 C 0.0799 0.56366 0.16792 0.0
O3 O 0.08388 0.55824 0.11648 0.0
O4 O 0.07343 0.55684 0.21569 0.0
C5 C 0.10484 0.54968 0.97867 0.0
O6 O 0.11064 0.56053 0.01235 0.0
C7 C 0.07652 0.54029 0.36304 0.0
C8 C 0.04583 0.52914 0.40536 0.0
C9 C 0.06679 0.53636 0.41964 0.0
N10 N 0.0621 0.53549 0.31708 0.0
N11 N 0.04373 0.52888 0.34257 0.0
C12 C 0.09861 0.5491 0.35273 0.0
H13 H 0.10215 0.55024 0.30203 0.0
H14 H 0.11206 0.54507 0.37545 0.0
H15 H 0.09852 0.55887 0.37468 0.0
C16 C 0.11545 0.52492 0.13782 0.0
N17 N 0.09821 0.53109 0.14632 0.0
N18 N 0.09096 0.52942 0.20411 0.0
C19 C 0.10288 0.52168 0.23359 0.0
C20 C 0.11902 0.51874 0.19296 0.0
C21 C 0.12839 0.52525 0.07832 0.0
H22 H 0.13092 0.53523 0.0586 0.0
H23 H 0.14484 0.52254 0.08601 0.0
H24 H 0.11873 0.51827 0.04379 0.0
O25 O 0.05062 0.53076 0.08615 0.0
O26 O 0.03943 0.52927 0.18499 0.0
H27 H 0.10226 0.50609 0.29941 0.0
H28 H 0.10628 0.52233 0.33328 0.0
C29 C 0.09722 0.51577 0.29634 0.0
H30 H 0.07908 0.51443 0.3049 0.0
H31 H 0.02982 0.52414 0.31712 0.0
O32 O 0.09376 0.53948 0.00395 0.0
C33 C 0.03552 0.52723 0.12675 0.0
Co34 Co 0.13782 0.70864 0.20009 0.0
Co35 Co 0.12188 0.70963 0.06145 0.0
C36 C 0.11333 0.6846 0.13291 0.0
O37 O 0.12267 0.69041 0.18167 0.0
O38 O 0.11194 0.69081 0.08268 0.0
C39 C 0.15313 0.69932 0.315 0.0
O40 O 0.14766 0.68768 0.28773 0.0
C41 C 0.12288 0.70393 0.92734 0.0
C42 C 0.10974 0.72043 0.8877 0.0
C43 C 0.11876 0.70957 0.87122 0.0
N44 N 0.11683 0.71123 0.97448 0.0
N45 N 0.10862 0.72094 0.95053 0.0
C46 C 0.13455 0.69269 0.9369 0.0
H47 H 0.14169 0.69313 0.9848 0.0
H48 H 0.14795 0.69279 0.90183 0.0
H49 H 0.12235 0.68332 0.93115 0.0
C50 C 0.18172 0.7182 0.1417 0.0
N51 N 0.15942 0.71438 0.13845 0.0
N52 N 0.15275 0.71537 0.08047 0.0
C53 C 0.17064 0.72019 0.04524 0.0
C54 C 0.18958 0.72194 0.0826 0.0
C55 C 0.19509 0.71771 0.19992 0.0
H56 H 0.19221 0.72558 0.23299 0.0
H57 H 0.18942 0.70814 0.22283 0.0
H58 H 0.21315 0.71898 0.18982 0.0
O59 O 0.11585 0.72034 0.20443 0.0
O60 O 0.10391 0.72076 0.10667 0.0
H61 H 0.15438 0.7282 0.9703 0.0
H62 H 0.18431 0.73183 0.96657 0.0
C63 C 0.16962 0.72421 0.97854 0.0
H64 H 0.16947 0.71555 0.94724 0.0
H65 H 0.10313 0.72823 0.97712 0.0
O66 O 0.15126 0.70948 0.28472 0.0
C67 C 0.10349 0.72428 0.16397 0.0
Co68 Co 0.81623 0.44713 0.95184 0.0
Co69 Co 0.82759 0.45232 0.81205 0.0
C70 C 0.82976 0.42649 0.87152 0.0
O71 O 0.82278 0.43014 0.92365 0.0
O72 O 0.83256 0.43414 0.82519 0.0
C73 C 0.7966 0.43534 0.06549 0.0
O74 O 0.78621 0.4255 0.03049 0.0
C75 C 0.81735 0.44757 0.67985 0.0
C76 C 0.84067 0.46375 0.63561 0.0
C77 C 0.8241 0.45288 0.62242 0.0
N78 N 0.82923 0.45503 0.72479 0.0
N79 N 0.84311 0.46471 0.69818 0.0
C80 C 0.8009 0.43519 0.69208 0.0
H81 H 0.80306 0.42738 0.65773 0.0
H82 H 0.8027 0.43183 0.74032 0.0
H83 H 0.78375 0.43704 0.6869 0.0
C84 C 0.7747 0.45585 0.91453 0.0
N85 N 0.79442 0.45248 0.90152 0.0
N86 N 0.79955 0.45508 0.84272 0.0
C87 C 0.78342 0.46045 0.8167 0.0
C88 C 0.767 0.46095 0.86102 0.0
C89 C 0.76393 0.45449 0.97748 0.0
H90 H 0.76299 0.44432 0.99377 0.0
H91 H 0.74689 0.45666 0.97631 0.0
H92 H 0.77435 0.46125 0.01143 0.0
O93 O 0.84397 0.46063 0.95208 0.0
O94 O 0.85217 0.46486 0.85264 0.0
H95 H 0.77492 0.47448 0.75161 0.0
H96 H 0.77946 0.45927 0.7172 0.0
C97 C 0.78526 0.46682 0.75407 0.0
H98 H 0.80279 0.47144 0.74471 0.0
H99 H 0.85436 0.47188 0.72268 0.0
O100 O 0.80815 0.44538 0.0403 0.0
C101 C 0.85646 0.46688 0.91066 0.0
Co102 Co 0.91334 0.30291 0.92606 0.0
Co103 Co 0.90237 0.29629 0.78479 0.0
C104 C 0.90101 0.32284 0.84045 0.0
O105 O 0.90722 0.31961 0.89376 0.0
O106 O 0.89838 0.31472 0.79446 0.0
C107 C 0.93671 0.31354 0.04349 0.0
O108 O 0.95312 0.32036 0.01139 0.0
C109 C 0.91007 0.30007 0.65154 0.0
C110 C 0.89569 0.28055 0.61055 0.0
C111 C 0.90717 0.29297 0.5955 0.0
N112 N 0.90089 0.29219 0.69752 0.0
N113 N 0.89202 0.28059 0.67268 0.0
C114 C 0.9237 0.31354 0.66293 0.0
H115 H 0.93052 0.31448 0.71128 0.0
H116 H 0.93759 0.31566 0.62902 0.0
H117 H 0.91291 0.3209 0.65737 0.0
C118 C 0.95358 0.29199 0.89291 0.0
N119 N 0.93485 0.29632 0.87793 0.0
N120 N 0.93032 0.29377 0.81814 0.0
C121 C 0.94629 0.28799 0.79305 0.0
C122 C 0.96144 0.2866 0.83955 0.0
C123 C 0.96204 0.2914 0.95826 0.0
H124 H 0.94796 0.28976 0.99163 0.0
H125 H 0.97321 0.30086 0.97047 0.0
H126 H 0.97165 0.28342 0.96271 0.0
O127 O 0.88581 0.28958 0.92615 0.0
O128 O 0.87712 0.28455 0.82661 0.0
H129 H 0.93209 0.27579 0.71571 0.0
H130 H 0.96218 0.27985 0.71469 0.0
C131 C 0.94684 0.2836 0.72601 0.0
H132 H 0.94635 0.29202 0.69546 0.0
H133 H 0.88414 0.27258 0.69842 0.0
O134 O 0.92069 0.30601 0.01561 0.0
C135 C 0.87312 0.28305 0.8848 0.0
Co136 Co 0.08333 0.0378 0.58357 0.0
Co137 Co 0.06676 0.03712 0.72251 0.0
C138 C 0.08095 0.0625 0.65613 0.0
O139 O 0.08487 0.0564 0.60647 0.0
O140 O 0.07421 0.05634 0.7057 0.0
C141 C 0.10635 0.04662 0.4699 0.0
O142 O 0.11136 0.05799 0.49982 0.0
C143 C 0.07184 0.03985 0.85905 0.0
C144 C 0.04231 0.02573 0.89066 0.0
C145 C 0.06142 0.03409 0.91226 0.0
N146 N 0.05959 0.03491 0.80878 0.0
N147 N 0.04178 0.02666 0.82808 0.0
C148 C 0.09402 0.04888 0.85468 0.0
H149 H 0.10064 0.04874 0.80637 0.0
H150 H 0.10603 0.04604 0.88823 0.0
H151 H 0.09205 0.05905 0.86652 0.0
C152 C 0.11548 0.0231 0.63787 0.0
N153 N 0.09833 0.02945 0.64327 0.0
N154 N 0.09081 0.02854 0.70105 0.0
C155 C 0.10258 0.02119 0.73377 0.0
C156 C 0.11879 0.01768 0.69515 0.0
C157 C 0.12867 0.02262 0.57925 0.0
H158 H 0.11882 0.01553 0.54554 0.0
H159 H 0.1319 0.03243 0.55753 0.0
H160 H 0.14478 0.01961 0.58863 0.0
O161 O 0.05172 0.02897 0.57712 0.0
O162 O 0.0397 0.02889 0.67497 0.0
H163 H 0.07872 0.01454 0.80561 0.0
H164 H 0.10284 0.00701 0.80636 0.0
C165 C 0.09695 0.01631 0.79839 0.0
H166 H 0.10521 0.02373 0.83319 0.0
H167 H 0.02971 0.02126 0.79832 0.0
O168 O 0.09564 0.0367 0.4982 0.0
C169 C 0.0362 0.02616 0.61708 0.0
Co170 Co 0.14147 0.20979 0.74328 0.0
Co171 Co 0.12879 0.20893 0.60191 0.0
C172 C 0.12343 0.18436 0.67453 0.0
O173 O 0.13076 0.19093 0.72363 0.0
O174 O 0.12166 0.19003 0.62293 0.0
C175 C 0.16375 0.20374 0.85555 0.0
O176 O 0.17263 0.19558 0.82053 0.0
C177 C 0.129 0.20291 0.46686 0.0
C178 C 0.12359 0.22168 0.4283 0.0
C179 C 0.12808 0.2095 0.41149 0.0
N180 N 0.12552 0.21093 0.51444 0.0
N181 N 0.12181 0.22201 0.49098 0.0
C182 C 0.13578 0.18993 0.47506 0.0
H183 H 0.12059 0.18213 0.4769 0.0
H184 H 0.14506 0.18992 0.51965 0.0
H185 H 0.14621 0.18765 0.43544 0.0
C186 C 0.18517 0.22349 0.69367 0.0
N187 N 0.16381 0.21727 0.6865 0.0
N188 N 0.15856 0.21663 0.62661 0.0
C189 C 0.17656 0.22228 0.59371 0.0
C190 C 0.19392 0.2269 0.63506 0.0
C191 C 0.19655 0.22664 0.75557 0.0
H192 H 0.18463 0.2292 0.79057 0.0
H193 H 0.20257 0.21785 0.77187 0.0
H194 H 0.21099 0.23491 0.75199 0.0
O195 O 0.11658 0.21929 0.74218 0.0
O196 O 0.10709 0.21845 0.64202 0.0
H197 H 0.16708 0.22922 0.50611 0.0
H198 H 0.19484 0.22572 0.5065 0.0
C199 C 0.17761 0.22249 0.52373 0.0
H200 H 0.17124 0.2125 0.50454 0.0
H201 H 0.11916 0.23004 0.51802 0.0
O202 O 0.15165 0.2109 0.83063 0.0
C203 C 0.10429 0.22199 0.69832 0.0
Co204 Co 0.81746 0.94653 0.42068 0.0
Co205 Co 0.83242 0.95232 0.28351 0.0
C206 C 0.83264 0.92613 0.34219 0.0
O207 O 0.82485 0.92957 0.39372 0.0
O208 O 0.83629 0.93399 0.29675 0.0
C209 C 0.80211 0.9349 0.53821 0.0
O210 O 0.80734 0.92409 0.51497 0.0
C211 C 0.82605 0.94737 0.15136 0.0
C212 C 0.8446 0.96552 0.10929 0.0
C213 C 0.83098 0.95352 0.09489 0.0
N214 N 0.83621 0.95535 0.19707 0.0
N215 N 0.84756 0.96612 0.17181 0.0
C216 C 0.81002 0.9348 0.16292 0.0
H217 H 0.80342 0.93474 0.21128 0.0
H218 H 0.79601 0.93339 0.12888 0.0
H219 H 0.81883 0.92645 0.15728 0.0
C220 C 0.77684 0.95477 0.37429 0.0
N221 N 0.7972 0.95197 0.36531 0.0
N222 N 0.80371 0.95493 0.30791 0.0
C223 C 0.78782 0.95999 0.2787 0.0
C224 C 0.77018 0.95997 0.31967 0.0
C225 C 0.76418 0.95253 0.43424 0.0
H226 H 0.7654 0.94276 0.45255 0.0
H227 H 0.74637 0.953 0.42767 0.0
H228 H 0.77172 0.96011 0.4694 0.0
O229 O 0.84529 0.96003 0.42765 0.0
O230 O 0.85585 0.96452 0.32989 0.0
H231 H 0.77906 0.97305 0.20904 0.0
H232 H 0.78708 0.95832 0.17887 0.0
C233 C 0.79056 0.96614 0.21566 0.0
H234 H 0.80787 0.97159 0.21016 0.0
H235 H 0.85661 0.97406 0.19737 0.0
O236 O 0.80479 0.94514 0.50528 0.0
C237 C 0.8588 0.96636 0.38859 0.0
Co238 Co 0.91779 0.80197 0.4517 0.0
Co239 Co 0.90504 0.79634 0.31188 0.0
C240 C 0.90317 0.8223 0.37585 0.0
O241 O 0.91073 0.8189 0.42707 0.0
O242 O 0.90006 0.81447 0.32874 0.0
C243 C 0.93746 0.81375 0.56801 0.0
O244 O 0.9472 0.82389 0.53573 0.0
C245 C 0.91463 0.80108 0.18037 0.0
C246 C 0.89113 0.78493 0.13341 0.0
C247 C 0.90773 0.79576 0.12202 0.0
N248 N 0.90284 0.79363 0.22409 0.0
N249 N 0.88883 0.78398 0.19585 0.0
C250 C 0.93121 0.81342 0.19472 0.0
H251 H 0.92935 0.81689 0.24339 0.0
H252 H 0.94831 0.81148 0.18976 0.0
H253 H 0.92922 0.8212 0.16143 0.0
C254 C 0.95916 0.79345 0.40989 0.0
N255 N 0.93919 0.79661 0.39894 0.0
N256 N 0.93343 0.79376 0.34022 0.0
C257 C 0.94939 0.78843 0.31218 0.0
C258 C 0.96635 0.78822 0.35507 0.0
C259 C 0.97063 0.79509 0.47214 0.0
H260 H 0.96117 0.78801 0.50524 0.0
H261 H 0.97081 0.80513 0.49101 0.0
H262 H 0.988 0.79348 0.46875 0.0
O263 O 0.89022 0.78835 0.45129 0.0
O264 O 0.88086 0.78383 0.35191 0.0
H265 H 0.92935 0.77722 0.23982 0.0
H266 H 0.95721 0.77411 0.24502 0.0
C267 C 0.94698 0.78182 0.24887 0.0
H268 H 0.9526 0.78921 0.21259 0.0
H269 H 0.87763 0.77682 0.21918 0.0
O270 O 0.92645 0.80364 0.5401 0.0
C271 C 0.87729 0.78195 0.40999 0.0
Co272 Co 0.58532 0.53874 0.5827 0.0
Co273 Co 0.56908 0.54088 0.72004 0.0
C274 C 0.58548 0.56478 0.64182 0.0
O275 O 0.58976 0.55784 0.59544 0.0
O276 O 0.57739 0.55946 0.69212 0.0
C277 C 0.60937 0.54345 0.46759 0.0
O278 O 0.61855 0.55467 0.49461 0.0
C279 C 0.5784 0.54711 0.85199 0.0
C280 C 0.54907 0.53525 0.89757 0.0
C281 C 0.56955 0.54329 0.91009 0.0
N282 N 0.5641 0.54128 0.80758 0.0
N283 N 0.54643 0.53438 0.83505 0.0
C284 C 0.59987 0.55628 0.83819 0.0
H285 H 0.59846 0.56154 0.79428 0.0
H286 H 0.61331 0.55058 0.83178 0.0
H287 H 0.60455 0.56355 0.87702 0.0
C288 C 0.6156 0.52368 0.64342 0.0
N289 N 0.59951 0.53087 0.64569 0.0
N290 N 0.5919 0.53107 0.70317 0.0
C291 C 0.60243 0.52358 0.739 0.0
C292 C 0.61801 0.51881 0.70257 0.0
C293 C 0.62857 0.5218 0.58576 0.0
H294 H 0.63267 0.53118 0.56042 0.0
H295 H 0.64422 0.51844 0.59716 0.0
H296 H 0.61819 0.51441 0.55441 0.0
O297 O 0.55298 0.53132 0.58079 0.0
O298 O 0.54101 0.53228 0.67841 0.0
H299 H 0.60014 0.50997 0.81509 0.0
H300 H 0.60473 0.52702 0.8381 0.0
C301 C 0.5958 0.51959 0.80434 0.0
H302 H 0.57763 0.51881 0.81042 0.0
H303 H 0.53297 0.52868 0.81111 0.0
O304 O 0.59599 0.53506 0.49859 0.0
C305 C 0.53737 0.52924 0.62085 0.0
Co306 Co 0.63986 0.71143 0.68907 0.0
Co307 Co 0.62334 0.71044 0.54995 0.0
C308 C 0.61762 0.68618 0.62563 0.0
O309 O 0.62633 0.69282 0.67305 0.0
O310 O 0.61561 0.69163 0.57359 0.0
C311 C 0.65721 0.70305 0.80314 0.0
O312 O 0.65385 0.69148 0.77481 0.0
C313 C 0.62343 0.70439 0.41521 0.0
C314 C 0.61 0.72091 0.37685 0.0
C315 C 0.61905 0.71011 0.35945 0.0
N316 N 0.61763 0.71165 0.46294 0.0
N317 N 0.60917 0.72133 0.43969 0.0
C318 C 0.63515 0.69314 0.42377 0.0
H319 H 0.64232 0.69344 0.47161 0.0
H320 H 0.64856 0.69338 0.38861 0.0
H321 H 0.623 0.68377 0.41736 0.0
C322 C 0.68259 0.72318 0.62989 0.0
N323 N 0.6608 0.71769 0.62658 0.0
N324 N 0.6539 0.71771 0.56821 0.0
C325 C 0.67111 0.72349 0.53263 0.0
C326 C 0.68984 0.72707 0.57049 0.0
C327 C 0.69568 0.7253 0.68958 0.0
H328 H 0.68703 0.73073 0.72377 0.0
H329 H 0.69643 0.71562 0.70981 0.0
H330 H 0.71283 0.73089 0.68219 0.0
O331 O 0.61645 0.72209 0.692 0.0
O332 O 0.60384 0.72085 0.59434 0.0
H333 H 0.65522 0.72985 0.45262 0.0
H334 H 0.68501 0.73166 0.44494 0.0
C335 C 0.66979 0.72538 0.46353 0.0
H336 H 0.66778 0.71571 0.43927 0.0
H337 H 0.6038 0.7286 0.46676 0.0
O338 O 0.65348 0.71294 0.77369 0.0
C339 C 0.60324 0.72493 0.65078 0.0
Co340 Co 0.31998 0.44731 0.42394 0.0
Co341 Co 0.33428 0.45372 0.28579 0.0
C342 C 0.33433 0.42718 0.34123 0.0
O343 O 0.32711 0.43044 0.39394 0.0
O344 O 0.33764 0.43522 0.29637 0.0
C345 C 0.30264 0.43503 0.53975 0.0
O346 O 0.30352 0.42375 0.51185 0.0
C347 C 0.32884 0.45132 0.14933 0.0
C348 C 0.35162 0.46925 0.1184 0.0
C349 C 0.33663 0.45833 0.09636 0.0
N350 N 0.3386 0.45793 0.19993 0.0
N351 N 0.35224 0.46861 0.18112 0.0
C352 C 0.31314 0.43834 0.15235 0.0
H353 H 0.31506 0.43348 0.19709 0.0
H354 H 0.29575 0.43991 0.14965 0.0
H355 H 0.31604 0.43184 0.11262 0.0
C356 C 0.27971 0.4565 0.38085 0.0
N357 N 0.2997 0.45331 0.37009 0.0
N358 N 0.30597 0.4565 0.31267 0.0
C359 C 0.29036 0.46211 0.28543 0.0
C360 C 0.27308 0.46218 0.3275 0.0
C361 C 0.26748 0.45429 0.44149 0.0
H362 H 0.27578 0.46158 0.47692 0.0
H363 H 0.26815 0.44434 0.45848 0.0
H364 H 0.24983 0.45524 0.43642 0.0
O365 O 0.34807 0.46051 0.43154 0.0
O366 O 0.35814 0.46527 0.33377 0.0
H367 H 0.31087 0.47392 0.21834 0.0
H368 H 0.28253 0.47628 0.22 0.0
C369 C 0.29332 0.46889 0.22389 0.0
H370 H 0.28896 0.46151 0.18545 0.0
H371 H 0.36187 0.47549 0.21113 0.0
O372 O 0.30815 0.44562 0.50983 0.0
C373 C 0.36151 0.46684 0.39241 0.0
Co374 Co 0.41338 0.30102 0.42611 0.0
Co375 Co 0.39577 0.29574 0.28832 0.0
C376 C 0.40217 0.32259 0.35001 0.0
O377 O 0.40955 0.31863 0.40032 0.0
O378 O 0.39644 0.31474 0.30379 0.0
C379 C 0.43136 0.31306 0.54213 0.0
O380 O 0.4312 0.32408 0.5131 0.0
C381 C 0.40288 0.2989 0.15485 0.0
C382 C 0.37551 0.28425 0.11289 0.0
C383 C 0.394 0.29368 0.09827 0.0
N384 N 0.39045 0.29273 0.20109 0.0
N385 N 0.37399 0.28404 0.17581 0.0
C386 C 0.4223 0.30997 0.16506 0.0
H387 H 0.42663 0.31128 0.21549 0.0
H388 H 0.43697 0.30813 0.13847 0.0
H389 H 0.418 0.31916 0.14738 0.0
C390 C 0.44903 0.28812 0.37652 0.0
N391 N 0.43069 0.2933 0.36866 0.0
N392 N 0.42289 0.29056 0.31152 0.0
C393 C 0.43581 0.28327 0.28157 0.0
C394 C 0.45284 0.28155 0.32163 0.0
C395 C 0.46108 0.28832 0.43756 0.0
H396 H 0.44964 0.28287 0.47248 0.0
H397 H 0.46599 0.29863 0.45501 0.0
H398 H 0.47605 0.28382 0.43318 0.0
O399 O 0.38355 0.28967 0.4329 0.0
O400 O 0.37065 0.28553 0.33595 0.0
H401 H 0.41348 0.27365 0.21004 0.0
H402 H 0.44103 0.26989 0.20577 0.0
C403 C 0.43149 0.27769 0.21654 0.0
H404 H 0.43667 0.2856 0.18259 0.0
H405 H 0.36186 0.27788 0.20149 0.0
O406 O 0.42587 0.3022 0.51221 0.0
C407 C 0.36837 0.2842 0.3949 0.0
Co408 Co 0.5873 0.04054 0.05797 0.0
Co409 Co 0.57047 0.03773 0.196 0.0
C410 C 0.58645 0.06417 0.13829 0.0
O411 O 0.5908 0.05895 0.08657 0.0
O412 O 0.57852 0.05713 0.18424 0.0
C413 C 0.60943 0.04974 0.94335 0.0
O414 O 0.61488 0.06107 0.97343 0.0
C415 C 0.57768 0.03997 0.33058 0.0
C416 C 0.54936 0.0255 0.36646 0.0
C417 C 0.56863 0.03412 0.38503 0.0
N418 N 0.56449 0.03493 0.28233 0.0
N419 N 0.5474 0.02645 0.30408 0.0
C420 C 0.59964 0.04908 0.32285 0.0
H421 H 0.60552 0.04869 0.27386 0.0
H422 H 0.61226 0.04652 0.35522 0.0
H423 H 0.59763 0.05928 0.33387 0.0
C424 C 0.61875 0.02458 0.1051 0.0
N425 N 0.60168 0.0309 0.11323 0.0
N426 N 0.59406 0.02914 0.17062 0.0
C427 C 0.60571 0.02128 0.20034 0.0
C428 C 0.6219 0.01827 0.16011 0.0
C429 C 0.63227 0.02516 0.04655 0.0
H430 H 0.63525 0.03527 0.02823 0.0
H431 H 0.64851 0.02223 0.05488 0.0
H432 H 0.62279 0.01847 0.01059 0.0
O433 O 0.55524 0.03263 0.05109 0.0
O434 O 0.54294 0.03039 0.1486 0.0
H435 H 0.60634 0.00642 0.26945 0.0
H436 H 0.60844 0.02288 0.30004 0.0
C437 C 0.60027 0.01575 0.26389 0.0
H438 H 0.58204 0.01382 0.27134 0.0
H439 H 0.53488 0.02093 0.27608 0.0
O440 O 0.59882 0.03983 0.97185 0.0
C441 C 0.53955 0.02908 0.08985 0.0
Co442 Co 0.64187 0.21026 0.19554 0.0
Co443 Co 0.62372 0.21167 0.05894 0.0
C444 C 0.62195 0.18593 0.1229 0.0
O445 O 0.63089 0.19166 0.17234 0.0
O446 O 0.61826 0.19247 0.07549 0.0
C447 C 0.65902 0.20134 0.30937 0.0
O448 O 0.65676 0.19 0.27927 0.0
C449 C 0.62565 0.20809 0.9229 0.0
C450 C 0.60808 0.22339 0.88974 0.0
C451 C 0.6202 0.21414 0.8691 0.0
N452 N 0.61752 0.21374 0.97264 0.0
N453 N 0.60659 0.22265 0.95241 0.0
C454 C 0.64043 0.19823 0.92829 0.0
H455 H 0.64712 0.19828 0.97658 0.0
H456 H 0.65439 0.20029 0.89455 0.0
H457 H 0.63057 0.18829 0.91742 0.0
C458 C 0.68341 0.22428 0.1371 0.0
N459 N 0.66173 0.21853 0.13438 0.0
N460 N 0.6539 0.21986 0.07793 0.0
C461 C 0.67027 0.22699 0.04366 0.0
C462 C 0.68951 0.22988 0.07976 0.0
C463 C 0.69762 0.2247 0.19431 0.0
H464 H 0.69037 0.22982 0.23283 0.0
H465 H 0.69755 0.21451 0.20943 0.0
H466 H 0.71499 0.22984 0.18587 0.0
O467 O 0.61671 0.21957 0.20452 0.0
O468 O 0.60306 0.2203 0.10877 0.0
H469 H 0.65127 0.23357 0.9705 0.0
H470 H 0.68081 0.23929 0.96388 0.0
C471 C 0.66773 0.23087 0.97729 0.0
H472 H 0.66919 0.22252 0.94563 0.0
H473 H 0.59913 0.22871 0.98159 0.0
O474 O 0.65531 0.21132 0.28051 0.0
C475 C 0.60268 0.22291 0.16718 0.0
Co476 Co 0.31487 0.94509 0.94395 0.0
Co477 Co 0.3311 0.95172 0.80711 0.0
C478 C 0.32936 0.9249 0.86235 0.0
O479 O 0.32132 0.92805 0.91412 0.0
O480 O 0.3338 0.93313 0.8185 0.0
C481 C 0.29776 0.93309 0.06046 0.0
O482 O 0.29936 0.92182 0.03355 0.0
C483 C 0.32697 0.94918 0.6701 0.0
C484 C 0.34907 0.96744 0.64017 0.0
C485 C 0.33466 0.95634 0.61749 0.0
N486 N 0.33611 0.9559 0.7212 0.0
N487 N 0.34942 0.96676 0.70293 0.0
C488 C 0.31168 0.93604 0.6722 0.0
H489 H 0.31411 0.93096 0.71589 0.0
H490 H 0.29416 0.9374 0.67107 0.0
H491 H 0.31452 0.92982 0.63132 0.0
C492 C 0.2761 0.95545 0.8984 0.0
N493 N 0.29567 0.95163 0.88877 0.0
N494 N 0.30278 0.95488 0.83207 0.0
C495 C 0.28816 0.96116 0.8043 0.0
C496 C 0.27073 0.96163 0.84519 0.0
C497 C 0.26417 0.95445 0.95969 0.0
H498 H 0.27462 0.96082 0.99501 0.0
H499 H 0.26171 0.94419 0.97601 0.0
H500 H 0.24781 0.9575 0.95601 0.0
O501 O 0.34335 0.95785 0.95331 0.0
O502 O 0.35482 0.96303 0.85697 0.0
H503 H 0.30848 0.9735 0.73894 0.0
H504 H 0.27903 0.97354 0.73178 0.0
C505 C 0.29152 0.96738 0.74151 0.0
H506 H 0.28992 0.95959 0.70477 0.0
H507 H 0.35853 0.97377 0.73337 0.0
O508 O 0.30251 0.94358 0.02945 0.0
C509 C 0.35745 0.96425 0.91602 0.0
Co510 Co 0.41697 0.80079 0.95055 0.0
Co511 Co 0.39971 0.79495 0.81319 0.0
C512 C 0.40074 0.82119 0.87809 0.0
O513 O 0.40946 0.81779 0.92769 0.0
O514 O 0.39625 0.81329 0.83146 0.0
C515 C 0.43299 0.81233 0.06997 0.0
O516 O 0.42844 0.82322 0.04756 0.0
C517 C 0.40404 0.79982 0.68056 0.0
C518 C 0.38361 0.78197 0.63734 0.0
C519 C 0.39747 0.79379 0.62333 0.0
N520 N 0.39456 0.79194 0.7261 0.0
N521 N 0.38216 0.78134 0.70013 0.0
C522 C 0.42072 0.81222 0.69259 0.0
H523 H 0.42827 0.81214 0.73976 0.0
H524 H 0.43397 0.81347 0.65655 0.0
H525 H 0.41217 0.82072 0.69078 0.0
C526 C 0.45631 0.79194 0.89754 0.0
N527 N 0.4361 0.79509 0.89149 0.0
N528 N 0.42865 0.79218 0.83421 0.0
C529 C 0.44379 0.78684 0.80214 0.0
C530 C 0.4619 0.7866 0.84108 0.0
C531 C 0.46971 0.79388 0.95672 0.0
H532 H 0.46893 0.8036 0.97821 0.0
H533 H 0.48737 0.79329 0.94798 0.0
H534 H 0.46246 0.7862 0.99028 0.0
O535 O 0.38903 0.78756 0.95707 0.0
O536 O 0.37671 0.78292 0.85996 0.0
H537 H 0.45088 0.77353 0.72876 0.0
H538 H 0.44298 0.7884 0.70265 0.0
C539 C 0.43981 0.78063 0.73826 0.0
H540 H 0.4223 0.77538 0.73384 0.0
H541 H 0.37321 0.77353 0.72525 0.0
O542 O 0.43019 0.80203 0.0354 0.0
C543 C 0.37474 0.78125 0.91872 0.0
C544 C 0.24037 0.46578 0.26512 0.0
C545 C 0.25357 0.46843 0.31924 0.0
C546 C 0.22308 0.47251 0.25438 0.0
C547 C 0.21858 0.48201 0.29801 0.0
C548 C 0.23167 0.48448 0.35257 0.0
C549 C 0.24895 0.47774 0.3632 0.0
C550 C 0.20143 0.49012 0.28693 0.0
C551 C 0.18429 0.48676 0.24632 0.0
C552 C 0.16773 0.4952 0.23381 0.0
C553 C 0.15519 0.49306 0.17816 0.0
C554 C 0.13947 0.50075 0.16442 0.0
C555 C 0.13593 0.51072 0.20625 0.0
H556 H 0.17251 0.50687 0.32044 0.0
C557 C 0.14824 0.51281 0.26215 0.0
C558 C 0.16387 0.5051 0.27608 0.0
H559 H 0.14578 0.52045 0.29522 0.0
H560 H 0.24374 0.45866 0.23045 0.0
H561 H 0.21391 0.47051 0.21091 0.0
H562 H 0.22873 0.49181 0.38674 0.0
H563 H 0.25916 0.48012 0.40481 0.0
H564 H 0.20337 0.4993 0.31335 0.0
H565 H 0.18237 0.47759 0.21981 0.0
H566 H 0.15761 0.48542 0.14503 0.0
H567 H 0.12987 0.49878 0.12152 0.0
C568 C 0.08874 0.73784 0.24633 0.0
C569 C 0.08847 0.73318 0.18405 0.0
C570 C 0.07457 0.74623 0.26542 0.0
C571 C 0.05962 0.75004 0.22268 0.0
C572 C 0.05962 0.74554 0.16029 0.0
C573 C 0.07382 0.73718 0.14115 0.0
C574 C 0.04402 0.75882 0.24071 0.0
C575 C 0.03758 0.76066 0.30004 0.0
C576 C 0.02065 0.76868 0.31623 0.0
C577 C 0.00772 0.7657 0.37024 0.0
C578 C 0.99052 0.77238 0.38441 0.0
C579 C 0.98614 0.78225 0.34509 0.0
H580 H 0.02703 0.78199 0.23801 0.0
C581 C -0.00031 0.78569 0.2928 0.0
C582 C 0.01688 0.77903 0.27861 0.0
H583 H 0.99671 0.79339 0.26226 0.0
H584 H 0.1 0.73509 0.28047 0.0
H585 H 0.07569 0.74979 0.31342 0.0
H586 H 0.04843 0.7484 0.12619 0.0
H587 H 0.07324 0.73384 0.09274 0.0
H588 H 0.03647 0.76325 0.20276 0.0
H589 H 0.04344 0.75531 0.33768 0.0
H590 H 0.01041 0.75787 0.40036 0.0
H591 H 0.98012 0.76949 0.4247 0.0
C592 C 0.33699 0.76695 0.90402 0.0
C593 C 0.35486 0.77241 0.94362 0.0
C594 C 0.31743 0.75958 0.92858 0.0
C595 C 0.31543 0.75738 0.99337 0.0
C596 C 0.33352 0.76258 0.03257 0.0
C597 C 0.35302 0.76998 0.00808 0.0
C598 C 0.29435 0.75062 0.02251 0.0
C599 C 0.2778 0.74276 0.99062 0.0
C600 C 0.25592 0.73701 0.0186 0.0
C601 C 0.24241 0.72628 0.98774 0.0
C602 C 0.22107 0.72118 0.00965 0.0
C603 C 0.21278 0.72673 0.06275 0.0
H604 H 0.2571 0.75099 0.09659 0.0
C605 C 0.22627 0.73731 0.0944 0.0
C606 C 0.24762 0.74247 0.07244 0.0
H607 H 0.22001 0.74189 0.13484 0.0
H608 H 0.33779 0.76871 0.8542 0.0
H609 H 0.30376 0.7561 0.89668 0.0
H610 H 0.33245 0.76111 0.08262 0.0
H611 H 0.36647 0.77401 0.04 0.0
H612 H 0.29264 0.75216 0.07248 0.0
H613 H 0.28026 0.74022 0.94199 0.0
H614 H 0.24827 0.72194 0.94601 0.0
H615 H 0.21093 0.71297 0.98462 0.0
C616 C 0.88084 0.47923 0.99472 0.0
C617 C 0.87678 0.47626 0.9308 0.0
C618 C 0.90061 0.48738 0.01451 0.0
C619 C 0.91694 0.49265 0.97079 0.0
C620 C 0.9125 0.49011 0.90679 0.0
C621 C 0.89266 0.48198 0.88692 0.0
C622 C 0.93876 0.50075 0.99005 0.0
C623 C 0.94808 0.4999 0.04663 0.0
C624 C 0.97039 0.50739 0.06545 0.0
C625 C 0.97534 0.50934 0.12948 0.0
C626 C 0.99638 0.51589 0.14946 0.0
C627 C 0.01305 0.52053 0.1057 0.0
H628 H 0.98424 0.51037 0.97189 0.0
C629 C 0.00813 0.51854 0.04155 0.0
C630 C 0.98707 0.51202 0.02159 0.0
H631 H 0.02062 0.52191 0.00655 0.0
H632 H 0.8688 0.47517 0.02976 0.0
H633 H 0.90288 0.48952 0.06406 0.0
H634 H 0.92466 0.49418 0.87204 0.0
H635 H 0.89001 0.47996 0.83729 0.0
H636 H 0.94766 0.50724 0.95537 0.0
H637 H 0.93921 0.49337 0.0812 0.0
H638 H 0.96288 0.50577 0.16429 0.0
H639 H -0.0004 0.51721 0.19924 0.0
C640 C 0.73313 0.46364 0.80192 0.0
C641 C 0.74731 0.46708 0.85363 0.0
C642 C 0.71592 0.47038 0.79044 0.0
C643 C 0.71248 0.48068 0.8309 0.0
C644 C 0.72648 0.4839 0.88336 0.0
C645 C 0.74371 0.47715 0.89472 0.0
C646 C 0.69575 0.48895 0.81758 0.0
C647 C 0.67809 0.4852 0.7791 0.0
C648 C 0.66252 0.49393 0.7615 0.0
C649 C 0.64969 0.49089 0.70673 0.0
C650 C 0.63524 0.49896 0.6874 0.0
C651 C 0.63328 0.51022 0.72263 0.0
H652 H 0.66904 0.50762 0.84105 0.0
C653 C 0.64571 0.51317 0.778 0.0
C654 C 0.66011 0.50509 0.79751 0.0
H655 H 0.64439 0.52178 0.80611 0.0
H656 H 0.73577 0.45595 0.76935 0.0
H657 H 0.70606 0.46778 0.74849 0.0
H658 H 0.72438 0.49186 0.91498 0.0
H659 H 0.75472 0.48014 0.93428 0.0
H660 H 0.69865 0.49865 0.83955 0.0
H661 H 0.67517 0.47548 0.7574 0.0
H662 H 0.65099 0.48229 0.6784 0.0
H663 H 0.62547 0.49633 0.64517 0.0
C664 C 0.08398 0.234 0.7747 0.0
C665 C 0.08647 0.22938 0.71329 0.0
C666 C 0.06711 0.2409 0.78915 0.0
C667 C 0.05236 0.24337 0.74238 0.0
C668 C 0.05474 0.23867 0.68119 0.0
C669 C 0.07168 0.23182 0.66665 0.0
C670 C 0.03372 0.25025 0.75608 0.0
C671 C 0.03369 0.25877 0.8045 0.0
C672 C 0.01478 0.26552 0.81657 0.0
C673 C 0.01882 0.27813 0.84469 0.0
C674 C 0.00139 0.28493 0.85364 0.0
C675 C 0.97967 0.27917 0.83494 0.0
H676 H 0.98887 0.24963 0.78165 0.0
C677 C 0.97542 0.26631 0.81005 0.0
C678 C 0.99278 0.25955 0.80087 0.0
H679 H 0.95864 0.26155 0.79702 0.0
H680 H 0.095 0.23224 0.81189 0.0
H681 H 0.06544 0.24401 0.83723 0.0
H682 H 0.04348 0.24034 0.64438 0.0
H683 H 0.07305 0.22837 0.61892 0.0
H684 H 0.01989 0.24862 0.72313 0.0
H685 H 0.04837 0.26151 0.83402 0.0
H686 H 0.03557 0.28285 0.85817 0.0
H687 H 0.00495 0.2948 0.87357 0.0
C688 C 0.7291 0.22952 0.0543 0.0
C689 C 0.71173 0.23652 0.05909 0.0
C690 C 0.74936 0.23529 0.0273 0.0
C691 C 0.75255 0.24821 0.00498 0.0
C692 C 0.73525 0.25526 0.0114 0.0
C693 C 0.71508 0.24951 0.03864 0.0
C694 C 0.77325 0.25449 0.97267 0.0
C695 C 0.79318 0.25123 0.98263 0.0
C696 C 0.81386 0.2585 0.954 0.0
C697 C 0.83354 0.26078 0.98945 0.0
C698 C 0.8529 0.26851 0.96609 0.0
C699 C 0.85313 0.27385 0.90608 0.0
H700 H 0.79941 0.26151 0.86391 0.0
C701 C 0.83379 0.27095 0.86901 0.0
C702 C 0.81423 0.26341 0.89295 0.0
H703 H 0.83354 0.2749 0.82253 0.0
H704 H 0.72669 0.21943 0.06928 0.0
H705 H 0.76209 0.22942 0.02199 0.0
H706 H 0.73726 0.26522 0.99472 0.0
H707 H 0.70185 0.25507 0.04222 0.0
H708 H 0.77225 0.26269 0.94258 0.0
H709 H 0.79485 0.24398 0.01737 0.0
H710 H 0.83372 0.25698 0.03628 0.0
H711 H 0.86766 0.27045 0.99547 0.0
C712 C 0.23062 0.96249 0.83035 0.0
C713 C 0.25276 0.96907 0.8375 0.0
C714 C 0.21384 0.96957 0.81843 0.0
C715 C 0.21906 0.98336 0.81375 0.0
C716 C 0.24115 0.9899 0.82345 0.0
C717 C 0.2579 0.98281 0.83477 0.0
C718 C 0.20196 0.99126 0.79947 0.0
C719 C 0.18368 0.98664 0.76456 0.0
C720 C 0.16726 0.99484 0.74737 0.0
C721 C 0.15439 0.9916 0.69281 0.0
C722 C 0.1388 0.9991 0.6752 0.0
C723 C 0.13567 0.0099 0.71223 0.0
H724 H 0.17294 0.00819 0.8281 0.0
C725 C 0.14831 0.01307 0.76712 0.0
C726 C 0.16389 0.00561 0.78472 0.0
H727 H 0.14611 0.02135 0.79651 0.0
H728 H 0.2264 0.95188 0.83284 0.0
H729 H 0.19688 0.96424 0.8132 0.0
H730 H 0.24557 0.00051 0.82083 0.0
H731 H 0.27493 0.98803 0.84062 0.0
H732 H 0.20552 0.00153 0.81437 0.0
H733 H 0.1813 0.97677 0.74446 0.0
H734 H 0.15648 0.98328 0.66354 0.0
H735 H 0.12896 0.99635 0.63319 0.0
C736 C 0.21892 0.24488 0.57979 0.0
C737 C 0.21644 0.23404 0.61912 0.0
C738 C 0.23995 0.25086 0.5588 0.0
C739 C 0.25896 0.24607 0.57687 0.0
C740 C 0.25657 0.23568 0.61904 0.0
C741 C 0.23544 0.22965 0.63981 0.0
C742 C 0.2814 0.25187 0.55297 0.0
C743 C 0.28455 0.25715 0.49576 0.0
C744 C 0.30668 0.26336 0.47092 0.0
C745 C 0.30925 0.26484 0.40598 0.0
C746 C 0.32941 0.27132 0.38094 0.0
C747 C 0.3474 0.27659 0.42051 0.0
H748 H 0.32336 0.26793 0.56081 0.0
C749 C 0.34489 0.275 0.48549 0.0
C750 C 0.32477 0.26851 0.51046 0.0
H751 H 0.35836 0.27899 0.51745 0.0
H752 H 0.20448 0.2486 0.56439 0.0
H753 H 0.24123 0.2592 0.52849 0.0
H754 H 0.271 0.23196 0.63444 0.0
H755 H 0.23389 0.2213 0.67031 0.0
H756 H 0.29562 0.25112 0.58209 0.0
H757 H 0.27033 0.25663 0.46468 0.0
H758 H 0.29553 0.26105 0.37445 0.0
H759 H 0.33073 0.2724 0.3307 0.0
C760 C 0.88233 0.97786 0.47668 0.0
C761 C 0.87877 0.97562 0.41205 0.0
C762 C 0.90182 0.98595 0.49905 0.0
C763 C 0.91831 0.9919 0.45718 0.0
C764 C 0.91436 0.99005 0.39262 0.0
C765 C 0.89487 0.98197 0.37023 0.0
C766 C 0.93986 1e-05 0.47856 0.0
C767 C 0.9488 0.99905 0.53555 0.0
C768 C 0.9711 0.00647 0.55492 0.0
C769 C 0.97567 0.00884 0.61892 0.0
C770 C 0.99671 0.01535 0.63918 0.0
C771 C 0.01375 0.0195 0.59576 0.0
H772 H 0.9856 0.00856 0.46186 0.0
C773 C 0.00921 0.01706 0.53167 0.0
C774 C 0.98816 0.01059 0.51144 0.0
H775 H 0.02199 0.02003 0.49695 0.0
H776 H 0.87014 0.97327 0.51022 0.0
H777 H 0.90372 0.9875 0.54907 0.0
H778 H 0.92665 0.99462 0.35926 0.0
H779 H 0.89262 0.98054 0.32013 0.0
H780 H 0.94903 0.00665 0.44482 0.0
H781 H 0.93971 0.99253 0.56976 0.0
H782 H 0.9629 0.00565 0.65344 0.0
H783 H -0.00036 0.01702 0.68893 0.0
C784 C 0.65153 0.01279 0.22925 0.0
C785 C 0.63892 0.01036 0.17397 0.0
C786 C 0.66748 0.0053 0.24322 0.0
C787 C 0.67103 0.99512 0.20218 0.0
C788 C 0.65858 0.99284 0.14644 0.0
C789 C 0.64259 0.00034 0.13257 0.0
C790 C 0.68822 0.98712 0.21452 0.0
C791 C 0.69573 0.98526 0.27234 0.0
C792 C 0.71398 0.97803 0.28457 0.0
C793 C 0.72648 0.98095 0.33993 0.0
C794 C 0.74448 0.97488 0.35203 0.0
C795 C 0.75016 0.96566 0.30926 0.0
H796 H 0.70958 0.96554 0.20067 0.0
C797 C 0.73724 0.96235 0.25498 0.0
C798 C 0.71926 0.96844 0.24272 0.0
H799 H 0.74117 0.95512 0.22179 0.0
H800 H 0.64927 0.02064 0.26132 0.0
H801 H 0.67727 0.00775 0.28543 0.0
H802 H 0.66112 0.98516 0.11372 0.0
H803 H 0.63294 0.99823 0.08982 0.0
H804 H 0.69488 0.98273 0.1741 0.0
H805 H 0.68894 0.98962 0.31267 0.0
H806 H 0.72269 0.98821 0.3732 0.0
H807 H 0.75434 0.97768 0.39398 0.0
C808 C 0.73059 0.7276 0.55948 0.0
C809 C 0.71228 0.7337 0.55137 0.0
C810 C 0.75154 0.73344 0.53682 0.0
C811 C 0.75446 0.74553 0.506 0.0
C812 C 0.73611 0.75168 0.49903 0.0
C813 C 0.71525 0.74587 0.52195 0.0
C814 C 0.77607 0.75184 0.47852 0.0
C815 C 0.79594 0.74993 0.49929 0.0
C816 C 0.81722 0.75722 0.47391 0.0
C817 C 0.83546 0.76095 0.51443 0.0
C818 C 0.85517 0.76872 0.49322 0.0
C819 C 0.85718 0.77272 0.43062 0.0
H820 H 0.80594 0.75766 0.37773 0.0
C821 C 0.83933 0.76838 0.38917 0.0
C822 C 0.8195 0.76073 0.41063 0.0
H823 H 0.84041 0.7712 0.34057 0.0
H824 H 0.72854 0.71815 0.58171 0.0
H825 H 0.76515 0.72825 0.54186 0.0
H826 H 0.73788 0.76098 0.47555 0.0
H827 H 0.70132 0.75078 0.51575 0.0
H828 H 0.77558 0.75899 0.44229 0.0
H829 H 0.79678 0.74384 0.53963 0.0
H830 H 0.8342 0.75823 0.56318 0.0
H831 H 0.86871 0.77178 0.52622 0.0
C832 C 0.49355 0.7835 0.77244 0.0
C833 C 0.48124 0.78044 0.82732 0.0
C834 C 0.51076 0.77694 0.75678 0.0
C835 C 0.51583 0.76711 0.79569 0.0
C836 C 0.50398 0.76442 0.8517 0.0
C837 C 0.48676 0.77098 0.86724 0.0
C838 C 0.53332 0.75947 0.7797 0.0
C839 C 0.53971 0.75745 0.72053 0.0
C840 C 0.55628 0.74919 0.70401 0.0
C841 C 0.55626 0.74395 0.64292 0.0
C842 C 0.57143 0.73605 0.62552 0.0
C843 C 0.58707 0.73327 0.6689 0.0
H844 H 0.57339 0.7508 0.79397 0.0
C845 C 0.58733 0.73868 0.7298 0.0
C846 C 0.57222 0.7466 0.7471 0.0
H847 H 0.59935 0.73689 0.7642 0.0
H848 H 0.48972 0.7909 0.74141 0.0
H849 H 0.52002 0.77965 0.71439 0.0
H850 H 0.50766 0.75699 0.8828 0.0
H851 H 0.47735 0.76837 0.90958 0.0
H852 H 0.53989 0.7546 0.8179 0.0
H853 H 0.53156 0.76132 0.68197 0.0
H854 H 0.54432 0.74587 0.60857 0.0
H855 H 0.57084 0.73211 0.57811 0.0
C856 C 0.50965 0.52199 0.5352 0.0
C857 C 0.51463 0.52317 0.59948 0.0
C858 C 0.48841 0.51607 0.51429 0.0
C859 C 0.47167 0.51097 0.55724 0.0
C860 C 0.4765 0.51245 0.62156 0.0
C861 C 0.49775 0.51848 0.64255 0.0
C862 C 0.44907 0.5041 0.53692 0.0
C863 C 0.44466 0.49858 0.4795 0.0
C864 C 0.42245 0.49119 0.4592 0.0
C865 C 0.41792 0.48961 0.39482 0.0
C866 C 0.3979 0.48201 0.37315 0.0
C867 C 0.38199 0.47569 0.4155 0.0
H868 H 0.4094 0.48569 0.55165 0.0
C869 C 0.38635 0.47741 0.48006 0.0
C870 C 0.40638 0.48505 0.50174 0.0
H871 H 0.37451 0.47262 0.51399 0.0
H872 H 0.52214 0.52572 0.50075 0.0
H873 H 0.4853 0.5157 0.46445 0.0
H874 H 0.46389 0.50875 0.65575 0.0
H875 H 0.50101 0.5193 0.69243 0.0
H876 H 0.43586 0.50331 0.5713 0.0
H877 H 0.45784 0.49931 0.44514 0.0
H878 H 0.43004 0.49417 0.361 0.0
H879 H 0.39512 0.4809 0.32311 0.0
C880 C 0.49244 0.27917 0.3099 0.0
C881 C 0.46975 0.27342 0.30997 0.0
C882 C 0.50829 0.2717 0.29252 0.0
C883 C 0.50159 0.25834 0.2752 0.0
C884 C 0.47888 0.25258 0.27714 0.0
C885 C 0.46313 0.26002 0.29495 0.0
C886 C 0.51752 0.25036 0.25089 0.0
C887 C 0.53927 0.2527 0.26625 0.0
C888 C 0.55497 0.24476 0.24026 0.0
C889 C 0.57316 0.24299 0.27673 0.0
C890 C 0.58843 0.23572 0.25332 0.0
C891 C 0.58606 0.23027 0.19231 0.0
H892 H 0.53907 0.24084 0.14911 0.0
C893 C 0.568 0.2322 0.15541 0.0
C894 C 0.55257 0.23934 0.17916 0.0
H895 H 0.56578 0.22822 0.1081 0.0
H896 H 0.49782 0.28953 0.32111 0.0
H897 H 0.52557 0.27657 0.2903 0.0
H898 H 0.47328 0.24232 0.26404 0.0
H899 H 0.44567 0.25538 0.2954 0.0
H900 H 0.51085 0.24195 0.22076 0.0
H901 H 0.54564 0.26024 0.30118 0.0
H902 H 0.57549 0.24717 0.32368 0.0
H903 H 0.60226 0.23453 0.28285 0.0
C904 C 0.3943 0.97944 0.90243 0.0
C905 C 0.37767 0.97287 0.94214 0.0
C906 C 0.41391 0.98699 0.92722 0.0
C907 C 0.41724 0.98822 0.99247 0.0
C908 C 0.40053 0.98175 0.03201 0.0
C909 C 0.38094 0.9742 0.00725 0.0
C910 C 0.43832 0.99548 0.02112 0.0
C911 C 0.4528 0.00482 0.99159 0.0
C912 C 0.47461 0.0113 0.01876 0.0
C913 C 0.49187 0.01647 0.97785 0.0
C914 C 0.51288 0.02228 0.00096 0.0
C915 C 0.51707 0.02319 0.06575 0.0
H916 H 0.46556 0.00902 0.11694 0.0
C917 C 0.49963 0.01833 0.10691 0.0
C918 C 0.4786 0.01247 0.08372 0.0
H919 H 0.50222 0.01899 0.1571 0.0
H920 H 0.3924 0.97854 0.85205 0.0
H921 H 0.42657 0.99144 0.89483 0.0
H922 H 0.40269 0.98244 0.08238 0.0
H923 H 0.36851 0.96927 0.0393 0.0
H924 H 0.44205 0.99278 0.06819 0.0
H925 H 0.44916 0.00754 0.94452 0.0
H926 H 0.48922 0.01582 0.92766 0.0
H927 H 0.52585 0.026 0.96785 0.0
C928 C 0.06562 0.54395 0.53036 0.0
C929 C 0.07675 0.53849 0.48244 0.0
C930 C 0.07446 0.54537 0.59089 0.0
C931 C 0.09442 0.54114 0.60454 0.0
C932 C 0.10538 0.53555 0.55656 0.0
C933 C 0.09673 0.53435 0.49576 0.0
C934 C 0.10292 0.54143 0.66948 0.0
C935 C 0.10074 0.55103 0.71077 0.0
C936 C 0.10557 0.55043 0.77845 0.0
C937 C 0.11066 0.56218 0.81372 0.0
C938 C 0.11193 0.56193 0.87892 0.0
C939 C 0.10765 0.5499 0.91009 0.0
H940 H 0.09815 0.52912 0.78393 0.0
C941 C 0.10356 0.53813 0.87467 0.0
C942 C 0.10257 0.53837 0.80945 0.0
H943 H 0.10021 0.52871 0.89743 0.0
H944 H 0.05001 0.54702 0.52104 0.0
H945 H 0.06524 0.54934 0.6273 0.0
H946 H 0.12054 0.532 0.56626 0.0
H947 H 0.10524 0.52977 0.4597 0.0
H948 H 0.11105 0.5335 0.68347 0.0
H949 H 0.09463 0.55958 0.69473 0.0
H950 H 0.11292 0.57158 0.79092 0.0
H951 H 0.11506 0.57118 0.90492 0.0
C952 C 0.13331 0.71643 0.76583 0.0
C953 C 0.12536 0.70627 0.80727 0.0
C954 C 0.13963 0.71359 0.70522 0.0
C955 C 0.1381 0.70047 0.68458 0.0
C956 C 0.12978 0.69031 0.72572 0.0
C957 C 0.12355 0.69317 0.78664 0.0
C958 C 0.14325 0.69713 0.61906 0.0
C959 C 0.1576 0.70527 0.58297 0.0
C960 C 0.15953 0.70319 0.51447 0.0
C961 C 0.16521 0.71426 0.47683 0.0
C962 C 0.16424 0.71296 0.41172 0.0
C963 C 0.15783 0.70051 0.38292 0.0
H964 H 0.15105 0.68184 0.51317 0.0
C965 C 0.15385 0.68932 0.42046 0.0
C966 C 0.15467 0.69064 0.48568 0.0
H967 H 0.14914 0.67957 0.39966 0.0
H968 H 0.1347 0.72662 0.78032 0.0
H969 H 0.14507 0.72171 0.67433 0.0
H970 H 0.12796 0.68013 0.71057 0.0
H971 H 0.11687 0.68513 0.81691 0.0
H972 H 0.13408 0.68791 0.59961 0.0
H973 H 0.16682 0.71443 0.6029 0.0
H974 H 0.16933 0.72403 0.49782 0.0
H975 H 0.16769 0.72176 0.38407 0.0
C976 C 0.83249 0.44876 0.51115 0.0
C977 C 0.81678 0.44788 0.55928 0.0
C978 C 0.82598 0.44437 0.45078 0.0
C979 C 0.80351 0.43896 0.43716 0.0
C980 C 0.78771 0.4383 0.48508 0.0
C981 C 0.79429 0.44268 0.54577 0.0
C982 C 0.79609 0.43512 0.37224 0.0
C983 C 0.80979 0.43124 0.32984 0.0
C984 C 0.80559 0.43139 0.262 0.0
C985 C 0.82349 0.43672 0.2238 0.0
C986 C 0.82027 0.4381 0.16015 0.0
C987 C 0.79918 0.43377 0.13301 0.0
H988 H 0.77041 0.4226 0.26378 0.0
C989 C 0.78132 0.42791 0.17051 0.0
C990 C 0.78442 0.42691 0.23511 0.0
H991 H 0.76498 0.42442 0.15019 0.0
H992 H 0.84989 0.4529 0.52011 0.0
H993 H 0.83855 0.44566 0.41468 0.0
H994 H 0.77024 0.43451 0.47543 0.0
H995 H 0.78167 0.44236 0.58137 0.0
H996 H 0.77964 0.43649 0.35809 0.0
H997 H 0.82613 0.42975 0.3442 0.0
H998 H 0.83994 0.44021 0.24361 0.0
H999 H 0.83439 0.44245 0.13193 0.0
C1000 C 0.9547 0.31623 0.14967 0.0
C1001 C 0.93562 0.31505 0.11193 0.0
C1002 C 0.95277 0.31641 0.21503 0.0
C1003 C 0.93177 0.31575 0.24307 0.0
C1004 C 0.91299 0.31528 0.20504 0.0
C1005 C 0.91482 0.31473 0.14016 0.0
C1006 C 0.92855 0.31503 0.31157 0.0
C1007 C 0.93901 0.30761 0.3476 0.0
C1008 C 0.932 0.30444 0.41284 0.0
C1009 C 0.93305 0.29197 0.43541 0.0
C1010 C 0.9249 0.28825 0.49476 0.0
C1011 C 0.91603 0.29707 0.53321 0.0
H1012 H 0.92278 0.32315 0.43627 0.0
C1013 C 0.91548 0.30968 0.51137 0.0
C1014 C 0.92344 0.31336 0.45178 0.0
H1015 H 0.90846 0.31662 0.53972 0.0
H1016 H 0.97091 0.31652 0.12876 0.0
H1017 H 0.96758 0.317 0.24349 0.0
H1018 H 0.89668 0.31483 0.2256 0.0
H1019 H 0.89989 0.31397 0.11196 0.0
H1020 H 0.91488 0.31912 0.3309 0.0
H1021 H 0.95097 0.30236 0.3264 0.0
H1022 H 0.93961 0.28493 0.40637 0.0
H1023 H 0.92562 0.27849 0.51068 0.0
C1024 C 0.10438 0.03363 0.36957 0.0
C1025 C 0.10968 0.04581 0.4015 0.0
C1026 C 0.10397 0.03303 0.30426 0.0
C1027 C 0.1086 0.04462 0.26948 0.0
C1028 C 0.11558 0.05668 0.30131 0.0
C1029 C 0.11607 0.05729 0.36674 0.0
C1030 C 0.10524 0.04453 0.20058 0.0
C1031 C 0.08952 0.03553 0.17136 0.0
C1032 C 0.08385 0.03555 0.10376 0.0
C1033 C 0.07155 0.02396 0.07681 0.0
C1034 C 0.06453 0.02357 0.01465 0.0
C1035 C 0.06962 0.03479 0.97768 0.0
H1036 H 0.09774 0.05611 0.08627 0.0
C1037 C 0.08187 0.04645 0.00441 0.0
C1038 C 0.08896 0.04685 0.06688 0.0
H1039 H 0.08542 0.05539 0.97791 0.0
H1040 H 0.09983 0.02458 0.39499 0.0
H1041 H 0.09956 0.02348 0.28136 0.0
H1042 H 0.11961 0.06573 0.27563 0.0
H1043 H 0.12044 0.06682 0.38993 0.0
H1044 H 0.11489 0.05254 0.17458 0.0
H1045 H 0.07972 0.02774 0.19847 0.0
H1046 H 0.0672 0.01514 0.1041 0.0
H1047 H 0.05511 0.01442 0.99551 0.0
C1048 C 0.14972 0.21431 0.31377 0.0
C1049 C 0.13411 0.20561 0.34831 0.0
C1050 C 0.15469 0.21113 0.25242 0.0
C1051 C 0.14379 0.19927 0.22422 0.0
C1052 C 0.12836 0.19049 0.25914 0.0
C1053 C 0.12378 0.19355 0.32117 0.0
C1054 C 0.146 0.1968 0.15641 0.0
C1055 C 0.16487 0.20112 0.12458 0.0
C1056 C 0.16477 0.20156 0.05557 0.0
C1057 C 0.18223 0.19809 0.02055 0.0
C1058 C 0.18208 0.19876 0.95511 0.0
C1059 C 0.16486 0.20334 0.92435 0.0
H1060 H 0.13431 0.20926 0.05072 0.0
C1061 C 0.1478 0.20716 0.95988 0.0
C1062 C 0.14767 0.20619 0.02467 0.0
H1063 H 0.13425 0.2107 0.93758 0.0
H1064 H 0.15788 0.22367 0.33404 0.0
H1065 H 0.16621 0.21827 0.22624 0.0
H1066 H 0.11952 0.18139 0.23797 0.0
H1067 H 0.11156 0.18676 0.34706 0.0
H1068 H 0.13115 0.19192 0.13118 0.0
H1069 H 0.18036 0.20493 0.14931 0.0
H1070 H 0.19574 0.19468 0.04373 0.0
H1071 H 0.19544 0.19579 0.9287 0.0
C1072 C 0.81388 0.95791 0.99407 0.0
C1073 C 0.8218 0.94909 0.03284 0.0
C1074 C 0.80506 0.95382 0.93519 0.0
C1075 C 0.80455 0.94085 0.91326 0.0
C1076 C 0.81213 0.93199 0.95295 0.0
C1077 C 0.82068 0.93606 0.01218 0.0
C1078 C 0.7974 0.93629 0.84871 0.0
C1079 C 0.7959 0.94452 0.80167 0.0
C1080 C 0.79339 0.94043 0.73475 0.0
C1081 C 0.78788 0.94942 0.69214 0.0
C1082 C 0.78937 0.94721 0.62792 0.0
C1083 C 0.79647 0.93594 0.60492 0.0
H1084 H 0.80387 0.92159 0.74243 0.0
C1085 C 0.80048 0.92646 0.64718 0.0
C1086 C 0.79909 0.9287 0.71159 0.0
H1087 H 0.806 0.91768 0.63077 0.0
H1088 H 0.81423 0.96795 0.00966 0.0
H1089 H 0.79872 0.96092 0.90772 0.0
H1090 H 0.81194 0.92195 0.93754 0.0
H1091 H 0.82689 0.92911 0.04118 0.0
H1092 H 0.79485 0.9258 0.83907 0.0
H1093 H 0.79811 0.955 0.81103 0.0
H1094 H 0.78339 0.95851 0.70859 0.0
H1095 H 0.78591 0.95463 0.59642 0.0
C1096 C 0.89949 0.79972 0.01111 0.0
C1097 C 0.91512 0.80067 0.0597 0.0
C1098 C 0.90611 0.80402 0.95152 0.0
C1099 C 0.92859 0.80943 0.93916 0.0
C1100 C 0.94431 0.81014 0.98751 0.0
C1101 C 0.93764 0.80583 0.04737 0.0
C1102 C 0.93617 0.81324 0.87505 0.0
C1103 C 0.92252 0.81696 0.83266 0.0
C1104 C 0.92718 0.81696 0.76504 0.0
C1105 C 0.90968 0.81143 0.72483 0.0
C1106 C 0.91336 0.81029 0.66103 0.0
C1107 C 0.93448 0.81504 0.63582 0.0
H1108 H 0.96208 0.8263 0.77045 0.0
C1109 C 0.95193 0.82107 0.67547 0.0
C1110 C 0.94839 0.82184 0.74015 0.0
H1111 H 0.96828 0.82489 0.65669 0.0
H1112 H 0.88208 0.79559 0.01911 0.0
H1113 H 0.89358 0.80268 0.91499 0.0
H1114 H 0.96179 0.81393 0.9788 0.0
H1115 H 0.95022 0.8062 0.08322 0.0
H1116 H 0.95278 0.81206 0.86136 0.0
H1117 H 0.90599 0.81826 0.84643 0.0
H1118 H 0.89322 0.80763 0.74307 0.0
H1119 H 0.89953 0.80579 0.6312 0.0
C1120 C 0.56629 0.54551 0.02566 0.0
C1121 C 0.57993 0.54558 0.97285 0.0
C1122 C 0.57543 0.5463 0.08568 0.0
C1123 C 0.59845 0.54715 0.09411 0.0
C1124 C 0.61223 0.54767 0.0416 0.0
C1125 C 0.60303 0.54666 0.98143 0.0
C1126 C 0.60812 0.54733 0.15756 0.0
C1127 C 0.59779 0.53939 0.20192 0.0
C1128 C 0.60499 0.53986 0.26822 0.0
C1129 C 0.59654 0.52908 0.30558 0.0
C1130 C 0.59946 0.52991 0.37031 0.0
C1131 C 0.61071 0.54161 0.39912 0.0
H1132 H 0.62421 0.55984 0.26944 0.0
C1133 C 0.62056 0.55209 0.36144 0.0
C1134 C 0.61768 0.55125 0.2965 0.0
H1135 H 0.62934 0.56124 0.38225 0.0
H1136 H 0.54845 0.54468 0.0206 0.0
H1137 H 0.56447 0.54618 0.12553 0.0
H1138 H 0.63001 0.5483 0.04717 0.0
H1139 H 0.61397 0.54616 0.94221 0.0
H1140 H 0.62415 0.55367 0.1668 0.0
H1141 H 0.58291 0.53224 0.1892 0.0
H1142 H 0.58678 0.52018 0.28495 0.0
H1143 H 0.59182 0.5216 0.39795 0.0
C1144 C 0.65846 0.69289 0.90804 0.0
C1145 C 0.66138 0.70419 0.87134 0.0
C1146 C 0.65866 0.69399 0.97335 0.0
C1147 C 0.66188 0.70643 0.00308 0.0
C1148 C 0.6665 0.7177 0.96638 0.0
C1149 C 0.66609 0.71661 0.90117 0.0
C1150 C 0.65938 0.70814 0.07163 0.0
C1151 C 0.64546 0.69949 0.10657 0.0
C1152 C 0.63966 0.70235 0.17223 0.0
C1153 C 0.6317 0.69188 0.21209 0.0
C1154 C 0.625 0.69428 0.27314 0.0
C1155 C 0.62598 0.70723 0.29522 0.0
H1156 H 0.64539 0.72364 0.16446 0.0
C1157 C 0.63354 0.71767 0.25498 0.0
C1158 C 0.64029 0.71529 0.19427 0.0
H1159 H 0.63433 0.72776 0.2705 0.0
H1160 H 0.65503 0.68317 0.88645 0.0
H1161 H 0.65587 0.68508 0.00018 0.0
H1162 H 0.66934 0.72741 0.98815 0.0
H1163 H 0.66866 0.72551 0.87419 0.0
H1164 H 0.66778 0.7174 0.09252 0.0
H1165 H 0.63715 0.69018 0.08601 0.0
H1166 H 0.63057 0.68181 0.19585 0.0
H1167 H 0.61865 0.68601 0.3024 0.0
C1168 C 0.30961 0.44879 0.0106 0.0
C1169 C 0.33095 0.45536 0.02958 0.0
C1170 C 0.30447 0.44655 0.94706 0.0
C1171 C 0.3205 0.45103 0.90135 0.0
C1172 C 0.34164 0.45776 0.92028 0.0
C1173 C 0.34686 0.45985 0.98363 0.0
C1174 C 0.3155 0.44952 0.83355 0.0
C1175 C 0.30072 0.43949 0.80796 0.0
C1176 C 0.29781 0.43812 0.73921 0.0
C1177 C 0.29566 0.4257 0.71006 0.0
C1178 C 0.29613 0.42453 0.64473 0.0
C1179 C 0.29847 0.43577 0.60773 0.0
H1180 H 0.29938 0.45887 0.72337 0.0
C1181 C 0.2988 0.44805 0.63709 0.0
C1182 C 0.29848 0.44922 0.70212 0.0
H1183 H 0.30017 0.45689 0.60998 0.0
H1184 H 0.29657 0.44577 0.04428 0.0
H1185 H 0.28775 0.44172 0.93393 0.0
H1186 H 0.35422 0.46142 0.8859 0.0
H1187 H 0.36339 0.46504 0.99661 0.0
H1188 H 0.32552 0.45656 0.80299 0.0
H1189 H 0.29229 0.43158 0.83697 0.0
H1190 H 0.29481 0.41699 0.73784 0.0
H1191 H 0.29561 0.41491 0.62348 0.0
C1192 C 0.38969 0.30032 0.98837 0.0
C1193 C 0.40304 0.29656 0.03526 0.0
C1194 C 0.39804 0.30266 0.92795 0.0
C1195 C 0.4198 0.30104 0.91332 0.0
C1196 C 0.43296 0.29705 0.96016 0.0
C1197 C 0.42473 0.29494 0.02084 0.0
C1198 C 0.42844 0.30256 0.8486 0.0
C1199 C 0.42302 0.3115 0.80972 0.0
C1200 C 0.42903 0.31215 0.74248 0.0
C1201 C 0.43157 0.30088 0.70761 0.0
C1202 C 0.43369 0.30136 0.64256 0.0
C1203 C 0.43334 0.3131 0.6111 0.0
H1204 H 0.42781 0.3328 0.73707 0.0
C1205 C 0.43213 0.32452 0.64636 0.0
C1206 C 0.42979 0.324 0.71132 0.0
H1207 H 0.43178 0.33371 0.62362 0.0
H1208 H 0.3728 0.30143 -0.00151 0.0
H1209 H 0.38722 0.30533 0.89238 0.0
H1210 H 0.44961 0.29552 0.94973 0.0
H1211 H 0.43508 0.29168 0.05603 0.0
H1212 H 0.43975 0.29628 0.83313 0.0
H1213 H 0.41353 0.3186 0.82767 0.0
H1214 H 0.43064 0.2915 0.72977 0.0
H1215 H 0.43459 0.2924 0.6167 0.0
C1216 C 0.5898 0.04726 0.47337 0.0
C1217 C 0.57836 0.03519 0.44865 0.0
C1218 C 0.59875 0.04807 0.53387 0.0
C1219 C 0.59621 0.03681 0.57099 0.0
C1220 C 0.58505 0.02474 0.54567 0.0
C1221 C 0.57607 0.02395 0.48542 0.0
C1222 C 0.60426 0.03717 0.63668 0.0
C1223 C 0.6071 0.048 0.67396 0.0
C1224 C 0.6109 0.04782 0.74266 0.0
C1225 C 0.61867 0.05977 0.77478 0.0
C1226 C 0.61945 0.06032 0.84018 0.0
C1227 C 0.61227 0.04891 0.8748 0.0
H1228 H 0.59814 0.0269 0.75527 0.0
C1229 C 0.60555 0.03685 0.84272 0.0
C1230 C 0.60476 0.03629 0.77748 0.0
H1231 H 0.59991 0.02787 0.86801 0.0
H1232 H 0.59151 0.05613 0.44655 0.0
H1233 H 0.60765 0.05752 0.55097 0.0
H1234 H 0.58289 0.0159 0.57306 0.0
H1235 H 0.56743 0.01449 0.46744 0.0
H1236 H 0.60632 0.02787 0.65586 0.0
H1237 H 0.60525 0.05733 0.65469 0.0
H1238 H 0.62343 0.0688 0.74927 0.0
H1239 H 0.62473 0.06978 0.86348 0.0
C1240 C 0.63172 0.20118 0.77804 0.0
C1241 C 0.62883 0.21321 0.80477 0.0
C1242 C 0.64026 0.20064 0.71742 0.0
C1243 C 0.64591 0.21216 0.68221 0.0
C1244 C 0.64308 0.22415 0.70939 0.0
C1245 C 0.63451 0.22466 0.76963 0.0
C1246 C 0.65449 0.21227 0.617 0.0
C1247 C 0.65165 0.20165 0.57835 0.0
C1248 C 0.65713 0.20229 0.51038 0.0
C1249 C 0.65854 0.19061 0.47765 0.0
C1250 C 0.66062 0.19043 0.41248 0.0
C1251 C 0.66114 0.20195 0.37847 0.0
H1252 H 0.65728 0.22315 0.49899 0.0
C1253 C 0.66089 0.21378 0.41138 0.0
C1254 C 0.6588 0.21396 0.47645 0.0
H1255 H 0.6612 0.22283 0.38666 0.0
H1256 H 0.62717 0.19215 0.80353 0.0
H1257 H 0.64252 0.19122 0.69896 0.0
H1258 H 0.64729 0.23318 0.68363 0.0
H1259 H 0.63261 0.23411 0.78903 0.0
H1260 H 0.66245 0.22177 0.59949 0.0
H1261 H 0.64402 0.19209 0.5958 0.0
H1262 H 0.65727 0.18147 0.50237 0.0
H1263 H 0.66076 0.18114 0.38864 0.0
C1264 C 0.30761 0.94693 0.5317 0.0
C1265 C 0.32897 0.95347 0.55063 0.0
C1266 C 0.30237 0.94479 0.46818 0.0
C1267 C 0.31832 0.94932 0.42234 0.0
C1268 C 0.33949 0.95605 0.44123 0.0
C1269 C 0.3448 0.95805 0.50462 0.0
C1270 C 0.3132 0.94787 0.35451 0.0
C1271 C 0.29821 0.93792 0.32904 0.0
C1272 C 0.29495 0.93656 0.26034 0.0
C1273 C 0.29197 0.92408 0.23141 0.0
C1274 C 0.29178 0.92281 0.16607 0.0
C1275 C 0.29424 0.93402 0.12876 0.0
H1276 H 0.29738 0.95738 0.2442 0.0
C1277 C 0.29546 0.9464 0.15803 0.0
C1278 C 0.29585 0.94766 0.2231 0.0
H1279 H 0.29702 0.95522 0.13076 0.0
H1280 H 0.29463 0.94386 0.5655 0.0
H1281 H 0.28563 0.93999 0.4552 0.0
H1282 H 0.35201 0.95976 0.4068 0.0
H1283 H 0.36133 0.96325 0.51761 0.0
H1284 H 0.32325 0.95488 0.32386 0.0
H1285 H 0.28972 0.93005 0.35816 0.0
H1286 H 0.29091 0.91537 0.25929 0.0
H1287 H 0.29059 0.91313 0.14495 0.0
C1288 C 0.43606 0.8218 0.17899 0.0
C1289 C 0.43764 0.81137 0.13741 0.0
C1290 C 0.43673 0.8201 0.24362 0.0
C1291 C 0.43893 0.80788 0.26781 0.0
C1292 C 0.44229 0.79783 0.22618 0.0
C1293 C 0.44156 0.79952 0.16164 0.0
C1294 C 0.43647 0.80491 0.3354 0.0
C1295 C 0.42431 0.81098 0.37465 0.0
C1296 C 0.41855 0.80648 0.43907 0.0
C1297 C 0.41377 0.81556 0.48409 0.0
C1298 C 0.40705 0.8115 0.54421 0.0
C1299 C 0.40477 0.79824 0.56019 0.0
H1300 H 0.41869 0.78578 0.42093 0.0
C1301 C 0.40913 0.7891 0.51492 0.0
C1302 C 0.41602 0.79317 0.45499 0.0
H1303 H 0.40728 0.7788 0.52591 0.0
H1304 H 0.43339 0.83113 0.16178 0.0
H1305 H 0.43506 0.82828 0.27419 0.0
H1306 H 0.44437 0.78839 0.24353 0.0
H1307 H 0.44316 0.79134 0.13085 0.0
H1308 H 0.44331 0.79667 0.35189 0.0
H1309 H 0.41751 0.81928 0.35891 0.0
H1310 H 0.41512 0.82581 0.47261 0.0
H1311 H 0.40315 0.81869 0.5776 0.0
C1312 C 0.08693 0.58559 0.11707 0.0
C1313 C 0.08261 0.57815 0.17155 0.0
C1314 C 0.08949 0.59925 0.11988 0.0
C1315 C 0.08773 0.6058 0.17733 0.0
C1316 C 0.08369 0.5984 0.23188 0.0
C1317 C 0.08098 0.5847 0.22904 0.0
C1318 C 0.09132 0.62036 0.18233 0.0
C1319 C 0.08699 0.62793 0.13503 0.0
C1320 C 0.09228 0.64256 0.1368 0.0
C1321 C 0.09288 0.64924 0.08004 0.0
C1322 C 0.09912 0.66293 0.07871 0.0
C1323 C 0.10489 0.67024 0.1343 0.0
H1324 H 0.09609 0.64538 0.23785 0.0
C1325 C 0.10346 0.66363 0.19136 0.0
C1326 C 0.0971 0.64997 0.19274 0.0
H1327 H 0.10744 0.66899 0.23519 0.0
H1328 H 0.08842 0.58088 0.07202 0.0
H1329 H 0.09339 0.60461 0.07713 0.0
H1330 H 0.08254 0.60323 0.27684 0.0
H1331 H 0.0778 0.57928 0.27194 0.0
H1332 H 0.09793 0.62478 0.22644 0.0
H1333 H 0.07996 0.62324 0.09173 0.0
H1334 H 0.08904 0.64383 0.03626 0.0
H1335 H 0.09999 0.66772 0.03396 0.0
C1336 C 0.8479 0.41008 0.81382 0.0
C1337 C 0.83623 0.41347 0.86635 0.0
C1338 C 0.85593 0.39834 0.81191 0.0
C1339 C 0.85224 0.38965 0.86239 0.0
C1340 C 0.84002 0.39291 0.91394 0.0
C1341 C 0.83211 0.40466 0.91598 0.0
C1342 C 0.86163 0.37746 0.86526 0.0
C1343 C 0.87082 0.37203 0.81657 0.0
C1344 C 0.88003 0.35986 0.82257 0.0
C1345 C 0.87965 0.35138 0.77046 0.0
C1346 C 0.88706 0.33951 0.77563 0.0
C1347 C 0.89523 0.33595 0.83303 0.0
H1348 H 0.89065 0.36314 0.91966 0.0
C1349 C 0.89663 0.34476 0.88435 0.0
C1350 C 0.8892 0.3566 0.87916 0.0
H1351 H 0.90311 0.34242 0.92902 0.0
H1352 H 0.85146 0.41669 0.77491 0.0
H1353 H 0.86554 0.39641 0.77162 0.0
H1354 H 0.83689 0.38644 0.95351 0.0
H1355 H 0.82314 0.40693 0.95714 0.0
H1356 H 0.86039 0.37256 0.90995 0.0
H1357 H 0.87058 0.37605 0.7702 0.0
H1358 H 0.87301 0.35377 0.72606 0.0
H1359 H 0.88591 0.33301 0.73498 0.0
C1360 C 0.08338 0.0845 0.71014 0.0
C1361 C 0.08383 0.07699 0.65485 0.0
C1362 C 0.08614 0.0982 0.70791 0.0
C1363 C 0.0893 0.10463 0.65022 0.0
C1364 C 0.08931 0.09709 0.59511 0.0
C1365 C 0.08679 0.08346 0.59734 0.0
C1366 C 0.0923 0.11911 0.64511 0.0
C1367 C 0.10194 0.12758 0.69019 0.0
C1368 C 0.10652 0.14214 0.68427 0.0
C1369 C 0.11222 0.14991 0.7385 0.0
C1370 C 0.11749 0.16359 0.73539 0.0
C1371 C 0.11722 0.16987 0.67775 0.0
H1372 H 0.10263 0.14294 0.58299 0.0
C1373 C 0.11145 0.16214 0.62336 0.0
C1374 C 0.10627 0.14843 0.62643 0.0
H1375 H 0.11128 0.16665 0.57813 0.0
H1376 H 0.08097 0.0798 0.75511 0.0
H1377 H 0.0854 0.10367 0.75124 0.0
H1378 H 0.09154 0.10177 0.55006 0.0
H1379 H 0.087 0.07799 0.55372 0.0
H1380 H 0.08721 0.12275 0.60132 0.0
H1381 H 0.10713 0.12372 0.73346 0.0
H1382 H 0.11271 0.14538 0.78362 0.0
H1383 H 0.12188 0.16923 0.77829 0.0
C1384 C 0.8368 0.90462 0.3875 0.0
C1385 C 0.83888 0.91305 0.33625 0.0
C1386 C 0.84436 0.89276 0.38357 0.0
C1387 C 0.85432 0.8891 0.32834 0.0
C1388 C 0.85551 0.89725 0.27631 0.0
C1389 C 0.84798 0.90913 0.28023 0.0
C1390 C 0.86339 0.87683 0.32325 0.0
C1391 C 0.87123 0.87132 0.37302 0.0
C1392 C 0.88048 0.85907 0.36999 0.0
C1393 C 0.89233 0.85593 0.42203 0.0
C1394 C 0.90025 0.84419 0.42325 0.0
C1395 C 0.89648 0.83525 0.37233 0.0
H1396 H 0.86758 0.852 0.27793 0.0
C1397 C 0.88505 0.83848 0.3196 0.0
C1398 C 0.87701 0.85021 0.31851 0.0
H1399 H 0.88172 0.83178 0.27972 0.0
H1400 H 0.82963 0.90725 0.43112 0.0
H1401 H 0.84229 0.88649 0.42389 0.0
H1402 H 0.86278 0.89457 0.2329 0.0
H1403 H 0.84967 0.91533 0.23963 0.0
H1404 H 0.86473 0.87276 0.27661 0.0
H1405 H 0.87156 0.87621 0.41849 0.0
H1406 H 0.89523 0.86252 0.46244 0.0
H1407 H 0.909 0.84203 0.46466 0.0
C1408 C 0.60627 0.66351 0.57838 0.0
C1409 C 0.6102 0.67182 0.63159 0.0
C1410 C 0.60054 0.64987 0.58478 0.0
C1411 C 0.59852 0.64432 0.6446 0.0
C1412 C 0.60162 0.65266 0.69757 0.0
C1413 C 0.6076 0.66624 0.69123 0.0
C1414 C 0.59315 0.62992 0.65372 0.0
C1415 C 0.60002 0.62128 0.61407 0.0
C1416 C 0.59604 0.60683 0.62344 0.0
C1417 C 0.5997 0.59871 0.57276 0.0
C1418 C 0.59644 0.58511 0.57892 0.0
C1419 C 0.58947 0.57925 0.63616 0.0
H1420 H 0.58702 0.60679 0.72219 0.0
C1421 C 0.58607 0.58734 0.68727 0.0
C1422 C 0.5894 0.60098 0.68116 0.0
H1423 H 0.58091 0.58316 0.73219 0.0
H1424 H 0.60801 0.66752 0.53181 0.0
H1425 H 0.59759 0.64374 0.54291 0.0
H1426 H 0.59992 0.64863 0.74412 0.0
H1427 H 0.61028 0.67237 0.73322 0.0
H1428 H 0.58424 0.62656 0.69601 0.0
H1429 H 0.60925 0.62494 0.57258 0.0
H1430 H 0.60499 0.6029 0.52793 0.0
H1431 H 0.59926 0.57919 0.53851 0.0
C1432 C 0.34241 0.40639 0.38522 0.0
C1433 C 0.34039 0.41412 0.33303 0.0
C1434 C 0.34998 0.39457 0.37813 0.0
C1435 C 0.35561 0.39022 0.31861 0.0
C1436 C 0.35268 0.39765 0.2662 0.0
C1437 C 0.34535 0.40954 0.27332 0.0
C1438 C 0.36408 0.37784 0.30974 0.0
C1439 C 0.37705 0.37357 0.35266 0.0
C1440 C 0.38514 0.36093 0.34784 0.0
C1441 C 0.39496 0.35665 0.40102 0.0
C1442 C 0.40137 0.34445 0.40094 0.0
C1443 C 0.39813 0.33619 0.34745 0.0
H1444 H 0.37609 0.35591 0.25042 0.0
C1445 C 0.3893 0.34071 0.29316 0.0
C1446 C 0.38292 0.35295 0.2932 0.0
H1447 H 0.3868 0.33466 0.2509 0.0
H1448 H 0.3386 0.40958 0.43182 0.0
H1449 H 0.35127 0.38885 0.41931 0.0
H1450 H 0.35657 0.39439 0.21976 0.0
H1451 H 0.34379 0.41521 0.23207 0.0
H1452 H 0.35977 0.37244 0.26617 0.0
H1453 H 0.38164 0.37953 0.39476 0.0
H1454 H 0.39713 0.36262 0.4436 0.0
H1455 H 0.40819 0.34133 0.44356 0.0
C1456 C 0.62079 0.16408 0.17193 0.0
C1457 C 0.61611 0.17139 0.12056 0.0
C1458 C 0.61595 0.15037 0.16956 0.0
C1459 C 0.60606 0.14359 0.11587 0.0
C1460 C 0.60136 0.1509 0.06458 0.0
C1461 C 0.60627 0.16464 0.06686 0.0
C1462 C 0.60152 0.129 0.11019 0.0
C1463 C 0.60004 0.12095 0.15947 0.0
C1464 C 0.59662 0.1064 0.15289 0.0
C1465 C 0.58779 0.09862 0.20341 0.0
C1466 C 0.58459 0.08491 0.1991 0.0
C1467 C 0.5903 0.07868 0.14416 0.0
H1468 H 0.61045 0.10575 0.05934 0.0
C1469 C 0.59954 0.08648 0.09408 0.0
C1470 C 0.60278 0.10016 0.09845 0.0
H1471 H 0.60438 0.08205 0.05129 0.0
H1472 H 0.62852 0.16894 0.21392 0.0
H1473 H 0.62056 0.1452 0.20943 0.0
H1474 H 0.59394 0.14595 0.02237 0.0
H1475 H 0.60251 0.16994 0.02635 0.0
H1476 H 0.59879 0.1248 0.06327 0.0
H1477 H 0.60063 0.12503 0.2067 0.0
H1478 H 0.58319 0.10317 0.24623 0.0
H1479 H 0.57754 0.07921 0.2387 0.0
C1480 C 0.38164 0.83741 0.82571 0.0
C1481 C 0.39406 0.83417 0.87639 0.0
C1482 C 0.37339 0.84907 0.82679 0.0
C1483 C 0.37763 0.85786 0.87842 0.0
C1484 C 0.39049 0.85473 0.9283 0.0
C1485 C 0.39864 0.84305 0.92735 0.0
C1486 C 0.36816 0.87001 0.88381 0.0
C1487 C 0.35958 0.87559 0.83548 0.0
C1488 C 0.35046 0.88781 0.84262 0.0
C1489 C 0.35116 0.89612 0.79137 0.0
C1490 C 0.34373 0.908 0.79721 0.0
C1491 C 0.33519 0.91176 0.85439 0.0
H1492 H 0.33938 0.88488 0.93886 0.0
C1493 C 0.33352 0.90313 0.90486 0.0
C1494 C 0.34103 0.89128 0.89904 0.0
H1495 H 0.32681 0.90564 0.94937 0.0
H1496 H 0.37767 0.83075 0.78584 0.0
H1497 H 0.36318 0.85086 0.78787 0.0
H1498 H 0.394 0.86128 0.96875 0.0
H1499 H 0.40814 0.84088 0.96723 0.0
H1500 H 0.36899 0.87479 0.92967 0.0
H1501 H 0.36041 0.87165 0.78836 0.0
H1502 H 0.35802 0.89359 0.7471 0.0
H1503 H 0.34508 0.91435 0.75717 0.0
loop_
_geom_bond_atom_site_label_1
_geom_bond_atom_site_label_2
_geom_bond_distance
_geom_bond_site_symmetry_2
_ccdc_geom_bond_type
Co0 O3 1.970 . S
Co0 N17 1.989 . S
Co0 O25 1.967 . S
Co0 O32 1.920 . S
Co1 O4 1.966 . S
Co1 N10 2.022 . S
Co1 N18 1.993 . S
Co1 O26 1.941 . S
C2 O3 1.258 . S
C2 O4 1.263 . S
O3 Co0 1.970 . S
O3 C2 1.258 . S
O4 Co1 1.966 . S
O4 C2 1.263 . S
C5 O6 1.235 1_556 S
C5 O32 1.289 1_556 S
O6 C5 1.235 1_554 S
C7 C9 1.400 . S
C7 N10 1.351 . S
C7 C12 1.501 . S
C8 C9 1.387 . S
C8 N11 1.341 . S
C9 C7 1.400 . S
C9 C8 1.387 . S
N10 Co1 2.022 . S
N10 C7 1.351 . S
N10 N11 1.365 . S
N11 C8 1.341 . S
N11 N10 1.365 . S
N11 H31 0.862 . S
C12 C7 1.501 . S
C12 H13 0.961 . S
C12 H14 0.961 . S
C12 H15 0.960 . S
H13 C12 0.961 . S
H14 C12 0.961 . S
H15 C12 0.960 . S
C16 N17 1.342 . S
C16 C20 1.401 . S
C16 C21 1.499 . S
N17 Co0 1.989 . S
N17 C16 1.342 . S
N17 N18 1.388 . S
N18 Co1 1.993 . S
N18 N17 1.388 . S
N18 C19 1.346 . S
C19 N18 1.346 . S
C19 C20 1.396 . S
C19 C29 1.510 . S
C20 C16 1.401 . S
C20 C19 1.396 . S
C21 C16 1.499 . S
C21 H22 0.959 . S
C21 H23 0.960 . S
C21 H24 0.961 . S
H22 C21 0.959 . S
H23 C21 0.960 . S
H24 C21 0.961 . S
O25 Co0 1.967 . S
O25 C33 1.258 . S
O26 Co1 1.941 . S
O26 C33 1.266 . S
H27 C29 0.959 . S
H28 C29 0.961 . S
C29 C19 1.510 . S
C29 H27 0.959 . S
C29 H28 0.961 . S
C29 H30 0.960 . S
H30 C29 0.960 . S
H31 N11 0.862 . S
O32 Co0 1.920 . S
O32 C5 1.289 1_554 S
C33 O25 1.258 . S
C33 O26 1.266 . S
Co34 O37 1.970 . S
Co34 N51 1.989 . S
Co34 O59 1.967 . S
Co34 O66 1.920 . S
Co35 O38 1.966 . S
Co35 N44 2.022 1_554 S
Co35 N52 1.993 . S
Co35 O60 1.941 . S
C36 O37 1.258 . S
C36 O38 1.263 . S
O37 Co34 1.970 . S
O37 C36 1.258 . S
O38 Co35 1.966 . S
O38 C36 1.263 . S
C39 O40 1.235 . S
C39 O66 1.289 . S
O40 C39 1.235 . S
C41 C43 1.400 . S
C41 N44 1.351 . S
C41 C46 1.501 . S
C42 C43 1.387 . S
C42 N45 1.341 . S
C43 C41 1.400 . S
C43 C42 1.387 . S
N44 Co35 2.022 1_556 S
N44 C41 1.351 . S
N44 N45 1.365 . S
N45 C42 1.341 . S
N45 N44 1.365 . S
N45 H65 0.862 . S
C46 C41 1.501 . S
C46 H47 0.961 . S
C46 H48 0.961 . S
C46 H49 0.960 . S
H47 C46 0.961 . S
H48 C46 0.961 . S
H49 C46 0.960 . S
C50 N51 1.342 . S
C50 C54 1.401 . S
C50 C55 1.499 . S
N51 Co34 1.989 . S
N51 C50 1.342 . S
N51 N52 1.388 . S
N52 Co35 1.993 . S
N52 N51 1.388 . S
N52 C53 1.346 . S
C53 N52 1.346 . S
C53 C54 1.396 . S
C53 C63 1.510 1_554 S
C54 C50 1.401 . S
C54 C53 1.396 . S
C55 C50 1.499 . S
C55 H56 0.959 . S
C55 H57 0.960 . S
C55 H58 0.961 . S
H56 C55 0.959 . S
H57 C55 0.960 . S
H58 C55 0.961 . S
O59 Co34 1.967 . S
O59 C67 1.258 . S
O60 Co35 1.941 . S
O60 C67 1.266 . S
H61 C63 0.959 . S
H62 C63 0.961 . S
C63 C53 1.510 1_556 S
C63 H61 0.959 . S
C63 H62 0.961 . S
C63 H64 0.960 . S
H64 C63 0.960 . S
H65 N45 0.862 . S
O66 Co34 1.920 . S
O66 C39 1.289 . S
C67 O59 1.258 . S
C67 O60 1.266 . S
Co68 O71 1.970 . S
Co68 N85 1.989 . S
Co68 O93 1.967 . S
Co68 O100 1.920 1_556 S
Co69 O72 1.966 . S
Co69 N78 2.022 . S
Co69 N86 1.993 . S
Co69 O94 1.941 . S
C70 O71 1.258 . S
C70 O72 1.263 . S
O71 Co68 1.970 . S
O71 C70 1.258 . S
O72 Co69 1.966 . S
O72 C70 1.263 . S
C73 O74 1.235 . S
C73 O100 1.289 . S
O74 C73 1.235 . S
C75 C77 1.400 . S
C75 N78 1.351 . S
C75 C80 1.501 . S
C76 C77 1.387 . S
C76 N79 1.341 . S
C77 C75 1.400 . S
C77 C76 1.387 . S
N78 Co69 2.022 . S
N78 C75 1.351 . S
N78 N79 1.365 . S
N79 C76 1.341 . S
N79 N78 1.365 . S
N79 H99 0.862 . S
C80 C75 1.501 . S
C80 H81 0.961 . S
C80 H82 0.961 . S
C80 H83 0.960 . S
H81 C80 0.961 . S
H82 C80 0.961 . S
H83 C80 0.960 . S
C84 N85 1.342 . S
C84 C88 1.401 . S
C84 C89 1.499 . S
N85 Co68 1.989 . S
N85 C84 1.342 . S
N85 N86 1.388 . S
N86 Co69 1.993 . S
N86 N85 1.388 . S
N86 C87 1.346 . S
C87 N86 1.346 . S
C87 C88 1.396 . S
C87 C97 1.510 . S
C88 C84 1.401 . S
C88 C87 1.396 . S
C89 C84 1.499 . S
C89 H90 0.959 1_556 S
C89 H91 0.960 . S
C89 H92 0.961 . S
H90 C89 0.959 1_554 S
H91 C89 0.960 . S
H92 C89 0.961 . S
O93 Co68 1.967 . S
O93 C101 1.258 . S
O94 Co69 1.941 . S
O94 C101 1.266 . S
H95 C97 0.959 . S
H96 C97 0.961 . S
C97 C87 1.510 . S
C97 H95 0.959 . S
C97 H96 0.961 . S
C97 H98 0.960 . S
H98 C97 0.960 . S
H99 N79 0.862 . S
O100 Co68 1.920 1_554 S
O100 C73 1.289 . S
C101 O93 1.258 . S
C101 O94 1.266 . S
Co102 O105 1.970 . S
Co102 N119 1.989 . S
Co102 O127 1.967 . S
Co102 O134 1.920 1_556 S
Co103 O106 1.966 . S
Co103 N112 2.022 . S
Co103 N120 1.993 . S
Co103 O128 1.941 . S
C104 O105 1.258 . S
C104 O106 1.263 . S
O105 Co102 1.970 . S
O105 C104 1.258 . S
O106 Co103 1.966 . S
O106 C104 1.263 . S
C107 O108 1.235 . S
C107 O134 1.289 . S
O108 C107 1.235 . S
C109 C111 1.400 . S
C109 N112 1.351 . S
C109 C114 1.501 . S
C110 C111 1.387 . S
C110 N113 1.341 . S
C111 C109 1.400 . S
C111 C110 1.387 . S
N112 Co103 2.022 . S
N112 C109 1.351 . S
N112 N113 1.365 . S
N113 C110 1.341 . S
N113 N112 1.365 . S
N113 H133 0.862 . S
C114 C109 1.501 . S
C114 H115 0.961 . S
C114 H116 0.961 . S
C114 H117 0.960 . S
H115 C114 0.961 . S
H116 C114 0.961 . S
H117 C114 0.960 . S
C118 N119 1.342 . S
C118 C122 1.401 . S
C118 C123 1.499 . S
N119 Co102 1.989 . S
N119 C118 1.342 . S
N119 N120 1.388 . S
N120 Co103 1.993 . S
N120 N119 1.388 . S
N120 C121 1.346 . S
C121 N120 1.346 . S
C121 C122 1.396 . S
C121 C131 1.510 . S
C122 C118 1.401 . S
C122 C121 1.396 . S
C123 C118 1.499 . S
C123 H124 0.959 . S
C123 H125 0.960 . S
C123 H126 0.961 . S
H124 C123 0.959 . S
H125 C123 0.960 . S
H126 C123 0.961 . S
O127 Co102 1.967 . S
O127 C135 1.258 . S
O128 Co103 1.941 . S
O128 C135 1.266 . S
H129 C131 0.959 . S
H130 C131 0.961 . S
C131 C121 1.510 . S
C131 H129 0.959 . S
C131 H130 0.961 . S
C131 H132 0.960 . S
H132 C131 0.960 . S
H133 N113 0.862 . S
O134 Co102 1.920 1_554 S
O134 C107 1.289 . S
C135 O127 1.258 . S
C135 O128 1.266 . S
Co136 O139 1.970 . S
Co136 N153 1.989 . S
Co136 O161 1.967 . S
Co136 O168 1.920 . S
Co137 O140 1.966 . S
Co137 N146 2.022 . S
Co137 N154 1.993 . S
Co137 O162 1.941 . S
C138 O139 1.258 . S
C138 O140 1.263 . S
O139 Co136 1.970 . S
O139 C138 1.258 . S
O140 Co137 1.966 . S
O140 C138 1.263 . S
C141 O142 1.235 . S
C141 O168 1.289 . S
O142 C141 1.235 . S
C143 C145 1.400 . S
C143 N146 1.351 . S
C143 C148 1.501 . S
C144 C145 1.387 . S
C144 N147 1.341 . S
C145 C143 1.400 . S
C145 C144 1.387 . S
N146 Co137 2.022 . S
N146 C143 1.351 . S
N146 N147 1.365 . S
N147 C144 1.341 . S
N147 N146 1.365 . S
N147 H167 0.862 . S
C148 C143 1.501 . S
C148 H149 0.961 . S
C148 H150 0.961 . S
C148 H151 0.960 . S
H149 C148 0.961 . S
H150 C148 0.961 . S
H151 C148 0.960 . S
C152 N153 1.342 . S
C152 C156 1.401 . S
C152 C157 1.499 . S
N153 Co136 1.989 . S
N153 C152 1.342 . S
N153 N154 1.388 . S
N154 Co137 1.993 . S
N154 N153 1.388 . S
N154 C155 1.346 . S
C155 N154 1.346 . S
C155 C156 1.396 . S
C155 C165 1.510 . S
C156 C152 1.401 . S
C156 C155 1.396 . S
C157 C152 1.499 . S
C157 H158 0.959 . S
C157 H159 0.960 . S
C157 H160 0.961 . S
H158 C157 0.959 . S
H159 C157 0.960 . S
H160 C157 0.961 . S
O161 Co136 1.967 . S
O161 C169 1.258 . S
O162 Co137 1.941 . S
O162 C169 1.266 . S
H163 C165 0.959 . S
H164 C165 0.961 . S
C165 C155 1.510 . S
C165 H163 0.959 . S
C165 H164 0.961 . S
C165 H166 0.960 . S
H166 C165 0.960 . S
H167 N147 0.862 . S
O168 Co136 1.920 . S
O168 C141 1.289 . S
C169 O161 1.258 . S
C169 O162 1.266 . S
Co170 O173 1.970 . S
Co170 N187 1.989 . S
Co170 O195 1.967 . S
Co170 O202 1.920 . S
Co171 O174 1.966 . S
Co171 N180 2.022 . S
Co171 N188 1.993 . S
Co171 O196 1.941 . S
C172 O173 1.258 . S
C172 O174 1.263 . S
O173 Co170 1.970 . S
O173 C172 1.258 . S
O174 Co171 1.966 . S
O174 C172 1.263 . S
C175 O176 1.235 . S
C175 O202 1.289 . S
O176 C175 1.235 . S
C177 C179 1.400 . S
C177 N180 1.351 . S
C177 C182 1.501 . S
C178 C179 1.387 . S
C178 N181 1.341 . S
C179 C177 1.400 . S
C179 C178 1.387 . S
N180 Co171 2.022 . S
N180 C177 1.351 . S
N180 N181 1.365 . S
N181 C178 1.341 . S
N181 N180 1.365 . S
N181 H201 0.862 . S
C182 C177 1.501 . S
C182 H183 0.961 . S
C182 H184 0.961 . S
C182 H185 0.960 . S
H183 C182 0.961 . S
H184 C182 0.961 . S
H185 C182 0.960 . S
C186 N187 1.342 . S
C186 C190 1.401 . S
C186 C191 1.499 . S
N187 Co170 1.989 . S
N187 C186 1.342 . S
N187 N188 1.388 . S
N188 Co171 1.993 . S
N188 N187 1.388 . S
N188 C189 1.346 . S
C189 N188 1.346 . S
C189 C190 1.396 . S
C189 C199 1.510 . S
C190 C186 1.401 . S
C190 C189 1.396 . S
C191 C186 1.499 . S
C191 H192 0.959 . S
C191 H193 0.960 . S
C191 H194 0.961 . S
H192 C191 0.959 . S
H193 C191 0.960 . S
H194 C191 0.961 . S
O195 Co170 1.967 . S
O195 C203 1.258 . S
O196 Co171 1.941 . S
O196 C203 1.266 . S
H197 C199 0.959 . S
H198 C199 0.961 . S
C199 C189 1.510 . S
C199 H197 0.959 . S
C199 H198 0.961 . S
C199 H200 0.960 . S
H200 C199 0.960 . S
H201 N181 0.862 . S
O202 Co170 1.920 . S
O202 C175 1.289 . S
C203 O195 1.258 . S
C203 O196 1.266 . S
Co204 O207 1.970 . S
Co204 N221 1.989 . S
Co204 O229 1.967 . S
Co204 O236 1.920 . S
Co205 O208 1.966 . S
Co205 N214 2.022 . S
Co205 N222 1.993 . S
Co205 O230 1.941 . S
C206 O207 1.258 . S
C206 O208 1.263 . S
O207 Co204 1.970 . S
O207 C206 1.258 . S
O208 Co205 1.966 . S
O208 C206 1.263 . S
C209 O210 1.235 . S
C209 O236 1.289 . S
O210 C209 1.235 . S
C211 C213 1.400 . S
C211 N214 1.351 . S
C211 C216 1.501 . S
C212 C213 1.387 . S
C212 N215 1.341 . S
C213 C211 1.400 . S
C213 C212 1.387 . S
N214 Co205 2.022 . S
N214 C211 1.351 . S
N214 N215 1.365 . S
N215 C212 1.341 . S
N215 N214 1.365 . S
N215 H235 0.862 . S
C216 C211 1.501 . S
C216 H217 0.961 . S
C216 H218 0.961 . S
C216 H219 0.960 . S
H217 C216 0.961 . S
H218 C216 0.961 . S
H219 C216 0.960 . S
C220 N221 1.342 . S
C220 C224 1.401 . S
C220 C225 1.499 . S
N221 Co204 1.989 . S
N221 C220 1.342 . S
N221 N222 1.388 . S
N222 Co205 1.993 . S
N222 N221 1.388 . S
N222 C223 1.346 . S
C223 N222 1.346 . S
C223 C224 1.396 . S
C223 C233 1.510 . S
C224 C220 1.401 . S
C224 C223 1.396 . S
C225 C220 1.499 . S
C225 H226 0.959 . S
C225 H227 0.960 . S
C225 H228 0.961 . S
H226 C225 0.959 . S
H227 C225 0.960 . S
H228 C225 0.961 . S
O229 Co204 1.967 . S
O229 C237 1.258 . S
O230 Co205 1.941 . S
O230 C237 1.266 . S
H231 C233 0.959 . S
H232 C233 0.961 . S
C233 C223 1.510 . S
C233 H231 0.959 . S
C233 H232 0.961 . S
C233 H234 0.960 . S
H234 C233 0.960 . S
H235 N215 0.862 . S
O236 Co204 1.920 . S
O236 C209 1.289 . S
C237 O229 1.258 . S
C237 O230 1.266 . S
Co238 O241 1.970 . S
Co238 N255 1.989 . S
Co238 O263 1.967 . S
Co238 O270 1.920 . S
Co239 O242 1.966 . S
Co239 N248 2.022 . S
Co239 N256 1.993 . S
Co239 O264 1.941 . S
C240 O241 1.258 . S
C240 O242 1.263 . S
O241 Co238 1.970 . S
O241 C240 1.258 . S
O242 Co239 1.966 . S
O242 C240 1.263 . S
C243 O244 1.235 . S
C243 O270 1.289 . S
O244 C243 1.235 . S
C245 C247 1.400 . S
C245 N248 1.351 . S
C245 C250 1.501 . S
C246 C247 1.387 . S
C246 N249 1.341 . S
C247 C245 1.400 . S
C247 C246 1.387 . S
N248 Co239 2.022 . S
N248 C245 1.351 . S
N248 N249 1.365 . S
N249 C246 1.341 . S
N249 N248 1.365 . S
N249 H269 0.862 . S
C250 C245 1.501 . S
C250 H251 0.961 . S
C250 H252 0.961 . S
C250 H253 0.960 . S
H251 C250 0.961 . S
H252 C250 0.961 . S
H253 C250 0.960 . S
C254 N255 1.342 . S
C254 C258 1.401 . S
C254 C259 1.499 . S
N255 Co238 1.989 . S
N255 C254 1.342 . S
N255 N256 1.388 . S
N256 Co239 1.993 . S
N256 N255 1.388 . S
N256 C257 1.346 . S
C257 N256 1.346 . S
C257 C258 1.396 . S
C257 C267 1.510 . S
C258 C254 1.401 . S
C258 C257 1.396 . S
C259 C254 1.499 . S
C259 H260 0.959 . S
C259 H261 0.960 . S
C259 H262 0.961 . S
H260 C259 0.959 . S
H261 C259 0.960 . S
H262 C259 0.961 . S
O263 Co238 1.967 . S
O263 C271 1.258 . S
O264 Co239 1.941 . S
O264 C271 1.266 . S
H265 C267 0.959 . S
H266 C267 0.961 . S
C267 C257 1.510 . S
C267 H265 0.959 . S
C267 H266 0.961 . S
C267 H268 0.960 . S
H268 C267 0.960 . S
H269 N249 0.862 . S
O270 Co238 1.920 . S
O270 C243 1.289 . S
C271 O263 1.258 . S
C271 O264 1.266 . S
Co272 O275 1.970 . S
Co272 N289 1.989 . S
Co272 O297 1.967 . S
Co272 O304 1.920 . S
Co273 O276 1.966 . S
Co273 N282 2.022 . S
Co273 N290 1.993 . S
Co273 O298 1.941 . S
C274 O275 1.258 . S
C274 O276 1.263 . S
O275 Co272 1.970 . S
O275 C274 1.258 . S
O276 Co273 1.966 . S
O276 C274 1.263 . S
C277 O278 1.235 . S
C277 O304 1.289 . S
O278 C277 1.235 . S
C279 C281 1.400 . S
C279 N282 1.351 . S
C279 C284 1.501 . S
C280 C281 1.387 . S
C280 N283 1.341 . S
C281 C279 1.400 . S
C281 C280 1.387 . S
N282 Co273 2.022 . S
N282 C279 1.351 . S
N282 N283 1.365 . S
N283 C280 1.341 . S
N283 N282 1.365 . S
N283 H303 0.862 . S
C284 C279 1.501 . S
C284 H285 0.961 . S
C284 H286 0.961 . S
C284 H287 0.960 . S
H285 C284 0.961 . S
H286 C284 0.961 . S
H287 C284 0.960 . S
C288 N289 1.342 . S
C288 C292 1.401 . S
C288 C293 1.499 . S
N289 Co272 1.989 . S
N289 C288 1.342 . S
N289 N290 1.388 . S
N290 Co273 1.993 . S
N290 N289 1.388 . S
N290 C291 1.346 . S
C291 N290 1.346 . S
C291 C292 1.396 . S
C291 C301 1.510 . S
C292 C288 1.401 . S
C292 C291 1.396 . S
C293 C288 1.499 . S
C293 H294 0.959 . S
C293 H295 0.960 . S
C293 H296 0.961 . S
H294 C293 0.959 . S
H295 C293 0.960 . S
H296 C293 0.961 . S
O297 Co272 1.967 . S
O297 C305 1.258 . S
O298 Co273 1.941 . S
O298 C305 1.266 . S
H299 C301 0.959 . S
H300 C301 0.961 . S
C301 C291 1.510 . S
C301 H299 0.959 . S
C301 H300 0.961 . S
C301 H302 0.960 . S
H302 C301 0.960 . S
H303 N283 0.862 . S
O304 Co272 1.920 . S
O304 C277 1.289 . S
C305 O297 1.258 . S
C305 O298 1.266 . S
Co306 O309 1.970 . S
Co306 N323 1.989 . S
Co306 O331 1.967 . S
Co306 O338 1.920 . S
Co307 O310 1.966 . S
Co307 N316 2.022 . S
Co307 N324 1.993 . S
Co307 O332 1.941 . S
C308 O309 1.258 . S
C308 O310 1.263 . S
O309 Co306 1.970 . S
O309 C308 1.258 . S
O310 Co307 1.966 . S
O310 C308 1.263 . S
C311 O312 1.235 . S
C311 O338 1.289 . S
O312 C311 1.235 . S
C313 C315 1.400 . S
C313 N316 1.351 . S
C313 C318 1.501 . S
C314 C315 1.387 . S
C314 N317 1.341 . S
C315 C313 1.400 . S
C315 C314 1.387 . S
N316 Co307 2.022 . S
N316 C313 1.351 . S
N316 N317 1.365 . S
N317 C314 1.341 . S
N317 N316 1.365 . S
N317 H337 0.862 . S
C318 C313 1.501 . S
C318 H319 0.961 . S
C318 H320 0.961 . S
C318 H321 0.960 . S
H319 C318 0.961 . S
H320 C318 0.961 . S
H321 C318 0.960 . S
C322 N323 1.342 . S
C322 C326 1.401 . S
C322 C327 1.499 . S
N323 Co306 1.989 . S
N323 C322 1.342 . S
N323 N324 1.388 . S
N324 Co307 1.993 . S
N324 N323 1.388 . S
N324 C325 1.346 . S
C325 N324 1.346 . S
C325 C326 1.396 . S
C325 C335 1.510 . S
C326 C322 1.401 . S
C326 C325 1.396 . S
C327 C322 1.499 . S
C327 H328 0.959 . S
C327 H329 0.960 . S
C327 H330 0.961 . S
H328 C327 0.959 . S
H329 C327 0.960 . S
H330 C327 0.961 . S
O331 Co306 1.967 . S
O331 C339 1.258 . S
O332 Co307 1.941 . S
O332 C339 1.266 . S
H333 C335 0.959 . S
H334 C335 0.961 . S
C335 C325 1.510 . S
C335 H333 0.959 . S
C335 H334 0.961 . S
C335 H336 0.960 . S
H336 C335 0.960 . S
H337 N317 0.862 . S
O338 Co306 1.920 . S
O338 C311 1.289 . S
C339 O331 1.258 . S
C339 O332 1.266 . S
Co340 O343 1.970 . S
Co340 N357 1.989 . S
Co340 O365 1.967 . S
Co340 O372 1.920 . S
Co341 O344 1.966 . S
Co341 N350 2.022 . S
Co341 N358 1.993 . S
Co341 O366 1.941 . S
C342 O343 1.258 . S
C342 O344 1.263 . S
O343 Co340 1.970 . S
O343 C342 1.258 . S
O344 Co341 1.966 . S
O344 C342 1.263 . S
C345 O346 1.235 . S
C345 O372 1.289 . S
O346 C345 1.235 . S
C347 C349 1.400 . S
C347 N350 1.351 . S
C347 C352 1.501 . S
C348 C349 1.387 . S
C348 N351 1.341 . S
C349 C347 1.400 . S
C349 C348 1.387 . S
N350 Co341 2.022 . S
N350 C347 1.351 . S
N350 N351 1.365 . S
N351 C348 1.341 . S
N351 N350 1.365 . S
N351 H371 0.862 . S
C352 C347 1.501 . S
C352 H353 0.961 . S
C352 H354 0.961 . S
C352 H355 0.960 . S
H353 C352 0.961 . S
H354 C352 0.961 . S
H355 C352 0.960 . S
C356 N357 1.342 . S
C356 C360 1.401 . S
C356 C361 1.499 . S
N357 Co340 1.989 . S
N357 C356 1.342 . S
N357 N358 1.388 . S
N358 Co341 1.993 . S
N358 N357 1.388 . S
N358 C359 1.346 . S
C359 N358 1.346 . S
C359 C360 1.396 . S
C359 C369 1.510 . S
C360 C356 1.401 . S
C360 C359 1.396 . S
C361 C356 1.499 . S
C361 H362 0.959 . S
C361 H363 0.960 . S
C361 H364 0.961 . S
H362 C361 0.959 . S
H363 C361 0.960 . S
H364 C361 0.961 . S
O365 Co340 1.967 . S
O365 C373 1.258 . S
O366 Co341 1.941 . S
O366 C373 1.266 . S
H367 C369 0.959 . S
H368 C369 0.961 . S
C369 C359 1.510 . S
C369 H367 0.959 . S
C369 H368 0.961 . S
C369 H370 0.960 . S
H370 C369 0.960 . S
H371 N351 0.862 . S
O372 Co340 1.920 . S
O372 C345 1.289 . S
C373 O365 1.258 . S
C373 O366 1.266 . S
Co374 O377 1.970 . S
Co374 N391 1.989 . S
Co374 O399 1.967 . S
Co374 O406 1.920 . S
Co375 O378 1.966 . S
Co375 N384 2.022 . S
Co375 N392 1.993 . S
Co375 O400 1.941 . S
C376 O377 1.258 . S
C376 O378 1.263 . S
O377 Co374 1.970 . S
O377 C376 1.258 . S
O378 Co375 1.966 . S
O378 C376 1.263 . S
C379 O380 1.235 . S
C379 O406 1.289 . S
O380 C379 1.235 . S
C381 C383 1.400 . S
C381 N384 1.351 . S
C381 C386 1.501 . S
C382 C383 1.387 . S
C382 N385 1.341 . S
C383 C381 1.400 . S
C383 C382 1.387 . S
N384 Co375 2.022 . S
N384 C381 1.351 . S
N384 N385 1.365 . S
N385 C382 1.341 . S
N385 N384 1.365 . S
N385 H405 0.862 . S
C386 C381 1.501 . S
C386 H387 0.961 . S
C386 H388 0.961 . S
C386 H389 0.960 . S
H387 C386 0.961 . S
H388 C386 0.961 . S
H389 C386 0.960 . S
C390 N391 1.342 . S
C390 C394 1.401 . S
C390 C395 1.499 . S
N391 Co374 1.989 . S
N391 C390 1.342 . S
N391 N392 1.388 . S
N392 Co375 1.993 . S
N392 N391 1.388 . S
N392 C393 1.346 . S
C393 N392 1.346 . S
C393 C394 1.396 . S
C393 C403 1.510 . S
C394 C390 1.401 . S
C394 C393 1.396 . S
C395 C390 1.499 . S
C395 H396 0.959 . S
C395 H397 0.960 . S
C395 H398 0.961 . S
H396 C395 0.959 . S
H397 C395 0.960 . S
H398 C395 0.961 . S
O399 Co374 1.967 . S
O399 C407 1.258 . S
O400 Co375 1.941 . S
O400 C407 1.266 . S
H401 C403 0.959 . S
H402 C403 0.961 . S
C403 C393 1.510 . S
C403 H401 0.959 . S
C403 H402 0.961 . S
C403 H404 0.960 . S
H404 C403 0.960 . S
H405 N385 0.862 . S
O406 Co374 1.920 . S
O406 C379 1.289 . S
C407 O399 1.258 . S
C407 O400 1.266 . S
Co408 O411 1.970 . S
Co408 N425 1.989 . S
Co408 O433 1.967 . S
Co408 O440 1.920 . S
Co409 O412 1.966 . S
Co409 N418 2.022 . S
Co409 N426 1.993 . S
Co409 O434 1.941 . S
C410 O411 1.258 . S
C410 O412 1.263 . S
O411 Co408 1.970 . S
O411 C410 1.258 . S
O412 Co409 1.966 . S
O412 C410 1.263 . S
C413 O414 1.235 1_556 S
C413 O440 1.289 1_556 S
O414 C413 1.235 1_554 S
C415 C417 1.400 . S
C415 N418 1.351 . S
C415 C420 1.501 . S
C416 C417 1.387 . S
C416 N419 1.341 . S
C417 C415 1.400 . S
C417 C416 1.387 . S
N418 Co409 2.022 . S
N418 C415 1.351 . S
N418 N419 1.365 . S
N419 C416 1.341 . S
N419 N418 1.365 . S
N419 H439 0.862 . S
C420 C415 1.501 . S
C420 H421 0.961 . S
C420 H422 0.961 . S
C420 H423 0.960 . S
H421 C420 0.961 . S
H422 C420 0.961 . S
H423 C420 0.960 . S
C424 N425 1.342 . S
C424 C428 1.401 . S
C424 C429 1.499 . S
N425 Co408 1.989 . S
N425 C424 1.342 . S
N425 N426 1.388 . S
N426 Co409 1.993 . S
N426 N425 1.388 . S
N426 C427 1.346 . S
C427 N426 1.346 . S
C427 C428 1.396 . S
C427 C437 1.510 . S
C428 C424 1.401 . S
C428 C427 1.396 . S
C429 C424 1.499 . S
C429 H430 0.959 . S
C429 H431 0.960 . S
C429 H432 0.961 . S
H430 C429 0.959 . S
H431 C429 0.960 . S
H432 C429 0.961 . S
O433 Co408 1.967 . S
O433 C441 1.258 . S
O434 Co409 1.941 . S
O434 C441 1.266 . S
H435 C437 0.959 . S
H436 C437 0.961 . S
C437 C427 1.510 . S
C437 H435 0.959 . S
C437 H436 0.961 . S
C437 H438 0.960 . S
H438 C437 0.960 . S
H439 N419 0.862 . S
O440 Co408 1.920 . S
O440 C413 1.289 1_554 S
C441 O433 1.258 . S
C441 O434 1.266 . S
Co442 O445 1.970 . S
Co442 N459 1.989 . S
Co442 O467 1.967 . S
Co442 O474 1.920 . S
Co443 O446 1.966 . S
Co443 N452 2.022 1_554 S
Co443 N460 1.993 . S
Co443 O468 1.941 . S
C444 O445 1.258 . S
C444 O446 1.263 . S
O445 Co442 1.970 . S
O445 C444 1.258 . S
O446 Co443 1.966 . S
O446 C444 1.263 . S
C447 O448 1.235 . S
C447 O474 1.289 . S
O448 C447 1.235 . S
C449 C451 1.400 . S
C449 N452 1.351 . S
C449 C454 1.501 . S
C450 C451 1.387 . S
C450 N453 1.341 . S
C451 C449 1.400 . S
C451 C450 1.387 . S
N452 Co443 2.022 1_556 S
N452 C449 1.351 . S
N452 N453 1.365 . S
N453 C450 1.341 . S
N453 N452 1.365 . S
N453 H473 0.862 . S
C454 C449 1.501 . S
C454 H455 0.961 . S
C454 H456 0.961 . S
C454 H457 0.960 . S
H455 C454 0.961 . S
H456 C454 0.961 . S
H457 C454 0.960 . S
C458 N459 1.342 . S
C458 C462 1.401 . S
C458 C463 1.499 . S
N459 Co442 1.989 . S
N459 C458 1.342 . S
N459 N460 1.388 . S
N460 Co443 1.993 . S
N460 N459 1.388 . S
N460 C461 1.346 . S
C461 N460 1.346 . S
C461 C462 1.396 . S
C461 C471 1.510 1_554 S
C462 C458 1.401 . S
C462 C461 1.396 . S
C463 C458 1.499 . S
C463 H464 0.959 . S
C463 H465 0.960 . S
C463 H466 0.961 . S
H464 C463 0.959 . S
H465 C463 0.960 . S
H466 C463 0.961 . S
O467 Co442 1.967 . S
O467 C475 1.258 . S
O468 Co443 1.941 . S
O468 C475 1.266 . S
H469 C471 0.959 . S
H470 C471 0.961 . S
C471 C461 1.510 1_556 S
C471 H469 0.959 . S
C471 H470 0.961 . S
C471 H472 0.960 . S
H472 C471 0.960 . S
H473 N453 0.862 . S
O474 Co442 1.920 . S
O474 C447 1.289 . S
C475 O467 1.258 . S
C475 O468 1.266 . S
Co476 O479 1.970 . S
Co476 N493 1.989 . S
Co476 O501 1.967 . S
Co476 O508 1.920 1_556 S
Co477 O480 1.966 . S
Co477 N486 2.022 . S
Co477 N494 1.993 . S
Co477 O502 1.941 . S
C478 O479 1.258 . S
C478 O480 1.263 . S
O479 Co476 1.970 . S
O479 C478 1.258 . S
O480 Co477 1.966 . S
O480 C478 1.263 . S
C481 O482 1.235 . S
C481 O508 1.289 . S
O482 C481 1.235 . S
C483 C485 1.400 . S
C483 N486 1.351 . S
C483 C488 1.501 . S
C484 C485 1.387 . S
C484 N487 1.341 . S
C485 C483 1.400 . S
C485 C484 1.387 . S
N486 Co477 2.022 . S
N486 C483 1.351 . S
N486 N487 1.365 . S
N487 C484 1.341 . S
N487 N486 1.365 . S
N487 H507 0.862 . S
C488 C483 1.501 . S
C488 H489 0.961 . S
C488 H490 0.961 . S
C488 H491 0.960 . S
H489 C488 0.961 . S
H490 C488 0.961 . S
H491 C488 0.960 . S
C492 N493 1.342 . S
C492 C496 1.401 . S
C492 C497 1.499 . S
N493 Co476 1.989 . S
N493 C492 1.342 . S
N493 N494 1.388 . S
N494 Co477 1.993 . S
N494 N493 1.388 . S
N494 C495 1.346 . S
C495 N494 1.346 . S
C495 C496 1.396 . S
C495 C505 1.510 . S
C496 C492 1.401 . S
C496 C495 1.396 . S
C497 C492 1.499 . S
C497 H498 0.959 1_556 S
C497 H499 0.960 . S
C497 H500 0.961 . S
H498 C497 0.959 1_554 S
H499 C497 0.960 . S
H500 C497 0.961 . S
O501 Co476 1.967 . S
O501 C509 1.258 . S
O502 Co477 1.941 . S
O502 C509 1.266 . S
H503 C505 0.959 . S
H504 C505 0.961 . S
C505 C495 1.510 . S
C505 H503 0.959 . S
C505 H504 0.961 . S
C505 H506 0.960 . S
H506 C505 0.960 . S
H507 N487 0.862 . S
O508 Co476 1.920 1_554 S
O508 C481 1.289 . S
C509 O501 1.258 . S
C509 O502 1.266 . S
Co510 O513 1.970 . S
Co510 N527 1.989 . S
Co510 O535 1.967 . S
Co510 O542 1.920 1_556 S
Co511 O514 1.966 . S
Co511 N520 2.022 . S
Co511 N528 1.993 . S
Co511 O536 1.941 . S
C512 O513 1.258 . S
C512 O514 1.263 . S
O513 Co510 1.970 . S
O513 C512 1.258 . S
O514 Co511 1.966 . S
O514 C512 1.263 . S
C515 O516 1.235 . S
C515 O542 1.289 . S
O516 C515 1.235 . S
C517 C519 1.400 . S
C517 N520 1.351 . S
C517 C522 1.501 . S
C518 C519 1.387 . S
C518 N521 1.341 . S
C519 C517 1.400 . S
C519 C518 1.387 . S
N520 Co511 2.022 . S
N520 C517 1.351 . S
N520 N521 1.365 . S
N521 C518 1.341 . S
N521 N520 1.365 . S
N521 H541 0.862 . S
C522 C517 1.501 . S
C522 H523 0.961 . S
C522 H524 0.961 . S
C522 H525 0.960 . S
H523 C522 0.961 . S
H524 C522 0.961 . S
H525 C522 0.960 . S
C526 N527 1.342 . S
C526 C530 1.401 . S
C526 C531 1.499 . S
N527 Co510 1.989 . S
N527 C526 1.342 . S
N527 N528 1.388 . S
N528 Co511 1.993 . S
N528 N527 1.388 . S
N528 C529 1.346 . S
C529 N528 1.346 . S
C529 C530 1.396 . S
C529 C539 1.510 . S
C530 C526 1.401 . S
C530 C529 1.396 . S
C531 C526 1.499 . S
C531 H532 0.959 . S
C531 H533 0.960 . S
C531 H534 0.961 . S
H532 C531 0.959 . S
H533 C531 0.960 . S
H534 C531 0.961 . S
O535 Co510 1.967 . S
O535 C543 1.258 . S
O536 Co511 1.941 . S
O536 C543 1.266 . S
H537 C539 0.959 . S
H538 C539 0.961 . S
C539 C529 1.510 . S
C539 H537 0.959 . S
C539 H538 0.961 . S
C539 H540 0.960 . S
H540 C539 0.960 . S
H541 N521 0.862 . S
O542 Co510 1.920 1_554 S
O542 C515 1.289 . S
C543 O535 1.258 . S
C543 O536 1.266 . S
C544 C545 1.386 . S
C544 C546 1.383 . S
C544 H560 0.951 . S
C545 C544 1.386 . S
C545 C549 1.383 . S
C546 C544 1.383 . S
C546 C547 1.402 . S
C546 H561 0.951 . S
C547 C546 1.402 . S
C547 C548 1.375 . S
C547 C550 1.481 . S
C548 C547 1.375 . S
C548 C549 1.367 . S
C548 H562 0.951 . S
C549 C545 1.383 . S
C549 C548 1.367 . S
C549 H563 0.950 . S
C550 C547 1.481 . S
C550 C551 1.297 . S
C550 H564 0.950 . S
C551 C550 1.297 . S
C551 C552 1.479 . S
C551 H565 0.950 . S
C552 C551 1.479 . S
C552 C553 1.375 . S
C552 C558 1.404 . S
C553 C552 1.375 . S
C553 C554 1.369 . S
C553 H566 0.950 . S
C554 C553 1.369 . S
C554 C555 1.392 . S
C554 H567 0.951 . S
C555 C554 1.392 . S
C555 C557 1.384 . S
H556 C558 0.949 . S
C557 C555 1.384 . S
C557 C558 1.385 . S
C557 H559 0.950 . S
C558 C552 1.404 . S
C558 H556 0.949 . S
C558 C557 1.385 . S
H559 C557 0.950 . S
H560 C544 0.951 . S
H561 C546 0.951 . S
H562 C548 0.951 . S
H563 C549 0.950 . S
H564 C550 0.950 . S
H565 C551 0.950 . S
H566 C553 0.950 . S
H567 C554 0.951 . S
C568 C569 1.386 . S
C568 C570 1.383 . S
C568 H584 0.951 . S
C569 C568 1.386 . S
C569 C573 1.383 . S
C570 C568 1.383 . S
C570 C571 1.402 . S
C570 H585 0.951 . S
C571 C570 1.402 . S
C571 C572 1.375 . S
C571 C574 1.481 . S
C572 C571 1.375 . S
C572 C573 1.367 . S
C572 H586 0.951 . S
C573 C569 1.383 . S
C573 C572 1.367 . S
C573 H587 0.950 . S
C574 C571 1.481 . S
C574 C575 1.297 . S
C574 H588 0.950 . S
C575 C574 1.297 . S
C575 C576 1.479 . S
C575 H589 0.950 . S
C576 C575 1.479 . S
C576 C577 1.375 1_455 S
C576 C582 1.404 . S
C577 C576 1.375 1_655 S
C577 C578 1.369 . S
C577 H590 0.950 . S
C578 C577 1.369 . S
C578 C579 1.392 . S
C578 H591 0.951 . S
C579 C578 1.392 . S
C579 C581 1.384 1_655 S
H580 C582 0.949 . S
C581 C579 1.384 1_455 S
C581 C582 1.385 . S
C581 H583 0.950 . S
C582 C576 1.404 . S
C582 H580 0.949 . S
C582 C581 1.385 . S
H583 C581 0.950 . S
H584 C568 0.951 . S
H585 C570 0.951 . S
H586 C572 0.951 . S
H587 C573 0.950 . S
H588 C574 0.950 . S
H589 C575 0.950 . S
H590 C577 0.950 . S
H591 C578 0.951 . S
C592 C593 1.386 . S
C592 C594 1.383 . S
C592 H608 0.951 . S
C593 C592 1.386 . S
C593 C597 1.383 . S
C594 C592 1.383 . S
C594 C595 1.402 . S
C594 H609 0.951 . S
C595 C594 1.402 . S
C595 C596 1.375 . S
C595 C598 1.481 1_556 S
C596 C595 1.375 . S
C596 C597 1.367 . S
C596 H610 0.951 1_556 S
C597 C593 1.383 . S
C597 C596 1.367 . S
C597 H611 0.950 . S
C598 C595 1.481 1_554 S
C598 C599 1.297 1_554 S
C598 H612 0.950 . S
C599 C598 1.297 1_556 S
C599 C600 1.479 1_556 S
C599 H613 0.950 . S
C600 C599 1.479 1_554 S
C600 C601 1.375 1_554 S
C600 C606 1.404 . S
C601 C600 1.375 1_556 S
C601 C602 1.369 1_556 S
C601 H614 0.950 . S
C602 C601 1.369 1_554 S
C602 C603 1.392 . S
C602 H615 0.951 1_554 S
C603 C602 1.392 . S
C603 C605 1.384 . S
H604 C606 0.949 . S
C605 C603 1.384 . S
C605 C606 1.385 . S
C605 H607 0.950 . S
C606 C600 1.404 . S
C606 H604 0.949 . S
C606 C605 1.385 . S
H607 C605 0.950 . S
H608 C592 0.951 . S
H609 C594 0.951 . S
H610 C596 0.951 1_554 S
H611 C597 0.950 . S
H612 C598 0.950 . S
H613 C599 0.950 . S
H614 C601 0.950 . S
H615 C602 0.951 1_556 S
C616 C617 1.386 . S
C616 C618 1.380 1_556 S
C616 H632 0.951 1_556 S
C617 C616 1.386 . S
C617 C621 1.383 . S
C618 C616 1.380 1_554 S
C618 C619 1.398 1_554 S
C618 H633 0.957 . S
C619 C618 1.398 1_556 S
C619 C620 1.375 . S
C619 C622 1.481 . S
C620 C619 1.375 . S
C620 C621 1.367 . S
C620 H634 0.951 . S
C621 C617 1.383 . S
C621 C620 1.367 . S
C621 H635 0.950 . S
C622 C619 1.481 . S
C622 C623 1.297 1_556 S
C622 H636 0.950 . S
C623 C622 1.297 1_554 S
C623 C624 1.479 . S
C623 H637 0.950 . S
C624 C623 1.479 . S
C624 C625 1.375 . S
C624 C630 1.404 . S
C625 C624 1.375 . S
C625 C626 1.369 1_655 S
C625 H638 0.950 . S
C626 C625 1.369 1_455 S
C626 C627 1.392 . S
C626 H639 0.951 . S
C627 C626 1.392 . S
C627 C629 1.384 . S
H628 C630 0.949 1_556 S
C629 C627 1.384 . S
C629 C630 1.385 1_455 S
C629 H631 0.950 . S
C630 C624 1.404 . S
C630 H628 0.949 1_554 S
C630 C629 1.385 1_655 S
H631 C629 0.950 . S
H632 C616 0.951 1_554 S
H633 C618 0.957 . S
H634 C620 0.951 . S
H635 C621 0.950 . S
H636 C622 0.950 . S
H637 C623 0.950 . S
H638 C625 0.950 . S
H639 C626 0.951 . S
C640 C641 1.386 . S
C640 C642 1.383 . S
C640 H656 0.951 . S
C641 C640 1.386 . S
C641 C645 1.383 . S
C642 C640 1.383 . S
C642 C643 1.402 . S
C642 H657 0.951 . S
C643 C642 1.402 . S
C643 C644 1.375 . S
C643 C646 1.481 . S
C644 C643 1.375 . S
C644 C645 1.367 . S
C644 H658 0.951 . S
C645 C641 1.383 . S
C645 C644 1.367 . S
C645 H659 0.950 . S
C646 C643 1.481 . S
C646 C647 1.297 . S
C646 H660 0.950 . S
C647 C646 1.297 . S
C647 C648 1.479 . S
C647 H661 0.950 . S
C648 C647 1.479 . S
C648 C649 1.375 . S
C648 C654 1.404 . S
C649 C648 1.375 . S
C649 C650 1.369 . S
C649 H662 0.950 . S
C650 C649 1.369 . S
C650 C651 1.392 . S
C650 H663 0.951 . S
C651 C650 1.392 . S
C651 C653 1.384 . S
H652 C654 0.949 . S
C653 C651 1.384 . S
C653 C654 1.385 . S
C653 H655 0.950 . S
C654 C648 1.404 . S
C654 H652 0.949 . S
C654 C653 1.385 . S
H655 C653 0.950 . S
H656 C640 0.951 . S
H657 C642 0.951 . S
H658 C644 0.951 . S
H659 C645 0.950 . S
H660 C646 0.950 . S
H661 C647 0.950 . S
H662 C649 0.950 . S
H663 C650 0.951 . S
C664 C665 1.386 . S
C664 C666 1.383 . S
C664 H680 0.951 . S
C665 C664 1.386 . S
C665 C669 1.383 . S
C666 C664 1.383 . S
C666 C667 1.402 . S
C666 H681 0.951 . S
C667 C666 1.402 . S
C667 C668 1.375 . S
C667 C670 1.481 . S
C668 C667 1.375 . S
C668 C669 1.367 . S
C668 H682 0.951 . S
C669 C665 1.383 . S
C669 C668 1.367 . S
C669 H683 0.950 . S
C670 C667 1.481 . S
C670 C671 1.297 . S
C670 H684 0.950 . S
C671 C670 1.297 . S
C671 C672 1.479 . S
C671 H685 0.950 . S
C672 C671 1.479 . S
C672 C673 1.375 . S
C672 C678 1.404 1_455 S
C673 C672 1.375 . S
C673 C674 1.369 . S
C673 H686 0.950 . S
C674 C673 1.369 . S
C674 C675 1.392 1_455 S
C674 H687 0.951 . S
C675 C674 1.392 1_655 S
C675 C677 1.384 . S
H676 C678 0.949 . S
C677 C675 1.384 . S
C677 C678 1.385 . S
C677 H679 0.950 . S
C678 C672 1.404 1_655 S
C678 H676 0.949 . S
C678 C677 1.385 . S
H679 C677 0.950 . S
H680 C664 0.951 . S
H681 C666 0.951 . S
H682 C668 0.951 . S
H683 C669 0.950 . S
H684 C670 0.950 . S
H685 C671 0.950 . S
H686 C673 0.950 . S
H687 C674 0.951 . S
C688 C689 1.386 . S
C688 C690 1.383 . S
C688 H704 0.951 . S
C689 C688 1.386 . S
C689 C693 1.383 1_554 S
C690 C688 1.383 . S
C690 C691 1.402 1_554 S
C690 H705 0.951 . S
C691 C690 1.402 1_556 S
C691 C692 1.375 . S
C691 C694 1.481 . S
C692 C691 1.375 . S
C692 C693 1.367 . S
C692 H706 0.951 . S
C693 C689 1.383 1_556 S
C693 C692 1.367 . S
C693 H707 0.950 . S
C694 C691 1.481 . S
C694 C695 1.297 . S
C694 H708 0.950 . S
C695 C694 1.297 . S
C695 C696 1.479 . S
C695 H709 0.950 1_556 S
C696 C695 1.479 . S
C696 C697 1.375 . S
C696 C702 1.404 . S
C697 C696 1.375 . S
C697 C698 1.369 . S
C697 H710 0.950 1_556 S
C698 C697 1.369 . S
C698 C699 1.392 . S
C698 H711 0.951 . S
C699 C698 1.392 . S
C699 C701 1.384 . S
H700 C702 0.949 . S
C701 C699 1.384 . S
C701 C702 1.385 . S
C701 H703 0.950 . S
C702 C696 1.404 . S
C702 H700 0.949 . S
C702 C701 1.385 . S
H703 C701 0.950 . S
H704 C688 0.951 . S
H705 C690 0.951 . S
H706 C692 0.951 . S
H707 C693 0.950 . S
H708 C694 0.950 . S
H709 C695 0.950 1_554 S
H710 C697 0.950 1_554 S
H711 C698 0.951 . S
C712 C713 1.386 . S
C712 C714 1.383 . S
C712 H728 0.951 . S
C713 C712 1.386 . S
C713 C717 1.383 . S
C714 C712 1.383 . S
C714 C715 1.402 . S
C714 H729 0.951 . S
C715 C714 1.402 . S
C715 C716 1.375 . S
C715 C718 1.481 . S
C716 C715 1.375 . S
C716 C717 1.367 . S
C716 H730 0.951 1_565 S
C717 C713 1.383 . S
C717 C716 1.367 . S
C717 H731 0.950 . S
C718 C715 1.481 . S
C718 C719 1.297 . S
C718 H732 0.950 1_565 S
C719 C718 1.297 . S
C719 C720 1.483 . S
C719 H733 0.950 . S
C720 C719 1.483 . S
C720 C721 1.377 . S
C720 C726 1.399 1_565 S
C721 C720 1.377 . S
C721 C722 1.369 . S
C721 H734 0.950 . S
C722 C721 1.369 . S
C722 C723 1.392 1_565 S
C722 H735 0.951 . S
C723 C722 1.392 1_545 S
C723 C725 1.384 . S
H724 C726 0.949 . S
C725 C723 1.384 . S
C725 C726 1.385 . S
C725 H727 0.950 . S
C726 C720 1.399 1_545 S
C726 H724 0.949 . S
C726 C725 1.385 . S
H727 C725 0.950 . S
H728 C712 0.951 . S
H729 C714 0.951 . S
H730 C716 0.951 1_545 S
H731 C717 0.950 . S
H732 C718 0.950 1_545 S
H733 C719 0.950 . S
H734 C721 0.950 . S
H735 C722 0.951 . S
C736 C737 1.386 . S
C736 C738 1.383 . S
C736 H752 0.951 . S
C737 C736 1.386 . S
C737 C741 1.383 . S
C738 C736 1.383 . S
C738 C739 1.402 . S
C738 H753 0.951 . S
C739 C738 1.402 . S
C739 C740 1.375 . S
C739 C742 1.481 . S
C740 C739 1.375 . S
C740 C741 1.367 . S
C740 H754 0.951 . S
C741 C737 1.383 . S
C741 C740 1.367 . S
C741 H755 0.950 . S
C742 C739 1.481 . S
C742 C743 1.297 . S
C742 H756 0.950 . S
C743 C742 1.297 . S
C743 C744 1.479 . S
C743 H757 0.950 . S
C744 C743 1.479 . S
C744 C745 1.375 . S
C744 C750 1.404 . S
C745 C744 1.375 . S
C745 C746 1.369 . S
C745 H758 0.950 . S
C746 C745 1.369 . S
C746 C747 1.392 . S
C746 H759 0.951 . S
C747 C746 1.392 . S
C747 C749 1.384 . S
H748 C750 0.949 . S
C749 C747 1.384 . S
C749 C750 1.385 . S
C749 H751 0.950 . S
C750 C744 1.404 . S
C750 H748 0.949 . S
C750 C749 1.385 . S
H751 C749 0.950 . S
H752 C736 0.951 . S
H753 C738 0.951 . S
H754 C740 0.951 . S
H755 C741 0.950 . S
H756 C742 0.950 . S
H757 C743 0.950 . S
H758 C745 0.950 . S
H759 C746 0.951 . S
C760 C761 1.386 . S
C760 C762 1.383 . S
C760 H776 0.951 . S
C761 C760 1.386 . S
C761 C765 1.383 . S
C762 C760 1.383 . S
C762 C763 1.402 . S
C762 H777 0.951 . S
C763 C762 1.402 . S
C763 C764 1.375 . S
C763 C766 1.517 . S
C764 C763 1.375 . S
C764 C765 1.367 . S
C764 H778 0.951 1_565 S
C765 C761 1.383 . S
C765 C764 1.367 . S
C765 H779 0.950 . S
C766 C763 1.517 . S
C766 C767 1.329 . S
C766 H780 0.880 1_565 S
C767 C766 1.329 . S
C767 C768 1.479 1_565 S
C767 H781 0.950 . S
C768 C767 1.479 1_545 S
C768 C769 1.381 . S
C768 C774 1.404 . S
C769 C768 1.381 . S
C769 C770 1.374 1_655 S
C769 H782 0.939 1_545 S
C770 C769 1.374 1_455 S
C770 C771 1.392 . S
C770 H783 0.951 . S
C771 C770 1.392 . S
C771 C773 1.384 . S
H772 C774 0.949 . S
C773 C771 1.384 . S
C773 C774 1.385 1_455 S
C773 H775 0.950 . S
C774 C768 1.404 . S
C774 H772 0.949 . S
C774 C773 1.385 1_655 S
H775 C773 0.950 . S
H776 C760 0.951 . S
H777 C762 0.951 . S
H778 C764 0.951 1_545 S
H779 C765 0.950 . S
H780 C766 0.880 1_545 S
H781 C767 0.950 . S
H782 C769 0.939 1_565 S
H783 C770 0.951 . S
C784 C785 1.386 . S
C784 C786 1.383 . S
C784 H800 0.951 . S
C785 C784 1.386 . S
C785 C789 1.383 . S
C786 C784 1.383 . S
C786 C787 1.402 1_545 S
C786 H801 0.951 . S
C787 C786 1.402 1_565 S
C787 C788 1.375 . S
C787 C790 1.481 . S
C788 C787 1.375 . S
C788 C789 1.367 1_565 S
C788 H802 0.951 . S
C789 C785 1.383 . S
C789 C788 1.367 1_545 S
C789 H803 0.950 . S
C790 C787 1.481 . S
C790 C791 1.297 . S
C790 H804 0.950 . S
C791 C790 1.297 . S
C791 C792 1.479 . S
C791 H805 0.950 . S
C792 C791 1.479 . S
C792 C793 1.375 . S
C792 C798 1.404 . S
C793 C792 1.375 . S
C793 C794 1.369 . S
C793 H806 0.950 . S
C794 C793 1.369 . S
C794 C795 1.392 . S
C794 H807 0.951 . S
C795 C794 1.392 . S
C795 C797 1.384 . S
H796 C798 0.949 . S
C797 C795 1.384 . S
C797 C798 1.385 . S
C797 H799 0.950 . S
C798 C792 1.404 . S
C798 H796 0.949 . S
C798 C797 1.385 . S
H799 C797 0.950 . S
H800 C784 0.951 . S
H801 C786 0.951 . S
H802 C788 0.951 . S
H803 C789 0.950 . S
H804 C790 0.950 . S
H805 C791 0.950 . S
H806 C793 0.950 . S
H807 C794 0.951 . S
C808 C809 1.386 . S
C808 C810 1.383 . S
C808 H824 0.951 . S
C809 C808 1.386 . S
C809 C813 1.383 . S
C810 C808 1.383 . S
C810 C811 1.402 . S
C810 H825 0.951 . S
C811 C810 1.402 . S
C811 C812 1.375 . S
C811 C814 1.481 . S
C812 C811 1.375 . S
C812 C813 1.367 . S
C812 H826 0.951 . S
C813 C809 1.383 . S
C813 C812 1.367 . S
C813 H827 0.950 . S
C814 C811 1.481 . S
C814 C815 1.297 . S
C814 H828 0.950 . S
C815 C814 1.297 . S
C815 C816 1.479 . S
C815 H829 0.950 . S
C816 C815 1.479 . S
C816 C817 1.375 . S
C816 C822 1.404 . S
C817 C816 1.375 . S
C817 C818 1.369 . S
C817 H830 0.950 . S
C818 C817 1.369 . S
C818 C819 1.392 . S
C818 H831 0.951 . S
C819 C818 1.392 . S
C819 C821 1.384 . S
H820 C822 0.949 . S
C821 C819 1.384 . S
C821 C822 1.385 . S
C821 H823 0.950 . S
C822 C816 1.404 . S
C822 H820 0.949 . S
C822 C821 1.385 . S
H823 C821 0.950 . S
H824 C808 0.951 . S
H825 C810 0.951 . S
H826 C812 0.951 . S
H827 C813 0.950 . S
H828 C814 0.950 . S
H829 C815 0.950 . S
H830 C817 0.950 . S
H831 C818 0.951 . S
C832 C833 1.386 . S
C832 C834 1.383 . S
C832 H848 0.951 . S
C833 C832 1.386 . S
C833 C837 1.383 . S
C834 C832 1.383 . S
C834 C835 1.402 . S
C834 H849 0.951 . S
C835 C834 1.402 . S
C835 C836 1.375 . S
C835 C838 1.481 . S
C836 C835 1.375 . S
C836 C837 1.367 . S
C836 H850 0.951 . S
C837 C833 1.383 . S
C837 C836 1.367 . S
C837 H851 0.950 . S
C838 C835 1.481 . S
C838 C839 1.297 . S
C838 H852 0.950 . S
C839 C838 1.297 . S
C839 C840 1.479 . S
C839 H853 0.950 . S
C840 C839 1.479 . S
C840 C841 1.375 . S
C840 C846 1.404 . S
C841 C840 1.375 . S
C841 C842 1.369 . S
C841 H854 0.950 . S
C842 C841 1.369 . S
C842 C843 1.392 . S
C842 H855 0.951 . S
C843 C842 1.392 . S
C843 C845 1.384 . S
H844 C846 0.949 . S
C845 C843 1.384 . S
C845 C846 1.385 . S
C845 H847 0.950 . S
C846 C840 1.404 . S
C846 H844 0.949 . S
C846 C845 1.385 . S
H847 C845 0.950 . S
H848 C832 0.951 . S
H849 C834 0.951 . S
H850 C836 0.951 . S
H851 C837 0.950 . S
H852 C838 0.950 . S
H853 C839 0.950 . S
H854 C841 0.950 . S
H855 C842 0.951 . S
C856 C857 1.386 . S
C856 C858 1.383 . S
C856 H872 0.951 . S
C857 C856 1.386 . S
C857 C861 1.383 . S
C858 C856 1.383 . S
C858 C859 1.402 . S
C858 H873 0.951 . S
C859 C858 1.402 . S
C859 C860 1.375 . S
C859 C862 1.481 . S
C860 C859 1.375 . S
C860 C861 1.367 . S
C860 H874 0.951 . S
C861 C857 1.383 . S
C861 C860 1.367 . S
C861 H875 0.950 . S
C862 C859 1.481 . S
C862 C863 1.297 . S
C862 H876 0.950 . S
C863 C862 1.297 . S
C863 C864 1.479 . S
C863 H877 0.950 . S
C864 C863 1.479 . S
C864 C865 1.375 . S
C864 C870 1.404 . S
C865 C864 1.375 . S
C865 C866 1.369 . S
C865 H878 0.950 . S
C866 C865 1.369 . S
C866 C867 1.392 . S
C866 H879 0.951 . S
C867 C866 1.392 . S
C867 C869 1.384 . S
H868 C870 0.949 . S
C869 C867 1.384 . S
C869 C870 1.385 . S
C869 H871 0.950 . S
C870 C864 1.404 . S
C870 H868 0.949 . S
C870 C869 1.385 . S
H871 C869 0.950 . S
H872 C856 0.951 . S
H873 C858 0.951 . S
H874 C860 0.951 . S
H875 C861 0.950 . S
H876 C862 0.950 . S
H877 C863 0.950 . S
H878 C865 0.950 . S
H879 C866 0.951 . S
C880 C881 1.386 . S
C880 C882 1.383 . S
C880 H896 0.951 . S
C881 C880 1.386 . S
C881 C885 1.383 . S
C882 C880 1.383 . S
C882 C883 1.402 . S
C882 H897 0.951 . S
C883 C882 1.402 . S
C883 C884 1.375 . S
C883 C886 1.481 . S
C884 C883 1.375 . S
C884 C885 1.367 . S
C884 H898 0.951 . S
C885 C881 1.383 . S
C885 C884 1.367 . S
C885 H899 0.950 . S
C886 C883 1.481 . S
C886 C887 1.297 . S
C886 H900 0.950 . S
C887 C886 1.297 . S
C887 C888 1.479 . S
C887 H901 0.950 . S
C888 C887 1.479 . S
C888 C889 1.375 . S
C888 C894 1.404 . S
C889 C888 1.375 . S
C889 C890 1.369 . S
C889 H902 0.950 . S
C890 C889 1.369 . S
C890 C891 1.392 . S
C890 H903 0.951 . S
C891 C890 1.392 . S
C891 C893 1.384 . S
H892 C894 0.949 . S
C893 C891 1.384 . S
C893 C894 1.385 . S
C893 H895 0.950 . S
C894 C888 1.404 . S
C894 H892 0.949 . S
C894 C893 1.385 . S
H895 C893 0.950 . S
H896 C880 0.951 . S
H897 C882 0.951 . S
H898 C884 0.951 . S
H899 C885 0.950 . S
H900 C886 0.950 . S
H901 C887 0.950 . S
H902 C889 0.950 . S
H903 C890 0.951 . S
C904 C905 1.386 . S
C904 C906 1.383 . S
C904 H920 0.951 . S
C905 C904 1.386 . S
C905 C909 1.383 . S
C906 C904 1.383 . S
C906 C907 1.402 1_556 S
C906 H921 0.951 1_565 S
C907 C906 1.402 1_554 S
C907 C908 1.375 . S
C907 C910 1.481 . S
C908 C907 1.375 . S
C908 C909 1.367 1_554 S
C908 H922 0.951 . S
C909 C905 1.383 . S
C909 C908 1.367 1_556 S
C909 H923 0.950 . S
C910 C907 1.481 . S
C910 C911 1.297 1_565 S
C910 H924 0.950 . S
C911 C910 1.297 1_545 S
C911 C912 1.479 . S
C911 H925 0.950 . S
C912 C911 1.479 . S
C912 C913 1.375 . S
C912 C918 1.404 . S
C913 C912 1.375 . S
C913 C914 1.369 . S
C913 H926 0.950 . S
C914 C913 1.369 . S
C914 C915 1.392 . S
C914 H927 0.951 . S
C915 C914 1.392 . S
C915 C917 1.384 . S
H916 C918 0.949 1_565 S
C917 C915 1.384 . S
C917 C918 1.385 . S
C917 H919 0.950 . S
C918 C912 1.404 . S
C918 H916 0.949 1_545 S
C918 C917 1.385 . S
H919 C917 0.950 . S
H920 C904 0.951 . S
H921 C906 0.951 1_545 S
H922 C908 0.951 . S
H923 C909 0.950 . S
H924 C910 0.950 . S
H925 C911 0.950 . S
H926 C913 0.950 . S
H927 C914 0.951 . S
C928 C929 1.386 . S
C928 C930 1.383 . S
C928 H944 0.951 . S
C929 C928 1.386 . S
C929 C933 1.383 . S
C930 C928 1.383 . S
C930 C931 1.402 . S
C930 H945 0.951 . S
C931 C930 1.402 . S
C931 C932 1.375 . S
C931 C934 1.481 . S
C932 C931 1.375 . S
C932 C933 1.367 . S
C932 H946 0.951 . S
C933 C929 1.383 . S
C933 C932 1.367 . S
C933 H947 0.950 . S
C934 C931 1.481 . S
C934 C935 1.297 . S
C934 H948 0.950 . S
C935 C934 1.297 . S
C935 C936 1.479 . S
C935 H949 0.950 . S
C936 C935 1.479 . S
C936 C937 1.375 . S
C936 C942 1.404 . S
C937 C936 1.375 . S
C937 C938 1.369 . S
C937 H950 0.950 . S
C938 C937 1.369 . S
C938 C939 1.392 . S
C938 H951 0.951 . S
C939 C938 1.392 . S
C939 C941 1.384 . S
H940 C942 0.949 . S
C941 C939 1.384 . S
C941 C942 1.385 . S
C941 H943 0.950 . S
C942 C936 1.404 . S
C942 H940 0.949 . S
C942 C941 1.385 . S
H943 C941 0.950 . S
H944 C928 0.951 . S
H945 C930 0.951 . S
H946 C932 0.951 . S
H947 C933 0.950 . S
H948 C934 0.950 . S
H949 C935 0.950 . S
H950 C937 0.950 . S
H951 C938 0.951 . S
C952 C953 1.386 . S
C952 C954 1.383 . S
C952 H968 0.951 . S
C953 C952 1.386 . S
C953 C957 1.383 . S
C954 C952 1.383 . S
C954 C955 1.402 . S
C954 H969 0.951 . S
C955 C954 1.402 . S
C955 C956 1.375 . S
C955 C958 1.481 . S
C956 C955 1.375 . S
C956 C957 1.367 . S
C956 H970 0.951 . S
C957 C953 1.383 . S
C957 C956 1.367 . S
C957 H971 0.950 . S
C958 C955 1.481 . S
C958 C959 1.297 . S
C958 H972 0.950 . S
C959 C958 1.297 . S
C959 C960 1.479 . S
C959 H973 0.950 . S
C960 C959 1.479 . S
C960 C961 1.375 . S
C960 C966 1.404 . S
C961 C960 1.375 . S
C961 C962 1.369 . S
C961 H974 0.950 . S
C962 C961 1.369 . S
C962 C963 1.392 . S
C962 H975 0.951 . S
C963 C962 1.392 . S
C963 C965 1.384 . S
H964 C966 0.949 . S
C965 C963 1.384 . S
C965 C966 1.385 . S
C965 H967 0.950 . S
C966 C960 1.404 . S
C966 H964 0.949 . S
C966 C965 1.385 . S
H967 C965 0.950 . S
H968 C952 0.951 . S
H969 C954 0.951 . S
H970 C956 0.951 . S
H971 C957 0.950 . S
H972 C958 0.950 . S
H973 C959 0.950 . S
H974 C961 0.950 . S
H975 C962 0.951 . S
C976 C977 1.386 . S
C976 C978 1.383 . S
C976 H992 0.951 . S
C977 C976 1.386 . S
C977 C981 1.383 . S
C978 C976 1.383 . S
C978 C979 1.402 . S
C978 H993 0.951 . S
C979 C978 1.402 . S
C979 C980 1.375 . S
C979 C982 1.481 . S
C980 C979 1.375 . S
C980 C981 1.367 . S
C980 H994 0.951 . S
C981 C977 1.383 . S
C981 C980 1.367 . S
C981 H995 0.950 . S
C982 C979 1.481 . S
C982 C983 1.297 . S
C982 H996 0.950 . S
C983 C982 1.297 . S
C983 C984 1.479 . S
C983 H997 0.950 . S
C984 C983 1.479 . S
C984 C985 1.375 . S
C984 C990 1.404 . S
C985 C984 1.375 . S
C985 C986 1.369 . S
C985 H998 0.950 . S
C986 C985 1.369 . S
C986 C987 1.392 . S
C986 H999 0.951 . S
C987 C986 1.392 . S
C987 C989 1.384 . S
H988 C990 0.949 . S
C989 C987 1.384 . S
C989 C990 1.385 . S
C989 H991 0.950 . S
C990 C984 1.404 . S
C990 H988 0.949 . S
C990 C989 1.385 . S
H991 C989 0.950 . S
H992 C976 0.951 . S
H993 C978 0.951 . S
H994 C980 0.951 . S
H995 C981 0.950 . S
H996 C982 0.950 . S
H997 C983 0.950 . S
H998 C985 0.950 . S
H999 C986 0.951 . S
C1000 C1001 1.386 . S
C1000 C1002 1.383 . S
C1000 H1016 0.951 . S
C1001 C1000 1.386 . S
C1001 C1005 1.383 . S
C1002 C1000 1.383 . S
C1002 C1003 1.402 . S
C1002 H1017 0.951 . S
C1003 C1002 1.402 . S
C1003 C1004 1.375 . S
C1003 C1006 1.481 . S
C1004 C1003 1.375 . S
C1004 C1005 1.367 . S
C1004 H1018 0.951 . S
C1005 C1001 1.383 . S
C1005 C1004 1.367 . S
C1005 H1019 0.950 . S
C1006 C1003 1.481 . S
C1006 C1007 1.297 . S
C1006 H1020 0.950 . S
C1007 C1006 1.297 . S
C1007 C1008 1.479 . S
C1007 H1021 0.950 . S
C1008 C1007 1.479 . S
C1008 C1009 1.375 . S
C1008 C1014 1.404 . S
C1009 C1008 1.375 . S
C1009 C1010 1.369 . S
C1009 H1022 0.950 . S
C1010 C1009 1.369 . S
C1010 C1011 1.392 . S
C1010 H1023 0.951 . S
C1011 C1010 1.392 . S
C1011 C1013 1.384 . S
H1012 C1014 0.949 . S
C1013 C1011 1.384 . S
C1013 C1014 1.385 . S
C1013 H1015 0.950 . S
C1014 C1008 1.404 . S
C1014 H1012 0.949 . S
C1014 C1013 1.385 . S
H1015 C1013 0.950 . S
H1016 C1000 0.951 . S
H1017 C1002 0.951 . S
H1018 C1004 0.951 . S
H1019 C1005 0.950 . S
H1020 C1006 0.950 . S
H1021 C1007 0.950 . S
H1022 C1009 0.950 . S
H1023 C1010 0.951 . S
C1024 C1025 1.386 . S
C1024 C1026 1.383 . S
C1024 H1040 0.951 . S
C1025 C1024 1.386 . S
C1025 C1029 1.383 . S
C1026 C1024 1.383 . S
C1026 C1027 1.402 . S
C1026 H1041 0.951 . S
C1027 C1026 1.402 . S
C1027 C1028 1.375 . S
C1027 C1030 1.481 . S
C1028 C1027 1.375 . S
C1028 C1029 1.367 . S
C1028 H1042 0.951 . S
C1029 C1025 1.383 . S
C1029 C1028 1.367 . S
C1029 H1043 0.950 . S
C1030 C1027 1.481 . S
C1030 C1031 1.297 . S
C1030 H1044 0.950 . S
C1031 C1030 1.297 . S
C1031 C1032 1.479 . S
C1031 H1045 0.950 . S
C1032 C1031 1.479 . S
C1032 C1033 1.375 . S
C1032 C1038 1.404 . S
C1033 C1032 1.375 . S
C1033 C1034 1.369 . S
C1033 H1046 0.950 . S
C1034 C1033 1.369 . S
C1034 C1035 1.392 1_554 S
C1034 H1047 0.948 1_554 S
C1035 C1034 1.392 1_556 S
C1035 C1037 1.384 1_556 S
H1036 C1038 0.949 . S
C1037 C1035 1.384 1_554 S
C1037 C1038 1.385 . S
C1037 H1039 0.950 . S
C1038 C1032 1.404 . S
C1038 H1036 0.949 . S
C1038 C1037 1.385 . S
H1039 C1037 0.950 . S
H1040 C1024 0.951 . S
H1041 C1026 0.951 . S
H1042 C1028 0.951 . S
H1043 C1029 0.950 . S
H1044 C1030 0.950 . S
H1045 C1031 0.950 . S
H1046 C1033 0.950 . S
H1047 C1034 0.948 1_556 S
C1048 C1049 1.386 . S
C1048 C1050 1.383 . S
C1048 H1064 0.951 . S
C1049 C1048 1.386 . S
C1049 C1053 1.383 . S
C1050 C1048 1.383 . S
C1050 C1051 1.402 . S
C1050 H1065 0.951 . S
C1051 C1050 1.402 . S
C1051 C1052 1.375 . S
C1051 C1054 1.481 . S
C1052 C1051 1.375 . S
C1052 C1053 1.367 . S
C1052 H1066 0.951 . S
C1053 C1049 1.383 . S
C1053 C1052 1.367 . S
C1053 H1067 0.950 . S
C1054 C1051 1.481 . S
C1054 C1055 1.297 . S
C1054 H1068 0.950 . S
C1055 C1054 1.297 . S
C1055 C1056 1.479 1_554 S
C1055 H1069 0.950 . S
C1056 C1055 1.479 1_556 S
C1056 C1057 1.375 . S
C1056 C1062 1.404 . S
C1057 C1056 1.375 . S
C1057 C1058 1.369 . S
C1057 H1070 0.950 . S
C1058 C1057 1.369 . S
C1058 C1059 1.392 . S
C1058 H1071 0.951 . S
C1059 C1058 1.392 . S
C1059 C1061 1.384 . S
H1060 C1062 0.949 . S
C1061 C1059 1.384 . S
C1061 C1062 1.385 . S
C1061 H1063 0.950 . S
C1062 C1056 1.404 . S
C1062 H1060 0.949 . S
C1062 C1061 1.385 . S
H1063 C1061 0.950 . S
H1064 C1048 0.951 . S
H1065 C1050 0.951 . S
H1066 C1052 0.951 . S
H1067 C1053 0.950 . S
H1068 C1054 0.950 . S
H1069 C1055 0.950 . S
H1070 C1057 0.950 . S
H1071 C1058 0.951 . S
C1072 C1073 1.386 . S
C1072 C1074 1.383 1_554 S
C1072 H1088 0.951 . S
C1073 C1072 1.386 . S
C1073 C1077 1.383 . S
C1074 C1072 1.383 1_556 S
C1074 C1075 1.402 . S
C1074 H1089 0.951 . S
C1075 C1074 1.402 . S
C1075 C1076 1.375 . S
C1075 C1078 1.481 . S
C1076 C1075 1.375 . S
C1076 C1077 1.367 1_556 S
C1076 H1090 0.951 . S
C1077 C1073 1.383 . S
C1077 C1076 1.367 1_554 S
C1077 H1091 0.950 . S
C1078 C1075 1.481 . S
C1078 C1079 1.297 . S
C1078 H1092 0.950 . S
C1079 C1078 1.297 . S
C1079 C1080 1.479 . S
C1079 H1093 0.950 . S
C1080 C1079 1.479 . S
C1080 C1081 1.375 . S
C1080 C1086 1.404 . S
C1081 C1080 1.375 . S
C1081 C1082 1.369 . S
C1081 H1094 0.950 . S
C1082 C1081 1.369 . S
C1082 C1083 1.392 . S
C1082 H1095 0.951 . S
C1083 C1082 1.392 . S
C1083 C1085 1.384 . S
H1084 C1086 0.949 . S
C1085 C1083 1.384 . S
C1085 C1086 1.385 . S
C1085 H1087 0.950 . S
C1086 C1080 1.404 . S
C1086 H1084 0.949 . S
C1086 C1085 1.385 . S
H1087 C1085 0.950 . S
H1088 C1072 0.951 . S
H1089 C1074 0.951 . S
H1090 C1076 0.951 . S
H1091 C1077 0.950 . S
H1092 C1078 0.950 . S
H1093 C1079 0.950 . S
H1094 C1081 0.950 . S
H1095 C1082 0.951 . S
C1096 C1097 1.386 . S
C1096 C1098 1.383 1_554 S
C1096 H1112 0.951 . S
C1097 C1096 1.386 . S
C1097 C1101 1.383 . S
C1098 C1096 1.383 1_556 S
C1098 C1099 1.402 . S
C1098 H1113 0.951 . S
C1099 C1098 1.402 . S
C1099 C1100 1.375 . S
C1099 C1102 1.481 . S
C1100 C1099 1.375 . S
C1100 C1101 1.367 1_556 S
C1100 H1114 0.951 . S
C1101 C1097 1.383 . S
C1101 C1100 1.367 1_554 S
C1101 H1115 0.950 . S
C1102 C1099 1.481 . S
C1102 C1103 1.297 . S
C1102 H1116 0.950 . S
C1103 C1102 1.297 . S
C1103 C1104 1.479 . S
C1103 H1117 0.950 . S
C1104 C1103 1.479 . S
C1104 C1105 1.375 . S
C1104 C1110 1.404 . S
C1105 C1104 1.375 . S
C1105 C1106 1.369 . S
C1105 H1118 0.950 . S
C1106 C1105 1.369 . S
C1106 C1107 1.392 . S
C1106 H1119 0.951 . S
C1107 C1106 1.392 . S
C1107 C1109 1.384 . S
H1108 C1110 0.949 . S
C1109 C1107 1.384 . S
C1109 C1110 1.385 . S
C1109 H1111 0.950 . S
C1110 C1104 1.404 . S
C1110 H1108 0.949 . S
C1110 C1109 1.385 . S
H1111 C1109 0.950 . S
H1112 C1096 0.951 . S
H1113 C1098 0.951 . S
H1114 C1100 0.951 . S
H1115 C1101 0.950 . S
H1116 C1102 0.950 . S
H1117 C1103 0.950 . S
H1118 C1105 0.950 . S
H1119 C1106 0.951 . S
C1120 C1121 1.386 1_554 S
C1120 C1122 1.383 . S
C1120 H1136 0.951 . S
C1121 C1120 1.386 1_556 S
C1121 C1125 1.383 1_556 S
C1122 C1120 1.383 . S
C1122 C1123 1.402 . S
C1122 H1137 0.951 . S
C1123 C1122 1.402 . S
C1123 C1124 1.375 . S
C1123 C1126 1.481 . S
C1124 C1123 1.375 . S
C1124 C1125 1.367 . S
C1124 H1138 0.951 . S
C1125 C1121 1.383 1_554 S
C1125 C1124 1.367 . S
C1125 H1139 0.950 1_554 S
C1126 C1123 1.481 . S
C1126 C1127 1.297 . S
C1126 H1140 0.950 . S
C1127 C1126 1.297 . S
C1127 C1128 1.479 . S
C1127 H1141 0.950 . S
C1128 C1127 1.479 . S
C1128 C1129 1.375 . S
C1128 C1134 1.404 . S
C1129 C1128 1.375 . S
C1129 C1130 1.369 . S
C1129 H1142 0.950 . S
C1130 C1129 1.369 . S
C1130 C1131 1.392 . S
C1130 H1143 0.951 . S
C1131 C1130 1.392 . S
C1131 C1133 1.384 . S
H1132 C1134 0.949 . S
C1133 C1131 1.384 . S
C1133 C1134 1.385 . S
C1133 H1135 0.950 . S
C1134 C1128 1.404 . S
C1134 H1132 0.949 . S
C1134 C1133 1.385 . S
H1135 C1133 0.950 . S
H1136 C1120 0.951 . S
H1137 C1122 0.951 . S
H1138 C1124 0.951 . S
H1139 C1125 0.950 1_556 S
H1140 C1126 0.950 . S
H1141 C1127 0.950 . S
H1142 C1129 0.950 . S
H1143 C1130 0.951 . S
C1144 C1145 1.386 . S
C1144 C1146 1.383 . S
C1144 H1160 0.951 . S
C1145 C1144 1.386 . S
C1145 C1149 1.383 . S
C1146 C1144 1.383 . S
C1146 C1147 1.402 . S
C1146 H1161 0.951 . S
C1147 C1146 1.402 . S
C1147 C1148 1.375 . S
C1147 C1150 1.481 1_556 S
C1148 C1147 1.375 . S
C1148 C1149 1.367 . S
C1148 H1162 0.951 . S
C1149 C1145 1.383 . S
C1149 C1148 1.367 . S
C1149 H1163 0.950 . S
C1150 C1147 1.481 1_554 S
C1150 C1151 1.297 . S
C1150 H1164 0.950 . S
C1151 C1150 1.297 . S
C1151 C1152 1.479 . S
C1151 H1165 0.950 . S
C1152 C1151 1.479 . S
C1152 C1153 1.375 . S
C1152 C1158 1.404 . S
C1153 C1152 1.375 . S
C1153 C1154 1.369 . S
C1153 H1166 0.950 . S
C1154 C1153 1.369 . S
C1154 C1155 1.392 . S
C1154 H1167 0.951 . S
C1155 C1154 1.392 . S
C1155 C1157 1.384 . S
H1156 C1158 0.949 . S
C1157 C1155 1.384 . S
C1157 C1158 1.385 . S
C1157 H1159 0.950 . S
C1158 C1152 1.404 . S
C1158 H1156 0.949 . S
C1158 C1157 1.385 . S
H1159 C1157 0.950 . S
H1160 C1144 0.951 . S
H1161 C1146 0.951 . S
H1162 C1148 0.951 . S
H1163 C1149 0.950 . S
H1164 C1150 0.950 . S
H1165 C1151 0.950 . S
H1166 C1153 0.950 . S
H1167 C1154 0.951 . S
C1168 C1169 1.386 . S
C1168 C1170 1.383 1_554 S
C1168 H1184 0.951 . S
C1169 C1168 1.386 . S
C1169 C1173 1.383 . S
C1170 C1168 1.383 1_556 S
C1170 C1171 1.402 . S
C1170 H1185 0.951 . S
C1171 C1170 1.402 . S
C1171 C1172 1.375 . S
C1171 C1174 1.481 . S
C1172 C1171 1.375 . S
C1172 C1173 1.367 1_556 S
C1172 H1186 0.951 . S
C1173 C1169 1.383 . S
C1173 C1172 1.367 1_554 S
C1173 H1187 0.950 . S
C1174 C1171 1.481 . S
C1174 C1175 1.297 . S
C1174 H1188 0.950 . S
C1175 C1174 1.297 . S
C1175 C1176 1.479 . S
C1175 H1189 0.950 . S
C1176 C1175 1.479 . S
C1176 C1177 1.375 . S
C1176 C1182 1.404 . S
C1177 C1176 1.375 . S
C1177 C1178 1.369 . S
C1177 H1190 0.950 . S
C1178 C1177 1.369 . S
C1178 C1179 1.392 . S
C1178 H1191 0.951 . S
C1179 C1178 1.392 . S
C1179 C1181 1.384 . S
H1180 C1182 0.949 . S
C1181 C1179 1.384 . S
C1181 C1182 1.385 . S
C1181 H1183 0.950 . S
C1182 C1176 1.404 . S
C1182 H1180 0.949 . S
C1182 C1181 1.385 . S
H1183 C1181 0.950 . S
H1184 C1168 0.951 . S
H1185 C1170 0.951 . S
H1186 C1172 0.951 . S
H1187 C1173 0.950 . S
H1188 C1174 0.950 . S
H1189 C1175 0.950 . S
H1190 C1177 0.950 . S
H1191 C1178 0.951 . S
C1192 C1193 1.386 . S
C1192 C1194 1.383 1_554 S
C1192 H1208 0.951 . S
C1193 C1192 1.386 . S
C1193 C1197 1.383 . S
C1194 C1192 1.383 1_556 S
C1194 C1195 1.402 . S
C1194 H1209 0.951 . S
C1195 C1194 1.402 . S
C1195 C1196 1.375 . S
C1195 C1198 1.481 . S
C1196 C1195 1.375 . S
C1196 C1197 1.367 1_556 S
C1196 H1210 0.951 . S
C1197 C1193 1.383 . S
C1197 C1196 1.367 1_554 S
C1197 H1211 0.950 . S
C1198 C1195 1.481 . S
C1198 C1199 1.297 . S
C1198 H1212 0.950 . S
C1199 C1198 1.297 . S
C1199 C1200 1.479 . S
C1199 H1213 0.950 . S
C1200 C1199 1.479 . S
C1200 C1201 1.375 . S
C1200 C1206 1.404 . S
C1201 C1200 1.375 . S
C1201 C1202 1.369 . S
C1201 H1214 0.950 . S
C1202 C1201 1.369 . S
C1202 C1203 1.392 . S
C1202 H1215 0.951 . S
C1203 C1202 1.392 . S
C1203 C1205 1.384 . S
H1204 C1206 0.949 . S
C1205 C1203 1.384 . S
C1205 C1206 1.385 . S
C1205 H1207 0.950 . S
C1206 C1200 1.404 . S
C1206 H1204 0.949 . S
C1206 C1205 1.385 . S
H1207 C1205 0.950 . S
H1208 C1192 0.951 . S
H1209 C1194 0.951 . S
H1210 C1196 0.951 . S
H1211 C1197 0.950 . S
H1212 C1198 0.950 . S
H1213 C1199 0.950 . S
H1214 C1201 0.950 . S
H1215 C1202 0.951 . S
C1216 C1217 1.386 . S
C1216 C1218 1.383 . S
C1216 H1232 0.951 . S
C1217 C1216 1.386 . S
C1217 C1221 1.383 . S
C1218 C1216 1.383 . S
C1218 C1219 1.402 . S
C1218 H1233 0.951 . S
C1219 C1218 1.402 . S
C1219 C1220 1.375 . S
C1219 C1222 1.481 . S
C1220 C1219 1.375 . S
C1220 C1221 1.367 . S
C1220 H1234 0.951 . S
C1221 C1217 1.383 . S
C1221 C1220 1.367 . S
C1221 H1235 0.950 . S
C1222 C1219 1.481 . S
C1222 C1223 1.297 . S
C1222 H1236 0.950 . S
C1223 C1222 1.297 . S
C1223 C1224 1.479 . S
C1223 H1237 0.950 . S
C1224 C1223 1.479 . S
C1224 C1225 1.375 . S
C1224 C1230 1.404 . S
C1225 C1224 1.375 . S
C1225 C1226 1.369 . S
C1225 H1238 0.950 . S
C1226 C1225 1.369 . S
C1226 C1227 1.392 . S
C1226 H1239 0.951 . S
C1227 C1226 1.392 . S
C1227 C1229 1.384 . S
H1228 C1230 0.949 . S
C1229 C1227 1.384 . S
C1229 C1230 1.385 . S
C1229 H1231 0.950 . S
C1230 C1224 1.404 . S
C1230 H1228 0.949 . S
C1230 C1229 1.385 . S
H1231 C1229 0.950 . S
H1232 C1216 0.951 . S
H1233 C1218 0.951 . S
H1234 C1220 0.951 . S
H1235 C1221 0.950 . S
H1236 C1222 0.950 . S
H1237 C1223 0.950 . S
H1238 C1225 0.950 . S
H1239 C1226 0.951 . S
C1240 C1241 1.386 . S
C1240 C1242 1.383 . S
C1240 H1256 0.951 . S
C1241 C1240 1.386 . S
C1241 C1245 1.383 . S
C1242 C1240 1.383 . S
C1242 C1243 1.402 . S
C1242 H1257 0.951 . S
C1243 C1242 1.402 . S
C1243 C1244 1.375 . S
C1243 C1246 1.481 . S
C1244 C1243 1.375 . S
C1244 C1245 1.367 . S
C1244 H1258 0.951 . S
C1245 C1241 1.383 . S
C1245 C1244 1.367 . S
C1245 H1259 0.950 . S
C1246 C1243 1.481 . S
C1246 C1247 1.297 . S
C1246 H1260 0.950 . S
C1247 C1246 1.297 . S
C1247 C1248 1.479 . S
C1247 H1261 0.950 . S
C1248 C1247 1.479 . S
C1248 C1249 1.375 . S
C1248 C1254 1.404 . S
C1249 C1248 1.375 . S
C1249 C1250 1.369 . S
C1249 H1262 0.950 . S
C1250 C1249 1.369 . S
C1250 C1251 1.392 . S
C1250 H1263 0.951 . S
C1251 C1250 1.392 . S
C1251 C1253 1.384 . S
H1252 C1254 0.949 . S
C1253 C1251 1.384 . S
C1253 C1254 1.385 . S
C1253 H1255 0.950 . S
C1254 C1248 1.404 . S
C1254 H1252 0.949 . S
C1254 C1253 1.385 . S
H1255 C1253 0.950 . S
H1256 C1240 0.951 . S
H1257 C1242 0.951 . S
H1258 C1244 0.951 . S
H1259 C1245 0.950 . S
H1260 C1246 0.950 . S
H1261 C1247 0.950 . S
H1262 C1249 0.950 . S
H1263 C1250 0.951 . S
C1264 C1265 1.386 . S
C1264 C1266 1.383 . S
C1264 H1280 0.951 . S
C1265 C1264 1.386 . S
C1265 C1269 1.383 . S
C1266 C1264 1.383 . S
C1266 C1267 1.402 . S
C1266 H1281 0.951 . S
C1267 C1266 1.402 . S
C1267 C1268 1.375 . S
C1267 C1270 1.481 . S
C1268 C1267 1.375 . S
C1268 C1269 1.367 . S
C1268 H1282 0.951 . S
C1269 C1265 1.383 . S
C1269 C1268 1.367 . S
C1269 H1283 0.950 . S
C1270 C1267 1.481 . S
C1270 C1271 1.297 . S
C1270 H1284 0.950 . S
C1271 C1270 1.297 . S
C1271 C1272 1.479 . S
C1271 H1285 0.950 . S
C1272 C1271 1.479 . S
C1272 C1273 1.375 . S
C1272 C1278 1.404 . S
C1273 C1272 1.375 . S
C1273 C1274 1.369 . S
C1273 H1286 0.950 . S
C1274 C1273 1.369 . S
C1274 C1275 1.392 . S
C1274 H1287 0.951 . S
C1275 C1274 1.392 . S
C1275 C1277 1.384 . S
H1276 C1278 0.949 . S
C1277 C1275 1.384 . S
C1277 C1278 1.385 . S
C1277 H1279 0.950 . S
C1278 C1272 1.404 . S
C1278 H1276 0.949 . S
C1278 C1277 1.385 . S
H1279 C1277 0.950 . S
H1280 C1264 0.951 . S
H1281 C1266 0.951 . S
H1282 C1268 0.951 . S
H1283 C1269 0.950 . S
H1284 C1270 0.950 . S
H1285 C1271 0.950 . S
H1286 C1273 0.950 . S
H1287 C1274 0.951 . S
C1288 C1289 1.386 . S
C1288 C1290 1.383 . S
C1288 H1304 0.951 . S
C1289 C1288 1.386 . S
C1289 C1293 1.383 . S
C1290 C1288 1.383 . S
C1290 C1291 1.402 . S
C1290 H1305 0.951 . S
C1291 C1290 1.402 . S
C1291 C1292 1.375 . S
C1291 C1294 1.481 . S
C1292 C1291 1.375 . S
C1292 C1293 1.367 . S
C1292 H1306 0.951 . S
C1293 C1289 1.383 . S
C1293 C1292 1.367 . S
C1293 H1307 0.950 . S
C1294 C1291 1.481 . S
C1294 C1295 1.297 . S
C1294 H1308 0.950 . S
C1295 C1294 1.297 . S
C1295 C1296 1.479 . S
C1295 H1309 0.950 . S
C1296 C1295 1.479 . S
C1296 C1297 1.375 . S
C1296 C1302 1.404 . S
C1297 C1296 1.375 . S
C1297 C1298 1.369 . S
C1297 H1310 0.950 . S
C1298 C1297 1.369 . S
C1298 C1299 1.392 . S
C1298 H1311 0.951 . S
C1299 C1298 1.392 . S
C1299 C1301 1.384 . S
H1300 C1302 0.949 . S
C1301 C1299 1.384 . S
C1301 C1302 1.385 . S
C1301 H1303 0.950 . S
C1302 C1296 1.404 . S
C1302 H1300 0.949 . S
C1302 C1301 1.385 . S
H1303 C1301 0.950 . S
H1304 C1288 0.951 . S
H1305 C1290 0.951 . S
H1306 C1292 0.951 . S
H1307 C1293 0.950 . S
H1308 C1294 0.950 . S
H1309 C1295 0.950 . S
H1310 C1297 0.950 . S
H1311 C1298 0.951 . S
C1312 C1313 1.386 . S
C1312 C1314 1.383 . S
C1312 H1328 0.951 . S
C1313 C1312 1.386 . S
C1313 C1317 1.383 . S
C1314 C1312 1.383 . S
C1314 C1315 1.402 . S
C1314 H1329 0.951 . S
C1315 C1314 1.402 . S
C1315 C1316 1.375 . S
C1315 C1318 1.481 . S
C1316 C1315 1.375 . S
C1316 C1317 1.367 . S
C1316 H1330 0.951 . S
C1317 C1313 1.383 . S
C1317 C1316 1.367 . S
C1317 H1331 0.950 . S
C1318 C1315 1.481 . S
C1318 C1319 1.297 . S
C1318 H1332 0.950 . S
C1319 C1318 1.297 . S
C1319 C1320 1.479 . S
C1319 H1333 0.950 . S
C1320 C1319 1.479 . S
C1320 C1321 1.375 . S
C1320 C1326 1.404 . S
C1321 C1320 1.375 . S
C1321 C1322 1.369 . S
C1321 H1334 0.950 . S
C1322 C1321 1.369 . S
C1322 C1323 1.392 . S
C1322 H1335 0.951 . S
C1323 C1322 1.392 . S
C1323 C1325 1.384 . S
H1324 C1326 0.949 . S
C1325 C1323 1.384 . S
C1325 C1326 1.385 . S
C1325 H1327 0.950 . S
C1326 C1320 1.404 . S
C1326 H1324 0.949 . S
C1326 C1325 1.385 . S
H1327 C1325 0.950 . S
H1328 C1312 0.951 . S
H1329 C1314 0.951 . S
H1330 C1316 0.951 . S
H1331 C1317 0.950 . S
H1332 C1318 0.950 . S
H1333 C1319 0.950 . S
H1334 C1321 0.950 . S
H1335 C1322 0.951 . S
C1336 C1337 1.386 . S
C1336 C1338 1.383 . S
C1336 H1352 0.951 . S
C1337 C1336 1.386 . S
C1337 C1341 1.383 . S
C1338 C1336 1.383 . S
C1338 C1339 1.402 . S
C1338 H1353 0.951 . S
C1339 C1338 1.402 . S
C1339 C1340 1.375 . S
C1339 C1342 1.481 . S
C1340 C1339 1.375 . S
C1340 C1341 1.367 . S
C1340 H1354 0.951 . S
C1341 C1337 1.383 . S
C1341 C1340 1.367 . S
C1341 H1355 0.950 . S
C1342 C1339 1.481 . S
C1342 C1343 1.297 . S
C1342 H1356 0.950 . S
C1343 C1342 1.297 . S
C1343 C1344 1.479 . S
C1343 H1357 0.950 . S
C1344 C1343 1.479 . S
C1344 C1345 1.375 . S
C1344 C1350 1.404 . S
C1345 C1344 1.375 . S
C1345 C1346 1.369 . S
C1345 H1358 0.950 . S
C1346 C1345 1.369 . S
C1346 C1347 1.392 . S
C1346 H1359 0.951 . S
C1347 C1346 1.392 . S
C1347 C1349 1.384 . S
H1348 C1350 0.949 . S
C1349 C1347 1.384 . S
C1349 C1350 1.385 . S
C1349 H1351 0.950 . S
C1350 C1344 1.404 . S
C1350 H1348 0.949 . S
C1350 C1349 1.385 . S
H1351 C1349 0.950 . S
H1352 C1336 0.951 . S
H1353 C1338 0.951 . S
H1354 C1340 0.951 . S
H1355 C1341 0.950 . S
H1356 C1342 0.950 . S
H1357 C1343 0.950 . S
H1358 C1345 0.950 . S
H1359 C1346 0.951 . S
C1360 C1361 1.386 . S
C1360 C1362 1.383 . S
C1360 H1376 0.951 . S
C1361 C1360 1.386 . S
C1361 C1365 1.383 . S
C1362 C1360 1.383 . S
C1362 C1363 1.402 . S
C1362 H1377 0.951 . S
C1363 C1362 1.402 . S
C1363 C1364 1.375 . S
C1363 C1366 1.481 . S
C1364 C1363 1.375 . S
C1364 C1365 1.367 . S
C1364 H1378 0.951 . S
C1365 C1361 1.383 . S
C1365 C1364 1.367 . S
C1365 H1379 0.950 . S
C1366 C1363 1.481 . S
C1366 C1367 1.297 . S
C1366 H1380 0.950 . S
C1367 C1366 1.297 . S
C1367 C1368 1.479 . S
C1367 H1381 0.950 . S
C1368 C1367 1.479 . S
C1368 C1369 1.375 . S
C1368 C1374 1.404 . S
C1369 C1368 1.375 . S
C1369 C1370 1.369 . S
C1369 H1382 0.950 . S
C1370 C1369 1.369 . S
C1370 C1371 1.392 . S
C1370 H1383 0.951 . S
C1371 C1370 1.392 . S
C1371 C1373 1.384 . S
H1372 C1374 0.949 . S
C1373 C1371 1.384 . S
C1373 C1374 1.385 . S
C1373 H1375 0.950 . S
C1374 C1368 1.404 . S
C1374 H1372 0.949 . S
C1374 C1373 1.385 . S
H1375 C1373 0.950 . S
H1376 C1360 0.951 . S
H1377 C1362 0.951 . S
H1378 C1364 0.951 . S
H1379 C1365 0.950 . S
H1380 C1366 0.950 . S
H1381 C1367 0.950 . S
H1382 C1369 0.950 . S
H1383 C1370 0.951 . S
C1384 C1385 1.386 . S
C1384 C1386 1.383 . S
C1384 H1400 0.951 . S
C1385 C1384 1.386 . S
C1385 C1389 1.383 . S
C1386 C1384 1.383 . S
C1386 C1387 1.402 . S
C1386 H1401 0.951 . S
C1387 C1386 1.402 . S
C1387 C1388 1.375 . S
C1387 C1390 1.481 . S
C1388 C1387 1.375 . S
C1388 C1389 1.367 . S
C1388 H1402 0.951 . S
C1389 C1385 1.383 . S
C1389 C1388 1.367 . S
C1389 H1403 0.950 . S
C1390 C1387 1.481 . S
C1390 C1391 1.297 . S
C1390 H1404 0.950 . S
C1391 C1390 1.297 . S
C1391 C1392 1.479 . S
C1391 H1405 0.950 . S
C1392 C1391 1.479 . S
C1392 C1393 1.375 . S
C1392 C1398 1.404 . S
C1393 C1392 1.375 . S
C1393 C1394 1.369 . S
C1393 H1406 0.950 . S
C1394 C1393 1.369 . S
C1394 C1395 1.392 . S
C1394 H1407 0.951 . S
C1395 C1394 1.392 . S
C1395 C1397 1.384 . S
H1396 C1398 0.949 . S
C1397 C1395 1.384 . S
C1397 C1398 1.385 . S
C1397 H1399 0.950 . S
C1398 C1392 1.404 . S
C1398 H1396 0.949 . S
C1398 C1397 1.385 . S
H1399 C1397 0.950 . S
H1400 C1384 0.951 . S
H1401 C1386 0.951 . S
H1402 C1388 0.951 . S
H1403 C1389 0.950 . S
H1404 C1390 0.950 . S
H1405 C1391 0.950 . S
H1406 C1393 0.950 . S
H1407 C1394 0.951 . S
C1408 C1409 1.386 . S
C1408 C1410 1.383 . S
C1408 H1424 0.951 . S
C1409 C1408 1.386 . S
C1409 C1413 1.383 . S
C1410 C1408 1.383 . S
C1410 C1411 1.402 . S
C1410 H1425 0.951 . S
C1411 C1410 1.402 . S
C1411 C1412 1.375 . S
C1411 C1414 1.481 . S
C1412 C1411 1.375 . S
C1412 C1413 1.367 . S
C1412 H1426 0.951 . S
C1413 C1409 1.383 . S
C1413 C1412 1.367 . S
C1413 H1427 0.950 . S
C1414 C1411 1.481 . S
C1414 C1415 1.297 . S
C1414 H1428 0.950 . S
C1415 C1414 1.297 . S
C1415 C1416 1.479 . S
C1415 H1429 0.950 . S
C1416 C1415 1.479 . S
C1416 C1417 1.375 . S
C1416 C1422 1.404 . S
C1417 C1416 1.375 . S
C1417 C1418 1.369 . S
C1417 H1430 0.950 . S
C1418 C1417 1.369 . S
C1418 C1419 1.392 . S
C1418 H1431 0.951 . S
C1419 C1418 1.392 . S
C1419 C1421 1.384 . S
H1420 C1422 0.949 . S
C1421 C1419 1.384 . S
C1421 C1422 1.385 . S
C1421 H1423 0.950 . S
C1422 C1416 1.404 . S
C1422 H1420 0.949 . S
C1422 C1421 1.385 . S
H1423 C1421 0.950 . S
H1424 C1408 0.951 . S
H1425 C1410 0.951 . S
H1426 C1412 0.951 . S
H1427 C1413 0.950 . S
H1428 C1414 0.950 . S
H1429 C1415 0.950 . S
H1430 C1417 0.950 . S
H1431 C1418 0.951 . S
C1432 C1433 1.386 . S
C1432 C1434 1.383 . S
C1432 H1448 0.951 . S
C1433 C1432 1.386 . S
C1433 C1437 1.383 . S
C1434 C1432 1.383 . S
C1434 C1435 1.402 . S
C1434 H1449 0.951 . S
C1435 C1434 1.402 . S
C1435 C1436 1.375 . S
C1435 C1438 1.481 . S
C1436 C1435 1.375 . S
C1436 C1437 1.367 . S
C1436 H1450 0.951 . S
C1437 C1433 1.383 . S
C1437 C1436 1.367 . S
C1437 H1451 0.950 . S
C1438 C1435 1.481 . S
C1438 C1439 1.297 . S
C1438 H1452 0.950 . S
C1439 C1438 1.297 . S
C1439 C1440 1.479 . S
C1439 H1453 0.950 . S
C1440 C1439 1.479 . S
C1440 C1441 1.375 . S
C1440 C1446 1.404 . S
C1441 C1440 1.375 . S
C1441 C1442 1.369 . S
C1441 H1454 0.950 . S
C1442 C1441 1.369 . S
C1442 C1443 1.392 . S
C1442 H1455 0.951 . S
C1443 C1442 1.392 . S
C1443 C1445 1.384 . S
H1444 C1446 0.949 . S
C1445 C1443 1.384 . S
C1445 C1446 1.385 . S
C1445 H1447 0.950 . S
C1446 C1440 1.404 . S
C1446 H1444 0.949 . S
C1446 C1445 1.385 . S
H1447 C1445 0.950 . S
H1448 C1432 0.951 . S
H1449 C1434 0.951 . S
H1450 C1436 0.951 . S
H1451 C1437 0.950 . S
H1452 C1438 0.950 . S
H1453 C1439 0.950 . S
H1454 C1441 0.950 . S
H1455 C1442 0.951 . S
C1456 C1457 1.386 . S
C1456 C1458 1.383 . S
C1456 H1472 0.951 . S
C1457 C1456 1.386 . S
C1457 C1461 1.383 . S
C1458 C1456 1.383 . S
C1458 C1459 1.402 . S
C1458 H1473 0.951 . S
C1459 C1458 1.402 . S
C1459 C1460 1.375 . S
C1459 C1462 1.481 . S
C1460 C1459 1.375 . S
C1460 C1461 1.367 . S
C1460 H1474 0.951 . S
C1461 C1457 1.383 . S
C1461 C1460 1.367 . S
C1461 H1475 0.950 . S
C1462 C1459 1.481 . S
C1462 C1463 1.297 . S
C1462 H1476 0.950 . S
C1463 C1462 1.297 . S
C1463 C1464 1.479 . S
C1463 H1477 0.950 . S
C1464 C1463 1.479 . S
C1464 C1465 1.375 . S
C1464 C1470 1.404 . S
C1465 C1464 1.375 . S
C1465 C1466 1.369 . S
C1465 H1478 0.950 . S
C1466 C1465 1.369 . S
C1466 C1467 1.392 . S
C1466 H1479 0.951 . S
C1467 C1466 1.392 . S
C1467 C1469 1.384 . S
H1468 C1470 0.949 . S
C1469 C1467 1.384 . S
C1469 C1470 1.385 . S
C1469 H1471 0.950 . S
C1470 C1464 1.404 . S
C1470 H1468 0.949 . S
C1470 C1469 1.385 . S
H1471 C1469 0.950 . S
H1472 C1456 0.951 . S
H1473 C1458 0.951 . S
H1474 C1460 0.951 . S
H1475 C1461 0.950 . S
H1476 C1462 0.950 . S
H1477 C1463 0.950 . S
H1478 C1465 0.950 . S
H1479 C1466 0.951 . S
C1480 C1481 1.386 . S
C1480 C1482 1.383 . S
C1480 H1496 0.951 . S
C1481 C1480 1.386 . S
C1481 C1485 1.383 . S
C1482 C1480 1.383 . S
C1482 C1483 1.402 . S
C1482 H1497 0.951 . S
C1483 C1482 1.402 . S
C1483 C1484 1.375 . S
C1483 C1486 1.481 . S
C1484 C1483 1.375 . S
C1484 C1485 1.367 . S
C1484 H1498 0.951 . S
C1485 C1481 1.383 . S
C1485 C1484 1.367 . S
C1485 H1499 0.950 . S
C1486 C1483 1.481 . S
C1486 C1487 1.297 . S
C1486 H1500 0.950 . S
C1487 C1486 1.297 . S
C1487 C1488 1.479 . S
C1487 H1501 0.950 . S
C1488 C1487 1.479 . S
C1488 C1489 1.375 . S
C1488 C1494 1.404 . S
C1489 C1488 1.375 . S
C1489 C1490 1.369 . S
C1489 H1502 0.950 . S
C1490 C1489 1.369 . S
C1490 C1491 1.392 . S
C1490 H1503 0.951 . S
C1491 C1490 1.392 . S
C1491 C1493 1.384 . S
H1492 C1494 0.949 . S
C1493 C1491 1.384 . S
C1493 C1494 1.385 . S
C1493 H1495 0.950 . S
C1494 C1488 1.404 . S
C1494 H1492 0.949 . S
C1494 C1493 1.385 . S
H1495 C1493 0.950 . S
H1496 C1480 0.951 . S
H1497 C1482 0.951 . S
H1498 C1484 0.951 . S
H1499 C1485 0.950 . S
H1500 C1486 0.950 . S
H1501 C1487 0.950 . S
H1502 C1489 0.950 . S
H1503 C1490 0.951 . S
C545 C360 1.567 . S
C555 C20 1.554 . S
C569 C67 1.566 . S
C579 C258 1.587 . S
C593 C543 1.527 . S
C603 C54 1.502 . S
C617 C101 1.567 . S
C627 C33 1.522 . S
C641 C88 1.567 . S
C651 C292 1.558 . S
C665 C203 1.588 . S
C675 C122 1.545 . S
C689 C462 1.510 . S
C699 C135 1.541 . S
C713 C496 1.567 . S
C723 C156 1.531 . S
C737 C190 1.523 . S
C747 C407 1.511 . S
C761 C237 1.567 . S
C771 C169 1.520 . S
C785 C428 1.564 . S
C795 C224 1.548 . S
C809 C326 1.504 . S
C819 C271 1.535 . S
C833 C530 1.585 . S
C843 C339 1.554 . S
C857 C305 1.547 . S
C867 C373 1.560 . S
C881 C394 1.579 . S
C891 C475 1.556 . S
C905 C509 1.547 . S
C915 C441 1.566 . S
C929 C9 1.142 . S
C939 C5 1.218 . S
C953 C43 1.216 . S
C963 C39 1.220 . S
C977 C77 1.207 . S
C987 C73 1.184 . S
C1001 C107 1.188 . S
C1011 C111 1.218 . S
C1025 C141 1.201 . S
C1035 C145 1.142 . S
C1049 C179 1.205 . S
C1059 C175 1.207 . S
C1073 C213 1.194 . S
C1083 C209 1.185 . S
C1097 C247 1.197 . S
C1107 C243 1.172 . S
C1121 C281 1.201 . S
C1131 C277 1.238 . S
C1145 C311 1.243 . S
C1155 C315 1.237 . S
C1169 C349 1.139 . S
C1179 C345 1.218 . S
C1193 C383 1.196 . S
C1203 C379 1.172 . S
C1217 C417 1.140 . S
C1227 C413 1.216 . S
C1241 C451 1.137 . S
C1251 C447 1.202 . S
C1265 C485 1.149 . S
C1275 C481 1.207 . S
C1289 C515 1.204 . S
C1299 C519 1.119 . S
C1313 C2 1.572 . S
C1323 C36 1.571 . S
C1337 C70 1.516 . S
C1347 C104 1.515 . S
C1361 C138 1.544 . S
C1371 C172 1.531 . S
C1385 C206 1.519 . S
C1395 C240 1.509 . S
C1409 C308 1.550 . S
C1419 C274 1.524 . S
C1433 C342 1.523 . S
C1443 C376 1.503 . S
C1457 C444 1.578 . S
C1467 C410 1.579 . S
C1481 C512 1.521 . S
C1491 C478 1.511 . S
