# Generated by pormake.
# Topology uow, (4)-cn, num edge types: 1
# Building blocks:
#     Node 0, Type 0, BuildingBlock: QUQFOY_clean_sbu_1, # of connection points: 4
#     Node 1, Type 0, BuildingBlock: QUQFOY_clean_sbu_1, # of connection points: 4
#     Node 2, Type 0, BuildingBlock: QUQFOY_clean_sbu_1, # of connection points: 4
#     Node 3, Type 0, BuildingBlock: QUQFOY_clean_sbu_1, # of connection points: 4
#     Node 4, Type 0, BuildingBlock: QUQFOY_clean_sbu_1, # of connection points: 4
#     Node 5, Type 0, BuildingBlock: QUQFOY_clean_sbu_1, # of connection points: 4
#     Node 6, Type 0, BuildingBlock: QUQFOY_clean_sbu_1, # of connection points: 4
#     Node 7, Type 0, BuildingBlock: QUQFOY_clean_sbu_1, # of connection points: 4
#     Node 8, Type 0, BuildingBlock: QUQFOY_clean_sbu_1, # of connection points: 4
#     Node 9, Type 0, BuildingBlock: QUQFOY_clean_sbu_1, # of connection points: 4
#     Node 10, Type 0, BuildingBlock: QUQFOY_clean_sbu_1, # of connection points: 4
#     Node 11, Type 0, BuildingBlock: QUQFOY_clean_sbu_1, # of connection points: 4
#     Node 12, Type 0, BuildingBlock: QUQFOY_clean_sbu_1, # of connection points: 4
#     Node 13, Type 0, BuildingBlock: QUQFOY_clean_sbu_1, # of connection points: 4
#     Node 14, Type 0, BuildingBlock: QUQFOY_clean_sbu_1, # of connection points: 4
#     Node 15, Type 0, BuildingBlock: QUQFOY_clean_sbu_1, # of connection points: 4
#     Node 16, Type 0, BuildingBlock: QUQFOY_clean_sbu_1, # of connection points: 4
#     Node 17, Type 0, BuildingBlock: QUQFOY_clean_sbu_1, # of connection points: 4
#     Node 18, Type 0, BuildingBlock: QUQFOY_clean_sbu_1, # of connection points: 4
#     Node 19, Type 0, BuildingBlock: QUQFOY_clean_sbu_1, # of connection points: 4
#     Node 20, Type 0, BuildingBlock: QUQFOY_clean_sbu_1, # of connection points: 4
#     Node 21, Type 0, BuildingBlock: QUQFOY_clean_sbu_1, # of connection points: 4
#     Node 22, Type 0, BuildingBlock: QUQFOY_clean_sbu_1, # of connection points: 4
#     Node 23, Type 0, BuildingBlock: QUQFOY_clean_sbu_1, # of connection points: 4
#     Node 24, Type 0, BuildingBlock: QUQFOY_clean_sbu_1, # of connection points: 4
#     Node 25, Type 0, BuildingBlock: QUQFOY_clean_sbu_1, # of connection points: 4
#     Node 26, Type 0, BuildingBlock: QUQFOY_clean_sbu_1, # of connection points: 4
#     Node 27, Type 0, BuildingBlock: QUQFOY_clean_sbu_1, # of connection points: 4
#     Node 28, Type 0, BuildingBlock: QUQFOY_clean_sbu_1, # of connection points: 4
#     Node 29, Type 0, BuildingBlock: QUQFOY_clean_sbu_1, # of connection points: 4
#     Node 30, Type 0, BuildingBlock: QUQFOY_clean_sbu_1, # of connection points: 4
#     Node 31, Type 0, BuildingBlock: QUQFOY_clean_sbu_1, # of connection points: 4
#     Edge 32, Type (0, 0), BuildingBlock: OJICUG_clean_linker_0, # of connection points: 2
#     Edge 33, Type (0, 0), BuildingBlock: OJICUG_clean_linker_0, # of connection points: 2
#     Edge 34, Type (0, 0), BuildingBlock: OJICUG_clean_linker_0, # of connection points: 2
#     Edge 35, Type (0, 0), BuildingBlock: OJICUG_clean_linker_0, # of connection points: 2
#     Edge 36, Type (0, 0), BuildingBlock: OJICUG_clean_linker_0, # of connection points: 2
#     Edge 37, Type (0, 0), BuildingBlock: OJICUG_clean_linker_0, # of connection points: 2
#     Edge 38, Type (0, 0), BuildingBlock: OJICUG_clean_linker_0, # of connection points: 2
#     Edge 39, Type (0, 0), BuildingBlock: OJICUG_clean_linker_0, # of connection points: 2
#     Edge 40, Type (0, 0), BuildingBlock: OJICUG_clean_linker_0, # of connection points: 2
#     Edge 41, Type (0, 0), BuildingBlock: OJICUG_clean_linker_0, # of connection points: 2
#     Edge 42, Type (0, 0), BuildingBlock: OJICUG_clean_linker_0, # of connection points: 2
#     Edge 43, Type (0, 0), BuildingBlock: OJICUG_clean_linker_0, # of connection points: 2
#     Edge 44, Type (0, 0), BuildingBlock: OJICUG_clean_linker_0, # of connection points: 2
#     Edge 45, Type (0, 0), BuildingBlock: OJICUG_clean_linker_0, # of connection points: 2
#     Edge 46, Type (0, 0), BuildingBlock: OJICUG_clean_linker_0, # of connection points: 2
#     Edge 47, Type (0, 0), BuildingBlock: OJICUG_clean_linker_0, # of connection points: 2
#     Edge 48, Type (0, 0), BuildingBlock: OJICUG_clean_linker_0, # of connection points: 2
#     Edge 49, Type (0, 0), BuildingBlock: OJICUG_clean_linker_0, # of connection points: 2
#     Edge 50, Type (0, 0), BuildingBlock: OJICUG_clean_linker_0, # of connection points: 2
#     Edge 51, Type (0, 0), BuildingBlock: OJICUG_clean_linker_0, # of connection points: 2
#     Edge 52, Type (0, 0), BuildingBlock: OJICUG_clean_linker_0, # of connection points: 2
#     Edge 53, Type (0, 0), BuildingBlock: OJICUG_clean_linker_0, # of connection points: 2
#     Edge 54, Type (0, 0), BuildingBlock: OJICUG_clean_linker_0, # of connection points: 2
#     Edge 55, Type (0, 0), BuildingBlock: OJICUG_clean_linker_0, # of connection points: 2
#     Edge 56, Type (0, 0), BuildingBlock: OJICUG_clean_linker_0, # of connection points: 2
#     Edge 57, Type (0, 0), BuildingBlock: OJICUG_clean_linker_0, # of connection points: 2
#     Edge 58, Type (0, 0), BuildingBlock: OJICUG_clean_linker_0, # of connection points: 2
#     Edge 59, Type (0, 0), BuildingBlock: OJICUG_clean_linker_0, # of connection points: 2
#     Edge 60, Type (0, 0), BuildingBlock: OJICUG_clean_linker_0, # of connection points: 2
#     Edge 61, Type (0, 0), BuildingBlock: OJICUG_clean_linker_0, # of connection points: 2
#     Edge 62, Type (0, 0), BuildingBlock: OJICUG_clean_linker_0, # of connection points: 2
#     Edge 63, Type (0, 0), BuildingBlock: OJICUG_clean_linker_0, # of connection points: 2
#     Edge 64, Type (0, 0), BuildingBlock: OJICUG_clean_linker_0, # of connection points: 2
#     Edge 65, Type (0, 0), BuildingBlock: OJICUG_clean_linker_0, # of connection points: 2
#     Edge 66, Type (0, 0), BuildingBlock: OJICUG_clean_linker_0, # of connection points: 2
#     Edge 67, Type (0, 0), BuildingBlock: OJICUG_clean_linker_0, # of connection points: 2
#     Edge 68, Type (0, 0), BuildingBlock: OJICUG_clean_linker_0, # of connection points: 2
#     Edge 69, Type (0, 0), BuildingBlock: OJICUG_clean_linker_0, # of connection points: 2
#     Edge 70, Type (0, 0), BuildingBlock: OJICUG_clean_linker_0, # of connection points: 2
#     Edge 71, Type (0, 0), BuildingBlock: OJICUG_clean_linker_0, # of connection points: 2
#     Edge 72, Type (0, 0), BuildingBlock: OJICUG_clean_linker_0, # of connection points: 2
#     Edge 73, Type (0, 0), BuildingBlock: OJICUG_clean_linker_0, # of connection points: 2
#     Edge 74, Type (0, 0), BuildingBlock: OJICUG_clean_linker_0, # of connection points: 2
#     Edge 75, Type (0, 0), BuildingBlock: OJICUG_clean_linker_0, # of connection points: 2
#     Edge 76, Type (0, 0), BuildingBlock: OJICUG_clean_linker_0, # of connection points: 2
#     Edge 77, Type (0, 0), BuildingBlock: OJICUG_clean_linker_0, # of connection points: 2
#     Edge 78, Type (0, 0), BuildingBlock: OJICUG_clean_linker_0, # of connection points: 2
#     Edge 79, Type (0, 0), BuildingBlock: OJICUG_clean_linker_0, # of connection points: 2
#     Edge 80, Type (0, 0), BuildingBlock: OJICUG_clean_linker_0, # of connection points: 2
#     Edge 81, Type (0, 0), BuildingBlock: OJICUG_clean_linker_0, # of connection points: 2
#     Edge 82, Type (0, 0), BuildingBlock: OJICUG_clean_linker_0, # of connection points: 2
#     Edge 83, Type (0, 0), BuildingBlock: OJICUG_clean_linker_0, # of connection points: 2
#     Edge 84, Type (0, 0), BuildingBlock: OJICUG_clean_linker_0, # of connection points: 2
#     Edge 85, Type (0, 0), BuildingBlock: OJICUG_clean_linker_0, # of connection points: 2
#     Edge 86, Type (0, 0), BuildingBlock: OJICUG_clean_linker_0, # of connection points: 2
#     Edge 87, Type (0, 0), BuildingBlock: OJICUG_clean_linker_0, # of connection points: 2
#     Edge 88, Type (0, 0), BuildingBlock: OJICUG_clean_linker_0, # of connection points: 2
#     Edge 89, Type (0, 0), BuildingBlock: OJICUG_clean_linker_0, # of connection points: 2
#     Edge 90, Type (0, 0), BuildingBlock: OJICUG_clean_linker_0, # of connection points: 2
#     Edge 91, Type (0, 0), BuildingBlock: OJICUG_clean_linker_0, # of connection points: 2
#     Edge 92, Type (0, 0), BuildingBlock: OJICUG_clean_linker_0, # of connection points: 2
#     Edge 93, Type (0, 0), BuildingBlock: OJICUG_clean_linker_0, # of connection points: 2
#     Edge 94, Type (0, 0), BuildingBlock: OJICUG_clean_linker_0, # of connection points: 2
#     Edge 95, Type (0, 0), BuildingBlock: OJICUG_clean_linker_0, # of connection points: 2
# Relax obj value: 0.144
# Max RMSD: 0.131
# Mean RMSD: 0.131
data_MOF--net-uow--node1-QUQFOY_clean_sbu_1--edge1-OJICUG_clean_linker_0
_symmetry_space_group_name_H-M    P1
_symmetry_Int_Tables_number       1
_symmetry_cell_setting            triclinic
loop_
_symmetry_equiv_pos_as_xyz
'x, y, z'
_cell_length_a     46.927459
_cell_length_b     46.943741
_cell_length_c     32.838603
_cell_angle_alpha  90.001083
_cell_angle_beta   90.001993
_cell_angle_gamma 90.006204
loop_
_atom_site_label
_atom_site_type_symbol
_atom_site_fract_x
_atom_site_fract_y
_atom_site_fract_z
_atom_type_partial_charge
O0 O 0.02892 0.40875 0.34531 0.0
Cd1 Cd 0.07073 0.41559 0.32905 0.0
Cd2 Cd 0.06054 0.37185 0.27736 0.0
O3 O 0.0187 0.37775 0.29697 0.0
O4 O 0.0799 0.45699 0.33582 0.0
O5 O 0.07851 0.43529 0.27597 0.0
C6 C 0.0817 0.45855 0.2966 0.0
C7 C 0.07138 0.36014 0.20966 0.0
C8 C 1.01103 0.39271 0.32743 0.0
C9 C 0.102 0.36265 0.34771 0.0
O10 O 0.08793 0.35257 0.31795 0.0
O11 O 0.0997 0.38876 0.3576 0.0
O12 O 0.05773 0.34281 0.23296 0.0
O13 O 0.07762 0.38497 0.22403 0.0
O14 O 0.86808 0.77873 0.59553 0.0
Cd15 Cd 0.86124 0.82052 0.57925 0.0
Cd16 Cd 0.90501 0.81035 0.52761 0.0
O17 O 0.89912 0.76852 0.54721 0.0
O18 O 0.81981 0.82967 0.58592 0.0
O19 O 0.84159 0.82828 0.52612 0.0
C20 C 0.8183 0.83146 0.54669 0.0
C21 C 0.91673 0.8212 0.45991 0.0
C22 C 0.88414 0.76085 0.57766 0.0
C23 C 0.91418 0.85179 0.59796 0.0
O24 O 0.92428 0.83773 0.56821 0.0
O25 O 0.88806 0.84949 0.60782 0.0
O26 O 0.93407 0.80755 0.48321 0.0
O27 O 0.89189 0.82741 0.47427 0.0
O28 O 0.49808 0.61786 0.84536 0.0
Cd29 Cd 0.45627 0.61101 0.82909 0.0
Cd30 Cd 0.46645 0.65476 0.77742 0.0
O31 O 0.50829 0.64888 0.79704 0.0
O32 O 0.44711 0.5696 0.83582 0.0
O33 O 0.4485 0.59133 0.77598 0.0
C34 C 0.44532 0.56806 0.7966 0.0
C35 C 0.45561 0.66649 0.70973 0.0
C36 C 0.51597 0.63391 0.82749 0.0
C37 C 0.42499 0.66394 0.84777 0.0
O38 O 0.43906 0.67402 0.81802 0.0
O39 O 0.4273 0.63783 0.85764 0.0
O40 O 0.46926 0.68382 0.73304 0.0
O41 O 0.44939 0.64165 0.72408 0.0
O42 O 0.65887 0.24791 0.09537 0.0
Cd43 Cd 0.6657 0.20612 0.07908 0.0
Cd44 Cd 0.62193 0.2163 0.02744 0.0
O45 O 0.62782 0.25813 0.04706 0.0
O46 O 0.70713 0.19695 0.08577 0.0
O47 O 0.68536 0.19835 0.02596 0.0
C48 C 0.70864 0.19516 0.04654 0.0
C49 C 0.61023 0.20545 0.95974 0.0
C50 C 0.64281 0.26579 0.07751 0.0
C51 C 0.61275 0.17484 0.09778 0.0
O52 O 0.60266 0.18891 0.06803 0.0
O53 O 0.63887 0.17715 0.10764 0.0
O54 O 0.59289 0.21909 0.98303 0.0
O55 O 0.63507 0.19923 0.97412 0.0
O56 O 0.02901 0.61791 0.1666 0.0
Cd57 Cd 0.07081 0.61107 0.18292 0.0
Cd58 Cd 0.06059 0.6548 0.23459 0.0
O59 O 0.01876 0.6489 0.21494 0.0
O60 O 0.07998 0.56966 0.17616 0.0
O61 O 0.07855 0.59137 0.23601 0.0
C62 C 0.08175 0.56811 0.21538 0.0
C63 C 0.07142 0.66649 0.3023 0.0
C64 C 1.01111 0.63394 0.18447 0.0
C65 C 0.10209 0.66401 0.1643 0.0
O66 O 0.088 0.67409 0.19403 0.0
O67 O 0.0998 0.6379 0.15442 0.0
O68 O 0.05777 0.68382 0.27901 0.0
O69 O 0.07765 0.64166 0.28792 0.0
O70 O 0.65899 0.7788 0.41632 0.0
Cd71 Cd 0.66585 0.82058 0.43264 0.0
Cd72 Cd 0.62208 0.81039 0.48428 0.0
O73 O 0.62796 0.76857 0.46465 0.0
O74 O 0.70728 0.82974 0.42598 0.0
O75 O 0.6855 0.82831 0.48578 0.0
C76 C 0.70879 0.8315 0.46521 0.0
C77 C 0.61036 0.82122 0.55198 0.0
C78 C 0.64293 0.76091 0.43418 0.0
C79 C 0.61292 0.85188 0.41398 0.0
O80 O 0.60282 0.8378 0.44371 0.0
O81 O 0.63904 0.84957 0.40411 0.0
O82 O 0.59302 0.80759 0.52867 0.0
O83 O 0.6352 0.82744 0.53763 0.0
O84 O 0.49798 0.40872 0.66649 0.0
Cd85 Cd 0.45619 0.41556 0.68281 0.0
Cd86 Cd 0.46639 0.37182 0.73446 0.0
O87 O 0.50822 0.37771 0.71482 0.0
O88 O 0.44703 0.45698 0.67608 0.0
O89 O 0.44845 0.43525 0.73592 0.0
C90 C 0.44527 0.45852 0.7153 0.0
C91 C 0.45556 0.36011 0.80216 0.0
C92 C 0.51588 0.39268 0.68435 0.0
C93 C 0.4249 0.36264 0.66415 0.0
O94 O 0.43898 0.35255 0.69388 0.0
O95 O 0.42719 0.38875 0.65428 0.0
O96 O 0.4692 0.34278 0.77886 0.0
O97 O 0.44933 0.38494 0.7878 0.0
O98 O 0.86797 0.24776 0.91623 0.0
Cd99 Cd 0.86111 0.20598 0.93255 0.0
Cd100 Cd 0.90487 0.21618 0.98421 0.0
O101 O 0.89898 0.258 0.96457 0.0
O102 O 0.81968 0.19684 0.92587 0.0
O103 O 0.84145 0.19826 0.98568 0.0
C104 C 0.81816 0.19507 0.9651 0.0
C105 C 0.91659 0.20535 0.05191 0.0
C106 C 0.88402 0.26566 0.9341 0.0
C107 C 0.91404 0.1747 0.9139 0.0
O108 O 0.92414 0.18878 0.94363 0.0
O109 O 0.88792 0.17699 0.90403 0.0
O110 O 0.93393 0.21899 0.0286 0.0
O111 O 0.89174 0.19913 0.03755 0.0
O112 O 0.99805 0.61782 0.66655 0.0
Cd113 Cd 0.95624 0.61099 0.68281 0.0
Cd114 Cd 0.96644 0.65472 0.7345 0.0
O115 O 1.00828 0.64883 0.71489 0.0
O116 O 0.94707 0.56958 0.67605 0.0
O117 O 0.94847 0.59129 0.7359 0.0
C118 C 0.94527 0.56803 0.71527 0.0
C119 C 0.95561 0.66644 0.8022 0.0
C120 C 0.01595 0.63386 0.68443 0.0
C121 C 0.92498 0.66393 0.66416 0.0
O122 O 0.93905 0.674 0.69391 0.0
O123 O 0.92728 0.63782 0.65427 0.0
O124 O 0.96926 0.68376 0.7789 0.0
O125 O 0.94937 0.64161 0.78784 0.0
O126 O 0.15887 0.24784 0.41637 0.0
Cd127 Cd 0.1657 0.20606 0.43267 0.0
Cd128 Cd 0.12194 0.21624 0.48431 0.0
O129 O 0.12784 0.25807 0.46469 0.0
O130 O 0.20713 0.1969 0.42597 0.0
O131 O 0.18537 0.19831 0.48579 0.0
C132 C 0.20866 0.19512 0.4652 0.0
C133 C 0.11024 0.20539 0.55201 0.0
C134 C 0.14282 0.26573 0.43424 0.0
C135 C 0.11276 0.17478 0.41398 0.0
O136 O 0.10267 0.18885 0.44372 0.0
O137 O 0.13888 0.17708 0.40412 0.0
O138 O 0.0929 0.21904 0.52872 0.0
O139 O 0.13508 0.19917 0.53764 0.0
O140 O 0.52891 0.40878 0.16644 0.0
Cd141 Cd 0.57071 0.41563 0.18272 0.0
Cd142 Cd 0.56053 0.37189 0.23439 0.0
O143 O 0.51869 0.37777 0.21477 0.0
O144 O 0.57987 0.45705 0.17598 0.0
O145 O 0.57848 0.43532 0.23582 0.0
C146 C 0.58166 0.45859 0.2152 0.0
C147 C 0.57137 0.36016 0.30208 0.0
C148 C 0.51102 0.39273 0.18432 0.0
C149 C 0.60199 0.36271 0.16404 0.0
O150 O 0.58793 0.35262 0.19379 0.0
O151 O 0.59969 0.38882 0.15417 0.0
O152 O 0.55772 0.34283 0.27877 0.0
O153 O 0.5776 0.385 0.28773 0.0
O154 O 0.3681 0.77873 0.91644 0.0
Cd155 Cd 0.36127 0.82052 0.93274 0.0
Cd156 Cd 0.40504 0.81034 0.98436 0.0
O157 O 0.39915 0.76851 0.96475 0.0
O158 O 0.31983 0.82968 0.92607 0.0
O159 O 0.34162 0.82827 0.98587 0.0
C160 C 0.31833 0.83146 0.9653 0.0
C161 C 0.41675 0.82119 0.05206 0.0
C162 C 0.38416 0.76085 0.9343 0.0
C163 C 0.4142 0.8518 0.91403 0.0
O164 O 0.4243 0.83773 0.94377 0.0
O165 O 0.38808 0.84949 0.90417 0.0
O166 O 0.43409 0.80755 0.02877 0.0
O167 O 0.39191 0.82741 0.03769 0.0
O168 O 0.99795 0.40868 0.84527 0.0
Cd169 Cd 0.95615 0.41551 0.82896 0.0
Cd170 Cd 0.96636 0.37178 0.77729 0.0
O171 O 1.0082 0.37768 0.79692 0.0
O172 O 0.94699 0.45692 0.83572 0.0
O173 O 0.94841 0.43521 0.77587 0.0
C174 C 0.94522 0.45847 0.79649 0.0
C175 C 0.95553 0.36009 0.70958 0.0
C176 C 0.01585 0.39264 0.8274 0.0
C177 C 0.92488 0.36257 0.84759 0.0
O178 O 0.93896 0.3525 0.81785 0.0
O179 O 0.92717 0.38868 0.85747 0.0
O180 O 0.96918 0.34276 0.73287 0.0
O181 O 0.9493 0.38492 0.72396 0.0
O182 O 0.36798 0.24784 0.59548 0.0
Cd183 Cd 0.36114 0.20605 0.57916 0.0
Cd184 Cd 0.40489 0.21625 0.52751 0.0
O185 O 0.39901 0.25807 0.54715 0.0
O186 O 0.31971 0.19689 0.58585 0.0
O187 O 0.34147 0.19832 0.52603 0.0
C188 C 0.31818 0.19512 0.54662 0.0
C189 C 0.4166 0.20542 0.45981 0.0
C190 C 0.38404 0.26573 0.57762 0.0
C191 C 0.41407 0.17477 0.59781 0.0
O192 O 0.42416 0.18885 0.56808 0.0
O193 O 0.38796 0.17707 0.60769 0.0
O194 O 0.43394 0.21906 0.48311 0.0
O195 O 0.39176 0.1992 0.47417 0.0
O196 O 0.52897 0.61793 0.3453 0.0
Cd197 Cd 0.57077 0.61109 0.32899 0.0
Cd198 Cd 0.56057 0.65484 0.27734 0.0
O199 O 0.51873 0.64895 0.29698 0.0
O200 O 0.57992 0.56967 0.33572 0.0
O201 O 0.5785 0.5914 0.27588 0.0
C202 C 0.58169 0.56813 0.29649 0.0
C203 C 0.5714 0.66654 0.20964 0.0
C204 C 0.51107 0.63398 0.32744 0.0
C205 C 0.60206 0.66401 0.34765 0.0
O206 O 0.58798 0.6741 0.31792 0.0
O207 O 0.59976 0.6379 0.35751 0.0
O208 O 0.55776 0.68388 0.23294 0.0
O209 O 0.57763 0.64171 0.22401 0.0
O210 O 0.15903 0.77882 0.09569 0.0
Cd211 Cd 0.16589 0.8206 0.07937 0.0
Cd212 Cd 0.12212 0.81041 0.02772 0.0
O213 O 0.12801 0.76859 0.04735 0.0
O214 O 0.20732 0.82975 0.08603 0.0
O215 O 0.18554 0.82832 0.02623 0.0
C216 C 0.20883 0.83151 0.0468 0.0
C217 C 0.11039 0.82123 0.96002 0.0
C218 C 0.14298 0.76093 0.07782 0.0
C219 C 0.11296 0.85189 0.09804 0.0
O220 O 0.10286 0.83781 0.0683 0.0
O221 O 0.13908 0.84958 0.10791 0.0
O222 O 0.09306 0.8076 0.98334 0.0
O223 O 0.13524 0.82746 0.97437 0.0
O224 O 0.529 0.90872 0.84531 0.0
Cd225 Cd 0.5708 0.91558 0.829 0.0
Cd226 Cd 0.5606 0.87183 0.77735 0.0
O227 O 0.51876 0.87771 0.79699 0.0
O228 O 0.57995 0.957 0.83572 0.0
O229 O 0.57853 0.93527 0.77589 0.0
C230 C 0.58172 0.95854 0.7965 0.0
C231 C 0.57143 0.86013 0.70965 0.0
C232 C 0.5111 0.89267 0.82745 0.0
C233 C 0.60209 0.86266 0.84766 0.0
O234 O 0.58801 0.85257 0.81793 0.0
O235 O 0.59979 0.88877 0.85752 0.0
O236 O 0.55779 0.84279 0.73295 0.0
O237 O 0.57766 0.88496 0.72401 0.0
O238 O 0.36798 0.27877 0.09547 0.0
Cd239 Cd 0.36114 0.32056 0.07916 0.0
Cd240 Cd 0.40491 0.31036 0.02752 0.0
O241 O 0.39901 0.26854 0.04715 0.0
O242 O 0.31971 0.32971 0.08584 0.0
O243 O 0.34148 0.32829 0.02603 0.0
C244 C 0.31819 0.33149 0.04661 0.0
C245 C 0.41663 0.3212 0.95982 0.0
C246 C 0.38403 0.26088 0.0776 0.0
C247 C 0.41408 0.35184 0.09783 0.0
O248 O 0.42417 0.33776 0.0681 0.0
O249 O 0.38796 0.34954 0.10769 0.0
O250 O 0.43396 0.30756 0.98312 0.0
O251 O 0.39178 0.32742 0.97418 0.0
O252 O 0.99793 0.11791 0.34529 0.0
Cd253 Cd 0.95613 0.11106 0.32898 0.0
Cd254 Cd 0.96634 0.15479 0.2773 0.0
O255 O 1.00818 0.1489 0.29694 0.0
O256 O 0.94697 0.06965 0.33574 0.0
O257 O 0.9484 0.09135 0.27588 0.0
C258 C 0.94521 0.06809 0.29651 0.0
C259 C 0.95551 0.16648 0.20959 0.0
C260 C 0.01583 0.13394 0.32742 0.0
C261 C 0.92485 0.16399 0.3476 0.0
O262 O 0.93894 0.17407 0.31786 0.0
O263 O 0.92714 0.13788 0.35748 0.0
O264 O 0.96916 0.18381 0.23288 0.0
O265 O 0.94928 0.14165 0.22397 0.0
O266 O 0.15899 0.74778 0.59566 0.0
Cd267 Cd 0.16584 0.706 0.57933 0.0
Cd268 Cd 0.12208 0.7162 0.52768 0.0
O269 O 0.12797 0.75802 0.54733 0.0
O270 O 0.20728 0.69685 0.58599 0.0
O271 O 0.1855 0.69828 0.52619 0.0
C272 C 0.20879 0.69509 0.54676 0.0
C273 C 0.11036 0.70537 0.45998 0.0
C274 C 0.14294 0.76567 0.5778 0.0
C275 C 0.11291 0.67471 0.59798 0.0
O276 O 0.10281 0.68879 0.56825 0.0
O277 O 0.13903 0.67701 0.60785 0.0
O278 O 0.09302 0.71901 0.48329 0.0
O279 O 0.1352 0.69915 0.47433 0.0
O280 O 0.5289 0.11786 0.66642 0.0
Cd281 Cd 0.57071 0.11102 0.6827 0.0
Cd282 Cd 0.56052 0.15477 0.73437 0.0
O283 O 0.51868 0.14887 0.71476 0.0
O284 O 0.57987 0.06961 0.67597 0.0
O285 O 0.57847 0.09134 0.73581 0.0
C286 C 0.58166 0.06807 0.7152 0.0
C287 C 0.57135 0.1665 0.80207 0.0
C288 C 0.51101 0.1339 0.6843 0.0
C289 C 0.60199 0.16395 0.66403 0.0
O290 O 0.58792 0.17404 0.69378 0.0
O291 O 0.59968 0.13785 0.65416 0.0
O292 O 0.55771 0.18382 0.77876 0.0
O293 O 0.57758 0.14166 0.78772 0.0
O294 O 0.15888 0.27876 0.91634 0.0
Cd295 Cd 0.16572 0.32055 0.93263 0.0
Cd296 Cd 0.12197 0.31037 0.98428 0.0
O297 O 0.12785 0.26855 0.96467 0.0
O298 O 0.20716 0.32971 0.92594 0.0
O299 O 0.18539 0.3283 0.98575 0.0
C300 C 0.20868 0.33149 0.96517 0.0
C301 C 0.11026 0.32122 0.05198 0.0
C302 C 0.14282 0.26088 0.93421 0.0
C303 C 0.11279 0.35183 0.91395 0.0
O304 O 0.1027 0.33776 0.94369 0.0
O305 O 0.13891 0.34952 0.90408 0.0
O306 O 0.09292 0.30758 0.02869 0.0
O307 O 0.1351 0.32744 0.03761 0.0
O308 O 0.99811 0.90875 0.16661 0.0
Cd309 Cd 0.95629 0.91556 0.18286 0.0
Cd310 Cd 0.96649 0.87183 0.23455 0.0
O311 O 1.00833 0.87774 0.21495 0.0
O312 O 0.94712 0.95697 0.17609 0.0
O313 O 0.9485 0.93526 0.23595 0.0
C314 C 0.94531 0.95852 0.21531 0.0
C315 C 0.95564 0.86012 0.30225 0.0
C316 C 0.016 0.89271 0.1845 0.0
C317 C 0.92504 0.86262 0.1642 0.0
O318 O 0.9391 0.85255 0.19396 0.0
O319 O 0.92734 0.88872 0.15431 0.0
O320 O 0.9693 0.84279 0.27895 0.0
O321 O 0.94941 0.88495 0.28788 0.0
O322 O 0.36808 0.74789 0.41644 0.0
Cd323 Cd 0.36124 0.70611 0.43274 0.0
Cd324 Cd 0.40501 0.71628 0.48437 0.0
O325 O 0.39913 0.75811 0.46475 0.0
O326 O 0.31981 0.69695 0.42606 0.0
O327 O 0.34159 0.69835 0.48587 0.0
C328 C 0.31829 0.69516 0.46529 0.0
C329 C 0.41672 0.70543 0.55207 0.0
C330 C 0.38415 0.76578 0.4343 0.0
C331 C 0.41417 0.67483 0.41403 0.0
O332 O 0.42427 0.68889 0.44377 0.0
O333 O 0.38805 0.67713 0.40417 0.0
O334 O 0.43407 0.71908 0.52877 0.0
O335 O 0.39188 0.69922 0.5377 0.0
O336 O 0.49795 0.11791 0.16647 0.0
Cd337 Cd 0.45616 0.11105 0.18279 0.0
Cd338 Cd 0.46635 0.1548 0.23444 0.0
O339 O 0.50819 0.14892 0.21481 0.0
O340 O 0.44701 0.06964 0.17606 0.0
O341 O 0.44843 0.09137 0.2359 0.0
C342 C 0.44524 0.06809 0.21529 0.0
C343 C 0.45552 0.16651 0.30214 0.0
C344 C 0.51585 0.13396 0.18434 0.0
C345 C 0.42486 0.16397 0.16413 0.0
O346 O 0.43894 0.17406 0.19386 0.0
O347 O 0.42716 0.13786 0.15426 0.0
O348 O 0.46916 0.18385 0.27884 0.0
O349 O 0.44929 0.14168 0.28778 0.0
O350 O 0.659 0.74788 0.91634 0.0
Cd351 Cd 0.66584 0.70609 0.93265 0.0
Cd352 Cd 0.62207 0.71629 0.98429 0.0
O353 O 0.62796 0.75811 0.96465 0.0
O354 O 0.70727 0.69693 0.92598 0.0
O355 O 0.6855 0.69835 0.98579 0.0
C356 C 0.70878 0.69516 0.96521 0.0
C357 C 0.61035 0.70546 0.05199 0.0
C358 C 0.64294 0.76577 0.9342 0.0
C359 C 0.6129 0.67481 0.91398 0.0
O360 O 0.6028 0.68888 0.94371 0.0
O361 O 0.63902 0.67711 0.90412 0.0
O362 O 0.59301 0.7191 0.02868 0.0
O363 O 0.63519 0.69924 0.03764 0.0
O364 O 0.02901 0.90866 0.66666 0.0
Cd365 Cd 0.07081 0.9155 0.68297 0.0
Cd366 Cd 0.0606 0.87177 0.73464 0.0
O367 O 0.01876 0.87766 0.715 0.0
O368 O 0.07997 0.95691 0.6762 0.0
O369 O 0.07855 0.93521 0.73606 0.0
C370 C 0.08174 0.95847 0.71543 0.0
C371 C 0.07144 0.86009 0.80234 0.0
C372 C 1.01111 0.89262 0.68453 0.0
C373 C 0.10208 0.86257 0.66433 0.0
O374 O 0.088 0.85249 0.69407 0.0
O375 O 0.09979 0.88868 0.65446 0.0
O376 O 0.05779 0.84275 0.77906 0.0
O377 O 0.07767 0.88492 0.78796 0.0
O378 O 0.86796 0.2788 0.41622 0.0
Cd379 Cd 0.86112 0.32059 0.43253 0.0
Cd380 Cd 0.90488 0.31039 0.48419 0.0
O381 O 0.89898 0.26857 0.46456 0.0
O382 O 0.81969 0.32975 0.42585 0.0
O383 O 0.84147 0.32832 0.48566 0.0
C384 C 0.81818 0.33152 0.46508 0.0
C385 C 0.9166 0.32122 0.55189 0.0
C386 C 0.88401 0.26091 0.43409 0.0
C387 C 0.91407 0.35187 0.41388 0.0
O388 O 0.92415 0.33779 0.44362 0.0
O389 O 0.88795 0.34957 0.404 0.0
O390 O 0.93393 0.30758 0.52859 0.0
O391 O 0.89176 0.32744 0.53754 0.0
O392 O 0.49809 0.90879 0.34537 0.0
Cd393 Cd 0.45628 0.91562 0.32909 0.0
Cd394 Cd 0.46647 0.87187 0.27743 0.0
O395 O 0.50831 0.87776 0.29704 0.0
O396 O 0.44712 0.95703 0.33582 0.0
O397 O 0.44851 0.9353 0.27599 0.0
C398 C 0.44532 0.95857 0.2966 0.0
C399 C 0.45563 0.86014 0.20973 0.0
C400 C 0.51598 0.89274 0.32749 0.0
C401 C 0.425 0.86268 0.34777 0.0
O402 O 0.43907 0.8526 0.31802 0.0
O403 O 0.42731 0.88879 0.35764 0.0
O404 O 0.46928 0.84282 0.23304 0.0
O405 O 0.4494 0.88498 0.22408 0.0
O406 O 0.86811 0.74782 0.09552 0.0
Cd407 Cd 0.86125 0.70604 0.07921 0.0
Cd408 Cd 0.90502 0.71622 0.02757 0.0
O409 O 0.89914 0.75805 0.0472 0.0
O410 O 0.81982 0.69689 0.08589 0.0
O411 O 0.84159 0.6983 0.02608 0.0
C412 C 0.8183 0.69512 0.04666 0.0
C413 C 0.91672 0.70537 0.95987 0.0
C414 C 0.88417 0.76571 0.07766 0.0
C415 C 0.91418 0.67476 0.0979 0.0
O416 O 0.92428 0.68883 0.06816 0.0
O417 O 0.88806 0.67706 0.10776 0.0
O418 O 0.93407 0.71901 0.98317 0.0
O419 O 0.89188 0.69916 0.97424 0.0
O420 O 0.0289 0.11783 0.84533 0.0
Cd421 Cd 0.0707 0.111 0.82907 0.0
Cd422 Cd 0.06051 0.15473 0.77738 0.0
O423 O 0.01867 0.14883 0.79699 0.0
O424 O 0.07988 0.0696 0.83584 0.0
O425 O 0.07848 0.0913 0.77599 0.0
C426 C 0.08168 0.06804 0.79662 0.0
C427 C 0.07135 0.16645 0.70968 0.0
C428 C 1.011 0.13387 0.82744 0.0
C429 C 0.10197 0.16395 0.84772 0.0
O430 O 0.0879 0.17402 0.81796 0.0
O431 O 0.09967 0.13784 0.85761 0.0
O432 O 0.05769 0.18377 0.73298 0.0
O433 O 0.07758 0.14162 0.72404 0.0
O434 O 0.65888 0.27876 0.59538 0.0
Cd435 Cd 0.66572 0.32055 0.57909 0.0
Cd436 Cd 0.62196 0.31037 0.52745 0.0
O437 O 0.62784 0.26854 0.54706 0.0
O438 O 0.70716 0.32971 0.58577 0.0
O439 O 0.68538 0.3283 0.52596 0.0
C440 C 0.70867 0.33149 0.54654 0.0
C441 C 0.61025 0.32122 0.45975 0.0
C442 C 0.64282 0.26088 0.57752 0.0
C443 C 0.61279 0.35183 0.59778 0.0
O444 O 0.60269 0.33776 0.56804 0.0
O445 O 0.63891 0.34952 0.60764 0.0
O446 O 0.59291 0.30757 0.48304 0.0
O447 O 0.63509 0.32744 0.47412 0.0
C448 C 0.10416 0.36418 0.14952 0.0
C449 C 0.08091 0.35093 0.16876 0.0
H450 H 0.13224 0.36465 0.09792 0.0
C451 C 0.06787 0.32752 0.14968 0.0
H452 H 0.11483 0.38207 0.16371 0.0
C453 C 0.07763 0.31775 0.11197 0.0
C454 C 0.10106 0.33076 0.09289 0.0
H455 H 0.04998 0.31679 0.16381 0.0
H456 H 0.06689 0.29987 0.09784 0.0
C457 C 0.11433 0.354 0.11212 0.0
C458 C 0.92285 0.86415 0.36238 0.0
C459 C 0.94611 0.85091 0.34315 0.0
H460 H 0.89477 0.86462 0.41397 0.0
C461 C 0.95914 0.8275 0.36224 0.0
H462 H 0.91219 0.88205 0.34819 0.0
C463 C 0.94937 0.81773 0.39994 0.0
C464 C 0.92594 0.83074 0.41901 0.0
H465 H 0.97703 0.81678 0.34811 0.0
H466 H 0.96011 0.79985 0.41407 0.0
C467 C 0.91268 0.85398 0.39978 0.0
C468 C 0.42283 0.66246 0.64958 0.0
C469 C 0.44608 0.67571 0.66882 0.0
H470 H 0.39475 0.662 0.59798 0.0
C471 C 0.45912 0.69912 0.64976 0.0
H472 H 0.41217 0.64456 0.66377 0.0
C473 C 0.44935 0.7089 0.61206 0.0
C474 C 0.42593 0.69589 0.59297 0.0
H475 H 0.47701 0.70985 0.6639 0.0
H476 H 0.46009 0.72678 0.59794 0.0
C477 C 0.41266 0.67264 0.61218 0.0
C478 C 0.56784 0.19913 0.86204 0.0
C479 C 0.58088 0.17572 0.84297 0.0
H480 H 0.56686 0.22679 0.91386 0.0
C481 C 0.60413 0.16248 0.86222 0.0
H482 H 0.54996 0.20985 0.84789 0.0
C483 C 0.6143 0.17266 0.89962 0.0
C484 C 0.60103 0.1959 0.91884 0.0
H485 H 0.61479 0.14458 0.84804 0.0
H486 H 0.6322 0.16202 0.91383 0.0
C487 C 0.57761 0.20891 0.89974 0.0
C488 C 0.10422 0.66244 0.36243 0.0
C489 C 0.08096 0.67569 0.34321 0.0
H490 H 0.13231 0.66196 0.41401 0.0
C491 C 0.06793 0.69909 0.36231 0.0
H492 H 0.11488 0.64455 0.34822 0.0
C493 C 0.07771 0.70886 0.40001 0.0
C494 C 0.10114 0.69584 0.41907 0.0
H495 H 0.05004 0.70982 0.34818 0.0
H496 H 0.06697 0.72673 0.41415 0.0
C497 C 0.1144 0.67261 0.39983 0.0
C498 C 0.6144 0.854 0.61212 0.0
C499 C 0.60114 0.83076 0.59289 0.0
H500 H 0.61488 0.88207 0.66372 0.0
C501 C 0.57772 0.81774 0.61196 0.0
H502 H 0.63231 0.86465 0.59793 0.0
C503 C 0.56794 0.82751 0.64966 0.0
C504 C 0.58097 0.85092 0.66874 0.0
H505 H 0.56698 0.79986 0.59782 0.0
H506 H 0.55005 0.81678 0.66378 0.0
C507 C 0.60423 0.86417 0.64952 0.0
C508 C 0.44927 0.31772 0.89984 0.0
C509 C 0.42584 0.33073 0.91892 0.0
H510 H 0.47693 0.31676 0.84801 0.0
C511 C 0.41258 0.35398 0.89969 0.0
H512 H 0.46 0.29984 0.91397 0.0
C513 C 0.42276 0.36415 0.86229 0.0
C514 C 0.44602 0.3509 0.84306 0.0
H515 H 0.39468 0.36462 0.91388 0.0
H516 H 0.41211 0.38205 0.84809 0.0
C517 C 0.45904 0.32749 0.86214 0.0
C518 C 0.94923 0.20885 0.11189 0.0
C519 C 0.92581 0.19583 0.09281 0.0
H520 H 0.9769 0.20981 0.16371 0.0
C521 C 0.91254 0.17259 0.11205 0.0
H522 H 0.95997 0.22672 0.09774 0.0
C523 C 0.92272 0.16242 0.14946 0.0
C524 C 0.94598 0.17568 0.16868 0.0
H525 H 0.89463 0.16193 0.09787 0.0
H526 H 0.91206 0.14453 0.16366 0.0
C527 C 0.95901 0.19908 0.14959 0.0
C528 C 0.95912 0.69906 0.86218 0.0
C529 C 0.94608 0.67565 0.84311 0.0
H530 H 0.9601 0.72672 0.91401 0.0
C531 C 0.92282 0.66241 0.86234 0.0
H532 H 0.97701 0.70978 0.84805 0.0
C533 C 0.91266 0.67259 0.89975 0.0
C534 C 0.92593 0.69583 0.91897 0.0
H535 H 0.91215 0.64452 0.84815 0.0
H536 H 0.89475 0.66195 0.91394 0.0
C537 C 0.94935 0.70884 0.89988 0.0
C538 C 0.1143 0.17261 0.61213 0.0
C539 C 0.10103 0.19585 0.59291 0.0
H540 H 0.11479 0.14453 0.66372 0.0
C541 C 0.07761 0.20886 0.612 0.0
H542 H 0.13221 0.16196 0.59794 0.0
C543 C 0.06784 0.19908 0.6497 0.0
C544 C 0.08088 0.17567 0.66877 0.0
H545 H 0.06687 0.22673 0.59787 0.0
H546 H 0.04995 0.2098 0.66384 0.0
C547 C 0.10413 0.16243 0.64953 0.0
C548 C 0.57762 0.31775 0.39975 0.0
C549 C 0.60105 0.33076 0.41885 0.0
H550 H 0.54997 0.3168 0.34791 0.0
C551 C 0.61431 0.35401 0.39963 0.0
H552 H 0.56688 0.29987 0.41388 0.0
C553 C 0.60415 0.36419 0.36223 0.0
C554 C 0.5809 0.35094 0.34299 0.0
H555 H 0.63222 0.36466 0.41384 0.0
H556 H 0.61481 0.38209 0.34805 0.0
C557 C 0.56786 0.32753 0.36205 0.0
C558 C 0.42285 0.86416 0.14958 0.0
C559 C 0.4461 0.85092 0.16883 0.0
H560 H 0.39478 0.86463 0.09798 0.0
C561 C 0.45914 0.82751 0.14976 0.0
H562 H 0.41219 0.88206 0.16377 0.0
C563 C 0.44938 0.81773 0.11206 0.0
C564 C 0.42595 0.83074 0.09296 0.0
H565 H 0.47703 0.81679 0.1639 0.0
H566 H 0.46012 0.79985 0.09793 0.0
C567 C 0.41268 0.85398 0.11218 0.0
C568 C 0.95902 0.32749 0.64957 0.0
C569 C 0.94599 0.35089 0.66867 0.0
H570 H 0.95998 0.29985 0.59773 0.0
C571 C 0.92274 0.36415 0.64945 0.0
H572 H 0.97691 0.31676 0.6637 0.0
C573 C 0.91256 0.35398 0.61204 0.0
C574 C 0.92582 0.33074 0.5928 0.0
H575 H 0.91208 0.38204 0.66365 0.0
H576 H 0.89465 0.36464 0.59786 0.0
C577 C 0.94924 0.31772 0.61187 0.0
C578 C 0.45901 0.19914 0.36212 0.0
C579 C 0.44598 0.17573 0.34304 0.0
H580 H 0.45997 0.22679 0.41395 0.0
C581 C 0.42273 0.16247 0.36227 0.0
H582 H 0.4769 0.20987 0.34799 0.0
C583 C 0.41255 0.17264 0.39968 0.0
C584 C 0.42582 0.19589 0.4189 0.0
H585 H 0.41207 0.14457 0.34808 0.0
H586 H 0.39465 0.16199 0.41387 0.0
C587 C 0.44924 0.20891 0.39982 0.0
C588 C 0.56792 0.69917 0.14966 0.0
C589 C 0.58094 0.67575 0.16874 0.0
H590 H 0.56697 0.72682 0.09783 0.0
C591 C 0.6042 0.6625 0.14952 0.0
H592 H 0.55003 0.70989 0.16379 0.0
C593 C 0.61438 0.67268 0.11212 0.0
C594 C 0.60112 0.69592 0.09289 0.0
H595 H 0.61486 0.6446 0.16371 0.0
H596 H 0.63229 0.66203 0.09793 0.0
C597 C 0.5777 0.70894 0.11196 0.0
C598 C 0.06795 0.82749 0.86236 0.0
C599 C 0.08098 0.8509 0.84325 0.0
H600 H 0.067 0.79986 0.91421 0.0
C601 C 0.10424 0.86415 0.86246 0.0
H602 H 0.05006 0.81676 0.84824 0.0
C603 C 0.11443 0.85399 0.89987 0.0
C604 C 0.10117 0.83076 0.91912 0.0
H605 H 0.1149 0.88205 0.84825 0.0
H606 H 0.13234 0.86465 0.91404 0.0
C607 C 0.07774 0.81773 0.90006 0.0
C608 C 0.11322 0.33972 0.41445 0.0
C609 C 0.11868 0.34253 0.3726 0.0
H610 H 0.11648 0.31285 0.46718 0.0
C611 C 0.13579 0.32219 0.35312 0.0
H612 H 0.09972 0.35498 0.42997 0.0
C613 C 0.1458 0.29847 0.37439 0.0
C614 C 0.13816 0.29411 0.41536 0.0
H615 H 0.14011 0.32385 0.32078 0.0
H616 H 0.15772 0.2825 0.35775 0.0
C617 C 0.12265 0.31552 0.43562 0.0
C618 C 0.9371 0.86302 0.66471 0.0
C619 C 0.9343 0.86848 0.62285 0.0
H620 H 0.96397 0.86628 0.71744 0.0
C621 C 0.95464 0.8856 0.60339 0.0
H622 H 0.92184 0.84951 0.68021 0.0
C623 C 0.97836 0.89561 0.62467 0.0
C624 C 0.98272 0.88796 0.66564 0.0
H625 H 0.95298 0.88992 0.57105 0.0
H626 H 0.99434 0.90754 0.60804 0.0
C627 C 0.96131 0.87245 0.68589 0.0
C628 C 0.40434 0.71107 0.93568 0.0
C629 C 0.38882 0.73247 0.91542 0.0
H630 H 0.42727 0.67161 0.93003 0.0
C631 C 0.38117 0.7281 0.87445 0.0
H632 H 0.4105 0.71373 0.96723 0.0
C633 C 0.39118 0.70438 0.85318 0.0
C634 C 0.4083 0.68405 0.87266 0.0
H635 H 0.36924 0.74407 0.85782 0.0
H636 H 0.38686 0.70272 0.82085 0.0
C637 C 0.41376 0.68686 0.91451 0.0
C638 C 0.5723 0.14104 0.10318 0.0
C639 C 0.59264 0.15815 0.12266 0.0
H640 H 0.5326 0.1191 0.10782 0.0
C641 C 0.58984 0.16359 0.16453 0.0
H642 H 0.57395 0.13674 0.07084 0.0
C643 C 0.56564 0.15414 0.1857 0.0
C644 C 0.54422 0.13864 0.16544 0.0
H645 H 0.60511 0.17708 0.18004 0.0
H646 H 0.56299 0.16029 0.21726 0.0
C647 C 0.54858 0.13101 0.12446 0.0
C648 C 0.11337 0.68694 0.09757 0.0
C649 C 0.11879 0.68413 0.13944 0.0
H650 H 0.11668 0.7138 0.04485 0.0
C651 C 0.13588 0.70448 0.15895 0.0
H652 H 0.09989 0.67167 0.08204 0.0
C653 C 0.14591 0.7282 0.13769 0.0
C654 C 0.13831 0.73255 0.0967 0.0
H655 H 0.14017 0.70283 0.19129 0.0
H656 H 0.15782 0.74417 0.15434 0.0
C657 C 0.12281 0.71114 0.07642 0.0
C658 C 0.56578 0.87257 0.32609 0.0
C659 C 0.54437 0.88808 0.34636 0.0
H660 H 0.60524 0.84963 0.33171 0.0
C661 C 0.54874 0.89571 0.38733 0.0
H662 H 0.5631 0.86642 0.29453 0.0
C663 C 0.57248 0.88569 0.4086 0.0
C664 C 0.59281 0.86857 0.3891 0.0
H665 H 0.53278 0.90763 0.40398 0.0
H666 H 0.57414 0.88999 0.44093 0.0
C667 C 0.58999 0.86313 0.34724 0.0
C668 C 0.38108 0.29846 0.63748 0.0
C669 C 0.3887 0.2941 0.5965 0.0
H670 H 0.38679 0.32383 0.6911 0.0
C671 C 0.4042 0.31552 0.57624 0.0
H672 H 0.36916 0.28248 0.65412 0.0
C673 C 0.41364 0.33972 0.59741 0.0
C674 C 0.4082 0.34252 0.63927 0.0
H675 H 0.41035 0.31286 0.54468 0.0
H676 H 0.42713 0.35498 0.58188 0.0
C677 C 0.3911 0.32218 0.65876 0.0
C678 C 0.9612 0.15402 0.82602 0.0
C679 C 0.98261 0.13852 0.84631 0.0
H680 H 0.92173 0.17694 0.83164 0.0
C681 C 0.97823 0.13088 0.88727 0.0
H682 H 0.96388 0.16017 0.79447 0.0
C683 C 0.95449 0.1409 0.90853 0.0
C684 C 0.93416 0.158 0.88903 0.0
H685 H 0.9942 0.11897 0.90393 0.0
H686 H 0.95283 0.13659 0.94086 0.0
C687 C 0.93698 0.16345 0.84717 0.0
C688 C 0.91374 0.68686 0.59742 0.0
C689 C 0.90829 0.68405 0.63928 0.0
H690 H 0.91047 0.71373 0.54471 0.0
C691 C 0.89118 0.70438 0.65877 0.0
H692 H 0.92724 0.67161 0.58191 0.0
C693 C 0.88116 0.7281 0.6375 0.0
C694 C 0.8888 0.73247 0.59653 0.0
H695 H 0.88686 0.70271 0.6911 0.0
H696 H 0.86924 0.74406 0.65415 0.0
C697 C 0.90431 0.71106 0.57627 0.0
C698 C 0.04857 0.13097 0.38729 0.0
C699 C 0.04421 0.13861 0.34631 0.0
H700 H 0.07394 0.13668 0.44091 0.0
C701 C 0.06564 0.15411 0.32605 0.0
H702 H 0.03259 0.11906 0.40392 0.0
C703 C 0.08984 0.16354 0.34723 0.0
C704 C 0.09264 0.1581 0.38909 0.0
H705 H 0.06298 0.16026 0.29449 0.0
H706 H 0.10511 0.17703 0.33171 0.0
C707 C 0.0723 0.14099 0.40857 0.0
C708 C 0.64581 0.29854 0.13735 0.0
C709 C 0.63816 0.29417 0.09639 0.0
H710 H 0.64012 0.32392 0.19096 0.0
C711 C 0.62264 0.31558 0.07613 0.0
H712 H 0.65774 0.28258 0.15399 0.0
C713 C 0.61321 0.33978 0.0973 0.0
C714 C 0.61868 0.34259 0.13915 0.0
H715 H 0.61647 0.31291 0.04458 0.0
H716 H 0.59971 0.35503 0.08179 0.0
C717 C 0.6358 0.32226 0.15863 0.0
C718 C 0.45465 0.8856 0.90861 0.0
C719 C 0.43431 0.86849 0.88914 0.0
H720 H 0.49435 0.90755 0.90396 0.0
C721 C 0.43711 0.86305 0.84727 0.0
H722 H 0.45301 0.88991 0.94095 0.0
C723 C 0.46131 0.87249 0.82609 0.0
C724 C 0.48273 0.888 0.84635 0.0
H725 H 0.42184 0.84955 0.83176 0.0
H726 H 0.46396 0.86634 0.79453 0.0
C727 C 0.47837 0.89563 0.88733 0.0
C728 C 0.88107 0.29838 0.87423 0.0
C729 C 0.88868 0.29403 0.91521 0.0
H730 H 0.88679 0.32375 0.82062 0.0
C731 C 0.90418 0.31545 0.93549 0.0
H732 H 0.86916 0.2824 0.85758 0.0
C733 C 0.91361 0.33965 0.91432 0.0
C734 C 0.90818 0.34245 0.87246 0.0
H735 H 0.91032 0.31279 0.96705 0.0
H736 H 0.9271 0.35491 0.92986 0.0
C737 C 0.89109 0.3221 0.85296 0.0
C738 C 0.47826 0.13094 0.62445 0.0
C739 C 0.48262 0.13857 0.66543 0.0
H740 H 0.45287 0.13666 0.57085 0.0
C741 C 0.46121 0.15407 0.6857 0.0
H742 H 0.49422 0.11903 0.6078 0.0
C743 C 0.437 0.16351 0.66455 0.0
C744 C 0.43419 0.15807 0.62268 0.0
H745 H 0.46388 0.16021 0.71726 0.0
H746 H 0.42175 0.177 0.68007 0.0
C747 C 0.45452 0.14097 0.60319 0.0
C748 C 0.62276 0.71113 0.43556 0.0
C749 C 0.63827 0.73254 0.41529 0.0
H750 H 0.59983 0.67167 0.42992 0.0
C751 C 0.64589 0.72819 0.37431 0.0
H752 H 0.61662 0.71379 0.46712 0.0
C753 C 0.63586 0.70446 0.35304 0.0
C754 C 0.61876 0.68412 0.37253 0.0
H755 H 0.6578 0.74416 0.35767 0.0
H756 H 0.64017 0.70281 0.3207 0.0
C757 C 0.61332 0.68693 0.4144 0.0
C758 C 0.09002 0.86312 0.16477 0.0
C759 C 0.09284 0.86858 0.12291 0.0
H760 H 0.06312 0.86638 0.21747 0.0
C761 C 0.07252 0.8857 0.10342 0.0
H762 H 0.10527 0.84961 0.18029 0.0
C763 C 0.04878 0.89571 0.12468 0.0
C764 C 0.0444 0.88806 0.16564 0.0
H765 H 0.07419 0.89002 0.07109 0.0
H766 H 0.03282 0.90763 0.10803 0.0
C767 C 0.0658 0.87255 0.18592 0.0
C768 C 0.64591 0.79849 0.87433 0.0
C769 C 0.63828 0.79414 0.91531 0.0
H770 H 0.6402 0.82386 0.82072 0.0
C771 C 0.62278 0.81555 0.93557 0.0
H772 H 0.65783 0.78252 0.85769 0.0
C773 C 0.61335 0.83975 0.9144 0.0
C774 C 0.61879 0.84255 0.87254 0.0
H775 H 0.61663 0.81289 0.96713 0.0
H776 H 0.59985 0.85501 0.92992 0.0
C777 C 0.63589 0.82221 0.85306 0.0
C778 C 0.46122 0.37255 0.18572 0.0
C779 C 0.48263 0.38806 0.16544 0.0
H780 H 0.42176 0.34961 0.18009 0.0
C781 C 0.47826 0.39569 0.12447 0.0
H782 H 0.4639 0.3664 0.21728 0.0
C783 C 0.45453 0.38566 0.10321 0.0
C784 C 0.4342 0.36854 0.1227 0.0
H785 H 0.49422 0.40761 0.10782 0.0
H786 H 0.45287 0.38996 0.07087 0.0
C787 C 0.43701 0.3631 0.16457 0.0
C788 C 0.88105 0.22818 0.37422 0.0
C789 C 0.88867 0.23254 0.41521 0.0
H790 H 0.88677 0.20281 0.32062 0.0
C791 C 0.90416 0.21112 0.43548 0.0
H792 H 0.86915 0.24416 0.35758 0.0
C793 C 0.91359 0.18692 0.41433 0.0
C794 C 0.90816 0.18411 0.37246 0.0
H795 H 0.9103 0.21378 0.46705 0.0
H796 H 0.92707 0.17165 0.42986 0.0
C797 C 0.89107 0.20446 0.35296 0.0
C798 C 0.07246 0.6409 0.60335 0.0
C799 C 0.09279 0.65801 0.62285 0.0
H800 H 0.03275 0.61896 0.60795 0.0
C801 C 0.08997 0.66346 0.66471 0.0
H802 H 0.07412 0.63659 0.57102 0.0
C803 C 0.06575 0.65402 0.68586 0.0
C804 C 0.04434 0.63852 0.66557 0.0
H805 H 0.10522 0.67695 0.68024 0.0
H806 H 0.06307 0.66018 0.71741 0.0
C807 C 0.04872 0.63088 0.62461 0.0
C808 C 0.62264 0.21109 0.57613 0.0
C809 C 0.63816 0.2325 0.59639 0.0
H810 H 0.59971 0.17163 0.58177 0.0
C811 C 0.64581 0.22813 0.63736 0.0
H812 H 0.61648 0.21376 0.54457 0.0
C813 C 0.63579 0.2044 0.65863 0.0
C814 C 0.61867 0.18407 0.63915 0.0
H815 H 0.65773 0.2441 0.654 0.0
H816 H 0.64011 0.20275 0.69096 0.0
C817 C 0.61321 0.18689 0.59729 0.0
C818 C 0.06566 0.37249 0.82603 0.0
C819 C 0.04424 0.38799 0.84629 0.0
H820 H 0.10513 0.34957 0.83168 0.0
C821 C 0.0486 0.39562 0.88726 0.0
H822 H 0.063 0.36633 0.79447 0.0
C823 C 0.07233 0.38561 0.90854 0.0
C824 C 0.09267 0.36851 0.88906 0.0
H825 H 0.03262 0.40754 0.9039 0.0
H826 H 0.07398 0.38992 0.94087 0.0
C827 C 0.08987 0.36306 0.8472 0.0
C828 C 0.88122 0.79844 0.13752 0.0
C829 C 0.88885 0.79408 0.09655 0.0
H830 H 0.88693 0.82381 0.19114 0.0
C831 C 0.90436 0.81549 0.07629 0.0
H832 H 0.86929 0.78247 0.15416 0.0
C833 C 0.91379 0.83969 0.09745 0.0
C834 C 0.90835 0.84249 0.13932 0.0
H835 H 0.91051 0.81283 0.04472 0.0
H836 H 0.92729 0.85495 0.08194 0.0
C837 C 0.89124 0.82216 0.1588 0.0
C838 C 0.43708 0.66359 0.34727 0.0
C839 C 0.43428 0.65814 0.38914 0.0
H840 H 0.46393 0.66031 0.29453 0.0
C841 C 0.45462 0.64103 0.4086 0.0
H842 H 0.42182 0.67709 0.33177 0.0
C843 C 0.47834 0.63101 0.38732 0.0
C844 C 0.4827 0.63864 0.34634 0.0
H845 H 0.45298 0.63671 0.44094 0.0
H846 H 0.49432 0.61908 0.40395 0.0
C847 C 0.46128 0.65415 0.32609 0.0
C848 C 0.39106 0.20442 0.15873 0.0
C849 C 0.40817 0.18408 0.13924 0.0
H850 H 0.36913 0.24411 0.1541 0.0
C851 C 0.41362 0.18689 0.09738 0.0
H852 H 0.38675 0.20276 0.19106 0.0
C853 C 0.40419 0.21109 0.07622 0.0
C854 C 0.38869 0.23251 0.09649 0.0
H855 H 0.42711 0.17163 0.08186 0.0
H856 H 0.41035 0.21376 0.04466 0.0
C857 C 0.38105 0.22814 0.13746 0.0
C858 C 0.54872 0.63095 0.88733 0.0
C859 C 0.54435 0.63858 0.84636 0.0
H860 H 0.57412 0.63668 0.94094 0.0
C861 C 0.56576 0.6541 0.82609 0.0
H862 H 0.53276 0.61903 0.90398 0.0
C863 C 0.58997 0.66354 0.84725 0.0
C864 C 0.59278 0.6581 0.88911 0.0
H865 H 0.56309 0.66025 0.79453 0.0
H866 H 0.60522 0.67705 0.83172 0.0
C867 C 0.57246 0.64098 0.9086 0.0
C868 C 0.11335 0.83966 0.59759 0.0
C869 C 0.11878 0.84245 0.63946 0.0
H870 H 0.11665 0.81281 0.54486 0.0
C871 C 0.13587 0.8221 0.65895 0.0
H872 H 0.09987 0.85492 0.58207 0.0
C873 C 0.14589 0.79838 0.63768 0.0
C874 C 0.13828 0.79404 0.59669 0.0
H875 H 0.14016 0.82375 0.6913 0.0
H876 H 0.15779 0.78241 0.65432 0.0
C877 C 0.12279 0.81546 0.57642 0.0
C878 C 0.93701 0.36311 0.34715 0.0
C879 C 0.93419 0.36856 0.38901 0.0
H880 H 0.9639 0.36639 0.29445 0.0
C881 C 0.95452 0.38567 0.40851 0.0
H882 H 0.92176 0.34961 0.33163 0.0
C883 C 0.97826 0.39569 0.38725 0.0
C884 C 0.98264 0.38806 0.34628 0.0
H885 H 0.95286 0.38999 0.44084 0.0
H886 H 0.99423 0.40761 0.4039 0.0
C887 C 0.96123 0.37255 0.326 0.0
C888 C 0.41377 0.83976 0.41451 0.0
C889 C 0.40832 0.84257 0.37266 0.0
H890 H 0.4105 0.81289 0.46724 0.0
C891 C 0.39119 0.82224 0.35318 0.0
H892 H 0.42728 0.85501 0.43002 0.0
C893 C 0.38117 0.79852 0.37445 0.0
C894 C 0.38882 0.79415 0.41542 0.0
H895 H 0.38687 0.8239 0.32084 0.0
H896 H 0.36924 0.78255 0.35782 0.0
C897 C 0.40434 0.81556 0.43568 0.0
C898 C 0.9613 0.65409 0.18583 0.0
C899 C 0.98273 0.63859 0.16557 0.0
H900 H 0.92183 0.677 0.18017 0.0
C901 C 0.97837 0.63096 0.1246 0.0
H902 H 0.96396 0.66024 0.21739 0.0
C903 C 0.95464 0.64097 0.10332 0.0
C904 C 0.9343 0.65807 0.12279 0.0
H905 H 0.99435 0.61905 0.10796 0.0
H906 H 0.95299 0.63666 0.07098 0.0
C907 C 0.9371 0.66351 0.16466 0.0
C908 C 0.12265 0.21109 0.93561 0.0
C909 C 0.13815 0.2325 0.91534 0.0
H910 H 0.09972 0.17163 0.92998 0.0
C911 C 0.14579 0.22814 0.87436 0.0
H912 H 0.11649 0.21376 0.96717 0.0
C913 C 0.13577 0.20441 0.8531 0.0
C914 C 0.11866 0.18407 0.8726 0.0
H915 H 0.15771 0.2441 0.85772 0.0
H916 H 0.14008 0.20274 0.82077 0.0
C917 C 0.11321 0.18689 0.91446 0.0
C918 C 0.57234 0.38562 0.6032 0.0
C919 C 0.59268 0.36851 0.62268 0.0
H920 H 0.53264 0.40755 0.60784 0.0
C921 C 0.58988 0.36307 0.66454 0.0
H922 H 0.57398 0.38993 0.57086 0.0
C923 C 0.56568 0.37251 0.68571 0.0
C924 C 0.54426 0.38801 0.66546 0.0
H925 H 0.60515 0.34958 0.68005 0.0
H926 H 0.56302 0.36636 0.71728 0.0
C927 C 0.54861 0.39564 0.62448 0.0
C928 C 0.08582 0.51193 0.2985 0.0
C929 C 0.0852 0.48649 0.27585 0.0
H930 H 0.08538 0.55758 0.2973 0.0
C931 C 0.0858 0.48821 0.2331 0.0
H932 H 0.08541 0.51143 0.33146 0.0
C933 C 0.08585 0.51472 0.21349 0.0
C934 C 0.08522 0.54016 0.23614 0.0
H935 H 0.0854 0.46907 0.21469 0.0
H936 H 0.08546 0.51522 0.18052 0.0
C937 C 0.0858 0.53844 0.27888 0.0
C938 C 0.76489 0.83557 0.54846 0.0
C939 C 0.79037 0.83495 0.52587 0.0
H940 H 0.71923 0.83514 0.54715 0.0
C941 C 0.7887 0.83555 0.48312 0.0
H942 H 0.76536 0.83516 0.58143 0.0
C943 C 0.7622 0.83559 0.46345 0.0
C944 C 0.73673 0.83497 0.48603 0.0
H945 H 0.80786 0.83515 0.46476 0.0
H946 H 0.76174 0.83521 0.43048 0.0
C947 C 0.7384 0.83555 0.52878 0.0
C948 C 0.44122 0.48817 0.77883 0.0
C949 C 0.4418 0.48646 0.73608 0.0
H950 H 0.44161 0.51516 0.83143 0.0
C951 C 0.44118 0.51191 0.71345 0.0
H952 H 0.44163 0.46902 0.79723 0.0
C953 C 0.44122 0.53841 0.73308 0.0
C954 C 0.44183 0.54012 0.77583 0.0
H955 H 0.44156 0.51142 0.68048 0.0
H956 H 0.44163 0.55756 0.71468 0.0
C957 C 0.4412 0.51467 0.79846 0.0
C958 C 0.76475 0.191 0.96332 0.0
C959 C 0.79022 0.19162 0.98591 0.0
H960 H 0.71909 0.19146 0.96461 0.0
C961 C 0.78854 0.19104 0.02866 0.0
H962 H 0.76522 0.19138 0.93035 0.0
C963 C 0.76204 0.19103 0.04833 0.0
C964 C 0.73657 0.19166 0.02573 0.0
H965 H 0.80771 0.19145 0.04704 0.0
H966 H 0.76158 0.19145 0.0813 0.0
C967 C 0.73825 0.19105 0.98298 0.0
C968 C 0.94113 0.51186 0.79838 0.0
C969 C 0.94175 0.48642 0.77574 0.0
H970 H 0.94158 0.55751 0.79718 0.0
C971 C 0.94117 0.48814 0.73299 0.0
H972 H 0.94152 0.51136 0.83135 0.0
C973 C 0.94115 0.51465 0.71338 0.0
C974 C 0.94178 0.54009 0.73602 0.0
H975 H 0.94158 0.469 0.71458 0.0
H976 H 0.94156 0.51515 0.68041 0.0
C977 C 0.94117 0.53837 0.77877 0.0
C978 C 0.26478 0.19102 0.54842 0.0
C979 C 0.29025 0.19164 0.52582 0.0
H980 H 0.21911 0.19145 0.54713 0.0
C981 C 0.28856 0.19106 0.48307 0.0
H982 H 0.26525 0.19141 0.58139 0.0
C983 C 0.26206 0.19102 0.4634 0.0
C984 C 0.23659 0.19164 0.48601 0.0
H985 H 0.30773 0.19147 0.46469 0.0
H986 H 0.26159 0.19143 0.43043 0.0
C987 C 0.23828 0.19105 0.52875 0.0
C988 C 0.58574 0.53848 0.23297 0.0
C989 C 0.58516 0.54019 0.27572 0.0
H990 H 0.58536 0.51148 0.18037 0.0
C991 C 0.58579 0.51474 0.29835 0.0
H992 H 0.58533 0.55763 0.21457 0.0
C993 C 0.58575 0.48824 0.27872 0.0
C994 C 0.58514 0.48653 0.23597 0.0
H995 H 0.5854 0.51523 0.33132 0.0
H996 H 0.58534 0.46909 0.29712 0.0
C997 C 0.58577 0.51198 0.21334 0.0
C998 C 0.26224 0.8356 0.04856 0.0
C999 C 0.23676 0.83498 0.02597 0.0
H1000 H 0.3079 0.83514 0.04724 0.0
C1001 C 0.23843 0.83556 0.98322 0.0
H1002 H 0.26178 0.83521 0.08153 0.0
C1003 C 0.26492 0.83558 0.96354 0.0
C1004 C 0.2904 0.83495 0.98613 0.0
H1005 H 0.21926 0.83515 0.96486 0.0
H1006 H 0.26538 0.83517 0.93057 0.0
C1007 C 0.28873 0.83555 0.02888 0.0
C1008 C 0.5858 1.01193 0.79835 0.0
C1009 C 0.58518 0.98648 0.77572 0.0
H1010 H 0.58535 0.05758 0.79712 0.0
C1011 C 0.58576 0.98818 0.73297 0.0
H1012 H 0.58541 1.01144 0.83132 0.0
C1013 C 0.58578 0.01469 0.71334 0.0
C1014 C 0.58515 0.04014 0.73597 0.0
H1015 H 0.58535 0.96904 0.71457 0.0
H1016 H 0.58537 0.01518 0.68037 0.0
C1017 C 0.58576 0.03843 0.77872 0.0
C1018 C 0.26479 0.3356 0.04839 0.0
C1019 C 0.29026 0.33497 0.0258 0.0
H1020 H 0.21913 0.33516 0.0471 0.0
C1021 C 0.28858 0.33555 0.98305 0.0
H1022 H 0.26526 0.3352 0.08136 0.0
C1023 C 0.26208 0.33559 0.96338 0.0
C1024 C 0.23661 0.33497 0.98598 0.0
H1025 H 0.30775 0.33514 0.96467 0.0
H1026 H 0.26161 0.33518 0.93041 0.0
C1027 C 0.23829 0.33557 0.02873 0.0
C1028 C 0.94113 0.0147 0.29841 0.0
C1029 C 0.94175 0.04014 0.27576 0.0
H1030 H 0.9416 0.96905 0.29722 0.0
C1031 C 0.94118 0.03842 0.23301 0.0
H1032 H 0.94151 0.01521 0.33138 0.0
C1033 C 0.94117 1.0119 0.21341 0.0
C1034 C 0.9418 0.98647 0.23606 0.0
H1035 H 0.94158 0.05755 0.2146 0.0
H1036 H 0.94159 1.0114 0.18044 0.0
C1037 C 0.94119 0.98819 0.2788 0.0
C1038 C 0.26489 0.69104 0.46352 0.0
C1039 C 0.29037 0.69167 0.4861 0.0
H1040 H 0.21923 0.69147 0.46482 0.0
C1041 C 0.28869 0.69106 0.52885 0.0
H1042 H 0.26535 0.69145 0.43055 0.0
C1043 C 0.2622 0.69101 0.54853 0.0
C1044 C 0.23672 0.69163 0.52594 0.0
H1045 H 0.30786 0.69147 0.54722 0.0
H1046 H 0.26173 0.6914 0.5815 0.0
C1047 C 0.23839 0.69106 0.48319 0.0
C1048 C 0.44121 0.03845 0.27882 0.0
C1049 C 0.44178 0.04016 0.23607 0.0
H1050 H 0.44161 1.01146 0.33142 0.0
C1051 C 0.44117 0.01471 0.21344 0.0
H1052 H 0.44161 0.0576 0.29722 0.0
C1053 C 0.44122 0.9882 0.23308 0.0
C1054 C 0.44183 0.9865 0.27582 0.0
H1055 H 0.44155 0.01519 0.18047 0.0
H1056 H 0.44163 0.96906 0.21468 0.0
C1057 C 0.4412 1.01195 0.29845 0.0
C1058 C 0.78869 0.69107 0.9831 0.0
C1059 C 0.79037 0.69166 0.02585 0.0
H1060 H 0.76172 0.69144 0.93046 0.0
C1061 C 0.76489 0.69104 0.04844 0.0
H1062 H 0.80785 0.69147 0.96473 0.0
C1063 C 0.73839 0.69108 0.02877 0.0
C1064 C 0.73672 0.69168 0.98602 0.0
H1065 H 0.76536 0.69144 0.08141 0.0
H1066 H 0.71923 0.6915 0.04715 0.0
C1067 C 0.76219 0.69104 0.96343 0.0
C1068 C 0.08578 0.03837 0.73313 0.0
C1069 C 0.08517 0.0401 0.77587 0.0
H1070 H 0.08544 1.01135 0.68055 0.0
C1071 C 0.0858 0.01466 0.79853 0.0
H1072 H 0.08537 0.05751 0.71471 0.0
C1073 C 0.08579 0.98815 0.77892 0.0
C1074 C 0.08521 0.98642 0.73618 0.0
H1075 H 0.08539 0.01516 0.8315 0.0
H1076 H 0.08538 0.96901 0.79734 0.0
C1077 C 0.08583 1.01186 0.71352 0.0
C1078 C 0.73828 0.33558 0.48298 0.0
C1079 C 0.7366 0.33498 0.52573 0.0
H1080 H 0.76524 0.33522 0.43034 0.0
C1081 C 0.76208 0.3356 0.54832 0.0
H1082 H 0.71911 0.33517 0.46461 0.0
C1083 C 0.78857 0.33557 0.52865 0.0
C1084 C 0.79025 0.33499 0.4859 0.0
H1085 H 0.76161 0.3352 0.58129 0.0
H1086 H 0.80774 0.33516 0.54702 0.0
C1087 C 0.76477 0.33562 0.46331 0.0
loop_
_geom_bond_atom_site_label_1
_geom_bond_atom_site_label_2
_geom_bond_distance
_geom_bond_site_symmetry_2
_ccdc_geom_bond_type
O0 Cd1 2.223 . S
O0 C8 1.315 1_455 S
Cd1 O0 2.223 . S
Cd1 O4 2.297 . S
Cd1 O5 2.439 . S
Cd1 O11 2.240 . S
Cd2 O3 2.240 1_455 S
Cd2 O10 2.223 . S
Cd2 O12 2.297 . S
Cd2 O13 2.439 . S
O3 Cd2 2.240 1_655 S
O3 C8 1.279 . S
O4 Cd1 2.297 . S
O4 C6 1.247 . S
O5 Cd1 2.439 . S
O5 C6 1.208 . S
C6 O4 1.247 . S
C6 O5 1.208 . S
C7 O12 1.247 . S
C7 O13 1.208 . S
C8 O0 1.315 1_655 S
C8 O3 1.279 . S
C9 O10 1.315 . S
C9 O11 1.279 . S
O10 Cd2 2.223 . S
O10 C9 1.315 . S
O11 Cd1 2.240 . S
O11 C9 1.279 . S
O12 Cd2 2.297 . S
O12 C7 1.247 . S
O13 Cd2 2.439 . S
O13 C7 1.208 . S
O14 Cd15 2.223 . S
O14 C22 1.315 . S
Cd15 O14 2.223 . S
Cd15 O18 2.297 . S
Cd15 O19 2.439 . S
Cd15 O25 2.240 . S
Cd16 O17 2.240 . S
Cd16 O24 2.223 . S
Cd16 O26 2.297 . S
Cd16 O27 2.439 . S
O17 Cd16 2.240 . S
O17 C22 1.279 . S
O18 Cd15 2.297 . S
O18 C20 1.247 . S
O19 Cd15 2.439 . S
O19 C20 1.208 . S
C20 O18 1.247 . S
C20 O19 1.208 . S
C21 O26 1.247 . S
C21 O27 1.208 . S
C22 O14 1.315 . S
C22 O17 1.279 . S
C23 O24 1.315 . S
C23 O25 1.279 . S
O24 Cd16 2.223 . S
O24 C23 1.315 . S
O25 Cd15 2.240 . S
O25 C23 1.279 . S
O26 Cd16 2.297 . S
O26 C21 1.247 . S
O27 Cd16 2.439 . S
O27 C21 1.208 . S
O28 Cd29 2.223 . S
O28 C36 1.315 . S
Cd29 O28 2.223 . S
Cd29 O32 2.297 . S
Cd29 O33 2.439 . S
Cd29 O39 2.240 . S
Cd30 O31 2.240 . S
Cd30 O38 2.223 . S
Cd30 O40 2.297 . S
Cd30 O41 2.439 . S
O31 Cd30 2.240 . S
O31 C36 1.279 . S
O32 Cd29 2.297 . S
O32 C34 1.247 . S
O33 Cd29 2.439 . S
O33 C34 1.208 . S
C34 O32 1.247 . S
C34 O33 1.208 . S
C35 O40 1.247 . S
C35 O41 1.208 . S
C36 O28 1.315 . S
C36 O31 1.279 . S
C37 O38 1.315 . S
C37 O39 1.279 . S
O38 Cd30 2.223 . S
O38 C37 1.315 . S
O39 Cd29 2.240 . S
O39 C37 1.279 . S
O40 Cd30 2.297 . S
O40 C35 1.247 . S
O41 Cd30 2.439 . S
O41 C35 1.208 . S
O42 Cd43 2.223 . S
O42 C50 1.315 . S
Cd43 O42 2.223 . S
Cd43 O46 2.297 . S
Cd43 O47 2.439 . S
Cd43 O53 2.240 . S
Cd44 O45 2.240 . S
Cd44 O52 2.223 . S
Cd44 O54 2.297 1_554 S
Cd44 O55 2.439 1_554 S
O45 Cd44 2.240 . S
O45 C50 1.279 . S
O46 Cd43 2.297 . S
O46 C48 1.247 . S
O47 Cd43 2.439 . S
O47 C48 1.208 . S
C48 O46 1.247 . S
C48 O47 1.208 . S
C49 O54 1.247 . S
C49 O55 1.208 . S
C50 O42 1.315 . S
C50 O45 1.279 . S
C51 O52 1.315 . S
C51 O53 1.279 . S
O52 Cd44 2.223 . S
O52 C51 1.315 . S
O53 Cd43 2.240 . S
O53 C51 1.279 . S
O54 Cd44 2.297 1_556 S
O54 C49 1.247 . S
O55 Cd44 2.439 1_556 S
O55 C49 1.208 . S
O56 Cd57 2.223 . S
O56 C64 1.315 1_455 S
Cd57 O56 2.223 . S
Cd57 O60 2.297 . S
Cd57 O61 2.439 . S
Cd57 O67 2.240 . S
Cd58 O59 2.240 1_455 S
Cd58 O66 2.223 . S
Cd58 O68 2.297 . S
Cd58 O69 2.439 . S
O59 Cd58 2.240 1_655 S
O59 C64 1.279 . S
O60 Cd57 2.297 . S
O60 C62 1.247 . S
O61 Cd57 2.439 . S
O61 C62 1.208 . S
C62 O60 1.247 . S
C62 O61 1.208 . S
C63 O68 1.247 . S
C63 O69 1.208 . S
C64 O56 1.315 1_655 S
C64 O59 1.279 . S
C65 O66 1.315 . S
C65 O67 1.279 . S
O66 Cd58 2.223 . S
O66 C65 1.315 . S
O67 Cd57 2.240 . S
O67 C65 1.279 . S
O68 Cd58 2.297 . S
O68 C63 1.247 . S
O69 Cd58 2.439 . S
O69 C63 1.208 . S
O70 Cd71 2.223 . S
O70 C78 1.315 . S
Cd71 O70 2.223 . S
Cd71 O74 2.297 . S
Cd71 O75 2.439 . S
Cd71 O81 2.240 . S
Cd72 O73 2.240 . S
Cd72 O80 2.223 . S
Cd72 O82 2.297 . S
Cd72 O83 2.439 . S
O73 Cd72 2.240 . S
O73 C78 1.279 . S
O74 Cd71 2.297 . S
O74 C76 1.247 . S
O75 Cd71 2.439 . S
O75 C76 1.208 . S
C76 O74 1.247 . S
C76 O75 1.208 . S
C77 O82 1.247 . S
C77 O83 1.208 . S
C78 O70 1.315 . S
C78 O73 1.279 . S
C79 O80 1.315 . S
C79 O81 1.279 . S
O80 Cd72 2.223 . S
O80 C79 1.315 . S
O81 Cd71 2.240 . S
O81 C79 1.279 . S
O82 Cd72 2.297 . S
O82 C77 1.247 . S
O83 Cd72 2.439 . S
O83 C77 1.208 . S
O84 Cd85 2.223 . S
O84 C92 1.315 . S
Cd85 O84 2.223 . S
Cd85 O88 2.297 . S
Cd85 O89 2.439 . S
Cd85 O95 2.240 . S
Cd86 O87 2.240 . S
Cd86 O94 2.223 . S
Cd86 O96 2.297 . S
Cd86 O97 2.439 . S
O87 Cd86 2.240 . S
O87 C92 1.279 . S
O88 Cd85 2.297 . S
O88 C90 1.247 . S
O89 Cd85 2.439 . S
O89 C90 1.208 . S
C90 O88 1.247 . S
C90 O89 1.208 . S
C91 O96 1.247 . S
C91 O97 1.208 . S
C92 O84 1.315 . S
C92 O87 1.279 . S
C93 O94 1.315 . S
C93 O95 1.279 . S
O94 Cd86 2.223 . S
O94 C93 1.315 . S
O95 Cd85 2.240 . S
O95 C93 1.279 . S
O96 Cd86 2.297 . S
O96 C91 1.247 . S
O97 Cd86 2.439 . S
O97 C91 1.208 . S
O98 Cd99 2.223 . S
O98 C106 1.315 . S
Cd99 O98 2.223 . S
Cd99 O102 2.297 . S
Cd99 O103 2.439 . S
Cd99 O109 2.240 . S
Cd100 O101 2.240 . S
Cd100 O108 2.223 . S
Cd100 O110 2.297 1_556 S
Cd100 O111 2.439 1_556 S
O101 Cd100 2.240 . S
O101 C106 1.279 . S
O102 Cd99 2.297 . S
O102 C104 1.247 . S
O103 Cd99 2.439 . S
O103 C104 1.208 . S
C104 O102 1.247 . S
C104 O103 1.208 . S
C105 O110 1.247 . S
C105 O111 1.208 . S
C106 O98 1.315 . S
C106 O101 1.279 . S
C107 O108 1.315 . S
C107 O109 1.279 . S
O108 Cd100 2.223 . S
O108 C107 1.315 . S
O109 Cd99 2.240 . S
O109 C107 1.279 . S
O110 Cd100 2.297 1_554 S
O110 C105 1.247 . S
O111 Cd100 2.439 1_554 S
O111 C105 1.208 . S
O112 Cd113 2.223 . S
O112 C120 1.315 1_655 S
Cd113 O112 2.223 . S
Cd113 O116 2.297 . S
Cd113 O117 2.439 . S
Cd113 O123 2.240 . S
Cd114 O115 2.240 1_655 S
Cd114 O122 2.223 . S
Cd114 O124 2.297 . S
Cd114 O125 2.439 . S
O115 Cd114 2.240 1_455 S
O115 C120 1.279 . S
O116 Cd113 2.297 . S
O116 C118 1.247 . S
O117 Cd113 2.439 . S
O117 C118 1.208 . S
C118 O116 1.247 . S
C118 O117 1.208 . S
C119 O124 1.247 . S
C119 O125 1.208 . S
C120 O112 1.315 1_455 S
C120 O115 1.279 . S
C121 O122 1.315 . S
C121 O123 1.279 . S
O122 Cd114 2.223 . S
O122 C121 1.315 . S
O123 Cd113 2.240 . S
O123 C121 1.279 . S
O124 Cd114 2.297 . S
O124 C119 1.247 . S
O125 Cd114 2.439 . S
O125 C119 1.208 . S
O126 Cd127 2.223 . S
O126 C134 1.315 . S
Cd127 O126 2.223 . S
Cd127 O130 2.297 . S
Cd127 O131 2.439 . S
Cd127 O137 2.240 . S
Cd128 O129 2.240 . S
Cd128 O136 2.223 . S
Cd128 O138 2.297 . S
Cd128 O139 2.439 . S
O129 Cd128 2.240 . S
O129 C134 1.279 . S
O130 Cd127 2.297 . S
O130 C132 1.247 . S
O131 Cd127 2.439 . S
O131 C132 1.208 . S
C132 O130 1.247 . S
C132 O131 1.208 . S
C133 O138 1.247 . S
C133 O139 1.208 . S
C134 O126 1.315 . S
C134 O129 1.279 . S
C135 O136 1.315 . S
C135 O137 1.279 . S
O136 Cd128 2.223 . S
O136 C135 1.315 . S
O137 Cd127 2.240 . S
O137 C135 1.279 . S
O138 Cd128 2.297 . S
O138 C133 1.247 . S
O139 Cd128 2.439 . S
O139 C133 1.208 . S
O140 Cd141 2.223 . S
O140 C148 1.315 . S
Cd141 O140 2.223 . S
Cd141 O144 2.297 . S
Cd141 O145 2.439 . S
Cd141 O151 2.240 . S
Cd142 O143 2.240 . S
Cd142 O150 2.223 . S
Cd142 O152 2.297 . S
Cd142 O153 2.439 . S
O143 Cd142 2.240 . S
O143 C148 1.279 . S
O144 Cd141 2.297 . S
O144 C146 1.247 . S
O145 Cd141 2.439 . S
O145 C146 1.208 . S
C146 O144 1.247 . S
C146 O145 1.208 . S
C147 O152 1.247 . S
C147 O153 1.208 . S
C148 O140 1.315 . S
C148 O143 1.279 . S
C149 O150 1.315 . S
C149 O151 1.279 . S
O150 Cd142 2.223 . S
O150 C149 1.315 . S
O151 Cd141 2.240 . S
O151 C149 1.279 . S
O152 Cd142 2.297 . S
O152 C147 1.247 . S
O153 Cd142 2.439 . S
O153 C147 1.208 . S
O154 Cd155 2.223 . S
O154 C162 1.315 . S
Cd155 O154 2.223 . S
Cd155 O158 2.297 . S
Cd155 O159 2.439 . S
Cd155 O165 2.240 . S
Cd156 O157 2.240 . S
Cd156 O164 2.223 . S
Cd156 O166 2.297 1_556 S
Cd156 O167 2.439 1_556 S
O157 Cd156 2.240 . S
O157 C162 1.279 . S
O158 Cd155 2.297 . S
O158 C160 1.247 . S
O159 Cd155 2.439 . S
O159 C160 1.208 . S
C160 O158 1.247 . S
C160 O159 1.208 . S
C161 O166 1.247 . S
C161 O167 1.208 . S
C162 O154 1.315 . S
C162 O157 1.279 . S
C163 O164 1.315 . S
C163 O165 1.279 . S
O164 Cd156 2.223 . S
O164 C163 1.315 . S
O165 Cd155 2.240 . S
O165 C163 1.279 . S
O166 Cd156 2.297 1_554 S
O166 C161 1.247 . S
O167 Cd156 2.439 1_554 S
O167 C161 1.208 . S
O168 Cd169 2.223 . S
O168 C176 1.315 1_655 S
Cd169 O168 2.223 . S
Cd169 O172 2.297 . S
Cd169 O173 2.439 . S
Cd169 O179 2.240 . S
Cd170 O171 2.240 1_655 S
Cd170 O178 2.223 . S
Cd170 O180 2.297 . S
Cd170 O181 2.439 . S
O171 Cd170 2.240 1_455 S
O171 C176 1.279 . S
O172 Cd169 2.297 . S
O172 C174 1.247 . S
O173 Cd169 2.439 . S
O173 C174 1.208 . S
C174 O172 1.247 . S
C174 O173 1.208 . S
C175 O180 1.247 . S
C175 O181 1.208 . S
C176 O168 1.315 1_455 S
C176 O171 1.279 . S
C177 O178 1.315 . S
C177 O179 1.279 . S
O178 Cd170 2.223 . S
O178 C177 1.315 . S
O179 Cd169 2.240 . S
O179 C177 1.279 . S
O180 Cd170 2.297 . S
O180 C175 1.247 . S
O181 Cd170 2.439 . S
O181 C175 1.208 . S
O182 Cd183 2.223 . S
O182 C190 1.315 . S
Cd183 O182 2.223 . S
Cd183 O186 2.297 . S
Cd183 O187 2.439 . S
Cd183 O193 2.240 . S
Cd184 O185 2.240 . S
Cd184 O192 2.223 . S
Cd184 O194 2.297 . S
Cd184 O195 2.439 . S
O185 Cd184 2.240 . S
O185 C190 1.279 . S
O186 Cd183 2.297 . S
O186 C188 1.247 . S
O187 Cd183 2.439 . S
O187 C188 1.208 . S
C188 O186 1.247 . S
C188 O187 1.208 . S
C189 O194 1.247 . S
C189 O195 1.208 . S
C190 O182 1.315 . S
C190 O185 1.279 . S
C191 O192 1.315 . S
C191 O193 1.279 . S
O192 Cd184 2.223 . S
O192 C191 1.315 . S
O193 Cd183 2.240 . S
O193 C191 1.279 . S
O194 Cd184 2.297 . S
O194 C189 1.247 . S
O195 Cd184 2.439 . S
O195 C189 1.208 . S
O196 Cd197 2.223 . S
O196 C204 1.315 . S
Cd197 O196 2.223 . S
Cd197 O200 2.297 . S
Cd197 O201 2.439 . S
Cd197 O207 2.240 . S
Cd198 O199 2.240 . S
Cd198 O206 2.223 . S
Cd198 O208 2.297 . S
Cd198 O209 2.439 . S
O199 Cd198 2.240 . S
O199 C204 1.279 . S
O200 Cd197 2.297 . S
O200 C202 1.247 . S
O201 Cd197 2.439 . S
O201 C202 1.208 . S
C202 O200 1.247 . S
C202 O201 1.208 . S
C203 O208 1.247 . S
C203 O209 1.208 . S
C204 O196 1.315 . S
C204 O199 1.279 . S
C205 O206 1.315 . S
C205 O207 1.279 . S
O206 Cd198 2.223 . S
O206 C205 1.315 . S
O207 Cd197 2.240 . S
O207 C205 1.279 . S
O208 Cd198 2.297 . S
O208 C203 1.247 . S
O209 Cd198 2.439 . S
O209 C203 1.208 . S
O210 Cd211 2.223 . S
O210 C218 1.315 . S
Cd211 O210 2.223 . S
Cd211 O214 2.297 . S
Cd211 O215 2.439 . S
Cd211 O221 2.240 . S
Cd212 O213 2.240 . S
Cd212 O220 2.223 . S
Cd212 O222 2.297 1_554 S
Cd212 O223 2.439 1_554 S
O213 Cd212 2.240 . S
O213 C218 1.279 . S
O214 Cd211 2.297 . S
O214 C216 1.247 . S
O215 Cd211 2.439 . S
O215 C216 1.208 . S
C216 O214 1.247 . S
C216 O215 1.208 . S
C217 O222 1.247 . S
C217 O223 1.208 . S
C218 O210 1.315 . S
C218 O213 1.279 . S
C219 O220 1.315 . S
C219 O221 1.279 . S
O220 Cd212 2.223 . S
O220 C219 1.315 . S
O221 Cd211 2.240 . S
O221 C219 1.279 . S
O222 Cd212 2.297 1_556 S
O222 C217 1.247 . S
O223 Cd212 2.439 1_556 S
O223 C217 1.208 . S
O224 Cd225 2.223 . S
O224 C232 1.315 . S
Cd225 O224 2.223 . S
Cd225 O228 2.297 . S
Cd225 O229 2.439 . S
Cd225 O235 2.240 . S
Cd226 O227 2.240 . S
Cd226 O234 2.223 . S
Cd226 O236 2.297 . S
Cd226 O237 2.439 . S
O227 Cd226 2.240 . S
O227 C232 1.279 . S
O228 Cd225 2.297 . S
O228 C230 1.247 . S
O229 Cd225 2.439 . S
O229 C230 1.208 . S
C230 O228 1.247 . S
C230 O229 1.208 . S
C231 O236 1.247 . S
C231 O237 1.208 . S
C232 O224 1.315 . S
C232 O227 1.279 . S
C233 O234 1.315 . S
C233 O235 1.279 . S
O234 Cd226 2.223 . S
O234 C233 1.315 . S
O235 Cd225 2.240 . S
O235 C233 1.279 . S
O236 Cd226 2.297 . S
O236 C231 1.247 . S
O237 Cd226 2.439 . S
O237 C231 1.208 . S
O238 Cd239 2.223 . S
O238 C246 1.315 . S
Cd239 O238 2.223 . S
Cd239 O242 2.297 . S
Cd239 O243 2.439 . S
Cd239 O249 2.240 . S
Cd240 O241 2.240 . S
Cd240 O248 2.223 . S
Cd240 O250 2.297 1_554 S
Cd240 O251 2.439 1_554 S
O241 Cd240 2.240 . S
O241 C246 1.279 . S
O242 Cd239 2.297 . S
O242 C244 1.247 . S
O243 Cd239 2.439 . S
O243 C244 1.208 . S
C244 O242 1.247 . S
C244 O243 1.208 . S
C245 O250 1.247 . S
C245 O251 1.208 . S
C246 O238 1.315 . S
C246 O241 1.279 . S
C247 O248 1.315 . S
C247 O249 1.279 . S
O248 Cd240 2.223 . S
O248 C247 1.315 . S
O249 Cd239 2.240 . S
O249 C247 1.279 . S
O250 Cd240 2.297 1_556 S
O250 C245 1.247 . S
O251 Cd240 2.439 1_556 S
O251 C245 1.208 . S
O252 Cd253 2.223 . S
O252 C260 1.315 1_655 S
Cd253 O252 2.223 . S
Cd253 O256 2.297 . S
Cd253 O257 2.439 . S
Cd253 O263 2.240 . S
Cd254 O255 2.240 1_655 S
Cd254 O262 2.223 . S
Cd254 O264 2.297 . S
Cd254 O265 2.439 . S
O255 Cd254 2.240 1_455 S
O255 C260 1.279 . S
O256 Cd253 2.297 . S
O256 C258 1.247 . S
O257 Cd253 2.439 . S
O257 C258 1.208 . S
C258 O256 1.247 . S
C258 O257 1.208 . S
C259 O264 1.247 . S
C259 O265 1.208 . S
C260 O252 1.315 1_455 S
C260 O255 1.279 . S
C261 O262 1.315 . S
C261 O263 1.279 . S
O262 Cd254 2.223 . S
O262 C261 1.315 . S
O263 Cd253 2.240 . S
O263 C261 1.279 . S
O264 Cd254 2.297 . S
O264 C259 1.247 . S
O265 Cd254 2.439 . S
O265 C259 1.208 . S
O266 Cd267 2.223 . S
O266 C274 1.315 . S
Cd267 O266 2.223 . S
Cd267 O270 2.297 . S
Cd267 O271 2.439 . S
Cd267 O277 2.240 . S
Cd268 O269 2.240 . S
Cd268 O276 2.223 . S
Cd268 O278 2.297 . S
Cd268 O279 2.439 . S
O269 Cd268 2.240 . S
O269 C274 1.279 . S
O270 Cd267 2.297 . S
O270 C272 1.247 . S
O271 Cd267 2.439 . S
O271 C272 1.208 . S
C272 O270 1.247 . S
C272 O271 1.208 . S
C273 O278 1.247 . S
C273 O279 1.208 . S
C274 O266 1.315 . S
C274 O269 1.279 . S
C275 O276 1.315 . S
C275 O277 1.279 . S
O276 Cd268 2.223 . S
O276 C275 1.315 . S
O277 Cd267 2.240 . S
O277 C275 1.279 . S
O278 Cd268 2.297 . S
O278 C273 1.247 . S
O279 Cd268 2.439 . S
O279 C273 1.208 . S
O280 Cd281 2.223 . S
O280 C288 1.315 . S
Cd281 O280 2.223 . S
Cd281 O284 2.297 . S
Cd281 O285 2.439 . S
Cd281 O291 2.240 . S
Cd282 O283 2.240 . S
Cd282 O290 2.223 . S
Cd282 O292 2.297 . S
Cd282 O293 2.439 . S
O283 Cd282 2.240 . S
O283 C288 1.279 . S
O284 Cd281 2.297 . S
O284 C286 1.247 . S
O285 Cd281 2.439 . S
O285 C286 1.208 . S
C286 O284 1.247 . S
C286 O285 1.208 . S
C287 O292 1.247 . S
C287 O293 1.208 . S
C288 O280 1.315 . S
C288 O283 1.279 . S
C289 O290 1.315 . S
C289 O291 1.279 . S
O290 Cd282 2.223 . S
O290 C289 1.315 . S
O291 Cd281 2.240 . S
O291 C289 1.279 . S
O292 Cd282 2.297 . S
O292 C287 1.247 . S
O293 Cd282 2.439 . S
O293 C287 1.208 . S
O294 Cd295 2.223 . S
O294 C302 1.315 . S
Cd295 O294 2.223 . S
Cd295 O298 2.297 . S
Cd295 O299 2.439 . S
Cd295 O305 2.240 . S
Cd296 O297 2.240 . S
Cd296 O304 2.223 . S
Cd296 O306 2.297 1_556 S
Cd296 O307 2.439 1_556 S
O297 Cd296 2.240 . S
O297 C302 1.279 . S
O298 Cd295 2.297 . S
O298 C300 1.247 . S
O299 Cd295 2.439 . S
O299 C300 1.208 . S
C300 O298 1.247 . S
C300 O299 1.208 . S
C301 O306 1.247 . S
C301 O307 1.208 . S
C302 O294 1.315 . S
C302 O297 1.279 . S
C303 O304 1.315 . S
C303 O305 1.279 . S
O304 Cd296 2.223 . S
O304 C303 1.315 . S
O305 Cd295 2.240 . S
O305 C303 1.279 . S
O306 Cd296 2.297 1_554 S
O306 C301 1.247 . S
O307 Cd296 2.439 1_554 S
O307 C301 1.208 . S
O308 Cd309 2.223 . S
O308 C316 1.315 1_655 S
Cd309 O308 2.223 . S
Cd309 O312 2.297 . S
Cd309 O313 2.439 . S
Cd309 O319 2.240 . S
Cd310 O311 2.240 1_655 S
Cd310 O318 2.223 . S
Cd310 O320 2.297 . S
Cd310 O321 2.439 . S
O311 Cd310 2.240 1_455 S
O311 C316 1.279 . S
O312 Cd309 2.297 . S
O312 C314 1.247 . S
O313 Cd309 2.439 . S
O313 C314 1.208 . S
C314 O312 1.247 . S
C314 O313 1.208 . S
C315 O320 1.247 . S
C315 O321 1.208 . S
C316 O308 1.315 1_455 S
C316 O311 1.279 . S
C317 O318 1.315 . S
C317 O319 1.279 . S
O318 Cd310 2.223 . S
O318 C317 1.315 . S
O319 Cd309 2.240 . S
O319 C317 1.279 . S
O320 Cd310 2.297 . S
O320 C315 1.247 . S
O321 Cd310 2.439 . S
O321 C315 1.208 . S
O322 Cd323 2.223 . S
O322 C330 1.315 . S
Cd323 O322 2.223 . S
Cd323 O326 2.297 . S
Cd323 O327 2.439 . S
Cd323 O333 2.240 . S
Cd324 O325 2.240 . S
Cd324 O332 2.223 . S
Cd324 O334 2.297 . S
Cd324 O335 2.439 . S
O325 Cd324 2.240 . S
O325 C330 1.279 . S
O326 Cd323 2.297 . S
O326 C328 1.247 . S
O327 Cd323 2.439 . S
O327 C328 1.208 . S
C328 O326 1.247 . S
C328 O327 1.208 . S
C329 O334 1.247 . S
C329 O335 1.208 . S
C330 O322 1.315 . S
C330 O325 1.279 . S
C331 O332 1.315 . S
C331 O333 1.279 . S
O332 Cd324 2.223 . S
O332 C331 1.315 . S
O333 Cd323 2.240 . S
O333 C331 1.279 . S
O334 Cd324 2.297 . S
O334 C329 1.247 . S
O335 Cd324 2.439 . S
O335 C329 1.208 . S
O336 Cd337 2.223 . S
O336 C344 1.315 . S
Cd337 O336 2.223 . S
Cd337 O340 2.297 . S
Cd337 O341 2.439 . S
Cd337 O347 2.240 . S
Cd338 O339 2.240 . S
Cd338 O346 2.223 . S
Cd338 O348 2.297 . S
Cd338 O349 2.439 . S
O339 Cd338 2.240 . S
O339 C344 1.279 . S
O340 Cd337 2.297 . S
O340 C342 1.247 . S
O341 Cd337 2.439 . S
O341 C342 1.208 . S
C342 O340 1.247 . S
C342 O341 1.208 . S
C343 O348 1.247 . S
C343 O349 1.208 . S
C344 O336 1.315 . S
C344 O339 1.279 . S
C345 O346 1.315 . S
C345 O347 1.279 . S
O346 Cd338 2.223 . S
O346 C345 1.315 . S
O347 Cd337 2.240 . S
O347 C345 1.279 . S
O348 Cd338 2.297 . S
O348 C343 1.247 . S
O349 Cd338 2.439 . S
O349 C343 1.208 . S
O350 Cd351 2.223 . S
O350 C358 1.315 . S
Cd351 O350 2.223 . S
Cd351 O354 2.297 . S
Cd351 O355 2.439 . S
Cd351 O361 2.240 . S
Cd352 O353 2.240 . S
Cd352 O360 2.223 . S
Cd352 O362 2.297 1_556 S
Cd352 O363 2.439 1_556 S
O353 Cd352 2.240 . S
O353 C358 1.279 . S
O354 Cd351 2.297 . S
O354 C356 1.247 . S
O355 Cd351 2.439 . S
O355 C356 1.208 . S
C356 O354 1.247 . S
C356 O355 1.208 . S
C357 O362 1.247 . S
C357 O363 1.208 . S
C358 O350 1.315 . S
C358 O353 1.279 . S
C359 O360 1.315 . S
C359 O361 1.279 . S
O360 Cd352 2.223 . S
O360 C359 1.315 . S
O361 Cd351 2.240 . S
O361 C359 1.279 . S
O362 Cd352 2.297 1_554 S
O362 C357 1.247 . S
O363 Cd352 2.439 1_554 S
O363 C357 1.208 . S
O364 Cd365 2.223 . S
O364 C372 1.315 1_455 S
Cd365 O364 2.223 . S
Cd365 O368 2.297 . S
Cd365 O369 2.439 . S
Cd365 O375 2.240 . S
Cd366 O367 2.240 1_455 S
Cd366 O374 2.223 . S
Cd366 O376 2.297 . S
Cd366 O377 2.439 . S
O367 Cd366 2.240 1_655 S
O367 C372 1.279 . S
O368 Cd365 2.297 . S
O368 C370 1.247 . S
O369 Cd365 2.439 . S
O369 C370 1.208 . S
C370 O368 1.247 . S
C370 O369 1.208 . S
C371 O376 1.247 . S
C371 O377 1.208 . S
C372 O364 1.315 1_655 S
C372 O367 1.279 . S
C373 O374 1.315 . S
C373 O375 1.279 . S
O374 Cd366 2.223 . S
O374 C373 1.315 . S
O375 Cd365 2.240 . S
O375 C373 1.279 . S
O376 Cd366 2.297 . S
O376 C371 1.247 . S
O377 Cd366 2.439 . S
O377 C371 1.208 . S
O378 Cd379 2.223 . S
O378 C386 1.315 . S
Cd379 O378 2.223 . S
Cd379 O382 2.297 . S
Cd379 O383 2.439 . S
Cd379 O389 2.240 . S
Cd380 O381 2.240 . S
Cd380 O388 2.223 . S
Cd380 O390 2.297 . S
Cd380 O391 2.439 . S
O381 Cd380 2.240 . S
O381 C386 1.279 . S
O382 Cd379 2.297 . S
O382 C384 1.247 . S
O383 Cd379 2.439 . S
O383 C384 1.208 . S
C384 O382 1.247 . S
C384 O383 1.208 . S
C385 O390 1.247 . S
C385 O391 1.208 . S
C386 O378 1.315 . S
C386 O381 1.279 . S
C387 O388 1.315 . S
C387 O389 1.279 . S
O388 Cd380 2.223 . S
O388 C387 1.315 . S
O389 Cd379 2.240 . S
O389 C387 1.279 . S
O390 Cd380 2.297 . S
O390 C385 1.247 . S
O391 Cd380 2.439 . S
O391 C385 1.208 . S
O392 Cd393 2.223 . S
O392 C400 1.315 . S
Cd393 O392 2.223 . S
Cd393 O396 2.297 . S
Cd393 O397 2.439 . S
Cd393 O403 2.240 . S
Cd394 O395 2.240 . S
Cd394 O402 2.223 . S
Cd394 O404 2.297 . S
Cd394 O405 2.439 . S
O395 Cd394 2.240 . S
O395 C400 1.279 . S
O396 Cd393 2.297 . S
O396 C398 1.247 . S
O397 Cd393 2.439 . S
O397 C398 1.208 . S
C398 O396 1.247 . S
C398 O397 1.208 . S
C399 O404 1.247 . S
C399 O405 1.208 . S
C400 O392 1.315 . S
C400 O395 1.279 . S
C401 O402 1.315 . S
C401 O403 1.279 . S
O402 Cd394 2.223 . S
O402 C401 1.315 . S
O403 Cd393 2.240 . S
O403 C401 1.279 . S
O404 Cd394 2.297 . S
O404 C399 1.247 . S
O405 Cd394 2.439 . S
O405 C399 1.208 . S
O406 Cd407 2.223 . S
O406 C414 1.315 . S
Cd407 O406 2.223 . S
Cd407 O410 2.297 . S
Cd407 O411 2.439 . S
Cd407 O417 2.240 . S
Cd408 O409 2.240 . S
Cd408 O416 2.223 . S
Cd408 O418 2.297 1_554 S
Cd408 O419 2.439 1_554 S
O409 Cd408 2.240 . S
O409 C414 1.279 . S
O410 Cd407 2.297 . S
O410 C412 1.247 . S
O411 Cd407 2.439 . S
O411 C412 1.208 . S
C412 O410 1.247 . S
C412 O411 1.208 . S
C413 O418 1.247 . S
C413 O419 1.208 . S
C414 O406 1.315 . S
C414 O409 1.279 . S
C415 O416 1.315 . S
C415 O417 1.279 . S
O416 Cd408 2.223 . S
O416 C415 1.315 . S
O417 Cd407 2.240 . S
O417 C415 1.279 . S
O418 Cd408 2.297 1_556 S
O418 C413 1.247 . S
O419 Cd408 2.439 1_556 S
O419 C413 1.208 . S
O420 Cd421 2.223 . S
O420 C428 1.315 1_455 S
Cd421 O420 2.223 . S
Cd421 O424 2.297 . S
Cd421 O425 2.439 . S
Cd421 O431 2.240 . S
Cd422 O423 2.240 1_455 S
Cd422 O430 2.223 . S
Cd422 O432 2.297 . S
Cd422 O433 2.439 . S
O423 Cd422 2.240 1_655 S
O423 C428 1.279 . S
O424 Cd421 2.297 . S
O424 C426 1.247 . S
O425 Cd421 2.439 . S
O425 C426 1.208 . S
C426 O424 1.247 . S
C426 O425 1.208 . S
C427 O432 1.247 . S
C427 O433 1.208 . S
C428 O420 1.315 1_655 S
C428 O423 1.279 . S
C429 O430 1.315 . S
C429 O431 1.279 . S
O430 Cd422 2.223 . S
O430 C429 1.315 . S
O431 Cd421 2.240 . S
O431 C429 1.279 . S
O432 Cd422 2.297 . S
O432 C427 1.247 . S
O433 Cd422 2.439 . S
O433 C427 1.208 . S
O434 Cd435 2.223 . S
O434 C442 1.315 . S
Cd435 O434 2.223 . S
Cd435 O438 2.297 . S
Cd435 O439 2.439 . S
Cd435 O445 2.240 . S
Cd436 O437 2.240 . S
Cd436 O444 2.223 . S
Cd436 O446 2.297 . S
Cd436 O447 2.439 . S
O437 Cd436 2.240 . S
O437 C442 1.279 . S
O438 Cd435 2.297 . S
O438 C440 1.247 . S
O439 Cd435 2.439 . S
O439 C440 1.208 . S
C440 O438 1.247 . S
C440 O439 1.208 . S
C441 O446 1.247 . S
C441 O447 1.208 . S
C442 O434 1.315 . S
C442 O437 1.279 . S
C443 O444 1.315 . S
C443 O445 1.279 . S
O444 Cd436 2.223 . S
O444 C443 1.315 . S
O445 Cd435 2.240 . S
O445 C443 1.279 . S
O446 Cd436 2.297 . S
O446 C441 1.247 . S
O447 Cd436 2.439 . S
O447 C441 1.208 . S
C448 C449 1.387 . S
C448 H452 0.950 . S
C448 C457 1.390 . S
C449 C448 1.387 . S
C449 C451 1.387 . S
H450 C457 0.950 . S
C451 C449 1.387 . S
C451 C453 1.390 . S
C451 H455 0.950 . S
H452 C448 0.950 . S
C453 C451 1.390 . S
C453 C454 1.387 . S
C453 H456 0.950 . S
C454 C453 1.387 . S
C454 C457 1.387 . S
H455 C451 0.950 . S
H456 C453 0.950 . S
C457 C448 1.390 . S
C457 H450 0.950 . S
C457 C454 1.387 . S
C458 C459 1.387 . S
C458 H462 0.950 . S
C458 C467 1.390 . S
C459 C458 1.387 . S
C459 C461 1.387 . S
H460 C467 0.950 . S
C461 C459 1.387 . S
C461 C463 1.390 . S
C461 H465 0.950 . S
H462 C458 0.950 . S
C463 C461 1.390 . S
C463 C464 1.387 . S
C463 H466 0.950 . S
C464 C463 1.387 . S
C464 C467 1.387 . S
H465 C461 0.950 . S
H466 C463 0.950 . S
C467 C458 1.390 . S
C467 H460 0.950 . S
C467 C464 1.387 . S
C468 C469 1.387 . S
C468 H472 0.950 . S
C468 C477 1.390 . S
C469 C468 1.387 . S
C469 C471 1.387 . S
H470 C477 0.950 . S
C471 C469 1.387 . S
C471 C473 1.390 . S
C471 H475 0.950 . S
H472 C468 0.950 . S
C473 C471 1.390 . S
C473 C474 1.387 . S
C473 H476 0.950 . S
C474 C473 1.387 . S
C474 C477 1.387 . S
H475 C471 0.950 . S
H476 C473 0.950 . S
C477 C468 1.390 . S
C477 H470 0.950 . S
C477 C474 1.387 . S
C478 C479 1.387 . S
C478 H482 0.950 . S
C478 C487 1.390 . S
C479 C478 1.387 . S
C479 C481 1.387 . S
H480 C487 0.950 . S
C481 C479 1.387 . S
C481 C483 1.390 . S
C481 H485 0.950 . S
H482 C478 0.950 . S
C483 C481 1.390 . S
C483 C484 1.387 . S
C483 H486 0.950 . S
C484 C483 1.387 . S
C484 C487 1.387 . S
H485 C481 0.950 . S
H486 C483 0.950 . S
C487 C478 1.390 . S
C487 H480 0.950 . S
C487 C484 1.387 . S
C488 C489 1.387 . S
C488 H492 0.950 . S
C488 C497 1.390 . S
C489 C488 1.387 . S
C489 C491 1.387 . S
H490 C497 0.950 . S
C491 C489 1.387 . S
C491 C493 1.390 . S
C491 H495 0.950 . S
H492 C488 0.950 . S
C493 C491 1.390 . S
C493 C494 1.387 . S
C493 H496 0.950 . S
C494 C493 1.387 . S
C494 C497 1.387 . S
H495 C491 0.950 . S
H496 C493 0.950 . S
C497 C488 1.390 . S
C497 H490 0.950 . S
C497 C494 1.387 . S
C498 C499 1.387 . S
C498 H502 0.950 . S
C498 C507 1.390 . S
C499 C498 1.387 . S
C499 C501 1.387 . S
H500 C507 0.950 . S
C501 C499 1.387 . S
C501 C503 1.390 . S
C501 H505 0.950 . S
H502 C498 0.950 . S
C503 C501 1.390 . S
C503 C504 1.387 . S
C503 H506 0.950 . S
C504 C503 1.387 . S
C504 C507 1.387 . S
H505 C501 0.950 . S
H506 C503 0.950 . S
C507 C498 1.390 . S
C507 H500 0.950 . S
C507 C504 1.387 . S
C508 C509 1.387 . S
C508 H512 0.950 . S
C508 C517 1.390 . S
C509 C508 1.387 . S
C509 C511 1.387 . S
H510 C517 0.950 . S
C511 C509 1.387 . S
C511 C513 1.390 . S
C511 H515 0.950 . S
H512 C508 0.950 . S
C513 C511 1.390 . S
C513 C514 1.387 . S
C513 H516 0.950 . S
C514 C513 1.387 . S
C514 C517 1.387 . S
H515 C511 0.950 . S
H516 C513 0.950 . S
C517 C508 1.390 . S
C517 H510 0.950 . S
C517 C514 1.387 . S
C518 C519 1.387 . S
C518 H522 0.950 . S
C518 C527 1.390 . S
C519 C518 1.387 . S
C519 C521 1.387 . S
H520 C527 0.950 . S
C521 C519 1.387 . S
C521 C523 1.390 . S
C521 H525 0.950 . S
H522 C518 0.950 . S
C523 C521 1.390 . S
C523 C524 1.387 . S
C523 H526 0.950 . S
C524 C523 1.387 . S
C524 C527 1.387 . S
H525 C521 0.950 . S
H526 C523 0.950 . S
C527 C518 1.390 . S
C527 H520 0.950 . S
C527 C524 1.387 . S
C528 C529 1.387 . S
C528 H532 0.950 . S
C528 C537 1.390 . S
C529 C528 1.387 . S
C529 C531 1.387 . S
H530 C537 0.950 . S
C531 C529 1.387 . S
C531 C533 1.390 . S
C531 H535 0.950 . S
H532 C528 0.950 . S
C533 C531 1.390 . S
C533 C534 1.387 . S
C533 H536 0.950 . S
C534 C533 1.387 . S
C534 C537 1.387 . S
H535 C531 0.950 . S
H536 C533 0.950 . S
C537 C528 1.390 . S
C537 H530 0.950 . S
C537 C534 1.387 . S
C538 C539 1.387 . S
C538 H542 0.950 . S
C538 C547 1.390 . S
C539 C538 1.387 . S
C539 C541 1.387 . S
H540 C547 0.950 . S
C541 C539 1.387 . S
C541 C543 1.390 . S
C541 H545 0.950 . S
H542 C538 0.950 . S
C543 C541 1.390 . S
C543 C544 1.387 . S
C543 H546 0.950 . S
C544 C543 1.387 . S
C544 C547 1.387 . S
H545 C541 0.950 . S
H546 C543 0.950 . S
C547 C538 1.390 . S
C547 H540 0.950 . S
C547 C544 1.387 . S
C548 C549 1.387 . S
C548 H552 0.950 . S
C548 C557 1.390 . S
C549 C548 1.387 . S
C549 C551 1.387 . S
H550 C557 0.950 . S
C551 C549 1.387 . S
C551 C553 1.390 . S
C551 H555 0.950 . S
H552 C548 0.950 . S
C553 C551 1.390 . S
C553 C554 1.387 . S
C553 H556 0.950 . S
C554 C553 1.387 . S
C554 C557 1.387 . S
H555 C551 0.950 . S
H556 C553 0.950 . S
C557 C548 1.390 . S
C557 H550 0.950 . S
C557 C554 1.387 . S
C558 C559 1.387 . S
C558 H562 0.950 . S
C558 C567 1.390 . S
C559 C558 1.387 . S
C559 C561 1.387 . S
H560 C567 0.950 . S
C561 C559 1.387 . S
C561 C563 1.390 . S
C561 H565 0.950 . S
H562 C558 0.950 . S
C563 C561 1.390 . S
C563 C564 1.387 . S
C563 H566 0.950 . S
C564 C563 1.387 . S
C564 C567 1.387 . S
H565 C561 0.950 . S
H566 C563 0.950 . S
C567 C558 1.390 . S
C567 H560 0.950 . S
C567 C564 1.387 . S
C568 C569 1.387 . S
C568 H572 0.950 . S
C568 C577 1.390 . S
C569 C568 1.387 . S
C569 C571 1.387 . S
H570 C577 0.950 . S
C571 C569 1.387 . S
C571 C573 1.390 . S
C571 H575 0.950 . S
H572 C568 0.950 . S
C573 C571 1.390 . S
C573 C574 1.387 . S
C573 H576 0.950 . S
C574 C573 1.387 . S
C574 C577 1.387 . S
H575 C571 0.950 . S
H576 C573 0.950 . S
C577 C568 1.390 . S
C577 H570 0.950 . S
C577 C574 1.387 . S
C578 C579 1.387 . S
C578 H582 0.950 . S
C578 C587 1.390 . S
C579 C578 1.387 . S
C579 C581 1.387 . S
H580 C587 0.950 . S
C581 C579 1.387 . S
C581 C583 1.390 . S
C581 H585 0.950 . S
H582 C578 0.950 . S
C583 C581 1.390 . S
C583 C584 1.387 . S
C583 H586 0.950 . S
C584 C583 1.387 . S
C584 C587 1.387 . S
H585 C581 0.950 . S
H586 C583 0.950 . S
C587 C578 1.390 . S
C587 H580 0.950 . S
C587 C584 1.387 . S
C588 C589 1.387 . S
C588 H592 0.950 . S
C588 C597 1.390 . S
C589 C588 1.387 . S
C589 C591 1.387 . S
H590 C597 0.950 . S
C591 C589 1.387 . S
C591 C593 1.390 . S
C591 H595 0.950 . S
H592 C588 0.950 . S
C593 C591 1.390 . S
C593 C594 1.387 . S
C593 H596 0.950 . S
C594 C593 1.387 . S
C594 C597 1.387 . S
H595 C591 0.950 . S
H596 C593 0.950 . S
C597 C588 1.390 . S
C597 H590 0.950 . S
C597 C594 1.387 . S
C598 C599 1.387 . S
C598 H602 0.950 . S
C598 C607 1.390 . S
C599 C598 1.387 . S
C599 C601 1.387 . S
H600 C607 0.950 . S
C601 C599 1.387 . S
C601 C603 1.390 . S
C601 H605 0.950 . S
H602 C598 0.950 . S
C603 C601 1.390 . S
C603 C604 1.387 . S
C603 H606 0.950 . S
C604 C603 1.387 . S
C604 C607 1.387 . S
H605 C601 0.950 . S
H606 C603 0.950 . S
C607 C598 1.390 . S
C607 H600 0.950 . S
C607 C604 1.387 . S
C608 C609 1.387 . S
C608 H612 0.950 . S
C608 C617 1.390 . S
C609 C608 1.387 . S
C609 C611 1.387 . S
H610 C617 0.950 . S
C611 C609 1.387 . S
C611 C613 1.390 . S
C611 H615 0.950 . S
H612 C608 0.950 . S
C613 C611 1.390 . S
C613 C614 1.387 . S
C613 H616 0.950 . S
C614 C613 1.387 . S
C614 C617 1.387 . S
H615 C611 0.950 . S
H616 C613 0.950 . S
C617 C608 1.390 . S
C617 H610 0.950 . S
C617 C614 1.387 . S
C618 C619 1.387 . S
C618 H622 0.950 . S
C618 C627 1.390 . S
C619 C618 1.387 . S
C619 C621 1.387 . S
H620 C627 0.950 . S
C621 C619 1.387 . S
C621 C623 1.390 . S
C621 H625 0.950 . S
H622 C618 0.950 . S
C623 C621 1.390 . S
C623 C624 1.387 . S
C623 H626 0.950 . S
C624 C623 1.387 . S
C624 C627 1.387 . S
H625 C621 0.950 . S
H626 C623 0.950 . S
C627 C618 1.390 . S
C627 H620 0.950 . S
C627 C624 1.387 . S
C628 C629 1.387 . S
C628 H632 0.950 . S
C628 C637 1.390 . S
C629 C628 1.387 . S
C629 C631 1.387 . S
H630 C637 0.950 . S
C631 C629 1.387 . S
C631 C633 1.390 . S
C631 H635 0.950 . S
H632 C628 0.950 . S
C633 C631 1.390 . S
C633 C634 1.387 . S
C633 H636 0.950 . S
C634 C633 1.387 . S
C634 C637 1.387 . S
H635 C631 0.950 . S
H636 C633 0.950 . S
C637 C628 1.390 . S
C637 H630 0.950 . S
C637 C634 1.387 . S
C638 C639 1.387 . S
C638 H642 0.950 . S
C638 C647 1.390 . S
C639 C638 1.387 . S
C639 C641 1.387 . S
H640 C647 0.950 . S
C641 C639 1.387 . S
C641 C643 1.390 . S
C641 H645 0.950 . S
H642 C638 0.950 . S
C643 C641 1.390 . S
C643 C644 1.387 . S
C643 H646 0.950 . S
C644 C643 1.387 . S
C644 C647 1.387 . S
H645 C641 0.950 . S
H646 C643 0.950 . S
C647 C638 1.390 . S
C647 H640 0.950 . S
C647 C644 1.387 . S
C648 C649 1.387 . S
C648 H652 0.950 . S
C648 C657 1.390 . S
C649 C648 1.387 . S
C649 C651 1.387 . S
H650 C657 0.950 . S
C651 C649 1.387 . S
C651 C653 1.390 . S
C651 H655 0.950 . S
H652 C648 0.950 . S
C653 C651 1.390 . S
C653 C654 1.387 . S
C653 H656 0.950 . S
C654 C653 1.387 . S
C654 C657 1.387 . S
H655 C651 0.950 . S
H656 C653 0.950 . S
C657 C648 1.390 . S
C657 H650 0.950 . S
C657 C654 1.387 . S
C658 C659 1.387 . S
C658 H662 0.950 . S
C658 C667 1.390 . S
C659 C658 1.387 . S
C659 C661 1.387 . S
H660 C667 0.950 . S
C661 C659 1.387 . S
C661 C663 1.390 . S
C661 H665 0.950 . S
H662 C658 0.950 . S
C663 C661 1.390 . S
C663 C664 1.387 . S
C663 H666 0.950 . S
C664 C663 1.387 . S
C664 C667 1.387 . S
H665 C661 0.950 . S
H666 C663 0.950 . S
C667 C658 1.390 . S
C667 H660 0.950 . S
C667 C664 1.387 . S
C668 C669 1.387 . S
C668 H672 0.950 . S
C668 C677 1.390 . S
C669 C668 1.387 . S
C669 C671 1.387 . S
H670 C677 0.950 . S
C671 C669 1.387 . S
C671 C673 1.390 . S
C671 H675 0.950 . S
H672 C668 0.950 . S
C673 C671 1.390 . S
C673 C674 1.387 . S
C673 H676 0.950 . S
C674 C673 1.387 . S
C674 C677 1.387 . S
H675 C671 0.950 . S
H676 C673 0.950 . S
C677 C668 1.390 . S
C677 H670 0.950 . S
C677 C674 1.387 . S
C678 C679 1.387 . S
C678 H682 0.950 . S
C678 C687 1.390 . S
C679 C678 1.387 . S
C679 C681 1.387 . S
H680 C687 0.950 . S
C681 C679 1.387 . S
C681 C683 1.390 . S
C681 H685 0.950 . S
H682 C678 0.950 . S
C683 C681 1.390 . S
C683 C684 1.387 . S
C683 H686 0.950 . S
C684 C683 1.387 . S
C684 C687 1.387 . S
H685 C681 0.950 . S
H686 C683 0.950 . S
C687 C678 1.390 . S
C687 H680 0.950 . S
C687 C684 1.387 . S
C688 C689 1.387 . S
C688 H692 0.950 . S
C688 C697 1.390 . S
C689 C688 1.387 . S
C689 C691 1.387 . S
H690 C697 0.950 . S
C691 C689 1.387 . S
C691 C693 1.390 . S
C691 H695 0.950 . S
H692 C688 0.950 . S
C693 C691 1.390 . S
C693 C694 1.387 . S
C693 H696 0.950 . S
C694 C693 1.387 . S
C694 C697 1.387 . S
H695 C691 0.950 . S
H696 C693 0.950 . S
C697 C688 1.390 . S
C697 H690 0.950 . S
C697 C694 1.387 . S
C698 C699 1.387 . S
C698 H702 0.950 . S
C698 C707 1.390 . S
C699 C698 1.387 . S
C699 C701 1.387 . S
H700 C707 0.950 . S
C701 C699 1.387 . S
C701 C703 1.390 . S
C701 H705 0.950 . S
H702 C698 0.950 . S
C703 C701 1.390 . S
C703 C704 1.387 . S
C703 H706 0.950 . S
C704 C703 1.387 . S
C704 C707 1.387 . S
H705 C701 0.950 . S
H706 C703 0.950 . S
C707 C698 1.390 . S
C707 H700 0.950 . S
C707 C704 1.387 . S
C708 C709 1.387 . S
C708 H712 0.950 . S
C708 C717 1.390 . S
C709 C708 1.387 . S
C709 C711 1.387 . S
H710 C717 0.950 . S
C711 C709 1.387 . S
C711 C713 1.390 . S
C711 H715 0.950 . S
H712 C708 0.950 . S
C713 C711 1.390 . S
C713 C714 1.387 . S
C713 H716 0.950 . S
C714 C713 1.387 . S
C714 C717 1.387 . S
H715 C711 0.950 . S
H716 C713 0.950 . S
C717 C708 1.390 . S
C717 H710 0.950 . S
C717 C714 1.387 . S
C718 C719 1.387 . S
C718 H722 0.950 . S
C718 C727 1.390 . S
C719 C718 1.387 . S
C719 C721 1.387 . S
H720 C727 0.950 . S
C721 C719 1.387 . S
C721 C723 1.390 . S
C721 H725 0.950 . S
H722 C718 0.950 . S
C723 C721 1.390 . S
C723 C724 1.387 . S
C723 H726 0.950 . S
C724 C723 1.387 . S
C724 C727 1.387 . S
H725 C721 0.950 . S
H726 C723 0.950 . S
C727 C718 1.390 . S
C727 H720 0.950 . S
C727 C724 1.387 . S
C728 C729 1.387 . S
C728 H732 0.950 . S
C728 C737 1.390 . S
C729 C728 1.387 . S
C729 C731 1.387 . S
H730 C737 0.950 . S
C731 C729 1.387 . S
C731 C733 1.390 . S
C731 H735 0.950 . S
H732 C728 0.950 . S
C733 C731 1.390 . S
C733 C734 1.387 . S
C733 H736 0.950 . S
C734 C733 1.387 . S
C734 C737 1.387 . S
H735 C731 0.950 . S
H736 C733 0.950 . S
C737 C728 1.390 . S
C737 H730 0.950 . S
C737 C734 1.387 . S
C738 C739 1.387 . S
C738 H742 0.950 . S
C738 C747 1.390 . S
C739 C738 1.387 . S
C739 C741 1.387 . S
H740 C747 0.950 . S
C741 C739 1.387 . S
C741 C743 1.390 . S
C741 H745 0.950 . S
H742 C738 0.950 . S
C743 C741 1.390 . S
C743 C744 1.387 . S
C743 H746 0.950 . S
C744 C743 1.387 . S
C744 C747 1.387 . S
H745 C741 0.950 . S
H746 C743 0.950 . S
C747 C738 1.390 . S
C747 H740 0.950 . S
C747 C744 1.387 . S
C748 C749 1.387 . S
C748 H752 0.950 . S
C748 C757 1.390 . S
C749 C748 1.387 . S
C749 C751 1.387 . S
H750 C757 0.950 . S
C751 C749 1.387 . S
C751 C753 1.390 . S
C751 H755 0.950 . S
H752 C748 0.950 . S
C753 C751 1.390 . S
C753 C754 1.387 . S
C753 H756 0.950 . S
C754 C753 1.387 . S
C754 C757 1.387 . S
H755 C751 0.950 . S
H756 C753 0.950 . S
C757 C748 1.390 . S
C757 H750 0.950 . S
C757 C754 1.387 . S
C758 C759 1.387 . S
C758 H762 0.950 . S
C758 C767 1.390 . S
C759 C758 1.387 . S
C759 C761 1.387 . S
H760 C767 0.950 . S
C761 C759 1.387 . S
C761 C763 1.390 . S
C761 H765 0.950 . S
H762 C758 0.950 . S
C763 C761 1.390 . S
C763 C764 1.387 . S
C763 H766 0.950 . S
C764 C763 1.387 . S
C764 C767 1.387 . S
H765 C761 0.950 . S
H766 C763 0.950 . S
C767 C758 1.390 . S
C767 H760 0.950 . S
C767 C764 1.387 . S
C768 C769 1.387 . S
C768 H772 0.950 . S
C768 C777 1.390 . S
C769 C768 1.387 . S
C769 C771 1.387 . S
H770 C777 0.950 . S
C771 C769 1.387 . S
C771 C773 1.390 . S
C771 H775 0.950 . S
H772 C768 0.950 . S
C773 C771 1.390 . S
C773 C774 1.387 . S
C773 H776 0.950 . S
C774 C773 1.387 . S
C774 C777 1.387 . S
H775 C771 0.950 . S
H776 C773 0.950 . S
C777 C768 1.390 . S
C777 H770 0.950 . S
C777 C774 1.387 . S
C778 C779 1.387 . S
C778 H782 0.950 . S
C778 C787 1.390 . S
C779 C778 1.387 . S
C779 C781 1.387 . S
H780 C787 0.950 . S
C781 C779 1.387 . S
C781 C783 1.390 . S
C781 H785 0.950 . S
H782 C778 0.950 . S
C783 C781 1.390 . S
C783 C784 1.387 . S
C783 H786 0.950 . S
C784 C783 1.387 . S
C784 C787 1.387 . S
H785 C781 0.950 . S
H786 C783 0.950 . S
C787 C778 1.390 . S
C787 H780 0.950 . S
C787 C784 1.387 . S
C788 C789 1.387 . S
C788 H792 0.950 . S
C788 C797 1.390 . S
C789 C788 1.387 . S
C789 C791 1.387 . S
H790 C797 0.950 . S
C791 C789 1.387 . S
C791 C793 1.390 . S
C791 H795 0.950 . S
H792 C788 0.950 . S
C793 C791 1.390 . S
C793 C794 1.387 . S
C793 H796 0.950 . S
C794 C793 1.387 . S
C794 C797 1.387 . S
H795 C791 0.950 . S
H796 C793 0.950 . S
C797 C788 1.390 . S
C797 H790 0.950 . S
C797 C794 1.387 . S
C798 C799 1.387 . S
C798 H802 0.950 . S
C798 C807 1.390 . S
C799 C798 1.387 . S
C799 C801 1.387 . S
H800 C807 0.950 . S
C801 C799 1.387 . S
C801 C803 1.390 . S
C801 H805 0.950 . S
H802 C798 0.950 . S
C803 C801 1.390 . S
C803 C804 1.387 . S
C803 H806 0.950 . S
C804 C803 1.387 . S
C804 C807 1.387 . S
H805 C801 0.950 . S
H806 C803 0.950 . S
C807 C798 1.390 . S
C807 H800 0.950 . S
C807 C804 1.387 . S
C808 C809 1.387 . S
C808 H812 0.950 . S
C808 C817 1.390 . S
C809 C808 1.387 . S
C809 C811 1.387 . S
H810 C817 0.950 . S
C811 C809 1.387 . S
C811 C813 1.390 . S
C811 H815 0.950 . S
H812 C808 0.950 . S
C813 C811 1.390 . S
C813 C814 1.387 . S
C813 H816 0.950 . S
C814 C813 1.387 . S
C814 C817 1.387 . S
H815 C811 0.950 . S
H816 C813 0.950 . S
C817 C808 1.390 . S
C817 H810 0.950 . S
C817 C814 1.387 . S
C818 C819 1.387 . S
C818 H822 0.950 . S
C818 C827 1.390 . S
C819 C818 1.387 . S
C819 C821 1.387 . S
H820 C827 0.950 . S
C821 C819 1.387 . S
C821 C823 1.390 . S
C821 H825 0.950 . S
H822 C818 0.950 . S
C823 C821 1.390 . S
C823 C824 1.387 . S
C823 H826 0.950 . S
C824 C823 1.387 . S
C824 C827 1.387 . S
H825 C821 0.950 . S
H826 C823 0.950 . S
C827 C818 1.390 . S
C827 H820 0.950 . S
C827 C824 1.387 . S
C828 C829 1.387 . S
C828 H832 0.950 . S
C828 C837 1.390 . S
C829 C828 1.387 . S
C829 C831 1.387 . S
H830 C837 0.950 . S
C831 C829 1.387 . S
C831 C833 1.390 . S
C831 H835 0.950 . S
H832 C828 0.950 . S
C833 C831 1.390 . S
C833 C834 1.387 . S
C833 H836 0.950 . S
C834 C833 1.387 . S
C834 C837 1.387 . S
H835 C831 0.950 . S
H836 C833 0.950 . S
C837 C828 1.390 . S
C837 H830 0.950 . S
C837 C834 1.387 . S
C838 C839 1.387 . S
C838 H842 0.950 . S
C838 C847 1.390 . S
C839 C838 1.387 . S
C839 C841 1.387 . S
H840 C847 0.950 . S
C841 C839 1.387 . S
C841 C843 1.390 . S
C841 H845 0.950 . S
H842 C838 0.950 . S
C843 C841 1.390 . S
C843 C844 1.387 . S
C843 H846 0.950 . S
C844 C843 1.387 . S
C844 C847 1.387 . S
H845 C841 0.950 . S
H846 C843 0.950 . S
C847 C838 1.390 . S
C847 H840 0.950 . S
C847 C844 1.387 . S
C848 C849 1.387 . S
C848 H852 0.950 . S
C848 C857 1.390 . S
C849 C848 1.387 . S
C849 C851 1.387 . S
H850 C857 0.950 . S
C851 C849 1.387 . S
C851 C853 1.390 . S
C851 H855 0.950 . S
H852 C848 0.950 . S
C853 C851 1.390 . S
C853 C854 1.387 . S
C853 H856 0.950 . S
C854 C853 1.387 . S
C854 C857 1.387 . S
H855 C851 0.950 . S
H856 C853 0.950 . S
C857 C848 1.390 . S
C857 H850 0.950 . S
C857 C854 1.387 . S
C858 C859 1.387 . S
C858 H862 0.950 . S
C858 C867 1.390 . S
C859 C858 1.387 . S
C859 C861 1.387 . S
H860 C867 0.950 . S
C861 C859 1.387 . S
C861 C863 1.390 . S
C861 H865 0.950 . S
H862 C858 0.950 . S
C863 C861 1.390 . S
C863 C864 1.387 . S
C863 H866 0.950 . S
C864 C863 1.387 . S
C864 C867 1.387 . S
H865 C861 0.950 . S
H866 C863 0.950 . S
C867 C858 1.390 . S
C867 H860 0.950 . S
C867 C864 1.387 . S
C868 C869 1.387 . S
C868 H872 0.950 . S
C868 C877 1.390 . S
C869 C868 1.387 . S
C869 C871 1.387 . S
H870 C877 0.950 . S
C871 C869 1.387 . S
C871 C873 1.390 . S
C871 H875 0.950 . S
H872 C868 0.950 . S
C873 C871 1.390 . S
C873 C874 1.387 . S
C873 H876 0.950 . S
C874 C873 1.387 . S
C874 C877 1.387 . S
H875 C871 0.950 . S
H876 C873 0.950 . S
C877 C868 1.390 . S
C877 H870 0.950 . S
C877 C874 1.387 . S
C878 C879 1.387 . S
C878 H882 0.950 . S
C878 C887 1.390 . S
C879 C878 1.387 . S
C879 C881 1.387 . S
H880 C887 0.950 . S
C881 C879 1.387 . S
C881 C883 1.390 . S
C881 H885 0.950 . S
H882 C878 0.950 . S
C883 C881 1.390 . S
C883 C884 1.387 . S
C883 H886 0.950 . S
C884 C883 1.387 . S
C884 C887 1.387 . S
H885 C881 0.950 . S
H886 C883 0.950 . S
C887 C878 1.390 . S
C887 H880 0.950 . S
C887 C884 1.387 . S
C888 C889 1.387 . S
C888 H892 0.950 . S
C888 C897 1.390 . S
C889 C888 1.387 . S
C889 C891 1.387 . S
H890 C897 0.950 . S
C891 C889 1.387 . S
C891 C893 1.390 . S
C891 H895 0.950 . S
H892 C888 0.950 . S
C893 C891 1.390 . S
C893 C894 1.387 . S
C893 H896 0.950 . S
C894 C893 1.387 . S
C894 C897 1.387 . S
H895 C891 0.950 . S
H896 C893 0.950 . S
C897 C888 1.390 . S
C897 H890 0.950 . S
C897 C894 1.387 . S
C898 C899 1.387 . S
C898 H902 0.950 . S
C898 C907 1.390 . S
C899 C898 1.387 . S
C899 C901 1.387 . S
H900 C907 0.950 . S
C901 C899 1.387 . S
C901 C903 1.390 . S
C901 H905 0.950 . S
H902 C898 0.950 . S
C903 C901 1.390 . S
C903 C904 1.387 . S
C903 H906 0.950 . S
C904 C903 1.387 . S
C904 C907 1.387 . S
H905 C901 0.950 . S
H906 C903 0.950 . S
C907 C898 1.390 . S
C907 H900 0.950 . S
C907 C904 1.387 . S
C908 C909 1.387 . S
C908 H912 0.950 . S
C908 C917 1.390 . S
C909 C908 1.387 . S
C909 C911 1.387 . S
H910 C917 0.950 . S
C911 C909 1.387 . S
C911 C913 1.390 . S
C911 H915 0.950 . S
H912 C908 0.950 . S
C913 C911 1.390 . S
C913 C914 1.387 . S
C913 H916 0.950 . S
C914 C913 1.387 . S
C914 C917 1.387 . S
H915 C911 0.950 . S
H916 C913 0.950 . S
C917 C908 1.390 . S
C917 H910 0.950 . S
C917 C914 1.387 . S
C918 C919 1.387 . S
C918 H922 0.950 . S
C918 C927 1.390 . S
C919 C918 1.387 . S
C919 C921 1.387 . S
H920 C927 0.950 . S
C921 C919 1.387 . S
C921 C923 1.390 . S
C921 H925 0.950 . S
H922 C918 0.950 . S
C923 C921 1.390 . S
C923 C924 1.387 . S
C923 H926 0.950 . S
C924 C923 1.387 . S
C924 C927 1.387 . S
H925 C921 0.950 . S
H926 C923 0.950 . S
C927 C918 1.390 . S
C927 H920 0.950 . S
C927 C924 1.387 . S
C928 C929 1.375 1_655 S
C928 H932 0.962 . S
C928 C937 1.390 . S
C929 C928 1.375 1_455 S
C929 C931 1.387 . S
H930 C937 0.962 . S
C931 C929 1.387 . S
C931 C933 1.390 . S
C931 H935 0.950 . S
H932 C928 0.962 . S
C933 C931 1.390 . S
C933 C934 1.387 . S
C933 H936 0.950 . S
C934 C933 1.387 . S
C934 C937 1.375 1_455 S
H935 C931 0.950 . S
H936 C933 0.950 . S
C937 C928 1.390 . S
C937 H930 0.962 . S
C937 C934 1.375 1_655 S
C938 C939 1.387 . S
C938 H942 0.950 . S
C938 C947 1.390 . S
C939 C938 1.387 . S
C939 C941 1.387 . S
H940 C947 0.950 . S
C941 C939 1.387 . S
C941 C943 1.390 . S
C941 H945 0.950 . S
H942 C938 0.950 . S
C943 C941 1.390 . S
C943 C944 1.387 . S
C943 H946 0.950 . S
C944 C943 1.387 . S
C944 C947 1.387 . S
H945 C941 0.950 . S
H946 C943 0.950 . S
C947 C938 1.390 . S
C947 H940 0.950 . S
C947 C944 1.387 . S
C948 C949 1.387 . S
C948 H952 0.950 . S
C948 C957 1.390 . S
C949 C948 1.387 . S
C949 C951 1.387 . S
H950 C957 0.950 . S
C951 C949 1.387 . S
C951 C953 1.390 . S
C951 H955 0.950 . S
H952 C948 0.950 . S
C953 C951 1.390 . S
C953 C954 1.387 . S
C953 H956 0.950 . S
C954 C953 1.387 . S
C954 C957 1.387 . S
H955 C951 0.950 . S
H956 C953 0.950 . S
C957 C948 1.390 . S
C957 H950 0.950 . S
C957 C954 1.387 . S
C958 C959 1.387 . S
C958 H962 0.950 . S
C958 C967 1.390 1_556 S
C959 C958 1.387 . S
C959 C961 1.387 . S
H960 C967 0.950 . S
C961 C959 1.387 . S
C961 C963 1.390 1_556 S
C961 H965 0.950 . S
H962 C958 0.950 . S
C963 C961 1.390 1_554 S
C963 C964 1.387 . S
C963 H966 0.950 . S
C964 C963 1.387 . S
C964 C967 1.387 . S
H965 C961 0.950 . S
H966 C963 0.950 . S
C967 C958 1.390 1_554 S
C967 H960 0.950 . S
C967 C964 1.387 . S
C968 C969 1.375 1_455 S
C968 H972 0.962 . S
C968 C977 1.390 . S
C969 C968 1.375 1_655 S
C969 C971 1.387 . S
H970 C977 0.962 . S
C971 C969 1.387 . S
C971 C973 1.390 . S
C971 H975 0.950 . S
H972 C968 0.962 . S
C973 C971 1.390 . S
C973 C974 1.387 . S
C973 H976 0.950 . S
C974 C973 1.387 . S
C974 C977 1.375 1_655 S
H975 C971 0.950 . S
H976 C973 0.950 . S
C977 C968 1.390 . S
C977 H970 0.962 . S
C977 C974 1.375 1_455 S
C978 C979 1.387 . S
C978 H982 0.950 . S
C978 C987 1.390 . S
C979 C978 1.387 . S
C979 C981 1.387 . S
H980 C987 0.950 . S
C981 C979 1.387 . S
C981 C983 1.390 . S
C981 H985 0.950 . S
H982 C978 0.950 . S
C983 C981 1.390 . S
C983 C984 1.387 . S
C983 H986 0.950 . S
C984 C983 1.387 . S
C984 C987 1.387 . S
H985 C981 0.950 . S
H986 C983 0.950 . S
C987 C978 1.390 . S
C987 H980 0.950 . S
C987 C984 1.387 . S
C988 C989 1.387 . S
C988 H992 0.950 . S
C988 C997 1.390 . S
C989 C988 1.387 . S
C989 C991 1.387 . S
H990 C997 0.950 . S
C991 C989 1.387 . S
C991 C993 1.390 . S
C991 H995 0.950 . S
H992 C988 0.950 . S
C993 C991 1.390 . S
C993 C994 1.387 . S
C993 H996 0.950 . S
C994 C993 1.387 . S
C994 C997 1.387 . S
H995 C991 0.950 . S
H996 C993 0.950 . S
C997 C988 1.390 . S
C997 H990 0.950 . S
C997 C994 1.387 . S
C998 C999 1.387 . S
C998 H1002 0.950 . S
C998 C1007 1.390 1_554 S
C999 C998 1.387 . S
C999 C1001 1.387 . S
H1000 C1007 0.950 . S
C1001 C999 1.387 . S
C1001 C1003 1.390 1_554 S
C1001 H1005 0.950 . S
H1002 C998 0.950 . S
C1003 C1001 1.390 1_556 S
C1003 C1004 1.387 . S
C1003 H1006 0.950 . S
C1004 C1003 1.387 . S
C1004 C1007 1.387 . S
H1005 C1001 0.950 . S
H1006 C1003 0.950 . S
C1007 C998 1.390 1_556 S
C1007 H1000 0.950 . S
C1007 C1004 1.387 . S
C1008 C1009 1.387 . S
C1008 H1012 0.950 . S
C1008 C1017 1.390 1_565 S
C1009 C1008 1.387 . S
C1009 C1011 1.387 . S
H1010 C1017 0.950 . S
C1011 C1009 1.387 . S
C1011 C1013 1.390 1_565 S
C1011 H1015 0.950 . S
H1012 C1008 0.950 . S
C1013 C1011 1.390 1_545 S
C1013 C1014 1.387 . S
C1013 H1016 0.950 . S
C1014 C1013 1.387 . S
C1014 C1017 1.387 . S
H1015 C1011 0.950 . S
H1016 C1013 0.950 . S
C1017 C1008 1.390 1_545 S
C1017 H1010 0.950 . S
C1017 C1014 1.387 . S
C1018 C1019 1.387 . S
C1018 H1022 0.950 . S
C1018 C1027 1.390 1_554 S
C1019 C1018 1.387 . S
C1019 C1021 1.387 . S
H1020 C1027 0.950 . S
C1021 C1019 1.387 . S
C1021 C1023 1.390 1_554 S
C1021 H1025 0.950 . S
H1022 C1018 0.950 . S
C1023 C1021 1.390 1_556 S
C1023 C1024 1.387 . S
C1023 H1026 0.950 . S
C1024 C1023 1.387 . S
C1024 C1027 1.387 . S
H1025 C1021 0.950 . S
H1026 C1023 0.950 . S
C1027 C1018 1.390 1_556 S
C1027 H1020 0.950 . S
C1027 C1024 1.387 . S
C1028 C1029 1.375 1_455 S
C1028 H1032 0.962 . S
C1028 C1037 1.390 1_545 S
C1029 C1028 1.375 1_655 S
C1029 C1031 1.387 . S
H1030 C1037 0.962 . S
C1031 C1029 1.387 . S
C1031 C1033 1.390 1_545 S
C1031 H1035 0.950 . S
H1032 C1028 0.962 . S
C1033 C1031 1.390 1_565 S
C1033 C1034 1.387 . S
C1033 H1036 0.950 . S
C1034 C1033 1.387 . S
C1034 C1037 1.375 1_655 S
H1035 C1031 0.950 . S
H1036 C1033 0.950 . S
C1037 C1028 1.390 1_565 S
C1037 H1030 0.962 . S
C1037 C1034 1.375 1_455 S
C1038 C1039 1.387 . S
C1038 H1042 0.950 . S
C1038 C1047 1.390 . S
C1039 C1038 1.387 . S
C1039 C1041 1.387 . S
H1040 C1047 0.950 . S
C1041 C1039 1.387 . S
C1041 C1043 1.390 . S
C1041 H1045 0.950 . S
H1042 C1038 0.950 . S
C1043 C1041 1.390 . S
C1043 C1044 1.387 . S
C1043 H1046 0.950 . S
C1044 C1043 1.387 . S
C1044 C1047 1.387 . S
H1045 C1041 0.950 . S
H1046 C1043 0.950 . S
C1047 C1038 1.390 . S
C1047 H1040 0.950 . S
C1047 C1044 1.387 . S
C1048 C1049 1.387 . S
C1048 H1052 0.950 . S
C1048 C1057 1.390 1_545 S
C1049 C1048 1.387 . S
C1049 C1051 1.387 . S
H1050 C1057 0.950 . S
C1051 C1049 1.387 . S
C1051 C1053 1.390 1_545 S
C1051 H1055 0.950 . S
H1052 C1048 0.950 . S
C1053 C1051 1.390 1_565 S
C1053 C1054 1.387 . S
C1053 H1056 0.950 . S
C1054 C1053 1.387 . S
C1054 C1057 1.387 . S
H1055 C1051 0.950 . S
H1056 C1053 0.950 . S
C1057 C1048 1.390 1_565 S
C1057 H1050 0.950 . S
C1057 C1054 1.387 . S
C1058 C1059 1.387 . S
C1058 H1062 0.950 . S
C1058 C1067 1.390 1_554 S
C1059 C1058 1.387 . S
C1059 C1061 1.387 . S
H1060 C1067 0.950 . S
C1061 C1059 1.387 . S
C1061 C1063 1.390 1_554 S
C1061 H1065 0.950 . S
H1062 C1058 0.950 . S
C1063 C1061 1.390 1_556 S
C1063 C1064 1.387 . S
C1063 H1066 0.950 . S
C1064 C1063 1.387 . S
C1064 C1067 1.387 . S
H1065 C1061 0.950 . S
H1066 C1063 0.950 . S
C1067 C1058 1.390 1_556 S
C1067 H1060 0.950 . S
C1067 C1064 1.387 . S
C1068 C1069 1.387 . S
C1068 H1072 0.950 . S
C1068 C1077 1.390 1_545 S
C1069 C1068 1.387 . S
C1069 C1071 1.375 1_455 S
H1070 C1077 0.950 . S
C1071 C1069 1.375 1_655 S
C1071 C1073 1.390 1_545 S
C1071 H1075 0.962 . S
H1072 C1068 0.950 . S
C1073 C1071 1.390 1_565 S
C1073 C1074 1.375 1_655 S
C1073 H1076 0.962 . S
C1074 C1073 1.375 1_455 S
C1074 C1077 1.387 . S
H1075 C1071 0.962 . S
H1076 C1073 0.962 . S
C1077 C1068 1.390 1_565 S
C1077 H1070 0.950 . S
C1077 C1074 1.387 . S
C1078 C1079 1.387 . S
C1078 H1082 0.950 . S
C1078 C1087 1.390 . S
C1079 C1078 1.387 . S
C1079 C1081 1.387 . S
H1080 C1087 0.950 . S
C1081 C1079 1.387 . S
C1081 C1083 1.390 . S
C1081 H1085 0.950 . S
H1082 C1078 0.950 . S
C1083 C1081 1.390 . S
C1083 C1084 1.387 . S
C1083 H1086 0.950 . S
C1084 C1083 1.387 . S
C1084 C1087 1.387 . S
H1085 C1081 0.950 . S
H1086 C1083 0.950 . S
C1087 C1078 1.390 . S
C1087 H1080 0.950 . S
C1087 C1084 1.387 . S
C449 C7 1.186 . S
C454 C301 1.185 . S
C459 C315 1.184 . S
C464 C21 1.187 . S
C469 C35 1.185 . S
C474 C329 1.186 . S
C479 C287 1.186 . S
C484 C49 1.185 . S
C489 C63 1.185 . S
C494 C273 1.186 . S
C499 C77 1.186 . S
C504 C231 1.185 . S
C509 C245 1.185 . S
C514 C91 1.186 . S
C519 C105 1.185 . S
C524 C259 1.186 . S
C529 C119 1.185 . S
C534 C413 1.185 . S
C539 C133 1.185 . S
C544 C427 1.186 . S
C549 C441 1.186 . S
C554 C147 1.185 . S
C559 C399 1.186 . S
C564 C161 1.185 . S
C569 C175 1.184 . S
C574 C385 1.187 . S
C579 C343 1.185 . S
C584 C189 1.186 . S
C589 C203 1.184 . S
C594 C357 1.187 . S
C599 C371 1.185 . S
C604 C217 1.186 . S
C609 C9 1.550 . S
C614 C134 1.557 . S
C619 C23 1.550 . S
C624 C372 1.557 . S
C629 C162 1.557 . S
C634 C37 1.550 . S
C639 C51 1.549 . S
C644 C344 1.558 . S
C649 C65 1.549 . S
C654 C218 1.558 . S
C659 C400 1.557 . S
C664 C79 1.551 . S
C669 C190 1.557 . S
C674 C93 1.550 . S
C679 C428 1.557 . S
C684 C107 1.551 . S
C689 C121 1.549 . S
C694 C22 1.559 . S
C699 C260 1.557 . S
C704 C135 1.551 . S
C709 C50 1.557 . S
C714 C149 1.550 . S
C719 C163 1.551 . S
C724 C232 1.557 . S
C729 C106 1.558 . S
C734 C177 1.549 . S
C739 C288 1.558 . S
C744 C191 1.550 . S
C749 C78 1.558 . S
C754 C205 1.549 . S
C759 C219 1.549 . S
C764 C316 1.559 . S
C769 C358 1.558 . S
C774 C233 1.550 . S
C779 C148 1.557 . S
C784 C247 1.551 . S
C789 C386 1.558 . S
C794 C261 1.549 . S
C799 C275 1.549 . S
C804 C120 1.558 . S
C809 C442 1.558 . S
C814 C289 1.550 . S
C819 C176 1.557 . S
C824 C303 1.550 . S
C829 C414 1.557 . S
C834 C317 1.550 . S
C839 C331 1.550 . S
C844 C204 1.557 . S
C849 C345 1.551 . S
C854 C246 1.557 . S
C859 C36 1.557 . S
C864 C359 1.550 . S
C869 C373 1.550 . S
C874 C274 1.558 . S
C879 C387 1.549 . S
C884 C8 1.558 . S
C889 C401 1.549 . S
C894 C330 1.558 . S
C899 C64 1.558 . S
C904 C415 1.549 . S
C909 C302 1.558 . S
C914 C429 1.549 . S
C919 C443 1.551 . S
C924 C92 1.557 . S
C929 C6 1.531 . S
C934 C62 1.531 . S
C939 C20 1.531 . S
C944 C76 1.531 . S
C949 C90 1.531 . S
C954 C34 1.531 . S
C959 C104 1.532 . S
C964 C48 1.532 . S
C969 C174 1.532 . S
C974 C118 1.532 . S
C979 C188 1.532 . S
C984 C132 1.532 . S
C989 C202 1.532 . S
C994 C146 1.532 . S
C999 C216 1.531 . S
C1004 C160 1.531 . S
C1009 C230 1.531 . S
C1014 C286 1.531 . S
C1019 C244 1.532 . S
C1024 C300 1.532 . S
C1029 C258 1.531 . S
C1034 C314 1.531 . S
C1039 C328 1.531 . S
C1044 C272 1.531 . S
C1049 C342 1.532 . S
C1054 C398 1.532 . S
C1059 C412 1.531 . S
C1064 C356 1.531 . S
C1069 C426 1.531 . S
C1074 C370 1.531 . S
C1079 C440 1.532 . S
C1084 C384 1.532 . S
