# Generated by pormake.
# Topology snz, (6)-cn, num edge types: 1
# Building blocks:
#     Node 0, Type 0, BuildingBlock: CUWYAW_clean_sbu_0, # of connection points: 6
#     Node 1, Type 0, BuildingBlock: CUWYAW_clean_sbu_0, # of connection points: 6
#     Node 2, Type 0, BuildingBlock: CUWYAW_clean_sbu_0, # of connection points: 6
#     Node 3, Type 0, BuildingBlock: CUWYAW_clean_sbu_0, # of connection points: 6
#     Node 4, Type 0, BuildingBlock: CUWYAW_clean_sbu_0, # of connection points: 6
#     Node 5, Type 0, BuildingBlock: CUWYAW_clean_sbu_0, # of connection points: 6
#     Node 6, Type 0, BuildingBlock: CUWYAW_clean_sbu_0, # of connection points: 6
#     Node 7, Type 0, BuildingBlock: CUWYAW_clean_sbu_0, # of connection points: 6
#     Node 8, Type 0, BuildingBlock: CUWYAW_clean_sbu_0, # of connection points: 6
#     Edge 9, Type (0, 0), BuildingBlock: XIVTED_clean_linker_0, # of connection points: 2
#     Edge 10, Type (0, 0), BuildingBlock: XIVTED_clean_linker_0, # of connection points: 2
#     Edge 11, Type (0, 0), BuildingBlock: XIVTED_clean_linker_0, # of connection points: 2
#     Edge 12, Type (0, 0), BuildingBlock: XIVTED_clean_linker_0, # of connection points: 2
#     Edge 13, Type (0, 0), BuildingBlock: XIVTED_clean_linker_0, # of connection points: 2
#     Edge 14, Type (0, 0), BuildingBlock: XIVTED_clean_linker_0, # of connection points: 2
#     Edge 15, Type (0, 0), BuildingBlock: XIVTED_clean_linker_0, # of connection points: 2
#     Edge 16, Type (0, 0), BuildingBlock: XIVTED_clean_linker_0, # of connection points: 2
#     Edge 17, Type (0, 0), BuildingBlock: XIVTED_clean_linker_0, # of connection points: 2
#     Edge 18, Type (0, 0), BuildingBlock: XIVTED_clean_linker_0, # of connection points: 2
#     Edge 19, Type (0, 0), BuildingBlock: XIVTED_clean_linker_0, # of connection points: 2
#     Edge 20, Type (0, 0), BuildingBlock: XIVTED_clean_linker_0, # of connection points: 2
#     Edge 21, Type (0, 0), BuildingBlock: XIVTED_clean_linker_0, # of connection points: 2
#     Edge 22, Type (0, 0), BuildingBlock: XIVTED_clean_linker_0, # of connection points: 2
#     Edge 23, Type (0, 0), BuildingBlock: XIVTED_clean_linker_0, # of connection points: 2
#     Edge 24, Type (0, 0), BuildingBlock: XIVTED_clean_linker_0, # of connection points: 2
#     Edge 25, Type (0, 0), BuildingBlock: XIVTED_clean_linker_0, # of connection points: 2
#     Edge 26, Type (0, 0), BuildingBlock: XIVTED_clean_linker_0, # of connection points: 2
#     Edge 27, Type (0, 0), BuildingBlock: XIVTED_clean_linker_0, # of connection points: 2
#     Edge 28, Type (0, 0), BuildingBlock: XIVTED_clean_linker_0, # of connection points: 2
#     Edge 29, Type (0, 0), BuildingBlock: XIVTED_clean_linker_0, # of connection points: 2
#     Edge 30, Type (0, 0), BuildingBlock: XIVTED_clean_linker_0, # of connection points: 2
#     Edge 31, Type (0, 0), BuildingBlock: XIVTED_clean_linker_0, # of connection points: 2
#     Edge 32, Type (0, 0), BuildingBlock: XIVTED_clean_linker_0, # of connection points: 2
#     Edge 33, Type (0, 0), BuildingBlock: XIVTED_clean_linker_0, # of connection points: 2
#     Edge 34, Type (0, 0), BuildingBlock: XIVTED_clean_linker_0, # of connection points: 2
#     Edge 35, Type (0, 0), BuildingBlock: XIVTED_clean_linker_0, # of connection points: 2
# Relax obj value: 0.147
# Max RMSD: 0.213
# Mean RMSD: 0.196
data_MOF--net-snz--node1-CUWYAW_clean_sbu_0--edge1-XIVTED_clean_linker_0
_symmetry_space_group_name_H-M    P1
_symmetry_Int_Tables_number       1
_symmetry_cell_setting            triclinic
loop_
_symmetry_equiv_pos_as_xyz
'x, y, z'
_cell_length_a     67.091832
_cell_length_b     67.165804
_cell_length_c     14.778011
_cell_angle_alpha  90.09715
_cell_angle_beta   89.98486
_cell_angle_gamma 119.79577
loop_
_atom_site_label
_atom_site_type_symbol
_atom_site_fract_x
_atom_site_fract_y
_atom_site_fract_z
_atom_type_partial_charge
C0 C 0.14089 0.50492 0.95001 0.0
Eu1 Eu 0.1737 0.49673 0.99464 0.0
C2 C 0.13528 0.52354 0.95366 0.0
C3 C 0.11489 0.5194 -0.00397 0.0
C4 C 0.10804 0.53591 0.9942 0.0
C5 C 0.12133 0.55686 0.94893 0.0
C6 C 0.14226 0.56136 0.90947 0.0
C7 C 0.1492 0.54486 0.91192 0.0
C8 C 0.18276 0.49048 0.16908 0.0
C9 C 0.21992 0.54476 0.02743 0.0
C10 C 0.2513 0.48987 0.0649 0.0
Eu11 Eu 0.21715 0.49578 0.01737 0.0
C12 C 0.27098 0.48662 0.09039 0.0
C13 C 0.2883 0.49068 0.02731 0.0
C14 C 0.30686 0.48761 0.05104 0.0
C15 C 0.30873 0.48053 0.13883 0.0
C16 C 0.29143 0.47675 0.20209 0.0
C17 C 0.27279 0.47964 0.17807 0.0
C18 C 0.20837 0.50231 0.84328 0.0
C19 C 0.16804 0.44754 0.97893 0.0
O20 O 0.15708 0.50729 0.89429 0.0
O21 O 0.14152 0.49578 0.02712 0.0
O22 O 0.16259 0.47986 0.1322 0.0
O23 O 0.19721 0.50428 0.11328 0.0
O24 O 0.20011 0.5342 0.98476 0.0
O25 O 0.22907 0.53282 0.06116 0.0
O26 O 0.2325 0.48212 0.11318 0.0
O27 O 0.25138 0.50065 0.99123 0.0
O28 O 0.22855 0.51287 0.88026 0.0
O29 O 0.19392 0.48838 0.8988 0.0
O30 O 0.1895 0.45694 0.01021 0.0
O31 O 0.15911 0.46029 0.9556 0.0
H32 H 0.10395 0.50314 0.02906 0.0
H33 H 0.09209 0.53205 0.02704 0.0
H34 H 0.15286 0.57723 0.87355 0.0
H35 H 0.16513 0.54859 0.87911 0.0
H36 H 0.28741 0.49603 0.95903 0.0
H37 H 0.31951 0.4904 -0.00022 0.0
H38 H 0.29233 0.47174 0.27086 0.0
H39 H 0.25987 0.47658 0.22856 0.0
C40 C 0.79155 0.62639 0.95139 0.0
Eu41 Eu 0.79703 0.66652 0.9928 0.0
C42 C 0.77321 0.60222 0.94373 0.0
C43 C 0.77158 0.58631 0.00901 0.0
C44 C 0.75561 0.56304 -0.00085 0.0
C45 C 0.74112 0.5552 0.92324 0.0
C46 C 0.74232 0.57119 0.85908 0.0
C47 C 0.75821 0.59448 0.86917 0.0
C48 C 0.8035 0.68288 0.16553 0.0
C49 C 0.74766 0.66214 0.02574 0.0
C50 C 0.79987 0.74886 0.0603 0.0
Eu51 Eu 0.79508 0.7094 0.01236 0.0
C52 C 0.80245 0.77138 0.08721 0.0
C53 C 0.78804 0.77894 0.05044 0.0
C54 C 0.79066 0.80031 0.07482 0.0
C55 C 0.80784 0.81475 0.13642 0.0
C56 C 0.82228 0.80711 0.17289 0.0
C57 C 0.81958 0.7857 0.14881 0.0
C58 C 0.78883 0.69362 0.83914 0.0
C59 C 0.84493 0.71159 0.97268 0.0
O60 O 0.79198 0.6409 0.89133 0.0
O61 O 0.79655 0.63511 0.03283 0.0
O62 O 0.81516 0.67441 0.12842 0.0
O63 O 0.78882 0.68218 0.11052 0.0
O64 O 0.7589 0.65361 0.98243 0.0
O65 O 0.75888 0.68322 0.05928 0.0
O66 O 0.81084 0.73976 0.10051 0.0
O67 O 0.7862 0.73642 0.99483 0.0
O68 O 0.77778 0.70288 0.87532 0.0
O69 O 0.80326 0.69397 0.8947 0.0
O70 O 0.83423 0.72289 -0.00177 0.0
O71 O 0.83364 0.68941 0.95769 0.0
H72 H 0.78308 0.59178 0.0667 0.0
H73 H 0.75524 0.55108 0.04913 0.0
H74 H 0.73115 0.56563 0.80041 0.0
H75 H 0.75902 0.6063 0.81759 0.0
H76 H 0.77463 0.7683 0.00292 0.0
H77 H 0.77898 0.80533 0.04614 0.0
H78 H 0.83598 0.81781 0.2192 0.0
H79 H 0.83108 0.78048 0.17787 0.0
C80 C 0.66731 0.15307 0.94944 0.0
Eu81 Eu 0.62765 0.11903 -0.00254 0.0
C82 C 0.6919 0.16103 0.95797 0.0
C83 C 0.70715 0.18457 0.96737 0.0
C84 C 0.73075 0.19293 0.97029 0.0
C85 C 0.73954 0.17785 0.96336 0.0
C86 C 0.72414 0.15411 0.95696 0.0
C87 C 0.70046 0.14574 0.95443 0.0
C88 C 0.61278 0.10962 0.17248 0.0
C89 C 0.63128 0.07366 0.0324 0.0
C90 C 0.5446 0.04089 0.07007 0.0
Eu91 Eu 0.58412 0.07499 0.02068 0.0
C92 C 0.52208 1.02125 0.09768 0.0
C93 C 0.51519 0.99891 0.06718 0.0
C94 C 0.49377 0.98041 0.09174 0.0
C95 C 0.47856 0.98375 0.14697 0.0
C96 C 0.48557 1.00621 0.17733 0.0
C97 C 0.50707 1.02466 0.15333 0.0
C98 C 0.59882 0.08416 0.8459 0.0
C99 C 0.5831 0.12311 0.98248 0.0
O100 O 0.65518 0.13498 0.89877 0.0
O101 O 0.65669 0.15311 0.02344 0.0
O102 O 0.62222 0.12987 0.13674 0.0
O103 O 0.61237 0.09543 0.1158 0.0
O104 O 0.64029 0.09354 0.99037 0.0
O105 O 0.61012 0.0642 0.06544 0.0
O106 O 0.55387 0.06104 0.10944 0.0
O107 O 0.55686 0.03931 0.00463 0.0
O108 O 0.58922 0.06388 0.88145 0.0
O109 O 0.59919 0.09835 0.90261 0.0
O110 O 0.57177 0.10182 0.015 0.0
O111 O 0.60463 0.13235 0.95744 0.0
H112 H 0.70079 0.19656 0.97101 0.0
H113 H 0.74215 0.21125 0.97698 0.0
H114 H 0.73038 0.14208 0.95085 0.0
H115 H 0.68891 0.12745 0.94782 0.0
H116 H 0.5264 0.99567 0.02448 0.0
H117 H 0.4893 0.96343 0.06807 0.0
H118 H 0.4743 1.00969 0.21849 0.0
H119 H 0.51179 0.04169 0.1774 0.0
C120 C 0.81446 0.02998 0.26951 0.0
Eu121 Eu 0.84831 1.02379 0.31861 0.0
C122 C 0.79474 0.03305 0.24279 0.0
C123 C 0.7726 1.01838 0.27703 0.0
C124 C 0.75395 1.02118 0.25224 0.0
C125 C 0.75689 0.03881 0.19278 0.0
C126 C 0.77915 0.05354 0.15893 0.0
C127 C 0.79777 0.05063 0.18333 0.0
C128 C 0.85718 1.01788 0.49333 0.0
C129 C 0.89781 0.07166 0.35498 0.0
C130 C 0.92453 1.01433 0.39024 0.0
Eu131 Eu 0.89158 1.02204 0.34207 0.0
C132 C 0.93028 0.99594 0.3908 0.0
C133 C 0.95312 1.00167 0.40541 0.0
C134 C 0.95915 0.98459 0.40847 0.0
C135 C 0.94241 0.96139 0.39689 0.0
C136 C 0.91946 0.9557 0.38147 0.0
C137 C 0.91345 0.97288 0.37818 0.0
C138 C 0.88242 0.0282 0.16737 0.0
C139 C 0.84496 0.97453 0.30879 0.0
O140 O 0.83455 0.04041 0.22953 0.0
O141 O 0.81294 1.01638 0.33563 0.0
O142 O 0.83685 1.00798 0.45779 0.0
O143 O 0.87171 0.03114 0.43655 0.0
O144 O 0.87626 0.06247 0.32509 0.0
O145 O 0.90665 0.05879 0.37782 0.0
O146 O 0.90808 1.0119 0.44456 0.0
O147 O 0.92353 1.0224 0.3111 0.0
O148 O 0.90274 0.03834 0.20321 0.0
O149 O 0.86803 1.01473 0.22396 0.0
O150 O 0.86462 0.98466 0.35265 0.0
O151 O 0.83649 0.98691 0.27342 0.0
H152 H 0.76961 1.00457 0.32267 0.0
H153 H 0.73713 1.00923 0.27881 0.0
H154 H 0.78234 0.06759 0.11435 0.0
H155 H 0.81461 0.06231 0.15612 0.0
H156 H 0.96629 1.0194 0.41546 0.0
H157 H 0.97689 0.98954 0.42203 0.0
H158 H 0.90621 0.93801 0.3716 0.0
H159 H 0.89571 0.96818 0.36635 0.0
C160 C 0.27166 0.7743 0.24505 0.0
Eu161 Eu 0.27196 0.81054 0.3113 0.0
C162 C 0.26321 0.74941 0.23264 0.0
C163 C 0.26359 0.73552 0.30304 0.0
C164 C 0.25889 0.71301 0.28539 0.0
C165 C 0.25386 0.70394 0.19688 0.0
C166 C 0.25308 0.71784 0.12727 0.0
C167 C 0.25766 0.74019 0.14498 0.0
C168 C 0.2758 0.82372 0.48806 0.0
C169 C 0.22088 0.80505 0.35149 0.0
C170 C 0.27035 0.89047 0.39726 0.0
Eu171 Eu 0.26746 0.8524 0.34058 0.0
C172 C 0.28681 0.91519 0.39751 0.0
C173 C 0.30114 0.9261 0.32313 0.0
C174 C 0.31619 0.9498 0.32465 0.0
C175 C 0.31722 0.96291 0.40076 0.0
C176 C 0.30317 0.95172 0.47573 0.0
C177 C 0.28807 0.92811 0.4739 0.0
C178 C 0.26388 0.83887 0.16381 0.0
C179 C 0.31826 0.85973 0.3078 0.0
O180 O 0.26069 0.78373 0.20738 0.0
O181 O 0.28227 0.7845 0.31993 0.0
O182 O 0.28737 0.81496 0.45198 0.0
O183 O 0.26189 0.8238 0.43089 0.0
O184 O 0.23244 0.79507 0.32044 0.0
O185 O 0.23129 0.82683 0.3743 0.0
O186 O 0.27569 0.87776 0.44732 0.0
O187 O 0.26144 0.88102 0.31922 0.0
O188 O 0.25183 0.84709 0.19969 0.0
O189 O 0.27788 0.83921 0.22146 0.0
O190 O 0.30601 0.86761 0.34789 0.0
O191 O 0.30822 0.83863 0.27454 0.0
H192 H 0.26805 0.7422 0.37128 0.0
H193 H 0.25938 0.70281 0.34106 0.0
H194 H 0.24975 0.71182 0.05795 0.0
H195 H 0.25772 0.75063 0.08902 0.0
H196 H 0.30056 0.91637 0.26368 0.0
H197 H 0.32669 0.95789 0.26565 0.0
H198 H 0.30391 0.96118 0.53627 0.0
H199 H 0.2773 0.91992 0.53226 0.0
C200 C 0.52153 0.47896 0.25635 0.0
Eu201 Eu 0.4821 0.44455 0.30558 0.0
C202 C 0.544 0.49883 0.22897 0.0
C203 C 0.5512 0.52092 0.26335 0.0
C204 C 0.57255 0.53959 0.23896 0.0
C205 C 0.5874 0.53669 0.17985 0.0
C206 C 0.58011 0.51448 0.14573 0.0
C207 C 0.55869 0.49585 0.16968 0.0
C208 C 0.46761 0.43561 0.48055 0.0
C209 C 0.48375 0.39661 0.34395 0.0
C210 C 0.39946 0.36598 0.37735 0.0
Eu211 Eu 0.43906 0.40027 0.32927 0.0
C212 C 0.37512 0.35918 0.37495 0.0
C213 C 0.35902 0.33762 0.40827 0.0
C214 C 0.33571 0.33078 0.40793 0.0
C215 C 0.32813 0.34545 0.37415 0.0
C216 C 0.3444 0.36712 0.34042 0.0
C217 C 0.36777 0.37391 0.34058 0.0
C218 C 0.45412 0.4096 0.15434 0.0
C219 C 0.43462 0.4452 0.29491 0.0
O220 O 0.51228 0.45893 0.21609 0.0
O221 O 0.50926 0.48026 0.32243 0.0
O222 O 0.47678 0.45575 0.44398 0.0
O223 O 0.46734 0.42131 0.42452 0.0
O224 O 0.49492 0.41804 0.31258 0.0
O225 O 0.46211 0.38694 0.36758 0.0
O226 O 0.41244 0.38308 0.43099 0.0
O227 O 0.40912 0.36713 0.29933 0.0
O228 O 0.44535 0.38951 0.19128 0.0
O229 O 0.45399 0.42372 0.21017 0.0
O230 O 0.4261 0.42543 0.33739 0.0
O231 O 0.45576 0.455 0.26152 0.0
H232 H 0.54027 0.52384 0.30901 0.0
H233 H 0.57724 0.55637 0.26575 0.0
H234 H 0.59109 0.51131 0.10146 0.0
H235 H 0.55377 0.47904 0.14253 0.0
H236 H 0.3645 0.32611 0.43522 0.0
H237 H 0.32367 0.31417 0.43585 0.0
H238 H 0.33906 0.37871 0.3134 0.0
H239 H 0.38007 0.39061 0.31412 0.0
C240 C 0.47997 0.18884 0.64103 0.0
Eu241 Eu 0.50787 0.23273 0.64281 0.0
C242 C 0.46271 0.16923 0.58817 0.0
C243 C 0.44095 0.16637 0.56858 0.0
C244 C 0.42416 0.14614 0.52757 0.0
C245 C 0.42886 0.12846 0.50579 0.0
C246 C 0.45093 0.13183 0.52275 0.0
C247 C 0.46762 0.15195 0.56359 0.0
C248 C 0.50466 0.26903 0.5719 0.0
C249 C 0.54405 0.25603 0.48295 0.0
C250 C 0.58369 0.32731 0.67587 0.0
Eu251 Eu 0.5549 0.28363 0.67374 0.0
C252 C 0.60246 0.34633 0.72655 0.0
C253 C 0.62543 0.35437 0.70198 0.0
C254 C 0.6429 0.375 0.73723 0.0
C255 C 0.6377 0.38809 0.79696 0.0
C256 C 0.6149 0.37931 0.82582 0.0
C257 C 0.59746 0.35867 0.79082 0.0
C258 C 0.55832 0.24743 0.74436 0.0
C259 C 0.51811 0.26082 0.83228 0.0
O260 O 0.5012 0.19846 0.61154 0.0
O261 O 0.47442 0.20351 0.6755 0.0
O262 O 0.48854 0.24768 0.56339 0.0
O263 O 0.52023 0.26894 0.61843 0.0
O264 O 0.52947 0.23642 0.52204 0.0
O265 O 0.55364 0.27609 0.52514 0.0
O266 O 0.563 0.318 0.71094 0.0
O267 O 0.58798 0.31247 0.63465 0.0
O268 O 0.5746 0.26874 0.75063 0.0
O269 O 0.54239 0.24744 0.70015 0.0
O270 O 0.53304 0.2803 0.79318 0.0
O271 O 0.50844 0.24065 0.79078 0.0
H272 H 0.4367 0.17944 0.58693 0.0
H273 H 0.40738 0.14413 0.51459 0.0
H274 H 0.45505 0.11846 0.50854 0.0
H275 H 0.48419 0.15365 0.57897 0.0
H276 H 0.62982 0.34531 0.65224 0.0
H277 H 0.66038 0.38118 0.71479 0.0
H278 H 0.61026 0.38907 0.87094 0.0
H279 H 0.5799 0.35308 0.81056 0.0
C280 C 0.10308 0.27741 0.6559 0.0
Eu281 Eu 0.05901 0.26065 0.6601 0.0
C282 C 0.12234 0.28072 0.59763 0.0
C283 C 0.13435 0.26912 0.61771 0.0
C284 C 0.15484 0.27483 0.57301 0.0
C285 C 0.1638 0.29243 0.50814 0.0
C286 C 0.15122 0.30327 0.48497 0.0
C287 C 0.13067 0.29746 0.52917 0.0
C288 C 1.02333 0.22102 0.58776 0.0
C289 C 1.03479 0.27265 0.49983 0.0
C290 C 0.9632 0.23794 0.69486 0.0
Eu291 Eu 1.00734 0.25542 0.69064 0.0
C292 C 0.94383 0.2356 0.74933 0.0
C293 C 0.94163 0.25459 0.77445 0.0
C294 C 0.92174 0.25129 0.8183 0.0
C295 C 0.90382 0.229 0.83762 0.0
C296 C 0.90655 0.21016 0.81516 0.0
C297 C 0.92632 0.21345 0.77132 0.0
C298 C 0.04274 0.2955 0.76071 0.0
C299 C 1.03134 0.2423 0.8497 0.0
O300 O 0.09294 0.28925 0.63558 0.0
O301 O 0.08884 0.25657 0.68518 0.0
O302 O 0.0448 0.22637 0.58121 0.0
O303 O 1.02304 0.23666 0.63289 0.0
O304 O 0.05457 0.27786 0.53859 0.0
O305 O 1.01476 0.26221 0.54232 0.0
O306 O 0.97372 0.22724 0.72527 0.0
O307 O 0.97708 0.25793 0.65764 0.0
O308 O 1.02124 0.29019 0.76438 0.0
O309 O 0.04336 0.27946 0.71965 0.0
O310 O 1.01174 0.2381 0.81194 0.0
O311 O 0.05141 0.25258 0.80753 0.0
H312 H 0.12844 0.25634 0.67081 0.0
H313 H 0.16429 0.26634 0.59284 0.0
H314 H 0.15763 0.31672 0.43447 0.0
H315 H 0.12186 0.30677 0.51204 0.0
H316 H 0.95495 0.27188 0.75845 0.0
H317 H 0.92018 0.26614 0.83551 0.0
H318 H 0.89294 0.19276 0.82757 0.0
H319 H 0.92761 0.19855 0.75191 0.0
C320 C 1.03458 0.82143 0.67107 0.0
Eu321 Eu 1.03618 0.7836 0.65433 0.0
C322 C 1.02406 0.83339 0.62559 0.0
C323 C 1.03644 0.85737 0.62013 0.0
C324 C 1.0266 0.86929 0.5805 0.0
C325 C 1.00411 0.85743 0.54587 0.0
C326 C 0.99182 0.83333 0.55024 0.0
C327 C 1.00176 0.82138 0.58943 0.0
C328 C 0.07185 0.7807 0.58107 0.0
C329 C 1.01567 0.7514 0.48874 0.0
C330 C 1.0344 0.70025 0.65298 0.0
Eu331 Eu 1.03242 0.7378 0.67354 0.0
C332 C 0.04253 0.68651 0.70067 0.0
C333 C 1.03415 0.66373 0.67397 0.0
C334 C 0.04222 0.65044 0.71518 0.0
C335 C 0.05888 0.65971 0.78404 0.0
C336 C 0.06716 0.68259 0.81126 0.0
C337 C 0.05897 0.69589 0.77001 0.0
C338 C 0.99685 0.74057 0.74814 0.0
C339 C 0.05192 0.76966 0.84153 0.0
O340 O 1.0207 0.80239 0.71323 0.0
O341 O 0.05077 0.82017 0.62689 0.0
O342 O 0.0626 0.7917 0.54462 0.0
O343 O 0.06254 0.77239 0.65648 0.0
O344 O 1.01427 0.76765 0.533 0.0
O345 O 1.02415 0.73951 0.52706 0.0
O346 O 0.05019 0.72033 0.6239 0.0
O347 O 1.01669 0.70065 0.68764 0.0
O348 O 1.00613 0.72944 0.78348 0.0
O349 O 1.00598 0.74896 0.67242 0.0
O350 O 0.05276 0.75287 0.79908 0.0
O351 O 0.0447 0.78238 0.80089 0.0
H352 H 0.05365 0.86691 0.64774 0.0
H353 H 1.03639 0.88786 0.57922 0.0
H354 H 0.97456 0.82373 0.52333 0.0
H355 H 0.99196 0.80282 0.59227 0.0
H356 H 1.02155 0.65629 0.6202 0.0
H357 H 1.03578 0.63303 0.69154 0.0
H358 H 0.07986 0.69014 0.86454 0.0
H359 H 0.06559 0.7135 0.79151 0.0
H360 H 0.23957 0.52719 0.71193 0.0
H361 H 0.15153 0.46602 0.30083 0.0
H362 H 0.16852 0.47577 0.74897 0.0
H363 H 0.22259 0.51735 0.26325 0.0
H364 H 0.15745 0.46929 0.46481 0.0
H365 H 0.23362 0.52424 0.54788 0.0
C366 C 0.22267 0.51535 0.6855 0.0
C367 C 0.20453 0.50165 0.74421 0.0
C368 C 0.17179 0.47983 0.42086 0.0
C369 C 0.19759 0.49807 0.55611 0.0
C370 C 0.16843 0.47792 0.32713 0.0
C371 C 0.18659 0.49145 0.26825 0.0
C372 C 0.1935 0.4954 0.45637 0.0
C373 C 0.20811 0.50658 0.30617 0.0
C374 C 0.2193 0.51362 0.59175 0.0
C375 C 0.183 0.48662 0.70617 0.0
N376 N 0.21095 0.50818 0.39771 0.0
N377 N 0.18015 0.48519 0.61465 0.0
H378 H 0.76311 0.69856 0.70726 0.0
H379 H 0.82913 0.67763 0.29729 0.0
H380 H 0.81716 0.68232 0.74568 0.0
H381 H 0.77491 0.69365 0.25955 0.0
H382 H 0.82518 0.67944 0.46137 0.0
H383 H 0.76685 0.69635 0.54334 0.0
C384 C 0.77569 0.6944 0.68114 0.0
C385 C 0.78989 0.69069 0.74017 0.0
C386 C 0.81417 0.68262 0.41732 0.0
C387 C 0.7944 0.68826 0.55227 0.0
C388 C 0.81648 0.68167 0.32358 0.0
C389 C 0.80232 0.68548 0.26468 0.0
C390 C 0.79757 0.68744 0.45269 0.0
C391 C 0.78619 0.6906 0.30251 0.0
C392 C 0.77787 0.6932 0.58747 0.0
C393 C 0.80588 0.68534 0.70257 0.0
N394 N 0.78422 0.69138 0.39399 0.0
N395 N 0.80775 0.68436 0.61109 0.0
H396 H 0.61298 0.12467 0.7564 0.0
H397 H 0.59905 0.0692 0.26208 0.0
H398 H 0.59191 0.05346 0.71091 0.0
H399 H 0.61994 0.14036 0.30768 0.0
H400 H 0.59623 0.06303 0.42604 0.0
H401 H 0.61612 0.13089 0.59246 0.0
C402 C 0.60911 0.11037 0.71185 0.0
C403 C 0.6021 0.0885 0.74727 0.0
C404 C 0.60139 0.08 0.4003 0.0
C405 C 0.60553 0.09543 0.55938 0.0
C406 C 0.60295 0.08351 0.30665 0.0
C407 C 0.60978 0.10534 0.27123 0.0
C408 C 0.60671 0.09846 0.45917 0.0
C409 C 0.61462 0.12326 0.3321 0.0
C410 C 0.61085 0.1139 0.61822 0.0
C411 C 0.59733 0.07059 0.68645 0.0
N412 N 0.61304 0.11944 0.42295 0.0
N413 N 0.59907 0.07443 0.59561 0.0
H414 H 0.89792 0.043 0.58358 0.0
H415 H 0.84179 1.00259 0.077 0.0
H416 H 0.82616 0.99489 0.6278 0.0
H417 H 0.91343 0.05114 0.03272 0.0
H418 H 0.83566 0.99953 0.91289 0.0
H419 H 0.90408 0.04579 0.74767 0.0
C420 C 0.88348 0.03295 0.62787 0.0
C421 C 0.86148 1.01875 0.59204 0.0
C422 C 0.85273 1.01089 0.93896 0.0
C423 C 0.86835 1.02193 0.78011 0.0
C424 C 0.85621 1.01269 0.0327 0.0
C425 C 0.87816 0.02712 0.06855 0.0
C426 C 0.87134 1.02362 0.88042 0.0
C427 C 0.89623 0.03979 0.00799 0.0
C428 C 0.88699 0.03458 0.72159 0.0
C429 C 0.8434 1.00609 0.65255 0.0
N430 N 0.89243 0.03771 0.91706 0.0
N431 N 0.84721 1.00802 0.74346 0.0
H432 H 0.24795 0.83625 0.57812 0.0
H433 H 0.29217 0.82681 0.07405 0.0
H434 H 0.30043 0.81817 0.6241 0.0
H435 H 0.2393 0.8443 0.02747 0.0
H436 H 0.29548 0.82353 0.91 0.0
H437 H 0.24485 0.83971 0.74207 0.0
C438 C 0.25889 0.83309 0.62272 0.0
C439 C 0.27445 0.82687 0.5872 0.0
C440 C 0.28313 0.82806 0.93554 0.0
C441 C 0.27093 0.83069 0.77564 0.0
C442 C 0.28121 0.82989 0.02932 0.0
C443 C 0.26545 0.83586 0.06468 0.0
C444 C 0.2692 0.83224 0.87625 0.0
C445 C 0.25168 0.83966 0.00333 0.0
C446 C 0.25708 0.83501 0.71646 0.0
C447 C 0.28818 0.82298 0.6484 0.0
N448 N 0.25391 0.83783 0.91242 0.0
N449 N 0.28607 0.8249 0.73934 0.0
H450 H 0.47309 0.46646 0.61267 0.0
H451 H 0.44853 0.37873 0.02206 0.0
H452 H 0.4554 0.39591 0.57399 0.0
H453 H 0.46578 0.44916 0.06078 0.0
H454 H 0.45115 0.38472 0.85813 0.0
H455 H 0.47015 0.46039 0.77657 0.0
C456 C 0.46849 0.44965 0.63872 0.0
C457 C 0.46456 0.43168 0.57958 0.0
C458 C 0.45441 0.3989 0.90233 0.0
C459 C 0.46126 0.4246 0.76753 0.0
C460 C 0.45297 0.3955 -0.00398 0.0
C461 C 0.45691 0.41346 0.0552 0.0
C462 C 0.45985 0.42046 0.86719 0.0
C463 C 0.4626 0.43483 0.01763 0.0
C464 C 0.46686 0.4462 0.73238 0.0
C465 C 0.45862 0.41025 0.61712 0.0
N466 N 0.46385 0.43771 0.92615 0.0
N467 N 0.45721 0.40733 0.70859 0.0
H468 H 0.52498 0.21922 0.36819 0.0
H469 H 0.53714 0.29787 0.94597 0.0
H470 H 0.5643 0.29336 0.37205 0.0
H471 H 0.49681 0.22378 0.94418 0.0
H472 H 0.54565 0.29666 0.10505 0.0
H473 H 0.51601 0.22057 0.20978 0.0
C474 C 0.53215 0.23577 0.33531 0.0
C475 C 0.54492 0.25623 0.38393 0.0
C476 C 0.53475 0.28069 0.06997 0.0
C477 C 0.53425 0.25787 0.20392 0.0
C478 C 0.52963 0.28137 0.97943 0.0
C479 C 0.51677 0.26085 0.93119 0.0
C480 C 0.5269 0.25937 0.11197 0.0
C481 C 0.50717 0.24002 0.97832 0.0
C482 C 0.52675 0.23653 0.2452 0.0
C483 C 0.55406 0.27715 0.33757 0.0
N484 N 0.51278 0.23978 0.06604 0.0
N485 N 0.54822 0.27745 0.2502 0.0
H486 H 0.99719 0.25635 0.38986 0.0
H487 H 0.06869 0.25664 0.96001 0.0
H488 H 0.07129 0.2887 0.384 0.0
H489 H 0.99463 0.22482 0.9648 0.0
H490 H 0.0697 0.26589 0.11944 0.0
H491 H 0.996 0.24549 0.23235 0.0
C492 C 1.01326 0.26166 0.35501 0.0
C493 C 1.03435 0.27297 0.40076 0.0
C494 C 0.05321 0.25667 0.08575 0.0
C495 C 1.03301 0.26008 0.22157 0.0
C496 C 0.05258 0.25108 0.99496 0.0
C497 C 1.03158 0.24058 0.94843 0.0
C498 C 1.03272 0.25164 0.12974 0.0
C499 C 1.01126 0.23345 -0.00244 0.0
C500 C 1.01252 0.25514 0.26538 0.0
C501 C 0.05461 0.27961 0.35181 0.0
N502 N 1.01237 0.23951 0.08552 0.0
N503 N 0.05341 0.27274 0.26491 0.0
H504 H 1.0138 0.71835 0.37673 0.0
H505 H 0.05193 0.80214 0.95223 0.0
H506 H 1.01511 0.78331 0.37618 0.0
H507 H 0.05212 0.7379 0.95611 0.0
H508 H 1.0394 0.79607 0.10917 0.0
H509 H 1.0252 0.72404 0.21843 0.0
C510 C 1.01589 0.73353 0.34256 0.0
C511 C 1.01401 0.75063 0.38992 0.0
C512 C 0.04244 0.78343 0.07601 0.0
C513 C 1.02764 0.75752 0.21013 0.0
C514 C 0.04992 0.78704 0.9868 0.0
C515 C 0.05264 0.77027 0.94064 0.0
C516 C 1.03775 0.76298 0.11904 0.0
C517 C 0.05002 0.75117 0.98888 0.0
C518 C 1.02272 0.73692 0.25258 0.0
C519 C 1.01661 0.7698 0.34234 0.0
N520 N 0.04235 0.74786 0.07536 0.0
N521 N 1.02373 0.77294 0.25509 0.0
H522 H 0.43835 0.47795 0.17037 0.0
H523 H 0.30812 0.4479 0.25322 0.0
H524 H 0.39383 0.43246 0.37792 0.0
H525 H 0.35417 0.50398 0.08136 0.0
H526 H 0.33972 0.44177 0.29453 0.0
H527 H 0.40854 0.48795 0.13297 0.0
C528 C 0.42253 0.47032 0.20886 0.0
C529 C 0.41865 0.45422 0.27714 0.0
C530 C 0.34302 0.45551 0.24801 0.0
C531 C 0.38435 0.46528 0.23382 0.0
C532 C 0.32489 0.45915 0.22465 0.0
C533 C 0.32827 0.47665 0.16397 0.0
C534 C 0.36492 0.4693 0.21024 0.0
C535 C 0.35051 0.49011 0.12762 0.0
C536 C 0.40546 0.47593 0.18715 0.0
C537 C 0.39766 0.44477 0.32416 0.0
N538 N 0.36792 0.48614 0.15112 0.0
N539 N 0.3814 0.45029 0.30128 0.0
H540 H 0.80239 0.84573 0.0308 0.0
H541 H 0.84884 0.94316 0.41144 0.0
H542 H 0.81978 0.83625 0.30254 0.0
H543 H 0.81887 0.9493 0.16242 0.0
H544 H 0.83781 0.9038 0.37159 0.0
H545 H 0.80792 0.88327 0.07562 0.0
C546 C 0.80716 0.85136 0.10007 0.0
C547 C 0.8107 0.83762 0.1627 0.0
C548 C 0.83334 0.91356 0.32588 0.0
C549 C 0.81736 0.88096 0.2141 0.0
C550 C 0.8396 0.93608 0.34876 0.0
C551 C 0.83473 0.94958 0.29033 0.0
C552 C 0.82235 0.90433 0.24301 0.0
C553 C 0.82277 0.93945 0.2099 0.0
C554 C 0.8104 0.8729 0.12545 0.0
C555 C 0.81726 0.84623 0.25107 0.0
N556 N 0.81722 0.91751 0.18805 0.0
N557 N 0.82045 0.86727 0.27377 0.0
H558 H 0.44938 0.94552 0.04555 0.0
H559 H 0.34606 0.89929 0.39948 0.0
H560 H 0.45476 0.97662 0.30707 0.0
H561 H 0.34674 0.85796 0.17704 0.0
H562 H 0.38544 0.92831 0.3631 0.0
H563 H 0.4116 0.91396 0.08848 0.0
C564 C 0.44282 0.94572 0.11228 0.0
C565 C 0.4555 0.96403 0.17247 0.0
C566 C 0.37711 0.91283 0.32259 0.0
C567 C 0.41179 0.92789 0.22136 0.0
C568 C 0.35457 0.8962 0.34336 0.0
C569 C 0.34302 0.87608 0.29138 0.0
C570 C 0.38826 0.90963 0.24821 0.0
C571 C 0.35501 0.87311 0.2194 0.0
C572 C 0.42112 0.92766 0.13652 0.0
C573 C 0.44563 0.96329 0.25734 0.0
N574 N 0.37688 0.8898 0.19935 0.0
N575 N 0.42443 0.94567 0.27886 0.0
H576 H 0.59932 0.16512 0.05317 0.0
H577 H 0.52457 0.20166 0.74524 0.0
H578 H 0.54518 0.11596 0.88213 0.0
H579 H 0.5924 0.24804 0.84573 0.0
H580 H 0.52666 0.16941 0.81437 0.0
H581 H 0.59076 0.19465 0.00327 0.0
C582 C 0.58507 0.16039 0.0071 0.0
C583 C 0.57276 0.138 0.97262 0.0
C584 C 0.54105 0.18666 0.82115 0.0
C585 C 0.56334 0.1721 0.91213 0.0
C586 C 0.53993 0.20504 0.78107 0.0
C587 C 0.5585 0.22754 0.78781 0.0
C588 C 0.56073 0.19092 0.87021 0.0
C589 C 0.57773 0.231 0.83788 0.0
C590 C 0.5804 0.17735 0.97764 0.0
C591 C 0.55478 0.13292 0.91164 0.0
N592 N 0.57832 0.21297 0.87701 0.0
N593 N 0.55074 0.14993 0.88247 0.0
H594 H 0.04116 0.33114 0.83945 0.0
H595 H 0.1762 0.41475 0.89791 0.0
H596 H 0.08867 0.30765 0.77554 0.0
H597 H 0.12397 0.42367 0.03059 0.0
H598 H 0.14619 0.37588 0.85018 0.0
H599 H 0.0726 0.36599 0.90412 0.0
C600 C 0.05829 0.33335 0.8386 0.0
C601 C 0.06231 0.31657 0.80026 0.0
C602 C 0.14146 0.38624 0.89131 0.0
C603 C 0.09881 0.3568 0.87483 0.0
C604 C 0.15861 0.40829 0.91935 0.0
C605 C 0.15256 0.42242 0.9685 0.0
C606 C 0.11823 0.37857 0.91206 0.0
C607 C 0.12941 0.41339 0.99265 0.0
C608 C 0.07631 0.35329 0.87593 0.0
C609 C 0.08492 0.32041 0.8019 0.0
N610 N 0.1132 0.39231 0.96353 0.0
N611 N 0.10239 0.3402 0.83785 0.0
H612 H 0.97637 0.72208 0.90819 0.0
H613 H 0.87103 0.74602 0.85153 0.0
H614 H 0.97084 0.75881 0.67943 0.0
H615 H 0.87499 0.70149 0.05112 0.0
H616 H 0.91008 0.75653 0.79997 0.0
H617 H 0.94186 0.71967 0.97238 0.0
C618 C 0.9679 0.72972 0.8714 0.0
C619 C 0.9764 0.74043 0.78771 0.0
C620 C 0.90257 0.74485 0.85632 0.0
C621 C 0.9365 0.73776 0.86151 0.0
C622 C 0.88046 0.73914 0.88656 0.0
C623 C 0.86999 0.72317 0.95668 0.0
C624 C 0.91417 0.73451 0.89681 0.0
C625 C 0.88258 0.71411 -0.00228 0.0
C626 C 0.94812 0.72836 0.90828 0.0
C627 C 0.96475 0.75023 0.7438 0.0
N628 N 0.90385 0.7198 0.96707 0.0
N629 N 0.94529 0.74854 0.78093 0.0
H630 H 1.03459 0.61469 0.83468 0.0
H631 H 0.14548 0.60423 0.95336 0.0
H632 H 0.10357 0.67236 0.82599 0.0
H633 H 0.0771 0.54665 0.91708 0.0
H634 H 0.1304 0.63025 0.92522 0.0
H635 H 0.0498 0.5904 0.88574 0.0
C636 C 0.05296 0.62226 0.84376 0.0
C637 C 0.06785 0.64552 0.82478 0.0
C638 C 0.11872 0.61191 0.92415 0.0
C639 C 0.08545 0.61777 0.88377 0.0
C640 C 0.12732 0.59704 0.93976 0.0
C641 C 0.11255 0.57316 0.93771 0.0
C642 C 0.09521 0.60283 0.90644 0.0
C643 C 0.08912 0.56487 0.92097 0.0
C644 C 0.06165 0.60839 0.87317 0.0
C645 C 0.09147 0.65452 0.83993 0.0
N646 N 0.08124 0.57966 0.90576 0.0
N647 N 0.09958 0.64057 0.8678 0.0
H648 H 0.71353 0.52245 0.04629 0.0
H649 H 0.66994 0.42033 0.68546 0.0
H650 H 0.7344 0.53133 0.76619 0.0
H651 H 0.64498 0.41043 0.96034 0.0
H652 H 0.69584 0.46064 0.71855 0.0
H653 H 0.68976 0.4811 0.0198 0.0
C654 C 0.7131 0.51568 0.9793 0.0
C655 C 0.72585 0.53031 0.90819 0.0
C656 C 0.68483 0.44966 0.77196 0.0
C657 C 0.69886 0.48319 0.87754 0.0
C658 C 0.6702 0.42653 0.75339 0.0
C659 C 0.65528 0.41194 0.82031 0.0
C660 C 0.68455 0.45838 0.85805 0.0
C661 C 0.65604 0.42114 0.9065 0.0
C662 C 0.69953 0.49212 0.9642 0.0
C663 C 0.72457 0.52071 0.82257 0.0
N664 N 0.67037 0.44382 0.92284 0.0
N665 N 0.71135 0.49777 0.80973 0.0
H666 H 0.88029 0.25081 0.7887 0.0
H667 H 0.7653 0.16115 0.04294 0.0
H668 H 0.87621 0.19775 0.96517 0.0
H669 H 0.77094 0.21537 0.86945 0.0
H670 H 0.80657 0.17588 0.02523 0.0
H671 H 0.84121 0.24039 0.83081 0.0
C672 C 0.87134 0.23726 0.83775 0.0
C673 C 0.88148 0.22503 0.873 0.0
C674 C 0.79878 0.18466 0.99175 0.0
C675 C 0.83646 0.2126 0.91989 0.0
C676 C 0.77522 0.17617 0.00138 0.0
C677 C 0.76466 0.18705 0.95764 0.0
C678 C 0.81181 0.20407 0.93764 0.0
C679 C 0.77838 0.20662 0.90547 0.0
C680 C 0.84891 0.23116 0.86115 0.0
C681 C 0.86889 0.20737 0.9352 0.0
N682 N 0.80119 0.21441 0.8966 0.0
N683 N 0.84694 0.20153 0.95605 0.0
H684 H 0.6297 0.04575 0.17317 0.0
H685 H 0.74854 0.05268 0.02836 0.0
H686 H 0.66867 0.08061 0.93548 0.0
H687 H 0.71918 0.0316 0.29492 0.0
H688 H 0.71667 0.05853 0.98692 0.0
H689 H 0.65914 0.03536 0.21125 0.0
C690 C 0.64417 0.05084 0.12816 0.0
C691 C 0.64669 0.06408 0.051 0.0
C692 C 0.71715 0.05257 0.0545 0.0
C693 C 0.6805 0.05244 0.0944 0.0
C694 C 0.73553 0.04938 0.07863 0.0
C695 C 0.73691 0.0418 0.16585 0.0
C696 C 0.69971 0.04807 0.1175 0.0
C697 C 0.71892 0.03724 0.22664 0.0
C698 C 0.66109 0.0451 0.15034 0.0
C699 C 0.66601 0.07048 -0.00416 0.0
N700 N 0.70116 0.04049 0.20146 0.0
N701 N 0.68208 0.06465 0.01861 0.0
H702 H 0.27488 0.68114 0.2715 0.0
H703 H 0.21165 0.57438 0.9325 0.0
H704 H 0.22388 0.67266 0.07364 0.0
H705 H 0.24905 0.5718 0.16542 0.0
H706 H 0.2209 0.61298 0.97447 0.0
H707 H 0.2692 0.64328 0.22905 0.0
C708 C 0.26238 0.67135 0.21971 0.0
C709 C 0.24997 0.68039 0.17582 0.0
C710 C 0.22728 0.60415 0.01644 0.0
C711 C 0.24382 0.63717 0.12563 0.0
C712 C 0.22211 0.58206 0.99215 0.0
C713 C 0.22947 0.56967 0.04572 0.0
C714 C 0.23996 0.61427 0.09535 0.0
C715 C 0.24311 0.58073 0.12188 0.0
C716 C 0.2593 0.64978 0.19509 0.0
C717 C 0.23427 0.66686 0.10832 0.0
N718 N 0.24778 0.60237 0.14493 0.0
N719 N 0.23176 0.64613 0.08533 0.0
H720 H 0.72075 0.6637 0.16448 0.0
H721 H 0.60998 0.54506 0.01627 0.0
H722 H 0.71801 0.62429 0.92933 0.0
H723 H 0.61745 0.57425 0.28314 0.0
H724 H 0.64773 0.57677 0.97647 0.0
H725 H 0.681 0.63427 0.201 0.0
C726 C 0.71169 0.64911 0.11973 0.0
C727 C 0.72278 0.64649 0.04372 0.0
C728 C 0.64111 0.57629 0.04376 0.0
C729 C 0.67739 0.61273 0.08525 0.0
C730 C 0.61952 0.55801 0.06695 0.0
C731 C 0.61033 0.55663 0.15378 0.0
C732 C 0.65382 0.59363 0.10731 0.0
C733 C 0.62354 0.57452 0.21512 0.0
C734 C 0.68908 0.63222 0.14101 0.0
C735 C 0.71025 0.62704 0.98882 0.0
N736 N 0.64455 0.59219 0.19084 0.0
N737 N 0.68836 0.611 0.01063 0.0
H738 H 1.02327 0.89454 0.43261 0.0
H739 H 0.91928 0.91976 0.48286 0.0
H740 H 0.96055 0.84989 0.57529 0.0
H741 H 0.98062 0.96198 0.32808 0.0
H742 H 0.93247 0.89215 0.50661 0.0
H743 H 1.00658 0.91784 0.3841 0.0
C744 C 1.00593 0.88959 0.4534 0.0
C745 C 0.99336 0.87037 0.50872 0.0
C746 C 0.94295 0.90736 0.46681 0.0
C747 C 0.97409 0.89695 0.45338 0.0
C748 C 0.93536 0.92307 0.45275 0.0
C749 C 0.94898 0.94335 0.4042 0.0
C750 C 0.96434 0.91198 0.4322 0.0
C751 C 0.96978 0.94682 0.36753 0.0
C752 C 0.99637 0.90284 0.42539 0.0
C753 C 0.97082 0.86451 0.53233 0.0
N754 N 0.97689 0.9314 0.38286 0.0
N755 N 0.96198 0.87789 0.50526 0.0
H756 H 0.38406 0.10461 0.56152 0.0
H757 H 0.36124 0.98767 0.33472 0.0
H758 H 0.43187 0.10031 0.37793 0.0
H759 H 0.30871 0.99576 0.47068 0.0
H760 H 0.38705 0.02908 0.34558 0.0
H761 H 0.35568 0.06516 0.52381 0.0
C762 C 0.38846 0.09555 0.51187 0.0
C763 C 0.41048 0.10577 0.47339 0.0
C764 C 0.36981 1.02179 0.37242 0.0
C765 C 0.3782 0.06032 0.43161 0.0
C766 C 0.35503 0.99815 0.36597 0.0
C767 C 0.33281 0.98815 0.40258 0.0
C768 C 0.36238 0.03552 0.41627 0.0
C769 C 0.32584 1.00261 0.44329 0.0
C770 C 0.37228 0.07292 0.4909 0.0
C771 C 0.41527 0.09298 0.41059 0.0
N772 N 0.34061 1.02551 0.44961 0.0
N773 N 0.39935 0.07084 0.3924 0.0
H774 H 0.198 0.33686 0.48998 0.0
H775 H 0.29156 0.30327 0.33357 0.0
H776 H 0.18282 0.26722 0.44468 0.0
H777 H 0.30833 0.37118 0.42148 0.0
H778 H 0.25085 0.29068 0.3528 0.0
H779 H 0.2376 0.35057 0.4429 0.0
C780 C 0.20292 0.32447 0.46861 0.0
C781 C 0.18714 0.30086 0.47126 0.0
C782 C 0.26343 0.30837 0.36735 0.0
C783 C 0.23248 0.31641 0.41854 0.0
C784 C 0.28667 0.31555 0.35672 0.0
C785 C 0.30338 0.33825 0.37696 0.0
C786 C 0.25682 0.32399 0.3984 0.0
C787 C 0.29604 0.35355 0.40471 0.0
C788 C 0.22557 0.33231 0.44243 0.0
C789 C 0.19453 0.28555 0.44441 0.0
N790 N 0.27329 0.3461 0.41528 0.0
N791 N 0.21671 0.2936 0.41946 0.0
H792 H 0.47317 0.26838 0.45451 0.0
H793 H 0.52055 0.4034 0.45051 0.0
H794 H 0.53633 0.31525 0.58854 0.0
H795 H 0.46911 0.35539 0.26753 0.0
H796 H 0.52852 0.37288 0.49945 0.0
H797 H 0.47224 0.3009 0.38562 0.0
C798 C 0.48693 0.28557 0.46942 0.0
C799 C 0.5048 0.28907 0.52813 0.0
C800 C 0.51592 0.36922 0.44688 0.0
C801 C 0.50384 0.32674 0.44938 0.0
C802 C 0.51162 0.38674 0.41808 0.0
C803 C 0.4944 0.38198 0.35384 0.0
C804 C 0.50262 0.34682 0.41198 0.0
C805 C 0.48273 0.35985 0.31642 0.0
C806 C 0.48645 0.3042 0.42974 0.0
C807 C 0.52218 0.31178 0.5445 0.0
N808 N 0.48684 0.34313 0.34662 0.0
N809 N 0.52119 0.32978 0.50613 0.0
H810 H 0.94082 0.09574 0.29144 0.0
H811 H 0.97767 0.20957 0.58284 0.0
H812 H 0.89117 0.10394 0.44774 0.0
H813 H 1.02393 0.18676 0.4915 0.0
H814 H 0.94536 0.17504 0.51548 0.0
H815 H 0.97068 0.13365 0.33986 0.0
C816 C 0.9361 0.10587 0.33419 0.0
C817 C 0.91344 0.09673 0.36501 0.0
C818 C 0.96259 0.17762 0.51034 0.0
C819 C 0.94791 0.14017 0.42365 0.0
C820 C 0.981 0.19723 0.54949 0.0
C821 C 1.00348 0.20083 0.54482 0.0
C822 C 0.96679 0.16173 0.46441 0.0
C823 C 1.00691 0.18464 0.49765 0.0
C824 C 0.95324 0.12744 0.36274 0.0
C825 C 0.90836 0.1105 0.42128 0.0
N826 N 0.98885 0.16591 0.45951 0.0
N827 N 0.92554 0.1315 0.44971 0.0
H828 H 0.09041 0.79534 0.41445 0.0
H829 H 0.19786 0.77608 0.49143 0.0
H830 H 0.09839 0.76384 0.65533 0.0
H831 H 0.1881 0.80789 0.25603 0.0
H832 H 0.15927 0.76635 0.54449 0.0
H833 H 0.12395 0.79573 0.34906 0.0
C834 C 0.09922 0.78844 0.45364 0.0
C835 C 0.09169 0.77976 0.54092 0.0
C836 C 0.16529 0.77488 0.47998 0.0
C837 C 0.13042 0.78014 0.466 0.0
C838 C 0.18715 0.78007 0.44899 0.0
C839 C 0.19587 0.79221 0.36796 0.0
C840 C 0.15222 0.78216 0.42995 0.0
C841 C 0.18176 0.79799 0.31766 0.0
C842 C 0.1184 0.78861 0.41606 0.0
C843 C 0.1037 0.77083 0.58801 0.0
N844 N 0.1608 0.79309 0.34968 0.0
N845 N 0.12258 0.77141 0.55029 0.0
loop_
_geom_bond_atom_site_label_1
_geom_bond_atom_site_label_2
_geom_bond_distance
_geom_bond_site_symmetry_2
_ccdc_geom_bond_type
C0 Eu1 2.835 . S
C0 C2 1.500 . S
C0 O20 1.257 . S
C0 O21 1.260 . S
Eu1 C0 2.835 . S
Eu1 O20 2.473 . S
Eu1 O21 2.480 . S
Eu1 O22 2.430 . S
Eu1 O23 2.670 . S
Eu1 O24 2.394 . S
Eu1 O29 2.355 . S
Eu1 O31 2.374 . S
C2 C0 1.500 . S
C2 C3 1.377 . S
C2 C7 1.377 1_554 S
C3 C2 1.377 . S
C3 C4 1.395 . S
C3 H32 0.931 . S
C4 C3 1.395 . S
C4 C5 1.383 . S
C4 H33 0.931 . S
C5 C4 1.383 . S
C5 C6 1.394 1_554 S
C6 C5 1.394 1_556 S
C6 C7 1.378 . S
C6 H34 0.931 . S
C7 C2 1.377 1_556 S
C7 C6 1.378 . S
C7 H35 0.931 . S
C8 O22 1.259 . S
C8 O23 1.270 . S
C9 O24 1.251 . S
C9 O25 1.251 . S
C10 Eu11 2.835 . S
C10 C12 1.500 . S
C10 O26 1.257 . S
C10 O27 1.260 . S
Eu11 C10 2.835 . S
Eu11 O23 2.355 . S
Eu11 O25 2.374 . S
Eu11 O26 2.473 . S
Eu11 O27 2.480 . S
Eu11 O28 2.430 1_554 S
Eu11 O29 2.670 . S
Eu11 O30 2.394 . S
C12 C10 1.500 . S
C12 C13 1.377 . S
C12 C17 1.377 . S
C13 C12 1.377 . S
C13 C14 1.395 . S
C13 H36 0.931 . S
C14 C13 1.395 . S
C14 C15 1.383 . S
C14 H37 0.931 . S
C15 C14 1.383 . S
C15 C16 1.394 . S
C16 C15 1.394 . S
C16 C17 1.378 . S
C16 H38 0.931 . S
C17 C12 1.377 . S
C17 C16 1.378 . S
C17 H39 0.931 . S
C18 O28 1.259 . S
C18 O29 1.270 1_556 S
C19 O30 1.251 . S
C19 O31 1.251 . S
O20 C0 1.257 . S
O20 Eu1 2.473 . S
O21 C0 1.260 . S
O21 Eu1 2.480 . S
O22 Eu1 2.430 . S
O22 C8 1.259 . S
O23 Eu1 2.670 . S
O23 C8 1.270 . S
O23 Eu11 2.355 . S
O24 Eu1 2.394 . S
O24 C9 1.251 . S
O25 C9 1.251 . S
O25 Eu11 2.374 . S
O26 C10 1.257 . S
O26 Eu11 2.473 . S
O27 C10 1.260 . S
O27 Eu11 2.480 . S
O28 Eu11 2.430 1_556 S
O28 C18 1.259 . S
O29 Eu1 2.355 . S
O29 Eu11 2.670 . S
O29 C18 1.270 1_554 S
O30 Eu11 2.394 . S
O30 C19 1.251 . S
O31 Eu1 2.374 . S
O31 C19 1.251 . S
H32 C3 0.931 . S
H33 C4 0.931 . S
H34 C6 0.931 . S
H35 C7 0.931 . S
H36 C13 0.931 . S
H37 C14 0.931 . S
H38 C16 0.931 . S
H39 C17 0.931 . S
C40 Eu41 2.835 . S
C40 C42 1.500 . S
C40 O60 1.257 . S
C40 O61 1.260 . S
Eu41 C40 2.835 . S
Eu41 O60 2.473 . S
Eu41 O61 2.480 . S
Eu41 O62 2.430 . S
Eu41 O63 2.670 . S
Eu41 O64 2.394 . S
Eu41 O69 2.355 . S
Eu41 O71 2.374 . S
C42 C40 1.500 . S
C42 C43 1.377 . S
C42 C47 1.377 1_554 S
C43 C42 1.377 . S
C43 C44 1.395 . S
C43 H72 0.931 . S
C44 C43 1.395 . S
C44 C45 1.383 . S
C44 H73 0.931 . S
C45 C44 1.383 . S
C45 C46 1.394 1_554 S
C46 C45 1.394 1_556 S
C46 C47 1.378 . S
C46 H74 0.931 . S
C47 C42 1.377 1_556 S
C47 C46 1.378 . S
C47 H75 0.931 . S
C48 O62 1.259 . S
C48 O63 1.270 . S
C49 O64 1.251 . S
C49 O65 1.251 . S
C50 Eu51 2.835 . S
C50 C52 1.500 . S
C50 O66 1.257 . S
C50 O67 1.260 . S
Eu51 C50 2.835 . S
Eu51 O63 2.355 . S
Eu51 O65 2.374 . S
Eu51 O66 2.473 . S
Eu51 O67 2.480 . S
Eu51 O68 2.430 1_554 S
Eu51 O69 2.670 . S
Eu51 O70 2.394 . S
C52 C50 1.500 . S
C52 C53 1.377 . S
C52 C57 1.377 . S
C53 C52 1.377 . S
C53 C54 1.395 . S
C53 H76 0.931 . S
C54 C53 1.395 . S
C54 C55 1.383 . S
C54 H77 0.931 . S
C55 C54 1.383 . S
C55 C56 1.394 . S
C56 C55 1.394 . S
C56 C57 1.378 . S
C56 H78 0.931 . S
C57 C52 1.377 . S
C57 C56 1.378 . S
C57 H79 0.931 . S
C58 O68 1.259 . S
C58 O69 1.270 1_556 S
C59 O70 1.251 . S
C59 O71 1.251 . S
O60 C40 1.257 . S
O60 Eu41 2.473 . S
O61 C40 1.260 . S
O61 Eu41 2.480 . S
O62 Eu41 2.430 . S
O62 C48 1.259 . S
O63 Eu41 2.670 . S
O63 C48 1.270 . S
O63 Eu51 2.355 . S
O64 Eu41 2.394 . S
O64 C49 1.251 . S
O65 C49 1.251 . S
O65 Eu51 2.374 . S
O66 C50 1.257 . S
O66 Eu51 2.473 . S
O67 C50 1.260 . S
O67 Eu51 2.480 . S
O68 Eu51 2.430 1_556 S
O68 C58 1.259 . S
O69 Eu41 2.355 . S
O69 Eu51 2.670 . S
O69 C58 1.270 1_554 S
O70 Eu51 2.394 . S
O70 C59 1.251 . S
O71 Eu41 2.374 . S
O71 C59 1.251 . S
H72 C43 0.931 . S
H73 C44 0.931 . S
H74 C46 0.931 . S
H75 C47 0.931 . S
H76 C53 0.931 . S
H77 C54 0.931 . S
H78 C56 0.931 . S
H79 C57 0.931 . S
C80 Eu81 2.835 . S
C80 C82 1.500 . S
C80 O100 1.257 . S
C80 O101 1.260 . S
Eu81 C80 2.835 . S
Eu81 O100 2.473 . S
Eu81 O101 2.480 . S
Eu81 O102 2.430 . S
Eu81 O103 2.670 . S
Eu81 O104 2.394 . S
Eu81 O109 2.355 . S
Eu81 O111 2.374 . S
C82 C80 1.500 . S
C82 C83 1.377 . S
C82 C87 1.377 1_554 S
C83 C82 1.377 . S
C83 C84 1.395 . S
C83 H112 0.931 . S
C84 C83 1.395 . S
C84 C85 1.383 . S
C84 H113 0.931 . S
C85 C84 1.383 . S
C85 C86 1.394 1_554 S
C86 C85 1.394 1_556 S
C86 C87 1.378 . S
C86 H114 0.931 . S
C87 C82 1.377 1_556 S
C87 C86 1.378 . S
C87 H115 0.931 . S
C88 O102 1.259 . S
C88 O103 1.270 . S
C89 O104 1.251 . S
C89 O105 1.251 . S
C90 Eu91 2.835 . S
C90 C92 1.500 . S
C90 O106 1.257 . S
C90 O107 1.260 . S
Eu91 C90 2.835 . S
Eu91 O103 2.355 . S
Eu91 O105 2.374 . S
Eu91 O106 2.473 . S
Eu91 O107 2.480 . S
Eu91 O108 2.430 1_554 S
Eu91 O109 2.670 . S
Eu91 O110 2.394 . S
C92 C90 1.500 . S
C92 C93 1.377 . S
C92 C97 1.377 . S
C93 C92 1.377 . S
C93 C94 1.395 . S
C93 H116 0.931 . S
C94 C93 1.395 . S
C94 C95 1.383 . S
C94 H117 0.931 . S
C95 C94 1.383 . S
C95 C96 1.394 . S
C96 C95 1.394 . S
C96 C97 1.378 . S
C96 H118 0.931 . S
C97 C92 1.377 . S
C97 C96 1.378 . S
C97 H119 0.931 . S
C98 O108 1.259 . S
C98 O109 1.270 1_556 S
C99 O110 1.251 . S
C99 O111 1.251 . S
O100 C80 1.257 . S
O100 Eu81 2.473 . S
O101 C80 1.260 . S
O101 Eu81 2.480 . S
O102 Eu81 2.430 . S
O102 C88 1.259 . S
O103 Eu81 2.670 . S
O103 C88 1.270 . S
O103 Eu91 2.355 . S
O104 Eu81 2.394 . S
O104 C89 1.251 . S
O105 C89 1.251 . S
O105 Eu91 2.374 . S
O106 C90 1.257 . S
O106 Eu91 2.473 . S
O107 C90 1.260 . S
O107 Eu91 2.480 . S
O108 Eu91 2.430 1_556 S
O108 C98 1.259 . S
O109 Eu81 2.355 . S
O109 Eu91 2.670 . S
O109 C98 1.270 1_554 S
O110 Eu91 2.394 . S
O110 C99 1.251 . S
O111 Eu81 2.374 . S
O111 C99 1.251 . S
H112 C83 0.931 . S
H113 C84 0.931 . S
H114 C86 0.931 . S
H115 C87 0.931 . S
H116 C93 0.931 . S
H117 C94 0.931 . S
H118 C96 0.931 . S
H119 C97 0.931 . S
C120 Eu121 2.835 1_545 S
C120 C122 1.500 . S
C120 O140 1.257 . S
C120 O141 1.260 . S
Eu121 C120 2.835 1_565 S
Eu121 O140 2.473 1_565 S
Eu121 O141 2.480 1_565 S
Eu121 O142 2.430 . S
Eu121 O143 2.670 . S
Eu121 O144 2.394 1_565 S
Eu121 O149 2.355 . S
Eu121 O151 2.374 . S
C122 C120 1.500 . S
C122 C123 1.377 . S
C122 C127 1.377 . S
C123 C122 1.377 . S
C123 C124 1.395 . S
C123 H152 0.931 . S
C124 C123 1.395 . S
C124 C125 1.383 . S
C124 H153 0.931 . S
C125 C124 1.383 . S
C125 C126 1.394 . S
C126 C125 1.394 . S
C126 C127 1.378 . S
C126 H154 0.931 . S
C127 C122 1.377 . S
C127 C126 1.378 . S
C127 H155 0.931 . S
C128 O142 1.259 . S
C128 O143 1.270 . S
C129 O144 1.251 . S
C129 O145 1.251 . S
C130 Eu131 2.835 . S
C130 C132 1.500 . S
C130 O146 1.257 . S
C130 O147 1.260 . S
Eu131 C130 2.835 . S
Eu131 O143 2.355 . S
Eu131 O145 2.374 1_565 S
Eu131 O146 2.473 . S
Eu131 O147 2.480 . S
Eu131 O148 2.430 . S
Eu131 O149 2.670 . S
Eu131 O150 2.394 . S
C132 C130 1.500 . S
C132 C133 1.377 . S
C132 C137 1.377 . S
C133 C132 1.377 . S
C133 C134 1.395 . S
C133 H156 0.931 . S
C134 C133 1.395 . S
C134 C135 1.383 . S
C134 H157 0.931 . S
C135 C134 1.383 . S
C135 C136 1.394 . S
C136 C135 1.394 . S
C136 C137 1.378 . S
C136 H158 0.931 . S
C137 C132 1.377 . S
C137 C136 1.378 . S
C137 H159 0.931 . S
C138 O148 1.259 . S
C138 O149 1.270 . S
C139 O150 1.251 . S
C139 O151 1.251 . S
O140 C120 1.257 . S
O140 Eu121 2.473 1_545 S
O141 C120 1.260 . S
O141 Eu121 2.480 1_545 S
O142 Eu121 2.430 . S
O142 C128 1.259 . S
O143 Eu121 2.670 . S
O143 C128 1.270 . S
O143 Eu131 2.355 . S
O144 Eu121 2.394 1_545 S
O144 C129 1.251 . S
O145 C129 1.251 . S
O145 Eu131 2.374 1_545 S
O146 C130 1.257 . S
O146 Eu131 2.473 . S
O147 C130 1.260 . S
O147 Eu131 2.480 . S
O148 Eu131 2.430 . S
O148 C138 1.259 . S
O149 Eu121 2.355 . S
O149 Eu131 2.670 . S
O149 C138 1.270 . S
O150 Eu131 2.394 . S
O150 C139 1.251 . S
O151 Eu121 2.374 . S
O151 C139 1.251 . S
H152 C123 0.931 . S
H153 C124 0.931 . S
H154 C126 0.931 . S
H155 C127 0.931 . S
H156 C133 0.931 . S
H157 C134 0.931 . S
H158 C136 0.931 . S
H159 C137 0.931 . S
C160 Eu161 2.835 . S
C160 C162 1.500 . S
C160 O180 1.257 . S
C160 O181 1.260 . S
Eu161 C160 2.835 . S
Eu161 O180 2.473 . S
Eu161 O181 2.480 . S
Eu161 O182 2.430 . S
Eu161 O183 2.670 . S
Eu161 O184 2.394 . S
Eu161 O189 2.355 . S
Eu161 O191 2.374 . S
C162 C160 1.500 . S
C162 C163 1.377 . S
C162 C167 1.377 . S
C163 C162 1.377 . S
C163 C164 1.395 . S
C163 H192 0.931 . S
C164 C163 1.395 . S
C164 C165 1.383 . S
C164 H193 0.931 . S
C165 C164 1.383 . S
C165 C166 1.394 . S
C166 C165 1.394 . S
C166 C167 1.378 . S
C166 H194 0.931 . S
C167 C162 1.377 . S
C167 C166 1.378 . S
C167 H195 0.931 . S
C168 O182 1.259 . S
C168 O183 1.270 . S
C169 O184 1.251 . S
C169 O185 1.251 . S
C170 Eu171 2.835 . S
C170 C172 1.500 . S
C170 O186 1.257 . S
C170 O187 1.260 . S
Eu171 C170 2.835 . S
Eu171 O183 2.355 . S
Eu171 O185 2.374 . S
Eu171 O186 2.473 . S
Eu171 O187 2.480 . S
Eu171 O188 2.430 . S
Eu171 O189 2.670 . S
Eu171 O190 2.394 . S
C172 C170 1.500 . S
C172 C173 1.377 . S
C172 C177 1.377 . S
C173 C172 1.377 . S
C173 C174 1.395 . S
C173 H196 0.931 . S
C174 C173 1.395 . S
C174 C175 1.383 . S
C174 H197 0.931 . S
C175 C174 1.383 . S
C175 C176 1.394 . S
C176 C175 1.394 . S
C176 C177 1.378 . S
C176 H198 0.931 . S
C177 C172 1.377 . S
C177 C176 1.378 . S
C177 H199 0.931 . S
C178 O188 1.259 . S
C178 O189 1.270 . S
C179 O190 1.251 . S
C179 O191 1.251 . S
O180 C160 1.257 . S
O180 Eu161 2.473 . S
O181 C160 1.260 . S
O181 Eu161 2.480 . S
O182 Eu161 2.430 . S
O182 C168 1.259 . S
O183 Eu161 2.670 . S
O183 C168 1.270 . S
O183 Eu171 2.355 . S
O184 Eu161 2.394 . S
O184 C169 1.251 . S
O185 C169 1.251 . S
O185 Eu171 2.374 . S
O186 C170 1.257 . S
O186 Eu171 2.473 . S
O187 C170 1.260 . S
O187 Eu171 2.480 . S
O188 Eu171 2.430 . S
O188 C178 1.259 . S
O189 Eu161 2.355 . S
O189 Eu171 2.670 . S
O189 C178 1.270 . S
O190 Eu171 2.394 . S
O190 C179 1.251 . S
O191 Eu161 2.374 . S
O191 C179 1.251 . S
H192 C163 0.931 . S
H193 C164 0.931 . S
H194 C166 0.931 . S
H195 C167 0.931 . S
H196 C173 0.931 . S
H197 C174 0.931 . S
H198 C176 0.931 . S
H199 C177 0.931 . S
C200 Eu201 2.835 . S
C200 C202 1.500 . S
C200 O220 1.257 . S
C200 O221 1.260 . S
Eu201 C200 2.835 . S
Eu201 O220 2.473 . S
Eu201 O221 2.480 . S
Eu201 O222 2.430 . S
Eu201 O223 2.670 . S
Eu201 O224 2.394 . S
Eu201 O229 2.355 . S
Eu201 O231 2.374 . S
C202 C200 1.500 . S
C202 C203 1.377 . S
C202 C207 1.377 . S
C203 C202 1.377 . S
C203 C204 1.395 . S
C203 H232 0.931 . S
C204 C203 1.395 . S
C204 C205 1.383 . S
C204 H233 0.931 . S
C205 C204 1.383 . S
C205 C206 1.394 . S
C206 C205 1.394 . S
C206 C207 1.378 . S
C206 H234 0.931 . S
C207 C202 1.377 . S
C207 C206 1.378 . S
C207 H235 0.931 . S
C208 O222 1.259 . S
C208 O223 1.270 . S
C209 O224 1.251 . S
C209 O225 1.251 . S
C210 Eu211 2.835 . S
C210 C212 1.500 . S
C210 O226 1.257 . S
C210 O227 1.260 . S
Eu211 C210 2.835 . S
Eu211 O223 2.355 . S
Eu211 O225 2.374 . S
Eu211 O226 2.473 . S
Eu211 O227 2.480 . S
Eu211 O228 2.430 . S
Eu211 O229 2.670 . S
Eu211 O230 2.394 . S
C212 C210 1.500 . S
C212 C213 1.377 . S
C212 C217 1.377 . S
C213 C212 1.377 . S
C213 C214 1.395 . S
C213 H236 0.931 . S
C214 C213 1.395 . S
C214 C215 1.383 . S
C214 H237 0.931 . S
C215 C214 1.383 . S
C215 C216 1.394 . S
C216 C215 1.394 . S
C216 C217 1.378 . S
C216 H238 0.931 . S
C217 C212 1.377 . S
C217 C216 1.378 . S
C217 H239 0.931 . S
C218 O228 1.259 . S
C218 O229 1.270 . S
C219 O230 1.251 . S
C219 O231 1.251 . S
O220 C200 1.257 . S
O220 Eu201 2.473 . S
O221 C200 1.260 . S
O221 Eu201 2.480 . S
O222 Eu201 2.430 . S
O222 C208 1.259 . S
O223 Eu201 2.670 . S
O223 C208 1.270 . S
O223 Eu211 2.355 . S
O224 Eu201 2.394 . S
O224 C209 1.251 . S
O225 C209 1.251 . S
O225 Eu211 2.374 . S
O226 C210 1.257 . S
O226 Eu211 2.473 . S
O227 C210 1.260 . S
O227 Eu211 2.480 . S
O228 Eu211 2.430 . S
O228 C218 1.259 . S
O229 Eu201 2.355 . S
O229 Eu211 2.670 . S
O229 C218 1.270 . S
O230 Eu211 2.394 . S
O230 C219 1.251 . S
O231 Eu201 2.374 . S
O231 C219 1.251 . S
H232 C203 0.931 . S
H233 C204 0.931 . S
H234 C206 0.931 . S
H235 C207 0.931 . S
H236 C213 0.931 . S
H237 C214 0.931 . S
H238 C216 0.931 . S
H239 C217 0.931 . S
C240 Eu241 2.835 . S
C240 C242 1.500 . S
C240 O260 1.257 . S
C240 O261 1.260 . S
Eu241 C240 2.835 . S
Eu241 O260 2.473 . S
Eu241 O261 2.480 . S
Eu241 O262 2.430 . S
Eu241 O263 2.670 . S
Eu241 O264 2.394 . S
Eu241 O269 2.355 . S
Eu241 O271 2.374 . S
C242 C240 1.500 . S
C242 C243 1.377 . S
C242 C247 1.377 . S
C243 C242 1.377 . S
C243 C244 1.395 . S
C243 H272 0.931 . S
C244 C243 1.395 . S
C244 C245 1.383 . S
C244 H273 0.931 . S
C245 C244 1.383 . S
C245 C246 1.394 . S
C246 C245 1.394 . S
C246 C247 1.378 . S
C246 H274 0.931 . S
C247 C242 1.377 . S
C247 C246 1.378 . S
C247 H275 0.931 . S
C248 O262 1.259 . S
C248 O263 1.270 . S
C249 O264 1.251 . S
C249 O265 1.251 . S
C250 Eu251 2.835 . S
C250 C252 1.500 . S
C250 O266 1.257 . S
C250 O267 1.260 . S
Eu251 C250 2.835 . S
Eu251 O263 2.355 . S
Eu251 O265 2.374 . S
Eu251 O266 2.473 . S
Eu251 O267 2.480 . S
Eu251 O268 2.430 . S
Eu251 O269 2.670 . S
Eu251 O270 2.394 . S
C252 C250 1.500 . S
C252 C253 1.377 . S
C252 C257 1.377 . S
C253 C252 1.377 . S
C253 C254 1.395 . S
C253 H276 0.931 . S
C254 C253 1.395 . S
C254 C255 1.383 . S
C254 H277 0.931 . S
C255 C254 1.383 . S
C255 C256 1.394 . S
C256 C255 1.394 . S
C256 C257 1.378 . S
C256 H278 0.931 . S
C257 C252 1.377 . S
C257 C256 1.378 . S
C257 H279 0.931 . S
C258 O268 1.259 . S
C258 O269 1.270 . S
C259 O270 1.251 . S
C259 O271 1.251 . S
O260 C240 1.257 . S
O260 Eu241 2.473 . S
O261 C240 1.260 . S
O261 Eu241 2.480 . S
O262 Eu241 2.430 . S
O262 C248 1.259 . S
O263 Eu241 2.670 . S
O263 C248 1.270 . S
O263 Eu251 2.355 . S
O264 Eu241 2.394 . S
O264 C249 1.251 . S
O265 C249 1.251 . S
O265 Eu251 2.374 . S
O266 C250 1.257 . S
O266 Eu251 2.473 . S
O267 C250 1.260 . S
O267 Eu251 2.480 . S
O268 Eu251 2.430 . S
O268 C258 1.259 . S
O269 Eu241 2.355 . S
O269 Eu251 2.670 . S
O269 C258 1.270 . S
O270 Eu251 2.394 . S
O270 C259 1.251 . S
O271 Eu241 2.374 . S
O271 C259 1.251 . S
H272 C243 0.931 . S
H273 C244 0.931 . S
H274 C246 0.931 . S
H275 C247 0.931 . S
H276 C253 0.931 . S
H277 C254 0.931 . S
H278 C256 0.931 . S
H279 C257 0.931 . S
C280 Eu281 2.835 . S
C280 C282 1.500 . S
C280 O300 1.257 . S
C280 O301 1.260 . S
Eu281 C280 2.835 . S
Eu281 O300 2.473 . S
Eu281 O301 2.480 . S
Eu281 O302 2.430 1_455 S
Eu281 O303 2.670 1_455 S
Eu281 O304 2.394 . S
Eu281 O309 2.355 . S
Eu281 O311 2.374 . S
C282 C280 1.500 . S
C282 C283 1.377 . S
C282 C287 1.377 . S
C283 C282 1.377 . S
C283 C284 1.395 . S
C283 H312 0.931 . S
C284 C283 1.395 . S
C284 C285 1.383 . S
C284 H313 0.931 . S
C285 C284 1.383 . S
C285 C286 1.394 . S
C286 C285 1.394 . S
C286 C287 1.378 . S
C286 H314 0.931 . S
C287 C282 1.377 . S
C287 C286 1.378 . S
C287 H315 0.931 . S
C288 O302 1.259 . S
C288 O303 1.270 . S
C289 O304 1.267 . S
C289 O305 1.231 1_455 S
C290 Eu291 2.835 . S
C290 C292 1.500 . S
C290 O306 1.257 . S
C290 O307 1.260 . S
Eu291 C290 2.835 . S
Eu291 O303 2.355 . S
Eu291 O305 2.374 . S
Eu291 O306 2.473 . S
Eu291 O307 2.480 . S
Eu291 O308 2.430 . S
Eu291 O309 2.670 1_655 S
Eu291 O310 2.394 . S
C292 C290 1.500 . S
C292 C293 1.377 . S
C292 C297 1.377 . S
C293 C292 1.377 . S
C293 C294 1.395 . S
C293 H316 0.931 . S
C294 C293 1.395 . S
C294 C295 1.383 . S
C294 H317 0.931 . S
C295 C294 1.383 . S
C295 C296 1.394 . S
C296 C295 1.394 . S
C296 C297 1.378 . S
C296 H318 0.931 . S
C297 C292 1.377 . S
C297 C296 1.378 . S
C297 H319 0.931 . S
C298 O308 1.259 1_455 S
C298 O309 1.270 . S
C299 O310 1.251 . S
C299 O311 1.251 1_655 S
O300 C280 1.257 . S
O300 Eu281 2.473 . S
O301 C280 1.260 . S
O301 Eu281 2.480 . S
O302 Eu281 2.430 1_655 S
O302 C288 1.259 . S
O303 Eu281 2.670 1_655 S
O303 C288 1.270 . S
O303 Eu291 2.355 . S
O304 Eu281 2.394 . S
O304 C289 1.267 . S
O305 C289 1.231 1_655 S
O305 Eu291 2.374 . S
O306 C290 1.257 . S
O306 Eu291 2.473 . S
O307 C290 1.260 . S
O307 Eu291 2.480 . S
O308 Eu291 2.430 . S
O308 C298 1.259 1_655 S
O309 Eu281 2.355 . S
O309 Eu291 2.670 1_455 S
O309 C298 1.270 . S
O310 Eu291 2.394 . S
O310 C299 1.251 . S
O311 Eu281 2.374 . S
O311 C299 1.251 1_455 S
H312 C283 0.931 . S
H313 C284 0.931 . S
H314 C286 0.931 . S
H315 C287 0.931 . S
H316 C293 0.931 . S
H317 C294 0.931 . S
H318 C296 0.931 . S
H319 C297 0.931 . S
C320 Eu321 2.835 . S
C320 C322 1.500 . S
C320 O340 1.257 . S
C320 O341 1.260 1_655 S
Eu321 C320 2.835 . S
Eu321 O340 2.473 . S
Eu321 O341 2.480 1_655 S
Eu321 O342 2.430 1_655 S
Eu321 O343 2.670 1_655 S
Eu321 O344 2.394 . S
Eu321 O349 2.355 . S
Eu321 O351 2.374 1_655 S
C322 C320 1.500 . S
C322 C323 1.377 . S
C322 C327 1.377 . S
C323 C322 1.377 . S
C323 C324 1.395 . S
C323 H352 0.931 1_655 S
C324 C323 1.395 . S
C324 C325 1.383 . S
C324 H353 0.931 . S
C325 C324 1.383 . S
C325 C326 1.394 . S
C326 C325 1.394 . S
C326 C327 1.378 . S
C326 H354 0.931 . S
C327 C322 1.377 . S
C327 C326 1.378 . S
C327 H355 0.931 . S
C328 O342 1.259 . S
C328 O343 1.270 . S
C329 O344 1.251 . S
C329 O345 1.251 . S
C330 Eu331 2.835 1_455 S
C330 C332 1.500 . S
C330 O346 1.257 . S
C330 O347 1.260 1_455 S
Eu331 C330 2.835 1_655 S
Eu331 O343 2.355 1_655 S
Eu331 O345 2.374 . S
Eu331 O346 2.473 1_655 S
Eu331 O347 2.480 . S
Eu331 O348 2.430 . S
Eu331 O349 2.670 . S
Eu331 O350 2.394 . S
C332 C330 1.500 . S
C332 C333 1.377 1_455 S
C332 C337 1.377 . S
C333 C332 1.377 1_655 S
C333 C334 1.395 1_655 S
C333 H356 0.931 . S
C334 C333 1.395 1_455 S
C334 C335 1.383 . S
C334 H357 0.931 1_455 S
C335 C334 1.383 . S
C335 C336 1.394 . S
C336 C335 1.394 . S
C336 C337 1.378 . S
C336 H358 0.931 . S
C337 C332 1.377 . S
C337 C336 1.378 . S
C337 H359 0.931 . S
C338 O348 1.259 . S
C338 O349 1.270 . S
C339 O350 1.251 1_455 S
C339 O351 1.246 . S
O340 C320 1.257 . S
O340 Eu321 2.473 . S
O341 C320 1.260 1_455 S
O341 Eu321 2.480 1_455 S
O342 Eu321 2.430 1_455 S
O342 C328 1.259 . S
O343 Eu321 2.670 1_455 S
O343 C328 1.270 . S
O343 Eu331 2.355 1_455 S
O344 Eu321 2.394 . S
O344 C329 1.251 . S
O345 C329 1.251 . S
O345 Eu331 2.374 . S
O346 C330 1.257 . S
O346 Eu331 2.473 1_455 S
O347 C330 1.260 1_655 S
O347 Eu331 2.480 . S
O348 Eu331 2.430 . S
O348 C338 1.259 . S
O349 Eu321 2.355 . S
O349 Eu331 2.670 . S
O349 C338 1.270 . S
O350 Eu331 2.394 . S
O350 C339 1.251 1_655 S
O351 Eu321 2.374 1_455 S
O351 C339 1.246 . S
H352 C323 0.931 1_455 S
H353 C324 0.931 . S
H354 C326 0.931 . S
H355 C327 0.931 . S
H356 C333 0.931 . S
H357 C334 0.931 1_655 S
H358 C336 0.931 . S
H359 C337 0.931 . S
H360 C366 0.930 . S
H361 C370 0.930 . S
H362 C375 0.929 . S
H363 C373 0.929 . S
H364 C368 0.929 . S
H365 C374 0.929 . S
C366 H360 0.930 . S
C366 C367 1.367 . S
C366 C374 1.378 . S
C367 C366 1.367 . S
C367 C375 1.433 . S
C368 H364 0.929 . S
C368 C370 1.378 . S
C368 C372 1.350 . S
C369 C372 1.463 . S
C369 C374 1.350 . S
C369 N377 1.427 . S
C370 H361 0.930 . S
C370 C368 1.378 . S
C370 C371 1.367 . S
C371 C370 1.367 . S
C371 C373 1.433 . S
C372 C368 1.350 . S
C372 C369 1.463 . S
C372 N376 1.427 . S
C373 H363 0.929 . S
C373 C371 1.433 . S
C373 N376 1.384 . S
C374 H365 0.929 . S
C374 C366 1.378 . S
C374 C369 1.350 . S
C375 H362 0.929 . S
C375 C367 1.433 . S
C375 N377 1.384 . S
N376 C372 1.427 . S
N376 C373 1.384 . S
N377 C369 1.427 . S
N377 C375 1.384 . S
H378 C384 0.930 . S
H379 C388 0.930 . S
H380 C393 0.929 . S
H381 C391 0.929 . S
H382 C386 0.929 . S
H383 C392 0.929 . S
C384 H378 0.930 . S
C384 C385 1.367 . S
C384 C392 1.378 . S
C385 C384 1.367 . S
C385 C393 1.433 . S
C386 H382 0.929 . S
C386 C388 1.378 . S
C386 C390 1.350 . S
C387 C390 1.463 . S
C387 C392 1.350 . S
C387 N395 1.427 . S
C388 H379 0.930 . S
C388 C386 1.378 . S
C388 C389 1.367 . S
C389 C388 1.367 . S
C389 C391 1.433 . S
C390 C386 1.350 . S
C390 C387 1.463 . S
C390 N394 1.427 . S
C391 H381 0.929 . S
C391 C389 1.433 . S
C391 N394 1.384 . S
C392 H383 0.929 . S
C392 C384 1.378 . S
C392 C387 1.350 . S
C393 H380 0.929 . S
C393 C385 1.433 . S
C393 N395 1.384 . S
N394 C390 1.427 . S
N394 C391 1.384 . S
N395 C387 1.427 . S
N395 C393 1.384 . S
H396 C402 0.930 . S
H397 C406 0.930 . S
H398 C411 0.929 . S
H399 C409 0.929 . S
H400 C404 0.929 . S
H401 C410 0.929 . S
C402 H396 0.930 . S
C402 C403 1.367 . S
C402 C410 1.378 . S
C403 C402 1.367 . S
C403 C411 1.433 . S
C404 H400 0.929 . S
C404 C406 1.378 . S
C404 C408 1.350 . S
C405 C408 1.463 . S
C405 C410 1.350 . S
C405 N413 1.427 . S
C406 H397 0.930 . S
C406 C404 1.378 . S
C406 C407 1.367 . S
C407 C406 1.367 . S
C407 C409 1.433 . S
C408 C404 1.350 . S
C408 C405 1.463 . S
C408 N412 1.427 . S
C409 H399 0.929 . S
C409 C407 1.433 . S
C409 N412 1.384 . S
C410 H401 0.929 . S
C410 C402 1.378 . S
C410 C405 1.350 . S
C411 H398 0.929 . S
C411 C403 1.433 . S
C411 N413 1.384 . S
N412 C408 1.427 . S
N412 C409 1.384 . S
N413 C405 1.427 . S
N413 C411 1.384 . S
H414 C420 0.930 . S
H415 C424 0.930 . S
H416 C429 0.929 . S
H417 C427 0.929 . S
H418 C422 0.929 . S
H419 C428 0.929 . S
C420 H414 0.930 . S
C420 C421 1.367 1_545 S
C420 C428 1.378 . S
C421 C420 1.367 1_565 S
C421 C429 1.433 . S
C422 H418 0.929 . S
C422 C424 1.378 . S
C422 C426 1.350 . S
C423 C426 1.463 . S
C423 C428 1.350 1_565 S
C423 N431 1.427 . S
C424 H415 0.930 . S
C424 C422 1.378 . S
C424 C425 1.367 . S
C425 C424 1.367 . S
C425 C427 1.433 1_565 S
C426 C422 1.350 . S
C426 C423 1.463 . S
C426 N430 1.427 1_565 S
C427 H417 0.929 . S
C427 C425 1.433 1_545 S
C427 N430 1.384 . S
C428 H419 0.929 . S
C428 C420 1.378 . S
C428 C423 1.350 1_545 S
C429 H416 0.929 . S
C429 C421 1.433 . S
C429 N431 1.384 . S
N430 C426 1.427 1_545 S
N430 C427 1.384 . S
N431 C423 1.427 . S
N431 C429 1.384 . S
H432 C438 0.930 . S
H433 C442 0.930 . S
H434 C447 0.929 . S
H435 C445 0.929 . S
H436 C440 0.929 . S
H437 C446 0.929 . S
C438 H432 0.930 . S
C438 C439 1.367 . S
C438 C446 1.378 . S
C439 C438 1.367 . S
C439 C447 1.433 . S
C440 H436 0.929 . S
C440 C442 1.378 . S
C440 C444 1.350 . S
C441 C444 1.463 . S
C441 C446 1.350 . S
C441 N449 1.427 . S
C442 H433 0.930 . S
C442 C440 1.378 . S
C442 C443 1.367 . S
C443 C442 1.367 . S
C443 C445 1.433 . S
C444 C440 1.350 . S
C444 C441 1.463 . S
C444 N448 1.427 . S
C445 H435 0.929 . S
C445 C443 1.433 . S
C445 N448 1.384 . S
C446 H437 0.929 . S
C446 C438 1.378 . S
C446 C441 1.350 . S
C447 H434 0.929 . S
C447 C439 1.433 . S
C447 N449 1.384 . S
N448 C444 1.427 . S
N448 C445 1.384 . S
N449 C441 1.427 . S
N449 C447 1.384 . S
H450 C456 0.930 . S
H451 C460 0.930 . S
H452 C465 0.929 . S
H453 C463 0.929 . S
H454 C458 0.929 . S
H455 C464 0.929 . S
C456 H450 0.930 . S
C456 C457 1.367 . S
C456 C464 1.378 . S
C457 C456 1.367 . S
C457 C465 1.433 . S
C458 H454 0.929 . S
C458 C460 1.378 . S
C458 C462 1.350 . S
C459 C462 1.463 . S
C459 C464 1.350 . S
C459 N467 1.427 . S
C460 H451 0.930 . S
C460 C458 1.378 . S
C460 C461 1.367 . S
C461 C460 1.367 . S
C461 C463 1.433 . S
C462 C458 1.350 . S
C462 C459 1.463 . S
C462 N466 1.427 . S
C463 H453 0.929 . S
C463 C461 1.433 . S
C463 N466 1.384 . S
C464 H455 0.929 . S
C464 C456 1.378 . S
C464 C459 1.350 . S
C465 H452 0.929 . S
C465 C457 1.433 . S
C465 N467 1.384 . S
N466 C462 1.427 . S
N466 C463 1.384 . S
N467 C459 1.427 . S
N467 C465 1.384 . S
H468 C474 0.930 . S
H469 C478 0.930 . S
H470 C483 0.929 . S
H471 C481 0.929 . S
H472 C476 0.929 . S
H473 C482 0.929 . S
C474 H468 0.930 . S
C474 C475 1.367 . S
C474 C482 1.378 . S
C475 C474 1.367 . S
C475 C483 1.433 . S
C476 H472 0.929 . S
C476 C478 1.378 1_554 S
C476 C480 1.350 . S
C477 C480 1.463 . S
C477 C482 1.350 . S
C477 N485 1.427 . S
C478 H469 0.930 . S
C478 C476 1.378 1_556 S
C478 C479 1.367 . S
C479 C478 1.367 . S
C479 C481 1.433 . S
C480 C476 1.350 . S
C480 C477 1.463 . S
C480 N484 1.427 . S
C481 H471 0.929 . S
C481 C479 1.433 . S
C481 N484 1.384 1_556 S
C482 H473 0.929 . S
C482 C474 1.378 . S
C482 C477 1.350 . S
C483 H470 0.929 . S
C483 C475 1.433 . S
C483 N485 1.384 . S
N484 C480 1.427 . S
N484 C481 1.384 1_554 S
N485 C477 1.427 . S
N485 C483 1.384 . S
H486 C492 0.930 . S
H487 C496 0.930 . S
H488 C501 0.929 . S
H489 C499 0.929 1_556 S
H490 C494 0.929 . S
H491 C500 0.929 . S
C492 H486 0.930 . S
C492 C493 1.367 1_655 S
C492 C500 1.378 . S
C493 C492 1.367 1_455 S
C493 C501 1.433 . S
C494 H490 0.929 . S
C494 C496 1.378 1_554 S
C494 C498 1.350 1_455 S
C495 C498 1.463 . S
C495 C500 1.350 . S
C495 N503 1.427 1_655 S
C496 H487 0.930 . S
C496 C494 1.378 1_556 S
C496 C497 1.367 1_455 S
C497 C496 1.367 1_655 S
C497 C499 1.433 1_556 S
C498 C494 1.350 1_655 S
C498 C495 1.463 . S
C498 N502 1.427 . S
C499 H489 0.929 1_554 S
C499 C497 1.433 1_554 S
C499 N502 1.384 . S
C500 H491 0.929 . S
C500 C492 1.378 . S
C500 C495 1.350 . S
C501 H488 0.929 . S
C501 C493 1.433 . S
C501 N503 1.384 . S
N502 C498 1.427 . S
N502 C499 1.384 . S
N503 C495 1.427 1_455 S
N503 C501 1.384 . S
H504 C510 0.930 . S
H505 C514 0.930 . S
H506 C519 0.929 . S
H507 C517 0.930 . S
H508 C512 0.929 . S
H509 C518 0.929 1_455 S
C510 H504 0.930 . S
C510 C511 1.367 . S
C510 C518 1.378 . S
C511 C510 1.367 . S
C511 C519 1.433 . S
C512 H508 0.929 . S
C512 C514 1.378 1_554 S
C512 C516 1.350 . S
C513 C516 1.463 . S
C513 C518 1.350 . S
C513 N521 1.427 . S
C514 H505 0.930 . S
C514 C512 1.378 1_556 S
C514 C515 1.367 1_655 S
C515 C514 1.367 1_455 S
C515 C517 1.435 . S
C516 C512 1.350 . S
C516 C513 1.463 . S
C516 N520 1.427 1_655 S
C517 H507 0.930 . S
C517 C515 1.435 . S
C517 N520 1.381 1_556 S
C518 H509 0.929 1_655 S
C518 C510 1.378 . S
C518 C513 1.350 . S
C519 H506 0.929 . S
C519 C511 1.433 . S
C519 N521 1.384 . S
N520 C516 1.427 1_455 S
N520 C517 1.381 1_554 S
N521 C513 1.427 . S
N521 C519 1.384 . S
H522 C528 0.930 . S
H523 C532 0.930 . S
H524 C537 0.929 . S
H525 C535 0.929 . S
H526 C530 0.929 . S
H527 C536 0.929 . S
C528 H522 0.930 . S
C528 C529 1.367 . S
C528 C536 1.378 . S
C529 C528 1.367 . S
C529 C537 1.433 . S
C530 H526 0.929 . S
C530 C532 1.378 . S
C530 C534 1.350 . S
C531 C534 1.463 . S
C531 C536 1.350 . S
C531 N539 1.427 . S
C532 H523 0.930 . S
C532 C530 1.378 . S
C532 C533 1.367 . S
C533 C532 1.367 . S
C533 C535 1.433 . S
C534 C530 1.350 . S
C534 C531 1.463 . S
C534 N538 1.427 . S
C535 H525 0.929 . S
C535 C533 1.433 . S
C535 N538 1.384 . S
C536 H527 0.929 . S
C536 C528 1.378 . S
C536 C531 1.350 . S
C537 H524 0.929 . S
C537 C529 1.433 . S
C537 N539 1.384 . S
N538 C534 1.427 . S
N538 C535 1.384 . S
N539 C531 1.427 . S
N539 C537 1.384 . S
H540 C546 0.930 . S
H541 C550 0.930 . S
H542 C555 0.929 . S
H543 C553 0.929 . S
H544 C548 0.929 . S
H545 C554 0.929 . S
C546 H540 0.930 . S
C546 C547 1.367 . S
C546 C554 1.378 . S
C547 C546 1.367 . S
C547 C555 1.433 . S
C548 H544 0.929 . S
C548 C550 1.378 . S
C548 C552 1.350 . S
C549 C552 1.463 . S
C549 C554 1.350 . S
C549 N557 1.427 . S
C550 H541 0.930 . S
C550 C548 1.378 . S
C550 C551 1.367 . S
C551 C550 1.367 . S
C551 C553 1.433 . S
C552 C548 1.350 . S
C552 C549 1.463 . S
C552 N556 1.427 . S
C553 H543 0.929 . S
C553 C551 1.433 . S
C553 N556 1.384 . S
C554 H545 0.929 . S
C554 C546 1.378 . S
C554 C549 1.350 . S
C555 H542 0.929 . S
C555 C547 1.433 . S
C555 N557 1.384 . S
N556 C552 1.427 . S
N556 C553 1.384 . S
N557 C549 1.427 . S
N557 C555 1.384 . S
H558 C564 0.930 . S
H559 C568 0.930 . S
H560 C573 0.929 . S
H561 C571 0.929 . S
H562 C566 0.929 . S
H563 C572 0.929 . S
C564 H558 0.930 . S
C564 C565 1.367 . S
C564 C572 1.378 . S
C565 C564 1.367 . S
C565 C573 1.433 . S
C566 H562 0.929 . S
C566 C568 1.378 . S
C566 C570 1.350 . S
C567 C570 1.463 . S
C567 C572 1.350 . S
C567 N575 1.427 . S
C568 H559 0.930 . S
C568 C566 1.378 . S
C568 C569 1.367 . S
C569 C568 1.367 . S
C569 C571 1.433 . S
C570 C566 1.350 . S
C570 C567 1.463 . S
C570 N574 1.427 . S
C571 H561 0.929 . S
C571 C569 1.433 . S
C571 N574 1.384 . S
C572 H563 0.929 . S
C572 C564 1.378 . S
C572 C567 1.350 . S
C573 H560 0.929 . S
C573 C565 1.433 . S
C573 N575 1.384 . S
N574 C570 1.427 . S
N574 C571 1.384 . S
N575 C567 1.427 . S
N575 C573 1.384 . S
H576 C582 0.930 . S
H577 C586 0.930 . S
H578 C591 0.929 . S
H579 C589 0.929 . S
H580 C584 0.929 . S
H581 C590 0.929 . S
C582 H576 0.930 . S
C582 C583 1.367 . S
C582 C590 1.378 . S
C583 C582 1.367 . S
C583 C591 1.433 1_554 S
C584 H580 0.929 . S
C584 C586 1.378 . S
C584 C588 1.350 . S
C585 C588 1.463 . S
C585 C590 1.350 1_556 S
C585 N593 1.427 . S
C586 H577 0.930 . S
C586 C584 1.378 . S
C586 C587 1.367 . S
C587 C586 1.367 . S
C587 C589 1.433 . S
C588 C584 1.350 . S
C588 C585 1.463 . S
C588 N592 1.427 . S
C589 H579 0.929 . S
C589 C587 1.433 . S
C589 N592 1.384 . S
C590 H581 0.929 . S
C590 C582 1.378 . S
C590 C585 1.350 1_554 S
C591 H578 0.929 . S
C591 C583 1.433 1_556 S
C591 N593 1.384 . S
N592 C588 1.427 . S
N592 C589 1.384 . S
N593 C585 1.427 . S
N593 C591 1.384 . S
H594 C600 0.930 . S
H595 C604 0.930 . S
H596 C609 0.929 . S
H597 C607 0.929 . S
H598 C602 0.929 . S
H599 C608 0.929 . S
C600 H594 0.930 . S
C600 C601 1.367 . S
C600 C608 1.378 . S
C601 C600 1.367 . S
C601 C609 1.433 . S
C602 H598 0.929 . S
C602 C604 1.378 . S
C602 C606 1.350 1_554 S
C603 C606 1.463 . S
C603 C608 1.350 . S
C603 N611 1.427 . S
C604 H595 0.930 . S
C604 C602 1.378 . S
C604 C605 1.367 . S
C605 C604 1.367 . S
C605 C607 1.433 1_554 S
C606 C602 1.350 1_556 S
C606 C603 1.463 . S
C606 N610 1.427 . S
C607 H597 0.929 . S
C607 C605 1.433 1_556 S
C607 N610 1.384 . S
C608 H599 0.929 . S
C608 C600 1.378 . S
C608 C603 1.350 . S
C609 H596 0.929 . S
C609 C601 1.433 . S
C609 N611 1.384 . S
N610 C606 1.427 . S
N610 C607 1.384 . S
N611 C603 1.427 . S
N611 C609 1.384 . S
H612 C618 0.930 . S
H613 C622 0.930 . S
H614 C627 0.929 . S
H615 C625 0.929 . S
H616 C620 0.929 . S
H617 C626 0.929 . S
C618 H612 0.930 . S
C618 C619 1.367 . S
C618 C626 1.378 . S
C619 C618 1.367 . S
C619 C627 1.433 . S
C620 H616 0.929 . S
C620 C622 1.378 1_556 S
C620 C624 1.350 . S
C621 C624 1.463 . S
C621 C626 1.350 . S
C621 N629 1.427 . S
C622 H613 0.930 . S
C622 C620 1.378 1_554 S
C622 C623 1.367 . S
C623 C622 1.367 . S
C623 C625 1.433 . S
C624 C620 1.350 . S
C624 C621 1.463 . S
C624 N628 1.427 . S
C625 H615 0.929 . S
C625 C623 1.433 . S
C625 N628 1.384 1_554 S
C626 H617 0.929 . S
C626 C618 1.378 . S
C626 C621 1.350 . S
C627 H614 0.929 . S
C627 C619 1.433 . S
C627 N629 1.384 . S
N628 C624 1.427 . S
N628 C625 1.384 1_556 S
N629 C621 1.427 . S
N629 C627 1.384 . S
H630 C636 0.930 . S
H631 C640 0.930 . S
H632 C645 0.929 . S
H633 C643 0.929 . S
H634 C638 0.929 . S
H635 C644 0.929 . S
C636 H630 0.930 . S
C636 C637 1.367 1_554 S
C636 C644 1.378 . S
C637 C636 1.367 1_556 S
C637 C645 1.433 . S
C638 H634 0.929 . S
C638 C640 1.378 . S
C638 C642 1.350 . S
C639 C642 1.463 . S
C639 C644 1.350 1_556 S
C639 N647 1.427 . S
C640 H631 0.930 . S
C640 C638 1.378 . S
C640 C641 1.367 1_556 S
C641 C640 1.367 1_554 S
C641 C643 1.433 . S
C642 C638 1.350 . S
C642 C639 1.463 . S
C642 N646 1.427 1_556 S
C643 H633 0.929 . S
C643 C641 1.433 . S
C643 N646 1.384 . S
C644 H635 0.929 . S
C644 C636 1.378 . S
C644 C639 1.350 1_554 S
C645 H632 0.929 . S
C645 C637 1.433 . S
C645 N647 1.384 . S
N646 C642 1.427 1_554 S
N646 C643 1.384 . S
N647 C639 1.427 . S
N647 C645 1.384 . S
H648 C654 0.930 . S
H649 C658 0.930 . S
H650 C663 0.929 . S
H651 C661 0.929 . S
H652 C656 0.929 . S
H653 C662 0.929 . S
C654 H648 0.930 . S
C654 C655 1.367 . S
C654 C662 1.378 . S
C655 C654 1.367 . S
C655 C663 1.433 1_554 S
C656 H652 0.929 . S
C656 C658 1.378 . S
C656 C660 1.350 . S
C657 C660 1.463 . S
C657 C662 1.350 1_556 S
C657 N665 1.427 . S
C658 H649 0.930 . S
C658 C656 1.378 . S
C658 C659 1.367 . S
C659 C658 1.367 . S
C659 C661 1.433 1_556 S
C660 C656 1.350 . S
C660 C657 1.463 . S
C660 N664 1.427 1_556 S
C661 H651 0.929 . S
C661 C659 1.433 1_554 S
C661 N664 1.384 . S
C662 H653 0.929 . S
C662 C654 1.378 . S
C662 C657 1.350 1_554 S
C663 H650 0.929 . S
C663 C655 1.433 1_556 S
C663 N665 1.384 . S
N664 C660 1.427 1_554 S
N664 C661 1.384 . S
N665 C657 1.427 . S
N665 C663 1.384 . S
H666 C672 0.930 . S
H667 C676 0.930 . S
H668 C681 0.929 . S
H669 C679 0.929 . S
H670 C674 0.928 1_556 S
H671 C680 0.929 . S
C672 H666 0.930 . S
C672 C673 1.367 . S
C672 C680 1.378 . S
C673 C672 1.367 . S
C673 C681 1.433 . S
C674 H670 0.928 1_554 S
C674 C676 1.379 . S
C674 C678 1.349 1_554 S
C675 C678 1.463 . S
C675 C680 1.350 . S
C675 N683 1.427 . S
C676 H667 0.930 . S
C676 C674 1.379 . S
C676 C677 1.367 . S
C677 C676 1.367 . S
C677 C679 1.433 . S
C678 C674 1.349 1_556 S
C678 C675 1.463 . S
C678 N682 1.427 . S
C679 H669 0.929 . S
C679 C677 1.433 . S
C679 N682 1.384 1_554 S
C680 H671 0.929 . S
C680 C672 1.378 . S
C680 C675 1.350 . S
C681 H668 0.929 . S
C681 C673 1.433 . S
C681 N683 1.384 . S
N682 C678 1.427 . S
N682 C679 1.384 1_556 S
N683 C675 1.427 . S
N683 C681 1.384 . S
H684 C690 0.930 . S
H685 C694 0.930 . S
H686 C699 0.929 . S
H687 C697 0.929 . S
H688 C692 0.929 . S
H689 C698 0.929 . S
C690 H684 0.930 . S
C690 C691 1.367 . S
C690 C698 1.378 . S
C691 C690 1.367 . S
C691 C699 1.433 . S
C692 H688 0.929 . S
C692 C694 1.378 . S
C692 C696 1.350 . S
C693 C696 1.463 . S
C693 C698 1.350 . S
C693 N701 1.427 . S
C694 H685 0.930 . S
C694 C692 1.378 . S
C694 C695 1.367 . S
C695 C694 1.367 . S
C695 C697 1.433 . S
C696 C692 1.350 . S
C696 C693 1.463 . S
C696 N700 1.427 . S
C697 H687 0.929 . S
C697 C695 1.433 . S
C697 N700 1.384 . S
C698 H689 0.929 . S
C698 C690 1.378 . S
C698 C693 1.350 . S
C699 H686 0.929 . S
C699 C691 1.433 . S
C699 N701 1.384 . S
N700 C696 1.427 . S
N700 C697 1.384 . S
N701 C693 1.427 . S
N701 C699 1.384 . S
H702 C708 0.930 . S
H703 C712 0.930 . S
H704 C717 0.929 . S
H705 C715 0.929 . S
H706 C710 0.929 . S
H707 C716 0.929 . S
C708 H702 0.930 . S
C708 C709 1.367 . S
C708 C716 1.378 . S
C709 C708 1.367 . S
C709 C717 1.433 . S
C710 H706 0.929 . S
C710 C712 1.378 . S
C710 C714 1.350 . S
C711 C714 1.463 . S
C711 C716 1.350 . S
C711 N719 1.427 . S
C712 H703 0.930 . S
C712 C710 1.378 . S
C712 C713 1.367 . S
C713 C712 1.367 . S
C713 C715 1.433 . S
C714 C710 1.350 . S
C714 C711 1.463 . S
C714 N718 1.427 . S
C715 H705 0.929 . S
C715 C713 1.433 . S
C715 N718 1.384 . S
C716 H707 0.929 . S
C716 C708 1.378 . S
C716 C711 1.350 . S
C717 H704 0.929 . S
C717 C709 1.433 . S
C717 N719 1.384 . S
N718 C714 1.427 . S
N718 C715 1.384 . S
N719 C711 1.427 . S
N719 C717 1.384 . S
H720 C726 0.930 . S
H721 C730 0.930 . S
H722 C735 0.929 1_556 S
H723 C733 0.929 . S
H724 C728 0.929 . S
H725 C734 0.929 . S
C726 H720 0.930 . S
C726 C727 1.367 . S
C726 C734 1.378 . S
C727 C726 1.367 . S
C727 C735 1.433 . S
C728 H724 0.929 . S
C728 C730 1.378 . S
C728 C732 1.350 . S
C729 C732 1.463 . S
C729 C734 1.350 . S
C729 N737 1.427 . S
C730 H721 0.930 . S
C730 C728 1.378 . S
C730 C731 1.367 . S
C731 C730 1.367 . S
C731 C733 1.433 . S
C732 C728 1.350 . S
C732 C729 1.463 . S
C732 N736 1.427 . S
C733 H723 0.929 . S
C733 C731 1.433 . S
C733 N736 1.384 . S
C734 H725 0.929 . S
C734 C726 1.378 . S
C734 C729 1.350 . S
C735 H722 0.929 1_554 S
C735 C727 1.433 . S
C735 N737 1.384 . S
N736 C732 1.427 . S
N736 C733 1.384 . S
N737 C729 1.427 . S
N737 C735 1.384 . S
H738 C744 0.930 . S
H739 C748 0.930 . S
H740 C753 0.929 . S
H741 C751 0.929 . S
H742 C746 0.929 . S
H743 C752 0.929 . S
C744 H738 0.930 . S
C744 C745 1.367 . S
C744 C752 1.378 . S
C745 C744 1.367 . S
C745 C753 1.433 . S
C746 H742 0.929 . S
C746 C748 1.378 . S
C746 C750 1.350 . S
C747 C750 1.463 . S
C747 C752 1.350 . S
C747 N755 1.427 . S
C748 H739 0.930 . S
C748 C746 1.378 . S
C748 C749 1.367 . S
C749 C748 1.367 . S
C749 C751 1.433 . S
C750 C746 1.350 . S
C750 C747 1.463 . S
C750 N754 1.427 . S
C751 H741 0.929 . S
C751 C749 1.433 . S
C751 N754 1.384 . S
C752 H743 0.929 . S
C752 C744 1.378 . S
C752 C747 1.350 . S
C753 H740 0.929 . S
C753 C745 1.433 . S
C753 N755 1.384 . S
N754 C750 1.427 . S
N754 C751 1.384 . S
N755 C747 1.427 . S
N755 C753 1.384 . S
H756 C762 0.930 . S
H757 C766 0.930 . S
H758 C771 0.929 . S
H759 C769 0.930 . S
H760 C764 0.929 . S
H761 C770 0.929 . S
C762 H756 0.930 . S
C762 C763 1.367 . S
C762 C770 1.378 . S
C763 C762 1.367 . S
C763 C771 1.433 . S
C764 H760 0.929 . S
C764 C766 1.378 1_545 S
C764 C768 1.350 . S
C765 C768 1.463 . S
C765 C770 1.350 . S
C765 N773 1.427 . S
C766 H757 0.930 . S
C766 C764 1.378 1_565 S
C766 C767 1.367 . S
C767 C766 1.367 . S
C767 C769 1.444 . S
C768 C764 1.350 . S
C768 C765 1.463 . S
C768 N772 1.427 . S
C769 H759 0.930 . S
C769 C767 1.444 . S
C769 N772 1.372 1_565 S
C770 H761 0.929 . S
C770 C762 1.378 . S
C770 C765 1.350 . S
C771 H758 0.929 . S
C771 C763 1.433 . S
C771 N773 1.384 . S
N772 C768 1.427 . S
N772 C769 1.372 1_545 S
N773 C765 1.427 . S
N773 C771 1.384 . S
H774 C780 0.930 . S
H775 C784 0.930 . S
H776 C789 0.929 . S
H777 C787 0.929 . S
H778 C782 0.929 . S
H779 C788 0.929 . S
C780 H774 0.930 . S
C780 C781 1.367 . S
C780 C788 1.378 . S
C781 C780 1.367 . S
C781 C789 1.433 . S
C782 H778 0.929 . S
C782 C784 1.378 . S
C782 C786 1.350 . S
C783 C786 1.463 . S
C783 C788 1.350 . S
C783 N791 1.427 . S
C784 H775 0.930 . S
C784 C782 1.378 . S
C784 C785 1.367 . S
C785 C784 1.367 . S
C785 C787 1.433 . S
C786 C782 1.350 . S
C786 C783 1.463 . S
C786 N790 1.427 . S
C787 H777 0.929 . S
C787 C785 1.433 . S
C787 N790 1.384 . S
C788 H779 0.929 . S
C788 C780 1.378 . S
C788 C783 1.350 . S
C789 H776 0.929 . S
C789 C781 1.433 . S
C789 N791 1.384 . S
N790 C786 1.427 . S
N790 C787 1.384 . S
N791 C783 1.427 . S
N791 C789 1.384 . S
H792 C798 0.930 . S
H793 C802 0.930 . S
H794 C807 0.929 . S
H795 C805 0.929 . S
H796 C800 0.929 . S
H797 C806 0.929 . S
C798 H792 0.930 . S
C798 C799 1.367 . S
C798 C806 1.378 . S
C799 C798 1.367 . S
C799 C807 1.433 . S
C800 H796 0.929 . S
C800 C802 1.378 . S
C800 C804 1.350 . S
C801 C804 1.463 . S
C801 C806 1.350 . S
C801 N809 1.427 . S
C802 H793 0.930 . S
C802 C800 1.378 . S
C802 C803 1.367 . S
C803 C802 1.367 . S
C803 C805 1.433 . S
C804 C800 1.350 . S
C804 C801 1.463 . S
C804 N808 1.427 . S
C805 H795 0.929 . S
C805 C803 1.433 . S
C805 N808 1.384 . S
C806 H797 0.929 . S
C806 C798 1.378 . S
C806 C801 1.350 . S
C807 H794 0.929 . S
C807 C799 1.433 . S
C807 N809 1.384 . S
N808 C804 1.427 . S
N808 C805 1.384 . S
N809 C801 1.427 . S
N809 C807 1.384 . S
H810 C816 0.930 . S
H811 C820 0.930 . S
H812 C825 0.929 . S
H813 C823 0.929 . S
H814 C818 0.929 . S
H815 C824 0.929 . S
C816 H810 0.930 . S
C816 C817 1.367 . S
C816 C824 1.378 . S
C817 C816 1.367 . S
C817 C825 1.433 . S
C818 H814 0.929 . S
C818 C820 1.378 . S
C818 C822 1.350 . S
C819 C822 1.463 . S
C819 C824 1.350 . S
C819 N827 1.427 . S
C820 H811 0.930 . S
C820 C818 1.378 . S
C820 C821 1.367 . S
C821 C820 1.367 . S
C821 C823 1.433 . S
C822 C818 1.350 . S
C822 C819 1.463 . S
C822 N826 1.427 . S
C823 H813 0.929 . S
C823 C821 1.433 . S
C823 N826 1.384 . S
C824 H815 0.929 . S
C824 C816 1.378 . S
C824 C819 1.350 . S
C825 H812 0.929 . S
C825 C817 1.433 . S
C825 N827 1.384 . S
N826 C822 1.427 . S
N826 C823 1.384 . S
N827 C819 1.427 . S
N827 C825 1.384 . S
H828 C834 0.930 . S
H829 C838 0.930 . S
H830 C843 0.929 . S
H831 C841 0.929 . S
H832 C836 0.929 . S
H833 C842 0.929 . S
C834 H828 0.930 . S
C834 C835 1.367 . S
C834 C842 1.378 . S
C835 C834 1.367 . S
C835 C843 1.433 . S
C836 H832 0.929 . S
C836 C838 1.378 . S
C836 C840 1.350 . S
C837 C840 1.463 . S
C837 C842 1.350 . S
C837 N845 1.427 . S
C838 H829 0.930 . S
C838 C836 1.378 . S
C838 C839 1.367 . S
C839 C838 1.367 . S
C839 C841 1.433 . S
C840 C836 1.350 . S
C840 C837 1.463 . S
C840 N844 1.427 . S
C841 H831 0.929 . S
C841 C839 1.433 . S
C841 N844 1.384 . S
C842 H833 0.929 . S
C842 C834 1.378 . S
C842 C837 1.350 . S
C843 H830 0.929 . S
C843 C835 1.433 . S
C843 N845 1.384 . S
N844 C840 1.427 . S
N844 C841 1.384 . S
N845 C837 1.427 . S
N845 C843 1.384 . S
C367 C18 1.414 . S
C371 C8 1.414 . S
C385 C58 1.419 . S
C389 C48 1.419 . S
C403 C98 1.424 . S
C407 C88 1.424 . S
C421 C128 1.417 . S
C425 C138 1.417 1_556 S
C439 C168 1.423 . S
C443 C178 1.423 1_556 S
C457 C208 1.415 . S
C461 C218 1.415 1_556 S
C475 C249 1.295 . S
C479 C259 1.295 . S
C493 C289 1.287 . S
C497 C299 1.286 . S
C511 C329 1.288 . S
C515 C339 1.290 . S
C529 C219 2.494 . S
C533 C15 2.457 . S
C547 C55 2.452 . S
C551 C139 2.493 . S
C565 C95 2.451 1_565 S
C569 C179 2.492 . S
C583 C99 2.175 . S
C587 C258 2.308 . S
C601 C298 2.306 . S
C605 C19 2.179 . S
C619 C338 2.304 . S
C623 C59 2.176 . S
C637 C335 1.011 . S
C641 C5 1.001 . S
C655 C45 1.004 . S
C659 C255 1.004 . S
C673 C295 1.006 . S
C677 C85 0.998 . S
C691 C89 2.489 . S
C695 C125 2.454 . S
C709 C165 2.451 . S
C713 C9 2.492 . S
C727 C49 2.490 . S
C731 C205 2.456 . S
C745 C325 1.012 . S
C749 C135 1.003 . S
C763 C245 1.004 . S
C767 C175 1.001 . S
C781 C285 1.004 . S
C785 C215 1.007 . S
C799 C248 2.304 . S
C803 C209 2.177 . S
C817 C129 2.175 . S
C821 C288 2.308 . S
C835 C328 2.305 . S
C839 C169 2.166 . S
