# Generated by pormake.
# Topology cab, (5)-cn, num edge types: 1
# Building blocks:
#     Node 0, Type 0, BuildingBlock: BEQFEK_clean_sbu_0, # of connection points: 5
#     Node 1, Type 0, BuildingBlock: BEQFEK_clean_sbu_0, # of connection points: 5
#     Node 2, Type 0, BuildingBlock: BEQFEK_clean_sbu_0, # of connection points: 5
#     Node 3, Type 0, BuildingBlock: BEQFEK_clean_sbu_0, # of connection points: 5
#     Node 4, Type 0, BuildingBlock: BEQFEK_clean_sbu_0, # of connection points: 5
#     Node 5, Type 0, BuildingBlock: BEQFEK_clean_sbu_0, # of connection points: 5
#     Edge 6, Type (0, 0), BuildingBlock: XUDNAN_clean_linker_2, # of connection points: 2
#     Edge 7, Type (0, 0), BuildingBlock: XUDNAN_clean_linker_2, # of connection points: 2
#     Edge 8, Type (0, 0), BuildingBlock: XUDNAN_clean_linker_2, # of connection points: 2
#     Edge 9, Type (0, 0), BuildingBlock: XUDNAN_clean_linker_2, # of connection points: 2
#     Edge 10, Type (0, 0), BuildingBlock: XUDNAN_clean_linker_2, # of connection points: 2
#     Edge 11, Type (0, 0), BuildingBlock: XUDNAN_clean_linker_2, # of connection points: 2
#     Edge 12, Type (0, 0), BuildingBlock: XUDNAN_clean_linker_2, # of connection points: 2
#     Edge 13, Type (0, 0), BuildingBlock: XUDNAN_clean_linker_2, # of connection points: 2
#     Edge 14, Type (0, 0), BuildingBlock: XUDNAN_clean_linker_2, # of connection points: 2
#     Edge 15, Type (0, 0), BuildingBlock: XUDNAN_clean_linker_2, # of connection points: 2
#     Edge 16, Type (0, 0), BuildingBlock: XUDNAN_clean_linker_2, # of connection points: 2
#     Edge 17, Type (0, 0), BuildingBlock: XUDNAN_clean_linker_2, # of connection points: 2
#     Edge 18, Type (0, 0), BuildingBlock: XUDNAN_clean_linker_2, # of connection points: 2
#     Edge 19, Type (0, 0), BuildingBlock: XUDNAN_clean_linker_2, # of connection points: 2
#     Edge 20, Type (0, 0), BuildingBlock: XUDNAN_clean_linker_2, # of connection points: 2
# Relax obj value: 1.248
# Max RMSD: 0.228
# Mean RMSD: 0.211
data_MOF--net-cab--node1-BEQFEK_clean_sbu_0--edge1-XUDNAN_clean_linker_2
_symmetry_space_group_name_H-M    P1
_symmetry_Int_Tables_number       1
_symmetry_cell_setting            triclinic
loop_
_symmetry_equiv_pos_as_xyz
'x, y, z'
_cell_length_a     31.152993
_cell_length_b     30.39559
_cell_length_c     32.026803
_cell_angle_alpha  112.57139
_cell_angle_beta   96.875623
_cell_angle_gamma 130.06071
loop_
_atom_site_label
_atom_site_type_symbol
_atom_site_fract_x
_atom_site_fract_y
_atom_site_fract_z
_atom_type_partial_charge
Co0 Co 0.38112 0.53813 0.67513 0.0
Co1 Co 0.25034 0.48695 0.64637 0.0
C2 C 0.2503 0.39888 0.56865 0.0
O3 O 0.30893 0.44178 0.60389 0.0
O4 O 0.21969 0.41221 0.57663 0.0
C5 C 0.46091 0.55393 0.63629 0.0
O6 O 0.41712 0.53496 0.59834 0.0
C7 C 0.116 0.40272 0.61205 0.0
C8 C 0.11595 0.4807 0.63478 0.0
C9 C 0.07448 0.40708 0.60501 0.0
N10 N 0.17842 0.46953 0.64232 0.0
N11 N 0.17819 0.5164 0.65833 0.0
C12 C 0.09628 0.33501 0.58438 0.0
H13 H 0.13808 0.34625 0.60166 0.0
H14 H 0.07748 0.31032 0.54171 0.0
H15 H 0.05609 0.29542 0.58796 0.0
C16 C 0.42622 0.6627 0.68423 0.0
N17 N 0.382 0.6032 0.68128 0.0
N18 N 0.32561 0.57927 0.66443 0.0
C19 C 0.3311 0.62001 0.65235 0.0
C20 C 0.39539 0.67497 0.66513 0.0
C21 C 0.49525 0.70323 0.70059 0.0
H22 H 0.51365 0.70084 0.73058 0.0
H23 H 0.497 0.67853 0.66594 0.0
H24 H 0.52749 0.7604 0.71686 0.0
O25 O 0.36667 0.51927 0.7262 0.0
O26 O 0.26547 0.46351 0.6921 0.0
H27 H 0.26859 0.62874 0.64053 0.0
H28 H 0.2803 0.60433 0.58632 0.0
C29 C 0.27334 0.59594 0.61675 0.0
H30 H 0.22763 0.53787 0.59651 0.0
H31 H 0.22028 0.57233 0.68206 0.0
O32 O 0.45986 0.56627 0.67858 0.0
C33 C 0.3104 0.47743 0.7209 0.0
Co34 Co 0.10278 0.9924 0.72905 0.0
Co35 Co 0.98612 0.9672 0.71706 0.0
C36 C 0.12034 0.08873 0.81969 0.0
O37 O 0.14063 0.06439 0.80324 0.0
O38 O 0.06405 0.05649 0.78974 0.0
C39 C 0.20898 0.02276 0.76932 0.0
O40 O 0.18067 0.99424 0.7922 0.0
C41 C 0.9017 0.93014 0.75953 0.0
C42 C 0.81956 0.89847 0.70679 0.0
C43 C 0.84224 0.90334 0.7502 0.0
N44 N 0.91297 0.93909 0.72276 0.0
N45 N 0.86396 0.92057 0.69144 0.0
C46 C 0.94914 0.94982 0.8036 0.0
H47 H 0.99306 0.00951 0.83137 0.0
H48 H 0.9655 0.92738 0.78751 0.0
H49 H 0.92867 0.93133 0.82643 0.0
C50 C 0.00084 0.83925 0.69054 0.0
N51 N 0.02136 0.89917 0.70109 0.0
N52 N 0.97185 0.88808 0.69207 0.0
C53 C 0.91788 0.81977 0.67336 0.0
C54 C 0.93452 0.78717 0.67424 0.0
C55 C 0.04585 0.83542 0.70217 0.0
H56 H 0.08818 0.87201 0.69886 0.0
H57 H 0.06359 0.85152 0.74284 0.0
H58 H 0.02046 0.77999 0.67414 0.0
O59 O 0.09275 0.02584 0.69115 0.0
O60 O 0.00601 0.00193 0.67386 0.0
H61 H 0.84471 0.80657 0.63579 0.0
H62 H 0.81332 0.72579 0.62483 0.0
C63 C 0.8507 0.78522 0.65425 0.0
H64 H 0.84302 0.79708 0.6879 0.0
H65 H 0.86016 0.92166 0.65912 0.0
O66 O 0.1735 0.0058 0.72833 0.0
C67 C 0.05735 0.02872 0.67141 0.0
Co68 Co 0.59195 0.42235 0.20395 0.0
Co69 Co 0.62792 0.44608 0.31187 0.0
C70 C 0.49243 0.36057 0.23476 0.0
O71 O 0.50794 0.37025 0.20174 0.0
O72 O 0.53382 0.38684 0.27808 0.0
C73 C 0.5438 0.417 0.11717 0.0
O74 O 0.52155 0.43524 0.14239 0.0
C75 C 0.63221 0.48307 0.41219 0.0
C76 C 0.69868 0.48675 0.45178 0.0
C77 C 0.65864 0.49239 0.45682 0.0
N78 N 0.65587 0.47311 0.38198 0.0
N79 N 0.69631 0.47627 0.40621 0.0
C80 C 0.58079 0.47751 0.3966 0.0
H81 H 0.53173 0.42076 0.37543 0.0
H82 H 0.58342 0.49296 0.36997 0.0
H83 H 0.58662 0.51252 0.43213 0.0
C84 C 0.693 0.58184 0.27646 0.0
N85 N 0.66241 0.51882 0.26732 0.0
N86 N 0.67743 0.52917 0.31279 0.0
C87 C 0.71744 0.59919 0.35217 0.0
C88 C 0.72776 0.63485 0.33058 0.0
C89 C 0.67929 0.58804 0.23385 0.0
H90 H 0.673 0.55231 0.1986 0.0
H91 H 0.63375 0.57192 0.22294 0.0
H92 H 0.71978 0.64417 0.24716 0.0
O93 O 0.60512 0.36533 0.1957 0.0
O94 O 0.63242 0.38125 0.27132 0.0
H95 H 0.77957 0.68988 0.43484 0.0
H96 H 0.69714 0.61116 0.41462 0.0
C97 C 0.73889 0.62987 0.40908 0.0
H98 H 0.75531 0.61111 0.42102 0.0
H99 H 0.72014 0.46824 0.3906 0.0
O100 O 0.57829 0.41429 0.1386 0.0
C101 C 0.61961 0.35177 0.22382 0.0
Co102 Co 0.43884 0.79463 0.33791 0.0
Co103 Co 0.41863 0.72317 0.22449 0.0
C104 C 0.32673 0.63433 0.25279 0.0
O105 O 0.35868 0.68994 0.29912 0.0
O106 O 0.3456 0.63983 0.22039 0.0
C107 C 0.45905 0.79611 0.42324 0.0
O108 O 0.45275 0.74831 0.38848 0.0
C109 C 0.40561 0.62417 0.14196 0.0
C110 C 0.38694 0.63067 0.07717 0.0
C111 C 0.38957 0.59334 0.08985 0.0
N112 N 0.41325 0.67797 0.15977 0.0
N113 N 0.40306 0.68249 0.12108 0.0
C114 C 0.40341 0.59546 0.17163 0.0
H115 H 0.42502 0.6347 0.21414 0.0
H116 H 0.43056 0.58389 0.16768 0.0
H117 H 0.35163 0.54397 0.15453 0.0
C118 C 0.56951 0.85381 0.3677 0.0
N119 N 0.51005 0.81659 0.33181 0.0
N120 N 0.50146 0.78699 0.28434 0.0
C121 C 0.55532 0.80531 0.28889 0.0
C122 C 0.59961 0.84669 0.34176 0.0
C123 C 0.5975 0.8944 0.42616 0.0
H124 H 0.58019 0.91668 0.43899 0.0
H125 H 0.58228 0.85766 0.43665 0.0
H126 H 0.65195 0.93923 0.44755 0.0
O127 O 0.41088 0.82396 0.30678 0.0
O128 O 0.39753 0.77299 0.22686 0.0
H129 H 0.53782 0.77385 0.21082 0.0
H130 H 0.61492 0.81673 0.25519 0.0
C131 C 0.56256 0.77896 0.2432 0.0
H132 H 0.54083 0.72574 0.22863 0.0
H133 H 0.40298 0.71768 0.12358 0.0
O134 O 0.458 0.83135 0.41188 0.0
C135 C 0.39445 0.80899 0.26084 0.0
Co136 Co 0.7741 0.08676 0.14337 0.0
Co137 Co 0.65379 0.93718 0.11846 0.0
C138 C 0.77559 0.06897 0.22775 0.0
O139 O 0.80382 0.10623 0.21144 0.0
O140 O 0.71832 0.00339 0.19624 0.0
C141 C 0.89979 0.23248 0.19056 0.0
O142 O 0.90361 0.24583 0.23581 0.0
C143 C 0.61024 0.81416 0.10656 0.0
C144 C 0.50344 0.72461 0.0514 0.0
C145 C 0.55534 0.73986 0.07706 0.0
N146 N 0.59196 0.84148 0.09901 0.0
N147 N 0.52755 0.78793 0.06724 0.0
C148 C 0.68032 0.85625 0.13285 0.0
H149 H 0.71404 0.91122 0.14361 0.0
H150 H 0.68715 0.8278 0.10627 0.0
H151 H 0.69304 0.86048 0.16911 0.0
C152 C 0.76265 0.99607 0.05268 0.0
N153 N 0.74469 0.00418 0.08855 0.0
N154 N 0.69207 0.94039 0.07499 0.0
C155 C 0.674 0.88918 0.02871 0.0
C156 C 0.71811 0.92305 0.01313 0.0
C157 C 0.82097 0.05745 0.05583 0.0
H158 H 0.80992 0.08133 0.04559 0.0
H159 H 0.86379 0.0996 0.09671 0.0
H160 H 0.83394 0.03952 0.02844 0.0
O161 O 0.70272 0.07456 0.12966 0.0
O162 O 0.61475 0.96843 0.11082 0.0
H163 H 0.57182 0.79954 0.99946 0.0
H164 H 0.59813 0.781 0.955 0.0
C165 C 0.61225 0.80974 0.99707 0.0
H166 H 0.62026 0.78797 0.01353 0.0
H167 H 0.50094 0.79366 0.05275 0.0
O168 O 0.84801 0.17035 0.14765 0.0
C169 C 0.64333 0.02724 0.11777 0.0
Co170 Co 0.02801 0.85144 0.18355 0.0
Co171 Co 0.98594 0.76772 0.06401 0.0
C172 C 0.07613 0.92737 0.13487 0.0
O173 O 0.07371 0.92618 0.17372 0.0
O174 O 0.04417 0.86998 0.08931 0.0
C175 C 0.09913 0.96359 0.29077 0.0
O176 O 0.14803 0.98608 0.28308 0.0
C177 C 0.94226 0.71858 0.95408 0.0
C178 C 0.89552 0.60879 0.91057 0.0
C179 C 0.90803 0.65739 0.90358 0.0
N180 N 0.94753 0.70557 0.98894 0.0
N181 N 0.92037 0.64028 0.96274 0.0
C182 C 0.97672 0.7914 0.97027 0.0
H183 H 0.02895 0.83272 0.00077 0.0
H184 H 0.9544 0.80445 0.98775 0.0
H185 H 0.97584 0.79513 0.93721 0.0
C186 C 0.88688 0.76012 0.13251 0.0
N187 N 0.93766 0.7754 0.13063 0.0
N188 N 0.91896 0.7348 0.08118 0.0
C189 C 0.85409 0.68764 0.05044 0.0
C190 C 0.83116 0.70278 0.08155 0.0
C191 C 0.89605 0.80995 0.17981 0.0
H192 H 0.94637 0.86595 0.20264 0.0
H193 H 0.8615 0.81052 0.1683 0.0
H194 H 0.8886 0.79273 0.20559 0.0
O195 O 0.07252 0.82425 0.18287 0.0
O196 O 0.04393 0.76934 0.09849 0.0
H197 H 0.83035 0.60326 0.98526 0.0
H198 H 0.76176 0.58544 0.97761 0.0
C199 C 0.81504 0.62838 0.99251 0.0
H200 H 0.82445 0.65116 0.9704 0.0
H201 H 0.91832 0.61693 0.98046 0.0
O202 O 0.04145 0.90053 0.2542 0.0
C203 C 0.07594 0.79366 0.14515 0.0
H204 H 0.48652 0.74802 0.46349 0.0
H205 H 0.43913 0.85924 0.49302 0.0
H206 H 0.43046 0.8538 0.56733 0.0
H207 H 0.37325 0.62433 0.47947 0.0
H208 H 0.4233 0.62173 0.51005 0.0
H209 H 0.43629 0.64549 0.46594 0.0
H210 H 0.55851 0.76598 0.53909 0.0
H211 H 0.54587 0.74244 0.58356 0.0
H212 H 0.57905 0.8268 0.60269 0.0
H213 H 0.41177 0.81974 0.63021 0.0
H214 H 0.3882 0.76378 0.67619 0.0
H215 H 0.44575 0.67366 0.60165 0.0
C216 C 0.47579 0.77282 0.48627 0.0
C217 C 0.46354 0.80412 0.47259 0.0
C218 C 0.44927 0.83555 0.50321 0.0
C219 C 0.44419 0.8326 0.54539 0.0
C220 C 0.45438 0.79891 0.55662 0.0
C221 C 0.47061 0.77033 0.52811 0.0
C222 C 0.47346 0.73124 0.54422 0.0
C223 C 0.4236 0.65098 0.49713 0.0
C224 C 0.54339 0.76889 0.56886 0.0
C225 C 0.45422 0.74005 0.58516 0.0
C226 C 0.44412 0.77993 0.59249 0.0
C227 C 0.42102 0.78991 0.6256 0.0
C228 C 0.40765 0.75795 0.65144 0.0
C229 C 0.41725 0.71651 0.64378 0.0
C230 C 0.4411 0.70801 0.61043 0.0
H231 H 0.88075 0.21372 0.30521 0.0
H232 H 0.74206 0.0092 0.28103 0.0
H233 H 0.79446 0.07568 0.37836 0.0
H234 H 0.01905 0.30218 0.41436 0.0
H235 H 0.05174 0.38881 0.44619 0.0
H236 H 0.00046 0.3236 0.37541 0.0
H237 H 0.92306 0.33215 0.37866 0.0
H238 H 0.97342 0.39617 0.44976 0.0
H239 H 0.88716 0.31427 0.41835 0.0
H240 H 0.86935 0.16686 0.47938 0.0
H241 H 0.96224 0.27155 0.57213 0.0
H242 H 0.04507 0.41316 0.52659 0.0
C243 C 0.86112 0.18241 0.32001 0.0
C244 C 0.80754 0.10617 0.28543 0.0
C245 C 0.78328 0.06772 0.30683 0.0
C246 C 0.81242 0.10504 0.36199 0.0
C247 C 0.86484 0.18057 0.39485 0.0
C248 C 0.88875 0.2185 0.37435 0.0
C249 C 0.94706 0.29903 0.41723 0.0
C250 C 0.00816 0.33018 0.41305 0.0
C251 C 0.93171 0.33765 0.4159 0.0
C252 C 0.95378 0.30101 0.46553 0.0
C253 C 0.90575 0.23238 0.45215 0.0
C254 C 0.90635 0.22082 0.49028 0.0
C255 C 0.95896 0.28046 0.54282 0.0
C256 C 0.00987 0.35025 0.55635 0.0
C257 C 0.00553 0.36078 0.51761 0.0
H258 H 0.30334 0.35893 0.53276 0.0
H259 H 0.11775 0.27872 0.49698 0.0
H260 H 0.05872 0.15629 0.42635 0.0
H261 H 0.25578 0.24959 0.39791 0.0
H262 H 0.30178 0.23614 0.41475 0.0
H263 H 0.32868 0.31709 0.46231 0.0
H264 H 0.32671 0.28968 0.52982 0.0
H265 H 0.29882 0.20809 0.4821 0.0
H266 H 0.2522 0.20431 0.5121 0.0
H267 H 0.01999 0.04121 0.36343 0.0
H268 H 0.00414 0.94577 0.30195 0.0
H269 H 0.21541 0.10238 0.37646 0.0
C270 C 0.25034 0.3158 0.50992 0.0
C271 C 0.21521 0.32837 0.521 0.0
C272 C 0.1458 0.27052 0.48957 0.0
C273 C 0.1118 0.20061 0.44956 0.0
C274 C 0.148 0.18969 0.44113 0.0
C275 C 0.21576 0.24596 0.46968 0.0
C276 C 0.24309 0.22027 0.45176 0.0
C277 C 0.28475 0.25799 0.43038 0.0
C278 C 0.28252 0.23125 0.49662 0.0
C279 C 0.17998 0.14076 0.4082 0.0
C280 C 0.12573 0.12398 0.40345 0.0
C281 C 0.06208 0.05379 0.36643 0.0
C282 C 0.05362 -0.00018 0.33188 0.0
C283 C 0.10854 0.01667 0.33404 0.0
C284 C 0.17245 0.08777 0.3737 0.0
H285 H 0.70343 0.6073 0.54531 0.0
H286 H 0.56023 0.37517 0.4496 0.0
H287 H 0.50438 0.36941 0.49964 0.0
H288 H 0.69084 0.62517 0.674 0.0
H289 H 0.70969 0.70156 0.69063 0.0
H290 H 0.74589 0.68288 0.65935 0.0
H291 H 0.69848 0.68752 0.58828 0.0
H292 H 0.6574 0.69699 0.61851 0.0
H293 H 0.61071 0.62197 0.55002 0.0
H294 H 0.45329 0.38611 0.54753 0.0
H295 H 0.41004 0.42387 0.58852 0.0
H296 H 0.58374 0.64481 0.65085 0.0
C297 C 0.66246 0.55611 0.53719 0.0
C298 C 0.63664 0.49187 0.49486 0.0
C299 C 0.58127 0.42491 0.48298 0.0
C300 C 0.54945 0.42127 0.51121 0.0
C301 C 0.57451 0.48533 0.55168 0.0
C302 C 0.63074 0.55185 0.56562 0.0
C303 C 0.64291 0.61123 0.6064 0.0
C304 C 0.70089 0.6582 0.66082 0.0
C305 C 0.65286 0.65701 0.58972 0.0
C306 C 0.58002 0.56661 0.60689 0.0
C307 C 0.54327 0.49471 0.57777 0.0
C308 C 0.48235 0.44247 0.57127 0.0
C309 C 0.45803 0.46418 0.59438 0.0
C310 C 0.49387 0.53686 0.62249 0.0
C311 C 0.55614 0.58908 0.6299 0.0
H312 H 0.86515 0.70078 0.87255 0.0
H313 H 0.90807 0.58639 0.81926 0.0
H314 H 0.89238 0.58215 0.73962 0.0
H315 H 0.75273 0.62523 0.73981 0.0
H316 H 0.78924 0.71275 0.76537 0.0
H317 H 0.78415 0.68704 0.80828 0.0
H318 H 0.91012 0.80316 0.87296 0.0
H319 H 0.91431 0.8278 0.82967 0.0
H320 H 0.96433 0.8195 0.84846 0.0
H321 H 0.89074 0.60879 0.67425 0.0
H322 H 0.91372 0.67277 0.63531 0.0
H323 H 0.88691 0.78296 0.73979 0.0
C324 C 0.87086 0.67443 0.84393 0.0
C325 C 0.88959 0.64569 0.85261 0.0
C326 C 0.89413 0.60921 0.8134 0.0
C327 C 0.88502 0.6063 0.76798 0.0
C328 C 0.87081 0.63956 0.76231 0.0
C329 C 0.86385 0.67306 0.79946 0.0
C330 C 0.86012 0.71569 0.78976 0.0
C331 C 0.79249 0.68314 0.77487 0.0
C332 C 0.91553 0.79625 0.83803 0.0
C333 C 0.86962 0.70424 0.74305 0.0
C334 C 0.8732 0.65802 0.72639 0.0
C335 C 0.88742 0.64451 0.68669 0.0
C336 C 0.90119 0.68168 0.66523 0.0
C337 C 0.90278 0.73334 0.68488 0.0
C338 C 0.88424 0.74232 0.72272 0.0
H339 H 0.51693 0.30706 0.0442 0.0
H340 H 0.50113 0.4438 0.06176 0.0
H341 H 0.43571 0.36927 0.96445 0.0
H342 H 0.50134 0.24154 0.90877 0.0
H343 H 0.44918 0.1516 0.88969 0.0
H344 H 0.51387 0.2291 0.95769 0.0
H345 H 0.42924 0.17786 0.98728 0.0
H346 H 0.36482 0.10074 0.91988 0.0
H347 H 0.35891 0.15596 0.95881 0.0
H348 H 0.35562 0.26853 0.8686 0.0
H349 H 0.25596 0.14485 0.78775 0.0
H350 H 0.31218 0.06543 0.83459 0.0
C351 C 0.50254 0.32346 0.02742 0.0
C352 C 0.51583 0.3825 0.06017 0.0
C353 C 0.49303 0.40001 0.03712 0.0
C354 C 0.45605 0.35803 0.9819 0.0
C355 C 0.44125 0.29795 0.95054 0.0
C356 C 0.46334 0.28031 0.9727 0.0
C357 C 0.4283 0.20471 0.93266 0.0
C358 C 0.47603 0.20691 0.92154 0.0
C359 C 0.39323 0.15709 0.95074 0.0
C360 C 0.38003 0.18063 0.88528 0.0
C361 C 0.39053 0.23636 0.89551 0.0
C362 C 0.34799 0.22509 0.85965 0.0
C363 C 0.29157 0.15456 0.8136 0.0
C364 C 0.27727 0.09609 0.80489 0.0
C365 C 0.32329 0.10976 0.83996 0.0
H366 H 0.106 0.17347 0.8536 0.0
H367 H 0.2431 0.17298 0.89715 0.0
H368 H 0.32844 0.30343 0.97111 0.0
H369 H 0.2189 0.33981 0.87497 0.0
H370 H 0.1852 0.36718 0.89992 0.0
H371 H 0.1332 0.27259 0.85412 0.0
H372 H 0.10006 0.25146 0.92064 0.0
H373 H 0.1512 0.34583 0.96621 0.0
H374 H 0.16316 0.30549 0.9871 0.0
H375 H 0.40103 0.43675 0.03747 0.0
H376 H 0.45133 0.55873 0.09384 0.0
H377 H 0.26733 0.47077 0.00321 0.0
C378 C 0.15336 0.20009 0.87944 0.0
C379 C 0.16749 0.16258 0.8698 0.0
C380 C 0.2308 0.20028 0.904 0.0
C381 C 0.27978 0.27454 0.94591 0.0
C382 C 0.26478 0.31035 0.95288 0.0
C383 C 0.20286 0.2741 0.92082 0.0
C384 C 0.19978 0.32519 0.93479 0.0
C385 C 0.18328 0.32621 0.88817 0.0
C386 C 0.15065 0.30584 0.9533 0.0
C387 C 0.26963 0.39602 0.9798 0.0
C388 C 0.30652 0.38657 0.98982 0.0
C389 C 0.37244 0.44458 0.03006 0.0
C390 C 0.40062 0.51349 0.0617 0.0
C391 C 0.363 0.52354 0.05248 0.0
C392 C 0.29721 0.46438 0.01047 0.0
H393 H 0.71465 0.95152 0.94301 0.0
H394 H 0.71815 0.82583 0.97219 0.0
H395 H 0.73563 0.79231 0.89786 0.0
H396 H 0.638 0.83397 0.79491 0.0
H397 H 0.68802 0.9118 0.79538 0.0
H398 H 0.66267 0.91311 0.84318 0.0
H399 H 0.78436 0.0296 0.91911 0.0
H400 H 0.81022 0.02835 0.87185 0.0
H401 H 0.84238 0.02929 0.92329 0.0
H402 H 0.77101 0.79005 0.83078 0.0
H403 H 0.81736 0.81556 0.77499 0.0
H404 H 0.79159 0.94387 0.79033 0.0
C405 C 0.71708 0.91509 0.93253 0.0
C406 C 0.71504 0.89095 0.9629 0.0
C407 C 0.71899 0.84407 0.94881 0.0
C408 C 0.72901 0.825 0.90681 0.0
C409 C 0.73395 0.85258 0.87908 0.0
C410 C 0.72709 0.89579 0.89092 0.0
C411 C 0.7409 0.92457 0.8591 0.0
C412 C 0.67869 0.89406 0.82087 0.0
C413 C 0.79785 0.00786 0.89551 0.0
C414 C 0.75994 0.89399 0.82938 0.0
C415 C 0.75459 0.8516 0.84072 0.0
C416 C 0.7744 0.82224 0.82112 0.0
C417 C 0.80121 0.83754 0.78992 0.0
C418 C 0.80854 0.88224 0.77903 0.0
C419 C 0.78596 0.90906 0.79781 0.0
H420 H 0.6633 0.64904 0.37182 0.0
H421 H 0.81605 0.7567 0.33652 0.0
H422 H 0.81496 0.84262 0.35343 0.0
H423 H 0.57105 0.64614 0.30481 0.0
H424 H 0.54354 0.66084 0.34917 0.0
H425 H 0.56828 0.62123 0.34809 0.0
H426 H 0.65361 0.72186 0.44867 0.0
H427 H 0.62857 0.76166 0.45024 0.0
H428 H 0.71357 0.81544 0.47445 0.0
H429 H 0.77981 0.89813 0.3551 0.0
H430 H 0.71564 0.91881 0.34309 0.0
H431 H 0.58724 0.77508 0.37828 0.0
C432 C 0.69904 0.69323 0.37057 0.0
C433 C 0.7405 0.6973 0.35375 0.0
C434 C 0.78452 0.75355 0.35001 0.0
C435 C 0.78425 0.80255 0.35966 0.0
C436 C 0.74036 0.79498 0.3738 0.0
C437 C 0.6993 0.74228 0.38013 0.0
C438 C 0.6502 0.73814 0.38797 0.0
C439 C 0.57914 0.66214 0.34494 0.0
C440 C 0.66224 0.76065 0.44366 0.0
C441 C 0.66734 0.7937 0.38203 0.0
C442 C 0.72029 0.82714 0.37493 0.0
C443 C 0.7396 0.87388 0.36216 0.0
C444 C 0.7029 0.88518 0.35523 0.0
C445 C 0.64742 0.84933 0.36064 0.0
C446 C 0.63089 0.80499 0.37576 0.0
H447 H 0.38663 0.22799 0.14133 0.0
H448 H 0.44448 0.37887 0.29675 0.0
H449 H 0.33113 0.28606 0.27717 0.0
H450 H 0.20804 0.11897 0.06839 0.0
H451 H 0.18133 0.03576 0.03119 0.0
H452 H 0.2608 0.1187 0.05088 0.0
H453 H 0.31553 0.0997 0.0967 0.0
H454 H 0.23665 0.01718 0.07731 0.0
H455 H 0.30072 0.08778 0.14614 0.0
H456 H 0.22019 0.17419 0.24814 0.0
H457 H 0.12352 0.0499 0.21614 0.0
H458 H 0.13756 0.96721 0.0807 0.0
C459 C 0.37434 0.24217 0.1701 0.0
C460 C 0.42336 0.31069 0.22001 0.0
C461 C 0.40702 0.32682 0.25804 0.0
C462 C 0.34275 0.27461 0.24705 0.0
C463 C 0.29574 0.20644 0.19805 0.0
C464 C 0.31074 0.18994 0.16015 0.0
C465 C 0.25514 0.10953 0.11501 0.0
C466 C 0.22451 0.09489 0.0633 0.0
C467 C 0.27842 0.07667 0.10847 0.0
C468 C 0.20814 0.08285 0.13487 0.0
C469 C 0.23164 0.14003 0.18194 0.0
C470 C 0.20061 0.1291 0.21081 0.0
C471 C 0.14577 0.05816 0.19234 0.0
C472 C 0.12288 0.99884 0.14578 0.0
C473 C 0.15299 0.01134 0.11565 0.0
H474 H 0.02039 0.36962 0.27478 0.0
H475 H 0.9112 0.2149 0.10371 0.0
H476 H 0.01093 0.29756 0.10214 0.0
H477 H 0.11766 0.52811 0.27884 0.0
H478 H 0.19005 0.58239 0.33898 0.0
H479 H 0.11002 0.51005 0.32651 0.0
H480 H 0.14308 0.45457 0.33902 0.0
H481 H 0.22289 0.52621 0.35071 0.0
H482 H 0.17192 0.43323 0.2991 0.0
H483 H 0.12261 0.39502 0.11895 0.0
H484 H 0.23586 0.50785 0.15194 0.0
H485 H 0.27173 0.60106 0.31172 0.0
C486 C 0.01732 0.35323 0.23695 0.0
C487 C 0.95805 0.28534 0.18943 0.0
C488 C 0.95608 0.26625 0.14072 0.0
C489 C 0.01256 0.31275 0.13938 0.0
C490 C 0.07048 0.37844 0.18702 0.0
C491 C 0.07313 0.39929 0.23482 0.0
C492 C 0.1411 0.4741 0.28006 0.0
C493 C 0.13959 0.52677 0.3077 0.0
C494 C 0.17153 0.47185 0.31954 0.0
C495 C 0.17608 0.49196 0.2501 0.0
C496 C 0.13466 0.43567 0.19658 0.0
C497 C 0.15556 0.43965 0.16076 0.0
C498 C 0.22009 0.50388 0.17996 0.0
C499 C 0.26264 0.56345 0.23439 0.0
C500 C 0.2405 0.55654 0.26991 0.0
H501 H 0.76474 0.68982 0.13488 0.0
H502 H 0.75477 0.66132 0.98914 0.0
H503 H 0.655 0.62641 0.96212 0.0
H504 H 0.58648 0.5679 0.09317 0.0
H505 H 0.60756 0.6346 0.15343 0.0
H506 H 0.66178 0.62892 0.15364 0.0
H507 H 0.75768 0.76432 0.19286 0.0
H508 H 0.70392 0.7701 0.19344 0.0
H509 H 0.74695 0.79535 0.15931 0.0
H510 H 0.56705 0.61239 0.95507 0.0
H511 H 0.5208 0.65362 0.97788 0.0
H512 H 0.60318 0.72063 0.13646 0.0
C513 C 0.74106 0.67509 0.09685 0.0
C514 C 0.76696 0.67554 0.06335 0.0
C515 C 0.73444 0.6569 0.01432 0.0
C516 C 0.6775 0.63751 0.99867 0.0
C517 C 0.65463 0.63991 0.03331 0.0
C518 C 0.68675 0.66065 0.08227 0.0
C519 C 0.66374 0.67821 0.1177 0.0
C520 C 0.62777 0.62419 0.13026 0.0
C521 C 0.72149 0.75663 0.16879 0.0
C522 C 0.61646 0.66788 0.0819 0.0
C523 C 0.609 0.64141 0.03232 0.0
C524 C 0.57179 0.63225 0.99347 0.0
C525 C 0.54521 0.65533 0.00663 0.0
C526 C 0.55831 0.68981 0.05876 0.0
C527 C 0.59148 0.69289 0.09604 0.0
H528 H 0.03544 0.10387 0.67302 0.0
H529 H 0.1524 0.07574 0.64725 0.0
H530 H 0.23509 0.19508 0.66686 0.0
H531 H 0.07952 0.20519 0.614 0.0
H532 H 0.07798 0.26069 0.66028 0.0
H533 H 0.0243 0.169 0.63757 0.0
H534 H 0.07168 0.21725 0.73546 0.0
H535 H 0.12805 0.30934 0.7584 0.0
H536 H 0.15857 0.28176 0.77725 0.0
H537 H 0.31495 0.32507 0.70822 0.0
H538 H 0.37094 0.44343 0.73306 0.0
H539 H 0.1989 0.38527 0.72294 0.0
C540 C 0.0767 0.12114 0.66883 0.0
C541 C 0.0881 0.08109 0.65966 0.0
C542 C 0.14305 0.10592 0.65489 0.0
C543 C 0.19077 0.17405 0.66659 0.0
C544 C 0.18148 0.21536 0.68092 0.0
C545 C 0.12433 0.18862 0.67907 0.0
C546 C 0.127 0.24464 0.6954 0.0
C547 C 0.07408 0.21833 0.64906 0.0
C548 C 0.12092 0.26436 0.74454 0.0
C549 C 0.19534 0.30736 0.70827 0.0
C550 C 0.22627 0.28957 0.70091 0.0
C551 C 0.29071 0.3392 0.71267 0.0
C552 C 0.32256 0.40699 0.72779 0.0
C553 C 0.28901 0.42344 0.72922 0.0
C554 C 0.22582 0.37431 0.72211 0.0
H555 H 0.64834 0.10186 0.20249 0.0
H556 H 0.57593 0.00645 0.03615 0.0
H557 H 0.5546 0.07419 0.04454 0.0
H558 H 0.53671 0.11561 0.21385 0.0
H559 H 0.60164 0.20122 0.27875 0.0
H560 H 0.59789 0.13404 0.25688 0.0
H561 H 0.7169 0.22812 0.27702 0.0
H562 H 0.72052 0.29495 0.29741 0.0
H563 H 0.73648 0.27154 0.24565 0.0
H564 H 0.55942 0.16649 0.07408 0.0
H565 H 0.57743 0.26755 0.11982 0.0
H566 H 0.64785 0.30533 0.26861 0.0
C567 C 0.62457 0.09241 0.16739 0.0
C568 C 0.61126 0.04717 0.1182 0.0
C569 C 0.58394 0.0389 0.07353 0.0
C570 C 0.57234 0.07766 0.07817 0.0
C571 C 0.58864 0.12441 0.12781 0.0
C572 C 0.61299 0.13098 0.1715 0.0
C573 C 0.63254 0.19016 0.22128 0.0
C574 C 0.58962 0.15835 0.24402 0.0
C575 C 0.70596 0.24968 0.26275 0.0
C576 C 0.61764 0.21765 0.1991 0.0
C577 C 0.59206 0.17864 0.14509 0.0
C578 C 0.57817 0.19648 0.11615 0.0
C579 C 0.58923 0.25462 0.14277 0.0
C580 C 0.61402 0.29463 0.198 0.0
C581 C 0.62862 0.2758 0.22643 0.0
H582 H 0.14546 0.82325 0.23484 0.0
H583 H 0.11767 0.7678 0.07983 0.0
H584 H 0.20467 0.77987 0.09806 0.0
H585 H 0.32223 0.95302 0.30546 0.0
H586 H 0.32258 0.92436 0.3453 0.0
H587 H 0.25961 0.91501 0.32217 0.0
H588 H 0.16962 0.77798 0.27826 0.0
H589 H 0.23229 0.78728 0.30208 0.0
H590 H 0.17169 0.72267 0.23248 0.0
H591 H 0.29417 0.79823 0.13147 0.0
H592 H 0.37013 0.80309 0.1731 0.0
H593 H 0.33954 0.84166 0.30561 0.0
C594 C 0.15761 0.81347 0.20475 0.0
C595 C 0.1245 0.79475 0.15593 0.0
C596 C 0.14175 0.78192 0.11749 0.0
C597 C 0.19172 0.78931 0.12759 0.0
C598 C 0.22402 0.80893 0.17617 0.0
C599 C 0.20709 0.81951 0.21384 0.0
C600 C 0.24729 0.83549 0.26132 0.0
C601 C 0.29049 0.9115 0.31154 0.0
C602 C 0.20255 0.77738 0.26896 0.0
C603 C 0.28871 0.83144 0.24394 0.0
C604 C 0.27511 0.81741 0.19509 0.0
C605 C 0.30533 0.80919 0.16976 0.0
C606 C 0.34866 0.8123 0.19388 0.0
C607 C 0.36102 0.82279 0.24269 0.0
C608 C 0.33199 0.83463 0.26872 0.0
loop_
_geom_bond_atom_site_label_1
_geom_bond_atom_site_label_2
_geom_bond_distance
_geom_bond_site_symmetry_2
_ccdc_geom_bond_type
Co0 O3 1.970 . S
Co0 N17 1.989 . S
Co0 O25 1.967 . S
Co0 O32 1.920 . S
Co1 O4 1.966 . S
Co1 N10 2.022 . S
Co1 N18 1.993 . S
Co1 O26 1.941 . S
C2 O3 1.258 . S
C2 O4 1.263 . S
O3 Co0 1.970 . S
O3 C2 1.258 . S
O4 Co1 1.966 . S
O4 C2 1.263 . S
C5 O6 1.235 . S
C5 O32 1.289 . S
O6 C5 1.235 . S
C7 C9 1.400 . S
C7 N10 1.351 . S
C7 C12 1.501 . S
C8 C9 1.387 . S
C8 N11 1.341 . S
C9 C7 1.400 . S
C9 C8 1.387 . S
N10 Co1 2.022 . S
N10 C7 1.351 . S
N10 N11 1.365 . S
N11 C8 1.341 . S
N11 N10 1.365 . S
N11 H31 0.862 . S
C12 C7 1.501 . S
C12 H13 0.961 . S
C12 H14 0.961 . S
C12 H15 0.960 . S
H13 C12 0.961 . S
H14 C12 0.961 . S
H15 C12 0.960 . S
C16 N17 1.342 . S
C16 C20 1.401 . S
C16 C21 1.499 . S
N17 Co0 1.989 . S
N17 C16 1.342 . S
N17 N18 1.388 . S
N18 Co1 1.993 . S
N18 N17 1.388 . S
N18 C19 1.346 . S
C19 N18 1.346 . S
C19 C20 1.396 . S
C19 C29 1.510 . S
C20 C16 1.401 . S
C20 C19 1.396 . S
C21 C16 1.499 . S
C21 H22 0.959 . S
C21 H23 0.960 . S
C21 H24 0.961 . S
H22 C21 0.959 . S
H23 C21 0.960 . S
H24 C21 0.961 . S
O25 Co0 1.967 . S
O25 C33 1.258 . S
O26 Co1 1.941 . S
O26 C33 1.266 . S
H27 C29 0.959 . S
H28 C29 0.961 . S
C29 C19 1.510 . S
C29 H27 0.959 . S
C29 H28 0.961 . S
C29 H30 0.960 . S
H30 C29 0.960 . S
H31 N11 0.862 . S
O32 Co0 1.920 . S
O32 C5 1.289 . S
C33 O25 1.258 . S
C33 O26 1.266 . S
Co34 O37 1.970 . S
Co34 N51 1.989 1_545 S
Co34 O59 1.967 . S
Co34 O66 1.920 . S
Co35 O38 1.966 1_565 S
Co35 N44 2.022 1_455 S
Co35 N52 1.993 . S
Co35 O60 1.941 . S
C36 O37 1.258 . S
C36 O38 1.263 . S
O37 Co34 1.970 . S
O37 C36 1.258 . S
O38 Co35 1.966 1_545 S
O38 C36 1.263 . S
C39 O40 1.235 . S
C39 O66 1.289 . S
O40 C39 1.235 . S
C41 C43 1.400 . S
C41 N44 1.351 . S
C41 C46 1.501 1_565 S
C42 C43 1.387 . S
C42 N45 1.341 . S
C43 C41 1.400 . S
C43 C42 1.387 . S
N44 Co35 2.022 1_655 S
N44 C41 1.351 . S
N44 N45 1.365 . S
N45 C42 1.341 . S
N45 N44 1.365 . S
N45 H65 0.862 . S
C46 C41 1.501 1_545 S
C46 H47 0.961 . S
C46 H48 0.961 . S
C46 H49 0.960 . S
H47 C46 0.961 . S
H48 C46 0.961 . S
H49 C46 0.960 . S
C50 N51 1.342 . S
C50 C54 1.401 . S
C50 C55 1.499 . S
N51 Co34 1.989 1_565 S
N51 C50 1.342 . S
N51 N52 1.388 . S
N52 Co35 1.993 . S
N52 N51 1.388 . S
N52 C53 1.346 1_455 S
C53 N52 1.346 1_655 S
C53 C54 1.396 1_655 S
C53 C63 1.510 . S
C54 C50 1.401 . S
C54 C53 1.396 1_455 S
C55 C50 1.499 . S
C55 H56 0.959 . S
C55 H57 0.960 . S
C55 H58 0.961 . S
H56 C55 0.959 . S
H57 C55 0.960 . S
H58 C55 0.961 . S
O59 Co34 1.967 . S
O59 C67 1.258 . S
O60 Co35 1.941 . S
O60 C67 1.266 1_565 S
H61 C63 0.959 . S
H62 C63 0.961 . S
C63 C53 1.510 . S
C63 H61 0.959 . S
C63 H62 0.961 . S
C63 H64 0.960 . S
H64 C63 0.960 . S
H65 N45 0.862 . S
O66 Co34 1.920 . S
O66 C39 1.289 . S
C67 O59 1.258 . S
C67 O60 1.266 1_545 S
Co68 O71 1.970 . S
Co68 N85 1.989 . S
Co68 O93 1.967 . S
Co68 O100 1.920 . S
Co69 O72 1.966 . S
Co69 N78 2.022 . S
Co69 N86 1.993 . S
Co69 O94 1.941 . S
C70 O71 1.258 . S
C70 O72 1.263 . S
O71 Co68 1.970 . S
O71 C70 1.258 . S
O72 Co69 1.966 . S
O72 C70 1.263 . S
C73 O74 1.235 . S
C73 O100 1.289 . S
O74 C73 1.235 . S
C75 C77 1.400 . S
C75 N78 1.351 . S
C75 C80 1.501 . S
C76 C77 1.387 . S
C76 N79 1.341 . S
C77 C75 1.400 . S
C77 C76 1.387 . S
N78 Co69 2.022 . S
N78 C75 1.351 . S
N78 N79 1.365 . S
N79 C76 1.341 . S
N79 N78 1.365 . S
N79 H99 0.862 . S
C80 C75 1.501 . S
C80 H81 0.961 . S
C80 H82 0.961 . S
C80 H83 0.960 . S
H81 C80 0.961 . S
H82 C80 0.961 . S
H83 C80 0.960 . S
C84 N85 1.342 . S
C84 C88 1.401 . S
C84 C89 1.499 . S
N85 Co68 1.989 . S
N85 C84 1.342 . S
N85 N86 1.388 . S
N86 Co69 1.993 . S
N86 N85 1.388 . S
N86 C87 1.346 . S
C87 N86 1.346 . S
C87 C88 1.396 . S
C87 C97 1.510 . S
C88 C84 1.401 . S
C88 C87 1.396 . S
C89 C84 1.499 . S
C89 H90 0.959 . S
C89 H91 0.960 . S
C89 H92 0.961 . S
H90 C89 0.959 . S
H91 C89 0.960 . S
H92 C89 0.961 . S
O93 Co68 1.967 . S
O93 C101 1.258 . S
O94 Co69 1.941 . S
O94 C101 1.266 . S
H95 C97 0.959 . S
H96 C97 0.961 . S
C97 C87 1.510 . S
C97 H95 0.959 . S
C97 H96 0.961 . S
C97 H98 0.960 . S
H98 C97 0.960 . S
H99 N79 0.862 . S
O100 Co68 1.920 . S
O100 C73 1.289 . S
C101 O93 1.258 . S
C101 O94 1.266 . S
Co102 O105 1.970 . S
Co102 N119 1.989 . S
Co102 O127 1.967 . S
Co102 O134 1.920 . S
Co103 O106 1.966 . S
Co103 N112 2.022 . S
Co103 N120 1.993 . S
Co103 O128 1.941 . S
C104 O105 1.258 . S
C104 O106 1.263 . S
O105 Co102 1.970 . S
O105 C104 1.258 . S
O106 Co103 1.966 . S
O106 C104 1.263 . S
C107 O108 1.235 . S
C107 O134 1.289 . S
O108 C107 1.235 . S
C109 C111 1.400 . S
C109 N112 1.351 . S
C109 C114 1.501 . S
C110 C111 1.387 . S
C110 N113 1.341 . S
C111 C109 1.400 . S
C111 C110 1.387 . S
N112 Co103 2.022 . S
N112 C109 1.351 . S
N112 N113 1.365 . S
N113 C110 1.341 . S
N113 N112 1.365 . S
N113 H133 0.862 . S
C114 C109 1.501 . S
C114 H115 0.961 . S
C114 H116 0.961 . S
C114 H117 0.960 . S
H115 C114 0.961 . S
H116 C114 0.961 . S
H117 C114 0.960 . S
C118 N119 1.342 . S
C118 C122 1.401 . S
C118 C123 1.499 . S
N119 Co102 1.989 . S
N119 C118 1.342 . S
N119 N120 1.388 . S
N120 Co103 1.993 . S
N120 N119 1.388 . S
N120 C121 1.346 . S
C121 N120 1.346 . S
C121 C122 1.396 . S
C121 C131 1.510 . S
C122 C118 1.401 . S
C122 C121 1.396 . S
C123 C118 1.499 . S
C123 H124 0.959 . S
C123 H125 0.960 . S
C123 H126 0.961 . S
H124 C123 0.959 . S
H125 C123 0.960 . S
H126 C123 0.961 . S
O127 Co102 1.967 . S
O127 C135 1.258 . S
O128 Co103 1.941 . S
O128 C135 1.266 . S
H129 C131 0.959 . S
H130 C131 0.961 . S
C131 C121 1.510 . S
C131 H129 0.959 . S
C131 H130 0.961 . S
C131 H132 0.960 . S
H132 C131 0.960 . S
H133 N113 0.862 . S
O134 Co102 1.920 . S
O134 C107 1.289 . S
C135 O127 1.258 . S
C135 O128 1.266 . S
Co136 O139 1.970 . S
Co136 N153 1.989 . S
Co136 O161 1.967 . S
Co136 O168 1.920 . S
Co137 O140 1.966 1_565 S
Co137 N146 2.022 . S
Co137 N154 1.993 . S
Co137 O162 1.941 . S
C138 O139 1.258 . S
C138 O140 1.263 . S
O139 Co136 1.970 . S
O139 C138 1.258 . S
O140 Co137 1.966 1_545 S
O140 C138 1.263 . S
C141 O142 1.235 . S
C141 O168 1.289 . S
O142 C141 1.235 . S
C143 C145 1.400 . S
C143 N146 1.351 . S
C143 C148 1.501 . S
C144 C145 1.387 1_556 S
C144 N147 1.341 . S
C145 C143 1.400 . S
C145 C144 1.387 1_554 S
N146 Co137 2.022 . S
N146 C143 1.351 . S
N146 N147 1.365 1_554 S
N147 C144 1.341 . S
N147 N146 1.365 1_556 S
N147 H167 0.862 . S
C148 C143 1.501 . S
C148 H149 0.961 . S
C148 H150 0.961 . S
C148 H151 0.960 . S
H149 C148 0.961 . S
H150 C148 0.961 . S
H151 C148 0.960 . S
C152 N153 1.342 1_556 S
C152 C156 1.401 1_545 S
C152 C157 1.499 . S
N153 Co136 1.989 . S
N153 C152 1.342 1_554 S
N153 N154 1.388 1_545 S
N154 Co137 1.993 . S
N154 N153 1.388 1_565 S
N154 C155 1.346 1_554 S
C155 N154 1.346 1_556 S
C155 C156 1.396 . S
C155 C165 1.510 . S
C156 C152 1.401 1_565 S
C156 C155 1.396 . S
C157 C152 1.499 . S
C157 H158 0.950 1_556 S
C157 H159 0.960 . S
C157 H160 0.961 . S
H158 C157 0.950 1_554 S
H159 C157 0.960 . S
H160 C157 0.961 . S
O161 Co136 1.967 . S
O161 C169 1.258 . S
O162 Co137 1.941 . S
O162 C169 1.266 1_565 S
H163 C165 0.959 . S
H164 C165 0.961 . S
C165 C155 1.510 . S
C165 H163 0.959 . S
C165 H164 0.961 . S
C165 H166 0.960 . S
H166 C165 0.960 . S
H167 N147 0.862 . S
O168 Co136 1.920 . S
O168 C141 1.289 . S
C169 O161 1.258 . S
C169 O162 1.266 1_545 S
Co170 O173 1.970 . S
Co170 N187 1.989 1_455 S
Co170 O195 1.967 . S
Co170 O202 1.920 . S
Co171 O174 1.966 1_655 S
Co171 N180 2.022 . S
Co171 N188 1.993 . S
Co171 O196 1.941 . S
C172 O173 1.258 . S
C172 O174 1.263 . S
O173 Co170 1.970 . S
O173 C172 1.258 . S
O174 Co171 1.966 1_455 S
O174 C172 1.263 . S
C175 O176 1.235 . S
C175 O202 1.289 . S
O176 C175 1.235 . S
C177 C179 1.400 . S
C177 N180 1.351 1_556 S
C177 C182 1.501 1_656 S
C178 C179 1.387 . S
C178 N181 1.341 . S
C179 C177 1.400 . S
C179 C178 1.387 . S
N180 Co171 2.022 . S
N180 C177 1.351 1_554 S
N180 N181 1.365 1_554 S
N181 C178 1.341 . S
N181 N180 1.365 1_556 S
N181 H201 0.862 . S
C182 C177 1.501 1_454 S
C182 H183 0.961 . S
C182 H184 0.961 . S
C182 H185 0.960 . S
H183 C182 0.961 . S
H184 C182 0.961 . S
H185 C182 0.960 . S
C186 N187 1.342 . S
C186 C190 1.401 . S
C186 C191 1.499 . S
N187 Co170 1.989 1_655 S
N187 C186 1.342 . S
N187 N188 1.388 . S
N188 Co171 1.993 . S
N188 N187 1.388 . S
N188 C189 1.346 . S
C189 N188 1.346 . S
C189 C190 1.396 . S
C189 C199 1.510 . S
C190 C186 1.401 . S
C190 C189 1.396 . S
C191 C186 1.499 . S
C191 H192 0.959 . S
C191 H193 0.960 . S
C191 H194 0.961 . S
H192 C191 0.959 . S
H193 C191 0.960 . S
H194 C191 0.961 . S
O195 Co170 1.967 . S
O195 C203 1.258 . S
O196 Co171 1.941 . S
O196 C203 1.266 1_655 S
H197 C199 0.959 . S
H198 C199 0.961 . S
C199 C189 1.510 . S
C199 H197 0.959 . S
C199 H198 0.961 . S
C199 H200 0.960 . S
H200 C199 0.960 . S
H201 N181 0.862 . S
O202 Co170 1.920 . S
O202 C175 1.289 . S
C203 O195 1.258 . S
C203 O196 1.266 1_455 S
H204 C216 0.930 . S
H205 C218 0.930 . S
H206 C219 0.930 . S
H207 C223 0.959 . S
H208 C223 0.959 . S
H209 C223 0.961 . S
H210 C224 0.960 . S
H211 C224 0.961 . S
H212 C224 0.959 . S
H213 C227 0.929 . S
H214 C228 0.931 . S
H215 C230 0.930 . S
C216 H204 0.930 . S
C216 C217 1.399 . S
C216 C221 1.399 . S
C217 C216 1.399 . S
C217 C218 1.376 . S
C218 H205 0.930 . S
C218 C217 1.376 . S
C218 C219 1.388 . S
C219 H206 0.930 . S
C219 C218 1.388 . S
C219 C220 1.390 . S
C220 C219 1.390 . S
C220 C221 1.394 . S
C220 C226 1.465 . S
C221 C216 1.399 . S
C221 C220 1.394 . S
C221 C222 1.516 . S
C222 C221 1.516 . S
C222 C223 1.502 . S
C222 C224 1.561 . S
C222 C225 1.526 . S
C223 H207 0.959 . S
C223 H208 0.959 . S
C223 H209 0.961 . S
C223 C222 1.502 . S
C224 H210 0.960 . S
C224 H211 0.961 . S
C224 H212 0.959 . S
C224 C222 1.561 . S
C225 C222 1.526 . S
C225 C226 1.396 . S
C225 C230 1.390 . S
C226 C220 1.465 . S
C226 C225 1.396 . S
C226 C227 1.399 . S
C227 H213 0.929 . S
C227 C226 1.399 . S
C227 C228 1.385 . S
C228 H214 0.931 . S
C228 C227 1.385 . S
C228 C229 1.389 . S
C229 C228 1.389 . S
C229 C230 1.387 . S
C230 H215 0.930 . S
C230 C225 1.390 . S
C230 C229 1.387 . S
H231 C243 0.930 . S
H232 C245 0.930 . S
H233 C246 0.930 . S
H234 C250 0.959 . S
H235 C250 0.959 1_455 S
H236 C250 0.961 . S
H237 C251 0.960 . S
H238 C251 0.961 . S
H239 C251 0.959 . S
H240 C254 0.929 . S
H241 C255 0.931 . S
H242 C257 0.930 1_455 S
C243 H231 0.930 . S
C243 C244 1.399 . S
C243 C248 1.399 . S
C244 C243 1.399 . S
C244 C245 1.376 . S
C245 H232 0.930 . S
C245 C244 1.376 . S
C245 C246 1.388 . S
C246 H233 0.930 . S
C246 C245 1.388 . S
C246 C247 1.390 . S
C247 C246 1.390 . S
C247 C248 1.394 . S
C247 C253 1.465 . S
C248 C243 1.399 . S
C248 C247 1.394 . S
C248 C249 1.516 . S
C249 C248 1.516 . S
C249 C250 1.502 . S
C249 C251 1.561 . S
C249 C252 1.526 . S
C250 H234 0.959 . S
C250 H235 0.959 1_655 S
C250 H236 0.961 . S
C250 C249 1.502 . S
C251 H237 0.960 . S
C251 H238 0.961 . S
C251 H239 0.959 . S
C251 C249 1.561 . S
C252 C249 1.526 . S
C252 C253 1.396 . S
C252 C257 1.390 . S
C253 C247 1.465 . S
C253 C252 1.396 . S
C253 C254 1.399 . S
C254 H240 0.929 . S
C254 C253 1.399 . S
C254 C255 1.385 . S
C255 H241 0.931 . S
C255 C254 1.385 . S
C255 C256 1.389 . S
C256 C255 1.389 . S
C256 C257 1.387 . S
C257 H242 0.930 1_655 S
C257 C252 1.390 . S
C257 C256 1.387 . S
H258 C270 0.930 . S
H259 C272 0.930 . S
H260 C273 0.930 . S
H261 C277 0.959 . S
H262 C277 0.959 . S
H263 C277 0.961 . S
H264 C278 0.960 . S
H265 C278 0.961 . S
H266 C278 0.959 . S
H267 C281 0.929 . S
H268 C282 0.931 . S
H269 C284 0.930 . S
C270 H258 0.930 . S
C270 C271 1.399 . S
C270 C275 1.399 . S
C271 C270 1.399 . S
C271 C272 1.376 . S
C272 H259 0.930 . S
C272 C271 1.376 . S
C272 C273 1.388 . S
C273 H260 0.930 . S
C273 C272 1.388 . S
C273 C274 1.390 . S
C274 C273 1.390 . S
C274 C275 1.394 . S
C274 C280 1.465 . S
C275 C270 1.399 . S
C275 C274 1.394 . S
C275 C276 1.516 . S
C276 C275 1.516 . S
C276 C277 1.502 . S
C276 C278 1.561 . S
C276 C279 1.526 . S
C277 H261 0.959 . S
C277 H262 0.959 . S
C277 H263 0.961 . S
C277 C276 1.502 . S
C278 H264 0.960 . S
C278 H265 0.961 . S
C278 H266 0.959 . S
C278 C276 1.561 . S
C279 C276 1.526 . S
C279 C280 1.396 . S
C279 C284 1.390 1_545 S
C280 C274 1.465 . S
C280 C279 1.396 . S
C280 C281 1.399 . S
C281 H267 0.929 . S
C281 C280 1.399 . S
C281 C282 1.385 1_545 S
C282 H268 0.931 . S
C282 C281 1.385 1_565 S
C282 C283 1.389 . S
C283 C282 1.389 . S
C283 C284 1.387 . S
C284 H269 0.930 . S
C284 C279 1.390 1_565 S
C284 C283 1.387 . S
H285 C297 0.930 . S
H286 C299 0.930 . S
H287 C300 0.930 . S
H288 C304 0.959 . S
H289 C304 0.959 . S
H290 C304 0.961 . S
H291 C305 0.960 . S
H292 C305 0.961 . S
H293 C305 0.959 . S
H294 C308 0.929 . S
H295 C309 0.931 . S
H296 C311 0.930 . S
C297 H285 0.930 . S
C297 C298 1.399 . S
C297 C302 1.399 . S
C298 C297 1.399 . S
C298 C299 1.376 . S
C299 H286 0.930 . S
C299 C298 1.376 . S
C299 C300 1.388 . S
C300 H287 0.930 . S
C300 C299 1.388 . S
C300 C301 1.390 . S
C301 C300 1.390 . S
C301 C302 1.394 . S
C301 C307 1.465 . S
C302 C297 1.399 . S
C302 C301 1.394 . S
C302 C303 1.516 . S
C303 C302 1.516 . S
C303 C304 1.502 . S
C303 C305 1.561 . S
C303 C306 1.526 . S
C304 H288 0.959 . S
C304 H289 0.959 . S
C304 H290 0.961 . S
C304 C303 1.502 . S
C305 H291 0.960 . S
C305 H292 0.961 . S
C305 H293 0.959 . S
C305 C303 1.561 . S
C306 C303 1.526 . S
C306 C307 1.396 . S
C306 C311 1.390 . S
C307 C301 1.465 . S
C307 C306 1.396 . S
C307 C308 1.399 . S
C308 H294 0.929 . S
C308 C307 1.399 . S
C308 C309 1.385 . S
C309 H295 0.931 . S
C309 C308 1.385 . S
C309 C310 1.389 . S
C310 C309 1.389 . S
C310 C311 1.387 . S
C311 H296 0.930 . S
C311 C306 1.390 . S
C311 C310 1.387 . S
H312 C324 0.930 . S
H313 C326 0.930 . S
H314 C327 0.930 . S
H315 C331 0.959 . S
H316 C331 0.959 . S
H317 C331 0.961 . S
H318 C332 0.960 . S
H319 C332 0.961 . S
H320 C332 0.959 . S
H321 C335 0.929 . S
H322 C336 0.931 . S
H323 C338 0.930 1_455 S
C324 H312 0.930 . S
C324 C325 1.399 . S
C324 C329 1.399 . S
C325 C324 1.399 . S
C325 C326 1.376 . S
C326 H313 0.930 . S
C326 C325 1.376 . S
C326 C327 1.388 . S
C327 H314 0.930 . S
C327 C326 1.388 . S
C327 C328 1.390 . S
C328 C327 1.390 . S
C328 C329 1.394 . S
C328 C334 1.465 . S
C329 C324 1.399 . S
C329 C328 1.394 . S
C329 C330 1.516 . S
C330 C329 1.516 . S
C330 C331 1.502 . S
C330 C332 1.561 1_655 S
C330 C333 1.526 . S
C331 H315 0.959 . S
C331 H316 0.959 . S
C331 H317 0.961 . S
C331 C330 1.502 . S
C332 H318 0.960 . S
C332 H319 0.961 . S
C332 H320 0.959 . S
C332 C330 1.561 1_455 S
C333 C330 1.526 . S
C333 C334 1.396 . S
C333 C338 1.390 . S
C334 C328 1.465 . S
C334 C333 1.396 . S
C334 C335 1.399 . S
C335 H321 0.929 . S
C335 C334 1.399 . S
C335 C336 1.385 . S
C336 H322 0.931 . S
C336 C335 1.385 . S
C336 C337 1.391 1_655 S
C337 C336 1.391 1_455 S
C337 C338 1.385 1_455 S
C338 H323 0.930 1_655 S
C338 C333 1.390 . S
C338 C337 1.385 1_655 S
H339 C351 0.930 . S
H340 C353 0.930 . S
H341 C354 0.930 . S
H342 C358 0.959 . S
H343 C358 0.959 . S
H344 C358 0.961 . S
H345 C359 0.960 . S
H346 C359 0.961 . S
H347 C359 0.959 . S
H348 C362 0.929 . S
H349 C363 0.931 . S
H350 C365 0.930 . S
C351 H339 0.930 . S
C351 C352 1.399 . S
C351 C356 1.399 . S
C352 C351 1.399 . S
C352 C353 1.376 . S
C353 H340 0.930 . S
C353 C352 1.376 . S
C353 C354 1.388 . S
C354 H341 0.930 . S
C354 C353 1.388 . S
C354 C355 1.390 . S
C355 C354 1.390 . S
C355 C356 1.394 . S
C355 C361 1.465 1_554 S
C356 C351 1.399 . S
C356 C355 1.394 . S
C356 C357 1.516 1_554 S
C357 C356 1.516 1_556 S
C357 C358 1.502 . S
C357 C359 1.561 . S
C357 C360 1.526 . S
C358 H342 0.959 . S
C358 H343 0.959 . S
C358 H344 0.961 . S
C358 C357 1.502 . S
C359 H345 0.960 . S
C359 H346 0.961 . S
C359 H347 0.959 . S
C359 C357 1.561 . S
C360 C357 1.526 . S
C360 C361 1.396 . S
C360 C365 1.390 . S
C361 C355 1.465 1_556 S
C361 C360 1.396 . S
C361 C362 1.399 . S
C362 H348 0.929 . S
C362 C361 1.399 . S
C362 C363 1.385 . S
C363 H349 0.931 . S
C363 C362 1.385 . S
C363 C364 1.389 . S
C364 C363 1.389 . S
C364 C365 1.387 . S
C365 H350 0.930 . S
C365 C360 1.390 . S
C365 C364 1.387 . S
H366 C378 0.930 . S
H367 C380 0.930 . S
H368 C381 0.930 . S
H369 C385 0.959 . S
H370 C385 0.959 . S
H371 C385 0.961 . S
H372 C386 0.960 . S
H373 C386 0.961 . S
H374 C386 0.959 . S
H375 C389 0.929 . S
H376 C390 0.931 . S
H377 C392 0.930 . S
C378 H366 0.930 . S
C378 C379 1.399 . S
C378 C383 1.399 . S
C379 C378 1.399 . S
C379 C380 1.376 . S
C380 H367 0.930 . S
C380 C379 1.376 . S
C380 C381 1.388 . S
C381 H368 0.930 . S
C381 C380 1.388 . S
C381 C382 1.390 . S
C382 C381 1.390 . S
C382 C383 1.394 . S
C382 C388 1.465 . S
C383 C378 1.399 . S
C383 C382 1.394 . S
C383 C384 1.516 . S
C384 C383 1.516 . S
C384 C385 1.502 . S
C384 C386 1.561 . S
C384 C387 1.526 . S
C385 H369 0.959 . S
C385 H370 0.959 . S
C385 H371 0.961 . S
C385 C384 1.502 . S
C386 H372 0.960 . S
C386 H373 0.961 . S
C386 H374 0.959 . S
C386 C384 1.561 . S
C387 C384 1.526 . S
C387 C388 1.396 . S
C387 C392 1.390 . S
C388 C382 1.465 . S
C388 C387 1.396 . S
C388 C389 1.399 1_556 S
C389 H375 0.929 . S
C389 C388 1.399 1_554 S
C389 C390 1.385 . S
C390 H376 0.931 . S
C390 C389 1.385 . S
C390 C391 1.389 . S
C391 C390 1.389 . S
C391 C392 1.387 1_554 S
C392 H377 0.930 . S
C392 C387 1.390 . S
C392 C391 1.387 1_556 S
H393 C405 0.930 . S
H394 C407 0.930 . S
H395 C408 0.930 . S
H396 C412 0.959 . S
H397 C412 0.959 . S
H398 C412 0.961 . S
H399 C413 0.960 . S
H400 C413 0.961 . S
H401 C413 0.959 . S
H402 C416 0.929 . S
H403 C417 0.931 . S
H404 C419 0.930 . S
C405 H393 0.930 . S
C405 C406 1.399 . S
C405 C410 1.399 . S
C406 C405 1.399 . S
C406 C407 1.376 . S
C407 H394 0.930 . S
C407 C406 1.376 . S
C407 C408 1.388 . S
C408 H395 0.930 . S
C408 C407 1.388 . S
C408 C409 1.390 . S
C409 C408 1.390 . S
C409 C410 1.394 . S
C409 C415 1.465 . S
C410 C405 1.399 . S
C410 C409 1.394 . S
C410 C411 1.516 . S
C411 C410 1.516 . S
C411 C412 1.502 . S
C411 C413 1.561 1_565 S
C411 C414 1.526 . S
C412 H396 0.959 . S
C412 H397 0.959 . S
C412 H398 0.961 . S
C412 C411 1.502 . S
C413 H399 0.960 . S
C413 H400 0.961 . S
C413 H401 0.959 . S
C413 C411 1.561 1_545 S
C414 C411 1.526 . S
C414 C415 1.396 . S
C414 C419 1.390 . S
C415 C409 1.465 . S
C415 C414 1.396 . S
C415 C416 1.399 . S
C416 H402 0.929 . S
C416 C415 1.399 . S
C416 C417 1.385 . S
C417 H403 0.931 . S
C417 C416 1.385 . S
C417 C418 1.389 . S
C418 C417 1.389 . S
C418 C419 1.387 . S
C419 H404 0.930 . S
C419 C414 1.390 . S
C419 C418 1.387 . S
H420 C432 0.930 . S
H421 C434 0.930 . S
H422 C435 0.930 . S
H423 C439 0.959 . S
H424 C439 0.959 . S
H425 C439 0.961 . S
H426 C440 0.960 . S
H427 C440 0.961 . S
H428 C440 0.959 . S
H429 C443 0.929 . S
H430 C444 0.931 . S
H431 C446 0.930 . S
C432 H420 0.930 . S
C432 C433 1.399 . S
C432 C437 1.399 . S
C433 C432 1.399 . S
C433 C434 1.376 . S
C434 H421 0.930 . S
C434 C433 1.376 . S
C434 C435 1.388 . S
C435 H422 0.930 . S
C435 C434 1.388 . S
C435 C436 1.390 . S
C436 C435 1.390 . S
C436 C437 1.394 . S
C436 C442 1.465 . S
C437 C432 1.399 . S
C437 C436 1.394 . S
C437 C438 1.516 . S
C438 C437 1.516 . S
C438 C439 1.502 . S
C438 C440 1.561 . S
C438 C441 1.526 . S
C439 H423 0.959 . S
C439 H424 0.959 . S
C439 H425 0.961 . S
C439 C438 1.502 . S
C440 H426 0.960 . S
C440 H427 0.961 . S
C440 H428 0.959 . S
C440 C438 1.561 . S
C441 C438 1.526 . S
C441 C442 1.396 . S
C441 C446 1.390 . S
C442 C436 1.465 . S
C442 C441 1.396 . S
C442 C443 1.399 . S
C443 H429 0.929 . S
C443 C442 1.399 . S
C443 C444 1.385 . S
C444 H430 0.931 . S
C444 C443 1.385 . S
C444 C445 1.389 . S
C445 C444 1.389 . S
C445 C446 1.387 . S
C446 H431 0.930 . S
C446 C441 1.390 . S
C446 C445 1.387 . S
H447 C459 0.930 . S
H448 C461 0.930 . S
H449 C462 0.930 . S
H450 C466 0.959 . S
H451 C466 0.959 . S
H452 C466 0.961 . S
H453 C467 0.960 . S
H454 C467 0.961 1_565 S
H455 C467 0.959 . S
H456 C470 0.929 . S
H457 C471 0.931 . S
H458 C473 0.930 . S
C459 H447 0.930 . S
C459 C460 1.399 . S
C459 C464 1.399 . S
C460 C459 1.399 . S
C460 C461 1.376 . S
C461 H448 0.930 . S
C461 C460 1.376 . S
C461 C462 1.388 . S
C462 H449 0.930 . S
C462 C461 1.388 . S
C462 C463 1.390 . S
C463 C462 1.390 . S
C463 C464 1.394 . S
C463 C469 1.465 . S
C464 C459 1.399 . S
C464 C463 1.394 . S
C464 C465 1.516 . S
C465 C464 1.516 . S
C465 C466 1.502 . S
C465 C467 1.561 . S
C465 C468 1.526 . S
C466 H450 0.959 . S
C466 H451 0.959 . S
C466 H452 0.961 . S
C466 C465 1.502 . S
C467 H453 0.960 . S
C467 H454 0.961 1_545 S
C467 H455 0.959 . S
C467 C465 1.561 . S
C468 C465 1.526 . S
C468 C469 1.396 . S
C468 C473 1.390 1_545 S
C469 C463 1.465 . S
C469 C468 1.396 . S
C469 C470 1.399 . S
C470 H456 0.929 . S
C470 C469 1.399 . S
C470 C471 1.385 . S
C471 H457 0.931 . S
C471 C470 1.385 . S
C471 C472 1.389 1_545 S
C472 C471 1.389 1_565 S
C472 C473 1.387 . S
C473 H458 0.930 . S
C473 C468 1.390 1_565 S
C473 C472 1.387 . S
H474 C486 0.930 . S
H475 C488 0.930 . S
H476 C489 0.930 . S
H477 C493 0.959 . S
H478 C493 0.959 . S
H479 C493 0.961 . S
H480 C494 0.960 . S
H481 C494 0.961 . S
H482 C494 0.959 . S
H483 C497 0.929 . S
H484 C498 0.931 . S
H485 C500 0.930 . S
C486 H474 0.930 . S
C486 C487 1.399 . S
C486 C491 1.399 . S
C487 C486 1.399 . S
C487 C488 1.376 . S
C488 H475 0.930 . S
C488 C487 1.376 . S
C488 C489 1.388 . S
C489 H476 0.930 . S
C489 C488 1.388 . S
C489 C490 1.390 . S
C490 C489 1.390 . S
C490 C491 1.394 . S
C490 C496 1.465 1_655 S
C491 C486 1.399 . S
C491 C490 1.394 . S
C491 C492 1.516 1_655 S
C492 C491 1.516 1_455 S
C492 C493 1.502 . S
C492 C494 1.561 . S
C492 C495 1.526 . S
C493 H477 0.959 . S
C493 H478 0.959 . S
C493 H479 0.961 . S
C493 C492 1.502 . S
C494 H480 0.960 . S
C494 H481 0.961 . S
C494 H482 0.959 . S
C494 C492 1.561 . S
C495 C492 1.526 . S
C495 C496 1.396 . S
C495 C500 1.390 . S
C496 C490 1.465 1_455 S
C496 C495 1.396 . S
C496 C497 1.399 . S
C497 H483 0.929 . S
C497 C496 1.399 . S
C497 C498 1.385 . S
C498 H484 0.931 . S
C498 C497 1.385 . S
C498 C499 1.389 . S
C499 C498 1.389 . S
C499 C500 1.387 . S
C500 H485 0.930 . S
C500 C495 1.390 . S
C500 C499 1.387 . S
H501 C513 0.930 . S
H502 C515 0.930 . S
H503 C516 0.930 . S
H504 C520 0.959 . S
H505 C520 0.959 . S
H506 C520 0.961 . S
H507 C521 0.960 . S
H508 C521 0.961 . S
H509 C521 0.959 . S
H510 C524 0.929 1_556 S
H511 C525 0.931 1_556 S
H512 C527 0.930 . S
C513 H501 0.930 . S
C513 C514 1.399 . S
C513 C518 1.399 . S
C514 C513 1.399 . S
C514 C515 1.376 . S
C515 H502 0.930 . S
C515 C514 1.376 . S
C515 C516 1.388 . S
C516 H503 0.930 . S
C516 C515 1.388 . S
C516 C517 1.390 . S
C517 C516 1.390 . S
C517 C518 1.394 . S
C517 C523 1.465 . S
C518 C513 1.399 . S
C518 C517 1.394 . S
C518 C519 1.516 . S
C519 C518 1.516 . S
C519 C520 1.502 . S
C519 C521 1.561 . S
C519 C522 1.526 . S
C520 H504 0.959 . S
C520 H505 0.959 . S
C520 H506 0.961 . S
C520 C519 1.502 . S
C521 H507 0.960 . S
C521 H508 0.961 . S
C521 H509 0.959 . S
C521 C519 1.561 . S
C522 C519 1.526 . S
C522 C523 1.396 . S
C522 C527 1.390 . S
C523 C517 1.465 . S
C523 C522 1.396 . S
C523 C524 1.399 . S
C524 H510 0.929 1_554 S
C524 C523 1.399 . S
C524 C525 1.385 . S
C525 H511 0.931 1_554 S
C525 C524 1.385 . S
C525 C526 1.389 . S
C526 C525 1.389 . S
C526 C527 1.387 . S
C527 H512 0.930 . S
C527 C522 1.390 . S
C527 C526 1.387 . S
H528 C540 0.930 . S
H529 C542 0.930 . S
H530 C543 0.930 . S
H531 C547 0.959 . S
H532 C547 0.959 . S
H533 C547 0.961 . S
H534 C548 0.960 . S
H535 C548 0.961 . S
H536 C548 0.959 . S
H537 C551 0.929 . S
H538 C552 0.931 . S
H539 C554 0.930 . S
C540 H528 0.930 . S
C540 C541 1.399 . S
C540 C545 1.399 . S
C541 C540 1.399 . S
C541 C542 1.376 . S
C542 H529 0.930 . S
C542 C541 1.376 . S
C542 C543 1.388 . S
C543 H530 0.930 . S
C543 C542 1.388 . S
C543 C544 1.390 . S
C544 C543 1.390 . S
C544 C545 1.394 . S
C544 C550 1.465 . S
C545 C540 1.399 . S
C545 C544 1.394 . S
C545 C546 1.516 . S
C546 C545 1.516 . S
C546 C547 1.502 . S
C546 C548 1.561 . S
C546 C549 1.526 . S
C547 H531 0.959 . S
C547 H532 0.959 . S
C547 H533 0.961 . S
C547 C546 1.502 . S
C548 H534 0.960 . S
C548 H535 0.961 . S
C548 H536 0.959 . S
C548 C546 1.561 . S
C549 C546 1.526 . S
C549 C550 1.396 . S
C549 C554 1.390 . S
C550 C544 1.465 . S
C550 C549 1.396 . S
C550 C551 1.399 . S
C551 H537 0.929 . S
C551 C550 1.399 . S
C551 C552 1.385 . S
C552 H538 0.931 . S
C552 C551 1.385 . S
C552 C553 1.389 . S
C553 C552 1.389 . S
C553 C554 1.387 . S
C554 H539 0.930 . S
C554 C549 1.390 . S
C554 C553 1.387 . S
H555 C567 0.930 . S
H556 C569 0.930 . S
H557 C570 0.930 . S
H558 C574 0.959 . S
H559 C574 0.959 . S
H560 C574 0.961 . S
H561 C575 0.960 . S
H562 C575 0.961 . S
H563 C575 0.959 . S
H564 C578 0.929 . S
H565 C579 0.931 . S
H566 C581 0.930 . S
C567 H555 0.930 . S
C567 C568 1.399 . S
C567 C572 1.399 . S
C568 C567 1.399 . S
C568 C569 1.376 . S
C569 H556 0.930 . S
C569 C568 1.376 . S
C569 C570 1.388 . S
C570 H557 0.930 . S
C570 C569 1.388 . S
C570 C571 1.390 . S
C571 C570 1.390 . S
C571 C572 1.394 . S
C571 C577 1.465 . S
C572 C567 1.399 . S
C572 C571 1.394 . S
C572 C573 1.516 . S
C573 C572 1.516 . S
C573 C574 1.502 . S
C573 C575 1.561 . S
C573 C576 1.526 . S
C574 H558 0.959 . S
C574 H559 0.959 . S
C574 H560 0.961 . S
C574 C573 1.502 . S
C575 H561 0.960 . S
C575 H562 0.961 . S
C575 H563 0.959 . S
C575 C573 1.561 . S
C576 C573 1.526 . S
C576 C577 1.396 . S
C576 C581 1.390 . S
C577 C571 1.465 . S
C577 C576 1.396 . S
C577 C578 1.399 . S
C578 H564 0.929 . S
C578 C577 1.399 . S
C578 C579 1.385 . S
C579 H565 0.931 . S
C579 C578 1.385 . S
C579 C580 1.389 . S
C580 C579 1.389 . S
C580 C581 1.387 . S
C581 H566 0.930 . S
C581 C576 1.390 . S
C581 C580 1.387 . S
H582 C594 0.930 . S
H583 C596 0.930 1_655 S
H584 C597 0.930 . S
H585 C601 0.959 . S
H586 C601 0.959 . S
H587 C601 0.961 . S
H588 C602 0.960 . S
H589 C602 0.961 . S
H590 C602 0.959 . S
H591 C605 0.929 . S
H592 C606 0.931 . S
H593 C608 0.930 . S
C594 H582 0.930 . S
C594 C595 1.399 . S
C594 C599 1.399 . S
C595 C594 1.399 . S
C595 C596 1.376 . S
C596 H583 0.930 1_455 S
C596 C595 1.376 . S
C596 C597 1.388 . S
C597 H584 0.930 . S
C597 C596 1.388 . S
C597 C598 1.390 . S
C598 C597 1.390 . S
C598 C599 1.394 . S
C598 C604 1.465 . S
C599 C594 1.399 . S
C599 C598 1.394 . S
C599 C600 1.516 . S
C600 C599 1.516 . S
C600 C601 1.502 . S
C600 C602 1.561 . S
C600 C603 1.526 . S
C601 H585 0.959 . S
C601 H586 0.959 . S
C601 H587 0.961 . S
C601 C600 1.502 . S
C602 H588 0.960 . S
C602 H589 0.961 . S
C602 H590 0.959 . S
C602 C600 1.561 . S
C603 C600 1.526 . S
C603 C604 1.396 . S
C603 C608 1.390 . S
C604 C598 1.465 . S
C604 C603 1.396 . S
C604 C605 1.399 . S
C605 H591 0.929 . S
C605 C604 1.399 . S
C605 C606 1.385 . S
C606 H592 0.931 . S
C606 C605 1.385 . S
C606 C607 1.389 . S
C607 C606 1.389 . S
C607 C608 1.387 . S
C608 H593 0.930 . S
C608 C603 1.390 . S
C608 C607 1.387 . S
C217 C107 1.494 . S
C229 C20 1.535 . S
C244 C138 1.505 . S
C256 C9 1.484 1_655 S
C271 C2 1.449 . S
C283 C175 1.163 . S
C298 C77 1.365 . S
C310 C5 1.216 . S
C325 C179 1.266 . S
C337 C54 1.226 . S
C352 C73 1.098 . S
C364 C39 0.985 . S
C379 C36 1.165 . S
C391 C111 1.137 . S
C406 C156 1.386 . S
C418 C43 1.418 . S
C433 C88 1.503 . S
C445 C122 1.507 . S
C460 C70 1.618 . S
C472 C172 1.624 . S
C487 C141 1.044 . S
C499 C104 1.234 . S
C514 C190 1.624 . S
C526 C145 1.577 . S
C541 C67 1.793 . S
C553 C33 1.685 . S
C568 C169 1.614 . S
C580 C101 1.678 . S
C595 C203 1.408 . S
C607 C135 1.254 . S
