# Generated by pormake.
# Topology hbo, (4)-cn, num edge types: 1
# Building blocks:
#     Node 0, Type 0, BuildingBlock: ICAMEG_clean_sbu_1, # of connection points: 4
#     Node 1, Type 0, BuildingBlock: ICAMEG_clean_sbu_1, # of connection points: 4
#     Node 2, Type 0, BuildingBlock: ICAMEG_clean_sbu_1, # of connection points: 4
#     Node 3, Type 0, BuildingBlock: ICAMEG_clean_sbu_1, # of connection points: 4
#     Node 4, Type 0, BuildingBlock: ICAMEG_clean_sbu_1, # of connection points: 4
#     Node 5, Type 0, BuildingBlock: ICAMEG_clean_sbu_1, # of connection points: 4
#     Node 6, Type 0, BuildingBlock: ICAMEG_clean_sbu_1, # of connection points: 4
#     Node 7, Type 0, BuildingBlock: ICAMEG_clean_sbu_1, # of connection points: 4
#     Node 8, Type 0, BuildingBlock: ICAMEG_clean_sbu_1, # of connection points: 4
#     Node 9, Type 0, BuildingBlock: ICAMEG_clean_sbu_1, # of connection points: 4
#     Node 10, Type 0, BuildingBlock: ICAMEG_clean_sbu_1, # of connection points: 4
#     Node 11, Type 0, BuildingBlock: ICAMEG_clean_sbu_1, # of connection points: 4
#     Node 12, Type 0, BuildingBlock: ICAMEG_clean_sbu_1, # of connection points: 4
#     Node 13, Type 0, BuildingBlock: ICAMEG_clean_sbu_1, # of connection points: 4
#     Node 14, Type 0, BuildingBlock: ICAMEG_clean_sbu_1, # of connection points: 4
#     Node 15, Type 0, BuildingBlock: ICAMEG_clean_sbu_1, # of connection points: 4
#     Node 16, Type 0, BuildingBlock: ICAMEG_clean_sbu_1, # of connection points: 4
#     Node 17, Type 0, BuildingBlock: ICAMEG_clean_sbu_1, # of connection points: 4
#     Node 18, Type 0, BuildingBlock: ICAMEG_clean_sbu_1, # of connection points: 4
#     Node 19, Type 0, BuildingBlock: ICAMEG_clean_sbu_1, # of connection points: 4
#     Node 20, Type 0, BuildingBlock: ICAMEG_clean_sbu_1, # of connection points: 4
#     Node 21, Type 0, BuildingBlock: ICAMEG_clean_sbu_1, # of connection points: 4
#     Node 22, Type 0, BuildingBlock: ICAMEG_clean_sbu_1, # of connection points: 4
#     Node 23, Type 0, BuildingBlock: ICAMEG_clean_sbu_1, # of connection points: 4
#     Edge 24, Type (0, 0), BuildingBlock: ZUJKAS_clean_linker_0, # of connection points: 2
#     Edge 25, Type (0, 0), BuildingBlock: ZUJKAS_clean_linker_0, # of connection points: 2
#     Edge 26, Type (0, 0), BuildingBlock: ZUJKAS_clean_linker_0, # of connection points: 2
#     Edge 27, Type (0, 0), BuildingBlock: ZUJKAS_clean_linker_0, # of connection points: 2
#     Edge 28, Type (0, 0), BuildingBlock: ZUJKAS_clean_linker_0, # of connection points: 2
#     Edge 29, Type (0, 0), BuildingBlock: ZUJKAS_clean_linker_0, # of connection points: 2
#     Edge 30, Type (0, 0), BuildingBlock: ZUJKAS_clean_linker_0, # of connection points: 2
#     Edge 31, Type (0, 0), BuildingBlock: ZUJKAS_clean_linker_0, # of connection points: 2
#     Edge 32, Type (0, 0), BuildingBlock: ZUJKAS_clean_linker_0, # of connection points: 2
#     Edge 33, Type (0, 0), BuildingBlock: ZUJKAS_clean_linker_0, # of connection points: 2
#     Edge 34, Type (0, 0), BuildingBlock: ZUJKAS_clean_linker_0, # of connection points: 2
#     Edge 35, Type (0, 0), BuildingBlock: ZUJKAS_clean_linker_0, # of connection points: 2
#     Edge 36, Type (0, 0), BuildingBlock: ZUJKAS_clean_linker_0, # of connection points: 2
#     Edge 37, Type (0, 0), BuildingBlock: ZUJKAS_clean_linker_0, # of connection points: 2
#     Edge 38, Type (0, 0), BuildingBlock: ZUJKAS_clean_linker_0, # of connection points: 2
#     Edge 39, Type (0, 0), BuildingBlock: ZUJKAS_clean_linker_0, # of connection points: 2
#     Edge 40, Type (0, 0), BuildingBlock: ZUJKAS_clean_linker_0, # of connection points: 2
#     Edge 41, Type (0, 0), BuildingBlock: ZUJKAS_clean_linker_0, # of connection points: 2
#     Edge 42, Type (0, 0), BuildingBlock: ZUJKAS_clean_linker_0, # of connection points: 2
#     Edge 43, Type (0, 0), BuildingBlock: ZUJKAS_clean_linker_0, # of connection points: 2
#     Edge 44, Type (0, 0), BuildingBlock: ZUJKAS_clean_linker_0, # of connection points: 2
#     Edge 45, Type (0, 0), BuildingBlock: ZUJKAS_clean_linker_0, # of connection points: 2
#     Edge 46, Type (0, 0), BuildingBlock: ZUJKAS_clean_linker_0, # of connection points: 2
#     Edge 47, Type (0, 0), BuildingBlock: ZUJKAS_clean_linker_0, # of connection points: 2
#     Edge 48, Type (0, 0), BuildingBlock: ZUJKAS_clean_linker_0, # of connection points: 2
#     Edge 49, Type (0, 0), BuildingBlock: ZUJKAS_clean_linker_0, # of connection points: 2
#     Edge 50, Type (0, 0), BuildingBlock: ZUJKAS_clean_linker_0, # of connection points: 2
#     Edge 51, Type (0, 0), BuildingBlock: ZUJKAS_clean_linker_0, # of connection points: 2
#     Edge 52, Type (0, 0), BuildingBlock: ZUJKAS_clean_linker_0, # of connection points: 2
#     Edge 53, Type (0, 0), BuildingBlock: ZUJKAS_clean_linker_0, # of connection points: 2
#     Edge 54, Type (0, 0), BuildingBlock: ZUJKAS_clean_linker_0, # of connection points: 2
#     Edge 55, Type (0, 0), BuildingBlock: ZUJKAS_clean_linker_0, # of connection points: 2
#     Edge 56, Type (0, 0), BuildingBlock: ZUJKAS_clean_linker_0, # of connection points: 2
#     Edge 57, Type (0, 0), BuildingBlock: ZUJKAS_clean_linker_0, # of connection points: 2
#     Edge 58, Type (0, 0), BuildingBlock: ZUJKAS_clean_linker_0, # of connection points: 2
#     Edge 59, Type (0, 0), BuildingBlock: ZUJKAS_clean_linker_0, # of connection points: 2
#     Edge 60, Type (0, 0), BuildingBlock: ZUJKAS_clean_linker_0, # of connection points: 2
#     Edge 61, Type (0, 0), BuildingBlock: ZUJKAS_clean_linker_0, # of connection points: 2
#     Edge 62, Type (0, 0), BuildingBlock: ZUJKAS_clean_linker_0, # of connection points: 2
#     Edge 63, Type (0, 0), BuildingBlock: ZUJKAS_clean_linker_0, # of connection points: 2
#     Edge 64, Type (0, 0), BuildingBlock: ZUJKAS_clean_linker_0, # of connection points: 2
#     Edge 65, Type (0, 0), BuildingBlock: ZUJKAS_clean_linker_0, # of connection points: 2
#     Edge 66, Type (0, 0), BuildingBlock: ZUJKAS_clean_linker_0, # of connection points: 2
#     Edge 67, Type (0, 0), BuildingBlock: ZUJKAS_clean_linker_0, # of connection points: 2
#     Edge 68, Type (0, 0), BuildingBlock: ZUJKAS_clean_linker_0, # of connection points: 2
#     Edge 69, Type (0, 0), BuildingBlock: ZUJKAS_clean_linker_0, # of connection points: 2
#     Edge 70, Type (0, 0), BuildingBlock: ZUJKAS_clean_linker_0, # of connection points: 2
#     Edge 71, Type (0, 0), BuildingBlock: ZUJKAS_clean_linker_0, # of connection points: 2
# Relax obj value: 0.143
# Max RMSD: 0.173
# Mean RMSD: 0.173
data_MOF--net-hbo--node1-ICAMEG_clean_sbu_1--edge1-ZUJKAS_clean_linker_0
_symmetry_space_group_name_H-M    P1
_symmetry_Int_Tables_number       1
_symmetry_cell_setting            triclinic
loop_
_symmetry_equiv_pos_as_xyz
'x, y, z'
_cell_length_a     72.048544
_cell_length_b     72.028948
_cell_length_c     72.0334
_cell_angle_alpha  89.999588
_cell_angle_beta   90.002478
_cell_angle_gamma 90.00358
loop_
_atom_site_label
_atom_site_type_symbol
_atom_site_fract_x
_atom_site_fract_y
_atom_site_fract_z
_atom_type_partial_charge
Co0 Co 0.15801 0.37005 0.26096 0.0
Co1 Co 0.12964 0.3421 0.23463 0.0
O2 O 0.135 0.36512 0.24772 0.0
C3 C 0.15437 0.40127 0.23485 0.0
O4 O 0.15188 0.38889 0.2217 0.0
C5 C 0.09831 0.34673 0.26043 0.0
O6 O 0.11062 0.34904 0.27366 0.0
O7 O 0.1367 0.32717 0.25667 0.0
O8 O 0.15892 0.34403 0.27065 0.0
H9 H 0.14165 0.27664 0.21373 0.0
H10 H 0.12549 0.39466 0.2666 0.0
O11 O 0.15737 0.3961 0.25149 0.0
H12 H 0.14009 0.3694 0.32853 0.0
H13 H 0.20105 0.40924 0.2996 0.0
H14 H 0.19338 0.34977 0.26655 0.0
H15 H 0.1591 0.3609 0.30135 0.0
H16 H 0.17189 0.40212 0.2831 0.0
O17 O 0.10354 0.34348 0.24385 0.0
H18 H 0.14884 0.306 0.22984 0.0
H19 H 0.09753 0.32897 0.21213 0.0
H20 H 0.22272 0.35625 0.283 0.0
H21 H 0.10622 0.40364 0.29343 0.0
H22 H 0.22668 0.38618 0.29968 0.0
H23 H 0.11344 0.39093 0.32466 0.0
O24 O 0.17295 0.36251 0.23902 0.0
H25 H 0.0977 0.39447 0.2014 0.0
H26 H 0.13927 0.34052 0.19439 0.0
H27 H 0.13158 0.35956 0.16698 0.0
H28 H 0.11065 0.38674 0.1704 0.0
H29 H 0.10586 0.37515 0.22847 0.0
H30 H 0.0897 0.29981 0.19594 0.0
H31 H 0.11189 0.27342 0.19662 0.0
O32 O 0.1557 0.34035 0.22528 0.0
C33 C 0.14944 0.32916 0.26878 0.0
C34 C 0.13191 0.28807 0.21326 0.0
C35 C 0.10274 0.30106 0.2033 0.0
N36 N 0.12372 0.31923 0.22174 0.0
C37 C 0.13594 0.30474 0.22229 0.0
C38 C 0.10723 0.31753 0.21251 0.0
C39 C 0.11519 0.28626 0.20368 0.0
C40 C 0.12884 0.38921 0.28017 0.0
N41 N 0.14345 0.37734 0.28241 0.0
C42 C 0.11782 0.39429 0.2953 0.0
C43 C 0.12187 0.38713 0.31281 0.0
C44 C 0.13681 0.37504 0.31499 0.0
C45 C 0.1475 0.37024 0.29954 0.0
C46 C 0.19948 0.39614 0.29241 0.0
C47 C 0.19497 0.36277 0.27388 0.0
C48 C 0.18302 0.39205 0.28302 0.0
N49 N 0.1809 0.37548 0.27401 0.0
C50 C 0.21163 0.36639 0.28312 0.0
C51 C 0.21385 0.38319 0.29246 0.0
C52 C 0.17068 0.34963 0.22709 0.0
C53 C 0.10679 0.38262 0.19973 0.0
C54 C 0.13017 0.35235 0.19599 0.0
C55 C 0.12584 0.36305 0.18042 0.0
C56 C 0.11408 0.3783 0.18234 0.0
N57 N 0.12294 0.35667 0.213 0.0
C58 C 0.11139 0.37158 0.21499 0.0
Co59 Co 0.15531 0.62788 0.73343 0.0
Co60 Co 0.12873 0.65534 0.76228 0.0
O61 O 0.13313 0.63279 0.74806 0.0
C62 C 0.15319 0.59684 0.75987 0.0
O63 O 0.15087 0.60931 0.77295 0.0
C64 C 0.09708 0.65284 0.73662 0.0
O65 O 0.10923 0.65025 0.72329 0.0
O66 O 0.13615 0.67121 0.74095 0.0
O67 O 0.15549 0.6538 0.72371 0.0
H68 H 0.1437 0.71896 0.78666 0.0
H69 H 0.12259 0.60311 0.73005 0.0
O70 O 0.15545 0.60187 0.74307 0.0
H71 H 0.1329 0.62829 0.66723 0.0
H72 H 0.19591 0.58863 0.6923 0.0
H73 H 0.19021 0.64823 0.72551 0.0
H74 H 0.15367 0.63689 0.69305 0.0
H75 H 0.16781 0.59578 0.71053 0.0
O76 O 0.10252 0.65545 0.75325 0.0
H77 H 0.14955 0.69023 0.76895 0.0
H78 H 0.09728 0.66864 0.7856 0.0
H79 H 0.21848 0.64172 0.70733 0.0
H80 H 0.10156 0.59403 0.7046 0.0
H81 H 0.22146 0.61173 0.69056 0.0
H82 H 0.10662 0.6067 0.67294 0.0
O83 O 0.17172 0.63563 0.75422 0.0
H84 H 0.09512 0.60257 0.79314 0.0
H85 H 0.13868 0.65455 0.80246 0.0
H86 H 0.1305 0.63447 0.82896 0.0
H87 H 0.10856 0.60826 0.82438 0.0
H88 H 0.10379 0.62291 0.76699 0.0
H89 H 0.0908 0.6972 0.80338 0.0
H90 H 0.11414 0.72257 0.80404 0.0
O91 O 0.15487 0.65552 0.7714 0.0
C92 C 0.14732 0.66909 0.72737 0.0
C93 C 0.13345 0.70798 0.78653 0.0
C94 C 0.10374 0.69577 0.7959 0.0
N95 N 0.12384 0.67773 0.77639 0.0
C96 C 0.13671 0.69166 0.77658 0.0
C97 C 0.10748 0.67965 0.78578 0.0
C98 C 0.11685 0.71 0.79626 0.0
C99 C 0.12499 0.60853 0.71627 0.0
N100 N 0.1394 0.62043 0.71302 0.0
C101 C 0.11299 0.60341 0.70193 0.0
C102 C 0.11583 0.61054 0.68417 0.0
C103 C 0.13056 0.62266 0.68097 0.0
C104 C 0.14226 0.62751 0.69565 0.0
C105 C 0.19476 0.60176 0.69951 0.0
C106 C 0.19135 0.63521 0.71814 0.0
C107 C 0.1789 0.60587 0.70987 0.0
N108 N 0.17732 0.62247 0.71893 0.0
C109 C 0.20742 0.63157 0.70792 0.0
C110 C 0.20909 0.61473 0.69853 0.0
C111 C 0.16999 0.64711 0.7676 0.0
C112 C 0.10465 0.61398 0.79532 0.0
C113 C 0.12914 0.64316 0.80035 0.0
C114 C 0.12454 0.63186 0.81541 0.0
C115 C 0.11222 0.61716 0.81284 0.0
N116 N 0.12164 0.63996 0.78322 0.0
C117 C 0.10955 0.62559 0.78059 0.0
Co118 Co 0.84135 0.62856 0.2635 0.0
Co119 Co 0.86912 0.6552 0.23493 0.0
O120 O 0.8639 0.63287 0.24924 0.0
C121 C 0.8431 0.59748 0.23704 0.0
O122 O 0.84604 0.60987 0.22401 0.0
C123 C 0.90018 0.65225 0.26135 0.0
O124 O 0.88776 0.64968 0.27443 0.0
O125 O 0.86141 0.67148 0.25589 0.0
O126 O 0.84189 0.65443 0.2733 0.0
H127 H 0.85588 0.71873 0.20935 0.0
H128 H 0.87331 0.60285 0.26719 0.0
O129 O 0.84056 0.6026 0.25378 0.0
H130 H 0.86274 0.62783 0.33004 0.0
H131 H 0.79895 0.59044 0.30388 0.0
H132 H 0.80709 0.65005 0.27119 0.0
H133 H 0.84263 0.63722 0.30397 0.0
H134 H 0.82748 0.59675 0.28601 0.0
O135 O 0.89509 0.65499 0.24463 0.0
H136 H 0.84906 0.69031 0.22721 0.0
H137 H 0.90144 0.66772 0.21236 0.0
H138 H 0.77841 0.64439 0.28902 0.0
H139 H 0.89367 0.59298 0.29288 0.0
H140 H 0.7742 0.6144 0.30552 0.0
H141 H 0.88847 0.60555 0.32457 0.0
O142 O 0.82542 0.63692 0.24251 0.0
H143 H 0.90244 0.60133 0.20571 0.0
H144 H 0.86043 0.65419 0.19445 0.0
H145 H 0.86893 0.63359 0.16846 0.0
H146 H 0.89008 0.60693 0.17401 0.0
H147 H 0.89348 0.62219 0.23133 0.0
H148 H 0.9089 0.69596 0.19446 0.0
H149 H 0.88599 0.72168 0.19282 0.0
O150 O 0.84328 0.6557 0.22511 0.0
C151 C 0.85022 0.66959 0.2695 0.0
C152 C 0.86595 0.70759 0.20991 0.0
C153 C 0.89572 0.69482 0.20157 0.0
N154 N 0.87478 0.67733 0.2207 0.0
C155 C 0.86214 0.69145 0.21995 0.0
C156 C 0.89144 0.67889 0.21176 0.0
C157 C 0.88285 0.70924 0.20065 0.0
C158 C 0.87085 0.60824 0.28097 0.0
N159 N 0.85674 0.62054 0.28409 0.0
C160 C 0.88247 0.60266 0.29545 0.0
C161 C 0.87957 0.60974 0.31322 0.0
C162 C 0.86514 0.62225 0.3163 0.0
C163 C 0.85382 0.62755 0.30147 0.0
C164 C 0.80063 0.60357 0.29678 0.0
C165 C 0.8054 0.63701 0.27843 0.0
C166 C 0.81673 0.6072 0.28661 0.0
N167 N 0.81899 0.6238 0.27769 0.0
C168 C 0.78911 0.63387 0.28846 0.0
C169 C 0.78676 0.61703 0.2977 0.0
C170 C 0.82779 0.648 0.22889 0.0
C171 C 0.89325 0.61292 0.2031 0.0
C172 C 0.86962 0.64261 0.19699 0.0
C173 C 0.87441 0.63101 0.1822 0.0
C174 C 0.88629 0.61606 0.18533 0.0
N175 N 0.87651 0.63944 0.21438 0.0
C176 C 0.88819 0.62483 0.21754 0.0
Co177 Co 0.87108 0.34394 0.76356 0.0
Co178 Co 0.84447 0.3708 0.73418 0.0
O179 O 0.86661 0.36621 0.74895 0.0
C180 C 0.9028 0.34613 0.73796 0.0
O181 O 0.89069 0.34834 0.72453 0.0
C182 C 0.84647 0.40234 0.76006 0.0
O183 O 0.84857 0.39012 0.77341 0.0
O184 O 0.828 0.36332 0.75506 0.0
O185 O 0.84492 0.3438 0.77259 0.0
H186 H 0.78148 0.35627 0.708 0.0
H187 H 0.89583 0.3766 0.76776 0.0
O188 O 0.89732 0.34381 0.75462 0.0
H189 H 0.86904 0.36598 0.82985 0.0
H190 H 0.9091 0.303 0.8055 0.0
H191 H 0.85039 0.30909 0.77082 0.0
H192 H 0.86105 0.34537 0.8037 0.0
H193 H 0.90253 0.3312 0.78719 0.0
O194 O 0.84427 0.39698 0.74334 0.0
H195 H 0.80968 0.35018 0.72644 0.0
H196 H 0.83194 0.40246 0.71071 0.0
H197 H 0.85632 0.28072 0.78907 0.0
H198 H 0.9043 0.39746 0.79355 0.0
H199 H 0.88586 0.27755 0.80657 0.0
H200 H 0.89082 0.39224 0.82485 0.0
O201 O 0.86378 0.32765 0.74248 0.0
H202 H 0.89823 0.40426 0.70493 0.0
H203 H 0.84625 0.36108 0.69397 0.0
H204 H 0.86709 0.36928 0.66807 0.0
H205 H 0.8933 0.39103 0.67348 0.0
H206 H 0.87715 0.39559 0.73047 0.0
H207 H 0.80392 0.40919 0.6922 0.0
H208 H 0.77848 0.38596 0.69071 0.0
O209 O 0.8444 0.3447 0.72492 0.0
C210 C 0.82975 0.35204 0.76861 0.0
C211 C 0.7925 0.36647 0.70849 0.0
C212 C 0.80508 0.39619 0.69964 0.0
N213 N 0.82249 0.37588 0.71951 0.0
C214 C 0.80852 0.36308 0.71886 0.0
C215 C 0.82089 0.39232 0.71017 0.0
C216 C 0.79081 0.38314 0.69881 0.0
C217 C 0.89005 0.37412 0.78138 0.0
N218 N 0.87803 0.35972 0.78424 0.0
C219 C 0.89484 0.38603 0.79591 0.0
C220 C 0.88725 0.38311 0.81347 0.0
C221 C 0.87502 0.36839 0.81628 0.0
C222 C 0.87052 0.35678 0.80141 0.0
C223 C 0.89616 0.30423 0.79796 0.0
C224 C 0.86322 0.30785 0.7785 0.0
C225 C 0.89239 0.32014 0.78755 0.0
N226 N 0.87603 0.32183 0.77808 0.0
C227 C 0.86653 0.29174 0.78876 0.0
C228 C 0.88311 0.28996 0.79856 0.0
C229 C 0.85262 0.32951 0.72885 0.0
C230 C 0.88683 0.39482 0.70239 0.0
C231 C 0.85764 0.37054 0.69644 0.0
C232 C 0.86937 0.37516 0.68171 0.0
C233 C 0.88407 0.38737 0.68475 0.0
N234 N 0.86042 0.37792 0.7137 0.0
C235 C 0.87479 0.38992 0.71678 0.0
Co236 Co 0.23371 0.12705 0.34263 0.0
Co237 Co 0.26278 0.15372 0.36984 0.0
O238 O 0.24835 0.13141 0.36492 0.0
C239 C 0.26028 0.09607 0.34392 0.0
O240 O 0.2733 0.10852 0.34662 0.0
C241 C 0.23674 0.15099 0.4012 0.0
O242 O 0.22351 0.1486 0.38891 0.0
O243 O 0.24178 0.17004 0.36231 0.0
O244 O 0.2239 0.1529 0.3433 0.0
H245 H 0.28846 0.21707 0.35596 0.0
H246 H 0.23065 0.10138 0.3747 0.0
O247 O 0.24347 0.10111 0.3417 0.0
H248 H 0.1676 0.1263 0.36528 0.0
H249 H 0.19263 0.08879 0.30104 0.0
H250 H 0.22535 0.14847 0.30847 0.0
H251 H 0.19327 0.13566 0.34465 0.0
H252 H 0.21102 0.09517 0.32923 0.0
O253 O 0.25342 0.15361 0.39594 0.0
H254 H 0.27038 0.18871 0.34951 0.0
H255 H 0.28578 0.16631 0.40183 0.0
H256 H 0.207 0.14273 0.28013 0.0
H257 H 0.20536 0.09154 0.39557 0.0
H258 H 0.19048 0.1127 0.27628 0.0
H259 H 0.17358 0.10407 0.39096 0.0
O260 O 0.25437 0.13543 0.32631 0.0
H261 H 0.29233 0.09992 0.40302 0.0
H262 H 0.30311 0.15254 0.36057 0.0
H263 H 0.32917 0.13192 0.3688 0.0
H264 H 0.32385 0.10538 0.39017 0.0
H265 H 0.26664 0.12081 0.39432 0.0
H266 H 0.30391 0.1945 0.40892 0.0
H267 H 0.30538 0.22009 0.38585 0.0
O268 O 0.27223 0.15408 0.34385 0.0
C269 C 0.22795 0.16811 0.35141 0.0
C270 C 0.28797 0.20599 0.36609 0.0
C271 C 0.29662 0.19333 0.39583 0.0
N272 N 0.27715 0.17582 0.37522 0.0
C273 C 0.27781 0.18988 0.3625 0.0
C274 C 0.28631 0.17742 0.39176 0.0
C275 C 0.29745 0.20768 0.38288 0.0
C276 C 0.21682 0.10676 0.37249 0.0
N277 N 0.21342 0.11902 0.35842 0.0
C278 C 0.20257 0.10119 0.3844 0.0
C279 C 0.18475 0.10825 0.38182 0.0
C280 C 0.18139 0.12073 0.36742 0.0
C281 C 0.19598 0.12601 0.35581 0.0
C282 C 0.19974 0.10194 0.30257 0.0
C283 C 0.21811 0.13541 0.30694 0.0
C284 C 0.2102 0.10561 0.31848 0.0
N285 N 0.21913 0.12222 0.32054 0.0
C286 C 0.20778 0.13222 0.29085 0.0
C287 C 0.19853 0.11537 0.28869 0.0
C288 C 0.26809 0.14643 0.32843 0.0
C289 C 0.29483 0.11147 0.39373 0.0
C290 C 0.30068 0.14101 0.36986 0.0
C291 C 0.3155 0.1294 0.3745 0.0
C292 C 0.31251 0.11452 0.3865 0.0
N293 N 0.28339 0.13793 0.37702 0.0
C294 C 0.28035 0.12339 0.38882 0.0
Co295 Co 0.34143 0.76298 0.87113 0.0
Co296 Co 0.37067 0.73531 0.84513 0.0
O297 O 0.36448 0.74931 0.86742 0.0
C298 C 0.34275 0.73632 0.90201 0.0
O299 O 0.34709 0.72364 0.88967 0.0
C300 C 0.40117 0.76229 0.84904 0.0
O301 O 0.3885 0.77517 0.85138 0.0
O302 O 0.36305 0.75627 0.82884 0.0
O303 O 0.34247 0.77295 0.84534 0.0
H304 H 0.3599 0.71026 0.78092 0.0
H305 H 0.37237 0.76734 0.89794 0.0
O306 O 0.33994 0.75305 0.89699 0.0
H307 H 0.36127 0.82999 0.87266 0.0
H308 H 0.29695 0.80217 0.9081 0.0
H309 H 0.30757 0.7698 0.84871 0.0
H310 H 0.34209 0.80349 0.86254 0.0
H311 H 0.32611 0.78508 0.90256 0.0
O312 O 0.39641 0.7455 0.84617 0.0
H313 H 0.35188 0.72767 0.8093 0.0
H314 H 0.40376 0.71341 0.8334 0.0
H315 H 0.27829 0.78685 0.8536 0.0
H316 H 0.39179 0.79347 0.90854 0.0
H317 H 0.27283 0.80319 0.88348 0.0
H318 H 0.38633 0.82506 0.89582 0.0
O319 O 0.32631 0.74166 0.86222 0.0
H320 H 0.40316 0.70615 0.89954 0.0
H321 H 0.36267 0.69467 0.84555 0.0
H322 H 0.37115 0.66862 0.86609 0.0
H323 H 0.39155 0.67429 0.89331 0.0
H324 H 0.39421 0.73183 0.87872 0.0
H325 H 0.41241 0.69596 0.80522 0.0
H326 H 0.39036 0.69425 0.77876 0.0
O327 O 0.34506 0.72494 0.84372 0.0
C328 C 0.35141 0.76953 0.83044 0.0
C329 C 0.3696 0.71085 0.79238 0.0
C330 C 0.39908 0.70285 0.80601 0.0
N331 N 0.37727 0.72142 0.82304 0.0
C332 C 0.36511 0.72064 0.80851 0.0
C333 C 0.39412 0.71278 0.82191 0.0
C334 C 0.3867 0.70189 0.79117 0.0
C335 C 0.36979 0.78108 0.89248 0.0
N336 N 0.35605 0.7839 0.87972 0.0
C337 C 0.38088 0.79581 0.89848 0.0
C338 C 0.37782 0.81352 0.89132 0.0
C339 C 0.36377 0.81629 0.87831 0.0
C340 C 0.35298 0.80123 0.87261 0.0
C341 C 0.29918 0.79514 0.89501 0.0
C342 C 0.30535 0.77698 0.8617 0.0
C343 C 0.31564 0.78541 0.89181 0.0
N344 N 0.31858 0.77659 0.87528 0.0
C345 C 0.28871 0.78656 0.86441 0.0
C346 C 0.28566 0.79571 0.88119 0.0
C347 C 0.3293 0.72824 0.85107 0.0
C348 C 0.3943 0.7035 0.88769 0.0
C349 C 0.37152 0.69725 0.85738 0.0
C350 C 0.37631 0.68244 0.86894 0.0
C351 C 0.38776 0.68563 0.8842 0.0
N352 N 0.378 0.71474 0.86089 0.0
C353 C 0.38926 0.71797 0.87581 0.0
Co354 Co 0.7627 0.87186 0.34175 0.0
Co355 Co 0.73607 0.84383 0.36997 0.0
O356 O 0.74921 0.8669 0.36467 0.0
C357 C 0.73595 0.90261 0.34459 0.0
O358 O 0.72324 0.89006 0.34822 0.0
C359 C 0.76211 0.848 0.40117 0.0
O360 O 0.77501 0.8516 0.38881 0.0
O361 O 0.75794 0.8288 0.36262 0.0
O362 O 0.77287 0.84604 0.34133 0.0
H363 H 0.7148 0.77858 0.35743 0.0
H364 H 0.76729 0.89712 0.37392 0.0
O365 O 0.75269 0.89773 0.34168 0.0
H366 H 0.82989 0.87268 0.36096 0.0
H367 H 0.8014 0.91118 0.29886 0.0
H368 H 0.76923 0.85125 0.30672 0.0
H369 H 0.80325 0.8634 0.34157 0.0
H370 H 0.78455 0.90412 0.32784 0.0
O371 O 0.74553 0.84464 0.39602 0.0
H372 H 0.73105 0.80791 0.35047 0.0
H373 H 0.71358 0.83051 0.40204 0.0
H374 H 0.78605 0.85765 0.27758 0.0
H375 H 0.79358 0.90688 0.39356 0.0
H376 H 0.80229 0.8878 0.27352 0.0
H377 H 0.82514 0.89459 0.38716 0.0
O378 O 0.74118 0.86376 0.32648 0.0
H379 H 0.70347 0.89595 0.40293 0.0
H380 H 0.69575 0.8427 0.36059 0.0
H381 H 0.66855 0.86183 0.36874 0.0
H382 H 0.67233 0.88867 0.39006 0.0
H383 H 0.73032 0.87653 0.3943 0.0
H384 H 0.69727 0.80137 0.40965 0.0
H385 H 0.69775 0.77518 0.38721 0.0
O386 O 0.72651 0.84243 0.34399 0.0
C387 C 0.77054 0.83099 0.35039 0.0
C388 C 0.71441 0.78992 0.36728 0.0
C389 C 0.7046 0.8027 0.3966 0.0
N390 N 0.72307 0.82097 0.37573 0.0
C391 C 0.72352 0.80659 0.36338 0.0
C392 C 0.71388 0.81916 0.39223 0.0
C393 C 0.70487 0.78801 0.384 0.0
C394 C 0.78101 0.89186 0.37093 0.0
N395 N 0.78374 0.87977 0.35657 0.0
C396 C 0.79583 0.89737 0.38215 0.0
C397 C 0.81353 0.89045 0.37857 0.0
C398 C 0.81621 0.87815 0.36388 0.0
C399 C 0.80106 0.87291 0.35297 0.0
C400 C 0.79441 0.89797 0.30048 0.0
C401 C 0.77636 0.86435 0.30509 0.0
C402 C 0.78482 0.89392 0.31683 0.0
N403 N 0.77605 0.87723 0.31901 0.0
C404 C 0.78582 0.86792 0.28854 0.0
C405 C 0.79491 0.88485 0.28627 0.0
C406 C 0.72886 0.85128 0.32884 0.0
C407 C 0.70164 0.88425 0.39368 0.0
C408 C 0.69751 0.85437 0.36986 0.0
C409 C 0.68205 0.86513 0.37445 0.0
C410 C 0.68418 0.88018 0.38643 0.0
N411 N 0.71459 0.85845 0.37704 0.0
C412 C 0.71678 0.87316 0.38881 0.0
Co413 Co 0.65785 0.23389 0.87034 0.0
Co414 Co 0.6292 0.26063 0.8428 0.0
O415 O 0.63489 0.24737 0.86566 0.0
C416 C 0.65553 0.26118 0.90069 0.0
O417 O 0.65239 0.27386 0.88798 0.0
C418 C 0.59855 0.23389 0.84706 0.0
O419 O 0.61114 0.22105 0.84998 0.0
O420 O 0.63708 0.23911 0.82736 0.0
O421 O 0.65757 0.22328 0.8448 0.0
H422 H 0.64131 0.28361 0.77807 0.0
H423 H 0.62607 0.23004 0.89625 0.0
O424 O 0.65839 0.24437 0.89599 0.0
H425 H 0.63836 0.16681 0.87309 0.0
H426 H 0.70141 0.19582 0.90952 0.0
H427 H 0.69231 0.2266 0.84905 0.0
H428 H 0.65769 0.19315 0.86286 0.0
H429 H 0.67238 0.21269 0.90277 0.0
O430 O 0.60341 0.25056 0.84371 0.0
H431 H 0.64873 0.2671 0.80714 0.0
H432 H 0.5964 0.28218 0.82972 0.0
H433 H 0.72149 0.20976 0.85516 0.0
H434 H 0.60649 0.20408 0.90696 0.0
H435 H 0.72618 0.19422 0.88559 0.0
H436 H 0.61256 0.17219 0.89531 0.0
O437 O 0.67314 0.25507 0.86133 0.0
H438 H 0.59598 0.2916 0.89575 0.0
H439 H 0.63724 0.30126 0.84199 0.0
H440 H 0.62853 0.32797 0.86156 0.0
H441 H 0.60775 0.32322 0.88866 0.0
H442 H 0.60513 0.26525 0.87589 0.0
H443 H 0.58835 0.29873 0.80083 0.0
H444 H 0.61092 0.29957 0.77478 0.0
O445 O 0.65486 0.27086 0.84158 0.0
C446 C 0.64883 0.22605 0.82965 0.0
C447 C 0.63138 0.28339 0.78934 0.0
C448 C 0.60164 0.29185 0.80211 0.0
N449 N 0.62307 0.27381 0.82015 0.0
C450 C 0.63552 0.27411 0.80585 0.0
C451 C 0.60626 0.28243 0.81841 0.0
C452 C 0.61432 0.29233 0.7875 0.0
C453 C 0.62891 0.21618 0.89126 0.0
N454 N 0.64306 0.21311 0.87901 0.0
C455 C 0.61773 0.20155 0.89731 0.0
C456 C 0.62112 0.18366 0.89075 0.0
C457 C 0.63559 0.18063 0.87827 0.0
C458 C 0.64646 0.19561 0.8725 0.0
C459 C 0.69952 0.20251 0.8962 0.0
C460 C 0.69421 0.21978 0.86228 0.0
C461 C 0.68313 0.21211 0.89231 0.0
N462 N 0.68061 0.2205 0.87548 0.0
C463 C 0.71078 0.21031 0.86568 0.0
C464 C 0.71341 0.20161 0.88276 0.0
C465 C 0.67041 0.268 0.84953 0.0
C466 C 0.605 0.29385 0.88395 0.0
C467 C 0.62821 0.29908 0.85377 0.0
C468 C 0.6233 0.31426 0.86478 0.0
C469 C 0.61163 0.31159 0.87998 0.0
N470 N 0.62164 0.28172 0.85775 0.0
C471 C 0.61017 0.279 0.87261 0.0
Co472 Co 0.2646 0.84292 0.62814 0.0
Co473 Co 0.23676 0.8703 0.65589 0.0
O474 O 0.25075 0.86555 0.63326 0.0
C475 C 0.23808 0.84601 0.59719 0.0
O476 O 0.22505 0.84856 0.60967 0.0
C477 C 0.26353 0.90109 0.65359 0.0
O478 O 0.27644 0.88858 0.65064 0.0
O479 O 0.25782 0.86188 0.6717 0.0
O480 O 0.27453 0.84239 0.65395 0.0
H481 H 0.21167 0.85551 0.71927 0.0
H482 H 0.26875 0.87566 0.60349 0.0
O483 O 0.2548 0.84319 0.60222 0.0
H484 H 0.33146 0.86327 0.62794 0.0
H485 H 0.30414 0.80119 0.58843 0.0
H486 H 0.27173 0.80778 0.64838 0.0
H487 H 0.30511 0.84325 0.63671 0.0
H488 H 0.28678 0.82979 0.59579 0.0
O489 O 0.24678 0.89614 0.6563 0.0
H490 H 0.2292 0.84933 0.6905 0.0
H491 H 0.21472 0.90252 0.66958 0.0
H492 H 0.28904 0.779 0.64166 0.0
H493 H 0.29473 0.89595 0.59426 0.0
H494 H 0.3054 0.77558 0.6115 0.0
H495 H 0.32635 0.88984 0.60656 0.0
O496 O 0.24337 0.82708 0.63605 0.0
H497 H 0.20735 0.90554 0.60335 0.0
H498 H 0.19617 0.86214 0.6551 0.0
H499 H 0.17006 0.87156 0.63507 0.0
H500 H 0.17557 0.89343 0.60898 0.0
H501 H 0.2331 0.89564 0.62363 0.0
H502 H 0.19716 0.90935 0.69818 0.0
H503 H 0.1955 0.88571 0.72324 0.0
O504 O 0.22663 0.84458 0.65576 0.0
C505 C 0.27113 0.85043 0.66936 0.0
C506 C 0.21225 0.8659 0.70842 0.0
C507 C 0.20412 0.89613 0.6966 0.0
N508 N 0.22285 0.87549 0.67833 0.0
C509 C 0.2221 0.86246 0.69209 0.0
C510 C 0.21412 0.8922 0.68046 0.0
C511 C 0.20319 0.88285 0.71065 0.0
C512 C 0.2825 0.8728 0.60876 0.0
N513 N 0.28542 0.85823 0.62056 0.0
C514 C 0.29714 0.88438 0.60354 0.0
C515 C 0.31487 0.88096 0.61047 0.0
C516 C 0.31775 0.86606 0.62248 0.0
C517 C 0.30277 0.8548 0.62743 0.0
C518 C 0.2971 0.80253 0.60164 0.0
C519 C 0.27891 0.80643 0.63527 0.0
C520 C 0.28722 0.81867 0.60586 0.0
N521 N 0.27838 0.82049 0.62255 0.0
C522 C 0.28865 0.79009 0.63152 0.0
C523 C 0.29781 0.78817 0.61459 0.0
C524 C 0.22998 0.82931 0.64743 0.0
C525 C 0.20477 0.89605 0.61471 0.0
C526 C 0.19869 0.87163 0.64376 0.0
C527 C 0.18384 0.87695 0.63249 0.0
C528 C 0.18694 0.88922 0.61786 0.0
N529 N 0.21613 0.87839 0.64059 0.0
C530 C 0.21927 0.89045 0.62628 0.0
Co531 Co 0.6271 0.73752 0.15673 0.0
Co532 Co 0.65452 0.764 0.12787 0.0
O533 O 0.63157 0.75091 0.13368 0.0
C534 C 0.59606 0.76395 0.15421 0.0
O535 O 0.60841 0.77681 0.15043 0.0
C536 C 0.64948 0.73813 0.09663 0.0
O537 O 0.64721 0.72492 0.10898 0.0
O538 O 0.66966 0.74201 0.13473 0.0
O539 O 0.65301 0.72758 0.15681 0.0
H540 H 0.72012 0.78505 0.13874 0.0
H541 H 0.6015 0.7325 0.12491 0.0
O542 O 0.60115 0.74727 0.15712 0.0
H543 H 0.62655 0.67016 0.13803 0.0
H544 H 0.58886 0.69875 0.20051 0.0
H545 H 0.64833 0.73143 0.19147 0.0
H546 H 0.63586 0.69702 0.15711 0.0
H547 H 0.59529 0.71546 0.17131 0.0
O548 O 0.65276 0.75472 0.10181 0.0
H549 H 0.69094 0.76889 0.14645 0.0
H550 H 0.66707 0.78647 0.09549 0.0
H551 H 0.64255 0.71476 0.22082 0.0
H552 H 0.59171 0.70599 0.10557 0.0
H553 H 0.61263 0.69827 0.22548 0.0
H554 H 0.60431 0.67456 0.11205 0.0
O555 O 0.63526 0.75924 0.17167 0.0
H556 H 0.60172 0.7971 0.09653 0.0
H557 H 0.65615 0.80426 0.13743 0.0
H558 H 0.63699 0.83163 0.12993 0.0
H559 H 0.60956 0.82814 0.10933 0.0
H560 H 0.62116 0.77007 0.10451 0.0
H561 H 0.69605 0.80271 0.08715 0.0
H562 H 0.7228 0.80212 0.10889 0.0
O563 O 0.6567 0.77341 0.15387 0.0
C564 C 0.66779 0.72966 0.14727 0.0
C565 C 0.70854 0.78548 0.12918 0.0
C566 C 0.69503 0.79537 0.10022 0.0
N567 N 0.67726 0.77693 0.12153 0.0
C568 C 0.69195 0.77642 0.13351 0.0
C569 C 0.67867 0.78613 0.10501 0.0
C570 C 0.71004 0.79504 0.11243 0.0
C571 C 0.6069 0.71883 0.12793 0.0
N572 N 0.61917 0.7163 0.14217 0.0
C573 C 0.60137 0.70389 0.11688 0.0
C574 C 0.60846 0.68626 0.12051 0.0
C575 C 0.62096 0.68378 0.13507 0.0
C576 C 0.6262 0.69906 0.14581 0.0
C577 C 0.60196 0.70585 0.19863 0.0
C578 C 0.63532 0.72419 0.19336 0.0
C579 C 0.60566 0.71537 0.18215 0.0
N580 N 0.62222 0.72428 0.17965 0.0
C581 C 0.63211 0.71482 0.21002 0.0
C582 C 0.61531 0.70558 0.21264 0.0
C583 C 0.64792 0.77133 0.16911 0.0
C584 C 0.61367 0.79881 0.10547 0.0
C585 C 0.64421 0.80262 0.12848 0.0
C586 C 0.63344 0.81818 0.12425 0.0
C587 C 0.61806 0.81621 0.11268 0.0
N588 N 0.63982 0.7856 0.12134 0.0
C589 C 0.62478 0.78357 0.10997 0.0
Co590 Co 0.73558 0.15727 0.62744 0.0
Co591 Co 0.76413 0.12849 0.65308 0.0
O592 O 0.74957 0.13435 0.63104 0.0
C593 C 0.7618 0.15613 0.59615 0.0
O594 O 0.77474 0.15202 0.60829 0.0
C595 C 0.73712 0.0979 0.65036 0.0
O596 O 0.72434 0.11048 0.64713 0.0
O597 O 0.74356 0.13629 0.66977 0.0
O598 O 0.72595 0.15614 0.65334 0.0
H599 H 0.79072 0.14035 0.71647 0.0
H600 H 0.73126 0.12624 0.60071 0.0
O601 O 0.74514 0.1588 0.60145 0.0
H602 H 0.66882 0.13665 0.62673 0.0
H603 H 0.69539 0.2012 0.59089 0.0
H604 H 0.72861 0.19107 0.64989 0.0
H605 H 0.69522 0.15612 0.63654 0.0
H606 H 0.71292 0.17227 0.59625 0.0
O607 O 0.75394 0.1027 0.65289 0.0
H608 H 0.77258 0.14787 0.68841 0.0
H609 H 0.78645 0.09566 0.66477 0.0
H610 H 0.71112 0.22014 0.64517 0.0
H611 H 0.70522 0.10655 0.5904 0.0
H612 H 0.69436 0.22535 0.61549 0.0
H613 H 0.67374 0.11166 0.60348 0.0
O614 O 0.75682 0.17272 0.63605 0.0
H615 H 0.79185 0.09523 0.59841 0.0
H616 H 0.80472 0.13653 0.65147 0.0
H617 H 0.83021 0.1278 0.63034 0.0
H618 H 0.82383 0.107 0.60358 0.0
H619 H 0.76675 0.10441 0.61981 0.0
H620 H 0.80461 0.0875 0.69264 0.0
H621 H 0.80689 0.10997 0.71871 0.0
O622 O 0.77446 0.15412 0.65381 0.0
C623 C 0.72994 0.14751 0.66828 0.0
C624 C 0.78988 0.13047 0.70518 0.0
C625 C 0.79766 0.1008 0.69181 0.0
N626 N 0.77859 0.12228 0.67492 0.0
C627 C 0.77968 0.13467 0.68923 0.0
C628 C 0.78733 0.10548 0.67609 0.0
C629 C 0.79893 0.11341 0.70643 0.0
C630 C 0.71756 0.12867 0.60633 0.0
N631 N 0.71474 0.14238 0.61913 0.0
C632 C 0.70289 0.11742 0.6005 0.0
C633 C 0.68523 0.12029 0.60786 0.0
C634 C 0.68246 0.1343 0.62092 0.0
C635 C 0.69747 0.14525 0.62644 0.0
C636 C 0.70261 0.19908 0.60389 0.0
C637 C 0.72125 0.19319 0.63698 0.0
C638 C 0.71259 0.18275 0.60699 0.0
N639 N 0.72165 0.17994 0.62342 0.0
C640 C 0.71142 0.2097 0.63437 0.0
C641 C 0.70203 0.21262 0.61771 0.0
C642 C 0.77067 0.16987 0.6467 0.0
C643 C 0.79481 0.10426 0.61005 0.0
C644 C 0.80184 0.12749 0.63984 0.0
C645 C 0.81633 0.12257 0.62794 0.0
C646 C 0.81275 0.11089 0.61294 0.0
N647 N 0.78428 0.12092 0.63692 0.0
C648 C 0.78067 0.10944 0.62225 0.0
Co649 Co 0.37173 0.26281 0.15675 0.0
Co650 Co 0.3441 0.2367 0.12776 0.0
O651 O 0.36708 0.24972 0.13354 0.0
C652 C 0.40268 0.23636 0.15363 0.0
O653 O 0.39025 0.22361 0.14979 0.0
C654 C 0.349 0.26286 0.09672 0.0
O655 O 0.35159 0.27593 0.10915 0.0
O656 O 0.32905 0.2587 0.13491 0.0
O657 O 0.34583 0.27267 0.15727 0.0
H658 H 0.27878 0.21514 0.13926 0.0
H659 H 0.39717 0.26826 0.12486 0.0
O660 O 0.39767 0.25303 0.15679 0.0
H661 H 0.37194 0.33036 0.13878 0.0
H662 H 0.41039 0.30115 0.20055 0.0
H663 H 0.35111 0.26801 0.192 0.0
H664 H 0.36283 0.30325 0.15761 0.0
H665 H 0.40358 0.28492 0.17116 0.0
O666 O 0.34561 0.24627 0.10179 0.0
H667 H 0.30802 0.23131 0.14681 0.0
H668 H 0.33114 0.21476 0.09516 0.0
H669 H 0.35726 0.28418 0.22156 0.0
H670 H 0.40676 0.29502 0.10576 0.0
H671 H 0.38709 0.3009 0.22597 0.0
H672 H 0.39407 0.32633 0.11265 0.0
O673 O 0.3636 0.24101 0.17148 0.0
H674 H 0.39666 0.204 0.0956 0.0
H675 H 0.34247 0.19627 0.1367 0.0
H676 H 0.36154 0.169 0.12867 0.0
H677 H 0.38885 0.17277 0.10796 0.0
H678 H 0.37731 0.23093 0.10411 0.0
H679 H 0.3021 0.19855 0.08698 0.0
H680 H 0.2757 0.19861 0.10916 0.0
O681 O 0.34224 0.22689 0.15366 0.0
C682 C 0.33106 0.27079 0.14768 0.0
C683 C 0.29021 0.21496 0.12951 0.0
C684 C 0.30329 0.20567 0.10016 0.0
N685 N 0.32131 0.22384 0.1215 0.0
C686 C 0.30681 0.22404 0.13373 0.0
C687 C 0.31968 0.2149 0.10484 0.0
C688 C 0.28848 0.20571 0.11261 0.0
C689 C 0.39174 0.28188 0.12806 0.0
N690 N 0.37954 0.28421 0.14239 0.0
C691 C 0.39715 0.29696 0.11715 0.0
C692 C 0.39 0.31452 0.121 0.0
C693 C 0.37758 0.31679 0.13566 0.0
C694 C 0.37244 0.30138 0.14625 0.0
C695 C 0.39731 0.29396 0.19877 0.0
C696 C 0.36404 0.27541 0.19376 0.0
C697 C 0.39339 0.28474 0.18217 0.0
N698 N 0.37686 0.27573 0.1798 0.0
C699 C 0.36748 0.28447 0.21055 0.0
C700 C 0.38423 0.29383 0.21303 0.0
C701 C 0.35098 0.22887 0.16895 0.0
C702 C 0.38477 0.20217 0.10459 0.0
C703 C 0.35436 0.19804 0.12772 0.0
C704 C 0.36508 0.18254 0.12319 0.0
C705 C 0.38039 0.18466 0.11156 0.0
N706 N 0.35873 0.21517 0.12083 0.0
C707 C 0.37371 0.21736 0.10939 0.0
Co708 Co 0.86964 0.65693 0.76147 0.0
Co709 Co 0.84277 0.62912 0.73319 0.0
O710 O 0.86515 0.63426 0.74745 0.0
C711 C 0.90101 0.65453 0.73538 0.0
O712 O 0.88879 0.65153 0.7222 0.0
C713 C 0.84544 0.59813 0.75973 0.0
O714 O 0.84798 0.61059 0.77279 0.0
O715 O 0.82655 0.63702 0.75415 0.0
O716 O 0.84372 0.65686 0.77107 0.0
H717 H 0.7793 0.64263 0.70762 0.0
H718 H 0.89487 0.62467 0.76577 0.0
O719 O 0.89568 0.6573 0.75201 0.0
H720 H 0.86953 0.63634 0.82827 0.0
H721 H 0.90789 0.69934 0.80174 0.0
H722 H 0.84856 0.69159 0.76848 0.0
H723 H 0.86065 0.65628 0.80189 0.0
H724 H 0.9014 0.67067 0.78415 0.0
O725 O 0.84283 0.60319 0.74299 0.0
H726 H 0.80775 0.64934 0.72545 0.0
H727 H 0.83005 0.59678 0.71074 0.0
H728 H 0.85441 0.72042 0.78602 0.0
H729 H 0.90424 0.60448 0.79178 0.0
H730 H 0.88426 0.72443 0.8028 0.0
H731 H 0.89148 0.61022 0.82329 0.0
O732 O 0.86168 0.67269 0.7402 0.0
H733 H 0.89632 0.59526 0.70401 0.0
H734 H 0.84382 0.6377 0.69269 0.0
H735 H 0.86431 0.62895 0.6667 0.0
H736 H 0.89078 0.60758 0.67229 0.0
H737 H 0.87557 0.60448 0.72963 0.0
H738 H 0.80178 0.58943 0.69286 0.0
H739 H 0.77619 0.61248 0.69117 0.0
O740 O 0.8424 0.65493 0.72326 0.0
C741 C 0.82853 0.64849 0.76751 0.0
C742 C 0.79038 0.6325 0.7082 0.0
C743 C 0.80298 0.60262 0.69994 0.0
N744 N 0.82059 0.62353 0.71901 0.0
C745 C 0.80654 0.63624 0.71824 0.0
C746 C 0.81894 0.60685 0.71012 0.0
C747 C 0.78863 0.61557 0.69899 0.0
C748 C 0.8894 0.62737 0.77947 0.0
N749 N 0.87729 0.64169 0.78232 0.0
C750 C 0.8947 0.61584 0.79413 0.0
C751 C 0.88752 0.61906 0.81181 0.0
C752 C 0.87519 0.6337 0.81461 0.0
C753 C 0.87018 0.64492 0.79961 0.0
C754 C 0.89482 0.69774 0.79451 0.0
C755 C 0.86154 0.69319 0.77585 0.0
C756 C 0.89109 0.68156 0.7845 0.0
N757 N 0.87457 0.67942 0.77542 0.0
C758 C 0.86479 0.70957 0.78571 0.0
C759 C 0.88155 0.71181 0.7951 0.0
C760 C 0.85042 0.67033 0.72673 0.0
C761 C 0.8848 0.60454 0.70139 0.0
C762 C 0.85532 0.62842 0.69524 0.0
C763 C 0.86686 0.62348 0.68046 0.0
C764 C 0.8817 0.61148 0.6836 0.0
N765 N 0.85844 0.62155 0.71265 0.0
C766 C 0.87296 0.60975 0.71583 0.0
Co767 Co 0.84379 0.37016 0.26267 0.0
Co768 Co 0.87134 0.34318 0.23432 0.0
O769 O 0.86635 0.36562 0.24852 0.0
C770 C 0.84619 0.40165 0.23674 0.0
O771 O 0.84869 0.38943 0.22345 0.0
C772 C 0.90261 0.34617 0.26042 0.0
O773 O 0.89026 0.34854 0.2736 0.0
O774 O 0.86387 0.32714 0.25551 0.0
O775 O 0.84357 0.34411 0.27205 0.0
H776 H 0.85783 0.27935 0.20965 0.0
H777 H 0.8762 0.39517 0.26719 0.0
O778 O 0.84369 0.39629 0.25341 0.0
H779 H 0.86455 0.36907 0.3294 0.0
H780 H 0.80188 0.40852 0.30334 0.0
H781 H 0.80887 0.34943 0.26945 0.0
H782 H 0.84452 0.36061 0.30295 0.0
H783 H 0.83047 0.40184 0.28569 0.0
O784 O 0.89742 0.34348 0.24372 0.0
H785 H 0.85121 0.30796 0.22728 0.0
H786 H 0.90335 0.33046 0.21143 0.0
H787 H 0.78011 0.35547 0.28703 0.0
H788 H 0.89649 0.4041 0.29328 0.0
H789 H 0.77649 0.3852 0.30413 0.0
H790 H 0.89075 0.39097 0.32464 0.0
O791 O 0.82797 0.36252 0.24138 0.0
H792 H 0.9045 0.3966 0.20409 0.0
H793 H 0.86202 0.34387 0.19398 0.0
H794 H 0.87028 0.36414 0.16765 0.0
H795 H 0.89167 0.39073 0.17262 0.0
H796 H 0.89577 0.37606 0.23005 0.0
H797 H 0.9106 0.30203 0.19374 0.0
H798 H 0.88771 0.27625 0.19272 0.0
O799 O 0.84534 0.34259 0.22478 0.0
C800 C 0.85218 0.329 0.26868 0.0
C801 C 0.86788 0.2905 0.20993 0.0
C802 C 0.89751 0.30323 0.20103 0.0
N803 N 0.87681 0.32091 0.22024 0.0
C804 C 0.86419 0.30676 0.21984 0.0
C805 C 0.89335 0.31927 0.21109 0.0
C806 C 0.88466 0.28877 0.20046 0.0
C807 C 0.8735 0.38954 0.28083 0.0
N808 N 0.85913 0.37746 0.28356 0.0
C809 C 0.88508 0.39459 0.29554 0.0
C810 C 0.88187 0.3872 0.31312 0.0
C811 C 0.86718 0.3749 0.3158 0.0
C812 C 0.8559 0.37013 0.30077 0.0
C813 C 0.80331 0.3955 0.29597 0.0
C814 C 0.80744 0.36235 0.27696 0.0
C815 C 0.81945 0.39165 0.28594 0.0
N816 N 0.82138 0.3752 0.27669 0.0
C817 C 0.7911 0.36571 0.28684 0.0
C818 C 0.78907 0.3824 0.29642 0.0
C819 C 0.83008 0.35094 0.22814 0.0
C820 C 0.89521 0.38503 0.20173 0.0
C821 C 0.87132 0.35542 0.19626 0.0
C822 C 0.87597 0.36684 0.18129 0.0
C823 C 0.88798 0.38174 0.18409 0.0
N824 N 0.87848 0.35873 0.21352 0.0
C825 C 0.89028 0.37331 0.21637 0.0
Co826 Co 0.15755 0.36965 0.73603 0.0
Co827 Co 0.12995 0.34331 0.76497 0.0
O828 O 0.13503 0.36545 0.75037 0.0
C829 C 0.15554 0.40119 0.76188 0.0
O830 O 0.15305 0.38899 0.77519 0.0
C831 C 0.09872 0.34578 0.73875 0.0
O832 O 0.11107 0.34809 0.72555 0.0
O833 O 0.13747 0.32685 0.74411 0.0
O834 O 0.15733 0.34357 0.72677 0.0
H835 H 0.14342 0.28003 0.79102 0.0
H836 H 0.12539 0.39503 0.73171 0.0
O837 O 0.15801 0.39581 0.74522 0.0
H838 H 0.13617 0.36855 0.6695 0.0
H839 H 0.19953 0.40739 0.69487 0.0
H840 H 0.19211 0.34843 0.72888 0.0
H841 H 0.15634 0.35996 0.6958 0.0
H842 H 0.17106 0.40112 0.71285 0.0
O843 O 0.10391 0.34341 0.75549 0.0
H844 H 0.15006 0.30826 0.7728 0.0
H845 H 0.09785 0.33103 0.788 0.0
H846 H 0.22074 0.35406 0.71097 0.0
H847 H 0.10498 0.4041 0.70577 0.0
H848 H 0.22459 0.38373 0.6938 0.0
H849 H 0.11027 0.39078 0.67441 0.0
O850 O 0.17353 0.36189 0.75719 0.0
H851 H 0.09684 0.39746 0.79391 0.0
H852 H 0.13898 0.34475 0.80537 0.0
H853 H 0.13069 0.36561 0.83122 0.0
H854 H 0.10947 0.39219 0.82556 0.0
H855 H 0.10561 0.37634 0.76843 0.0
H856 H 0.09057 0.30297 0.80626 0.0
H857 H 0.11349 0.27726 0.80791 0.0
O858 O 0.15588 0.34291 0.77459 0.0
C859 C 0.14883 0.32852 0.73062 0.0
C860 C 0.13335 0.29116 0.79046 0.0
C861 C 0.10368 0.30403 0.79899 0.0
N862 N 0.12442 0.32132 0.77948 0.0
C863 C 0.13706 0.3072 0.78022 0.0
C864 C 0.10786 0.31986 0.7886 0.0
C865 C 0.11655 0.28961 0.79992 0.0
C866 C 0.12791 0.38932 0.71806 0.0
N867 N 0.14211 0.37706 0.71525 0.0
C868 C 0.11625 0.39445 0.70344 0.0
C869 C 0.11921 0.38695 0.68586 0.0
C870 C 0.13373 0.37446 0.6831 0.0
C871 C 0.14509 0.36963 0.69805 0.0
C872 C 0.19801 0.3944 0.70227 0.0
C873 C 0.19364 0.36133 0.72135 0.0
C874 C 0.18194 0.39079 0.71249 0.0
N875 N 0.17988 0.37437 0.72178 0.0
C876 C 0.2099 0.36446 0.71128 0.0
C877 C 0.21206 0.38111 0.70167 0.0
C878 C 0.17128 0.35079 0.77081 0.0
C879 C 0.10606 0.3859 0.79656 0.0
C880 C 0.12977 0.3563 0.80279 0.0
C881 C 0.12509 0.36805 0.81749 0.0
C882 C 0.11317 0.38295 0.81431 0.0
N883 N 0.12273 0.35928 0.78542 0.0
C884 C 0.11101 0.37385 0.78221 0.0
Co885 Co 0.12743 0.65535 0.236 0.0
Co886 Co 0.15431 0.62718 0.26387 0.0
O887 O 0.13201 0.63242 0.24956 0.0
C888 C 0.09595 0.65205 0.26182 0.0
O889 O 0.10819 0.64923 0.27502 0.0
C890 C 0.15201 0.59664 0.2368 0.0
O891 O 0.14948 0.6093 0.22394 0.0
O892 O 0.17053 0.63551 0.24313 0.0
O893 O 0.15349 0.65583 0.22666 0.0
H894 H 0.21759 0.64063 0.28991 0.0
H895 H 0.10254 0.62297 0.23065 0.0
O896 O 0.10129 0.65514 0.24524 0.0
H897 H 0.12865 0.63624 0.16878 0.0
H898 H 0.089 0.69817 0.19636 0.0
H899 H 0.14812 0.69044 0.22999 0.0
H900 H 0.13701 0.65565 0.19572 0.0
H901 H 0.09572 0.66918 0.21334 0.0
O902 O 0.15445 0.60142 0.25365 0.0
H903 H 0.18918 0.64746 0.27206 0.0
H904 H 0.1671 0.59457 0.28589 0.0
H905 H 0.14204 0.7196 0.21309 0.0
H906 H 0.0937 0.60329 0.20407 0.0
H907 H 0.11229 0.7236 0.19611 0.0
H908 H 0.10684 0.60985 0.17287 0.0
O909 O 0.13501 0.67072 0.25768 0.0
H910 H 0.10079 0.59255 0.29221 0.0
H911 H 0.15302 0.63507 0.30451 0.0
H912 H 0.13245 0.62576 0.33025 0.0
H913 H 0.10612 0.60435 0.32417 0.0
H914 H 0.12162 0.60232 0.26685 0.0
H915 H 0.19534 0.58709 0.30377 0.0
H916 H 0.2208 0.61025 0.30593 0.0
O917 O 0.15448 0.65282 0.27424 0.0
C918 C 0.16866 0.64736 0.23009 0.0
C919 C 0.20657 0.63045 0.28913 0.0
C920 C 0.19409 0.60039 0.29689 0.0
N921 N 0.17645 0.62149 0.27807 0.0
C922 C 0.19043 0.63426 0.27909 0.0
C923 C 0.17815 0.60468 0.28671 0.0
C924 C 0.20837 0.61339 0.29809 0.0
C925 C 0.10817 0.62603 0.21709 0.0
N926 N 0.1202 0.6405 0.21473 0.0
C927 C 0.10317 0.61479 0.2021 0.0
C928 C 0.11057 0.61846 0.1846 0.0
C929 C 0.12282 0.63326 0.1823 0.0
C930 C 0.12753 0.64418 0.19761 0.0
C931 C 0.10203 0.69658 0.20367 0.0
C932 C 0.1352 0.69204 0.22254 0.0
C933 C 0.10589 0.68021 0.21334 0.0
N934 N 0.12236 0.67808 0.22251 0.0
C935 C 0.13181 0.7086 0.21304 0.0
C936 C 0.1151 0.71084 0.20353 0.0
C937 C 0.14629 0.6682 0.2711 0.0
C938 C 0.11225 0.60185 0.29505 0.0
C939 C 0.14158 0.62577 0.30175 0.0
C940 C 0.13 0.62052 0.31639 0.0
C941 C 0.11523 0.6085 0.31297 0.0
N942 N 0.13857 0.61918 0.28421 0.0
C943 C 0.12414 0.60737 0.28076 0.0
Co944 Co 0.76208 0.87184 0.65561 0.0
Co945 Co 0.73402 0.8453 0.62719 0.0
O946 O 0.74819 0.86765 0.63276 0.0
C947 C 0.73549 0.90278 0.65378 0.0
O948 O 0.72268 0.89037 0.65002 0.0
C949 C 0.76092 0.84827 0.59654 0.0
O950 O 0.7737 0.85145 0.60913 0.0
O951 O 0.75491 0.82907 0.63515 0.0
O952 O 0.77199 0.84601 0.65504 0.0
H953 H 0.70856 0.7816 0.63981 0.0
H954 H 0.7662 0.89799 0.62406 0.0
O955 O 0.75221 0.89775 0.65657 0.0
H956 H 0.82888 0.87282 0.63514 0.0
H957 H 0.80173 0.90971 0.69891 0.0
H958 H 0.76921 0.85014 0.68988 0.0
H959 H 0.80254 0.86315 0.65476 0.0
H960 H 0.78433 0.90357 0.67005 0.0
O961 O 0.74415 0.84549 0.60138 0.0
H962 H 0.72621 0.81005 0.64698 0.0
H963 H 0.71189 0.83284 0.59452 0.0
H964 H 0.78656 0.85563 0.71888 0.0
H965 H 0.79218 0.90813 0.6042 0.0
H966 H 0.80298 0.8856 0.72354 0.0
H967 H 0.82377 0.89547 0.60965 0.0
O968 O 0.7409 0.86327 0.67114 0.0
H969 H 0.70521 0.89912 0.59344 0.0
H970 H 0.69342 0.84624 0.63529 0.0
H971 H 0.66753 0.86679 0.62641 0.0
H972 H 0.67335 0.89346 0.60533 0.0
H973 H 0.73073 0.87829 0.60279 0.0
H974 H 0.6942 0.80457 0.58672 0.0
H975 H 0.69239 0.77873 0.60949 0.0
O976 O 0.72377 0.84466 0.65287 0.0
C977 C 0.76835 0.83091 0.64654 0.0
C978 C 0.70919 0.79279 0.6298 0.0
C979 C 0.70115 0.80567 0.59999 0.0
N980 N 0.71995 0.82314 0.62125 0.0
C981 C 0.71912 0.80895 0.63381 0.0
C982 C 0.71122 0.82162 0.60447 0.0
C983 C 0.70014 0.79118 0.61278 0.0
C984 C 0.77995 0.89256 0.62664 0.0
N985 N 0.78287 0.88007 0.64062 0.0
C986 C 0.79459 0.89829 0.61529 0.0
C987 C 0.81231 0.89116 0.61834 0.0
C988 C 0.81518 0.87844 0.63264 0.0
C989 C 0.8002 0.873 0.64368 0.0
C990 C 0.79467 0.89658 0.69703 0.0
C991 C 0.77642 0.86317 0.69176 0.0
C992 C 0.78477 0.89304 0.68074 0.0
N993 N 0.77589 0.87646 0.67824 0.0
C994 C 0.78617 0.86622 0.70823 0.0
C995 C 0.79537 0.88304 0.71084 0.0
C996 C 0.72732 0.85222 0.66848 0.0
C997 C 0.70249 0.88751 0.60259 0.0
C998 C 0.69607 0.85782 0.62614 0.0
C999 C 0.68135 0.8694 0.62113 0.0
C1000 C 0.68462 0.88435 0.60929 0.0
N1001 N 0.71355 0.86101 0.6195 0.0
C1002 C 0.71687 0.87563 0.60787 0.0
Co1003 Co 0.65612 0.23521 0.12641 0.0
Co1004 Co 0.6288 0.26314 0.15419 0.0
O1005 O 0.63356 0.24924 0.13148 0.0
C1006 C 0.65365 0.26219 0.09577 0.0
O1007 O 0.65065 0.27502 0.10836 0.0
C1008 C 0.59796 0.2364 0.15186 0.0
O1009 O 0.6104 0.22362 0.14813 0.0
O1010 O 0.63721 0.24204 0.16995 0.0
O1011 O 0.65621 0.22491 0.15206 0.0
H1012 H 0.64366 0.28797 0.21766 0.0
H1013 H 0.6237 0.2318 0.10125 0.0
O1014 O 0.65637 0.2454 0.10063 0.0
H1015 H 0.63504 0.16858 0.12493 0.0
H1016 H 0.69791 0.19572 0.08671 0.0
H1017 H 0.6909 0.22738 0.14701 0.0
H1018 H 0.65521 0.19458 0.13438 0.0
H1019 H 0.66943 0.21332 0.09392 0.0
O1020 O 0.60295 0.25312 0.15473 0.0
H1021 H 0.6498 0.27056 0.18882 0.0
H1022 H 0.59664 0.28523 0.16797 0.0
H1023 H 0.71954 0.20981 0.14044 0.0
H1024 H 0.60328 0.20618 0.09132 0.0
H1025 H 0.72318 0.19383 0.11009 0.0
H1026 H 0.60886 0.1743 0.10324 0.0
O1027 O 0.67212 0.25614 0.13482 0.0
H1028 H 0.59347 0.29271 0.10181 0.0
H1029 H 0.63702 0.30373 0.15346 0.0
H1030 H 0.6276 0.3299 0.13349 0.0
H1031 H 0.60566 0.32446 0.10745 0.0
H1032 H 0.60337 0.26691 0.12203 0.0
H1033 H 0.58986 0.30268 0.19665 0.0
H1034 H 0.6135 0.30419 0.22171 0.0
O1035 O 0.65451 0.27326 0.15407 0.0
C1036 C 0.64833 0.22846 0.16751 0.0
C1037 C 0.63327 0.28747 0.20682 0.0
C1038 C 0.60306 0.2957 0.19504 0.0
N1039 N 0.62365 0.277 0.17668 0.0
C1040 C 0.63669 0.27767 0.19044 0.0
C1041 C 0.60696 0.28576 0.17885 0.0
C1042 C 0.61634 0.29655 0.20909 0.0
C1043 C 0.62633 0.21794 0.10635 0.0
N1044 N 0.64069 0.21468 0.11832 0.0
C1045 C 0.61468 0.2035 0.10074 0.0
C1046 C 0.6178 0.18562 0.10745 0.0
C1047 C 0.63248 0.1824 0.11963 0.0
C1048 C 0.64383 0.19719 0.12497 0.0
C1049 C 0.69648 0.2026 0.09999 0.0
C1050 C 0.69234 0.22037 0.13382 0.0
C1051 C 0.6804 0.21262 0.10413 0.0
N1052 N 0.67846 0.22125 0.12092 0.0
C1053 C 0.70861 0.21048 0.13015 0.0
C1054 C 0.71065 0.20154 0.11312 0.0
C1055 C 0.66987 0.26965 0.14606 0.0
C1056 C 0.603 0.29526 0.11314 0.0
C1057 C 0.6275 0.30125 0.14214 0.0
C1058 C 0.62218 0.31613 0.1309 0.0
C1059 C 0.60986 0.31307 0.1163 0.0
N1060 N 0.62069 0.28382 0.13896 0.0
C1061 C 0.60859 0.28072 0.12469 0.0
Co1062 Co 0.23458 0.12683 0.65541 0.0
Co1063 Co 0.26226 0.15486 0.62816 0.0
O1064 O 0.24858 0.13204 0.63289 0.0
C1065 C 0.26154 0.09625 0.6527 0.0
O1066 O 0.27441 0.10891 0.65024 0.0
C1067 C 0.23596 0.15192 0.59701 0.0
O1068 O 0.22292 0.14889 0.60937 0.0
O1069 O 0.24085 0.17038 0.63618 0.0
O1070 O 0.22433 0.15252 0.65574 0.0
H1071 H 0.28604 0.21879 0.64275 0.0
H1072 H 0.23104 0.10199 0.62274 0.0
O1073 O 0.24472 0.10104 0.65534 0.0
H1074 H 0.16792 0.12572 0.63445 0.0
H1075 H 0.19512 0.08681 0.69691 0.0
H1076 H 0.22687 0.14712 0.6904 0.0
H1077 H 0.19398 0.13491 0.65466 0.0
H1078 H 0.21268 0.09426 0.66846 0.0
O1079 O 0.25261 0.15492 0.60218 0.0
H1080 H 0.26895 0.18977 0.64894 0.0
H1081 H 0.28453 0.16866 0.59615 0.0
H1082 H 0.20935 0.14031 0.71902 0.0
H1083 H 0.20536 0.09234 0.60227 0.0
H1084 H 0.19332 0.10996 0.72241 0.0
H1085 H 0.17354 0.10428 0.60804 0.0
O1086 O 0.25556 0.13508 0.67141 0.0
H1087 H 0.29301 0.10256 0.59372 0.0
H1088 H 0.30274 0.15478 0.63691 0.0
H1089 H 0.3293 0.13511 0.62801 0.0
H1090 H 0.32452 0.10878 0.60626 0.0
H1091 H 0.26681 0.1225 0.6031 0.0
H1092 H 0.30167 0.19752 0.58931 0.0
H1093 H 0.30256 0.2228 0.61275 0.0
O1094 O 0.27205 0.15509 0.65403 0.0
C1095 C 0.22753 0.16791 0.64759 0.0
C1096 C 0.28581 0.20785 0.63245 0.0
C1097 C 0.29456 0.19592 0.60245 0.0
N1098 N 0.27588 0.17749 0.62298 0.0
C1099 C 0.2762 0.19137 0.6359 0.0
C1100 C 0.2848 0.17963 0.60638 0.0
C1101 C 0.29506 0.2101 0.61561 0.0
C1102 C 0.2172 0.1071 0.62546 0.0
N1103 N 0.214 0.11893 0.63994 0.0
C1104 C 0.20273 0.10165 0.61377 0.0
C1105 C 0.18488 0.10837 0.61699 0.0
C1106 C 0.18172 0.12041 0.6318 0.0
C1107 C 0.19654 0.1256 0.64318 0.0
C1108 C 0.20202 0.10009 0.69559 0.0
C1109 C 0.21984 0.13393 0.69173 0.0
C1110 C 0.21201 0.10437 0.67953 0.0
N1111 N 0.22067 0.12116 0.67773 0.0
C1112 C 0.20998 0.13013 0.70799 0.0
C1113 C 0.20101 0.11309 0.70988 0.0
C1114 C 0.26873 0.14674 0.66929 0.0
C1115 C 0.29528 0.11402 0.60317 0.0
C1116 C 0.30054 0.14334 0.62747 0.0
C1117 C 0.31564 0.13227 0.62245 0.0
C1118 C 0.31295 0.1175 0.61023 0.0
N1119 N 0.28325 0.13984 0.62047 0.0
C1120 C 0.28051 0.12541 0.60847 0.0
Co1121 Co 0.34223 0.76321 0.12769 0.0
Co1122 Co 0.37019 0.73498 0.15457 0.0
O1123 O 0.36486 0.74903 0.13206 0.0
C1124 C 0.34346 0.73614 0.09707 0.0
O1125 O 0.34738 0.72343 0.10952 0.0
C1126 C 0.40087 0.76186 0.15176 0.0
O1127 O 0.38831 0.77459 0.14827 0.0
O1128 O 0.36208 0.75592 0.17071 0.0
O1129 O 0.34313 0.77357 0.15329 0.0
H1130 H 0.35686 0.70958 0.21815 0.0
H1131 H 0.37376 0.76626 0.10141 0.0
O1132 O 0.3409 0.75294 0.10197 0.0
H1133 H 0.36381 0.82966 0.12524 0.0
H1134 H 0.29939 0.80297 0.0894 0.0
H1135 H 0.30826 0.77135 0.14948 0.0
H1136 H 0.34376 0.80386 0.13548 0.0
H1137 H 0.32797 0.78516 0.09565 0.0
O1138 O 0.39602 0.74509 0.15462 0.0
H1139 H 0.35001 0.7272 0.1896 0.0
H1140 H 0.40273 0.7129 0.16744 0.0
H1141 H 0.27955 0.78914 0.14388 0.0
H1142 H 0.39404 0.79167 0.09068 0.0
H1143 H 0.27497 0.80511 0.11365 0.0
H1144 H 0.38916 0.82363 0.10266 0.0
O1145 O 0.32636 0.74243 0.13671 0.0
H1146 H 0.40449 0.70592 0.10123 0.0
H1147 H 0.36203 0.69438 0.15366 0.0
H1148 H 0.3711 0.66839 0.1333 0.0
H1149 H 0.39249 0.67409 0.10686 0.0
H1150 H 0.39495 0.73154 0.12186 0.0
H1151 H 0.41023 0.69525 0.19582 0.0
H1152 H 0.38717 0.69345 0.22139 0.0
O1153 O 0.34451 0.72478 0.15496 0.0
C1154 C 0.35119 0.76972 0.16857 0.0
C1155 C 0.367 0.71021 0.20708 0.0
C1156 C 0.39696 0.70219 0.19456 0.0
N1157 N 0.3759 0.72096 0.17683 0.0
C1158 C 0.36318 0.72012 0.19087 0.0
C1159 C 0.39266 0.71224 0.17854 0.0
C1160 C 0.38401 0.70118 0.2089 0.0
C1161 C 0.37144 0.78016 0.10655 0.0
N1162 N 0.35754 0.78358 0.11899 0.0
C1163 C 0.38301 0.79448 0.10048 0.0
C1164 C 0.38028 0.8124 0.10723 0.0
C1165 C 0.36607 0.81579 0.11991 0.0
C1166 C 0.35478 0.80112 0.12569 0.0
C1167 C 0.30123 0.7961 0.10263 0.0
C1168 C 0.30642 0.77836 0.13633 0.0
C1169 C 0.31736 0.78596 0.10623 0.0
N1170 N 0.31982 0.77734 0.12296 0.0
C1171 C 0.29011 0.78837 0.13322 0.0
C1172 C 0.28754 0.7973 0.11625 0.0
C1173 C 0.3289 0.72869 0.1476 0.0
C1174 C 0.39521 0.70326 0.11274 0.0
C1175 C 0.37132 0.69698 0.14218 0.0
C1176 C 0.37644 0.6822 0.13071 0.0
C1177 C 0.38845 0.6854 0.11589 0.0
N1178 N 0.37802 0.71444 0.139 0.0
C1179 C 0.38982 0.71769 0.12451 0.0
Co1180 Co 0.73394 0.15703 0.36959 0.0
Co1181 Co 0.76235 0.1284 0.34363 0.0
O1182 O 0.74791 0.13414 0.36579 0.0
C1183 C 0.7604 0.15578 0.40066 0.0
O1184 O 0.77319 0.15149 0.38841 0.0
C1185 C 0.73538 0.09773 0.34638 0.0
O1186 O 0.72254 0.11029 0.34947 0.0
O1187 O 0.74169 0.13631 0.32708 0.0
O1188 O 0.72413 0.156 0.34375 0.0
H1189 H 0.78865 0.14059 0.2802 0.0
H1190 H 0.72984 0.12588 0.3962 0.0
O1191 O 0.7437 0.1585 0.39552 0.0
H1192 H 0.6672 0.13633 0.37067 0.0
H1193 H 0.69397 0.20077 0.40662 0.0
H1194 H 0.72676 0.19092 0.34733 0.0
H1195 H 0.6935 0.15589 0.36078 0.0
H1196 H 0.71149 0.17188 0.401 0.0
O1197 O 0.75218 0.1026 0.3438 0.0
H1198 H 0.77064 0.14796 0.30838 0.0
H1199 H 0.78459 0.09562 0.33166 0.0
H1200 H 0.70928 0.21995 0.3523 0.0
H1201 H 0.70391 0.10607 0.40658 0.0
H1202 H 0.69273 0.22501 0.38212 0.0
H1203 H 0.67233 0.11121 0.39374 0.0
O1204 O 0.75511 0.17253 0.36092 0.0
H1205 H 0.79038 0.09482 0.39797 0.0
H1206 H 0.80295 0.13643 0.34507 0.0
H1207 H 0.82856 0.12757 0.366 0.0
H1208 H 0.82234 0.10662 0.39267 0.0
H1209 H 0.76515 0.10414 0.37677 0.0
H1210 H 0.80262 0.08761 0.30367 0.0
H1211 H 0.80479 0.11022 0.27772 0.0
O1212 O 0.77269 0.15403 0.34299 0.0
C1213 C 0.72806 0.14751 0.32873 0.0
C1214 C 0.78785 0.13065 0.29143 0.0
C1215 C 0.79568 0.1009 0.3046 0.0
N1216 N 0.77669 0.12229 0.3217 0.0
C1217 C 0.77773 0.13477 0.30744 0.0
C1218 C 0.78542 0.10549 0.32039 0.0
C1219 C 0.79689 0.1136 0.29004 0.0
C1220 C 0.71611 0.12831 0.39069 0.0
N1221 N 0.71317 0.14208 0.37798 0.0
C1222 C 0.70149 0.11701 0.39656 0.0
C1223 C 0.68378 0.11988 0.38933 0.0
C1224 C 0.6809 0.13396 0.37638 0.0
C1225 C 0.69585 0.14497 0.3708 0.0
C1226 C 0.70109 0.19871 0.39355 0.0
C1227 C 0.7195 0.19298 0.3603 0.0
C1228 C 0.71106 0.1824 0.39031 0.0
N1229 N 0.72001 0.17967 0.3738 0.0
C1230 C 0.70967 0.20946 0.36305 0.0
C1231 C 0.7004 0.2123 0.3798 0.0
C1232 C 0.76894 0.16974 0.35022 0.0
C1233 C 0.79327 0.10392 0.38636 0.0
C1234 C 0.80013 0.12733 0.35666 0.0
C1235 C 0.81469 0.12233 0.36844 0.0
C1236 C 0.8112 0.11056 0.3834 0.0
N1237 N 0.78259 0.12074 0.35965 0.0
C1238 C 0.77906 0.10918 0.37427 0.0
Co1239 Co 0.37266 0.26164 0.84245 0.0
Co1240 Co 0.34526 0.23412 0.8704 0.0
O1241 O 0.36794 0.24779 0.86515 0.0
C1242 C 0.40344 0.23496 0.84512 0.0
O1243 O 0.39086 0.22203 0.84766 0.0
C1244 C 0.34899 0.26049 0.90136 0.0
O1245 O 0.35133 0.2735 0.88881 0.0
O1246 O 0.32965 0.25558 0.86284 0.0
O1247 O 0.34683 0.27167 0.84233 0.0
H1248 H 0.28083 0.21069 0.8576 0.0
H1249 H 0.39792 0.26582 0.87473 0.0
O1250 O 0.39855 0.25173 0.84233 0.0
H1251 H 0.37333 0.32856 0.86263 0.0
H1252 H 0.41176 0.30096 0.79995 0.0
H1253 H 0.35188 0.26869 0.80762 0.0
H1254 H 0.36413 0.30216 0.84287 0.0
H1255 H 0.40482 0.28373 0.82873 0.0
O1256 O 0.346 0.24377 0.8964 0.0
H1257 H 0.30974 0.22765 0.85061 0.0
H1258 H 0.3323 0.21182 0.90273 0.0
H1259 H 0.35818 0.28587 0.77867 0.0
H1260 H 0.40759 0.29186 0.89475 0.0
H1261 H 0.38831 0.30216 0.7747 0.0
H1262 H 0.39522 0.32349 0.88879 0.0
O1263 O 0.36441 0.24043 0.82685 0.0
H1264 H 0.39827 0.20303 0.90341 0.0
H1265 H 0.34502 0.1937 0.86141 0.0
H1266 H 0.3648 0.16702 0.86972 0.0
H1267 H 0.39164 0.1716 0.89087 0.0
H1268 H 0.37821 0.22935 0.89465 0.0
H1269 H 0.30357 0.19479 0.91036 0.0
H1270 H 0.27761 0.19411 0.88766 0.0
O1271 O 0.34425 0.22439 0.84448 0.0
C1272 C 0.33172 0.26865 0.85107 0.0
C1273 C 0.29207 0.21083 0.86757 0.0
C1274 C 0.30482 0.20193 0.89719 0.0
N1275 N 0.32274 0.22057 0.87618 0.0
C1276 C 0.30849 0.22036 0.86367 0.0
C1277 C 0.32104 0.21162 0.89282 0.0
C1278 C 0.29026 0.20155 0.88445 0.0
C1279 C 0.39262 0.27958 0.87193 0.0
N1280 N 0.38055 0.28248 0.85758 0.0
C1281 C 0.39808 0.29425 0.88336 0.0
C1282 C 0.39112 0.31199 0.88003 0.0
C1283 C 0.37883 0.31484 0.86536 0.0
C1284 C 0.37364 0.29984 0.85423 0.0
C1285 C 0.39857 0.29396 0.80153 0.0
C1286 C 0.36497 0.27585 0.80604 0.0
C1287 C 0.39458 0.28415 0.81778 0.0
N1288 N 0.3779 0.27536 0.8199 0.0
C1289 C 0.36848 0.28551 0.7896 0.0
C1290 C 0.3854 0.29463 0.78737 0.0
C1291 C 0.35254 0.22748 0.82913 0.0
C1292 C 0.38658 0.20084 0.89423 0.0
C1293 C 0.35668 0.19581 0.87061 0.0
C1294 C 0.36782 0.18064 0.87529 0.0
C1295 C 0.38287 0.18322 0.88717 0.0
N1296 N 0.3604 0.21305 0.87762 0.0
C1297 C 0.37512 0.21568 0.88929 0.0
Co1298 Co 0.26367 0.84213 0.37055 0.0
Co1299 Co 0.23516 0.86905 0.34309 0.0
O1300 O 0.24938 0.86452 0.36561 0.0
C1301 C 0.23744 0.84485 0.40172 0.0
O1302 O 0.22432 0.84726 0.38931 0.0
C1303 C 0.26119 0.90044 0.34535 0.0
O1304 O 0.27444 0.88818 0.3478 0.0
O1305 O 0.25637 0.86135 0.3272 0.0
O1306 O 0.27327 0.84169 0.34458 0.0
H1307 H 0.21051 0.85429 0.27953 0.0
H1308 H 0.2677 0.87494 0.39513 0.0
O1309 O 0.25418 0.84228 0.39661 0.0
H1310 H 0.33022 0.86345 0.36973 0.0
H1311 H 0.30435 0.80105 0.40978 0.0
H1312 H 0.27094 0.80702 0.35032 0.0
H1313 H 0.30402 0.84307 0.36134 0.0
H1314 H 0.28653 0.82941 0.40259 0.0
O1315 O 0.24449 0.89515 0.34291 0.0
H1316 H 0.22818 0.84826 0.30824 0.0
H1317 H 0.21218 0.90076 0.32978 0.0
H1318 H 0.2887 0.77848 0.35687 0.0
H1319 H 0.29354 0.89559 0.40398 0.0
H1320 H 0.30557 0.77537 0.38679 0.0
H1321 H 0.32505 0.88993 0.39121 0.0
O1322 O 0.24258 0.82602 0.36298 0.0
H1323 H 0.20484 0.90314 0.39586 0.0
H1324 H 0.19486 0.8596 0.34398 0.0
H1325 H 0.16852 0.86816 0.3641 0.0
H1326 H 0.17343 0.89009 0.39026 0.0
H1327 H 0.23083 0.89411 0.37548 0.0
H1328 H 0.19445 0.90743 0.30124 0.0
H1329 H 0.19348 0.88406 0.2759 0.0
O1330 O 0.22571 0.84302 0.34297 0.0
C1331 C 0.26975 0.84994 0.32931 0.0
C1332 C 0.21077 0.86455 0.2905 0.0
C1333 C 0.20178 0.89439 0.30268 0.0
N1334 N 0.22106 0.87407 0.32072 0.0
C1335 C 0.2207 0.86119 0.30681 0.0
C1336 C 0.21186 0.89055 0.31878 0.0
C1337 C 0.20123 0.88127 0.28846 0.0
C1338 C 0.28142 0.87228 0.38965 0.0
N1339 N 0.28437 0.85775 0.37781 0.0
C1340 C 0.29597 0.88407 0.39466 0.0
C1341 C 0.31365 0.8809 0.38746 0.0
C1342 C 0.31655 0.86605 0.3754 0.0
C1343 C 0.30166 0.85457 0.37068 0.0
C1344 C 0.29709 0.80226 0.39668 0.0
C1345 C 0.27835 0.80581 0.36332 0.0
C1346 C 0.28696 0.81826 0.39255 0.0
N1347 N 0.27784 0.81991 0.37599 0.0
C1348 C 0.28833 0.7896 0.36697 0.0
C1349 C 0.29777 0.78786 0.38377 0.0
C1350 C 0.22925 0.82789 0.35147 0.0
C1351 C 0.20252 0.89362 0.38447 0.0
C1352 C 0.19711 0.86913 0.35534 0.0
C1353 C 0.18214 0.87395 0.36667 0.0
C1354 C 0.1849 0.88627 0.38134 0.0
N1355 N 0.21435 0.87642 0.35849 0.0
C1356 C 0.21716 0.88852 0.37284 0.0
Co1357 Co 0.62704 0.73567 0.84292 0.0
Co1358 Co 0.6551 0.76375 0.86967 0.0
O1359 O 0.63239 0.74981 0.86531 0.0
C1360 C 0.59616 0.7622 0.84619 0.0
O1361 O 0.60872 0.77524 0.84823 0.0
C1362 C 0.65266 0.7376 0.90094 0.0
O1363 O 0.64985 0.72449 0.88859 0.0
O1364 O 0.67067 0.74241 0.86169 0.0
O1365 O 0.65291 0.72583 0.84208 0.0
H1366 H 0.71874 0.78783 0.85434 0.0
H1367 H 0.60285 0.7317 0.87602 0.0
O1368 O 0.60109 0.74542 0.84351 0.0
H1369 H 0.62753 0.669 0.86391 0.0
H1370 H 0.58687 0.69559 0.80217 0.0
H1371 H 0.64674 0.72835 0.80752 0.0
H1372 H 0.63588 0.69523 0.84354 0.0
H1373 H 0.59461 0.71322 0.8305 0.0
O1374 O 0.65543 0.75428 0.89574 0.0
H1375 H 0.68978 0.7705 0.84853 0.0
H1376 H 0.669 0.7864 0.90136 0.0
H1377 H 0.63964 0.71077 0.779 0.0
H1378 H 0.59404 0.70585 0.89667 0.0
H1379 H 0.60951 0.69423 0.7762 0.0
H1380 H 0.60646 0.67424 0.8907 0.0
O1381 O 0.63464 0.75677 0.82682 0.0
H1382 H 0.60298 0.79447 0.90439 0.0
H1383 H 0.65459 0.80412 0.86046 0.0
H1384 H 0.63484 0.83064 0.86933 0.0
H1385 H 0.60882 0.8259 0.89145 0.0
H1386 H 0.62299 0.76831 0.89504 0.0
H1387 H 0.6978 0.80379 0.90782 0.0
H1388 H 0.72288 0.80464 0.88417 0.0
O1389 O 0.65504 0.77333 0.84367 0.0
C1390 C 0.66831 0.72914 0.85019 0.0
C1391 C 0.70788 0.78762 0.86473 0.0
C1392 C 0.69614 0.79656 0.89475 0.0
N1393 N 0.67767 0.77758 0.87453 0.0
C1394 C 0.69144 0.77788 0.86149 0.0
C1395 C 0.67989 0.78666 0.89104 0.0
C1396 C 0.7102 0.79703 0.88148 0.0
C1397 C 0.60816 0.71795 0.87322 0.0
N1398 N 0.61978 0.71496 0.85853 0.0
C1399 C 0.60318 0.70338 0.88501 0.0
C1400 C 0.61018 0.68565 0.88166 0.0
C1401 C 0.62201 0.68271 0.86664 0.0
C1402 C 0.62671 0.69762 0.85517 0.0
C1403 C 0.60006 0.7027 0.80324 0.0
C1404 C 0.63366 0.72108 0.80645 0.0
C1405 C 0.6045 0.71273 0.81923 0.0
N1406 N 0.62117 0.72166 0.82071 0.0
C1407 C 0.62969 0.7112 0.79024 0.0
C1408 C 0.61277 0.70194 0.78868 0.0
C1409 C 0.64634 0.76994 0.82861 0.0
C1410 C 0.61431 0.79672 0.89478 0.0
C1411 C 0.64328 0.80194 0.87008 0.0
C1412 C 0.63216 0.81702 0.87508 0.0
C1413 C 0.61758 0.81435 0.8875 0.0
N1414 N 0.64 0.7847 0.8773 0.0
C1415 C 0.62574 0.78198 0.8895 0.0
H1416 H 0.15645 0.56738 0.26028 0.0
H1417 H 0.15438 0.53444 0.25297 0.0
H1418 H 0.14369 0.54748 0.19554 0.0
H1419 H 0.14575 0.58077 0.20269 0.0
H1420 H 0.12148 0.51673 0.23487 0.0
H1421 H 0.1883 0.50855 0.19656 0.0
H1422 H 0.18471 0.52747 0.21263 0.0
H1423 H 0.17293 0.52743 0.19072 0.0
C1424 C 0.15374 0.56333 0.24605 0.0
C1425 C 0.1513 0.57671 0.23205 0.0
C1426 C 0.15254 0.54449 0.24192 0.0
C1427 C 0.14896 0.53862 0.22373 0.0
C1428 C 0.14662 0.55183 0.20963 0.0
H1429 H 0.14891 0.41792 0.20099 0.0
H1430 H 0.14563 0.4513 0.19474 0.0
C1431 C 0.14778 0.57079 0.21376 0.0
C1432 C 0.14734 0.51855 0.22001 0.0
H1433 H 0.17237 0.48129 0.2049 0.0
C1434 C 0.13239 0.50898 0.22797 0.0
C1435 C 0.16155 0.50859 0.21089 0.0
C1436 C 0.17786 0.51841 0.2022 0.0
C1437 C 0.13182 0.48955 0.22799 0.0
C1438 C 0.14671 0.47954 0.22011 0.0
C1439 C 0.16102 0.48909 0.21099 0.0
C1440 C 0.14883 0.45945 0.22345 0.0
C1441 C 0.11567 0.47986 0.23716 0.0
C1442 C 0.15205 0.45318 0.24157 0.0
C1443 C 0.15404 0.4343 0.24518 0.0
C1444 C 0.15285 0.42128 0.23069 0.0
C1445 C 0.14987 0.42762 0.21244 0.0
C1446 C 0.14798 0.44662 0.20883 0.0
H1447 H 0.1032 0.48892 0.23767 0.0
H1448 H 0.11209 0.46683 0.22972 0.0
H1449 H 0.1195 0.47622 0.25163 0.0
H1450 H 0.15303 0.46295 0.25298 0.0
H1451 H 0.15636 0.42992 0.25938 0.0
H1452 H 0.92946 0.66018 0.75958 0.0
H1453 H 0.96262 0.65773 0.75349 0.0
H1454 H 0.9515 0.6446 0.69617 0.0
H1455 H 0.91801 0.64702 0.70209 0.0
H1456 H 0.98047 0.62381 0.7375 0.0
H1457 H 0.99099 0.68875 0.69658 0.0
H1458 H 0.97151 0.68611 0.71215 0.0
H1459 H 0.97205 0.67345 0.69075 0.0
C1460 C 0.93398 0.65687 0.74562 0.0
C1461 C 0.92108 0.65381 0.7313 0.0
C1462 C 0.95294 0.65547 0.74219 0.0
C1463 C 0.95941 0.65107 0.7244 0.0
C1464 C 0.94669 0.64817 0.70996 0.0
H1465 H 0.08006 0.64741 0.70297 0.0
H1466 H 0.04659 0.6451 0.69694 0.0
C1467 C 0.92761 0.64954 0.71338 0.0
C1468 C 0.97956 0.64902 0.72146 0.0
H1469 H 0.01769 0.67248 0.70599 0.0
C1470 C 0.98862 0.63425 0.73032 0.0
C1471 C 0.99004 0.6626 0.71195 0.0
C1472 C 0.98078 0.67871 0.70231 0.0
C1473 C 0.00801 0.63321 0.73074 0.0
C1474 C 0.01853 0.64749 0.72236 0.0
C1475 C 0.0095 0.66162 0.71246 0.0
C1476 C 0.03869 0.64905 0.72563 0.0
C1477 C 0.01711 0.61719 0.7407 0.0
C1478 C 0.04516 0.65238 0.74367 0.0
C1479 C 0.06412 0.65379 0.74716 0.0
C1480 C 0.077 0.65194 0.73262 0.0
C1481 C 0.07047 0.64888 0.71446 0.0
C1482 C 0.05141 0.64754 0.71098 0.0
H1483 H 0.00772 0.60498 0.74152 0.0
H1484 H 0.03017 0.61298 0.73367 0.0
H1485 H 0.02057 0.62148 0.75509 0.0
H1486 H 0.03549 0.6539 0.7551 0.0
H1487 H 0.06865 0.65622 0.76129 0.0
H1488 H 0.85053 0.41863 0.20289 0.0
H1489 H 0.8525 0.45212 0.19674 0.0
H1490 H 0.84567 0.46327 0.25515 0.0
H1491 H 0.84368 0.43012 0.26145 0.0
H1492 H 0.82507 0.48092 0.20702 0.0
H1493 H 0.89398 0.49133 0.23956 0.0
H1494 H 0.88587 0.46887 0.23186 0.0
H1495 H 0.87823 0.47818 0.25373 0.0
C1496 C 0.84944 0.42824 0.2144 0.0
C1497 C 0.84699 0.42173 0.23267 0.0
C1498 C 0.85057 0.44731 0.21085 0.0
C1499 C 0.8495 0.46005 0.22553 0.0
C1500 C 0.84683 0.45359 0.24369 0.0
H1501 H 0.83793 0.56863 0.2609 0.0
H1502 H 0.84045 0.53555 0.25425 0.0
C1503 C 0.8456 0.43463 0.24724 0.0
C1504 C 0.85079 0.48022 0.22222 0.0
H1505 H 0.87466 0.51843 0.23668 0.0
C1506 C 0.83612 0.48918 0.21305 0.0
C1507 C 0.86531 0.49083 0.23004 0.0
C1508 C 0.88184 0.48181 0.2392 0.0
C1509 C 0.83491 0.50864 0.21278 0.0
C1510 C 0.84876 0.51918 0.22181 0.0
C1511 C 0.86402 0.51022 0.22988 0.0
C1512 C 0.84657 0.53926 0.2251 0.0
C1513 C 0.81829 0.51782 0.20397 0.0
C1514 C 0.84912 0.55222 0.21081 0.0
C1515 C 0.84772 0.57124 0.21456 0.0
C1516 C 0.84375 0.57746 0.23265 0.0
C1517 C 0.84099 0.56433 0.24682 0.0
C1518 C 0.84244 0.54542 0.24307 0.0
H1519 H 0.8083 0.50756 0.19825 0.0
H1520 H 0.81103 0.52659 0.21435 0.0
H1521 H 0.82296 0.52704 0.19254 0.0
H1522 H 0.85246 0.54764 0.19688 0.0
H1523 H 0.84999 0.58102 0.20337 0.0
H1524 H 0.07 0.34201 0.76299 0.0
H1525 H 0.03691 0.34423 0.7564 0.0
H1526 H 0.04872 0.35389 0.69852 0.0
H1527 H 0.08212 0.35167 0.70495 0.0
H1528 H 0.01897 0.37683 0.73837 0.0
H1529 H 0.00962 0.3097 0.70085 0.0
H1530 H 0.02896 0.31346 0.71636 0.0
H1531 H 0.02838 0.3249 0.69428 0.0
C1532 C 0.06564 0.34452 0.74882 0.0
C1533 C 0.0787 0.34662 0.73447 0.0
C1534 C 0.04672 0.34581 0.7451 0.0
C1535 C 0.04046 0.34913 0.72699 0.0
C1536 C 0.05336 0.35115 0.71256 0.0
H1537 H 0.91996 0.35051 0.70423 0.0
H1538 H 0.95344 0.35304 0.69832 0.0
C1539 C 0.07239 0.3499 0.71627 0.0
C1540 C 0.02034 0.35084 0.72367 0.0
H1541 H 0.98265 0.32622 0.70895 0.0
C1542 C 0.01102 0.36596 0.73163 0.0
C1543 C 0.01012 0.33668 0.71473 0.0
C1544 C 0.01966 0.32018 0.70607 0.0
C1545 C 0.99161 0.3668 0.73176 0.0
C1546 C 0.98135 0.352 0.724 0.0
C1547 C 0.99065 0.33748 0.71495 0.0
C1548 C 0.9612 0.35032 0.72719 0.0
C1549 C 0.98221 0.38318 0.74081 0.0
C1550 C 0.95466 0.34762 0.74531 0.0
C1551 C 0.9357 0.34607 0.74872 0.0
C1552 C 0.92289 0.34716 0.73405 0.0
C1553 C 0.92949 0.34963 0.71582 0.0
C1554 C 0.94856 0.35109 0.71241 0.0
H1555 H 0.99147 0.39552 0.74118 0.0
H1556 H 0.96923 0.38691 0.73338 0.0
H1557 H 0.97856 0.37954 0.75533 0.0
H1558 H 0.96427 0.34669 0.75684 0.0
H1559 H 0.93111 0.34414 0.76291 0.0
H1560 H 0.15091 0.41817 0.79568 0.0
H1561 H 0.14795 0.4516 0.8017 0.0
H1562 H 0.15446 0.46273 0.74325 0.0
H1563 H 0.15748 0.42962 0.73707 0.0
H1564 H 0.17473 0.48148 0.79062 0.0
H1565 H 0.10476 0.4888 0.75944 0.0
H1566 H 0.11381 0.46682 0.7675 0.0
H1567 H 0.12077 0.4759 0.74532 0.0
C1568 C 0.15177 0.42776 0.78413 0.0
C1569 C 0.1544 0.42125 0.76589 0.0
C1570 C 0.15006 0.4468 0.78761 0.0
C1571 C 0.15074 0.45949 0.77287 0.0
C1572 C 0.15364 0.45306 0.75475 0.0
H1573 H 0.15678 0.56784 0.73592 0.0
H1574 H 0.155 0.53481 0.74297 0.0
C1575 C 0.15544 0.43413 0.75127 0.0
C1576 C 0.1487 0.4796 0.77608 0.0
H1577 H 0.12296 0.51665 0.76185 0.0
C1578 C 0.16321 0.48923 0.78479 0.0
C1579 C 0.13358 0.48953 0.76852 0.0
C1580 C 0.11724 0.47974 0.75982 0.0
C1581 C 0.16367 0.50872 0.78481 0.0
C1582 C 0.14918 0.5186 0.77604 0.0
C1583 C 0.13408 0.50895 0.76847 0.0
C1584 C 0.15054 0.5387 0.77241 0.0
C1585 C 0.18017 0.51862 0.79307 0.0
C1586 C 0.14861 0.55177 0.7867 0.0
C1587 C 0.14961 0.57076 0.78272 0.0
C1588 C 0.15255 0.57686 0.76439 0.0
C1589 C 0.15454 0.56364 0.75018 0.0
C1590 C 0.1535 0.54475 0.75417 0.0
H1591 H 0.19089 0.50881 0.79824 0.0
H1592 H 0.18657 0.52788 0.78253 0.0
H1593 H 0.17553 0.52744 0.80481 0.0
H1594 H 0.14616 0.54728 0.80084 0.0
H1595 H 0.14794 0.58062 0.79395 0.0
H1596 H 0.91664 0.6451 0.29499 0.0
H1597 H 0.95002 0.64249 0.30144 0.0
H1598 H 0.96207 0.65424 0.244 0.0
H1599 H 0.92902 0.65685 0.23739 0.0
H1600 H 0.97988 0.62107 0.26065 0.0
H1601 H 0.98926 0.68644 0.30115 0.0
H1602 H 0.97054 0.67093 0.3071 0.0
H1603 H 0.96987 0.68335 0.28555 0.0
C1604 C 0.92642 0.64725 0.28377 0.0
C1605 C 0.92019 0.65123 0.26568 0.0
C1606 C 0.94544 0.64578 0.2875 0.0
C1607 C 0.9584 0.64827 0.27319 0.0
C1608 C 0.95221 0.65229 0.2552 0.0
H1609 H 0.06744 0.65511 0.23721 0.0
H1610 H 0.03434 0.65214 0.2434 0.0
C1611 C 0.93332 0.6538 0.25147 0.0
C1612 C 0.97851 0.64636 0.27651 0.0
H1613 H 0.01621 0.67032 0.29228 0.0
C1614 C 0.98783 0.63162 0.26788 0.0
C1615 C 0.98874 0.6601 0.28608 0.0
C1616 C 0.97921 0.67618 0.2955 0.0
C1617 C 0.00724 0.6308 0.26767 0.0
C1618 C 0.01751 0.64525 0.27607 0.0
C1619 C 0.00822 0.65933 0.2858 0.0
C1620 C 0.03764 0.64714 0.27283 0.0
C1621 C 0.01664 0.61486 0.25787 0.0
C1622 C 0.05039 0.64575 0.28746 0.0
C1623 C 0.06943 0.64744 0.28398 0.0
C1624 C 0.07589 0.65078 0.26584 0.0
C1625 C 0.06297 0.6525 0.25133 0.0
C1626 C 0.04404 0.65072 0.25481 0.0
H1627 H 0.00741 0.60253 0.25699 0.0
H1628 H 0.02021 0.61915 0.24351 0.0
H1629 H 0.02967 0.61084 0.26507 0.0
H1630 H 0.04563 0.64312 0.30148 0.0
H1631 H 0.07906 0.64605 0.29545 0.0
H1632 H 0.84141 0.56925 0.73572 0.0
H1633 H 0.84388 0.53621 0.74244 0.0
H1634 H 0.85426 0.54833 0.80012 0.0
H1635 H 0.8518 0.58172 0.79356 0.0
H1636 H 0.87705 0.51862 0.76048 0.0
H1637 H 0.81005 0.50885 0.79809 0.0
H1638 H 0.81348 0.52804 0.78231 0.0
H1639 H 0.82507 0.52789 0.80432 0.0
C1640 C 0.84413 0.56498 0.74988 0.0
C1641 C 0.84637 0.57812 0.76412 0.0
C1642 C 0.84556 0.54608 0.75367 0.0
C1643 C 0.84917 0.53992 0.77175 0.0
C1644 C 0.85131 0.5529 0.7861 0.0
H1645 H 0.85062 0.41926 0.79395 0.0
H1646 H 0.85316 0.4527 0.80012 0.0
C1647 C 0.84993 0.57192 0.78231 0.0
C1648 C 0.85104 0.51982 0.77513 0.0
H1649 H 0.82654 0.48196 0.78963 0.0
C1650 C 0.86621 0.51059 0.76718 0.0
C1651 C 0.83692 0.5095 0.78401 0.0
C1652 C 0.82038 0.51895 0.79268 0.0
C1653 C 0.86714 0.49118 0.76697 0.0
C1654 C 0.85236 0.48082 0.77464 0.0
C1655 C 0.83779 0.49003 0.78371 0.0
C1656 C 0.85072 0.46067 0.77129 0.0
C1657 C 0.88359 0.48188 0.75794 0.0
C1658 C 0.84817 0.45426 0.7531 0.0
C1659 C 0.8466 0.43533 0.74953 0.0
C1660 C 0.84754 0.42241 0.76412 0.0
C1661 C 0.84986 0.42888 0.78242 0.0
C1662 C 0.85133 0.44793 0.78598 0.0
H1663 H 0.8959 0.49117 0.75774 0.0
H1664 H 0.88729 0.46883 0.76526 0.0
H1665 H 0.88005 0.47839 0.74336 0.0
H1666 H 0.84735 0.46396 0.74162 0.0
H1667 H 0.84479 0.43084 0.73529 0.0
H1668 H 0.93137 0.34246 0.23619 0.0
H1669 H 0.96443 0.34532 0.2427 0.0
H1670 H 0.95253 0.35573 0.30043 0.0
H1671 H 0.91917 0.35287 0.29408 0.0
H1672 H 0.98209 0.37832 0.26008 0.0
H1673 H 0.99206 0.31207 0.29897 0.0
H1674 H 0.97261 0.31538 0.28349 0.0
H1675 H 0.97323 0.32726 0.30534 0.0
C1676 C 0.93571 0.34527 0.25031 0.0
C1677 C 0.92263 0.34738 0.26464 0.0
C1678 C 0.95461 0.34694 0.25398 0.0
C1679 C 0.96084 0.35064 0.27203 0.0
C1680 C 0.94793 0.35269 0.28644 0.0
H1681 H 0.0815 0.35204 0.29422 0.0
H1682 H 0.0481 0.35522 0.30035 0.0
C1683 C 0.92891 0.35107 0.28277 0.0
C1684 C 0.98095 0.35263 0.27532 0.0
H1685 H 0.01886 0.32864 0.2905 0.0
C1686 C 0.99014 0.36766 0.26704 0.0
C1687 C 0.9913 0.33877 0.28456 0.0
C1688 C 0.98192 0.32237 0.2936 0.0
C1689 C 0.00954 0.36866 0.26686 0.0
C1690 C 0.01994 0.3541 0.2749 0.0
C1691 C 0.01077 0.33972 0.2843 0.0
C1692 C 0.04008 0.3524 0.27156 0.0
C1693 C 0.01879 0.38494 0.25747 0.0
C1694 C 0.04645 0.34947 0.25342 0.0
C1695 C 0.06535 0.34754 0.24988 0.0
C1696 C 0.07829 0.34848 0.26446 0.0
C1697 C 0.07186 0.35128 0.2827 0.0
C1698 C 0.05284 0.35311 0.28624 0.0
H1699 H 0.0095 0.39724 0.25707 0.0
H1700 H 0.03187 0.3888 0.26466 0.0
H1701 H 0.02222 0.38111 0.24294 0.0
H1702 H 0.03675 0.34856 0.24196 0.0
H1703 H 0.0698 0.34537 0.23568 0.0
H1704 H 0.25993 0.15719 0.56829 0.0
H1705 H 0.25349 0.15462 0.53519 0.0
H1706 H 0.19621 0.1419 0.54695 0.0
H1707 H 0.20249 0.14443 0.58038 0.0
H1708 H 0.23684 0.12069 0.51753 0.0
H1709 H 0.19675 0.1862 0.50745 0.0
H1710 H 0.21258 0.18343 0.5267 0.0
H1711 H 0.19104 0.17099 0.5265 0.0
C1712 C 0.24591 0.15394 0.56392 0.0
C1713 C 0.2317 0.15104 0.57698 0.0
C1714 C 0.24228 0.15246 0.545 0.0
C1715 C 0.22439 0.14815 0.53872 0.0
C1716 C 0.21007 0.14539 0.55161 0.0
H1717 H 0.20292 0.14574 0.41795 0.0
H1718 H 0.19666 0.14305 0.45136 0.0
C1719 C 0.2137 0.14682 0.57065 0.0
C1720 C 0.22122 0.14614 0.5186 0.0
H1721 H 0.206 0.17001 0.48063 0.0
C1722 C 0.22978 0.13126 0.50945 0.0
C1723 C 0.21187 0.1599 0.50822 0.0
C1724 C 0.20252 0.17611 0.51759 0.0
C1725 C 0.23012 0.1303 0.49004 0.0
C1726 C 0.22196 0.14477 0.47961 0.0
C1727 C 0.2123 0.159 0.48874 0.0
C1728 C 0.22535 0.14648 0.45948 0.0
C1729 C 0.2398 0.11418 0.48083 0.0
C1730 C 0.24347 0.14965 0.45316 0.0
C1731 C 0.24708 0.15129 0.43424 0.0
C1732 C 0.2326 0.14983 0.42125 0.0
C1733 C 0.21436 0.14691 0.42763 0.0
C1734 C 0.21075 0.14535 0.44666 0.0
H1735 H 0.24038 0.10188 0.49013 0.0
H1736 H 0.23272 0.11019 0.46773 0.0
H1737 H 0.25427 0.11824 0.47744 0.0
H1738 H 0.25485 0.15088 0.46291 0.0
H1739 H 0.26127 0.15358 0.42983 0.0
H1740 H 0.35274 0.70363 0.91876 0.0
H1741 H 0.35107 0.69613 0.95196 0.0
H1742 H 0.32834 0.75038 0.96308 0.0
H1743 H 0.32984 0.75797 0.93016 0.0
H1744 H 0.36881 0.71609 0.98117 0.0
H1745 H 0.29257 0.71494 0.99021 0.0
H1746 H 0.30357 0.71273 0.96777 0.0
H1747 H 0.30042 0.73526 0.97811 0.0
C1748 C 0.3472 0.71388 0.92828 0.0
C1749 C 0.34136 0.73137 0.92185 0.0
C1750 C 0.34628 0.70956 0.9472 0.0
C1751 C 0.33927 0.72258 0.95986 0.0
C1752 C 0.3334 0.74 0.95345 0.0
H1753 H 0.33263 0.75845 0.06857 0.0
H1754 H 0.33141 0.75088 0.03564 0.0
C1755 C 0.33441 0.74436 0.93464 0.0
C1756 C 0.33907 0.71872 0.98 0.0
H1757 H 0.31069 0.72095 0.0178 0.0
C1758 C 0.3561 0.71665 0.98922 0.0
C1759 C 0.32243 0.71936 0.99036 0.0
C1760 C 0.3037 0.7205 0.98109 0.0
C1761 C 0.35703 0.71673 0.00868 0.0
C1762 C 0.34048 0.71874 0.01902 0.0
C1763 C 0.32336 0.71952 0.00978 0.0
C1764 C 0.3408 0.72257 0.03915 0.0
C1765 C 0.37575 0.71599 0.01805 0.0
C1766 C 0.34636 0.70905 0.05201 0.0
C1767 C 0.34709 0.71334 0.07095 0.0
C1768 C 0.34228 0.73121 0.07721 0.0
C1769 C 0.3365 0.74458 0.06423 0.0
C1770 C 0.33573 0.74027 0.04541 0.0
H1771 H 0.38737 0.71639 0.00791 0.0
H1772 H 0.37729 0.72781 0.02783 0.0
H1773 H 0.37687 0.70297 0.02621 0.0
H1774 H 0.35017 0.69526 0.0474 0.0
H1775 H 0.35159 0.70274 0.08063 0.0
H1776 H 0.79466 0.85838 0.41803 0.0
H1777 H 0.80179 0.85752 0.45138 0.0
H1778 H 0.74705 0.83603 0.46252 0.0
H1779 H 0.73982 0.83676 0.42951 0.0
H1780 H 0.78136 0.87592 0.48077 0.0
H1781 H 0.78246 0.79958 0.48948 0.0
H1782 H 0.78512 0.81071 0.46715 0.0
H1783 H 0.76241 0.8076 0.47706 0.0
C1784 C 0.7842 0.85337 0.4276 0.0
C1785 C 0.76671 0.84756 0.42114 0.0
C1786 C 0.7883 0.8529 0.4466 0.0
C1787 C 0.77505 0.8464 0.45929 0.0
C1788 C 0.75758 0.84073 0.45287 0.0
H1789 H 0.73844 0.83903 0.56762 0.0
H1790 H 0.7461 0.8387 0.53469 0.0
C1791 C 0.75344 0.84128 0.434 0.0
C1792 C 0.77884 0.84618 0.47944 0.0
H1793 H 0.77642 0.81759 0.51708 0.0
C1794 C 0.78079 0.86317 0.48875 0.0
C1795 C 0.77819 0.82948 0.48971 0.0
C1796 C 0.77712 0.81079 0.48033 0.0
C1797 C 0.78057 0.86399 0.50823 0.0
C1798 C 0.77852 0.84738 0.51846 0.0
C1799 C 0.77788 0.8303 0.50913 0.0
C1800 C 0.77452 0.84756 0.53855 0.0
C1801 C 0.78123 0.88265 0.51773 0.0
C1802 C 0.78806 0.85258 0.55161 0.0
C1803 C 0.78374 0.85278 0.57055 0.0
C1804 C 0.76581 0.84796 0.57663 0.0
C1805 C 0.75237 0.84286 0.56344 0.0
C1806 C 0.75672 0.84261 0.5446 0.0
H1807 H 0.78121 0.89434 0.50767 0.0
H1808 H 0.76915 0.88421 0.52718 0.0
H1809 H 0.794 0.8836 0.52628 0.0
H1810 H 0.80193 0.8563 0.54714 0.0
H1811 H 0.79438 0.85678 0.58039 0.0
H1812 H 0.65929 0.2388 0.06666 0.0
H1813 H 0.6575 0.24596 0.03368 0.0
H1814 H 0.64504 0.3031 0.04636 0.0
H1815 H 0.64679 0.2961 0.07971 0.0
H1816 H 0.62384 0.26355 0.01587 0.0
H1817 H 0.69026 0.30252 0.00749 0.0
H1818 H 0.68709 0.28619 0.02627 0.0
H1819 H 0.67493 0.30787 0.02655 0.0
C1820 C 0.65626 0.25293 0.06253 0.0
C1821 C 0.6532 0.26689 0.07582 0.0
C1822 C 0.65523 0.25698 0.04367 0.0
C1823 C 0.65121 0.27504 0.03768 0.0
C1824 C 0.6483 0.28911 0.0508 0.0
H1825 H 0.64904 0.29532 0.91643 0.0
H1826 H 0.64633 0.30247 0.94968 0.0
C1827 C 0.64929 0.28507 0.06979 0.0
C1828 C 0.6496 0.2786 0.0176 0.0
H1829 H 0.67471 0.29334 0.98024 0.0
C1830 C 0.63472 0.27045 0.00807 0.0
C1831 C 0.66379 0.28769 0.00757 0.0
C1832 C 0.68 0.29659 0.01737 0.0
C1833 C 0.63424 0.27015 0.98865 0.0
C1834 C 0.64914 0.278 0.97861 0.0
C1835 C 0.66336 0.28732 0.98808 0.0
C1836 C 0.65137 0.27426 0.95861 0.0
C1837 C 0.61827 0.26066 0.97899 0.0
C1838 C 0.65545 0.25615 0.95283 0.0
C1839 C 0.6571 0.25204 0.93403 0.0
C1840 C 0.6547 0.26599 0.9206 0.0
C1841 C 0.65096 0.28427 0.92645 0.0
C1842 C 0.64939 0.28839 0.94538 0.0
H1843 H 0.60585 0.25978 0.98809 0.0
H1844 H 0.61447 0.26811 0.96603 0.0
H1845 H 0.62245 0.24632 0.9752 0.0
H1846 H 0.65723 0.24513 0.96292 0.0
H1847 H 0.66004 0.23784 0.93004 0.0
H1848 H 0.26152 0.84119 0.43062 0.0
H1849 H 0.25477 0.84379 0.46366 0.0
H1850 H 0.19702 0.85364 0.45145 0.0
H1851 H 0.20361 0.85106 0.4181 0.0
H1852 H 0.23644 0.87689 0.48111 0.0
H1853 H 0.19932 0.80962 0.49107 0.0
H1854 H 0.21509 0.8131 0.47188 0.0
H1855 H 0.193 0.82452 0.47198 0.0
C1856 C 0.24734 0.84382 0.43488 0.0
C1857 C 0.23308 0.84588 0.42172 0.0
C1858 C 0.24353 0.84533 0.45377 0.0
C1859 C 0.22541 0.84882 0.4599 0.0
C1860 C 0.21106 0.85078 0.4469 0.0
H1861 H 0.20398 0.8507 0.5808 0.0
H1862 H 0.19735 0.85335 0.54744 0.0
C1863 C 0.21487 0.84932 0.42791 0.0
C1864 C 0.22199 0.85075 0.47998 0.0
H1865 H 0.20767 0.82625 0.5179 0.0
C1866 C 0.22981 0.86602 0.48916 0.0
C1867 C 0.2132 0.8366 0.49033 0.0
C1868 C 0.20466 0.81995 0.48094 0.0
C1869 C 0.23001 0.867 0.50857 0.0
C1870 C 0.22246 0.85219 0.51896 0.0
C1871 C 0.21348 0.83753 0.50981 0.0
C1872 C 0.22603 0.85053 0.53906 0.0
C1873 C 0.23898 0.88351 0.51783 0.0
C1874 C 0.24427 0.84774 0.5452 0.0
C1875 C 0.24809 0.84611 0.56407 0.0
C1876 C 0.23371 0.84722 0.5772 0.0
C1877 C 0.21536 0.84981 0.57101 0.0
C1878 C 0.21153 0.85134 0.55201 0.0
H1879 H 0.23918 0.8958 0.50851 0.0
H1880 H 0.23161 0.88723 0.53085 0.0
H1881 H 0.25355 0.88 0.52139 0.0
H1882 H 0.25559 0.8468 0.53533 0.0
H1883 H 0.26237 0.8441 0.56833 0.0
H1884 H 0.65077 0.76283 0.06807 0.0
H1885 H 0.64818 0.75641 0.035 0.0
H1886 H 0.64203 0.69797 0.04643 0.0
H1887 H 0.64463 0.70424 0.07985 0.0
H1888 H 0.66894 0.70789 0.0177 0.0
H1889 H 0.60036 0.74082 0.00676 0.0
H1890 H 0.6161 0.75519 0.01969 0.0
H1891 H 0.60842 0.73348 0.02936 0.0
C1892 C 0.64882 0.74859 0.06364 0.0
C1893 C 0.64788 0.73403 0.0766 0.0
C1894 C 0.64723 0.74497 0.04472 0.0
C1895 C 0.64463 0.72678 0.03835 0.0
C1896 C 0.64388 0.71213 0.05116 0.0
H1897 H 0.64542 0.70404 0.91748 0.0
H1898 H 0.64237 0.69776 0.95085 0.0
C1899 C 0.64537 0.71574 0.0702 0.0
C1900 C 0.64338 0.72335 0.01819 0.0
H1901 H 0.61993 0.73795 0.97976 0.0
C1902 C 0.658 0.714 0.00936 0.0
C1903 C 0.62901 0.73128 0.00745 0.0
C1904 C 0.61248 0.7406 0.0163 0.0
C1905 C 0.65937 0.71368 0.98991 0.0
C1906 C 0.6457 0.72282 0.97924 0.0
C1907 C 0.63044 0.73106 0.98806 0.0
C1908 C 0.64809 0.72603 0.95916 0.0
C1909 C 0.67597 0.70467 0.98089 0.0
C1910 C 0.65229 0.74397 0.95296 0.0
C1911 C 0.65408 0.74761 0.93406 0.0
C1912 C 0.65159 0.73335 0.92097 0.0
C1913 C 0.6475 0.7153 0.92724 0.0
C1914 C 0.64576 0.71166 0.94624 0.0
H1915 H 0.68591 0.69903 0.99125 0.0
H1916 H 0.67128 0.69314 0.97181 0.0
H1917 H 0.68331 0.7149 0.972 0.0
H1918 H 0.65411 0.75522 0.96279 0.0
H1919 H 0.65721 0.76167 0.92973 0.0
H1920 H 0.739 0.16717 0.5681 0.0
H1921 H 0.74591 0.16824 0.535 0.0
H1922 H 0.80157 0.149 0.54568 0.0
H1923 H 0.79476 0.14772 0.57904 0.0
H1924 H 0.77544 0.18855 0.51636 0.0
H1925 H 0.77953 0.11178 0.50693 0.0
H1926 H 0.7687 0.12209 0.52705 0.0
H1927 H 0.79349 0.12224 0.52482 0.0
C1928 C 0.75274 0.16318 0.56348 0.0
C1929 C 0.76632 0.15729 0.57619 0.0
C1930 C 0.75667 0.16386 0.54456 0.0
C1931 C 0.77418 0.15858 0.53796 0.0
C1932 C 0.78791 0.15295 0.55056 0.0
H1933 H 0.79298 0.14594 0.41767 0.0
H1934 H 0.80027 0.14781 0.45091 0.0
C1935 C 0.78401 0.1523 0.56958 0.0
C1936 C 0.77763 0.15876 0.51776 0.0
H1937 H 0.78009 0.13018 0.48007 0.0
C1938 C 0.77679 0.17582 0.50842 0.0
C1939 C 0.77953 0.14213 0.50751 0.0
C1940 C 0.78029 0.12346 0.51698 0.0
C1941 C 0.77687 0.17663 0.48899 0.0
C1942 C 0.7775 0.15992 0.47872 0.0
C1943 C 0.77955 0.14294 0.48805 0.0
C1944 C 0.77375 0.15961 0.45857 0.0
C1945 C 0.77572 0.19531 0.47959 0.0
C1946 C 0.75637 0.16541 0.45202 0.0
C1947 C 0.75213 0.16428 0.43319 0.0
C1948 C 0.76521 0.15728 0.42052 0.0
C1949 C 0.78267 0.1515 0.42709 0.0
C1950 C 0.78686 0.15255 0.44603 0.0
H1951 H 0.78121 0.20651 0.48867 0.0
H1952 H 0.78355 0.19537 0.46631 0.0
H1953 H 0.76097 0.19853 0.47653 0.0
H1954 H 0.74592 0.17052 0.46156 0.0
H1955 H 0.73855 0.16881 0.4286 0.0
H1956 H 0.35634 0.29645 0.08018 0.0
H1957 H 0.35931 0.30275 0.04679 0.0
H1958 H 0.34824 0.24514 0.03491 0.0
H1959 H 0.34527 0.23868 0.06795 0.0
H1960 H 0.38145 0.26234 0.01715 0.0
H1961 H 0.31528 0.30141 0.00739 0.0
H1962 H 0.33059 0.3076 0.0262 0.0
H1963 H 0.31851 0.28586 0.02679 0.0
C1964 C 0.35446 0.28516 0.07043 0.0
C1965 C 0.35051 0.26707 0.07671 0.0
C1966 C 0.35614 0.2888 0.05141 0.0
C1967 C 0.3539 0.27441 0.03849 0.0
C1968 C 0.35 0.25641 0.04473 0.0
H1969 H 0.34729 0.23637 0.9304 0.0
H1970 H 0.35068 0.24332 0.96332 0.0
C1971 C 0.34827 0.25277 0.06362 0.0
C1972 C 0.35581 0.27764 0.01837 0.0
H1973 H 0.33135 0.29221 0.98052 0.0
C1974 C 0.37072 0.26922 0.00913 0.0
C1975 C 0.34183 0.28674 0.00804 0.0
C1976 C 0.32557 0.29593 0.01749 0.0
C1977 C 0.37146 0.2687 0.98972 0.0
C1978 C 0.35676 0.27655 0.97937 0.0
C1979 C 0.34253 0.28614 0.98857 0.0
C1980 C 0.35477 0.27281 0.95933 0.0
C1981 C 0.38758 0.2591 0.98041 0.0
C1982 C 0.35553 0.28721 0.94626 0.0
C1983 C 0.35359 0.28329 0.92733 0.0
C1984 C 0.35063 0.26493 0.9213 0.0
C1985 C 0.34959 0.25064 0.93455 0.0
C1986 C 0.35162 0.25456 0.95336 0.0
H1987 H 0.39999 0.25878 0.98956 0.0
H1988 H 0.38365 0.24454 0.97724 0.0
H1989 H 0.3913 0.26608 0.96718 0.0
H1990 H 0.35781 0.3014 0.95069 0.0
H1991 H 0.35445 0.29459 0.91745 0.0
H1992 H 0.58146 0.20318 0.14312 0.0
H1993 H 0.54819 0.19582 0.14408 0.0
H1994 H 0.53643 0.25138 0.16302 0.0
H1995 H 0.56939 0.25884 0.16223 0.0
H1996 H 0.51874 0.221 0.18368 0.0
H1997 H 0.50852 0.2174 0.10698 0.0
H1998 H 0.52703 0.20413 0.11728 0.0
H1999 H 0.52832 0.22898 0.1171 0.0
C2000 C 0.57177 0.2138 0.14753 0.0
C2001 C 0.57805 0.2316 0.15257 0.0
C2002 C 0.55281 0.20958 0.148 0.0
C2003 C 0.53994 0.22311 0.15352 0.0
C2004 C 0.5462 0.24077 0.15873 0.0
H2005 H 0.43108 0.25819 0.16564 0.0
H2006 H 0.46404 0.25075 0.16636 0.0
C2007 C 0.56505 0.24501 0.15821 0.0
C2008 C 0.51982 0.21926 0.15386 0.0
H2009 H 0.48184 0.21695 0.12566 0.0
C2010 C 0.51067 0.21974 0.17103 0.0
C2011 C 0.50941 0.21748 0.13732 0.0
C2012 C 0.5187 0.21702 0.11856 0.0
C2013 C 0.49126 0.21952 0.17205 0.0
C2014 C 0.48081 0.21911 0.15545 0.0
C2015 C 0.48995 0.21733 0.13834 0.0
C2016 C 0.46068 0.22296 0.15545 0.0
C2017 C 0.48207 0.22038 0.19085 0.0
C2018 C 0.44792 0.20989 0.1487 0.0
C2019 C 0.42896 0.21411 0.14824 0.0
C2020 C 0.42259 0.23156 0.15431 0.0
C2021 C 0.4355 0.24461 0.16091 0.0
C2022 C 0.45434 0.24035 0.16146 0.0
H2023 H 0.4913 0.21481 0.20187 0.0
H2024 H 0.47895 0.23508 0.19428 0.0
H2025 H 0.46883 0.21248 0.19095 0.0
H2026 H 0.45263 0.19647 0.14381 0.0
H2027 H 0.41935 0.20382 0.14296 0.0
H2028 H 0.58009 0.79641 0.85108 0.0
H2029 H 0.54688 0.80324 0.85474 0.0
H2030 H 0.53427 0.74501 0.84899 0.0
H2031 H 0.56713 0.73803 0.84529 0.0
H2032 H 0.51649 0.79302 0.82873 0.0
H2033 H 0.50904 0.76184 0.89864 0.0
H2034 H 0.53116 0.76918 0.88935 0.0
H2035 H 0.5213 0.74728 0.88254 0.0
C2036 C 0.57022 0.78508 0.85057 0.0
C2037 C 0.57624 0.76667 0.84792 0.0
C2038 C 0.55131 0.78901 0.85268 0.0
C2039 C 0.53826 0.77458 0.8524 0.0
C2040 C 0.54421 0.75628 0.84954 0.0
H2041 H 0.43039 0.73862 0.84557 0.0
H2042 H 0.4633 0.74585 0.84789 0.0
C2043 C 0.563 0.75235 0.84733 0.0
C2044 C 0.51825 0.77829 0.85467 0.0
H2045 H 0.48109 0.7645 0.88049 0.0
C2046 C 0.50871 0.78727 0.84026 0.0
C2047 C 0.50827 0.77085 0.86982 0.0
C2048 C 0.51797 0.7619 0.88607 0.0
C2049 C 0.48922 0.78761 0.83989 0.0
C2050 C 0.47925 0.77887 0.85434 0.0
C2051 C 0.48884 0.77111 0.86939 0.0
C2052 C 0.45918 0.77518 0.85282 0.0
C2053 C 0.47939 0.79609 0.82347 0.0
C2054 C 0.446 0.78936 0.85485 0.0
C2055 C 0.42704 0.78527 0.85354 0.0
C2056 C 0.4211 0.76696 0.85018 0.0
C2057 C 0.43445 0.75287 0.84814 0.0
C2058 C 0.45328 0.75695 0.84949 0.0
H2059 H 0.48923 0.80152 0.81291 0.0
H2060 H 0.47027 0.78559 0.81682 0.0
H2061 H 0.47043 0.80768 0.82824 0.0
H2062 H 0.45037 0.80349 0.85757 0.0
H2063 H 0.41708 0.7964 0.85525 0.0
H2064 H 0.70295 0.91896 0.35431 0.0
H2065 H 0.69531 0.95218 0.35329 0.0
H2066 H 0.75013 0.96415 0.33245 0.0
H2067 H 0.75785 0.93125 0.33333 0.0
H2068 H 0.71474 0.98154 0.37207 0.0
H2069 H 0.71524 0.9912 0.29588 0.0
H2070 H 0.71281 0.96866 0.30665 0.0
H2071 H 0.73538 0.97906 0.3041 0.0
C2072 C 0.71331 0.92868 0.34938 0.0
C2073 C 0.73098 0.92248 0.34384 0.0
C2074 C 0.70892 0.94761 0.34881 0.0
C2075 C 0.72205 0.96051 0.34248 0.0
C2076 C 0.73967 0.95434 0.337 0.0
H2077 H 0.75813 0.06894 0.33744 0.0
H2078 H 0.75054 0.03602 0.33648 0.0
C2079 C 0.7441 0.93553 0.33765 0.0
C2080 C 0.71802 0.98061 0.34239 0.0
H2081 H 0.72079 0.01865 0.31435 0.0
C2082 C 0.71555 0.98969 0.35944 0.0
C2083 C 0.71896 0.99111 0.32584 0.0
C2084 C 0.72055 0.98199 0.30706 0.0
C2085 C 0.71556 0.00916 0.36052 0.0
C2086 C 0.71794 0.01962 0.34409 0.0
C2087 C 0.71908 0.01053 0.32692 0.0
C2088 C 0.72189 0.03972 0.34465 0.0
C2089 C 0.71436 0.01841 0.37927 0.0
C2090 C 0.70821 0.05269 0.34951 0.0
C2091 C 0.7125 0.07165 0.35008 0.0
C2092 C 0.73054 0.07781 0.34579 0.0
C2093 C 0.74412 0.0647 0.34086 0.0
C2094 C 0.73981 0.04587 0.34025 0.0
H2095 H 0.71409 0.00819 0.39082 0.0
H2096 H 0.72636 0.02787 0.38129 0.0
H2097 H 0.70154 0.02691 0.37998 0.0
H2098 H 0.69426 0.04816 0.35281 0.0
H2099 H 0.70174 0.08142 0.35392 0.0
H2100 H 0.41941 0.20089 0.85123 0.0
H2101 H 0.45263 0.19406 0.85481 0.0
H2102 H 0.46547 0.25186 0.84605 0.0
H2103 H 0.4326 0.25884 0.84243 0.0
H2104 H 0.48296 0.20278 0.82818 0.0
H2105 H 0.49082 0.23745 0.8964 0.0
H2106 H 0.46862 0.22976 0.88755 0.0
H2107 H 0.47858 0.25124 0.87961 0.0
C2108 C 0.42934 0.21212 0.85001 0.0
C2109 C 0.42338 0.23042 0.84659 0.0
C2110 C 0.44825 0.20818 0.85208 0.0
C2111 C 0.46137 0.22252 0.85096 0.0
C2112 C 0.45548 0.24068 0.84725 0.0
H2113 H 0.56947 0.25748 0.84221 0.0
H2114 H 0.53651 0.25055 0.8448 0.0
C2115 C 0.43668 0.24461 0.8451 0.0
C2116 C 0.48137 0.21883 0.85333 0.0
H2117 H 0.51868 0.2337 0.87833 0.0
C2118 C 0.49082 0.20907 0.83938 0.0
C2119 C 0.49144 0.22697 0.86806 0.0
C2120 C 0.48184 0.2368 0.88387 0.0
C2121 C 0.5103 0.20859 0.83898 0.0
C2122 C 0.52036 0.21801 0.85294 0.0
C2123 C 0.51086 0.22658 0.8676 0.0
C2124 C 0.54046 0.22149 0.8512 0.0
C2125 C 0.52004 0.19922 0.823 0.0
C2126 C 0.55355 0.20735 0.85395 0.0
C2127 C 0.57254 0.21126 0.85249 0.0
C2128 C 0.57859 0.22936 0.84825 0.0
C2129 C 0.56532 0.24339 0.84546 0.0
C2130 C 0.54647 0.23948 0.84696 0.0
H2131 H 0.51014 0.19332 0.81276 0.0
H2132 H 0.52922 0.2093 0.8158 0.0
H2133 H 0.52893 0.18783 0.82835 0.0
H2134 H 0.5491 0.1934 0.85738 0.0
H2135 H 0.58243 0.20018 0.85479 0.0
H2136 H 0.29516 0.91728 0.3491 0.0
H2137 H 0.30146 0.95074 0.35119 0.0
H2138 H 0.24297 0.96211 0.34569 0.0
H2139 H 0.23652 0.92899 0.34355 0.0
H2140 H 0.29016 0.97992 0.32394 0.0
H2141 H 0.26023 0.98949 0.39418 0.0
H2142 H 0.26788 0.96718 0.38561 0.0
H2143 H 0.24568 0.97631 0.3788 0.0
C2144 C 0.28366 0.92693 0.34831 0.0
C2145 C 0.26534 0.9205 0.34619 0.0
C2146 C 0.2873 0.94599 0.34951 0.0
C2147 C 0.27264 0.95876 0.34884 0.0
C2148 C 0.25442 0.95238 0.34651 0.0
H2149 H 0.23645 0.06708 0.33945 0.0
H2150 H 0.24341 0.03404 0.34156 0.0
C2151 C 0.25078 0.93345 0.3452 0.0
C2152 C 0.27603 0.9789 0.35025 0.0
H2153 H 0.26242 0.01679 0.37511 0.0
C2154 C 0.28456 0.98804 0.33532 0.0
C2155 C 0.26877 0.98932 0.36519 0.0
C2156 C 0.26027 0.98008 0.38196 0.0
C2157 C 0.28472 0.00751 0.33431 0.0
C2158 C 0.27623 0.01787 0.34862 0.0
C2159 C 0.26883 0.00873 0.36412 0.0
C2160 C 0.27272 0.03793 0.34673 0.0
C2161 C 0.29281 0.0169 0.31744 0.0
C2162 C 0.28699 0.05098 0.34891 0.0
C2163 C 0.28306 0.06997 0.34775 0.0
C2164 C 0.26481 0.07609 0.34439 0.0
C2165 C 0.25065 0.06287 0.34203 0.0
C2166 C 0.25458 0.04399 0.34325 0.0
H2167 H 0.29826 0.00678 0.30716 0.0
H2168 H 0.28206 0.02561 0.31064 0.0
H2169 H 0.3043 0.02622 0.32174 0.0
H2170 H 0.30105 0.04648 0.35175 0.0
H2171 H 0.29425 0.07983 0.3497 0.0
H2172 H 0.57916 0.79657 0.14412 0.0
H2173 H 0.54582 0.80364 0.14503 0.0
H2174 H 0.53482 0.74893 0.16671 0.0
H2175 H 0.56783 0.74178 0.16595 0.0
H2176 H 0.51698 0.78337 0.12643 0.0
H2177 H 0.5069 0.7838 0.20257 0.0
H2178 H 0.52944 0.78648 0.19189 0.0
H2179 H 0.51944 0.76376 0.19472 0.0
C2180 C 0.56963 0.78613 0.14923 0.0
C2181 C 0.57613 0.76864 0.15503 0.0
C2182 C 0.55063 0.79019 0.14973 0.0
C2183 C 0.53797 0.77692 0.15625 0.0
C2184 C 0.54444 0.75949 0.16201 0.0
H2185 H 0.42973 0.73945 0.1614 0.0
H2186 H 0.4626 0.7473 0.16243 0.0
C2187 C 0.56332 0.75539 0.16143 0.0
C2188 C 0.51779 0.78055 0.15617 0.0
H2189 H 0.47967 0.77749 0.18403 0.0
C2190 C 0.50877 0.7826 0.13903 0.0
C2191 C 0.50722 0.77963 0.17267 0.0
C2192 C 0.51626 0.77849 0.19153 0.0
C2193 C 0.48932 0.7822 0.13785 0.0
C2194 C 0.47881 0.77988 0.15425 0.0
C2195 C 0.48783 0.77915 0.17148 0.0
C2196 C 0.45875 0.77575 0.15365 0.0
C2197 C 0.48017 0.78297 0.11903 0.0
C2198 C 0.44573 0.78925 0.14843 0.0
C2199 C 0.42682 0.78481 0.14782 0.0
C2200 C 0.42075 0.76682 0.15243 0.0
C2201 C 0.43391 0.75342 0.15773 0.0
C2202 C 0.45271 0.75788 0.15838 0.0
H2203 H 0.49045 0.78306 0.10753 0.0
H2204 H 0.47078 0.77088 0.11719 0.0
H2205 H 0.47162 0.79574 0.118 0.0
H2206 H 0.45018 0.80317 0.14488 0.0
H2207 H 0.41701 0.79543 0.14369 0.0
H2208 H 0.70221 0.91923 0.64528 0.0
H2209 H 0.69498 0.95253 0.64566 0.0
H2210 H 0.75078 0.96447 0.66372 0.0
H2211 H 0.7581 0.93144 0.66355 0.0
H2212 H 0.72134 0.9831 0.68406 0.0
H2213 H 0.71575 0.99079 0.60719 0.0
H2214 H 0.70228 0.97295 0.61838 0.0
H2215 H 0.72709 0.97106 0.6177 0.0
C2216 C 0.7129 0.92896 0.6494 0.0
C2217 C 0.73074 0.92271 0.65435 0.0
C2218 C 0.70877 0.94794 0.64953 0.0
C2219 C 0.72241 0.96088 0.65459 0.0
C2220 C 0.74009 0.95465 0.65978 0.0
H2221 H 0.75913 0.06937 0.66163 0.0
H2222 H 0.75124 0.03656 0.66344 0.0
C2223 C 0.74425 0.93577 0.65962 0.0
C2224 C 0.71868 0.98103 0.65436 0.0
H2225 H 0.71577 0.01808 0.62498 0.0
C2226 C 0.71975 0.99076 0.67119 0.0
C2227 C 0.71647 0.9909 0.63754 0.0
C2228 C 0.71539 0.98101 0.61911 0.0
C2229 C 0.71971 0.0102 0.67155 0.0
C2230 C 0.71887 0.02008 0.65462 0.0
C2231 C 0.71648 0.01039 0.6379 0.0
C2232 C 0.72302 0.04013 0.65383 0.0
C2233 C 0.7213 0.02002 0.68997 0.0
C2234 C 0.70983 0.05294 0.64741 0.0
C2235 C 0.7143 0.07183 0.64634 0.0
C2236 C 0.73211 0.07805 0.65143 0.0
C2237 C 0.74529 0.06507 0.65763 0.0
C2238 C 0.74077 0.04631 0.65881 0.0
H2239 H 0.71612 0.0112 0.70152 0.0
H2240 H 0.73611 0.02321 0.69274 0.0
H2241 H 0.71344 0.03329 0.6899 0.0
H2242 H 0.69612 0.04833 0.64332 0.0
H2243 H 0.7039 0.0815 0.64141 0.0
H2244 H 0.29587 0.08038 0.64797 0.0
H2245 H 0.30301 0.04712 0.64536 0.0
H2246 H 0.245 0.03412 0.6522 0.0
H2247 H 0.23772 0.06701 0.65486 0.0
H2248 H 0.29327 0.01737 0.67249 0.0
H2249 H 0.26159 0.00764 0.60307 0.0
H2250 H 0.26886 0.03008 0.61164 0.0
H2251 H 0.24709 0.02028 0.61894 0.0
C2252 C 0.28466 0.07041 0.64895 0.0
C2253 C 0.26622 0.07633 0.65158 0.0
C2254 C 0.28877 0.05147 0.64744 0.0
C2255 C 0.27448 0.0383 0.64832 0.0
C2256 C 0.25616 0.04416 0.65119 0.0
H2257 H 0.23993 0.9301 0.65889 0.0
H2258 H 0.2468 0.96312 0.65642 0.0
C2259 C 0.25205 0.06297 0.6528 0.0
C2260 C 0.27835 0.01826 0.64662 0.0
H2261 H 0.26468 0.98025 0.62198 0.0
C2262 C 0.28751 0.00921 0.66122 0.0
C2263 C 0.27087 0.00778 0.63182 0.0
C2264 C 0.2617 0.01694 0.61537 0.0
C2265 C 0.28803 0.98974 0.66213 0.0
C2266 C 0.27927 0.9793 0.64804 0.0
C2267 C 0.2713 0.98838 0.6328 0.0
C2268 C 0.27588 0.95923 0.6501 0.0
C2269 C 0.29675 0.98041 0.67872 0.0
C2270 C 0.29006 0.94618 0.6474 0.0
C2271 C 0.28618 0.92718 0.64878 0.0
C2272 C 0.26808 0.92107 0.65286 0.0
C2273 C 0.25402 0.9343 0.65574 0.0
C2274 C 0.2579 0.95318 0.65432 0.0
H2275 H 0.3026 0.99057 0.68874 0.0
H2276 H 0.28625 0.97176 0.68597 0.0
H2277 H 0.30805 0.97104 0.67403 0.0
H2278 H 0.304 0.95068 0.644 0.0
H2279 H 0.29728 0.91732 0.64642 0.0
H2280 H 0.13434 0.29428 0.26789 0.0
H2281 H 0.14412 0.26711 0.28563 0.0
H2282 H 0.18506 0.30021 0.31412 0.0
H2283 H 0.17533 0.32753 0.29662 0.0
H2284 H 0.1803 0.25309 0.2839 0.0
H2285 H 0.16084 0.27041 0.35643 0.0
H2286 H 0.15096 0.28216 0.33659 0.0
H2287 H 0.1738 0.28815 0.34463 0.0
C2288 C 0.14522 0.2959 0.27814 0.0
C2289 C 0.15409 0.31311 0.28076 0.0
C2290 C 0.15077 0.28034 0.28827 0.0
C2291 C 0.16515 0.28172 0.30131 0.0
C2292 C 0.17367 0.29895 0.30438 0.0
H2293 H 0.2351 0.20449 0.36007 0.0
H2294 H 0.21834 0.23187 0.34902 0.0
C2295 C 0.16816 0.31453 0.29424 0.0
C2296 C 0.17252 0.26479 0.31027 0.0
H2297 H 0.18098 0.24445 0.35224 0.0
C2298 C 0.18027 0.25109 0.29882 0.0
C2299 C 0.17261 0.26238 0.32974 0.0
C2300 C 0.16397 0.27647 0.34259 0.0
C2301 C 0.18852 0.23517 0.30634 0.0
C2302 C 0.18862 0.23272 0.32583 0.0
C2303 C 0.18078 0.24637 0.33731 0.0
C2304 C 0.19729 0.21622 0.33442 0.0
C2305 C 0.19756 0.2214 0.29337 0.0
C2306 C 0.19058 0.19841 0.33039 0.0
C2307 C 0.20016 0.18274 0.33653 0.0
C2308 C 0.21654 0.18462 0.34701 0.0
C2309 C 0.22258 0.20253 0.35198 0.0
C2310 C 0.21302 0.2182 0.3457 0.0
H2311 H 0.20026 0.22752 0.27947 0.0
H2312 H 0.2109 0.2163 0.29917 0.0
H2313 H 0.18822 0.2093 0.29149 0.0
H2314 H 0.17823 0.19662 0.322 0.0
H2315 H 0.19498 0.16918 0.3326 0.0
H2316 H 0.29269 0.73207 0.86072 0.0
H2317 H 0.2664 0.71402 0.84925 0.0
H2318 H 0.30368 0.67925 0.81787 0.0
H2319 H 0.33006 0.69731 0.829 0.0
H2320 H 0.27543 0.69422 0.79692 0.0
H2321 H 0.24715 0.66191 0.86081 0.0
H2322 H 0.2505 0.68654 0.86265 0.0
H2323 H 0.27025 0.67158 0.85965 0.0
C2324 C 0.29537 0.7204 0.85162 0.0
C2325 C 0.31351 0.71621 0.84574 0.0
C2326 C 0.28031 0.71002 0.84518 0.0
C2327 C 0.28314 0.69516 0.83291 0.0
C2328 C 0.30124 0.6906 0.82744 0.0
H2329 H 0.20506 0.6327 0.76425 0.0
H2330 H 0.23294 0.64228 0.78103 0.0
C2331 C 0.3163 0.70098 0.83382 0.0
C2332 C 0.26713 0.68562 0.82431 0.0
H2333 H 0.22754 0.66146 0.83401 0.0
C2334 C 0.26508 0.68684 0.80498 0.0
C2335 C 0.25363 0.67611 0.83492 0.0
C2336 C 0.25553 0.67378 0.85564 0.0
C2337 C 0.24956 0.67932 0.796 0.0
C2338 C 0.23591 0.67005 0.80663 0.0
C2339 C 0.23808 0.66855 0.82593 0.0
C2340 C 0.21884 0.6627 0.79795 0.0
C2341 C 0.24755 0.68201 0.7753 0.0
C2342 C 0.2016 0.67049 0.80248 0.0
C2343 C 0.18562 0.66499 0.79303 0.0
C2344 C 0.1866 0.65156 0.77886 0.0
C2345 C 0.20381 0.64318 0.77496 0.0
C2346 C 0.21978 0.64867 0.78448 0.0
H2347 H 0.2571 0.69287 0.76994 0.0
H2348 H 0.25087 0.66879 0.76812 0.0
H2349 H 0.2331 0.68594 0.77166 0.0
H2350 H 0.20062 0.68129 0.81291 0.0
H2351 H 0.1726 0.67167 0.7965 0.0
H2352 H 0.83062 0.67065 0.30201 0.0
H2353 H 0.82049 0.69807 0.31908 0.0
H2354 H 0.84923 0.73326 0.28011 0.0
H2355 H 0.8598 0.70587 0.26305 0.0
H2356 H 0.85234 0.74491 0.3178 0.0
H2357 H 0.77933 0.73085 0.29722 0.0
H2358 H 0.79055 0.71196 0.30899 0.0
H2359 H 0.79879 0.71922 0.28657 0.0
C2360 C 0.835 0.68418 0.29714 0.0
C2361 C 0.84586 0.68605 0.281 0.0
C2362 C 0.82914 0.69984 0.3069 0.0
C2363 C 0.83382 0.71765 0.30062 0.0
C2364 C 0.84541 0.71959 0.28511 0.0
H2365 H 0.79896 0.82948 0.32513 0.0
H2366 H 0.81598 0.80201 0.31495 0.0
C2367 C 0.85141 0.70392 0.27537 0.0
C2368 C 0.82566 0.73423 0.30955 0.0
H2369 H 0.78431 0.7557 0.31797 0.0
C2370 C 0.83747 0.74731 0.31787 0.0
C2371 C 0.80627 0.73731 0.3095 0.0
C2372 C 0.79298 0.7242 0.29995 0.0
C2373 C 0.83033 0.76332 0.32641 0.0
C2374 C 0.81094 0.76634 0.32636 0.0
C2375 C 0.79917 0.75323 0.31809 0.0
C2376 C 0.80243 0.78331 0.33416 0.0
C2377 C 0.84351 0.77676 0.33557 0.0
C2378 C 0.78918 0.78188 0.34834 0.0
C2379 C 0.77932 0.79752 0.35414 0.0
C2380 C 0.78244 0.81488 0.34573 0.0
C2381 C 0.7962 0.81636 0.33193 0.0
C2382 C 0.80606 0.80069 0.32617 0.0
H2383 H 0.85713 0.7702 0.33863 0.0
H2384 H 0.84598 0.78867 0.32611 0.0
H2385 H 0.83756 0.78224 0.34869 0.0
H2386 H 0.78611 0.76854 0.35458 0.0
H2387 H 0.76885 0.79584 0.3648 0.0
H2388 H 0.79402 0.36402 0.76332 0.0
H2389 H 0.76625 0.35386 0.77994 0.0
H2390 H 0.79988 0.3193 0.81539 0.0
H2391 H 0.82772 0.32946 0.7991 0.0
H2392 H 0.75502 0.317 0.78125 0.0
H2393 H 0.76504 0.34467 0.85239 0.0
H2394 H 0.77778 0.35333 0.8326 0.0
H2395 H 0.78467 0.33203 0.84365 0.0
C2396 C 0.79558 0.35452 0.77487 0.0
C2397 C 0.81314 0.34752 0.77982 0.0
C2398 C 0.77968 0.34874 0.78435 0.0
C2399 C 0.78105 0.33601 0.79902 0.0
C2400 C 0.79857 0.32943 0.80437 0.0
H2401 H 0.707 0.26428 0.85942 0.0
H2402 H 0.73337 0.28227 0.84782 0.0
C2403 C 0.81447 0.33517 0.79491 0.0
C2404 C 0.7641 0.32811 0.80746 0.0
H2405 H 0.74181 0.32122 0.84872 0.0
C2406 C 0.75199 0.31812 0.79596 0.0
C2407 C 0.76032 0.32948 0.82668 0.0
C2408 C 0.77254 0.3406 0.83954 0.0
C2409 C 0.73644 0.30898 0.80322 0.0
C2410 C 0.73274 0.31018 0.82247 0.0
C2411 C 0.74472 0.32035 0.83398 0.0
C2412 C 0.71667 0.30058 0.83085 0.0
C2413 C 0.72446 0.29758 0.79033 0.0
C2414 C 0.69857 0.3053 0.82553 0.0
C2415 C 0.6835 0.29503 0.83202 0.0
C2416 C 0.68625 0.27992 0.84411 0.0
C2417 C 0.70438 0.27578 0.8501 0.0
C2418 C 0.71946 0.28605 0.84351 0.0
H2419 H 0.7316 0.29455 0.777 0.0
H2420 H 0.72044 0.28424 0.79692 0.0
H2421 H 0.71158 0.30541 0.78714 0.0
H2422 H 0.69614 0.31669 0.81601 0.0
H2423 H 0.66975 0.29873 0.82722 0.0
H2424 H 0.19788 0.82911 0.6677 0.0
H2425 H 0.1802 0.80219 0.67805 0.0
H2426 H 0.2175 0.76596 0.64841 0.0
H2427 H 0.23522 0.79287 0.63764 0.0
H2428 H 0.17892 0.75583 0.646 0.0
H2429 H 0.20226 0.7683 0.71851 0.0
H2430 H 0.19103 0.78773 0.70765 0.0
H2431 H 0.21289 0.77957 0.69882 0.0
C2432 C 0.20226 0.81547 0.66316 0.0
C2433 C 0.21813 0.81316 0.65199 0.0
C2434 C 0.19214 0.80009 0.66915 0.0
C2435 C 0.19777 0.78213 0.66426 0.0
C2436 C 0.21301 0.77976 0.65238 0.0
H2437 H 0.17081 0.67071 0.69751 0.0
H2438 H 0.18088 0.69831 0.68074 0.0
C2439 C 0.22312 0.79516 0.64627 0.0
C2440 C 0.18848 0.76581 0.67251 0.0
H2441 H 0.18073 0.74411 0.71386 0.0
C2442 C 0.17926 0.75323 0.66083 0.0
C2443 C 0.18904 0.76251 0.69185 0.0
C2444 C 0.19946 0.77512 0.70496 0.0
C2445 C 0.17038 0.73746 0.66807 0.0
C2446 C 0.17103 0.73414 0.68741 0.0
C2447 C 0.18014 0.7468 0.69906 0.0
C2448 C 0.16316 0.71721 0.69595 0.0
C2449 C 0.16024 0.7246 0.65502 0.0
C2450 C 0.14989 0.71869 0.71011 0.0
C2451 C 0.14419 0.70295 0.71989 0.0
C2452 C 0.15178 0.68543 0.71573 0.0
C2453 C 0.16464 0.68394 0.70109 0.0
C2454 C 0.17032 0.6997 0.69135 0.0
H2455 H 0.15654 0.73167 0.64182 0.0
H2456 H 0.16935 0.71266 0.65161 0.0
H2457 H 0.14738 0.71912 0.66151 0.0
H2458 H 0.1443 0.73212 0.71394 0.0
H2459 H 0.13427 0.70463 0.73106 0.0
H2460 H 0.70286 0.73147 0.13266 0.0
H2461 H 0.73022 0.71411 0.14265 0.0
H2462 H 0.69694 0.68406 0.18229 0.0
H2463 H 0.66946 0.70114 0.17236 0.0
H2464 H 0.74338 0.71559 0.17911 0.0
H2465 H 0.72837 0.64295 0.15829 0.0
H2466 H 0.71632 0.66262 0.14844 0.0
H2467 H 0.70997 0.654 0.17097 0.0
C2468 C 0.70125 0.72093 0.14326 0.0
C2469 C 0.68394 0.71777 0.15175 0.0
C2470 C 0.71692 0.71103 0.14894 0.0
C2471 C 0.71555 0.69768 0.16305 0.0
C2472 C 0.69822 0.69404 0.17112 0.0
H2473 H 0.79119 0.63942 0.23495 0.0
H2474 H 0.76431 0.65059 0.21748 0.0
C2475 C 0.68254 0.70394 0.16549 0.0
C2476 C 0.7325 0.68905 0.17073 0.0
H2477 H 0.75336 0.64743 0.17962 0.0
C2478 C 0.74569 0.7007 0.17903 0.0
C2479 C 0.73532 0.66962 0.17074 0.0
C2480 C 0.72184 0.65655 0.16149 0.0
C2481 C 0.76145 0.69344 0.18781 0.0
C2482 C 0.76426 0.674 0.18792 0.0
C2483 C 0.75116 0.66232 0.17946 0.0
C2484 C 0.78054 0.66565 0.19719 0.0
C2485 C 0.77461 0.70661 0.19744 0.0
C2486 C 0.79853 0.66997 0.19119 0.0
C2487 C 0.81391 0.66375 0.20118 0.0
C2488 C 0.81157 0.65291 0.21727 0.0
C2489 C 0.79351 0.64779 0.22267 0.0
C2490 C 0.77812 0.65413 0.2127 0.0
H2491 H 0.76815 0.72039 0.19996 0.0
H2492 H 0.77929 0.70084 0.21095 0.0
H2493 H 0.78703 0.70875 0.18859 0.0
H2494 H 0.80067 0.67856 0.17903 0.0
H2495 H 0.8276 0.66782 0.19649 0.0
H2496 H 0.80261 0.16933 0.66726 0.0
H2497 H 0.82038 0.19588 0.67847 0.0
H2498 H 0.78354 0.23309 0.6495 0.0
H2499 H 0.76569 0.20661 0.63796 0.0
H2500 H 0.82257 0.24255 0.64735 0.0
H2501 H 0.79827 0.22948 0.71948 0.0
H2502 H 0.80919 0.21009 0.70822 0.0
H2503 H 0.78752 0.21883 0.69952 0.0
C2504 C 0.79835 0.18312 0.66307 0.0
C2505 C 0.78257 0.18582 0.65185 0.0
C2506 C 0.80852 0.19827 0.66954 0.0
C2507 C 0.80306 0.21639 0.66505 0.0
C2508 C 0.78789 0.21917 0.65316 0.0
H2509 H 0.82965 0.3275 0.69864 0.0
H2510 H 0.81995 0.29972 0.68195 0.0
C2511 C 0.77771 0.20401 0.64662 0.0
C2512 C 0.81249 0.23247 0.67361 0.0
H2513 H 0.8196 0.25388 0.71524 0.0
C2514 C 0.822 0.24505 0.66219 0.0
C2515 C 0.81166 0.23561 0.69297 0.0
C2516 C 0.801 0.22291 0.7058 0.0
C2517 C 0.83082 0.26074 0.66968 0.0
C2518 C 0.82979 0.26399 0.68902 0.0
C2519 C 0.82047 0.25126 0.70043 0.0
C2520 C 0.83734 0.28099 0.69772 0.0
C2521 C 0.84128 0.27359 0.65688 0.0
C2522 C 0.85027 0.27965 0.71222 0.0
C2523 C 0.85576 0.2955 0.72194 0.0
C2524 C 0.8483 0.31298 0.71741 0.0
C2525 C 0.83573 0.3143 0.7025 0.0
C2526 C 0.83026 0.29844 0.69281 0.0
H2527 H 0.8454 0.26647 0.64383 0.0
H2528 H 0.8322 0.28546 0.65312 0.0
H2529 H 0.85392 0.27917 0.66371 0.0
H2530 H 0.85578 0.26626 0.71629 0.0
H2531 H 0.86545 0.29395 0.73334 0.0
H2532 H 0.19591 0.37295 0.21116 0.0
H2533 H 0.22227 0.36435 0.1914 0.0
H2534 H 0.20793 0.30647 0.19783 0.0
H2535 H 0.18097 0.31515 0.21629 0.0
H2536 H 0.25149 0.34735 0.19806 0.0
H2537 H 0.21707 0.30562 0.14444 0.0
H2538 H 0.20397 0.31941 0.1607 0.0
H2539 H 0.21095 0.29601 0.1665 0.0
C2540 C 0.19831 0.35843 0.20804 0.0
C2541 C 0.18639 0.3447 0.21504 0.0
C2542 C 0.21333 0.35351 0.19677 0.0
C2543 C 0.21689 0.33475 0.19265 0.0
C2544 C 0.20509 0.32107 0.20002 0.0
H2545 H 0.32138 0.28344 0.18172 0.0
H2546 H 0.29413 0.30149 0.19009 0.0
C2547 C 0.18979 0.32601 0.21077 0.0
C2548 C 0.23374 0.32926 0.18208 0.0
H2549 H 0.24941 0.29729 0.15089 0.0
C2550 C 0.25095 0.3367 0.18744 0.0
C2551 C 0.23321 0.31584 0.16771 0.0
C2552 C 0.21524 0.30899 0.15939 0.0
C2553 C 0.26762 0.33013 0.17984 0.0
C2554 C 0.26716 0.31499 0.1673 0.0
C2555 C 0.24991 0.30853 0.16089 0.0
C2556 C 0.2842 0.30472 0.16185 0.0
C2557 C 0.28548 0.33953 0.18546 0.0
C2558 C 0.28738 0.29966 0.14326 0.0
C2559 C 0.30266 0.28863 0.13854 0.0
C2560 C 0.31518 0.28281 0.15229 0.0
C2561 C 0.31213 0.28804 0.1708 0.0
C2562 C 0.29663 0.29857 0.17557 0.0
H2563 H 0.28318 0.35457 0.18801 0.0
H2564 H 0.29053 0.33339 0.19866 0.0
H2565 H 0.2964 0.338 0.1747 0.0
H2566 H 0.27794 0.30407 0.13242 0.0
H2567 H 0.30474 0.28475 0.12416 0.0
H2568 H 0.36443 0.22999 0.20449 0.0
H2569 H 0.3533 0.21251 0.2313 0.0
H2570 H 0.31387 0.18388 0.19654 0.0
H2571 H 0.32496 0.20111 0.16956 0.0
H2572 H 0.31638 0.21441 0.24356 0.0
H2573 H 0.3368 0.14176 0.22775 0.0
H2574 H 0.34724 0.16153 0.21637 0.0
H2575 H 0.32469 0.1535 0.20936 0.0
C2576 C 0.3536 0.21976 0.20243 0.0
C2577 C 0.34556 0.21702 0.18484 0.0
C2578 C 0.34728 0.20978 0.21779 0.0
C2579 C 0.33293 0.19678 0.21584 0.0
C2580 C 0.32522 0.19359 0.19826 0.0
H2581 H 0.26126 0.13791 0.29194 0.0
H2582 H 0.27812 0.14919 0.26471 0.0
C2583 C 0.3315 0.20358 0.18287 0.0
C2584 C 0.32479 0.18796 0.23248 0.0
H2585 H 0.31591 0.14617 0.253 0.0
C2586 C 0.31642 0.1995 0.24573 0.0
C2587 C 0.32472 0.16851 0.23509 0.0
C2588 C 0.33397 0.15557 0.22148 0.0
C2589 C 0.30767 0.19211 0.26143 0.0
C2590 C 0.30766 0.17266 0.26412 0.0
C2591 C 0.31603 0.16107 0.25088 0.0
C2592 C 0.29874 0.16421 0.28055 0.0
C2593 C 0.29807 0.20516 0.27474 0.0
C2594 C 0.30514 0.16846 0.29843 0.0
C2595 C 0.29551 0.16217 0.314 0.0
C2596 C 0.27938 0.15134 0.31198 0.0
C2597 C 0.27359 0.14628 0.29401 0.0
C2598 C 0.2832 0.15268 0.27843 0.0
H2599 H 0.29539 0.21893 0.26834 0.0
H2600 H 0.28466 0.19926 0.27954 0.0
H2601 H 0.30704 0.20733 0.28707 0.0
H2602 H 0.31733 0.17706 0.30032 0.0
H2603 H 0.3005 0.1662 0.3276 0.0
H2604 H 0.32685 0.79841 0.8277 0.0
H2605 H 0.31723 0.81466 0.7996 0.0
H2606 H 0.35678 0.78317 0.76757 0.0
H2607 H 0.36637 0.76654 0.79555 0.0
H2608 H 0.33665 0.83587 0.77244 0.0
H2609 H 0.30634 0.77097 0.74357 0.0
H2610 H 0.31326 0.77306 0.76755 0.0
H2611 H 0.33044 0.76959 0.74981 0.0
C2612 C 0.33368 0.79501 0.81474 0.0
C2613 C 0.34723 0.78095 0.81387 0.0
C2614 C 0.32817 0.80438 0.7987 0.0
C2615 C 0.33608 0.79987 0.78151 0.0
C2616 C 0.35029 0.78659 0.7807 0.0
H2617 H 0.30226 0.82869 0.66964 0.0
H2618 H 0.31992 0.81827 0.69655 0.0
C2619 C 0.35579 0.77716 0.79673 0.0
C2620 C 0.32858 0.80825 0.76435 0.0
H2621 H 0.30472 0.79767 0.72485 0.0
C2622 C 0.32973 0.82756 0.76197 0.0
C2623 C 0.31949 0.79732 0.75081 0.0
C2624 C 0.31712 0.77661 0.75305 0.0
C2625 C 0.32209 0.83624 0.74627 0.0
C2626 C 0.31285 0.82531 0.73284 0.0
C2627 C 0.3119 0.80599 0.73515 0.0
C2628 C 0.30348 0.83352 0.71652 0.0
C2629 C 0.3241 0.85697 0.74412 0.0
C2630 C 0.28846 0.8457 0.71883 0.0
C2631 C 0.2783 0.85176 0.70344 0.0
C2632 C 0.2829 0.84557 0.68549 0.0
C2633 C 0.29828 0.83374 0.68324 0.0
C2634 C 0.30843 0.82776 0.6986 0.0
H2635 H 0.33575 0.86246 0.75261 0.0
H2636 H 0.32645 0.86081 0.72938 0.0
H2637 H 0.31114 0.86382 0.74886 0.0
H2638 H 0.28415 0.84999 0.73258 0.0
H2639 H 0.26649 0.86078 0.70571 0.0
H2640 H 0.71432 0.87429 0.30248 0.0
H2641 H 0.69495 0.86547 0.27589 0.0
H2642 H 0.69912 0.80792 0.29221 0.0
H2643 H 0.71718 0.81686 0.31933 0.0
H2644 H 0.70168 0.84717 0.24733 0.0
H2645 H 0.64588 0.80871 0.28214 0.0
H2646 H 0.66238 0.82238 0.29506 0.0
H2647 H 0.66747 0.79856 0.28899 0.0
C2648 C 0.71078 0.85981 0.30046 0.0
C2649 C 0.71702 0.84625 0.31299 0.0
C2650 C 0.69974 0.85477 0.28531 0.0
C2651 C 0.6951 0.83605 0.28224 0.0
C2652 C 0.70172 0.82252 0.29464 0.0
H2653 H 0.6826 0.78234 0.17848 0.0
H2654 H 0.69193 0.80047 0.20545 0.0
C2655 C 0.71224 0.82761 0.31005 0.0
C2656 C 0.68467 0.83035 0.26537 0.0
H2657 H 0.65243 0.7992 0.25021 0.0
C2658 C 0.69062 0.83698 0.24802 0.0
C2659 C 0.66977 0.81754 0.26609 0.0
C2660 C 0.66089 0.81162 0.28412 0.0
C2661 C 0.683 0.8302 0.23144 0.0
C2662 C 0.6698 0.81565 0.23217 0.0
C2663 C 0.66291 0.80998 0.24951 0.0
C2664 C 0.66389 0.80526 0.21534 0.0
C2665 C 0.68926 0.8388 0.21338 0.0
C2666 C 0.64508 0.80105 0.21227 0.0
C2667 C 0.6398 0.78996 0.19723 0.0
C2668 C 0.65322 0.78325 0.18481 0.0
C2669 C 0.67196 0.78763 0.18771 0.0
C2670 C 0.67728 0.7982 0.20302 0.0
H2671 H 0.69255 0.85375 0.21529 0.0
H2672 H 0.70217 0.83186 0.20864 0.0
H2673 H 0.67854 0.83752 0.20239 0.0
H2674 H 0.63447 0.80618 0.22161 0.0
H2675 H 0.62525 0.78674 0.19523 0.0
H2676 H 0.70054 0.1714 0.67136 0.0
H2677 H 0.68416 0.18038 0.6996 0.0
H2678 H 0.71691 0.14152 0.73122 0.0
H2679 H 0.73365 0.13257 0.7031 0.0
H2680 H 0.66364 0.16004 0.72676 0.0
H2681 H 0.72774 0.19223 0.75541 0.0
H2682 H 0.72569 0.18542 0.7314 0.0
H2683 H 0.72982 0.16822 0.74899 0.0
C2684 C 0.70419 0.1646 0.68426 0.0
C2685 C 0.71862 0.15143 0.68498 0.0
C2686 C 0.69475 0.16973 0.70038 0.0
C2687 C 0.69955 0.16182 0.71749 0.0
C2688 C 0.71324 0.148 0.71815 0.0
H2689 H 0.67084 0.19511 0.82949 0.0
H2690 H 0.68116 0.17729 0.80265 0.0
C2691 C 0.72275 0.14287 0.70205 0.0
C2692 C 0.69104 0.16895 0.73473 0.0
H2693 H 0.7011 0.19299 0.77425 0.0
C2694 C 0.6718 0.16717 0.73722 0.0
C2695 C 0.70176 0.17831 0.74825 0.0
C2696 C 0.72237 0.18134 0.74589 0.0
C2697 C 0.66298 0.17448 0.75299 0.0
C2698 C 0.67369 0.18402 0.76639 0.0
C2699 C 0.69295 0.18557 0.76398 0.0
C2700 C 0.6653 0.1932 0.78273 0.0
C2701 C 0.64234 0.17183 0.75526 0.0
C2702 C 0.65274 0.20791 0.78043 0.0
C2703 C 0.64674 0.21815 0.79577 0.0
C2704 C 0.65337 0.21396 0.81366 0.0
C2705 C 0.66547 0.19879 0.81594 0.0
C2706 C 0.67139 0.18855 0.80061 0.0
H2707 H 0.63718 0.15999 0.74682 0.0
H2708 H 0.63864 0.16939 0.77002 0.0
H2709 H 0.63506 0.18455 0.75052 0.0
H2710 H 0.64818 0.21198 0.76669 0.0
H2711 H 0.63748 0.22978 0.79349 0.0
H2712 H 0.76536 0.79584 0.63199 0.0
H2713 H 0.78222 0.76804 0.64168 0.0
H2714 H 0.81381 0.80056 0.68076 0.0
H2715 H 0.79733 0.8285 0.67103 0.0
H2716 H 0.83508 0.77354 0.66142 0.0
H2717 H 0.77069 0.74411 0.69222 0.0
H2718 H 0.76905 0.75019 0.66809 0.0
H2719 H 0.77248 0.76807 0.68515 0.0
C2720 C 0.77603 0.79716 0.6425 0.0
C2721 C 0.77981 0.8144 0.65088 0.0
C2722 C 0.7856 0.78123 0.64805 0.0
C2723 C 0.79899 0.78224 0.66215 0.0
C2724 C 0.80345 0.79952 0.6699 0.0
H2725 H 0.86066 0.70672 0.73146 0.0
H2726 H 0.84975 0.73359 0.71388 0.0
C2727 C 0.79395 0.81546 0.66434 0.0
C2728 C 0.80759 0.76518 0.66965 0.0
H2729 H 0.79754 0.72554 0.69351 0.0
C2730 C 0.82691 0.76298 0.66838 0.0
C2731 C 0.79685 0.75153 0.67881 0.0
C2732 C 0.77614 0.75359 0.68134 0.0
C2733 C 0.83578 0.74735 0.67594 0.0
C2734 C 0.82503 0.7338 0.6852 0.0
C2735 C 0.80571 0.73593 0.6863 0.0
C2736 C 0.83344 0.71749 0.69444 0.0
C2737 C 0.85651 0.74539 0.67381 0.0
C2738 C 0.82784 0.69956 0.68936 0.0
C2739 C 0.8339 0.68419 0.69946 0.0
C2740 C 0.84564 0.68646 0.71492 0.0
C2741 C 0.85171 0.70443 0.7196 0.0
C2742 C 0.84558 0.71982 0.70949 0.0
H2743 H 0.86189 0.75406 0.66224 0.0
H2744 H 0.86338 0.75003 0.6868 0.0
H2745 H 0.86045 0.73071 0.67128 0.0
H2746 H 0.8184 0.6975 0.67784 0.0
H2747 H 0.82896 0.67058 0.6954 0.0
H2748 H 0.70637 0.26393 0.13678 0.0
H2749 H 0.73337 0.28115 0.1481 0.0
H2750 H 0.69729 0.31883 0.17742 0.0
H2751 H 0.67025 0.30165 0.1665 0.0
H2752 H 0.74408 0.31958 0.14604 0.0
H2753 H 0.73031 0.2961 0.21825 0.0
H2754 H 0.71919 0.2857 0.19836 0.0
H2755 H 0.71118 0.30762 0.20717 0.0
C2756 C 0.70414 0.27601 0.14545 0.0
C2757 C 0.68613 0.28125 0.15091 0.0
C2758 C 0.71959 0.28583 0.15188 0.0
C2759 C 0.71728 0.30102 0.16383 0.0
C2760 C 0.69933 0.30691 0.16847 0.0
H2761 H 0.7945 0.36398 0.23153 0.0
H2762 H 0.76713 0.35386 0.21426 0.0
C2763 C 0.6839 0.29708 0.16215 0.0
C2764 C 0.73361 0.31004 0.17235 0.0
H2765 H 0.75482 0.31738 0.21405 0.0
C2766 C 0.74646 0.31915 0.1609 0.0
C2767 C 0.73664 0.30936 0.19174 0.0
C2768 C 0.72372 0.29904 0.20462 0.0
C2769 C 0.76224 0.32781 0.1684 0.0
C2770 C 0.76527 0.32706 0.18778 0.0
C2771 C 0.75235 0.31805 0.19921 0.0
C2772 C 0.78214 0.33478 0.19657 0.0
C2773 C 0.77539 0.33785 0.15557 0.0
C2774 C 0.79965 0.32749 0.19223 0.0
C2775 C 0.81534 0.33322 0.20206 0.0
C2776 C 0.81377 0.34626 0.21654 0.0
C2777 C 0.79624 0.35392 0.22048 0.0
C2778 C 0.78057 0.34817 0.21063 0.0
H2779 H 0.76859 0.3416 0.14224 0.0
H2780 H 0.78084 0.35069 0.16215 0.0
H2781 H 0.78733 0.32866 0.15238 0.0
H2782 H 0.8011 0.31685 0.18171 0.0
H2783 H 0.82858 0.32698 0.19865 0.0
H2784 H 0.13419 0.29353 0.734 0.0
H2785 H 0.14341 0.26563 0.71705 0.0
H2786 H 0.1823 0.29779 0.68487 0.0
H2787 H 0.17304 0.32582 0.70144 0.0
H2788 H 0.16225 0.27098 0.66389 0.0
H2789 H 0.19394 0.24122 0.72772 0.0
H2790 H 0.16992 0.24756 0.72977 0.0
H2791 H 0.1871 0.26526 0.72606 0.0
C2792 C 0.14457 0.29475 0.72319 0.0
C2793 C 0.15302 0.31192 0.71926 0.0
C2794 C 0.14985 0.27876 0.71357 0.0
C2795 C 0.16374 0.27964 0.69996 0.0
C2796 C 0.1716 0.29684 0.69539 0.0
H2797 H 0.23182 0.20428 0.63715 0.0
H2798 H 0.21422 0.23105 0.64828 0.0
C2799 C 0.1663 0.31284 0.70495 0.0
C2800 C 0.17093 0.26253 0.69122 0.0
H2801 H 0.19473 0.22275 0.7008 0.0
C2802 C 0.16928 0.26037 0.67193 0.0
C2803 C 0.18017 0.24881 0.70179 0.0
C2804 C 0.18307 0.25082 0.72246 0.0
C2805 C 0.1766 0.24472 0.6629 0.0
C2806 C 0.18599 0.2311 0.67346 0.0
C2807 C 0.18742 0.23319 0.69277 0.0
C2808 C 0.1951 0.21485 0.66486 0.0
C2809 C 0.1741 0.24281 0.6422 0.0
C2810 C 0.19019 0.19689 0.67051 0.0
C2811 C 0.2003 0.18157 0.66433 0.0
C2812 C 0.21561 0.18394 0.65242 0.0
C2813 C 0.22008 0.20193 0.64625 0.0
C2814 C 0.20996 0.21726 0.6525 0.0
H2815 H 0.16241 0.25146 0.63706 0.0
H2816 H 0.18695 0.24751 0.63511 0.0
H2817 H 0.17154 0.22813 0.63825 0.0
H2818 H 0.17882 0.19476 0.68012 0.0
H2819 H 0.19641 0.16795 0.66935 0.0
H2820 H 0.17055 0.67161 0.20088 0.0
H2821 H 0.19818 0.68171 0.1842 0.0
H2822 H 0.23177 0.64438 0.21678 0.0
H2823 H 0.20422 0.63428 0.23381 0.0
H2824 H 0.24454 0.68066 0.21656 0.0
H2825 H 0.23041 0.65671 0.14476 0.0
H2826 H 0.21178 0.66984 0.15484 0.0
H2827 H 0.21805 0.64777 0.16466 0.0
C2828 C 0.18374 0.6653 0.20437 0.0
C2829 C 0.18513 0.65214 0.21875 0.0
C2830 C 0.19952 0.67101 0.19469 0.0
C2831 C 0.21696 0.6636 0.19908 0.0
C2832 C 0.21838 0.65015 0.21311 0.0
H2833 H 0.32884 0.6967 0.16809 0.0
H2834 H 0.30198 0.6795 0.17942 0.0
C2835 C 0.2026 0.64441 0.22281 0.0
C2836 C 0.2339 0.67118 0.19029 0.0
H2837 H 0.25491 0.6788 0.14848 0.0
C2838 C 0.24693 0.68006 0.2017 0.0
C2839 C 0.23686 0.67049 0.17089 0.0
C2840 C 0.22362 0.66054 0.15807 0.0
C2841 C 0.26264 0.68873 0.1942 0.0
C2842 C 0.26554 0.68818 0.17479 0.0
C2843 C 0.25262 0.67915 0.16336 0.0
C2844 C 0.28177 0.69732 0.16619 0.0
C2845 C 0.27568 0.69892 0.20706 0.0
C2846 C 0.27927 0.71256 0.15433 0.0
C2847 C 0.29462 0.72241 0.14769 0.0
C2848 C 0.31272 0.71713 0.15281 0.0
C2849 C 0.31512 0.70128 0.164 0.0
C2850 C 0.29979 0.69144 0.17055 0.0
H2851 H 0.26923 0.7017 0.22079 0.0
H2852 H 0.28826 0.69034 0.20938 0.0
H2853 H 0.28012 0.71234 0.2009 0.0
H2854 H 0.26543 0.71724 0.15076 0.0
H2855 H 0.29224 0.7345 0.13907 0.0
H2856 H 0.86688 0.29396 0.26625 0.0
H2857 H 0.85682 0.26622 0.28301 0.0
H2858 H 0.81684 0.29882 0.31335 0.0
H2859 H 0.82695 0.32668 0.297 0.0
H2860 H 0.83548 0.27208 0.3353 0.0
H2861 H 0.80685 0.24197 0.2702 0.0
H2862 H 0.83101 0.24804 0.26933 0.0
H2863 H 0.81385 0.26595 0.27197 0.0
C2864 C 0.85609 0.2953 0.27663 0.0
C2865 C 0.84757 0.31254 0.28009 0.0
C2866 C 0.85032 0.27941 0.28614 0.0
C2867 C 0.83587 0.28046 0.29914 0.0
C2868 C 0.82797 0.29774 0.30329 0.0
H2869 H 0.76419 0.20638 0.35945 0.0
H2870 H 0.78238 0.23285 0.34858 0.0
C2871 C 0.83375 0.31365 0.29387 0.0
C2872 C 0.82815 0.26344 0.30763 0.0
H2873 H 0.80451 0.22376 0.29721 0.0
C2874 C 0.82877 0.26144 0.32701 0.0
C2875 C 0.81935 0.24968 0.29673 0.0
C2876 C 0.81754 0.25151 0.27592 0.0
C2877 C 0.82085 0.24595 0.33579 0.0
C2878 C 0.81187 0.23232 0.32489 0.0
C2879 C 0.81149 0.23422 0.30551 0.0
C2880 C 0.80213 0.21626 0.33318 0.0
C2881 C 0.82224 0.24424 0.35661 0.0
C2882 C 0.80716 0.19818 0.32804 0.0
C2883 C 0.79671 0.18302 0.33407 0.0
C2884 C 0.78096 0.18567 0.34531 0.0
C2885 C 0.77627 0.20381 0.35088 0.0
C2886 C 0.78673 0.21897 0.34478 0.0
H2887 H 0.83376 0.2528 0.36226 0.0
H2888 H 0.80911 0.24917 0.36298 0.0
H2889 H 0.82441 0.22957 0.36084 0.0
H2890 H 0.81894 0.19582 0.31899 0.0
H2891 H 0.80077 0.16928 0.32951 0.0
H2892 H 0.20778 0.35974 0.76473 0.0
H2893 H 0.23481 0.34854 0.78196 0.0
H2894 H 0.19879 0.32005 0.82033 0.0
H2895 H 0.17171 0.33083 0.80313 0.0
H2896 H 0.24593 0.35116 0.82006 0.0
H2897 H 0.23125 0.27861 0.79819 0.0
H2898 H 0.22012 0.29838 0.78759 0.0
H2899 H 0.21238 0.29003 0.80979 0.0
C2900 C 0.20557 0.35127 0.77696 0.0
C2901 C 0.18756 0.346 0.78239 0.0
C2902 C 0.22104 0.34492 0.78679 0.0
C2903 C 0.21875 0.33323 0.80219 0.0
C2904 C 0.20081 0.32879 0.80826 0.0
H2905 H 0.29644 0.26602 0.86505 0.0
H2906 H 0.26907 0.28347 0.85528 0.0
C2907 C 0.18536 0.33502 0.79841 0.0
C2908 C 0.2351 0.32474 0.81121 0.0
H2909 H 0.2561 0.28303 0.81902 0.0
C2910 C 0.24818 0.33627 0.81989 0.0
C2911 C 0.23797 0.30532 0.81086 0.0
C2912 C 0.2248 0.29234 0.80098 0.0
C2913 C 0.26404 0.32882 0.82843 0.0
C2914 C 0.26692 0.30941 0.828 0.0
C2915 C 0.25375 0.29791 0.81944 0.0
C2916 C 0.28386 0.30063 0.83556 0.0
C2917 C 0.27748 0.34173 0.83798 0.0
C2918 C 0.30125 0.30463 0.8278 0.0
C2919 C 0.31694 0.2947 0.83333 0.0
C2920 C 0.31549 0.28045 0.84663 0.0
C2921 C 0.2981 0.27688 0.85478 0.0
C2922 C 0.28243 0.28684 0.84923 0.0
H2923 H 0.27085 0.35519 0.84158 0.0
H2924 H 0.28309 0.33536 0.85085 0.0
H2925 H 0.28928 0.34464 0.82852 0.0
H2926 H 0.30257 0.31495 0.81695 0.0
H2927 H 0.33008 0.29782 0.82672 0.0
H2928 H 0.23194 0.79288 0.36618 0.0
H2929 H 0.2148 0.76519 0.35666 0.0
H2930 H 0.18366 0.79774 0.31726 0.0
H2931 H 0.20042 0.82558 0.32681 0.0
H2932 H 0.16207 0.77103 0.33698 0.0
H2933 H 0.22613 0.74088 0.30618 0.0
H2934 H 0.22787 0.74716 0.33025 0.0
H2935 H 0.22454 0.76491 0.31304 0.0
C2936 C 0.22131 0.79423 0.35563 0.0
C2937 C 0.21773 0.81145 0.34711 0.0
C2938 C 0.21158 0.77837 0.35018 0.0
C2939 C 0.19822 0.77942 0.33606 0.0
C2940 C 0.19399 0.79668 0.32814 0.0
H2941 H 0.13594 0.7046 0.26686 0.0
H2942 H 0.14688 0.73126 0.28474 0.0
C2943 C 0.20365 0.81256 0.3336 0.0
C2944 C 0.18946 0.7624 0.32868 0.0
H2945 H 0.1991 0.7226 0.30494 0.0
C2946 C 0.17013 0.76038 0.33004 0.0
C2947 C 0.20006 0.74862 0.31957 0.0
C2948 C 0.22078 0.75049 0.31699 0.0
C2949 C 0.1611 0.74479 0.32256 0.0
C2950 C 0.1717 0.73112 0.3133 0.0
C2951 C 0.19104 0.73308 0.31216 0.0
C2952 C 0.16313 0.71493 0.30403 0.0
C2953 C 0.14035 0.74302 0.32476 0.0
C2954 C 0.16866 0.69693 0.30895 0.0
C2955 C 0.16261 0.68169 0.29867 0.0
C2956 C 0.15093 0.68415 0.28319 0.0
C2957 C 0.14486 0.70218 0.27873 0.0
C2958 C 0.15099 0.71744 0.28901 0.0
H2959 H 0.13512 0.75167 0.33641 0.0
H2960 H 0.13348 0.74782 0.31183 0.0
H2961 H 0.13627 0.72836 0.32721 0.0
H2962 H 0.17811 0.69474 0.32045 0.0
H2963 H 0.16754 0.66803 0.30256 0.0
H2964 H 0.79217 0.63871 0.76166 0.0
H2965 H 0.76497 0.64962 0.77885 0.0
H2966 H 0.80057 0.67944 0.8166 0.0
H2967 H 0.82778 0.66895 0.79947 0.0
H2968 H 0.75422 0.64741 0.81729 0.0
H2969 H 0.76702 0.7198 0.79384 0.0
H2970 H 0.77842 0.70006 0.78345 0.0
H2971 H 0.78634 0.70904 0.80534 0.0
C2972 C 0.79425 0.64741 0.77375 0.0
C2973 C 0.81217 0.65313 0.77903 0.0
C2974 C 0.77869 0.6536 0.78355 0.0
C2975 C 0.78081 0.66558 0.79876 0.0
C2976 C 0.79867 0.67048 0.80468 0.0
H2977 H 0.70404 0.73231 0.86285 0.0
H2978 H 0.73124 0.71509 0.85223 0.0
C2979 C 0.81421 0.6644 0.79487 0.0
C2980 C 0.76436 0.67387 0.80777 0.0
H2981 H 0.74283 0.71533 0.81547 0.0
C2982 C 0.75168 0.66225 0.81692 0.0
C2983 C 0.76112 0.69322 0.80717 0.0
C2984 C 0.77383 0.70627 0.79679 0.0
C2985 C 0.73592 0.66956 0.82576 0.0
C2986 C 0.73272 0.68892 0.82515 0.0
C2987 C 0.74543 0.7005 0.81603 0.0
C2988 C 0.71595 0.69757 0.83323 0.0
C2989 C 0.72296 0.65658 0.83586 0.0
C2990 C 0.69834 0.69327 0.82616 0.0
C2991 C 0.68274 0.70307 0.83218 0.0
C2992 C 0.6845 0.71747 0.84528 0.0
C2993 C 0.70214 0.72133 0.85275 0.0
C2994 C 0.71771 0.71151 0.84671 0.0
H2995 H 0.72985 0.64322 0.83934 0.0
H2996 H 0.71772 0.66301 0.84885 0.0
H2997 H 0.71087 0.65347 0.82683 0.0
H2998 H 0.69674 0.68283 0.81546 0.0
H2999 H 0.6694 0.69973 0.8261 0.0
H3000 H 0.73249 0.86115 0.70514 0.0
H3001 H 0.71492 0.8496 0.73178 0.0
H3002 H 0.67791 0.82036 0.69494 0.0
H3003 H 0.69546 0.83152 0.66822 0.0
H3004 H 0.67652 0.85168 0.7419 0.0
H3005 H 0.69987 0.77938 0.72818 0.0
H3006 H 0.71046 0.79926 0.71721 0.0
H3007 H 0.68855 0.7906 0.70901 0.0
C3008 C 0.7205 0.85243 0.70265 0.0
C3009 C 0.71554 0.84709 0.68452 0.0
C3010 C 0.71046 0.84587 0.71791 0.0
C3011 C 0.69534 0.8339 0.71529 0.0
C3012 C 0.68976 0.82933 0.69722 0.0
H3013 H 0.63281 0.76624 0.79324 0.0
H3014 H 0.64245 0.78337 0.76559 0.0
C3015 C 0.6998 0.83578 0.68197 0.0
C3016 C 0.68608 0.82534 0.73148 0.0
H3017 H 0.67874 0.78368 0.75277 0.0
C3018 C 0.67694 0.83681 0.74429 0.0
C3019 C 0.68672 0.80595 0.73451 0.0
C3020 C 0.69705 0.79305 0.72161 0.0
C3021 C 0.66829 0.82935 0.76009 0.0
C3022 C 0.6691 0.80998 0.76319 0.0
C3023 C 0.67805 0.79852 0.75025 0.0
C3024 C 0.66163 0.80126 0.78022 0.0
C3025 C 0.65828 0.8422 0.77324 0.0
C3026 C 0.66915 0.80576 0.7976 0.0
C3027 C 0.6637 0.79601 0.81343 0.0
C3028 C 0.65071 0.78146 0.81216 0.0
C3029 C 0.64282 0.77736 0.79476 0.0
C3030 C 0.6483 0.78712 0.77893 0.0
H3031 H 0.65438 0.85544 0.76636 0.0
H3032 H 0.64554 0.83557 0.77885 0.0
H3033 H 0.66755 0.84556 0.78507 0.0
H3034 H 0.67975 0.81635 0.79883 0.0
H3035 H 0.67011 0.79955 0.82657 0.0
H3036 H 0.6979 0.17049 0.32628 0.0
H3037 H 0.68146 0.17998 0.29828 0.0
H3038 H 0.71585 0.14361 0.26546 0.0
H3039 H 0.73265 0.13415 0.29337 0.0
H3040 H 0.71523 0.17981 0.2529 0.0
H3041 H 0.64351 0.15455 0.26474 0.0
H3042 H 0.65271 0.16777 0.28376 0.0
H3043 H 0.66318 0.14593 0.2777 0.0
C3044 C 0.70182 0.16424 0.31318 0.0
C3045 C 0.71669 0.1516 0.3121 0.0
C3046 C 0.69227 0.16959 0.29719 0.0
C3047 C 0.69728 0.16231 0.27985 0.0
C3048 C 0.71171 0.14928 0.27876 0.0
H3049 H 0.66894 0.19656 0.16757 0.0
H3050 H 0.67956 0.17892 0.19443 0.0
C3051 C 0.72129 0.1439 0.29474 0.0
C3052 C 0.68883 0.16982 0.26271 0.0
H3053 H 0.64751 0.17712 0.24066 0.0
C3054 C 0.70046 0.17901 0.25008 0.0
C3055 C 0.66954 0.16888 0.25921 0.0
C3056 C 0.65651 0.1586 0.27198 0.0
C3057 C 0.69327 0.18777 0.23429 0.0
C3058 C 0.67395 0.187 0.23087 0.0
C3059 C 0.66231 0.17764 0.24336 0.0
C3060 C 0.66567 0.19631 0.21457 0.0
C3061 C 0.70632 0.19832 0.22173 0.0
C3062 C 0.65369 0.21146 0.21701 0.0
C3063 C 0.64745 0.22156 0.20166 0.0
C3064 C 0.65312 0.21664 0.18362 0.0
C3065 C 0.66442 0.20088 0.18125 0.0
C3066 C 0.67057 0.19078 0.19658 0.0
H3067 H 0.71986 0.20114 0.22855 0.0
H3068 H 0.70903 0.18997 0.20906 0.0
H3069 H 0.70012 0.21174 0.21737 0.0
H3070 H 0.64971 0.21588 0.23083 0.0
H3071 H 0.63871 0.23357 0.20401 0.0
H3072 H 0.29986 0.16845 0.66988 0.0
H3073 H 0.31737 0.17872 0.69694 0.0
H3074 H 0.28139 0.14683 0.7326 0.0
H3075 H 0.26389 0.13616 0.70556 0.0
H3076 H 0.30199 0.19919 0.72522 0.0
H3077 H 0.33288 0.13423 0.75285 0.0
H3078 H 0.32368 0.13598 0.72959 0.0
H3079 H 0.30828 0.13304 0.749 0.0
C3080 C 0.2958 0.16333 0.68342 0.0
C3081 C 0.28041 0.15149 0.68552 0.0
C3082 C 0.30586 0.16923 0.69888 0.0
C3083 C 0.3008 0.16339 0.71673 0.0
C3084 C 0.28577 0.15118 0.71889 0.0
H3085 H 0.32706 0.19927 0.82766 0.0
H3086 H 0.31604 0.18289 0.80011 0.0
C3087 C 0.27571 0.1452 0.70342 0.0
C3088 C 0.31011 0.17153 0.73313 0.0
H3089 H 0.33438 0.1609 0.77244 0.0
C3090 C 0.30924 0.19084 0.73546 0.0
C3091 C 0.31942 0.16056 0.74649 0.0
C3092 C 0.3213 0.13981 0.74433 0.0
C3093 C 0.3171 0.1995 0.75099 0.0
C3094 C 0.32637 0.18855 0.76438 0.0
C3095 C 0.32732 0.16923 0.76206 0.0
C3096 C 0.33458 0.197 0.78118 0.0
C3097 C 0.31494 0.22023 0.7532 0.0
C3098 C 0.34905 0.20993 0.77968 0.0
C3099 C 0.35536 0.21941 0.79537 0.0
C3100 C 0.34735 0.21602 0.81286 0.0
C3101 C 0.33348 0.20233 0.81441 0.0
C3102 C 0.32717 0.1929 0.7987 0.0
H3103 H 0.30393 0.2259 0.74401 0.0
H3104 H 0.31152 0.22387 0.76779 0.0
H3105 H 0.32821 0.22714 0.74954 0.0
H3106 H 0.35513 0.21303 0.76628 0.0
H3107 H 0.36615 0.22974 0.79366 0.0
H3108 H 0.29915 0.8259 0.32762 0.0
H3109 H 0.31621 0.81612 0.30007 0.0
H3110 H 0.284 0.85377 0.26648 0.0
H3111 H 0.2666 0.86351 0.2939 0.0
H3112 H 0.28404 0.81771 0.25357 0.0
H3113 H 0.35599 0.84091 0.26816 0.0
H3114 H 0.34572 0.82767 0.28662 0.0
H3115 H 0.33613 0.8499 0.28054 0.0
C3116 C 0.29584 0.83235 0.31444 0.0
C3117 C 0.28141 0.84545 0.31299 0.0
C3118 C 0.30574 0.82683 0.29873 0.0
C3119 C 0.30153 0.83441 0.2813 0.0
C3120 C 0.28753 0.84786 0.27986 0.0
H3121 H 0.33183 0.80238 0.16914 0.0
H3122 H 0.32128 0.81959 0.1963 0.0
C3123 C 0.2776 0.85339 0.29555 0.0
C3124 C 0.31036 0.82689 0.26436 0.0
H3125 H 0.35214 0.8192 0.24334 0.0
C3126 C 0.29891 0.81823 0.25121 0.0
C3127 C 0.32976 0.82745 0.26146 0.0
C3128 C 0.34262 0.83713 0.27486 0.0
C3129 C 0.30637 0.80971 0.23541 0.0
C3130 C 0.32578 0.81017 0.23254 0.0
C3131 C 0.33726 0.81894 0.24561 0.0
C3132 C 0.33429 0.80123 0.21617 0.0
C3133 C 0.29345 0.79977 0.22223 0.0
C3134 C 0.34582 0.7857 0.21839 0.0
C3135 C 0.35203 0.77585 0.20287 0.0
C3136 C 0.34676 0.7814 0.18489 0.0
C3137 C 0.33601 0.79758 0.18276 0.0
C3138 C 0.32991 0.80743 0.19826 0.0
H3139 H 0.2797 0.79699 0.22863 0.0
H3140 H 0.2912 0.80853 0.20976 0.0
H3141 H 0.29953 0.78637 0.21762 0.0
H3142 H 0.34939 0.78077 0.23214 0.0
H3143 H 0.36033 0.7635 0.20502 0.0
loop_
_geom_bond_atom_site_label_1
_geom_bond_atom_site_label_2
_geom_bond_distance
_geom_bond_site_symmetry_2
_ccdc_geom_bond_type
Co0 O2 2.143 . S
Co0 O8 2.074 . S
Co0 O11 2.093 . S
Co0 O24 2.097 . S
Co0 N41 2.151 . S
Co0 N49 2.214 . S
Co1 O2 2.160 . S
Co1 O7 2.058 . S
Co1 O17 2.057 . S
Co1 O32 2.037 . S
Co1 N36 2.145 . S
Co1 N57 2.257 . S
O2 Co0 2.143 . S
O2 Co1 2.160 . S
C3 O4 1.278 . S
C3 O11 1.224 . S
O4 C3 1.278 . S
C5 O6 1.245 . S
C5 O17 1.232 . S
O6 C5 1.245 . S
O7 Co1 2.058 . S
O7 C33 1.269 . S
O8 Co0 2.074 . S
O8 C33 1.257 . S
H9 C34 0.930 . S
H10 C40 0.930 . S
O11 Co0 2.093 . S
O11 C3 1.224 . S
H12 C44 0.929 . S
H13 C46 0.930 . S
H14 C47 0.930 . S
H15 C45 0.929 . S
H16 C48 0.928 . S
O17 Co1 2.057 . S
O17 C5 1.232 . S
H18 C37 0.929 . S
H19 C38 0.929 . S
H20 C50 0.931 . S
H21 C42 0.929 . S
H22 C51 0.930 . S
H23 C43 0.931 . S
O24 Co0 2.097 . S
O24 C52 1.214 . S
H25 C53 0.929 . S
H26 C54 0.929 . S
H27 C55 0.930 . S
H28 C56 0.929 . S
H29 C58 0.930 . S
H30 C35 0.930 . S
H31 C39 0.930 . S
O32 Co1 2.037 . S
O32 C52 1.234 . S
C33 O7 1.269 . S
C33 O8 1.257 . S
C34 H9 0.930 . S
C34 C37 1.388 . S
C34 C39 1.418 . S
C35 H30 0.930 . S
C35 C38 1.404 . S
C35 C39 1.353 . S
N36 Co1 2.145 . S
N36 C37 1.397 . S
N36 C38 1.334 . S
C37 H18 0.929 . S
C37 C34 1.388 . S
C37 N36 1.397 . S
C38 H19 0.929 . S
C38 C35 1.404 . S
C38 N36 1.334 . S
C39 H31 0.930 . S
C39 C34 1.418 . S
C39 C35 1.353 . S
C40 H10 0.930 . S
C40 N41 1.330 . S
C40 C42 1.446 . S
N41 Co0 2.151 . S
N41 C40 1.330 . S
N41 C45 1.418 . S
C42 H21 0.929 . S
C42 C40 1.446 . S
C42 C43 1.332 . S
C43 H23 0.931 . S
C43 C42 1.332 . S
C43 C44 1.267 . S
C44 H12 0.929 . S
C44 C43 1.267 . S
C44 C45 1.251 . S
C45 H15 0.929 . S
C45 N41 1.418 . S
C45 C44 1.251 . S
C46 H13 0.930 . S
C46 C48 1.406 . S
C46 C51 1.261 . S
C47 H14 0.930 . S
C47 N49 1.325 . S
C47 C50 1.357 . S
C48 H16 0.928 . S
C48 C46 1.406 . S
C48 N49 1.261 . S
N49 Co0 2.214 . S
N49 C47 1.325 . S
N49 C48 1.261 . S
C50 H20 0.931 . S
C50 C47 1.357 . S
C50 C51 1.312 . S
C51 H22 0.930 . S
C51 C46 1.261 . S
C51 C50 1.312 . S
C52 O24 1.214 . S
C52 O32 1.234 . S
C53 H25 0.929 . S
C53 C56 1.391 . S
C53 C58 1.391 . S
C54 H26 0.929 . S
C54 C55 1.390 . S
C54 N57 1.391 . S
C55 H27 0.930 . S
C55 C54 1.390 . S
C55 C56 1.392 . S
C56 H28 0.929 . S
C56 C53 1.391 . S
C56 C55 1.392 . S
N57 Co1 2.257 . S
N57 C54 1.391 . S
N57 C58 1.388 . S
C58 H29 0.930 . S
C58 C53 1.391 . S
C58 N57 1.388 . S
Co59 O61 2.143 . S
Co59 O67 2.074 . S
Co59 O70 2.093 . S
Co59 O83 2.097 . S
Co59 N100 2.151 . S
Co59 N108 2.214 . S
Co60 O61 2.160 . S
Co60 O66 2.058 . S
Co60 O76 2.057 . S
Co60 O91 2.037 . S
Co60 N95 2.145 . S
Co60 N116 2.257 . S
O61 Co59 2.143 . S
O61 Co60 2.160 . S
C62 O63 1.278 . S
C62 O70 1.224 . S
O63 C62 1.278 . S
C64 O65 1.245 . S
C64 O76 1.232 . S
O65 C64 1.245 . S
O66 Co60 2.058 . S
O66 C92 1.269 . S
O67 Co59 2.074 . S
O67 C92 1.257 . S
H68 C93 0.930 . S
H69 C99 0.930 . S
O70 Co59 2.093 . S
O70 C62 1.224 . S
H71 C103 0.929 . S
H72 C105 0.930 . S
H73 C106 0.930 . S
H74 C104 0.929 . S
H75 C107 0.928 . S
O76 Co60 2.057 . S
O76 C64 1.232 . S
H77 C96 0.929 . S
H78 C97 0.929 . S
H79 C109 0.931 . S
H80 C101 0.929 . S
H81 C110 0.930 . S
H82 C102 0.931 . S
O83 Co59 2.097 . S
O83 C111 1.214 . S
H84 C112 0.929 . S
H85 C113 0.929 . S
H86 C114 0.930 . S
H87 C115 0.929 . S
H88 C117 0.930 . S
H89 C94 0.930 . S
H90 C98 0.930 . S
O91 Co60 2.037 . S
O91 C111 1.234 . S
C92 O66 1.269 . S
C92 O67 1.257 . S
C93 H68 0.930 . S
C93 C96 1.388 . S
C93 C98 1.418 . S
C94 H89 0.930 . S
C94 C97 1.404 . S
C94 C98 1.353 . S
N95 Co60 2.145 . S
N95 C96 1.397 . S
N95 C97 1.334 . S
C96 H77 0.929 . S
C96 C93 1.388 . S
C96 N95 1.397 . S
C97 H78 0.929 . S
C97 C94 1.404 . S
C97 N95 1.334 . S
C98 H90 0.930 . S
C98 C93 1.418 . S
C98 C94 1.353 . S
C99 H69 0.930 . S
C99 N100 1.330 . S
C99 C101 1.446 . S
N100 Co59 2.151 . S
N100 C99 1.330 . S
N100 C104 1.418 . S
C101 H80 0.929 . S
C101 C99 1.446 . S
C101 C102 1.332 . S
C102 H82 0.931 . S
C102 C101 1.332 . S
C102 C103 1.267 . S
C103 H71 0.929 . S
C103 C102 1.267 . S
C103 C104 1.251 . S
C104 H74 0.929 . S
C104 N100 1.418 . S
C104 C103 1.251 . S
C105 H72 0.930 . S
C105 C107 1.406 . S
C105 C110 1.261 . S
C106 H73 0.930 . S
C106 N108 1.325 . S
C106 C109 1.357 . S
C107 H75 0.928 . S
C107 C105 1.406 . S
C107 N108 1.261 . S
N108 Co59 2.214 . S
N108 C106 1.325 . S
N108 C107 1.261 . S
C109 H79 0.931 . S
C109 C106 1.357 . S
C109 C110 1.312 . S
C110 H81 0.930 . S
C110 C105 1.261 . S
C110 C109 1.312 . S
C111 O83 1.214 . S
C111 O91 1.234 . S
C112 H84 0.929 . S
C112 C115 1.391 . S
C112 C117 1.391 . S
C113 H85 0.929 . S
C113 C114 1.390 . S
C113 N116 1.391 . S
C114 H86 0.930 . S
C114 C113 1.390 . S
C114 C115 1.392 . S
C115 H87 0.929 . S
C115 C112 1.391 . S
C115 C114 1.392 . S
N116 Co60 2.257 . S
N116 C113 1.391 . S
N116 C117 1.388 . S
C117 H88 0.930 . S
C117 C112 1.391 . S
C117 N116 1.388 . S
Co118 O120 2.143 . S
Co118 O126 2.074 . S
Co118 O129 2.093 . S
Co118 O142 2.097 . S
Co118 N159 2.151 . S
Co118 N167 2.214 . S
Co119 O120 2.160 . S
Co119 O125 2.058 . S
Co119 O135 2.057 . S
Co119 O150 2.037 . S
Co119 N154 2.145 . S
Co119 N175 2.257 . S
O120 Co118 2.143 . S
O120 Co119 2.160 . S
C121 O122 1.278 . S
C121 O129 1.224 . S
O122 C121 1.278 . S
C123 O124 1.245 . S
C123 O135 1.232 . S
O124 C123 1.245 . S
O125 Co119 2.058 . S
O125 C151 1.269 . S
O126 Co118 2.074 . S
O126 C151 1.257 . S
H127 C152 0.930 . S
H128 C158 0.930 . S
O129 Co118 2.093 . S
O129 C121 1.224 . S
H130 C162 0.929 . S
H131 C164 0.930 . S
H132 C165 0.930 . S
H133 C163 0.929 . S
H134 C166 0.928 . S
O135 Co119 2.057 . S
O135 C123 1.232 . S
H136 C155 0.929 . S
H137 C156 0.929 . S
H138 C168 0.931 . S
H139 C160 0.929 . S
H140 C169 0.930 . S
H141 C161 0.931 . S
O142 Co118 2.097 . S
O142 C170 1.214 . S
H143 C171 0.929 . S
H144 C172 0.929 . S
H145 C173 0.930 . S
H146 C174 0.929 . S
H147 C176 0.930 . S
H148 C153 0.930 . S
H149 C157 0.930 . S
O150 Co119 2.037 . S
O150 C170 1.234 . S
C151 O125 1.269 . S
C151 O126 1.257 . S
C152 H127 0.930 . S
C152 C155 1.388 . S
C152 C157 1.418 . S
C153 H148 0.930 . S
C153 C156 1.404 . S
C153 C157 1.353 . S
N154 Co119 2.145 . S
N154 C155 1.397 . S
N154 C156 1.334 . S
C155 H136 0.929 . S
C155 C152 1.388 . S
C155 N154 1.397 . S
C156 H137 0.929 . S
C156 C153 1.404 . S
C156 N154 1.334 . S
C157 H149 0.930 . S
C157 C152 1.418 . S
C157 C153 1.353 . S
C158 H128 0.930 . S
C158 N159 1.330 . S
C158 C160 1.446 . S
N159 Co118 2.151 . S
N159 C158 1.330 . S
N159 C163 1.418 . S
C160 H139 0.929 . S
C160 C158 1.446 . S
C160 C161 1.332 . S
C161 H141 0.931 . S
C161 C160 1.332 . S
C161 C162 1.267 . S
C162 H130 0.929 . S
C162 C161 1.267 . S
C162 C163 1.251 . S
C163 H133 0.929 . S
C163 N159 1.418 . S
C163 C162 1.251 . S
C164 H131 0.930 . S
C164 C166 1.406 . S
C164 C169 1.261 . S
C165 H132 0.930 . S
C165 N167 1.325 . S
C165 C168 1.357 . S
C166 H134 0.928 . S
C166 C164 1.406 . S
C166 N167 1.261 . S
N167 Co118 2.214 . S
N167 C165 1.325 . S
N167 C166 1.261 . S
C168 H138 0.931 . S
C168 C165 1.357 . S
C168 C169 1.312 . S
C169 H140 0.930 . S
C169 C164 1.261 . S
C169 C168 1.312 . S
C170 O142 1.214 . S
C170 O150 1.234 . S
C171 H143 0.929 . S
C171 C174 1.391 . S
C171 C176 1.391 . S
C172 H144 0.929 . S
C172 C173 1.390 . S
C172 N175 1.391 . S
C173 H145 0.930 . S
C173 C172 1.390 . S
C173 C174 1.392 . S
C174 H146 0.929 . S
C174 C171 1.391 . S
C174 C173 1.392 . S
N175 Co119 2.257 . S
N175 C172 1.391 . S
N175 C176 1.388 . S
C176 H147 0.930 . S
C176 C171 1.391 . S
C176 N175 1.388 . S
Co177 O179 2.143 . S
Co177 O185 2.074 . S
Co177 O188 2.093 . S
Co177 O201 2.097 . S
Co177 N218 2.151 . S
Co177 N226 2.214 . S
Co178 O179 2.160 . S
Co178 O184 2.058 . S
Co178 O194 2.057 . S
Co178 O209 2.037 . S
Co178 N213 2.145 . S
Co178 N234 2.257 . S
O179 Co177 2.143 . S
O179 Co178 2.160 . S
C180 O181 1.278 . S
C180 O188 1.224 . S
O181 C180 1.278 . S
C182 O183 1.245 . S
C182 O194 1.232 . S
O183 C182 1.245 . S
O184 Co178 2.058 . S
O184 C210 1.269 . S
O185 Co177 2.074 . S
O185 C210 1.257 . S
H186 C211 0.930 . S
H187 C217 0.930 . S
O188 Co177 2.093 . S
O188 C180 1.224 . S
H189 C221 0.929 . S
H190 C223 0.930 . S
H191 C224 0.930 . S
H192 C222 0.929 . S
H193 C225 0.928 . S
O194 Co178 2.057 . S
O194 C182 1.232 . S
H195 C214 0.929 . S
H196 C215 0.929 . S
H197 C227 0.931 . S
H198 C219 0.929 . S
H199 C228 0.930 . S
H200 C220 0.931 . S
O201 Co177 2.097 . S
O201 C229 1.214 . S
H202 C230 0.929 . S
H203 C231 0.929 . S
H204 C232 0.930 . S
H205 C233 0.929 . S
H206 C235 0.930 . S
H207 C212 0.930 . S
H208 C216 0.930 . S
O209 Co178 2.037 . S
O209 C229 1.234 . S
C210 O184 1.269 . S
C210 O185 1.257 . S
C211 H186 0.930 . S
C211 C214 1.388 . S
C211 C216 1.418 . S
C212 H207 0.930 . S
C212 C215 1.404 . S
C212 C216 1.353 . S
N213 Co178 2.145 . S
N213 C214 1.397 . S
N213 C215 1.334 . S
C214 H195 0.929 . S
C214 C211 1.388 . S
C214 N213 1.397 . S
C215 H196 0.929 . S
C215 C212 1.404 . S
C215 N213 1.334 . S
C216 H208 0.930 . S
C216 C211 1.418 . S
C216 C212 1.353 . S
C217 H187 0.930 . S
C217 N218 1.330 . S
C217 C219 1.446 . S
N218 Co177 2.151 . S
N218 C217 1.330 . S
N218 C222 1.418 . S
C219 H198 0.929 . S
C219 C217 1.446 . S
C219 C220 1.332 . S
C220 H200 0.931 . S
C220 C219 1.332 . S
C220 C221 1.267 . S
C221 H189 0.929 . S
C221 C220 1.267 . S
C221 C222 1.251 . S
C222 H192 0.929 . S
C222 N218 1.418 . S
C222 C221 1.251 . S
C223 H190 0.930 . S
C223 C225 1.406 . S
C223 C228 1.261 . S
C224 H191 0.930 . S
C224 N226 1.325 . S
C224 C227 1.357 . S
C225 H193 0.928 . S
C225 C223 1.406 . S
C225 N226 1.261 . S
N226 Co177 2.214 . S
N226 C224 1.325 . S
N226 C225 1.261 . S
C227 H197 0.931 . S
C227 C224 1.357 . S
C227 C228 1.312 . S
C228 H199 0.930 . S
C228 C223 1.261 . S
C228 C227 1.312 . S
C229 O201 1.214 . S
C229 O209 1.234 . S
C230 H202 0.929 . S
C230 C233 1.391 . S
C230 C235 1.391 . S
C231 H203 0.929 . S
C231 C232 1.390 . S
C231 N234 1.391 . S
C232 H204 0.930 . S
C232 C231 1.390 . S
C232 C233 1.392 . S
C233 H205 0.929 . S
C233 C230 1.391 . S
C233 C232 1.392 . S
N234 Co178 2.257 . S
N234 C231 1.391 . S
N234 C235 1.388 . S
C235 H206 0.930 . S
C235 C230 1.391 . S
C235 N234 1.388 . S
Co236 O238 2.143 . S
Co236 O244 2.074 . S
Co236 O247 2.093 . S
Co236 O260 2.097 . S
Co236 N277 2.151 . S
Co236 N285 2.214 . S
Co237 O238 2.160 . S
Co237 O243 2.058 . S
Co237 O253 2.057 . S
Co237 O268 2.037 . S
Co237 N272 2.145 . S
Co237 N293 2.257 . S
O238 Co236 2.143 . S
O238 Co237 2.160 . S
C239 O240 1.278 . S
C239 O247 1.224 . S
O240 C239 1.278 . S
C241 O242 1.245 . S
C241 O253 1.232 . S
O242 C241 1.245 . S
O243 Co237 2.058 . S
O243 C269 1.269 . S
O244 Co236 2.074 . S
O244 C269 1.257 . S
H245 C270 0.930 . S
H246 C276 0.930 . S
O247 Co236 2.093 . S
O247 C239 1.224 . S
H248 C280 0.929 . S
H249 C282 0.930 . S
H250 C283 0.930 . S
H251 C281 0.929 . S
H252 C284 0.928 . S
O253 Co237 2.057 . S
O253 C241 1.232 . S
H254 C273 0.929 . S
H255 C274 0.929 . S
H256 C286 0.931 . S
H257 C278 0.929 . S
H258 C287 0.930 . S
H259 C279 0.931 . S
O260 Co236 2.097 . S
O260 C288 1.214 . S
H261 C289 0.929 . S
H262 C290 0.929 . S
H263 C291 0.930 . S
H264 C292 0.929 . S
H265 C294 0.930 . S
H266 C271 0.930 . S
H267 C275 0.930 . S
O268 Co237 2.037 . S
O268 C288 1.234 . S
C269 O243 1.269 . S
C269 O244 1.257 . S
C270 H245 0.930 . S
C270 C273 1.388 . S
C270 C275 1.418 . S
C271 H266 0.930 . S
C271 C274 1.404 . S
C271 C275 1.353 . S
N272 Co237 2.145 . S
N272 C273 1.397 . S
N272 C274 1.334 . S
C273 H254 0.929 . S
C273 C270 1.388 . S
C273 N272 1.397 . S
C274 H255 0.929 . S
C274 C271 1.404 . S
C274 N272 1.334 . S
C275 H267 0.930 . S
C275 C270 1.418 . S
C275 C271 1.353 . S
C276 H246 0.930 . S
C276 N277 1.330 . S
C276 C278 1.446 . S
N277 Co236 2.151 . S
N277 C276 1.330 . S
N277 C281 1.418 . S
C278 H257 0.929 . S
C278 C276 1.446 . S
C278 C279 1.332 . S
C279 H259 0.931 . S
C279 C278 1.332 . S
C279 C280 1.267 . S
C280 H248 0.929 . S
C280 C279 1.267 . S
C280 C281 1.251 . S
C281 H251 0.929 . S
C281 N277 1.418 . S
C281 C280 1.251 . S
C282 H249 0.930 . S
C282 C284 1.406 . S
C282 C287 1.261 . S
C283 H250 0.930 . S
C283 N285 1.325 . S
C283 C286 1.357 . S
C284 H252 0.928 . S
C284 C282 1.406 . S
C284 N285 1.261 . S
N285 Co236 2.214 . S
N285 C283 1.325 . S
N285 C284 1.261 . S
C286 H256 0.931 . S
C286 C283 1.357 . S
C286 C287 1.312 . S
C287 H258 0.930 . S
C287 C282 1.261 . S
C287 C286 1.312 . S
C288 O260 1.214 . S
C288 O268 1.234 . S
C289 H261 0.929 . S
C289 C292 1.391 . S
C289 C294 1.391 . S
C290 H262 0.929 . S
C290 C291 1.390 . S
C290 N293 1.391 . S
C291 H263 0.930 . S
C291 C290 1.390 . S
C291 C292 1.392 . S
C292 H264 0.929 . S
C292 C289 1.391 . S
C292 C291 1.392 . S
N293 Co237 2.257 . S
N293 C290 1.391 . S
N293 C294 1.388 . S
C294 H265 0.930 . S
C294 C289 1.391 . S
C294 N293 1.388 . S
Co295 O297 2.143 . S
Co295 O303 2.074 . S
Co295 O306 2.093 . S
Co295 O319 2.097 . S
Co295 N336 2.151 . S
Co295 N344 2.214 . S
Co296 O297 2.160 . S
Co296 O302 2.058 . S
Co296 O312 2.057 . S
Co296 O327 2.037 . S
Co296 N331 2.145 . S
Co296 N352 2.257 . S
O297 Co295 2.143 . S
O297 Co296 2.160 . S
C298 O299 1.278 . S
C298 O306 1.224 . S
O299 C298 1.278 . S
C300 O301 1.245 . S
C300 O312 1.232 . S
O301 C300 1.245 . S
O302 Co296 2.058 . S
O302 C328 1.269 . S
O303 Co295 2.074 . S
O303 C328 1.257 . S
H304 C329 0.930 . S
H305 C335 0.930 . S
O306 Co295 2.093 . S
O306 C298 1.224 . S
H307 C339 0.929 . S
H308 C341 0.930 . S
H309 C342 0.930 . S
H310 C340 0.929 . S
H311 C343 0.928 . S
O312 Co296 2.057 . S
O312 C300 1.232 . S
H313 C332 0.929 . S
H314 C333 0.929 . S
H315 C345 0.931 . S
H316 C337 0.929 . S
H317 C346 0.930 . S
H318 C338 0.931 . S
O319 Co295 2.097 . S
O319 C347 1.214 . S
H320 C348 0.929 . S
H321 C349 0.929 . S
H322 C350 0.930 . S
H323 C351 0.929 . S
H324 C353 0.930 . S
H325 C330 0.930 . S
H326 C334 0.930 . S
O327 Co296 2.037 . S
O327 C347 1.234 . S
C328 O302 1.269 . S
C328 O303 1.257 . S
C329 H304 0.930 . S
C329 C332 1.388 . S
C329 C334 1.418 . S
C330 H325 0.930 . S
C330 C333 1.404 . S
C330 C334 1.353 . S
N331 Co296 2.145 . S
N331 C332 1.397 . S
N331 C333 1.334 . S
C332 H313 0.929 . S
C332 C329 1.388 . S
C332 N331 1.397 . S
C333 H314 0.929 . S
C333 C330 1.404 . S
C333 N331 1.334 . S
C334 H326 0.930 . S
C334 C329 1.418 . S
C334 C330 1.353 . S
C335 H305 0.930 . S
C335 N336 1.330 . S
C335 C337 1.446 . S
N336 Co295 2.151 . S
N336 C335 1.330 . S
N336 C340 1.418 . S
C337 H316 0.929 . S
C337 C335 1.446 . S
C337 C338 1.332 . S
C338 H318 0.931 . S
C338 C337 1.332 . S
C338 C339 1.267 . S
C339 H307 0.929 . S
C339 C338 1.267 . S
C339 C340 1.251 . S
C340 H310 0.929 . S
C340 N336 1.418 . S
C340 C339 1.251 . S
C341 H308 0.930 . S
C341 C343 1.406 . S
C341 C346 1.261 . S
C342 H309 0.930 . S
C342 N344 1.325 . S
C342 C345 1.357 . S
C343 H311 0.928 . S
C343 C341 1.406 . S
C343 N344 1.261 . S
N344 Co295 2.214 . S
N344 C342 1.325 . S
N344 C343 1.261 . S
C345 H315 0.931 . S
C345 C342 1.357 . S
C345 C346 1.312 . S
C346 H317 0.930 . S
C346 C341 1.261 . S
C346 C345 1.312 . S
C347 O319 1.214 . S
C347 O327 1.234 . S
C348 H320 0.929 . S
C348 C351 1.391 . S
C348 C353 1.391 . S
C349 H321 0.929 . S
C349 C350 1.390 . S
C349 N352 1.391 . S
C350 H322 0.930 . S
C350 C349 1.390 . S
C350 C351 1.392 . S
C351 H323 0.929 . S
C351 C348 1.391 . S
C351 C350 1.392 . S
N352 Co296 2.257 . S
N352 C349 1.391 . S
N352 C353 1.388 . S
C353 H324 0.930 . S
C353 C348 1.391 . S
C353 N352 1.388 . S
Co354 O356 2.143 . S
Co354 O362 2.074 . S
Co354 O365 2.093 . S
Co354 O378 2.097 . S
Co354 N395 2.151 . S
Co354 N403 2.214 . S
Co355 O356 2.160 . S
Co355 O361 2.058 . S
Co355 O371 2.057 . S
Co355 O386 2.037 . S
Co355 N390 2.145 . S
Co355 N411 2.257 . S
O356 Co354 2.143 . S
O356 Co355 2.160 . S
C357 O358 1.278 . S
C357 O365 1.224 . S
O358 C357 1.278 . S
C359 O360 1.245 . S
C359 O371 1.232 . S
O360 C359 1.245 . S
O361 Co355 2.058 . S
O361 C387 1.269 . S
O362 Co354 2.074 . S
O362 C387 1.257 . S
H363 C388 0.930 . S
H364 C394 0.930 . S
O365 Co354 2.093 . S
O365 C357 1.224 . S
H366 C398 0.929 . S
H367 C400 0.930 . S
H368 C401 0.930 . S
H369 C399 0.929 . S
H370 C402 0.928 . S
O371 Co355 2.057 . S
O371 C359 1.232 . S
H372 C391 0.929 . S
H373 C392 0.929 . S
H374 C404 0.931 . S
H375 C396 0.929 . S
H376 C405 0.930 . S
H377 C397 0.931 . S
O378 Co354 2.097 . S
O378 C406 1.214 . S
H379 C407 0.929 . S
H380 C408 0.929 . S
H381 C409 0.930 . S
H382 C410 0.929 . S
H383 C412 0.930 . S
H384 C389 0.930 . S
H385 C393 0.930 . S
O386 Co355 2.037 . S
O386 C406 1.234 . S
C387 O361 1.269 . S
C387 O362 1.257 . S
C388 H363 0.930 . S
C388 C391 1.388 . S
C388 C393 1.418 . S
C389 H384 0.930 . S
C389 C392 1.404 . S
C389 C393 1.353 . S
N390 Co355 2.145 . S
N390 C391 1.397 . S
N390 C392 1.334 . S
C391 H372 0.929 . S
C391 C388 1.388 . S
C391 N390 1.397 . S
C392 H373 0.929 . S
C392 C389 1.404 . S
C392 N390 1.334 . S
C393 H385 0.930 . S
C393 C388 1.418 . S
C393 C389 1.353 . S
C394 H364 0.930 . S
C394 N395 1.330 . S
C394 C396 1.446 . S
N395 Co354 2.151 . S
N395 C394 1.330 . S
N395 C399 1.418 . S
C396 H375 0.929 . S
C396 C394 1.446 . S
C396 C397 1.332 . S
C397 H377 0.931 . S
C397 C396 1.332 . S
C397 C398 1.267 . S
C398 H366 0.929 . S
C398 C397 1.267 . S
C398 C399 1.251 . S
C399 H369 0.929 . S
C399 N395 1.418 . S
C399 C398 1.251 . S
C400 H367 0.930 . S
C400 C402 1.406 . S
C400 C405 1.261 . S
C401 H368 0.930 . S
C401 N403 1.325 . S
C401 C404 1.357 . S
C402 H370 0.928 . S
C402 C400 1.406 . S
C402 N403 1.261 . S
N403 Co354 2.214 . S
N403 C401 1.325 . S
N403 C402 1.261 . S
C404 H374 0.931 . S
C404 C401 1.357 . S
C404 C405 1.312 . S
C405 H376 0.930 . S
C405 C400 1.261 . S
C405 C404 1.312 . S
C406 O378 1.214 . S
C406 O386 1.234 . S
C407 H379 0.929 . S
C407 C410 1.391 . S
C407 C412 1.391 . S
C408 H380 0.929 . S
C408 C409 1.390 . S
C408 N411 1.391 . S
C409 H381 0.930 . S
C409 C408 1.390 . S
C409 C410 1.392 . S
C410 H382 0.929 . S
C410 C407 1.391 . S
C410 C409 1.392 . S
N411 Co355 2.257 . S
N411 C408 1.391 . S
N411 C412 1.388 . S
C412 H383 0.930 . S
C412 C407 1.391 . S
C412 N411 1.388 . S
Co413 O415 2.143 . S
Co413 O421 2.074 . S
Co413 O424 2.093 . S
Co413 O437 2.097 . S
Co413 N454 2.151 . S
Co413 N462 2.214 . S
Co414 O415 2.160 . S
Co414 O420 2.058 . S
Co414 O430 2.057 . S
Co414 O445 2.037 . S
Co414 N449 2.145 . S
Co414 N470 2.257 . S
O415 Co413 2.143 . S
O415 Co414 2.160 . S
C416 O417 1.278 . S
C416 O424 1.224 . S
O417 C416 1.278 . S
C418 O419 1.245 . S
C418 O430 1.232 . S
O419 C418 1.245 . S
O420 Co414 2.058 . S
O420 C446 1.269 . S
O421 Co413 2.074 . S
O421 C446 1.257 . S
H422 C447 0.930 . S
H423 C453 0.930 . S
O424 Co413 2.093 . S
O424 C416 1.224 . S
H425 C457 0.929 . S
H426 C459 0.930 . S
H427 C460 0.930 . S
H428 C458 0.929 . S
H429 C461 0.928 . S
O430 Co414 2.057 . S
O430 C418 1.232 . S
H431 C450 0.929 . S
H432 C451 0.929 . S
H433 C463 0.931 . S
H434 C455 0.929 . S
H435 C464 0.930 . S
H436 C456 0.931 . S
O437 Co413 2.097 . S
O437 C465 1.214 . S
H438 C466 0.929 . S
H439 C467 0.929 . S
H440 C468 0.930 . S
H441 C469 0.929 . S
H442 C471 0.930 . S
H443 C448 0.930 . S
H444 C452 0.930 . S
O445 Co414 2.037 . S
O445 C465 1.234 . S
C446 O420 1.269 . S
C446 O421 1.257 . S
C447 H422 0.930 . S
C447 C450 1.388 . S
C447 C452 1.418 . S
C448 H443 0.930 . S
C448 C451 1.404 . S
C448 C452 1.353 . S
N449 Co414 2.145 . S
N449 C450 1.397 . S
N449 C451 1.334 . S
C450 H431 0.929 . S
C450 C447 1.388 . S
C450 N449 1.397 . S
C451 H432 0.929 . S
C451 C448 1.404 . S
C451 N449 1.334 . S
C452 H444 0.930 . S
C452 C447 1.418 . S
C452 C448 1.353 . S
C453 H423 0.930 . S
C453 N454 1.330 . S
C453 C455 1.446 . S
N454 Co413 2.151 . S
N454 C453 1.330 . S
N454 C458 1.418 . S
C455 H434 0.929 . S
C455 C453 1.446 . S
C455 C456 1.332 . S
C456 H436 0.931 . S
C456 C455 1.332 . S
C456 C457 1.267 . S
C457 H425 0.929 . S
C457 C456 1.267 . S
C457 C458 1.251 . S
C458 H428 0.929 . S
C458 N454 1.418 . S
C458 C457 1.251 . S
C459 H426 0.930 . S
C459 C461 1.406 . S
C459 C464 1.261 . S
C460 H427 0.930 . S
C460 N462 1.325 . S
C460 C463 1.357 . S
C461 H429 0.928 . S
C461 C459 1.406 . S
C461 N462 1.261 . S
N462 Co413 2.214 . S
N462 C460 1.325 . S
N462 C461 1.261 . S
C463 H433 0.931 . S
C463 C460 1.357 . S
C463 C464 1.312 . S
C464 H435 0.930 . S
C464 C459 1.261 . S
C464 C463 1.312 . S
C465 O437 1.214 . S
C465 O445 1.234 . S
C466 H438 0.929 . S
C466 C469 1.391 . S
C466 C471 1.391 . S
C467 H439 0.929 . S
C467 C468 1.390 . S
C467 N470 1.391 . S
C468 H440 0.930 . S
C468 C467 1.390 . S
C468 C469 1.392 . S
C469 H441 0.929 . S
C469 C466 1.391 . S
C469 C468 1.392 . S
N470 Co414 2.257 . S
N470 C467 1.391 . S
N470 C471 1.388 . S
C471 H442 0.930 . S
C471 C466 1.391 . S
C471 N470 1.388 . S
Co472 O474 2.143 . S
Co472 O480 2.074 . S
Co472 O483 2.093 . S
Co472 O496 2.097 . S
Co472 N513 2.151 . S
Co472 N521 2.214 . S
Co473 O474 2.160 . S
Co473 O479 2.058 . S
Co473 O489 2.057 . S
Co473 O504 2.037 . S
Co473 N508 2.145 . S
Co473 N529 2.257 . S
O474 Co472 2.143 . S
O474 Co473 2.160 . S
C475 O476 1.278 . S
C475 O483 1.224 . S
O476 C475 1.278 . S
C477 O478 1.245 . S
C477 O489 1.232 . S
O478 C477 1.245 . S
O479 Co473 2.058 . S
O479 C505 1.269 . S
O480 Co472 2.074 . S
O480 C505 1.257 . S
H481 C506 0.930 . S
H482 C512 0.930 . S
O483 Co472 2.093 . S
O483 C475 1.224 . S
H484 C516 0.929 . S
H485 C518 0.930 . S
H486 C519 0.930 . S
H487 C517 0.929 . S
H488 C520 0.928 . S
O489 Co473 2.057 . S
O489 C477 1.232 . S
H490 C509 0.929 . S
H491 C510 0.929 . S
H492 C522 0.931 . S
H493 C514 0.929 . S
H494 C523 0.930 . S
H495 C515 0.931 . S
O496 Co472 2.097 . S
O496 C524 1.214 . S
H497 C525 0.929 . S
H498 C526 0.929 . S
H499 C527 0.930 . S
H500 C528 0.929 . S
H501 C530 0.930 . S
H502 C507 0.930 . S
H503 C511 0.930 . S
O504 Co473 2.037 . S
O504 C524 1.234 . S
C505 O479 1.269 . S
C505 O480 1.257 . S
C506 H481 0.930 . S
C506 C509 1.388 . S
C506 C511 1.418 . S
C507 H502 0.930 . S
C507 C510 1.404 . S
C507 C511 1.353 . S
N508 Co473 2.145 . S
N508 C509 1.397 . S
N508 C510 1.334 . S
C509 H490 0.929 . S
C509 C506 1.388 . S
C509 N508 1.397 . S
C510 H491 0.929 . S
C510 C507 1.404 . S
C510 N508 1.334 . S
C511 H503 0.930 . S
C511 C506 1.418 . S
C511 C507 1.353 . S
C512 H482 0.930 . S
C512 N513 1.330 . S
C512 C514 1.446 . S
N513 Co472 2.151 . S
N513 C512 1.330 . S
N513 C517 1.418 . S
C514 H493 0.929 . S
C514 C512 1.446 . S
C514 C515 1.332 . S
C515 H495 0.931 . S
C515 C514 1.332 . S
C515 C516 1.267 . S
C516 H484 0.929 . S
C516 C515 1.267 . S
C516 C517 1.251 . S
C517 H487 0.929 . S
C517 N513 1.418 . S
C517 C516 1.251 . S
C518 H485 0.930 . S
C518 C520 1.406 . S
C518 C523 1.261 . S
C519 H486 0.930 . S
C519 N521 1.325 . S
C519 C522 1.357 . S
C520 H488 0.928 . S
C520 C518 1.406 . S
C520 N521 1.261 . S
N521 Co472 2.214 . S
N521 C519 1.325 . S
N521 C520 1.261 . S
C522 H492 0.931 . S
C522 C519 1.357 . S
C522 C523 1.312 . S
C523 H494 0.930 . S
C523 C518 1.261 . S
C523 C522 1.312 . S
C524 O496 1.214 . S
C524 O504 1.234 . S
C525 H497 0.929 . S
C525 C528 1.391 . S
C525 C530 1.391 . S
C526 H498 0.929 . S
C526 C527 1.390 . S
C526 N529 1.391 . S
C527 H499 0.930 . S
C527 C526 1.390 . S
C527 C528 1.392 . S
C528 H500 0.929 . S
C528 C525 1.391 . S
C528 C527 1.392 . S
N529 Co473 2.257 . S
N529 C526 1.391 . S
N529 C530 1.388 . S
C530 H501 0.930 . S
C530 C525 1.391 . S
C530 N529 1.388 . S
Co531 O533 2.143 . S
Co531 O539 2.074 . S
Co531 O542 2.093 . S
Co531 O555 2.097 . S
Co531 N572 2.151 . S
Co531 N580 2.214 . S
Co532 O533 2.160 . S
Co532 O538 2.058 . S
Co532 O548 2.057 . S
Co532 O563 2.037 . S
Co532 N567 2.145 . S
Co532 N588 2.257 . S
O533 Co531 2.143 . S
O533 Co532 2.160 . S
C534 O535 1.278 . S
C534 O542 1.224 . S
O535 C534 1.278 . S
C536 O537 1.245 . S
C536 O548 1.232 . S
O537 C536 1.245 . S
O538 Co532 2.058 . S
O538 C564 1.269 . S
O539 Co531 2.074 . S
O539 C564 1.257 . S
H540 C565 0.930 . S
H541 C571 0.930 . S
O542 Co531 2.093 . S
O542 C534 1.224 . S
H543 C575 0.929 . S
H544 C577 0.930 . S
H545 C578 0.930 . S
H546 C576 0.929 . S
H547 C579 0.928 . S
O548 Co532 2.057 . S
O548 C536 1.232 . S
H549 C568 0.929 . S
H550 C569 0.929 . S
H551 C581 0.931 . S
H552 C573 0.929 . S
H553 C582 0.930 . S
H554 C574 0.931 . S
O555 Co531 2.097 . S
O555 C583 1.214 . S
H556 C584 0.929 . S
H557 C585 0.929 . S
H558 C586 0.930 . S
H559 C587 0.929 . S
H560 C589 0.930 . S
H561 C566 0.930 . S
H562 C570 0.930 . S
O563 Co532 2.037 . S
O563 C583 1.234 . S
C564 O538 1.269 . S
C564 O539 1.257 . S
C565 H540 0.930 . S
C565 C568 1.388 . S
C565 C570 1.418 . S
C566 H561 0.930 . S
C566 C569 1.404 . S
C566 C570 1.353 . S
N567 Co532 2.145 . S
N567 C568 1.397 . S
N567 C569 1.334 . S
C568 H549 0.929 . S
C568 C565 1.388 . S
C568 N567 1.397 . S
C569 H550 0.929 . S
C569 C566 1.404 . S
C569 N567 1.334 . S
C570 H562 0.930 . S
C570 C565 1.418 . S
C570 C566 1.353 . S
C571 H541 0.930 . S
C571 N572 1.330 . S
C571 C573 1.446 . S
N572 Co531 2.151 . S
N572 C571 1.330 . S
N572 C576 1.418 . S
C573 H552 0.929 . S
C573 C571 1.446 . S
C573 C574 1.332 . S
C574 H554 0.931 . S
C574 C573 1.332 . S
C574 C575 1.267 . S
C575 H543 0.929 . S
C575 C574 1.267 . S
C575 C576 1.251 . S
C576 H546 0.929 . S
C576 N572 1.418 . S
C576 C575 1.251 . S
C577 H544 0.930 . S
C577 C579 1.406 . S
C577 C582 1.261 . S
C578 H545 0.930 . S
C578 N580 1.325 . S
C578 C581 1.357 . S
C579 H547 0.928 . S
C579 C577 1.406 . S
C579 N580 1.261 . S
N580 Co531 2.214 . S
N580 C578 1.325 . S
N580 C579 1.261 . S
C581 H551 0.931 . S
C581 C578 1.357 . S
C581 C582 1.312 . S
C582 H553 0.930 . S
C582 C577 1.261 . S
C582 C581 1.312 . S
C583 O555 1.214 . S
C583 O563 1.234 . S
C584 H556 0.929 . S
C584 C587 1.391 . S
C584 C589 1.391 . S
C585 H557 0.929 . S
C585 C586 1.390 . S
C585 N588 1.391 . S
C586 H558 0.930 . S
C586 C585 1.390 . S
C586 C587 1.392 . S
C587 H559 0.929 . S
C587 C584 1.391 . S
C587 C586 1.392 . S
N588 Co532 2.257 . S
N588 C585 1.391 . S
N588 C589 1.388 . S
C589 H560 0.930 . S
C589 C584 1.391 . S
C589 N588 1.388 . S
Co590 O592 2.143 . S
Co590 O598 2.074 . S
Co590 O601 2.093 . S
Co590 O614 2.097 . S
Co590 N631 2.151 . S
Co590 N639 2.214 . S
Co591 O592 2.160 . S
Co591 O597 2.058 . S
Co591 O607 2.057 . S
Co591 O622 2.037 . S
Co591 N626 2.145 . S
Co591 N647 2.257 . S
O592 Co590 2.143 . S
O592 Co591 2.160 . S
C593 O594 1.278 . S
C593 O601 1.224 . S
O594 C593 1.278 . S
C595 O596 1.245 . S
C595 O607 1.232 . S
O596 C595 1.245 . S
O597 Co591 2.058 . S
O597 C623 1.269 . S
O598 Co590 2.074 . S
O598 C623 1.257 . S
H599 C624 0.930 . S
H600 C630 0.930 . S
O601 Co590 2.093 . S
O601 C593 1.224 . S
H602 C634 0.929 . S
H603 C636 0.930 . S
H604 C637 0.930 . S
H605 C635 0.929 . S
H606 C638 0.928 . S
O607 Co591 2.057 . S
O607 C595 1.232 . S
H608 C627 0.929 . S
H609 C628 0.929 . S
H610 C640 0.931 . S
H611 C632 0.929 . S
H612 C641 0.930 . S
H613 C633 0.931 . S
O614 Co590 2.097 . S
O614 C642 1.214 . S
H615 C643 0.929 . S
H616 C644 0.929 . S
H617 C645 0.930 . S
H618 C646 0.929 . S
H619 C648 0.930 . S
H620 C625 0.930 . S
H621 C629 0.930 . S
O622 Co591 2.037 . S
O622 C642 1.234 . S
C623 O597 1.269 . S
C623 O598 1.257 . S
C624 H599 0.930 . S
C624 C627 1.388 . S
C624 C629 1.418 . S
C625 H620 0.930 . S
C625 C628 1.404 . S
C625 C629 1.353 . S
N626 Co591 2.145 . S
N626 C627 1.397 . S
N626 C628 1.334 . S
C627 H608 0.929 . S
C627 C624 1.388 . S
C627 N626 1.397 . S
C628 H609 0.929 . S
C628 C625 1.404 . S
C628 N626 1.334 . S
C629 H621 0.930 . S
C629 C624 1.418 . S
C629 C625 1.353 . S
C630 H600 0.930 . S
C630 N631 1.330 . S
C630 C632 1.446 . S
N631 Co590 2.151 . S
N631 C630 1.330 . S
N631 C635 1.418 . S
C632 H611 0.929 . S
C632 C630 1.446 . S
C632 C633 1.332 . S
C633 H613 0.931 . S
C633 C632 1.332 . S
C633 C634 1.267 . S
C634 H602 0.929 . S
C634 C633 1.267 . S
C634 C635 1.251 . S
C635 H605 0.929 . S
C635 N631 1.418 . S
C635 C634 1.251 . S
C636 H603 0.930 . S
C636 C638 1.406 . S
C636 C641 1.261 . S
C637 H604 0.930 . S
C637 N639 1.325 . S
C637 C640 1.357 . S
C638 H606 0.928 . S
C638 C636 1.406 . S
C638 N639 1.261 . S
N639 Co590 2.214 . S
N639 C637 1.325 . S
N639 C638 1.261 . S
C640 H610 0.931 . S
C640 C637 1.357 . S
C640 C641 1.312 . S
C641 H612 0.930 . S
C641 C636 1.261 . S
C641 C640 1.312 . S
C642 O614 1.214 . S
C642 O622 1.234 . S
C643 H615 0.929 . S
C643 C646 1.391 . S
C643 C648 1.391 . S
C644 H616 0.929 . S
C644 C645 1.390 . S
C644 N647 1.391 . S
C645 H617 0.930 . S
C645 C644 1.390 . S
C645 C646 1.392 . S
C646 H618 0.929 . S
C646 C643 1.391 . S
C646 C645 1.392 . S
N647 Co591 2.257 . S
N647 C644 1.391 . S
N647 C648 1.388 . S
C648 H619 0.930 . S
C648 C643 1.391 . S
C648 N647 1.388 . S
Co649 O651 2.143 . S
Co649 O657 2.074 . S
Co649 O660 2.093 . S
Co649 O673 2.097 . S
Co649 N690 2.151 . S
Co649 N698 2.214 . S
Co650 O651 2.160 . S
Co650 O656 2.058 . S
Co650 O666 2.057 . S
Co650 O681 2.037 . S
Co650 N685 2.145 . S
Co650 N706 2.257 . S
O651 Co649 2.143 . S
O651 Co650 2.160 . S
C652 O653 1.278 . S
C652 O660 1.224 . S
O653 C652 1.278 . S
C654 O655 1.245 . S
C654 O666 1.232 . S
O655 C654 1.245 . S
O656 Co650 2.058 . S
O656 C682 1.269 . S
O657 Co649 2.074 . S
O657 C682 1.257 . S
H658 C683 0.930 . S
H659 C689 0.930 . S
O660 Co649 2.093 . S
O660 C652 1.224 . S
H661 C693 0.929 . S
H662 C695 0.930 . S
H663 C696 0.930 . S
H664 C694 0.929 . S
H665 C697 0.928 . S
O666 Co650 2.057 . S
O666 C654 1.232 . S
H667 C686 0.929 . S
H668 C687 0.929 . S
H669 C699 0.931 . S
H670 C691 0.929 . S
H671 C700 0.930 . S
H672 C692 0.931 . S
O673 Co649 2.097 . S
O673 C701 1.214 . S
H674 C702 0.929 . S
H675 C703 0.929 . S
H676 C704 0.930 . S
H677 C705 0.929 . S
H678 C707 0.930 . S
H679 C684 0.930 . S
H680 C688 0.930 . S
O681 Co650 2.037 . S
O681 C701 1.234 . S
C682 O656 1.269 . S
C682 O657 1.257 . S
C683 H658 0.930 . S
C683 C686 1.388 . S
C683 C688 1.418 . S
C684 H679 0.930 . S
C684 C687 1.404 . S
C684 C688 1.353 . S
N685 Co650 2.145 . S
N685 C686 1.397 . S
N685 C687 1.334 . S
C686 H667 0.929 . S
C686 C683 1.388 . S
C686 N685 1.397 . S
C687 H668 0.929 . S
C687 C684 1.404 . S
C687 N685 1.334 . S
C688 H680 0.930 . S
C688 C683 1.418 . S
C688 C684 1.353 . S
C689 H659 0.930 . S
C689 N690 1.330 . S
C689 C691 1.446 . S
N690 Co649 2.151 . S
N690 C689 1.330 . S
N690 C694 1.418 . S
C691 H670 0.929 . S
C691 C689 1.446 . S
C691 C692 1.332 . S
C692 H672 0.931 . S
C692 C691 1.332 . S
C692 C693 1.267 . S
C693 H661 0.929 . S
C693 C692 1.267 . S
C693 C694 1.251 . S
C694 H664 0.929 . S
C694 N690 1.418 . S
C694 C693 1.251 . S
C695 H662 0.930 . S
C695 C697 1.406 . S
C695 C700 1.261 . S
C696 H663 0.930 . S
C696 N698 1.325 . S
C696 C699 1.357 . S
C697 H665 0.928 . S
C697 C695 1.406 . S
C697 N698 1.261 . S
N698 Co649 2.214 . S
N698 C696 1.325 . S
N698 C697 1.261 . S
C699 H669 0.931 . S
C699 C696 1.357 . S
C699 C700 1.312 . S
C700 H671 0.930 . S
C700 C695 1.261 . S
C700 C699 1.312 . S
C701 O673 1.214 . S
C701 O681 1.234 . S
C702 H674 0.929 . S
C702 C705 1.391 . S
C702 C707 1.391 . S
C703 H675 0.929 . S
C703 C704 1.390 . S
C703 N706 1.391 . S
C704 H676 0.930 . S
C704 C703 1.390 . S
C704 C705 1.392 . S
C705 H677 0.929 . S
C705 C702 1.391 . S
C705 C704 1.392 . S
N706 Co650 2.257 . S
N706 C703 1.391 . S
N706 C707 1.388 . S
C707 H678 0.930 . S
C707 C702 1.391 . S
C707 N706 1.388 . S
Co708 O710 2.143 . S
Co708 O716 2.074 . S
Co708 O719 2.093 . S
Co708 O732 2.097 . S
Co708 N749 2.151 . S
Co708 N757 2.214 . S
Co709 O710 2.160 . S
Co709 O715 2.058 . S
Co709 O725 2.057 . S
Co709 O740 2.037 . S
Co709 N744 2.145 . S
Co709 N765 2.257 . S
O710 Co708 2.143 . S
O710 Co709 2.160 . S
C711 O712 1.278 . S
C711 O719 1.224 . S
O712 C711 1.278 . S
C713 O714 1.245 . S
C713 O725 1.232 . S
O714 C713 1.245 . S
O715 Co709 2.058 . S
O715 C741 1.269 . S
O716 Co708 2.074 . S
O716 C741 1.257 . S
H717 C742 0.930 . S
H718 C748 0.930 . S
O719 Co708 2.093 . S
O719 C711 1.224 . S
H720 C752 0.929 . S
H721 C754 0.930 . S
H722 C755 0.930 . S
H723 C753 0.929 . S
H724 C756 0.928 . S
O725 Co709 2.057 . S
O725 C713 1.232 . S
H726 C745 0.929 . S
H727 C746 0.929 . S
H728 C758 0.931 . S
H729 C750 0.929 . S
H730 C759 0.930 . S
H731 C751 0.931 . S
O732 Co708 2.097 . S
O732 C760 1.214 . S
H733 C761 0.929 . S
H734 C762 0.929 . S
H735 C763 0.930 . S
H736 C764 0.929 . S
H737 C766 0.930 . S
H738 C743 0.930 . S
H739 C747 0.930 . S
O740 Co709 2.037 . S
O740 C760 1.234 . S
C741 O715 1.269 . S
C741 O716 1.257 . S
C742 H717 0.930 . S
C742 C745 1.388 . S
C742 C747 1.418 . S
C743 H738 0.930 . S
C743 C746 1.404 . S
C743 C747 1.353 . S
N744 Co709 2.145 . S
N744 C745 1.397 . S
N744 C746 1.334 . S
C745 H726 0.929 . S
C745 C742 1.388 . S
C745 N744 1.397 . S
C746 H727 0.929 . S
C746 C743 1.404 . S
C746 N744 1.334 . S
C747 H739 0.930 . S
C747 C742 1.418 . S
C747 C743 1.353 . S
C748 H718 0.930 . S
C748 N749 1.330 . S
C748 C750 1.446 . S
N749 Co708 2.151 . S
N749 C748 1.330 . S
N749 C753 1.418 . S
C750 H729 0.929 . S
C750 C748 1.446 . S
C750 C751 1.332 . S
C751 H731 0.931 . S
C751 C750 1.332 . S
C751 C752 1.267 . S
C752 H720 0.929 . S
C752 C751 1.267 . S
C752 C753 1.251 . S
C753 H723 0.929 . S
C753 N749 1.418 . S
C753 C752 1.251 . S
C754 H721 0.930 . S
C754 C756 1.406 . S
C754 C759 1.261 . S
C755 H722 0.930 . S
C755 N757 1.325 . S
C755 C758 1.357 . S
C756 H724 0.928 . S
C756 C754 1.406 . S
C756 N757 1.261 . S
N757 Co708 2.214 . S
N757 C755 1.325 . S
N757 C756 1.261 . S
C758 H728 0.931 . S
C758 C755 1.357 . S
C758 C759 1.312 . S
C759 H730 0.930 . S
C759 C754 1.261 . S
C759 C758 1.312 . S
C760 O732 1.214 . S
C760 O740 1.234 . S
C761 H733 0.929 . S
C761 C764 1.391 . S
C761 C766 1.391 . S
C762 H734 0.929 . S
C762 C763 1.390 . S
C762 N765 1.391 . S
C763 H735 0.930 . S
C763 C762 1.390 . S
C763 C764 1.392 . S
C764 H736 0.929 . S
C764 C761 1.391 . S
C764 C763 1.392 . S
N765 Co709 2.257 . S
N765 C762 1.391 . S
N765 C766 1.388 . S
C766 H737 0.930 . S
C766 C761 1.391 . S
C766 N765 1.388 . S
Co767 O769 2.143 . S
Co767 O775 2.074 . S
Co767 O778 2.093 . S
Co767 O791 2.097 . S
Co767 N808 2.151 . S
Co767 N816 2.214 . S
Co768 O769 2.160 . S
Co768 O774 2.058 . S
Co768 O784 2.057 . S
Co768 O799 2.037 . S
Co768 N803 2.145 . S
Co768 N824 2.257 . S
O769 Co767 2.143 . S
O769 Co768 2.160 . S
C770 O771 1.278 . S
C770 O778 1.224 . S
O771 C770 1.278 . S
C772 O773 1.245 . S
C772 O784 1.232 . S
O773 C772 1.245 . S
O774 Co768 2.058 . S
O774 C800 1.269 . S
O775 Co767 2.074 . S
O775 C800 1.257 . S
H776 C801 0.930 . S
H777 C807 0.930 . S
O778 Co767 2.093 . S
O778 C770 1.224 . S
H779 C811 0.929 . S
H780 C813 0.930 . S
H781 C814 0.930 . S
H782 C812 0.929 . S
H783 C815 0.928 . S
O784 Co768 2.057 . S
O784 C772 1.232 . S
H785 C804 0.929 . S
H786 C805 0.929 . S
H787 C817 0.931 . S
H788 C809 0.929 . S
H789 C818 0.930 . S
H790 C810 0.931 . S
O791 Co767 2.097 . S
O791 C819 1.214 . S
H792 C820 0.929 . S
H793 C821 0.929 . S
H794 C822 0.930 . S
H795 C823 0.929 . S
H796 C825 0.930 . S
H797 C802 0.930 . S
H798 C806 0.930 . S
O799 Co768 2.037 . S
O799 C819 1.234 . S
C800 O774 1.269 . S
C800 O775 1.257 . S
C801 H776 0.930 . S
C801 C804 1.388 . S
C801 C806 1.418 . S
C802 H797 0.930 . S
C802 C805 1.404 . S
C802 C806 1.353 . S
N803 Co768 2.145 . S
N803 C804 1.397 . S
N803 C805 1.334 . S
C804 H785 0.929 . S
C804 C801 1.388 . S
C804 N803 1.397 . S
C805 H786 0.929 . S
C805 C802 1.404 . S
C805 N803 1.334 . S
C806 H798 0.930 . S
C806 C801 1.418 . S
C806 C802 1.353 . S
C807 H777 0.930 . S
C807 N808 1.330 . S
C807 C809 1.446 . S
N808 Co767 2.151 . S
N808 C807 1.330 . S
N808 C812 1.418 . S
C809 H788 0.929 . S
C809 C807 1.446 . S
C809 C810 1.332 . S
C810 H790 0.931 . S
C810 C809 1.332 . S
C810 C811 1.267 . S
C811 H779 0.929 . S
C811 C810 1.267 . S
C811 C812 1.251 . S
C812 H782 0.929 . S
C812 N808 1.418 . S
C812 C811 1.251 . S
C813 H780 0.930 . S
C813 C815 1.406 . S
C813 C818 1.261 . S
C814 H781 0.930 . S
C814 N816 1.325 . S
C814 C817 1.357 . S
C815 H783 0.928 . S
C815 C813 1.406 . S
C815 N816 1.261 . S
N816 Co767 2.214 . S
N816 C814 1.325 . S
N816 C815 1.261 . S
C817 H787 0.931 . S
C817 C814 1.357 . S
C817 C818 1.312 . S
C818 H789 0.930 . S
C818 C813 1.261 . S
C818 C817 1.312 . S
C819 O791 1.214 . S
C819 O799 1.234 . S
C820 H792 0.929 . S
C820 C823 1.391 . S
C820 C825 1.391 . S
C821 H793 0.929 . S
C821 C822 1.390 . S
C821 N824 1.391 . S
C822 H794 0.930 . S
C822 C821 1.390 . S
C822 C823 1.392 . S
C823 H795 0.929 . S
C823 C820 1.391 . S
C823 C822 1.392 . S
N824 Co768 2.257 . S
N824 C821 1.391 . S
N824 C825 1.388 . S
C825 H796 0.930 . S
C825 C820 1.391 . S
C825 N824 1.388 . S
Co826 O828 2.143 . S
Co826 O834 2.074 . S
Co826 O837 2.093 . S
Co826 O850 2.097 . S
Co826 N867 2.151 . S
Co826 N875 2.214 . S
Co827 O828 2.160 . S
Co827 O833 2.058 . S
Co827 O843 2.057 . S
Co827 O858 2.037 . S
Co827 N862 2.145 . S
Co827 N883 2.257 . S
O828 Co826 2.143 . S
O828 Co827 2.160 . S
C829 O830 1.278 . S
C829 O837 1.224 . S
O830 C829 1.278 . S
C831 O832 1.245 . S
C831 O843 1.232 . S
O832 C831 1.245 . S
O833 Co827 2.058 . S
O833 C859 1.269 . S
O834 Co826 2.074 . S
O834 C859 1.257 . S
H835 C860 0.930 . S
H836 C866 0.930 . S
O837 Co826 2.093 . S
O837 C829 1.224 . S
H838 C870 0.929 . S
H839 C872 0.930 . S
H840 C873 0.930 . S
H841 C871 0.929 . S
H842 C874 0.928 . S
O843 Co827 2.057 . S
O843 C831 1.232 . S
H844 C863 0.929 . S
H845 C864 0.929 . S
H846 C876 0.931 . S
H847 C868 0.929 . S
H848 C877 0.930 . S
H849 C869 0.931 . S
O850 Co826 2.097 . S
O850 C878 1.214 . S
H851 C879 0.929 . S
H852 C880 0.929 . S
H853 C881 0.930 . S
H854 C882 0.929 . S
H855 C884 0.930 . S
H856 C861 0.930 . S
H857 C865 0.930 . S
O858 Co827 2.037 . S
O858 C878 1.234 . S
C859 O833 1.269 . S
C859 O834 1.257 . S
C860 H835 0.930 . S
C860 C863 1.388 . S
C860 C865 1.418 . S
C861 H856 0.930 . S
C861 C864 1.404 . S
C861 C865 1.353 . S
N862 Co827 2.145 . S
N862 C863 1.397 . S
N862 C864 1.334 . S
C863 H844 0.929 . S
C863 C860 1.388 . S
C863 N862 1.397 . S
C864 H845 0.929 . S
C864 C861 1.404 . S
C864 N862 1.334 . S
C865 H857 0.930 . S
C865 C860 1.418 . S
C865 C861 1.353 . S
C866 H836 0.930 . S
C866 N867 1.330 . S
C866 C868 1.446 . S
N867 Co826 2.151 . S
N867 C866 1.330 . S
N867 C871 1.418 . S
C868 H847 0.929 . S
C868 C866 1.446 . S
C868 C869 1.332 . S
C869 H849 0.931 . S
C869 C868 1.332 . S
C869 C870 1.267 . S
C870 H838 0.929 . S
C870 C869 1.267 . S
C870 C871 1.251 . S
C871 H841 0.929 . S
C871 N867 1.418 . S
C871 C870 1.251 . S
C872 H839 0.930 . S
C872 C874 1.406 . S
C872 C877 1.261 . S
C873 H840 0.930 . S
C873 N875 1.325 . S
C873 C876 1.357 . S
C874 H842 0.928 . S
C874 C872 1.406 . S
C874 N875 1.261 . S
N875 Co826 2.214 . S
N875 C873 1.325 . S
N875 C874 1.261 . S
C876 H846 0.931 . S
C876 C873 1.357 . S
C876 C877 1.312 . S
C877 H848 0.930 . S
C877 C872 1.261 . S
C877 C876 1.312 . S
C878 O850 1.214 . S
C878 O858 1.234 . S
C879 H851 0.929 . S
C879 C882 1.391 . S
C879 C884 1.391 . S
C880 H852 0.929 . S
C880 C881 1.390 . S
C880 N883 1.391 . S
C881 H853 0.930 . S
C881 C880 1.390 . S
C881 C882 1.392 . S
C882 H854 0.929 . S
C882 C879 1.391 . S
C882 C881 1.392 . S
N883 Co827 2.257 . S
N883 C880 1.391 . S
N883 C884 1.388 . S
C884 H855 0.930 . S
C884 C879 1.391 . S
C884 N883 1.388 . S
Co885 O887 2.143 . S
Co885 O893 2.074 . S
Co885 O896 2.093 . S
Co885 O909 2.097 . S
Co885 N926 2.151 . S
Co885 N934 2.214 . S
Co886 O887 2.160 . S
Co886 O892 2.058 . S
Co886 O902 2.057 . S
Co886 O917 2.037 . S
Co886 N921 2.145 . S
Co886 N942 2.257 . S
O887 Co885 2.143 . S
O887 Co886 2.160 . S
C888 O889 1.278 . S
C888 O896 1.224 . S
O889 C888 1.278 . S
C890 O891 1.245 . S
C890 O902 1.232 . S
O891 C890 1.245 . S
O892 Co886 2.058 . S
O892 C918 1.269 . S
O893 Co885 2.074 . S
O893 C918 1.257 . S
H894 C919 0.930 . S
H895 C925 0.930 . S
O896 Co885 2.093 . S
O896 C888 1.224 . S
H897 C929 0.929 . S
H898 C931 0.930 . S
H899 C932 0.930 . S
H900 C930 0.929 . S
H901 C933 0.928 . S
O902 Co886 2.057 . S
O902 C890 1.232 . S
H903 C922 0.929 . S
H904 C923 0.929 . S
H905 C935 0.931 . S
H906 C927 0.929 . S
H907 C936 0.930 . S
H908 C928 0.931 . S
O909 Co885 2.097 . S
O909 C937 1.214 . S
H910 C938 0.929 . S
H911 C939 0.929 . S
H912 C940 0.930 . S
H913 C941 0.929 . S
H914 C943 0.930 . S
H915 C920 0.930 . S
H916 C924 0.930 . S
O917 Co886 2.037 . S
O917 C937 1.234 . S
C918 O892 1.269 . S
C918 O893 1.257 . S
C919 H894 0.930 . S
C919 C922 1.388 . S
C919 C924 1.418 . S
C920 H915 0.930 . S
C920 C923 1.404 . S
C920 C924 1.353 . S
N921 Co886 2.145 . S
N921 C922 1.397 . S
N921 C923 1.334 . S
C922 H903 0.929 . S
C922 C919 1.388 . S
C922 N921 1.397 . S
C923 H904 0.929 . S
C923 C920 1.404 . S
C923 N921 1.334 . S
C924 H916 0.930 . S
C924 C919 1.418 . S
C924 C920 1.353 . S
C925 H895 0.930 . S
C925 N926 1.330 . S
C925 C927 1.446 . S
N926 Co885 2.151 . S
N926 C925 1.330 . S
N926 C930 1.418 . S
C927 H906 0.929 . S
C927 C925 1.446 . S
C927 C928 1.332 . S
C928 H908 0.931 . S
C928 C927 1.332 . S
C928 C929 1.267 . S
C929 H897 0.929 . S
C929 C928 1.267 . S
C929 C930 1.251 . S
C930 H900 0.929 . S
C930 N926 1.418 . S
C930 C929 1.251 . S
C931 H898 0.930 . S
C931 C933 1.406 . S
C931 C936 1.261 . S
C932 H899 0.930 . S
C932 N934 1.325 . S
C932 C935 1.357 . S
C933 H901 0.928 . S
C933 C931 1.406 . S
C933 N934 1.261 . S
N934 Co885 2.214 . S
N934 C932 1.325 . S
N934 C933 1.261 . S
C935 H905 0.931 . S
C935 C932 1.357 . S
C935 C936 1.312 . S
C936 H907 0.930 . S
C936 C931 1.261 . S
C936 C935 1.312 . S
C937 O909 1.214 . S
C937 O917 1.234 . S
C938 H910 0.929 . S
C938 C941 1.391 . S
C938 C943 1.391 . S
C939 H911 0.929 . S
C939 C940 1.390 . S
C939 N942 1.391 . S
C940 H912 0.930 . S
C940 C939 1.390 . S
C940 C941 1.392 . S
C941 H913 0.929 . S
C941 C938 1.391 . S
C941 C940 1.392 . S
N942 Co886 2.257 . S
N942 C939 1.391 . S
N942 C943 1.388 . S
C943 H914 0.930 . S
C943 C938 1.391 . S
C943 N942 1.388 . S
Co944 O946 2.143 . S
Co944 O952 2.074 . S
Co944 O955 2.093 . S
Co944 O968 2.097 . S
Co944 N985 2.151 . S
Co944 N993 2.214 . S
Co945 O946 2.160 . S
Co945 O951 2.058 . S
Co945 O961 2.057 . S
Co945 O976 2.037 . S
Co945 N980 2.145 . S
Co945 N1001 2.257 . S
O946 Co944 2.143 . S
O946 Co945 2.160 . S
C947 O948 1.278 . S
C947 O955 1.224 . S
O948 C947 1.278 . S
C949 O950 1.245 . S
C949 O961 1.232 . S
O950 C949 1.245 . S
O951 Co945 2.058 . S
O951 C977 1.269 . S
O952 Co944 2.074 . S
O952 C977 1.257 . S
H953 C978 0.930 . S
H954 C984 0.930 . S
O955 Co944 2.093 . S
O955 C947 1.224 . S
H956 C988 0.929 . S
H957 C990 0.930 . S
H958 C991 0.930 . S
H959 C989 0.929 . S
H960 C992 0.928 . S
O961 Co945 2.057 . S
O961 C949 1.232 . S
H962 C981 0.929 . S
H963 C982 0.929 . S
H964 C994 0.931 . S
H965 C986 0.929 . S
H966 C995 0.930 . S
H967 C987 0.931 . S
O968 Co944 2.097 . S
O968 C996 1.214 . S
H969 C997 0.929 . S
H970 C998 0.929 . S
H971 C999 0.930 . S
H972 C1000 0.929 . S
H973 C1002 0.930 . S
H974 C979 0.930 . S
H975 C983 0.930 . S
O976 Co945 2.037 . S
O976 C996 1.234 . S
C977 O951 1.269 . S
C977 O952 1.257 . S
C978 H953 0.930 . S
C978 C981 1.388 . S
C978 C983 1.418 . S
C979 H974 0.930 . S
C979 C982 1.404 . S
C979 C983 1.353 . S
N980 Co945 2.145 . S
N980 C981 1.397 . S
N980 C982 1.334 . S
C981 H962 0.929 . S
C981 C978 1.388 . S
C981 N980 1.397 . S
C982 H963 0.929 . S
C982 C979 1.404 . S
C982 N980 1.334 . S
C983 H975 0.930 . S
C983 C978 1.418 . S
C983 C979 1.353 . S
C984 H954 0.930 . S
C984 N985 1.330 . S
C984 C986 1.446 . S
N985 Co944 2.151 . S
N985 C984 1.330 . S
N985 C989 1.418 . S
C986 H965 0.929 . S
C986 C984 1.446 . S
C986 C987 1.332 . S
C987 H967 0.931 . S
C987 C986 1.332 . S
C987 C988 1.267 . S
C988 H956 0.929 . S
C988 C987 1.267 . S
C988 C989 1.251 . S
C989 H959 0.929 . S
C989 N985 1.418 . S
C989 C988 1.251 . S
C990 H957 0.930 . S
C990 C992 1.406 . S
C990 C995 1.261 . S
C991 H958 0.930 . S
C991 N993 1.325 . S
C991 C994 1.357 . S
C992 H960 0.928 . S
C992 C990 1.406 . S
C992 N993 1.261 . S
N993 Co944 2.214 . S
N993 C991 1.325 . S
N993 C992 1.261 . S
C994 H964 0.931 . S
C994 C991 1.357 . S
C994 C995 1.312 . S
C995 H966 0.930 . S
C995 C990 1.261 . S
C995 C994 1.312 . S
C996 O968 1.214 . S
C996 O976 1.234 . S
C997 H969 0.929 . S
C997 C1000 1.391 . S
C997 C1002 1.391 . S
C998 H970 0.929 . S
C998 C999 1.390 . S
C998 N1001 1.391 . S
C999 H971 0.930 . S
C999 C998 1.390 . S
C999 C1000 1.392 . S
C1000 H972 0.929 . S
C1000 C997 1.391 . S
C1000 C999 1.392 . S
N1001 Co945 2.257 . S
N1001 C998 1.391 . S
N1001 C1002 1.388 . S
C1002 H973 0.930 . S
C1002 C997 1.391 . S
C1002 N1001 1.388 . S
Co1003 O1005 2.143 . S
Co1003 O1011 2.074 . S
Co1003 O1014 2.093 . S
Co1003 O1027 2.097 . S
Co1003 N1044 2.151 . S
Co1003 N1052 2.214 . S
Co1004 O1005 2.160 . S
Co1004 O1010 2.058 . S
Co1004 O1020 2.057 . S
Co1004 O1035 2.037 . S
Co1004 N1039 2.145 . S
Co1004 N1060 2.257 . S
O1005 Co1003 2.143 . S
O1005 Co1004 2.160 . S
C1006 O1007 1.278 . S
C1006 O1014 1.224 . S
O1007 C1006 1.278 . S
C1008 O1009 1.245 . S
C1008 O1020 1.232 . S
O1009 C1008 1.245 . S
O1010 Co1004 2.058 . S
O1010 C1036 1.269 . S
O1011 Co1003 2.074 . S
O1011 C1036 1.257 . S
H1012 C1037 0.930 . S
H1013 C1043 0.930 . S
O1014 Co1003 2.093 . S
O1014 C1006 1.224 . S
H1015 C1047 0.929 . S
H1016 C1049 0.930 . S
H1017 C1050 0.930 . S
H1018 C1048 0.929 . S
H1019 C1051 0.928 . S
O1020 Co1004 2.057 . S
O1020 C1008 1.232 . S
H1021 C1040 0.929 . S
H1022 C1041 0.929 . S
H1023 C1053 0.931 . S
H1024 C1045 0.929 . S
H1025 C1054 0.930 . S
H1026 C1046 0.931 . S
O1027 Co1003 2.097 . S
O1027 C1055 1.214 . S
H1028 C1056 0.929 . S
H1029 C1057 0.929 . S
H1030 C1058 0.930 . S
H1031 C1059 0.929 . S
H1032 C1061 0.930 . S
H1033 C1038 0.930 . S
H1034 C1042 0.930 . S
O1035 Co1004 2.037 . S
O1035 C1055 1.234 . S
C1036 O1010 1.269 . S
C1036 O1011 1.257 . S
C1037 H1012 0.930 . S
C1037 C1040 1.388 . S
C1037 C1042 1.418 . S
C1038 H1033 0.930 . S
C1038 C1041 1.404 . S
C1038 C1042 1.353 . S
N1039 Co1004 2.145 . S
N1039 C1040 1.397 . S
N1039 C1041 1.334 . S
C1040 H1021 0.929 . S
C1040 C1037 1.388 . S
C1040 N1039 1.397 . S
C1041 H1022 0.929 . S
C1041 C1038 1.404 . S
C1041 N1039 1.334 . S
C1042 H1034 0.930 . S
C1042 C1037 1.418 . S
C1042 C1038 1.353 . S
C1043 H1013 0.930 . S
C1043 N1044 1.330 . S
C1043 C1045 1.446 . S
N1044 Co1003 2.151 . S
N1044 C1043 1.330 . S
N1044 C1048 1.418 . S
C1045 H1024 0.929 . S
C1045 C1043 1.446 . S
C1045 C1046 1.332 . S
C1046 H1026 0.931 . S
C1046 C1045 1.332 . S
C1046 C1047 1.267 . S
C1047 H1015 0.929 . S
C1047 C1046 1.267 . S
C1047 C1048 1.251 . S
C1048 H1018 0.929 . S
C1048 N1044 1.418 . S
C1048 C1047 1.251 . S
C1049 H1016 0.930 . S
C1049 C1051 1.406 . S
C1049 C1054 1.261 . S
C1050 H1017 0.930 . S
C1050 N1052 1.325 . S
C1050 C1053 1.357 . S
C1051 H1019 0.928 . S
C1051 C1049 1.406 . S
C1051 N1052 1.261 . S
N1052 Co1003 2.214 . S
N1052 C1050 1.325 . S
N1052 C1051 1.261 . S
C1053 H1023 0.931 . S
C1053 C1050 1.357 . S
C1053 C1054 1.312 . S
C1054 H1025 0.930 . S
C1054 C1049 1.261 . S
C1054 C1053 1.312 . S
C1055 O1027 1.214 . S
C1055 O1035 1.234 . S
C1056 H1028 0.929 . S
C1056 C1059 1.391 . S
C1056 C1061 1.391 . S
C1057 H1029 0.929 . S
C1057 C1058 1.390 . S
C1057 N1060 1.391 . S
C1058 H1030 0.930 . S
C1058 C1057 1.390 . S
C1058 C1059 1.392 . S
C1059 H1031 0.929 . S
C1059 C1056 1.391 . S
C1059 C1058 1.392 . S
N1060 Co1004 2.257 . S
N1060 C1057 1.391 . S
N1060 C1061 1.388 . S
C1061 H1032 0.930 . S
C1061 C1056 1.391 . S
C1061 N1060 1.388 . S
Co1062 O1064 2.143 . S
Co1062 O1070 2.074 . S
Co1062 O1073 2.093 . S
Co1062 O1086 2.097 . S
Co1062 N1103 2.151 . S
Co1062 N1111 2.214 . S
Co1063 O1064 2.160 . S
Co1063 O1069 2.058 . S
Co1063 O1079 2.057 . S
Co1063 O1094 2.037 . S
Co1063 N1098 2.145 . S
Co1063 N1119 2.257 . S
O1064 Co1062 2.143 . S
O1064 Co1063 2.160 . S
C1065 O1066 1.278 . S
C1065 O1073 1.224 . S
O1066 C1065 1.278 . S
C1067 O1068 1.245 . S
C1067 O1079 1.232 . S
O1068 C1067 1.245 . S
O1069 Co1063 2.058 . S
O1069 C1095 1.269 . S
O1070 Co1062 2.074 . S
O1070 C1095 1.257 . S
H1071 C1096 0.930 . S
H1072 C1102 0.930 . S
O1073 Co1062 2.093 . S
O1073 C1065 1.224 . S
H1074 C1106 0.929 . S
H1075 C1108 0.930 . S
H1076 C1109 0.930 . S
H1077 C1107 0.929 . S
H1078 C1110 0.928 . S
O1079 Co1063 2.057 . S
O1079 C1067 1.232 . S
H1080 C1099 0.929 . S
H1081 C1100 0.929 . S
H1082 C1112 0.931 . S
H1083 C1104 0.929 . S
H1084 C1113 0.930 . S
H1085 C1105 0.931 . S
O1086 Co1062 2.097 . S
O1086 C1114 1.214 . S
H1087 C1115 0.929 . S
H1088 C1116 0.929 . S
H1089 C1117 0.930 . S
H1090 C1118 0.929 . S
H1091 C1120 0.930 . S
H1092 C1097 0.930 . S
H1093 C1101 0.930 . S
O1094 Co1063 2.037 . S
O1094 C1114 1.234 . S
C1095 O1069 1.269 . S
C1095 O1070 1.257 . S
C1096 H1071 0.930 . S
C1096 C1099 1.388 . S
C1096 C1101 1.418 . S
C1097 H1092 0.930 . S
C1097 C1100 1.404 . S
C1097 C1101 1.353 . S
N1098 Co1063 2.145 . S
N1098 C1099 1.397 . S
N1098 C1100 1.334 . S
C1099 H1080 0.929 . S
C1099 C1096 1.388 . S
C1099 N1098 1.397 . S
C1100 H1081 0.929 . S
C1100 C1097 1.404 . S
C1100 N1098 1.334 . S
C1101 H1093 0.930 . S
C1101 C1096 1.418 . S
C1101 C1097 1.353 . S
C1102 H1072 0.930 . S
C1102 N1103 1.330 . S
C1102 C1104 1.446 . S
N1103 Co1062 2.151 . S
N1103 C1102 1.330 . S
N1103 C1107 1.418 . S
C1104 H1083 0.929 . S
C1104 C1102 1.446 . S
C1104 C1105 1.332 . S
C1105 H1085 0.931 . S
C1105 C1104 1.332 . S
C1105 C1106 1.267 . S
C1106 H1074 0.929 . S
C1106 C1105 1.267 . S
C1106 C1107 1.251 . S
C1107 H1077 0.929 . S
C1107 N1103 1.418 . S
C1107 C1106 1.251 . S
C1108 H1075 0.930 . S
C1108 C1110 1.406 . S
C1108 C1113 1.261 . S
C1109 H1076 0.930 . S
C1109 N1111 1.325 . S
C1109 C1112 1.357 . S
C1110 H1078 0.928 . S
C1110 C1108 1.406 . S
C1110 N1111 1.261 . S
N1111 Co1062 2.214 . S
N1111 C1109 1.325 . S
N1111 C1110 1.261 . S
C1112 H1082 0.931 . S
C1112 C1109 1.357 . S
C1112 C1113 1.312 . S
C1113 H1084 0.930 . S
C1113 C1108 1.261 . S
C1113 C1112 1.312 . S
C1114 O1086 1.214 . S
C1114 O1094 1.234 . S
C1115 H1087 0.929 . S
C1115 C1118 1.391 . S
C1115 C1120 1.391 . S
C1116 H1088 0.929 . S
C1116 C1117 1.390 . S
C1116 N1119 1.391 . S
C1117 H1089 0.930 . S
C1117 C1116 1.390 . S
C1117 C1118 1.392 . S
C1118 H1090 0.929 . S
C1118 C1115 1.391 . S
C1118 C1117 1.392 . S
N1119 Co1063 2.257 . S
N1119 C1116 1.391 . S
N1119 C1120 1.388 . S
C1120 H1091 0.930 . S
C1120 C1115 1.391 . S
C1120 N1119 1.388 . S
Co1121 O1123 2.143 . S
Co1121 O1129 2.074 . S
Co1121 O1132 2.093 . S
Co1121 O1145 2.097 . S
Co1121 N1162 2.151 . S
Co1121 N1170 2.214 . S
Co1122 O1123 2.160 . S
Co1122 O1128 2.058 . S
Co1122 O1138 2.057 . S
Co1122 O1153 2.037 . S
Co1122 N1157 2.145 . S
Co1122 N1178 2.257 . S
O1123 Co1121 2.143 . S
O1123 Co1122 2.160 . S
C1124 O1125 1.278 . S
C1124 O1132 1.224 . S
O1125 C1124 1.278 . S
C1126 O1127 1.245 . S
C1126 O1138 1.232 . S
O1127 C1126 1.245 . S
O1128 Co1122 2.058 . S
O1128 C1154 1.269 . S
O1129 Co1121 2.074 . S
O1129 C1154 1.257 . S
H1130 C1155 0.930 . S
H1131 C1161 0.930 . S
O1132 Co1121 2.093 . S
O1132 C1124 1.224 . S
H1133 C1165 0.929 . S
H1134 C1167 0.930 . S
H1135 C1168 0.930 . S
H1136 C1166 0.929 . S
H1137 C1169 0.928 . S
O1138 Co1122 2.057 . S
O1138 C1126 1.232 . S
H1139 C1158 0.929 . S
H1140 C1159 0.929 . S
H1141 C1171 0.931 . S
H1142 C1163 0.929 . S
H1143 C1172 0.930 . S
H1144 C1164 0.931 . S
O1145 Co1121 2.097 . S
O1145 C1173 1.214 . S
H1146 C1174 0.929 . S
H1147 C1175 0.929 . S
H1148 C1176 0.930 . S
H1149 C1177 0.929 . S
H1150 C1179 0.930 . S
H1151 C1156 0.930 . S
H1152 C1160 0.930 . S
O1153 Co1122 2.037 . S
O1153 C1173 1.234 . S
C1154 O1128 1.269 . S
C1154 O1129 1.257 . S
C1155 H1130 0.930 . S
C1155 C1158 1.388 . S
C1155 C1160 1.418 . S
C1156 H1151 0.930 . S
C1156 C1159 1.404 . S
C1156 C1160 1.353 . S
N1157 Co1122 2.145 . S
N1157 C1158 1.397 . S
N1157 C1159 1.334 . S
C1158 H1139 0.929 . S
C1158 C1155 1.388 . S
C1158 N1157 1.397 . S
C1159 H1140 0.929 . S
C1159 C1156 1.404 . S
C1159 N1157 1.334 . S
C1160 H1152 0.930 . S
C1160 C1155 1.418 . S
C1160 C1156 1.353 . S
C1161 H1131 0.930 . S
C1161 N1162 1.330 . S
C1161 C1163 1.446 . S
N1162 Co1121 2.151 . S
N1162 C1161 1.330 . S
N1162 C1166 1.418 . S
C1163 H1142 0.929 . S
C1163 C1161 1.446 . S
C1163 C1164 1.332 . S
C1164 H1144 0.931 . S
C1164 C1163 1.332 . S
C1164 C1165 1.267 . S
C1165 H1133 0.929 . S
C1165 C1164 1.267 . S
C1165 C1166 1.251 . S
C1166 H1136 0.929 . S
C1166 N1162 1.418 . S
C1166 C1165 1.251 . S
C1167 H1134 0.930 . S
C1167 C1169 1.406 . S
C1167 C1172 1.261 . S
C1168 H1135 0.930 . S
C1168 N1170 1.325 . S
C1168 C1171 1.357 . S
C1169 H1137 0.928 . S
C1169 C1167 1.406 . S
C1169 N1170 1.261 . S
N1170 Co1121 2.214 . S
N1170 C1168 1.325 . S
N1170 C1169 1.261 . S
C1171 H1141 0.931 . S
C1171 C1168 1.357 . S
C1171 C1172 1.312 . S
C1172 H1143 0.930 . S
C1172 C1167 1.261 . S
C1172 C1171 1.312 . S
C1173 O1145 1.214 . S
C1173 O1153 1.234 . S
C1174 H1146 0.929 . S
C1174 C1177 1.391 . S
C1174 C1179 1.391 . S
C1175 H1147 0.929 . S
C1175 C1176 1.390 . S
C1175 N1178 1.391 . S
C1176 H1148 0.930 . S
C1176 C1175 1.390 . S
C1176 C1177 1.392 . S
C1177 H1149 0.929 . S
C1177 C1174 1.391 . S
C1177 C1176 1.392 . S
N1178 Co1122 2.257 . S
N1178 C1175 1.391 . S
N1178 C1179 1.388 . S
C1179 H1150 0.930 . S
C1179 C1174 1.391 . S
C1179 N1178 1.388 . S
Co1180 O1182 2.143 . S
Co1180 O1188 2.074 . S
Co1180 O1191 2.093 . S
Co1180 O1204 2.097 . S
Co1180 N1221 2.151 . S
Co1180 N1229 2.214 . S
Co1181 O1182 2.160 . S
Co1181 O1187 2.058 . S
Co1181 O1197 2.057 . S
Co1181 O1212 2.037 . S
Co1181 N1216 2.145 . S
Co1181 N1237 2.257 . S
O1182 Co1180 2.143 . S
O1182 Co1181 2.160 . S
C1183 O1184 1.278 . S
C1183 O1191 1.224 . S
O1184 C1183 1.278 . S
C1185 O1186 1.245 . S
C1185 O1197 1.232 . S
O1186 C1185 1.245 . S
O1187 Co1181 2.058 . S
O1187 C1213 1.269 . S
O1188 Co1180 2.074 . S
O1188 C1213 1.257 . S
H1189 C1214 0.930 . S
H1190 C1220 0.930 . S
O1191 Co1180 2.093 . S
O1191 C1183 1.224 . S
H1192 C1224 0.929 . S
H1193 C1226 0.930 . S
H1194 C1227 0.930 . S
H1195 C1225 0.929 . S
H1196 C1228 0.928 . S
O1197 Co1181 2.057 . S
O1197 C1185 1.232 . S
H1198 C1217 0.929 . S
H1199 C1218 0.929 . S
H1200 C1230 0.931 . S
H1201 C1222 0.929 . S
H1202 C1231 0.930 . S
H1203 C1223 0.931 . S
O1204 Co1180 2.097 . S
O1204 C1232 1.214 . S
H1205 C1233 0.929 . S
H1206 C1234 0.929 . S
H1207 C1235 0.930 . S
H1208 C1236 0.929 . S
H1209 C1238 0.930 . S
H1210 C1215 0.930 . S
H1211 C1219 0.930 . S
O1212 Co1181 2.037 . S
O1212 C1232 1.234 . S
C1213 O1187 1.269 . S
C1213 O1188 1.257 . S
C1214 H1189 0.930 . S
C1214 C1217 1.388 . S
C1214 C1219 1.418 . S
C1215 H1210 0.930 . S
C1215 C1218 1.404 . S
C1215 C1219 1.353 . S
N1216 Co1181 2.145 . S
N1216 C1217 1.397 . S
N1216 C1218 1.334 . S
C1217 H1198 0.929 . S
C1217 C1214 1.388 . S
C1217 N1216 1.397 . S
C1218 H1199 0.929 . S
C1218 C1215 1.404 . S
C1218 N1216 1.334 . S
C1219 H1211 0.930 . S
C1219 C1214 1.418 . S
C1219 C1215 1.353 . S
C1220 H1190 0.930 . S
C1220 N1221 1.330 . S
C1220 C1222 1.446 . S
N1221 Co1180 2.151 . S
N1221 C1220 1.330 . S
N1221 C1225 1.418 . S
C1222 H1201 0.929 . S
C1222 C1220 1.446 . S
C1222 C1223 1.332 . S
C1223 H1203 0.931 . S
C1223 C1222 1.332 . S
C1223 C1224 1.267 . S
C1224 H1192 0.929 . S
C1224 C1223 1.267 . S
C1224 C1225 1.251 . S
C1225 H1195 0.929 . S
C1225 N1221 1.418 . S
C1225 C1224 1.251 . S
C1226 H1193 0.930 . S
C1226 C1228 1.406 . S
C1226 C1231 1.261 . S
C1227 H1194 0.930 . S
C1227 N1229 1.325 . S
C1227 C1230 1.357 . S
C1228 H1196 0.928 . S
C1228 C1226 1.406 . S
C1228 N1229 1.261 . S
N1229 Co1180 2.214 . S
N1229 C1227 1.325 . S
N1229 C1228 1.261 . S
C1230 H1200 0.931 . S
C1230 C1227 1.357 . S
C1230 C1231 1.312 . S
C1231 H1202 0.930 . S
C1231 C1226 1.261 . S
C1231 C1230 1.312 . S
C1232 O1204 1.214 . S
C1232 O1212 1.234 . S
C1233 H1205 0.929 . S
C1233 C1236 1.391 . S
C1233 C1238 1.391 . S
C1234 H1206 0.929 . S
C1234 C1235 1.390 . S
C1234 N1237 1.391 . S
C1235 H1207 0.930 . S
C1235 C1234 1.390 . S
C1235 C1236 1.392 . S
C1236 H1208 0.929 . S
C1236 C1233 1.391 . S
C1236 C1235 1.392 . S
N1237 Co1181 2.257 . S
N1237 C1234 1.391 . S
N1237 C1238 1.388 . S
C1238 H1209 0.930 . S
C1238 C1233 1.391 . S
C1238 N1237 1.388 . S
Co1239 O1241 2.143 . S
Co1239 O1247 2.074 . S
Co1239 O1250 2.093 . S
Co1239 O1263 2.097 . S
Co1239 N1280 2.151 . S
Co1239 N1288 2.214 . S
Co1240 O1241 2.160 . S
Co1240 O1246 2.058 . S
Co1240 O1256 2.057 . S
Co1240 O1271 2.037 . S
Co1240 N1275 2.145 . S
Co1240 N1296 2.257 . S
O1241 Co1239 2.143 . S
O1241 Co1240 2.160 . S
C1242 O1243 1.278 . S
C1242 O1250 1.224 . S
O1243 C1242 1.278 . S
C1244 O1245 1.245 . S
C1244 O1256 1.232 . S
O1245 C1244 1.245 . S
O1246 Co1240 2.058 . S
O1246 C1272 1.269 . S
O1247 Co1239 2.074 . S
O1247 C1272 1.257 . S
H1248 C1273 0.930 . S
H1249 C1279 0.930 . S
O1250 Co1239 2.093 . S
O1250 C1242 1.224 . S
H1251 C1283 0.929 . S
H1252 C1285 0.930 . S
H1253 C1286 0.930 . S
H1254 C1284 0.929 . S
H1255 C1287 0.928 . S
O1256 Co1240 2.057 . S
O1256 C1244 1.232 . S
H1257 C1276 0.929 . S
H1258 C1277 0.929 . S
H1259 C1289 0.931 . S
H1260 C1281 0.929 . S
H1261 C1290 0.930 . S
H1262 C1282 0.931 . S
O1263 Co1239 2.097 . S
O1263 C1291 1.214 . S
H1264 C1292 0.929 . S
H1265 C1293 0.929 . S
H1266 C1294 0.930 . S
H1267 C1295 0.929 . S
H1268 C1297 0.930 . S
H1269 C1274 0.930 . S
H1270 C1278 0.930 . S
O1271 Co1240 2.037 . S
O1271 C1291 1.234 . S
C1272 O1246 1.269 . S
C1272 O1247 1.257 . S
C1273 H1248 0.930 . S
C1273 C1276 1.388 . S
C1273 C1278 1.418 . S
C1274 H1269 0.930 . S
C1274 C1277 1.404 . S
C1274 C1278 1.353 . S
N1275 Co1240 2.145 . S
N1275 C1276 1.397 . S
N1275 C1277 1.334 . S
C1276 H1257 0.929 . S
C1276 C1273 1.388 . S
C1276 N1275 1.397 . S
C1277 H1258 0.929 . S
C1277 C1274 1.404 . S
C1277 N1275 1.334 . S
C1278 H1270 0.930 . S
C1278 C1273 1.418 . S
C1278 C1274 1.353 . S
C1279 H1249 0.930 . S
C1279 N1280 1.330 . S
C1279 C1281 1.446 . S
N1280 Co1239 2.151 . S
N1280 C1279 1.330 . S
N1280 C1284 1.418 . S
C1281 H1260 0.929 . S
C1281 C1279 1.446 . S
C1281 C1282 1.332 . S
C1282 H1262 0.931 . S
C1282 C1281 1.332 . S
C1282 C1283 1.267 . S
C1283 H1251 0.929 . S
C1283 C1282 1.267 . S
C1283 C1284 1.251 . S
C1284 H1254 0.929 . S
C1284 N1280 1.418 . S
C1284 C1283 1.251 . S
C1285 H1252 0.930 . S
C1285 C1287 1.406 . S
C1285 C1290 1.261 . S
C1286 H1253 0.930 . S
C1286 N1288 1.325 . S
C1286 C1289 1.357 . S
C1287 H1255 0.928 . S
C1287 C1285 1.406 . S
C1287 N1288 1.261 . S
N1288 Co1239 2.214 . S
N1288 C1286 1.325 . S
N1288 C1287 1.261 . S
C1289 H1259 0.931 . S
C1289 C1286 1.357 . S
C1289 C1290 1.312 . S
C1290 H1261 0.930 . S
C1290 C1285 1.261 . S
C1290 C1289 1.312 . S
C1291 O1263 1.214 . S
C1291 O1271 1.234 . S
C1292 H1264 0.929 . S
C1292 C1295 1.391 . S
C1292 C1297 1.391 . S
C1293 H1265 0.929 . S
C1293 C1294 1.390 . S
C1293 N1296 1.391 . S
C1294 H1266 0.930 . S
C1294 C1293 1.390 . S
C1294 C1295 1.392 . S
C1295 H1267 0.929 . S
C1295 C1292 1.391 . S
C1295 C1294 1.392 . S
N1296 Co1240 2.257 . S
N1296 C1293 1.391 . S
N1296 C1297 1.388 . S
C1297 H1268 0.930 . S
C1297 C1292 1.391 . S
C1297 N1296 1.388 . S
Co1298 O1300 2.143 . S
Co1298 O1306 2.074 . S
Co1298 O1309 2.093 . S
Co1298 O1322 2.097 . S
Co1298 N1339 2.151 . S
Co1298 N1347 2.214 . S
Co1299 O1300 2.160 . S
Co1299 O1305 2.058 . S
Co1299 O1315 2.057 . S
Co1299 O1330 2.037 . S
Co1299 N1334 2.145 . S
Co1299 N1355 2.257 . S
O1300 Co1298 2.143 . S
O1300 Co1299 2.160 . S
C1301 O1302 1.278 . S
C1301 O1309 1.224 . S
O1302 C1301 1.278 . S
C1303 O1304 1.245 . S
C1303 O1315 1.232 . S
O1304 C1303 1.245 . S
O1305 Co1299 2.058 . S
O1305 C1331 1.269 . S
O1306 Co1298 2.074 . S
O1306 C1331 1.257 . S
H1307 C1332 0.930 . S
H1308 C1338 0.930 . S
O1309 Co1298 2.093 . S
O1309 C1301 1.224 . S
H1310 C1342 0.929 . S
H1311 C1344 0.930 . S
H1312 C1345 0.930 . S
H1313 C1343 0.929 . S
H1314 C1346 0.928 . S
O1315 Co1299 2.057 . S
O1315 C1303 1.232 . S
H1316 C1335 0.929 . S
H1317 C1336 0.929 . S
H1318 C1348 0.931 . S
H1319 C1340 0.929 . S
H1320 C1349 0.930 . S
H1321 C1341 0.931 . S
O1322 Co1298 2.097 . S
O1322 C1350 1.214 . S
H1323 C1351 0.929 . S
H1324 C1352 0.929 . S
H1325 C1353 0.930 . S
H1326 C1354 0.929 . S
H1327 C1356 0.930 . S
H1328 C1333 0.930 . S
H1329 C1337 0.930 . S
O1330 Co1299 2.037 . S
O1330 C1350 1.234 . S
C1331 O1305 1.269 . S
C1331 O1306 1.257 . S
C1332 H1307 0.930 . S
C1332 C1335 1.388 . S
C1332 C1337 1.418 . S
C1333 H1328 0.930 . S
C1333 C1336 1.404 . S
C1333 C1337 1.353 . S
N1334 Co1299 2.145 . S
N1334 C1335 1.397 . S
N1334 C1336 1.334 . S
C1335 H1316 0.929 . S
C1335 C1332 1.388 . S
C1335 N1334 1.397 . S
C1336 H1317 0.929 . S
C1336 C1333 1.404 . S
C1336 N1334 1.334 . S
C1337 H1329 0.930 . S
C1337 C1332 1.418 . S
C1337 C1333 1.353 . S
C1338 H1308 0.930 . S
C1338 N1339 1.330 . S
C1338 C1340 1.446 . S
N1339 Co1298 2.151 . S
N1339 C1338 1.330 . S
N1339 C1343 1.418 . S
C1340 H1319 0.929 . S
C1340 C1338 1.446 . S
C1340 C1341 1.332 . S
C1341 H1321 0.931 . S
C1341 C1340 1.332 . S
C1341 C1342 1.267 . S
C1342 H1310 0.929 . S
C1342 C1341 1.267 . S
C1342 C1343 1.251 . S
C1343 H1313 0.929 . S
C1343 N1339 1.418 . S
C1343 C1342 1.251 . S
C1344 H1311 0.930 . S
C1344 C1346 1.406 . S
C1344 C1349 1.261 . S
C1345 H1312 0.930 . S
C1345 N1347 1.325 . S
C1345 C1348 1.357 . S
C1346 H1314 0.928 . S
C1346 C1344 1.406 . S
C1346 N1347 1.261 . S
N1347 Co1298 2.214 . S
N1347 C1345 1.325 . S
N1347 C1346 1.261 . S
C1348 H1318 0.931 . S
C1348 C1345 1.357 . S
C1348 C1349 1.312 . S
C1349 H1320 0.930 . S
C1349 C1344 1.261 . S
C1349 C1348 1.312 . S
C1350 O1322 1.214 . S
C1350 O1330 1.234 . S
C1351 H1323 0.929 . S
C1351 C1354 1.391 . S
C1351 C1356 1.391 . S
C1352 H1324 0.929 . S
C1352 C1353 1.390 . S
C1352 N1355 1.391 . S
C1353 H1325 0.930 . S
C1353 C1352 1.390 . S
C1353 C1354 1.392 . S
C1354 H1326 0.929 . S
C1354 C1351 1.391 . S
C1354 C1353 1.392 . S
N1355 Co1299 2.257 . S
N1355 C1352 1.391 . S
N1355 C1356 1.388 . S
C1356 H1327 0.930 . S
C1356 C1351 1.391 . S
C1356 N1355 1.388 . S
Co1357 O1359 2.143 . S
Co1357 O1365 2.074 . S
Co1357 O1368 2.093 . S
Co1357 O1381 2.097 . S
Co1357 N1398 2.151 . S
Co1357 N1406 2.214 . S
Co1358 O1359 2.160 . S
Co1358 O1364 2.058 . S
Co1358 O1374 2.057 . S
Co1358 O1389 2.037 . S
Co1358 N1393 2.145 . S
Co1358 N1414 2.257 . S
O1359 Co1357 2.143 . S
O1359 Co1358 2.160 . S
C1360 O1361 1.278 . S
C1360 O1368 1.224 . S
O1361 C1360 1.278 . S
C1362 O1363 1.245 . S
C1362 O1374 1.232 . S
O1363 C1362 1.245 . S
O1364 Co1358 2.058 . S
O1364 C1390 1.269 . S
O1365 Co1357 2.074 . S
O1365 C1390 1.257 . S
H1366 C1391 0.930 . S
H1367 C1397 0.930 . S
O1368 Co1357 2.093 . S
O1368 C1360 1.224 . S
H1369 C1401 0.929 . S
H1370 C1403 0.930 . S
H1371 C1404 0.930 . S
H1372 C1402 0.929 . S
H1373 C1405 0.928 . S
O1374 Co1358 2.057 . S
O1374 C1362 1.232 . S
H1375 C1394 0.929 . S
H1376 C1395 0.929 . S
H1377 C1407 0.931 . S
H1378 C1399 0.929 . S
H1379 C1408 0.930 . S
H1380 C1400 0.931 . S
O1381 Co1357 2.097 . S
O1381 C1409 1.214 . S
H1382 C1410 0.929 . S
H1383 C1411 0.929 . S
H1384 C1412 0.930 . S
H1385 C1413 0.929 . S
H1386 C1415 0.930 . S
H1387 C1392 0.930 . S
H1388 C1396 0.930 . S
O1389 Co1358 2.037 . S
O1389 C1409 1.234 . S
C1390 O1364 1.269 . S
C1390 O1365 1.257 . S
C1391 H1366 0.930 . S
C1391 C1394 1.388 . S
C1391 C1396 1.418 . S
C1392 H1387 0.930 . S
C1392 C1395 1.404 . S
C1392 C1396 1.353 . S
N1393 Co1358 2.145 . S
N1393 C1394 1.397 . S
N1393 C1395 1.334 . S
C1394 H1375 0.929 . S
C1394 C1391 1.388 . S
C1394 N1393 1.397 . S
C1395 H1376 0.929 . S
C1395 C1392 1.404 . S
C1395 N1393 1.334 . S
C1396 H1388 0.930 . S
C1396 C1391 1.418 . S
C1396 C1392 1.353 . S
C1397 H1367 0.930 . S
C1397 N1398 1.330 . S
C1397 C1399 1.446 . S
N1398 Co1357 2.151 . S
N1398 C1397 1.330 . S
N1398 C1402 1.418 . S
C1399 H1378 0.929 . S
C1399 C1397 1.446 . S
C1399 C1400 1.332 . S
C1400 H1380 0.931 . S
C1400 C1399 1.332 . S
C1400 C1401 1.267 . S
C1401 H1369 0.929 . S
C1401 C1400 1.267 . S
C1401 C1402 1.251 . S
C1402 H1372 0.929 . S
C1402 N1398 1.418 . S
C1402 C1401 1.251 . S
C1403 H1370 0.930 . S
C1403 C1405 1.406 . S
C1403 C1408 1.261 . S
C1404 H1371 0.930 . S
C1404 N1406 1.325 . S
C1404 C1407 1.357 . S
C1405 H1373 0.928 . S
C1405 C1403 1.406 . S
C1405 N1406 1.261 . S
N1406 Co1357 2.214 . S
N1406 C1404 1.325 . S
N1406 C1405 1.261 . S
C1407 H1377 0.931 . S
C1407 C1404 1.357 . S
C1407 C1408 1.312 . S
C1408 H1379 0.930 . S
C1408 C1403 1.261 . S
C1408 C1407 1.312 . S
C1409 O1381 1.214 . S
C1409 O1389 1.234 . S
C1410 H1382 0.929 . S
C1410 C1413 1.391 . S
C1410 C1415 1.391 . S
C1411 H1383 0.929 . S
C1411 C1412 1.390 . S
C1411 N1414 1.391 . S
C1412 H1384 0.930 . S
C1412 C1411 1.390 . S
C1412 C1413 1.392 . S
C1413 H1385 0.929 . S
C1413 C1410 1.391 . S
C1413 C1412 1.392 . S
N1414 Co1358 2.257 . S
N1414 C1411 1.391 . S
N1414 C1415 1.388 . S
C1415 H1386 0.930 . S
C1415 C1410 1.391 . S
C1415 N1414 1.388 . S
H1416 C1424 0.929 . S
H1417 C1426 0.930 . S
H1418 C1428 0.930 . S
H1419 C1431 0.929 . S
H1420 C1434 0.930 . S
H1421 C1436 0.960 . S
H1422 C1436 0.960 . S
H1423 C1436 0.960 . S
C1424 H1416 0.929 . S
C1424 C1425 1.377 . S
C1424 C1426 1.384 . S
C1425 C1424 1.377 . S
C1425 C1431 1.390 . S
C1426 H1417 0.930 . S
C1426 C1424 1.384 . S
C1426 C1427 1.372 . S
C1427 C1426 1.372 . S
C1427 C1428 1.400 . S
C1427 C1432 1.490 . S
C1428 H1418 0.930 . S
C1428 C1427 1.400 . S
C1428 C1431 1.386 . S
H1429 C1445 0.930 . S
H1430 C1446 0.931 . S
C1431 H1419 0.929 . S
C1431 C1425 1.390 . S
C1431 C1428 1.386 . S
C1432 C1427 1.490 . S
C1432 C1434 1.395 . S
C1432 C1435 1.403 . S
H1433 C1439 0.930 . S
C1434 H1420 0.930 . S
C1434 C1432 1.395 . S
C1434 C1437 1.403 . S
C1435 C1432 1.403 . S
C1435 C1436 1.524 . S
C1435 C1439 1.400 . S
C1436 H1421 0.960 . S
C1436 H1422 0.960 . S
C1436 H1423 0.960 . S
C1436 C1435 1.524 . S
C1437 C1434 1.403 . S
C1437 C1438 1.392 . S
C1437 C1441 1.495 . S
C1438 C1437 1.392 . S
C1438 C1439 1.385 . S
C1438 C1440 1.478 . S
C1439 H1433 0.930 . S
C1439 C1435 1.400 . S
C1439 C1438 1.385 . S
C1440 C1438 1.478 . S
C1440 C1442 1.381 . S
C1440 C1446 1.383 . S
C1441 C1437 1.495 . S
C1441 H1447 0.959 . S
C1441 H1448 0.961 . S
C1441 H1449 0.960 . S
C1442 C1440 1.381 . S
C1442 C1443 1.394 . S
C1442 H1450 0.930 . S
C1443 C1442 1.394 . S
C1443 C1444 1.383 . S
C1443 H1451 0.929 . S
C1444 C1443 1.383 . S
C1444 C1445 1.377 . S
C1445 H1429 0.930 . S
C1445 C1444 1.377 . S
C1445 C1446 1.379 . S
C1446 H1430 0.931 . S
C1446 C1440 1.383 . S
C1446 C1445 1.379 . S
H1447 C1441 0.959 . S
H1448 C1441 0.961 . S
H1449 C1441 0.960 . S
H1450 C1442 0.930 . S
H1451 C1443 0.929 . S
H1452 C1460 0.929 . S
H1453 C1462 0.930 . S
H1454 C1464 0.930 . S
H1455 C1467 0.929 . S
H1456 C1470 0.930 . S
H1457 C1472 0.960 . S
H1458 C1472 0.960 . S
H1459 C1472 0.960 . S
C1460 H1452 0.929 . S
C1460 C1461 1.377 . S
C1460 C1462 1.384 . S
C1461 C1460 1.377 . S
C1461 C1467 1.390 . S
C1462 H1453 0.930 . S
C1462 C1460 1.384 . S
C1462 C1463 1.372 . S
C1463 C1462 1.372 . S
C1463 C1464 1.400 . S
C1463 C1468 1.490 . S
C1464 H1454 0.930 . S
C1464 C1463 1.400 . S
C1464 C1467 1.386 . S
H1465 C1481 0.930 . S
H1466 C1482 0.931 . S
C1467 H1455 0.929 . S
C1467 C1461 1.390 . S
C1467 C1464 1.386 . S
C1468 C1463 1.490 . S
C1468 C1470 1.395 . S
C1468 C1471 1.403 . S
H1469 C1475 0.930 . S
C1470 H1456 0.930 . S
C1470 C1468 1.395 . S
C1470 C1473 1.403 1_655 S
C1471 C1468 1.403 . S
C1471 C1472 1.524 . S
C1471 C1475 1.400 1_655 S
C1472 H1457 0.960 . S
C1472 H1458 0.960 . S
C1472 H1459 0.960 . S
C1472 C1471 1.524 . S
C1473 C1470 1.403 1_455 S
C1473 C1474 1.392 . S
C1473 C1477 1.495 . S
C1474 C1473 1.392 . S
C1474 C1475 1.385 . S
C1474 C1476 1.478 . S
C1475 H1469 0.930 . S
C1475 C1471 1.400 1_455 S
C1475 C1474 1.385 . S
C1476 C1474 1.478 . S
C1476 C1478 1.381 . S
C1476 C1482 1.383 . S
C1477 C1473 1.495 . S
C1477 H1483 0.959 . S
C1477 H1484 0.961 . S
C1477 H1485 0.960 . S
C1478 C1476 1.381 . S
C1478 C1479 1.394 . S
C1478 H1486 0.930 . S
C1479 C1478 1.394 . S
C1479 C1480 1.383 . S
C1479 H1487 0.929 . S
C1480 C1479 1.383 . S
C1480 C1481 1.377 . S
C1481 H1465 0.930 . S
C1481 C1480 1.377 . S
C1481 C1482 1.379 . S
C1482 H1466 0.931 . S
C1482 C1476 1.383 . S
C1482 C1481 1.379 . S
H1483 C1477 0.959 . S
H1484 C1477 0.961 . S
H1485 C1477 0.960 . S
H1486 C1478 0.930 . S
H1487 C1479 0.929 . S
H1488 C1496 0.929 . S
H1489 C1498 0.930 . S
H1490 C1500 0.930 . S
H1491 C1503 0.929 . S
H1492 C1506 0.930 . S
H1493 C1508 0.960 . S
H1494 C1508 0.960 . S
H1495 C1508 0.960 . S
C1496 H1488 0.929 . S
C1496 C1497 1.377 . S
C1496 C1498 1.384 . S
C1497 C1496 1.377 . S
C1497 C1503 1.390 . S
C1498 H1489 0.930 . S
C1498 C1496 1.384 . S
C1498 C1499 1.372 . S
C1499 C1498 1.372 . S
C1499 C1500 1.400 . S
C1499 C1504 1.490 . S
C1500 H1490 0.930 . S
C1500 C1499 1.400 . S
C1500 C1503 1.386 . S
H1501 C1517 0.930 . S
H1502 C1518 0.931 . S
C1503 H1491 0.929 . S
C1503 C1497 1.390 . S
C1503 C1500 1.386 . S
C1504 C1499 1.490 . S
C1504 C1506 1.395 . S
C1504 C1507 1.403 . S
H1505 C1511 0.930 . S
C1506 H1492 0.930 . S
C1506 C1504 1.395 . S
C1506 C1509 1.403 . S
C1507 C1504 1.403 . S
C1507 C1508 1.524 . S
C1507 C1511 1.400 . S
C1508 H1493 0.960 . S
C1508 H1494 0.960 . S
C1508 H1495 0.960 . S
C1508 C1507 1.524 . S
C1509 C1506 1.403 . S
C1509 C1510 1.392 . S
C1509 C1513 1.495 . S
C1510 C1509 1.392 . S
C1510 C1511 1.385 . S
C1510 C1512 1.478 . S
C1511 H1505 0.930 . S
C1511 C1507 1.400 . S
C1511 C1510 1.385 . S
C1512 C1510 1.478 . S
C1512 C1514 1.381 . S
C1512 C1518 1.383 . S
C1513 C1509 1.495 . S
C1513 H1519 0.959 . S
C1513 H1520 0.961 . S
C1513 H1521 0.960 . S
C1514 C1512 1.381 . S
C1514 C1515 1.394 . S
C1514 H1522 0.930 . S
C1515 C1514 1.394 . S
C1515 C1516 1.383 . S
C1515 H1523 0.929 . S
C1516 C1515 1.383 . S
C1516 C1517 1.377 . S
C1517 H1501 0.930 . S
C1517 C1516 1.377 . S
C1517 C1518 1.379 . S
C1518 H1502 0.931 . S
C1518 C1512 1.383 . S
C1518 C1517 1.379 . S
H1519 C1513 0.959 . S
H1520 C1513 0.961 . S
H1521 C1513 0.960 . S
H1522 C1514 0.930 . S
H1523 C1515 0.929 . S
H1524 C1532 0.929 . S
H1525 C1534 0.930 . S
H1526 C1536 0.930 . S
H1527 C1539 0.929 . S
H1528 C1542 0.930 . S
H1529 C1544 0.960 . S
H1530 C1544 0.960 . S
H1531 C1544 0.960 . S
C1532 H1524 0.929 . S
C1532 C1533 1.377 . S
C1532 C1534 1.384 . S
C1533 C1532 1.377 . S
C1533 C1539 1.390 . S
C1534 H1525 0.930 . S
C1534 C1532 1.384 . S
C1534 C1535 1.372 . S
C1535 C1534 1.372 . S
C1535 C1536 1.400 . S
C1535 C1540 1.490 . S
C1536 H1526 0.930 . S
C1536 C1535 1.400 . S
C1536 C1539 1.386 . S
H1537 C1553 0.930 . S
H1538 C1554 0.931 . S
C1539 H1527 0.929 . S
C1539 C1533 1.390 . S
C1539 C1536 1.386 . S
C1540 C1535 1.490 . S
C1540 C1542 1.395 . S
C1540 C1543 1.403 . S
H1541 C1547 0.930 . S
C1542 H1528 0.930 . S
C1542 C1540 1.395 . S
C1542 C1545 1.403 1_455 S
C1543 C1540 1.403 . S
C1543 C1544 1.524 . S
C1543 C1547 1.400 1_455 S
C1544 H1529 0.960 . S
C1544 H1530 0.960 . S
C1544 H1531 0.960 . S
C1544 C1543 1.524 . S
C1545 C1542 1.403 1_655 S
C1545 C1546 1.392 . S
C1545 C1549 1.495 . S
C1546 C1545 1.392 . S
C1546 C1547 1.385 . S
C1546 C1548 1.478 . S
C1547 H1541 0.930 . S
C1547 C1543 1.400 1_655 S
C1547 C1546 1.385 . S
C1548 C1546 1.478 . S
C1548 C1550 1.381 . S
C1548 C1554 1.383 . S
C1549 C1545 1.495 . S
C1549 H1555 0.959 . S
C1549 H1556 0.961 . S
C1549 H1557 0.960 . S
C1550 C1548 1.381 . S
C1550 C1551 1.394 . S
C1550 H1558 0.930 . S
C1551 C1550 1.394 . S
C1551 C1552 1.383 . S
C1551 H1559 0.929 . S
C1552 C1551 1.383 . S
C1552 C1553 1.377 . S
C1553 H1537 0.930 . S
C1553 C1552 1.377 . S
C1553 C1554 1.379 . S
C1554 H1538 0.931 . S
C1554 C1548 1.383 . S
C1554 C1553 1.379 . S
H1555 C1549 0.959 . S
H1556 C1549 0.961 . S
H1557 C1549 0.960 . S
H1558 C1550 0.930 . S
H1559 C1551 0.929 . S
H1560 C1568 0.929 . S
H1561 C1570 0.930 . S
H1562 C1572 0.930 . S
H1563 C1575 0.929 . S
H1564 C1578 0.930 . S
H1565 C1580 0.960 . S
H1566 C1580 0.960 . S
H1567 C1580 0.960 . S
C1568 H1560 0.929 . S
C1568 C1569 1.377 . S
C1568 C1570 1.384 . S
C1569 C1568 1.377 . S
C1569 C1575 1.390 . S
C1570 H1561 0.930 . S
C1570 C1568 1.384 . S
C1570 C1571 1.372 . S
C1571 C1570 1.372 . S
C1571 C1572 1.400 . S
C1571 C1576 1.490 . S
C1572 H1562 0.930 . S
C1572 C1571 1.400 . S
C1572 C1575 1.386 . S
H1573 C1589 0.930 . S
H1574 C1590 0.931 . S
C1575 H1563 0.929 . S
C1575 C1569 1.390 . S
C1575 C1572 1.386 . S
C1576 C1571 1.490 . S
C1576 C1578 1.395 . S
C1576 C1579 1.403 . S
H1577 C1583 0.930 . S
C1578 H1564 0.930 . S
C1578 C1576 1.395 . S
C1578 C1581 1.403 . S
C1579 C1576 1.403 . S
C1579 C1580 1.524 . S
C1579 C1583 1.400 . S
C1580 H1565 0.960 . S
C1580 H1566 0.960 . S
C1580 H1567 0.960 . S
C1580 C1579 1.524 . S
C1581 C1578 1.403 . S
C1581 C1582 1.392 . S
C1581 C1585 1.495 . S
C1582 C1581 1.392 . S
C1582 C1583 1.385 . S
C1582 C1584 1.478 . S
C1583 H1577 0.930 . S
C1583 C1579 1.400 . S
C1583 C1582 1.385 . S
C1584 C1582 1.478 . S
C1584 C1586 1.381 . S
C1584 C1590 1.383 . S
C1585 C1581 1.495 . S
C1585 H1591 0.959 . S
C1585 H1592 0.961 . S
C1585 H1593 0.960 . S
C1586 C1584 1.381 . S
C1586 C1587 1.394 . S
C1586 H1594 0.930 . S
C1587 C1586 1.394 . S
C1587 C1588 1.383 . S
C1587 H1595 0.929 . S
C1588 C1587 1.383 . S
C1588 C1589 1.377 . S
C1589 H1573 0.930 . S
C1589 C1588 1.377 . S
C1589 C1590 1.379 . S
C1590 H1574 0.931 . S
C1590 C1584 1.383 . S
C1590 C1589 1.379 . S
H1591 C1585 0.959 . S
H1592 C1585 0.961 . S
H1593 C1585 0.960 . S
H1594 C1586 0.930 . S
H1595 C1587 0.929 . S
H1596 C1604 0.929 . S
H1597 C1606 0.930 . S
H1598 C1608 0.930 . S
H1599 C1611 0.929 . S
H1600 C1614 0.930 . S
H1601 C1616 0.960 . S
H1602 C1616 0.960 . S
H1603 C1616 0.960 . S
C1604 H1596 0.929 . S
C1604 C1605 1.377 . S
C1604 C1606 1.384 . S
C1605 C1604 1.377 . S
C1605 C1611 1.390 . S
C1606 H1597 0.930 . S
C1606 C1604 1.384 . S
C1606 C1607 1.372 . S
C1607 C1606 1.372 . S
C1607 C1608 1.400 . S
C1607 C1612 1.490 . S
C1608 H1598 0.930 . S
C1608 C1607 1.400 . S
C1608 C1611 1.386 . S
H1609 C1625 0.930 . S
H1610 C1626 0.931 . S
C1611 H1599 0.929 . S
C1611 C1605 1.390 . S
C1611 C1608 1.386 . S
C1612 C1607 1.490 . S
C1612 C1614 1.395 . S
C1612 C1615 1.403 . S
H1613 C1619 0.930 . S
C1614 H1600 0.930 . S
C1614 C1612 1.395 . S
C1614 C1617 1.403 1_655 S
C1615 C1612 1.403 . S
C1615 C1616 1.524 . S
C1615 C1619 1.400 1_655 S
C1616 H1601 0.960 . S
C1616 H1602 0.960 . S
C1616 H1603 0.960 . S
C1616 C1615 1.524 . S
C1617 C1614 1.403 1_455 S
C1617 C1618 1.392 . S
C1617 C1621 1.495 . S
C1618 C1617 1.392 . S
C1618 C1619 1.385 . S
C1618 C1620 1.478 . S
C1619 H1613 0.930 . S
C1619 C1615 1.400 1_455 S
C1619 C1618 1.385 . S
C1620 C1618 1.478 . S
C1620 C1622 1.381 . S
C1620 C1626 1.383 . S
C1621 C1617 1.495 . S
C1621 H1627 0.959 . S
C1621 H1628 0.961 . S
C1621 H1629 0.960 . S
C1622 C1620 1.381 . S
C1622 C1623 1.394 . S
C1622 H1630 0.930 . S
C1623 C1622 1.394 . S
C1623 C1624 1.383 . S
C1623 H1631 0.929 . S
C1624 C1623 1.383 . S
C1624 C1625 1.377 . S
C1625 H1609 0.930 . S
C1625 C1624 1.377 . S
C1625 C1626 1.379 . S
C1626 H1610 0.931 . S
C1626 C1620 1.383 . S
C1626 C1625 1.379 . S
H1627 C1621 0.959 . S
H1628 C1621 0.961 . S
H1629 C1621 0.960 . S
H1630 C1622 0.930 . S
H1631 C1623 0.929 . S
H1632 C1640 0.929 . S
H1633 C1642 0.930 . S
H1634 C1644 0.930 . S
H1635 C1647 0.929 . S
H1636 C1650 0.930 . S
H1637 C1652 0.960 . S
H1638 C1652 0.960 . S
H1639 C1652 0.960 . S
C1640 H1632 0.929 . S
C1640 C1641 1.377 . S
C1640 C1642 1.384 . S
C1641 C1640 1.377 . S
C1641 C1647 1.390 . S
C1642 H1633 0.930 . S
C1642 C1640 1.384 . S
C1642 C1643 1.372 . S
C1643 C1642 1.372 . S
C1643 C1644 1.400 . S
C1643 C1648 1.490 . S
C1644 H1634 0.930 . S
C1644 C1643 1.400 . S
C1644 C1647 1.386 . S
H1645 C1661 0.930 . S
H1646 C1662 0.931 . S
C1647 H1635 0.929 . S
C1647 C1641 1.390 . S
C1647 C1644 1.386 . S
C1648 C1643 1.490 . S
C1648 C1650 1.395 . S
C1648 C1651 1.403 . S
H1649 C1655 0.930 . S
C1650 H1636 0.930 . S
C1650 C1648 1.395 . S
C1650 C1653 1.403 . S
C1651 C1648 1.403 . S
C1651 C1652 1.524 . S
C1651 C1655 1.400 . S
C1652 H1637 0.960 . S
C1652 H1638 0.960 . S
C1652 H1639 0.960 . S
C1652 C1651 1.524 . S
C1653 C1650 1.403 . S
C1653 C1654 1.392 . S
C1653 C1657 1.495 . S
C1654 C1653 1.392 . S
C1654 C1655 1.385 . S
C1654 C1656 1.478 . S
C1655 H1649 0.930 . S
C1655 C1651 1.400 . S
C1655 C1654 1.385 . S
C1656 C1654 1.478 . S
C1656 C1658 1.381 . S
C1656 C1662 1.383 . S
C1657 C1653 1.495 . S
C1657 H1663 0.959 . S
C1657 H1664 0.961 . S
C1657 H1665 0.960 . S
C1658 C1656 1.381 . S
C1658 C1659 1.394 . S
C1658 H1666 0.930 . S
C1659 C1658 1.394 . S
C1659 C1660 1.383 . S
C1659 H1667 0.929 . S
C1660 C1659 1.383 . S
C1660 C1661 1.377 . S
C1661 H1645 0.930 . S
C1661 C1660 1.377 . S
C1661 C1662 1.379 . S
C1662 H1646 0.931 . S
C1662 C1656 1.383 . S
C1662 C1661 1.379 . S
H1663 C1657 0.959 . S
H1664 C1657 0.961 . S
H1665 C1657 0.960 . S
H1666 C1658 0.930 . S
H1667 C1659 0.929 . S
H1668 C1676 0.929 . S
H1669 C1678 0.930 . S
H1670 C1680 0.930 . S
H1671 C1683 0.929 . S
H1672 C1686 0.930 . S
H1673 C1688 0.960 . S
H1674 C1688 0.960 . S
H1675 C1688 0.960 . S
C1676 H1668 0.929 . S
C1676 C1677 1.377 . S
C1676 C1678 1.384 . S
C1677 C1676 1.377 . S
C1677 C1683 1.390 . S
C1678 H1669 0.930 . S
C1678 C1676 1.384 . S
C1678 C1679 1.372 . S
C1679 C1678 1.372 . S
C1679 C1680 1.400 . S
C1679 C1684 1.490 . S
C1680 H1670 0.930 . S
C1680 C1679 1.400 . S
C1680 C1683 1.386 . S
H1681 C1697 0.930 . S
H1682 C1698 0.931 . S
C1683 H1671 0.929 . S
C1683 C1677 1.390 . S
C1683 C1680 1.386 . S
C1684 C1679 1.490 . S
C1684 C1686 1.395 . S
C1684 C1687 1.403 . S
H1685 C1691 0.930 . S
C1686 H1672 0.930 . S
C1686 C1684 1.395 . S
C1686 C1689 1.403 1_655 S
C1687 C1684 1.403 . S
C1687 C1688 1.524 . S
C1687 C1691 1.400 1_655 S
C1688 H1673 0.960 . S
C1688 H1674 0.960 . S
C1688 H1675 0.960 . S
C1688 C1687 1.524 . S
C1689 C1686 1.403 1_455 S
C1689 C1690 1.392 . S
C1689 C1693 1.495 . S
C1690 C1689 1.392 . S
C1690 C1691 1.385 . S
C1690 C1692 1.478 . S
C1691 H1685 0.930 . S
C1691 C1687 1.400 1_455 S
C1691 C1690 1.385 . S
C1692 C1690 1.478 . S
C1692 C1694 1.381 . S
C1692 C1698 1.383 . S
C1693 C1689 1.495 . S
C1693 H1699 0.959 . S
C1693 H1700 0.961 . S
C1693 H1701 0.960 . S
C1694 C1692 1.381 . S
C1694 C1695 1.394 . S
C1694 H1702 0.930 . S
C1695 C1694 1.394 . S
C1695 C1696 1.383 . S
C1695 H1703 0.929 . S
C1696 C1695 1.383 . S
C1696 C1697 1.377 . S
C1697 H1681 0.930 . S
C1697 C1696 1.377 . S
C1697 C1698 1.379 . S
C1698 H1682 0.931 . S
C1698 C1692 1.383 . S
C1698 C1697 1.379 . S
H1699 C1693 0.959 . S
H1700 C1693 0.961 . S
H1701 C1693 0.960 . S
H1702 C1694 0.930 . S
H1703 C1695 0.929 . S
H1704 C1712 0.929 . S
H1705 C1714 0.930 . S
H1706 C1716 0.930 . S
H1707 C1719 0.929 . S
H1708 C1722 0.930 . S
H1709 C1724 0.960 . S
H1710 C1724 0.960 . S
H1711 C1724 0.960 . S
C1712 H1704 0.929 . S
C1712 C1713 1.377 . S
C1712 C1714 1.384 . S
C1713 C1712 1.377 . S
C1713 C1719 1.390 . S
C1714 H1705 0.930 . S
C1714 C1712 1.384 . S
C1714 C1715 1.372 . S
C1715 C1714 1.372 . S
C1715 C1716 1.400 . S
C1715 C1720 1.490 . S
C1716 H1706 0.930 . S
C1716 C1715 1.400 . S
C1716 C1719 1.386 . S
H1717 C1733 0.930 . S
H1718 C1734 0.931 . S
C1719 H1707 0.929 . S
C1719 C1713 1.390 . S
C1719 C1716 1.386 . S
C1720 C1715 1.490 . S
C1720 C1722 1.395 . S
C1720 C1723 1.403 . S
H1721 C1727 0.930 . S
C1722 H1708 0.930 . S
C1722 C1720 1.395 . S
C1722 C1725 1.403 . S
C1723 C1720 1.403 . S
C1723 C1724 1.524 . S
C1723 C1727 1.400 . S
C1724 H1709 0.960 . S
C1724 H1710 0.960 . S
C1724 H1711 0.960 . S
C1724 C1723 1.524 . S
C1725 C1722 1.403 . S
C1725 C1726 1.392 . S
C1725 C1729 1.495 . S
C1726 C1725 1.392 . S
C1726 C1727 1.385 . S
C1726 C1728 1.478 . S
C1727 H1721 0.930 . S
C1727 C1723 1.400 . S
C1727 C1726 1.385 . S
C1728 C1726 1.478 . S
C1728 C1730 1.381 . S
C1728 C1734 1.383 . S
C1729 C1725 1.495 . S
C1729 H1735 0.959 . S
C1729 H1736 0.961 . S
C1729 H1737 0.960 . S
C1730 C1728 1.381 . S
C1730 C1731 1.394 . S
C1730 H1738 0.930 . S
C1731 C1730 1.394 . S
C1731 C1732 1.383 . S
C1731 H1739 0.929 . S
C1732 C1731 1.383 . S
C1732 C1733 1.377 . S
C1733 H1717 0.930 . S
C1733 C1732 1.377 . S
C1733 C1734 1.379 . S
C1734 H1718 0.931 . S
C1734 C1728 1.383 . S
C1734 C1733 1.379 . S
H1735 C1729 0.959 . S
H1736 C1729 0.961 . S
H1737 C1729 0.960 . S
H1738 C1730 0.930 . S
H1739 C1731 0.929 . S
H1740 C1748 0.929 . S
H1741 C1750 0.930 . S
H1742 C1752 0.930 . S
H1743 C1755 0.929 . S
H1744 C1758 0.930 . S
H1745 C1760 0.960 . S
H1746 C1760 0.960 . S
H1747 C1760 0.960 . S
C1748 H1740 0.929 . S
C1748 C1749 1.377 . S
C1748 C1750 1.384 . S
C1749 C1748 1.377 . S
C1749 C1755 1.390 . S
C1750 H1741 0.930 . S
C1750 C1748 1.384 . S
C1750 C1751 1.372 . S
C1751 C1750 1.372 . S
C1751 C1752 1.400 . S
C1751 C1756 1.490 . S
C1752 H1742 0.930 . S
C1752 C1751 1.400 . S
C1752 C1755 1.386 . S
H1753 C1769 0.930 . S
H1754 C1770 0.931 . S
C1755 H1743 0.929 . S
C1755 C1749 1.390 . S
C1755 C1752 1.386 . S
C1756 C1751 1.490 . S
C1756 C1758 1.395 . S
C1756 C1759 1.403 . S
H1757 C1763 0.930 . S
C1758 H1744 0.930 . S
C1758 C1756 1.395 . S
C1758 C1761 1.403 1_556 S
C1759 C1756 1.403 . S
C1759 C1760 1.524 . S
C1759 C1763 1.400 1_556 S
C1760 H1745 0.960 . S
C1760 H1746 0.960 . S
C1760 H1747 0.960 . S
C1760 C1759 1.524 . S
C1761 C1758 1.403 1_554 S
C1761 C1762 1.392 . S
C1761 C1765 1.495 . S
C1762 C1761 1.392 . S
C1762 C1763 1.385 . S
C1762 C1764 1.478 . S
C1763 H1757 0.930 . S
C1763 C1759 1.400 1_554 S
C1763 C1762 1.385 . S
C1764 C1762 1.478 . S
C1764 C1766 1.381 . S
C1764 C1770 1.383 . S
C1765 C1761 1.495 . S
C1765 H1771 0.959 . S
C1765 H1772 0.961 . S
C1765 H1773 0.960 . S
C1766 C1764 1.381 . S
C1766 C1767 1.394 . S
C1766 H1774 0.930 . S
C1767 C1766 1.394 . S
C1767 C1768 1.383 . S
C1767 H1775 0.929 . S
C1768 C1767 1.383 . S
C1768 C1769 1.377 . S
C1769 H1753 0.930 . S
C1769 C1768 1.377 . S
C1769 C1770 1.379 . S
C1770 H1754 0.931 . S
C1770 C1764 1.383 . S
C1770 C1769 1.379 . S
H1771 C1765 0.959 . S
H1772 C1765 0.961 . S
H1773 C1765 0.960 . S
H1774 C1766 0.930 . S
H1775 C1767 0.929 . S
H1776 C1784 0.929 . S
H1777 C1786 0.930 . S
H1778 C1788 0.930 . S
H1779 C1791 0.929 . S
H1780 C1794 0.930 . S
H1781 C1796 0.960 . S
H1782 C1796 0.960 . S
H1783 C1796 0.960 . S
C1784 H1776 0.929 . S
C1784 C1785 1.377 . S
C1784 C1786 1.384 . S
C1785 C1784 1.377 . S
C1785 C1791 1.390 . S
C1786 H1777 0.930 . S
C1786 C1784 1.384 . S
C1786 C1787 1.372 . S
C1787 C1786 1.372 . S
C1787 C1788 1.400 . S
C1787 C1792 1.490 . S
C1788 H1778 0.930 . S
C1788 C1787 1.400 . S
C1788 C1791 1.386 . S
H1789 C1805 0.930 . S
H1790 C1806 0.931 . S
C1791 H1779 0.929 . S
C1791 C1785 1.390 . S
C1791 C1788 1.386 . S
C1792 C1787 1.490 . S
C1792 C1794 1.395 . S
C1792 C1795 1.403 . S
H1793 C1799 0.930 . S
C1794 H1780 0.930 . S
C1794 C1792 1.395 . S
C1794 C1797 1.403 . S
C1795 C1792 1.403 . S
C1795 C1796 1.524 . S
C1795 C1799 1.400 . S
C1796 H1781 0.960 . S
C1796 H1782 0.960 . S
C1796 H1783 0.960 . S
C1796 C1795 1.524 . S
C1797 C1794 1.403 . S
C1797 C1798 1.392 . S
C1797 C1801 1.495 . S
C1798 C1797 1.392 . S
C1798 C1799 1.385 . S
C1798 C1800 1.478 . S
C1799 H1793 0.930 . S
C1799 C1795 1.400 . S
C1799 C1798 1.385 . S
C1800 C1798 1.478 . S
C1800 C1802 1.381 . S
C1800 C1806 1.383 . S
C1801 C1797 1.495 . S
C1801 H1807 0.959 . S
C1801 H1808 0.961 . S
C1801 H1809 0.960 . S
C1802 C1800 1.381 . S
C1802 C1803 1.394 . S
C1802 H1810 0.930 . S
C1803 C1802 1.394 . S
C1803 C1804 1.383 . S
C1803 H1811 0.929 . S
C1804 C1803 1.383 . S
C1804 C1805 1.377 . S
C1805 H1789 0.930 . S
C1805 C1804 1.377 . S
C1805 C1806 1.379 . S
C1806 H1790 0.931 . S
C1806 C1800 1.383 . S
C1806 C1805 1.379 . S
H1807 C1801 0.959 . S
H1808 C1801 0.961 . S
H1809 C1801 0.960 . S
H1810 C1802 0.930 . S
H1811 C1803 0.929 . S
H1812 C1820 0.929 . S
H1813 C1822 0.930 . S
H1814 C1824 0.930 . S
H1815 C1827 0.929 . S
H1816 C1830 0.930 . S
H1817 C1832 0.960 . S
H1818 C1832 0.960 . S
H1819 C1832 0.960 . S
C1820 H1812 0.929 . S
C1820 C1821 1.377 . S
C1820 C1822 1.384 . S
C1821 C1820 1.377 . S
C1821 C1827 1.390 . S
C1822 H1813 0.930 . S
C1822 C1820 1.384 . S
C1822 C1823 1.372 . S
C1823 C1822 1.372 . S
C1823 C1824 1.400 . S
C1823 C1828 1.490 . S
C1824 H1814 0.930 . S
C1824 C1823 1.400 . S
C1824 C1827 1.386 . S
H1825 C1841 0.930 . S
H1826 C1842 0.931 . S
C1827 H1815 0.929 . S
C1827 C1821 1.390 . S
C1827 C1824 1.386 . S
C1828 C1823 1.490 . S
C1828 C1830 1.395 . S
C1828 C1831 1.403 . S
H1829 C1835 0.930 . S
C1830 H1816 0.930 . S
C1830 C1828 1.395 . S
C1830 C1833 1.403 1_554 S
C1831 C1828 1.403 . S
C1831 C1832 1.524 . S
C1831 C1835 1.400 1_554 S
C1832 H1817 0.960 . S
C1832 H1818 0.960 . S
C1832 H1819 0.960 . S
C1832 C1831 1.524 . S
C1833 C1830 1.403 1_556 S
C1833 C1834 1.392 . S
C1833 C1837 1.495 . S
C1834 C1833 1.392 . S
C1834 C1835 1.385 . S
C1834 C1836 1.478 . S
C1835 H1829 0.930 . S
C1835 C1831 1.400 1_556 S
C1835 C1834 1.385 . S
C1836 C1834 1.478 . S
C1836 C1838 1.381 . S
C1836 C1842 1.383 . S
C1837 C1833 1.495 . S
C1837 H1843 0.959 . S
C1837 H1844 0.961 . S
C1837 H1845 0.960 . S
C1838 C1836 1.381 . S
C1838 C1839 1.394 . S
C1838 H1846 0.930 . S
C1839 C1838 1.394 . S
C1839 C1840 1.383 . S
C1839 H1847 0.929 . S
C1840 C1839 1.383 . S
C1840 C1841 1.377 . S
C1841 H1825 0.930 . S
C1841 C1840 1.377 . S
C1841 C1842 1.379 . S
C1842 H1826 0.931 . S
C1842 C1836 1.383 . S
C1842 C1841 1.379 . S
H1843 C1837 0.959 . S
H1844 C1837 0.961 . S
H1845 C1837 0.960 . S
H1846 C1838 0.930 . S
H1847 C1839 0.929 . S
H1848 C1856 0.929 . S
H1849 C1858 0.930 . S
H1850 C1860 0.930 . S
H1851 C1863 0.929 . S
H1852 C1866 0.930 . S
H1853 C1868 0.960 . S
H1854 C1868 0.960 . S
H1855 C1868 0.960 . S
C1856 H1848 0.929 . S
C1856 C1857 1.377 . S
C1856 C1858 1.384 . S
C1857 C1856 1.377 . S
C1857 C1863 1.390 . S
C1858 H1849 0.930 . S
C1858 C1856 1.384 . S
C1858 C1859 1.372 . S
C1859 C1858 1.372 . S
C1859 C1860 1.400 . S
C1859 C1864 1.490 . S
C1860 H1850 0.930 . S
C1860 C1859 1.400 . S
C1860 C1863 1.386 . S
H1861 C1877 0.930 . S
H1862 C1878 0.931 . S
C1863 H1851 0.929 . S
C1863 C1857 1.390 . S
C1863 C1860 1.386 . S
C1864 C1859 1.490 . S
C1864 C1866 1.395 . S
C1864 C1867 1.403 . S
H1865 C1871 0.930 . S
C1866 H1852 0.930 . S
C1866 C1864 1.395 . S
C1866 C1869 1.403 . S
C1867 C1864 1.403 . S
C1867 C1868 1.524 . S
C1867 C1871 1.400 . S
C1868 H1853 0.960 . S
C1868 H1854 0.960 . S
C1868 H1855 0.960 . S
C1868 C1867 1.524 . S
C1869 C1866 1.403 . S
C1869 C1870 1.392 . S
C1869 C1873 1.495 . S
C1870 C1869 1.392 . S
C1870 C1871 1.385 . S
C1870 C1872 1.478 . S
C1871 H1865 0.930 . S
C1871 C1867 1.400 . S
C1871 C1870 1.385 . S
C1872 C1870 1.478 . S
C1872 C1874 1.381 . S
C1872 C1878 1.383 . S
C1873 C1869 1.495 . S
C1873 H1879 0.959 . S
C1873 H1880 0.961 . S
C1873 H1881 0.960 . S
C1874 C1872 1.381 . S
C1874 C1875 1.394 . S
C1874 H1882 0.930 . S
C1875 C1874 1.394 . S
C1875 C1876 1.383 . S
C1875 H1883 0.929 . S
C1876 C1875 1.383 . S
C1876 C1877 1.377 . S
C1877 H1861 0.930 . S
C1877 C1876 1.377 . S
C1877 C1878 1.379 . S
C1878 H1862 0.931 . S
C1878 C1872 1.383 . S
C1878 C1877 1.379 . S
H1879 C1873 0.959 . S
H1880 C1873 0.961 . S
H1881 C1873 0.960 . S
H1882 C1874 0.930 . S
H1883 C1875 0.929 . S
H1884 C1892 0.929 . S
H1885 C1894 0.930 . S
H1886 C1896 0.930 . S
H1887 C1899 0.929 . S
H1888 C1902 0.930 . S
H1889 C1904 0.960 . S
H1890 C1904 0.960 . S
H1891 C1904 0.960 . S
C1892 H1884 0.929 . S
C1892 C1893 1.377 . S
C1892 C1894 1.384 . S
C1893 C1892 1.377 . S
C1893 C1899 1.390 . S
C1894 H1885 0.930 . S
C1894 C1892 1.384 . S
C1894 C1895 1.372 . S
C1895 C1894 1.372 . S
C1895 C1896 1.400 . S
C1895 C1900 1.490 . S
C1896 H1886 0.930 . S
C1896 C1895 1.400 . S
C1896 C1899 1.386 . S
H1897 C1913 0.930 . S
H1898 C1914 0.931 . S
C1899 H1887 0.929 . S
C1899 C1893 1.390 . S
C1899 C1896 1.386 . S
C1900 C1895 1.490 . S
C1900 C1902 1.395 . S
C1900 C1903 1.403 . S
H1901 C1907 0.930 . S
C1902 H1888 0.930 . S
C1902 C1900 1.395 . S
C1902 C1905 1.403 1_554 S
C1903 C1900 1.403 . S
C1903 C1904 1.524 . S
C1903 C1907 1.400 1_554 S
C1904 H1889 0.960 . S
C1904 H1890 0.960 . S
C1904 H1891 0.960 . S
C1904 C1903 1.524 . S
C1905 C1902 1.403 1_556 S
C1905 C1906 1.392 . S
C1905 C1909 1.495 . S
C1906 C1905 1.392 . S
C1906 C1907 1.385 . S
C1906 C1908 1.478 . S
C1907 H1901 0.930 . S
C1907 C1903 1.400 1_556 S
C1907 C1906 1.385 . S
C1908 C1906 1.478 . S
C1908 C1910 1.381 . S
C1908 C1914 1.383 . S
C1909 C1905 1.495 . S
C1909 H1915 0.959 . S
C1909 H1916 0.961 . S
C1909 H1917 0.960 . S
C1910 C1908 1.381 . S
C1910 C1911 1.394 . S
C1910 H1918 0.930 . S
C1911 C1910 1.394 . S
C1911 C1912 1.383 . S
C1911 H1919 0.929 . S
C1912 C1911 1.383 . S
C1912 C1913 1.377 . S
C1913 H1897 0.930 . S
C1913 C1912 1.377 . S
C1913 C1914 1.379 . S
C1914 H1898 0.931 . S
C1914 C1908 1.383 . S
C1914 C1913 1.379 . S
H1915 C1909 0.959 . S
H1916 C1909 0.961 . S
H1917 C1909 0.960 . S
H1918 C1910 0.930 . S
H1919 C1911 0.929 . S
H1920 C1928 0.929 . S
H1921 C1930 0.930 . S
H1922 C1932 0.930 . S
H1923 C1935 0.929 . S
H1924 C1938 0.930 . S
H1925 C1940 0.960 . S
H1926 C1940 0.960 . S
H1927 C1940 0.960 . S
C1928 H1920 0.929 . S
C1928 C1929 1.377 . S
C1928 C1930 1.384 . S
C1929 C1928 1.377 . S
C1929 C1935 1.390 . S
C1930 H1921 0.930 . S
C1930 C1928 1.384 . S
C1930 C1931 1.372 . S
C1931 C1930 1.372 . S
C1931 C1932 1.400 . S
C1931 C1936 1.490 . S
C1932 H1922 0.930 . S
C1932 C1931 1.400 . S
C1932 C1935 1.386 . S
H1933 C1949 0.930 . S
H1934 C1950 0.931 . S
C1935 H1923 0.929 . S
C1935 C1929 1.390 . S
C1935 C1932 1.386 . S
C1936 C1931 1.490 . S
C1936 C1938 1.395 . S
C1936 C1939 1.403 . S
H1937 C1943 0.930 . S
C1938 H1924 0.930 . S
C1938 C1936 1.395 . S
C1938 C1941 1.403 . S
C1939 C1936 1.403 . S
C1939 C1940 1.524 . S
C1939 C1943 1.400 . S
C1940 H1925 0.960 . S
C1940 H1926 0.960 . S
C1940 H1927 0.960 . S
C1940 C1939 1.524 . S
C1941 C1938 1.403 . S
C1941 C1942 1.392 . S
C1941 C1945 1.495 . S
C1942 C1941 1.392 . S
C1942 C1943 1.385 . S
C1942 C1944 1.478 . S
C1943 H1937 0.930 . S
C1943 C1939 1.400 . S
C1943 C1942 1.385 . S
C1944 C1942 1.478 . S
C1944 C1946 1.381 . S
C1944 C1950 1.383 . S
C1945 C1941 1.495 . S
C1945 H1951 0.959 . S
C1945 H1952 0.961 . S
C1945 H1953 0.960 . S
C1946 C1944 1.381 . S
C1946 C1947 1.394 . S
C1946 H1954 0.930 . S
C1947 C1946 1.394 . S
C1947 C1948 1.383 . S
C1947 H1955 0.929 . S
C1948 C1947 1.383 . S
C1948 C1949 1.377 . S
C1949 H1933 0.930 . S
C1949 C1948 1.377 . S
C1949 C1950 1.379 . S
C1950 H1934 0.931 . S
C1950 C1944 1.383 . S
C1950 C1949 1.379 . S
H1951 C1945 0.959 . S
H1952 C1945 0.961 . S
H1953 C1945 0.960 . S
H1954 C1946 0.930 . S
H1955 C1947 0.929 . S
H1956 C1964 0.929 . S
H1957 C1966 0.930 . S
H1958 C1968 0.930 . S
H1959 C1971 0.929 . S
H1960 C1974 0.930 . S
H1961 C1976 0.960 . S
H1962 C1976 0.960 . S
H1963 C1976 0.960 . S
C1964 H1956 0.929 . S
C1964 C1965 1.377 . S
C1964 C1966 1.384 . S
C1965 C1964 1.377 . S
C1965 C1971 1.390 . S
C1966 H1957 0.930 . S
C1966 C1964 1.384 . S
C1966 C1967 1.372 . S
C1967 C1966 1.372 . S
C1967 C1968 1.400 . S
C1967 C1972 1.490 . S
C1968 H1958 0.930 . S
C1968 C1967 1.400 . S
C1968 C1971 1.386 . S
H1969 C1985 0.930 . S
H1970 C1986 0.931 . S
C1971 H1959 0.929 . S
C1971 C1965 1.390 . S
C1971 C1968 1.386 . S
C1972 C1967 1.490 . S
C1972 C1974 1.395 . S
C1972 C1975 1.403 . S
H1973 C1979 0.930 . S
C1974 H1960 0.930 . S
C1974 C1972 1.395 . S
C1974 C1977 1.403 1_554 S
C1975 C1972 1.403 . S
C1975 C1976 1.524 . S
C1975 C1979 1.400 1_554 S
C1976 H1961 0.960 . S
C1976 H1962 0.960 . S
C1976 H1963 0.960 . S
C1976 C1975 1.524 . S
C1977 C1974 1.403 1_556 S
C1977 C1978 1.392 . S
C1977 C1981 1.495 . S
C1978 C1977 1.392 . S
C1978 C1979 1.385 . S
C1978 C1980 1.478 . S
C1979 H1973 0.930 . S
C1979 C1975 1.400 1_556 S
C1979 C1978 1.385 . S
C1980 C1978 1.478 . S
C1980 C1982 1.381 . S
C1980 C1986 1.383 . S
C1981 C1977 1.495 . S
C1981 H1987 0.959 . S
C1981 H1988 0.961 . S
C1981 H1989 0.960 . S
C1982 C1980 1.381 . S
C1982 C1983 1.394 . S
C1982 H1990 0.930 . S
C1983 C1982 1.394 . S
C1983 C1984 1.383 . S
C1983 H1991 0.929 . S
C1984 C1983 1.383 . S
C1984 C1985 1.377 . S
C1985 H1969 0.930 . S
C1985 C1984 1.377 . S
C1985 C1986 1.379 . S
C1986 H1970 0.931 . S
C1986 C1980 1.383 . S
C1986 C1985 1.379 . S
H1987 C1981 0.959 . S
H1988 C1981 0.961 . S
H1989 C1981 0.960 . S
H1990 C1982 0.930 . S
H1991 C1983 0.929 . S
H1992 C2000 0.929 . S
H1993 C2002 0.930 . S
H1994 C2004 0.930 . S
H1995 C2007 0.929 . S
H1996 C2010 0.930 . S
H1997 C2012 0.960 . S
H1998 C2012 0.960 . S
H1999 C2012 0.960 . S
C2000 H1992 0.929 . S
C2000 C2001 1.377 . S
C2000 C2002 1.384 . S
C2001 C2000 1.377 . S
C2001 C2007 1.390 . S
C2002 H1993 0.930 . S
C2002 C2000 1.384 . S
C2002 C2003 1.372 . S
C2003 C2002 1.372 . S
C2003 C2004 1.400 . S
C2003 C2008 1.490 . S
C2004 H1994 0.930 . S
C2004 C2003 1.400 . S
C2004 C2007 1.386 . S
H2005 C2021 0.930 . S
H2006 C2022 0.931 . S
C2007 H1995 0.929 . S
C2007 C2001 1.390 . S
C2007 C2004 1.386 . S
C2008 C2003 1.490 . S
C2008 C2010 1.395 . S
C2008 C2011 1.403 . S
H2009 C2015 0.930 . S
C2010 H1996 0.930 . S
C2010 C2008 1.395 . S
C2010 C2013 1.403 . S
C2011 C2008 1.403 . S
C2011 C2012 1.524 . S
C2011 C2015 1.400 . S
C2012 H1997 0.960 . S
C2012 H1998 0.960 . S
C2012 H1999 0.960 . S
C2012 C2011 1.524 . S
C2013 C2010 1.403 . S
C2013 C2014 1.392 . S
C2013 C2017 1.495 . S
C2014 C2013 1.392 . S
C2014 C2015 1.385 . S
C2014 C2016 1.478 . S
C2015 H2009 0.930 . S
C2015 C2011 1.400 . S
C2015 C2014 1.385 . S
C2016 C2014 1.478 . S
C2016 C2018 1.381 . S
C2016 C2022 1.383 . S
C2017 C2013 1.495 . S
C2017 H2023 0.959 . S
C2017 H2024 0.961 . S
C2017 H2025 0.960 . S
C2018 C2016 1.381 . S
C2018 C2019 1.394 . S
C2018 H2026 0.930 . S
C2019 C2018 1.394 . S
C2019 C2020 1.383 . S
C2019 H2027 0.929 . S
C2020 C2019 1.383 . S
C2020 C2021 1.377 . S
C2021 H2005 0.930 . S
C2021 C2020 1.377 . S
C2021 C2022 1.379 . S
C2022 H2006 0.931 . S
C2022 C2016 1.383 . S
C2022 C2021 1.379 . S
H2023 C2017 0.959 . S
H2024 C2017 0.961 . S
H2025 C2017 0.960 . S
H2026 C2018 0.930 . S
H2027 C2019 0.929 . S
H2028 C2036 0.929 . S
H2029 C2038 0.930 . S
H2030 C2040 0.930 . S
H2031 C2043 0.929 . S
H2032 C2046 0.930 . S
H2033 C2048 0.960 . S
H2034 C2048 0.960 . S
H2035 C2048 0.960 . S
C2036 H2028 0.929 . S
C2036 C2037 1.377 . S
C2036 C2038 1.384 . S
C2037 C2036 1.377 . S
C2037 C2043 1.390 . S
C2038 H2029 0.930 . S
C2038 C2036 1.384 . S
C2038 C2039 1.372 . S
C2039 C2038 1.372 . S
C2039 C2040 1.400 . S
C2039 C2044 1.490 . S
C2040 H2030 0.930 . S
C2040 C2039 1.400 . S
C2040 C2043 1.386 . S
H2041 C2057 0.930 . S
H2042 C2058 0.931 . S
C2043 H2031 0.929 . S
C2043 C2037 1.390 . S
C2043 C2040 1.386 . S
C2044 C2039 1.490 . S
C2044 C2046 1.395 . S
C2044 C2047 1.403 . S
H2045 C2051 0.930 . S
C2046 H2032 0.930 . S
C2046 C2044 1.395 . S
C2046 C2049 1.403 . S
C2047 C2044 1.403 . S
C2047 C2048 1.524 . S
C2047 C2051 1.400 . S
C2048 H2033 0.960 . S
C2048 H2034 0.960 . S
C2048 H2035 0.960 . S
C2048 C2047 1.524 . S
C2049 C2046 1.403 . S
C2049 C2050 1.392 . S
C2049 C2053 1.495 . S
C2050 C2049 1.392 . S
C2050 C2051 1.385 . S
C2050 C2052 1.478 . S
C2051 H2045 0.930 . S
C2051 C2047 1.400 . S
C2051 C2050 1.385 . S
C2052 C2050 1.478 . S
C2052 C2054 1.381 . S
C2052 C2058 1.383 . S
C2053 C2049 1.495 . S
C2053 H2059 0.959 . S
C2053 H2060 0.961 . S
C2053 H2061 0.960 . S
C2054 C2052 1.381 . S
C2054 C2055 1.394 . S
C2054 H2062 0.930 . S
C2055 C2054 1.394 . S
C2055 C2056 1.383 . S
C2055 H2063 0.929 . S
C2056 C2055 1.383 . S
C2056 C2057 1.377 . S
C2057 H2041 0.930 . S
C2057 C2056 1.377 . S
C2057 C2058 1.379 . S
C2058 H2042 0.931 . S
C2058 C2052 1.383 . S
C2058 C2057 1.379 . S
H2059 C2053 0.959 . S
H2060 C2053 0.961 . S
H2061 C2053 0.960 . S
H2062 C2054 0.930 . S
H2063 C2055 0.929 . S
H2064 C2072 0.929 . S
H2065 C2074 0.930 . S
H2066 C2076 0.930 . S
H2067 C2079 0.929 . S
H2068 C2082 0.930 . S
H2069 C2084 0.960 . S
H2070 C2084 0.960 . S
H2071 C2084 0.960 . S
C2072 H2064 0.929 . S
C2072 C2073 1.377 . S
C2072 C2074 1.384 . S
C2073 C2072 1.377 . S
C2073 C2079 1.390 . S
C2074 H2065 0.930 . S
C2074 C2072 1.384 . S
C2074 C2075 1.372 . S
C2075 C2074 1.372 . S
C2075 C2076 1.400 . S
C2075 C2080 1.490 . S
C2076 H2066 0.930 . S
C2076 C2075 1.400 . S
C2076 C2079 1.386 . S
H2077 C2093 0.930 . S
H2078 C2094 0.931 . S
C2079 H2067 0.929 . S
C2079 C2073 1.390 . S
C2079 C2076 1.386 . S
C2080 C2075 1.490 . S
C2080 C2082 1.395 . S
C2080 C2083 1.403 . S
H2081 C2087 0.930 . S
C2082 H2068 0.930 . S
C2082 C2080 1.395 . S
C2082 C2085 1.403 1_565 S
C2083 C2080 1.403 . S
C2083 C2084 1.524 . S
C2083 C2087 1.400 1_565 S
C2084 H2069 0.960 . S
C2084 H2070 0.960 . S
C2084 H2071 0.960 . S
C2084 C2083 1.524 . S
C2085 C2082 1.403 1_545 S
C2085 C2086 1.392 . S
C2085 C2089 1.495 . S
C2086 C2085 1.392 . S
C2086 C2087 1.385 . S
C2086 C2088 1.478 . S
C2087 H2081 0.930 . S
C2087 C2083 1.400 1_545 S
C2087 C2086 1.385 . S
C2088 C2086 1.478 . S
C2088 C2090 1.381 . S
C2088 C2094 1.383 . S
C2089 C2085 1.495 . S
C2089 H2095 0.959 . S
C2089 H2096 0.961 . S
C2089 H2097 0.960 . S
C2090 C2088 1.381 . S
C2090 C2091 1.394 . S
C2090 H2098 0.930 . S
C2091 C2090 1.394 . S
C2091 C2092 1.383 . S
C2091 H2099 0.929 . S
C2092 C2091 1.383 . S
C2092 C2093 1.377 . S
C2093 H2077 0.930 . S
C2093 C2092 1.377 . S
C2093 C2094 1.379 . S
C2094 H2078 0.931 . S
C2094 C2088 1.383 . S
C2094 C2093 1.379 . S
H2095 C2089 0.959 . S
H2096 C2089 0.961 . S
H2097 C2089 0.960 . S
H2098 C2090 0.930 . S
H2099 C2091 0.929 . S
H2100 C2108 0.929 . S
H2101 C2110 0.930 . S
H2102 C2112 0.930 . S
H2103 C2115 0.929 . S
H2104 C2118 0.930 . S
H2105 C2120 0.960 . S
H2106 C2120 0.960 . S
H2107 C2120 0.960 . S
C2108 H2100 0.929 . S
C2108 C2109 1.377 . S
C2108 C2110 1.384 . S
C2109 C2108 1.377 . S
C2109 C2115 1.390 . S
C2110 H2101 0.930 . S
C2110 C2108 1.384 . S
C2110 C2111 1.372 . S
C2111 C2110 1.372 . S
C2111 C2112 1.400 . S
C2111 C2116 1.490 . S
C2112 H2102 0.930 . S
C2112 C2111 1.400 . S
C2112 C2115 1.386 . S
H2113 C2129 0.930 . S
H2114 C2130 0.931 . S
C2115 H2103 0.929 . S
C2115 C2109 1.390 . S
C2115 C2112 1.386 . S
C2116 C2111 1.490 . S
C2116 C2118 1.395 . S
C2116 C2119 1.403 . S
H2117 C2123 0.930 . S
C2118 H2104 0.930 . S
C2118 C2116 1.395 . S
C2118 C2121 1.403 . S
C2119 C2116 1.403 . S
C2119 C2120 1.524 . S
C2119 C2123 1.400 . S
C2120 H2105 0.960 . S
C2120 H2106 0.960 . S
C2120 H2107 0.960 . S
C2120 C2119 1.524 . S
C2121 C2118 1.403 . S
C2121 C2122 1.392 . S
C2121 C2125 1.495 . S
C2122 C2121 1.392 . S
C2122 C2123 1.385 . S
C2122 C2124 1.478 . S
C2123 H2117 0.930 . S
C2123 C2119 1.400 . S
C2123 C2122 1.385 . S
C2124 C2122 1.478 . S
C2124 C2126 1.381 . S
C2124 C2130 1.383 . S
C2125 C2121 1.495 . S
C2125 H2131 0.959 . S
C2125 H2132 0.961 . S
C2125 H2133 0.960 . S
C2126 C2124 1.381 . S
C2126 C2127 1.394 . S
C2126 H2134 0.930 . S
C2127 C2126 1.394 . S
C2127 C2128 1.383 . S
C2127 H2135 0.929 . S
C2128 C2127 1.383 . S
C2128 C2129 1.377 . S
C2129 H2113 0.930 . S
C2129 C2128 1.377 . S
C2129 C2130 1.379 . S
C2130 H2114 0.931 . S
C2130 C2124 1.383 . S
C2130 C2129 1.379 . S
H2131 C2125 0.959 . S
H2132 C2125 0.961 . S
H2133 C2125 0.960 . S
H2134 C2126 0.930 . S
H2135 C2127 0.929 . S
H2136 C2144 0.929 . S
H2137 C2146 0.930 . S
H2138 C2148 0.930 . S
H2139 C2151 0.929 . S
H2140 C2154 0.930 . S
H2141 C2156 0.960 . S
H2142 C2156 0.960 . S
H2143 C2156 0.960 . S
C2144 H2136 0.929 . S
C2144 C2145 1.377 . S
C2144 C2146 1.384 . S
C2145 C2144 1.377 . S
C2145 C2151 1.390 . S
C2146 H2137 0.930 . S
C2146 C2144 1.384 . S
C2146 C2147 1.372 . S
C2147 C2146 1.372 . S
C2147 C2148 1.400 . S
C2147 C2152 1.490 . S
C2148 H2138 0.930 . S
C2148 C2147 1.400 . S
C2148 C2151 1.386 . S
H2149 C2165 0.930 . S
H2150 C2166 0.931 . S
C2151 H2139 0.929 . S
C2151 C2145 1.390 . S
C2151 C2148 1.386 . S
C2152 C2147 1.490 . S
C2152 C2154 1.395 . S
C2152 C2155 1.403 . S
H2153 C2159 0.930 . S
C2154 H2140 0.930 . S
C2154 C2152 1.395 . S
C2154 C2157 1.403 1_565 S
C2155 C2152 1.403 . S
C2155 C2156 1.524 . S
C2155 C2159 1.400 1_565 S
C2156 H2141 0.960 . S
C2156 H2142 0.960 . S
C2156 H2143 0.960 . S
C2156 C2155 1.524 . S
C2157 C2154 1.403 1_545 S
C2157 C2158 1.392 . S
C2157 C2161 1.495 . S
C2158 C2157 1.392 . S
C2158 C2159 1.385 . S
C2158 C2160 1.478 . S
C2159 H2153 0.930 . S
C2159 C2155 1.400 1_545 S
C2159 C2158 1.385 . S
C2160 C2158 1.478 . S
C2160 C2162 1.381 . S
C2160 C2166 1.383 . S
C2161 C2157 1.495 . S
C2161 H2167 0.959 . S
C2161 H2168 0.961 . S
C2161 H2169 0.960 . S
C2162 C2160 1.381 . S
C2162 C2163 1.394 . S
C2162 H2170 0.930 . S
C2163 C2162 1.394 . S
C2163 C2164 1.383 . S
C2163 H2171 0.929 . S
C2164 C2163 1.383 . S
C2164 C2165 1.377 . S
C2165 H2149 0.930 . S
C2165 C2164 1.377 . S
C2165 C2166 1.379 . S
C2166 H2150 0.931 . S
C2166 C2160 1.383 . S
C2166 C2165 1.379 . S
H2167 C2161 0.959 . S
H2168 C2161 0.961 . S
H2169 C2161 0.960 . S
H2170 C2162 0.930 . S
H2171 C2163 0.929 . S
H2172 C2180 0.929 . S
H2173 C2182 0.930 . S
H2174 C2184 0.930 . S
H2175 C2187 0.929 . S
H2176 C2190 0.930 . S
H2177 C2192 0.960 . S
H2178 C2192 0.960 . S
H2179 C2192 0.960 . S
C2180 H2172 0.929 . S
C2180 C2181 1.377 . S
C2180 C2182 1.384 . S
C2181 C2180 1.377 . S
C2181 C2187 1.390 . S
C2182 H2173 0.930 . S
C2182 C2180 1.384 . S
C2182 C2183 1.372 . S
C2183 C2182 1.372 . S
C2183 C2184 1.400 . S
C2183 C2188 1.490 . S
C2184 H2174 0.930 . S
C2184 C2183 1.400 . S
C2184 C2187 1.386 . S
H2185 C2201 0.930 . S
H2186 C2202 0.931 . S
C2187 H2175 0.929 . S
C2187 C2181 1.390 . S
C2187 C2184 1.386 . S
C2188 C2183 1.490 . S
C2188 C2190 1.395 . S
C2188 C2191 1.403 . S
H2189 C2195 0.930 . S
C2190 H2176 0.930 . S
C2190 C2188 1.395 . S
C2190 C2193 1.403 . S
C2191 C2188 1.403 . S
C2191 C2192 1.524 . S
C2191 C2195 1.400 . S
C2192 H2177 0.960 . S
C2192 H2178 0.960 . S
C2192 H2179 0.960 . S
C2192 C2191 1.524 . S
C2193 C2190 1.403 . S
C2193 C2194 1.392 . S
C2193 C2197 1.495 . S
C2194 C2193 1.392 . S
C2194 C2195 1.385 . S
C2194 C2196 1.478 . S
C2195 H2189 0.930 . S
C2195 C2191 1.400 . S
C2195 C2194 1.385 . S
C2196 C2194 1.478 . S
C2196 C2198 1.381 . S
C2196 C2202 1.383 . S
C2197 C2193 1.495 . S
C2197 H2203 0.959 . S
C2197 H2204 0.961 . S
C2197 H2205 0.960 . S
C2198 C2196 1.381 . S
C2198 C2199 1.394 . S
C2198 H2206 0.930 . S
C2199 C2198 1.394 . S
C2199 C2200 1.383 . S
C2199 H2207 0.929 . S
C2200 C2199 1.383 . S
C2200 C2201 1.377 . S
C2201 H2185 0.930 . S
C2201 C2200 1.377 . S
C2201 C2202 1.379 . S
C2202 H2186 0.931 . S
C2202 C2196 1.383 . S
C2202 C2201 1.379 . S
H2203 C2197 0.959 . S
H2204 C2197 0.961 . S
H2205 C2197 0.960 . S
H2206 C2198 0.930 . S
H2207 C2199 0.929 . S
H2208 C2216 0.929 . S
H2209 C2218 0.930 . S
H2210 C2220 0.930 . S
H2211 C2223 0.929 . S
H2212 C2226 0.930 . S
H2213 C2228 0.960 . S
H2214 C2228 0.960 . S
H2215 C2228 0.960 . S
C2216 H2208 0.929 . S
C2216 C2217 1.377 . S
C2216 C2218 1.384 . S
C2217 C2216 1.377 . S
C2217 C2223 1.390 . S
C2218 H2209 0.930 . S
C2218 C2216 1.384 . S
C2218 C2219 1.372 . S
C2219 C2218 1.372 . S
C2219 C2220 1.400 . S
C2219 C2224 1.490 . S
C2220 H2210 0.930 . S
C2220 C2219 1.400 . S
C2220 C2223 1.386 . S
H2221 C2237 0.930 . S
H2222 C2238 0.931 . S
C2223 H2211 0.929 . S
C2223 C2217 1.390 . S
C2223 C2220 1.386 . S
C2224 C2219 1.490 . S
C2224 C2226 1.395 . S
C2224 C2227 1.403 . S
H2225 C2231 0.930 . S
C2226 H2212 0.930 . S
C2226 C2224 1.395 . S
C2226 C2229 1.403 1_565 S
C2227 C2224 1.403 . S
C2227 C2228 1.524 . S
C2227 C2231 1.400 1_565 S
C2228 H2213 0.960 . S
C2228 H2214 0.960 . S
C2228 H2215 0.960 . S
C2228 C2227 1.524 . S
C2229 C2226 1.403 1_545 S
C2229 C2230 1.392 . S
C2229 C2233 1.495 . S
C2230 C2229 1.392 . S
C2230 C2231 1.385 . S
C2230 C2232 1.478 . S
C2231 H2225 0.930 . S
C2231 C2227 1.400 1_545 S
C2231 C2230 1.385 . S
C2232 C2230 1.478 . S
C2232 C2234 1.381 . S
C2232 C2238 1.383 . S
C2233 C2229 1.495 . S
C2233 H2239 0.959 . S
C2233 H2240 0.961 . S
C2233 H2241 0.960 . S
C2234 C2232 1.381 . S
C2234 C2235 1.394 . S
C2234 H2242 0.930 . S
C2235 C2234 1.394 . S
C2235 C2236 1.383 . S
C2235 H2243 0.929 . S
C2236 C2235 1.383 . S
C2236 C2237 1.377 . S
C2237 H2221 0.930 . S
C2237 C2236 1.377 . S
C2237 C2238 1.379 . S
C2238 H2222 0.931 . S
C2238 C2232 1.383 . S
C2238 C2237 1.379 . S
H2239 C2233 0.959 . S
H2240 C2233 0.961 . S
H2241 C2233 0.960 . S
H2242 C2234 0.930 . S
H2243 C2235 0.929 . S
H2244 C2252 0.929 . S
H2245 C2254 0.930 . S
H2246 C2256 0.930 . S
H2247 C2259 0.929 . S
H2248 C2262 0.930 . S
H2249 C2264 0.960 . S
H2250 C2264 0.960 . S
H2251 C2264 0.960 . S
C2252 H2244 0.929 . S
C2252 C2253 1.377 . S
C2252 C2254 1.384 . S
C2253 C2252 1.377 . S
C2253 C2259 1.390 . S
C2254 H2245 0.930 . S
C2254 C2252 1.384 . S
C2254 C2255 1.372 . S
C2255 C2254 1.372 . S
C2255 C2256 1.400 . S
C2255 C2260 1.490 . S
C2256 H2246 0.930 . S
C2256 C2255 1.400 . S
C2256 C2259 1.386 . S
H2257 C2273 0.930 . S
H2258 C2274 0.931 . S
C2259 H2247 0.929 . S
C2259 C2253 1.390 . S
C2259 C2256 1.386 . S
C2260 C2255 1.490 . S
C2260 C2262 1.395 . S
C2260 C2263 1.403 . S
H2261 C2267 0.930 . S
C2262 H2248 0.930 . S
C2262 C2260 1.395 . S
C2262 C2265 1.403 1_545 S
C2263 C2260 1.403 . S
C2263 C2264 1.524 . S
C2263 C2267 1.400 1_545 S
C2264 H2249 0.960 . S
C2264 H2250 0.960 . S
C2264 H2251 0.960 . S
C2264 C2263 1.524 . S
C2265 C2262 1.403 1_565 S
C2265 C2266 1.392 . S
C2265 C2269 1.495 . S
C2266 C2265 1.392 . S
C2266 C2267 1.385 . S
C2266 C2268 1.478 . S
C2267 H2261 0.930 . S
C2267 C2263 1.400 1_565 S
C2267 C2266 1.385 . S
C2268 C2266 1.478 . S
C2268 C2270 1.381 . S
C2268 C2274 1.383 . S
C2269 C2265 1.495 . S
C2269 H2275 0.959 . S
C2269 H2276 0.961 . S
C2269 H2277 0.960 . S
C2270 C2268 1.381 . S
C2270 C2271 1.394 . S
C2270 H2278 0.930 . S
C2271 C2270 1.394 . S
C2271 C2272 1.383 . S
C2271 H2279 0.929 . S
C2272 C2271 1.383 . S
C2272 C2273 1.377 . S
C2273 H2257 0.930 . S
C2273 C2272 1.377 . S
C2273 C2274 1.379 . S
C2274 H2258 0.931 . S
C2274 C2268 1.383 . S
C2274 C2273 1.379 . S
H2275 C2269 0.959 . S
H2276 C2269 0.961 . S
H2277 C2269 0.960 . S
H2278 C2270 0.930 . S
H2279 C2271 0.929 . S
H2280 C2288 0.929 . S
H2281 C2290 0.930 . S
H2282 C2292 0.930 . S
H2283 C2295 0.929 . S
H2284 C2298 0.930 . S
H2285 C2300 0.960 . S
H2286 C2300 0.960 . S
H2287 C2300 0.960 . S
C2288 H2280 0.929 . S
C2288 C2289 1.377 . S
C2288 C2290 1.384 . S
C2289 C2288 1.377 . S
C2289 C2295 1.390 . S
C2290 H2281 0.930 . S
C2290 C2288 1.384 . S
C2290 C2291 1.372 . S
C2291 C2290 1.372 . S
C2291 C2292 1.400 . S
C2291 C2296 1.490 . S
C2292 H2282 0.930 . S
C2292 C2291 1.400 . S
C2292 C2295 1.386 . S
H2293 C2309 0.930 . S
H2294 C2310 0.931 . S
C2295 H2283 0.929 . S
C2295 C2289 1.390 . S
C2295 C2292 1.386 . S
C2296 C2291 1.490 . S
C2296 C2298 1.395 . S
C2296 C2299 1.403 . S
H2297 C2303 0.930 . S
C2298 H2284 0.930 . S
C2298 C2296 1.395 . S
C2298 C2301 1.403 . S
C2299 C2296 1.403 . S
C2299 C2300 1.524 . S
C2299 C2303 1.400 . S
C2300 H2285 0.960 . S
C2300 H2286 0.960 . S
C2300 H2287 0.960 . S
C2300 C2299 1.524 . S
C2301 C2298 1.403 . S
C2301 C2302 1.392 . S
C2301 C2305 1.495 . S
C2302 C2301 1.392 . S
C2302 C2303 1.385 . S
C2302 C2304 1.478 . S
C2303 H2297 0.930 . S
C2303 C2299 1.400 . S
C2303 C2302 1.385 . S
C2304 C2302 1.478 . S
C2304 C2306 1.381 . S
C2304 C2310 1.383 . S
C2305 C2301 1.495 . S
C2305 H2311 0.959 . S
C2305 H2312 0.961 . S
C2305 H2313 0.960 . S
C2306 C2304 1.381 . S
C2306 C2307 1.394 . S
C2306 H2314 0.930 . S
C2307 C2306 1.394 . S
C2307 C2308 1.383 . S
C2307 H2315 0.929 . S
C2308 C2307 1.383 . S
C2308 C2309 1.377 . S
C2309 H2293 0.930 . S
C2309 C2308 1.377 . S
C2309 C2310 1.379 . S
C2310 H2294 0.931 . S
C2310 C2304 1.383 . S
C2310 C2309 1.379 . S
H2311 C2305 0.959 . S
H2312 C2305 0.961 . S
H2313 C2305 0.960 . S
H2314 C2306 0.930 . S
H2315 C2307 0.929 . S
H2316 C2324 0.929 . S
H2317 C2326 0.930 . S
H2318 C2328 0.930 . S
H2319 C2331 0.929 . S
H2320 C2334 0.930 . S
H2321 C2336 0.960 . S
H2322 C2336 0.960 . S
H2323 C2336 0.960 . S
C2324 H2316 0.929 . S
C2324 C2325 1.377 . S
C2324 C2326 1.384 . S
C2325 C2324 1.377 . S
C2325 C2331 1.390 . S
C2326 H2317 0.930 . S
C2326 C2324 1.384 . S
C2326 C2327 1.372 . S
C2327 C2326 1.372 . S
C2327 C2328 1.400 . S
C2327 C2332 1.490 . S
C2328 H2318 0.930 . S
C2328 C2327 1.400 . S
C2328 C2331 1.386 . S
H2329 C2345 0.930 . S
H2330 C2346 0.931 . S
C2331 H2319 0.929 . S
C2331 C2325 1.390 . S
C2331 C2328 1.386 . S
C2332 C2327 1.490 . S
C2332 C2334 1.395 . S
C2332 C2335 1.403 . S
H2333 C2339 0.930 . S
C2334 H2320 0.930 . S
C2334 C2332 1.395 . S
C2334 C2337 1.403 . S
C2335 C2332 1.403 . S
C2335 C2336 1.524 . S
C2335 C2339 1.400 . S
C2336 H2321 0.960 . S
C2336 H2322 0.960 . S
C2336 H2323 0.960 . S
C2336 C2335 1.524 . S
C2337 C2334 1.403 . S
C2337 C2338 1.392 . S
C2337 C2341 1.495 . S
C2338 C2337 1.392 . S
C2338 C2339 1.385 . S
C2338 C2340 1.478 . S
C2339 H2333 0.930 . S
C2339 C2335 1.400 . S
C2339 C2338 1.385 . S
C2340 C2338 1.478 . S
C2340 C2342 1.381 . S
C2340 C2346 1.383 . S
C2341 C2337 1.495 . S
C2341 H2347 0.959 . S
C2341 H2348 0.961 . S
C2341 H2349 0.960 . S
C2342 C2340 1.381 . S
C2342 C2343 1.394 . S
C2342 H2350 0.930 . S
C2343 C2342 1.394 . S
C2343 C2344 1.383 . S
C2343 H2351 0.929 . S
C2344 C2343 1.383 . S
C2344 C2345 1.377 . S
C2345 H2329 0.930 . S
C2345 C2344 1.377 . S
C2345 C2346 1.379 . S
C2346 H2330 0.931 . S
C2346 C2340 1.383 . S
C2346 C2345 1.379 . S
H2347 C2341 0.959 . S
H2348 C2341 0.961 . S
H2349 C2341 0.960 . S
H2350 C2342 0.930 . S
H2351 C2343 0.929 . S
H2352 C2360 0.929 . S
H2353 C2362 0.930 . S
H2354 C2364 0.930 . S
H2355 C2367 0.929 . S
H2356 C2370 0.930 . S
H2357 C2372 0.960 . S
H2358 C2372 0.960 . S
H2359 C2372 0.960 . S
C2360 H2352 0.929 . S
C2360 C2361 1.377 . S
C2360 C2362 1.384 . S
C2361 C2360 1.377 . S
C2361 C2367 1.390 . S
C2362 H2353 0.930 . S
C2362 C2360 1.384 . S
C2362 C2363 1.372 . S
C2363 C2362 1.372 . S
C2363 C2364 1.400 . S
C2363 C2368 1.490 . S
C2364 H2354 0.930 . S
C2364 C2363 1.400 . S
C2364 C2367 1.386 . S
H2365 C2381 0.930 . S
H2366 C2382 0.931 . S
C2367 H2355 0.929 . S
C2367 C2361 1.390 . S
C2367 C2364 1.386 . S
C2368 C2363 1.490 . S
C2368 C2370 1.395 . S
C2368 C2371 1.403 . S
H2369 C2375 0.930 . S
C2370 H2356 0.930 . S
C2370 C2368 1.395 . S
C2370 C2373 1.403 . S
C2371 C2368 1.403 . S
C2371 C2372 1.524 . S
C2371 C2375 1.400 . S
C2372 H2357 0.960 . S
C2372 H2358 0.960 . S
C2372 H2359 0.960 . S
C2372 C2371 1.524 . S
C2373 C2370 1.403 . S
C2373 C2374 1.392 . S
C2373 C2377 1.495 . S
C2374 C2373 1.392 . S
C2374 C2375 1.385 . S
C2374 C2376 1.478 . S
C2375 H2369 0.930 . S
C2375 C2371 1.400 . S
C2375 C2374 1.385 . S
C2376 C2374 1.478 . S
C2376 C2378 1.381 . S
C2376 C2382 1.383 . S
C2377 C2373 1.495 . S
C2377 H2383 0.959 . S
C2377 H2384 0.961 . S
C2377 H2385 0.960 . S
C2378 C2376 1.381 . S
C2378 C2379 1.394 . S
C2378 H2386 0.930 . S
C2379 C2378 1.394 . S
C2379 C2380 1.383 . S
C2379 H2387 0.929 . S
C2380 C2379 1.383 . S
C2380 C2381 1.377 . S
C2381 H2365 0.930 . S
C2381 C2380 1.377 . S
C2381 C2382 1.379 . S
C2382 H2366 0.931 . S
C2382 C2376 1.383 . S
C2382 C2381 1.379 . S
H2383 C2377 0.959 . S
H2384 C2377 0.961 . S
H2385 C2377 0.960 . S
H2386 C2378 0.930 . S
H2387 C2379 0.929 . S
H2388 C2396 0.929 . S
H2389 C2398 0.930 . S
H2390 C2400 0.930 . S
H2391 C2403 0.929 . S
H2392 C2406 0.930 . S
H2393 C2408 0.960 . S
H2394 C2408 0.960 . S
H2395 C2408 0.960 . S
C2396 H2388 0.929 . S
C2396 C2397 1.377 . S
C2396 C2398 1.384 . S
C2397 C2396 1.377 . S
C2397 C2403 1.390 . S
C2398 H2389 0.930 . S
C2398 C2396 1.384 . S
C2398 C2399 1.372 . S
C2399 C2398 1.372 . S
C2399 C2400 1.400 . S
C2399 C2404 1.490 . S
C2400 H2390 0.930 . S
C2400 C2399 1.400 . S
C2400 C2403 1.386 . S
H2401 C2417 0.930 . S
H2402 C2418 0.931 . S
C2403 H2391 0.929 . S
C2403 C2397 1.390 . S
C2403 C2400 1.386 . S
C2404 C2399 1.490 . S
C2404 C2406 1.395 . S
C2404 C2407 1.403 . S
H2405 C2411 0.930 . S
C2406 H2392 0.930 . S
C2406 C2404 1.395 . S
C2406 C2409 1.403 . S
C2407 C2404 1.403 . S
C2407 C2408 1.524 . S
C2407 C2411 1.400 . S
C2408 H2393 0.960 . S
C2408 H2394 0.960 . S
C2408 H2395 0.960 . S
C2408 C2407 1.524 . S
C2409 C2406 1.403 . S
C2409 C2410 1.392 . S
C2409 C2413 1.495 . S
C2410 C2409 1.392 . S
C2410 C2411 1.385 . S
C2410 C2412 1.478 . S
C2411 H2405 0.930 . S
C2411 C2407 1.400 . S
C2411 C2410 1.385 . S
C2412 C2410 1.478 . S
C2412 C2414 1.381 . S
C2412 C2418 1.383 . S
C2413 C2409 1.495 . S
C2413 H2419 0.959 . S
C2413 H2420 0.961 . S
C2413 H2421 0.960 . S
C2414 C2412 1.381 . S
C2414 C2415 1.394 . S
C2414 H2422 0.930 . S
C2415 C2414 1.394 . S
C2415 C2416 1.383 . S
C2415 H2423 0.929 . S
C2416 C2415 1.383 . S
C2416 C2417 1.377 . S
C2417 H2401 0.930 . S
C2417 C2416 1.377 . S
C2417 C2418 1.379 . S
C2418 H2402 0.931 . S
C2418 C2412 1.383 . S
C2418 C2417 1.379 . S
H2419 C2413 0.959 . S
H2420 C2413 0.961 . S
H2421 C2413 0.960 . S
H2422 C2414 0.930 . S
H2423 C2415 0.929 . S
H2424 C2432 0.929 . S
H2425 C2434 0.930 . S
H2426 C2436 0.930 . S
H2427 C2439 0.929 . S
H2428 C2442 0.930 . S
H2429 C2444 0.960 . S
H2430 C2444 0.960 . S
H2431 C2444 0.960 . S
C2432 H2424 0.929 . S
C2432 C2433 1.377 . S
C2432 C2434 1.384 . S
C2433 C2432 1.377 . S
C2433 C2439 1.390 . S
C2434 H2425 0.930 . S
C2434 C2432 1.384 . S
C2434 C2435 1.372 . S
C2435 C2434 1.372 . S
C2435 C2436 1.400 . S
C2435 C2440 1.490 . S
C2436 H2426 0.930 . S
C2436 C2435 1.400 . S
C2436 C2439 1.386 . S
H2437 C2453 0.930 . S
H2438 C2454 0.931 . S
C2439 H2427 0.929 . S
C2439 C2433 1.390 . S
C2439 C2436 1.386 . S
C2440 C2435 1.490 . S
C2440 C2442 1.395 . S
C2440 C2443 1.403 . S
H2441 C2447 0.930 . S
C2442 H2428 0.930 . S
C2442 C2440 1.395 . S
C2442 C2445 1.403 . S
C2443 C2440 1.403 . S
C2443 C2444 1.524 . S
C2443 C2447 1.400 . S
C2444 H2429 0.960 . S
C2444 H2430 0.960 . S
C2444 H2431 0.960 . S
C2444 C2443 1.524 . S
C2445 C2442 1.403 . S
C2445 C2446 1.392 . S
C2445 C2449 1.495 . S
C2446 C2445 1.392 . S
C2446 C2447 1.385 . S
C2446 C2448 1.478 . S
C2447 H2441 0.930 . S
C2447 C2443 1.400 . S
C2447 C2446 1.385 . S
C2448 C2446 1.478 . S
C2448 C2450 1.381 . S
C2448 C2454 1.383 . S
C2449 C2445 1.495 . S
C2449 H2455 0.959 . S
C2449 H2456 0.961 . S
C2449 H2457 0.960 . S
C2450 C2448 1.381 . S
C2450 C2451 1.394 . S
C2450 H2458 0.930 . S
C2451 C2450 1.394 . S
C2451 C2452 1.383 . S
C2451 H2459 0.929 . S
C2452 C2451 1.383 . S
C2452 C2453 1.377 . S
C2453 H2437 0.930 . S
C2453 C2452 1.377 . S
C2453 C2454 1.379 . S
C2454 H2438 0.931 . S
C2454 C2448 1.383 . S
C2454 C2453 1.379 . S
H2455 C2449 0.959 . S
H2456 C2449 0.961 . S
H2457 C2449 0.960 . S
H2458 C2450 0.930 . S
H2459 C2451 0.929 . S
H2460 C2468 0.929 . S
H2461 C2470 0.930 . S
H2462 C2472 0.930 . S
H2463 C2475 0.929 . S
H2464 C2478 0.930 . S
H2465 C2480 0.960 . S
H2466 C2480 0.960 . S
H2467 C2480 0.960 . S
C2468 H2460 0.929 . S
C2468 C2469 1.377 . S
C2468 C2470 1.384 . S
C2469 C2468 1.377 . S
C2469 C2475 1.390 . S
C2470 H2461 0.930 . S
C2470 C2468 1.384 . S
C2470 C2471 1.372 . S
C2471 C2470 1.372 . S
C2471 C2472 1.400 . S
C2471 C2476 1.490 . S
C2472 H2462 0.930 . S
C2472 C2471 1.400 . S
C2472 C2475 1.386 . S
H2473 C2489 0.930 . S
H2474 C2490 0.931 . S
C2475 H2463 0.929 . S
C2475 C2469 1.390 . S
C2475 C2472 1.386 . S
C2476 C2471 1.490 . S
C2476 C2478 1.395 . S
C2476 C2479 1.403 . S
H2477 C2483 0.930 . S
C2478 H2464 0.930 . S
C2478 C2476 1.395 . S
C2478 C2481 1.403 . S
C2479 C2476 1.403 . S
C2479 C2480 1.524 . S
C2479 C2483 1.400 . S
C2480 H2465 0.960 . S
C2480 H2466 0.960 . S
C2480 H2467 0.960 . S
C2480 C2479 1.524 . S
C2481 C2478 1.403 . S
C2481 C2482 1.392 . S
C2481 C2485 1.495 . S
C2482 C2481 1.392 . S
C2482 C2483 1.385 . S
C2482 C2484 1.478 . S
C2483 H2477 0.930 . S
C2483 C2479 1.400 . S
C2483 C2482 1.385 . S
C2484 C2482 1.478 . S
C2484 C2486 1.381 . S
C2484 C2490 1.383 . S
C2485 C2481 1.495 . S
C2485 H2491 0.959 . S
C2485 H2492 0.961 . S
C2485 H2493 0.960 . S
C2486 C2484 1.381 . S
C2486 C2487 1.394 . S
C2486 H2494 0.930 . S
C2487 C2486 1.394 . S
C2487 C2488 1.383 . S
C2487 H2495 0.929 . S
C2488 C2487 1.383 . S
C2488 C2489 1.377 . S
C2489 H2473 0.930 . S
C2489 C2488 1.377 . S
C2489 C2490 1.379 . S
C2490 H2474 0.931 . S
C2490 C2484 1.383 . S
C2490 C2489 1.379 . S
H2491 C2485 0.959 . S
H2492 C2485 0.961 . S
H2493 C2485 0.960 . S
H2494 C2486 0.930 . S
H2495 C2487 0.929 . S
H2496 C2504 0.929 . S
H2497 C2506 0.930 . S
H2498 C2508 0.930 . S
H2499 C2511 0.929 . S
H2500 C2514 0.930 . S
H2501 C2516 0.960 . S
H2502 C2516 0.960 . S
H2503 C2516 0.960 . S
C2504 H2496 0.929 . S
C2504 C2505 1.377 . S
C2504 C2506 1.384 . S
C2505 C2504 1.377 . S
C2505 C2511 1.390 . S
C2506 H2497 0.930 . S
C2506 C2504 1.384 . S
C2506 C2507 1.372 . S
C2507 C2506 1.372 . S
C2507 C2508 1.400 . S
C2507 C2512 1.490 . S
C2508 H2498 0.930 . S
C2508 C2507 1.400 . S
C2508 C2511 1.386 . S
H2509 C2525 0.930 . S
H2510 C2526 0.931 . S
C2511 H2499 0.929 . S
C2511 C2505 1.390 . S
C2511 C2508 1.386 . S
C2512 C2507 1.490 . S
C2512 C2514 1.395 . S
C2512 C2515 1.403 . S
H2513 C2519 0.930 . S
C2514 H2500 0.930 . S
C2514 C2512 1.395 . S
C2514 C2517 1.403 . S
C2515 C2512 1.403 . S
C2515 C2516 1.524 . S
C2515 C2519 1.400 . S
C2516 H2501 0.960 . S
C2516 H2502 0.960 . S
C2516 H2503 0.960 . S
C2516 C2515 1.524 . S
C2517 C2514 1.403 . S
C2517 C2518 1.392 . S
C2517 C2521 1.495 . S
C2518 C2517 1.392 . S
C2518 C2519 1.385 . S
C2518 C2520 1.478 . S
C2519 H2513 0.930 . S
C2519 C2515 1.400 . S
C2519 C2518 1.385 . S
C2520 C2518 1.478 . S
C2520 C2522 1.381 . S
C2520 C2526 1.383 . S
C2521 C2517 1.495 . S
C2521 H2527 0.959 . S
C2521 H2528 0.961 . S
C2521 H2529 0.960 . S
C2522 C2520 1.381 . S
C2522 C2523 1.394 . S
C2522 H2530 0.930 . S
C2523 C2522 1.394 . S
C2523 C2524 1.383 . S
C2523 H2531 0.929 . S
C2524 C2523 1.383 . S
C2524 C2525 1.377 . S
C2525 H2509 0.930 . S
C2525 C2524 1.377 . S
C2525 C2526 1.379 . S
C2526 H2510 0.931 . S
C2526 C2520 1.383 . S
C2526 C2525 1.379 . S
H2527 C2521 0.959 . S
H2528 C2521 0.961 . S
H2529 C2521 0.960 . S
H2530 C2522 0.930 . S
H2531 C2523 0.929 . S
H2532 C2540 0.929 . S
H2533 C2542 0.930 . S
H2534 C2544 0.930 . S
H2535 C2547 0.929 . S
H2536 C2550 0.930 . S
H2537 C2552 0.960 . S
H2538 C2552 0.960 . S
H2539 C2552 0.960 . S
C2540 H2532 0.929 . S
C2540 C2541 1.377 . S
C2540 C2542 1.384 . S
C2541 C2540 1.377 . S
C2541 C2547 1.390 . S
C2542 H2533 0.930 . S
C2542 C2540 1.384 . S
C2542 C2543 1.372 . S
C2543 C2542 1.372 . S
C2543 C2544 1.400 . S
C2543 C2548 1.490 . S
C2544 H2534 0.930 . S
C2544 C2543 1.400 . S
C2544 C2547 1.386 . S
H2545 C2561 0.930 . S
H2546 C2562 0.931 . S
C2547 H2535 0.929 . S
C2547 C2541 1.390 . S
C2547 C2544 1.386 . S
C2548 C2543 1.490 . S
C2548 C2550 1.395 . S
C2548 C2551 1.403 . S
H2549 C2555 0.930 . S
C2550 H2536 0.930 . S
C2550 C2548 1.395 . S
C2550 C2553 1.403 . S
C2551 C2548 1.403 . S
C2551 C2552 1.524 . S
C2551 C2555 1.400 . S
C2552 H2537 0.960 . S
C2552 H2538 0.960 . S
C2552 H2539 0.960 . S
C2552 C2551 1.524 . S
C2553 C2550 1.403 . S
C2553 C2554 1.392 . S
C2553 C2557 1.495 . S
C2554 C2553 1.392 . S
C2554 C2555 1.385 . S
C2554 C2556 1.478 . S
C2555 H2549 0.930 . S
C2555 C2551 1.400 . S
C2555 C2554 1.385 . S
C2556 C2554 1.478 . S
C2556 C2558 1.381 . S
C2556 C2562 1.383 . S
C2557 C2553 1.495 . S
C2557 H2563 0.959 . S
C2557 H2564 0.961 . S
C2557 H2565 0.960 . S
C2558 C2556 1.381 . S
C2558 C2559 1.394 . S
C2558 H2566 0.930 . S
C2559 C2558 1.394 . S
C2559 C2560 1.383 . S
C2559 H2567 0.929 . S
C2560 C2559 1.383 . S
C2560 C2561 1.377 . S
C2561 H2545 0.930 . S
C2561 C2560 1.377 . S
C2561 C2562 1.379 . S
C2562 H2546 0.931 . S
C2562 C2556 1.383 . S
C2562 C2561 1.379 . S
H2563 C2557 0.959 . S
H2564 C2557 0.961 . S
H2565 C2557 0.960 . S
H2566 C2558 0.930 . S
H2567 C2559 0.929 . S
H2568 C2576 0.929 . S
H2569 C2578 0.930 . S
H2570 C2580 0.930 . S
H2571 C2583 0.929 . S
H2572 C2586 0.930 . S
H2573 C2588 0.960 . S
H2574 C2588 0.960 . S
H2575 C2588 0.960 . S
C2576 H2568 0.929 . S
C2576 C2577 1.377 . S
C2576 C2578 1.384 . S
C2577 C2576 1.377 . S
C2577 C2583 1.390 . S
C2578 H2569 0.930 . S
C2578 C2576 1.384 . S
C2578 C2579 1.372 . S
C2579 C2578 1.372 . S
C2579 C2580 1.400 . S
C2579 C2584 1.490 . S
C2580 H2570 0.930 . S
C2580 C2579 1.400 . S
C2580 C2583 1.386 . S
H2581 C2597 0.930 . S
H2582 C2598 0.931 . S
C2583 H2571 0.929 . S
C2583 C2577 1.390 . S
C2583 C2580 1.386 . S
C2584 C2579 1.490 . S
C2584 C2586 1.395 . S
C2584 C2587 1.403 . S
H2585 C2591 0.930 . S
C2586 H2572 0.930 . S
C2586 C2584 1.395 . S
C2586 C2589 1.403 . S
C2587 C2584 1.403 . S
C2587 C2588 1.524 . S
C2587 C2591 1.400 . S
C2588 H2573 0.960 . S
C2588 H2574 0.960 . S
C2588 H2575 0.960 . S
C2588 C2587 1.524 . S
C2589 C2586 1.403 . S
C2589 C2590 1.392 . S
C2589 C2593 1.495 . S
C2590 C2589 1.392 . S
C2590 C2591 1.385 . S
C2590 C2592 1.478 . S
C2591 H2585 0.930 . S
C2591 C2587 1.400 . S
C2591 C2590 1.385 . S
C2592 C2590 1.478 . S
C2592 C2594 1.381 . S
C2592 C2598 1.383 . S
C2593 C2589 1.495 . S
C2593 H2599 0.959 . S
C2593 H2600 0.961 . S
C2593 H2601 0.960 . S
C2594 C2592 1.381 . S
C2594 C2595 1.394 . S
C2594 H2602 0.930 . S
C2595 C2594 1.394 . S
C2595 C2596 1.383 . S
C2595 H2603 0.929 . S
C2596 C2595 1.383 . S
C2596 C2597 1.377 . S
C2597 H2581 0.930 . S
C2597 C2596 1.377 . S
C2597 C2598 1.379 . S
C2598 H2582 0.931 . S
C2598 C2592 1.383 . S
C2598 C2597 1.379 . S
H2599 C2593 0.959 . S
H2600 C2593 0.961 . S
H2601 C2593 0.960 . S
H2602 C2594 0.930 . S
H2603 C2595 0.929 . S
H2604 C2612 0.929 . S
H2605 C2614 0.930 . S
H2606 C2616 0.930 . S
H2607 C2619 0.929 . S
H2608 C2622 0.930 . S
H2609 C2624 0.960 . S
H2610 C2624 0.960 . S
H2611 C2624 0.960 . S
C2612 H2604 0.929 . S
C2612 C2613 1.377 . S
C2612 C2614 1.384 . S
C2613 C2612 1.377 . S
C2613 C2619 1.390 . S
C2614 H2605 0.930 . S
C2614 C2612 1.384 . S
C2614 C2615 1.372 . S
C2615 C2614 1.372 . S
C2615 C2616 1.400 . S
C2615 C2620 1.490 . S
C2616 H2606 0.930 . S
C2616 C2615 1.400 . S
C2616 C2619 1.386 . S
H2617 C2633 0.930 . S
H2618 C2634 0.931 . S
C2619 H2607 0.929 . S
C2619 C2613 1.390 . S
C2619 C2616 1.386 . S
C2620 C2615 1.490 . S
C2620 C2622 1.395 . S
C2620 C2623 1.403 . S
H2621 C2627 0.930 . S
C2622 H2608 0.930 . S
C2622 C2620 1.395 . S
C2622 C2625 1.403 . S
C2623 C2620 1.403 . S
C2623 C2624 1.524 . S
C2623 C2627 1.400 . S
C2624 H2609 0.960 . S
C2624 H2610 0.960 . S
C2624 H2611 0.960 . S
C2624 C2623 1.524 . S
C2625 C2622 1.403 . S
C2625 C2626 1.392 . S
C2625 C2629 1.495 . S
C2626 C2625 1.392 . S
C2626 C2627 1.385 . S
C2626 C2628 1.478 . S
C2627 H2621 0.930 . S
C2627 C2623 1.400 . S
C2627 C2626 1.385 . S
C2628 C2626 1.478 . S
C2628 C2630 1.381 . S
C2628 C2634 1.383 . S
C2629 C2625 1.495 . S
C2629 H2635 0.959 . S
C2629 H2636 0.961 . S
C2629 H2637 0.960 . S
C2630 C2628 1.381 . S
C2630 C2631 1.394 . S
C2630 H2638 0.930 . S
C2631 C2630 1.394 . S
C2631 C2632 1.383 . S
C2631 H2639 0.929 . S
C2632 C2631 1.383 . S
C2632 C2633 1.377 . S
C2633 H2617 0.930 . S
C2633 C2632 1.377 . S
C2633 C2634 1.379 . S
C2634 H2618 0.931 . S
C2634 C2628 1.383 . S
C2634 C2633 1.379 . S
H2635 C2629 0.959 . S
H2636 C2629 0.961 . S
H2637 C2629 0.960 . S
H2638 C2630 0.930 . S
H2639 C2631 0.929 . S
H2640 C2648 0.929 . S
H2641 C2650 0.930 . S
H2642 C2652 0.930 . S
H2643 C2655 0.929 . S
H2644 C2658 0.930 . S
H2645 C2660 0.960 . S
H2646 C2660 0.960 . S
H2647 C2660 0.960 . S
C2648 H2640 0.929 . S
C2648 C2649 1.377 . S
C2648 C2650 1.384 . S
C2649 C2648 1.377 . S
C2649 C2655 1.390 . S
C2650 H2641 0.930 . S
C2650 C2648 1.384 . S
C2650 C2651 1.372 . S
C2651 C2650 1.372 . S
C2651 C2652 1.400 . S
C2651 C2656 1.490 . S
C2652 H2642 0.930 . S
C2652 C2651 1.400 . S
C2652 C2655 1.386 . S
H2653 C2669 0.930 . S
H2654 C2670 0.931 . S
C2655 H2643 0.929 . S
C2655 C2649 1.390 . S
C2655 C2652 1.386 . S
C2656 C2651 1.490 . S
C2656 C2658 1.395 . S
C2656 C2659 1.403 . S
H2657 C2663 0.930 . S
C2658 H2644 0.930 . S
C2658 C2656 1.395 . S
C2658 C2661 1.403 . S
C2659 C2656 1.403 . S
C2659 C2660 1.524 . S
C2659 C2663 1.400 . S
C2660 H2645 0.960 . S
C2660 H2646 0.960 . S
C2660 H2647 0.960 . S
C2660 C2659 1.524 . S
C2661 C2658 1.403 . S
C2661 C2662 1.392 . S
C2661 C2665 1.495 . S
C2662 C2661 1.392 . S
C2662 C2663 1.385 . S
C2662 C2664 1.478 . S
C2663 H2657 0.930 . S
C2663 C2659 1.400 . S
C2663 C2662 1.385 . S
C2664 C2662 1.478 . S
C2664 C2666 1.381 . S
C2664 C2670 1.383 . S
C2665 C2661 1.495 . S
C2665 H2671 0.959 . S
C2665 H2672 0.961 . S
C2665 H2673 0.960 . S
C2666 C2664 1.381 . S
C2666 C2667 1.394 . S
C2666 H2674 0.930 . S
C2667 C2666 1.394 . S
C2667 C2668 1.383 . S
C2667 H2675 0.929 . S
C2668 C2667 1.383 . S
C2668 C2669 1.377 . S
C2669 H2653 0.930 . S
C2669 C2668 1.377 . S
C2669 C2670 1.379 . S
C2670 H2654 0.931 . S
C2670 C2664 1.383 . S
C2670 C2669 1.379 . S
H2671 C2665 0.959 . S
H2672 C2665 0.961 . S
H2673 C2665 0.960 . S
H2674 C2666 0.930 . S
H2675 C2667 0.929 . S
H2676 C2684 0.929 . S
H2677 C2686 0.930 . S
H2678 C2688 0.930 . S
H2679 C2691 0.929 . S
H2680 C2694 0.930 . S
H2681 C2696 0.960 . S
H2682 C2696 0.960 . S
H2683 C2696 0.960 . S
C2684 H2676 0.929 . S
C2684 C2685 1.377 . S
C2684 C2686 1.384 . S
C2685 C2684 1.377 . S
C2685 C2691 1.390 . S
C2686 H2677 0.930 . S
C2686 C2684 1.384 . S
C2686 C2687 1.372 . S
C2687 C2686 1.372 . S
C2687 C2688 1.400 . S
C2687 C2692 1.490 . S
C2688 H2678 0.930 . S
C2688 C2687 1.400 . S
C2688 C2691 1.386 . S
H2689 C2705 0.930 . S
H2690 C2706 0.931 . S
C2691 H2679 0.929 . S
C2691 C2685 1.390 . S
C2691 C2688 1.386 . S
C2692 C2687 1.490 . S
C2692 C2694 1.395 . S
C2692 C2695 1.403 . S
H2693 C2699 0.930 . S
C2694 H2680 0.930 . S
C2694 C2692 1.395 . S
C2694 C2697 1.403 . S
C2695 C2692 1.403 . S
C2695 C2696 1.524 . S
C2695 C2699 1.400 . S
C2696 H2681 0.960 . S
C2696 H2682 0.960 . S
C2696 H2683 0.960 . S
C2696 C2695 1.524 . S
C2697 C2694 1.403 . S
C2697 C2698 1.392 . S
C2697 C2701 1.495 . S
C2698 C2697 1.392 . S
C2698 C2699 1.385 . S
C2698 C2700 1.478 . S
C2699 H2693 0.930 . S
C2699 C2695 1.400 . S
C2699 C2698 1.385 . S
C2700 C2698 1.478 . S
C2700 C2702 1.381 . S
C2700 C2706 1.383 . S
C2701 C2697 1.495 . S
C2701 H2707 0.959 . S
C2701 H2708 0.961 . S
C2701 H2709 0.960 . S
C2702 C2700 1.381 . S
C2702 C2703 1.394 . S
C2702 H2710 0.930 . S
C2703 C2702 1.394 . S
C2703 C2704 1.383 . S
C2703 H2711 0.929 . S
C2704 C2703 1.383 . S
C2704 C2705 1.377 . S
C2705 H2689 0.930 . S
C2705 C2704 1.377 . S
C2705 C2706 1.379 . S
C2706 H2690 0.931 . S
C2706 C2700 1.383 . S
C2706 C2705 1.379 . S
H2707 C2701 0.959 . S
H2708 C2701 0.961 . S
H2709 C2701 0.960 . S
H2710 C2702 0.930 . S
H2711 C2703 0.929 . S
H2712 C2720 0.929 . S
H2713 C2722 0.930 . S
H2714 C2724 0.930 . S
H2715 C2727 0.929 . S
H2716 C2730 0.930 . S
H2717 C2732 0.960 . S
H2718 C2732 0.960 . S
H2719 C2732 0.960 . S
C2720 H2712 0.929 . S
C2720 C2721 1.377 . S
C2720 C2722 1.384 . S
C2721 C2720 1.377 . S
C2721 C2727 1.390 . S
C2722 H2713 0.930 . S
C2722 C2720 1.384 . S
C2722 C2723 1.372 . S
C2723 C2722 1.372 . S
C2723 C2724 1.400 . S
C2723 C2728 1.490 . S
C2724 H2714 0.930 . S
C2724 C2723 1.400 . S
C2724 C2727 1.386 . S
H2725 C2741 0.930 . S
H2726 C2742 0.931 . S
C2727 H2715 0.929 . S
C2727 C2721 1.390 . S
C2727 C2724 1.386 . S
C2728 C2723 1.490 . S
C2728 C2730 1.395 . S
C2728 C2731 1.403 . S
H2729 C2735 0.930 . S
C2730 H2716 0.930 . S
C2730 C2728 1.395 . S
C2730 C2733 1.403 . S
C2731 C2728 1.403 . S
C2731 C2732 1.524 . S
C2731 C2735 1.400 . S
C2732 H2717 0.960 . S
C2732 H2718 0.960 . S
C2732 H2719 0.960 . S
C2732 C2731 1.524 . S
C2733 C2730 1.403 . S
C2733 C2734 1.392 . S
C2733 C2737 1.495 . S
C2734 C2733 1.392 . S
C2734 C2735 1.385 . S
C2734 C2736 1.478 . S
C2735 H2729 0.930 . S
C2735 C2731 1.400 . S
C2735 C2734 1.385 . S
C2736 C2734 1.478 . S
C2736 C2738 1.381 . S
C2736 C2742 1.383 . S
C2737 C2733 1.495 . S
C2737 H2743 0.959 . S
C2737 H2744 0.961 . S
C2737 H2745 0.960 . S
C2738 C2736 1.381 . S
C2738 C2739 1.394 . S
C2738 H2746 0.930 . S
C2739 C2738 1.394 . S
C2739 C2740 1.383 . S
C2739 H2747 0.929 . S
C2740 C2739 1.383 . S
C2740 C2741 1.377 . S
C2741 H2725 0.930 . S
C2741 C2740 1.377 . S
C2741 C2742 1.379 . S
C2742 H2726 0.931 . S
C2742 C2736 1.383 . S
C2742 C2741 1.379 . S
H2743 C2737 0.959 . S
H2744 C2737 0.961 . S
H2745 C2737 0.960 . S
H2746 C2738 0.930 . S
H2747 C2739 0.929 . S
H2748 C2756 0.929 . S
H2749 C2758 0.930 . S
H2750 C2760 0.930 . S
H2751 C2763 0.929 . S
H2752 C2766 0.930 . S
H2753 C2768 0.960 . S
H2754 C2768 0.960 . S
H2755 C2768 0.960 . S
C2756 H2748 0.929 . S
C2756 C2757 1.377 . S
C2756 C2758 1.384 . S
C2757 C2756 1.377 . S
C2757 C2763 1.390 . S
C2758 H2749 0.930 . S
C2758 C2756 1.384 . S
C2758 C2759 1.372 . S
C2759 C2758 1.372 . S
C2759 C2760 1.400 . S
C2759 C2764 1.490 . S
C2760 H2750 0.930 . S
C2760 C2759 1.400 . S
C2760 C2763 1.386 . S
H2761 C2777 0.930 . S
H2762 C2778 0.931 . S
C2763 H2751 0.929 . S
C2763 C2757 1.390 . S
C2763 C2760 1.386 . S
C2764 C2759 1.490 . S
C2764 C2766 1.395 . S
C2764 C2767 1.403 . S
H2765 C2771 0.930 . S
C2766 H2752 0.930 . S
C2766 C2764 1.395 . S
C2766 C2769 1.403 . S
C2767 C2764 1.403 . S
C2767 C2768 1.524 . S
C2767 C2771 1.400 . S
C2768 H2753 0.960 . S
C2768 H2754 0.960 . S
C2768 H2755 0.960 . S
C2768 C2767 1.524 . S
C2769 C2766 1.403 . S
C2769 C2770 1.392 . S
C2769 C2773 1.495 . S
C2770 C2769 1.392 . S
C2770 C2771 1.385 . S
C2770 C2772 1.478 . S
C2771 H2765 0.930 . S
C2771 C2767 1.400 . S
C2771 C2770 1.385 . S
C2772 C2770 1.478 . S
C2772 C2774 1.381 . S
C2772 C2778 1.383 . S
C2773 C2769 1.495 . S
C2773 H2779 0.959 . S
C2773 H2780 0.961 . S
C2773 H2781 0.960 . S
C2774 C2772 1.381 . S
C2774 C2775 1.394 . S
C2774 H2782 0.930 . S
C2775 C2774 1.394 . S
C2775 C2776 1.383 . S
C2775 H2783 0.929 . S
C2776 C2775 1.383 . S
C2776 C2777 1.377 . S
C2777 H2761 0.930 . S
C2777 C2776 1.377 . S
C2777 C2778 1.379 . S
C2778 H2762 0.931 . S
C2778 C2772 1.383 . S
C2778 C2777 1.379 . S
H2779 C2773 0.959 . S
H2780 C2773 0.961 . S
H2781 C2773 0.960 . S
H2782 C2774 0.930 . S
H2783 C2775 0.929 . S
H2784 C2792 0.929 . S
H2785 C2794 0.930 . S
H2786 C2796 0.930 . S
H2787 C2799 0.929 . S
H2788 C2802 0.930 . S
H2789 C2804 0.960 . S
H2790 C2804 0.960 . S
H2791 C2804 0.960 . S
C2792 H2784 0.929 . S
C2792 C2793 1.377 . S
C2792 C2794 1.384 . S
C2793 C2792 1.377 . S
C2793 C2799 1.390 . S
C2794 H2785 0.930 . S
C2794 C2792 1.384 . S
C2794 C2795 1.372 . S
C2795 C2794 1.372 . S
C2795 C2796 1.400 . S
C2795 C2800 1.490 . S
C2796 H2786 0.930 . S
C2796 C2795 1.400 . S
C2796 C2799 1.386 . S
H2797 C2813 0.930 . S
H2798 C2814 0.931 . S
C2799 H2787 0.929 . S
C2799 C2793 1.390 . S
C2799 C2796 1.386 . S
C2800 C2795 1.490 . S
C2800 C2802 1.395 . S
C2800 C2803 1.403 . S
H2801 C2807 0.930 . S
C2802 H2788 0.930 . S
C2802 C2800 1.395 . S
C2802 C2805 1.403 . S
C2803 C2800 1.403 . S
C2803 C2804 1.524 . S
C2803 C2807 1.400 . S
C2804 H2789 0.960 . S
C2804 H2790 0.960 . S
C2804 H2791 0.960 . S
C2804 C2803 1.524 . S
C2805 C2802 1.403 . S
C2805 C2806 1.392 . S
C2805 C2809 1.495 . S
C2806 C2805 1.392 . S
C2806 C2807 1.385 . S
C2806 C2808 1.478 . S
C2807 H2801 0.930 . S
C2807 C2803 1.400 . S
C2807 C2806 1.385 . S
C2808 C2806 1.478 . S
C2808 C2810 1.381 . S
C2808 C2814 1.383 . S
C2809 C2805 1.495 . S
C2809 H2815 0.959 . S
C2809 H2816 0.961 . S
C2809 H2817 0.960 . S
C2810 C2808 1.381 . S
C2810 C2811 1.394 . S
C2810 H2818 0.930 . S
C2811 C2810 1.394 . S
C2811 C2812 1.383 . S
C2811 H2819 0.929 . S
C2812 C2811 1.383 . S
C2812 C2813 1.377 . S
C2813 H2797 0.930 . S
C2813 C2812 1.377 . S
C2813 C2814 1.379 . S
C2814 H2798 0.931 . S
C2814 C2808 1.383 . S
C2814 C2813 1.379 . S
H2815 C2809 0.959 . S
H2816 C2809 0.961 . S
H2817 C2809 0.960 . S
H2818 C2810 0.930 . S
H2819 C2811 0.929 . S
H2820 C2828 0.929 . S
H2821 C2830 0.930 . S
H2822 C2832 0.930 . S
H2823 C2835 0.929 . S
H2824 C2838 0.930 . S
H2825 C2840 0.960 . S
H2826 C2840 0.960 . S
H2827 C2840 0.960 . S
C2828 H2820 0.929 . S
C2828 C2829 1.377 . S
C2828 C2830 1.384 . S
C2829 C2828 1.377 . S
C2829 C2835 1.390 . S
C2830 H2821 0.930 . S
C2830 C2828 1.384 . S
C2830 C2831 1.372 . S
C2831 C2830 1.372 . S
C2831 C2832 1.400 . S
C2831 C2836 1.490 . S
C2832 H2822 0.930 . S
C2832 C2831 1.400 . S
C2832 C2835 1.386 . S
H2833 C2849 0.930 . S
H2834 C2850 0.931 . S
C2835 H2823 0.929 . S
C2835 C2829 1.390 . S
C2835 C2832 1.386 . S
C2836 C2831 1.490 . S
C2836 C2838 1.395 . S
C2836 C2839 1.403 . S
H2837 C2843 0.930 . S
C2838 H2824 0.930 . S
C2838 C2836 1.395 . S
C2838 C2841 1.403 . S
C2839 C2836 1.403 . S
C2839 C2840 1.524 . S
C2839 C2843 1.400 . S
C2840 H2825 0.960 . S
C2840 H2826 0.960 . S
C2840 H2827 0.960 . S
C2840 C2839 1.524 . S
C2841 C2838 1.403 . S
C2841 C2842 1.392 . S
C2841 C2845 1.495 . S
C2842 C2841 1.392 . S
C2842 C2843 1.385 . S
C2842 C2844 1.478 . S
C2843 H2837 0.930 . S
C2843 C2839 1.400 . S
C2843 C2842 1.385 . S
C2844 C2842 1.478 . S
C2844 C2846 1.381 . S
C2844 C2850 1.383 . S
C2845 C2841 1.495 . S
C2845 H2851 0.959 . S
C2845 H2852 0.961 . S
C2845 H2853 0.960 . S
C2846 C2844 1.381 . S
C2846 C2847 1.394 . S
C2846 H2854 0.930 . S
C2847 C2846 1.394 . S
C2847 C2848 1.383 . S
C2847 H2855 0.929 . S
C2848 C2847 1.383 . S
C2848 C2849 1.377 . S
C2849 H2833 0.930 . S
C2849 C2848 1.377 . S
C2849 C2850 1.379 . S
C2850 H2834 0.931 . S
C2850 C2844 1.383 . S
C2850 C2849 1.379 . S
H2851 C2845 0.959 . S
H2852 C2845 0.961 . S
H2853 C2845 0.960 . S
H2854 C2846 0.930 . S
H2855 C2847 0.929 . S
H2856 C2864 0.929 . S
H2857 C2866 0.930 . S
H2858 C2868 0.930 . S
H2859 C2871 0.929 . S
H2860 C2874 0.930 . S
H2861 C2876 0.960 . S
H2862 C2876 0.960 . S
H2863 C2876 0.960 . S
C2864 H2856 0.929 . S
C2864 C2865 1.377 . S
C2864 C2866 1.384 . S
C2865 C2864 1.377 . S
C2865 C2871 1.390 . S
C2866 H2857 0.930 . S
C2866 C2864 1.384 . S
C2866 C2867 1.372 . S
C2867 C2866 1.372 . S
C2867 C2868 1.400 . S
C2867 C2872 1.490 . S
C2868 H2858 0.930 . S
C2868 C2867 1.400 . S
C2868 C2871 1.386 . S
H2869 C2885 0.930 . S
H2870 C2886 0.931 . S
C2871 H2859 0.929 . S
C2871 C2865 1.390 . S
C2871 C2868 1.386 . S
C2872 C2867 1.490 . S
C2872 C2874 1.395 . S
C2872 C2875 1.403 . S
H2873 C2879 0.930 . S
C2874 H2860 0.930 . S
C2874 C2872 1.395 . S
C2874 C2877 1.403 . S
C2875 C2872 1.403 . S
C2875 C2876 1.524 . S
C2875 C2879 1.400 . S
C2876 H2861 0.960 . S
C2876 H2862 0.960 . S
C2876 H2863 0.960 . S
C2876 C2875 1.524 . S
C2877 C2874 1.403 . S
C2877 C2878 1.392 . S
C2877 C2881 1.495 . S
C2878 C2877 1.392 . S
C2878 C2879 1.385 . S
C2878 C2880 1.478 . S
C2879 H2873 0.930 . S
C2879 C2875 1.400 . S
C2879 C2878 1.385 . S
C2880 C2878 1.478 . S
C2880 C2882 1.381 . S
C2880 C2886 1.383 . S
C2881 C2877 1.495 . S
C2881 H2887 0.959 . S
C2881 H2888 0.961 . S
C2881 H2889 0.960 . S
C2882 C2880 1.381 . S
C2882 C2883 1.394 . S
C2882 H2890 0.930 . S
C2883 C2882 1.394 . S
C2883 C2884 1.383 . S
C2883 H2891 0.929 . S
C2884 C2883 1.383 . S
C2884 C2885 1.377 . S
C2885 H2869 0.930 . S
C2885 C2884 1.377 . S
C2885 C2886 1.379 . S
C2886 H2870 0.931 . S
C2886 C2880 1.383 . S
C2886 C2885 1.379 . S
H2887 C2881 0.959 . S
H2888 C2881 0.961 . S
H2889 C2881 0.960 . S
H2890 C2882 0.930 . S
H2891 C2883 0.929 . S
H2892 C2900 0.929 . S
H2893 C2902 0.930 . S
H2894 C2904 0.930 . S
H2895 C2907 0.929 . S
H2896 C2910 0.930 . S
H2897 C2912 0.960 . S
H2898 C2912 0.960 . S
H2899 C2912 0.960 . S
C2900 H2892 0.929 . S
C2900 C2901 1.377 . S
C2900 C2902 1.384 . S
C2901 C2900 1.377 . S
C2901 C2907 1.390 . S
C2902 H2893 0.930 . S
C2902 C2900 1.384 . S
C2902 C2903 1.372 . S
C2903 C2902 1.372 . S
C2903 C2904 1.400 . S
C2903 C2908 1.490 . S
C2904 H2894 0.930 . S
C2904 C2903 1.400 . S
C2904 C2907 1.386 . S
H2905 C2921 0.930 . S
H2906 C2922 0.931 . S
C2907 H2895 0.929 . S
C2907 C2901 1.390 . S
C2907 C2904 1.386 . S
C2908 C2903 1.490 . S
C2908 C2910 1.395 . S
C2908 C2911 1.403 . S
H2909 C2915 0.930 . S
C2910 H2896 0.930 . S
C2910 C2908 1.395 . S
C2910 C2913 1.403 . S
C2911 C2908 1.403 . S
C2911 C2912 1.524 . S
C2911 C2915 1.400 . S
C2912 H2897 0.960 . S
C2912 H2898 0.960 . S
C2912 H2899 0.960 . S
C2912 C2911 1.524 . S
C2913 C2910 1.403 . S
C2913 C2914 1.392 . S
C2913 C2917 1.495 . S
C2914 C2913 1.392 . S
C2914 C2915 1.385 . S
C2914 C2916 1.478 . S
C2915 H2909 0.930 . S
C2915 C2911 1.400 . S
C2915 C2914 1.385 . S
C2916 C2914 1.478 . S
C2916 C2918 1.381 . S
C2916 C2922 1.383 . S
C2917 C2913 1.495 . S
C2917 H2923 0.959 . S
C2917 H2924 0.961 . S
C2917 H2925 0.960 . S
C2918 C2916 1.381 . S
C2918 C2919 1.394 . S
C2918 H2926 0.930 . S
C2919 C2918 1.394 . S
C2919 C2920 1.383 . S
C2919 H2927 0.929 . S
C2920 C2919 1.383 . S
C2920 C2921 1.377 . S
C2921 H2905 0.930 . S
C2921 C2920 1.377 . S
C2921 C2922 1.379 . S
C2922 H2906 0.931 . S
C2922 C2916 1.383 . S
C2922 C2921 1.379 . S
H2923 C2917 0.959 . S
H2924 C2917 0.961 . S
H2925 C2917 0.960 . S
H2926 C2918 0.930 . S
H2927 C2919 0.929 . S
H2928 C2936 0.929 . S
H2929 C2938 0.930 . S
H2930 C2940 0.930 . S
H2931 C2943 0.929 . S
H2932 C2946 0.930 . S
H2933 C2948 0.960 . S
H2934 C2948 0.960 . S
H2935 C2948 0.960 . S
C2936 H2928 0.929 . S
C2936 C2937 1.377 . S
C2936 C2938 1.384 . S
C2937 C2936 1.377 . S
C2937 C2943 1.390 . S
C2938 H2929 0.930 . S
C2938 C2936 1.384 . S
C2938 C2939 1.372 . S
C2939 C2938 1.372 . S
C2939 C2940 1.400 . S
C2939 C2944 1.490 . S
C2940 H2930 0.930 . S
C2940 C2939 1.400 . S
C2940 C2943 1.386 . S
H2941 C2957 0.930 . S
H2942 C2958 0.931 . S
C2943 H2931 0.929 . S
C2943 C2937 1.390 . S
C2943 C2940 1.386 . S
C2944 C2939 1.490 . S
C2944 C2946 1.395 . S
C2944 C2947 1.403 . S
H2945 C2951 0.930 . S
C2946 H2932 0.930 . S
C2946 C2944 1.395 . S
C2946 C2949 1.403 . S
C2947 C2944 1.403 . S
C2947 C2948 1.524 . S
C2947 C2951 1.400 . S
C2948 H2933 0.960 . S
C2948 H2934 0.960 . S
C2948 H2935 0.960 . S
C2948 C2947 1.524 . S
C2949 C2946 1.403 . S
C2949 C2950 1.392 . S
C2949 C2953 1.495 . S
C2950 C2949 1.392 . S
C2950 C2951 1.385 . S
C2950 C2952 1.478 . S
C2951 H2945 0.930 . S
C2951 C2947 1.400 . S
C2951 C2950 1.385 . S
C2952 C2950 1.478 . S
C2952 C2954 1.381 . S
C2952 C2958 1.383 . S
C2953 C2949 1.495 . S
C2953 H2959 0.959 . S
C2953 H2960 0.961 . S
C2953 H2961 0.960 . S
C2954 C2952 1.381 . S
C2954 C2955 1.394 . S
C2954 H2962 0.930 . S
C2955 C2954 1.394 . S
C2955 C2956 1.383 . S
C2955 H2963 0.929 . S
C2956 C2955 1.383 . S
C2956 C2957 1.377 . S
C2957 H2941 0.930 . S
C2957 C2956 1.377 . S
C2957 C2958 1.379 . S
C2958 H2942 0.931 . S
C2958 C2952 1.383 . S
C2958 C2957 1.379 . S
H2959 C2953 0.959 . S
H2960 C2953 0.961 . S
H2961 C2953 0.960 . S
H2962 C2954 0.930 . S
H2963 C2955 0.929 . S
H2964 C2972 0.929 . S
H2965 C2974 0.930 . S
H2966 C2976 0.930 . S
H2967 C2979 0.929 . S
H2968 C2982 0.930 . S
H2969 C2984 0.960 . S
H2970 C2984 0.960 . S
H2971 C2984 0.960 . S
C2972 H2964 0.929 . S
C2972 C2973 1.377 . S
C2972 C2974 1.384 . S
C2973 C2972 1.377 . S
C2973 C2979 1.390 . S
C2974 H2965 0.930 . S
C2974 C2972 1.384 . S
C2974 C2975 1.372 . S
C2975 C2974 1.372 . S
C2975 C2976 1.400 . S
C2975 C2980 1.490 . S
C2976 H2966 0.930 . S
C2976 C2975 1.400 . S
C2976 C2979 1.386 . S
H2977 C2993 0.930 . S
H2978 C2994 0.931 . S
C2979 H2967 0.929 . S
C2979 C2973 1.390 . S
C2979 C2976 1.386 . S
C2980 C2975 1.490 . S
C2980 C2982 1.395 . S
C2980 C2983 1.403 . S
H2981 C2987 0.930 . S
C2982 H2968 0.930 . S
C2982 C2980 1.395 . S
C2982 C2985 1.403 . S
C2983 C2980 1.403 . S
C2983 C2984 1.524 . S
C2983 C2987 1.400 . S
C2984 H2969 0.960 . S
C2984 H2970 0.960 . S
C2984 H2971 0.960 . S
C2984 C2983 1.524 . S
C2985 C2982 1.403 . S
C2985 C2986 1.392 . S
C2985 C2989 1.495 . S
C2986 C2985 1.392 . S
C2986 C2987 1.385 . S
C2986 C2988 1.478 . S
C2987 H2981 0.930 . S
C2987 C2983 1.400 . S
C2987 C2986 1.385 . S
C2988 C2986 1.478 . S
C2988 C2990 1.381 . S
C2988 C2994 1.383 . S
C2989 C2985 1.495 . S
C2989 H2995 0.959 . S
C2989 H2996 0.961 . S
C2989 H2997 0.960 . S
C2990 C2988 1.381 . S
C2990 C2991 1.394 . S
C2990 H2998 0.930 . S
C2991 C2990 1.394 . S
C2991 C2992 1.383 . S
C2991 H2999 0.929 . S
C2992 C2991 1.383 . S
C2992 C2993 1.377 . S
C2993 H2977 0.930 . S
C2993 C2992 1.377 . S
C2993 C2994 1.379 . S
C2994 H2978 0.931 . S
C2994 C2988 1.383 . S
C2994 C2993 1.379 . S
H2995 C2989 0.959 . S
H2996 C2989 0.961 . S
H2997 C2989 0.960 . S
H2998 C2990 0.930 . S
H2999 C2991 0.929 . S
H3000 C3008 0.929 . S
H3001 C3010 0.930 . S
H3002 C3012 0.930 . S
H3003 C3015 0.929 . S
H3004 C3018 0.930 . S
H3005 C3020 0.960 . S
H3006 C3020 0.960 . S
H3007 C3020 0.960 . S
C3008 H3000 0.929 . S
C3008 C3009 1.377 . S
C3008 C3010 1.384 . S
C3009 C3008 1.377 . S
C3009 C3015 1.390 . S
C3010 H3001 0.930 . S
C3010 C3008 1.384 . S
C3010 C3011 1.372 . S
C3011 C3010 1.372 . S
C3011 C3012 1.400 . S
C3011 C3016 1.490 . S
C3012 H3002 0.930 . S
C3012 C3011 1.400 . S
C3012 C3015 1.386 . S
H3013 C3029 0.930 . S
H3014 C3030 0.931 . S
C3015 H3003 0.929 . S
C3015 C3009 1.390 . S
C3015 C3012 1.386 . S
C3016 C3011 1.490 . S
C3016 C3018 1.395 . S
C3016 C3019 1.403 . S
H3017 C3023 0.930 . S
C3018 H3004 0.930 . S
C3018 C3016 1.395 . S
C3018 C3021 1.403 . S
C3019 C3016 1.403 . S
C3019 C3020 1.524 . S
C3019 C3023 1.400 . S
C3020 H3005 0.960 . S
C3020 H3006 0.960 . S
C3020 H3007 0.960 . S
C3020 C3019 1.524 . S
C3021 C3018 1.403 . S
C3021 C3022 1.392 . S
C3021 C3025 1.495 . S
C3022 C3021 1.392 . S
C3022 C3023 1.385 . S
C3022 C3024 1.478 . S
C3023 H3017 0.930 . S
C3023 C3019 1.400 . S
C3023 C3022 1.385 . S
C3024 C3022 1.478 . S
C3024 C3026 1.381 . S
C3024 C3030 1.383 . S
C3025 C3021 1.495 . S
C3025 H3031 0.959 . S
C3025 H3032 0.961 . S
C3025 H3033 0.960 . S
C3026 C3024 1.381 . S
C3026 C3027 1.394 . S
C3026 H3034 0.930 . S
C3027 C3026 1.394 . S
C3027 C3028 1.383 . S
C3027 H3035 0.929 . S
C3028 C3027 1.383 . S
C3028 C3029 1.377 . S
C3029 H3013 0.930 . S
C3029 C3028 1.377 . S
C3029 C3030 1.379 . S
C3030 H3014 0.931 . S
C3030 C3024 1.383 . S
C3030 C3029 1.379 . S
H3031 C3025 0.959 . S
H3032 C3025 0.961 . S
H3033 C3025 0.960 . S
H3034 C3026 0.930 . S
H3035 C3027 0.929 . S
H3036 C3044 0.929 . S
H3037 C3046 0.930 . S
H3038 C3048 0.930 . S
H3039 C3051 0.929 . S
H3040 C3054 0.930 . S
H3041 C3056 0.960 . S
H3042 C3056 0.960 . S
H3043 C3056 0.960 . S
C3044 H3036 0.929 . S
C3044 C3045 1.377 . S
C3044 C3046 1.384 . S
C3045 C3044 1.377 . S
C3045 C3051 1.390 . S
C3046 H3037 0.930 . S
C3046 C3044 1.384 . S
C3046 C3047 1.372 . S
C3047 C3046 1.372 . S
C3047 C3048 1.400 . S
C3047 C3052 1.490 . S
C3048 H3038 0.930 . S
C3048 C3047 1.400 . S
C3048 C3051 1.386 . S
H3049 C3065 0.930 . S
H3050 C3066 0.931 . S
C3051 H3039 0.929 . S
C3051 C3045 1.390 . S
C3051 C3048 1.386 . S
C3052 C3047 1.490 . S
C3052 C3054 1.395 . S
C3052 C3055 1.403 . S
H3053 C3059 0.930 . S
C3054 H3040 0.930 . S
C3054 C3052 1.395 . S
C3054 C3057 1.403 . S
C3055 C3052 1.403 . S
C3055 C3056 1.524 . S
C3055 C3059 1.400 . S
C3056 H3041 0.960 . S
C3056 H3042 0.960 . S
C3056 H3043 0.960 . S
C3056 C3055 1.524 . S
C3057 C3054 1.403 . S
C3057 C3058 1.392 . S
C3057 C3061 1.495 . S
C3058 C3057 1.392 . S
C3058 C3059 1.385 . S
C3058 C3060 1.478 . S
C3059 H3053 0.930 . S
C3059 C3055 1.400 . S
C3059 C3058 1.385 . S
C3060 C3058 1.478 . S
C3060 C3062 1.381 . S
C3060 C3066 1.383 . S
C3061 C3057 1.495 . S
C3061 H3067 0.959 . S
C3061 H3068 0.961 . S
C3061 H3069 0.960 . S
C3062 C3060 1.381 . S
C3062 C3063 1.394 . S
C3062 H3070 0.930 . S
C3063 C3062 1.394 . S
C3063 C3064 1.383 . S
C3063 H3071 0.929 . S
C3064 C3063 1.383 . S
C3064 C3065 1.377 . S
C3065 H3049 0.930 . S
C3065 C3064 1.377 . S
C3065 C3066 1.379 . S
C3066 H3050 0.931 . S
C3066 C3060 1.383 . S
C3066 C3065 1.379 . S
H3067 C3061 0.959 . S
H3068 C3061 0.961 . S
H3069 C3061 0.960 . S
H3070 C3062 0.930 . S
H3071 C3063 0.929 . S
H3072 C3080 0.929 . S
H3073 C3082 0.930 . S
H3074 C3084 0.930 . S
H3075 C3087 0.929 . S
H3076 C3090 0.930 . S
H3077 C3092 0.960 . S
H3078 C3092 0.960 . S
H3079 C3092 0.960 . S
C3080 H3072 0.929 . S
C3080 C3081 1.377 . S
C3080 C3082 1.384 . S
C3081 C3080 1.377 . S
C3081 C3087 1.390 . S
C3082 H3073 0.930 . S
C3082 C3080 1.384 . S
C3082 C3083 1.372 . S
C3083 C3082 1.372 . S
C3083 C3084 1.400 . S
C3083 C3088 1.490 . S
C3084 H3074 0.930 . S
C3084 C3083 1.400 . S
C3084 C3087 1.386 . S
H3085 C3101 0.930 . S
H3086 C3102 0.931 . S
C3087 H3075 0.929 . S
C3087 C3081 1.390 . S
C3087 C3084 1.386 . S
C3088 C3083 1.490 . S
C3088 C3090 1.395 . S
C3088 C3091 1.403 . S
H3089 C3095 0.930 . S
C3090 H3076 0.930 . S
C3090 C3088 1.395 . S
C3090 C3093 1.403 . S
C3091 C3088 1.403 . S
C3091 C3092 1.524 . S
C3091 C3095 1.400 . S
C3092 H3077 0.960 . S
C3092 H3078 0.960 . S
C3092 H3079 0.960 . S
C3092 C3091 1.524 . S
C3093 C3090 1.403 . S
C3093 C3094 1.392 . S
C3093 C3097 1.495 . S
C3094 C3093 1.392 . S
C3094 C3095 1.385 . S
C3094 C3096 1.478 . S
C3095 H3089 0.930 . S
C3095 C3091 1.400 . S
C3095 C3094 1.385 . S
C3096 C3094 1.478 . S
C3096 C3098 1.381 . S
C3096 C3102 1.383 . S
C3097 C3093 1.495 . S
C3097 H3103 0.959 . S
C3097 H3104 0.961 . S
C3097 H3105 0.960 . S
C3098 C3096 1.381 . S
C3098 C3099 1.394 . S
C3098 H3106 0.930 . S
C3099 C3098 1.394 . S
C3099 C3100 1.383 . S
C3099 H3107 0.929 . S
C3100 C3099 1.383 . S
C3100 C3101 1.377 . S
C3101 H3085 0.930 . S
C3101 C3100 1.377 . S
C3101 C3102 1.379 . S
C3102 H3086 0.931 . S
C3102 C3096 1.383 . S
C3102 C3101 1.379 . S
H3103 C3097 0.959 . S
H3104 C3097 0.961 . S
H3105 C3097 0.960 . S
H3106 C3098 0.930 . S
H3107 C3099 0.929 . S
H3108 C3116 0.929 . S
H3109 C3118 0.930 . S
H3110 C3120 0.930 . S
H3111 C3123 0.929 . S
H3112 C3126 0.930 . S
H3113 C3128 0.960 . S
H3114 C3128 0.960 . S
H3115 C3128 0.960 . S
C3116 H3108 0.929 . S
C3116 C3117 1.377 . S
C3116 C3118 1.384 . S
C3117 C3116 1.377 . S
C3117 C3123 1.390 . S
C3118 H3109 0.930 . S
C3118 C3116 1.384 . S
C3118 C3119 1.372 . S
C3119 C3118 1.372 . S
C3119 C3120 1.400 . S
C3119 C3124 1.490 . S
C3120 H3110 0.930 . S
C3120 C3119 1.400 . S
C3120 C3123 1.386 . S
H3121 C3137 0.930 . S
H3122 C3138 0.931 . S
C3123 H3111 0.929 . S
C3123 C3117 1.390 . S
C3123 C3120 1.386 . S
C3124 C3119 1.490 . S
C3124 C3126 1.395 . S
C3124 C3127 1.403 . S
H3125 C3131 0.930 . S
C3126 H3112 0.930 . S
C3126 C3124 1.395 . S
C3126 C3129 1.403 . S
C3127 C3124 1.403 . S
C3127 C3128 1.524 . S
C3127 C3131 1.400 . S
C3128 H3113 0.960 . S
C3128 H3114 0.960 . S
C3128 H3115 0.960 . S
C3128 C3127 1.524 . S
C3129 C3126 1.403 . S
C3129 C3130 1.392 . S
C3129 C3133 1.495 . S
C3130 C3129 1.392 . S
C3130 C3131 1.385 . S
C3130 C3132 1.478 . S
C3131 H3125 0.930 . S
C3131 C3127 1.400 . S
C3131 C3130 1.385 . S
C3132 C3130 1.478 . S
C3132 C3134 1.381 . S
C3132 C3138 1.383 . S
C3133 C3129 1.495 . S
C3133 H3139 0.959 . S
C3133 H3140 0.961 . S
C3133 H3141 0.960 . S
C3134 C3132 1.381 . S
C3134 C3135 1.394 . S
C3134 H3142 0.930 . S
C3135 C3134 1.394 . S
C3135 C3136 1.383 . S
C3135 H3143 0.929 . S
C3136 C3135 1.383 . S
C3136 C3137 1.377 . S
C3137 H3121 0.930 . S
C3137 C3136 1.377 . S
C3137 C3138 1.379 . S
C3138 H3122 0.931 . S
C3138 C3132 1.383 . S
C3138 C3137 1.379 . S
H3139 C3133 0.959 . S
H3140 C3133 0.961 . S
H3141 C3133 0.960 . S
H3142 C3134 0.930 . S
H3143 C3135 0.929 . S
C1425 C890 1.354 . S
C1444 C3 1.356 . S
C1461 C711 1.354 . S
C1480 C64 1.357 . S
C1497 C770 1.359 . S
C1516 C121 1.348 . S
C1533 C831 1.359 . S
C1552 C180 1.360 . S
C1569 C829 1.361 . S
C1588 C62 1.353 . S
C1605 C123 1.359 . S
C1624 C888 1.362 . S
C1641 C713 1.351 . S
C1660 C182 1.348 . S
C1677 C772 1.354 . S
C1696 C5 1.351 . S
C1713 C1067 1.348 . S
C1732 C241 1.347 . S
C1749 C298 1.364 . S
C1768 C1124 1.361 . S
C1785 C359 1.347 . S
C1804 C949 1.341 . S
C1821 C1006 1.362 . S
C1840 C416 1.367 . S
C1857 C1301 1.365 . S
C1876 C475 1.369 . S
C1893 C536 1.348 . S
C1912 C1362 1.344 . S
C1929 C593 1.365 . S
C1948 C1183 1.354 . S
C1965 C654 1.346 . S
C1984 C1244 1.347 . S
C2001 C1008 1.354 . S
C2020 C652 1.347 . S
C2037 C1360 1.357 . S
C2056 C300 1.353 . S
C2073 C357 1.356 . S
C2092 C1185 1.352 . S
C2109 C1242 1.357 . S
C2128 C418 1.351 . S
C2145 C1303 1.356 . S
C2164 C239 1.346 . S
C2181 C534 1.354 . S
C2200 C1126 1.351 . S
C2217 C947 1.350 . S
C2236 C595 1.355 . S
C2253 C1065 1.358 . S
C2272 C477 1.355 . S
C2289 C33 0.896 . S
C2308 C269 0.876 . S
C2325 C347 0.899 . S
C2344 C111 0.889 . S
C2361 C151 0.896 . S
C2380 C387 0.915 . S
C2397 C210 0.897 . S
C2416 C465 0.882 . S
C2433 C524 0.902 . S
C2452 C92 0.909 . S
C2469 C564 0.898 . S
C2488 C170 0.885 . S
C2505 C642 0.895 . S
C2524 C229 0.910 . S
C2541 C52 0.896 . S
C2560 C682 0.900 . S
C2577 C701 0.896 . S
C2596 C288 0.881 . S
C2613 C328 0.895 . S
C2632 C505 0.899 . S
C2649 C406 0.895 . S
C2668 C583 0.895 . S
C2685 C623 0.895 . S
C2704 C446 0.915 . S
C2721 C977 0.893 . S
C2740 C760 0.897 . S
C2757 C1055 0.895 . S
C2776 C819 0.909 . S
C2793 C859 0.896 . S
C2812 C1095 0.907 . S
C2829 C918 0.894 . S
C2848 C1173 0.889 . S
C2865 C800 0.899 . S
C2884 C1232 0.905 . S
C2901 C878 0.895 . S
C2920 C1272 0.904 . S
C2937 C1350 0.898 . S
C2956 C937 0.909 . S
C2973 C741 0.887 . S
C2992 C1390 0.899 . S
C3009 C996 0.890 . S
C3028 C1409 0.906 . S
C3045 C1213 0.899 . S
C3064 C1036 0.879 . S
C3081 C1114 0.895 . S
C3100 C1291 0.888 . S
C3117 C1331 0.896 . S
C3136 C1154 0.896 . S
