# Generated by pormake.
# Topology wls, (5)-cn, num edge types: 1
# Building blocks:
#     Node 0, Type 0, BuildingBlock: BEQFEK_clean_sbu_0, # of connection points: 5
#     Node 1, Type 0, BuildingBlock: BEQFEK_clean_sbu_0, # of connection points: 5
#     Node 2, Type 0, BuildingBlock: BEQFEK_clean_sbu_0, # of connection points: 5
#     Node 3, Type 0, BuildingBlock: BEQFEK_clean_sbu_0, # of connection points: 5
#     Node 4, Type 0, BuildingBlock: BEQFEK_clean_sbu_0, # of connection points: 5
#     Node 5, Type 0, BuildingBlock: BEQFEK_clean_sbu_0, # of connection points: 5
#     Node 6, Type 0, BuildingBlock: BEQFEK_clean_sbu_0, # of connection points: 5
#     Node 7, Type 0, BuildingBlock: BEQFEK_clean_sbu_0, # of connection points: 5
#     Node 8, Type 0, BuildingBlock: BEQFEK_clean_sbu_0, # of connection points: 5
#     Node 9, Type 0, BuildingBlock: BEQFEK_clean_sbu_0, # of connection points: 5
#     Node 10, Type 0, BuildingBlock: BEQFEK_clean_sbu_0, # of connection points: 5
#     Node 11, Type 0, BuildingBlock: BEQFEK_clean_sbu_0, # of connection points: 5
#     Node 12, Type 0, BuildingBlock: BEQFEK_clean_sbu_0, # of connection points: 5
#     Node 13, Type 0, BuildingBlock: BEQFEK_clean_sbu_0, # of connection points: 5
#     Node 14, Type 0, BuildingBlock: BEQFEK_clean_sbu_0, # of connection points: 5
#     Node 15, Type 0, BuildingBlock: BEQFEK_clean_sbu_0, # of connection points: 5
#     Node 16, Type 0, BuildingBlock: BEQFEK_clean_sbu_0, # of connection points: 5
#     Node 17, Type 0, BuildingBlock: BEQFEK_clean_sbu_0, # of connection points: 5
#     Node 18, Type 0, BuildingBlock: BEQFEK_clean_sbu_0, # of connection points: 5
#     Node 19, Type 0, BuildingBlock: BEQFEK_clean_sbu_0, # of connection points: 5
#     Node 20, Type 0, BuildingBlock: BEQFEK_clean_sbu_0, # of connection points: 5
#     Node 21, Type 0, BuildingBlock: BEQFEK_clean_sbu_0, # of connection points: 5
#     Node 22, Type 0, BuildingBlock: BEQFEK_clean_sbu_0, # of connection points: 5
#     Node 23, Type 0, BuildingBlock: BEQFEK_clean_sbu_0, # of connection points: 5
#     Node 24, Type 0, BuildingBlock: BEQFEK_clean_sbu_0, # of connection points: 5
#     Node 25, Type 0, BuildingBlock: BEQFEK_clean_sbu_0, # of connection points: 5
#     Node 26, Type 0, BuildingBlock: BEQFEK_clean_sbu_0, # of connection points: 5
#     Node 27, Type 0, BuildingBlock: BEQFEK_clean_sbu_0, # of connection points: 5
#     Node 28, Type 0, BuildingBlock: BEQFEK_clean_sbu_0, # of connection points: 5
#     Node 29, Type 0, BuildingBlock: BEQFEK_clean_sbu_0, # of connection points: 5
#     Node 30, Type 0, BuildingBlock: BEQFEK_clean_sbu_0, # of connection points: 5
#     Node 31, Type 0, BuildingBlock: BEQFEK_clean_sbu_0, # of connection points: 5
#     Node 32, Type 0, BuildingBlock: BEQFEK_clean_sbu_0, # of connection points: 5
#     Node 33, Type 0, BuildingBlock: BEQFEK_clean_sbu_0, # of connection points: 5
#     Node 34, Type 0, BuildingBlock: BEQFEK_clean_sbu_0, # of connection points: 5
#     Node 35, Type 0, BuildingBlock: BEQFEK_clean_sbu_0, # of connection points: 5
#     Edge 36, Type (0, 0), None
#     Edge 37, Type (0, 0), None
#     Edge 38, Type (0, 0), None
#     Edge 39, Type (0, 0), None
#     Edge 40, Type (0, 0), None
#     Edge 41, Type (0, 0), None
#     Edge 42, Type (0, 0), None
#     Edge 43, Type (0, 0), None
#     Edge 44, Type (0, 0), None
#     Edge 45, Type (0, 0), None
#     Edge 46, Type (0, 0), None
#     Edge 47, Type (0, 0), None
#     Edge 48, Type (0, 0), None
#     Edge 49, Type (0, 0), None
#     Edge 50, Type (0, 0), None
#     Edge 51, Type (0, 0), None
#     Edge 52, Type (0, 0), None
#     Edge 53, Type (0, 0), None
#     Edge 54, Type (0, 0), None
#     Edge 55, Type (0, 0), None
#     Edge 56, Type (0, 0), None
#     Edge 57, Type (0, 0), None
#     Edge 58, Type (0, 0), None
#     Edge 59, Type (0, 0), None
#     Edge 60, Type (0, 0), None
#     Edge 61, Type (0, 0), None
#     Edge 62, Type (0, 0), None
#     Edge 63, Type (0, 0), None
#     Edge 64, Type (0, 0), None
#     Edge 65, Type (0, 0), None
#     Edge 66, Type (0, 0), None
#     Edge 67, Type (0, 0), None
#     Edge 68, Type (0, 0), None
#     Edge 69, Type (0, 0), None
#     Edge 70, Type (0, 0), None
#     Edge 71, Type (0, 0), None
#     Edge 72, Type (0, 0), None
#     Edge 73, Type (0, 0), None
#     Edge 74, Type (0, 0), None
#     Edge 75, Type (0, 0), None
#     Edge 76, Type (0, 0), None
#     Edge 77, Type (0, 0), None
#     Edge 78, Type (0, 0), None
#     Edge 79, Type (0, 0), None
#     Edge 80, Type (0, 0), None
#     Edge 81, Type (0, 0), None
#     Edge 82, Type (0, 0), None
#     Edge 83, Type (0, 0), None
#     Edge 84, Type (0, 0), None
#     Edge 85, Type (0, 0), None
#     Edge 86, Type (0, 0), None
#     Edge 87, Type (0, 0), None
#     Edge 88, Type (0, 0), None
#     Edge 89, Type (0, 0), None
#     Edge 90, Type (0, 0), None
#     Edge 91, Type (0, 0), None
#     Edge 92, Type (0, 0), None
#     Edge 93, Type (0, 0), None
#     Edge 94, Type (0, 0), None
#     Edge 95, Type (0, 0), None
#     Edge 96, Type (0, 0), None
#     Edge 97, Type (0, 0), None
#     Edge 98, Type (0, 0), None
#     Edge 99, Type (0, 0), None
#     Edge 100, Type (0, 0), None
#     Edge 101, Type (0, 0), None
#     Edge 102, Type (0, 0), None
#     Edge 103, Type (0, 0), None
#     Edge 104, Type (0, 0), None
#     Edge 105, Type (0, 0), None
#     Edge 106, Type (0, 0), None
#     Edge 107, Type (0, 0), None
#     Edge 108, Type (0, 0), None
#     Edge 109, Type (0, 0), None
#     Edge 110, Type (0, 0), None
#     Edge 111, Type (0, 0), None
#     Edge 112, Type (0, 0), None
#     Edge 113, Type (0, 0), None
#     Edge 114, Type (0, 0), None
#     Edge 115, Type (0, 0), None
#     Edge 116, Type (0, 0), None
#     Edge 117, Type (0, 0), None
#     Edge 118, Type (0, 0), None
#     Edge 119, Type (0, 0), None
#     Edge 120, Type (0, 0), None
#     Edge 121, Type (0, 0), None
#     Edge 122, Type (0, 0), None
#     Edge 123, Type (0, 0), None
#     Edge 124, Type (0, 0), None
#     Edge 125, Type (0, 0), None
# Relax obj value: 0.173
# Max RMSD: 0.122
# Mean RMSD: 0.122
data_MOF--net-wls--node1-BEQFEK_clean_sbu_0--edge1-none
_symmetry_space_group_name_H-M    P1
_symmetry_Int_Tables_number       1
_symmetry_cell_setting            triclinic
loop_
_symmetry_equiv_pos_as_xyz
'x, y, z'
_cell_length_a     42.47045
_cell_length_b     42.47046
_cell_length_c     15.676271
_cell_angle_alpha  89.998036
_cell_angle_beta   90.002788
_cell_angle_gamma 120.00103
loop_
_atom_site_label
_atom_site_type_symbol
_atom_site_fract_x
_atom_site_fract_y
_atom_site_fract_z
_atom_type_partial_charge
Co0 Co 0.23498 0.25207 0.06577 0.0
Co1 Co 0.21946 0.17589 0.09552 0.0
C2 C 0.22154 0.21509 0.24382 0.0
O3 O 0.22377 0.23895 0.19109 0.0
O4 O 0.22351 0.18763 0.21854 0.0
C5 C 0.28815 0.31767 0.11448 0.0
O6 O 0.29907 0.29665 0.1492 0.0
C7 C 0.21502 0.10328 0.10534 0.0
C8 C 0.16956 0.07186 1.01639 0.0
C9 C 0.19436 0.0691 0.06826 0.0
N10 N 0.20321 0.1253 0.0758 0.0
N11 N 0.17554 0.10598 1.02393 0.0
C12 C 0.24491 0.1144 0.16918 0.0
H13 H 0.25228 0.14113 0.19769 0.0
H14 H 0.26909 0.11604 0.13785 0.0
H15 H 0.23616 0.09351 0.22011 0.0
C16 C 0.2959 0.2589 0.96573 0.0
N17 N 0.26593 0.23822 1.01199 0.0
N18 N 0.26535 0.20857 1.03707 0.0
C19 C 0.29788 0.2117 1.01499 0.0
C20 C 0.31875 0.24418 0.96873 0.0
C21 C 0.29974 0.28948 0.91068 0.0
H22 H 0.27304 0.28187 0.88149 0.0
H23 H 0.30767 0.31404 0.94947 0.0
H24 H 0.32 0.2958 0.85942 0.0
O25 O 0.19101 0.23466 1.00438 0.0
O26 O 0.17537 0.18019 0.05462 0.0
H27 H 0.29463 0.15996 1.01598 0.0
H28 H 0.33995 0.19789 1.03524 0.0
C29 C 0.31055 0.18685 0.04732 0.0
H30 H 0.30565 0.18312 0.11697 0.0
H31 H 0.16123 0.11636 0.99158 0.0
O32 O 0.25954 0.30416 0.06973 0.0
C33 C 0.16706 0.20208 1.01827 0.0
Co34 Co 0.75673 0.98465 0.06578 0.0
Co35 Co 0.83291 0.0453 0.09552 0.0
C36 C 0.79371 0.0082 0.24382 0.0
O37 O 0.76986 0.98656 0.1911 0.0
O38 O 0.82118 0.03762 0.21854 0.0
C39 C 0.69113 0.97222 0.11448 0.0
O40 O 0.71216 0.00416 0.1492 0.0
C41 C 0.90553 0.11349 0.10534 0.0
C42 C 0.93695 0.09944 1.01639 0.0
C43 C 0.93971 0.127 0.06827 0.0
N44 N 0.88351 0.07966 0.07581 0.0
N45 N 0.90282 0.0713 1.02393 0.0
C46 C 0.89441 0.13225 0.16918 0.0
H47 H 0.86768 0.1129 0.19769 0.0
H48 H 0.89277 0.1548 0.13785 0.0
H49 H 0.9153 0.14438 0.22011 0.0
C50 C 0.74991 0.03874 0.96573 0.0
N51 N 0.77059 0.02945 1.01198 0.0
N52 N 0.80024 0.05853 1.03707 0.0
C53 C 0.7971 0.08792 1.01498 0.0
C54 C 0.76463 0.07631 0.96872 0.0
C55 C 0.71933 0.012 0.91067 0.0
H56 H 0.72693 0.99292 0.88148 0.0
H57 H 0.69476 0.99537 0.94947 0.0
H58 H 0.71301 0.02594 0.85941 0.0
O59 O 0.77415 0.95809 1.00439 0.0
O60 O 0.82862 0.99692 0.05462 0.0
H61 H 0.84885 0.13642 1.01598 0.0
H62 H 0.81092 0.1438 1.03523 0.0
C63 C 0.82195 0.12544 0.04732 0.0
H64 H 0.82568 0.12427 0.11696 0.0
H65 H 0.89245 0.04662 0.99158 0.0
O66 O 0.70464 0.95712 0.06973 0.0
C67 C 0.80673 0.96672 1.01828 0.0
Co68 Co 0.02415 0.77383 0.06578 0.0
Co69 Co 0.9635 0.78935 0.09551 0.0
C70 C 1.00061 0.78726 0.24381 0.0
O71 O 0.02224 0.78504 0.1911 0.0
O72 O 0.97118 0.78529 0.21853 0.0
C73 C 0.03658 0.72065 0.11448 0.0
O74 O 1.00464 0.70974 0.14919 0.0
C75 C 0.89532 0.79378 0.10533 0.0
C76 C 0.90936 0.83925 1.01639 0.0
C77 C 0.8818 0.81444 0.06827 0.0
N78 N 0.92915 0.80559 0.0758 0.0
N79 N 0.9375 0.83326 1.02392 0.0
C80 C 0.87655 0.76389 0.16917 0.0
H81 H 0.89591 0.75652 0.19768 0.0
H82 H 0.85401 0.73971 0.13783 0.0
H83 H 0.86442 0.77264 0.2201 0.0
C84 C 0.97006 0.71291 0.96573 0.0
N85 N 0.97935 0.74287 1.01198 0.0
N86 N 0.95027 0.74345 1.03706 0.0
C87 C 0.92088 0.71092 1.01498 0.0
C88 C 0.93249 0.69005 0.96872 0.0
C89 C 0.9968 0.70907 0.91067 0.0
H90 H 0.01589 0.73576 0.88148 0.0
H91 H 0.01344 0.70114 0.94947 0.0
H92 H 0.98286 0.68881 0.85941 0.0
O93 O 0.05071 0.8178 1.00439 0.0
O94 O 0.01188 0.83344 0.05461 0.0
H95 H 0.87238 0.71416 1.01597 0.0
H96 H 0.865 0.66885 1.03523 0.0
C97 C 0.88336 0.69825 0.04731 0.0
H98 H 0.88453 0.70315 0.11696 0.0
H99 H 0.96218 0.84757 0.99157 0.0
O100 O 0.05169 0.74927 0.06973 0.0
C101 C 0.04208 0.84175 1.01827 0.0
Co102 Co 0.25384 0.23321 0.51331 0.0
Co103 Co 0.17766 0.21768 0.48357 0.0
C104 C 0.21686 0.21977 0.33527 0.0
O105 O 0.24072 0.222 0.38799 0.0
O106 O 0.1894 0.22174 0.36055 0.0
C107 C 0.31944 0.28638 0.46461 0.0
O108 O 0.29842 0.2973 0.4299 0.0
C109 C 0.10505 0.21325 0.47375 0.0
C110 C 0.07363 0.16778 0.5627 0.0
C111 C 0.07087 0.19259 0.51082 0.0
N112 N 0.12707 0.20144 0.50328 0.0
N113 N 0.10776 0.17377 0.55516 0.0
C114 C 0.11617 0.24313 0.40991 0.0
H115 H 0.1429 0.25051 0.38139 0.0
H116 H 0.11781 0.26732 0.44124 0.0
H117 H 0.09528 0.23438 0.35897 0.0
C118 C 0.26067 0.29413 0.61336 0.0
N119 N 0.23999 0.26416 0.5671 0.0
N120 N 0.21034 0.26358 0.54202 0.0
C121 C 0.21347 0.29611 0.56411 0.0
C122 C 0.24595 0.31698 0.61037 0.0
C123 C 0.29125 0.29797 0.66841 0.0
H124 H 0.28365 0.27127 0.69759 0.0
H125 H 0.31582 0.30591 0.62961 0.0
H126 H 0.29757 0.31823 0.71967 0.0
O127 O 0.23643 0.18924 0.5747 0.0
O128 O 0.18196 0.17359 0.52447 0.0
H129 H 0.16172 0.29286 0.56312 0.0
H130 H 0.19965 0.33817 0.54387 0.0
C131 C 0.18862 0.30878 0.53178 0.0
H132 H 0.18489 0.30388 0.46213 0.0
H133 H 0.11813 0.15946 0.58751 0.0
O134 O 0.30593 0.25776 0.50936 0.0
C135 C 0.20385 0.16529 0.56082 0.0
Co136 Co 0.7756 0.02238 0.51331 0.0
Co137 Co 0.79112 0.96173 0.48358 0.0
C138 C 0.78903 0.99883 0.33528 0.0
O139 O 0.78681 0.02047 0.38799 0.0
O140 O 0.78707 0.96941 0.36056 0.0
C141 C 0.72242 0.03481 0.4646 0.0
O142 O 0.7115 1.00287 0.42991 0.0
C143 C 0.79555 0.89355 0.47376 0.0
C144 C 0.84102 0.90759 0.56271 0.0
C145 C 0.81622 0.88003 0.51083 0.0
N146 N 0.80736 0.92738 0.5033 0.0
N147 N 0.83503 0.93573 0.55518 0.0
C148 C 0.76567 0.87478 0.40992 0.0
H149 H 0.75829 0.89413 0.38141 0.0
H150 H 0.74148 0.85224 0.44126 0.0
H151 H 0.77442 0.86265 0.35899 0.0
C152 C 0.71468 0.96829 0.61336 0.0
N153 N 0.74464 0.97758 0.5671 0.0
N154 N 0.74522 0.9485 0.54203 0.0
C155 C 0.71269 0.9191 0.56412 0.0
C156 C 0.69183 0.93072 0.61037 0.0
C157 C 0.71084 0.99503 0.66841 0.0
H158 H 0.73753 0.01412 0.69759 0.0
H159 H 0.7029 0.01166 0.62961 0.0
H160 H 0.69058 0.98109 0.71967 0.0
O161 O 0.81957 0.04894 0.5747 0.0
O162 O 0.83521 0.01011 0.52448 0.0
H163 H 0.71594 0.87061 0.56313 0.0
H164 H 0.67063 0.86322 0.54388 0.0
C165 C 0.70002 0.88158 0.53179 0.0
H166 H 0.70492 0.88276 0.46214 0.0
H167 H 0.84934 0.96041 0.58752 0.0
O168 O 0.75104 0.04991 0.50935 0.0
C169 C 0.84352 0.04031 0.56082 0.0
Co170 Co 0.98642 0.75496 0.51331 0.0
Co171 Co 0.04708 0.83114 0.48358 0.0
C172 C 0.00997 0.79194 0.33527 0.0
O173 O 0.98834 0.76808 0.38799 0.0
O174 O 0.03939 0.8194 0.36055 0.0
C175 C 0.974 0.68936 0.4646 0.0
O176 O 0.00594 0.71038 0.42991 0.0
C177 C 0.11526 0.90375 0.47375 0.0
C178 C 0.10121 0.93517 0.5627 0.0
C179 C 0.12878 0.93793 0.51082 0.0
N180 N 0.08143 0.88173 0.50329 0.0
N181 N 0.07308 0.90105 0.55516 0.0
C182 C 0.13402 0.89263 0.40991 0.0
H183 H 0.11467 0.86591 0.3814 0.0
H184 H 0.15657 0.89099 0.44125 0.0
H185 H 0.14615 0.91352 0.35898 0.0
C186 C 0.04052 0.74813 0.61336 0.0
N187 N 0.03123 0.76881 0.56711 0.0
N188 N 0.0603 0.79847 0.54203 0.0
C189 C 0.0897 0.79533 0.56412 0.0
C190 C 0.07809 0.76286 0.61038 0.0
C191 C 0.01378 0.71755 0.66841 0.0
H192 H 0.99469 0.72516 0.6976 0.0
H193 H 0.99715 0.69299 0.62961 0.0
H194 H 0.02772 0.71123 0.71968 0.0
O195 O 0.95987 0.77237 0.5747 0.0
O196 O 0.99869 0.82684 0.52447 0.0
H197 H 0.13819 0.84708 0.56312 0.0
H198 H 0.14558 0.80915 0.54388 0.0
C199 C 0.12722 0.82018 0.53179 0.0
H200 H 0.12605 0.82391 0.46214 0.0
H201 H 0.04839 0.89067 0.58751 0.0
O202 O 0.95889 0.70287 0.50935 0.0
C203 C 0.96849 0.80495 0.56081 0.0
Co204 Co 0.77563 0.75496 1.01328 0.0
Co205 Co 0.79114 0.83114 0.98364 0.0
C206 C 0.78907 0.79197 0.83528 0.0
O207 O 0.78683 0.7681 0.88797 0.0
O208 O 0.78712 0.81943 0.8606 0.0
C209 C 0.72246 0.68936 0.9646 0.0
O210 O 0.71152 0.71037 0.92998 0.0
C211 C 0.79551 0.90373 0.97395 0.0
C212 C 0.841 0.93516 0.06288 0.0
C213 C 0.81614 0.93788 1.01115 0.0
N214 N 0.80736 0.88172 1.0034 0.0
N215 N 0.83504 0.90105 0.05525 0.0
C216 C 0.76563 0.89262 0.91009 0.0
H217 H 0.75827 0.86589 0.88155 0.0
H218 H 0.74145 0.89098 0.9414 0.0
H219 H 0.7744 0.91351 0.85917 0.0
C220 C 0.71468 0.74809 0.11333 0.0
N221 N 0.74466 0.76879 0.06709 0.0
N222 N 0.74523 0.79844 0.04204 0.0
C223 C 0.71269 0.79529 0.06412 0.0
C224 C 0.69183 0.76281 0.11035 0.0
C225 C 0.71085 0.71751 0.16836 0.0
H226 H 0.73754 0.72511 0.19752 0.0
H227 H 0.7029 0.69294 0.12955 0.0
H228 H 0.69059 0.71119 0.21963 0.0
O229 O 0.8196 0.77237 0.07467 0.0
O230 O 0.83523 0.82687 1.02463 0.0
H231 H 0.71593 0.84703 0.06317 0.0
H232 H 0.67062 0.8091 0.04388 0.0
C233 C 0.70002 0.82014 1.03181 0.0
H234 H 0.70492 0.82388 0.96217 0.0
H235 H 0.84938 0.89069 0.0875 0.0
O236 O 0.75109 0.70287 1.0093 0.0
C237 C 0.84354 0.80498 0.06094 0.0
Co238 Co 0.25385 0.02241 1.01328 0.0
Co239 Co 0.17766 0.96174 0.98364 0.0
C240 C 0.21684 0.99884 0.83528 0.0
O241 O 0.24071 0.02048 0.88796 0.0
O242 O 0.18938 0.96943 0.8606 0.0
C243 C 0.31945 0.03484 0.9646 0.0
O244 O 0.29843 1.00289 0.92998 0.0
C245 C 0.10508 0.89353 0.97395 0.0
C246 C 0.07364 0.90758 0.06287 0.0
C247 C 0.07092 0.88 1.01115 0.0
N248 N 0.12708 0.92738 1.0034 0.0
N249 N 0.10776 0.93573 0.05525 0.0
C250 C 0.11618 0.87476 0.91009 0.0
H251 H 0.14291 0.89412 0.88155 0.0
H252 H 0.11783 0.85222 0.9414 0.0
H253 H 0.09529 0.86263 0.85917 0.0
C254 C 0.26071 0.96834 0.11333 0.0
N255 N 0.24002 0.97762 0.0671 0.0
N256 N 0.21036 0.94853 0.04204 0.0
C257 C 0.21351 0.91914 0.06413 0.0
C258 C 0.246 0.93076 0.11036 0.0
C259 C 0.2913 0.99508 0.16836 0.0
H260 H 0.2837 0.01418 0.19753 0.0
H261 H 0.31586 0.01171 0.12955 0.0
H262 H 0.29762 0.98115 0.21963 0.0
O263 O 0.23643 0.04898 0.07465 0.0
O264 O 0.18194 0.0101 1.02463 0.0
H265 H 0.16177 0.87064 0.06317 0.0
H266 H 0.19971 0.86327 0.04388 0.0
C267 C 0.18866 0.88162 1.03181 0.0
H268 H 0.18492 0.88279 0.96217 0.0
H269 H 0.11812 0.96044 0.0875 0.0
O270 O 0.30593 0.04996 1.00929 0.0
C271 C 0.20383 0.04031 0.06093 0.0
Co272 Co 0.98639 0.23318 1.01328 0.0
Co273 Co 0.04707 0.21767 0.98365 0.0
C274 C 0.00996 0.21974 0.83528 0.0
O275 O 0.98832 0.22197 0.88797 0.0
O276 O 0.03938 0.22169 0.86061 0.0
C277 C 0.97396 0.28635 0.9646 0.0
O278 O 0.00592 0.29729 0.92998 0.0
C279 C 0.11528 0.2133 0.97396 0.0
C280 C 0.10122 0.1678 0.06288 0.0
C281 C 0.12881 0.19267 1.01115 0.0
N282 N 0.08143 0.20145 1.00341 0.0
N283 N 0.07307 0.17377 0.05525 0.0
C284 C 0.13404 0.24317 0.9101 0.0
H285 H 0.11469 0.25054 0.88156 0.0
H286 H 0.15659 0.26736 0.94141 0.0
H287 H 0.14617 0.23441 0.85918 0.0
C288 C 0.04047 0.29412 0.11334 0.0
N289 N 0.03119 0.26415 0.0671 0.0
N290 N 0.06028 0.26358 0.04205 0.0
C291 C 0.08966 0.29612 0.06413 0.0
C292 C 0.07804 0.31698 0.11036 0.0
C293 C 0.01372 0.29795 0.16837 0.0
H294 H 0.99463 0.27126 0.19753 0.0
H295 H 0.9971 0.3059 0.12956 0.0
H296 H 0.02766 0.31821 0.21964 0.0
O297 O 0.95983 0.1892 0.07466 0.0
O298 O 0.99871 0.17358 1.02464 0.0
H299 H 0.13817 0.29289 0.06318 0.0
H300 H 0.14554 0.33819 0.04388 0.0
C301 C 0.12719 0.30879 1.03182 0.0
H302 H 0.12602 0.30388 0.96217 0.0
H303 H 0.04837 0.15942 0.08751 0.0
O304 O 0.95885 0.25771 1.00929 0.0
C305 C 0.9685 0.16527 0.06094 0.0
Co306 Co 0.75673 0.77386 0.56581 0.0
Co307 Co 0.83291 0.78936 0.59545 0.0
C308 C 0.79374 0.7873 0.74381 0.0
O309 O 0.76987 0.78506 0.69112 0.0
O310 O 0.8212 0.78534 0.71849 0.0
C311 C 0.69113 0.72069 0.61448 0.0
O312 O 0.71215 0.70975 0.64912 0.0
C313 C 0.9055 0.79374 0.60514 0.0
C314 C 0.93694 0.83923 0.51622 0.0
C315 C 0.93965 0.81436 0.56794 0.0
N316 N 0.8835 0.80558 0.57569 0.0
N317 N 0.90282 0.83327 0.52385 0.0
C318 C 0.89439 0.76386 0.669 0.0
H319 H 0.86767 0.7565 0.69754 0.0
H320 H 0.89275 0.73967 0.63769 0.0
H321 H 0.91529 0.77263 0.71992 0.0
C322 C 0.74986 0.71291 0.46576 0.0
N323 N 0.77056 0.74289 0.512 0.0
N324 N 0.80021 0.74346 0.53705 0.0
C325 C 0.79706 0.71092 0.51498 0.0
C326 C 0.76458 0.69006 0.46874 0.0
C327 C 0.71928 0.70908 0.41072 0.0
H328 H 0.72689 0.73577 0.38155 0.0
H329 H 0.69472 0.70114 0.44953 0.0
H330 H 0.71296 0.68882 0.35945 0.0
O331 O 0.77415 0.81783 0.50442 0.0
O332 O 0.82864 0.83346 0.55446 0.0
H333 H 0.8488 0.71415 0.51593 0.0
H334 H 0.81086 0.66885 0.53523 0.0
C335 C 0.82191 0.69824 0.54729 0.0
H336 H 0.82565 0.70315 0.61694 0.0
H337 H 0.89246 0.84761 0.4916 0.0
O338 O 0.70465 0.74932 0.56978 0.0
C339 C 0.80675 0.84177 0.51816 0.0
Co340 Co 0.23495 0.98462 0.56581 0.0
Co341 Co 0.21944 0.04529 0.59544 0.0
C342 C 0.22151 0.00819 0.74381 0.0
O343 O 0.22374 0.98655 0.69112 0.0
O344 O 0.22346 0.0376 0.71848 0.0
C345 C 0.28812 0.97219 0.61449 0.0
O346 O 0.29906 0.00414 0.64912 0.0
C347 C 0.21507 0.11351 0.60513 0.0
C348 C 0.16958 0.09945 0.51621 0.0
C349 C 0.19444 0.12704 0.56793 0.0
N350 N 0.20322 0.07966 0.57568 0.0
N351 N 0.17554 0.0713 0.52383 0.0
C352 C 0.24495 0.13227 0.66899 0.0
H353 H 0.25231 0.11292 0.69753 0.0
H354 H 0.26914 0.15482 0.63767 0.0
H355 H 0.23619 0.1444 0.71991 0.0
C356 C 0.29589 0.0387 0.46576 0.0
N357 N 0.26592 0.02942 0.51199 0.0
N358 N 0.26535 0.0585 0.53704 0.0
C359 C 0.29789 0.08789 0.51497 0.0
C360 C 0.31875 0.07627 0.46874 0.0
C361 C 0.29972 0.01195 0.41072 0.0
H362 H 0.27303 0.99286 0.38155 0.0
H363 H 0.30766 0.99532 0.44953 0.0
H364 H 0.31998 0.02588 0.35945 0.0
O365 O 0.19097 0.95806 0.50442 0.0
O366 O 0.17535 0.99693 0.55445 0.0
H367 H 0.29466 0.1364 0.51592 0.0
H368 H 0.33997 0.14376 0.53523 0.0
C369 C 0.31057 0.12541 0.54728 0.0
H370 H 0.30566 0.12424 0.61693 0.0
H371 H 0.16119 0.0466 0.49158 0.0
O372 O 0.25948 0.95707 0.56979 0.0
C373 C 0.16704 0.96673 0.51815 0.0
Co374 Co 0.02419 0.25207 0.56581 0.0
Co375 Co 0.96351 0.17589 0.59545 0.0
C376 C 1.00062 0.21507 0.74381 0.0
O377 O 0.02226 0.23894 0.69112 0.0
O378 O 0.97121 0.18761 0.71849 0.0
C379 C 0.03662 0.31767 0.61449 0.0
O380 O 1.00466 0.29665 0.64912 0.0
C381 C 0.8953 0.10331 0.60514 0.0
C382 C 0.90935 0.07187 0.51622 0.0
C383 C 0.88177 0.06915 0.56794 0.0
N384 N 0.92915 0.12531 0.57569 0.0
N385 N 0.93751 0.10598 0.52385 0.0
C386 C 0.87653 0.11441 0.669 0.0
H387 H 0.89589 0.14114 0.69754 0.0
H388 H 0.85399 0.11606 0.63769 0.0
H389 H 0.86441 0.09352 0.71992 0.0
C390 C 0.97011 0.25894 0.46576 0.0
N391 N 0.97939 0.23824 0.51199 0.0
N392 N 0.9503 0.20859 0.53705 0.0
C393 C 0.92092 0.21174 0.51497 0.0
C394 C 0.93254 0.24423 0.46874 0.0
C395 C 0.99686 0.28952 0.41072 0.0
H396 H 0.01595 0.28192 0.38155 0.0
H397 H 0.01348 0.31409 0.44952 0.0
H398 H 0.98292 0.29584 0.35945 0.0
O399 O 0.05075 0.23466 0.50443 0.0
O400 O 0.01187 0.18016 0.55446 0.0
H401 H 0.87241 0.16001 0.51593 0.0
H402 H 0.86504 0.19794 0.53523 0.0
C403 C 0.8834 0.1869 0.54729 0.0
H404 H 0.88457 0.18316 0.61694 0.0
H405 H 0.96221 0.11634 0.4916 0.0
O406 O 0.05173 0.30416 0.56979 0.0
C407 C 0.04208 0.20206 0.51816 0.0
Co408 Co 0.90165 0.58539 0.39912 0.0
Co409 Co 0.88612 0.50922 0.42887 0.0
C410 C 0.88821 0.54842 0.57717 0.0
O411 O 0.89043 0.57227 0.52444 0.0
O412 O 0.89018 0.52096 0.55189 0.0
C413 C 0.95482 0.651 0.44782 0.0
O414 O 0.96574 0.62998 0.48253 0.0
C415 C 0.88169 0.43661 0.4387 0.0
C416 C 0.83622 0.40518 0.34976 0.0
C417 C 0.86103 0.40243 0.40164 0.0
N418 N 0.86988 0.45863 0.40917 0.0
N419 N 0.84221 0.43931 0.3573 0.0
C420 C 0.91158 0.44773 0.50253 0.0
H421 H 0.91896 0.47446 0.53104 0.0
H422 H 0.93577 0.44937 0.47119 0.0
H423 H 0.90283 0.42685 0.55347 0.0
C424 C 0.96256 0.59223 0.29907 0.0
N425 N 0.9326 0.57155 0.34534 0.0
N426 N 0.93202 0.54189 0.37042 0.0
C427 C 0.96455 0.54503 0.34833 0.0
C428 C 0.98541 0.5775 0.30206 0.0
C429 C 0.9664 0.6228 0.24401 0.0
H430 H 0.9397 0.61519 0.21483 0.0
H431 H 0.97434 0.64737 0.28281 0.0
H432 H 0.98666 0.62912 0.19275 0.0
O433 O 0.85768 0.56798 0.33772 0.0
O434 O 0.84203 0.51352 0.38797 0.0
H435 H 0.9613 0.49328 0.34932 0.0
H436 H 0.00662 0.53121 0.36857 0.0
C437 C 0.97722 0.52018 0.38066 0.0
H438 H 0.97232 0.51645 0.45031 0.0
H439 H 0.8279 0.44968 0.32495 0.0
O440 O 0.9262 0.63748 0.40308 0.0
C441 C 0.83372 0.5354 0.35162 0.0
Co442 Co 0.42341 0.31799 0.39913 0.0
Co443 Co 0.49958 0.37865 0.42887 0.0
C444 C 0.46039 0.34154 0.57717 0.0
O445 O 0.43653 0.3199 0.52445 0.0
O446 O 0.48785 0.37096 0.5519 0.0
C447 C 0.35781 0.30556 0.44782 0.0
O448 O 0.37883 0.3375 0.48253 0.0
C449 C 0.5722 0.44683 0.4387 0.0
C450 C 0.60362 0.43278 0.34977 0.0
C451 C 0.60638 0.46035 0.40164 0.0
N452 N 0.55018 0.413 0.40917 0.0
N453 N 0.56949 0.40464 0.3573 0.0
C454 C 0.56108 0.4656 0.50253 0.0
H455 H 0.53435 0.44624 0.53104 0.0
H456 H 0.55944 0.48814 0.47119 0.0
H457 H 0.58196 0.47773 0.55347 0.0
C458 C 0.41658 0.37208 0.29907 0.0
N459 N 0.43726 0.36279 0.34533 0.0
N460 N 0.46691 0.39187 0.37042 0.0
C461 C 0.46377 0.42127 0.34833 0.0
C462 C 0.4313 0.40965 0.30206 0.0
C463 C 0.386 0.34534 0.24401 0.0
H464 H 0.39361 0.32625 0.21483 0.0
H465 H 0.36143 0.32871 0.28281 0.0
H466 H 0.37968 0.35928 0.19275 0.0
O467 O 0.44082 0.29144 0.33773 0.0
O468 O 0.49529 0.33026 0.38798 0.0
H469 H 0.51552 0.46976 0.34932 0.0
H470 H 0.47759 0.47715 0.36857 0.0
C471 C 0.48862 0.45879 0.38066 0.0
H472 H 0.49235 0.45761 0.45031 0.0
H473 H 0.55912 0.37996 0.32496 0.0
O474 O 0.37132 0.29046 0.40308 0.0
C475 C 0.4734 0.30006 0.35163 0.0
Co476 Co 0.69081 0.10716 0.39913 0.0
Co477 Co 0.63016 0.12268 0.42887 0.0
C478 C 0.66727 0.12059 0.57717 0.0
O479 O 0.6889 0.11837 0.52445 0.0
O480 O 0.63784 0.11862 0.55189 0.0
C481 C 0.70324 0.05399 0.44782 0.0
O482 O 0.6713 0.04306 0.48252 0.0
C483 C 0.56197 0.12711 0.4387 0.0
C484 C 0.57602 0.17258 0.34977 0.0
C485 C 0.54846 0.14778 0.40164 0.0
N486 N 0.5958 0.13892 0.40916 0.0
N487 N 0.60416 0.16659 0.3573 0.0
C488 C 0.54321 0.09722 0.50253 0.0
H489 H 0.56256 0.08984 0.53104 0.0
H490 H 0.52066 0.07304 0.47118 0.0
H491 H 0.53107 0.10597 0.55346 0.0
C492 C 0.63672 0.04624 0.29907 0.0
N493 N 0.64601 0.07621 0.34533 0.0
N494 N 0.61693 0.07678 0.37041 0.0
C495 C 0.58754 0.04425 0.34832 0.0
C496 C 0.59915 0.02339 0.30206 0.0
C497 C 0.66346 0.04241 0.24401 0.0
H498 H 0.68255 0.0691 0.21483 0.0
H499 H 0.6801 0.03447 0.2828 0.0
H500 H 0.64952 0.02215 0.19275 0.0
O501 O 0.71736 0.15113 0.33773 0.0
O502 O 0.67854 0.16677 0.38798 0.0
H503 H 0.53904 0.04749 0.34932 0.0
H504 H 0.53166 1.00218 0.36857 0.0
C505 C 0.55002 0.03157 0.38065 0.0
H506 H 0.55119 0.03648 0.4503 0.0
H507 H 0.62884 0.18091 0.32496 0.0
O508 O 0.71835 0.08261 0.40308 0.0
C509 C 0.70874 0.17508 0.35162 0.0
Co510 Co 0.92051 0.56655 0.84667 0.0
Co511 Co 0.84433 0.55101 0.81692 0.0
C512 C 0.88352 0.5531 0.66862 0.0
O513 O 0.90738 0.55533 0.72135 0.0
O514 O 0.85606 0.55505 0.69389 0.0
C515 C 0.98611 0.61971 0.79793 0.0
O516 O 0.96509 0.63062 0.76319 0.0
C517 C 0.77171 0.54657 0.80709 0.0
C518 C 0.7403 0.50112 0.89609 0.0
C519 C 0.73753 0.52591 0.84418 0.0
N520 N 0.79373 0.53477 0.83664 0.0
N521 N 0.77442 0.50711 0.88855 0.0
C522 C 0.78281 0.57644 0.74321 0.0
H523 H 0.80954 0.58381 0.71469 0.0
H524 H 0.78446 0.60063 0.77451 0.0
H525 H 0.76192 0.56768 0.69229 0.0
C526 C 0.92736 0.6275 0.94657 0.0
N527 N 0.90666 0.59751 0.90042 0.0
N528 N 0.877 0.59692 0.87532 0.0
C529 C 0.88015 0.62947 0.8973 0.0
C530 C 0.91266 0.65037 0.94341 0.0
C531 C 0.95794 0.63136 1.00164 0.0
H532 H 0.95036 0.60468 1.03081 0.0
H533 H 0.98252 0.63933 0.96285 0.0
H534 H 0.96424 0.65162 0.0529 0.0
O535 O 0.9031 0.52258 0.90808 0.0
O536 O 0.84863 0.50693 0.85783 0.0
H537 H 0.82839 0.6262 0.89629 0.0
H538 H 0.86631 0.67152 0.877 0.0
C539 C 0.85529 0.64212 0.86495 0.0
H540 H 0.85156 0.63721 0.7953 0.0
H541 H 0.7848 0.49281 0.92091 0.0
O542 O 0.9726 0.5911 0.84272 0.0
C543 C 0.87052 0.49863 0.89419 0.0
Co544 Co 0.44226 0.3557 0.84667 0.0
Co545 Co 0.45779 0.29505 0.81693 0.0
C546 C 0.45571 0.33217 0.66863 0.0
O547 O 0.45347 0.3538 0.72135 0.0
O548 O 0.45375 0.30275 0.6939 0.0
C549 C 0.38909 0.36814 0.79793 0.0
O550 O 0.37818 0.33621 0.7632 0.0
C551 C 0.46223 0.22688 0.8071 0.0
C552 C 0.50769 0.24092 0.89609 0.0
C553 C 0.48289 0.21336 0.84419 0.0
N554 N 0.47403 0.2607 0.83665 0.0
N555 N 0.50169 0.26906 0.88856 0.0
C556 C 0.43236 0.20811 0.74323 0.0
H557 H 0.42499 0.22747 0.7147 0.0
H558 H 0.40817 0.18557 0.77453 0.0
H559 H 0.44112 0.19599 0.69231 0.0
C560 C 0.3813 0.3016 0.94658 0.0
N561 N 0.4113 0.31089 0.90043 0.0
N562 N 0.41188 0.28182 0.87533 0.0
C563 C 0.37933 0.25242 0.89731 0.0
C564 C 0.35843 0.26403 0.94342 0.0
C565 C 0.37744 0.32832 1.00164 0.0
H566 H 0.40413 0.34743 1.03082 0.0
H567 H 0.36948 0.34494 0.96285 0.0
H568 H 0.35719 0.31437 0.0529 0.0
O569 O 0.48622 0.38226 0.90808 0.0
O570 O 0.50187 0.34344 0.85784 0.0
H571 H 0.3826 0.20393 0.8963 0.0
H572 H 0.33728 0.19654 0.87701 0.0
C573 C 0.36668 0.21491 0.86496 0.0
H574 H 0.37159 0.21609 0.79531 0.0
H575 H 0.51599 0.29373 0.92092 0.0
O576 O 0.4177 0.38324 0.84271 0.0
C577 C 0.51018 0.37363 0.89419 0.0
Co578 Co 0.6531 0.0883 0.84667 0.0
Co579 Co 0.71375 0.16448 0.81692 0.0
C580 C 0.67663 0.12528 0.66863 0.0
O581 O 0.655 0.10142 0.72135 0.0
O582 O 0.70606 0.15274 0.6939 0.0
C583 C 0.64066 0.02269 0.79793 0.0
O584 O 0.67259 0.04372 0.7632 0.0
C585 C 0.78192 0.2371 0.80709 0.0
C586 C 0.76789 0.26851 0.89609 0.0
C587 C 0.79544 0.27128 0.84418 0.0
N588 N 0.7481 0.21507 0.83665 0.0
N589 N 0.73975 0.23438 0.88855 0.0
C590 C 0.80069 0.22599 0.74322 0.0
H591 H 0.78133 0.19926 0.71469 0.0
H592 H 0.82323 0.22435 0.77452 0.0
H593 H 0.81281 0.24688 0.6923 0.0
C594 C 0.70721 0.08145 0.94658 0.0
N595 N 0.69791 0.10215 0.90043 0.0
N596 N 0.72698 0.1318 0.87533 0.0
C597 C 0.75638 0.12865 0.89731 0.0
C598 C 0.74477 0.09615 0.94342 0.0
C599 C 0.68048 0.05086 1.00164 0.0
H600 H 0.66138 0.05845 1.03082 0.0
H601 H 0.66387 0.02629 0.96286 0.0
H602 H 0.69444 0.04456 0.05291 0.0
O603 O 0.62655 0.10571 0.90808 0.0
O604 O 0.66537 0.16017 0.85784 0.0
H605 H 0.80487 0.18041 0.89629 0.0
H606 H 0.81226 0.14249 0.877 0.0
C607 C 0.79389 0.15351 0.86495 0.0
H608 H 0.79271 0.15724 0.79531 0.0
H609 H 0.71507 0.224 0.92091 0.0
O610 O 0.62557 0.0362 0.84272 0.0
C611 C 0.63517 0.13829 0.89419 0.0
Co612 Co 0.44229 0.0883 0.34664 0.0
Co613 Co 0.4578 0.16448 0.31699 0.0
C614 C 0.45574 0.12531 0.16863 0.0
O615 O 0.4535 0.10143 0.22133 0.0
O616 O 0.4538 0.15277 0.19395 0.0
C617 C 0.38913 0.02269 0.29793 0.0
O618 O 0.37819 0.04371 0.26327 0.0
C619 C 0.46219 0.23707 0.30729 0.0
C620 C 0.50766 0.2685 0.39627 0.0
C621 C 0.48281 0.27122 0.34451 0.0
N622 N 0.47403 0.21506 0.33676 0.0
N623 N 0.5017 0.23438 0.38864 0.0
C624 C 0.43233 0.22597 0.24339 0.0
H625 H 0.42496 0.19925 0.21485 0.0
H626 H 0.40813 0.22433 0.27468 0.0
H627 H 0.4411 0.24687 0.19249 0.0
C628 C 0.38131 0.08141 0.44654 0.0
N629 N 0.41131 0.10212 0.40041 0.0
N630 N 0.41189 0.13178 0.37534 0.0
C631 C 0.37933 0.12862 0.39732 0.0
C632 C 0.35844 0.0961 0.4434 0.0
C633 C 0.37745 0.05082 0.50159 0.0
H634 H 0.40414 0.0584 0.53075 0.0
H635 H 0.36948 0.02624 0.46279 0.0
H636 H 0.3572 0.04452 0.55286 0.0
O637 O 0.48626 0.10571 0.40805 0.0
O638 O 0.50189 0.16021 0.358 0.0
H639 H 0.38258 0.18036 0.39634 0.0
H640 H 0.33728 0.14244 0.37701 0.0
C641 C 0.36667 0.15347 0.36498 0.0
H642 H 0.37159 0.15721 0.29534 0.0
H643 H 0.51603 0.22402 0.42091 0.0
O644 O 0.41775 0.03621 0.34266 0.0
C645 C 0.5102 0.13831 0.39431 0.0
Co646 Co 0.92051 0.35574 0.34664 0.0
Co647 Co 0.84432 0.29507 0.31699 0.0
C648 C 0.8835 0.33218 0.16863 0.0
O649 O 0.90737 0.35381 0.22132 0.0
O650 O 0.85603 0.30277 0.19395 0.0
C651 C 0.98611 0.36818 0.29793 0.0
O652 O 0.96509 0.33623 0.26327 0.0
C653 C 0.77173 0.22686 0.30729 0.0
C654 C 0.74031 0.24091 0.39626 0.0
C655 C 0.73758 0.21333 0.34451 0.0
N656 N 0.79374 0.26071 0.33676 0.0
N657 N 0.77442 0.26906 0.38863 0.0
C658 C 0.78283 0.2081 0.2434 0.0
H659 H 0.80955 0.22746 0.21485 0.0
H660 H 0.78447 0.18555 0.27468 0.0
H661 H 0.76193 0.19598 0.19249 0.0
C662 C 0.9274 0.30165 0.44655 0.0
N663 N 0.90668 0.31093 0.40042 0.0
N664 N 0.87703 0.28185 0.37535 0.0
C665 C 0.88019 0.25246 0.39732 0.0
C666 C 0.91271 0.26408 0.44341 0.0
C667 C 0.95799 0.32838 0.50159 0.0
H668 H 0.95041 0.34749 0.53075 0.0
H669 H 0.98256 0.34498 0.4628 0.0
H670 H 0.96429 0.31443 0.55287 0.0
O671 O 0.9031 0.3823 0.40803 0.0
O672 O 0.8486 0.34343 0.358 0.0
H673 H 0.82844 0.20396 0.39635 0.0
H674 H 0.86637 0.19658 0.37701 0.0
C675 C 0.85533 0.21495 0.36498 0.0
H676 H 0.85159 0.21613 0.29534 0.0
H677 H 0.78479 0.29376 0.4209 0.0
O678 O 0.9726 0.38329 0.34266 0.0
C679 C 0.87049 0.37363 0.3943 0.0
Co680 Co 0.65307 0.56651 0.34663 0.0
Co681 Co 0.71374 0.551 0.31699 0.0
C682 C 0.67662 0.55306 0.16863 0.0
O683 O 0.65499 0.55531 0.22132 0.0
O684 O 0.70604 0.55501 0.19395 0.0
C685 C 0.64062 0.61968 0.29793 0.0
O686 O 0.67258 0.63061 0.26327 0.0
C687 C 0.78194 0.54662 0.3073 0.0
C688 C 0.7679 0.50114 0.39626 0.0
C689 C 0.79547 0.526 0.34451 0.0
N690 N 0.7481 0.53478 0.33676 0.0
N691 N 0.73975 0.50711 0.38864 0.0
C692 C 0.80071 0.57648 0.2434 0.0
H693 H 0.78135 0.58384 0.21485 0.0
H694 H 0.82326 0.60068 0.27469 0.0
H695 H 0.81283 0.56771 0.19249 0.0
C696 C 0.70716 0.6275 0.44655 0.0
N697 N 0.69787 0.59749 0.40042 0.0
N698 N 0.72695 0.59692 0.37535 0.0
C699 C 0.75634 0.62947 0.39732 0.0
C700 C 0.74472 0.65037 0.44341 0.0
C701 C 0.68043 0.63135 0.50159 0.0
H702 H 0.66132 0.60466 0.53075 0.0
H703 H 0.66382 0.63932 0.46279 0.0
H704 H 0.69438 0.6516 0.55287 0.0
O705 O 0.62651 0.52254 0.40803 0.0
O706 O 0.66538 0.50692 0.358 0.0
H707 H 0.80484 0.62623 0.39635 0.0
H708 H 0.81222 0.67153 0.37701 0.0
C709 C 0.79386 0.64214 0.36498 0.0
H710 H 0.79268 0.63721 0.29534 0.0
H711 H 0.71505 0.49277 0.42091 0.0
O712 O 0.62552 0.59105 0.34265 0.0
C713 C 0.63518 0.49861 0.39431 0.0
Co714 Co 0.42341 0.10719 0.89916 0.0
Co715 Co 0.49959 0.1227 0.92881 0.0
C716 C 0.46042 0.12063 0.07716 0.0
O717 O 0.43654 0.1184 1.02447 0.0
O718 O 0.48788 0.11868 0.05185 0.0
C719 C 0.35781 0.05402 0.94782 0.0
O720 O 0.37882 0.04308 0.98246 0.0
C721 C 0.57217 0.12707 0.93851 0.0
C722 C 0.60361 0.17256 0.8496 0.0
C723 C 0.60633 0.14769 0.90131 0.0
N724 N 0.55017 0.13892 0.90906 0.0
N725 N 0.5695 0.1666 0.85722 0.0
C726 C 0.56106 0.09719 1.00236 0.0
H727 H 0.53434 0.08982 1.03089 0.0
H728 H 0.55942 0.073 0.97104 0.0
H729 H 0.58195 0.10595 0.05328 0.0
C730 C 0.41654 0.04625 0.7991 0.0
N731 N 0.43723 0.07622 0.84535 0.0
N732 N 0.46689 0.07679 0.8704 0.0
C733 C 0.46374 0.04425 0.84832 0.0
C734 C 0.43125 0.02339 0.80208 0.0
C735 C 0.38596 0.04242 0.74406 0.0
H736 H 0.39356 0.06911 0.7149 0.0
H737 H 0.36139 0.03447 0.78287 0.0
H738 H 0.37964 0.02216 0.69279 0.0
O739 O 0.44082 0.15117 0.83777 0.0
O740 O 0.49532 0.16679 0.88782 0.0
H741 H 0.51547 0.04748 0.84928 0.0
H742 H 0.47754 1.00218 0.86857 0.0
C743 C 0.48858 0.03157 0.88063 0.0
H744 H 0.49232 0.03648 0.95028 0.0
H745 H 0.55914 0.18095 0.82497 0.0
O746 O 0.37132 0.08266 0.90314 0.0
C747 C 0.47343 0.1751 0.85151 0.0
Co748 Co 0.90161 0.31796 0.89916 0.0
Co749 Co 0.88611 0.37863 0.9288 0.0
C750 C 0.88817 0.34153 0.07716 0.0
O751 O 0.89041 0.31989 1.02447 0.0
O752 O 0.89013 0.37094 0.05184 0.0
C753 C 0.95478 0.30553 0.94783 0.0
O754 O 0.96573 0.33749 0.98245 0.0
C755 C 0.88174 0.44685 0.93849 0.0
C756 C 0.83624 0.43279 0.84959 0.0
C757 C 0.86111 0.46038 0.90131 0.0
N758 N 0.86989 0.413 0.90904 0.0
N759 N 0.84221 0.40464 0.85721 0.0
C760 C 0.91162 0.46562 1.00235 0.0
H761 H 0.91899 0.44626 1.03088 0.0
H762 H 0.93581 0.48816 0.97102 0.0
H763 H 0.90286 0.47775 0.05327 0.0
C764 C 0.96256 0.37204 0.7991 0.0
N765 N 0.93259 0.36276 0.84534 0.0
N766 N 0.93202 0.39184 0.8704 0.0
C767 C 0.96456 0.42123 0.84831 0.0
C768 C 0.98542 0.40961 0.80208 0.0
C769 C 0.96639 0.34529 0.74406 0.0
H770 H 0.93969 0.32619 0.7149 0.0
H771 H 0.97433 0.32866 0.78287 0.0
H772 H 0.98664 0.35922 0.69279 0.0
O773 O 0.85764 0.2914 0.83777 0.0
O774 O 0.84202 0.33027 0.88781 0.0
H775 H 0.96133 0.46974 0.84926 0.0
H776 H 0.00663 0.47711 0.86856 0.0
C777 C 0.97724 0.45875 0.88062 0.0
H778 H 0.97233 0.45759 0.95027 0.0
H779 H 0.82786 0.37994 0.82496 0.0
O780 O 0.92615 0.29041 0.90315 0.0
C781 C 0.83371 0.30007 0.8515 0.0
Co782 Co 0.69085 0.5854 0.89915 0.0
Co783 Co 0.63017 0.50922 0.9288 0.0
C784 C 0.66728 0.54839 0.07716 0.0
O785 O 0.68892 0.57226 1.02447 0.0
O786 O 0.63786 0.52093 0.05184 0.0
C787 C 0.70328 0.651 0.94782 0.0
O788 O 0.67132 0.62998 0.98245 0.0
C789 C 0.56196 0.43663 0.9385 0.0
C790 C 0.57601 0.40519 0.8496 0.0
C791 C 0.54843 0.40248 0.90131 0.0
N792 N 0.59581 0.45863 0.90905 0.0
N793 N 0.60416 0.43931 0.85721 0.0
C794 C 0.54319 0.44774 1.00235 0.0
H795 H 0.56255 0.47447 1.03089 0.0
H796 H 0.52065 0.44939 0.97103 0.0
H797 H 0.53106 0.42685 0.05327 0.0
C798 C 0.63677 0.59227 0.7991 0.0
N799 N 0.64605 0.57157 0.84534 0.0
N800 N 0.61696 0.54192 0.87039 0.0
C801 C 0.58757 0.54507 0.84831 0.0
C802 C 0.5992 0.57755 0.80207 0.0
C803 C 0.66352 0.62285 0.74406 0.0
H804 H 0.68261 0.61524 0.71489 0.0
H805 H 0.68014 0.64741 0.78286 0.0
H806 H 0.64958 0.62917 0.69278 0.0
O807 O 0.71741 0.56798 0.83777 0.0
O808 O 0.67853 0.51349 0.88781 0.0
H809 H 0.53907 0.49333 0.84927 0.0
H810 H 0.5317 0.53127 0.86856 0.0
C811 C 0.55005 0.52023 0.88063 0.0
H812 H 0.55122 0.51649 0.95027 0.0
H813 H 0.62887 0.44967 0.82496 0.0
O814 O 0.71839 0.63748 0.90314 0.0
C815 C 0.70873 0.53538 0.85151 0.0
Co816 Co 0.56832 0.91873 0.73243 0.0
Co817 Co 0.55279 0.84255 0.76219 0.0
C818 C 0.55487 0.88174 0.91048 0.0
O819 O 0.5571 0.9056 0.85775 0.0
O820 O 0.55683 0.85428 0.88522 0.0
C821 C 0.62148 0.98433 0.78116 0.0
O822 O 0.63239 0.96331 0.81591 0.0
C823 C 0.54835 0.76993 0.77203 0.0
C824 C 0.50289 0.73852 0.68304 0.0
C825 C 0.52769 0.73575 0.73494 0.0
N826 N 0.53655 0.79195 0.74248 0.0
N827 N 0.50888 0.77264 0.69058 0.0
C828 C 0.57823 0.78104 0.83589 0.0
H829 H 0.5856 0.80777 0.86441 0.0
H830 H 0.60241 0.78268 0.80458 0.0
H831 H 0.56946 0.76015 0.88682 0.0
C832 C 0.62927 0.92558 0.63253 0.0
N833 N 0.59928 0.90488 0.67868 0.0
N834 N 0.5987 0.87522 0.70378 0.0
C835 C 0.63124 0.87837 0.6818 0.0
C836 C 0.65214 0.91088 0.63568 0.0
C837 C 0.63313 0.95616 0.57745 0.0
H838 H 0.60644 0.94857 0.54828 0.0
H839 H 0.64109 0.98074 0.61623 0.0
H840 H 0.65338 0.96246 0.52619 0.0
O841 O 0.52435 0.90131 0.67101 0.0
O842 O 0.50871 0.84685 0.72128 0.0
H843 H 0.62798 0.82662 0.68282 0.0
H844 H 0.6733 0.86454 0.70211 0.0
C845 C 0.6439 0.85352 0.71416 0.0
H846 H 0.63899 0.84979 0.7838 0.0
H847 H 0.49458 0.78302 0.65822 0.0
O848 O 0.59287 0.97082 0.73638 0.0
C849 C 0.5004 0.86873 0.68491 0.0
Co850 Co 0.09008 0.65133 0.73244 0.0
Co851 Co 0.16626 0.71199 0.7622 0.0
C852 C 0.12706 0.67487 0.91049 0.0
O853 O 0.1032 0.65324 0.85776 0.0
O854 O 0.15452 0.70429 0.88522 0.0
C855 C 0.02447 0.63889 0.78116 0.0
O856 O 0.04549 0.67082 0.81591 0.0
C857 C 0.23888 0.78016 0.77203 0.0
C858 C 0.27029 0.76612 0.68305 0.0
C859 C 0.27306 0.79368 0.73495 0.0
N860 N 0.21685 0.74634 0.74248 0.0
N861 N 0.23616 0.73799 0.69059 0.0
C862 C 0.22777 0.79893 0.8359 0.0
H863 H 0.20104 0.77957 0.86442 0.0
H864 H 0.22612 0.82147 0.80458 0.0
H865 H 0.24866 0.81105 0.88682 0.0
C866 C 0.08323 0.70544 0.63252 0.0
N867 N 0.10393 0.69614 0.67868 0.0
N868 N 0.13358 0.72522 0.70378 0.0
C869 C 0.13043 0.75461 0.6818 0.0
C870 C 0.09792 0.743 0.63568 0.0
C871 C 0.05264 0.67871 0.57745 0.0
H872 H 0.06023 0.65961 0.54828 0.0
H873 H 0.02807 0.6621 0.61623 0.0
H874 H 0.04635 0.69267 0.52618 0.0
O875 O 0.10749 0.62478 0.67103 0.0
O876 O 0.16196 0.6636 0.72128 0.0
H877 H 0.18218 0.8031 0.68282 0.0
H878 H 0.14426 0.8105 0.70211 0.0
C879 C 0.15529 0.79213 0.71416 0.0
H880 H 0.15902 0.79094 0.7838 0.0
H881 H 0.22578 0.71331 0.65823 0.0
O882 O 0.03799 0.6238 0.73638 0.0
C883 C 0.14007 0.63341 0.68492 0.0
Co884 Co 0.35747 0.44049 0.73244 0.0
Co885 Co 0.29682 0.45601 0.76219 0.0
C886 C 0.33394 0.45394 0.91048 0.0
O887 O 0.35557 0.45171 0.85776 0.0
O888 O 0.30451 0.45197 0.88521 0.0
C889 C 0.36991 0.38732 0.78116 0.0
O890 O 0.33798 0.37641 0.8159 0.0
C891 C 0.22864 0.46045 0.77203 0.0
C892 C 0.24268 0.50591 0.68305 0.0
C893 C 0.21512 0.48112 0.73495 0.0
N894 N 0.26247 0.47226 0.74247 0.0
N895 N 0.27082 0.49992 0.69058 0.0
C896 C 0.20988 0.43058 0.83589 0.0
H897 H 0.22923 0.4232 0.86441 0.0
H898 H 0.18733 0.40639 0.80457 0.0
H899 H 0.19775 0.43934 0.88681 0.0
C900 C 0.30336 0.37953 0.63252 0.0
N901 N 0.31266 0.40953 0.67868 0.0
N902 N 0.28358 0.4101 0.70378 0.0
C903 C 0.25419 0.37756 0.68179 0.0
C904 C 0.2658 0.35666 0.63568 0.0
C905 C 0.33009 0.37568 0.57745 0.0
H906 H 0.34919 0.40237 0.54828 0.0
H907 H 0.34671 0.36772 0.61623 0.0
H908 H 0.31613 0.35542 0.52618 0.0
O909 O 0.38402 0.48445 0.67102 0.0
O910 O 0.3452 0.5001 0.72127 0.0
H911 H 0.2057 0.38082 0.68281 0.0
H912 H 0.19831 0.3355 0.7021 0.0
C913 C 0.21668 0.3649 0.71415 0.0
H914 H 0.21786 0.36982 0.78379 0.0
H915 H 0.2955 0.51422 0.65822 0.0
O916 O 0.38501 0.41593 0.73639 0.0
C917 C 0.37539 0.50841 0.68491 0.0
Co918 Co 0.58717 0.89988 0.17998 0.0
Co919 Co 0.51099 0.88435 0.15023 0.0
C920 C 0.55018 0.88643 1.00194 0.0
O921 O 0.57404 0.88866 0.05466 0.0
O922 O 0.52272 0.88839 1.0272 0.0
C923 C 0.65277 0.95305 0.13126 0.0
O924 O 0.63175 0.96396 0.09652 0.0
C925 C 0.43837 0.87991 0.14039 0.0
C926 C 0.40695 0.83445 0.22938 0.0
C927 C 0.40419 0.85925 0.17748 0.0
N928 N 0.46039 0.86811 0.16994 0.0
N929 N 0.44108 0.84044 0.22184 0.0
C930 C 0.44948 0.90978 0.07652 0.0
H931 H 0.4762 0.91716 0.04801 0.0
H932 H 0.45112 0.93397 0.10783 0.0
H933 H 0.42859 0.90102 1.0256 0.0
C934 C 0.59402 0.96084 0.27989 0.0
N935 N 0.57332 0.93084 0.23374 0.0
N936 N 0.54366 0.93026 0.20864 0.0
C937 C 0.54681 0.9628 0.23063 0.0
C938 C 0.57932 0.9837 0.27674 0.0
C939 C 0.6246 0.9647 0.33496 0.0
H940 H 0.61702 0.93801 0.36413 0.0
H941 H 0.64918 0.97266 0.29618 0.0
H942 H 0.6309 0.98494 0.38623 0.0
O943 O 0.56975 0.85592 0.2414 0.0
O944 O 0.51529 0.84027 0.19114 0.0
H945 H 0.49505 0.95953 0.22962 0.0
H946 H 0.53297 0.00485 0.21034 0.0
C947 C 0.52195 0.97546 0.19828 0.0
H948 H 0.51822 0.97055 0.12863 0.0
H949 H 0.45146 0.82614 0.2542 0.0
O950 O 0.63926 0.92444 0.17603 0.0
C951 C 0.53717 0.83196 0.2275 0.0
Co952 Co 0.10892 0.68903 0.17999 0.0
Co953 Co 0.12445 0.62838 0.15024 0.0
C954 C 0.12237 0.6655 1.00194 0.0
O955 O 0.12014 0.68713 0.05467 0.0
O956 O 0.12041 0.63607 1.02722 0.0
C957 C 0.05576 0.70147 0.13126 0.0
O958 O 0.04484 0.66953 0.09653 0.0
C959 C 0.12889 0.5602 0.1404 0.0
C960 C 0.17435 0.57425 0.22939 0.0
C961 C 0.14956 0.54669 0.17748 0.0
N962 N 0.14069 0.59403 0.16996 0.0
N963 N 0.16836 0.60238 0.22185 0.0
C964 C 0.09902 0.54144 0.07654 0.0
H965 H 0.09164 0.56079 0.04802 0.0
H966 H 0.07483 0.51889 0.10785 0.0
H967 H 0.10778 0.52931 1.02561 0.0
C968 C 0.04797 0.63492 0.2799 0.0
N969 N 0.07796 0.64422 0.23374 0.0
N970 N 0.07854 0.61514 0.20865 0.0
C971 C 0.046 0.58575 0.23064 0.0
C972 C 0.0251 0.59736 0.27675 0.0
C973 C 0.04411 0.66165 0.33497 0.0
H974 H 0.0708 0.68075 0.36414 0.0
H975 H 0.03615 0.67826 0.29618 0.0
H976 H 0.02386 0.6477 0.38624 0.0
O977 O 0.15289 0.71558 0.24141 0.0
O978 O 0.16854 0.67676 0.19115 0.0
H979 H 0.04926 0.53726 0.22963 0.0
H980 H 1.00395 0.52987 0.21034 0.0
C981 C 0.03334 0.54823 0.19829 0.0
H982 H 0.03825 0.54942 0.12864 0.0
H983 H 0.18266 0.62706 0.25422 0.0
O984 O 0.08437 0.71657 0.17603 0.0
C985 C 0.17684 0.70696 0.22751 0.0
Co986 Co 0.31977 0.42164 0.17999 0.0
Co987 Co 0.38042 0.49782 0.15024 0.0
C988 C 0.34331 0.45862 1.00194 0.0
O989 O 0.32168 0.43476 0.05466 0.0
O990 O 0.37273 0.48608 1.02721 0.0
C991 C 0.30734 0.35603 0.13126 0.0
O992 O 0.33927 0.37705 0.09653 0.0
C993 C 0.4486 0.57044 0.14039 0.0
C994 C 0.43456 0.60185 0.22938 0.0
C995 C 0.46212 0.60462 0.17747 0.0
N996 N 0.41477 0.54841 0.16995 0.0
N997 N 0.40642 0.56772 0.22184 0.0
C998 C 0.46736 0.55933 0.07653 0.0
H999 H 0.44801 0.5326 0.04801 0.0
H1000 H 0.48991 0.55768 0.10784 0.0
H1001 H 0.47949 0.58021 1.0256 0.0
C1002 C 0.37388 0.41479 0.2799 0.0
N1003 N 0.36458 0.43549 0.23375 0.0
N1004 N 0.39366 0.46514 0.20865 0.0
C1005 C 0.42306 0.46199 0.23063 0.0
C1006 C 0.41145 0.42949 0.27675 0.0
C1007 C 0.34715 0.3842 0.33497 0.0
H1008 H 0.32805 0.39179 0.36414 0.0
H1009 H 0.33054 0.35963 0.29619 0.0
H1010 H 0.36111 0.37791 0.38624 0.0
O1011 O 0.29322 0.43905 0.2414 0.0
O1012 O 0.33204 0.49352 0.19115 0.0
H1013 H 0.47154 0.51375 0.22962 0.0
H1014 H 0.47894 0.47583 0.21034 0.0
C1015 C 0.46057 0.48685 0.19828 0.0
H1016 H 0.45938 0.49058 0.12864 0.0
H1017 H 0.38174 0.55734 0.25421 0.0
O1018 O 0.29224 0.36955 0.17603 0.0
C1019 C 0.30185 0.47163 0.22751 0.0
Co1020 Co 0.10896 0.42164 0.67996 0.0
Co1021 Co 0.12447 0.49782 0.6503 0.0
C1022 C 0.12241 0.45865 0.50195 0.0
O1023 O 0.12017 0.43477 0.55464 0.0
O1024 O 0.12046 0.48611 0.52726 0.0
C1025 C 0.05579 0.35603 0.63126 0.0
O1026 O 0.04485 0.37704 0.5966 0.0
C1027 C 0.12885 0.57041 0.6406 0.0
C1028 C 0.17433 0.60184 0.72956 0.0
C1029 C 0.14947 0.60456 0.67781 0.0
N1030 N 0.14069 0.5484 0.67007 0.0
N1031 N 0.16836 0.56772 0.72193 0.0
C1032 C 0.09898 0.55931 0.57671 0.0
H1033 H 0.09162 0.53259 0.54817 0.0
H1034 H 0.07479 0.55767 0.608 0.0
H1035 H 0.10776 0.58021 0.5258 0.0
C1036 C 0.04798 0.41475 0.77987 0.0
N1037 N 0.07797 0.43546 0.73373 0.0
N1038 N 0.07855 0.46512 0.70866 0.0
C1039 C 0.046 0.46196 0.73064 0.0
C1040 C 0.0251 0.42944 0.77673 0.0
C1041 C 0.04412 0.38416 0.83492 0.0
H1042 H 0.07081 0.39174 0.86407 0.0
H1043 H 0.03615 0.35958 0.79612 0.0
H1044 H 0.02388 0.37786 0.8862 0.0
O1045 O 0.15293 0.43905 0.74137 0.0
O1046 O 0.16855 0.49355 0.69131 0.0
H1047 H 0.04925 0.5137 0.72967 0.0
H1048 H 1.00394 0.47577 0.71034 0.0
C1049 C 0.03334 0.48681 0.69831 0.0
H1050 H 0.03825 0.49055 0.62866 0.0
H1051 H 0.1827 0.55736 0.7542 0.0
O1052 O 0.08442 0.36955 0.67597 0.0
C1053 C 0.17686 0.47165 0.72763 0.0
Co1054 Co 0.58717 0.68906 0.67995 0.0
Co1055 Co 0.51099 0.62839 0.6503 0.0
C1056 C 0.55016 0.66551 0.50194 0.0
O1057 O 0.57403 0.68714 0.55464 0.0
O1058 O 0.52269 0.63609 0.52725 0.0
C1059 C 0.65277 0.70151 0.63125 0.0
O1060 O 0.63176 0.66955 0.5966 0.0
C1061 C 0.43839 0.56018 0.64059 0.0
C1062 C 0.40696 0.57424 0.72955 0.0
C1063 C 0.40424 0.54665 0.6778 0.0
N1064 N 0.4604 0.59403 0.67006 0.0
N1065 N 0.44108 0.60239 0.72192 0.0
C1066 C 0.44949 0.54142 0.5767 0.0
H1067 H 0.47621 0.56078 0.54816 0.0
H1068 H 0.45114 0.51887 0.608 0.0
H1069 H 0.4286 0.5293 0.5258 0.0
C1070 C 0.59406 0.63497 0.77987 0.0
N1071 N 0.57334 0.64426 0.73373 0.0
N1072 N 0.54369 0.61518 0.70866 0.0
C1073 C 0.54685 0.58579 0.73064 0.0
C1074 C 0.57937 0.59741 0.77673 0.0
C1075 C 0.62465 0.66171 0.83492 0.0
H1076 H 0.61706 0.68081 0.86407 0.0
H1077 H 0.64922 0.67831 0.79612 0.0
H1078 H 0.63094 0.64776 0.8862 0.0
O1079 O 0.56975 0.71562 0.74135 0.0
O1080 O 0.51526 0.67675 0.6913 0.0
H1081 H 0.4951 0.53729 0.72967 0.0
H1082 H 0.53303 0.52991 0.71034 0.0
C1083 C 0.52199 0.54827 0.6983 0.0
H1084 H 0.51825 0.54945 0.62866 0.0
H1085 H 0.45145 0.62708 0.75419 0.0
O1086 O 0.63925 0.71661 0.67597 0.0
C1087 C 0.53715 0.70695 0.72762 0.0
Co1088 Co 0.31974 0.89985 0.67995 0.0
Co1089 Co 0.38041 0.88434 0.65031 0.0
C1090 C 0.3433 0.8864 0.50195 0.0
O1091 O 0.32167 0.88864 0.55464 0.0
O1092 O 0.37271 0.88835 0.52726 0.0
C1093 C 0.3073 0.95301 0.63125 0.0
O1094 O 0.33925 0.96395 0.5966 0.0
C1095 C 0.44862 0.87996 0.6406 0.0
C1096 C 0.43457 0.83447 0.72955 0.0
C1097 C 0.46215 0.85933 0.6778 0.0
N1098 N 0.41478 0.86812 0.67007 0.0
N1099 N 0.40642 0.84044 0.72193 0.0
C1100 C 0.46738 0.90982 0.57671 0.0
H1101 H 0.44803 0.91719 0.54817 0.0
H1102 H 0.48993 0.93401 0.60801 0.0
H1103 H 0.47951 0.90105 0.5258 0.0
C1104 C 0.37383 0.96083 0.77987 0.0
N1105 N 0.36455 0.93083 0.73374 0.0
N1106 N 0.39363 0.93026 0.70867 0.0
C1107 C 0.42302 0.96281 0.73065 0.0
C1108 C 0.4114 0.98371 0.77674 0.0
C1109 C 0.3471 0.96468 0.83492 0.0
H1110 H 0.32799 0.93799 0.86407 0.0
H1111 H 0.3305 0.97265 0.79612 0.0
H1112 H 0.36105 0.98493 0.8862 0.0
O1113 O 0.29319 0.85588 0.74136 0.0
O1114 O 0.33205 0.84025 0.69131 0.0
H1115 H 0.47152 0.95956 0.72968 0.0
H1116 H 0.4789 0.00487 0.71035 0.0
C1117 C 0.46054 0.97547 0.69831 0.0
H1118 H 0.45936 0.97055 0.62867 0.0
H1119 H 0.38172 0.8261 0.7542 0.0
O1120 O 0.29219 0.92438 0.67597 0.0
C1121 C 0.30185 0.83194 0.72763 0.0
Co1122 Co 0.09008 0.44052 0.23247 0.0
Co1123 Co 0.16626 0.45603 0.26213 0.0
C1124 C 0.12709 0.45397 0.41048 0.0
O1125 O 0.10321 0.45173 0.35778 0.0
O1126 O 0.15455 0.45202 0.38517 0.0
C1127 C 0.02447 0.38736 0.28117 0.0
O1128 O 0.04549 0.37642 0.31583 0.0
C1129 C 0.23885 0.46041 0.27183 0.0
C1130 C 0.27028 0.50589 0.18288 0.0
C1131 C 0.273 0.48103 0.23462 0.0
N1132 N 0.21684 0.47225 0.24237 0.0
N1133 N 0.23616 0.49993 0.1905 0.0
C1134 C 0.22775 0.43055 0.33572 0.0
H1135 H 0.20103 0.42318 0.36427 0.0
H1136 H 0.22611 0.40635 0.30443 0.0
H1137 H 0.24865 0.43932 0.38663 0.0
C1138 C 0.08319 0.37954 0.13256 0.0
N1139 N 0.1039 0.40954 0.17869 0.0
N1140 N 0.13355 0.41011 0.20377 0.0
C1141 C 0.13039 0.37756 0.18179 0.0
C1142 C 0.09788 0.35666 0.1357 0.0
C1143 C 0.0526 0.37569 0.07751 0.0
H1144 H 0.06018 0.40238 0.04835 0.0
H1145 H 0.02802 0.36772 0.11629 0.0
H1146 H 0.0463 0.35544 1.02622 0.0
O1147 O 0.10749 0.48449 0.17106 0.0
O1148 O 0.16199 0.50012 0.22112 0.0
H1149 H 0.18214 0.38081 0.18277 0.0
H1150 H 0.14421 0.3355 0.2021 0.0
C1151 C 0.15524 0.3649 0.21414 0.0
H1152 H 0.15899 0.36982 0.28378 0.0
H1153 H 0.2258 0.51426 0.15824 0.0
O1154 O 0.03799 0.41598 0.23644 0.0
C1155 C 0.14009 0.50843 0.1848 0.0
Co1156 Co 0.56828 0.6513 0.23247 0.0
Co1157 Co 0.55278 0.71197 0.26212 0.0
C1158 C 0.55483 0.67486 0.41047 0.0
O1159 O 0.55707 0.65322 0.35778 0.0
O1160 O 0.55679 0.70427 0.38516 0.0
C1161 C 0.62145 0.63886 0.28117 0.0
O1162 O 0.63238 0.67081 0.31583 0.0
C1163 C 0.5484 0.78018 0.27182 0.0
C1164 C 0.50291 0.76613 0.18287 0.0
C1165 C 0.52777 0.79371 0.23462 0.0
N1166 N 0.53656 0.74634 0.24235 0.0
N1167 N 0.50888 0.73798 0.19049 0.0
C1168 C 0.57826 0.79895 0.33571 0.0
H1169 H 0.58563 0.77959 0.36425 0.0
H1170 H 0.60246 0.8215 0.30441 0.0
H1171 H 0.56949 0.81107 0.38661 0.0
C1172 C 0.62927 0.70539 0.13255 0.0
N1173 N 0.59927 0.69611 0.17869 0.0
N1174 N 0.5987 0.72519 0.20376 0.0
C1175 C 0.63125 0.75458 0.18178 0.0
C1176 C 0.65214 0.74296 0.13569 0.0
C1177 C 0.63312 0.67866 0.0775 0.0
H1178 H 0.60642 0.65955 0.04834 0.0
H1179 H 0.64108 0.66205 0.11629 0.0
H1180 H 0.65336 0.69261 1.02622 0.0
O1181 O 0.52431 0.62475 0.17106 0.0
O1182 O 0.50869 0.66361 0.22111 0.0
H1183 H 0.62801 0.80308 0.18276 0.0
H1184 H 0.67331 0.81045 0.2021 0.0
C1185 C 0.64392 0.79209 0.21412 0.0
H1186 H 0.63899 0.79091 0.28376 0.0
H1187 H 0.49454 0.71328 0.15822 0.0
O1188 O 0.59282 0.62375 0.23645 0.0
C1189 C 0.50038 0.63341 0.18479 0.0
Co1190 Co 0.35751 0.91873 0.23247 0.0
Co1191 Co 0.29683 0.84255 0.26212 0.0
C1192 C 0.33395 0.88172 0.41048 0.0
O1193 O 0.35558 0.90559 0.35778 0.0
O1194 O 0.30454 0.85426 0.38517 0.0
C1195 C 0.36995 0.98433 0.28116 0.0
O1196 O 0.338 0.96332 0.31583 0.0
C1197 C 0.22862 0.76995 0.27183 0.0
C1198 C 0.24267 0.73853 0.18288 0.0
C1199 C 0.21509 0.7358 0.23462 0.0
N1200 N 0.26247 0.79196 0.24236 0.0
N1201 N 0.27082 0.77264 0.1905 0.0
C1202 C 0.20986 0.78106 0.33572 0.0
H1203 H 0.22922 0.80778 0.36426 0.0
H1204 H 0.18731 0.7827 0.30442 0.0
H1205 H 0.19774 0.76016 0.38663 0.0
C1206 C 0.30341 0.92562 0.13255 0.0
N1207 N 0.3127 0.9049 0.17868 0.0
N1208 N 0.28362 0.87525 0.20376 0.0
C1209 C 0.25423 0.87841 0.18178 0.0
C1210 C 0.26585 0.91093 0.13569 0.0
C1211 C 0.33015 0.9562 0.0775 0.0
H1212 H 0.34925 0.94862 0.04834 0.0
H1213 H 0.34676 0.98078 0.11628 0.0
H1214 H 0.3162 0.9625 1.02622 0.0
O1215 O 0.38406 0.90131 0.17106 0.0
O1216 O 0.34519 0.84682 0.22112 0.0
H1217 H 0.20573 0.82667 0.18276 0.0
H1218 H 0.19835 0.8646 0.2021 0.0
C1219 C 0.21671 0.85356 0.21413 0.0
H1220 H 0.2179 0.84982 0.28377 0.0
H1221 H 0.29552 0.783 0.15823 0.0
O1222 O 0.38505 0.97082 0.23644 0.0
C1223 C 0.37539 0.86871 0.1848 0.0
loop_
_geom_bond_atom_site_label_1
_geom_bond_atom_site_label_2
_geom_bond_distance
_geom_bond_site_symmetry_2
_ccdc_geom_bond_type
Co0 O3 1.970 . S
Co0 N17 1.989 . S
Co0 O25 1.967 . S
Co0 O32 1.920 . S
Co1 O4 1.966 . S
Co1 N10 2.022 . S
Co1 N18 1.993 1_554 S
Co1 O26 1.941 1_554 S
C2 O3 1.258 . S
C2 O4 1.263 . S
O3 Co0 1.970 . S
O3 C2 1.258 . S
O4 Co1 1.966 . S
O4 C2 1.263 . S
C5 O6 1.235 . S
C5 O32 1.289 . S
O6 C5 1.235 . S
C7 C9 1.400 . S
C7 N10 1.351 . S
C7 C12 1.501 . S
C8 C9 1.387 1_556 S
C8 N11 1.341 . S
C9 C7 1.400 . S
C9 C8 1.387 1_554 S
N10 Co1 2.022 . S
N10 C7 1.351 . S
N10 N11 1.365 1_554 S
N11 C8 1.341 . S
N11 N10 1.365 1_556 S
N11 H31 0.862 . S
C12 C7 1.501 . S
C12 H13 0.961 . S
C12 H14 0.961 . S
C12 H15 0.960 . S
H13 C12 0.961 . S
H14 C12 0.961 . S
H15 C12 0.960 . S
C16 N17 1.342 1_556 S
C16 C20 1.401 . S
C16 C21 1.499 . S
N17 Co0 1.989 . S
N17 C16 1.342 1_554 S
N17 N18 1.388 1_554 S
N18 Co1 1.993 1_556 S
N18 N17 1.388 1_556 S
N18 C19 1.346 . S
C19 N18 1.346 . S
C19 C20 1.396 . S
C19 C29 1.510 . S
C20 C16 1.401 . S
C20 C19 1.396 . S
C21 C16 1.499 . S
C21 H22 0.959 . S
C21 H23 0.960 . S
C21 H24 0.961 . S
H22 C21 0.959 . S
H23 C21 0.960 . S
H24 C21 0.961 . S
O25 Co0 1.967 . S
O25 C33 1.258 . S
O26 Co1 1.941 1_556 S
O26 C33 1.266 1_556 S
H27 C29 0.959 . S
H28 C29 0.961 . S
C29 C19 1.510 . S
C29 H27 0.959 . S
C29 H28 0.961 . S
C29 H30 0.960 . S
H30 C29 0.960 . S
H31 N11 0.862 . S
O32 Co0 1.920 . S
O32 C5 1.289 . S
C33 O25 1.258 . S
C33 O26 1.266 1_554 S
Co34 O37 1.970 1_565 S
Co34 N51 1.989 1_565 S
Co34 O59 1.967 . S
Co34 O66 1.920 . S
Co35 O38 1.966 . S
Co35 N44 2.022 . S
Co35 N52 1.993 1_554 S
Co35 O60 1.941 1_544 S
C36 O37 1.258 . S
C36 O38 1.263 . S
O37 Co34 1.970 1_545 S
O37 C36 1.258 . S
O38 Co35 1.966 . S
O38 C36 1.263 . S
C39 O40 1.235 . S
C39 O66 1.289 . S
O40 C39 1.235 . S
C41 C43 1.400 . S
C41 N44 1.351 . S
C41 C46 1.501 . S
C42 C43 1.387 1_556 S
C42 N45 1.341 . S
C43 C41 1.400 . S
C43 C42 1.387 1_554 S
N44 Co35 2.022 . S
N44 C41 1.351 . S
N44 N45 1.365 1_554 S
N45 C42 1.341 . S
N45 N44 1.365 1_556 S
N45 H65 0.862 . S
C46 C41 1.501 . S
C46 H47 0.961 . S
C46 H48 0.961 . S
C46 H49 0.960 . S
H47 C46 0.961 . S
H48 C46 0.961 . S
H49 C46 0.960 . S
C50 N51 1.342 1_556 S
C50 C54 1.401 . S
C50 C55 1.499 . S
N51 Co34 1.989 1_545 S
N51 C50 1.342 1_554 S
N51 N52 1.388 1_554 S
N52 Co35 1.993 1_556 S
N52 N51 1.388 1_556 S
N52 C53 1.346 . S
C53 N52 1.346 . S
C53 C54 1.396 . S
C53 C63 1.510 . S
C54 C50 1.401 . S
C54 C53 1.396 . S
C55 C50 1.499 . S
C55 H56 0.959 . S
C55 H57 0.960 . S
C55 H58 0.961 . S
H56 C55 0.959 . S
H57 C55 0.960 . S
H58 C55 0.961 . S
O59 Co34 1.967 . S
O59 C67 1.258 . S
O60 Co35 1.941 1_566 S
O60 C67 1.266 1_556 S
H61 C63 0.959 . S
H62 C63 0.961 . S
C63 C53 1.510 . S
C63 H61 0.959 . S
C63 H62 0.961 . S
C63 H64 0.960 . S
H64 C63 0.960 . S
H65 N45 0.862 . S
O66 Co34 1.920 . S
O66 C39 1.289 . S
C67 O59 1.258 . S
C67 O60 1.266 1_554 S
Co68 O71 1.970 1_455 S
Co68 N85 1.989 1_455 S
Co68 O93 1.967 . S
Co68 O100 1.920 . S
Co69 O72 1.966 . S
Co69 N78 2.022 . S
Co69 N86 1.993 1_554 S
Co69 O94 1.941 1_654 S
C70 O71 1.258 . S
C70 O72 1.263 . S
O71 Co68 1.970 1_655 S
O71 C70 1.258 . S
O72 Co69 1.966 . S
O72 C70 1.263 . S
C73 O74 1.235 . S
C73 O100 1.289 . S
O74 C73 1.235 . S
C75 C77 1.400 . S
C75 N78 1.351 . S
C75 C80 1.501 . S
C76 C77 1.387 1_556 S
C76 N79 1.341 . S
C77 C75 1.400 . S
C77 C76 1.387 1_554 S
N78 Co69 2.022 . S
N78 C75 1.351 . S
N78 N79 1.365 1_554 S
N79 C76 1.341 . S
N79 N78 1.365 1_556 S
N79 H99 0.862 . S
C80 C75 1.501 . S
C80 H81 0.961 . S
C80 H82 0.961 . S
C80 H83 0.960 . S
H81 C80 0.961 . S
H82 C80 0.961 . S
H83 C80 0.960 . S
C84 N85 1.342 1_556 S
C84 C88 1.401 . S
C84 C89 1.499 . S
N85 Co68 1.989 1_655 S
N85 C84 1.342 1_554 S
N85 N86 1.388 1_554 S
N86 Co69 1.993 1_556 S
N86 N85 1.388 1_556 S
N86 C87 1.346 . S
C87 N86 1.346 . S
C87 C88 1.396 . S
C87 C97 1.510 . S
C88 C84 1.401 . S
C88 C87 1.396 . S
C89 C84 1.499 . S
C89 H90 0.959 . S
C89 H91 0.960 . S
C89 H92 0.961 . S
H90 C89 0.959 . S
H91 C89 0.960 . S
H92 C89 0.961 . S
O93 Co68 1.967 . S
O93 C101 1.258 . S
O94 Co69 1.941 1_456 S
O94 C101 1.266 1_556 S
H95 C97 0.959 . S
H96 C97 0.961 . S
C97 C87 1.510 . S
C97 H95 0.959 . S
C97 H96 0.961 . S
C97 H98 0.960 . S
H98 C97 0.960 . S
H99 N79 0.862 . S
O100 Co68 1.920 . S
O100 C73 1.289 . S
C101 O93 1.258 . S
C101 O94 1.266 1_554 S
Co102 O105 1.970 . S
Co102 N119 1.989 . S
Co102 O127 1.967 . S
Co102 O134 1.920 . S
Co103 O106 1.966 . S
Co103 N112 2.022 . S
Co103 N120 1.993 . S
Co103 O128 1.941 . S
C104 O105 1.258 . S
C104 O106 1.263 . S
O105 Co102 1.970 . S
O105 C104 1.258 . S
O106 Co103 1.966 . S
O106 C104 1.263 . S
C107 O108 1.235 . S
C107 O134 1.289 . S
O108 C107 1.235 . S
C109 C111 1.400 . S
C109 N112 1.351 . S
C109 C114 1.501 . S
C110 C111 1.387 . S
C110 N113 1.341 . S
C111 C109 1.400 . S
C111 C110 1.387 . S
N112 Co103 2.022 . S
N112 C109 1.351 . S
N112 N113 1.365 . S
N113 C110 1.341 . S
N113 N112 1.365 . S
N113 H133 0.862 . S
C114 C109 1.501 . S
C114 H115 0.961 . S
C114 H116 0.961 . S
C114 H117 0.960 . S
H115 C114 0.961 . S
H116 C114 0.961 . S
H117 C114 0.960 . S
C118 N119 1.342 . S
C118 C122 1.401 . S
C118 C123 1.499 . S
N119 Co102 1.989 . S
N119 C118 1.342 . S
N119 N120 1.388 . S
N120 Co103 1.993 . S
N120 N119 1.388 . S
N120 C121 1.346 . S
C121 N120 1.346 . S
C121 C122 1.396 . S
C121 C131 1.510 . S
C122 C118 1.401 . S
C122 C121 1.396 . S
C123 C118 1.499 . S
C123 H124 0.959 . S
C123 H125 0.960 . S
C123 H126 0.961 . S
H124 C123 0.959 . S
H125 C123 0.960 . S
H126 C123 0.961 . S
O127 Co102 1.967 . S
O127 C135 1.258 . S
O128 Co103 1.941 . S
O128 C135 1.266 . S
H129 C131 0.959 . S
H130 C131 0.961 . S
C131 C121 1.510 . S
C131 H129 0.959 . S
C131 H130 0.961 . S
C131 H132 0.960 . S
H132 C131 0.960 . S
H133 N113 0.862 . S
O134 Co102 1.920 . S
O134 C107 1.289 . S
C135 O127 1.258 . S
C135 O128 1.266 . S
Co136 O139 1.970 1_545 S
Co136 N153 1.989 1_545 S
Co136 O161 1.967 . S
Co136 O168 1.920 . S
Co137 O140 1.966 . S
Co137 N146 2.022 . S
Co137 N154 1.993 . S
Co137 O162 1.941 1_565 S
C138 O139 1.258 . S
C138 O140 1.263 . S
O139 Co136 1.970 1_565 S
O139 C138 1.258 . S
O140 Co137 1.966 . S
O140 C138 1.263 . S
C141 O142 1.235 . S
C141 O168 1.289 . S
O142 C141 1.235 . S
C143 C145 1.400 . S
C143 N146 1.351 . S
C143 C148 1.501 . S
C144 C145 1.387 . S
C144 N147 1.341 . S
C145 C143 1.400 . S
C145 C144 1.387 . S
N146 Co137 2.022 . S
N146 C143 1.351 . S
N146 N147 1.365 . S
N147 C144 1.341 . S
N147 N146 1.365 . S
N147 H167 0.862 . S
C148 C143 1.501 . S
C148 H149 0.961 . S
C148 H150 0.961 . S
C148 H151 0.960 . S
H149 C148 0.961 . S
H150 C148 0.961 . S
H151 C148 0.960 . S
C152 N153 1.342 . S
C152 C156 1.401 . S
C152 C157 1.499 . S
N153 Co136 1.989 1_565 S
N153 C152 1.342 . S
N153 N154 1.388 . S
N154 Co137 1.993 . S
N154 N153 1.388 . S
N154 C155 1.346 . S
C155 N154 1.346 . S
C155 C156 1.396 . S
C155 C165 1.510 . S
C156 C152 1.401 . S
C156 C155 1.396 . S
C157 C152 1.499 . S
C157 H158 0.959 . S
C157 H159 0.960 . S
C157 H160 0.961 . S
H158 C157 0.959 . S
H159 C157 0.960 . S
H160 C157 0.961 . S
O161 Co136 1.967 . S
O161 C169 1.258 . S
O162 Co137 1.941 1_545 S
O162 C169 1.266 . S
H163 C165 0.959 . S
H164 C165 0.961 . S
C165 C155 1.510 . S
C165 H163 0.959 . S
C165 H164 0.961 . S
C165 H166 0.960 . S
H166 C165 0.960 . S
H167 N147 0.862 . S
O168 Co136 1.920 . S
O168 C141 1.289 . S
C169 O161 1.258 . S
C169 O162 1.266 . S
Co170 O173 1.970 1_655 S
Co170 N187 1.989 1_655 S
Co170 O195 1.967 . S
Co170 O202 1.920 . S
Co171 O174 1.966 . S
Co171 N180 2.022 . S
Co171 N188 1.993 . S
Co171 O196 1.941 1_455 S
C172 O173 1.258 . S
C172 O174 1.263 . S
O173 Co170 1.970 1_455 S
O173 C172 1.258 . S
O174 Co171 1.966 . S
O174 C172 1.263 . S
C175 O176 1.235 . S
C175 O202 1.289 . S
O176 C175 1.235 . S
C177 C179 1.400 . S
C177 N180 1.351 . S
C177 C182 1.501 . S
C178 C179 1.387 . S
C178 N181 1.341 . S
C179 C177 1.400 . S
C179 C178 1.387 . S
N180 Co171 2.022 . S
N180 C177 1.351 . S
N180 N181 1.365 . S
N181 C178 1.341 . S
N181 N180 1.365 . S
N181 H201 0.862 . S
C182 C177 1.501 . S
C182 H183 0.961 . S
C182 H184 0.961 . S
C182 H185 0.960 . S
H183 C182 0.961 . S
H184 C182 0.961 . S
H185 C182 0.960 . S
C186 N187 1.342 . S
C186 C190 1.401 . S
C186 C191 1.499 . S
N187 Co170 1.989 1_455 S
N187 C186 1.342 . S
N187 N188 1.388 . S
N188 Co171 1.993 . S
N188 N187 1.388 . S
N188 C189 1.346 . S
C189 N188 1.346 . S
C189 C190 1.396 . S
C189 C199 1.510 . S
C190 C186 1.401 . S
C190 C189 1.396 . S
C191 C186 1.499 . S
C191 H192 0.959 . S
C191 H193 0.960 . S
C191 H194 0.961 . S
H192 C191 0.959 . S
H193 C191 0.960 . S
H194 C191 0.961 . S
O195 Co170 1.967 . S
O195 C203 1.258 . S
O196 Co171 1.941 1_655 S
O196 C203 1.266 . S
H197 C199 0.959 . S
H198 C199 0.961 . S
C199 C189 1.510 . S
C199 H197 0.959 . S
C199 H198 0.961 . S
C199 H200 0.960 . S
H200 C199 0.960 . S
H201 N181 0.862 . S
O202 Co170 1.920 . S
O202 C175 1.289 . S
C203 O195 1.258 . S
C203 O196 1.266 . S
Co204 O207 1.970 . S
Co204 N221 1.989 . S
Co204 O229 1.967 . S
Co204 O236 1.920 . S
Co205 O208 1.966 . S
Co205 N214 2.022 . S
Co205 N222 1.993 1_556 S
Co205 O230 1.941 1_556 S
C206 O207 1.258 . S
C206 O208 1.263 . S
O207 Co204 1.970 . S
O207 C206 1.258 . S
O208 Co205 1.966 . S
O208 C206 1.263 . S
C209 O210 1.235 . S
C209 O236 1.289 . S
O210 C209 1.235 . S
C211 C213 1.400 . S
C211 N214 1.351 . S
C211 C216 1.501 . S
C212 C213 1.387 1_554 S
C212 N215 1.341 . S
C213 C211 1.400 . S
C213 C212 1.387 1_556 S
N214 Co205 2.022 . S
N214 C211 1.351 . S
N214 N215 1.365 1_556 S
N215 C212 1.341 . S
N215 N214 1.365 1_554 S
N215 H235 0.862 . S
C216 C211 1.501 . S
C216 H217 0.961 . S
C216 H218 0.961 . S
C216 H219 0.960 . S
H217 C216 0.961 . S
H218 C216 0.961 . S
H219 C216 0.960 . S
C220 N221 1.342 1_554 S
C220 C224 1.401 . S
C220 C225 1.499 . S
N221 Co204 1.989 . S
N221 C220 1.342 1_556 S
N221 N222 1.388 1_556 S
N222 Co205 1.993 1_554 S
N222 N221 1.388 1_554 S
N222 C223 1.346 . S
C223 N222 1.346 . S
C223 C224 1.396 . S
C223 C233 1.510 . S
C224 C220 1.401 . S
C224 C223 1.396 . S
C225 C220 1.499 . S
C225 H226 0.959 . S
C225 H227 0.960 . S
C225 H228 0.961 . S
H226 C225 0.959 . S
H227 C225 0.960 . S
H228 C225 0.961 . S
O229 Co204 1.967 . S
O229 C237 1.258 . S
O230 Co205 1.941 1_554 S
O230 C237 1.266 1_554 S
H231 C233 0.959 . S
H232 C233 0.961 . S
C233 C223 1.510 . S
C233 H231 0.959 . S
C233 H232 0.961 . S
C233 H234 0.960 . S
H234 C233 0.960 . S
H235 N215 0.862 . S
O236 Co204 1.920 . S
O236 C209 1.289 . S
C237 O229 1.258 . S
C237 O230 1.266 1_556 S
Co238 O241 1.970 1_545 S
Co238 N255 1.989 1_545 S
Co238 O263 1.967 . S
Co238 O270 1.920 . S
Co239 O242 1.966 . S
Co239 N248 2.022 . S
Co239 N256 1.993 1_556 S
Co239 O264 1.941 1_566 S
C240 O241 1.258 . S
C240 O242 1.263 . S
O241 Co238 1.970 1_565 S
O241 C240 1.258 . S
O242 Co239 1.966 . S
O242 C240 1.263 . S
C243 O244 1.235 . S
C243 O270 1.289 . S
O244 C243 1.235 . S
C245 C247 1.400 . S
C245 N248 1.351 . S
C245 C250 1.501 . S
C246 C247 1.387 1_554 S
C246 N249 1.341 . S
C247 C245 1.400 . S
C247 C246 1.387 1_556 S
N248 Co239 2.022 . S
N248 C245 1.351 . S
N248 N249 1.365 1_556 S
N249 C246 1.341 . S
N249 N248 1.365 1_554 S
N249 H269 0.862 . S
C250 C245 1.501 . S
C250 H251 0.961 . S
C250 H252 0.961 . S
C250 H253 0.960 . S
H251 C250 0.961 . S
H252 C250 0.961 . S
H253 C250 0.960 . S
C254 N255 1.342 1_554 S
C254 C258 1.401 . S
C254 C259 1.499 . S
N255 Co238 1.989 1_565 S
N255 C254 1.342 1_556 S
N255 N256 1.388 1_556 S
N256 Co239 1.993 1_554 S
N256 N255 1.388 1_554 S
N256 C257 1.346 . S
C257 N256 1.346 . S
C257 C258 1.396 . S
C257 C267 1.510 . S
C258 C254 1.401 . S
C258 C257 1.396 . S
C259 C254 1.499 . S
C259 H260 0.959 . S
C259 H261 0.960 . S
C259 H262 0.961 . S
H260 C259 0.959 . S
H261 C259 0.960 . S
H262 C259 0.961 . S
O263 Co238 1.967 . S
O263 C271 1.258 . S
O264 Co239 1.941 1_544 S
O264 C271 1.266 1_554 S
H265 C267 0.959 . S
H266 C267 0.961 . S
C267 C257 1.510 . S
C267 H265 0.959 . S
C267 H266 0.961 . S
C267 H268 0.960 . S
H268 C267 0.960 . S
H269 N249 0.862 . S
O270 Co238 1.920 . S
O270 C243 1.289 . S
C271 O263 1.258 . S
C271 O264 1.266 1_556 S
Co272 O275 1.970 1_655 S
Co272 N289 1.989 1_655 S
Co272 O297 1.967 . S
Co272 O304 1.920 . S
Co273 O276 1.966 . S
Co273 N282 2.022 . S
Co273 N290 1.993 1_556 S
Co273 O298 1.941 1_456 S
C274 O275 1.258 . S
C274 O276 1.263 . S
O275 Co272 1.970 1_455 S
O275 C274 1.258 . S
O276 Co273 1.966 . S
O276 C274 1.263 . S
C277 O278 1.235 . S
C277 O304 1.289 . S
O278 C277 1.235 . S
C279 C281 1.400 . S
C279 N282 1.351 . S
C279 C284 1.501 . S
C280 C281 1.387 1_554 S
C280 N283 1.341 . S
C281 C279 1.400 . S
C281 C280 1.387 1_556 S
N282 Co273 2.022 . S
N282 C279 1.351 . S
N282 N283 1.365 1_556 S
N283 C280 1.341 . S
N283 N282 1.365 1_554 S
N283 H303 0.862 . S
C284 C279 1.501 . S
C284 H285 0.961 . S
C284 H286 0.961 . S
C284 H287 0.960 . S
H285 C284 0.961 . S
H286 C284 0.961 . S
H287 C284 0.960 . S
C288 N289 1.342 1_554 S
C288 C292 1.401 . S
C288 C293 1.499 . S
N289 Co272 1.989 1_455 S
N289 C288 1.342 1_556 S
N289 N290 1.388 1_556 S
N290 Co273 1.993 1_554 S
N290 N289 1.388 1_554 S
N290 C291 1.346 . S
C291 N290 1.346 . S
C291 C292 1.396 . S
C291 C301 1.510 . S
C292 C288 1.401 . S
C292 C291 1.396 . S
C293 C288 1.499 . S
C293 H294 0.959 . S
C293 H295 0.960 . S
C293 H296 0.961 . S
H294 C293 0.959 . S
H295 C293 0.960 . S
H296 C293 0.961 . S
O297 Co272 1.967 . S
O297 C305 1.258 . S
O298 Co273 1.941 1_654 S
O298 C305 1.266 1_554 S
H299 C301 0.959 . S
H300 C301 0.961 . S
C301 C291 1.510 . S
C301 H299 0.959 . S
C301 H300 0.961 . S
C301 H302 0.960 . S
H302 C301 0.960 . S
H303 N283 0.862 . S
O304 Co272 1.920 . S
O304 C277 1.289 . S
C305 O297 1.258 . S
C305 O298 1.266 1_556 S
Co306 O309 1.970 . S
Co306 N323 1.989 . S
Co306 O331 1.967 . S
Co306 O338 1.920 . S
Co307 O310 1.966 . S
Co307 N316 2.022 . S
Co307 N324 1.993 . S
Co307 O332 1.941 . S
C308 O309 1.258 . S
C308 O310 1.263 . S
O309 Co306 1.970 . S
O309 C308 1.258 . S
O310 Co307 1.966 . S
O310 C308 1.263 . S
C311 O312 1.235 . S
C311 O338 1.289 . S
O312 C311 1.235 . S
C313 C315 1.400 . S
C313 N316 1.351 . S
C313 C318 1.501 . S
C314 C315 1.387 . S
C314 N317 1.341 . S
C315 C313 1.400 . S
C315 C314 1.387 . S
N316 Co307 2.022 . S
N316 C313 1.351 . S
N316 N317 1.365 . S
N317 C314 1.341 . S
N317 N316 1.365 . S
N317 H337 0.862 . S
C318 C313 1.501 . S
C318 H319 0.961 . S
C318 H320 0.961 . S
C318 H321 0.960 . S
H319 C318 0.961 . S
H320 C318 0.961 . S
H321 C318 0.960 . S
C322 N323 1.342 . S
C322 C326 1.401 . S
C322 C327 1.499 . S
N323 Co306 1.989 . S
N323 C322 1.342 . S
N323 N324 1.388 . S
N324 Co307 1.993 . S
N324 N323 1.388 . S
N324 C325 1.346 . S
C325 N324 1.346 . S
C325 C326 1.396 . S
C325 C335 1.510 . S
C326 C322 1.401 . S
C326 C325 1.396 . S
C327 C322 1.499 . S
C327 H328 0.959 . S
C327 H329 0.960 . S
C327 H330 0.961 . S
H328 C327 0.959 . S
H329 C327 0.960 . S
H330 C327 0.961 . S
O331 Co306 1.967 . S
O331 C339 1.258 . S
O332 Co307 1.941 . S
O332 C339 1.266 . S
H333 C335 0.959 . S
H334 C335 0.961 . S
C335 C325 1.510 . S
C335 H333 0.959 . S
C335 H334 0.961 . S
C335 H336 0.960 . S
H336 C335 0.960 . S
H337 N317 0.862 . S
O338 Co306 1.920 . S
O338 C311 1.289 . S
C339 O331 1.258 . S
C339 O332 1.266 . S
Co340 O343 1.970 1_565 S
Co340 N357 1.989 1_565 S
Co340 O365 1.967 . S
Co340 O372 1.920 . S
Co341 O344 1.966 . S
Co341 N350 2.022 . S
Co341 N358 1.993 . S
Co341 O366 1.941 1_545 S
C342 O343 1.258 . S
C342 O344 1.263 . S
O343 Co340 1.970 1_545 S
O343 C342 1.258 . S
O344 Co341 1.966 . S
O344 C342 1.263 . S
C345 O346 1.235 . S
C345 O372 1.289 . S
O346 C345 1.235 . S
C347 C349 1.400 . S
C347 N350 1.351 . S
C347 C352 1.501 . S
C348 C349 1.387 . S
C348 N351 1.341 . S
C349 C347 1.400 . S
C349 C348 1.387 . S
N350 Co341 2.022 . S
N350 C347 1.351 . S
N350 N351 1.365 . S
N351 C348 1.341 . S
N351 N350 1.365 . S
N351 H371 0.862 . S
C352 C347 1.501 . S
C352 H353 0.961 . S
C352 H354 0.961 . S
C352 H355 0.960 . S
H353 C352 0.961 . S
H354 C352 0.961 . S
H355 C352 0.960 . S
C356 N357 1.342 . S
C356 C360 1.401 . S
C356 C361 1.499 . S
N357 Co340 1.989 1_545 S
N357 C356 1.342 . S
N357 N358 1.388 . S
N358 Co341 1.993 . S
N358 N357 1.388 . S
N358 C359 1.346 . S
C359 N358 1.346 . S
C359 C360 1.396 . S
C359 C369 1.510 . S
C360 C356 1.401 . S
C360 C359 1.396 . S
C361 C356 1.499 . S
C361 H362 0.959 . S
C361 H363 0.960 . S
C361 H364 0.961 . S
H362 C361 0.959 . S
H363 C361 0.960 . S
H364 C361 0.961 . S
O365 Co340 1.967 . S
O365 C373 1.258 . S
O366 Co341 1.941 1_565 S
O366 C373 1.266 . S
H367 C369 0.959 . S
H368 C369 0.961 . S
C369 C359 1.510 . S
C369 H367 0.959 . S
C369 H368 0.961 . S
C369 H370 0.960 . S
H370 C369 0.960 . S
H371 N351 0.862 . S
O372 Co340 1.920 . S
O372 C345 1.289 . S
C373 O365 1.258 . S
C373 O366 1.266 . S
Co374 O377 1.970 1_455 S
Co374 N391 1.989 1_455 S
Co374 O399 1.967 . S
Co374 O406 1.920 . S
Co375 O378 1.966 . S
Co375 N384 2.022 . S
Co375 N392 1.993 . S
Co375 O400 1.941 1_655 S
C376 O377 1.258 . S
C376 O378 1.263 . S
O377 Co374 1.970 1_655 S
O377 C376 1.258 . S
O378 Co375 1.966 . S
O378 C376 1.263 . S
C379 O380 1.235 . S
C379 O406 1.289 . S
O380 C379 1.235 . S
C381 C383 1.400 . S
C381 N384 1.351 . S
C381 C386 1.501 . S
C382 C383 1.387 . S
C382 N385 1.341 . S
C383 C381 1.400 . S
C383 C382 1.387 . S
N384 Co375 2.022 . S
N384 C381 1.351 . S
N384 N385 1.365 . S
N385 C382 1.341 . S
N385 N384 1.365 . S
N385 H405 0.862 . S
C386 C381 1.501 . S
C386 H387 0.961 . S
C386 H388 0.961 . S
C386 H389 0.960 . S
H387 C386 0.961 . S
H388 C386 0.961 . S
H389 C386 0.960 . S
C390 N391 1.342 . S
C390 C394 1.401 . S
C390 C395 1.499 . S
N391 Co374 1.989 1_655 S
N391 C390 1.342 . S
N391 N392 1.388 . S
N392 Co375 1.993 . S
N392 N391 1.388 . S
N392 C393 1.346 . S
C393 N392 1.346 . S
C393 C394 1.396 . S
C393 C403 1.510 . S
C394 C390 1.401 . S
C394 C393 1.396 . S
C395 C390 1.499 . S
C395 H396 0.959 . S
C395 H397 0.960 . S
C395 H398 0.961 . S
H396 C395 0.959 . S
H397 C395 0.960 . S
H398 C395 0.961 . S
O399 Co374 1.967 . S
O399 C407 1.258 . S
O400 Co375 1.941 1_455 S
O400 C407 1.266 . S
H401 C403 0.959 . S
H402 C403 0.961 . S
C403 C393 1.510 . S
C403 H401 0.959 . S
C403 H402 0.961 . S
C403 H404 0.960 . S
H404 C403 0.960 . S
H405 N385 0.862 . S
O406 Co374 1.920 . S
O406 C379 1.289 . S
C407 O399 1.258 . S
C407 O400 1.266 . S
Co408 O411 1.970 . S
Co408 N425 1.989 . S
Co408 O433 1.967 . S
Co408 O440 1.920 . S
Co409 O412 1.966 . S
Co409 N418 2.022 . S
Co409 N426 1.993 . S
Co409 O434 1.941 . S
C410 O411 1.258 . S
C410 O412 1.263 . S
O411 Co408 1.970 . S
O411 C410 1.258 . S
O412 Co409 1.966 . S
O412 C410 1.263 . S
C413 O414 1.235 . S
C413 O440 1.289 . S
O414 C413 1.235 . S
C415 C417 1.400 . S
C415 N418 1.351 . S
C415 C420 1.501 . S
C416 C417 1.387 . S
C416 N419 1.341 . S
C417 C415 1.400 . S
C417 C416 1.387 . S
N418 Co409 2.022 . S
N418 C415 1.351 . S
N418 N419 1.365 . S
N419 C416 1.341 . S
N419 N418 1.365 . S
N419 H439 0.862 . S
C420 C415 1.501 . S
C420 H421 0.961 . S
C420 H422 0.961 . S
C420 H423 0.960 . S
H421 C420 0.961 . S
H422 C420 0.961 . S
H423 C420 0.960 . S
C424 N425 1.342 . S
C424 C428 1.401 . S
C424 C429 1.499 . S
N425 Co408 1.989 . S
N425 C424 1.342 . S
N425 N426 1.388 . S
N426 Co409 1.993 . S
N426 N425 1.388 . S
N426 C427 1.346 . S
C427 N426 1.346 . S
C427 C428 1.396 . S
C427 C437 1.510 . S
C428 C424 1.401 . S
C428 C427 1.396 . S
C429 C424 1.499 . S
C429 H430 0.959 . S
C429 H431 0.960 1_655 S
C429 H432 0.961 . S
H430 C429 0.959 . S
H431 C429 0.960 1_455 S
H432 C429 0.961 . S
O433 Co408 1.967 . S
O433 C441 1.258 . S
O434 Co409 1.941 . S
O434 C441 1.266 . S
H435 C437 0.959 . S
H436 C437 0.961 . S
C437 C427 1.510 . S
C437 H435 0.959 . S
C437 H436 0.961 . S
C437 H438 0.960 . S
H438 C437 0.960 . S
H439 N419 0.862 . S
O440 Co408 1.920 . S
O440 C413 1.289 . S
C441 O433 1.258 . S
C441 O434 1.266 . S
Co442 O445 1.970 . S
Co442 N459 1.989 . S
Co442 O467 1.967 . S
Co442 O474 1.920 . S
Co443 O446 1.966 . S
Co443 N452 2.022 . S
Co443 N460 1.993 . S
Co443 O468 1.941 . S
C444 O445 1.258 . S
C444 O446 1.263 . S
O445 Co442 1.970 . S
O445 C444 1.258 . S
O446 Co443 1.966 . S
O446 C444 1.263 . S
C447 O448 1.235 . S
C447 O474 1.289 . S
O448 C447 1.235 . S
C449 C451 1.400 . S
C449 N452 1.351 . S
C449 C454 1.501 . S
C450 C451 1.387 . S
C450 N453 1.341 . S
C451 C449 1.400 . S
C451 C450 1.387 . S
N452 Co443 2.022 . S
N452 C449 1.351 . S
N452 N453 1.365 . S
N453 C450 1.341 . S
N453 N452 1.365 . S
N453 H473 0.862 . S
C454 C449 1.501 . S
C454 H455 0.961 . S
C454 H456 0.961 . S
C454 H457 0.960 . S
H455 C454 0.961 . S
H456 C454 0.961 . S
H457 C454 0.960 . S
C458 N459 1.342 . S
C458 C462 1.401 . S
C458 C463 1.499 . S
N459 Co442 1.989 . S
N459 C458 1.342 . S
N459 N460 1.388 . S
N460 Co443 1.993 . S
N460 N459 1.388 . S
N460 C461 1.346 . S
C461 N460 1.346 . S
C461 C462 1.396 . S
C461 C471 1.510 . S
C462 C458 1.401 . S
C462 C461 1.396 . S
C463 C458 1.499 . S
C463 H464 0.959 . S
C463 H465 0.960 . S
C463 H466 0.961 . S
H464 C463 0.959 . S
H465 C463 0.960 . S
H466 C463 0.961 . S
O467 Co442 1.967 . S
O467 C475 1.258 . S
O468 Co443 1.941 . S
O468 C475 1.266 . S
H469 C471 0.959 . S
H470 C471 0.961 . S
C471 C461 1.510 . S
C471 H469 0.959 . S
C471 H470 0.961 . S
C471 H472 0.960 . S
H472 C471 0.960 . S
H473 N453 0.862 . S
O474 Co442 1.920 . S
O474 C447 1.289 . S
C475 O467 1.258 . S
C475 O468 1.266 . S
Co476 O479 1.970 . S
Co476 N493 1.989 . S
Co476 O501 1.967 . S
Co476 O508 1.920 . S
Co477 O480 1.966 . S
Co477 N486 2.022 . S
Co477 N494 1.993 . S
Co477 O502 1.941 . S
C478 O479 1.258 . S
C478 O480 1.263 . S
O479 Co476 1.970 . S
O479 C478 1.258 . S
O480 Co477 1.966 . S
O480 C478 1.263 . S
C481 O482 1.235 . S
C481 O508 1.289 . S
O482 C481 1.235 . S
C483 C485 1.400 . S
C483 N486 1.351 . S
C483 C488 1.501 . S
C484 C485 1.387 . S
C484 N487 1.341 . S
C485 C483 1.400 . S
C485 C484 1.387 . S
N486 Co477 2.022 . S
N486 C483 1.351 . S
N486 N487 1.365 . S
N487 C484 1.341 . S
N487 N486 1.365 . S
N487 H507 0.862 . S
C488 C483 1.501 . S
C488 H489 0.961 . S
C488 H490 0.961 . S
C488 H491 0.960 . S
H489 C488 0.961 . S
H490 C488 0.961 . S
H491 C488 0.960 . S
C492 N493 1.342 . S
C492 C496 1.401 . S
C492 C497 1.499 . S
N493 Co476 1.989 . S
N493 C492 1.342 . S
N493 N494 1.388 . S
N494 Co477 1.993 . S
N494 N493 1.388 . S
N494 C495 1.346 . S
C495 N494 1.346 . S
C495 C496 1.396 . S
C495 C505 1.510 . S
C496 C492 1.401 . S
C496 C495 1.396 . S
C497 C492 1.499 . S
C497 H498 0.959 . S
C497 H499 0.960 1_545 S
C497 H500 0.961 . S
H498 C497 0.959 . S
H499 C497 0.960 1_565 S
H500 C497 0.961 . S
O501 Co476 1.967 . S
O501 C509 1.258 . S
O502 Co477 1.941 . S
O502 C509 1.266 . S
H503 C505 0.959 . S
H504 C505 0.961 . S
C505 C495 1.510 . S
C505 H503 0.959 . S
C505 H504 0.961 . S
C505 H506 0.960 . S
H506 C505 0.960 . S
H507 N487 0.862 . S
O508 Co476 1.920 . S
O508 C481 1.289 . S
C509 O501 1.258 . S
C509 O502 1.266 . S
Co510 O513 1.970 . S
Co510 N527 1.989 . S
Co510 O535 1.967 . S
Co510 O542 1.920 . S
Co511 O514 1.966 . S
Co511 N520 2.022 . S
Co511 N528 1.993 . S
Co511 O536 1.941 . S
C512 O513 1.258 . S
C512 O514 1.263 . S
O513 Co510 1.970 . S
O513 C512 1.258 . S
O514 Co511 1.966 . S
O514 C512 1.263 . S
C515 O516 1.235 . S
C515 O542 1.289 . S
O516 C515 1.235 . S
C517 C519 1.400 . S
C517 N520 1.351 . S
C517 C522 1.501 . S
C518 C519 1.387 . S
C518 N521 1.341 . S
C519 C517 1.400 . S
C519 C518 1.387 . S
N520 Co511 2.022 . S
N520 C517 1.351 . S
N520 N521 1.365 . S
N521 C518 1.341 . S
N521 N520 1.365 . S
N521 H541 0.862 . S
C522 C517 1.501 . S
C522 H523 0.961 . S
C522 H524 0.961 . S
C522 H525 0.960 . S
H523 C522 0.961 . S
H524 C522 0.961 . S
H525 C522 0.960 . S
C526 N527 1.342 . S
C526 C530 1.401 . S
C526 C531 1.499 . S
N527 Co510 1.989 . S
N527 C526 1.342 . S
N527 N528 1.388 . S
N528 Co511 1.993 . S
N528 N527 1.388 . S
N528 C529 1.346 . S
C529 N528 1.346 . S
C529 C530 1.396 . S
C529 C539 1.510 . S
C530 C526 1.401 . S
C530 C529 1.396 . S
C531 C526 1.499 . S
C531 H532 0.959 . S
C531 H533 0.960 . S
C531 H534 0.961 . S
H532 C531 0.959 . S
H533 C531 0.960 . S
H534 C531 0.961 . S
O535 Co510 1.967 . S
O535 C543 1.258 . S
O536 Co511 1.941 . S
O536 C543 1.266 . S
H537 C539 0.959 . S
H538 C539 0.961 . S
C539 C529 1.510 . S
C539 H537 0.959 . S
C539 H538 0.961 . S
C539 H540 0.960 . S
H540 C539 0.960 . S
H541 N521 0.862 . S
O542 Co510 1.920 . S
O542 C515 1.289 . S
C543 O535 1.258 . S
C543 O536 1.266 . S
Co544 O547 1.970 . S
Co544 N561 1.989 . S
Co544 O569 1.967 . S
Co544 O576 1.920 . S
Co545 O548 1.966 . S
Co545 N554 2.022 . S
Co545 N562 1.993 . S
Co545 O570 1.941 . S
C546 O547 1.258 . S
C546 O548 1.263 . S
O547 Co544 1.970 . S
O547 C546 1.258 . S
O548 Co545 1.966 . S
O548 C546 1.263 . S
C549 O550 1.235 . S
C549 O576 1.289 . S
O550 C549 1.235 . S
C551 C553 1.400 . S
C551 N554 1.351 . S
C551 C556 1.501 . S
C552 C553 1.387 . S
C552 N555 1.341 . S
C553 C551 1.400 . S
C553 C552 1.387 . S
N554 Co545 2.022 . S
N554 C551 1.351 . S
N554 N555 1.365 . S
N555 C552 1.341 . S
N555 N554 1.365 . S
N555 H575 0.862 . S
C556 C551 1.501 . S
C556 H557 0.961 . S
C556 H558 0.961 . S
C556 H559 0.960 . S
H557 C556 0.961 . S
H558 C556 0.961 . S
H559 C556 0.960 . S
C560 N561 1.342 . S
C560 C564 1.401 . S
C560 C565 1.499 . S
N561 Co544 1.989 . S
N561 C560 1.342 . S
N561 N562 1.388 . S
N562 Co545 1.993 . S
N562 N561 1.388 . S
N562 C563 1.346 . S
C563 N562 1.346 . S
C563 C564 1.396 . S
C563 C573 1.510 . S
C564 C560 1.401 . S
C564 C563 1.396 . S
C565 C560 1.499 . S
C565 H566 0.959 . S
C565 H567 0.960 . S
C565 H568 0.961 . S
H566 C565 0.959 . S
H567 C565 0.960 . S
H568 C565 0.961 . S
O569 Co544 1.967 . S
O569 C577 1.258 . S
O570 Co545 1.941 . S
O570 C577 1.266 . S
H571 C573 0.959 . S
H572 C573 0.961 . S
C573 C563 1.510 . S
C573 H571 0.959 . S
C573 H572 0.961 . S
C573 H574 0.960 . S
H574 C573 0.960 . S
H575 N555 0.862 . S
O576 Co544 1.920 . S
O576 C549 1.289 . S
C577 O569 1.258 . S
C577 O570 1.266 . S
Co578 O581 1.970 . S
Co578 N595 1.989 . S
Co578 O603 1.967 . S
Co578 O610 1.920 . S
Co579 O582 1.966 . S
Co579 N588 2.022 . S
Co579 N596 1.993 . S
Co579 O604 1.941 . S
C580 O581 1.258 . S
C580 O582 1.263 . S
O581 Co578 1.970 . S
O581 C580 1.258 . S
O582 Co579 1.966 . S
O582 C580 1.263 . S
C583 O584 1.235 . S
C583 O610 1.289 . S
O584 C583 1.235 . S
C585 C587 1.400 . S
C585 N588 1.351 . S
C585 C590 1.501 . S
C586 C587 1.387 . S
C586 N589 1.341 . S
C587 C585 1.400 . S
C587 C586 1.387 . S
N588 Co579 2.022 . S
N588 C585 1.351 . S
N588 N589 1.365 . S
N589 C586 1.341 . S
N589 N588 1.365 . S
N589 H609 0.862 . S
C590 C585 1.501 . S
C590 H591 0.961 . S
C590 H592 0.961 . S
C590 H593 0.960 . S
H591 C590 0.961 . S
H592 C590 0.961 . S
H593 C590 0.960 . S
C594 N595 1.342 . S
C594 C598 1.401 . S
C594 C599 1.499 . S
N595 Co578 1.989 . S
N595 C594 1.342 . S
N595 N596 1.388 . S
N596 Co579 1.993 . S
N596 N595 1.388 . S
N596 C597 1.346 . S
C597 N596 1.346 . S
C597 C598 1.396 . S
C597 C607 1.510 . S
C598 C594 1.401 . S
C598 C597 1.396 . S
C599 C594 1.499 . S
C599 H600 0.959 . S
C599 H601 0.960 . S
C599 H602 0.961 . S
H600 C599 0.959 . S
H601 C599 0.960 . S
H602 C599 0.961 . S
O603 Co578 1.967 . S
O603 C611 1.258 . S
O604 Co579 1.941 . S
O604 C611 1.266 . S
H605 C607 0.959 . S
H606 C607 0.961 . S
C607 C597 1.510 . S
C607 H605 0.959 . S
C607 H606 0.961 . S
C607 H608 0.960 . S
H608 C607 0.960 . S
H609 N589 0.862 . S
O610 Co578 1.920 . S
O610 C583 1.289 . S
C611 O603 1.258 . S
C611 O604 1.266 . S
Co612 O615 1.970 . S
Co612 N629 1.989 . S
Co612 O637 1.967 . S
Co612 O644 1.920 . S
Co613 O616 1.966 . S
Co613 N622 2.022 . S
Co613 N630 1.993 . S
Co613 O638 1.941 . S
C614 O615 1.258 . S
C614 O616 1.263 . S
O615 Co612 1.970 . S
O615 C614 1.258 . S
O616 Co613 1.966 . S
O616 C614 1.263 . S
C617 O618 1.235 . S
C617 O644 1.289 . S
O618 C617 1.235 . S
C619 C621 1.400 . S
C619 N622 1.351 . S
C619 C624 1.501 . S
C620 C621 1.387 . S
C620 N623 1.341 . S
C621 C619 1.400 . S
C621 C620 1.387 . S
N622 Co613 2.022 . S
N622 C619 1.351 . S
N622 N623 1.365 . S
N623 C620 1.341 . S
N623 N622 1.365 . S
N623 H643 0.862 . S
C624 C619 1.501 . S
C624 H625 0.961 . S
C624 H626 0.961 . S
C624 H627 0.960 . S
H625 C624 0.961 . S
H626 C624 0.961 . S
H627 C624 0.960 . S
C628 N629 1.342 . S
C628 C632 1.401 . S
C628 C633 1.499 . S
N629 Co612 1.989 . S
N629 C628 1.342 . S
N629 N630 1.388 . S
N630 Co613 1.993 . S
N630 N629 1.388 . S
N630 C631 1.346 . S
C631 N630 1.346 . S
C631 C632 1.396 . S
C631 C641 1.510 . S
C632 C628 1.401 . S
C632 C631 1.396 . S
C633 C628 1.499 . S
C633 H634 0.959 . S
C633 H635 0.960 . S
C633 H636 0.961 . S
H634 C633 0.959 . S
H635 C633 0.960 . S
H636 C633 0.961 . S
O637 Co612 1.967 . S
O637 C645 1.258 . S
O638 Co613 1.941 . S
O638 C645 1.266 . S
H639 C641 0.959 . S
H640 C641 0.961 . S
C641 C631 1.510 . S
C641 H639 0.959 . S
C641 H640 0.961 . S
C641 H642 0.960 . S
H642 C641 0.960 . S
H643 N623 0.862 . S
O644 Co612 1.920 . S
O644 C617 1.289 . S
C645 O637 1.258 . S
C645 O638 1.266 . S
Co646 O649 1.970 . S
Co646 N663 1.989 . S
Co646 O671 1.967 . S
Co646 O678 1.920 . S
Co647 O650 1.966 . S
Co647 N656 2.022 . S
Co647 N664 1.993 . S
Co647 O672 1.941 . S
C648 O649 1.258 . S
C648 O650 1.263 . S
O649 Co646 1.970 . S
O649 C648 1.258 . S
O650 Co647 1.966 . S
O650 C648 1.263 . S
C651 O652 1.235 . S
C651 O678 1.289 . S
O652 C651 1.235 . S
C653 C655 1.400 . S
C653 N656 1.351 . S
C653 C658 1.501 . S
C654 C655 1.387 . S
C654 N657 1.341 . S
C655 C653 1.400 . S
C655 C654 1.387 . S
N656 Co647 2.022 . S
N656 C653 1.351 . S
N656 N657 1.365 . S
N657 C654 1.341 . S
N657 N656 1.365 . S
N657 H677 0.862 . S
C658 C653 1.501 . S
C658 H659 0.961 . S
C658 H660 0.961 . S
C658 H661 0.960 . S
H659 C658 0.961 . S
H660 C658 0.961 . S
H661 C658 0.960 . S
C662 N663 1.342 . S
C662 C666 1.401 . S
C662 C667 1.499 . S
N663 Co646 1.989 . S
N663 C662 1.342 . S
N663 N664 1.388 . S
N664 Co647 1.993 . S
N664 N663 1.388 . S
N664 C665 1.346 . S
C665 N664 1.346 . S
C665 C666 1.396 . S
C665 C675 1.510 . S
C666 C662 1.401 . S
C666 C665 1.396 . S
C667 C662 1.499 . S
C667 H668 0.959 . S
C667 H669 0.960 . S
C667 H670 0.961 . S
H668 C667 0.959 . S
H669 C667 0.960 . S
H670 C667 0.961 . S
O671 Co646 1.967 . S
O671 C679 1.258 . S
O672 Co647 1.941 . S
O672 C679 1.266 . S
H673 C675 0.959 . S
H674 C675 0.961 . S
C675 C665 1.510 . S
C675 H673 0.959 . S
C675 H674 0.961 . S
C675 H676 0.960 . S
H676 C675 0.960 . S
H677 N657 0.862 . S
O678 Co646 1.920 . S
O678 C651 1.289 . S
C679 O671 1.258 . S
C679 O672 1.266 . S
Co680 O683 1.970 . S
Co680 N697 1.989 . S
Co680 O705 1.967 . S
Co680 O712 1.920 . S
Co681 O684 1.966 . S
Co681 N690 2.022 . S
Co681 N698 1.993 . S
Co681 O706 1.941 . S
C682 O683 1.258 . S
C682 O684 1.263 . S
O683 Co680 1.970 . S
O683 C682 1.258 . S
O684 Co681 1.966 . S
O684 C682 1.263 . S
C685 O686 1.235 . S
C685 O712 1.289 . S
O686 C685 1.235 . S
C687 C689 1.400 . S
C687 N690 1.351 . S
C687 C692 1.501 . S
C688 C689 1.387 . S
C688 N691 1.341 . S
C689 C687 1.400 . S
C689 C688 1.387 . S
N690 Co681 2.022 . S
N690 C687 1.351 . S
N690 N691 1.365 . S
N691 C688 1.341 . S
N691 N690 1.365 . S
N691 H711 0.862 . S
C692 C687 1.501 . S
C692 H693 0.961 . S
C692 H694 0.961 . S
C692 H695 0.960 . S
H693 C692 0.961 . S
H694 C692 0.961 . S
H695 C692 0.960 . S
C696 N697 1.342 . S
C696 C700 1.401 . S
C696 C701 1.499 . S
N697 Co680 1.989 . S
N697 C696 1.342 . S
N697 N698 1.388 . S
N698 Co681 1.993 . S
N698 N697 1.388 . S
N698 C699 1.346 . S
C699 N698 1.346 . S
C699 C700 1.396 . S
C699 C709 1.510 . S
C700 C696 1.401 . S
C700 C699 1.396 . S
C701 C696 1.499 . S
C701 H702 0.959 . S
C701 H703 0.960 . S
C701 H704 0.961 . S
H702 C701 0.959 . S
H703 C701 0.960 . S
H704 C701 0.961 . S
O705 Co680 1.967 . S
O705 C713 1.258 . S
O706 Co681 1.941 . S
O706 C713 1.266 . S
H707 C709 0.959 . S
H708 C709 0.961 . S
C709 C699 1.510 . S
C709 H707 0.959 . S
C709 H708 0.961 . S
C709 H710 0.960 . S
H710 C709 0.960 . S
H711 N691 0.862 . S
O712 Co680 1.920 . S
O712 C685 1.289 . S
C713 O705 1.258 . S
C713 O706 1.266 . S
Co714 O717 1.970 1_556 S
Co714 N731 1.989 . S
Co714 O739 1.967 . S
Co714 O746 1.920 . S
Co715 O718 1.966 . S
Co715 N724 2.022 . S
Co715 N732 1.993 . S
Co715 O740 1.941 . S
C716 O717 1.258 . S
C716 O718 1.263 1_554 S
O717 Co714 1.970 1_554 S
O717 C716 1.258 . S
O718 Co715 1.966 . S
O718 C716 1.263 1_556 S
C719 O720 1.235 . S
C719 O746 1.289 . S
O720 C719 1.235 . S
C721 C723 1.400 . S
C721 N724 1.351 . S
C721 C726 1.501 . S
C722 C723 1.387 . S
C722 N725 1.341 . S
C723 C721 1.400 . S
C723 C722 1.387 . S
N724 Co715 2.022 . S
N724 C721 1.351 . S
N724 N725 1.365 . S
N725 C722 1.341 . S
N725 N724 1.365 . S
N725 H745 0.862 . S
C726 C721 1.501 . S
C726 H727 0.961 . S
C726 H728 0.961 . S
C726 H729 0.960 1_556 S
H727 C726 0.961 . S
H728 C726 0.961 . S
H729 C726 0.960 1_554 S
C730 N731 1.342 . S
C730 C734 1.401 . S
C730 C735 1.499 . S
N731 Co714 1.989 . S
N731 C730 1.342 . S
N731 N732 1.388 . S
N732 Co715 1.993 . S
N732 N731 1.388 . S
N732 C733 1.346 . S
C733 N732 1.346 . S
C733 C734 1.396 . S
C733 C743 1.510 . S
C734 C730 1.401 . S
C734 C733 1.396 . S
C735 C730 1.499 . S
C735 H736 0.959 . S
C735 H737 0.960 1_545 S
C735 H738 0.961 . S
H736 C735 0.959 . S
H737 C735 0.960 1_565 S
H738 C735 0.961 . S
O739 Co714 1.967 . S
O739 C747 1.258 . S
O740 Co715 1.941 . S
O740 C747 1.266 . S
H741 C743 0.959 . S
H742 C743 0.961 . S
C743 C733 1.510 . S
C743 H741 0.959 . S
C743 H742 0.961 . S
C743 H744 0.960 . S
H744 C743 0.960 . S
H745 N725 0.862 . S
O746 Co714 1.920 . S
O746 C719 1.289 . S
C747 O739 1.258 . S
C747 O740 1.266 . S
Co748 O751 1.970 1_556 S
Co748 N765 1.989 . S
Co748 O773 1.967 . S
Co748 O780 1.920 . S
Co749 O752 1.966 . S
Co749 N758 2.022 . S
Co749 N766 1.993 . S
Co749 O774 1.941 . S
C750 O751 1.258 . S
C750 O752 1.263 1_554 S
O751 Co748 1.970 1_554 S
O751 C750 1.258 . S
O752 Co749 1.966 . S
O752 C750 1.263 1_556 S
C753 O754 1.235 . S
C753 O780 1.289 . S
O754 C753 1.235 . S
C755 C757 1.400 . S
C755 N758 1.351 . S
C755 C760 1.501 . S
C756 C757 1.387 . S
C756 N759 1.341 . S
C757 C755 1.400 . S
C757 C756 1.387 . S
N758 Co749 2.022 . S
N758 C755 1.351 . S
N758 N759 1.365 . S
N759 C756 1.341 . S
N759 N758 1.365 . S
N759 H779 0.862 . S
C760 C755 1.501 . S
C760 H761 0.961 . S
C760 H762 0.961 . S
C760 H763 0.960 1_556 S
H761 C760 0.961 . S
H762 C760 0.961 . S
H763 C760 0.960 1_554 S
C764 N765 1.342 . S
C764 C768 1.401 . S
C764 C769 1.499 . S
N765 Co748 1.989 . S
N765 C764 1.342 . S
N765 N766 1.388 . S
N766 Co749 1.993 . S
N766 N765 1.388 . S
N766 C767 1.346 . S
C767 N766 1.346 . S
C767 C768 1.396 . S
C767 C777 1.510 . S
C768 C764 1.401 . S
C768 C767 1.396 . S
C769 C764 1.499 . S
C769 H770 0.959 . S
C769 H771 0.960 1_655 S
C769 H772 0.961 . S
H770 C769 0.959 . S
H771 C769 0.960 1_455 S
H772 C769 0.961 . S
O773 Co748 1.967 . S
O773 C781 1.258 . S
O774 Co749 1.941 . S
O774 C781 1.266 . S
H775 C777 0.959 . S
H776 C777 0.961 . S
C777 C767 1.510 . S
C777 H775 0.959 . S
C777 H776 0.961 . S
C777 H778 0.960 . S
H778 C777 0.960 . S
H779 N759 0.862 . S
O780 Co748 1.920 . S
O780 C753 1.289 . S
C781 O773 1.258 . S
C781 O774 1.266 . S
Co782 O785 1.970 1_556 S
Co782 N799 1.989 . S
Co782 O807 1.967 . S
Co782 O814 1.920 . S
Co783 O786 1.966 . S
Co783 N792 2.022 . S
Co783 N800 1.993 . S
Co783 O808 1.941 . S
C784 O785 1.258 . S
C784 O786 1.263 1_554 S
O785 Co782 1.970 1_554 S
O785 C784 1.258 . S
O786 Co783 1.966 . S
O786 C784 1.263 1_556 S
C787 O788 1.235 . S
C787 O814 1.289 . S
O788 C787 1.235 . S
C789 C791 1.400 . S
C789 N792 1.351 . S
C789 C794 1.501 . S
C790 C791 1.387 . S
C790 N793 1.341 . S
C791 C789 1.400 . S
C791 C790 1.387 . S
N792 Co783 2.022 . S
N792 C789 1.351 . S
N792 N793 1.365 . S
N793 C790 1.341 . S
N793 N792 1.365 . S
N793 H813 0.862 . S
C794 C789 1.501 . S
C794 H795 0.961 . S
C794 H796 0.961 . S
C794 H797 0.960 1_556 S
H795 C794 0.961 . S
H796 C794 0.961 . S
H797 C794 0.960 1_554 S
C798 N799 1.342 . S
C798 C802 1.401 . S
C798 C803 1.499 . S
N799 Co782 1.989 . S
N799 C798 1.342 . S
N799 N800 1.388 . S
N800 Co783 1.993 . S
N800 N799 1.388 . S
N800 C801 1.346 . S
C801 N800 1.346 . S
C801 C802 1.396 . S
C801 C811 1.510 . S
C802 C798 1.401 . S
C802 C801 1.396 . S
C803 C798 1.499 . S
C803 H804 0.959 . S
C803 H805 0.960 . S
C803 H806 0.961 . S
H804 C803 0.959 . S
H805 C803 0.960 . S
H806 C803 0.961 . S
O807 Co782 1.967 . S
O807 C815 1.258 . S
O808 Co783 1.941 . S
O808 C815 1.266 . S
H809 C811 0.959 . S
H810 C811 0.961 . S
C811 C801 1.510 . S
C811 H809 0.959 . S
C811 H810 0.961 . S
C811 H812 0.960 . S
H812 C811 0.960 . S
H813 N793 0.862 . S
O814 Co782 1.920 . S
O814 C787 1.289 . S
C815 O807 1.258 . S
C815 O808 1.266 . S
Co816 O819 1.970 . S
Co816 N833 1.989 . S
Co816 O841 1.967 . S
Co816 O848 1.920 . S
Co817 O820 1.966 . S
Co817 N826 2.022 . S
Co817 N834 1.993 . S
Co817 O842 1.941 . S
C818 O819 1.258 . S
C818 O820 1.263 . S
O819 Co816 1.970 . S
O819 C818 1.258 . S
O820 Co817 1.966 . S
O820 C818 1.263 . S
C821 O822 1.235 . S
C821 O848 1.289 . S
O822 C821 1.235 . S
C823 C825 1.400 . S
C823 N826 1.351 . S
C823 C828 1.501 . S
C824 C825 1.387 . S
C824 N827 1.341 . S
C825 C823 1.400 . S
C825 C824 1.387 . S
N826 Co817 2.022 . S
N826 C823 1.351 . S
N826 N827 1.365 . S
N827 C824 1.341 . S
N827 N826 1.365 . S
N827 H847 0.862 . S
C828 C823 1.501 . S
C828 H829 0.961 . S
C828 H830 0.961 . S
C828 H831 0.960 . S
H829 C828 0.961 . S
H830 C828 0.961 . S
H831 C828 0.960 . S
C832 N833 1.342 . S
C832 C836 1.401 . S
C832 C837 1.499 . S
N833 Co816 1.989 . S
N833 C832 1.342 . S
N833 N834 1.388 . S
N834 Co817 1.993 . S
N834 N833 1.388 . S
N834 C835 1.346 . S
C835 N834 1.346 . S
C835 C836 1.396 . S
C835 C845 1.510 . S
C836 C832 1.401 . S
C836 C835 1.396 . S
C837 C832 1.499 . S
C837 H838 0.959 . S
C837 H839 0.960 . S
C837 H840 0.961 . S
H838 C837 0.959 . S
H839 C837 0.960 . S
H840 C837 0.961 . S
O841 Co816 1.967 . S
O841 C849 1.258 . S
O842 Co817 1.941 . S
O842 C849 1.266 . S
H843 C845 0.959 . S
H844 C845 0.961 . S
C845 C835 1.510 . S
C845 H843 0.959 . S
C845 H844 0.961 . S
C845 H846 0.960 . S
H846 C845 0.960 . S
H847 N827 0.862 . S
O848 Co816 1.920 . S
O848 C821 1.289 . S
C849 O841 1.258 . S
C849 O842 1.266 . S
Co850 O853 1.970 . S
Co850 N867 1.989 . S
Co850 O875 1.967 . S
Co850 O882 1.920 . S
Co851 O854 1.966 . S
Co851 N860 2.022 . S
Co851 N868 1.993 . S
Co851 O876 1.941 . S
C852 O853 1.258 . S
C852 O854 1.263 . S
O853 Co850 1.970 . S
O853 C852 1.258 . S
O854 Co851 1.966 . S
O854 C852 1.263 . S
C855 O856 1.235 . S
C855 O882 1.289 . S
O856 C855 1.235 . S
C857 C859 1.400 . S
C857 N860 1.351 . S
C857 C862 1.501 . S
C858 C859 1.387 . S
C858 N861 1.341 . S
C859 C857 1.400 . S
C859 C858 1.387 . S
N860 Co851 2.022 . S
N860 C857 1.351 . S
N860 N861 1.365 . S
N861 C858 1.341 . S
N861 N860 1.365 . S
N861 H881 0.862 . S
C862 C857 1.501 . S
C862 H863 0.961 . S
C862 H864 0.961 . S
C862 H865 0.960 . S
H863 C862 0.961 . S
H864 C862 0.961 . S
H865 C862 0.960 . S
C866 N867 1.342 . S
C866 C870 1.401 . S
C866 C871 1.499 . S
N867 Co850 1.989 . S
N867 C866 1.342 . S
N867 N868 1.388 . S
N868 Co851 1.993 . S
N868 N867 1.388 . S
N868 C869 1.346 . S
C869 N868 1.346 . S
C869 C870 1.396 . S
C869 C879 1.510 . S
C870 C866 1.401 . S
C870 C869 1.396 . S
C871 C866 1.499 . S
C871 H872 0.959 . S
C871 H873 0.960 . S
C871 H874 0.961 . S
H872 C871 0.959 . S
H873 C871 0.960 . S
H874 C871 0.961 . S
O875 Co850 1.967 . S
O875 C883 1.258 . S
O876 Co851 1.941 . S
O876 C883 1.266 . S
H877 C879 0.959 . S
H878 C879 0.961 . S
C879 C869 1.510 . S
C879 H877 0.959 . S
C879 H878 0.961 . S
C879 H880 0.960 . S
H880 C879 0.960 . S
H881 N861 0.862 . S
O882 Co850 1.920 . S
O882 C855 1.289 . S
C883 O875 1.258 . S
C883 O876 1.266 . S
Co884 O887 1.970 . S
Co884 N901 1.989 . S
Co884 O909 1.967 . S
Co884 O916 1.920 . S
Co885 O888 1.966 . S
Co885 N894 2.022 . S
Co885 N902 1.993 . S
Co885 O910 1.941 . S
C886 O887 1.258 . S
C886 O888 1.263 . S
O887 Co884 1.970 . S
O887 C886 1.258 . S
O888 Co885 1.966 . S
O888 C886 1.263 . S
C889 O890 1.235 . S
C889 O916 1.289 . S
O890 C889 1.235 . S
C891 C893 1.400 . S
C891 N894 1.351 . S
C891 C896 1.501 . S
C892 C893 1.387 . S
C892 N895 1.341 . S
C893 C891 1.400 . S
C893 C892 1.387 . S
N894 Co885 2.022 . S
N894 C891 1.351 . S
N894 N895 1.365 . S
N895 C892 1.341 . S
N895 N894 1.365 . S
N895 H915 0.862 . S
C896 C891 1.501 . S
C896 H897 0.961 . S
C896 H898 0.961 . S
C896 H899 0.960 . S
H897 C896 0.961 . S
H898 C896 0.961 . S
H899 C896 0.960 . S
C900 N901 1.342 . S
C900 C904 1.401 . S
C900 C905 1.499 . S
N901 Co884 1.989 . S
N901 C900 1.342 . S
N901 N902 1.388 . S
N902 Co885 1.993 . S
N902 N901 1.388 . S
N902 C903 1.346 . S
C903 N902 1.346 . S
C903 C904 1.396 . S
C903 C913 1.510 . S
C904 C900 1.401 . S
C904 C903 1.396 . S
C905 C900 1.499 . S
C905 H906 0.959 . S
C905 H907 0.960 . S
C905 H908 0.961 . S
H906 C905 0.959 . S
H907 C905 0.960 . S
H908 C905 0.961 . S
O909 Co884 1.967 . S
O909 C917 1.258 . S
O910 Co885 1.941 . S
O910 C917 1.266 . S
H911 C913 0.959 . S
H912 C913 0.961 . S
C913 C903 1.510 . S
C913 H911 0.959 . S
C913 H912 0.961 . S
C913 H914 0.960 . S
H914 C913 0.960 . S
H915 N895 0.862 . S
O916 Co884 1.920 . S
O916 C889 1.289 . S
C917 O909 1.258 . S
C917 O910 1.266 . S
Co918 O921 1.970 1_554 S
Co918 N935 1.989 . S
Co918 O943 1.967 . S
Co918 O950 1.920 . S
Co919 O922 1.966 . S
Co919 N928 2.022 . S
Co919 N936 1.993 . S
Co919 O944 1.941 . S
C920 O921 1.258 . S
C920 O922 1.263 1_556 S
O921 Co918 1.970 1_556 S
O921 C920 1.258 . S
O922 Co919 1.966 . S
O922 C920 1.263 1_554 S
C923 O924 1.235 . S
C923 O950 1.289 . S
O924 C923 1.235 . S
C925 C927 1.400 . S
C925 N928 1.351 . S
C925 C930 1.501 . S
C926 C927 1.387 . S
C926 N929 1.341 . S
C927 C925 1.400 . S
C927 C926 1.387 . S
N928 Co919 2.022 . S
N928 C925 1.351 . S
N928 N929 1.365 . S
N929 C926 1.341 . S
N929 N928 1.365 . S
N929 H949 0.862 . S
C930 C925 1.501 . S
C930 H931 0.961 . S
C930 H932 0.961 . S
C930 H933 0.960 1_554 S
H931 C930 0.961 . S
H932 C930 0.961 . S
H933 C930 0.960 1_556 S
C934 N935 1.342 . S
C934 C938 1.401 . S
C934 C939 1.499 . S
N935 Co918 1.989 . S
N935 C934 1.342 . S
N935 N936 1.388 . S
N936 Co919 1.993 . S
N936 N935 1.388 . S
N936 C937 1.346 . S
C937 N936 1.346 . S
C937 C938 1.396 . S
C937 C947 1.510 . S
C938 C934 1.401 . S
C938 C937 1.396 . S
C939 C934 1.499 . S
C939 H940 0.959 . S
C939 H941 0.960 1_565 S
C939 H942 0.961 . S
H940 C939 0.959 . S
H941 C939 0.960 1_545 S
H942 C939 0.961 . S
O943 Co918 1.967 . S
O943 C951 1.258 . S
O944 Co919 1.941 . S
O944 C951 1.266 . S
H945 C947 0.959 . S
H946 C947 0.961 . S
C947 C937 1.510 . S
C947 H945 0.959 . S
C947 H946 0.961 . S
C947 H948 0.960 . S
H948 C947 0.960 . S
H949 N929 0.862 . S
O950 Co918 1.920 . S
O950 C923 1.289 . S
C951 O943 1.258 . S
C951 O944 1.266 . S
Co952 O955 1.970 1_554 S
Co952 N969 1.989 . S
Co952 O977 1.967 . S
Co952 O984 1.920 . S
Co953 O956 1.966 . S
Co953 N962 2.022 . S
Co953 N970 1.993 . S
Co953 O978 1.941 . S
C954 O955 1.258 . S
C954 O956 1.263 1_556 S
O955 Co952 1.970 1_556 S
O955 C954 1.258 . S
O956 Co953 1.966 . S
O956 C954 1.263 1_554 S
C957 O958 1.235 . S
C957 O984 1.289 . S
O958 C957 1.235 . S
C959 C961 1.400 . S
C959 N962 1.351 . S
C959 C964 1.501 . S
C960 C961 1.387 . S
C960 N963 1.341 . S
C961 C959 1.400 . S
C961 C960 1.387 . S
N962 Co953 2.022 . S
N962 C959 1.351 . S
N962 N963 1.365 . S
N963 C960 1.341 . S
N963 N962 1.365 . S
N963 H983 0.862 . S
C964 C959 1.501 . S
C964 H965 0.961 . S
C964 H966 0.961 . S
C964 H967 0.960 1_554 S
H965 C964 0.961 . S
H966 C964 0.961 . S
H967 C964 0.960 1_556 S
C968 N969 1.342 . S
C968 C972 1.401 . S
C968 C973 1.499 . S
N969 Co952 1.989 . S
N969 C968 1.342 . S
N969 N970 1.388 . S
N970 Co953 1.993 . S
N970 N969 1.388 . S
N970 C971 1.346 . S
C971 N970 1.346 . S
C971 C972 1.396 . S
C971 C981 1.510 . S
C972 C968 1.401 . S
C972 C971 1.396 . S
C973 C968 1.499 . S
C973 H974 0.959 . S
C973 H975 0.960 1_455 S
C973 H976 0.961 . S
H974 C973 0.959 . S
H975 C973 0.960 1_655 S
H976 C973 0.961 . S
O977 Co952 1.967 . S
O977 C985 1.258 . S
O978 Co953 1.941 . S
O978 C985 1.266 . S
H979 C981 0.959 . S
H980 C981 0.961 . S
C981 C971 1.510 . S
C981 H979 0.959 . S
C981 H980 0.961 . S
C981 H982 0.960 . S
H982 C981 0.960 . S
H983 N963 0.862 . S
O984 Co952 1.920 . S
O984 C957 1.289 . S
C985 O977 1.258 . S
C985 O978 1.266 . S
Co986 O989 1.970 1_554 S
Co986 N1003 1.989 . S
Co986 O1011 1.967 . S
Co986 O1018 1.920 . S
Co987 O990 1.966 . S
Co987 N996 2.022 . S
Co987 N1004 1.993 . S
Co987 O1012 1.941 . S
C988 O989 1.258 . S
C988 O990 1.263 1_556 S
O989 Co986 1.970 1_556 S
O989 C988 1.258 . S
O990 Co987 1.966 . S
O990 C988 1.263 1_554 S
C991 O992 1.235 . S
C991 O1018 1.289 . S
O992 C991 1.235 . S
C993 C995 1.400 . S
C993 N996 1.351 . S
C993 C998 1.501 . S
C994 C995 1.387 . S
C994 N997 1.341 . S
C995 C993 1.400 . S
C995 C994 1.387 . S
N996 Co987 2.022 . S
N996 C993 1.351 . S
N996 N997 1.365 . S
N997 C994 1.341 . S
N997 N996 1.365 . S
N997 H1017 0.862 . S
C998 C993 1.501 . S
C998 H999 0.961 . S
C998 H1000 0.961 . S
C998 H1001 0.960 1_554 S
H999 C998 0.961 . S
H1000 C998 0.961 . S
H1001 C998 0.960 1_556 S
C1002 N1003 1.342 . S
C1002 C1006 1.401 . S
C1002 C1007 1.499 . S
N1003 Co986 1.989 . S
N1003 C1002 1.342 . S
N1003 N1004 1.388 . S
N1004 Co987 1.993 . S
N1004 N1003 1.388 . S
N1004 C1005 1.346 . S
C1005 N1004 1.346 . S
C1005 C1006 1.396 . S
C1005 C1015 1.510 . S
C1006 C1002 1.401 . S
C1006 C1005 1.396 . S
C1007 C1002 1.499 . S
C1007 H1008 0.959 . S
C1007 H1009 0.960 . S
C1007 H1010 0.961 . S
H1008 C1007 0.959 . S
H1009 C1007 0.960 . S
H1010 C1007 0.961 . S
O1011 Co986 1.967 . S
O1011 C1019 1.258 . S
O1012 Co987 1.941 . S
O1012 C1019 1.266 . S
H1013 C1015 0.959 . S
H1014 C1015 0.961 . S
C1015 C1005 1.510 . S
C1015 H1013 0.959 . S
C1015 H1014 0.961 . S
C1015 H1016 0.960 . S
H1016 C1015 0.960 . S
H1017 N997 0.862 . S
O1018 Co986 1.920 . S
O1018 C991 1.289 . S
C1019 O1011 1.258 . S
C1019 O1012 1.266 . S
Co1020 O1023 1.970 . S
Co1020 N1037 1.989 . S
Co1020 O1045 1.967 . S
Co1020 O1052 1.920 . S
Co1021 O1024 1.966 . S
Co1021 N1030 2.022 . S
Co1021 N1038 1.993 . S
Co1021 O1046 1.941 . S
C1022 O1023 1.258 . S
C1022 O1024 1.263 . S
O1023 Co1020 1.970 . S
O1023 C1022 1.258 . S
O1024 Co1021 1.966 . S
O1024 C1022 1.263 . S
C1025 O1026 1.235 . S
C1025 O1052 1.289 . S
O1026 C1025 1.235 . S
C1027 C1029 1.400 . S
C1027 N1030 1.351 . S
C1027 C1032 1.501 . S
C1028 C1029 1.387 . S
C1028 N1031 1.341 . S
C1029 C1027 1.400 . S
C1029 C1028 1.387 . S
N1030 Co1021 2.022 . S
N1030 C1027 1.351 . S
N1030 N1031 1.365 . S
N1031 C1028 1.341 . S
N1031 N1030 1.365 . S
N1031 H1051 0.862 . S
C1032 C1027 1.501 . S
C1032 H1033 0.961 . S
C1032 H1034 0.961 . S
C1032 H1035 0.960 . S
H1033 C1032 0.961 . S
H1034 C1032 0.961 . S
H1035 C1032 0.960 . S
C1036 N1037 1.342 . S
C1036 C1040 1.401 . S
C1036 C1041 1.499 . S
N1037 Co1020 1.989 . S
N1037 C1036 1.342 . S
N1037 N1038 1.388 . S
N1038 Co1021 1.993 . S
N1038 N1037 1.388 . S
N1038 C1039 1.346 . S
C1039 N1038 1.346 . S
C1039 C1040 1.396 . S
C1039 C1049 1.510 . S
C1040 C1036 1.401 . S
C1040 C1039 1.396 . S
C1041 C1036 1.499 . S
C1041 H1042 0.959 . S
C1041 H1043 0.960 1_455 S
C1041 H1044 0.961 . S
H1042 C1041 0.959 . S
H1043 C1041 0.960 1_655 S
H1044 C1041 0.961 . S
O1045 Co1020 1.967 . S
O1045 C1053 1.258 . S
O1046 Co1021 1.941 . S
O1046 C1053 1.266 . S
H1047 C1049 0.959 . S
H1048 C1049 0.961 . S
C1049 C1039 1.510 . S
C1049 H1047 0.959 . S
C1049 H1048 0.961 . S
C1049 H1050 0.960 . S
H1050 C1049 0.960 . S
H1051 N1031 0.862 . S
O1052 Co1020 1.920 . S
O1052 C1025 1.289 . S
C1053 O1045 1.258 . S
C1053 O1046 1.266 . S
Co1054 O1057 1.970 . S
Co1054 N1071 1.989 . S
Co1054 O1079 1.967 . S
Co1054 O1086 1.920 . S
Co1055 O1058 1.966 . S
Co1055 N1064 2.022 . S
Co1055 N1072 1.993 . S
Co1055 O1080 1.941 . S
C1056 O1057 1.258 . S
C1056 O1058 1.263 . S
O1057 Co1054 1.970 . S
O1057 C1056 1.258 . S
O1058 Co1055 1.966 . S
O1058 C1056 1.263 . S
C1059 O1060 1.235 . S
C1059 O1086 1.289 . S
O1060 C1059 1.235 . S
C1061 C1063 1.400 . S
C1061 N1064 1.351 . S
C1061 C1066 1.501 . S
C1062 C1063 1.387 . S
C1062 N1065 1.341 . S
C1063 C1061 1.400 . S
C1063 C1062 1.387 . S
N1064 Co1055 2.022 . S
N1064 C1061 1.351 . S
N1064 N1065 1.365 . S
N1065 C1062 1.341 . S
N1065 N1064 1.365 . S
N1065 H1085 0.862 . S
C1066 C1061 1.501 . S
C1066 H1067 0.961 . S
C1066 H1068 0.961 . S
C1066 H1069 0.960 . S
H1067 C1066 0.961 . S
H1068 C1066 0.961 . S
H1069 C1066 0.960 . S
C1070 N1071 1.342 . S
C1070 C1074 1.401 . S
C1070 C1075 1.499 . S
N1071 Co1054 1.989 . S
N1071 C1070 1.342 . S
N1071 N1072 1.388 . S
N1072 Co1055 1.993 . S
N1072 N1071 1.388 . S
N1072 C1073 1.346 . S
C1073 N1072 1.346 . S
C1073 C1074 1.396 . S
C1073 C1083 1.510 . S
C1074 C1070 1.401 . S
C1074 C1073 1.396 . S
C1075 C1070 1.499 . S
C1075 H1076 0.959 . S
C1075 H1077 0.960 . S
C1075 H1078 0.961 . S
H1076 C1075 0.959 . S
H1077 C1075 0.960 . S
H1078 C1075 0.961 . S
O1079 Co1054 1.967 . S
O1079 C1087 1.258 . S
O1080 Co1055 1.941 . S
O1080 C1087 1.266 . S
H1081 C1083 0.959 . S
H1082 C1083 0.961 . S
C1083 C1073 1.510 . S
C1083 H1081 0.959 . S
C1083 H1082 0.961 . S
C1083 H1084 0.960 . S
H1084 C1083 0.960 . S
H1085 N1065 0.862 . S
O1086 Co1054 1.920 . S
O1086 C1059 1.289 . S
C1087 O1079 1.258 . S
C1087 O1080 1.266 . S
Co1088 O1091 1.970 . S
Co1088 N1105 1.989 . S
Co1088 O1113 1.967 . S
Co1088 O1120 1.920 . S
Co1089 O1092 1.966 . S
Co1089 N1098 2.022 . S
Co1089 N1106 1.993 . S
Co1089 O1114 1.941 . S
C1090 O1091 1.258 . S
C1090 O1092 1.263 . S
O1091 Co1088 1.970 . S
O1091 C1090 1.258 . S
O1092 Co1089 1.966 . S
O1092 C1090 1.263 . S
C1093 O1094 1.235 . S
C1093 O1120 1.289 . S
O1094 C1093 1.235 . S
C1095 C1097 1.400 . S
C1095 N1098 1.351 . S
C1095 C1100 1.501 . S
C1096 C1097 1.387 . S
C1096 N1099 1.341 . S
C1097 C1095 1.400 . S
C1097 C1096 1.387 . S
N1098 Co1089 2.022 . S
N1098 C1095 1.351 . S
N1098 N1099 1.365 . S
N1099 C1096 1.341 . S
N1099 N1098 1.365 . S
N1099 H1119 0.862 . S
C1100 C1095 1.501 . S
C1100 H1101 0.961 . S
C1100 H1102 0.961 . S
C1100 H1103 0.960 . S
H1101 C1100 0.961 . S
H1102 C1100 0.961 . S
H1103 C1100 0.960 . S
C1104 N1105 1.342 . S
C1104 C1108 1.401 . S
C1104 C1109 1.499 . S
N1105 Co1088 1.989 . S
N1105 C1104 1.342 . S
N1105 N1106 1.388 . S
N1106 Co1089 1.993 . S
N1106 N1105 1.388 . S
N1106 C1107 1.346 . S
C1107 N1106 1.346 . S
C1107 C1108 1.396 . S
C1107 C1117 1.510 . S
C1108 C1104 1.401 . S
C1108 C1107 1.396 . S
C1109 C1104 1.499 . S
C1109 H1110 0.959 . S
C1109 H1111 0.960 1_565 S
C1109 H1112 0.961 . S
H1110 C1109 0.959 . S
H1111 C1109 0.960 1_545 S
H1112 C1109 0.961 . S
O1113 Co1088 1.967 . S
O1113 C1121 1.258 . S
O1114 Co1089 1.941 . S
O1114 C1121 1.266 . S
H1115 C1117 0.959 . S
H1116 C1117 0.961 . S
C1117 C1107 1.510 . S
C1117 H1115 0.959 . S
C1117 H1116 0.961 . S
C1117 H1118 0.960 . S
H1118 C1117 0.960 . S
H1119 N1099 0.862 . S
O1120 Co1088 1.920 . S
O1120 C1093 1.289 . S
C1121 O1113 1.258 . S
C1121 O1114 1.266 . S
Co1122 O1125 1.970 . S
Co1122 N1139 1.989 . S
Co1122 O1147 1.967 . S
Co1122 O1154 1.920 . S
Co1123 O1126 1.966 . S
Co1123 N1132 2.022 . S
Co1123 N1140 1.993 . S
Co1123 O1148 1.941 . S
C1124 O1125 1.258 . S
C1124 O1126 1.263 . S
O1125 Co1122 1.970 . S
O1125 C1124 1.258 . S
O1126 Co1123 1.966 . S
O1126 C1124 1.263 . S
C1127 O1128 1.235 . S
C1127 O1154 1.289 . S
O1128 C1127 1.235 . S
C1129 C1131 1.400 . S
C1129 N1132 1.351 . S
C1129 C1134 1.501 . S
C1130 C1131 1.387 . S
C1130 N1133 1.341 . S
C1131 C1129 1.400 . S
C1131 C1130 1.387 . S
N1132 Co1123 2.022 . S
N1132 C1129 1.351 . S
N1132 N1133 1.365 . S
N1133 C1130 1.341 . S
N1133 N1132 1.365 . S
N1133 H1153 0.862 . S
C1134 C1129 1.501 . S
C1134 H1135 0.961 . S
C1134 H1136 0.961 . S
C1134 H1137 0.960 . S
H1135 C1134 0.961 . S
H1136 C1134 0.961 . S
H1137 C1134 0.960 . S
C1138 N1139 1.342 . S
C1138 C1142 1.401 . S
C1138 C1143 1.499 . S
N1139 Co1122 1.989 . S
N1139 C1138 1.342 . S
N1139 N1140 1.388 . S
N1140 Co1123 1.993 . S
N1140 N1139 1.388 . S
N1140 C1141 1.346 . S
C1141 N1140 1.346 . S
C1141 C1142 1.396 . S
C1141 C1151 1.510 . S
C1142 C1138 1.401 . S
C1142 C1141 1.396 . S
C1143 C1138 1.499 . S
C1143 H1144 0.959 . S
C1143 H1145 0.960 . S
C1143 H1146 0.961 . S
H1144 C1143 0.959 . S
H1145 C1143 0.960 . S
H1146 C1143 0.961 . S
O1147 Co1122 1.967 . S
O1147 C1155 1.258 . S
O1148 Co1123 1.941 . S
O1148 C1155 1.266 . S
H1149 C1151 0.959 . S
H1150 C1151 0.961 . S
C1151 C1141 1.510 . S
C1151 H1149 0.959 . S
C1151 H1150 0.961 . S
C1151 H1152 0.960 . S
H1152 C1151 0.960 . S
H1153 N1133 0.862 . S
O1154 Co1122 1.920 . S
O1154 C1127 1.289 . S
C1155 O1147 1.258 . S
C1155 O1148 1.266 . S
Co1156 O1159 1.970 . S
Co1156 N1173 1.989 . S
Co1156 O1181 1.967 . S
Co1156 O1188 1.920 . S
Co1157 O1160 1.966 . S
Co1157 N1166 2.022 . S
Co1157 N1174 1.993 . S
Co1157 O1182 1.941 . S
C1158 O1159 1.258 . S
C1158 O1160 1.263 . S
O1159 Co1156 1.970 . S
O1159 C1158 1.258 . S
O1160 Co1157 1.966 . S
O1160 C1158 1.263 . S
C1161 O1162 1.235 . S
C1161 O1188 1.289 . S
O1162 C1161 1.235 . S
C1163 C1165 1.400 . S
C1163 N1166 1.351 . S
C1163 C1168 1.501 . S
C1164 C1165 1.387 . S
C1164 N1167 1.341 . S
C1165 C1163 1.400 . S
C1165 C1164 1.387 . S
N1166 Co1157 2.022 . S
N1166 C1163 1.351 . S
N1166 N1167 1.365 . S
N1167 C1164 1.341 . S
N1167 N1166 1.365 . S
N1167 H1187 0.862 . S
C1168 C1163 1.501 . S
C1168 H1169 0.961 . S
C1168 H1170 0.961 . S
C1168 H1171 0.960 . S
H1169 C1168 0.961 . S
H1170 C1168 0.961 . S
H1171 C1168 0.960 . S
C1172 N1173 1.342 . S
C1172 C1176 1.401 . S
C1172 C1177 1.499 . S
N1173 Co1156 1.989 . S
N1173 C1172 1.342 . S
N1173 N1174 1.388 . S
N1174 Co1157 1.993 . S
N1174 N1173 1.388 . S
N1174 C1175 1.346 . S
C1175 N1174 1.346 . S
C1175 C1176 1.396 . S
C1175 C1185 1.510 . S
C1176 C1172 1.401 . S
C1176 C1175 1.396 . S
C1177 C1172 1.499 . S
C1177 H1178 0.959 . S
C1177 H1179 0.960 . S
C1177 H1180 0.961 . S
H1178 C1177 0.959 . S
H1179 C1177 0.960 . S
H1180 C1177 0.961 . S
O1181 Co1156 1.967 . S
O1181 C1189 1.258 . S
O1182 Co1157 1.941 . S
O1182 C1189 1.266 . S
H1183 C1185 0.959 . S
H1184 C1185 0.961 . S
C1185 C1175 1.510 . S
C1185 H1183 0.959 . S
C1185 H1184 0.961 . S
C1185 H1186 0.960 . S
H1186 C1185 0.960 . S
H1187 N1167 0.862 . S
O1188 Co1156 1.920 . S
O1188 C1161 1.289 . S
C1189 O1181 1.258 . S
C1189 O1182 1.266 . S
Co1190 O1193 1.970 . S
Co1190 N1207 1.989 . S
Co1190 O1215 1.967 . S
Co1190 O1222 1.920 . S
Co1191 O1194 1.966 . S
Co1191 N1200 2.022 . S
Co1191 N1208 1.993 . S
Co1191 O1216 1.941 . S
C1192 O1193 1.258 . S
C1192 O1194 1.263 . S
O1193 Co1190 1.970 . S
O1193 C1192 1.258 . S
O1194 Co1191 1.966 . S
O1194 C1192 1.263 . S
C1195 O1196 1.235 . S
C1195 O1222 1.289 . S
O1196 C1195 1.235 . S
C1197 C1199 1.400 . S
C1197 N1200 1.351 . S
C1197 C1202 1.501 . S
C1198 C1199 1.387 . S
C1198 N1201 1.341 . S
C1199 C1197 1.400 . S
C1199 C1198 1.387 . S
N1200 Co1191 2.022 . S
N1200 C1197 1.351 . S
N1200 N1201 1.365 . S
N1201 C1198 1.341 . S
N1201 N1200 1.365 . S
N1201 H1221 0.862 . S
C1202 C1197 1.501 . S
C1202 H1203 0.961 . S
C1202 H1204 0.961 . S
C1202 H1205 0.960 . S
H1203 C1202 0.961 . S
H1204 C1202 0.961 . S
H1205 C1202 0.960 . S
C1206 N1207 1.342 . S
C1206 C1210 1.401 . S
C1206 C1211 1.499 . S
N1207 Co1190 1.989 . S
N1207 C1206 1.342 . S
N1207 N1208 1.388 . S
N1208 Co1191 1.993 . S
N1208 N1207 1.388 . S
N1208 C1209 1.346 . S
C1209 N1208 1.346 . S
C1209 C1210 1.396 . S
C1209 C1219 1.510 . S
C1210 C1206 1.401 . S
C1210 C1209 1.396 . S
C1211 C1206 1.499 . S
C1211 H1212 0.959 . S
C1211 H1213 0.960 . S
C1211 H1214 0.961 . S
H1212 C1211 0.959 . S
H1213 C1211 0.960 . S
H1214 C1211 0.961 . S
O1215 Co1190 1.967 . S
O1215 C1223 1.258 . S
O1216 Co1191 1.941 . S
O1216 C1223 1.266 . S
H1217 C1219 0.959 . S
H1218 C1219 0.961 . S
C1219 C1209 1.510 . S
C1219 H1217 0.959 . S
C1219 H1218 0.961 . S
C1219 H1220 0.960 . S
H1220 C1219 0.960 . S
H1221 N1201 0.862 . S
O1222 Co1190 1.920 . S
O1222 C1195 1.289 . S
C1223 O1215 1.258 . S
C1223 O1216 1.266 . S
C271 C9 1.377 1_556 S
C43 C305 1.377 1_554 S
C237 C77 1.377 1_556 S
C407 C111 1.377 . S
C339 C145 1.377 . S
C179 C373 1.377 . S
C213 C67 1.377 1_556 S
C247 C101 1.377 1_556 S
C281 C33 1.377 1_556 S
C203 C315 1.377 . S
C135 C349 1.377 . S
C383 C169 1.377 . S
C679 C417 1.377 . S
C713 C451 1.377 . S
C645 C485 1.377 . S
C815 C519 1.377 . S
C747 C553 1.377 . S
C781 C587 1.377 . S
C621 C475 1.377 . S
C655 C509 1.377 . S
C441 C689 1.377 . S
C723 C611 1.377 . S
C757 C543 1.377 . S
C791 C577 1.377 . S
C1087 C825 1.377 . S
C1121 C859 1.377 . S
C893 C1053 1.377 . S
C927 C1223 1.377 . S
C961 C1155 1.377 . S
C995 C1189 1.377 . S
C883 C1029 1.377 . S
C917 C1063 1.377 . S
C1097 C849 1.377 . S
C1019 C1131 1.377 . S
C951 C1165 1.377 . S
C1199 C985 1.377 . S
C2 C104 2.038 . S
C36 C138 2.039 1_545 S
C70 C172 2.039 1_655 S
C308 C206 2.038 . S
C342 C240 2.039 1_545 S
C376 C274 2.039 1_655 S
C410 C512 2.038 . S
C444 C546 2.039 . S
C580 C478 2.039 . S
C614 C716 2.038 . S
C750 C648 2.039 . S
C784 C682 2.039 . S
C920 C818 2.038 . S
C954 C852 2.039 . S
C988 C886 2.039 . S
C1124 C1022 2.038 . S
C1158 C1056 2.039 . S
C1090 C1192 2.039 . S
C20 C564 2.363 . S
C598 C54 2.363 . S
C88 C530 2.362 . S
C904 C122 2.363 . S
C156 C836 2.362 . S
C870 C190 2.363 . S
C1176 C224 2.363 . S
C258 C1210 2.363 . S
C1142 C292 2.362 . S
C326 C700 2.363 . S
C360 C632 2.362 . S
C666 C394 2.363 . S
C972 C428 2.362 1_455 S
C1006 C462 2.363 . S
C496 C938 2.362 1_545 S
C734 C1108 2.362 1_545 S
C768 C1040 2.362 1_655 S
C1074 C802 2.363 . S
C991 C5 1.409 . S
C923 C39 1.409 . S
C957 C73 1.409 . S
C107 C447 1.409 . S
C141 C481 1.409 . S
C413 C175 1.409 . S
C209 C787 1.409 . S
C719 C243 1.409 . S
C277 C753 1.409 . S
C311 C1059 1.409 . S
C1093 C345 1.409 . S
C379 C1025 1.409 . S
C855 C515 1.409 1_455 S
C549 C889 1.409 . S
C583 C821 1.409 1_545 S
C617 C1195 1.409 1_545 S
C1127 C651 1.409 1_455 S
C1161 C685 1.409 . S
