# Generated by pormake.
# Topology uot, (4)-cn, num edge types: 1
# Building blocks:
#     Node 0, Type 0, BuildingBlock: AZAVOO_clean_sbu_0, # of connection points: 4
#     Node 1, Type 0, BuildingBlock: AZAVOO_clean_sbu_0, # of connection points: 4
#     Node 2, Type 0, BuildingBlock: AZAVOO_clean_sbu_0, # of connection points: 4
#     Node 3, Type 0, BuildingBlock: AZAVOO_clean_sbu_0, # of connection points: 4
#     Node 4, Type 0, BuildingBlock: AZAVOO_clean_sbu_0, # of connection points: 4
#     Node 5, Type 0, BuildingBlock: AZAVOO_clean_sbu_0, # of connection points: 4
#     Node 6, Type 0, BuildingBlock: AZAVOO_clean_sbu_0, # of connection points: 4
#     Node 7, Type 0, BuildingBlock: AZAVOO_clean_sbu_0, # of connection points: 4
#     Node 8, Type 0, BuildingBlock: AZAVOO_clean_sbu_0, # of connection points: 4
#     Node 9, Type 0, BuildingBlock: AZAVOO_clean_sbu_0, # of connection points: 4
#     Node 10, Type 0, BuildingBlock: AZAVOO_clean_sbu_0, # of connection points: 4
#     Node 11, Type 0, BuildingBlock: AZAVOO_clean_sbu_0, # of connection points: 4
#     Node 12, Type 0, BuildingBlock: AZAVOO_clean_sbu_0, # of connection points: 4
#     Node 13, Type 0, BuildingBlock: AZAVOO_clean_sbu_0, # of connection points: 4
#     Node 14, Type 0, BuildingBlock: AZAVOO_clean_sbu_0, # of connection points: 4
#     Node 15, Type 0, BuildingBlock: AZAVOO_clean_sbu_0, # of connection points: 4
#     Edge 16, Type (0, 0), BuildingBlock: EYOCIG_clean_linker_4, # of connection points: 2
#     Edge 17, Type (0, 0), BuildingBlock: EYOCIG_clean_linker_4, # of connection points: 2
#     Edge 18, Type (0, 0), BuildingBlock: EYOCIG_clean_linker_4, # of connection points: 2
#     Edge 19, Type (0, 0), BuildingBlock: EYOCIG_clean_linker_4, # of connection points: 2
#     Edge 20, Type (0, 0), BuildingBlock: EYOCIG_clean_linker_4, # of connection points: 2
#     Edge 21, Type (0, 0), BuildingBlock: EYOCIG_clean_linker_4, # of connection points: 2
#     Edge 22, Type (0, 0), BuildingBlock: EYOCIG_clean_linker_4, # of connection points: 2
#     Edge 23, Type (0, 0), BuildingBlock: EYOCIG_clean_linker_4, # of connection points: 2
#     Edge 24, Type (0, 0), BuildingBlock: EYOCIG_clean_linker_4, # of connection points: 2
#     Edge 25, Type (0, 0), BuildingBlock: EYOCIG_clean_linker_4, # of connection points: 2
#     Edge 26, Type (0, 0), BuildingBlock: EYOCIG_clean_linker_4, # of connection points: 2
#     Edge 27, Type (0, 0), BuildingBlock: EYOCIG_clean_linker_4, # of connection points: 2
#     Edge 28, Type (0, 0), BuildingBlock: EYOCIG_clean_linker_4, # of connection points: 2
#     Edge 29, Type (0, 0), BuildingBlock: EYOCIG_clean_linker_4, # of connection points: 2
#     Edge 30, Type (0, 0), BuildingBlock: EYOCIG_clean_linker_4, # of connection points: 2
#     Edge 31, Type (0, 0), BuildingBlock: EYOCIG_clean_linker_4, # of connection points: 2
#     Edge 32, Type (0, 0), BuildingBlock: EYOCIG_clean_linker_4, # of connection points: 2
#     Edge 33, Type (0, 0), BuildingBlock: EYOCIG_clean_linker_4, # of connection points: 2
#     Edge 34, Type (0, 0), BuildingBlock: EYOCIG_clean_linker_4, # of connection points: 2
#     Edge 35, Type (0, 0), BuildingBlock: EYOCIG_clean_linker_4, # of connection points: 2
#     Edge 36, Type (0, 0), BuildingBlock: EYOCIG_clean_linker_4, # of connection points: 2
#     Edge 37, Type (0, 0), BuildingBlock: EYOCIG_clean_linker_4, # of connection points: 2
#     Edge 38, Type (0, 0), BuildingBlock: EYOCIG_clean_linker_4, # of connection points: 2
#     Edge 39, Type (0, 0), BuildingBlock: EYOCIG_clean_linker_4, # of connection points: 2
#     Edge 40, Type (0, 0), BuildingBlock: EYOCIG_clean_linker_4, # of connection points: 2
#     Edge 41, Type (0, 0), BuildingBlock: EYOCIG_clean_linker_4, # of connection points: 2
#     Edge 42, Type (0, 0), BuildingBlock: EYOCIG_clean_linker_4, # of connection points: 2
#     Edge 43, Type (0, 0), BuildingBlock: EYOCIG_clean_linker_4, # of connection points: 2
#     Edge 44, Type (0, 0), BuildingBlock: EYOCIG_clean_linker_4, # of connection points: 2
#     Edge 45, Type (0, 0), BuildingBlock: EYOCIG_clean_linker_4, # of connection points: 2
#     Edge 46, Type (0, 0), BuildingBlock: EYOCIG_clean_linker_4, # of connection points: 2
#     Edge 47, Type (0, 0), BuildingBlock: EYOCIG_clean_linker_4, # of connection points: 2
# Relax obj value: 0.217
# Max RMSD: 0.323
# Mean RMSD: 0.232
data_MOF--net-uot--node1-AZAVOO_clean_sbu_0--edge1-EYOCIG_clean_linker_4
_symmetry_space_group_name_H-M    P1
_symmetry_Int_Tables_number       1
_symmetry_cell_setting            triclinic
loop_
_symmetry_equiv_pos_as_xyz
'x, y, z'
_cell_length_a     39.753816
_cell_length_b     27.768531
_cell_length_c     32.670411
_cell_angle_alpha  90.015687
_cell_angle_beta   89.969992
_cell_angle_gamma 90.016388
loop_
_atom_site_label
_atom_site_type_symbol
_atom_site_fract_x
_atom_site_fract_y
_atom_site_fract_z
_atom_type_partial_charge
Mg0 Mg 0.14388 0.41289 0.32778 0.0
O1 O 0.1332 0.48175 0.29136 0.0
O2 O 0.16815 0.53882 0.31465 0.0
Mg3 Mg 0.19894 0.50735 0.36752 0.0
C4 C 0.14517 0.52435 0.29037 0.0
C5 C 0.09723 0.33682 0.30867 0.0
O6 O 0.10511 0.33399 0.34757 0.0
O7 O 0.19204 0.4013 0.29172 0.0
O8 O 0.22488 0.45605 0.32275 0.0
O9 O 0.1067 0.4327 0.37543 0.0
O10 O 0.16084 0.45176 0.37755 0.0
C11 C 0.22042 0.42167 0.29742 0.0
C12 C 0.13151 0.45318 0.39404 0.0
O13 O 0.11157 0.36794 0.28615 0.0
Mg14 Mg 0.43645 0.69222 0.66923 0.0
O15 O 0.41113 0.76474 0.682 0.0
O16 O 0.45 0.82271 0.67814 0.0
Mg17 Mg 0.50047 0.78765 0.66243 0.0
C18 C 0.41992 0.80873 0.68435 0.0
C19 C 0.37711 0.63045 0.69526 0.0
O20 O 0.40052 0.61547 0.72047 0.0
O21 O 0.43977 0.707 0.60048 0.0
O22 O 0.48237 0.76015 0.60086 0.0
O23 O 0.44997 0.68777 0.73557 0.0
O24 O 0.48244 0.71918 0.68725 0.0
C25 C 0.46151 0.7332 0.58215 0.0
C26 C 0.47702 0.7105 0.72513 0.0
O27 O 0.38437 0.65994 0.66694 0.0
Mg28 Mg 0.83557 0.58141 0.32736 0.0
O29 O 0.84617 0.51235 0.29112 0.0
O30 O 0.81101 0.45553 0.31444 0.0
Mg31 Mg 0.7801 0.48739 0.36708 0.0
C32 C 0.8341 0.4698 0.2902 0.0
C33 C 0.8824 0.6572 0.30862 0.0
O34 O 0.87408 0.66014 0.34739 0.0
O35 O 0.7876 0.59311 0.291 0.0
O36 O 0.75453 0.5386 0.32199 0.0
O37 O 0.87251 0.56154 0.37516 0.0
O38 O 0.81832 0.54276 0.37712 0.0
C39 C 0.75917 0.57284 0.29658 0.0
C40 C 0.8476 0.54121 0.39369 0.0
O41 O 0.86824 0.6261 0.28591 0.0
Mg42 Mg 0.54319 0.30237 0.66933 0.0
O43 O 0.56864 0.22992 0.68196 0.0
O44 O 0.52981 0.17187 0.6784 0.0
Mg45 Mg 0.47926 0.20679 0.66295 0.0
C46 C 0.55991 0.18591 0.6844 0.0
C47 C 0.60257 0.36425 0.69506 0.0
O48 O 0.5792 0.37921 0.72038 0.0
O49 O 0.53961 0.28751 0.60059 0.0
O50 O 0.49711 0.23419 0.60123 0.0
O51 O 0.52988 0.30681 0.73578 0.0
O52 O 0.49729 0.27532 0.68766 0.0
C53 C 0.51787 0.26119 0.58239 0.0
C54 C 0.50282 0.28402 0.7255 0.0
O55 O 0.59526 0.33476 0.66675 0.0
Mg56 Mg 0.14421 0.58148 0.64842 0.0
O57 O 0.1336 0.51254 0.68484 0.0
O58 O 0.16866 0.45562 0.6615 0.0
Mg59 Mg 0.19951 0.48728 0.60872 0.0
C60 C 0.14563 0.46997 0.68578 0.0
C61 C 0.0976 0.65763 0.66737 0.0
O62 O 0.10554 0.66031 0.62847 0.0
O63 O 0.19227 0.59326 0.68456 0.0
O64 O 0.22526 0.53861 0.65364 0.0
O65 O 0.1071 0.5615 0.60082 0.0
O66 O 0.16126 0.5426 0.59867 0.0
C67 C 0.22068 0.57296 0.67897 0.0
C68 C 0.13193 0.54103 0.58222 0.0
O69 O 0.11182 0.62648 0.68996 0.0
Mg70 Mg 0.5437 0.69265 0.30608 0.0
O71 O 0.56928 0.76529 0.29465 0.0
O72 O 0.53032 0.82318 0.29785 0.0
Mg73 Mg 0.47964 0.78803 0.31234 0.0
C74 C 0.5605 0.80928 0.29231 0.0
C75 C 0.60278 0.63027 0.2809 0.0
O76 O 0.57928 0.61519 0.25583 0.0
O77 O 0.53933 0.70649 0.37491 0.0
O78 O 0.49694 0.75996 0.37402 0.0
O79 O 0.53135 0.68934 0.23935 0.0
O80 O 0.49807 0.71996 0.28724 0.0
C81 C 0.51744 0.73272 0.39297 0.0
C82 C 0.50418 0.712 0.2494 0.0
O83 O 0.59565 0.66009 0.30903 0.0
Mg84 Mg 0.83549 0.41282 0.64807 0.0
O85 O 0.84642 0.48172 0.6844 0.0
O86 O 0.81144 0.53884 0.66133 0.0
Mg87 Mg 0.78031 0.50732 0.60874 0.0
C88 C 0.83453 0.52436 0.68543 0.0
C89 C 0.8823 0.33681 0.66678 0.0
O90 O 0.87433 0.33408 0.6279 0.0
O91 O 0.78749 0.40127 0.6845 0.0
O92 O 0.75456 0.45605 0.65371 0.0
O93 O 0.87245 0.43261 0.60021 0.0
O94 O 0.81832 0.45172 0.59843 0.0
C95 C 0.75911 0.42168 0.679 0.0
C96 C 0.84759 0.45314 0.58178 0.0
O97 O 0.86799 0.36783 0.68943 0.0
Mg98 Mg 0.43653 0.30205 0.30595 0.0
O99 O 0.41152 0.2291 0.29403 0.0
O100 O 0.45089 0.17176 0.29689 0.0
Mg101 Mg 0.50126 0.2076 0.3117 0.0
C102 C 0.42061 0.18526 0.29139 0.0
C103 C 0.37699 0.36394 0.28144 0.0
O104 O 0.40037 0.37966 0.25646 0.0
O105 O 0.44093 0.28772 0.37469 0.0
O106 O 0.48365 0.23482 0.37359 0.0
O107 O 0.44886 0.30602 0.23924 0.0
O108 O 0.48236 0.27555 0.28691 0.0
C109 C 0.46292 0.26162 0.39266 0.0
C110 C 0.47616 0.2836 0.24911 0.0
O111 O 0.38434 0.3338 0.30922 0.0
Mg112 Mg 0.64417 0.91362 0.82779 0.0
O113 O 0.63376 0.98258 0.79141 0.0
O114 O 0.66851 0.03962 0.81521 0.0
Mg115 Mg 0.69894 0.00799 0.86832 0.0
C116 C 0.64572 0.0252 0.79065 0.0
C117 C 0.5977 0.83756 0.80807 0.0
O118 O 0.60519 0.83485 0.84709 0.0
O119 O 0.69258 0.90222 0.79219 0.0
O120 O 0.72519 0.95695 0.82361 0.0
O121 O 0.60665 0.93332 0.8751 0.0
O122 O 0.66077 0.95236 0.87778 0.0
C123 C 0.7209 0.92265 0.79816 0.0
C124 C 0.63134 0.95374 0.89399 0.0
O125 O 0.6122 0.86869 0.78572 0.0
Mg126 Mg 0.93627 0.19167 0.16958 0.0
O127 O 0.911 0.26437 0.18194 0.0
O128 O 0.95006 0.32211 0.17835 0.0
Mg129 Mg 0.00051 0.28675 0.163 0.0
C130 C 0.9199 0.30832 0.18434 0.0
C131 C 0.87715 0.12928 0.19494 0.0
O132 O 0.90075 0.11368 0.21963 0.0
O133 O 0.94 0.20607 0.10078 0.0
O134 O 0.98262 0.25919 0.10133 0.0
O135 O 0.94926 0.18753 0.23607 0.0
O136 O 0.98217 0.21855 0.18799 0.0
C137 C 0.96183 0.23221 0.08253 0.0
C138 C 0.97641 0.21016 0.22585 0.0
O139 O 0.88421 0.15944 0.16705 0.0
Mg140 Mg 0.33537 0.08118 0.82778 0.0
O141 O 0.34589 0.01224 0.79137 0.0
O142 O 0.31118 0.9551 0.81514 0.0
Mg143 Mg 0.28056 0.9867 0.86813 0.0
C144 C 0.334 0.96958 0.79061 0.0
C145 C 0.382 0.15716 0.80832 0.0
O146 O 0.37447 0.15977 0.84734 0.0
O147 O 0.28704 0.09252 0.79207 0.0
O148 O 0.25442 0.03763 0.82329 0.0
O149 O 0.37283 0.06143 0.87504 0.0
O150 O 0.31872 0.0423 0.8777 0.0
C151 C 0.25874 0.07195 0.79787 0.0
C152 C 0.34816 0.04085 0.89385 0.0
O153 O 0.36744 0.12619 0.78586 0.0
Mg154 Mg 0.04311 0.8025 0.17021 0.0
O155 O 0.06835 0.72969 0.18222 0.0
O156 O 0.02909 0.67215 0.1793 0.0
Mg157 Mg 0.97861 0.70768 0.16454 0.0
C158 C 0.05934 0.68579 0.18483 0.0
C159 C 0.10229 0.86539 0.19442 0.0
O160 O 0.07874 0.88128 0.21909 0.0
O161 O 0.03875 0.78798 0.10146 0.0
O162 O -0.00389 0.73489 0.1026 0.0
O163 O 0.0307 0.80667 0.2369 0.0
O164 O -0.00265 0.77579 0.18923 0.0
C165 C 0.01679 0.76178 0.08351 0.0
C166 C 0.00345 0.7841 0.22702 0.0
O167 O 0.09518 0.83471 0.16695 0.0
Mg168 Mg 0.6442 0.08133 0.14851 0.0
O169 O 0.63393 0.01245 0.18502 0.0
O170 O 0.66903 0.95561 0.16163 0.0
Mg171 Mg 0.69959 0.98733 0.10865 0.0
C172 C 0.64608 0.96997 0.18602 0.0
C173 C 0.59711 0.15669 0.16734 0.0
O174 O 0.60515 0.15941 0.12847 0.0
O175 O 0.69228 0.09326 0.1846 0.0
O176 O 0.72526 0.03861 0.15364 0.0
O177 O 0.60705 0.06111 0.10107 0.0
O178 O 0.66125 0.04255 0.09868 0.0
C179 C 0.72068 0.07292 0.17901 0.0
C180 C 0.63189 0.04083 0.08235 0.0
O181 O 0.61161 0.12598 0.19009 0.0
Mg182 Mg 0.04299 0.19186 0.80599 0.0
O183 O 0.06845 0.26449 0.79375 0.0
O184 O 0.02944 0.3223 0.79708 0.0
Mg185 Mg 0.97886 0.28708 0.81207 0.0
C186 C 0.05961 0.30846 0.79128 0.0
C187 C 0.10214 0.12914 0.78124 0.0
O188 O 0.07867 0.1136 0.75633 0.0
O189 O 0.03891 0.20635 0.87475 0.0
O190 O -0.00366 0.25952 0.8739 0.0
O191 O 0.03027 0.18761 0.7394 0.0
O192 O -0.00278 0.21881 0.78726 0.0
C193 C 0.017 0.23251 0.89285 0.0
C194 C 0.0031 0.2103 0.74944 0.0
O195 O 0.09498 0.15945 0.80898 0.0
Mg196 Mg 0.33554 0.91297 0.14814 0.0
O197 O 0.34635 0.98194 0.18428 0.0
O198 O 0.31176 0.03922 0.16067 0.0
Mg199 Mg 0.28097 0.00763 0.10783 0.0
C200 C 0.33459 0.02464 0.18509 0.0
C201 C 0.38278 0.83793 0.1675 0.0
O202 O 0.37518 0.83514 0.12852 0.0
O203 O 0.28725 0.90202 0.18416 0.0
O204 O 0.25475 0.95693 0.15284 0.0
O205 O 0.37289 0.93236 0.10059 0.0
O206 O 0.3188 0.9516 0.09811 0.0
C207 C 0.25899 0.92268 0.17834 0.0
C208 C 0.34819 0.95281 0.08178 0.0
O209 O 0.36785 0.86842 0.19007 0.0
Mg210 Mg 0.93681 0.80237 0.80664 0.0
O211 O 0.91175 0.7296 0.79377 0.0
O212 O 0.95097 0.67209 0.79706 0.0
Mg213 Mg 0.00131 0.70767 0.81262 0.0
C214 C 0.92078 0.68573 0.79112 0.0
C215 C 0.87754 0.86502 0.78215 0.0
O216 O 0.90109 0.88116 0.75761 0.0
O217 O 0.94053 0.78731 0.87532 0.0
O218 O 0.98332 0.73452 0.8745 0.0
O219 O 0.94988 0.80728 0.74018 0.0
O220 O 0.98279 0.77597 0.78806 0.0
C221 C 0.96241 0.76118 0.89344 0.0
C222 C 0.97707 0.7847 0.75026 0.0
O223 O 0.88466 0.83429 0.80954 0.0
C224 C 0.27838 0.39256 0.26998 0.0
C225 C 0.24991 0.40185 0.27924 0.0
C226 C 0.31314 0.38376 0.26941 0.0
C227 C 0.34258 0.37561 0.27389 0.0
C228 C 0.31327 0.6107 0.70757 0.0
C229 C 0.34272 0.61877 0.70306 0.0
C230 C 0.2785 0.60199 0.70685 0.0
C231 C 0.25007 0.59275 0.69738 0.0
C232 C 0.66655 0.6104 0.26829 0.0
C233 C 0.63713 0.61853 0.27297 0.0
C234 C 0.70133 0.60174 0.26878 0.0
C235 C 0.72979 0.5926 0.27814 0.0
C236 C 0.66642 0.38395 0.70731 0.0
C237 C 0.63698 0.37587 0.70278 0.0
C238 C 0.7012 0.39266 0.70671 0.0
C239 C 0.72967 0.40187 0.69734 0.0
C240 C 0.779 0.89396 0.77075 0.0
C241 C 0.7505 0.90309 0.78003 0.0
C242 C 0.81376 0.88521 0.7701 0.0
C243 C 0.84319 0.87699 0.77453 0.0
C244 C 0.77855 0.10141 0.20707 0.0
C245 C 0.75007 0.09248 0.19759 0.0
C246 C 0.81335 0.10974 0.20769 0.0
C247 C 0.84281 0.11763 0.20302 0.0
C248 C 0.16594 0.10894 0.76927 0.0
C249 C 0.1365 0.11716 0.77362 0.0
C250 C 0.20072 0.10032 0.7701 0.0
C251 C 0.22919 0.09134 0.77956 0.0
C252 C 0.20083 0.89445 0.20592 0.0
C253 C 0.22936 0.90336 0.1966 0.0
C254 C 0.16605 0.88577 0.20653 0.0
C255 C 0.13663 0.87744 0.20207 0.0
C256 C 0.11882 0.58666 0.23846 0.0
C257 C 0.13089 0.55828 0.26219 0.0
C258 C 0.1011 0.62128 0.21534 0.0
C259 C 0.08274 0.65168 0.20143 0.0
C260 C 0.52125 0.7536 0.77051 0.0
C261 C 0.49897 0.73163 0.75435 0.0
C262 C 0.54831 0.78257 0.78277 0.0
C263 C 0.57102 0.80851 0.79266 0.0
C264 C 0.87816 0.37266 0.21525 0.0
C265 C 0.89654 0.34237 0.20117 0.0
C266 C 0.86044 0.40726 0.23843 0.0
C267 C 0.84835 0.43571 0.26211 0.0
C268 C 0.45869 0.2409 0.77103 0.0
C269 C 0.48095 0.2629 0.75484 0.0
C270 C 0.43158 0.21198 0.78323 0.0
C271 C 0.40878 0.18613 0.79302 0.0
C272 C 0.11925 0.40744 0.73754 0.0
C273 C 0.13134 0.43591 0.71388 0.0
C274 C 0.1015 0.37279 0.76063 0.0
C275 C 0.08308 0.34246 0.7746 0.0
C276 C 0.43332 0.78469 0.19202 0.0
C277 C 0.41007 0.80985 0.18258 0.0
C278 C 0.46064 0.75605 0.20385 0.0
C279 C 0.48276 0.73371 0.21994 0.0
C280 C 0.8613 0.58675 0.73703 0.0
C281 C 0.84903 0.55834 0.71344 0.0
C282 C 0.87913 0.62132 0.76012 0.0
C283 C 0.89748 0.65161 0.77425 0.0
C284 C 0.54678 0.21069 0.19142 0.0
C285 C 0.56991 0.18521 0.18209 0.0
C286 C 0.51958 0.23959 0.20329 0.0
C287 C 0.49751 0.26194 0.2195 0.0
C288 C 0.61963 0.08753 0.73858 0.0
C289 C 0.63162 0.0592 0.7624 0.0
C290 C 0.60188 0.12197 0.71532 0.0
C291 C 0.5834 0.1521 0.70123 0.0
C292 C 0.04741 0.2823 0.28386 0.0
C293 C 0.0703 0.30799 0.29361 0.0
C294 C 0.02029 0.25349 0.27155 0.0
C295 C -0.00188 0.23145 0.25524 0.0
C296 C 0.36027 0.90725 0.73863 0.0
C297 C 0.34821 0.9356 0.76241 0.0
C298 C 0.37804 0.87278 0.71539 0.0
C299 C 0.3965 0.84263 0.70126 0.0
C300 C 0.93265 0.71149 0.2847 0.0
C301 C 0.90958 0.68588 0.29399 0.0
C302 C 0.95986 0.74041 0.27284 0.0
C303 C 0.98199 0.76265 0.25664 0.0
C304 C 0.62022 0.90787 0.23847 0.0
C305 C 0.63212 0.93609 0.21446 0.0
C306 C 0.60254 0.87345 0.26184 0.0
C307 C 0.58405 0.8432 0.27573 0.0
C308 C 0.93219 0.28228 0.69132 0.0
C309 C 0.90927 0.30797 0.68168 0.0
C310 C 0.95932 0.25348 0.70357 0.0
C311 C 0.98148 0.23148 0.71992 0.0
C312 C 0.37887 0.12091 0.26058 0.0
C313 C 0.39729 0.15114 0.27463 0.0
C314 C 0.36104 0.08661 0.23723 0.0
C315 C 0.34888 0.05846 0.21336 0.0
C316 C 0.04804 0.7127 0.69211 0.0
C317 C 0.07081 0.68676 0.68239 0.0
C318 C 0.02101 0.74169 0.7044 0.0
C319 C -0.00119 0.76365 0.72074 0.0
C320 C 0.12541 0.50544 0.50838 0.0
C321 C 0.12774 0.52192 0.54215 0.0
C322 C 0.12524 0.48845 0.46803 0.0
C323 C 0.12734 0.47209 0.43419 0.0
C324 C 0.49804 0.7249 0.46885 0.0
C325 C 0.51018 0.72508 0.43519 0.0
C326 C 0.48029 0.7251 0.50606 0.0
C327 C 0.46838 0.72545 0.53984 0.0
C328 C 0.85381 0.50573 0.46759 0.0
C329 C 0.85165 0.52216 0.43379 0.0
C330 C 0.85381 0.48869 0.50791 0.0
C331 C 0.85165 0.47222 0.54169 0.0
C332 C 0.48178 0.26901 0.4688 0.0
C333 C 0.46993 0.26892 0.43499 0.0
C334 C 0.49922 0.26889 0.5062 0.0
C335 C 0.51098 0.26868 0.54006 0.0
C336 C 0.62517 0.00554 0.00844 0.0
C337 C 0.62763 0.02186 0.04225 0.0
C338 C 0.62485 0.98872 0.96803 0.0
C339 C 0.62695 0.97247 0.93416 0.0
C340 C -0.00202 0.22456 0.96892 0.0
C341 C 0.00988 0.2249 0.93512 0.0
C342 C 0.98049 0.22446 0.00633 0.0
C343 C 0.96869 0.22466 0.04018 0.0
C344 C 0.35496 0.005 0.96752 0.0
C345 C 0.35263 0.02163 0.93382 0.0
C346 C 0.35493 0.98793 0.00783 0.0
C347 C 0.35259 0.97164 0.04166 0.0
C348 C 0.98077 0.76873 0.96977 0.0
C349 C 0.96917 0.76851 0.93583 0.0
C350 C -0.00196 0.76894 0.0073 0.0
C351 C 0.00979 0.76894 0.04116 0.0
loop_
_geom_bond_atom_site_label_1
_geom_bond_atom_site_label_2
_geom_bond_distance
_geom_bond_site_symmetry_2
_ccdc_geom_bond_type
Mg0 O1 2.028 . S
Mg0 O7 1.986 . S
Mg0 O9 2.114 . S
Mg0 O10 2.251 . S
Mg0 O13 2.010 . S
O1 Mg0 2.028 . S
O1 C4 1.250 . S
O2 Mg3 2.028 . S
O2 C4 1.248 . S
Mg3 O2 2.028 . S
Mg3 O8 2.032 . S
Mg3 O10 2.079 . S
C4 O1 1.250 . S
C4 O2 1.248 . S
C5 O6 1.264 . S
C5 O13 1.249 . S
O6 C5 1.264 . S
O7 Mg0 1.986 . S
O7 C11 1.246 . S
O8 Mg3 2.032 . S
O8 C11 1.259 . S
O9 Mg0 2.114 . S
O9 C12 1.252 . S
O10 Mg0 2.251 . S
O10 Mg3 2.079 . S
O10 C12 1.273 . S
C11 O7 1.246 . S
C11 O8 1.259 . S
C12 O9 1.252 . S
C12 O10 1.273 . S
O13 Mg0 2.010 . S
O13 C5 1.249 . S
Mg14 O15 2.028 . S
Mg14 O21 1.986 . S
Mg14 O23 2.114 . S
Mg14 O24 2.251 . S
Mg14 O27 2.010 . S
O15 Mg14 2.028 . S
O15 C18 1.250 . S
O16 Mg17 2.028 . S
O16 C18 1.248 . S
Mg17 O16 2.028 . S
Mg17 O22 2.032 . S
Mg17 O24 2.079 . S
C18 O15 1.250 . S
C18 O16 1.248 . S
C19 O20 1.264 . S
C19 O27 1.249 . S
O20 C19 1.264 . S
O21 Mg14 1.986 . S
O21 C25 1.246 . S
O22 Mg17 2.032 . S
O22 C25 1.259 . S
O23 Mg14 2.114 . S
O23 C26 1.252 . S
O24 Mg14 2.251 . S
O24 Mg17 2.079 . S
O24 C26 1.273 . S
C25 O21 1.246 . S
C25 O22 1.259 . S
C26 O23 1.252 . S
C26 O24 1.273 . S
O27 Mg14 2.010 . S
O27 C19 1.249 . S
Mg28 O29 2.028 . S
Mg28 O35 1.986 . S
Mg28 O37 2.114 . S
Mg28 O38 2.251 . S
Mg28 O41 2.010 . S
O29 Mg28 2.028 . S
O29 C32 1.250 . S
O30 Mg31 2.028 . S
O30 C32 1.248 . S
Mg31 O30 2.028 . S
Mg31 O36 2.032 . S
Mg31 O38 2.079 . S
C32 O29 1.250 . S
C32 O30 1.248 . S
C33 O34 1.264 . S
C33 O41 1.249 . S
O34 C33 1.264 . S
O35 Mg28 1.986 . S
O35 C39 1.246 . S
O36 Mg31 2.032 . S
O36 C39 1.259 . S
O37 Mg28 2.114 . S
O37 C40 1.252 . S
O38 Mg28 2.251 . S
O38 Mg31 2.079 . S
O38 C40 1.273 . S
C39 O35 1.246 . S
C39 O36 1.259 . S
C40 O37 1.252 . S
C40 O38 1.273 . S
O41 Mg28 2.010 . S
O41 C33 1.249 . S
Mg42 O43 2.028 . S
Mg42 O49 1.986 . S
Mg42 O51 2.114 . S
Mg42 O52 2.251 . S
Mg42 O55 2.010 . S
O43 Mg42 2.028 . S
O43 C46 1.250 . S
O44 Mg45 2.028 . S
O44 C46 1.248 . S
Mg45 O44 2.028 . S
Mg45 O50 2.032 . S
Mg45 O52 2.079 . S
C46 O43 1.250 . S
C46 O44 1.248 . S
C47 O48 1.264 . S
C47 O55 1.249 . S
O48 C47 1.264 . S
O49 Mg42 1.986 . S
O49 C53 1.246 . S
O50 Mg45 2.032 . S
O50 C53 1.259 . S
O51 Mg42 2.114 . S
O51 C54 1.252 . S
O52 Mg42 2.251 . S
O52 Mg45 2.079 . S
O52 C54 1.273 . S
C53 O49 1.246 . S
C53 O50 1.259 . S
C54 O51 1.252 . S
C54 O52 1.273 . S
O55 Mg42 2.010 . S
O55 C47 1.249 . S
Mg56 O57 2.028 . S
Mg56 O63 1.986 . S
Mg56 O65 2.114 . S
Mg56 O66 2.251 . S
Mg56 O69 2.010 . S
O57 Mg56 2.028 . S
O57 C60 1.250 . S
O58 Mg59 2.028 . S
O58 C60 1.248 . S
Mg59 O58 2.028 . S
Mg59 O64 2.032 . S
Mg59 O66 2.079 . S
C60 O57 1.250 . S
C60 O58 1.248 . S
C61 O62 1.264 . S
C61 O69 1.249 . S
O62 C61 1.264 . S
O63 Mg56 1.986 . S
O63 C67 1.246 . S
O64 Mg59 2.032 . S
O64 C67 1.259 . S
O65 Mg56 2.114 . S
O65 C68 1.252 . S
O66 Mg56 2.251 . S
O66 Mg59 2.079 . S
O66 C68 1.273 . S
C67 O63 1.246 . S
C67 O64 1.259 . S
C68 O65 1.252 . S
C68 O66 1.273 . S
O69 Mg56 2.010 . S
O69 C61 1.249 . S
Mg70 O71 2.028 . S
Mg70 O77 1.986 . S
Mg70 O79 2.114 . S
Mg70 O80 2.251 . S
Mg70 O83 2.010 . S
O71 Mg70 2.028 . S
O71 C74 1.250 . S
O72 Mg73 2.028 . S
O72 C74 1.248 . S
Mg73 O72 2.028 . S
Mg73 O78 2.032 . S
Mg73 O80 2.079 . S
C74 O71 1.250 . S
C74 O72 1.248 . S
C75 O76 1.264 . S
C75 O83 1.249 . S
O76 C75 1.264 . S
O77 Mg70 1.986 . S
O77 C81 1.246 . S
O78 Mg73 2.032 . S
O78 C81 1.259 . S
O79 Mg70 2.114 . S
O79 C82 1.252 . S
O80 Mg70 2.251 . S
O80 Mg73 2.079 . S
O80 C82 1.273 . S
C81 O77 1.246 . S
C81 O78 1.259 . S
C82 O79 1.252 . S
C82 O80 1.273 . S
O83 Mg70 2.010 . S
O83 C75 1.249 . S
Mg84 O85 2.028 . S
Mg84 O91 1.986 . S
Mg84 O93 2.114 . S
Mg84 O94 2.251 . S
Mg84 O97 2.010 . S
O85 Mg84 2.028 . S
O85 C88 1.250 . S
O86 Mg87 2.028 . S
O86 C88 1.248 . S
Mg87 O86 2.028 . S
Mg87 O92 2.032 . S
Mg87 O94 2.079 . S
C88 O85 1.250 . S
C88 O86 1.248 . S
C89 O90 1.264 . S
C89 O97 1.249 . S
O90 C89 1.264 . S
O91 Mg84 1.986 . S
O91 C95 1.246 . S
O92 Mg87 2.032 . S
O92 C95 1.259 . S
O93 Mg84 2.114 . S
O93 C96 1.252 . S
O94 Mg84 2.251 . S
O94 Mg87 2.079 . S
O94 C96 1.273 . S
C95 O91 1.246 . S
C95 O92 1.259 . S
C96 O93 1.252 . S
C96 O94 1.273 . S
O97 Mg84 2.010 . S
O97 C89 1.249 . S
Mg98 O99 2.028 . S
Mg98 O105 1.986 . S
Mg98 O107 2.114 . S
Mg98 O108 2.251 . S
Mg98 O111 2.010 . S
O99 Mg98 2.028 . S
O99 C102 1.250 . S
O100 Mg101 2.028 . S
O100 C102 1.248 . S
Mg101 O100 2.028 . S
Mg101 O106 2.032 . S
Mg101 O108 2.079 . S
C102 O99 1.250 . S
C102 O100 1.248 . S
C103 O104 1.264 . S
C103 O111 1.249 . S
O104 C103 1.264 . S
O105 Mg98 1.986 . S
O105 C109 1.246 . S
O106 Mg101 2.032 . S
O106 C109 1.259 . S
O107 Mg98 2.114 . S
O107 C110 1.252 . S
O108 Mg98 2.251 . S
O108 Mg101 2.079 . S
O108 C110 1.273 . S
C109 O105 1.246 . S
C109 O106 1.259 . S
C110 O107 1.252 . S
C110 O108 1.273 . S
O111 Mg98 2.010 . S
O111 C103 1.249 . S
Mg112 O113 2.028 . S
Mg112 O119 1.986 . S
Mg112 O121 2.114 . S
Mg112 O122 2.251 . S
Mg112 O125 2.010 . S
O113 Mg112 2.028 . S
O113 C116 1.250 1_565 S
O114 Mg115 2.028 . S
O114 C116 1.248 . S
Mg115 O114 2.028 . S
Mg115 O120 2.032 1_545 S
Mg115 O122 2.079 1_545 S
C116 O113 1.250 1_545 S
C116 O114 1.248 . S
C117 O118 1.264 . S
C117 O125 1.249 . S
O118 C117 1.264 . S
O119 Mg112 1.986 . S
O119 C123 1.246 . S
O120 Mg115 2.032 1_565 S
O120 C123 1.259 . S
O121 Mg112 2.114 . S
O121 C124 1.252 . S
O122 Mg112 2.251 . S
O122 Mg115 2.079 1_565 S
O122 C124 1.273 . S
C123 O119 1.246 . S
C123 O120 1.259 . S
C124 O121 1.252 . S
C124 O122 1.273 . S
O125 Mg112 2.010 . S
O125 C117 1.249 . S
Mg126 O127 2.028 . S
Mg126 O133 1.986 . S
Mg126 O135 2.114 . S
Mg126 O136 2.251 . S
Mg126 O139 2.010 . S
O127 Mg126 2.028 . S
O127 C130 1.250 . S
O128 Mg129 2.028 . S
O128 C130 1.248 . S
Mg129 O128 2.028 . S
Mg129 O134 2.032 . S
Mg129 O136 2.079 . S
C130 O127 1.250 . S
C130 O128 1.248 . S
C131 O132 1.264 . S
C131 O139 1.249 . S
O132 C131 1.264 . S
O133 Mg126 1.986 . S
O133 C137 1.246 . S
O134 Mg129 2.032 . S
O134 C137 1.259 . S
O135 Mg126 2.114 . S
O135 C138 1.252 . S
O136 Mg126 2.251 . S
O136 Mg129 2.079 . S
O136 C138 1.273 . S
C137 O133 1.246 . S
C137 O134 1.259 . S
C138 O135 1.252 . S
C138 O136 1.273 . S
O139 Mg126 2.010 . S
O139 C131 1.249 . S
Mg140 O141 2.028 . S
Mg140 O147 1.986 . S
Mg140 O149 2.114 . S
Mg140 O150 2.251 . S
Mg140 O153 2.010 . S
O141 Mg140 2.028 . S
O141 C144 1.250 1_545 S
O142 Mg143 2.028 . S
O142 C144 1.248 . S
Mg143 O142 2.028 . S
Mg143 O148 2.032 1_565 S
Mg143 O150 2.079 1_565 S
C144 O141 1.250 1_565 S
C144 O142 1.248 . S
C145 O146 1.264 . S
C145 O153 1.249 . S
O146 C145 1.264 . S
O147 Mg140 1.986 . S
O147 C151 1.246 . S
O148 Mg143 2.032 1_545 S
O148 C151 1.259 . S
O149 Mg140 2.114 . S
O149 C152 1.252 . S
O150 Mg140 2.251 . S
O150 Mg143 2.079 1_545 S
O150 C152 1.273 . S
C151 O147 1.246 . S
C151 O148 1.259 . S
C152 O149 1.252 . S
C152 O150 1.273 . S
O153 Mg140 2.010 . S
O153 C145 1.249 . S
Mg154 O155 2.028 . S
Mg154 O161 1.986 . S
Mg154 O163 2.114 . S
Mg154 O164 2.251 . S
Mg154 O167 2.010 . S
O155 Mg154 2.028 . S
O155 C158 1.250 . S
O156 Mg157 2.028 . S
O156 C158 1.248 . S
Mg157 O156 2.028 . S
Mg157 O162 2.032 . S
Mg157 O164 2.079 . S
C158 O155 1.250 . S
C158 O156 1.248 . S
C159 O160 1.264 . S
C159 O167 1.249 . S
O160 C159 1.264 . S
O161 Mg154 1.986 . S
O161 C165 1.246 . S
O162 Mg157 2.032 . S
O162 C165 1.259 . S
O163 Mg154 2.114 . S
O163 C166 1.252 . S
O164 Mg154 2.251 . S
O164 Mg157 2.079 . S
O164 C166 1.273 . S
C165 O161 1.246 . S
C165 O162 1.259 . S
C166 O163 1.252 . S
C166 O164 1.273 . S
O167 Mg154 2.010 . S
O167 C159 1.249 . S
Mg168 O169 2.028 . S
Mg168 O175 1.986 . S
Mg168 O177 2.114 . S
Mg168 O178 2.251 . S
Mg168 O181 2.010 . S
O169 Mg168 2.028 . S
O169 C172 1.250 1_545 S
O170 Mg171 2.028 . S
O170 C172 1.248 . S
Mg171 O170 2.028 . S
Mg171 O176 2.032 1_565 S
Mg171 O178 2.079 1_565 S
C172 O169 1.250 1_565 S
C172 O170 1.248 . S
C173 O174 1.264 . S
C173 O181 1.249 . S
O174 C173 1.264 . S
O175 Mg168 1.986 . S
O175 C179 1.246 . S
O176 Mg171 2.032 1_545 S
O176 C179 1.259 . S
O177 Mg168 2.114 . S
O177 C180 1.252 . S
O178 Mg168 2.251 . S
O178 Mg171 2.079 1_545 S
O178 C180 1.273 . S
C179 O175 1.246 . S
C179 O176 1.259 . S
C180 O177 1.252 . S
C180 O178 1.273 . S
O181 Mg168 2.010 . S
O181 C173 1.249 . S
Mg182 O183 2.028 . S
Mg182 O189 1.986 . S
Mg182 O191 2.114 . S
Mg182 O192 2.251 . S
Mg182 O195 2.010 . S
O183 Mg182 2.028 . S
O183 C186 1.250 . S
O184 Mg185 2.028 . S
O184 C186 1.248 . S
Mg185 O184 2.028 . S
Mg185 O190 2.032 . S
Mg185 O192 2.079 . S
C186 O183 1.250 . S
C186 O184 1.248 . S
C187 O188 1.264 . S
C187 O195 1.249 . S
O188 C187 1.264 . S
O189 Mg182 1.986 . S
O189 C193 1.246 . S
O190 Mg185 2.032 . S
O190 C193 1.259 . S
O191 Mg182 2.114 . S
O191 C194 1.252 . S
O192 Mg182 2.251 . S
O192 Mg185 2.079 . S
O192 C194 1.273 . S
C193 O189 1.246 . S
C193 O190 1.259 . S
C194 O191 1.252 . S
C194 O192 1.273 . S
O195 Mg182 2.010 . S
O195 C187 1.249 . S
Mg196 O197 2.028 . S
Mg196 O203 1.986 . S
Mg196 O205 2.114 . S
Mg196 O206 2.251 . S
Mg196 O209 2.010 . S
O197 Mg196 2.028 . S
O197 C200 1.250 1_565 S
O198 Mg199 2.028 . S
O198 C200 1.248 . S
Mg199 O198 2.028 . S
Mg199 O204 2.032 1_545 S
Mg199 O206 2.079 1_545 S
C200 O197 1.250 1_545 S
C200 O198 1.248 . S
C201 O202 1.264 . S
C201 O209 1.249 . S
O202 C201 1.264 . S
O203 Mg196 1.986 . S
O203 C207 1.246 . S
O204 Mg199 2.032 1_565 S
O204 C207 1.259 . S
O205 Mg196 2.114 . S
O205 C208 1.252 . S
O206 Mg196 2.251 . S
O206 Mg199 2.079 1_565 S
O206 C208 1.273 . S
C207 O203 1.246 . S
C207 O204 1.259 . S
C208 O205 1.252 . S
C208 O206 1.273 . S
O209 Mg196 2.010 . S
O209 C201 1.249 . S
Mg210 O211 2.028 . S
Mg210 O217 1.986 . S
Mg210 O219 2.114 . S
Mg210 O220 2.251 . S
Mg210 O223 2.010 . S
O211 Mg210 2.028 . S
O211 C214 1.250 . S
O212 Mg213 2.028 . S
O212 C214 1.248 . S
Mg213 O212 2.028 . S
Mg213 O218 2.032 . S
Mg213 O220 2.079 . S
C214 O211 1.250 . S
C214 O212 1.248 . S
C215 O216 1.264 . S
C215 O223 1.249 . S
O216 C215 1.264 . S
O217 Mg210 1.986 . S
O217 C221 1.246 . S
O218 Mg213 2.032 . S
O218 C221 1.259 . S
O219 Mg210 2.114 . S
O219 C222 1.252 . S
O220 Mg210 2.251 . S
O220 Mg213 2.079 . S
O220 C222 1.273 . S
C221 O217 1.246 . S
C221 O218 1.259 . S
C222 O219 1.252 . S
C222 O220 1.273 . S
O223 Mg210 2.010 . S
O223 C215 1.249 . S
C224 C225 1.170 . S
C224 C226 1.380 . S
C225 C224 1.170 . S
C226 C224 1.380 . S
C226 C227 1.170 . S
C227 C226 1.170 . S
C228 C229 1.170 . S
C228 C230 1.380 . S
C229 C228 1.170 . S
C230 C228 1.380 . S
C230 C231 1.170 . S
C231 C230 1.170 . S
C232 C233 1.170 . S
C232 C234 1.380 . S
C233 C232 1.170 . S
C234 C232 1.380 . S
C234 C235 1.170 . S
C235 C234 1.170 . S
C236 C237 1.170 . S
C236 C238 1.380 . S
C237 C236 1.170 . S
C238 C236 1.380 . S
C238 C239 1.170 . S
C239 C238 1.170 . S
C240 C241 1.170 . S
C240 C242 1.380 . S
C241 C240 1.170 . S
C242 C240 1.380 . S
C242 C243 1.170 . S
C243 C242 1.170 . S
C244 C245 1.170 . S
C244 C246 1.380 . S
C245 C244 1.170 . S
C246 C244 1.380 . S
C246 C247 1.170 . S
C247 C246 1.170 . S
C248 C249 1.170 . S
C248 C250 1.380 . S
C249 C248 1.170 . S
C250 C248 1.380 . S
C250 C251 1.170 . S
C251 C250 1.170 . S
C252 C253 1.170 . S
C252 C254 1.380 . S
C253 C252 1.170 . S
C254 C252 1.380 . S
C254 C255 1.170 . S
C255 C254 1.170 . S
C256 C257 1.170 . S
C256 C258 1.380 . S
C257 C256 1.170 . S
C258 C256 1.380 . S
C258 C259 1.170 . S
C259 C258 1.170 . S
C260 C261 1.170 . S
C260 C262 1.380 . S
C261 C260 1.170 . S
C262 C260 1.380 . S
C262 C263 1.170 . S
C263 C262 1.170 . S
C264 C265 1.170 . S
C264 C266 1.380 . S
C265 C264 1.170 . S
C266 C264 1.380 . S
C266 C267 1.170 . S
C267 C266 1.170 . S
C268 C269 1.170 . S
C268 C270 1.380 . S
C269 C268 1.170 . S
C270 C268 1.380 . S
C270 C271 1.170 . S
C271 C270 1.170 . S
C272 C273 1.170 . S
C272 C274 1.380 . S
C273 C272 1.170 . S
C274 C272 1.380 . S
C274 C275 1.170 . S
C275 C274 1.170 . S
C276 C277 1.170 . S
C276 C278 1.380 . S
C277 C276 1.170 . S
C278 C276 1.380 . S
C278 C279 1.170 . S
C279 C278 1.170 . S
C280 C281 1.170 . S
C280 C282 1.380 . S
C281 C280 1.170 . S
C282 C280 1.380 . S
C282 C283 1.170 . S
C283 C282 1.170 . S
C284 C285 1.170 . S
C284 C286 1.380 . S
C285 C284 1.170 . S
C286 C284 1.380 . S
C286 C287 1.170 . S
C287 C286 1.170 . S
C288 C289 1.170 . S
C288 C290 1.380 . S
C289 C288 1.170 . S
C290 C288 1.380 . S
C290 C291 1.170 . S
C291 C290 1.170 . S
C292 C293 1.170 . S
C292 C294 1.380 . S
C293 C292 1.170 . S
C294 C292 1.380 . S
C294 C295 1.170 . S
C295 C294 1.170 . S
C296 C297 1.170 . S
C296 C298 1.380 . S
C297 C296 1.170 . S
C298 C296 1.380 . S
C298 C299 1.170 . S
C299 C298 1.170 . S
C300 C301 1.170 . S
C300 C302 1.380 . S
C301 C300 1.170 . S
C302 C300 1.380 . S
C302 C303 1.170 . S
C303 C302 1.170 . S
C304 C305 1.170 . S
C304 C306 1.380 . S
C305 C304 1.170 . S
C306 C304 1.380 . S
C306 C307 1.170 . S
C307 C306 1.170 . S
C308 C309 1.170 . S
C308 C310 1.380 . S
C309 C308 1.170 . S
C310 C308 1.380 . S
C310 C311 1.170 . S
C311 C310 1.170 . S
C312 C313 1.170 . S
C312 C314 1.380 . S
C313 C312 1.170 . S
C314 C312 1.380 . S
C314 C315 1.170 . S
C315 C314 1.170 . S
C316 C317 1.170 . S
C316 C318 1.380 . S
C317 C316 1.170 . S
C318 C316 1.380 . S
C318 C319 1.170 . S
C319 C318 1.170 . S
C320 C321 1.170 . S
C320 C322 1.380 . S
C321 C320 1.170 . S
C322 C320 1.380 . S
C322 C323 1.170 . S
C323 C322 1.170 . S
C324 C325 1.170 . S
C324 C326 1.380 . S
C325 C324 1.170 . S
C326 C324 1.380 . S
C326 C327 1.170 . S
C327 C326 1.170 . S
C328 C329 1.170 . S
C328 C330 1.380 . S
C329 C328 1.170 . S
C330 C328 1.380 . S
C330 C331 1.170 . S
C331 C330 1.170 . S
C332 C333 1.170 . S
C332 C334 1.380 . S
C333 C332 1.170 . S
C334 C332 1.380 . S
C334 C335 1.170 . S
C335 C334 1.170 . S
C336 C337 1.170 . S
C336 C338 1.380 1_544 S
C337 C336 1.170 . S
C338 C336 1.380 1_566 S
C338 C339 1.170 . S
C339 C338 1.170 . S
C340 C341 1.170 . S
C340 C342 1.380 1_456 S
C341 C340 1.170 . S
C342 C340 1.380 1_654 S
C342 C343 1.170 . S
C343 C342 1.170 . S
C344 C345 1.170 . S
C344 C346 1.380 1_546 S
C345 C344 1.170 . S
C346 C344 1.380 1_564 S
C346 C347 1.170 . S
C347 C346 1.170 . S
C348 C349 1.170 . S
C348 C350 1.380 1_656 S
C349 C348 1.170 . S
C350 C348 1.380 1_454 S
C350 C351 1.170 . S
C351 C350 1.170 . S
C225 C11 1.431 . S
C227 C103 1.398 . S
C229 C19 1.421 . S
C231 C67 1.434 . S
C233 C75 1.415 . S
C235 C39 1.422 . S
C237 C47 1.417 . S
C239 C95 1.439 . S
C241 C123 1.405 . S
C243 C215 1.373 . S
C245 C179 1.406 . S
C247 C131 1.398 . S
C249 C187 1.395 . S
C251 C151 1.404 . S
C253 C207 1.405 . S
C255 C159 1.397 . S
C257 C4 1.349 . S
C259 C158 1.306 . S
C261 C26 1.169 . S
C263 C117 0.978 . S
C265 C130 1.323 . S
C267 C32 1.341 . S
C269 C54 1.160 . S
C271 C145 0.988 . S
C273 C60 1.341 . S
C275 C186 1.319 . S
C277 C201 1.064 . S
C279 C82 1.126 . S
C281 C88 1.349 . S
C283 C214 1.306 . S
C285 C173 1.023 . S
C287 C110 1.169 . S
C289 C116 1.347 . S
C291 C46 1.340 . S
C293 C5 0.962 . S
C295 C138 1.198 1_455 S
C297 C144 1.344 . S
C299 C18 1.334 . S
C301 C33 0.981 . S
C303 C166 1.193 1_655 S
C305 C172 1.358 . S
C307 C74 1.347 . S
C309 C89 0.956 . S
C311 C194 1.196 1_655 S
C313 C102 1.308 . S
C315 C200 1.356 . S
C317 C61 0.956 . S
C319 C222 1.193 1_455 S
C321 C68 1.417 . S
C323 C12 1.419 . S
C325 C81 1.637 . S
C327 C25 1.647 . S
C329 C40 1.416 . S
C331 C96 1.418 . S
C333 C109 1.651 . S
C335 C53 1.636 . S
C337 C180 1.416 . S
C339 C124 1.418 . S
C341 C193 1.649 . S
C343 C137 1.668 . S
C345 C152 1.418 . S
C347 C208 1.421 . S
C349 C221 1.652 . S
C351 C165 1.636 . S
