# Generated by pormake.
# Topology unm, (4)-cn, num edge types: 1
# Building blocks:
#     Node 0, Type 0, BuildingBlock: QUQFOY_clean_sbu_1, # of connection points: 4
#     Node 1, Type 0, BuildingBlock: QUQFOY_clean_sbu_1, # of connection points: 4
#     Node 2, Type 0, BuildingBlock: QUQFOY_clean_sbu_1, # of connection points: 4
#     Node 3, Type 0, BuildingBlock: QUQFOY_clean_sbu_1, # of connection points: 4
#     Node 4, Type 0, BuildingBlock: QUQFOY_clean_sbu_1, # of connection points: 4
#     Node 5, Type 0, BuildingBlock: QUQFOY_clean_sbu_1, # of connection points: 4
#     Node 6, Type 0, BuildingBlock: QUQFOY_clean_sbu_1, # of connection points: 4
#     Node 7, Type 0, BuildingBlock: QUQFOY_clean_sbu_1, # of connection points: 4
#     Edge 8, Type (0, 0), BuildingBlock: FUNLAD_clean_linker_0, # of connection points: 2
#     Edge 9, Type (0, 0), BuildingBlock: FUNLAD_clean_linker_0, # of connection points: 2
#     Edge 10, Type (0, 0), BuildingBlock: FUNLAD_clean_linker_0, # of connection points: 2
#     Edge 11, Type (0, 0), BuildingBlock: FUNLAD_clean_linker_0, # of connection points: 2
#     Edge 12, Type (0, 0), BuildingBlock: FUNLAD_clean_linker_0, # of connection points: 2
#     Edge 13, Type (0, 0), BuildingBlock: FUNLAD_clean_linker_0, # of connection points: 2
#     Edge 14, Type (0, 0), BuildingBlock: FUNLAD_clean_linker_0, # of connection points: 2
#     Edge 15, Type (0, 0), BuildingBlock: FUNLAD_clean_linker_0, # of connection points: 2
#     Edge 16, Type (0, 0), BuildingBlock: FUNLAD_clean_linker_0, # of connection points: 2
#     Edge 17, Type (0, 0), BuildingBlock: FUNLAD_clean_linker_0, # of connection points: 2
#     Edge 18, Type (0, 0), BuildingBlock: FUNLAD_clean_linker_0, # of connection points: 2
#     Edge 19, Type (0, 0), BuildingBlock: FUNLAD_clean_linker_0, # of connection points: 2
#     Edge 20, Type (0, 0), BuildingBlock: FUNLAD_clean_linker_0, # of connection points: 2
#     Edge 21, Type (0, 0), BuildingBlock: FUNLAD_clean_linker_0, # of connection points: 2
#     Edge 22, Type (0, 0), BuildingBlock: FUNLAD_clean_linker_0, # of connection points: 2
#     Edge 23, Type (0, 0), BuildingBlock: FUNLAD_clean_linker_0, # of connection points: 2
# Relax obj value: 0.176
# Max RMSD: 0.174
# Mean RMSD: 0.174
data_MOF--net-unm--node1-QUQFOY_clean_sbu_1--edge1-FUNLAD_clean_linker_0
_symmetry_space_group_name_H-M    P1
_symmetry_Int_Tables_number       1
_symmetry_cell_setting            triclinic
loop_
_symmetry_equiv_pos_as_xyz
'x, y, z'
_cell_length_a     31.946744
_cell_length_b     31.95212
_cell_length_c     51.459042
_cell_angle_alpha  90.116875
_cell_angle_beta   89.930678
_cell_angle_gamma 90.012609
loop_
_atom_site_label
_atom_site_type_symbol
_atom_site_fract_x
_atom_site_fract_y
_atom_site_fract_z
_atom_type_partial_charge
O0 O 0.21146 0.28307 0.12435 0.0
Cd1 Cd 0.20358 0.30619 0.1617 0.0
Cd2 Cd 0.13322 0.25275 0.15621 0.0
O3 O 0.16692 0.2302 0.12524 0.0
O4 O 0.25515 0.33998 0.16792 0.0
O5 O 0.24008 0.28275 0.19012 0.0
C6 C 0.26534 0.31348 0.18563 0.0
C7 C 0.08945 0.21027 0.18128 0.0
C8 C 0.19575 0.25057 0.11386 0.0
C9 C 0.11892 0.34495 0.16073 0.0
O10 O 0.10607 0.31031 0.15172 0.0
O11 O 0.15618 0.34869 0.16897 0.0
O12 O 0.08222 0.21703 0.15705 0.0
O13 O 0.12384 0.22479 0.19092 0.0
O14 O 0.2287 0.70059 0.62364 0.0
Cd15 Cd 0.1957 0.68965 0.65748 0.0
Cd16 Cd 0.24659 0.62146 0.65641 0.0
O17 O 0.27885 0.65383 0.62832 0.0
O18 O 0.16662 0.74352 0.66512 0.0
O19 O 0.21395 0.71573 0.69123 0.0
C20 C 0.18817 0.74583 0.68623 0.0
C21 C 0.27809 0.58178 0.68885 0.0
C22 C 0.26259 0.68392 0.61578 0.0
C23 C 0.15505 0.60758 0.64822 0.0
O24 O 0.19187 0.59383 0.64469 0.0
O25 O 0.14926 0.64489 0.65602 0.0
O26 O 0.28181 0.57199 0.66466 0.0
O27 O 0.25942 0.61648 0.69458 0.0
O28 O 0.78718 0.71392 0.12099 0.0
Cd29 Cd 0.79729 0.68974 0.15785 0.0
Cd30 Cd 0.8707 0.7352 0.14891 0.0
O31 O 0.83558 0.76322 0.12061 0.0
O32 O 0.74384 0.66047 0.16638 0.0
O33 O 0.76652 0.71564 0.18818 0.0
C34 C 0.73825 0.68726 0.18477 0.0
C35 C 0.92058 0.7716 0.17332 0.0
C36 C 0.80421 0.74544 0.11019 0.0
C37 C 0.8763 0.64248 0.15075 0.0
O38 O 0.8908 0.67572 0.14081 0.0
O39 O 0.84113 0.64266 0.16226 0.0
O40 O 0.92473 0.76626 0.14865 0.0
O41 O 0.88627 0.75888 0.18402 0.0
O42 O 0.76498 0.29335 0.61856 0.0
Cd43 Cd 0.79582 0.30497 0.65309 0.0
Cd44 Cd 0.74609 0.37354 0.65005 0.0
O45 O 0.71492 0.34059 0.6217 0.0
O46 O 0.82384 0.25101 0.66176 0.0
O47 O 0.77505 0.27978 0.68653 0.0
C48 C 0.8008 0.2493 0.68231 0.0
C49 C 0.71427 0.41384 0.68219 0.0
C50 C 0.73171 0.30999 0.6098 0.0
C51 C 0.83799 0.38629 0.64386 0.0
O52 O 0.80164 0.40015 0.639 0.0
O53 O 0.84276 0.34935 0.65247 0.0
O54 O 0.71114 0.42345 0.65796 0.0
O55 O 0.73234 0.37893 0.68808 0.0
O56 O 0.7104 0.21301 0.36565 0.0
Cd57 Cd 0.70154 0.18869 0.3287 0.0
Cd58 Cd 0.63411 0.24061 0.33307 0.0
O59 O 0.66584 0.26564 0.364 0.0
O60 O 0.75531 0.15988 0.32038 0.0
O61 O 0.73145 0.2139 0.29806 0.0
C62 C 0.76031 0.18617 0.30167 0.0
C63 C 0.59525 0.27968 0.30354 0.0
C64 C 0.69435 0.24561 0.37583 0.0
C65 C 0.61802 0.14882 0.33188 0.0
O66 O 0.60539 0.18434 0.33962 0.0
O67 O 0.65523 0.14421 0.32363 0.0
O68 O 0.58517 0.27801 0.32775 0.0
O69 O 0.62987 0.26214 0.29641 0.0
O70 O 0.27314 0.1925 0.86967 0.0
Cd71 Cd 0.295 0.18849 0.83179 0.0
Cd72 Cd 0.24557 0.11424 0.83663 0.0
O73 O 0.22285 0.14507 0.86868 0.0
O74 O 0.32743 0.24138 0.82737 0.0
O75 O 0.2705 0.22707 0.80472 0.0
C76 C 0.30078 0.25249 0.80998 0.0
C77 C 0.20364 0.06975 0.81163 0.0
C78 C 0.24215 0.17434 0.88036 0.0
C79 C 0.33815 0.10579 0.82981 0.0
O80 O 0.30492 0.09027 0.83921 0.0
O81 O 0.33918 0.14369 0.82248 0.0
O82 O 0.21245 0.0615 0.83547 0.0
O83 O 0.21594 0.10526 0.8024 0.0
O84 O 0.28858 0.77606 0.3729 0.0
Cd85 Cd 0.2953 0.80486 0.33707 0.0
Cd86 Cd 0.37006 0.76175 0.34236 0.0
O87 O 0.33988 0.72995 0.37132 0.0
O88 O 0.23921 0.83107 0.33203 0.0
O89 O 0.26446 0.78266 0.30567 0.0
C90 C 0.23421 0.80756 0.31193 0.0
C91 C 0.41506 0.73003 0.31255 0.0
C92 C 0.30808 0.7452 0.38273 0.0
C93 C 0.37282 0.85464 0.34432 0.0
O94 O 0.38954 0.82084 0.35193 0.0
O95 O 0.33654 0.85457 0.33424 0.0
O96 O 0.42387 0.73158 0.33695 0.0
O97 O 0.37899 0.74392 0.30519 0.0
O98 O 0.72427 0.79814 0.86705 0.0
Cd99 Cd 0.69904 0.80411 0.83012 0.0
Cd100 Cd 0.74554 0.87885 0.83596 0.0
O101 O 0.77348 0.84662 0.86564 0.0
O102 O 0.66769 0.75059 0.82533 0.0
O103 O 0.72185 0.76812 0.80098 0.0
C104 C 0.69285 0.74148 0.80662 0.0
C105 C 0.78236 0.92562 0.80953 0.0
C106 C 0.75579 0.81626 0.87718 0.0
C107 C 0.6525 0.88429 0.83424 0.0
O108 O 0.68603 0.89994 0.84313 0.0
O109 O 0.65229 0.84781 0.82443 0.0
O110 O 0.77674 0.93272 0.83391 0.0
O111 O 0.76961 0.89018 0.80035 0.0
C112 C 0.18648 0.20753 0.0735 0.0
C113 C 0.20849 0.23866 0.08718 0.0
C114 C 0.19535 0.19956 0.04737 0.0
C115 C 0.22645 0.22263 0.03434 0.0
C116 C 0.24988 0.25215 0.04835 0.0
C117 C 0.24085 0.26032 0.07445 0.0
C118 C 0.23536 0.21677 0.00625 0.0
C119 C 0.20617 0.20426 0.98901 0.0
C120 C 0.2147 0.19897 0.96081 0.0
C121 C 0.18987 0.17105 0.94646 0.0
C122 C 0.19791 0.16391 0.92013 0.0
C123 C 0.23078 0.18495 0.9075 0.0
H124 H 0.26523 0.24441 0.95801 0.0
C125 C 0.25445 0.21432 0.92159 0.0
C126 C 0.24648 0.22135 0.94794 0.0
H127 H 0.27973 0.23142 0.91242 0.0
H128 H 0.16162 0.18996 0.08277 0.0
H129 H 0.17774 0.17537 0.0375 0.0
H130 H 0.27444 0.26989 0.03888 0.0
H131 H 0.25866 0.28428 0.08445 0.0
H132 H 0.26672 0.22438 -0.00036 0.0
H133 H 0.17482 0.19675 0.9957 0.0
H134 H 0.16478 0.15387 0.9558 0.0
H135 H 0.17889 0.14124 0.90984 0.0
C136 C 0.25821 0.7251 0.57466 0.0
C137 C 0.27922 0.69527 0.58987 0.0
C138 C 0.26824 0.73011 0.54847 0.0
C139 C 0.29951 0.70534 0.53689 0.0
C140 C 0.32285 0.67804 0.55252 0.0
C141 C 0.31265 0.6728 0.57876 0.0
C142 C 0.30773 0.70694 0.50855 0.0
C143 C 0.27682 0.71334 0.49119 0.0
C144 C 0.28364 0.71693 0.46275 0.0
C145 C 0.25443 0.73955 0.44806 0.0
C146 C 0.26121 0.74686 0.42166 0.0
C147 C 0.2972 0.73122 0.40928 0.0
H148 H 0.34076 0.68006 0.46048 0.0
C149 C 0.32504 0.70614 0.42357 0.0
C150 C 0.31839 0.69908 0.45006 0.0
H151 H 0.35294 0.69336 0.41458 0.0
H152 H 0.23271 0.74342 0.58266 0.0
H153 H 0.25089 0.75284 0.53723 0.0
H154 H 0.34768 0.65925 0.54413 0.0
H155 H 0.3297 0.64979 0.58996 0.0
H156 H 0.33963 0.70167 0.50205 0.0
H157 H 0.24501 0.71792 0.49813 0.0
H158 H 0.22703 0.75306 0.45725 0.0
H159 H 0.23895 0.76602 0.41119 0.0
C160 C 0.81401 0.78783 0.06974 0.0
C161 C 0.79074 0.7582 0.08385 0.0
C162 C 0.80519 0.79537 0.04359 0.0
C163 C 0.77289 0.77336 0.03099 0.0
C164 C 0.748 0.74576 0.0455 0.0
C165 C 0.75695 0.73802 0.07162 0.0
C166 C 0.76442 0.77813 0.0028 0.0
C167 C 0.79425 0.7883 0.98536 0.0
C168 C 0.78586 0.79237 0.95712 0.0
C169 C 0.81062 0.81974 0.94235 0.0
C170 C 0.80204 0.8263 0.91605 0.0
C171 C 0.76876 0.80515 0.9039 0.0
H172 H 0.73538 0.74683 0.95513 0.0
C173 C 0.74553 0.77591 0.91835 0.0
C174 C 0.75399 0.76954 0.94466 0.0
H175 H 0.71996 0.75873 0.90955 0.0
H176 H 0.83998 0.80428 0.07863 0.0
H177 H 0.82395 0.81821 0.03334 0.0
H178 H 0.72248 0.72894 0.03636 0.0
H179 H 0.73817 0.71525 0.08196 0.0
H180 H 0.73279 0.77158 -0.00375 0.0
H181 H 0.82588 0.7949 0.99189 0.0
H182 H 0.83583 0.83717 0.95138 0.0
H183 H 0.82074 0.84884 0.90546 0.0
C184 C 0.68042 0.28578 0.41681 0.0
C185 C 0.70506 0.25688 0.40293 0.0
C186 C 0.68638 0.29161 0.44348 0.0
C187 C 0.71719 0.26866 0.45679 0.0
C188 C 0.7434 0.24174 0.44262 0.0
C189 C 0.73725 0.23566 0.41602 0.0
C190 C 0.72311 0.27193 0.48532 0.0
C191 C 0.69223 0.28227 0.50204 0.0
C192 C 0.69904 0.28516 0.53051 0.0
C193 C 0.67583 0.31422 0.54506 0.0
C194 C 0.68458 0.32067 0.5714 0.0
C195 C 0.71647 0.29777 0.5837 0.0
H196 H 0.74585 0.23598 0.53296 0.0
C197 C 0.73737 0.26636 0.56957 0.0
C198 C 0.72872 0.26007 0.54328 0.0
H199 H 0.76166 0.24768 0.57852 0.0
H200 H 0.65553 0.30287 0.40729 0.0
H201 H 0.66665 0.31391 0.45353 0.0
H202 H 0.76783 0.22422 0.45233 0.0
H203 H 0.75699 0.21337 0.40589 0.0
H204 H 0.75397 0.26429 0.49277 0.0
H205 H 0.66138 0.2903 0.49477 0.0
H206 H 0.65221 0.33336 0.53578 0.0
H207 H 0.66767 0.34492 0.58174 0.0
C208 C 0.32514 0.2831 0.21074 0.0
C209 C 0.30532 0.31805 0.19975 0.0
C210 C 0.36415 0.28734 0.2228 0.0
C211 C 0.38364 0.32676 0.22449 0.0
C212 C 0.36322 0.36182 0.21419 0.0
C213 C 0.32474 0.35743 0.20158 0.0
C214 C 0.42422 0.33219 0.23802 0.0
C215 C 0.45531 0.30395 0.23603 0.0
C216 C 0.49438 0.30585 0.25163 0.0
C217 C 0.53012 0.28467 0.24266 0.0
C218 C 0.565 0.27958 0.25877 0.0
C219 C 0.56436 0.29487 0.28438 0.0
H220 H 0.46796 0.33988 0.28439 0.0
C221 C 0.52971 0.31838 0.29279 0.0
C222 C 0.4951 0.32393 0.27658 0.0
H223 H 0.52827 0.33043 0.31246 0.0
H224 H 0.31088 0.25239 0.20959 0.0
H225 H 0.37871 0.25989 0.23116 0.0
H226 H 0.37739 0.39256 0.21556 0.0
H227 H 0.31003 0.38496 0.1934 0.0
H228 H 0.42879 0.36059 0.2493 0.0
H229 H 0.4518 0.27783 0.22262 0.0
H230 H 0.53036 0.27038 0.22355 0.0
H231 H 0.59108 0.26102 0.2518 0.0
C232 C 0.15672 0.81547 0.69729 0.0
C233 C 0.18388 0.78244 0.70374 0.0
C234 C 0.15352 0.85078 0.71328 0.0
C235 C 0.17761 0.85391 0.73607 0.0
C236 C 0.20394 0.82042 0.7428 0.0
C237 C 0.20722 0.78516 0.72678 0.0
C238 C 0.17605 0.89119 0.75343 0.0
C239 C 0.16434 0.92977 0.74561 0.0
C240 C 0.1678 0.96714 0.76276 0.0
C241 C 0.17697 0.00629 0.75174 0.0
C242 C 0.18589 0.04083 0.76761 0.0
C243 C 0.18541 0.03683 0.7948 0.0
H244 H 0.15517 0.93494 0.79907 0.0
C245 C 0.17278 0.99856 0.80574 0.0
C246 C 0.16395 0.96412 0.78992 0.0
H247 H 0.17147 0.99458 0.82662 0.0
H248 H 0.13797 0.81421 0.67978 0.0
H249 H 0.13188 0.87522 0.70777 0.0
H250 H 0.2226 0.82178 0.76036 0.0
H251 H 0.22828 0.76019 0.73238 0.0
H252 H 0.18821 0.88716 0.77297 0.0
H253 H 0.156 0.93506 0.72544 0.0
H254 H 0.17943 0.00965 0.73085 0.0
H255 H 0.19535 0.06992 0.75857 0.0
C256 C 0.48342 0.69601 0.30204 0.0
C257 C 0.44769 0.71774 0.29362 0.0
C258 C 0.51796 0.69114 0.28562 0.0
C259 C 0.5176 0.70825 0.26046 0.0
C260 C 0.48126 0.72849 0.25169 0.0
C261 C 0.44642 0.73279 0.268 0.0
C262 C 0.55588 0.70903 0.24405 0.0
C263 C 0.5857 0.67934 0.24507 0.0
C264 C 0.62488 0.68209 0.2297 0.0
C265 C 0.64167 0.64567 0.2186 0.0
C266 C 0.67856 0.64745 0.20402 0.0
C267 C 0.70009 0.6855 0.20097 0.0
H268 H 0.63471 0.7486 0.23567 0.0
C269 C 0.68402 0.72177 0.21276 0.0
C270 C 0.64648 0.72018 0.2268 0.0
H271 H 0.69998 0.75149 0.21069 0.0
H272 H 0.48539 0.68426 0.32174 0.0
H273 H 0.54566 0.67604 0.29325 0.0
H274 H 0.48026 0.74209 0.23243 0.0
H275 H 0.41951 0.75005 0.26104 0.0
H276 H 0.55938 0.73478 0.23043 0.0
H277 H 0.58065 0.65134 0.2566 0.0
H278 H 0.62582 0.61591 0.22084 0.0
H279 H 0.69038 0.61895 0.19525 0.0
C280 C 0.83031 0.1793 0.69426 0.0
C281 C 0.80341 0.21291 0.70004 0.0
C282 C 0.83194 0.14418 0.7104 0.0
C283 C 0.80652 0.14183 0.7327 0.0
C284 C 0.78042 0.17588 0.73878 0.0
C285 C 0.77868 0.21095 0.72259 0.0
C286 C 0.80668 0.10485 0.75025 0.0
C287 C 0.8178 0.06592 0.74266 0.0
C288 C 0.814 0.02894 0.76003 0.0
C289 C 0.80517 0.98951 0.7492 0.0
C290 C 0.79711 0.95503 0.76521 0.0
C291 C 0.7982 0.95931 0.79239 0.0
H292 H 0.82634 0.06189 0.79618 0.0
C293 C 0.80999 0.99805 0.80314 0.0
C294 C 0.81789 0.03245 0.78716 0.0
H295 H 0.81167 0.00232 0.824 0.0
H296 H 0.85008 0.17995 0.67715 0.0
H297 H 0.85345 0.11928 0.70544 0.0
H298 H 0.76078 0.17512 0.75596 0.0
H299 H 0.75778 0.23638 0.72767 0.0
H300 H 0.79422 0.10952 0.76969 0.0
H301 H 0.82636 0.06014 0.72256 0.0
H302 H 0.80265 0.98578 0.72833 0.0
H303 H 0.78828 0.92559 0.75631 0.0
C304 C 0.83095 0.15661 0.29104 0.0
C305 C 0.79837 0.18468 0.28522 0.0
C306 C 0.86732 0.15554 0.2759 0.0
C307 C 0.87192 0.18261 0.25456 0.0
C308 C 0.83903 0.2101 0.24849 0.0
C309 C 0.80276 0.21135 0.26373 0.0
C310 C 0.90993 0.18253 0.23784 0.0
C311 C 0.94814 0.17017 0.24597 0.0
C312 C 0.98596 0.17411 0.22928 0.0
C313 C 0.02469 0.18388 0.24068 0.0
C314 C 0.05955 0.193 0.22514 0.0
C315 C 0.0563 0.19198 0.1979 0.0
H316 H 0.95476 0.16077 0.19274 0.0
C317 C 0.01844 0.17877 0.18663 0.0
C318 C 0.98367 0.1699 0.20213 0.0
H319 H 0.015 0.17709 0.16571 0.0
H320 H 0.82846 0.13543 0.30737 0.0
H321 H 0.89138 0.13308 0.28078 0.0
H322 H 0.84157 0.23106 0.23204 0.0
H323 H 0.77819 0.2332 0.25865 0.0
H324 H 0.90672 0.19599 0.21857 0.0
H325 H 0.95267 0.16065 0.26601 0.0
H326 H 0.02745 0.18664 0.2616 0.0
H327 H 0.0883 0.20292 0.23443 0.0
C328 C 0.31418 0.51619 0.70253 0.0
C329 C 0.28903 0.55075 0.70901 0.0
C330 C 0.31691 0.48183 0.71919 0.0
C331 C 0.29434 0.48125 0.74268 0.0
C332 C 0.27108 0.51678 0.7498 0.0
C333 C 0.26877 0.55141 0.73325 0.0
C334 C 0.29065 0.44255 0.75851 0.0
C335 C 0.3201 0.41244 0.75892 0.0
C336 C 0.31405 0.37203 0.77255 0.0
C337 C 0.34858 0.35249 0.78412 0.0
C338 C 0.34408 0.3138 0.79641 0.0
C339 C 0.30514 0.29328 0.79673 0.0
H340 H 0.248 0.36541 0.76351 0.0
C341 C 0.27068 0.3124 0.7847 0.0
C342 C 0.275 0.3516 0.77287 0.0
H343 H 0.24033 0.29728 0.78464 0.0
H344 H 0.33001 0.51469 0.68392 0.0
H345 H 0.33455 0.45482 0.71274 0.0
H346 H 0.25331 0.5171 0.76775 0.0
H347 H 0.24882 0.57742 0.73869 0.0
H348 H 0.26244 0.43863 0.7701 0.0
H349 H 0.35012 0.41778 0.74955 0.0
H350 H 0.37906 0.36736 0.78384 0.0
H351 H 0.37127 0.2997 0.80539 0.0
C352 C 0.18993 0.78623 0.2738 0.0
C353 C 0.19449 0.80871 0.29711 0.0
C354 C 0.15188 0.78679 0.26032 0.0
C355 C 0.11757 0.80984 0.26994 0.0
C356 C 0.12215 0.832 0.29331 0.0
C357 C 0.16022 0.83175 0.30664 0.0
C358 C 0.07609 0.80969 0.25684 0.0
C359 C 0.07165 0.80477 0.23099 0.0
C360 C 0.03053 0.802 0.21748 0.0
C361 C 0.02958 0.80797 0.19048 0.0
C362 C 0.99298 0.80068 0.17638 0.0
C363 C 0.95638 0.78696 0.18893 0.0
H364 H 0.99273 0.78447 0.25097 0.0
C365 C 0.95657 0.78294 0.21611 0.0
C366 C 0.99331 0.79022 0.23028 0.0
H367 H 0.929 0.77205 0.22633 0.0
H368 H 0.21564 0.76794 0.26605 0.0
H369 H 0.1492 0.76829 0.24276 0.0
H370 H 0.09617 0.84966 0.30129 0.0
H371 H 0.16256 0.84923 0.32464 0.0
H372 H 0.04872 0.81528 0.26887 0.0
H373 H 0.09953 0.80313 0.21892 0.0
H374 H 0.05766 0.81704 0.18009 0.0
H375 H 0.99395 0.80414 0.15545 0.0
C376 C 0.67898 0.48015 0.6957 0.0
C377 C 0.70351 0.44524 0.70227 0.0
C378 C 0.67648 0.51464 0.71237 0.0
C379 C 0.69874 0.51504 0.73595 0.0
C380 C 0.72143 0.47925 0.74313 0.0
C381 C 0.72346 0.44447 0.72659 0.0
C382 C 0.7026 0.55371 0.75188 0.0
C383 C 0.67318 0.58383 0.75254 0.0
C384 C 0.67921 0.62386 0.7667 0.0
C385 C 0.64494 0.6425 0.77919 0.0
C386 C 0.64955 0.68062 0.79225 0.0
C387 C 0.68829 0.70151 0.79239 0.0
H388 H 0.74481 0.63154 0.75676 0.0
C389 C 0.72243 0.68339 0.77934 0.0
C390 C 0.71805 0.6447 0.76679 0.0
H391 H 0.75262 0.69881 0.77914 0.0
H392 H 0.66343 0.48174 0.67703 0.0
H393 H 0.65927 0.54187 0.70591 0.0
H394 H 0.73894 0.47878 0.76114 0.0
H395 H 0.74295 0.41822 0.7321 0.0
H396 H 0.7308 0.55748 0.76347 0.0
H397 H 0.64316 0.57865 0.74318 0.0
H398 H 0.61462 0.62729 0.77912 0.0
H399 H 0.6226 0.69397 0.80201 0.0
C400 C 0.89921 0.57374 0.16893 0.0
C401 C 0.90121 0.60385 0.14914 0.0
C402 C 0.92528 0.53863 0.1681 0.0
C403 C 0.953 0.53282 0.14717 0.0
C404 C 0.95373 0.56205 0.12693 0.0
C405 C 0.92854 0.59762 0.12809 0.0
C406 C 0.98122 0.49635 0.14584 0.0
C407 C 0.00203 0.48225 0.16674 0.0
C408 C 0.03197 0.44709 0.16494 0.0
C409 C 0.06838 0.44758 0.18015 0.0
C410 C 0.09729 0.41482 0.17845 0.0
C411 C 0.08964 0.3806 0.16194 0.0
H412 H 0.99602 0.41115 0.13693 0.0
C413 C 0.0528 0.3799 0.14704 0.0
C414 C 0.02433 0.41286 0.14845 0.0
H415 H 0.04591 0.35386 0.13422 0.0
H416 H 0.87836 0.57788 0.18536 0.0
H417 H 0.9236 0.51599 0.1837 0.0
H418 H 0.97463 0.55789 0.11052 0.0
H419 H 0.93039 0.62026 0.11248 0.0
H420 H 0.98761 0.48302 0.12679 0.0
H421 H -0.00086 0.49859 0.18521 0.0
H422 H 0.07471 0.47357 0.19312 0.0
H423 H 0.12521 0.41599 0.19034 0.0
C424 C 0.91437 0.40197 0.64889 0.0
C425 C 0.87443 0.4142 0.64046 0.0
C426 C 0.94811 0.42964 0.64722 0.0
C427 C 0.94263 0.47001 0.63679 0.0
C428 C 0.90283 0.48189 0.62805 0.0
C429 C 0.86912 0.45432 0.62978 0.0
C430 C 0.97676 0.50148 0.63627 0.0
C431 C 0.0176 0.49144 0.63727 0.0
C432 C 0.05159 0.523 0.63869 0.0
C433 C 0.09226 0.51082 0.63176 0.0
C434 C 0.12566 0.5386 0.63434 0.0
C435 C 0.11914 0.57923 0.64407 0.0
H436 H 0.01435 0.57414 0.65458 0.0
C437 C 0.07837 0.5917 0.65074 0.0
C438 C 0.04494 0.56383 0.64823 0.0
H439 H 0.07238 0.62266 0.65851 0.0
H440 H 0.9194 0.37142 0.65741 0.0
H441 H 0.97791 0.41959 0.65495 0.0
H442 H 0.89765 0.51284 0.6201 0.0
H443 H 0.83874 0.46477 0.62309 0.0
H444 H 0.96759 0.53406 0.63451 0.0
H445 H 0.02694 0.4588 0.6365 0.0
H446 H 0.09832 0.47951 0.62454 0.0
H447 H 0.1567 0.52795 0.62901 0.0
C448 C 0.55198 0.11536 0.34711 0.0
C449 C 0.58843 0.11341 0.33185 0.0
C450 C 0.5228 0.08296 0.34643 0.0
C451 C 0.52935 0.04807 0.33029 0.0
C452 C 0.56551 0.04622 0.31484 0.0
C453 C 0.59513 0.07839 0.31583 0.0
C454 C 0.49841 0.01375 0.32895 0.0
C455 C 0.47719 0.00079 0.35001 0.0
C456 C 0.44833 0.96483 0.34894 0.0
C457 C 0.4498 0.93486 0.36873 0.0
C458 C 0.4247 0.89922 0.36736 0.0
C459 C 0.39674 0.89376 0.3466 0.0
H460 H 0.41762 0.98311 0.31316 0.0
C461 C 0.39375 0.92476 0.32742 0.0
C462 C 0.41976 0.95989 0.32841 0.0
H463 H 0.37242 0.92113 0.31122 0.0
H464 H 0.54586 0.14205 0.35957 0.0
H465 H 0.49474 0.0857 0.35814 0.0
H466 H 0.571 0.01968 0.30214 0.0
H467 H 0.62275 0.07628 0.30367 0.0
H468 H 0.49504 0.99697 0.31067 0.0
H469 H 0.4839 0.01435 0.36894 0.0
H470 H 0.4714 0.93834 0.38482 0.0
H471 H 0.42731 0.8758 0.38247 0.0
C472 C 0.3791 0.04254 0.84222 0.0
C473 C 0.37559 0.07911 0.82727 0.0
C474 C 0.41419 0.0169 0.83987 0.0
C475 C 0.44625 0.0271 0.8223 0.0
C476 C 0.44243 0.06308 0.80693 0.0
C477 C 0.40761 0.08924 0.80963 0.0
C478 C 0.4837 0.0003 0.81968 0.0
C479 C 0.50195 0.98277 0.84049 0.0
C480 C 0.54026 0.95724 0.83839 0.0
C481 C 0.57144 0.96173 0.8573 0.0
C482 C 0.60811 0.9382 0.85576 0.0
C483 C 0.61358 0.9088 0.83571 0.0
H484 H 0.52153 0.92329 0.80376 0.0
C485 C 0.58186 0.90345 0.81714 0.0
C486 C 0.54559 0.92784 0.8183 0.0
H487 H 0.58538 0.88094 0.80152 0.0
H488 H 0.35483 0.03383 0.85591 0.0
H489 H 0.41593 0.98882 0.85157 0.0
H490 H 0.46672 0.0713 0.79313 0.0
H491 H 0.4055 0.11703 0.79767 0.0
H492 H 0.49806 0.99717 0.80061 0.0
H493 H 0.49022 0.98976 0.85986 0.0
H494 H 0.56771 0.98398 0.87306 0.0
H495 H 0.63198 0.94265 0.87044 0.0
loop_
_geom_bond_atom_site_label_1
_geom_bond_atom_site_label_2
_geom_bond_distance
_geom_bond_site_symmetry_2
_ccdc_geom_bond_type
O0 Cd1 2.223 . S
O0 C8 1.315 . S
Cd1 O0 2.223 . S
Cd1 O4 2.297 . S
Cd1 O5 2.439 . S
Cd1 O11 2.240 . S
Cd2 O3 2.240 . S
Cd2 O10 2.223 . S
Cd2 O12 2.297 . S
Cd2 O13 2.439 . S
O3 Cd2 2.240 . S
O3 C8 1.279 . S
O4 Cd1 2.297 . S
O4 C6 1.247 . S
O5 Cd1 2.439 . S
O5 C6 1.208 . S
C6 O4 1.247 . S
C6 O5 1.208 . S
C7 O12 1.247 . S
C7 O13 1.208 . S
C8 O0 1.315 . S
C8 O3 1.279 . S
C9 O10 1.315 . S
C9 O11 1.279 . S
O10 Cd2 2.223 . S
O10 C9 1.315 . S
O11 Cd1 2.240 . S
O11 C9 1.279 . S
O12 Cd2 2.297 . S
O12 C7 1.247 . S
O13 Cd2 2.439 . S
O13 C7 1.208 . S
O14 Cd15 2.223 . S
O14 C22 1.315 . S
Cd15 O14 2.223 . S
Cd15 O18 2.297 . S
Cd15 O19 2.439 . S
Cd15 O25 2.240 . S
Cd16 O17 2.240 . S
Cd16 O24 2.223 . S
Cd16 O26 2.297 . S
Cd16 O27 2.439 . S
O17 Cd16 2.240 . S
O17 C22 1.279 . S
O18 Cd15 2.297 . S
O18 C20 1.247 . S
O19 Cd15 2.439 . S
O19 C20 1.208 . S
C20 O18 1.247 . S
C20 O19 1.208 . S
C21 O26 1.247 . S
C21 O27 1.208 . S
C22 O14 1.315 . S
C22 O17 1.279 . S
C23 O24 1.315 . S
C23 O25 1.279 . S
O24 Cd16 2.223 . S
O24 C23 1.315 . S
O25 Cd15 2.240 . S
O25 C23 1.279 . S
O26 Cd16 2.297 . S
O26 C21 1.247 . S
O27 Cd16 2.439 . S
O27 C21 1.208 . S
O28 Cd29 2.223 . S
O28 C36 1.315 . S
Cd29 O28 2.223 . S
Cd29 O32 2.297 . S
Cd29 O33 2.439 . S
Cd29 O39 2.240 . S
Cd30 O31 2.240 . S
Cd30 O38 2.223 . S
Cd30 O40 2.297 . S
Cd30 O41 2.439 . S
O31 Cd30 2.240 . S
O31 C36 1.279 . S
O32 Cd29 2.297 . S
O32 C34 1.247 . S
O33 Cd29 2.439 . S
O33 C34 1.208 . S
C34 O32 1.247 . S
C34 O33 1.208 . S
C35 O40 1.247 . S
C35 O41 1.208 . S
C36 O28 1.315 . S
C36 O31 1.279 . S
C37 O38 1.315 . S
C37 O39 1.279 . S
O38 Cd30 2.223 . S
O38 C37 1.315 . S
O39 Cd29 2.240 . S
O39 C37 1.279 . S
O40 Cd30 2.297 . S
O40 C35 1.247 . S
O41 Cd30 2.439 . S
O41 C35 1.208 . S
O42 Cd43 2.223 . S
O42 C50 1.315 . S
Cd43 O42 2.223 . S
Cd43 O46 2.297 . S
Cd43 O47 2.439 . S
Cd43 O53 2.240 . S
Cd44 O45 2.240 . S
Cd44 O52 2.223 . S
Cd44 O54 2.297 . S
Cd44 O55 2.439 . S
O45 Cd44 2.240 . S
O45 C50 1.279 . S
O46 Cd43 2.297 . S
O46 C48 1.247 . S
O47 Cd43 2.439 . S
O47 C48 1.208 . S
C48 O46 1.247 . S
C48 O47 1.208 . S
C49 O54 1.247 . S
C49 O55 1.208 . S
C50 O42 1.315 . S
C50 O45 1.279 . S
C51 O52 1.315 . S
C51 O53 1.279 . S
O52 Cd44 2.223 . S
O52 C51 1.315 . S
O53 Cd43 2.240 . S
O53 C51 1.279 . S
O54 Cd44 2.297 . S
O54 C49 1.247 . S
O55 Cd44 2.439 . S
O55 C49 1.208 . S
O56 Cd57 2.223 . S
O56 C64 1.315 . S
Cd57 O56 2.223 . S
Cd57 O60 2.297 . S
Cd57 O61 2.439 . S
Cd57 O67 2.240 . S
Cd58 O59 2.240 . S
Cd58 O66 2.223 . S
Cd58 O68 2.297 . S
Cd58 O69 2.439 . S
O59 Cd58 2.240 . S
O59 C64 1.279 . S
O60 Cd57 2.297 . S
O60 C62 1.247 . S
O61 Cd57 2.439 . S
O61 C62 1.208 . S
C62 O60 1.247 . S
C62 O61 1.208 . S
C63 O68 1.247 . S
C63 O69 1.208 . S
C64 O56 1.315 . S
C64 O59 1.279 . S
C65 O66 1.315 . S
C65 O67 1.279 . S
O66 Cd58 2.223 . S
O66 C65 1.315 . S
O67 Cd57 2.240 . S
O67 C65 1.279 . S
O68 Cd58 2.297 . S
O68 C63 1.247 . S
O69 Cd58 2.439 . S
O69 C63 1.208 . S
O70 Cd71 2.223 . S
O70 C78 1.315 . S
Cd71 O70 2.223 . S
Cd71 O74 2.297 . S
Cd71 O75 2.439 . S
Cd71 O81 2.240 . S
Cd72 O73 2.240 . S
Cd72 O80 2.223 . S
Cd72 O82 2.297 . S
Cd72 O83 2.439 . S
O73 Cd72 2.240 . S
O73 C78 1.279 . S
O74 Cd71 2.297 . S
O74 C76 1.247 . S
O75 Cd71 2.439 . S
O75 C76 1.208 . S
C76 O74 1.247 . S
C76 O75 1.208 . S
C77 O82 1.247 . S
C77 O83 1.208 . S
C78 O70 1.315 . S
C78 O73 1.279 . S
C79 O80 1.315 . S
C79 O81 1.279 . S
O80 Cd72 2.223 . S
O80 C79 1.315 . S
O81 Cd71 2.240 . S
O81 C79 1.279 . S
O82 Cd72 2.297 . S
O82 C77 1.247 . S
O83 Cd72 2.439 . S
O83 C77 1.208 . S
O84 Cd85 2.223 . S
O84 C92 1.315 . S
Cd85 O84 2.223 . S
Cd85 O88 2.297 . S
Cd85 O89 2.439 . S
Cd85 O95 2.240 . S
Cd86 O87 2.240 . S
Cd86 O94 2.223 . S
Cd86 O96 2.297 . S
Cd86 O97 2.439 . S
O87 Cd86 2.240 . S
O87 C92 1.279 . S
O88 Cd85 2.297 . S
O88 C90 1.247 . S
O89 Cd85 2.439 . S
O89 C90 1.208 . S
C90 O88 1.247 . S
C90 O89 1.208 . S
C91 O96 1.247 . S
C91 O97 1.208 . S
C92 O84 1.315 . S
C92 O87 1.279 . S
C93 O94 1.315 . S
C93 O95 1.279 . S
O94 Cd86 2.223 . S
O94 C93 1.315 . S
O95 Cd85 2.240 . S
O95 C93 1.279 . S
O96 Cd86 2.297 . S
O96 C91 1.247 . S
O97 Cd86 2.439 . S
O97 C91 1.208 . S
O98 Cd99 2.223 . S
O98 C106 1.315 . S
Cd99 O98 2.223 . S
Cd99 O102 2.297 . S
Cd99 O103 2.439 . S
Cd99 O109 2.240 . S
Cd100 O101 2.240 . S
Cd100 O108 2.223 . S
Cd100 O110 2.297 . S
Cd100 O111 2.439 . S
O101 Cd100 2.240 . S
O101 C106 1.279 . S
O102 Cd99 2.297 . S
O102 C104 1.247 . S
O103 Cd99 2.439 . S
O103 C104 1.208 . S
C104 O102 1.247 . S
C104 O103 1.208 . S
C105 O110 1.247 . S
C105 O111 1.208 . S
C106 O98 1.315 . S
C106 O101 1.279 . S
C107 O108 1.315 . S
C107 O109 1.279 . S
O108 Cd100 2.223 . S
O108 C107 1.315 . S
O109 Cd99 2.240 . S
O109 C107 1.279 . S
O110 Cd100 2.297 . S
O110 C105 1.247 . S
O111 Cd100 2.439 . S
O111 C105 1.208 . S
C112 C113 1.386 . S
C112 C114 1.383 . S
C112 H128 0.951 . S
C113 C112 1.386 . S
C113 C117 1.383 . S
C114 C112 1.383 . S
C114 C115 1.402 . S
C114 H129 0.951 . S
C115 C114 1.402 . S
C115 C116 1.375 . S
C115 C118 1.481 . S
C116 C115 1.375 . S
C116 C117 1.367 . S
C116 H130 0.951 . S
C117 C113 1.383 . S
C117 C116 1.367 . S
C117 H131 0.950 . S
C118 C115 1.481 . S
C118 C119 1.297 1_554 S
C118 H132 0.950 . S
C119 C118 1.297 1_556 S
C119 C120 1.479 . S
C119 H133 0.950 . S
C120 C119 1.479 . S
C120 C121 1.375 . S
C120 C126 1.404 . S
C121 C120 1.375 . S
C121 C122 1.369 . S
C121 H134 0.950 . S
C122 C121 1.369 . S
C122 C123 1.392 . S
C122 H135 0.951 . S
C123 C122 1.392 . S
C123 C125 1.384 . S
H124 C126 0.949 . S
C125 C123 1.384 . S
C125 C126 1.385 . S
C125 H127 0.950 . S
C126 C120 1.404 . S
C126 H124 0.949 . S
C126 C125 1.385 . S
H127 C125 0.950 . S
H128 C112 0.951 . S
H129 C114 0.951 . S
H130 C116 0.951 . S
H131 C117 0.950 . S
H132 C118 0.950 . S
H133 C119 0.950 . S
H134 C121 0.950 . S
H135 C122 0.951 . S
C136 C137 1.386 . S
C136 C138 1.383 . S
C136 H152 0.951 . S
C137 C136 1.386 . S
C137 C141 1.383 . S
C138 C136 1.383 . S
C138 C139 1.402 . S
C138 H153 0.951 . S
C139 C138 1.402 . S
C139 C140 1.375 . S
C139 C142 1.481 . S
C140 C139 1.375 . S
C140 C141 1.367 . S
C140 H154 0.951 . S
C141 C137 1.383 . S
C141 C140 1.367 . S
C141 H155 0.950 . S
C142 C139 1.481 . S
C142 C143 1.297 . S
C142 H156 0.950 . S
C143 C142 1.297 . S
C143 C144 1.479 . S
C143 H157 0.950 . S
C144 C143 1.479 . S
C144 C145 1.375 . S
C144 C150 1.404 . S
C145 C144 1.375 . S
C145 C146 1.369 . S
C145 H158 0.950 . S
C146 C145 1.369 . S
C146 C147 1.392 . S
C146 H159 0.951 . S
C147 C146 1.392 . S
C147 C149 1.384 . S
H148 C150 0.949 . S
C149 C147 1.384 . S
C149 C150 1.385 . S
C149 H151 0.950 . S
C150 C144 1.404 . S
C150 H148 0.949 . S
C150 C149 1.385 . S
H151 C149 0.950 . S
H152 C136 0.951 . S
H153 C138 0.951 . S
H154 C140 0.951 . S
H155 C141 0.950 . S
H156 C142 0.950 . S
H157 C143 0.950 . S
H158 C145 0.950 . S
H159 C146 0.951 . S
C160 C161 1.386 . S
C160 C162 1.383 . S
C160 H176 0.951 . S
C161 C160 1.386 . S
C161 C165 1.383 . S
C162 C160 1.383 . S
C162 C163 1.402 . S
C162 H177 0.951 . S
C163 C162 1.402 . S
C163 C164 1.375 . S
C163 C166 1.481 . S
C164 C163 1.375 . S
C164 C165 1.367 . S
C164 H178 0.951 . S
C165 C161 1.383 . S
C165 C164 1.367 . S
C165 H179 0.950 . S
C166 C163 1.481 . S
C166 C167 1.297 1_554 S
C166 H180 0.950 1_554 S
C167 C166 1.297 1_556 S
C167 C168 1.479 . S
C167 H181 0.950 . S
C168 C167 1.479 . S
C168 C169 1.375 . S
C168 C174 1.404 . S
C169 C168 1.375 . S
C169 C170 1.369 . S
C169 H182 0.950 . S
C170 C169 1.369 . S
C170 C171 1.392 . S
C170 H183 0.951 . S
C171 C170 1.392 . S
C171 C173 1.384 . S
H172 C174 0.949 . S
C173 C171 1.384 . S
C173 C174 1.385 . S
C173 H175 0.950 . S
C174 C168 1.404 . S
C174 H172 0.949 . S
C174 C173 1.385 . S
H175 C173 0.950 . S
H176 C160 0.951 . S
H177 C162 0.951 . S
H178 C164 0.951 . S
H179 C165 0.950 . S
H180 C166 0.950 1_556 S
H181 C167 0.950 . S
H182 C169 0.950 . S
H183 C170 0.951 . S
C184 C185 1.386 . S
C184 C186 1.383 . S
C184 H200 0.951 . S
C185 C184 1.386 . S
C185 C189 1.383 . S
C186 C184 1.383 . S
C186 C187 1.402 . S
C186 H201 0.951 . S
C187 C186 1.402 . S
C187 C188 1.375 . S
C187 C190 1.481 . S
C188 C187 1.375 . S
C188 C189 1.367 . S
C188 H202 0.951 . S
C189 C185 1.383 . S
C189 C188 1.367 . S
C189 H203 0.950 . S
C190 C187 1.481 . S
C190 C191 1.297 . S
C190 H204 0.950 . S
C191 C190 1.297 . S
C191 C192 1.479 . S
C191 H205 0.950 . S
C192 C191 1.479 . S
C192 C193 1.375 . S
C192 C198 1.404 . S
C193 C192 1.375 . S
C193 C194 1.369 . S
C193 H206 0.950 . S
C194 C193 1.369 . S
C194 C195 1.392 . S
C194 H207 0.951 . S
C195 C194 1.392 . S
C195 C197 1.384 . S
H196 C198 0.949 . S
C197 C195 1.384 . S
C197 C198 1.385 . S
C197 H199 0.950 . S
C198 C192 1.404 . S
C198 H196 0.949 . S
C198 C197 1.385 . S
H199 C197 0.950 . S
H200 C184 0.951 . S
H201 C186 0.951 . S
H202 C188 0.951 . S
H203 C189 0.950 . S
H204 C190 0.950 . S
H205 C191 0.950 . S
H206 C193 0.950 . S
H207 C194 0.951 . S
C208 C209 1.386 . S
C208 C210 1.383 . S
C208 H224 0.951 . S
C209 C208 1.386 . S
C209 C213 1.383 . S
C210 C208 1.383 . S
C210 C211 1.402 . S
C210 H225 0.951 . S
C211 C210 1.402 . S
C211 C212 1.375 . S
C211 C214 1.481 . S
C212 C211 1.375 . S
C212 C213 1.367 . S
C212 H226 0.951 . S
C213 C209 1.383 . S
C213 C212 1.367 . S
C213 H227 0.950 . S
C214 C211 1.481 . S
C214 C215 1.297 . S
C214 H228 0.950 . S
C215 C214 1.297 . S
C215 C216 1.479 . S
C215 H229 0.950 . S
C216 C215 1.479 . S
C216 C217 1.375 . S
C216 C222 1.404 . S
C217 C216 1.375 . S
C217 C218 1.369 . S
C217 H230 0.950 . S
C218 C217 1.369 . S
C218 C219 1.392 . S
C218 H231 0.951 . S
C219 C218 1.392 . S
C219 C221 1.384 . S
H220 C222 0.949 . S
C221 C219 1.384 . S
C221 C222 1.385 . S
C221 H223 0.950 . S
C222 C216 1.404 . S
C222 H220 0.949 . S
C222 C221 1.385 . S
H223 C221 0.950 . S
H224 C208 0.951 . S
H225 C210 0.951 . S
H226 C212 0.951 . S
H227 C213 0.950 . S
H228 C214 0.950 . S
H229 C215 0.950 . S
H230 C217 0.950 . S
H231 C218 0.951 . S
C232 C233 1.386 . S
C232 C234 1.383 . S
C232 H248 0.951 . S
C233 C232 1.386 . S
C233 C237 1.383 . S
C234 C232 1.383 . S
C234 C235 1.402 . S
C234 H249 0.951 . S
C235 C234 1.402 . S
C235 C236 1.375 . S
C235 C238 1.481 . S
C236 C235 1.375 . S
C236 C237 1.367 . S
C236 H250 0.951 . S
C237 C233 1.383 . S
C237 C236 1.367 . S
C237 H251 0.950 . S
C238 C235 1.481 . S
C238 C239 1.297 . S
C238 H252 0.950 . S
C239 C238 1.297 . S
C239 C240 1.479 . S
C239 H253 0.950 . S
C240 C239 1.479 . S
C240 C241 1.375 . S
C240 C246 1.404 . S
C241 C240 1.375 . S
C241 C242 1.369 1_565 S
C241 H254 0.950 . S
C242 C241 1.369 1_545 S
C242 C243 1.392 . S
C242 H255 0.951 . S
C243 C242 1.392 . S
C243 C245 1.384 1_545 S
H244 C246 0.949 . S
C245 C243 1.384 1_565 S
C245 C246 1.385 . S
C245 H247 0.950 . S
C246 C240 1.404 . S
C246 H244 0.949 . S
C246 C245 1.385 . S
H247 C245 0.950 . S
H248 C232 0.951 . S
H249 C234 0.951 . S
H250 C236 0.951 . S
H251 C237 0.950 . S
H252 C238 0.950 . S
H253 C239 0.950 . S
H254 C241 0.950 . S
H255 C242 0.951 . S
C256 C257 1.386 . S
C256 C258 1.383 . S
C256 H272 0.951 . S
C257 C256 1.386 . S
C257 C261 1.383 . S
C258 C256 1.383 . S
C258 C259 1.402 . S
C258 H273 0.951 . S
C259 C258 1.402 . S
C259 C260 1.375 . S
C259 C262 1.481 . S
C260 C259 1.375 . S
C260 C261 1.367 . S
C260 H274 0.951 . S
C261 C257 1.383 . S
C261 C260 1.367 . S
C261 H275 0.950 . S
C262 C259 1.481 . S
C262 C263 1.297 . S
C262 H276 0.950 . S
C263 C262 1.297 . S
C263 C264 1.479 . S
C263 H277 0.950 . S
C264 C263 1.479 . S
C264 C265 1.375 . S
C264 C270 1.404 . S
C265 C264 1.375 . S
C265 C266 1.369 . S
C265 H278 0.950 . S
C266 C265 1.369 . S
C266 C267 1.392 . S
C266 H279 0.951 . S
C267 C266 1.392 . S
C267 C269 1.384 . S
H268 C270 0.949 . S
C269 C267 1.384 . S
C269 C270 1.385 . S
C269 H271 0.950 . S
C270 C264 1.404 . S
C270 H268 0.949 . S
C270 C269 1.385 . S
H271 C269 0.950 . S
H272 C256 0.951 . S
H273 C258 0.951 . S
H274 C260 0.951 . S
H275 C261 0.950 . S
H276 C262 0.950 . S
H277 C263 0.950 . S
H278 C265 0.950 . S
H279 C266 0.951 . S
C280 C281 1.386 . S
C280 C282 1.383 . S
C280 H296 0.951 . S
C281 C280 1.386 . S
C281 C285 1.383 . S
C282 C280 1.383 . S
C282 C283 1.402 . S
C282 H297 0.951 . S
C283 C282 1.402 . S
C283 C284 1.375 . S
C283 C286 1.481 . S
C284 C283 1.375 . S
C284 C285 1.367 . S
C284 H298 0.951 . S
C285 C281 1.383 . S
C285 C284 1.367 . S
C285 H299 0.950 . S
C286 C283 1.481 . S
C286 C287 1.297 . S
C286 H300 0.950 . S
C287 C286 1.297 . S
C287 C288 1.479 . S
C287 H301 0.950 . S
C288 C287 1.479 . S
C288 C289 1.375 . S
C288 C294 1.404 . S
C289 C288 1.375 . S
C289 C290 1.369 1_545 S
C289 H302 0.950 . S
C290 C289 1.369 1_565 S
C290 C291 1.392 . S
C290 H303 0.951 . S
C291 C290 1.392 . S
C291 C293 1.384 1_565 S
H292 C294 0.949 . S
C293 C291 1.384 1_545 S
C293 C294 1.385 . S
C293 H295 0.950 . S
C294 C288 1.404 . S
C294 H292 0.949 . S
C294 C293 1.385 . S
H295 C293 0.950 . S
H296 C280 0.951 . S
H297 C282 0.951 . S
H298 C284 0.951 . S
H299 C285 0.950 . S
H300 C286 0.950 . S
H301 C287 0.950 . S
H302 C289 0.950 . S
H303 C290 0.951 . S
C304 C305 1.386 . S
C304 C306 1.383 . S
C304 H320 0.951 . S
C305 C304 1.386 . S
C305 C309 1.383 . S
C306 C304 1.383 . S
C306 C307 1.402 . S
C306 H321 0.951 . S
C307 C306 1.402 . S
C307 C308 1.375 . S
C307 C310 1.481 . S
C308 C307 1.375 . S
C308 C309 1.367 . S
C308 H322 0.951 . S
C309 C305 1.383 . S
C309 C308 1.367 . S
C309 H323 0.950 . S
C310 C307 1.481 . S
C310 C311 1.297 . S
C310 H324 0.950 . S
C311 C310 1.297 . S
C311 C312 1.479 . S
C311 H325 0.950 . S
C312 C311 1.479 . S
C312 C313 1.375 . S
C312 C318 1.404 . S
C313 C312 1.375 . S
C313 C314 1.369 1_655 S
C313 H326 0.950 . S
C314 C313 1.369 1_455 S
C314 C315 1.392 . S
C314 H327 0.951 . S
C315 C314 1.392 . S
C315 C317 1.384 1_455 S
H316 C318 0.949 . S
C317 C315 1.384 1_655 S
C317 C318 1.385 . S
C317 H319 0.950 . S
C318 C312 1.404 . S
C318 H316 0.949 . S
C318 C317 1.385 . S
H319 C317 0.950 . S
H320 C304 0.951 . S
H321 C306 0.951 . S
H322 C308 0.951 . S
H323 C309 0.950 . S
H324 C310 0.950 . S
H325 C311 0.950 . S
H326 C313 0.950 . S
H327 C314 0.951 . S
C328 C329 1.386 . S
C328 C330 1.383 . S
C328 H344 0.951 . S
C329 C328 1.386 . S
C329 C333 1.383 . S
C330 C328 1.383 . S
C330 C331 1.402 . S
C330 H345 0.951 . S
C331 C330 1.402 . S
C331 C332 1.375 . S
C331 C334 1.481 . S
C332 C331 1.375 . S
C332 C333 1.367 . S
C332 H346 0.951 . S
C333 C329 1.383 . S
C333 C332 1.367 . S
C333 H347 0.950 . S
C334 C331 1.481 . S
C334 C335 1.297 . S
C334 H348 0.950 . S
C335 C334 1.297 . S
C335 C336 1.479 . S
C335 H349 0.950 . S
C336 C335 1.479 . S
C336 C337 1.375 . S
C336 C342 1.404 . S
C337 C336 1.375 . S
C337 C338 1.369 . S
C337 H350 0.950 . S
C338 C337 1.369 . S
C338 C339 1.392 . S
C338 H351 0.951 . S
C339 C338 1.392 . S
C339 C341 1.384 . S
H340 C342 0.949 . S
C341 C339 1.384 . S
C341 C342 1.385 . S
C341 H343 0.950 . S
C342 C336 1.404 . S
C342 H340 0.949 . S
C342 C341 1.385 . S
H343 C341 0.950 . S
H344 C328 0.951 . S
H345 C330 0.951 . S
H346 C332 0.951 . S
H347 C333 0.950 . S
H348 C334 0.950 . S
H349 C335 0.950 . S
H350 C337 0.950 . S
H351 C338 0.951 . S
C352 C353 1.386 . S
C352 C354 1.383 . S
C352 H368 0.951 . S
C353 C352 1.386 . S
C353 C357 1.383 . S
C354 C352 1.383 . S
C354 C355 1.402 . S
C354 H369 0.951 . S
C355 C354 1.402 . S
C355 C356 1.375 . S
C355 C358 1.481 . S
C356 C355 1.375 . S
C356 C357 1.367 . S
C356 H370 0.951 . S
C357 C353 1.383 . S
C357 C356 1.367 . S
C357 H371 0.950 . S
C358 C355 1.481 . S
C358 C359 1.297 . S
C358 H372 0.950 . S
C359 C358 1.297 . S
C359 C360 1.479 . S
C359 H373 0.950 . S
C360 C359 1.479 . S
C360 C361 1.375 . S
C360 C366 1.404 . S
C361 C360 1.375 . S
C361 C362 1.369 . S
C361 H374 0.950 . S
C362 C361 1.369 . S
C362 C363 1.392 1_455 S
C362 H375 0.951 . S
C363 C362 1.392 1_655 S
C363 C365 1.384 . S
H364 C366 0.949 . S
C365 C363 1.384 . S
C365 C366 1.385 1_655 S
C365 H367 0.950 . S
C366 C360 1.404 . S
C366 H364 0.949 . S
C366 C365 1.385 1_455 S
H367 C365 0.950 . S
H368 C352 0.951 . S
H369 C354 0.951 . S
H370 C356 0.951 . S
H371 C357 0.950 . S
H372 C358 0.950 . S
H373 C359 0.950 . S
H374 C361 0.950 . S
H375 C362 0.951 . S
C376 C377 1.386 . S
C376 C378 1.383 . S
C376 H392 0.951 . S
C377 C376 1.386 . S
C377 C381 1.383 . S
C378 C376 1.383 . S
C378 C379 1.402 . S
C378 H393 0.951 . S
C379 C378 1.402 . S
C379 C380 1.375 . S
C379 C382 1.481 . S
C380 C379 1.375 . S
C380 C381 1.367 . S
C380 H394 0.951 . S
C381 C377 1.383 . S
C381 C380 1.367 . S
C381 H395 0.950 . S
C382 C379 1.481 . S
C382 C383 1.297 . S
C382 H396 0.950 . S
C383 C382 1.297 . S
C383 C384 1.479 . S
C383 H397 0.950 . S
C384 C383 1.479 . S
C384 C385 1.375 . S
C384 C390 1.404 . S
C385 C384 1.375 . S
C385 C386 1.369 . S
C385 H398 0.950 . S
C386 C385 1.369 . S
C386 C387 1.392 . S
C386 H399 0.951 . S
C387 C386 1.392 . S
C387 C389 1.384 . S
H388 C390 0.949 . S
C389 C387 1.384 . S
C389 C390 1.385 . S
C389 H391 0.950 . S
C390 C384 1.404 . S
C390 H388 0.949 . S
C390 C389 1.385 . S
H391 C389 0.950 . S
H392 C376 0.951 . S
H393 C378 0.951 . S
H394 C380 0.951 . S
H395 C381 0.950 . S
H396 C382 0.950 . S
H397 C383 0.950 . S
H398 C385 0.950 . S
H399 C386 0.951 . S
C400 C401 1.386 . S
C400 C402 1.383 . S
C400 H416 0.951 . S
C401 C400 1.386 . S
C401 C405 1.383 . S
C402 C400 1.383 . S
C402 C403 1.402 . S
C402 H417 0.951 . S
C403 C402 1.402 . S
C403 C404 1.375 . S
C403 C406 1.481 . S
C404 C403 1.375 . S
C404 C405 1.367 . S
C404 H418 0.951 . S
C405 C401 1.383 . S
C405 C404 1.367 . S
C405 H419 0.950 . S
C406 C403 1.481 . S
C406 C407 1.297 . S
C406 H420 0.950 . S
C407 C406 1.297 . S
C407 C408 1.479 1_655 S
C407 H421 0.950 . S
C408 C407 1.479 1_455 S
C408 C409 1.375 . S
C408 C414 1.404 . S
C409 C408 1.375 . S
C409 C410 1.369 . S
C409 H422 0.950 . S
C410 C409 1.369 . S
C410 C411 1.392 . S
C410 H423 0.951 . S
C411 C410 1.392 . S
C411 C413 1.384 . S
H412 C414 0.949 . S
C413 C411 1.384 . S
C413 C414 1.385 . S
C413 H415 0.950 . S
C414 C408 1.404 . S
C414 H412 0.949 . S
C414 C413 1.385 . S
H415 C413 0.950 . S
H416 C400 0.951 . S
H417 C402 0.951 . S
H418 C404 0.951 . S
H419 C405 0.950 . S
H420 C406 0.950 . S
H421 C407 0.950 . S
H422 C409 0.950 . S
H423 C410 0.951 . S
C424 C425 1.386 . S
C424 C426 1.383 . S
C424 H440 0.951 . S
C425 C424 1.386 . S
C425 C429 1.383 . S
C426 C424 1.383 . S
C426 C427 1.402 . S
C426 H441 0.951 . S
C427 C426 1.402 . S
C427 C428 1.375 . S
C427 C430 1.481 . S
C428 C427 1.375 . S
C428 C429 1.367 . S
C428 H442 0.951 . S
C429 C425 1.383 . S
C429 C428 1.367 . S
C429 H443 0.950 . S
C430 C427 1.481 . S
C430 C431 1.297 1_655 S
C430 H444 0.950 . S
C431 C430 1.297 1_455 S
C431 C432 1.479 . S
C431 H445 0.950 . S
C432 C431 1.479 . S
C432 C433 1.375 . S
C432 C438 1.404 . S
C433 C432 1.375 . S
C433 C434 1.369 . S
C433 H446 0.950 . S
C434 C433 1.369 . S
C434 C435 1.392 . S
C434 H447 0.951 . S
C435 C434 1.392 . S
C435 C437 1.384 . S
H436 C438 0.949 . S
C437 C435 1.384 . S
C437 C438 1.385 . S
C437 H439 0.950 . S
C438 C432 1.404 . S
C438 H436 0.949 . S
C438 C437 1.385 . S
H439 C437 0.950 . S
H440 C424 0.951 . S
H441 C426 0.951 . S
H442 C428 0.951 . S
H443 C429 0.950 . S
H444 C430 0.950 . S
H445 C431 0.950 . S
H446 C433 0.950 . S
H447 C434 0.951 . S
C448 C449 1.386 . S
C448 C450 1.383 . S
C448 H464 0.951 . S
C449 C448 1.386 . S
C449 C453 1.383 . S
C450 C448 1.383 . S
C450 C451 1.402 . S
C450 H465 0.951 . S
C451 C450 1.402 . S
C451 C452 1.375 . S
C451 C454 1.481 . S
C452 C451 1.375 . S
C452 C453 1.367 . S
C452 H466 0.951 . S
C453 C449 1.383 . S
C453 C452 1.367 . S
C453 H467 0.950 . S
C454 C451 1.481 . S
C454 C455 1.297 . S
C454 H468 0.950 1_545 S
C455 C454 1.297 . S
C455 C456 1.479 1_545 S
C455 H469 0.950 . S
C456 C455 1.479 1_565 S
C456 C457 1.375 . S
C456 C462 1.404 . S
C457 C456 1.375 . S
C457 C458 1.369 . S
C457 H470 0.950 . S
C458 C457 1.369 . S
C458 C459 1.392 . S
C458 H471 0.951 . S
C459 C458 1.392 . S
C459 C461 1.384 . S
H460 C462 0.949 . S
C461 C459 1.384 . S
C461 C462 1.385 . S
C461 H463 0.950 . S
C462 C456 1.404 . S
C462 H460 0.949 . S
C462 C461 1.385 . S
H463 C461 0.950 . S
H464 C448 0.951 . S
H465 C450 0.951 . S
H466 C452 0.951 . S
H467 C453 0.950 . S
H468 C454 0.950 1_565 S
H469 C455 0.950 . S
H470 C457 0.950 . S
H471 C458 0.951 . S
C472 C473 1.386 . S
C472 C474 1.383 . S
C472 H488 0.951 . S
C473 C472 1.386 . S
C473 C477 1.383 . S
C474 C472 1.383 . S
C474 C475 1.402 . S
C474 H489 0.951 . S
C475 C474 1.402 . S
C475 C476 1.375 . S
C475 C478 1.481 . S
C476 C475 1.375 . S
C476 C477 1.367 . S
C476 H490 0.951 . S
C477 C473 1.383 . S
C477 C476 1.367 . S
C477 H491 0.950 . S
C478 C475 1.481 . S
C478 C479 1.297 1_545 S
C478 H492 0.950 . S
C479 C478 1.297 1_565 S
C479 C480 1.479 . S
C479 H493 0.950 . S
C480 C479 1.479 . S
C480 C481 1.375 . S
C480 C486 1.404 . S
C481 C480 1.375 . S
C481 C482 1.369 . S
C481 H494 0.950 . S
C482 C481 1.369 . S
C482 C483 1.392 . S
C482 H495 0.951 . S
C483 C482 1.392 . S
C483 C485 1.384 . S
H484 C486 0.949 . S
C485 C483 1.384 . S
C485 C486 1.385 . S
C485 H487 0.950 . S
C486 C480 1.404 . S
C486 H484 0.949 . S
C486 C485 1.385 . S
H487 C485 0.950 . S
H488 C472 0.951 . S
H489 C474 0.951 . S
H490 C476 0.951 . S
H491 C477 0.950 . S
H492 C478 0.950 . S
H493 C479 0.950 . S
H494 C481 0.950 . S
H495 C482 0.951 . S
C113 C8 1.495 . S
C123 C78 1.463 . S
C137 C22 1.517 . S
C147 C92 1.514 . S
C161 C36 1.506 . S
C171 C106 1.478 . S
C185 C64 1.502 . S
C195 C50 1.472 . S
C209 C6 1.459 . S
C219 C63 1.514 . S
C233 C20 1.494 . S
C243 C77 1.446 . S
C257 C91 1.503 . S
C267 C34 1.446 . S
C281 C48 1.495 . S
C291 C105 1.445 . S
C305 C62 1.497 . S
C315 C7 1.443 . S
C329 C21 1.489 . S
C339 C76 1.476 . S
C353 C90 1.501 . S
C363 C35 1.447 . S
C377 C49 1.491 . S
C387 C104 1.472 . S
C401 C37 0.912 . S
C411 C9 0.765 . S
C425 C51 0.852 . S
C435 C23 0.865 . S
C449 C65 0.823 . S
C459 C93 0.936 . S
C473 C79 0.834 . S
C483 C107 0.922 . S
