# Generated by pormake.
# Topology umk, (4)-cn, num edge types: 1
# Building blocks:
#     Node 0, Type 0, BuildingBlock: CEKHIL_clean_sbu_0, # of connection points: 4
#     Node 1, Type 0, BuildingBlock: CEKHIL_clean_sbu_0, # of connection points: 4
#     Node 2, Type 0, BuildingBlock: CEKHIL_clean_sbu_0, # of connection points: 4
#     Node 3, Type 0, BuildingBlock: CEKHIL_clean_sbu_0, # of connection points: 4
#     Node 4, Type 0, BuildingBlock: CEKHIL_clean_sbu_0, # of connection points: 4
#     Node 5, Type 0, BuildingBlock: CEKHIL_clean_sbu_0, # of connection points: 4
#     Node 6, Type 0, BuildingBlock: CEKHIL_clean_sbu_0, # of connection points: 4
#     Node 7, Type 0, BuildingBlock: CEKHIL_clean_sbu_0, # of connection points: 4
#     Node 8, Type 0, BuildingBlock: CEKHIL_clean_sbu_0, # of connection points: 4
#     Node 9, Type 0, BuildingBlock: CEKHIL_clean_sbu_0, # of connection points: 4
#     Node 10, Type 0, BuildingBlock: CEKHIL_clean_sbu_0, # of connection points: 4
#     Node 11, Type 0, BuildingBlock: CEKHIL_clean_sbu_0, # of connection points: 4
#     Node 12, Type 0, BuildingBlock: CEKHIL_clean_sbu_0, # of connection points: 4
#     Node 13, Type 0, BuildingBlock: CEKHIL_clean_sbu_0, # of connection points: 4
#     Node 14, Type 0, BuildingBlock: CEKHIL_clean_sbu_0, # of connection points: 4
#     Node 15, Type 0, BuildingBlock: CEKHIL_clean_sbu_0, # of connection points: 4
#     Node 16, Type 0, BuildingBlock: CEKHIL_clean_sbu_0, # of connection points: 4
#     Node 17, Type 0, BuildingBlock: CEKHIL_clean_sbu_0, # of connection points: 4
#     Node 18, Type 0, BuildingBlock: CEKHIL_clean_sbu_0, # of connection points: 4
#     Node 19, Type 0, BuildingBlock: CEKHIL_clean_sbu_0, # of connection points: 4
#     Node 20, Type 0, BuildingBlock: CEKHIL_clean_sbu_0, # of connection points: 4
#     Node 21, Type 0, BuildingBlock: CEKHIL_clean_sbu_0, # of connection points: 4
#     Node 22, Type 0, BuildingBlock: CEKHIL_clean_sbu_0, # of connection points: 4
#     Node 23, Type 0, BuildingBlock: CEKHIL_clean_sbu_0, # of connection points: 4
#     Edge 24, Type (0, 0), BuildingBlock: ZUJKAS_clean_linker_0, # of connection points: 2
#     Edge 25, Type (0, 0), BuildingBlock: ZUJKAS_clean_linker_0, # of connection points: 2
#     Edge 26, Type (0, 0), BuildingBlock: ZUJKAS_clean_linker_0, # of connection points: 2
#     Edge 27, Type (0, 0), BuildingBlock: ZUJKAS_clean_linker_0, # of connection points: 2
#     Edge 28, Type (0, 0), BuildingBlock: ZUJKAS_clean_linker_0, # of connection points: 2
#     Edge 29, Type (0, 0), BuildingBlock: ZUJKAS_clean_linker_0, # of connection points: 2
#     Edge 30, Type (0, 0), BuildingBlock: ZUJKAS_clean_linker_0, # of connection points: 2
#     Edge 31, Type (0, 0), BuildingBlock: ZUJKAS_clean_linker_0, # of connection points: 2
#     Edge 32, Type (0, 0), BuildingBlock: ZUJKAS_clean_linker_0, # of connection points: 2
#     Edge 33, Type (0, 0), BuildingBlock: ZUJKAS_clean_linker_0, # of connection points: 2
#     Edge 34, Type (0, 0), BuildingBlock: ZUJKAS_clean_linker_0, # of connection points: 2
#     Edge 35, Type (0, 0), BuildingBlock: ZUJKAS_clean_linker_0, # of connection points: 2
#     Edge 36, Type (0, 0), BuildingBlock: ZUJKAS_clean_linker_0, # of connection points: 2
#     Edge 37, Type (0, 0), BuildingBlock: ZUJKAS_clean_linker_0, # of connection points: 2
#     Edge 38, Type (0, 0), BuildingBlock: ZUJKAS_clean_linker_0, # of connection points: 2
#     Edge 39, Type (0, 0), BuildingBlock: ZUJKAS_clean_linker_0, # of connection points: 2
#     Edge 40, Type (0, 0), BuildingBlock: ZUJKAS_clean_linker_0, # of connection points: 2
#     Edge 41, Type (0, 0), BuildingBlock: ZUJKAS_clean_linker_0, # of connection points: 2
#     Edge 42, Type (0, 0), BuildingBlock: ZUJKAS_clean_linker_0, # of connection points: 2
#     Edge 43, Type (0, 0), BuildingBlock: ZUJKAS_clean_linker_0, # of connection points: 2
#     Edge 44, Type (0, 0), BuildingBlock: ZUJKAS_clean_linker_0, # of connection points: 2
#     Edge 45, Type (0, 0), BuildingBlock: ZUJKAS_clean_linker_0, # of connection points: 2
#     Edge 46, Type (0, 0), BuildingBlock: ZUJKAS_clean_linker_0, # of connection points: 2
#     Edge 47, Type (0, 0), BuildingBlock: ZUJKAS_clean_linker_0, # of connection points: 2
#     Edge 48, Type (0, 0), BuildingBlock: ZUJKAS_clean_linker_0, # of connection points: 2
#     Edge 49, Type (0, 0), BuildingBlock: ZUJKAS_clean_linker_0, # of connection points: 2
#     Edge 50, Type (0, 0), BuildingBlock: ZUJKAS_clean_linker_0, # of connection points: 2
#     Edge 51, Type (0, 0), BuildingBlock: ZUJKAS_clean_linker_0, # of connection points: 2
#     Edge 52, Type (0, 0), BuildingBlock: ZUJKAS_clean_linker_0, # of connection points: 2
#     Edge 53, Type (0, 0), BuildingBlock: ZUJKAS_clean_linker_0, # of connection points: 2
#     Edge 54, Type (0, 0), BuildingBlock: ZUJKAS_clean_linker_0, # of connection points: 2
#     Edge 55, Type (0, 0), BuildingBlock: ZUJKAS_clean_linker_0, # of connection points: 2
#     Edge 56, Type (0, 0), BuildingBlock: ZUJKAS_clean_linker_0, # of connection points: 2
#     Edge 57, Type (0, 0), BuildingBlock: ZUJKAS_clean_linker_0, # of connection points: 2
#     Edge 58, Type (0, 0), BuildingBlock: ZUJKAS_clean_linker_0, # of connection points: 2
#     Edge 59, Type (0, 0), BuildingBlock: ZUJKAS_clean_linker_0, # of connection points: 2
#     Edge 60, Type (0, 0), BuildingBlock: ZUJKAS_clean_linker_0, # of connection points: 2
#     Edge 61, Type (0, 0), BuildingBlock: ZUJKAS_clean_linker_0, # of connection points: 2
#     Edge 62, Type (0, 0), BuildingBlock: ZUJKAS_clean_linker_0, # of connection points: 2
#     Edge 63, Type (0, 0), BuildingBlock: ZUJKAS_clean_linker_0, # of connection points: 2
#     Edge 64, Type (0, 0), BuildingBlock: ZUJKAS_clean_linker_0, # of connection points: 2
#     Edge 65, Type (0, 0), BuildingBlock: ZUJKAS_clean_linker_0, # of connection points: 2
#     Edge 66, Type (0, 0), BuildingBlock: ZUJKAS_clean_linker_0, # of connection points: 2
#     Edge 67, Type (0, 0), BuildingBlock: ZUJKAS_clean_linker_0, # of connection points: 2
#     Edge 68, Type (0, 0), BuildingBlock: ZUJKAS_clean_linker_0, # of connection points: 2
#     Edge 69, Type (0, 0), BuildingBlock: ZUJKAS_clean_linker_0, # of connection points: 2
#     Edge 70, Type (0, 0), BuildingBlock: ZUJKAS_clean_linker_0, # of connection points: 2
#     Edge 71, Type (0, 0), BuildingBlock: ZUJKAS_clean_linker_0, # of connection points: 2
# Relax obj value: 0.069
# Max RMSD: 0.047
# Mean RMSD: 0.047
data_MOF--net-umk--node1-CEKHIL_clean_sbu_0--edge1-ZUJKAS_clean_linker_0
_symmetry_space_group_name_H-M    P1
_symmetry_Int_Tables_number       1
_symmetry_cell_setting            triclinic
loop_
_symmetry_equiv_pos_as_xyz
'x, y, z'
_cell_length_a     85.288089
_cell_length_b     85.392378
_cell_length_c     55.961592
_cell_angle_alpha  89.999045
_cell_angle_beta   89.999142
_cell_angle_gamma 120.14017
loop_
_atom_site_label
_atom_site_type_symbol
_atom_site_fract_x
_atom_site_fract_y
_atom_site_fract_z
_atom_type_partial_charge
Co0 Co 0.3346 0.46834 0.08597 0.0
O1 O 0.31979 0.47928 0.08119 0.0
O2 O 0.32069 0.45958 0.05651 0.0
C3 C 0.32707 0.46131 0.12489 0.0
O4 O 0.34764 0.45356 0.0856 0.0
Co5 Co 0.36605 0.48421 0.12314 0.0
O6 O 0.36519 0.46081 0.11841 0.0
C7 C 0.37052 0.50294 0.07694 0.0
C8 C 0.31377 0.46969 0.06188 0.0
C9 C 0.35786 0.45089 0.10011 0.0
O10 O 0.35563 0.48946 0.06892 0.0
O11 O 0.37596 0.50384 0.09849 0.0
O12 O 0.31648 0.45068 0.1082 0.0
O13 O 0.34083 0.47614 0.11753 0.0
Co14 Co 0.86963 0.33288 0.58637 0.0
O15 O 0.84383 0.31748 0.58235 0.0
O16 O 0.86427 0.31923 0.55662 0.0
C17 C 0.86996 0.32528 0.62507 0.0
O18 O 0.89753 0.34665 0.58529 0.0
Co19 Co 0.88491 0.36407 0.62391 0.0
O20 O 0.90769 0.36373 0.61853 0.0
C21 C 0.86976 0.36825 0.57831 0.0
C22 C 0.84725 0.31179 0.56264 0.0
C23 C 0.91042 0.35685 0.59987 0.0
O24 O 0.86869 0.35363 0.56994 0.0
O25 O 0.87443 0.37361 0.59986 0.0
O26 O 0.87007 0.31496 0.60808 0.0
O27 O 0.86833 0.33877 0.61813 0.0
Co28 Co 0.54081 0.86839 0.08616 0.0
O29 O 0.53042 0.84263 0.08196 0.0
O30 O 0.54956 0.86325 0.05671 0.0
C31 C 0.54843 0.86885 0.12504 0.0
O32 O 0.55498 0.89626 0.0852 0.0
Co33 Co 0.52427 0.88344 0.12303 0.0
O34 O 0.54733 0.90642 0.11777 0.0
C35 C 0.5053 0.86786 0.07739 0.0
C36 C 0.53982 0.84622 0.06246 0.0
C37 C 0.55732 0.90914 0.09951 0.0
O38 O 0.51922 0.86737 0.06922 0.0
O39 O 0.50424 0.87229 0.09894 0.0
O40 O 0.55899 0.8689 0.10827 0.0
O41 O 0.53327 0.86706 0.11781 0.0
Co42 Co 0.67722 0.53935 0.58555 0.0
O43 O 0.69269 0.52915 0.58088 0.0
O44 O 0.69134 0.54866 0.55629 0.0
C45 C 0.68421 0.54621 0.62462 0.0
O46 O 0.6634 0.55337 0.58523 0.0
Co47 Co 0.64537 0.52193 0.6221 0.0
O48 O 0.64511 0.5448 0.61743 0.0
C49 C 0.64234 0.50389 0.57584 0.0
C50 C 0.69863 0.53888 0.56166 0.0
C51 C 0.65252 0.5552 0.59955 0.0
O52 O 0.65674 0.51805 0.56802 0.0
O53 O 0.63675 0.50235 0.59742 0.0
O54 O 0.69479 0.55715 0.60816 0.0
O55 O 0.67087 0.5312 0.61694 0.0
Co56 Co 0.14058 0.67515 0.08506 0.0
O57 O 0.16642 0.69013 0.08049 0.0
O58 O 0.1458 0.68925 0.05578 0.0
C59 C 0.14086 0.68228 0.1241 0.0
O60 O 0.1127 0.66198 0.08444 0.0
Co61 Co 0.12478 0.64341 0.12171 0.0
O62 O 0.1022 0.64427 0.11707 0.0
C63 C 0.13941 0.63946 0.07549 0.0
C64 C 0.16287 0.69621 0.06122 0.0
C65 C 0.0997 0.65168 0.09882 0.0
O66 O 0.14083 0.65437 0.0677 0.0
O67 O 0.13471 0.6338 0.09694 0.0
O68 O 0.14085 0.69298 0.10758 0.0
O69 O 0.14201 0.66865 0.11651 0.0
Co70 Co 0.47103 0.14065 0.58632 0.0
O71 O 0.48076 0.16637 0.58326 0.0
O72 O 0.46259 0.14621 0.55685 0.0
C73 C 0.46273 0.1391 0.62507 0.0
O74 O 0.45756 0.1128 0.5844 0.0
Co75 Co 0.48803 0.12584 0.62289 0.0
O76 O 0.46541 0.10263 0.61679 0.0
C77 C 0.50727 0.1426 0.57788 0.0
C78 C 0.47175 0.1631 0.56348 0.0
C79 C 0.45548 0.09986 0.59844 0.0
O80 O 0.49318 0.14271 0.56964 0.0
O81 O 0.50831 0.13796 0.59932 0.0
O82 O 0.45223 0.13906 0.60822 0.0
O83 O 0.47817 0.14153 0.61804 0.0
Co84 Co 0.54112 0.67551 0.9177 0.0
O85 O 0.5306 0.69069 0.92242 0.0
O86 O 0.55018 0.68949 0.94708 0.0
C87 C 0.54811 0.68273 0.8787 0.0
O88 O 0.55543 0.66199 0.91801 0.0
Co89 Co 0.52423 0.64389 0.88078 0.0
O90 O 0.54732 0.64402 0.88553 0.0
C91 C 0.50571 0.64054 0.92677 0.0
C92 C 0.54024 0.69661 0.94172 0.0
C93 C 0.55756 0.65139 0.90357 0.0
O94 O 0.51982 0.65481 0.93495 0.0
O95 O 0.50437 0.63518 0.9051 0.0
O96 O 0.55892 0.6933 0.89526 0.0
O97 O 0.53314 0.66925 0.88624 0.0
Co98 Co 0.87021 0.53903 0.41671 0.0
O99 O 0.84451 0.52889 0.42152 0.0
O100 O 0.86558 0.54856 0.44586 0.0
C101 C 0.87001 0.54564 0.37755 0.0
O102 O 0.89813 0.55302 0.41681 0.0
Co103 Co 0.88426 0.52121 0.38036 0.0
O104 O 0.90763 0.54397 0.38491 0.0
C105 C 0.86939 0.50358 0.42689 0.0
C106 C 0.84843 0.53874 0.44063 0.0
C107 C 0.91078 0.55459 0.40257 0.0
O108 O 0.8693 0.51783 0.4345 0.0
O109 O 0.87329 0.50185 0.40532 0.0
O110 O 0.87049 0.55669 0.39389 0.0
O111 O 0.86823 0.53066 0.38541 0.0
Co112 Co 0.33458 0.86758 0.91569 0.0
O113 O 0.31914 0.84186 0.9203 0.0
O114 O 0.32062 0.86269 0.94507 0.0
C115 C 0.32746 0.86762 0.8767 0.0
O116 O 0.34842 0.89546 0.91617 0.0
Co117 Co 0.36627 0.88228 0.87886 0.0
O118 O 0.36625 0.90527 0.88355 0.0
C119 C 0.3699 0.86778 0.92528 0.0
C120 C 0.31331 0.8456 0.93964 0.0
C121 C 0.35907 0.90821 0.90171 0.0
O122 O 0.35515 0.86682 0.93299 0.0
O123 O 0.37556 0.87216 0.90377 0.0
O124 O 0.31692 0.86782 0.89331 0.0
O125 O 0.34082 0.86592 0.88417 0.0
Co126 Co 0.47042 0.33311 0.41633 0.0
O127 O 0.48105 0.31801 0.42059 0.0
O128 O 0.46194 0.31931 0.44597 0.0
C129 C 0.46285 0.32553 0.37753 0.0
O130 O 0.45603 0.34656 0.41709 0.0
Co131 Co 0.48648 0.36438 0.37889 0.0
O132 O 0.46313 0.36365 0.38385 0.0
C133 C 0.50553 0.36869 0.42479 0.0
C134 C 0.47174 0.31213 0.44014 0.0
C135 C 0.45336 0.35666 0.40237 0.0
O136 O 0.49193 0.354 0.43304 0.0
O137 O 0.50637 0.37405 0.40321 0.0
O138 O 0.4523 0.31509 0.39439 0.0
O139 O 0.47788 0.33913 0.38466 0.0
Co140 Co 0.14183 0.46912 0.91761 0.0
O141 O 0.16762 0.47961 0.92199 0.0
O142 O 0.14694 0.46035 0.94707 0.0
C143 C 0.14171 0.46173 0.87872 0.0
O144 O 0.11394 0.45485 0.91837 0.0
Co145 Co 0.12676 0.48554 0.88061 0.0
O146 O 0.10378 0.46247 0.88576 0.0
C147 C 0.14234 0.50454 0.92623 0.0
C148 C 0.16401 0.47015 0.94142 0.0
C149 C 0.10105 0.45248 0.90401 0.0
O150 O 0.14268 0.4906 0.93456 0.0
O151 O 0.13803 0.5056 0.90461 0.0
O152 O 0.14155 0.4511 0.89545 0.0
O153 O 0.14331 0.47677 0.88602 0.0
Co154 Co 0.67588 0.13967 0.41692 0.0
O155 O 0.69214 0.16539 0.41972 0.0
O156 O 0.69024 0.14531 0.44611 0.0
C157 C 0.6822 0.13795 0.37802 0.0
O158 O 0.66122 0.11185 0.41917 0.0
Co159 Co 0.64359 0.12506 0.38103 0.0
O160 O 0.6408 0.10125 0.38922 0.0
C161 C 0.64183 0.14194 0.42623 0.0
C162 C 0.69802 0.16218 0.4394 0.0
C163 C 0.64872 0.09868 0.40685 0.0
O164 O 0.65611 0.14198 0.43405 0.0
O165 O 0.63591 0.13736 0.40487 0.0
O166 O 0.69277 0.13787 0.39468 0.0
O167 O 0.66933 0.14049 0.38532 0.0
Co168 Co 0.67552 0.53861 0.91685 0.0
O169 O 0.69056 0.52794 0.92173 0.0
O170 O 0.68937 0.54753 0.94634 0.0
C171 C 0.68302 0.54563 0.87791 0.0
O172 O 0.66219 0.55311 0.91711 0.0
Co173 Co 0.64411 0.52233 0.8796 0.0
O174 O 0.64443 0.54545 0.88446 0.0
C175 C 0.64003 0.5036 0.92569 0.0
C176 C 0.69645 0.53755 0.94105 0.0
C177 C 0.65174 0.5555 0.90267 0.0
O178 O 0.6546 0.51737 0.9339 0.0
O179 O 0.63471 0.50256 0.90404 0.0
O180 O 0.69353 0.55637 0.89457 0.0
O181 O 0.66937 0.53074 0.88532 0.0
Co182 Co 0.14237 0.67522 0.41642 0.0
O183 O 0.16809 0.6907 0.42119 0.0
O184 O 0.14713 0.68923 0.44576 0.0
C185 C 0.14255 0.68231 0.37739 0.0
O186 O 0.11445 0.66132 0.41662 0.0
Co187 Co 0.12812 0.64354 0.3797 0.0
O188 O 0.1048 0.64289 0.38459 0.0
C189 C 0.14281 0.64033 0.42612 0.0
C190 C 0.16427 0.69654 0.44045 0.0
C191 C 0.10173 0.65027 0.40241 0.0
O192 O 0.14318 0.65476 0.43388 0.0
O193 O 0.13879 0.63476 0.40453 0.0
O194 O 0.14216 0.6928 0.39391 0.0
O195 O 0.14426 0.66901 0.38499 0.0
Co196 Co 0.47056 0.13989 0.9157 0.0
O197 O 0.4803 0.16554 0.92006 0.0
O198 O 0.46148 0.14459 0.94521 0.0
C199 C 0.46286 0.13926 0.87685 0.0
O200 O 0.45712 0.11202 0.91636 0.0
Co201 Co 0.48829 0.12616 0.87868 0.0
O202 O 0.46586 0.10264 0.88403 0.0
C203 C 0.5067 0.14175 0.92455 0.0
C204 C 0.47088 0.16167 0.93956 0.0
C205 C 0.45555 0.0994 0.90209 0.0
O206 O 0.49241 0.14152 0.93268 0.0
O207 O 0.50816 0.13776 0.90291 0.0
O208 O 0.45212 0.13886 0.89361 0.0
O209 O 0.47822 0.1416 0.88409 0.0
Co210 Co 0.33436 0.4691 0.41674 0.0
O211 O 0.31937 0.4798 0.42178 0.0
O212 O 0.32062 0.46022 0.44635 0.0
C213 C 0.32666 0.46206 0.37785 0.0
O214 O 0.34773 0.45463 0.4168 0.0
Co215 Co 0.36556 0.48543 0.37916 0.0
O216 O 0.36512 0.46223 0.38379 0.0
C217 C 0.37002 0.50401 0.42549 0.0
C218 C 0.31355 0.47022 0.44113 0.0
C219 C 0.35803 0.45223 0.4021 0.0
O220 O 0.35537 0.49033 0.43368 0.0
O221 O 0.37528 0.50506 0.40381 0.0
O222 O 0.31623 0.45133 0.39458 0.0
O223 O 0.34034 0.47695 0.38519 0.0
Co224 Co 0.86981 0.33296 0.91613 0.0
O225 O 0.844 0.31751 0.91979 0.0
O226 O 0.86424 0.31902 0.94566 0.0
C227 C 0.87043 0.32574 0.87734 0.0
O228 O 0.89771 0.34671 0.91754 0.0
Co229 Co 0.8853 0.36457 0.87926 0.0
O230 O 0.90813 0.36436 0.88482 0.0
C231 C 0.86984 0.36823 0.92485 0.0
C232 C 0.84727 0.31164 0.93943 0.0
C233 C 0.91072 0.35719 0.90327 0.0
O234 O 0.86871 0.35351 0.93287 0.0
O235 O 0.87469 0.37389 0.90343 0.0
O236 O 0.87043 0.31528 0.8942 0.0
O237 O 0.86873 0.33916 0.88443 0.0
Co238 Co 0.54166 0.86777 0.41635 0.0
O239 O 0.53143 0.84201 0.42045 0.0
O240 O 0.55058 0.86265 0.44566 0.0
C241 C 0.54914 0.8684 0.37738 0.0
O242 O 0.55569 0.89564 0.41745 0.0
Co243 Co 0.52488 0.88279 0.37978 0.0
O244 O 0.54776 0.90589 0.38524 0.0
C245 C 0.50604 0.86689 0.42539 0.0
C246 C 0.54091 0.84562 0.43988 0.0
C247 C 0.55783 0.90859 0.4034 0.0
O248 O 0.52006 0.86657 0.43351 0.0
O249 O 0.50488 0.8713 0.40386 0.0
O250 O 0.55981 0.86845 0.394 0.0
O251 O 0.53399 0.86649 0.3848 0.0
Co252 Co 0.46885 0.33144 0.08553 0.0
O253 O 0.47954 0.31641 0.08077 0.0
O254 O 0.45978 0.3174 0.05623 0.0
C255 C 0.46201 0.32423 0.12456 0.0
O256 O 0.4543 0.34471 0.08521 0.0
Co257 Co 0.48537 0.36311 0.12233 0.0
O258 O 0.46203 0.36252 0.1178 0.0
C259 C 0.50379 0.36688 0.07608 0.0
C260 C 0.46981 0.31037 0.06156 0.0
C261 C 0.4519 0.35512 0.09968 0.0
O262 O 0.48998 0.35223 0.06817 0.0
O263 O 0.50501 0.3724 0.09765 0.0
O264 O 0.45121 0.31359 0.10804 0.0
O265 O 0.47689 0.33782 0.11697 0.0
Co266 Co 0.14212 0.46962 0.587 0.0
O267 O 0.16785 0.47995 0.58237 0.0
O268 O 0.14698 0.46074 0.55744 0.0
C269 C 0.14218 0.46226 0.62588 0.0
O270 O 0.11421 0.45556 0.58652 0.0
Co271 Co 0.12759 0.48638 0.62431 0.0
O272 O 0.10437 0.46361 0.61905 0.0
C273 C 0.14258 0.50506 0.57831 0.0
C274 C 0.16409 0.47049 0.56292 0.0
C275 C 0.10141 0.45352 0.60083 0.0
O276 O 0.14304 0.49115 0.57009 0.0
O277 O 0.13839 0.5062 0.59995 0.0
O278 O 0.1418 0.45154 0.60913 0.0
O279 O 0.14388 0.47734 0.6186 0.0
Co280 Co 0.6762 0.14006 0.08618 0.0
O281 O 0.69162 0.16585 0.0824 0.0
O282 O 0.69037 0.14556 0.05686 0.0
C283 C 0.6831 0.13957 0.12514 0.0
O284 O 0.66255 0.1122 0.08494 0.0
Co285 Co 0.64424 0.12458 0.1226 0.0
O286 O 0.64463 0.10183 0.11744 0.0
C287 C 0.64085 0.13977 0.07664 0.0
C288 C 0.69765 0.16253 0.06292 0.0
C289 C 0.65199 0.09923 0.09919 0.0
O290 O 0.65571 0.14099 0.06895 0.0
O291 O 0.63501 0.13498 0.098 0.0
O292 O 0.69377 0.1396 0.10854 0.0
O293 O 0.6697 0.1412 0.11771 0.0
Co294 Co 0.5415 0.67515 0.58626 0.0
O295 O 0.53109 0.69041 0.58141 0.0
O296 O 0.55076 0.68919 0.55696 0.0
C297 C 0.54828 0.68227 0.62532 0.0
O298 O 0.55576 0.66157 0.58607 0.0
Co299 Co 0.52441 0.64344 0.62299 0.0
O300 O 0.54747 0.64348 0.61844 0.0
C301 C 0.50625 0.64004 0.57666 0.0
C302 C 0.54085 0.69636 0.56221 0.0
C303 C 0.55779 0.65088 0.60048 0.0
O304 O 0.52029 0.65453 0.56879 0.0
O305 O 0.50482 0.63452 0.59826 0.0
O306 O 0.5592 0.69285 0.60884 0.0
O307 O 0.53333 0.66882 0.61765 0.0
Co308 Co 0.86885 0.53828 0.08492 0.0
O309 O 0.8431 0.52853 0.08133 0.0
O310 O 0.86367 0.54742 0.05583 0.0
C311 C 0.86997 0.54573 0.12399 0.0
O312 O 0.89672 0.55173 0.08337 0.0
Co313 Co 0.88317 0.52039 0.12082 0.0
O314 O 0.90717 0.5414 0.11283 0.0
C315 C 0.86645 0.50207 0.07538 0.0
C316 C 0.84665 0.53795 0.06187 0.0
C317 C 0.90983 0.55219 0.09554 0.0
O318 O 0.86695 0.51652 0.06743 0.0
O319 O 0.87053 0.50048 0.09692 0.0
O320 O 0.87019 0.55658 0.10753 0.0
O321 O 0.86762 0.53047 0.11637 0.0
Co322 Co 0.33573 0.86884 0.58514 0.0
O323 O 0.32043 0.84305 0.58079 0.0
O324 O 0.32166 0.86366 0.55583 0.0
C325 C 0.32869 0.86903 0.62413 0.0
O326 O 0.34928 0.89671 0.58433 0.0
Co327 Co 0.36755 0.88424 0.62178 0.0
O328 O 0.36713 0.907 0.61689 0.0
C329 C 0.37117 0.8693 0.5757 0.0
C330 C 0.31446 0.84662 0.56144 0.0
C331 C 0.35978 0.90963 0.59867 0.0
O332 O 0.35637 0.86817 0.56789 0.0
O333 O 0.37686 0.87393 0.59715 0.0
O334 O 0.31803 0.86901 0.60752 0.0
O335 O 0.34215 0.8675 0.61668 0.0
H336 H 0.34824 0.48162 0.16164 0.0
H337 H 0.34272 0.47599 0.20431 0.0
H338 H 0.29327 0.42603 0.18968 0.0
H339 H 0.29876 0.43156 0.14648 0.0
H340 H 0.30952 0.47074 0.22787 0.0
H341 H 0.32236 0.41333 0.24029 0.0
H342 H 0.33157 0.42858 0.21514 0.0
H343 H 0.30781 0.41237 0.21628 0.0
C344 C 0.33624 0.46933 0.16739 0.0
C345 C 0.32391 0.45704 0.15067 0.0
C346 C 0.33311 0.46616 0.19182 0.0
C347 C 0.31764 0.45059 0.20012 0.0
C348 C 0.30539 0.43805 0.18358 0.0
H349 H 0.29871 0.43202 0.35619 0.0
H350 H 0.29328 0.42654 0.31294 0.0
C351 C 0.30851 0.44125 0.15896 0.0
C352 C 0.31426 0.44827 0.22618 0.0
H353 H 0.31823 0.42646 0.27498 0.0
C354 C 0.31108 0.46084 0.23816 0.0
C355 C 0.3162 0.43527 0.23949 0.0
C356 C 0.31973 0.4216 0.22731 0.0
C357 C 0.31068 0.46134 0.26316 0.0
C358 C 0.3138 0.44913 0.27654 0.0
C359 C 0.31588 0.43582 0.26462 0.0
C360 C 0.31717 0.45157 0.3026 0.0
C361 C 0.30757 0.47539 0.27512 0.0
C362 C 0.33256 0.46719 0.31094 0.0
C363 C 0.33568 0.47031 0.33538 0.0
C364 C 0.32349 0.45784 0.35206 0.0
C365 C 0.30829 0.44189 0.34373 0.0
C366 C 0.30518 0.43874 0.3191 0.0
H367 H 0.30038 0.48008 0.2631 0.0
H368 H 0.29958 0.47001 0.29181 0.0
H369 H 0.32086 0.48731 0.27982 0.0
H370 H 0.34211 0.47711 0.29848 0.0
H371 H 0.34758 0.48268 0.34115 0.0
H372 H 0.87075 0.34603 0.66221 0.0
H373 H 0.87164 0.34055 0.70474 0.0
H374 H 0.87354 0.2921 0.68908 0.0
H375 H 0.87268 0.29753 0.64598 0.0
H376 H 0.84421 0.30614 0.72818 0.0
H377 H 0.91601 0.32299 0.7393 0.0
H378 H 0.90925 0.3321 0.71481 0.0
H379 H 0.90266 0.3086 0.71497 0.0
C380 C 0.87151 0.33426 0.66769 0.0
C381 C 0.8716 0.32218 0.65071 0.0
C382 C 0.87201 0.33116 0.69203 0.0
C383 C 0.8727 0.31597 0.70001 0.0
C384 C 0.87315 0.30399 0.68321 0.0
H385 H 0.87318 0.29808 0.85627 0.0
H386 H 0.87356 0.29247 0.81314 0.0
C387 C 0.87262 0.30708 0.65866 0.0
C388 C 0.87201 0.31257 0.72602 0.0
H389 H 0.89898 0.31866 0.77434 0.0
C390 C 0.85606 0.30849 0.73826 0.0
C391 C 0.88749 0.3156 0.73905 0.0
C392 C 0.90491 0.32011 0.72653 0.0
C393 C 0.85544 0.30828 0.76329 0.0
C394 C 0.87125 0.31249 0.77637 0.0
C395 C 0.8869 0.31546 0.76419 0.0
C396 C 0.87228 0.31612 0.80234 0.0
C397 C 0.83809 0.30431 0.77559 0.0
C398 C 0.87186 0.33144 0.81036 0.0
C399 C 0.87168 0.33467 0.83473 0.0
C400 C 0.87193 0.32264 0.85165 0.0
C401 C 0.87292 0.30754 0.84363 0.0
C402 C 0.87315 0.30433 0.81907 0.0
H403 H 0.82614 0.29681 0.76371 0.0
H404 H 0.83595 0.2963 0.79213 0.0
H405 H 0.83893 0.31728 0.78066 0.0
H406 H 0.87138 0.34079 0.79769 0.0
H407 H 0.87101 0.34648 0.84027 0.0
H408 H 0.57909 0.87066 0.35538 0.0
H409 H 0.58609 0.87435 0.31235 0.0
H410 H 0.53702 0.87572 0.29881 0.0
H411 H 0.52998 0.87206 0.34128 0.0
H412 H 0.5635 0.85096 0.2744 0.0
H413 H 0.5764 0.92087 0.26366 0.0
H414 H 0.57714 0.91157 0.29237 0.0
H415 H 0.55576 0.90653 0.27953 0.0
C416 C 0.5699 0.8719 0.34319 0.0
C417 C 0.55403 0.87115 0.35173 0.0
C418 C 0.57391 0.874 0.31867 0.0
C419 C 0.56222 0.87562 0.30247 0.0
C420 C 0.54642 0.87489 0.31105 0.0
H421 H 0.52905 0.87141 0.16177 0.0
H422 H 0.53624 0.87448 0.20424 0.0
C423 C 0.54237 0.87269 0.33537 0.0
C424 C 0.56572 0.87717 0.27639 0.0
H425 H 0.56776 0.90249 0.22804 0.0
C426 C 0.5649 0.8624 0.26421 0.0
C427 C 0.56759 0.89214 0.26321 0.0
C428 C 0.56946 0.90876 0.27538 0.0
C429 C 0.56451 0.86163 0.2391 0.0
C430 C 0.56519 0.87612 0.22596 0.0
C431 C 0.56716 0.89136 0.23816 0.0
C432 C 0.56159 0.87478 0.1999 0.0
C433 C 0.56214 0.84485 0.22683 0.0
C434 C 0.57359 0.87413 0.18328 0.0
C435 C 0.56951 0.87239 0.15879 0.0
C436 C 0.55337 0.87128 0.15066 0.0
C437 C 0.54158 0.8722 0.1674 0.0
C438 C 0.54567 0.87399 0.19172 0.0
H439 H 0.55956 0.83392 0.23972 0.0
H440 H 0.5507 0.83964 0.21395 0.0
H441 H 0.57461 0.84827 0.21662 0.0
H442 H 0.58606 0.87494 0.18923 0.0
H443 H 0.57888 0.87177 0.14629 0.0
H444 H 0.66219 0.52477 0.84129 0.0
H445 H 0.66759 0.53027 0.79858 0.0
H446 H 0.71604 0.58121 0.81283 0.0
H447 H 0.71071 0.5758 0.85611 0.0
H448 H 0.69028 0.58041 0.77463 0.0
H449 H 0.71033 0.52828 0.76366 0.0
H450 H 0.68987 0.52079 0.78057 0.0
H451 H 0.71103 0.53858 0.79216 0.0
C452 C 0.67398 0.53721 0.83546 0.0
C453 C 0.6861 0.54981 0.8521 0.0
C454 C 0.67705 0.5403 0.81101 0.0
C455 C 0.69232 0.55601 0.80261 0.0
C456 C 0.70423 0.56895 0.81905 0.0
H457 H 0.71141 0.57649 0.64675 0.0
H458 H 0.71623 0.58195 0.69004 0.0
C459 C 0.70118 0.56583 0.84369 0.0
C460 C 0.69568 0.55839 0.77655 0.0
H461 H 0.70114 0.53724 0.72823 0.0
C462 C 0.69308 0.5713 0.76442 0.0
C463 C 0.69937 0.54648 0.76338 0.0
C464 C 0.70298 0.53285 0.77559 0.0
C465 C 0.69286 0.57175 0.73928 0.0
C466 C 0.69546 0.55907 0.72617 0.0
C467 C 0.69909 0.54689 0.73836 0.0
C468 C 0.69242 0.55673 0.70004 0.0
C469 C 0.68877 0.58497 0.72688 0.0
C470 C 0.6775 0.5408 0.69144 0.0
C471 C 0.67475 0.53766 0.66695 0.0
C472 C 0.68694 0.55036 0.65046 0.0
C473 C 0.70179 0.56648 0.65905 0.0
C474 C 0.70452 0.56964 0.68371 0.0
H475 H 0.68544 0.5928 0.73972 0.0
H476 H 0.70073 0.59463 0.71623 0.0
H477 H 0.67723 0.57767 0.71435 0.0
H478 H 0.66802 0.53066 0.70375 0.0
H479 H 0.66317 0.52511 0.66097 0.0
H480 H 0.14305 0.66167 0.34087 0.0
H481 H 0.14243 0.6667 0.29812 0.0
H482 H 0.13835 0.71416 0.31219 0.0
H483 H 0.13893 0.70919 0.35546 0.0
H484 H 0.11366 0.68836 0.27455 0.0
H485 H 0.18616 0.70953 0.26229 0.0
H486 H 0.17359 0.68899 0.27915 0.0
H487 H 0.1767 0.70994 0.29102 0.0
C488 C 0.14195 0.67316 0.33498 0.0
C489 C 0.14118 0.68512 0.35156 0.0
C490 C 0.14165 0.67603 0.31051 0.0
C491 C 0.14061 0.69093 0.30204 0.0
C492 C 0.13927 0.70264 0.31845 0.0
H493 H 0.13855 0.70987 0.1462 0.0
H494 H 0.13815 0.71482 0.18951 0.0
C495 C 0.13962 0.6998 0.34309 0.0
C496 C 0.14128 0.69414 0.27596 0.0
H497 H 0.16762 0.69994 0.22714 0.0
C498 C 0.12556 0.69131 0.26413 0.0
C499 C 0.15686 0.69805 0.26251 0.0
C500 C 0.17436 0.70198 0.27437 0.0
C501 C 0.12466 0.69109 0.239 0.0
C502 C 0.13991 0.69389 0.22561 0.0
C503 C 0.15593 0.69774 0.2375 0.0
C504 C 0.13898 0.69077 0.1995 0.0
C505 C 0.10716 0.6868 0.22689 0.0
C506 C 0.13954 0.67565 0.19092 0.0
C507 C 0.13978 0.67282 0.16643 0.0
C508 C 0.13956 0.68512 0.14993 0.0
C509 C 0.13871 0.70016 0.15851 0.0
C510 C 0.13843 0.70297 0.18318 0.0
H511 H 0.09616 0.68377 0.23992 0.0
H512 H 0.10937 0.6985 0.21578 0.0
H513 H 0.10269 0.67499 0.21481 0.0
H514 H 0.13999 0.66609 0.20324 0.0
H515 H 0.14042 0.66108 0.16047 0.0
H516 H 0.43232 0.13599 0.85544 0.0
H517 H 0.42489 0.13197 0.81254 0.0
H518 H 0.47466 0.13223 0.79802 0.0
H519 H 0.48215 0.13624 0.84037 0.0
H520 H 0.44678 0.15564 0.77427 0.0
H521 H 0.43563 0.08636 0.76352 0.0
H522 H 0.43483 0.09558 0.79227 0.0
H523 H 0.45627 0.10114 0.77911 0.0
C524 C 0.44158 0.13505 0.84306 0.0
C525 C 0.45778 0.13636 0.85128 0.0
C526 C 0.43732 0.13276 0.81863 0.0
C527 C 0.44908 0.13149 0.8022 0.0
C528 C 0.46521 0.13279 0.81045 0.0
H529 H 0.48208 0.13653 0.66179 0.0
H530 H 0.47467 0.13299 0.70417 0.0
C531 C 0.46951 0.13518 0.83469 0.0
C532 C 0.44529 0.12976 0.7762 0.0
H533 H 0.44355 0.10461 0.72782 0.0
C534 C 0.44559 0.14429 0.76407 0.0
C535 C 0.4437 0.1149 0.76301 0.0
C536 C 0.4424 0.09852 0.77516 0.0
C537 C 0.44578 0.14499 0.73896 0.0
C538 C 0.44541 0.13067 0.72579 0.0
C539 C 0.4439 0.11561 0.73797 0.0
C540 C 0.44904 0.13212 0.69975 0.0
C541 C 0.44764 0.16159 0.72671 0.0
C542 C 0.43696 0.13259 0.68309 0.0
C543 C 0.44118 0.13462 0.65864 0.0
C544 C 0.45754 0.13619 0.6506 0.0
C545 C 0.46939 0.13539 0.66735 0.0
C546 C 0.46516 0.13333 0.69162 0.0
H547 H 0.44998 0.17244 0.73961 0.0
H548 H 0.45905 0.16704 0.71377 0.0
H549 H 0.43505 0.15785 0.71659 0.0
H550 H 0.42434 0.13146 0.689 0.0
H551 H 0.43177 0.13514 0.64612 0.0
H552 H 0.52711 0.66131 0.66167 0.0
H553 H 0.53243 0.66643 0.70446 0.0
H554 H 0.58371 0.71465 0.69081 0.0
H555 H 0.57848 0.7096 0.64749 0.0
H556 H 0.58268 0.68894 0.72881 0.0
H557 H 0.53045 0.70891 0.73965 0.0
H558 H 0.52294 0.68846 0.72277 0.0
H559 H 0.54075 0.70959 0.71116 0.0
C560 C 0.53958 0.67299 0.66766 0.0
C561 C 0.55233 0.68514 0.65118 0.0
C562 C 0.54257 0.6759 0.69215 0.0
C563 C 0.55832 0.69103 0.70075 0.0
C564 C 0.57141 0.70295 0.68446 0.0
H565 H 0.57839 0.7101 0.85671 0.0
H566 H 0.58397 0.71496 0.81343 0.0
C567 C 0.5684 0.70005 0.65978 0.0
C568 C 0.5606 0.69428 0.72684 0.0
H569 H 0.53936 0.69971 0.7751 0.0
C570 C 0.57353 0.69171 0.739 0.0
C571 C 0.54865 0.69795 0.73997 0.0
C572 C 0.53501 0.70156 0.72774 0.0
C573 C 0.57397 0.69151 0.76414 0.0
C574 C 0.56126 0.69409 0.77722 0.0
C575 C 0.54905 0.69768 0.765 0.0
C576 C 0.55887 0.69104 0.80334 0.0
C577 C 0.58721 0.68746 0.77658 0.0
C578 C 0.54297 0.67604 0.81187 0.0
C579 C 0.53976 0.67328 0.83634 0.0
C580 C 0.55236 0.68552 0.85288 0.0
C581 C 0.56846 0.70044 0.84437 0.0
C582 C 0.57169 0.70319 0.81972 0.0
H583 H 0.59516 0.68425 0.76377 0.0
H584 H 0.59679 0.69936 0.78738 0.0
H585 H 0.57989 0.67585 0.789 0.0
H586 H 0.53292 0.66652 0.79951 0.0
H587 H 0.52723 0.66164 0.84226 0.0
H588 H 0.87362 0.57597 0.3551 0.0
H589 H 0.87421 0.58118 0.31174 0.0
H590 H 0.87024 0.52957 0.29858 0.0
H591 H 0.86961 0.52426 0.34143 0.0
H592 H 0.89885 0.57991 0.27422 0.0
H593 H 0.82637 0.5281 0.26259 0.0
H594 H 0.8359 0.53824 0.29119 0.0
H595 H 0.83906 0.52038 0.2796 0.0
C596 C 0.87296 0.5658 0.34292 0.0
C597 C 0.87142 0.54964 0.35167 0.0
C598 C 0.87332 0.56881 0.31821 0.0
C599 C 0.87201 0.55564 0.30204 0.0
C600 C 0.87101 0.53978 0.31079 0.0
H601 H 0.87057 0.52492 0.1602 0.0
H602 H 0.87162 0.53053 0.20299 0.0
C603 C 0.87069 0.5368 0.33532 0.0
C604 C 0.87127 0.55793 0.27591 0.0
H605 H 0.84476 0.53696 0.22735 0.0
C606 C 0.88694 0.57083 0.26391 0.0
C607 C 0.85566 0.54609 0.2626 0.0
C608 C 0.83822 0.53252 0.27463 0.0
C609 C 0.88773 0.57134 0.23878 0.0
C610 C 0.87244 0.55874 0.22553 0.0
C611 C 0.85649 0.54656 0.23759 0.0
C612 C 0.87319 0.5565 0.19939 0.0
C613 C 0.90518 0.58457 0.22651 0.0
C614 C 0.87389 0.56936 0.18313 0.0
C615 C 0.87327 0.56617 0.15845 0.0
C616 C 0.87189 0.55006 0.1498 0.0
C617 C 0.87159 0.53745 0.16622 0.0
C618 C 0.87219 0.54063 0.19072 0.0
H619 H 0.9163 0.59244 0.23943 0.0
H620 H 0.90947 0.57727 0.21413 0.0
H621 H 0.90297 0.59419 0.2157 0.0
H622 H 0.87449 0.58162 0.18953 0.0
H623 H 0.87349 0.5761 0.14621 0.0
H624 H 0.30079 0.87096 0.64596 0.0
H625 H 0.2971 0.87414 0.68901 0.0
H626 H 0.34742 0.87535 0.70297 0.0
H627 H 0.3512 0.87224 0.66045 0.0
H628 H 0.29567 0.85051 0.72661 0.0
H629 H 0.3533 0.92009 0.73876 0.0
H630 H 0.34355 0.91109 0.70981 0.0
H631 H 0.35961 0.9058 0.72295 0.0
C632 C 0.31111 0.87205 0.65824 0.0
C633 C 0.32633 0.87143 0.64981 0.0
C634 C 0.30898 0.87385 0.68278 0.0
C635 C 0.32215 0.8753 0.6991 0.0
C636 C 0.33729 0.87466 0.69064 0.0
H637 H 0.34938 0.86963 0.84024 0.0
H638 H 0.34565 0.87281 0.7977 0.0
C639 C 0.33938 0.87278 0.66629 0.0
C640 C 0.31998 0.87661 0.72519 0.0
H641 H 0.34299 0.90139 0.77408 0.0
C642 C 0.30573 0.86181 0.73703 0.0
C643 C 0.3331 0.89141 0.73868 0.0
C644 C 0.34815 0.90808 0.72688 0.0
C645 C 0.30506 0.86083 0.76214 0.0
C646 C 0.31887 0.87513 0.77559 0.0
C647 C 0.33246 0.89041 0.76371 0.0
C648 C 0.32081 0.87355 0.80167 0.0
C649 C 0.29029 0.84403 0.77407 0.0
C650 C 0.30812 0.87307 0.8181 0.0
C651 C 0.31024 0.87127 0.84263 0.0
C652 C 0.32508 0.86993 0.851 0.0
C653 C 0.3378 0.87061 0.83444 0.0
C654 C 0.3357 0.87246 0.81008 0.0
H655 H 0.28188 0.83327 0.76098 0.0
H656 H 0.29625 0.83857 0.78694 0.0
H657 H 0.28129 0.84752 0.78424 0.0
H658 H 0.29663 0.87411 0.81197 0.0
H659 H 0.30026 0.87083 0.85499 0.0
H660 H 0.48295 0.34657 0.34058 0.0
H661 H 0.47696 0.34104 0.29798 0.0
H662 H 0.42682 0.29191 0.31312 0.0
H663 H 0.43272 0.29741 0.35627 0.0
H664 H 0.47127 0.30769 0.27447 0.0
H665 H 0.41418 0.32119 0.26267 0.0
H666 H 0.42963 0.33037 0.28763 0.0
H667 H 0.41324 0.30668 0.28671 0.0
C668 C 0.47054 0.33464 0.33497 0.0
C669 C 0.45831 0.32239 0.35181 0.0
C670 C 0.46716 0.33151 0.31058 0.0
C671 C 0.45144 0.31612 0.30243 0.0
C672 C 0.43896 0.30396 0.31911 0.0
H673 H 0.43205 0.29651 0.14664 0.0
H674 H 0.42676 0.29142 0.18995 0.0
C675 C 0.44236 0.30709 0.34369 0.0
C676 C 0.44895 0.31269 0.27639 0.0
H677 H 0.42704 0.31687 0.22783 0.0
C678 C 0.46137 0.30935 0.26429 0.0
C679 C 0.43598 0.31479 0.26323 0.0
C680 C 0.42247 0.31852 0.27556 0.0
C681 C 0.46175 0.30891 0.23927 0.0
C682 C 0.44955 0.31216 0.22603 0.0
C683 C 0.43639 0.31442 0.23809 0.0
C684 C 0.45183 0.31539 0.19994 0.0
C685 C 0.47565 0.30564 0.22716 0.0
C686 C 0.46743 0.33072 0.19138 0.0
C687 C 0.47045 0.33364 0.16691 0.0
C688 C 0.4579 0.32132 0.1504 0.0
C689 C 0.44198 0.3062 0.15895 0.0
C690 C 0.43893 0.30328 0.18362 0.0
H691 H 0.48042 0.29852 0.23916 0.0
H692 H 0.47006 0.29753 0.2106 0.0
H693 H 0.48757 0.31885 0.22218 0.0
H694 H 0.47742 0.34034 0.20372 0.0
H695 H 0.4828 0.34548 0.16095 0.0
H696 H 0.14227 0.48296 0.66268 0.0
H697 H 0.14176 0.47712 0.70533 0.0
H698 H 0.13847 0.426 0.69062 0.0
H699 H 0.13895 0.43176 0.6474 0.0
H700 H 0.11346 0.42696 0.72885 0.0
H701 H 0.18615 0.47826 0.7403 0.0
H702 H 0.17352 0.48608 0.72335 0.0
H703 H 0.17651 0.46812 0.71172 0.0
C704 C 0.14135 0.47041 0.66839 0.0
C705 C 0.14078 0.45787 0.65165 0.0
C706 C 0.1411 0.46712 0.69281 0.0
C707 C 0.14032 0.45126 0.70108 0.0
C708 C 0.13917 0.43837 0.68451 0.0
H709 H 0.13887 0.4314 0.85722 0.0
H710 H 0.13817 0.42553 0.81403 0.0
C711 C 0.13947 0.44168 0.6599 0.0
C712 C 0.14115 0.44871 0.72711 0.0
H713 H 0.16781 0.46951 0.77562 0.0
C714 C 0.12545 0.43592 0.73913 0.0
C715 C 0.15684 0.46041 0.74039 0.0
C716 C 0.17428 0.4739 0.7283 0.0
C717 C 0.12468 0.43542 0.76427 0.0
C718 C 0.14003 0.44794 0.77748 0.0
C719 C 0.15604 0.45996 0.7654 0.0
C720 C 0.13923 0.45043 0.80354 0.0
C721 C 0.1072 0.42235 0.77658 0.0
C722 C 0.14001 0.46629 0.81181 0.0
C723 C 0.14043 0.46966 0.83622 0.0
C724 C 0.14016 0.45726 0.85297 0.0
C725 C 0.13906 0.44118 0.84472 0.0
C726 C 0.13861 0.43778 0.82011 0.0
H727 H 0.09613 0.41427 0.76368 0.0
H728 H 0.10937 0.41293 0.78788 0.0
H729 H 0.10284 0.42985 0.78852 0.0
H730 H 0.14051 0.47621 0.79928 0.0
H731 H 0.14125 0.48217 0.84194 0.0
H732 H 0.66082 0.13683 0.34141 0.0
H733 H 0.66593 0.13605 0.29871 0.0
H734 H 0.71461 0.13418 0.31321 0.0
H735 H 0.70955 0.13492 0.35642 0.0
H736 H 0.69986 0.16366 0.27531 0.0
H737 H 0.68427 0.09249 0.26242 0.0
H738 H 0.67523 0.09885 0.28742 0.0
H739 H 0.69881 0.10567 0.28672 0.0
C740 C 0.67254 0.13607 0.33563 0.0
C741 C 0.68482 0.13599 0.3523 0.0
C742 C 0.67543 0.13563 0.31119 0.0
C743 C 0.6906 0.13501 0.30285 0.0
C744 C 0.70272 0.13449 0.31936 0.0
H745 H 0.71045 0.1366 0.14692 0.0
H746 H 0.71532 0.13572 0.19019 0.0
C747 C 0.69984 0.13495 0.34398 0.0
C748 C 0.69397 0.13604 0.2768 0.0
H749 H 0.68906 0.11007 0.22782 0.0
C750 C 0.69784 0.15206 0.26494 0.0
C751 C 0.69141 0.1209 0.26339 0.0
C752 C 0.68714 0.10342 0.27547 0.0
C753 C 0.69836 0.15308 0.23994 0.0
C754 C 0.69466 0.13759 0.22646 0.0
C755 C 0.69185 0.12189 0.23827 0.0
C756 C 0.69151 0.13696 0.20039 0.0
C757 C 0.7022 0.17052 0.22809 0.0
C758 C 0.67634 0.13753 0.19196 0.0
C759 C 0.67353 0.13801 0.16751 0.0
C760 C 0.68583 0.13789 0.15091 0.0
C761 C 0.70079 0.13677 0.15932 0.0
C762 C 0.70358 0.13625 0.18396 0.0
H763 H 0.70948 0.18229 0.24029 0.0
H764 H 0.7104 0.17303 0.21163 0.0
H765 H 0.68918 0.16957 0.22297 0.0
H766 H 0.66676 0.13787 0.20438 0.0
H767 H 0.66182 0.13876 0.16167 0.0
H768 H 0.20038 0.4932 0.93714 0.0
H769 H 0.22495 0.49186 0.95758 0.0
H770 H 0.1859 0.445 0.99705 0.0
H771 H 0.16111 0.44661 0.97704 0.0
H772 H 0.2131 0.46747 0.02542 0.0
H773 H 0.2426 0.45739 0.94296 0.0
H774 H 0.24129 0.47767 0.94154 0.0
H775 H 0.22078 0.45599 0.94334 0.0
C776 C 0.19697 0.48262 0.95023 0.0
C777 C 0.17875 0.46993 0.95533 0.0
C778 C 0.21108 0.48177 0.96177 0.0
C779 C 0.20736 0.46801 0.97839 0.0
C780 C 0.18916 0.45564 0.98411 0.0
H781 H 0.29211 0.44543 0.02748 0.0
H782 H 0.26578 0.44401 0.00754 0.0
C783 C 0.17499 0.45659 0.97271 0.0
C784 C 0.2225 0.46678 0.98996 0.0
H785 H 0.26131 0.46573 0.97791 0.0
C786 C 0.22355 0.46695 0.01501 0.0
C787 C 0.23601 0.46569 0.97648 0.0
C788 C 0.23503 0.46397 0.94961 0.0
C789 C 0.23798 0.46669 0.02688 0.0
C790 C 0.2521 0.46679 0.01337 0.0
C791 C 0.25071 0.46597 0.98834 0.0
C792 C 0.26847 0.46792 0.02485 0.0
C793 C 0.23773 0.46605 0.05384 0.0
C794 C 0.27915 0.48211 0.04067 0.0
C795 C 0.29406 0.48285 0.0522 0.0
C796 C 0.29892 0.46961 0.04785 0.0
C797 C 0.28874 0.45584 0.03121 0.0
C798 C 0.27365 0.455 0.01985 0.0
H799 H 0.22371 0.46007 0.06091 0.0
H800 H 0.24375 0.45803 0.06069 0.0
H801 H 0.24569 0.48004 0.06094 0.0
H802 H 0.2759 0.49262 0.04425 0.0
H803 H 0.30172 0.49375 0.06471 0.0
H804 H 0.71813 0.19744 0.42578 0.0
H805 H 0.74388 0.2222 0.44616 0.0
H806 H 0.7384 0.18614 0.50364 0.0
H807 H 0.71274 0.16099 0.48283 0.0
H808 H 0.74612 0.23775 0.48771 0.0
H809 H 0.7918 0.20913 0.48948 0.0
H810 H 0.77127 0.19928 0.47195 0.0
H811 H 0.7703 0.19485 0.50351 0.0
C812 C 0.72238 0.19469 0.44274 0.0
C813 C 0.71336 0.17716 0.45262 0.0
C814 C 0.73716 0.20892 0.45439 0.0
C815 C 0.74336 0.20608 0.4763 0.0
C816 C 0.73422 0.18864 0.48647 0.0
H817 H 0.81143 0.29281 0.57424 0.0
H818 H 0.78683 0.2675 0.553 0.0
C819 C 0.71943 0.17429 0.47467 0.0
C820 C 0.75902 0.22161 0.48856 0.0
H821 H 0.80132 0.23622 0.51164 0.0
C822 C 0.75819 0.23739 0.49288 0.0
C823 C 0.77498 0.22136 0.49497 0.0
C824 C 0.77728 0.20533 0.48955 0.0
C825 C 0.77265 0.25275 0.50361 0.0
C826 C 0.7883 0.25225 0.51089 0.0
C827 C 0.78929 0.23659 0.50627 0.0
C828 C 0.80356 0.26769 0.52379 0.0
C829 C 0.77111 0.26949 0.50657 0.0
C830 C 0.82139 0.27604 0.51491 0.0
C831 C 0.83566 0.29053 0.52724 0.0
C832 C 0.83234 0.29691 0.54874 0.0
C833 C 0.81449 0.28843 0.55761 0.0
C834 C 0.80033 0.27395 0.54539 0.0
H835 H 0.76132 0.2697 0.49365 0.0
H836 H 0.76612 0.26965 0.52483 0.0
H837 H 0.78444 0.28201 0.50411 0.0
H838 H 0.82427 0.27139 0.49835 0.0
H839 H 0.84925 0.29667 0.52 0.0
H840 H 0.56337 0.84908 0.02685 0.0
H841 H 0.56471 0.82434 0.00646 0.0
H842 H 0.51785 0.78533 0.04604 0.0
H843 H 0.51683 0.80989 0.06692 0.0
H844 H 0.54298 0.7759 0.04626 0.0
H845 H 0.53416 0.7922 0.95313 0.0
H846 H 0.55323 0.81046 0.96794 0.0
H847 H 0.53064 0.80304 0.97856 0.0
C848 C 0.55324 0.83523 0.03099 0.0
C849 C 0.53996 0.83148 0.04845 0.0
C850 C 0.55397 0.82106 0.01924 0.0
C851 C 0.54123 0.80287 0.02442 0.0
C852 C 0.52785 0.79919 0.04167 0.0
H853 H 0.51627 0.70876 0.93894 0.0
H854 H 0.51717 0.73423 0.95995 0.0
C855 C 0.52724 0.81329 0.05356 0.0
C856 C 0.54202 0.78758 0.01257 0.0
H857 H 0.54137 0.76898 0.95822 0.0
C858 C 0.54261 0.77439 0.02699 0.0
C859 C 0.54135 0.78543 0.98743 0.0
C860 C 0.53963 0.79843 0.97085 0.0
C861 C 0.54244 0.75915 0.01707 0.0
C862 C 0.54217 0.75721 0.99191 0.0
C863 C 0.5417 0.77046 0.97749 0.0
C864 C 0.54147 0.74115 0.98008 0.0
C865 C 0.54189 0.74499 0.03373 0.0
C866 C 0.55476 0.73632 0.98441 0.0
C867 C 0.5541 0.72147 0.97262 0.0
C868 C 0.54034 0.71138 0.95592 0.0
C869 C 0.52707 0.71623 0.95169 0.0
C870 C 0.5276 0.73087 0.96365 0.0
H871 H 0.53697 0.74586 0.0518 0.0
H872 H 0.53297 0.73113 0.02663 0.0
H873 H 0.55577 0.74713 0.03573 0.0
H874 H 0.56587 0.74424 0.99653 0.0
H875 H 0.56465 0.71824 0.97605 0.0
H876 H 0.71966 0.56297 0.52664 0.0
H877 H 0.74588 0.56456 0.50616 0.0
H878 H 0.73754 0.51712 0.5444 0.0
H879 H 0.71183 0.51581 0.56534 0.0
H880 H 0.77229 0.54226 0.54522 0.0
H881 H 0.74753 0.5347 0.45196 0.0
H882 H 0.74838 0.55354 0.46736 0.0
H883 H 0.73302 0.53083 0.47737 0.0
C884 C 0.72332 0.55277 0.53046 0.0
C885 C 0.7136 0.53923 0.54757 0.0
C886 C 0.73829 0.55365 0.51867 0.0
C887 C 0.74364 0.54082 0.52346 0.0
C888 C 0.73376 0.52719 0.54034 0.0
H889 H 0.81209 0.51529 0.43778 0.0
H890 H 0.78773 0.51664 0.45877 0.0
C891 C 0.71898 0.52643 0.55226 0.0
C892 C 0.75978 0.54172 0.51156 0.0
H893 H 0.77782 0.54136 0.45713 0.0
C894 C 0.77349 0.54207 0.52594 0.0
C895 C 0.76134 0.5413 0.4864 0.0
C896 C 0.74672 0.53989 0.46985 0.0
C897 C 0.78852 0.54182 0.51596 0.0
C898 C 0.79025 0.54173 0.49079 0.0
C899 C 0.77663 0.54156 0.47641 0.0
C900 C 0.80547 0.54081 0.47892 0.0
C901 C 0.80203 0.541 0.53256 0.0
C902 C 0.82373 0.55387 0.48326 0.0
C903 C 0.8378 0.55296 0.47146 0.0
C904 C 0.83388 0.53915 0.45477 0.0
C905 C 0.81562 0.52611 0.45052 0.0
C906 C 0.80163 0.52691 0.46247 0.0
H907 H 0.79621 0.53612 0.55063 0.0
H908 H 0.80674 0.53194 0.52538 0.0
H909 H 0.81398 0.55478 0.53456 0.0
H910 H 0.82712 0.56499 0.4954 0.0
H911 H 0.8517 0.56333 0.47492 0.0
H912 H 0.29222 0.84859 0.97453 0.0
H913 H 0.26612 0.82389 0.99518 0.0
H914 H 0.27486 0.78484 0.95754 0.0
H915 H 0.30043 0.80934 0.93638 0.0
H916 H 0.24016 0.77482 0.95654 0.0
H917 H 0.26449 0.79284 0.04983 0.0
H918 H 0.2635 0.81066 0.03419 0.0
H919 H 0.27905 0.80351 0.02446 0.0
C920 C 0.28868 0.83474 0.97089 0.0
C921 C 0.29846 0.83095 0.95386 0.0
C922 C 0.27379 0.82061 0.98278 0.0
C923 C 0.26857 0.80241 0.97821 0.0
C924 C 0.27853 0.7987 0.96143 0.0
H925 H 0.19914 0.70886 0.06492 0.0
H926 H 0.22388 0.73433 0.0439 0.0
C927 C 0.29323 0.81276 0.94938 0.0
C928 C 0.25247 0.78713 0.99016 0.0
H929 H 0.23415 0.76913 0.04466 0.0
C930 C 0.23887 0.77359 0.97583 0.0
C931 C 0.25079 0.78534 0.01533 0.0
C932 C 0.26531 0.79875 0.03187 0.0
C933 C 0.2238 0.75834 0.98586 0.0
C934 C 0.22191 0.75675 0.01103 0.0
C935 C 0.23545 0.77035 0.02537 0.0
C936 C 0.20651 0.74075 0.02297 0.0
C937 C 0.2104 0.7438 0.96934 0.0
C938 C 0.18835 0.73567 0.01821 0.0
C939 C 0.17408 0.72084 0.03002 0.0
C940 C 0.17769 0.711 0.04714 0.0
C941 C 0.19585 0.71611 0.05183 0.0
C942 C 0.21005 0.73076 0.03986 0.0
H943 H 0.21638 0.74453 0.95145 0.0
H944 H 0.20556 0.7301 0.97686 0.0
H945 H 0.19852 0.74565 0.96683 0.0
H946 H 0.18519 0.74336 0.00572 0.0
H947 H 0.16026 0.7174 0.02622 0.0
H948 H 0.45786 0.16225 0.51864 0.0
H949 H 0.45776 0.18741 0.49737 0.0
H950 H 0.48407 0.22247 0.55756 0.0
H951 H 0.48474 0.19777 0.57839 0.0
H952 H 0.44247 0.20779 0.50759 0.0
H953 H 0.51694 0.25258 0.50457 0.0
H954 H 0.50644 0.22908 0.5131 0.0
H955 H 0.50883 0.2459 0.53449 0.0
C956 C 0.46374 0.17537 0.52721 0.0
C957 C 0.47152 0.17804 0.55009 0.0
C958 C 0.46364 0.18974 0.51508 0.0
C959 C 0.47126 0.20701 0.52562 0.0
C960 C 0.47861 0.2095 0.54868 0.0
H961 H 0.45268 0.29523 0.48108 0.0
H962 H 0.45211 0.26971 0.5022 0.0
C963 C 0.47889 0.19527 0.56065 0.0
C964 C 0.47139 0.22243 0.51281 0.0
H965 H 0.49927 0.2663 0.49532 0.0
C966 C 0.4549 0.22055 0.50479 0.0
C967 C 0.48762 0.23907 0.50884 0.0
C968 C 0.50597 0.24175 0.51548 0.0
C969 C 0.45418 0.23487 0.49333 0.0
C970 C 0.47034 0.25174 0.49026 0.0
C971 C 0.48683 0.25351 0.49796 0.0
C972 C 0.47068 0.26744 0.47798 0.0
C973 C 0.43617 0.23166 0.48413 0.0
C974 C 0.48174 0.27512 0.45783 0.0
C975 C 0.48226 0.28979 0.44598 0.0
C976 C 0.47175 0.29724 0.45397 0.0
C977 C 0.4609 0.28979 0.47441 0.0
C978 C 0.46043 0.27508 0.48636 0.0
H979 H 0.42623 0.21698 0.48218 0.0
H980 H 0.4305 0.23741 0.49698 0.0
H981 H 0.43775 0.23834 0.46657 0.0
H982 H 0.48985 0.26959 0.45103 0.0
H983 H 0.49079 0.29514 0.43031 0.0
H984 H 0.81031 0.51501 0.06653 0.0
H985 H 0.78565 0.5159 0.04569 0.0
H986 H 0.82454 0.56281 0.00612 0.0
H987 H 0.8494 0.56158 0.02645 0.0
H988 H 0.77587 0.54065 0.04583 0.0
H989 H 0.7926 0.53227 0.95273 0.0
H990 H 0.80353 0.52888 0.97818 0.0
H991 H 0.81073 0.55141 0.9676 0.0
C992 C 0.81367 0.52542 0.0532 0.0
C993 C 0.83186 0.53817 0.04806 0.0
C994 C 0.79951 0.52595 0.04133 0.0
C995 C 0.80312 0.53929 0.02407 0.0
C996 C 0.82131 0.55209 0.0189 0.0
H997 H 0.71787 0.56181 0.97561 0.0
H998 H 0.74392 0.56313 0.99616 0.0
C999 C 0.83554 0.55144 0.03062 0.0
C1000 C 0.78774 0.53992 0.01218 0.0
H1001 H 0.76911 0.53914 0.95777 0.0
C1002 C 0.7744 0.5403 0.02656 0.0
C1003 C 0.78563 0.53928 0.98702 0.0
C1004 C 0.79877 0.53775 0.97047 0.0
C1005 C 0.75906 0.53993 0.0166 0.0
C1006 C 0.75717 0.53971 0.99143 0.0
C1007 C 0.77056 0.53945 0.97704 0.0
C1008 C 0.74106 0.53891 0.97957 0.0
C1009 C 0.74475 0.53914 0.03322 0.0
C1010 C 0.73088 0.52509 0.96303 0.0
C1011 C 0.7162 0.52449 0.95102 0.0
C1012 C 0.71122 0.53765 0.95531 0.0
C1013 C 0.72121 0.55135 0.97212 0.0
C1014 C 0.73608 0.55206 0.98396 0.0
H1015 H 0.74562 0.53417 0.05125 0.0
H1016 H 0.74674 0.55294 0.03533 0.0
H1017 H 0.73092 0.53016 0.02602 0.0
H1018 H 0.73436 0.51476 0.95927 0.0
H1019 H 0.70883 0.51376 0.93818 0.0
H1020 H 0.20056 0.70941 0.43724 0.0
H1021 H 0.22508 0.73499 0.45833 0.0
H1022 H 0.18599 0.74375 0.49592 0.0
H1023 H 0.16125 0.71765 0.4753 0.0
H1024 H 0.23506 0.76966 0.45718 0.0
H1025 H 0.2172 0.74547 0.55056 0.0
H1026 H 0.2065 0.73089 0.52522 0.0
H1027 H 0.19934 0.74642 0.53489 0.0
C1028 C 0.19713 0.71663 0.45021 0.0
C1029 C 0.17891 0.7114 0.45467 0.0
C1030 C 0.2112 0.73133 0.46222 0.0
C1031 C 0.20749 0.7413 0.47896 0.0
C1032 C 0.18928 0.73609 0.48353 0.0
H1033 H 0.29325 0.84938 0.52657 0.0
H1034 H 0.26705 0.82459 0.50624 0.0
C1035 C 0.17512 0.72119 0.47166 0.0
C1036 C 0.22281 0.7574 0.49085 0.0
H1037 H 0.24106 0.77568 0.54527 0.0
C1038 C 0.23635 0.77096 0.47646 0.0
C1039 C 0.22469 0.75909 0.51601 0.0
C1040 C 0.21127 0.74462 0.5326 0.0
C1041 C 0.25169 0.78598 0.48643 0.0
C1042 C 0.25338 0.78786 0.5116 0.0
C1043 C 0.23977 0.77438 0.52599 0.0
C1044 C 0.2695 0.80319 0.52346 0.0
C1045 C 0.26622 0.79931 0.46983 0.0
C1046 C 0.27948 0.79956 0.5403 0.0
C1047 C 0.29425 0.81369 0.55218 0.0
C1048 C 0.29952 0.83186 0.54745 0.0
C1049 C 0.28969 0.83555 0.5304 0.0
C1050 C 0.27474 0.82136 0.51868 0.0
H1051 H 0.2654 0.79331 0.45193 0.0
H1052 H 0.26443 0.81121 0.46737 0.0
H1053 H 0.27996 0.80409 0.47726 0.0
H1054 H 0.2758 0.78572 0.54436 0.0
H1055 H 0.30149 0.81034 0.56522 0.0
H1056 H 0.44686 0.15824 0.97486 0.0
H1057 H 0.44488 0.1827 0.99517 0.0
H1058 H 0.49213 0.22228 0.95679 0.0
H1059 H 0.49381 0.19805 0.93602 0.0
H1060 H 0.46682 0.20952 0.02417 0.0
H1061 H 0.45782 0.24001 0.942 0.0
H1062 H 0.45651 0.21826 0.94201 0.0
H1063 H 0.4782 0.23883 0.94084 0.0
C1064 C 0.45684 0.17216 0.97083 0.0
C1065 C 0.47038 0.17618 0.95365 0.0
C1066 C 0.45568 0.18615 0.9824 0.0
C1067 C 0.46806 0.20441 0.97707 0.0
C1068 C 0.48203 0.20837 0.96066 0.0
H1069 H 0.49344 0.29778 0.06474 0.0
H1070 H 0.49213 0.27197 0.04412 0.0
C1071 C 0.48307 0.19445 0.94894 0.0
C1072 C 0.46664 0.21937 0.98883 0.0
H1073 H 0.46593 0.25837 0.97729 0.0
C1074 C 0.46647 0.2201 0.01389 0.0
C1075 C 0.46577 0.23306 0.97552 0.0
C1076 C 0.46438 0.23241 0.94862 0.0
C1077 C 0.46612 0.2344 0.02595 0.0
C1078 C 0.46648 0.24871 0.01264 0.0
C1079 C 0.46597 0.24763 0.98758 0.0
C1080 C 0.46766 0.26501 0.02434 0.0
C1081 C 0.46513 0.23383 0.05289 0.0
C1082 C 0.45493 0.27043 0.01922 0.0
C1083 C 0.45587 0.28551 0.03069 0.0
C1084 C 0.46956 0.29545 0.04755 0.0
C1085 C 0.4826 0.29033 0.05205 0.0
C1086 C 0.48176 0.27542 0.04043 0.0
H1087 H 0.45893 0.21972 0.05967 0.0
H1088 H 0.47904 0.24158 0.06032 0.0
H1089 H 0.45711 0.23987 0.05969 0.0
H1090 H 0.44402 0.26277 0.0067 0.0
H1091 H 0.44562 0.28909 0.02683 0.0
H1092 H 0.20042 0.49383 0.56651 0.0
H1093 H 0.22493 0.49284 0.54541 0.0
H1094 H 0.18579 0.44535 0.50703 0.0
H1095 H 0.16107 0.44665 0.52765 0.0
H1096 H 0.23467 0.46798 0.54613 0.0
H1097 H 0.21736 0.47532 0.4529 0.0
H1098 H 0.20663 0.47905 0.4783 0.0
H1099 H 0.19932 0.45639 0.46822 0.0
C1100 C 0.19697 0.48329 0.55336 0.0
C1101 C 0.17875 0.47037 0.54868 0.0
C1102 C 0.21105 0.4827 0.54135 0.0
C1103 C 0.20732 0.46914 0.52439 0.0
C1104 C 0.1891 0.45622 0.51959 0.0
H1105 H 0.29227 0.44612 0.47595 0.0
H1106 H 0.2663 0.44492 0.4966 0.0
C1107 C 0.17495 0.45692 0.53146 0.0
C1108 C 0.22262 0.46837 0.51248 0.0
H1109 H 0.24092 0.46858 0.45804 0.0
C1110 C 0.23603 0.46812 0.52685 0.0
C1111 C 0.22457 0.46874 0.48732 0.0
C1112 C 0.21132 0.47007 0.47077 0.0
C1113 C 0.2513 0.46836 0.51686 0.0
C1114 C 0.25305 0.46834 0.49169 0.0
C1115 C 0.23958 0.46846 0.47732 0.0
C1116 C 0.26911 0.46907 0.47981 0.0
C1117 C 0.2657 0.46929 0.53345 0.0
C1118 C 0.27923 0.4828 0.46316 0.0
C1119 C 0.29387 0.48334 0.45112 0.0
C1120 C 0.29886 0.47019 0.45548 0.0
C1121 C 0.28892 0.45657 0.47241 0.0
C1122 C 0.2741 0.45592 0.48429 0.0
H1123 H 0.26488 0.47435 0.55143 0.0
H1124 H 0.26375 0.45552 0.53567 0.0
H1125 H 0.27949 0.47825 0.52612 0.0
H1126 H 0.27575 0.49312 0.45934 0.0
H1127 H 0.3012 0.49402 0.43819 0.0
H1128 H 0.84874 0.29683 0.98263 0.0
H1129 H 0.82363 0.27134 0.00373 0.0
H1130 H 0.78698 0.2666 0.9474 0.0
H1131 H 0.8117 0.2922 0.92676 0.0
H1132 H 0.77188 0.2641 0.9893 0.0
H1133 H 0.80014 0.21813 0.9889 0.0
H1134 H 0.81468 0.23946 0.00312 0.0
H1135 H 0.80996 0.23877 0.97167 0.0
C1136 C 0.83531 0.29035 0.97481 0.0
C1137 C 0.83227 0.29657 0.95299 0.0
C1138 C 0.82098 0.27566 0.98677 0.0
C1139 C 0.80339 0.26674 0.97698 0.0
C1140 C 0.80038 0.27313 0.95534 0.0
H1141 H 0.71282 0.16083 0.02017 0.0
H1142 H 0.73812 0.18593 0.99872 0.0
C1143 C 0.81459 0.28784 0.94354 0.0
C1144 C 0.78792 0.25107 0.98931 0.0
H1145 H 0.77328 0.20862 0.01163 0.0
C1146 C 0.77222 0.25197 0.99412 0.0
C1147 C 0.78812 0.23504 0.99526 0.0
C1148 C 0.80404 0.23265 0.98927 0.0
C1149 C 0.75688 0.23749 0.00488 0.0
C1150 C 0.75734 0.22175 0.01171 0.0
C1151 C 0.77293 0.22071 0.00661 0.0
C1152 C 0.74192 0.20642 0.02455 0.0
C1153 C 0.7402 0.23911 0.00832 0.0
C1154 C 0.73572 0.20947 0.04632 0.0
C1155 C 0.72121 0.19525 0.05841 0.0
C1156 C 0.71265 0.1775 0.04926 0.0
C1157 C 0.71902 0.17435 0.02763 0.0
C1158 C 0.73353 0.18868 0.0154 0.0
H1159 H 0.73995 0.24899 0.99564 0.0
H1160 H 0.72761 0.22585 0.00586 0.0
H1161 H 0.74022 0.24398 0.0267 0.0
H1162 H 0.74222 0.22289 0.05413 0.0
H1163 H 0.71685 0.19818 0.07516 0.0
H1164 H 0.56473 0.84864 0.47519 0.0
H1165 H 0.56641 0.82399 0.49535 0.0
H1166 H 0.51919 0.7848 0.45654 0.0
H1167 H 0.51782 0.80925 0.43588 0.0
H1168 H 0.54437 0.79735 0.52416 0.0
H1169 H 0.55303 0.76647 0.44213 0.0
H1170 H 0.55453 0.78831 0.44204 0.0
H1171 H 0.53275 0.76784 0.44094 0.0
C1172 C 0.55469 0.83476 0.47101 0.0
C1173 C 0.54124 0.83093 0.45376 0.0
C1174 C 0.55569 0.82066 0.4825 0.0
C1175 C 0.54323 0.80245 0.47704 0.0
C1176 C 0.52936 0.79867 0.46052 0.0
H1177 H 0.51737 0.70914 0.56522 0.0
H1178 H 0.51879 0.73491 0.54439 0.0
C1179 C 0.52849 0.81271 0.44886 0.0
C1180 C 0.54445 0.78738 0.48885 0.0
H1181 H 0.5449 0.74822 0.4775 0.0
C1182 C 0.54463 0.7867 0.51392 0.0
C1183 C 0.54521 0.77361 0.47561 0.0
C1184 C 0.54658 0.77418 0.44871 0.0
C1185 C 0.54491 0.7724 0.52605 0.0
C1186 C 0.54445 0.75801 0.51281 0.0
C1187 C 0.54493 0.75902 0.48774 0.0
C1188 C 0.5432 0.74171 0.52461 0.0
C1189 C 0.54595 0.77304 0.55298 0.0
C1190 C 0.55588 0.73619 0.51958 0.0
C1191 C 0.55488 0.72112 0.53118 0.0
C1192 C 0.5412 0.71129 0.54809 0.0
C1193 C 0.52822 0.71651 0.55251 0.0
C1194 C 0.52911 0.7314 0.54075 0.0
H1195 H 0.55221 0.78717 0.55969 0.0
H1196 H 0.53204 0.76536 0.56046 0.0
H1197 H 0.55393 0.76696 0.55981 0.0
H1198 H 0.56679 0.74377 0.50702 0.0
H1199 H 0.56509 0.71747 0.52737 0.0
H1200 H 0.37049 0.43571 0.13183 0.0
H1201 H 0.38105 0.41451 0.12398 0.0
H1202 H 0.36619 0.41182 0.04984 0.0
H1203 H 0.35557 0.43337 0.05756 0.0
H1204 H 0.36282 0.37875 0.1046 0.0
H1205 H 0.42091 0.42735 0.0482 0.0
H1206 H 0.40866 0.43464 0.06716 0.0
H1207 H 0.39853 0.4226 0.04003 0.0
C1208 C 0.36933 0.43059 0.11382 0.0
C1209 C 0.36232 0.43642 0.09527 0.0
C1210 C 0.37535 0.41839 0.10939 0.0
C1211 C 0.37466 0.41174 0.08628 0.0
C1212 C 0.36709 0.41697 0.06777 0.0
H1213 H 0.43506 0.35407 0.05703 0.0
H1214 H 0.41352 0.36482 0.04978 0.0
C1215 C 0.3609 0.42918 0.07224 0.0
C1216 C 0.38255 0.39989 0.08203 0.0
H1217 H 0.42025 0.40063 0.0597 0.0
C1218 C 0.37518 0.38337 0.09438 0.0
C1219 C 0.39864 0.40585 0.06861 0.0
C1220 C 0.4073 0.42361 0.05529 0.0
C1221 C 0.38393 0.37313 0.09466 0.0
C1222 C 0.40067 0.37971 0.08261 0.0
C1223 C 0.40743 0.39561 0.06895 0.0
C1224 C 0.41247 0.37174 0.08671 0.0
C1225 C 0.37546 0.35562 0.10852 0.0
C1226 C 0.41902 0.37206 0.1098 0.0
C1227 C 0.43131 0.36609 0.11393 0.0
C1228 C 0.43742 0.35962 0.09507 0.0
C1229 C 0.43052 0.35884 0.07197 0.0
C1230 C 0.41828 0.36504 0.06779 0.0
H1231 H 0.36052 0.34954 0.10981 0.0
H1232 H 0.3785 0.34565 0.10015 0.0
H1233 H 0.381 0.35836 0.12696 0.0
H1234 H 0.41503 0.37746 0.12461 0.0
H1235 H 0.43628 0.36687 0.13195 0.0
H1236 H 0.0727 0.44159 0.63116 0.0
H1237 H 0.04071 0.42176 0.62252 0.0
H1238 H 0.05376 0.41408 0.55068 0.0
H1239 H 0.08626 0.43421 0.55917 0.0
H1240 H 0.02282 0.42991 0.58182 0.0
H1241 H 0.01581 0.3614 0.57932 0.0
H1242 H 0.03376 0.37965 0.59617 0.0
H1243 H 0.03448 0.38016 0.56418 0.0
C1244 C 0.06893 0.43564 0.61351 0.0
C1245 C 0.08216 0.43969 0.59579 0.0
C1246 C 0.05056 0.42424 0.60864 0.0
C1247 C 0.04484 0.41647 0.58598 0.0
C1248 C 0.05792 0.41987 0.56836 0.0
H1249 H 0.92602 0.35673 0.55655 0.0
H1250 H 0.95862 0.36965 0.54827 0.0
C1251 C 0.07647 0.43137 0.57324 0.0
C1252 C 0.02506 0.40592 0.58093 0.0
H1253 H 0.98883 0.36275 0.57945 0.0
C1254 C 0.01541 0.41524 0.5807 0.0
C1255 C 0.01544 0.38679 0.57954 0.0
C1256 C 0.02527 0.37626 0.57983 0.0
C1257 C 0.99639 0.40594 0.58031 0.0
C1258 C 0.98671 0.3868 0.58037 0.0
C1259 C 0.99631 0.37743 0.5793 0.0
C1260 C 0.96691 0.3767 0.58508 0.0
C1261 C 0.98666 0.41659 0.58115 0.0
C1262 C 0.96082 0.37602 0.6085 0.0
C1263 C 0.9424 0.3688 0.61324 0.0
C1264 C 0.92953 0.36201 0.59465 0.0
C1265 C 0.93555 0.36181 0.57127 0.0
C1266 C 0.95415 0.36919 0.5665 0.0
H1267 H 0.99582 0.43111 0.57677 0.0
H1268 H 0.97507 0.41083 0.56849 0.0
H1269 H 0.98116 0.41571 0.59939 0.0
H1270 H 0.97044 0.38172 0.62308 0.0
H1271 H 0.9383 0.36901 0.6315 0.0
H1272 H 0.57421 0.92469 0.05672 0.0
H1273 H 0.59575 0.95699 0.0491 0.0
H1274 H 0.59385 0.96874 0.12361 0.0
H1275 H 0.57262 0.93691 0.13132 0.0
H1276 H 0.58915 0.98638 0.05833 0.0
H1277 H 0.64848 0.99499 0.10925 0.0
H1278 H 0.63046 0.97308 0.0996 0.0
H1279 H 0.6279 0.98342 0.12622 0.0
C1280 C 0.57864 0.93415 0.0715 0.0
C1281 C 0.57165 0.92818 0.09462 0.0
C1282 C 0.59088 0.95259 0.06711 0.0
C1283 C 0.5966 0.96527 0.08585 0.0
C1284 C 0.58992 0.95922 0.10894 0.0
H1285 H 0.6386 0.07117 0.13062 0.0
H1286 H 0.62787 0.03938 0.12263 0.0
C1287 C 0.57764 0.94096 0.11328 0.0
C1288 C 0.60854 0.98504 0.08156 0.0
H1289 H 0.64639 0.02197 0.10366 0.0
C1290 C 0.60193 0.99418 0.06767 0.0
C1291 C 0.62523 0.99521 0.09371 0.0
C1292 C 0.63354 0.98615 0.10784 0.0
C1293 C 0.61082 0.01324 0.06722 0.0
C1294 C 0.62684 0.02339 0.08078 0.0
C1295 C 0.63408 0.01422 0.09333 0.0
C1296 C 0.63473 0.04315 0.08507 0.0
C1297 C 0.60233 0.02238 0.05365 0.0
C1298 C 0.64259 0.05604 0.06668 0.0
C1299 C 0.64888 0.07446 0.07123 0.0
C1300 C 0.64727 0.08022 0.09421 0.0
C1301 C 0.63991 0.06727 0.11263 0.0
C1302 C 0.6338 0.04903 0.10813 0.0
H1303 H 0.58882 0.0125 0.04627 0.0
H1304 H 0.60081 0.03198 0.06547 0.0
H1305 H 0.6113 0.03026 0.0386 0.0
H1306 H 0.64367 0.05183 0.04879 0.0
H1307 H 0.65448 0.08407 0.05665 0.0
H1308 H 0.63764 0.56823 0.63119 0.0
H1309 H 0.62682 0.58927 0.62393 0.0
H1310 H 0.64504 0.59564 0.55086 0.0
H1311 H 0.65595 0.57425 0.55797 0.0
H1312 H 0.64588 0.62599 0.60742 0.0
H1313 H 0.59025 0.58001 0.54587 0.0
H1314 H 0.60162 0.57183 0.56505 0.0
H1315 H 0.61296 0.58505 0.53915 0.0
C1316 C 0.63946 0.57409 0.61352 0.0
C1317 C 0.64756 0.56937 0.59509 0.0
C1318 C 0.63328 0.58621 0.60945 0.0
C1319 C 0.63489 0.59389 0.5868 0.0
C1320 C 0.64343 0.58969 0.56842 0.0
H1321 H 0.57584 0.65312 0.5584 0.0
H1322 H 0.59732 0.64226 0.55134 0.0
C1323 C 0.64978 0.57757 0.57255 0.0
C1324 C 0.6271 0.60587 0.58291 0.0
H1325 H 0.5903 0.60611 0.55903 0.0
C1326 C 0.63394 0.62182 0.59646 0.0
C1327 C 0.61156 0.60051 0.56852 0.0
C1328 C 0.60352 0.58339 0.55385 0.0
C1329 C 0.62516 0.63203 0.59694 0.0
C1330 C 0.60892 0.62599 0.58387 0.0
C1331 C 0.60273 0.61071 0.56908 0.0
C1332 C 0.59698 0.63383 0.58789 0.0
C1333 C 0.63307 0.64891 0.61209 0.0
C1334 C 0.58964 0.63267 0.61068 0.0
C1335 C 0.57741 0.63872 0.61471 0.0
C1336 C 0.5721 0.6461 0.59602 0.0
C1337 C 0.57973 0.64763 0.57322 0.0
C1338 C 0.59194 0.64137 0.56914 0.0
H1339 H 0.64795 0.65493 0.61426 0.0
H1340 H 0.63032 0.65923 0.60419 0.0
H1341 H 0.62685 0.64538 0.63013 0.0
H1342 H 0.59302 0.6266 0.62534 0.0
H1343 H 0.57188 0.63732 0.63252 0.0
H1344 H 0.92388 0.58474 0.0712 0.0
H1345 H 0.95613 0.60657 0.0633 0.0
H1346 H 0.97113 0.57086 0.09779 0.0
H1347 H 0.93941 0.54931 0.10583 0.0
H1348 H 0.98491 0.62297 0.10002 0.0
H1349 H 0.99867 0.58393 0.03267 0.0
H1350 H 0.97609 0.57975 0.03893 0.0
H1351 H 0.98645 0.57065 0.0582 0.0
C1352 C 0.93407 0.58151 0.07687 0.0
C1353 C 0.92902 0.56529 0.08923 0.0
C1354 C 0.95247 0.59399 0.07239 0.0
C1355 C 0.96602 0.59023 0.07971 0.0
C1356 C 0.96093 0.57394 0.09166 0.0
H1357 H 0.07166 0.63931 0.1303 0.0
H1358 H 0.03979 0.6281 0.12188 0.0
C1359 C 0.94272 0.56167 0.0964 0.0
C1360 C 0.98564 0.60346 0.07637 0.0
H1361 H 0.02447 0.60627 0.05491 0.0
C1362 C 0.99355 0.61957 0.08969 0.0
C1363 C 0.99692 0.59915 0.06269 0.0
C1364 C 0.9891 0.58251 0.04711 0.0
C1365 C 0.01251 0.63072 0.09112 0.0
C1366 C 0.02382 0.62554 0.07914 0.0
C1367 C 0.01586 0.6102 0.0643 0.0
C1368 C 0.04363 0.63437 0.08413 0.0
C1369 C 0.02024 0.64765 0.10614 0.0
C1370 C 0.05655 0.64161 0.06568 0.0
C1371 C 0.075 0.64811 0.07047 0.0
C1372 C 0.08075 0.64713 0.09372 0.0
C1373 C 0.06777 0.64026 0.11216 0.0
C1374 C 0.04949 0.63396 0.10742 0.0
H1375 H 0.01076 0.65298 0.1071 0.0
H1376 H 0.02242 0.64441 0.12462 0.0
H1377 H 0.03344 0.65839 0.09896 0.0
H1378 H 0.05232 0.6419 0.04751 0.0
H1379 H 0.0846 0.6532 0.05584 0.0
H1380 H 0.44162 0.07155 0.62947 0.0
H1381 H 0.42062 0.03973 0.62141 0.0
H1382 H 0.41617 0.05235 0.54803 0.0
H1383 H 0.43753 0.08465 0.55597 0.0
H1384 H 0.38414 0.02248 0.60304 0.0
H1385 H 0.43156 0.01289 0.54449 0.0
H1386 H 0.43946 0.03222 0.56404 0.0
H1387 H 0.42707 0.03085 0.53749 0.0
C1388 C 0.43621 0.06769 0.61156 0.0
C1389 C 0.44145 0.08073 0.59331 0.0
C1390 C 0.42411 0.04943 0.60703 0.0
C1391 C 0.41695 0.04359 0.58409 0.0
C1392 C 0.4217 0.05653 0.56583 0.0
H1393 H 0.35839 0.92513 0.5559 0.0
H1394 H 0.36924 0.95742 0.54828 0.0
C1395 C 0.43381 0.07499 0.57042 0.0
C1396 C 0.40491 0.02384 0.57982 0.0
H1397 H 0.40518 0.98677 0.55716 0.0
C1398 C 0.38855 0.0147 0.59258 0.0
C1399 C 0.41061 0.01366 0.5661 0.0
C1400 C 0.42815 0.02278 0.55227 0.0
C1401 C 0.37826 0.99569 0.59302 0.0
C1402 C 0.38463 0.98548 0.58072 0.0
C1403 C 0.40033 0.9946 0.56662 0.0
C1404 C 0.37669 0.96571 0.58503 0.0
C1405 C 0.36094 0.98668 0.60734 0.0
C1406 C 0.37728 0.95966 0.60812 0.0
C1407 C 0.37124 0.94141 0.61247 0.0
C1408 C 0.36443 0.92863 0.59381 0.0
C1409 C 0.36342 0.93458 0.57069 0.0
C1410 C 0.36968 0.95302 0.5663 0.0
H1411 H 0.35487 0.99551 0.60874 0.0
H1412 H 0.35084 0.97355 0.59927 0.0
H1413 H 0.36397 0.98408 0.62572 0.0
H1414 H 0.38292 0.96919 0.62279 0.0
H1415 H 0.3722 0.93737 0.63051 0.0
H1416 H 0.57503 0.65295 0.9459 0.0
H1417 H 0.59654 0.64213 0.95293 0.0
H1418 H 0.59355 0.62807 0.87843 0.0
H1419 H 0.57236 0.63875 0.8713 0.0
H1420 H 0.58964 0.60614 0.94398 0.0
H1421 H 0.64831 0.6562 0.89128 0.0
H1422 H 0.63052 0.66028 0.90126 0.0
H1423 H 0.62749 0.64706 0.8748 0.0
C1424 C 0.57923 0.64784 0.93098 0.0
C1425 C 0.57194 0.64671 0.90805 0.0
C1426 C 0.59145 0.6416 0.93504 0.0
C1427 C 0.59685 0.6345 0.91614 0.0
C1428 C 0.58989 0.63379 0.89321 0.0
H1429 H 0.63798 0.56975 0.87116 0.0
H1430 H 0.62736 0.59089 0.87896 0.0
C1431 C 0.57763 0.6398 0.88921 0.0
C1432 C 0.60873 0.62659 0.92011 0.0
H1433 H 0.64608 0.62708 0.89709 0.0
C1434 C 0.60225 0.61096 0.93427 0.0
C1435 C 0.6252 0.63291 0.90748 0.0
C1436 C 0.63339 0.65015 0.89304 0.0
C1437 C 0.61104 0.60072 0.93459 0.0
C1438 C 0.62683 0.6064 0.92061 0.0
C1439 C 0.63394 0.62267 0.90773 0.0
C1440 C 0.63463 0.59446 0.91638 0.0
C1441 C 0.60269 0.58324 0.94853 0.0
C1442 C 0.64269 0.58966 0.93476 0.0
C1443 C 0.64891 0.57748 0.93032 0.0
C1444 C 0.64705 0.56982 0.90746 0.0
C1445 C 0.6395 0.57519 0.88904 0.0
C1446 C 0.63344 0.58736 0.89344 0.0
H1447 H 0.58926 0.57967 0.95612 0.0
H1448 H 0.60102 0.57196 0.93692 0.0
H1449 H 0.61182 0.58453 0.96347 0.0
H1450 H 0.64397 0.59516 0.95255 0.0
H1451 H 0.65466 0.57366 0.94489 0.0
H1452 H 0.9264 0.57558 0.44291 0.0
H1453 H 0.95878 0.59748 0.44951 0.0
H1454 H 0.97092 0.58716 0.37846 0.0
H1455 H 0.93906 0.56566 0.37167 0.0
H1456 H 0.98849 0.59056 0.44663 0.0
H1457 H 0.9968 0.64257 0.3811 0.0
H1458 H 0.97487 0.62567 0.39235 0.0
H1459 H 0.98547 0.62027 0.36841 0.0
C1460 C 0.93596 0.57817 0.42862 0.0
C1461 C 0.93004 0.56882 0.40675 0.0
C1462 C 0.95446 0.59064 0.43244 0.0
C1463 C 0.96726 0.59416 0.41434 0.0
C1464 C 0.9613 0.58497 0.39253 0.0
H1465 H 0.07311 0.63224 0.37218 0.0
H1466 H 0.04127 0.62161 0.37948 0.0
C1467 C 0.94299 0.57253 0.38876 0.0
C1468 C 0.98704 0.60666 0.41808 0.0
H1469 H 0.02389 0.64152 0.39084 0.0
C1470 C 0.99625 0.60203 0.43491 0.0
C1471 C 0.99716 0.62167 0.40286 0.0
C1472 C 0.98804 0.62796 0.38533 0.0
C1473 C 0.01536 0.61106 0.43552 0.0
C1474 C 0.02545 0.6252 0.41903 0.0
C1475 C 0.01619 0.63063 0.4034 0.0
C1476 C 0.04523 0.63264 0.41518 0.0
C1477 C 0.02458 0.6046 0.45261 0.0
C1478 C 0.05826 0.64271 0.43275 0.0
C1479 C 0.07675 0.64892 0.42861 0.0
C1480 C 0.08247 0.64509 0.40686 0.0
C1481 C 0.06933 0.63537 0.38923 0.0
C1482 C 0.05102 0.62929 0.39333 0.0
H1483 H 0.01475 0.59214 0.46231 0.0
H1484 H 0.03427 0.60183 0.44284 0.0
H1485 H 0.03241 0.61535 0.46596 0.0
H1486 H 0.05413 0.64569 0.44964 0.0
H1487 H 0.08647 0.65638 0.44256 0.0
H1488 H 0.44492 0.07086 0.87182 0.0
H1489 H 0.42518 0.03884 0.87997 0.0
H1490 H 0.41529 0.05128 0.95105 0.0
H1491 H 0.43533 0.08384 0.94307 0.0
H1492 H 0.43226 0.02071 0.92081 0.0
H1493 H 0.36352 0.01341 0.92068 0.0
H1494 H 0.3822 0.03166 0.90479 0.0
H1495 H 0.38181 0.03183 0.93679 0.0
C1496 C 0.43852 0.06696 0.88921 0.0
C1497 C 0.44191 0.08005 0.90687 0.0
C1498 C 0.42716 0.04856 0.89379 0.0
C1499 C 0.41877 0.04265 0.91608 0.0
C1500 C 0.42155 0.05558 0.93364 0.0
H1501 H 0.35699 0.9238 0.9441 0.0
H1502 H 0.36993 0.95638 0.95224 0.0
C1503 C 0.43301 0.07417 0.92905 0.0
C1504 C 0.40817 0.02285 0.92085 0.0
H1505 H 0.36499 0.98655 0.92104 0.0
C1506 C 0.41756 0.01327 0.92143 0.0
C1507 C 0.389 0.01316 0.92162 0.0
C1508 C 0.37839 0.02291 0.92091 0.0
C1509 C 0.4083 0.99427 0.92158 0.0
C1510 C 0.38915 0.98454 0.92088 0.0
C1511 C 0.37968 0.99406 0.92165 0.0
C1512 C 0.37917 0.96477 0.91601 0.0
C1513 C 0.41907 0.98465 0.92127 0.0
C1514 C 0.37967 0.95875 0.8929 0.0
C1515 C 0.3724 0.94033 0.88824 0.0
C1516 C 0.36439 0.9274 0.90659 0.0
C1517 C 0.36304 0.93337 0.92957 0.0
C1518 C 0.37043 0.95196 0.93425 0.0
H1519 H 0.43338 0.99373 0.92675 0.0
H1520 H 0.41284 0.9727 0.93333 0.0
H1521 H 0.41903 0.97974 0.90289 0.0
H1522 H 0.38628 0.96841 0.87856 0.0
H1523 H 0.37353 0.93629 0.87026 0.0
H1524 H 0.37145 0.43791 0.37023 0.0
H1525 H 0.38393 0.41832 0.37813 0.0
H1526 H 0.36923 0.41508 0.45239 0.0
H1527 H 0.35652 0.43492 0.44461 0.0
H1528 H 0.41322 0.42918 0.41385 0.0
H1529 H 0.35294 0.36103 0.43014 0.0
H1530 H 0.35127 0.37792 0.41261 0.0
H1531 H 0.35434 0.38068 0.44431 0.0
C1532 C 0.37061 0.43291 0.38825 0.0
C1533 C 0.36311 0.43818 0.40684 0.0
C1534 C 0.37774 0.42165 0.3927 0.0
C1535 C 0.37754 0.41525 0.41581 0.0
C1536 C 0.36938 0.41975 0.43435 0.0
H1537 H 0.43766 0.35701 0.44553 0.0
H1538 H 0.41802 0.36999 0.45321 0.0
C1539 C 0.36213 0.43109 0.42988 0.0
C1540 C 0.3874 0.40528 0.4203 0.0
H1541 H 0.38138 0.36278 0.42721 0.0
C1542 C 0.40628 0.41472 0.41724 0.0
C1543 C 0.37835 0.38644 0.4248 0.0
C1544 C 0.35809 0.37577 0.42813 0.0
C1545 C 0.41625 0.40572 0.41745 0.0
C1546 C 0.40711 0.38672 0.42051 0.0
C1547 C 0.38835 0.37735 0.42487 0.0
C1548 C 0.41668 0.37647 0.41618 0.0
C1549 C 0.43646 0.41652 0.4134 0.0
C1550 C 0.42191 0.37532 0.39282 0.0
C1551 C 0.43306 0.36804 0.38842 0.0
C1552 C 0.43926 0.36164 0.40728 0.0
C1553 C 0.43312 0.36179 0.43061 0.0
C1554 C 0.42193 0.36922 0.43503 0.0
H1555 H 0.44201 0.43118 0.41693 0.0
H1556 H 0.44359 0.41152 0.42498 0.0
H1557 H 0.43942 0.41496 0.39451 0.0
H1558 H 0.41789 0.38071 0.378 0.0
H1559 H 0.43729 0.36794 0.37019 0.0
H1560 H 0.0854 0.43571 0.94681 0.0
H1561 H 0.05306 0.41414 0.95433 0.0
H1562 H 0.04149 0.41569 0.87967 0.0
H1563 H 0.07337 0.43698 0.87206 0.0
H1564 H 0.02359 0.42063 0.94458 0.0
H1565 H 0.01534 0.36115 0.89455 0.0
H1566 H 0.03721 0.37923 0.90426 0.0
H1567 H 0.02696 0.38165 0.87744 0.0
C1568 C 0.07598 0.4312 0.93197 0.0
C1569 C 0.082 0.43811 0.90884 0.0
C1570 C 0.05751 0.41894 0.9363 0.0
C1571 C 0.04487 0.41312 0.9175 0.0
C1572 C 0.05099 0.41971 0.89439 0.0
H1573 H 0.93891 0.37044 0.87201 0.0
H1574 H 0.97074 0.38135 0.88025 0.0
C1575 C 0.06926 0.43201 0.89011 0.0
C1576 C 0.02508 0.40117 0.92172 0.0
H1577 H 0.98824 0.36314 0.8998 0.0
C1578 C 0.01584 0.4078 0.93536 0.0
C1579 C 0.01498 0.38441 0.90973 0.0
C1580 C 0.02415 0.37609 0.89587 0.0
C1581 C 0.99675 0.39886 0.93571 0.0
C1582 C 0.98667 0.38276 0.9223 0.0
C1583 C 0.99594 0.37551 0.91001 0.0
C1584 C 0.96689 0.37478 0.91788 0.0
C1585 C 0.98751 0.40737 0.94899 0.0
C1586 C 0.95394 0.36702 0.93625 0.0
C1587 C 0.93549 0.36063 0.93155 0.0
C1588 C 0.92976 0.36203 0.90845 0.0
C1589 C 0.94278 0.36929 0.89007 0.0
C1590 C 0.96104 0.3755 0.89472 0.0
H1591 H 0.99734 0.42093 0.95625 0.0
H1592 H 0.97789 0.40875 0.93702 0.0
H1593 H 0.97961 0.3985 0.96411 0.0
H1594 H 0.95812 0.36611 0.95422 0.0
H1595 H 0.92584 0.35512 0.9461 0.0
H1596 H 0.57608 0.92339 0.44576 0.0
H1597 H 0.59675 0.95566 0.45447 0.0
H1598 H 0.59166 0.96912 0.38173 0.0
H1599 H 0.57137 0.93727 0.37286 0.0
H1600 H 0.62764 0.98844 0.3996 0.0
H1601 H 0.57781 0.99171 0.46082 0.0
H1602 H 0.58446 0.9752 0.46718 0.0
H1603 H 0.57141 0.97283 0.44089 0.0
C1604 C 0.57957 0.93322 0.43157 0.0
C1605 C 0.57187 0.9277 0.40868 0.0
C1606 C 0.59129 0.95167 0.43661 0.0
C1607 C 0.59557 0.96485 0.41882 0.0
C1608 C 0.58855 0.95924 0.39577 0.0
H1609 H 0.61659 0.06899 0.39532 0.0
H1610 H 0.60651 0.03732 0.4031 0.0
C1611 C 0.57684 0.94096 0.39077 0.0
C1612 C 0.60648 0.98462 0.42395 0.0
H1613 H 0.60317 0.01919 0.44962 0.0
C1614 C 0.62256 0.99517 0.41101 0.0
C1615 C 0.59975 0.99339 0.43871 0.0
C1616 C 0.58237 0.98281 0.45265 0.0
C1617 C 0.63153 0.01422 0.41146 0.0
C1618 C 0.62428 0.02296 0.42526 0.0
C1619 C 0.60877 0.01244 0.4392 0.0
C1620 C 0.63068 0.04257 0.42224 0.0
C1621 C 0.64799 0.02489 0.39588 0.0
C1622 C 0.64762 0.05619 0.43073 0.0
C1623 C 0.6535 0.07457 0.42639 0.0
C1624 C 0.64258 0.07952 0.41325 0.0
C1625 C 0.6255 0.06575 0.40527 0.0
C1626 C 0.61962 0.04757 0.4098 0.0
H1627 H 0.65133 0.01601 0.38515 0.0
H1628 H 0.64569 0.03373 0.38355 0.0
H1629 H 0.65984 0.03378 0.40724 0.0
H1630 H 0.65633 0.05261 0.4405 0.0
H1631 H 0.6667 0.08481 0.43279 0.0
H1632 H 0.50566 0.63822 0.97594 0.0
H1633 H 0.48088 0.61595 0.00124 0.0
H1634 H 0.44646 0.59472 0.93928 0.0
H1635 H 0.47096 0.61654 0.91401 0.0
H1636 H 0.44415 0.60765 0.00847 0.0
H1637 H 0.44727 0.55043 0.9662 0.0
H1638 H 0.46498 0.5737 0.96258 0.0
H1639 H 0.4444 0.56488 0.94552 0.0
C1640 C 0.49274 0.62895 0.96779 0.0
C1641 C 0.4904 0.62898 0.94291 0.0
C1642 C 0.47862 0.61621 0.98223 0.0
C1643 C 0.46199 0.6034 0.97201 0.0
C1644 C 0.45932 0.60415 0.94744 0.0
H1645 H 0.36619 0.50706 0.02879 0.0
H1646 H 0.38707 0.53204 0.00269 0.0
C1647 C 0.47337 0.61671 0.93304 0.0
C1648 C 0.44757 0.58881 0.98671 0.0
H1649 H 0.42311 0.54281 0.99312 0.0
C1650 C 0.43956 0.59348 0.00518 0.0
C1651 C 0.44152 0.57031 0.98224 0.0
C1652 C 0.45007 0.56447 0.96321 0.0
C1653 C 0.42556 0.58012 0.01921 0.0
C1654 C 0.41966 0.56162 0.01492 0.0
C1655 C 0.42754 0.55697 0.99627 0.0
C1656 C 0.40637 0.54698 0.0307 0.0
C1657 C 0.4171 0.58594 0.03836 0.0
C1658 C 0.41037 0.54701 0.05497 0.0
C1659 C 0.39856 0.53287 0.06983 0.0
C1660 C 0.38246 0.51816 0.06078 0.0
C1661 C 0.37841 0.51815 0.0364 0.0
C1662 C 0.39032 0.53241 0.02146 0.0
H1663 H 0.41884 0.59948 0.03442 0.0
H1664 H 0.4024 0.57605 0.04031 0.0
H1665 H 0.42383 0.58687 0.05569 0.0
H1666 H 0.42287 0.55782 0.06239 0.0
H1667 H 0.40228 0.53342 0.08844 0.0
H1668 H 0.86759 0.39789 0.59132 0.0
H1669 H 0.86439 0.4191 0.56577 0.0
H1670 H 0.86092 0.3875 0.50383 0.0
H1671 H 0.86408 0.36588 0.52946 0.0
H1672 H 0.88871 0.43914 0.5288 0.0
H1673 H 0.81806 0.39718 0.49561 0.0
H1674 H 0.82632 0.3911 0.52169 0.0
H1675 H 0.83244 0.38751 0.49235 0.0
C1676 C 0.866 0.39523 0.57229 0.0
C1677 C 0.86621 0.38013 0.56248 0.0
C1678 C 0.86415 0.40744 0.55771 0.0
C1679 C 0.86233 0.40486 0.53294 0.0
C1680 C 0.86206 0.38961 0.52298 0.0
H1681 H 0.86208 0.46954 0.41546 0.0
H1682 H 0.85931 0.44585 0.44224 0.0
C1683 C 0.86394 0.3773 0.53764 0.0
C1684 C 0.86191 0.41887 0.51771 0.0
H1685 H 0.83548 0.42658 0.47914 0.0
C1686 C 0.87705 0.43643 0.51801 0.0
C1687 C 0.84667 0.41527 0.5037 0.0
C1688 C 0.82986 0.39679 0.50335 0.0
C1689 C 0.87751 0.45043 0.50432 0.0
C1690 C 0.86225 0.44689 0.49034 0.0
C1691 C 0.84709 0.42931 0.49006 0.0
C1692 C 0.86234 0.46093 0.4746 0.0
C1693 C 0.89457 0.46876 0.50438 0.0
C1694 C 0.86445 0.47718 0.48393 0.0
C1695 C 0.8661 0.49092 0.46857 0.0
C1696 C 0.86568 0.48861 0.44364 0.0
C1697 C 0.86272 0.47195 0.43454 0.0
C1698 C 0.86105 0.45829 0.44983 0.0
H1699 H 0.90633 0.46812 0.51174 0.0
H1700 H 0.89798 0.47444 0.48603 0.0
H1701 H 0.8924 0.47821 0.51564 0.0
H1702 H 0.86516 0.47936 0.50305 0.0
H1703 H 0.86826 0.50351 0.47619 0.0
H1704 H 0.36585 0.86122 0.9739 0.0
H1705 H 0.38666 0.85779 1.00085 0.0
H1706 H 0.42116 0.86367 0.94114 0.0
H1707 H 0.40052 0.86673 0.91422 0.0
H1708 H 0.41669 0.8365 0.97175 0.0
H1709 H 0.43575 0.90002 0.02134 0.0
H1710 H 0.41193 0.88368 0.02114 0.0
H1711 H 0.42319 0.89429 0.99369 0.0
C1712 C 0.3778 0.86166 0.9665 0.0
C1713 C 0.38154 0.86445 0.94188 0.0
C1714 C 0.38974 0.8598 0.98194 0.0
C1715 C 0.40564 0.86079 0.97304 0.0
C1716 C 0.40903 0.86294 0.94843 0.0
H1717 H 0.50406 0.86661 0.02809 0.0
H1718 H 0.47922 0.86333 0.00246 0.0
C1719 C 0.39718 0.86476 0.93306 0.0
C1720 C 0.41915 0.86013 0.98915 0.0
H1721 H 0.44907 0.88308 0.03409 0.0
C1722 C 0.42373 0.84664 0.98546 0.0
C1723 C 0.42843 0.87346 0.00687 0.0
C1724 C 0.42474 0.88879 0.01094 0.0
C1725 C 0.43725 0.84603 0.99914 0.0
C1726 C 0.4466 0.85943 0.01674 0.0
C1727 C 0.44189 0.87281 0.02057 0.0
C1728 C 0.46114 0.8598 0.03177 0.0
C1729 C 0.44125 0.83094 0.99486 0.0
C1730 C 0.45925 0.85889 0.05667 0.0
C1731 C 0.47338 0.86088 0.07127 0.0
C1732 C 0.48986 0.8639 0.06134 0.0
C1733 C 0.49155 0.86422 0.03632 0.0
C1734 C 0.47734 0.86229 0.02165 0.0
H1735 H 0.43001 0.81941 0.98516 0.0
H1736 H 0.4537 0.83613 0.98385 0.0
H1737 H 0.44362 0.8259 0.01199 0.0
H1738 H 0.44689 0.85696 0.06487 0.0
H1739 H 0.47147 0.86039 0.09045 0.0
H1740 H 0.5083 0.36669 0.47383 0.0
H1741 H 0.53301 0.38852 0.49962 0.0
H1742 H 0.56203 0.41944 0.43763 0.0
H1743 H 0.53775 0.39804 0.41191 0.0
H1744 H 0.57264 0.40169 0.49791 0.0
H1745 H 0.55577 0.45566 0.48097 0.0
H1746 H 0.54 0.43202 0.47518 0.0
H1747 H 0.55816 0.44501 0.45462 0.0
C1748 C 0.52001 0.37806 0.46569 0.0
C1749 C 0.52087 0.38067 0.44078 0.0
C1750 C 0.5341 0.39051 0.48044 0.0
C1751 C 0.54918 0.40575 0.47051 0.0
C1752 C 0.55037 0.40796 0.44568 0.0
H1753 H 0.6424 0.50377 0.52655 0.0
H1754 H 0.62107 0.47931 0.50014 0.0
C1755 C 0.53641 0.39562 0.431 0.0
C1756 C 0.56356 0.41974 0.48585 0.0
H1757 H 0.58331 0.46439 0.50125 0.0
C1758 C 0.57494 0.41537 0.49879 0.0
C1759 C 0.5666 0.43761 0.48676 0.0
C1760 C 0.55442 0.4429 0.47382 0.0
C1761 C 0.58947 0.42853 0.51238 0.0
C1762 C 0.59249 0.44641 0.51331 0.0
C1763 C 0.5811 0.45074 0.50033 0.0
C1764 C 0.60658 0.46057 0.52887 0.0
C1765 C 0.60166 0.42325 0.52529 0.0
C1766 C 0.60556 0.45811 0.55368 0.0
C1767 C 0.61761 0.47199 0.56871 0.0
C1768 C 0.63097 0.48875 0.55932 0.0
C1769 C 0.63234 0.49104 0.53437 0.0
C1770 C 0.62014 0.47709 0.51928 0.0
H1771 H 0.60098 0.41103 0.51724 0.0
H1772 H 0.61597 0.43447 0.52508 0.0
H1773 H 0.59723 0.42008 0.54419 0.0
H1774 H 0.59502 0.44564 0.56153 0.0
H1775 H 0.61615 0.46967 0.58782 0.0
H1776 H 0.15161 0.53875 0.91286 0.0
H1777 H 0.15474 0.56342 0.93797 0.0
H1778 H 0.14471 0.53033 1.00065 0.0
H1779 H 0.14176 0.50542 0.97549 0.0
H1780 H 0.12771 0.56182 0.96594 0.0
H1781 H 0.18827 0.5786 0.02099 0.0
H1782 H 0.18279 0.56518 0.99408 0.0
H1783 H 0.17106 0.55509 0.0215 0.0
C1784 C 0.15027 0.53671 0.93202 0.0
C1785 C 0.1463 0.52001 0.94215 0.0
C1786 C 0.15209 0.55089 0.94635 0.0
C1787 C 0.15005 0.54879 0.97118 0.0
C1788 C 0.14666 0.53237 0.98154 0.0
H1789 H 0.13831 0.6078 0.08655 0.0
H1790 H 0.14208 0.58742 0.0601 0.0
C1791 C 0.14492 0.51812 0.96715 0.0
C1792 C 0.15007 0.56335 0.98577 0.0
H1793 H 0.17091 0.59214 0.03252 0.0
C1794 C 0.13725 0.56857 0.98038 0.0
C1795 C 0.16254 0.57213 0.00456 0.0
C1796 C 0.17706 0.56762 0.01055 0.0
C1797 C 0.13621 0.58195 0.99368 0.0
C1798 C 0.14855 0.59062 0.01266 0.0
C1799 C 0.16152 0.58556 0.01787 0.0
C1800 C 0.14726 0.60388 0.02852 0.0
C1801 C 0.12146 0.58621 0.98787 0.0
C1802 C 0.1492 0.62018 0.01965 0.0
C1803 C 0.14693 0.63199 0.03482 0.0
C1804 C 0.14277 0.62772 0.05914 0.0
C1805 C 0.14138 0.61159 0.06794 0.0
C1806 C 0.1436 0.59987 0.05284 0.0
H1807 H 0.11076 0.57566 0.97634 0.0
H1808 H 0.11502 0.58748 0.00444 0.0
H1809 H 0.12746 0.5993 0.97818 0.0
H1810 H 0.15235 0.62371 1.00099 0.0
H1811 H 0.14824 0.64432 0.02745 0.0
H1812 H 0.50849 0.14333 0.52859 0.0
H1813 H 0.53361 0.14686 0.50322 0.0
H1814 H 0.56639 0.15552 0.56586 0.0
H1815 H 0.54158 0.15191 0.59119 0.0
H1816 H 0.57164 0.17568 0.49952 0.0
H1817 H 0.56383 0.11086 0.53299 0.0
H1818 H 0.54658 0.11696 0.53706 0.0
H1819 H 0.56637 0.12677 0.55579 0.0
C1820 C 0.52113 0.14622 0.53691 0.0
C1821 C 0.5229 0.14705 0.56195 0.0
C1822 C 0.53545 0.14821 0.52242 0.0
C1823 C 0.5517 0.15107 0.53274 0.0
C1824 C 0.55383 0.15293 0.55757 0.0
H1825 H 0.64541 0.14759 0.47501 0.0
H1826 H 0.62521 0.15219 0.50168 0.0
C1827 C 0.5396 0.15088 0.57201 0.0
C1828 C 0.56622 0.15132 0.51785 0.0
H1829 H 0.58888 0.12841 0.50786 0.0
C1830 C 0.57541 0.16535 0.50128 0.0
C1831 C 0.5712 0.13789 0.52035 0.0
C1832 C 0.56141 0.12217 0.53735 0.0
C1833 C 0.58956 0.16638 0.48722 0.0
C1834 C 0.59438 0.1528 0.48948 0.0
C1835 C 0.5853 0.13889 0.50626 0.0
C1836 C 0.60775 0.15188 0.47338 0.0
C1837 C 0.59935 0.18212 0.47027 0.0
C1838 C 0.60468 0.15021 0.44868 0.0
C1839 C 0.61614 0.14763 0.43348 0.0
C1840 C 0.63091 0.14644 0.4426 0.0
C1841 C 0.63423 0.14849 0.46736 0.0
C1842 C 0.62268 0.15109 0.48262 0.0
H1843 H 0.59839 0.19402 0.47622 0.0
H1844 H 0.61389 0.18621 0.4686 0.0
H1845 H 0.59301 0.17812 0.45234 0.0
H1846 H 0.59303 0.15031 0.44115 0.0
H1847 H 0.61309 0.14612 0.41455 0.0
H1848 H 0.53691 0.39523 0.08825 0.0
H1849 H 0.56082 0.41651 0.06192 0.0
H1850 H 0.52954 0.38671 1.00051 0.0
H1851 H 0.50515 0.36528 0.02689 0.0
H1852 H 0.58174 0.41237 0.02718 0.0
H1853 H 0.53897 0.43818 0.98861 0.0
H1854 H 0.53239 0.42403 0.01488 0.0
H1855 H 0.52985 0.41419 0.98574 0.0
C1856 C 0.53502 0.39307 0.06915 0.0
C1857 C 0.51892 0.37861 0.0597 0.0
C1858 C 0.54881 0.40526 0.05412 0.0
C1859 C 0.54686 0.4034 0.02927 0.0
C1860 C 0.53117 0.38859 0.01967 0.0
H1861 H 0.61139 0.47094 0.91277 0.0
H1862 H 0.5901 0.44658 0.93845 0.0
C1863 C 0.51729 0.37628 0.03476 0.0
C1864 C 0.56105 0.41743 0.01369 0.0
H1865 H 0.56858 0.45042 0.97323 0.0
C1866 C 0.57888 0.42067 0.01533 0.0
C1867 C 0.55732 0.42839 0.99848 0.0
C1868 C 0.53865 0.4262 0.99689 0.0
C1869 C 0.59303 0.4344 0.00185 0.0
C1870 C 0.58925 0.44529 0.9866 0.0
C1871 C 0.57143 0.44204 0.98496 0.0
C1872 C 0.60337 0.45975 0.97142 0.0
C1873 C 0.61181 0.43695 0.00368 0.0
C1874 C 0.61811 0.47526 0.98143 0.0
C1875 C 0.63048 0.48941 0.96669 0.0
C1876 C 0.62817 0.48828 0.94172 0.0
C1877 C 0.6136 0.47245 0.9319 0.0
C1878 C 0.60136 0.45842 0.94655 0.0
H1879 H 0.6117 0.42515 0.01226 0.0
H1880 H 0.6181 0.43907 0.98572 0.0
H1881 H 0.62044 0.44914 0.01462 0.0
H1882 H 0.61977 0.47666 1.00064 0.0
H1883 H 0.64148 0.50139 0.97486 0.0
H1884 H 0.14742 0.61185 0.4146 0.0
H1885 H 0.15028 0.59103 0.44139 0.0
H1886 H 0.14953 0.62172 0.50211 0.0
H1887 H 0.1463 0.64268 0.47526 0.0
H1888 H 0.17559 0.59552 0.47553 0.0
H1889 H 0.10759 0.57066 0.51596 0.0
H1890 H 0.11488 0.58447 0.48937 0.0
H1891 H 0.12272 0.59466 0.51824 0.0
C1892 C 0.1479 0.61431 0.43364 0.0
C1893 C 0.14636 0.62887 0.44275 0.0
C1894 C 0.14962 0.60237 0.44894 0.0
C1895 C 0.1498 0.60461 0.47374 0.0
C1896 C 0.14906 0.61954 0.483 0.0
H1897 H 0.14756 0.53804 0.59113 0.0
H1898 H 0.15079 0.56238 0.56535 0.0
C1899 C 0.14733 0.63157 0.46763 0.0
C1900 C 0.15009 0.59083 0.48964 0.0
H1901 H 0.12504 0.55855 0.5312 0.0
C1902 C 0.16457 0.58746 0.48776 0.0
C1903 C 0.13559 0.58019 0.50538 0.0
C1904 C 0.11922 0.5825 0.50729 0.0
C1905 C 0.16505 0.57388 0.50144 0.0
C1906 C 0.15056 0.56329 0.51716 0.0
C1907 C 0.13613 0.5667 0.5191 0.0
C1908 C 0.15021 0.54889 0.53241 0.0
C1909 C 0.18115 0.57116 0.49926 0.0
C1910 C 0.14902 0.53321 0.52244 0.0
C1911 C 0.14714 0.51909 0.53723 0.0
C1912 C 0.14629 0.5204 0.56222 0.0
C1913 C 0.148 0.5364 0.572 0.0
C1914 C 0.14988 0.55041 0.55728 0.0
H1915 H 0.19282 0.58283 0.49038 0.0
H1916 H 0.18552 0.56915 0.51713 0.0
H1917 H 0.17728 0.55886 0.48844 0.0
H1918 H 0.14899 0.53166 0.50323 0.0
H1919 H 0.1458 0.50697 0.52909 0.0
H1920 H 0.60956 0.13959 0.08753 0.0
H1921 H 0.58923 0.14324 0.06072 0.0
H1922 H 0.62528 0.15216 0.0017 0.0
H1923 H 0.64578 0.14814 0.0285 0.0
H1924 H 0.59385 0.17141 0.03211 0.0
H1925 H 0.57708 0.11034 0.97803 0.0
H1926 H 0.58904 0.11511 0.00608 0.0
H1927 H 0.60078 0.12697 0.97946 0.0
C1928 C 0.61331 0.14235 0.06887 0.0
C1929 C 0.6293 0.14335 0.06018 0.0
C1930 C 0.60163 0.1445 0.05356 0.0
C1931 C 0.60556 0.1477 0.02916 0.0
C1932 C 0.62179 0.14934 0.02042 0.0
H1933 H 0.54115 0.15112 0.91189 0.0
H1934 H 0.56564 0.15444 0.93761 0.0
C1935 C 0.63355 0.14714 0.03579 0.0
C1936 C 0.59227 0.14875 0.01305 0.0
H1937 H 0.56352 0.12732 0.96646 0.0
C1938 C 0.58726 0.16183 0.01768 0.0
C1939 C 0.58358 0.13613 0.99437 0.0
C1940 C 0.58773 0.12123 0.98924 0.0
C1941 C 0.57387 0.16269 0.00403 0.0
C1942 C 0.56511 0.14999 0.98548 0.0
C1943 C 0.57026 0.13705 0.98071 0.0
C1944 C 0.55067 0.14987 0.97051 0.0
C1945 C 0.56938 0.17731 0.00939 0.0
C1946 C 0.53412 0.14648 0.9805 0.0
C1947 C 0.51996 0.14461 0.96576 0.0
C1948 C 0.52209 0.14588 0.94078 0.0
C1949 C 0.53893 0.14987 0.93102 0.0
C1950 C 0.553 0.1518 0.9457 0.0
H1951 H 0.58026 0.18855 0.01989 0.0
H1952 H 0.56719 0.18292 0.99264 0.0
H1953 H 0.55669 0.17143 0.02001 0.0
H1954 H 0.53191 0.14463 0.99959 0.0
H1955 H 0.50716 0.14145 0.97383 0.0
H1956 H 0.47245 0.61288 0.58869 0.0
H1957 H 0.44854 0.59161 0.56231 0.0
H1958 H 0.48131 0.61943 0.50093 0.0
H1959 H 0.50566 0.64086 0.52738 0.0
H1960 H 0.42879 0.59594 0.52568 0.0
H1961 H 0.47031 0.567 0.49241 0.0
H1962 H 0.47675 0.5817 0.51812 0.0
H1963 H 0.48034 0.59103 0.48852 0.0
C1964 C 0.47465 0.61461 0.56958 0.0
C1965 C 0.49115 0.62848 0.56018 0.0
C1966 C 0.46087 0.60243 0.55452 0.0
C1967 C 0.46325 0.60373 0.5297 0.0
C1968 C 0.47934 0.618 0.5201 0.0
H1969 H 0.39989 0.53591 0.41297 0.0
H1970 H 0.42121 0.56006 0.43887 0.0
C1971 C 0.4932 0.6303 0.53521 0.0
C1972 C 0.44908 0.58962 0.51418 0.0
H1973 H 0.4412 0.55547 0.47558 0.0
C1974 C 0.43148 0.58709 0.51468 0.0
C1975 C 0.45259 0.57796 0.5001 0.0
C1976 C 0.47096 0.57938 0.49983 0.0
C1977 C 0.41737 0.57341 0.5011 0.0
C1978 C 0.42094 0.56185 0.48693 0.0
C1979 C 0.43852 0.56436 0.48649 0.0
C1980 C 0.40691 0.54751 0.47155 0.0
C1981 C 0.39887 0.57164 0.50161 0.0
C1982 C 0.3916 0.5324 0.48133 0.0
C1983 C 0.37922 0.51836 0.46647 0.0
C1984 C 0.38205 0.51921 0.44161 0.0
C1985 C 0.39723 0.53463 0.432 0.0
C1986 C 0.4095 0.54853 0.44678 0.0
H1987 H 0.39925 0.58374 0.50959 0.0
H1988 H 0.39316 0.56961 0.48329 0.0
H1989 H 0.38958 0.55965 0.51247 0.0
H1990 H 0.38948 0.53124 0.50048 0.0
H1991 H 0.36773 0.5067 0.47448 0.0
H1992 H 0.8696 0.39915 0.91317 0.0
H1993 H 0.86566 0.41955 0.93942 0.0
H1994 H 0.85716 0.38432 0.99923 0.0
H1995 H 0.86148 0.36374 0.97299 0.0
H1996 H 0.83741 0.41501 0.96783 0.0
H1997 H 0.89871 0.43288 0.02217 0.0
H1998 H 0.89401 0.42065 0.99436 0.0
H1999 H 0.88228 0.40913 0.02117 0.0
C2000 C 0.86687 0.3956 0.93189 0.0
C2001 C 0.86608 0.37981 0.94097 0.0
C2002 C 0.86455 0.40732 0.94688 0.0
C2003 C 0.86139 0.40364 0.97134 0.0
C2004 C 0.85995 0.38761 0.98045 0.0
H2005 H 0.85629 0.46743 0.08778 0.0
H2006 H 0.85314 0.44309 0.06199 0.0
C2007 C 0.86232 0.37581 0.96541 0.0
C2008 C 0.86018 0.41698 0.98713 0.0
H2009 H 0.88127 0.44601 0.03356 0.0
C2010 C 0.84695 0.42176 0.98226 0.0
C2011 C 0.87276 0.42589 0.00579 0.0
C2012 C 0.88786 0.42205 0.01112 0.0
C2013 C 0.84587 0.4351 0.99571 0.0
C2014 C 0.85847 0.44401 0.01431 0.0
C2015 C 0.8716 0.43914 0.01928 0.0
C2016 C 0.85828 0.4583 0.02921 0.0
C2017 C 0.83113 0.43939 0.99012 0.0
C2018 C 0.86186 0.47491 0.01929 0.0
C2019 C 0.86365 0.48899 0.03408 0.0
C2020 C 0.86208 0.48671 0.05903 0.0
C2021 C 0.85777 0.46978 0.06868 0.0
C2022 C 0.85594 0.45578 0.05396 0.0
H2023 H 0.82011 0.42858 0.97924 0.0
H2024 H 0.82518 0.44122 0.00681 0.0
H2025 H 0.83701 0.45222 0.97984 0.0
H2026 H 0.86398 0.47723 1.00024 0.0
H2027 H 0.86706 0.50187 0.02609 0.0
H2028 H 0.50515 0.86671 0.4747 0.0
H2029 H 0.48033 0.8637 0.5002 0.0
H2030 H 0.44732 0.85505 0.43777 0.0
H2031 H 0.47186 0.85819 0.41234 0.0
H2032 H 0.44971 0.88214 0.46704 0.0
H2033 H 0.43135 0.82001 0.51936 0.0
H2034 H 0.45502 0.83685 0.51989 0.0
H2035 H 0.44464 0.82572 0.49228 0.0
C2036 C 0.49249 0.86384 0.46647 0.0
C2037 C 0.49059 0.86285 0.44146 0.0
C2038 C 0.47829 0.86207 0.48106 0.0
C2039 C 0.46193 0.85907 0.47087 0.0
C2040 C 0.45981 0.8574 0.44602 0.0
H2041 H 0.36685 0.86167 0.52733 0.0
H2042 H 0.38753 0.85768 0.5008 0.0
C2043 C 0.47392 0.85923 0.4315 0.0
C2044 C 0.44746 0.85905 0.48568 0.0
H2045 H 0.41793 0.83731 0.53147 0.0
C2046 C 0.44266 0.87226 0.48102 0.0
C2047 C 0.4383 0.84615 0.50389 0.0
C2048 C 0.44243 0.83126 0.50909 0.0
C2049 C 0.42927 0.87323 0.49446 0.0
C2050 C 0.42015 0.86039 0.51278 0.0
C2051 C 0.42484 0.84706 0.5173 0.0
C2052 C 0.40675 0.86145 0.52866 0.0
C2053 C 0.42548 0.88839 0.48948 0.0
C2054 C 0.41034 0.86426 0.55318 0.0
C2055 C 0.39856 0.8664 0.56832 0.0
C2056 C 0.38281 0.86577 0.55935 0.0
C2057 C 0.37889 0.86237 0.53483 0.0
C2058 C 0.39075 0.86019 0.51963 0.0
H2059 H 0.43638 0.89935 0.47863 0.0
H2060 H 0.41259 0.88296 0.47939 0.0
H2061 H 0.42403 0.89435 0.5064 0.0
H2062 H 0.42254 0.86522 0.56058 0.0
H2063 H 0.40205 0.86884 0.58708 0.0
loop_
_geom_bond_atom_site_label_1
_geom_bond_atom_site_label_2
_geom_bond_distance
_geom_bond_site_symmetry_2
_ccdc_geom_bond_type
Co0 O1 2.216 . S
Co0 O2 2.091 . S
Co0 O4 2.004 . S
Co0 O10 2.021 . S
Co0 O12 2.137 . S
Co0 O13 2.244 . S
O1 Co0 2.216 . S
O1 C8 1.247 . S
O2 Co0 2.091 . S
O2 C8 1.261 . S
C3 O12 1.247 . S
C3 O13 1.272 . S
O4 Co0 2.004 . S
O4 C9 1.259 . S
Co5 O6 2.061 . S
Co5 O11 2.052 . S
Co5 O13 2.135 . S
O6 Co5 2.061 . S
O6 C9 1.235 . S
C7 O10 1.238 . S
C7 O11 1.241 . S
C8 O1 1.247 . S
C8 O2 1.261 . S
C9 O4 1.259 . S
C9 O6 1.235 . S
O10 Co0 2.021 . S
O10 C7 1.238 . S
O11 Co5 2.052 . S
O11 C7 1.241 . S
O12 Co0 2.137 . S
O12 C3 1.247 . S
O13 Co0 2.244 . S
O13 C3 1.272 . S
O13 Co5 2.135 . S
Co14 O15 2.216 . S
Co14 O16 2.091 . S
Co14 O18 2.004 . S
Co14 O24 2.021 . S
Co14 O26 2.137 . S
Co14 O27 2.244 . S
O15 Co14 2.216 . S
O15 C22 1.247 . S
O16 Co14 2.091 . S
O16 C22 1.261 . S
C17 O26 1.247 . S
C17 O27 1.272 . S
O18 Co14 2.004 . S
O18 C23 1.259 . S
Co19 O20 2.061 . S
Co19 O25 2.052 . S
Co19 O27 2.135 . S
O20 Co19 2.061 . S
O20 C23 1.235 . S
C21 O24 1.238 . S
C21 O25 1.241 . S
C22 O15 1.247 . S
C22 O16 1.261 . S
C23 O18 1.259 . S
C23 O20 1.235 . S
O24 Co14 2.021 . S
O24 C21 1.238 . S
O25 Co19 2.052 . S
O25 C21 1.241 . S
O26 Co14 2.137 . S
O26 C17 1.247 . S
O27 Co14 2.244 . S
O27 C17 1.272 . S
O27 Co19 2.135 . S
Co28 O29 2.216 . S
Co28 O30 2.091 . S
Co28 O32 2.004 . S
Co28 O38 2.021 . S
Co28 O40 2.137 . S
Co28 O41 2.244 . S
O29 Co28 2.216 . S
O29 C36 1.247 . S
O30 Co28 2.091 . S
O30 C36 1.261 . S
C31 O40 1.247 . S
C31 O41 1.272 . S
O32 Co28 2.004 . S
O32 C37 1.259 . S
Co33 O34 2.061 . S
Co33 O39 2.052 . S
Co33 O41 2.135 . S
O34 Co33 2.061 . S
O34 C37 1.235 . S
C35 O38 1.238 . S
C35 O39 1.241 . S
C36 O29 1.247 . S
C36 O30 1.261 . S
C37 O32 1.259 . S
C37 O34 1.235 . S
O38 Co28 2.021 . S
O38 C35 1.238 . S
O39 Co33 2.052 . S
O39 C35 1.241 . S
O40 Co28 2.137 . S
O40 C31 1.247 . S
O41 Co28 2.244 . S
O41 C31 1.272 . S
O41 Co33 2.135 . S
Co42 O43 2.216 . S
Co42 O44 2.091 . S
Co42 O46 2.004 . S
Co42 O52 2.021 . S
Co42 O54 2.137 . S
Co42 O55 2.244 . S
O43 Co42 2.216 . S
O43 C50 1.247 . S
O44 Co42 2.091 . S
O44 C50 1.261 . S
C45 O54 1.247 . S
C45 O55 1.272 . S
O46 Co42 2.004 . S
O46 C51 1.259 . S
Co47 O48 2.061 . S
Co47 O53 2.052 . S
Co47 O55 2.135 . S
O48 Co47 2.061 . S
O48 C51 1.235 . S
C49 O52 1.238 . S
C49 O53 1.241 . S
C50 O43 1.247 . S
C50 O44 1.261 . S
C51 O46 1.259 . S
C51 O48 1.235 . S
O52 Co42 2.021 . S
O52 C49 1.238 . S
O53 Co47 2.052 . S
O53 C49 1.241 . S
O54 Co42 2.137 . S
O54 C45 1.247 . S
O55 Co42 2.244 . S
O55 C45 1.272 . S
O55 Co47 2.135 . S
Co56 O57 2.216 . S
Co56 O58 2.091 . S
Co56 O60 2.004 . S
Co56 O66 2.021 . S
Co56 O68 2.137 . S
Co56 O69 2.244 . S
O57 Co56 2.216 . S
O57 C64 1.247 . S
O58 Co56 2.091 . S
O58 C64 1.261 . S
C59 O68 1.247 . S
C59 O69 1.272 . S
O60 Co56 2.004 . S
O60 C65 1.259 . S
Co61 O62 2.061 . S
Co61 O67 2.052 . S
Co61 O69 2.135 . S
O62 Co61 2.061 . S
O62 C65 1.235 . S
C63 O66 1.238 . S
C63 O67 1.241 . S
C64 O57 1.247 . S
C64 O58 1.261 . S
C65 O60 1.259 . S
C65 O62 1.235 . S
O66 Co56 2.021 . S
O66 C63 1.238 . S
O67 Co61 2.052 . S
O67 C63 1.241 . S
O68 Co56 2.137 . S
O68 C59 1.247 . S
O69 Co56 2.244 . S
O69 C59 1.272 . S
O69 Co61 2.135 . S
Co70 O71 2.216 . S
Co70 O72 2.091 . S
Co70 O74 2.004 . S
Co70 O80 2.021 . S
Co70 O82 2.137 . S
Co70 O83 2.244 . S
O71 Co70 2.216 . S
O71 C78 1.247 . S
O72 Co70 2.091 . S
O72 C78 1.261 . S
C73 O82 1.247 . S
C73 O83 1.272 . S
O74 Co70 2.004 . S
O74 C79 1.259 . S
Co75 O76 2.061 . S
Co75 O81 2.052 . S
Co75 O83 2.135 . S
O76 Co75 2.061 . S
O76 C79 1.235 . S
C77 O80 1.238 . S
C77 O81 1.241 . S
C78 O71 1.247 . S
C78 O72 1.261 . S
C79 O74 1.259 . S
C79 O76 1.235 . S
O80 Co70 2.021 . S
O80 C77 1.238 . S
O81 Co75 2.052 . S
O81 C77 1.241 . S
O82 Co70 2.137 . S
O82 C73 1.247 . S
O83 Co70 2.244 . S
O83 C73 1.272 . S
O83 Co75 2.135 . S
Co84 O85 2.216 . S
Co84 O86 2.091 . S
Co84 O88 2.004 . S
Co84 O94 2.021 . S
Co84 O96 2.137 . S
Co84 O97 2.244 . S
O85 Co84 2.216 . S
O85 C92 1.247 . S
O86 Co84 2.091 . S
O86 C92 1.261 . S
C87 O96 1.247 . S
C87 O97 1.272 . S
O88 Co84 2.004 . S
O88 C93 1.259 . S
Co89 O90 2.061 . S
Co89 O95 2.052 . S
Co89 O97 2.135 . S
O90 Co89 2.061 . S
O90 C93 1.235 . S
C91 O94 1.238 . S
C91 O95 1.241 . S
C92 O85 1.247 . S
C92 O86 1.261 . S
C93 O88 1.259 . S
C93 O90 1.235 . S
O94 Co84 2.021 . S
O94 C91 1.238 . S
O95 Co89 2.052 . S
O95 C91 1.241 . S
O96 Co84 2.137 . S
O96 C87 1.247 . S
O97 Co84 2.244 . S
O97 C87 1.272 . S
O97 Co89 2.135 . S
Co98 O99 2.216 . S
Co98 O100 2.091 . S
Co98 O102 2.004 . S
Co98 O108 2.021 . S
Co98 O110 2.137 . S
Co98 O111 2.244 . S
O99 Co98 2.216 . S
O99 C106 1.247 . S
O100 Co98 2.091 . S
O100 C106 1.261 . S
C101 O110 1.247 . S
C101 O111 1.272 . S
O102 Co98 2.004 . S
O102 C107 1.259 . S
Co103 O104 2.061 . S
Co103 O109 2.052 . S
Co103 O111 2.135 . S
O104 Co103 2.061 . S
O104 C107 1.235 . S
C105 O108 1.238 . S
C105 O109 1.241 . S
C106 O99 1.247 . S
C106 O100 1.261 . S
C107 O102 1.259 . S
C107 O104 1.235 . S
O108 Co98 2.021 . S
O108 C105 1.238 . S
O109 Co103 2.052 . S
O109 C105 1.241 . S
O110 Co98 2.137 . S
O110 C101 1.247 . S
O111 Co98 2.244 . S
O111 C101 1.272 . S
O111 Co103 2.135 . S
Co112 O113 2.216 . S
Co112 O114 2.091 . S
Co112 O116 2.004 . S
Co112 O122 2.021 . S
Co112 O124 2.137 . S
Co112 O125 2.244 . S
O113 Co112 2.216 . S
O113 C120 1.247 . S
O114 Co112 2.091 . S
O114 C120 1.261 . S
C115 O124 1.247 . S
C115 O125 1.272 . S
O116 Co112 2.004 . S
O116 C121 1.259 . S
Co117 O118 2.061 . S
Co117 O123 2.052 . S
Co117 O125 2.135 . S
O118 Co117 2.061 . S
O118 C121 1.235 . S
C119 O122 1.238 . S
C119 O123 1.241 . S
C120 O113 1.247 . S
C120 O114 1.261 . S
C121 O116 1.259 . S
C121 O118 1.235 . S
O122 Co112 2.021 . S
O122 C119 1.238 . S
O123 Co117 2.052 . S
O123 C119 1.241 . S
O124 Co112 2.137 . S
O124 C115 1.247 . S
O125 Co112 2.244 . S
O125 C115 1.272 . S
O125 Co117 2.135 . S
Co126 O127 2.216 . S
Co126 O128 2.091 . S
Co126 O130 2.004 . S
Co126 O136 2.021 . S
Co126 O138 2.137 . S
Co126 O139 2.244 . S
O127 Co126 2.216 . S
O127 C134 1.247 . S
O128 Co126 2.091 . S
O128 C134 1.261 . S
C129 O138 1.247 . S
C129 O139 1.272 . S
O130 Co126 2.004 . S
O130 C135 1.259 . S
Co131 O132 2.061 . S
Co131 O137 2.052 . S
Co131 O139 2.135 . S
O132 Co131 2.061 . S
O132 C135 1.235 . S
C133 O136 1.238 . S
C133 O137 1.241 . S
C134 O127 1.247 . S
C134 O128 1.261 . S
C135 O130 1.259 . S
C135 O132 1.235 . S
O136 Co126 2.021 . S
O136 C133 1.238 . S
O137 Co131 2.052 . S
O137 C133 1.241 . S
O138 Co126 2.137 . S
O138 C129 1.247 . S
O139 Co126 2.244 . S
O139 C129 1.272 . S
O139 Co131 2.135 . S
Co140 O141 2.216 . S
Co140 O142 2.091 . S
Co140 O144 2.004 . S
Co140 O150 2.021 . S
Co140 O152 2.137 . S
Co140 O153 2.244 . S
O141 Co140 2.216 . S
O141 C148 1.247 . S
O142 Co140 2.091 . S
O142 C148 1.261 . S
C143 O152 1.247 . S
C143 O153 1.272 . S
O144 Co140 2.004 . S
O144 C149 1.259 . S
Co145 O146 2.061 . S
Co145 O151 2.052 . S
Co145 O153 2.135 . S
O146 Co145 2.061 . S
O146 C149 1.235 . S
C147 O150 1.238 . S
C147 O151 1.241 . S
C148 O141 1.247 . S
C148 O142 1.261 . S
C149 O144 1.259 . S
C149 O146 1.235 . S
O150 Co140 2.021 . S
O150 C147 1.238 . S
O151 Co145 2.052 . S
O151 C147 1.241 . S
O152 Co140 2.137 . S
O152 C143 1.247 . S
O153 Co140 2.244 . S
O153 C143 1.272 . S
O153 Co145 2.135 . S
Co154 O155 2.216 . S
Co154 O156 2.091 . S
Co154 O158 2.004 . S
Co154 O164 2.021 . S
Co154 O166 2.137 . S
Co154 O167 2.244 . S
O155 Co154 2.216 . S
O155 C162 1.247 . S
O156 Co154 2.091 . S
O156 C162 1.261 . S
C157 O166 1.247 . S
C157 O167 1.272 . S
O158 Co154 2.004 . S
O158 C163 1.259 . S
Co159 O160 2.061 . S
Co159 O165 2.052 . S
Co159 O167 2.135 . S
O160 Co159 2.061 . S
O160 C163 1.235 . S
C161 O164 1.238 . S
C161 O165 1.241 . S
C162 O155 1.247 . S
C162 O156 1.261 . S
C163 O158 1.259 . S
C163 O160 1.235 . S
O164 Co154 2.021 . S
O164 C161 1.238 . S
O165 Co159 2.052 . S
O165 C161 1.241 . S
O166 Co154 2.137 . S
O166 C157 1.247 . S
O167 Co154 2.244 . S
O167 C157 1.272 . S
O167 Co159 2.135 . S
Co168 O169 2.216 . S
Co168 O170 2.091 . S
Co168 O172 2.004 . S
Co168 O178 2.021 . S
Co168 O180 2.137 . S
Co168 O181 2.244 . S
O169 Co168 2.216 . S
O169 C176 1.247 . S
O170 Co168 2.091 . S
O170 C176 1.261 . S
C171 O180 1.247 . S
C171 O181 1.272 . S
O172 Co168 2.004 . S
O172 C177 1.259 . S
Co173 O174 2.061 . S
Co173 O179 2.052 . S
Co173 O181 2.135 . S
O174 Co173 2.061 . S
O174 C177 1.235 . S
C175 O178 1.238 . S
C175 O179 1.241 . S
C176 O169 1.247 . S
C176 O170 1.261 . S
C177 O172 1.259 . S
C177 O174 1.235 . S
O178 Co168 2.021 . S
O178 C175 1.238 . S
O179 Co173 2.052 . S
O179 C175 1.241 . S
O180 Co168 2.137 . S
O180 C171 1.247 . S
O181 Co168 2.244 . S
O181 C171 1.272 . S
O181 Co173 2.135 . S
Co182 O183 2.216 . S
Co182 O184 2.091 . S
Co182 O186 2.004 . S
Co182 O192 2.021 . S
Co182 O194 2.137 . S
Co182 O195 2.244 . S
O183 Co182 2.216 . S
O183 C190 1.247 . S
O184 Co182 2.091 . S
O184 C190 1.261 . S
C185 O194 1.247 . S
C185 O195 1.272 . S
O186 Co182 2.004 . S
O186 C191 1.259 . S
Co187 O188 2.061 . S
Co187 O193 2.052 . S
Co187 O195 2.135 . S
O188 Co187 2.061 . S
O188 C191 1.235 . S
C189 O192 1.238 . S
C189 O193 1.241 . S
C190 O183 1.247 . S
C190 O184 1.261 . S
C191 O186 1.259 . S
C191 O188 1.235 . S
O192 Co182 2.021 . S
O192 C189 1.238 . S
O193 Co187 2.052 . S
O193 C189 1.241 . S
O194 Co182 2.137 . S
O194 C185 1.247 . S
O195 Co182 2.244 . S
O195 C185 1.272 . S
O195 Co187 2.135 . S
Co196 O197 2.216 . S
Co196 O198 2.091 . S
Co196 O200 2.004 . S
Co196 O206 2.021 . S
Co196 O208 2.137 . S
Co196 O209 2.244 . S
O197 Co196 2.216 . S
O197 C204 1.247 . S
O198 Co196 2.091 . S
O198 C204 1.261 . S
C199 O208 1.247 . S
C199 O209 1.272 . S
O200 Co196 2.004 . S
O200 C205 1.259 . S
Co201 O202 2.061 . S
Co201 O207 2.052 . S
Co201 O209 2.135 . S
O202 Co201 2.061 . S
O202 C205 1.235 . S
C203 O206 1.238 . S
C203 O207 1.241 . S
C204 O197 1.247 . S
C204 O198 1.261 . S
C205 O200 1.259 . S
C205 O202 1.235 . S
O206 Co196 2.021 . S
O206 C203 1.238 . S
O207 Co201 2.052 . S
O207 C203 1.241 . S
O208 Co196 2.137 . S
O208 C199 1.247 . S
O209 Co196 2.244 . S
O209 C199 1.272 . S
O209 Co201 2.135 . S
Co210 O211 2.216 . S
Co210 O212 2.091 . S
Co210 O214 2.004 . S
Co210 O220 2.021 . S
Co210 O222 2.137 . S
Co210 O223 2.244 . S
O211 Co210 2.216 . S
O211 C218 1.247 . S
O212 Co210 2.091 . S
O212 C218 1.261 . S
C213 O222 1.247 . S
C213 O223 1.272 . S
O214 Co210 2.004 . S
O214 C219 1.259 . S
Co215 O216 2.061 . S
Co215 O221 2.052 . S
Co215 O223 2.135 . S
O216 Co215 2.061 . S
O216 C219 1.235 . S
C217 O220 1.238 . S
C217 O221 1.241 . S
C218 O211 1.247 . S
C218 O212 1.261 . S
C219 O214 1.259 . S
C219 O216 1.235 . S
O220 Co210 2.021 . S
O220 C217 1.238 . S
O221 Co215 2.052 . S
O221 C217 1.241 . S
O222 Co210 2.137 . S
O222 C213 1.247 . S
O223 Co210 2.244 . S
O223 C213 1.272 . S
O223 Co215 2.135 . S
Co224 O225 2.216 . S
Co224 O226 2.091 . S
Co224 O228 2.004 . S
Co224 O234 2.021 . S
Co224 O236 2.137 . S
Co224 O237 2.244 . S
O225 Co224 2.216 . S
O225 C232 1.247 . S
O226 Co224 2.091 . S
O226 C232 1.261 . S
C227 O236 1.247 . S
C227 O237 1.272 . S
O228 Co224 2.004 . S
O228 C233 1.259 . S
Co229 O230 2.061 . S
Co229 O235 2.052 . S
Co229 O237 2.135 . S
O230 Co229 2.061 . S
O230 C233 1.235 . S
C231 O234 1.238 . S
C231 O235 1.241 . S
C232 O225 1.247 . S
C232 O226 1.261 . S
C233 O228 1.259 . S
C233 O230 1.235 . S
O234 Co224 2.021 . S
O234 C231 1.238 . S
O235 Co229 2.052 . S
O235 C231 1.241 . S
O236 Co224 2.137 . S
O236 C227 1.247 . S
O237 Co224 2.244 . S
O237 C227 1.272 . S
O237 Co229 2.135 . S
Co238 O239 2.216 . S
Co238 O240 2.091 . S
Co238 O242 2.004 . S
Co238 O248 2.021 . S
Co238 O250 2.137 . S
Co238 O251 2.244 . S
O239 Co238 2.216 . S
O239 C246 1.247 . S
O240 Co238 2.091 . S
O240 C246 1.261 . S
C241 O250 1.247 . S
C241 O251 1.272 . S
O242 Co238 2.004 . S
O242 C247 1.259 . S
Co243 O244 2.061 . S
Co243 O249 2.052 . S
Co243 O251 2.135 . S
O244 Co243 2.061 . S
O244 C247 1.235 . S
C245 O248 1.238 . S
C245 O249 1.241 . S
C246 O239 1.247 . S
C246 O240 1.261 . S
C247 O242 1.259 . S
C247 O244 1.235 . S
O248 Co238 2.021 . S
O248 C245 1.238 . S
O249 Co243 2.052 . S
O249 C245 1.241 . S
O250 Co238 2.137 . S
O250 C241 1.247 . S
O251 Co238 2.244 . S
O251 C241 1.272 . S
O251 Co243 2.135 . S
Co252 O253 2.216 . S
Co252 O254 2.091 . S
Co252 O256 2.004 . S
Co252 O262 2.021 . S
Co252 O264 2.137 . S
Co252 O265 2.244 . S
O253 Co252 2.216 . S
O253 C260 1.247 . S
O254 Co252 2.091 . S
O254 C260 1.261 . S
C255 O264 1.247 . S
C255 O265 1.272 . S
O256 Co252 2.004 . S
O256 C261 1.259 . S
Co257 O258 2.061 . S
Co257 O263 2.052 . S
Co257 O265 2.135 . S
O258 Co257 2.061 . S
O258 C261 1.235 . S
C259 O262 1.238 . S
C259 O263 1.241 . S
C260 O253 1.247 . S
C260 O254 1.261 . S
C261 O256 1.259 . S
C261 O258 1.235 . S
O262 Co252 2.021 . S
O262 C259 1.238 . S
O263 Co257 2.052 . S
O263 C259 1.241 . S
O264 Co252 2.137 . S
O264 C255 1.247 . S
O265 Co252 2.244 . S
O265 C255 1.272 . S
O265 Co257 2.135 . S
Co266 O267 2.216 . S
Co266 O268 2.091 . S
Co266 O270 2.004 . S
Co266 O276 2.021 . S
Co266 O278 2.137 . S
Co266 O279 2.244 . S
O267 Co266 2.216 . S
O267 C274 1.247 . S
O268 Co266 2.091 . S
O268 C274 1.261 . S
C269 O278 1.247 . S
C269 O279 1.272 . S
O270 Co266 2.004 . S
O270 C275 1.259 . S
Co271 O272 2.061 . S
Co271 O277 2.052 . S
Co271 O279 2.135 . S
O272 Co271 2.061 . S
O272 C275 1.235 . S
C273 O276 1.238 . S
C273 O277 1.241 . S
C274 O267 1.247 . S
C274 O268 1.261 . S
C275 O270 1.259 . S
C275 O272 1.235 . S
O276 Co266 2.021 . S
O276 C273 1.238 . S
O277 Co271 2.052 . S
O277 C273 1.241 . S
O278 Co266 2.137 . S
O278 C269 1.247 . S
O279 Co266 2.244 . S
O279 C269 1.272 . S
O279 Co271 2.135 . S
Co280 O281 2.216 . S
Co280 O282 2.091 . S
Co280 O284 2.004 . S
Co280 O290 2.021 . S
Co280 O292 2.137 . S
Co280 O293 2.244 . S
O281 Co280 2.216 . S
O281 C288 1.247 . S
O282 Co280 2.091 . S
O282 C288 1.261 . S
C283 O292 1.247 . S
C283 O293 1.272 . S
O284 Co280 2.004 . S
O284 C289 1.259 . S
Co285 O286 2.061 . S
Co285 O291 2.052 . S
Co285 O293 2.135 . S
O286 Co285 2.061 . S
O286 C289 1.235 . S
C287 O290 1.238 . S
C287 O291 1.241 . S
C288 O281 1.247 . S
C288 O282 1.261 . S
C289 O284 1.259 . S
C289 O286 1.235 . S
O290 Co280 2.021 . S
O290 C287 1.238 . S
O291 Co285 2.052 . S
O291 C287 1.241 . S
O292 Co280 2.137 . S
O292 C283 1.247 . S
O293 Co280 2.244 . S
O293 C283 1.272 . S
O293 Co285 2.135 . S
Co294 O295 2.216 . S
Co294 O296 2.091 . S
Co294 O298 2.004 . S
Co294 O304 2.021 . S
Co294 O306 2.137 . S
Co294 O307 2.244 . S
O295 Co294 2.216 . S
O295 C302 1.247 . S
O296 Co294 2.091 . S
O296 C302 1.261 . S
C297 O306 1.247 . S
C297 O307 1.272 . S
O298 Co294 2.004 . S
O298 C303 1.259 . S
Co299 O300 2.061 . S
Co299 O305 2.052 . S
Co299 O307 2.135 . S
O300 Co299 2.061 . S
O300 C303 1.235 . S
C301 O304 1.238 . S
C301 O305 1.241 . S
C302 O295 1.247 . S
C302 O296 1.261 . S
C303 O298 1.259 . S
C303 O300 1.235 . S
O304 Co294 2.021 . S
O304 C301 1.238 . S
O305 Co299 2.052 . S
O305 C301 1.241 . S
O306 Co294 2.137 . S
O306 C297 1.247 . S
O307 Co294 2.244 . S
O307 C297 1.272 . S
O307 Co299 2.135 . S
Co308 O309 2.216 . S
Co308 O310 2.091 . S
Co308 O312 2.004 . S
Co308 O318 2.021 . S
Co308 O320 2.137 . S
Co308 O321 2.244 . S
O309 Co308 2.216 . S
O309 C316 1.247 . S
O310 Co308 2.091 . S
O310 C316 1.261 . S
C311 O320 1.247 . S
C311 O321 1.272 . S
O312 Co308 2.004 . S
O312 C317 1.259 . S
Co313 O314 2.061 . S
Co313 O319 2.052 . S
Co313 O321 2.135 . S
O314 Co313 2.061 . S
O314 C317 1.235 . S
C315 O318 1.238 . S
C315 O319 1.241 . S
C316 O309 1.247 . S
C316 O310 1.261 . S
C317 O312 1.259 . S
C317 O314 1.235 . S
O318 Co308 2.021 . S
O318 C315 1.238 . S
O319 Co313 2.052 . S
O319 C315 1.241 . S
O320 Co308 2.137 . S
O320 C311 1.247 . S
O321 Co308 2.244 . S
O321 C311 1.272 . S
O321 Co313 2.135 . S
Co322 O323 2.216 . S
Co322 O324 2.091 . S
Co322 O326 2.004 . S
Co322 O332 2.021 . S
Co322 O334 2.137 . S
Co322 O335 2.244 . S
O323 Co322 2.216 . S
O323 C330 1.247 . S
O324 Co322 2.091 . S
O324 C330 1.261 . S
C325 O334 1.247 . S
C325 O335 1.272 . S
O326 Co322 2.004 . S
O326 C331 1.259 . S
Co327 O328 2.061 . S
Co327 O333 2.052 . S
Co327 O335 2.135 . S
O328 Co327 2.061 . S
O328 C331 1.235 . S
C329 O332 1.238 . S
C329 O333 1.241 . S
C330 O323 1.247 . S
C330 O324 1.261 . S
C331 O326 1.259 . S
C331 O328 1.235 . S
O332 Co322 2.021 . S
O332 C329 1.238 . S
O333 Co327 2.052 . S
O333 C329 1.241 . S
O334 Co322 2.137 . S
O334 C325 1.247 . S
O335 Co322 2.244 . S
O335 C325 1.272 . S
O335 Co327 2.135 . S
H336 C344 0.929 . S
H337 C346 0.930 . S
H338 C348 0.930 . S
H339 C351 0.929 . S
H340 C354 0.930 . S
H341 C356 0.960 . S
H342 C356 0.960 . S
H343 C356 0.960 . S
C344 H336 0.929 . S
C344 C345 1.377 . S
C344 C346 1.384 . S
C345 C344 1.377 . S
C345 C351 1.390 . S
C346 H337 0.930 . S
C346 C344 1.384 . S
C346 C347 1.372 . S
C347 C346 1.372 . S
C347 C348 1.400 . S
C347 C352 1.490 . S
C348 H338 0.930 . S
C348 C347 1.400 . S
C348 C351 1.386 . S
H349 C365 0.930 . S
H350 C366 0.931 . S
C351 H339 0.929 . S
C351 C345 1.390 . S
C351 C348 1.386 . S
C352 C347 1.490 . S
C352 C354 1.395 . S
C352 C355 1.403 . S
H353 C359 0.930 . S
C354 H340 0.930 . S
C354 C352 1.395 . S
C354 C357 1.403 . S
C355 C352 1.403 . S
C355 C356 1.524 . S
C355 C359 1.400 . S
C356 H341 0.960 . S
C356 H342 0.960 . S
C356 H343 0.960 . S
C356 C355 1.524 . S
C357 C354 1.403 . S
C357 C358 1.392 . S
C357 C361 1.495 . S
C358 C357 1.392 . S
C358 C359 1.385 . S
C358 C360 1.478 . S
C359 H353 0.930 . S
C359 C355 1.400 . S
C359 C358 1.385 . S
C360 C358 1.478 . S
C360 C362 1.381 . S
C360 C366 1.383 . S
C361 C357 1.495 . S
C361 H367 0.959 . S
C361 H368 0.961 . S
C361 H369 0.960 . S
C362 C360 1.381 . S
C362 C363 1.394 . S
C362 H370 0.930 . S
C363 C362 1.394 . S
C363 C364 1.383 . S
C363 H371 0.929 . S
C364 C363 1.383 . S
C364 C365 1.377 . S
C365 H349 0.930 . S
C365 C364 1.377 . S
C365 C366 1.379 . S
C366 H350 0.931 . S
C366 C360 1.383 . S
C366 C365 1.379 . S
H367 C361 0.959 . S
H368 C361 0.961 . S
H369 C361 0.960 . S
H370 C362 0.930 . S
H371 C363 0.929 . S
H372 C380 0.929 . S
H373 C382 0.930 . S
H374 C384 0.930 . S
H375 C387 0.929 . S
H376 C390 0.930 . S
H377 C392 0.960 . S
H378 C392 0.960 . S
H379 C392 0.960 . S
C380 H372 0.929 . S
C380 C381 1.377 . S
C380 C382 1.384 . S
C381 C380 1.377 . S
C381 C387 1.390 . S
C382 H373 0.930 . S
C382 C380 1.384 . S
C382 C383 1.372 . S
C383 C382 1.372 . S
C383 C384 1.400 . S
C383 C388 1.490 . S
C384 H374 0.930 . S
C384 C383 1.400 . S
C384 C387 1.386 . S
H385 C401 0.930 . S
H386 C402 0.931 . S
C387 H375 0.929 . S
C387 C381 1.390 . S
C387 C384 1.386 . S
C388 C383 1.490 . S
C388 C390 1.395 . S
C388 C391 1.403 . S
H389 C395 0.930 . S
C390 H376 0.930 . S
C390 C388 1.395 . S
C390 C393 1.403 . S
C391 C388 1.403 . S
C391 C392 1.524 . S
C391 C395 1.400 . S
C392 H377 0.960 . S
C392 H378 0.960 . S
C392 H379 0.960 . S
C392 C391 1.524 . S
C393 C390 1.403 . S
C393 C394 1.392 . S
C393 C397 1.495 . S
C394 C393 1.392 . S
C394 C395 1.385 . S
C394 C396 1.478 . S
C395 H389 0.930 . S
C395 C391 1.400 . S
C395 C394 1.385 . S
C396 C394 1.478 . S
C396 C398 1.381 . S
C396 C402 1.383 . S
C397 C393 1.495 . S
C397 H403 0.959 . S
C397 H404 0.961 . S
C397 H405 0.960 . S
C398 C396 1.381 . S
C398 C399 1.394 . S
C398 H406 0.930 . S
C399 C398 1.394 . S
C399 C400 1.383 . S
C399 H407 0.929 . S
C400 C399 1.383 . S
C400 C401 1.377 . S
C401 H385 0.930 . S
C401 C400 1.377 . S
C401 C402 1.379 . S
C402 H386 0.931 . S
C402 C396 1.383 . S
C402 C401 1.379 . S
H403 C397 0.959 . S
H404 C397 0.961 . S
H405 C397 0.960 . S
H406 C398 0.930 . S
H407 C399 0.929 . S
H408 C416 0.929 . S
H409 C418 0.930 . S
H410 C420 0.930 . S
H411 C423 0.929 . S
H412 C426 0.930 . S
H413 C428 0.960 . S
H414 C428 0.960 . S
H415 C428 0.960 . S
C416 H408 0.929 . S
C416 C417 1.377 . S
C416 C418 1.384 . S
C417 C416 1.377 . S
C417 C423 1.390 . S
C418 H409 0.930 . S
C418 C416 1.384 . S
C418 C419 1.372 . S
C419 C418 1.372 . S
C419 C420 1.400 . S
C419 C424 1.490 . S
C420 H410 0.930 . S
C420 C419 1.400 . S
C420 C423 1.386 . S
H421 C437 0.930 . S
H422 C438 0.931 . S
C423 H411 0.929 . S
C423 C417 1.390 . S
C423 C420 1.386 . S
C424 C419 1.490 . S
C424 C426 1.395 . S
C424 C427 1.403 . S
H425 C431 0.930 . S
C426 H412 0.930 . S
C426 C424 1.395 . S
C426 C429 1.403 . S
C427 C424 1.403 . S
C427 C428 1.524 . S
C427 C431 1.400 . S
C428 H413 0.960 . S
C428 H414 0.960 . S
C428 H415 0.960 . S
C428 C427 1.524 . S
C429 C426 1.403 . S
C429 C430 1.392 . S
C429 C433 1.495 . S
C430 C429 1.392 . S
C430 C431 1.385 . S
C430 C432 1.478 . S
C431 H425 0.930 . S
C431 C427 1.400 . S
C431 C430 1.385 . S
C432 C430 1.478 . S
C432 C434 1.381 . S
C432 C438 1.383 . S
C433 C429 1.495 . S
C433 H439 0.959 . S
C433 H440 0.961 . S
C433 H441 0.960 . S
C434 C432 1.381 . S
C434 C435 1.394 . S
C434 H442 0.930 . S
C435 C434 1.394 . S
C435 C436 1.383 . S
C435 H443 0.929 . S
C436 C435 1.383 . S
C436 C437 1.377 . S
C437 H421 0.930 . S
C437 C436 1.377 . S
C437 C438 1.379 . S
C438 H422 0.931 . S
C438 C432 1.383 . S
C438 C437 1.379 . S
H439 C433 0.959 . S
H440 C433 0.961 . S
H441 C433 0.960 . S
H442 C434 0.930 . S
H443 C435 0.929 . S
H444 C452 0.929 . S
H445 C454 0.930 . S
H446 C456 0.930 . S
H447 C459 0.929 . S
H448 C462 0.930 . S
H449 C464 0.960 . S
H450 C464 0.960 . S
H451 C464 0.960 . S
C452 H444 0.929 . S
C452 C453 1.377 . S
C452 C454 1.384 . S
C453 C452 1.377 . S
C453 C459 1.390 . S
C454 H445 0.930 . S
C454 C452 1.384 . S
C454 C455 1.372 . S
C455 C454 1.372 . S
C455 C456 1.400 . S
C455 C460 1.490 . S
C456 H446 0.930 . S
C456 C455 1.400 . S
C456 C459 1.386 . S
H457 C473 0.930 . S
H458 C474 0.931 . S
C459 H447 0.929 . S
C459 C453 1.390 . S
C459 C456 1.386 . S
C460 C455 1.490 . S
C460 C462 1.395 . S
C460 C463 1.403 . S
H461 C467 0.930 . S
C462 H448 0.930 . S
C462 C460 1.395 . S
C462 C465 1.403 . S
C463 C460 1.403 . S
C463 C464 1.524 . S
C463 C467 1.400 . S
C464 H449 0.960 . S
C464 H450 0.960 . S
C464 H451 0.960 . S
C464 C463 1.524 . S
C465 C462 1.403 . S
C465 C466 1.392 . S
C465 C469 1.495 . S
C466 C465 1.392 . S
C466 C467 1.385 . S
C466 C468 1.478 . S
C467 H461 0.930 . S
C467 C463 1.400 . S
C467 C466 1.385 . S
C468 C466 1.478 . S
C468 C470 1.381 . S
C468 C474 1.383 . S
C469 C465 1.495 . S
C469 H475 0.959 . S
C469 H476 0.961 . S
C469 H477 0.960 . S
C470 C468 1.381 . S
C470 C471 1.394 . S
C470 H478 0.930 . S
C471 C470 1.394 . S
C471 C472 1.383 . S
C471 H479 0.929 . S
C472 C471 1.383 . S
C472 C473 1.377 . S
C473 H457 0.930 . S
C473 C472 1.377 . S
C473 C474 1.379 . S
C474 H458 0.931 . S
C474 C468 1.383 . S
C474 C473 1.379 . S
H475 C469 0.959 . S
H476 C469 0.961 . S
H477 C469 0.960 . S
H478 C470 0.930 . S
H479 C471 0.929 . S
H480 C488 0.929 . S
H481 C490 0.930 . S
H482 C492 0.930 . S
H483 C495 0.929 . S
H484 C498 0.930 . S
H485 C500 0.960 . S
H486 C500 0.960 . S
H487 C500 0.960 . S
C488 H480 0.929 . S
C488 C489 1.377 . S
C488 C490 1.384 . S
C489 C488 1.377 . S
C489 C495 1.390 . S
C490 H481 0.930 . S
C490 C488 1.384 . S
C490 C491 1.372 . S
C491 C490 1.372 . S
C491 C492 1.400 . S
C491 C496 1.490 . S
C492 H482 0.930 . S
C492 C491 1.400 . S
C492 C495 1.386 . S
H493 C509 0.930 . S
H494 C510 0.931 . S
C495 H483 0.929 . S
C495 C489 1.390 . S
C495 C492 1.386 . S
C496 C491 1.490 . S
C496 C498 1.395 . S
C496 C499 1.403 . S
H497 C503 0.930 . S
C498 H484 0.930 . S
C498 C496 1.395 . S
C498 C501 1.403 . S
C499 C496 1.403 . S
C499 C500 1.524 . S
C499 C503 1.400 . S
C500 H485 0.960 . S
C500 H486 0.960 . S
C500 H487 0.960 . S
C500 C499 1.524 . S
C501 C498 1.403 . S
C501 C502 1.392 . S
C501 C505 1.495 . S
C502 C501 1.392 . S
C502 C503 1.385 . S
C502 C504 1.478 . S
C503 H497 0.930 . S
C503 C499 1.400 . S
C503 C502 1.385 . S
C504 C502 1.478 . S
C504 C506 1.381 . S
C504 C510 1.383 . S
C505 C501 1.495 . S
C505 H511 0.959 . S
C505 H512 0.961 . S
C505 H513 0.960 . S
C506 C504 1.381 . S
C506 C507 1.394 . S
C506 H514 0.930 . S
C507 C506 1.394 . S
C507 C508 1.383 . S
C507 H515 0.929 . S
C508 C507 1.383 . S
C508 C509 1.377 . S
C509 H493 0.930 . S
C509 C508 1.377 . S
C509 C510 1.379 . S
C510 H494 0.931 . S
C510 C504 1.383 . S
C510 C509 1.379 . S
H511 C505 0.959 . S
H512 C505 0.961 . S
H513 C505 0.960 . S
H514 C506 0.930 . S
H515 C507 0.929 . S
H516 C524 0.929 . S
H517 C526 0.930 . S
H518 C528 0.930 . S
H519 C531 0.929 . S
H520 C534 0.930 . S
H521 C536 0.960 . S
H522 C536 0.960 . S
H523 C536 0.960 . S
C524 H516 0.929 . S
C524 C525 1.377 . S
C524 C526 1.384 . S
C525 C524 1.377 . S
C525 C531 1.390 . S
C526 H517 0.930 . S
C526 C524 1.384 . S
C526 C527 1.372 . S
C527 C526 1.372 . S
C527 C528 1.400 . S
C527 C532 1.490 . S
C528 H518 0.930 . S
C528 C527 1.400 . S
C528 C531 1.386 . S
H529 C545 0.930 . S
H530 C546 0.931 . S
C531 H519 0.929 . S
C531 C525 1.390 . S
C531 C528 1.386 . S
C532 C527 1.490 . S
C532 C534 1.395 . S
C532 C535 1.403 . S
H533 C539 0.930 . S
C534 H520 0.930 . S
C534 C532 1.395 . S
C534 C537 1.403 . S
C535 C532 1.403 . S
C535 C536 1.524 . S
C535 C539 1.400 . S
C536 H521 0.960 . S
C536 H522 0.960 . S
C536 H523 0.960 . S
C536 C535 1.524 . S
C537 C534 1.403 . S
C537 C538 1.392 . S
C537 C541 1.495 . S
C538 C537 1.392 . S
C538 C539 1.385 . S
C538 C540 1.478 . S
C539 H533 0.930 . S
C539 C535 1.400 . S
C539 C538 1.385 . S
C540 C538 1.478 . S
C540 C542 1.381 . S
C540 C546 1.383 . S
C541 C537 1.495 . S
C541 H547 0.959 . S
C541 H548 0.961 . S
C541 H549 0.960 . S
C542 C540 1.381 . S
C542 C543 1.394 . S
C542 H550 0.930 . S
C543 C542 1.394 . S
C543 C544 1.383 . S
C543 H551 0.929 . S
C544 C543 1.383 . S
C544 C545 1.377 . S
C545 H529 0.930 . S
C545 C544 1.377 . S
C545 C546 1.379 . S
C546 H530 0.931 . S
C546 C540 1.383 . S
C546 C545 1.379 . S
H547 C541 0.959 . S
H548 C541 0.961 . S
H549 C541 0.960 . S
H550 C542 0.930 . S
H551 C543 0.929 . S
H552 C560 0.929 . S
H553 C562 0.930 . S
H554 C564 0.930 . S
H555 C567 0.929 . S
H556 C570 0.930 . S
H557 C572 0.960 . S
H558 C572 0.960 . S
H559 C572 0.960 . S
C560 H552 0.929 . S
C560 C561 1.377 . S
C560 C562 1.384 . S
C561 C560 1.377 . S
C561 C567 1.390 . S
C562 H553 0.930 . S
C562 C560 1.384 . S
C562 C563 1.372 . S
C563 C562 1.372 . S
C563 C564 1.400 . S
C563 C568 1.490 . S
C564 H554 0.930 . S
C564 C563 1.400 . S
C564 C567 1.386 . S
H565 C581 0.930 . S
H566 C582 0.931 . S
C567 H555 0.929 . S
C567 C561 1.390 . S
C567 C564 1.386 . S
C568 C563 1.490 . S
C568 C570 1.395 . S
C568 C571 1.403 . S
H569 C575 0.930 . S
C570 H556 0.930 . S
C570 C568 1.395 . S
C570 C573 1.403 . S
C571 C568 1.403 . S
C571 C572 1.524 . S
C571 C575 1.400 . S
C572 H557 0.960 . S
C572 H558 0.960 . S
C572 H559 0.960 . S
C572 C571 1.524 . S
C573 C570 1.403 . S
C573 C574 1.392 . S
C573 C577 1.495 . S
C574 C573 1.392 . S
C574 C575 1.385 . S
C574 C576 1.478 . S
C575 H569 0.930 . S
C575 C571 1.400 . S
C575 C574 1.385 . S
C576 C574 1.478 . S
C576 C578 1.381 . S
C576 C582 1.383 . S
C577 C573 1.495 . S
C577 H583 0.959 . S
C577 H584 0.961 . S
C577 H585 0.960 . S
C578 C576 1.381 . S
C578 C579 1.394 . S
C578 H586 0.930 . S
C579 C578 1.394 . S
C579 C580 1.383 . S
C579 H587 0.929 . S
C580 C579 1.383 . S
C580 C581 1.377 . S
C581 H565 0.930 . S
C581 C580 1.377 . S
C581 C582 1.379 . S
C582 H566 0.931 . S
C582 C576 1.383 . S
C582 C581 1.379 . S
H583 C577 0.959 . S
H584 C577 0.961 . S
H585 C577 0.960 . S
H586 C578 0.930 . S
H587 C579 0.929 . S
H588 C596 0.929 . S
H589 C598 0.930 . S
H590 C600 0.930 . S
H591 C603 0.929 . S
H592 C606 0.930 . S
H593 C608 0.960 . S
H594 C608 0.960 . S
H595 C608 0.960 . S
C596 H588 0.929 . S
C596 C597 1.377 . S
C596 C598 1.384 . S
C597 C596 1.377 . S
C597 C603 1.390 . S
C598 H589 0.930 . S
C598 C596 1.384 . S
C598 C599 1.372 . S
C599 C598 1.372 . S
C599 C600 1.400 . S
C599 C604 1.490 . S
C600 H590 0.930 . S
C600 C599 1.400 . S
C600 C603 1.386 . S
H601 C617 0.930 . S
H602 C618 0.931 . S
C603 H591 0.929 . S
C603 C597 1.390 . S
C603 C600 1.386 . S
C604 C599 1.490 . S
C604 C606 1.395 . S
C604 C607 1.403 . S
H605 C611 0.930 . S
C606 H592 0.930 . S
C606 C604 1.395 . S
C606 C609 1.403 . S
C607 C604 1.403 . S
C607 C608 1.524 . S
C607 C611 1.400 . S
C608 H593 0.960 . S
C608 H594 0.960 . S
C608 H595 0.960 . S
C608 C607 1.524 . S
C609 C606 1.403 . S
C609 C610 1.392 . S
C609 C613 1.495 . S
C610 C609 1.392 . S
C610 C611 1.385 . S
C610 C612 1.478 . S
C611 H605 0.930 . S
C611 C607 1.400 . S
C611 C610 1.385 . S
C612 C610 1.478 . S
C612 C614 1.381 . S
C612 C618 1.383 . S
C613 C609 1.495 . S
C613 H619 0.959 . S
C613 H620 0.961 . S
C613 H621 0.960 . S
C614 C612 1.381 . S
C614 C615 1.394 . S
C614 H622 0.930 . S
C615 C614 1.394 . S
C615 C616 1.383 . S
C615 H623 0.929 . S
C616 C615 1.383 . S
C616 C617 1.377 . S
C617 H601 0.930 . S
C617 C616 1.377 . S
C617 C618 1.379 . S
C618 H602 0.931 . S
C618 C612 1.383 . S
C618 C617 1.379 . S
H619 C613 0.959 . S
H620 C613 0.961 . S
H621 C613 0.960 . S
H622 C614 0.930 . S
H623 C615 0.929 . S
H624 C632 0.929 . S
H625 C634 0.930 . S
H626 C636 0.930 . S
H627 C639 0.929 . S
H628 C642 0.930 . S
H629 C644 0.960 . S
H630 C644 0.960 . S
H631 C644 0.960 . S
C632 H624 0.929 . S
C632 C633 1.377 . S
C632 C634 1.384 . S
C633 C632 1.377 . S
C633 C639 1.390 . S
C634 H625 0.930 . S
C634 C632 1.384 . S
C634 C635 1.372 . S
C635 C634 1.372 . S
C635 C636 1.400 . S
C635 C640 1.490 . S
C636 H626 0.930 . S
C636 C635 1.400 . S
C636 C639 1.386 . S
H637 C653 0.930 . S
H638 C654 0.931 . S
C639 H627 0.929 . S
C639 C633 1.390 . S
C639 C636 1.386 . S
C640 C635 1.490 . S
C640 C642 1.395 . S
C640 C643 1.403 . S
H641 C647 0.930 . S
C642 H628 0.930 . S
C642 C640 1.395 . S
C642 C645 1.403 . S
C643 C640 1.403 . S
C643 C644 1.524 . S
C643 C647 1.400 . S
C644 H629 0.960 . S
C644 H630 0.960 . S
C644 H631 0.960 . S
C644 C643 1.524 . S
C645 C642 1.403 . S
C645 C646 1.392 . S
C645 C649 1.495 . S
C646 C645 1.392 . S
C646 C647 1.385 . S
C646 C648 1.478 . S
C647 H641 0.930 . S
C647 C643 1.400 . S
C647 C646 1.385 . S
C648 C646 1.478 . S
C648 C650 1.381 . S
C648 C654 1.383 . S
C649 C645 1.495 . S
C649 H655 0.959 . S
C649 H656 0.961 . S
C649 H657 0.960 . S
C650 C648 1.381 . S
C650 C651 1.394 . S
C650 H658 0.930 . S
C651 C650 1.394 . S
C651 C652 1.383 . S
C651 H659 0.929 . S
C652 C651 1.383 . S
C652 C653 1.377 . S
C653 H637 0.930 . S
C653 C652 1.377 . S
C653 C654 1.379 . S
C654 H638 0.931 . S
C654 C648 1.383 . S
C654 C653 1.379 . S
H655 C649 0.959 . S
H656 C649 0.961 . S
H657 C649 0.960 . S
H658 C650 0.930 . S
H659 C651 0.929 . S
H660 C668 0.929 . S
H661 C670 0.930 . S
H662 C672 0.930 . S
H663 C675 0.929 . S
H664 C678 0.930 . S
H665 C680 0.960 . S
H666 C680 0.960 . S
H667 C680 0.960 . S
C668 H660 0.929 . S
C668 C669 1.377 . S
C668 C670 1.384 . S
C669 C668 1.377 . S
C669 C675 1.390 . S
C670 H661 0.930 . S
C670 C668 1.384 . S
C670 C671 1.372 . S
C671 C670 1.372 . S
C671 C672 1.400 . S
C671 C676 1.490 . S
C672 H662 0.930 . S
C672 C671 1.400 . S
C672 C675 1.386 . S
H673 C689 0.930 . S
H674 C690 0.931 . S
C675 H663 0.929 . S
C675 C669 1.390 . S
C675 C672 1.386 . S
C676 C671 1.490 . S
C676 C678 1.395 . S
C676 C679 1.403 . S
H677 C683 0.930 . S
C678 H664 0.930 . S
C678 C676 1.395 . S
C678 C681 1.403 . S
C679 C676 1.403 . S
C679 C680 1.524 . S
C679 C683 1.400 . S
C680 H665 0.960 . S
C680 H666 0.960 . S
C680 H667 0.960 . S
C680 C679 1.524 . S
C681 C678 1.403 . S
C681 C682 1.392 . S
C681 C685 1.495 . S
C682 C681 1.392 . S
C682 C683 1.385 . S
C682 C684 1.478 . S
C683 H677 0.930 . S
C683 C679 1.400 . S
C683 C682 1.385 . S
C684 C682 1.478 . S
C684 C686 1.381 . S
C684 C690 1.383 . S
C685 C681 1.495 . S
C685 H691 0.959 . S
C685 H692 0.961 . S
C685 H693 0.960 . S
C686 C684 1.381 . S
C686 C687 1.394 . S
C686 H694 0.930 . S
C687 C686 1.394 . S
C687 C688 1.383 . S
C687 H695 0.929 . S
C688 C687 1.383 . S
C688 C689 1.377 . S
C689 H673 0.930 . S
C689 C688 1.377 . S
C689 C690 1.379 . S
C690 H674 0.931 . S
C690 C684 1.383 . S
C690 C689 1.379 . S
H691 C685 0.959 . S
H692 C685 0.961 . S
H693 C685 0.960 . S
H694 C686 0.930 . S
H695 C687 0.929 . S
H696 C704 0.929 . S
H697 C706 0.930 . S
H698 C708 0.930 . S
H699 C711 0.929 . S
H700 C714 0.930 . S
H701 C716 0.960 . S
H702 C716 0.960 . S
H703 C716 0.960 . S
C704 H696 0.929 . S
C704 C705 1.377 . S
C704 C706 1.384 . S
C705 C704 1.377 . S
C705 C711 1.390 . S
C706 H697 0.930 . S
C706 C704 1.384 . S
C706 C707 1.372 . S
C707 C706 1.372 . S
C707 C708 1.400 . S
C707 C712 1.490 . S
C708 H698 0.930 . S
C708 C707 1.400 . S
C708 C711 1.386 . S
H709 C725 0.930 . S
H710 C726 0.931 . S
C711 H699 0.929 . S
C711 C705 1.390 . S
C711 C708 1.386 . S
C712 C707 1.490 . S
C712 C714 1.395 . S
C712 C715 1.403 . S
H713 C719 0.930 . S
C714 H700 0.930 . S
C714 C712 1.395 . S
C714 C717 1.403 . S
C715 C712 1.403 . S
C715 C716 1.524 . S
C715 C719 1.400 . S
C716 H701 0.960 . S
C716 H702 0.960 . S
C716 H703 0.960 . S
C716 C715 1.524 . S
C717 C714 1.403 . S
C717 C718 1.392 . S
C717 C721 1.495 . S
C718 C717 1.392 . S
C718 C719 1.385 . S
C718 C720 1.478 . S
C719 H713 0.930 . S
C719 C715 1.400 . S
C719 C718 1.385 . S
C720 C718 1.478 . S
C720 C722 1.381 . S
C720 C726 1.383 . S
C721 C717 1.495 . S
C721 H727 0.959 . S
C721 H728 0.961 . S
C721 H729 0.960 . S
C722 C720 1.381 . S
C722 C723 1.394 . S
C722 H730 0.930 . S
C723 C722 1.394 . S
C723 C724 1.383 . S
C723 H731 0.929 . S
C724 C723 1.383 . S
C724 C725 1.377 . S
C725 H709 0.930 . S
C725 C724 1.377 . S
C725 C726 1.379 . S
C726 H710 0.931 . S
C726 C720 1.383 . S
C726 C725 1.379 . S
H727 C721 0.959 . S
H728 C721 0.961 . S
H729 C721 0.960 . S
H730 C722 0.930 . S
H731 C723 0.929 . S
H732 C740 0.929 . S
H733 C742 0.930 . S
H734 C744 0.930 . S
H735 C747 0.929 . S
H736 C750 0.930 . S
H737 C752 0.960 . S
H738 C752 0.960 . S
H739 C752 0.960 . S
C740 H732 0.929 . S
C740 C741 1.377 . S
C740 C742 1.384 . S
C741 C740 1.377 . S
C741 C747 1.390 . S
C742 H733 0.930 . S
C742 C740 1.384 . S
C742 C743 1.372 . S
C743 C742 1.372 . S
C743 C744 1.400 . S
C743 C748 1.490 . S
C744 H734 0.930 . S
C744 C743 1.400 . S
C744 C747 1.386 . S
H745 C761 0.930 . S
H746 C762 0.931 . S
C747 H735 0.929 . S
C747 C741 1.390 . S
C747 C744 1.386 . S
C748 C743 1.490 . S
C748 C750 1.395 . S
C748 C751 1.403 . S
H749 C755 0.930 . S
C750 H736 0.930 . S
C750 C748 1.395 . S
C750 C753 1.403 . S
C751 C748 1.403 . S
C751 C752 1.524 . S
C751 C755 1.400 . S
C752 H737 0.960 . S
C752 H738 0.960 . S
C752 H739 0.960 . S
C752 C751 1.524 . S
C753 C750 1.403 . S
C753 C754 1.392 . S
C753 C757 1.495 . S
C754 C753 1.392 . S
C754 C755 1.385 . S
C754 C756 1.478 . S
C755 H749 0.930 . S
C755 C751 1.400 . S
C755 C754 1.385 . S
C756 C754 1.478 . S
C756 C758 1.381 . S
C756 C762 1.383 . S
C757 C753 1.495 . S
C757 H763 0.959 . S
C757 H764 0.961 . S
C757 H765 0.960 . S
C758 C756 1.381 . S
C758 C759 1.394 . S
C758 H766 0.930 . S
C759 C758 1.394 . S
C759 C760 1.383 . S
C759 H767 0.929 . S
C760 C759 1.383 . S
C760 C761 1.377 . S
C761 H745 0.930 . S
C761 C760 1.377 . S
C761 C762 1.379 . S
C762 H746 0.931 . S
C762 C756 1.383 . S
C762 C761 1.379 . S
H763 C757 0.959 . S
H764 C757 0.961 . S
H765 C757 0.960 . S
H766 C758 0.930 . S
H767 C759 0.929 . S
H768 C776 0.929 . S
H769 C778 0.930 . S
H770 C780 0.930 . S
H771 C783 0.929 . S
H772 C786 0.930 . S
H773 C788 0.960 . S
H774 C788 0.960 . S
H775 C788 0.960 . S
C776 H768 0.929 . S
C776 C777 1.377 . S
C776 C778 1.384 . S
C777 C776 1.377 . S
C777 C783 1.390 . S
C778 H769 0.930 . S
C778 C776 1.384 . S
C778 C779 1.372 . S
C779 C778 1.372 . S
C779 C780 1.400 . S
C779 C784 1.490 . S
C780 H770 0.930 . S
C780 C779 1.400 . S
C780 C783 1.386 . S
H781 C797 0.930 . S
H782 C798 0.931 . S
C783 H771 0.929 . S
C783 C777 1.390 . S
C783 C780 1.386 . S
C784 C779 1.490 . S
C784 C786 1.395 1_556 S
C784 C787 1.403 . S
H785 C791 0.930 . S
C786 H772 0.930 . S
C786 C784 1.395 1_554 S
C786 C789 1.403 . S
C787 C784 1.403 . S
C787 C788 1.524 . S
C787 C791 1.409 . S
C788 H773 0.960 . S
C788 H774 0.960 . S
C788 H775 0.960 . S
C788 C787 1.524 . S
C789 C786 1.403 . S
C789 C790 1.392 . S
C789 C793 1.495 . S
C790 C789 1.392 . S
C790 C791 1.376 1_554 S
C790 C792 1.478 . S
C791 H785 0.930 . S
C791 C787 1.409 . S
C791 C790 1.376 1_556 S
C792 C790 1.478 . S
C792 C794 1.381 . S
C792 C798 1.383 . S
C793 C789 1.495 . S
C793 H799 0.959 . S
C793 H800 0.961 . S
C793 H801 0.960 . S
C794 C792 1.381 . S
C794 C795 1.394 . S
C794 H802 0.930 . S
C795 C794 1.394 . S
C795 C796 1.383 . S
C795 H803 0.929 . S
C796 C795 1.383 . S
C796 C797 1.377 . S
C797 H781 0.930 . S
C797 C796 1.377 . S
C797 C798 1.379 . S
C798 H782 0.931 . S
C798 C792 1.383 . S
C798 C797 1.379 . S
H799 C793 0.959 . S
H800 C793 0.961 . S
H801 C793 0.960 . S
H802 C794 0.930 . S
H803 C795 0.929 . S
H804 C812 0.929 . S
H805 C814 0.930 . S
H806 C816 0.930 . S
H807 C819 0.929 . S
H808 C822 0.930 . S
H809 C824 0.960 . S
H810 C824 0.960 . S
H811 C824 0.960 . S
C812 H804 0.929 . S
C812 C813 1.377 . S
C812 C814 1.384 . S
C813 C812 1.377 . S
C813 C819 1.390 . S
C814 H805 0.930 . S
C814 C812 1.384 . S
C814 C815 1.372 . S
C815 C814 1.372 . S
C815 C816 1.400 . S
C815 C820 1.490 . S
C816 H806 0.930 . S
C816 C815 1.400 . S
C816 C819 1.386 . S
H817 C833 0.930 . S
H818 C834 0.931 . S
C819 H807 0.929 . S
C819 C813 1.390 . S
C819 C816 1.386 . S
C820 C815 1.490 . S
C820 C822 1.395 . S
C820 C823 1.403 . S
H821 C827 0.930 . S
C822 H808 0.930 . S
C822 C820 1.395 . S
C822 C825 1.403 . S
C823 C820 1.403 . S
C823 C824 1.524 . S
C823 C827 1.400 . S
C824 H809 0.960 . S
C824 H810 0.960 . S
C824 H811 0.960 . S
C824 C823 1.524 . S
C825 C822 1.403 . S
C825 C826 1.392 . S
C825 C829 1.495 . S
C826 C825 1.392 . S
C826 C827 1.385 . S
C826 C828 1.478 . S
C827 H821 0.930 . S
C827 C823 1.400 . S
C827 C826 1.385 . S
C828 C826 1.478 . S
C828 C830 1.381 . S
C828 C834 1.383 . S
C829 C825 1.495 . S
C829 H835 0.959 . S
C829 H836 0.961 . S
C829 H837 0.960 . S
C830 C828 1.381 . S
C830 C831 1.394 . S
C830 H838 0.930 . S
C831 C830 1.394 . S
C831 C832 1.383 . S
C831 H839 0.929 . S
C832 C831 1.383 . S
C832 C833 1.377 . S
C833 H817 0.930 . S
C833 C832 1.377 . S
C833 C834 1.379 . S
C834 H818 0.931 . S
C834 C828 1.383 . S
C834 C833 1.379 . S
H835 C829 0.959 . S
H836 C829 0.961 . S
H837 C829 0.960 . S
H838 C830 0.930 . S
H839 C831 0.929 . S
H840 C848 0.929 . S
H841 C850 0.930 . S
H842 C852 0.930 . S
H843 C855 0.929 . S
H844 C858 0.930 . S
H845 C860 0.960 . S
H846 C860 0.960 . S
H847 C860 0.960 1_554 S
C848 H840 0.929 . S
C848 C849 1.377 . S
C848 C850 1.384 . S
C849 C848 1.377 . S
C849 C855 1.390 . S
C850 H841 0.930 . S
C850 C848 1.384 . S
C850 C851 1.372 . S
C851 C850 1.372 . S
C851 C852 1.400 . S
C851 C856 1.490 . S
C852 H842 0.930 . S
C852 C851 1.400 . S
C852 C855 1.386 . S
H853 C869 0.930 . S
H854 C870 0.931 . S
C855 H843 0.929 . S
C855 C849 1.390 . S
C855 C852 1.386 . S
C856 C851 1.490 . S
C856 C858 1.395 . S
C856 C859 1.403 1_554 S
H857 C863 0.930 . S
C858 H844 0.930 . S
C858 C856 1.395 . S
C858 C861 1.403 . S
C859 C856 1.403 1_556 S
C859 C860 1.524 . S
C859 C863 1.400 . S
C860 H845 0.960 . S
C860 H846 0.960 . S
C860 H847 0.960 1_556 S
C860 C859 1.524 . S
C861 C858 1.403 . S
C861 C862 1.392 1_554 S
C861 C865 1.495 . S
C862 C861 1.392 1_556 S
C862 C863 1.385 . S
C862 C864 1.478 . S
C863 H857 0.930 . S
C863 C859 1.400 . S
C863 C862 1.385 . S
C864 C862 1.478 . S
C864 C866 1.381 . S
C864 C870 1.383 . S
C865 C861 1.495 . S
C865 H871 0.959 . S
C865 H872 0.961 . S
C865 H873 0.960 1_554 S
C866 C864 1.381 . S
C866 C867 1.394 . S
C866 H874 0.930 . S
C867 C866 1.394 . S
C867 C868 1.383 . S
C867 H875 0.929 . S
C868 C867 1.383 . S
C868 C869 1.377 . S
C869 H853 0.930 . S
C869 C868 1.377 . S
C869 C870 1.379 . S
C870 H854 0.931 . S
C870 C864 1.383 . S
C870 C869 1.379 . S
H871 C865 0.959 . S
H872 C865 0.961 . S
H873 C865 0.960 1_556 S
H874 C866 0.930 . S
H875 C867 0.929 . S
H876 C884 0.929 . S
H877 C886 0.930 . S
H878 C888 0.930 . S
H879 C891 0.929 . S
H880 C894 0.930 . S
H881 C896 0.960 . S
H882 C896 0.960 . S
H883 C896 0.960 . S
C884 H876 0.929 . S
C884 C885 1.377 . S
C884 C886 1.384 . S
C885 C884 1.377 . S
C885 C891 1.390 . S
C886 H877 0.930 . S
C886 C884 1.384 . S
C886 C887 1.372 . S
C887 C886 1.372 . S
C887 C888 1.400 . S
C887 C892 1.490 . S
C888 H878 0.930 . S
C888 C887 1.400 . S
C888 C891 1.386 . S
H889 C905 0.930 . S
H890 C906 0.931 . S
C891 H879 0.929 . S
C891 C885 1.390 . S
C891 C888 1.386 . S
C892 C887 1.490 . S
C892 C894 1.395 . S
C892 C895 1.403 . S
H893 C899 0.930 . S
C894 H880 0.930 . S
C894 C892 1.395 . S
C894 C897 1.403 . S
C895 C892 1.403 . S
C895 C896 1.524 . S
C895 C899 1.400 . S
C896 H881 0.960 . S
C896 H882 0.960 . S
C896 H883 0.960 . S
C896 C895 1.524 . S
C897 C894 1.403 . S
C897 C898 1.392 . S
C897 C901 1.495 . S
C898 C897 1.392 . S
C898 C899 1.385 . S
C898 C900 1.478 . S
C899 H893 0.930 . S
C899 C895 1.400 . S
C899 C898 1.385 . S
C900 C898 1.478 . S
C900 C902 1.381 . S
C900 C906 1.383 . S
C901 C897 1.495 . S
C901 H907 0.959 . S
C901 H908 0.961 . S
C901 H909 0.960 . S
C902 C900 1.381 . S
C902 C903 1.394 . S
C902 H910 0.930 . S
C903 C902 1.394 . S
C903 C904 1.383 . S
C903 H911 0.929 . S
C904 C903 1.383 . S
C904 C905 1.377 . S
C905 H889 0.930 . S
C905 C904 1.377 . S
C905 C906 1.379 . S
C906 H890 0.931 . S
C906 C900 1.383 . S
C906 C905 1.379 . S
H907 C901 0.959 . S
H908 C901 0.961 . S
H909 C901 0.960 . S
H910 C902 0.930 . S
H911 C903 0.929 . S
H912 C920 0.929 . S
H913 C922 0.930 . S
H914 C924 0.930 . S
H915 C927 0.929 . S
H916 C930 0.930 . S
H917 C932 0.960 . S
H918 C932 0.960 . S
H919 C932 0.960 . S
C920 H912 0.929 . S
C920 C921 1.377 . S
C920 C922 1.384 . S
C921 C920 1.377 . S
C921 C927 1.390 . S
C922 H913 0.930 . S
C922 C920 1.384 . S
C922 C923 1.372 . S
C923 C922 1.372 . S
C923 C924 1.400 . S
C923 C928 1.490 . S
C924 H914 0.930 . S
C924 C923 1.400 . S
C924 C927 1.386 . S
H925 C941 0.930 . S
H926 C942 0.931 . S
C927 H915 0.929 . S
C927 C921 1.390 . S
C927 C924 1.386 . S
C928 C923 1.490 . S
C928 C930 1.395 . S
C928 C931 1.403 1_556 S
H929 C935 0.930 . S
C930 H916 0.930 . S
C930 C928 1.395 . S
C930 C933 1.403 . S
C931 C928 1.403 1_554 S
C931 C932 1.524 . S
C931 C935 1.400 . S
C932 H917 0.960 . S
C932 H918 0.960 . S
C932 H919 0.960 . S
C932 C931 1.524 . S
C933 C930 1.403 . S
C933 C934 1.392 1_556 S
C933 C937 1.495 . S
C934 C933 1.392 1_554 S
C934 C935 1.385 . S
C934 C936 1.478 . S
C935 H929 0.930 . S
C935 C931 1.400 . S
C935 C934 1.385 . S
C936 C934 1.478 . S
C936 C938 1.381 . S
C936 C942 1.383 . S
C937 C933 1.495 . S
C937 H943 0.959 . S
C937 H944 0.961 . S
C937 H945 0.960 . S
C938 C936 1.381 . S
C938 C939 1.394 . S
C938 H946 0.930 . S
C939 C938 1.394 . S
C939 C940 1.383 . S
C939 H947 0.929 . S
C940 C939 1.383 . S
C940 C941 1.377 . S
C941 H925 0.930 . S
C941 C940 1.377 . S
C941 C942 1.379 . S
C942 H926 0.931 . S
C942 C936 1.383 . S
C942 C941 1.379 . S
H943 C937 0.959 . S
H944 C937 0.961 . S
H945 C937 0.960 . S
H946 C938 0.930 . S
H947 C939 0.929 . S
H948 C956 0.929 . S
H949 C958 0.930 . S
H950 C960 0.930 . S
H951 C963 0.929 . S
H952 C966 0.930 . S
H953 C968 0.960 . S
H954 C968 0.960 . S
H955 C968 0.960 . S
C956 H948 0.929 . S
C956 C957 1.377 . S
C956 C958 1.384 . S
C957 C956 1.377 . S
C957 C963 1.390 . S
C958 H949 0.930 . S
C958 C956 1.384 . S
C958 C959 1.372 . S
C959 C958 1.372 . S
C959 C960 1.400 . S
C959 C964 1.490 . S
C960 H950 0.930 . S
C960 C959 1.400 . S
C960 C963 1.386 . S
H961 C977 0.930 . S
H962 C978 0.931 . S
C963 H951 0.929 . S
C963 C957 1.390 . S
C963 C960 1.386 . S
C964 C959 1.490 . S
C964 C966 1.395 . S
C964 C967 1.403 . S
H965 C971 0.930 . S
C966 H952 0.930 . S
C966 C964 1.395 . S
C966 C969 1.403 . S
C967 C964 1.403 . S
C967 C968 1.524 . S
C967 C971 1.400 . S
C968 H953 0.960 . S
C968 H954 0.960 . S
C968 H955 0.960 . S
C968 C967 1.524 . S
C969 C966 1.403 . S
C969 C970 1.392 . S
C969 C973 1.495 . S
C970 C969 1.392 . S
C970 C971 1.385 . S
C970 C972 1.478 . S
C971 H965 0.930 . S
C971 C967 1.400 . S
C971 C970 1.385 . S
C972 C970 1.478 . S
C972 C974 1.381 . S
C972 C978 1.383 . S
C973 C969 1.495 . S
C973 H979 0.959 . S
C973 H980 0.961 . S
C973 H981 0.960 . S
C974 C972 1.381 . S
C974 C975 1.394 . S
C974 H982 0.930 . S
C975 C974 1.394 . S
C975 C976 1.383 . S
C975 H983 0.929 . S
C976 C975 1.383 . S
C976 C977 1.377 . S
C977 H961 0.930 . S
C977 C976 1.377 . S
C977 C978 1.379 . S
C978 H962 0.931 . S
C978 C972 1.383 . S
C978 C977 1.379 . S
H979 C973 0.959 . S
H980 C973 0.961 . S
H981 C973 0.960 . S
H982 C974 0.930 . S
H983 C975 0.929 . S
H984 C992 0.929 . S
H985 C994 0.930 . S
H986 C996 0.930 . S
H987 C999 0.929 . S
H988 C1002 0.930 . S
H989 C1004 0.960 . S
H990 C1004 0.960 . S
H991 C1004 0.960 . S
C992 H984 0.929 . S
C992 C993 1.377 . S
C992 C994 1.384 . S
C993 C992 1.377 . S
C993 C999 1.390 . S
C994 H985 0.930 . S
C994 C992 1.384 . S
C994 C995 1.372 . S
C995 C994 1.372 . S
C995 C996 1.400 . S
C995 C1000 1.490 . S
C996 H986 0.930 . S
C996 C995 1.400 . S
C996 C999 1.386 . S
H997 C1013 0.930 . S
H998 C1014 0.931 . S
C999 H987 0.929 . S
C999 C993 1.390 . S
C999 C996 1.386 . S
C1000 C995 1.490 . S
C1000 C1002 1.395 . S
C1000 C1003 1.403 1_554 S
H1001 C1007 0.930 . S
C1002 H988 0.930 . S
C1002 C1000 1.395 . S
C1002 C1005 1.403 . S
C1003 C1000 1.403 1_556 S
C1003 C1004 1.524 . S
C1003 C1007 1.400 . S
C1004 H989 0.960 . S
C1004 H990 0.960 . S
C1004 H991 0.960 . S
C1004 C1003 1.524 . S
C1005 C1002 1.403 . S
C1005 C1006 1.392 1_554 S
C1005 C1009 1.495 . S
C1006 C1005 1.392 1_556 S
C1006 C1007 1.385 . S
C1006 C1008 1.478 . S
C1007 H1001 0.930 . S
C1007 C1003 1.400 . S
C1007 C1006 1.385 . S
C1008 C1006 1.478 . S
C1008 C1010 1.381 . S
C1008 C1014 1.383 . S
C1009 C1005 1.495 . S
C1009 H1015 0.959 . S
C1009 H1016 0.961 . S
C1009 H1017 0.960 . S
C1010 C1008 1.381 . S
C1010 C1011 1.394 . S
C1010 H1018 0.930 . S
C1011 C1010 1.394 . S
C1011 C1012 1.383 . S
C1011 H1019 0.929 . S
C1012 C1011 1.383 . S
C1012 C1013 1.377 . S
C1013 H997 0.930 . S
C1013 C1012 1.377 . S
C1013 C1014 1.379 . S
C1014 H998 0.931 . S
C1014 C1008 1.383 . S
C1014 C1013 1.379 . S
H1015 C1009 0.959 . S
H1016 C1009 0.961 . S
H1017 C1009 0.960 . S
H1018 C1010 0.930 . S
H1019 C1011 0.929 . S
H1020 C1028 0.929 . S
H1021 C1030 0.930 . S
H1022 C1032 0.930 . S
H1023 C1035 0.929 . S
H1024 C1038 0.930 . S
H1025 C1040 0.960 . S
H1026 C1040 0.960 . S
H1027 C1040 0.960 . S
C1028 H1020 0.929 . S
C1028 C1029 1.377 . S
C1028 C1030 1.384 . S
C1029 C1028 1.377 . S
C1029 C1035 1.390 . S
C1030 H1021 0.930 . S
C1030 C1028 1.384 . S
C1030 C1031 1.372 . S
C1031 C1030 1.372 . S
C1031 C1032 1.400 . S
C1031 C1036 1.490 . S
C1032 H1022 0.930 . S
C1032 C1031 1.400 . S
C1032 C1035 1.386 . S
H1033 C1049 0.930 . S
H1034 C1050 0.931 . S
C1035 H1023 0.929 . S
C1035 C1029 1.390 . S
C1035 C1032 1.386 . S
C1036 C1031 1.490 . S
C1036 C1038 1.395 . S
C1036 C1039 1.403 . S
H1037 C1043 0.930 . S
C1038 H1024 0.930 . S
C1038 C1036 1.395 . S
C1038 C1041 1.403 . S
C1039 C1036 1.403 . S
C1039 C1040 1.524 . S
C1039 C1043 1.400 . S
C1040 H1025 0.960 . S
C1040 H1026 0.960 . S
C1040 H1027 0.960 . S
C1040 C1039 1.524 . S
C1041 C1038 1.403 . S
C1041 C1042 1.392 . S
C1041 C1045 1.495 . S
C1042 C1041 1.392 . S
C1042 C1043 1.385 . S
C1042 C1044 1.478 . S
C1043 H1037 0.930 . S
C1043 C1039 1.400 . S
C1043 C1042 1.385 . S
C1044 C1042 1.478 . S
C1044 C1046 1.381 . S
C1044 C1050 1.383 . S
C1045 C1041 1.495 . S
C1045 H1051 0.959 . S
C1045 H1052 0.961 . S
C1045 H1053 0.960 . S
C1046 C1044 1.381 . S
C1046 C1047 1.394 . S
C1046 H1054 0.930 . S
C1047 C1046 1.394 . S
C1047 C1048 1.383 . S
C1047 H1055 0.929 . S
C1048 C1047 1.383 . S
C1048 C1049 1.377 . S
C1049 H1033 0.930 . S
C1049 C1048 1.377 . S
C1049 C1050 1.379 . S
C1050 H1034 0.931 . S
C1050 C1044 1.383 . S
C1050 C1049 1.379 . S
H1051 C1045 0.959 . S
H1052 C1045 0.961 . S
H1053 C1045 0.960 . S
H1054 C1046 0.930 . S
H1055 C1047 0.929 . S
H1056 C1064 0.929 . S
H1057 C1066 0.930 . S
H1058 C1068 0.930 . S
H1059 C1071 0.929 . S
H1060 C1074 0.930 . S
H1061 C1076 0.960 . S
H1062 C1076 0.960 . S
H1063 C1076 0.960 . S
C1064 H1056 0.929 . S
C1064 C1065 1.377 . S
C1064 C1066 1.384 . S
C1065 C1064 1.377 . S
C1065 C1071 1.390 . S
C1066 H1057 0.930 . S
C1066 C1064 1.384 . S
C1066 C1067 1.372 . S
C1067 C1066 1.372 . S
C1067 C1068 1.400 . S
C1067 C1072 1.490 . S
C1068 H1058 0.930 . S
C1068 C1067 1.400 . S
C1068 C1071 1.386 . S
H1069 C1085 0.930 . S
H1070 C1086 0.931 . S
C1071 H1059 0.929 . S
C1071 C1065 1.390 . S
C1071 C1068 1.386 . S
C1072 C1067 1.490 . S
C1072 C1074 1.395 1_556 S
C1072 C1075 1.403 . S
H1073 C1079 0.930 . S
C1074 H1060 0.930 . S
C1074 C1072 1.395 1_554 S
C1074 C1077 1.403 . S
C1075 C1072 1.403 . S
C1075 C1076 1.524 . S
C1075 C1079 1.400 . S
C1076 H1061 0.960 . S
C1076 H1062 0.960 . S
C1076 H1063 0.960 . S
C1076 C1075 1.524 . S
C1077 C1074 1.403 . S
C1077 C1078 1.392 . S
C1077 C1081 1.495 . S
C1078 C1077 1.392 . S
C1078 C1079 1.385 1_554 S
C1078 C1080 1.478 . S
C1079 H1073 0.930 . S
C1079 C1075 1.400 . S
C1079 C1078 1.385 1_556 S
C1080 C1078 1.478 . S
C1080 C1082 1.381 . S
C1080 C1086 1.383 . S
C1081 C1077 1.495 . S
C1081 H1087 0.959 . S
C1081 H1088 0.961 . S
C1081 H1089 0.960 . S
C1082 C1080 1.381 . S
C1082 C1083 1.394 . S
C1082 H1090 0.930 . S
C1083 C1082 1.394 . S
C1083 C1084 1.383 . S
C1083 H1091 0.929 . S
C1084 C1083 1.383 . S
C1084 C1085 1.377 . S
C1085 H1069 0.930 . S
C1085 C1084 1.377 . S
C1085 C1086 1.379 . S
C1086 H1070 0.931 . S
C1086 C1080 1.383 . S
C1086 C1085 1.379 . S
H1087 C1081 0.959 . S
H1088 C1081 0.961 . S
H1089 C1081 0.960 . S
H1090 C1082 0.930 . S
H1091 C1083 0.929 . S
H1092 C1100 0.929 . S
H1093 C1102 0.930 . S
H1094 C1104 0.930 . S
H1095 C1107 0.929 . S
H1096 C1110 0.930 . S
H1097 C1112 0.960 . S
H1098 C1112 0.960 . S
H1099 C1112 0.960 . S
C1100 H1092 0.929 . S
C1100 C1101 1.377 . S
C1100 C1102 1.384 . S
C1101 C1100 1.377 . S
C1101 C1107 1.390 . S
C1102 H1093 0.930 . S
C1102 C1100 1.384 . S
C1102 C1103 1.372 . S
C1103 C1102 1.372 . S
C1103 C1104 1.400 . S
C1103 C1108 1.490 . S
C1104 H1094 0.930 . S
C1104 C1103 1.400 . S
C1104 C1107 1.386 . S
H1105 C1121 0.930 . S
H1106 C1122 0.931 . S
C1107 H1095 0.929 . S
C1107 C1101 1.390 . S
C1107 C1104 1.386 . S
C1108 C1103 1.490 . S
C1108 C1110 1.395 . S
C1108 C1111 1.403 . S
H1109 C1115 0.930 . S
C1110 H1096 0.930 . S
C1110 C1108 1.395 . S
C1110 C1113 1.403 . S
C1111 C1108 1.403 . S
C1111 C1112 1.524 . S
C1111 C1115 1.400 . S
C1112 H1097 0.960 . S
C1112 H1098 0.960 . S
C1112 H1099 0.960 . S
C1112 C1111 1.524 . S
C1113 C1110 1.403 . S
C1113 C1114 1.392 . S
C1113 C1117 1.495 . S
C1114 C1113 1.392 . S
C1114 C1115 1.385 . S
C1114 C1116 1.478 . S
C1115 H1109 0.930 . S
C1115 C1111 1.400 . S
C1115 C1114 1.385 . S
C1116 C1114 1.478 . S
C1116 C1118 1.381 . S
C1116 C1122 1.383 . S
C1117 C1113 1.495 . S
C1117 H1123 0.959 . S
C1117 H1124 0.961 . S
C1117 H1125 0.960 . S
C1118 C1116 1.381 . S
C1118 C1119 1.394 . S
C1118 H1126 0.930 . S
C1119 C1118 1.394 . S
C1119 C1120 1.383 . S
C1119 H1127 0.929 . S
C1120 C1119 1.383 . S
C1120 C1121 1.377 . S
C1121 H1105 0.930 . S
C1121 C1120 1.377 . S
C1121 C1122 1.379 . S
C1122 H1106 0.931 . S
C1122 C1116 1.383 . S
C1122 C1121 1.379 . S
H1123 C1117 0.959 . S
H1124 C1117 0.961 . S
H1125 C1117 0.960 . S
H1126 C1118 0.930 . S
H1127 C1119 0.929 . S
H1128 C1136 0.929 . S
H1129 C1138 0.930 1_554 S
H1130 C1140 0.930 . S
H1131 C1143 0.929 . S
H1132 C1146 0.930 . S
H1133 C1148 0.960 . S
H1134 C1148 0.960 . S
H1135 C1148 0.960 . S
C1136 H1128 0.929 . S
C1136 C1137 1.377 . S
C1136 C1138 1.384 . S
C1137 C1136 1.377 . S
C1137 C1143 1.390 . S
C1138 H1129 0.930 1_556 S
C1138 C1136 1.384 . S
C1138 C1139 1.372 . S
C1139 C1138 1.372 . S
C1139 C1140 1.400 . S
C1139 C1144 1.490 . S
C1140 H1130 0.930 . S
C1140 C1139 1.400 . S
C1140 C1143 1.386 . S
H1141 C1157 0.930 . S
H1142 C1158 0.931 1_556 S
C1143 H1131 0.929 . S
C1143 C1137 1.390 . S
C1143 C1140 1.386 . S
C1144 C1139 1.490 . S
C1144 C1146 1.395 1_556 S
C1144 C1147 1.403 . S
H1145 C1151 0.930 . S
C1146 H1132 0.930 . S
C1146 C1144 1.395 1_554 S
C1146 C1149 1.403 . S
C1147 C1144 1.403 . S
C1147 C1148 1.524 . S
C1147 C1151 1.400 1_556 S
C1148 H1133 0.960 . S
C1148 H1134 0.960 . S
C1148 H1135 0.960 . S
C1148 C1147 1.524 . S
C1149 C1146 1.403 . S
C1149 C1150 1.392 . S
C1149 C1153 1.495 . S
C1150 C1149 1.392 . S
C1150 C1151 1.385 . S
C1150 C1152 1.478 . S
C1151 H1145 0.930 . S
C1151 C1147 1.400 1_554 S
C1151 C1150 1.385 . S
C1152 C1150 1.478 . S
C1152 C1154 1.381 . S
C1152 C1158 1.383 . S
C1153 C1149 1.495 . S
C1153 H1159 0.959 . S
C1153 H1160 0.961 . S
C1153 H1161 0.960 . S
C1154 C1152 1.381 . S
C1154 C1155 1.394 . S
C1154 H1162 0.930 . S
C1155 C1154 1.394 . S
C1155 C1156 1.383 . S
C1155 H1163 0.929 . S
C1156 C1155 1.383 . S
C1156 C1157 1.377 . S
C1157 H1141 0.930 . S
C1157 C1156 1.377 . S
C1157 C1158 1.379 . S
C1158 H1142 0.931 1_554 S
C1158 C1152 1.383 . S
C1158 C1157 1.379 . S
H1159 C1153 0.959 . S
H1160 C1153 0.961 . S
H1161 C1153 0.960 . S
H1162 C1154 0.930 . S
H1163 C1155 0.929 . S
H1164 C1172 0.929 . S
H1165 C1174 0.930 . S
H1166 C1176 0.930 . S
H1167 C1179 0.929 . S
H1168 C1182 0.930 . S
H1169 C1184 0.960 . S
H1170 C1184 0.960 . S
H1171 C1184 0.960 . S
C1172 H1164 0.929 . S
C1172 C1173 1.377 . S
C1172 C1174 1.384 . S
C1173 C1172 1.377 . S
C1173 C1179 1.390 . S
C1174 H1165 0.930 . S
C1174 C1172 1.384 . S
C1174 C1175 1.372 . S
C1175 C1174 1.372 . S
C1175 C1176 1.400 . S
C1175 C1180 1.490 . S
C1176 H1166 0.930 . S
C1176 C1175 1.400 . S
C1176 C1179 1.386 . S
H1177 C1193 0.930 . S
H1178 C1194 0.931 . S
C1179 H1167 0.929 . S
C1179 C1173 1.390 . S
C1179 C1176 1.386 . S
C1180 C1175 1.490 . S
C1180 C1182 1.395 . S
C1180 C1183 1.403 . S
H1181 C1187 0.930 . S
C1182 H1168 0.930 . S
C1182 C1180 1.395 . S
C1182 C1185 1.403 . S
C1183 C1180 1.403 . S
C1183 C1184 1.524 . S
C1183 C1187 1.400 . S
C1184 H1169 0.960 . S
C1184 H1170 0.960 . S
C1184 H1171 0.960 . S
C1184 C1183 1.524 . S
C1185 C1182 1.403 . S
C1185 C1186 1.392 . S
C1185 C1189 1.495 . S
C1186 C1185 1.392 . S
C1186 C1187 1.385 . S
C1186 C1188 1.478 . S
C1187 H1181 0.930 . S
C1187 C1183 1.400 . S
C1187 C1186 1.385 . S
C1188 C1186 1.478 . S
C1188 C1190 1.381 . S
C1188 C1194 1.383 . S
C1189 C1185 1.495 . S
C1189 H1195 0.959 . S
C1189 H1196 0.961 . S
C1189 H1197 0.960 . S
C1190 C1188 1.381 . S
C1190 C1191 1.394 . S
C1190 H1198 0.930 . S
C1191 C1190 1.394 . S
C1191 C1192 1.383 . S
C1191 H1199 0.929 . S
C1192 C1191 1.383 . S
C1192 C1193 1.377 . S
C1193 H1177 0.930 . S
C1193 C1192 1.377 . S
C1193 C1194 1.379 . S
C1194 H1178 0.931 . S
C1194 C1188 1.383 . S
C1194 C1193 1.379 . S
H1195 C1189 0.959 . S
H1196 C1189 0.961 . S
H1197 C1189 0.960 . S
H1198 C1190 0.930 . S
H1199 C1191 0.929 . S
H1200 C1208 0.929 . S
H1201 C1210 0.930 . S
H1202 C1212 0.930 . S
H1203 C1215 0.929 . S
H1204 C1218 0.930 . S
H1205 C1220 0.960 . S
H1206 C1220 0.960 . S
H1207 C1220 0.960 . S
C1208 H1200 0.929 . S
C1208 C1209 1.377 . S
C1208 C1210 1.384 . S
C1209 C1208 1.377 . S
C1209 C1215 1.390 . S
C1210 H1201 0.930 . S
C1210 C1208 1.384 . S
C1210 C1211 1.372 . S
C1211 C1210 1.372 . S
C1211 C1212 1.400 . S
C1211 C1216 1.490 . S
C1212 H1202 0.930 . S
C1212 C1211 1.400 . S
C1212 C1215 1.386 . S
H1213 C1229 0.930 . S
H1214 C1230 0.931 . S
C1215 H1203 0.929 . S
C1215 C1209 1.390 . S
C1215 C1212 1.386 . S
C1216 C1211 1.490 . S
C1216 C1218 1.395 . S
C1216 C1219 1.403 . S
H1217 C1223 0.930 . S
C1218 H1204 0.930 . S
C1218 C1216 1.395 . S
C1218 C1221 1.403 . S
C1219 C1216 1.403 . S
C1219 C1220 1.524 . S
C1219 C1223 1.400 . S
C1220 H1205 0.960 . S
C1220 H1206 0.960 . S
C1220 H1207 0.960 . S
C1220 C1219 1.524 . S
C1221 C1218 1.403 . S
C1221 C1222 1.392 . S
C1221 C1225 1.495 . S
C1222 C1221 1.392 . S
C1222 C1223 1.385 . S
C1222 C1224 1.478 . S
C1223 H1217 0.930 . S
C1223 C1219 1.400 . S
C1223 C1222 1.385 . S
C1224 C1222 1.478 . S
C1224 C1226 1.381 . S
C1224 C1230 1.383 . S
C1225 C1221 1.495 . S
C1225 H1231 0.959 . S
C1225 H1232 0.961 . S
C1225 H1233 0.960 . S
C1226 C1224 1.381 . S
C1226 C1227 1.394 . S
C1226 H1234 0.930 . S
C1227 C1226 1.394 . S
C1227 C1228 1.383 . S
C1227 H1235 0.929 . S
C1228 C1227 1.383 . S
C1228 C1229 1.377 . S
C1229 H1213 0.930 . S
C1229 C1228 1.377 . S
C1229 C1230 1.379 . S
C1230 H1214 0.931 . S
C1230 C1224 1.383 . S
C1230 C1229 1.379 . S
H1231 C1225 0.959 . S
H1232 C1225 0.961 . S
H1233 C1225 0.960 . S
H1234 C1226 0.930 . S
H1235 C1227 0.929 . S
H1236 C1244 0.929 . S
H1237 C1246 0.930 . S
H1238 C1248 0.930 . S
H1239 C1251 0.929 . S
H1240 C1254 0.930 . S
H1241 C1256 0.960 . S
H1242 C1256 0.960 . S
H1243 C1256 0.960 . S
C1244 H1236 0.929 . S
C1244 C1245 1.377 . S
C1244 C1246 1.384 . S
C1245 C1244 1.377 . S
C1245 C1251 1.390 . S
C1246 H1237 0.930 . S
C1246 C1244 1.384 . S
C1246 C1247 1.372 . S
C1247 C1246 1.372 . S
C1247 C1248 1.400 . S
C1247 C1252 1.490 . S
C1248 H1238 0.930 . S
C1248 C1247 1.400 . S
C1248 C1251 1.386 . S
H1249 C1265 0.930 . S
H1250 C1266 0.931 . S
C1251 H1239 0.929 . S
C1251 C1245 1.390 . S
C1251 C1248 1.386 . S
C1252 C1247 1.490 . S
C1252 C1254 1.395 . S
C1252 C1255 1.403 . S
H1253 C1259 0.930 . S
C1254 H1240 0.930 . S
C1254 C1252 1.395 . S
C1254 C1257 1.403 1_455 S
C1255 C1252 1.403 . S
C1255 C1256 1.524 . S
C1255 C1259 1.400 1_455 S
C1256 H1241 0.960 . S
C1256 H1242 0.960 . S
C1256 H1243 0.960 . S
C1256 C1255 1.524 . S
C1257 C1254 1.403 1_655 S
C1257 C1258 1.392 . S
C1257 C1261 1.495 . S
C1258 C1257 1.392 . S
C1258 C1259 1.385 . S
C1258 C1260 1.478 . S
C1259 H1253 0.930 . S
C1259 C1255 1.400 1_655 S
C1259 C1258 1.385 . S
C1260 C1258 1.478 . S
C1260 C1262 1.381 . S
C1260 C1266 1.383 . S
C1261 C1257 1.495 . S
C1261 H1267 0.959 . S
C1261 H1268 0.961 . S
C1261 H1269 0.960 . S
C1262 C1260 1.381 . S
C1262 C1263 1.394 . S
C1262 H1270 0.930 . S
C1263 C1262 1.394 . S
C1263 C1264 1.383 . S
C1263 H1271 0.929 . S
C1264 C1263 1.383 . S
C1264 C1265 1.377 . S
C1265 H1249 0.930 . S
C1265 C1264 1.377 . S
C1265 C1266 1.379 . S
C1266 H1250 0.931 . S
C1266 C1260 1.383 . S
C1266 C1265 1.379 . S
H1267 C1261 0.959 . S
H1268 C1261 0.961 . S
H1269 C1261 0.960 . S
H1270 C1262 0.930 . S
H1271 C1263 0.929 . S
H1272 C1280 0.929 . S
H1273 C1282 0.930 . S
H1274 C1284 0.930 . S
H1275 C1287 0.929 . S
H1276 C1290 0.930 . S
H1277 C1292 0.960 . S
H1278 C1292 0.960 . S
H1279 C1292 0.960 . S
C1280 H1272 0.929 . S
C1280 C1281 1.377 . S
C1280 C1282 1.384 . S
C1281 C1280 1.377 . S
C1281 C1287 1.390 . S
C1282 H1273 0.930 . S
C1282 C1280 1.384 . S
C1282 C1283 1.372 . S
C1283 C1282 1.372 . S
C1283 C1284 1.400 . S
C1283 C1288 1.490 . S
C1284 H1274 0.930 . S
C1284 C1283 1.400 . S
C1284 C1287 1.386 . S
H1285 C1301 0.930 . S
H1286 C1302 0.931 . S
C1287 H1275 0.929 . S
C1287 C1281 1.390 . S
C1287 C1284 1.386 . S
C1288 C1283 1.490 . S
C1288 C1290 1.395 . S
C1288 C1291 1.403 . S
H1289 C1295 0.930 . S
C1290 H1276 0.930 . S
C1290 C1288 1.395 . S
C1290 C1293 1.403 1_565 S
C1291 C1288 1.403 . S
C1291 C1292 1.524 . S
C1291 C1295 1.400 1_565 S
C1292 H1277 0.960 . S
C1292 H1278 0.960 . S
C1292 H1279 0.960 . S
C1292 C1291 1.524 . S
C1293 C1290 1.403 1_545 S
C1293 C1294 1.392 . S
C1293 C1297 1.495 . S
C1294 C1293 1.392 . S
C1294 C1295 1.385 . S
C1294 C1296 1.478 . S
C1295 H1289 0.930 . S
C1295 C1291 1.400 1_545 S
C1295 C1294 1.385 . S
C1296 C1294 1.478 . S
C1296 C1298 1.381 . S
C1296 C1302 1.383 . S
C1297 C1293 1.495 . S
C1297 H1303 0.959 . S
C1297 H1304 0.961 . S
C1297 H1305 0.960 . S
C1298 C1296 1.381 . S
C1298 C1299 1.394 . S
C1298 H1306 0.930 . S
C1299 C1298 1.394 . S
C1299 C1300 1.383 . S
C1299 H1307 0.929 . S
C1300 C1299 1.383 . S
C1300 C1301 1.377 . S
C1301 H1285 0.930 . S
C1301 C1300 1.377 . S
C1301 C1302 1.379 . S
C1302 H1286 0.931 . S
C1302 C1296 1.383 . S
C1302 C1301 1.379 . S
H1303 C1297 0.959 . S
H1304 C1297 0.961 . S
H1305 C1297 0.960 . S
H1306 C1298 0.930 . S
H1307 C1299 0.929 . S
H1308 C1316 0.929 . S
H1309 C1318 0.930 . S
H1310 C1320 0.930 . S
H1311 C1323 0.929 . S
H1312 C1326 0.930 . S
H1313 C1328 0.960 . S
H1314 C1328 0.960 . S
H1315 C1328 0.960 . S
C1316 H1308 0.929 . S
C1316 C1317 1.377 . S
C1316 C1318 1.384 . S
C1317 C1316 1.377 . S
C1317 C1323 1.390 . S
C1318 H1309 0.930 . S
C1318 C1316 1.384 . S
C1318 C1319 1.372 . S
C1319 C1318 1.372 . S
C1319 C1320 1.400 . S
C1319 C1324 1.490 . S
C1320 H1310 0.930 . S
C1320 C1319 1.400 . S
C1320 C1323 1.386 . S
H1321 C1337 0.930 . S
H1322 C1338 0.931 . S
C1323 H1311 0.929 . S
C1323 C1317 1.390 . S
C1323 C1320 1.386 . S
C1324 C1319 1.490 . S
C1324 C1326 1.395 . S
C1324 C1327 1.403 . S
H1325 C1331 0.930 . S
C1326 H1312 0.930 . S
C1326 C1324 1.395 . S
C1326 C1329 1.403 . S
C1327 C1324 1.403 . S
C1327 C1328 1.524 . S
C1327 C1331 1.400 . S
C1328 H1313 0.960 . S
C1328 H1314 0.960 . S
C1328 H1315 0.960 . S
C1328 C1327 1.524 . S
C1329 C1326 1.403 . S
C1329 C1330 1.392 . S
C1329 C1333 1.495 . S
C1330 C1329 1.392 . S
C1330 C1331 1.385 . S
C1330 C1332 1.478 . S
C1331 H1325 0.930 . S
C1331 C1327 1.400 . S
C1331 C1330 1.385 . S
C1332 C1330 1.478 . S
C1332 C1334 1.381 . S
C1332 C1338 1.383 . S
C1333 C1329 1.495 . S
C1333 H1339 0.959 . S
C1333 H1340 0.961 . S
C1333 H1341 0.960 . S
C1334 C1332 1.381 . S
C1334 C1335 1.394 . S
C1334 H1342 0.930 . S
C1335 C1334 1.394 . S
C1335 C1336 1.383 . S
C1335 H1343 0.929 . S
C1336 C1335 1.383 . S
C1336 C1337 1.377 . S
C1337 H1321 0.930 . S
C1337 C1336 1.377 . S
C1337 C1338 1.379 . S
C1338 H1322 0.931 . S
C1338 C1332 1.383 . S
C1338 C1337 1.379 . S
H1339 C1333 0.959 . S
H1340 C1333 0.961 . S
H1341 C1333 0.960 . S
H1342 C1334 0.930 . S
H1343 C1335 0.929 . S
H1344 C1352 0.929 . S
H1345 C1354 0.930 . S
H1346 C1356 0.930 . S
H1347 C1359 0.929 . S
H1348 C1362 0.930 . S
H1349 C1364 0.960 . S
H1350 C1364 0.960 . S
H1351 C1364 0.960 . S
C1352 H1344 0.929 . S
C1352 C1353 1.377 . S
C1352 C1354 1.384 . S
C1353 C1352 1.377 . S
C1353 C1359 1.390 . S
C1354 H1345 0.930 . S
C1354 C1352 1.384 . S
C1354 C1355 1.372 . S
C1355 C1354 1.372 . S
C1355 C1356 1.400 . S
C1355 C1360 1.490 . S
C1356 H1346 0.930 . S
C1356 C1355 1.400 . S
C1356 C1359 1.386 . S
H1357 C1373 0.930 . S
H1358 C1374 0.931 . S
C1359 H1347 0.929 . S
C1359 C1353 1.390 . S
C1359 C1356 1.386 . S
C1360 C1355 1.490 . S
C1360 C1362 1.395 . S
C1360 C1363 1.403 . S
H1361 C1367 0.930 . S
C1362 H1348 0.930 . S
C1362 C1360 1.395 . S
C1362 C1365 1.403 1_655 S
C1363 C1360 1.403 . S
C1363 C1364 1.524 . S
C1363 C1367 1.400 1_655 S
C1364 H1349 0.960 . S
C1364 H1350 0.960 . S
C1364 H1351 0.960 . S
C1364 C1363 1.524 . S
C1365 C1362 1.403 1_455 S
C1365 C1366 1.392 . S
C1365 C1369 1.495 . S
C1366 C1365 1.392 . S
C1366 C1367 1.385 . S
C1366 C1368 1.478 . S
C1367 H1361 0.930 . S
C1367 C1363 1.400 1_455 S
C1367 C1366 1.385 . S
C1368 C1366 1.478 . S
C1368 C1370 1.381 . S
C1368 C1374 1.383 . S
C1369 C1365 1.495 . S
C1369 H1375 0.959 . S
C1369 H1376 0.961 . S
C1369 H1377 0.960 . S
C1370 C1368 1.381 . S
C1370 C1371 1.394 . S
C1370 H1378 0.930 . S
C1371 C1370 1.394 . S
C1371 C1372 1.383 . S
C1371 H1379 0.929 . S
C1372 C1371 1.383 . S
C1372 C1373 1.377 . S
C1373 H1357 0.930 . S
C1373 C1372 1.377 . S
C1373 C1374 1.379 . S
C1374 H1358 0.931 . S
C1374 C1368 1.383 . S
C1374 C1373 1.379 . S
H1375 C1369 0.959 . S
H1376 C1369 0.961 . S
H1377 C1369 0.960 . S
H1378 C1370 0.930 . S
H1379 C1371 0.929 . S
H1380 C1388 0.929 . S
H1381 C1390 0.930 . S
H1382 C1392 0.930 . S
H1383 C1395 0.929 . S
H1384 C1398 0.930 . S
H1385 C1400 0.960 . S
H1386 C1400 0.960 . S
H1387 C1400 0.960 . S
C1388 H1380 0.929 . S
C1388 C1389 1.377 . S
C1388 C1390 1.384 . S
C1389 C1388 1.377 . S
C1389 C1395 1.390 . S
C1390 H1381 0.930 . S
C1390 C1388 1.384 . S
C1390 C1391 1.372 . S
C1391 C1390 1.372 . S
C1391 C1392 1.400 . S
C1391 C1396 1.490 . S
C1392 H1382 0.930 . S
C1392 C1391 1.400 . S
C1392 C1395 1.386 . S
H1393 C1409 0.930 . S
H1394 C1410 0.931 . S
C1395 H1383 0.929 . S
C1395 C1389 1.390 . S
C1395 C1392 1.386 . S
C1396 C1391 1.490 . S
C1396 C1398 1.395 . S
C1396 C1399 1.403 . S
H1397 C1403 0.930 . S
C1398 H1384 0.930 . S
C1398 C1396 1.395 . S
C1398 C1401 1.403 1_545 S
C1399 C1396 1.403 . S
C1399 C1400 1.524 . S
C1399 C1403 1.400 1_545 S
C1400 H1385 0.960 . S
C1400 H1386 0.960 . S
C1400 H1387 0.960 . S
C1400 C1399 1.524 . S
C1401 C1398 1.403 1_565 S
C1401 C1402 1.392 . S
C1401 C1405 1.495 . S
C1402 C1401 1.392 . S
C1402 C1403 1.385 . S
C1402 C1404 1.478 . S
C1403 H1397 0.930 . S
C1403 C1399 1.400 1_565 S
C1403 C1402 1.385 . S
C1404 C1402 1.478 . S
C1404 C1406 1.381 . S
C1404 C1410 1.383 . S
C1405 C1401 1.495 . S
C1405 H1411 0.959 . S
C1405 H1412 0.961 . S
C1405 H1413 0.960 . S
C1406 C1404 1.381 . S
C1406 C1407 1.394 . S
C1406 H1414 0.930 . S
C1407 C1406 1.394 . S
C1407 C1408 1.383 . S
C1407 H1415 0.929 . S
C1408 C1407 1.383 . S
C1408 C1409 1.377 . S
C1409 H1393 0.930 . S
C1409 C1408 1.377 . S
C1409 C1410 1.379 . S
C1410 H1394 0.931 . S
C1410 C1404 1.383 . S
C1410 C1409 1.379 . S
H1411 C1405 0.959 . S
H1412 C1405 0.961 . S
H1413 C1405 0.960 . S
H1414 C1406 0.930 . S
H1415 C1407 0.929 . S
H1416 C1424 0.929 . S
H1417 C1426 0.930 . S
H1418 C1428 0.930 . S
H1419 C1431 0.929 . S
H1420 C1434 0.930 . S
H1421 C1436 0.960 . S
H1422 C1436 0.960 . S
H1423 C1436 0.960 . S
C1424 H1416 0.929 . S
C1424 C1425 1.377 . S
C1424 C1426 1.384 . S
C1425 C1424 1.377 . S
C1425 C1431 1.390 . S
C1426 H1417 0.930 . S
C1426 C1424 1.384 . S
C1426 C1427 1.372 . S
C1427 C1426 1.372 . S
C1427 C1428 1.400 . S
C1427 C1432 1.490 . S
C1428 H1418 0.930 . S
C1428 C1427 1.400 . S
C1428 C1431 1.386 . S
H1429 C1445 0.930 . S
H1430 C1446 0.931 . S
C1431 H1419 0.929 . S
C1431 C1425 1.390 . S
C1431 C1428 1.386 . S
C1432 C1427 1.490 . S
C1432 C1434 1.395 . S
C1432 C1435 1.403 . S
H1433 C1439 0.930 . S
C1434 H1420 0.930 . S
C1434 C1432 1.395 . S
C1434 C1437 1.403 . S
C1435 C1432 1.403 . S
C1435 C1436 1.524 . S
C1435 C1439 1.400 . S
C1436 H1421 0.960 . S
C1436 H1422 0.960 . S
C1436 H1423 0.960 . S
C1436 C1435 1.524 . S
C1437 C1434 1.403 . S
C1437 C1438 1.392 . S
C1437 C1441 1.495 . S
C1438 C1437 1.392 . S
C1438 C1439 1.385 . S
C1438 C1440 1.478 . S
C1439 H1433 0.930 . S
C1439 C1435 1.400 . S
C1439 C1438 1.385 . S
C1440 C1438 1.478 . S
C1440 C1442 1.381 . S
C1440 C1446 1.383 . S
C1441 C1437 1.495 . S
C1441 H1447 0.959 . S
C1441 H1448 0.961 . S
C1441 H1449 0.960 . S
C1442 C1440 1.381 . S
C1442 C1443 1.394 . S
C1442 H1450 0.930 . S
C1443 C1442 1.394 . S
C1443 C1444 1.383 . S
C1443 H1451 0.929 . S
C1444 C1443 1.383 . S
C1444 C1445 1.377 . S
C1445 H1429 0.930 . S
C1445 C1444 1.377 . S
C1445 C1446 1.379 . S
C1446 H1430 0.931 . S
C1446 C1440 1.383 . S
C1446 C1445 1.379 . S
H1447 C1441 0.959 . S
H1448 C1441 0.961 . S
H1449 C1441 0.960 . S
H1450 C1442 0.930 . S
H1451 C1443 0.929 . S
H1452 C1460 0.929 . S
H1453 C1462 0.930 . S
H1454 C1464 0.930 . S
H1455 C1467 0.929 . S
H1456 C1470 0.930 . S
H1457 C1472 0.960 . S
H1458 C1472 0.960 . S
H1459 C1472 0.960 . S
C1460 H1452 0.929 . S
C1460 C1461 1.377 . S
C1460 C1462 1.384 . S
C1461 C1460 1.377 . S
C1461 C1467 1.390 . S
C1462 H1453 0.930 . S
C1462 C1460 1.384 . S
C1462 C1463 1.372 . S
C1463 C1462 1.372 . S
C1463 C1464 1.400 . S
C1463 C1468 1.490 . S
C1464 H1454 0.930 . S
C1464 C1463 1.400 . S
C1464 C1467 1.386 . S
H1465 C1481 0.930 . S
H1466 C1482 0.931 . S
C1467 H1455 0.929 . S
C1467 C1461 1.390 . S
C1467 C1464 1.386 . S
C1468 C1463 1.490 . S
C1468 C1470 1.395 . S
C1468 C1471 1.403 . S
H1469 C1475 0.930 . S
C1470 H1456 0.930 . S
C1470 C1468 1.395 . S
C1470 C1473 1.403 1_655 S
C1471 C1468 1.403 . S
C1471 C1472 1.524 . S
C1471 C1475 1.400 1_655 S
C1472 H1457 0.960 . S
C1472 H1458 0.960 . S
C1472 H1459 0.960 . S
C1472 C1471 1.524 . S
C1473 C1470 1.403 1_455 S
C1473 C1474 1.392 . S
C1473 C1477 1.495 . S
C1474 C1473 1.392 . S
C1474 C1475 1.385 . S
C1474 C1476 1.478 . S
C1475 H1469 0.930 . S
C1475 C1471 1.400 1_455 S
C1475 C1474 1.385 . S
C1476 C1474 1.478 . S
C1476 C1478 1.381 . S
C1476 C1482 1.383 . S
C1477 C1473 1.495 . S
C1477 H1483 0.959 . S
C1477 H1484 0.961 . S
C1477 H1485 0.960 . S
C1478 C1476 1.381 . S
C1478 C1479 1.394 . S
C1478 H1486 0.930 . S
C1479 C1478 1.394 . S
C1479 C1480 1.383 . S
C1479 H1487 0.929 . S
C1480 C1479 1.383 . S
C1480 C1481 1.377 . S
C1481 H1465 0.930 . S
C1481 C1480 1.377 . S
C1481 C1482 1.379 . S
C1482 H1466 0.931 . S
C1482 C1476 1.383 . S
C1482 C1481 1.379 . S
H1483 C1477 0.959 . S
H1484 C1477 0.961 . S
H1485 C1477 0.960 . S
H1486 C1478 0.930 . S
H1487 C1479 0.929 . S
H1488 C1496 0.929 . S
H1489 C1498 0.930 . S
H1490 C1500 0.930 . S
H1491 C1503 0.929 . S
H1492 C1506 0.930 . S
H1493 C1508 0.960 . S
H1494 C1508 0.960 . S
H1495 C1508 0.960 . S
C1496 H1488 0.929 . S
C1496 C1497 1.377 . S
C1496 C1498 1.384 . S
C1497 C1496 1.377 . S
C1497 C1503 1.390 . S
C1498 H1489 0.930 . S
C1498 C1496 1.384 . S
C1498 C1499 1.372 . S
C1499 C1498 1.372 . S
C1499 C1500 1.400 . S
C1499 C1504 1.490 . S
C1500 H1490 0.930 . S
C1500 C1499 1.400 . S
C1500 C1503 1.386 . S
H1501 C1517 0.930 . S
H1502 C1518 0.931 . S
C1503 H1491 0.929 . S
C1503 C1497 1.390 . S
C1503 C1500 1.386 . S
C1504 C1499 1.490 . S
C1504 C1506 1.395 . S
C1504 C1507 1.403 . S
H1505 C1511 0.930 . S
C1506 H1492 0.930 . S
C1506 C1504 1.395 . S
C1506 C1509 1.403 1_545 S
C1507 C1504 1.403 . S
C1507 C1508 1.524 . S
C1507 C1511 1.400 1_545 S
C1508 H1493 0.960 . S
C1508 H1494 0.960 . S
C1508 H1495 0.960 . S
C1508 C1507 1.524 . S
C1509 C1506 1.403 1_565 S
C1509 C1510 1.392 . S
C1509 C1513 1.495 . S
C1510 C1509 1.392 . S
C1510 C1511 1.385 . S
C1510 C1512 1.478 . S
C1511 H1505 0.930 . S
C1511 C1507 1.400 1_565 S
C1511 C1510 1.385 . S
C1512 C1510 1.478 . S
C1512 C1514 1.381 . S
C1512 C1518 1.383 . S
C1513 C1509 1.495 . S
C1513 H1519 0.959 . S
C1513 H1520 0.961 . S
C1513 H1521 0.960 . S
C1514 C1512 1.381 . S
C1514 C1515 1.394 . S
C1514 H1522 0.930 . S
C1515 C1514 1.394 . S
C1515 C1516 1.383 . S
C1515 H1523 0.929 . S
C1516 C1515 1.383 . S
C1516 C1517 1.377 . S
C1517 H1501 0.930 . S
C1517 C1516 1.377 . S
C1517 C1518 1.379 . S
C1518 H1502 0.931 . S
C1518 C1512 1.383 . S
C1518 C1517 1.379 . S
H1519 C1513 0.959 . S
H1520 C1513 0.961 . S
H1521 C1513 0.960 . S
H1522 C1514 0.930 . S
H1523 C1515 0.929 . S
H1524 C1532 0.929 . S
H1525 C1534 0.930 . S
H1526 C1536 0.930 . S
H1527 C1539 0.929 . S
H1528 C1542 0.930 . S
H1529 C1544 0.960 . S
H1530 C1544 0.960 . S
H1531 C1544 0.960 . S
C1532 H1524 0.929 . S
C1532 C1533 1.377 . S
C1532 C1534 1.384 . S
C1533 C1532 1.377 . S
C1533 C1539 1.390 . S
C1534 H1525 0.930 . S
C1534 C1532 1.384 . S
C1534 C1535 1.372 . S
C1535 C1534 1.372 . S
C1535 C1536 1.400 . S
C1535 C1540 1.490 . S
C1536 H1526 0.930 . S
C1536 C1535 1.400 . S
C1536 C1539 1.386 . S
H1537 C1553 0.930 . S
H1538 C1554 0.931 . S
C1539 H1527 0.929 . S
C1539 C1533 1.390 . S
C1539 C1536 1.386 . S
C1540 C1535 1.490 . S
C1540 C1542 1.395 . S
C1540 C1543 1.403 . S
H1541 C1547 0.930 . S
C1542 H1528 0.930 . S
C1542 C1540 1.395 . S
C1542 C1545 1.403 . S
C1543 C1540 1.403 . S
C1543 C1544 1.524 . S
C1543 C1547 1.400 . S
C1544 H1529 0.960 . S
C1544 H1530 0.960 . S
C1544 H1531 0.960 . S
C1544 C1543 1.524 . S
C1545 C1542 1.403 . S
C1545 C1546 1.392 . S
C1545 C1549 1.495 . S
C1546 C1545 1.392 . S
C1546 C1547 1.385 . S
C1546 C1548 1.478 . S
C1547 H1541 0.930 . S
C1547 C1543 1.400 . S
C1547 C1546 1.385 . S
C1548 C1546 1.478 . S
C1548 C1550 1.381 . S
C1548 C1554 1.383 . S
C1549 C1545 1.495 . S
C1549 H1555 0.959 . S
C1549 H1556 0.961 . S
C1549 H1557 0.960 . S
C1550 C1548 1.381 . S
C1550 C1551 1.394 . S
C1550 H1558 0.930 . S
C1551 C1550 1.394 . S
C1551 C1552 1.383 . S
C1551 H1559 0.929 . S
C1552 C1551 1.383 . S
C1552 C1553 1.377 . S
C1553 H1537 0.930 . S
C1553 C1552 1.377 . S
C1553 C1554 1.379 . S
C1554 H1538 0.931 . S
C1554 C1548 1.383 . S
C1554 C1553 1.379 . S
H1555 C1549 0.959 . S
H1556 C1549 0.961 . S
H1557 C1549 0.960 . S
H1558 C1550 0.930 . S
H1559 C1551 0.929 . S
H1560 C1568 0.929 . S
H1561 C1570 0.930 . S
H1562 C1572 0.930 . S
H1563 C1575 0.929 . S
H1564 C1578 0.930 . S
H1565 C1580 0.960 . S
H1566 C1580 0.960 . S
H1567 C1580 0.960 . S
C1568 H1560 0.929 . S
C1568 C1569 1.377 . S
C1568 C1570 1.384 . S
C1569 C1568 1.377 . S
C1569 C1575 1.390 . S
C1570 H1561 0.930 . S
C1570 C1568 1.384 . S
C1570 C1571 1.372 . S
C1571 C1570 1.372 . S
C1571 C1572 1.400 . S
C1571 C1576 1.490 . S
C1572 H1562 0.930 . S
C1572 C1571 1.400 . S
C1572 C1575 1.386 . S
H1573 C1589 0.930 . S
H1574 C1590 0.931 . S
C1575 H1563 0.929 . S
C1575 C1569 1.390 . S
C1575 C1572 1.386 . S
C1576 C1571 1.490 . S
C1576 C1578 1.395 . S
C1576 C1579 1.403 . S
H1577 C1583 0.930 . S
C1578 H1564 0.930 . S
C1578 C1576 1.395 . S
C1578 C1581 1.403 1_455 S
C1579 C1576 1.403 . S
C1579 C1580 1.524 . S
C1579 C1583 1.400 1_455 S
C1580 H1565 0.960 . S
C1580 H1566 0.960 . S
C1580 H1567 0.960 . S
C1580 C1579 1.524 . S
C1581 C1578 1.403 1_655 S
C1581 C1582 1.392 . S
C1581 C1585 1.495 . S
C1582 C1581 1.392 . S
C1582 C1583 1.385 . S
C1582 C1584 1.478 . S
C1583 H1577 0.930 . S
C1583 C1579 1.400 1_655 S
C1583 C1582 1.385 . S
C1584 C1582 1.478 . S
C1584 C1586 1.381 . S
C1584 C1590 1.383 . S
C1585 C1581 1.495 . S
C1585 H1591 0.959 . S
C1585 H1592 0.961 . S
C1585 H1593 0.960 . S
C1586 C1584 1.381 . S
C1586 C1587 1.394 . S
C1586 H1594 0.930 . S
C1587 C1586 1.394 . S
C1587 C1588 1.383 . S
C1587 H1595 0.929 . S
C1588 C1587 1.383 . S
C1588 C1589 1.377 . S
C1589 H1573 0.930 . S
C1589 C1588 1.377 . S
C1589 C1590 1.379 . S
C1590 H1574 0.931 . S
C1590 C1584 1.383 . S
C1590 C1589 1.379 . S
H1591 C1585 0.959 . S
H1592 C1585 0.961 . S
H1593 C1585 0.960 . S
H1594 C1586 0.930 . S
H1595 C1587 0.929 . S
H1596 C1604 0.929 . S
H1597 C1606 0.930 . S
H1598 C1608 0.930 . S
H1599 C1611 0.929 . S
H1600 C1614 0.930 . S
H1601 C1616 0.960 . S
H1602 C1616 0.960 . S
H1603 C1616 0.960 . S
C1604 H1596 0.929 . S
C1604 C1605 1.377 . S
C1604 C1606 1.384 . S
C1605 C1604 1.377 . S
C1605 C1611 1.390 . S
C1606 H1597 0.930 . S
C1606 C1604 1.384 . S
C1606 C1607 1.372 . S
C1607 C1606 1.372 . S
C1607 C1608 1.400 . S
C1607 C1612 1.490 . S
C1608 H1598 0.930 . S
C1608 C1607 1.400 . S
C1608 C1611 1.386 . S
H1609 C1625 0.930 . S
H1610 C1626 0.931 . S
C1611 H1599 0.929 . S
C1611 C1605 1.390 . S
C1611 C1608 1.386 . S
C1612 C1607 1.490 . S
C1612 C1614 1.395 . S
C1612 C1615 1.403 . S
H1613 C1619 0.930 . S
C1614 H1600 0.930 . S
C1614 C1612 1.395 . S
C1614 C1617 1.403 1_565 S
C1615 C1612 1.403 . S
C1615 C1616 1.524 . S
C1615 C1619 1.400 1_565 S
C1616 H1601 0.960 . S
C1616 H1602 0.960 . S
C1616 H1603 0.960 . S
C1616 C1615 1.524 . S
C1617 C1614 1.403 1_545 S
C1617 C1618 1.392 . S
C1617 C1621 1.495 . S
C1618 C1617 1.392 . S
C1618 C1619 1.385 . S
C1618 C1620 1.478 . S
C1619 H1613 0.930 . S
C1619 C1615 1.400 1_545 S
C1619 C1618 1.385 . S
C1620 C1618 1.478 . S
C1620 C1622 1.381 . S
C1620 C1626 1.383 . S
C1621 C1617 1.495 . S
C1621 H1627 0.959 . S
C1621 H1628 0.961 . S
C1621 H1629 0.960 . S
C1622 C1620 1.381 . S
C1622 C1623 1.394 . S
C1622 H1630 0.930 . S
C1623 C1622 1.394 . S
C1623 C1624 1.383 . S
C1623 H1631 0.929 . S
C1624 C1623 1.383 . S
C1624 C1625 1.377 . S
C1625 H1609 0.930 . S
C1625 C1624 1.377 . S
C1625 C1626 1.379 . S
C1626 H1610 0.931 . S
C1626 C1620 1.383 . S
C1626 C1625 1.379 . S
H1627 C1621 0.959 . S
H1628 C1621 0.961 . S
H1629 C1621 0.960 . S
H1630 C1622 0.930 . S
H1631 C1623 0.929 . S
H1632 C1640 0.929 . S
H1633 C1642 0.930 . S
H1634 C1644 0.930 . S
H1635 C1647 0.929 . S
H1636 C1650 0.930 . S
H1637 C1652 0.960 . S
H1638 C1652 0.960 . S
H1639 C1652 0.960 . S
C1640 H1632 0.929 . S
C1640 C1641 1.377 . S
C1640 C1642 1.384 . S
C1641 C1640 1.377 . S
C1641 C1647 1.390 . S
C1642 H1633 0.930 . S
C1642 C1640 1.384 . S
C1642 C1643 1.372 . S
C1643 C1642 1.372 . S
C1643 C1644 1.400 . S
C1643 C1648 1.490 . S
C1644 H1634 0.930 . S
C1644 C1643 1.400 . S
C1644 C1647 1.386 . S
H1645 C1661 0.930 . S
H1646 C1662 0.931 . S
C1647 H1635 0.929 . S
C1647 C1641 1.390 . S
C1647 C1644 1.386 . S
C1648 C1643 1.490 . S
C1648 C1650 1.395 1_556 S
C1648 C1651 1.403 . S
H1649 C1655 0.930 . S
C1650 H1636 0.930 . S
C1650 C1648 1.395 1_554 S
C1650 C1653 1.403 . S
C1651 C1648 1.403 . S
C1651 C1652 1.524 . S
C1651 C1655 1.400 . S
C1652 H1637 0.960 . S
C1652 H1638 0.960 . S
C1652 H1639 0.960 . S
C1652 C1651 1.524 . S
C1653 C1650 1.403 . S
C1653 C1654 1.392 . S
C1653 C1657 1.495 . S
C1654 C1653 1.392 . S
C1654 C1655 1.385 1_554 S
C1654 C1656 1.478 . S
C1655 H1649 0.930 . S
C1655 C1651 1.400 . S
C1655 C1654 1.385 1_556 S
C1656 C1654 1.478 . S
C1656 C1658 1.381 . S
C1656 C1662 1.383 . S
C1657 C1653 1.495 . S
C1657 H1663 0.959 . S
C1657 H1664 0.961 . S
C1657 H1665 0.960 . S
C1658 C1656 1.381 . S
C1658 C1659 1.394 . S
C1658 H1666 0.930 . S
C1659 C1658 1.394 . S
C1659 C1660 1.383 . S
C1659 H1667 0.929 . S
C1660 C1659 1.383 . S
C1660 C1661 1.377 . S
C1661 H1645 0.930 . S
C1661 C1660 1.377 . S
C1661 C1662 1.379 . S
C1662 H1646 0.931 . S
C1662 C1656 1.383 . S
C1662 C1661 1.379 . S
H1663 C1657 0.959 . S
H1664 C1657 0.961 . S
H1665 C1657 0.960 . S
H1666 C1658 0.930 . S
H1667 C1659 0.929 . S
H1668 C1676 0.929 . S
H1669 C1678 0.930 . S
H1670 C1680 0.930 . S
H1671 C1683 0.929 . S
H1672 C1686 0.930 . S
H1673 C1688 0.960 . S
H1674 C1688 0.960 . S
H1675 C1688 0.960 . S
C1676 H1668 0.929 . S
C1676 C1677 1.377 . S
C1676 C1678 1.384 . S
C1677 C1676 1.377 . S
C1677 C1683 1.390 . S
C1678 H1669 0.930 . S
C1678 C1676 1.384 . S
C1678 C1679 1.372 . S
C1679 C1678 1.372 . S
C1679 C1680 1.400 . S
C1679 C1684 1.490 . S
C1680 H1670 0.930 . S
C1680 C1679 1.400 . S
C1680 C1683 1.386 . S
H1681 C1697 0.930 . S
H1682 C1698 0.931 . S
C1683 H1671 0.929 . S
C1683 C1677 1.390 . S
C1683 C1680 1.386 . S
C1684 C1679 1.490 . S
C1684 C1686 1.395 . S
C1684 C1687 1.403 . S
H1685 C1691 0.930 . S
C1686 H1672 0.930 . S
C1686 C1684 1.395 . S
C1686 C1689 1.403 . S
C1687 C1684 1.403 . S
C1687 C1688 1.524 . S
C1687 C1691 1.400 . S
C1688 H1673 0.960 . S
C1688 H1674 0.960 . S
C1688 H1675 0.960 . S
C1688 C1687 1.524 . S
C1689 C1686 1.403 . S
C1689 C1690 1.392 . S
C1689 C1693 1.495 . S
C1690 C1689 1.392 . S
C1690 C1691 1.385 . S
C1690 C1692 1.478 . S
C1691 H1685 0.930 . S
C1691 C1687 1.400 . S
C1691 C1690 1.385 . S
C1692 C1690 1.478 . S
C1692 C1694 1.381 . S
C1692 C1698 1.383 . S
C1693 C1689 1.495 . S
C1693 H1699 0.959 . S
C1693 H1700 0.961 . S
C1693 H1701 0.960 . S
C1694 C1692 1.381 . S
C1694 C1695 1.394 . S
C1694 H1702 0.930 . S
C1695 C1694 1.394 . S
C1695 C1696 1.383 . S
C1695 H1703 0.929 . S
C1696 C1695 1.383 . S
C1696 C1697 1.377 . S
C1697 H1681 0.930 . S
C1697 C1696 1.377 . S
C1697 C1698 1.379 . S
C1698 H1682 0.931 . S
C1698 C1692 1.383 . S
C1698 C1697 1.379 . S
H1699 C1693 0.959 . S
H1700 C1693 0.961 . S
H1701 C1693 0.960 . S
H1702 C1694 0.930 . S
H1703 C1695 0.929 . S
H1704 C1712 0.929 . S
H1705 C1714 0.930 . S
H1706 C1716 0.930 . S
H1707 C1719 0.929 . S
H1708 C1722 0.930 . S
H1709 C1724 0.960 . S
H1710 C1724 0.960 . S
H1711 C1724 0.960 . S
C1712 H1704 0.929 . S
C1712 C1713 1.377 . S
C1712 C1714 1.384 . S
C1713 C1712 1.377 . S
C1713 C1719 1.390 . S
C1714 H1705 0.930 . S
C1714 C1712 1.384 . S
C1714 C1715 1.372 . S
C1715 C1714 1.372 . S
C1715 C1716 1.400 . S
C1715 C1720 1.490 . S
C1716 H1706 0.930 . S
C1716 C1715 1.400 . S
C1716 C1719 1.386 . S
H1717 C1733 0.930 . S
H1718 C1734 0.931 . S
C1719 H1707 0.929 . S
C1719 C1713 1.390 . S
C1719 C1716 1.386 . S
C1720 C1715 1.490 . S
C1720 C1722 1.395 . S
C1720 C1723 1.403 1_556 S
H1721 C1727 0.930 . S
C1722 H1708 0.930 . S
C1722 C1720 1.395 . S
C1722 C1725 1.403 . S
C1723 C1720 1.403 1_554 S
C1723 C1724 1.524 . S
C1723 C1727 1.400 . S
C1724 H1709 0.960 . S
C1724 H1710 0.960 . S
C1724 H1711 0.960 . S
C1724 C1723 1.524 . S
C1725 C1722 1.403 . S
C1725 C1726 1.392 1_556 S
C1725 C1729 1.495 . S
C1726 C1725 1.392 1_554 S
C1726 C1727 1.385 . S
C1726 C1728 1.478 . S
C1727 H1721 0.930 . S
C1727 C1723 1.400 . S
C1727 C1726 1.385 . S
C1728 C1726 1.478 . S
C1728 C1730 1.381 . S
C1728 C1734 1.383 . S
C1729 C1725 1.495 . S
C1729 H1735 0.959 . S
C1729 H1736 0.961 . S
C1729 H1737 0.960 . S
C1730 C1728 1.381 . S
C1730 C1731 1.394 . S
C1730 H1738 0.930 . S
C1731 C1730 1.394 . S
C1731 C1732 1.383 . S
C1731 H1739 0.929 . S
C1732 C1731 1.383 . S
C1732 C1733 1.377 . S
C1733 H1717 0.930 . S
C1733 C1732 1.377 . S
C1733 C1734 1.379 . S
C1734 H1718 0.931 . S
C1734 C1728 1.383 . S
C1734 C1733 1.379 . S
H1735 C1729 0.959 . S
H1736 C1729 0.961 . S
H1737 C1729 0.960 . S
H1738 C1730 0.930 . S
H1739 C1731 0.929 . S
H1740 C1748 0.929 . S
H1741 C1750 0.930 . S
H1742 C1752 0.930 . S
H1743 C1755 0.929 . S
H1744 C1758 0.930 . S
H1745 C1760 0.960 . S
H1746 C1760 0.960 . S
H1747 C1760 0.960 . S
C1748 H1740 0.929 . S
C1748 C1749 1.377 . S
C1748 C1750 1.384 . S
C1749 C1748 1.377 . S
C1749 C1755 1.390 . S
C1750 H1741 0.930 . S
C1750 C1748 1.384 . S
C1750 C1751 1.372 . S
C1751 C1750 1.372 . S
C1751 C1752 1.400 . S
C1751 C1756 1.490 . S
C1752 H1742 0.930 . S
C1752 C1751 1.400 . S
C1752 C1755 1.386 . S
H1753 C1769 0.930 . S
H1754 C1770 0.931 . S
C1755 H1743 0.929 . S
C1755 C1749 1.390 . S
C1755 C1752 1.386 . S
C1756 C1751 1.490 . S
C1756 C1758 1.395 . S
C1756 C1759 1.403 . S
H1757 C1763 0.930 . S
C1758 H1744 0.930 . S
C1758 C1756 1.395 . S
C1758 C1761 1.403 . S
C1759 C1756 1.403 . S
C1759 C1760 1.524 . S
C1759 C1763 1.400 . S
C1760 H1745 0.960 . S
C1760 H1746 0.960 . S
C1760 H1747 0.960 . S
C1760 C1759 1.524 . S
C1761 C1758 1.403 . S
C1761 C1762 1.392 . S
C1761 C1765 1.495 . S
C1762 C1761 1.392 . S
C1762 C1763 1.385 . S
C1762 C1764 1.478 . S
C1763 H1757 0.930 . S
C1763 C1759 1.400 . S
C1763 C1762 1.385 . S
C1764 C1762 1.478 . S
C1764 C1766 1.381 . S
C1764 C1770 1.383 . S
C1765 C1761 1.495 . S
C1765 H1771 0.959 . S
C1765 H1772 0.961 . S
C1765 H1773 0.960 . S
C1766 C1764 1.381 . S
C1766 C1767 1.394 . S
C1766 H1774 0.930 . S
C1767 C1766 1.394 . S
C1767 C1768 1.383 . S
C1767 H1775 0.929 . S
C1768 C1767 1.383 . S
C1768 C1769 1.377 . S
C1769 H1753 0.930 . S
C1769 C1768 1.377 . S
C1769 C1770 1.379 . S
C1770 H1754 0.931 . S
C1770 C1764 1.383 . S
C1770 C1769 1.379 . S
H1771 C1765 0.959 . S
H1772 C1765 0.961 . S
H1773 C1765 0.960 . S
H1774 C1766 0.930 . S
H1775 C1767 0.929 . S
H1776 C1784 0.929 . S
H1777 C1786 0.930 . S
H1778 C1788 0.930 . S
H1779 C1791 0.929 . S
H1780 C1794 0.930 . S
H1781 C1796 0.960 . S
H1782 C1796 0.960 . S
H1783 C1796 0.960 . S
C1784 H1776 0.929 . S
C1784 C1785 1.377 . S
C1784 C1786 1.384 . S
C1785 C1784 1.377 . S
C1785 C1791 1.390 . S
C1786 H1777 0.930 . S
C1786 C1784 1.384 . S
C1786 C1787 1.372 . S
C1787 C1786 1.372 . S
C1787 C1788 1.400 . S
C1787 C1792 1.490 . S
C1788 H1778 0.930 . S
C1788 C1787 1.400 . S
C1788 C1791 1.386 . S
H1789 C1805 0.930 . S
H1790 C1806 0.931 . S
C1791 H1779 0.929 . S
C1791 C1785 1.390 . S
C1791 C1788 1.386 . S
C1792 C1787 1.490 . S
C1792 C1794 1.395 . S
C1792 C1795 1.403 1_556 S
H1793 C1799 0.930 . S
C1794 H1780 0.930 . S
C1794 C1792 1.395 . S
C1794 C1797 1.403 . S
C1795 C1792 1.403 1_554 S
C1795 C1796 1.524 . S
C1795 C1799 1.400 . S
C1796 H1781 0.960 . S
C1796 H1782 0.960 . S
C1796 H1783 0.960 . S
C1796 C1795 1.524 . S
C1797 C1794 1.403 . S
C1797 C1798 1.392 1_556 S
C1797 C1801 1.495 . S
C1798 C1797 1.392 1_554 S
C1798 C1799 1.385 . S
C1798 C1800 1.478 . S
C1799 H1793 0.930 . S
C1799 C1795 1.400 . S
C1799 C1798 1.385 . S
C1800 C1798 1.478 . S
C1800 C1802 1.381 . S
C1800 C1806 1.383 . S
C1801 C1797 1.495 . S
C1801 H1807 0.959 . S
C1801 H1808 0.961 . S
C1801 H1809 0.960 . S
C1802 C1800 1.381 . S
C1802 C1803 1.394 . S
C1802 H1810 0.940 . S
C1803 C1802 1.394 . S
C1803 C1804 1.383 . S
C1803 H1811 0.929 . S
C1804 C1803 1.383 . S
C1804 C1805 1.377 . S
C1805 H1789 0.930 . S
C1805 C1804 1.377 . S
C1805 C1806 1.379 . S
C1806 H1790 0.931 . S
C1806 C1800 1.383 . S
C1806 C1805 1.379 . S
H1807 C1801 0.959 . S
H1808 C1801 0.961 . S
H1809 C1801 0.960 . S
H1810 C1802 0.940 . S
H1811 C1803 0.929 . S
H1812 C1820 0.929 . S
H1813 C1822 0.930 . S
H1814 C1824 0.930 . S
H1815 C1827 0.929 . S
H1816 C1830 0.930 . S
H1817 C1832 0.960 . S
H1818 C1832 0.960 . S
H1819 C1832 0.960 . S
C1820 H1812 0.929 . S
C1820 C1821 1.377 . S
C1820 C1822 1.384 . S
C1821 C1820 1.377 . S
C1821 C1827 1.390 . S
C1822 H1813 0.930 . S
C1822 C1820 1.384 . S
C1822 C1823 1.372 . S
C1823 C1822 1.372 . S
C1823 C1824 1.400 . S
C1823 C1828 1.490 . S
C1824 H1814 0.930 . S
C1824 C1823 1.400 . S
C1824 C1827 1.386 . S
H1825 C1841 0.930 . S
H1826 C1842 0.931 . S
C1827 H1815 0.929 . S
C1827 C1821 1.390 . S
C1827 C1824 1.386 . S
C1828 C1823 1.490 . S
C1828 C1830 1.395 . S
C1828 C1831 1.403 . S
H1829 C1835 0.930 . S
C1830 H1816 0.930 . S
C1830 C1828 1.395 . S
C1830 C1833 1.403 . S
C1831 C1828 1.403 . S
C1831 C1832 1.524 . S
C1831 C1835 1.400 . S
C1832 H1817 0.960 . S
C1832 H1818 0.960 . S
C1832 H1819 0.960 . S
C1832 C1831 1.524 . S
C1833 C1830 1.403 . S
C1833 C1834 1.392 . S
C1833 C1837 1.495 . S
C1834 C1833 1.392 . S
C1834 C1835 1.385 . S
C1834 C1836 1.478 . S
C1835 H1829 0.930 . S
C1835 C1831 1.400 . S
C1835 C1834 1.385 . S
C1836 C1834 1.478 . S
C1836 C1838 1.381 . S
C1836 C1842 1.383 . S
C1837 C1833 1.495 . S
C1837 H1843 0.959 . S
C1837 H1844 0.961 . S
C1837 H1845 0.960 . S
C1838 C1836 1.381 . S
C1838 C1839 1.394 . S
C1838 H1846 0.930 . S
C1839 C1838 1.394 . S
C1839 C1840 1.383 . S
C1839 H1847 0.929 . S
C1840 C1839 1.383 . S
C1840 C1841 1.377 . S
C1841 H1825 0.930 . S
C1841 C1840 1.377 . S
C1841 C1842 1.379 . S
C1842 H1826 0.931 . S
C1842 C1836 1.383 . S
C1842 C1841 1.379 . S
H1843 C1837 0.959 . S
H1844 C1837 0.961 . S
H1845 C1837 0.960 . S
H1846 C1838 0.930 . S
H1847 C1839 0.929 . S
H1848 C1856 0.929 . S
H1849 C1858 0.930 . S
H1850 C1860 0.930 1_556 S
H1851 C1863 0.929 . S
H1852 C1866 0.930 . S
H1853 C1868 0.960 . S
H1854 C1868 0.960 . S
H1855 C1868 0.960 . S
C1856 H1848 0.929 . S
C1856 C1857 1.377 . S
C1856 C1858 1.384 . S
C1857 C1856 1.377 . S
C1857 C1863 1.390 . S
C1858 H1849 0.930 . S
C1858 C1856 1.384 . S
C1858 C1859 1.372 . S
C1859 C1858 1.372 . S
C1859 C1860 1.400 . S
C1859 C1864 1.490 . S
C1860 H1850 0.930 1_554 S
C1860 C1859 1.400 . S
C1860 C1863 1.386 . S
H1861 C1877 0.930 . S
H1862 C1878 0.931 . S
C1863 H1851 0.929 . S
C1863 C1857 1.390 . S
C1863 C1860 1.386 . S
C1864 C1859 1.490 . S
C1864 C1866 1.395 . S
C1864 C1867 1.403 . S
H1865 C1871 0.930 . S
C1866 H1852 0.930 . S
C1866 C1864 1.395 . S
C1866 C1869 1.403 1_554 S
C1867 C1864 1.403 . S
C1867 C1868 1.524 . S
C1867 C1871 1.400 1_554 S
C1868 H1853 0.960 . S
C1868 H1854 0.960 . S
C1868 H1855 0.960 . S
C1868 C1867 1.524 . S
C1869 C1866 1.403 1_556 S
C1869 C1870 1.392 . S
C1869 C1873 1.495 . S
C1870 C1869 1.392 . S
C1870 C1871 1.385 . S
C1870 C1872 1.478 . S
C1871 H1865 0.930 . S
C1871 C1867 1.400 1_556 S
C1871 C1870 1.385 . S
C1872 C1870 1.478 . S
C1872 C1874 1.381 . S
C1872 C1878 1.383 . S
C1873 C1869 1.495 . S
C1873 H1879 0.959 . S
C1873 H1880 0.961 . S
C1873 H1881 0.960 . S
C1874 C1872 1.381 . S
C1874 C1875 1.394 . S
C1874 H1882 0.930 1_556 S
C1875 C1874 1.394 . S
C1875 C1876 1.383 . S
C1875 H1883 0.929 . S
C1876 C1875 1.383 . S
C1876 C1877 1.377 . S
C1877 H1861 0.930 . S
C1877 C1876 1.377 . S
C1877 C1878 1.379 . S
C1878 H1862 0.931 . S
C1878 C1872 1.383 . S
C1878 C1877 1.379 . S
H1879 C1873 0.959 . S
H1880 C1873 0.961 . S
H1881 C1873 0.960 . S
H1882 C1874 0.930 1_554 S
H1883 C1875 0.929 . S
H1884 C1892 0.929 . S
H1885 C1894 0.930 . S
H1886 C1896 0.930 . S
H1887 C1899 0.929 . S
H1888 C1902 0.930 . S
H1889 C1904 0.960 . S
H1890 C1904 0.960 . S
H1891 C1904 0.960 . S
C1892 H1884 0.929 . S
C1892 C1893 1.377 . S
C1892 C1894 1.384 . S
C1893 C1892 1.377 . S
C1893 C1899 1.390 . S
C1894 H1885 0.930 . S
C1894 C1892 1.384 . S
C1894 C1895 1.372 . S
C1895 C1894 1.372 . S
C1895 C1896 1.400 . S
C1895 C1900 1.490 . S
C1896 H1886 0.930 . S
C1896 C1895 1.400 . S
C1896 C1899 1.386 . S
H1897 C1913 0.930 . S
H1898 C1914 0.931 . S
C1899 H1887 0.929 . S
C1899 C1893 1.390 . S
C1899 C1896 1.386 . S
C1900 C1895 1.490 . S
C1900 C1902 1.395 . S
C1900 C1903 1.403 . S
H1901 C1907 0.930 . S
C1902 H1888 0.930 . S
C1902 C1900 1.395 . S
C1902 C1905 1.403 . S
C1903 C1900 1.403 . S
C1903 C1904 1.524 . S
C1903 C1907 1.400 . S
C1904 H1889 0.960 . S
C1904 H1890 0.960 . S
C1904 H1891 0.960 . S
C1904 C1903 1.524 . S
C1905 C1902 1.403 . S
C1905 C1906 1.392 . S
C1905 C1909 1.495 . S
C1906 C1905 1.392 . S
C1906 C1907 1.385 . S
C1906 C1908 1.478 . S
C1907 H1901 0.930 . S
C1907 C1903 1.400 . S
C1907 C1906 1.385 . S
C1908 C1906 1.478 . S
C1908 C1910 1.381 . S
C1908 C1914 1.383 . S
C1909 C1905 1.495 . S
C1909 H1915 0.959 . S
C1909 H1916 0.961 . S
C1909 H1917 0.960 . S
C1910 C1908 1.381 . S
C1910 C1911 1.394 . S
C1910 H1918 0.930 . S
C1911 C1910 1.394 . S
C1911 C1912 1.383 . S
C1911 H1919 0.929 . S
C1912 C1911 1.383 . S
C1912 C1913 1.377 . S
C1913 H1897 0.930 . S
C1913 C1912 1.377 . S
C1913 C1914 1.379 . S
C1914 H1898 0.931 . S
C1914 C1908 1.383 . S
C1914 C1913 1.379 . S
H1915 C1909 0.959 . S
H1916 C1909 0.961 . S
H1917 C1909 0.960 . S
H1918 C1910 0.930 . S
H1919 C1911 0.929 . S
H1920 C1928 0.929 . S
H1921 C1930 0.930 . S
H1922 C1932 0.930 1_556 S
H1923 C1935 0.929 . S
H1924 C1938 0.930 . S
H1925 C1940 0.960 . S
H1926 C1940 0.960 . S
H1927 C1940 0.960 . S
C1928 H1920 0.929 . S
C1928 C1929 1.377 . S
C1928 C1930 1.384 . S
C1929 C1928 1.377 . S
C1929 C1935 1.390 . S
C1930 H1921 0.930 . S
C1930 C1928 1.384 . S
C1930 C1931 1.372 . S
C1931 C1930 1.372 . S
C1931 C1932 1.400 . S
C1931 C1936 1.490 . S
C1932 H1922 0.930 1_554 S
C1932 C1931 1.400 . S
C1932 C1935 1.386 . S
H1933 C1949 0.930 . S
H1934 C1950 0.931 . S
C1935 H1923 0.929 . S
C1935 C1929 1.390 . S
C1935 C1932 1.386 . S
C1936 C1931 1.490 . S
C1936 C1938 1.395 . S
C1936 C1939 1.403 1_554 S
H1937 C1943 0.930 . S
C1938 H1924 0.930 . S
C1938 C1936 1.395 . S
C1938 C1941 1.403 . S
C1939 C1936 1.403 1_556 S
C1939 C1940 1.524 . S
C1939 C1943 1.400 . S
C1940 H1925 0.960 . S
C1940 H1926 0.960 . S
C1940 H1927 0.960 . S
C1940 C1939 1.524 . S
C1941 C1938 1.403 . S
C1941 C1942 1.392 1_554 S
C1941 C1945 1.495 . S
C1942 C1941 1.392 1_556 S
C1942 C1943 1.385 . S
C1942 C1944 1.478 . S
C1943 H1937 0.930 . S
C1943 C1939 1.400 . S
C1943 C1942 1.385 . S
C1944 C1942 1.478 . S
C1944 C1946 1.381 . S
C1944 C1950 1.383 . S
C1945 C1941 1.495 . S
C1945 H1951 0.959 . S
C1945 H1952 0.961 . S
C1945 H1953 0.960 . S
C1946 C1944 1.381 . S
C1946 C1947 1.394 . S
C1946 H1954 0.930 1_556 S
C1947 C1946 1.394 . S
C1947 C1948 1.383 . S
C1947 H1955 0.929 . S
C1948 C1947 1.383 . S
C1948 C1949 1.377 . S
C1949 H1933 0.930 . S
C1949 C1948 1.377 . S
C1949 C1950 1.379 . S
C1950 H1934 0.931 . S
C1950 C1944 1.383 . S
C1950 C1949 1.379 . S
H1951 C1945 0.959 . S
H1952 C1945 0.961 . S
H1953 C1945 0.960 . S
H1954 C1946 0.930 1_554 S
H1955 C1947 0.929 . S
H1956 C1964 0.929 . S
H1957 C1966 0.930 . S
H1958 C1968 0.930 . S
H1959 C1971 0.929 . S
H1960 C1974 0.930 . S
H1961 C1976 0.960 . S
H1962 C1976 0.960 . S
H1963 C1976 0.960 . S
C1964 H1956 0.929 . S
C1964 C1965 1.377 . S
C1964 C1966 1.384 . S
C1965 C1964 1.377 . S
C1965 C1971 1.390 . S
C1966 H1957 0.930 . S
C1966 C1964 1.384 . S
C1966 C1967 1.372 . S
C1967 C1966 1.372 . S
C1967 C1968 1.400 . S
C1967 C1972 1.490 . S
C1968 H1958 0.930 . S
C1968 C1967 1.400 . S
C1968 C1971 1.386 . S
H1969 C1985 0.930 . S
H1970 C1986 0.931 . S
C1971 H1959 0.929 . S
C1971 C1965 1.390 . S
C1971 C1968 1.386 . S
C1972 C1967 1.490 . S
C1972 C1974 1.395 . S
C1972 C1975 1.403 . S
H1973 C1979 0.930 . S
C1974 H1960 0.930 . S
C1974 C1972 1.395 . S
C1974 C1977 1.403 . S
C1975 C1972 1.403 . S
C1975 C1976 1.524 . S
C1975 C1979 1.400 . S
C1976 H1961 0.960 . S
C1976 H1962 0.960 . S
C1976 H1963 0.960 . S
C1976 C1975 1.524 . S
C1977 C1974 1.403 . S
C1977 C1978 1.392 . S
C1977 C1981 1.495 . S
C1978 C1977 1.392 . S
C1978 C1979 1.385 . S
C1978 C1980 1.478 . S
C1979 H1973 0.930 . S
C1979 C1975 1.400 . S
C1979 C1978 1.385 . S
C1980 C1978 1.478 . S
C1980 C1982 1.381 . S
C1980 C1986 1.383 . S
C1981 C1977 1.495 . S
C1981 H1987 0.959 . S
C1981 H1988 0.961 . S
C1981 H1989 0.960 . S
C1982 C1980 1.381 . S
C1982 C1983 1.394 . S
C1982 H1990 0.930 . S
C1983 C1982 1.394 . S
C1983 C1984 1.383 . S
C1983 H1991 0.929 . S
C1984 C1983 1.383 . S
C1984 C1985 1.377 . S
C1985 H1969 0.930 . S
C1985 C1984 1.377 . S
C1985 C1986 1.379 . S
C1986 H1970 0.931 . S
C1986 C1980 1.383 . S
C1986 C1985 1.379 . S
H1987 C1981 0.959 . S
H1988 C1981 0.961 . S
H1989 C1981 0.960 . S
H1990 C1982 0.930 . S
H1991 C1983 0.929 . S
H1992 C2000 0.929 . S
H1993 C2002 0.930 . S
H1994 C2004 0.930 1_554 S
H1995 C2007 0.929 . S
H1996 C2010 0.930 . S
H1997 C2012 0.960 . S
H1998 C2012 0.960 1_556 S
H1999 C2012 0.960 . S
C2000 H1992 0.929 . S
C2000 C2001 1.377 . S
C2000 C2002 1.384 . S
C2001 C2000 1.377 . S
C2001 C2007 1.390 . S
C2002 H1993 0.930 . S
C2002 C2000 1.384 . S
C2002 C2003 1.372 . S
C2003 C2002 1.372 . S
C2003 C2004 1.400 . S
C2003 C2008 1.490 . S
C2004 H1994 0.930 1_556 S
C2004 C2003 1.400 . S
C2004 C2007 1.386 . S
H2005 C2021 0.930 . S
H2006 C2022 0.931 . S
C2007 H1995 0.929 . S
C2007 C2001 1.390 . S
C2007 C2004 1.386 . S
C2008 C2003 1.490 . S
C2008 C2010 1.395 . S
C2008 C2011 1.403 1_556 S
H2009 C2015 0.930 . S
C2010 H1996 0.930 . S
C2010 C2008 1.395 . S
C2010 C2013 1.403 . S
C2011 C2008 1.403 1_554 S
C2011 C2012 1.524 . S
C2011 C2015 1.400 . S
C2012 H1997 0.960 . S
C2012 H1998 0.960 1_554 S
C2012 H1999 0.960 . S
C2012 C2011 1.524 . S
C2013 C2010 1.403 . S
C2013 C2014 1.392 1_556 S
C2013 C2017 1.495 . S
C2014 C2013 1.392 1_554 S
C2014 C2015 1.385 . S
C2014 C2016 1.478 . S
C2015 H2009 0.930 . S
C2015 C2011 1.400 . S
C2015 C2014 1.385 . S
C2016 C2014 1.478 . S
C2016 C2018 1.381 . S
C2016 C2022 1.383 . S
C2017 C2013 1.495 . S
C2017 H2023 0.959 . S
C2017 H2024 0.961 . S
C2017 H2025 0.960 . S
C2018 C2016 1.381 . S
C2018 C2019 1.394 . S
C2018 H2026 0.930 1_554 S
C2019 C2018 1.394 . S
C2019 C2020 1.383 . S
C2019 H2027 0.929 . S
C2020 C2019 1.383 . S
C2020 C2021 1.377 . S
C2021 H2005 0.930 . S
C2021 C2020 1.377 . S
C2021 C2022 1.379 . S
C2022 H2006 0.931 . S
C2022 C2016 1.383 . S
C2022 C2021 1.379 . S
H2023 C2017 0.959 . S
H2024 C2017 0.961 . S
H2025 C2017 0.960 . S
H2026 C2018 0.930 1_556 S
H2027 C2019 0.929 . S
H2028 C2036 0.929 . S
H2029 C2038 0.930 . S
H2030 C2040 0.930 . S
H2031 C2043 0.929 . S
H2032 C2046 0.930 . S
H2033 C2048 0.960 . S
H2034 C2048 0.960 . S
H2035 C2048 0.960 . S
C2036 H2028 0.929 . S
C2036 C2037 1.377 . S
C2036 C2038 1.384 . S
C2037 C2036 1.377 . S
C2037 C2043 1.390 . S
C2038 H2029 0.930 . S
C2038 C2036 1.384 . S
C2038 C2039 1.372 . S
C2039 C2038 1.372 . S
C2039 C2040 1.400 . S
C2039 C2044 1.490 . S
C2040 H2030 0.930 . S
C2040 C2039 1.400 . S
C2040 C2043 1.386 . S
H2041 C2057 0.930 . S
H2042 C2058 0.931 . S
C2043 H2031 0.929 . S
C2043 C2037 1.390 . S
C2043 C2040 1.386 . S
C2044 C2039 1.490 . S
C2044 C2046 1.395 . S
C2044 C2047 1.403 . S
H2045 C2051 0.930 . S
C2046 H2032 0.930 . S
C2046 C2044 1.395 . S
C2046 C2049 1.403 . S
C2047 C2044 1.403 . S
C2047 C2048 1.524 . S
C2047 C2051 1.400 . S
C2048 H2033 0.960 . S
C2048 H2034 0.960 . S
C2048 H2035 0.960 . S
C2048 C2047 1.524 . S
C2049 C2046 1.403 . S
C2049 C2050 1.392 . S
C2049 C2053 1.495 . S
C2050 C2049 1.392 . S
C2050 C2051 1.385 . S
C2050 C2052 1.478 . S
C2051 H2045 0.930 . S
C2051 C2047 1.400 . S
C2051 C2050 1.385 . S
C2052 C2050 1.478 . S
C2052 C2054 1.381 . S
C2052 C2058 1.383 . S
C2053 C2049 1.495 . S
C2053 H2059 0.959 . S
C2053 H2060 0.961 . S
C2053 H2061 0.960 . S
C2054 C2052 1.381 . S
C2054 C2055 1.394 . S
C2054 H2062 0.930 . S
C2055 C2054 1.394 . S
C2055 C2056 1.383 . S
C2055 H2063 0.929 . S
C2056 C2055 1.383 . S
C2056 C2057 1.377 . S
C2057 H2041 0.930 . S
C2057 C2056 1.377 . S
C2057 C2058 1.379 . S
C2058 H2042 0.931 . S
C2058 C2052 1.383 . S
C2058 C2057 1.379 . S
H2059 C2053 0.959 . S
H2060 C2053 0.961 . S
H2061 C2053 0.960 . S
H2062 C2054 0.930 . S
H2063 C2055 0.929 . S
C345 C3 1.481 . S
C364 C213 1.476 . S
C381 C17 1.480 . S
C400 C227 1.482 . S
C417 C241 1.480 . S
C436 C31 1.482 . S
C453 C171 1.481 . S
C472 C45 1.476 . S
C489 C185 1.481 . S
C508 C59 1.475 . S
C525 C199 1.480 . S
C544 C73 1.479 . S
C561 C297 1.481 . S
C580 C87 1.476 . S
C597 C101 1.483 . S
C616 C311 1.475 . S
C633 C325 1.480 . S
C652 C115 1.478 . S
C669 C129 1.481 . S
C688 C255 1.477 . S
C705 C269 1.481 . S
C724 C143 1.475 . S
C741 C157 1.480 . S
C760 C283 1.482 . S
C777 C148 1.338 . S
C796 C8 1.337 . S
C813 C162 1.337 . S
C832 C22 1.334 . S
C849 C36 1.335 . S
C868 C92 1.330 . S
C885 C50 1.336 . S
C904 C106 1.330 . S
C921 C120 1.336 . S
C940 C64 1.329 . S
C957 C78 1.337 . S
C976 C134 1.338 . S
C993 C316 1.336 . S
C1012 C176 1.329 . S
C1029 C190 1.336 . S
C1048 C330 1.329 . S
C1065 C204 1.337 . S
C1084 C260 1.338 . S
C1101 C274 1.336 . S
C1120 C218 1.329 . S
C1137 C232 1.336 . S
C1156 C288 1.336 . S
C1173 C246 1.337 . S
C1192 C302 1.337 . S
C1209 C9 1.374 . S
C1228 C261 1.395 . S
C1245 C275 1.378 . S
C1264 C23 1.352 . S
C1281 C37 1.381 . S
C1300 C289 1.365 . S
C1317 C51 1.372 . S
C1336 C303 1.379 . S
C1353 C317 1.381 . S
C1372 C65 1.360 . S
C1389 C79 1.372 . S
C1408 C331 1.386 . S
C1425 C93 1.381 . S
C1444 C177 1.357 . S
C1461 C107 1.377 . S
C1480 C191 1.391 . S
C1497 C205 1.378 . S
C1516 C121 1.352 . S
C1533 C219 1.380 . S
C1552 C135 1.353 . S
C1569 C149 1.381 . S
C1588 C233 1.357 . S
C1605 C247 1.381 . S
C1624 C163 1.360 . S
C1641 C91 1.439 . S
C1660 C7 1.421 . S
C1677 C21 1.441 . S
C1696 C105 1.422 . S
C1713 C119 1.449 . S
C1732 C35 1.467 . S
C1749 C133 1.446 . S
C1768 C49 1.458 . S
C1785 C147 1.448 . S
C1804 C63 1.456 . S
C1821 C77 1.440 . S
C1840 C161 1.425 . S
C1857 C259 1.439 . S
C1876 C175 1.453 . S
C1893 C189 1.439 . S
C1912 C273 1.462 . S
C1929 C287 1.440 . S
C1948 C203 1.467 . S
C1965 C301 1.439 . S
C1984 C217 1.452 . S
C2001 C231 1.439 . S
C2020 C315 1.466 . S
C2037 C245 1.447 . S
C2056 C329 1.446 . S
