# Generated by pormake.
# Topology rhr, (4)-cn, num edge types: 1
# Building blocks:
#     Node 0, Type 0, BuildingBlock: MUDLON_clean_sbu_0, # of connection points: 4
#     Node 1, Type 0, BuildingBlock: MUDLON_clean_sbu_0, # of connection points: 4
#     Node 2, Type 0, BuildingBlock: MUDLON_clean_sbu_0, # of connection points: 4
#     Node 3, Type 0, BuildingBlock: MUDLON_clean_sbu_0, # of connection points: 4
#     Node 4, Type 0, BuildingBlock: MUDLON_clean_sbu_0, # of connection points: 4
#     Node 5, Type 0, BuildingBlock: MUDLON_clean_sbu_0, # of connection points: 4
#     Node 6, Type 0, BuildingBlock: MUDLON_clean_sbu_0, # of connection points: 4
#     Node 7, Type 0, BuildingBlock: MUDLON_clean_sbu_0, # of connection points: 4
#     Node 8, Type 0, BuildingBlock: MUDLON_clean_sbu_0, # of connection points: 4
#     Node 9, Type 0, BuildingBlock: MUDLON_clean_sbu_0, # of connection points: 4
#     Node 10, Type 0, BuildingBlock: MUDLON_clean_sbu_0, # of connection points: 4
#     Node 11, Type 0, BuildingBlock: MUDLON_clean_sbu_0, # of connection points: 4
#     Node 12, Type 0, BuildingBlock: MUDLON_clean_sbu_0, # of connection points: 4
#     Node 13, Type 0, BuildingBlock: MUDLON_clean_sbu_0, # of connection points: 4
#     Node 14, Type 0, BuildingBlock: MUDLON_clean_sbu_0, # of connection points: 4
#     Node 15, Type 0, BuildingBlock: MUDLON_clean_sbu_0, # of connection points: 4
#     Node 16, Type 0, BuildingBlock: MUDLON_clean_sbu_0, # of connection points: 4
#     Node 17, Type 0, BuildingBlock: MUDLON_clean_sbu_0, # of connection points: 4
#     Node 18, Type 0, BuildingBlock: MUDLON_clean_sbu_0, # of connection points: 4
#     Node 19, Type 0, BuildingBlock: MUDLON_clean_sbu_0, # of connection points: 4
#     Node 20, Type 0, BuildingBlock: MUDLON_clean_sbu_0, # of connection points: 4
#     Node 21, Type 0, BuildingBlock: MUDLON_clean_sbu_0, # of connection points: 4
#     Node 22, Type 0, BuildingBlock: MUDLON_clean_sbu_0, # of connection points: 4
#     Node 23, Type 0, BuildingBlock: MUDLON_clean_sbu_0, # of connection points: 4
#     Edge 24, Type (0, 0), BuildingBlock: XIVTED_clean_linker_0, # of connection points: 2
#     Edge 25, Type (0, 0), BuildingBlock: XIVTED_clean_linker_0, # of connection points: 2
#     Edge 26, Type (0, 0), BuildingBlock: XIVTED_clean_linker_0, # of connection points: 2
#     Edge 27, Type (0, 0), BuildingBlock: XIVTED_clean_linker_0, # of connection points: 2
#     Edge 28, Type (0, 0), BuildingBlock: XIVTED_clean_linker_0, # of connection points: 2
#     Edge 29, Type (0, 0), BuildingBlock: XIVTED_clean_linker_0, # of connection points: 2
#     Edge 30, Type (0, 0), BuildingBlock: XIVTED_clean_linker_0, # of connection points: 2
#     Edge 31, Type (0, 0), BuildingBlock: XIVTED_clean_linker_0, # of connection points: 2
#     Edge 32, Type (0, 0), BuildingBlock: XIVTED_clean_linker_0, # of connection points: 2
#     Edge 33, Type (0, 0), BuildingBlock: XIVTED_clean_linker_0, # of connection points: 2
#     Edge 34, Type (0, 0), BuildingBlock: XIVTED_clean_linker_0, # of connection points: 2
#     Edge 35, Type (0, 0), BuildingBlock: XIVTED_clean_linker_0, # of connection points: 2
#     Edge 36, Type (0, 0), BuildingBlock: XIVTED_clean_linker_0, # of connection points: 2
#     Edge 37, Type (0, 0), BuildingBlock: XIVTED_clean_linker_0, # of connection points: 2
#     Edge 38, Type (0, 0), BuildingBlock: XIVTED_clean_linker_0, # of connection points: 2
#     Edge 39, Type (0, 0), BuildingBlock: XIVTED_clean_linker_0, # of connection points: 2
#     Edge 40, Type (0, 0), BuildingBlock: XIVTED_clean_linker_0, # of connection points: 2
#     Edge 41, Type (0, 0), BuildingBlock: XIVTED_clean_linker_0, # of connection points: 2
#     Edge 42, Type (0, 0), BuildingBlock: XIVTED_clean_linker_0, # of connection points: 2
#     Edge 43, Type (0, 0), BuildingBlock: XIVTED_clean_linker_0, # of connection points: 2
#     Edge 44, Type (0, 0), BuildingBlock: XIVTED_clean_linker_0, # of connection points: 2
#     Edge 45, Type (0, 0), BuildingBlock: XIVTED_clean_linker_0, # of connection points: 2
#     Edge 46, Type (0, 0), BuildingBlock: XIVTED_clean_linker_0, # of connection points: 2
#     Edge 47, Type (0, 0), BuildingBlock: XIVTED_clean_linker_0, # of connection points: 2
#     Edge 48, Type (0, 0), BuildingBlock: XIVTED_clean_linker_0, # of connection points: 2
#     Edge 49, Type (0, 0), BuildingBlock: XIVTED_clean_linker_0, # of connection points: 2
#     Edge 50, Type (0, 0), BuildingBlock: XIVTED_clean_linker_0, # of connection points: 2
#     Edge 51, Type (0, 0), BuildingBlock: XIVTED_clean_linker_0, # of connection points: 2
#     Edge 52, Type (0, 0), BuildingBlock: XIVTED_clean_linker_0, # of connection points: 2
#     Edge 53, Type (0, 0), BuildingBlock: XIVTED_clean_linker_0, # of connection points: 2
#     Edge 54, Type (0, 0), BuildingBlock: XIVTED_clean_linker_0, # of connection points: 2
#     Edge 55, Type (0, 0), BuildingBlock: XIVTED_clean_linker_0, # of connection points: 2
#     Edge 56, Type (0, 0), BuildingBlock: XIVTED_clean_linker_0, # of connection points: 2
#     Edge 57, Type (0, 0), BuildingBlock: XIVTED_clean_linker_0, # of connection points: 2
#     Edge 58, Type (0, 0), BuildingBlock: XIVTED_clean_linker_0, # of connection points: 2
#     Edge 59, Type (0, 0), BuildingBlock: XIVTED_clean_linker_0, # of connection points: 2
#     Edge 60, Type (0, 0), BuildingBlock: XIVTED_clean_linker_0, # of connection points: 2
#     Edge 61, Type (0, 0), BuildingBlock: XIVTED_clean_linker_0, # of connection points: 2
#     Edge 62, Type (0, 0), BuildingBlock: XIVTED_clean_linker_0, # of connection points: 2
#     Edge 63, Type (0, 0), BuildingBlock: XIVTED_clean_linker_0, # of connection points: 2
#     Edge 64, Type (0, 0), BuildingBlock: XIVTED_clean_linker_0, # of connection points: 2
#     Edge 65, Type (0, 0), BuildingBlock: XIVTED_clean_linker_0, # of connection points: 2
#     Edge 66, Type (0, 0), BuildingBlock: XIVTED_clean_linker_0, # of connection points: 2
#     Edge 67, Type (0, 0), BuildingBlock: XIVTED_clean_linker_0, # of connection points: 2
#     Edge 68, Type (0, 0), BuildingBlock: XIVTED_clean_linker_0, # of connection points: 2
#     Edge 69, Type (0, 0), BuildingBlock: XIVTED_clean_linker_0, # of connection points: 2
#     Edge 70, Type (0, 0), BuildingBlock: XIVTED_clean_linker_0, # of connection points: 2
#     Edge 71, Type (0, 0), BuildingBlock: XIVTED_clean_linker_0, # of connection points: 2
# Relax obj value: 0.018
# Max RMSD: 0.032
# Mean RMSD: 0.030
data_MOF--net-rhr--node1-MUDLON_clean_sbu_0--edge1-XIVTED_clean_linker_0
_symmetry_space_group_name_H-M    P1
_symmetry_Int_Tables_number       1
_symmetry_cell_setting            triclinic
loop_
_symmetry_equiv_pos_as_xyz
'x, y, z'
_cell_length_a     52.582869
_cell_length_b     52.437129
_cell_length_c     52.502846
_cell_angle_alpha  90.349735
_cell_angle_beta   89.636779
_cell_angle_gamma 89.873797
loop_
_atom_site_label
_atom_site_type_symbol
_atom_site_fract_x
_atom_site_fract_y
_atom_site_fract_z
_atom_type_partial_charge
Mg0 Mg 0.35252 0.03127 0.34031 0.0
C1 C 0.37471 0.98046 0.32832 0.0
O2 O 0.35144 0.97912 0.31947 0.0
C3 C 0.34029 0.07906 0.3691 0.0
O4 O 0.33318 0.08438 0.34578 0.0
C5 C 0.37794 0.07075 0.30973 0.0
O6 O 0.38808 0.07356 0.33238 0.0
O7 O 0.36106 0.05372 0.30652 0.0
O8 O 0.38142 1.00077 0.33993 0.0
O9 O 0.31569 0.01201 0.33977 0.0
C10 C 0.29669 0.01977 0.35284 0.0
O11 O 0.29805 0.04181 0.36471 0.0
O12 O 0.35075 0.0575 0.37321 0.0
Mg13 Mg 0.03825 0.33894 0.34177 0.0
C14 C 0.99142 0.34173 0.30787 0.0
O15 O 0.98158 0.32818 0.32643 0.0
C16 C 0.04758 0.28204 0.34881 0.0
O17 O 0.02288 0.28207 0.35277 0.0
C18 C 0.08886 0.36408 0.33298 0.0
O19 O 0.09437 0.3402 0.3276 0.0
O20 O 0.0667 0.36939 0.34148 0.0
O21 O 0.01493 0.34727 0.30854 0.0
O22 O 0.01282 0.33739 0.37497 0.0
C23 C 0.01826 0.32446 0.3947 0.0
O24 O 0.04122 0.31482 0.39682 0.0
O25 O 0.05825 0.30246 0.34134 0.0
Mg26 Mg 0.68935 0.06339 0.35743 0.0
C27 C 0.66863 0.10478 0.31837 0.0
O28 O 0.69198 0.10333 0.30943 0.0
C29 C 0.73859 0.03825 0.38424 0.0
O30 O 0.75037 0.05895 0.37667 0.0
C31 C 0.66946 0.02958 0.31058 0.0
O32 O 0.6759 0.04958 0.29711 0.0
O33 O 0.67302 0.02978 0.33455 0.0
O34 O 0.66224 0.09097 0.33719 0.0
O35 O 0.70458 0.09676 0.3811 0.0
C36 C 0.72068 0.1122 0.37176 0.0
O37 O 0.72908 0.10836 0.34843 0.0
O38 O 0.71515 0.0353 0.379 0.0
Mg39 Mg 0.97863 0.66521 0.36257 0.0
C40 C 0.01842 0.71023 0.3633 0.0
O41 O 1.00456 0.71759 0.34394 0.0
C42 C 0.93127 0.64415 0.33229 0.0
O43 O 0.9349 0.66519 0.31932 0.0
C44 C 0.94008 0.70677 0.37896 0.0
O45 O 0.94284 0.71072 0.35441 0.0
O46 O 0.95243 0.68859 0.38905 0.0
O47 O 0.01255 0.68978 0.3748 0.0
O48 O 1.00428 0.64279 0.33486 0.0
C49 C 0.00817 0.65193 0.31279 0.0
O50 O 0.99774 0.67391 0.30697 0.0
O51 O 0.94551 0.63945 0.35118 0.0
Mg52 Mg 0.35641 0.99476 0.65432 0.0
C53 C 0.36766 0.04254 0.69207 0.0
O54 O 0.34282 0.04522 0.69256 0.0
C55 C 0.32516 0.94576 0.63617 0.0
O56 O 0.32276 0.94232 0.66082 0.0
C57 C 0.37465 0.95397 0.69164 0.0
O58 O 0.35362 0.96241 0.70244 0.0
O59 O 0.38181 0.96371 0.67069 0.0
O60 O 0.37751 0.02453 0.67891 0.0
O61 O 0.32974 0.0256 0.63892 0.0
C62 C 0.3062 0.02078 0.63608 0.0
O63 O 0.29747 0.99821 0.64232 0.0
O64 O 0.33747 0.965 0.62813 0.0
Mg65 Mg 0.03017 0.37622 0.67721 0.0
C66 C 0.98413 0.39239 0.64729 0.0
O67 O 0.97709 0.4012 0.66972 0.0
C68 C 0.07528 0.4132 0.68439 0.0
O69 O 0.08286 0.40378 0.66237 0.0
C70 C 0.07652 0.33998 0.66935 0.0
O71 O 0.08737 0.35431 0.68675 0.0
O72 O 0.05327 0.34387 0.66387 0.0
O73 O 0.00711 0.38527 0.64412 0.0
O74 O 1.00062 0.36832 0.70529 0.0
C75 C 1.00194 0.37778 0.7276 0.0
O76 O 0.02375 0.38708 0.73536 0.0
O77 O 0.05392 0.40631 0.69348 0.0
Mg78 Mg 0.69002 0.04576 0.71521 0.0
C79 C 0.65675 1.00039 0.72254 0.0
O80 O 0.67977 0.99079 0.72366 0.0
C81 C 0.71824 0.08676 0.69034 0.0
O82 O 0.73024 0.08209 0.71169 0.0
C83 C 0.67785 0.05358 0.77068 0.0
O84 O 0.67441 0.02886 0.7688 0.0
O85 O 0.6885 0.06514 0.75221 0.0
O86 O 0.65418 0.02388 0.71684 0.0
O87 O 0.7199 0.01826 0.70559 0.0
C88 C 0.71503 0.00825 0.68398 0.0
O89 O 0.69428 0.01547 0.67216 0.0
O90 O 0.69757 0.07479 0.68605 0.0
Mg91 Mg 0.03552 0.70874 0.68563 0.0
C92 C 0.08744 0.69285 0.71108 0.0
O93 O 0.08803 0.71736 0.71638 0.0
C94 C 0.9965 0.75452 0.67904 0.0
O95 O 1.00527 0.76159 0.70136 0.0
C96 C 0.01134 0.68001 0.7341 0.0
O97 O 0.03303 0.68573 0.745 0.0
O98 O 0.00734 0.68714 0.71132 0.0
O99 O 0.06836 0.68374 0.69938 0.0
O100 O 0.06195 0.72937 0.65821 0.0
C101 C 0.06743 0.75285 0.66074 0.0
O102 O 0.06045 0.76501 0.68159 0.0
O103 O 1.00374 0.73342 0.66937 0.0
Mg104 Mg 0.34262 0.36539 0.01396 0.0
C105 C 0.34507 0.31984 0.97791 0.0
O106 O 0.33104 0.33515 0.96408 0.0
C107 C 0.2922 0.39055 0.02741 0.0
O108 O 0.29841 0.40346 1.00695 0.0
C109 C 0.3941 0.36399 0.0395 0.0
O110 O 0.40088 0.35471 0.01715 0.0
O111 O 0.37156 0.37235 0.0425 0.0
O112 O 0.35078 0.32664 1.00046 0.0
O113 O 0.34389 0.38885 0.97981 0.0
C114 C 0.34922 0.41237 0.97758 0.0
O115 O 0.35631 0.42545 0.99773 0.0
O116 O 0.3063 0.37195 0.03402 0.0
Mg117 Mg 0.68564 0.33685 0.98288 0.0
C118 C 0.6369 0.30878 1.0056 0.0
O119 O 0.62451 0.3264 0.99303 0.0
C120 C 0.71499 0.38699 0.96838 0.0
O121 O 0.70013 0.39614 0.98646 0.0
C122 C 0.64577 0.33865 0.9383 0.0
O123 O 0.63984 0.36008 0.95004 0.0
O124 O 0.66456 0.32569 0.94628 0.0
O125 O 0.66107 0.30861 1.00504 0.0
O126 O 0.70629 0.34733 0.01962 0.0
C127 C 0.6957 0.36014 0.03742 0.0
O128 O 0.67191 0.36733 0.03489 0.0
O129 O 0.71239 0.36385 0.9614 0.0
Mg130 Mg 0.68974 0.68372 0.01912 0.0
C131 C 0.70506 0.63606 0.05092 0.0
O132 O 0.68084 0.6316 0.04684 0.0
C133 C 0.64991 0.70377 0.9787 0.0
O134 O 0.64765 0.67921 0.97417 0.0
C135 C 0.70107 0.6439 0.97434 0.0
O136 O 0.68561 0.62948 0.98769 0.0
O137 O 0.70588 0.66639 0.98215 0.0
O138 O 0.71478 0.65641 0.0422 0.0
O139 O 0.67464 0.70226 0.05613 0.0
C140 C 0.65289 0.69754 0.06575 0.0
O141 O 0.63817 0.68072 0.05453 0.0
O142 O 0.66524 0.71128 0.99583 0.0
Mg143 Mg 0.3394 0.71988 0.03738 0.0
C144 C 0.31777 0.69707 0.99237 0.0
O145 O 0.30776 0.71995 0.9947 0.0
C146 C 0.37095 0.74161 0.0761 0.0
O147 O 0.34845 0.75245 0.07796 0.0
C148 C 0.31447 0.69571 0.08117 0.0
O149 O 0.33839 0.68863 0.08271 0.0
O150 O 0.30828 0.7115 0.06388 0.0
O151 O 0.33466 0.69032 0.00828 0.0
O152 O 0.34205 0.75606 0.0166 0.0
C153 C 0.36482 0.75878 0.00855 0.0
O154 O 0.38127 0.7404 0.01265 0.0
O155 O 0.37375 0.72319 0.06038 0.0
Mg156 Mg 0.85841 0.52484 0.8489 0.0
C157 C 0.86749 0.48519 0.80345 0.0
O158 O 0.85606 0.50071 0.78765 0.0
C159 C 0.82021 0.56614 0.85035 0.0
O160 O 0.84172 0.57847 0.85323 0.0
C161 C 0.88603 0.5621 0.81812 0.0
O162 O 0.86713 0.55424 0.80384 0.0
O163 O 0.88793 0.55309 0.84051 0.0
O164 O 0.86888 0.49099 0.82693 0.0
O165 O 0.8533 0.51065 0.88754 0.0
C166 C 0.85755 0.48717 0.89187 0.0
O167 O 0.87221 0.4744 0.87595 0.0
O168 O 0.82108 0.54252 0.84462 0.0
Mg169 Mg 0.50659 0.85879 0.85388 0.0
C170 C 0.5505 0.88545 0.83057 0.0
O171 O 0.55763 0.86142 0.83087 0.0
C172 C 0.45682 0.86189 0.88352 0.0
O173 O 0.44767 0.86017 0.86036 0.0
C174 C 0.4907 0.85322 0.79853 0.0
O175 O 0.51514 0.85651 0.79447 0.0
O176 O 0.48274 0.8504 0.82125 0.0
O177 O 0.52949 0.89142 0.84126 0.0
O178 O 0.5316 0.82791 0.86604 0.0
C179 C 0.54565 0.83366 0.88488 0.0
O180 O 0.54449 0.85701 0.89405 0.0
O181 O 0.48076 0.86428 0.88636 0.0
Mg182 Mg 0.22792 0.54334 0.82411 0.0
C183 C 0.21654 0.56861 0.77282 0.0
O184 O 0.21437 0.54493 0.76496 0.0
C185 C 0.25908 0.50018 0.84073 0.0
O186 O 0.23564 0.49287 0.84534 0.0
C187 C 0.2018 0.50089 0.79773 0.0
O188 O 0.22571 0.49845 0.79066 0.0
O189 O 0.19624 0.51781 0.81442 0.0
O190 O 0.22522 0.57295 0.79499 0.0
O191 O 0.2281 0.56504 0.85982 0.0
C192 C 0.24334 0.58381 0.85783 0.0
O193 O 0.25444 0.58786 0.83575 0.0
O194 O 0.2627 0.52119 0.82924 0.0
Mg195 Mg 0.4964 0.18462 0.84495 0.0
C196 C 0.48256 0.15349 0.79794 0.0
O197 O 0.50647 0.14664 0.80033 0.0
C198 C 0.51285 0.24016 0.84891 0.0
O199 O 0.49057 0.24236 0.86016 0.0
C200 C 0.54836 0.16239 0.85584 0.0
O201 O 0.55285 0.18657 0.86062 0.0
O202 O 0.52557 0.15544 0.85152 0.0
O203 O 0.47354 0.1704 0.81301 0.0
O204 O 0.47079 0.19383 0.87695 0.0
C205 C 0.44785 0.19932 0.87145 0.0
O206 O 0.44053 0.19674 0.8477 0.0
O207 O 0.51863 0.21913 0.83808 0.0
Mg208 Mg 0.83113 0.48284 0.19348 0.0
C209 C 0.83958 0.50279 0.24745 0.0
O210 O 0.85048 0.48043 0.25019 0.0
C211 C 0.80731 0.44113 0.16653 0.0
O212 O 0.83058 0.44284 0.15741 0.0
C213 C 0.86218 0.43928 0.20978 0.0
O214 O 0.8387 0.43347 0.21613 0.0
O215 O 0.86612 0.46027 0.19825 0.0
O216 O 0.82777 0.50747 0.22692 0.0
O217 O 0.82564 0.5094 0.16191 0.0
C218 C 0.80239 0.51638 0.1629 0.0
O219 O 0.78821 0.50788 0.18172 0.0
O220 O 0.80087 0.45573 0.18494 0.0
Mg221 Mg 0.53742 0.85014 0.21025 0.0
C222 C 0.51604 0.83287 0.1597 0.0
O223 O 0.53917 0.82367 0.15728 0.0
C224 C 0.57505 0.88219 0.23357 0.0
O225 O 0.57189 0.86231 0.24839 0.0
C226 C 0.58254 0.81737 0.19678 0.0
O227 O 0.59218 0.8403 0.19424 0.0
O228 O 0.56021 0.81521 0.20612 0.0
O229 O 0.51095 0.84755 0.17849 0.0
O230 O 0.51406 0.85634 0.24448 0.0
C231 C 0.48992 0.85482 0.24358 0.0
O232 O 0.47938 0.84479 0.22325 0.0
O233 O 0.56278 0.88291 0.21274 0.0
Mg234 Mg 0.17338 0.52664 0.18734 0.0
C235 C 0.19698 0.5694 0.16055 0.0
O236 O 0.17718 0.56303 0.14676 0.0
C237 C 0.1875 0.48826 0.23148 0.0
O238 O 0.20717 0.48078 0.2178 0.0
C239 C 0.17993 0.47616 0.15651 0.0
O240 O 0.17367 0.46521 0.17807 0.0
O241 O 0.17918 0.5004 0.15501 0.0
O242 O 0.20132 0.55686 0.1808 0.0
O243 O 0.13615 0.54514 0.19087 0.0
C244 C 0.13585 0.56818 0.19873 0.0
O245 O 0.15747 0.58039 0.2011 0.0
O246 O 0.17371 0.50652 0.22365 0.0
Mg247 Mg 0.50949 0.22105 0.17772 0.0
C248 C 0.54727 0.20776 0.13657 0.0
O249 O 0.5614 0.20329 0.15661 0.0
C250 C 0.47349 0.17566 0.18545 0.0
O251 O 0.49033 0.16338 0.17141 0.0
C252 C 0.47645 0.26849 0.17518 0.0
O253 O 0.45967 0.25312 0.18554 0.0
O254 O 0.49932 0.26091 0.17271 0.0
O255 O 0.52369 0.21218 0.13982 0.0
O256 O 0.53961 0.21362 0.20506 0.0
C257 C 0.53435 0.20337 0.22634 0.0
O258 O 0.51039 0.19982 0.23258 0.0
O259 O 0.47634 0.1994 0.1895 0.0
Mg260 Mg 0.84942 0.87519 0.52974 0.0
C261 C 0.8274 0.90186 0.57323 0.0
O262 O 0.84994 0.91203 0.56958 0.0
C263 C 0.85498 0.84097 0.48485 0.0
O264 O 0.86034 0.86352 0.47551 0.0
C265 C 0.82118 0.90535 0.49415 0.0
O266 O 0.8068 0.88618 0.50131 0.0
O267 O 0.8436 0.90674 0.50316 0.0
O268 O 0.8205 0.88367 0.55864 0.0
O269 O 0.88477 0.87044 0.55101 0.0
C270 C 0.88117 0.85874 0.57194 0.0
O271 O 0.85789 0.85238 0.57843 0.0
O272 O 0.84756 0.83951 0.50793 0.0
Mg273 Mg 0.17703 0.85468 0.47638 0.0
C274 C 0.15055 0.82718 0.43448 0.0
O275 O 0.14595 0.85121 0.42927 0.0
C276 C 0.21471 0.84598 0.51869 0.0
O277 O 0.19446 0.83587 0.52934 0.0
C278 C 0.12913 0.84504 0.50641 0.0
O279 O 0.12244 0.83512 0.48445 0.0
O280 O 0.14975 0.85758 0.50764 0.0
O281 O 0.16499 0.82204 0.45317 0.0
O282 O 0.18115 0.88793 0.45216 0.0
C283 C 0.19508 0.88392 0.43263 0.0
O284 O 0.20383 0.86075 0.42854 0.0
O285 O 0.21367 0.85252 0.49541 0.0
Mg286 Mg 0.18711 0.18562 0.51204 0.0
C287 C 0.18442 0.23142 0.55201 0.0
O288 O 0.20927 0.22995 0.55411 0.0
C289 C 0.24299 0.17397 0.5016 0.0
O290 O 0.24065 0.16257 0.52367 0.0
C291 C 0.16676 0.18842 0.45839 0.0
O292 O 0.19121 0.19082 0.45377 0.0
O293 O 0.15942 0.18416 0.48113 0.0
O294 O 0.17299 0.21672 0.53648 0.0
O295 O 0.18908 0.15096 0.53476 0.0
C296 C 0.19536 0.15372 0.55798 0.0
O297 O 0.19632 0.17687 0.56755 0.0
O298 O 0.22477 0.18793 0.49382 0.0
Mg299 Mg 0.83698 0.23821 0.53721 0.0
C300 C 0.8132 0.2287 0.4866 0.0
O301 O 0.83725 0.22379 0.48191 0.0
C302 C 0.86486 0.27199 0.56887 0.0
O303 O 0.87664 0.24986 0.56828 0.0
C304 C 0.81045 0.19129 0.55805 0.0
O305 O 0.80176 0.19153 0.53467 0.0
O306 O 0.82753 0.20742 0.56426 0.0
O307 O 0.80683 0.23716 0.50854 0.0
O308 O 0.87313 0.2394 0.51565 0.0
C309 C 0.874 0.26054 0.5037 0.0
O310 O 0.85418 0.27579 0.50535 0.0
O311 O 0.84294 0.2735 0.55877 0.0
H312 H 0.25154 0.18933 0.45225 0.0
H313 H 0.34263 0.07098 0.42096 0.0
H314 H 0.28057 0.13872 0.50978 0.0
H315 H 0.31945 0.12657 0.36539 0.0
H316 H 0.32375 0.09778 0.45458 0.0
H317 H 0.28006 0.16927 0.42107 0.0
C318 C 0.26421 0.17432 0.45847 0.0
C319 C 0.2634 0.16557 0.48368 0.0
C320 C 0.32309 0.10425 0.43505 0.0
C321 C 0.29588 0.14213 0.44788 0.0
C322 C 0.33394 0.08896 0.41585 0.0
C323 C 0.33241 0.09636 0.39025 0.0
C324 C 0.31053 0.12704 0.42859 0.0
C325 C 0.32087 0.1199 0.38481 0.0
C326 C 0.28046 0.16277 0.4406 0.0
C327 C 0.28035 0.14602 0.49055 0.0
N328 N 0.31018 0.1342 0.40372 0.0
N329 N 0.2956 0.13474 0.47271 0.0
H330 H 0.9693 0.34226 0.39764 0.0
H331 H 0.92244 0.23949 0.50058 0.0
H332 H 0.0204 0.2883 0.4323 0.0
H333 H 0.8761 0.30056 0.47128 0.0
H334 H 0.95854 0.25564 0.47523 0.0
H335 H 0.93489 0.3263 0.42448 0.0
C336 C 0.97336 0.32721 0.41107 0.0
C337 C 0.99784 0.3167 0.41272 0.0
C338 C 0.94041 0.26544 0.47443 0.0
C339 C 0.95827 0.29794 0.44343 0.0
C340 C 0.91981 0.25614 0.48878 0.0
C341 C 0.89618 0.26864 0.48809 0.0
C342 C 0.93723 0.28725 0.45922 0.0
C343 C 0.89391 0.29026 0.47256 0.0
C344 C 0.95365 0.31801 0.42638 0.0
C345 C 1.00187 0.29711 0.43046 0.0
N346 N 0.91406 0.29878 0.45882 0.0
N347 N 0.98227 0.28825 0.44501 0.0
H348 H 0.77546 0.90384 0.47041 0.0
H349 H 0.78772 0.03953 0.40218 0.0
H350 H 0.8424 0.95079 0.47754 0.0
H351 H 0.72065 0.99223 0.4008 0.0
H352 H 0.80921 1.00714 0.4279 0.0
H353 H 0.75655 0.93562 0.44301 0.0
C354 C 0.78629 0.92086 0.46618 0.0
C355 C 0.81059 0.92463 0.47647 0.0
C356 C 0.78982 1.00388 0.42191 0.0
C357 C 0.78874 0.96151 0.4448 0.0
C358 C 0.77752 0.02234 0.40719 0.0
C359 C 0.75226 0.01867 0.39931 0.0
C360 C 0.77681 0.98154 0.42874 0.0
C361 C 0.74006 0.99601 0.40643 0.0
C362 C 0.77539 0.93909 0.45046 0.0
C363 C 0.82362 0.9471 0.47007 0.0
N364 N 0.75241 0.97841 0.42069 0.0
N365 N 0.81248 0.96476 0.45469 0.0
H366 H 0.14269 0.77737 0.44903 0.0
H367 H 0.03617 0.75462 0.34268 0.0
H368 H 0.12365 0.83153 0.39057 0.0
H369 H 0.05067 0.7015 0.40341 0.0
H370 H 0.07122 0.78095 0.35778 0.0
H371 H 0.11258 0.74708 0.43014 0.0
C372 C 0.13252 0.78273 0.432 0.0
C373 C 0.13558 0.8071 0.42146 0.0
C374 C 0.06683 0.76349 0.36778 0.0
C375 C 0.10095 0.77269 0.39994 0.0
C376 C 0.04676 0.74843 0.35917 0.0
C377 C 0.04029 0.72587 0.37188 0.0
C378 C 0.08064 0.75606 0.38935 0.0
C379 C 0.05487 0.7188 0.39307 0.0
C380 C 0.11521 0.7655 0.42132 0.0
C381 C 0.12177 0.81306 0.39948 0.0
N382 N 0.07427 0.7339 0.40121 0.0
N383 N 0.105 0.79608 0.38958 0.0
H384 H 0.22255 0.83642 0.56926 0.0
H385 H 0.3254 0.94749 0.58389 0.0
H386 H 0.25455 0.8772 0.50552 0.0
H387 H 0.2959 0.90397 0.64699 0.0
H388 H 0.30238 0.91963 0.55453 0.0
H389 H 0.25247 0.85797 0.59745 0.0
C390 C 0.23614 0.8496 0.56109 0.0
C391 C 0.23581 0.85516 0.53497 0.0
C392 C 0.30109 0.91605 0.57479 0.0
C393 C 0.26996 0.88028 0.56731 0.0
C394 C 0.31421 0.932 0.59159 0.0
C395 C 0.31246 0.92822 0.618 0.0
C396 C 0.28598 0.8962 0.58442 0.0
C397 C 0.29772 0.90774 0.62681 0.0
C398 C 0.25318 0.862 0.57726 0.0
C399 C 0.25398 0.87237 0.52553 0.0
N400 N 0.28495 0.89264 0.6101 0.0
N401 N 0.27008 0.88454 0.54172 0.0
H402 H 0.06055 0.30806 0.63108 0.0
H403 H 0.20111 0.26206 0.59131 0.0
H404 H 0.12804 0.33124 0.67137 0.0
H405 H 0.13281 0.23858 0.55257 0.0
H406 H 0.175 0.28743 0.62092 0.0
H407 H 0.08689 0.28178 0.60282 0.0
C408 C 0.08089 0.30748 0.63416 0.0
C409 C 0.09204 0.32197 0.65369 0.0
C410 C 0.16575 0.27674 0.60591 0.0
C411 C 0.1225 0.29199 0.62105 0.0
C412 C 0.18067 0.26232 0.58891 0.0
C413 C 0.1692 0.24812 0.56935 0.0
C414 C 0.13914 0.27701 0.60335 0.0
C415 C 0.14257 0.24917 0.56731 0.0
C416 C 0.09597 0.29251 0.61791 0.0
C417 C 0.11856 0.3204 0.65663 0.0
N418 N 0.12852 0.26329 0.58406 0.0
N419 N 0.13287 0.30581 0.64044 0.0
H420 H 0.77216 0.15685 0.5504 0.0
H421 H 0.75844 0.11876 0.69738 0.0
H422 H 0.81948 0.188 0.60975 0.0
H423 H 0.70648 0.09306 0.63942 0.0
H424 H 0.78124 0.14358 0.66549 0.0
H425 H 0.74898 0.1323 0.5823 0.0
C426 C 0.77786 0.15843 0.57013 0.0
C427 C 0.79792 0.17462 0.57731 0.0
C428 C 0.7648 0.13264 0.65969 0.0
C429 C 0.77108 0.14647 0.61417 0.0
C430 C 0.75167 0.11844 0.67794 0.0
C431 C 0.73042 0.10371 0.67114 0.0
C432 C 0.75686 0.13212 0.63423 0.0
C433 C 0.72264 0.10418 0.6456 0.0
C434 C 0.76446 0.14443 0.58838 0.0
C435 C 0.80426 0.17578 0.60324 0.0
N436 N 0.73593 0.11802 0.62807 0.0
N437 N 0.79088 0.16196 0.62069 0.0
H438 H 0.96771 0.79491 0.69599 0.0
H439 H 0.92776 0.84044 0.55646 0.0
H440 H 0.99023 0.75486 0.6274 0.0
H441 H 0.88183 0.85491 0.62334 0.0
H442 H 0.95823 0.81702 0.58304 0.0
H443 H 0.94267 0.82446 0.67007 0.0
C444 C 0.96738 0.79234 0.67551 0.0
C445 C 0.98077 0.7722 0.66387 0.0
C446 C 0.94166 0.82571 0.59188 0.0
C447 C 0.95277 0.80622 0.63414 0.0
C448 C 0.92448 0.83928 0.57681 0.0
C449 C 0.9023 0.8495 0.58779 0.0
C450 C 0.93673 0.82283 0.61807 0.0
C451 C 0.89869 0.84717 0.61418 0.0
C452 C 0.95316 0.80921 0.66075 0.0
C453 C 0.97985 0.76987 0.63721 0.0
N454 N 0.91567 0.83402 0.62842 0.0
N455 N 0.96616 0.78672 0.62324 0.0
H456 H 0.44404 0.34896 0.04058 0.0
H457 H 0.4303 0.29269 0.17841 0.0
H458 H 0.38051 0.36711 0.08994 0.0
H459 H 0.50215 0.29506 0.13831 0.0
H460 H 0.41299 0.3233 0.14813 0.0
H461 H 0.46714 0.33264 0.07733 0.0
C462 C 0.43512 0.34997 0.05921 0.0
C463 C 0.41015 0.3591 0.06208 0.0
C464 C 0.4327 0.31752 0.14623 0.0
C465 C 0.43633 0.34001 0.1042 0.0
C466 C 0.4426 0.30003 0.16355 0.0
C467 C 0.46761 0.29101 0.16073 0.0
C468 C 0.44777 0.32569 0.12565 0.0
C469 C 0.48271 0.30133 0.14117 0.0
C470 C 0.44833 0.34064 0.08022 0.0
C471 C 0.39964 0.36007 0.08675 0.0
N472 N 0.4724 0.31771 0.12408 0.0
N473 N 0.41257 0.35017 0.10676 0.0
H474 H 0.75501 0.44472 0.1664 0.0
H475 H 0.74435 0.3466 0.04955 0.0
H476 H 0.8176 0.40087 0.13543 0.0
H477 H 0.68114 0.39223 0.07649 0.0
H478 H 0.76983 0.3625 0.08479 0.0
H479 H 0.72601 0.42172 0.13786 0.0
C480 C 0.76256 0.42992 0.15399 0.0
C481 C 0.78876 0.42484 0.15309 0.0
C482 C 0.75033 0.36896 0.08315 0.0
C483 C 0.75589 0.39874 0.12033 0.0
C484 C 0.73576 0.35987 0.06297 0.0
C485 C 0.71063 0.36827 0.05988 0.0
C486 C 0.73984 0.38674 0.1004 0.0
C487 C 0.70049 0.38534 0.07804 0.0
C488 C 0.74605 0.41693 0.13759 0.0
C489 C 0.79757 0.40561 0.13655 0.0
N490 N 0.7152 0.3942 0.09741 0.0
N491 N 0.78123 0.39344 0.12073 0.0
H492 H 0.60692 0.69333 0.09058 0.0
H493 H 0.63188 0.81405 0.18075 0.0
H494 H 0.67774 0.73472 0.09286 0.0
H495 H 0.56163 0.77171 0.18135 0.0
H496 H 0.6503 0.78236 0.15183 0.0
H497 H 0.59118 0.71922 0.12632 0.0
C498 C 0.61925 0.70773 0.09868 0.0
C499 C 0.64366 0.71194 0.0885 0.0
C500 C 0.63096 0.77976 0.1585 0.0
C501 C 0.62568 0.74172 0.12951 0.0
C502 C 0.62044 0.79784 0.17514 0.0
C503 C 0.5951 0.79566 0.18343 0.0
C504 C 0.61601 0.75937 0.14976 0.0
C505 C 0.58125 0.77416 0.17552 0.0
C506 C 0.61023 0.7225 0.11913 0.0
C507 C 0.65875 0.73085 0.09991 0.0
N508 N 0.59177 0.75704 0.15887 0.0
N509 N 0.64947 0.74509 0.11964 0.0
H510 H 0.24338 0.58451 0.17959 0.0
H511 H 0.26263 0.69341 0.07426 0.0
H512 H 0.18777 0.60338 0.12257 0.0
H513 H 0.32249 0.66662 0.12325 0.0
H514 H 0.23273 0.66525 0.09641 0.0
H515 H 0.27064 0.61882 0.16342 0.0
C516 C 0.23683 0.59594 0.16382 0.0
C517 C 0.21336 0.59087 0.15229 0.0
C518 C 0.25237 0.66575 0.10248 0.0
C519 C 0.24434 0.63021 0.13375 0.0
C520 C 0.2694 0.68196 0.08994 0.0
C521 C 0.29516 0.68222 0.09674 0.0
C522 C 0.26114 0.64975 0.12201 0.0
C523 C 0.30285 0.66687 0.11718 0.0
C524 C 0.25239 0.61551 0.15457 0.0
C525 C 0.20582 0.60638 0.13192 0.0
N526 N 0.286 0.65116 0.12894 0.0
N527 N 0.22126 0.62523 0.12328 0.0
H528 H 0.34013 0.78717 0.97204 0.0
H529 H 0.47027 0.85681 0.93371 0.0
H530 H 0.41037 0.78165 0.01354 0.0
H531 H 0.40562 0.85173 0.88368 0.0
H532 H 0.44464 0.83821 0.96777 0.0
H533 H 0.36 0.81929 0.94418 0.0
C534 C 0.35946 0.79322 0.97567 0.0
C535 C 0.37376 0.78165 0.99489 0.0
C536 C 0.43593 0.84147 0.94943 0.0
C537 C 0.39655 0.81802 0.96329 0.0
C538 C 0.45056 0.85222 0.92997 0.0
C539 C 0.44026 0.85547 0.90561 0.0
C540 C 0.4108 0.8338 0.94456 0.0
C541 C 0.41449 0.84928 0.90205 0.0
C542 C 0.37086 0.81136 0.9597 0.0
C543 C 0.39881 0.78992 0.99871 0.0
N544 N 0.40076 0.83841 0.92118 0.0
N545 N 0.40943 0.8074 0.98298 0.0
H546 H 0.35263 0.46355 0.9663 0.0
H547 H 0.26371 0.44913 0.84671 0.0
H548 H 0.33242 0.39083 0.93325 0.0
H549 H 0.30073 0.52014 0.86481 0.0
H550 H 0.29186 0.42717 0.87616 0.0
H551 H 0.33693 0.48469 0.92792 0.0
C552 C 0.34527 0.45199 0.95087 0.0
C553 C 0.3435 0.42538 0.95323 0.0
C554 C 0.29429 0.44747 0.87337 0.0
C555 C 0.32535 0.44945 0.90937 0.0
C556 C 0.27826 0.45997 0.85647 0.0
C557 C 0.27996 0.48642 0.85334 0.0
C558 C 0.31172 0.46162 0.88787 0.0
C559 C 0.299 0.49965 0.86656 0.0
C560 C 0.33634 0.46408 0.92894 0.0
C561 C 0.33389 0.4114 0.93251 0.0
N562 N 0.31382 0.48719 0.88369 0.0
N563 N 0.32488 0.42361 0.91169 0.0
H564 H 0.50731 0.28762 0.87033 0.0
H565 H 0.65285 0.2959 0.90858 0.0
H566 H 0.5644 0.23591 0.84075 0.0
H567 H 0.59882 0.35617 0.92414 0.0
H568 H 0.62156 0.27524 0.88109 0.0
H569 H 0.54102 0.31481 0.88712 0.0
C570 C 0.52694 0.28219 0.86696 0.0
C571 C 0.53296 0.25923 0.85437 0.0
C572 C 0.61666 0.29316 0.89024 0.0
C573 C 0.57175 0.29012 0.87402 0.0
C574 C 0.63453 0.30497 0.90598 0.0
C575 C 0.62841 0.32771 0.91891 0.0
C576 C 0.59234 0.30397 0.88763 0.0
C577 C 0.60438 0.33861 0.91468 0.0
C578 C 0.54621 0.29772 0.87662 0.0
C579 C 0.55879 0.2533 0.8505 0.0
N580 N 0.58714 0.32648 0.8997 0.0
N581 N 0.57719 0.2684 0.86065 0.0
H582 H 0.73209 0.66925 0.94095 0.0
H583 H 0.77687 0.54256 0.868 0.0
H584 H 0.69974 0.59505 0.95512 0.0
H585 H 0.81036 0.61674 0.85697 0.0
H586 H 0.74347 0.56235 0.89429 0.0
H587 H 0.75619 0.65124 0.90528 0.0
C588 C 0.72991 0.64918 0.93647 0.0
C589 C 0.71408 0.63359 0.95131 0.0
C590 C 0.75787 0.57434 0.88572 0.0
C591 C 0.74179 0.61273 0.91036 0.0
C592 C 0.77682 0.56308 0.8705 0.0
C593 C 0.79661 0.578 0.8605 0.0
C594 C 0.75876 0.60068 0.89092 0.0
C595 C 0.79565 0.60447 0.86455 0.0
C596 C 0.74367 0.63889 0.91603 0.0
C597 C 0.71186 0.60776 0.94436 0.0
N598 N 0.77728 0.61489 0.87967 0.0
N599 N 0.72576 0.59809 0.92457 0.0
H600 H 0.08095 0.41602 0.33261 0.0
H601 H 0.20514 0.44173 0.24784 0.0
H602 H 0.13746 0.35871 0.31481 0.0
H603 H 0.14748 0.49847 0.26368 0.0
H604 H 0.18418 0.41307 0.27795 0.0
H605 H 0.1084 0.44824 0.31316 0.0
C606 C 0.09928 0.41025 0.32499 0.0
C607 C 0.10673 0.38452 0.32509 0.0
C608 C 0.1763 0.43192 0.27509 0.0
C609 C 0.1382 0.42131 0.30254 0.0
C610 C 0.18835 0.44837 0.25795 0.0
C611 C 0.17792 0.47247 0.25291 0.0
C612 C 0.15359 0.43958 0.28725 0.0
C613 C 0.15609 0.47997 0.26669 0.0
C614 C 0.11494 0.42866 0.31379 0.0
C615 C 0.13076 0.37824 0.31494 0.0
N616 N 0.14452 0.46351 0.28295 0.0
N617 N 0.14547 0.39641 0.30386 0.0
H618 H 0.18898 0.56452 0.72894 0.0
H619 H 0.12838 0.70435 0.74121 0.0
H620 H 0.21212 0.61932 0.78593 0.0
H621 H 0.09565 0.6431 0.69706 0.0
H622 H 0.16335 0.67596 0.75309 0.0
H623 H 0.15972 0.59606 0.71165 0.0
C624 C 0.18828 0.58333 0.73757 0.0
C625 C 0.20287 0.58913 0.75915 0.0
C626 C 0.14855 0.66879 0.74073 0.0
C627 C 0.16907 0.6253 0.73953 0.0
C628 C 0.12857 0.68497 0.73394 0.0
C629 C 0.10893 0.67606 0.71824 0.0
C630 C 0.14904 0.64357 0.73157 0.0
C631 C 0.11024 0.65077 0.70936 0.0
C632 C 0.1714 0.60128 0.72777 0.0
C633 C 0.20113 0.6139 0.7694 0.0
N634 N 0.12991 0.63545 0.71615 0.0
N635 N 0.18434 0.631 0.75965 0.0
H636 H 0.35338 0.08307 0.72251 0.0
H637 H 0.4963 0.11705 0.76293 0.0
H638 H 0.41976 0.04267 0.69495 0.0
H639 H 0.43062 0.15749 0.79208 0.0
H640 H 0.46845 0.09129 0.73621 0.0
H641 H 0.38111 0.11172 0.74666 0.0
C642 C 0.37377 0.08021 0.72148 0.0
C643 C 0.38419 0.06031 0.70668 0.0
C644 C 0.46008 0.10587 0.74833 0.0
C645 C 0.41611 0.09317 0.73432 0.0
C646 C 0.47602 0.12068 0.7636 0.0
C647 C 0.46584 0.13947 0.77991 0.0
C648 C 0.43364 0.1097 0.74933 0.0
C649 C 0.43935 0.14324 0.77983 0.0
C650 C 0.3896 0.09662 0.73528 0.0
C651 C 0.41079 0.05765 0.7061 0.0
N652 N 0.42418 0.12841 0.76491 0.0
N653 N 0.42576 0.07381 0.71972 0.0
H654 H 0.89862 0.4538 0.83065 0.0
H655 H 0.95298 0.37823 0.70948 0.0
H656 H 0.8709 0.46608 0.75444 0.0
H657 H 0.99686 0.39445 0.77685 0.0
H658 H 0.91638 0.39979 0.72913 0.0
H659 H 0.92792 0.42159 0.81406 0.0
C660 C 0.89837 0.4495 0.81045 0.0
C661 C 0.88245 0.46303 0.79385 0.0
C662 C 0.93392 0.39822 0.73971 0.0
C663 C 0.91604 0.4259 0.77483 0.0
C664 C 0.95482 0.3858 0.72861 0.0
C665 C 0.97824 0.38494 0.74137 0.0
C666 C 0.93631 0.40935 0.76394 0.0
C667 C 0.97931 0.39492 0.76619 0.0
C668 C 0.9152 0.43111 0.80103 0.0
C669 C 0.88298 0.45636 0.7679 0.0
N670 N 0.95872 0.40687 0.77659 0.0
N671 N 0.89967 0.43837 0.75914 0.0
H672 H 0.61435 0.01659 0.74966 0.0
H673 H 0.59358 0.87606 0.80322 0.0
H674 H 0.6523 0.94911 0.72129 0.0
H675 H 0.54042 0.93653 0.82107 0.0
H676 H 0.61584 0.90432 0.77443 0.0
H677 H 0.58638 0.98931 0.7757 0.0
C678 C 0.61629 0.99606 0.74832 0.0
C679 C 0.63569 0.98506 0.73331 0.0
C680 C 0.5993 0.91156 0.78455 0.0
C681 C 0.60443 0.95397 0.76344 0.0
C682 C 0.5866 0.8954 0.80123 0.0
C683 C 0.56501 0.90385 0.81469 0.0
C684 C 0.59064 0.93666 0.7812 0.0
C685 C 0.55702 0.92921 0.81114 0.0
C686 C 0.60053 0.98053 0.76339 0.0
C687 C 0.6377 0.9584 0.73267 0.0
N688 N 0.56988 0.94479 0.79476 0.0
N689 N 0.62252 0.94388 0.74767 0.0
H690 H 0.89675 0.64833 0.2936 0.0
H691 H 0.86459 0.50005 0.29297 0.0
H692 H 0.92329 0.59602 0.35082 0.0
H693 H 0.83032 0.55396 0.24164 0.0
H694 H 0.88261 0.53554 0.31712 0.0
H695 H 0.86921 0.61485 0.27671 0.0
C696 C 0.89663 0.62988 0.30278 0.0
C697 C 0.91259 0.62493 0.32351 0.0
C698 C 0.87085 0.53965 0.30079 0.0
C699 C 0.88115 0.5864 0.30415 0.0
C700 C 0.86047 0.51936 0.28701 0.0
C701 C 0.84616 0.52398 0.26503 0.0
C702 C 0.86714 0.56477 0.2924 0.0
C703 C 0.84136 0.54944 0.25835 0.0
C704 C 0.88084 0.61077 0.29314 0.0
C705 C 0.91146 0.60069 0.33471 0.0
N706 N 0.85215 0.56884 0.27174 0.0
N707 N 0.89626 0.58228 0.32472 0.0
H708 H 0.42723 0.97982 0.33232 0.0
H709 H 0.43865 0.85073 0.25107 0.0
H710 H 0.36356 0.93324 0.30984 0.0
H711 H 0.50427 0.89176 0.27814 0.0
H712 H 0.41134 0.87888 0.27634 0.0
H713 H 0.45622 0.94635 0.31641 0.0
C714 C 0.41934 0.96246 0.32441 0.0
C715 C 0.39289 0.9595 0.32219 0.0
C716 C 0.43173 0.88162 0.27706 0.0
C717 C 0.42589 0.92124 0.30382 0.0
C718 C 0.44737 0.86544 0.26264 0.0
C719 C 0.47381 0.86892 0.26232 0.0
C720 C 0.44248 0.90178 0.2911 0.0
C721 C 0.48398 0.88833 0.27781 0.0
C722 C 0.43589 0.94338 0.31527 0.0
C723 C 0.38378 0.93657 0.31171 0.0
N724 N 0.46829 0.90425 0.29128 0.0
N725 N 0.40018 0.91854 0.30278 0.0
H726 H 0.67554 0.13604 0.27723 0.0
H727 H 0.52944 0.1792 0.27217 0.0
H728 H 0.61852 0.11196 0.33143 0.0
H729 H 0.58577 0.20208 0.21671 0.0
H730 H 0.56258 0.1572 0.29591 0.0
H731 H 0.64366 0.16262 0.25644 0.0
C732 C 0.65634 0.13638 0.28483 0.0
C733 C 0.6497 0.12161 0.30606 0.0
C734 C 0.56775 0.16717 0.27865 0.0
C735 C 0.61306 0.15209 0.28231 0.0
C736 C 0.54883 0.17983 0.26509 0.0
C737 C 0.55477 0.19243 0.2423 0.0
C738 C 0.59287 0.167 0.26937 0.0
C739 C 0.58027 0.19259 0.23414 0.0
C740 C 0.63815 0.1516 0.27294 0.0
C741 C 0.62452 0.12293 0.31507 0.0
N742 N 0.59833 0.17992 0.24757 0.0
N743 N 0.60713 0.1378 0.3031 0.0
H744 H 0.76532 0.99729 0.69377 0.0
H745 H 0.77571 0.89582 0.57894 0.0
H746 H 0.70223 0.97469 0.64664 0.0
H747 H 0.84059 0.93275 0.61286 0.0
H748 H 0.74798 0.91822 0.60949 0.0
H749 H 0.79272 0.96736 0.66993 0.0
C750 C 0.75719 0.98583 0.67865 0.0
C751 C 0.73158 0.9887 0.67196 0.0
C752 C 0.76832 0.92121 0.61036 0.0
C753 C 0.76259 0.95449 0.64478 0.0
C754 C 0.78414 0.90836 0.593 0.0
C755 C 0.81044 0.91267 0.59316 0.0
C756 C 0.77894 0.93831 0.6281 0.0
C757 C 0.82036 0.92912 0.61183 0.0
C758 C 0.7728 0.96885 0.66501 0.0
C759 C 0.72197 0.97337 0.65221 0.0
N760 N 0.80461 0.94144 0.62844 0.0
N761 N 0.73747 0.95703 0.63928 0.0
H762 H 0.13916 0.85911 0.55598 0.0
H763 H 0.07044 0.73691 0.61127 0.0
H764 H 0.09144 0.80966 0.51089 0.0
H765 H 0.08687 0.8015 0.6598 0.0
H766 H 0.08325 0.76183 0.57436 0.0
H767 H 0.12377 0.83775 0.59458 0.0
C768 C 0.12515 0.8441 0.5542 0.0
C769 C 0.11672 0.83605 0.5301 0.0
C770 C 0.08407 0.77057 0.59309 0.0
C771 C 0.09965 0.81126 0.57401 0.0
C772 C 0.077 0.75627 0.61423 0.0
C773 C 0.07759 0.76713 0.6387 0.0
C774 C 0.09218 0.79585 0.59637 0.0
C775 C 0.08611 0.7924 0.64126 0.0
C776 C 0.11648 0.83189 0.57622 0.0
C777 C 0.09859 0.81647 0.52897 0.0
N778 N 0.0932 0.80592 0.62033 0.0
N779 N 0.09097 0.80452 0.55055 0.0
H780 H 0.19587 0.10252 0.54592 0.0
H781 H 0.312 0.07261 0.63604 0.0
H782 H 0.22341 0.15683 0.60135 0.0
H783 H 0.26071 0.01295 0.61248 0.0
H784 H 0.28252 0.10429 0.61881 0.0
H785 H 0.22167 0.06931 0.56623 0.0
C786 C 0.20703 0.10738 0.56253 0.0
C787 C 0.20751 0.13251 0.5719 0.0
C788 C 0.27771 0.08425 0.61752 0.0
C789 C 0.23742 0.09493 0.59466 0.0
C790 C 0.29458 0.06619 0.62719 0.0
C791 C 0.28875 0.04016 0.62569 0.0
C792 C 0.25515 0.07617 0.6058 0.0
C793 C 0.26584 0.03287 0.61412 0.0
C794 C 0.22175 0.08847 0.57404 0.0
C795 C 0.22239 0.13776 0.59344 0.0
N796 N 0.24995 0.05078 0.60438 0.0
N797 N 0.23702 0.11924 0.60384 0.0
H798 H 0.84849 0.31628 0.59306 0.0
H799 H 0.99126 0.3691 0.6009 0.0
H800 H 0.91482 0.2797 0.56065 0.0
H801 H 0.93211 0.39365 0.65298 0.0
H802 H 0.95984 0.34446 0.57732 0.0
H803 H 0.87575 0.35185 0.60749 0.0
C804 C 0.86866 0.3159 0.58877 0.0
C805 C 0.87955 0.29487 0.57613 0.0
C806 C 0.95364 0.35555 0.59369 0.0
C807 C 0.9105 0.33533 0.59191 0.0
C808 C 0.97158 0.36979 0.60709 0.0
C809 C 0.96448 0.38309 0.62929 0.0
C810 C 0.92838 0.3545 0.60252 0.0
C811 C 0.93855 0.38342 0.63616 0.0
C812 C 0.88417 0.3361 0.59698 0.0
C813 C 0.90574 0.29529 0.57085 0.0
N814 N 0.92149 0.36895 0.62309 0.0
N815 N 0.92025 0.31509 0.57879 0.0
H816 H 0.75545 0.14815 0.35752 0.0
H817 H 0.76472 0.21153 0.49623 0.0
H818 H 0.70846 0.12537 0.42112 0.0
H819 H 0.81895 0.22339 0.43549 0.0
H820 H 0.73829 0.18668 0.46676 0.0
H821 H 0.77357 0.18191 0.38383 0.0
C822 C 0.74883 0.15031 0.37699 0.0
C823 C 0.73063 0.13366 0.3872 0.0
C824 C 0.75576 0.19513 0.45981 0.0
C825 C 0.75134 0.17243 0.41751 0.0
C826 C 0.7707 0.20951 0.47654 0.0
C827 C 0.79414 0.21929 0.46829 0.0
C828 C 0.76432 0.19074 0.43472 0.0
C829 C 0.80112 0.21593 0.44266 0.0
C830 C 0.75917 0.16965 0.39201 0.0
C831 C 0.72263 0.1376 0.41252 0.0
N832 N 0.78641 0.20176 0.42688 0.0
N833 N 0.73318 0.15646 0.42688 0.0
H834 H 0.91156 0.74685 0.36243 0.0
H835 H 0.86616 0.79247 0.50153 0.0
H836 H 0.93115 0.70621 0.43083 0.0
H837 H 0.85943 0.83744 0.43336 0.0
H838 H 0.88388 0.7573 0.47572 0.0
H839 H 0.88664 0.77681 0.38796 0.0
C840 C 0.91056 0.74412 0.38284 0.0
C841 C 0.92372 0.72406 0.39449 0.0
C842 C 0.87822 0.77477 0.46643 0.0
C843 C 0.89504 0.75854 0.42402 0.0
C844 C 0.86791 0.79476 0.4811 0.0
C845 C 0.86145 0.81797 0.46958 0.0
C846 C 0.88183 0.77803 0.44008 0.0
C847 C 0.86434 0.81997 0.44308 0.0
C848 C 0.89627 0.76129 0.39744 0.0
C849 C 0.92146 0.72148 0.42105 0.0
N850 N 0.87441 0.80037 0.42931 0.0
N851 N 0.90752 0.73861 0.43495 0.0
H852 H 0.25591 0.02797 0.38465 0.0
H853 H 0.22036 0.88026 0.38728 0.0
H854 H 0.28958 0.97099 0.33513 0.0
H855 H 0.1899 0.93563 0.44051 0.0
H856 H 0.23993 0.91468 0.36321 0.0
H857 H 0.2259 0.99607 0.4002 0.0
C858 C 0.25675 0.00887 0.3767 0.0
C859 C 0.27559 1.00207 0.35881 0.0
C860 C 0.22876 0.91939 0.37999 0.0
C861 C 0.24136 0.9654 0.37674 0.0
C862 C 0.21755 0.89972 0.39378 0.0
C863 C 0.20377 0.90504 0.41618 0.0
C864 C 0.22637 0.94465 0.38871 0.0
C865 C 0.20052 0.93064 0.42346 0.0
C866 C 0.23962 0.99064 0.38568 0.0
C867 C 0.27559 0.97706 0.34912 0.0
N868 N 0.21204 0.94949 0.40994 0.0
N869 N 0.25897 0.95958 0.35843 0.0
H870 H 0.17676 0.20271 0.40934 0.0
H871 H 0.03318 0.24402 0.38141 0.0
H872 H 0.11445 0.18958 0.46155 0.0
H873 H 0.09844 0.27332 0.3409 0.0
H874 H 0.06128 0.2155 0.40498 0.0
H875 H 0.14678 0.21994 0.3786 0.0
C876 C 0.15672 0.20309 0.41425 0.0
C877 C 0.14819 0.19499 0.43828 0.0
C878 C 0.06938 0.22789 0.39065 0.0
C879 C 0.11371 0.21483 0.40302 0.0
C880 C 0.05334 0.24406 0.37702 0.0
C881 C 0.0635 0.26128 0.35928 0.0
C882 C 0.09575 0.22879 0.38637 0.0
C883 C 0.0898 0.26053 0.35454 0.0
C884 C 0.13962 0.21302 0.39666 0.0
C885 C 0.12194 0.19581 0.44338 0.0
N886 N 0.10502 0.24473 0.36815 0.0
N887 N 0.10566 0.20581 0.426 0.0
H888 H 0.61663 0.69449 0.93961 0.0
H889 H 0.57972 0.84174 0.92301 0.0
H890 H 0.6489 0.75582 0.98398 0.0
H891 H 0.54929 0.78195 0.87534 0.0
H892 H 0.60545 0.81025 0.94502 0.0
H893 H 0.592 0.7258 0.91563 0.0
C894 C 0.61856 0.71452 0.94433 0.0
C895 C 0.63487 0.72249 0.96392 0.0
C896 C 0.59323 0.80395 0.92971 0.0
C897 C 0.6067 0.75847 0.93646 0.0
C898 C 0.57849 0.82196 0.91707 0.0
C899 C 0.56222 0.81451 0.89729 0.0
C900 C 0.59174 0.77812 0.92267 0.0
C901 C 0.56156 0.78857 0.89047 0.0
C902 C 0.6045 0.73239 0.93058 0.0
C903 C 0.6366 0.74873 0.9691 0.0
N904 N 0.57603 0.77129 0.90321 0.0
N905 N 0.62268 0.76571 0.95551 0.0
H906 H 0.29499 0.71046 0.94835 0.0
H907 H 0.24904 0.57071 0.90837 0.0
H908 H 0.31702 0.64429 0.99144 0.0
H909 H 0.2552 0.63381 0.85644 0.0
H910 H 0.26776 0.59768 0.94211 0.0
H911 H 0.27479 0.68276 0.91716 0.0
C912 C 0.29572 0.69002 0.95117 0.0
C913 C 0.30784 0.67967 0.97247 0.0
C914 C 0.26478 0.60557 0.92335 0.0
C915 C 0.28425 0.64769 0.93685 0.0
C916 C 0.25383 0.59034 0.90425 0.0
C917 C 0.25051 0.60014 0.87966 0.0
C918 C 0.27195 0.63077 0.91777 0.0
C919 C 0.25744 0.62552 0.87514 0.0
C920 C 0.28413 0.6742 0.93334 0.0
C921 C 0.30811 0.65301 0.97512 0.0
N922 N 0.26775 0.6399 0.89396 0.0
N923 N 0.29629 0.63788 0.95758 0.0
H924 H 0.38579 0.29187 0.99512 0.0
H925 H 0.39777 0.21136 0.86535 0.0
H926 H 0.33301 0.29676 0.93274 0.0
H927 H 0.4584 0.21638 0.92016 0.0
H928 H 0.37079 0.2368 0.8936 0.0
H929 H 0.40936 0.2587 0.97167 0.0
C930 C 0.37889 0.28569 0.9767 0.0
C931 C 0.35743 0.29726 0.96582 0.0
C932 C 0.38992 0.23221 0.8996 0.0
C933 C 0.38441 0.25939 0.93887 0.0
C934 C 0.40538 0.21758 0.88347 0.0
C935 C 0.43054 0.21187 0.89023 0.0
C936 C 0.39957 0.24134 0.92279 0.0
C937 C 0.43917 0.22037 0.9141 0.0
C938 C 0.39246 0.26685 0.96327 0.0
C939 C 0.34951 0.28854 0.94183 0.0
N940 N 0.42379 0.23486 0.92943 0.0
N941 N 0.36303 0.27028 0.92916 0.0
H942 H 0.72389 0.43802 0.97596 0.0
H943 H 0.85688 0.43584 0.90078 0.0
H944 H 0.75509 0.37135 0.93848 0.0
H945 H 0.81784 0.50563 0.92117 0.0
H946 H 0.8229 0.41159 0.92109 0.0
H947 H 0.76056 0.46273 0.96117 0.0
C948 C 0.73838 0.42858 0.96455 0.0
C949 C 0.7363 0.40257 0.95834 0.0
C950 C 0.82188 0.43222 0.92135 0.0
C951 C 0.77853 0.43068 0.94175 0.0
C952 C 0.84142 0.44614 0.90993 0.0
C953 C 0.84016 0.47287 0.90898 0.0
C954 C 0.80089 0.44506 0.93204 0.0
C955 C 0.81961 0.48506 0.9213 0.0
C956 C 0.75934 0.4427 0.95618 0.0
C957 C 0.75574 0.39137 0.94359 0.0
N958 N 0.80067 0.47106 0.93212 0.0
N959 N 0.77604 0.40545 0.93589 0.0
H960 H 0.5853 0.30253 0.0102 0.0
H961 H 0.59738 0.20239 0.12311 0.0
H962 H 0.65669 0.2715 0.03602 0.0
H963 H 0.52559 0.23006 0.0948 0.0
H964 H 0.61899 0.22302 0.08752 0.0
H965 H 0.56279 0.27255 0.03773 0.0
C966 C 0.59626 0.28933 0.02155 0.0
C967 C 0.62294 0.28975 0.02101 0.0
C968 C 0.59847 0.22427 0.08886 0.0
C969 C 0.59728 0.25532 0.05256 0.0
C970 C 0.58608 0.21238 0.10914 0.0
C971 C 0.55965 0.21481 0.11221 0.0
C972 C 0.58436 0.23891 0.07161 0.0
C973 C 0.54602 0.22785 0.09337 0.0
C974 C 0.58338 0.27214 0.03721 0.0
C975 C 0.63611 0.27203 0.03596 0.0
N976 N 0.55857 0.23976 0.07411 0.0
N977 N 0.62315 0.25571 0.05127 0.0
H978 H 0.82461 0.55103 0.12967 0.0
H979 H 0.689 0.59221 0.0735 0.0
H980 H 0.75235 0.51912 0.15207 0.0
H981 H 0.75644 0.63749 0.06154 0.0
H982 H 0.71393 0.56218 0.09814 0.0
H983 H 0.80196 0.57989 0.10042 0.0
C984 C 0.8041 0.54993 0.12827 0.0
C985 C 0.79034 0.5328 0.14348 0.0
C986 C 0.72338 0.57865 0.09015 0.0
C987 C 0.76448 0.56543 0.11024 0.0
C988 C 0.7091 0.59586 0.07602 0.0
C989 C 0.72055 0.61756 0.06554 0.0
C990 C 0.74946 0.58297 0.09394 0.0
C991 C 0.74678 0.62109 0.06941 0.0
C992 C 0.7912 0.56644 0.11173 0.0
C993 C 0.76378 0.53219 0.14099 0.0
N994 N 0.76037 0.604 0.08336 0.0
N995 N 0.75182 0.54819 0.1248 0.0
H996 H 0.36909 0.77723 0.11389 0.0
H997 H 0.51966 0.79768 0.12098 0.0
H998 H 0.42237 0.73379 0.06814 0.0
H999 H 0.46475 0.84193 0.16399 0.0
H1000 H 0.48477 0.77475 0.10054 0.0
H1001 H 0.40431 0.80065 0.13248 0.0
C1002 C 0.38826 0.77244 0.10788 0.0
C1003 C 0.39275 0.75346 0.0894 0.0
C1004 C 0.48036 0.78961 0.1143 0.0
C1005 C 0.43341 0.78061 0.11055 0.0
C1006 C 0.50027 0.80285 0.12589 0.0
C1007 C 0.49518 0.82176 0.14434 0.0
C1008 C 0.45513 0.79523 0.12124 0.0
C1009 C 0.46966 0.82753 0.14992 0.0
C1010 C 0.40841 0.78596 0.11846 0.0
C1011 C 0.41804 0.74814 0.08244 0.0
N1012 N 0.45065 0.81422 0.13856 0.0
N1013 N 0.43745 0.76173 0.09296 0.0
H1014 H 0.26071 0.43123 0.01939 0.0
H1015 H 0.19449 0.42583 0.15712 0.0
H1016 H 0.27612 0.37197 0.0739 0.0
H1017 H 0.19267 0.49167 0.10822 0.0
H1018 H 0.21856 0.40262 0.12428 0.0
H1019 H 0.23001 0.45002 0.04904 0.0
C1020 C 0.25747 0.42196 0.03749 0.0
C1021 C 0.27127 0.40004 0.04418 0.0
C1022 C 0.21269 0.42207 0.12066 0.0
C1023 C 0.23598 0.4217 0.07843 0.0
C1024 C 0.19881 0.43533 0.13935 0.0
C1025 C 0.19162 0.46086 0.13554 0.0
C1026 C 0.21931 0.43431 0.09785 0.0
C1027 C 0.19789 0.4721 0.11211 0.0
C1028 C 0.23994 0.4328 0.05448 0.0
C1029 C 0.26605 0.38891 0.06793 0.0
N1030 N 0.21143 0.45881 0.09425 0.0
N1031 N 0.24895 0.39995 0.08426 0.0
H1032 H 0.93029 0.58055 0.83965 0.0
H1033 H 0.96439 0.66535 0.7173 0.0
H1034 H 0.88359 0.58654 0.77262 0.0
H1035 H 0.01441 0.65871 0.78181 0.0
H1036 H 0.93374 0.63807 0.73885 0.0
H1037 H 0.96057 0.6106 0.82036 0.0
C1038 C 0.92634 0.58823 0.82098 0.0
C1039 C 0.90439 0.5809 0.80772 0.0
C1040 C 0.95137 0.64259 0.74839 0.0
C1041 C 0.93886 0.61521 0.78559 0.0
C1042 C 0.96893 0.65823 0.73606 0.0
C1043 C 0.99212 0.66431 0.74767 0.0
C1044 C 0.95692 0.63279 0.7726 0.0
C1045 C 0.99681 0.6545 0.77208 0.0
C1046 C 0.94363 0.60534 0.80997 0.0
C1047 C 0.90026 0.59147 0.78358 0.0
N1048 N 0.97942 0.63916 0.7837 0.0
N1049 N 0.91729 0.60797 0.77334 0.0
H1050 H 0.85826 0.39079 0.22716 0.0
H1051 H 1.00244 0.38025 0.27415 0.0
H1052 H 0.91372 0.44965 0.21302 0.0
H1053 H 0.94181 0.33016 0.29775 0.0
H1054 H 0.97257 0.40243 0.24616 0.0
H1055 H 0.89099 0.36502 0.24703 0.0
C1056 C 0.87743 0.39825 0.22803 0.0
C1057 C 0.88315 0.4226 0.21862 0.0
C1058 C 0.96591 0.38643 0.25729 0.0
C1059 C 0.92095 0.39301 0.24171 0.0
C1060 C 0.98296 0.37366 0.2732 0.0
C1061 C 0.97459 0.35336 0.28849 0.0
C1062 C 0.94035 0.37872 0.25651 0.0
C1063 C 0.94911 0.34577 0.28648 0.0
C1064 C 0.89615 0.38348 0.23946 0.0
C1065 C 0.90844 0.43103 0.22007 0.0
N1066 N 0.93294 0.35849 0.27093 0.0
N1067 N 0.9264 0.41635 0.23166 0.0
H1068 H 0.65915 0.98303 0.33141 0.0
H1069 H 0.58378 0.92876 0.21067 0.0
H1070 H 0.65204 0.02526 0.26149 0.0
H1071 H 0.60306 0.88444 0.27686 0.0
H1072 H 0.60836 0.96455 0.22825 0.0
H1073 H 0.63798 0.94695 0.31128 0.0
C1074 C 0.65318 0.98471 0.31178 0.0
C1075 C 0.65735 1.00726 0.29816 0.0
C1076 C 0.60729 0.9469 0.23878 0.0
C1077 C 0.63289 0.96588 0.27489 0.0
C1078 C 0.5933 0.92647 0.22875 0.0
C1079 C 0.59122 0.90359 0.24236 0.0
C1080 C 0.61911 0.94439 0.26261 0.0
C1081 C 0.60396 0.90171 0.26571 0.0
C1082 C 0.64111 0.96404 0.30024 0.0
C1083 C 0.64924 0.00824 0.27271 0.0
N1084 N 0.61717 0.92182 0.2751 0.0
N1085 N 0.63727 0.98789 0.26193 0.0
H1086 H 0.12354 0.6185 0.2009 0.0
H1087 H 0.02423 0.60201 0.31333 0.0
H1088 H 0.09633 0.54436 0.22322 0.0
H1089 H 0.02903 0.67094 0.26908 0.0
H1090 H 0.05188 0.58056 0.282 0.0
H1091 H 0.08979 0.6383 0.22651 0.0
C1092 C 0.11012 0.60639 0.21083 0.0
C1093 C 0.11265 0.57978 0.20989 0.0
C1094 C 0.04668 0.60032 0.27909 0.0
C1095 C 0.07448 0.6023 0.23989 0.0
C1096 C 0.03106 0.61262 0.29703 0.0
C1097 C 0.02441 0.63836 0.2939 0.0
C1098 C 0.05608 0.61399 0.25811 0.0
C1099 C 0.03367 0.65111 0.27231 0.0
C1100 C 0.09091 0.61769 0.22549 0.0
C1101 C 0.09487 0.56496 0.22325 0.0
N1102 N 0.04922 0.63889 0.25542 0.0
N1103 N 0.07677 0.57643 0.23809 0.0
H1104 H 0.44244 0.19384 0.22336 0.0
H1105 H 0.38038 0.05945 0.25856 0.0
H1106 H 0.45991 0.12519 0.18083 0.0
H1107 H 0.39563 0.11915 0.31321 0.0
H1108 H 0.39959 0.086 0.225 0.0
H1109 H 0.41465 0.16916 0.25119 0.0
C1110 C 0.44016 0.17364 0.21959 0.0
C1111 C 0.45382 0.16151 0.19989 0.0
C1112 C 0.39842 0.09329 0.24432 0.0
C1113 C 0.42192 0.1332 0.23176 0.0
C1114 C 0.38739 0.07827 0.26338 0.0
C1115 C 0.38665 0.08711 0.28866 0.0
C1116 C 0.40815 0.11743 0.25062 0.0
C1117 C 0.39608 0.11154 0.29399 0.0
C1118 C 0.42435 0.15957 0.23558 0.0
C1119 C 0.44995 0.13527 0.19595 0.0
N1120 N 0.40641 0.12584 0.27515 0.0
N1121 N 0.43445 0.12191 0.21187 0.0
H1122 H 0.12547 0.42347 0.67515 0.0
H1123 H 0.14943 0.50289 0.80352 0.0
H1124 H 0.06564 0.43723 0.73024 0.0
H1125 H 0.2088 0.468 0.75798 0.0
H1126 H 0.11763 0.48275 0.77573 0.0
H1127 H 0.15544 0.44472 0.70343 0.0
C1128 C 0.11854 0.43118 0.69308 0.0
C1129 C 0.09297 0.42845 0.7003 0.0
C1130 C 0.13765 0.47946 0.772 0.0
C1131 C 0.12738 0.45277 0.73302 0.0
C1132 C 0.15579 0.49086 0.78789 0.0
C1133 C 0.18187 0.48717 0.78313 0.0
C1134 C 0.14569 0.46457 0.75106 0.0
C1135 C 0.18897 0.47147 0.76248 0.0
C1136 C 0.13573 0.44319 0.70934 0.0
C1137 C 0.08519 0.43884 0.72389 0.0
N1138 N 0.17106 0.46096 0.74719 0.0
N1139 N 0.10233 0.45052 0.73942 0.0
H1140 H 0.59882 0.17444 0.85181 0.0
H1141 H 0.64124 0.03586 0.80328 0.0
H1142 H 0.54733 0.11064 0.84655 0.0
H1143 H 0.68031 0.10491 0.78189 0.0
H1144 H 0.61169 0.06122 0.82912 0.0
H1145 H 0.63329 0.14712 0.83612 0.0
C1146 C 0.5948 0.15457 0.8478 0.0
C1147 C 0.56999 0.1449 0.85032 0.0
C1148 C 0.62696 0.07076 0.81906 0.0
C1149 C 0.60956 0.11353 0.83236 0.0
C1150 C 0.64401 0.0563 0.80442 0.0
C1151 C 0.66326 0.06828 0.79016 0.0
C1152 C 0.62928 0.09739 0.81977 0.0
C1153 C 0.66571 0.09487 0.79241 0.0
C1154 C 0.61452 0.13905 0.83871 0.0
C1155 C 0.56607 0.11897 0.84477 0.0
N1156 N 0.64881 0.10854 0.80679 0.0
N1157 N 0.58561 0.10422 0.83594 0.0
H1158 H 0.50076 0.86776 0.7494 0.0
H1159 H 0.3619 0.926 0.73349 0.0
H1160 H 0.43866 0.85426 0.80178 0.0
H1161 H 0.42223 0.93641 0.67842 0.0
H1162 H 0.38839 0.89536 0.75591 0.0
H1163 H 0.47096 0.88771 0.72006 0.0
C1164 C 0.48079 0.86849 0.75453 0.0
C1165 C 0.4723 0.85971 0.77832 0.0
C1166 C 0.3958 0.90415 0.73881 0.0
C1167 C 0.43815 0.8829 0.74495 0.0
C1168 C 0.38069 0.92175 0.72602 0.0
C1169 C 0.38998 0.93405 0.70422 0.0
C1170 C 0.42052 0.89892 0.72989 0.0
C1171 C 0.41438 0.92753 0.69528 0.0
C1172 C 0.46379 0.88002 0.73779 0.0
C1173 C 0.44616 0.86105 0.78381 0.0
N1174 N 0.42891 0.91062 0.70831 0.0
N1175 N 0.4301 0.87281 0.76745 0.0
loop_
_geom_bond_atom_site_label_1
_geom_bond_atom_site_label_2
_geom_bond_distance
_geom_bond_site_symmetry_2
_ccdc_geom_bond_type
Mg0 O7 2.141 . S
Mg0 O8 2.048 1_545 S
Mg0 O9 2.048 1_545 S
Mg0 O12 2.141 . S
C1 O2 1.313 . S
C1 O8 1.195 . S
O2 C1 1.313 . S
C3 O4 1.245 . S
C3 O12 1.289 . S
O4 C3 1.245 . S
C5 O6 1.245 . S
C5 O7 1.289 . S
O6 C5 1.245 . S
O7 Mg0 2.141 . S
O7 C5 1.289 . S
O8 Mg0 2.048 1_565 S
O8 C1 1.195 . S
O9 Mg0 2.048 1_565 S
O9 C10 1.195 . S
C10 O9 1.195 . S
C10 O11 1.313 . S
O11 C10 1.313 . S
O12 Mg0 2.141 . S
O12 C3 1.289 . S
Mg13 O20 2.141 . S
Mg13 O21 2.048 1_455 S
Mg13 O22 2.048 1_455 S
Mg13 O25 2.141 . S
C14 O15 1.313 . S
C14 O21 1.195 . S
O15 C14 1.313 . S
C16 O17 1.245 . S
C16 O25 1.289 . S
O17 C16 1.245 . S
C18 O19 1.245 . S
C18 O20 1.289 . S
O19 C18 1.245 . S
O20 Mg13 2.141 . S
O20 C18 1.289 . S
O21 Mg13 2.048 1_655 S
O21 C14 1.195 . S
O22 Mg13 2.048 1_655 S
O22 C23 1.195 . S
C23 O22 1.195 . S
C23 O24 1.313 . S
O24 C23 1.313 . S
O25 Mg13 2.141 . S
O25 C16 1.289 . S
Mg26 O33 2.141 1_545 S
Mg26 O34 2.048 . S
Mg26 O35 2.048 . S
Mg26 O38 2.141 1_545 S
C27 O28 1.313 . S
C27 O34 1.195 . S
O28 C27 1.313 . S
C29 O30 1.245 . S
C29 O38 1.289 . S
O30 C29 1.245 . S
C31 O32 1.245 . S
C31 O33 1.289 . S
O32 C31 1.245 . S
O33 Mg26 2.141 1_565 S
O33 C31 1.289 . S
O34 Mg26 2.048 . S
O34 C27 1.195 . S
O35 Mg26 2.048 . S
O35 C36 1.195 . S
C36 O35 1.195 . S
C36 O37 1.313 . S
O37 C36 1.313 . S
O38 Mg26 2.141 1_565 S
O38 C29 1.289 . S
Mg39 O46 2.141 1_455 S
Mg39 O47 2.048 . S
Mg39 O48 2.048 . S
Mg39 O51 2.141 1_455 S
C40 O41 1.313 . S
C40 O47 1.195 . S
O41 C40 1.313 . S
C42 O43 1.245 . S
C42 O51 1.289 . S
O43 C42 1.245 . S
C44 O45 1.245 . S
C44 O46 1.289 . S
O45 C44 1.245 . S
O46 Mg39 2.141 1_655 S
O46 C44 1.289 . S
O47 Mg39 2.048 . S
O47 C40 1.195 . S
O48 Mg39 2.048 . S
O48 C49 1.195 . S
C49 O48 1.195 . S
C49 O50 1.313 . S
O50 C49 1.313 . S
O51 Mg39 2.141 1_655 S
O51 C42 1.289 . S
Mg52 O59 2.141 1_545 S
Mg52 O60 2.048 . S
Mg52 O61 2.048 . S
Mg52 O64 2.141 1_545 S
C53 O54 1.313 . S
C53 O60 1.195 . S
O54 C53 1.313 . S
C55 O56 1.245 . S
C55 O64 1.289 . S
O56 C55 1.245 . S
C57 O58 1.245 . S
C57 O59 1.289 . S
O58 C57 1.245 . S
O59 Mg52 2.141 1_565 S
O59 C57 1.289 . S
O60 Mg52 2.048 . S
O60 C53 1.195 . S
O61 Mg52 2.048 . S
O61 C62 1.195 . S
C62 O61 1.195 . S
C62 O63 1.313 . S
O63 C62 1.313 . S
O64 Mg52 2.141 1_565 S
O64 C55 1.289 . S
Mg65 O72 2.141 . S
Mg65 O73 2.048 1_455 S
Mg65 O74 2.048 1_455 S
Mg65 O77 2.141 . S
C66 O67 1.313 . S
C66 O73 1.195 . S
O67 C66 1.313 . S
C68 O69 1.245 . S
C68 O77 1.289 . S
O69 C68 1.245 . S
C70 O71 1.245 . S
C70 O72 1.289 . S
O71 C70 1.245 . S
O72 Mg65 2.141 . S
O72 C70 1.289 . S
O73 Mg65 2.048 1_655 S
O73 C66 1.195 . S
O74 Mg65 2.048 1_655 S
O74 C75 1.195 . S
C75 O74 1.195 . S
C75 O76 1.313 . S
O76 C75 1.313 . S
O77 Mg65 2.141 . S
O77 C68 1.289 . S
Mg78 O85 2.141 . S
Mg78 O86 2.048 1_545 S
Mg78 O87 2.048 1_545 S
Mg78 O90 2.141 . S
C79 O80 1.313 . S
C79 O86 1.195 . S
O80 C79 1.313 . S
C81 O82 1.245 . S
C81 O90 1.289 . S
O82 C81 1.245 . S
C83 O84 1.245 . S
C83 O85 1.289 . S
O84 C83 1.245 . S
O85 Mg78 2.141 . S
O85 C83 1.289 . S
O86 Mg78 2.048 1_565 S
O86 C79 1.195 . S
O87 Mg78 2.048 1_565 S
O87 C88 1.195 . S
C88 O87 1.195 . S
C88 O89 1.313 . S
O89 C88 1.313 . S
O90 Mg78 2.141 . S
O90 C81 1.289 . S
Mg91 O98 2.141 1_455 S
Mg91 O99 2.048 . S
Mg91 O100 2.048 . S
Mg91 O103 2.141 1_455 S
C92 O93 1.313 . S
C92 O99 1.195 . S
O93 C92 1.313 . S
C94 O95 1.245 . S
C94 O103 1.289 . S
O95 C94 1.245 . S
C96 O97 1.245 . S
C96 O98 1.289 . S
O97 C96 1.245 . S
O98 Mg91 2.141 1_655 S
O98 C96 1.289 . S
O99 Mg91 2.048 . S
O99 C92 1.195 . S
O100 Mg91 2.048 . S
O100 C101 1.195 . S
C101 O100 1.195 . S
C101 O102 1.313 . S
O102 C101 1.313 . S
O103 Mg91 2.141 1_655 S
O103 C94 1.289 . S
Mg104 O111 2.141 . S
Mg104 O112 2.048 1_554 S
Mg104 O113 2.048 1_554 S
Mg104 O116 2.141 . S
C105 O106 1.313 . S
C105 O112 1.195 . S
O106 C105 1.313 . S
C107 O108 1.245 . S
C107 O116 1.289 . S
O108 C107 1.245 . S
C109 O110 1.245 . S
C109 O111 1.289 . S
O110 C109 1.245 . S
O111 Mg104 2.141 . S
O111 C109 1.289 . S
O112 Mg104 2.048 1_556 S
O112 C105 1.195 . S
O113 Mg104 2.048 1_556 S
O113 C114 1.195 . S
C114 O113 1.195 . S
C114 O115 1.313 . S
O115 C114 1.313 . S
O116 Mg104 2.141 . S
O116 C107 1.289 . S
Mg117 O124 2.141 1_554 S
Mg117 O125 2.048 . S
Mg117 O126 2.048 . S
Mg117 O129 2.141 1_554 S
C118 O119 1.313 . S
C118 O125 1.195 . S
O119 C118 1.313 . S
C120 O121 1.245 . S
C120 O129 1.289 . S
O121 C120 1.245 . S
C122 O123 1.245 . S
C122 O124 1.289 . S
O123 C122 1.245 . S
O124 Mg117 2.141 1_556 S
O124 C122 1.289 . S
O125 Mg117 2.048 . S
O125 C118 1.195 . S
O126 Mg117 2.048 . S
O126 C127 1.195 . S
C127 O126 1.195 . S
C127 O128 1.313 . S
O128 C127 1.313 . S
O129 Mg117 2.141 1_556 S
O129 C120 1.289 . S
Mg130 O137 2.141 1_554 S
Mg130 O138 2.048 . S
Mg130 O139 2.048 . S
Mg130 O142 2.141 1_554 S
C131 O132 1.313 . S
C131 O138 1.195 . S
O132 C131 1.313 . S
C133 O134 1.245 . S
C133 O142 1.289 . S
O134 C133 1.245 . S
C135 O136 1.245 . S
C135 O137 1.289 . S
O136 C135 1.245 . S
O137 Mg130 2.141 1_556 S
O137 C135 1.289 . S
O138 Mg130 2.048 . S
O138 C131 1.195 . S
O139 Mg130 2.048 . S
O139 C140 1.195 . S
C140 O139 1.195 . S
C140 O141 1.313 . S
O141 C140 1.313 . S
O142 Mg130 2.141 1_556 S
O142 C133 1.289 . S
Mg143 O150 2.141 . S
Mg143 O151 2.048 1_554 S
Mg143 O152 2.048 1_554 S
Mg143 O155 2.141 . S
C144 O145 1.313 . S
C144 O151 1.195 . S
O145 C144 1.313 . S
C146 O147 1.245 . S
C146 O155 1.289 . S
O147 C146 1.245 . S
C148 O149 1.245 . S
C148 O150 1.289 . S
O149 C148 1.245 . S
O150 Mg143 2.141 . S
O150 C148 1.289 . S
O151 Mg143 2.048 1_556 S
O151 C144 1.195 . S
O152 Mg143 2.048 1_556 S
O152 C153 1.195 . S
C153 O152 1.195 . S
C153 O154 1.313 . S
O154 C153 1.313 . S
O155 Mg143 2.141 . S
O155 C146 1.289 . S
Mg156 O163 2.141 . S
Mg156 O164 2.048 . S
Mg156 O165 2.048 . S
Mg156 O168 2.141 . S
C157 O158 1.313 . S
C157 O164 1.195 . S
O158 C157 1.313 . S
C159 O160 1.245 . S
C159 O168 1.289 . S
O160 C159 1.245 . S
C161 O162 1.245 . S
C161 O163 1.289 . S
O162 C161 1.245 . S
O163 Mg156 2.141 . S
O163 C161 1.289 . S
O164 Mg156 2.048 . S
O164 C157 1.195 . S
O165 Mg156 2.048 . S
O165 C166 1.195 . S
C166 O165 1.195 . S
C166 O167 1.313 . S
O167 C166 1.313 . S
O168 Mg156 2.141 . S
O168 C159 1.289 . S
Mg169 O176 2.141 . S
Mg169 O177 2.048 . S
Mg169 O178 2.048 . S
Mg169 O181 2.141 . S
C170 O171 1.313 . S
C170 O177 1.195 . S
O171 C170 1.313 . S
C172 O173 1.245 . S
C172 O181 1.289 . S
O173 C172 1.245 . S
C174 O175 1.245 . S
C174 O176 1.289 . S
O175 C174 1.245 . S
O176 Mg169 2.141 . S
O176 C174 1.289 . S
O177 Mg169 2.048 . S
O177 C170 1.195 . S
O178 Mg169 2.048 . S
O178 C179 1.195 . S
C179 O178 1.195 . S
C179 O180 1.313 . S
O180 C179 1.313 . S
O181 Mg169 2.141 . S
O181 C172 1.289 . S
Mg182 O189 2.141 . S
Mg182 O190 2.048 . S
Mg182 O191 2.048 . S
Mg182 O194 2.141 . S
C183 O184 1.313 . S
C183 O190 1.195 . S
O184 C183 1.313 . S
C185 O186 1.245 . S
C185 O194 1.289 . S
O186 C185 1.245 . S
C187 O188 1.245 . S
C187 O189 1.289 . S
O188 C187 1.245 . S
O189 Mg182 2.141 . S
O189 C187 1.289 . S
O190 Mg182 2.048 . S
O190 C183 1.195 . S
O191 Mg182 2.048 . S
O191 C192 1.195 . S
C192 O191 1.195 . S
C192 O193 1.313 . S
O193 C192 1.313 . S
O194 Mg182 2.141 . S
O194 C185 1.289 . S
Mg195 O202 2.141 . S
Mg195 O203 2.048 . S
Mg195 O204 2.048 . S
Mg195 O207 2.141 . S
C196 O197 1.313 . S
C196 O203 1.195 . S
O197 C196 1.313 . S
C198 O199 1.245 . S
C198 O207 1.289 . S
O199 C198 1.245 . S
C200 O201 1.245 . S
C200 O202 1.289 . S
O201 C200 1.245 . S
O202 Mg195 2.141 . S
O202 C200 1.289 . S
O203 Mg195 2.048 . S
O203 C196 1.195 . S
O204 Mg195 2.048 . S
O204 C205 1.195 . S
C205 O204 1.195 . S
C205 O206 1.313 . S
O206 C205 1.313 . S
O207 Mg195 2.141 . S
O207 C198 1.289 . S
Mg208 O215 2.141 . S
Mg208 O216 2.048 . S
Mg208 O217 2.048 . S
Mg208 O220 2.141 . S
C209 O210 1.313 . S
C209 O216 1.195 . S
O210 C209 1.313 . S
C211 O212 1.245 . S
C211 O220 1.289 . S
O212 C211 1.245 . S
C213 O214 1.245 . S
C213 O215 1.289 . S
O214 C213 1.245 . S
O215 Mg208 2.141 . S
O215 C213 1.289 . S
O216 Mg208 2.048 . S
O216 C209 1.195 . S
O217 Mg208 2.048 . S
O217 C218 1.195 . S
C218 O217 1.195 . S
C218 O219 1.313 . S
O219 C218 1.313 . S
O220 Mg208 2.141 . S
O220 C211 1.289 . S
Mg221 O228 2.141 . S
Mg221 O229 2.048 . S
Mg221 O230 2.048 . S
Mg221 O233 2.141 . S
C222 O223 1.313 . S
C222 O229 1.195 . S
O223 C222 1.313 . S
C224 O225 1.245 . S
C224 O233 1.289 . S
O225 C224 1.245 . S
C226 O227 1.245 . S
C226 O228 1.289 . S
O227 C226 1.245 . S
O228 Mg221 2.141 . S
O228 C226 1.289 . S
O229 Mg221 2.048 . S
O229 C222 1.195 . S
O230 Mg221 2.048 . S
O230 C231 1.195 . S
C231 O230 1.195 . S
C231 O232 1.313 . S
O232 C231 1.313 . S
O233 Mg221 2.141 . S
O233 C224 1.289 . S
Mg234 O241 2.141 . S
Mg234 O242 2.048 . S
Mg234 O243 2.048 . S
Mg234 O246 2.141 . S
C235 O236 1.313 . S
C235 O242 1.195 . S
O236 C235 1.313 . S
C237 O238 1.245 . S
C237 O246 1.289 . S
O238 C237 1.245 . S
C239 O240 1.245 . S
C239 O241 1.289 . S
O240 C239 1.245 . S
O241 Mg234 2.141 . S
O241 C239 1.289 . S
O242 Mg234 2.048 . S
O242 C235 1.195 . S
O243 Mg234 2.048 . S
O243 C244 1.195 . S
C244 O243 1.195 . S
C244 O245 1.313 . S
O245 C244 1.313 . S
O246 Mg234 2.141 . S
O246 C237 1.289 . S
Mg247 O254 2.141 . S
Mg247 O255 2.048 . S
Mg247 O256 2.048 . S
Mg247 O259 2.141 . S
C248 O249 1.313 . S
C248 O255 1.195 . S
O249 C248 1.313 . S
C250 O251 1.245 . S
C250 O259 1.289 . S
O251 C250 1.245 . S
C252 O253 1.245 . S
C252 O254 1.289 . S
O253 C252 1.245 . S
O254 Mg247 2.141 . S
O254 C252 1.289 . S
O255 Mg247 2.048 . S
O255 C248 1.195 . S
O256 Mg247 2.048 . S
O256 C257 1.195 . S
C257 O256 1.195 . S
C257 O258 1.313 . S
O258 C257 1.313 . S
O259 Mg247 2.141 . S
O259 C250 1.289 . S
Mg260 O267 2.141 . S
Mg260 O268 2.048 . S
Mg260 O269 2.048 . S
Mg260 O272 2.141 . S
C261 O262 1.313 . S
C261 O268 1.195 . S
O262 C261 1.313 . S
C263 O264 1.245 . S
C263 O272 1.289 . S
O264 C263 1.245 . S
C265 O266 1.245 . S
C265 O267 1.289 . S
O266 C265 1.245 . S
O267 Mg260 2.141 . S
O267 C265 1.289 . S
O268 Mg260 2.048 . S
O268 C261 1.195 . S
O269 Mg260 2.048 . S
O269 C270 1.195 . S
C270 O269 1.195 . S
C270 O271 1.313 . S
O271 C270 1.313 . S
O272 Mg260 2.141 . S
O272 C263 1.289 . S
Mg273 O280 2.141 . S
Mg273 O281 2.048 . S
Mg273 O282 2.048 . S
Mg273 O285 2.141 . S
C274 O275 1.313 . S
C274 O281 1.195 . S
O275 C274 1.313 . S
C276 O277 1.245 . S
C276 O285 1.289 . S
O277 C276 1.245 . S
C278 O279 1.245 . S
C278 O280 1.289 . S
O279 C278 1.245 . S
O280 Mg273 2.141 . S
O280 C278 1.289 . S
O281 Mg273 2.048 . S
O281 C274 1.195 . S
O282 Mg273 2.048 . S
O282 C283 1.195 . S
C283 O282 1.195 . S
C283 O284 1.313 . S
O284 C283 1.313 . S
O285 Mg273 2.141 . S
O285 C276 1.289 . S
Mg286 O293 2.141 . S
Mg286 O294 2.048 . S
Mg286 O295 2.048 . S
Mg286 O298 2.141 . S
C287 O288 1.313 . S
C287 O294 1.195 . S
O288 C287 1.313 . S
C289 O290 1.245 . S
C289 O298 1.289 . S
O290 C289 1.245 . S
C291 O292 1.245 . S
C291 O293 1.289 . S
O292 C291 1.245 . S
O293 Mg286 2.141 . S
O293 C291 1.289 . S
O294 Mg286 2.048 . S
O294 C287 1.195 . S
O295 Mg286 2.048 . S
O295 C296 1.195 . S
C296 O295 1.195 . S
C296 O297 1.313 . S
O297 C296 1.313 . S
O298 Mg286 2.141 . S
O298 C289 1.289 . S
Mg299 O306 2.141 . S
Mg299 O307 2.048 . S
Mg299 O308 2.048 . S
Mg299 O311 2.141 . S
C300 O301 1.313 . S
C300 O307 1.195 . S
O301 C300 1.313 . S
C302 O303 1.245 . S
C302 O311 1.289 . S
O303 C302 1.245 . S
C304 O305 1.245 . S
C304 O306 1.289 . S
O305 C304 1.245 . S
O306 Mg299 2.141 . S
O306 C304 1.289 . S
O307 Mg299 2.048 . S
O307 C300 1.195 . S
O308 Mg299 2.048 . S
O308 C309 1.195 . S
C309 O308 1.195 . S
C309 O310 1.313 . S
O310 C309 1.313 . S
O311 Mg299 2.141 . S
O311 C302 1.289 . S
H312 C318 0.930 . S
H313 C322 0.930 . S
H314 C327 0.929 . S
H315 C325 0.929 . S
H316 C320 0.929 . S
H317 C326 0.929 . S
C318 H312 0.930 . S
C318 C319 1.367 . S
C318 C326 1.378 . S
C319 C318 1.367 . S
C319 C327 1.433 . S
C320 H316 0.929 . S
C320 C322 1.378 . S
C320 C324 1.350 . S
C321 C324 1.463 . S
C321 C326 1.350 . S
C321 N329 1.427 . S
C322 H313 0.930 . S
C322 C320 1.378 . S
C322 C323 1.367 . S
C323 C322 1.367 . S
C323 C325 1.433 . S
C324 C320 1.350 . S
C324 C321 1.463 . S
C324 N328 1.427 . S
C325 H315 0.929 . S
C325 C323 1.433 . S
C325 N328 1.384 . S
C326 H317 0.929 . S
C326 C318 1.378 . S
C326 C321 1.350 . S
C327 H314 0.929 . S
C327 C319 1.433 . S
C327 N329 1.384 . S
N328 C324 1.427 . S
N328 C325 1.384 . S
N329 C321 1.427 . S
N329 C327 1.384 . S
H330 C336 0.930 . S
H331 C340 0.930 . S
H332 C345 0.929 . S
H333 C343 0.929 . S
H334 C338 0.929 . S
H335 C344 0.929 . S
C336 H330 0.930 . S
C336 C337 1.367 . S
C336 C344 1.378 . S
C337 C336 1.367 . S
C337 C345 1.433 . S
C338 H334 0.929 . S
C338 C340 1.378 . S
C338 C342 1.350 . S
C339 C342 1.463 . S
C339 C344 1.350 . S
C339 N347 1.427 . S
C340 H331 0.930 . S
C340 C338 1.378 . S
C340 C341 1.367 . S
C341 C340 1.367 . S
C341 C343 1.433 . S
C342 C338 1.350 . S
C342 C339 1.463 . S
C342 N346 1.427 . S
C343 H333 0.929 . S
C343 C341 1.433 . S
C343 N346 1.384 . S
C344 H335 0.929 . S
C344 C336 1.378 . S
C344 C339 1.350 . S
C345 H332 0.929 . S
C345 C337 1.433 . S
C345 N347 1.384 . S
N346 C342 1.427 . S
N346 C343 1.384 . S
N347 C339 1.427 . S
N347 C345 1.384 . S
H348 C354 0.930 . S
H349 C358 0.930 . S
H350 C363 0.929 . S
H351 C361 0.929 . S
H352 C356 0.929 . S
H353 C362 0.929 . S
C354 H348 0.930 . S
C354 C355 1.367 . S
C354 C362 1.378 . S
C355 C354 1.367 . S
C355 C363 1.433 . S
C356 H352 0.929 . S
C356 C358 1.378 . S
C356 C360 1.350 . S
C357 C360 1.463 . S
C357 C362 1.350 . S
C357 N365 1.427 . S
C358 H349 0.930 . S
C358 C356 1.378 . S
C358 C359 1.367 . S
C359 C358 1.367 . S
C359 C361 1.433 . S
C360 C356 1.350 . S
C360 C357 1.463 . S
C360 N364 1.427 . S
C361 H351 0.929 . S
C361 C359 1.433 . S
C361 N364 1.384 . S
C362 H353 0.929 . S
C362 C354 1.378 . S
C362 C357 1.350 . S
C363 H350 0.929 . S
C363 C355 1.433 . S
C363 N365 1.384 . S
N364 C360 1.427 . S
N364 C361 1.384 . S
N365 C357 1.427 . S
N365 C363 1.384 . S
H366 C372 0.930 . S
H367 C376 0.930 . S
H368 C381 0.929 . S
H369 C379 0.929 . S
H370 C374 0.929 . S
H371 C380 0.929 . S
C372 H366 0.930 . S
C372 C373 1.367 . S
C372 C380 1.378 . S
C373 C372 1.367 . S
C373 C381 1.433 . S
C374 H370 0.929 . S
C374 C376 1.378 . S
C374 C378 1.350 . S
C375 C378 1.463 . S
C375 C380 1.350 . S
C375 N383 1.427 . S
C376 H367 0.930 . S
C376 C374 1.378 . S
C376 C377 1.367 . S
C377 C376 1.367 . S
C377 C379 1.433 . S
C378 C374 1.350 . S
C378 C375 1.463 . S
C378 N382 1.427 . S
C379 H369 0.929 . S
C379 C377 1.433 . S
C379 N382 1.384 . S
C380 H371 0.929 . S
C380 C372 1.378 . S
C380 C375 1.350 . S
C381 H368 0.929 . S
C381 C373 1.433 . S
C381 N383 1.384 . S
N382 C378 1.427 . S
N382 C379 1.384 . S
N383 C375 1.427 . S
N383 C381 1.384 . S
H384 C390 0.930 . S
H385 C394 0.930 . S
H386 C399 0.929 . S
H387 C397 0.929 . S
H388 C392 0.929 . S
H389 C398 0.929 . S
C390 H384 0.930 . S
C390 C391 1.367 . S
C390 C398 1.378 . S
C391 C390 1.367 . S
C391 C399 1.433 . S
C392 H388 0.929 . S
C392 C394 1.378 . S
C392 C396 1.350 . S
C393 C396 1.463 . S
C393 C398 1.350 . S
C393 N401 1.427 . S
C394 H385 0.930 . S
C394 C392 1.378 . S
C394 C395 1.367 . S
C395 C394 1.367 . S
C395 C397 1.433 . S
C396 C392 1.350 . S
C396 C393 1.463 . S
C396 N400 1.427 . S
C397 H387 0.929 . S
C397 C395 1.433 . S
C397 N400 1.384 . S
C398 H389 0.929 . S
C398 C390 1.378 . S
C398 C393 1.350 . S
C399 H386 0.929 . S
C399 C391 1.433 . S
C399 N401 1.384 . S
N400 C396 1.427 . S
N400 C397 1.384 . S
N401 C393 1.427 . S
N401 C399 1.384 . S
H402 C408 0.930 . S
H403 C412 0.930 . S
H404 C417 0.929 . S
H405 C415 0.929 . S
H406 C410 0.929 . S
H407 C416 0.929 . S
C408 H402 0.930 . S
C408 C409 1.367 . S
C408 C416 1.378 . S
C409 C408 1.367 . S
C409 C417 1.433 . S
C410 H406 0.929 . S
C410 C412 1.378 . S
C410 C414 1.350 . S
C411 C414 1.463 . S
C411 C416 1.350 . S
C411 N419 1.427 . S
C412 H403 0.930 . S
C412 C410 1.378 . S
C412 C413 1.367 . S
C413 C412 1.367 . S
C413 C415 1.433 . S
C414 C410 1.350 . S
C414 C411 1.463 . S
C414 N418 1.427 . S
C415 H405 0.929 . S
C415 C413 1.433 . S
C415 N418 1.384 . S
C416 H407 0.929 . S
C416 C408 1.378 . S
C416 C411 1.350 . S
C417 H404 0.929 . S
C417 C409 1.433 . S
C417 N419 1.384 . S
N418 C414 1.427 . S
N418 C415 1.384 . S
N419 C411 1.427 . S
N419 C417 1.384 . S
H420 C426 0.930 . S
H421 C430 0.930 . S
H422 C435 0.929 . S
H423 C433 0.929 . S
H424 C428 0.929 . S
H425 C434 0.929 . S
C426 H420 0.930 . S
C426 C427 1.367 . S
C426 C434 1.378 . S
C427 C426 1.367 . S
C427 C435 1.433 . S
C428 H424 0.929 . S
C428 C430 1.378 . S
C428 C432 1.350 . S
C429 C432 1.463 . S
C429 C434 1.350 . S
C429 N437 1.427 . S
C430 H421 0.930 . S
C430 C428 1.378 . S
C430 C431 1.367 . S
C431 C430 1.367 . S
C431 C433 1.433 . S
C432 C428 1.350 . S
C432 C429 1.463 . S
C432 N436 1.427 . S
C433 H423 0.929 . S
C433 C431 1.433 . S
C433 N436 1.384 . S
C434 H425 0.929 . S
C434 C426 1.378 . S
C434 C429 1.350 . S
C435 H422 0.929 . S
C435 C427 1.433 . S
C435 N437 1.384 . S
N436 C432 1.427 . S
N436 C433 1.384 . S
N437 C429 1.427 . S
N437 C435 1.384 . S
H438 C444 0.930 . S
H439 C448 0.930 . S
H440 C453 0.929 . S
H441 C451 0.929 . S
H442 C446 0.929 . S
H443 C452 0.929 . S
C444 H438 0.930 . S
C444 C445 1.367 . S
C444 C452 1.378 . S
C445 C444 1.367 . S
C445 C453 1.433 . S
C446 H442 0.929 . S
C446 C448 1.378 . S
C446 C450 1.350 . S
C447 C450 1.463 . S
C447 C452 1.350 . S
C447 N455 1.427 . S
C448 H439 0.930 . S
C448 C446 1.378 . S
C448 C449 1.367 . S
C449 C448 1.367 . S
C449 C451 1.433 . S
C450 C446 1.350 . S
C450 C447 1.463 . S
C450 N454 1.427 . S
C451 H441 0.929 . S
C451 C449 1.433 . S
C451 N454 1.384 . S
C452 H443 0.929 . S
C452 C444 1.378 . S
C452 C447 1.350 . S
C453 H440 0.929 . S
C453 C445 1.433 . S
C453 N455 1.384 . S
N454 C450 1.427 . S
N454 C451 1.384 . S
N455 C447 1.427 . S
N455 C453 1.384 . S
H456 C462 0.930 . S
H457 C466 0.930 . S
H458 C471 0.929 . S
H459 C469 0.929 . S
H460 C464 0.929 . S
H461 C470 0.929 . S
C462 H456 0.930 . S
C462 C463 1.367 . S
C462 C470 1.378 . S
C463 C462 1.367 . S
C463 C471 1.433 . S
C464 H460 0.929 . S
C464 C466 1.378 . S
C464 C468 1.350 . S
C465 C468 1.463 . S
C465 C470 1.350 . S
C465 N473 1.427 . S
C466 H457 0.930 . S
C466 C464 1.378 . S
C466 C467 1.367 . S
C467 C466 1.367 . S
C467 C469 1.433 . S
C468 C464 1.350 . S
C468 C465 1.463 . S
C468 N472 1.427 . S
C469 H459 0.929 . S
C469 C467 1.433 . S
C469 N472 1.384 . S
C470 H461 0.929 . S
C470 C462 1.378 . S
C470 C465 1.350 . S
C471 H458 0.929 . S
C471 C463 1.433 . S
C471 N473 1.384 . S
N472 C468 1.427 . S
N472 C469 1.384 . S
N473 C465 1.427 . S
N473 C471 1.384 . S
H474 C480 0.930 . S
H475 C484 0.930 . S
H476 C489 0.929 . S
H477 C487 0.929 . S
H478 C482 0.929 . S
H479 C488 0.929 . S
C480 H474 0.930 . S
C480 C481 1.367 . S
C480 C488 1.378 . S
C481 C480 1.367 . S
C481 C489 1.433 . S
C482 H478 0.929 . S
C482 C484 1.378 . S
C482 C486 1.350 . S
C483 C486 1.463 . S
C483 C488 1.350 . S
C483 N491 1.427 . S
C484 H475 0.930 . S
C484 C482 1.378 . S
C484 C485 1.367 . S
C485 C484 1.367 . S
C485 C487 1.433 . S
C486 C482 1.350 . S
C486 C483 1.463 . S
C486 N490 1.427 . S
C487 H477 0.929 . S
C487 C485 1.433 . S
C487 N490 1.384 . S
C488 H479 0.929 . S
C488 C480 1.378 . S
C488 C483 1.350 . S
C489 H476 0.929 . S
C489 C481 1.433 . S
C489 N491 1.384 . S
N490 C486 1.427 . S
N490 C487 1.384 . S
N491 C483 1.427 . S
N491 C489 1.384 . S
H492 C498 0.930 . S
H493 C502 0.930 . S
H494 C507 0.929 . S
H495 C505 0.929 . S
H496 C500 0.929 . S
H497 C506 0.929 . S
C498 H492 0.930 . S
C498 C499 1.367 . S
C498 C506 1.378 . S
C499 C498 1.367 . S
C499 C507 1.433 . S
C500 H496 0.929 . S
C500 C502 1.378 . S
C500 C504 1.350 . S
C501 C504 1.463 . S
C501 C506 1.350 . S
C501 N509 1.427 . S
C502 H493 0.930 . S
C502 C500 1.378 . S
C502 C503 1.367 . S
C503 C502 1.367 . S
C503 C505 1.433 . S
C504 C500 1.350 . S
C504 C501 1.463 . S
C504 N508 1.427 . S
C505 H495 0.929 . S
C505 C503 1.433 . S
C505 N508 1.384 . S
C506 H497 0.929 . S
C506 C498 1.378 . S
C506 C501 1.350 . S
C507 H494 0.929 . S
C507 C499 1.433 . S
C507 N509 1.384 . S
N508 C504 1.427 . S
N508 C505 1.384 . S
N509 C501 1.427 . S
N509 C507 1.384 . S
H510 C516 0.930 . S
H511 C520 0.930 . S
H512 C525 0.929 . S
H513 C523 0.929 . S
H514 C518 0.929 . S
H515 C524 0.929 . S
C516 H510 0.930 . S
C516 C517 1.367 . S
C516 C524 1.378 . S
C517 C516 1.367 . S
C517 C525 1.433 . S
C518 H514 0.929 . S
C518 C520 1.378 . S
C518 C522 1.350 . S
C519 C522 1.463 . S
C519 C524 1.350 . S
C519 N527 1.427 . S
C520 H511 0.930 . S
C520 C518 1.378 . S
C520 C521 1.367 . S
C521 C520 1.367 . S
C521 C523 1.433 . S
C522 C518 1.350 . S
C522 C519 1.463 . S
C522 N526 1.427 . S
C523 H513 0.929 . S
C523 C521 1.433 . S
C523 N526 1.384 . S
C524 H515 0.929 . S
C524 C516 1.378 . S
C524 C519 1.350 . S
C525 H512 0.929 . S
C525 C517 1.433 . S
C525 N527 1.384 . S
N526 C522 1.427 . S
N526 C523 1.384 . S
N527 C519 1.427 . S
N527 C525 1.384 . S
H528 C534 0.930 . S
H529 C538 0.930 . S
H530 C543 0.929 . S
H531 C541 0.929 . S
H532 C536 0.929 . S
H533 C542 0.929 . S
C534 H528 0.930 . S
C534 C535 1.367 . S
C534 C542 1.378 . S
C535 C534 1.367 . S
C535 C543 1.433 . S
C536 H532 0.929 . S
C536 C538 1.378 . S
C536 C540 1.350 . S
C537 C540 1.463 . S
C537 C542 1.350 . S
C537 N545 1.427 . S
C538 H529 0.930 . S
C538 C536 1.378 . S
C538 C539 1.367 . S
C539 C538 1.367 . S
C539 C541 1.433 . S
C540 C536 1.350 . S
C540 C537 1.463 . S
C540 N544 1.427 . S
C541 H531 0.929 . S
C541 C539 1.433 . S
C541 N544 1.384 . S
C542 H533 0.929 . S
C542 C534 1.378 . S
C542 C537 1.350 . S
C543 H530 0.929 . S
C543 C535 1.433 . S
C543 N545 1.384 . S
N544 C540 1.427 . S
N544 C541 1.384 . S
N545 C537 1.427 . S
N545 C543 1.384 . S
H546 C552 0.930 . S
H547 C556 0.930 . S
H548 C561 0.929 . S
H549 C559 0.929 . S
H550 C554 0.929 . S
H551 C560 0.929 . S
C552 H546 0.930 . S
C552 C553 1.367 . S
C552 C560 1.378 . S
C553 C552 1.367 . S
C553 C561 1.433 . S
C554 H550 0.929 . S
C554 C556 1.378 . S
C554 C558 1.350 . S
C555 C558 1.463 . S
C555 C560 1.350 . S
C555 N563 1.427 . S
C556 H547 0.930 . S
C556 C554 1.378 . S
C556 C557 1.367 . S
C557 C556 1.367 . S
C557 C559 1.433 . S
C558 C554 1.350 . S
C558 C555 1.463 . S
C558 N562 1.427 . S
C559 H549 0.929 . S
C559 C557 1.433 . S
C559 N562 1.384 . S
C560 H551 0.929 . S
C560 C552 1.378 . S
C560 C555 1.350 . S
C561 H548 0.929 . S
C561 C553 1.433 . S
C561 N563 1.384 . S
N562 C558 1.427 . S
N562 C559 1.384 . S
N563 C555 1.427 . S
N563 C561 1.384 . S
H564 C570 0.930 . S
H565 C574 0.930 . S
H566 C579 0.929 . S
H567 C577 0.929 . S
H568 C572 0.929 . S
H569 C578 0.929 . S
C570 H564 0.930 . S
C570 C571 1.367 . S
C570 C578 1.378 . S
C571 C570 1.367 . S
C571 C579 1.433 . S
C572 H568 0.929 . S
C572 C574 1.378 . S
C572 C576 1.350 . S
C573 C576 1.463 . S
C573 C578 1.350 . S
C573 N581 1.427 . S
C574 H565 0.930 . S
C574 C572 1.378 . S
C574 C575 1.367 . S
C575 C574 1.367 . S
C575 C577 1.433 . S
C576 C572 1.350 . S
C576 C573 1.463 . S
C576 N580 1.427 . S
C577 H567 0.929 . S
C577 C575 1.433 . S
C577 N580 1.384 . S
C578 H569 0.929 . S
C578 C570 1.378 . S
C578 C573 1.350 . S
C579 H566 0.929 . S
C579 C571 1.433 . S
C579 N581 1.384 . S
N580 C576 1.427 . S
N580 C577 1.384 . S
N581 C573 1.427 . S
N581 C579 1.384 . S
H582 C588 0.930 . S
H583 C592 0.930 . S
H584 C597 0.929 . S
H585 C595 0.929 . S
H586 C590 0.929 . S
H587 C596 0.929 . S
C588 H582 0.930 . S
C588 C589 1.367 . S
C588 C596 1.378 . S
C589 C588 1.367 . S
C589 C597 1.433 . S
C590 H586 0.929 . S
C590 C592 1.378 . S
C590 C594 1.350 . S
C591 C594 1.463 . S
C591 C596 1.350 . S
C591 N599 1.427 . S
C592 H583 0.930 . S
C592 C590 1.378 . S
C592 C593 1.367 . S
C593 C592 1.367 . S
C593 C595 1.433 . S
C594 C590 1.350 . S
C594 C591 1.463 . S
C594 N598 1.427 . S
C595 H585 0.929 . S
C595 C593 1.433 . S
C595 N598 1.384 . S
C596 H587 0.929 . S
C596 C588 1.378 . S
C596 C591 1.350 . S
C597 H584 0.929 . S
C597 C589 1.433 . S
C597 N599 1.384 . S
N598 C594 1.427 . S
N598 C595 1.384 . S
N599 C591 1.427 . S
N599 C597 1.384 . S
H600 C606 0.930 . S
H601 C610 0.930 . S
H602 C615 0.929 . S
H603 C613 0.929 . S
H604 C608 0.929 . S
H605 C614 0.929 . S
C606 H600 0.930 . S
C606 C607 1.367 . S
C606 C614 1.378 . S
C607 C606 1.367 . S
C607 C615 1.433 . S
C608 H604 0.929 . S
C608 C610 1.378 . S
C608 C612 1.350 . S
C609 C612 1.463 . S
C609 C614 1.350 . S
C609 N617 1.427 . S
C610 H601 0.930 . S
C610 C608 1.378 . S
C610 C611 1.367 . S
C611 C610 1.367 . S
C611 C613 1.433 . S
C612 C608 1.350 . S
C612 C609 1.463 . S
C612 N616 1.427 . S
C613 H603 0.929 . S
C613 C611 1.433 . S
C613 N616 1.384 . S
C614 H605 0.929 . S
C614 C606 1.378 . S
C614 C609 1.350 . S
C615 H602 0.929 . S
C615 C607 1.433 . S
C615 N617 1.384 . S
N616 C612 1.427 . S
N616 C613 1.384 . S
N617 C609 1.427 . S
N617 C615 1.384 . S
H618 C624 0.930 . S
H619 C628 0.930 . S
H620 C633 0.929 . S
H621 C631 0.929 . S
H622 C626 0.929 . S
H623 C632 0.929 . S
C624 H618 0.930 . S
C624 C625 1.367 . S
C624 C632 1.378 . S
C625 C624 1.367 . S
C625 C633 1.433 . S
C626 H622 0.929 . S
C626 C628 1.378 . S
C626 C630 1.350 . S
C627 C630 1.463 . S
C627 C632 1.350 . S
C627 N635 1.427 . S
C628 H619 0.930 . S
C628 C626 1.378 . S
C628 C629 1.367 . S
C629 C628 1.367 . S
C629 C631 1.433 . S
C630 C626 1.350 . S
C630 C627 1.463 . S
C630 N634 1.427 . S
C631 H621 0.929 . S
C631 C629 1.433 . S
C631 N634 1.384 . S
C632 H623 0.929 . S
C632 C624 1.378 . S
C632 C627 1.350 . S
C633 H620 0.929 . S
C633 C625 1.433 . S
C633 N635 1.384 . S
N634 C630 1.427 . S
N634 C631 1.384 . S
N635 C627 1.427 . S
N635 C633 1.384 . S
H636 C642 0.930 . S
H637 C646 0.930 . S
H638 C651 0.929 . S
H639 C649 0.929 . S
H640 C644 0.929 . S
H641 C650 0.929 . S
C642 H636 0.930 . S
C642 C643 1.367 . S
C642 C650 1.378 . S
C643 C642 1.367 . S
C643 C651 1.433 . S
C644 H640 0.929 . S
C644 C646 1.378 . S
C644 C648 1.350 . S
C645 C648 1.463 . S
C645 C650 1.350 . S
C645 N653 1.427 . S
C646 H637 0.930 . S
C646 C644 1.378 . S
C646 C647 1.367 . S
C647 C646 1.367 . S
C647 C649 1.433 . S
C648 C644 1.350 . S
C648 C645 1.463 . S
C648 N652 1.427 . S
C649 H639 0.929 . S
C649 C647 1.433 . S
C649 N652 1.384 . S
C650 H641 0.929 . S
C650 C642 1.378 . S
C650 C645 1.350 . S
C651 H638 0.929 . S
C651 C643 1.433 . S
C651 N653 1.384 . S
N652 C648 1.427 . S
N652 C649 1.384 . S
N653 C645 1.427 . S
N653 C651 1.384 . S
H654 C660 0.930 . S
H655 C664 0.930 . S
H656 C669 0.929 . S
H657 C667 0.929 . S
H658 C662 0.929 . S
H659 C668 0.929 . S
C660 H654 0.930 . S
C660 C661 1.367 . S
C660 C668 1.378 . S
C661 C660 1.367 . S
C661 C669 1.433 . S
C662 H658 0.929 . S
C662 C664 1.378 . S
C662 C666 1.350 . S
C663 C666 1.463 . S
C663 C668 1.350 . S
C663 N671 1.427 . S
C664 H655 0.930 . S
C664 C662 1.378 . S
C664 C665 1.367 . S
C665 C664 1.367 . S
C665 C667 1.433 . S
C666 C662 1.350 . S
C666 C663 1.463 . S
C666 N670 1.427 . S
C667 H657 0.929 . S
C667 C665 1.433 . S
C667 N670 1.384 . S
C668 H659 0.929 . S
C668 C660 1.378 . S
C668 C663 1.350 . S
C669 H656 0.929 . S
C669 C661 1.433 . S
C669 N671 1.384 . S
N670 C666 1.427 . S
N670 C667 1.384 . S
N671 C663 1.427 . S
N671 C669 1.384 . S
H672 C678 0.930 . S
H673 C682 0.930 . S
H674 C687 0.929 . S
H675 C685 0.929 . S
H676 C680 0.929 . S
H677 C686 0.929 . S
C678 H672 0.930 . S
C678 C679 1.367 . S
C678 C686 1.378 . S
C679 C678 1.367 . S
C679 C687 1.433 . S
C680 H676 0.929 . S
C680 C682 1.378 . S
C680 C684 1.350 . S
C681 C684 1.463 . S
C681 C686 1.350 . S
C681 N689 1.427 . S
C682 H673 0.930 . S
C682 C680 1.378 . S
C682 C683 1.367 . S
C683 C682 1.367 . S
C683 C685 1.433 . S
C684 C680 1.350 . S
C684 C681 1.463 . S
C684 N688 1.427 . S
C685 H675 0.929 . S
C685 C683 1.433 . S
C685 N688 1.384 . S
C686 H677 0.929 . S
C686 C678 1.378 . S
C686 C681 1.350 . S
C687 H674 0.929 . S
C687 C679 1.433 . S
C687 N689 1.384 . S
N688 C684 1.427 . S
N688 C685 1.384 . S
N689 C681 1.427 . S
N689 C687 1.384 . S
H690 C696 0.930 . S
H691 C700 0.930 . S
H692 C705 0.929 . S
H693 C703 0.929 . S
H694 C698 0.929 . S
H695 C704 0.929 . S
C696 H690 0.930 . S
C696 C697 1.367 . S
C696 C704 1.378 . S
C697 C696 1.367 . S
C697 C705 1.433 . S
C698 H694 0.929 . S
C698 C700 1.378 . S
C698 C702 1.350 . S
C699 C702 1.463 . S
C699 C704 1.350 . S
C699 N707 1.427 . S
C700 H691 0.930 . S
C700 C698 1.378 . S
C700 C701 1.367 . S
C701 C700 1.367 . S
C701 C703 1.433 . S
C702 C698 1.350 . S
C702 C699 1.463 . S
C702 N706 1.427 . S
C703 H693 0.929 . S
C703 C701 1.433 . S
C703 N706 1.384 . S
C704 H695 0.929 . S
C704 C696 1.378 . S
C704 C699 1.350 . S
C705 H692 0.929 . S
C705 C697 1.433 . S
C705 N707 1.384 . S
N706 C702 1.427 . S
N706 C703 1.384 . S
N707 C699 1.427 . S
N707 C705 1.384 . S
H708 C714 0.930 . S
H709 C718 0.930 . S
H710 C723 0.929 . S
H711 C721 0.929 . S
H712 C716 0.929 . S
H713 C722 0.929 . S
C714 H708 0.930 . S
C714 C715 1.367 . S
C714 C722 1.378 . S
C715 C714 1.367 . S
C715 C723 1.433 . S
C716 H712 0.929 . S
C716 C718 1.378 . S
C716 C720 1.350 . S
C717 C720 1.463 . S
C717 C722 1.350 . S
C717 N725 1.427 . S
C718 H709 0.930 . S
C718 C716 1.378 . S
C718 C719 1.367 . S
C719 C718 1.367 . S
C719 C721 1.433 . S
C720 C716 1.350 . S
C720 C717 1.463 . S
C720 N724 1.427 . S
C721 H711 0.929 . S
C721 C719 1.433 . S
C721 N724 1.384 . S
C722 H713 0.929 . S
C722 C714 1.378 . S
C722 C717 1.350 . S
C723 H710 0.929 . S
C723 C715 1.433 . S
C723 N725 1.384 . S
N724 C720 1.427 . S
N724 C721 1.384 . S
N725 C717 1.427 . S
N725 C723 1.384 . S
H726 C732 0.930 . S
H727 C736 0.930 . S
H728 C741 0.929 . S
H729 C739 0.929 . S
H730 C734 0.929 . S
H731 C740 0.929 . S
C732 H726 0.930 . S
C732 C733 1.367 . S
C732 C740 1.378 . S
C733 C732 1.367 . S
C733 C741 1.433 . S
C734 H730 0.929 . S
C734 C736 1.378 . S
C734 C738 1.350 . S
C735 C738 1.463 . S
C735 C740 1.350 . S
C735 N743 1.427 . S
C736 H727 0.930 . S
C736 C734 1.378 . S
C736 C737 1.367 . S
C737 C736 1.367 . S
C737 C739 1.433 . S
C738 C734 1.350 . S
C738 C735 1.463 . S
C738 N742 1.427 . S
C739 H729 0.929 . S
C739 C737 1.433 . S
C739 N742 1.384 . S
C740 H731 0.929 . S
C740 C732 1.378 . S
C740 C735 1.350 . S
C741 H728 0.929 . S
C741 C733 1.433 . S
C741 N743 1.384 . S
N742 C738 1.427 . S
N742 C739 1.384 . S
N743 C735 1.427 . S
N743 C741 1.384 . S
H744 C750 0.930 . S
H745 C754 0.930 . S
H746 C759 0.929 . S
H747 C757 0.929 . S
H748 C752 0.929 . S
H749 C758 0.929 . S
C750 H744 0.930 . S
C750 C751 1.367 . S
C750 C758 1.378 . S
C751 C750 1.367 . S
C751 C759 1.433 . S
C752 H748 0.929 . S
C752 C754 1.378 . S
C752 C756 1.350 . S
C753 C756 1.463 . S
C753 C758 1.350 . S
C753 N761 1.427 . S
C754 H745 0.930 . S
C754 C752 1.378 . S
C754 C755 1.367 . S
C755 C754 1.367 . S
C755 C757 1.433 . S
C756 C752 1.350 . S
C756 C753 1.463 . S
C756 N760 1.427 . S
C757 H747 0.929 . S
C757 C755 1.433 . S
C757 N760 1.384 . S
C758 H749 0.929 . S
C758 C750 1.378 . S
C758 C753 1.350 . S
C759 H746 0.929 . S
C759 C751 1.433 . S
C759 N761 1.384 . S
N760 C756 1.427 . S
N760 C757 1.384 . S
N761 C753 1.427 . S
N761 C759 1.384 . S
H762 C768 0.930 . S
H763 C772 0.930 . S
H764 C777 0.929 . S
H765 C775 0.929 . S
H766 C770 0.929 . S
H767 C776 0.929 . S
C768 H762 0.930 . S
C768 C769 1.367 . S
C768 C776 1.378 . S
C769 C768 1.367 . S
C769 C777 1.433 . S
C770 H766 0.929 . S
C770 C772 1.378 . S
C770 C774 1.350 . S
C771 C774 1.463 . S
C771 C776 1.350 . S
C771 N779 1.427 . S
C772 H763 0.930 . S
C772 C770 1.378 . S
C772 C773 1.367 . S
C773 C772 1.367 . S
C773 C775 1.433 . S
C774 C770 1.350 . S
C774 C771 1.463 . S
C774 N778 1.427 . S
C775 H765 0.929 . S
C775 C773 1.433 . S
C775 N778 1.384 . S
C776 H767 0.929 . S
C776 C768 1.378 . S
C776 C771 1.350 . S
C777 H764 0.929 . S
C777 C769 1.433 . S
C777 N779 1.384 . S
N778 C774 1.427 . S
N778 C775 1.384 . S
N779 C771 1.427 . S
N779 C777 1.384 . S
H780 C786 0.930 . S
H781 C790 0.930 . S
H782 C795 0.929 . S
H783 C793 0.929 . S
H784 C788 0.929 . S
H785 C794 0.929 . S
C786 H780 0.930 . S
C786 C787 1.367 . S
C786 C794 1.378 . S
C787 C786 1.367 . S
C787 C795 1.433 . S
C788 H784 0.929 . S
C788 C790 1.378 . S
C788 C792 1.350 . S
C789 C792 1.463 . S
C789 C794 1.350 . S
C789 N797 1.427 . S
C790 H781 0.930 . S
C790 C788 1.378 . S
C790 C791 1.367 . S
C791 C790 1.367 . S
C791 C793 1.433 . S
C792 C788 1.350 . S
C792 C789 1.463 . S
C792 N796 1.427 . S
C793 H783 0.929 . S
C793 C791 1.433 . S
C793 N796 1.384 . S
C794 H785 0.929 . S
C794 C786 1.378 . S
C794 C789 1.350 . S
C795 H782 0.929 . S
C795 C787 1.433 . S
C795 N797 1.384 . S
N796 C792 1.427 . S
N796 C793 1.384 . S
N797 C789 1.427 . S
N797 C795 1.384 . S
H798 C804 0.930 . S
H799 C808 0.930 . S
H800 C813 0.929 . S
H801 C811 0.929 . S
H802 C806 0.929 . S
H803 C812 0.929 . S
C804 H798 0.930 . S
C804 C805 1.367 . S
C804 C812 1.378 . S
C805 C804 1.367 . S
C805 C813 1.433 . S
C806 H802 0.929 . S
C806 C808 1.378 . S
C806 C810 1.350 . S
C807 C810 1.463 . S
C807 C812 1.350 . S
C807 N815 1.427 . S
C808 H799 0.930 . S
C808 C806 1.378 . S
C808 C809 1.367 . S
C809 C808 1.367 . S
C809 C811 1.433 . S
C810 C806 1.350 . S
C810 C807 1.463 . S
C810 N814 1.427 . S
C811 H801 0.929 . S
C811 C809 1.433 . S
C811 N814 1.384 . S
C812 H803 0.929 . S
C812 C804 1.378 . S
C812 C807 1.350 . S
C813 H800 0.929 . S
C813 C805 1.433 . S
C813 N815 1.384 . S
N814 C810 1.427 . S
N814 C811 1.384 . S
N815 C807 1.427 . S
N815 C813 1.384 . S
H816 C822 0.930 . S
H817 C826 0.930 . S
H818 C831 0.929 . S
H819 C829 0.929 . S
H820 C824 0.929 . S
H821 C830 0.929 . S
C822 H816 0.930 . S
C822 C823 1.367 . S
C822 C830 1.378 . S
C823 C822 1.367 . S
C823 C831 1.433 . S
C824 H820 0.929 . S
C824 C826 1.378 . S
C824 C828 1.350 . S
C825 C828 1.463 . S
C825 C830 1.350 . S
C825 N833 1.427 . S
C826 H817 0.930 . S
C826 C824 1.378 . S
C826 C827 1.367 . S
C827 C826 1.367 . S
C827 C829 1.433 . S
C828 C824 1.350 . S
C828 C825 1.463 . S
C828 N832 1.427 . S
C829 H819 0.929 . S
C829 C827 1.433 . S
C829 N832 1.384 . S
C830 H821 0.929 . S
C830 C822 1.378 . S
C830 C825 1.350 . S
C831 H818 0.929 . S
C831 C823 1.433 . S
C831 N833 1.384 . S
N832 C828 1.427 . S
N832 C829 1.384 . S
N833 C825 1.427 . S
N833 C831 1.384 . S
H834 C840 0.930 . S
H835 C844 0.930 . S
H836 C849 0.929 . S
H837 C847 0.929 . S
H838 C842 0.929 . S
H839 C848 0.929 . S
C840 H834 0.930 . S
C840 C841 1.367 . S
C840 C848 1.378 . S
C841 C840 1.367 . S
C841 C849 1.433 . S
C842 H838 0.929 . S
C842 C844 1.378 . S
C842 C846 1.350 . S
C843 C846 1.463 . S
C843 C848 1.350 . S
C843 N851 1.427 . S
C844 H835 0.930 . S
C844 C842 1.378 . S
C844 C845 1.367 . S
C845 C844 1.367 . S
C845 C847 1.433 . S
C846 C842 1.350 . S
C846 C843 1.463 . S
C846 N850 1.427 . S
C847 H837 0.929 . S
C847 C845 1.433 . S
C847 N850 1.384 . S
C848 H839 0.929 . S
C848 C840 1.378 . S
C848 C843 1.350 . S
C849 H836 0.929 . S
C849 C841 1.433 . S
C849 N851 1.384 . S
N850 C846 1.427 . S
N850 C847 1.384 . S
N851 C843 1.427 . S
N851 C849 1.384 . S
H852 C858 0.930 . S
H853 C862 0.930 . S
H854 C867 0.929 . S
H855 C865 0.929 . S
H856 C860 0.929 . S
H857 C866 0.929 . S
C858 H852 0.930 . S
C858 C859 1.367 . S
C858 C866 1.378 . S
C859 C858 1.367 . S
C859 C867 1.433 . S
C860 H856 0.929 . S
C860 C862 1.378 . S
C860 C864 1.350 . S
C861 C864 1.463 . S
C861 C866 1.350 . S
C861 N869 1.427 . S
C862 H853 0.930 . S
C862 C860 1.378 . S
C862 C863 1.367 . S
C863 C862 1.367 . S
C863 C865 1.433 . S
C864 C860 1.350 . S
C864 C861 1.463 . S
C864 N868 1.427 . S
C865 H855 0.929 . S
C865 C863 1.433 . S
C865 N868 1.384 . S
C866 H857 0.929 . S
C866 C858 1.378 . S
C866 C861 1.350 . S
C867 H854 0.929 . S
C867 C859 1.433 . S
C867 N869 1.384 . S
N868 C864 1.427 . S
N868 C865 1.384 . S
N869 C861 1.427 . S
N869 C867 1.384 . S
H870 C876 0.930 . S
H871 C880 0.930 . S
H872 C885 0.929 . S
H873 C883 0.929 . S
H874 C878 0.929 . S
H875 C884 0.929 . S
C876 H870 0.930 . S
C876 C877 1.367 . S
C876 C884 1.378 . S
C877 C876 1.367 . S
C877 C885 1.433 . S
C878 H874 0.929 . S
C878 C880 1.378 . S
C878 C882 1.350 . S
C879 C882 1.463 . S
C879 C884 1.350 . S
C879 N887 1.427 . S
C880 H871 0.930 . S
C880 C878 1.378 . S
C880 C881 1.367 . S
C881 C880 1.367 . S
C881 C883 1.433 . S
C882 C878 1.350 . S
C882 C879 1.463 . S
C882 N886 1.427 . S
C883 H873 0.929 . S
C883 C881 1.433 . S
C883 N886 1.384 . S
C884 H875 0.929 . S
C884 C876 1.378 . S
C884 C879 1.350 . S
C885 H872 0.929 . S
C885 C877 1.433 . S
C885 N887 1.384 . S
N886 C882 1.427 . S
N886 C883 1.384 . S
N887 C879 1.427 . S
N887 C885 1.384 . S
H888 C894 0.930 . S
H889 C898 0.930 . S
H890 C903 0.929 . S
H891 C901 0.929 . S
H892 C896 0.929 . S
H893 C902 0.929 . S
C894 H888 0.930 . S
C894 C895 1.367 . S
C894 C902 1.378 . S
C895 C894 1.367 . S
C895 C903 1.433 . S
C896 H892 0.929 . S
C896 C898 1.378 . S
C896 C900 1.350 . S
C897 C900 1.463 . S
C897 C902 1.350 . S
C897 N905 1.427 . S
C898 H889 0.930 . S
C898 C896 1.378 . S
C898 C899 1.367 . S
C899 C898 1.367 . S
C899 C901 1.433 . S
C900 C896 1.350 . S
C900 C897 1.463 . S
C900 N904 1.427 . S
C901 H891 0.929 . S
C901 C899 1.433 . S
C901 N904 1.384 . S
C902 H893 0.929 . S
C902 C894 1.378 . S
C902 C897 1.350 . S
C903 H890 0.929 . S
C903 C895 1.433 . S
C903 N905 1.384 . S
N904 C900 1.427 . S
N904 C901 1.384 . S
N905 C897 1.427 . S
N905 C903 1.384 . S
H906 C912 0.930 . S
H907 C916 0.930 . S
H908 C921 0.929 . S
H909 C919 0.929 . S
H910 C914 0.929 . S
H911 C920 0.929 . S
C912 H906 0.930 . S
C912 C913 1.367 . S
C912 C920 1.378 . S
C913 C912 1.367 . S
C913 C921 1.433 . S
C914 H910 0.929 . S
C914 C916 1.378 . S
C914 C918 1.350 . S
C915 C918 1.463 . S
C915 C920 1.350 . S
C915 N923 1.427 . S
C916 H907 0.930 . S
C916 C914 1.378 . S
C916 C917 1.367 . S
C917 C916 1.367 . S
C917 C919 1.433 . S
C918 C914 1.350 . S
C918 C915 1.463 . S
C918 N922 1.427 . S
C919 H909 0.929 . S
C919 C917 1.433 . S
C919 N922 1.384 . S
C920 H911 0.929 . S
C920 C912 1.378 . S
C920 C915 1.350 . S
C921 H908 0.929 . S
C921 C913 1.433 . S
C921 N923 1.384 . S
N922 C918 1.427 . S
N922 C919 1.384 . S
N923 C915 1.427 . S
N923 C921 1.384 . S
H924 C930 0.930 . S
H925 C934 0.930 . S
H926 C939 0.929 . S
H927 C937 0.929 . S
H928 C932 0.929 . S
H929 C938 0.929 . S
C930 H924 0.930 . S
C930 C931 1.367 . S
C930 C938 1.378 . S
C931 C930 1.367 . S
C931 C939 1.433 . S
C932 H928 0.929 . S
C932 C934 1.378 . S
C932 C936 1.350 . S
C933 C936 1.463 . S
C933 C938 1.350 . S
C933 N941 1.427 . S
C934 H925 0.930 . S
C934 C932 1.378 . S
C934 C935 1.367 . S
C935 C934 1.367 . S
C935 C937 1.433 . S
C936 C932 1.350 . S
C936 C933 1.463 . S
C936 N940 1.427 . S
C937 H927 0.929 . S
C937 C935 1.433 . S
C937 N940 1.384 . S
C938 H929 0.929 . S
C938 C930 1.378 . S
C938 C933 1.350 . S
C939 H926 0.929 . S
C939 C931 1.433 . S
C939 N941 1.384 . S
N940 C936 1.427 . S
N940 C937 1.384 . S
N941 C933 1.427 . S
N941 C939 1.384 . S
H942 C948 0.930 . S
H943 C952 0.930 . S
H944 C957 0.929 . S
H945 C955 0.929 . S
H946 C950 0.929 . S
H947 C956 0.929 . S
C948 H942 0.930 . S
C948 C949 1.367 . S
C948 C956 1.378 . S
C949 C948 1.367 . S
C949 C957 1.433 . S
C950 H946 0.929 . S
C950 C952 1.378 . S
C950 C954 1.350 . S
C951 C954 1.463 . S
C951 C956 1.350 . S
C951 N959 1.427 . S
C952 H943 0.930 . S
C952 C950 1.378 . S
C952 C953 1.367 . S
C953 C952 1.367 . S
C953 C955 1.433 . S
C954 C950 1.350 . S
C954 C951 1.463 . S
C954 N958 1.427 . S
C955 H945 0.929 . S
C955 C953 1.433 . S
C955 N958 1.384 . S
C956 H947 0.929 . S
C956 C948 1.378 . S
C956 C951 1.350 . S
C957 H944 0.929 . S
C957 C949 1.433 . S
C957 N959 1.384 . S
N958 C954 1.427 . S
N958 C955 1.384 . S
N959 C951 1.427 . S
N959 C957 1.384 . S
H960 C966 0.930 . S
H961 C970 0.930 . S
H962 C975 0.929 . S
H963 C973 0.929 . S
H964 C968 0.929 . S
H965 C974 0.929 . S
C966 H960 0.930 . S
C966 C967 1.367 . S
C966 C974 1.378 . S
C967 C966 1.367 . S
C967 C975 1.433 . S
C968 H964 0.929 . S
C968 C970 1.378 . S
C968 C972 1.350 . S
C969 C972 1.463 . S
C969 C974 1.350 . S
C969 N977 1.427 . S
C970 H961 0.930 . S
C970 C968 1.378 . S
C970 C971 1.367 . S
C971 C970 1.367 . S
C971 C973 1.433 . S
C972 C968 1.350 . S
C972 C969 1.463 . S
C972 N976 1.427 . S
C973 H963 0.929 . S
C973 C971 1.433 . S
C973 N976 1.384 . S
C974 H965 0.929 . S
C974 C966 1.378 . S
C974 C969 1.350 . S
C975 H962 0.929 . S
C975 C967 1.433 . S
C975 N977 1.384 . S
N976 C972 1.427 . S
N976 C973 1.384 . S
N977 C969 1.427 . S
N977 C975 1.384 . S
H978 C984 0.930 . S
H979 C988 0.930 . S
H980 C993 0.929 . S
H981 C991 0.929 . S
H982 C986 0.929 . S
H983 C992 0.929 . S
C984 H978 0.930 . S
C984 C985 1.367 . S
C984 C992 1.378 . S
C985 C984 1.367 . S
C985 C993 1.433 . S
C986 H982 0.929 . S
C986 C988 1.378 . S
C986 C990 1.350 . S
C987 C990 1.463 . S
C987 C992 1.350 . S
C987 N995 1.427 . S
C988 H979 0.930 . S
C988 C986 1.378 . S
C988 C989 1.367 . S
C989 C988 1.367 . S
C989 C991 1.433 . S
C990 C986 1.350 . S
C990 C987 1.463 . S
C990 N994 1.427 . S
C991 H981 0.929 . S
C991 C989 1.433 . S
C991 N994 1.384 . S
C992 H983 0.929 . S
C992 C984 1.378 . S
C992 C987 1.350 . S
C993 H980 0.929 . S
C993 C985 1.433 . S
C993 N995 1.384 . S
N994 C990 1.427 . S
N994 C991 1.384 . S
N995 C987 1.427 . S
N995 C993 1.384 . S
H996 C1002 0.930 . S
H997 C1006 0.930 . S
H998 C1011 0.929 . S
H999 C1009 0.929 . S
H1000 C1004 0.929 . S
H1001 C1010 0.929 . S
C1002 H996 0.930 . S
C1002 C1003 1.367 . S
C1002 C1010 1.378 . S
C1003 C1002 1.367 . S
C1003 C1011 1.433 . S
C1004 H1000 0.929 . S
C1004 C1006 1.378 . S
C1004 C1008 1.350 . S
C1005 C1008 1.463 . S
C1005 C1010 1.350 . S
C1005 N1013 1.427 . S
C1006 H997 0.930 . S
C1006 C1004 1.378 . S
C1006 C1007 1.367 . S
C1007 C1006 1.367 . S
C1007 C1009 1.433 . S
C1008 C1004 1.350 . S
C1008 C1005 1.463 . S
C1008 N1012 1.427 . S
C1009 H999 0.929 . S
C1009 C1007 1.433 . S
C1009 N1012 1.384 . S
C1010 H1001 0.929 . S
C1010 C1002 1.378 . S
C1010 C1005 1.350 . S
C1011 H998 0.929 . S
C1011 C1003 1.433 . S
C1011 N1013 1.384 . S
N1012 C1008 1.427 . S
N1012 C1009 1.384 . S
N1013 C1005 1.427 . S
N1013 C1011 1.384 . S
H1014 C1020 0.930 . S
H1015 C1024 0.930 . S
H1016 C1029 0.929 . S
H1017 C1027 0.929 . S
H1018 C1022 0.929 . S
H1019 C1028 0.929 . S
C1020 H1014 0.930 . S
C1020 C1021 1.367 . S
C1020 C1028 1.378 . S
C1021 C1020 1.367 . S
C1021 C1029 1.433 . S
C1022 H1018 0.929 . S
C1022 C1024 1.378 . S
C1022 C1026 1.350 . S
C1023 C1026 1.463 . S
C1023 C1028 1.350 . S
C1023 N1031 1.427 . S
C1024 H1015 0.930 . S
C1024 C1022 1.378 . S
C1024 C1025 1.367 . S
C1025 C1024 1.367 . S
C1025 C1027 1.433 . S
C1026 C1022 1.350 . S
C1026 C1023 1.463 . S
C1026 N1030 1.427 . S
C1027 H1017 0.929 . S
C1027 C1025 1.433 . S
C1027 N1030 1.384 . S
C1028 H1019 0.929 . S
C1028 C1020 1.378 . S
C1028 C1023 1.350 . S
C1029 H1016 0.929 . S
C1029 C1021 1.433 . S
C1029 N1031 1.384 . S
N1030 C1026 1.427 . S
N1030 C1027 1.384 . S
N1031 C1023 1.427 . S
N1031 C1029 1.384 . S
H1032 C1038 0.930 . S
H1033 C1042 0.930 . S
H1034 C1047 0.929 . S
H1035 C1045 0.929 . S
H1036 C1040 0.929 . S
H1037 C1046 0.929 . S
C1038 H1032 0.930 . S
C1038 C1039 1.367 . S
C1038 C1046 1.378 . S
C1039 C1038 1.367 . S
C1039 C1047 1.433 . S
C1040 H1036 0.929 . S
C1040 C1042 1.378 . S
C1040 C1044 1.350 . S
C1041 C1044 1.463 . S
C1041 C1046 1.350 . S
C1041 N1049 1.427 . S
C1042 H1033 0.930 . S
C1042 C1040 1.378 . S
C1042 C1043 1.367 . S
C1043 C1042 1.367 . S
C1043 C1045 1.433 . S
C1044 C1040 1.350 . S
C1044 C1041 1.463 . S
C1044 N1048 1.427 . S
C1045 H1035 0.929 . S
C1045 C1043 1.433 . S
C1045 N1048 1.384 . S
C1046 H1037 0.929 . S
C1046 C1038 1.378 . S
C1046 C1041 1.350 . S
C1047 H1034 0.929 . S
C1047 C1039 1.433 . S
C1047 N1049 1.384 . S
N1048 C1044 1.427 . S
N1048 C1045 1.384 . S
N1049 C1041 1.427 . S
N1049 C1047 1.384 . S
H1050 C1056 0.930 . S
H1051 C1060 0.930 . S
H1052 C1065 0.929 . S
H1053 C1063 0.929 . S
H1054 C1058 0.929 . S
H1055 C1064 0.929 . S
C1056 H1050 0.930 . S
C1056 C1057 1.367 . S
C1056 C1064 1.378 . S
C1057 C1056 1.367 . S
C1057 C1065 1.433 . S
C1058 H1054 0.929 . S
C1058 C1060 1.378 . S
C1058 C1062 1.350 . S
C1059 C1062 1.463 . S
C1059 C1064 1.350 . S
C1059 N1067 1.427 . S
C1060 H1051 0.930 . S
C1060 C1058 1.378 . S
C1060 C1061 1.367 . S
C1061 C1060 1.367 . S
C1061 C1063 1.433 . S
C1062 C1058 1.350 . S
C1062 C1059 1.463 . S
C1062 N1066 1.427 . S
C1063 H1053 0.929 . S
C1063 C1061 1.433 . S
C1063 N1066 1.384 . S
C1064 H1055 0.929 . S
C1064 C1056 1.378 . S
C1064 C1059 1.350 . S
C1065 H1052 0.929 . S
C1065 C1057 1.433 . S
C1065 N1067 1.384 . S
N1066 C1062 1.427 . S
N1066 C1063 1.384 . S
N1067 C1059 1.427 . S
N1067 C1065 1.384 . S
H1068 C1074 0.930 . S
H1069 C1078 0.930 . S
H1070 C1083 0.929 . S
H1071 C1081 0.929 . S
H1072 C1076 0.929 . S
H1073 C1082 0.929 . S
C1074 H1068 0.930 . S
C1074 C1075 1.367 . S
C1074 C1082 1.378 . S
C1075 C1074 1.367 . S
C1075 C1083 1.433 . S
C1076 H1072 0.929 . S
C1076 C1078 1.378 . S
C1076 C1080 1.350 . S
C1077 C1080 1.463 . S
C1077 C1082 1.350 . S
C1077 N1085 1.427 . S
C1078 H1069 0.930 . S
C1078 C1076 1.378 . S
C1078 C1079 1.367 . S
C1079 C1078 1.367 . S
C1079 C1081 1.433 . S
C1080 C1076 1.350 . S
C1080 C1077 1.463 . S
C1080 N1084 1.427 . S
C1081 H1071 0.929 . S
C1081 C1079 1.433 . S
C1081 N1084 1.384 . S
C1082 H1073 0.929 . S
C1082 C1074 1.378 . S
C1082 C1077 1.350 . S
C1083 H1070 0.929 . S
C1083 C1075 1.433 . S
C1083 N1085 1.384 . S
N1084 C1080 1.427 . S
N1084 C1081 1.384 . S
N1085 C1077 1.427 . S
N1085 C1083 1.384 . S
H1086 C1092 0.930 . S
H1087 C1096 0.930 . S
H1088 C1101 0.929 . S
H1089 C1099 0.929 . S
H1090 C1094 0.929 . S
H1091 C1100 0.929 . S
C1092 H1086 0.930 . S
C1092 C1093 1.367 . S
C1092 C1100 1.378 . S
C1093 C1092 1.367 . S
C1093 C1101 1.433 . S
C1094 H1090 0.929 . S
C1094 C1096 1.378 . S
C1094 C1098 1.350 . S
C1095 C1098 1.463 . S
C1095 C1100 1.350 . S
C1095 N1103 1.427 . S
C1096 H1087 0.930 . S
C1096 C1094 1.378 . S
C1096 C1097 1.367 . S
C1097 C1096 1.367 . S
C1097 C1099 1.433 . S
C1098 C1094 1.350 . S
C1098 C1095 1.463 . S
C1098 N1102 1.427 . S
C1099 H1089 0.929 . S
C1099 C1097 1.433 . S
C1099 N1102 1.384 . S
C1100 H1091 0.929 . S
C1100 C1092 1.378 . S
C1100 C1095 1.350 . S
C1101 H1088 0.929 . S
C1101 C1093 1.433 . S
C1101 N1103 1.384 . S
N1102 C1098 1.427 . S
N1102 C1099 1.384 . S
N1103 C1095 1.427 . S
N1103 C1101 1.384 . S
H1104 C1110 0.930 . S
H1105 C1114 0.930 . S
H1106 C1119 0.929 . S
H1107 C1117 0.929 . S
H1108 C1112 0.929 . S
H1109 C1118 0.929 . S
C1110 H1104 0.930 . S
C1110 C1111 1.367 . S
C1110 C1118 1.378 . S
C1111 C1110 1.367 . S
C1111 C1119 1.433 . S
C1112 H1108 0.929 . S
C1112 C1114 1.378 . S
C1112 C1116 1.350 . S
C1113 C1116 1.463 . S
C1113 C1118 1.350 . S
C1113 N1121 1.427 . S
C1114 H1105 0.930 . S
C1114 C1112 1.378 . S
C1114 C1115 1.367 . S
C1115 C1114 1.367 . S
C1115 C1117 1.433 . S
C1116 C1112 1.350 . S
C1116 C1113 1.463 . S
C1116 N1120 1.427 . S
C1117 H1107 0.929 . S
C1117 C1115 1.433 . S
C1117 N1120 1.384 . S
C1118 H1109 0.929 . S
C1118 C1110 1.378 . S
C1118 C1113 1.350 . S
C1119 H1106 0.929 . S
C1119 C1111 1.433 . S
C1119 N1121 1.384 . S
N1120 C1116 1.427 . S
N1120 C1117 1.384 . S
N1121 C1113 1.427 . S
N1121 C1119 1.384 . S
H1122 C1128 0.930 . S
H1123 C1132 0.930 . S
H1124 C1137 0.929 . S
H1125 C1135 0.929 . S
H1126 C1130 0.929 . S
H1127 C1136 0.929 . S
C1128 H1122 0.930 . S
C1128 C1129 1.367 . S
C1128 C1136 1.378 . S
C1129 C1128 1.367 . S
C1129 C1137 1.433 . S
C1130 H1126 0.929 . S
C1130 C1132 1.378 . S
C1130 C1134 1.350 . S
C1131 C1134 1.463 . S
C1131 C1136 1.350 . S
C1131 N1139 1.427 . S
C1132 H1123 0.930 . S
C1132 C1130 1.378 . S
C1132 C1133 1.367 . S
C1133 C1132 1.367 . S
C1133 C1135 1.433 . S
C1134 C1130 1.350 . S
C1134 C1131 1.463 . S
C1134 N1138 1.427 . S
C1135 H1125 0.929 . S
C1135 C1133 1.433 . S
C1135 N1138 1.384 . S
C1136 H1127 0.929 . S
C1136 C1128 1.378 . S
C1136 C1131 1.350 . S
C1137 H1124 0.929 . S
C1137 C1129 1.433 . S
C1137 N1139 1.384 . S
N1138 C1134 1.427 . S
N1138 C1135 1.384 . S
N1139 C1131 1.427 . S
N1139 C1137 1.384 . S
H1140 C1146 0.930 . S
H1141 C1150 0.930 . S
H1142 C1155 0.929 . S
H1143 C1153 0.929 . S
H1144 C1148 0.929 . S
H1145 C1154 0.929 . S
C1146 H1140 0.930 . S
C1146 C1147 1.367 . S
C1146 C1154 1.378 . S
C1147 C1146 1.367 . S
C1147 C1155 1.433 . S
C1148 H1144 0.929 . S
C1148 C1150 1.378 . S
C1148 C1152 1.350 . S
C1149 C1152 1.463 . S
C1149 C1154 1.350 . S
C1149 N1157 1.427 . S
C1150 H1141 0.930 . S
C1150 C1148 1.378 . S
C1150 C1151 1.367 . S
C1151 C1150 1.367 . S
C1151 C1153 1.433 . S
C1152 C1148 1.350 . S
C1152 C1149 1.463 . S
C1152 N1156 1.427 . S
C1153 H1143 0.929 . S
C1153 C1151 1.433 . S
C1153 N1156 1.384 . S
C1154 H1145 0.929 . S
C1154 C1146 1.378 . S
C1154 C1149 1.350 . S
C1155 H1142 0.929 . S
C1155 C1147 1.433 . S
C1155 N1157 1.384 . S
N1156 C1152 1.427 . S
N1156 C1153 1.384 . S
N1157 C1149 1.427 . S
N1157 C1155 1.384 . S
H1158 C1164 0.930 . S
H1159 C1168 0.930 . S
H1160 C1173 0.929 . S
H1161 C1171 0.929 . S
H1162 C1166 0.929 . S
H1163 C1172 0.929 . S
C1164 H1158 0.930 . S
C1164 C1165 1.367 . S
C1164 C1172 1.378 . S
C1165 C1164 1.367 . S
C1165 C1173 1.433 . S
C1166 H1162 0.929 . S
C1166 C1168 1.378 . S
C1166 C1170 1.350 . S
C1167 C1170 1.463 . S
C1167 C1172 1.350 . S
C1167 N1175 1.427 . S
C1168 H1159 0.930 . S
C1168 C1166 1.378 . S
C1168 C1169 1.367 . S
C1169 C1168 1.367 . S
C1169 C1171 1.433 . S
C1170 C1166 1.350 . S
C1170 C1167 1.463 . S
C1170 N1174 1.427 . S
C1171 H1161 0.929 . S
C1171 C1169 1.433 . S
C1171 N1174 1.384 . S
C1172 H1163 0.929 . S
C1172 C1164 1.378 . S
C1172 C1167 1.350 . S
C1173 H1160 0.929 . S
C1173 C1165 1.433 . S
C1173 N1175 1.384 . S
N1174 C1170 1.427 . S
N1174 C1171 1.384 . S
N1175 C1167 1.427 . S
N1175 C1173 1.384 . S
C319 C289 1.721 . S
C323 C3 1.720 . S
C337 C23 1.718 . S
C341 C309 1.715 . S
C355 C265 1.637 . S
C359 C29 1.710 . S
C373 C274 1.823 . S
C377 C40 1.823 . S
C391 C276 1.756 . S
C395 C55 1.757 . S
C409 C70 1.661 . S
C413 C287 1.724 . S
C427 C304 1.664 . S
C431 C81 1.743 . S
C445 C94 1.750 . S
C449 C270 1.697 . S
C463 C109 1.643 . S
C467 C252 1.650 . S
C481 C211 1.765 . S
C485 C127 1.706 . S
C499 C140 1.681 . S
C503 C226 1.673 . S
C517 C235 1.726 . S
C521 C148 1.658 . S
C535 C153 1.703 . S
C539 C172 1.763 . S
C553 C114 1.686 . S
C557 C185 1.748 . S
C571 C198 1.729 . S
C575 C122 1.658 . S
C589 C135 1.637 . S
C593 C159 1.702 . S
C607 C18 1.642 . S
C611 C237 1.711 . S
C625 C183 1.792 . S
C629 C92 1.792 . S
C643 C53 1.780 . S
C647 C196 1.780 . S
C661 C157 1.760 . S
C665 C75 1.703 . S
C679 C79 1.794 . S
C683 C170 1.794 . S
C697 C42 1.806 . S
C701 C209 1.801 . S
C715 C1 1.755 . S
C719 C231 1.698 . S
C733 C27 1.744 . S
C737 C257 1.689 . S
C751 C88 1.760 . S
C755 C261 1.714 . S
C769 C278 1.757 . S
C773 C101 1.753 . S
C787 C296 1.741 . S
C791 C62 1.741 . S
C805 C302 1.711 . S
C809 C66 1.722 . S
C823 C36 1.787 . S
C827 C300 1.726 . S
C841 C44 1.714 . S
C845 C263 1.650 . S
C859 C10 1.783 . S
C863 C283 1.782 . S
C877 C291 1.702 . S
C881 C16 1.636 . S
C895 C133 1.686 . S
C899 C179 1.758 . S
C913 C144 1.759 . S
C917 C192 1.816 . S
C931 C105 1.706 . S
C935 C205 1.755 . S
C949 C120 1.665 . S
C953 C166 1.731 . S
C967 C118 1.715 . S
C971 C248 1.711 . S
C985 C218 1.801 . S
C989 C131 1.742 . S
C1003 C146 1.690 . S
C1007 C222 1.707 . S
C1021 C107 1.635 . S
C1025 C239 1.705 . S
C1039 C161 1.703 . S
C1043 C96 1.702 . S
C1057 C213 1.737 . S
C1061 C14 1.685 . S
C1075 C31 1.745 . S
C1079 C224 1.671 . S
C1093 C244 1.757 . S
C1097 C49 1.757 . S
C1111 C250 1.685 . S
C1115 C5 1.757 . S
C1129 C68 1.663 . S
C1133 C187 1.744 . S
C1147 C200 1.722 . S
C1151 C83 1.723 . S
C1165 C174 1.713 . S
C1169 C57 1.713 . S
