# Generated by pormake.
# Topology crb, (4)-cn, num edge types: 1
# Building blocks:
#     Node 0, Type 0, BuildingBlock: ICAMEG_clean_sbu_1, # of connection points: 4
#     Node 1, Type 0, BuildingBlock: ICAMEG_clean_sbu_1, # of connection points: 4
#     Node 2, Type 0, BuildingBlock: ICAMEG_clean_sbu_1, # of connection points: 4
#     Node 3, Type 0, BuildingBlock: ICAMEG_clean_sbu_1, # of connection points: 4
#     Node 4, Type 0, BuildingBlock: ICAMEG_clean_sbu_1, # of connection points: 4
#     Node 5, Type 0, BuildingBlock: ICAMEG_clean_sbu_1, # of connection points: 4
#     Node 6, Type 0, BuildingBlock: ICAMEG_clean_sbu_1, # of connection points: 4
#     Node 7, Type 0, BuildingBlock: ICAMEG_clean_sbu_1, # of connection points: 4
#     Edge 8, Type (0, 0), BuildingBlock: TEMPAE_clean_linker_10, # of connection points: 2
#     Edge 9, Type (0, 0), BuildingBlock: TEMPAE_clean_linker_10, # of connection points: 2
#     Edge 10, Type (0, 0), BuildingBlock: TEMPAE_clean_linker_10, # of connection points: 2
#     Edge 11, Type (0, 0), BuildingBlock: TEMPAE_clean_linker_10, # of connection points: 2
#     Edge 12, Type (0, 0), BuildingBlock: TEMPAE_clean_linker_10, # of connection points: 2
#     Edge 13, Type (0, 0), BuildingBlock: TEMPAE_clean_linker_10, # of connection points: 2
#     Edge 14, Type (0, 0), BuildingBlock: TEMPAE_clean_linker_10, # of connection points: 2
#     Edge 15, Type (0, 0), BuildingBlock: TEMPAE_clean_linker_10, # of connection points: 2
#     Edge 16, Type (0, 0), BuildingBlock: TEMPAE_clean_linker_10, # of connection points: 2
#     Edge 17, Type (0, 0), BuildingBlock: TEMPAE_clean_linker_10, # of connection points: 2
#     Edge 18, Type (0, 0), BuildingBlock: TEMPAE_clean_linker_10, # of connection points: 2
#     Edge 19, Type (0, 0), BuildingBlock: TEMPAE_clean_linker_10, # of connection points: 2
#     Edge 20, Type (0, 0), BuildingBlock: TEMPAE_clean_linker_10, # of connection points: 2
#     Edge 21, Type (0, 0), BuildingBlock: TEMPAE_clean_linker_10, # of connection points: 2
#     Edge 22, Type (0, 0), BuildingBlock: TEMPAE_clean_linker_10, # of connection points: 2
#     Edge 23, Type (0, 0), BuildingBlock: TEMPAE_clean_linker_10, # of connection points: 2
# Relax obj value: 0.184
# Max RMSD: 0.234
# Mean RMSD: 0.234
data_MOF--net-crb--node1-ICAMEG_clean_sbu_1--edge1-TEMPAE_clean_linker_10
_symmetry_space_group_name_H-M    P1
_symmetry_Int_Tables_number       1
_symmetry_cell_setting            triclinic
loop_
_symmetry_equiv_pos_as_xyz
'x, y, z'
_cell_length_a     45.337158
_cell_length_b     45.283318
_cell_length_c     25.88636
_cell_angle_alpha  89.965373
_cell_angle_beta   89.960139
_cell_angle_gamma 89.994237
loop_
_atom_site_label
_atom_site_type_symbol
_atom_site_fract_x
_atom_site_fract_y
_atom_site_fract_z
_atom_type_partial_charge
Co0 Co 0.34315 0.338 0.95701 0.0
Co1 Co 0.34471 0.34269 0.0881 0.0
O2 O 0.32858 0.32516 0.02479 0.0
C3 C 0.28743 0.34487 0.8976 0.0
O4 O 0.29391 0.37293 0.89147 0.0
C5 C 0.33117 0.27877 0.11461 0.0
O6 O 0.32654 0.27237 0.06591 0.0
O7 O 0.38489 0.32984 0.06658 0.0
O8 O 0.38354 0.34668 0.98534 0.0
H9 H 0.41788 0.40335 0.18792 0.0
H10 H 0.31454 0.27917 0.96379 0.0
O11 O 0.30345 0.32866 0.92657 0.0
H12 H 0.41507 0.25965 0.89958 0.0
H13 H 0.35511 0.33202 0.76353 0.0
H14 H 0.37799 0.38927 0.92044 0.0
H15 H 0.39884 0.31052 0.91755 0.0
H16 H 0.33795 0.31502 0.84888 0.0
O17 O 0.33927 0.30465 0.12781 0.0
H18 H 0.39586 0.38153 0.1097 0.0
H19 H 0.32967 0.34003 0.20051 0.0
H20 H 0.39573 0.40697 0.83587 0.0
H21 H 0.32973 0.22798 0.94545 0.0
H22 H 0.38428 0.37829 0.75662 0.0
H23 H 0.38038 0.21792 0.9133 0.0
O24 O 0.33044 0.37901 0.97374 0.0
H25 H 0.23525 0.33015 0.11271 0.0
H26 H 0.31916 0.39875 0.1289 0.0
H27 H 0.26934 0.4155 0.15308 0.0
H28 H 0.22695 0.38104 0.14537 0.0
H29 H 0.28532 0.31446 0.08824 0.0
H30 H 0.35118 0.36115 0.27975 0.0
H31 H 0.39551 0.39319 0.27373 0.0
O32 O 0.35038 0.38186 0.05261 0.0
C33 C 0.39774 0.33739 0.02473 0.0
C34 C 0.39851 0.38949 0.19103 0.0
C35 C 0.3611 0.36577 0.24257 0.0
N36 N 0.36139 0.35968 0.15042 0.0
C37 C 0.3859 0.37713 0.14685 0.0
C38 C 0.34908 0.3538 0.19756 0.0
C39 C 0.38597 0.38376 0.23917 0.0
C40 C 0.33657 0.27503 0.94958 0.0
N41 N 0.35579 0.29787 0.94211 0.0
C42 C 0.34507 0.24596 0.93936 0.0
C43 C 0.37349 0.24033 0.92137 0.0
C44 C 0.39298 0.26373 0.91373 0.0
C45 C 0.3837 0.2925 0.92431 0.0
C46 C 0.36025 0.34472 0.79777 0.0
C47 C 0.37293 0.37664 0.88617 0.0
C48 C 0.35055 0.33523 0.84622 0.0
N49 N 0.35692 0.35116 0.88968 0.0
C50 C 0.38304 0.38678 0.83837 0.0
C51 C 0.37661 0.37068 0.79392 0.0
C52 C 0.33922 0.39395 0.01254 0.0
C53 C 0.25358 0.3453 0.11663 0.0
C54 C 0.30088 0.38357 0.12542 0.0
C55 C 0.27269 0.39321 0.13921 0.0
C56 C 0.24892 0.37387 0.13486 0.0
N57 N 0.30535 0.35539 0.10807 0.0
C58 C 0.28208 0.33645 0.10314 0.0
Co59 Co 0.67201 0.34126 0.0827 0.0
Co60 Co 0.67612 0.34524 0.95221 0.0
O61 O 0.68924 0.32796 0.01749 0.0
C62 C 0.7254 0.34841 0.14832 0.0
O63 O 0.71872 0.37649 0.15331 0.0
C64 C 0.66867 0.29165 0.88686 0.0
O65 O 0.64065 0.29845 0.88185 0.0
O66 O 0.63505 0.33226 0.96837 0.0
O67 O 0.63293 0.34967 0.04924 0.0
H68 H 0.60718 0.40325 0.83907 0.0
H69 H 0.70025 0.28233 0.0766 0.0
O70 O 0.71038 0.33204 0.11805 0.0
H71 H 0.59827 0.26322 0.13393 0.0
H72 H 0.65261 0.33664 0.27443 0.0
H73 H 0.63558 0.39261 0.11373 0.0
H74 H 0.61526 0.31409 0.11781 0.0
H75 H 0.67314 0.31913 0.19173 0.0
O76 O 0.6851 0.3067 0.91698 0.0
H77 H 0.62517 0.3821 0.92099 0.0
H78 H 0.69825 0.34376 0.84321 0.0
H79 H 0.61449 0.41082 0.19555 0.0
H80 H 0.68427 0.23111 0.09303 0.0
H81 H 0.62298 0.38278 0.27669 0.0
H82 H 0.63292 0.2213 0.12182 0.0
O83 O 0.68529 0.38224 0.06651 0.0
H84 H 0.78605 0.33211 0.94217 0.0
H85 H 0.70372 0.40179 0.91691 0.0
H86 H 0.75467 0.41839 0.9008 0.0
H87 H 0.79627 0.38339 0.91316 0.0
H88 H 0.73477 0.31652 0.95856 0.0
H89 H 0.68095 0.36433 0.7604 0.0
H90 H 0.63513 0.39438 0.75799 0.0
O91 O 0.66804 0.38449 0.98557 0.0
C92 C 0.62048 0.34008 1.00831 0.0
C93 C 0.62718 0.39019 0.83962 0.0
C94 C 0.66857 0.36835 0.79546 0.0
N95 N 0.66271 0.36169 0.88695 0.0
C96 C 0.63748 0.37816 0.88591 0.0
C97 C 0.67823 0.35671 0.84247 0.0
C98 C 0.64287 0.38521 0.79414 0.0
C99 C 0.67794 0.27826 0.0895 0.0
N100 N 0.65881 0.30122 0.09657 0.0
C101 C 0.66899 0.2492 0.09859 0.0
C102 C 0.64017 0.2437 0.1147 0.0
C103 C 0.62071 0.26721 0.12149 0.0
C104 C 0.63046 0.29598 0.11214 0.0
C105 C 0.64875 0.34906 0.23935 0.0
C106 C 0.63936 0.38026 0.14884 0.0
C107 C 0.66037 0.33929 0.1924 0.0
N108 N 0.6556 0.35485 0.14789 0.0
C109 C 0.62736 0.39069 0.19507 0.0
C110 C 0.63214 0.37494 0.24058 0.0
C111 C 0.67765 0.3969 0.02654 0.0
C112 C 0.76811 0.34753 0.9365 0.0
C113 C 0.72169 0.38645 0.92268 0.0
C114 C 0.7505 0.39596 0.91334 0.0
C115 C 0.77383 0.37632 0.92027 0.0
N116 N 0.71623 0.35812 0.93836 0.0
C117 C 0.73901 0.3388 0.94556 0.0
Co118 Co 0.67228 0.67406 0.08592 0.0
Co119 Co 0.67234 0.67322 0.9544 0.0
O120 O 0.68735 0.68959 0.01983 0.0
C121 C 0.68697 0.73857 0.10686 0.0
O122 O 0.69365 0.74345 0.05829 0.0
C123 C 0.73562 0.69165 0.93195 0.0
O124 O 0.7398 0.70051 0.9796 0.0
O125 O 0.68636 0.63352 0.9762 0.0
O126 O 0.66645 0.63367 0.05513 0.0
H127 H 0.61803 0.59803 0.84805 0.0
H128 H 0.73172 0.70267 0.08239 0.0
O129 O 0.67764 0.71334 0.12139 0.0
H130 H 0.74862 0.60363 0.15529 0.0
H131 H 0.66843 0.66216 0.27943 0.0
H132 H 0.62167 0.63574 0.11385 0.0
H133 H 0.69856 0.61948 0.13108 0.0
H134 H 0.68876 0.68063 0.19719 0.0
O135 O 0.71116 0.68027 0.91818 0.0
H136 H 0.63652 0.62048 0.92848 0.0
H137 H 0.67758 0.68911 0.8426 0.0
H138 H 0.60084 0.61653 0.19518 0.0
H139 H 0.78197 0.68789 0.10672 0.0
H140 H 0.62424 0.62973 0.27877 0.0
H141 H 0.79079 0.63798 0.14342 0.0
O142 O 0.63179 0.68592 0.06479 0.0
H143 H 0.67983 0.78357 0.93048 0.0
H144 H 0.61634 0.69608 0.90932 0.0
H145 H 0.59761 0.74496 0.88383 0.0
H146 H 0.62949 0.78918 0.89401 0.0
H147 H 0.69743 0.73447 0.95627 0.0
H148 H 0.65977 0.66721 0.76123 0.0
H149 H 0.62964 0.62142 0.76363 0.0
O150 O 0.63252 0.66557 0.98616 0.0
C151 C 0.67787 0.62008 0.01684 0.0
C152 C 0.63107 0.61803 0.8465 0.0
C153 C 0.65453 0.65683 0.79778 0.0
N154 N 0.65796 0.65619 0.89035 0.0
C155 C 0.64155 0.63089 0.89195 0.0
C156 C 0.66464 0.66908 0.844 0.0
C157 C 0.63762 0.63115 0.79915 0.0
C158 C 0.73513 0.68111 0.09886 0.0
N159 N 0.71198 0.66222 0.1058 0.0
C160 C 0.76376 0.67277 0.11235 0.0
C161 C 0.76871 0.64476 0.13286 0.0
C162 C 0.74507 0.62548 0.13951 0.0
C163 C 0.71674 0.63461 0.12562 0.0
C164 C 0.65806 0.65621 0.24326 0.0
C165 C 0.63209 0.64147 0.15001 0.0
C166 C 0.66942 0.66668 0.19654 0.0
N167 N 0.65653 0.65913 0.15066 0.0
C168 C 0.62015 0.63057 0.19597 0.0
C169 C 0.63327 0.63801 0.24285 0.0
C170 C 0.61862 0.67664 0.02444 0.0
C171 C 0.66578 0.76445 0.92552 0.0
C172 C 0.63041 0.71515 0.91406 0.0
C173 C 0.61965 0.74281 0.89944 0.0
C174 C 0.63753 0.7676 0.90515 0.0
N175 N 0.65828 0.71213 0.93368 0.0
C176 C 0.67577 0.73643 0.9398 0.0
Co177 Co 0.34194 0.67086 0.94213 0.0
Co178 Co 0.3424 0.6712 0.0737 0.0
O179 O 0.32706 0.68687 1.00796 0.0
C180 C 0.3272 0.73526 0.91988 0.0
O181 O 0.32081 0.74043 0.96847 0.0
C182 C 0.27915 0.68962 0.09639 0.0
O183 O 0.27478 0.69818 0.04859 0.0
O184 O 0.32857 0.63123 0.05326 0.0
O185 O 0.34805 0.63069 0.97398 0.0
H186 H 0.39757 0.59733 0.18171 0.0
H187 H 0.28249 0.69936 0.94542 0.0
O188 O 0.33631 0.70989 0.90567 0.0
H189 H 0.26555 0.59962 0.87574 0.0
H190 H 0.34513 0.65741 0.74893 0.0
H191 H 0.3926 0.63252 0.91468 0.0
H192 H 0.31566 0.6158 0.8989 0.0
H193 H 0.32502 0.67646 0.83089 0.0
O194 O 0.30366 0.67828 0.11008 0.0
H195 H 0.3787 0.61895 0.1008 0.0
H196 H 0.33739 0.68803 0.18505 0.0
H197 H 0.41323 0.61274 0.83364 0.0
H198 H 0.23217 0.68425 0.92213 0.0
H199 H 0.38946 0.62517 0.74998 0.0
H200 H 0.22334 0.63399 0.88704 0.0
O201 O 0.38245 0.68308 0.96246 0.0
H202 H 0.33438 0.78172 0.09468 0.0
H203 H 0.39843 0.69475 0.1174 0.0
H204 H 0.41701 0.74394 0.14122 0.0
H205 H 0.38486 0.78791 0.13024 0.0
H206 H 0.31691 0.73234 0.07058 0.0
H207 H 0.35557 0.66696 0.26689 0.0
H208 H 0.38602 0.62137 0.26554 0.0
O209 O 0.38216 0.66351 0.04174 0.0
C210 C 0.33698 0.61741 0.01298 0.0
C211 C 0.38439 0.61725 0.18279 0.0
C212 C 0.36079 0.6563 0.2306 0.0
N213 N 0.35711 0.65483 0.13809 0.0
C214 C 0.37369 0.62964 0.13707 0.0
C215 C 0.35047 0.66808 0.18412 0.0
C216 C 0.37788 0.63073 0.22982 0.0
C217 C 0.27906 0.67765 0.92967 0.0
N218 N 0.30222 0.65874 0.92304 0.0
C219 C 0.25039 0.66912 0.91676 0.0
C220 C 0.24544 0.64091 0.89715 0.0
C221 C 0.2691 0.62162 0.89082 0.0
C222 C 0.29746 0.63093 0.90412 0.0
C223 C 0.35566 0.65179 0.78515 0.0
C224 C 0.38202 0.63791 0.87848 0.0
C225 C 0.34443 0.66259 0.8317 0.0
N226 N 0.35751 0.65546 0.87764 0.0
C227 C 0.39385 0.62669 0.83269 0.0
C228 C 0.38053 0.6337 0.78576 0.0
C229 C 0.39583 0.67435 1.00298 0.0
C230 C 0.34855 0.76272 0.09996 0.0
C231 C 0.38423 0.71371 0.1123 0.0
C232 C 0.39492 0.74154 0.12598 0.0
C233 C 0.37688 0.76619 0.11982 0.0
N234 N 0.35629 0.71038 0.09314 0.0
C235 C 0.33864 0.73454 0.08663 0.0
Co236 Co 0.843 0.83873 0.45655 0.0
Co237 Co 0.84439 0.84458 0.58742 0.0
O238 O 0.82796 0.82674 0.52458 0.0
C239 C 0.78802 0.84584 0.39543 0.0
O240 O 0.79508 0.87374 0.38913 0.0
C241 C 0.82712 0.782 0.6177 0.0
O242 O 0.81832 0.77584 0.57067 0.0
O243 O 0.88429 0.83067 0.56644 0.0
O244 O 0.88337 0.84728 0.48511 0.0
H245 H 0.91876 0.90486 0.6853 0.0
H246 H 0.81385 0.78038 0.4659 0.0
O247 O 0.80334 0.82956 0.42548 0.0
H248 H 0.9142 0.75888 0.40274 0.0
H249 H 0.85613 0.83058 0.26351 0.0
H250 H 0.87844 0.88935 0.41895 0.0
H251 H 0.89845 0.81019 0.41827 0.0
H252 H 0.83833 0.81462 0.34907 0.0
O253 O 0.83841 0.80706 0.62832 0.0
H254 H 0.89623 0.88278 0.60777 0.0
H255 H 0.82951 0.84315 0.69998 0.0
H256 H 0.89683 0.90602 0.33417 0.0
H257 H 0.82858 0.72875 0.45018 0.0
H258 H 0.88566 0.87657 0.25566 0.0
H259 H 0.87912 0.71772 0.4185 0.0
O260 O 0.83067 0.88004 0.47203 0.0
H261 H 0.7342 0.83618 0.6106 0.0
H262 H 0.82064 0.90141 0.62777 0.0
H263 H 0.77148 0.92005 0.65158 0.0
H264 H 0.7278 0.88729 0.64346 0.0
H265 H 0.78356 0.81862 0.58641 0.0
H266 H 0.85154 0.86454 0.77855 0.0
H267 H 0.8964 0.89578 0.77148 0.0
O268 O 0.85082 0.8832 0.55072 0.0
C269 C 0.89735 0.83803 0.52473 0.0
C270 C 0.89917 0.89135 0.68887 0.0
C271 C 0.86147 0.86869 0.74121 0.0
N272 N 0.86147 0.86183 0.64922 0.0
C273 C 0.88626 0.87884 0.64507 0.0
C274 C 0.84916 0.85654 0.69658 0.0
C275 C 0.88663 0.88622 0.73722 0.0
C276 C 0.83584 0.77579 0.45195 0.0
N277 N 0.85525 0.79832 0.44322 0.0
C278 C 0.84407 0.74649 0.44318 0.0
C279 C 0.87243 0.74032 0.42544 0.0
C280 C 0.89213 0.7634 0.41664 0.0
C281 C 0.88312 0.79242 0.42577 0.0
C282 C 0.86114 0.84361 0.29743 0.0
C283 C 0.8735 0.87639 0.38501 0.0
C284 C 0.85109 0.83471 0.34599 0.0
N285 N 0.85729 0.85106 0.38905 0.0
C286 C 0.88398 0.88595 0.33708 0.0
C287 C 0.87771 0.86941 0.29305 0.0
C288 C 0.83959 0.89514 0.51058 0.0
C289 C 0.7531 0.85057 0.61487 0.0
C290 C 0.80183 0.88689 0.62427 0.0
C291 C 0.774 0.89763 0.63778 0.0
C292 C 0.74951 0.87926 0.63319 0.0
N293 N 0.80531 0.85854 0.60703 0.0
C294 C 0.78127 0.8406 0.60163 0.0
Co295 Co 0.1731 0.84559 0.43895 0.0
Co296 Co 0.17417 0.84021 0.56986 0.0
O297 O 0.18929 0.82789 0.50208 0.0
C298 C 0.18992 0.78278 0.40976 0.0
O299 O 0.19887 0.77689 0.45681 0.0
C300 C 0.22908 0.84638 0.63178 0.0
O301 O 0.22245 0.87436 0.63846 0.0
O302 O 0.18696 0.8814 0.55404 0.0
O303 O 0.16698 0.88441 0.47517 0.0
H304 H 0.12085 0.90843 0.69121 0.0
H305 H 0.23376 0.81921 0.44057 0.0
O306 O 0.17881 0.80785 0.39862 0.0
H307 H 0.24658 0.92021 0.37364 0.0
H308 H 0.16622 0.86491 0.24754 0.0
H309 H 0.12157 0.88409 0.41799 0.0
H310 H 0.19729 0.90207 0.3978 0.0
H311 H 0.18804 0.84363 0.32644 0.0
O312 O 0.21365 0.83056 0.60121 0.0
H313 H 0.13926 0.89135 0.60673 0.0
H314 H 0.17823 0.81626 0.67761 0.0
H315 H 0.09925 0.90607 0.34013 0.0
H316 H 0.28324 0.83625 0.41604 0.0
H317 H 0.12159 0.89651 0.25411 0.0
H318 H 0.29001 0.88714 0.38228 0.0
O319 O 0.13309 0.83203 0.46 0.0
H320 H 0.18729 0.73007 0.5772 0.0
H321 H 0.11835 0.81239 0.60819 0.0
H322 H 0.10198 0.76132 0.62406 0.0
H323 H 0.13659 0.7197 0.60876 0.0
H324 H 0.20265 0.78148 0.56112 0.0
H325 H 0.1604 0.83263 0.76286 0.0
H326 H 0.13143 0.87902 0.77007 0.0
O327 O 0.13395 0.84913 0.54096 0.0
C328 C 0.17818 0.89643 0.51524 0.0
C329 C 0.13346 0.88819 0.68858 0.0
C330 C 0.15565 0.84565 0.7288 0.0
N331 N 0.15987 0.85287 0.63715 0.0
C332 C 0.14395 0.8784 0.64083 0.0
C333 C 0.16573 0.83652 0.68039 0.0
C334 C 0.1394 0.87168 0.73281 0.0
C335 C 0.2362 0.84109 0.42496 0.0
N336 N 0.2123 0.85917 0.41924 0.0
C337 C 0.26444 0.85077 0.41154 0.0
C338 C 0.26825 0.87934 0.39272 0.0
C339 C 0.2439 0.89788 0.38783 0.0
C340 C 0.21599 0.88742 0.40154 0.0
C341 C 0.1563 0.86926 0.28481 0.0
C342 C 0.13153 0.87995 0.38076 0.0
C343 C 0.16849 0.85719 0.32963 0.0
N344 N 0.15619 0.86275 0.37689 0.0
C345 C 0.11874 0.8924 0.33678 0.0
C346 C 0.13127 0.887 0.28852 0.0
C347 C 0.11999 0.83957 0.50156 0.0
C348 C 0.172 0.748 0.58398 0.0
C349 C 0.13348 0.79443 0.60087 0.0
C350 C 0.12411 0.76554 0.61021 0.0
C351 C 0.14355 0.7422 0.60166 0.0
N352 N 0.16144 0.79996 0.58347 0.0
C353 C 0.18059 0.77718 0.57501 0.0
Co354 Co 0.17125 0.17185 0.59035 0.0
Co355 Co 0.17126 0.17509 0.45913 0.0
O356 O 0.18626 0.18904 0.5259 0.0
C357 C 0.18368 0.23626 0.61442 0.0
O358 O 0.18853 0.24223 0.56559 0.0
C359 C 0.2267 0.16932 0.39799 0.0
O360 O 0.22102 0.14105 0.39256 0.0
O361 O 0.1852 0.13454 0.47679 0.0
O362 O 0.16619 0.13222 0.55647 0.0
H363 H 0.11917 0.10356 0.34224 0.0
H364 H 0.22999 0.20142 0.58734 0.0
O365 O 0.17603 0.21039 0.62847 0.0
H366 H 0.24894 0.1016 0.65555 0.0
H367 H 0.16713 0.15538 0.78281 0.0
H368 H 0.12127 0.13204 0.61505 0.0
H369 H 0.19852 0.11689 0.63236 0.0
H370 H 0.18733 0.17612 0.70213 0.0
O371 O 0.2104 0.18522 0.427 0.0
H372 H 0.13732 0.12261 0.42556 0.0
H373 H 0.17484 0.19699 0.35008 0.0
H374 H 0.10057 0.11058 0.69476 0.0
H375 H 0.28063 0.1872 0.61076 0.0
H376 H 0.12353 0.12222 0.77943 0.0
H377 H 0.29043 0.13693 0.64512 0.0
O378 O 0.13062 0.18353 0.56981 0.0
H379 H 0.18157 0.28531 0.44383 0.0
H380 H 0.11451 0.20066 0.42054 0.0
H381 H 0.09672 0.25091 0.40159 0.0
H382 H 0.13037 0.29369 0.41299 0.0
H383 H 0.19833 0.23473 0.46317 0.0
H384 H 0.15723 0.17867 0.26593 0.0
H385 H 0.12912 0.13165 0.26163 0.0
O386 O 0.13137 0.1657 0.48923 0.0
C387 C 0.17716 0.11987 0.51649 0.0
C388 C 0.13139 0.12408 0.3436 0.0
C389 C 0.15275 0.16622 0.30077 0.0
N390 N 0.15715 0.16087 0.39276 0.0
C391 C 0.14173 0.13498 0.39069 0.0
C392 C 0.1627 0.17647 0.34855 0.0
C393 C 0.13699 0.13984 0.29839 0.0
C394 C 0.23388 0.17971 0.60299 0.0
N395 N 0.2111 0.1603 0.60944 0.0
C396 C 0.2627 0.17168 0.61587 0.0
C397 C 0.2682 0.14346 0.63506 0.0
C398 C 0.24494 0.12364 0.64093 0.0
C399 C 0.2164 0.13245 0.62771 0.0
C400 C 0.15696 0.1501 0.74614 0.0
C401 C 0.1315 0.13709 0.65169 0.0
C402 C 0.16824 0.16185 0.70032 0.0
N403 N 0.15561 0.15515 0.65382 0.0
C404 C 0.11963 0.12493 0.69673 0.0
C405 C 0.1325 0.13149 0.74422 0.0
C406 C 0.11745 0.17526 0.52876 0.0
C407 C 0.16668 0.26686 0.43875 0.0
C408 C 0.12922 0.21915 0.42627 0.0
C409 C 0.11905 0.24756 0.41515 0.0
C410 C 0.13795 0.27155 0.42149 0.0
N411 N 0.15742 0.21472 0.44335 0.0
C412 C 0.17607 0.23814 0.44956 0.0
Co413 Co 0.84095 0.17131 0.58168 0.0
Co414 Co 0.84067 0.17279 0.44998 0.0
O415 O 0.82571 0.18776 0.51645 0.0
C416 C 0.77685 0.18682 0.60295 0.0
O417 O 0.7719 0.19234 0.55398 0.0
C418 C 0.82732 0.23775 0.43168 0.0
O419 O 0.82186 0.24224 0.48081 0.0
O420 O 0.8812 0.18438 0.47097 0.0
O421 O 0.88088 0.16425 0.54983 0.0
H422 H 0.91168 0.11592 0.33893 0.0
H423 H 0.81396 0.23145 0.58243 0.0
O424 O 0.80208 0.17783 0.61793 0.0
H425 H 0.91445 0.2447 0.6509 0.0
H426 H 0.85382 0.16513 0.77476 0.0
H427 H 0.87742 0.11895 0.60728 0.0
H428 H 0.89688 0.19538 0.62534 0.0
H429 H 0.83565 0.18695 0.69352 0.0
O430 O 0.83539 0.2124 0.41564 0.0
H431 H 0.89111 0.13457 0.42084 0.0
H432 H 0.82393 0.1803 0.33903 0.0
H433 H 0.89628 0.09658 0.68757 0.0
H434 H 0.83046 0.28101 0.60828 0.0
H435 H 0.88449 0.11969 0.77211 0.0
H436 H 0.8811 0.28797 0.64269 0.0
O437 O 0.82753 0.13147 0.55964 0.0
H438 H 0.7313 0.18799 0.42786 0.0
H439 H 0.8139 0.11843 0.40495 0.0
H440 H 0.76371 0.10318 0.3804 0.0
H441 H 0.72195 0.13811 0.39155 0.0
H442 H 0.78169 0.20215 0.45264 0.0
H443 H 0.84398 0.16238 0.25623 0.0
H444 H 0.88807 0.12982 0.25583 0.0
O445 O 0.84647 0.13215 0.47989 0.0
C446 C 0.89456 0.17513 0.51113 0.0
C447 C 0.8924 0.13002 0.3386 0.0
C448 C 0.85443 0.15613 0.29218 0.0
N449 N 0.85623 0.15834 0.38482 0.0
C450 C 0.88061 0.1406 0.38489 0.0
C451 C 0.84323 0.16627 0.33921 0.0
C452 C 0.87917 0.13785 0.29199 0.0
C453 C 0.83586 0.23409 0.59786 0.0
N454 N 0.85425 0.21036 0.60261 0.0
C455 C 0.84517 0.26232 0.61223 0.0
C456 C 0.87359 0.26622 0.63146 0.0
C457 C 0.89231 0.24196 0.63604 0.0
C458 C 0.88223 0.21407 0.62133 0.0
C459 C 0.85914 0.15488 0.73816 0.0
C460 C 0.87231 0.12924 0.64386 0.0
C461 C 0.84885 0.16708 0.69201 0.0
N462 N 0.85562 0.15434 0.6456 0.0
C463 C 0.883 0.11643 0.68923 0.0
C464 C 0.87636 0.12939 0.73664 0.0
C465 C 0.83575 0.1183 0.51857 0.0
C466 C 0.74932 0.1726 0.42262 0.0
C467 C 0.79588 0.13376 0.41025 0.0
C468 C 0.76749 0.125 0.3961 0.0
C469 C 0.74408 0.14461 0.40233 0.0
N470 N 0.80092 0.16132 0.43 0.0
C471 C 0.77802 0.18059 0.43637 0.0
C472 C 0.31852 0.44152 0.97778 0.0
C473 C 0.33807 0.4267 1.01083 0.0
C474 C 0.31678 0.47256 0.97766 0.0
C475 C 0.33546 0.48917 1.01058 0.0
C476 C 0.35545 0.47429 0.04353 0.0
C477 C 0.35631 0.44333 0.04361 0.0
C478 C 0.29483 0.4876 0.9426 0.0
C479 C 0.3762 0.4911 0.07843 0.0
C480 C 0.35308 0.56889 0.97625 0.0
C481 C 0.33595 0.58463 0.01213 0.0
C482 C 0.35289 0.5379 0.97504 0.0
C483 C 0.33472 0.52212 1.00993 0.0
C484 C 0.31693 0.53783 0.04559 0.0
C485 C 0.31797 0.56889 0.04662 0.0
C486 C 0.37266 0.52205 0.93711 0.0
C487 C 0.2969 0.52182 0.08285 0.0
H488 H 0.3042 0.42884 0.95268 0.0
H489 H 0.37162 0.43211 0.06909 0.0
H490 H 0.27987 0.5018 0.96573 0.0
H491 H 0.30653 0.50218 0.91491 0.0
H492 H 0.28132 0.47154 0.92043 0.0
H493 H 0.3906 0.47621 0.10141 0.0
H494 H 0.39038 0.50594 0.05503 0.0
H495 H 0.36345 0.5052 0.10543 0.0
H496 H 0.36715 0.58079 0.94952 0.0
H497 H 0.3045 0.58085 0.07417 0.0
H498 H 0.3594 0.50719 0.91223 0.0
H499 H 0.38868 0.50806 0.95835 0.0
H500 H 0.3851 0.53758 0.91198 0.0
H501 H 0.28205 0.50668 0.06143 0.0
H502 H 0.28324 0.53724 0.10612 0.0
H503 H 0.31024 0.50808 0.10956 0.0
C504 C 0.44497 0.35336 0.98334 0.0
C505 C 0.43043 0.3369 0.02168 0.0
C506 C 0.47583 0.35332 0.97936 0.0
C507 C 0.49268 0.336 0.01398 0.0
C508 C 0.47817 0.31894 0.05225 0.0
C509 C 0.44721 0.31982 0.05599 0.0
C510 C 0.49041 0.37232 0.93874 0.0
C511 C 0.49536 0.29985 0.08938 0.0
C512 C 0.57238 0.31934 0.97663 0.0
C513 C 0.58781 0.3395 1.00754 0.0
C514 C 0.54139 0.31762 0.97878 0.0
C515 C 0.52554 0.33698 0.0117 0.0
C516 C 0.54105 0.35776 0.0421 0.0
C517 C 0.57194 0.35856 0.04004 0.0
C518 C 0.52564 0.29483 0.94644 0.0
C519 C 0.52503 0.37928 0.07677 0.0
H520 H 0.43223 0.36674 0.95673 0.0
H521 H 0.43615 0.30685 0.08539 0.0
H522 H 0.50484 0.38892 0.95757 0.0
H523 H 0.50464 0.35858 0.9135 0.0
H524 H 0.47412 0.3841 0.91418 0.0
H525 H 0.48075 0.28664 0.11496 0.0
H526 H 0.50996 0.28458 0.06767 0.0
H527 H 0.50973 0.31388 0.11386 0.0
H528 H 0.58456 0.30439 0.95184 0.0
H529 H 0.58372 0.37435 0.0638 0.0
H530 H 0.51003 0.30582 0.91965 0.0
H531 H 0.51247 0.28008 0.97177 0.0
H532 H 0.54117 0.28113 0.92345 0.0
H533 H 0.50934 0.39268 0.05369 0.0
H534 H 0.54036 0.39446 0.09715 0.0
H535 H 0.51195 0.36709 0.10606 0.0
C536 C 0.69792 0.4449 0.05979 0.0
C537 C 0.67834 0.42961 0.02757 0.0
C538 C 0.6995 0.47595 0.05858 0.0
C539 C 0.68057 0.49201 0.02522 0.0
C540 C 0.66046 0.47663 0.99327 0.0
C541 C 0.65981 0.44568 0.99446 0.0
C542 C 0.72158 0.49155 0.09256 0.0
C543 C 0.63941 0.49286 0.95806 0.0
C544 C 0.66245 0.57199 0.05604 0.0
C545 C 0.67921 0.58733 0.01909 0.0
C546 C 0.66299 0.54106 0.05882 0.0
C547 C 0.68112 0.52493 0.02441 0.0
C548 C 0.69856 0.54025 0.98765 0.0
C549 C 0.69719 0.57127 0.9851 0.0
C550 C 0.6436 0.52561 0.09788 0.0
C551 C 0.7185 0.52385 0.9508 0.0
H552 H 0.71247 0.43259 0.08509 0.0
H553 H 0.64446 0.43403 0.96966 0.0
H554 H 0.73641 0.50539 0.0685 0.0
H555 H 0.70999 0.50656 0.11967 0.0
H556 H 0.73522 0.47586 0.11532 0.0
H557 H 0.6249 0.47761 0.93609 0.0
H558 H 0.62533 0.508 0.98106 0.0
H559 H 0.65192 0.5066 0.93015 0.0
H560 H 0.6484 0.58413 0.08242 0.0
H561 H 0.71039 0.58294 0.95674 0.0
H562 H 0.65713 0.51118 0.12312 0.0
H563 H 0.62752 0.51123 0.07762 0.0
H564 H 0.63124 0.54139 0.1226 0.0
H565 H 0.73354 0.50909 0.97264 0.0
H566 H 0.73196 0.53903 0.92667 0.0
H567 H 0.70512 0.50969 0.92489 0.0
C568 C 0.44472 0.69403 0.97264 0.0
C569 C 0.42854 0.67523 1.00506 0.0
C570 C 0.47566 0.69562 0.97613 0.0
C571 C 0.49077 0.67757 0.01222 0.0
C572 C 0.47453 0.65837 0.04468 0.0
C573 C 0.44368 0.65763 0.04101 0.0
C574 C 0.49219 0.71669 0.94138 0.0
C575 C 0.48977 0.63832 0.08294 0.0
C576 C 0.57113 0.65879 0.98664 0.0
C577 C 0.5859 0.67694 0.0222 0.0
C578 C 0.54027 0.65887 0.98297 0.0
C579 C 0.52363 0.67793 0.01502 0.0
C580 C 0.53835 0.69654 0.05069 0.0
C581 C 0.56932 0.69562 0.05421 0.0
C582 C 0.52546 0.63825 0.94518 0.0
C583 C 0.52139 0.71747 0.08498 0.0
H584 H 0.43318 0.70789 0.9451 0.0
H585 H 0.4314 0.64291 0.06613 0.0
H586 H 0.50579 0.73193 0.965 0.0
H587 H 0.50748 0.70421 0.91602 0.0
H588 H 0.47715 0.72997 0.91672 0.0
H589 H 0.47392 0.62472 0.10545 0.0
H590 H 0.50513 0.62333 0.0623 0.0
H591 H 0.50312 0.65158 0.1103 0.0
H592 H 0.5837 0.64416 0.96187 0.0
H593 H 0.58057 0.70987 0.08145 0.0
H594 H 0.51182 0.65104 0.91754 0.0
H595 H 0.51043 0.62306 0.96617 0.0
H596 H 0.5416 0.62484 0.92295 0.0
H597 H 0.50745 0.73226 0.06104 0.0
H598 H 0.53614 0.73124 0.10931 0.0
H599 H 0.50638 0.70484 0.11065 0.0
C600 C 0.85743 0.94441 0.54029 0.0
C601 C 0.83845 0.92784 0.50875 0.0
C602 C 0.85623 0.97534 0.54107 0.0
C603 C 0.83515 0.99021 0.51027 0.0
C604 C 0.81585 0.97366 0.47839 0.0
C605 C 0.81793 0.94264 0.47759 0.0
C606 C 0.87766 0.9921 0.57475 0.0
C607 C 0.79279 0.98872 0.44563 0.0
C608 C 0.81777 0.06914 0.55115 0.0
C609 C 0.83479 0.08554 0.51612 0.0
C610 C 0.81692 0.03811 0.54868 0.0
C611 C 0.8339 0.02312 0.5109 0.0
C612 C 0.85101 0.03958 0.47536 0.0
C613 C 0.85106 0.07051 0.47813 0.0
C614 C 0.79807 0.02134 0.58679 0.0
C615 C 0.86989 0.02449 0.43515 0.0
H616 H 0.87349 0.93317 0.56427 0.0
H617 H 0.80304 0.92996 0.45352 0.0
H618 H 0.89088 1.00751 0.55074 0.0
H619 H 0.86545 1.0056 0.60339 0.0
H620 H 0.89298 0.97721 0.59583 0.0
H621 H 0.77912 0.9727 0.42367 0.0
H622 H 0.77807 1.0022 0.47049 0.0
H623 H 0.8035 1.004 0.41786 0.0
H624 H 0.80497 0.08055 0.58035 0.0
H625 H 0.86437 0.08291 0.45093 0.0
H626 H 0.81226 1.00754 0.612 0.0
H627 H 0.78295 1.00619 0.56596 0.0
H628 H 0.78474 0.03626 0.6116 0.0
H629 H 0.88675 0.01057 0.45444 0.0
H630 H 0.88132 0.0405 0.40949 0.0
H631 H 0.85617 0.00967 0.41098 0.0
C632 C 0.07097 0.82018 0.47169 0.0
C633 C 0.08732 0.83876 0.50416 0.0
C634 C 0.04004 0.81871 0.47551 0.0
C635 C 0.02511 0.83673 0.51186 0.0
C636 C 0.04153 0.85573 0.54435 0.0
C637 C 0.07239 0.85628 0.54047 0.0
C638 C 0.02334 0.7978 0.44082 0.0
C639 C 0.02648 0.87579 0.5828 0.0
C640 C 0.94478 0.85569 0.48655 0.0
C641 C 0.93002 0.83762 0.52228 0.0
C642 C 0.97564 0.85561 0.48286 0.0
C643 C 0.99226 0.83653 0.51491 0.0
C644 C 0.97752 0.81796 0.5507 0.0
C645 C 0.94656 0.81898 0.55438 0.0
C646 C 0.99048 0.87627 0.44508 0.0
C647 C 0.99445 0.79693 0.58487 0.0
H648 H 0.08239 0.80639 0.4439 0.0
H649 H 0.08483 0.87083 0.56557 0.0
H650 H 0.00963 0.78265 0.46447 0.0
H651 H 0.00815 0.81041 0.41549 0.0
H652 H 0.03827 0.78442 0.41611 0.0
H653 H 0.04245 0.88929 0.60518 0.0
H654 H 0.01113 0.89088 0.56234 0.0
H655 H 0.01313 0.86256 0.61027 0.0
H656 H 0.93217 0.87031 0.46179 0.0
H657 H 0.93528 0.80478 0.58173 0.0
H658 H 1.00397 0.86348 0.4172 0.0
H659 H 1.00565 0.8913 0.46602 0.0
H660 H 0.97437 0.88984 0.42312 0.0
H661 H 0.00832 0.78213 0.56083 0.0
H662 H 0.97967 0.78317 0.60924 0.0
H663 H 0.00951 0.80947 0.6105 0.0
C664 C 0.19729 0.07203 0.4816 0.0
C665 C 0.17874 0.08711 0.51603 0.0
C666 C 0.19908 0.04098 0.48222 0.0
C667 C 0.18149 0.02464 0.51739 0.0
C668 C 0.16269 0.03978 0.55207 0.0
C669 C 0.16174 0.07073 0.55127 0.0
C670 C 0.21973 0.02564 0.44517 0.0
C671 C 0.14307 0.02326 0.58941 0.0
C672 C 0.16107 0.94564 0.4835 0.0
C673 C 0.17918 0.9292 0.51683 0.0
C674 C 0.16177 0.9766 0.48317 0.0
C675 C 0.18145 0.99168 0.51634 0.0
C676 C 0.20006 0.97527 0.54975 0.0
C677 C 0.19849 0.94421 0.54998 0.0
C678 C 0.14108 0.99317 0.44776 0.0
C679 C 0.22164 0.99056 0.58513 0.0
H680 H 0.21066 0.0845 0.45458 0.0
H681 H 0.14721 0.0821 0.57792 0.0
H682 H 0.23487 0.01085 0.46673 0.0
H683 H 0.20692 0.01164 0.41814 0.0
H684 H 0.23308 0.04152 0.42225 0.0
H685 H 0.13005 0.03835 0.61443 0.0
H686 H 0.12756 0.00895 0.56769 0.0
H687 H 0.15653 1.00866 0.61444 0.0
H688 H 0.14594 0.9343 0.45789 0.0
H689 H 0.21273 0.93167 0.57548 0.0
H690 H 0.15382 1.00767 0.42139 0.0
H691 H 0.12634 1.00759 0.47089 0.0
H692 H 0.12724 0.97812 0.4241 0.0
H693 H 0.23635 1.00519 0.56232 0.0
H694 H 0.23543 0.97465 0.60714 0.0
H695 H 0.20958 1.00473 0.61298 0.0
C696 C 0.94238 0.15696 0.54723 0.0
C697 C 0.92728 0.17546 0.51267 0.0
C698 C 0.97328 0.15708 0.55007 0.0
C699 C 0.98959 0.1766 0.51828 0.0
C700 C 0.97451 0.19553 0.48358 0.0
C701 C 0.94353 0.19453 0.4808 0.0
C702 C 0.98849 0.1361 0.58681 0.0
C703 C 0.9911 0.21698 0.44966 0.0
C704 C 0.06833 0.19356 0.56023 0.0
C705 C 0.08475 0.17552 0.52688 0.0
C706 C 0.03737 0.19457 0.55724 0.0
C707 C 0.02245 0.17667 0.52074 0.0
C708 C 0.03892 0.15821 0.48735 0.0
C709 C 0.06982 0.15807 0.49049 0.0
C710 C 0.02061 0.21491 0.59293 0.0
C711 C 0.02389 0.13833 0.44863 0.0
H712 H 0.93004 0.14202 0.57183 0.0
H713 H 0.93201 0.20905 0.45431 0.0
H714 H 1.00368 0.12146 0.56505 0.0
H715 H 1.00201 0.14868 0.6149 0.0
H716 H 0.9726 0.12214 0.60856 0.0
H717 H 0.9761 0.23079 0.42584 0.0
H718 H 1.00492 0.23172 0.47385 0.0
H719 H 1.00619 0.20479 0.42352 0.0
H720 H 0.07971 0.2073 0.58811 0.0
H721 H 0.0823 0.14395 0.46468 0.0
H722 H 1.00563 0.20186 0.61801 0.0
H723 H 1.00666 0.23021 0.57003 0.0
H724 H 0.0355 0.22814 0.6179 0.0
H725 H 0.00882 0.12289 0.46895 0.0
H726 H 0.03989 0.12521 0.42559 0.0
H727 H 0.01026 0.15167 0.42179 0.0
C728 C 0.26938 0.16823 0.3358 0.0
C729 C 0.24732 0.18416 0.36165 0.0
C730 C 0.28666 0.1816 0.29702 0.0
C731 C 0.28109 0.2113 0.28265 0.0
C732 C 0.25923 0.2276 0.3094 0.0
C733 C 0.24298 0.21399 0.34896 0.0
C734 C 0.3104 0.16376 0.27062 0.0
C735 C 0.25203 0.25908 0.29472 0.0
C736 C 0.33359 0.25985 0.20545 0.0
C737 C 0.32151 0.25805 0.15566 0.0
C738 C 0.32188 0.24324 0.24655 0.0
C739 C 0.29687 0.22513 0.23808 0.0
C740 C 0.28522 0.22251 0.18747 0.0
C741 C 0.29795 0.23867 0.14676 0.0
C742 C 0.33554 0.24603 0.29948 0.0
C743 C 0.25814 0.20407 0.17686 0.0
H744 H 0.27291 0.1452 0.34546 0.0
H745 H 0.2258 0.22646 0.36827 0.0
H746 H 0.30414 0.1597 0.22983 0.0
H747 H 0.33148 0.17622 0.27026 0.0
H748 H 0.31408 0.14213 0.28981 0.0
H749 H 0.23456 0.26877 0.31962 0.0
H750 H 0.27203 0.27308 0.2976 0.0
H751 H 0.24448 0.25991 0.25397 0.0
H752 H 0.35187 0.27475 0.2125 0.0
H753 H 0.2883 0.23742 0.10852 0.0
H754 H 0.33871 0.22389 0.31703 0.0
H755 H 0.32055 0.25865 0.32516 0.0
H756 H 0.35715 0.25758 0.29822 0.0
H757 H 0.26127 0.18126 0.19146 0.0
H758 H 0.25279 0.20302 0.13503 0.0
H759 H 0.23895 0.21359 0.19766 0.0
C760 C 0.76616 0.35083 0.21408 0.0
C761 C 0.74555 0.33418 0.18607 0.0
C762 C 0.78299 0.33787 0.25381 0.0
C763 C 0.77844 0.3078 0.26681 0.0
C764 C 0.758 0.29083 0.23804 0.0
C765 C 0.74217 0.30409 0.19768 0.0
C766 C 0.80522 0.35645 0.2825 0.0
C767 C 0.75198 0.25886 0.25113 0.0
C768 C 0.8315 0.25998 0.34361 0.0
C769 C 0.81822 0.25985 0.39259 0.0
C770 C 0.82002 0.27721 0.30319 0.0
C771 C 0.79411 0.29402 0.31147 0.0
C772 C 0.78138 0.29496 0.3615 0.0
C773 C 0.79384 0.27815 0.40164 0.0
C774 C 0.83478 0.27619 0.25093 0.0
C775 C 0.75338 0.31204 0.37179 0.0
H776 H 0.76893 0.37408 0.20527 0.0
H777 H 0.72609 0.29106 0.1767 0.0
H778 H 0.79806 0.35933 0.32316 0.0
H779 H 0.82694 0.34516 0.28325 0.0
H780 H 0.80802 0.37863 0.2648 0.0
H781 H 0.73532 0.24877 0.22509 0.0
H782 H 0.77262 0.2458 0.24851 0.0
H783 H 0.7439 0.25711 0.2915 0.0
H784 H 0.85042 0.2459 0.33649 0.0
H785 H 0.78329 0.27787 0.43924 0.0
H786 H 0.83701 0.29878 0.23473 0.0
H787 H 0.82099 0.26323 0.22378 0.0
H788 H 0.85697 0.26584 0.2528 0.0
H789 H 0.75557 0.3351 0.35791 0.0
H790 H 0.74758 0.31242 0.41349 0.0
H791 H 0.73488 0.3018 0.35019 0.0
C792 C 0.74728 0.84847 0.32973 0.0
C793 C 0.76745 0.83159 0.35835 0.0
C794 C 0.73063 0.83571 0.2896 0.0
C795 C 0.73489 0.80559 0.2768 0.0
C796 C 0.75468 0.78831 0.30647 0.0
C797 C 0.77035 0.80139 0.34724 0.0
C798 C 0.70908 0.85465 0.26 0.0
C799 C 0.76038 0.75626 0.29368 0.0
C800 C 0.68214 0.75958 0.1958 0.0
C801 C 0.69613 0.75978 0.14742 0.0
C802 C 0.69343 0.77596 0.23745 0.0
C803 C 0.71987 0.79222 0.23107 0.0
C804 C 0.73344 0.79339 0.18172 0.0
C805 C 0.72118 0.77746 0.14033 0.0
C806 C 0.67779 0.77473 0.2889 0.0
C807 C 0.76199 0.8099 0.17341 0.0
H808 H 0.74486 0.87179 0.33812 0.0
H809 H 0.78605 0.78817 0.36873 0.0
H810 H 0.7171 0.85784 0.2199 0.0
H811 H 0.68732 0.84351 0.25761 0.0
H812 H 0.70605 0.8767 0.27805 0.0
H813 H 0.77619 0.74579 0.32088 0.0
H814 H 0.73945 0.7436 0.29463 0.0
H815 H 0.76942 0.75446 0.25395 0.0
H816 H 0.66273 0.74597 0.20146 0.0
H817 H 0.7323 0.77742 0.10324 0.0
H818 H 0.67555 0.79723 0.3054 0.0
H819 H 0.69097 0.76143 0.31651 0.0
H820 H 0.65552 0.76466 0.2857 0.0
H821 H 0.75988 0.83302 0.18704 0.0
H822 H 0.76879 0.81016 0.13218 0.0
H823 H 0.77977 0.79937 0.1964 0.0
C824 C 0.2288 0.75528 0.36217 0.0
C825 C 0.19918 0.76365 0.36654 0.0
C826 C 0.23938 0.74154 0.31715 0.0
C827 C 0.21958 0.73499 0.27635 0.0
C828 C 0.18927 0.74198 0.28193 0.0
C829 C 0.17956 0.75693 0.32646 0.0
C830 C 0.27203 0.73553 0.31218 0.0
C831 C 0.16723 0.73434 0.24036 0.0
C832 C 0.2529 0.73023 0.14161 0.0
C833 C 0.25939 0.70008 0.13782 0.0
C834 C 0.23934 0.74181 0.18604 0.0
C835 C 0.23109 0.72256 0.22682 0.0
C836 C 0.23598 0.69179 0.22158 0.0
C837 C 0.25078 0.68101 0.17768 0.0
C838 C 0.2356 0.77484 0.19069 0.0
C839 C 0.22652 0.67038 0.26309 0.0
H840 H 0.24408 0.76108 0.39275 0.0
H841 H 0.15667 0.76362 0.32979 0.0
H842 H 0.27594 0.71177 0.30448 0.0
H843 H 0.28109 0.74806 0.27889 0.0
H844 H 0.28444 0.74187 0.34746 0.0
H845 H 0.14413 0.73774 0.25342 0.0
H846 H 0.17114 0.74831 0.20584 0.0
H847 H 0.16996 0.71098 0.22829 0.0
H848 H 0.2602 0.74505 0.11126 0.0
H849 H 0.25608 0.65771 0.17485 0.0
H850 H 0.24903 0.78313 0.22346 0.0
H851 H 0.21228 0.78043 0.19908 0.0
H852 H 0.24246 0.78667 0.15505 0.0
H853 H 0.24083 0.67299 0.29751 0.0
H854 H 0.22794 0.64708 0.2499 0.0
H855 H 0.20352 0.67504 0.27535 0.0
C856 C 0.24558 0.80123 0.67939 0.0
C857 C 0.24916 0.83146 0.66894 0.0
C858 C 0.26079 0.78749 0.72004 0.0
C859 C 0.28086 0.80408 0.75028 0.0
C860 C 0.28582 0.83421 0.73819 0.0
C861 C 0.26958 0.84766 0.69818 0.0
C862 C 0.25432 0.75548 0.73209 0.0
C863 C 0.3077 0.85242 0.76837 0.0
C864 C 0.29362 0.77474 0.88638 0.0
C865 C 0.31831 0.75655 0.87921 0.0
C866 C 0.28178 0.79115 0.84514 0.0
C867 C 0.29544 0.78999 0.79587 0.0
C868 C 0.3215 0.77313 0.78939 0.0
C869 C 0.33233 0.75625 0.83087 0.0
C870 C 0.25359 0.80825 0.85354 0.0
C871 C 0.33725 0.7719 0.73805 0.0
H872 H 0.22968 0.78852 0.65745 0.0
H873 H 0.27253 0.87099 0.69032 0.0
H874 H 0.27494 0.74234 0.73099 0.0
H875 H 0.24516 0.75359 0.77172 0.0
H876 H 0.23832 0.74561 0.70457 0.0
H877 H 0.31129 0.87452 0.75081 0.0
H878 H 0.29964 0.85549 0.80847 0.0
H879 H 0.32919 0.84075 0.77071 0.0
H880 H 0.28247 0.7748 0.92344 0.0
H881 H 0.35147 0.74226 0.82514 0.0
H882 H 0.23567 0.79837 0.83003 0.0
H883 H 0.2563 0.83144 0.84058 0.0
H884 H 0.24661 0.80827 0.89468 0.0
H885 H 0.32381 0.75919 0.71001 0.0
H886 H 0.35924 0.76122 0.7412 0.0
H887 H 0.34013 0.79447 0.7221 0.0
C888 C 0.27005 0.30043 0.84938 0.0
C889 C 0.26645 0.33042 0.86158 0.0
C890 C 0.25374 0.28718 0.80964 0.0
C891 C 0.23255 0.30401 0.78227 0.0
C892 C 0.22761 0.33386 0.79629 0.0
C893 C 0.24497 0.34686 0.83523 0.0
C894 C 0.26024 0.25548 0.79536 0.0
C895 C 0.20455 0.35225 0.76925 0.0
C896 C 0.21671 0.27646 0.64636 0.0
C897 C 0.19281 0.25745 0.65493 0.0
C898 C 0.22917 0.2927 0.68714 0.0
C899 C 0.21688 0.29053 0.73739 0.0
C900 C 0.19145 0.27294 0.74536 0.0
C901 C 0.18002 0.25623 0.70425 0.0
C902 C 0.2567 0.31059 0.67713 0.0
C903 C 0.17712 0.27067 0.79786 0.0
H904 H 0.28676 0.28757 0.86911 0.0
H905 H 0.24202 0.37001 0.84455 0.0
H906 H 0.23986 0.24202 0.79785 0.0
H907 H 0.26811 0.25438 0.7548 0.0
H908 H 0.27723 0.24538 0.82073 0.0
H909 H 0.20112 0.37392 0.78843 0.0
H910 H 0.21135 0.35627 0.72869 0.0
H911 H 0.18322 0.34025 0.76814 0.0
H912 H 0.22689 0.27723 0.60847 0.0
H913 H 0.16147 0.24161 0.71099 0.0
H914 H 0.27552 0.30066 0.69836 0.0
H915 H 0.25393 0.33345 0.69161 0.0
H916 H 0.26242 0.31152 0.63542 0.0
H917 H 0.1914 0.25759 0.82406 0.0
H918 H 0.15517 0.25983 0.79595 0.0
H919 H 0.17447 0.29292 0.81523 0.0
C920 C 0.66603 0.25039 0.82197 0.0
C921 C 0.68275 0.27122 0.84935 0.0
C922 C 0.67884 0.23324 0.78249 0.0
C923 C 0.70883 0.23768 0.76906 0.0
C924 C 0.72589 0.25834 0.79721 0.0
C925 C 0.71278 0.27449 0.83737 0.0
C926 C 0.66017 0.21079 0.75449 0.0
C927 C 0.75776 0.26428 0.78364 0.0
C928 C 0.75585 0.18381 0.69217 0.0
C929 C 0.75554 0.19666 0.64284 0.0
C930 C 0.73913 0.19575 0.73286 0.0
C931 C 0.72239 0.22172 0.72446 0.0
C932 C 0.7211 0.23411 0.67419 0.0
C933 C 0.73739 0.22119 0.63383 0.0
C934 C 0.74051 0.18136 0.78541 0.0
C935 C 0.7041 0.26216 0.66373 0.0
H936 H 0.64284 0.2477 0.83107 0.0
H937 H 0.72586 0.29073 0.85787 0.0
H938 H 0.65711 0.21769 0.71373 0.0
H939 H 0.67146 0.18904 0.75402 0.0
H940 H 0.6381 0.20808 0.77255 0.0
H941 H 0.76797 0.28107 0.80931 0.0
H942 H 0.7708 0.24362 0.78636 0.0
H943 H 0.75935 0.27218 0.74314 0.0
H944 H 0.76979 0.16478 0.6993 0.0
H945 H 0.73731 0.23142 0.59595 0.0
H946 H 0.71805 0.17913 0.80201 0.0
H947 H 0.75353 0.19541 0.81206 0.0
H948 H 0.75094 0.15917 0.78385 0.0
H949 H 0.68109 0.26006 0.67778 0.0
H950 H 0.70364 0.26784 0.62198 0.0
H951 H 0.71441 0.28073 0.68509 0.0
C952 C 0.7674 0.68249 0.85479 0.0
C953 C 0.7553 0.70226 0.89057 0.0
C954 C 0.78253 0.69284 0.81086 0.0
C955 C 0.78418 0.72363 0.80129 0.0
C956 C 0.77218 0.74362 0.83785 0.0
C957 C 0.75836 0.73266 0.88252 0.0
C958 C 0.79599 0.67083 0.77399 0.0
C959 C 0.77243 0.77654 0.82844 0.0
C960 C 0.83628 0.75973 0.70461 0.0
C961 C 0.81798 0.76301 0.66135 0.0
C962 C 0.82619 0.74527 0.74937 0.0
C963 C 0.79667 0.73506 0.75173 0.0
C964 C 0.77833 0.73783 0.70764 0.0
C965 C 0.7894 0.75129 0.66267 0.0
C966 C 0.84683 0.74178 0.79468 0.0
C967 C 0.74643 0.72823 0.70893 0.0
H968 H 0.76469 0.65895 0.86089 0.0
H969 H 0.74836 0.74789 0.9097 0.0
H970 H 0.78322 0.67047 0.73748 0.0
H971 H 0.81892 0.67736 0.7642 0.0
H972 H 0.79626 0.64813 0.79031 0.0
H973 H 0.76235 0.78908 0.86083 0.0
H974 H 0.79535 0.78445 0.82285 0.0
H975 H 0.76008 0.78164 0.79252 0.0
H976 H 0.85837 0.7689 0.70366 0.0
H977 H 0.77504 0.75431 0.6296 0.0
H978 H 0.84591 0.71884 0.80974 0.0
H979 H 0.83991 0.75669 0.82642 0.0
H980 H 0.87001 0.74708 0.78425 0.0
H981 H 0.74476 0.70467 0.72023 0.0
H982 H 0.73532 0.73122 0.67105 0.0
H983 H 0.73432 0.74126 0.73843 0.0
loop_
_geom_bond_atom_site_label_1
_geom_bond_atom_site_label_2
_geom_bond_distance
_geom_bond_site_symmetry_2
_ccdc_geom_bond_type
Co0 O2 2.143 1_556 S
Co0 O8 2.074 . S
Co0 O11 2.093 . S
Co0 O24 2.097 . S
Co0 N41 2.151 . S
Co0 N49 2.214 . S
Co1 O2 2.160 . S
Co1 O7 2.058 . S
Co1 O17 2.057 . S
Co1 O32 2.037 . S
Co1 N36 2.145 . S
Co1 N57 2.257 . S
O2 Co0 2.143 1_554 S
O2 Co1 2.160 . S
C3 O4 1.278 . S
C3 O11 1.224 . S
O4 C3 1.278 . S
C5 O6 1.245 . S
C5 O17 1.232 . S
O6 C5 1.245 . S
O7 Co1 2.058 . S
O7 C33 1.269 . S
O8 Co0 2.074 . S
O8 C33 1.257 1_556 S
H9 C34 0.930 . S
H10 C40 0.930 . S
O11 Co0 2.093 . S
O11 C3 1.224 . S
H12 C44 0.929 . S
H13 C46 0.930 . S
H14 C47 0.930 . S
H15 C45 0.929 . S
H16 C48 0.928 . S
O17 Co1 2.057 . S
O17 C5 1.232 . S
H18 C37 0.929 . S
H19 C38 0.929 . S
H20 C50 0.931 . S
H21 C42 0.929 . S
H22 C51 0.930 . S
H23 C43 0.931 . S
O24 Co0 2.097 . S
O24 C52 1.214 . S
H25 C53 0.929 . S
H26 C54 0.929 . S
H27 C55 0.930 . S
H28 C56 0.929 . S
H29 C58 0.930 . S
H30 C35 0.930 . S
H31 C39 0.930 . S
O32 Co1 2.037 . S
O32 C52 1.234 1_554 S
C33 O7 1.269 . S
C33 O8 1.257 1_554 S
C34 H9 0.930 . S
C34 C37 1.388 . S
C34 C39 1.418 . S
C35 H30 0.930 . S
C35 C38 1.404 . S
C35 C39 1.353 . S
N36 Co1 2.145 . S
N36 C37 1.397 . S
N36 C38 1.334 . S
C37 H18 0.929 . S
C37 C34 1.388 . S
C37 N36 1.397 . S
C38 H19 0.929 . S
C38 C35 1.404 . S
C38 N36 1.334 . S
C39 H31 0.930 . S
C39 C34 1.418 . S
C39 C35 1.353 . S
C40 H10 0.930 . S
C40 N41 1.330 . S
C40 C42 1.446 . S
N41 Co0 2.151 . S
N41 C40 1.330 . S
N41 C45 1.418 . S
C42 H21 0.929 . S
C42 C40 1.446 . S
C42 C43 1.332 . S
C43 H23 0.931 . S
C43 C42 1.332 . S
C43 C44 1.267 . S
C44 H12 0.929 . S
C44 C43 1.267 . S
C44 C45 1.251 . S
C45 H15 0.929 . S
C45 N41 1.418 . S
C45 C44 1.251 . S
C46 H13 0.930 . S
C46 C48 1.406 . S
C46 C51 1.261 . S
C47 H14 0.930 . S
C47 N49 1.325 . S
C47 C50 1.357 . S
C48 H16 0.928 . S
C48 C46 1.406 . S
C48 N49 1.261 . S
N49 Co0 2.214 . S
N49 C47 1.325 . S
N49 C48 1.261 . S
C50 H20 0.931 . S
C50 C47 1.357 . S
C50 C51 1.312 . S
C51 H22 0.930 . S
C51 C46 1.261 . S
C51 C50 1.312 . S
C52 O24 1.214 . S
C52 O32 1.234 1_556 S
C53 H25 0.929 . S
C53 C56 1.391 . S
C53 C58 1.391 . S
C54 H26 0.929 . S
C54 C55 1.390 . S
C54 N57 1.391 . S
C55 H27 0.930 . S
C55 C54 1.390 . S
C55 C56 1.392 . S
C56 H28 0.929 . S
C56 C53 1.391 . S
C56 C55 1.392 . S
N57 Co1 2.257 . S
N57 C54 1.391 . S
N57 C58 1.388 . S
C58 H29 0.930 . S
C58 C53 1.391 . S
C58 N57 1.388 . S
Co59 O61 2.143 . S
Co59 O67 2.074 . S
Co59 O70 2.093 . S
Co59 O83 2.097 . S
Co59 N100 2.151 . S
Co59 N108 2.214 . S
Co60 O61 2.160 1_556 S
Co60 O66 2.058 . S
Co60 O76 2.057 . S
Co60 O91 2.037 . S
Co60 N95 2.145 . S
Co60 N116 2.257 . S
O61 Co59 2.143 . S
O61 Co60 2.160 1_554 S
C62 O63 1.278 . S
C62 O70 1.224 . S
O63 C62 1.278 . S
C64 O65 1.245 . S
C64 O76 1.232 . S
O65 C64 1.245 . S
O66 Co60 2.058 . S
O66 C92 1.269 . S
O67 Co59 2.074 . S
O67 C92 1.257 1_554 S
H68 C93 0.930 . S
H69 C99 0.930 . S
O70 Co59 2.093 . S
O70 C62 1.224 . S
H71 C103 0.929 . S
H72 C105 0.930 . S
H73 C106 0.930 . S
H74 C104 0.929 . S
H75 C107 0.928 . S
O76 Co60 2.057 . S
O76 C64 1.232 . S
H77 C96 0.929 . S
H78 C97 0.929 . S
H79 C109 0.931 . S
H80 C101 0.929 . S
H81 C110 0.930 . S
H82 C102 0.931 . S
O83 Co59 2.097 . S
O83 C111 1.214 . S
H84 C112 0.929 . S
H85 C113 0.929 . S
H86 C114 0.930 . S
H87 C115 0.929 . S
H88 C117 0.930 . S
H89 C94 0.930 . S
H90 C98 0.930 . S
O91 Co60 2.037 . S
O91 C111 1.234 1_556 S
C92 O66 1.269 . S
C92 O67 1.257 1_556 S
C93 H68 0.930 . S
C93 C96 1.388 . S
C93 C98 1.418 . S
C94 H89 0.930 . S
C94 C97 1.404 . S
C94 C98 1.353 . S
N95 Co60 2.145 . S
N95 C96 1.397 . S
N95 C97 1.334 . S
C96 H77 0.929 . S
C96 C93 1.388 . S
C96 N95 1.397 . S
C97 H78 0.929 . S
C97 C94 1.404 . S
C97 N95 1.334 . S
C98 H90 0.930 . S
C98 C93 1.418 . S
C98 C94 1.353 . S
C99 H69 0.930 . S
C99 N100 1.330 . S
C99 C101 1.446 . S
N100 Co59 2.151 . S
N100 C99 1.330 . S
N100 C104 1.418 . S
C101 H80 0.929 . S
C101 C99 1.446 . S
C101 C102 1.332 . S
C102 H82 0.931 . S
C102 C101 1.332 . S
C102 C103 1.267 . S
C103 H71 0.929 . S
C103 C102 1.267 . S
C103 C104 1.251 . S
C104 H74 0.929 . S
C104 N100 1.418 . S
C104 C103 1.251 . S
C105 H72 0.930 . S
C105 C107 1.406 . S
C105 C110 1.261 . S
C106 H73 0.930 . S
C106 N108 1.325 . S
C106 C109 1.357 . S
C107 H75 0.928 . S
C107 C105 1.406 . S
C107 N108 1.261 . S
N108 Co59 2.214 . S
N108 C106 1.325 . S
N108 C107 1.261 . S
C109 H79 0.931 . S
C109 C106 1.357 . S
C109 C110 1.312 . S
C110 H81 0.930 . S
C110 C105 1.261 . S
C110 C109 1.312 . S
C111 O83 1.214 . S
C111 O91 1.234 1_554 S
C112 H84 0.929 . S
C112 C115 1.391 . S
C112 C117 1.391 . S
C113 H85 0.929 . S
C113 C114 1.390 . S
C113 N116 1.391 . S
C114 H86 0.930 . S
C114 C113 1.390 . S
C114 C115 1.392 . S
C115 H87 0.929 . S
C115 C112 1.391 . S
C115 C114 1.392 . S
N116 Co60 2.257 . S
N116 C113 1.391 . S
N116 C117 1.388 . S
C117 H88 0.930 . S
C117 C112 1.391 . S
C117 N116 1.388 . S
Co118 O120 2.143 . S
Co118 O126 2.074 . S
Co118 O129 2.093 . S
Co118 O142 2.097 . S
Co118 N159 2.151 . S
Co118 N167 2.214 . S
Co119 O120 2.160 1_556 S
Co119 O125 2.058 . S
Co119 O135 2.057 . S
Co119 O150 2.037 . S
Co119 N154 2.145 . S
Co119 N175 2.257 . S
O120 Co118 2.143 . S
O120 Co119 2.160 1_554 S
C121 O122 1.278 . S
C121 O129 1.224 . S
O122 C121 1.278 . S
C123 O124 1.245 . S
C123 O135 1.232 . S
O124 C123 1.245 . S
O125 Co119 2.058 . S
O125 C151 1.269 . S
O126 Co118 2.074 . S
O126 C151 1.257 1_554 S
H127 C152 0.930 . S
H128 C158 0.930 . S
O129 Co118 2.093 . S
O129 C121 1.224 . S
H130 C162 0.929 . S
H131 C164 0.930 . S
H132 C165 0.930 . S
H133 C163 0.929 . S
H134 C166 0.928 . S
O135 Co119 2.057 . S
O135 C123 1.232 . S
H136 C155 0.929 . S
H137 C156 0.929 . S
H138 C168 0.931 . S
H139 C160 0.929 . S
H140 C169 0.930 . S
H141 C161 0.931 . S
O142 Co118 2.097 . S
O142 C170 1.214 . S
H143 C171 0.929 . S
H144 C172 0.929 . S
H145 C173 0.930 . S
H146 C174 0.929 . S
H147 C176 0.930 . S
H148 C153 0.930 . S
H149 C157 0.930 . S
O150 Co119 2.037 . S
O150 C170 1.234 1_556 S
C151 O125 1.269 . S
C151 O126 1.257 1_556 S
C152 H127 0.930 . S
C152 C155 1.388 . S
C152 C157 1.418 . S
C153 H148 0.930 . S
C153 C156 1.404 . S
C153 C157 1.353 . S
N154 Co119 2.145 . S
N154 C155 1.397 . S
N154 C156 1.334 . S
C155 H136 0.929 . S
C155 C152 1.388 . S
C155 N154 1.397 . S
C156 H137 0.929 . S
C156 C153 1.404 . S
C156 N154 1.334 . S
C157 H149 0.930 . S
C157 C152 1.418 . S
C157 C153 1.353 . S
C158 H128 0.930 . S
C158 N159 1.330 . S
C158 C160 1.446 . S
N159 Co118 2.151 . S
N159 C158 1.330 . S
N159 C163 1.418 . S
C160 H139 0.929 . S
C160 C158 1.446 . S
C160 C161 1.332 . S
C161 H141 0.931 . S
C161 C160 1.332 . S
C161 C162 1.267 . S
C162 H130 0.929 . S
C162 C161 1.267 . S
C162 C163 1.251 . S
C163 H133 0.929 . S
C163 N159 1.418 . S
C163 C162 1.251 . S
C164 H131 0.930 . S
C164 C166 1.406 . S
C164 C169 1.261 . S
C165 H132 0.930 . S
C165 N167 1.325 . S
C165 C168 1.357 . S
C166 H134 0.928 . S
C166 C164 1.406 . S
C166 N167 1.261 . S
N167 Co118 2.214 . S
N167 C165 1.325 . S
N167 C166 1.261 . S
C168 H138 0.931 . S
C168 C165 1.357 . S
C168 C169 1.312 . S
C169 H140 0.930 . S
C169 C164 1.261 . S
C169 C168 1.312 . S
C170 O142 1.214 . S
C170 O150 1.234 1_554 S
C171 H143 0.929 . S
C171 C174 1.391 . S
C171 C176 1.391 . S
C172 H144 0.929 . S
C172 C173 1.390 . S
C172 N175 1.391 . S
C173 H145 0.930 . S
C173 C172 1.390 . S
C173 C174 1.392 . S
C174 H146 0.929 . S
C174 C171 1.391 . S
C174 C173 1.392 . S
N175 Co119 2.257 . S
N175 C172 1.391 . S
N175 C176 1.388 . S
C176 H147 0.930 . S
C176 C171 1.391 . S
C176 N175 1.388 . S
Co177 O179 2.143 1_556 S
Co177 O185 2.074 . S
Co177 O188 2.093 . S
Co177 O201 2.097 . S
Co177 N218 2.151 . S
Co177 N226 2.214 . S
Co178 O179 2.160 . S
Co178 O184 2.058 . S
Co178 O194 2.057 . S
Co178 O209 2.037 . S
Co178 N213 2.145 . S
Co178 N234 2.257 . S
O179 Co177 2.143 1_554 S
O179 Co178 2.160 . S
C180 O181 1.278 . S
C180 O188 1.224 . S
O181 C180 1.278 . S
C182 O183 1.245 . S
C182 O194 1.232 . S
O183 C182 1.245 . S
O184 Co178 2.058 . S
O184 C210 1.269 . S
O185 Co177 2.074 . S
O185 C210 1.257 1_556 S
H186 C211 0.930 . S
H187 C217 0.930 . S
O188 Co177 2.093 . S
O188 C180 1.224 . S
H189 C221 0.929 . S
H190 C223 0.930 . S
H191 C224 0.930 . S
H192 C222 0.929 . S
H193 C225 0.928 . S
O194 Co178 2.057 . S
O194 C182 1.232 . S
H195 C214 0.929 . S
H196 C215 0.929 . S
H197 C227 0.931 . S
H198 C219 0.929 . S
H199 C228 0.930 . S
H200 C220 0.931 . S
O201 Co177 2.097 . S
O201 C229 1.214 . S
H202 C230 0.929 . S
H203 C231 0.929 . S
H204 C232 0.930 . S
H205 C233 0.929 . S
H206 C235 0.930 . S
H207 C212 0.930 . S
H208 C216 0.930 . S
O209 Co178 2.037 . S
O209 C229 1.234 1_554 S
C210 O184 1.269 . S
C210 O185 1.257 1_554 S
C211 H186 0.930 . S
C211 C214 1.388 . S
C211 C216 1.418 . S
C212 H207 0.930 . S
C212 C215 1.404 . S
C212 C216 1.353 . S
N213 Co178 2.145 . S
N213 C214 1.397 . S
N213 C215 1.334 . S
C214 H195 0.929 . S
C214 C211 1.388 . S
C214 N213 1.397 . S
C215 H196 0.929 . S
C215 C212 1.404 . S
C215 N213 1.334 . S
C216 H208 0.930 . S
C216 C211 1.418 . S
C216 C212 1.353 . S
C217 H187 0.930 . S
C217 N218 1.330 . S
C217 C219 1.446 . S
N218 Co177 2.151 . S
N218 C217 1.330 . S
N218 C222 1.418 . S
C219 H198 0.929 . S
C219 C217 1.446 . S
C219 C220 1.332 . S
C220 H200 0.931 . S
C220 C219 1.332 . S
C220 C221 1.267 . S
C221 H189 0.929 . S
C221 C220 1.267 . S
C221 C222 1.251 . S
C222 H192 0.929 . S
C222 N218 1.418 . S
C222 C221 1.251 . S
C223 H190 0.930 . S
C223 C225 1.406 . S
C223 C228 1.261 . S
C224 H191 0.930 . S
C224 N226 1.325 . S
C224 C227 1.357 . S
C225 H193 0.928 . S
C225 C223 1.406 . S
C225 N226 1.261 . S
N226 Co177 2.214 . S
N226 C224 1.325 . S
N226 C225 1.261 . S
C227 H197 0.931 . S
C227 C224 1.357 . S
C227 C228 1.312 . S
C228 H199 0.930 . S
C228 C223 1.261 . S
C228 C227 1.312 . S
C229 O201 1.214 . S
C229 O209 1.234 1_556 S
C230 H202 0.929 . S
C230 C233 1.391 . S
C230 C235 1.391 . S
C231 H203 0.929 . S
C231 C232 1.390 . S
C231 N234 1.391 . S
C232 H204 0.930 . S
C232 C231 1.390 . S
C232 C233 1.392 . S
C233 H205 0.929 . S
C233 C230 1.391 . S
C233 C232 1.392 . S
N234 Co178 2.257 . S
N234 C231 1.391 . S
N234 C235 1.388 . S
C235 H206 0.930 . S
C235 C230 1.391 . S
C235 N234 1.388 . S
Co236 O238 2.143 . S
Co236 O244 2.074 . S
Co236 O247 2.093 . S
Co236 O260 2.097 . S
Co236 N277 2.151 . S
Co236 N285 2.214 . S
Co237 O238 2.160 . S
Co237 O243 2.058 . S
Co237 O253 2.057 . S
Co237 O268 2.037 . S
Co237 N272 2.145 . S
Co237 N293 2.257 . S
O238 Co236 2.143 . S
O238 Co237 2.160 . S
C239 O240 1.278 . S
C239 O247 1.224 . S
O240 C239 1.278 . S
C241 O242 1.245 . S
C241 O253 1.232 . S
O242 C241 1.245 . S
O243 Co237 2.058 . S
O243 C269 1.269 . S
O244 Co236 2.074 . S
O244 C269 1.257 . S
H245 C270 0.930 . S
H246 C276 0.930 . S
O247 Co236 2.093 . S
O247 C239 1.224 . S
H248 C280 0.929 . S
H249 C282 0.930 . S
H250 C283 0.930 . S
H251 C281 0.929 . S
H252 C284 0.928 . S
O253 Co237 2.057 . S
O253 C241 1.232 . S
H254 C273 0.929 . S
H255 C274 0.929 . S
H256 C286 0.931 . S
H257 C278 0.929 . S
H258 C287 0.930 . S
H259 C279 0.931 . S
O260 Co236 2.097 . S
O260 C288 1.214 . S
H261 C289 0.929 . S
H262 C290 0.929 . S
H263 C291 0.930 . S
H264 C292 0.929 . S
H265 C294 0.930 . S
H266 C271 0.930 . S
H267 C275 0.930 . S
O268 Co237 2.037 . S
O268 C288 1.234 . S
C269 O243 1.269 . S
C269 O244 1.257 . S
C270 H245 0.930 . S
C270 C273 1.388 . S
C270 C275 1.418 . S
C271 H266 0.930 . S
C271 C274 1.404 . S
C271 C275 1.353 . S
N272 Co237 2.145 . S
N272 C273 1.397 . S
N272 C274 1.334 . S
C273 H254 0.929 . S
C273 C270 1.388 . S
C273 N272 1.397 . S
C274 H255 0.929 . S
C274 C271 1.404 . S
C274 N272 1.334 . S
C275 H267 0.930 . S
C275 C270 1.418 . S
C275 C271 1.353 . S
C276 H246 0.930 . S
C276 N277 1.330 . S
C276 C278 1.446 . S
N277 Co236 2.151 . S
N277 C276 1.330 . S
N277 C281 1.418 . S
C278 H257 0.929 . S
C278 C276 1.446 . S
C278 C279 1.332 . S
C279 H259 0.931 . S
C279 C278 1.332 . S
C279 C280 1.267 . S
C280 H248 0.929 . S
C280 C279 1.267 . S
C280 C281 1.251 . S
C281 H251 0.929 . S
C281 N277 1.418 . S
C281 C280 1.251 . S
C282 H249 0.930 . S
C282 C284 1.406 . S
C282 C287 1.261 . S
C283 H250 0.930 . S
C283 N285 1.325 . S
C283 C286 1.357 . S
C284 H252 0.928 . S
C284 C282 1.406 . S
C284 N285 1.261 . S
N285 Co236 2.214 . S
N285 C283 1.325 . S
N285 C284 1.261 . S
C286 H256 0.931 . S
C286 C283 1.357 . S
C286 C287 1.312 . S
C287 H258 0.930 . S
C287 C282 1.261 . S
C287 C286 1.312 . S
C288 O260 1.214 . S
C288 O268 1.234 . S
C289 H261 0.929 . S
C289 C292 1.391 . S
C289 C294 1.391 . S
C290 H262 0.929 . S
C290 C291 1.390 . S
C290 N293 1.391 . S
C291 H263 0.930 . S
C291 C290 1.390 . S
C291 C292 1.392 . S
C292 H264 0.929 . S
C292 C289 1.391 . S
C292 C291 1.392 . S
N293 Co237 2.257 . S
N293 C290 1.391 . S
N293 C294 1.388 . S
C294 H265 0.930 . S
C294 C289 1.391 . S
C294 N293 1.388 . S
Co295 O297 2.143 . S
Co295 O303 2.074 . S
Co295 O306 2.093 . S
Co295 O319 2.097 . S
Co295 N336 2.151 . S
Co295 N344 2.214 . S
Co296 O297 2.160 . S
Co296 O302 2.058 . S
Co296 O312 2.057 . S
Co296 O327 2.037 . S
Co296 N331 2.145 . S
Co296 N352 2.257 . S
O297 Co295 2.143 . S
O297 Co296 2.160 . S
C298 O299 1.278 . S
C298 O306 1.224 . S
O299 C298 1.278 . S
C300 O301 1.245 . S
C300 O312 1.232 . S
O301 C300 1.245 . S
O302 Co296 2.058 . S
O302 C328 1.269 . S
O303 Co295 2.074 . S
O303 C328 1.257 . S
H304 C329 0.930 . S
H305 C335 0.930 . S
O306 Co295 2.093 . S
O306 C298 1.224 . S
H307 C339 0.929 . S
H308 C341 0.930 . S
H309 C342 0.930 . S
H310 C340 0.929 . S
H311 C343 0.928 . S
O312 Co296 2.057 . S
O312 C300 1.232 . S
H313 C332 0.929 . S
H314 C333 0.929 . S
H315 C345 0.931 . S
H316 C337 0.929 . S
H317 C346 0.930 . S
H318 C338 0.931 . S
O319 Co295 2.097 . S
O319 C347 1.214 . S
H320 C348 0.929 . S
H321 C349 0.929 . S
H322 C350 0.930 . S
H323 C351 0.929 . S
H324 C353 0.930 . S
H325 C330 0.930 . S
H326 C334 0.930 . S
O327 Co296 2.037 . S
O327 C347 1.234 . S
C328 O302 1.269 . S
C328 O303 1.257 . S
C329 H304 0.930 . S
C329 C332 1.388 . S
C329 C334 1.418 . S
C330 H325 0.930 . S
C330 C333 1.404 . S
C330 C334 1.353 . S
N331 Co296 2.145 . S
N331 C332 1.397 . S
N331 C333 1.334 . S
C332 H313 0.929 . S
C332 C329 1.388 . S
C332 N331 1.397 . S
C333 H314 0.929 . S
C333 C330 1.404 . S
C333 N331 1.334 . S
C334 H326 0.930 . S
C334 C329 1.418 . S
C334 C330 1.353 . S
C335 H305 0.930 . S
C335 N336 1.330 . S
C335 C337 1.446 . S
N336 Co295 2.151 . S
N336 C335 1.330 . S
N336 C340 1.418 . S
C337 H316 0.929 . S
C337 C335 1.446 . S
C337 C338 1.332 . S
C338 H318 0.931 . S
C338 C337 1.332 . S
C338 C339 1.267 . S
C339 H307 0.929 . S
C339 C338 1.267 . S
C339 C340 1.251 . S
C340 H310 0.929 . S
C340 N336 1.418 . S
C340 C339 1.251 . S
C341 H308 0.930 . S
C341 C343 1.406 . S
C341 C346 1.261 . S
C342 H309 0.930 . S
C342 N344 1.325 . S
C342 C345 1.357 . S
C343 H311 0.928 . S
C343 C341 1.406 . S
C343 N344 1.261 . S
N344 Co295 2.214 . S
N344 C342 1.325 . S
N344 C343 1.261 . S
C345 H315 0.931 . S
C345 C342 1.357 . S
C345 C346 1.312 . S
C346 H317 0.930 . S
C346 C341 1.261 . S
C346 C345 1.312 . S
C347 O319 1.214 . S
C347 O327 1.234 . S
C348 H320 0.929 . S
C348 C351 1.391 . S
C348 C353 1.391 . S
C349 H321 0.929 . S
C349 C350 1.390 . S
C349 N352 1.391 . S
C350 H322 0.930 . S
C350 C349 1.390 . S
C350 C351 1.392 . S
C351 H323 0.929 . S
C351 C348 1.391 . S
C351 C350 1.392 . S
N352 Co296 2.257 . S
N352 C349 1.391 . S
N352 C353 1.388 . S
C353 H324 0.930 . S
C353 C348 1.391 . S
C353 N352 1.388 . S
Co354 O356 2.143 . S
Co354 O362 2.074 . S
Co354 O365 2.093 . S
Co354 O378 2.097 . S
Co354 N395 2.151 . S
Co354 N403 2.214 . S
Co355 O356 2.160 . S
Co355 O361 2.058 . S
Co355 O371 2.057 . S
Co355 O386 2.037 . S
Co355 N390 2.145 . S
Co355 N411 2.257 . S
O356 Co354 2.143 . S
O356 Co355 2.160 . S
C357 O358 1.278 . S
C357 O365 1.224 . S
O358 C357 1.278 . S
C359 O360 1.245 . S
C359 O371 1.232 . S
O360 C359 1.245 . S
O361 Co355 2.058 . S
O361 C387 1.269 . S
O362 Co354 2.074 . S
O362 C387 1.257 . S
H363 C388 0.930 . S
H364 C394 0.930 . S
O365 Co354 2.093 . S
O365 C357 1.224 . S
H366 C398 0.929 . S
H367 C400 0.930 . S
H368 C401 0.930 . S
H369 C399 0.929 . S
H370 C402 0.928 . S
O371 Co355 2.057 . S
O371 C359 1.232 . S
H372 C391 0.929 . S
H373 C392 0.929 . S
H374 C404 0.931 . S
H375 C396 0.929 . S
H376 C405 0.930 . S
H377 C397 0.931 . S
O378 Co354 2.097 . S
O378 C406 1.214 . S
H379 C407 0.929 . S
H380 C408 0.929 . S
H381 C409 0.930 . S
H382 C410 0.929 . S
H383 C412 0.930 . S
H384 C389 0.930 . S
H385 C393 0.930 . S
O386 Co355 2.037 . S
O386 C406 1.234 . S
C387 O361 1.269 . S
C387 O362 1.257 . S
C388 H363 0.930 . S
C388 C391 1.388 . S
C388 C393 1.418 . S
C389 H384 0.930 . S
C389 C392 1.404 . S
C389 C393 1.353 . S
N390 Co355 2.145 . S
N390 C391 1.397 . S
N390 C392 1.334 . S
C391 H372 0.929 . S
C391 C388 1.388 . S
C391 N390 1.397 . S
C392 H373 0.929 . S
C392 C389 1.404 . S
C392 N390 1.334 . S
C393 H385 0.930 . S
C393 C388 1.418 . S
C393 C389 1.353 . S
C394 H364 0.930 . S
C394 N395 1.330 . S
C394 C396 1.446 . S
N395 Co354 2.151 . S
N395 C394 1.330 . S
N395 C399 1.418 . S
C396 H375 0.929 . S
C396 C394 1.446 . S
C396 C397 1.332 . S
C397 H377 0.931 . S
C397 C396 1.332 . S
C397 C398 1.267 . S
C398 H366 0.929 . S
C398 C397 1.267 . S
C398 C399 1.251 . S
C399 H369 0.929 . S
C399 N395 1.418 . S
C399 C398 1.251 . S
C400 H367 0.930 . S
C400 C402 1.406 . S
C400 C405 1.261 . S
C401 H368 0.930 . S
C401 N403 1.325 . S
C401 C404 1.357 . S
C402 H370 0.928 . S
C402 C400 1.406 . S
C402 N403 1.261 . S
N403 Co354 2.214 . S
N403 C401 1.325 . S
N403 C402 1.261 . S
C404 H374 0.931 . S
C404 C401 1.357 . S
C404 C405 1.312 . S
C405 H376 0.930 . S
C405 C400 1.261 . S
C405 C404 1.312 . S
C406 O378 1.214 . S
C406 O386 1.234 . S
C407 H379 0.929 . S
C407 C410 1.391 . S
C407 C412 1.391 . S
C408 H380 0.929 . S
C408 C409 1.390 . S
C408 N411 1.391 . S
C409 H381 0.930 . S
C409 C408 1.390 . S
C409 C410 1.392 . S
C410 H382 0.929 . S
C410 C407 1.391 . S
C410 C409 1.392 . S
N411 Co355 2.257 . S
N411 C408 1.391 . S
N411 C412 1.388 . S
C412 H383 0.930 . S
C412 C407 1.391 . S
C412 N411 1.388 . S
Co413 O415 2.143 . S
Co413 O421 2.074 . S
Co413 O424 2.093 . S
Co413 O437 2.097 . S
Co413 N454 2.151 . S
Co413 N462 2.214 . S
Co414 O415 2.160 . S
Co414 O420 2.058 . S
Co414 O430 2.057 . S
Co414 O445 2.037 . S
Co414 N449 2.145 . S
Co414 N470 2.257 . S
O415 Co413 2.143 . S
O415 Co414 2.160 . S
C416 O417 1.278 . S
C416 O424 1.224 . S
O417 C416 1.278 . S
C418 O419 1.245 . S
C418 O430 1.232 . S
O419 C418 1.245 . S
O420 Co414 2.058 . S
O420 C446 1.269 . S
O421 Co413 2.074 . S
O421 C446 1.257 . S
H422 C447 0.930 . S
H423 C453 0.930 . S
O424 Co413 2.093 . S
O424 C416 1.224 . S
H425 C457 0.929 . S
H426 C459 0.930 . S
H427 C460 0.930 . S
H428 C458 0.929 . S
H429 C461 0.928 . S
O430 Co414 2.057 . S
O430 C418 1.232 . S
H431 C450 0.929 . S
H432 C451 0.929 . S
H433 C463 0.931 . S
H434 C455 0.929 . S
H435 C464 0.930 . S
H436 C456 0.931 . S
O437 Co413 2.097 . S
O437 C465 1.214 . S
H438 C466 0.929 . S
H439 C467 0.929 . S
H440 C468 0.930 . S
H441 C469 0.929 . S
H442 C471 0.930 . S
H443 C448 0.930 . S
H444 C452 0.930 . S
O445 Co414 2.037 . S
O445 C465 1.234 . S
C446 O420 1.269 . S
C446 O421 1.257 . S
C447 H422 0.930 . S
C447 C450 1.388 . S
C447 C452 1.418 . S
C448 H443 0.930 . S
C448 C451 1.404 . S
C448 C452 1.353 . S
N449 Co414 2.145 . S
N449 C450 1.397 . S
N449 C451 1.334 . S
C450 H431 0.929 . S
C450 C447 1.388 . S
C450 N449 1.397 . S
C451 H432 0.929 . S
C451 C448 1.404 . S
C451 N449 1.334 . S
C452 H444 0.930 . S
C452 C447 1.418 . S
C452 C448 1.353 . S
C453 H423 0.930 . S
C453 N454 1.330 . S
C453 C455 1.446 . S
N454 Co413 2.151 . S
N454 C453 1.330 . S
N454 C458 1.418 . S
C455 H434 0.929 . S
C455 C453 1.446 . S
C455 C456 1.332 . S
C456 H436 0.931 . S
C456 C455 1.332 . S
C456 C457 1.267 . S
C457 H425 0.929 . S
C457 C456 1.267 . S
C457 C458 1.251 . S
C458 H428 0.929 . S
C458 N454 1.418 . S
C458 C457 1.251 . S
C459 H426 0.930 . S
C459 C461 1.406 . S
C459 C464 1.261 . S
C460 H427 0.930 . S
C460 N462 1.325 . S
C460 C463 1.357 . S
C461 H429 0.928 . S
C461 C459 1.406 . S
C461 N462 1.261 . S
N462 Co413 2.214 . S
N462 C460 1.325 . S
N462 C461 1.261 . S
C463 H433 0.931 . S
C463 C460 1.357 . S
C463 C464 1.312 . S
C464 H435 0.930 . S
C464 C459 1.261 . S
C464 C463 1.312 . S
C465 O437 1.214 . S
C465 O445 1.234 . S
C466 H438 0.929 . S
C466 C469 1.391 . S
C466 C471 1.391 . S
C467 H439 0.929 . S
C467 C468 1.390 . S
C467 N470 1.391 . S
C468 H440 0.930 . S
C468 C467 1.390 . S
C468 C469 1.392 . S
C469 H441 0.929 . S
C469 C466 1.391 . S
C469 C468 1.392 . S
N470 Co414 2.257 . S
N470 C467 1.391 . S
N470 C471 1.388 . S
C471 H442 0.930 . S
C471 C466 1.391 . S
C471 N470 1.388 . S
C472 C473 1.391 . S
C472 C474 1.394 . S
C472 H488 0.931 . S
C473 C472 1.391 . S
C473 C477 1.376 1_556 S
C474 C472 1.394 . S
C474 C475 1.369 1_556 S
C474 C478 1.531 . S
C475 C474 1.369 1_554 S
C475 C476 1.410 . S
C475 C483 1.503 . S
C476 C475 1.410 . S
C476 C477 1.392 . S
C476 C479 1.511 . S
C477 C473 1.376 1_554 S
C477 C476 1.392 . S
C477 H489 0.929 . S
C478 C474 1.531 . S
C478 H490 0.960 . S
C478 H491 0.962 . S
C478 H492 0.960 . S
C479 C476 1.511 . S
C479 H493 0.961 . S
C479 H494 0.961 . S
C479 H495 0.961 . S
C480 C481 1.370 1_556 S
C480 C482 1.363 . S
C480 H496 0.931 . S
C481 C480 1.370 1_554 S
C481 C485 1.408 . S
C482 C480 1.363 . S
C482 C483 1.370 1_556 S
C482 C486 1.524 . S
C483 C475 1.503 . S
C483 C482 1.370 1_554 S
C483 C484 1.403 . S
C484 C483 1.403 . S
C484 C485 1.404 . S
C484 C487 1.539 . S
C485 C481 1.408 . S
C485 C484 1.404 . S
C485 H497 0.930 . S
C486 C482 1.524 . S
C486 H498 0.956 . S
C486 H499 0.961 . S
C486 H500 0.961 . S
C487 C484 1.539 . S
C487 H501 0.958 . S
C487 H502 0.961 . S
C487 H503 0.960 . S
H488 C472 0.931 . S
H489 C477 0.929 . S
H490 C478 0.960 . S
H491 C478 0.962 . S
H492 C478 0.960 . S
H493 C479 0.961 . S
H494 C479 0.961 . S
H495 C479 0.961 . S
H496 C480 0.931 . S
H497 C485 0.930 . S
H498 C486 0.956 . S
H499 C486 0.961 . S
H500 C486 0.961 . S
H501 C487 0.958 . S
H502 C487 0.961 . S
H503 C487 0.960 . S
C504 C505 1.391 1_556 S
C504 C506 1.394 . S
C504 H520 0.931 . S
C505 C504 1.391 1_554 S
C505 C509 1.376 . S
C506 C504 1.394 . S
C506 C507 1.369 1_556 S
C506 C510 1.531 . S
C507 C506 1.369 1_554 S
C507 C508 1.410 . S
C507 C515 1.503 1_554 S
C508 C507 1.410 . S
C508 C509 1.392 . S
C508 C511 1.511 . S
C509 C505 1.376 . S
C509 C508 1.392 . S
C509 H521 0.929 . S
C510 C506 1.531 . S
C510 H522 0.960 . S
C510 H523 0.962 . S
C510 H524 0.960 . S
C511 C508 1.511 . S
C511 H525 0.961 . S
C511 H526 0.961 . S
C511 H527 0.961 . S
C512 C513 1.370 1_554 S
C512 C514 1.363 . S
C512 H528 0.931 . S
C513 C512 1.370 1_556 S
C513 C517 1.408 . S
C514 C512 1.363 . S
C514 C515 1.370 1_554 S
C514 C518 1.524 . S
C515 C507 1.503 1_556 S
C515 C514 1.370 1_556 S
C515 C516 1.403 . S
C516 C515 1.403 . S
C516 C517 1.404 . S
C516 C519 1.539 . S
C517 C513 1.408 . S
C517 C516 1.404 . S
C517 H529 0.930 . S
C518 C514 1.524 . S
C518 H530 0.956 . S
C518 H531 0.961 . S
C518 H532 0.961 . S
C519 C516 1.539 . S
C519 H533 0.958 . S
C519 H534 0.961 . S
C519 H535 0.960 . S
H520 C504 0.931 . S
H521 C509 0.929 . S
H522 C510 0.960 . S
H523 C510 0.962 . S
H524 C510 0.960 . S
H525 C511 0.961 . S
H526 C511 0.961 . S
H527 C511 0.961 . S
H528 C512 0.931 . S
H529 C517 0.930 . S
H530 C518 0.956 . S
H531 C518 0.961 . S
H532 C518 0.961 . S
H533 C519 0.958 . S
H534 C519 0.961 . S
H535 C519 0.960 . S
C536 C537 1.391 1_556 S
C536 C538 1.394 . S
C536 H552 0.931 . S
C537 C536 1.391 1_554 S
C537 C541 1.376 . S
C538 C536 1.394 . S
C538 C539 1.365 1_556 S
C538 C542 1.531 . S
C539 C538 1.365 1_554 S
C539 C540 1.416 . S
C539 C547 1.502 1_554 S
C540 C539 1.416 . S
C540 C541 1.392 . S
C540 C543 1.511 . S
C541 C537 1.376 . S
C541 C540 1.392 . S
C541 H553 0.929 . S
C542 C538 1.531 . S
C542 H554 0.960 . S
C542 H555 0.962 . S
C542 H556 0.960 . S
C543 C540 1.511 . S
C543 H557 0.961 . S
C543 H558 0.961 . S
C543 H559 0.961 . S
C544 C545 1.370 1_554 S
C544 C546 1.363 . S
C544 H560 0.931 . S
C545 C544 1.370 1_556 S
C545 C549 1.408 . S
C546 C544 1.363 . S
C546 C547 1.370 1_554 S
C546 C550 1.524 . S
C547 C539 1.502 1_556 S
C547 C546 1.370 1_556 S
C547 C548 1.403 . S
C548 C547 1.403 . S
C548 C549 1.404 . S
C548 C551 1.539 . S
C549 C545 1.408 . S
C549 C548 1.404 . S
C549 H561 0.930 . S
C550 C546 1.524 . S
C550 H562 0.956 . S
C550 H563 0.961 . S
C550 H564 0.961 . S
C551 C548 1.539 . S
C551 H565 0.958 . S
C551 H566 0.961 . S
C551 H567 0.960 . S
H552 C536 0.931 . S
H553 C541 0.929 . S
H554 C542 0.960 . S
H555 C542 0.962 . S
H556 C542 0.960 . S
H557 C543 0.961 . S
H558 C543 0.961 . S
H559 C543 0.961 . S
H560 C544 0.931 . S
H561 C549 0.930 . S
H562 C550 0.956 . S
H563 C550 0.961 . S
H564 C550 0.961 . S
H565 C551 0.958 . S
H566 C551 0.961 . S
H567 C551 0.960 . S
C568 C569 1.391 . S
C568 C570 1.394 . S
C568 H584 0.931 . S
C569 C568 1.391 . S
C569 C573 1.376 1_556 S
C570 C568 1.394 . S
C570 C571 1.369 1_556 S
C570 C574 1.531 . S
C571 C570 1.369 1_554 S
C571 C572 1.410 . S
C571 C579 1.503 . S
C572 C571 1.410 . S
C572 C573 1.392 . S
C572 C575 1.511 . S
C573 C569 1.376 1_554 S
C573 C572 1.392 . S
C573 H585 0.929 . S
C574 C570 1.531 . S
C574 H586 0.960 . S
C574 H587 0.962 . S
C574 H588 0.960 . S
C575 C572 1.511 . S
C575 H589 0.961 . S
C575 H590 0.961 . S
C575 H591 0.961 . S
C576 C577 1.370 1_556 S
C576 C578 1.363 . S
C576 H592 0.931 . S
C577 C576 1.370 1_554 S
C577 C581 1.408 . S
C578 C576 1.363 . S
C578 C579 1.370 1_556 S
C578 C582 1.524 . S
C579 C571 1.503 . S
C579 C578 1.370 1_554 S
C579 C580 1.403 . S
C580 C579 1.403 . S
C580 C581 1.404 . S
C580 C583 1.539 . S
C581 C577 1.408 . S
C581 C580 1.404 . S
C581 H593 0.930 . S
C582 C578 1.524 . S
C582 H594 0.956 . S
C582 H595 0.961 . S
C582 H596 0.961 . S
C583 C580 1.539 . S
C583 H597 0.958 . S
C583 H598 0.961 . S
C583 H599 0.960 . S
H584 C568 0.931 . S
H585 C573 0.929 . S
H586 C574 0.960 . S
H587 C574 0.962 . S
H588 C574 0.960 . S
H589 C575 0.961 . S
H590 C575 0.961 . S
H591 C575 0.961 . S
H592 C576 0.931 . S
H593 C581 0.930 . S
H594 C582 0.956 . S
H595 C582 0.961 . S
H596 C582 0.961 . S
H597 C583 0.958 . S
H598 C583 0.961 . S
H599 C583 0.960 . S
C600 C601 1.391 . S
C600 C602 1.394 . S
C600 H616 0.931 . S
C601 C600 1.391 . S
C601 C605 1.376 . S
C602 C600 1.394 . S
C602 C603 1.369 . S
C602 C606 1.531 . S
C603 C602 1.369 . S
C603 C604 1.410 . S
C603 C611 1.503 1_565 S
C604 C603 1.410 . S
C604 C605 1.392 . S
C604 C607 1.511 . S
C605 C601 1.376 . S
C605 C604 1.392 . S
C605 H617 0.929 . S
C606 C602 1.531 . S
C606 H618 0.960 1_565 S
C606 H619 0.962 . S
C606 H620 0.960 . S
C607 C604 1.511 . S
C607 H621 0.961 . S
C607 H622 0.994 . S
C607 H623 0.961 . S
C608 C609 1.370 . S
C608 C610 1.363 . S
C608 H624 0.931 . S
C609 C608 1.370 . S
C609 C613 1.408 . S
C610 C608 1.363 . S
C610 C611 1.370 . S
C610 C614 1.524 . S
C611 C603 1.503 1_545 S
C611 C610 1.370 . S
C611 C612 1.403 . S
C612 C611 1.403 . S
C612 C613 1.404 . S
C612 C615 1.539 . S
C613 C609 1.408 . S
C613 C612 1.404 . S
C613 H625 0.930 . S
C614 C610 1.524 . S
C614 H626 0.956 1_545 S
C614 H627 0.961 1_545 S
C614 H628 0.961 . S
C615 C612 1.539 . S
C615 H629 0.958 . S
C615 H630 0.961 . S
C615 H631 0.960 . S
H616 C600 0.931 . S
H617 C605 0.929 . S
H618 C606 0.960 1_545 S
H619 C606 0.962 . S
H620 C606 0.960 . S
H621 C607 0.961 . S
H622 C607 0.994 . S
H623 C607 0.961 . S
H624 C608 0.931 . S
H625 C613 0.930 . S
H626 C614 0.956 1_565 S
H627 C614 0.961 1_565 S
H628 C614 0.961 . S
H629 C615 0.958 . S
H630 C615 0.961 . S
H631 C615 0.960 . S
C632 C633 1.391 . S
C632 C634 1.394 . S
C632 H648 0.931 . S
C633 C632 1.391 . S
C633 C637 1.376 . S
C634 C632 1.394 . S
C634 C635 1.369 . S
C634 C638 1.531 . S
C635 C634 1.369 . S
C635 C636 1.410 . S
C635 C643 1.503 1_455 S
C636 C635 1.410 . S
C636 C637 1.392 . S
C636 C639 1.511 . S
C637 C633 1.376 . S
C637 C636 1.392 . S
C637 H649 0.929 . S
C638 C634 1.531 . S
C638 H650 0.960 1_455 S
C638 H651 0.962 . S
C638 H652 0.960 . S
C639 C636 1.511 . S
C639 H653 0.961 . S
C639 H654 0.961 . S
C639 H655 0.961 . S
C640 C641 1.370 . S
C640 C642 1.363 . S
C640 H656 0.931 . S
C641 C640 1.370 . S
C641 C645 1.408 . S
C642 C640 1.363 . S
C642 C643 1.370 . S
C642 C646 1.524 . S
C643 C635 1.503 1_655 S
C643 C642 1.370 . S
C643 C644 1.403 . S
C644 C643 1.403 . S
C644 C645 1.404 . S
C644 C647 1.539 . S
C645 C641 1.408 . S
C645 C644 1.404 . S
C645 H657 0.930 . S
C646 C642 1.524 . S
C646 H658 0.955 . S
C646 H659 0.961 1_655 S
C646 H660 0.961 . S
C647 C644 1.539 . S
C647 H661 0.958 . S
C647 H662 0.961 . S
C647 H663 0.960 . S
H648 C632 0.931 . S
H649 C637 0.929 . S
H650 C638 0.960 1_655 S
H651 C638 0.962 . S
H652 C638 0.960 . S
H653 C639 0.961 . S
H654 C639 0.961 . S
H655 C639 0.961 . S
H656 C640 0.931 . S
H657 C645 0.930 . S
H658 C646 0.955 . S
H659 C646 0.961 1_455 S
H660 C646 0.961 . S
H661 C647 0.958 . S
H662 C647 0.961 . S
H663 C647 0.960 . S
C664 C665 1.391 . S
C664 C666 1.394 . S
C664 H680 0.931 . S
C665 C664 1.391 . S
C665 C669 1.376 . S
C666 C664 1.394 . S
C666 C667 1.369 . S
C666 C670 1.531 . S
C667 C666 1.369 . S
C667 C668 1.410 . S
C667 C675 1.503 1_545 S
C668 C667 1.410 . S
C668 C669 1.392 . S
C668 C671 1.511 . S
C669 C665 1.376 . S
C669 C668 1.392 . S
C669 H681 0.929 . S
C670 C666 1.531 . S
C670 H682 0.960 1_545 S
C670 H683 0.960 1_545 S
C670 H684 0.960 . S
C671 C668 1.511 . S
C671 H685 0.961 . S
C671 H686 0.961 . S
C671 H687 0.961 . S
C672 C673 1.370 . S
C672 C674 1.363 . S
C672 H688 0.931 . S
C673 C672 1.370 . S
C673 C677 1.408 . S
C674 C672 1.363 . S
C674 C675 1.370 . S
C674 C678 1.524 . S
C675 C667 1.503 1_565 S
C675 C674 1.370 . S
C675 C676 1.403 . S
C676 C675 1.403 . S
C676 C677 1.404 . S
C676 C679 1.539 . S
C677 C673 1.408 . S
C677 C676 1.404 . S
C677 H689 0.930 . S
C678 C674 1.524 . S
C678 H690 0.956 . S
C678 H691 0.961 . S
C678 H692 0.961 . S
C679 C676 1.539 . S
C679 H693 0.958 . S
C679 H694 0.961 . S
C679 H695 0.960 1_565 S
H680 C664 0.931 . S
H681 C669 0.929 . S
H682 C670 0.960 1_565 S
H683 C670 0.960 1_565 S
H684 C670 0.960 . S
H685 C671 0.961 . S
H686 C671 0.961 . S
H687 C671 0.961 . S
H688 C672 0.931 . S
H689 C677 0.930 . S
H690 C678 0.956 . S
H691 C678 0.961 . S
H692 C678 0.961 . S
H693 C679 0.958 . S
H694 C679 0.961 . S
H695 C679 0.960 1_545 S
C696 C697 1.391 . S
C696 C698 1.394 . S
C696 H712 0.931 . S
C697 C696 1.391 . S
C697 C701 1.376 . S
C698 C696 1.394 . S
C698 C699 1.369 . S
C698 C702 1.531 . S
C699 C698 1.369 . S
C699 C700 1.410 . S
C699 C707 1.503 1_655 S
C700 C699 1.410 . S
C700 C701 1.392 . S
C700 C703 1.511 . S
C701 C697 1.376 . S
C701 C700 1.392 . S
C701 H713 0.929 . S
C702 C698 1.531 . S
C702 H714 0.960 . S
C702 H715 0.962 . S
C702 H716 0.960 . S
C703 C700 1.511 . S
C703 H717 0.961 . S
C703 H718 0.961 1_655 S
C703 H719 0.966 . S
C704 C705 1.370 . S
C704 C706 1.363 . S
C704 H720 0.931 . S
C705 C704 1.370 . S
C705 C709 1.408 . S
C706 C704 1.363 . S
C706 C707 1.370 . S
C706 C710 1.524 . S
C707 C699 1.503 1_455 S
C707 C706 1.370 . S
C707 C708 1.403 . S
C708 C707 1.403 . S
C708 C709 1.404 . S
C708 C711 1.539 . S
C709 C705 1.408 . S
C709 C708 1.404 . S
C709 H721 0.930 . S
C710 C706 1.524 . S
C710 H722 0.956 1_455 S
C710 H723 0.948 1_455 S
C710 H724 0.961 . S
C711 C708 1.539 . S
C711 H725 0.958 . S
C711 H726 0.961 . S
C711 H727 0.960 . S
H712 C696 0.931 . S
H713 C701 0.929 . S
H714 C702 0.960 . S
H715 C702 0.962 . S
H716 C702 0.960 . S
H717 C703 0.961 . S
H718 C703 0.961 1_455 S
H719 C703 0.966 . S
H720 C704 0.931 . S
H721 C709 0.930 . S
H722 C710 0.956 1_655 S
H723 C710 0.948 1_655 S
H724 C710 0.961 . S
H725 C711 0.958 . S
H726 C711 0.961 . S
H727 C711 0.960 . S
C728 C729 1.391 . S
C728 C730 1.394 . S
C728 H744 0.931 . S
C729 C728 1.391 . S
C729 C733 1.376 . S
C730 C728 1.394 . S
C730 C731 1.369 . S
C730 C734 1.531 . S
C731 C730 1.369 . S
C731 C732 1.410 . S
C731 C739 1.503 . S
C732 C731 1.410 . S
C732 C733 1.392 . S
C732 C735 1.511 . S
C733 C729 1.376 . S
C733 C732 1.392 . S
C733 H745 0.929 . S
C734 C730 1.531 . S
C734 H746 0.960 . S
C734 H747 0.962 . S
C734 H748 0.960 . S
C735 C732 1.511 . S
C735 H749 0.961 . S
C735 H750 0.961 . S
C735 H751 0.961 . S
C736 C737 1.370 . S
C736 C738 1.363 . S
C736 H752 0.931 . S
C737 C736 1.370 . S
C737 C741 1.408 . S
C738 C736 1.363 . S
C738 C739 1.370 . S
C738 C742 1.524 . S
C739 C731 1.503 . S
C739 C738 1.370 . S
C739 C740 1.403 . S
C740 C739 1.403 . S
C740 C741 1.404 . S
C740 C743 1.539 . S
C741 C737 1.408 . S
C741 C740 1.404 . S
C741 H753 0.930 . S
C742 C738 1.524 . S
C742 H754 0.956 . S
C742 H755 0.961 . S
C742 H756 0.961 . S
C743 C740 1.539 . S
C743 H757 0.958 . S
C743 H758 0.961 . S
C743 H759 0.960 . S
H744 C728 0.931 . S
H745 C733 0.929 . S
H746 C734 0.960 . S
H747 C734 0.962 . S
H748 C734 0.960 . S
H749 C735 0.961 . S
H750 C735 0.961 . S
H751 C735 0.961 . S
H752 C736 0.931 . S
H753 C741 0.930 . S
H754 C742 0.956 . S
H755 C742 0.961 . S
H756 C742 0.961 . S
H757 C743 0.958 . S
H758 C743 0.961 . S
H759 C743 0.960 . S
C760 C761 1.391 . S
C760 C762 1.394 . S
C760 H776 0.931 . S
C761 C760 1.391 . S
C761 C765 1.376 . S
C762 C760 1.394 . S
C762 C763 1.369 . S
C762 C766 1.531 . S
C763 C762 1.369 . S
C763 C764 1.410 . S
C763 C771 1.503 . S
C764 C763 1.410 . S
C764 C765 1.392 . S
C764 C767 1.511 . S
C765 C761 1.376 . S
C765 C764 1.392 . S
C765 H777 0.929 . S
C766 C762 1.531 . S
C766 H778 0.960 . S
C766 H779 0.962 . S
C766 H780 0.960 . S
C767 C764 1.511 . S
C767 H781 0.961 . S
C767 H782 0.961 . S
C767 H783 0.961 . S
C768 C769 1.370 . S
C768 C770 1.363 . S
C768 H784 0.931 . S
C769 C768 1.370 . S
C769 C773 1.408 . S
C770 C768 1.363 . S
C770 C771 1.370 . S
C770 C774 1.524 . S
C771 C763 1.503 . S
C771 C770 1.370 . S
C771 C772 1.403 . S
C772 C771 1.403 . S
C772 C773 1.404 . S
C772 C775 1.539 . S
C773 C769 1.408 . S
C773 C772 1.404 . S
C773 H785 0.930 . S
C774 C770 1.524 . S
C774 H786 0.956 . S
C774 H787 0.961 . S
C774 H788 0.961 . S
C775 C772 1.539 . S
C775 H789 0.958 . S
C775 H790 0.961 . S
C775 H791 0.960 . S
H776 C760 0.931 . S
H777 C765 0.929 . S
H778 C766 0.960 . S
H779 C766 0.962 . S
H780 C766 0.960 . S
H781 C767 0.961 . S
H782 C767 0.961 . S
H783 C767 0.961 . S
H784 C768 0.931 . S
H785 C773 0.930 . S
H786 C774 0.956 . S
H787 C774 0.961 . S
H788 C774 0.961 . S
H789 C775 0.958 . S
H790 C775 0.961 . S
H791 C775 0.960 . S
C792 C793 1.391 . S
C792 C794 1.394 . S
C792 H808 0.931 . S
C793 C792 1.391 . S
C793 C797 1.376 . S
C794 C792 1.394 . S
C794 C795 1.369 . S
C794 C798 1.531 . S
C795 C794 1.369 . S
C795 C796 1.410 . S
C795 C803 1.503 . S
C796 C795 1.410 . S
C796 C797 1.392 . S
C796 C799 1.511 . S
C797 C793 1.376 . S
C797 C796 1.392 . S
C797 H809 0.929 . S
C798 C794 1.531 . S
C798 H810 0.960 . S
C798 H811 0.962 . S
C798 H812 0.960 . S
C799 C796 1.511 . S
C799 H813 0.961 . S
C799 H814 0.961 . S
C799 H815 0.961 . S
C800 C801 1.370 . S
C800 C802 1.363 . S
C800 H816 0.931 . S
C801 C800 1.370 . S
C801 C805 1.408 . S
C802 C800 1.363 . S
C802 C803 1.370 . S
C802 C806 1.524 . S
C803 C795 1.503 . S
C803 C802 1.370 . S
C803 C804 1.403 . S
C804 C803 1.403 . S
C804 C805 1.404 . S
C804 C807 1.539 . S
C805 C801 1.408 . S
C805 C804 1.404 . S
C805 H817 0.930 . S
C806 C802 1.524 . S
C806 H818 0.956 . S
C806 H819 0.961 . S
C806 H820 0.961 . S
C807 C804 1.539 . S
C807 H821 0.958 . S
C807 H822 0.961 . S
C807 H823 0.960 . S
H808 C792 0.931 . S
H809 C797 0.929 . S
H810 C798 0.960 . S
H811 C798 0.962 . S
H812 C798 0.960 . S
H813 C799 0.961 . S
H814 C799 0.961 . S
H815 C799 0.961 . S
H816 C800 0.931 . S
H817 C805 0.930 . S
H818 C806 0.956 . S
H819 C806 0.961 . S
H820 C806 0.961 . S
H821 C807 0.958 . S
H822 C807 0.961 . S
H823 C807 0.960 . S
C824 C825 1.391 . S
C824 C826 1.394 . S
C824 H840 0.931 . S
C825 C824 1.391 . S
C825 C829 1.376 . S
C826 C824 1.394 . S
C826 C827 1.369 . S
C826 C830 1.531 . S
C827 C826 1.369 . S
C827 C828 1.410 . S
C827 C835 1.503 . S
C828 C827 1.410 . S
C828 C829 1.392 . S
C828 C831 1.511 . S
C829 C825 1.376 . S
C829 C828 1.392 . S
C829 H841 0.929 . S
C830 C826 1.531 . S
C830 H842 0.960 . S
C830 H843 0.962 . S
C830 H844 0.960 . S
C831 C828 1.511 . S
C831 H845 0.961 . S
C831 H846 0.961 . S
C831 H847 0.961 . S
C832 C833 1.370 . S
C832 C834 1.363 . S
C832 H848 0.931 . S
C833 C832 1.370 . S
C833 C837 1.408 . S
C834 C832 1.363 . S
C834 C835 1.370 . S
C834 C838 1.524 . S
C835 C827 1.503 . S
C835 C834 1.370 . S
C835 C836 1.403 . S
C836 C835 1.403 . S
C836 C837 1.404 . S
C836 C839 1.539 . S
C837 C833 1.408 . S
C837 C836 1.404 . S
C837 H849 0.930 . S
C838 C834 1.524 . S
C838 H850 0.956 . S
C838 H851 0.961 . S
C838 H852 0.961 . S
C839 C836 1.539 . S
C839 H853 0.958 . S
C839 H854 0.961 . S
C839 H855 0.960 . S
H840 C824 0.931 . S
H841 C829 0.929 . S
H842 C830 0.960 . S
H843 C830 0.962 . S
H844 C830 0.960 . S
H845 C831 0.961 . S
H846 C831 0.961 . S
H847 C831 0.961 . S
H848 C832 0.931 . S
H849 C837 0.930 . S
H850 C838 0.956 . S
H851 C838 0.961 . S
H852 C838 0.961 . S
H853 C839 0.958 . S
H854 C839 0.961 . S
H855 C839 0.960 . S
C856 C857 1.391 . S
C856 C858 1.394 . S
C856 H872 0.931 . S
C857 C856 1.391 . S
C857 C861 1.376 . S
C858 C856 1.394 . S
C858 C859 1.369 . S
C858 C862 1.531 . S
C859 C858 1.369 . S
C859 C860 1.410 . S
C859 C867 1.503 . S
C860 C859 1.410 . S
C860 C861 1.392 . S
C860 C863 1.511 . S
C861 C857 1.376 . S
C861 C860 1.392 . S
C861 H873 0.929 . S
C862 C858 1.531 . S
C862 H874 0.960 . S
C862 H875 0.962 . S
C862 H876 0.960 . S
C863 C860 1.511 . S
C863 H877 0.961 . S
C863 H878 0.961 . S
C863 H879 0.961 . S
C864 C865 1.370 . S
C864 C866 1.363 . S
C864 H880 0.931 . S
C865 C864 1.370 . S
C865 C869 1.408 . S
C866 C864 1.363 . S
C866 C867 1.370 . S
C866 C870 1.524 . S
C867 C859 1.503 . S
C867 C866 1.370 . S
C867 C868 1.403 . S
C868 C867 1.403 . S
C868 C869 1.404 . S
C868 C871 1.539 . S
C869 C865 1.408 . S
C869 C868 1.404 . S
C869 H881 0.930 . S
C870 C866 1.524 . S
C870 H882 0.956 . S
C870 H883 0.961 . S
C870 H884 0.961 . S
C871 C868 1.539 . S
C871 H885 0.958 . S
C871 H886 0.961 . S
C871 H887 0.960 . S
H872 C856 0.931 . S
H873 C861 0.929 . S
H874 C862 0.960 . S
H875 C862 0.962 . S
H876 C862 0.960 . S
H877 C863 0.961 . S
H878 C863 0.961 . S
H879 C863 0.961 . S
H880 C864 0.931 . S
H881 C869 0.930 . S
H882 C870 0.956 . S
H883 C870 0.961 . S
H884 C870 0.961 . S
H885 C871 0.958 . S
H886 C871 0.961 . S
H887 C871 0.960 . S
C888 C889 1.391 . S
C888 C890 1.394 . S
C888 H904 0.931 . S
C889 C888 1.391 . S
C889 C893 1.376 . S
C890 C888 1.394 . S
C890 C891 1.369 . S
C890 C894 1.531 . S
C891 C890 1.369 . S
C891 C892 1.410 . S
C891 C899 1.503 . S
C892 C891 1.410 . S
C892 C893 1.392 . S
C892 C895 1.511 . S
C893 C889 1.376 . S
C893 C892 1.392 . S
C893 H905 0.929 . S
C894 C890 1.531 . S
C894 H906 0.960 . S
C894 H907 0.962 . S
C894 H908 0.960 . S
C895 C892 1.511 . S
C895 H909 0.961 . S
C895 H910 0.961 . S
C895 H911 0.961 . S
C896 C897 1.370 . S
C896 C898 1.363 . S
C896 H912 0.931 . S
C897 C896 1.370 . S
C897 C901 1.408 . S
C898 C896 1.363 . S
C898 C899 1.370 . S
C898 C902 1.524 . S
C899 C891 1.503 . S
C899 C898 1.370 . S
C899 C900 1.403 . S
C900 C899 1.403 . S
C900 C901 1.404 . S
C900 C903 1.539 . S
C901 C897 1.408 . S
C901 C900 1.404 . S
C901 H913 0.930 . S
C902 C898 1.524 . S
C902 H914 0.956 . S
C902 H915 0.961 . S
C902 H916 0.961 . S
C903 C900 1.539 . S
C903 H917 0.958 . S
C903 H918 0.961 . S
C903 H919 0.960 . S
H904 C888 0.931 . S
H905 C893 0.929 . S
H906 C894 0.960 . S
H907 C894 0.962 . S
H908 C894 0.960 . S
H909 C895 0.961 . S
H910 C895 0.961 . S
H911 C895 0.961 . S
H912 C896 0.931 . S
H913 C901 0.930 . S
H914 C902 0.956 . S
H915 C902 0.961 . S
H916 C902 0.961 . S
H917 C903 0.958 . S
H918 C903 0.961 . S
H919 C903 0.960 . S
C920 C921 1.391 . S
C920 C922 1.394 . S
C920 H936 0.931 . S
C921 C920 1.391 . S
C921 C925 1.376 . S
C922 C920 1.394 . S
C922 C923 1.369 . S
C922 C926 1.531 . S
C923 C922 1.369 . S
C923 C924 1.410 . S
C923 C931 1.503 . S
C924 C923 1.410 . S
C924 C925 1.392 . S
C924 C927 1.511 . S
C925 C921 1.376 . S
C925 C924 1.392 . S
C925 H937 0.929 . S
C926 C922 1.531 . S
C926 H938 0.960 . S
C926 H939 0.962 . S
C926 H940 0.960 . S
C927 C924 1.511 . S
C927 H941 0.961 . S
C927 H942 0.961 . S
C927 H943 0.961 . S
C928 C929 1.370 . S
C928 C930 1.363 . S
C928 H944 0.931 . S
C929 C928 1.370 . S
C929 C933 1.408 . S
C930 C928 1.363 . S
C930 C931 1.370 . S
C930 C934 1.524 . S
C931 C923 1.503 . S
C931 C930 1.370 . S
C931 C932 1.403 . S
C932 C931 1.403 . S
C932 C933 1.404 . S
C932 C935 1.539 . S
C933 C929 1.408 . S
C933 C932 1.404 . S
C933 H945 0.930 . S
C934 C930 1.524 . S
C934 H946 0.956 . S
C934 H947 0.961 . S
C934 H948 0.961 . S
C935 C932 1.539 . S
C935 H949 0.958 . S
C935 H950 0.961 . S
C935 H951 0.960 . S
H936 C920 0.931 . S
H937 C925 0.929 . S
H938 C926 0.960 . S
H939 C926 0.962 . S
H940 C926 0.960 . S
H941 C927 0.961 . S
H942 C927 0.961 . S
H943 C927 0.961 . S
H944 C928 0.931 . S
H945 C933 0.930 . S
H946 C934 0.956 . S
H947 C934 0.961 . S
H948 C934 0.961 . S
H949 C935 0.958 . S
H950 C935 0.961 . S
H951 C935 0.960 . S
C952 C953 1.391 . S
C952 C954 1.394 . S
C952 H968 0.931 . S
C953 C952 1.391 . S
C953 C957 1.376 . S
C954 C952 1.394 . S
C954 C955 1.369 . S
C954 C958 1.531 . S
C955 C954 1.369 . S
C955 C956 1.410 . S
C955 C963 1.503 . S
C956 C955 1.410 . S
C956 C957 1.392 . S
C956 C959 1.511 . S
C957 C953 1.376 . S
C957 C956 1.392 . S
C957 H969 0.929 . S
C958 C954 1.531 . S
C958 H970 0.960 . S
C958 H971 0.962 . S
C958 H972 0.960 . S
C959 C956 1.511 . S
C959 H973 0.961 . S
C959 H974 0.961 . S
C959 H975 0.961 . S
C960 C961 1.370 . S
C960 C962 1.363 . S
C960 H976 0.931 . S
C961 C960 1.370 . S
C961 C965 1.408 . S
C962 C960 1.363 . S
C962 C963 1.370 . S
C962 C966 1.524 . S
C963 C955 1.503 . S
C963 C962 1.370 . S
C963 C964 1.403 . S
C964 C963 1.403 . S
C964 C965 1.404 . S
C964 C967 1.539 . S
C965 C961 1.408 . S
C965 C964 1.404 . S
C965 H977 0.930 . S
C966 C962 1.524 . S
C966 H978 0.956 . S
C966 H979 0.961 . S
C966 H980 0.961 . S
C967 C964 1.539 . S
C967 H981 0.958 . S
C967 H982 0.961 . S
C967 H983 0.960 . S
H968 C952 0.931 . S
H969 C957 0.929 . S
H970 C958 0.960 . S
H971 C958 0.962 . S
H972 C958 0.960 . S
H973 C959 0.961 . S
H974 C959 0.961 . S
H975 C959 0.961 . S
H976 C960 0.931 . S
H977 C965 0.930 . S
H978 C966 0.956 . S
H979 C966 0.961 . S
H980 C966 0.961 . S
H981 C967 0.958 . S
H982 C967 0.961 . S
H983 C967 0.960 . S
C473 C52 1.647 . S
C481 C210 1.682 . S
C505 C33 1.658 . S
C513 C92 1.678 . S
C537 C111 1.656 . S
C545 C151 1.680 . S
C569 C229 1.648 . S
C577 C170 1.679 . S
C601 C288 1.684 . S
C609 C465 1.664 . S
C633 C347 1.671 . S
C641 C269 1.672 . S
C665 C387 1.658 . S
C673 C328 1.680 . S
C697 C446 1.675 . S
C705 C406 1.671 . S
C729 C359 1.608 . S
C737 C5 1.618 . S
C761 C62 1.598 . S
C769 C418 1.620 . S
C793 C239 1.594 . S
C801 C121 1.615 . S
C825 C298 1.619 . S
C833 C182 1.619 . S
C857 C300 1.616 . S
C865 C180 1.606 . S
C889 C3 1.618 . S
C897 C357 1.606 . S
C921 C64 1.612 . S
C929 C416 1.617 . S
C953 C123 1.605 . S
C961 C241 1.616 . S
