# Generated by pormake.
# Topology som, (6)-cn, num edge types: 1
# Building blocks:
#     Node 0, Type 0, BuildingBlock: INOVEN_clean_sbu_0, # of connection points: 6
#     Node 1, Type 0, BuildingBlock: INOVEN_clean_sbu_0, # of connection points: 6
#     Node 2, Type 0, BuildingBlock: INOVEN_clean_sbu_0, # of connection points: 6
#     Node 3, Type 0, BuildingBlock: INOVEN_clean_sbu_0, # of connection points: 6
#     Node 4, Type 0, BuildingBlock: INOVEN_clean_sbu_0, # of connection points: 6
#     Node 5, Type 0, BuildingBlock: INOVEN_clean_sbu_0, # of connection points: 6
#     Node 6, Type 0, BuildingBlock: INOVEN_clean_sbu_0, # of connection points: 6
#     Node 7, Type 0, BuildingBlock: INOVEN_clean_sbu_0, # of connection points: 6
#     Node 8, Type 0, BuildingBlock: INOVEN_clean_sbu_0, # of connection points: 6
#     Node 9, Type 0, BuildingBlock: INOVEN_clean_sbu_0, # of connection points: 6
#     Node 10, Type 0, BuildingBlock: INOVEN_clean_sbu_0, # of connection points: 6
#     Node 11, Type 0, BuildingBlock: INOVEN_clean_sbu_0, # of connection points: 6
#     Node 12, Type 0, BuildingBlock: INOVEN_clean_sbu_0, # of connection points: 6
#     Node 13, Type 0, BuildingBlock: INOVEN_clean_sbu_0, # of connection points: 6
#     Node 14, Type 0, BuildingBlock: INOVEN_clean_sbu_0, # of connection points: 6
#     Node 15, Type 0, BuildingBlock: INOVEN_clean_sbu_0, # of connection points: 6
#     Node 16, Type 0, BuildingBlock: INOVEN_clean_sbu_0, # of connection points: 6
#     Node 17, Type 0, BuildingBlock: INOVEN_clean_sbu_0, # of connection points: 6
#     Node 18, Type 0, BuildingBlock: INOVEN_clean_sbu_0, # of connection points: 6
#     Node 19, Type 0, BuildingBlock: INOVEN_clean_sbu_0, # of connection points: 6
#     Node 20, Type 0, BuildingBlock: INOVEN_clean_sbu_0, # of connection points: 6
#     Node 21, Type 0, BuildingBlock: INOVEN_clean_sbu_0, # of connection points: 6
#     Node 22, Type 0, BuildingBlock: INOVEN_clean_sbu_0, # of connection points: 6
#     Node 23, Type 0, BuildingBlock: INOVEN_clean_sbu_0, # of connection points: 6
#     Node 24, Type 0, BuildingBlock: INOVEN_clean_sbu_0, # of connection points: 6
#     Node 25, Type 0, BuildingBlock: INOVEN_clean_sbu_0, # of connection points: 6
#     Node 26, Type 0, BuildingBlock: INOVEN_clean_sbu_0, # of connection points: 6
#     Node 27, Type 0, BuildingBlock: INOVEN_clean_sbu_0, # of connection points: 6
#     Node 28, Type 0, BuildingBlock: INOVEN_clean_sbu_0, # of connection points: 6
#     Node 29, Type 0, BuildingBlock: INOVEN_clean_sbu_0, # of connection points: 6
#     Node 30, Type 0, BuildingBlock: INOVEN_clean_sbu_0, # of connection points: 6
#     Node 31, Type 0, BuildingBlock: INOVEN_clean_sbu_0, # of connection points: 6
#     Edge 32, Type (0, 0), BuildingBlock: XIVTED_clean_linker_0, # of connection points: 2
#     Edge 33, Type (0, 0), BuildingBlock: XIVTED_clean_linker_0, # of connection points: 2
#     Edge 34, Type (0, 0), BuildingBlock: XIVTED_clean_linker_0, # of connection points: 2
#     Edge 35, Type (0, 0), BuildingBlock: XIVTED_clean_linker_0, # of connection points: 2
#     Edge 36, Type (0, 0), BuildingBlock: XIVTED_clean_linker_0, # of connection points: 2
#     Edge 37, Type (0, 0), BuildingBlock: XIVTED_clean_linker_0, # of connection points: 2
#     Edge 38, Type (0, 0), BuildingBlock: XIVTED_clean_linker_0, # of connection points: 2
#     Edge 39, Type (0, 0), BuildingBlock: XIVTED_clean_linker_0, # of connection points: 2
#     Edge 40, Type (0, 0), BuildingBlock: XIVTED_clean_linker_0, # of connection points: 2
#     Edge 41, Type (0, 0), BuildingBlock: XIVTED_clean_linker_0, # of connection points: 2
#     Edge 42, Type (0, 0), BuildingBlock: XIVTED_clean_linker_0, # of connection points: 2
#     Edge 43, Type (0, 0), BuildingBlock: XIVTED_clean_linker_0, # of connection points: 2
#     Edge 44, Type (0, 0), BuildingBlock: XIVTED_clean_linker_0, # of connection points: 2
#     Edge 45, Type (0, 0), BuildingBlock: XIVTED_clean_linker_0, # of connection points: 2
#     Edge 46, Type (0, 0), BuildingBlock: XIVTED_clean_linker_0, # of connection points: 2
#     Edge 47, Type (0, 0), BuildingBlock: XIVTED_clean_linker_0, # of connection points: 2
#     Edge 48, Type (0, 0), BuildingBlock: XIVTED_clean_linker_0, # of connection points: 2
#     Edge 49, Type (0, 0), BuildingBlock: XIVTED_clean_linker_0, # of connection points: 2
#     Edge 50, Type (0, 0), BuildingBlock: XIVTED_clean_linker_0, # of connection points: 2
#     Edge 51, Type (0, 0), BuildingBlock: XIVTED_clean_linker_0, # of connection points: 2
#     Edge 52, Type (0, 0), BuildingBlock: XIVTED_clean_linker_0, # of connection points: 2
#     Edge 53, Type (0, 0), BuildingBlock: XIVTED_clean_linker_0, # of connection points: 2
#     Edge 54, Type (0, 0), BuildingBlock: XIVTED_clean_linker_0, # of connection points: 2
#     Edge 55, Type (0, 0), BuildingBlock: XIVTED_clean_linker_0, # of connection points: 2
#     Edge 56, Type (0, 0), BuildingBlock: XIVTED_clean_linker_0, # of connection points: 2
#     Edge 57, Type (0, 0), BuildingBlock: XIVTED_clean_linker_0, # of connection points: 2
#     Edge 58, Type (0, 0), BuildingBlock: XIVTED_clean_linker_0, # of connection points: 2
#     Edge 59, Type (0, 0), BuildingBlock: XIVTED_clean_linker_0, # of connection points: 2
#     Edge 60, Type (0, 0), BuildingBlock: XIVTED_clean_linker_0, # of connection points: 2
#     Edge 61, Type (0, 0), BuildingBlock: XIVTED_clean_linker_0, # of connection points: 2
#     Edge 62, Type (0, 0), BuildingBlock: XIVTED_clean_linker_0, # of connection points: 2
#     Edge 63, Type (0, 0), BuildingBlock: XIVTED_clean_linker_0, # of connection points: 2
#     Edge 64, Type (0, 0), BuildingBlock: XIVTED_clean_linker_0, # of connection points: 2
#     Edge 65, Type (0, 0), BuildingBlock: XIVTED_clean_linker_0, # of connection points: 2
#     Edge 66, Type (0, 0), BuildingBlock: XIVTED_clean_linker_0, # of connection points: 2
#     Edge 67, Type (0, 0), BuildingBlock: XIVTED_clean_linker_0, # of connection points: 2
#     Edge 68, Type (0, 0), BuildingBlock: XIVTED_clean_linker_0, # of connection points: 2
#     Edge 69, Type (0, 0), BuildingBlock: XIVTED_clean_linker_0, # of connection points: 2
#     Edge 70, Type (0, 0), BuildingBlock: XIVTED_clean_linker_0, # of connection points: 2
#     Edge 71, Type (0, 0), BuildingBlock: XIVTED_clean_linker_0, # of connection points: 2
#     Edge 72, Type (0, 0), BuildingBlock: XIVTED_clean_linker_0, # of connection points: 2
#     Edge 73, Type (0, 0), BuildingBlock: XIVTED_clean_linker_0, # of connection points: 2
#     Edge 74, Type (0, 0), BuildingBlock: XIVTED_clean_linker_0, # of connection points: 2
#     Edge 75, Type (0, 0), BuildingBlock: XIVTED_clean_linker_0, # of connection points: 2
#     Edge 76, Type (0, 0), BuildingBlock: XIVTED_clean_linker_0, # of connection points: 2
#     Edge 77, Type (0, 0), BuildingBlock: XIVTED_clean_linker_0, # of connection points: 2
#     Edge 78, Type (0, 0), BuildingBlock: XIVTED_clean_linker_0, # of connection points: 2
#     Edge 79, Type (0, 0), BuildingBlock: XIVTED_clean_linker_0, # of connection points: 2
#     Edge 80, Type (0, 0), BuildingBlock: XIVTED_clean_linker_0, # of connection points: 2
#     Edge 81, Type (0, 0), BuildingBlock: XIVTED_clean_linker_0, # of connection points: 2
#     Edge 82, Type (0, 0), BuildingBlock: XIVTED_clean_linker_0, # of connection points: 2
#     Edge 83, Type (0, 0), BuildingBlock: XIVTED_clean_linker_0, # of connection points: 2
#     Edge 84, Type (0, 0), BuildingBlock: XIVTED_clean_linker_0, # of connection points: 2
#     Edge 85, Type (0, 0), BuildingBlock: XIVTED_clean_linker_0, # of connection points: 2
#     Edge 86, Type (0, 0), BuildingBlock: XIVTED_clean_linker_0, # of connection points: 2
#     Edge 87, Type (0, 0), BuildingBlock: XIVTED_clean_linker_0, # of connection points: 2
#     Edge 88, Type (0, 0), BuildingBlock: XIVTED_clean_linker_0, # of connection points: 2
#     Edge 89, Type (0, 0), BuildingBlock: XIVTED_clean_linker_0, # of connection points: 2
#     Edge 90, Type (0, 0), BuildingBlock: XIVTED_clean_linker_0, # of connection points: 2
#     Edge 91, Type (0, 0), BuildingBlock: XIVTED_clean_linker_0, # of connection points: 2
#     Edge 92, Type (0, 0), BuildingBlock: XIVTED_clean_linker_0, # of connection points: 2
#     Edge 93, Type (0, 0), BuildingBlock: XIVTED_clean_linker_0, # of connection points: 2
#     Edge 94, Type (0, 0), BuildingBlock: XIVTED_clean_linker_0, # of connection points: 2
#     Edge 95, Type (0, 0), BuildingBlock: XIVTED_clean_linker_0, # of connection points: 2
#     Edge 96, Type (0, 0), BuildingBlock: XIVTED_clean_linker_0, # of connection points: 2
#     Edge 97, Type (0, 0), BuildingBlock: XIVTED_clean_linker_0, # of connection points: 2
#     Edge 98, Type (0, 0), BuildingBlock: XIVTED_clean_linker_0, # of connection points: 2
#     Edge 99, Type (0, 0), BuildingBlock: XIVTED_clean_linker_0, # of connection points: 2
#     Edge 100, Type (0, 0), BuildingBlock: XIVTED_clean_linker_0, # of connection points: 2
#     Edge 101, Type (0, 0), BuildingBlock: XIVTED_clean_linker_0, # of connection points: 2
#     Edge 102, Type (0, 0), BuildingBlock: XIVTED_clean_linker_0, # of connection points: 2
#     Edge 103, Type (0, 0), BuildingBlock: XIVTED_clean_linker_0, # of connection points: 2
#     Edge 104, Type (0, 0), BuildingBlock: XIVTED_clean_linker_0, # of connection points: 2
#     Edge 105, Type (0, 0), BuildingBlock: XIVTED_clean_linker_0, # of connection points: 2
#     Edge 106, Type (0, 0), BuildingBlock: XIVTED_clean_linker_0, # of connection points: 2
#     Edge 107, Type (0, 0), BuildingBlock: XIVTED_clean_linker_0, # of connection points: 2
#     Edge 108, Type (0, 0), BuildingBlock: XIVTED_clean_linker_0, # of connection points: 2
#     Edge 109, Type (0, 0), BuildingBlock: XIVTED_clean_linker_0, # of connection points: 2
#     Edge 110, Type (0, 0), BuildingBlock: XIVTED_clean_linker_0, # of connection points: 2
#     Edge 111, Type (0, 0), BuildingBlock: XIVTED_clean_linker_0, # of connection points: 2
#     Edge 112, Type (0, 0), BuildingBlock: XIVTED_clean_linker_0, # of connection points: 2
#     Edge 113, Type (0, 0), BuildingBlock: XIVTED_clean_linker_0, # of connection points: 2
#     Edge 114, Type (0, 0), BuildingBlock: XIVTED_clean_linker_0, # of connection points: 2
#     Edge 115, Type (0, 0), BuildingBlock: XIVTED_clean_linker_0, # of connection points: 2
#     Edge 116, Type (0, 0), BuildingBlock: XIVTED_clean_linker_0, # of connection points: 2
#     Edge 117, Type (0, 0), BuildingBlock: XIVTED_clean_linker_0, # of connection points: 2
#     Edge 118, Type (0, 0), BuildingBlock: XIVTED_clean_linker_0, # of connection points: 2
#     Edge 119, Type (0, 0), BuildingBlock: XIVTED_clean_linker_0, # of connection points: 2
#     Edge 120, Type (0, 0), BuildingBlock: XIVTED_clean_linker_0, # of connection points: 2
#     Edge 121, Type (0, 0), BuildingBlock: XIVTED_clean_linker_0, # of connection points: 2
#     Edge 122, Type (0, 0), BuildingBlock: XIVTED_clean_linker_0, # of connection points: 2
#     Edge 123, Type (0, 0), BuildingBlock: XIVTED_clean_linker_0, # of connection points: 2
#     Edge 124, Type (0, 0), BuildingBlock: XIVTED_clean_linker_0, # of connection points: 2
#     Edge 125, Type (0, 0), BuildingBlock: XIVTED_clean_linker_0, # of connection points: 2
#     Edge 126, Type (0, 0), BuildingBlock: XIVTED_clean_linker_0, # of connection points: 2
#     Edge 127, Type (0, 0), BuildingBlock: XIVTED_clean_linker_0, # of connection points: 2
# Relax obj value: 0.054
# Max RMSD: 0.123
# Mean RMSD: 0.123
data_MOF--net-som--node1-INOVEN_clean_sbu_0--edge1-XIVTED_clean_linker_0
_symmetry_space_group_name_H-M    P1
_symmetry_Int_Tables_number       1
_symmetry_cell_setting            triclinic
loop_
_symmetry_equiv_pos_as_xyz
'x, y, z'
_cell_length_a     25.922512
_cell_length_b     56.171703
_cell_length_c     110.79774
_cell_angle_alpha  89.998502
_cell_angle_beta   89.98522
_cell_angle_gamma 90.008755
loop_
_atom_site_label
_atom_site_type_symbol
_atom_site_fract_x
_atom_site_fract_y
_atom_site_fract_z
_atom_type_partial_charge
Gd0 Gd 1.00781 0.49749 0.0883 0.0
Gd1 Gd 0.11138 0.47235 0.08949 0.0
C2 C 1.01096 0.44005 0.09153 0.0
C3 C 0.915 0.51202 0.08355 0.0
C4 C 0.85996 0.5054 0.08487 0.0
C5 C 0.83827 0.49939 0.0961 0.0
C6 C 0.82779 0.5065 0.07471 0.0
C7 C 0.75255 0.49677 0.08699 0.0
C8 C 0.77482 0.50219 0.07573 0.0
C9 C 0.78513 0.49511 0.09714 0.0
C10 C 0.05299 0.49598 0.11038 0.0
C11 C 0.10515 0.52972 0.085 0.0
C12 C 0.20414 0.45862 0.09498 0.0
C13 C 0.25899 0.46586 0.09415 0.0
C14 C 0.2819 0.47221 0.08311 0.0
C15 C 0.28988 0.46484 0.10453 0.0
C16 C 0.3663 0.47531 0.09281 0.0
C17 C 0.34284 0.46954 0.10389 0.0
C18 C 0.33496 0.47689 0.08245 0.0
C19 C 0.06963 0.4743 0.06706 0.0
O20 O 0.98469 0.459 0.08811 0.0
O21 O 0.06067 0.44116 0.09419 0.0
O22 O 0.94042 0.51806 0.09329 0.0
O23 O 0.94269 0.49946 0.076 0.0
O24 O 0.02782 0.51425 0.1063 0.0
O25 O 0.05111 0.47922 0.10284 0.0
O26 O 0.13226 0.51191 0.08962 0.0
O27 O 0.05692 0.52699 0.08157 0.0
O28 O 0.18059 0.45271 0.08498 0.0
O29 O 0.17459 0.47059 0.10238 0.0
O30 O 0.09651 0.45654 0.0711 0.0
O31 O 0.06889 0.49072 0.07482 0.0
H32 H 0.86211 0.49842 0.10411 0.0
H33 H 0.84357 0.51108 0.06595 0.0
H34 H 0.75128 0.50318 0.06768 0.0
H35 H 0.76939 0.49117 0.10597 0.0
H36 H 0.25911 0.47311 0.07493 0.0
H37 H 0.27315 0.45998 0.11315 0.0
H38 H 0.36543 0.46857 0.11209 0.0
H39 H 0.35164 0.48106 0.07374 0.0
Gd40 Gd 0.29558 0.73275 0.07995 0.0
Gd41 Gd 0.18382 0.75713 0.08282 0.0
C42 C 0.28729 0.78988 0.08494 0.0
C43 C 0.38786 0.72048 0.07346 0.0
C44 C 0.44253 0.72729 0.075 0.0
C45 C 0.46142 0.73651 0.08593 0.0
C46 C 0.47684 0.72371 0.06539 0.0
C47 C 0.54885 0.73768 0.07767 0.0
C48 C 0.52936 0.72885 0.06669 0.0
C49 C 0.51412 0.74159 0.08726 0.0
C50 C 0.25138 0.73248 0.10216 0.0
C51 C 0.19773 0.70052 0.07761 0.0
C52 C 0.09668 0.77015 0.0921 0.0
C53 C 0.04075 0.76705 0.09023 0.0
C54 C 1.02055 0.75943 0.07913 0.0
C55 C 1.00704 0.77142 0.09986 0.0
C56 C 0.93312 0.76058 0.08739 0.0
C57 C 0.95385 0.76825 0.09847 0.0
C58 C 0.96718 0.75629 0.07771 0.0
C59 C 0.2085 0.75069 0.05904 0.0
O60 O 0.31625 0.77117 0.08232 0.0
O61 O 0.23631 0.7887 0.08619 0.0
O62 O 0.36407 0.71147 0.08285 0.0
O63 O 0.35886 0.73497 0.06716 0.0
O64 O 0.28057 0.71537 0.09817 0.0
O65 O 0.2498 0.74907 0.09455 0.0
O66 O 0.17119 0.71711 0.08347 0.0
O67 O 0.24359 0.70458 0.07287 0.0
O68 O 0.12183 0.78287 0.08408 0.0
O69 O 0.12204 0.75119 0.09562 0.0
O70 O 0.16567 0.76036 0.06264 0.0
O71 O 0.23404 0.74544 0.06829 0.0
H72 H 0.43559 0.73958 0.09346 0.0
H73 H 0.4631 0.71656 0.0569 0.0
H74 H 0.55489 0.72532 0.05916 0.0
H75 H 0.52762 0.74866 0.09578 0.0
H76 H 0.04603 0.75578 0.0716 0.0
H77 H 1.02191 0.7773 0.1085 0.0
H78 H 0.9289 0.77207 0.10607 0.0
H79 H 0.95272 0.75011 0.06909 0.0
Gd80 Gd 0.9832 0.72751 0.19877 0.0
Gd81 Gd 0.08787 0.75147 0.19845 0.0
C82 C 0.98918 0.78475 0.19641 0.0
C83 C 0.8901 0.71283 0.20295 0.0
C84 C 0.83537 0.72 0.20252 0.0
C85 C 0.8147 0.73269 0.19272 0.0
C86 C 0.8025 0.71264 0.21184 0.0
C87 C 0.72825 0.72931 0.20133 0.0
C88 C 0.74959 0.71727 0.21128 0.0
C89 C 0.76161 0.73731 0.19214 0.0
C90 C 0.03048 0.72976 0.17695 0.0
C91 C 0.07858 0.69373 0.20169 0.0
C92 C 0.18046 0.7655 0.19315 0.0
C93 C 0.2354 0.7589 0.19394 0.0
C94 C 0.25588 0.74717 0.20405 0.0
C95 C 0.2685 0.76567 0.18455 0.0
C96 C 0.34261 0.75023 0.19557 0.0
C97 C 0.32148 0.76138 0.18534 0.0
C98 C 0.30905 0.74285 0.20486 0.0
C99 C 0.04456 0.74879 0.22068 0.0
O100 O 0.96175 0.76608 0.19969 0.0
O101 O 0.03876 0.78308 0.19378 0.0
O102 O 0.91397 0.7097 0.19267 0.0
O103 O 0.91909 0.72285 0.21118 0.0
O104 O 1.00425 0.71148 0.18063 0.0
O105 O 0.0286 0.74608 0.18472 0.0
O106 O 0.10817 0.71192 0.19845 0.0
O107 O 0.02946 0.69646 0.20427 0.0
O108 O 0.15683 0.77105 0.2032 0.0
O109 O 0.15164 0.75317 0.18575 0.0
O110 O 0.07224 0.76654 0.21691 0.0
O111 O 0.0434 0.73272 0.21271 0.0
H112 H 0.83933 0.7386 0.18541 0.0
H113 H 0.81768 0.70288 0.2195 0.0
H114 H 0.72536 0.71128 0.21865 0.0
H115 H 0.74653 0.74649 0.18431 0.0
H116 H 0.23099 0.74174 0.21141 0.0
H117 H 0.25341 0.77466 0.17665 0.0
H118 H 0.34593 0.76687 0.17791 0.0
H119 H 0.32399 0.73435 0.2129 0.0
Gd120 Gd 0.3119 0.49528 0.20838 0.0
Gd121 Gd 0.20735 0.47108 0.20698 0.0
C122 C 0.30673 0.43835 0.20424 0.0
C123 C 0.40453 0.5093 0.21366 0.0
C124 C 0.45937 0.50238 0.21279 0.0
C125 C 0.47914 0.49028 0.2027 0.0
C126 C 0.49314 0.50918 0.22205 0.0
C127 C 0.56637 0.49289 0.21097 0.0
C128 C 0.54599 0.50448 0.22117 0.0
C129 C 0.53217 0.48563 0.20179 0.0
C130 C 0.268 0.49388 0.18613 0.0
C131 C 0.21617 0.52876 0.21036 0.0
C132 C 0.11467 0.45753 0.20133 0.0
C133 C 0.05966 0.46393 0.20251 0.0
C134 C 0.03988 0.47482 0.21295 0.0
C135 C 0.02584 0.45799 0.19312 0.0
C136 C 0.95255 0.47289 0.20467 0.0
C137 C 0.97295 0.46239 0.19417 0.0
C138 C 0.98679 0.47922 0.21402 0.0
C139 C 0.24765 0.47336 0.22956 0.0
O140 O 0.33339 0.45654 0.20846 0.0
O141 O 0.25745 0.44041 0.20134 0.0
O142 O 0.38083 0.51489 0.20363 0.0
O143 O 0.37551 0.49716 0.22112 0.0
O144 O 0.2945 0.51182 0.19012 0.0
O145 O 0.26846 0.47733 0.19378 0.0
O146 O 0.18818 0.5106 0.2064 0.0
O147 O 0.26412 0.52596 0.21396 0.0
O148 O 0.13883 0.45053 0.21106 0.0
O149 O 0.14311 0.47102 0.19438 0.0
O150 O 0.22095 0.45558 0.22548 0.0
O151 O 0.24949 0.48958 0.2217 0.0
H152 H 0.45376 0.48473 0.19546 0.0
H153 H 0.47873 0.51861 0.22989 0.0
H154 H 0.57108 0.5106 0.22835 0.0
H155 H 0.5464 0.47638 0.19389 0.0
H156 H 0.06532 0.47967 0.2203 0.0
H157 H 0.04028 0.44949 0.18501 0.0
H158 H 0.94788 0.45696 0.18685 0.0
H159 H 0.97259 0.48761 0.22217 0.0
Gd160 Gd 0.96579 0.50048 0.95594 0.0
Gd161 Gd 0.07039 0.47609 0.95659 0.0
C162 C 0.9744 0.44273 0.95911 0.0
C163 C 0.87304 0.51459 0.95074 0.0
C164 C 0.81805 0.50807 0.95165 0.0
C165 C 0.79854 0.49482 0.96138 0.0
C166 C 0.784 0.51628 0.94275 0.0
C167 C 0.71097 0.49887 0.95345 0.0
C168 C 0.73111 0.51176 0.94363 0.0
C169 C 0.74544 0.49029 0.96228 0.0
C170 C 1.00871 0.49816 0.97819 0.0
C171 C 0.06514 0.53321 0.95321 0.0
C172 C 0.16326 0.46142 0.96111 0.0
C173 C 0.21803 0.46851 0.96056 0.0
C174 C 0.23741 0.48301 0.95128 0.0
C175 C 0.25209 0.45948 0.96925 0.0
C176 C 0.32491 0.47839 0.95915 0.0
C177 C 0.3049 0.46437 0.96857 0.0
C178 C 0.29041 0.48786 0.95057 0.0
C179 C 1.02338 0.47794 0.9347 0.0
O180 O 0.94592 0.46101 0.9555 0.0
O181 O 1.02303 0.44532 0.96222 0.0
O182 O 0.897 0.52023 0.96072 0.0
O183 O 0.90157 0.50207 0.94336 0.0
O184 O 0.98152 0.51595 0.9743 0.0
O185 O 1.00976 0.48188 0.97033 0.0
O186 O 0.09217 0.51478 0.95702 0.0
O187 O 1.01562 0.53136 0.95052 0.0
O188 O 0.13953 0.4577 0.95086 0.0
O189 O 0.13427 0.47209 0.96912 0.0
O190 O 0.04959 0.45972 0.93847 0.0
O191 O 0.02551 0.49437 0.9424 0.0
H192 H 0.82421 0.48821 0.96833 0.0
H193 H 0.79828 0.52661 0.93519 0.0
H194 H 0.70586 0.51894 0.93675 0.0
H195 H 0.73142 0.48005 0.96988 0.0
H196 H 0.21175 0.49029 0.9445 0.0
H197 H 0.23794 0.44818 0.97645 0.0
H198 H 0.33024 0.45653 0.97525 0.0
H199 H 0.30438 0.49899 0.94329 0.0
Gd200 Gd 0.841 0.22091 0.94651 0.0
Gd201 Gd 0.73766 0.24538 0.94626 0.0
C202 C 0.83294 0.27838 0.95075 0.0
C203 C 0.93437 0.20674 0.94207 0.0
C204 C 0.98937 0.21267 0.94388 0.0
C205 C 1.02311 0.19465 0.94766 0.0
C206 C 1.00943 0.23532 0.94121 0.0
C207 C 0.09665 0.22139 0.94566 0.0
C208 C 0.06259 0.23962 0.94207 0.0
C209 C 0.07608 0.19894 0.94857 0.0
C210 C 0.79533 0.22287 0.96853 0.0
C211 C 0.7419 0.18828 0.94326 0.0
C212 C 0.64419 0.26059 0.94948 0.0
C213 C 0.58936 0.25437 0.9477 0.0
C214 C 0.55538 0.2721 0.94369 0.0
C215 C 0.56974 0.23173 0.95053 0.0
C216 C 0.48236 0.24507 0.94579 0.0
C217 C 0.5167 0.22714 0.9496 0.0
C218 C 0.50254 0.26753 0.94273 0.0
C219 C 0.7884 0.24425 0.92482 0.0
O220 O 0.86228 0.26037 0.94717 0.0
O221 O 0.78365 0.27551 0.95311 0.0
O222 O 0.90815 0.20002 0.95155 0.0
O223 O 0.90756 0.22009 0.9347 0.0
O224 O 0.82261 0.2051 0.96466 0.0
O225 O 0.79525 0.23927 0.96073 0.0
O226 O 0.71463 0.20701 0.9465 0.0
O227 O 0.79189 0.18974 0.94104 0.0
O228 O 0.67134 0.26533 0.93983 0.0
O229 O 0.6701 0.24868 0.95763 0.0
O230 O 0.76235 0.26243 0.92865 0.0
O231 O 0.78455 0.22736 0.93223 0.0
H232 H 1.00857 0.177 0.94967 0.0
H233 H 0.98422 0.24958 0.93829 0.0
H234 H 0.07703 0.2572 0.93992 0.0
H235 H 0.10109 0.18439 0.9512 0.0
H236 H 0.56963 0.28973 0.94153 0.0
H237 H 0.5952 0.21771 0.95362 0.0
H238 H 0.50259 0.20956 0.95188 0.0
H239 H 0.47732 0.28187 0.93992 0.0
Gd240 Gd 0.95122 0.22259 0.82966 0.0
Gd241 Gd 0.0559 0.24664 0.82811 0.0
C242 C 0.96073 0.28037 0.82615 0.0
C243 C 0.85887 0.2094 0.83578 0.0
C244 C 0.80382 0.21563 0.83443 0.0
C245 C 0.78343 0.22406 0.82349 0.0
C246 C 0.77057 0.21199 0.84424 0.0
C247 C 0.69666 0.22428 0.83213 0.0
C248 C 0.71765 0.21626 0.84312 0.0
C249 C 0.73033 0.22831 0.82235 0.0
C250 C 0.98994 0.22474 0.80698 0.0
C251 C 0.05103 0.18975 0.83183 0.0
C252 C 0.1488 0.26056 0.82302 0.0
C253 C 0.20355 0.25349 0.82402 0.0
C254 C 0.2239 0.2436 0.83465 0.0
C255 C 0.23675 0.25803 0.81429 0.0
C256 C 0.31051 0.24399 0.82594 0.0
C257 C 0.28958 0.25331 0.81522 0.0
C258 C 0.27689 0.23895 0.83561 0.0
C259 C 1.01244 0.24457 0.85045 0.0
O260 O 0.9325 0.26231 0.83017 0.0
O261 O 1.00848 0.27732 0.82246 0.0
O262 O 0.88306 0.20133 0.82626 0.0
O263 O 0.88723 0.22368 0.84233 0.0
O264 O 0.96204 0.20736 0.81105 0.0
O265 O 0.99321 0.24096 0.81485 0.0
O266 O 0.07705 0.20798 0.82747 0.0
O267 O 1.00206 0.1918 0.83506 0.0
O268 O 0.12462 0.26628 0.83297 0.0
O269 O 0.11999 0.2485 0.81549 0.0
O270 O 0.03829 0.26275 0.84651 0.0
O271 O 1.01312 0.22832 0.84267 0.0
H272 H 0.80839 0.22712 0.8158 0.0
H273 H 0.78548 0.2054 0.85274 0.0
H274 H 0.69301 0.21264 0.8508 0.0
H275 H 0.71566 0.23479 0.81381 0.0
H276 H 0.19905 0.2398 0.84227 0.0
H277 H 0.22193 0.26575 0.80603 0.0
H278 H 0.31424 0.25768 0.80765 0.0
H279 H 0.29156 0.23146 0.84393 0.0
Gd280 Gd 0.85396 0.50486 0.84124 0.0
Gd281 Gd 0.74266 0.48068 0.83995 0.0
C282 C 0.83942 0.4483 0.83505 0.0
C283 C 0.94156 0.51841 0.85003 0.0
C284 C 0.99719 0.5161 0.84772 0.0
C285 C 1.01589 0.50416 0.83749 0.0
C286 C 0.03217 0.52562 0.85605 0.0
C287 C 0.10456 0.5113 0.84402 0.0
C288 C 0.0853 0.52327 0.85423 0.0
C289 C 0.06915 0.50178 0.83566 0.0
C290 C 0.82459 0.50015 0.81781 0.0
C291 C 0.75163 0.5379 0.84324 0.0
C292 C 0.64881 0.46701 0.83593 0.0
C293 C 0.59485 0.47542 0.83569 0.0
C294 C 0.57426 0.4897 0.84492 0.0
C295 C 0.56229 0.46745 0.82643 0.0
C296 C 0.48833 0.4864 0.83605 0.0
C297 C 0.50969 0.47291 0.82658 0.0
C298 C 0.52148 0.49513 0.8451 0.0
C299 C 0.79432 0.47941 0.86125 0.0
O300 O 0.86946 0.46502 0.83985 0.0
O301 O 0.79062 0.45199 0.83231 0.0
O302 O 0.91495 0.53113 0.84229 0.0
O303 O 0.91769 0.49897 0.85347 0.0
O304 O 0.8682 0.50945 0.82116 0.0
O305 O 0.79991 0.49417 0.82714 0.0
O306 O 0.72231 0.51919 0.84097 0.0
O307 O 0.80247 0.53664 0.84453 0.0
O308 O 0.67133 0.46551 0.84648 0.0
O309 O 0.67964 0.47458 0.82739 0.0
O310 O 0.76664 0.46182 0.85723 0.0
O311 O 0.79199 0.49659 0.85399 0.0
H312 H 0.98933 0.49666 0.83097 0.0
H313 H 1.01836 0.53474 0.86404 0.0
H314 H 0.11126 0.53046 0.86097 0.0
H315 H 0.08257 0.49267 0.82764 0.0
H316 H 0.59861 0.49613 0.85217 0.0
H317 H 0.57737 0.45647 0.81921 0.0
H318 H 0.48563 0.46631 0.81933 0.0
H319 H 0.50641 0.50545 0.85257 0.0
Gd320 Gd 0.9862 -0.00064 0.59142 0.0
Gd321 Gd 0.09023 0.9755 0.59171 0.0
C322 C 0.99172 0.94225 0.59446 0.0
C323 C 0.89266 0.01363 0.5875 0.0
C324 C 0.83809 0.00616 0.58834 0.0
C325 C 0.81493 0.00051 0.59946 0.0
C326 C 0.80758 0.00647 0.57789 0.0
C327 C 0.73101 -0.00317 0.58966 0.0
C328 C 0.75472 0.00179 0.57852 0.0
C329 C 0.76192 -0.00413 0.6001 0.0
C330 C 0.03488 -0.00149 0.6131 0.0
C331 C 0.08088 0.03299 0.5872 0.0
C332 C 0.1832 0.96208 0.59695 0.0
C333 C 0.23791 0.96913 0.59597 0.0
C334 C 0.26099 0.97432 0.58479 0.0
C335 C 0.26851 0.96904 0.6064 0.0
C336 C 0.34509 0.97797 0.5945 0.0
C337 C 0.32145 0.97346 0.60569 0.0
C338 C 0.31408 0.97871 0.58407 0.0
C339 C 0.04565 0.97648 0.56961 0.0
O340 O 0.96422 0.96084 0.59113 0.0
O341 O 0.04154 0.94395 0.59684 0.0
O342 O 0.91763 0.01771 0.59755 0.0
O343 O 0.92107 0.00321 0.57928 0.0
O344 O 1.00897 0.01665 0.60914 0.0
O345 O 0.03222 0.98166 0.60564 0.0
O346 O 0.11083 0.0151 0.5907 0.0
O347 O 0.03157 0.02993 0.58497 0.0
O348 O 0.15918 0.95582 0.58706 0.0
O349 O 0.15425 0.97443 0.60432 0.0
O350 O 0.07333 0.95897 0.57365 0.0
O351 O 0.04505 -0.00683 0.57725 0.0
H352 H 0.83741 0.00021 0.60769 0.0
H353 H 0.8245 0.01083 0.56922 0.0
H354 H 0.73234 0.00224 0.57028 0.0
H355 H 0.7449 -0.00768 0.60885 0.0
H356 H 0.23832 0.97447 0.57658 0.0
H357 H 0.25155 0.96509 0.61512 0.0
H358 H 0.34394 0.9732 0.61393 0.0
H359 H 0.33104 0.98193 0.57529 0.0
Gd360 Gd 0.30867 0.2309 0.57923 0.0
Gd361 Gd 0.19749 0.25567 0.58061 0.0
C362 C 0.30052 0.28799 0.5836 0.0
C363 C 0.40205 0.21692 0.57473 0.0
C364 C 0.45609 0.2251 0.57474 0.0
C365 C 0.4927 0.21225 0.56811 0.0
C366 C 0.47221 0.24466 0.58167 0.0
C367 C 0.5617 0.23777 0.57563 0.0
C368 C 0.52456 0.25095 0.5821 0.0
C369 C 0.5449 0.21847 0.56854 0.0
C370 C 0.25786 0.22998 0.60066 0.0
C371 C 0.21098 0.19866 0.57564 0.0
C372 C 0.1092 0.2696 0.58887 0.0
C373 C 0.05363 0.26756 0.58625 0.0
C374 C 1.01934 0.2837 0.5916 0.0
C375 C 0.03408 0.24929 0.57892 0.0
C376 C 0.94601 0.2629 0.5827 0.0
C377 C 0.98074 0.24699 0.57715 0.0
C378 C 0.96613 0.28142 0.58985 0.0
C379 C 0.22708 0.25026 0.55714 0.0
O380 O 0.32959 0.26945 0.58078 0.0
O381 O 0.24969 0.28667 0.58488 0.0
O382 O 0.37971 0.21461 0.58526 0.0
O383 O 0.37144 0.22583 0.56648 0.0
O384 O 0.28621 0.21252 0.59675 0.0
O385 O 0.25958 0.24704 0.59331 0.0
O386 O 0.18234 0.21592 0.58038 0.0
O387 O 0.25917 0.20193 0.57219 0.0
O388 O 0.13698 0.28234 0.58137 0.0
O389 O 0.1324 0.25007 0.59245 0.0
O390 O 0.18383 0.25994 0.56043 0.0
O391 O 0.25119 0.24439 0.56655 0.0
H392 H 0.48103 0.19701 0.56276 0.0
H393 H 0.44449 0.25481 0.58686 0.0
H394 H 0.53592 0.26609 0.58753 0.0
H395 H 0.57225 0.20767 0.56358 0.0
H396 H 0.03372 0.29795 0.59727 0.0
H397 H 0.05998 0.2366 0.57473 0.0
H398 H 0.96667 0.23239 0.57168 0.0
H399 H 0.94074 0.29423 0.5941 0.0
Gd400 Gd 0.9834 0.22604 0.69647 0.0
Gd401 Gd 0.09428 0.25053 0.69516 0.0
C402 C 0.99169 0.28345 0.69359 0.0
C403 C 0.88953 0.21265 0.70072 0.0
C404 C 0.83554 0.22117 0.7006 0.0
C405 C 0.81405 0.23249 0.69047 0.0
C406 C 0.80382 0.21625 0.71055 0.0
C407 C 0.72904 0.23234 0.69998 0.0
C408 C 0.75125 0.22182 0.71027 0.0
C409 C 0.76133 0.23801 0.69016 0.0
C410 C 0.03414 0.22555 0.67504 0.0
C411 C 0.0806 0.19397 0.70164 0.0
C412 C 0.18167 0.264 0.68621 0.0
C413 C 0.23744 0.26141 0.68833 0.0
C414 C 0.25678 0.25265 0.69929 0.0
C415 C 0.27191 0.26762 0.67912 0.0
C416 C 0.34501 0.25659 0.69179 0.0
C417 C 0.32511 0.26525 0.68081 0.0
C418 C 0.31012 0.25028 0.70101 0.0
C419 C 0.06516 0.24573 0.71857 0.0
O420 O 0.96259 0.26451 0.6955 0.0
O421 O 0.0426 0.28244 0.69236 0.0
O422 O 0.91253 0.20985 0.69029 0.0
O423 O 0.92007 0.22116 0.70909 0.0
O424 O 1.00678 0.20778 0.67897 0.0
O425 O 0.03205 0.24251 0.68244 0.0
O426 O 0.11057 0.21074 0.69685 0.0
O427 O 0.03152 0.19748 0.70416 0.0
O428 O 0.15564 0.27658 0.69412 0.0
O429 O 0.15724 0.24479 0.68266 0.0
O430 O 0.10849 0.25532 0.71521 0.0
O431 O 0.04059 0.23953 0.70926 0.0
H432 H 0.83762 0.23653 0.68266 0.0
H433 H 0.81952 0.20757 0.71847 0.0
H434 H 0.72791 0.21764 0.71809 0.0
H435 H 0.74561 0.24594 0.68205 0.0
H436 H 0.23067 0.2477 0.70651 0.0
H437 H 0.25763 0.27423 0.67056 0.0
H438 H 0.35062 0.26988 0.67343 0.0
H439 H 0.32403 0.24376 0.70961 0.0
Gd440 Gd 0.31012 -0.00422 0.70874 0.0
Gd441 Gd 0.19907 0.9709 0.70728 0.0
C442 C 0.30254 0.9385 0.70492 0.0
C443 C 0.40328 0.00982 0.71347 0.0
C444 C 0.45754 0.00195 0.71316 0.0
C445 C 0.47381 0.98289 0.70591 0.0
C446 C 0.49415 0.01457 0.71992 0.0
C447 C 0.56338 -0.01026 0.71192 0.0
C448 C 0.54644 0.00857 0.71931 0.0
C449 C 0.52627 0.97683 0.7053 0.0
C450 C 0.26064 -0.00435 0.68714 0.0
C451 C 0.21228 0.02808 0.71197 0.0
C452 C 0.11113 0.95685 0.69886 0.0
C453 C 0.05545 0.95921 0.7013 0.0
C454 C 0.03614 0.97716 0.70886 0.0
C455 C 1.02088 0.94371 0.69558 0.0
C456 C 0.94779 0.96443 0.70464 0.0
C457 C 0.96766 0.94626 0.69723 0.0
C458 C 0.98278 0.97973 0.71054 0.0
C459 C 0.22728 0.97715 0.73077 0.0
O460 O 0.33139 0.95729 0.70741 0.0
O461 O 0.25163 0.93959 0.70365 0.0
O462 O 0.38059 0.01311 0.70305 0.0
O463 O 0.37313 -0.00013 0.7215 0.0
O464 O 0.28879 0.01329 0.69091 0.0
O465 O 0.26193 0.97896 0.6947 0.0
O466 O 0.18379 0.01073 0.70726 0.0
O467 O 0.2603 0.02483 0.71554 0.0
O468 O 0.13827 0.94437 0.7066 0.0
O469 O 0.13485 0.97614 0.69515 0.0
O470 O 0.18426 0.96731 0.72744 0.0
O471 O 0.25191 0.98277 0.72139 0.0
H472 H 0.44609 0.97291 0.70063 0.0
H473 H 0.48238 0.02943 0.72552 0.0
H474 H 0.57374 0.01917 0.72439 0.0
H475 H 0.53773 0.96204 0.69963 0.0
H476 H 0.06226 -0.01063 0.71333 0.0
H477 H 0.03507 0.92972 0.68972 0.0
H478 H 0.94206 0.9339 0.69271 0.0
H479 H 0.96894 -0.00594 0.71622 0.0
Gd480 Gd 0.95626 0.0039 0.45787 0.0
Gd481 Gd 0.06016 0.97933 0.45931 0.0
C482 C 0.96415 0.94615 0.46155 0.0
C483 C 0.86369 0.01747 0.45215 0.0
C484 C 0.80857 0.0112 0.45345 0.0
C485 C 0.78759 0.00353 0.46448 0.0
C486 C 0.77578 0.01415 0.4435 0.0
C487 C 0.70117 0.00295 0.45566 0.0
C488 C 0.72275 0.01006 0.44457 0.0
C489 C 0.73439 -0.00057 0.46557 0.0
C490 C 0.99632 0.00208 0.48044 0.0
C491 C 0.05627 0.03621 0.45518 0.0
C492 C 0.15302 0.9652 0.46429 0.0
C493 C 0.20785 0.97237 0.46349 0.0
C494 C 0.2294 0.98149 0.45281 0.0
C495 C 0.23999 0.96863 0.4735 0.0
C496 C 0.31509 0.9818 0.46202 0.0
C497 C 0.2929 0.97332 0.47279 0.0
C498 C 0.28247 0.98614 0.45208 0.0
C499 C 1.01565 0.9808 0.4371 0.0
O500 O 0.93637 0.96438 0.45758 0.0
O501 O 1.01229 0.94882 0.46504 0.0
O502 O 0.88818 0.02491 0.46175 0.0
O503 O 0.89189 0.00368 0.4453 0.0
O504 O 0.96992 0.01982 0.47622 0.0
O505 O 0.9982 0.98557 0.47272 0.0
O506 O 0.08218 0.01797 0.45957 0.0
O507 O 1.00713 0.03429 0.45211 0.0
O508 O 0.1291 0.96006 0.45422 0.0
O509 O 0.12391 0.97669 0.47199 0.0
O510 O 0.04116 0.96261 0.44114 0.0
O511 O 1.01718 -0.00263 0.44471 0.0
H512 H 0.81208 0.0011 0.4723 0.0
H513 H 0.79115 0.01998 0.4349 0.0
H514 H 0.69865 0.01251 0.43669 0.0
H515 H 0.71915 -0.00587 0.47426 0.0
H516 H 0.20549 0.98456 0.44494 0.0
H517 H 0.22424 0.96166 0.48184 0.0
H518 H 0.31646 0.97021 0.4807 0.0
H519 H 0.29812 -0.00752 0.44361 0.0
Gd520 Gd 0.84091 0.72218 0.44999 0.0
Gd521 Gd 0.73752 0.74652 0.44938 0.0
C522 C 0.83271 0.77983 0.45349 0.0
C523 C 0.93424 0.7077 0.44579 0.0
C524 C 0.98921 0.71386 0.44736 0.0
C525 C 1.02364 0.69592 0.45089 0.0
C526 C 1.00848 0.73668 0.44476 0.0
C527 C 0.09634 0.7231 0.44878 0.0
C528 C 0.06159 0.74124 0.44545 0.0
C529 C 0.07655 0.70046 0.45161 0.0
C530 C 0.79449 0.72472 0.47187 0.0
C531 C 0.74203 0.6893 0.44705 0.0
C532 C 0.64405 0.76191 0.45237 0.0
C533 C 0.58921 0.75555 0.4508 0.0
C534 C 0.55472 0.77321 0.44696 0.0
C535 C 0.57015 0.73282 0.45364 0.0
C536 C 0.48226 0.74594 0.44927 0.0
C537 C 0.51713 0.72807 0.4529 0.0
C538 C 0.50189 0.76849 0.4462 0.0
C539 C 0.78834 0.74417 0.42797 0.0
O540 O 0.86219 0.76164 0.4502 0.0
O541 O 0.78335 0.77707 0.4558 0.0
O542 O 0.90833 0.70191 0.45547 0.0
O543 O 0.90721 0.72033 0.43814 0.0
O544 O 0.82183 0.70683 0.46817 0.0
O545 O 0.79473 0.74099 0.46399 0.0
O546 O 0.71461 0.70811 0.4501 0.0
O547 O 0.792 0.69077 0.44481 0.0
O548 O 0.67097 0.76585 0.4426 0.0
O549 O 0.67011 0.75064 0.46073 0.0
O550 O 0.76246 0.76261 0.43153 0.0
O551 O 0.78444 0.72775 0.43564 0.0
H552 H 1.00966 0.67815 0.45285 0.0
H553 H 0.98267 0.75087 0.44204 0.0
H554 H 0.07544 0.75895 0.44335 0.0
H555 H 0.10209 0.68599 0.45405 0.0
H556 H 0.56858 0.79091 0.4448 0.0
H557 H 0.59604 0.71886 0.45661 0.0
H558 H 0.50345 0.71041 0.45518 0.0
H559 H 0.47628 0.78278 0.44354 0.0
Gd560 Gd 0.95321 0.71935 0.33219 0.0
Gd561 Gd 0.05708 0.74376 0.33135 0.0
C562 C 0.96126 0.7769 0.32866 0.0
C563 C 0.86002 0.7055 0.33713 0.0
C564 C 0.80508 0.71126 0.33508 0.0
C565 C 0.77063 0.69265 0.33258 0.0
C566 C 0.78587 0.73454 0.33624 0.0
C567 C 0.69802 0.72023 0.33285 0.0
C568 C 0.73283 0.73897 0.33515 0.0
C569 C 0.71776 0.69706 0.33146 0.0
C570 C 0.99527 0.72166 0.30977 0.0
C571 C 0.05257 0.6869 0.33561 0.0
C572 C 0.14987 0.75855 0.3268 0.0
C573 C 0.20498 0.7527 0.32845 0.0
C574 C 0.23948 0.77112 0.33123 0.0
C575 C 0.22422 0.72956 0.32675 0.0
C576 C 0.31216 0.74364 0.33027 0.0
C577 C 0.27732 0.72508 0.32765 0.0
C578 C 0.29239 0.76668 0.33213 0.0
C579 C 1.01069 0.74263 0.35335 0.0
O580 O 0.93329 0.7588 0.33268 0.0
O581 O 1.00927 0.77398 0.32513 0.0
O582 O 0.88635 0.69756 0.32791 0.0
O583 O 0.88672 0.71985 0.34402 0.0
O584 O 0.96848 0.70386 0.31376 0.0
O585 O 0.99647 0.73792 0.31762 0.0
O586 O 0.07944 0.70512 0.33149 0.0
O587 O 1.00305 0.68891 0.33826 0.0
O588 O 0.12396 0.7648 0.33642 0.0
O589 O 0.12302 0.7453 0.31937 0.0
O590 O 0.03719 0.76058 0.34938 0.0
O591 O 1.01248 0.72589 0.34582 0.0
H592 H 0.78454 0.67454 0.33174 0.0
H593 H 0.81166 0.74924 0.33814 0.0
H594 H 0.71908 0.75707 0.33612 0.0
H595 H 0.69219 0.68215 0.32986 0.0
H596 H 0.22553 0.78914 0.33248 0.0
H597 H 0.19837 0.71502 0.3246 0.0
H598 H 0.29105 0.70707 0.32631 0.0
H599 H 0.31795 0.78149 0.33398 0.0
Gd600 Gd 0.84587 0.00153 0.34154 0.0
Gd601 Gd 0.7411 0.97773 0.34143 0.0
C602 C 0.83608 0.94384 0.33805 0.0
C603 C 0.93869 0.01542 0.34671 0.0
C604 C 0.99349 0.00858 0.34596 0.0
C605 C 1.01369 -0.00363 0.33597 0.0
C606 C 0.02675 0.01562 0.35527 0.0
C607 C 0.10047 -0.00065 0.34441 0.0
C608 C 0.07963 0.01106 0.35452 0.0
C609 C 0.06676 -0.00817 0.33519 0.0
C610 C 0.80175 -0.00073 0.31942 0.0
C611 C 0.7474 0.03496 0.34377 0.0
C612 C 0.64777 0.9631 0.33751 0.0
C613 C 0.59321 0.97049 0.33801 0.0
C614 C 0.57336 0.98387 0.34766 0.0
C615 C 0.5597 0.9627 0.3289 0.0
C616 C 0.48648 0.98047 0.33933 0.0
C617 C 0.50695 0.96765 0.32953 0.0
C618 C 0.52042 -0.01123 0.34832 0.0
C619 C 0.78981 0.97936 0.36309 0.0
O620 O 0.866 0.96193 0.3413 0.0
O621 O 0.78686 0.94673 0.33563 0.0
O622 O 0.91515 0.02071 0.33662 0.0
O623 O 0.90968 0.00343 0.35421 0.0
O624 O 0.82979 0.0169 0.32318 0.0
O625 O 0.80054 0.98308 0.32733 0.0
O626 O 0.71974 0.01628 0.34062 0.0
O627 O 0.79715 0.0333 0.34623 0.0
O628 O 0.67192 0.96021 0.34777 0.0
O629 O 0.6766 0.97282 0.32916 0.0
O630 O 0.76335 0.9612 0.35935 0.0
O631 O 0.78735 -0.00408 0.35544 0.0
H632 H 0.98863 -0.00934 0.3287 0.0
H633 H 1.01191 0.02514 0.36304 0.0
H634 H 0.10437 0.01739 0.36171 0.0
H635 H 0.0814 0.98248 0.32736 0.0
H636 H 0.59855 -0.0098 0.35477 0.0
H637 H 0.57422 0.95227 0.3214 0.0
H638 H 0.48197 0.96074 0.32252 0.0
H639 H 0.50602 -0.00104 0.3559 0.0
Gd640 Gd 0.48389 0.49892 0.5919 0.0
Gd641 Gd 0.58714 0.47448 0.59148 0.0
C642 C 0.48813 0.44173 0.59447 0.0
C643 C 0.39052 0.51433 0.58881 0.0
C644 C 0.33561 0.50811 0.59044 0.0
C645 C 0.30191 0.52552 0.59491 0.0
C646 C 0.31563 0.48587 0.58699 0.0
C647 C 0.22838 0.49914 0.59191 0.0
C648 C 0.26248 0.48143 0.58773 0.0
C649 C 0.24896 0.52111 0.59566 0.0
C650 C 0.5345 0.4973 0.61333 0.0
C651 C 0.57918 0.53203 0.58759 0.0
C652 C 0.68041 0.45993 0.59568 0.0
C653 C 0.73545 0.46606 0.59416 0.0
C654 C 0.76928 0.44853 0.58986 0.0
C655 C 0.75543 0.48832 0.59758 0.0
C656 C 0.84281 0.47488 0.59291 0.0
C657 C 0.80863 0.49269 0.59695 0.0
C658 C 0.82228 0.45288 0.58921 0.0
C659 C 0.54051 0.47649 0.5696 0.0
O660 O 0.46084 0.46054 0.59136 0.0
O661 O 0.53806 0.44318 0.59675 0.0
O662 O 0.41747 0.51851 0.59856 0.0
O663 O 0.41656 0.50286 0.58052 0.0
O664 O 0.50864 0.51561 0.60959 0.0
O665 O 0.53082 0.48058 0.60582 0.0
O666 O 0.60852 0.51394 0.59108 0.0
O667 O 0.52992 0.52918 0.58521 0.0
O668 O 0.65461 0.45429 0.58597 0.0
O669 O 0.65327 0.47241 0.60338 0.0
O670 O 0.56763 0.45863 0.57342 0.0
O671 O 0.54121 0.49296 0.57736 0.0
H672 H 0.31649 0.54279 0.59763 0.0
H673 H 0.34084 0.47212 0.5835 0.0
H674 H 0.24799 0.46437 0.58469 0.0
H675 H 0.2241 0.53499 0.59915 0.0
H676 H 0.75474 0.43124 0.58717 0.0
H677 H 0.73017 0.50217 0.60095 0.0
H678 H 0.82308 0.50978 0.59996 0.0
H679 H 0.8472 0.43892 0.58583 0.0
Gd680 Gd 0.80521 0.73214 0.58197 0.0
Gd681 Gd 0.70082 0.75634 0.58317 0.0
C682 C 0.80018 0.78909 0.58609 0.0
C683 C 0.89788 0.71798 0.57687 0.0
C684 C 0.95274 0.72498 0.57756 0.0
C685 C 0.97362 0.73601 0.58784 0.0
C686 C 0.98546 0.71923 0.56792 0.0
C687 C 0.05994 0.73421 0.57901 0.0
C688 C 0.03839 0.72381 0.56861 0.0
C689 C 0.02673 0.74057 0.58856 0.0
C690 C 0.76019 0.73329 0.6041 0.0
C691 C 0.7095 0.69862 0.57977 0.0
C692 C 0.60809 0.77 0.58868 0.0
C693 C 0.55305 0.76364 0.58751 0.0
C694 C 0.53264 0.75391 0.57686 0.0
C695 C 0.51978 0.76858 0.59717 0.0
C696 C 0.44576 0.75526 0.5854 0.0
C697 C 0.46679 0.76444 0.59614 0.0
C698 C 0.47947 0.74973 0.57582 0.0
C699 C 0.74202 0.75423 0.56067 0.0
O700 O 0.827 0.77086 0.58197 0.0
O701 O 0.75075 0.78707 0.58885 0.0
O702 O 0.8743 0.71294 0.587 0.0
O703 O 0.86872 0.72959 0.56923 0.0
O704 O 0.78663 0.71534 0.6001 0.0
O705 O 0.76121 0.74996 0.59651 0.0
O706 O 0.68124 0.7168 0.58359 0.0
O707 O 0.75772 0.7014 0.57636 0.0
O708 O 0.63241 0.77682 0.57893 0.0
O709 O 0.63638 0.75666 0.59573 0.0
O710 O 0.71535 0.77202 0.56475 0.0
O711 O 0.74345 0.73792 0.5685 0.0
H712 H 0.94913 0.74066 0.59541 0.0
H713 H 0.97014 0.71078 0.55989 0.0
H714 H 0.06246 0.71911 0.56099 0.0
H715 H 0.04192 0.74845 0.59674 0.0
H716 H 0.5576 0.74991 0.56928 0.0
H717 H 0.53476 0.77602 0.60549 0.0
H718 H 0.44227 0.76846 0.60379 0.0
H719 H 0.46463 0.74279 0.56739 0.0
Gd720 Gd 0.48982 0.72753 0.70044 0.0
Gd721 Gd 0.59394 0.75171 0.69988 0.0
C722 C 0.4946 0.78474 0.69779 0.0
C723 C 0.39661 0.71289 0.70459 0.0
C724 C 0.34184 0.72007 0.70405 0.0
C725 C 0.32098 0.73187 0.69399 0.0
C726 C 0.30908 0.71361 0.71357 0.0
C727 C 0.23465 0.72937 0.70276 0.0
C728 C 0.25616 0.71823 0.71296 0.0
C729 C 0.26788 0.73647 0.69335 0.0
C730 C 0.53699 0.72926 0.67857 0.0
C731 C 0.5853 0.69397 0.70384 0.0
C732 C 0.68655 0.76561 0.69444 0.0
C733 C 0.7415 0.75895 0.69527 0.0
C734 C 0.76224 0.74803 0.70559 0.0
C735 C 0.7744 0.76488 0.68569 0.0
C736 C 0.84878 0.75026 0.69692 0.0
C737 C 0.8274 0.76058 0.68648 0.0
C738 C 0.81541 0.74372 0.7064 0.0
C739 C 0.5509 0.74997 0.72213 0.0
O740 O 0.46771 0.76601 0.7012 0.0
O741 O 0.5442 0.7832 0.6951 0.0
O742 O 0.42076 0.70951 0.69437 0.0
O743 O 0.42543 0.72307 0.7128 0.0
O744 O 0.5114 0.71096 0.68246 0.0
O745 O 0.53478 0.74583 0.6862 0.0
O746 O 0.61466 0.7121 0.70036 0.0
O747 O 0.53613 0.69677 0.70636 0.0
O748 O 0.66295 0.77144 0.70445 0.0
O749 O 0.65759 0.75315 0.68712 0.0
O750 O 0.57823 0.76762 0.71812 0.0
O751 O 0.54985 0.73348 0.71437 0.0
H752 H 0.34546 0.73707 0.68651 0.0
H753 H 0.32436 0.70454 0.72143 0.0
H754 H 0.23206 0.71295 0.72048 0.0
H755 H 0.2527 0.74494 0.68532 0.0
H756 H 0.73756 0.74327 0.7131 0.0
H757 H 0.75915 0.77324 0.67763 0.0
H758 H 0.85166 0.76541 0.67891 0.0
H759 H 0.83053 0.73588 0.7146 0.0
Gd760 Gd 0.81132 0.49474 0.70869 0.0
Gd761 Gd 0.70058 0.46951 0.7071 0.0
C762 C 0.80449 0.43747 0.7048 0.0
C763 C 0.90453 0.50885 0.71335 0.0
C764 C 0.95876 0.50084 0.71318 0.0
C765 C 0.97492 0.48139 0.70618 0.0
C766 C 0.99548 0.51375 0.71976 0.0
C767 C 0.06461 0.48848 0.71205 0.0
C768 C 0.04777 0.50769 0.7192 0.0
C769 C 0.02736 0.47526 0.70562 0.0
C770 C 0.76218 0.49444 0.68703 0.0
C771 C 0.71307 0.52677 0.71178 0.0
C772 C 0.61256 0.45546 0.6987 0.0
C773 C 0.55688 0.45781 0.7012 0.0
C774 C 0.53758 0.47605 0.70859 0.0
C775 C 0.52226 0.442 0.69571 0.0
C776 C 0.44918 0.46301 0.70464 0.0
C777 C 0.46904 0.44454 0.69741 0.0
C778 C 0.48423 0.47861 0.71031 0.0
C779 C 0.72836 0.47573 0.73062 0.0
O780 O 0.83282 0.45627 0.70757 0.0
O781 O 0.75369 0.43847 0.70328 0.0
O782 O 0.88204 0.51168 0.70287 0.0
O783 O 0.87409 0.49939 0.72148 0.0
O784 O 0.78993 0.51219 0.69084 0.0
O785 O 0.7636 0.47777 0.69461 0.0
O786 O 0.68498 0.5093 0.70705 0.0
O787 O 0.7611 0.52373 0.7154 0.0
O788 O 0.63987 0.44291 0.70638 0.0
O789 O 0.63624 0.47477 0.695 0.0
O790 O 0.68562 0.46572 0.72724 0.0
O791 O 0.75307 0.48148 0.72127 0.0
H792 H 0.94713 0.47117 0.70104 0.0
H793 H 0.98382 0.52891 0.72516 0.0
H794 H 0.07514 0.51853 0.72413 0.0
H795 H 0.03871 0.46018 0.70014 0.0
H796 H 0.5637 0.4885 0.71289 0.0
H797 H 0.5364 0.42779 0.68999 0.0
H798 H 0.44343 0.43195 0.69306 0.0
H799 H 0.47043 0.49317 0.71584 0.0
Gd800 Gd 0.4526 0.5025 0.45761 0.0
Gd801 Gd 0.55742 0.47896 0.45924 0.0
C802 C 0.46271 0.44485 0.4611 0.0
C803 C 0.36013 0.51551 0.45156 0.0
C804 C 0.30515 0.50918 0.45287 0.0
C805 C 0.28424 0.5016 0.46392 0.0
C806 C 0.27241 0.512 0.4429 0.0
C807 C 0.1979 0.50096 0.4551 0.0
C808 C 0.21942 0.50793 0.44399 0.0
C809 C 0.23108 0.49752 0.46502 0.0
C810 C 0.49132 0.50052 0.48031 0.0
C811 C 0.55128 0.53587 0.45529 0.0
C812 C 0.65013 0.46526 0.46458 0.0
C813 C 0.70492 0.47226 0.46366 0.0
C814 C 0.72626 0.48103 0.45288 0.0
C815 C 0.73721 0.46868 0.47364 0.0
C816 C 0.81211 0.48129 0.46197 0.0
C817 C 0.79013 0.47318 0.47283 0.0
C818 C 0.77935 0.4855 0.45205 0.0
C819 C 0.51434 0.48047 0.43688 0.0
O820 O 0.43423 0.4628 0.45708 0.0
O821 O 0.51036 0.44807 0.46482 0.0
O822 O 0.38418 0.52347 0.46112 0.0
O823 O 0.38866 0.50144 0.44494 0.0
O824 O 0.46398 0.518 0.47615 0.0
O825 O 0.4945 0.48427 0.47248 0.0
O826 O 0.57816 0.51777 0.45953 0.0
O827 O 0.50229 0.53352 0.45219 0.0
O828 O 0.62636 0.45928 0.45461 0.0
O829 O 0.62105 0.47751 0.47198 0.0
O830 O 0.54062 0.46249 0.4409 0.0
O831 O 0.51453 0.49687 0.44458 0.0
H832 H 0.30876 0.49927 0.47174 0.0
H833 H 0.28778 0.51776 0.43429 0.0
H834 H 0.19529 0.5103 0.4361 0.0
H835 H 0.21584 0.49232 0.47373 0.0
H836 H 0.70217 0.48397 0.44503 0.0
H837 H 0.72156 0.46197 0.48205 0.0
H838 H 0.81388 0.47019 0.48073 0.0
H839 H 0.7949 0.49157 0.44351 0.0
Gd840 Gd 0.35661 0.22018 0.44675 0.0
Gd841 Gd 0.2452 0.24437 0.4481 0.0
C842 C 0.34222 0.27678 0.45263 0.0
C843 C 0.444 0.2065 0.43791 0.0
C844 C 0.49964 0.20929 0.44009 0.0
C845 C 0.51826 0.22085 0.45043 0.0
C846 C 0.53466 0.20058 0.43154 0.0
C847 C 0.60692 0.21496 0.44358 0.0
C848 C 0.58775 0.20336 0.43325 0.0
C849 C 0.57147 0.22366 0.45217 0.0
C850 C 0.32789 0.22582 0.4702 0.0
C851 C 0.25417 0.18709 0.44499 0.0
C852 C 0.1517 0.25789 0.45267 0.0
C853 C 0.09754 0.24985 0.4523 0.0
C854 C 0.07803 0.23628 0.44267 0.0
C855 C 0.064 0.25715 0.4615 0.0
C856 C 0.99121 0.23877 0.45115 0.0
C857 C 1.01147 0.25165 0.46096 0.0
C858 C 0.02531 0.23079 0.44211 0.0
C859 C 0.2955 0.24481 0.42661 0.0
O860 O 0.37202 0.26004 0.44777 0.0
O861 O 0.29368 0.27303 0.4556 0.0
O862 O 0.41799 0.1941 0.4459 0.0
O863 O 0.41952 0.2256 0.43422 0.0
O864 O 0.37142 0.21638 0.46689 0.0
O865 O 0.30316 0.23145 0.46083 0.0
O866 O 0.22473 0.20593 0.44684 0.0
O867 O 0.30515 0.18819 0.44396 0.0
O868 O 0.17483 0.2616 0.44233 0.0
O869 O 0.18173 0.24808 0.46076 0.0
O870 O 0.26739 0.2624 0.43047 0.0
O871 O 0.29394 0.22795 0.43408 0.0
H872 H 0.49167 0.22774 0.45712 0.0
H873 H 0.5209 0.19176 0.42346 0.0
H874 H 0.61373 0.19681 0.42636 0.0
H875 H 0.58482 0.23245 0.46028 0.0
H876 H 0.10324 0.23037 0.43547 0.0
H877 H 0.07831 0.26754 0.46903 0.0
H878 H 0.98666 0.25765 0.46821 0.0
H879 H 1.01107 0.22097 0.43439 0.0
Gd880 Gd 0.45798 0.22033 0.33018 0.0
Gd881 Gd 0.56148 0.24495 0.32951 0.0
C882 C 0.46547 0.27789 0.32655 0.0
C883 C 0.36471 0.20634 0.33495 0.0
C884 C 0.30978 0.21224 0.33297 0.0
C885 C 0.27534 0.19382 0.33013 0.0
C886 C 0.29051 0.23542 0.33455 0.0
C887 C 0.20268 0.22134 0.33089 0.0
C888 C 0.23747 0.23991 0.33353 0.0
C889 C 0.22247 0.19829 0.32908 0.0
C890 C 0.50085 0.2224 0.30785 0.0
C891 C 0.55739 0.18807 0.33383 0.0
C892 C 0.65442 0.25981 0.32518 0.0
C893 C 0.70951 0.25389 0.32685 0.0
C894 C 0.74395 0.27217 0.32989 0.0
C895 C 0.72881 0.23084 0.32487 0.0
C896 C 0.8167 0.24477 0.32863 0.0
C897 C 0.78191 0.22633 0.32575 0.0
C898 C 0.79687 0.2677 0.33078 0.0
C899 C 0.5143 0.24378 0.35142 0.0
O900 O 0.43753 0.25972 0.33048 0.0
O901 O 0.51379 0.27515 0.32322 0.0
O902 O 0.39102 0.19881 0.32564 0.0
O903 O 0.39148 0.22034 0.34201 0.0
O904 O 0.47454 0.2045 0.31192 0.0
O905 O 0.50151 0.23883 0.31562 0.0
O906 O 0.58426 0.20632 0.32974 0.0
O907 O 0.50776 0.19001 0.33638 0.0
O908 O 0.62831 0.26582 0.33481 0.0
O909 O 0.62768 0.24681 0.31762 0.0
O910 O 0.54048 0.26185 0.34748 0.0
O911 O 0.5167 0.22703 0.34391 0.0
H912 H 0.28927 0.17578 0.32896 0.0
H913 H 0.31627 0.24999 0.33672 0.0
H914 H 0.2237 0.25793 0.33482 0.0
H915 H 0.19693 0.18349 0.3272 0.0
H916 H 0.72996 0.29012 0.33137 0.0
H917 H 0.70303 0.2164 0.32252 0.0
H918 H 0.7957 0.2084 0.32418 0.0
H919 H 0.82238 0.28242 0.33284 0.0
Gd920 Gd 0.34292 0.50124 0.34056 0.0
Gd921 Gd 0.23944 0.4768 0.34116 0.0
C922 C 0.33464 0.44375 0.33645 0.0
C923 C 0.43633 0.51559 0.34476 0.0
C924 C 0.49127 0.50943 0.34312 0.0
C925 C 0.52553 0.52728 0.33938 0.0
C926 C 0.51071 0.48673 0.34591 0.0
C927 C 0.59842 0.50028 0.34169 0.0
C928 C 0.56382 0.48222 0.34522 0.0
C929 C 0.57846 0.52278 0.33865 0.0
C930 C 0.29572 0.49936 0.31875 0.0
C931 C 0.24405 0.53393 0.34398 0.0
C932 C 0.14593 0.46145 0.33823 0.0
C933 C 0.09116 0.46791 0.33981 0.0
C934 C 0.05661 0.45038 0.34378 0.0
C935 C 0.0722 0.49059 0.33684 0.0
C936 C 0.9843 0.47767 0.34134 0.0
C937 C 1.01922 0.49541 0.33759 0.0
C938 C 1.00383 0.45517 0.34455 0.0
C939 C 0.29133 0.47811 0.36243 0.0
O940 O 0.36428 0.4618 0.33985 0.0
O941 O 0.28513 0.44656 0.33434 0.0
O942 O 0.41032 0.52158 0.33512 0.0
O943 O 0.40934 0.50286 0.35237 0.0
O944 O 0.32328 0.51713 0.32252 0.0
O945 O 0.29621 0.48291 0.32653 0.0
O946 O 0.21655 0.5152 0.34083 0.0
O947 O 0.29412 0.53244 0.34608 0.0
O948 O 0.17286 0.45758 0.34801 0.0
O949 O 0.17203 0.4726 0.32984 0.0
O950 O 0.26525 0.45984 0.35871 0.0
O951 O 0.28706 0.49492 0.35499 0.0
H952 H 0.51143 0.54495 0.33727 0.0
H953 H 0.48505 0.47261 0.34879 0.0
H954 H 0.57781 0.46461 0.34748 0.0
H955 H 0.60389 0.5372 0.33606 0.0
H956 H 0.07039 0.43272 0.34604 0.0
H957 H 0.09815 0.50446 0.33378 0.0
H958 H 1.00561 0.51302 0.3352 0.0
H959 H 0.97815 0.44097 0.34732 0.0
Gd960 Gd 0.48001 2e-05 0.0916 0.0
Gd961 Gd 0.58239 0.97491 0.09088 0.0
C962 C 0.4824 0.94266 0.09377 0.0
C963 C 0.3864 0.01556 0.0889 0.0
C964 C 0.33151 0.00901 0.09045 0.0
C965 C 0.29771 0.02575 0.09552 0.0
C966 C 0.31159 0.98717 0.08637 0.0
C967 C 0.22439 -0.00058 0.09203 0.0
C968 C 0.25854 0.98244 0.08714 0.0
C969 C 0.24485 0.02103 0.09632 0.0
C970 C 0.53115 -0.00262 0.11296 0.0
C971 C 0.57608 0.03276 0.08721 0.0
C972 C 0.67578 0.96013 0.09486 0.0
C973 C 0.73086 0.96639 0.0933 0.0
C974 C 0.76445 0.94934 0.08843 0.0
C975 C 0.7512 -0.01175 0.09726 0.0
C976 C 0.83828 0.97539 0.09184 0.0
C977 C 0.80439 -0.00732 0.09655 0.0
C978 C 0.81745 0.95377 0.08768 0.0
C979 C 0.53519 0.97737 0.06911 0.0
O980 O 0.45586 0.96177 0.09078 0.0
O981 O 0.53246 0.94369 0.09601 0.0
O982 O 0.41352 0.01902 0.09869 0.0
O983 O 0.41251 0.00489 0.08035 0.0
O984 O 0.50605 0.01603 0.10938 0.0
O985 O 0.52662 0.98094 0.10532 0.0
O986 O 0.60493 0.01428 0.09041 0.0
O987 O 0.52635 0.0305 0.08519 0.0
O988 O 0.64967 0.9548 0.08514 0.0
O989 O 0.64874 0.9723 0.1027 0.0
O990 O 0.5616 0.95927 0.07291 0.0
O991 O 0.5366 -0.00612 0.07687 0.0
H992 H 0.31212 0.04278 0.09864 0.0
H993 H 0.33683 0.97391 0.08243 0.0
H994 H 0.24427 0.96549 0.08389 0.0
H995 H 0.21982 0.03467 0.09998 0.0
H996 H 0.74978 0.93228 0.08542 0.0
H997 H 0.7262 0.00177 0.10105 0.0
H998 H 0.81897 0.00964 0.0997 0.0
H999 H 0.84228 0.93991 0.08416 0.0
Gd1000 Gd 0.82223 0.22915 0.07944 0.0
Gd1001 Gd 0.71887 0.25393 0.08047 0.0
C1002 C 0.81884 0.28643 0.08297 0.0
C1003 C 0.91519 0.21505 0.07455 0.0
C1004 C 0.97 0.22232 0.07559 0.0
C1005 C 0.99338 0.2265 0.08685 0.0
C1006 C 1.0005 0.22343 0.06513 0.0
C1007 C 0.07723 0.23177 0.07715 0.0
C1008 C 0.05341 0.22817 0.06588 0.0
C1009 C 0.04641 0.23114 0.08761 0.0
C1010 C 0.77809 0.23166 0.10163 0.0
C1011 C 0.72592 0.19589 0.07773 0.0
C1012 C 0.62582 0.26755 0.08574 0.0
C1013 C 0.57094 0.26061 0.08445 0.0
C1014 C 0.54777 0.25743 0.07309 0.0
C1015 C 0.54025 0.25867 0.09484 0.0
C1016 C 0.46372 0.25135 0.08258 0.0
C1017 C 0.48735 0.25405 0.09394 0.0
C1018 C 0.49474 0.25287 0.07217 0.0
C1019 C 0.75916 0.25065 0.05792 0.0
O1020 O 0.84497 0.2678 0.07907 0.0
O1021 O 0.76932 0.28485 0.08576 0.0
O1022 O 0.89064 0.20942 0.08447 0.0
O1023 O 0.88639 0.22677 0.06687 0.0
O1024 O 0.80394 0.21338 0.09781 0.0
O1025 O 0.77927 0.24794 0.09384 0.0
O1026 O 0.69841 0.21448 0.08134 0.0
O1027 O 0.77424 0.19816 0.07428 0.0
O1028 O 0.65062 0.27443 0.07607 0.0
O1029 O 0.6543 0.25469 0.09298 0.0
O1030 O 0.73346 0.26881 0.06192 0.0
O1031 O 0.76044 0.2346 0.0659 0.0
H1032 H 0.97096 0.2258 0.09509 0.0
H1033 H 0.98357 0.22007 0.05635 0.0
H1034 H 0.07593 0.22824 0.05765 0.0
H1035 H 0.06331 0.23416 0.09642 0.0
H1036 H 0.57039 0.25879 0.0649 0.0
H1037 H 0.55705 0.26125 0.1037 0.0
H1038 H 0.46472 0.25331 0.10214 0.0
H1039 H 0.47801 0.25056 0.06329 0.0
Gd1040 Gd 0.49521 0.22924 0.1961 0.0
Gd1041 Gd 0.59806 0.25335 0.19735 0.0
C1042 C 0.50012 0.2864 0.19398 0.0
C1043 C 0.40108 0.21427 0.19821 0.0
C1044 C 0.34675 0.22205 0.19708 0.0
C1045 C 0.31579 0.21213 0.18798 0.0
C1046 C 0.32408 0.23759 0.2055 0.0
C1047 C 0.24005 0.23228 0.196 0.0
C1048 C 0.27125 0.24264 0.20496 0.0
C1049 C 0.26311 0.21726 0.18741 0.0
C1050 C 0.549 0.2305 0.17511 0.0
C1051 C 0.58899 0.19571 0.20085 0.0
C1052 C 0.69209 0.26763 0.19394 0.0
C1053 C 0.74669 0.26021 0.19512 0.0
C1054 C 0.77688 0.26941 0.20456 0.0
C1055 C 0.7705 0.24595 0.1863 0.0
C1056 C 0.85392 0.251 0.19613 0.0
C1057 C 0.82351 0.24136 0.18681 0.0
C1058 C 0.8298 0.26479 0.20509 0.0
C1059 C 0.54848 0.25145 0.21888 0.0
O1060 O 0.47249 0.26759 0.19689 0.0
O1061 O 0.55028 0.28498 0.19203 0.0
O1062 O 0.42784 0.2124 0.18825 0.0
O1063 O 0.42813 0.22263 0.20725 0.0
O1064 O 0.52302 0.21217 0.17878 0.0
O1065 O 0.54419 0.24739 0.18251 0.0
O1066 O 0.61916 0.21382 0.19779 0.0
O1067 O 0.53939 0.19854 0.20274 0.0
O1068 O 0.6663 0.27154 0.20389 0.0
O1069 O 0.66414 0.25745 0.18557 0.0
O1070 O 0.57536 0.26947 0.21514 0.0
O1071 O 0.55028 0.23492 0.21115 0.0
H1072 H 0.3321 0.19986 0.18147 0.0
H1073 H 0.34681 0.24549 0.21265 0.0
H1074 H 0.25475 0.2545 0.21163 0.0
H1075 H 0.24012 0.20874 0.18048 0.0
H1076 H 0.75986 0.28079 0.21138 0.0
H1077 H 0.74849 0.23874 0.17884 0.0
H1078 H 0.84076 0.23044 0.17984 0.0
H1079 H 0.85212 0.27277 0.21229 0.0
Gd1080 Gd 0.80563 -0.00448 0.20868 0.0
Gd1081 Gd 0.70192 0.97115 0.20824 0.0
C1082 C 0.80084 0.93868 0.20447 0.0
C1083 C 0.8987 0.01025 0.21287 0.0
C1084 C 0.95366 0.00431 0.21101 0.0
C1085 C 0.98739 0.02232 0.2072 0.0
C1086 C 0.97364 0.98162 0.2136 0.0
C1087 C 0.06079 -0.00455 0.20898 0.0
C1088 C 0.02673 0.97724 0.21261 0.0
C1089 C 0.04029 0.01796 0.20618 0.0
C1090 C 0.7579 -0.00539 0.18686 0.0
C1091 C 0.7102 0.02865 0.2118 0.0
C1092 C 0.60843 0.9572 0.20374 0.0
C1093 C 0.55357 0.96314 0.2058 0.0
C1094 C 0.51997 0.94508 0.20963 0.0
C1095 C 0.53346 0.98585 0.20331 0.0
C1096 C 0.44646 0.97192 0.20799 0.0
C1097 C 0.48039 -0.00982 0.20437 0.0
C1098 C 0.46708 0.9494 0.21074 0.0
C1099 C 0.74599 0.97328 0.23046 0.0
O1100 O 0.82804 0.9569 0.20845 0.0
O1101 O 0.75115 0.94068 0.20201 0.0
O1102 O 0.87218 0.01652 0.20334 0.0
O1103 O 0.87224 -0.00288 0.22043 0.0
O1104 O 0.78461 0.01251 0.19079 0.0
O1105 O 0.75999 0.97776 0.19433 0.0
O1106 O 0.68202 0.01061 0.20781 0.0
O1107 O 0.75834 0.02565 0.2152 0.0
O1108 O 0.63504 0.94982 0.21303 0.0
O1109 O 0.635 0.971 0.19655 0.0
O1110 O 0.71926 0.95541 0.22652 0.0
O1111 O 0.74607 -0.01038 0.22266 0.0
H1112 H 0.9729 0.04 0.20525 0.0
H1113 H 0.94843 0.96737 0.21654 0.0
H1114 H 0.04111 0.95962 0.21469 0.0
H1115 H 0.06531 0.03249 0.20352 0.0
H1116 H 0.53454 0.92738 0.21151 0.0
H1117 H 0.55853 0.00014 0.20036 0.0
H1118 H 0.46591 0.00781 0.20234 0.0
H1119 H 0.44215 0.93484 0.21339 0.0
Gd1120 Gd 0.44988 0.00347 0.95727 0.0
Gd1121 Gd 0.55449 0.97976 0.95891 0.0
C1122 C 0.45958 0.94611 0.96201 0.0
C1123 C 0.35713 0.01623 0.9513 0.0
C1124 C 0.30225 0.00963 0.95253 0.0
C1125 C 0.28111 0.00208 0.96356 0.0
C1126 C 0.26982 0.01213 0.94249 0.0
C1127 C 0.1952 0.00057 0.95453 0.0
C1128 C 0.21694 0.00766 0.94346 0.0
C1129 C 0.22804 -0.00237 0.96455 0.0
C1130 C 0.49032 0.00311 0.97983 0.0
C1131 C 0.54884 0.03637 0.95395 0.0
C1132 C 0.64742 0.96619 0.96412 0.0
C1133 C 0.70218 0.97322 0.96313 0.0
C1134 C 0.72332 0.98191 0.95232 0.0
C1135 C 0.7346 0.9698 0.97311 0.0
C1136 C 0.80917 0.98261 0.96139 0.0
C1137 C 0.78745 0.97447 0.97227 0.0
C1138 C 0.77636 0.98651 0.95145 0.0
C1139 C 0.50951 0.97962 0.93675 0.0
O1140 O 0.43094 0.96378 0.95772 0.0
O1141 O 0.50767 0.9495 0.96534 0.0
O1142 O 0.381 0.02406 0.96092 0.0
O1143 O 0.38597 0.00245 0.9446 0.0
O1144 O 0.46323 0.02044 0.97542 0.0
O1145 O 0.49265 0.98629 0.97229 0.0
O1146 O 0.57575 0.01849 0.9584 0.0
O1147 O 0.49949 0.03404 0.95117 0.0
O1148 O 0.62341 0.96011 0.9542 0.0
O1149 O 0.61851 0.97848 0.97154 0.0
O1150 O 0.53566 0.96183 0.94103 0.0
O1151 O 0.51068 -0.00337 0.9441 0.0
H1152 H 0.3054 -0.0001 0.97144 0.0
H1153 H 0.28529 0.01805 0.93391 0.0
H1154 H 0.19288 0.01042 0.93559 0.0
H1155 H 0.21274 -0.00811 0.97317 0.0
H1156 H 0.69909 0.98481 0.94449 0.0
H1157 H 0.71917 0.96299 0.98152 0.0
H1158 H 0.81154 0.97099 0.98006 0.0
H1159 H 0.79169 -0.00694 0.94298 0.0
Gd1160 Gd 0.34567 0.72305 0.94917 0.0
Gd1161 Gd 0.2353 0.74732 0.94842 0.0
C1162 C 0.33026 0.77954 0.9552 0.0
C1163 C 0.43546 0.709 0.94198 0.0
C1164 C 0.4902 0.71163 0.94517 0.0
C1165 C 0.5264 0.69601 0.94014 0.0
C1166 C 0.5071 0.73007 0.95274 0.0
C1167 C 0.59652 0.71778 0.94977 0.0
C1168 C 0.55983 0.73313 0.95502 0.0
C1169 C 0.57904 0.69902 0.94241 0.0
C1170 C 0.30923 0.72754 0.97205 0.0
C1171 C 0.24433 0.69004 0.94657 0.0
C1172 C 0.14099 0.76223 0.94968 0.0
C1173 C 0.08647 0.75482 0.95026 0.0
C1174 C 0.05083 0.76679 0.94294 0.0
C1175 C 0.06886 0.73706 0.95819 0.0
C1176 C 0.98007 0.74427 0.95179 0.0
C1177 C 1.01602 0.7318 0.95893 0.0
C1178 C 0.99832 0.76157 0.94367 0.0
C1179 C 0.29413 0.74867 0.92815 0.0
O1180 O 0.36162 0.76274 0.95099 0.0
O1181 O 0.28051 0.77607 0.95685 0.0
O1182 O 0.40669 0.69664 0.94944 0.0
O1183 O 0.41252 0.72815 0.93785 0.0
O1184 O 0.35376 0.71834 0.96938 0.0
O1185 O 0.28721 0.7337 0.96239 0.0
O1186 O 0.2149 0.70876 0.94872 0.0
O1187 O 0.29507 0.6914 0.94525 0.0
O1188 O 0.16509 0.75847 0.93948 0.0
O1189 O 0.1701 0.75881 0.9592 0.0
O1190 O 0.26649 0.76646 0.93188 0.0
O1191 O 0.28871 0.7313 0.93521 0.0
H1192 H 0.514 0.68174 0.93423 0.0
H1193 H 0.4796 0.74228 0.95674 0.0
H1194 H 0.57186 0.74757 0.96085 0.0
H1195 H 0.60611 0.68707 0.93808 0.0
H1196 H 0.06361 0.78049 0.93673 0.0
H1197 H 0.0957 0.72753 0.96391 0.0
H1198 H 1.00323 0.71843 0.9653 0.0
H1199 H 0.97195 0.77115 0.93785 0.0
Gd1200 Gd 0.46588 0.72561 0.83412 0.0
Gd1201 Gd 0.57022 0.74999 0.83284 0.0
C1202 C 0.47429 0.78331 0.83022 0.0
C1203 C 0.37334 0.71193 0.83985 0.0
C1204 C 0.31826 0.71825 0.83874 0.0
C1205 C 0.29868 0.73029 0.82863 0.0
C1206 C 0.28422 0.7111 0.84788 0.0
C1207 C 0.21108 0.72716 0.83668 0.0
C1208 C 0.23129 0.71548 0.84688 0.0
C1209 C 0.24556 0.73467 0.8276 0.0
C1210 C 0.5067 0.72723 0.81162 0.0
C1211 C 0.5657 0.69303 0.83671 0.0
C1212 C 0.66311 0.76433 0.828 0.0
C1213 C 0.71792 0.75728 0.82874 0.0
C1214 C 0.73733 0.74389 0.83844 0.0
C1215 C 0.75203 0.76526 0.81979 0.0
C1216 C 0.82487 0.74754 0.83043 0.0
C1217 C 0.80485 0.76044 0.8206 0.0
C1218 C 0.79034 0.73911 0.83929 0.0
C1219 C 0.52487 0.74862 0.85496 0.0
O1220 O 0.44597 0.76518 0.83412 0.0
O1221 O 0.52274 0.78053 0.827 0.0
O1222 O 0.39731 0.70506 0.83006 0.0
O1223 O 0.40183 0.72541 0.84678 0.0
O1224 O 0.4798 0.7096 0.81581 0.0
O1225 O 0.50862 0.74375 0.81935 0.0
O1226 O 0.59208 0.71136 0.83257 0.0
O1227 O 0.51639 0.6949 0.83965 0.0
O1228 O 0.63926 0.76897 0.83814 0.0
O1229 O 0.63415 0.75296 0.82023 0.0
O1230 O 0.55057 0.76679 0.85095 0.0
O1231 O 0.52656 0.73203 0.84736 0.0
H1232 H 0.32433 0.73607 0.82148 0.0
H1233 H 0.29852 0.7017 0.85574 0.0
H1234 H 0.20607 0.70912 0.85397 0.0
H1235 H 0.23152 0.74399 0.8197 0.0
H1236 H 0.71168 0.73742 0.84543 0.0
H1237 H 0.7379 0.7757 0.81226 0.0
H1238 H 0.83019 0.76747 0.8137 0.0
H1239 H 0.80428 0.72885 0.84689 0.0
Gd1240 Gd 0.34777 0.00537 0.84178 0.0
Gd1241 Gd 0.23701 0.98046 0.84061 0.0
C1242 C 0.33472 0.94856 0.83596 0.0
C1243 C 0.43513 0.01924 0.85059 0.0
C1244 C 0.49096 0.01663 0.84852 0.0
C1245 C 0.51054 0.00802 0.83755 0.0
C1246 C 0.52522 0.02258 0.85782 0.0
C1247 C 0.59859 0.01155 0.84522 0.0
C1248 C 0.57844 0.02008 0.8562 0.0
C1249 C 0.56391 0.00551 0.83591 0.0
C1250 C 0.31887 -0.00046 0.81838 0.0
C1251 C 0.24466 0.03791 0.84345 0.0
C1252 C 0.14323 0.96683 0.83641 0.0
C1253 C 0.08912 0.97518 0.83665 0.0
C1254 C 0.06762 0.98613 0.8469 0.0
C1255 C 0.05737 0.97057 0.82668 0.0
C1256 C 0.98259 0.98631 0.8374 0.0
C1257 C 1.0048 0.97611 0.82702 0.0
C1258 C 1.01489 -0.00837 0.84726 0.0
C1259 C 0.28797 0.98043 0.86201 0.0
O1260 O 0.3641 0.9656 0.84069 0.0
O1261 O 0.2858 0.95182 0.83317 0.0
O1262 O 0.40903 0.03153 0.84257 0.0
O1263 O 0.4108 0.00014 0.85431 0.0
O1264 O 0.36218 0.00924 0.82166 0.0
O1265 O 0.29431 -0.00626 0.82776 0.0
O1266 O 0.21577 0.01886 0.84165 0.0
O1267 O 0.29565 0.03714 0.84451 0.0
O1268 O 0.16657 0.9638 0.84678 0.0
O1269 O 0.17342 0.9757 0.82806 0.0
O1270 O 0.26045 0.9626 0.8582 0.0
O1271 O 0.28559 -0.00274 0.85453 0.0
H1272 H 0.4846 0.00325 0.83027 0.0
H1273 H 0.51075 0.02906 0.86638 0.0
H1274 H 0.60376 0.02449 0.86364 0.0
H1275 H 0.57801 -0.0009 0.8273 0.0
H1276 H 0.09122 -0.01007 0.85473 0.0
H1277 H 0.07307 0.96218 0.81867 0.0
H1278 H 0.98145 0.9722 0.81916 0.0
H1279 H 0.99918 -0.0007 0.85544 0.0
H1280 H 0.90693 0.43344 0.09247 0.0
H1281 H 0.92296 0.2935 0.08169 0.0
H1282 H 0.05066 0.39464 0.09178 0.0
H1283 H 0.78027 0.33043 0.08909 0.0
H1284 H 0.97017 0.33033 0.08518 0.0
H1285 H 0.86005 0.39595 0.09134 0.0
C1286 C 0.92871 0.41699 0.09216 0.0
C1287 C 0.98291 0.41718 0.09213 0.0
C1288 C 0.92857 0.33038 0.08608 0.0
C1289 C 0.92917 0.3741 0.09074 0.0
C1290 C 0.90142 0.30936 0.08403 0.0
C1291 C 0.84738 0.30887 0.08503 0.0
C1292 C 0.9016 0.3512 0.08907 0.0
C1293 C 0.82184 0.32998 0.08818 0.0
C1294 C 0.90181 0.39557 0.09153 0.0
C1295 C 1.00892 0.39531 0.09183 0.0
N1296 N 0.84917 0.35033 0.09003 0.0
N1297 N 0.98178 0.37463 0.09102 0.0
H1298 H 0.5225 0.8974 0.09507 0.0
H1299 H 0.24586 0.83432 0.08911 0.0
H1300 H 0.37827 0.93576 0.09352 0.0
H1301 H 0.39133 0.79722 0.0861 0.0
H1302 H 0.29327 0.87138 0.09269 0.0
H1303 H 0.47435 0.85994 0.09399 0.0
C1304 C 0.48078 0.89795 0.09462 0.0
C1305 C 0.45447 0.91974 0.09428 0.0
C1306 C 0.31469 0.85508 0.09126 0.0
C1307 C 0.39918 0.87705 0.09297 0.0
C1308 C 0.28763 0.83393 0.08921 0.0
C1309 C 0.31451 0.81262 0.08721 0.0
C1310 C 0.36897 0.85487 0.09137 0.0
C1311 C 0.36876 0.8132 0.08749 0.0
C1312 C 0.45329 0.87658 0.09395 0.0
C1313 C 0.40029 0.91939 0.09368 0.0
N1314 N 0.3941 0.83395 0.08951 0.0
N1315 N 0.3745 0.89841 0.09299 0.0
H1316 H 0.7589 0.89551 0.19839 0.0
H1317 H 0.03222 0.82934 0.19527 0.0
H1318 H 0.90462 0.93047 0.20502 0.0
H1319 H 0.88563 0.7928 0.19609 0.0
H1320 H 0.98624 0.86743 0.19595 0.0
H1321 H 0.80526 0.85827 0.1948 0.0
C1322 C 0.80058 0.89538 0.19907 0.0
C1323 C 0.82787 0.91607 0.20211 0.0
C1324 C 0.96425 0.85103 0.19591 0.0
C1325 C 0.88107 0.87366 0.19796 0.0
C1326 C 0.99044 0.82934 0.19548 0.0
C1327 C 0.96273 0.80792 0.19575 0.0
C1328 C 0.91008 0.85121 0.19654 0.0
C1329 C 0.90861 0.8089 0.19602 0.0
C1330 C 0.82701 0.87414 0.19702 0.0
C1331 C 0.88191 0.9149 0.20282 0.0
N1332 N 0.88408 0.83018 0.19645 0.0
N1333 N 0.90674 0.89403 0.20078 0.0
H1334 H 0.26669 0.39554 0.19689 0.0
H1335 H 0.5423 0.33123 0.19437 0.0
H1336 H 0.4104 0.43039 0.20574 0.0
H1337 H 0.39677 0.29401 0.19229 0.0
H1338 H 0.49515 0.36895 0.19567 0.0
H1339 H 0.31459 0.35899 0.19263 0.0
C1340 C 0.30823 0.39551 0.19795 0.0
C1341 C 0.33449 0.41597 0.20177 0.0
C1342 C 0.47366 0.3525 0.19485 0.0
C1343 C 0.38949 0.37439 0.19681 0.0
C1344 C 0.50055 0.33102 0.19404 0.0
C1345 C 0.4734 0.30949 0.19335 0.0
C1346 C 0.41941 0.35234 0.1949 0.0
C1347 C 0.41927 0.3102 0.19296 0.0
C1348 C 0.33556 0.37467 0.19549 0.0
C1349 C 0.38843 0.41497 0.20292 0.0
N1350 N 0.39407 0.33126 0.1938 0.0
N1351 N 0.41413 0.39452 0.20046 0.0
H1352 H 0.16867 0.54168 0.95486 0.0
H1353 H 0.14128 0.68136 0.94436 0.0
H1354 H 1.02377 0.57654 0.9472 0.0
H1355 H 0.28822 0.64555 0.9473 0.0
H1356 H 0.09796 0.643 0.94496 0.0
H1357 H 0.21321 0.57939 0.95191 0.0
C1358 C 0.14613 0.55727 0.95256 0.0
C1359 C 0.09227 0.55599 0.95135 0.0
C1360 C 0.13968 0.64348 0.9454 0.0
C1361 C 0.14327 0.59923 0.94792 0.0
C1362 C 0.16455 0.6654 0.94507 0.0
C1363 C 0.21854 0.66668 0.94588 0.0
C1364 C 0.16889 0.62262 0.94664 0.0
C1365 C 0.24655 0.64539 0.94667 0.0
C1366 C 0.17171 0.57879 0.95082 0.0
C1367 C 0.06528 0.57673 0.94826 0.0
N1368 N 0.22132 0.6242 0.94714 0.0
N1369 N 0.09108 0.59755 0.94672 0.0
H1370 H 0.78379 0.14341 0.94312 0.0
H1371 H 0.50823 0.07906 0.94649 0.0
H1372 H 0.63835 0.1808 0.94176 0.0
H1373 H 0.65256 0.04439 0.95492 0.0
H1374 H 0.55584 0.11562 0.94196 0.0
H1375 H 0.73655 0.1057 0.94435 0.0
C1376 C 0.74201 0.14366 0.94292 0.0
C1377 C 0.71495 0.16523 0.94249 0.0
C1378 C 0.57699 0.09996 0.94478 0.0
C1379 C 0.66083 0.12238 0.94395 0.0
C1380 C 0.54983 0.07912 0.94738 0.0
C1381 C 0.57635 0.05871 0.95119 0.0
C1382 C 0.631 0.10029 0.94593 0.0
C1383 C 0.63037 0.05976 0.95213 0.0
C1384 C 0.71507 0.12218 0.94369 0.0
C1385 C 0.66079 0.16457 0.94226 0.0
N1386 N 0.65587 0.0802 0.94953 0.0
N1387 N 0.63552 0.14351 0.94306 0.0
H1388 H 0.15389 0.18187 0.82854 0.0
H1389 H 0.14252 0.04547 0.84777 0.0
H1390 H 1.01436 0.14718 0.84064 0.0
H1391 H 0.28447 0.08274 0.84003 0.0
H1392 H 0.09545 0.08274 0.84588 0.0
H1393 H 0.20214 0.14586 0.83296 0.0
C1394 C 0.13321 0.16664 0.83209 0.0
C1395 C 0.07975 0.16753 0.83416 0.0
C1396 C 0.13692 0.08286 0.8447 0.0
C1397 C 0.13531 0.12615 0.83932 0.0
C1398 C 0.16393 0.06156 0.84577 0.0
C1399 C 0.21754 0.06097 0.84392 0.0
C1400 C 0.16355 0.10372 0.84166 0.0
C1401 C 0.24319 0.0824 0.8415 0.0
C1402 C 0.16102 0.1461 0.83468 0.0
C1403 C 0.05541 0.14726 0.83886 0.0
N1404 N 0.21582 0.10291 0.84031 0.0
N1405 N 0.0834 0.12733 0.84124 0.0
H1406 H 0.66929 0.6853 0.83472 0.0
H1407 H 0.64891 0.54583 0.84659 0.0
H1408 H 0.52648 0.64954 0.84343 0.0
H1409 H 0.79378 0.58275 0.84202 0.0
H1410 H 0.60398 0.5838 0.84618 0.0
H1411 H 0.71559 0.64816 0.83785 0.0
C1412 C 0.64754 0.66962 0.83728 0.0
C1413 C 0.59372 0.6705 0.83873 0.0
C1414 C 0.64561 0.58366 0.84535 0.0
C1415 C 0.64689 0.62785 0.84236 0.0
C1416 C 0.6714 0.56196 0.84556 0.0
C1417 C 0.72526 0.5611 0.84421 0.0
C1418 C 0.6737 0.60473 0.84368 0.0
C1419 C 0.75226 0.5826 0.84307 0.0
C1420 C 0.67418 0.64842 0.83912 0.0
C1421 C 0.56788 0.64966 0.84217 0.0
N1422 N 0.72609 0.60356 0.84271 0.0
N1423 N 0.59472 0.62912 0.8438 0.0
H1424 H 0.03427 0.89747 0.59503 0.0
H1425 H 0.75945 0.83226 0.59269 0.0
H1426 H 0.88824 0.93445 0.59565 0.0
H1427 H 0.90398 0.79712 0.58495 0.0
H1428 H 0.80676 0.8692 0.59644 0.0
H1429 H 0.98759 0.85954 0.59423 0.0
C1430 C 0.99249 0.8976 0.59514 0.0
C1431 C 0.96511 0.91911 0.59528 0.0
C1432 C 0.82805 0.85337 0.59394 0.0
C1433 C 0.91164 0.876 0.59432 0.0
C1434 C 0.80106 0.8323 0.59179 0.0
C1435 C 0.8277 0.81163 0.58841 0.0
C1436 C 0.88205 0.85371 0.59276 0.0
C1437 C 0.88171 0.81268 0.58743 0.0
C1438 C 0.96588 0.87599 0.59462 0.0
C1439 C 0.91096 0.91828 0.5954 0.0
N1440 N 0.90708 0.83337 0.58958 0.0
N1441 N 0.88603 0.8971 0.59487 0.0
H1442 H 0.25755 0.33138 0.5891 0.0
H1443 H 0.53079 0.39702 0.59518 0.0
H1444 H 0.40439 0.29642 0.58392 0.0
H1445 H 0.38445 0.43376 0.59466 0.0
H1446 H 0.48469 0.35909 0.59363 0.0
H1447 H 0.30331 0.3685 0.59337 0.0
C1448 C 0.29931 0.33147 0.58886 0.0
C1449 C 0.32707 0.31075 0.58608 0.0
C1450 C 0.46274 0.37547 0.59393 0.0
C1451 C 0.37963 0.35307 0.59105 0.0
C1452 C 0.48902 0.39709 0.59489 0.0
C1453 C 0.46146 0.41856 0.59493 0.0
C1454 C 0.40861 0.3754 0.59308 0.0
C1455 C 0.40734 0.41764 0.59451 0.0
C1456 C 0.32543 0.35265 0.59132 0.0
C1457 C 0.38123 0.31193 0.58596 0.0
N1458 N 0.38272 0.39643 0.59354 0.0
N1459 N 0.4057 0.33273 0.5884 0.0
H1460 H 0.88883 0.29146 0.69047 0.0
H1461 H 0.90825 0.42948 0.70641 0.0
H1462 H 0.03321 0.32823 0.69605 0.0
H1463 H 0.76472 0.39403 0.698 0.0
H1464 H 0.95448 0.39282 0.70221 0.0
H1465 H 0.84322 0.3291 0.69238 0.0
C1466 C 0.91108 0.30751 0.69201 0.0
C1467 C 0.96502 0.30666 0.69322 0.0
C1468 C 0.91291 0.39304 0.70125 0.0
C1469 C 0.91266 0.34989 0.6955 0.0
C1470 C 0.88627 0.41399 0.70369 0.0
C1471 C 0.83227 0.41489 0.70258 0.0
C1472 C 0.88553 0.37268 0.69772 0.0
C1473 C 0.80625 0.39417 0.69901 0.0
C1474 C 0.88489 0.32902 0.6931 0.0
C1475 C 0.99167 0.32806 0.69507 0.0
N1476 N 0.83315 0.37388 0.69674 0.0
N1477 N 0.96513 0.34881 0.69627 0.0
H1478 H 0.53597 0.8297 0.69602 0.0
H1479 H 0.26067 0.89419 0.70083 0.0
H1480 H 0.39078 0.79218 0.69809 0.0
H1481 H 0.40659 0.93076 0.70431 0.0
H1482 H 0.30754 0.85689 0.69768 0.0
H1483 H 0.48873 0.86747 0.69668 0.0
C1484 C 0.49424 0.8294 0.6965 0.0
C1485 C 0.46736 0.80778 0.69712 0.0
C1486 C 0.3292 0.87313 0.69911 0.0
C1487 C 0.41318 0.85077 0.69792 0.0
C1488 C 0.30245 0.89442 0.70092 0.0
C1489 C 0.32961 0.91565 0.70291 0.0
C1490 C 0.38346 0.87312 0.69924 0.0
C1491 C 0.38384 0.91486 0.70288 0.0
C1492 C 0.4673 0.85093 0.69693 0.0
C1493 C 0.41322 0.80842 0.69774 0.0
N1494 N 0.40891 0.89396 0.70109 0.0
N1495 N 0.38797 0.82954 0.69817 0.0
H1496 H 1.01887 0.07867 0.44655 0.0
H1497 H 0.29556 0.14235 0.44764 0.0
H1498 H 0.15942 0.04408 0.45804 0.0
H1499 H 0.15206 0.17911 0.44092 0.0
H1500 H 0.24769 0.10482 0.44896 0.0
H1501 H 0.0685 0.11475 0.44231 0.0
C1502 C 0.06006 0.07866 0.4482 0.0
C1503 C 0.08489 0.0584 0.45274 0.0
C1504 C 0.22683 0.12112 0.44712 0.0
C1505 C 0.14192 0.09945 0.44782 0.0
C1506 C 0.25418 0.14249 0.44629 0.0
C1507 C 0.22771 0.16389 0.44432 0.0
C1508 C 0.17281 0.12125 0.4459 0.0
C1509 C 0.17402 0.16307 0.44264 0.0
C1510 C 0.0884 0.09923 0.44575 0.0
C1511 C 0.13847 0.05934 0.45463 0.0
N1512 N 0.14834 0.14213 0.44354 0.0
N1513 N 0.16515 0.07953 0.45218 0.0
H1514 H 0.78448 0.64455 0.44667 0.0
H1515 H 0.51017 0.57892 0.44859 0.0
H1516 H 0.63844 0.68152 0.44594 0.0
H1517 H 0.65474 0.54429 0.45685 0.0
H1518 H 0.55717 0.61604 0.445 0.0
H1519 H 0.73786 0.60665 0.44754 0.0
C1520 C 0.74269 0.64468 0.44656 0.0
C1521 C 0.7153 0.66619 0.44636 0.0
C1522 C 0.57851 0.60027 0.44759 0.0
C1523 C 0.66189 0.62309 0.44739 0.0
C1524 C 0.55171 0.57911 0.44965 0.0
C1525 C 0.57848 0.55854 0.45312 0.0
C1526 C 0.63242 0.60077 0.44893 0.0
C1527 C 0.63238 0.55977 0.45429 0.0
C1528 C 0.71612 0.62309 0.44712 0.0
C1529 C 0.66115 0.66536 0.44625 0.0
N1530 N 0.65755 0.58053 0.45221 0.0
N1531 N 0.63623 0.64417 0.44681 0.0
H1532 H 0.28641 0.5787 0.34462 0.0
H1533 H 1.01159 0.64374 0.34214 0.0
H1534 H 0.14048 0.5416 0.34528 0.0
H1535 H 0.15639 0.67896 0.33479 0.0
H1536 H 0.05878 0.6068 0.34596 0.0
H1537 H 0.23966 0.61657 0.34391 0.0
C1538 C 0.24463 0.57853 0.34475 0.0
C1539 C 0.2173 0.557 0.34487 0.0
C1540 C 0.08015 0.62266 0.34353 0.0
C1541 C 0.16374 0.60006 0.34402 0.0
C1542 C 0.05324 0.64373 0.34134 0.0
C1543 C 0.08001 0.6644 0.33804 0.0
C1544 C 0.13418 0.62234 0.34246 0.0
C1545 C 0.13405 0.66339 0.33719 0.0
C1546 C 0.21798 0.60011 0.34429 0.0
C1547 C 0.16315 0.55778 0.34503 0.0
N1548 N 0.15933 0.6427 0.33937 0.0
N1549 N 0.13816 0.57895 0.34454 0.0
H1550 H 0.79046 0.07964 0.3439 0.0
H1551 H 0.51632 0.14515 0.34065 0.0
H1552 H 0.644 0.04301 0.34477 0.0
H1553 H 0.66125 0.17996 0.33295 0.0
H1554 H 0.56327 0.1083 0.34475 0.0
H1555 H 0.74422 0.11763 0.34268 0.0
C1556 C 0.74868 0.07961 0.34397 0.0
C1557 C 0.72104 0.05817 0.34431 0.0
C1558 C 0.58474 0.12404 0.34218 0.0
C1559 C 0.6681 0.10134 0.34288 0.0
C1560 C 0.55795 0.14507 0.33983 0.0
C1561 C 0.58482 0.16561 0.33635 0.0
C1562 C 0.63876 0.12362 0.3411 0.0
C1563 C 0.63884 0.1645 0.33549 0.0
C1564 C 0.72233 0.10124 0.34322 0.0
C1565 C 0.66691 0.05911 0.34437 0.0
N1566 N 0.66403 0.14384 0.33783 0.0
N1567 N 0.64224 0.08033 0.34361 0.0
H1568 H 0.08106 0.53393 0.12436 0.0
H1569 H 0.22162 0.45584 0.17515 0.0
H1570 H 0.09604 0.45765 0.12192 0.0
H1571 H 0.24415 0.53153 0.17147 0.0
H1572 H 0.1692 0.45611 0.15671 0.0
H1573 H 0.13406 0.53345 0.14268 0.0
C1574 C 0.09533 0.51706 0.12772 0.0
C1575 C 0.0841 0.49579 0.12162 0.0
C1576 C 0.18576 0.47265 0.1599 0.0
C1577 C 0.14469 0.49508 0.14263 0.0
C1578 C 0.21561 0.47251 0.17043 0.0
C1579 C 0.23737 0.49369 0.17482 0.0
C1580 C 0.17702 0.49419 0.15377 0.0
C1581 C 0.2283 0.51478 0.16837 0.0
C1582 C 0.12578 0.51681 0.13815 0.0
C1583 C 0.10383 0.47446 0.12634 0.0
N1584 N 0.19862 0.51452 0.15822 0.0
N1585 N 0.13296 0.47462 0.13658 0.0
H1586 H 0.22666 0.69359 0.11596 0.0
H1587 H 0.07546 0.76853 0.16634 0.0
H1588 H 0.20398 0.76948 0.11366 0.0
H1589 H 0.05842 0.6926 0.16235 0.0
H1590 H 0.12965 0.76922 0.14819 0.0
H1591 H 0.17235 0.69275 0.13413 0.0
C1592 C 0.21047 0.71008 0.11933 0.0
C1593 C 0.21983 0.73164 0.11332 0.0
C1594 C 0.11394 0.75241 0.15126 0.0
C1595 C 0.15791 0.73086 0.13411 0.0
C1596 C 0.08308 0.75201 0.16162 0.0
C1597 C 0.06233 0.73048 0.16583 0.0
C1598 C 0.12472 0.73107 0.14511 0.0
C1599 C 0.07347 0.70959 0.15938 0.0
C1600 C 0.17929 0.70959 0.12965 0.0
C1601 C 0.19767 0.75247 0.11802 0.0
N1602 N 0.1041 0.71038 0.14939 0.0
N1603 N 0.16795 0.75159 0.12815 0.0
H1604 H 0.82344 0.44055 0.87458 0.0
H1605 H 0.9779 0.51651 0.92406 0.0
H1606 H 0.84121 0.51676 0.87262 0.0
H1607 H 0.99428 0.44049 0.92039 0.0
H1608 H 0.92207 0.51688 0.90621 0.0
H1609 H 0.87998 0.44 0.89236 0.0
C1610 C 0.83912 0.45717 0.87792 0.0
C1611 C 0.82771 0.47873 0.87212 0.0
C1612 C 0.93799 0.50012 0.90927 0.0
C1613 C 0.89218 0.47828 0.89249 0.0
C1614 C 0.96982 0.4999 0.91947 0.0
C1615 C 0.99082 0.47844 0.9237 0.0
C1616 C 0.92656 0.47868 0.90329 0.0
C1617 C 0.97906 0.45744 0.9174 0.0
C1618 C 0.87154 0.45684 0.88804 0.0
C1619 C 0.84914 0.49973 0.87681 0.0
N1620 N 0.94753 0.45805 0.90756 0.0
N1621 N 0.88015 0.499 0.88673 0.0
H1622 H 0.96705 0.20602 0.86117 0.0
H1623 H 0.81718 0.28238 0.91111 0.0
H1624 H 0.98619 0.28183 0.86518 0.0
H1625 H 0.83533 0.20627 0.9137 0.0
H1626 H 0.87286 0.28246 0.89324 0.0
H1627 H 0.91302 0.2056 0.87936 0.0
C1628 C 0.96001 0.22257 0.86592 0.0
C1629 C 0.98123 0.24399 0.86168 0.0
C1630 C 0.86475 0.26573 0.89771 0.0
C1631 C 0.91898 0.2437 0.88244 0.0
C1632 C 0.83278 0.26566 0.90788 0.0
C1633 C 0.82156 0.24428 0.91389 0.0
C1634 C 0.88526 0.24421 0.89337 0.0
C1635 C 0.84302 0.22315 0.90934 0.0
C1636 C 0.92922 0.22231 0.8763 0.0
C1637 C 0.97078 0.26491 0.86816 0.0
N1638 N 0.87361 0.22363 0.89932 0.0
N1639 N 0.94018 0.26427 0.87816 0.0
H1640 H 0.06355 0.03647 0.62706 0.0
H1641 H 0.21257 0.95794 0.67637 0.0
H1642 H 0.07973 0.96029 0.6243 0.0
H1643 H 0.2333 0.0338 0.67307 0.0
H1644 H 0.15715 0.95853 0.65844 0.0
H1645 H 0.11873 0.03599 0.64506 0.0
C1646 C 0.07854 0.01963 0.63028 0.0
C1647 C 0.06706 -0.00161 0.62418 0.0
C1648 C 0.1739 0.97505 0.66161 0.0
C1649 C 0.13008 -0.00233 0.6448 0.0
C1650 C 0.20547 0.97473 0.67185 0.0
C1651 C 0.22764 -0.00415 0.67619 0.0
C1652 C 0.16389 -0.00329 0.6557 0.0
C1653 C 0.21714 0.0171 0.66999 0.0
C1654 C 0.11022 0.01938 0.64052 0.0
C1655 C 0.08769 0.97708 0.62872 0.0
N1656 N 0.18584 0.01701 0.6601 0.0
N1657 N 0.118 0.97725 0.63876 0.0
H1658 H 0.20924 0.26721 0.61168 0.0
H1659 H 0.06246 0.18751 0.66096 0.0
H1660 H 0.23086 0.19132 0.61444 0.0
H1661 H 0.079 0.26365 0.66391 0.0
H1662 H 0.11699 0.18822 0.6428 0.0
H1663 H 0.15431 0.26601 0.62967 0.0
C1664 C 0.20241 0.25028 0.61609 0.0
C1665 C 0.22476 0.22934 0.61158 0.0
C1666 C 0.10869 0.20476 0.64743 0.0
C1667 C 0.16155 0.22777 0.63217 0.0
C1668 C 0.07743 0.20437 0.65776 0.0
C1669 C 0.06627 0.22554 0.66395 0.0
C1670 C 0.12833 0.22654 0.64316 0.0
C1671 C 0.08674 0.24689 0.65942 0.0
C1672 C 0.17112 0.2496 0.62637 0.0
C1673 C 0.21457 0.20789 0.61765 0.0
N1674 N 0.11656 0.24686 0.6493 0.0
N1675 N 0.18355 0.20763 0.62759 0.0
H1676 H 0.97071 0.01914 0.42609 0.0
H1677 H 0.8181 0.9415 0.37706 0.0
H1678 H 0.98761 0.94306 0.42288 0.0
H1679 H 0.83637 0.01755 0.37404 0.0
H1680 H 0.87391 0.94182 0.39492 0.0
H1681 H 0.91575 0.01908 0.40807 0.0
C1682 C 0.96296 0.00243 0.42156 0.0
C1683 C 0.98384 0.98108 0.42597 0.0
C1684 C 0.86578 0.95845 0.39036 0.0
C1685 C 0.92055 0.98083 0.40539 0.0
C1686 C 0.83372 0.95829 0.3802 0.0
C1687 C 0.82261 0.97953 0.37406 0.0
C1688 C 0.88646 0.98006 0.39454 0.0
C1689 C 0.84405 0.00076 0.37849 0.0
C1690 C 0.93164 0.00241 0.41127 0.0
C1691 C 0.9725 0.95994 0.41975 0.0
N1692 N 0.87477 0.00051 0.38848 0.0
N1693 N 0.94142 0.96033 0.40984 0.0
H1694 H 0.98523 0.78077 0.36741 0.0
H1695 H 0.83399 0.70521 0.41753 0.0
H1696 H 0.96333 0.7049 0.36454 0.0
H1697 H 0.81695 0.78111 0.41338 0.0
H1698 H 0.88847 0.70444 0.39937 0.0
H1699 H 0.93101 0.78102 0.38553 0.0
C1700 C 0.96918 0.76413 0.37064 0.0
C1701 C 0.97884 0.74278 0.36448 0.0
C1702 C 0.87269 0.72124 0.40242 0.0
C1703 C 0.91683 0.74289 0.38527 0.0
C1704 C 0.8417 0.7217 0.41279 0.0
C1705 C 0.82082 0.74325 0.41694 0.0
C1706 C 0.88348 0.74255 0.39625 0.0
C1707 C 0.83207 0.76409 0.41046 0.0
C1708 C 0.93804 0.7643 0.38095 0.0
C1709 C 0.95682 0.72176 0.36903 0.0
N1710 N 0.86279 0.76325 0.4005 0.0
N1711 N 0.92705 0.72232 0.37917 0.0
H1712 H 0.56361 0.53504 0.62732 0.0
H1713 H 0.71473 0.45658 0.67624 0.0
H1714 H 0.58088 0.45896 0.62418 0.0
H1715 H 0.7344 0.53251 0.67297 0.0
H1716 H 0.65927 0.45704 0.65831 0.0
H1717 H 0.6195 0.53447 0.64517 0.0
C1718 C 0.57903 0.51819 0.63042 0.0
C1719 C 0.56756 0.49701 0.62427 0.0
C1720 C 0.67583 0.4736 0.66148 0.0
C1721 C 0.63144 0.4962 0.64474 0.0
C1722 C 0.70741 0.47335 0.67172 0.0
C1723 C 0.72926 0.49454 0.67608 0.0
C1724 C 0.66548 0.49525 0.65559 0.0
C1725 C 0.71849 0.51576 0.66989 0.0
C1726 C 0.61111 0.51789 0.64058 0.0
C1727 C 0.58878 0.4757 0.62866 0.0
N1728 N 0.68717 0.5156 0.66001 0.0
N1729 N 0.61949 0.47582 0.63864 0.0
H1730 H 0.71342 0.77112 0.61519 0.0
H1731 H 0.5654 0.6917 0.66433 0.0
H1732 H 0.73375 0.69519 0.61821 0.0
H1733 H 0.58151 0.76782 0.66755 0.0
H1734 H 0.62024 0.69264 0.64629 0.0
H1735 H 0.65869 0.77036 0.63326 0.0
C1736 C 0.70645 0.7543 0.61968 0.0
C1737 C 0.72827 0.73319 0.61522 0.0
C1738 C 0.6118 0.70914 0.65094 0.0
C1739 C 0.66526 0.73213 0.63585 0.0
C1740 C 0.5803 0.70863 0.6612 0.0
C1741 C 0.56891 0.72971 0.66745 0.0
C1742 C 0.6316 0.73096 0.64677 0.0
C1743 C 0.58942 0.75114 0.66301 0.0
C1744 C 0.67526 0.75387 0.63001 0.0
C1745 C 0.7179 0.71189 0.62139 0.0
N1746 N 0.61958 0.75123 0.65294 0.0
N1747 N 0.68696 0.71188 0.63133 0.0
H1748 H 0.32088 0.44034 0.37631 0.0
H1749 H 0.46797 0.51854 0.42596 0.0
H1750 H 0.33725 0.51649 0.37336 0.0
H1751 H 0.48943 0.44278 0.42232 0.0
H1752 H 0.41418 0.51826 0.40773 0.0
H1753 H 0.37637 0.44091 0.39422 0.0
C1754 C 0.33605 0.4572 0.37947 0.0
C1755 C 0.32441 0.47841 0.37335 0.0
C1756 C 0.43084 0.50172 0.41088 0.0
C1757 C 0.38782 0.47922 0.3939 0.0
C1758 C 0.46148 0.50186 0.42129 0.0
C1759 C 0.48328 0.48065 0.42563 0.0
C1760 C 0.42134 0.48015 0.40484 0.0
C1761 C 0.47356 0.45954 0.41925 0.0
C1762 C 0.36791 0.4575 0.38966 0.0
C1763 C 0.3453 0.49974 0.37781 0.0
N1764 N 0.44308 0.4598 0.40923 0.0
N1765 N 0.37576 0.49962 0.38784 0.0
H1766 H 0.32194 0.28303 0.41255 0.0
H1767 H 0.46836 0.20557 0.36238 0.0
H1768 H 0.34184 0.20705 0.41541 0.0
H1769 H 0.48787 0.28149 0.36579 0.0
H1770 H 0.4151 0.20573 0.38069 0.0
H1771 H 0.37569 0.28289 0.3943 0.0
C1772 C 0.33752 0.26632 0.40931 0.0
C1773 C 0.32749 0.24503 0.41551 0.0
C1774 C 0.43115 0.22235 0.37746 0.0
C1775 C 0.38871 0.24468 0.39458 0.0
C1776 C 0.46148 0.22227 0.367 0.0
C1777 C 0.48273 0.24354 0.36259 0.0
C1778 C 0.42136 0.24392 0.38349 0.0
C1779 C 0.47247 0.26467 0.36892 0.0
C1780 C 0.36834 0.26625 0.39892 0.0
C1781 C 0.34873 0.22388 0.41092 0.0
N1782 N 0.44234 0.26435 0.379 0.0
N1783 N 0.37812 0.22422 0.40073 0.0
H1784 H 0.73186 0.03295 0.17299 0.0
H1785 H 0.57595 0.95817 0.12335 0.0
H1786 H 0.70942 0.9571 0.17572 0.0
H1787 H 0.56163 0.0342 0.12744 0.0
H1788 H 0.6314 0.95711 0.14133 0.0
H1789 H 0.67646 0.03353 0.15508 0.0
C1790 C 0.71544 0.01639 0.16978 0.0
C1791 C 0.72531 -0.00506 0.17584 0.0
C1792 C 0.616 0.97402 0.13831 0.0
C1793 C 0.6619 -0.00457 0.15528 0.0
C1794 C 0.58444 0.97463 0.12805 0.0
C1795 C 0.56406 -0.00369 0.12392 0.0
C1796 C 0.62784 -0.00472 0.14441 0.0
C1797 C 0.57634 0.0171 0.13033 0.0
C1798 C 0.68362 0.01674 0.15958 0.0
C1799 C 0.70278 0.97403 0.17131 0.0
N1800 N 0.60759 0.01609 0.1402 0.0
N1801 N 0.67233 0.97477 0.16128 0.0
H1802 H 0.73148 0.2701 0.11225 0.0
H1803 H 0.57981 0.19262 0.16148 0.0
H1804 H 0.7513 0.1943 0.11618 0.0
H1805 H 0.59553 0.26883 0.16422 0.0
H1806 H 0.63665 0.19299 0.14382 0.0
H1807 H 0.67611 0.27019 0.13023 0.0
C1808 C 0.72431 0.25349 0.11693 0.0
C1809 C 0.74609 0.23216 0.11274 0.0
C1810 C 0.62776 0.20965 0.14828 0.0
C1811 C 0.68239 0.23208 0.13325 0.0
C1812 C 0.59514 0.20946 0.15833 0.0
C1813 C 0.58292 0.23073 0.16432 0.0
C1814 C 0.64793 0.23132 0.14404 0.0
C1815 C 0.60403 0.25202 0.15987 0.0
C1816 C 0.69276 0.25356 0.1272 0.0
C1817 C 0.73547 0.21116 0.11913 0.0
N1818 N 0.6353 0.2518 0.14997 0.0
N1819 N 0.70418 0.21162 0.12901 0.0
H1820 H 0.334 0.0185 0.87293 0.0
H1821 H 0.48327 0.9412 0.92277 0.0
H1822 H 0.31665 0.94242 0.87604 0.0
H1823 H 0.46468 0.01731 0.92519 0.0
H1824 H 0.42937 0.94111 0.90454 0.0
H1825 H 0.38878 0.0183 0.89096 0.0
C1826 C 0.34172 0.00174 0.87743 0.0
C1827 C 0.32072 0.98044 0.87299 0.0
C1828 C 0.43712 0.95783 0.90905 0.0
C1829 C 0.38369 0.98004 0.89362 0.0
C1830 C 0.46807 0.9579 0.91942 0.0
C1831 C 0.47846 0.97929 0.9255 0.0
C1832 C 0.41691 0.97937 0.90463 0.0
C1833 C 0.45757 0.00041 0.92079 0.0
C1834 C 0.37293 0.00164 0.88773 0.0
C1835 C 0.33196 0.95925 0.87918 0.0
N1836 N 0.42799 -7e-05 0.91064 0.0
N1837 N 0.36284 0.95956 0.88914 0.0
H1838 H 0.47984 0.71025 0.86589 0.0
H1839 H 0.32561 0.78723 0.91495 0.0
H1840 H 0.49671 0.78631 0.86922 0.0
H1841 H 0.34218 0.71101 0.91724 0.0
H1842 H 0.38325 0.7874 0.89736 0.0
H1843 H 0.42457 0.7102 0.88384 0.0
C1844 C 0.47202 0.72694 0.87044 0.0
C1845 C 0.49294 0.74832 0.86607 0.0
C1846 C 0.37439 0.77064 0.90172 0.0
C1847 C 0.42932 0.74845 0.8866 0.0
C1848 C 0.34137 0.77053 0.91173 0.0
C1849 C 0.32913 0.74908 0.91756 0.0
C1850 C 0.39485 0.74908 0.89739 0.0
C1851 C 0.35069 0.72795 0.91303 0.0
C1852 C 0.44052 0.7269 0.88069 0.0
C1853 C 0.48153 0.76942 0.87231 0.0
N1854 N 0.38226 0.72847 0.9032 0.0
N1855 N 0.45027 0.76898 0.88221 0.0
H1856 H 0.20488 0.66784 0.0596 0.0
H1857 H 0.15356 0.55681 0.10193 0.0
H1858 H 0.15374 0.67682 0.09637 0.0
H1859 H 0.10509 0.55639 0.06472 0.0
H1860 H 0.17557 0.59934 0.09994 0.0
H1861 H 0.18686 0.62501 0.06117 0.0
C1862 C 0.18918 0.66077 0.06793 0.0
C1863 C 0.17995 0.67573 0.07782 0.0
C1864 C 0.16076 0.58975 0.0922 0.0
C1865 C 0.16168 0.62706 0.07982 0.0
C1866 C 0.14897 0.56557 0.09329 0.0
C1867 C 0.12801 0.55333 0.08344 0.0
C1868 C 0.15246 0.60134 0.08114 0.0
C1869 C 0.12149 0.56538 0.07247 0.0
C1870 C 0.17926 0.63645 0.06883 0.0
C1871 C 0.16035 0.66582 0.08849 0.0
N1872 N 0.13389 0.58878 0.07158 0.0
N1873 N 0.15244 0.64196 0.08927 0.0
H1874 H 0.02449 0.65253 0.20199 0.0
H1875 H 0.26669 0.5701 0.21558 0.0
H1876 H 0.18012 0.67982 0.20379 0.0
H1877 H 0.11834 0.54291 0.20431 0.0
H1878 H 0.23417 0.61051 0.21336 0.0
H1879 H 0.05739 0.61247 0.20461 0.0
C1880 C 0.06575 0.6501 0.20296 0.0
C1881 C 0.09972 0.66956 0.20276 0.0
C1882 C 0.20877 0.5957 0.2114 0.0
C1883 C 0.13754 0.62356 0.20576 0.0
C1884 C 0.22708 0.57259 0.21274 0.0
C1885 C 0.19509 0.55307 0.21011 0.0
C1886 C 0.15802 0.59932 0.20749 0.0
C1887 C 0.14429 0.55742 0.20643 0.0
C1888 C 0.08445 0.62716 0.2044 0.0
C1889 C 0.15272 0.66528 0.20389 0.0
N1890 N 0.1273 0.58015 0.20523 0.0
N1891 N 0.1701 0.64263 0.20543 0.0
H1892 H 0.77924 0.31936 0.95377 0.0
H1893 H 0.02584 0.40119 0.96324 0.0
H1894 H 0.93491 0.29224 0.95139 0.0
H1895 H 0.87466 0.42891 0.9547 0.0
H1896 H 0.99213 0.3609 0.96152 0.0
H1897 H 0.81313 0.3592 0.95654 0.0
C1898 C 0.82071 0.32175 0.95387 0.0
C1899 C 0.85442 0.3024 0.95238 0.0
C1900 C 0.96637 0.3758 0.96005 0.0
C1901 C 0.89332 0.34818 0.95555 0.0
C1902 C 0.98538 0.39885 0.9611 0.0
C1903 C 0.95292 0.41848 0.95909 0.0
C1904 C 0.91446 0.37235 0.95707 0.0
C1905 C 0.90101 0.4143 0.95631 0.0
C1906 C 0.83993 0.34458 0.95541 0.0
C1907 C 0.90765 0.30668 0.9525 0.0
N1908 N 0.88334 0.39162 0.95538 0.0
N1909 N 0.92558 0.32921 0.95411 0.0
H1910 H 0.94013 0.43259 0.83507 0.0
H1911 H 0.86197 0.2954 0.83104 0.0
H1912 H 0.78282 0.40836 0.83108 0.0
H1913 H 1.01437 0.3213 0.82222 0.0
H1914 H 0.8327 0.33672 0.83295 0.0
H1915 H 0.96945 0.39136 0.83235 0.0
C1916 C 0.91188 0.41867 0.8336 0.0
C1917 C 0.85908 0.42394 0.83324 0.0
C1918 C 0.87246 0.33326 0.83052 0.0
C1919 C 0.89201 0.37702 0.83026 0.0
C1920 C 0.8891 0.30972 0.82942 0.0
C1921 C 0.94056 0.30489 0.82644 0.0
C1922 C 0.90777 0.35196 0.82879 0.0
C1923 C 0.97423 0.32415 0.82448 0.0
C1924 C 0.92855 0.39522 0.83202 0.0
C1925 C 0.824 0.40521 0.83133 0.0
N1926 N 0.95733 0.34683 0.82578 0.0
N1927 N 0.84108 0.3826 0.82998 0.0
H1928 H 0.02568 0.07373 0.58607 0.0
H1929 H 0.26372 0.1577 0.57045 0.0
H1930 H 0.18207 0.04743 0.58417 0.0
H1931 H 0.11338 0.18348 0.58111 0.0
H1932 H 0.23325 0.11693 0.57303 0.0
H1933 H 0.05667 0.1136 0.58219 0.0
C1934 C 0.06675 0.07632 0.58482 0.0
C1935 C 0.10142 0.05716 0.58538 0.0
C1936 C 0.20697 0.13152 0.57474 0.0
C1937 C 0.13718 0.10312 0.58092 0.0
C1938 C 0.22409 0.15483 0.57319 0.0
C1939 C 0.19102 0.17409 0.57562 0.0
C1940 C 0.15636 0.12746 0.57866 0.0
C1941 C 0.14025 0.16923 0.57917 0.0
C1942 C 0.08438 0.0992 0.58263 0.0
C1943 C 0.15414 0.06174 0.58382 0.0
N1944 N 0.12453 0.14637 0.58061 0.0
N1945 N 0.17052 0.08435 0.5816 0.0
H1946 H 0.02485 0.15407 0.70634 0.0
H1947 H 0.26618 0.06906 0.71617 0.0
H1948 H 0.18183 0.17863 0.70211 0.0
H1949 H 0.11338 0.04328 0.70767 0.0
H1950 H 0.23503 0.10982 0.71421 0.0
H1951 H 0.05648 0.11408 0.70987 0.0
C1952 C 0.06614 0.15113 0.70621 0.0
C1953 C 0.10084 0.16983 0.70392 0.0
C1954 C 0.20836 0.09523 0.71282 0.0
C1955 C 0.13715 0.12376 0.70798 0.0
C1956 C 0.22589 0.07192 0.71403 0.0
C1957 C 0.19226 0.05266 0.71206 0.0
C1958 C 0.15674 0.09934 0.70977 0.0
C1959 C 0.14065 0.05754 0.70924 0.0
C1960 C 0.08406 0.12818 0.70818 0.0
C1961 C 0.15378 0.16474 0.7038 0.0
N1962 N 0.12445 0.08044 0.70818 0.0
N1963 N 0.17043 0.14211 0.70584 0.0
H1964 H 0.93464 0.79368 0.4546 0.0
H1965 H 0.86521 0.93224 0.45632 0.0
H1966 H 0.77883 0.82099 0.4553 0.0
H1967 H 1.01512 0.90468 0.4661 0.0
H1968 H 0.83376 0.89137 0.45441 0.0
H1969 H 0.96673 0.83455 0.4571 0.0
C1970 C 0.90731 0.80821 0.45527 0.0
C1971 C 0.8541 0.80395 0.45483 0.0
C1972 C 0.87346 0.89433 0.45706 0.0
C1973 C 0.89017 0.85039 0.4576 0.0
C1974 C 0.89134 0.91764 0.45816 0.0
C1975 C 0.94276 0.92188 0.46139 0.0
C1976 C 0.90744 0.87522 0.45906 0.0
C1977 C 0.97507 0.90227 0.46363 0.0
C1978 C 0.92553 0.83146 0.45674 0.0
C1979 C 0.82023 0.82339 0.45571 0.0
N1980 N 0.95696 0.87978 0.46234 0.0
N1981 N 0.83884 0.84574 0.45702 0.0
H1982 H 0.8638 0.79133 0.33489 0.0
H1983 H 0.93734 0.92958 0.33564 0.0
H1984 H 1.01226 0.81807 0.32341 0.0
H1985 H 0.78129 0.90289 0.33778 0.0
H1986 H 0.96787 0.88852 0.33281 0.0
H1987 H 0.83407 0.83232 0.3373 0.0
C1988 C 0.88993 0.80578 0.33276 0.0
C1989 C 0.94049 0.80128 0.32894 0.0
C1990 C 0.92695 0.89178 0.33388 0.0
C1991 C 0.90719 0.84809 0.33186 0.0
C1992 C 0.90967 0.91513 0.33555 0.0
C1993 C 0.85681 0.91961 0.33684 0.0
C1994 C 0.89102 0.873 0.33365 0.0
C1995 C 0.82241 0.90029 0.33667 0.0
C1996 C 0.87306 0.82917 0.33418 0.0
C1997 C 0.97286 0.8207 0.32637 0.0
N1998 N 0.84012 0.87786 0.33512 0.0
N1999 N 0.95576 0.84328 0.32795 0.0
H2000 H 0.68108 0.54612 0.58707 0.0
H2001 H 0.61024 0.68446 0.5845 0.0
H2002 H 0.52513 0.573 0.58506 0.0
H2003 H 0.76158 0.65725 0.57572 0.0
H2004 H 0.57911 0.64351 0.58631 0.0
H2005 H 0.71301 0.58705 0.58465 0.0
C2006 C 0.65369 0.56056 0.58612 0.0
C2007 C 0.60049 0.55616 0.58619 0.0
C2008 C 0.61907 0.64657 0.58391 0.0
C2009 C 0.63636 0.60266 0.58352 0.0
C2010 C 0.63676 0.66991 0.58286 0.0
C2011 C 0.68846 0.67427 0.57994 0.0
C2012 C 0.65351 0.62754 0.58215 0.0
C2013 C 0.7213 0.65474 0.57795 0.0
C2014 C 0.67182 0.58384 0.5847 0.0
C2015 C 0.56653 0.5755 0.58495 0.0
N2016 N 0.70334 0.63221 0.57917 0.0
N2017 N 0.58505 0.59788 0.58371 0.0
H2018 H 0.6145 0.54148 0.70682 0.0
H2019 H 0.6872 0.67978 0.70513 0.0
H2020 H 0.76545 0.56797 0.71649 0.0
H2021 H 0.53103 0.65291 0.70547 0.0
H2022 H 0.71864 0.63878 0.70774 0.0
H2023 H 0.58432 0.58251 0.70499 0.0
C2024 C 0.64115 0.55589 0.70866 0.0
C2025 C 0.6925 0.55126 0.71182 0.0
C2026 C 0.67751 0.642 0.70727 0.0
C2027 C 0.65855 0.5982 0.70957 0.0
C2028 C 0.65966 0.66532 0.70573 0.0
C2029 C 0.60652 0.66976 0.70515 0.0
C2030 C 0.64184 0.62317 0.70807 0.0
C2031 C 0.57238 0.6504 0.70598 0.0
C2032 C 0.62397 0.57931 0.7076 0.0
C2033 C 0.72543 0.57067 0.71407 0.0
N2034 N 0.59062 0.62801 0.70736 0.0
N2035 N 0.70798 0.59331 0.71281 0.0
H2036 H 0.36401 0.42964 0.4564 0.0
H2037 H 0.44286 0.29257 0.4523 0.0
H2038 H 0.51697 0.40405 0.46488 0.0
H2039 H 0.28562 0.31667 0.45663 0.0
H2040 H 0.47213 0.33386 0.45487 0.0
H2041 H 0.33503 0.38828 0.45454 0.0
C2042 C 0.39132 0.41537 0.45795 0.0
C2043 C 0.44284 0.42029 0.46083 0.0
C2044 C 0.43126 0.32995 0.4553 0.0
C2045 C 0.41039 0.37318 0.45854 0.0
C2046 C 0.41462 0.30647 0.4538 0.0
C2047 C 0.36186 0.30117 0.45431 0.0
C2048 C 0.39472 0.34812 0.45713 0.0
C2049 C 0.32677 0.31986 0.45627 0.0
C2050 C 0.37486 0.39182 0.45688 0.0
C2051 C 0.47677 0.40111 0.4627 0.0
N2052 N 0.34382 0.34249 0.45754 0.0
N2053 N 0.46002 0.3784 0.46144 0.0
H2054 H 0.36636 0.29172 0.33154 0.0
H2055 H 0.43656 0.42998 0.33493 0.0
H2056 H 0.51669 0.31939 0.32217 0.0
H2057 H 0.28068 0.40274 0.33406 0.0
H2058 H 0.4685 0.38928 0.33172 0.0
H2059 H 0.33507 0.33252 0.33371 0.0
C2060 C 0.39261 0.30634 0.32983 0.0
C2061 C 0.44412 0.30215 0.32667 0.0
C2062 C 0.42732 0.39236 0.33219 0.0
C2063 C 0.40899 0.34874 0.32931 0.0
C2064 C 0.40919 0.41551 0.33407 0.0
C2065 C 0.356 0.41974 0.33469 0.0
C2066 C 0.39188 0.37351 0.33109 0.0
C2067 C 0.32206 0.40037 0.33354 0.0
C2068 C 0.37482 0.32961 0.33109 0.0
C2069 C 0.47658 0.32178 0.32459 0.0
N2070 N 0.34059 0.37813 0.33183 0.0
N2071 N 0.45856 0.34425 0.32604 0.0
H2072 H 0.52468 0.07462 0.08485 0.0
H2073 H 0.77537 0.1536 0.07395 0.0
H2074 H 0.6788 0.04544 0.08595 0.0
H2075 H 0.62594 0.18304 0.08263 0.0
H2076 H 0.7398 0.11365 0.0761 0.0
H2077 H 0.56072 0.11408 0.08198 0.0
C2078 C 0.56625 0.07647 0.08446 0.0
C2079 C 0.59884 0.05662 0.08561 0.0
C2080 C 0.71483 0.12885 0.07751 0.0
C2081 C 0.64032 0.10203 0.08231 0.0
C2082 C 0.73493 0.15171 0.07621 0.0
C2083 C 0.70351 0.17175 0.07811 0.0
C2084 C 0.66283 0.12598 0.08063 0.0
C2085 C 0.65155 0.16813 0.08108 0.0
C2086 C 0.58674 0.09909 0.08286 0.0
C2087 C 0.65232 0.06025 0.08512 0.0
N2088 N 0.63282 0.14566 0.08224 0.0
N2089 N 0.67147 0.08257 0.08345 0.0
H2090 H 0.68963 0.18138 0.20451 0.0
H2091 H 0.61365 0.04337 0.20508 0.0
H2092 H 0.53412 0.15486 0.2005 0.0
H2093 H 0.76108 0.06962 0.21751 0.0
H2094 H 0.58504 0.08442 0.20237 0.0
H2095 H 0.71911 0.14029 0.2079 0.0
C2096 C 0.66188 0.16696 0.2043 0.0
C2097 C 0.60944 0.17149 0.20234 0.0
C2098 C 0.62355 0.08116 0.20578 0.0
C2099 C 0.64242 0.1249 0.20616 0.0
C2100 C 0.63975 0.05773 0.20737 0.0
C2101 C 0.68975 0.05307 0.21151 0.0
C2102 C 0.65778 0.09997 0.20824 0.0
C2103 C 0.72213 0.07239 0.21429 0.0
C2104 C 0.67854 0.14361 0.2063 0.0
C2105 C 0.5749 0.15223 0.20214 0.0
N2106 N 0.7057 0.09502 0.21252 0.0
N2107 N 0.592 0.12982 0.20402 0.0
H2108 H 0.27331 0.81916 0.95993 0.0
H2109 H 0.51316 0.90575 0.96726 0.0
H2110 H 0.43087 0.79537 0.95565 0.0
H2111 H 0.36052 0.93058 0.9579 0.0
H2112 H 0.48207 0.86493 0.96654 0.0
H2113 H 0.30395 0.8596 0.96267 0.0
C2114 C 0.3145 0.82235 0.95964 0.0
C2115 C 0.34969 0.80377 0.95751 0.0
C2116 C 0.4554 0.87932 0.96469 0.0
C2117 C 0.38472 0.85026 0.96067 0.0
C2118 C 0.47289 0.90268 0.96516 0.0
C2119 C 0.4393 0.92165 0.96259 0.0
C2120 C 0.40382 0.87486 0.96176 0.0
C2121 C 0.38771 0.9165 0.95991 0.0
C2122 C 0.3318 0.84554 0.96116 0.0
C2123 C 0.40245 0.80915 0.95722 0.0
N2124 N 0.37148 0.8935 0.95956 0.0
N2125 N 0.41845 0.832 0.9588 0.0
H2126 H 0.52667 0.82457 0.82623 0.0
H2127 H 0.28054 0.90808 0.8313 0.0
H2128 H 0.37384 0.79753 0.83366 0.0
H2129 H 0.43589 0.9338 0.83682 0.0
H2130 H 0.31383 0.86788 0.82917 0.0
H2131 H 0.49313 0.86496 0.82704 0.0
C2132 C 0.48589 0.82707 0.82794 0.0
C2133 C 0.45291 0.80759 0.8299 0.0
C2134 C 0.34062 0.88231 0.83084 0.0
C2135 C 0.41456 0.85391 0.83085 0.0
C2136 C 0.32179 0.90535 0.832 0.0
C2137 C 0.35559 0.9244 0.83425 0.0
C2138 C 0.3937 0.87825 0.83181 0.0
C2139 C 0.40851 0.91964 0.83512 0.0
C2140 C 0.46695 0.85019 0.82847 0.0
C2141 C 0.40058 0.81202 0.83212 0.0
N2142 N 0.42603 0.89697 0.83387 0.0
N2143 N 0.38293 0.83479 0.83252 0.0
H2144 H 0.69941 0.46449 0.10105 0.0
H2145 H 0.41971 0.50814 0.07917 0.0
H2146 H 0.67519 0.52157 0.07558 0.0
H2147 H 0.44339 0.45096 0.10461 0.0
H2148 H 0.51314 0.51333 0.07779 0.0
H2149 H 0.60589 0.4596 0.10271 0.0
C2150 C 0.67454 0.47608 0.09584 0.0
C2151 C 0.69554 0.49343 0.08813 0.0
C2152 C 0.49791 0.49967 0.0837 0.0
C2153 C 0.58801 0.48776 0.08991 0.0
C2154 C 0.44445 0.4966 0.08444 0.0
C2155 C 0.42331 0.47907 0.09203 0.0
C2156 C 0.53083 0.4851 0.09056 0.0
C2157 C 0.45763 0.46493 0.09877 0.0
C2158 C 0.62105 0.47318 0.09675 0.0
C2159 C 0.66107 0.50768 0.0815 0.0
N2160 N 0.50951 0.46823 0.09786 0.0
N2161 N 0.60921 0.50453 0.08254 0.0
H2162 H 0.61652 0.75733 0.06132 0.0
H2163 H 0.86489 0.74143 0.10373 0.0
H2164 H 0.61036 0.72816 0.09732 0.0
H2165 H 0.87132 0.77161 0.06794 0.0
H2166 H 0.77173 0.73666 0.10155 0.0
H2167 H 0.70958 0.76282 0.06357 0.0
C2168 C 0.63468 0.75202 0.06969 0.0
C2169 C 0.60531 0.74218 0.07913 0.0
C2170 C 0.79346 0.74434 0.09417 0.0
C2171 C 0.71227 0.74859 0.0818 0.0
C2172 C 0.84675 0.74719 0.09542 0.0
C2173 C 0.87627 0.75705 0.08602 0.0
C2174 C 0.76908 0.75138 0.08342 0.0
C2175 C 0.85043 0.76371 0.07539 0.0
C2176 C 0.68789 0.75526 0.07099 0.0
C2177 C 0.63111 0.73604 0.08985 0.0
N2178 N 0.79844 0.7608 0.07439 0.0
N2179 N 0.68299 0.73927 0.09086 0.0
H2180 H 0.67527 0.76848 0.19296 0.0
H2181 H 0.39556 0.71163 0.20456 0.0
H2182 H 0.65114 0.69815 0.20761 0.0
H2183 H 0.41961 0.7812 0.18901 0.0
H2184 H 0.48907 0.70666 0.2061 0.0
H2185 H 0.58177 0.77358 0.19153 0.0
C2186 C 0.65041 0.75407 0.19583 0.0
C2187 C 0.67135 0.73287 0.20045 0.0
C2188 C 0.47389 0.72301 0.20234 0.0
C2189 C 0.56396 0.73869 0.19894 0.0
C2190 C 0.42043 0.72591 0.20152 0.0
C2191 C 0.39949 0.74684 0.19661 0.0
C2192 C 0.50686 0.74118 0.19826 0.0
C2193 C 0.43384 0.7646 0.19268 0.0
C2194 C 0.59695 0.75704 0.19507 0.0
C2195 C 0.63696 0.71495 0.20418 0.0
N2196 N 0.48568 0.76138 0.19359 0.0
N2197 N 0.58512 0.71826 0.20334 0.0
H2198 H 0.89172 0.46651 0.22478 0.0
H2199 H 0.62702 0.49793 0.19077 0.0
H2200 H 0.88328 0.48747 0.18736 0.0
H2201 H 0.63568 0.47957 0.22854 0.0
H2202 H 0.72056 0.49327 0.18926 0.0
H2203 H 0.79817 0.47115 0.22635 0.0
C2204 C 0.87036 0.4723 0.21692 0.0
C2205 C 0.89571 0.47657 0.20591 0.0
C2206 C 0.70202 0.49022 0.19788 0.0
C2207 C 0.78805 0.48158 0.20761 0.0
C2208 C 0.64846 0.4927 0.19873 0.0
C2209 C 0.62319 0.48915 0.20981 0.0
C2210 C 0.73083 0.48409 0.20816 0.0
C2211 C 0.6534 0.48279 0.21985 0.0
C2212 C 0.81679 0.47477 0.2178 0.0
C2213 C 0.86555 0.48364 0.19598 0.0
N2214 N 0.70547 0.48047 0.21878 0.0
N2215 N 0.81349 0.48589 0.19707 0.0
H2216 H 0.65086 0.50059 0.97392 0.0
H2217 H 0.38481 0.47825 0.93868 0.0
H2218 H 0.64107 0.48861 0.9355 0.0
H2219 H 0.3948 0.48734 0.97728 0.0
H2220 H 0.47835 0.48303 0.9373 0.0
H2221 H 0.55728 0.49589 0.97535 0.0
C2222 C 0.62919 0.49676 0.96579 0.0
C2223 C 0.65415 0.49504 0.95456 0.0
C2224 C 0.46011 0.48402 0.94607 0.0
C2225 C 0.5465 0.48998 0.95613 0.0
C2226 C 0.40655 0.48148 0.94686 0.0
C2227 C 0.38167 0.48237 0.95812 0.0
C2228 C 0.48929 0.48755 0.95661 0.0
C2229 C 0.41223 0.4862 0.96842 0.0
C2230 C 0.57561 0.49425 0.96661 0.0
C2231 C 0.62363 0.49044 0.94433 0.0
N2232 N 0.46429 0.48864 0.96742 0.0
N2233 N 0.57158 0.48811 0.94536 0.0
H2234 H 0.4128 0.26029 0.92872 0.0
H2235 H 0.16636 0.20547 0.96253 0.0
H2236 H 0.42211 0.2203 0.96191 0.0
H2237 H 0.15692 0.24626 0.92959 0.0
H2238 H 0.25999 0.2105 0.96239 0.0
H2239 H 0.31924 0.25503 0.9288 0.0
C2240 C 0.39522 0.25043 0.93604 0.0
C2241 C 0.42559 0.2408 0.94535 0.0
C2242 C 0.23747 0.2184 0.9552 0.0
C2243 C 0.31809 0.23459 0.94545 0.0
C2244 C 0.18393 0.21546 0.95525 0.0
C2245 C 0.15351 0.2254 0.94604 0.0
C2246 C 0.26108 0.23135 0.94587 0.0
C2247 C 0.17858 0.2385 0.93696 0.0
C2248 C 0.34172 0.24736 0.93605 0.0
C2249 C 0.40051 0.22783 0.95447 0.0
N2250 N 0.2308 0.24102 0.93708 0.0
N2251 N 0.34832 0.22519 0.95432 0.0
H2252 H 0.63455 0.21332 0.81277 0.0
H2253 H 0.37244 0.25351 0.84548 0.0
H2254 H 0.62867 0.24307 0.84866 0.0
H2255 H 0.37852 0.22648 0.80905 0.0
H2256 H 0.46598 0.24889 0.84696 0.0
H2257 H 0.54098 0.21788 0.81123 0.0
C2258 C 0.61374 0.22101 0.82029 0.0
C2259 C 0.6398 0.22779 0.83087 0.0
C2260 C 0.44688 0.24393 0.83864 0.0
C2261 C 0.53215 0.23275 0.82922 0.0
C2262 C 0.39332 0.24639 0.83782 0.0
C2263 C 0.36734 0.24037 0.82712 0.0
C2264 C 0.47496 0.23533 0.8287 0.0
C2265 C 0.39682 0.23163 0.81743 0.0
C2266 C 0.56016 0.22345 0.81944 0.0
C2267 C 0.61036 0.23727 0.84039 0.0
N2268 N 0.44891 0.22937 0.81845 0.0
N2269 N 0.55828 0.23944 0.83934 0.0
H2270 H 0.1814 0.54391 0.84847 0.0
H2271 H 0.41068 0.45502 0.83054 0.0
H2272 H 0.15741 0.47222 0.83562 0.0
H2273 H 0.43594 0.52677 0.8432 0.0
H2274 H 0.31787 0.46149 0.83188 0.0
H2275 H 0.27444 0.53832 0.84631 0.0
C2276 C 0.19563 0.52696 0.84522 0.0
C2277 C 0.16129 0.50848 0.84227 0.0
C2278 C 0.34364 0.47587 0.83434 0.0
C2279 C 0.26813 0.50204 0.83966 0.0
C2280 C 0.3968 0.47225 0.8335 0.0
C2281 C 0.43148 0.49042 0.83671 0.0
C2282 C 0.32461 0.49782 0.83845 0.0
C2283 C 0.41086 0.51216 0.84073 0.0
C2284 C 0.24883 0.52383 0.84393 0.0
C2285 C 0.18217 0.48707 0.83789 0.0
N2286 N 0.35886 0.51524 0.84149 0.0
N2287 N 0.23412 0.48443 0.83676 0.0
H2288 H 0.3997 0.00946 0.5804 0.0
H2289 H 0.67649 0.96493 0.60355 0.0
H2290 H 0.42051 0.95355 0.60668 0.0
H2291 H 0.6555 0.02135 0.57756 0.0
H2292 H 0.58282 0.96048 0.60483 0.0
H2293 H 0.49337 0.0138 0.57908 0.0
C2294 C 0.42391 -0.00197 0.58587 0.0
C2295 C 0.40203 0.98115 0.59369 0.0
C2296 C 0.59872 0.9738 0.59883 0.0
C2297 C 0.50951 0.98615 0.59229 0.0
C2298 C 0.65225 0.97643 0.59814 0.0
C2299 C 0.67409 -0.00649 0.59042 0.0
C2300 C 0.56662 -0.01163 0.59176 0.0
C2301 C 0.64058 0.00769 0.5835 0.0
C2302 C 0.47744 0.0006 0.58515 0.0
C2303 C 0.43549 0.96706 0.60066 0.0
N2304 N 0.58865 0.00482 0.58435 0.0
N2305 N 0.48744 0.96987 0.59979 0.0
H2306 H 0.61645 0.25189 0.59566 0.0
H2307 H 0.89128 0.25045 0.56234 0.0
H2308 H 0.63563 0.23635 0.55777 0.0
H2309 H 0.87058 0.26854 0.59989 0.0
H2310 H 0.79786 0.24542 0.56042 0.0
H2311 H 0.70915 0.25903 0.59722 0.0
C2312 C 0.63996 0.25022 0.58763 0.0
C2313 C 0.61789 0.24343 0.57657 0.0
C2314 C 0.81375 0.25055 0.56907 0.0
C2315 C 0.72473 0.25122 0.57835 0.0
C2316 C 0.86719 0.25329 0.5702 0.0
C2317 C 0.88907 0.25996 0.58129 0.0
C2318 C 0.78172 0.25441 0.57912 0.0
C2319 C 0.85561 0.26371 0.59111 0.0
C2320 C 0.69309 0.25412 0.58855 0.0
C2321 C 0.65081 0.24117 0.56653 0.0
N2322 N 0.80381 0.26083 0.5898 0.0
N2323 N 0.70243 0.24498 0.56767 0.0
H2324 H 0.65126 0.20366 0.70847 0.0
H2325 H 0.42225 0.28671 0.68426 0.0
H2326 H 0.67668 0.2702 0.68989 0.0
H2327 H 0.39773 0.2205 0.70318 0.0
H2328 H 0.51529 0.28135 0.68648 0.0
H2329 H 0.55845 0.21014 0.70706 0.0
C2330 C 0.63745 0.21977 0.70419 0.0
C2331 C 0.67218 0.23644 0.69933 0.0
C2332 C 0.48958 0.26802 0.69018 0.0
C2333 C 0.56527 0.24378 0.6975 0.0
C2334 C 0.43635 0.271 0.68885 0.0
C2335 C 0.40184 0.25399 0.69349 0.0
C2336 C 0.50877 0.24786 0.69618 0.0
C2337 C 0.42263 0.23422 0.69956 0.0
C2338 C 0.58427 0.22337 0.70331 0.0
C2339 C 0.65158 0.25671 0.69366 0.0
N2340 N 0.47461 0.23168 0.70069 0.0
N2341 N 0.59958 0.25979 0.6929 0.0
H2342 H 0.89282 0.97587 0.72513 0.0
H2343 H 0.61826 0.97685 0.69168 0.0
H2344 H 0.87257 0.96023 0.68729 0.0
H2345 H 0.63733 -0.00975 0.72978 0.0
H2346 H 0.711 0.96983 0.69002 0.0
H2347 H 0.79947 0.98109 0.72705 0.0
C2348 C 0.86886 0.97362 0.71721 0.0
C2349 C 0.89086 0.96757 0.70603 0.0
C2350 C 0.6949 0.97425 0.69875 0.0
C2351 C 0.78352 0.97333 0.7082 0.0
C2352 C 0.64175 0.97809 0.69973 0.0
C2353 C 0.61962 0.98423 0.71088 0.0
C2354 C 0.72651 0.97656 0.70899 0.0
C2355 C 0.65253 0.98594 0.72095 0.0
C2356 C 0.81544 0.97646 0.71833 0.0
C2357 C 0.85751 0.96456 0.69613 0.0
N2358 N 0.70416 0.98219 0.71975 0.0
N2359 N 0.80571 0.96752 0.69744 0.0
H2360 H 0.64837 0.96842 0.46831 0.0
H2361 H 0.36794 0.01751 0.45023 0.0
H2362 H 0.62365 0.03012 0.44582 0.0
H2363 H 0.39271 0.95436 0.47166 0.0
H2364 H 0.46138 0.02268 0.4487 0.0
H2365 H 0.55488 0.96355 0.47005 0.0
C2366 C 0.62338 0.98103 0.46378 0.0
C2367 C 0.64419 -0.00032 0.45687 0.0
C2368 C 0.44637 0.00771 0.45376 0.0
C2369 C 0.53672 -0.00594 0.45876 0.0
C2370 C 0.3929 0.00466 0.45458 0.0
C2371 C 0.37208 0.98547 0.4611 0.0
C2372 C 0.47956 -0.00854 0.45949 0.0
C2373 C 0.4067 0.96964 0.46669 0.0
C2374 C 0.56991 0.97815 0.46473 0.0
C2375 C 0.6096 0.01525 0.45109 0.0
N2376 N 0.45853 0.97297 0.46575 0.0
N2377 N 0.55776 0.0121 0.45217 0.0
H2378 H 0.42372 0.72063 0.46551 0.0
H2379 H 0.15478 0.74873 0.43266 0.0
H2380 H 0.41104 0.76132 0.4326 0.0
H2381 H 0.1677 0.70705 0.46524 0.0
H2382 H 0.24838 0.75405 0.43266 0.0
H2383 H 0.33018 0.71517 0.46547 0.0
C2384 C 0.40141 0.72823 0.45821 0.0
C2385 C 0.42552 0.74149 0.44905 0.0
C2386 C 0.23075 0.74377 0.43982 0.0
C2387 C 0.31794 0.7356 0.44906 0.0
C2388 C 0.17718 0.74088 0.43988 0.0
C2389 C 0.15312 0.7274 0.44896 0.0
C2390 C 0.26073 0.73315 0.44892 0.0
C2391 C 0.18448 0.71732 0.45797 0.0
C2392 C 0.34786 0.72526 0.45824 0.0
C2393 C 0.39423 0.75124 0.43994 0.0
N2394 N 0.23652 0.72039 0.45771 0.0
N2395 N 0.3422 0.74813 0.44018 0.0
H2396 H 0.37099 0.71485 0.31562 0.0
H2397 H 0.63928 0.74972 0.34711 0.0
H2398 H 0.38326 0.76267 0.34598 0.0
H2399 H 0.62695 0.70041 0.31738 0.0
H2400 H 0.54581 0.7553 0.34655 0.0
H2401 H 0.46449 0.70925 0.31614 0.0
C2402 C 0.39319 0.72402 0.32247 0.0
C2403 C 0.36895 0.7393 0.33076 0.0
C2404 C 0.56353 0.74328 0.34013 0.0
C2405 C 0.47652 0.73321 0.33128 0.0
C2406 C 0.61705 0.74022 0.34039 0.0
C2407 C 0.64126 0.72455 0.33228 0.0
C2408 C 0.53371 0.73062 0.3317 0.0
C2409 C 0.61006 0.71244 0.32391 0.0
C2410 C 0.44673 0.72095 0.3227 0.0
C2411 C 0.40013 0.75099 0.33929 0.0
N2412 N 0.55805 0.71572 0.32384 0.0
N2413 N 0.45214 0.74772 0.33932 0.0
H2414 H 0.16169 0.00409 0.3243 0.0
H2415 H 0.42556 0.97727 0.35954 0.0
H2416 H 0.16912 0.98671 0.36221 0.0
H2417 H 0.41782 -0.00791 0.32136 0.0
H2418 H 0.33192 0.98168 0.36079 0.0
H2419 H 0.25537 -0.00014 0.32304 0.0
C2420 C 0.1829 -0.00084 0.33234 0.0
C2421 C 0.15728 -0.00423 0.34338 0.0
C2422 C 0.35069 0.98402 0.35213 0.0
C2423 C 0.26496 -0.00874 0.34204 0.0
C2424 C 0.40427 0.98169 0.35143 0.0
C2425 C 0.42976 0.98429 0.34032 0.0
C2426 C 0.32215 -0.01095 0.34166 0.0
C2427 C 0.39986 -0.01038 0.33009 0.0
C2428 C 0.23651 -0.00307 0.33163 0.0
C2429 C 0.18713 -0.01019 0.35354 0.0
N2430 N 0.34775 -0.00819 0.33101 0.0
N2431 N 0.23926 0.98778 0.35262 0.0
H2432 H 0.17541 0.4585 0.59825 0.0
H2433 H 0.89591 0.51545 0.58653 0.0
H2434 H 0.15138 0.53055 0.58592 0.0
H2435 H 0.91974 0.44352 0.59906 0.0
H2436 H 0.98936 0.5214 0.58638 0.0
H2437 H 0.08193 0.45254 0.59845 0.0
C2438 C 0.15057 0.47304 0.59553 0.0
C2439 C 0.17151 0.4951 0.5921 0.0
C2440 C 0.97414 0.5043 0.58915 0.0
C2441 C 0.06416 0.48845 0.59241 0.0
C2442 C 0.92069 0.50093 0.5893 0.0
C2443 C 0.8997 0.47892 0.59277 0.0
C2444 C 1.00706 0.48555 0.59251 0.0
C2445 C 0.93401 0.46068 0.59612 0.0
C2446 C 0.09712 0.46967 0.59571 0.0
C2447 C 0.13716 0.51336 0.58882 0.0
N2448 N 0.98584 0.4644 0.59591 0.0
N2449 N 0.08534 0.50963 0.58905 0.0
H2450 H 0.39312 0.71849 0.57449 0.0
H2451 H 0.11271 0.77191 0.58908 0.0
H2452 H 0.36831 0.78457 0.5935 0.0
H2453 H 0.13748 0.70463 0.57117 0.0
H2454 H 0.20616 0.77706 0.59061 0.0
H2455 H 0.29964 0.71356 0.57275 0.0
C2456 C 0.3681 0.73203 0.57825 0.0
C2457 C 0.38885 0.75194 0.58419 0.0
C2458 C 0.19114 0.76118 0.58633 0.0
C2459 C 0.28145 0.7463 0.58232 0.0
C2460 C 0.13768 0.75816 0.58551 0.0
C2461 C 0.11689 0.73781 0.57996 0.0
C2462 C 0.22432 0.74373 0.58158 0.0
C2463 C 0.15149 0.72079 0.57535 0.0
C2464 C 0.31465 0.72913 0.57732 0.0
C2465 C 0.35427 0.76874 0.58901 0.0
N2466 N 0.20332 0.72413 0.57627 0.0
N2467 N 0.30244 0.76554 0.58797 0.0
H2468 H 0.90178 0.71245 0.70675 0.0
H2469 H 0.18166 0.76774 0.69345 0.0
H2470 H 0.9259 0.78044 0.68949 0.0
H2471 H 0.1574 0.69899 0.70992 0.0
H2472 H 0.08816 0.7728 0.69198 0.0
H2473 H 0.99529 0.70751 0.7083 0.0
C2474 C 0.92665 0.7264 0.70333 0.0
C2475 C 0.90571 0.74687 0.69795 0.0
C2476 C 0.1033 0.75662 0.69594 0.0
C2477 C 1.01314 0.74123 0.69961 0.0
C2478 C 0.15678 0.75365 0.69672 0.0
C2479 C 0.17771 0.73292 0.70185 0.0
C2480 C 0.07027 0.73872 0.7003 0.0
C2481 C 0.14326 0.71545 0.70607 0.0
C2482 C 0.98013 0.72351 0.70416 0.0
C2483 C 0.94011 0.76419 0.69355 0.0
N2484 N 0.09142 0.71874 0.7052 0.0
N2485 N 0.99196 0.76098 0.69448 0.0
H2486 H 0.11913 0.47442 0.69194 0.0
H2487 H 0.39456 0.47547 0.72504 0.0
H2488 H 0.13904 0.49005 0.7298 0.0
H2489 H 0.37347 0.45778 0.68746 0.0
H2490 H 0.30122 0.48072 0.72701 0.0
H2491 H 0.21185 0.46734 0.69027 0.0
C2492 C 0.14279 0.47614 0.69994 0.0
C2493 C 0.12088 0.48292 0.71103 0.0
C2494 C 0.317 0.47563 0.71834 0.0
C2495 C 0.2278 0.47518 0.70911 0.0
C2496 C 0.37042 0.47277 0.71718 0.0
C2497 C 0.39221 0.46614 0.70606 0.0
C2498 C 0.28484 0.47193 0.70829 0.0
C2499 C 0.35861 0.46257 0.69626 0.0
C2500 C 0.19595 0.47226 0.69895 0.0
C2501 C 0.15405 0.48523 0.72101 0.0
N2502 N 0.30682 0.46555 0.6976 0.0
N2503 N 0.20567 0.48143 0.71981 0.0
H2504 H 0.86515 0.51666 0.45001 0.0
H2505 H 0.14496 0.46656 0.46777 0.0
H2506 H 0.8893 0.45358 0.47153 0.0
H2507 H 0.12078 0.52836 0.44532 0.0
H2508 H 0.05144 0.462 0.46961 0.0
H2509 H 0.95863 0.52144 0.44833 0.0
C2510 C 0.89001 0.50375 0.45435 0.0
C2511 C 0.86905 0.4847 0.46095 0.0
C2512 C 0.0666 0.47654 0.46427 0.0
C2513 C 0.97647 0.49022 0.45915 0.0
C2514 C 0.12007 0.47924 0.46327 0.0
C2515 C 0.14099 0.49783 0.45634 0.0
C2516 C 0.03359 0.49259 0.45834 0.0
C2517 C 0.10658 0.51353 0.4506 0.0
C2518 C 0.94347 0.50656 0.45344 0.0
C2519 C 0.90346 0.46876 0.46651 0.0
N2520 N 0.05474 0.51056 0.45173 0.0
N2521 N 0.95531 0.47186 0.46548 0.0
H2522 H 0.94063 0.19852 0.44321 0.0
H2523 H 0.6582 0.25405 0.45245 0.0
H2524 H 0.91226 0.26931 0.45685 0.0
H2525 H 0.68517 0.18343 0.43845 0.0
H2526 H 0.75122 0.25944 0.45462 0.0
H2527 H 0.84741 0.19236 0.44158 0.0
C2528 C 0.9149 0.2128 0.44583 0.0
C2529 C 0.93456 0.23445 0.45021 0.0
C2530 C 0.73683 0.24274 0.45109 0.0
C2531 C 0.82755 0.22743 0.44846 0.0
C2532 C 0.68359 0.23958 0.44992 0.0
C2533 C 0.66359 0.21825 0.44525 0.0
C2534 C 0.77061 0.22444 0.44756 0.0
C2535 C 0.6987 0.20031 0.44194 0.0
C2536 C 0.86162 0.20922 0.44496 0.0
C2537 C 0.8991 0.25217 0.45361 0.0
N2538 N 0.75038 0.20382 0.44315 0.0
N2539 N 0.84751 0.24828 0.45265 0.0
H2540 H 0.14385 0.24986 0.34563 0.0
H2541 H 0.87563 0.2168 0.3136 0.0
H2542 H 0.13164 0.20255 0.31508 0.0
H2543 H 0.88777 0.263 0.3446 0.0
H2544 H 0.96914 0.21121 0.31404 0.0
H2545 H 0.05036 0.25545 0.34515 0.0
C2546 C 0.12164 0.24081 0.33875 0.0
C2547 C 0.1459 0.22569 0.33039 0.0
C2548 C 0.95135 0.22255 0.32076 0.0
C2549 C 0.03832 0.23177 0.32989 0.0
C2550 C 0.8978 0.22561 0.32057 0.0
C2551 C 0.87351 0.24043 0.32907 0.0
C2552 C 0.98111 0.23436 0.32951 0.0
C2553 C 0.90468 0.25168 0.33775 0.0
C2554 C 0.06811 0.24387 0.33854 0.0
C2555 C 0.11473 0.21413 0.32181 0.0
N2556 N 0.95669 0.24843 0.33774 0.0
N2557 N 0.06271 0.2174 0.32179 0.0
H2558 H 0.92579 0.50248 0.32492 0.0
H2559 H 0.65697 0.47543 0.35808 0.0
H2560 H 0.91316 0.46288 0.35817 0.0
H2561 H 0.66968 0.51578 0.32506 0.0
H2562 H 0.75058 0.47023 0.35813 0.0
H2563 H 0.83225 0.50795 0.32494 0.0
C2564 C 0.90348 0.49513 0.3323 0.0
C2565 C 0.9276 0.48216 0.34155 0.0
C2566 C 0.73291 0.48019 0.35086 0.0
C2567 C 0.82004 0.48805 0.34153 0.0
C2568 C 0.67933 0.48301 0.35077 0.0
C2569 C 0.65522 0.49608 0.34155 0.0
C2570 C 0.76284 0.49047 0.34165 0.0
C2571 C 0.68651 0.50583 0.33244 0.0
C2572 C 0.84993 0.4981 0.33225 0.0
C2573 C 0.89634 0.47271 0.35076 0.0
N2574 N 0.73857 0.50283 0.33273 0.0
N2575 N 0.84431 0.47582 0.3505 0.0
H2576 H 0.90744 0.9632 0.07404 0.0
H2577 H 0.15537 0.01095 0.10998 0.0
H2578 H 0.89938 -0.00331 0.10905 0.0
H2579 H 0.16331 0.97817 0.0748 0.0
H2580 H 0.06182 0.00562 0.10986 0.0
H2581 H 1.00106 0.96832 0.07421 0.0
C2582 C 0.9253 0.97159 0.08179 0.0
C2583 C 0.89522 0.97947 0.09156 0.0
C2584 C 0.08399 -0.00045 0.10217 0.0
C2585 C 1.00287 0.98552 0.09177 0.0
C2586 C 0.13751 0.00267 0.10221 0.0
C2587 C 0.16753 -0.00492 0.09237 0.0
C2588 C 0.05995 -0.01123 0.09221 0.0
C2589 C 0.14203 0.98408 0.08265 0.0
C2590 C 0.97885 0.97459 0.08185 0.0
C2591 C 0.92071 -0.00943 0.10124 0.0
N2592 N 0.08984 0.98133 0.08281 0.0
N2593 N 0.97293 -0.0068 0.10112 0.0
H2594 H 0.13989 0.25845 0.06234 0.0
H2595 H 0.40114 0.2237 0.09695 0.0
H2596 H 0.14481 0.21312 0.09376 0.0
H2597 H 0.39607 0.27071 0.06616 0.0
H2598 H 0.30749 0.21929 0.09577 0.0
H2599 H 0.23365 0.26281 0.06343 0.0
C2600 C 0.16064 0.24936 0.06946 0.0
C2601 C 0.13419 0.23538 0.07797 0.0
C2602 C 0.32683 0.23056 0.08926 0.0
C2603 C 0.24191 0.24039 0.0793 0.0
C2604 C 0.38039 0.23317 0.08995 0.0
C2605 C 0.40679 0.24766 0.08166 0.0
C2606 C 0.29911 0.24253 0.08021 0.0
C2607 C 0.37766 0.25913 0.07267 0.0
C2608 C 0.21424 0.25193 0.0701 0.0
C2609 C 0.16329 0.22432 0.08709 0.0
N2610 N 0.32552 0.25637 0.07221 0.0
N2611 N 0.21544 0.22701 0.08749 0.0
H2612 H 0.91689 0.24232 0.21558 0.0
H2613 H 0.17707 0.24014 0.17648 0.0
H2614 H 0.92093 0.25217 0.17696 0.0
H2615 H 0.17359 0.23305 0.21526 0.0
H2616 H 0.08321 0.24436 0.17645 0.0
H2617 H 1.01082 0.23856 0.21563 0.0
C2618 C 0.93751 0.24373 0.20711 0.0
C2619 C 0.91085 0.24757 0.19625 0.0
C2620 C 0.10296 0.24195 0.18497 0.0
C2621 C 1.01857 0.24317 0.19623 0.0
C2622 C 0.15656 0.23946 0.18499 0.0
C2623 C 0.18331 0.23621 0.19589 0.0
C2624 C 0.07571 0.24108 0.19593 0.0
C2625 C 0.15471 0.23581 0.20666 0.0
C2626 C 0.99117 0.24152 0.20714 0.0
C2627 C 0.93967 0.2489 0.18553 0.0
N2628 N 0.10251 0.23812 0.2064 0.0
N2629 N 0.99189 0.24675 0.18579 0.0
H2630 H 0.37741 0.95577 0.22496 0.0
H2631 H 0.12989 0.01144 0.19199 0.0
H2632 H 0.38563 -0.0029 0.19218 0.0
H2633 H 0.12153 0.97028 0.22483 0.0
H2634 H 0.22347 0.00629 0.19189 0.0
H2635 H 0.28379 0.96088 0.22508 0.0
C2636 C 0.35957 0.9659 0.21777 0.0
C2637 C 0.38964 0.97597 0.20853 0.0
C2638 C 0.2012 -0.00166 0.19912 0.0
C2639 C 0.28211 0.982 0.20864 0.0
C2640 C 0.14769 0.00134 0.1992 0.0
C2641 C 0.11759 -0.00866 0.20846 0.0
C2642 C 0.2251 0.98525 0.20836 0.0
C2643 C 0.14294 0.9781 0.21744 0.0
C2644 C 0.30605 0.96888 0.21786 0.0
C2645 C 0.36425 -0.01077 0.19957 0.0
N2646 N 0.19513 0.97551 0.21718 0.0
N2647 N 0.31206 -0.00821 0.19983 0.0
H2648 H 0.87531 0.00234 0.97801 0.0
H2649 H 0.12916 0.97969 0.93825 0.0
H2650 H 0.87291 0.97084 0.94249 0.0
H2651 H 0.13128 0.01344 0.97324 0.0
H2652 H 0.03551 0.97586 0.93977 0.0
H2653 H 0.96904 0.00618 0.97654 0.0
C2654 C 0.89446 -0.00381 0.9699 0.0
C2655 C 0.86601 0.9862 0.96037 0.0
C2656 C 0.05643 0.98408 0.94713 0.0
C2657 C 0.97363 -0.00935 0.9586 0.0
C2658 C 0.10998 0.98635 0.94625 0.0
C2659 C 0.13836 -0.00302 0.95562 0.0
C2660 C 0.03075 -0.00751 0.95745 0.0
C2661 C 0.11125 0.00488 0.96585 0.0
C2662 C 0.94803 -0.00153 0.96905 0.0
C2663 C 0.89303 0.9789 0.95001 0.0
N2664 N 0.05906 0.00253 0.96647 0.0
N2665 N 0.94523 0.98119 0.94942 0.0
H2666 H 0.92949 0.70137 0.95422 0.0
H2667 H 0.64841 0.76033 0.95021 0.0
H2668 H 0.90176 0.77698 0.95182 0.0
H2669 H 0.67337 0.68457 0.95311 0.0
H2670 H 0.74119 0.76665 0.95191 0.0
H2671 H 0.83609 0.69471 0.95493 0.0
C2672 C 0.90384 0.71657 0.95394 0.0
C2673 C 0.92361 0.73976 0.95284 0.0
C2674 C 0.72643 0.74863 0.95223 0.0
C2675 C 0.81665 0.73226 0.95355 0.0
C2676 C 0.67329 0.74501 0.95135 0.0
C2677 C 0.65285 0.72186 0.95149 0.0
C2678 C 0.75971 0.72898 0.95325 0.0
C2679 C 0.68736 0.70271 0.95278 0.0
C2680 C 0.8505 0.71275 0.95428 0.0
C2681 C 0.8884 0.75876 0.95242 0.0
N2682 N 0.73903 0.70669 0.95357 0.0
N2683 N 0.83681 0.75458 0.95273 0.0
H2684 H 0.15085 0.72322 0.81631 0.0
H2685 H 0.88486 0.74986 0.85086 0.0
H2686 H 0.14113 0.73941 0.85432 0.0
H2687 H 0.89483 0.73657 0.81257 0.0
H2688 H 0.97837 0.74507 0.85237 0.0
H2689 H 0.05731 0.72791 0.81475 0.0
C2690 C 0.12922 0.72797 0.82431 0.0
C2691 C 0.15422 0.73088 0.83547 0.0
C2692 C 0.96013 0.74317 0.84364 0.0
C2693 C 0.04654 0.73593 0.83377 0.0
C2694 C 0.90658 0.74571 0.84278 0.0
C2695 C 0.88168 0.74364 0.83157 0.0
C2696 C 0.98931 0.73843 0.83321 0.0
C2697 C 0.91224 0.73864 0.82138 0.0
C2698 C 0.07564 0.73047 0.82343 0.0
C2699 C 0.1237 0.73663 0.84556 0.0
N2700 N 0.96429 0.73622 0.82245 0.0
N2701 N 0.07164 0.73893 0.84447 0.0
H2702 H 0.6761 0.04122 0.85307 0.0
H2703 H 0.90462 0.95804 0.82866 0.0
H2704 H 0.65114 0.97552 0.83372 0.0
H2705 H 0.93046 0.02394 0.84777 0.0
H2706 H 0.81185 0.96473 0.83001 0.0
H2707 H 0.76912 0.03556 0.85098 0.0
C2708 C 0.69009 0.02555 0.84841 0.0
C2709 C 0.65545 0.00877 0.84361 0.0
C2710 C 0.83776 0.97778 0.83389 0.0
C2711 C 0.76239 0.00231 0.84108 0.0
C2712 C 0.89091 0.97406 0.83305 0.0
C2713 C 0.92575 -0.00951 0.83806 0.0
C2714 C 0.81888 -0.00192 0.83982 0.0
C2715 C 0.90527 0.01064 0.84388 0.0
C2716 C 0.74332 0.0224 0.84717 0.0
C2717 C 0.67614 -0.01093 0.83746 0.0
N2718 N 0.85329 0.01385 0.84459 0.0
N2719 N 0.72812 0.98636 0.83642 0.0
H2720 H 0.03006 0.51392 0.05596 0.0
H2721 H 0.04884 0.45846 0.9892 0.0
H2722 H 0.08327 0.44264 0.04863 0.0
H2723 H 0.99552 0.52968 0.99666 0.0
H2724 H 0.06272 0.45237 1.01088 0.0
H2725 H 1.01654 0.51993 0.03428 0.0
C2726 C 0.03861 0.4995 0.04978 0.0
C2727 C 0.05791 0.47777 0.05409 0.0
C2728 C 0.0481 0.46936 1.00778 0.0
C2729 C 0.04291 0.48453 0.02924 0.0
C2730 C 0.04036 0.47286 0.9954 0.0
C2731 C 1.02088 0.49458 0.99113 0.0
C2732 C 0.03627 0.48773 1.01597 0.0
C2733 C 1.0105 0.51262 0.99956 0.0
C2734 C 0.03107 0.50294 0.0374 0.0
C2735 C 0.0684 0.45969 0.04569 0.0
N2736 N 1.01817 0.50878 1.01155 0.0
N2737 N 0.0609 0.46349 0.03368 0.0
H2738 H 0.22099 0.7501 0.98036 0.0
H2739 H 0.29171 0.72617 0.05008 0.0
H2740 H 0.35625 0.71231 0.99241 0.0
H2741 H 0.15789 0.76598 0.03893 0.0
H2742 H 0.31472 0.72035 0.02884 0.0
H2743 H 0.19522 0.75551 1.00159 0.0
C2744 C 0.24505 0.74288 0.98745 0.0
C2745 C 0.29077 0.73075 0.98461 0.0
C2746 C 0.28034 0.73042 0.03101 0.0
C2747 C 0.2619 0.73687 1.00886 0.0
C2748 C 0.26743 0.73383 0.04316 0.0
C2749 C 0.22325 0.7468 0.04627 0.0
C2750 C 0.24874 0.74 0.02188 0.0
C2751 C 0.19248 0.75594 0.03691 0.0
C2752 C 0.23048 0.74599 0.99956 0.0
C2753 C 0.3207 0.72181 0.99416 0.0
N2754 N 0.20581 0.75242 0.02515 0.0
N2755 N 0.30582 0.72506 1.0058 0.0
H2756 H 0.03383 0.76159 0.29871 0.0
H2757 H 1.00616 0.70856 0.23159 0.0
H2758 H 0.97921 0.69063 0.29114 0.0
H2759 H 0.05907 0.77972 0.23935 0.0
H2760 H 0.9952 0.70163 0.25332 0.0
H2761 H 0.04429 0.76838 0.277 0.0
C2762 C 1.02434 0.74739 0.29248 0.0
C2763 C 1.00551 0.72553 0.29674 0.0
C2764 C 1.00907 0.71879 0.25027 0.0
C2765 C 1.017 0.7332 0.27184 0.0
C2766 C 1.01512 0.72277 0.23786 0.0
C2767 C 0.03368 0.74473 0.23366 0.0
C2768 C 1.02168 0.7369 0.25854 0.0
C2769 C 0.04477 0.7625 0.24219 0.0
C2770 C 0.03012 0.75129 0.28007 0.0
C2771 C 0.99379 0.70777 0.28825 0.0
N2772 N 0.03878 0.75819 0.25419 0.0
N2773 N 0.99957 0.712 0.27623 0.0
H2774 H 0.28522 0.51334 0.24076 0.0
H2775 H 0.25826 0.45916 0.30766 0.0
H2776 H 0.23136 0.44215 0.24809 0.0
H2777 H 0.30822 0.53092 0.30025 0.0
H2778 H 0.24731 0.4526 0.28592 0.0
H2779 H 0.29492 0.51995 0.26252 0.0
C2780 C 0.27573 0.49906 0.24695 0.0
C2781 C 0.25736 0.47718 0.24261 0.0
C2782 C 0.26049 0.46981 0.28905 0.0
C2783 C 0.26798 0.48464 0.26755 0.0
C2784 C 0.26652 0.47358 0.30147 0.0
C2785 C 0.28432 0.4956 0.30577 0.0
C2786 C 0.27238 0.48818 0.28086 0.0
C2787 C 0.29453 0.51365 0.29733 0.0
C2788 C 0.28107 0.50286 0.25938 0.0
C2789 C 0.24559 0.45931 0.25104 0.0
N2790 N 0.28863 0.50952 0.28531 0.0
N2791 N 0.25098 0.46343 0.26308 0.0
H2792 H 0.7603 0.26335 0.97977 0.0
H2793 H 0.7927 0.20984 0.0467 0.0
H2794 H 0.80928 0.1914 0.98704 0.0
H2795 H 0.74359 0.28174 0.03935 0.0
H2796 H 0.7995 0.20271 0.0249 0.0
H2797 H 0.75245 0.27024 1.00155 0.0
C2798 C 0.76898 0.24895 0.98595 0.0
C2799 C 0.7856 0.22679 0.98158 0.0
C2800 C 0.78735 0.22007 0.02805 0.0
C2801 C 0.77721 0.23457 1.00655 0.0
C2802 C 0.78368 0.22416 0.0405 0.0
C2803 C 0.76746 0.24639 0.04485 0.0
C2804 C 0.7747 0.23835 0.01988 0.0
C2805 C 0.75617 0.26431 0.0364 0.0
C2806 C 0.76474 0.2529 0.99839 0.0
C2807 C 0.79644 0.20878 0.99 0.0
N2808 N 0.75986 0.25989 0.02435 0.0
N2809 N 0.79225 0.21308 1.00205 0.0
H2810 H 0.04447 0.26078 0.79623 0.0
H2811 H 0.98918 0.21708 0.7284 0.0
H2812 H 0.96042 0.19648 0.78812 0.0
H2813 H 0.10673 0.26808 0.73784 0.0
H2814 H 0.96962 0.21205 0.75003 0.0
H2815 H 0.06016 0.26641 0.77459 0.0
C2816 C 0.02945 0.24783 0.7899 0.0
C2817 C 1.00129 0.22811 0.79398 0.0
C2818 C 0.99955 0.2244 0.74733 0.0
C2819 C 1.01842 0.23455 0.76918 0.0
C2820 C 1.01041 0.22737 0.735 0.0
C2821 C 0.04953 0.24303 0.73135 0.0
C2822 C 0.02764 0.23742 0.75599 0.0
C2823 C 0.07632 0.25577 0.74027 0.0
C2824 C 0.03834 0.25104 0.77754 0.0
C2825 C 0.98251 0.2119 0.78536 0.0
N2826 N 0.06484 0.25273 0.75213 0.0
N2827 N 0.9912 0.21552 0.77338 0.0
H2828 H 0.87505 0.51641 0.79803 0.0
H2829 H 0.67799 0.4595 0.75041 0.0
H2830 H 0.74032 0.47638 0.80841 0.0
H2831 H 0.81159 0.50031 0.74002 0.0
H2832 H 0.70018 0.46546 0.7716 0.0
H2833 H 0.85253 0.51071 0.77684 0.0
C2834 C 0.8405 0.50645 0.79585 0.0
C2835 C 0.80929 0.49694 0.80502 0.0
C2836 C 0.72483 0.47309 0.76472 0.0
C2837 C 0.7833 0.49025 0.78066 0.0
C2838 C 0.71222 0.46969 0.75259 0.0
C2839 C 0.74327 0.4793 0.74341 0.0
C2840 C 0.76889 0.48629 0.76777 0.0
C2841 C 0.78698 0.49238 0.74679 0.0
C2842 C 0.82769 0.50321 0.78372 0.0
C2843 C 0.76513 0.48418 0.80164 0.0
N2844 N 0.7985 0.4955 0.7587 0.0
N2845 N 0.75347 0.48118 0.78973 0.0
H2846 H 0.05787 0.94387 0.5516 0.0
H2847 H 0.98193 0.03442 0.4985 0.0
H2848 H 1.00954 0.01627 0.55789 0.0
H2849 H 0.03186 0.96225 0.49221 0.0
H2850 H 0.99187 0.02816 0.52022 0.0
H2851 H 0.04699 0.95003 0.5299 0.0
C2852 C 0.04462 0.96105 0.54841 0.0
C2853 C 0.03474 0.97962 0.55657 0.0
C2854 C 1.0008 0.01368 0.51411 0.0
C2855 C 1.02253 0.98687 0.53166 0.0
C2856 C 0.99528 0.01727 0.50169 0.0
C2857 C 1.00598 -0.0012 0.49353 0.0
C2858 C 1.01714 -0.00857 0.51845 0.0
C2859 C 1.02317 0.97697 0.49819 0.0
C2860 C 0.03858 0.96457 0.536 0.0
C2861 C 1.01761 0.00147 0.55192 0.0
N2862 N 0.02807 0.97387 0.51033 0.0
N2863 N 1.01223 0.00452 0.53979 0.0
H2864 H 0.37748 0.20964 0.49013 0.0
H2865 H 0.17851 0.26705 0.53722 0.0
H2866 H 0.2439 0.25008 0.47939 0.0
H2867 H 0.31048 0.22553 0.54796 0.0
H2868 H 0.20209 0.26125 0.51609 0.0
H2869 H 0.35401 0.21549 0.51127 0.0
C2870 C 0.34299 0.21972 0.49222 0.0
C2871 C 0.31233 0.22926 0.48296 0.0
C2872 C 0.2261 0.25344 0.52303 0.0
C2873 C 0.28525 0.23613 0.50725 0.0
C2874 C 0.21269 0.25675 0.53513 0.0
C2875 C 0.24288 0.2469 0.54439 0.0
C2876 C 0.27009 0.24009 0.5201 0.0
C2877 C 0.28657 0.23368 0.54113 0.0
C2878 C 0.32964 0.22305 0.50432 0.0
C2879 C 0.26824 0.2422 0.48622 0.0
N2880 N 0.29887 0.23065 0.52926 0.0
N2881 N 0.25604 0.24527 0.4981 0.0
H2882 H 0.23468 0.97545 0.80919 0.0
H2883 H 0.31089 0.00161 0.73998 0.0
H2884 H 0.36882 0.01555 0.79848 0.0
H2885 H 0.17747 0.96098 0.75067 0.0
H2886 H 0.33301 0.00699 0.76137 0.0
H2887 H 0.21248 0.9701 0.78781 0.0
C2888 C 0.25919 0.98324 0.80236 0.0
C2889 C 0.30338 -0.00392 0.80562 0.0
C2890 C 0.29895 -0.00317 0.75903 0.0
C2891 C 0.27877 -0.01009 0.78113 0.0
C2892 C 0.28655 -0.00631 0.74681 0.0
C2893 C 0.24261 0.98068 0.74354 0.0
C2894 C 0.26706 0.98692 0.76803 0.0
C2895 C 0.21183 0.9711 0.75279 0.0
C2896 C 0.24672 0.98013 0.79014 0.0
C2897 C 0.33428 0.00555 0.79637 0.0
N2898 N 0.2246 0.97439 0.76457 0.0
N2899 N 0.32143 0.00229 0.78458 0.0
H2900 H 0.80453 0.69291 0.49029 0.0
H2901 H 0.72808 0.78593 0.54227 0.0
H2902 H 0.7593 0.76538 0.48304 0.0
H2903 H 0.77808 0.71406 0.54934 0.0
H2904 H 0.73878 0.77883 0.52061 0.0
H2905 H 0.7929 0.70012 0.51187 0.0
C2906 C 0.7918 0.71033 0.49324 0.0
C2907 C 0.78302 0.7286 0.48484 0.0
C2908 C 0.74756 0.76461 0.52688 0.0
C2909 C 0.76992 0.73707 0.50964 0.0
C2910 C 0.7416 0.76867 0.53926 0.0
C2911 C 0.75211 0.75054 0.54763 0.0
C2912 C 0.7641 0.7422 0.52279 0.0
C2913 C 0.76953 0.72854 0.54321 0.0
C2914 C 0.78534 0.71446 0.50559 0.0
C2915 C 0.76651 0.7508 0.4892 0.0
N2916 N 0.77481 0.72497 0.53111 0.0
N2917 N 0.76067 0.75443 0.50129 0.0
H2918 H 0.78497 0.01318 0.24146 0.0
H2919 H 0.76203 0.95935 0.30852 0.0
H2920 H 0.73179 0.942 0.24906 0.0
H2921 H 0.81571 0.0304 0.30079 0.0
H2922 H 0.74954 0.95273 0.28682 0.0
H2923 H 0.79709 0.01974 0.26315 0.0
C2924 C 0.77615 -0.00111 0.24769 0.0
C2925 C 0.75723 0.97704 0.24345 0.0
C2926 C 0.76392 0.9698 0.28987 0.0
C2927 C 0.77061 0.98443 0.26832 0.0
C2928 C 0.77085 0.9736 0.30226 0.0
C2929 C 0.79005 -0.00457 0.30646 0.0
C2930 C 0.77629 -0.01203 0.28161 0.0
C2931 C 0.80092 0.01327 0.29795 0.0
C2932 C 0.78289 0.00265 0.26009 0.0
C2933 C 0.74639 0.95914 0.25194 0.0
N2934 N 0.79405 0.00913 0.28596 0.0
N2935 N 0.75307 0.96324 0.26394 0.0
H2936 H 0.50353 0.51663 0.55833 0.0
H2937 H 0.53012 0.46102 0.49172 0.0
H2938 H 0.55247 0.44459 0.55126 0.0
H2939 H 0.47402 0.53198 0.49866 0.0
H2940 H 0.54021 0.45496 0.51351 0.0
H2941 H 0.49228 0.52274 0.53655 0.0
C2942 C 0.51153 0.50206 0.5522 0.0
C2943 C 0.5291 0.48009 0.55661 0.0
C2944 C 0.52576 0.47188 0.51028 0.0
C2945 C 0.51684 0.48698 0.53167 0.0
C2946 C 0.5202 0.47536 0.49783 0.0
C2947 C 0.50109 0.497 0.49338 0.0
C2948 C 0.5122 0.4902 0.51835 0.0
C2949 C 0.48881 0.51499 0.50171 0.0
C2950 C 0.50531 0.50556 0.53976 0.0
C2951 C 0.53897 0.46183 0.54826 0.0
N2952 N 0.49447 0.51118 0.51377 0.0
N2953 N 0.53292 0.46571 0.53622 0.0
H2954 H 0.54378 0.76685 0.79998 0.0
H2955 H 0.51425 0.71008 0.73368 0.0
H2956 H 0.49079 0.69521 0.79347 0.0
H2957 H 0.56503 0.78202 0.7403 0.0
H2958 H 0.50462 0.70428 0.75553 0.0
H2959 H 0.55294 0.77258 0.77814 0.0
C2960 C 0.53441 0.75229 0.79396 0.0
C2961 C 0.51638 0.73055 0.79854 0.0
C2962 C 0.51772 0.72136 0.7522 0.0
C2963 C 0.52634 0.73699 0.77353 0.0
C2964 C 0.52301 0.7247 0.73973 0.0
C2965 C 0.5406 0.74654 0.73517 0.0
C2966 C 0.53016 0.74001 0.76018 0.0
C2967 C 0.55147 0.76486 0.74342 0.0
C2968 C 0.53942 0.75558 0.78148 0.0
C2969 C 0.50473 0.71228 0.79032 0.0
N2970 N 0.54626 0.76117 0.75549 0.0
N2971 N 0.50976 0.71593 0.77824 0.0
H2972 H 0.48858 0.1903 0.28956 0.0
H2973 H 0.55649 0.28377 0.23714 0.0
H2974 H 0.53415 0.26291 0.29634 0.0
H2975 H 0.51593 0.21057 0.23025 0.0
H2976 H 0.54612 0.2767 0.25878 0.0
H2977 H 0.49788 0.19733 0.26787 0.0
C2978 C 0.50087 0.2077 0.28649 0.0
C2979 C 0.51051 0.22607 0.29478 0.0
C2980 C 0.53928 0.26217 0.25256 0.0
C2981 C 0.52083 0.23433 0.2699 0.0
C2982 C 0.54499 0.26622 0.24018 0.0
C2983 C 0.5372 0.24771 0.23187 0.0
C2984 C 0.52564 0.2394 0.25672 0.0
C2985 C 0.52232 0.22535 0.23634 0.0
C2986 C 0.506 0.21173 0.27409 0.0
C2987 C 0.52633 0.24825 0.29027 0.0
N2988 N 0.51721 0.2218 0.24845 0.0
N2989 N 0.53081 0.25177 0.27815 0.0
H2990 H 0.54251 0.94461 0.05111 0.0
H2991 H 0.47514 0.03589 0.99772 0.0
H2992 H 0.50415 0.01828 0.05741 0.0
H2993 H 0.52533 0.96362 0.99187 0.0
H2994 H 0.4838 0.02988 0.01953 0.0
H2995 H 0.53277 0.95106 0.02945 0.0
C2996 C 0.53166 0.96215 0.04793 0.0
C2997 C 0.52431 0.98096 0.05609 0.0
C2998 C 0.49309 0.01535 1.01349 0.0
C2999 C 0.51339 -0.01145 0.03118 0.0
C3000 C 0.4883 0.01879 1.00103 0.0
C3001 C 0.49944 0.0002 0.99296 0.0
C3002 C 0.50898 -0.00688 1.01795 0.0
C3003 C 0.51632 0.97843 0.99775 0.0
C3004 C 0.52631 0.96584 0.03553 0.0
C3005 C 0.51018 0.00328 0.05144 0.0
N3006 N 0.52037 0.97547 1.00991 0.0
N3007 N 0.50535 0.00648 0.03929 0.0
loop_
_geom_bond_atom_site_label_1
_geom_bond_atom_site_label_2
_geom_bond_distance
_geom_bond_site_symmetry_2
_ccdc_geom_bond_type
Gd0 C3 2.818 . S
Gd0 O20 2.377 . S
Gd0 O22 2.448 . S
Gd0 O23 2.506 . S
Gd0 O24 2.435 . S
Gd0 O25 2.717 1_655 S
Gd0 O27 2.395 1_655 S
Gd0 O31 2.327 1_655 S
Gd1 C12 2.818 . S
Gd1 O21 2.395 . S
Gd1 O25 2.327 . S
Gd1 O26 2.377 . S
Gd1 O28 2.448 . S
Gd1 O29 2.506 . S
Gd1 O30 2.435 . S
Gd1 O31 2.717 . S
C2 O20 1.240 . S
C2 O21 1.240 1_655 S
C3 Gd0 2.818 . S
C3 C4 1.510 . S
C3 O22 1.249 . S
C3 O23 1.252 . S
C4 C3 1.510 . S
C4 C5 1.404 . S
C4 C6 1.352 . S
C5 C4 1.404 . S
C5 C9 1.389 . S
C5 H32 0.930 . S
C6 C4 1.352 . S
C6 C8 1.374 . S
C6 H33 0.931 . S
C7 C8 1.359 . S
C7 C9 1.364 . S
C8 C6 1.374 . S
C8 C7 1.359 . S
C8 H34 0.931 . S
C9 C5 1.389 . S
C9 C7 1.364 . S
C9 H35 0.931 . S
C10 O24 1.256 1_455 S
C10 O25 1.257 . S
C11 O26 1.240 . S
C11 O27 1.240 . S
C12 Gd1 2.818 . S
C12 C13 1.510 . S
C12 O28 1.249 . S
C12 O29 1.252 . S
C13 C12 1.510 . S
C13 C14 1.404 . S
C13 C15 1.352 . S
C14 C13 1.404 . S
C14 C18 1.389 . S
C14 H36 0.930 . S
C15 C13 1.352 . S
C15 C17 1.374 . S
C15 H37 0.931 . S
C16 C17 1.359 . S
C16 C18 1.364 . S
C17 C15 1.374 . S
C17 C16 1.359 . S
C17 H38 0.931 . S
C18 C14 1.389 . S
C18 C16 1.364 . S
C18 H39 0.931 . S
C19 O30 1.256 . S
C19 O31 1.257 . S
O20 Gd0 2.377 . S
O20 C2 1.240 . S
O21 Gd1 2.395 . S
O21 C2 1.240 1_455 S
O22 Gd0 2.448 . S
O22 C3 1.249 . S
O23 Gd0 2.506 . S
O23 C3 1.252 . S
O24 Gd0 2.435 . S
O24 C10 1.256 1_655 S
O25 Gd0 2.717 1_455 S
O25 Gd1 2.327 . S
O25 C10 1.257 . S
O26 Gd1 2.377 . S
O26 C11 1.240 . S
O27 Gd0 2.395 1_455 S
O27 C11 1.240 . S
O28 Gd1 2.448 . S
O28 C12 1.249 . S
O29 Gd1 2.506 . S
O29 C12 1.252 . S
O30 Gd1 2.435 . S
O30 C19 1.256 . S
O31 Gd0 2.327 1_455 S
O31 Gd1 2.717 . S
O31 C19 1.257 . S
H32 C5 0.930 . S
H33 C6 0.931 . S
H34 C8 0.931 . S
H35 C9 0.931 . S
H36 C14 0.930 . S
H37 C15 0.931 . S
H38 C17 0.931 . S
H39 C18 0.931 . S
Gd40 C43 2.818 . S
Gd40 O60 2.377 . S
Gd40 O62 2.448 . S
Gd40 O63 2.506 . S
Gd40 O64 2.435 . S
Gd40 O65 2.717 . S
Gd40 O67 2.395 . S
Gd40 O71 2.327 . S
Gd41 C52 2.818 . S
Gd41 O61 2.395 . S
Gd41 O65 2.327 . S
Gd41 O66 2.377 . S
Gd41 O68 2.448 . S
Gd41 O69 2.506 . S
Gd41 O70 2.435 . S
Gd41 O71 2.717 . S
C42 O60 1.240 . S
C42 O61 1.240 . S
C43 Gd40 2.818 . S
C43 C44 1.510 . S
C43 O62 1.249 . S
C43 O63 1.252 . S
C44 C43 1.510 . S
C44 C45 1.404 . S
C44 C46 1.352 . S
C45 C44 1.404 . S
C45 C49 1.389 . S
C45 H72 0.930 . S
C46 C44 1.352 . S
C46 C48 1.374 . S
C46 H73 0.931 . S
C47 C48 1.359 . S
C47 C49 1.364 . S
C48 C46 1.374 . S
C48 C47 1.359 . S
C48 H74 0.931 . S
C49 C45 1.389 . S
C49 C47 1.364 . S
C49 H75 0.931 . S
C50 O64 1.256 . S
C50 O65 1.257 . S
C51 O66 1.240 . S
C51 O67 1.240 . S
C52 Gd41 2.818 . S
C52 C53 1.510 . S
C52 O68 1.249 . S
C52 O69 1.252 . S
C53 C52 1.510 . S
C53 C54 1.404 1_455 S
C53 C55 1.352 1_455 S
C54 C53 1.404 1_655 S
C54 C58 1.389 . S
C54 H76 0.930 . S
C55 C53 1.352 1_655 S
C55 C57 1.374 . S
C55 H77 0.931 . S
C56 C57 1.359 . S
C56 C58 1.364 . S
C57 C55 1.374 . S
C57 C56 1.359 . S
C57 H78 0.931 . S
C58 C54 1.389 . S
C58 C56 1.364 . S
C58 H79 0.931 . S
C59 O70 1.256 . S
C59 O71 1.257 . S
O60 Gd40 2.377 . S
O60 C42 1.240 . S
O61 Gd41 2.395 . S
O61 C42 1.240 . S
O62 Gd40 2.448 . S
O62 C43 1.249 . S
O63 Gd40 2.506 . S
O63 C43 1.252 . S
O64 Gd40 2.435 . S
O64 C50 1.256 . S
O65 Gd40 2.717 . S
O65 Gd41 2.327 . S
O65 C50 1.257 . S
O66 Gd41 2.377 . S
O66 C51 1.240 . S
O67 Gd40 2.395 . S
O67 C51 1.240 . S
O68 Gd41 2.448 . S
O68 C52 1.249 . S
O69 Gd41 2.506 . S
O69 C52 1.252 . S
O70 Gd41 2.435 . S
O70 C59 1.256 . S
O71 Gd40 2.327 . S
O71 Gd41 2.717 . S
O71 C59 1.257 . S
H72 C45 0.930 . S
H73 C46 0.931 . S
H74 C48 0.931 . S
H75 C49 0.931 . S
H76 C54 0.930 . S
H77 C55 0.931 . S
H78 C57 0.931 . S
H79 C58 0.931 . S
Gd80 C83 2.818 . S
Gd80 O100 2.377 . S
Gd80 O102 2.448 . S
Gd80 O103 2.506 . S
Gd80 O104 2.435 . S
Gd80 O105 2.717 1_655 S
Gd80 O107 2.395 1_655 S
Gd80 O111 2.327 1_655 S
Gd81 C92 2.818 . S
Gd81 O101 2.395 . S
Gd81 O105 2.327 . S
Gd81 O106 2.377 . S
Gd81 O108 2.448 . S
Gd81 O109 2.506 . S
Gd81 O110 2.435 . S
Gd81 O111 2.717 . S
C82 O100 1.240 . S
C82 O101 1.240 1_655 S
C83 Gd80 2.818 . S
C83 C84 1.510 . S
C83 O102 1.249 . S
C83 O103 1.252 . S
C84 C83 1.510 . S
C84 C85 1.404 . S
C84 C86 1.352 . S
C85 C84 1.404 . S
C85 C89 1.389 . S
C85 H112 0.930 . S
C86 C84 1.352 . S
C86 C88 1.374 . S
C86 H113 0.931 . S
C87 C88 1.359 . S
C87 C89 1.364 . S
C88 C86 1.374 . S
C88 C87 1.359 . S
C88 H114 0.931 . S
C89 C85 1.389 . S
C89 C87 1.364 . S
C89 H115 0.931 . S
C90 O104 1.256 1_455 S
C90 O105 1.257 . S
C91 O106 1.240 . S
C91 O107 1.240 . S
C92 Gd81 2.818 . S
C92 C93 1.510 . S
C92 O108 1.249 . S
C92 O109 1.252 . S
C93 C92 1.510 . S
C93 C94 1.404 . S
C93 C95 1.352 . S
C94 C93 1.404 . S
C94 C98 1.389 . S
C94 H116 0.930 . S
C95 C93 1.352 . S
C95 C97 1.374 . S
C95 H117 0.931 . S
C96 C97 1.359 . S
C96 C98 1.364 . S
C97 C95 1.374 . S
C97 C96 1.359 . S
C97 H118 0.931 . S
C98 C94 1.389 . S
C98 C96 1.364 . S
C98 H119 0.931 . S
C99 O110 1.256 . S
C99 O111 1.257 . S
O100 Gd80 2.377 . S
O100 C82 1.240 . S
O101 Gd81 2.395 . S
O101 C82 1.240 1_455 S
O102 Gd80 2.448 . S
O102 C83 1.249 . S
O103 Gd80 2.506 . S
O103 C83 1.252 . S
O104 Gd80 2.435 . S
O104 C90 1.256 1_655 S
O105 Gd80 2.717 1_455 S
O105 Gd81 2.327 . S
O105 C90 1.257 . S
O106 Gd81 2.377 . S
O106 C91 1.240 . S
O107 Gd80 2.395 1_455 S
O107 C91 1.240 . S
O108 Gd81 2.448 . S
O108 C92 1.249 . S
O109 Gd81 2.506 . S
O109 C92 1.252 . S
O110 Gd81 2.435 . S
O110 C99 1.256 . S
O111 Gd80 2.327 1_455 S
O111 Gd81 2.717 . S
O111 C99 1.257 . S
H112 C85 0.930 . S
H113 C86 0.931 . S
H114 C88 0.931 . S
H115 C89 0.931 . S
H116 C94 0.930 . S
H117 C95 0.931 . S
H118 C97 0.931 . S
H119 C98 0.931 . S
Gd120 C123 2.818 . S
Gd120 O140 2.377 . S
Gd120 O142 2.448 . S
Gd120 O143 2.506 . S
Gd120 O144 2.435 . S
Gd120 O145 2.717 . S
Gd120 O147 2.395 . S
Gd120 O151 2.327 . S
Gd121 C132 2.818 . S
Gd121 O141 2.395 . S
Gd121 O145 2.327 . S
Gd121 O146 2.377 . S
Gd121 O148 2.448 . S
Gd121 O149 2.506 . S
Gd121 O150 2.435 . S
Gd121 O151 2.717 . S
C122 O140 1.240 . S
C122 O141 1.240 . S
C123 Gd120 2.818 . S
C123 C124 1.510 . S
C123 O142 1.249 . S
C123 O143 1.252 . S
C124 C123 1.510 . S
C124 C125 1.404 . S
C124 C126 1.352 . S
C125 C124 1.404 . S
C125 C129 1.389 . S
C125 H152 0.930 . S
C126 C124 1.352 . S
C126 C128 1.374 . S
C126 H153 0.931 . S
C127 C128 1.359 . S
C127 C129 1.364 . S
C128 C126 1.374 . S
C128 C127 1.359 . S
C128 H154 0.931 . S
C129 C125 1.389 . S
C129 C127 1.364 . S
C129 H155 0.931 . S
C130 O144 1.256 . S
C130 O145 1.257 . S
C131 O146 1.240 . S
C131 O147 1.240 . S
C132 Gd121 2.818 . S
C132 C133 1.510 . S
C132 O148 1.249 . S
C132 O149 1.252 . S
C133 C132 1.510 . S
C133 C134 1.404 1_455 S
C133 C135 1.352 1_455 S
C134 C133 1.404 1_655 S
C134 C138 1.389 . S
C134 H156 0.930 . S
C135 C133 1.352 1_655 S
C135 C137 1.374 . S
C135 H157 0.931 . S
C136 C137 1.359 . S
C136 C138 1.364 . S
C137 C135 1.374 . S
C137 C136 1.359 . S
C137 H158 0.931 . S
C138 C134 1.389 . S
C138 C136 1.364 . S
C138 H159 0.931 . S
C139 O150 1.256 . S
C139 O151 1.257 . S
O140 Gd120 2.377 . S
O140 C122 1.240 . S
O141 Gd121 2.395 . S
O141 C122 1.240 . S
O142 Gd120 2.448 . S
O142 C123 1.249 . S
O143 Gd120 2.506 . S
O143 C123 1.252 . S
O144 Gd120 2.435 . S
O144 C130 1.256 . S
O145 Gd120 2.717 . S
O145 Gd121 2.327 . S
O145 C130 1.257 . S
O146 Gd121 2.377 . S
O146 C131 1.240 . S
O147 Gd120 2.395 . S
O147 C131 1.240 . S
O148 Gd121 2.448 . S
O148 C132 1.249 . S
O149 Gd121 2.506 . S
O149 C132 1.252 . S
O150 Gd121 2.435 . S
O150 C139 1.256 . S
O151 Gd120 2.327 . S
O151 Gd121 2.717 . S
O151 C139 1.257 . S
H152 C125 0.930 . S
H153 C126 0.931 . S
H154 C128 0.931 . S
H155 C129 0.931 . S
H156 C134 0.930 . S
H157 C135 0.931 . S
H158 C137 0.931 . S
H159 C138 0.931 . S
Gd160 C163 2.818 . S
Gd160 O180 2.377 . S
Gd160 O182 2.448 . S
Gd160 O183 2.506 . S
Gd160 O184 2.435 . S
Gd160 O185 2.717 . S
Gd160 O187 2.395 . S
Gd160 O191 2.327 . S
Gd161 C172 2.818 . S
Gd161 O181 2.395 1_455 S
Gd161 O185 2.327 1_455 S
Gd161 O186 2.377 . S
Gd161 O188 2.448 . S
Gd161 O189 2.506 . S
Gd161 O190 2.435 . S
Gd161 O191 2.717 1_455 S
C162 O180 1.240 . S
C162 O181 1.240 . S
C163 Gd160 2.818 . S
C163 C164 1.510 . S
C163 O182 1.249 . S
C163 O183 1.252 . S
C164 C163 1.510 . S
C164 C165 1.404 . S
C164 C166 1.352 . S
C165 C164 1.404 . S
C165 C169 1.389 . S
C165 H192 0.930 . S
C166 C164 1.352 . S
C166 C168 1.374 . S
C166 H193 0.931 . S
C167 C168 1.359 . S
C167 C169 1.364 . S
C168 C166 1.374 . S
C168 C167 1.359 . S
C168 H194 0.931 . S
C169 C165 1.389 . S
C169 C167 1.364 . S
C169 H195 0.931 . S
C170 O184 1.256 . S
C170 O185 1.257 . S
C171 O186 1.240 . S
C171 O187 1.240 1_455 S
C172 Gd161 2.818 . S
C172 C173 1.510 . S
C172 O188 1.249 . S
C172 O189 1.252 . S
C173 C172 1.510 . S
C173 C174 1.404 . S
C173 C175 1.352 . S
C174 C173 1.404 . S
C174 C178 1.389 . S
C174 H196 0.930 . S
C175 C173 1.352 . S
C175 C177 1.374 . S
C175 H197 0.931 . S
C176 C177 1.359 . S
C176 C178 1.364 . S
C177 C175 1.374 . S
C177 C176 1.359 . S
C177 H198 0.931 . S
C178 C174 1.389 . S
C178 C176 1.364 . S
C178 H199 0.931 . S
C179 O190 1.256 1_655 S
C179 O191 1.257 . S
O180 Gd160 2.377 . S
O180 C162 1.240 . S
O181 Gd161 2.395 1_655 S
O181 C162 1.240 . S
O182 Gd160 2.448 . S
O182 C163 1.249 . S
O183 Gd160 2.506 . S
O183 C163 1.252 . S
O184 Gd160 2.435 . S
O184 C170 1.256 . S
O185 Gd160 2.717 . S
O185 Gd161 2.327 1_655 S
O185 C170 1.257 . S
O186 Gd161 2.377 . S
O186 C171 1.240 . S
O187 Gd160 2.395 . S
O187 C171 1.240 1_655 S
O188 Gd161 2.448 . S
O188 C172 1.249 . S
O189 Gd161 2.506 . S
O189 C172 1.252 . S
O190 Gd161 2.435 . S
O190 C179 1.256 1_455 S
O191 Gd160 2.327 . S
O191 Gd161 2.717 1_655 S
O191 C179 1.257 . S
H192 C165 0.930 . S
H193 C166 0.931 . S
H194 C168 0.931 . S
H195 C169 0.931 . S
H196 C174 0.930 . S
H197 C175 0.931 . S
H198 C177 0.931 . S
H199 C178 0.931 . S
Gd200 C203 2.818 . S
Gd200 O220 2.377 . S
Gd200 O222 2.448 . S
Gd200 O223 2.506 . S
Gd200 O224 2.435 . S
Gd200 O225 2.717 . S
Gd200 O227 2.395 . S
Gd200 O231 2.327 . S
Gd201 C212 2.818 . S
Gd201 O221 2.395 . S
Gd201 O225 2.327 . S
Gd201 O226 2.377 . S
Gd201 O228 2.448 . S
Gd201 O229 2.506 . S
Gd201 O230 2.435 . S
Gd201 O231 2.717 . S
C202 O220 1.240 . S
C202 O221 1.240 . S
C203 Gd200 2.818 . S
C203 C204 1.510 . S
C203 O222 1.249 . S
C203 O223 1.252 . S
C204 C203 1.510 . S
C204 C205 1.404 1_655 S
C204 C206 1.352 1_655 S
C205 C204 1.404 1_455 S
C205 C209 1.389 . S
C205 H232 0.930 . S
C206 C204 1.352 1_455 S
C206 C208 1.374 . S
C206 H233 0.931 . S
C207 C208 1.359 . S
C207 C209 1.364 . S
C208 C206 1.374 . S
C208 C207 1.359 . S
C208 H234 0.931 . S
C209 C205 1.389 . S
C209 C207 1.364 . S
C209 H235 0.931 . S
C210 O224 1.256 . S
C210 O225 1.257 . S
C211 O226 1.240 . S
C211 O227 1.240 . S
C212 Gd201 2.818 . S
C212 C213 1.510 . S
C212 O228 1.249 . S
C212 O229 1.252 . S
C213 C212 1.510 . S
C213 C214 1.404 . S
C213 C215 1.352 . S
C214 C213 1.404 . S
C214 C218 1.389 . S
C214 H236 0.930 . S
C215 C213 1.352 . S
C215 C217 1.374 . S
C215 H237 0.931 . S
C216 C217 1.359 . S
C216 C218 1.364 . S
C217 C215 1.374 . S
C217 C216 1.359 . S
C217 H238 0.931 . S
C218 C214 1.389 . S
C218 C216 1.364 . S
C218 H239 0.931 . S
C219 O230 1.256 . S
C219 O231 1.257 . S
O220 Gd200 2.377 . S
O220 C202 1.240 . S
O221 Gd201 2.395 . S
O221 C202 1.240 . S
O222 Gd200 2.448 . S
O222 C203 1.249 . S
O223 Gd200 2.506 . S
O223 C203 1.252 . S
O224 Gd200 2.435 . S
O224 C210 1.256 . S
O225 Gd200 2.717 . S
O225 Gd201 2.327 . S
O225 C210 1.257 . S
O226 Gd201 2.377 . S
O226 C211 1.240 . S
O227 Gd200 2.395 . S
O227 C211 1.240 . S
O228 Gd201 2.448 . S
O228 C212 1.249 . S
O229 Gd201 2.506 . S
O229 C212 1.252 . S
O230 Gd201 2.435 . S
O230 C219 1.256 . S
O231 Gd200 2.327 . S
O231 Gd201 2.717 . S
O231 C219 1.257 . S
H232 C205 0.930 . S
H233 C206 0.931 . S
H234 C208 0.931 . S
H235 C209 0.931 . S
H236 C214 0.930 . S
H237 C215 0.931 . S
H238 C217 0.931 . S
H239 C218 0.931 . S
Gd240 C243 2.818 . S
Gd240 O260 2.377 . S
Gd240 O262 2.448 . S
Gd240 O263 2.506 . S
Gd240 O264 2.435 . S
Gd240 O265 2.717 . S
Gd240 O267 2.395 . S
Gd240 O271 2.327 . S
Gd241 C252 2.818 . S
Gd241 O261 2.395 1_455 S
Gd241 O265 2.327 1_455 S
Gd241 O266 2.377 . S
Gd241 O268 2.448 . S
Gd241 O269 2.506 . S
Gd241 O270 2.435 . S
Gd241 O271 2.717 1_455 S
C242 O260 1.240 . S
C242 O261 1.240 . S
C243 Gd240 2.818 . S
C243 C244 1.510 . S
C243 O262 1.249 . S
C243 O263 1.252 . S
C244 C243 1.510 . S
C244 C245 1.404 . S
C244 C246 1.352 . S
C245 C244 1.404 . S
C245 C249 1.389 . S
C245 H272 0.930 . S
C246 C244 1.352 . S
C246 C248 1.374 . S
C246 H273 0.931 . S
C247 C248 1.359 . S
C247 C249 1.364 . S
C248 C246 1.374 . S
C248 C247 1.359 . S
C248 H274 0.931 . S
C249 C245 1.389 . S
C249 C247 1.364 . S
C249 H275 0.931 . S
C250 O264 1.256 . S
C250 O265 1.257 . S
C251 O266 1.240 . S
C251 O267 1.240 1_455 S
C252 Gd241 2.818 . S
C252 C253 1.510 . S
C252 O268 1.249 . S
C252 O269 1.252 . S
C253 C252 1.510 . S
C253 C254 1.404 . S
C253 C255 1.352 . S
C254 C253 1.404 . S
C254 C258 1.389 . S
C254 H276 0.930 . S
C255 C253 1.352 . S
C255 C257 1.374 . S
C255 H277 0.931 . S
C256 C257 1.359 . S
C256 C258 1.364 . S
C257 C255 1.374 . S
C257 C256 1.359 . S
C257 H278 0.931 . S
C258 C254 1.389 . S
C258 C256 1.364 . S
C258 H279 0.931 . S
C259 O270 1.256 1_655 S
C259 O271 1.257 . S
O260 Gd240 2.377 . S
O260 C242 1.240 . S
O261 Gd241 2.395 1_655 S
O261 C242 1.240 . S
O262 Gd240 2.448 . S
O262 C243 1.249 . S
O263 Gd240 2.506 . S
O263 C243 1.252 . S
O264 Gd240 2.435 . S
O264 C250 1.256 . S
O265 Gd240 2.717 . S
O265 Gd241 2.327 1_655 S
O265 C250 1.257 . S
O266 Gd241 2.377 . S
O266 C251 1.240 . S
O267 Gd240 2.395 . S
O267 C251 1.240 1_655 S
O268 Gd241 2.448 . S
O268 C252 1.249 . S
O269 Gd241 2.506 . S
O269 C252 1.252 . S
O270 Gd241 2.435 . S
O270 C259 1.256 1_455 S
O271 Gd240 2.327 . S
O271 Gd241 2.717 1_655 S
O271 C259 1.257 . S
H272 C245 0.930 . S
H273 C246 0.931 . S
H274 C248 0.931 . S
H275 C249 0.931 . S
H276 C254 0.930 . S
H277 C255 0.931 . S
H278 C257 0.931 . S
H279 C258 0.931 . S
Gd280 C283 2.818 . S
Gd280 O300 2.377 . S
Gd280 O302 2.448 . S
Gd280 O303 2.506 . S
Gd280 O304 2.435 . S
Gd280 O305 2.717 . S
Gd280 O307 2.395 . S
Gd280 O311 2.327 . S
Gd281 C292 2.818 . S
Gd281 O301 2.395 . S
Gd281 O305 2.327 . S
Gd281 O306 2.377 . S
Gd281 O308 2.448 . S
Gd281 O309 2.506 . S
Gd281 O310 2.435 . S
Gd281 O311 2.717 . S
C282 O300 1.240 . S
C282 O301 1.240 . S
C283 Gd280 2.818 . S
C283 C284 1.510 . S
C283 O302 1.249 . S
C283 O303 1.252 . S
C284 C283 1.510 . S
C284 C285 1.404 1_655 S
C284 C286 1.352 1_655 S
C285 C284 1.404 1_455 S
C285 C289 1.389 . S
C285 H312 0.930 . S
C286 C284 1.352 1_455 S
C286 C288 1.374 . S
C286 H313 0.931 . S
C287 C288 1.359 . S
C287 C289 1.364 . S
C288 C286 1.374 . S
C288 C287 1.359 . S
C288 H314 0.931 . S
C289 C285 1.389 . S
C289 C287 1.364 . S
C289 H315 0.931 . S
C290 O304 1.256 . S
C290 O305 1.257 . S
C291 O306 1.240 . S
C291 O307 1.240 . S
C292 Gd281 2.818 . S
C292 C293 1.510 . S
C292 O308 1.249 . S
C292 O309 1.252 . S
C293 C292 1.510 . S
C293 C294 1.404 . S
C293 C295 1.352 . S
C294 C293 1.404 . S
C294 C298 1.389 . S
C294 H316 0.930 . S
C295 C293 1.352 . S
C295 C297 1.374 . S
C295 H317 0.931 . S
C296 C297 1.359 . S
C296 C298 1.364 . S
C297 C295 1.374 . S
C297 C296 1.359 . S
C297 H318 0.931 . S
C298 C294 1.389 . S
C298 C296 1.364 . S
C298 H319 0.931 . S
C299 O310 1.256 . S
C299 O311 1.257 . S
O300 Gd280 2.377 . S
O300 C282 1.240 . S
O301 Gd281 2.395 . S
O301 C282 1.240 . S
O302 Gd280 2.448 . S
O302 C283 1.249 . S
O303 Gd280 2.506 . S
O303 C283 1.252 . S
O304 Gd280 2.435 . S
O304 C290 1.256 . S
O305 Gd280 2.717 . S
O305 Gd281 2.327 . S
O305 C290 1.257 . S
O306 Gd281 2.377 . S
O306 C291 1.240 . S
O307 Gd280 2.395 . S
O307 C291 1.240 . S
O308 Gd281 2.448 . S
O308 C292 1.249 . S
O309 Gd281 2.506 . S
O309 C292 1.252 . S
O310 Gd281 2.435 . S
O310 C299 1.256 . S
O311 Gd280 2.327 . S
O311 Gd281 2.717 . S
O311 C299 1.257 . S
H312 C285 0.930 . S
H313 C286 0.931 . S
H314 C288 0.931 . S
H315 C289 0.931 . S
H316 C294 0.930 . S
H317 C295 0.931 . S
H318 C297 0.931 . S
H319 C298 0.931 . S
Gd320 C323 2.829 . S
Gd320 O340 2.377 1_545 S
Gd320 O342 2.448 . S
Gd320 O343 2.505 1_545 S
Gd320 O344 2.435 . S
Gd320 O345 2.717 1_645 S
Gd320 O347 2.395 1_655 S
Gd320 O351 2.327 1_645 S
Gd321 C332 2.818 . S
Gd321 O341 2.395 . S
Gd321 O345 2.327 . S
Gd321 O346 2.377 1_565 S
Gd321 O348 2.448 . S
Gd321 O349 2.506 . S
Gd321 O350 2.435 . S
Gd321 O351 2.717 . S
C322 O340 1.240 . S
C322 O341 1.240 1_655 S
C323 Gd320 2.829 . S
C323 C324 1.499 1_545 S
C323 O342 1.263 . S
C323 O343 1.250 1_545 S
C324 C323 1.499 1_565 S
C324 C325 1.404 . S
C324 C326 1.352 . S
C325 C324 1.404 . S
C325 C329 1.389 . S
C325 H352 0.930 1_565 S
C326 C324 1.352 . S
C326 C328 1.374 . S
C326 H353 0.931 . S
C327 C328 1.359 . S
C327 C329 1.364 . S
C328 C326 1.374 . S
C328 C327 1.359 . S
C328 H354 0.931 . S
C329 C325 1.389 . S
C329 C327 1.364 . S
C329 H355 0.931 . S
C330 O344 1.256 1_465 S
C330 O345 1.257 . S
C331 O346 1.240 . S
C331 O347 1.240 . S
C332 Gd321 2.818 . S
C332 C333 1.510 . S
C332 O348 1.249 . S
C332 O349 1.252 . S
C333 C332 1.510 . S
C333 C334 1.404 . S
C333 C335 1.352 1_565 S
C334 C333 1.404 . S
C334 C338 1.389 . S
C334 H356 0.930 . S
C335 C333 1.352 1_545 S
C335 C337 1.374 . S
C335 H357 0.931 . S
C336 C337 1.359 . S
C336 C338 1.364 1_545 S
C337 C335 1.374 . S
C337 C336 1.359 . S
C337 H358 0.931 . S
C338 C334 1.389 . S
C338 C336 1.364 1_565 S
C338 H359 0.931 . S
C339 O350 1.256 . S
C339 O351 1.257 . S
O340 Gd320 2.377 1_565 S
O340 C322 1.240 . S
O341 Gd321 2.395 . S
O341 C322 1.240 1_455 S
O342 Gd320 2.448 . S
O342 C323 1.263 . S
O343 Gd320 2.505 1_565 S
O343 C323 1.250 1_565 S
O344 Gd320 2.435 . S
O344 C330 1.256 1_645 S
O345 Gd320 2.717 1_465 S
O345 Gd321 2.327 . S
O345 C330 1.257 . S
O346 Gd321 2.377 1_545 S
O346 C331 1.240 . S
O347 Gd320 2.395 1_455 S
O347 C331 1.240 . S
O348 Gd321 2.448 . S
O348 C332 1.249 . S
O349 Gd321 2.506 . S
O349 C332 1.252 . S
O350 Gd321 2.435 . S
O350 C339 1.256 . S
O351 Gd320 2.327 1_465 S
O351 Gd321 2.717 . S
O351 C339 1.257 . S
H352 C325 0.930 1_545 S
H353 C326 0.931 . S
H354 C328 0.931 . S
H355 C329 0.931 . S
H356 C334 0.930 . S
H357 C335 0.931 . S
H358 C337 0.931 . S
H359 C338 0.931 . S
Gd360 C363 2.818 . S
Gd360 O380 2.377 . S
Gd360 O382 2.448 . S
Gd360 O383 2.506 . S
Gd360 O384 2.435 . S
Gd360 O385 2.717 . S
Gd360 O387 2.395 . S
Gd360 O391 2.327 . S
Gd361 C372 2.818 . S
Gd361 O381 2.395 . S
Gd361 O385 2.327 . S
Gd361 O386 2.377 . S
Gd361 O388 2.448 . S
Gd361 O389 2.506 . S
Gd361 O390 2.435 . S
Gd361 O391 2.717 . S
C362 O380 1.240 . S
C362 O381 1.240 . S
C363 Gd360 2.818 . S
C363 C364 1.510 . S
C363 O382 1.249 . S
C363 O383 1.252 . S
C364 C363 1.510 . S
C364 C365 1.404 . S
C364 C366 1.352 . S
C365 C364 1.404 . S
C365 C369 1.389 . S
C365 H392 0.930 . S
C366 C364 1.352 . S
C366 C368 1.374 . S
C366 H393 0.931 . S
C367 C368 1.359 . S
C367 C369 1.364 . S
C368 C366 1.374 . S
C368 C367 1.359 . S
C368 H394 0.931 . S
C369 C365 1.389 . S
C369 C367 1.364 . S
C369 H395 0.931 . S
C370 O384 1.256 . S
C370 O385 1.257 . S
C371 O386 1.240 . S
C371 O387 1.240 . S
C372 Gd361 2.818 . S
C372 C373 1.510 . S
C372 O388 1.249 . S
C372 O389 1.252 . S
C373 C372 1.510 . S
C373 C374 1.404 1_455 S
C373 C375 1.352 1_455 S
C374 C373 1.404 1_655 S
C374 C378 1.389 . S
C374 H396 0.930 . S
C375 C373 1.352 1_655 S
C375 C377 1.374 . S
C375 H397 0.931 . S
C376 C377 1.359 . S
C376 C378 1.364 . S
C377 C375 1.374 . S
C377 C376 1.359 . S
C377 H398 0.931 . S
C378 C374 1.389 . S
C378 C376 1.364 . S
C378 H399 0.931 . S
C379 O390 1.256 . S
C379 O391 1.257 . S
O380 Gd360 2.377 . S
O380 C362 1.240 . S
O381 Gd361 2.395 . S
O381 C362 1.240 . S
O382 Gd360 2.448 . S
O382 C363 1.249 . S
O383 Gd360 2.506 . S
O383 C363 1.252 . S
O384 Gd360 2.435 . S
O384 C370 1.256 . S
O385 Gd360 2.717 . S
O385 Gd361 2.327 . S
O385 C370 1.257 . S
O386 Gd361 2.377 . S
O386 C371 1.240 . S
O387 Gd360 2.395 . S
O387 C371 1.240 . S
O388 Gd361 2.448 . S
O388 C372 1.249 . S
O389 Gd361 2.506 . S
O389 C372 1.252 . S
O390 Gd361 2.435 . S
O390 C379 1.256 . S
O391 Gd360 2.327 . S
O391 Gd361 2.717 . S
O391 C379 1.257 . S
H392 C365 0.930 . S
H393 C366 0.931 . S
H394 C368 0.931 . S
H395 C369 0.931 . S
H396 C374 0.930 . S
H397 C375 0.931 . S
H398 C377 0.931 . S
H399 C378 0.931 . S
Gd400 C403 2.818 . S
Gd400 O420 2.377 . S
Gd400 O422 2.448 . S
Gd400 O423 2.506 . S
Gd400 O424 2.435 . S
Gd400 O425 2.717 1_655 S
Gd400 O427 2.395 1_655 S
Gd400 O431 2.327 1_655 S
Gd401 C412 2.818 . S
Gd401 O421 2.395 . S
Gd401 O425 2.327 . S
Gd401 O426 2.377 . S
Gd401 O428 2.448 . S
Gd401 O429 2.506 . S
Gd401 O430 2.435 . S
Gd401 O431 2.717 . S
C402 O420 1.240 . S
C402 O421 1.240 1_655 S
C403 Gd400 2.818 . S
C403 C404 1.510 . S
C403 O422 1.249 . S
C403 O423 1.252 . S
C404 C403 1.510 . S
C404 C405 1.404 . S
C404 C406 1.352 . S
C405 C404 1.404 . S
C405 C409 1.389 . S
C405 H432 0.930 . S
C406 C404 1.352 . S
C406 C408 1.374 . S
C406 H433 0.931 . S
C407 C408 1.359 . S
C407 C409 1.364 . S
C408 C406 1.374 . S
C408 C407 1.359 . S
C408 H434 0.931 . S
C409 C405 1.389 . S
C409 C407 1.364 . S
C409 H435 0.931 . S
C410 O424 1.256 1_455 S
C410 O425 1.257 . S
C411 O426 1.240 . S
C411 O427 1.240 . S
C412 Gd401 2.818 . S
C412 C413 1.510 . S
C412 O428 1.249 . S
C412 O429 1.252 . S
C413 C412 1.510 . S
C413 C414 1.404 . S
C413 C415 1.352 . S
C414 C413 1.404 . S
C414 C418 1.389 . S
C414 H436 0.930 . S
C415 C413 1.352 . S
C415 C417 1.374 . S
C415 H437 0.931 . S
C416 C417 1.359 . S
C416 C418 1.364 . S
C417 C415 1.374 . S
C417 C416 1.359 . S
C417 H438 0.931 . S
C418 C414 1.389 . S
C418 C416 1.364 . S
C418 H439 0.931 . S
C419 O430 1.256 . S
C419 O431 1.257 . S
O420 Gd400 2.377 . S
O420 C402 1.240 . S
O421 Gd401 2.395 . S
O421 C402 1.240 1_455 S
O422 Gd400 2.448 . S
O422 C403 1.249 . S
O423 Gd400 2.506 . S
O423 C403 1.252 . S
O424 Gd400 2.435 . S
O424 C410 1.256 1_655 S
O425 Gd400 2.717 1_455 S
O425 Gd401 2.327 . S
O425 C410 1.257 . S
O426 Gd401 2.377 . S
O426 C411 1.240 . S
O427 Gd400 2.395 1_455 S
O427 C411 1.240 . S
O428 Gd401 2.448 . S
O428 C412 1.249 . S
O429 Gd401 2.506 . S
O429 C412 1.252 . S
O430 Gd401 2.435 . S
O430 C419 1.256 . S
O431 Gd400 2.327 1_455 S
O431 Gd401 2.717 . S
O431 C419 1.257 . S
H432 C405 0.930 . S
H433 C406 0.931 . S
H434 C408 0.931 . S
H435 C409 0.931 . S
H436 C414 0.930 . S
H437 C415 0.931 . S
H438 C417 0.931 . S
H439 C418 0.931 . S
Gd440 C443 2.829 . S
Gd440 O460 2.377 1_545 S
Gd440 O462 2.448 . S
Gd440 O463 2.505 1_545 S
Gd440 O464 2.435 . S
Gd440 O465 2.717 1_545 S
Gd440 O467 2.395 . S
Gd440 O471 2.327 1_545 S
Gd441 C452 2.818 . S
Gd441 O461 2.395 . S
Gd441 O465 2.327 . S
Gd441 O466 2.377 1_565 S
Gd441 O468 2.448 . S
Gd441 O469 2.506 . S
Gd441 O470 2.435 . S
Gd441 O471 2.717 . S
C442 O460 1.240 . S
C442 O461 1.240 . S
C443 Gd440 2.829 . S
C443 C444 1.499 1_545 S
C443 O462 1.263 . S
C443 O463 1.250 1_545 S
C444 C443 1.499 1_565 S
C444 C445 1.404 . S
C444 C446 1.352 . S
C445 C444 1.404 . S
C445 C449 1.389 . S
C445 H472 0.930 1_565 S
C446 C444 1.352 . S
C446 C448 1.374 . S
C446 H473 0.931 . S
C447 C448 1.359 . S
C447 C449 1.364 . S
C448 C446 1.374 . S
C448 C447 1.359 . S
C448 H474 0.931 . S
C449 C445 1.389 . S
C449 C447 1.364 . S
C449 H475 0.931 . S
C450 O464 1.256 1_565 S
C450 O465 1.257 . S
C451 O466 1.240 . S
C451 O467 1.240 . S
C452 Gd441 2.818 . S
C452 C453 1.510 . S
C452 O468 1.249 . S
C452 O469 1.252 . S
C453 C452 1.510 . S
C453 C454 1.404 1_455 S
C453 C455 1.352 1_465 S
C454 C453 1.404 1_655 S
C454 C458 1.389 . S
C454 H476 0.930 . S
C455 C453 1.352 1_645 S
C455 C457 1.374 . S
C455 H477 0.931 . S
C456 C457 1.359 . S
C456 C458 1.364 1_545 S
C457 C455 1.374 . S
C457 C456 1.359 . S
C457 H478 0.931 . S
C458 C454 1.389 . S
C458 C456 1.364 1_565 S
C458 H479 0.931 . S
C459 O470 1.256 . S
C459 O471 1.257 . S
O460 Gd440 2.377 1_565 S
O460 C442 1.240 . S
O461 Gd441 2.395 . S
O461 C442 1.240 . S
O462 Gd440 2.448 . S
O462 C443 1.263 . S
O463 Gd440 2.505 1_565 S
O463 C443 1.250 1_565 S
O464 Gd440 2.435 . S
O464 C450 1.256 1_545 S
O465 Gd440 2.717 1_565 S
O465 Gd441 2.327 . S
O465 C450 1.257 . S
O466 Gd441 2.377 1_545 S
O466 C451 1.240 . S
O467 Gd440 2.395 . S
O467 C451 1.240 . S
O468 Gd441 2.448 . S
O468 C452 1.249 . S
O469 Gd441 2.506 . S
O469 C452 1.252 . S
O470 Gd441 2.435 . S
O470 C459 1.256 . S
O471 Gd440 2.327 1_565 S
O471 Gd441 2.717 . S
O471 C459 1.257 . S
H472 C445 0.930 1_545 S
H473 C446 0.931 . S
H474 C448 0.931 . S
H475 C449 0.931 . S
H476 C454 0.930 . S
H477 C455 0.931 . S
H478 C457 0.931 . S
H479 C458 0.931 . S
Gd480 C483 2.818 . S
Gd480 O500 2.377 1_545 S
Gd480 O502 2.448 . S
Gd480 O503 2.506 . S
Gd480 O504 2.435 . S
Gd480 O505 2.717 . S
Gd480 O507 2.395 . S
Gd480 O511 2.327 . S
Gd481 C492 2.829 . S
Gd481 O501 2.395 1_455 S
Gd481 O505 2.327 1_465 S
Gd481 O506 2.377 1_565 S
Gd481 O508 2.448 . S
Gd481 O509 2.505 1_565 S
Gd481 O510 2.435 . S
Gd481 O511 2.717 1_465 S
C482 O500 1.240 . S
C482 O501 1.240 . S
C483 Gd480 2.818 . S
C483 C484 1.510 . S
C483 O502 1.249 . S
C483 O503 1.252 . S
C484 C483 1.510 . S
C484 C485 1.404 . S
C484 C486 1.352 1_545 S
C485 C484 1.404 . S
C485 C489 1.389 . S
C485 H512 0.930 . S
C486 C484 1.352 1_565 S
C486 C488 1.374 . S
C486 H513 0.931 . S
C487 C488 1.359 . S
C487 C489 1.364 1_565 S
C488 C486 1.374 . S
C488 C487 1.359 . S
C488 H514 0.931 . S
C489 C485 1.389 . S
C489 C487 1.364 1_545 S
C489 H515 0.931 . S
C490 O504 1.256 . S
C490 O505 1.257 . S
C491 O506 1.240 . S
C491 O507 1.240 1_455 S
C492 Gd481 2.829 . S
C492 C493 1.499 1_565 S
C492 O508 1.263 . S
C492 O509 1.250 1_565 S
C493 C492 1.499 1_545 S
C493 C494 1.404 . S
C493 C495 1.352 . S
C494 C493 1.404 . S
C494 C498 1.389 . S
C494 H516 0.930 1_545 S
C495 C493 1.352 . S
C495 C497 1.374 . S
C495 H517 0.931 . S
C496 C497 1.359 . S
C496 C498 1.364 . S
C497 C495 1.374 . S
C497 C496 1.359 . S
C497 H518 0.931 . S
C498 C494 1.389 . S
C498 C496 1.364 . S
C498 H519 0.931 . S
C499 O510 1.256 1_645 S
C499 O511 1.257 . S
O500 Gd480 2.377 1_565 S
O500 C482 1.240 . S
O501 Gd481 2.395 1_655 S
O501 C482 1.240 . S
O502 Gd480 2.448 . S
O502 C483 1.249 . S
O503 Gd480 2.506 . S
O503 C483 1.252 . S
O504 Gd480 2.435 . S
O504 C490 1.256 . S
O505 Gd480 2.717 . S
O505 Gd481 2.327 1_645 S
O505 C490 1.257 . S
O506 Gd481 2.377 1_545 S
O506 C491 1.240 . S
O507 Gd480 2.395 . S
O507 C491 1.240 1_655 S
O508 Gd481 2.448 . S
O508 C492 1.263 . S
O509 Gd481 2.505 1_545 S
O509 C492 1.250 1_545 S
O510 Gd481 2.435 . S
O510 C499 1.256 1_465 S
O511 Gd480 2.327 . S
O511 Gd481 2.717 1_645 S
O511 C499 1.257 . S
H512 C485 0.930 . S
H513 C486 0.931 . S
H514 C488 0.931 . S
H515 C489 0.931 . S
H516 C494 0.930 1_565 S
H517 C495 0.931 . S
H518 C497 0.931 . S
H519 C498 0.931 . S
Gd520 C523 2.818 . S
Gd520 O540 2.377 . S
Gd520 O542 2.448 . S
Gd520 O543 2.506 . S
Gd520 O544 2.435 . S
Gd520 O545 2.717 . S
Gd520 O547 2.395 . S
Gd520 O551 2.327 . S
Gd521 C532 2.818 . S
Gd521 O541 2.395 . S
Gd521 O545 2.327 . S
Gd521 O546 2.377 . S
Gd521 O548 2.448 . S
Gd521 O549 2.506 . S
Gd521 O550 2.435 . S
Gd521 O551 2.717 . S
C522 O540 1.240 . S
C522 O541 1.240 . S
C523 Gd520 2.818 . S
C523 C524 1.510 . S
C523 O542 1.249 . S
C523 O543 1.252 . S
C524 C523 1.510 . S
C524 C525 1.404 1_655 S
C524 C526 1.352 1_655 S
C525 C524 1.404 1_455 S
C525 C529 1.389 . S
C525 H552 0.930 . S
C526 C524 1.352 1_455 S
C526 C528 1.374 . S
C526 H553 0.931 . S
C527 C528 1.359 . S
C527 C529 1.364 . S
C528 C526 1.374 . S
C528 C527 1.359 . S
C528 H554 0.931 . S
C529 C525 1.389 . S
C529 C527 1.364 . S
C529 H555 0.931 . S
C530 O544 1.256 . S
C530 O545 1.257 . S
C531 O546 1.240 . S
C531 O547 1.240 . S
C532 Gd521 2.818 . S
C532 C533 1.510 . S
C532 O548 1.249 . S
C532 O549 1.252 . S
C533 C532 1.510 . S
C533 C534 1.404 . S
C533 C535 1.352 . S
C534 C533 1.404 . S
C534 C538 1.389 . S
C534 H556 0.930 . S
C535 C533 1.352 . S
C535 C537 1.374 . S
C535 H557 0.931 . S
C536 C537 1.359 . S
C536 C538 1.364 . S
C537 C535 1.374 . S
C537 C536 1.359 . S
C537 H558 0.931 . S
C538 C534 1.389 . S
C538 C536 1.364 . S
C538 H559 0.931 . S
C539 O550 1.256 . S
C539 O551 1.257 . S
O540 Gd520 2.377 . S
O540 C522 1.240 . S
O541 Gd521 2.395 . S
O541 C522 1.240 . S
O542 Gd520 2.448 . S
O542 C523 1.249 . S
O543 Gd520 2.506 . S
O543 C523 1.252 . S
O544 Gd520 2.435 . S
O544 C530 1.256 . S
O545 Gd520 2.717 . S
O545 Gd521 2.327 . S
O545 C530 1.257 . S
O546 Gd521 2.377 . S
O546 C531 1.240 . S
O547 Gd520 2.395 . S
O547 C531 1.240 . S
O548 Gd521 2.448 . S
O548 C532 1.249 . S
O549 Gd521 2.506 . S
O549 C532 1.252 . S
O550 Gd521 2.435 . S
O550 C539 1.256 . S
O551 Gd520 2.327 . S
O551 Gd521 2.717 . S
O551 C539 1.257 . S
H552 C525 0.930 . S
H553 C526 0.931 . S
H554 C528 0.931 . S
H555 C529 0.931 . S
H556 C534 0.930 . S
H557 C535 0.931 . S
H558 C537 0.931 . S
H559 C538 0.931 . S
Gd560 C563 2.818 . S
Gd560 O580 2.377 . S
Gd560 O582 2.448 . S
Gd560 O583 2.506 . S
Gd560 O584 2.435 . S
Gd560 O585 2.717 . S
Gd560 O587 2.395 . S
Gd560 O591 2.327 . S
Gd561 C572 2.818 . S
Gd561 O581 2.395 1_455 S
Gd561 O585 2.327 1_455 S
Gd561 O586 2.377 . S
Gd561 O588 2.448 . S
Gd561 O589 2.506 . S
Gd561 O590 2.435 . S
Gd561 O591 2.717 1_455 S
C562 O580 1.240 . S
C562 O581 1.240 . S
C563 Gd560 2.818 . S
C563 C564 1.510 . S
C563 O582 1.249 . S
C563 O583 1.252 . S
C564 C563 1.510 . S
C564 C565 1.404 . S
C564 C566 1.352 . S
C565 C564 1.404 . S
C565 C569 1.389 . S
C565 H592 0.930 . S
C566 C564 1.352 . S
C566 C568 1.374 . S
C566 H593 0.931 . S
C567 C568 1.359 . S
C567 C569 1.364 . S
C568 C566 1.374 . S
C568 C567 1.359 . S
C568 H594 0.931 . S
C569 C565 1.389 . S
C569 C567 1.364 . S
C569 H595 0.931 . S
C570 O584 1.256 . S
C570 O585 1.257 . S
C571 O586 1.240 . S
C571 O587 1.240 1_455 S
C572 Gd561 2.818 . S
C572 C573 1.510 . S
C572 O588 1.249 . S
C572 O589 1.252 . S
C573 C572 1.510 . S
C573 C574 1.404 . S
C573 C575 1.352 . S
C574 C573 1.404 . S
C574 C578 1.389 . S
C574 H596 0.930 . S
C575 C573 1.352 . S
C575 C577 1.374 . S
C575 H597 0.931 . S
C576 C577 1.359 . S
C576 C578 1.364 . S
C577 C575 1.374 . S
C577 C576 1.359 . S
C577 H598 0.931 . S
C578 C574 1.389 . S
C578 C576 1.364 . S
C578 H599 0.931 . S
C579 O590 1.256 1_655 S
C579 O591 1.257 . S
O580 Gd560 2.377 . S
O580 C562 1.240 . S
O581 Gd561 2.395 1_655 S
O581 C562 1.240 . S
O582 Gd560 2.448 . S
O582 C563 1.249 . S
O583 Gd560 2.506 . S
O583 C563 1.252 . S
O584 Gd560 2.435 . S
O584 C570 1.256 . S
O585 Gd560 2.717 . S
O585 Gd561 2.327 1_655 S
O585 C570 1.257 . S
O586 Gd561 2.377 . S
O586 C571 1.240 . S
O587 Gd560 2.395 . S
O587 C571 1.240 1_655 S
O588 Gd561 2.448 . S
O588 C572 1.249 . S
O589 Gd561 2.506 . S
O589 C572 1.252 . S
O590 Gd561 2.435 . S
O590 C579 1.256 1_455 S
O591 Gd560 2.327 . S
O591 Gd561 2.717 1_655 S
O591 C579 1.257 . S
H592 C565 0.930 . S
H593 C566 0.931 . S
H594 C568 0.931 . S
H595 C569 0.931 . S
H596 C574 0.930 . S
H597 C575 0.931 . S
H598 C577 0.931 . S
H599 C578 0.931 . S
Gd600 C603 2.818 . S
Gd600 O620 2.377 1_545 S
Gd600 O622 2.448 . S
Gd600 O623 2.506 . S
Gd600 O624 2.435 . S
Gd600 O625 2.717 . S
Gd600 O627 2.395 . S
Gd600 O631 2.327 . S
Gd601 C612 2.829 . S
Gd601 O621 2.395 . S
Gd601 O625 2.327 1_565 S
Gd601 O626 2.377 1_565 S
Gd601 O628 2.448 . S
Gd601 O629 2.505 1_565 S
Gd601 O630 2.435 . S
Gd601 O631 2.717 1_565 S
C602 O620 1.240 . S
C602 O621 1.240 . S
C603 Gd600 2.818 . S
C603 C604 1.510 . S
C603 O622 1.249 . S
C603 O623 1.252 . S
C604 C603 1.510 . S
C604 C605 1.404 1_655 S
C604 C606 1.352 1_645 S
C605 C604 1.404 1_455 S
C605 C609 1.389 . S
C605 H632 0.930 . S
C606 C604 1.352 1_465 S
C606 C608 1.374 . S
C606 H633 0.931 . S
C607 C608 1.359 . S
C607 C609 1.364 1_565 S
C608 C606 1.374 . S
C608 C607 1.359 . S
C608 H634 0.931 . S
C609 C605 1.389 . S
C609 C607 1.364 1_545 S
C609 H635 0.931 . S
C610 O624 1.256 . S
C610 O625 1.257 . S
C611 O626 1.240 . S
C611 O627 1.240 . S
C612 Gd601 2.829 . S
C612 C613 1.499 1_565 S
C612 O628 1.263 . S
C612 O629 1.250 1_565 S
C613 C612 1.499 1_545 S
C613 C614 1.404 . S
C613 C615 1.352 . S
C614 C613 1.404 . S
C614 C618 1.389 . S
C614 H636 0.930 1_545 S
C615 C613 1.352 . S
C615 C617 1.374 . S
C615 H637 0.931 . S
C616 C617 1.359 . S
C616 C618 1.364 . S
C617 C615 1.374 . S
C617 C616 1.359 . S
C617 H638 0.931 . S
C618 C614 1.389 . S
C618 C616 1.364 . S
C618 H639 0.931 . S
C619 O630 1.256 1_545 S
C619 O631 1.257 . S
O620 Gd600 2.377 1_565 S
O620 C602 1.240 . S
O621 Gd601 2.395 . S
O621 C602 1.240 . S
O622 Gd600 2.448 . S
O622 C603 1.249 . S
O623 Gd600 2.506 . S
O623 C603 1.252 . S
O624 Gd600 2.435 . S
O624 C610 1.256 . S
O625 Gd600 2.717 . S
O625 Gd601 2.327 1_545 S
O625 C610 1.257 . S
O626 Gd601 2.377 1_545 S
O626 C611 1.240 . S
O627 Gd600 2.395 . S
O627 C611 1.240 . S
O628 Gd601 2.448 . S
O628 C612 1.263 . S
O629 Gd601 2.505 1_545 S
O629 C612 1.250 1_545 S
O630 Gd601 2.435 . S
O630 C619 1.256 1_565 S
O631 Gd600 2.327 . S
O631 Gd601 2.717 1_545 S
O631 C619 1.257 . S
H632 C605 0.930 . S
H633 C606 0.931 . S
H634 C608 0.931 . S
H635 C609 0.931 . S
H636 C614 0.930 1_565 S
H637 C615 0.931 . S
H638 C617 0.931 . S
H639 C618 0.931 . S
Gd640 C643 2.818 . S
Gd640 O660 2.377 . S
Gd640 O662 2.448 . S
Gd640 O663 2.506 . S
Gd640 O664 2.435 . S
Gd640 O665 2.717 . S
Gd640 O667 2.395 . S
Gd640 O671 2.327 . S
Gd641 C652 2.818 . S
Gd641 O661 2.395 . S
Gd641 O665 2.327 . S
Gd641 O666 2.377 . S
Gd641 O668 2.448 . S
Gd641 O669 2.506 . S
Gd641 O670 2.435 . S
Gd641 O671 2.717 . S
C642 O660 1.240 . S
C642 O661 1.240 . S
C643 Gd640 2.818 . S
C643 C644 1.510 . S
C643 O662 1.249 . S
C643 O663 1.252 . S
C644 C643 1.510 . S
C644 C645 1.404 . S
C644 C646 1.352 . S
C645 C644 1.404 . S
C645 C649 1.389 . S
C645 H672 0.930 . S
C646 C644 1.352 . S
C646 C648 1.374 . S
C646 H673 0.931 . S
C647 C648 1.359 . S
C647 C649 1.364 . S
C648 C646 1.374 . S
C648 C647 1.359 . S
C648 H674 0.931 . S
C649 C645 1.389 . S
C649 C647 1.364 . S
C649 H675 0.931 . S
C650 O664 1.256 . S
C650 O665 1.257 . S
C651 O666 1.240 . S
C651 O667 1.240 . S
C652 Gd641 2.818 . S
C652 C653 1.510 . S
C652 O668 1.249 . S
C652 O669 1.252 . S
C653 C652 1.510 . S
C653 C654 1.404 . S
C653 C655 1.352 . S
C654 C653 1.404 . S
C654 C658 1.389 . S
C654 H676 0.930 . S
C655 C653 1.352 . S
C655 C657 1.374 . S
C655 H677 0.931 . S
C656 C657 1.359 . S
C656 C658 1.364 . S
C657 C655 1.374 . S
C657 C656 1.359 . S
C657 H678 0.931 . S
C658 C654 1.389 . S
C658 C656 1.364 . S
C658 H679 0.931 . S
C659 O670 1.256 . S
C659 O671 1.257 . S
O660 Gd640 2.377 . S
O660 C642 1.240 . S
O661 Gd641 2.395 . S
O661 C642 1.240 . S
O662 Gd640 2.448 . S
O662 C643 1.249 . S
O663 Gd640 2.506 . S
O663 C643 1.252 . S
O664 Gd640 2.435 . S
O664 C650 1.256 . S
O665 Gd640 2.717 . S
O665 Gd641 2.327 . S
O665 C650 1.257 . S
O666 Gd641 2.377 . S
O666 C651 1.240 . S
O667 Gd640 2.395 . S
O667 C651 1.240 . S
O668 Gd641 2.448 . S
O668 C652 1.249 . S
O669 Gd641 2.506 . S
O669 C652 1.252 . S
O670 Gd641 2.435 . S
O670 C659 1.256 . S
O671 Gd640 2.327 . S
O671 Gd641 2.717 . S
O671 C659 1.257 . S
H672 C645 0.930 . S
H673 C646 0.931 . S
H674 C648 0.931 . S
H675 C649 0.931 . S
H676 C654 0.930 . S
H677 C655 0.931 . S
H678 C657 0.931 . S
H679 C658 0.931 . S
Gd680 C683 2.818 . S
Gd680 O700 2.377 . S
Gd680 O702 2.448 . S
Gd680 O703 2.506 . S
Gd680 O704 2.435 . S
Gd680 O705 2.717 . S
Gd680 O707 2.395 . S
Gd680 O711 2.327 . S
Gd681 C692 2.818 . S
Gd681 O701 2.395 . S
Gd681 O705 2.327 . S
Gd681 O706 2.377 . S
Gd681 O708 2.448 . S
Gd681 O709 2.506 . S
Gd681 O710 2.435 . S
Gd681 O711 2.717 . S
C682 O700 1.240 . S
C682 O701 1.240 . S
C683 Gd680 2.818 . S
C683 C684 1.510 . S
C683 O702 1.249 . S
C683 O703 1.252 . S
C684 C683 1.510 . S
C684 C685 1.404 . S
C684 C686 1.352 . S
C685 C684 1.404 . S
C685 C689 1.389 1_655 S
C685 H712 0.930 . S
C686 C684 1.352 . S
C686 C688 1.374 1_655 S
C686 H713 0.931 . S
C687 C688 1.359 . S
C687 C689 1.364 . S
C688 C686 1.374 1_455 S
C688 C687 1.359 . S
C688 H714 0.931 . S
C689 C685 1.389 1_455 S
C689 C687 1.364 . S
C689 H715 0.931 . S
C690 O704 1.256 . S
C690 O705 1.257 . S
C691 O706 1.240 . S
C691 O707 1.240 . S
C692 Gd681 2.818 . S
C692 C693 1.510 . S
C692 O708 1.249 . S
C692 O709 1.252 . S
C693 C692 1.510 . S
C693 C694 1.404 . S
C693 C695 1.352 . S
C694 C693 1.404 . S
C694 C698 1.389 . S
C694 H716 0.930 . S
C695 C693 1.352 . S
C695 C697 1.374 . S
C695 H717 0.931 . S
C696 C697 1.359 . S
C696 C698 1.364 . S
C697 C695 1.374 . S
C697 C696 1.359 . S
C697 H718 0.931 . S
C698 C694 1.389 . S
C698 C696 1.364 . S
C698 H719 0.931 . S
C699 O710 1.256 . S
C699 O711 1.257 . S
O700 Gd680 2.377 . S
O700 C682 1.240 . S
O701 Gd681 2.395 . S
O701 C682 1.240 . S
O702 Gd680 2.448 . S
O702 C683 1.249 . S
O703 Gd680 2.506 . S
O703 C683 1.252 . S
O704 Gd680 2.435 . S
O704 C690 1.256 . S
O705 Gd680 2.717 . S
O705 Gd681 2.327 . S
O705 C690 1.257 . S
O706 Gd681 2.377 . S
O706 C691 1.240 . S
O707 Gd680 2.395 . S
O707 C691 1.240 . S
O708 Gd681 2.448 . S
O708 C692 1.249 . S
O709 Gd681 2.506 . S
O709 C692 1.252 . S
O710 Gd681 2.435 . S
O710 C699 1.256 . S
O711 Gd680 2.327 . S
O711 Gd681 2.717 . S
O711 C699 1.257 . S
H712 C685 0.930 . S
H713 C686 0.931 . S
H714 C688 0.931 . S
H715 C689 0.931 . S
H716 C694 0.930 . S
H717 C695 0.931 . S
H718 C697 0.931 . S
H719 C698 0.931 . S
Gd720 C723 2.818 . S
Gd720 O740 2.377 . S
Gd720 O742 2.448 . S
Gd720 O743 2.506 . S
Gd720 O744 2.435 . S
Gd720 O745 2.717 . S
Gd720 O747 2.395 . S
Gd720 O751 2.327 . S
Gd721 C732 2.818 . S
Gd721 O741 2.395 . S
Gd721 O745 2.327 . S
Gd721 O746 2.377 . S
Gd721 O748 2.448 . S
Gd721 O749 2.506 . S
Gd721 O750 2.435 . S
Gd721 O751 2.717 . S
C722 O740 1.240 . S
C722 O741 1.240 . S
C723 Gd720 2.818 . S
C723 C724 1.510 . S
C723 O742 1.249 . S
C723 O743 1.252 . S
C724 C723 1.510 . S
C724 C725 1.404 . S
C724 C726 1.352 . S
C725 C724 1.404 . S
C725 C729 1.389 . S
C725 H752 0.930 . S
C726 C724 1.352 . S
C726 C728 1.374 . S
C726 H753 0.931 . S
C727 C728 1.359 . S
C727 C729 1.364 . S
C728 C726 1.374 . S
C728 C727 1.359 . S
C728 H754 0.931 . S
C729 C725 1.389 . S
C729 C727 1.364 . S
C729 H755 0.931 . S
C730 O744 1.256 . S
C730 O745 1.257 . S
C731 O746 1.240 . S
C731 O747 1.240 . S
C732 Gd721 2.818 . S
C732 C733 1.510 . S
C732 O748 1.249 . S
C732 O749 1.252 . S
C733 C732 1.510 . S
C733 C734 1.404 . S
C733 C735 1.352 . S
C734 C733 1.404 . S
C734 C738 1.389 . S
C734 H756 0.930 . S
C735 C733 1.352 . S
C735 C737 1.374 . S
C735 H757 0.931 . S
C736 C737 1.359 . S
C736 C738 1.364 . S
C737 C735 1.374 . S
C737 C736 1.359 . S
C737 H758 0.931 . S
C738 C734 1.389 . S
C738 C736 1.364 . S
C738 H759 0.931 . S
C739 O750 1.256 . S
C739 O751 1.257 . S
O740 Gd720 2.377 . S
O740 C722 1.240 . S
O741 Gd721 2.395 . S
O741 C722 1.240 . S
O742 Gd720 2.448 . S
O742 C723 1.249 . S
O743 Gd720 2.506 . S
O743 C723 1.252 . S
O744 Gd720 2.435 . S
O744 C730 1.256 . S
O745 Gd720 2.717 . S
O745 Gd721 2.327 . S
O745 C730 1.257 . S
O746 Gd721 2.377 . S
O746 C731 1.240 . S
O747 Gd720 2.395 . S
O747 C731 1.240 . S
O748 Gd721 2.448 . S
O748 C732 1.249 . S
O749 Gd721 2.506 . S
O749 C732 1.252 . S
O750 Gd721 2.435 . S
O750 C739 1.256 . S
O751 Gd720 2.327 . S
O751 Gd721 2.717 . S
O751 C739 1.257 . S
H752 C725 0.930 . S
H753 C726 0.931 . S
H754 C728 0.931 . S
H755 C729 0.931 . S
H756 C734 0.930 . S
H757 C735 0.931 . S
H758 C737 0.931 . S
H759 C738 0.931 . S
Gd760 C763 2.818 . S
Gd760 O780 2.377 . S
Gd760 O782 2.448 . S
Gd760 O783 2.506 . S
Gd760 O784 2.435 . S
Gd760 O785 2.717 . S
Gd760 O787 2.395 . S
Gd760 O791 2.327 . S
Gd761 C772 2.818 . S
Gd761 O781 2.395 . S
Gd761 O785 2.327 . S
Gd761 O786 2.377 . S
Gd761 O788 2.448 . S
Gd761 O789 2.506 . S
Gd761 O790 2.435 . S
Gd761 O791 2.717 . S
C762 O780 1.240 . S
C762 O781 1.240 . S
C763 Gd760 2.818 . S
C763 C764 1.510 . S
C763 O782 1.249 . S
C763 O783 1.252 . S
C764 C763 1.510 . S
C764 C765 1.404 . S
C764 C766 1.352 . S
C765 C764 1.404 . S
C765 C769 1.389 1_655 S
C765 H792 0.930 . S
C766 C764 1.352 . S
C766 C768 1.374 1_655 S
C766 H793 0.931 . S
C767 C768 1.359 . S
C767 C769 1.364 . S
C768 C766 1.374 1_455 S
C768 C767 1.359 . S
C768 H794 0.931 . S
C769 C765 1.389 1_455 S
C769 C767 1.364 . S
C769 H795 0.931 . S
C770 O784 1.256 . S
C770 O785 1.257 . S
C771 O786 1.240 . S
C771 O787 1.240 . S
C772 Gd761 2.818 . S
C772 C773 1.510 . S
C772 O788 1.249 . S
C772 O789 1.252 . S
C773 C772 1.510 . S
C773 C774 1.404 . S
C773 C775 1.352 . S
C774 C773 1.404 . S
C774 C778 1.389 . S
C774 H796 0.930 . S
C775 C773 1.352 . S
C775 C777 1.374 . S
C775 H797 0.931 . S
C776 C777 1.359 . S
C776 C778 1.364 . S
C777 C775 1.374 . S
C777 C776 1.359 . S
C777 H798 0.931 . S
C778 C774 1.389 . S
C778 C776 1.364 . S
C778 H799 0.931 . S
C779 O790 1.256 . S
C779 O791 1.257 . S
O780 Gd760 2.377 . S
O780 C762 1.240 . S
O781 Gd761 2.395 . S
O781 C762 1.240 . S
O782 Gd760 2.448 . S
O782 C763 1.249 . S
O783 Gd760 2.506 . S
O783 C763 1.252 . S
O784 Gd760 2.435 . S
O784 C770 1.256 . S
O785 Gd760 2.717 . S
O785 Gd761 2.327 . S
O785 C770 1.257 . S
O786 Gd761 2.377 . S
O786 C771 1.240 . S
O787 Gd760 2.395 . S
O787 C771 1.240 . S
O788 Gd761 2.448 . S
O788 C772 1.249 . S
O789 Gd761 2.506 . S
O789 C772 1.252 . S
O790 Gd761 2.435 . S
O790 C779 1.256 . S
O791 Gd760 2.327 . S
O791 Gd761 2.717 . S
O791 C779 1.257 . S
H792 C765 0.930 . S
H793 C766 0.931 . S
H794 C768 0.931 . S
H795 C769 0.931 . S
H796 C774 0.930 . S
H797 C775 0.931 . S
H798 C777 0.931 . S
H799 C778 0.931 . S
Gd800 C803 2.818 . S
Gd800 O820 2.377 . S
Gd800 O822 2.448 . S
Gd800 O823 2.506 . S
Gd800 O824 2.435 . S
Gd800 O825 2.717 . S
Gd800 O827 2.395 . S
Gd800 O831 2.327 . S
Gd801 C812 2.818 . S
Gd801 O821 2.395 . S
Gd801 O825 2.327 . S
Gd801 O826 2.377 . S
Gd801 O828 2.448 . S
Gd801 O829 2.506 . S
Gd801 O830 2.435 . S
Gd801 O831 2.717 . S
C802 O820 1.240 . S
C802 O821 1.240 . S
C803 Gd800 2.818 . S
C803 C804 1.510 . S
C803 O822 1.249 . S
C803 O823 1.252 . S
C804 C803 1.510 . S
C804 C805 1.404 . S
C804 C806 1.352 . S
C805 C804 1.404 . S
C805 C809 1.389 . S
C805 H832 0.930 . S
C806 C804 1.352 . S
C806 C808 1.374 . S
C806 H833 0.931 . S
C807 C808 1.359 . S
C807 C809 1.364 . S
C808 C806 1.374 . S
C808 C807 1.359 . S
C808 H834 0.931 . S
C809 C805 1.389 . S
C809 C807 1.364 . S
C809 H835 0.931 . S
C810 O824 1.256 . S
C810 O825 1.257 . S
C811 O826 1.240 . S
C811 O827 1.240 . S
C812 Gd801 2.818 . S
C812 C813 1.510 . S
C812 O828 1.249 . S
C812 O829 1.252 . S
C813 C812 1.510 . S
C813 C814 1.404 . S
C813 C815 1.352 . S
C814 C813 1.404 . S
C814 C818 1.389 . S
C814 H836 0.930 . S
C815 C813 1.352 . S
C815 C817 1.374 . S
C815 H837 0.931 . S
C816 C817 1.359 . S
C816 C818 1.364 . S
C817 C815 1.374 . S
C817 C816 1.359 . S
C817 H838 0.931 . S
C818 C814 1.389 . S
C818 C816 1.364 . S
C818 H839 0.931 . S
C819 O830 1.256 . S
C819 O831 1.257 . S
O820 Gd800 2.377 . S
O820 C802 1.240 . S
O821 Gd801 2.395 . S
O821 C802 1.240 . S
O822 Gd800 2.448 . S
O822 C803 1.249 . S
O823 Gd800 2.506 . S
O823 C803 1.252 . S
O824 Gd800 2.435 . S
O824 C810 1.256 . S
O825 Gd800 2.717 . S
O825 Gd801 2.327 . S
O825 C810 1.257 . S
O826 Gd801 2.377 . S
O826 C811 1.240 . S
O827 Gd800 2.395 . S
O827 C811 1.240 . S
O828 Gd801 2.448 . S
O828 C812 1.249 . S
O829 Gd801 2.506 . S
O829 C812 1.252 . S
O830 Gd801 2.435 . S
O830 C819 1.256 . S
O831 Gd800 2.327 . S
O831 Gd801 2.717 . S
O831 C819 1.257 . S
H832 C805 0.930 . S
H833 C806 0.931 . S
H834 C808 0.931 . S
H835 C809 0.931 . S
H836 C814 0.930 . S
H837 C815 0.931 . S
H838 C817 0.931 . S
H839 C818 0.931 . S
Gd840 C843 2.818 . S
Gd840 O860 2.377 . S
Gd840 O862 2.448 . S
Gd840 O863 2.506 . S
Gd840 O864 2.435 . S
Gd840 O865 2.717 . S
Gd840 O867 2.395 . S
Gd840 O871 2.327 . S
Gd841 C852 2.818 . S
Gd841 O861 2.395 . S
Gd841 O865 2.327 . S
Gd841 O866 2.377 . S
Gd841 O868 2.448 . S
Gd841 O869 2.506 . S
Gd841 O870 2.435 . S
Gd841 O871 2.717 . S
C842 O860 1.240 . S
C842 O861 1.240 . S
C843 Gd840 2.818 . S
C843 C844 1.510 . S
C843 O862 1.249 . S
C843 O863 1.252 . S
C844 C843 1.510 . S
C844 C845 1.404 . S
C844 C846 1.352 . S
C845 C844 1.404 . S
C845 C849 1.389 . S
C845 H872 0.930 . S
C846 C844 1.352 . S
C846 C848 1.374 . S
C846 H873 0.931 . S
C847 C848 1.359 . S
C847 C849 1.364 . S
C848 C846 1.374 . S
C848 C847 1.359 . S
C848 H874 0.931 . S
C849 C845 1.389 . S
C849 C847 1.364 . S
C849 H875 0.931 . S
C850 O864 1.256 . S
C850 O865 1.257 . S
C851 O866 1.240 . S
C851 O867 1.240 . S
C852 Gd841 2.818 . S
C852 C853 1.510 . S
C852 O868 1.249 . S
C852 O869 1.252 . S
C853 C852 1.510 . S
C853 C854 1.404 . S
C853 C855 1.352 . S
C854 C853 1.404 . S
C854 C858 1.389 1_455 S
C854 H876 0.930 . S
C855 C853 1.352 . S
C855 C857 1.374 1_455 S
C855 H877 0.931 . S
C856 C857 1.359 . S
C856 C858 1.364 . S
C857 C855 1.374 1_655 S
C857 C856 1.359 . S
C857 H878 0.931 . S
C858 C854 1.389 1_655 S
C858 C856 1.364 . S
C858 H879 0.931 . S
C859 O870 1.256 . S
C859 O871 1.257 . S
O860 Gd840 2.377 . S
O860 C842 1.240 . S
O861 Gd841 2.395 . S
O861 C842 1.240 . S
O862 Gd840 2.448 . S
O862 C843 1.249 . S
O863 Gd840 2.506 . S
O863 C843 1.252 . S
O864 Gd840 2.435 . S
O864 C850 1.256 . S
O865 Gd840 2.717 . S
O865 Gd841 2.327 . S
O865 C850 1.257 . S
O866 Gd841 2.377 . S
O866 C851 1.240 . S
O867 Gd840 2.395 . S
O867 C851 1.240 . S
O868 Gd841 2.448 . S
O868 C852 1.249 . S
O869 Gd841 2.506 . S
O869 C852 1.252 . S
O870 Gd841 2.435 . S
O870 C859 1.256 . S
O871 Gd840 2.327 . S
O871 Gd841 2.717 . S
O871 C859 1.257 . S
H872 C845 0.930 . S
H873 C846 0.931 . S
H874 C848 0.931 . S
H875 C849 0.931 . S
H876 C854 0.930 . S
H877 C855 0.931 . S
H878 C857 0.931 . S
H879 C858 0.931 . S
Gd880 C883 2.818 . S
Gd880 O900 2.377 . S
Gd880 O902 2.448 . S
Gd880 O903 2.506 . S
Gd880 O904 2.435 . S
Gd880 O905 2.717 . S
Gd880 O907 2.395 . S
Gd880 O911 2.327 . S
Gd881 C892 2.818 . S
Gd881 O901 2.395 . S
Gd881 O905 2.327 . S
Gd881 O906 2.377 . S
Gd881 O908 2.448 . S
Gd881 O909 2.506 . S
Gd881 O910 2.435 . S
Gd881 O911 2.717 . S
C882 O900 1.240 . S
C882 O901 1.240 . S
C883 Gd880 2.818 . S
C883 C884 1.510 . S
C883 O902 1.249 . S
C883 O903 1.252 . S
C884 C883 1.510 . S
C884 C885 1.404 . S
C884 C886 1.352 . S
C885 C884 1.404 . S
C885 C889 1.389 . S
C885 H912 0.930 . S
C886 C884 1.352 . S
C886 C888 1.374 . S
C886 H913 0.931 . S
C887 C888 1.359 . S
C887 C889 1.364 . S
C888 C886 1.374 . S
C888 C887 1.359 . S
C888 H914 0.931 . S
C889 C885 1.389 . S
C889 C887 1.364 . S
C889 H915 0.931 . S
C890 O904 1.256 . S
C890 O905 1.257 . S
C891 O906 1.240 . S
C891 O907 1.240 . S
C892 Gd881 2.818 . S
C892 C893 1.510 . S
C892 O908 1.249 . S
C892 O909 1.252 . S
C893 C892 1.510 . S
C893 C894 1.404 . S
C893 C895 1.352 . S
C894 C893 1.404 . S
C894 C898 1.389 . S
C894 H916 0.930 . S
C895 C893 1.352 . S
C895 C897 1.374 . S
C895 H917 0.931 . S
C896 C897 1.359 . S
C896 C898 1.364 . S
C897 C895 1.374 . S
C897 C896 1.359 . S
C897 H918 0.931 . S
C898 C894 1.389 . S
C898 C896 1.364 . S
C898 H919 0.931 . S
C899 O910 1.256 . S
C899 O911 1.257 . S
O900 Gd880 2.377 . S
O900 C882 1.240 . S
O901 Gd881 2.395 . S
O901 C882 1.240 . S
O902 Gd880 2.448 . S
O902 C883 1.249 . S
O903 Gd880 2.506 . S
O903 C883 1.252 . S
O904 Gd880 2.435 . S
O904 C890 1.256 . S
O905 Gd880 2.717 . S
O905 Gd881 2.327 . S
O905 C890 1.257 . S
O906 Gd881 2.377 . S
O906 C891 1.240 . S
O907 Gd880 2.395 . S
O907 C891 1.240 . S
O908 Gd881 2.448 . S
O908 C892 1.249 . S
O909 Gd881 2.506 . S
O909 C892 1.252 . S
O910 Gd881 2.435 . S
O910 C899 1.256 . S
O911 Gd880 2.327 . S
O911 Gd881 2.717 . S
O911 C899 1.257 . S
H912 C885 0.930 . S
H913 C886 0.931 . S
H914 C888 0.931 . S
H915 C889 0.931 . S
H916 C894 0.930 . S
H917 C895 0.931 . S
H918 C897 0.931 . S
H919 C898 0.931 . S
Gd920 C923 2.818 . S
Gd920 O940 2.377 . S
Gd920 O942 2.448 . S
Gd920 O943 2.506 . S
Gd920 O944 2.435 . S
Gd920 O945 2.717 . S
Gd920 O947 2.395 . S
Gd920 O951 2.327 . S
Gd921 C932 2.818 . S
Gd921 O941 2.395 . S
Gd921 O945 2.327 . S
Gd921 O946 2.377 . S
Gd921 O948 2.448 . S
Gd921 O949 2.506 . S
Gd921 O950 2.435 . S
Gd921 O951 2.717 . S
C922 O940 1.240 . S
C922 O941 1.240 . S
C923 Gd920 2.818 . S
C923 C924 1.510 . S
C923 O942 1.249 . S
C923 O943 1.252 . S
C924 C923 1.510 . S
C924 C925 1.404 . S
C924 C926 1.352 . S
C925 C924 1.404 . S
C925 C929 1.389 . S
C925 H952 0.930 . S
C926 C924 1.352 . S
C926 C928 1.374 . S
C926 H953 0.931 . S
C927 C928 1.359 . S
C927 C929 1.364 . S
C928 C926 1.374 . S
C928 C927 1.359 . S
C928 H954 0.931 . S
C929 C925 1.389 . S
C929 C927 1.364 . S
C929 H955 0.931 . S
C930 O944 1.256 . S
C930 O945 1.257 . S
C931 O946 1.240 . S
C931 O947 1.240 . S
C932 Gd921 2.818 . S
C932 C933 1.510 . S
C932 O948 1.249 . S
C932 O949 1.252 . S
C933 C932 1.510 . S
C933 C934 1.404 . S
C933 C935 1.352 . S
C934 C933 1.404 . S
C934 C938 1.389 1_455 S
C934 H956 0.930 . S
C935 C933 1.352 . S
C935 C937 1.374 1_455 S
C935 H957 0.931 . S
C936 C937 1.359 . S
C936 C938 1.364 . S
C937 C935 1.374 1_655 S
C937 C936 1.359 . S
C937 H958 0.931 . S
C938 C934 1.389 1_655 S
C938 C936 1.364 . S
C938 H959 0.931 . S
C939 O950 1.256 . S
C939 O951 1.257 . S
O940 Gd920 2.377 . S
O940 C922 1.240 . S
O941 Gd921 2.395 . S
O941 C922 1.240 . S
O942 Gd920 2.448 . S
O942 C923 1.249 . S
O943 Gd920 2.506 . S
O943 C923 1.252 . S
O944 Gd920 2.435 . S
O944 C930 1.256 . S
O945 Gd920 2.717 . S
O945 Gd921 2.327 . S
O945 C930 1.257 . S
O946 Gd921 2.377 . S
O946 C931 1.240 . S
O947 Gd920 2.395 . S
O947 C931 1.240 . S
O948 Gd921 2.448 . S
O948 C932 1.249 . S
O949 Gd921 2.506 . S
O949 C932 1.252 . S
O950 Gd921 2.435 . S
O950 C939 1.256 . S
O951 Gd920 2.327 . S
O951 Gd921 2.717 . S
O951 C939 1.257 . S
H952 C925 0.930 . S
H953 C926 0.931 . S
H954 C928 0.931 . S
H955 C929 0.931 . S
H956 C934 0.930 . S
H957 C935 0.931 . S
H958 C937 0.931 . S
H959 C938 0.931 . S
Gd960 C963 2.829 . S
Gd960 O980 2.377 1_545 S
Gd960 O982 2.448 . S
Gd960 O983 2.505 1_545 S
Gd960 O984 2.435 . S
Gd960 O985 2.717 1_545 S
Gd960 O987 2.395 . S
Gd960 O991 2.327 1_545 S
Gd961 C972 2.818 . S
Gd961 O981 2.395 . S
Gd961 O985 2.327 . S
Gd961 O986 2.377 1_565 S
Gd961 O988 2.448 . S
Gd961 O989 2.506 . S
Gd961 O990 2.435 . S
Gd961 O991 2.717 . S
C962 O980 1.240 . S
C962 O981 1.240 . S
C963 Gd960 2.829 . S
C963 C964 1.499 1_545 S
C963 O982 1.263 . S
C963 O983 1.250 1_545 S
C964 C963 1.499 1_565 S
C964 C965 1.404 . S
C964 C966 1.352 . S
C965 C964 1.404 . S
C965 C969 1.389 . S
C965 H992 0.930 1_565 S
C966 C964 1.352 . S
C966 C968 1.374 . S
C966 H993 0.931 . S
C967 C968 1.359 . S
C967 C969 1.364 . S
C968 C966 1.374 . S
C968 C967 1.359 . S
C968 H994 0.931 . S
C969 C965 1.389 . S
C969 C967 1.364 . S
C969 H995 0.931 . S
C970 O984 1.256 1_565 S
C970 O985 1.257 . S
C971 O986 1.240 . S
C971 O987 1.240 . S
C972 Gd961 2.818 . S
C972 C973 1.510 . S
C972 O988 1.249 . S
C972 O989 1.252 . S
C973 C972 1.510 . S
C973 C974 1.404 . S
C973 C975 1.352 1_565 S
C974 C973 1.404 . S
C974 C978 1.389 . S
C974 H996 0.930 . S
C975 C973 1.352 1_545 S
C975 C977 1.374 . S
C975 H997 0.931 . S
C976 C977 1.359 . S
C976 C978 1.364 1_545 S
C977 C975 1.374 . S
C977 C976 1.359 . S
C977 H998 0.931 . S
C978 C974 1.389 . S
C978 C976 1.364 1_565 S
C978 H999 0.931 . S
C979 O990 1.256 . S
C979 O991 1.257 . S
O980 Gd960 2.377 1_565 S
O980 C962 1.240 . S
O981 Gd961 2.395 . S
O981 C962 1.240 . S
O982 Gd960 2.448 . S
O982 C963 1.263 . S
O983 Gd960 2.505 1_565 S
O983 C963 1.250 1_565 S
O984 Gd960 2.435 . S
O984 C970 1.256 1_545 S
O985 Gd960 2.717 1_565 S
O985 Gd961 2.327 . S
O985 C970 1.257 . S
O986 Gd961 2.377 1_545 S
O986 C971 1.240 . S
O987 Gd960 2.395 . S
O987 C971 1.240 . S
O988 Gd961 2.448 . S
O988 C972 1.249 . S
O989 Gd961 2.506 . S
O989 C972 1.252 . S
O990 Gd961 2.435 . S
O990 C979 1.256 . S
O991 Gd960 2.327 1_565 S
O991 Gd961 2.717 . S
O991 C979 1.257 . S
H992 C965 0.930 1_545 S
H993 C966 0.931 . S
H994 C968 0.931 . S
H995 C969 0.931 . S
H996 C974 0.930 . S
H997 C975 0.931 . S
H998 C977 0.931 . S
H999 C978 0.931 . S
Gd1000 C1003 2.818 . S
Gd1000 O1020 2.377 . S
Gd1000 O1022 2.448 . S
Gd1000 O1023 2.506 . S
Gd1000 O1024 2.435 . S
Gd1000 O1025 2.717 . S
Gd1000 O1027 2.395 . S
Gd1000 O1031 2.327 . S
Gd1001 C1012 2.818 . S
Gd1001 O1021 2.395 . S
Gd1001 O1025 2.327 . S
Gd1001 O1026 2.377 . S
Gd1001 O1028 2.448 . S
Gd1001 O1029 2.506 . S
Gd1001 O1030 2.435 . S
Gd1001 O1031 2.717 . S
C1002 O1020 1.240 . S
C1002 O1021 1.240 . S
C1003 Gd1000 2.818 . S
C1003 C1004 1.510 . S
C1003 O1022 1.249 . S
C1003 O1023 1.252 . S
C1004 C1003 1.510 . S
C1004 C1005 1.404 . S
C1004 C1006 1.352 . S
C1005 C1004 1.404 . S
C1005 C1009 1.389 1_655 S
C1005 H1032 0.930 . S
C1006 C1004 1.352 . S
C1006 C1008 1.374 1_655 S
C1006 H1033 0.931 . S
C1007 C1008 1.359 . S
C1007 C1009 1.364 . S
C1008 C1006 1.374 1_455 S
C1008 C1007 1.359 . S
C1008 H1034 0.931 . S
C1009 C1005 1.389 1_455 S
C1009 C1007 1.364 . S
C1009 H1035 0.931 . S
C1010 O1024 1.256 . S
C1010 O1025 1.257 . S
C1011 O1026 1.240 . S
C1011 O1027 1.240 . S
C1012 Gd1001 2.818 . S
C1012 C1013 1.510 . S
C1012 O1028 1.249 . S
C1012 O1029 1.252 . S
C1013 C1012 1.510 . S
C1013 C1014 1.404 . S
C1013 C1015 1.352 . S
C1014 C1013 1.404 . S
C1014 C1018 1.389 . S
C1014 H1036 0.930 . S
C1015 C1013 1.352 . S
C1015 C1017 1.374 . S
C1015 H1037 0.931 . S
C1016 C1017 1.359 . S
C1016 C1018 1.364 . S
C1017 C1015 1.374 . S
C1017 C1016 1.359 . S
C1017 H1038 0.931 . S
C1018 C1014 1.389 . S
C1018 C1016 1.364 . S
C1018 H1039 0.931 . S
C1019 O1030 1.256 . S
C1019 O1031 1.257 . S
O1020 Gd1000 2.377 . S
O1020 C1002 1.240 . S
O1021 Gd1001 2.395 . S
O1021 C1002 1.240 . S
O1022 Gd1000 2.448 . S
O1022 C1003 1.249 . S
O1023 Gd1000 2.506 . S
O1023 C1003 1.252 . S
O1024 Gd1000 2.435 . S
O1024 C1010 1.256 . S
O1025 Gd1000 2.717 . S
O1025 Gd1001 2.327 . S
O1025 C1010 1.257 . S
O1026 Gd1001 2.377 . S
O1026 C1011 1.240 . S
O1027 Gd1000 2.395 . S
O1027 C1011 1.240 . S
O1028 Gd1001 2.448 . S
O1028 C1012 1.249 . S
O1029 Gd1001 2.506 . S
O1029 C1012 1.252 . S
O1030 Gd1001 2.435 . S
O1030 C1019 1.256 . S
O1031 Gd1000 2.327 . S
O1031 Gd1001 2.717 . S
O1031 C1019 1.257 . S
H1032 C1005 0.930 . S
H1033 C1006 0.931 . S
H1034 C1008 0.931 . S
H1035 C1009 0.931 . S
H1036 C1014 0.930 . S
H1037 C1015 0.931 . S
H1038 C1017 0.931 . S
H1039 C1018 0.931 . S
Gd1040 C1043 2.818 . S
Gd1040 O1060 2.377 . S
Gd1040 O1062 2.448 . S
Gd1040 O1063 2.506 . S
Gd1040 O1064 2.435 . S
Gd1040 O1065 2.717 . S
Gd1040 O1067 2.395 . S
Gd1040 O1071 2.327 . S
Gd1041 C1052 2.818 . S
Gd1041 O1061 2.395 . S
Gd1041 O1065 2.327 . S
Gd1041 O1066 2.377 . S
Gd1041 O1068 2.448 . S
Gd1041 O1069 2.506 . S
Gd1041 O1070 2.435 . S
Gd1041 O1071 2.717 . S
C1042 O1060 1.240 . S
C1042 O1061 1.240 . S
C1043 Gd1040 2.818 . S
C1043 C1044 1.510 . S
C1043 O1062 1.249 . S
C1043 O1063 1.252 . S
C1044 C1043 1.510 . S
C1044 C1045 1.404 . S
C1044 C1046 1.352 . S
C1045 C1044 1.404 . S
C1045 C1049 1.389 . S
C1045 H1072 0.930 . S
C1046 C1044 1.352 . S
C1046 C1048 1.374 . S
C1046 H1073 0.931 . S
C1047 C1048 1.359 . S
C1047 C1049 1.364 . S
C1048 C1046 1.374 . S
C1048 C1047 1.359 . S
C1048 H1074 0.931 . S
C1049 C1045 1.389 . S
C1049 C1047 1.364 . S
C1049 H1075 0.931 . S
C1050 O1064 1.256 . S
C1050 O1065 1.257 . S
C1051 O1066 1.240 . S
C1051 O1067 1.240 . S
C1052 Gd1041 2.818 . S
C1052 C1053 1.510 . S
C1052 O1068 1.249 . S
C1052 O1069 1.252 . S
C1053 C1052 1.510 . S
C1053 C1054 1.404 . S
C1053 C1055 1.352 . S
C1054 C1053 1.404 . S
C1054 C1058 1.389 . S
C1054 H1076 0.930 . S
C1055 C1053 1.352 . S
C1055 C1057 1.374 . S
C1055 H1077 0.931 . S
C1056 C1057 1.359 . S
C1056 C1058 1.364 . S
C1057 C1055 1.374 . S
C1057 C1056 1.359 . S
C1057 H1078 0.931 . S
C1058 C1054 1.389 . S
C1058 C1056 1.364 . S
C1058 H1079 0.931 . S
C1059 O1070 1.256 . S
C1059 O1071 1.257 . S
O1060 Gd1040 2.377 . S
O1060 C1042 1.240 . S
O1061 Gd1041 2.395 . S
O1061 C1042 1.240 . S
O1062 Gd1040 2.448 . S
O1062 C1043 1.249 . S
O1063 Gd1040 2.506 . S
O1063 C1043 1.252 . S
O1064 Gd1040 2.435 . S
O1064 C1050 1.256 . S
O1065 Gd1040 2.717 . S
O1065 Gd1041 2.327 . S
O1065 C1050 1.257 . S
O1066 Gd1041 2.377 . S
O1066 C1051 1.240 . S
O1067 Gd1040 2.395 . S
O1067 C1051 1.240 . S
O1068 Gd1041 2.448 . S
O1068 C1052 1.249 . S
O1069 Gd1041 2.506 . S
O1069 C1052 1.252 . S
O1070 Gd1041 2.435 . S
O1070 C1059 1.256 . S
O1071 Gd1040 2.327 . S
O1071 Gd1041 2.717 . S
O1071 C1059 1.257 . S
H1072 C1045 0.930 . S
H1073 C1046 0.931 . S
H1074 C1048 0.931 . S
H1075 C1049 0.931 . S
H1076 C1054 0.930 . S
H1077 C1055 0.931 . S
H1078 C1057 0.931 . S
H1079 C1058 0.931 . S
Gd1080 C1083 2.829 . S
Gd1080 O1100 2.377 1_545 S
Gd1080 O1102 2.448 . S
Gd1080 O1103 2.505 1_545 S
Gd1080 O1104 2.435 . S
Gd1080 O1105 2.717 1_545 S
Gd1080 O1107 2.395 . S
Gd1080 O1111 2.327 1_545 S
Gd1081 C1092 2.818 . S
Gd1081 O1101 2.395 . S
Gd1081 O1105 2.327 . S
Gd1081 O1106 2.377 1_565 S
Gd1081 O1108 2.448 . S
Gd1081 O1109 2.506 . S
Gd1081 O1110 2.435 . S
Gd1081 O1111 2.717 . S
C1082 O1100 1.240 . S
C1082 O1101 1.240 . S
C1083 Gd1080 2.829 . S
C1083 C1084 1.499 1_545 S
C1083 O1102 1.263 . S
C1083 O1103 1.250 1_545 S
C1084 C1083 1.499 1_565 S
C1084 C1085 1.404 . S
C1084 C1086 1.352 . S
C1085 C1084 1.404 . S
C1085 C1089 1.389 1_655 S
C1085 H1112 0.930 1_565 S
C1086 C1084 1.352 . S
C1086 C1088 1.374 1_655 S
C1086 H1113 0.931 . S
C1087 C1088 1.359 . S
C1087 C1089 1.364 . S
C1088 C1086 1.374 1_455 S
C1088 C1087 1.359 . S
C1088 H1114 0.931 . S
C1089 C1085 1.389 1_455 S
C1089 C1087 1.364 . S
C1089 H1115 0.931 . S
C1090 O1104 1.256 1_565 S
C1090 O1105 1.257 . S
C1091 O1106 1.240 . S
C1091 O1107 1.240 . S
C1092 Gd1081 2.818 . S
C1092 C1093 1.510 . S
C1092 O1108 1.249 . S
C1092 O1109 1.252 . S
C1093 C1092 1.510 . S
C1093 C1094 1.404 . S
C1093 C1095 1.352 1_565 S
C1094 C1093 1.404 . S
C1094 C1098 1.389 . S
C1094 H1116 0.930 . S
C1095 C1093 1.352 1_545 S
C1095 C1097 1.374 . S
C1095 H1117 0.931 . S
C1096 C1097 1.359 . S
C1096 C1098 1.364 1_545 S
C1097 C1095 1.374 . S
C1097 C1096 1.359 . S
C1097 H1118 0.931 . S
C1098 C1094 1.389 . S
C1098 C1096 1.364 1_565 S
C1098 H1119 0.931 . S
C1099 O1110 1.256 . S
C1099 O1111 1.257 . S
O1100 Gd1080 2.377 1_565 S
O1100 C1082 1.240 . S
O1101 Gd1081 2.395 . S
O1101 C1082 1.240 . S
O1102 Gd1080 2.448 . S
O1102 C1083 1.263 . S
O1103 Gd1080 2.505 1_565 S
O1103 C1083 1.250 1_565 S
O1104 Gd1080 2.435 . S
O1104 C1090 1.256 1_545 S
O1105 Gd1080 2.717 1_565 S
O1105 Gd1081 2.327 . S
O1105 C1090 1.257 . S
O1106 Gd1081 2.377 1_545 S
O1106 C1091 1.240 . S
O1107 Gd1080 2.395 . S
O1107 C1091 1.240 . S
O1108 Gd1081 2.448 . S
O1108 C1092 1.249 . S
O1109 Gd1081 2.506 . S
O1109 C1092 1.252 . S
O1110 Gd1081 2.435 . S
O1110 C1099 1.256 . S
O1111 Gd1080 2.327 1_565 S
O1111 Gd1081 2.717 . S
O1111 C1099 1.257 . S
H1112 C1085 0.930 1_545 S
H1113 C1086 0.931 . S
H1114 C1088 0.931 . S
H1115 C1089 0.931 . S
H1116 C1094 0.930 . S
H1117 C1095 0.931 . S
H1118 C1097 0.931 . S
H1119 C1098 0.931 . S
Gd1120 C1123 2.818 . S
Gd1120 O1140 2.377 1_545 S
Gd1120 O1142 2.448 . S
Gd1120 O1143 2.506 . S
Gd1120 O1144 2.435 . S
Gd1120 O1145 2.717 . S
Gd1120 O1147 2.395 . S
Gd1120 O1151 2.327 . S
Gd1121 C1132 2.829 . S
Gd1121 O1141 2.395 . S
Gd1121 O1145 2.327 1_565 S
Gd1121 O1146 2.377 1_565 S
Gd1121 O1148 2.448 . S
Gd1121 O1149 2.505 1_565 S
Gd1121 O1150 2.435 . S
Gd1121 O1151 2.717 1_565 S
C1122 O1140 1.240 . S
C1122 O1141 1.240 . S
C1123 Gd1120 2.818 . S
C1123 C1124 1.510 . S
C1123 O1142 1.249 . S
C1123 O1143 1.252 . S
C1124 C1123 1.510 . S
C1124 C1125 1.404 . S
C1124 C1126 1.352 1_545 S
C1125 C1124 1.404 . S
C1125 C1129 1.389 . S
C1125 H1152 0.930 . S
C1126 C1124 1.352 1_565 S
C1126 C1128 1.374 . S
C1126 H1153 0.931 . S
C1127 C1128 1.359 . S
C1127 C1129 1.364 1_565 S
C1128 C1126 1.374 . S
C1128 C1127 1.359 . S
C1128 H1154 0.931 . S
C1129 C1125 1.389 . S
C1129 C1127 1.364 1_545 S
C1129 H1155 0.931 . S
C1130 O1144 1.256 . S
C1130 O1145 1.257 . S
C1131 O1146 1.240 . S
C1131 O1147 1.240 . S
C1132 Gd1121 2.829 . S
C1132 C1133 1.499 1_565 S
C1132 O1148 1.263 . S
C1132 O1149 1.250 1_565 S
C1133 C1132 1.499 1_545 S
C1133 C1134 1.404 . S
C1133 C1135 1.352 . S
C1134 C1133 1.404 . S
C1134 C1138 1.389 . S
C1134 H1156 0.930 1_545 S
C1135 C1133 1.352 . S
C1135 C1137 1.374 . S
C1135 H1157 0.931 . S
C1136 C1137 1.359 . S
C1136 C1138 1.364 . S
C1137 C1135 1.374 . S
C1137 C1136 1.359 . S
C1137 H1158 0.931 . S
C1138 C1134 1.389 . S
C1138 C1136 1.364 . S
C1138 H1159 0.931 . S
C1139 O1150 1.256 1_545 S
C1139 O1151 1.257 . S
O1140 Gd1120 2.377 1_565 S
O1140 C1122 1.240 . S
O1141 Gd1121 2.395 . S
O1141 C1122 1.240 . S
O1142 Gd1120 2.448 . S
O1142 C1123 1.249 . S
O1143 Gd1120 2.506 . S
O1143 C1123 1.252 . S
O1144 Gd1120 2.435 . S
O1144 C1130 1.256 . S
O1145 Gd1120 2.717 . S
O1145 Gd1121 2.327 1_545 S
O1145 C1130 1.257 . S
O1146 Gd1121 2.377 1_545 S
O1146 C1131 1.240 . S
O1147 Gd1120 2.395 . S
O1147 C1131 1.240 . S
O1148 Gd1121 2.448 . S
O1148 C1132 1.263 . S
O1149 Gd1121 2.505 1_545 S
O1149 C1132 1.250 1_545 S
O1150 Gd1121 2.435 . S
O1150 C1139 1.256 1_565 S
O1151 Gd1120 2.327 . S
O1151 Gd1121 2.717 1_545 S
O1151 C1139 1.257 . S
H1152 C1125 0.930 . S
H1153 C1126 0.931 . S
H1154 C1128 0.931 . S
H1155 C1129 0.931 . S
H1156 C1134 0.930 1_565 S
H1157 C1135 0.931 . S
H1158 C1137 0.931 . S
H1159 C1138 0.931 . S
Gd1160 C1163 2.818 . S
Gd1160 O1180 2.377 . S
Gd1160 O1182 2.448 . S
Gd1160 O1183 2.506 . S
Gd1160 O1184 2.435 . S
Gd1160 O1185 2.717 . S
Gd1160 O1187 2.395 . S
Gd1160 O1191 2.327 . S
Gd1161 C1172 2.818 . S
Gd1161 O1181 2.395 . S
Gd1161 O1185 2.327 . S
Gd1161 O1186 2.377 . S
Gd1161 O1188 2.448 . S
Gd1161 O1189 2.506 . S
Gd1161 O1190 2.435 . S
Gd1161 O1191 2.717 . S
C1162 O1180 1.240 . S
C1162 O1181 1.240 . S
C1163 Gd1160 2.818 . S
C1163 C1164 1.510 . S
C1163 O1182 1.249 . S
C1163 O1183 1.252 . S
C1164 C1163 1.510 . S
C1164 C1165 1.404 . S
C1164 C1166 1.352 . S
C1165 C1164 1.404 . S
C1165 C1169 1.389 . S
C1165 H1192 0.930 . S
C1166 C1164 1.352 . S
C1166 C1168 1.374 . S
C1166 H1193 0.931 . S
C1167 C1168 1.359 . S
C1167 C1169 1.364 . S
C1168 C1166 1.374 . S
C1168 C1167 1.359 . S
C1168 H1194 0.931 . S
C1169 C1165 1.389 . S
C1169 C1167 1.364 . S
C1169 H1195 0.931 . S
C1170 O1184 1.256 . S
C1170 O1185 1.257 . S
C1171 O1186 1.240 . S
C1171 O1187 1.240 . S
C1172 Gd1161 2.818 . S
C1172 C1173 1.510 . S
C1172 O1188 1.249 . S
C1172 O1189 1.252 . S
C1173 C1172 1.510 . S
C1173 C1174 1.404 . S
C1173 C1175 1.352 . S
C1174 C1173 1.404 . S
C1174 C1178 1.389 1_455 S
C1174 H1196 0.930 . S
C1175 C1173 1.352 . S
C1175 C1177 1.374 1_455 S
C1175 H1197 0.931 . S
C1176 C1177 1.359 . S
C1176 C1178 1.364 . S
C1177 C1175 1.374 1_655 S
C1177 C1176 1.359 . S
C1177 H1198 0.931 . S
C1178 C1174 1.389 1_655 S
C1178 C1176 1.364 . S
C1178 H1199 0.931 . S
C1179 O1190 1.256 . S
C1179 O1191 1.257 . S
O1180 Gd1160 2.377 . S
O1180 C1162 1.240 . S
O1181 Gd1161 2.395 . S
O1181 C1162 1.240 . S
O1182 Gd1160 2.448 . S
O1182 C1163 1.249 . S
O1183 Gd1160 2.506 . S
O1183 C1163 1.252 . S
O1184 Gd1160 2.435 . S
O1184 C1170 1.256 . S
O1185 Gd1160 2.717 . S
O1185 Gd1161 2.327 . S
O1185 C1170 1.257 . S
O1186 Gd1161 2.377 . S
O1186 C1171 1.240 . S
O1187 Gd1160 2.395 . S
O1187 C1171 1.240 . S
O1188 Gd1161 2.448 . S
O1188 C1172 1.249 . S
O1189 Gd1161 2.506 . S
O1189 C1172 1.252 . S
O1190 Gd1161 2.435 . S
O1190 C1179 1.256 . S
O1191 Gd1160 2.327 . S
O1191 Gd1161 2.717 . S
O1191 C1179 1.257 . S
H1192 C1165 0.930 . S
H1193 C1166 0.931 . S
H1194 C1168 0.931 . S
H1195 C1169 0.931 . S
H1196 C1174 0.930 . S
H1197 C1175 0.931 . S
H1198 C1177 0.931 . S
H1199 C1178 0.931 . S
Gd1200 C1203 2.818 . S
Gd1200 O1220 2.377 . S
Gd1200 O1222 2.448 . S
Gd1200 O1223 2.506 . S
Gd1200 O1224 2.435 . S
Gd1200 O1225 2.717 . S
Gd1200 O1227 2.395 . S
Gd1200 O1231 2.327 . S
Gd1201 C1212 2.818 . S
Gd1201 O1221 2.395 . S
Gd1201 O1225 2.327 . S
Gd1201 O1226 2.377 . S
Gd1201 O1228 2.448 . S
Gd1201 O1229 2.506 . S
Gd1201 O1230 2.435 . S
Gd1201 O1231 2.717 . S
C1202 O1220 1.240 . S
C1202 O1221 1.240 . S
C1203 Gd1200 2.818 . S
C1203 C1204 1.510 . S
C1203 O1222 1.249 . S
C1203 O1223 1.252 . S
C1204 C1203 1.510 . S
C1204 C1205 1.404 . S
C1204 C1206 1.352 . S
C1205 C1204 1.404 . S
C1205 C1209 1.389 . S
C1205 H1232 0.930 . S
C1206 C1204 1.352 . S
C1206 C1208 1.374 . S
C1206 H1233 0.931 . S
C1207 C1208 1.359 . S
C1207 C1209 1.364 . S
C1208 C1206 1.374 . S
C1208 C1207 1.359 . S
C1208 H1234 0.931 . S
C1209 C1205 1.389 . S
C1209 C1207 1.364 . S
C1209 H1235 0.931 . S
C1210 O1224 1.256 . S
C1210 O1225 1.257 . S
C1211 O1226 1.240 . S
C1211 O1227 1.240 . S
C1212 Gd1201 2.818 . S
C1212 C1213 1.510 . S
C1212 O1228 1.249 . S
C1212 O1229 1.252 . S
C1213 C1212 1.510 . S
C1213 C1214 1.404 . S
C1213 C1215 1.352 . S
C1214 C1213 1.404 . S
C1214 C1218 1.389 . S
C1214 H1236 0.930 . S
C1215 C1213 1.352 . S
C1215 C1217 1.374 . S
C1215 H1237 0.931 . S
C1216 C1217 1.359 . S
C1216 C1218 1.364 . S
C1217 C1215 1.374 . S
C1217 C1216 1.359 . S
C1217 H1238 0.931 . S
C1218 C1214 1.389 . S
C1218 C1216 1.364 . S
C1218 H1239 0.931 . S
C1219 O1230 1.256 . S
C1219 O1231 1.257 . S
O1220 Gd1200 2.377 . S
O1220 C1202 1.240 . S
O1221 Gd1201 2.395 . S
O1221 C1202 1.240 . S
O1222 Gd1200 2.448 . S
O1222 C1203 1.249 . S
O1223 Gd1200 2.506 . S
O1223 C1203 1.252 . S
O1224 Gd1200 2.435 . S
O1224 C1210 1.256 . S
O1225 Gd1200 2.717 . S
O1225 Gd1201 2.327 . S
O1225 C1210 1.257 . S
O1226 Gd1201 2.377 . S
O1226 C1211 1.240 . S
O1227 Gd1200 2.395 . S
O1227 C1211 1.240 . S
O1228 Gd1201 2.448 . S
O1228 C1212 1.249 . S
O1229 Gd1201 2.506 . S
O1229 C1212 1.252 . S
O1230 Gd1201 2.435 . S
O1230 C1219 1.256 . S
O1231 Gd1200 2.327 . S
O1231 Gd1201 2.717 . S
O1231 C1219 1.257 . S
H1232 C1205 0.930 . S
H1233 C1206 0.931 . S
H1234 C1208 0.931 . S
H1235 C1209 0.931 . S
H1236 C1214 0.930 . S
H1237 C1215 0.931 . S
H1238 C1217 0.931 . S
H1239 C1218 0.931 . S
Gd1240 C1243 2.818 . S
Gd1240 O1260 2.377 1_545 S
Gd1240 O1262 2.448 . S
Gd1240 O1263 2.506 . S
Gd1240 O1264 2.435 . S
Gd1240 O1265 2.717 . S
Gd1240 O1267 2.395 . S
Gd1240 O1271 2.327 . S
Gd1241 C1252 2.829 . S
Gd1241 O1261 2.395 . S
Gd1241 O1265 2.327 1_565 S
Gd1241 O1266 2.377 1_565 S
Gd1241 O1268 2.448 . S
Gd1241 O1269 2.505 1_565 S
Gd1241 O1270 2.435 . S
Gd1241 O1271 2.717 1_565 S
C1242 O1260 1.240 . S
C1242 O1261 1.240 . S
C1243 Gd1240 2.818 . S
C1243 C1244 1.510 . S
C1243 O1262 1.249 . S
C1243 O1263 1.252 . S
C1244 C1243 1.510 . S
C1244 C1245 1.404 . S
C1244 C1246 1.352 1_545 S
C1245 C1244 1.404 . S
C1245 C1249 1.389 . S
C1245 H1272 0.930 . S
C1246 C1244 1.352 1_565 S
C1246 C1248 1.374 . S
C1246 H1273 0.931 . S
C1247 C1248 1.359 . S
C1247 C1249 1.364 1_565 S
C1248 C1246 1.374 . S
C1248 C1247 1.359 . S
C1248 H1274 0.931 . S
C1249 C1245 1.389 . S
C1249 C1247 1.364 1_545 S
C1249 H1275 0.931 . S
C1250 O1264 1.256 . S
C1250 O1265 1.257 . S
C1251 O1266 1.240 . S
C1251 O1267 1.240 . S
C1252 Gd1241 2.829 . S
C1252 C1253 1.499 1_565 S
C1252 O1268 1.263 . S
C1252 O1269 1.250 1_565 S
C1253 C1252 1.499 1_545 S
C1253 C1254 1.404 . S
C1253 C1255 1.352 . S
C1254 C1253 1.404 . S
C1254 C1258 1.389 1_455 S
C1254 H1276 0.930 1_545 S
C1255 C1253 1.352 . S
C1255 C1257 1.374 1_455 S
C1255 H1277 0.931 . S
C1256 C1257 1.359 . S
C1256 C1258 1.364 . S
C1257 C1255 1.374 1_655 S
C1257 C1256 1.359 . S
C1257 H1278 0.931 . S
C1258 C1254 1.389 1_655 S
C1258 C1256 1.364 . S
C1258 H1279 0.931 . S
C1259 O1270 1.256 1_545 S
C1259 O1271 1.257 . S
O1260 Gd1240 2.377 1_565 S
O1260 C1242 1.240 . S
O1261 Gd1241 2.395 . S
O1261 C1242 1.240 . S
O1262 Gd1240 2.448 . S
O1262 C1243 1.249 . S
O1263 Gd1240 2.506 . S
O1263 C1243 1.252 . S
O1264 Gd1240 2.435 . S
O1264 C1250 1.256 . S
O1265 Gd1240 2.717 . S
O1265 Gd1241 2.327 1_545 S
O1265 C1250 1.257 . S
O1266 Gd1241 2.377 1_545 S
O1266 C1251 1.240 . S
O1267 Gd1240 2.395 . S
O1267 C1251 1.240 . S
O1268 Gd1241 2.448 . S
O1268 C1252 1.263 . S
O1269 Gd1241 2.505 1_545 S
O1269 C1252 1.250 1_545 S
O1270 Gd1241 2.435 . S
O1270 C1259 1.256 1_565 S
O1271 Gd1240 2.327 . S
O1271 Gd1241 2.717 1_545 S
O1271 C1259 1.257 . S
H1272 C1245 0.930 . S
H1273 C1246 0.931 . S
H1274 C1248 0.931 . S
H1275 C1249 0.931 . S
H1276 C1254 0.930 1_565 S
H1277 C1255 0.931 . S
H1278 C1257 0.931 . S
H1279 C1258 0.931 . S
H1280 C1286 0.930 . S
H1281 C1290 0.930 . S
H1282 C1295 0.929 1_455 S
H1283 C1293 0.929 . S
H1284 C1288 0.929 . S
H1285 C1294 0.929 . S
C1286 H1280 0.930 . S
C1286 C1287 1.367 . S
C1286 C1294 1.378 . S
C1287 C1286 1.367 . S
C1287 C1295 1.433 . S
C1288 H1284 0.929 . S
C1288 C1290 1.378 . S
C1288 C1292 1.350 . S
C1289 C1292 1.463 . S
C1289 C1294 1.350 . S
C1289 N1297 1.427 . S
C1290 H1281 0.930 . S
C1290 C1288 1.378 . S
C1290 C1291 1.367 . S
C1291 C1290 1.367 . S
C1291 C1293 1.433 . S
C1292 C1288 1.350 . S
C1292 C1289 1.463 . S
C1292 N1296 1.427 . S
C1293 H1283 0.929 . S
C1293 C1291 1.433 . S
C1293 N1296 1.384 . S
C1294 H1285 0.929 . S
C1294 C1286 1.378 . S
C1294 C1289 1.350 . S
C1295 H1282 0.929 1_655 S
C1295 C1287 1.433 . S
C1295 N1297 1.384 . S
N1296 C1292 1.427 . S
N1296 C1293 1.384 . S
N1297 C1289 1.427 . S
N1297 C1295 1.384 . S
H1298 C1304 0.930 . S
H1299 C1308 0.930 . S
H1300 C1313 0.929 . S
H1301 C1311 0.929 . S
H1302 C1306 0.929 . S
H1303 C1312 0.929 . S
C1304 H1298 0.930 . S
C1304 C1305 1.367 . S
C1304 C1312 1.378 . S
C1305 C1304 1.367 . S
C1305 C1313 1.433 . S
C1306 H1302 0.929 . S
C1306 C1308 1.378 . S
C1306 C1310 1.350 . S
C1307 C1310 1.463 . S
C1307 C1312 1.350 . S
C1307 N1315 1.427 . S
C1308 H1299 0.930 . S
C1308 C1306 1.378 . S
C1308 C1309 1.367 . S
C1309 C1308 1.367 . S
C1309 C1311 1.433 . S
C1310 C1306 1.350 . S
C1310 C1307 1.463 . S
C1310 N1314 1.427 . S
C1311 H1301 0.929 . S
C1311 C1309 1.433 . S
C1311 N1314 1.384 . S
C1312 H1303 0.929 . S
C1312 C1304 1.378 . S
C1312 C1307 1.350 . S
C1313 H1300 0.929 . S
C1313 C1305 1.433 . S
C1313 N1315 1.384 . S
N1314 C1310 1.427 . S
N1314 C1311 1.384 . S
N1315 C1307 1.427 . S
N1315 C1313 1.384 . S
H1316 C1322 0.930 . S
H1317 C1326 0.930 . S
H1318 C1331 0.929 . S
H1319 C1329 0.929 . S
H1320 C1324 0.929 . S
H1321 C1330 0.929 . S
C1322 H1316 0.930 . S
C1322 C1323 1.367 . S
C1322 C1330 1.378 . S
C1323 C1322 1.367 . S
C1323 C1331 1.433 . S
C1324 H1320 0.929 . S
C1324 C1326 1.378 . S
C1324 C1328 1.350 . S
C1325 C1328 1.463 . S
C1325 C1330 1.350 . S
C1325 N1333 1.427 . S
C1326 H1317 0.930 . S
C1326 C1324 1.378 . S
C1326 C1327 1.367 . S
C1327 C1326 1.367 . S
C1327 C1329 1.433 . S
C1328 C1324 1.350 . S
C1328 C1325 1.463 . S
C1328 N1332 1.427 . S
C1329 H1319 0.929 . S
C1329 C1327 1.433 . S
C1329 N1332 1.384 . S
C1330 H1321 0.929 . S
C1330 C1322 1.378 . S
C1330 C1325 1.350 . S
C1331 H1318 0.929 . S
C1331 C1323 1.433 . S
C1331 N1333 1.384 . S
N1332 C1328 1.427 . S
N1332 C1329 1.384 . S
N1333 C1325 1.427 . S
N1333 C1331 1.384 . S
H1334 C1340 0.930 . S
H1335 C1344 0.930 . S
H1336 C1349 0.929 . S
H1337 C1347 0.929 . S
H1338 C1342 0.929 . S
H1339 C1348 0.929 . S
C1340 H1334 0.930 . S
C1340 C1341 1.367 . S
C1340 C1348 1.378 . S
C1341 C1340 1.367 . S
C1341 C1349 1.433 . S
C1342 H1338 0.929 . S
C1342 C1344 1.378 . S
C1342 C1346 1.350 . S
C1343 C1346 1.463 . S
C1343 C1348 1.350 . S
C1343 N1351 1.427 . S
C1344 H1335 0.930 . S
C1344 C1342 1.378 . S
C1344 C1345 1.367 . S
C1345 C1344 1.367 . S
C1345 C1347 1.433 . S
C1346 C1342 1.350 . S
C1346 C1343 1.463 . S
C1346 N1350 1.427 . S
C1347 H1337 0.929 . S
C1347 C1345 1.433 . S
C1347 N1350 1.384 . S
C1348 H1339 0.929 . S
C1348 C1340 1.378 . S
C1348 C1343 1.350 . S
C1349 H1336 0.929 . S
C1349 C1341 1.433 . S
C1349 N1351 1.384 . S
N1350 C1346 1.427 . S
N1350 C1347 1.384 . S
N1351 C1343 1.427 . S
N1351 C1349 1.384 . S
H1352 C1358 0.930 . S
H1353 C1362 0.930 . S
H1354 C1367 0.929 . S
H1355 C1365 0.929 . S
H1356 C1360 0.929 . S
H1357 C1366 0.929 . S
C1358 H1352 0.930 . S
C1358 C1359 1.367 . S
C1358 C1366 1.378 . S
C1359 C1358 1.367 . S
C1359 C1367 1.433 . S
C1360 H1356 0.929 . S
C1360 C1362 1.378 . S
C1360 C1364 1.350 . S
C1361 C1364 1.463 . S
C1361 C1366 1.350 . S
C1361 N1369 1.427 . S
C1362 H1353 0.930 . S
C1362 C1360 1.378 . S
C1362 C1363 1.367 . S
C1363 C1362 1.367 . S
C1363 C1365 1.433 . S
C1364 C1360 1.350 . S
C1364 C1361 1.463 . S
C1364 N1368 1.427 . S
C1365 H1355 0.929 . S
C1365 C1363 1.433 . S
C1365 N1368 1.384 . S
C1366 H1357 0.929 . S
C1366 C1358 1.378 . S
C1366 C1361 1.350 . S
C1367 H1354 0.929 . S
C1367 C1359 1.433 . S
C1367 N1369 1.384 . S
N1368 C1364 1.427 . S
N1368 C1365 1.384 . S
N1369 C1361 1.427 . S
N1369 C1367 1.384 . S
H1370 C1376 0.930 . S
H1371 C1380 0.930 . S
H1372 C1385 0.929 . S
H1373 C1383 0.929 . S
H1374 C1378 0.929 . S
H1375 C1384 0.929 . S
C1376 H1370 0.930 . S
C1376 C1377 1.367 . S
C1376 C1384 1.378 . S
C1377 C1376 1.367 . S
C1377 C1385 1.433 . S
C1378 H1374 0.929 . S
C1378 C1380 1.378 . S
C1378 C1382 1.350 . S
C1379 C1382 1.463 . S
C1379 C1384 1.350 . S
C1379 N1387 1.427 . S
C1380 H1371 0.930 . S
C1380 C1378 1.378 . S
C1380 C1381 1.367 . S
C1381 C1380 1.367 . S
C1381 C1383 1.433 . S
C1382 C1378 1.350 . S
C1382 C1379 1.463 . S
C1382 N1386 1.427 . S
C1383 H1373 0.929 . S
C1383 C1381 1.433 . S
C1383 N1386 1.384 . S
C1384 H1375 0.929 . S
C1384 C1376 1.378 . S
C1384 C1379 1.350 . S
C1385 H1372 0.929 . S
C1385 C1377 1.433 . S
C1385 N1387 1.384 . S
N1386 C1382 1.427 . S
N1386 C1383 1.384 . S
N1387 C1379 1.427 . S
N1387 C1385 1.384 . S
H1388 C1394 0.930 . S
H1389 C1398 0.930 . S
H1390 C1403 0.929 . S
H1391 C1401 0.929 . S
H1392 C1396 0.929 . S
H1393 C1402 0.929 . S
C1394 H1388 0.930 . S
C1394 C1395 1.367 . S
C1394 C1402 1.378 . S
C1395 C1394 1.367 . S
C1395 C1403 1.433 . S
C1396 H1392 0.929 . S
C1396 C1398 1.378 . S
C1396 C1400 1.350 . S
C1397 C1400 1.463 . S
C1397 C1402 1.350 . S
C1397 N1405 1.427 . S
C1398 H1389 0.930 . S
C1398 C1396 1.378 . S
C1398 C1399 1.367 . S
C1399 C1398 1.367 . S
C1399 C1401 1.433 . S
C1400 C1396 1.350 . S
C1400 C1397 1.463 . S
C1400 N1404 1.427 . S
C1401 H1391 0.929 . S
C1401 C1399 1.433 . S
C1401 N1404 1.384 . S
C1402 H1393 0.929 . S
C1402 C1394 1.378 . S
C1402 C1397 1.350 . S
C1403 H1390 0.929 . S
C1403 C1395 1.433 . S
C1403 N1405 1.384 . S
N1404 C1400 1.427 . S
N1404 C1401 1.384 . S
N1405 C1397 1.427 . S
N1405 C1403 1.384 . S
H1406 C1412 0.930 . S
H1407 C1416 0.930 . S
H1408 C1421 0.929 . S
H1409 C1419 0.929 . S
H1410 C1414 0.929 . S
H1411 C1420 0.929 . S
C1412 H1406 0.930 . S
C1412 C1413 1.367 . S
C1412 C1420 1.378 . S
C1413 C1412 1.367 . S
C1413 C1421 1.433 . S
C1414 H1410 0.929 . S
C1414 C1416 1.378 . S
C1414 C1418 1.350 . S
C1415 C1418 1.463 . S
C1415 C1420 1.350 . S
C1415 N1423 1.427 . S
C1416 H1407 0.930 . S
C1416 C1414 1.378 . S
C1416 C1417 1.367 . S
C1417 C1416 1.367 . S
C1417 C1419 1.433 . S
C1418 C1414 1.350 . S
C1418 C1415 1.463 . S
C1418 N1422 1.427 . S
C1419 H1409 0.929 . S
C1419 C1417 1.433 . S
C1419 N1422 1.384 . S
C1420 H1411 0.929 . S
C1420 C1412 1.378 . S
C1420 C1415 1.350 . S
C1421 H1408 0.929 . S
C1421 C1413 1.433 . S
C1421 N1423 1.384 . S
N1422 C1418 1.427 . S
N1422 C1419 1.384 . S
N1423 C1415 1.427 . S
N1423 C1421 1.384 . S
H1424 C1430 0.930 . S
H1425 C1434 0.930 . S
H1426 C1439 0.929 . S
H1427 C1437 0.929 . S
H1428 C1432 0.929 . S
H1429 C1438 0.929 . S
C1430 H1424 0.930 . S
C1430 C1431 1.367 . S
C1430 C1438 1.378 . S
C1431 C1430 1.367 . S
C1431 C1439 1.433 . S
C1432 H1428 0.929 . S
C1432 C1434 1.378 . S
C1432 C1436 1.350 . S
C1433 C1436 1.463 . S
C1433 C1438 1.350 . S
C1433 N1441 1.427 . S
C1434 H1425 0.930 . S
C1434 C1432 1.378 . S
C1434 C1435 1.367 . S
C1435 C1434 1.367 . S
C1435 C1437 1.433 . S
C1436 C1432 1.350 . S
C1436 C1433 1.463 . S
C1436 N1440 1.427 . S
C1437 H1427 0.929 . S
C1437 C1435 1.433 . S
C1437 N1440 1.384 . S
C1438 H1429 0.929 . S
C1438 C1430 1.378 . S
C1438 C1433 1.350 . S
C1439 H1426 0.929 . S
C1439 C1431 1.433 . S
C1439 N1441 1.384 . S
N1440 C1436 1.427 . S
N1440 C1437 1.384 . S
N1441 C1433 1.427 . S
N1441 C1439 1.384 . S
H1442 C1448 0.930 . S
H1443 C1452 0.930 . S
H1444 C1457 0.929 . S
H1445 C1455 0.929 . S
H1446 C1450 0.929 . S
H1447 C1456 0.929 . S
C1448 H1442 0.930 . S
C1448 C1449 1.367 . S
C1448 C1456 1.378 . S
C1449 C1448 1.367 . S
C1449 C1457 1.433 . S
C1450 H1446 0.929 . S
C1450 C1452 1.378 . S
C1450 C1454 1.350 . S
C1451 C1454 1.463 . S
C1451 C1456 1.350 . S
C1451 N1459 1.427 . S
C1452 H1443 0.930 . S
C1452 C1450 1.378 . S
C1452 C1453 1.367 . S
C1453 C1452 1.367 . S
C1453 C1455 1.433 . S
C1454 C1450 1.350 . S
C1454 C1451 1.463 . S
C1454 N1458 1.427 . S
C1455 H1445 0.929 . S
C1455 C1453 1.433 . S
C1455 N1458 1.384 . S
C1456 H1447 0.929 . S
C1456 C1448 1.378 . S
C1456 C1451 1.350 . S
C1457 H1444 0.929 . S
C1457 C1449 1.433 . S
C1457 N1459 1.384 . S
N1458 C1454 1.427 . S
N1458 C1455 1.384 . S
N1459 C1451 1.427 . S
N1459 C1457 1.384 . S
H1460 C1466 0.930 . S
H1461 C1470 0.930 . S
H1462 C1475 0.929 . S
H1463 C1473 0.929 . S
H1464 C1468 0.929 . S
H1465 C1474 0.929 . S
C1466 H1460 0.930 . S
C1466 C1467 1.367 . S
C1466 C1474 1.378 . S
C1467 C1466 1.367 . S
C1467 C1475 1.433 . S
C1468 H1464 0.929 . S
C1468 C1470 1.378 . S
C1468 C1472 1.350 . S
C1469 C1472 1.463 . S
C1469 C1474 1.350 . S
C1469 N1477 1.427 . S
C1470 H1461 0.930 . S
C1470 C1468 1.378 . S
C1470 C1471 1.367 . S
C1471 C1470 1.367 . S
C1471 C1473 1.433 . S
C1472 C1468 1.350 . S
C1472 C1469 1.463 . S
C1472 N1476 1.427 . S
C1473 H1463 0.929 . S
C1473 C1471 1.433 . S
C1473 N1476 1.384 . S
C1474 H1465 0.929 . S
C1474 C1466 1.378 . S
C1474 C1469 1.350 . S
C1475 H1462 0.929 . S
C1475 C1467 1.433 . S
C1475 N1477 1.384 . S
N1476 C1472 1.427 . S
N1476 C1473 1.384 . S
N1477 C1469 1.427 . S
N1477 C1475 1.384 . S
H1478 C1484 0.930 . S
H1479 C1488 0.930 . S
H1480 C1493 0.929 . S
H1481 C1491 0.929 . S
H1482 C1486 0.929 . S
H1483 C1492 0.929 . S
C1484 H1478 0.930 . S
C1484 C1485 1.367 . S
C1484 C1492 1.378 . S
C1485 C1484 1.367 . S
C1485 C1493 1.433 . S
C1486 H1482 0.929 . S
C1486 C1488 1.378 . S
C1486 C1490 1.350 . S
C1487 C1490 1.463 . S
C1487 C1492 1.350 . S
C1487 N1495 1.427 . S
C1488 H1479 0.930 . S
C1488 C1486 1.378 . S
C1488 C1489 1.367 . S
C1489 C1488 1.367 . S
C1489 C1491 1.433 . S
C1490 C1486 1.350 . S
C1490 C1487 1.463 . S
C1490 N1494 1.427 . S
C1491 H1481 0.929 . S
C1491 C1489 1.433 . S
C1491 N1494 1.384 . S
C1492 H1483 0.929 . S
C1492 C1484 1.378 . S
C1492 C1487 1.350 . S
C1493 H1480 0.929 . S
C1493 C1485 1.433 . S
C1493 N1495 1.384 . S
N1494 C1490 1.427 . S
N1494 C1491 1.384 . S
N1495 C1487 1.427 . S
N1495 C1493 1.384 . S
H1496 C1502 0.930 . S
H1497 C1506 0.930 . S
H1498 C1511 0.929 . S
H1499 C1509 0.929 . S
H1500 C1504 0.929 . S
H1501 C1510 0.929 . S
C1502 H1496 0.930 . S
C1502 C1503 1.367 . S
C1502 C1510 1.378 . S
C1503 C1502 1.367 . S
C1503 C1511 1.433 . S
C1504 H1500 0.929 . S
C1504 C1506 1.378 . S
C1504 C1508 1.350 . S
C1505 C1508 1.463 . S
C1505 C1510 1.350 . S
C1505 N1513 1.427 . S
C1506 H1497 0.930 . S
C1506 C1504 1.378 . S
C1506 C1507 1.367 . S
C1507 C1506 1.367 . S
C1507 C1509 1.433 . S
C1508 C1504 1.350 . S
C1508 C1505 1.463 . S
C1508 N1512 1.427 . S
C1509 H1499 0.929 . S
C1509 C1507 1.433 . S
C1509 N1512 1.384 . S
C1510 H1501 0.929 . S
C1510 C1502 1.378 . S
C1510 C1505 1.350 . S
C1511 H1498 0.929 . S
C1511 C1503 1.433 . S
C1511 N1513 1.384 . S
N1512 C1508 1.427 . S
N1512 C1509 1.384 . S
N1513 C1505 1.427 . S
N1513 C1511 1.384 . S
H1514 C1520 0.930 . S
H1515 C1524 0.930 . S
H1516 C1529 0.929 . S
H1517 C1527 0.929 . S
H1518 C1522 0.929 . S
H1519 C1528 0.929 . S
C1520 H1514 0.930 . S
C1520 C1521 1.367 . S
C1520 C1528 1.378 . S
C1521 C1520 1.367 . S
C1521 C1529 1.433 . S
C1522 H1518 0.929 . S
C1522 C1524 1.378 . S
C1522 C1526 1.350 . S
C1523 C1526 1.463 . S
C1523 C1528 1.350 . S
C1523 N1531 1.427 . S
C1524 H1515 0.930 . S
C1524 C1522 1.378 . S
C1524 C1525 1.367 . S
C1525 C1524 1.367 . S
C1525 C1527 1.433 . S
C1526 C1522 1.350 . S
C1526 C1523 1.463 . S
C1526 N1530 1.427 . S
C1527 H1517 0.929 . S
C1527 C1525 1.433 . S
C1527 N1530 1.384 . S
C1528 H1519 0.929 . S
C1528 C1520 1.378 . S
C1528 C1523 1.350 . S
C1529 H1516 0.929 . S
C1529 C1521 1.433 . S
C1529 N1531 1.384 . S
N1530 C1526 1.427 . S
N1530 C1527 1.384 . S
N1531 C1523 1.427 . S
N1531 C1529 1.384 . S
H1532 C1538 0.930 . S
H1533 C1542 0.930 . S
H1534 C1547 0.929 . S
H1535 C1545 0.929 . S
H1536 C1540 0.929 . S
H1537 C1546 0.929 . S
C1538 H1532 0.930 . S
C1538 C1539 1.367 . S
C1538 C1546 1.378 . S
C1539 C1538 1.367 . S
C1539 C1547 1.433 . S
C1540 H1536 0.929 . S
C1540 C1542 1.378 . S
C1540 C1544 1.350 . S
C1541 C1544 1.463 . S
C1541 C1546 1.350 . S
C1541 N1549 1.427 . S
C1542 H1533 0.930 . S
C1542 C1540 1.378 . S
C1542 C1543 1.367 . S
C1543 C1542 1.367 . S
C1543 C1545 1.433 . S
C1544 C1540 1.350 . S
C1544 C1541 1.463 . S
C1544 N1548 1.427 . S
C1545 H1535 0.929 . S
C1545 C1543 1.433 . S
C1545 N1548 1.384 . S
C1546 H1537 0.929 . S
C1546 C1538 1.378 . S
C1546 C1541 1.350 . S
C1547 H1534 0.929 . S
C1547 C1539 1.433 . S
C1547 N1549 1.384 . S
N1548 C1544 1.427 . S
N1548 C1545 1.384 . S
N1549 C1541 1.427 . S
N1549 C1547 1.384 . S
H1550 C1556 0.930 . S
H1551 C1560 0.930 . S
H1552 C1565 0.929 . S
H1553 C1563 0.929 . S
H1554 C1558 0.929 . S
H1555 C1564 0.929 . S
C1556 H1550 0.930 . S
C1556 C1557 1.367 . S
C1556 C1564 1.378 . S
C1557 C1556 1.367 . S
C1557 C1565 1.433 . S
C1558 H1554 0.929 . S
C1558 C1560 1.378 . S
C1558 C1562 1.350 . S
C1559 C1562 1.463 . S
C1559 C1564 1.350 . S
C1559 N1567 1.427 . S
C1560 H1551 0.930 . S
C1560 C1558 1.378 . S
C1560 C1561 1.367 . S
C1561 C1560 1.367 . S
C1561 C1563 1.433 . S
C1562 C1558 1.350 . S
C1562 C1559 1.463 . S
C1562 N1566 1.427 . S
C1563 H1553 0.929 . S
C1563 C1561 1.433 . S
C1563 N1566 1.384 . S
C1564 H1555 0.929 . S
C1564 C1556 1.378 . S
C1564 C1559 1.350 . S
C1565 H1552 0.929 . S
C1565 C1557 1.433 . S
C1565 N1567 1.384 . S
N1566 C1562 1.427 . S
N1566 C1563 1.384 . S
N1567 C1559 1.427 . S
N1567 C1565 1.384 . S
H1568 C1574 0.930 . S
H1569 C1578 0.930 . S
H1570 C1583 0.929 . S
H1571 C1581 0.929 . S
H1572 C1576 0.929 . S
H1573 C1582 0.929 . S
C1574 H1568 0.930 . S
C1574 C1575 1.367 . S
C1574 C1582 1.378 . S
C1575 C1574 1.367 . S
C1575 C1583 1.433 . S
C1576 H1572 0.929 . S
C1576 C1578 1.378 . S
C1576 C1580 1.350 . S
C1577 C1580 1.463 . S
C1577 C1582 1.350 . S
C1577 N1585 1.427 . S
C1578 H1569 0.930 . S
C1578 C1576 1.378 . S
C1578 C1579 1.367 . S
C1579 C1578 1.367 . S
C1579 C1581 1.433 . S
C1580 C1576 1.350 . S
C1580 C1577 1.463 . S
C1580 N1584 1.427 . S
C1581 H1571 0.929 . S
C1581 C1579 1.433 . S
C1581 N1584 1.384 . S
C1582 H1573 0.929 . S
C1582 C1574 1.378 . S
C1582 C1577 1.350 . S
C1583 H1570 0.929 . S
C1583 C1575 1.433 . S
C1583 N1585 1.384 . S
N1584 C1580 1.427 . S
N1584 C1581 1.384 . S
N1585 C1577 1.427 . S
N1585 C1583 1.384 . S
H1586 C1592 0.930 . S
H1587 C1596 0.930 . S
H1588 C1601 0.929 . S
H1589 C1599 0.929 . S
H1590 C1594 0.929 . S
H1591 C1600 0.929 . S
C1592 H1586 0.930 . S
C1592 C1593 1.367 . S
C1592 C1600 1.378 . S
C1593 C1592 1.367 . S
C1593 C1601 1.433 . S
C1594 H1590 0.929 . S
C1594 C1596 1.378 . S
C1594 C1598 1.350 . S
C1595 C1598 1.463 . S
C1595 C1600 1.350 . S
C1595 N1603 1.427 . S
C1596 H1587 0.930 . S
C1596 C1594 1.378 . S
C1596 C1597 1.367 . S
C1597 C1596 1.367 . S
C1597 C1599 1.433 . S
C1598 C1594 1.350 . S
C1598 C1595 1.463 . S
C1598 N1602 1.427 . S
C1599 H1589 0.929 . S
C1599 C1597 1.433 . S
C1599 N1602 1.384 . S
C1600 H1591 0.929 . S
C1600 C1592 1.378 . S
C1600 C1595 1.350 . S
C1601 H1588 0.929 . S
C1601 C1593 1.433 . S
C1601 N1603 1.384 . S
N1602 C1598 1.427 . S
N1602 C1599 1.384 . S
N1603 C1595 1.427 . S
N1603 C1601 1.384 . S
H1604 C1610 0.930 . S
H1605 C1614 0.930 . S
H1606 C1619 0.929 . S
H1607 C1617 0.929 . S
H1608 C1612 0.929 . S
H1609 C1618 0.929 . S
C1610 H1604 0.930 . S
C1610 C1611 1.367 . S
C1610 C1618 1.378 . S
C1611 C1610 1.367 . S
C1611 C1619 1.433 . S
C1612 H1608 0.929 . S
C1612 C1614 1.378 . S
C1612 C1616 1.350 . S
C1613 C1616 1.463 . S
C1613 C1618 1.350 . S
C1613 N1621 1.427 . S
C1614 H1605 0.930 . S
C1614 C1612 1.378 . S
C1614 C1615 1.367 . S
C1615 C1614 1.367 . S
C1615 C1617 1.433 . S
C1616 C1612 1.350 . S
C1616 C1613 1.463 . S
C1616 N1620 1.427 . S
C1617 H1607 0.929 . S
C1617 C1615 1.433 . S
C1617 N1620 1.384 . S
C1618 H1609 0.929 . S
C1618 C1610 1.378 . S
C1618 C1613 1.350 . S
C1619 H1606 0.929 . S
C1619 C1611 1.433 . S
C1619 N1621 1.384 . S
N1620 C1616 1.427 . S
N1620 C1617 1.384 . S
N1621 C1613 1.427 . S
N1621 C1619 1.384 . S
H1622 C1628 0.930 . S
H1623 C1632 0.930 . S
H1624 C1637 0.929 . S
H1625 C1635 0.929 . S
H1626 C1630 0.929 . S
H1627 C1636 0.929 . S
C1628 H1622 0.930 . S
C1628 C1629 1.367 . S
C1628 C1636 1.378 . S
C1629 C1628 1.367 . S
C1629 C1637 1.433 . S
C1630 H1626 0.929 . S
C1630 C1632 1.378 . S
C1630 C1634 1.350 . S
C1631 C1634 1.463 . S
C1631 C1636 1.350 . S
C1631 N1639 1.427 . S
C1632 H1623 0.930 . S
C1632 C1630 1.378 . S
C1632 C1633 1.367 . S
C1633 C1632 1.367 . S
C1633 C1635 1.433 . S
C1634 C1630 1.350 . S
C1634 C1631 1.463 . S
C1634 N1638 1.427 . S
C1635 H1625 0.929 . S
C1635 C1633 1.433 . S
C1635 N1638 1.384 . S
C1636 H1627 0.929 . S
C1636 C1628 1.378 . S
C1636 C1631 1.350 . S
C1637 H1624 0.929 . S
C1637 C1629 1.433 . S
C1637 N1639 1.384 . S
N1638 C1634 1.427 . S
N1638 C1635 1.384 . S
N1639 C1631 1.427 . S
N1639 C1637 1.384 . S
H1640 C1646 0.930 . S
H1641 C1650 0.930 . S
H1642 C1655 0.929 . S
H1643 C1653 0.929 . S
H1644 C1648 0.929 . S
H1645 C1654 0.929 . S
C1646 H1640 0.930 . S
C1646 C1647 1.367 1_545 S
C1646 C1654 1.378 . S
C1647 C1646 1.367 1_565 S
C1647 C1655 1.433 . S
C1648 H1644 0.929 . S
C1648 C1650 1.378 . S
C1648 C1652 1.350 . S
C1649 C1652 1.463 . S
C1649 C1654 1.350 1_565 S
C1649 N1657 1.427 . S
C1650 H1641 0.930 . S
C1650 C1648 1.378 . S
C1650 C1651 1.367 . S
C1651 C1650 1.367 . S
C1651 C1653 1.433 1_565 S
C1652 C1648 1.350 . S
C1652 C1649 1.463 . S
C1652 N1656 1.427 1_565 S
C1653 H1643 0.929 . S
C1653 C1651 1.433 1_545 S
C1653 N1656 1.384 . S
C1654 H1645 0.929 . S
C1654 C1646 1.378 . S
C1654 C1649 1.350 1_545 S
C1655 H1642 0.929 . S
C1655 C1647 1.433 . S
C1655 N1657 1.384 . S
N1656 C1652 1.427 1_545 S
N1656 C1653 1.384 . S
N1657 C1649 1.427 . S
N1657 C1655 1.384 . S
H1658 C1664 0.930 . S
H1659 C1668 0.930 . S
H1660 C1673 0.929 . S
H1661 C1671 0.929 . S
H1662 C1666 0.929 . S
H1663 C1672 0.929 . S
C1664 H1658 0.930 . S
C1664 C1665 1.367 . S
C1664 C1672 1.378 . S
C1665 C1664 1.367 . S
C1665 C1673 1.433 . S
C1666 H1662 0.929 . S
C1666 C1668 1.378 . S
C1666 C1670 1.350 . S
C1667 C1670 1.463 . S
C1667 C1672 1.350 . S
C1667 N1675 1.427 . S
C1668 H1659 0.930 . S
C1668 C1666 1.378 . S
C1668 C1669 1.367 . S
C1669 C1668 1.367 . S
C1669 C1671 1.433 . S
C1670 C1666 1.350 . S
C1670 C1667 1.463 . S
C1670 N1674 1.427 . S
C1671 H1661 0.929 . S
C1671 C1669 1.433 . S
C1671 N1674 1.384 . S
C1672 H1663 0.929 . S
C1672 C1664 1.378 . S
C1672 C1667 1.350 . S
C1673 H1660 0.929 . S
C1673 C1665 1.433 . S
C1673 N1675 1.384 . S
N1674 C1670 1.427 . S
N1674 C1671 1.384 . S
N1675 C1667 1.427 . S
N1675 C1673 1.384 . S
H1676 C1682 0.930 . S
H1677 C1686 0.930 . S
H1678 C1691 0.929 . S
H1679 C1689 0.929 . S
H1680 C1684 0.929 . S
H1681 C1690 0.929 . S
C1682 H1676 0.930 . S
C1682 C1683 1.367 . S
C1682 C1690 1.378 . S
C1683 C1682 1.367 . S
C1683 C1691 1.433 1_545 S
C1684 H1680 0.929 . S
C1684 C1686 1.378 . S
C1684 C1688 1.350 1_565 S
C1685 C1688 1.463 . S
C1685 C1690 1.350 . S
C1685 N1693 1.427 1_545 S
C1686 H1677 0.930 . S
C1686 C1684 1.378 . S
C1686 C1687 1.367 1_565 S
C1687 C1686 1.367 1_545 S
C1687 C1689 1.433 . S
C1688 C1684 1.350 1_545 S
C1688 C1685 1.463 . S
C1688 N1692 1.427 . S
C1689 H1679 0.929 . S
C1689 C1687 1.433 . S
C1689 N1692 1.384 . S
C1690 H1681 0.929 . S
C1690 C1682 1.378 . S
C1690 C1685 1.350 . S
C1691 H1678 0.929 . S
C1691 C1683 1.433 1_565 S
C1691 N1693 1.384 . S
N1692 C1688 1.427 . S
N1692 C1689 1.384 . S
N1693 C1685 1.427 1_565 S
N1693 C1691 1.384 . S
H1694 C1700 0.930 . S
H1695 C1704 0.930 . S
H1696 C1709 0.929 . S
H1697 C1707 0.929 . S
H1698 C1702 0.929 . S
H1699 C1708 0.929 . S
C1700 H1694 0.930 . S
C1700 C1701 1.367 . S
C1700 C1708 1.378 . S
C1701 C1700 1.367 . S
C1701 C1709 1.433 . S
C1702 H1698 0.929 . S
C1702 C1704 1.378 . S
C1702 C1706 1.350 . S
C1703 C1706 1.463 . S
C1703 C1708 1.350 . S
C1703 N1711 1.427 . S
C1704 H1695 0.930 . S
C1704 C1702 1.378 . S
C1704 C1705 1.367 . S
C1705 C1704 1.367 . S
C1705 C1707 1.433 . S
C1706 C1702 1.350 . S
C1706 C1703 1.463 . S
C1706 N1710 1.427 . S
C1707 H1697 0.929 . S
C1707 C1705 1.433 . S
C1707 N1710 1.384 . S
C1708 H1699 0.929 . S
C1708 C1700 1.378 . S
C1708 C1703 1.350 . S
C1709 H1696 0.929 . S
C1709 C1701 1.433 . S
C1709 N1711 1.384 . S
N1710 C1706 1.427 . S
N1710 C1707 1.384 . S
N1711 C1703 1.427 . S
N1711 C1709 1.384 . S
H1712 C1718 0.930 . S
H1713 C1722 0.930 . S
H1714 C1727 0.929 . S
H1715 C1725 0.929 . S
H1716 C1720 0.929 . S
H1717 C1726 0.929 . S
C1718 H1712 0.930 . S
C1718 C1719 1.367 . S
C1718 C1726 1.378 . S
C1719 C1718 1.367 . S
C1719 C1727 1.433 . S
C1720 H1716 0.929 . S
C1720 C1722 1.378 . S
C1720 C1724 1.350 . S
C1721 C1724 1.463 . S
C1721 C1726 1.350 . S
C1721 N1729 1.427 . S
C1722 H1713 0.930 . S
C1722 C1720 1.378 . S
C1722 C1723 1.367 . S
C1723 C1722 1.367 . S
C1723 C1725 1.433 . S
C1724 C1720 1.350 . S
C1724 C1721 1.463 . S
C1724 N1728 1.427 . S
C1725 H1715 0.929 . S
C1725 C1723 1.433 . S
C1725 N1728 1.384 . S
C1726 H1717 0.929 . S
C1726 C1718 1.378 . S
C1726 C1721 1.350 . S
C1727 H1714 0.929 . S
C1727 C1719 1.433 . S
C1727 N1729 1.384 . S
N1728 C1724 1.427 . S
N1728 C1725 1.384 . S
N1729 C1721 1.427 . S
N1729 C1727 1.384 . S
H1730 C1736 0.930 . S
H1731 C1740 0.930 . S
H1732 C1745 0.929 . S
H1733 C1743 0.929 . S
H1734 C1738 0.929 . S
H1735 C1744 0.929 . S
C1736 H1730 0.930 . S
C1736 C1737 1.367 . S
C1736 C1744 1.378 . S
C1737 C1736 1.367 . S
C1737 C1745 1.433 . S
C1738 H1734 0.929 . S
C1738 C1740 1.378 . S
C1738 C1742 1.350 . S
C1739 C1742 1.463 . S
C1739 C1744 1.350 . S
C1739 N1747 1.427 . S
C1740 H1731 0.930 . S
C1740 C1738 1.378 . S
C1740 C1741 1.367 . S
C1741 C1740 1.367 . S
C1741 C1743 1.433 . S
C1742 C1738 1.350 . S
C1742 C1739 1.463 . S
C1742 N1746 1.427 . S
C1743 H1733 0.929 . S
C1743 C1741 1.433 . S
C1743 N1746 1.384 . S
C1744 H1735 0.929 . S
C1744 C1736 1.378 . S
C1744 C1739 1.350 . S
C1745 H1732 0.929 . S
C1745 C1737 1.433 . S
C1745 N1747 1.384 . S
N1746 C1742 1.427 . S
N1746 C1743 1.384 . S
N1747 C1739 1.427 . S
N1747 C1745 1.384 . S
H1748 C1754 0.930 . S
H1749 C1758 0.930 . S
H1750 C1763 0.929 . S
H1751 C1761 0.929 . S
H1752 C1756 0.929 . S
H1753 C1762 0.929 . S
C1754 H1748 0.930 . S
C1754 C1755 1.367 . S
C1754 C1762 1.378 . S
C1755 C1754 1.367 . S
C1755 C1763 1.433 . S
C1756 H1752 0.929 . S
C1756 C1758 1.378 . S
C1756 C1760 1.350 . S
C1757 C1760 1.463 . S
C1757 C1762 1.350 . S
C1757 N1765 1.427 . S
C1758 H1749 0.930 . S
C1758 C1756 1.378 . S
C1758 C1759 1.367 . S
C1759 C1758 1.367 . S
C1759 C1761 1.433 . S
C1760 C1756 1.350 . S
C1760 C1757 1.463 . S
C1760 N1764 1.427 . S
C1761 H1751 0.929 . S
C1761 C1759 1.433 . S
C1761 N1764 1.384 . S
C1762 H1753 0.929 . S
C1762 C1754 1.378 . S
C1762 C1757 1.350 . S
C1763 H1750 0.929 . S
C1763 C1755 1.433 . S
C1763 N1765 1.384 . S
N1764 C1760 1.427 . S
N1764 C1761 1.384 . S
N1765 C1757 1.427 . S
N1765 C1763 1.384 . S
H1766 C1772 0.930 . S
H1767 C1776 0.930 . S
H1768 C1781 0.929 . S
H1769 C1779 0.929 . S
H1770 C1774 0.929 . S
H1771 C1780 0.929 . S
C1772 H1766 0.930 . S
C1772 C1773 1.367 . S
C1772 C1780 1.378 . S
C1773 C1772 1.367 . S
C1773 C1781 1.433 . S
C1774 H1770 0.929 . S
C1774 C1776 1.378 . S
C1774 C1778 1.350 . S
C1775 C1778 1.463 . S
C1775 C1780 1.350 . S
C1775 N1783 1.427 . S
C1776 H1767 0.930 . S
C1776 C1774 1.378 . S
C1776 C1777 1.367 . S
C1777 C1776 1.367 . S
C1777 C1779 1.433 . S
C1778 C1774 1.350 . S
C1778 C1775 1.463 . S
C1778 N1782 1.427 . S
C1779 H1769 0.929 . S
C1779 C1777 1.433 . S
C1779 N1782 1.384 . S
C1780 H1771 0.929 . S
C1780 C1772 1.378 . S
C1780 C1775 1.350 . S
C1781 H1768 0.929 . S
C1781 C1773 1.433 . S
C1781 N1783 1.384 . S
N1782 C1778 1.427 . S
N1782 C1779 1.384 . S
N1783 C1775 1.427 . S
N1783 C1781 1.384 . S
H1784 C1790 0.930 . S
H1785 C1794 0.930 . S
H1786 C1799 0.929 . S
H1787 C1797 0.929 . S
H1788 C1792 0.929 . S
H1789 C1798 0.929 . S
C1790 H1784 0.930 . S
C1790 C1791 1.367 1_545 S
C1790 C1798 1.378 . S
C1791 C1790 1.367 1_565 S
C1791 C1799 1.433 . S
C1792 H1788 0.929 . S
C1792 C1794 1.378 . S
C1792 C1796 1.350 . S
C1793 C1796 1.463 . S
C1793 C1798 1.350 1_565 S
C1793 N1801 1.427 . S
C1794 H1785 0.930 . S
C1794 C1792 1.378 . S
C1794 C1795 1.367 . S
C1795 C1794 1.367 . S
C1795 C1797 1.433 1_565 S
C1796 C1792 1.350 . S
C1796 C1793 1.463 . S
C1796 N1800 1.427 1_565 S
C1797 H1787 0.929 . S
C1797 C1795 1.433 1_545 S
C1797 N1800 1.384 . S
C1798 H1789 0.929 . S
C1798 C1790 1.378 . S
C1798 C1793 1.350 1_545 S
C1799 H1786 0.929 . S
C1799 C1791 1.433 . S
C1799 N1801 1.384 . S
N1800 C1796 1.427 1_545 S
N1800 C1797 1.384 . S
N1801 C1793 1.427 . S
N1801 C1799 1.384 . S
H1802 C1808 0.930 . S
H1803 C1812 0.930 . S
H1804 C1817 0.929 . S
H1805 C1815 0.929 . S
H1806 C1810 0.929 . S
H1807 C1816 0.929 . S
C1808 H1802 0.930 . S
C1808 C1809 1.367 . S
C1808 C1816 1.378 . S
C1809 C1808 1.367 . S
C1809 C1817 1.433 . S
C1810 H1806 0.929 . S
C1810 C1812 1.378 . S
C1810 C1814 1.350 . S
C1811 C1814 1.463 . S
C1811 C1816 1.350 . S
C1811 N1819 1.427 . S
C1812 H1803 0.930 . S
C1812 C1810 1.378 . S
C1812 C1813 1.367 . S
C1813 C1812 1.367 . S
C1813 C1815 1.433 . S
C1814 C1810 1.350 . S
C1814 C1811 1.463 . S
C1814 N1818 1.427 . S
C1815 H1805 0.929 . S
C1815 C1813 1.433 . S
C1815 N1818 1.384 . S
C1816 H1807 0.929 . S
C1816 C1808 1.378 . S
C1816 C1811 1.350 . S
C1817 H1804 0.929 . S
C1817 C1809 1.433 . S
C1817 N1819 1.384 . S
N1818 C1814 1.427 . S
N1818 C1815 1.384 . S
N1819 C1811 1.427 . S
N1819 C1817 1.384 . S
H1820 C1826 0.930 . S
H1821 C1830 0.930 . S
H1822 C1835 0.929 . S
H1823 C1833 0.929 . S
H1824 C1828 0.929 . S
H1825 C1834 0.929 . S
C1826 H1820 0.930 . S
C1826 C1827 1.367 . S
C1826 C1834 1.378 . S
C1827 C1826 1.367 . S
C1827 C1835 1.433 1_545 S
C1828 H1824 0.929 . S
C1828 C1830 1.378 . S
C1828 C1832 1.350 1_565 S
C1829 C1832 1.463 . S
C1829 C1834 1.350 . S
C1829 N1837 1.427 1_545 S
C1830 H1821 0.930 . S
C1830 C1828 1.378 . S
C1830 C1831 1.367 1_565 S
C1831 C1830 1.367 1_545 S
C1831 C1833 1.433 . S
C1832 C1828 1.350 1_545 S
C1832 C1829 1.463 . S
C1832 N1836 1.427 . S
C1833 H1823 0.929 . S
C1833 C1831 1.433 . S
C1833 N1836 1.384 . S
C1834 H1825 0.929 . S
C1834 C1826 1.378 . S
C1834 C1829 1.350 . S
C1835 H1822 0.929 . S
C1835 C1827 1.433 1_565 S
C1835 N1837 1.384 . S
N1836 C1832 1.427 . S
N1836 C1833 1.384 . S
N1837 C1829 1.427 1_565 S
N1837 C1835 1.384 . S
H1838 C1844 0.930 . S
H1839 C1848 0.930 . S
H1840 C1853 0.929 . S
H1841 C1851 0.929 . S
H1842 C1846 0.929 . S
H1843 C1852 0.929 . S
C1844 H1838 0.930 . S
C1844 C1845 1.367 . S
C1844 C1852 1.378 . S
C1845 C1844 1.367 . S
C1845 C1853 1.433 . S
C1846 H1842 0.929 . S
C1846 C1848 1.378 . S
C1846 C1850 1.350 . S
C1847 C1850 1.463 . S
C1847 C1852 1.350 . S
C1847 N1855 1.427 . S
C1848 H1839 0.930 . S
C1848 C1846 1.378 . S
C1848 C1849 1.367 . S
C1849 C1848 1.367 . S
C1849 C1851 1.433 . S
C1850 C1846 1.350 . S
C1850 C1847 1.463 . S
C1850 N1854 1.427 . S
C1851 H1841 0.929 . S
C1851 C1849 1.433 . S
C1851 N1854 1.384 . S
C1852 H1843 0.929 . S
C1852 C1844 1.378 . S
C1852 C1847 1.350 . S
C1853 H1840 0.929 . S
C1853 C1845 1.433 . S
C1853 N1855 1.384 . S
N1854 C1850 1.427 . S
N1854 C1851 1.384 . S
N1855 C1847 1.427 . S
N1855 C1853 1.384 . S
H1856 C1862 0.930 . S
H1857 C1866 0.930 . S
H1858 C1871 0.929 . S
H1859 C1869 0.929 . S
H1860 C1864 0.929 . S
H1861 C1870 0.929 . S
C1862 H1856 0.930 . S
C1862 C1863 1.367 . S
C1862 C1870 1.378 . S
C1863 C1862 1.367 . S
C1863 C1871 1.433 . S
C1864 H1860 0.929 . S
C1864 C1866 1.378 . S
C1864 C1868 1.350 . S
C1865 C1868 1.463 . S
C1865 C1870 1.350 . S
C1865 N1873 1.427 . S
C1866 H1857 0.930 . S
C1866 C1864 1.378 . S
C1866 C1867 1.367 . S
C1867 C1866 1.367 . S
C1867 C1869 1.433 . S
C1868 C1864 1.350 . S
C1868 C1865 1.463 . S
C1868 N1872 1.427 . S
C1869 H1859 0.929 . S
C1869 C1867 1.433 . S
C1869 N1872 1.384 . S
C1870 H1861 0.929 . S
C1870 C1862 1.378 . S
C1870 C1865 1.350 . S
C1871 H1858 0.929 . S
C1871 C1863 1.433 . S
C1871 N1873 1.384 . S
N1872 C1868 1.427 . S
N1872 C1869 1.384 . S
N1873 C1865 1.427 . S
N1873 C1871 1.384 . S
H1874 C1880 0.930 . S
H1875 C1884 0.930 . S
H1876 C1889 0.929 . S
H1877 C1887 0.929 . S
H1878 C1882 0.929 . S
H1879 C1888 0.929 . S
C1880 H1874 0.930 . S
C1880 C1881 1.367 . S
C1880 C1888 1.378 . S
C1881 C1880 1.367 . S
C1881 C1889 1.433 . S
C1882 H1878 0.929 . S
C1882 C1884 1.378 . S
C1882 C1886 1.350 . S
C1883 C1886 1.463 . S
C1883 C1888 1.350 . S
C1883 N1891 1.427 . S
C1884 H1875 0.930 . S
C1884 C1882 1.378 . S
C1884 C1885 1.367 . S
C1885 C1884 1.367 . S
C1885 C1887 1.433 . S
C1886 C1882 1.350 . S
C1886 C1883 1.463 . S
C1886 N1890 1.427 . S
C1887 H1877 0.929 . S
C1887 C1885 1.433 . S
C1887 N1890 1.384 . S
C1888 H1879 0.929 . S
C1888 C1880 1.378 . S
C1888 C1883 1.350 . S
C1889 H1876 0.929 . S
C1889 C1881 1.433 . S
C1889 N1891 1.384 . S
N1890 C1886 1.427 . S
N1890 C1887 1.384 . S
N1891 C1883 1.427 . S
N1891 C1889 1.384 . S
H1892 C1898 0.930 . S
H1893 C1902 0.930 . S
H1894 C1907 0.929 . S
H1895 C1905 0.929 . S
H1896 C1900 0.929 . S
H1897 C1906 0.929 . S
C1898 H1892 0.930 . S
C1898 C1899 1.367 . S
C1898 C1906 1.378 . S
C1899 C1898 1.367 . S
C1899 C1907 1.433 . S
C1900 H1896 0.929 . S
C1900 C1902 1.378 . S
C1900 C1904 1.350 . S
C1901 C1904 1.463 . S
C1901 C1906 1.350 . S
C1901 N1909 1.427 . S
C1902 H1893 0.930 . S
C1902 C1900 1.378 . S
C1902 C1903 1.367 . S
C1903 C1902 1.367 . S
C1903 C1905 1.433 . S
C1904 C1900 1.350 . S
C1904 C1901 1.463 . S
C1904 N1908 1.427 . S
C1905 H1895 0.929 . S
C1905 C1903 1.433 . S
C1905 N1908 1.384 . S
C1906 H1897 0.929 . S
C1906 C1898 1.378 . S
C1906 C1901 1.350 . S
C1907 H1894 0.929 . S
C1907 C1899 1.433 . S
C1907 N1909 1.384 . S
N1908 C1904 1.427 . S
N1908 C1905 1.384 . S
N1909 C1901 1.427 . S
N1909 C1907 1.384 . S
H1910 C1916 0.930 . S
H1911 C1920 0.930 . S
H1912 C1925 0.929 . S
H1913 C1923 0.929 . S
H1914 C1918 0.929 . S
H1915 C1924 0.929 . S
C1916 H1910 0.930 . S
C1916 C1917 1.367 . S
C1916 C1924 1.378 . S
C1917 C1916 1.367 . S
C1917 C1925 1.433 . S
C1918 H1914 0.929 . S
C1918 C1920 1.378 . S
C1918 C1922 1.350 . S
C1919 C1922 1.463 . S
C1919 C1924 1.350 . S
C1919 N1927 1.427 . S
C1920 H1911 0.930 . S
C1920 C1918 1.378 . S
C1920 C1921 1.367 . S
C1921 C1920 1.367 . S
C1921 C1923 1.433 . S
C1922 C1918 1.350 . S
C1922 C1919 1.463 . S
C1922 N1926 1.427 . S
C1923 H1913 0.929 . S
C1923 C1921 1.433 . S
C1923 N1926 1.384 . S
C1924 H1915 0.929 . S
C1924 C1916 1.378 . S
C1924 C1919 1.350 . S
C1925 H1912 0.929 . S
C1925 C1917 1.433 . S
C1925 N1927 1.384 . S
N1926 C1922 1.427 . S
N1926 C1923 1.384 . S
N1927 C1919 1.427 . S
N1927 C1925 1.384 . S
H1928 C1934 0.930 . S
H1929 C1938 0.930 . S
H1930 C1943 0.929 . S
H1931 C1941 0.929 . S
H1932 C1936 0.929 . S
H1933 C1942 0.929 . S
C1934 H1928 0.930 . S
C1934 C1935 1.367 . S
C1934 C1942 1.378 . S
C1935 C1934 1.367 . S
C1935 C1943 1.433 . S
C1936 H1932 0.929 . S
C1936 C1938 1.378 . S
C1936 C1940 1.350 . S
C1937 C1940 1.463 . S
C1937 C1942 1.350 . S
C1937 N1945 1.427 . S
C1938 H1929 0.930 . S
C1938 C1936 1.378 . S
C1938 C1939 1.367 . S
C1939 C1938 1.367 . S
C1939 C1941 1.433 . S
C1940 C1936 1.350 . S
C1940 C1937 1.463 . S
C1940 N1944 1.427 . S
C1941 H1931 0.929 . S
C1941 C1939 1.433 . S
C1941 N1944 1.384 . S
C1942 H1933 0.929 . S
C1942 C1934 1.378 . S
C1942 C1937 1.350 . S
C1943 H1930 0.929 . S
C1943 C1935 1.433 . S
C1943 N1945 1.384 . S
N1944 C1940 1.427 . S
N1944 C1941 1.384 . S
N1945 C1937 1.427 . S
N1945 C1943 1.384 . S
H1946 C1952 0.930 . S
H1947 C1956 0.930 . S
H1948 C1961 0.929 . S
H1949 C1959 0.929 . S
H1950 C1954 0.929 . S
H1951 C1960 0.929 . S
C1952 H1946 0.930 . S
C1952 C1953 1.367 . S
C1952 C1960 1.378 . S
C1953 C1952 1.367 . S
C1953 C1961 1.433 . S
C1954 H1950 0.929 . S
C1954 C1956 1.378 . S
C1954 C1958 1.350 . S
C1955 C1958 1.463 . S
C1955 C1960 1.350 . S
C1955 N1963 1.427 . S
C1956 H1947 0.930 . S
C1956 C1954 1.378 . S
C1956 C1957 1.367 . S
C1957 C1956 1.367 . S
C1957 C1959 1.433 . S
C1958 C1954 1.350 . S
C1958 C1955 1.463 . S
C1958 N1962 1.427 . S
C1959 H1949 0.929 . S
C1959 C1957 1.433 . S
C1959 N1962 1.384 . S
C1960 H1951 0.929 . S
C1960 C1952 1.378 . S
C1960 C1955 1.350 . S
C1961 H1948 0.929 . S
C1961 C1953 1.433 . S
C1961 N1963 1.384 . S
N1962 C1958 1.427 . S
N1962 C1959 1.384 . S
N1963 C1955 1.427 . S
N1963 C1961 1.384 . S
H1964 C1970 0.930 . S
H1965 C1974 0.930 . S
H1966 C1979 0.929 . S
H1967 C1977 0.929 . S
H1968 C1972 0.929 . S
H1969 C1978 0.929 . S
C1970 H1964 0.930 . S
C1970 C1971 1.367 . S
C1970 C1978 1.378 . S
C1971 C1970 1.367 . S
C1971 C1979 1.433 . S
C1972 H1968 0.929 . S
C1972 C1974 1.378 . S
C1972 C1976 1.350 . S
C1973 C1976 1.463 . S
C1973 C1978 1.350 . S
C1973 N1981 1.427 . S
C1974 H1965 0.930 . S
C1974 C1972 1.378 . S
C1974 C1975 1.367 . S
C1975 C1974 1.367 . S
C1975 C1977 1.433 . S
C1976 C1972 1.350 . S
C1976 C1973 1.463 . S
C1976 N1980 1.427 . S
C1977 H1967 0.929 . S
C1977 C1975 1.433 . S
C1977 N1980 1.384 . S
C1978 H1969 0.929 . S
C1978 C1970 1.378 . S
C1978 C1973 1.350 . S
C1979 H1966 0.929 . S
C1979 C1971 1.433 . S
C1979 N1981 1.384 . S
N1980 C1976 1.427 . S
N1980 C1977 1.384 . S
N1981 C1973 1.427 . S
N1981 C1979 1.384 . S
H1982 C1988 0.930 . S
H1983 C1992 0.930 . S
H1984 C1997 0.929 . S
H1985 C1995 0.929 . S
H1986 C1990 0.929 . S
H1987 C1996 0.929 . S
C1988 H1982 0.930 . S
C1988 C1989 1.367 . S
C1988 C1996 1.378 . S
C1989 C1988 1.367 . S
C1989 C1997 1.433 . S
C1990 H1986 0.929 . S
C1990 C1992 1.378 . S
C1990 C1994 1.350 . S
C1991 C1994 1.463 . S
C1991 C1996 1.350 . S
C1991 N1999 1.427 . S
C1992 H1983 0.930 . S
C1992 C1990 1.378 . S
C1992 C1993 1.367 . S
C1993 C1992 1.367 . S
C1993 C1995 1.433 . S
C1994 C1990 1.350 . S
C1994 C1991 1.463 . S
C1994 N1998 1.427 . S
C1995 H1985 0.929 . S
C1995 C1993 1.433 . S
C1995 N1998 1.384 . S
C1996 H1987 0.929 . S
C1996 C1988 1.378 . S
C1996 C1991 1.350 . S
C1997 H1984 0.929 . S
C1997 C1989 1.433 . S
C1997 N1999 1.384 . S
N1998 C1994 1.427 . S
N1998 C1995 1.384 . S
N1999 C1991 1.427 . S
N1999 C1997 1.384 . S
H2000 C2006 0.930 . S
H2001 C2010 0.930 . S
H2002 C2015 0.929 . S
H2003 C2013 0.929 . S
H2004 C2008 0.929 . S
H2005 C2014 0.929 . S
C2006 H2000 0.930 . S
C2006 C2007 1.367 . S
C2006 C2014 1.378 . S
C2007 C2006 1.367 . S
C2007 C2015 1.433 . S
C2008 H2004 0.929 . S
C2008 C2010 1.378 . S
C2008 C2012 1.350 . S
C2009 C2012 1.463 . S
C2009 C2014 1.350 . S
C2009 N2017 1.427 . S
C2010 H2001 0.930 . S
C2010 C2008 1.378 . S
C2010 C2011 1.367 . S
C2011 C2010 1.367 . S
C2011 C2013 1.433 . S
C2012 C2008 1.350 . S
C2012 C2009 1.463 . S
C2012 N2016 1.427 . S
C2013 H2003 0.929 . S
C2013 C2011 1.433 . S
C2013 N2016 1.384 . S
C2014 H2005 0.929 . S
C2014 C2006 1.378 . S
C2014 C2009 1.350 . S
C2015 H2002 0.929 . S
C2015 C2007 1.433 . S
C2015 N2017 1.384 . S
N2016 C2012 1.427 . S
N2016 C2013 1.384 . S
N2017 C2009 1.427 . S
N2017 C2015 1.384 . S
H2018 C2024 0.930 . S
H2019 C2028 0.930 . S
H2020 C2033 0.929 . S
H2021 C2031 0.929 . S
H2022 C2026 0.929 . S
H2023 C2032 0.929 . S
C2024 H2018 0.930 . S
C2024 C2025 1.367 . S
C2024 C2032 1.378 . S
C2025 C2024 1.367 . S
C2025 C2033 1.433 . S
C2026 H2022 0.929 . S
C2026 C2028 1.378 . S
C2026 C2030 1.350 . S
C2027 C2030 1.463 . S
C2027 C2032 1.350 . S
C2027 N2035 1.427 . S
C2028 H2019 0.930 . S
C2028 C2026 1.378 . S
C2028 C2029 1.367 . S
C2029 C2028 1.367 . S
C2029 C2031 1.433 . S
C2030 C2026 1.350 . S
C2030 C2027 1.463 . S
C2030 N2034 1.427 . S
C2031 H2021 0.929 . S
C2031 C2029 1.433 . S
C2031 N2034 1.384 . S
C2032 H2023 0.929 . S
C2032 C2024 1.378 . S
C2032 C2027 1.350 . S
C2033 H2020 0.929 . S
C2033 C2025 1.433 . S
C2033 N2035 1.384 . S
N2034 C2030 1.427 . S
N2034 C2031 1.384 . S
N2035 C2027 1.427 . S
N2035 C2033 1.384 . S
H2036 C2042 0.930 . S
H2037 C2046 0.930 . S
H2038 C2051 0.929 . S
H2039 C2049 0.929 . S
H2040 C2044 0.929 . S
H2041 C2050 0.929 . S
C2042 H2036 0.930 . S
C2042 C2043 1.367 . S
C2042 C2050 1.378 . S
C2043 C2042 1.367 . S
C2043 C2051 1.433 . S
C2044 H2040 0.929 . S
C2044 C2046 1.378 . S
C2044 C2048 1.350 . S
C2045 C2048 1.463 . S
C2045 C2050 1.350 . S
C2045 N2053 1.427 . S
C2046 H2037 0.930 . S
C2046 C2044 1.378 . S
C2046 C2047 1.367 . S
C2047 C2046 1.367 . S
C2047 C2049 1.433 . S
C2048 C2044 1.350 . S
C2048 C2045 1.463 . S
C2048 N2052 1.427 . S
C2049 H2039 0.929 . S
C2049 C2047 1.433 . S
C2049 N2052 1.384 . S
C2050 H2041 0.929 . S
C2050 C2042 1.378 . S
C2050 C2045 1.350 . S
C2051 H2038 0.929 . S
C2051 C2043 1.433 . S
C2051 N2053 1.384 . S
N2052 C2048 1.427 . S
N2052 C2049 1.384 . S
N2053 C2045 1.427 . S
N2053 C2051 1.384 . S
H2054 C2060 0.930 . S
H2055 C2064 0.930 . S
H2056 C2069 0.929 . S
H2057 C2067 0.929 . S
H2058 C2062 0.929 . S
H2059 C2068 0.929 . S
C2060 H2054 0.930 . S
C2060 C2061 1.367 . S
C2060 C2068 1.378 . S
C2061 C2060 1.367 . S
C2061 C2069 1.433 . S
C2062 H2058 0.929 . S
C2062 C2064 1.378 . S
C2062 C2066 1.350 . S
C2063 C2066 1.463 . S
C2063 C2068 1.350 . S
C2063 N2071 1.427 . S
C2064 H2055 0.930 . S
C2064 C2062 1.378 . S
C2064 C2065 1.367 . S
C2065 C2064 1.367 . S
C2065 C2067 1.433 . S
C2066 C2062 1.350 . S
C2066 C2063 1.463 . S
C2066 N2070 1.427 . S
C2067 H2057 0.929 . S
C2067 C2065 1.433 . S
C2067 N2070 1.384 . S
C2068 H2059 0.929 . S
C2068 C2060 1.378 . S
C2068 C2063 1.350 . S
C2069 H2056 0.929 . S
C2069 C2061 1.433 . S
C2069 N2071 1.384 . S
N2070 C2066 1.427 . S
N2070 C2067 1.384 . S
N2071 C2063 1.427 . S
N2071 C2069 1.384 . S
H2072 C2078 0.930 . S
H2073 C2082 0.930 . S
H2074 C2087 0.929 . S
H2075 C2085 0.929 . S
H2076 C2080 0.929 . S
H2077 C2086 0.929 . S
C2078 H2072 0.930 . S
C2078 C2079 1.367 . S
C2078 C2086 1.378 . S
C2079 C2078 1.367 . S
C2079 C2087 1.433 . S
C2080 H2076 0.929 . S
C2080 C2082 1.378 . S
C2080 C2084 1.350 . S
C2081 C2084 1.463 . S
C2081 C2086 1.350 . S
C2081 N2089 1.427 . S
C2082 H2073 0.930 . S
C2082 C2080 1.378 . S
C2082 C2083 1.367 . S
C2083 C2082 1.367 . S
C2083 C2085 1.433 . S
C2084 C2080 1.350 . S
C2084 C2081 1.463 . S
C2084 N2088 1.427 . S
C2085 H2075 0.929 . S
C2085 C2083 1.433 . S
C2085 N2088 1.384 . S
C2086 H2077 0.929 . S
C2086 C2078 1.378 . S
C2086 C2081 1.350 . S
C2087 H2074 0.929 . S
C2087 C2079 1.433 . S
C2087 N2089 1.384 . S
N2088 C2084 1.427 . S
N2088 C2085 1.384 . S
N2089 C2081 1.427 . S
N2089 C2087 1.384 . S
H2090 C2096 0.930 . S
H2091 C2100 0.930 . S
H2092 C2105 0.929 . S
H2093 C2103 0.929 . S
H2094 C2098 0.929 . S
H2095 C2104 0.929 . S
C2096 H2090 0.930 . S
C2096 C2097 1.367 . S
C2096 C2104 1.378 . S
C2097 C2096 1.367 . S
C2097 C2105 1.433 . S
C2098 H2094 0.929 . S
C2098 C2100 1.378 . S
C2098 C2102 1.350 . S
C2099 C2102 1.463 . S
C2099 C2104 1.350 . S
C2099 N2107 1.427 . S
C2100 H2091 0.930 . S
C2100 C2098 1.378 . S
C2100 C2101 1.367 . S
C2101 C2100 1.367 . S
C2101 C2103 1.433 . S
C2102 C2098 1.350 . S
C2102 C2099 1.463 . S
C2102 N2106 1.427 . S
C2103 H2093 0.929 . S
C2103 C2101 1.433 . S
C2103 N2106 1.384 . S
C2104 H2095 0.929 . S
C2104 C2096 1.378 . S
C2104 C2099 1.350 . S
C2105 H2092 0.929 . S
C2105 C2097 1.433 . S
C2105 N2107 1.384 . S
N2106 C2102 1.427 . S
N2106 C2103 1.384 . S
N2107 C2099 1.427 . S
N2107 C2105 1.384 . S
H2108 C2114 0.930 . S
H2109 C2118 0.930 . S
H2110 C2123 0.929 . S
H2111 C2121 0.929 . S
H2112 C2116 0.929 . S
H2113 C2122 0.929 . S
C2114 H2108 0.930 . S
C2114 C2115 1.367 . S
C2114 C2122 1.378 . S
C2115 C2114 1.367 . S
C2115 C2123 1.433 . S
C2116 H2112 0.929 . S
C2116 C2118 1.378 . S
C2116 C2120 1.350 . S
C2117 C2120 1.463 . S
C2117 C2122 1.350 . S
C2117 N2125 1.427 . S
C2118 H2109 0.930 . S
C2118 C2116 1.378 . S
C2118 C2119 1.367 . S
C2119 C2118 1.367 . S
C2119 C2121 1.433 . S
C2120 C2116 1.350 . S
C2120 C2117 1.463 . S
C2120 N2124 1.427 . S
C2121 H2111 0.929 . S
C2121 C2119 1.433 . S
C2121 N2124 1.384 . S
C2122 H2113 0.929 . S
C2122 C2114 1.378 . S
C2122 C2117 1.350 . S
C2123 H2110 0.929 . S
C2123 C2115 1.433 . S
C2123 N2125 1.384 . S
N2124 C2120 1.427 . S
N2124 C2121 1.384 . S
N2125 C2117 1.427 . S
N2125 C2123 1.384 . S
H2126 C2132 0.930 . S
H2127 C2136 0.930 . S
H2128 C2141 0.929 . S
H2129 C2139 0.929 . S
H2130 C2134 0.929 . S
H2131 C2140 0.929 . S
C2132 H2126 0.930 . S
C2132 C2133 1.367 . S
C2132 C2140 1.378 . S
C2133 C2132 1.367 . S
C2133 C2141 1.433 . S
C2134 H2130 0.929 . S
C2134 C2136 1.378 . S
C2134 C2138 1.350 . S
C2135 C2138 1.463 . S
C2135 C2140 1.350 . S
C2135 N2143 1.427 . S
C2136 H2127 0.930 . S
C2136 C2134 1.378 . S
C2136 C2137 1.367 . S
C2137 C2136 1.367 . S
C2137 C2139 1.433 . S
C2138 C2134 1.350 . S
C2138 C2135 1.463 . S
C2138 N2142 1.427 . S
C2139 H2129 0.929 . S
C2139 C2137 1.433 . S
C2139 N2142 1.384 . S
C2140 H2131 0.929 . S
C2140 C2132 1.378 . S
C2140 C2135 1.350 . S
C2141 H2128 0.929 . S
C2141 C2133 1.433 . S
C2141 N2143 1.384 . S
N2142 C2138 1.427 . S
N2142 C2139 1.384 . S
N2143 C2135 1.427 . S
N2143 C2141 1.384 . S
H2144 C2150 0.930 . S
H2145 C2154 0.930 . S
H2146 C2159 0.929 . S
H2147 C2157 0.929 . S
H2148 C2152 0.929 . S
H2149 C2158 0.929 . S
C2150 H2144 0.930 . S
C2150 C2151 1.367 . S
C2150 C2158 1.378 . S
C2151 C2150 1.367 . S
C2151 C2159 1.433 . S
C2152 H2148 0.929 . S
C2152 C2154 1.378 . S
C2152 C2156 1.350 . S
C2153 C2156 1.463 . S
C2153 C2158 1.350 . S
C2153 N2161 1.427 . S
C2154 H2145 0.930 . S
C2154 C2152 1.378 . S
C2154 C2155 1.367 . S
C2155 C2154 1.367 . S
C2155 C2157 1.433 . S
C2156 C2152 1.350 . S
C2156 C2153 1.463 . S
C2156 N2160 1.427 . S
C2157 H2147 0.929 . S
C2157 C2155 1.433 . S
C2157 N2160 1.384 . S
C2158 H2149 0.929 . S
C2158 C2150 1.378 . S
C2158 C2153 1.350 . S
C2159 H2146 0.929 . S
C2159 C2151 1.433 . S
C2159 N2161 1.384 . S
N2160 C2156 1.427 . S
N2160 C2157 1.384 . S
N2161 C2153 1.427 . S
N2161 C2159 1.384 . S
H2162 C2168 0.930 . S
H2163 C2172 0.930 . S
H2164 C2177 0.929 . S
H2165 C2175 0.929 . S
H2166 C2170 0.929 . S
H2167 C2176 0.929 . S
C2168 H2162 0.930 . S
C2168 C2169 1.367 . S
C2168 C2176 1.378 . S
C2169 C2168 1.367 . S
C2169 C2177 1.433 . S
C2170 H2166 0.929 . S
C2170 C2172 1.378 . S
C2170 C2174 1.350 . S
C2171 C2174 1.463 . S
C2171 C2176 1.350 . S
C2171 N2179 1.427 . S
C2172 H2163 0.930 . S
C2172 C2170 1.378 . S
C2172 C2173 1.367 . S
C2173 C2172 1.367 . S
C2173 C2175 1.433 . S
C2174 C2170 1.350 . S
C2174 C2171 1.463 . S
C2174 N2178 1.427 . S
C2175 H2165 0.929 . S
C2175 C2173 1.433 . S
C2175 N2178 1.384 . S
C2176 H2167 0.929 . S
C2176 C2168 1.378 . S
C2176 C2171 1.350 . S
C2177 H2164 0.929 . S
C2177 C2169 1.433 . S
C2177 N2179 1.384 . S
N2178 C2174 1.427 . S
N2178 C2175 1.384 . S
N2179 C2171 1.427 . S
N2179 C2177 1.384 . S
H2180 C2186 0.930 . S
H2181 C2190 0.930 . S
H2182 C2195 0.929 . S
H2183 C2193 0.929 . S
H2184 C2188 0.929 . S
H2185 C2194 0.929 . S
C2186 H2180 0.930 . S
C2186 C2187 1.367 . S
C2186 C2194 1.378 . S
C2187 C2186 1.367 . S
C2187 C2195 1.433 . S
C2188 H2184 0.929 . S
C2188 C2190 1.378 . S
C2188 C2192 1.350 . S
C2189 C2192 1.463 . S
C2189 C2194 1.350 . S
C2189 N2197 1.427 . S
C2190 H2181 0.930 . S
C2190 C2188 1.378 . S
C2190 C2191 1.367 . S
C2191 C2190 1.367 . S
C2191 C2193 1.433 . S
C2192 C2188 1.350 . S
C2192 C2189 1.463 . S
C2192 N2196 1.427 . S
C2193 H2183 0.929 . S
C2193 C2191 1.433 . S
C2193 N2196 1.384 . S
C2194 H2185 0.929 . S
C2194 C2186 1.378 . S
C2194 C2189 1.350 . S
C2195 H2182 0.929 . S
C2195 C2187 1.433 . S
C2195 N2197 1.384 . S
N2196 C2192 1.427 . S
N2196 C2193 1.384 . S
N2197 C2189 1.427 . S
N2197 C2195 1.384 . S
H2198 C2204 0.930 . S
H2199 C2208 0.930 . S
H2200 C2213 0.929 . S
H2201 C2211 0.929 . S
H2202 C2206 0.929 . S
H2203 C2212 0.929 . S
C2204 H2198 0.930 . S
C2204 C2205 1.367 . S
C2204 C2212 1.378 . S
C2205 C2204 1.367 . S
C2205 C2213 1.433 . S
C2206 H2202 0.929 . S
C2206 C2208 1.378 . S
C2206 C2210 1.350 . S
C2207 C2210 1.463 . S
C2207 C2212 1.350 . S
C2207 N2215 1.427 . S
C2208 H2199 0.930 . S
C2208 C2206 1.378 . S
C2208 C2209 1.367 . S
C2209 C2208 1.367 . S
C2209 C2211 1.433 . S
C2210 C2206 1.350 . S
C2210 C2207 1.463 . S
C2210 N2214 1.427 . S
C2211 H2201 0.929 . S
C2211 C2209 1.433 . S
C2211 N2214 1.384 . S
C2212 H2203 0.929 . S
C2212 C2204 1.378 . S
C2212 C2207 1.350 . S
C2213 H2200 0.929 . S
C2213 C2205 1.433 . S
C2213 N2215 1.384 . S
N2214 C2210 1.427 . S
N2214 C2211 1.384 . S
N2215 C2207 1.427 . S
N2215 C2213 1.384 . S
H2216 C2222 0.930 . S
H2217 C2226 0.930 . S
H2218 C2231 0.929 . S
H2219 C2229 0.929 . S
H2220 C2224 0.929 . S
H2221 C2230 0.929 . S
C2222 H2216 0.930 . S
C2222 C2223 1.367 . S
C2222 C2230 1.378 . S
C2223 C2222 1.367 . S
C2223 C2231 1.433 . S
C2224 H2220 0.929 . S
C2224 C2226 1.378 . S
C2224 C2228 1.350 . S
C2225 C2228 1.463 . S
C2225 C2230 1.350 . S
C2225 N2233 1.427 . S
C2226 H2217 0.930 . S
C2226 C2224 1.378 . S
C2226 C2227 1.367 . S
C2227 C2226 1.367 . S
C2227 C2229 1.433 . S
C2228 C2224 1.350 . S
C2228 C2225 1.463 . S
C2228 N2232 1.427 . S
C2229 H2219 0.929 . S
C2229 C2227 1.433 . S
C2229 N2232 1.384 . S
C2230 H2221 0.929 . S
C2230 C2222 1.378 . S
C2230 C2225 1.350 . S
C2231 H2218 0.929 . S
C2231 C2223 1.433 . S
C2231 N2233 1.384 . S
N2232 C2228 1.427 . S
N2232 C2229 1.384 . S
N2233 C2225 1.427 . S
N2233 C2231 1.384 . S
H2234 C2240 0.930 . S
H2235 C2244 0.930 . S
H2236 C2249 0.929 . S
H2237 C2247 0.929 . S
H2238 C2242 0.929 . S
H2239 C2248 0.929 . S
C2240 H2234 0.930 . S
C2240 C2241 1.367 . S
C2240 C2248 1.378 . S
C2241 C2240 1.367 . S
C2241 C2249 1.433 . S
C2242 H2238 0.929 . S
C2242 C2244 1.378 . S
C2242 C2246 1.350 . S
C2243 C2246 1.463 . S
C2243 C2248 1.350 . S
C2243 N2251 1.427 . S
C2244 H2235 0.930 . S
C2244 C2242 1.378 . S
C2244 C2245 1.367 . S
C2245 C2244 1.367 . S
C2245 C2247 1.433 . S
C2246 C2242 1.350 . S
C2246 C2243 1.463 . S
C2246 N2250 1.427 . S
C2247 H2237 0.929 . S
C2247 C2245 1.433 . S
C2247 N2250 1.384 . S
C2248 H2239 0.929 . S
C2248 C2240 1.378 . S
C2248 C2243 1.350 . S
C2249 H2236 0.929 . S
C2249 C2241 1.433 . S
C2249 N2251 1.384 . S
N2250 C2246 1.427 . S
N2250 C2247 1.384 . S
N2251 C2243 1.427 . S
N2251 C2249 1.384 . S
H2252 C2258 0.930 . S
H2253 C2262 0.930 . S
H2254 C2267 0.929 . S
H2255 C2265 0.929 . S
H2256 C2260 0.929 . S
H2257 C2266 0.929 . S
C2258 H2252 0.930 . S
C2258 C2259 1.367 . S
C2258 C2266 1.378 . S
C2259 C2258 1.367 . S
C2259 C2267 1.433 . S
C2260 H2256 0.929 . S
C2260 C2262 1.378 . S
C2260 C2264 1.350 . S
C2261 C2264 1.463 . S
C2261 C2266 1.350 . S
C2261 N2269 1.427 . S
C2262 H2253 0.930 . S
C2262 C2260 1.378 . S
C2262 C2263 1.367 . S
C2263 C2262 1.367 . S
C2263 C2265 1.433 . S
C2264 C2260 1.350 . S
C2264 C2261 1.463 . S
C2264 N2268 1.427 . S
C2265 H2255 0.929 . S
C2265 C2263 1.433 . S
C2265 N2268 1.384 . S
C2266 H2257 0.929 . S
C2266 C2258 1.378 . S
C2266 C2261 1.350 . S
C2267 H2254 0.929 . S
C2267 C2259 1.433 . S
C2267 N2269 1.384 . S
N2268 C2264 1.427 . S
N2268 C2265 1.384 . S
N2269 C2261 1.427 . S
N2269 C2267 1.384 . S
H2270 C2276 0.930 . S
H2271 C2280 0.930 . S
H2272 C2285 0.929 . S
H2273 C2283 0.929 . S
H2274 C2278 0.929 . S
H2275 C2284 0.929 . S
C2276 H2270 0.930 . S
C2276 C2277 1.367 . S
C2276 C2284 1.378 . S
C2277 C2276 1.367 . S
C2277 C2285 1.433 . S
C2278 H2274 0.929 . S
C2278 C2280 1.378 . S
C2278 C2282 1.350 . S
C2279 C2282 1.463 . S
C2279 C2284 1.350 . S
C2279 N2287 1.427 . S
C2280 H2271 0.930 . S
C2280 C2278 1.378 . S
C2280 C2281 1.367 . S
C2281 C2280 1.367 . S
C2281 C2283 1.433 . S
C2282 C2278 1.350 . S
C2282 C2279 1.463 . S
C2282 N2286 1.427 . S
C2283 H2273 0.929 . S
C2283 C2281 1.433 . S
C2283 N2286 1.384 . S
C2284 H2275 0.929 . S
C2284 C2276 1.378 . S
C2284 C2279 1.350 . S
C2285 H2272 0.929 . S
C2285 C2277 1.433 . S
C2285 N2287 1.384 . S
N2286 C2282 1.427 . S
N2286 C2283 1.384 . S
N2287 C2279 1.427 . S
N2287 C2285 1.384 . S
H2288 C2294 0.930 . S
H2289 C2298 0.930 . S
H2290 C2303 0.929 . S
H2291 C2301 0.929 . S
H2292 C2296 0.929 . S
H2293 C2302 0.929 . S
C2294 H2288 0.930 . S
C2294 C2295 1.367 . S
C2294 C2302 1.378 . S
C2295 C2294 1.367 . S
C2295 C2303 1.433 1_545 S
C2296 H2292 0.929 . S
C2296 C2298 1.378 . S
C2296 C2300 1.350 . S
C2297 C2300 1.463 . S
C2297 C2302 1.350 1_565 S
C2297 N2305 1.427 . S
C2298 H2289 0.930 . S
C2298 C2296 1.378 . S
C2298 C2299 1.367 . S
C2299 C2298 1.367 . S
C2299 C2301 1.433 1_565 S
C2300 C2296 1.350 . S
C2300 C2297 1.463 . S
C2300 N2304 1.427 1_565 S
C2301 H2291 0.929 . S
C2301 C2299 1.433 1_545 S
C2301 N2304 1.384 . S
C2302 H2293 0.929 . S
C2302 C2294 1.378 . S
C2302 C2297 1.350 1_545 S
C2303 H2290 0.929 . S
C2303 C2295 1.433 1_565 S
C2303 N2305 1.384 . S
N2304 C2300 1.427 1_545 S
N2304 C2301 1.384 . S
N2305 C2297 1.427 . S
N2305 C2303 1.384 . S
H2306 C2312 0.930 . S
H2307 C2316 0.930 . S
H2308 C2321 0.929 . S
H2309 C2319 0.929 . S
H2310 C2314 0.929 . S
H2311 C2320 0.929 . S
C2312 H2306 0.930 . S
C2312 C2313 1.367 . S
C2312 C2320 1.378 . S
C2313 C2312 1.367 . S
C2313 C2321 1.433 . S
C2314 H2310 0.929 . S
C2314 C2316 1.378 . S
C2314 C2318 1.350 . S
C2315 C2318 1.463 . S
C2315 C2320 1.350 . S
C2315 N2323 1.427 . S
C2316 H2307 0.930 . S
C2316 C2314 1.378 . S
C2316 C2317 1.367 . S
C2317 C2316 1.367 . S
C2317 C2319 1.433 . S
C2318 C2314 1.350 . S
C2318 C2315 1.463 . S
C2318 N2322 1.427 . S
C2319 H2309 0.929 . S
C2319 C2317 1.433 . S
C2319 N2322 1.384 . S
C2320 H2311 0.929 . S
C2320 C2312 1.378 . S
C2320 C2315 1.350 . S
C2321 H2308 0.929 . S
C2321 C2313 1.433 . S
C2321 N2323 1.384 . S
N2322 C2318 1.427 . S
N2322 C2319 1.384 . S
N2323 C2315 1.427 . S
N2323 C2321 1.384 . S
H2324 C2330 0.930 . S
H2325 C2334 0.930 . S
H2326 C2339 0.929 . S
H2327 C2337 0.929 . S
H2328 C2332 0.929 . S
H2329 C2338 0.929 . S
C2330 H2324 0.930 . S
C2330 C2331 1.367 . S
C2330 C2338 1.378 . S
C2331 C2330 1.367 . S
C2331 C2339 1.433 . S
C2332 H2328 0.929 . S
C2332 C2334 1.378 . S
C2332 C2336 1.350 . S
C2333 C2336 1.463 . S
C2333 C2338 1.350 . S
C2333 N2341 1.427 . S
C2334 H2325 0.930 . S
C2334 C2332 1.378 . S
C2334 C2335 1.367 . S
C2335 C2334 1.367 . S
C2335 C2337 1.433 . S
C2336 C2332 1.350 . S
C2336 C2333 1.463 . S
C2336 N2340 1.427 . S
C2337 H2327 0.929 . S
C2337 C2335 1.433 . S
C2337 N2340 1.384 . S
C2338 H2329 0.929 . S
C2338 C2330 1.378 . S
C2338 C2333 1.350 . S
C2339 H2326 0.929 . S
C2339 C2331 1.433 . S
C2339 N2341 1.384 . S
N2340 C2336 1.427 . S
N2340 C2337 1.384 . S
N2341 C2333 1.427 . S
N2341 C2339 1.384 . S
H2342 C2348 0.930 . S
H2343 C2352 0.930 1_545 S
H2344 C2357 0.929 . S
H2345 C2355 0.929 . S
H2346 C2350 0.929 . S
H2347 C2356 0.929 . S
C2348 H2342 0.930 . S
C2348 C2349 1.367 1_565 S
C2348 C2356 1.378 . S
C2349 C2348 1.367 1_545 S
C2349 C2357 1.433 . S
C2350 H2346 0.929 . S
C2350 C2352 1.378 1_545 S
C2350 C2354 1.350 1_545 S
C2351 C2354 1.463 . S
C2351 C2356 1.350 . S
C2351 N2359 1.427 1_565 S
C2352 H2343 0.930 1_565 S
C2352 C2350 1.378 1_565 S
C2352 C2353 1.367 . S
C2353 C2352 1.367 . S
C2353 C2355 1.433 . S
C2354 C2350 1.350 1_565 S
C2354 C2351 1.463 . S
C2354 N2358 1.427 . S
C2355 H2345 0.929 . S
C2355 C2353 1.433 . S
C2355 N2358 1.384 . S
C2356 H2347 0.929 . S
C2356 C2348 1.378 . S
C2356 C2351 1.350 . S
C2357 H2344 0.929 . S
C2357 C2349 1.433 . S
C2357 N2359 1.384 . S
N2358 C2354 1.427 . S
N2358 C2355 1.384 . S
N2359 C2351 1.427 1_545 S
N2359 C2357 1.384 . S
H2360 C2366 0.930 . S
H2361 C2370 0.930 . S
H2362 C2375 0.929 . S
H2363 C2373 0.929 . S
H2364 C2368 0.929 . S
H2365 C2374 0.931 . S
C2366 H2360 0.930 . S
C2366 C2367 1.367 . S
C2366 C2374 1.374 1_565 S
C2367 C2366 1.367 . S
C2367 C2375 1.433 . S
C2368 H2364 0.929 . S
C2368 C2370 1.378 . S
C2368 C2372 1.350 . S
C2369 C2372 1.463 . S
C2369 C2374 1.352 . S
C2369 N2377 1.428 1_545 S
C2370 H2361 0.930 . S
C2370 C2368 1.378 . S
C2370 C2371 1.367 . S
C2371 C2370 1.367 . S
C2371 C2373 1.433 . S
C2372 C2368 1.350 . S
C2372 C2369 1.463 . S
C2372 N2376 1.427 . S
C2373 H2363 0.929 . S
C2373 C2371 1.433 . S
C2373 N2376 1.384 . S
C2374 H2365 0.931 . S
C2374 C2366 1.374 1_545 S
C2374 C2369 1.352 . S
C2375 H2362 0.929 . S
C2375 C2367 1.433 . S
C2375 N2377 1.383 . S
N2376 C2372 1.427 . S
N2376 C2373 1.384 . S
N2377 C2369 1.428 1_565 S
N2377 C2375 1.383 . S
H2378 C2384 0.930 . S
H2379 C2388 0.930 . S
H2380 C2393 0.929 . S
H2381 C2391 0.929 . S
H2382 C2386 0.929 . S
H2383 C2392 0.929 . S
C2384 H2378 0.930 . S
C2384 C2385 1.367 . S
C2384 C2392 1.378 . S
C2385 C2384 1.367 . S
C2385 C2393 1.433 . S
C2386 H2382 0.929 . S
C2386 C2388 1.378 . S
C2386 C2390 1.350 . S
C2387 C2390 1.463 . S
C2387 C2392 1.350 . S
C2387 N2395 1.427 . S
C2388 H2379 0.930 . S
C2388 C2386 1.378 . S
C2388 C2389 1.367 . S
C2389 C2388 1.367 . S
C2389 C2391 1.433 . S
C2390 C2386 1.350 . S
C2390 C2387 1.463 . S
C2390 N2394 1.427 . S
C2391 H2381 0.929 . S
C2391 C2389 1.433 . S
C2391 N2394 1.384 . S
C2392 H2383 0.929 . S
C2392 C2384 1.378 . S
C2392 C2387 1.350 . S
C2393 H2380 0.929 . S
C2393 C2385 1.433 . S
C2393 N2395 1.384 . S
N2394 C2390 1.427 . S
N2394 C2391 1.384 . S
N2395 C2387 1.427 . S
N2395 C2393 1.384 . S
H2396 C2402 0.930 . S
H2397 C2406 0.930 . S
H2398 C2411 0.929 . S
H2399 C2409 0.929 . S
H2400 C2404 0.929 . S
H2401 C2410 0.929 . S
C2402 H2396 0.930 . S
C2402 C2403 1.367 . S
C2402 C2410 1.378 . S
C2403 C2402 1.367 . S
C2403 C2411 1.433 . S
C2404 H2400 0.929 . S
C2404 C2406 1.378 . S
C2404 C2408 1.350 . S
C2405 C2408 1.463 . S
C2405 C2410 1.350 . S
C2405 N2413 1.427 . S
C2406 H2397 0.930 . S
C2406 C2404 1.378 . S
C2406 C2407 1.367 . S
C2407 C2406 1.367 . S
C2407 C2409 1.433 . S
C2408 C2404 1.350 . S
C2408 C2405 1.463 . S
C2408 N2412 1.427 . S
C2409 H2399 0.929 . S
C2409 C2407 1.433 . S
C2409 N2412 1.384 . S
C2410 H2401 0.929 . S
C2410 C2402 1.378 . S
C2410 C2405 1.350 . S
C2411 H2398 0.929 . S
C2411 C2403 1.433 . S
C2411 N2413 1.384 . S
N2412 C2408 1.427 . S
N2412 C2409 1.384 . S
N2413 C2405 1.427 . S
N2413 C2411 1.384 . S
H2414 C2420 0.930 . S
H2415 C2424 0.930 . S
H2416 C2429 0.929 . S
H2417 C2427 0.929 . S
H2418 C2422 0.929 . S
H2419 C2428 0.929 . S
C2420 H2414 0.930 . S
C2420 C2421 1.367 1_545 S
C2420 C2428 1.378 . S
C2421 C2420 1.367 1_565 S
C2421 C2429 1.433 . S
C2422 H2418 0.929 . S
C2422 C2424 1.378 . S
C2422 C2426 1.350 1_565 S
C2423 C2426 1.463 . S
C2423 C2428 1.350 . S
C2423 N2431 1.427 1_545 S
C2424 H2415 0.930 . S
C2424 C2422 1.378 . S
C2424 C2425 1.367 1_565 S
C2425 C2424 1.367 1_545 S
C2425 C2427 1.433 . S
C2426 C2422 1.350 1_545 S
C2426 C2423 1.463 . S
C2426 N2430 1.427 . S
C2427 H2417 0.929 . S
C2427 C2425 1.433 . S
C2427 N2430 1.384 . S
C2428 H2419 0.929 . S
C2428 C2420 1.378 . S
C2428 C2423 1.350 . S
C2429 H2416 0.929 . S
C2429 C2421 1.433 . S
C2429 N2431 1.384 . S
N2430 C2426 1.427 . S
N2430 C2427 1.384 . S
N2431 C2423 1.427 1_565 S
N2431 C2429 1.384 . S
H2432 C2438 0.930 . S
H2433 C2442 0.930 . S
H2434 C2447 0.929 . S
H2435 C2445 0.929 . S
H2436 C2440 0.929 1_455 S
H2437 C2446 0.929 . S
C2438 H2432 0.930 . S
C2438 C2439 1.367 . S
C2438 C2446 1.378 . S
C2439 C2438 1.367 . S
C2439 C2447 1.433 . S
C2440 H2436 0.929 1_655 S
C2440 C2442 1.378 . S
C2440 C2444 1.350 1_655 S
C2441 C2444 1.463 . S
C2441 C2446 1.350 . S
C2441 N2449 1.427 . S
C2442 H2433 0.930 . S
C2442 C2440 1.378 . S
C2442 C2443 1.367 . S
C2443 C2442 1.367 . S
C2443 C2445 1.433 . S
C2444 C2440 1.350 1_455 S
C2444 C2441 1.463 . S
C2444 N2448 1.427 1_455 S
C2445 H2435 0.929 . S
C2445 C2443 1.433 . S
C2445 N2448 1.384 . S
C2446 H2437 0.929 . S
C2446 C2438 1.378 . S
C2446 C2441 1.350 . S
C2447 H2434 0.929 . S
C2447 C2439 1.433 . S
C2447 N2449 1.384 . S
N2448 C2444 1.427 1_655 S
N2448 C2445 1.384 . S
N2449 C2441 1.427 . S
N2449 C2447 1.384 . S
H2450 C2456 0.930 . S
H2451 C2460 0.930 . S
H2452 C2465 0.929 . S
H2453 C2463 0.929 . S
H2454 C2458 0.929 . S
H2455 C2464 0.929 . S
C2456 H2450 0.930 . S
C2456 C2457 1.367 . S
C2456 C2464 1.378 . S
C2457 C2456 1.367 . S
C2457 C2465 1.433 . S
C2458 H2454 0.929 . S
C2458 C2460 1.378 . S
C2458 C2462 1.350 . S
C2459 C2462 1.463 . S
C2459 C2464 1.350 . S
C2459 N2467 1.427 . S
C2460 H2451 0.930 . S
C2460 C2458 1.378 . S
C2460 C2461 1.367 . S
C2461 C2460 1.367 . S
C2461 C2463 1.433 . S
C2462 C2458 1.350 . S
C2462 C2459 1.463 . S
C2462 N2466 1.427 . S
C2463 H2453 0.929 . S
C2463 C2461 1.433 . S
C2463 N2466 1.384 . S
C2464 H2455 0.929 . S
C2464 C2456 1.378 . S
C2464 C2459 1.350 . S
C2465 H2452 0.929 . S
C2465 C2457 1.433 . S
C2465 N2467 1.384 . S
N2466 C2462 1.427 . S
N2466 C2463 1.384 . S
N2467 C2459 1.427 . S
N2467 C2465 1.384 . S
H2468 C2474 0.930 . S
H2469 C2478 0.930 . S
H2470 C2483 0.929 . S
H2471 C2481 0.929 . S
H2472 C2476 0.929 . S
H2473 C2482 0.929 1_455 S
C2474 H2468 0.930 . S
C2474 C2475 1.367 . S
C2474 C2482 1.378 . S
C2475 C2474 1.367 . S
C2475 C2483 1.433 . S
C2476 H2472 0.929 . S
C2476 C2478 1.378 . S
C2476 C2480 1.350 . S
C2477 C2480 1.463 . S
C2477 C2482 1.350 1_455 S
C2477 N2485 1.427 1_455 S
C2478 H2469 0.930 . S
C2478 C2476 1.378 . S
C2478 C2479 1.367 . S
C2479 C2478 1.367 . S
C2479 C2481 1.433 . S
C2480 C2476 1.350 . S
C2480 C2477 1.463 . S
C2480 N2484 1.427 . S
C2481 H2471 0.929 . S
C2481 C2479 1.433 . S
C2481 N2484 1.384 . S
C2482 H2473 0.929 1_655 S
C2482 C2474 1.378 . S
C2482 C2477 1.350 1_655 S
C2483 H2470 0.929 . S
C2483 C2475 1.433 . S
C2483 N2485 1.384 . S
N2484 C2480 1.427 . S
N2484 C2481 1.384 . S
N2485 C2477 1.427 1_655 S
N2485 C2483 1.384 . S
H2486 C2492 0.930 . S
H2487 C2496 0.930 . S
H2488 C2501 0.929 . S
H2489 C2499 0.929 . S
H2490 C2494 0.929 . S
H2491 C2500 0.929 . S
C2492 H2486 0.930 . S
C2492 C2493 1.367 . S
C2492 C2500 1.378 . S
C2493 C2492 1.367 . S
C2493 C2501 1.433 . S
C2494 H2490 0.929 . S
C2494 C2496 1.378 . S
C2494 C2498 1.350 . S
C2495 C2498 1.463 . S
C2495 C2500 1.350 . S
C2495 N2503 1.427 . S
C2496 H2487 0.930 . S
C2496 C2494 1.378 . S
C2496 C2497 1.367 . S
C2497 C2496 1.367 . S
C2497 C2499 1.433 . S
C2498 C2494 1.350 . S
C2498 C2495 1.463 . S
C2498 N2502 1.427 . S
C2499 H2489 0.929 . S
C2499 C2497 1.433 . S
C2499 N2502 1.384 . S
C2500 H2491 0.929 . S
C2500 C2492 1.378 . S
C2500 C2495 1.350 . S
C2501 H2488 0.929 . S
C2501 C2493 1.433 . S
C2501 N2503 1.384 . S
N2502 C2498 1.427 . S
N2502 C2499 1.384 . S
N2503 C2495 1.427 . S
N2503 C2501 1.384 . S
H2504 C2510 0.930 . S
H2505 C2514 0.930 . S
H2506 C2519 0.929 . S
H2507 C2517 0.929 . S
H2508 C2512 0.929 1_655 S
H2509 C2518 0.929 . S
C2510 H2504 0.930 . S
C2510 C2511 1.367 . S
C2510 C2518 1.378 . S
C2511 C2510 1.367 . S
C2511 C2519 1.433 . S
C2512 H2508 0.929 1_455 S
C2512 C2514 1.378 . S
C2512 C2516 1.350 1_455 S
C2513 C2516 1.463 . S
C2513 C2518 1.350 . S
C2513 N2521 1.427 . S
C2514 H2505 0.930 . S
C2514 C2512 1.378 . S
C2514 C2515 1.367 . S
C2515 C2514 1.367 . S
C2515 C2517 1.433 . S
C2516 C2512 1.350 1_655 S
C2516 C2513 1.463 . S
C2516 N2520 1.427 1_655 S
C2517 H2507 0.929 . S
C2517 C2515 1.433 . S
C2517 N2520 1.384 . S
C2518 H2509 0.929 . S
C2518 C2510 1.378 . S
C2518 C2513 1.350 . S
C2519 H2506 0.929 . S
C2519 C2511 1.433 . S
C2519 N2521 1.384 . S
N2520 C2516 1.427 1_455 S
N2520 C2517 1.384 . S
N2521 C2513 1.427 . S
N2521 C2519 1.384 . S
H2522 C2528 0.930 . S
H2523 C2532 0.930 . S
H2524 C2537 0.929 . S
H2525 C2535 0.929 . S
H2526 C2530 0.929 . S
H2527 C2536 0.929 . S
C2528 H2522 0.930 . S
C2528 C2529 1.367 . S
C2528 C2536 1.378 . S
C2529 C2528 1.367 . S
C2529 C2537 1.433 . S
C2530 H2526 0.929 . S
C2530 C2532 1.378 . S
C2530 C2534 1.350 . S
C2531 C2534 1.463 . S
C2531 C2536 1.350 . S
C2531 N2539 1.427 . S
C2532 H2523 0.930 . S
C2532 C2530 1.378 . S
C2532 C2533 1.367 . S
C2533 C2532 1.367 . S
C2533 C2535 1.433 . S
C2534 C2530 1.350 . S
C2534 C2531 1.463 . S
C2534 N2538 1.427 . S
C2535 H2525 0.929 . S
C2535 C2533 1.433 . S
C2535 N2538 1.384 . S
C2536 H2527 0.929 . S
C2536 C2528 1.378 . S
C2536 C2531 1.350 . S
C2537 H2524 0.929 . S
C2537 C2529 1.433 . S
C2537 N2539 1.384 . S
N2538 C2534 1.427 . S
N2538 C2535 1.384 . S
N2539 C2531 1.427 . S
N2539 C2537 1.384 . S
H2540 C2546 0.930 . S
H2541 C2550 0.930 . S
H2542 C2555 0.929 . S
H2543 C2553 0.929 . S
H2544 C2548 0.929 . S
H2545 C2554 0.929 . S
C2546 H2540 0.930 . S
C2546 C2547 1.367 . S
C2546 C2554 1.378 . S
C2547 C2546 1.367 . S
C2547 C2555 1.433 . S
C2548 H2544 0.929 . S
C2548 C2550 1.378 . S
C2548 C2552 1.350 . S
C2549 C2552 1.463 . S
C2549 C2554 1.350 1_655 S
C2549 N2557 1.427 1_655 S
C2550 H2541 0.930 . S
C2550 C2548 1.378 . S
C2550 C2551 1.367 . S
C2551 C2550 1.367 . S
C2551 C2553 1.433 . S
C2552 C2548 1.350 . S
C2552 C2549 1.463 . S
C2552 N2556 1.427 . S
C2553 H2543 0.929 . S
C2553 C2551 1.433 . S
C2553 N2556 1.384 . S
C2554 H2545 0.929 . S
C2554 C2546 1.378 . S
C2554 C2549 1.350 1_455 S
C2555 H2542 0.929 . S
C2555 C2547 1.433 . S
C2555 N2557 1.384 . S
N2556 C2552 1.427 . S
N2556 C2553 1.384 . S
N2557 C2549 1.427 1_455 S
N2557 C2555 1.384 . S
H2558 C2564 0.930 . S
H2559 C2568 0.930 . S
H2560 C2573 0.929 . S
H2561 C2571 0.929 . S
H2562 C2566 0.929 . S
H2563 C2572 0.929 . S
C2564 H2558 0.930 . S
C2564 C2565 1.367 . S
C2564 C2572 1.378 . S
C2565 C2564 1.367 . S
C2565 C2573 1.433 . S
C2566 H2562 0.929 . S
C2566 C2568 1.378 . S
C2566 C2570 1.350 . S
C2567 C2570 1.463 . S
C2567 C2572 1.350 . S
C2567 N2575 1.427 . S
C2568 H2559 0.930 . S
C2568 C2566 1.378 . S
C2568 C2569 1.367 . S
C2569 C2568 1.367 . S
C2569 C2571 1.433 . S
C2570 C2566 1.350 . S
C2570 C2567 1.463 . S
C2570 N2574 1.427 . S
C2571 H2561 0.929 . S
C2571 C2569 1.433 . S
C2571 N2574 1.384 . S
C2572 H2563 0.929 . S
C2572 C2564 1.378 . S
C2572 C2567 1.350 . S
C2573 H2560 0.929 . S
C2573 C2565 1.433 . S
C2573 N2575 1.384 . S
N2574 C2570 1.427 . S
N2574 C2571 1.384 . S
N2575 C2567 1.427 . S
N2575 C2573 1.384 . S
H2576 C2582 0.931 . S
H2577 C2586 0.930 . S
H2578 C2591 0.929 . S
H2579 C2589 0.929 . S
H2580 C2584 0.932 . S
H2581 C2590 0.929 1_455 S
C2582 H2576 0.931 . S
C2582 C2583 1.364 1_565 S
C2582 C2590 1.380 . S
C2583 C2582 1.364 1_545 S
C2583 C2591 1.433 . S
C2584 H2580 0.932 . S
C2584 C2586 1.378 . S
C2584 C2588 1.350 . S
C2585 C2588 1.463 . S
C2585 C2590 1.350 1_455 S
C2585 N2593 1.427 1_465 S
C2586 H2577 0.930 . S
C2586 C2584 1.378 . S
C2586 C2587 1.367 . S
C2587 C2586 1.367 . S
C2587 C2589 1.433 . S
C2588 C2584 1.350 . S
C2588 C2585 1.463 . S
C2588 N2592 1.427 . S
C2589 H2579 0.929 . S
C2589 C2587 1.433 . S
C2589 N2592 1.384 . S
C2590 H2581 0.929 1_655 S
C2590 C2582 1.380 . S
C2590 C2585 1.350 1_655 S
C2591 H2578 0.929 . S
C2591 C2583 1.433 . S
C2591 N2593 1.384 . S
N2592 C2588 1.427 . S
N2592 C2589 1.384 . S
N2593 C2585 1.427 1_645 S
N2593 C2591 1.384 . S
H2594 C2600 0.930 . S
H2595 C2604 0.930 . S
H2596 C2609 0.929 . S
H2597 C2607 0.929 . S
H2598 C2602 0.929 . S
H2599 C2608 0.929 . S
C2600 H2594 0.930 . S
C2600 C2601 1.367 . S
C2600 C2608 1.378 . S
C2601 C2600 1.367 . S
C2601 C2609 1.433 . S
C2602 H2598 0.929 . S
C2602 C2604 1.378 . S
C2602 C2606 1.350 . S
C2603 C2606 1.463 . S
C2603 C2608 1.350 . S
C2603 N2611 1.427 . S
C2604 H2595 0.930 . S
C2604 C2602 1.378 . S
C2604 C2605 1.367 . S
C2605 C2604 1.367 . S
C2605 C2607 1.433 . S
C2606 C2602 1.350 . S
C2606 C2603 1.463 . S
C2606 N2610 1.427 . S
C2607 H2597 0.929 . S
C2607 C2605 1.433 . S
C2607 N2610 1.384 . S
C2608 H2599 0.929 . S
C2608 C2600 1.378 . S
C2608 C2603 1.350 . S
C2609 H2596 0.929 . S
C2609 C2601 1.433 . S
C2609 N2611 1.384 . S
N2610 C2606 1.427 . S
N2610 C2607 1.384 . S
N2611 C2603 1.427 . S
N2611 C2609 1.384 . S
H2612 C2618 0.930 . S
H2613 C2622 0.930 . S
H2614 C2627 0.929 . S
H2615 C2625 0.929 . S
H2616 C2620 0.929 . S
H2617 C2626 0.929 1_455 S
C2618 H2612 0.930 . S
C2618 C2619 1.367 . S
C2618 C2626 1.378 . S
C2619 C2618 1.367 . S
C2619 C2627 1.433 . S
C2620 H2616 0.929 . S
C2620 C2622 1.378 . S
C2620 C2624 1.350 . S
C2621 C2624 1.463 . S
C2621 C2626 1.350 1_455 S
C2621 N2629 1.427 1_455 S
C2622 H2613 0.930 . S
C2622 C2620 1.378 . S
C2622 C2623 1.367 . S
C2623 C2622 1.367 . S
C2623 C2625 1.433 . S
C2624 C2620 1.350 . S
C2624 C2621 1.463 . S
C2624 N2628 1.427 . S
C2625 H2615 0.929 . S
C2625 C2623 1.433 . S
C2625 N2628 1.384 . S
C2626 H2617 0.929 1_655 S
C2626 C2618 1.378 . S
C2626 C2621 1.350 1_655 S
C2627 H2614 0.929 . S
C2627 C2619 1.433 . S
C2627 N2629 1.384 . S
N2628 C2624 1.427 . S
N2628 C2625 1.384 . S
N2629 C2621 1.427 1_655 S
N2629 C2627 1.384 . S
H2630 C2636 0.930 . S
H2631 C2640 0.930 . S
H2632 C2645 0.929 . S
H2633 C2643 0.929 . S
H2634 C2638 0.929 . S
H2635 C2644 0.929 . S
C2636 H2630 0.930 . S
C2636 C2637 1.367 . S
C2636 C2644 1.378 . S
C2637 C2636 1.367 . S
C2637 C2645 1.433 1_545 S
C2638 H2634 0.929 . S
C2638 C2640 1.378 . S
C2638 C2642 1.350 . S
C2639 C2642 1.463 . S
C2639 C2644 1.350 1_565 S
C2639 N2647 1.427 . S
C2640 H2631 0.930 . S
C2640 C2638 1.378 . S
C2640 C2641 1.367 . S
C2641 C2640 1.367 . S
C2641 C2643 1.433 . S
C2642 C2638 1.350 . S
C2642 C2639 1.463 . S
C2642 N2646 1.427 . S
C2643 H2633 0.929 . S
C2643 C2641 1.433 . S
C2643 N2646 1.384 . S
C2644 H2635 0.929 . S
C2644 C2636 1.378 . S
C2644 C2639 1.350 1_545 S
C2645 H2632 0.929 . S
C2645 C2637 1.433 1_565 S
C2645 N2647 1.384 . S
N2646 C2642 1.427 . S
N2646 C2643 1.384 . S
N2647 C2639 1.427 . S
N2647 C2645 1.384 . S
H2648 C2654 0.930 . S
H2649 C2658 0.930 . S
H2650 C2663 0.937 . S
H2651 C2661 0.929 . S
H2652 C2656 0.929 . S
H2653 C2662 0.929 . S
C2654 H2648 0.930 . S
C2654 C2655 1.367 . S
C2654 C2662 1.378 . S
C2655 C2654 1.367 . S
C2655 C2663 1.433 . S
C2656 H2652 0.929 . S
C2656 C2658 1.378 . S
C2656 C2660 1.350 1_465 S
C2657 C2660 1.463 . S
C2657 C2662 1.350 . S
C2657 N2665 1.433 . S
C2658 H2649 0.930 . S
C2658 C2656 1.378 . S
C2658 C2659 1.367 . S
C2659 C2658 1.367 . S
C2659 C2661 1.433 1_565 S
C2660 C2656 1.350 1_645 S
C2660 C2657 1.463 . S
C2660 N2664 1.427 1_655 S
C2661 H2651 0.929 . S
C2661 C2659 1.433 1_545 S
C2661 N2664 1.384 . S
C2662 H2653 0.929 . S
C2662 C2654 1.378 . S
C2662 C2657 1.350 . S
C2663 H2650 0.937 . S
C2663 C2655 1.433 . S
C2663 N2665 1.387 . S
N2664 C2660 1.427 1_455 S
N2664 C2661 1.384 . S
N2665 C2657 1.433 . S
N2665 C2663 1.387 . S
H2666 C2672 0.930 . S
H2667 C2676 0.930 . S
H2668 C2681 0.929 . S
H2669 C2679 0.929 . S
H2670 C2674 0.929 . S
H2671 C2680 0.929 . S
C2672 H2666 0.930 . S
C2672 C2673 1.367 . S
C2672 C2680 1.378 . S
C2673 C2672 1.367 . S
C2673 C2681 1.433 . S
C2674 H2670 0.929 . S
C2674 C2676 1.378 . S
C2674 C2678 1.350 . S
C2675 C2678 1.463 . S
C2675 C2680 1.350 . S
C2675 N2683 1.427 . S
C2676 H2667 0.930 . S
C2676 C2674 1.378 . S
C2676 C2677 1.367 . S
C2677 C2676 1.367 . S
C2677 C2679 1.433 . S
C2678 C2674 1.350 . S
C2678 C2675 1.463 . S
C2678 N2682 1.427 . S
C2679 H2669 0.929 . S
C2679 C2677 1.433 . S
C2679 N2682 1.384 . S
C2680 H2671 0.929 . S
C2680 C2672 1.378 . S
C2680 C2675 1.350 . S
C2681 H2668 0.929 . S
C2681 C2673 1.433 . S
C2681 N2683 1.384 . S
N2682 C2678 1.427 . S
N2682 C2679 1.384 . S
N2683 C2675 1.427 . S
N2683 C2681 1.384 . S
H2684 C2690 0.930 . S
H2685 C2694 0.930 . S
H2686 C2699 0.929 . S
H2687 C2697 0.929 . S
H2688 C2692 0.929 . S
H2689 C2698 0.929 . S
C2690 H2684 0.930 . S
C2690 C2691 1.367 . S
C2690 C2698 1.378 . S
C2691 C2690 1.367 . S
C2691 C2699 1.433 . S
C2692 H2688 0.929 . S
C2692 C2694 1.378 . S
C2692 C2696 1.350 . S
C2693 C2696 1.463 . S
C2693 C2698 1.350 1_655 S
C2693 N2701 1.427 1_655 S
C2694 H2685 0.930 . S
C2694 C2692 1.378 . S
C2694 C2695 1.367 . S
C2695 C2694 1.367 . S
C2695 C2697 1.433 . S
C2696 C2692 1.350 . S
C2696 C2693 1.463 . S
C2696 N2700 1.427 . S
C2697 H2687 0.929 . S
C2697 C2695 1.433 . S
C2697 N2700 1.384 . S
C2698 H2689 0.929 . S
C2698 C2690 1.378 . S
C2698 C2693 1.350 1_455 S
C2699 H2686 0.929 . S
C2699 C2691 1.433 . S
C2699 N2701 1.384 . S
N2700 C2696 1.427 . S
N2700 C2697 1.384 . S
N2701 C2693 1.427 1_455 S
N2701 C2699 1.384 . S
H2702 C2708 0.930 . S
H2703 C2712 0.930 1_565 S
H2704 C2717 0.929 . S
H2705 C2715 0.929 . S
H2706 C2710 0.946 . S
H2707 C2716 0.929 . S
C2708 H2702 0.930 . S
C2708 C2709 1.367 1_545 S
C2708 C2716 1.378 . S
C2709 C2708 1.367 1_565 S
C2709 C2717 1.433 . S
C2710 H2706 0.946 . S
C2710 C2712 1.372 1_565 S
C2710 C2714 1.340 1_565 S
C2711 C2714 1.463 . S
C2711 C2716 1.350 . S
C2711 N2719 1.427 1_545 S
C2712 H2703 0.930 1_545 S
C2712 C2710 1.372 1_545 S
C2712 C2713 1.367 . S
C2713 C2712 1.367 . S
C2713 C2715 1.433 . S
C2714 C2710 1.340 1_545 S
C2714 C2711 1.463 . S
C2714 N2718 1.427 . S
C2715 H2705 0.929 . S
C2715 C2713 1.433 . S
C2715 N2718 1.384 . S
C2716 H2707 0.929 . S
C2716 C2708 1.378 . S
C2716 C2711 1.350 . S
C2717 H2704 0.929 . S
C2717 C2709 1.433 . S
C2717 N2719 1.384 . S
N2718 C2714 1.427 . S
N2718 C2715 1.384 . S
N2719 C2711 1.427 1_565 S
N2719 C2717 1.384 . S
H2720 C2726 0.930 . S
H2721 C2730 0.930 . S
H2722 C2735 0.929 . S
H2723 C2733 0.929 . S
H2724 C2728 0.929 . S
H2725 C2734 0.929 . S
C2726 H2720 0.930 . S
C2726 C2727 1.367 . S
C2726 C2734 1.378 . S
C2727 C2726 1.367 . S
C2727 C2735 1.433 . S
C2728 H2724 0.929 . S
C2728 C2730 1.378 . S
C2728 C2732 1.350 . S
C2729 C2732 1.463 1_454 S
C2729 C2734 1.350 . S
C2729 N2737 1.428 . S
C2730 H2721 0.930 . S
C2730 C2728 1.378 . S
C2730 C2731 1.367 . S
C2731 C2730 1.367 . S
C2731 C2733 1.433 . S
C2732 C2728 1.350 . S
C2732 C2729 1.463 1_656 S
C2732 N2736 1.428 . S
C2733 H2723 0.929 . S
C2733 C2731 1.433 . S
C2733 N2736 1.384 . S
C2734 H2725 0.929 . S
C2734 C2726 1.378 . S
C2734 C2729 1.350 . S
C2735 H2722 0.929 . S
C2735 C2727 1.433 . S
C2735 N2737 1.384 . S
N2736 C2732 1.428 . S
N2736 C2733 1.384 . S
N2737 C2729 1.428 . S
N2737 C2735 1.384 . S
H2738 C2744 0.930 . S
H2739 C2748 0.930 . S
H2740 C2753 0.929 . S
H2741 C2751 0.929 . S
H2742 C2746 0.929 . S
H2743 C2752 0.929 . S
C2744 H2738 0.930 . S
C2744 C2745 1.367 . S
C2744 C2752 1.378 . S
C2745 C2744 1.367 . S
C2745 C2753 1.433 . S
C2746 H2742 0.929 . S
C2746 C2748 1.378 . S
C2746 C2750 1.350 . S
C2747 C2750 1.463 1_556 S
C2747 C2752 1.350 . S
C2747 N2755 1.427 . S
C2748 H2739 0.930 . S
C2748 C2746 1.378 . S
C2748 C2749 1.367 . S
C2749 C2748 1.367 . S
C2749 C2751 1.433 . S
C2750 C2746 1.350 . S
C2750 C2747 1.463 1_554 S
C2750 N2754 1.427 . S
C2751 H2741 0.929 . S
C2751 C2749 1.433 . S
C2751 N2754 1.384 . S
C2752 H2743 0.929 . S
C2752 C2744 1.378 . S
C2752 C2747 1.350 . S
C2753 H2740 0.929 . S
C2753 C2745 1.433 . S
C2753 N2755 1.384 . S
N2754 C2750 1.427 . S
N2754 C2751 1.384 . S
N2755 C2747 1.427 . S
N2755 C2753 1.384 . S
H2756 C2762 0.930 . S
H2757 C2766 0.930 . S
H2758 C2771 0.929 . S
H2759 C2769 0.929 . S
H2760 C2764 0.929 . S
H2761 C2770 0.929 . S
C2762 H2756 0.930 . S
C2762 C2763 1.367 1_455 S
C2762 C2770 1.378 . S
C2763 C2762 1.367 1_655 S
C2763 C2771 1.433 . S
C2764 H2760 0.929 . S
C2764 C2766 1.378 . S
C2764 C2768 1.350 1_655 S
C2765 C2768 1.463 1_655 S
C2765 C2770 1.350 1_655 S
C2765 N2773 1.427 . S
C2766 H2757 0.930 . S
C2766 C2764 1.378 . S
C2766 C2767 1.367 1_655 S
C2767 C2766 1.367 1_455 S
C2767 C2769 1.433 . S
C2768 C2764 1.350 1_455 S
C2768 C2765 1.463 1_455 S
C2768 N2772 1.427 . S
C2769 H2759 0.929 . S
C2769 C2767 1.433 . S
C2769 N2772 1.384 . S
C2770 H2761 0.929 . S
C2770 C2762 1.378 . S
C2770 C2765 1.350 1_455 S
C2771 H2758 0.929 . S
C2771 C2763 1.433 . S
C2771 N2773 1.384 . S
N2772 C2768 1.427 . S
N2772 C2769 1.384 . S
N2773 C2765 1.427 . S
N2773 C2771 1.384 . S
H2774 C2780 0.930 . S
H2775 C2784 0.930 . S
H2776 C2789 0.929 . S
H2777 C2787 0.929 . S
H2778 C2782 0.929 . S
H2779 C2788 0.929 . S
C2780 H2774 0.930 . S
C2780 C2781 1.367 . S
C2780 C2788 1.378 . S
C2781 C2780 1.367 . S
C2781 C2789 1.433 . S
C2782 H2778 0.929 . S
C2782 C2784 1.378 . S
C2782 C2786 1.350 . S
C2783 C2786 1.463 . S
C2783 C2788 1.350 . S
C2783 N2791 1.427 . S
C2784 H2775 0.930 . S
C2784 C2782 1.378 . S
C2784 C2785 1.367 . S
C2785 C2784 1.367 . S
C2785 C2787 1.433 . S
C2786 C2782 1.350 . S
C2786 C2783 1.463 . S
C2786 N2790 1.427 . S
C2787 H2777 0.929 . S
C2787 C2785 1.433 . S
C2787 N2790 1.384 . S
C2788 H2779 0.929 . S
C2788 C2780 1.378 . S
C2788 C2783 1.350 . S
C2789 H2776 0.929 . S
C2789 C2781 1.433 . S
C2789 N2791 1.384 . S
N2790 C2786 1.427 . S
N2790 C2787 1.384 . S
N2791 C2783 1.427 . S
N2791 C2789 1.384 . S
H2792 C2798 0.930 . S
H2793 C2802 0.930 . S
H2794 C2807 0.929 . S
H2795 C2805 0.929 . S
H2796 C2800 0.929 . S
H2797 C2806 0.929 . S
C2798 H2792 0.930 . S
C2798 C2799 1.367 . S
C2798 C2806 1.378 . S
C2799 C2798 1.367 . S
C2799 C2807 1.433 . S
C2800 H2796 0.929 . S
C2800 C2802 1.378 . S
C2800 C2804 1.350 . S
C2801 C2804 1.463 1_556 S
C2801 C2806 1.350 . S
C2801 N2809 1.427 . S
C2802 H2793 0.930 . S
C2802 C2800 1.378 . S
C2802 C2803 1.367 . S
C2803 C2802 1.367 . S
C2803 C2805 1.433 . S
C2804 C2800 1.350 . S
C2804 C2801 1.463 1_554 S
C2804 N2808 1.427 . S
C2805 H2795 0.929 . S
C2805 C2803 1.433 . S
C2805 N2808 1.384 . S
C2806 H2797 0.929 . S
C2806 C2798 1.378 . S
C2806 C2801 1.350 . S
C2807 H2794 0.929 . S
C2807 C2799 1.433 . S
C2807 N2809 1.384 . S
N2808 C2804 1.427 . S
N2808 C2805 1.384 . S
N2809 C2801 1.427 . S
N2809 C2807 1.384 . S
H2810 C2816 0.930 . S
H2811 C2820 0.930 . S
H2812 C2825 0.929 . S
H2813 C2823 0.929 . S
H2814 C2818 0.929 . S
H2815 C2824 0.929 . S
C2816 H2810 0.930 . S
C2816 C2817 1.367 1_455 S
C2816 C2824 1.378 . S
C2817 C2816 1.367 1_655 S
C2817 C2825 1.433 . S
C2818 H2814 0.929 . S
C2818 C2820 1.378 . S
C2818 C2822 1.340 1_655 S
C2819 C2822 1.462 1_655 S
C2819 C2824 1.340 1_655 S
C2819 N2827 1.439 . S
C2820 H2811 0.930 . S
C2820 C2818 1.378 . S
C2820 C2821 1.367 1_655 S
C2821 C2820 1.367 1_455 S
C2821 C2823 1.433 . S
C2822 C2818 1.340 1_455 S
C2822 C2819 1.462 1_455 S
C2822 N2826 1.439 . S
C2823 H2813 0.929 . S
C2823 C2821 1.433 . S
C2823 N2826 1.384 . S
C2824 H2815 0.929 . S
C2824 C2816 1.378 . S
C2824 C2819 1.340 1_455 S
C2825 H2812 0.929 . S
C2825 C2817 1.433 . S
C2825 N2827 1.384 . S
N2826 C2822 1.439 . S
N2826 C2823 1.384 . S
N2827 C2819 1.439 . S
N2827 C2825 1.384 . S
H2828 C2834 0.930 . S
H2829 C2838 0.930 . S
H2830 C2843 0.929 . S
H2831 C2841 0.929 . S
H2832 C2836 0.929 . S
H2833 C2842 0.929 . S
C2834 H2828 0.930 . S
C2834 C2835 1.367 . S
C2834 C2842 1.378 . S
C2835 C2834 1.367 . S
C2835 C2843 1.433 . S
C2836 H2832 0.929 . S
C2836 C2838 1.378 . S
C2836 C2840 1.350 . S
C2837 C2840 1.463 . S
C2837 C2842 1.350 . S
C2837 N2845 1.427 . S
C2838 H2829 0.930 . S
C2838 C2836 1.378 . S
C2838 C2839 1.367 . S
C2839 C2838 1.367 . S
C2839 C2841 1.433 . S
C2840 C2836 1.350 . S
C2840 C2837 1.463 . S
C2840 N2844 1.427 . S
C2841 H2831 0.929 . S
C2841 C2839 1.433 . S
C2841 N2844 1.384 . S
C2842 H2833 0.929 . S
C2842 C2834 1.378 . S
C2842 C2837 1.350 . S
C2843 H2830 0.929 . S
C2843 C2835 1.433 . S
C2843 N2845 1.384 . S
N2844 C2840 1.427 . S
N2844 C2841 1.384 . S
N2845 C2837 1.427 . S
N2845 C2843 1.384 . S
H2846 C2852 0.930 . S
H2847 C2856 0.930 . S
H2848 C2861 0.929 . S
H2849 C2859 0.929 . S
H2850 C2854 0.929 . S
H2851 C2860 0.929 . S
C2852 H2846 0.930 . S
C2852 C2853 1.367 1_655 S
C2852 C2860 1.378 . S
C2853 C2852 1.367 1_455 S
C2853 C2861 1.433 1_565 S
C2854 H2850 0.929 . S
C2854 C2856 1.378 . S
C2854 C2858 1.350 1_455 S
C2855 C2858 1.463 1_465 S
C2855 C2860 1.350 1_455 S
C2855 N2863 1.427 1_565 S
C2856 H2847 0.930 . S
C2856 C2854 1.378 . S
C2856 C2857 1.367 1_455 S
C2857 C2856 1.367 1_655 S
C2857 C2859 1.433 1_545 S
C2858 C2854 1.350 1_655 S
C2858 C2855 1.463 1_645 S
C2858 N2862 1.427 1_545 S
C2859 H2849 0.929 . S
C2859 C2857 1.433 1_565 S
C2859 N2862 1.384 . S
C2860 H2851 0.929 . S
C2860 C2852 1.378 . S
C2860 C2855 1.350 1_655 S
C2861 H2848 0.929 . S
C2861 C2853 1.433 1_545 S
C2861 N2863 1.384 . S
N2862 C2858 1.427 1_565 S
N2862 C2859 1.384 . S
N2863 C2855 1.427 1_545 S
N2863 C2861 1.384 . S
H2864 C2870 0.930 . S
H2865 C2874 0.930 . S
H2866 C2879 0.929 . S
H2867 C2877 0.929 . S
H2868 C2872 0.929 . S
H2869 C2878 0.929 . S
C2870 H2864 0.930 . S
C2870 C2871 1.367 . S
C2870 C2878 1.378 . S
C2871 C2870 1.367 . S
C2871 C2879 1.433 . S
C2872 H2868 0.929 . S
C2872 C2874 1.378 . S
C2872 C2876 1.350 . S
C2873 C2876 1.463 . S
C2873 C2878 1.350 . S
C2873 N2881 1.427 . S
C2874 H2865 0.930 . S
C2874 C2872 1.378 . S
C2874 C2875 1.367 . S
C2875 C2874 1.367 . S
C2875 C2877 1.433 . S
C2876 C2872 1.350 . S
C2876 C2873 1.463 . S
C2876 N2880 1.427 . S
C2877 H2867 0.929 . S
C2877 C2875 1.433 . S
C2877 N2880 1.384 . S
C2878 H2869 0.929 . S
C2878 C2870 1.378 . S
C2878 C2873 1.350 . S
C2879 H2866 0.929 . S
C2879 C2871 1.433 . S
C2879 N2881 1.384 . S
N2880 C2876 1.427 . S
N2880 C2877 1.384 . S
N2881 C2873 1.427 . S
N2881 C2879 1.384 . S
H2882 C2888 0.930 . S
H2883 C2892 0.930 . S
H2884 C2897 0.929 . S
H2885 C2895 0.929 . S
H2886 C2890 0.929 . S
H2887 C2896 0.929 . S
C2888 H2882 0.930 . S
C2888 C2889 1.367 1_565 S
C2888 C2896 1.378 . S
C2889 C2888 1.367 1_545 S
C2889 C2897 1.433 . S
C2890 H2886 0.929 . S
C2890 C2892 1.378 . S
C2890 C2894 1.345 1_545 S
C2891 C2894 1.462 1_545 S
C2891 C2896 1.345 1_545 S
C2891 N2899 1.433 . S
C2892 H2883 0.930 . S
C2892 C2890 1.378 . S
C2892 C2893 1.367 1_545 S
C2893 C2892 1.367 1_565 S
C2893 C2895 1.433 . S
C2894 C2890 1.345 1_565 S
C2894 C2891 1.462 1_565 S
C2894 N2898 1.433 . S
C2895 H2885 0.929 . S
C2895 C2893 1.433 . S
C2895 N2898 1.384 . S
C2896 H2887 0.929 . S
C2896 C2888 1.378 . S
C2896 C2891 1.345 1_565 S
C2897 H2884 0.929 . S
C2897 C2889 1.433 . S
C2897 N2899 1.384 . S
N2898 C2894 1.433 . S
N2898 C2895 1.384 . S
N2899 C2891 1.433 . S
N2899 C2897 1.384 . S
H2900 C2906 0.930 . S
H2901 C2910 0.930 . S
H2902 C2915 0.929 . S
H2903 C2913 0.929 . S
H2904 C2908 0.929 . S
H2905 C2914 0.929 . S
C2906 H2900 0.930 . S
C2906 C2907 1.367 . S
C2906 C2914 1.378 . S
C2907 C2906 1.367 . S
C2907 C2915 1.433 . S
C2908 H2904 0.929 . S
C2908 C2910 1.378 . S
C2908 C2912 1.350 . S
C2909 C2912 1.463 . S
C2909 C2914 1.350 . S
C2909 N2917 1.427 . S
C2910 H2901 0.930 . S
C2910 C2908 1.378 . S
C2910 C2911 1.367 . S
C2911 C2910 1.367 . S
C2911 C2913 1.433 . S
C2912 C2908 1.350 . S
C2912 C2909 1.463 . S
C2912 N2916 1.427 . S
C2913 H2903 0.929 . S
C2913 C2911 1.433 . S
C2913 N2916 1.384 . S
C2914 H2905 0.929 . S
C2914 C2906 1.378 . S
C2914 C2909 1.350 . S
C2915 H2902 0.929 . S
C2915 C2907 1.433 . S
C2915 N2917 1.384 . S
N2916 C2912 1.427 . S
N2916 C2913 1.384 . S
N2917 C2909 1.427 . S
N2917 C2915 1.384 . S
H2918 C2924 0.930 . S
H2919 C2928 0.930 . S
H2920 C2933 0.929 . S
H2921 C2931 0.929 . S
H2922 C2926 0.929 . S
H2923 C2932 0.929 . S
C2924 H2918 0.930 . S
C2924 C2925 1.367 1_545 S
C2924 C2932 1.378 . S
C2925 C2924 1.367 1_565 S
C2925 C2933 1.433 . S
C2926 H2922 0.929 . S
C2926 C2928 1.378 . S
C2926 C2930 1.353 1_565 S
C2927 C2930 1.463 1_565 S
C2927 C2932 1.353 1_565 S
C2927 N2935 1.424 . S
C2928 H2919 0.930 . S
C2928 C2926 1.378 . S
C2928 C2929 1.367 1_565 S
C2929 C2928 1.367 1_545 S
C2929 C2931 1.433 . S
C2930 C2926 1.353 1_545 S
C2930 C2927 1.463 1_545 S
C2930 N2934 1.424 . S
C2931 H2921 0.929 . S
C2931 C2929 1.433 . S
C2931 N2934 1.384 . S
C2932 H2923 0.929 . S
C2932 C2924 1.378 . S
C2932 C2927 1.353 1_545 S
C2933 H2920 0.929 . S
C2933 C2925 1.433 . S
C2933 N2935 1.384 . S
N2934 C2930 1.424 . S
N2934 C2931 1.384 . S
N2935 C2927 1.424 . S
N2935 C2933 1.384 . S
H2936 C2942 0.930 . S
H2937 C2946 0.930 . S
H2938 C2951 0.929 . S
H2939 C2949 0.929 . S
H2940 C2944 0.929 . S
H2941 C2950 0.929 . S
C2942 H2936 0.930 . S
C2942 C2943 1.367 . S
C2942 C2950 1.378 . S
C2943 C2942 1.367 . S
C2943 C2951 1.433 . S
C2944 H2940 0.929 . S
C2944 C2946 1.378 . S
C2944 C2948 1.350 . S
C2945 C2948 1.463 . S
C2945 C2950 1.350 . S
C2945 N2953 1.427 . S
C2946 H2937 0.930 . S
C2946 C2944 1.378 . S
C2946 C2947 1.367 . S
C2947 C2946 1.367 . S
C2947 C2949 1.433 . S
C2948 C2944 1.350 . S
C2948 C2945 1.463 . S
C2948 N2952 1.427 . S
C2949 H2939 0.929 . S
C2949 C2947 1.433 . S
C2949 N2952 1.384 . S
C2950 H2941 0.929 . S
C2950 C2942 1.378 . S
C2950 C2945 1.350 . S
C2951 H2938 0.929 . S
C2951 C2943 1.433 . S
C2951 N2953 1.384 . S
N2952 C2948 1.427 . S
N2952 C2949 1.384 . S
N2953 C2945 1.427 . S
N2953 C2951 1.384 . S
H2954 C2960 0.930 . S
H2955 C2964 0.930 . S
H2956 C2969 0.929 . S
H2957 C2967 0.929 . S
H2958 C2962 0.929 . S
H2959 C2968 0.929 . S
C2960 H2954 0.930 . S
C2960 C2961 1.367 . S
C2960 C2968 1.378 . S
C2961 C2960 1.367 . S
C2961 C2969 1.433 . S
C2962 H2958 0.929 . S
C2962 C2964 1.378 . S
C2962 C2966 1.350 . S
C2963 C2966 1.463 . S
C2963 C2968 1.350 . S
C2963 N2971 1.427 . S
C2964 H2955 0.930 . S
C2964 C2962 1.378 . S
C2964 C2965 1.367 . S
C2965 C2964 1.367 . S
C2965 C2967 1.433 . S
C2966 C2962 1.350 . S
C2966 C2963 1.463 . S
C2966 N2970 1.427 . S
C2967 H2957 0.929 . S
C2967 C2965 1.433 . S
C2967 N2970 1.384 . S
C2968 H2959 0.929 . S
C2968 C2960 1.378 . S
C2968 C2963 1.350 . S
C2969 H2956 0.929 . S
C2969 C2961 1.433 . S
C2969 N2971 1.384 . S
N2970 C2966 1.427 . S
N2970 C2967 1.384 . S
N2971 C2963 1.427 . S
N2971 C2969 1.384 . S
H2972 C2978 0.930 . S
H2973 C2982 0.930 . S
H2974 C2987 0.929 . S
H2975 C2985 0.929 . S
H2976 C2980 0.929 . S
H2977 C2986 0.929 . S
C2978 H2972 0.930 . S
C2978 C2979 1.367 . S
C2978 C2986 1.378 . S
C2979 C2978 1.367 . S
C2979 C2987 1.433 . S
C2980 H2976 0.929 . S
C2980 C2982 1.378 . S
C2980 C2984 1.350 . S
C2981 C2984 1.463 . S
C2981 C2986 1.350 . S
C2981 N2989 1.427 . S
C2982 H2973 0.930 . S
C2982 C2980 1.378 . S
C2982 C2983 1.367 . S
C2983 C2982 1.367 . S
C2983 C2985 1.433 . S
C2984 C2980 1.350 . S
C2984 C2981 1.463 . S
C2984 N2988 1.427 . S
C2985 H2975 0.929 . S
C2985 C2983 1.433 . S
C2985 N2988 1.384 . S
C2986 H2977 0.929 . S
C2986 C2978 1.378 . S
C2986 C2981 1.350 . S
C2987 H2974 0.929 . S
C2987 C2979 1.433 . S
C2987 N2989 1.384 . S
N2988 C2984 1.427 . S
N2988 C2985 1.384 . S
N2989 C2981 1.427 . S
N2989 C2987 1.384 . S
H2990 C2996 0.930 . S
H2991 C3000 0.930 . S
H2992 C3005 0.929 . S
H2993 C3003 0.929 . S
H2994 C2998 0.929 . S
H2995 C3004 0.929 . S
C2996 H2990 0.930 . S
C2996 C2997 1.367 . S
C2996 C3004 1.378 . S
C2997 C2996 1.367 . S
C2997 C3005 1.433 1_565 S
C2998 H2994 0.929 . S
C2998 C3000 1.378 . S
C2998 C3002 1.350 . S
C2999 C3002 1.463 1_564 S
C2999 C3004 1.350 . S
C2999 N3007 1.427 1_565 S
C3000 H2991 0.930 . S
C3000 C2998 1.378 . S
C3000 C3001 1.367 . S
C3001 C3000 1.367 . S
C3001 C3003 1.433 1_545 S
C3002 C2998 1.350 . S
C3002 C2999 1.463 1_546 S
C3002 N3006 1.427 1_545 S
C3003 H2993 0.929 . S
C3003 C3001 1.433 1_565 S
C3003 N3006 1.384 . S
C3004 H2995 0.929 . S
C3004 C2996 1.378 . S
C3004 C2999 1.350 . S
C3005 H2992 0.929 . S
C3005 C2997 1.433 1_545 S
C3005 N3007 1.384 . S
N3006 C3002 1.427 1_565 S
N3006 C3003 1.384 . S
N3007 C2999 1.427 1_545 S
N3007 C3005 1.384 . S
C1287 C2 1.667 . S
C1291 C1002 1.667 . S
C1305 C962 1.668 . S
C1309 C42 1.665 . S
C1323 C1082 1.668 . S
C1327 C82 1.665 . S
C1341 C122 1.666 . S
C1345 C1042 1.668 . S
C1359 C171 1.668 . S
C1363 C1171 1.666 . S
C1377 C211 1.668 . S
C1381 C1131 1.665 . S
C1395 C251 1.668 . S
C1399 C1251 1.665 . S
C1413 C1211 1.668 . S
C1417 C291 1.666 . S
C1431 C322 1.668 . S
C1435 C682 1.665 . S
C1449 C362 1.665 . S
C1453 C642 1.667 . S
C1467 C402 1.666 . S
C1471 C762 1.668 . S
C1485 C722 1.667 . S
C1489 C442 1.665 . S
C1503 C491 1.665 . S
C1507 C851 1.668 . S
C1521 C531 1.665 . S
C1525 C811 1.668 . S
C1539 C931 1.668 . S
C1543 C571 1.666 . S
C1557 C611 1.668 . S
C1561 C891 1.665 . S
C1575 C10 1.598 . S
C1579 C130 1.601 . S
C1593 C50 1.601 . S
C1597 C90 1.605 . S
C1611 C299 1.600 . S
C1615 C179 1.604 . S
C1629 C259 1.600 . S
C1633 C219 1.598 . S
C1647 C330 1.599 . S
C1651 C450 1.604 . S
C1665 C370 1.604 . S
C1669 C410 1.599 . S
C1683 C499 1.601 . S
C1687 C619 1.598 . S
C1701 C579 1.601 . S
C1705 C539 1.605 . S
C1719 C650 1.598 . S
C1723 C770 1.604 . S
C1737 C690 1.604 . S
C1741 C730 1.600 . S
C1755 C939 1.603 . S
C1759 C819 1.603 . S
C1773 C859 1.602 . S
C1777 C899 1.603 . S
C1791 C1090 1.598 . S
C1795 C970 1.603 . S
C1809 C1010 1.604 . S
C1813 C1050 1.599 . S
C1827 C1259 1.604 . S
C1831 C1139 1.601 . S
C1845 C1219 1.602 . S
C1849 C1179 1.598 . S
C1863 C51 1.485 . S
C1867 C11 1.489 . S
C1881 C91 1.481 . S
C1885 C131 1.482 . S
C1899 C202 1.481 . S
C1903 C162 1.482 . S
C1917 C282 1.486 . S
C1921 C242 1.490 . S
C1935 C331 1.480 . S
C1939 C371 1.481 . S
C1953 C411 1.484 . S
C1957 C451 1.488 . S
C1971 C522 1.489 . S
C1975 C482 1.492 . S
C1989 C562 1.490 . S
C1993 C602 1.493 . S
C2007 C651 1.490 . S
C2011 C691 1.486 . S
C2025 C771 1.491 . S
C2029 C731 1.487 . S
C2043 C802 1.489 . S
C2047 C842 1.492 . S
C2061 C882 1.492 . S
C2065 C922 1.494 . S
C2079 C971 1.481 . S
C2083 C1011 1.483 . S
C2097 C1051 1.491 . S
C2101 C1091 1.488 . S
C2115 C1162 1.483 . S
C2119 C1122 1.487 . S
C2133 C1202 1.488 . S
C2137 C1242 1.484 . S
C2151 C7 1.673 . S
C2155 C16 1.673 . S
C2169 C47 1.672 . S
C2173 C56 1.672 . S
C2187 C87 1.673 . S
C2191 C96 1.673 . S
C2205 C136 1.666 . S
C2209 C127 1.666 . S
C2223 C167 1.669 . S
C2227 C176 1.669 . S
C2241 C216 1.670 . S
C2245 C207 1.670 . S
C2259 C247 1.664 . S
C2263 C256 1.664 . S
C2277 C287 1.664 . S
C2281 C296 1.664 . S
C2295 C336 1.673 . S
C2299 C327 1.673 . S
C2313 C367 1.673 . S
C2317 C376 1.673 . S
C2331 C407 1.665 . S
C2335 C416 1.665 . S
C2349 C456 1.668 . S
C2353 C447 1.668 . S
C2367 C487 1.671 . S
C2371 C496 1.671 . S
C2385 C536 1.666 . S
C2389 C527 1.666 . S
C2403 C576 1.666 . S
C2407 C567 1.666 . S
C2421 C607 1.666 . S
C2425 C616 1.666 . S
C2439 C647 1.672 . S
C2443 C656 1.672 . S
C2457 C696 1.673 . S
C2461 C687 1.673 . S
C2475 C736 1.673 . S
C2479 C727 1.673 . S
C2493 C767 1.666 . S
C2497 C776 1.666 . S
C2511 C816 1.673 . S
C2515 C807 1.673 . S
C2529 C856 1.673 . S
C2533 C847 1.673 . S
C2547 C887 1.665 . S
C2551 C896 1.665 . S
C2565 C936 1.666 . S
C2569 C927 1.666 . S
C2583 C976 1.670 . S
C2587 C967 1.670 . S
C2601 C1007 1.672 . S
C2605 C1016 1.672 . S
C2619 C1056 1.672 . S
C2623 C1047 1.672 . S
C2637 C1096 1.672 . S
C2641 C1087 1.672 . S
C2655 C1136 1.668 . S
C2659 C1127 1.668 . S
C2673 C1176 1.668 . S
C2677 C1167 1.668 . S
C2691 C1207 1.667 . S
C2695 C1216 1.667 . S
C2709 C1247 1.664 . S
C2713 C1256 1.664 . S
C2727 C19 1.486 . S
C2731 C170 1.486 . S
C2745 C1170 1.491 . S
C2749 C59 1.491 . S
C2763 C570 1.488 . S
C2767 C99 1.488 . S
C2781 C139 1.483 . S
C2785 C930 1.483 . S
C2799 C210 1.493 . S
C2803 C1019 1.493 . S
C2817 C250 1.491 . S
C2821 C419 1.491 . S
C2835 C290 1.478 . S
C2839 C779 1.478 . S
C2853 C339 1.484 . S
C2857 C490 1.484 . S
C2871 C850 1.478 . S
C2875 C379 1.478 . S
C2889 C1250 1.492 . S
C2893 C459 1.492 . S
C2907 C530 1.477 . S
C2911 C699 1.477 . S
C2925 C1099 1.484 . S
C2929 C610 1.484 . S
C2943 C659 1.480 . S
C2947 C810 1.480 . S
C2961 C1210 1.489 . S
C2965 C739 1.489 . S
C2979 C890 1.482 . S
C2983 C1059 1.482 . S
C2997 C979 1.486 . S
C3001 C1130 1.486 . S
