# Generated by pormake.
# Topology lcy-e, (6)-cn, num edge types: 1
# Building blocks:
#     Node 0, Type 0, BuildingBlock: FUNLAD_clean_sbu_0, # of connection points: 6
#     Node 1, Type 0, BuildingBlock: FUNLAD_clean_sbu_0, # of connection points: 6
#     Node 2, Type 0, BuildingBlock: FUNLAD_clean_sbu_0, # of connection points: 6
#     Node 3, Type 0, BuildingBlock: FUNLAD_clean_sbu_0, # of connection points: 6
#     Node 4, Type 0, BuildingBlock: FUNLAD_clean_sbu_0, # of connection points: 6
#     Node 5, Type 0, BuildingBlock: FUNLAD_clean_sbu_0, # of connection points: 6
#     Node 6, Type 0, BuildingBlock: FUNLAD_clean_sbu_0, # of connection points: 6
#     Node 7, Type 0, BuildingBlock: FUNLAD_clean_sbu_0, # of connection points: 6
#     Node 8, Type 0, BuildingBlock: FUNLAD_clean_sbu_0, # of connection points: 6
#     Node 9, Type 0, BuildingBlock: FUNLAD_clean_sbu_0, # of connection points: 6
#     Node 10, Type 0, BuildingBlock: FUNLAD_clean_sbu_0, # of connection points: 6
#     Node 11, Type 0, BuildingBlock: FUNLAD_clean_sbu_0, # of connection points: 6
#     Edge 12, Type (0, 0), BuildingBlock: AJUNOK_clean_linker_0, # of connection points: 2
#     Edge 13, Type (0, 0), BuildingBlock: AJUNOK_clean_linker_0, # of connection points: 2
#     Edge 14, Type (0, 0), BuildingBlock: AJUNOK_clean_linker_0, # of connection points: 2
#     Edge 15, Type (0, 0), BuildingBlock: AJUNOK_clean_linker_0, # of connection points: 2
#     Edge 16, Type (0, 0), BuildingBlock: AJUNOK_clean_linker_0, # of connection points: 2
#     Edge 17, Type (0, 0), BuildingBlock: AJUNOK_clean_linker_0, # of connection points: 2
#     Edge 18, Type (0, 0), BuildingBlock: AJUNOK_clean_linker_0, # of connection points: 2
#     Edge 19, Type (0, 0), BuildingBlock: AJUNOK_clean_linker_0, # of connection points: 2
#     Edge 20, Type (0, 0), BuildingBlock: AJUNOK_clean_linker_0, # of connection points: 2
#     Edge 21, Type (0, 0), BuildingBlock: AJUNOK_clean_linker_0, # of connection points: 2
#     Edge 22, Type (0, 0), BuildingBlock: AJUNOK_clean_linker_0, # of connection points: 2
#     Edge 23, Type (0, 0), BuildingBlock: AJUNOK_clean_linker_0, # of connection points: 2
#     Edge 24, Type (0, 0), BuildingBlock: AJUNOK_clean_linker_0, # of connection points: 2
#     Edge 25, Type (0, 0), BuildingBlock: AJUNOK_clean_linker_0, # of connection points: 2
#     Edge 26, Type (0, 0), BuildingBlock: AJUNOK_clean_linker_0, # of connection points: 2
#     Edge 27, Type (0, 0), BuildingBlock: AJUNOK_clean_linker_0, # of connection points: 2
#     Edge 28, Type (0, 0), BuildingBlock: AJUNOK_clean_linker_0, # of connection points: 2
#     Edge 29, Type (0, 0), BuildingBlock: AJUNOK_clean_linker_0, # of connection points: 2
#     Edge 30, Type (0, 0), BuildingBlock: AJUNOK_clean_linker_0, # of connection points: 2
#     Edge 31, Type (0, 0), BuildingBlock: AJUNOK_clean_linker_0, # of connection points: 2
#     Edge 32, Type (0, 0), BuildingBlock: AJUNOK_clean_linker_0, # of connection points: 2
#     Edge 33, Type (0, 0), BuildingBlock: AJUNOK_clean_linker_0, # of connection points: 2
#     Edge 34, Type (0, 0), BuildingBlock: AJUNOK_clean_linker_0, # of connection points: 2
#     Edge 35, Type (0, 0), BuildingBlock: AJUNOK_clean_linker_0, # of connection points: 2
#     Edge 36, Type (0, 0), BuildingBlock: AJUNOK_clean_linker_0, # of connection points: 2
#     Edge 37, Type (0, 0), BuildingBlock: AJUNOK_clean_linker_0, # of connection points: 2
#     Edge 38, Type (0, 0), BuildingBlock: AJUNOK_clean_linker_0, # of connection points: 2
#     Edge 39, Type (0, 0), BuildingBlock: AJUNOK_clean_linker_0, # of connection points: 2
#     Edge 40, Type (0, 0), BuildingBlock: AJUNOK_clean_linker_0, # of connection points: 2
#     Edge 41, Type (0, 0), BuildingBlock: AJUNOK_clean_linker_0, # of connection points: 2
#     Edge 42, Type (0, 0), BuildingBlock: AJUNOK_clean_linker_0, # of connection points: 2
#     Edge 43, Type (0, 0), BuildingBlock: AJUNOK_clean_linker_0, # of connection points: 2
#     Edge 44, Type (0, 0), BuildingBlock: AJUNOK_clean_linker_0, # of connection points: 2
#     Edge 45, Type (0, 0), BuildingBlock: AJUNOK_clean_linker_0, # of connection points: 2
#     Edge 46, Type (0, 0), BuildingBlock: AJUNOK_clean_linker_0, # of connection points: 2
#     Edge 47, Type (0, 0), BuildingBlock: AJUNOK_clean_linker_0, # of connection points: 2
# Relax obj value: 0.685
# Max RMSD: 0.378
# Mean RMSD: 0.292
data_MOF--net-lcy-e--node1-FUNLAD_clean_sbu_0--edge1-AJUNOK_clean_linker_0
_symmetry_space_group_name_H-M    P1
_symmetry_Int_Tables_number       1
_symmetry_cell_setting            triclinic
loop_
_symmetry_equiv_pos_as_xyz
'x, y, z'
_cell_length_a     31.517828
_cell_length_b     28.771871
_cell_length_c     27.950276
_cell_angle_alpha  92.592765
_cell_angle_beta   86.714662
_cell_angle_gamma 97.233631
loop_
_atom_site_label
_atom_site_type_symbol
_atom_site_fract_x
_atom_site_fract_y
_atom_site_fract_z
_atom_type_partial_charge
C0 C 0.12816 0.1882 0.55641 0.0
N1 N 0.06259 0.19897 0.42898 0.0
C2 C 0.06298 0.15326 0.41484 0.0
C3 C 0.03245 0.13189 0.384 0.0
C4 C 1.00169 0.15806 0.3677 0.0
C5 C 1.00183 0.20485 0.38323 0.0
C6 C 0.03266 0.22468 0.41412 0.0
Zn7 Zn 0.10962 0.23562 0.46601 0.0
C8 C 0.07513 0.29852 0.54094 0.0
N9 N 0.20766 0.32345 0.53579 0.0
C10 C 0.24542 0.31823 0.5552 0.0
C11 C 0.19644 0.36696 0.52997 0.0
C12 C 0.22312 0.40683 0.54223 0.0
C13 C 0.26146 0.40326 0.56359 0.0
C14 C 0.2729 0.35819 0.57013 0.0
Zn15 Zn 0.16297 0.27471 0.50442 0.0
O16 O 0.10473 0.18562 0.52045 0.0
C17 C 0.1975 0.20569 0.4401 0.0
O18 O 0.15706 0.22345 0.56144 0.0
H19 H 0.16674 0.37147 0.5145 0.0
H20 H 0.08736 0.13377 0.42674 0.0
H21 H 0.25426 0.2835 0.55895 0.0
O22 O 0.15843 0.1987 0.42881 0.0
O23 O 0.20922 0.23848 0.47024 0.0
H24 H 0.03342 0.26127 0.42502 0.0
O25 O 0.16927 0.32239 0.44339 0.0
O26 O 0.11469 0.28505 0.40889 0.0
O27 O 0.11516 0.30894 0.54359 0.0
O28 O 0.06152 0.26952 0.50805 0.0
C29 C 0.14514 0.31819 0.40818 0.0
H30 H 0.03273 0.0953 0.37315 0.0
H31 H 0.97875 0.22603 0.37111 0.0
H32 H 0.21322 0.44058 0.53551 0.0
H33 H 0.30211 0.35387 0.58706 0.0
C34 C 0.09138 0.98051 0.80986 0.0
N35 N 0.15485 0.90191 0.70518 0.0
C36 C 0.1734 0.88953 0.74486 0.0
C37 C 0.20675 0.86166 0.74049 0.0
C38 C 0.22057 0.84535 0.69498 0.0
C39 C 0.2025 0.86023 0.65448 0.0
C40 C 0.16977 0.8891 0.66039 0.0
Zn41 Zn 0.09637 0.92785 0.71581 0.0
C42 C 0.03555 0.85959 0.77647 0.0
N43 N 0.97277 0.97122 0.74446 0.0
C44 C 0.95557 0.99052 0.70767 0.0
C45 C 0.94768 0.95416 0.78251 0.0
C46 C 0.90324 0.95198 0.7823 0.0
C47 C 0.88432 0.96971 0.74369 0.0
C48 C 0.91137 0.99088 0.70699 0.0
Zn49 Zn 0.03324 0.95233 0.73402 0.0
O50 O 0.11619 0.96432 0.7777 0.0
C51 C 0.09197 0.02347 0.67646 0.0
O52 O 0.05186 0.98 0.80253 0.0
H53 H 0.96176 0.93867 0.81135 0.0
H54 H 0.16067 0.89865 0.78029 0.0
H55 H 0.97573 1.00259 0.67707 0.0
O56 O 0.11685 0.99138 0.67468 0.0
O57 O 0.05651 0.01676 0.70097 0.0
H58 H 0.15473 0.89892 0.62919 0.0
O59 O 0.0156 0.92348 0.66671 0.0
O60 O 0.07492 0.89209 0.65182 0.0
O61 O 0.01077 0.88867 0.76634 0.0
O62 O 0.07435 0.86601 0.76012 0.0
C63 C 0.03842 0.89943 0.63906 0.0
H64 H 0.21978 0.85055 0.77254 0.0
H65 H 0.21258 0.84832 0.61879 0.0
H66 H 0.88413 0.93389 0.81075 0.0
H67 H 0.89847 1.00561 0.67679 0.0
C68 C 0.36676 0.80141 0.94559 0.0
N69 N 0.25284 0.86398 0.96756 0.0
C70 C 0.25618 0.87648 0.92108 0.0
C71 C 0.22492 0.90015 0.90327 0.0
C72 C 0.19039 0.91145 0.93381 0.0
C73 C 0.18541 0.89382 0.97993 0.0
C74 C 0.21736 0.86993 0.99625 0.0
Zn75 Zn 0.30671 0.85408 1.00002 0.0
C76 C 0.29723 0.76528 0.05496 0.0
N77 N 0.41586 0.84795 0.07864 0.0
C78 C 0.45154 0.87845 0.06805 0.0
C79 C 0.41265 0.82284 0.11899 0.0
C80 C 0.44521 0.829 0.15096 0.0
C81 C 0.48024 0.86382 0.14344 0.0
C82 C 0.48337 0.88817 0.10079 0.0
Zn83 Zn 0.36193 0.84957 0.04194 0.0
O84 O 0.32807 0.80975 0.94421 0.0
C85 C 0.37586 0.92929 0.97727 0.0
O86 O 0.38842 0.81546 0.98158 0.0
H87 H 0.38434 0.79892 0.12755 0.0
H88 H 0.28469 0.87149 0.89899 0.0
H89 H 0.45512 0.89698 0.03512 0.0
O90 O 0.34072 0.91062 0.96135 0.0
O91 O 0.38826 0.91449 0.01535 0.0
H92 H 0.21554 0.85972 0.03315 0.0
O93 O 0.33729 0.88452 0.10262 0.0
O94 O 0.28948 0.90472 0.05688 0.0
O95 O 0.33482 0.78306 0.06476 0.0
O96 O 0.27378 0.79073 0.03439 0.0
C97 C 0.30843 0.90999 0.09608 0.0
H98 H 0.22878 0.91155 0.86668 0.0
H99 H 0.15864 0.90101 1.004 0.0
H100 H 0.44254 0.80645 0.18117 0.0
H101 H 0.50994 0.91477 0.09264 0.0
C102 C 0.3354 0.11562 0.35622 0.0
N103 N 0.38329 0.20979 0.25017 0.0
C104 C 0.34095 0.2092 0.24231 0.0
C105 C 0.32661 0.24508 0.21794 0.0
C106 C 0.35603 0.28171 0.19989 0.0
C107 C 0.39955 0.28185 0.209 0.0
C108 C 0.41252 0.24553 0.23439 0.0
Zn109 Zn 0.40126 0.15015 0.27861 0.0
C110 C 0.45869 0.16406 0.36372 0.0
N111 N 0.4298 0.02094 0.32926 0.0
C112 C 0.43523 0.99086 0.29092 0.0
C113 C 0.45413 0.021 0.36802 0.0
C114 C 0.49031 0.99713 0.36501 0.0
C115 C 0.5006 0.97271 0.32206 0.0
C116 C 0.47099 0.96714 0.28624 0.0
Zn117 Zn 0.41015 0.08291 0.31014 0.0
O118 O 0.34708 0.14489 0.32412 0.0
C119 C 0.35419 0.063 0.22878 0.0
O120 O 0.35821 0.08321 0.36358 0.0
H121 H 0.44935 0.04459 0.39852 0.0
H122 H 0.31806 0.18028 0.25409 0.0
H123 H 0.41658 0.99091 0.25982 0.0
O124 O 0.36458 0.10675 0.22223 0.0
O125 O 0.36754 0.04584 0.26495 0.0
H126 H 0.44609 0.24535 0.24037 0.0
O127 O 0.4619 0.08466 0.25449 0.0
O128 O 0.455 0.15523 0.23306 0.0
O129 O 0.45198 0.12003 0.35715 0.0
O130 O 0.43981 0.18967 0.33725 0.0
C131 C 0.47479 0.11962 0.22881 0.0
H132 H 0.29258 0.24413 0.21367 0.0
H133 H 0.42348 0.30942 0.19607 0.0
H134 H 0.51238 1.00244 0.3936 0.0
H135 H 0.47787 0.94928 0.25235 0.0
C136 C 0.6642 0.31162 0.4964 0.0
N137 N 0.58207 0.34845 0.61336 0.0
C138 C 0.59706 0.39454 0.60853 0.0
C139 C 0.57358 0.42943 0.62879 0.0
C140 C 0.53493 0.41684 0.65565 0.0
C141 C 0.51991 0.36895 0.65885 0.0
C142 C 0.54371 0.33538 0.63692 0.0
Zn143 Zn 0.61809 0.29586 0.59055 0.0
C144 C 0.57001 0.22408 0.52466 0.0
N145 N 0.6936 0.18449 0.54718 0.0
C146 C 0.73116 0.19266 0.52052 0.0
C147 C 0.67956 0.14078 0.56281 0.0
C148 C 0.70319 0.10347 0.55154 0.0
C149 C 0.74069 0.11019 0.52166 0.0
C150 C 0.75496 0.15585 0.50682 0.0
Zn151 Zn 0.65802 0.23893 0.56667 0.0
O152 O 0.63877 0.32891 0.52724 0.0
C153 C 0.70933 0.31511 0.6229 0.0
O154 O 0.67894 0.27369 0.50371 0.0
H155 H 0.64978 0.13444 0.58394 0.0
H156 H 0.62751 0.40429 0.58949 0.0
H157 H 0.74253 0.22767 0.50918 0.0
O158 O 0.67369 0.33208 0.62557 0.0
O159 O 0.71116 0.27529 0.60162 0.0
H160 H 0.5319 0.29864 0.63989 0.0
O161 O 0.63648 0.20532 0.63174 0.0
O162 O 0.5978 0.26112 0.65514 0.0
O163 O 0.60432 0.20535 0.52811 0.0
O164 O 0.56478 0.26063 0.55088 0.0
C165 C 0.61183 0.22301 0.66303 0.0
H166 H 0.5857 0.46579 0.62335 0.0
H167 H 0.49039 0.3573 0.67893 0.0
H168 H 0.69163 0.06948 0.56557 0.0
H169 H 0.78358 0.16292 0.48368 0.0
C170 C 0.86266 0.39817 0.71473 0.0
N171 N 0.88436 0.30589 0.81664 0.0
C172 C 0.84122 0.30175 0.82574 0.0
C173 C 0.81784 0.25768 0.8308 0.0
C174 C 0.83907 0.21766 0.82661 0.0
C175 C 0.8837 0.22268 0.81937 0.0
C176 C 0.90595 0.26761 0.81429 0.0
Zn177 Zn 0.91405 0.36937 0.79546 0.0
C178 C 0.97666 0.35995 0.71065 0.0
N179 N 0.96987 0.50154 0.74619 0.0
C180 C 0.9759 0.53297 0.78401 0.0
C181 C 0.99855 0.50297 0.70779 0.0
C182 C 0.03894 0.52869 0.71161 0.0
C183 C 0.04836 0.55439 0.75432 0.0
C184 C 0.01541 0.55994 0.78882 0.0
Zn185 Zn 0.93845 0.43703 0.7646 0.0
O186 O 0.86479 0.3705 0.74822 0.0
C187 C 0.87668 0.45147 0.84422 0.0
O188 O 0.89228 0.43239 0.70856 0.0
H189 H 0.99303 0.47878 0.67742 0.0
H190 H 0.82464 0.33251 0.82686 0.0
H191 H 0.95338 0.53186 0.81461 0.0
O192 O 0.87917 0.40844 0.85185 0.0
O193 O 0.89626 0.46967 0.80782 0.0
H194 H 0.94021 0.27173 0.80654 0.0
O195 O 0.98324 0.43955 0.82401 0.0
O196 O 0.96259 0.36746 0.84422 0.0
O197 O 0.98051 0.40386 0.71839 0.0
O198 O 0.95009 0.33423 0.73737 0.0
C199 C 0.98653 0.40578 0.85121 0.0
H200 H 0.78334 0.25471 0.83674 0.0
H201 H 0.90086 0.19226 0.8163 0.0
H202 H 0.06395 0.52394 0.68423 0.0
H203 H 0.02189 0.57941 0.82226 0.0
C204 C 0.87769 0.62313 0.95195 0.0
N205 N 0.96999 0.66923 0.0566 0.0
C206 C 0.96675 0.62492 0.07271 0.0
C207 C 0.99774 0.61201 0.10202 0.0
C208 C 0.03179 0.64538 0.11664 0.0
C209 C 0.03468 0.69043 0.09831 0.0
C210 C 1.00392 0.70135 0.06784 0.0
Zn211 Zn 0.92071 0.69326 0.02147 0.0
C212 C 0.95107 0.74576 0.93067 0.0
N213 N 0.81981 0.7536 0.95765 0.0
C214 C 0.77791 0.73477 0.95819 0.0
C215 C 0.83144 0.79942 0.94725 0.0
C216 C 0.80062 0.82879 0.93997 0.0
C217 C 0.75707 0.8112 0.94323 0.0
C218 C 0.7458 0.76314 0.95113 0.0
Zn219 Zn 0.86722 0.72132 0.98665 0.0
O220 O 0.90861 0.63082 0.97985 0.0
C221 C 0.8326 0.66923 0.0719 0.0
O222 O 0.85507 0.65604 0.94518 0.0
H223 H 0.86468 0.81427 0.94749 0.0
H224 H 0.93974 0.59969 0.06349 0.0
H225 H 0.76915 0.69841 0.96658 0.0
O226 O 0.87177 0.66293 0.07577 0.0
O227 O 0.82358 0.69377 0.03836 0.0
H228 H 0.00657 0.73631 0.05444 0.0
O229 O 0.87942 0.7835 0.03168 0.0
O230 O 0.93048 0.75407 0.06458 0.0
O231 O 0.91114 0.74837 0.93321 0.0
O232 O 0.96681 0.72492 0.96386 0.0
C233 C 0.90763 0.78686 0.06271 0.0
H234 H 0.99491 0.57608 0.11283 0.0
H235 H 0.0601 0.71754 0.10799 0.0
H236 H 0.81076 0.86539 0.93312 0.0
H237 H 0.71252 0.74812 0.95399 0.0
C238 C 0.61184 0.64802 0.38968 0.0
N239 N 0.67229 0.53593 0.33234 0.0
C240 C 0.69018 0.53329 0.37503 0.0
C241 C 0.69917 0.49041 0.38995 0.0
C242 C 0.68925 0.45 0.36079 0.0
C243 C 0.67198 0.4538 0.31626 0.0
C244 C 0.66393 0.49764 0.30246 0.0
Zn245 Zn 0.65875 0.59836 0.31311 0.0
C246 C 0.5694 0.59312 0.27425 0.0
N247 N 0.63114 0.7274 0.26954 0.0
C248 C 0.63349 0.76468 0.30147 0.0
C249 C 0.61925 0.7307 0.22408 0.0
C250 C 0.60734 0.77227 0.20966 0.0
C251 C 0.60664 0.81034 0.24274 0.0
C252 C 0.62057 0.80675 0.28888 0.0
Zn253 Zn 0.64252 0.66467 0.28911 0.0
O254 O 0.62803 0.61008 0.38121 0.0
C255 C 0.72517 0.67515 0.3348 0.0
O256 O 0.61326 0.67702 0.35669 0.0
H257 H 0.61707 0.70042 0.1996 0.0
H258 H 0.69629 0.56424 0.3982 0.0
H259 H 0.6436 0.7612 0.33732 0.0
O260 O 0.71805 0.63134 0.34048 0.0
O261 O 0.69919 0.69549 0.31312 0.0
H262 H 0.64997 0.50099 0.26852 0.0
O263 O 0.6737 0.65318 0.22172 0.0
O264 O 0.693 0.58793 0.24531 0.0
O265 O 0.58293 0.63561 0.26678 0.0
O266 O 0.59529 0.56669 0.28891 0.0
C267 C 0.69502 0.61884 0.214 0.0
H268 H 0.71114 0.48845 0.42528 0.0
H269 H 0.66323 0.42301 0.29349 0.0
H270 H 0.59555 0.77339 0.17411 0.0
H271 H 0.61961 0.83518 0.31529 0.0
C272 C 0.16339 0.564 0.1979 0.0
N273 N 0.15329 0.45381 0.09178 0.0
C274 C 0.11001 0.44759 0.10107 0.0
C275 C 0.0819 0.43732 0.06338 0.0
C276 C 0.09828 0.43417 0.01546 0.0
C277 C 0.14293 0.4398 1.00725 0.0
C278 C 0.16976 0.44924 0.0458 0.0
Zn279 Zn 0.19813 0.48271 0.14197 0.0
C280 C 0.24924 0.56998 0.10124 0.0
N281 N 0.29957 0.54894 0.23098 0.0
C282 C 0.30689 0.54922 0.27874 0.0
C283 C 0.33374 0.55485 0.19832 0.0
C284 C 0.37575 0.56019 0.21204 0.0
C285 C 0.38446 0.55914 0.26019 0.0
C286 C 0.34942 0.55492 0.29427 0.0
Zn287 Zn 0.243 0.52204 0.1952 0.0
O288 O 0.15668 0.52908 0.16866 0.0
C289 C 0.19046 0.44097 0.24317 0.0
O290 O 0.1993 0.57257 0.21818 0.0
H291 H 0.3295 0.55101 0.16041 0.0
H292 H 0.0971 0.45244 0.1374 0.0
H293 H 0.28019 0.5424 0.30459 0.0
O294 O 0.1752 0.43401 0.20124 0.0
O295 O 0.21896 0.47591 0.25022 0.0
H296 H 0.20404 0.45504 0.03852 0.0
O297 O 0.28199 0.47105 0.17033 0.0
O298 O 0.24164 0.4337 0.11677 0.0
O299 O 0.26393 0.56885 0.14202 0.0
O300 O 0.22143 0.53651 0.08792 0.0
C301 C 0.27548 0.43731 0.14003 0.0
H302 H 0.04767 0.43373 0.07149 0.0
H303 H 0.15709 0.4375 0.97112 0.0
H304 H 0.40151 0.56353 0.18452 0.0
H305 H 0.35481 0.55389 0.33209 0.0
C306 C 0.53581 0.99571 0.8831 0.0
N307 N 0.61637 0.08223 0.96775 0.0
C308 C 0.58317 0.10825 0.97413 0.0
C309 C 0.56812 0.12072 0.02015 0.0
C310 C 0.58707 0.10584 0.06002 0.0
C311 C 0.6228 0.08141 0.05266 0.0
C312 C 0.63737 0.07034 1.00582 0.0
Zn313 Zn 0.6242 0.04927 0.90193 0.0
C314 C 0.64781 0.95264 0.90843 0.0
N315 N 0.62534 0.97594 0.7662 0.0
C316 C 0.64825 1.00448 0.73384 0.0
C317 C 0.63187 0.93017 0.76758 0.0
C318 C 0.67065 0.91657 0.74875 0.0
C319 C 0.70014 0.94977 0.72535 0.0
C320 C 0.68661 0.99193 0.71288 0.0
Zn321 Zn 0.61704 0.00926 0.83251 0.0
O322 O 0.55992 0.02367 0.90886 0.0
C323 C 0.59634 0.10375 0.82105 0.0
O324 O 0.55166 0.97792 0.84448 0.0
H325 H 0.61193 0.9072 0.79156 0.0
H326 H 0.56611 0.11631 0.9437 0.0
H327 H 0.64228 0.0405 0.73194 0.0
O328 O 0.60887 0.10999 0.86381 0.0
O329 O 0.59462 0.06339 0.80094 0.0
H330 H 0.66367 0.04963 1.00013 0.0
O331 O 0.68303 0.04486 0.82292 0.0
O332 O 0.68706 0.07542 0.89608 0.0
O333 O 0.6399 0.9535 0.86471 0.0
O334 O 0.64215 0.98824 0.93566 0.0
C335 C 0.70444 0.06923 0.85477 0.0
H336 H 0.54 0.13893 0.02452 0.0
H337 H 0.6381 0.0694 0.08274 0.0
H338 H 0.67994 0.88337 0.75841 0.0
H339 H 0.70848 0.01808 0.69432 0.0
C340 C 0.88842 0.01891 0.29708 0.0
N341 N 0.93945 0.91884 0.3723 0.0
C342 C 0.95699 0.95531 0.40035 0.0
C343 C 0.98266 0.94717 0.43728 0.0
C344 C 0.98994 0.90118 0.44525 0.0
C345 C 0.97577 0.86509 0.41252 0.0
C346 C 0.95064 0.8749 0.37551 0.0
Zn347 Zn 0.88385 0.92716 0.34139 0.0
C348 C 0.82364 0.97171 0.41044 0.0
N349 N 0.76568 0.94647 0.28425 0.0
C350 C 0.7403 0.90944 0.26486 0.0
C351 C 0.7498 0.98714 0.29824 0.0
C352 C 0.70615 0.99009 0.2973 0.0
C353 C 0.67892 0.95105 0.28142 0.0
C354 C 0.69634 0.91112 0.26296 0.0
Zn355 Zn 0.82361 0.93779 0.3088 0.0
O356 O 0.90983 0.99108 0.31641 0.0
C357 C 0.88094 0.89536 0.23783 0.0
O358 O 0.84895 1.00708 0.29049 0.0
H359 H 0.7703 0.01597 0.31417 0.0
H360 H 0.9473 0.9898 0.39768 0.0
H361 H 0.75353 0.87741 0.25417 0.0
O362 O 0.90363 0.89494 0.27422 0.0
O363 O 0.8456 0.91244 0.24252 0.0
H364 H 0.93632 0.84641 0.35284 0.0
O365 O 0.79974 0.86861 0.32842 0.0
O366 O 0.85783 0.86169 0.36583 0.0
O367 O 0.80147 0.9628 0.37425 0.0
O368 O 0.86197 0.96189 0.40821 0.0
C369 C 0.82104 0.84485 0.35331 0.0
H370 H 0.99283 0.97561 0.46245 0.0
H371 H 0.98056 0.82916 0.41821 0.0
H372 H 0.69343 0.02139 0.31175 0.0
H373 H 0.67606 0.88083 0.24966 0.0
C374 C 0.43489 0.56332 0.72724 0.0
N375 N 0.45361 0.67667 0.64057 0.0
C376 C 0.49566 0.67883 0.65019 0.0
C377 C 0.52706 0.68315 0.61285 0.0
C378 C 0.51468 0.6855 0.56571 0.0
C379 C 0.47156 0.68787 0.55758 0.0
C380 C 0.44129 0.68308 0.59577 0.0
Zn381 Zn 0.4077 0.64942 0.68845 0.0
C382 C 0.3477 0.57506 0.64469 0.0
N383 N 0.31311 0.58901 0.78663 0.0
C384 C 0.29347 0.61995 0.81573 0.0
C385 C 0.29214 0.54657 0.77352 0.0
C386 C 0.24785 0.53811 0.78106 0.0
C387 C 0.22554 0.57308 0.80378 0.0
C388 C 0.24925 0.61231 0.8253 0.0
Zn389 Zn 0.36161 0.61633 0.74094 0.0
O390 O 0.44852 0.60084 0.70621 0.0
C391 C 0.41848 0.68838 0.78793 0.0
O392 O 0.3969 0.55807 0.74601 0.0
H393 H 0.30848 0.52223 0.75086 0.0
H394 H 0.5046 0.67354 0.68615 0.0
H395 H 0.31082 0.65342 0.82609 0.0
O396 O 0.42993 0.69799 0.74464 0.0
O397 O 0.39306 0.65171 0.79668 0.0
H398 H 0.40765 0.68055 0.58891 0.0
O399 O 0.32617 0.67439 0.73275 0.0
O400 O 0.36666 0.69859 0.67021 0.0
O401 O 0.33023 0.58118 0.6858 0.0
O402 O 0.38351 0.5986 0.63372 0.0
C403 C 0.33434 0.70236 0.69864 0.0
H404 H 0.56023 0.68178 0.62028 0.0
H405 H 0.46093 0.68944 0.52156 0.0
H406 H 0.23113 0.50688 0.7644 0.0
H407 H 0.23354 0.63897 0.84533 0.0
C408 C 0.26298 0.48144 0.60515 0.0
C409 C 0.28604 0.44739 0.58173 0.0
C410 C 0.2833 0.52468 0.62071 0.0
C411 C 0.32788 0.53568 0.61496 0.0
H412 H 0.22869 0.47439 0.61241 0.0
H413 H 0.26399 0.54891 0.63977 0.0
S414 S 0.40369 0.45929 0.55669 0.0
N415 N 0.35616 0.42814 0.5524 0.0
N416 N 0.39503 0.50938 0.58459 0.0
C417 C 0.35171 0.50254 0.59125 0.0
C418 C 0.33069 0.45823 0.57444 0.0
C419 C 0.77459 0.94596 0.68999 0.0
C420 C 0.74639 0.9491 0.73026 0.0
C421 C 0.81907 0.95209 0.69479 0.0
C422 C 0.83687 0.96325 0.73982 0.0
H423 H 0.7622 0.93914 0.65465 0.0
H424 H 0.83958 0.94807 0.66283 0.0
S425 S 0.7753 0.97836 0.85577 0.0
N426 N 0.73846 0.9641 0.81627 0.0
N427 N 0.82169 0.97937 0.82504 0.0
C428 C 0.80852 0.96708 0.78023 0.0
C429 C 0.76341 0.95921 0.77546 0.0
C430 C 0.24159 0.69235 0.05923 0.0
C431 C 0.28445 0.71353 0.0613 0.0
C432 C 0.23023 0.64374 0.06638 0.0
C433 C 0.26132 0.61437 0.07539 0.0
H434 H 0.21645 0.7137 0.05383 0.0
H435 H 0.19665 0.62977 0.06801 0.0
S436 S 0.37849 0.64989 0.07635 0.0
N437 N 0.35854 0.69884 0.06708 0.0
N438 N 0.33692 0.609 0.08053 0.0
C439 C 0.30432 0.63445 0.07397 0.0
C440 C 0.31592 0.68348 0.06705 0.0
C441 C 0.566 0.97623 0.26693 0.0
C442 C 0.54478 0.96153 0.31054 0.0
C443 C 0.60916 0.97106 0.25672 0.0
C444 C 0.63244 0.95079 0.28961 0.0
H445 H 0.54965 0.99355 0.24119 0.0
H446 H 0.62472 0.98411 0.22354 0.0
S447 S 0.5918 0.90359 0.40693 0.0
N448 N 0.55004 0.92333 0.38537 0.0
N449 N 0.63172 0.91457 0.36646 0.0
C450 C 0.61165 0.93486 0.33265 0.0
C451 C 0.56766 0.94002 0.34308 0.0
C452 C 0.80788 0.07362 0.49651 0.0
C453 C 0.76276 0.06958 0.50254 0.0
C454 C 0.82867 0.03884 0.471 0.0
C455 C 0.80497 0.99883 0.4508 0.0
H456 H 0.82721 0.10492 0.50958 0.0
H457 H 0.863 0.04519 0.46378 0.0
S458 S 0.68709 0.96815 0.46093 0.0
N459 N 0.69572 0.01994 0.48879 0.0
N460 N 0.73485 0.9543 0.44322 0.0
C461 C 0.76037 0.99244 0.46021 0.0
C462 C 0.73921 0.02787 0.48539 0.0
C463 C 0.11053 0.5233 0.78501 0.0
C464 C 0.09273 0.56187 0.76923 0.0
C465 C 0.15259 0.52801 0.79947 0.0
C466 C 0.17875 0.57136 0.79782 0.0
H467 H 0.09179 0.48904 0.78574 0.0
H468 H 0.16507 0.49709 0.81076 0.0
S469 S 0.14506 0.68388 0.76226 0.0
N470 N 0.10212 0.64522 0.75623 0.0
N471 N 0.1824 0.65441 0.78069 0.0
C472 C 0.16048 0.61074 0.78358 0.0
C473 C 0.11718 0.60587 0.76977 0.0
C474 C 0.70032 0.92087 0.95849 0.0
C475 C 0.66895 0.91302 0.92427 0.0
C476 C 0.72759 0.88698 0.96568 0.0
C477 C 0.72426 0.84378 0.93931 0.0
H478 H 0.70561 0.95445 0.97776 0.0
H479 H 0.75238 0.89525 0.9911 0.0
S480 S 0.64445 0.8042 0.84903 0.0
N481 N 0.63374 0.85718 0.86675 0.0
N482 N 0.68511 0.79399 0.88005 0.0
C483 C 0.69137 0.83445 0.90714 0.0
C484 C 0.66375 0.86895 0.89966 0.0
C485 C 0.5026 0.54006 0.25109 0.0
C486 C 0.5221 0.57946 0.27654 0.0
C487 C 0.45761 0.53191 0.24868 0.0
C488 C 0.43043 0.56227 0.27242 0.0
H489 H 0.52219 0.51686 0.23096 0.0
H490 H 0.44397 0.50261 0.22643 0.0
S491 S 0.46577 0.66712 0.34857 0.0
N492 N 0.5107 0.6468 0.32939 0.0
N493 N 0.42674 0.63106 0.32512 0.0
C494 C 0.44958 0.5999 0.30047 0.0
C495 C 0.4952 0.6086 0.30238 0.0
C496 C 0.48241 0.22194 0.43254 0.0
C497 C 0.48854 0.18232 0.40258 0.0
C498 C 0.50765 0.23436 0.47282 0.0
C499 C 0.54016 0.20775 0.48502 0.0
H500 H 0.45734 0.24285 0.42555 0.0
H501 H 0.50183 0.26541 0.4943 0.0
S502 S 0.57052 0.10195 0.41657 0.0
N503 N 0.53112 0.1178 0.38715 0.0
N504 N 0.57717 0.14029 0.46202 0.0
C505 C 0.54668 0.16839 0.45484 0.0
C506 C 0.52137 0.15601 0.41403 0.0
C507 C 0.06063 0.35571 0.60791 0.0
C508 C 0.04651 0.3148 0.58092 0.0
C509 C 0.03834 0.36887 0.65019 0.0
C510 C 1.00113 0.34141 0.6682 0.0
H511 H 0.08963 0.37767 0.59656 0.0
H512 H 0.05065 0.40103 0.6691 0.0
S513 S 0.95025 0.23087 0.61131 0.0
N514 N 0.99248 0.24674 0.57524 0.0
N515 N 0.95067 0.27149 0.65507 0.0
C516 C 0.98643 0.30035 0.64167 0.0
C517 C 0.00896 0.28717 0.59795 0.0
C518 C 0.97431 0.80703 0.8124 0.0
C519 C 0.01851 0.82225 0.81075 0.0
C520 C 0.95411 0.78052 0.84994 0.0
C521 C 0.97673 0.76785 0.88856 0.0
H522 H 0.95454 0.81738 0.78524 0.0
H523 H 0.91974 0.77133 0.84925 0.0
S524 S 0.09429 0.79434 0.8992 0.0
N525 N 0.08539 0.81927 0.84917 0.0
N526 N 0.0472 0.76933 0.92024 0.0
C527 C 0.02157 0.78022 0.88606 0.0
C528 C 0.04244 0.80737 0.84716 0.0
C529 C 0.59158 0.86756 0.18557 0.0
C530 C 0.5827 0.84828 0.23076 0.0
C531 C 0.55827 0.87786 0.15869 0.0
C532 C 0.51547 0.87048 0.17712 0.0
H533 H 0.62313 0.8674 0.168 0.0
H534 H 0.56601 0.88587 0.12153 0.0
S535 S 0.47966 0.84037 0.30206 0.0
N536 N 0.53136 0.83555 0.29838 0.0
N537 N 0.46868 0.85797 0.24926 0.0
C538 C 0.50802 0.86102 0.22614 0.0
C539 C 0.54193 0.84968 0.25301 0.0
C540 C 0.1869 0.38788 0.36746 0.0
C541 C 0.15413 0.34977 0.36598 0.0
C542 C 0.19774 0.4167 0.32798 0.0
C543 C 0.17667 0.40911 0.28441 0.0
H544 H 0.20476 0.39553 0.39945 0.0
H545 H 0.22344 0.44517 0.3318 0.0
S546 S 0.08797 0.31433 0.26122 0.0
N547 N 0.10015 0.30637 0.31672 0.0
N548 N 0.12069 0.36024 0.24286 0.0
C549 C 0.14357 0.3713 0.28239 0.0
C550 C 0.13231 0.3419 0.32289 0.0
C551 C 0.05635 0.88823 0.55134 0.0
C552 C 0.02521 0.88776 0.58969 0.0
C553 C 0.04482 0.88985 0.50366 0.0
C554 C 1.00186 0.89023 0.49322 0.0
H555 H 0.09004 0.8909 0.55834 0.0
H556 H 0.06969 0.89327 0.47519 0.0
S557 S 0.9079 0.88338 0.57965 0.0
N558 N 0.94932 0.88324 0.61322 0.0
N559 N 0.92789 0.88578 0.52377 0.0
C560 C 0.97029 0.88625 0.53075 0.0
C561 C 0.98191 0.88501 0.57903 0.0
C562 C 0.39673 0.76279 0.81892 0.0
C563 C 0.42003 0.72529 0.82563 0.0
C564 C 0.37961 0.78743 0.8581 0.0
C565 C 0.38711 0.77686 0.90512 0.0
H566 H 0.38792 0.76992 0.78339 0.0
H567 H 0.35931 0.81394 0.85158 0.0
S568 S 0.4499 0.68507 0.94163 0.0
N569 N 0.45146 0.68007 0.88243 0.0
N570 N 0.42232 0.72923 0.95645 0.0
C571 C 0.41341 0.74211 0.91229 0.0
C572 C 0.42933 0.71572 0.87237 0.0
C573 C 0.52258 0.07443 0.17487 0.0
C574 C 0.50976 0.11778 0.19122 0.0
C575 C 0.55031 0.07122 0.13406 0.0
C576 C 0.566 0.11123 0.10825 0.0
H577 H 0.50928 0.04242 0.19202 0.0
H578 H 0.5574 0.03687 0.12096 0.0
S579 S 0.54786 0.2337 0.14026 0.0
N580 N 0.51941 0.20233 0.18159 0.0
N581 N 0.5709 0.19579 0.10467 0.0
C582 C 0.55586 0.15502 0.12604 0.0
C583 C 0.52792 0.15843 0.16761 0.0
C584 C 0.62801 0.20953 0.74716 0.0
C585 C 0.60097 0.19981 0.70868 0.0
C586 C 0.62304 0.18147 0.78753 0.0
C587 C 0.5911 0.14271 0.79015 0.0
H588 H 0.65471 0.23714 0.74471 0.0
H589 H 0.64667 0.18753 0.81451 0.0
S590 S 0.50929 0.10652 0.70094 0.0
N591 N 0.53902 0.15216 0.6775 0.0
N592 N 0.52945 0.0993 0.75299 0.0
C593 C 0.56193 0.13519 0.7534 0.0
C594 C 0.56703 0.16368 0.71257 0.0
C595 C 0.07492 0.45668 0.93513 0.0
C596 C 0.06943 0.42632 0.97394 0.0
C597 C 0.04826 0.44995 0.89577 0.0
C598 C 0.01553 0.41183 0.89271 0.0
H599 H 0.0997 0.48641 0.93551 0.0
H600 H 0.05346 0.47485 0.86748 0.0
S601 S 0.98844 0.3215 0.98449 0.0
N602 N 0.0288 0.3566 1.00649 0.0
N603 N 0.97955 0.34316 0.9328 0.0
C604 C 0.01009 0.38096 0.93119 0.0
C605 C 0.03671 0.38839 0.97159 0.0
C606 C 0.86696 0.87532 0.15183 0.0
C607 C 0.89353 0.87414 0.19058 0.0
C608 C 0.87402 0.85022 0.10869 0.0
C609 C 0.90793 0.82281 0.10246 0.0
H610 H 0.83918 0.89411 0.15539 0.0
H611 H 0.85109 0.85011 0.08123 0.0
S612 S 0.99142 0.81457 0.1894 0.0
N613 N 0.95844 0.84823 0.21748 0.0
N614 N 0.97202 0.80124 0.13621 0.0
C615 C 0.93698 0.82459 0.13929 0.0
C616 C 0.92968 0.85012 0.1834 0.0
C617 C 0.54799 0.70955 0.48631 0.0
C618 C 0.5448 0.67891 0.52433 0.0
C619 C 0.57077 0.69977 0.44344 0.0
C620 C 0.59081 0.65866 0.43683 0.0
H621 H 0.53175 0.74067 0.48929 0.0
H622 H 0.57159 0.72412 0.41485 0.0
S623 S 0.59275 0.56775 0.52659 0.0
N624 N 0.56417 0.60652 0.55361 0.0
N625 N 0.60734 0.58805 0.47303 0.0
C626 C 0.58898 0.62845 0.4753 0.0
C627 C 0.56591 0.63862 0.51908 0.0
C628 C 0.26591 0.17176 0.44723 0.0
C629 C 0.22906 0.17438 0.42149 0.0
C630 C 0.29867 0.14625 0.42881 0.0
C631 C 0.29571 0.12253 0.38403 0.0
H632 H 0.27039 0.19114 0.48108 0.0
H633 H 0.32798 0.14854 0.44773 0.0
S634 S 0.20469 0.11409 0.30448 0.0
N635 N 0.19011 0.14718 0.35088 0.0
N636 N 0.25225 0.10008 0.31587 0.0
C637 C 0.2579 0.12205 0.35954 0.0
C638 C 0.22439 0.14774 0.37836 0.0
C639 C 0.15331 0.1266 0.60717 0.0
C640 C 0.12006 0.14986 0.59154 0.0
C641 C 0.14442 0.0858 0.63454 0.0
C642 C 0.10199 0.06731 0.64826 0.0
H643 H 0.18627 0.13887 0.59659 0.0
H644 H 0.17094 0.06858 0.64487 0.0
S645 S 1.00372 0.11653 0.61753 0.0
N646 N 0.04334 0.15176 0.5925 0.0
N647 N 0.02666 0.07699 0.64424 0.0
C648 C 0.06877 0.09135 0.63375 0.0
C649 C 0.07778 0.13201 0.60539 0.0
C650 C 0.08967 0.94794 0.88894 0.0
C651 C 0.10691 0.98388 0.85833 0.0
C652 C 0.11631 0.92705 0.91783 0.0
C653 C 0.1605 0.94216 0.91705 0.0
H654 H 0.05725 0.93102 0.88503 0.0
H655 H 0.10312 0.89602 0.9367 0.0
S656 S 0.2171 0.04585 0.85642 0.0
N657 N 0.16763 0.04141 0.83857 0.0
N658 N 0.21762 1.00316 0.89388 0.0
C659 C 0.17611 0.98345 0.89347 0.0
C660 C 0.14907 1.00448 0.86416 0.0
C661 C 0.31343 0.9847 0.21013 0.0
C662 C 0.3309 0.02933 0.19399 0.0
C663 C 0.30196 0.94685 0.17806 0.0
C664 C 0.30612 0.95214 0.12835 0.0
H665 H 0.31144 0.97784 0.24805 0.0
H666 H 0.29237 0.91246 0.19226 0.0
S667 S 0.34556 0.06215 0.06684 0.0
N668 N 0.34847 0.0771 0.12447 0.0
N669 N 0.32562 1.00621 0.06415 0.0
C670 C 0.31984 0.99737 0.11156 0.0
C671 C 0.33236 0.03596 0.14436 0.0
C672 C 0.82643 0.34529 0.65328 0.0
C673 C 0.82676 0.38627 0.68263 0.0
C674 C 0.78865 0.32353 0.63348 0.0
C675 C 0.74913 0.34139 0.6426 0.0
H676 H 0.85529 0.32843 0.64762 0.0
H677 H 0.79038 0.29149 0.61195 0.0
S678 S 0.73316 0.44898 0.71666 0.0
N679 N 0.78474 0.44461 0.71939 0.0
N680 N 0.71356 0.40433 0.68191 0.0
C681 C 0.74938 0.38351 0.67062 0.0
C682 C 0.78813 0.40568 0.69077 0.0
C683 C 0.88338 0.49335 0.92283 0.0
C684 C 0.86128 0.4851 0.88051 0.0
C685 C 0.88686 0.53761 0.94666 0.0
C686 C 0.86815 0.57527 0.92929 0.0
H687 H 0.90189 0.46717 0.93476 0.0
H688 H 0.9063 0.54288 0.97764 0.0
S689 S 0.80077 0.56872 0.82411 0.0
N690 N 0.81607 0.51598 0.82539 0.0
N691 N 0.82176 0.59882 0.8706 0.0
C692 C 0.84235 0.5659 0.88976 0.0
C693 C 0.83904 0.52087 0.8654 0.0
C694 C 0.80433 0.62833 0.14805 0.0
C695 C 0.79669 0.64937 0.10534 0.0
C696 C 0.77046 0.61434 0.18166 0.0
C697 C 0.72787 0.62108 0.17378 0.0
H698 H 0.83676 0.62442 0.15655 0.0
H699 H 0.77808 0.60103 0.21537 0.0
S700 S 0.68942 0.66838 0.06549 0.0
N701 N 0.7417 0.67101 0.05527 0.0
N702 N 0.67938 0.6459 0.11879 0.0
C703 C 0.71952 0.63934 0.13026 0.0
C704 C 0.75354 0.65314 0.09598 0.0
C705 C 0.64152 0.34348 0.42357 0.0
C706 C 0.67497 0.33552 0.45188 0.0
C707 C 0.64815 0.37704 0.38863 0.0
C708 C 0.68819 0.40415 0.38205 0.0
H709 H 0.60937 0.32616 0.43094 0.0
H710 H 0.6207 0.38521 0.37045 0.0
S711 S 0.78741 0.39059 0.44212 0.0
N712 N 0.75052 0.35184 0.46706 0.0
N713 N 0.76306 0.41625 0.40163 0.0
C714 C 0.72289 0.393 0.40681 0.0
C715 C 0.71621 0.35825 0.44193 0.0
C716 C 0.33858 0.40534 0.17014 0.0
C717 C 0.30225 0.3983 0.14211 0.0
C718 C 0.35721 0.3676 0.18634 0.0
C719 C 0.3408 0.32097 0.17478 0.0
H720 H 0.35101 0.44032 0.18274 0.0
H721 H 0.38293 0.37519 0.21068 0.0
S722 S 0.25287 0.28347 0.09301 0.0
N723 N 0.2549 0.34114 0.09736 0.0
N724 N 0.29107 0.27017 0.1261 0.0
C725 C 0.30747 0.31351 0.14254 0.0
C726 C 0.2881 0.35211 0.12642 0.0
C727 C 0.80517 0.1512 0.87447 0.0
C728 C 0.81366 0.17122 0.82964 0.0
C729 C 0.77219 0.11432 0.88111 0.0
C730 C 0.74646 0.09651 0.84317 0.0
H731 H 0.82203 0.16634 0.90528 0.0
H732 H 0.76483 0.10197 0.91705 0.0
S733 S 0.76073 0.13295 0.7171 0.0
N734 N 0.79776 0.16763 0.74554 0.0
N735 N 0.73562 0.09803 0.75779 0.0
C736 C 0.75752 0.11336 0.79711 0.0
C737 C 0.79107 0.15109 0.79046 0.0
C738 C 0.14137 0.63422 0.16459 0.0
C739 C 0.13212 0.59799 0.19706 0.0
C740 C 0.10872 0.65095 0.14043 0.0
C741 C 0.06521 0.6329 0.14866 0.0
H742 H 0.17437 0.64591 0.15366 0.0
H743 H 0.11823 0.67565 0.11256 0.0
S744 S 0.0239 0.54603 0.23988 0.0
N745 N 0.07649 0.54961 0.24168 0.0
N746 N 0.01476 0.5835 0.19975 0.0
C747 C 0.05543 0.60087 0.1857 0.0
C748 C 0.08888 0.58307 0.20922 0.0
C749 C 0.82133 0.76031 0.33438 0.0
C750 C 0.80497 0.79624 0.3627 0.0
C751 C 0.79843 0.71532 0.33162 0.0
C752 C 0.75919 0.70556 0.35769 0.0
H753 H 0.84941 0.76825 0.31054 0.0
H754 H 0.80859 0.69023 0.30462 0.0
S755 S 0.70768 0.78567 0.44364 0.0
N756 N 0.75102 0.81789 0.42193 0.0
N757 N 0.70874 0.73279 0.41831 0.0
C758 C 0.74601 0.73953 0.39109 0.0
C759 C 0.76855 0.78544 0.39287 0.0
C760 C 0.46458 0.44676 0.67918 0.0
C761 C 0.50973 0.453 0.67947 0.0
C762 C 0.44014 0.48109 0.69898 0.0
C763 C 0.45986 0.52337 0.71917 0.0
H764 H 0.44791 0.41597 0.66171 0.0
H765 H 0.40578 0.47581 0.69546 0.0
S766 S 0.576 0.55568 0.73399 0.0
N767 N 0.57247 0.50323 0.7069 0.0
N768 N 0.52646 0.56881 0.74115 0.0
C769 C 0.50459 0.52958 0.72135 0.0
C770 C 0.52952 0.49422 0.7022 0.0
C771 C 0.32024 0.78588 0.70739 0.0
C772 C 0.30668 0.73919 0.69295 0.0
C773 C 0.29253 0.82049 0.707 0.0
C774 C 0.25089 0.80974 0.6907 0.0
H775 H 0.35199 0.79547 0.72027 0.0
H776 H 0.30351 0.85575 0.71999 0.0
S777 S 0.20153 0.69326 0.64586 0.0
N778 N 0.24977 0.6842 0.66061 0.0
N779 N 0.19823 0.74952 0.65782 0.0
C780 C 0.23768 0.76352 0.67438 0.0
C781 C 0.26548 0.72814 0.676 0.0
C782 C 0.43801 0.98987 0.96872 0.0
C783 C 0.40834 0.95673 0.94649 0.0
C784 C 0.47803 1.00377 0.94641 0.0
C785 C 0.49052 0.98453 0.90109 0.0
H786 H 0.43146 1.00255 1.00519 0.0
H787 H 0.50017 0.02797 0.96649 0.0
S788 S 0.42137 0.90234 0.82437 0.0
N789 N 0.39143 0.90955 0.87402 0.0
N790 N 0.46742 0.93541 0.83209 0.0
C791 C 0.45973 0.95443 0.87662 0.0
C792 C 0.41841 0.94071 0.89927 0.0
C793 C 0.95056 0.07436 0.27535 0.0
C794 C 0.90812 0.06732 0.2943 0.0
C795 C 0.98049 0.10785 0.2964 0.0
C796 C 0.96846 0.13534 0.33648 0.0
H797 H 0.962 0.04953 0.24886 0.0
H798 H 0.01388 0.10906 0.28429 0.0
S799 S 0.85865 0.13821 0.39072 0.0
N800 N 0.85349 0.09656 0.34807 0.0
N801 N 0.90979 0.15983 0.38808 0.0
C802 C 0.92478 0.1337 0.35058 0.0
C803 C 0.89433 0.0997 0.32887 0.0
loop_
_geom_bond_atom_site_label_1
_geom_bond_atom_site_label_2
_geom_bond_distance
_geom_bond_site_symmetry_2
_ccdc_geom_bond_type
C0 O16 1.251 . S
C0 O18 1.254 . S
N1 C2 1.333 . S
N1 C6 1.307 . S
N1 Zn7 2.020 . S
C2 N1 1.333 . S
C2 C3 1.379 . S
C2 H20 0.952 . S
C3 C2 1.379 . S
C3 C4 1.390 1_455 S
C3 H30 0.949 . S
C4 C3 1.390 1_655 S
C4 C5 1.357 . S
C5 C4 1.357 . S
C5 C6 1.370 1_655 S
C5 H31 0.950 . S
C6 N1 1.307 . S
C6 C5 1.370 1_455 S
C6 H24 0.948 . S
Zn7 N1 2.020 . S
Zn7 O16 2.039 . S
Zn7 O22 2.034 . S
Zn7 O26 2.025 . S
Zn7 O28 2.024 . S
C8 O27 1.246 . S
C8 O28 1.249 . S
N9 C10 1.307 . S
N9 C11 1.333 . S
N9 Zn15 2.020 . S
C10 N9 1.307 . S
C10 C14 1.370 . S
C10 H21 0.948 . S
C11 N9 1.333 . S
C11 C12 1.379 . S
C11 H19 0.952 . S
C12 C11 1.379 . S
C12 C13 1.390 . S
C12 H32 0.949 . S
C13 C12 1.390 . S
C13 C14 1.357 . S
C14 C10 1.370 . S
C14 C13 1.357 . S
C14 H33 0.950 . S
Zn15 N9 2.020 . S
Zn15 O18 2.025 . S
Zn15 O23 2.024 . S
Zn15 O25 2.039 . S
Zn15 O27 2.034 . S
O16 C0 1.251 . S
O16 Zn7 2.039 . S
C17 O22 1.246 . S
C17 O23 1.249 . S
O18 C0 1.254 . S
O18 Zn15 2.025 . S
H19 C11 0.952 . S
H20 C2 0.952 . S
H21 C10 0.948 . S
O22 Zn7 2.034 . S
O22 C17 1.246 . S
O23 Zn15 2.024 . S
O23 C17 1.249 . S
H24 C6 0.948 . S
O25 Zn15 2.039 . S
O25 C29 1.251 . S
O26 Zn7 2.025 . S
O26 C29 1.254 . S
O27 C8 1.246 . S
O27 Zn15 2.034 . S
O28 Zn7 2.024 . S
O28 C8 1.249 . S
C29 O25 1.251 . S
C29 O26 1.254 . S
H30 C3 0.949 . S
H31 C5 0.950 . S
H32 C12 0.949 . S
H33 C14 0.950 . S
C34 O50 1.251 . S
C34 O52 1.254 . S
N35 C36 1.333 . S
N35 C40 1.307 . S
N35 Zn41 2.020 . S
C36 N35 1.333 . S
C36 C37 1.379 . S
C36 H54 0.952 . S
C37 C36 1.379 . S
C37 C38 1.390 . S
C37 H64 0.949 . S
C38 C37 1.390 . S
C38 C39 1.357 . S
C39 C38 1.357 . S
C39 C40 1.370 . S
C39 H65 0.950 . S
C40 N35 1.307 . S
C40 C39 1.370 . S
C40 H58 0.948 . S
Zn41 N35 2.020 . S
Zn41 O50 2.039 . S
Zn41 O56 2.034 . S
Zn41 O60 2.025 . S
Zn41 O62 2.024 . S
C42 O61 1.246 . S
C42 O62 1.249 . S
N43 C44 1.307 1_565 S
N43 C45 1.333 1_455 S
N43 Zn49 2.020 . S
C44 N43 1.307 1_545 S
C44 C48 1.370 1_455 S
C44 H55 0.948 . S
C45 N43 1.333 1_655 S
C45 C46 1.379 . S
C45 H53 0.952 . S
C46 C45 1.379 . S
C46 C47 1.390 1_565 S
C46 H66 0.949 . S
C47 C46 1.390 1_545 S
C47 C48 1.357 . S
C48 C44 1.370 1_655 S
C48 C47 1.357 . S
C48 H67 0.950 1_655 S
Zn49 N43 2.020 . S
Zn49 O52 2.025 . S
Zn49 O57 2.024 . S
Zn49 O59 2.039 . S
Zn49 O61 2.034 . S
O50 C34 1.251 . S
O50 Zn41 2.039 . S
C51 O56 1.246 . S
C51 O57 1.249 . S
O52 C34 1.254 . S
O52 Zn49 2.025 . S
H53 C45 0.952 . S
H54 C36 0.952 . S
H55 C44 0.948 . S
O56 Zn41 2.034 . S
O56 C51 1.246 . S
O57 Zn49 2.024 . S
O57 C51 1.249 . S
H58 C40 0.948 . S
O59 Zn49 2.039 . S
O59 C63 1.251 . S
O60 Zn41 2.025 . S
O60 C63 1.254 . S
O61 C42 1.246 . S
O61 Zn49 2.034 . S
O62 Zn41 2.024 . S
O62 C42 1.249 . S
C63 O59 1.251 . S
C63 O60 1.254 . S
H64 C37 0.949 . S
H65 C39 0.950 . S
H66 C46 0.949 . S
H67 C48 0.950 1_455 S
C68 O84 1.251 . S
C68 O86 1.254 . S
N69 C70 1.333 . S
N69 C74 1.307 . S
N69 Zn75 2.020 . S
C70 N69 1.333 . S
C70 C71 1.379 . S
C70 H88 0.952 . S
C71 C70 1.379 . S
C71 C72 1.390 . S
C71 H98 0.949 . S
C72 C71 1.390 . S
C72 C73 1.357 . S
C73 C72 1.357 . S
C73 C74 1.370 . S
C73 H99 0.950 . S
C74 N69 1.307 . S
C74 C73 1.370 . S
C74 H92 0.948 . S
Zn75 N69 2.020 . S
Zn75 O84 2.039 . S
Zn75 O90 2.034 . S
Zn75 O94 2.025 . S
Zn75 O96 2.024 . S
C76 O95 1.246 1_556 S
C76 O96 1.249 . S
N77 C78 1.307 . S
N77 C79 1.333 . S
N77 Zn83 2.020 1_554 S
C78 N77 1.307 . S
C78 C82 1.370 . S
C78 H89 0.948 1_554 S
C79 N77 1.333 . S
C79 C80 1.379 . S
C79 H87 0.952 . S
C80 C79 1.379 . S
C80 C81 1.390 . S
C80 H100 0.949 . S
C81 C80 1.390 . S
C81 C82 1.357 . S
C82 C78 1.370 . S
C82 C81 1.357 . S
C82 H101 0.950 . S
Zn83 N77 2.020 1_556 S
Zn83 O86 2.025 . S
Zn83 O91 2.024 . S
Zn83 O93 2.039 1_556 S
Zn83 O95 2.034 1_556 S
O84 C68 1.251 . S
O84 Zn75 2.039 . S
C85 O90 1.246 . S
C85 O91 1.249 . S
O86 C68 1.254 . S
O86 Zn83 2.025 . S
H87 C79 0.952 . S
H88 C70 0.952 . S
H89 C78 0.948 1_556 S
O90 Zn75 2.034 . S
O90 C85 1.246 . S
O91 Zn83 2.024 . S
O91 C85 1.249 . S
H92 C74 0.948 . S
O93 Zn83 2.039 1_554 S
O93 C97 1.251 . S
O94 Zn75 2.025 . S
O94 C97 1.254 1_556 S
O95 C76 1.246 1_554 S
O95 Zn83 2.034 1_554 S
O96 Zn75 2.024 . S
O96 C76 1.249 . S
C97 O93 1.251 . S
C97 O94 1.254 1_554 S
H98 C71 0.949 . S
H99 C73 0.950 . S
H100 C80 0.949 . S
H101 C82 0.950 . S
C102 O118 1.251 . S
C102 O120 1.254 . S
N103 C104 1.333 . S
N103 C108 1.307 . S
N103 Zn109 2.020 . S
C104 N103 1.333 . S
C104 C105 1.379 . S
C104 H122 0.952 . S
C105 C104 1.379 . S
C105 C106 1.390 . S
C105 H132 0.949 . S
C106 C105 1.390 . S
C106 C107 1.357 . S
C107 C106 1.357 . S
C107 C108 1.370 . S
C107 H133 0.950 . S
C108 N103 1.307 . S
C108 C107 1.370 . S
C108 H126 0.948 . S
Zn109 N103 2.020 . S
Zn109 O118 2.039 . S
Zn109 O124 2.034 . S
Zn109 O128 2.025 . S
Zn109 O130 2.024 . S
C110 O129 1.246 . S
C110 O130 1.249 . S
N111 C112 1.307 . S
N111 C113 1.333 . S
N111 Zn117 2.020 . S
C112 N111 1.307 . S
C112 C116 1.370 1_545 S
C112 H123 0.948 . S
C113 N111 1.333 . S
C113 C114 1.379 . S
C113 H121 0.952 . S
C114 C113 1.379 . S
C114 C115 1.390 1_545 S
C114 H134 0.949 . S
C115 C114 1.390 1_565 S
C115 C116 1.357 . S
C116 C112 1.370 1_565 S
C116 C115 1.357 . S
C116 H135 0.950 . S
Zn117 N111 2.020 . S
Zn117 O120 2.025 . S
Zn117 O125 2.024 . S
Zn117 O127 2.039 . S
Zn117 O129 2.034 . S
O118 C102 1.251 . S
O118 Zn109 2.039 . S
C119 O124 1.246 . S
C119 O125 1.249 . S
O120 C102 1.254 . S
O120 Zn117 2.025 . S
H121 C113 0.952 . S
H122 C104 0.952 . S
H123 C112 0.948 . S
O124 Zn109 2.034 . S
O124 C119 1.246 . S
O125 Zn117 2.024 . S
O125 C119 1.249 . S
H126 C108 0.948 . S
O127 Zn117 2.039 . S
O127 C131 1.251 . S
O128 Zn109 2.025 . S
O128 C131 1.254 . S
O129 C110 1.246 . S
O129 Zn117 2.034 . S
O130 Zn109 2.024 . S
O130 C110 1.249 . S
C131 O127 1.251 . S
C131 O128 1.254 . S
H132 C105 0.949 . S
H133 C107 0.950 . S
H134 C114 0.949 . S
H135 C116 0.950 . S
C136 O152 1.251 . S
C136 O154 1.254 . S
N137 C138 1.333 . S
N137 C142 1.307 . S
N137 Zn143 2.020 . S
C138 N137 1.333 . S
C138 C139 1.379 . S
C138 H156 0.952 . S
C139 C138 1.379 . S
C139 C140 1.390 . S
C139 H166 0.949 . S
C140 C139 1.390 . S
C140 C141 1.357 . S
C141 C140 1.357 . S
C141 C142 1.370 . S
C141 H167 0.950 . S
C142 N137 1.307 . S
C142 C141 1.370 . S
C142 H160 0.948 . S
Zn143 N137 2.020 . S
Zn143 O152 2.039 . S
Zn143 O158 2.034 . S
Zn143 O162 2.025 . S
Zn143 O164 2.024 . S
C144 O163 1.246 . S
C144 O164 1.249 . S
N145 C146 1.307 . S
N145 C147 1.333 . S
N145 Zn151 2.020 . S
C146 N145 1.307 . S
C146 C150 1.370 . S
C146 H157 0.948 . S
C147 N145 1.333 . S
C147 C148 1.379 . S
C147 H155 0.952 . S
C148 C147 1.379 . S
C148 C149 1.390 . S
C148 H168 0.949 . S
C149 C148 1.390 . S
C149 C150 1.357 . S
C150 C146 1.370 . S
C150 C149 1.357 . S
C150 H169 0.950 . S
Zn151 N145 2.020 . S
Zn151 O154 2.025 . S
Zn151 O159 2.024 . S
Zn151 O161 2.039 . S
Zn151 O163 2.034 . S
O152 C136 1.251 . S
O152 Zn143 2.039 . S
C153 O158 1.246 . S
C153 O159 1.249 . S
O154 C136 1.254 . S
O154 Zn151 2.025 . S
H155 C147 0.952 . S
H156 C138 0.952 . S
H157 C146 0.948 . S
O158 Zn143 2.034 . S
O158 C153 1.246 . S
O159 Zn151 2.024 . S
O159 C153 1.249 . S
H160 C142 0.948 . S
O161 Zn151 2.039 . S
O161 C165 1.251 . S
O162 Zn143 2.025 . S
O162 C165 1.254 . S
O163 C144 1.246 . S
O163 Zn151 2.034 . S
O164 Zn143 2.024 . S
O164 C144 1.249 . S
C165 O161 1.251 . S
C165 O162 1.254 . S
H166 C139 0.949 . S
H167 C141 0.950 . S
H168 C148 0.949 . S
H169 C150 0.950 . S
C170 O186 1.251 . S
C170 O188 1.254 . S
N171 C172 1.333 . S
N171 C176 1.307 . S
N171 Zn177 2.020 . S
C172 N171 1.333 . S
C172 C173 1.379 . S
C172 H190 0.952 . S
C173 C172 1.379 . S
C173 C174 1.390 . S
C173 H200 0.949 . S
C174 C173 1.390 . S
C174 C175 1.357 . S
C175 C174 1.357 . S
C175 C176 1.370 . S
C175 H201 0.950 . S
C176 N171 1.307 . S
C176 C175 1.370 . S
C176 H194 0.948 . S
Zn177 N171 2.020 . S
Zn177 O186 2.039 . S
Zn177 O192 2.034 . S
Zn177 O196 2.025 . S
Zn177 O198 2.024 . S
C178 O197 1.246 . S
C178 O198 1.249 . S
N179 C180 1.307 . S
N179 C181 1.333 1_655 S
N179 Zn185 2.020 . S
C180 N179 1.307 . S
C180 C184 1.370 1_655 S
C180 H191 0.948 . S
C181 N179 1.333 1_455 S
C181 C182 1.379 . S
C181 H189 0.952 . S
C182 C181 1.379 . S
C182 C183 1.390 . S
C182 H202 0.949 . S
C183 C182 1.390 . S
C183 C184 1.357 . S
C184 C180 1.370 1_455 S
C184 C183 1.357 . S
C184 H203 0.949 1_455 S
Zn185 N179 2.020 . S
Zn185 O188 2.025 . S
Zn185 O193 2.024 . S
Zn185 O195 2.039 . S
Zn185 O197 2.034 . S
O186 C170 1.251 . S
O186 Zn177 2.039 . S
C187 O192 1.246 . S
C187 O193 1.249 . S
O188 C170 1.254 . S
O188 Zn185 2.025 . S
H189 C181 0.952 . S
H190 C172 0.952 . S
H191 C180 0.948 . S
O192 Zn177 2.034 . S
O192 C187 1.246 . S
O193 Zn185 2.024 . S
O193 C187 1.249 . S
H194 C176 0.948 . S
O195 Zn185 2.039 . S
O195 C199 1.251 . S
O196 Zn177 2.025 . S
O196 C199 1.254 . S
O197 C178 1.246 . S
O197 Zn185 2.034 . S
O198 Zn177 2.024 . S
O198 C178 1.249 . S
C199 O195 1.251 . S
C199 O196 1.254 . S
H200 C173 0.949 . S
H201 C175 0.950 . S
H202 C182 0.949 . S
H203 C184 0.949 1_655 S
C204 O220 1.236 1_556 S
C204 O222 1.254 . S
N205 C206 1.333 . S
N205 C210 1.307 . S
N205 Zn211 2.020 . S
C206 N205 1.333 . S
C206 C207 1.379 . S
C206 H224 0.952 . S
C207 C206 1.379 . S
C207 C208 1.390 1_655 S
C207 H234 0.949 . S
C208 C207 1.390 1_455 S
C208 C209 1.357 . S
C209 C208 1.357 . S
C209 C210 1.370 1_455 S
C209 H235 0.950 . S
C210 N205 1.307 . S
C210 C209 1.370 1_655 S
C210 H228 0.948 . S
Zn211 N205 2.020 . S
Zn211 O220 2.054 . S
Zn211 O226 2.034 . S
Zn211 O230 2.025 . S
Zn211 O232 2.024 . S
C212 O231 1.246 . S
C212 O232 1.249 1_556 S
N213 C214 1.307 . S
N213 C215 1.333 . S
N213 Zn219 2.020 1_556 S
C214 N213 1.307 . S
C214 C218 1.370 . S
C214 H225 0.948 . S
C215 N213 1.333 . S
C215 C216 1.379 . S
C215 H223 0.952 1_556 S
C216 C215 1.379 . S
C216 C217 1.390 . S
C216 H236 0.949 . S
C217 C216 1.390 . S
C217 C218 1.357 . S
C218 C214 1.370 . S
C218 C217 1.357 . S
C218 H237 0.950 . S
Zn219 N213 2.020 1_554 S
Zn219 O222 2.025 1_554 S
Zn219 O227 2.024 . S
Zn219 O229 2.039 . S
Zn219 O231 2.034 1_554 S
O220 C204 1.236 1_554 S
O220 Zn211 2.054 . S
C221 O226 1.246 . S
C221 O227 1.249 . S
O222 C204 1.254 . S
O222 Zn219 2.025 1_556 S
H223 C215 0.952 1_554 S
H224 C206 0.952 . S
H225 C214 0.948 . S
O226 Zn211 2.034 . S
O226 C221 1.246 . S
O227 Zn219 2.024 . S
O227 C221 1.249 . S
H228 C210 0.948 . S
O229 Zn219 2.039 . S
O229 C233 1.251 . S
O230 Zn211 2.025 . S
O230 C233 1.254 . S
O231 C212 1.246 . S
O231 Zn219 2.034 1_556 S
O232 Zn211 2.024 . S
O232 C212 1.249 1_554 S
C233 O229 1.251 . S
C233 O230 1.254 . S
H234 C207 0.949 . S
H235 C209 0.950 . S
H236 C216 0.949 . S
H237 C218 0.950 . S
C238 O254 1.251 . S
C238 O256 1.254 . S
N239 C240 1.333 . S
N239 C244 1.307 . S
N239 Zn245 2.020 . S
C240 N239 1.333 . S
C240 C241 1.379 . S
C240 H258 0.952 . S
C241 C240 1.379 . S
C241 C242 1.390 . S
C241 H268 0.949 . S
C242 C241 1.390 . S
C242 C243 1.357 . S
C243 C242 1.357 . S
C243 C244 1.370 . S
C243 H269 0.950 . S
C244 N239 1.307 . S
C244 C243 1.370 . S
C244 H262 0.948 . S
Zn245 N239 2.020 . S
Zn245 O254 2.039 . S
Zn245 O260 2.034 . S
Zn245 O264 2.025 . S
Zn245 O266 2.024 . S
C246 O265 1.246 . S
C246 O266 1.249 . S
N247 C248 1.307 . S
N247 C249 1.333 . S
N247 Zn253 2.020 . S
C248 N247 1.307 . S
C248 C252 1.370 . S
C248 H259 0.948 . S
C249 N247 1.333 . S
C249 C250 1.379 . S
C249 H257 0.952 . S
C250 C249 1.379 . S
C250 C251 1.390 . S
C250 H270 0.949 . S
C251 C250 1.390 . S
C251 C252 1.357 . S
C252 C248 1.370 . S
C252 C251 1.357 . S
C252 H271 0.950 . S
Zn253 N247 2.020 . S
Zn253 O256 2.025 . S
Zn253 O261 2.024 . S
Zn253 O263 2.039 . S
Zn253 O265 2.034 . S
O254 C238 1.251 . S
O254 Zn245 2.039 . S
C255 O260 1.246 . S
C255 O261 1.249 . S
O256 C238 1.254 . S
O256 Zn253 2.025 . S
H257 C249 0.952 . S
H258 C240 0.952 . S
H259 C248 0.948 . S
O260 Zn245 2.034 . S
O260 C255 1.246 . S
O261 Zn253 2.024 . S
O261 C255 1.249 . S
H262 C244 0.948 . S
O263 Zn253 2.039 . S
O263 C267 1.251 . S
O264 Zn245 2.025 . S
O264 C267 1.254 . S
O265 C246 1.246 . S
O265 Zn253 2.034 . S
O266 Zn245 2.024 . S
O266 C246 1.249 . S
C267 O263 1.251 . S
C267 O264 1.254 . S
H268 C241 0.949 . S
H269 C243 0.950 . S
H270 C250 0.949 . S
H271 C252 0.950 . S
C272 O288 1.251 . S
C272 O290 1.254 . S
N273 C274 1.333 . S
N273 C278 1.307 . S
N273 Zn279 2.020 . S
C274 N273 1.333 . S
C274 C275 1.379 . S
C274 H292 0.952 . S
C275 C274 1.379 . S
C275 C276 1.390 . S
C275 H302 0.949 . S
C276 C275 1.390 . S
C276 C277 1.357 . S
C277 C276 1.357 . S
C277 C278 1.370 . S
C277 H303 0.950 1_554 S
C278 N273 1.307 . S
C278 C277 1.370 . S
C278 H296 0.948 . S
Zn279 N273 2.020 . S
Zn279 O288 2.039 . S
Zn279 O294 2.034 . S
Zn279 O298 2.025 . S
Zn279 O300 2.024 . S
C280 O299 1.246 . S
C280 O300 1.249 . S
N281 C282 1.307 . S
N281 C283 1.333 . S
N281 Zn287 2.020 . S
C282 N281 1.307 . S
C282 C286 1.370 . S
C282 H293 0.948 . S
C283 N281 1.333 . S
C283 C284 1.379 . S
C283 H291 0.952 . S
C284 C283 1.379 . S
C284 C285 1.390 . S
C284 H304 0.949 . S
C285 C284 1.390 . S
C285 C286 1.357 . S
C286 C282 1.370 . S
C286 C285 1.357 . S
C286 H305 0.950 . S
Zn287 N281 2.020 . S
Zn287 O290 2.025 . S
Zn287 O295 2.024 . S
Zn287 O297 2.039 . S
Zn287 O299 2.034 . S
O288 C272 1.251 . S
O288 Zn279 2.039 . S
C289 O294 1.246 . S
C289 O295 1.249 . S
O290 C272 1.254 . S
O290 Zn287 2.025 . S
H291 C283 0.952 . S
H292 C274 0.952 . S
H293 C282 0.948 . S
O294 Zn279 2.034 . S
O294 C289 1.246 . S
O295 Zn287 2.024 . S
O295 C289 1.249 . S
H296 C278 0.948 . S
O297 Zn287 2.039 . S
O297 C301 1.251 . S
O298 Zn279 2.025 . S
O298 C301 1.254 . S
O299 C280 1.246 . S
O299 Zn287 2.034 . S
O300 Zn279 2.024 . S
O300 C280 1.249 . S
C301 O297 1.251 . S
C301 O298 1.254 . S
H302 C275 0.949 . S
H303 C277 0.950 1_556 S
H304 C284 0.949 . S
H305 C286 0.950 . S
C306 O322 1.251 1_565 S
C306 O324 1.254 . S
N307 C308 1.333 . S
N307 C312 1.307 1_556 S
N307 Zn313 2.020 . S
C308 N307 1.333 . S
C308 C309 1.379 . S
C308 H326 0.952 . S
C309 C308 1.379 . S
C309 C310 1.390 1_556 S
C309 H336 0.949 . S
C310 C309 1.390 1_554 S
C310 C311 1.357 . S
C311 C310 1.357 . S
C311 C312 1.370 . S
C311 H337 0.950 . S
C312 N307 1.307 1_554 S
C312 C311 1.370 . S
C312 H330 0.948 . S
Zn313 N307 2.020 . S
Zn313 O322 2.039 . S
Zn313 O328 2.034 . S
Zn313 O332 2.025 . S
Zn313 O334 2.024 . S
C314 O333 1.246 . S
C314 O334 1.249 . S
N315 C316 1.307 1_545 S
N315 C317 1.333 . S
N315 Zn321 2.020 . S
C316 N315 1.307 1_565 S
C316 C320 1.370 . S
C316 H327 0.948 . S
C317 N315 1.333 . S
C317 C318 1.379 . S
C317 H325 0.952 . S
C318 C317 1.379 . S
C318 C319 1.390 1_545 S
C318 H338 0.949 . S
C319 C318 1.390 1_565 S
C319 C320 1.357 . S
C320 C316 1.370 . S
C320 C319 1.357 . S
C320 H339 0.950 . S
Zn321 N315 2.020 . S
Zn321 O324 2.025 1_545 S
Zn321 O329 2.024 . S
Zn321 O331 2.039 . S
Zn321 O333 2.034 . S
O322 C306 1.251 1_545 S
O322 Zn313 2.039 . S
C323 O328 1.246 . S
C323 O329 1.249 . S
O324 C306 1.254 . S
O324 Zn321 2.025 1_565 S
H325 C317 0.952 . S
H326 C308 0.952 . S
H327 C316 0.948 . S
O328 Zn313 2.034 . S
O328 C323 1.246 . S
O329 Zn321 2.024 . S
O329 C323 1.249 . S
H330 C312 0.948 . S
O331 Zn321 2.039 . S
O331 C335 1.251 . S
O332 Zn313 2.025 . S
O332 C335 1.254 . S
O333 C314 1.246 . S
O333 Zn321 2.034 . S
O334 Zn313 2.024 . S
O334 C314 1.249 . S
C335 O331 1.251 . S
C335 O332 1.254 . S
H336 C309 0.949 . S
H337 C311 0.950 . S
H338 C318 0.949 . S
H339 C320 0.950 . S
C340 O356 1.251 . S
C340 O358 1.254 . S
N341 C342 1.333 . S
N341 C346 1.307 . S
N341 Zn347 2.020 . S
C342 N341 1.333 . S
C342 C343 1.379 . S
C342 H360 0.952 . S
C343 C342 1.379 . S
C343 C344 1.390 . S
C343 H370 0.949 . S
C344 C343 1.390 . S
C344 C345 1.357 . S
C345 C344 1.357 . S
C345 C346 1.370 . S
C345 H371 0.950 . S
C346 N341 1.307 . S
C346 C345 1.370 . S
C346 H364 0.948 . S
Zn347 N341 2.020 . S
Zn347 O356 2.039 . S
Zn347 O362 2.034 . S
Zn347 O366 2.025 . S
Zn347 O368 2.024 . S
C348 O367 1.246 . S
C348 O368 1.249 . S
N349 C350 1.307 . S
N349 C351 1.333 . S
N349 Zn355 2.020 . S
C350 N349 1.307 . S
C350 C354 1.370 . S
C350 H361 0.948 . S
C351 N349 1.333 . S
C351 C352 1.379 . S
C351 H359 0.952 . S
C352 C351 1.379 . S
C352 C353 1.390 . S
C352 H372 0.949 . S
C353 C352 1.390 . S
C353 C354 1.357 . S
C354 C350 1.370 . S
C354 C353 1.357 . S
C354 H373 0.950 1_565 S
Zn355 N349 2.020 . S
Zn355 O358 2.025 . S
Zn355 O363 2.024 . S
Zn355 O365 2.039 . S
Zn355 O367 2.034 . S
O356 C340 1.251 . S
O356 Zn347 2.039 . S
C357 O362 1.246 . S
C357 O363 1.249 . S
O358 C340 1.254 . S
O358 Zn355 2.025 . S
H359 C351 0.952 . S
H360 C342 0.952 . S
H361 C350 0.948 . S
O362 Zn347 2.034 . S
O362 C357 1.246 . S
O363 Zn355 2.024 . S
O363 C357 1.249 . S
H364 C346 0.948 . S
O365 Zn355 2.039 . S
O365 C369 1.251 . S
O366 Zn347 2.025 . S
O366 C369 1.254 . S
O367 C348 1.246 . S
O367 Zn355 2.034 . S
O368 Zn347 2.024 . S
O368 C348 1.249 . S
C369 O365 1.251 . S
C369 O366 1.254 . S
H370 C343 0.949 . S
H371 C345 0.950 . S
H372 C352 0.949 . S
H373 C354 0.950 1_545 S
C374 O390 1.251 . S
C374 O392 1.254 . S
N375 C376 1.333 . S
N375 C380 1.307 . S
N375 Zn381 2.020 . S
C376 N375 1.333 . S
C376 C377 1.379 . S
C376 H394 0.952 . S
C377 C376 1.379 . S
C377 C378 1.390 . S
C377 H404 0.949 . S
C378 C377 1.390 . S
C378 C379 1.357 . S
C379 C378 1.357 . S
C379 C380 1.370 . S
C379 H405 0.950 . S
C380 N375 1.307 . S
C380 C379 1.370 . S
C380 H398 0.948 . S
Zn381 N375 2.020 . S
Zn381 O390 2.039 . S
Zn381 O396 2.034 . S
Zn381 O400 2.025 . S
Zn381 O402 2.024 . S
C382 O401 1.246 . S
C382 O402 1.249 . S
N383 C384 1.307 . S
N383 C385 1.333 . S
N383 Zn389 2.020 . S
C384 N383 1.307 . S
C384 C388 1.370 . S
C384 H395 0.948 . S
C385 N383 1.333 . S
C385 C386 1.379 . S
C385 H393 0.952 . S
C386 C385 1.379 . S
C386 C387 1.390 . S
C386 H406 0.949 . S
C387 C386 1.390 . S
C387 C388 1.357 . S
C388 C384 1.370 . S
C388 C387 1.357 . S
C388 H407 0.950 . S
Zn389 N383 2.020 . S
Zn389 O392 2.025 . S
Zn389 O397 2.024 . S
Zn389 O399 2.039 . S
Zn389 O401 2.034 . S
O390 C374 1.251 . S
O390 Zn381 2.039 . S
C391 O396 1.246 . S
C391 O397 1.249 . S
O392 C374 1.254 . S
O392 Zn389 2.025 . S
H393 C385 0.952 . S
H394 C376 0.952 . S
H395 C384 0.948 . S
O396 Zn381 2.034 . S
O396 C391 1.246 . S
O397 Zn389 2.024 . S
O397 C391 1.249 . S
H398 C380 0.948 . S
O399 Zn389 2.039 . S
O399 C403 1.251 . S
O400 Zn381 2.025 . S
O400 C403 1.254 . S
O401 C382 1.246 . S
O401 Zn389 2.034 . S
O402 Zn381 2.024 . S
O402 C382 1.249 . S
C403 O399 1.251 . S
C403 O400 1.254 . S
H404 C377 0.949 . S
H405 C379 0.950 . S
H406 C386 0.949 . S
H407 C388 0.950 . S
C408 C409 1.369 . S
C408 C410 1.419 . S
C408 H412 0.930 . S
C409 C408 1.369 . S
C409 C418 1.429 . S
C410 C408 1.419 . S
C410 C411 1.363 . S
C410 H413 0.929 . S
C411 C410 1.363 . S
C411 C417 1.428 . S
H412 C408 0.930 . S
H413 C410 0.929 . S
S414 N415 1.613 . S
S414 N416 1.610 . S
N415 S414 1.613 . S
N415 C418 1.350 . S
N416 S414 1.610 . S
N416 C417 1.351 . S
C417 C411 1.428 . S
C417 N416 1.351 . S
C417 C418 1.434 . S
C418 C409 1.429 . S
C418 N415 1.350 . S
C418 C417 1.434 . S
C419 C420 1.369 . S
C419 C421 1.419 . S
C419 H423 0.930 . S
C420 C419 1.369 . S
C420 C429 1.429 1_565 S
C421 C419 1.419 . S
C421 C422 1.363 1_565 S
C421 H424 0.929 . S
C422 C421 1.363 1_545 S
C422 C428 1.428 . S
H423 C419 0.930 . S
H424 C421 0.929 . S
S425 N426 1.613 . S
S425 N427 1.610 . S
N426 S425 1.613 . S
N426 C429 1.350 . S
N427 S425 1.610 . S
N427 C428 1.351 . S
C428 C422 1.428 . S
C428 N427 1.351 . S
C428 C429 1.434 . S
C429 C420 1.429 1_545 S
C429 N426 1.350 . S
C429 C428 1.434 . S
C430 C431 1.369 1_556 S
C430 C432 1.419 1_556 S
C430 H434 0.930 . S
C431 C430 1.369 1_554 S
C431 C440 1.429 . S
C432 C430 1.419 1_554 S
C432 C433 1.363 . S
C432 H435 0.929 1_554 S
C433 C432 1.363 . S
C433 C439 1.428 . S
H434 C430 0.930 . S
H435 C432 0.929 1_556 S
S436 N437 1.613 . S
S436 N438 1.610 . S
N437 S436 1.613 . S
N437 C440 1.350 . S
N438 S436 1.610 . S
N438 C439 1.351 . S
C439 C433 1.428 . S
C439 N438 1.351 . S
C439 C440 1.434 . S
C440 C431 1.429 . S
C440 N437 1.350 . S
C440 C439 1.434 . S
C441 C442 1.369 1_545 S
C441 C443 1.419 . S
C441 H445 0.930 . S
C442 C441 1.369 1_565 S
C442 C451 1.429 . S
C443 C441 1.419 . S
C443 C444 1.363 1_545 S
C443 H446 0.929 . S
C444 C443 1.363 1_565 S
C444 C450 1.428 . S
H445 C441 0.930 . S
H446 C443 0.929 . S
S447 N448 1.613 . S
S447 N449 1.610 . S
N448 S447 1.613 . S
N448 C451 1.350 . S
N449 S447 1.610 . S
N449 C450 1.351 . S
C450 C444 1.428 . S
C450 N449 1.351 . S
C450 C451 1.434 . S
C451 C442 1.429 . S
C451 N448 1.350 . S
C451 C450 1.434 . S
C452 C453 1.369 . S
C452 C454 1.419 . S
C452 H456 0.930 . S
C453 C452 1.369 . S
C453 C462 1.429 . S
C454 C452 1.419 . S
C454 C455 1.363 1_545 S
C454 H457 0.929 1_545 S
C455 C454 1.363 1_565 S
C455 C461 1.428 1_565 S
H456 C452 0.930 . S
H457 C454 0.929 1_565 S
S458 N459 1.613 . S
S458 N460 1.610 . S
N459 S458 1.613 . S
N459 C462 1.350 . S
N460 S458 1.610 . S
N460 C461 1.351 . S
C461 C455 1.428 1_545 S
C461 N460 1.351 . S
C461 C462 1.434 . S
C462 C453 1.429 . S
C462 N459 1.350 . S
C462 C461 1.434 . S
C463 C464 1.369 . S
C463 C465 1.419 . S
C463 H467 0.930 . S
C464 C463 1.369 . S
C464 C473 1.429 . S
C465 C463 1.419 . S
C465 C466 1.363 . S
C465 H468 0.929 . S
C466 C465 1.363 . S
C466 C472 1.428 . S
H467 C463 0.930 . S
H468 C465 0.929 . S
S469 N470 1.613 . S
S469 N471 1.610 . S
N470 S469 1.613 . S
N470 C473 1.350 . S
N471 S469 1.610 . S
N471 C472 1.351 . S
C472 C466 1.428 . S
C472 N471 1.351 . S
C472 C473 1.434 . S
C473 C464 1.429 . S
C473 N470 1.350 . S
C473 C472 1.434 . S
C474 C475 1.369 . S
C474 C476 1.419 . S
C474 H478 0.930 . S
C475 C474 1.369 . S
C475 C484 1.429 . S
C476 C474 1.419 . S
C476 C477 1.363 . S
C476 H479 0.929 . S
C477 C476 1.363 . S
C477 C483 1.428 . S
H478 C474 0.930 . S
H479 C476 0.929 . S
S480 N481 1.613 . S
S480 N482 1.610 . S
N481 S480 1.613 . S
N481 C484 1.350 . S
N482 S480 1.610 . S
N482 C483 1.351 . S
C483 C477 1.428 . S
C483 N482 1.351 . S
C483 C484 1.434 . S
C484 C475 1.429 . S
C484 N481 1.350 . S
C484 C483 1.434 . S
C485 C486 1.369 . S
C485 C487 1.419 . S
C485 H489 0.930 . S
C486 C485 1.369 . S
C486 C495 1.429 . S
C487 C485 1.419 . S
C487 C488 1.363 . S
C487 H490 0.929 . S
C488 C487 1.363 . S
C488 C494 1.428 . S
H489 C485 0.930 . S
H490 C487 0.929 . S
S491 N492 1.613 . S
S491 N493 1.610 . S
N492 S491 1.613 . S
N492 C495 1.350 . S
N493 S491 1.610 . S
N493 C494 1.351 . S
C494 C488 1.428 . S
C494 N493 1.351 . S
C494 C495 1.434 . S
C495 C486 1.429 . S
C495 N492 1.350 . S
C495 C494 1.434 . S
C496 C497 1.369 . S
C496 C498 1.419 . S
C496 H500 0.930 . S
C497 C496 1.369 . S
C497 C506 1.429 . S
C498 C496 1.419 . S
C498 C499 1.363 . S
C498 H501 0.929 . S
C499 C498 1.363 . S
C499 C505 1.428 . S
H500 C496 0.930 . S
H501 C498 0.929 . S
S502 N503 1.613 . S
S502 N504 1.610 . S
N503 S502 1.613 . S
N503 C506 1.350 . S
N504 S502 1.610 . S
N504 C505 1.351 . S
C505 C499 1.428 . S
C505 N504 1.351 . S
C505 C506 1.434 . S
C506 C497 1.429 . S
C506 N503 1.350 . S
C506 C505 1.434 . S
C507 C508 1.369 . S
C507 C509 1.419 . S
C507 H511 0.930 . S
C508 C507 1.369 . S
C508 C517 1.429 . S
C509 C507 1.419 . S
C509 C510 1.363 1_455 S
C509 H512 0.929 1_455 S
C510 C509 1.363 1_655 S
C510 C516 1.428 . S
H511 C507 0.930 . S
H512 C509 0.929 1_655 S
S513 N514 1.613 1_655 S
S513 N515 1.610 . S
N514 S513 1.613 1_455 S
N514 C517 1.350 . S
N515 S513 1.610 . S
N515 C516 1.351 . S
C516 C510 1.428 . S
C516 N515 1.351 . S
C516 C517 1.434 1_655 S
C517 C508 1.429 . S
C517 N514 1.350 . S
C517 C516 1.434 1_455 S
C518 C519 1.369 1_655 S
C518 C520 1.419 . S
C518 H522 0.930 . S
C519 C518 1.369 1_455 S
C519 C528 1.429 . S
C520 C518 1.419 . S
C520 C521 1.363 . S
C520 H523 0.929 . S
C521 C520 1.363 . S
C521 C527 1.428 1_655 S
H522 C518 0.930 . S
H523 C520 0.929 . S
S524 N525 1.613 . S
S524 N526 1.610 . S
N525 S524 1.613 . S
N525 C528 1.350 . S
N526 S524 1.610 . S
N526 C527 1.351 . S
C527 C521 1.428 1_455 S
C527 N526 1.351 . S
C527 C528 1.434 . S
C528 C519 1.429 . S
C528 N525 1.350 . S
C528 C527 1.434 . S
C529 C530 1.369 . S
C529 C531 1.419 . S
C529 H533 0.930 . S
C530 C529 1.369 . S
C530 C539 1.429 . S
C531 C529 1.419 . S
C531 C532 1.363 . S
C531 H534 0.929 . S
C532 C531 1.363 . S
C532 C538 1.428 . S
H533 C529 0.930 . S
H534 C531 0.929 . S
S535 N536 1.613 . S
S535 N537 1.610 . S
N536 S535 1.613 . S
N536 C539 1.350 . S
N537 S535 1.610 . S
N537 C538 1.351 . S
C538 C532 1.428 . S
C538 N537 1.351 . S
C538 C539 1.434 . S
C539 C530 1.429 . S
C539 N536 1.350 . S
C539 C538 1.434 . S
C540 C541 1.369 . S
C540 C542 1.419 . S
C540 H544 0.930 . S
C541 C540 1.369 . S
C541 C550 1.429 . S
C542 C540 1.419 . S
C542 C543 1.363 . S
C542 H545 0.929 . S
C543 C542 1.363 . S
C543 C549 1.428 . S
H544 C540 0.930 . S
H545 C542 0.929 . S
S546 N547 1.613 . S
S546 N548 1.610 . S
N547 S546 1.613 . S
N547 C550 1.350 . S
N548 S546 1.610 . S
N548 C549 1.351 . S
C549 C543 1.428 . S
C549 N548 1.351 . S
C549 C550 1.434 . S
C550 C541 1.429 . S
C550 N547 1.350 . S
C550 C549 1.434 . S
C551 C552 1.369 . S
C551 C553 1.419 . S
C551 H555 0.930 . S
C552 C551 1.369 . S
C552 C561 1.429 1_455 S
C553 C551 1.419 . S
C553 C554 1.363 1_455 S
C553 H556 0.929 . S
C554 C553 1.363 1_655 S
C554 C560 1.428 . S
H555 C551 0.930 . S
H556 C553 0.929 . S
S557 N558 1.613 . S
S557 N559 1.610 . S
N558 S557 1.613 . S
N558 C561 1.350 . S
N559 S557 1.610 . S
N559 C560 1.351 . S
C560 C554 1.428 . S
C560 N559 1.351 . S
C560 C561 1.434 . S
C561 C552 1.429 1_655 S
C561 N558 1.350 . S
C561 C560 1.434 . S
C562 C563 1.369 . S
C562 C564 1.419 . S
C562 H566 0.930 . S
C563 C562 1.369 . S
C563 C572 1.429 . S
C564 C562 1.419 . S
C564 C565 1.363 . S
C564 H567 0.929 . S
C565 C564 1.363 . S
C565 C571 1.428 . S
H566 C562 0.930 . S
H567 C564 0.929 . S
S568 N569 1.613 . S
S568 N570 1.610 . S
N569 S568 1.613 . S
N569 C572 1.350 . S
N570 S568 1.610 . S
N570 C571 1.351 . S
C571 C565 1.428 . S
C571 N570 1.351 . S
C571 C572 1.434 . S
C572 C563 1.429 . S
C572 N569 1.350 . S
C572 C571 1.434 . S
C573 C574 1.369 . S
C573 C575 1.419 . S
C573 H577 0.930 . S
C574 C573 1.369 . S
C574 C583 1.429 . S
C575 C573 1.419 . S
C575 C576 1.363 . S
C575 H578 0.929 . S
C576 C575 1.363 . S
C576 C582 1.428 . S
H577 C573 0.930 . S
H578 C575 0.929 . S
S579 N580 1.613 . S
S579 N581 1.610 . S
N580 S579 1.613 . S
N580 C583 1.350 . S
N581 S579 1.610 . S
N581 C582 1.351 . S
C582 C576 1.428 . S
C582 N581 1.351 . S
C582 C583 1.434 . S
C583 C574 1.429 . S
C583 N580 1.350 . S
C583 C582 1.434 . S
C584 C585 1.369 . S
C584 C586 1.419 . S
C584 H588 0.930 . S
C585 C584 1.369 . S
C585 C594 1.429 . S
C586 C584 1.419 . S
C586 C587 1.363 . S
C586 H589 0.929 . S
C587 C586 1.363 . S
C587 C593 1.428 . S
H588 C584 0.930 . S
H589 C586 0.929 . S
S590 N591 1.613 . S
S590 N592 1.610 . S
N591 S590 1.613 . S
N591 C594 1.350 . S
N592 S590 1.610 . S
N592 C593 1.351 . S
C593 C587 1.428 . S
C593 N592 1.351 . S
C593 C594 1.434 . S
C594 C585 1.429 . S
C594 N591 1.350 . S
C594 C593 1.434 . S
C595 C596 1.369 . S
C595 C597 1.419 . S
C595 H599 0.930 . S
C596 C595 1.369 . S
C596 C605 1.443 . S
C597 C595 1.419 . S
C597 C598 1.363 1_455 S
C597 H600 0.929 . S
C598 C597 1.363 1_655 S
C598 C604 1.428 . S
H599 C595 0.930 . S
H600 C597 0.929 . S
S601 N602 1.613 . S
S601 N603 1.610 1_554 S
N602 S601 1.613 . S
N602 C605 1.344 1_654 S
N603 S601 1.610 1_556 S
N603 C604 1.351 . S
C604 C598 1.428 . S
C604 N603 1.351 . S
C604 C605 1.424 1_655 S
C605 C596 1.443 . S
C605 N602 1.344 1_456 S
C605 C604 1.424 1_455 S
C606 C607 1.369 . S
C606 C608 1.419 . S
C606 H610 0.930 . S
C607 C606 1.369 . S
C607 C616 1.429 . S
C608 C606 1.419 . S
C608 C609 1.363 . S
C608 H611 0.929 . S
C609 C608 1.363 . S
C609 C615 1.428 . S
H610 C606 0.930 . S
H611 C608 0.929 . S
S612 N613 1.613 . S
S612 N614 1.610 . S
N613 S612 1.613 . S
N613 C616 1.350 . S
N614 S612 1.610 . S
N614 C615 1.351 . S
C615 C609 1.428 . S
C615 N614 1.351 . S
C615 C616 1.434 . S
C616 C607 1.429 . S
C616 N613 1.350 . S
C616 C615 1.434 . S
C617 C618 1.369 . S
C617 C619 1.419 . S
C617 H621 0.930 . S
C618 C617 1.369 . S
C618 C627 1.429 . S
C619 C617 1.419 . S
C619 C620 1.363 . S
C619 H622 0.929 . S
C620 C619 1.363 . S
C620 C626 1.428 . S
H621 C617 0.930 . S
H622 C619 0.929 . S
S623 N624 1.613 . S
S623 N625 1.610 . S
N624 S623 1.613 . S
N624 C627 1.350 . S
N625 S623 1.610 . S
N625 C626 1.351 . S
C626 C620 1.428 . S
C626 N625 1.351 . S
C626 C627 1.434 . S
C627 C618 1.429 . S
C627 N624 1.350 . S
C627 C626 1.434 . S
C628 C629 1.369 . S
C628 C630 1.419 . S
C628 H632 0.930 . S
C629 C628 1.369 . S
C629 C638 1.429 . S
C630 C628 1.419 . S
C630 C631 1.363 . S
C630 H633 0.929 . S
C631 C630 1.363 . S
C631 C637 1.428 . S
H632 C628 0.930 . S
H633 C630 0.929 . S
S634 N635 1.613 . S
S634 N636 1.610 . S
N635 S634 1.613 . S
N635 C638 1.350 . S
N636 S634 1.610 . S
N636 C637 1.351 . S
C637 C631 1.428 . S
C637 N636 1.351 . S
C637 C638 1.434 . S
C638 C629 1.429 . S
C638 N635 1.350 . S
C638 C637 1.434 . S
C639 C640 1.369 . S
C639 C641 1.419 . S
C639 H643 0.930 . S
C640 C639 1.369 . S
C640 C649 1.429 . S
C641 C639 1.419 . S
C641 C642 1.363 . S
C641 H644 0.929 . S
C642 C641 1.363 . S
C642 C648 1.428 . S
H643 C639 0.930 . S
H644 C641 0.929 . S
S645 N646 1.613 . S
S645 N647 1.610 . S
N646 S645 1.613 . S
N646 C649 1.350 . S
N647 S645 1.610 . S
N647 C648 1.351 . S
C648 C642 1.428 . S
C648 N647 1.351 . S
C648 C649 1.434 . S
C649 C640 1.429 . S
C649 N646 1.350 . S
C649 C648 1.434 . S
C650 C651 1.369 . S
C650 C652 1.419 . S
C650 H654 0.930 . S
C651 C650 1.369 . S
C651 C660 1.429 . S
C652 C650 1.419 . S
C652 C653 1.363 . S
C652 H655 0.929 . S
C653 C652 1.363 . S
C653 C659 1.428 . S
H654 C650 0.930 . S
H655 C652 0.929 . S
S656 N657 1.613 . S
S656 N658 1.610 . S
N657 S656 1.613 . S
N657 C660 1.350 1_545 S
N658 S656 1.610 . S
N658 C659 1.351 1_545 S
C659 C653 1.428 . S
C659 N658 1.351 1_565 S
C659 C660 1.434 . S
C660 C651 1.429 . S
C660 N657 1.350 1_565 S
C660 C659 1.434 . S
C661 C662 1.369 . S
C661 C663 1.419 1_545 S
C661 H665 0.930 . S
C662 C661 1.369 . S
C662 C671 1.429 . S
C663 C661 1.419 1_565 S
C663 C664 1.363 . S
C663 H666 0.929 . S
C664 C663 1.363 . S
C664 C670 1.428 . S
H665 C661 0.930 . S
H666 C663 0.929 . S
S667 N668 1.613 1_565 S
S667 N669 1.610 . S
N668 S667 1.613 1_545 S
N668 C671 1.350 . S
N669 S667 1.610 . S
N669 C670 1.351 . S
C670 C664 1.428 . S
C670 N669 1.351 . S
C670 C671 1.434 1_565 S
C671 C662 1.429 . S
C671 N668 1.350 . S
C671 C670 1.434 1_545 S
C672 C673 1.369 . S
C672 C674 1.419 . S
C672 H676 0.930 . S
C673 C672 1.369 . S
C673 C682 1.429 . S
C674 C672 1.419 . S
C674 C675 1.363 . S
C674 H677 0.929 . S
C675 C674 1.363 . S
C675 C681 1.428 . S
H676 C672 0.930 . S
H677 C674 0.929 . S
S678 N679 1.613 . S
S678 N680 1.610 . S
N679 S678 1.613 . S
N679 C682 1.350 . S
N680 S678 1.610 . S
N680 C681 1.351 . S
C681 C675 1.428 . S
C681 N680 1.351 . S
C681 C682 1.434 . S
C682 C673 1.429 . S
C682 N679 1.350 . S
C682 C681 1.434 . S
C683 C684 1.369 . S
C683 C685 1.419 . S
C683 H687 0.930 . S
C684 C683 1.369 . S
C684 C693 1.429 . S
C685 C683 1.419 . S
C685 C686 1.363 . S
C685 H688 0.929 . S
C686 C685 1.363 . S
C686 C692 1.428 . S
H687 C683 0.930 . S
H688 C685 0.929 . S
S689 N690 1.613 . S
S689 N691 1.610 . S
N690 S689 1.613 . S
N690 C693 1.350 . S
N691 S689 1.610 . S
N691 C692 1.351 . S
C692 C686 1.428 . S
C692 N691 1.351 . S
C692 C693 1.434 . S
C693 C684 1.429 . S
C693 N690 1.350 . S
C693 C692 1.434 . S
C694 C695 1.369 . S
C694 C696 1.419 . S
C694 H698 0.930 . S
C695 C694 1.369 . S
C695 C704 1.429 . S
C696 C694 1.419 . S
C696 C697 1.363 . S
C696 H699 0.929 . S
C697 C696 1.363 . S
C697 C703 1.428 . S
H698 C694 0.930 . S
H699 C696 0.929 . S
S700 N701 1.613 . S
S700 N702 1.610 . S
N701 S700 1.613 . S
N701 C704 1.350 . S
N702 S700 1.610 . S
N702 C703 1.351 . S
C703 C697 1.428 . S
C703 N702 1.351 . S
C703 C704 1.434 . S
C704 C695 1.429 . S
C704 N701 1.350 . S
C704 C703 1.434 . S
C705 C706 1.369 . S
C705 C707 1.419 . S
C705 H709 0.930 . S
C706 C705 1.369 . S
C706 C715 1.429 . S
C707 C705 1.419 . S
C707 C708 1.363 . S
C707 H710 0.929 . S
C708 C707 1.363 . S
C708 C714 1.428 . S
H709 C705 0.930 . S
H710 C707 0.929 . S
S711 N712 1.613 . S
S711 N713 1.610 . S
N712 S711 1.613 . S
N712 C715 1.350 . S
N713 S711 1.610 . S
N713 C714 1.351 . S
C714 C708 1.428 . S
C714 N713 1.351 . S
C714 C715 1.434 . S
C715 C706 1.429 . S
C715 N712 1.350 . S
C715 C714 1.434 . S
C716 C717 1.369 . S
C716 C718 1.419 . S
C716 H720 0.930 . S
C717 C716 1.369 . S
C717 C726 1.429 . S
C718 C716 1.419 . S
C718 C719 1.363 . S
C718 H721 0.929 . S
C719 C718 1.363 . S
C719 C725 1.428 . S
H720 C716 0.930 . S
H721 C718 0.929 . S
S722 N723 1.613 . S
S722 N724 1.610 . S
N723 S722 1.613 . S
N723 C726 1.350 . S
N724 S722 1.610 . S
N724 C725 1.351 . S
C725 C719 1.428 . S
C725 N724 1.351 . S
C725 C726 1.434 . S
C726 C717 1.429 . S
C726 N723 1.350 . S
C726 C725 1.434 . S
C727 C728 1.369 . S
C727 C729 1.419 . S
C727 H731 0.930 . S
C728 C727 1.369 . S
C728 C737 1.429 . S
C729 C727 1.419 . S
C729 C730 1.363 . S
C729 H732 0.929 . S
C730 C729 1.363 . S
C730 C736 1.428 . S
H731 C727 0.930 . S
H732 C729 0.929 . S
S733 N734 1.613 . S
S733 N735 1.610 . S
N734 S733 1.613 . S
N734 C737 1.350 . S
N735 S733 1.610 . S
N735 C736 1.351 . S
C736 C730 1.428 . S
C736 N735 1.351 . S
C736 C737 1.434 . S
C737 C728 1.429 . S
C737 N734 1.350 . S
C737 C736 1.434 . S
C738 C739 1.369 . S
C738 C740 1.419 . S
C738 H742 0.930 . S
C739 C738 1.369 . S
C739 C748 1.429 . S
C740 C738 1.419 . S
C740 C741 1.363 . S
C740 H743 0.929 . S
C741 C740 1.363 . S
C741 C747 1.428 . S
H742 C738 0.930 . S
H743 C740 0.929 . S
S744 N745 1.613 . S
S744 N746 1.610 . S
N745 S744 1.613 . S
N745 C748 1.350 . S
N746 S744 1.610 . S
N746 C747 1.351 . S
C747 C741 1.428 . S
C747 N746 1.351 . S
C747 C748 1.434 . S
C748 C739 1.429 . S
C748 N745 1.350 . S
C748 C747 1.434 . S
C749 C750 1.369 . S
C749 C751 1.419 . S
C749 H753 0.930 . S
C750 C749 1.369 . S
C750 C759 1.429 . S
C751 C749 1.419 . S
C751 C752 1.363 . S
C751 H754 0.929 . S
C752 C751 1.363 . S
C752 C758 1.428 . S
H753 C749 0.930 . S
H754 C751 0.929 . S
S755 N756 1.613 . S
S755 N757 1.610 . S
N756 S755 1.613 . S
N756 C759 1.350 . S
N757 S755 1.610 . S
N757 C758 1.351 . S
C758 C752 1.428 . S
C758 N757 1.351 . S
C758 C759 1.434 . S
C759 C750 1.429 . S
C759 N756 1.350 . S
C759 C758 1.434 . S
C760 C761 1.369 . S
C760 C762 1.419 . S
C760 H764 0.930 . S
C761 C760 1.369 . S
C761 C770 1.429 . S
C762 C760 1.419 . S
C762 C763 1.363 . S
C762 H765 0.929 . S
C763 C762 1.363 . S
C763 C769 1.428 . S
H764 C760 0.930 . S
H765 C762 0.929 . S
S766 N767 1.613 . S
S766 N768 1.610 . S
N767 S766 1.613 . S
N767 C770 1.350 . S
N768 S766 1.610 . S
N768 C769 1.351 . S
C769 C763 1.428 . S
C769 N768 1.351 . S
C769 C770 1.434 . S
C770 C761 1.429 . S
C770 N767 1.350 . S
C770 C769 1.434 . S
C771 C772 1.369 . S
C771 C773 1.419 . S
C771 H775 0.930 . S
C772 C771 1.369 . S
C772 C781 1.429 . S
C773 C771 1.419 . S
C773 C774 1.363 . S
C773 H776 0.929 . S
C774 C773 1.363 . S
C774 C780 1.428 . S
H775 C771 0.930 . S
H776 C773 0.929 . S
S777 N778 1.613 . S
S777 N779 1.610 . S
N778 S777 1.613 . S
N778 C781 1.350 . S
N779 S777 1.610 . S
N779 C780 1.351 . S
C780 C774 1.428 . S
C780 N779 1.351 . S
C780 C781 1.434 . S
C781 C772 1.429 . S
C781 N778 1.350 . S
C781 C780 1.434 . S
C782 C783 1.369 . S
C782 C784 1.419 . S
C782 H786 0.930 . S
C783 C782 1.369 . S
C783 C792 1.429 . S
C784 C782 1.419 . S
C784 C785 1.363 . S
C784 H787 0.929 . S
C785 C784 1.363 . S
C785 C791 1.428 . S
H786 C782 0.930 . S
H787 C784 0.929 . S
S788 N789 1.613 . S
S788 N790 1.610 . S
N789 S788 1.613 . S
N789 C792 1.350 . S
N790 S788 1.610 . S
N790 C791 1.351 . S
C791 C785 1.428 . S
C791 N790 1.351 . S
C791 C792 1.434 . S
C792 C783 1.429 . S
C792 N789 1.350 . S
C792 C791 1.434 . S
C793 C794 1.369 1_545 S
C793 C795 1.419 . S
C793 H797 0.930 1_545 S
C794 C793 1.369 1_565 S
C794 C803 1.425 1_565 S
C795 C793 1.419 . S
C795 C796 1.363 . S
C795 H798 0.929 . S
C796 C795 1.363 . S
C796 C802 1.428 . S
H797 C793 0.930 1_565 S
H798 C795 0.929 . S
S799 N800 1.613 . S
S799 N801 1.610 . S
N800 S799 1.613 . S
N800 C803 1.350 . S
N801 S799 1.610 . S
N801 C802 1.351 . S
C802 C796 1.428 . S
C802 N801 1.351 . S
C802 C803 1.434 . S
C803 C794 1.425 1_545 S
C803 N800 1.350 . S
C803 C802 1.434 . S
C409 C13 1.396 . S
C411 C382 1.371 . S
C420 C319 1.868 . S
C422 C47 1.962 . S
C431 C76 2.601 1_554 S
C433 C280 2.591 . S
C442 C115 2.107 . S
C444 C353 2.073 . S
C453 C149 1.587 . S
C455 C348 1.537 . S
C464 C183 1.734 . S
C466 C387 1.696 . S
C475 C314 1.825 1_565 S
C477 C217 1.862 . S
C486 C246 2.521 . S
C488 C285 2.479 . S
C497 C110 2.589 . S
C499 C144 2.650 . S
C508 C8 2.570 . S
C510 C178 2.514 . S
C519 C42 2.590 . S
C521 C212 2.633 . S
C530 C251 0.772 . S
C532 C81 0.770 . S
C541 C29 2.070 . S
C543 C289 2.057 . S
C552 C63 1.010 . S
C554 C344 0.960 . S
C563 C391 1.489 . S
C565 C68 1.560 . S
C574 C131 0.828 . S
C576 C310 0.818 . S
C585 C165 1.640 . S
C587 C323 1.592 . S
C596 C276 1.272 1_556 S
C598 C199 1.300 . S
C607 C357 1.403 . S
C609 C233 1.387 . S
C618 C378 0.978 . S
C620 C238 1.051 . S
C629 C17 1.580 . S
C631 C102 1.517 . S
C640 C0 1.991 . S
C642 C51 1.965 1_545 S
C651 C34 0.782 . S
C653 C72 0.783 . S
C662 C119 1.664 . S
C664 C97 1.730 . S
C673 C170 1.769 . S
C675 C153 1.818 . S
C684 C187 1.800 . S
C686 C204 1.821 . S
C695 C221 1.428 . S
C697 C267 1.403 . S
C706 C136 1.401 . S
C708 C242 1.336 . S
C717 C301 0.945 . S
C719 C106 0.968 . S
C728 C174 0.627 . S
C730 C335 0.618 . S
C739 C272 1.225 . S
C741 C208 1.288 . S
C750 C369 0.838 . S
C752 C255 0.817 . S
C761 C140 1.286 . S
C763 C374 1.321 . S
C772 C403 1.150 . S
C774 C38 1.093 . S
C783 C85 1.174 . S
C785 C306 1.167 . S
C794 C340 0.918 . S
C796 C4 0.909 . S
