# Generated by pormake.
# Topology wls, (5)-cn, num edge types: 1
# Building blocks:
#     Node 0, Type 0, BuildingBlock: XOMCOT_clean_sbu_0, # of connection points: 5
#     Node 1, Type 0, BuildingBlock: XOMCOT_clean_sbu_0, # of connection points: 5
#     Node 2, Type 0, BuildingBlock: XOMCOT_clean_sbu_0, # of connection points: 5
#     Node 3, Type 0, BuildingBlock: XOMCOT_clean_sbu_0, # of connection points: 5
#     Node 4, Type 0, BuildingBlock: XOMCOT_clean_sbu_0, # of connection points: 5
#     Node 5, Type 0, BuildingBlock: XOMCOT_clean_sbu_0, # of connection points: 5
#     Node 6, Type 0, BuildingBlock: XOMCOT_clean_sbu_0, # of connection points: 5
#     Node 7, Type 0, BuildingBlock: XOMCOT_clean_sbu_0, # of connection points: 5
#     Node 8, Type 0, BuildingBlock: XOMCOT_clean_sbu_0, # of connection points: 5
#     Node 9, Type 0, BuildingBlock: XOMCOT_clean_sbu_0, # of connection points: 5
#     Node 10, Type 0, BuildingBlock: XOMCOT_clean_sbu_0, # of connection points: 5
#     Node 11, Type 0, BuildingBlock: XOMCOT_clean_sbu_0, # of connection points: 5
#     Node 12, Type 0, BuildingBlock: XOMCOT_clean_sbu_0, # of connection points: 5
#     Node 13, Type 0, BuildingBlock: XOMCOT_clean_sbu_0, # of connection points: 5
#     Node 14, Type 0, BuildingBlock: XOMCOT_clean_sbu_0, # of connection points: 5
#     Node 15, Type 0, BuildingBlock: XOMCOT_clean_sbu_0, # of connection points: 5
#     Node 16, Type 0, BuildingBlock: XOMCOT_clean_sbu_0, # of connection points: 5
#     Node 17, Type 0, BuildingBlock: XOMCOT_clean_sbu_0, # of connection points: 5
#     Node 18, Type 0, BuildingBlock: XOMCOT_clean_sbu_0, # of connection points: 5
#     Node 19, Type 0, BuildingBlock: XOMCOT_clean_sbu_0, # of connection points: 5
#     Node 20, Type 0, BuildingBlock: XOMCOT_clean_sbu_0, # of connection points: 5
#     Node 21, Type 0, BuildingBlock: XOMCOT_clean_sbu_0, # of connection points: 5
#     Node 22, Type 0, BuildingBlock: XOMCOT_clean_sbu_0, # of connection points: 5
#     Node 23, Type 0, BuildingBlock: XOMCOT_clean_sbu_0, # of connection points: 5
#     Node 24, Type 0, BuildingBlock: XOMCOT_clean_sbu_0, # of connection points: 5
#     Node 25, Type 0, BuildingBlock: XOMCOT_clean_sbu_0, # of connection points: 5
#     Node 26, Type 0, BuildingBlock: XOMCOT_clean_sbu_0, # of connection points: 5
#     Node 27, Type 0, BuildingBlock: XOMCOT_clean_sbu_0, # of connection points: 5
#     Node 28, Type 0, BuildingBlock: XOMCOT_clean_sbu_0, # of connection points: 5
#     Node 29, Type 0, BuildingBlock: XOMCOT_clean_sbu_0, # of connection points: 5
#     Node 30, Type 0, BuildingBlock: XOMCOT_clean_sbu_0, # of connection points: 5
#     Node 31, Type 0, BuildingBlock: XOMCOT_clean_sbu_0, # of connection points: 5
#     Node 32, Type 0, BuildingBlock: XOMCOT_clean_sbu_0, # of connection points: 5
#     Node 33, Type 0, BuildingBlock: XOMCOT_clean_sbu_0, # of connection points: 5
#     Node 34, Type 0, BuildingBlock: XOMCOT_clean_sbu_0, # of connection points: 5
#     Node 35, Type 0, BuildingBlock: XOMCOT_clean_sbu_0, # of connection points: 5
#     Edge 36, Type (0, 0), BuildingBlock: XIVTED_clean_linker_0, # of connection points: 2
#     Edge 37, Type (0, 0), BuildingBlock: XIVTED_clean_linker_0, # of connection points: 2
#     Edge 38, Type (0, 0), BuildingBlock: XIVTED_clean_linker_0, # of connection points: 2
#     Edge 39, Type (0, 0), BuildingBlock: XIVTED_clean_linker_0, # of connection points: 2
#     Edge 40, Type (0, 0), BuildingBlock: XIVTED_clean_linker_0, # of connection points: 2
#     Edge 41, Type (0, 0), BuildingBlock: XIVTED_clean_linker_0, # of connection points: 2
#     Edge 42, Type (0, 0), BuildingBlock: XIVTED_clean_linker_0, # of connection points: 2
#     Edge 43, Type (0, 0), BuildingBlock: XIVTED_clean_linker_0, # of connection points: 2
#     Edge 44, Type (0, 0), BuildingBlock: XIVTED_clean_linker_0, # of connection points: 2
#     Edge 45, Type (0, 0), BuildingBlock: XIVTED_clean_linker_0, # of connection points: 2
#     Edge 46, Type (0, 0), BuildingBlock: XIVTED_clean_linker_0, # of connection points: 2
#     Edge 47, Type (0, 0), BuildingBlock: XIVTED_clean_linker_0, # of connection points: 2
#     Edge 48, Type (0, 0), BuildingBlock: XIVTED_clean_linker_0, # of connection points: 2
#     Edge 49, Type (0, 0), BuildingBlock: XIVTED_clean_linker_0, # of connection points: 2
#     Edge 50, Type (0, 0), BuildingBlock: XIVTED_clean_linker_0, # of connection points: 2
#     Edge 51, Type (0, 0), BuildingBlock: XIVTED_clean_linker_0, # of connection points: 2
#     Edge 52, Type (0, 0), BuildingBlock: XIVTED_clean_linker_0, # of connection points: 2
#     Edge 53, Type (0, 0), BuildingBlock: XIVTED_clean_linker_0, # of connection points: 2
#     Edge 54, Type (0, 0), BuildingBlock: XIVTED_clean_linker_0, # of connection points: 2
#     Edge 55, Type (0, 0), BuildingBlock: XIVTED_clean_linker_0, # of connection points: 2
#     Edge 56, Type (0, 0), BuildingBlock: XIVTED_clean_linker_0, # of connection points: 2
#     Edge 57, Type (0, 0), BuildingBlock: XIVTED_clean_linker_0, # of connection points: 2
#     Edge 58, Type (0, 0), BuildingBlock: XIVTED_clean_linker_0, # of connection points: 2
#     Edge 59, Type (0, 0), BuildingBlock: XIVTED_clean_linker_0, # of connection points: 2
#     Edge 60, Type (0, 0), BuildingBlock: XIVTED_clean_linker_0, # of connection points: 2
#     Edge 61, Type (0, 0), BuildingBlock: XIVTED_clean_linker_0, # of connection points: 2
#     Edge 62, Type (0, 0), BuildingBlock: XIVTED_clean_linker_0, # of connection points: 2
#     Edge 63, Type (0, 0), BuildingBlock: XIVTED_clean_linker_0, # of connection points: 2
#     Edge 64, Type (0, 0), BuildingBlock: XIVTED_clean_linker_0, # of connection points: 2
#     Edge 65, Type (0, 0), BuildingBlock: XIVTED_clean_linker_0, # of connection points: 2
#     Edge 66, Type (0, 0), BuildingBlock: XIVTED_clean_linker_0, # of connection points: 2
#     Edge 67, Type (0, 0), BuildingBlock: XIVTED_clean_linker_0, # of connection points: 2
#     Edge 68, Type (0, 0), BuildingBlock: XIVTED_clean_linker_0, # of connection points: 2
#     Edge 69, Type (0, 0), BuildingBlock: XIVTED_clean_linker_0, # of connection points: 2
#     Edge 70, Type (0, 0), BuildingBlock: XIVTED_clean_linker_0, # of connection points: 2
#     Edge 71, Type (0, 0), BuildingBlock: XIVTED_clean_linker_0, # of connection points: 2
#     Edge 72, Type (0, 0), BuildingBlock: XIVTED_clean_linker_0, # of connection points: 2
#     Edge 73, Type (0, 0), BuildingBlock: XIVTED_clean_linker_0, # of connection points: 2
#     Edge 74, Type (0, 0), BuildingBlock: XIVTED_clean_linker_0, # of connection points: 2
#     Edge 75, Type (0, 0), BuildingBlock: XIVTED_clean_linker_0, # of connection points: 2
#     Edge 76, Type (0, 0), BuildingBlock: XIVTED_clean_linker_0, # of connection points: 2
#     Edge 77, Type (0, 0), BuildingBlock: XIVTED_clean_linker_0, # of connection points: 2
#     Edge 78, Type (0, 0), BuildingBlock: XIVTED_clean_linker_0, # of connection points: 2
#     Edge 79, Type (0, 0), BuildingBlock: XIVTED_clean_linker_0, # of connection points: 2
#     Edge 80, Type (0, 0), BuildingBlock: XIVTED_clean_linker_0, # of connection points: 2
#     Edge 81, Type (0, 0), BuildingBlock: XIVTED_clean_linker_0, # of connection points: 2
#     Edge 82, Type (0, 0), BuildingBlock: XIVTED_clean_linker_0, # of connection points: 2
#     Edge 83, Type (0, 0), BuildingBlock: XIVTED_clean_linker_0, # of connection points: 2
#     Edge 84, Type (0, 0), BuildingBlock: XIVTED_clean_linker_0, # of connection points: 2
#     Edge 85, Type (0, 0), BuildingBlock: XIVTED_clean_linker_0, # of connection points: 2
#     Edge 86, Type (0, 0), BuildingBlock: XIVTED_clean_linker_0, # of connection points: 2
#     Edge 87, Type (0, 0), BuildingBlock: XIVTED_clean_linker_0, # of connection points: 2
#     Edge 88, Type (0, 0), BuildingBlock: XIVTED_clean_linker_0, # of connection points: 2
#     Edge 89, Type (0, 0), BuildingBlock: XIVTED_clean_linker_0, # of connection points: 2
#     Edge 90, Type (0, 0), BuildingBlock: XIVTED_clean_linker_0, # of connection points: 2
#     Edge 91, Type (0, 0), BuildingBlock: XIVTED_clean_linker_0, # of connection points: 2
#     Edge 92, Type (0, 0), BuildingBlock: XIVTED_clean_linker_0, # of connection points: 2
#     Edge 93, Type (0, 0), BuildingBlock: XIVTED_clean_linker_0, # of connection points: 2
#     Edge 94, Type (0, 0), BuildingBlock: XIVTED_clean_linker_0, # of connection points: 2
#     Edge 95, Type (0, 0), BuildingBlock: XIVTED_clean_linker_0, # of connection points: 2
#     Edge 96, Type (0, 0), BuildingBlock: XIVTED_clean_linker_0, # of connection points: 2
#     Edge 97, Type (0, 0), BuildingBlock: XIVTED_clean_linker_0, # of connection points: 2
#     Edge 98, Type (0, 0), BuildingBlock: XIVTED_clean_linker_0, # of connection points: 2
#     Edge 99, Type (0, 0), BuildingBlock: XIVTED_clean_linker_0, # of connection points: 2
#     Edge 100, Type (0, 0), BuildingBlock: XIVTED_clean_linker_0, # of connection points: 2
#     Edge 101, Type (0, 0), BuildingBlock: XIVTED_clean_linker_0, # of connection points: 2
#     Edge 102, Type (0, 0), BuildingBlock: XIVTED_clean_linker_0, # of connection points: 2
#     Edge 103, Type (0, 0), BuildingBlock: XIVTED_clean_linker_0, # of connection points: 2
#     Edge 104, Type (0, 0), BuildingBlock: XIVTED_clean_linker_0, # of connection points: 2
#     Edge 105, Type (0, 0), BuildingBlock: XIVTED_clean_linker_0, # of connection points: 2
#     Edge 106, Type (0, 0), BuildingBlock: XIVTED_clean_linker_0, # of connection points: 2
#     Edge 107, Type (0, 0), BuildingBlock: XIVTED_clean_linker_0, # of connection points: 2
#     Edge 108, Type (0, 0), BuildingBlock: XIVTED_clean_linker_0, # of connection points: 2
#     Edge 109, Type (0, 0), BuildingBlock: XIVTED_clean_linker_0, # of connection points: 2
#     Edge 110, Type (0, 0), BuildingBlock: XIVTED_clean_linker_0, # of connection points: 2
#     Edge 111, Type (0, 0), BuildingBlock: XIVTED_clean_linker_0, # of connection points: 2
#     Edge 112, Type (0, 0), BuildingBlock: XIVTED_clean_linker_0, # of connection points: 2
#     Edge 113, Type (0, 0), BuildingBlock: XIVTED_clean_linker_0, # of connection points: 2
#     Edge 114, Type (0, 0), BuildingBlock: XIVTED_clean_linker_0, # of connection points: 2
#     Edge 115, Type (0, 0), BuildingBlock: XIVTED_clean_linker_0, # of connection points: 2
#     Edge 116, Type (0, 0), BuildingBlock: XIVTED_clean_linker_0, # of connection points: 2
#     Edge 117, Type (0, 0), BuildingBlock: XIVTED_clean_linker_0, # of connection points: 2
#     Edge 118, Type (0, 0), BuildingBlock: XIVTED_clean_linker_0, # of connection points: 2
#     Edge 119, Type (0, 0), BuildingBlock: XIVTED_clean_linker_0, # of connection points: 2
#     Edge 120, Type (0, 0), BuildingBlock: XIVTED_clean_linker_0, # of connection points: 2
#     Edge 121, Type (0, 0), BuildingBlock: XIVTED_clean_linker_0, # of connection points: 2
#     Edge 122, Type (0, 0), BuildingBlock: XIVTED_clean_linker_0, # of connection points: 2
#     Edge 123, Type (0, 0), BuildingBlock: XIVTED_clean_linker_0, # of connection points: 2
#     Edge 124, Type (0, 0), BuildingBlock: XIVTED_clean_linker_0, # of connection points: 2
#     Edge 125, Type (0, 0), BuildingBlock: XIVTED_clean_linker_0, # of connection points: 2
# Relax obj value: 0.243
# Max RMSD: 0.184
# Mean RMSD: 0.184
data_MOF--net-wls--node1-XOMCOT_clean_sbu_0--edge1-XIVTED_clean_linker_0
_symmetry_space_group_name_H-M    P1
_symmetry_Int_Tables_number       1
_symmetry_cell_setting            triclinic
loop_
_symmetry_equiv_pos_as_xyz
'x, y, z'
_cell_length_a     77.508686
_cell_length_b     77.536767
_cell_length_c     37.360218
_cell_angle_alpha  90.020969
_cell_angle_beta   89.982607
_cell_angle_gamma 119.96202
loop_
_atom_site_label
_atom_site_type_symbol
_atom_site_fract_x
_atom_site_fract_y
_atom_site_fract_z
_atom_type_partial_charge
Co0 Co 0.26169 0.21298 0.06627 0.0
C1 C 0.24628 0.16913 0.0581 0.0
C2 C 0.26061 0.18038 0.10862 0.0
C3 C 0.25426 0.16033 0.10705 0.0
N4 N 0.25505 0.18586 0.07845 0.0
N5 N 0.24529 0.15326 0.07526 0.0
H6 H 0.24125 0.16855 0.03098 0.0
H7 H 0.26911 0.19036 0.13012 0.0
C8 C 0.24659 0.20921 0.14333 0.0
O9 O 0.23201 0.19183 0.13276 0.0
N10 N 0.26846 0.23942 0.05325 0.0
C11 C 0.26344 0.24489 0.02251 0.0
C12 C 0.26994 0.26489 0.02421 0.0
C13 C 0.27799 0.25592 0.07313 0.0
N14 N 0.27896 0.27168 0.0561 0.0
C15 C 0.22269 0.19433 0.03179 0.0
C16 C 0.20906 0.21589 0.06943 0.0
C17 C 0.19771 0.20435 0.0405 0.0
C18 C 0.20466 0.19328 0.02175 0.0
C19 C 0.22697 0.21677 0.07813 0.0
N20 N 0.23364 0.20584 0.06 0.0
H21 H 0.22849 0.18711 1.01503 0.0
H22 H 0.23623 0.22774 0.09764 0.0
H23 H 0.25516 0.2349 1.00085 0.0
H24 H 0.28398 0.25634 0.09947 0.0
O25 O 0.26827 0.20934 1.01695 0.0
O26 O 0.29004 0.22068 0.06064 0.0
O27 O 0.26064 0.21966 0.12063 0.0
C28 C 0.28679 0.21682 0.02648 0.0
H29 H 0.25679 0.15178 0.12716 0.0
H30 H 0.26769 0.27361 1.00408 0.0
H31 H 0.20496 0.22545 0.08378 0.0
H32 H 0.19663 0.18444 0.9987 0.0
Co33 Co 0.80433 0.05057 0.06213 0.0
C34 C 0.8483 0.07859 0.05486 0.0
C35 C 0.83624 0.0836 0.1028 0.0
C36 C 0.85626 0.09741 0.10124 0.0
N37 N 0.83127 0.0714 0.07425 0.0
N38 N 0.86386 0.09429 0.07106 0.0
H39 H 0.84935 0.07291 0.02912 0.0
H40 H 0.8259 0.08277 0.12311 0.0
C41 C 0.80891 0.04058 0.13966 0.0
O42 O 0.82656 0.04415 0.12906 0.0
N43 N 0.77805 0.03039 0.04861 0.0
C44 C 0.77326 0.02107 1.01664 0.0
C45 C 0.75399 1.00571 1.01802 0.0
C46 C 0.76174 0.02068 0.06909 0.0
N47 N 0.74687 1.00545 0.05103 0.0
C48 C 0.82241 0.03006 0.02639 0.0
C49 C 0.80113 0.99518 0.06481 0.0
C50 C 0.81102 0.9948 0.0339 0.0
C51 C 0.82237 0.01268 1.01514 0.0
C52 C 0.8015 0.01263 0.075 0.0
N53 N 0.81194 0.02999 0.056 0.0
H54 H 0.82915 0.04287 1.00907 0.0
H55 H 0.79131 0.0112 0.09588 0.0
H56 H 0.7834 0.0246 0.99436 0.0
H57 H 0.76091 0.02441 0.0967 0.0
O58 O 0.80803 0.06088 1.01288 0.0
O59 O 0.79613 0.07083 0.05641 0.0
O60 O 0.79781 0.04305 0.11663 0.0
C61 C 0.80027 0.07167 0.02236 0.0
H62 H 0.86445 0.10928 0.12027 0.0
H63 H 0.74612 0.99508 0.99691 0.0
H64 H 0.79179 0.9816 0.07956 0.0
H65 H 0.82974 0.01284 0.99041 0.0
Co66 Co 0.96932 0.75974 0.06749 0.0
C67 C 0.94102 0.77564 0.06176 0.0
C68 C 0.93456 0.75567 0.10591 0.0
C69 C 0.9203 0.76128 0.10474 0.0
N70 N 0.94782 0.76491 0.07942 0.0
N71 N 0.92429 0.77386 0.07696 0.0
H72 H 0.9478 0.78421 0.03793 0.0
H73 H 0.93497 0.74513 0.12435 0.0
C74 C 0.97775 0.77341 0.14557 0.0
O75 O 0.97325 0.78698 0.13581 0.0
N76 N 0.99021 0.75456 0.05441 0.0
C77 C 0.99975 0.75936 0.02266 0.0
C78 C 0.01561 0.75619 0.0246 0.0
C79 C 1.00027 0.74854 0.0753 0.0
N80 N 0.01594 0.74952 0.05774 0.0
C81 C 0.98946 0.79789 0.03072 0.0
C82 C 0.02389 0.81261 0.07092 0.0
C83 C 0.02468 0.822 0.03862 0.0
C84 C 1.00697 0.81497 0.01899 0.0
C85 C 1.00636 0.79573 0.08148 0.0
N86 N 0.98927 0.78814 0.06144 0.0
H87 H 0.9768 0.79138 1.01296 0.0
H88 H 1.00772 0.78755 0.10344 0.0
H89 H 0.99598 0.76559 1.00012 0.0
H90 H 0.99642 0.74386 0.10282 0.0
O91 O 0.95916 0.75274 1.0182 0.0
O92 O 0.94985 0.73114 0.06208 0.0
O93 O 0.97652 0.76069 0.12183 0.0
C94 C 0.94888 0.73419 0.028 0.0
H95 H 0.90751 0.75584 0.12225 0.0
H96 H 0.02644 0.75924 1.00371 0.0
H97 H 0.03728 0.81728 0.08656 0.0
H98 H 1.00707 0.82152 0.99334 0.0
Co99 Co 0.22238 0.26002 0.46866 0.0
C100 C 0.17863 0.24634 0.47255 0.0
C101 C 0.1942 0.26848 0.43218 0.0
C102 C 0.17486 0.26457 0.43356 0.0
N103 N 0.19662 0.25696 0.45631 0.0
N104 N 0.16503 0.25073 0.45903 0.0
H105 H 0.1758 0.2365 0.49502 0.0
H106 H 0.20594 0.27946 0.41546 0.0
C107 C 0.21696 0.24837 0.3891 0.0
O108 O 0.19819 0.23643 0.39754 0.0
N109 N 0.24758 0.26304 0.48225 0.0
C110 C 0.2515 0.25765 0.5142 0.0
C111 C 0.26982 0.25906 0.51261 0.0
C112 C 0.26346 0.2676 0.46156 0.0
N113 N 0.27722 0.2652 0.47948 0.0
C114 C 0.20315 0.22169 0.50441 0.0
C115 C 0.21843 0.20441 0.45933 0.0
C116 C 0.21144 0.19563 0.49284 0.0
C117 C 0.20287 0.20405 0.51497 0.0
C118 C 0.21941 0.22233 0.45078 0.0
N119 N 0.21199 0.23113 0.47305 0.0
H120 H 0.19816 0.22881 0.52332 0.0
H121 H 0.22848 0.2299 0.42807 0.0
H122 H 0.24138 0.25225 0.5367 0.0
H123 H 0.26483 0.27236 0.43399 0.0
O124 O 0.21911 0.26662 0.51836 0.0
O125 O 0.23316 0.28893 0.47612 0.0
O126 O 0.22895 0.25953 0.41409 0.0
C127 C 0.22834 0.28539 0.50987 0.0
H128 H 0.16863 0.27176 0.41753 0.0
H129 H 0.27688 0.2553 0.53381 0.0
H130 H 0.22473 0.19842 0.44055 0.0
H131 H 0.1973 0.198 0.54129 0.0
Co132 Co 0.76079 0.9669 0.46696 0.0
C133 C 0.77421 0.93675 0.47339 0.0
C134 C 0.75438 0.9312 0.42927 0.0
C135 C 0.75847 0.91591 0.43123 0.0
N136 N 0.76445 0.94448 0.45525 0.0
N137 N 0.77082 0.91919 0.45916 0.0
H138 H 0.78276 0.94323 0.49743 0.0
H139 H 0.74431 0.93232 0.41063 0.0
C140 C 0.77345 0.97385 0.38764 0.0
O141 O 0.78592 0.96773 0.39646 0.0
N142 N 0.75722 0.98882 0.47998 0.0
C143 C 0.76217 0.99813 0.51197 0.0
C144 C 0.76064 0.01496 0.50986 0.0
C145 C 0.7528 1.00005 0.45878 0.0
N146 N 0.75489 0.01617 0.47638 0.0
C147 C 0.79858 0.98605 0.5044 0.0
C148 C 0.81652 0.01876 0.45986 0.0
C149 C 0.82495 0.0204 0.49374 0.0
C150 C 0.81609 1.0033 0.51563 0.0
C151 C 0.79862 1.00193 0.45071 0.0
N152 N 0.78956 0.98561 0.47264 0.0
H153 H 0.79123 0.97387 0.52306 0.0
H154 H 0.7913 1.00349 0.42765 0.0
H155 H 0.76738 0.99349 0.53484 0.0
H156 H 0.74841 0.99665 0.43105 0.0
O157 O 0.75364 0.95693 0.51647 0.0
O158 O 0.73188 0.94849 0.47314 0.0
O159 O 0.76179 0.97408 0.4123 0.0
C160 C 0.735 0.94722 0.50709 0.0
H161 H 0.75248 0.90318 0.41351 0.0
H162 H 0.76411 0.02578 0.53095 0.0
H163 H 0.82282 0.03098 0.44103 0.0
H164 H 0.82172 1.00355 0.54223 0.0
Co165 Co 0.05127 0.79851 0.47174 0.0
C166 C 0.0822 0.84185 0.47767 0.0
C167 C 0.08637 0.82757 0.43202 0.0
C168 C 0.10183 0.84689 0.43341 0.0
N169 N 0.0738 0.8244 0.45933 0.0
N170 N 0.09934 0.85595 0.46224 0.0
H171 H 0.07658 0.84397 0.50268 0.0
H172 H 0.08464 0.81639 0.41275 0.0
C173 C 0.04293 0.80442 0.39416 0.0
O174 O 0.04853 0.82269 0.40441 0.0
N175 N 0.02938 0.7732 0.48539 0.0
C176 C 0.01969 0.76935 0.51692 0.0
C177 C 1.0037 0.7504 0.51597 0.0
C178 C 0.01929 0.75667 0.4656 0.0
N179 N 1.00345 0.74253 0.48368 0.0
C180 C 0.03392 0.81956 0.50768 0.0
C181 C 0.99942 0.80253 0.46729 0.0
C182 C 1.00001 0.81298 0.49818 0.0
C183 C 0.01773 0.82186 0.51827 0.0
C184 C 0.01559 0.80025 0.45818 0.0
N185 N 0.03284 0.80885 0.4778 0.0
H186 H 0.04652 0.82486 0.52542 0.0
H187 H 0.01306 0.78965 0.43738 0.0
H188 H 0.02363 0.77984 0.53872 0.0
H189 H 0.02339 0.75509 0.43863 0.0
O190 O 0.06154 0.80134 0.52087 0.0
O191 O 0.06942 0.78773 0.47704 0.0
O192 O 0.04351 0.79237 0.41748 0.0
C193 C 0.07094 0.79214 0.51102 0.0
H194 H 0.11407 0.85362 0.41465 0.0
H195 H 0.99282 0.74319 0.53703 0.0
H196 H 0.98586 0.79458 0.45178 0.0
H197 H 0.01877 0.82975 0.54282 0.0
Co198 Co 0.76036 0.79878 0.96518 0.0
C199 C 0.77333 0.84241 0.96788 0.0
C200 C 0.75179 0.82638 0.9269 0.0
C201 C 0.75553 0.84567 0.92728 0.0
N202 N 0.76306 0.82428 0.95204 0.0
N203 N 0.76901 0.85578 0.95311 0.0
H204 H 0.78289 0.8456 0.99084 0.0
H205 H 0.74113 0.81447 0.91005 0.0
C206 C 0.77201 0.80353 0.88564 0.0
O207 O 0.78443 0.8223 0.89325 0.0
N208 N 0.75749 0.7738 0.97898 0.0
C209 C 0.7648 0.77011 1.0089 0.0
C210 C 0.76022 0.75058 1.0083 0.0
C211 C 0.74848 0.75668 0.96071 0.0
N212 N 0.75001 0.74224 0.97794 0.0
C213 C 0.7989 0.82004 0.99986 0.0
C214 C 0.81638 0.80324 0.95883 0.0
C215 C 0.82595 0.81298 0.99048 0.0
C216 C 0.81719 0.82194 1.01062 0.0
C217 C 0.79811 0.80142 0.94938 0.0
N218 N 0.7893 0.80961 0.96973 0.0
H219 H 0.7916 0.82528 1.0178 0.0
H220 H 0.79022 0.7913 0.92787 0.0
H221 H 0.77305 0.78092 0.02952 0.0
H222 H 0.74073 0.75482 0.93567 0.0
O223 O 0.75353 0.80194 1.01479 0.0
O224 O 0.73143 0.78767 0.97222 0.0
O225 O 0.76096 0.79188 0.91103 0.0
C226 C 0.73477 0.79241 1.00601 0.0
H227 H 0.74853 0.85168 0.91021 0.0
H228 H 0.76426 0.7432 0.02842 0.0
H229 H 0.82199 0.79541 0.94295 0.0
H230 H 0.82388 0.82951 0.03548 0.0
Co231 Co 0.22148 0.96444 0.9654 0.0
C232 C 0.17802 0.93392 0.9687 0.0
C233 C 0.19449 0.92608 0.93242 0.0
C234 C 0.17519 0.91055 0.93394 0.0
N235 N 0.1963 0.94083 0.95391 0.0
N236 N 0.1648 0.91538 0.95687 0.0
H237 H 0.17466 0.94175 0.98896 0.0
H238 H 0.20656 0.92643 0.9173 0.0
C239 C 0.2162 0.968 0.88412 0.0
O240 O 0.19694 0.95897 0.89003 0.0
N241 N 0.24606 0.98752 0.97809 0.0
C242 C 0.24945 0.99841 1.00809 0.0
C243 C 0.26841 0.01436 1.00667 0.0
C244 C 0.2629 0.99675 0.95895 0.0
N245 N 0.27684 0.01327 0.97578 0.0
C246 C 0.20158 0.98256 1.00143 0.0
C247 C 0.21322 0.01352 0.95361 0.0
C248 C 0.20794 0.01612 0.98824 0.0
C249 C 0.20103 0.99978 1.01174 0.0
C250 C 0.21457 0.99672 0.94514 0.0
N251 N 0.20941 0.98156 0.96915 0.0
H252 H 0.19789 0.97109 0.02121 0.0
H253 H 0.22197 0.99755 0.9205 0.0
H254 H 0.23888 0.99503 0.02954 0.0
H255 H 0.26499 0.99121 0.9337 0.0
O256 O 0.21908 0.95525 1.01545 0.0
O257 O 0.23384 0.94773 0.97336 0.0
O258 O 0.22805 0.97123 0.91091 0.0
C259 C 0.22917 0.94653 1.00715 0.0
H260 H 0.16936 0.89659 0.91967 0.0
H261 H 0.27537 0.02582 0.02684 0.0
H262 H 0.21784 0.02506 0.93356 0.0
H263 H 0.19665 1.00072 0.03884 0.0
Co264 Co 0.05394 0.25726 0.97226 0.0
C265 C 0.08325 0.24326 0.97727 0.0
C266 C 0.08628 0.25919 0.9285 0.0
C267 C 0.10035 0.25328 0.92878 0.0
N268 N 0.07553 0.25285 0.95878 0.0
N269 N 0.09848 0.24322 0.95942 0.0
H270 H 0.07771 0.23638 1.00309 0.0
H271 H 0.08416 0.2677 0.90779 0.0
C272 C 0.02636 0.24362 0.90584 0.0
O273 O 1.0114 0.23497 0.92841 0.0
N274 N 0.03274 0.26204 0.98646 0.0
C275 C 0.02408 0.25944 0.01897 0.0
C276 C 1.01019 0.26549 1.01739 0.0
C277 C 0.02487 0.27075 0.96641 0.0
N278 N 1.01061 0.27226 0.98413 0.0
C279 C 0.03176 0.22338 1.01785 0.0
C280 C 0.01238 0.1956 0.96478 0.0
C281 C 1.00434 0.19131 0.99959 0.0
C282 C 0.01517 0.20508 0.02664 0.0
C283 C 0.02925 0.2142 0.95735 0.0
N284 N 0.03706 0.22869 0.98303 0.0
H285 H 0.03955 0.23377 0.03913 0.0
H286 H 0.03511 0.21727 0.93045 0.0
H287 H 0.02784 0.25417 0.04274 0.0
H288 H 0.02954 0.27601 0.93937 0.0
O289 O 0.066 0.26673 0.01961 0.0
O290 O 0.07221 0.28645 0.97353 0.0
O291 O 0.04435 0.25323 0.9185 0.0
C292 C 0.07483 0.28488 1.00766 0.0
H293 H 0.11141 0.25659 0.90821 0.0
H294 H 1.00046 0.26481 0.0388 0.0
H295 H 1.00537 0.18499 0.94325 0.0
H296 H 1.01027 0.20244 0.05423 0.0
Co297 Co 0.80298 0.75853 0.55881 0.0
C298 C 0.84637 0.77295 0.55655 0.0
C299 C 0.8324 0.75538 0.60335 0.0
C300 C 0.8524 0.76142 0.60426 0.0
N301 N 0.82866 0.76266 0.57355 0.0
N302 N 0.86126 0.77251 0.57485 0.0
H303 H 0.84825 0.78064 0.53144 0.0
H304 H 0.82131 0.74616 0.62289 0.0
C305 C 0.78752 0.77102 0.62507 0.0
O306 O 0.7807 0.77916 0.60244 0.0
N307 N 0.77738 0.7541 0.54321 0.0
C308 C 0.7723 0.75836 0.51117 0.0
C309 C 0.7524 0.75252 0.51166 0.0
C310 C 0.76031 0.7446 0.56172 0.0
N311 N 0.7451 0.7442 0.54372 0.0
C312 C 0.81644 0.79287 0.51363 0.0
C313 C 0.81992 0.81936 0.56627 0.0
C314 C 0.81689 0.82326 0.53075 0.0
C315 C 0.81696 0.81054 0.50408 0.0
C316 C 0.8196 0.80145 0.57446 0.0
N317 N 0.81492 0.78727 0.54864 0.0
H318 H 0.81539 0.78287 0.49258 0.0
H319 H 0.82161 0.79852 0.60191 0.0
H320 H 0.78202 0.76486 0.48851 0.0
H321 H 0.75907 0.73832 0.58808 0.0
O322 O 0.80619 0.74936 0.5115 0.0
O323 O 0.79194 0.72925 0.5567 0.0
O324 O 0.79668 0.76213 0.61248 0.0
C325 C 0.79667 0.7311 0.52279 0.0
H326 H 0.8597 0.7575 0.62473 0.0
H327 H 0.74407 0.75458 0.49048 0.0
H328 H 0.82111 0.82924 0.58781 0.0
H329 H 0.81615 0.81357 0.47601 0.0
Co330 Co 0.26193 0.0497 0.56135 0.0
C331 C 0.24875 0.07957 0.55469 0.0
C332 C 0.25684 0.07725 0.60869 0.0
C333 C 0.25014 0.09071 0.60795 0.0
N334 N 0.25587 0.07018 0.57536 0.0
N335 N 0.24508 0.0922 0.57402 0.0
H336 H 0.24597 0.07697 0.52626 0.0
H337 H 0.26202 0.07296 0.63206 0.0
C338 C 0.24971 0.02137 0.62674 0.0
O339 O 0.24232 1.00673 0.60339 0.0
N340 N 0.26825 0.02965 0.54676 0.0
C341 C 0.26478 0.01993 0.5152 0.0
C342 C 0.27186 1.00684 0.51721 0.0
C343 C 0.2785 0.02335 0.56641 0.0
N344 N 0.28012 0.0089 0.5497 0.0
C345 C 0.22849 0.02736 0.51497 0.0
C346 C 0.2014 1.00447 0.56694 0.0
C347 C 0.19802 0.99741 0.53148 0.0
C348 C 0.21104 0.0101 0.50508 0.0
C349 C 0.21909 0.02218 0.57549 0.0
N350 N 0.23356 0.03172 0.55014 0.0
H351 H 0.23866 0.03627 0.49413 0.0
H352 H 0.22163 0.02725 0.60289 0.0
H353 H 0.25781 0.0221 0.49204 0.0
H354 H 0.28419 0.02881 0.59296 0.0
O355 O 0.27098 0.06207 0.51412 0.0
O356 O 0.29099 0.06921 0.55992 0.0
O357 O 0.25817 0.03955 0.6149 0.0
C358 C 0.28916 0.07157 0.52575 0.0
H359 H 0.24938 0.09904 0.63057 0.0
H360 H 0.27041 0.99619 0.497 0.0
H361 H 0.19128 0.99582 0.58821 0.0
H362 H 0.20839 1.00616 0.477 0.0
Co363 Co 0.97078 0.2167 0.5666 0.0
C364 C 0.94179 0.17303 0.56009 0.0
C365 C 0.93685 0.18567 0.60731 0.0
C366 C 0.9228 0.1657 0.60617 0.0
N367 N 0.94918 0.1902 0.57899 0.0
N368 N 0.92588 0.15779 0.57642 0.0
H369 H 0.94747 0.17167 0.53452 0.0
H370 H 0.93779 0.19625 0.62718 0.0
C371 C 0.979 0.21206 0.64534 0.0
O372 O 0.97494 0.19401 0.63644 0.0
N373 N 0.99179 0.24247 0.55276 0.0
C374 C 1.00147 0.24656 0.52117 0.0
C375 C 0.01694 0.26576 0.52188 0.0
C376 C 1.0014 0.25913 0.57236 0.0
N377 N 0.01689 0.27357 0.55407 0.0
C378 C 0.9906 0.19773 0.53154 0.0
C379 C 0.02506 0.21772 0.57162 0.0
C380 C 0.0257 0.20838 0.54014 0.0
C381 C 1.00798 0.1976 0.52059 0.0
C382 C 1.00766 0.2176 0.58144 0.0
N383 N 0.99057 0.20794 0.56147 0.0
H384 H 0.97797 0.19144 0.51375 0.0
H385 H 1.00912 0.22757 0.60273 0.0
H386 H 0.99792 0.23605 0.49953 0.0
H387 H 0.99724 0.26057 0.59937 0.0
O388 O 0.96064 0.21329 0.51714 0.0
O389 O 0.95148 0.22605 0.56046 0.0
O390 O 0.97798 0.22337 0.62092 0.0
C391 C 0.95053 0.22185 0.52647 0.0
H392 H 0.91071 0.15779 0.62495 0.0
H393 H 0.02772 0.2732 0.50076 0.0
H394 H 0.03848 0.22656 0.58713 0.0
H395 H 1.00797 0.19059 0.4955 0.0
Co396 Co 0.92856 0.55075 0.40552 0.0
C397 C 0.91574 0.50718 0.40097 0.0
C398 C 0.93713 0.52275 0.44244 0.0
C399 C 0.93352 0.50352 0.44109 0.0
N400 N 0.92587 0.5251 0.41765 0.0
N401 N 0.92016 0.49367 0.41489 0.0
H402 H 0.90619 0.50434 0.37805 0.0
H403 H 0.9477 0.53446 0.45974 0.0
C404 C 0.91652 0.54498 0.48477 0.0
O405 O 0.90461 0.52625 0.47607 0.0
N406 N 0.93125 0.57582 0.39218 0.0
C407 C 0.92532 0.57962 0.36069 0.0
C408 C 0.92776 0.59837 0.36195 0.0
C409 C 0.93722 0.59219 0.41223 0.0
N410 N 0.93517 0.60618 0.39436 0.0
C411 C 0.89057 0.5311 0.36873 0.0
C412 C 0.87235 0.5457 0.4131 0.0
C413 C 0.86398 0.53883 0.37923 0.0
C414 C 0.87293 0.53061 0.35748 0.0
C415 C 0.89034 0.54695 0.42233 0.0
N416 N 0.89961 0.5399 0.40037 0.0
H417 H 0.89804 0.52637 0.35009 0.0
H418 H 0.89757 0.55587 0.44539 0.0
H419 H 0.91917 0.56927 0.33862 0.0
H420 H 0.94295 0.59383 0.43916 0.0
O421 O 0.93566 0.54798 0.35601 0.0
O422 O 0.95756 0.56206 0.39897 0.0
O423 O 0.92767 0.55709 0.45997 0.0
C424 C 0.95436 0.5575 0.36509 0.0
H425 H 0.94052 0.49738 0.45783 0.0
H426 H 0.924 0.60551 0.34092 0.0
H427 H 0.86596 0.55161 0.43179 0.0
H428 H 0.8673 0.52514 0.33091 0.0
Co429 Co 0.46694 0.38166 0.40264 0.0
C430 C 0.51081 0.41098 0.39979 0.0
C431 C 0.49587 0.41749 0.44139 0.0
C432 C 0.51565 0.43211 0.44123 0.0
N433 N 0.49283 0.40401 0.41582 0.0
N434 N 0.5251 0.42807 0.41501 0.0
H435 H 0.51344 0.40401 0.37713 0.0
H436 H 0.48436 0.41692 0.45856 0.0
C437 C 0.47162 0.37398 0.48197 0.0
O438 O 0.49037 0.38025 0.47424 0.0
N439 N 0.44171 0.35983 0.38821 0.0
C440 C 0.43793 0.35082 0.35597 0.0
C441 C 0.41945 0.3341 0.35689 0.0
C442 C 0.42562 0.34852 0.4084 0.0
N443 N 0.41185 0.33264 0.3899 0.0
C444 C 0.48729 0.36374 0.36673 0.0
C445 C 0.471 0.32978 0.40843 0.0
C446 C 0.48073 0.32989 0.37681 0.0
C447 C 0.48934 0.34741 0.35619 0.0
C448 C 0.46908 0.34618 0.41769 0.0
N449 N 0.4772 0.36312 0.39723 0.0
H450 H 0.49231 0.37613 0.34853 0.0
H451 H 0.45903 0.34398 0.43931 0.0
H452 H 0.44824 0.35561 0.33376 0.0
H453 H 0.4241 0.35167 0.43606 0.0
O454 O 0.47042 0.39213 0.35341 0.0
O455 O 0.45634 0.40001 0.39627 0.0
O456 O 0.46005 0.37383 0.45679 0.0
C457 C 0.46116 0.40158 0.36248 0.0
H458 H 0.52236 0.44512 0.45832 0.0
H459 H 0.41245 0.3235 0.33535 0.0
H460 H 0.46332 0.31643 0.42455 0.0
H461 H 0.4968 0.34821 0.33124 0.0
Co462 Co 0.64041 0.09142 0.39502 0.0
C463 C 0.61019 0.10484 0.38951 0.0
C464 C 0.6073 0.08847 0.43753 0.0
C465 C 0.5922 0.0929 0.4366 0.0
N466 N 0.61887 0.09624 0.40841 0.0
N467 N 0.59385 0.10311 0.4063 0.0
H468 H 0.61497 0.11126 0.36325 0.0
H469 H 0.60934 0.07966 0.4577 0.0
C470 C 0.65104 0.10585 0.47299 0.0
O471 O 0.64742 0.12014 0.4641 0.0
N472 N 0.6614 0.08666 0.38052 0.0
C473 C 0.67027 0.0913 0.34813 0.0
C474 C 0.68662 0.08888 0.34913 0.0
C475 C 0.67237 0.08151 0.40085 0.0
N476 N 0.68796 0.08291 0.38235 0.0
C477 C 0.65876 0.12988 0.35903 0.0
C478 C 0.6938 0.14613 0.39784 0.0
C479 C 0.6932 0.15634 0.36749 0.0
C480 C 0.67525 0.14809 0.34811 0.0
C481 C 0.67735 0.12793 0.40718 0.0
N482 N 0.65981 0.11992 0.38843 0.0
H483 H 0.6458 0.12308 0.34202 0.0
H484 H 0.67971 0.11954 0.42758 0.0
H485 H 0.66575 0.09701 0.32582 0.0
H486 H 0.6693 0.07727 0.42871 0.0
O487 O 0.62945 0.08402 0.34617 0.0
O488 O 0.6212 0.06269 0.39027 0.0
O489 O 0.64851 0.09269 0.44904 0.0
C490 C 0.61956 0.06549 0.35631 0.0
H491 H 0.58073 0.0886 0.4567 0.0
H492 H 0.69713 0.09203 0.3276 0.0
H493 H 0.70749 0.15131 0.41278 0.0
H494 H 0.67419 0.15522 0.32397 0.0
Co495 Co 0.88769 0.59338 0.80913 0.0
C496 C 0.84385 0.57804 0.81618 0.0
C497 C 0.85609 0.5952 0.76842 0.0
C498 C 0.83607 0.58908 0.76985 0.0
N499 N 0.86093 0.58786 0.79698 0.0
N500 N 0.82837 0.57832 0.79994 0.0
H501 H 0.84267 0.57112 0.84176 0.0
H502 H 0.86649 0.60461 0.74812 0.0
C503 C 0.88265 0.57832 0.73185 0.0
O504 O 0.86477 0.5646 0.74213 0.0
N505 N 0.91378 0.59877 0.82267 0.0
C506 C 0.91847 0.59458 0.85503 0.0
C507 C 0.93734 0.59734 0.85355 0.0
C508 C 0.92976 0.60399 0.80185 0.0
N509 N 0.94431 0.6031 0.82008 0.0
C510 C 0.86912 0.55555 0.8469 0.0
C511 C 0.88739 0.53912 0.8071 0.0
C512 C 0.87741 0.52933 0.83839 0.0
C513 C 0.86792 0.53765 0.85818 0.0
C514 C 0.88853 0.55699 0.79722 0.0
N515 N 0.87925 0.56508 0.8165 0.0
H516 H 0.86341 0.56254 0.86449 0.0
H517 H 0.89873 0.56514 0.77595 0.0
H518 H 0.90849 0.58893 0.8777 0.0
H519 H 0.93055 0.60792 0.77388 0.0
O520 O 0.88442 0.60086 0.85791 0.0
O521 O 0.89671 0.62204 0.81341 0.0
O522 O 0.89395 0.59167 0.75494 0.0
C523 C 0.8926 0.6193 0.84751 0.0
H524 H 0.82793 0.5928 0.75076 0.0
H525 H 0.945 0.59452 0.87499 0.0
H526 H 0.89578 0.53393 0.79176 0.0
H527 H 0.86036 0.53088 0.88301 0.0
Co528 Co 0.42766 0.29371 0.80626 0.0
C529 C 0.44149 0.26427 0.81394 0.0
C530 C 0.42938 0.26351 0.76186 0.0
C531 C 0.43477 0.24911 0.76332 0.0
N532 N 0.43359 0.27303 0.79348 0.0
N533 N 0.4423 0.24943 0.79611 0.0
H534 H 0.44598 0.26828 0.84151 0.0
H535 H 0.42253 0.26657 0.73939 0.0
C536 C 0.43778 0.32072 0.73948 0.0
O537 O 0.44419 0.33565 0.76209 0.0
N538 N 0.42125 0.31377 0.81943 0.0
C539 C 0.426 0.32525 0.84904 0.0
C540 C 0.41607 0.33579 0.848 0.0
C541 C 0.40791 0.31676 0.80185 0.0
N542 N 0.40485 0.33044 0.81814 0.0
C543 C 0.4618 0.31647 0.85097 0.0
C544 C 0.48772 0.3398 0.79789 0.0
C545 C 0.49178 0.34669 0.83342 0.0
C546 C 0.47934 0.33382 0.86025 0.0
C547 C 0.47002 0.322 0.78993 0.0
N548 N 0.45613 0.3121 0.81603 0.0
H549 H 0.45194 0.3076 0.87222 0.0
H550 H 0.46712 0.31702 0.76252 0.0
H551 H 0.43535 0.32563 0.87069 0.0
H552 H 0.40043 0.30884 0.7777 0.0
O553 O 0.41915 0.28221 0.85429 0.0
O554 O 0.39868 0.274 0.809 0.0
O555 O 0.43071 0.30282 0.75214 0.0
C556 C 0.40086 0.27227 0.84326 0.0
H557 H 0.43319 0.23913 0.74171 0.0
H558 H 0.41711 0.34658 0.86753 0.0
H559 H 0.49736 0.34859 0.77619 0.0
H560 H 0.48247 0.33767 0.88829 0.0
Co561 Co 0.72503 0.13641 0.80065 0.0
C562 C 0.75255 0.18014 0.80908 0.0
C563 C 0.75648 0.16879 0.75917 0.0
C564 C 0.76995 0.18886 0.76082 0.0
N565 N 0.74549 0.16333 0.78925 0.0
N566 N 0.76754 0.1961 0.79216 0.0
H567 H 0.74688 0.18064 0.83529 0.0
H568 H 0.75507 0.15879 0.73775 0.0
C569 C 0.70103 0.11792 0.73039 0.0
O570 O 0.6857 0.10584 0.75015 0.0
N571 N 0.70521 0.10964 0.81249 0.0
C572 C 0.69011 0.10273 0.83629 0.0
C573 C 0.68002 0.08228 0.83498 0.0
C574 C 0.70466 0.09347 0.79841 0.0
N575 N 0.68912 0.07659 0.81082 0.0
C576 C 0.70344 0.14963 0.84456 0.0
C577 C 0.67513 0.14474 0.79461 0.0
C578 C 0.67089 0.14536 0.83099 0.0
C579 C 0.68606 0.14934 0.85573 0.0
C580 C 0.69291 0.14536 0.78456 0.0
N581 N 0.70578 0.14556 0.80985 0.0
H582 H 0.71405 0.15121 0.86478 0.0
H583 H 0.69566 0.14495 0.75651 0.0
H584 H 0.68632 0.1116 0.85316 0.0
H585 H 0.71502 0.0942 0.77823 0.0
O586 O 0.73567 0.1389 0.8493 0.0
O587 O 0.74535 0.12792 0.80411 0.0
O588 O 0.71734 0.13118 0.74591 0.0
C589 C 0.74629 0.13124 0.83853 0.0
H590 H 0.7811 0.19729 0.74076 0.0
H591 H 0.66649 0.07245 0.84938 0.0
H592 H 0.66437 0.14262 0.77412 0.0
H593 H 0.68408 0.15106 0.88394 0.0
Co594 Co 0.43209 0.13457 0.30904 0.0
C595 C 0.44549 0.17773 0.31282 0.0
C596 C 0.42911 0.16421 0.26472 0.0
C597 C 0.43448 0.18405 0.26475 0.0
N598 N 0.43607 0.16029 0.29474 0.0
N599 N 0.44482 0.19264 0.29499 0.0
H600 H 0.45264 0.1794 0.33846 0.0
H601 H 0.42043 0.15333 0.24447 0.0
C602 C 0.44227 0.118 0.24099 0.0
O603 O 0.45043 0.1106 0.26232 0.0
N604 N 0.42787 0.10904 0.32443 0.0
C605 C 0.4332 0.1044 0.35583 0.0
C606 C 0.42687 0.08442 0.35616 0.0
C607 C 0.41733 0.09165 0.30716 0.0
N608 N 0.41716 0.07658 0.3253 0.0
C609 C 0.46727 0.14892 0.35226 0.0
C610 C 0.49238 0.14996 0.29893 0.0
C611 C 0.49697 0.14807 0.33463 0.0
C612 C 0.48496 0.14934 0.36145 0.0
C613 C 0.47451 0.14979 0.29107 0.0
N614 N 0.46097 0.14641 0.31753 0.0
H615 H 0.45774 0.14862 0.37359 0.0
H616 H 0.47118 0.15108 0.26355 0.0
H617 H 0.44073 0.11451 0.37761 0.0
H618 H 0.41013 0.09012 0.28161 0.0
O619 O 0.42368 0.1379 0.35705 0.0
O620 O 0.40289 0.12369 0.3127 0.0
O621 O 0.43459 0.12801 0.25499 0.0
C622 C 0.40525 0.12845 0.34659 0.0
H623 H 0.43055 0.19138 0.24437 0.0
H624 H 0.42955 0.0764 0.37709 0.0
H625 H 0.5017 0.15022 0.27713 0.0
H626 H 0.48852 0.14939 0.38949 0.0
Co627 Co 0.89026 0.30167 0.30442 0.0
C628 C 0.84612 0.27263 0.30669 0.0
C629 C 0.86127 0.26644 0.26503 0.0
C630 C 0.8415 0.25191 0.26455 0.0
N631 N 0.86421 0.27965 0.29105 0.0
N632 N 0.83188 0.25574 0.29075 0.0
H633 H 0.84338 0.27943 0.3295 0.0
H634 H 0.87288 0.26712 0.24797 0.0
C635 C 0.88509 0.31046 0.22665 0.0
O636 O 0.86677 0.30496 0.23639 0.0
N637 N 0.91576 0.32306 0.3188 0.0
C638 C 0.91982 0.33221 0.35093 0.0
C639 C 0.93849 0.34867 0.34972 0.0
C640 C 0.93187 0.33396 0.29845 0.0
N641 N 0.94592 0.34978 0.31666 0.0
C642 C 0.87043 0.32 0.34129 0.0
C643 C 0.889 0.35494 0.30223 0.0
C644 C 0.87947 0.35474 0.334 0.0
C645 C 0.86956 0.33683 0.35322 0.0
C646 C 0.88965 0.33806 0.29145 0.0
N647 N 0.88061 0.32069 0.31082 0.0
H648 H 0.86471 0.3072 0.35867 0.0
H649 H 0.89968 0.34016 0.26987 0.0
H650 H 0.90957 0.32773 0.3732 0.0
H651 H 0.93316 0.33059 0.27082 0.0
O652 O 0.88682 0.2909 0.35334 0.0
O653 O 0.90041 0.28292 0.30972 0.0
O654 O 0.89688 0.30969 0.25033 0.0
C655 C 0.89578 0.28125 0.3436 0.0
H656 H 0.83491 0.2391 0.24698 0.0
H657 H 0.94573 0.35936 0.37104 0.0
H658 H 0.89742 0.36866 0.2873 0.0
H659 H 0.86259 0.33628 0.37865 0.0
Co660 Co 0.71807 0.58937 0.3047 0.0
C661 C 0.74724 0.57493 0.31228 0.0
C662 C 0.7493 0.58819 0.26101 0.0
C663 C 0.76321 0.58208 0.26248 0.0
N664 N 0.73882 0.5832 0.29182 0.0
N665 N 0.76195 0.57378 0.29475 0.0
H666 H 0.74317 0.57031 0.3397 0.0
H667 H 0.74736 0.59621 0.23916 0.0
C668 C 0.70638 0.57448 0.22708 0.0
O669 O 0.70821 0.55917 0.23669 0.0
N670 N 0.69787 0.59534 0.31893 0.0
C671 C 0.68898 0.59098 0.35132 0.0
C672 C 0.6733 0.59443 0.35046 0.0
C673 C 0.68756 0.60136 0.29873 0.0
N674 N 0.67238 0.60078 0.31735 0.0
C675 C 0.69854 0.55081 0.34048 0.0
C676 C 0.66315 0.53614 0.30315 0.0
C677 C 0.66355 0.52552 0.33307 0.0
C678 C 0.68168 0.53298 0.35166 0.0
C679 C 0.68002 0.55395 0.29348 0.0
N680 N 0.69771 0.56117 0.31151 0.0
H681 H 0.71167 0.55702 0.35701 0.0
H682 H 0.67803 0.56272 0.27332 0.0
H683 H 0.693 0.58475 0.37353 0.0
H684 H 0.69079 0.6056 0.27089 0.0
O685 O 0.72885 0.59642 0.35369 0.0
O686 O 0.7382 0.61788 0.30965 0.0
O687 O 0.71022 0.58831 0.25048 0.0
C688 C 0.73931 0.61494 0.34376 0.0
H689 H 0.774 0.58434 0.24197 0.0
H690 H 0.6629 0.59169 0.372 0.0
H691 H 0.64939 0.53158 0.2888 0.0
H692 H 0.68264 0.52551 0.37543 0.0
Co693 Co 0.47271 0.08887 0.90292 0.0
C694 C 0.51529 0.10066 0.89542 0.0
C695 C 0.50342 0.08717 0.94644 0.0
C696 C 0.52312 0.09212 0.94474 0.0
N697 N 0.49853 0.09256 0.91558 0.0
N698 N 0.53066 0.10057 0.91259 0.0
H699 H 0.51603 0.10618 0.86855 0.0
H700 H 0.49335 0.08007 0.96861 0.0
C701 C 0.45726 0.09986 0.97151 0.0
O702 O 0.44954 0.10775 0.95033 0.0
N703 N 0.44712 0.08503 0.88901 0.0
C704 C 0.44231 0.09119 0.85876 0.0
C705 C 0.42242 0.08522 0.85968 0.0
C706 C 0.42991 0.07437 0.90672 0.0
N707 N 0.41477 0.0749 0.89012 0.0
C708 C 0.48782 0.12364 0.85848 0.0
C709 C 0.48878 0.14937 0.91044 0.0
C710 C 0.48721 0.15365 0.87441 0.0
C711 C 0.48861 0.14137 0.84834 0.0
C712 C 0.48836 0.13152 0.91927 0.0
N713 N 0.48496 0.11768 0.89342 0.0
H714 H 0.48733 0.11379 0.83763 0.0
H715 H 0.48957 0.12851 0.947 0.0
H716 H 0.45225 0.09917 0.83702 0.0
H717 H 0.42863 0.06675 0.9317 0.0
O718 O 0.47487 0.07973 0.85486 0.0
O719 O 0.46122 0.05956 0.90021 0.0
O720 O 0.46717 0.09212 0.95726 0.0
C721 C 0.46534 0.06146 0.86605 0.0
H722 H 0.53123 0.08975 0.96591 0.0
H723 H 0.41437 0.08869 0.83997 0.0
H724 H 0.48897 0.15893 0.93175 0.0
H725 H 0.48893 0.14468 0.82011 0.0
Co726 Co 0.93217 0.3861 0.90118 0.0
C727 C 0.91697 0.41494 0.89837 0.0
C728 C 0.93789 0.4212 0.94079 0.0
C729 C 0.93243 0.4356 0.9409 0.0
N730 N 0.92798 0.40802 0.91452 0.0
N731 N 0.91926 0.43171 0.91418 0.0
H732 H 0.90776 0.4082 0.87523 0.0
H733 H 0.94869 0.42059 0.95827 0.0
C734 C 0.91866 0.37726 0.97922 0.0
O735 O 0.90558 0.38252 0.96992 0.0
N736 N 0.93642 0.36485 0.88688 0.0
C737 C 0.93092 0.35525 0.85521 0.0
C738 C 0.93501 0.33998 0.85571 0.0
C739 C 0.94373 0.35542 0.90629 0.0
N740 N 0.94294 0.3401 0.88786 0.0
C741 C 0.89367 0.36777 0.86577 0.0
C742 C 0.87716 0.33315 0.90569 0.0
C743 C 0.867 0.33353 0.87501 0.0
C744 C 0.87534 0.35138 0.85532 0.0
C745 C 0.89536 0.34967 0.91495 0.0
N746 N 0.90354 0.36697 0.89552 0.0
H747 H 0.90067 0.38037 0.84796 0.0
H748 H 0.90368 0.34743 0.93565 0.0
H749 H 0.92397 0.35883 0.8336 0.0
H750 H 0.94949 0.35966 0.93319 0.0
O751 O 0.93901 0.39656 0.852 0.0
O752 O 0.96096 0.40497 0.89506 0.0
O753 O 0.93119 0.37826 0.95524 0.0
C754 C 0.95768 0.40632 0.8612 0.0
H755 H 0.93831 0.44836 0.95856 0.0
H756 H 0.93199 0.32934 0.83446 0.0
H757 H 0.87201 0.31958 0.92095 0.0
H758 H 0.86829 0.3524 0.83104 0.0
Co759 Co 0.63541 0.54581 0.89727 0.0
C760 C 0.60503 0.50281 0.88944 0.0
C761 C 0.60396 0.51466 0.94088 0.0
C762 C 0.58909 0.49507 0.93931 0.0
N763 N 0.61397 0.51954 0.90972 0.0
N764 N 0.5896 0.48756 0.90693 0.0
H765 H 0.60933 0.50203 0.8622 0.0
H766 H 0.60699 0.52474 0.96306 0.0
C767 C 0.66119 0.56222 0.96628 0.0
O768 O 0.67699 0.57105 0.94567 0.0
N769 N 0.65634 0.57198 0.88418 0.0
C770 C 0.66816 0.57787 0.85494 0.0
C771 C 0.68083 0.59804 0.85689 0.0
C772 C 0.66107 0.58876 0.90213 0.0
N773 N 0.67648 0.60475 0.88687 0.0
C774 C 0.65762 0.53314 0.85372 0.0
C775 C 0.68011 0.53003 0.90776 0.0
C776 C 0.68712 0.5321 0.87236 0.0
C777 C 0.67477 0.53234 0.84507 0.0
C778 C 0.66278 0.53094 0.9151 0.0
N779 N 0.65318 0.53488 0.88842 0.0
H780 H 0.64904 0.53434 0.83213 0.0
H781 H 0.65775 0.52929 0.94242 0.0
H782 H 0.66767 0.56853 0.8332 0.0
H783 H 0.65364 0.58909 0.92641 0.0
O784 O 0.62433 0.54331 0.84894 0.0
O785 O 0.61652 0.55599 0.89425 0.0
O786 O 0.6438 0.55138 0.95166 0.0
C787 C 0.61474 0.55206 0.86002 0.0
H788 H 0.57863 0.48702 0.96056 0.0
H789 H 0.69267 0.60694 0.83824 0.0
H790 H 0.68823 0.52834 0.92977 0.0
H791 H 0.67891 0.53336 0.81717 0.0
Co792 Co 0.59524 0.88104 0.72971 0.0
C793 C 0.58056 0.83756 0.7249 0.0
C794 C 0.59675 0.85056 0.77342 0.0
C795 C 0.59071 0.83057 0.77336 0.0
N796 N 0.59033 0.85491 0.74318 0.0
N797 N 0.58049 0.82231 0.74289 0.0
H798 H 0.57365 0.83617 0.6991 0.0
H799 H 0.60548 0.86124 0.7939 0.0
C800 C 0.58456 0.89764 0.79599 0.0
O801 O 0.57789 0.90583 0.77318 0.0
N802 N 0.60066 0.90715 0.71594 0.0
C803 C 0.59537 0.91326 0.68618 0.0
C804 C 0.60499 0.93372 0.68623 0.0
C805 C 0.61394 0.92383 0.73271 0.0
N806 N 0.61654 0.94021 0.71565 0.0
C807 C 0.56085 0.8682 0.68497 0.0
C808 C 0.53483 0.86585 0.73767 0.0
C809 C 0.5307 0.86826 0.70196 0.0
C810 C 0.54317 0.86766 0.67537 0.0
C811 C 0.55267 0.86609 0.74595 0.0
N812 N 0.5666 0.87003 0.71994 0.0
H813 H 0.57079 0.86916 0.66386 0.0
H814 H 0.55565 0.86436 0.77349 0.0
H815 H 0.586 0.90391 0.66491 0.0
H816 H 0.62187 0.92389 0.75658 0.0
O817 O 0.60403 0.87817 0.68183 0.0
O818 O 0.62438 0.89124 0.72712 0.0
O819 O 0.59201 0.8871 0.78357 0.0
C820 C 0.62233 0.88716 0.69293 0.0
H821 H 0.59409 0.82288 0.7939 0.0
H822 H 0.60367 0.94304 0.66612 0.0
H823 H 0.52515 0.86513 0.75921 0.0
H824 H 0.54 0.86809 0.64726 0.0
Co825 Co 0.13386 0.71637 0.73567 0.0
C826 C 0.17793 0.7447 0.73213 0.0
C827 C 0.16317 0.75309 0.77122 0.0
C828 C 0.18309 0.76722 0.77099 0.0
N829 N 0.15992 0.73879 0.74728 0.0
N830 N 0.19244 0.76201 0.74641 0.0
H831 H 0.18042 0.73669 0.711 0.0
H832 H 0.15173 0.75331 0.78747 0.0
C833 C 0.14002 0.71011 0.81474 0.0
O834 O 0.1587 0.71677 0.80591 0.0
N835 N 0.10839 0.6944 0.72278 0.0
C836 C 0.10393 0.68514 0.69075 0.0
C837 C 0.08541 0.66853 0.69274 0.0
C838 C 0.09266 0.68336 0.74392 0.0
N839 N 0.07845 0.66741 0.7262 0.0
C840 C 0.152 0.69719 0.697 0.0
C841 C 0.13854 0.66488 0.7422 0.0
C842 C 0.14466 0.66307 0.70778 0.0
C843 C 0.15225 0.67999 0.68554 0.0
C844 C 0.13748 0.68169 0.75171 0.0
N845 N 0.14404 0.69778 0.72939 0.0
H846 H 0.15635 0.70923 0.67816 0.0
H847 H 0.12921 0.68029 0.77555 0.0
H848 H 0.11374 0.68975 0.66781 0.0
H849 H 0.09165 0.68684 0.77159 0.0
O850 O 0.13645 0.72644 0.68639 0.0
O851 O 0.12314 0.7346 0.73026 0.0
O852 O 0.12786 0.70918 0.79008 0.0
C853 C 0.12738 0.73595 0.69624 0.0
H854 H 0.19003 0.78065 0.78697 0.0
H855 H 0.07789 0.65785 0.67152 0.0
H856 H 0.13314 0.6528 0.76129 0.0
H857 H 0.1571 0.67962 0.65854 0.0
Co858 Co 0.30176 0.4244 0.7342 0.0
C859 C 0.2726 0.43824 0.72316 0.0
C860 C 0.27382 0.43075 0.77806 0.0
C861 C 0.26063 0.43771 0.77534 0.0
N862 N 0.28142 0.43117 0.74541 0.0
N863 N 0.25984 0.44239 0.74086 0.0
H864 H 0.27567 0.44058 0.69477 0.0
H865 H 0.27751 0.42572 0.80233 0.0
C866 C 0.32721 0.4336 0.80302 0.0
O867 O 0.34275 0.44012 0.7818 0.0
N868 N 0.32159 0.41735 0.7227 0.0
C869 C 0.33323 0.42167 0.69337 0.0
C870 C 0.34339 0.4114 0.69526 0.0
C871 C 0.32417 0.40396 0.74104 0.0
N872 N 0.33768 0.40041 0.72539 0.0
C873 C 0.32594 0.45842 0.6902 0.0
C874 C 0.34745 0.48482 0.74399 0.0
C875 C 0.35476 0.48945 0.70874 0.0
C876 C 0.343 0.47636 0.68154 0.0
C877 C 0.33009 0.4666 0.75137 0.0
N878 N 0.32087 0.45273 0.72498 0.0
H879 H 0.31768 0.44847 0.66862 0.0
H880 H 0.32466 0.46353 0.77851 0.0
H881 H 0.33391 0.43089 0.67126 0.0
H882 H 0.316 0.39671 0.76514 0.0
O883 O 0.29111 0.41626 0.68555 0.0
O884 O 0.28155 0.39557 0.73065 0.0
O885 O 0.30974 0.42694 0.78872 0.0
C886 C 0.28065 0.39796 0.6962 0.0
H887 H 0.25198 0.43886 0.79699 0.0
H888 H 0.35413 0.412 0.67606 0.0
H889 H 0.35526 0.49495 0.7658 0.0
H890 H 0.34747 0.47923 0.65374 0.0
Co891 Co 0.55458 0.92547 0.13373 0.0
C892 C 0.51075 0.91 0.14072 0.0
C893 C 0.52366 0.93006 0.09645 0.0
C894 C 0.50363 0.92392 0.09792 0.0
N895 N 0.52807 0.92095 0.12267 0.0
N896 N 0.49554 0.91137 0.12581 0.0
H897 H 0.50927 0.90146 0.16451 0.0
H898 H 0.53434 0.94063 0.0777 0.0
C899 C 0.54891 0.91345 0.05386 0.0
O900 O 0.53023 0.90071 0.06157 0.0
N901 N 0.58038 0.92975 0.14619 0.0
C902 C 0.58513 0.92493 0.17791 0.0
C903 C 0.60411 0.92801 0.17587 0.0
C904 C 0.5964 0.93564 0.12519 0.0
N905 N 0.61108 0.93464 0.1427 0.0
C906 C 0.5375 0.88816 0.17242 0.0
C907 C 0.5513 0.86988 0.12649 0.0
C908 C 0.54541 0.86179 0.16086 0.0
C909 C 0.53767 0.87085 0.18351 0.0
C910 C 0.5519 0.88759 0.11731 0.0
N911 N 0.54518 0.89684 0.13999 0.0
H912 H 0.53307 0.89565 0.19156 0.0
H913 H 0.5599 0.89456 0.09329 0.0
H914 H 0.57528 0.91905 0.20071 0.0
H915 H 0.5973 0.94055 0.09781 0.0
O916 O 0.55208 0.933 0.18317 0.0
O917 O 0.56457 0.95429 0.13897 0.0
O918 O 0.56061 0.92447 0.07922 0.0
C919 C 0.56073 0.95154 0.17313 0.0
H920 H 0.49575 0.92888 0.08064 0.0
H921 H 0.61198 0.92517 0.19687 0.0
H922 H 0.55679 0.86342 0.10708 0.0
H923 H 0.533 0.86554 0.21051 0.0
Co924 Co 0.09257 0.63478 0.13946 0.0
C925 C 0.10829 0.60622 0.14179 0.0
C926 C 0.08644 0.5994 0.10082 0.0
C927 C 0.09208 0.58517 0.10013 0.0
N928 N 0.09679 0.61283 0.1265 0.0
N929 N 0.10584 0.5894 0.12588 0.0
H930 H 0.11804 0.61329 0.16424 0.0
H931 H 0.07526 0.59979 0.08405 0.0
C932 C 0.10583 0.64294 0.06135 0.0
O933 O 0.11889 0.63771 0.07086 0.0
N934 N 0.08828 0.65612 0.15333 0.0
C935 C 0.09352 0.66563 0.18511 0.0
C936 C 0.09064 0.68169 0.18367 0.0
C937 C 0.08232 0.66641 0.13294 0.0
N938 N 0.08376 0.68218 0.15081 0.0
C939 C 0.13126 0.65391 0.17473 0.0
C940 C 0.14663 0.68828 0.13424 0.0
C941 C 0.1565 0.68867 0.16569 0.0
C942 C 0.14907 0.67099 0.18552 0.0
C943 C 0.12904 0.6712 0.12466 0.0
N944 N 0.12122 0.65411 0.14468 0.0
H945 H 0.1246 0.64131 0.19263 0.0
H946 H 0.12068 0.67298 0.10346 0.0
H947 H 0.09977 0.66164 0.20732 0.0
H948 H 0.07731 0.66261 0.10555 0.0
O949 O 0.08586 0.62457 0.18879 0.0
O950 O 0.06383 0.61588 0.14578 0.0
O951 O 0.09336 0.64216 0.08524 0.0
C952 C 0.06717 0.61469 0.17965 0.0
H953 H 0.08598 0.5723 0.08272 0.0
H954 H 0.09398 0.69252 0.20469 0.0
H955 H 0.15155 0.70172 0.11862 0.0
H956 H 0.15596 0.67083 0.21064 0.0
Co957 Co 0.38597 0.46699 0.14071 0.0
C958 C 0.41662 0.50965 0.14852 0.0
C959 C 0.41502 0.49937 0.09459 0.0
C960 C 0.42885 0.5194 0.09588 0.0
N961 N 0.40727 0.49327 0.12754 0.0
N962 N 0.42988 0.52585 0.12976 0.0
H963 H 0.41353 0.5098 0.17674 0.0
H964 H 0.41094 0.49001 0.0711 0.0
C965 C 0.35957 0.45103 0.07259 0.0
O966 O 0.34404 0.44354 0.09399 0.0
N967 N 0.36505 0.44095 0.15458 0.0
C968 C 0.35463 0.43518 0.1855 0.0
C969 C 0.34212 0.41494 0.18465 0.0
C970 C 0.35954 0.42408 0.13636 0.0
N971 N 0.34516 0.40813 0.15354 0.0
C972 C 0.36335 0.47932 0.18387 0.0
C973 C 0.34258 0.48463 0.12921 0.0
C974 C 0.33502 0.48219 0.16425 0.0
C975 C 0.3465 0.48077 0.19194 0.0
C976 C 0.35965 0.48312 0.12248 0.0
N977 N 0.3683 0.47806 0.14929 0.0
H978 H 0.37151 0.47769 0.20572 0.0
H979 H 0.3652 0.48511 0.09544 0.0
H980 H 0.35627 0.4446 0.20791 0.0
H981 H 0.36606 0.4235 0.11108 0.0
O982 O 0.39722 0.46992 0.18903 0.0
O983 O 0.40486 0.45676 0.14434 0.0
O984 O 0.37725 0.46081 0.08658 0.0
C985 C 0.40665 0.46093 0.17849 0.0
H986 H 0.43773 0.52847 0.07369 0.0
H987 H 0.33156 0.40599 0.20516 0.0
H988 H 0.33512 0.48714 0.10703 0.0
H989 H 0.34195 0.47949 0.21964 0.0
Co990 Co 0.09336 0.46706 0.63058 0.0
C991 C 0.1083 0.51068 0.63766 0.0
C992 C 0.0901 0.49819 0.59105 0.0
C993 C 0.09604 0.51816 0.59264 0.0
N994 N 0.09822 0.49357 0.61871 0.0
N995 N 0.10742 0.52598 0.62202 0.0
H996 H 0.11573 0.51194 0.66275 0.0
H997 H 0.08024 0.48767 0.57132 0.0
C998 C 0.10674 0.47232 0.55215 0.0
O999 O 0.12017 0.49041 0.56197 0.0
N1000 N 0.08869 0.44126 0.64398 0.0
C1001 C 0.09406 0.43706 0.67569 0.0
C1002 C 0.09069 0.418 0.67469 0.0
C1003 C 0.08215 0.42479 0.624 0.0
N1004 N 0.08328 0.41035 0.6422 0.0
C1005 C 0.13168 0.4853 0.66681 0.0
C1006 C 0.14776 0.468 0.6236 0.0
C1007 C 0.15723 0.47615 0.65621 0.0
C1008 C 0.14929 0.48555 0.67742 0.0
C1009 C 0.12993 0.46721 0.61498 0.0
N1010 N 0.1219 0.4759 0.63604 0.0
H1011 H 0.12493 0.49086 0.68532 0.0
H1012 H 0.12177 0.45754 0.59318 0.0
H1013 H 0.10065 0.44742 0.69765 0.0
H1014 H 0.07686 0.42347 0.59679 0.0
O1015 O 0.08662 0.47032 0.68007 0.0
O1016 O 0.06467 0.45765 0.63683 0.0
O1017 O 0.09415 0.4607 0.57602 0.0
C1018 C 0.06797 0.46185 0.67084 0.0
H1019 H 0.09165 0.52615 0.57445 0.0
H1020 H 0.09402 0.41058 0.69584 0.0
H1021 H 0.15324 0.46088 0.6056 0.0
H1022 H 0.15572 0.49183 0.70321 0.0
Co1023 Co 0.55364 0.63049 0.63743 0.0
C1024 C 0.51005 0.60165 0.64701 0.0
C1025 C 0.52129 0.59745 0.59732 0.0
C1026 C 0.50136 0.58342 0.59981 0.0
N1027 N 0.52668 0.60931 0.62642 0.0
N1028 N 0.49429 0.58604 0.6311 0.0
H1029 H 0.50944 0.60695 0.67339 0.0
H1030 H 0.53125 0.59867 0.57595 0.0
C1031 C 0.54855 0.64045 0.55988 0.0
O1032 O 0.53082 0.6368 0.57019 0.0
N1033 N 0.57993 0.65102 0.64953 0.0
C1034 C 0.58524 0.66131 0.6805 0.0
C1035 C 0.60446 0.67669 0.6773 0.0
C1036 C 0.59582 0.66004 0.62798 0.0
N1037 N 0.61094 0.6759 0.64418 0.0
C1038 C 0.53477 0.65015 0.67342 0.0
C1039 C 0.5538 0.68469 0.63338 0.0
C1040 C 0.543 0.68454 0.6635 0.0
C1041 C 0.53318 0.66681 0.68344 0.0
C1042 C 0.55521 0.66796 0.62465 0.0
N1043 N 0.54551 0.65065 0.64398 0.0
H1044 H 0.52873 0.63753 0.69117 0.0
H1045 H 0.56578 0.66986 0.60415 0.0
H1046 H 0.57549 0.65839 0.70319 0.0
H1047 H 0.59618 0.65535 0.60086 0.0
O1048 O 0.55087 0.62052 0.68681 0.0
O1049 O 0.56238 0.61065 0.64246 0.0
O1050 O 0.55955 0.63786 0.58289 0.0
C1051 C 0.55874 0.6099 0.67671 0.0
H1052 H 0.49288 0.57177 0.58057 0.0
H1053 H 0.61271 0.68801 0.69721 0.0
H1054 H 0.56248 0.69819 0.61805 0.0
H1055 H 0.52498 0.66604 0.70743 0.0
Co1056 Co 0.38516 0.92243 0.64236 0.0
C1057 C 0.41522 0.90882 0.6488 0.0
C1058 C 0.41879 0.92581 0.60132 0.0
C1059 C 0.43392 0.92146 0.6027 0.0
N1060 N 0.40676 0.91759 0.62976 0.0
N1061 N 0.43184 0.91087 0.63268 0.0
H1062 H 0.41011 0.90211 0.67477 0.0
H1063 H 0.41702 0.93489 0.58133 0.0
C1064 C 0.37549 0.90821 0.56452 0.0
O1065 O 0.3797 0.89443 0.57421 0.0
N1066 N 0.36428 0.92743 0.65575 0.0
C1067 C 0.35417 0.92212 0.68692 0.0
C1068 C 0.3396 0.92723 0.68559 0.0
C1069 C 0.3559 0.93563 0.63586 0.0
N1070 N 0.34071 0.93558 0.65341 0.0
C1071 C 0.36634 0.88377 0.67757 0.0
C1072 C 0.33148 0.8681 0.63832 0.0
C1073 C 0.33179 0.8577 0.66864 0.0
C1074 C 0.34967 0.86564 0.68816 0.0
C1075 C 0.34813 0.88621 0.62924 0.0
N1076 N 0.36555 0.89396 0.6483 0.0
H1077 H 0.37921 0.89037 0.6948 0.0
H1078 H 0.34602 0.89481 0.6089 0.0
H1079 H 0.35697 0.9147 0.70877 0.0
H1080 H 0.36086 0.94159 0.60927 0.0
O1081 O 0.39544 0.9294 0.69165 0.0
O1082 O 0.40451 0.95108 0.64796 0.0
O1083 O 0.37748 0.92134 0.5881 0.0
C1084 C 0.40565 0.94798 0.68199 0.0
H1085 H 0.44573 0.92609 0.58318 0.0
H1086 H 0.32881 0.9247 0.70629 0.0
H1087 H 0.31786 0.86317 0.62326 0.0
H1088 H 0.35053 0.85835 0.71225 0.0
Co1089 Co 0.13549 0.42623 0.22615 0.0
C1090 C 0.17926 0.44099 0.21853 0.0
C1091 C 0.1668 0.42353 0.26594 0.0
C1092 C 0.18672 0.42928 0.26432 0.0
N1093 N 0.16216 0.43129 0.23776 0.0
N1094 N 0.19456 0.44022 0.23447 0.0
H1095 H 0.18055 0.44816 0.19317 0.0
H1096 H 0.15633 0.41407 0.28609 0.0
C1097 C 0.14103 0.4409 0.30373 0.0
O1098 O 0.15897 0.45442 0.29334 0.0
N1099 N 0.10947 0.42123 0.21325 0.0
C1100 C 0.1048 0.42617 0.18157 0.0
C1101 C 0.08594 0.42343 0.18376 0.0
C1102 C 0.0935 0.41552 0.23431 0.0
N1103 N 0.07895 0.41687 0.21697 0.0
C1104 C 0.15451 0.46443 0.18933 0.0
C1105 C 0.1368 0.48097 0.23042 0.0
C1106 C 0.14696 0.49106 0.19947 0.0
C1107 C 0.15612 0.48265 0.17895 0.0
C1108 C 0.13522 0.46279 0.23934 0.0
N1109 N 0.14427 0.45466 0.21949 0.0
H1110 H 0.16006 0.45746 0.17132 0.0
H1111 H 0.12492 0.4545 0.2604 0.0
H1112 H 0.11479 0.43229 0.15899 0.0
H1113 H 0.09271 0.41086 0.26183 0.0
O1114 O 0.13836 0.41878 0.17698 0.0
O1115 O 0.12617 0.39755 0.22144 0.0
O1116 O 0.12948 0.42777 0.28056 0.0
C1117 C 0.13012 0.40031 0.18729 0.0
H1118 H 0.19469 0.42517 0.28311 0.0
H1119 H 0.07831 0.42675 0.163 0.0
H1120 H 0.12863 0.48623 0.24625 0.0
H1121 H 0.16376 0.48965 0.15431 0.0
Co1122 Co 0.59805 0.71725 0.23558 0.0
C1123 C 0.58309 0.746 0.22809 0.0
C1124 C 0.6014 0.75182 0.2746 0.0
C1125 C 0.59542 0.76583 0.27298 0.0
N1126 N 0.59325 0.73902 0.24702 0.0
N1127 N 0.58397 0.76221 0.24368 0.0
H1128 H 0.57553 0.73972 0.20314 0.0
H1129 H 0.61125 0.75116 0.29435 0.0
C1130 C 0.58424 0.70923 0.31397 0.0
O1131 O 0.57107 0.71423 0.30393 0.0
N1132 N 0.60265 0.69597 0.22266 0.0
C1133 C 0.59789 0.68669 0.19064 0.0
C1134 C 0.60012 0.67028 0.19253 0.0
C1135 C 0.60766 0.68515 0.24369 0.0
N1136 N 0.60614 0.6693 0.22591 0.0
C1137 C 0.56 0.69724 0.1984 0.0
C1138 C 0.54337 0.6641 0.24209 0.0
C1139 C 0.5342 0.6627 0.20912 0.0
C1140 C 0.54241 0.67993 0.18763 0.0
C1141 C 0.5612 0.68108 0.25087 0.0
N1142 N 0.56951 0.69769 0.22958 0.0
H1143 H 0.56695 0.70949 0.17982 0.0
H1144 H 0.56911 0.67954 0.27305 0.0
H1145 H 0.59226 0.69101 0.16793 0.0
H1146 H 0.612 0.68859 0.27145 0.0
O1147 O 0.60518 0.72726 0.18612 0.0
O1148 O 0.62684 0.73639 0.22976 0.0
O1149 O 0.59686 0.71005 0.29028 0.0
C1150 C 0.62378 0.73733 0.19565 0.0
H1151 H 0.59978 0.7782 0.29117 0.0
H1152 H 0.59687 0.65954 0.1714 0.0
H1153 H 0.53767 0.6516 0.26033 0.0
H1154 H 0.53619 0.67971 0.1616 0.0
Co1155 Co 0.30475 0.88462 0.23664 0.0
C1156 C 0.2742 0.841 0.23082 0.0
C1157 C 0.26775 0.85652 0.27157 0.0
C1158 C 0.25213 0.83734 0.26969 0.0
N1159 N 0.28171 0.85888 0.24754 0.0
N1160 N 0.25605 0.82754 0.244 0.0
H1161 H 0.28122 0.83817 0.20837 0.0
H1162 H 0.26864 0.86821 0.28862 0.0
C1163 C 0.30992 0.87785 0.31602 0.0
O1164 O 0.30312 0.85921 0.30672 0.0
N1165 N 0.32717 0.90989 0.22498 0.0
C1166 C 0.33796 0.9144 0.19462 0.0
C1167 C 0.35373 0.93343 0.19748 0.0
C1168 C 0.33632 0.92605 0.24586 0.0
N1169 N 0.35266 0.94063 0.22974 0.0
C1170 C 0.32381 0.86567 0.19983 0.0
C1171 C 0.35586 0.87949 0.24578 0.0
C1172 C 0.35804 0.87337 0.21158 0.0
C1173 C 0.34121 0.86552 0.189 0.0
C1174 C 0.33896 0.88056 0.25452 0.0
N1175 N 0.32302 0.87391 0.23179 0.0
H1176 H 0.31187 0.86115 0.18071 0.0
H1177 H 0.34024 0.88904 0.27803 0.0
H1178 H 0.33478 0.90443 0.17221 0.0
H1179 H 0.33102 0.92717 0.27207 0.0
O1180 O 0.29565 0.88248 0.18666 0.0
O1181 O 0.28701 0.89591 0.22949 0.0
O1182 O 0.31121 0.89026 0.29151 0.0
C1183 C 0.28617 0.89174 0.19548 0.0
H1184 H 0.23866 0.83119 0.28555 0.0
H1185 H 0.36521 0.94124 0.17761 0.0
H1186 H 0.36775 0.88495 0.26526 0.0
H1187 H 0.34178 0.86056 0.16219 0.0
H1188 H 0.23643 0.05314 0.96333 0.0
H1189 H 0.22562 0.11893 0.11307 0.0
H1190 H 0.18921 0.02612 0.04177 0.0
H1191 H 0.24759 0.14171 1.00756 0.0
H1192 H 0.21463 0.08505 0.09133 0.0
H1193 H 0.24308 0.08568 0.9826 0.0
C1194 C 0.22705 0.0538 0.9841 0.0
C1195 C 0.21176 0.03635 1.00015 0.0
C1196 C 0.22169 0.09745 0.07289 0.0
C1197 C 0.22034 0.07442 0.02375 0.0
C1198 C 0.22806 0.11677 0.08529 0.0
C1199 C 0.23757 0.13318 0.06208 0.0
C1200 C 0.22529 0.09451 0.0372 0.0
C1201 C 0.24021 0.12952 0.02627 0.0
C1202 C 0.23112 0.07263 0.99535 0.0
C1203 C 0.20115 0.03887 0.02842 0.0
N1204 N 0.23436 0.11064 1.01507 0.0
N1205 N 0.20573 0.0575 0.03946 0.0
H1206 H 0.87712 0.10305 1.00213 0.0
H1207 H 0.99181 0.16818 0.06078 0.0
H1208 H 0.89727 0.11236 0.11164 0.0
H1209 H 0.97068 0.17398 0.95707 0.0
H1210 H 0.95786 0.14311 0.07682 0.0
H1211 H 0.91178 0.1245 0.98248 0.0
C1212 C 0.88883 0.10942 0.02201 0.0
C1213 C 0.88423 0.10598 0.05864 0.0
C1214 C 0.96066 0.14977 0.05045 0.0
C1215 C 0.92394 0.13047 0.03634 0.0
C1216 C 0.98011 0.16418 0.04122 0.0
C1217 C 0.98429 0.1736 1.0076 0.0
C1218 C 0.94508 0.14444 0.0259 0.0
C1219 C 0.96837 0.16717 0.98321 0.0
C1220 C 0.90859 0.12176 1.01079 0.0
C1221 C 0.90005 0.1148 0.0832 0.0
N1222 N 0.9495 0.15314 0.99291 0.0
N1223 N 0.9191 0.12656 0.07165 0.0
H1224 H 0.85728 0.8148 0.95205 0.0
H1225 H 0.8995 0.78112 0.11771 0.0
H1226 H 0.83427 0.80697 0.05962 0.0
H1227 H 0.92132 0.78628 1.00977 0.0
H1228 H 0.87749 0.79317 0.09753 0.0
H1229 H 0.88269 0.80731 0.97329 0.0
C1230 C 0.85763 0.81167 0.98021 0.0
C1231 C 0.8434 0.81145 1.00395 0.0
C1232 C 0.88713 0.79176 0.07821 0.0
C1233 C 0.87268 0.8028 0.02855 0.0
C1234 C 0.89969 0.78474 0.08971 0.0
C1235 C 0.91224 0.78239 0.06542 0.0
C1236 C 0.88694 0.79653 0.04199 0.0
C1237 C 0.91203 0.78786 0.02957 0.0
C1238 C 0.87221 0.8074 0.99232 0.0
C1239 C 0.84493 0.80755 0.04025 0.0
N1240 N 0.89951 0.79452 0.01894 0.0
N1241 N 0.85913 0.80325 0.05129 0.0
H1242 H 0.03947 0.18271 0.52125 0.0
H1243 H 0.14625 0.27219 0.4608 0.0
H1244 H 0.0571 0.24489 0.5264 0.0
H1245 H 0.13764 0.21404 0.48481 0.0
H1246 H 0.11204 0.26088 0.47853 0.0
H1247 H 0.07359 0.19221 0.5016 0.0
C1248 C 0.05045 0.1983 0.51795 0.0
C1249 C 0.0455 0.21305 0.5256 0.0
C1250 C 0.11753 0.2505 0.48001 0.0
C1251 C 0.08432 0.22398 0.50316 0.0
C1252 C 0.13711 0.25696 0.46966 0.0
C1253 C 0.14488 0.24404 0.47109 0.0
C1254 C 0.10528 0.23083 0.49175 0.0
C1255 C 0.1323 0.22452 0.48347 0.0
C1256 C 0.06991 0.20371 0.50701 0.0
C1257 C 0.0603 0.23304 0.52106 0.0
N1258 N 0.11306 0.21845 0.49313 0.0
N1259 N 0.0789 0.23786 0.51014 0.0
H1260 H 0.83179 0.86164 0.55814 0.0
H1261 H 0.75366 0.87942 0.44649 0.0
H1262 H 0.78896 0.82014 0.48283 0.0
H1263 H 0.8032 0.9278 0.50138 0.0
H1264 H 0.76559 0.85727 0.4646 0.0
H1265 H 0.82096 0.88571 0.54254 0.0
C1266 C 0.82021 0.85758 0.53831 0.0
C1267 C 0.81152 0.83883 0.52146 0.0
C1268 C 0.77398 0.87273 0.4727 0.0
C1269 C 0.79891 0.86622 0.50383 0.0
C1270 C 0.76719 0.88555 0.46212 0.0
C1271 C 0.77755 0.90579 0.47175 0.0
C1272 C 0.79132 0.87991 0.49347 0.0
C1273 C 0.79468 0.91238 0.49322 0.0
C1274 C 0.81407 0.87136 0.52936 0.0
C1275 C 0.79651 0.83448 0.49601 0.0
N1276 N 0.80106 0.89951 0.50328 0.0
N1277 N 0.79073 0.84795 0.48818 0.0
H1278 H 0.09142 0.87928 0.50682 0.0
H1279 H 0.20174 0.97259 0.48444 0.0
H1280 H 0.13869 0.87902 0.44618 0.0
H1281 H 0.15934 0.97399 0.55755 0.0
H1282 H 0.17756 0.93856 0.46891 0.0
H1283 H 0.11482 0.91372 0.52527 0.0
C1284 C 0.10665 0.88633 0.49746 0.0
C1285 C 0.1129 0.87608 0.4745 0.0
C1286 C 0.1734 0.94621 0.48829 0.0
C1287 C 0.13973 0.91564 0.49533 0.0
C1288 C 0.18721 0.96586 0.49697 0.0
C1289 C 0.18258 0.97649 0.522 0.0
C1290 C 0.15456 0.93675 0.50463 0.0
C1291 C 0.16361 0.96648 0.53808 0.0
C1292 C 0.11999 0.90605 0.50793 0.0
C1293 C 0.13288 0.8862 0.46318 0.0
N1294 N 0.15027 0.94721 0.52901 0.0
N1295 N 0.14542 0.90527 0.47358 0.0
H1296 H 0.74815 0.87521 0.95021 0.0
H1297 H 0.8367 0.98065 0.01827 0.0
H1298 H 0.80507 0.88278 0.98152 0.0
H1299 H 0.77476 0.9642 1.01609 0.0
H1300 H 0.82727 0.94667 0.99806 0.0
H1301 H 0.75945 0.90948 0.96745 0.0
C1302 C 0.76312 0.88413 0.96052 0.0
C1303 C 0.77569 0.87605 0.96423 0.0
C1304 C 0.8158 0.95058 1.00194 0.0
C1305 C 0.78883 0.91566 0.98438 0.0
C1306 C 0.82119 0.96996 1.01319 0.0
C1307 C 0.80646 0.97517 0.01894 0.0
C1308 C 0.79561 0.93654 0.99589 0.0
C1309 C 0.78656 0.96076 1.01219 0.0
C1310 C 0.76955 0.90374 0.9706 0.0
C1311 C 0.79484 0.88836 0.97842 0.0
N1312 N 0.78176 0.94222 1.00103 0.0
N1313 N 0.80089 0.90759 0.98783 0.0
H1314 H 0.14554 0.87518 0.9618 0.0
H1315 H 0.03901 0.861 1.01629 0.0
H1316 H 0.13733 0.92566 0.97821 0.0
H1317 H 0.05569 0.81592 0.02705 0.0
H1318 H 0.07326 0.88468 0.9959 0.0
H1319 H 0.11113 0.85309 0.97926 0.0
C1320 C 0.13646 0.88165 0.96887 0.0
C1321 C 0.14442 0.90237 0.9683 0.0
C1322 C 0.06934 0.86958 1.00269 0.0
C1323 C 0.10457 0.87689 0.98873 0.0
C1324 C 0.04981 0.85607 1.01406 0.0
C1325 C 0.04456 0.83651 0.02355 0.0
C1326 C 0.08353 0.86332 1.00028 0.0
C1327 C 0.05913 0.83089 0.02032 0.0
C1328 C 0.11675 0.86898 0.97909 0.0
C1329 C 0.13186 0.9098 0.97846 0.0
N1330 N 0.07781 0.84414 1.00898 0.0
N1331 N 0.11252 0.89708 0.98809 0.0
H1332 H 0.12 0.23226 0.91699 0.0
H1333 H 0.16903 0.20585 0.08171 0.0
H1334 H 0.10513 0.23482 0.02743 0.0
H1335 H 0.18631 0.20685 0.97162 0.0
H1336 H 0.14337 0.2133 0.06203 0.0
H1337 H 0.14217 0.22021 0.9362 0.0
C1338 C 0.12138 0.23036 0.94532 0.0
C1339 C 0.11072 0.23486 0.97058 0.0
C1340 C 0.15264 0.21172 0.04212 0.0
C1341 C 0.13615 0.2207 0.99287 0.0
C1342 C 0.16735 0.20747 0.05334 0.0
C1343 C 0.18006 0.20584 0.02837 0.0
C1344 C 0.15052 0.21443 1.00555 0.0
C1345 C 0.17686 0.2078 0.99191 0.0
C1346 C 0.13401 0.22333 0.95627 0.0
C1347 C 0.1129 0.23154 1.0069 0.0
N1348 N 0.16257 0.21215 0.98168 0.0
N1349 N 0.12542 0.22481 1.01691 0.0
H1350 H 0.97192 0.81631 0.45855 0.0
H1351 H 0.89272 0.78135 0.61882 0.0
H1352 H 0.98491 0.80694 0.56671 0.0
H1353 H 0.87795 0.78423 0.50842 0.0
H1354 H 0.92735 0.79428 0.60147 0.0
H1355 H 0.93871 0.80876 0.47779 0.0
C1356 C 0.96789 0.81289 0.48647 0.0
C1357 C 0.98129 0.81212 0.51094 0.0
C1358 C 0.91656 0.79217 0.58103 0.0
C1359 C 0.94305 0.80335 0.53321 0.0
C1360 C 0.89665 0.78463 0.59089 0.0
C1361 C 0.88211 0.78137 0.56505 0.0
C1362 C 0.92219 0.79661 0.545 0.0
C1363 C 0.88848 0.78648 0.5294 0.0
C1364 C 0.94888 0.80855 0.49742 0.0
C1365 C 0.97524 0.80787 0.54688 0.0
N1366 N 0.90796 0.79371 0.52045 0.0
N1367 N 0.95654 0.80347 0.55682 0.0
H1368 H 0.24319 0.19054 0.47589 0.0
H1369 H 0.22088 0.10258 0.60907 0.0
H1370 H 0.18944 0.16391 0.53954 0.0
H1371 H 0.25335 0.11185 0.51063 0.0
H1372 H 0.21117 0.12678 0.58924 0.0
H1373 H 0.24927 0.16403 0.4936 0.0
C1374 C 0.23235 0.17896 0.49307 0.0
C1375 C 0.21531 0.17937 0.50518 0.0
C1376 C 0.22027 0.12338 0.57189 0.0
C1377 C 0.22301 0.14906 0.52711 0.0
C1378 C 0.22591 0.10966 0.58323 0.0
C1379 C 0.23801 0.10523 0.56149 0.0
C1380 C 0.22717 0.13311 0.53892 0.0
C1381 C 0.24393 0.11471 0.52812 0.0
C1382 C 0.23603 0.16384 0.50345 0.0
C1383 C 0.20269 0.16432 0.52923 0.0
N1384 N 0.23868 0.12836 0.51809 0.0
N1385 N 0.20682 0.14983 0.5395 0.0
H1386 H 0.91366 0.14598 0.50832 0.0
H1387 H 0.85452 0.02917 0.54501 0.0
H1388 H 0.90958 0.12376 0.61546 0.0
H1389 H 0.83285 0.05797 0.47342 0.0
H1390 H 0.88037 0.06226 0.56554 0.0
H1391 H 0.89021 0.11194 0.48809 0.0
C1392 C 0.90806 0.13388 0.52743 0.0
C1393 C 0.91347 0.13767 0.56361 0.0
C1394 C 0.86997 0.06112 0.54504 0.0
C1395 C 0.88688 0.09872 0.54067 0.0
C1396 C 0.8551 0.04222 0.53334 0.0
C1397 C 0.8414 0.04034 0.50666 0.0
C1398 C 0.87148 0.07832 0.52949 0.0
C1399 C 0.8433 0.05816 0.49276 0.0
C1400 C 0.89462 0.11452 0.51597 0.0
C1401 C 0.90561 0.12144 0.58739 0.0
N1402 N 0.85806 0.07621 0.50402 0.0
N1403 N 0.89277 0.10264 0.57553 0.0
H1404 H 0.85425 0.37028 0.33961 0.0
H1405 H 0.9409 0.47408 0.41887 0.0
H1406 H 0.91412 0.38348 0.36191 0.0
H1407 H 0.88473 0.46694 0.3836 0.0
H1408 H 0.92983 0.43993 0.40163 0.0
H1409 H 0.86338 0.40425 0.35937 0.0
C1410 C 0.86919 0.38024 0.34918 0.0
C1411 C 0.88343 0.37408 0.34947 0.0
C1412 C 0.91982 0.4457 0.3976 0.0
C1413 C 0.89406 0.41286 0.37159 0.0
C1414 C 0.92613 0.46529 0.40769 0.0
C1415 C 0.9137 0.4735 0.40305 0.0
C1416 C 0.90081 0.43387 0.38267 0.0
C1417 C 0.89486 0.46131 0.38755 0.0
C1418 C 0.87445 0.39963 0.36016 0.0
C1419 C 0.90268 0.38761 0.36153 0.0
N1420 N 0.88894 0.44209 0.37806 0.0
N1421 N 0.90739 0.40625 0.37204 0.0
H1422 H 0.63393 0.49519 0.29383 0.0
H1423 H 0.5562 0.45388 0.45665 0.0
H1424 H 0.64933 0.51661 0.4022 0.0
H1425 H 0.54172 0.43032 0.34938 0.0
H1426 H 0.59066 0.4757 0.43793 0.0
H1427 H 0.60081 0.47001 0.31436 0.0
C1428 C 0.63043 0.49448 0.32205 0.0
C1429 C 0.64452 0.50818 0.34624 0.0
C1430 C 0.57999 0.4657 0.41849 0.0
C1431 C 0.60632 0.4793 0.37004 0.0
C1432 C 0.56021 0.45327 0.42912 0.0
C1433 C 0.54583 0.44024 0.40456 0.0
C1434 C 0.58561 0.46529 0.38287 0.0
C1435 C 0.55218 0.43995 0.36939 0.0
C1436 C 0.61147 0.48006 0.33377 0.0
C1437 C 0.6391 0.50632 0.38256 0.0
N1438 N 0.57149 0.45235 0.3596 0.0
N1439 N 0.62042 0.49234 0.39325 0.0
H1440 H 0.53433 0.16105 0.30405 0.0
H1441 H 0.55527 0.08843 0.42659 0.0
H1442 H 0.49501 0.12226 0.38631 0.0
H1443 H 0.60059 0.13242 0.35772 0.0
H1444 H 0.5328 0.10005 0.40867 0.0
H1445 H 0.55842 0.15033 0.31985 0.0
C1446 C 0.53074 0.15037 0.32545 0.0
C1447 C 0.5126 0.1428 0.34412 0.0
C1448 C 0.54766 0.10728 0.39742 0.0
C1449 C 0.54008 0.13034 0.36212 0.0
C1450 C 0.56066 0.10067 0.40787 0.0
C1451 C 0.58014 0.10956 0.39416 0.0
C1452 C 0.5539 0.12295 0.37277 0.0
C1453 C 0.58577 0.12503 0.36903 0.0
C1454 C 0.54455 0.1443 0.33451 0.0
C1455 C 0.50889 0.12897 0.37161 0.0
N1456 N 0.57275 0.13127 0.35922 0.0
N1457 N 0.52239 0.12323 0.37959 0.0
H1458 H 0.7 0.52085 0.81207 0.0
H1459 H 0.81511 0.57411 0.86874 0.0
H1460 H 0.72146 0.55142 0.91299 0.0
H1461 H 0.79495 0.56268 0.75927 0.0
H1462 H 0.78042 0.56066 0.88837 0.0
H1463 H 0.73418 0.53078 0.79553 0.0
C1464 C 0.71178 0.5296 0.83091 0.0
C1465 C 0.70757 0.53547 0.86393 0.0
C1466 C 0.78361 0.56103 0.86007 0.0
C1467 C 0.74706 0.54662 0.84511 0.0
C1468 C 0.80339 0.5686 0.84887 0.0
C1469 C 0.80798 0.56963 0.81226 0.0
C1470 C 0.76823 0.55409 0.83454 0.0
C1471 C 0.79215 0.56241 0.78769 0.0
C1472 C 0.73137 0.53521 0.82139 0.0
C1473 C 0.72371 0.54632 0.88739 0.0
N1474 N 0.77306 0.55493 0.79924 0.0
N1475 N 0.74266 0.55158 0.8775 0.0
H1476 H 0.49934 0.19094 0.90457 0.0
H1477 H 0.43053 0.21215 0.77192 0.0
H1478 H 0.46234 0.15152 0.82066 0.0
H1479 H 0.46864 0.25534 0.85022 0.0
H1480 H 0.4422 0.18995 0.79135 0.0
H1481 H 0.48855 0.21473 0.88714 0.0
C1482 C 0.48906 0.18727 0.88246 0.0
C1483 C 0.48202 0.16919 0.86381 0.0
C1484 C 0.44812 0.20427 0.80439 0.0
C1485 C 0.46953 0.19636 0.84389 0.0
C1486 C 0.4415 0.21711 0.79308 0.0
C1487 C 0.44875 0.2359 0.80902 0.0
C1488 C 0.46218 0.21002 0.83211 0.0
C1489 C 0.46258 0.24103 0.83714 0.0
C1490 C 0.48294 0.20091 0.87249 0.0
C1491 C 0.46869 0.16538 0.83538 0.0
N1492 N 0.4689 0.22821 0.84771 0.0
N1493 N 0.46294 0.17874 0.82645 0.0
H1494 H 0.8569 0.32021 0.80553 0.0
H1495 H 0.77359 0.20967 0.86125 0.0
H1496 H 0.83696 0.30326 0.91442 0.0
H1497 H 0.78866 0.22952 0.75192 0.0
H1498 H 0.79555 0.24396 0.88139 0.0
H1499 H 0.83079 0.28753 0.78545 0.0
C1500 C 0.84685 0.30982 0.82525 0.0
C1501 C 0.84936 0.31465 0.86187 0.0
C1502 C 0.79396 0.2408 0.85297 0.0
C1503 C 0.81952 0.27669 0.83892 0.0
C1504 C 0.78132 0.22118 0.84142 0.0
C1505 C 0.77934 0.21647 0.80474 0.0
C1506 C 0.80477 0.2559 0.82775 0.0
C1507 C 0.78996 0.23218 0.78045 0.0
C1508 C 0.832 0.29099 0.81373 0.0
C1509 C 0.83593 0.3002 0.886 0.0
N1510 N 0.80223 0.25104 0.79235 0.0
N1511 N 0.82177 0.2819 0.87417 0.0
H1512 H 0.45329 0.22455 0.25258 0.0
H1513 H 0.4833 0.30121 0.41633 0.0
H1514 H 0.45455 0.20824 0.36259 0.0
H1515 H 0.47497 0.31501 0.30805 0.0
H1516 H 0.47644 0.26835 0.39627 0.0
H1517 H 0.46448 0.25858 0.27166 0.0
C1518 C 0.45584 0.22801 0.28079 0.0
C1519 C 0.45266 0.2132 0.30597 0.0
C1520 C 0.47627 0.27862 0.37683 0.0
C1521 C 0.46589 0.25265 0.32807 0.0
C1522 C 0.48018 0.29744 0.38826 0.0
C1523 C 0.4796 0.31102 0.36397 0.0
C1524 C 0.47174 0.27317 0.34073 0.0
C1525 C 0.47579 0.30525 0.32781 0.0
C1526 C 0.46238 0.24759 0.29165 0.0
C1527 C 0.4568 0.219 0.34209 0.0
N1528 N 0.47188 0.28678 0.31741 0.0
N1529 N 0.46308 0.23818 0.35202 0.0
H1530 H 0.80137 0.23001 0.2479 0.0
H1531 H 0.72141 0.1876 0.40712 0.0
H1532 H 0.81427 0.25323 0.35555 0.0
H1533 H 0.70837 0.16525 0.299 0.0
H1534 H 0.75454 0.2134 0.38776 0.0
H1535 H 0.76682 0.2078 0.26521 0.0
C1536 C 0.79701 0.23048 0.27523 0.0
C1537 C 0.81101 0.24349 0.30033 0.0
C1538 C 0.74439 0.20301 0.36814 0.0
C1539 C 0.77102 0.21799 0.32036 0.0
C1540 C 0.72542 0.18825 0.37918 0.0
C1541 C 0.71201 0.1741 0.35472 0.0
C1542 C 0.75021 0.20367 0.33232 0.0
C1543 C 0.71806 0.17587 0.31879 0.0
C1544 C 0.77715 0.21781 0.28505 0.0
C1545 C 0.80415 0.24359 0.33516 0.0
N1546 N 0.73673 0.1902 0.30879 0.0
N1547 N 0.78474 0.23097 0.34415 0.0
H1548 H 0.83405 0.5175 0.32887 0.0
H1549 H 0.77705 0.5781 0.36179 0.0
H1550 H 0.85644 0.56889 0.39829 0.0
H1551 H 0.77638 0.55345 0.2581 0.0
H1552 H 0.80086 0.5681 0.38255 0.0
H1553 H 0.8081 0.52459 0.30821 0.0
C1554 C 0.8336 0.53015 0.34002 0.0
C1555 C 0.84751 0.54227 0.36615 0.0
C1556 C 0.79538 0.56476 0.35531 0.0
C1557 C 0.81738 0.55009 0.34308 0.0
C1558 C 0.78171 0.57035 0.34357 0.0
C1559 C 0.77481 0.56669 0.30814 0.0
C1560 C 0.80191 0.55504 0.33174 0.0
C1561 C 0.78151 0.55673 0.28551 0.0
C1562 C 0.81867 0.53411 0.32825 0.0
C1563 C 0.84582 0.55844 0.37938 0.0
N1564 N 0.79462 0.55118 0.29768 0.0
N1565 N 0.83104 0.5617 0.368 0.0
H1566 H 0.55004 0.12624 0.85709 0.0
H1567 H 0.65101 0.12357 0.88999 0.0
H1568 H 0.55777 0.09096 0.93808 0.0
H1569 H 0.64359 0.15434 0.8003 0.0
H1570 H 0.61734 0.1134 0.90936 0.0
H1571 H 0.58422 0.13791 0.83669 0.0
C1572 C 0.55877 0.12085 0.87058 0.0
C1573 C 0.55079 0.10758 0.89964 0.0
C1574 C 0.62302 0.12245 0.8855 0.0
C1575 C 0.59018 0.12115 0.87649 0.0
C1576 C 0.64244 0.12849 0.87455 0.0
C1577 C 0.65044 0.14008 0.84354 0.0
C1578 C 0.61118 0.12793 0.86545 0.0
C1579 C 0.63815 0.14537 0.82426 0.0
C1580 C 0.57838 0.12762 0.85896 0.0
C1581 C 0.56312 0.10138 0.91608 0.0
N1582 N 0.61918 0.13929 0.83554 0.0
N1583 N 0.58206 0.10821 0.90435 0.0
H1584 H 0.90467 0.43372 0.84866 0.0
H1585 H 0.88408 0.52144 0.90732 0.0
H1586 H 0.91365 0.45733 0.95594 0.0
H1587 H 0.87555 0.49817 0.79987 0.0
H1588 H 0.89193 0.49601 0.92684 0.0
H1589 H 0.89141 0.45527 0.83147 0.0
C1590 C 0.90372 0.44325 0.86875 0.0
C1591 C 0.91049 0.4437 0.90384 0.0
C1592 C 0.88816 0.49633 0.89904 0.0
C1593 C 0.89538 0.4687 0.8841 0.0
C1594 C 0.88346 0.51076 0.88792 0.0
C1595 C 0.87921 0.51209 0.85179 0.0
C1596 C 0.88865 0.48306 0.87392 0.0
C1597 C 0.87899 0.49795 0.82788 0.0
C1598 C 0.8962 0.45567 0.85883 0.0
C1599 C 0.90899 0.45665 0.92845 0.0
N1600 N 0.88378 0.48418 0.83928 0.0
N1601 N 0.9017 0.46862 0.91811 0.0
H1602 H 0.55148 0.4637 0.92864 0.0
H1603 H 0.52957 0.37048 0.804 0.0
H1604 H 0.59555 0.46581 0.85545 0.0
H1605 H 0.48939 0.37114 0.88329 0.0
H1606 H 0.55384 0.40521 0.81982 0.0
H1607 H 0.52862 0.42987 0.90985 0.0
C1608 C 0.55647 0.45703 0.90873 0.0
C1609 C 0.57569 0.4677 0.89408 0.0
C1610 C 0.53972 0.39764 0.83379 0.0
C1611 C 0.5491 0.42845 0.87175 0.0
C1612 C 0.52583 0.37782 0.82473 0.0
C1613 C 0.50741 0.36759 0.84265 0.0
C1614 C 0.5351 0.40739 0.86072 0.0
C1615 C 0.50349 0.37802 0.86927 0.0
C1616 C 0.54327 0.4376 0.89778 0.0
C1617 C 0.5809 0.45821 0.8675 0.0
N1618 N 0.51712 0.39716 0.87735 0.0
N1619 N 0.56772 0.4391 0.85729 0.0
H1620 H 0.5424 0.71372 0.62237 0.0
H1621 H 0.56964 0.79008 0.78576 0.0
H1622 H 0.54674 0.69906 0.73217 0.0
H1623 H 0.57183 0.80697 0.67508 0.0
H1624 H 0.5578 0.75587 0.76702 0.0
H1625 H 0.54937 0.74673 0.64166 0.0
C1626 C 0.54466 0.71735 0.6506 0.0
C1627 C 0.54412 0.7035 0.67559 0.0
C1628 C 0.56079 0.76702 0.74679 0.0
C1629 C 0.5521 0.74149 0.69794 0.0
C1630 C 0.5677 0.78668 0.75746 0.0
C1631 C 0.57207 0.80169 0.732 0.0
C1632 C 0.55813 0.76209 0.71027 0.0
C1633 C 0.56867 0.79603 0.69576 0.0
C1634 C 0.54863 0.73624 0.66159 0.0
C1635 C 0.54683 0.70906 0.71188 0.0
N1636 N 0.56204 0.77676 0.68601 0.0
N1637 N 0.55085 0.72762 0.72187 0.0
H1638 H 0.30285 0.82692 0.629 0.0
H1639 H 0.22331 0.78726 0.78879 0.0
H1640 H 0.31688 0.8489 0.73727 0.0
H1641 H 0.20964 0.76289 0.68204 0.0
H1642 H 0.25807 0.80831 0.77123 0.0
H1643 H 0.26952 0.80172 0.64869 0.0
C1644 C 0.29902 0.82631 0.65703 0.0
C1645 C 0.31277 0.8402 0.68144 0.0
C1646 C 0.24753 0.79829 0.75163 0.0
C1647 C 0.27436 0.81133 0.70421 0.0
C1648 C 0.22759 0.78631 0.7616 0.0
C1649 C 0.21335 0.77336 0.7368 0.0
C1650 C 0.25347 0.79753 0.71642 0.0
C1651 C 0.22001 0.77255 0.70215 0.0
C1652 C 0.27994 0.81189 0.66826 0.0
C1653 C 0.30693 0.83848 0.71749 0.0
N1654 N 0.2395 0.78457 0.69293 0.0
N1655 N 0.28816 0.82451 0.72766 0.0
H1656 H 0.24089 0.43304 0.67674 0.0
H1657 H 0.18946 0.49977 0.70066 0.0
H1658 H 0.24963 0.46761 0.77228 0.0
H1659 H 0.16272 0.44431 0.64195 0.0
H1660 H 0.21583 0.49311 0.72052 0.0
H1661 H 0.21697 0.44273 0.65531 0.0
C1662 C 0.23798 0.44289 0.69294 0.0
C1663 C 0.24715 0.44942 0.72642 0.0
C1664 C 0.20421 0.48257 0.703 0.0
C1665 C 0.21989 0.46065 0.70208 0.0
C1666 C 0.18906 0.4863 0.69174 0.0
C1667 C 0.17381 0.47286 0.66884 0.0
C1668 C 0.20432 0.46545 0.6909 0.0
C1669 C 0.17437 0.45566 0.65831 0.0
C1670 C 0.22424 0.4483 0.68087 0.0
C1671 C 0.24269 0.46206 0.74651 0.0
N1672 N 0.18935 0.45258 0.66913 0.0
N1673 N 0.22942 0.4673 0.73404 0.0
H1674 H 0.46197 0.89493 0.08554 0.0
H1675 H 0.39542 0.90208 0.23542 0.0
H1676 H 0.4828 0.90883 0.19429 0.0
H1677 H 0.36781 0.85443 0.15783 0.0
H1678 H 0.42774 0.90817 0.21632 0.0
H1679 H 0.42775 0.88331 0.10658 0.0
C1680 C 0.45928 0.89537 0.11387 0.0
C1681 C 0.47522 0.90282 0.13825 0.0
C1682 C 0.41459 0.89624 0.20375 0.0
C1683 C 0.43629 0.89002 0.16231 0.0
C1684 C 0.39584 0.89245 0.21493 0.0
C1685 C 0.37824 0.87715 0.19921 0.0
C1686 C 0.41622 0.88527 0.17557 0.0
C1687 C 0.38063 0.86637 0.17103 0.0
C1688 C 0.43979 0.88868 0.12583 0.0
C1689 C 0.47094 0.90306 0.17469 0.0
N1690 N 0.39921 0.87075 0.15993 0.0
N1691 N 0.45197 0.8971 0.18553 0.0
H1692 H 0.1119 0.5649 0.08208 0.0
H1693 H 0.14997 0.52214 0.23984 0.0
H1694 H 0.12079 0.58669 0.19061 0.0
H1695 H 0.14031 0.50016 0.1314 0.0
H1696 H 0.14237 0.54788 0.22128 0.0
H1697 H 0.12489 0.54311 0.09865 0.0
C1698 C 0.11656 0.56513 0.10945 0.0
C1699 C 0.11497 0.57758 0.13504 0.0
C1700 C 0.14211 0.53757 0.20143 0.0
C1701 C 0.13015 0.55257 0.15425 0.0
C1702 C 0.14646 0.52284 0.21201 0.0
C1703 C 0.14567 0.50879 0.18724 0.0
C1704 C 0.13682 0.53834 0.16574 0.0
C1705 C 0.14127 0.51068 0.15145 0.0
C1706 C 0.12411 0.55271 0.11886 0.0
C1707 C 0.12175 0.57746 0.1699 0.0
N1708 N 0.13683 0.525 0.1419 0.0
N1709 N 0.12887 0.56506 0.17852 0.0
H1710 H 0.44872 0.5364 0.1939 0.0
H1711 H 0.50227 0.65406 0.16374 0.0
H1712 H 0.44132 0.56077 0.09529 0.0
H1713 H 0.52835 0.62537 0.22454 0.0
H1714 H 0.47565 0.62097 0.14466 0.0
H1715 H 0.47321 0.57017 0.21351 0.0
C1716 C 0.45206 0.54888 0.17661 0.0
C1717 C 0.44307 0.54576 0.14285 0.0
C1718 C 0.4872 0.62209 0.16244 0.0
C1719 C 0.47098 0.58446 0.16512 0.0
C1720 C 0.50248 0.64098 0.17326 0.0
C1721 C 0.51759 0.64282 0.19659 0.0
C1722 C 0.48682 0.60488 0.17543 0.0
C1723 C 0.5168 0.62507 0.20787 0.0
C1724 C 0.46612 0.56812 0.18765 0.0
C1725 C 0.44809 0.56252 0.12134 0.0
N1726 N 0.50169 0.60701 0.1975 0.0
N1727 N 0.46166 0.58116 0.13284 0.0
H1728 H 0.16452 0.65438 0.65446 0.0
H1729 H 0.10804 0.5375 0.69071 0.0
H1730 H 0.11594 0.62544 0.72994 0.0
H1731 H 0.12442 0.56015 0.58338 0.0
H1732 H 0.11886 0.57144 0.71185 0.0
H1733 H 0.15706 0.62136 0.63323 0.0
C1734 C 0.15242 0.64132 0.66683 0.0
C1735 C 0.14117 0.64314 0.69472 0.0
C1736 C 0.12025 0.56898 0.68372 0.0
C1737 C 0.13305 0.60523 0.67103 0.0
C1738 C 0.1142 0.54968 0.67173 0.0
C1739 C 0.11527 0.54604 0.63525 0.0
C1740 C 0.12788 0.58487 0.65922 0.0
C1741 C 0.12321 0.56235 0.61167 0.0
C1742 C 0.14827 0.62245 0.65472 0.0
C1743 C 0.12575 0.6253 0.70954 0.0
N1744 N 0.12929 0.58109 0.62403 0.0
N1745 N 0.12233 0.60727 0.69778 0.0
H1746 H 0.36651 0.51352 0.64873 0.0
H1747 H 0.48235 0.57639 0.70049 0.0
H1748 H 0.38934 0.5053 0.74878 0.0
H1749 H 0.46015 0.56845 0.59246 0.0
H1750 H 0.44805 0.55487 0.72187 0.0
H1751 H 0.4003 0.5383 0.6313 0.0
C1752 C 0.37855 0.5169 0.66719 0.0
C1753 C 0.37489 0.50689 0.70016 0.0
C1754 C 0.45071 0.55792 0.69351 0.0
C1755 C 0.41392 0.53575 0.6803 0.0
C1756 C 0.47027 0.57028 0.68132 0.0
C1757 C 0.47417 0.57415 0.64457 0.0
C1758 C 0.43489 0.54963 0.66885 0.0
C1759 C 0.4579 0.56568 0.62092 0.0
C1760 C 0.39791 0.53116 0.65717 0.0
C1761 C 0.39126 0.51257 0.72319 0.0
N1762 N 0.43906 0.5539 0.63343 0.0
N1763 N 0.41002 0.52649 0.71275 0.0
H1764 H 0.42439 0.88078 0.67979 0.0
H1765 H 0.53343 0.89509 0.65194 0.0
H1766 H 0.47082 0.92626 0.6147 0.0
H1767 H 0.49271 0.85429 0.73057 0.0
H1768 H 0.50918 0.90488 0.63651 0.0
H1769 H 0.44779 0.86967 0.69822 0.0
C1770 C 0.43944 0.8885 0.66946 0.0
C1771 C 0.44544 0.9044 0.64521 0.0
C1772 C 0.50539 0.89372 0.65709 0.0
C1773 C 0.47225 0.8916 0.66598 0.0
C1774 C 0.51924 0.88791 0.66571 0.0
C1775 C 0.51512 0.87354 0.6923 0.0
C1776 C 0.48704 0.88523 0.67507 0.0
C1777 C 0.4966 0.86539 0.70989 0.0
C1778 C 0.45277 0.88208 0.6799 0.0
C1779 C 0.46518 0.91369 0.63268 0.0
N1780 N 0.48321 0.87128 0.70087 0.0
N1781 N 0.47771 0.90714 0.64307 0.0
H1782 H 0.32255 0.4941 0.22409 0.0
H1783 H 0.20788 0.44441 0.16567 0.0
H1784 H 0.30103 0.46444 0.12246 0.0
H1785 H 0.22785 0.45519 0.27526 0.0
H1786 H 0.24252 0.45704 0.14625 0.0
H1787 H 0.28861 0.48546 0.2398 0.0
C1788 C 0.31078 0.48582 0.20492 0.0
C1789 C 0.31487 0.47976 0.17199 0.0
C1790 C 0.23929 0.45672 0.17453 0.0
C1791 C 0.27568 0.47009 0.18987 0.0
C1792 C 0.21956 0.44962 0.1856 0.0
C1793 C 0.21492 0.44863 0.22219 0.0
C1794 C 0.25458 0.46322 0.20018 0.0
C1795 C 0.23068 0.45545 0.24686 0.0
C1796 C 0.29134 0.48095 0.21396 0.0
C1797 C 0.29883 0.46959 0.14805 0.0
N1798 N 0.24972 0.46246 0.23544 0.0
N1799 N 0.27999 0.465 0.15752 0.0
H1800 H 0.52617 0.83316 0.21432 0.0
H1801 H 0.58312 0.77328 0.17514 0.0
H1802 H 0.57406 0.85296 0.13728 0.0
H1803 H 0.56678 0.77906 0.28281 0.0
H1804 H 0.57208 0.79637 0.15462 0.0
H1805 H 0.53399 0.80772 0.23465 0.0
C1806 C 0.5382 0.83227 0.20142 0.0
C1807 C 0.54915 0.84539 0.17338 0.0
C1808 C 0.57075 0.79242 0.18269 0.0
C1809 C 0.55768 0.81566 0.19608 0.0
C1810 C 0.57692 0.77917 0.19432 0.0
C1811 C 0.57593 0.77433 0.23072 0.0
C1812 C 0.56307 0.80053 0.20746 0.0
C1813 C 0.56793 0.78256 0.25457 0.0
C1814 C 0.54255 0.81761 0.21303 0.0
C1815 C 0.56448 0.84301 0.15787 0.0
N1816 N 0.56173 0.79519 0.24255 0.0
N1817 N 0.5681 0.82845 0.16916 0.0
H1818 H 0.216 0.80997 0.24054 0.0
H1819 H 0.19597 0.7017 0.18325 0.0
H1820 H 0.26457 0.79936 0.21929 0.0
H1821 H 0.15226 0.72052 0.17991 0.0
H1822 H 0.2213 0.73576 0.20184 0.0
H1823 H 0.1925 0.77588 0.22346 0.0
C1824 C 0.22174 0.80041 0.23235 0.0
C1825 C 0.24233 0.80757 0.2316 0.0
C1826 C 0.20614 0.73235 0.19708 0.0
C1827 C 0.21523 0.76806 0.2117 0.0
C1828 C 0.19169 0.71292 0.18678 0.0
C1829 C 0.17202 0.70833 0.17995 0.0
C1830 C 0.20071 0.7471 0.20103 0.0
C1831 C 0.16726 0.72344 0.18468 0.0
C1832 C 0.20827 0.78088 0.2224 0.0
C1833 C 0.24883 0.79447 0.22009 0.0
N1834 N 0.18142 0.742 0.19489 0.0
N1835 N 0.23532 0.77528 0.21079 0.0
H1836 H 0.21509 0.19134 0.18922 0.0
H1837 H 0.25559 0.26555 0.35829 0.0
H1838 H 0.27287 0.24424 0.18239 0.0
H1839 H 0.19388 0.22442 0.33464 0.0
H1840 H 0.2646 0.25781 0.29892 0.0
H1841 H 0.20976 0.20232 0.24668 0.0
C1842 C 0.22686 0.20532 0.19968 0.0
C1843 C 0.24455 0.21672 0.18002 0.0
C1844 C 0.2491 0.25063 0.30678 0.0
C1845 C 0.23828 0.22971 0.2481 0.0
C1846 C 0.2439 0.25508 0.3408 0.0
C1847 C 0.22382 0.24572 0.35221 0.0
C1848 C 0.23418 0.23645 0.28398 0.0
C1849 C 0.20955 0.23214 0.32787 0.0
C1850 C 0.22368 0.21167 0.23293 0.0
C1851 C 0.25897 0.23479 0.1961 0.0
N1852 N 0.21498 0.22792 0.29571 0.0
N1853 N 0.25558 0.24065 0.22908 0.0
H1854 H 0.82909 0.03063 0.18749 0.0
H1855 H 0.75333 0.9919 0.35474 0.0
H1856 H 0.77286 0.02901 0.17787 0.0
H1857 H 0.79964 0.97771 0.33492 0.0
H1858 H 0.76017 0.0081 0.29494 0.0
H1859 H 0.81909 0.01483 0.24551 0.0
C1860 C 0.81456 0.02708 0.19743 0.0
C1861 C 0.80194 0.03139 0.17679 0.0
C1862 C 0.76871 1.00131 0.30375 0.0
C1863 C 0.79011 0.01274 0.24558 0.0
C1864 C 0.7648 0.992 0.33804 0.0
C1865 C 0.77583 0.98319 0.35062 0.0
C1866 C 0.78402 1.00219 0.28184 0.0
C1867 C 0.79059 0.98412 0.32722 0.0
C1868 C 0.80879 0.01786 0.23103 0.0
C1869 C 0.78326 0.02613 0.19232 0.0
N1870 N 0.79423 0.9934 0.29476 0.0
N1871 N 0.77797 0.01719 0.22563 0.0
H1872 H 0.99141 0.75002 0.18044 0.0
H1873 H 0.03691 0.82694 0.3451 0.0
H1874 H 0.985 0.80162 0.19638 0.0
H1875 H 0.02761 0.76758 0.35723 0.0
H1876 H 0.0213 0.81801 0.28678 0.0
H1877 H 1.00709 0.75579 0.24055 0.0
C1878 C 0.99314 0.76245 0.19637 0.0
C1879 C 0.98667 0.77527 0.18268 0.0
C1880 C 0.02259 0.8068 0.3019 0.0
C1881 C 1.00503 0.78219 0.2517 0.0
C1882 C 0.03169 0.81193 0.33564 0.0
C1883 C 0.03378 0.79809 0.357 0.0
C1884 C 0.01538 0.78754 0.28804 0.0
C1885 C 0.02646 0.77888 0.34215 0.0
C1886 C 1.00213 0.76574 0.23081 0.0
C1887 C 0.98957 0.79118 0.20504 0.0
N1888 N 0.01769 0.7742 0.30872 0.0
N1889 N 0.9985 0.79416 0.23772 0.0
H1890 H 0.78651 0.80251 0.65472 0.0
H1891 H 0.76226 0.76549 0.85983 0.0
H1892 H 0.78483 0.7483 0.6866 0.0
H1893 H 0.78367 0.82568 0.82439 0.0
H1894 H 0.76657 0.75655 0.79792 0.0
H1895 H 0.78195 0.80884 0.71674 0.0
C1896 C 0.78523 0.79184 0.67476 0.0
C1897 C 0.78617 0.7748 0.66469 0.0
C1898 C 0.77026 0.77168 0.80377 0.0
C1899 C 0.78051 0.78203 0.73765 0.0
C1900 C 0.76762 0.77678 0.83916 0.0
C1901 C 0.77249 0.79645 0.84785 0.0
C1902 C 0.77753 0.78624 0.77644 0.0
C1903 C 0.77966 0.81035 0.81956 0.0
C1904 C 0.78261 0.79553 0.71056 0.0
C1905 C 0.78441 0.76173 0.69269 0.0
N1906 N 0.78181 0.805 0.7857 0.0
N1907 N 0.78152 0.76551 0.72766 0.0
H1908 H 0.26861 0.04357 0.6894 0.0
H1909 H 0.19676 0.9532 0.82099 0.0
H1910 H 0.22291 0.98539 0.65509 0.0
H1911 H 0.25163 1.00191 0.86105 0.0
H1912 H 0.20568 0.96708 0.7609 0.0
H1913 H 0.26233 0.03137 0.75225 0.0
C1914 C 0.25724 0.02835 0.69483 0.0
C1915 C 0.24636 0.01561 0.66622 0.0
C1916 C 0.21595 0.97482 0.78257 0.0
C1917 C 0.23898 1.00147 0.73861 0.0
C1918 C 0.21084 0.9668 0.81723 0.0
C1919 C 0.22344 0.97614 0.84669 0.0
C1920 C 0.23382 0.99278 0.77636 0.0
C1921 C 0.24148 0.99391 0.83939 0.0
C1922 C 0.25373 0.02133 0.73084 0.0
C1923 C 0.23188 0.99595 0.67558 0.0
N1924 N 0.24603 1.0017 0.80522 0.0
N1925 N 0.22866 0.98969 0.71035 0.0
H1926 H 0.9666 0.1893 0.70545 0.0
H1927 H 0.04764 0.26641 0.84549 0.0
H1928 H 1.00728 0.24959 0.67297 0.0
H1929 H 0.99306 0.21358 0.87484 0.0
H1930 H 0.03646 0.26052 0.78207 0.0
H1931 H 0.97897 0.1978 0.76661 0.0
C1932 C 0.97807 0.20446 0.71117 0.0
C1933 C 0.98562 0.21871 0.68356 0.0
C1934 C 0.02698 0.25026 0.8025 0.0
C1935 C 1.00057 0.22866 0.75492 0.0
C1936 C 0.03345 0.25354 0.8388 0.0
C1937 C 0.02137 0.24053 0.86614 0.0
C1938 C 1.00844 0.23362 0.79316 0.0
C1939 C 1.00301 0.2242 0.85529 0.0
C1940 C 0.98522 0.20933 0.74638 0.0
C1941 C 1.00069 0.2381 0.69321 0.0
N1942 N 0.9973 0.22124 0.82021 0.0
N1943 N 1.00776 0.24244 0.72785 0.0
H1944 H 0.89146 0.52192 0.538 0.0
H1945 H 0.91828 0.60327 0.69383 0.0
H1946 H 0.93528 0.58322 0.51736 0.0
H1947 H 0.86327 0.54745 0.68494 0.0
H1948 H 0.92816 0.59695 0.63408 0.0
H1949 H 0.8849 0.53136 0.59605 0.0
C1950 C 0.8999 0.53746 0.54553 0.0
C1951 C 0.91401 0.55168 0.52185 0.0
C1952 C 0.9139 0.58618 0.6453 0.0
C1953 C 0.90632 0.56284 0.59045 0.0
C1954 C 0.90823 0.58977 0.67955 0.0
C1955 C 0.88977 0.57597 0.69507 0.0
C1956 C 0.90123 0.56845 0.62648 0.0
C1957 C 0.87759 0.55871 0.67477 0.0
C1958 C 0.89601 0.54288 0.57911 0.0
C1959 C 0.92428 0.5716 0.53428 0.0
N1960 N 0.88354 0.5555 0.64227 0.0
N1961 N 0.92028 0.57656 0.56757 0.0
H1962 H 0.43342 0.34536 0.50686 0.0
H1963 H 0.47059 0.3523 0.71122 0.0
H1964 H 0.49366 0.38293 0.54328 0.0
H1965 H 0.41484 0.30245 0.67727 0.0
H1966 H 0.47738 0.36448 0.64985 0.0
H1967 H 0.42435 0.33072 0.56781 0.0
C1968 C 0.4447 0.35077 0.52756 0.0
C1969 C 0.46442 0.36565 0.5194 0.0
C1970 C 0.46366 0.35079 0.6554 0.0
C1971 C 0.45407 0.34872 0.58975 0.0
C1972 C 0.45974 0.34373 0.69078 0.0
C1973 C 0.44214 0.32611 0.70005 0.0
C1974 C 0.44979 0.34057 0.62799 0.0
C1975 C 0.42876 0.31591 0.67173 0.0
C1976 C 0.43953 0.34222 0.56241 0.0
C1977 C 0.47829 0.37161 0.5477 0.0
N1978 N 0.43276 0.32334 0.63724 0.0
N1979 N 0.47289 0.36331 0.58102 0.0
H1980 H 0.71423 0.1484 0.6794 0.0
H1981 H 0.65327 0.07629 0.51281 0.0
H1982 H 0.67885 0.08469 0.68965 0.0
H1983 H 0.66997 0.13823 0.51758 0.0
H1984 H 0.66725 0.07933 0.57353 0.0
H1985 H 0.70333 0.14536 0.61634 0.0
C1986 C 0.70457 0.13375 0.66831 0.0
C1987 C 0.69762 0.1168 0.69025 0.0
C1988 C 0.66791 0.09228 0.56118 0.0
C1989 C 0.68488 0.11313 0.61746 0.0
C1990 C 0.65993 0.09053 0.52633 0.0
C1991 C 0.66014 0.10693 0.50962 0.0
C1992 C 0.67669 0.11068 0.57956 0.0
C1993 C 0.66914 0.12502 0.52905 0.0
C1994 C 0.69814 0.13201 0.63228 0.0
C1995 C 0.6847 0.09824 0.67405 0.0
N1996 N 0.67702 0.1264 0.56246 0.0
N1997 N 0.67887 0.09692 0.63906 0.0
H1998 H 0.42909 0.13145 0.18267 0.0
H1999 H 0.47172 0.0876 0.02973 0.0
H2000 H 0.45901 0.09855 0.20645 0.0
H2001 H 0.43798 0.11668 1.00626 0.0
H2002 H 0.46782 0.09191 0.09424 0.0
H2003 H 0.43267 0.12677 0.11821 0.0
C2004 C 0.43637 0.12324 0.1746 0.0
C2005 C 0.4437 0.11545 0.20077 0.0
C2006 C 0.46126 0.09734 0.07493 0.0
C2007 C 0.44802 0.11003 0.12606 0.0
C2008 C 0.46349 0.09485 0.03787 0.0
C2009 C 0.45523 0.10173 1.01177 0.0
C2010 C 0.45071 0.10688 0.08652 0.0
C2011 C 0.44473 0.11106 0.02477 0.0
C2012 C 0.43845 0.12056 0.13757 0.0
C2013 C 0.45305 0.10495 0.18787 0.0
N2014 N 0.44285 0.11335 0.06067 0.0
N2015 N 0.45493 0.10263 0.15198 0.0
H2016 H 0.94142 0.36277 1.01414 0.0
H2017 H 0.86315 0.31692 0.17693 0.0
H2018 H 0.89019 0.3699 0.02952 0.0
H2019 H 0.92227 0.32575 0.19071 0.0
H2020 H 0.87268 0.3328 0.11889 0.0
H2021 H 0.93505 0.34667 0.07397 0.0
C2022 C 0.92894 0.36111 0.02987 0.0
C2023 C 0.91641 0.36792 1.01609 0.0
C2024 C 0.88372 0.33135 0.13431 0.0
C2025 C 0.90881 0.34907 0.08481 0.0
C2026 C 0.87823 0.32209 0.16789 0.0
C2027 C 0.89181 0.31979 0.18965 0.0
C2028 C 0.90308 0.33851 0.12098 0.0
C2029 C 0.91115 0.32705 0.17532 0.0
C2030 C 0.92531 0.35188 0.06416 0.0
C2031 C 0.90043 0.36508 0.03823 0.0
N2032 N 0.91617 0.33599 0.14203 0.0
N2033 N 0.89713 0.35593 0.07073 0.0
H2034 H 0.64153 0.53485 0.02151 0.0
H2035 H 0.71158 0.60577 0.18208 0.0
H2036 H 0.68959 0.59454 1.00315 0.0
H2037 H 0.68178 0.54175 0.18669 0.0
H2038 H 0.69914 0.60323 0.12016 0.0
H2039 H 0.65127 0.53832 0.08532 0.0
C2040 C 0.65385 0.54881 0.03087 0.0
C2041 C 0.66465 0.56441 1.00646 0.0
C2042 C 0.69523 0.58974 0.13485 0.0
C2043 C 0.67595 0.56859 0.08019 0.0
C2044 C 0.70229 0.5912 0.17041 0.0
C2045 C 0.69795 0.57399 0.19007 0.0
C2046 C 0.68324 0.57091 0.11875 0.0
C2047 C 0.68579 0.55552 0.17288 0.0
C2048 C 0.65955 0.55075 0.06738 0.0
C2049 C 0.68074 0.58204 0.02063 0.0
N2050 N 0.67889 0.55449 0.13874 0.0
N2051 N 0.68579 0.58365 0.05613 0.0
H2052 H 0.52746 0.90442 0.99208 0.0
H2053 H 0.60484 0.89638 0.85813 0.0
H2054 H 0.5862 0.92036 0.02903 0.0
H2055 H 0.555 0.90255 0.82463 0.0
H2056 H 0.59786 0.90137 0.9211 0.0
H2057 H 0.53676 0.90024 0.93169 0.0
C2058 C 0.54244 0.90721 0.98755 0.0
C2059 C 0.55603 0.913 1.01617 0.0
C2060 C 0.58849 0.90161 0.89986 0.0
C2061 C 0.56688 0.90764 0.9457 0.0
C2062 C 0.59238 0.89859 0.86382 0.0
C2063 C 0.58057 0.89903 0.83546 0.0
C2064 C 0.5724 0.9047 0.90789 0.0
C2065 C 0.56472 0.90216 0.84503 0.0
C2066 C 0.54778 0.90476 0.95276 0.0
C2067 C 0.57523 0.91619 1.00799 0.0
N2068 N 0.56113 0.90471 0.87986 0.0
N2069 N 0.58001 0.91332 0.97376 0.0
H2070 H 0.08244 0.65626 0.02532 0.0
H2071 H 0.16265 0.70636 0.86681 0.0
H2072 H 0.13528 0.65164 1.01249 0.0
H2073 H 0.10208 0.6923 0.84815 0.0
H2074 H 0.15296 0.69035 0.92481 0.0
H2075 H 0.08899 0.67248 0.96559 0.0
C2076 C 0.09532 0.65851 1.01017 0.0
C2077 C 0.10823 0.65235 0.02457 0.0
C2078 C 0.14166 0.69071 0.9083 0.0
C2079 C 0.11603 0.67134 0.9561 0.0
C2080 C 0.14723 0.70002 0.87478 0.0
C2081 C 0.13327 0.70086 0.85171 0.0
C2082 C 0.12185 0.68205 0.92017 0.0
C2083 C 0.11349 0.69215 0.86462 0.0
C2084 C 0.09904 0.66779 0.97595 0.0
C2085 C 0.12472 0.65591 1.0032 0.0
N2086 N 0.1084 0.6832 0.89786 0.0
N2087 N 0.12812 0.66514 0.97078 0.0
H2088 H 0.38632 0.46382 1.01458 0.0
H2089 H 0.30046 0.42282 0.86088 0.0
H2090 H 0.32344 0.43284 0.0378 0.0
H2091 H 0.36314 0.44926 0.83805 0.0
H2092 H 0.30846 0.42705 0.92545 0.0
H2093 H 0.37827 0.45945 0.95007 0.0
C2094 C 0.37086 0.45611 1.00637 0.0
C2095 C 0.35566 0.44873 0.03238 0.0
C2096 C 0.32048 0.43192 0.90627 0.0
C2097 C 0.34616 0.44367 0.95763 0.0
C2098 C 0.31587 0.42948 0.86919 0.0
C2099 C 0.33103 0.43561 0.84326 0.0
C2100 C 0.34046 0.44067 0.91805 0.0
C2101 C 0.35076 0.4442 0.85644 0.0
C2102 C 0.36622 0.45359 0.96931 0.0
C2103 C 0.33585 0.43886 0.01932 0.0
N2104 N 0.35482 0.44647 0.89237 0.0
N2105 N 0.33176 0.4367 0.9834 0.0
H2106 H 0.16229 0.46993 0.35289 0.0
H2107 H 0.08485 0.43486 0.51744 0.0
H2108 H 0.10438 0.41772 0.34055 0.0
H2109 H 0.13415 0.49421 0.5009 0.0
H2110 H 0.09144 0.42552 0.45738 0.0
H2111 H 0.15251 0.47584 0.4111 0.0
C2112 C 0.14744 0.45952 0.36229 0.0
C2113 C 0.13426 0.44322 0.34089 0.0
C2114 C 0.1007 0.4406 0.46699 0.0
C2115 C 0.1227 0.45015 0.40973 0.0
C2116 C 0.09692 0.44598 0.5014 0.0
C2117 C 0.10888 0.46547 0.51496 0.0
C2118 C 0.11676 0.45469 0.44599 0.0
C2119 C 0.12438 0.47901 0.49241 0.0
C2120 C 0.1418 0.46302 0.39596 0.0
C2121 C 0.11519 0.43048 0.35566 0.0
N2122 N 0.12784 0.47337 0.45982 0.0
N2123 N 0.11002 0.43416 0.38903 0.0
H2124 H 0.55777 0.70559 0.36575 0.0
H2125 H 0.5849 0.65218 0.5234 0.0
H2126 H 0.60414 0.6912 0.3481 0.0
H2127 H 0.52904 0.65109 0.51152 0.0
H2128 H 0.59532 0.66886 0.46414 0.0
H2129 H 0.55076 0.68914 0.42335 0.0
C2130 C 0.56669 0.69908 0.37385 0.0
C2131 C 0.58165 0.69998 0.35109 0.0
C2132 C 0.58076 0.66484 0.47457 0.0
C2133 C 0.5734 0.68057 0.41927 0.0
C2134 C 0.57476 0.65528 0.50854 0.0
C2135 C 0.5559 0.64996 0.52314 0.0
C2136 C 0.568 0.66953 0.45505 0.0
C2137 C 0.54366 0.65466 0.50212 0.0
C2138 C 0.56254 0.68951 0.40719 0.0
C2139 C 0.59249 0.69107 0.36429 0.0
N2140 N 0.54991 0.66411 0.46991 0.0
N2141 N 0.58819 0.68181 0.39733 0.0
H2142 H 0.3658 0.934 0.5268 0.0
H2143 H 0.31074 0.85404 0.36906 0.0
H2144 H 0.36337 0.87742 0.51719 0.0
H2145 H 0.32982 0.91583 0.34959 0.0
H2146 H 0.32632 0.86276 0.42751 0.0
H2147 H 0.34997 0.9284 0.46682 0.0
C2148 C 0.36205 0.92048 0.51233 0.0
C2149 C 0.36617 0.90625 0.52771 0.0
C2150 C 0.32717 0.87455 0.41074 0.0
C2151 C 0.34762 0.89957 0.45881 0.0
C2152 C 0.31811 0.86955 0.37693 0.0
C2153 C 0.31879 0.88412 0.35344 0.0
C2154 C 0.33715 0.89442 0.42253 0.0
C2155 C 0.32875 0.90395 0.36634 0.0
C2156 C 0.35301 0.9173 0.47793 0.0
C2157 C 0.36075 0.889 0.50713 0.0
N2158 N 0.33746 0.9085 0.39984 0.0
N2159 N 0.35181 0.8862 0.47449 0.0
H2160 H 0.28398 0.21366 0.95268 0.0
H2161 H 0.40265 0.26867 0.91629 0.0
H2162 H 0.32776 0.23446 0.0369 0.0
H2163 H 0.35967 0.25254 0.83144 0.0
H2164 H 0.37545 0.25445 0.95996 0.0
H2165 H 0.31091 0.22575 0.90822 0.0
C2166 C 0.29923 0.22058 0.96201 0.0
C2167 C 0.30334 0.22283 0.99907 0.0
C2168 C 0.37185 0.25386 0.93183 0.0
C2169 C 0.33476 0.23706 0.9474 0.0
C2170 C 0.38749 0.26197 0.90661 0.0
C2171 C 0.38372 0.26185 0.86962 0.0
C2172 C 0.35191 0.24536 0.92055 0.0
C2173 C 0.36353 0.25297 0.85939 0.0
C2174 C 0.3147 0.2276 0.93639 0.0
C2175 C 0.32362 0.23218 1.00891 0.0
N2176 N 0.34854 0.24518 0.8845 0.0
N2177 N 0.33838 0.23888 0.98348 0.0
H2178 H 0.7487 0.13576 0.91178 0.0
H2179 H 0.80434 0.07277 0.94873 0.0
H2180 H 0.76683 0.11058 0.82698 0.0
H2181 H 0.78218 0.09459 0.03269 0.0
H2182 H 0.79265 0.08792 0.90418 0.0
H2183 H 0.76258 0.12256 0.95569 0.0
C2184 C 0.75577 0.12762 0.90218 0.0
C2185 C 0.75655 0.1245 0.86514 0.0
C2186 C 0.79041 0.08953 0.93231 0.0
C2187 C 0.77263 0.10892 0.91631 0.0
C2188 C 0.79719 0.0809 0.95798 0.0
C2189 C 0.79443 0.08235 0.99498 0.0
C2190 C 0.78069 0.09989 0.94323 0.0
C2191 C 0.78483 0.09304 1.00474 0.0
C2192 C 0.76368 0.11997 0.92752 0.0
C2193 C 0.76589 0.1136 0.85498 0.0
N2194 N 0.77836 0.10129 0.97927 0.0
N2195 N 0.77346 0.10625 0.88022 0.0
H2196 H 0.94763 0.73638 0.95424 0.0
H2197 H 0.88815 0.61739 0.92097 0.0
H2198 H 0.92708 0.69337 0.03971 0.0
H2199 H 0.91202 0.66018 0.83525 0.0
H2200 H 0.90052 0.64483 0.96426 0.0
H2201 H 0.93317 0.70902 0.91063 0.0
C2202 C 0.93992 0.72121 0.964 0.0
C2203 C 0.93861 0.71741 1.00111 0.0
C2204 C 0.903 0.6483 0.936 0.0
C2205 C 0.92192 0.68555 0.95055 0.0
C2206 C 0.89583 0.63254 0.91106 0.0
C2207 C 0.89886 0.63624 0.87399 0.0
C2208 C 0.91342 0.66822 0.92425 0.0
C2209 C 0.90914 0.6564 0.86333 0.0
C2210 C 0.93169 0.7055 0.9389 0.0
C2211 C 0.92849 0.69723 1.01161 0.0
N2212 N 0.91601 0.67147 0.88812 0.0
N2213 N 0.92064 0.68222 0.98668 0.0
H2214 H 0.27888 0.40027 0.62292 0.0
H2215 H 0.22343 0.28189 0.58347 0.0
H2216 H 0.26026 0.35665 0.70713 0.0
H2217 H 0.24757 0.32651 0.50079 0.0
H2218 H 0.23481 0.30843 0.62869 0.0
H2219 H 0.26566 0.37343 0.57858 0.0
C2220 C 0.27183 0.38504 0.63231 0.0
C2221 C 0.27072 0.381 0.66934 0.0
C2222 C 0.23757 0.31248 0.60069 0.0
C2223 C 0.25539 0.34958 0.61759 0.0
C2224 C 0.23099 0.29724 0.57463 0.0
C2225 C 0.23438 0.30172 0.53778 0.0
C2226 C 0.24769 0.33265 0.5903 0.0
C2227 C 0.24446 0.3221 0.52858 0.0
C2228 C 0.26431 0.3696 0.6067 0.0
C2229 C 0.26144 0.36072 0.67917 0.0
N2230 N 0.25067 0.33662 0.5544 0.0
N2231 N 0.25423 0.34592 0.65367 0.0
H2232 H 0.69417 0.92477 0.49586 0.0
H2233 H 0.6633 0.90896 0.70566 0.0
H2234 H 0.7374 0.94608 0.58102 0.0
H2235 H 0.62105 0.88279 0.61955 0.0
H2236 H 0.69051 0.92262 0.66128 0.0
H2237 H 0.66744 0.90952 0.54071 0.0
C2238 C 0.69813 0.92619 0.52393 0.0
C2239 C 0.71831 0.93678 0.53425 0.0
C2240 C 0.67529 0.91378 0.65205 0.0
C2241 C 0.68732 0.91929 0.58659 0.0
C2242 C 0.65967 0.90588 0.67754 0.0
C2243 C 0.63961 0.89447 0.66676 0.0
C2244 C 0.67105 0.91051 0.61509 0.0
C2245 C 0.63612 0.89132 0.62957 0.0
C2246 C 0.68277 0.91745 0.54971 0.0
C2247 C 0.7222 0.93805 0.57141 0.0
N2248 N 0.6515 0.89927 0.60542 0.0
N2249 N 0.70701 0.92957 0.59594 0.0
H2250 H 0.10772 0.7571 0.70832 0.0
H2251 H 0.09183 0.77223 0.49894 0.0
H2252 H 0.13096 0.73754 0.62245 0.0
H2253 H 0.07289 0.79608 0.58476 0.0
H2254 H 0.10631 0.75968 0.54336 0.0
H2255 H 0.09512 0.77153 0.6639 0.0
C2256 C 0.11034 0.75593 0.68019 0.0
C2257 C 0.1206 0.74605 0.66949 0.0
C2258 C 0.09909 0.76774 0.55256 0.0
C2259 C 0.10583 0.76256 0.61777 0.0
C2260 C 0.09081 0.77499 0.52706 0.0
C2261 C 0.08109 0.78541 0.53775 0.0
C2262 C 0.09766 0.7707 0.58946 0.0
C2263 C 0.08026 0.78828 0.5749 0.0
C2264 C 0.10306 0.76418 0.65468 0.0
C2265 C 0.12328 0.74503 0.63232 0.0
N2266 N 0.08828 0.78097 0.59914 0.0
N2267 N 0.11595 0.75303 0.60808 0.0
H2268 H 0.6648 0.759 0.20646 0.0
H2269 H 0.6938 0.77211 0.99582 0.0
H2270 H 0.62128 0.73824 0.1218 0.0
H2271 H 0.73755 0.79694 0.07987 0.0
H2272 H 0.6673 0.75989 0.04125 0.0
H2273 H 0.69144 0.77309 0.16115 0.0
C2274 C 0.66075 0.7575 0.17842 0.0
C2275 C 0.64051 0.74738 0.16837 0.0
C2276 C 0.68268 0.76809 0.04988 0.0
C2277 C 0.67138 0.76349 0.11557 0.0
C2278 C 0.69792 0.77516 0.02377 0.0
C2279 C 0.71819 0.78578 0.03358 0.0
C2280 C 0.68746 0.77141 0.08662 0.0
C2281 C 0.72229 0.78899 0.07061 0.0
C2282 C 0.67608 0.76555 0.1524 0.0
C2283 C 0.63652 0.74593 0.13125 0.0
N2284 N 0.70722 0.78185 0.09547 0.0
N2285 N 0.65164 0.75374 0.10653 0.0
H2286 H 0.22461 0.94538 0.08081 0.0
H2287 H 0.28548 0.88778 0.12184 0.0
H2288 H 0.25038 0.92656 0.99822 0.0
H2289 H 0.26487 0.91167 0.20485 0.0
H2290 H 0.27131 0.9002 0.07675 0.0
H2291 H 0.23753 0.93174 0.12611 0.0
C2292 C 0.23286 0.93827 0.07202 0.0
C2293 C 0.23623 0.93719 0.03517 0.0
C2294 C 0.26978 0.90271 0.10479 0.0
C2295 C 0.25137 0.92134 0.08779 0.0
C2296 C 0.27787 0.89552 0.13077 0.0
C2297 C 0.27645 0.89851 0.16767 0.0
C2298 C 0.25996 0.91307 0.11524 0.0
C2299 C 0.2664 0.90885 0.17698 0.0
C2300 C 0.24034 0.9305 0.09811 0.0
C2301 C 0.24724 0.92781 0.02602 0.0
N2302 N 0.25862 0.91567 0.1512 0.0
N2303 N 0.25432 0.92033 0.05188 0.0
H2304 H 0.11269 0.35982 0.20064 0.0
H2305 H 0.09358 0.32553 0.99279 0.0
H2306 H 0.13239 0.40159 0.1132 0.0
H2307 H 0.07923 0.28475 0.08087 0.0
H2308 H 0.10794 0.35346 0.03564 0.0
H2309 H 0.10058 0.33239 0.15719 0.0
C2310 C 0.11464 0.36331 0.17234 0.0
C2311 C 0.12377 0.38328 0.16095 0.0
C2312 C 0.10176 0.33841 0.04563 0.0
C2313 C 0.10952 0.35149 0.11029 0.0
C2314 C 0.09357 0.32238 0.02102 0.0
C2315 C 0.08516 0.30253 0.03284 0.0
C2316 C 0.10153 0.33478 0.08271 0.0
C2317 C 0.08555 0.29965 0.0701 0.0
C2318 C 0.10764 0.34754 0.14739 0.0
C2319 C 0.12562 0.38657 0.1236 0.0
N2320 N 0.09343 0.31541 0.0934 0.0
N2321 N 0.11855 0.37099 0.09987 0.0
H2322 H 0.80253 0.73204 0.4499 0.0
H2323 H 0.73966 0.61297 0.41773 0.0
H2324 H 0.77471 0.69009 0.53591 0.0
H2325 H 0.76213 0.65578 0.33196 0.0
H2326 H 0.75407 0.64043 0.46123 0.0
H2327 H 0.78981 0.70433 0.40728 0.0
C2328 C 0.79389 0.717 0.46006 0.0
C2329 C 0.78989 0.71368 0.49704 0.0
C2330 C 0.75598 0.64388 0.43293 0.0
C2331 C 0.77492 0.68128 0.44736 0.0
C2332 C 0.7478 0.62811 0.40787 0.0
C2333 C 0.74965 0.6318 0.37067 0.0
C2334 C 0.76632 0.66382 0.42118 0.0
C2335 C 0.76029 0.65196 0.3601 0.0
C2336 C 0.78652 0.70108 0.43545 0.0
C2337 C 0.77837 0.69362 0.50792 0.0
N2338 N 0.76812 0.66702 0.38498 0.0
N2339 N 0.77137 0.67834 0.48341 0.0
H2340 H 0.288 0.07489 0.45258 0.0
H2341 H 0.407 0.13292 0.42003 0.0
H2342 H 0.33027 0.09174 0.53884 0.0
H2343 H 0.3642 0.10814 0.33446 0.0
H2344 H 0.37957 0.12036 0.46342 0.0
H2345 H 0.31557 0.08916 0.40967 0.0
C2346 C 0.30308 0.08177 0.46273 0.0
C2347 C 0.30654 0.08206 0.49989 0.0
C2348 C 0.37609 0.11771 0.43519 0.0
C2349 C 0.33877 0.09865 0.44984 0.0
C2350 C 0.39184 0.125 0.41016 0.0
C2351 C 0.38817 0.12179 0.37305 0.0
C2352 C 0.35617 0.10707 0.42353 0.0
C2353 C 0.368 0.11117 0.36251 0.0
C2354 C 0.31893 0.08989 0.43794 0.0
C2355 C 0.32665 0.09116 0.51074 0.0
N2356 N 0.35293 0.1043 0.38739 0.0
N2357 N 0.34185 0.09902 0.48604 0.0
H2358 H 0.89073 0.27851 0.41706 0.0
H2359 H 0.94984 0.21862 0.45259 0.0
H2360 H 0.91578 0.26022 0.33229 0.0
H2361 H 0.92889 0.24119 0.53733 0.0
H2362 H 0.93592 0.23187 0.40848 0.0
H2363 H 0.90281 0.26337 0.46085 0.0
C2364 C 0.89862 0.27118 0.40746 0.0
C2365 C 0.90206 0.27071 0.37048 0.0
C2366 C 0.93423 0.23386 0.4367 0.0
C2367 C 0.91626 0.25315 0.42135 0.0
C2368 C 0.94215 0.22618 0.46209 0.0
C2369 C 0.94057 0.22858 0.49917 0.0
C2370 C 0.92448 0.24415 0.44799 0.0
C2371 C 0.9305 0.23877 0.50929 0.0
C2372 C 0.90562 0.26254 0.43269 0.0
C2373 C 0.9126 0.261 0.36026 0.0
N2374 N 0.92294 0.24611 0.48409 0.0
N2375 N 0.91926 0.25271 0.38532 0.0
H2376 H 0.07013 0.61343 0.25326 0.0
H2377 H 0.9515 0.55296 0.29154 0.0
H2378 H 0.02613 0.5931 0.16947 0.0
H2379 H 0.99543 0.57809 0.37528 0.0
H2380 H 0.97839 0.56571 0.24697 0.0
H2381 H 0.04328 0.59899 0.29786 0.0
C2382 C 0.05484 0.60578 0.24406 0.0
C2383 C 0.05063 0.60453 0.20712 0.0
C2384 C 0.98222 0.5684 0.27506 0.0
C2385 C 0.01932 0.58781 0.25889 0.0
C2386 C 0.96679 0.56101 0.30074 0.0
C2387 C 0.97097 0.56428 0.33766 0.0
C2388 C 1.0023 0.57922 0.28592 0.0
C2389 C 0.99127 0.57504 0.34737 0.0
C2390 C 0.03942 0.59756 0.26975 0.0
C2391 C 0.03031 0.59448 0.1974 0.0
N2392 N 1.00602 0.58205 0.3219 0.0
N2393 N 0.01558 0.5866 0.22289 0.0
H2394 H 0.40919 0.46548 0.25182 0.0
H2395 H 0.46552 0.40306 0.28879 0.0
H2396 H 0.42652 0.43958 0.16705 0.0
H2397 H 0.44175 0.42327 0.37267 0.0
H2398 H 0.45348 0.41793 0.24425 0.0
H2399 H 0.42294 0.4521 0.29572 0.0
C2400 C 0.41605 0.45714 0.24222 0.0
C2401 C 0.41665 0.45388 0.20518 0.0
C2402 C 0.45094 0.41923 0.27237 0.0
C2403 C 0.43261 0.43812 0.25635 0.0
C2404 C 0.45792 0.41075 0.29804 0.0
C2405 C 0.45483 0.41185 0.33502 0.0
C2406 C 0.44073 0.42912 0.28327 0.0
C2407 C 0.44466 0.42199 0.34475 0.0
C2408 C 0.42388 0.44938 0.26756 0.0
C2409 C 0.4257 0.4427 0.19504 0.0
N2410 N 0.43807 0.43015 0.31929 0.0
N2411 N 0.43325 0.4353 0.22026 0.0
H2412 H 0.59812 0.02479 0.36916 0.0
H2413 H 0.58005 0.99225 0.16038 0.0
H2414 H 0.61703 0.06696 0.28245 0.0
H2415 H 0.55799 0.95008 0.24719 0.0
H2416 H 0.59314 0.01956 0.20424 0.0
H2417 H 0.58303 0.99748 0.32537 0.0
C2418 C 0.599 0.0284 0.34097 0.0
C2419 C 0.6089 0.04846 0.32989 0.0
C2420 C 0.58535 1.00435 0.21381 0.0
C2421 C 0.59161 0.0168 0.27882 0.0
C2422 C 0.57777 0.98864 0.18861 0.0
C2423 C 0.56769 0.96858 0.1997 0.0
C2424 C 0.58306 1.00025 0.25084 0.0
C2425 C 0.56549 0.96516 0.23699 0.0
C2426 C 0.59037 0.01269 0.31582 0.0
C2427 C 0.60953 0.05189 0.29265 0.0
N2428 N 0.5731 0.98067 0.26093 0.0
N2429 N 0.60116 0.03638 0.26875 0.0
H2430 H 0.44323 0.0206 0.87934 0.0
H2431 H 0.42861 0.98866 0.67014 0.0
H2432 H 0.46987 0.06239 0.79272 0.0
H2433 H 0.40645 0.9459 0.75603 0.0
H2434 H 0.44371 0.01559 0.71458 0.0
H2435 H 0.42974 0.99318 0.83543 0.0
C2436 C 0.44642 0.02408 0.85121 0.0
C2437 C 0.45791 0.04407 0.84013 0.0
C2438 C 0.43564 1.00033 0.72384 0.0
C2439 C 0.44212 0.01238 0.78901 0.0
C2440 C 0.427 0.98484 0.6983 0.0
C2441 C 0.4162 0.96474 0.70894 0.0
C2442 C 0.43349 0.99597 0.76079 0.0
C2443 C 0.41466 0.96103 0.74617 0.0
C2444 C 0.43863 0.00834 0.82599 0.0
C2445 C 0.46125 0.04737 0.80295 0.0
N2446 N 0.42305 0.97635 0.77047 0.0
N2447 N 0.45342 0.03188 0.77905 0.0
H2448 H 0.99869 0.42744 0.87145 0.0
H2449 H 0.02697 0.44264 0.66058 0.0
H2450 H 0.9548 0.40809 0.78756 0.0
H2451 H 0.07087 0.46564 0.74461 0.0
H2452 H 1.00055 0.43034 0.70622 0.0
H2453 H 0.02512 0.44176 0.82584 0.0
C2454 C 0.99453 0.4263 0.84352 0.0
C2455 C 0.97425 0.41651 0.83376 0.0
C2456 C 0.01595 0.43817 0.71477 0.0
C2457 C 1.00486 0.43289 0.7806 0.0
C2458 C 0.03114 0.44529 0.68856 0.0
C2459 C 0.05142 0.4554 0.69834 0.0
C2460 C 0.02081 0.44094 0.75153 0.0
C2461 C 0.05559 0.4581 0.73538 0.0
C2462 C 1.00972 0.43448 0.81732 0.0
C2463 C 0.97008 0.41552 0.79676 0.0
N2464 N 0.04058 0.45092 0.76031 0.0
N2465 N 0.98509 0.42345 0.77184 0.0
H2466 H 0.57659 0.58704 0.66435 0.0
H2467 H 0.59478 0.57296 0.87336 0.0
H2468 H 0.55625 0.60921 0.75074 0.0
H2469 H 0.61144 0.54766 0.78656 0.0
H2470 H 0.58027 0.58588 0.82956 0.0
H2471 H 0.58892 0.57225 0.70853 0.0
C2472 C 0.57453 0.5887 0.69256 0.0
C2473 C 0.56516 0.59943 0.70343 0.0
C2474 C 0.58699 0.57741 0.82004 0.0
C2475 C 0.57967 0.5825 0.75495 0.0
C2476 C 0.59527 0.56993 0.84519 0.0
C2477 C 0.60438 0.559 0.83405 0.0
C2478 C 0.5878 0.57414 0.78304 0.0
C2479 C 0.60458 0.55585 0.79683 0.0
C2480 C 0.58167 0.58025 0.71794 0.0
C2481 C 0.56321 0.60105 0.74071 0.0
N2482 N 0.59657 0.56336 0.77298 0.0
N2483 N 0.57039 0.59283 0.76483 0.0
H2484 H 0.32819 0.37413 0.19233 0.0
H2485 H 0.29497 0.30576 1.01783 0.0
H2486 H 0.3377 0.3969 0.08436 0.0
H2487 H 0.28171 0.28258 0.12554 0.0
H2488 H 0.30991 0.33942 0.04184 0.0
H2489 H 0.31027 0.34029 0.16855 0.0
C2490 C 0.32642 0.37197 0.16365 0.0
C2491 C 0.33457 0.38822 0.14021 0.0
C2492 C 0.30369 0.32696 0.06023 0.0
C2493 C 0.31432 0.34982 0.11288 0.0
C2494 C 0.2951 0.30778 0.04651 0.0
C2495 C 0.28729 0.29146 0.06978 0.0
C2496 C 0.30446 0.32974 0.09744 0.0
C2497 C 0.28797 0.29482 0.10675 0.0
C2498 C 0.31627 0.35271 0.15009 0.0
C2499 C 0.33202 0.38472 0.10327 0.0
N2500 N 0.2965 0.31365 0.1195 0.0
N2501 N 0.32214 0.36586 0.09071 0.0
H2502 H 0.62122 0.93344 0.07378 0.0
H2503 H 0.73694 0.99323 0.11964 0.0
H2504 H 0.64503 0.94825 0.18095 0.0
H2505 H 0.71293 0.9853 1.01279 0.0
H2506 H 0.70348 0.97109 0.14234 0.0
H2507 H 0.65495 0.94657 0.05074 0.0
C2508 C 0.63355 0.9394 0.09244 0.0
C2509 C 0.63044 0.94018 0.12921 0.0
C2510 C 0.70557 0.97407 0.11388 0.0
C2511 C 0.66887 0.955 0.10324 0.0
C2512 C 0.72462 0.98683 0.10099 0.0
C2513 C 0.72758 0.99138 0.06442 0.0
C2514 C 0.68945 0.96594 0.08998 0.0
C2515 C 0.71125 0.9822 0.04119 0.0
C2516 C 0.65275 0.94675 0.07934 0.0
C2517 C 0.64681 0.94743 0.1524 0.0
N2518 N 0.69279 0.97006 0.05445 0.0
N2519 N 0.66539 0.95482 0.13896 0.0
H2520 H 0.0862 0.69436 0.08224 0.0
H2521 H 0.02744 0.75144 0.12679 0.0
H2522 H 0.0707 0.70298 0.18909 0.0
H2523 H 0.03715 0.73671 0.02002 0.0
H2524 H 0.04921 0.7398 0.15022 0.0
H2525 H 0.07436 0.71602 0.05919 0.0
C2526 C 0.08034 0.70088 0.10082 0.0
C2527 C 0.07895 0.69656 0.13747 0.0
C2528 C 0.04673 0.73932 0.12162 0.0
C2529 C 0.06557 0.72137 0.1115 0.0
C2530 C 0.03419 0.74579 0.1083 0.0
C2531 C 0.03017 0.7446 0.07152 0.0
C2532 C 0.05517 0.73152 0.09796 0.0
C2533 C 0.0398 0.7378 0.04856 0.0
C2534 C 0.07374 0.71334 0.08773 0.0
C2535 C 0.0719 0.70587 0.16062 0.0
N2536 N 0.05168 0.73126 0.06223 0.0
N2537 N 0.06519 0.71766 0.14716 0.0
H2538 H 0.28687 0.26251 0.41081 0.0
H2539 H 0.40206 0.3193 0.45795 0.0
H2540 H 0.31057 0.276 0.51815 0.0
H2541 H 0.37851 0.31105 0.35072 0.0
H2542 H 0.36863 0.29647 0.4801 0.0
H2543 H 0.32024 0.27319 0.38814 0.0
C2544 C 0.29909 0.26763 0.42959 0.0
C2545 C 0.29611 0.26889 0.46628 0.0
C2546 C 0.37082 0.29946 0.45166 0.0
C2547 C 0.33414 0.28093 0.44072 0.0
C2548 C 0.38985 0.3126 0.43908 0.0
C2549 C 0.39288 0.31742 0.40262 0.0
C2550 C 0.35478 0.29129 0.42757 0.0
C2551 C 0.37674 0.30783 0.37908 0.0
C2552 C 0.31808 0.27356 0.41671 0.0
C2553 C 0.31226 0.27494 0.48965 0.0
N2554 N 0.35828 0.29543 0.39205 0.0
N2555 N 0.33068 0.28105 0.47639 0.0
H2556 H 0.7582 0.02826 0.40741 0.0
H2557 H 0.70165 0.08749 0.45031 0.0
H2558 H 0.74379 0.03891 0.51378 0.0
H2559 H 0.70903 0.07009 0.34421 0.0
H2560 H 0.72443 0.07705 0.47341 0.0
H2561 H 0.74765 0.0508 0.38347 0.0
C2562 C 0.75291 0.03542 0.42572 0.0
C2563 C 0.75133 0.03132 0.4625 0.0
C2564 C 0.72125 0.07574 0.44499 0.0
C2565 C 0.73948 0.05717 0.43547 0.0
C2566 C 0.70813 0.08153 0.43189 0.0
C2567 C 0.70308 0.07911 0.39551 0.0
C2568 C 0.72918 0.06734 0.42153 0.0
C2569 C 0.71242 0.07202 0.3725 0.0
C2570 C 0.74706 0.04839 0.41211 0.0
C2571 C 0.74509 0.04153 0.48523 0.0
N2572 N 0.72482 0.06607 0.38602 0.0
N2573 N 0.73908 0.05377 0.47126 0.0
H2574 H 0.94601 0.63902 0.35402 0.0
H2575 H 0.98188 0.70966 0.52417 0.0
H2576 H 0.93611 0.61778 0.46308 0.0
H2577 H 0.99261 0.73085 0.41507 0.0
H2578 H 0.96007 0.67602 0.5024 0.0
H2579 H 0.95796 0.67265 0.37595 0.0
C2580 C 0.94608 0.64138 0.38257 0.0
C2581 C 0.94042 0.62567 0.40683 0.0
C2582 C 0.96705 0.68805 0.48322 0.0
C2583 C 0.95435 0.66411 0.43209 0.0
C2584 C 0.97944 0.70728 0.49565 0.0
C2585 C 0.98934 0.72299 0.47132 0.0
C2586 C 0.96466 0.68454 0.44623 0.0
C2587 C 0.98571 0.71905 0.43465 0.0
C2588 C 0.95299 0.66061 0.39509 0.0
C2589 C 0.94089 0.62959 0.44354 0.0
N2590 N 0.97379 0.70014 0.42317 0.0
N2591 N 0.94798 0.6485 0.45511 0.0
H2592 H 0.7398 0.71008 0.02003 0.0
H2593 H 0.67941 0.61456 0.95705 0.0
H2594 H 0.74163 0.72817 0.91014 0.0
H2595 H 0.69921 0.63936 0.85153 0.0
H2596 H 0.69858 0.64744 0.98249 0.0
H2597 H 0.72367 0.67565 1.0008 0.0
C2598 C 0.73678 0.7068 0.99183 0.0
C2599 C 0.74168 0.72198 0.96674 0.0
C2600 C 0.69919 0.6458 0.95387 0.0
C2601 C 0.72225 0.6825 0.94458 0.0
C2602 C 0.68781 0.62697 0.93918 0.0
C2603 C 0.68761 0.62424 0.90204 0.0
C2604 C 0.71064 0.66201 0.93122 0.0
C2605 C 0.6991 0.6408 0.8803 0.0
C2606 C 0.72719 0.68703 0.98086 0.0
C2607 C 0.73753 0.71689 0.93053 0.0
N2608 N 0.71012 0.65902 0.89526 0.0
N2609 N 0.72791 0.69754 0.92056 0.0
H2610 H 0.40406 0.07056 0.95985 0.0
H2611 H 0.30843 0.03793 1.0173 0.0
H2612 H 0.38104 0.06404 0.85245 0.0
H2613 H 0.29136 0.01842 0.90813 0.0
H2614 H 0.34281 0.05692 0.99854 0.0
H2615 H 0.37096 0.05869 0.98329 0.0
C2616 C 0.39198 0.06664 0.94118 0.0
C2617 C 0.39523 0.06806 0.90413 0.0
C2618 C 0.33167 0.04822 0.97871 0.0
C2619 C 0.35729 0.05546 0.9308 0.0
C2620 C 0.31187 0.03761 0.98934 0.0
C2621 C 0.29698 0.02608 0.96443 0.0
C2622 C 0.33661 0.04695 0.94303 0.0
C2623 C 0.3024 0.02648 0.92851 0.0
C2624 C 0.37306 0.06027 0.95464 0.0
C2625 C 0.37916 0.06324 0.8812 0.0
N2626 N 0.32183 0.03656 0.91896 0.0
N2627 N 0.36081 0.05701 0.89495 0.0
H2628 H 0.99548 0.26518 0.91756 0.0
H2629 H 0.95815 0.32217 0.84723 0.0
H2630 H 0.99607 0.29315 1.01763 0.0
H2631 H 0.94276 0.32803 0.95576 0.0
H2632 H 0.97187 0.30199 0.86846 0.0
H2633 H 0.97495 0.27748 0.89147 0.0
C2634 C 0.99144 0.27419 0.9338 0.0
C2635 C 0.99777 0.27866 0.96939 0.0
C2636 C 0.965 0.3071 0.8877 0.0
C2637 C 0.97489 0.29333 0.93968 0.0
C2638 C 0.95727 0.31876 0.8755 0.0
C2639 C 0.94949 0.32683 0.89985 0.0
C2640 C 0.96476 0.30337 0.92456 0.0
C2641 C 0.94899 0.32234 0.93626 0.0
C2642 C 0.9798 0.28131 0.9189 0.0
C2643 C 0.99157 0.28963 0.98994 0.0
N2644 N 0.9567 0.31101 0.94759 0.0
N2645 N 0.9806 0.29682 0.97462 0.0
H2646 H 0.73574 0.74703 0.61203 0.0
H2647 H 0.61928 0.68525 0.57405 0.0
H2648 H 0.71049 0.72769 0.50677 0.0
H2649 H 0.64566 0.69771 0.67943 0.0
H2650 H 0.65225 0.70597 0.54818 0.0
H2651 H 0.70243 0.73432 0.63632 0.0
C2652 C 0.7231 0.74 0.59409 0.0
C2653 C 0.72568 0.73789 0.55757 0.0
C2654 C 0.65077 0.70429 0.57698 0.0
C2655 C 0.68767 0.72355 0.58495 0.0
C2656 C 0.63201 0.69235 0.59173 0.0
C2657 C 0.62987 0.68945 0.62887 0.0
C2658 C 0.6674 0.7133 0.59961 0.0
C2659 C 0.6467 0.69953 0.65067 0.0
C2660 C 0.70414 0.73292 0.60787 0.0
C2661 C 0.70899 0.72939 0.53515 0.0
N2662 N 0.66484 0.71086 0.63565 0.0
N2663 N 0.69056 0.72226 0.54932 0.0
H2664 H 0.32441 0.95296 0.6926 0.0
H2665 H 0.27303 0.99543 0.61738 0.0
H2666 H 0.32977 0.936 0.58501 0.0
H2667 H 0.30018 0.9928 0.51835 0.0
H2668 H 0.28386 0.97423 0.64542 0.0
H2669 H 0.30668 0.96902 0.66972 0.0
C2670 C 0.32138 0.95224 0.66419 0.0
C2671 C 0.3286 0.94333 0.64058 0.0
C2672 C 0.28792 0.97856 0.61784 0.0
C2673 C 0.30795 0.96125 0.61396 0.0
C2674 C 0.28165 0.99061 0.6018 0.0
C2675 C 0.28625 0.99618 0.56588 0.0
C2676 C 0.29922 0.97241 0.59787 0.0
C2677 C 0.29662 0.98894 0.54626 0.0
C2678 C 0.31113 0.96133 0.65102 0.0
C2679 C 0.32468 0.94306 0.60394 0.0
N2680 N 0.30297 0.97751 0.56267 0.0
N2681 N 0.31471 0.95206 0.59168 0.0
H2682 H 0.03725 0.30648 0.51322 0.0
H2683 H 0.07168 0.37745 0.68267 0.0
H2684 H 0.02783 0.28556 0.62246 0.0
H2685 H 0.0824 0.39863 0.57353 0.0
H2686 H 0.06008 0.34388 0.66104 0.0
H2687 H 0.05828 0.34036 0.53462 0.0
C2688 C 0.03982 0.309 0.54169 0.0
C2689 C 0.03052 0.29329 0.56619 0.0
C2690 C 0.06513 0.35589 0.64181 0.0
C2691 C 0.05428 0.33194 0.59085 0.0
C2692 C 0.07183 0.37508 0.65416 0.0
C2693 C 0.07771 0.39078 0.6298 0.0
C2694 C 0.06415 0.35238 0.60485 0.0
C2695 C 0.07748 0.38685 0.59314 0.0
C2696 C 0.05177 0.32834 0.55391 0.0
C2697 C 0.03427 0.29735 0.60278 0.0
N2698 N 0.07058 0.36794 0.58172 0.0
N2699 N 0.04573 0.31637 0.61406 0.0
H2700 H 0.06917 0.65516 0.79493 0.0
H2701 H 0.95335 0.59899 0.75168 0.0
H2702 H 0.04451 0.64589 0.68842 0.0
H2703 H 0.97831 0.61585 0.85777 0.0
H2704 H 0.98647 0.60908 0.7284 0.0
H2705 H 0.03579 0.63356 0.81856 0.0
C2706 C 0.05673 0.64849 0.77653 0.0
C2707 C 0.05947 0.65269 0.73982 0.0
C2708 C 0.98464 0.61035 0.75684 0.0
C2709 C 0.02143 0.62796 0.76646 0.0
C2710 C 0.9658 0.60478 0.77006 0.0
C2711 C 0.96323 0.60707 0.80655 0.0
C2712 C 1.00095 0.61835 0.7803 0.0
C2713 C 0.97968 0.61396 0.82944 0.0
C2714 C 0.03773 0.63606 0.78996 0.0
C2715 C 0.04301 0.64314 0.71693 0.0
N2716 N 0.99794 0.61963 0.81584 0.0
N2717 N 0.0246 0.63143 0.73072 0.0
H2718 H 0.39666 0.33324 0.74888 0.0
H2719 H 0.34043 0.39262 0.79491 0.0
H2720 H 0.38625 0.34595 0.85672 0.0
H2721 H 0.35181 0.38044 0.68739 0.0
H2722 H 0.35439 0.37292 0.81825 0.0
H2723 H 0.37751 0.34782 0.72609 0.0
C2724 C 0.39011 0.33888 0.76782 0.0
C2725 C 0.393 0.33841 0.80476 0.0
C2726 C 0.35372 0.37444 0.78955 0.0
C2727 C 0.37141 0.35546 0.77882 0.0
C2728 C 0.34565 0.38557 0.77621 0.0
C2729 C 0.34505 0.38815 0.73918 0.0
C2730 C 0.36129 0.36593 0.76564 0.0
C2731 C 0.35231 0.37902 0.71612 0.0
C2732 C 0.37928 0.34732 0.75476 0.0
C2733 C 0.38455 0.34629 0.82804 0.0
N2734 N 0.36023 0.36834 0.72977 0.0
N2735 N 0.37415 0.35461 0.81463 0.0
H2736 H 0.69523 0.06718 0.74388 0.0
H2737 H 0.63424 0.97327 0.67422 0.0
H2738 H 0.66602 0.04147 0.84427 0.0
H2739 H 0.62677 0.95293 0.78368 0.0
H2740 H 0.65437 1.00738 0.69512 0.0
H2741 H 0.68038 0.03419 0.71813 0.0
C2742 C 0.68579 0.05456 0.76065 0.0
C2743 C 0.68173 0.05707 0.7963 0.0
C2744 C 0.64883 0.99547 0.71455 0.0
C2745 C 0.66372 0.01927 0.76624 0.0
C2746 C 0.63702 0.97601 0.70261 0.0
C2747 C 0.62895 0.96031 0.72724 0.0
C2748 C 0.65259 0.99911 0.75139 0.0
C2749 C 0.63304 0.96458 0.76373 0.0
C2750 C 0.67695 0.03569 0.74561 0.0
C2751 C 0.66922 0.04019 0.81653 0.0
N2752 N 0.64451 0.98362 0.77472 0.0
N2753 N 0.66056 0.02195 0.80111 0.0
H2754 H 0.40289 0.04302 0.36495 0.0
H2755 H 0.37449 0.97436 0.19163 0.0
H2756 H 0.41576 0.06524 0.25663 0.0
H2757 H 0.36046 0.95135 0.2994 0.0
H2758 H 0.39362 0.00789 0.21568 0.0
H2759 H 0.39063 0.00932 0.34215 0.0
C2760 C 0.40318 0.04077 0.33641 0.0
C2761 C 0.40998 0.05677 0.31254 0.0
C2762 C 0.38648 0.9955 0.23411 0.0
C2763 C 0.39611 0.01856 0.28634 0.0
C2764 C 0.37566 0.97635 0.22037 0.0
C2765 C 0.36561 0.96014 0.24358 0.0
C2766 C 0.38713 0.9984 0.27127 0.0
C2767 C 0.36755 0.96353 0.2806 0.0
C2768 C 0.39621 0.0216 0.32341 0.0
C2769 C 0.41011 0.05319 0.27581 0.0
N2770 N 0.37795 0.98237 0.29336 0.0
N2771 N 0.40317 0.03441 0.2638 0.0
H2772 H 0.04516 0.4061 0.17958 0.0
H2773 H 0.97954 0.37175 0.3551 0.0
H2774 H 0.06954 0.41802 0.28653 0.0
H2775 H 0.95545 0.36223 0.24811 0.0
H2776 H 0.01253 0.39424 0.33105 0.0
H2777 H 0.0124 0.39558 0.20442 0.0
C2778 C 0.04368 0.40676 0.20827 0.0
C2779 C 0.06 0.41248 0.23109 0.0
C2780 C 0.99999 0.38742 0.31286 0.0
C2781 C 0.02252 0.40018 0.25974 0.0
C2782 C 0.98115 0.37463 0.3266 0.0
C2783 C 0.96488 0.36475 0.30341 0.0
C2784 C 1.0025 0.39017 0.2757 0.0
C2785 C 0.96775 0.36902 0.26674 0.0
C2786 C 0.02495 0.4007 0.22247 0.0
C2787 C 0.05722 0.41306 0.26806 0.0
N2788 N 0.98629 0.38123 0.25392 0.0
N2789 N 0.03874 0.40669 0.28131 0.0
H2790 H 0.60339 0.65724 0.2948 0.0
H2791 H 0.65882 0.59706 0.24945 0.0
H2792 H 0.61778 0.64721 0.18796 0.0
H2793 H 0.65251 0.61476 0.35599 0.0
H2794 H 0.63664 0.60842 0.22702 0.0
H2795 H 0.61418 0.63476 0.31805 0.0
C2796 C 0.60875 0.65025 0.27625 0.0
C2797 C 0.61019 0.65444 0.23953 0.0
C2798 C 0.63995 0.60962 0.25538 0.0
C2799 C 0.62228 0.62866 0.26574 0.0
C2800 C 0.65272 0.60331 0.2681 0.0
C2801 C 0.65785 0.60548 0.30443 0.0
C2802 C 0.63243 0.61826 0.2792 0.0
C2803 C 0.64902 0.61298 0.32774 0.0
C2804 C 0.61474 0.63731 0.28946 0.0
C2805 C 0.61655 0.64447 0.21647 0.0
N2806 N 0.63692 0.61939 0.31461 0.0
N2807 N 0.62265 0.63223 0.23004 0.0
loop_
_geom_bond_atom_site_label_1
_geom_bond_atom_site_label_2
_geom_bond_distance
_geom_bond_site_symmetry_2
_ccdc_geom_bond_type
Co0 N4 2.148 . S
Co0 N10 2.128 . S
Co0 N20 2.194 . S
Co0 O25 2.351 1_554 S
Co0 O26 2.155 . S
Co0 O27 2.096 . S
C1 N4 1.301 . S
C1 N5 1.328 . S
C1 H6 0.930 1_554 S
C2 C3 1.333 . S
C2 N4 1.317 . S
C2 H7 0.930 . S
C3 C2 1.333 . S
C3 N5 1.350 . S
C3 H29 0.931 . S
N4 Co0 2.148 . S
N4 C1 1.301 . S
N4 C2 1.317 . S
N5 C1 1.328 . S
N5 C3 1.350 . S
H6 C1 0.930 1_556 S
H7 C2 0.930 . S
C8 O9 1.224 . S
C8 O27 1.247 . S
O9 C8 1.224 . S
N10 Co0 2.128 . S
N10 C11 1.355 . S
N10 C13 1.311 . S
C11 N10 1.355 . S
C11 C12 1.363 . S
C11 H23 0.929 . S
C12 C11 1.363 . S
C12 N14 1.375 . S
C12 H30 0.931 . S
C13 N10 1.311 . S
C13 N14 1.347 . S
C13 H24 0.929 . S
N14 C12 1.375 . S
N14 C13 1.347 . S
C15 C18 1.365 . S
C15 N20 1.328 1_556 S
C15 H21 0.929 . S
C16 C17 1.362 . S
C16 C19 1.378 . S
C16 H31 0.929 . S
C17 C16 1.362 . S
C17 C18 1.366 1_554 S
C18 C15 1.365 . S
C18 C17 1.366 1_556 S
C18 H32 0.930 . S
C19 C16 1.378 . S
C19 N20 1.315 . S
C19 H22 0.930 . S
N20 Co0 2.194 . S
N20 C15 1.328 1_554 S
N20 C19 1.315 . S
H21 C15 0.929 . S
H22 C19 0.930 . S
H23 C11 0.929 . S
H24 C13 0.929 . S
O25 Co0 2.351 1_556 S
O25 C28 1.244 1_556 S
O26 Co0 2.155 . S
O26 C28 1.240 . S
O27 Co0 2.096 . S
O27 C8 1.247 . S
C28 O25 1.244 1_554 S
C28 O26 1.240 . S
H29 C3 0.931 . S
H30 C12 0.931 . S
H31 C16 0.929 . S
H32 C18 0.930 . S
Co33 N37 2.148 . S
Co33 N43 2.128 1_545 S
Co33 N53 2.194 1_545 S
Co33 O58 2.351 1_554 S
Co33 O59 2.155 . S
Co33 O60 2.096 . S
C34 N37 1.301 . S
C34 N38 1.328 . S
C34 H39 0.930 1_554 S
C35 C36 1.333 . S
C35 N37 1.317 . S
C35 H40 0.930 . S
C36 C35 1.333 . S
C36 N38 1.350 . S
C36 H62 0.931 . S
N37 Co33 2.148 . S
N37 C34 1.301 . S
N37 C35 1.317 . S
N38 C34 1.328 . S
N38 C36 1.350 . S
H39 C34 0.930 1_556 S
H40 C35 0.930 . S
C41 O42 1.224 . S
C41 O60 1.247 . S
O42 C41 1.224 . S
N43 Co33 2.128 1_565 S
N43 C44 1.355 . S
N43 C46 1.311 . S
C44 N43 1.355 . S
C44 C45 1.363 . S
C44 H56 0.929 . S
C45 C44 1.363 . S
C45 N47 1.375 . S
C45 H63 0.931 . S
C46 N43 1.311 . S
C46 N47 1.347 . S
C46 H57 0.929 . S
N47 C45 1.375 . S
N47 C46 1.347 . S
C48 C51 1.365 . S
C48 N53 1.328 1_556 S
C48 H54 0.929 1_565 S
C49 C50 1.362 . S
C49 C52 1.378 . S
C49 H64 0.929 . S
C50 C49 1.362 . S
C50 C51 1.366 1_554 S
C51 C48 1.365 . S
C51 C50 1.366 1_556 S
C51 H65 0.930 . S
C52 C49 1.378 . S
C52 N53 1.315 . S
C52 H55 0.930 . S
N53 Co33 2.194 1_565 S
N53 C48 1.328 1_554 S
N53 C52 1.315 . S
H54 C48 0.929 1_545 S
H55 C52 0.930 . S
H56 C44 0.929 . S
H57 C46 0.929 . S
O58 Co33 2.351 1_556 S
O58 C61 1.244 1_556 S
O59 Co33 2.155 . S
O59 C61 1.240 . S
O60 Co33 2.096 . S
O60 C41 1.247 . S
C61 O58 1.244 1_554 S
C61 O59 1.240 . S
H62 C36 0.931 . S
H63 C45 0.931 . S
H64 C49 0.929 . S
H65 C51 0.930 . S
Co66 N70 2.148 . S
Co66 N76 2.128 1_655 S
Co66 N86 2.194 1_655 S
Co66 O91 2.351 1_554 S
Co66 O92 2.155 . S
Co66 O93 2.096 . S
C67 N70 1.301 . S
C67 N71 1.328 . S
C67 H72 0.930 1_554 S
C68 C69 1.333 . S
C68 N70 1.317 . S
C68 H73 0.930 . S
C69 C68 1.333 . S
C69 N71 1.350 . S
C69 H95 0.931 . S
N70 Co66 2.148 . S
N70 C67 1.301 . S
N70 C68 1.317 . S
N71 C67 1.328 . S
N71 C69 1.350 . S
H72 C67 0.930 1_556 S
H73 C68 0.930 . S
C74 O75 1.224 . S
C74 O93 1.247 . S
O75 C74 1.224 . S
N76 Co66 2.128 1_455 S
N76 C77 1.355 . S
N76 C79 1.311 . S
C77 N76 1.355 . S
C77 C78 1.363 . S
C77 H89 0.929 . S
C78 C77 1.363 . S
C78 N80 1.375 . S
C78 H96 0.931 . S
C79 N76 1.311 . S
C79 N80 1.347 . S
C79 H90 0.929 . S
N80 C78 1.375 . S
N80 C79 1.347 . S
C81 C84 1.365 . S
C81 N86 1.328 1_556 S
C81 H87 0.929 1_455 S
C82 C83 1.362 . S
C82 C85 1.378 . S
C82 H97 0.929 . S
C83 C82 1.362 . S
C83 C84 1.366 1_554 S
C84 C81 1.365 . S
C84 C83 1.366 1_556 S
C84 H98 0.930 . S
C85 C82 1.378 . S
C85 N86 1.315 . S
C85 H88 0.930 . S
N86 Co66 2.194 1_455 S
N86 C81 1.328 1_554 S
N86 C85 1.315 . S
H87 C81 0.929 1_655 S
H88 C85 0.930 . S
H89 C77 0.929 . S
H90 C79 0.929 . S
O91 Co66 2.351 1_556 S
O91 C94 1.244 1_556 S
O92 Co66 2.155 . S
O92 C94 1.240 . S
O93 Co66 2.096 . S
O93 C74 1.247 . S
C94 O91 1.244 1_554 S
C94 O92 1.240 . S
H95 C69 0.931 . S
H96 C78 0.931 . S
H97 C82 0.929 . S
H98 C84 0.930 . S
Co99 N103 2.148 . S
Co99 N109 2.128 . S
Co99 N119 2.194 . S
Co99 O124 2.351 . S
Co99 O125 2.155 . S
Co99 O126 2.096 . S
C100 N103 1.301 . S
C100 N104 1.328 . S
C100 H105 0.930 . S
C101 C102 1.333 . S
C101 N103 1.317 . S
C101 H106 0.930 . S
C102 C101 1.333 . S
C102 N104 1.350 . S
C102 H128 0.931 . S
N103 Co99 2.148 . S
N103 C100 1.301 . S
N103 C101 1.317 . S
N104 C100 1.328 . S
N104 C102 1.350 . S
H105 C100 0.930 . S
H106 C101 0.930 . S
C107 O108 1.224 . S
C107 O126 1.247 . S
O108 C107 1.224 . S
N109 Co99 2.128 . S
N109 C110 1.355 . S
N109 C112 1.311 . S
C110 N109 1.355 . S
C110 C111 1.363 . S
C110 H122 0.929 . S
C111 C110 1.363 . S
C111 N113 1.375 . S
C111 H129 0.931 . S
C112 N109 1.311 . S
C112 N113 1.347 . S
C112 H123 0.929 . S
N113 C111 1.375 . S
N113 C112 1.347 . S
C114 C117 1.365 . S
C114 N119 1.328 . S
C114 H120 0.929 . S
C115 C116 1.362 . S
C115 C118 1.378 . S
C115 H130 0.929 . S
C116 C115 1.362 . S
C116 C117 1.366 . S
C117 C114 1.365 . S
C117 C116 1.366 . S
C117 H131 0.930 . S
C118 C115 1.378 . S
C118 N119 1.315 . S
C118 H121 0.930 . S
N119 Co99 2.194 . S
N119 C114 1.328 . S
N119 C118 1.315 . S
H120 C114 0.929 . S
H121 C118 0.930 . S
H122 C110 0.929 . S
H123 C112 0.929 . S
O124 Co99 2.351 . S
O124 C127 1.244 . S
O125 Co99 2.155 . S
O125 C127 1.240 . S
O126 Co99 2.096 . S
O126 C107 1.247 . S
C127 O124 1.244 . S
C127 O125 1.240 . S
H128 C102 0.931 . S
H129 C111 0.931 . S
H130 C115 0.929 . S
H131 C117 0.930 . S
Co132 N136 2.148 . S
Co132 N142 2.128 1_565 S
Co132 N152 2.194 1_565 S
Co132 O157 2.351 . S
Co132 O158 2.155 . S
Co132 O159 2.096 . S
C133 N136 1.301 . S
C133 N137 1.328 . S
C133 H138 0.930 . S
C134 C135 1.333 . S
C134 N136 1.317 . S
C134 H139 0.930 . S
C135 C134 1.333 . S
C135 N137 1.350 . S
C135 H161 0.931 . S
N136 Co132 2.148 . S
N136 C133 1.301 . S
N136 C134 1.317 . S
N137 C133 1.328 . S
N137 C135 1.350 . S
H138 C133 0.930 . S
H139 C134 0.930 . S
C140 O141 1.224 . S
C140 O159 1.247 . S
O141 C140 1.224 . S
N142 Co132 2.128 1_545 S
N142 C143 1.355 . S
N142 C145 1.311 . S
C143 N142 1.355 . S
C143 C144 1.363 . S
C143 H155 0.929 . S
C144 C143 1.363 . S
C144 N146 1.375 . S
C144 H162 0.931 . S
C145 N142 1.311 . S
C145 N146 1.347 . S
C145 H156 0.929 . S
N146 C144 1.375 . S
N146 C145 1.347 . S
C147 C150 1.365 . S
C147 N152 1.328 . S
C147 H153 0.929 1_545 S
C148 C149 1.362 . S
C148 C151 1.378 . S
C148 H163 0.929 . S
C149 C148 1.362 . S
C149 C150 1.366 . S
C150 C147 1.365 . S
C150 C149 1.366 . S
C150 H164 0.930 . S
C151 C148 1.378 . S
C151 N152 1.315 . S
C151 H154 0.930 . S
N152 Co132 2.194 1_545 S
N152 C147 1.328 . S
N152 C151 1.315 . S
H153 C147 0.929 1_565 S
H154 C151 0.930 . S
H155 C143 0.929 . S
H156 C145 0.929 . S
O157 Co132 2.351 . S
O157 C160 1.244 . S
O158 Co132 2.155 . S
O158 C160 1.240 . S
O159 Co132 2.096 . S
O159 C140 1.247 . S
C160 O157 1.244 . S
C160 O158 1.240 . S
H161 C135 0.931 . S
H162 C144 0.931 . S
H163 C148 0.929 . S
H164 C150 0.930 . S
Co165 N169 2.148 . S
Co165 N175 2.128 1_455 S
Co165 N185 2.194 1_455 S
Co165 O190 2.351 . S
Co165 O191 2.155 . S
Co165 O192 2.096 . S
C166 N169 1.301 . S
C166 N170 1.328 . S
C166 H171 0.930 . S
C167 C168 1.333 . S
C167 N169 1.317 . S
C167 H172 0.930 . S
C168 C167 1.333 . S
C168 N170 1.350 . S
C168 H194 0.931 . S
N169 Co165 2.148 . S
N169 C166 1.301 . S
N169 C167 1.317 . S
N170 C166 1.328 . S
N170 C168 1.350 . S
H171 C166 0.930 . S
H172 C167 0.930 . S
C173 O174 1.224 . S
C173 O192 1.247 . S
O174 C173 1.224 . S
N175 Co165 2.128 1_655 S
N175 C176 1.355 . S
N175 C178 1.311 . S
C176 N175 1.355 . S
C176 C177 1.363 . S
C176 H188 0.929 . S
C177 C176 1.363 . S
C177 N179 1.375 . S
C177 H195 0.931 . S
C178 N175 1.311 . S
C178 N179 1.347 . S
C178 H189 0.929 . S
N179 C177 1.375 . S
N179 C178 1.347 . S
C180 C183 1.365 . S
C180 N185 1.328 . S
C180 H186 0.929 1_655 S
C181 C182 1.362 . S
C181 C184 1.378 . S
C181 H196 0.929 . S
C182 C181 1.362 . S
C182 C183 1.366 . S
C183 C180 1.365 . S
C183 C182 1.366 . S
C183 H197 0.930 . S
C184 C181 1.378 . S
C184 N185 1.315 . S
C184 H187 0.930 . S
N185 Co165 2.194 1_655 S
N185 C180 1.328 . S
N185 C184 1.315 . S
H186 C180 0.929 1_455 S
H187 C184 0.930 . S
H188 C176 0.929 . S
H189 C178 0.929 . S
O190 Co165 2.351 . S
O190 C193 1.244 . S
O191 Co165 2.155 . S
O191 C193 1.240 . S
O192 Co165 2.096 . S
O192 C173 1.247 . S
C193 O190 1.244 . S
C193 O191 1.240 . S
H194 C168 0.931 . S
H195 C177 0.931 . S
H196 C181 0.929 . S
H197 C183 0.930 . S
Co198 N202 2.148 . S
Co198 N208 2.128 . S
Co198 N218 2.194 . S
Co198 O223 2.351 1_556 S
Co198 O224 2.155 . S
Co198 O225 2.096 . S
C199 N202 1.301 . S
C199 N203 1.328 . S
C199 H204 0.930 1_556 S
C200 C201 1.333 . S
C200 N202 1.317 . S
C200 H205 0.930 . S
C201 C200 1.333 . S
C201 N203 1.350 . S
C201 H227 0.931 . S
N202 Co198 2.148 . S
N202 C199 1.301 . S
N202 C200 1.317 . S
N203 C199 1.328 . S
N203 C201 1.350 . S
H204 C199 0.930 1_554 S
H205 C200 0.930 . S
C206 O207 1.224 . S
C206 O225 1.247 . S
O207 C206 1.224 . S
N208 Co198 2.128 . S
N208 C209 1.355 . S
N208 C211 1.311 . S
C209 N208 1.355 . S
C209 C210 1.363 . S
C209 H221 0.929 . S
C210 C209 1.363 . S
C210 N212 1.375 . S
C210 H228 0.931 . S
C211 N208 1.311 . S
C211 N212 1.347 . S
C211 H222 0.929 . S
N212 C210 1.375 . S
N212 C211 1.347 . S
C213 C216 1.365 . S
C213 N218 1.328 1_554 S
C213 H219 0.929 . S
C214 C215 1.362 . S
C214 C217 1.378 . S
C214 H229 0.929 . S
C215 C214 1.362 . S
C215 C216 1.366 1_556 S
C216 C213 1.365 . S
C216 C215 1.366 1_554 S
C216 H230 0.930 . S
C217 C214 1.378 . S
C217 N218 1.315 . S
C217 H220 0.930 . S
N218 Co198 2.194 . S
N218 C213 1.328 1_556 S
N218 C217 1.315 . S
H219 C213 0.929 . S
H220 C217 0.930 . S
H221 C209 0.929 . S
H222 C211 0.929 . S
O223 Co198 2.351 1_554 S
O223 C226 1.244 1_554 S
O224 Co198 2.155 . S
O224 C226 1.240 . S
O225 Co198 2.096 . S
O225 C206 1.247 . S
C226 O223 1.244 1_556 S
C226 O224 1.240 . S
H227 C201 0.931 . S
H228 C210 0.931 . S
H229 C214 0.929 . S
H230 C216 0.930 . S
Co231 N235 2.148 . S
Co231 N241 2.128 1_565 S
Co231 N251 2.194 1_565 S
Co231 O256 2.351 1_556 S
Co231 O257 2.155 . S
Co231 O258 2.096 . S
C232 N235 1.301 . S
C232 N236 1.328 . S
C232 H237 0.930 1_556 S
C233 C234 1.333 . S
C233 N235 1.317 . S
C233 H238 0.930 . S
C234 C233 1.333 . S
C234 N236 1.350 . S
C234 H260 0.931 . S
N235 Co231 2.148 . S
N235 C232 1.301 . S
N235 C233 1.317 . S
N236 C232 1.328 . S
N236 C234 1.350 . S
H237 C232 0.930 1_554 S
H238 C233 0.930 . S
C239 O240 1.224 . S
C239 O258 1.247 . S
O240 C239 1.224 . S
N241 Co231 2.128 1_545 S
N241 C242 1.355 . S
N241 C244 1.311 . S
C242 N241 1.355 . S
C242 C243 1.363 . S
C242 H254 0.929 . S
C243 C242 1.363 . S
C243 N245 1.375 . S
C243 H261 0.931 . S
C244 N241 1.311 . S
C244 N245 1.347 . S
C244 H255 0.929 . S
N245 C243 1.375 . S
N245 C244 1.347 . S
C246 C249 1.365 . S
C246 N251 1.328 1_554 S
C246 H252 0.929 1_545 S
C247 C248 1.362 . S
C247 C250 1.378 . S
C247 H262 0.929 . S
C248 C247 1.362 . S
C248 C249 1.366 1_556 S
C249 C246 1.365 . S
C249 C248 1.366 1_554 S
C249 H263 0.930 . S
C250 C247 1.378 . S
C250 N251 1.315 . S
C250 H253 0.930 . S
N251 Co231 2.194 1_545 S
N251 C246 1.328 1_556 S
N251 C250 1.315 . S
H252 C246 0.929 1_565 S
H253 C250 0.930 . S
H254 C242 0.929 . S
H255 C244 0.929 . S
O256 Co231 2.351 1_554 S
O256 C259 1.244 1_554 S
O257 Co231 2.155 . S
O257 C259 1.240 . S
O258 Co231 2.096 . S
O258 C239 1.247 . S
C259 O256 1.244 1_556 S
C259 O257 1.240 . S
H260 C234 0.931 . S
H261 C243 0.931 . S
H262 C247 0.929 . S
H263 C249 0.930 . S
Co264 N268 2.148 . S
Co264 N274 2.128 1_455 S
Co264 N284 2.194 1_455 S
Co264 O289 2.351 1_556 S
Co264 O290 2.155 . S
Co264 O291 2.096 . S
C265 N268 1.301 . S
C265 N269 1.328 . S
C265 H270 0.930 1_556 S
C266 C267 1.333 . S
C266 N268 1.317 . S
C266 H271 0.930 . S
C267 C266 1.333 . S
C267 N269 1.350 . S
C267 H293 0.931 . S
N268 Co264 2.148 . S
N268 C265 1.301 . S
N268 C266 1.317 . S
N269 C265 1.328 . S
N269 C267 1.350 . S
H270 C265 0.930 1_554 S
H271 C266 0.930 . S
C272 O273 1.224 . S
C272 O291 1.247 . S
O273 C272 1.224 . S
N274 Co264 2.128 1_655 S
N274 C275 1.355 . S
N274 C277 1.311 . S
C275 N274 1.355 . S
C275 C276 1.363 . S
C275 H287 0.929 . S
C276 C275 1.363 . S
C276 N278 1.375 . S
C276 H294 0.931 . S
C277 N274 1.311 . S
C277 N278 1.347 . S
C277 H288 0.929 . S
N278 C276 1.375 . S
N278 C277 1.347 . S
C279 C282 1.365 . S
C279 N284 1.328 1_554 S
C279 H285 0.929 1_655 S
C280 C281 1.362 . S
C280 C283 1.378 . S
C280 H295 0.929 . S
C281 C280 1.362 . S
C281 C282 1.366 1_556 S
C282 C279 1.365 . S
C282 C281 1.366 1_554 S
C282 H296 0.930 . S
C283 C280 1.378 . S
C283 N284 1.315 . S
C283 H286 0.930 . S
N284 Co264 2.194 1_655 S
N284 C279 1.328 1_556 S
N284 C283 1.315 . S
H285 C279 0.929 1_455 S
H286 C283 0.930 . S
H287 C275 0.929 . S
H288 C277 0.929 . S
O289 Co264 2.351 1_554 S
O289 C292 1.244 1_554 S
O290 Co264 2.155 . S
O290 C292 1.240 . S
O291 Co264 2.096 . S
O291 C272 1.247 . S
C292 O289 1.244 1_556 S
C292 O290 1.240 . S
H293 C267 0.931 . S
H294 C276 0.931 . S
H295 C280 0.929 . S
H296 C282 0.930 . S
Co297 N301 2.148 . S
Co297 N307 2.128 . S
Co297 N317 2.194 . S
Co297 O322 2.351 . S
Co297 O323 2.155 . S
Co297 O324 2.096 . S
C298 N301 1.301 . S
C298 N302 1.328 . S
C298 H303 0.930 . S
C299 C300 1.333 . S
C299 N301 1.317 . S
C299 H304 0.930 . S
C300 C299 1.333 . S
C300 N302 1.350 . S
C300 H326 0.931 . S
N301 Co297 2.148 . S
N301 C298 1.301 . S
N301 C299 1.317 . S
N302 C298 1.328 . S
N302 C300 1.350 . S
H303 C298 0.930 . S
H304 C299 0.930 . S
C305 O306 1.224 . S
C305 O324 1.247 . S
O306 C305 1.224 . S
N307 Co297 2.128 . S
N307 C308 1.355 . S
N307 C310 1.311 . S
C308 N307 1.355 . S
C308 C309 1.363 . S
C308 H320 0.929 . S
C309 C308 1.363 . S
C309 N311 1.375 . S
C309 H327 0.931 . S
C310 N307 1.311 . S
C310 N311 1.347 . S
C310 H321 0.929 . S
N311 C309 1.375 . S
N311 C310 1.347 . S
C312 C315 1.365 . S
C312 N317 1.328 . S
C312 H318 0.929 . S
C313 C314 1.362 . S
C313 C316 1.378 . S
C313 H328 0.929 . S
C314 C313 1.362 . S
C314 C315 1.366 . S
C315 C312 1.365 . S
C315 C314 1.366 . S
C315 H329 0.930 . S
C316 C313 1.378 . S
C316 N317 1.315 . S
C316 H319 0.930 . S
N317 Co297 2.194 . S
N317 C312 1.328 . S
N317 C316 1.315 . S
H318 C312 0.929 . S
H319 C316 0.930 . S
H320 C308 0.929 . S
H321 C310 0.929 . S
O322 Co297 2.351 . S
O322 C325 1.244 . S
O323 Co297 2.155 . S
O323 C325 1.240 . S
O324 Co297 2.096 . S
O324 C305 1.247 . S
C325 O322 1.244 . S
C325 O323 1.240 . S
H326 C300 0.931 . S
H327 C309 0.931 . S
H328 C313 0.929 . S
H329 C315 0.930 . S
Co330 N334 2.148 . S
Co330 N340 2.128 1_545 S
Co330 N350 2.194 1_545 S
Co330 O355 2.351 . S
Co330 O356 2.155 . S
Co330 O357 2.096 . S
C331 N334 1.301 . S
C331 N335 1.328 . S
C331 H336 0.930 . S
C332 C333 1.333 . S
C332 N334 1.317 . S
C332 H337 0.930 . S
C333 C332 1.333 . S
C333 N335 1.350 . S
C333 H359 0.931 . S
N334 Co330 2.148 . S
N334 C331 1.301 . S
N334 C332 1.317 . S
N335 C331 1.328 . S
N335 C333 1.350 . S
H336 C331 0.930 . S
H337 C332 0.930 . S
C338 O339 1.224 . S
C338 O357 1.247 . S
O339 C338 1.224 . S
N340 Co330 2.128 1_565 S
N340 C341 1.355 . S
N340 C343 1.311 . S
C341 N340 1.355 . S
C341 C342 1.363 . S
C341 H353 0.929 . S
C342 C341 1.363 . S
C342 N344 1.375 . S
C342 H360 0.931 . S
C343 N340 1.311 . S
C343 N344 1.347 . S
C343 H354 0.929 . S
N344 C342 1.375 . S
N344 C343 1.347 . S
C345 C348 1.365 . S
C345 N350 1.328 . S
C345 H351 0.929 1_565 S
C346 C347 1.362 . S
C346 C349 1.378 . S
C346 H361 0.929 . S
C347 C346 1.362 . S
C347 C348 1.366 . S
C348 C345 1.365 . S
C348 C347 1.366 . S
C348 H362 0.930 . S
C349 C346 1.378 . S
C349 N350 1.315 . S
C349 H352 0.930 . S
N350 Co330 2.194 1_565 S
N350 C345 1.328 . S
N350 C349 1.315 . S
H351 C345 0.929 1_545 S
H352 C349 0.930 . S
H353 C341 0.929 . S
H354 C343 0.929 . S
O355 Co330 2.351 . S
O355 C358 1.244 . S
O356 Co330 2.155 . S
O356 C358 1.240 . S
O357 Co330 2.096 . S
O357 C338 1.247 . S
C358 O355 1.244 . S
C358 O356 1.240 . S
H359 C333 0.931 . S
H360 C342 0.931 . S
H361 C346 0.929 . S
H362 C348 0.930 . S
Co363 N367 2.148 . S
Co363 N373 2.128 1_655 S
Co363 N383 2.194 1_655 S
Co363 O388 2.351 . S
Co363 O389 2.155 . S
Co363 O390 2.096 . S
C364 N367 1.301 . S
C364 N368 1.328 . S
C364 H369 0.930 . S
C365 C366 1.333 . S
C365 N367 1.317 . S
C365 H370 0.930 . S
C366 C365 1.333 . S
C366 N368 1.350 . S
C366 H392 0.931 . S
N367 Co363 2.148 . S
N367 C364 1.301 . S
N367 C365 1.317 . S
N368 C364 1.328 . S
N368 C366 1.350 . S
H369 C364 0.930 . S
H370 C365 0.930 . S
C371 O372 1.224 . S
C371 O390 1.247 . S
O372 C371 1.224 . S
N373 Co363 2.128 1_455 S
N373 C374 1.355 . S
N373 C376 1.311 . S
C374 N373 1.355 . S
C374 C375 1.363 . S
C374 H386 0.929 . S
C375 C374 1.363 . S
C375 N377 1.375 . S
C375 H393 0.931 . S
C376 N373 1.311 . S
C376 N377 1.347 . S
C376 H387 0.929 . S
N377 C375 1.375 . S
N377 C376 1.347 . S
C378 C381 1.365 . S
C378 N383 1.328 . S
C378 H384 0.929 1_455 S
C379 C380 1.362 . S
C379 C382 1.378 . S
C379 H394 0.929 . S
C380 C379 1.362 . S
C380 C381 1.366 . S
C381 C378 1.365 . S
C381 C380 1.366 . S
C381 H395 0.930 . S
C382 C379 1.378 . S
C382 N383 1.315 . S
C382 H385 0.930 . S
N383 Co363 2.194 1_455 S
N383 C378 1.328 . S
N383 C382 1.315 . S
H384 C378 0.929 1_655 S
H385 C382 0.930 . S
H386 C374 0.929 . S
H387 C376 0.929 . S
O388 Co363 2.351 . S
O388 C391 1.244 . S
O389 Co363 2.155 . S
O389 C391 1.240 . S
O390 Co363 2.096 . S
O390 C371 1.247 . S
C391 O388 1.244 . S
C391 O389 1.240 . S
H392 C366 0.931 . S
H393 C375 0.931 . S
H394 C379 0.929 . S
H395 C381 0.930 . S
Co396 N400 2.148 . S
Co396 N406 2.128 . S
Co396 N416 2.194 . S
Co396 O421 2.351 . S
Co396 O422 2.155 . S
Co396 O423 2.096 . S
C397 N400 1.301 . S
C397 N401 1.328 . S
C397 H402 0.930 . S
C398 C399 1.333 . S
C398 N400 1.317 . S
C398 H403 0.930 . S
C399 C398 1.333 . S
C399 N401 1.350 . S
C399 H425 0.931 . S
N400 Co396 2.148 . S
N400 C397 1.301 . S
N400 C398 1.317 . S
N401 C397 1.328 . S
N401 C399 1.350 . S
H402 C397 0.930 . S
H403 C398 0.930 . S
C404 O405 1.224 . S
C404 O423 1.247 . S
O405 C404 1.224 . S
N406 Co396 2.128 . S
N406 C407 1.355 . S
N406 C409 1.311 . S
C407 N406 1.355 . S
C407 C408 1.363 . S
C407 H419 0.929 . S
C408 C407 1.363 . S
C408 N410 1.375 . S
C408 H426 0.931 . S
C409 N406 1.311 . S
C409 N410 1.347 . S
C409 H420 0.929 . S
N410 C408 1.375 . S
N410 C409 1.347 . S
C411 C414 1.365 . S
C411 N416 1.328 . S
C411 H417 0.929 . S
C412 C413 1.362 . S
C412 C415 1.378 . S
C412 H427 0.929 . S
C413 C412 1.362 . S
C413 C414 1.366 . S
C414 C411 1.365 . S
C414 C413 1.366 . S
C414 H428 0.930 . S
C415 C412 1.378 . S
C415 N416 1.315 . S
C415 H418 0.930 . S
N416 Co396 2.194 . S
N416 C411 1.328 . S
N416 C415 1.315 . S
H417 C411 0.929 . S
H418 C415 0.930 . S
H419 C407 0.929 . S
H420 C409 0.929 . S
O421 Co396 2.351 . S
O421 C424 1.244 . S
O422 Co396 2.155 . S
O422 C424 1.240 . S
O423 Co396 2.096 . S
O423 C404 1.247 . S
C424 O421 1.244 . S
C424 O422 1.240 . S
H425 C399 0.931 . S
H426 C408 0.931 . S
H427 C412 0.929 . S
H428 C414 0.930 . S
Co429 N433 2.148 . S
Co429 N439 2.128 . S
Co429 N449 2.194 . S
Co429 O454 2.351 . S
Co429 O455 2.155 . S
Co429 O456 2.096 . S
C430 N433 1.301 . S
C430 N434 1.328 . S
C430 H435 0.930 . S
C431 C432 1.333 . S
C431 N433 1.317 . S
C431 H436 0.930 . S
C432 C431 1.333 . S
C432 N434 1.350 . S
C432 H458 0.931 . S
N433 Co429 2.148 . S
N433 C430 1.301 . S
N433 C431 1.317 . S
N434 C430 1.328 . S
N434 C432 1.350 . S
H435 C430 0.930 . S
H436 C431 0.930 . S
C437 O438 1.224 . S
C437 O456 1.247 . S
O438 C437 1.224 . S
N439 Co429 2.128 . S
N439 C440 1.355 . S
N439 C442 1.311 . S
C440 N439 1.355 . S
C440 C441 1.363 . S
C440 H452 0.929 . S
C441 C440 1.363 . S
C441 N443 1.375 . S
C441 H459 0.931 . S
C442 N439 1.311 . S
C442 N443 1.347 . S
C442 H453 0.929 . S
N443 C441 1.375 . S
N443 C442 1.347 . S
C444 C447 1.365 . S
C444 N449 1.328 . S
C444 H450 0.929 . S
C445 C446 1.362 . S
C445 C448 1.378 . S
C445 H460 0.929 . S
C446 C445 1.362 . S
C446 C447 1.366 . S
C447 C444 1.365 . S
C447 C446 1.366 . S
C447 H461 0.930 . S
C448 C445 1.378 . S
C448 N449 1.315 . S
C448 H451 0.930 . S
N449 Co429 2.194 . S
N449 C444 1.328 . S
N449 C448 1.315 . S
H450 C444 0.929 . S
H451 C448 0.930 . S
H452 C440 0.929 . S
H453 C442 0.929 . S
O454 Co429 2.351 . S
O454 C457 1.244 . S
O455 Co429 2.155 . S
O455 C457 1.240 . S
O456 Co429 2.096 . S
O456 C437 1.247 . S
C457 O454 1.244 . S
C457 O455 1.240 . S
H458 C432 0.931 . S
H459 C441 0.931 . S
H460 C445 0.929 . S
H461 C447 0.930 . S
Co462 N466 2.148 . S
Co462 N472 2.128 . S
Co462 N482 2.194 . S
Co462 O487 2.351 . S
Co462 O488 2.155 . S
Co462 O489 2.096 . S
C463 N466 1.301 . S
C463 N467 1.328 . S
C463 H468 0.930 . S
C464 C465 1.333 . S
C464 N466 1.317 . S
C464 H469 0.930 . S
C465 C464 1.333 . S
C465 N467 1.350 . S
C465 H491 0.931 . S
N466 Co462 2.148 . S
N466 C463 1.301 . S
N466 C464 1.317 . S
N467 C463 1.328 . S
N467 C465 1.350 . S
H468 C463 0.930 . S
H469 C464 0.930 . S
C470 O471 1.224 . S
C470 O489 1.247 . S
O471 C470 1.224 . S
N472 Co462 2.128 . S
N472 C473 1.355 . S
N472 C475 1.311 . S
C473 N472 1.355 . S
C473 C474 1.363 . S
C473 H485 0.929 . S
C474 C473 1.363 . S
C474 N476 1.375 . S
C474 H492 0.931 . S
C475 N472 1.311 . S
C475 N476 1.347 . S
C475 H486 0.929 . S
N476 C474 1.375 . S
N476 C475 1.347 . S
C477 C480 1.365 . S
C477 N482 1.328 . S
C477 H483 0.929 . S
C478 C479 1.362 . S
C478 C481 1.378 . S
C478 H493 0.929 . S
C479 C478 1.362 . S
C479 C480 1.366 . S
C480 C477 1.365 . S
C480 C479 1.366 . S
C480 H494 0.930 . S
C481 C478 1.378 . S
C481 N482 1.315 . S
C481 H484 0.930 . S
N482 Co462 2.194 . S
N482 C477 1.328 . S
N482 C481 1.315 . S
H483 C477 0.929 . S
H484 C481 0.930 . S
H485 C473 0.929 . S
H486 C475 0.929 . S
O487 Co462 2.351 . S
O487 C490 1.244 . S
O488 Co462 2.155 . S
O488 C490 1.240 . S
O489 Co462 2.096 . S
O489 C470 1.247 . S
C490 O487 1.244 . S
C490 O488 1.240 . S
H491 C465 0.931 . S
H492 C474 0.931 . S
H493 C478 0.929 . S
H494 C480 0.930 . S
Co495 N499 2.148 . S
Co495 N505 2.128 . S
Co495 N515 2.194 . S
Co495 O520 2.351 . S
Co495 O521 2.155 . S
Co495 O522 2.096 . S
C496 N499 1.301 . S
C496 N500 1.328 . S
C496 H501 0.930 . S
C497 C498 1.333 . S
C497 N499 1.317 . S
C497 H502 0.930 . S
C498 C497 1.333 . S
C498 N500 1.350 . S
C498 H524 0.931 . S
N499 Co495 2.148 . S
N499 C496 1.301 . S
N499 C497 1.317 . S
N500 C496 1.328 . S
N500 C498 1.350 . S
H501 C496 0.930 . S
H502 C497 0.930 . S
C503 O504 1.224 . S
C503 O522 1.247 . S
O504 C503 1.224 . S
N505 Co495 2.128 . S
N505 C506 1.355 . S
N505 C508 1.311 . S
C506 N505 1.355 . S
C506 C507 1.363 . S
C506 H518 0.929 . S
C507 C506 1.363 . S
C507 N509 1.375 . S
C507 H525 0.931 . S
C508 N505 1.311 . S
C508 N509 1.347 . S
C508 H519 0.929 . S
N509 C507 1.375 . S
N509 C508 1.347 . S
C510 C513 1.365 . S
C510 N515 1.328 . S
C510 H516 0.929 . S
C511 C512 1.362 . S
C511 C514 1.378 . S
C511 H526 0.929 . S
C512 C511 1.362 . S
C512 C513 1.366 . S
C513 C510 1.365 . S
C513 C512 1.366 . S
C513 H527 0.930 . S
C514 C511 1.378 . S
C514 N515 1.315 . S
C514 H517 0.930 . S
N515 Co495 2.194 . S
N515 C510 1.328 . S
N515 C514 1.315 . S
H516 C510 0.929 . S
H517 C514 0.930 . S
H518 C506 0.929 . S
H519 C508 0.929 . S
O520 Co495 2.351 . S
O520 C523 1.244 . S
O521 Co495 2.155 . S
O521 C523 1.240 . S
O522 Co495 2.096 . S
O522 C503 1.247 . S
C523 O520 1.244 . S
C523 O521 1.240 . S
H524 C498 0.931 . S
H525 C507 0.931 . S
H526 C511 0.929 . S
H527 C513 0.930 . S
Co528 N532 2.148 . S
Co528 N538 2.128 . S
Co528 N548 2.194 . S
Co528 O553 2.351 . S
Co528 O554 2.155 . S
Co528 O555 2.096 . S
C529 N532 1.301 . S
C529 N533 1.328 . S
C529 H534 0.930 . S
C530 C531 1.333 . S
C530 N532 1.317 . S
C530 H535 0.930 . S
C531 C530 1.333 . S
C531 N533 1.350 . S
C531 H557 0.931 . S
N532 Co528 2.148 . S
N532 C529 1.301 . S
N532 C530 1.317 . S
N533 C529 1.328 . S
N533 C531 1.350 . S
H534 C529 0.930 . S
H535 C530 0.930 . S
C536 O537 1.224 . S
C536 O555 1.247 . S
O537 C536 1.224 . S
N538 Co528 2.128 . S
N538 C539 1.355 . S
N538 C541 1.311 . S
C539 N538 1.355 . S
C539 C540 1.363 . S
C539 H551 0.929 . S
C540 C539 1.363 . S
C540 N542 1.375 . S
C540 H558 0.931 . S
C541 N538 1.311 . S
C541 N542 1.347 . S
C541 H552 0.929 . S
N542 C540 1.375 . S
N542 C541 1.347 . S
C543 C546 1.365 . S
C543 N548 1.328 . S
C543 H549 0.929 . S
C544 C545 1.362 . S
C544 C547 1.378 . S
C544 H559 0.929 . S
C545 C544 1.362 . S
C545 C546 1.366 . S
C546 C543 1.365 . S
C546 C545 1.366 . S
C546 H560 0.930 . S
C547 C544 1.378 . S
C547 N548 1.315 . S
C547 H550 0.930 . S
N548 Co528 2.194 . S
N548 C543 1.328 . S
N548 C547 1.315 . S
H549 C543 0.929 . S
H550 C547 0.930 . S
H551 C539 0.929 . S
H552 C541 0.929 . S
O553 Co528 2.351 . S
O553 C556 1.244 . S
O554 Co528 2.155 . S
O554 C556 1.240 . S
O555 Co528 2.096 . S
O555 C536 1.247 . S
C556 O553 1.244 . S
C556 O554 1.240 . S
H557 C531 0.931 . S
H558 C540 0.931 . S
H559 C544 0.929 . S
H560 C546 0.930 . S
Co561 N565 2.148 . S
Co561 N571 2.128 . S
Co561 N581 2.194 . S
Co561 O586 2.351 . S
Co561 O587 2.155 . S
Co561 O588 2.096 . S
C562 N565 1.301 . S
C562 N566 1.328 . S
C562 H567 0.930 . S
C563 C564 1.333 . S
C563 N565 1.317 . S
C563 H568 0.930 . S
C564 C563 1.333 . S
C564 N566 1.350 . S
C564 H590 0.931 . S
N565 Co561 2.148 . S
N565 C562 1.301 . S
N565 C563 1.317 . S
N566 C562 1.328 . S
N566 C564 1.350 . S
H567 C562 0.930 . S
H568 C563 0.930 . S
C569 O570 1.224 . S
C569 O588 1.247 . S
O570 C569 1.224 . S
N571 Co561 2.128 . S
N571 C572 1.355 . S
N571 C574 1.311 . S
C572 N571 1.355 . S
C572 C573 1.363 . S
C572 H584 0.929 . S
C573 C572 1.363 . S
C573 N575 1.375 . S
C573 H591 0.931 . S
C574 N571 1.311 . S
C574 N575 1.347 . S
C574 H585 0.929 . S
N575 C573 1.375 . S
N575 C574 1.347 . S
C576 C579 1.365 . S
C576 N581 1.328 . S
C576 H582 0.929 . S
C577 C578 1.362 . S
C577 C580 1.378 . S
C577 H592 0.929 . S
C578 C577 1.362 . S
C578 C579 1.366 . S
C579 C576 1.365 . S
C579 C578 1.366 . S
C579 H593 0.930 . S
C580 C577 1.378 . S
C580 N581 1.315 . S
C580 H583 0.930 . S
N581 Co561 2.194 . S
N581 C576 1.328 . S
N581 C580 1.315 . S
H582 C576 0.929 . S
H583 C580 0.930 . S
H584 C572 0.929 . S
H585 C574 0.929 . S
O586 Co561 2.351 . S
O586 C589 1.244 . S
O587 Co561 2.155 . S
O587 C589 1.240 . S
O588 Co561 2.096 . S
O588 C569 1.247 . S
C589 O586 1.244 . S
C589 O587 1.240 . S
H590 C564 0.931 . S
H591 C573 0.931 . S
H592 C577 0.929 . S
H593 C579 0.930 . S
Co594 N598 2.148 . S
Co594 N604 2.128 . S
Co594 N614 2.194 . S
Co594 O619 2.351 . S
Co594 O620 2.155 . S
Co594 O621 2.096 . S
C595 N598 1.301 . S
C595 N599 1.328 . S
C595 H600 0.930 . S
C596 C597 1.333 . S
C596 N598 1.317 . S
C596 H601 0.930 . S
C597 C596 1.333 . S
C597 N599 1.350 . S
C597 H623 0.931 . S
N598 Co594 2.148 . S
N598 C595 1.301 . S
N598 C596 1.317 . S
N599 C595 1.328 . S
N599 C597 1.350 . S
H600 C595 0.930 . S
H601 C596 0.930 . S
C602 O603 1.224 . S
C602 O621 1.247 . S
O603 C602 1.224 . S
N604 Co594 2.128 . S
N604 C605 1.355 . S
N604 C607 1.311 . S
C605 N604 1.355 . S
C605 C606 1.363 . S
C605 H617 0.929 . S
C606 C605 1.363 . S
C606 N608 1.375 . S
C606 H624 0.931 . S
C607 N604 1.311 . S
C607 N608 1.347 . S
C607 H618 0.929 . S
N608 C606 1.375 . S
N608 C607 1.347 . S
C609 C612 1.365 . S
C609 N614 1.328 . S
C609 H615 0.929 . S
C610 C611 1.362 . S
C610 C613 1.378 . S
C610 H625 0.929 . S
C611 C610 1.362 . S
C611 C612 1.366 . S
C612 C609 1.365 . S
C612 C611 1.366 . S
C612 H626 0.930 . S
C613 C610 1.378 . S
C613 N614 1.315 . S
C613 H616 0.930 . S
N614 Co594 2.194 . S
N614 C609 1.328 . S
N614 C613 1.315 . S
H615 C609 0.929 . S
H616 C613 0.930 . S
H617 C605 0.929 . S
H618 C607 0.929 . S
O619 Co594 2.351 . S
O619 C622 1.244 . S
O620 Co594 2.155 . S
O620 C622 1.240 . S
O621 Co594 2.096 . S
O621 C602 1.247 . S
C622 O619 1.244 . S
C622 O620 1.240 . S
H623 C597 0.931 . S
H624 C606 0.931 . S
H625 C610 0.929 . S
H626 C612 0.930 . S
Co627 N631 2.148 . S
Co627 N637 2.128 . S
Co627 N647 2.194 . S
Co627 O652 2.351 . S
Co627 O653 2.155 . S
Co627 O654 2.096 . S
C628 N631 1.301 . S
C628 N632 1.328 . S
C628 H633 0.930 . S
C629 C630 1.333 . S
C629 N631 1.317 . S
C629 H634 0.930 . S
C630 C629 1.333 . S
C630 N632 1.350 . S
C630 H656 0.931 . S
N631 Co627 2.148 . S
N631 C628 1.301 . S
N631 C629 1.317 . S
N632 C628 1.328 . S
N632 C630 1.350 . S
H633 C628 0.930 . S
H634 C629 0.930 . S
C635 O636 1.224 . S
C635 O654 1.247 . S
O636 C635 1.224 . S
N637 Co627 2.128 . S
N637 C638 1.355 . S
N637 C640 1.311 . S
C638 N637 1.355 . S
C638 C639 1.363 . S
C638 H650 0.929 . S
C639 C638 1.363 . S
C639 N641 1.375 . S
C639 H657 0.931 . S
C640 N637 1.311 . S
C640 N641 1.347 . S
C640 H651 0.929 . S
N641 C639 1.375 . S
N641 C640 1.347 . S
C642 C645 1.365 . S
C642 N647 1.328 . S
C642 H648 0.929 . S
C643 C644 1.362 . S
C643 C646 1.378 . S
C643 H658 0.929 . S
C644 C643 1.362 . S
C644 C645 1.366 . S
C645 C642 1.365 . S
C645 C644 1.366 . S
C645 H659 0.930 . S
C646 C643 1.378 . S
C646 N647 1.315 . S
C646 H649 0.930 . S
N647 Co627 2.194 . S
N647 C642 1.328 . S
N647 C646 1.315 . S
H648 C642 0.929 . S
H649 C646 0.930 . S
H650 C638 0.929 . S
H651 C640 0.929 . S
O652 Co627 2.351 . S
O652 C655 1.244 . S
O653 Co627 2.155 . S
O653 C655 1.240 . S
O654 Co627 2.096 . S
O654 C635 1.247 . S
C655 O652 1.244 . S
C655 O653 1.240 . S
H656 C630 0.931 . S
H657 C639 0.931 . S
H658 C643 0.929 . S
H659 C645 0.930 . S
Co660 N664 2.148 . S
Co660 N670 2.128 . S
Co660 N680 2.194 . S
Co660 O685 2.351 . S
Co660 O686 2.155 . S
Co660 O687 2.096 . S
C661 N664 1.301 . S
C661 N665 1.328 . S
C661 H666 0.930 . S
C662 C663 1.333 . S
C662 N664 1.317 . S
C662 H667 0.930 . S
C663 C662 1.333 . S
C663 N665 1.350 . S
C663 H689 0.931 . S
N664 Co660 2.148 . S
N664 C661 1.301 . S
N664 C662 1.317 . S
N665 C661 1.328 . S
N665 C663 1.350 . S
H666 C661 0.930 . S
H667 C662 0.930 . S
C668 O669 1.224 . S
C668 O687 1.247 . S
O669 C668 1.224 . S
N670 Co660 2.128 . S
N670 C671 1.355 . S
N670 C673 1.311 . S
C671 N670 1.355 . S
C671 C672 1.363 . S
C671 H683 0.929 . S
C672 C671 1.363 . S
C672 N674 1.375 . S
C672 H690 0.931 . S
C673 N670 1.311 . S
C673 N674 1.347 . S
C673 H684 0.929 . S
N674 C672 1.375 . S
N674 C673 1.347 . S
C675 C678 1.365 . S
C675 N680 1.328 . S
C675 H681 0.929 . S
C676 C677 1.362 . S
C676 C679 1.378 . S
C676 H691 0.929 . S
C677 C676 1.362 . S
C677 C678 1.366 . S
C678 C675 1.365 . S
C678 C677 1.366 . S
C678 H692 0.930 . S
C679 C676 1.378 . S
C679 N680 1.315 . S
C679 H682 0.930 . S
N680 Co660 2.194 . S
N680 C675 1.328 . S
N680 C679 1.315 . S
H681 C675 0.929 . S
H682 C679 0.930 . S
H683 C671 0.929 . S
H684 C673 0.929 . S
O685 Co660 2.351 . S
O685 C688 1.244 . S
O686 Co660 2.155 . S
O686 C688 1.240 . S
O687 Co660 2.096 . S
O687 C668 1.247 . S
C688 O685 1.244 . S
C688 O686 1.240 . S
H689 C663 0.931 . S
H690 C672 0.931 . S
H691 C676 0.929 . S
H692 C678 0.930 . S
Co693 N697 2.148 . S
Co693 N703 2.128 . S
Co693 N713 2.194 . S
Co693 O718 2.351 . S
Co693 O719 2.155 . S
Co693 O720 2.096 . S
C694 N697 1.301 . S
C694 N698 1.328 . S
C694 H699 0.930 . S
C695 C696 1.333 . S
C695 N697 1.317 . S
C695 H700 0.930 . S
C696 C695 1.333 . S
C696 N698 1.350 . S
C696 H722 0.931 . S
N697 Co693 2.148 . S
N697 C694 1.301 . S
N697 C695 1.317 . S
N698 C694 1.328 . S
N698 C696 1.350 . S
H699 C694 0.930 . S
H700 C695 0.930 . S
C701 O702 1.224 . S
C701 O720 1.247 . S
O702 C701 1.224 . S
N703 Co693 2.128 . S
N703 C704 1.355 . S
N703 C706 1.311 . S
C704 N703 1.355 . S
C704 C705 1.363 . S
C704 H716 0.929 . S
C705 C704 1.363 . S
C705 N707 1.375 . S
C705 H723 0.931 . S
C706 N703 1.311 . S
C706 N707 1.347 . S
C706 H717 0.929 . S
N707 C705 1.375 . S
N707 C706 1.347 . S
C708 C711 1.365 . S
C708 N713 1.328 . S
C708 H714 0.929 . S
C709 C710 1.362 . S
C709 C712 1.378 . S
C709 H724 0.929 . S
C710 C709 1.362 . S
C710 C711 1.366 . S
C711 C708 1.365 . S
C711 C710 1.366 . S
C711 H725 0.930 . S
C712 C709 1.378 . S
C712 N713 1.315 . S
C712 H715 0.930 . S
N713 Co693 2.194 . S
N713 C708 1.328 . S
N713 C712 1.315 . S
H714 C708 0.929 . S
H715 C712 0.930 . S
H716 C704 0.929 . S
H717 C706 0.929 . S
O718 Co693 2.351 . S
O718 C721 1.244 . S
O719 Co693 2.155 . S
O719 C721 1.240 . S
O720 Co693 2.096 . S
O720 C701 1.247 . S
C721 O718 1.244 . S
C721 O719 1.240 . S
H722 C696 0.931 . S
H723 C705 0.931 . S
H724 C709 0.929 . S
H725 C711 0.930 . S
Co726 N730 2.148 . S
Co726 N736 2.128 . S
Co726 N746 2.194 . S
Co726 O751 2.351 . S
Co726 O752 2.155 . S
Co726 O753 2.096 . S
C727 N730 1.301 . S
C727 N731 1.328 . S
C727 H732 0.930 . S
C728 C729 1.333 . S
C728 N730 1.317 . S
C728 H733 0.930 . S
C729 C728 1.333 . S
C729 N731 1.350 . S
C729 H755 0.931 . S
N730 Co726 2.148 . S
N730 C727 1.301 . S
N730 C728 1.317 . S
N731 C727 1.328 . S
N731 C729 1.350 . S
H732 C727 0.930 . S
H733 C728 0.930 . S
C734 O735 1.224 . S
C734 O753 1.247 . S
O735 C734 1.224 . S
N736 Co726 2.128 . S
N736 C737 1.355 . S
N736 C739 1.311 . S
C737 N736 1.355 . S
C737 C738 1.363 . S
C737 H749 0.929 . S
C738 C737 1.363 . S
C738 N740 1.375 . S
C738 H756 0.931 . S
C739 N736 1.311 . S
C739 N740 1.347 . S
C739 H750 0.929 . S
N740 C738 1.375 . S
N740 C739 1.347 . S
C741 C744 1.365 . S
C741 N746 1.328 . S
C741 H747 0.929 . S
C742 C743 1.362 . S
C742 C745 1.378 . S
C742 H757 0.929 . S
C743 C742 1.362 . S
C743 C744 1.366 . S
C744 C741 1.365 . S
C744 C743 1.366 . S
C744 H758 0.930 . S
C745 C742 1.378 . S
C745 N746 1.315 . S
C745 H748 0.930 . S
N746 Co726 2.194 . S
N746 C741 1.328 . S
N746 C745 1.315 . S
H747 C741 0.929 . S
H748 C745 0.930 . S
H749 C737 0.929 . S
H750 C739 0.929 . S
O751 Co726 2.351 . S
O751 C754 1.244 . S
O752 Co726 2.155 . S
O752 C754 1.240 . S
O753 Co726 2.096 . S
O753 C734 1.247 . S
C754 O751 1.244 . S
C754 O752 1.240 . S
H755 C729 0.931 . S
H756 C738 0.931 . S
H757 C742 0.929 . S
H758 C744 0.930 . S
Co759 N763 2.148 . S
Co759 N769 2.128 . S
Co759 N779 2.194 . S
Co759 O784 2.351 . S
Co759 O785 2.155 . S
Co759 O786 2.096 . S
C760 N763 1.301 . S
C760 N764 1.328 . S
C760 H765 0.930 . S
C761 C762 1.333 . S
C761 N763 1.317 . S
C761 H766 0.930 . S
C762 C761 1.333 . S
C762 N764 1.350 . S
C762 H788 0.931 . S
N763 Co759 2.148 . S
N763 C760 1.301 . S
N763 C761 1.317 . S
N764 C760 1.328 . S
N764 C762 1.350 . S
H765 C760 0.930 . S
H766 C761 0.930 . S
C767 O768 1.224 . S
C767 O786 1.247 . S
O768 C767 1.224 . S
N769 Co759 2.128 . S
N769 C770 1.355 . S
N769 C772 1.311 . S
C770 N769 1.355 . S
C770 C771 1.363 . S
C770 H782 0.929 . S
C771 C770 1.363 . S
C771 N773 1.375 . S
C771 H789 0.931 . S
C772 N769 1.311 . S
C772 N773 1.347 . S
C772 H783 0.929 . S
N773 C771 1.375 . S
N773 C772 1.347 . S
C774 C777 1.365 . S
C774 N779 1.328 . S
C774 H780 0.929 . S
C775 C776 1.362 . S
C775 C778 1.378 . S
C775 H790 0.929 . S
C776 C775 1.362 . S
C776 C777 1.366 . S
C777 C774 1.365 . S
C777 C776 1.366 . S
C777 H791 0.930 . S
C778 C775 1.378 . S
C778 N779 1.315 . S
C778 H781 0.930 . S
N779 Co759 2.194 . S
N779 C774 1.328 . S
N779 C778 1.315 . S
H780 C774 0.929 . S
H781 C778 0.930 . S
H782 C770 0.929 . S
H783 C772 0.929 . S
O784 Co759 2.351 . S
O784 C787 1.244 . S
O785 Co759 2.155 . S
O785 C787 1.240 . S
O786 Co759 2.096 . S
O786 C767 1.247 . S
C787 O784 1.244 . S
C787 O785 1.240 . S
H788 C762 0.931 . S
H789 C771 0.931 . S
H790 C775 0.929 . S
H791 C777 0.930 . S
Co792 N796 2.148 . S
Co792 N802 2.128 . S
Co792 N812 2.194 . S
Co792 O817 2.351 . S
Co792 O818 2.155 . S
Co792 O819 2.096 . S
C793 N796 1.301 . S
C793 N797 1.328 . S
C793 H798 0.930 . S
C794 C795 1.333 . S
C794 N796 1.317 . S
C794 H799 0.930 . S
C795 C794 1.333 . S
C795 N797 1.350 . S
C795 H821 0.931 . S
N796 Co792 2.148 . S
N796 C793 1.301 . S
N796 C794 1.317 . S
N797 C793 1.328 . S
N797 C795 1.350 . S
H798 C793 0.930 . S
H799 C794 0.930 . S
C800 O801 1.224 . S
C800 O819 1.247 . S
O801 C800 1.224 . S
N802 Co792 2.128 . S
N802 C803 1.355 . S
N802 C805 1.311 . S
C803 N802 1.355 . S
C803 C804 1.363 . S
C803 H815 0.929 . S
C804 C803 1.363 . S
C804 N806 1.375 . S
C804 H822 0.931 . S
C805 N802 1.311 . S
C805 N806 1.347 . S
C805 H816 0.929 . S
N806 C804 1.375 . S
N806 C805 1.347 . S
C807 C810 1.365 . S
C807 N812 1.328 . S
C807 H813 0.929 . S
C808 C809 1.362 . S
C808 C811 1.378 . S
C808 H823 0.929 . S
C809 C808 1.362 . S
C809 C810 1.366 . S
C810 C807 1.365 . S
C810 C809 1.366 . S
C810 H824 0.930 . S
C811 C808 1.378 . S
C811 N812 1.315 . S
C811 H814 0.930 . S
N812 Co792 2.194 . S
N812 C807 1.328 . S
N812 C811 1.315 . S
H813 C807 0.929 . S
H814 C811 0.930 . S
H815 C803 0.929 . S
H816 C805 0.929 . S
O817 Co792 2.351 . S
O817 C820 1.244 . S
O818 Co792 2.155 . S
O818 C820 1.240 . S
O819 Co792 2.096 . S
O819 C800 1.247 . S
C820 O817 1.244 . S
C820 O818 1.240 . S
H821 C795 0.931 . S
H822 C804 0.931 . S
H823 C808 0.929 . S
H824 C810 0.930 . S
Co825 N829 2.148 . S
Co825 N835 2.128 . S
Co825 N845 2.194 . S
Co825 O850 2.351 . S
Co825 O851 2.155 . S
Co825 O852 2.096 . S
C826 N829 1.301 . S
C826 N830 1.328 . S
C826 H831 0.930 . S
C827 C828 1.333 . S
C827 N829 1.317 . S
C827 H832 0.930 . S
C828 C827 1.333 . S
C828 N830 1.350 . S
C828 H854 0.931 . S
N829 Co825 2.148 . S
N829 C826 1.301 . S
N829 C827 1.317 . S
N830 C826 1.328 . S
N830 C828 1.350 . S
H831 C826 0.930 . S
H832 C827 0.930 . S
C833 O834 1.224 . S
C833 O852 1.247 . S
O834 C833 1.224 . S
N835 Co825 2.128 . S
N835 C836 1.355 . S
N835 C838 1.311 . S
C836 N835 1.355 . S
C836 C837 1.363 . S
C836 H848 0.929 . S
C837 C836 1.363 . S
C837 N839 1.375 . S
C837 H855 0.931 . S
C838 N835 1.311 . S
C838 N839 1.347 . S
C838 H849 0.929 . S
N839 C837 1.375 . S
N839 C838 1.347 . S
C840 C843 1.365 . S
C840 N845 1.328 . S
C840 H846 0.929 . S
C841 C842 1.362 . S
C841 C844 1.378 . S
C841 H856 0.929 . S
C842 C841 1.362 . S
C842 C843 1.366 . S
C843 C840 1.365 . S
C843 C842 1.366 . S
C843 H857 0.930 . S
C844 C841 1.378 . S
C844 N845 1.315 . S
C844 H847 0.930 . S
N845 Co825 2.194 . S
N845 C840 1.328 . S
N845 C844 1.315 . S
H846 C840 0.929 . S
H847 C844 0.930 . S
H848 C836 0.929 . S
H849 C838 0.929 . S
O850 Co825 2.351 . S
O850 C853 1.244 . S
O851 Co825 2.155 . S
O851 C853 1.240 . S
O852 Co825 2.096 . S
O852 C833 1.247 . S
C853 O850 1.244 . S
C853 O851 1.240 . S
H854 C828 0.931 . S
H855 C837 0.931 . S
H856 C841 0.929 . S
H857 C843 0.930 . S
Co858 N862 2.148 . S
Co858 N868 2.128 . S
Co858 N878 2.194 . S
Co858 O883 2.351 . S
Co858 O884 2.155 . S
Co858 O885 2.096 . S
C859 N862 1.301 . S
C859 N863 1.328 . S
C859 H864 0.930 . S
C860 C861 1.333 . S
C860 N862 1.317 . S
C860 H865 0.930 . S
C861 C860 1.333 . S
C861 N863 1.350 . S
C861 H887 0.931 . S
N862 Co858 2.148 . S
N862 C859 1.301 . S
N862 C860 1.317 . S
N863 C859 1.328 . S
N863 C861 1.350 . S
H864 C859 0.930 . S
H865 C860 0.930 . S
C866 O867 1.224 . S
C866 O885 1.247 . S
O867 C866 1.224 . S
N868 Co858 2.128 . S
N868 C869 1.355 . S
N868 C871 1.311 . S
C869 N868 1.355 . S
C869 C870 1.363 . S
C869 H881 0.929 . S
C870 C869 1.363 . S
C870 N872 1.375 . S
C870 H888 0.931 . S
C871 N868 1.311 . S
C871 N872 1.347 . S
C871 H882 0.929 . S
N872 C870 1.375 . S
N872 C871 1.347 . S
C873 C876 1.365 . S
C873 N878 1.328 . S
C873 H879 0.929 . S
C874 C875 1.362 . S
C874 C877 1.378 . S
C874 H889 0.929 . S
C875 C874 1.362 . S
C875 C876 1.366 . S
C876 C873 1.365 . S
C876 C875 1.366 . S
C876 H890 0.930 . S
C877 C874 1.378 . S
C877 N878 1.315 . S
C877 H880 0.930 . S
N878 Co858 2.194 . S
N878 C873 1.328 . S
N878 C877 1.315 . S
H879 C873 0.929 . S
H880 C877 0.930 . S
H881 C869 0.929 . S
H882 C871 0.929 . S
O883 Co858 2.351 . S
O883 C886 1.244 . S
O884 Co858 2.155 . S
O884 C886 1.240 . S
O885 Co858 2.096 . S
O885 C866 1.247 . S
C886 O883 1.244 . S
C886 O884 1.240 . S
H887 C861 0.931 . S
H888 C870 0.931 . S
H889 C874 0.929 . S
H890 C876 0.930 . S
Co891 N895 2.148 . S
Co891 N901 2.128 . S
Co891 N911 2.194 . S
Co891 O916 2.351 . S
Co891 O917 2.155 . S
Co891 O918 2.096 . S
C892 N895 1.301 . S
C892 N896 1.328 . S
C892 H897 0.930 . S
C893 C894 1.333 . S
C893 N895 1.317 . S
C893 H898 0.930 . S
C894 C893 1.333 . S
C894 N896 1.350 . S
C894 H920 0.931 . S
N895 Co891 2.148 . S
N895 C892 1.301 . S
N895 C893 1.317 . S
N896 C892 1.328 . S
N896 C894 1.350 . S
H897 C892 0.930 . S
H898 C893 0.930 . S
C899 O900 1.224 . S
C899 O918 1.247 . S
O900 C899 1.224 . S
N901 Co891 2.128 . S
N901 C902 1.355 . S
N901 C904 1.311 . S
C902 N901 1.355 . S
C902 C903 1.363 . S
C902 H914 0.929 . S
C903 C902 1.363 . S
C903 N905 1.375 . S
C903 H921 0.931 . S
C904 N901 1.311 . S
C904 N905 1.347 . S
C904 H915 0.929 . S
N905 C903 1.375 . S
N905 C904 1.347 . S
C906 C909 1.365 . S
C906 N911 1.328 . S
C906 H912 0.929 . S
C907 C908 1.362 . S
C907 C910 1.378 . S
C907 H922 0.929 . S
C908 C907 1.362 . S
C908 C909 1.366 . S
C909 C906 1.365 . S
C909 C908 1.366 . S
C909 H923 0.930 . S
C910 C907 1.378 . S
C910 N911 1.315 . S
C910 H913 0.930 . S
N911 Co891 2.194 . S
N911 C906 1.328 . S
N911 C910 1.315 . S
H912 C906 0.929 . S
H913 C910 0.930 . S
H914 C902 0.929 . S
H915 C904 0.929 . S
O916 Co891 2.351 . S
O916 C919 1.244 . S
O917 Co891 2.155 . S
O917 C919 1.240 . S
O918 Co891 2.096 . S
O918 C899 1.247 . S
C919 O916 1.244 . S
C919 O917 1.240 . S
H920 C894 0.931 . S
H921 C903 0.931 . S
H922 C907 0.929 . S
H923 C909 0.930 . S
Co924 N928 2.148 . S
Co924 N934 2.128 . S
Co924 N944 2.194 . S
Co924 O949 2.351 . S
Co924 O950 2.155 . S
Co924 O951 2.096 . S
C925 N928 1.301 . S
C925 N929 1.328 . S
C925 H930 0.930 . S
C926 C927 1.333 . S
C926 N928 1.317 . S
C926 H931 0.930 . S
C927 C926 1.333 . S
C927 N929 1.350 . S
C927 H953 0.931 . S
N928 Co924 2.148 . S
N928 C925 1.301 . S
N928 C926 1.317 . S
N929 C925 1.328 . S
N929 C927 1.350 . S
H930 C925 0.930 . S
H931 C926 0.930 . S
C932 O933 1.224 . S
C932 O951 1.247 . S
O933 C932 1.224 . S
N934 Co924 2.128 . S
N934 C935 1.355 . S
N934 C937 1.311 . S
C935 N934 1.355 . S
C935 C936 1.363 . S
C935 H947 0.929 . S
C936 C935 1.363 . S
C936 N938 1.375 . S
C936 H954 0.931 . S
C937 N934 1.311 . S
C937 N938 1.347 . S
C937 H948 0.929 . S
N938 C936 1.375 . S
N938 C937 1.347 . S
C939 C942 1.365 . S
C939 N944 1.328 . S
C939 H945 0.929 . S
C940 C941 1.362 . S
C940 C943 1.378 . S
C940 H955 0.929 . S
C941 C940 1.362 . S
C941 C942 1.366 . S
C942 C939 1.365 . S
C942 C941 1.366 . S
C942 H956 0.930 . S
C943 C940 1.378 . S
C943 N944 1.315 . S
C943 H946 0.930 . S
N944 Co924 2.194 . S
N944 C939 1.328 . S
N944 C943 1.315 . S
H945 C939 0.929 . S
H946 C943 0.930 . S
H947 C935 0.929 . S
H948 C937 0.929 . S
O949 Co924 2.351 . S
O949 C952 1.244 . S
O950 Co924 2.155 . S
O950 C952 1.240 . S
O951 Co924 2.096 . S
O951 C932 1.247 . S
C952 O949 1.244 . S
C952 O950 1.240 . S
H953 C927 0.931 . S
H954 C936 0.931 . S
H955 C940 0.929 . S
H956 C942 0.930 . S
Co957 N961 2.148 . S
Co957 N967 2.128 . S
Co957 N977 2.194 . S
Co957 O982 2.351 . S
Co957 O983 2.155 . S
Co957 O984 2.096 . S
C958 N961 1.301 . S
C958 N962 1.328 . S
C958 H963 0.930 . S
C959 C960 1.333 . S
C959 N961 1.317 . S
C959 H964 0.930 . S
C960 C959 1.333 . S
C960 N962 1.350 . S
C960 H986 0.931 . S
N961 Co957 2.148 . S
N961 C958 1.301 . S
N961 C959 1.317 . S
N962 C958 1.328 . S
N962 C960 1.350 . S
H963 C958 0.930 . S
H964 C959 0.930 . S
C965 O966 1.224 . S
C965 O984 1.247 . S
O966 C965 1.224 . S
N967 Co957 2.128 . S
N967 C968 1.355 . S
N967 C970 1.311 . S
C968 N967 1.355 . S
C968 C969 1.363 . S
C968 H980 0.929 . S
C969 C968 1.363 . S
C969 N971 1.375 . S
C969 H987 0.931 . S
C970 N967 1.311 . S
C970 N971 1.347 . S
C970 H981 0.929 . S
N971 C969 1.375 . S
N971 C970 1.347 . S
C972 C975 1.365 . S
C972 N977 1.328 . S
C972 H978 0.929 . S
C973 C974 1.362 . S
C973 C976 1.378 . S
C973 H988 0.929 . S
C974 C973 1.362 . S
C974 C975 1.366 . S
C975 C972 1.365 . S
C975 C974 1.366 . S
C975 H989 0.930 . S
C976 C973 1.378 . S
C976 N977 1.315 . S
C976 H979 0.930 . S
N977 Co957 2.194 . S
N977 C972 1.328 . S
N977 C976 1.315 . S
H978 C972 0.929 . S
H979 C976 0.930 . S
H980 C968 0.929 . S
H981 C970 0.929 . S
O982 Co957 2.351 . S
O982 C985 1.244 . S
O983 Co957 2.155 . S
O983 C985 1.240 . S
O984 Co957 2.096 . S
O984 C965 1.247 . S
C985 O982 1.244 . S
C985 O983 1.240 . S
H986 C960 0.931 . S
H987 C969 0.931 . S
H988 C973 0.929 . S
H989 C975 0.930 . S
Co990 N994 2.148 . S
Co990 N1000 2.128 . S
Co990 N1010 2.194 . S
Co990 O1015 2.351 . S
Co990 O1016 2.155 . S
Co990 O1017 2.096 . S
C991 N994 1.301 . S
C991 N995 1.328 . S
C991 H996 0.930 . S
C992 C993 1.333 . S
C992 N994 1.317 . S
C992 H997 0.930 . S
C993 C992 1.333 . S
C993 N995 1.350 . S
C993 H1019 0.931 . S
N994 Co990 2.148 . S
N994 C991 1.301 . S
N994 C992 1.317 . S
N995 C991 1.328 . S
N995 C993 1.350 . S
H996 C991 0.930 . S
H997 C992 0.930 . S
C998 O999 1.224 . S
C998 O1017 1.247 . S
O999 C998 1.224 . S
N1000 Co990 2.128 . S
N1000 C1001 1.355 . S
N1000 C1003 1.311 . S
C1001 N1000 1.355 . S
C1001 C1002 1.363 . S
C1001 H1013 0.929 . S
C1002 C1001 1.363 . S
C1002 N1004 1.375 . S
C1002 H1020 0.931 . S
C1003 N1000 1.311 . S
C1003 N1004 1.347 . S
C1003 H1014 0.929 . S
N1004 C1002 1.375 . S
N1004 C1003 1.347 . S
C1005 C1008 1.365 . S
C1005 N1010 1.328 . S
C1005 H1011 0.929 . S
C1006 C1007 1.362 . S
C1006 C1009 1.378 . S
C1006 H1021 0.929 . S
C1007 C1006 1.362 . S
C1007 C1008 1.366 . S
C1008 C1005 1.365 . S
C1008 C1007 1.366 . S
C1008 H1022 0.930 . S
C1009 C1006 1.378 . S
C1009 N1010 1.315 . S
C1009 H1012 0.930 . S
N1010 Co990 2.194 . S
N1010 C1005 1.328 . S
N1010 C1009 1.315 . S
H1011 C1005 0.929 . S
H1012 C1009 0.930 . S
H1013 C1001 0.929 . S
H1014 C1003 0.929 . S
O1015 Co990 2.351 . S
O1015 C1018 1.244 . S
O1016 Co990 2.155 . S
O1016 C1018 1.240 . S
O1017 Co990 2.096 . S
O1017 C998 1.247 . S
C1018 O1015 1.244 . S
C1018 O1016 1.240 . S
H1019 C993 0.931 . S
H1020 C1002 0.931 . S
H1021 C1006 0.929 . S
H1022 C1008 0.930 . S
Co1023 N1027 2.148 . S
Co1023 N1033 2.128 . S
Co1023 N1043 2.194 . S
Co1023 O1048 2.351 . S
Co1023 O1049 2.155 . S
Co1023 O1050 2.096 . S
C1024 N1027 1.301 . S
C1024 N1028 1.328 . S
C1024 H1029 0.930 . S
C1025 C1026 1.333 . S
C1025 N1027 1.317 . S
C1025 H1030 0.930 . S
C1026 C1025 1.333 . S
C1026 N1028 1.350 . S
C1026 H1052 0.931 . S
N1027 Co1023 2.148 . S
N1027 C1024 1.301 . S
N1027 C1025 1.317 . S
N1028 C1024 1.328 . S
N1028 C1026 1.350 . S
H1029 C1024 0.930 . S
H1030 C1025 0.930 . S
C1031 O1032 1.224 . S
C1031 O1050 1.247 . S
O1032 C1031 1.224 . S
N1033 Co1023 2.128 . S
N1033 C1034 1.355 . S
N1033 C1036 1.311 . S
C1034 N1033 1.355 . S
C1034 C1035 1.363 . S
C1034 H1046 0.929 . S
C1035 C1034 1.363 . S
C1035 N1037 1.375 . S
C1035 H1053 0.931 . S
C1036 N1033 1.311 . S
C1036 N1037 1.347 . S
C1036 H1047 0.929 . S
N1037 C1035 1.375 . S
N1037 C1036 1.347 . S
C1038 C1041 1.365 . S
C1038 N1043 1.328 . S
C1038 H1044 0.929 . S
C1039 C1040 1.362 . S
C1039 C1042 1.378 . S
C1039 H1054 0.929 . S
C1040 C1039 1.362 . S
C1040 C1041 1.366 . S
C1041 C1038 1.365 . S
C1041 C1040 1.366 . S
C1041 H1055 0.930 . S
C1042 C1039 1.378 . S
C1042 N1043 1.315 . S
C1042 H1045 0.930 . S
N1043 Co1023 2.194 . S
N1043 C1038 1.328 . S
N1043 C1042 1.315 . S
H1044 C1038 0.929 . S
H1045 C1042 0.930 . S
H1046 C1034 0.929 . S
H1047 C1036 0.929 . S
O1048 Co1023 2.351 . S
O1048 C1051 1.244 . S
O1049 Co1023 2.155 . S
O1049 C1051 1.240 . S
O1050 Co1023 2.096 . S
O1050 C1031 1.247 . S
C1051 O1048 1.244 . S
C1051 O1049 1.240 . S
H1052 C1026 0.931 . S
H1053 C1035 0.931 . S
H1054 C1039 0.929 . S
H1055 C1041 0.930 . S
Co1056 N1060 2.148 . S
Co1056 N1066 2.128 . S
Co1056 N1076 2.194 . S
Co1056 O1081 2.351 . S
Co1056 O1082 2.155 . S
Co1056 O1083 2.096 . S
C1057 N1060 1.301 . S
C1057 N1061 1.328 . S
C1057 H1062 0.930 . S
C1058 C1059 1.333 . S
C1058 N1060 1.317 . S
C1058 H1063 0.930 . S
C1059 C1058 1.333 . S
C1059 N1061 1.350 . S
C1059 H1085 0.931 . S
N1060 Co1056 2.148 . S
N1060 C1057 1.301 . S
N1060 C1058 1.317 . S
N1061 C1057 1.328 . S
N1061 C1059 1.350 . S
H1062 C1057 0.930 . S
H1063 C1058 0.930 . S
C1064 O1065 1.224 . S
C1064 O1083 1.247 . S
O1065 C1064 1.224 . S
N1066 Co1056 2.128 . S
N1066 C1067 1.355 . S
N1066 C1069 1.311 . S
C1067 N1066 1.355 . S
C1067 C1068 1.363 . S
C1067 H1079 0.929 . S
C1068 C1067 1.363 . S
C1068 N1070 1.375 . S
C1068 H1086 0.931 . S
C1069 N1066 1.311 . S
C1069 N1070 1.347 . S
C1069 H1080 0.929 . S
N1070 C1068 1.375 . S
N1070 C1069 1.347 . S
C1071 C1074 1.365 . S
C1071 N1076 1.328 . S
C1071 H1077 0.929 . S
C1072 C1073 1.362 . S
C1072 C1075 1.378 . S
C1072 H1087 0.929 . S
C1073 C1072 1.362 . S
C1073 C1074 1.366 . S
C1074 C1071 1.365 . S
C1074 C1073 1.366 . S
C1074 H1088 0.930 . S
C1075 C1072 1.378 . S
C1075 N1076 1.315 . S
C1075 H1078 0.930 . S
N1076 Co1056 2.194 . S
N1076 C1071 1.328 . S
N1076 C1075 1.315 . S
H1077 C1071 0.929 . S
H1078 C1075 0.930 . S
H1079 C1067 0.929 . S
H1080 C1069 0.929 . S
O1081 Co1056 2.351 . S
O1081 C1084 1.244 . S
O1082 Co1056 2.155 . S
O1082 C1084 1.240 . S
O1083 Co1056 2.096 . S
O1083 C1064 1.247 . S
C1084 O1081 1.244 . S
C1084 O1082 1.240 . S
H1085 C1059 0.931 . S
H1086 C1068 0.931 . S
H1087 C1072 0.929 . S
H1088 C1074 0.930 . S
Co1089 N1093 2.148 . S
Co1089 N1099 2.128 . S
Co1089 N1109 2.194 . S
Co1089 O1114 2.351 . S
Co1089 O1115 2.155 . S
Co1089 O1116 2.096 . S
C1090 N1093 1.301 . S
C1090 N1094 1.328 . S
C1090 H1095 0.930 . S
C1091 C1092 1.333 . S
C1091 N1093 1.317 . S
C1091 H1096 0.930 . S
C1092 C1091 1.333 . S
C1092 N1094 1.350 . S
C1092 H1118 0.931 . S
N1093 Co1089 2.148 . S
N1093 C1090 1.301 . S
N1093 C1091 1.317 . S
N1094 C1090 1.328 . S
N1094 C1092 1.350 . S
H1095 C1090 0.930 . S
H1096 C1091 0.930 . S
C1097 O1098 1.224 . S
C1097 O1116 1.247 . S
O1098 C1097 1.224 . S
N1099 Co1089 2.128 . S
N1099 C1100 1.355 . S
N1099 C1102 1.311 . S
C1100 N1099 1.355 . S
C1100 C1101 1.363 . S
C1100 H1112 0.929 . S
C1101 C1100 1.363 . S
C1101 N1103 1.375 . S
C1101 H1119 0.931 . S
C1102 N1099 1.311 . S
C1102 N1103 1.347 . S
C1102 H1113 0.929 . S
N1103 C1101 1.375 . S
N1103 C1102 1.347 . S
C1104 C1107 1.365 . S
C1104 N1109 1.328 . S
C1104 H1110 0.929 . S
C1105 C1106 1.362 . S
C1105 C1108 1.378 . S
C1105 H1120 0.929 . S
C1106 C1105 1.362 . S
C1106 C1107 1.366 . S
C1107 C1104 1.365 . S
C1107 C1106 1.366 . S
C1107 H1121 0.930 . S
C1108 C1105 1.378 . S
C1108 N1109 1.315 . S
C1108 H1111 0.930 . S
N1109 Co1089 2.194 . S
N1109 C1104 1.328 . S
N1109 C1108 1.315 . S
H1110 C1104 0.929 . S
H1111 C1108 0.930 . S
H1112 C1100 0.929 . S
H1113 C1102 0.929 . S
O1114 Co1089 2.351 . S
O1114 C1117 1.244 . S
O1115 Co1089 2.155 . S
O1115 C1117 1.240 . S
O1116 Co1089 2.096 . S
O1116 C1097 1.247 . S
C1117 O1114 1.244 . S
C1117 O1115 1.240 . S
H1118 C1092 0.931 . S
H1119 C1101 0.931 . S
H1120 C1105 0.929 . S
H1121 C1107 0.930 . S
Co1122 N1126 2.148 . S
Co1122 N1132 2.128 . S
Co1122 N1142 2.194 . S
Co1122 O1147 2.351 . S
Co1122 O1148 2.155 . S
Co1122 O1149 2.096 . S
C1123 N1126 1.301 . S
C1123 N1127 1.328 . S
C1123 H1128 0.930 . S
C1124 C1125 1.333 . S
C1124 N1126 1.317 . S
C1124 H1129 0.930 . S
C1125 C1124 1.333 . S
C1125 N1127 1.350 . S
C1125 H1151 0.931 . S
N1126 Co1122 2.148 . S
N1126 C1123 1.301 . S
N1126 C1124 1.317 . S
N1127 C1123 1.328 . S
N1127 C1125 1.350 . S
H1128 C1123 0.930 . S
H1129 C1124 0.930 . S
C1130 O1131 1.224 . S
C1130 O1149 1.247 . S
O1131 C1130 1.224 . S
N1132 Co1122 2.128 . S
N1132 C1133 1.355 . S
N1132 C1135 1.311 . S
C1133 N1132 1.355 . S
C1133 C1134 1.363 . S
C1133 H1145 0.929 . S
C1134 C1133 1.363 . S
C1134 N1136 1.375 . S
C1134 H1152 0.931 . S
C1135 N1132 1.311 . S
C1135 N1136 1.347 . S
C1135 H1146 0.929 . S
N1136 C1134 1.375 . S
N1136 C1135 1.347 . S
C1137 C1140 1.365 . S
C1137 N1142 1.328 . S
C1137 H1143 0.929 . S
C1138 C1139 1.362 . S
C1138 C1141 1.378 . S
C1138 H1153 0.929 . S
C1139 C1138 1.362 . S
C1139 C1140 1.366 . S
C1140 C1137 1.365 . S
C1140 C1139 1.366 . S
C1140 H1154 0.930 . S
C1141 C1138 1.378 . S
C1141 N1142 1.315 . S
C1141 H1144 0.930 . S
N1142 Co1122 2.194 . S
N1142 C1137 1.328 . S
N1142 C1141 1.315 . S
H1143 C1137 0.929 . S
H1144 C1141 0.930 . S
H1145 C1133 0.929 . S
H1146 C1135 0.929 . S
O1147 Co1122 2.351 . S
O1147 C1150 1.244 . S
O1148 Co1122 2.155 . S
O1148 C1150 1.240 . S
O1149 Co1122 2.096 . S
O1149 C1130 1.247 . S
C1150 O1147 1.244 . S
C1150 O1148 1.240 . S
H1151 C1125 0.931 . S
H1152 C1134 0.931 . S
H1153 C1138 0.929 . S
H1154 C1140 0.930 . S
Co1155 N1159 2.148 . S
Co1155 N1165 2.128 . S
Co1155 N1175 2.194 . S
Co1155 O1180 2.351 . S
Co1155 O1181 2.155 . S
Co1155 O1182 2.096 . S
C1156 N1159 1.301 . S
C1156 N1160 1.328 . S
C1156 H1161 0.930 . S
C1157 C1158 1.333 . S
C1157 N1159 1.317 . S
C1157 H1162 0.930 . S
C1158 C1157 1.333 . S
C1158 N1160 1.350 . S
C1158 H1184 0.931 . S
N1159 Co1155 2.148 . S
N1159 C1156 1.301 . S
N1159 C1157 1.317 . S
N1160 C1156 1.328 . S
N1160 C1158 1.350 . S
H1161 C1156 0.930 . S
H1162 C1157 0.930 . S
C1163 O1164 1.224 . S
C1163 O1182 1.247 . S
O1164 C1163 1.224 . S
N1165 Co1155 2.128 . S
N1165 C1166 1.355 . S
N1165 C1168 1.311 . S
C1166 N1165 1.355 . S
C1166 C1167 1.363 . S
C1166 H1178 0.929 . S
C1167 C1166 1.363 . S
C1167 N1169 1.375 . S
C1167 H1185 0.931 . S
C1168 N1165 1.311 . S
C1168 N1169 1.347 . S
C1168 H1179 0.929 . S
N1169 C1167 1.375 . S
N1169 C1168 1.347 . S
C1170 C1173 1.365 . S
C1170 N1175 1.328 . S
C1170 H1176 0.929 . S
C1171 C1172 1.362 . S
C1171 C1174 1.378 . S
C1171 H1186 0.929 . S
C1172 C1171 1.362 . S
C1172 C1173 1.366 . S
C1173 C1170 1.365 . S
C1173 C1172 1.366 . S
C1173 H1187 0.930 . S
C1174 C1171 1.378 . S
C1174 N1175 1.315 . S
C1174 H1177 0.930 . S
N1175 Co1155 2.194 . S
N1175 C1170 1.328 . S
N1175 C1174 1.315 . S
H1176 C1170 0.929 . S
H1177 C1174 0.930 . S
H1178 C1166 0.929 . S
H1179 C1168 0.929 . S
O1180 Co1155 2.351 . S
O1180 C1183 1.244 . S
O1181 Co1155 2.155 . S
O1181 C1183 1.240 . S
O1182 Co1155 2.096 . S
O1182 C1163 1.247 . S
C1183 O1180 1.244 . S
C1183 O1181 1.240 . S
H1184 C1158 0.931 . S
H1185 C1167 0.931 . S
H1186 C1171 0.929 . S
H1187 C1173 0.930 . S
H1188 C1194 0.930 . S
H1189 C1198 0.930 . S
H1190 C1203 0.929 . S
H1191 C1201 0.929 . S
H1192 C1196 0.929 . S
H1193 C1202 0.929 . S
C1194 H1188 0.930 . S
C1194 C1195 1.367 1_556 S
C1194 C1202 1.378 . S
C1195 C1194 1.367 1_554 S
C1195 C1203 1.433 . S
C1196 H1192 0.929 . S
C1196 C1198 1.378 . S
C1196 C1200 1.350 . S
C1197 C1200 1.463 . S
C1197 C1202 1.350 1_554 S
C1197 N1205 1.427 . S
C1198 H1189 0.930 . S
C1198 C1196 1.378 . S
C1198 C1199 1.367 . S
C1199 C1198 1.367 . S
C1199 C1201 1.433 1_554 S
C1200 C1196 1.350 . S
C1200 C1197 1.463 . S
C1200 N1204 1.427 1_554 S
C1201 H1191 0.929 . S
C1201 C1199 1.433 1_556 S
C1201 N1204 1.384 . S
C1202 H1193 0.929 . S
C1202 C1194 1.378 . S
C1202 C1197 1.350 1_556 S
C1203 H1190 0.929 . S
C1203 C1195 1.433 . S
C1203 N1205 1.384 . S
N1204 C1200 1.427 1_556 S
N1204 C1201 1.384 . S
N1205 C1197 1.427 . S
N1205 C1203 1.384 . S
H1206 C1212 0.930 . S
H1207 C1216 0.930 . S
H1208 C1221 0.929 . S
H1209 C1219 0.929 . S
H1210 C1214 0.929 . S
H1211 C1220 0.929 . S
C1212 H1206 0.930 . S
C1212 C1213 1.367 1_556 S
C1212 C1220 1.378 . S
C1213 C1212 1.367 1_554 S
C1213 C1221 1.433 . S
C1214 H1210 0.929 . S
C1214 C1216 1.378 . S
C1214 C1218 1.350 . S
C1215 C1218 1.463 . S
C1215 C1220 1.350 1_554 S
C1215 N1223 1.427 . S
C1216 H1207 0.930 . S
C1216 C1214 1.378 . S
C1216 C1217 1.367 . S
C1217 C1216 1.367 . S
C1217 C1219 1.433 1_554 S
C1218 C1214 1.350 . S
C1218 C1215 1.463 . S
C1218 N1222 1.427 1_554 S
C1219 H1209 0.929 . S
C1219 C1217 1.433 1_556 S
C1219 N1222 1.384 . S
C1220 H1211 0.929 . S
C1220 C1212 1.378 . S
C1220 C1215 1.350 1_556 S
C1221 H1208 0.929 . S
C1221 C1213 1.433 . S
C1221 N1223 1.384 . S
N1222 C1218 1.427 1_556 S
N1222 C1219 1.384 . S
N1223 C1215 1.427 . S
N1223 C1221 1.384 . S
H1224 C1230 0.930 . S
H1225 C1234 0.930 . S
H1226 C1239 0.929 . S
H1227 C1237 0.929 . S
H1228 C1232 0.929 . S
H1229 C1238 0.929 . S
C1230 H1224 0.930 . S
C1230 C1231 1.367 1_556 S
C1230 C1238 1.378 . S
C1231 C1230 1.367 1_554 S
C1231 C1239 1.433 . S
C1232 H1228 0.929 . S
C1232 C1234 1.378 . S
C1232 C1236 1.350 . S
C1233 C1236 1.463 . S
C1233 C1238 1.350 1_554 S
C1233 N1241 1.427 . S
C1234 H1225 0.930 . S
C1234 C1232 1.378 . S
C1234 C1235 1.367 . S
C1235 C1234 1.367 . S
C1235 C1237 1.433 1_554 S
C1236 C1232 1.350 . S
C1236 C1233 1.463 . S
C1236 N1240 1.427 1_554 S
C1237 H1227 0.929 . S
C1237 C1235 1.433 1_556 S
C1237 N1240 1.384 . S
C1238 H1229 0.929 . S
C1238 C1230 1.378 . S
C1238 C1233 1.350 1_556 S
C1239 H1226 0.929 . S
C1239 C1231 1.433 . S
C1239 N1241 1.384 . S
N1240 C1236 1.427 1_556 S
N1240 C1237 1.384 . S
N1241 C1233 1.427 . S
N1241 C1239 1.384 . S
H1242 C1248 0.930 . S
H1243 C1252 0.930 . S
H1244 C1257 0.929 . S
H1245 C1255 0.929 . S
H1246 C1250 0.929 . S
H1247 C1256 0.929 . S
C1248 H1242 0.930 . S
C1248 C1249 1.367 . S
C1248 C1256 1.378 . S
C1249 C1248 1.367 . S
C1249 C1257 1.433 . S
C1250 H1246 0.929 . S
C1250 C1252 1.378 . S
C1250 C1254 1.350 . S
C1251 C1254 1.463 . S
C1251 C1256 1.350 . S
C1251 N1259 1.427 . S
C1252 H1243 0.930 . S
C1252 C1250 1.378 . S
C1252 C1253 1.367 . S
C1253 C1252 1.367 . S
C1253 C1255 1.433 . S
C1254 C1250 1.350 . S
C1254 C1251 1.463 . S
C1254 N1258 1.427 . S
C1255 H1245 0.929 . S
C1255 C1253 1.433 . S
C1255 N1258 1.384 . S
C1256 H1247 0.929 . S
C1256 C1248 1.378 . S
C1256 C1251 1.350 . S
C1257 H1244 0.929 . S
C1257 C1249 1.433 . S
C1257 N1259 1.384 . S
N1258 C1254 1.427 . S
N1258 C1255 1.384 . S
N1259 C1251 1.427 . S
N1259 C1257 1.384 . S
H1260 C1266 0.930 . S
H1261 C1270 0.930 . S
H1262 C1275 0.929 . S
H1263 C1273 0.929 . S
H1264 C1268 0.929 . S
H1265 C1274 0.929 . S
C1266 H1260 0.930 . S
C1266 C1267 1.367 . S
C1266 C1274 1.378 . S
C1267 C1266 1.367 . S
C1267 C1275 1.433 . S
C1268 H1264 0.929 . S
C1268 C1270 1.378 . S
C1268 C1272 1.350 . S
C1269 C1272 1.463 . S
C1269 C1274 1.350 . S
C1269 N1277 1.427 . S
C1270 H1261 0.930 . S
C1270 C1268 1.378 . S
C1270 C1271 1.367 . S
C1271 C1270 1.367 . S
C1271 C1273 1.433 . S
C1272 C1268 1.350 . S
C1272 C1269 1.463 . S
C1272 N1276 1.427 . S
C1273 H1263 0.929 . S
C1273 C1271 1.433 . S
C1273 N1276 1.384 . S
C1274 H1265 0.929 . S
C1274 C1266 1.378 . S
C1274 C1269 1.350 . S
C1275 H1262 0.929 . S
C1275 C1267 1.433 . S
C1275 N1277 1.384 . S
N1276 C1272 1.427 . S
N1276 C1273 1.384 . S
N1277 C1269 1.427 . S
N1277 C1275 1.384 . S
H1278 C1284 0.930 . S
H1279 C1288 0.930 . S
H1280 C1293 0.929 . S
H1281 C1291 0.929 . S
H1282 C1286 0.929 . S
H1283 C1292 0.929 . S
C1284 H1278 0.930 . S
C1284 C1285 1.367 . S
C1284 C1292 1.378 . S
C1285 C1284 1.367 . S
C1285 C1293 1.433 . S
C1286 H1282 0.929 . S
C1286 C1288 1.378 . S
C1286 C1290 1.350 . S
C1287 C1290 1.463 . S
C1287 C1292 1.350 . S
C1287 N1295 1.427 . S
C1288 H1279 0.930 . S
C1288 C1286 1.378 . S
C1288 C1289 1.367 . S
C1289 C1288 1.367 . S
C1289 C1291 1.433 . S
C1290 C1286 1.350 . S
C1290 C1287 1.463 . S
C1290 N1294 1.427 . S
C1291 H1281 0.929 . S
C1291 C1289 1.433 . S
C1291 N1294 1.384 . S
C1292 H1283 0.929 . S
C1292 C1284 1.378 . S
C1292 C1287 1.350 . S
C1293 H1280 0.929 . S
C1293 C1285 1.433 . S
C1293 N1295 1.384 . S
N1294 C1290 1.427 . S
N1294 C1291 1.384 . S
N1295 C1287 1.427 . S
N1295 C1293 1.384 . S
H1296 C1302 0.930 . S
H1297 C1306 0.930 . S
H1298 C1311 0.925 1_554 S
H1299 C1309 0.929 . S
H1300 C1304 0.937 . S
H1301 C1310 0.929 . S
C1302 H1296 0.930 . S
C1302 C1303 1.367 . S
C1302 C1310 1.378 . S
C1303 C1302 1.367 . S
C1303 C1311 1.433 . S
C1304 H1300 0.937 . S
C1304 C1306 1.380 . S
C1304 C1308 1.340 1_554 S
C1305 C1308 1.463 . S
C1305 C1310 1.350 . S
C1305 N1313 1.427 . S
C1306 H1297 0.930 . S
C1306 C1304 1.380 . S
C1306 C1307 1.367 1_554 S
C1307 C1306 1.367 1_556 S
C1307 C1309 1.433 . S
C1308 C1304 1.340 1_556 S
C1308 C1305 1.463 . S
C1308 N1312 1.427 . S
C1309 H1299 0.929 . S
C1309 C1307 1.433 . S
C1309 N1312 1.384 . S
C1310 H1301 0.929 . S
C1310 C1302 1.378 . S
C1310 C1305 1.350 . S
C1311 H1298 0.925 1_556 S
C1311 C1303 1.433 . S
C1311 N1313 1.384 . S
N1312 C1308 1.427 . S
N1312 C1309 1.384 . S
N1313 C1305 1.427 . S
N1313 C1311 1.384 . S
H1314 C1320 0.930 . S
H1315 C1324 0.930 . S
H1316 C1329 0.929 . S
H1317 C1327 0.929 . S
H1318 C1322 0.929 . S
H1319 C1328 0.929 . S
C1320 H1314 0.930 . S
C1320 C1321 1.367 . S
C1320 C1328 1.378 . S
C1321 C1320 1.367 . S
C1321 C1329 1.433 . S
C1322 H1318 0.929 . S
C1322 C1324 1.378 . S
C1322 C1326 1.350 . S
C1323 C1326 1.463 . S
C1323 C1328 1.350 . S
C1323 N1331 1.427 . S
C1324 H1315 0.930 . S
C1324 C1322 1.378 . S
C1324 C1325 1.367 . S
C1325 C1324 1.367 . S
C1325 C1327 1.433 . S
C1326 C1322 1.350 . S
C1326 C1323 1.463 . S
C1326 N1330 1.427 . S
C1327 H1317 0.929 . S
C1327 C1325 1.433 . S
C1327 N1330 1.384 . S
C1328 H1319 0.929 . S
C1328 C1320 1.378 . S
C1328 C1323 1.350 . S
C1329 H1316 0.929 . S
C1329 C1321 1.433 . S
C1329 N1331 1.384 . S
N1330 C1326 1.427 . S
N1330 C1327 1.384 . S
N1331 C1323 1.427 . S
N1331 C1329 1.384 . S
H1332 C1338 0.930 . S
H1333 C1342 0.930 . S
H1334 C1347 0.929 . S
H1335 C1345 0.929 . S
H1336 C1340 0.929 . S
H1337 C1346 0.929 . S
C1338 H1332 0.930 . S
C1338 C1339 1.367 . S
C1338 C1346 1.378 . S
C1339 C1338 1.367 . S
C1339 C1347 1.433 1_556 S
C1340 H1336 0.929 . S
C1340 C1342 1.378 . S
C1340 C1344 1.350 1_554 S
C1341 C1344 1.463 . S
C1341 C1346 1.350 . S
C1341 N1349 1.427 1_556 S
C1342 H1333 0.930 . S
C1342 C1340 1.378 . S
C1342 C1343 1.367 1_554 S
C1343 C1342 1.367 1_556 S
C1343 C1345 1.433 . S
C1344 C1340 1.350 1_556 S
C1344 C1341 1.463 . S
C1344 N1348 1.427 . S
C1345 H1335 0.929 . S
C1345 C1343 1.433 . S
C1345 N1348 1.384 . S
C1346 H1337 0.929 . S
C1346 C1338 1.378 . S
C1346 C1341 1.350 . S
C1347 H1334 0.929 . S
C1347 C1339 1.433 1_554 S
C1347 N1349 1.384 . S
N1348 C1344 1.427 . S
N1348 C1345 1.384 . S
N1349 C1341 1.427 1_554 S
N1349 C1347 1.384 . S
H1350 C1356 0.930 . S
H1351 C1360 0.930 . S
H1352 C1365 0.929 . S
H1353 C1363 0.929 . S
H1354 C1358 0.929 . S
H1355 C1364 0.929 . S
C1356 H1350 0.930 . S
C1356 C1357 1.367 . S
C1356 C1364 1.378 . S
C1357 C1356 1.367 . S
C1357 C1365 1.433 . S
C1358 H1354 0.929 . S
C1358 C1360 1.378 . S
C1358 C1362 1.350 . S
C1359 C1362 1.463 . S
C1359 C1364 1.350 . S
C1359 N1367 1.427 . S
C1360 H1351 0.930 . S
C1360 C1358 1.378 . S
C1360 C1361 1.367 . S
C1361 C1360 1.367 . S
C1361 C1363 1.433 . S
C1362 C1358 1.350 . S
C1362 C1359 1.463 . S
C1362 N1366 1.427 . S
C1363 H1353 0.929 . S
C1363 C1361 1.433 . S
C1363 N1366 1.384 . S
C1364 H1355 0.929 . S
C1364 C1356 1.378 . S
C1364 C1359 1.350 . S
C1365 H1352 0.929 . S
C1365 C1357 1.433 . S
C1365 N1367 1.384 . S
N1366 C1362 1.427 . S
N1366 C1363 1.384 . S
N1367 C1359 1.427 . S
N1367 C1365 1.384 . S
H1368 C1374 0.930 . S
H1369 C1378 0.930 . S
H1370 C1383 0.929 . S
H1371 C1381 0.929 . S
H1372 C1376 0.929 . S
H1373 C1382 0.929 . S
C1374 H1368 0.930 . S
C1374 C1375 1.367 . S
C1374 C1382 1.378 . S
C1375 C1374 1.367 . S
C1375 C1383 1.433 . S
C1376 H1372 0.929 . S
C1376 C1378 1.378 . S
C1376 C1380 1.350 . S
C1377 C1380 1.463 . S
C1377 C1382 1.350 . S
C1377 N1385 1.427 . S
C1378 H1369 0.930 . S
C1378 C1376 1.378 . S
C1378 C1379 1.367 . S
C1379 C1378 1.367 . S
C1379 C1381 1.433 . S
C1380 C1376 1.350 . S
C1380 C1377 1.463 . S
C1380 N1384 1.427 . S
C1381 H1371 0.929 . S
C1381 C1379 1.433 . S
C1381 N1384 1.384 . S
C1382 H1373 0.929 . S
C1382 C1374 1.378 . S
C1382 C1377 1.350 . S
C1383 H1370 0.929 . S
C1383 C1375 1.433 . S
C1383 N1385 1.384 . S
N1384 C1380 1.427 . S
N1384 C1381 1.384 . S
N1385 C1377 1.427 . S
N1385 C1383 1.384 . S
H1386 C1392 0.930 . S
H1387 C1396 0.930 . S
H1388 C1401 0.929 . S
H1389 C1399 0.929 . S
H1390 C1394 0.929 . S
H1391 C1400 0.929 . S
C1392 H1386 0.930 . S
C1392 C1393 1.367 . S
C1392 C1400 1.378 . S
C1393 C1392 1.367 . S
C1393 C1401 1.433 . S
C1394 H1390 0.929 . S
C1394 C1396 1.378 . S
C1394 C1398 1.350 . S
C1395 C1398 1.463 . S
C1395 C1400 1.350 . S
C1395 N1403 1.427 . S
C1396 H1387 0.930 . S
C1396 C1394 1.378 . S
C1396 C1397 1.367 . S
C1397 C1396 1.367 . S
C1397 C1399 1.433 . S
C1398 C1394 1.350 . S
C1398 C1395 1.463 . S
C1398 N1402 1.427 . S
C1399 H1389 0.929 . S
C1399 C1397 1.433 . S
C1399 N1402 1.384 . S
C1400 H1391 0.929 . S
C1400 C1392 1.378 . S
C1400 C1395 1.350 . S
C1401 H1388 0.929 . S
C1401 C1393 1.433 . S
C1401 N1403 1.384 . S
N1402 C1398 1.427 . S
N1402 C1399 1.384 . S
N1403 C1395 1.427 . S
N1403 C1401 1.384 . S
H1404 C1410 0.930 . S
H1405 C1414 0.930 . S
H1406 C1419 0.929 . S
H1407 C1417 0.929 . S
H1408 C1412 0.929 . S
H1409 C1418 0.929 . S
C1410 H1404 0.930 . S
C1410 C1411 1.367 . S
C1410 C1418 1.378 . S
C1411 C1410 1.367 . S
C1411 C1419 1.433 . S
C1412 H1408 0.929 . S
C1412 C1414 1.378 . S
C1412 C1416 1.350 . S
C1413 C1416 1.463 . S
C1413 C1418 1.350 . S
C1413 N1421 1.427 . S
C1414 H1405 0.930 . S
C1414 C1412 1.378 . S
C1414 C1415 1.367 . S
C1415 C1414 1.367 . S
C1415 C1417 1.433 . S
C1416 C1412 1.350 . S
C1416 C1413 1.463 . S
C1416 N1420 1.427 . S
C1417 H1407 0.929 . S
C1417 C1415 1.433 . S
C1417 N1420 1.384 . S
C1418 H1409 0.929 . S
C1418 C1410 1.378 . S
C1418 C1413 1.350 . S
C1419 H1406 0.929 . S
C1419 C1411 1.433 . S
C1419 N1421 1.384 . S
N1420 C1416 1.427 . S
N1420 C1417 1.384 . S
N1421 C1413 1.427 . S
N1421 C1419 1.384 . S
H1422 C1428 0.930 . S
H1423 C1432 0.930 . S
H1424 C1437 0.929 . S
H1425 C1435 0.929 . S
H1426 C1430 0.929 . S
H1427 C1436 0.929 . S
C1428 H1422 0.930 . S
C1428 C1429 1.367 . S
C1428 C1436 1.378 . S
C1429 C1428 1.367 . S
C1429 C1437 1.433 . S
C1430 H1426 0.929 . S
C1430 C1432 1.378 . S
C1430 C1434 1.350 . S
C1431 C1434 1.463 . S
C1431 C1436 1.350 . S
C1431 N1439 1.427 . S
C1432 H1423 0.930 . S
C1432 C1430 1.378 . S
C1432 C1433 1.367 . S
C1433 C1432 1.367 . S
C1433 C1435 1.433 . S
C1434 C1430 1.350 . S
C1434 C1431 1.463 . S
C1434 N1438 1.427 . S
C1435 H1425 0.929 . S
C1435 C1433 1.433 . S
C1435 N1438 1.384 . S
C1436 H1427 0.929 . S
C1436 C1428 1.378 . S
C1436 C1431 1.350 . S
C1437 H1424 0.929 . S
C1437 C1429 1.433 . S
C1437 N1439 1.384 . S
N1438 C1434 1.427 . S
N1438 C1435 1.384 . S
N1439 C1431 1.427 . S
N1439 C1437 1.384 . S
H1440 C1446 0.930 . S
H1441 C1450 0.930 . S
H1442 C1455 0.929 . S
H1443 C1453 0.929 . S
H1444 C1448 0.929 . S
H1445 C1454 0.929 . S
C1446 H1440 0.930 . S
C1446 C1447 1.367 . S
C1446 C1454 1.378 . S
C1447 C1446 1.367 . S
C1447 C1455 1.433 . S
C1448 H1444 0.929 . S
C1448 C1450 1.378 . S
C1448 C1452 1.350 . S
C1449 C1452 1.463 . S
C1449 C1454 1.350 . S
C1449 N1457 1.427 . S
C1450 H1441 0.930 . S
C1450 C1448 1.378 . S
C1450 C1451 1.367 . S
C1451 C1450 1.367 . S
C1451 C1453 1.433 . S
C1452 C1448 1.350 . S
C1452 C1449 1.463 . S
C1452 N1456 1.427 . S
C1453 H1443 0.929 . S
C1453 C1451 1.433 . S
C1453 N1456 1.384 . S
C1454 H1445 0.929 . S
C1454 C1446 1.378 . S
C1454 C1449 1.350 . S
C1455 H1442 0.929 . S
C1455 C1447 1.433 . S
C1455 N1457 1.384 . S
N1456 C1452 1.427 . S
N1456 C1453 1.384 . S
N1457 C1449 1.427 . S
N1457 C1455 1.384 . S
H1458 C1464 0.930 . S
H1459 C1468 0.930 . S
H1460 C1473 0.929 . S
H1461 C1471 0.929 . S
H1462 C1466 0.929 . S
H1463 C1472 0.929 . S
C1464 H1458 0.930 . S
C1464 C1465 1.367 . S
C1464 C1472 1.378 . S
C1465 C1464 1.367 . S
C1465 C1473 1.433 . S
C1466 H1462 0.929 . S
C1466 C1468 1.378 . S
C1466 C1470 1.350 . S
C1467 C1470 1.463 . S
C1467 C1472 1.350 . S
C1467 N1475 1.427 . S
C1468 H1459 0.930 . S
C1468 C1466 1.378 . S
C1468 C1469 1.367 . S
C1469 C1468 1.367 . S
C1469 C1471 1.433 . S
C1470 C1466 1.350 . S
C1470 C1467 1.463 . S
C1470 N1474 1.427 . S
C1471 H1461 0.929 . S
C1471 C1469 1.433 . S
C1471 N1474 1.384 . S
C1472 H1463 0.929 . S
C1472 C1464 1.378 . S
C1472 C1467 1.350 . S
C1473 H1460 0.929 . S
C1473 C1465 1.433 . S
C1473 N1475 1.384 . S
N1474 C1470 1.427 . S
N1474 C1471 1.384 . S
N1475 C1467 1.427 . S
N1475 C1473 1.384 . S
H1476 C1482 0.930 . S
H1477 C1486 0.930 . S
H1478 C1491 0.929 . S
H1479 C1489 0.929 . S
H1480 C1484 0.929 . S
H1481 C1490 0.929 . S
C1482 H1476 0.930 . S
C1482 C1483 1.367 . S
C1482 C1490 1.378 . S
C1483 C1482 1.367 . S
C1483 C1491 1.433 . S
C1484 H1480 0.929 . S
C1484 C1486 1.378 . S
C1484 C1488 1.350 . S
C1485 C1488 1.463 . S
C1485 C1490 1.350 . S
C1485 N1493 1.427 . S
C1486 H1477 0.930 . S
C1486 C1484 1.378 . S
C1486 C1487 1.367 . S
C1487 C1486 1.367 . S
C1487 C1489 1.433 . S
C1488 C1484 1.350 . S
C1488 C1485 1.463 . S
C1488 N1492 1.427 . S
C1489 H1479 0.929 . S
C1489 C1487 1.433 . S
C1489 N1492 1.384 . S
C1490 H1481 0.929 . S
C1490 C1482 1.378 . S
C1490 C1485 1.350 . S
C1491 H1478 0.929 . S
C1491 C1483 1.433 . S
C1491 N1493 1.384 . S
N1492 C1488 1.427 . S
N1492 C1489 1.384 . S
N1493 C1485 1.427 . S
N1493 C1491 1.384 . S
H1494 C1500 0.930 . S
H1495 C1504 0.930 . S
H1496 C1509 0.929 . S
H1497 C1507 0.929 . S
H1498 C1502 0.929 . S
H1499 C1508 0.929 . S
C1500 H1494 0.930 . S
C1500 C1501 1.367 . S
C1500 C1508 1.378 . S
C1501 C1500 1.367 . S
C1501 C1509 1.433 . S
C1502 H1498 0.929 . S
C1502 C1504 1.378 . S
C1502 C1506 1.350 . S
C1503 C1506 1.463 . S
C1503 C1508 1.350 . S
C1503 N1511 1.427 . S
C1504 H1495 0.930 . S
C1504 C1502 1.378 . S
C1504 C1505 1.367 . S
C1505 C1504 1.367 . S
C1505 C1507 1.433 . S
C1506 C1502 1.350 . S
C1506 C1503 1.463 . S
C1506 N1510 1.427 . S
C1507 H1497 0.929 . S
C1507 C1505 1.433 . S
C1507 N1510 1.384 . S
C1508 H1499 0.929 . S
C1508 C1500 1.378 . S
C1508 C1503 1.350 . S
C1509 H1496 0.929 . S
C1509 C1501 1.433 . S
C1509 N1511 1.384 . S
N1510 C1506 1.427 . S
N1510 C1507 1.384 . S
N1511 C1503 1.427 . S
N1511 C1509 1.384 . S
H1512 C1518 0.930 . S
H1513 C1522 0.930 . S
H1514 C1527 0.929 . S
H1515 C1525 0.929 . S
H1516 C1520 0.929 . S
H1517 C1526 0.929 . S
C1518 H1512 0.930 . S
C1518 C1519 1.367 . S
C1518 C1526 1.378 . S
C1519 C1518 1.367 . S
C1519 C1527 1.433 . S
C1520 H1516 0.929 . S
C1520 C1522 1.378 . S
C1520 C1524 1.350 . S
C1521 C1524 1.463 . S
C1521 C1526 1.350 . S
C1521 N1529 1.427 . S
C1522 H1513 0.930 . S
C1522 C1520 1.378 . S
C1522 C1523 1.367 . S
C1523 C1522 1.367 . S
C1523 C1525 1.433 . S
C1524 C1520 1.350 . S
C1524 C1521 1.463 . S
C1524 N1528 1.427 . S
C1525 H1515 0.929 . S
C1525 C1523 1.433 . S
C1525 N1528 1.384 . S
C1526 H1517 0.929 . S
C1526 C1518 1.378 . S
C1526 C1521 1.350 . S
C1527 H1514 0.929 . S
C1527 C1519 1.433 . S
C1527 N1529 1.384 . S
N1528 C1524 1.427 . S
N1528 C1525 1.384 . S
N1529 C1521 1.427 . S
N1529 C1527 1.384 . S
H1530 C1536 0.930 . S
H1531 C1540 0.930 . S
H1532 C1545 0.929 . S
H1533 C1543 0.929 . S
H1534 C1538 0.929 . S
H1535 C1544 0.929 . S
C1536 H1530 0.930 . S
C1536 C1537 1.367 . S
C1536 C1544 1.378 . S
C1537 C1536 1.367 . S
C1537 C1545 1.433 . S
C1538 H1534 0.929 . S
C1538 C1540 1.378 . S
C1538 C1542 1.350 . S
C1539 C1542 1.463 . S
C1539 C1544 1.350 . S
C1539 N1547 1.427 . S
C1540 H1531 0.930 . S
C1540 C1538 1.378 . S
C1540 C1541 1.367 . S
C1541 C1540 1.367 . S
C1541 C1543 1.433 . S
C1542 C1538 1.350 . S
C1542 C1539 1.463 . S
C1542 N1546 1.427 . S
C1543 H1533 0.929 . S
C1543 C1541 1.433 . S
C1543 N1546 1.384 . S
C1544 H1535 0.929 . S
C1544 C1536 1.378 . S
C1544 C1539 1.350 . S
C1545 H1532 0.929 . S
C1545 C1537 1.433 . S
C1545 N1547 1.384 . S
N1546 C1542 1.427 . S
N1546 C1543 1.384 . S
N1547 C1539 1.427 . S
N1547 C1545 1.384 . S
H1548 C1554 0.930 . S
H1549 C1558 0.930 . S
H1550 C1563 0.929 . S
H1551 C1561 0.929 . S
H1552 C1556 0.929 . S
H1553 C1562 0.929 . S
C1554 H1548 0.930 . S
C1554 C1555 1.367 . S
C1554 C1562 1.378 . S
C1555 C1554 1.367 . S
C1555 C1563 1.433 . S
C1556 H1552 0.929 . S
C1556 C1558 1.378 . S
C1556 C1560 1.350 . S
C1557 C1560 1.463 . S
C1557 C1562 1.350 . S
C1557 N1565 1.427 . S
C1558 H1549 0.930 . S
C1558 C1556 1.378 . S
C1558 C1559 1.367 . S
C1559 C1558 1.367 . S
C1559 C1561 1.433 . S
C1560 C1556 1.350 . S
C1560 C1557 1.463 . S
C1560 N1564 1.427 . S
C1561 H1551 0.929 . S
C1561 C1559 1.433 . S
C1561 N1564 1.384 . S
C1562 H1553 0.929 . S
C1562 C1554 1.378 . S
C1562 C1557 1.350 . S
C1563 H1550 0.929 . S
C1563 C1555 1.433 . S
C1563 N1565 1.384 . S
N1564 C1560 1.427 . S
N1564 C1561 1.384 . S
N1565 C1557 1.427 . S
N1565 C1563 1.384 . S
H1566 C1572 0.930 . S
H1567 C1576 0.930 . S
H1568 C1581 0.929 . S
H1569 C1579 0.929 . S
H1570 C1574 0.929 . S
H1571 C1580 0.929 . S
C1572 H1566 0.930 . S
C1572 C1573 1.367 . S
C1572 C1580 1.378 . S
C1573 C1572 1.367 . S
C1573 C1581 1.433 . S
C1574 H1570 0.929 . S
C1574 C1576 1.378 . S
C1574 C1578 1.350 . S
C1575 C1578 1.463 . S
C1575 C1580 1.350 . S
C1575 N1583 1.427 . S
C1576 H1567 0.930 . S
C1576 C1574 1.378 . S
C1576 C1577 1.367 . S
C1577 C1576 1.367 . S
C1577 C1579 1.433 . S
C1578 C1574 1.350 . S
C1578 C1575 1.463 . S
C1578 N1582 1.427 . S
C1579 H1569 0.929 . S
C1579 C1577 1.433 . S
C1579 N1582 1.384 . S
C1580 H1571 0.929 . S
C1580 C1572 1.378 . S
C1580 C1575 1.350 . S
C1581 H1568 0.929 . S
C1581 C1573 1.433 . S
C1581 N1583 1.384 . S
N1582 C1578 1.427 . S
N1582 C1579 1.384 . S
N1583 C1575 1.427 . S
N1583 C1581 1.384 . S
H1584 C1590 0.930 . S
H1585 C1594 0.930 . S
H1586 C1599 0.929 . S
H1587 C1597 0.929 . S
H1588 C1592 0.929 . S
H1589 C1598 0.929 . S
C1590 H1584 0.930 . S
C1590 C1591 1.367 . S
C1590 C1598 1.378 . S
C1591 C1590 1.367 . S
C1591 C1599 1.433 . S
C1592 H1588 0.929 . S
C1592 C1594 1.378 . S
C1592 C1596 1.350 . S
C1593 C1596 1.463 . S
C1593 C1598 1.350 . S
C1593 N1601 1.427 . S
C1594 H1585 0.930 . S
C1594 C1592 1.378 . S
C1594 C1595 1.367 . S
C1595 C1594 1.367 . S
C1595 C1597 1.433 . S
C1596 C1592 1.350 . S
C1596 C1593 1.463 . S
C1596 N1600 1.427 . S
C1597 H1587 0.929 . S
C1597 C1595 1.433 . S
C1597 N1600 1.384 . S
C1598 H1589 0.929 . S
C1598 C1590 1.378 . S
C1598 C1593 1.350 . S
C1599 H1586 0.929 . S
C1599 C1591 1.433 . S
C1599 N1601 1.384 . S
N1600 C1596 1.427 . S
N1600 C1597 1.384 . S
N1601 C1593 1.427 . S
N1601 C1599 1.384 . S
H1602 C1608 0.930 . S
H1603 C1612 0.930 . S
H1604 C1617 0.929 . S
H1605 C1615 0.929 . S
H1606 C1610 0.929 . S
H1607 C1616 0.929 . S
C1608 H1602 0.930 . S
C1608 C1609 1.367 . S
C1608 C1616 1.378 . S
C1609 C1608 1.367 . S
C1609 C1617 1.433 . S
C1610 H1606 0.929 . S
C1610 C1612 1.378 . S
C1610 C1614 1.350 . S
C1611 C1614 1.463 . S
C1611 C1616 1.350 . S
C1611 N1619 1.427 . S
C1612 H1603 0.930 . S
C1612 C1610 1.378 . S
C1612 C1613 1.367 . S
C1613 C1612 1.367 . S
C1613 C1615 1.433 . S
C1614 C1610 1.350 . S
C1614 C1611 1.463 . S
C1614 N1618 1.427 . S
C1615 H1605 0.929 . S
C1615 C1613 1.433 . S
C1615 N1618 1.384 . S
C1616 H1607 0.929 . S
C1616 C1608 1.378 . S
C1616 C1611 1.350 . S
C1617 H1604 0.929 . S
C1617 C1609 1.433 . S
C1617 N1619 1.384 . S
N1618 C1614 1.427 . S
N1618 C1615 1.384 . S
N1619 C1611 1.427 . S
N1619 C1617 1.384 . S
H1620 C1626 0.930 . S
H1621 C1630 0.930 . S
H1622 C1635 0.929 . S
H1623 C1633 0.929 . S
H1624 C1628 0.929 . S
H1625 C1634 0.929 . S
C1626 H1620 0.930 . S
C1626 C1627 1.367 . S
C1626 C1634 1.378 . S
C1627 C1626 1.367 . S
C1627 C1635 1.433 . S
C1628 H1624 0.929 . S
C1628 C1630 1.378 . S
C1628 C1632 1.350 . S
C1629 C1632 1.463 . S
C1629 C1634 1.350 . S
C1629 N1637 1.427 . S
C1630 H1621 0.930 . S
C1630 C1628 1.378 . S
C1630 C1631 1.367 . S
C1631 C1630 1.367 . S
C1631 C1633 1.433 . S
C1632 C1628 1.350 . S
C1632 C1629 1.463 . S
C1632 N1636 1.427 . S
C1633 H1623 0.929 . S
C1633 C1631 1.433 . S
C1633 N1636 1.384 . S
C1634 H1625 0.929 . S
C1634 C1626 1.378 . S
C1634 C1629 1.350 . S
C1635 H1622 0.929 . S
C1635 C1627 1.433 . S
C1635 N1637 1.384 . S
N1636 C1632 1.427 . S
N1636 C1633 1.384 . S
N1637 C1629 1.427 . S
N1637 C1635 1.384 . S
H1638 C1644 0.930 . S
H1639 C1648 0.930 . S
H1640 C1653 0.929 . S
H1641 C1651 0.929 . S
H1642 C1646 0.929 . S
H1643 C1652 0.929 . S
C1644 H1638 0.930 . S
C1644 C1645 1.367 . S
C1644 C1652 1.378 . S
C1645 C1644 1.367 . S
C1645 C1653 1.433 . S
C1646 H1642 0.929 . S
C1646 C1648 1.378 . S
C1646 C1650 1.350 . S
C1647 C1650 1.463 . S
C1647 C1652 1.350 . S
C1647 N1655 1.427 . S
C1648 H1639 0.930 . S
C1648 C1646 1.378 . S
C1648 C1649 1.367 . S
C1649 C1648 1.367 . S
C1649 C1651 1.433 . S
C1650 C1646 1.350 . S
C1650 C1647 1.463 . S
C1650 N1654 1.427 . S
C1651 H1641 0.929 . S
C1651 C1649 1.433 . S
C1651 N1654 1.384 . S
C1652 H1643 0.929 . S
C1652 C1644 1.378 . S
C1652 C1647 1.350 . S
C1653 H1640 0.929 . S
C1653 C1645 1.433 . S
C1653 N1655 1.384 . S
N1654 C1650 1.427 . S
N1654 C1651 1.384 . S
N1655 C1647 1.427 . S
N1655 C1653 1.384 . S
H1656 C1662 0.930 . S
H1657 C1666 0.930 . S
H1658 C1671 0.929 . S
H1659 C1669 0.929 . S
H1660 C1664 0.929 . S
H1661 C1670 0.929 . S
C1662 H1656 0.930 . S
C1662 C1663 1.367 . S
C1662 C1670 1.378 . S
C1663 C1662 1.367 . S
C1663 C1671 1.433 . S
C1664 H1660 0.929 . S
C1664 C1666 1.378 . S
C1664 C1668 1.350 . S
C1665 C1668 1.463 . S
C1665 C1670 1.350 . S
C1665 N1673 1.427 . S
C1666 H1657 0.930 . S
C1666 C1664 1.378 . S
C1666 C1667 1.367 . S
C1667 C1666 1.367 . S
C1667 C1669 1.433 . S
C1668 C1664 1.350 . S
C1668 C1665 1.463 . S
C1668 N1672 1.427 . S
C1669 H1659 0.929 . S
C1669 C1667 1.433 . S
C1669 N1672 1.384 . S
C1670 H1661 0.929 . S
C1670 C1662 1.378 . S
C1670 C1665 1.350 . S
C1671 H1658 0.929 . S
C1671 C1663 1.433 . S
C1671 N1673 1.384 . S
N1672 C1668 1.427 . S
N1672 C1669 1.384 . S
N1673 C1665 1.427 . S
N1673 C1671 1.384 . S
H1674 C1680 0.930 . S
H1675 C1684 0.930 . S
H1676 C1689 0.929 . S
H1677 C1687 0.929 . S
H1678 C1682 0.929 . S
H1679 C1688 0.929 . S
C1680 H1674 0.930 . S
C1680 C1681 1.367 . S
C1680 C1688 1.378 . S
C1681 C1680 1.367 . S
C1681 C1689 1.433 . S
C1682 H1678 0.929 . S
C1682 C1684 1.378 . S
C1682 C1686 1.350 . S
C1683 C1686 1.463 . S
C1683 C1688 1.350 . S
C1683 N1691 1.427 . S
C1684 H1675 0.930 . S
C1684 C1682 1.378 . S
C1684 C1685 1.367 . S
C1685 C1684 1.367 . S
C1685 C1687 1.433 . S
C1686 C1682 1.350 . S
C1686 C1683 1.463 . S
C1686 N1690 1.427 . S
C1687 H1677 0.929 . S
C1687 C1685 1.433 . S
C1687 N1690 1.384 . S
C1688 H1679 0.929 . S
C1688 C1680 1.378 . S
C1688 C1683 1.350 . S
C1689 H1676 0.929 . S
C1689 C1681 1.433 . S
C1689 N1691 1.384 . S
N1690 C1686 1.427 . S
N1690 C1687 1.384 . S
N1691 C1683 1.427 . S
N1691 C1689 1.384 . S
H1692 C1698 0.930 . S
H1693 C1702 0.930 . S
H1694 C1707 0.929 . S
H1695 C1705 0.929 . S
H1696 C1700 0.929 . S
H1697 C1706 0.929 . S
C1698 H1692 0.930 . S
C1698 C1699 1.367 . S
C1698 C1706 1.378 . S
C1699 C1698 1.367 . S
C1699 C1707 1.433 . S
C1700 H1696 0.929 . S
C1700 C1702 1.378 . S
C1700 C1704 1.350 . S
C1701 C1704 1.463 . S
C1701 C1706 1.350 . S
C1701 N1709 1.427 . S
C1702 H1693 0.930 . S
C1702 C1700 1.378 . S
C1702 C1703 1.367 . S
C1703 C1702 1.367 . S
C1703 C1705 1.433 . S
C1704 C1700 1.350 . S
C1704 C1701 1.463 . S
C1704 N1708 1.427 . S
C1705 H1695 0.929 . S
C1705 C1703 1.433 . S
C1705 N1708 1.384 . S
C1706 H1697 0.929 . S
C1706 C1698 1.378 . S
C1706 C1701 1.350 . S
C1707 H1694 0.929 . S
C1707 C1699 1.433 . S
C1707 N1709 1.384 . S
N1708 C1704 1.427 . S
N1708 C1705 1.384 . S
N1709 C1701 1.427 . S
N1709 C1707 1.384 . S
H1710 C1716 0.930 . S
H1711 C1720 0.930 . S
H1712 C1725 0.929 . S
H1713 C1723 0.929 . S
H1714 C1718 0.929 . S
H1715 C1724 0.929 . S
C1716 H1710 0.930 . S
C1716 C1717 1.367 . S
C1716 C1724 1.378 . S
C1717 C1716 1.367 . S
C1717 C1725 1.433 . S
C1718 H1714 0.929 . S
C1718 C1720 1.378 . S
C1718 C1722 1.350 . S
C1719 C1722 1.463 . S
C1719 C1724 1.350 . S
C1719 N1727 1.427 . S
C1720 H1711 0.930 . S
C1720 C1718 1.378 . S
C1720 C1721 1.367 . S
C1721 C1720 1.367 . S
C1721 C1723 1.433 . S
C1722 C1718 1.350 . S
C1722 C1719 1.463 . S
C1722 N1726 1.427 . S
C1723 H1713 0.929 . S
C1723 C1721 1.433 . S
C1723 N1726 1.384 . S
C1724 H1715 0.929 . S
C1724 C1716 1.378 . S
C1724 C1719 1.350 . S
C1725 H1712 0.929 . S
C1725 C1717 1.433 . S
C1725 N1727 1.384 . S
N1726 C1722 1.427 . S
N1726 C1723 1.384 . S
N1727 C1719 1.427 . S
N1727 C1725 1.384 . S
H1728 C1734 0.930 . S
H1729 C1738 0.930 . S
H1730 C1743 0.929 . S
H1731 C1741 0.929 . S
H1732 C1736 0.929 . S
H1733 C1742 0.929 . S
C1734 H1728 0.930 . S
C1734 C1735 1.367 . S
C1734 C1742 1.378 . S
C1735 C1734 1.367 . S
C1735 C1743 1.433 . S
C1736 H1732 0.929 . S
C1736 C1738 1.378 . S
C1736 C1740 1.350 . S
C1737 C1740 1.463 . S
C1737 C1742 1.350 . S
C1737 N1745 1.427 . S
C1738 H1729 0.930 . S
C1738 C1736 1.378 . S
C1738 C1739 1.367 . S
C1739 C1738 1.367 . S
C1739 C1741 1.433 . S
C1740 C1736 1.350 . S
C1740 C1737 1.463 . S
C1740 N1744 1.427 . S
C1741 H1731 0.929 . S
C1741 C1739 1.433 . S
C1741 N1744 1.384 . S
C1742 H1733 0.929 . S
C1742 C1734 1.378 . S
C1742 C1737 1.350 . S
C1743 H1730 0.929 . S
C1743 C1735 1.433 . S
C1743 N1745 1.384 . S
N1744 C1740 1.427 . S
N1744 C1741 1.384 . S
N1745 C1737 1.427 . S
N1745 C1743 1.384 . S
H1746 C1752 0.930 . S
H1747 C1756 0.930 . S
H1748 C1761 0.929 . S
H1749 C1759 0.929 . S
H1750 C1754 0.929 . S
H1751 C1760 0.929 . S
C1752 H1746 0.930 . S
C1752 C1753 1.367 . S
C1752 C1760 1.378 . S
C1753 C1752 1.367 . S
C1753 C1761 1.433 . S
C1754 H1750 0.929 . S
C1754 C1756 1.378 . S
C1754 C1758 1.350 . S
C1755 C1758 1.463 . S
C1755 C1760 1.350 . S
C1755 N1763 1.427 . S
C1756 H1747 0.930 . S
C1756 C1754 1.378 . S
C1756 C1757 1.367 . S
C1757 C1756 1.367 . S
C1757 C1759 1.433 . S
C1758 C1754 1.350 . S
C1758 C1755 1.463 . S
C1758 N1762 1.427 . S
C1759 H1749 0.929 . S
C1759 C1757 1.433 . S
C1759 N1762 1.384 . S
C1760 H1751 0.929 . S
C1760 C1752 1.378 . S
C1760 C1755 1.350 . S
C1761 H1748 0.929 . S
C1761 C1753 1.433 . S
C1761 N1763 1.384 . S
N1762 C1758 1.427 . S
N1762 C1759 1.384 . S
N1763 C1755 1.427 . S
N1763 C1761 1.384 . S
H1764 C1770 0.930 . S
H1765 C1774 0.930 . S
H1766 C1779 0.929 . S
H1767 C1777 0.929 . S
H1768 C1772 0.929 . S
H1769 C1778 0.929 . S
C1770 H1764 0.930 . S
C1770 C1771 1.367 . S
C1770 C1778 1.378 . S
C1771 C1770 1.367 . S
C1771 C1779 1.433 . S
C1772 H1768 0.929 . S
C1772 C1774 1.378 . S
C1772 C1776 1.350 . S
C1773 C1776 1.463 . S
C1773 C1778 1.350 . S
C1773 N1781 1.427 . S
C1774 H1765 0.930 . S
C1774 C1772 1.378 . S
C1774 C1775 1.367 . S
C1775 C1774 1.367 . S
C1775 C1777 1.433 . S
C1776 C1772 1.350 . S
C1776 C1773 1.463 . S
C1776 N1780 1.427 . S
C1777 H1767 0.929 . S
C1777 C1775 1.433 . S
C1777 N1780 1.384 . S
C1778 H1769 0.929 . S
C1778 C1770 1.378 . S
C1778 C1773 1.350 . S
C1779 H1766 0.929 . S
C1779 C1771 1.433 . S
C1779 N1781 1.384 . S
N1780 C1776 1.427 . S
N1780 C1777 1.384 . S
N1781 C1773 1.427 . S
N1781 C1779 1.384 . S
H1782 C1788 0.930 . S
H1783 C1792 0.930 . S
H1784 C1797 0.929 . S
H1785 C1795 0.929 . S
H1786 C1790 0.929 . S
H1787 C1796 0.929 . S
C1788 H1782 0.930 . S
C1788 C1789 1.367 . S
C1788 C1796 1.378 . S
C1789 C1788 1.367 . S
C1789 C1797 1.433 . S
C1790 H1786 0.929 . S
C1790 C1792 1.378 . S
C1790 C1794 1.350 . S
C1791 C1794 1.463 . S
C1791 C1796 1.350 . S
C1791 N1799 1.427 . S
C1792 H1783 0.930 . S
C1792 C1790 1.378 . S
C1792 C1793 1.367 . S
C1793 C1792 1.367 . S
C1793 C1795 1.433 . S
C1794 C1790 1.350 . S
C1794 C1791 1.463 . S
C1794 N1798 1.427 . S
C1795 H1785 0.929 . S
C1795 C1793 1.433 . S
C1795 N1798 1.384 . S
C1796 H1787 0.929 . S
C1796 C1788 1.378 . S
C1796 C1791 1.350 . S
C1797 H1784 0.929 . S
C1797 C1789 1.433 . S
C1797 N1799 1.384 . S
N1798 C1794 1.427 . S
N1798 C1795 1.384 . S
N1799 C1791 1.427 . S
N1799 C1797 1.384 . S
H1800 C1806 0.930 . S
H1801 C1810 0.930 . S
H1802 C1815 0.929 . S
H1803 C1813 0.929 . S
H1804 C1808 0.929 . S
H1805 C1814 0.929 . S
C1806 H1800 0.930 . S
C1806 C1807 1.367 . S
C1806 C1814 1.378 . S
C1807 C1806 1.367 . S
C1807 C1815 1.433 . S
C1808 H1804 0.929 . S
C1808 C1810 1.378 . S
C1808 C1812 1.350 . S
C1809 C1812 1.463 . S
C1809 C1814 1.350 . S
C1809 N1817 1.427 . S
C1810 H1801 0.930 . S
C1810 C1808 1.378 . S
C1810 C1811 1.367 . S
C1811 C1810 1.367 . S
C1811 C1813 1.433 . S
C1812 C1808 1.350 . S
C1812 C1809 1.463 . S
C1812 N1816 1.427 . S
C1813 H1803 0.929 . S
C1813 C1811 1.433 . S
C1813 N1816 1.384 . S
C1814 H1805 0.929 . S
C1814 C1806 1.378 . S
C1814 C1809 1.350 . S
C1815 H1802 0.929 . S
C1815 C1807 1.433 . S
C1815 N1817 1.384 . S
N1816 C1812 1.427 . S
N1816 C1813 1.384 . S
N1817 C1809 1.427 . S
N1817 C1815 1.384 . S
H1818 C1824 0.930 . S
H1819 C1828 0.930 . S
H1820 C1833 0.929 . S
H1821 C1831 0.929 . S
H1822 C1826 0.929 . S
H1823 C1832 0.929 . S
C1824 H1818 0.930 . S
C1824 C1825 1.367 . S
C1824 C1832 1.378 . S
C1825 C1824 1.367 . S
C1825 C1833 1.433 . S
C1826 H1822 0.929 . S
C1826 C1828 1.378 . S
C1826 C1830 1.350 . S
C1827 C1830 1.463 . S
C1827 C1832 1.350 . S
C1827 N1835 1.427 . S
C1828 H1819 0.930 . S
C1828 C1826 1.378 . S
C1828 C1829 1.367 . S
C1829 C1828 1.367 . S
C1829 C1831 1.433 . S
C1830 C1826 1.350 . S
C1830 C1827 1.463 . S
C1830 N1834 1.427 . S
C1831 H1821 0.929 . S
C1831 C1829 1.433 . S
C1831 N1834 1.384 . S
C1832 H1823 0.929 . S
C1832 C1824 1.378 . S
C1832 C1827 1.350 . S
C1833 H1820 0.929 . S
C1833 C1825 1.433 . S
C1833 N1835 1.384 . S
N1834 C1830 1.427 . S
N1834 C1831 1.384 . S
N1835 C1827 1.427 . S
N1835 C1833 1.384 . S
H1836 C1842 0.930 . S
H1837 C1846 0.930 . S
H1838 C1851 0.929 . S
H1839 C1849 0.929 . S
H1840 C1844 0.929 . S
H1841 C1850 0.929 . S
C1842 H1836 0.930 . S
C1842 C1843 1.367 . S
C1842 C1850 1.378 . S
C1843 C1842 1.367 . S
C1843 C1851 1.433 . S
C1844 H1840 0.929 . S
C1844 C1846 1.378 . S
C1844 C1848 1.350 . S
C1845 C1848 1.463 . S
C1845 C1850 1.350 . S
C1845 N1853 1.427 . S
C1846 H1837 0.930 . S
C1846 C1844 1.378 . S
C1846 C1847 1.367 . S
C1847 C1846 1.367 . S
C1847 C1849 1.433 . S
C1848 C1844 1.350 . S
C1848 C1845 1.463 . S
C1848 N1852 1.427 . S
C1849 H1839 0.929 . S
C1849 C1847 1.433 . S
C1849 N1852 1.384 . S
C1850 H1841 0.929 . S
C1850 C1842 1.378 . S
C1850 C1845 1.350 . S
C1851 H1838 0.929 . S
C1851 C1843 1.433 . S
C1851 N1853 1.384 . S
N1852 C1848 1.427 . S
N1852 C1849 1.384 . S
N1853 C1845 1.427 . S
N1853 C1851 1.384 . S
H1854 C1860 0.930 . S
H1855 C1864 0.930 . S
H1856 C1869 0.929 . S
H1857 C1867 0.929 . S
H1858 C1862 0.929 . S
H1859 C1868 0.929 . S
C1860 H1854 0.930 . S
C1860 C1861 1.367 1_565 S
C1860 C1868 1.378 . S
C1861 C1860 1.367 1_545 S
C1861 C1869 1.433 . S
C1862 H1858 0.929 . S
C1862 C1864 1.378 . S
C1862 C1866 1.350 1_545 S
C1863 C1866 1.463 1_545 S
C1863 C1868 1.350 1_545 S
C1863 N1871 1.427 . S
C1864 H1855 0.930 . S
C1864 C1862 1.378 . S
C1864 C1865 1.367 1_545 S
C1865 C1864 1.367 1_565 S
C1865 C1867 1.433 . S
C1866 C1862 1.350 1_565 S
C1866 C1863 1.463 1_565 S
C1866 N1870 1.427 . S
C1867 H1857 0.929 . S
C1867 C1865 1.433 . S
C1867 N1870 1.384 . S
C1868 H1859 0.929 . S
C1868 C1860 1.378 . S
C1868 C1863 1.350 1_565 S
C1869 H1856 0.929 . S
C1869 C1861 1.433 . S
C1869 N1871 1.384 . S
N1870 C1866 1.427 . S
N1870 C1867 1.384 . S
N1871 C1863 1.427 . S
N1871 C1869 1.384 . S
H1872 C1878 0.930 . S
H1873 C1882 0.930 . S
H1874 C1887 0.929 . S
H1875 C1885 0.929 . S
H1876 C1880 0.929 . S
H1877 C1886 0.929 . S
C1878 H1872 0.930 . S
C1878 C1879 1.367 1_455 S
C1878 C1886 1.378 . S
C1879 C1878 1.367 1_655 S
C1879 C1887 1.433 . S
C1880 H1876 0.929 . S
C1880 C1882 1.378 . S
C1880 C1884 1.350 1_655 S
C1881 C1884 1.463 1_655 S
C1881 C1886 1.350 1_655 S
C1881 N1889 1.427 . S
C1882 H1873 0.930 . S
C1882 C1880 1.378 . S
C1882 C1883 1.367 1_655 S
C1883 C1882 1.367 1_455 S
C1883 C1885 1.433 . S
C1884 C1880 1.350 1_455 S
C1884 C1881 1.463 1_455 S
C1884 N1888 1.427 . S
C1885 H1875 0.929 . S
C1885 C1883 1.433 . S
C1885 N1888 1.384 . S
C1886 H1877 0.929 . S
C1886 C1878 1.378 . S
C1886 C1881 1.350 1_455 S
C1887 H1874 0.929 . S
C1887 C1879 1.433 . S
C1887 N1889 1.384 . S
N1888 C1884 1.427 . S
N1888 C1885 1.384 . S
N1889 C1881 1.427 . S
N1889 C1887 1.384 . S
H1890 C1896 0.930 . S
H1891 C1900 0.930 . S
H1892 C1905 0.929 . S
H1893 C1903 0.929 . S
H1894 C1898 0.929 . S
H1895 C1904 0.929 . S
C1896 H1890 0.930 . S
C1896 C1897 1.367 . S
C1896 C1904 1.378 . S
C1897 C1896 1.367 . S
C1897 C1905 1.433 . S
C1898 H1894 0.929 . S
C1898 C1900 1.378 . S
C1898 C1902 1.350 . S
C1899 C1902 1.463 . S
C1899 C1904 1.350 . S
C1899 N1907 1.427 . S
C1900 H1891 0.930 . S
C1900 C1898 1.378 . S
C1900 C1901 1.367 . S
C1901 C1900 1.367 . S
C1901 C1903 1.433 . S
C1902 C1898 1.350 . S
C1902 C1899 1.463 . S
C1902 N1906 1.427 . S
C1903 H1893 0.929 . S
C1903 C1901 1.433 . S
C1903 N1906 1.384 . S
C1904 H1895 0.929 . S
C1904 C1896 1.378 . S
C1904 C1899 1.350 . S
C1905 H1892 0.929 . S
C1905 C1897 1.433 . S
C1905 N1907 1.384 . S
N1906 C1902 1.427 . S
N1906 C1903 1.384 . S
N1907 C1899 1.427 . S
N1907 C1905 1.384 . S
H1908 C1914 0.930 . S
H1909 C1918 0.930 . S
H1910 C1923 0.929 . S
H1911 C1921 0.929 . S
H1912 C1916 0.929 . S
H1913 C1922 0.929 . S
C1914 H1908 0.930 . S
C1914 C1915 1.367 . S
C1914 C1922 1.378 . S
C1915 C1914 1.367 . S
C1915 C1923 1.433 . S
C1916 H1912 0.929 . S
C1916 C1918 1.378 . S
C1916 C1920 1.350 . S
C1917 C1920 1.463 1_545 S
C1917 C1922 1.350 . S
C1917 N1925 1.427 1_545 S
C1918 H1909 0.930 . S
C1918 C1916 1.378 . S
C1918 C1919 1.367 . S
C1919 C1918 1.367 . S
C1919 C1921 1.433 . S
C1920 C1916 1.350 . S
C1920 C1917 1.463 1_565 S
C1920 N1924 1.427 1_565 S
C1921 H1911 0.929 . S
C1921 C1919 1.433 . S
C1921 N1924 1.384 1_565 S
C1922 H1913 0.929 . S
C1922 C1914 1.378 . S
C1922 C1917 1.350 . S
C1923 H1910 0.929 . S
C1923 C1915 1.433 . S
C1923 N1925 1.384 1_545 S
N1924 C1920 1.427 1_545 S
N1924 C1921 1.384 1_545 S
N1925 C1917 1.427 1_565 S
N1925 C1923 1.384 1_565 S
H1926 C1932 0.930 . S
H1927 C1936 0.930 . S
H1928 C1941 0.929 . S
H1929 C1939 0.929 . S
H1930 C1934 0.929 . S
H1931 C1940 0.929 . S
C1932 H1926 0.930 . S
C1932 C1933 1.367 . S
C1932 C1940 1.378 . S
C1933 C1932 1.367 . S
C1933 C1941 1.433 . S
C1934 H1930 0.929 . S
C1934 C1936 1.378 . S
C1934 C1938 1.350 . S
C1935 C1938 1.463 1_655 S
C1935 C1940 1.350 . S
C1935 N1943 1.427 1_655 S
C1936 H1927 0.930 . S
C1936 C1934 1.378 . S
C1936 C1937 1.367 . S
C1937 C1936 1.367 . S
C1937 C1939 1.433 . S
C1938 C1934 1.350 . S
C1938 C1935 1.463 1_455 S
C1938 N1942 1.427 1_455 S
C1939 H1929 0.929 . S
C1939 C1937 1.433 . S
C1939 N1942 1.384 1_455 S
C1940 H1931 0.929 . S
C1940 C1932 1.378 . S
C1940 C1935 1.350 . S
C1941 H1928 0.929 . S
C1941 C1933 1.433 . S
C1941 N1943 1.384 1_655 S
N1942 C1938 1.427 1_655 S
N1942 C1939 1.384 1_655 S
N1943 C1935 1.427 1_455 S
N1943 C1941 1.384 1_455 S
H1944 C1950 0.930 . S
H1945 C1954 0.930 . S
H1946 C1959 0.929 . S
H1947 C1957 0.929 . S
H1948 C1952 0.929 . S
H1949 C1958 0.929 . S
C1950 H1944 0.930 . S
C1950 C1951 1.367 . S
C1950 C1958 1.378 . S
C1951 C1950 1.367 . S
C1951 C1959 1.433 . S
C1952 H1948 0.929 . S
C1952 C1954 1.378 . S
C1952 C1956 1.350 . S
C1953 C1956 1.463 . S
C1953 C1958 1.350 . S
C1953 N1961 1.427 . S
C1954 H1945 0.930 . S
C1954 C1952 1.378 . S
C1954 C1955 1.367 . S
C1955 C1954 1.367 . S
C1955 C1957 1.433 . S
C1956 C1952 1.350 . S
C1956 C1953 1.463 . S
C1956 N1960 1.427 . S
C1957 H1947 0.929 . S
C1957 C1955 1.433 . S
C1957 N1960 1.384 . S
C1958 H1949 0.929 . S
C1958 C1950 1.378 . S
C1958 C1953 1.350 . S
C1959 H1946 0.929 . S
C1959 C1951 1.433 . S
C1959 N1961 1.384 . S
N1960 C1956 1.427 . S
N1960 C1957 1.384 . S
N1961 C1953 1.427 . S
N1961 C1959 1.384 . S
H1962 C1968 0.930 . S
H1963 C1972 0.930 . S
H1964 C1977 0.929 . S
H1965 C1975 0.929 . S
H1966 C1970 0.929 . S
H1967 C1976 0.929 . S
C1968 H1962 0.930 . S
C1968 C1969 1.367 . S
C1968 C1976 1.378 . S
C1969 C1968 1.367 . S
C1969 C1977 1.433 . S
C1970 H1966 0.929 . S
C1970 C1972 1.378 . S
C1970 C1974 1.350 . S
C1971 C1974 1.463 . S
C1971 C1976 1.350 . S
C1971 N1979 1.427 . S
C1972 H1963 0.930 . S
C1972 C1970 1.378 . S
C1972 C1973 1.367 . S
C1973 C1972 1.367 . S
C1973 C1975 1.433 . S
C1974 C1970 1.350 . S
C1974 C1971 1.463 . S
C1974 N1978 1.427 . S
C1975 H1965 0.929 . S
C1975 C1973 1.433 . S
C1975 N1978 1.384 . S
C1976 H1967 0.929 . S
C1976 C1968 1.378 . S
C1976 C1971 1.350 . S
C1977 H1964 0.929 . S
C1977 C1969 1.433 . S
C1977 N1979 1.384 . S
N1978 C1974 1.427 . S
N1978 C1975 1.384 . S
N1979 C1971 1.427 . S
N1979 C1977 1.384 . S
H1980 C1986 0.930 . S
H1981 C1990 0.930 . S
H1982 C1995 0.929 . S
H1983 C1993 0.929 . S
H1984 C1988 0.929 . S
H1985 C1994 0.929 . S
C1986 H1980 0.930 . S
C1986 C1987 1.367 . S
C1986 C1994 1.378 . S
C1987 C1986 1.367 . S
C1987 C1995 1.433 . S
C1988 H1984 0.929 . S
C1988 C1990 1.378 . S
C1988 C1992 1.350 . S
C1989 C1992 1.463 . S
C1989 C1994 1.350 . S
C1989 N1997 1.427 . S
C1990 H1981 0.930 . S
C1990 C1988 1.378 . S
C1990 C1991 1.367 . S
C1991 C1990 1.367 . S
C1991 C1993 1.433 . S
C1992 C1988 1.350 . S
C1992 C1989 1.463 . S
C1992 N1996 1.427 . S
C1993 H1983 0.929 . S
C1993 C1991 1.433 . S
C1993 N1996 1.384 . S
C1994 H1985 0.929 . S
C1994 C1986 1.378 . S
C1994 C1989 1.350 . S
C1995 H1982 0.929 . S
C1995 C1987 1.433 . S
C1995 N1997 1.384 . S
N1996 C1992 1.427 . S
N1996 C1993 1.384 . S
N1997 C1989 1.427 . S
N1997 C1995 1.384 . S
H1998 C2004 0.930 . S
H1999 C2008 0.930 . S
H2000 C2013 0.929 . S
H2001 C2011 0.929 . S
H2002 C2006 0.929 . S
H2003 C2012 0.929 . S
C2004 H1998 0.930 . S
C2004 C2005 1.367 . S
C2004 C2012 1.378 . S
C2005 C2004 1.367 . S
C2005 C2013 1.433 . S
C2006 H2002 0.929 . S
C2006 C2008 1.378 . S
C2006 C2010 1.350 . S
C2007 C2010 1.463 . S
C2007 C2012 1.350 . S
C2007 N2015 1.427 . S
C2008 H1999 0.930 . S
C2008 C2006 1.378 . S
C2008 C2009 1.367 1_554 S
C2009 C2008 1.367 1_556 S
C2009 C2011 1.433 1_556 S
C2010 C2006 1.350 . S
C2010 C2007 1.463 . S
C2010 N2014 1.427 . S
C2011 H2001 0.929 . S
C2011 C2009 1.433 1_554 S
C2011 N2014 1.384 . S
C2012 H2003 0.929 . S
C2012 C2004 1.378 . S
C2012 C2007 1.350 . S
C2013 H2000 0.929 . S
C2013 C2005 1.433 . S
C2013 N2015 1.384 . S
N2014 C2010 1.427 . S
N2014 C2011 1.384 . S
N2015 C2007 1.427 . S
N2015 C2013 1.384 . S
H2016 C2022 0.930 1_556 S
H2017 C2026 0.930 . S
H2018 C2031 0.929 . S
H2019 C2029 0.929 . S
H2020 C2024 0.929 . S
H2021 C2030 0.929 . S
C2022 H2016 0.930 1_554 S
C2022 C2023 1.367 1_554 S
C2022 C2030 1.378 . S
C2023 C2022 1.367 1_556 S
C2023 C2031 1.433 1_556 S
C2024 H2020 0.929 . S
C2024 C2026 1.378 . S
C2024 C2028 1.350 . S
C2025 C2028 1.463 . S
C2025 C2030 1.350 . S
C2025 N2033 1.427 . S
C2026 H2017 0.930 . S
C2026 C2024 1.378 . S
C2026 C2027 1.367 . S
C2027 C2026 1.367 . S
C2027 C2029 1.433 . S
C2028 C2024 1.350 . S
C2028 C2025 1.463 . S
C2028 N2032 1.427 . S
C2029 H2019 0.929 . S
C2029 C2027 1.433 . S
C2029 N2032 1.384 . S
C2030 H2021 0.929 . S
C2030 C2022 1.378 . S
C2030 C2025 1.350 . S
C2031 H2018 0.929 . S
C2031 C2023 1.433 1_554 S
C2031 N2033 1.384 . S
N2032 C2028 1.427 . S
N2032 C2029 1.384 . S
N2033 C2025 1.427 . S
N2033 C2031 1.384 . S
H2034 C2040 0.930 . S
H2035 C2044 0.930 . S
H2036 C2049 0.929 . S
H2037 C2047 0.929 . S
H2038 C2042 0.929 . S
H2039 C2048 0.929 . S
C2040 H2034 0.930 . S
C2040 C2041 1.367 1_554 S
C2040 C2048 1.378 . S
C2041 C2040 1.367 1_556 S
C2041 C2049 1.433 1_556 S
C2042 H2038 0.929 . S
C2042 C2044 1.378 . S
C2042 C2046 1.350 . S
C2043 C2046 1.463 . S
C2043 C2048 1.350 . S
C2043 N2051 1.427 . S
C2044 H2035 0.930 . S
C2044 C2042 1.378 . S
C2044 C2045 1.367 . S
C2045 C2044 1.367 . S
C2045 C2047 1.433 . S
C2046 C2042 1.350 . S
C2046 C2043 1.463 . S
C2046 N2050 1.427 . S
C2047 H2037 0.929 . S
C2047 C2045 1.433 . S
C2047 N2050 1.384 . S
C2048 H2039 0.929 . S
C2048 C2040 1.378 . S
C2048 C2043 1.350 . S
C2049 H2036 0.929 . S
C2049 C2041 1.433 1_554 S
C2049 N2051 1.384 . S
N2050 C2046 1.427 . S
N2050 C2047 1.384 . S
N2051 C2043 1.427 . S
N2051 C2049 1.384 . S
H2052 C2058 0.930 . S
H2053 C2062 0.930 . S
H2054 C2067 0.929 1_554 S
H2055 C2065 0.929 . S
H2056 C2060 0.929 . S
H2057 C2066 0.929 . S
C2058 H2052 0.930 . S
C2058 C2059 1.367 1_556 S
C2058 C2066 1.378 . S
C2059 C2058 1.367 1_554 S
C2059 C2067 1.433 1_554 S
C2060 H2056 0.929 . S
C2060 C2062 1.378 . S
C2060 C2064 1.350 . S
C2061 C2064 1.463 . S
C2061 C2066 1.350 . S
C2061 N2069 1.427 . S
C2062 H2053 0.930 . S
C2062 C2060 1.378 . S
C2062 C2063 1.367 . S
C2063 C2062 1.367 . S
C2063 C2065 1.433 . S
C2064 C2060 1.350 . S
C2064 C2061 1.463 . S
C2064 N2068 1.427 . S
C2065 H2055 0.929 . S
C2065 C2063 1.433 . S
C2065 N2068 1.384 . S
C2066 H2057 0.929 . S
C2066 C2058 1.378 . S
C2066 C2061 1.350 . S
C2067 H2054 0.929 1_556 S
C2067 C2059 1.433 1_556 S
C2067 N2069 1.384 . S
N2068 C2064 1.427 . S
N2068 C2065 1.384 . S
N2069 C2061 1.427 . S
N2069 C2067 1.384 . S
H2070 C2076 0.930 . S
H2071 C2080 0.930 . S
H2072 C2085 0.929 1_554 S
H2073 C2083 0.929 . S
H2074 C2078 0.929 . S
H2075 C2084 0.929 . S
C2076 H2070 0.930 . S
C2076 C2077 1.367 1_556 S
C2076 C2084 1.378 . S
C2077 C2076 1.367 1_554 S
C2077 C2085 1.433 1_554 S
C2078 H2074 0.929 . S
C2078 C2080 1.378 . S
C2078 C2082 1.350 . S
C2079 C2082 1.463 . S
C2079 C2084 1.350 . S
C2079 N2087 1.427 . S
C2080 H2071 0.930 . S
C2080 C2078 1.378 . S
C2080 C2081 1.367 . S
C2081 C2080 1.367 . S
C2081 C2083 1.433 . S
C2082 C2078 1.350 . S
C2082 C2079 1.463 . S
C2082 N2086 1.427 . S
C2083 H2073 0.929 . S
C2083 C2081 1.433 . S
C2083 N2086 1.384 . S
C2084 H2075 0.929 . S
C2084 C2076 1.378 . S
C2084 C2079 1.350 . S
C2085 H2072 0.929 1_556 S
C2085 C2077 1.433 1_556 S
C2085 N2087 1.384 . S
N2086 C2082 1.427 . S
N2086 C2083 1.384 . S
N2087 C2079 1.427 . S
N2087 C2085 1.384 . S
H2088 C2094 0.930 . S
H2089 C2098 0.930 . S
H2090 C2103 0.929 . S
H2091 C2101 0.929 . S
H2092 C2096 0.929 . S
H2093 C2102 0.929 . S
C2094 H2088 0.930 . S
C2094 C2095 1.367 1_556 S
C2094 C2102 1.378 . S
C2095 C2094 1.367 1_554 S
C2095 C2103 1.433 1_554 S
C2096 H2092 0.929 . S
C2096 C2098 1.378 . S
C2096 C2100 1.350 . S
C2097 C2100 1.463 . S
C2097 C2102 1.350 . S
C2097 N2105 1.427 . S
C2098 H2089 0.930 . S
C2098 C2096 1.378 . S
C2098 C2099 1.367 . S
C2099 C2098 1.367 . S
C2099 C2101 1.433 . S
C2100 C2096 1.350 . S
C2100 C2097 1.463 . S
C2100 N2104 1.427 . S
C2101 H2091 0.929 . S
C2101 C2099 1.433 . S
C2101 N2104 1.384 . S
C2102 H2093 0.929 . S
C2102 C2094 1.378 . S
C2102 C2097 1.350 . S
C2103 H2090 0.929 . S
C2103 C2095 1.433 1_556 S
C2103 N2105 1.384 . S
N2104 C2100 1.427 . S
N2104 C2101 1.384 . S
N2105 C2097 1.427 . S
N2105 C2103 1.384 . S
H2106 C2112 0.930 . S
H2107 C2116 0.930 . S
H2108 C2121 0.929 . S
H2109 C2119 0.929 . S
H2110 C2114 0.929 . S
H2111 C2120 0.929 . S
C2112 H2106 0.930 . S
C2112 C2113 1.367 . S
C2112 C2120 1.378 . S
C2113 C2112 1.367 . S
C2113 C2121 1.433 . S
C2114 H2110 0.929 . S
C2114 C2116 1.378 . S
C2114 C2118 1.350 . S
C2115 C2118 1.463 . S
C2115 C2120 1.350 . S
C2115 N2123 1.427 . S
C2116 H2107 0.930 . S
C2116 C2114 1.378 . S
C2116 C2117 1.367 . S
C2117 C2116 1.367 . S
C2117 C2119 1.433 . S
C2118 C2114 1.350 . S
C2118 C2115 1.463 . S
C2118 N2122 1.427 . S
C2119 H2109 0.929 . S
C2119 C2117 1.433 . S
C2119 N2122 1.384 . S
C2120 H2111 0.929 . S
C2120 C2112 1.378 . S
C2120 C2115 1.350 . S
C2121 H2108 0.929 . S
C2121 C2113 1.433 . S
C2121 N2123 1.384 . S
N2122 C2118 1.427 . S
N2122 C2119 1.384 . S
N2123 C2115 1.427 . S
N2123 C2121 1.384 . S
H2124 C2130 0.930 . S
H2125 C2134 0.930 . S
H2126 C2139 0.929 . S
H2127 C2137 0.929 . S
H2128 C2132 0.929 . S
H2129 C2138 0.929 . S
C2130 H2124 0.930 . S
C2130 C2131 1.367 . S
C2130 C2138 1.378 . S
C2131 C2130 1.367 . S
C2131 C2139 1.433 . S
C2132 H2128 0.929 . S
C2132 C2134 1.378 . S
C2132 C2136 1.350 . S
C2133 C2136 1.463 . S
C2133 C2138 1.350 . S
C2133 N2141 1.427 . S
C2134 H2125 0.930 . S
C2134 C2132 1.378 . S
C2134 C2135 1.367 . S
C2135 C2134 1.367 . S
C2135 C2137 1.433 . S
C2136 C2132 1.350 . S
C2136 C2133 1.463 . S
C2136 N2140 1.427 . S
C2137 H2127 0.929 . S
C2137 C2135 1.433 . S
C2137 N2140 1.384 . S
C2138 H2129 0.929 . S
C2138 C2130 1.378 . S
C2138 C2133 1.350 . S
C2139 H2126 0.929 . S
C2139 C2131 1.433 . S
C2139 N2141 1.384 . S
N2140 C2136 1.427 . S
N2140 C2137 1.384 . S
N2141 C2133 1.427 . S
N2141 C2139 1.384 . S
H2142 C2148 0.930 . S
H2143 C2152 0.930 . S
H2144 C2157 0.929 . S
H2145 C2155 0.929 . S
H2146 C2150 0.929 . S
H2147 C2156 0.929 . S
C2148 H2142 0.930 . S
C2148 C2149 1.367 . S
C2148 C2156 1.378 . S
C2149 C2148 1.367 . S
C2149 C2157 1.433 . S
C2150 H2146 0.929 . S
C2150 C2152 1.378 . S
C2150 C2154 1.350 . S
C2151 C2154 1.463 . S
C2151 C2156 1.350 . S
C2151 N2159 1.427 . S
C2152 H2143 0.930 . S
C2152 C2150 1.378 . S
C2152 C2153 1.367 . S
C2153 C2152 1.367 . S
C2153 C2155 1.433 . S
C2154 C2150 1.350 . S
C2154 C2151 1.463 . S
C2154 N2158 1.427 . S
C2155 H2145 0.929 . S
C2155 C2153 1.433 . S
C2155 N2158 1.384 . S
C2156 H2147 0.929 . S
C2156 C2148 1.378 . S
C2156 C2151 1.350 . S
C2157 H2144 0.929 . S
C2157 C2149 1.433 . S
C2157 N2159 1.384 . S
N2158 C2154 1.427 . S
N2158 C2155 1.384 . S
N2159 C2151 1.427 . S
N2159 C2157 1.384 . S
H2160 C2166 0.930 . S
H2161 C2170 0.930 . S
H2162 C2175 0.929 . S
H2163 C2173 0.929 . S
H2164 C2168 0.929 . S
H2165 C2174 0.929 . S
C2166 H2160 0.930 . S
C2166 C2167 1.367 . S
C2166 C2174 1.378 . S
C2167 C2166 1.367 . S
C2167 C2175 1.433 . S
C2168 H2164 0.929 . S
C2168 C2170 1.378 . S
C2168 C2172 1.350 . S
C2169 C2172 1.463 . S
C2169 C2174 1.350 . S
C2169 N2177 1.427 . S
C2170 H2161 0.930 . S
C2170 C2168 1.378 . S
C2170 C2171 1.367 . S
C2171 C2170 1.367 . S
C2171 C2173 1.433 . S
C2172 C2168 1.350 . S
C2172 C2169 1.463 . S
C2172 N2176 1.427 . S
C2173 H2163 0.929 . S
C2173 C2171 1.433 . S
C2173 N2176 1.384 . S
C2174 H2165 0.929 . S
C2174 C2166 1.378 . S
C2174 C2169 1.350 . S
C2175 H2162 0.929 . S
C2175 C2167 1.433 . S
C2175 N2177 1.384 . S
N2176 C2172 1.427 . S
N2176 C2173 1.384 . S
N2177 C2169 1.427 . S
N2177 C2175 1.384 . S
H2178 C2184 0.930 . S
H2179 C2188 0.930 . S
H2180 C2193 0.929 . S
H2181 C2191 0.929 1_554 S
H2182 C2186 0.929 . S
H2183 C2192 0.929 . S
C2184 H2178 0.930 . S
C2184 C2185 1.367 . S
C2184 C2192 1.378 . S
C2185 C2184 1.367 . S
C2185 C2193 1.433 . S
C2186 H2182 0.929 . S
C2186 C2188 1.378 . S
C2186 C2190 1.350 . S
C2187 C2190 1.463 . S
C2187 C2192 1.350 . S
C2187 N2195 1.427 . S
C2188 H2179 0.930 . S
C2188 C2186 1.378 . S
C2188 C2189 1.367 . S
C2189 C2188 1.367 . S
C2189 C2191 1.433 . S
C2190 C2186 1.350 . S
C2190 C2187 1.463 . S
C2190 N2194 1.427 . S
C2191 H2181 0.929 1_556 S
C2191 C2189 1.433 . S
C2191 N2194 1.384 . S
C2192 H2183 0.929 . S
C2192 C2184 1.378 . S
C2192 C2187 1.350 . S
C2193 H2180 0.929 . S
C2193 C2185 1.433 . S
C2193 N2195 1.384 . S
N2194 C2190 1.427 . S
N2194 C2191 1.384 . S
N2195 C2187 1.427 . S
N2195 C2193 1.384 . S
H2196 C2202 0.930 . S
H2197 C2206 0.930 . S
H2198 C2211 0.929 1_554 S
H2199 C2209 0.929 . S
H2200 C2204 0.929 . S
H2201 C2210 0.929 . S
C2202 H2196 0.930 . S
C2202 C2203 1.367 . S
C2202 C2210 1.378 . S
C2203 C2202 1.367 . S
C2203 C2211 1.433 . S
C2204 H2200 0.929 . S
C2204 C2206 1.378 . S
C2204 C2208 1.350 . S
C2205 C2208 1.463 . S
C2205 C2210 1.350 . S
C2205 N2213 1.427 . S
C2206 H2197 0.930 . S
C2206 C2204 1.378 . S
C2206 C2207 1.367 . S
C2207 C2206 1.367 . S
C2207 C2209 1.433 . S
C2208 C2204 1.350 . S
C2208 C2205 1.463 . S
C2208 N2212 1.427 . S
C2209 H2199 0.929 . S
C2209 C2207 1.433 . S
C2209 N2212 1.384 . S
C2210 H2201 0.929 . S
C2210 C2202 1.378 . S
C2210 C2205 1.350 . S
C2211 H2198 0.929 1_556 S
C2211 C2203 1.433 . S
C2211 N2213 1.384 . S
N2212 C2208 1.427 . S
N2212 C2209 1.384 . S
N2213 C2205 1.427 . S
N2213 C2211 1.384 . S
H2214 C2220 0.930 . S
H2215 C2224 0.930 . S
H2216 C2229 0.929 . S
H2217 C2227 0.929 . S
H2218 C2222 0.929 . S
H2219 C2228 0.929 . S
C2220 H2214 0.930 . S
C2220 C2221 1.367 . S
C2220 C2228 1.378 . S
C2221 C2220 1.367 . S
C2221 C2229 1.433 . S
C2222 H2218 0.929 . S
C2222 C2224 1.378 . S
C2222 C2226 1.350 . S
C2223 C2226 1.463 . S
C2223 C2228 1.350 . S
C2223 N2231 1.427 . S
C2224 H2215 0.930 . S
C2224 C2222 1.378 . S
C2224 C2225 1.367 . S
C2225 C2224 1.367 . S
C2225 C2227 1.433 . S
C2226 C2222 1.350 . S
C2226 C2223 1.463 . S
C2226 N2230 1.427 . S
C2227 H2217 0.929 . S
C2227 C2225 1.433 . S
C2227 N2230 1.384 . S
C2228 H2219 0.929 . S
C2228 C2220 1.378 . S
C2228 C2223 1.350 . S
C2229 H2216 0.929 . S
C2229 C2221 1.433 . S
C2229 N2231 1.384 . S
N2230 C2226 1.427 . S
N2230 C2227 1.384 . S
N2231 C2223 1.427 . S
N2231 C2229 1.384 . S
H2232 C2238 0.930 . S
H2233 C2242 0.930 . S
H2234 C2247 0.929 . S
H2235 C2245 0.929 . S
H2236 C2240 0.929 . S
H2237 C2246 0.929 . S
C2238 H2232 0.930 . S
C2238 C2239 1.367 . S
C2238 C2246 1.378 . S
C2239 C2238 1.367 . S
C2239 C2247 1.433 . S
C2240 H2236 0.929 . S
C2240 C2242 1.378 . S
C2240 C2244 1.350 . S
C2241 C2244 1.463 . S
C2241 C2246 1.350 . S
C2241 N2249 1.427 . S
C2242 H2233 0.930 . S
C2242 C2240 1.378 . S
C2242 C2243 1.367 . S
C2243 C2242 1.367 . S
C2243 C2245 1.433 . S
C2244 C2240 1.350 . S
C2244 C2241 1.463 . S
C2244 N2248 1.427 . S
C2245 H2235 0.929 . S
C2245 C2243 1.433 . S
C2245 N2248 1.384 . S
C2246 H2237 0.929 . S
C2246 C2238 1.378 . S
C2246 C2241 1.350 . S
C2247 H2234 0.929 . S
C2247 C2239 1.433 . S
C2247 N2249 1.384 . S
N2248 C2244 1.427 . S
N2248 C2245 1.384 . S
N2249 C2241 1.427 . S
N2249 C2247 1.384 . S
H2250 C2256 0.930 . S
H2251 C2260 0.930 . S
H2252 C2265 0.929 . S
H2253 C2263 0.929 . S
H2254 C2258 0.929 . S
H2255 C2264 0.929 . S
C2256 H2250 0.930 . S
C2256 C2257 1.367 . S
C2256 C2264 1.378 . S
C2257 C2256 1.367 . S
C2257 C2265 1.433 . S
C2258 H2254 0.929 . S
C2258 C2260 1.378 . S
C2258 C2262 1.350 . S
C2259 C2262 1.463 . S
C2259 C2264 1.350 . S
C2259 N2267 1.427 . S
C2260 H2251 0.930 . S
C2260 C2258 1.378 . S
C2260 C2261 1.367 . S
C2261 C2260 1.367 . S
C2261 C2263 1.433 . S
C2262 C2258 1.350 . S
C2262 C2259 1.463 . S
C2262 N2266 1.427 . S
C2263 H2253 0.929 . S
C2263 C2261 1.433 . S
C2263 N2266 1.384 . S
C2264 H2255 0.929 . S
C2264 C2256 1.378 . S
C2264 C2259 1.350 . S
C2265 H2252 0.929 . S
C2265 C2257 1.433 . S
C2265 N2267 1.384 . S
N2266 C2262 1.427 . S
N2266 C2263 1.384 . S
N2267 C2259 1.427 . S
N2267 C2265 1.384 . S
H2268 C2274 0.930 . S
H2269 C2278 0.930 . S
H2270 C2283 0.929 . S
H2271 C2281 0.929 . S
H2272 C2276 0.929 . S
H2273 C2282 0.929 . S
C2274 H2268 0.930 . S
C2274 C2275 1.367 . S
C2274 C2282 1.378 . S
C2275 C2274 1.367 . S
C2275 C2283 1.433 . S
C2276 H2272 0.929 . S
C2276 C2278 1.378 . S
C2276 C2280 1.350 . S
C2277 C2280 1.463 . S
C2277 C2282 1.350 . S
C2277 N2285 1.427 . S
C2278 H2269 0.930 . S
C2278 C2276 1.378 . S
C2278 C2279 1.367 . S
C2279 C2278 1.367 . S
C2279 C2281 1.433 . S
C2280 C2276 1.350 . S
C2280 C2277 1.463 . S
C2280 N2284 1.427 . S
C2281 H2271 0.929 . S
C2281 C2279 1.433 . S
C2281 N2284 1.384 . S
C2282 H2273 0.929 . S
C2282 C2274 1.378 . S
C2282 C2277 1.350 . S
C2283 H2270 0.929 . S
C2283 C2275 1.433 . S
C2283 N2285 1.384 . S
N2284 C2280 1.427 . S
N2284 C2281 1.384 . S
N2285 C2277 1.427 . S
N2285 C2283 1.384 . S
H2286 C2292 0.930 . S
H2287 C2296 0.930 . S
H2288 C2301 0.929 1_556 S
H2289 C2299 0.929 . S
H2290 C2294 0.929 . S
H2291 C2300 0.929 . S
C2292 H2286 0.930 . S
C2292 C2293 1.367 . S
C2292 C2300 1.378 . S
C2293 C2292 1.367 . S
C2293 C2301 1.433 . S
C2294 H2290 0.929 . S
C2294 C2296 1.378 . S
C2294 C2298 1.350 . S
C2295 C2298 1.463 . S
C2295 C2300 1.350 . S
C2295 N2303 1.427 . S
C2296 H2287 0.930 . S
C2296 C2294 1.378 . S
C2296 C2297 1.367 . S
C2297 C2296 1.367 . S
C2297 C2299 1.433 . S
C2298 C2294 1.350 . S
C2298 C2295 1.463 . S
C2298 N2302 1.427 . S
C2299 H2289 0.929 . S
C2299 C2297 1.433 . S
C2299 N2302 1.384 . S
C2300 H2291 0.929 . S
C2300 C2292 1.378 . S
C2300 C2295 1.350 . S
C2301 H2288 0.929 1_554 S
C2301 C2293 1.433 . S
C2301 N2303 1.384 . S
N2302 C2298 1.427 . S
N2302 C2299 1.384 . S
N2303 C2295 1.427 . S
N2303 C2301 1.384 . S
H2304 C2310 0.930 . S
H2305 C2314 0.930 . S
H2306 C2319 0.929 . S
H2307 C2317 0.929 . S
H2308 C2312 0.929 . S
H2309 C2318 0.929 . S
C2310 H2304 0.930 . S
C2310 C2311 1.367 . S
C2310 C2318 1.378 . S
C2311 C2310 1.367 . S
C2311 C2319 1.433 . S
C2312 H2308 0.929 . S
C2312 C2314 1.378 . S
C2312 C2316 1.350 . S
C2313 C2316 1.463 . S
C2313 C2318 1.350 . S
C2313 N2321 1.427 . S
C2314 H2305 0.930 . S
C2314 C2312 1.378 . S
C2314 C2315 1.367 . S
C2315 C2314 1.367 . S
C2315 C2317 1.433 . S
C2316 C2312 1.350 . S
C2316 C2313 1.463 . S
C2316 N2320 1.427 . S
C2317 H2307 0.929 . S
C2317 C2315 1.433 . S
C2317 N2320 1.384 . S
C2318 H2309 0.929 . S
C2318 C2310 1.378 . S
C2318 C2313 1.350 . S
C2319 H2306 0.929 . S
C2319 C2311 1.433 . S
C2319 N2321 1.384 . S
N2320 C2316 1.427 . S
N2320 C2317 1.384 . S
N2321 C2313 1.427 . S
N2321 C2319 1.384 . S
H2322 C2328 0.930 . S
H2323 C2332 0.930 . S
H2324 C2337 0.929 . S
H2325 C2335 0.929 . S
H2326 C2330 0.929 . S
H2327 C2336 0.929 . S
C2328 H2322 0.930 . S
C2328 C2329 1.367 . S
C2328 C2336 1.378 . S
C2329 C2328 1.367 . S
C2329 C2337 1.433 . S
C2330 H2326 0.929 . S
C2330 C2332 1.378 . S
C2330 C2334 1.350 . S
C2331 C2334 1.463 . S
C2331 C2336 1.350 . S
C2331 N2339 1.427 . S
C2332 H2323 0.930 . S
C2332 C2330 1.378 . S
C2332 C2333 1.367 . S
C2333 C2332 1.367 . S
C2333 C2335 1.433 . S
C2334 C2330 1.350 . S
C2334 C2331 1.463 . S
C2334 N2338 1.427 . S
C2335 H2325 0.929 . S
C2335 C2333 1.433 . S
C2335 N2338 1.384 . S
C2336 H2327 0.929 . S
C2336 C2328 1.378 . S
C2336 C2331 1.350 . S
C2337 H2324 0.929 . S
C2337 C2329 1.433 . S
C2337 N2339 1.384 . S
N2338 C2334 1.427 . S
N2338 C2335 1.384 . S
N2339 C2331 1.427 . S
N2339 C2337 1.384 . S
H2340 C2346 0.930 . S
H2341 C2350 0.930 . S
H2342 C2355 0.929 . S
H2343 C2353 0.929 . S
H2344 C2348 0.929 . S
H2345 C2354 0.929 . S
C2346 H2340 0.930 . S
C2346 C2347 1.367 . S
C2346 C2354 1.378 . S
C2347 C2346 1.367 . S
C2347 C2355 1.433 . S
C2348 H2344 0.929 . S
C2348 C2350 1.378 . S
C2348 C2352 1.350 . S
C2349 C2352 1.463 . S
C2349 C2354 1.350 . S
C2349 N2357 1.427 . S
C2350 H2341 0.930 . S
C2350 C2348 1.378 . S
C2350 C2351 1.367 . S
C2351 C2350 1.367 . S
C2351 C2353 1.433 . S
C2352 C2348 1.350 . S
C2352 C2349 1.463 . S
C2352 N2356 1.427 . S
C2353 H2343 0.929 . S
C2353 C2351 1.433 . S
C2353 N2356 1.384 . S
C2354 H2345 0.929 . S
C2354 C2346 1.378 . S
C2354 C2349 1.350 . S
C2355 H2342 0.929 . S
C2355 C2347 1.433 . S
C2355 N2357 1.384 . S
N2356 C2352 1.427 . S
N2356 C2353 1.384 . S
N2357 C2349 1.427 . S
N2357 C2355 1.384 . S
H2358 C2364 0.930 . S
H2359 C2368 0.930 . S
H2360 C2373 0.929 . S
H2361 C2371 0.929 . S
H2362 C2366 0.929 . S
H2363 C2372 0.929 . S
C2364 H2358 0.930 . S
C2364 C2365 1.367 . S
C2364 C2372 1.378 . S
C2365 C2364 1.367 . S
C2365 C2373 1.433 . S
C2366 H2362 0.929 . S
C2366 C2368 1.378 . S
C2366 C2370 1.350 . S
C2367 C2370 1.463 . S
C2367 C2372 1.350 . S
C2367 N2375 1.427 . S
C2368 H2359 0.930 . S
C2368 C2366 1.378 . S
C2368 C2369 1.367 . S
C2369 C2368 1.367 . S
C2369 C2371 1.433 . S
C2370 C2366 1.350 . S
C2370 C2367 1.463 . S
C2370 N2374 1.427 . S
C2371 H2361 0.929 . S
C2371 C2369 1.433 . S
C2371 N2374 1.384 . S
C2372 H2363 0.929 . S
C2372 C2364 1.378 . S
C2372 C2367 1.350 . S
C2373 H2360 0.929 . S
C2373 C2365 1.433 . S
C2373 N2375 1.384 . S
N2374 C2370 1.427 . S
N2374 C2371 1.384 . S
N2375 C2367 1.427 . S
N2375 C2373 1.384 . S
H2376 C2382 0.930 . S
H2377 C2386 0.930 . S
H2378 C2391 0.929 . S
H2379 C2389 0.929 . S
H2380 C2384 0.929 . S
H2381 C2390 0.929 . S
C2382 H2376 0.930 . S
C2382 C2383 1.367 . S
C2382 C2390 1.378 . S
C2383 C2382 1.367 . S
C2383 C2391 1.433 . S
C2384 H2380 0.929 . S
C2384 C2386 1.378 . S
C2384 C2388 1.350 . S
C2385 C2388 1.463 1_455 S
C2385 C2390 1.350 . S
C2385 N2393 1.427 . S
C2386 H2377 0.930 . S
C2386 C2384 1.378 . S
C2386 C2387 1.367 . S
C2387 C2386 1.367 . S
C2387 C2389 1.433 . S
C2388 C2384 1.350 . S
C2388 C2385 1.463 1_655 S
C2388 N2392 1.427 . S
C2389 H2379 0.929 . S
C2389 C2387 1.433 . S
C2389 N2392 1.384 . S
C2390 H2381 0.929 . S
C2390 C2382 1.378 . S
C2390 C2385 1.350 . S
C2391 H2378 0.929 . S
C2391 C2383 1.433 . S
C2391 N2393 1.384 . S
N2392 C2388 1.427 . S
N2392 C2389 1.384 . S
N2393 C2385 1.427 . S
N2393 C2391 1.384 . S
H2394 C2400 0.930 . S
H2395 C2404 0.930 . S
H2396 C2409 0.929 . S
H2397 C2407 0.929 . S
H2398 C2402 0.929 . S
H2399 C2408 0.929 . S
C2400 H2394 0.930 . S
C2400 C2401 1.367 . S
C2400 C2408 1.378 . S
C2401 C2400 1.367 . S
C2401 C2409 1.433 . S
C2402 H2398 0.929 . S
C2402 C2404 1.378 . S
C2402 C2406 1.350 . S
C2403 C2406 1.463 . S
C2403 C2408 1.350 . S
C2403 N2411 1.427 . S
C2404 H2395 0.930 . S
C2404 C2402 1.378 . S
C2404 C2405 1.367 . S
C2405 C2404 1.367 . S
C2405 C2407 1.433 . S
C2406 C2402 1.350 . S
C2406 C2403 1.463 . S
C2406 N2410 1.427 . S
C2407 H2397 0.929 . S
C2407 C2405 1.433 . S
C2407 N2410 1.384 . S
C2408 H2399 0.929 . S
C2408 C2400 1.378 . S
C2408 C2403 1.350 . S
C2409 H2396 0.929 . S
C2409 C2401 1.433 . S
C2409 N2411 1.384 . S
N2410 C2406 1.427 . S
N2410 C2407 1.384 . S
N2411 C2403 1.427 . S
N2411 C2409 1.384 . S
H2412 C2418 0.930 . S
H2413 C2422 0.930 . S
H2414 C2427 0.929 . S
H2415 C2425 0.929 . S
H2416 C2420 0.929 1_545 S
H2417 C2426 0.929 1_565 S
C2418 H2412 0.930 . S
C2418 C2419 1.367 . S
C2418 C2426 1.378 . S
C2419 C2418 1.367 . S
C2419 C2427 1.433 . S
C2420 H2416 0.929 1_565 S
C2420 C2422 1.378 . S
C2420 C2424 1.350 . S
C2421 C2424 1.463 1_545 S
C2421 C2426 1.350 . S
C2421 N2429 1.427 . S
C2422 H2413 0.930 . S
C2422 C2420 1.378 . S
C2422 C2423 1.367 . S
C2423 C2422 1.367 . S
C2423 C2425 1.433 . S
C2424 C2420 1.350 . S
C2424 C2421 1.463 1_565 S
C2424 N2428 1.427 . S
C2425 H2415 0.929 . S
C2425 C2423 1.433 . S
C2425 N2428 1.384 . S
C2426 H2417 0.929 1_545 S
C2426 C2418 1.378 . S
C2426 C2421 1.350 . S
C2427 H2414 0.929 . S
C2427 C2419 1.433 . S
C2427 N2429 1.384 . S
N2428 C2424 1.427 . S
N2428 C2425 1.384 . S
N2429 C2421 1.427 . S
N2429 C2427 1.384 . S
H2430 C2436 0.930 . S
H2431 C2440 0.930 . S
H2432 C2445 0.929 . S
H2433 C2443 0.929 . S
H2434 C2438 0.929 . S
H2435 C2444 0.929 . S
C2436 H2430 0.930 . S
C2436 C2437 1.367 . S
C2436 C2444 1.378 . S
C2437 C2436 1.367 . S
C2437 C2445 1.433 . S
C2438 H2434 0.929 . S
C2438 C2440 1.378 . S
C2438 C2442 1.350 . S
C2439 C2442 1.463 1_545 S
C2439 C2444 1.350 . S
C2439 N2447 1.427 . S
C2440 H2431 0.930 . S
C2440 C2438 1.378 . S
C2440 C2441 1.367 . S
C2441 C2440 1.367 . S
C2441 C2443 1.433 . S
C2442 C2438 1.350 . S
C2442 C2439 1.463 1_565 S
C2442 N2446 1.427 . S
C2443 H2433 0.929 . S
C2443 C2441 1.433 . S
C2443 N2446 1.384 . S
C2444 H2435 0.929 . S
C2444 C2436 1.378 . S
C2444 C2439 1.350 . S
C2445 H2432 0.929 . S
C2445 C2437 1.433 . S
C2445 N2447 1.384 . S
N2446 C2442 1.427 . S
N2446 C2443 1.384 . S
N2447 C2439 1.427 . S
N2447 C2445 1.384 . S
H2448 C2454 0.930 . S
H2449 C2458 0.930 . S
H2450 C2463 0.929 . S
H2451 C2461 0.929 . S
H2452 C2456 0.929 1_655 S
H2453 C2462 0.929 1_455 S
C2454 H2448 0.930 . S
C2454 C2455 1.367 . S
C2454 C2462 1.378 . S
C2455 C2454 1.367 . S
C2455 C2463 1.433 . S
C2456 H2452 0.929 1_455 S
C2456 C2458 1.378 . S
C2456 C2460 1.350 . S
C2457 C2460 1.463 1_655 S
C2457 C2462 1.350 . S
C2457 N2465 1.427 . S
C2458 H2449 0.930 . S
C2458 C2456 1.378 . S
C2458 C2459 1.367 . S
C2459 C2458 1.367 . S
C2459 C2461 1.433 . S
C2460 C2456 1.350 . S
C2460 C2457 1.463 1_455 S
C2460 N2464 1.427 . S
C2461 H2451 0.929 . S
C2461 C2459 1.433 . S
C2461 N2464 1.384 . S
C2462 H2453 0.929 1_655 S
C2462 C2454 1.378 . S
C2462 C2457 1.350 . S
C2463 H2450 0.929 . S
C2463 C2455 1.433 . S
C2463 N2465 1.384 . S
N2464 C2460 1.427 . S
N2464 C2461 1.384 . S
N2465 C2457 1.427 . S
N2465 C2463 1.384 . S
H2466 C2472 0.930 . S
H2467 C2476 0.930 . S
H2468 C2481 0.929 . S
H2469 C2479 0.929 . S
H2470 C2474 0.929 . S
H2471 C2480 0.929 . S
C2472 H2466 0.930 . S
C2472 C2473 1.367 . S
C2472 C2480 1.378 . S
C2473 C2472 1.367 . S
C2473 C2481 1.433 . S
C2474 H2470 0.929 . S
C2474 C2476 1.378 . S
C2474 C2478 1.350 . S
C2475 C2478 1.463 . S
C2475 C2480 1.350 . S
C2475 N2483 1.427 . S
C2476 H2467 0.930 . S
C2476 C2474 1.378 . S
C2476 C2477 1.367 . S
C2477 C2476 1.367 . S
C2477 C2479 1.433 . S
C2478 C2474 1.350 . S
C2478 C2475 1.463 . S
C2478 N2482 1.427 . S
C2479 H2469 0.929 . S
C2479 C2477 1.433 . S
C2479 N2482 1.384 . S
C2480 H2471 0.929 . S
C2480 C2472 1.378 . S
C2480 C2475 1.350 . S
C2481 H2468 0.929 . S
C2481 C2473 1.433 . S
C2481 N2483 1.384 . S
N2482 C2478 1.427 . S
N2482 C2479 1.384 . S
N2483 C2475 1.427 . S
N2483 C2481 1.384 . S
H2484 C2490 0.930 . S
H2485 C2494 0.930 . S
H2486 C2499 0.929 . S
H2487 C2497 0.929 . S
H2488 C2492 0.929 . S
H2489 C2498 0.929 . S
C2490 H2484 0.930 . S
C2490 C2491 1.367 . S
C2490 C2498 1.378 . S
C2491 C2490 1.367 . S
C2491 C2499 1.433 . S
C2492 H2488 0.929 . S
C2492 C2494 1.378 . S
C2492 C2496 1.350 . S
C2493 C2496 1.463 . S
C2493 C2498 1.350 . S
C2493 N2501 1.427 . S
C2494 H2485 0.930 . S
C2494 C2492 1.378 . S
C2494 C2495 1.367 . S
C2495 C2494 1.367 . S
C2495 C2497 1.433 . S
C2496 C2492 1.350 . S
C2496 C2493 1.463 . S
C2496 N2500 1.427 . S
C2497 H2487 0.929 . S
C2497 C2495 1.433 . S
C2497 N2500 1.384 . S
C2498 H2489 0.929 . S
C2498 C2490 1.378 . S
C2498 C2493 1.350 . S
C2499 H2486 0.929 . S
C2499 C2491 1.433 . S
C2499 N2501 1.384 . S
N2500 C2496 1.427 . S
N2500 C2497 1.384 . S
N2501 C2493 1.427 . S
N2501 C2499 1.384 . S
H2502 C2508 0.930 . S
H2503 C2512 0.930 . S
H2504 C2517 0.929 . S
H2505 C2515 0.929 . S
H2506 C2510 0.929 . S
H2507 C2516 0.929 . S
C2508 H2502 0.930 . S
C2508 C2509 1.367 . S
C2508 C2516 1.378 . S
C2509 C2508 1.367 . S
C2509 C2517 1.433 . S
C2510 H2506 0.929 . S
C2510 C2512 1.378 . S
C2510 C2514 1.350 . S
C2511 C2514 1.463 . S
C2511 C2516 1.350 . S
C2511 N2519 1.427 . S
C2512 H2503 0.930 . S
C2512 C2510 1.378 . S
C2512 C2513 1.367 . S
C2513 C2512 1.367 . S
C2513 C2515 1.433 . S
C2514 C2510 1.350 . S
C2514 C2511 1.463 . S
C2514 N2518 1.427 . S
C2515 H2505 0.929 . S
C2515 C2513 1.433 . S
C2515 N2518 1.384 . S
C2516 H2507 0.929 . S
C2516 C2508 1.378 . S
C2516 C2511 1.350 . S
C2517 H2504 0.929 . S
C2517 C2509 1.433 . S
C2517 N2519 1.384 . S
N2518 C2514 1.427 . S
N2518 C2515 1.384 . S
N2519 C2511 1.427 . S
N2519 C2517 1.384 . S
H2520 C2526 0.930 . S
H2521 C2530 0.930 . S
H2522 C2535 0.929 . S
H2523 C2533 0.929 . S
H2524 C2528 0.929 . S
H2525 C2534 0.929 . S
C2526 H2520 0.930 . S
C2526 C2527 1.367 . S
C2526 C2534 1.378 . S
C2527 C2526 1.367 . S
C2527 C2535 1.433 . S
C2528 H2524 0.929 . S
C2528 C2530 1.378 . S
C2528 C2532 1.350 . S
C2529 C2532 1.463 . S
C2529 C2534 1.350 . S
C2529 N2537 1.427 . S
C2530 H2521 0.930 . S
C2530 C2528 1.378 . S
C2530 C2531 1.367 . S
C2531 C2530 1.367 . S
C2531 C2533 1.433 . S
C2532 C2528 1.350 . S
C2532 C2529 1.463 . S
C2532 N2536 1.427 . S
C2533 H2523 0.929 . S
C2533 C2531 1.433 . S
C2533 N2536 1.384 . S
C2534 H2525 0.929 . S
C2534 C2526 1.378 . S
C2534 C2529 1.350 . S
C2535 H2522 0.929 . S
C2535 C2527 1.433 . S
C2535 N2537 1.384 . S
N2536 C2532 1.427 . S
N2536 C2533 1.384 . S
N2537 C2529 1.427 . S
N2537 C2535 1.384 . S
H2538 C2544 0.930 . S
H2539 C2548 0.930 . S
H2540 C2553 0.929 . S
H2541 C2551 0.929 . S
H2542 C2546 0.929 . S
H2543 C2552 0.929 . S
C2544 H2538 0.930 . S
C2544 C2545 1.367 . S
C2544 C2552 1.378 . S
C2545 C2544 1.367 . S
C2545 C2553 1.433 . S
C2546 H2542 0.929 . S
C2546 C2548 1.378 . S
C2546 C2550 1.350 . S
C2547 C2550 1.463 . S
C2547 C2552 1.350 . S
C2547 N2555 1.427 . S
C2548 H2539 0.930 . S
C2548 C2546 1.378 . S
C2548 C2549 1.367 . S
C2549 C2548 1.367 . S
C2549 C2551 1.433 . S
C2550 C2546 1.350 . S
C2550 C2547 1.463 . S
C2550 N2554 1.427 . S
C2551 H2541 0.929 . S
C2551 C2549 1.433 . S
C2551 N2554 1.384 . S
C2552 H2543 0.929 . S
C2552 C2544 1.378 . S
C2552 C2547 1.350 . S
C2553 H2540 0.929 . S
C2553 C2545 1.433 . S
C2553 N2555 1.384 . S
N2554 C2550 1.427 . S
N2554 C2551 1.384 . S
N2555 C2547 1.427 . S
N2555 C2553 1.384 . S
H2556 C2562 0.930 . S
H2557 C2566 0.930 . S
H2558 C2571 0.929 . S
H2559 C2569 0.929 . S
H2560 C2564 0.929 . S
H2561 C2570 0.929 . S
C2562 H2556 0.930 . S
C2562 C2563 1.367 . S
C2562 C2570 1.378 . S
C2563 C2562 1.367 . S
C2563 C2571 1.433 . S
C2564 H2560 0.929 . S
C2564 C2566 1.378 . S
C2564 C2568 1.350 . S
C2565 C2568 1.463 . S
C2565 C2570 1.350 . S
C2565 N2573 1.427 . S
C2566 H2557 0.930 . S
C2566 C2564 1.378 . S
C2566 C2567 1.367 . S
C2567 C2566 1.367 . S
C2567 C2569 1.433 . S
C2568 C2564 1.350 . S
C2568 C2565 1.463 . S
C2568 N2572 1.427 . S
C2569 H2559 0.929 . S
C2569 C2567 1.433 . S
C2569 N2572 1.384 . S
C2570 H2561 0.929 . S
C2570 C2562 1.378 . S
C2570 C2565 1.350 . S
C2571 H2558 0.929 . S
C2571 C2563 1.433 . S
C2571 N2573 1.384 . S
N2572 C2568 1.427 . S
N2572 C2569 1.384 . S
N2573 C2565 1.427 . S
N2573 C2571 1.384 . S
H2574 C2580 0.930 . S
H2575 C2584 0.930 . S
H2576 C2589 0.929 . S
H2577 C2587 0.929 . S
H2578 C2582 0.929 . S
H2579 C2588 0.929 . S
C2580 H2574 0.930 . S
C2580 C2581 1.367 . S
C2580 C2588 1.378 . S
C2581 C2580 1.367 . S
C2581 C2589 1.433 . S
C2582 H2578 0.929 . S
C2582 C2584 1.378 . S
C2582 C2586 1.350 . S
C2583 C2586 1.463 . S
C2583 C2588 1.350 . S
C2583 N2591 1.427 . S
C2584 H2575 0.930 . S
C2584 C2582 1.378 . S
C2584 C2585 1.367 . S
C2585 C2584 1.367 . S
C2585 C2587 1.433 . S
C2586 C2582 1.350 . S
C2586 C2583 1.463 . S
C2586 N2590 1.427 . S
C2587 H2577 0.929 . S
C2587 C2585 1.433 . S
C2587 N2590 1.384 . S
C2588 H2579 0.929 . S
C2588 C2580 1.378 . S
C2588 C2583 1.350 . S
C2589 H2576 0.929 . S
C2589 C2581 1.433 . S
C2589 N2591 1.384 . S
N2590 C2586 1.427 . S
N2590 C2587 1.384 . S
N2591 C2583 1.427 . S
N2591 C2589 1.384 . S
H2592 C2598 0.930 . S
H2593 C2602 0.930 . S
H2594 C2607 0.929 . S
H2595 C2605 0.929 . S
H2596 C2600 0.929 . S
H2597 C2606 0.929 . S
C2598 H2592 0.930 . S
C2598 C2599 1.367 . S
C2598 C2606 1.378 . S
C2599 C2598 1.367 . S
C2599 C2607 1.433 . S
C2600 H2596 0.929 . S
C2600 C2602 1.378 . S
C2600 C2604 1.350 . S
C2601 C2604 1.463 . S
C2601 C2606 1.350 . S
C2601 N2609 1.427 . S
C2602 H2593 0.930 . S
C2602 C2600 1.378 . S
C2602 C2603 1.367 . S
C2603 C2602 1.367 . S
C2603 C2605 1.433 . S
C2604 C2600 1.350 . S
C2604 C2601 1.463 . S
C2604 N2608 1.427 . S
C2605 H2595 0.929 . S
C2605 C2603 1.433 . S
C2605 N2608 1.384 . S
C2606 H2597 0.929 . S
C2606 C2598 1.378 . S
C2606 C2601 1.350 . S
C2607 H2594 0.929 . S
C2607 C2599 1.433 . S
C2607 N2609 1.384 . S
N2608 C2604 1.427 . S
N2608 C2605 1.384 . S
N2609 C2601 1.427 . S
N2609 C2607 1.384 . S
H2610 C2616 0.930 . S
H2611 C2620 0.930 . S
H2612 C2625 0.929 . S
H2613 C2623 0.929 . S
H2614 C2618 0.929 . S
H2615 C2624 0.929 . S
C2616 H2610 0.930 . S
C2616 C2617 1.367 . S
C2616 C2624 1.378 . S
C2617 C2616 1.367 . S
C2617 C2625 1.433 . S
C2618 H2614 0.929 . S
C2618 C2620 1.378 . S
C2618 C2622 1.350 . S
C2619 C2622 1.463 . S
C2619 C2624 1.350 . S
C2619 N2627 1.427 . S
C2620 H2611 0.930 . S
C2620 C2618 1.378 . S
C2620 C2621 1.367 . S
C2621 C2620 1.367 . S
C2621 C2623 1.433 . S
C2622 C2618 1.350 . S
C2622 C2619 1.463 . S
C2622 N2626 1.427 . S
C2623 H2613 0.929 . S
C2623 C2621 1.433 . S
C2623 N2626 1.384 . S
C2624 H2615 0.929 . S
C2624 C2616 1.378 . S
C2624 C2619 1.350 . S
C2625 H2612 0.929 . S
C2625 C2617 1.433 . S
C2625 N2627 1.384 . S
N2626 C2622 1.427 . S
N2626 C2623 1.384 . S
N2627 C2619 1.427 . S
N2627 C2625 1.384 . S
H2628 C2634 0.930 . S
H2629 C2638 0.930 . S
H2630 C2643 0.929 . S
H2631 C2641 0.929 . S
H2632 C2636 0.929 . S
H2633 C2642 0.929 . S
C2634 H2628 0.930 . S
C2634 C2635 1.367 . S
C2634 C2642 1.378 . S
C2635 C2634 1.367 . S
C2635 C2643 1.433 . S
C2636 H2632 0.929 . S
C2636 C2638 1.378 . S
C2636 C2640 1.350 . S
C2637 C2640 1.463 . S
C2637 C2642 1.350 . S
C2637 N2645 1.427 . S
C2638 H2629 0.930 . S
C2638 C2636 1.378 . S
C2638 C2639 1.367 . S
C2639 C2638 1.367 . S
C2639 C2641 1.433 . S
C2640 C2636 1.350 . S
C2640 C2637 1.463 . S
C2640 N2644 1.427 . S
C2641 H2631 0.929 . S
C2641 C2639 1.433 . S
C2641 N2644 1.384 . S
C2642 H2633 0.929 . S
C2642 C2634 1.378 . S
C2642 C2637 1.350 . S
C2643 H2630 0.929 . S
C2643 C2635 1.433 . S
C2643 N2645 1.384 . S
N2644 C2640 1.427 . S
N2644 C2641 1.384 . S
N2645 C2637 1.427 . S
N2645 C2643 1.384 . S
H2646 C2652 0.930 . S
H2647 C2656 0.930 . S
H2648 C2661 0.929 . S
H2649 C2659 0.929 . S
H2650 C2654 0.929 . S
H2651 C2660 0.929 . S
C2652 H2646 0.930 . S
C2652 C2653 1.367 . S
C2652 C2660 1.378 . S
C2653 C2652 1.367 . S
C2653 C2661 1.433 . S
C2654 H2650 0.929 . S
C2654 C2656 1.378 . S
C2654 C2658 1.350 . S
C2655 C2658 1.463 . S
C2655 C2660 1.350 . S
C2655 N2663 1.427 . S
C2656 H2647 0.930 . S
C2656 C2654 1.378 . S
C2656 C2657 1.367 . S
C2657 C2656 1.367 . S
C2657 C2659 1.433 . S
C2658 C2654 1.350 . S
C2658 C2655 1.463 . S
C2658 N2662 1.427 . S
C2659 H2649 0.929 . S
C2659 C2657 1.433 . S
C2659 N2662 1.384 . S
C2660 H2651 0.929 . S
C2660 C2652 1.378 . S
C2660 C2655 1.350 . S
C2661 H2648 0.929 . S
C2661 C2653 1.433 . S
C2661 N2663 1.384 . S
N2662 C2658 1.427 . S
N2662 C2659 1.384 . S
N2663 C2655 1.427 . S
N2663 C2661 1.384 . S
H2664 C2670 0.930 . S
H2665 C2674 0.930 . S
H2666 C2679 0.929 . S
H2667 C2677 0.929 . S
H2668 C2672 0.929 . S
H2669 C2678 0.929 . S
C2670 H2664 0.930 . S
C2670 C2671 1.367 . S
C2670 C2678 1.378 . S
C2671 C2670 1.367 . S
C2671 C2679 1.433 . S
C2672 H2668 0.929 . S
C2672 C2674 1.378 . S
C2672 C2676 1.350 . S
C2673 C2676 1.463 . S
C2673 C2678 1.350 . S
C2673 N2681 1.427 . S
C2674 H2665 0.930 . S
C2674 C2672 1.378 . S
C2674 C2675 1.367 . S
C2675 C2674 1.367 . S
C2675 C2677 1.433 . S
C2676 C2672 1.350 . S
C2676 C2673 1.463 . S
C2676 N2680 1.427 . S
C2677 H2667 0.929 . S
C2677 C2675 1.433 . S
C2677 N2680 1.384 . S
C2678 H2669 0.929 . S
C2678 C2670 1.378 . S
C2678 C2673 1.350 . S
C2679 H2666 0.929 . S
C2679 C2671 1.433 . S
C2679 N2681 1.384 . S
N2680 C2676 1.427 . S
N2680 C2677 1.384 . S
N2681 C2673 1.427 . S
N2681 C2679 1.384 . S
H2682 C2688 0.930 . S
H2683 C2692 0.930 . S
H2684 C2697 0.929 . S
H2685 C2695 0.929 . S
H2686 C2690 0.929 . S
H2687 C2696 0.929 . S
C2688 H2682 0.930 . S
C2688 C2689 1.367 . S
C2688 C2696 1.378 . S
C2689 C2688 1.367 . S
C2689 C2697 1.433 . S
C2690 H2686 0.929 . S
C2690 C2692 1.378 . S
C2690 C2694 1.350 . S
C2691 C2694 1.463 . S
C2691 C2696 1.350 . S
C2691 N2699 1.427 . S
C2692 H2683 0.930 . S
C2692 C2690 1.378 . S
C2692 C2693 1.367 . S
C2693 C2692 1.367 . S
C2693 C2695 1.433 . S
C2694 C2690 1.350 . S
C2694 C2691 1.463 . S
C2694 N2698 1.427 . S
C2695 H2685 0.929 . S
C2695 C2693 1.433 . S
C2695 N2698 1.384 . S
C2696 H2687 0.929 . S
C2696 C2688 1.378 . S
C2696 C2691 1.350 . S
C2697 H2684 0.929 . S
C2697 C2689 1.433 . S
C2697 N2699 1.384 . S
N2698 C2694 1.427 . S
N2698 C2695 1.384 . S
N2699 C2691 1.427 . S
N2699 C2697 1.384 . S
H2700 C2706 0.930 . S
H2701 C2710 0.930 . S
H2702 C2715 0.929 . S
H2703 C2713 0.929 . S
H2704 C2708 0.929 . S
H2705 C2714 0.929 . S
C2706 H2700 0.930 . S
C2706 C2707 1.367 . S
C2706 C2714 1.378 . S
C2707 C2706 1.367 . S
C2707 C2715 1.433 . S
C2708 H2704 0.929 . S
C2708 C2710 1.378 . S
C2708 C2712 1.350 . S
C2709 C2712 1.463 1_455 S
C2709 C2714 1.350 . S
C2709 N2717 1.427 . S
C2710 H2701 0.930 . S
C2710 C2708 1.378 . S
C2710 C2711 1.367 . S
C2711 C2710 1.367 . S
C2711 C2713 1.433 . S
C2712 C2708 1.350 . S
C2712 C2709 1.463 1_655 S
C2712 N2716 1.427 . S
C2713 H2703 0.929 . S
C2713 C2711 1.433 . S
C2713 N2716 1.384 . S
C2714 H2705 0.929 . S
C2714 C2706 1.378 . S
C2714 C2709 1.350 . S
C2715 H2702 0.929 . S
C2715 C2707 1.433 . S
C2715 N2717 1.384 . S
N2716 C2712 1.427 . S
N2716 C2713 1.384 . S
N2717 C2709 1.427 . S
N2717 C2715 1.384 . S
H2718 C2724 0.930 . S
H2719 C2728 0.930 . S
H2720 C2733 0.929 . S
H2721 C2731 0.929 . S
H2722 C2726 0.929 . S
H2723 C2732 0.929 . S
C2724 H2718 0.930 . S
C2724 C2725 1.367 . S
C2724 C2732 1.378 . S
C2725 C2724 1.367 . S
C2725 C2733 1.433 . S
C2726 H2722 0.929 . S
C2726 C2728 1.378 . S
C2726 C2730 1.350 . S
C2727 C2730 1.463 . S
C2727 C2732 1.350 . S
C2727 N2735 1.427 . S
C2728 H2719 0.930 . S
C2728 C2726 1.378 . S
C2728 C2729 1.367 . S
C2729 C2728 1.367 . S
C2729 C2731 1.433 . S
C2730 C2726 1.350 . S
C2730 C2727 1.463 . S
C2730 N2734 1.427 . S
C2731 H2721 0.929 . S
C2731 C2729 1.433 . S
C2731 N2734 1.384 . S
C2732 H2723 0.929 . S
C2732 C2724 1.378 . S
C2732 C2727 1.350 . S
C2733 H2720 0.929 . S
C2733 C2725 1.433 . S
C2733 N2735 1.384 . S
N2734 C2730 1.427 . S
N2734 C2731 1.384 . S
N2735 C2727 1.427 . S
N2735 C2733 1.384 . S
H2736 C2742 0.930 . S
H2737 C2746 0.930 . S
H2738 C2751 0.929 . S
H2739 C2749 0.929 . S
H2740 C2744 0.929 . S
H2741 C2750 0.929 . S
C2742 H2736 0.930 . S
C2742 C2743 1.367 . S
C2742 C2750 1.378 . S
C2743 C2742 1.367 . S
C2743 C2751 1.433 . S
C2744 H2740 0.929 . S
C2744 C2746 1.378 . S
C2744 C2748 1.350 . S
C2745 C2748 1.463 1_545 S
C2745 C2750 1.350 . S
C2745 N2753 1.427 . S
C2746 H2737 0.930 . S
C2746 C2744 1.378 . S
C2746 C2747 1.367 . S
C2747 C2746 1.367 . S
C2747 C2749 1.433 . S
C2748 C2744 1.350 . S
C2748 C2745 1.463 1_565 S
C2748 N2752 1.427 . S
C2749 H2739 0.929 . S
C2749 C2747 1.433 . S
C2749 N2752 1.384 . S
C2750 H2741 0.929 . S
C2750 C2742 1.378 . S
C2750 C2745 1.350 . S
C2751 H2738 0.929 . S
C2751 C2743 1.433 . S
C2751 N2753 1.384 . S
N2752 C2748 1.427 . S
N2752 C2749 1.384 . S
N2753 C2745 1.427 . S
N2753 C2751 1.384 . S
H2754 C2760 0.930 . S
H2755 C2764 0.930 . S
H2756 C2769 0.929 . S
H2757 C2767 0.929 . S
H2758 C2762 0.929 . S
H2759 C2768 0.929 . S
C2760 H2754 0.930 . S
C2760 C2761 1.367 . S
C2760 C2768 1.378 . S
C2761 C2760 1.367 . S
C2761 C2769 1.433 . S
C2762 H2758 0.929 . S
C2762 C2764 1.378 . S
C2762 C2766 1.350 . S
C2763 C2766 1.463 1_545 S
C2763 C2768 1.350 . S
C2763 N2771 1.427 . S
C2764 H2755 0.930 . S
C2764 C2762 1.378 . S
C2764 C2765 1.367 . S
C2765 C2764 1.367 . S
C2765 C2767 1.433 . S
C2766 C2762 1.350 . S
C2766 C2763 1.463 1_565 S
C2766 N2770 1.427 . S
C2767 H2757 0.929 . S
C2767 C2765 1.433 . S
C2767 N2770 1.384 . S
C2768 H2759 0.929 . S
C2768 C2760 1.378 . S
C2768 C2763 1.350 . S
C2769 H2756 0.929 . S
C2769 C2761 1.433 . S
C2769 N2771 1.384 . S
N2770 C2766 1.427 . S
N2770 C2767 1.384 . S
N2771 C2763 1.427 . S
N2771 C2769 1.384 . S
H2772 C2778 0.930 . S
H2773 C2782 0.930 . S
H2774 C2787 0.929 . S
H2775 C2785 0.929 . S
H2776 C2780 0.929 . S
H2777 C2786 0.929 . S
C2778 H2772 0.930 . S
C2778 C2779 1.367 . S
C2778 C2786 1.378 . S
C2779 C2778 1.367 . S
C2779 C2787 1.433 . S
C2780 H2776 0.929 . S
C2780 C2782 1.378 . S
C2780 C2784 1.350 . S
C2781 C2784 1.463 1_455 S
C2781 C2786 1.350 . S
C2781 N2789 1.427 . S
C2782 H2773 0.930 . S
C2782 C2780 1.378 . S
C2782 C2783 1.367 . S
C2783 C2782 1.367 . S
C2783 C2785 1.433 . S
C2784 C2780 1.350 . S
C2784 C2781 1.463 1_655 S
C2784 N2788 1.427 . S
C2785 H2775 0.929 . S
C2785 C2783 1.433 . S
C2785 N2788 1.384 . S
C2786 H2777 0.929 . S
C2786 C2778 1.378 . S
C2786 C2781 1.350 . S
C2787 H2774 0.929 . S
C2787 C2779 1.433 . S
C2787 N2789 1.384 . S
N2788 C2784 1.427 . S
N2788 C2785 1.384 . S
N2789 C2781 1.427 . S
N2789 C2787 1.384 . S
H2790 C2796 0.930 . S
H2791 C2800 0.930 . S
H2792 C2805 0.929 . S
H2793 C2803 0.929 . S
H2794 C2798 0.929 . S
H2795 C2804 0.929 . S
C2796 H2790 0.930 . S
C2796 C2797 1.367 . S
C2796 C2804 1.378 . S
C2797 C2796 1.367 . S
C2797 C2805 1.433 . S
C2798 H2794 0.929 . S
C2798 C2800 1.378 . S
C2798 C2802 1.350 . S
C2799 C2802 1.463 . S
C2799 C2804 1.350 . S
C2799 N2807 1.427 . S
C2800 H2791 0.930 . S
C2800 C2798 1.378 . S
C2800 C2801 1.367 . S
C2801 C2800 1.367 . S
C2801 C2803 1.433 . S
C2802 C2798 1.350 . S
C2802 C2799 1.463 . S
C2802 N2806 1.427 . S
C2803 H2793 0.929 . S
C2803 C2801 1.433 . S
C2803 N2806 1.384 . S
C2804 H2795 0.929 . S
C2804 C2796 1.378 . S
C2804 C2799 1.350 . S
C2805 H2792 0.929 . S
C2805 C2797 1.433 . S
C2805 N2807 1.384 . S
N2806 C2802 1.427 . S
N2806 C2803 1.384 . S
N2807 C2799 1.427 . S
N2807 C2805 1.384 . S
C1195 C248 1.360 1_554 S
C1199 N5 1.309 . S
C1213 N38 1.322 . S
C1217 C281 1.370 1_554 S
C1231 C215 1.360 1_554 S
C1235 N71 1.305 . S
C1249 C380 1.365 . S
C1253 N104 1.309 . S
C1267 C314 1.361 . S
C1271 N137 1.304 . S
C1285 N170 1.323 . S
C1289 C347 1.368 . S
C1303 N203 1.309 . S
C1307 C50 1.365 1_556 S
C1321 N236 1.310 . S
C1325 C83 1.366 1_556 S
C1339 N269 1.305 . S
C1343 C17 1.361 1_556 S
C1357 C182 1.360 . S
C1361 N302 1.305 . S
C1375 C116 1.359 . S
C1379 N335 1.306 . S
C1393 N368 1.320 . S
C1397 C149 1.370 . S
C1411 C644 1.364 . S
C1415 N401 1.308 . S
C1429 C677 1.361 . S
C1433 N434 1.305 . S
C1447 C611 1.361 . S
C1451 N467 1.304 . S
C1465 C776 1.369 . S
C1469 N500 1.320 . S
C1483 C710 1.361 . S
C1487 N533 1.304 . S
C1501 C743 1.369 . S
C1505 N566 1.323 . S
C1519 N599 1.305 . S
C1523 C446 1.361 . S
C1537 N632 1.309 . S
C1541 C479 1.366 . S
C1555 C413 1.370 . S
C1559 N665 1.321 . S
C1573 N698 1.324 . S
C1577 C578 1.369 . S
C1591 N731 1.320 . S
C1595 C512 1.365 . S
C1609 N764 1.305 . S
C1613 C545 1.362 . S
C1627 C1040 1.364 . S
C1631 N797 1.307 . S
C1645 C1073 1.363 . S
C1649 N830 1.306 . S
C1663 N863 1.316 . S
C1667 C1007 1.368 . S
C1681 N896 1.306 . S
C1685 C1172 1.360 . S
C1699 N929 1.305 . S
C1703 C1106 1.362 . S
C1717 N962 1.323 . S
C1721 C1139 1.370 . S
C1735 C842 1.369 . S
C1739 N995 1.321 . S
C1753 C875 1.370 . S
C1757 N1028 1.321 . S
C1771 N1061 1.323 . S
C1775 C809 1.367 . S
C1789 C974 1.369 . S
C1793 N1094 1.323 . S
C1807 C908 1.369 . S
C1811 N1127 1.322 . S
C1825 N1160 1.308 . S
C1829 C941 1.365 . S
C1843 C8 1.704 . S
C1847 C107 1.705 . S
C1861 C41 1.703 . S
C1865 C140 1.703 . S
C1879 C74 1.703 . S
C1883 C173 1.703 . S
C1897 C305 1.705 . S
C1901 C206 1.706 . S
C1915 C338 1.710 . S
C1919 C239 1.709 . S
C1933 C371 1.709 . S
C1937 C272 1.710 . S
C1951 C404 1.713 . S
C1955 C503 1.713 . S
C1969 C437 1.706 . S
C1973 C536 1.705 . S
C1987 C569 1.706 . S
C1991 C470 1.707 . S
C2005 C602 1.708 . S
C2009 C701 1.707 . S
C2023 C734 1.704 . S
C2027 C635 1.703 . S
C2041 C767 1.707 . S
C2045 C668 1.708 . S
C2059 C899 1.710 . S
C2063 C800 1.711 . S
C2077 C932 1.713 . S
C2081 C833 1.712 . S
C2095 C965 1.709 . S
C2099 C866 1.707 . S
C2113 C1097 1.713 . S
C2117 C998 1.713 . S
C2131 C1130 1.712 . S
C2135 C1031 1.712 . S
C2149 C1064 1.713 . S
C2153 C1163 1.713 . S
C2167 C28 2.376 1_556 S
C2171 C556 2.380 . S
C2185 C589 2.378 . S
C2189 C61 2.378 1_556 S
C2203 C94 2.378 1_556 S
C2207 C523 2.379 . S
C2221 C886 2.377 . S
C2225 C127 2.379 . S
C2239 C160 2.378 . S
C2243 C820 2.374 . S
C2257 C853 2.378 . S
C2261 C193 2.374 . S
C2275 C1150 2.374 . S
C2279 C226 2.378 1_554 S
C2293 C259 2.377 1_554 S
C2297 C1183 2.379 . S
C2311 C1117 2.374 . S
C2315 C292 2.377 1_554 S
C2329 C325 2.379 . S
C2333 C688 2.378 . S
C2347 C358 2.380 . S
C2351 C622 2.376 . S
C2365 C655 2.380 . S
C2369 C391 2.376 . S
C2383 C952 2.379 . S
C2387 C424 2.374 . S
C2401 C985 2.379 . S
C2405 C457 2.377 . S
C2419 C490 2.376 . S
C2423 C919 2.375 . S
C2437 C721 2.374 . S
C2441 C1084 2.379 . S
C2455 C754 2.375 . S
C2459 C1018 2.376 . S
C2473 C1051 2.379 . S
C2477 C787 2.374 . S
C2491 N971 0.558 . S
C2495 N14 0.557 . S
C2509 N905 0.603 . S
C2513 N47 0.604 . S
C2527 N938 0.602 . S
C2531 N80 0.604 . S
C2545 N113 0.595 . S
C2549 N443 0.601 . S
C2563 N146 0.602 . S
C2567 N476 0.604 . S
C2581 N410 0.560 . S
C2585 N179 0.557 . S
C2599 N212 0.593 . S
C2603 N773 0.585 . S
C2617 N707 0.563 . S
C2621 N245 0.570 . S
C2635 N278 0.575 . S
C2639 N740 0.585 . S
C2653 N311 0.604 . S
C2657 N1037 0.601 . S
C2671 N1070 0.588 . S
C2675 N344 0.579 . S
C2689 N377 0.558 . S
C2693 N1004 0.562 . S
C2707 N839 0.603 . S
C2711 N509 0.599 . S
C2725 N542 0.595 . S
C2729 N872 0.601 . S
C2743 N575 0.572 . S
C2747 N806 0.581 . S
C2761 N608 0.563 . S
C2765 N1169 0.558 . S
C2779 N1103 0.558 . S
C2783 N641 0.557 . S
C2797 N1136 0.604 . S
C2801 N674 0.603 . S
