# Generated by pormake.
# Topology umu, (4)-cn, num edge types: 1
# Building blocks:
#     Node 0, Type 0, BuildingBlock: QUQFOY_clean_sbu_1, # of connection points: 4
#     Node 1, Type 0, BuildingBlock: QUQFOY_clean_sbu_1, # of connection points: 4
#     Node 2, Type 0, BuildingBlock: QUQFOY_clean_sbu_1, # of connection points: 4
#     Node 3, Type 0, BuildingBlock: QUQFOY_clean_sbu_1, # of connection points: 4
#     Node 4, Type 0, BuildingBlock: QUQFOY_clean_sbu_1, # of connection points: 4
#     Node 5, Type 0, BuildingBlock: QUQFOY_clean_sbu_1, # of connection points: 4
#     Node 6, Type 0, BuildingBlock: QUQFOY_clean_sbu_1, # of connection points: 4
#     Node 7, Type 0, BuildingBlock: QUQFOY_clean_sbu_1, # of connection points: 4
#     Node 8, Type 0, BuildingBlock: QUQFOY_clean_sbu_1, # of connection points: 4
#     Node 9, Type 0, BuildingBlock: QUQFOY_clean_sbu_1, # of connection points: 4
#     Node 10, Type 0, BuildingBlock: QUQFOY_clean_sbu_1, # of connection points: 4
#     Node 11, Type 0, BuildingBlock: QUQFOY_clean_sbu_1, # of connection points: 4
#     Node 12, Type 0, BuildingBlock: QUQFOY_clean_sbu_1, # of connection points: 4
#     Node 13, Type 0, BuildingBlock: QUQFOY_clean_sbu_1, # of connection points: 4
#     Node 14, Type 0, BuildingBlock: QUQFOY_clean_sbu_1, # of connection points: 4
#     Node 15, Type 0, BuildingBlock: QUQFOY_clean_sbu_1, # of connection points: 4
#     Node 16, Type 0, BuildingBlock: QUQFOY_clean_sbu_1, # of connection points: 4
#     Node 17, Type 0, BuildingBlock: QUQFOY_clean_sbu_1, # of connection points: 4
#     Node 18, Type 0, BuildingBlock: QUQFOY_clean_sbu_1, # of connection points: 4
#     Node 19, Type 0, BuildingBlock: QUQFOY_clean_sbu_1, # of connection points: 4
#     Node 20, Type 0, BuildingBlock: QUQFOY_clean_sbu_1, # of connection points: 4
#     Node 21, Type 0, BuildingBlock: QUQFOY_clean_sbu_1, # of connection points: 4
#     Node 22, Type 0, BuildingBlock: QUQFOY_clean_sbu_1, # of connection points: 4
#     Node 23, Type 0, BuildingBlock: QUQFOY_clean_sbu_1, # of connection points: 4
#     Node 24, Type 0, BuildingBlock: QUQFOY_clean_sbu_1, # of connection points: 4
#     Node 25, Type 0, BuildingBlock: QUQFOY_clean_sbu_1, # of connection points: 4
#     Node 26, Type 0, BuildingBlock: QUQFOY_clean_sbu_1, # of connection points: 4
#     Node 27, Type 0, BuildingBlock: QUQFOY_clean_sbu_1, # of connection points: 4
#     Node 28, Type 0, BuildingBlock: QUQFOY_clean_sbu_1, # of connection points: 4
#     Node 29, Type 0, BuildingBlock: QUQFOY_clean_sbu_1, # of connection points: 4
#     Node 30, Type 0, BuildingBlock: QUQFOY_clean_sbu_1, # of connection points: 4
#     Node 31, Type 0, BuildingBlock: QUQFOY_clean_sbu_1, # of connection points: 4
#     Edge 32, Type (0, 0), BuildingBlock: EZIPEK_clean_linker_0, # of connection points: 2
#     Edge 33, Type (0, 0), BuildingBlock: EZIPEK_clean_linker_0, # of connection points: 2
#     Edge 34, Type (0, 0), BuildingBlock: EZIPEK_clean_linker_0, # of connection points: 2
#     Edge 35, Type (0, 0), BuildingBlock: EZIPEK_clean_linker_0, # of connection points: 2
#     Edge 36, Type (0, 0), BuildingBlock: EZIPEK_clean_linker_0, # of connection points: 2
#     Edge 37, Type (0, 0), BuildingBlock: EZIPEK_clean_linker_0, # of connection points: 2
#     Edge 38, Type (0, 0), BuildingBlock: EZIPEK_clean_linker_0, # of connection points: 2
#     Edge 39, Type (0, 0), BuildingBlock: EZIPEK_clean_linker_0, # of connection points: 2
#     Edge 40, Type (0, 0), BuildingBlock: EZIPEK_clean_linker_0, # of connection points: 2
#     Edge 41, Type (0, 0), BuildingBlock: EZIPEK_clean_linker_0, # of connection points: 2
#     Edge 42, Type (0, 0), BuildingBlock: EZIPEK_clean_linker_0, # of connection points: 2
#     Edge 43, Type (0, 0), BuildingBlock: EZIPEK_clean_linker_0, # of connection points: 2
#     Edge 44, Type (0, 0), BuildingBlock: EZIPEK_clean_linker_0, # of connection points: 2
#     Edge 45, Type (0, 0), BuildingBlock: EZIPEK_clean_linker_0, # of connection points: 2
#     Edge 46, Type (0, 0), BuildingBlock: EZIPEK_clean_linker_0, # of connection points: 2
#     Edge 47, Type (0, 0), BuildingBlock: EZIPEK_clean_linker_0, # of connection points: 2
#     Edge 48, Type (0, 0), BuildingBlock: EZIPEK_clean_linker_0, # of connection points: 2
#     Edge 49, Type (0, 0), BuildingBlock: EZIPEK_clean_linker_0, # of connection points: 2
#     Edge 50, Type (0, 0), BuildingBlock: EZIPEK_clean_linker_0, # of connection points: 2
#     Edge 51, Type (0, 0), BuildingBlock: EZIPEK_clean_linker_0, # of connection points: 2
#     Edge 52, Type (0, 0), BuildingBlock: EZIPEK_clean_linker_0, # of connection points: 2
#     Edge 53, Type (0, 0), BuildingBlock: EZIPEK_clean_linker_0, # of connection points: 2
#     Edge 54, Type (0, 0), BuildingBlock: EZIPEK_clean_linker_0, # of connection points: 2
#     Edge 55, Type (0, 0), BuildingBlock: EZIPEK_clean_linker_0, # of connection points: 2
#     Edge 56, Type (0, 0), BuildingBlock: EZIPEK_clean_linker_0, # of connection points: 2
#     Edge 57, Type (0, 0), BuildingBlock: EZIPEK_clean_linker_0, # of connection points: 2
#     Edge 58, Type (0, 0), BuildingBlock: EZIPEK_clean_linker_0, # of connection points: 2
#     Edge 59, Type (0, 0), BuildingBlock: EZIPEK_clean_linker_0, # of connection points: 2
#     Edge 60, Type (0, 0), BuildingBlock: EZIPEK_clean_linker_0, # of connection points: 2
#     Edge 61, Type (0, 0), BuildingBlock: EZIPEK_clean_linker_0, # of connection points: 2
#     Edge 62, Type (0, 0), BuildingBlock: EZIPEK_clean_linker_0, # of connection points: 2
#     Edge 63, Type (0, 0), BuildingBlock: EZIPEK_clean_linker_0, # of connection points: 2
#     Edge 64, Type (0, 0), BuildingBlock: EZIPEK_clean_linker_0, # of connection points: 2
#     Edge 65, Type (0, 0), BuildingBlock: EZIPEK_clean_linker_0, # of connection points: 2
#     Edge 66, Type (0, 0), BuildingBlock: EZIPEK_clean_linker_0, # of connection points: 2
#     Edge 67, Type (0, 0), BuildingBlock: EZIPEK_clean_linker_0, # of connection points: 2
#     Edge 68, Type (0, 0), BuildingBlock: EZIPEK_clean_linker_0, # of connection points: 2
#     Edge 69, Type (0, 0), BuildingBlock: EZIPEK_clean_linker_0, # of connection points: 2
#     Edge 70, Type (0, 0), BuildingBlock: EZIPEK_clean_linker_0, # of connection points: 2
#     Edge 71, Type (0, 0), BuildingBlock: EZIPEK_clean_linker_0, # of connection points: 2
#     Edge 72, Type (0, 0), BuildingBlock: EZIPEK_clean_linker_0, # of connection points: 2
#     Edge 73, Type (0, 0), BuildingBlock: EZIPEK_clean_linker_0, # of connection points: 2
#     Edge 74, Type (0, 0), BuildingBlock: EZIPEK_clean_linker_0, # of connection points: 2
#     Edge 75, Type (0, 0), BuildingBlock: EZIPEK_clean_linker_0, # of connection points: 2
#     Edge 76, Type (0, 0), BuildingBlock: EZIPEK_clean_linker_0, # of connection points: 2
#     Edge 77, Type (0, 0), BuildingBlock: EZIPEK_clean_linker_0, # of connection points: 2
#     Edge 78, Type (0, 0), BuildingBlock: EZIPEK_clean_linker_0, # of connection points: 2
#     Edge 79, Type (0, 0), BuildingBlock: EZIPEK_clean_linker_0, # of connection points: 2
#     Edge 80, Type (0, 0), BuildingBlock: EZIPEK_clean_linker_0, # of connection points: 2
#     Edge 81, Type (0, 0), BuildingBlock: EZIPEK_clean_linker_0, # of connection points: 2
#     Edge 82, Type (0, 0), BuildingBlock: EZIPEK_clean_linker_0, # of connection points: 2
#     Edge 83, Type (0, 0), BuildingBlock: EZIPEK_clean_linker_0, # of connection points: 2
#     Edge 84, Type (0, 0), BuildingBlock: EZIPEK_clean_linker_0, # of connection points: 2
#     Edge 85, Type (0, 0), BuildingBlock: EZIPEK_clean_linker_0, # of connection points: 2
#     Edge 86, Type (0, 0), BuildingBlock: EZIPEK_clean_linker_0, # of connection points: 2
#     Edge 87, Type (0, 0), BuildingBlock: EZIPEK_clean_linker_0, # of connection points: 2
#     Edge 88, Type (0, 0), BuildingBlock: EZIPEK_clean_linker_0, # of connection points: 2
#     Edge 89, Type (0, 0), BuildingBlock: EZIPEK_clean_linker_0, # of connection points: 2
#     Edge 90, Type (0, 0), BuildingBlock: EZIPEK_clean_linker_0, # of connection points: 2
#     Edge 91, Type (0, 0), BuildingBlock: EZIPEK_clean_linker_0, # of connection points: 2
#     Edge 92, Type (0, 0), BuildingBlock: EZIPEK_clean_linker_0, # of connection points: 2
#     Edge 93, Type (0, 0), BuildingBlock: EZIPEK_clean_linker_0, # of connection points: 2
#     Edge 94, Type (0, 0), BuildingBlock: EZIPEK_clean_linker_0, # of connection points: 2
#     Edge 95, Type (0, 0), BuildingBlock: EZIPEK_clean_linker_0, # of connection points: 2
# Relax obj value: 0.024
# Max RMSD: 0.053
# Mean RMSD: 0.053
data_MOF--net-umu--node1-QUQFOY_clean_sbu_1--edge1-EZIPEK_clean_linker_0
_symmetry_space_group_name_H-M    P1
_symmetry_Int_Tables_number       1
_symmetry_cell_setting            triclinic
loop_
_symmetry_equiv_pos_as_xyz
'x, y, z'
_cell_length_a     64.546117
_cell_length_b     64.361909
_cell_length_c     20.949916
_cell_angle_alpha  89.980587
_cell_angle_beta   90.011412
_cell_angle_gamma 89.923216
loop_
_atom_site_label
_atom_site_type_symbol
_atom_site_fract_x
_atom_site_fract_y
_atom_site_fract_z
_atom_type_partial_charge
O0 O 0.20622 0.16288 0.98337 0.0
Cd1 Cd 0.18748 0.16804 0.06037 0.0
Cd2 Cd 0.22691 0.16804 0.11574 0.0
O3 O 0.23701 0.15788 0.02653 0.0
O4 O 0.16075 0.1642 0.01527 0.0
O5 O 0.17135 0.14362 0.09341 0.0
C6 C 0.15828 0.14756 0.0483 0.0
C7 C 0.23824 0.15697 0.21605 0.0
C8 C 0.22533 0.15878 0.97754 0.0
C9 C 0.20209 0.20813 0.1113 0.0
O10 O 0.21937 0.19901 0.11864 0.0
O11 O 0.18611 0.19816 0.09368 0.0
O12 O 0.25041 0.16676 0.17762 0.0
O13 O 0.22021 0.15151 0.19516 0.0
O14 O 0.07917 0.96768 0.24534 0.0
Cd15 Cd 0.07835 0.94491 0.31335 0.0
Cd16 Cd 0.07453 0.98203 0.38648 0.0
O17 O 0.0852 0.99584 0.3029 0.0
O18 O 0.08299 0.92066 0.25626 0.0
O19 O 0.10486 0.92974 0.33266 0.0
C20 C 0.10043 0.91797 0.28466 0.0
C21 C 0.08334 0.99296 0.48983 0.0
C22 C 0.08362 0.98679 0.24905 0.0
C23 C 0.03797 0.95272 0.37255 0.0
O24 O 0.04448 0.97104 0.38257 0.0
O25 O 0.05009 0.93852 0.35315 0.0
O26 O 0.07225 0.00436 0.45251 0.0
O27 O 0.09092 0.97592 0.467 0.0
O28 O 0.2827 0.83595 0.48975 0.0
Cd29 Cd 0.30395 0.83485 0.56173 0.0
Cd30 Cd 0.26834 0.83502 0.63043 0.0
O31 O 0.25658 0.84801 0.54678 0.0
O32 O 0.32969 0.84061 0.51363 0.0
O33 O 0.31646 0.86223 0.58534 0.0
C34 C 0.32995 0.85847 0.54125 0.0
C35 C 0.25868 0.84558 0.73309 0.0
C36 C 0.26486 0.84407 0.49295 0.0
C37 C 0.29359 0.79557 0.62123 0.0
O38 O 0.27574 0.80364 0.62772 0.0
O39 O 0.30887 0.8065 0.60339 0.0
O40 O 0.24595 0.83596 0.69609 0.0
O41 O 0.27655 0.85072 0.71027 0.0
O42 O 0.41502 0.04097 0.75105 0.0
Cd43 Cd 0.41264 0.06195 0.82421 0.0
Cd44 Cd 0.41642 0.02556 0.88841 0.0
O45 O 0.40505 0.01309 0.80403 0.0
O46 O 0.40676 0.08739 0.77413 0.0
O47 O 0.38407 0.07315 0.84026 0.0
C48 C 0.38834 0.08694 0.79741 0.0
C49 C 0.40705 0.01486 0.99098 0.0
C50 C 0.4088 0.02232 0.75158 0.0
C51 C 0.4522 0.05526 0.88404 0.0
O52 O 0.44656 0.03637 0.88492 0.0
O53 O 0.43923 0.06956 0.87223 0.0
O54 O 0.41773 0.00303 0.95373 0.0
O55 O 0.40013 0.03221 0.96828 0.0
O56 O 0.20818 0.84261 0.24084 0.0
Cd57 Cd 0.18798 0.83797 0.1677 0.0
Cd58 Cd 0.2264 0.83729 0.10328 0.0
O59 O 0.23826 0.84636 0.19188 0.0
O60 O 0.16203 0.84281 0.21623 0.0
O61 O 0.17204 0.86274 0.13581 0.0
C62 C 0.15948 0.85933 0.18263 0.0
C63 C 0.23834 0.84777 1.00281 0.0
C64 C 0.2275 0.84591 0.24291 0.0
C65 C 0.20072 0.79761 0.11412 0.0
O66 O 0.21749 0.80668 0.09924 0.0
O67 O 0.18563 0.80766 0.13787 0.0
O68 O 0.24984 0.83712 0.04102 0.0
O69 O 0.22073 0.8544 0.02395 0.0
O70 O 0.41263 0.96644 0.49822 0.0
Cd71 Cd 0.41065 0.94624 0.42285 0.0
Cd72 Cd 0.41537 0.98382 0.36342 0.0
O73 O 0.4051 0.99593 0.44954 0.0
O74 O 0.38252 0.93415 0.40546 0.0
O75 O 0.40558 0.92018 0.47091 0.0
C76 C 0.38725 0.92007 0.44695 0.0
C77 C 0.40613 0.99527 0.26158 0.0
C78 C 0.408 0.98558 0.50058 0.0
C79 C 0.45058 0.95344 0.36393 0.0
O80 O 0.44523 0.97242 0.3649 0.0
O81 O 0.4375 0.93922 0.37509 0.0
O82 O 0.41697 0.00672 0.29944 0.0
O83 O 0.3988 0.97801 0.28357 0.0
O84 O 0.27984 0.16578 0.73244 0.0
Cd85 Cd 0.30228 0.16694 0.66403 0.0
Cd86 Cd 0.26706 0.16771 0.59023 0.0
O87 O 0.25423 0.15449 0.67193 0.0
O88 O 0.32714 0.16229 0.7177 0.0
O89 O 0.3163 0.13981 0.64499 0.0
C90 C 0.32875 0.14433 0.69123 0.0
C91 C 0.25783 0.15797 0.48637 0.0
C92 C 0.26189 0.15811 0.72682 0.0
C93 C 0.29296 0.2066 0.60442 0.0
O94 O 0.27507 0.19892 0.59546 0.0
O95 O 0.30784 0.19531 0.6235 0.0
O96 O 0.24514 0.16784 0.52294 0.0
O97 O 0.2754 0.15222 0.51006 0.0
O98 O 0.0745 0.04283 0.99818 0.0
Cd99 Cd 0.07458 0.06381 0.92487 0.0
Cd100 Cd 0.07312 0.0258 0.86115 0.0
O101 O 0.08426 0.01435 0.94763 0.0
O102 O 0.07929 0.08935 0.97604 0.0
O103 O 0.10163 0.07754 0.90443 0.0
C104 C 0.09719 0.09055 0.94935 0.0
C105 C 0.08281 0.014 0.75964 0.0
C106 C 0.08075 0.02417 0.9993 0.0
C107 C 0.03552 0.05392 0.86326 0.0
O108 O 0.04257 0.03549 0.86116 0.0
O109 O 0.04709 0.06904 0.87856 0.0
O110 O 0.07259 0.00235 0.79853 0.0
O111 O 0.0893 0.03175 0.78034 0.0
O112 O 0.7783 0.83885 0.23438 0.0
Cd113 Cd 0.80009 0.83827 0.16405 0.0
Cd114 Cd 0.76513 0.83792 0.09374 0.0
O115 O 0.75267 0.85115 0.17575 0.0
O116 O 0.82556 0.84439 0.21328 0.0
O117 O 0.81215 0.86598 0.14189 0.0
C118 C 0.82564 0.86234 0.1861 0.0
C119 C 0.75613 0.84784 0.99004 0.0
C120 C 0.76046 0.84692 0.23004 0.0
C121 C 0.79047 0.79872 0.10619 0.0
O122 O 0.77257 0.80661 0.09917 0.0
O123 O 0.80567 0.80992 0.12312 0.0
O124 O 0.74322 0.83829 0.02661 0.0
O125 O 0.77381 0.85324 0.01375 0.0
O126 O 0.90816 0.03538 0.97015 0.0
Cd127 Cd 0.90715 0.05831 0.90274 0.0
Cd128 Cd 0.91051 0.02206 0.82895 0.0
O129 O 0.89989 0.00794 0.91271 0.0
O130 O 0.90222 0.08199 0.96168 0.0
O131 O 0.88012 0.07307 0.88594 0.0
C132 C 0.8846 0.08463 0.93434 0.0
C133 C 0.90014 0.0116 0.72559 0.0
C134 C 0.903 0.01643 0.96685 0.0
C135 C 0.94705 0.05181 0.84299 0.0
O136 O 0.94057 0.03348 0.83263 0.0
O137 O 0.93485 0.0659 0.86236 0.0
O138 O 0.91285 0.00074 0.75944 0.0
O139 O 0.89214 0.02785 0.75217 0.0
O140 O 0.7064 0.17416 0.75955 0.0
Cd141 Cd 0.68708 0.17248 0.68229 0.0
Cd142 Cd 0.72416 0.17614 0.62586 0.0
O143 O 0.73524 0.1644 0.71181 0.0
O144 O 0.66089 0.16575 0.72685 0.0
O145 O 0.67665 0.14395 0.66088 0.0
C146 C 0.66213 0.14754 0.70186 0.0
C147 C 0.73519 0.16649 0.52388 0.0
C148 C 0.72501 0.16798 0.76259 0.0
C149 C 0.69517 0.21262 0.62749 0.0
O150 O 0.71391 0.20658 0.62897 0.0
O151 O 0.68052 0.19982 0.63621 0.0
O152 O 0.74709 0.17676 0.56195 0.0
O153 O 0.71757 0.16007 0.54556 0.0
O154 O 0.57742 0.96642 0.4957 0.0
Cd155 Cd 0.57828 0.94467 0.42488 0.0
Cd156 Cd 0.5753 0.98133 0.35503 0.0
O157 O 0.58454 0.99488 0.44077 0.0
O158 O 0.58321 0.91958 0.47778 0.0
O159 O 0.60594 0.93156 0.40773 0.0
C160 C 0.60132 0.91855 0.45247 0.0
C161 C 0.58722 0.99106 0.25331 0.0
C162 C 0.58203 0.98552 0.49382 0.0
C163 C 0.53883 0.95187 0.36135 0.0
O164 O 0.54529 0.97031 0.35359 0.0
O165 O 0.55085 0.93766 0.38112 0.0
O166 O 0.57465 0.00262 0.28541 0.0
O167 O 0.59447 0.97468 0.28127 0.0
O168 O 0.78047 0.16812 0.0103 0.0
Cd169 Cd 0.80299 0.16732 0.07913 0.0
Cd170 Cd 0.76632 0.17274 0.14997 0.0
O171 O 0.75222 0.16222 0.06705 0.0
O172 O 0.82695 0.16164 0.02226 0.0
O173 O 0.81662 0.13979 0.09729 0.0
C174 C 0.82862 0.14384 0.04959 0.0
C175 C 0.75525 0.1647 0.25356 0.0
C176 C 0.76131 0.16404 0.01345 0.0
C177 C 0.79708 0.20799 0.13749 0.0
O178 O 0.77837 0.2024 0.14496 0.0
O179 O 0.81089 0.19505 0.12085 0.0
O180 O 0.74416 0.17597 0.21585 0.0
O181 O 0.77197 0.15646 0.23095 0.0
O182 O 0.57864 0.04049 0.74758 0.0
Cd183 Cd 0.58036 0.06112 0.82149 0.0
Cd184 Cd 0.57564 0.02382 0.88505 0.0
O185 O 0.58398 0.01074 0.79777 0.0
O186 O 0.58639 0.08665 0.77186 0.0
O187 O 0.60854 0.07287 0.84056 0.0
C188 C 0.60448 0.08663 0.79746 0.0
C189 C 0.58758 0.01338 0.98592 0.0
C190 C 0.58204 0.0211 0.74623 0.0
C191 C 0.5404 0.05479 0.88307 0.0
O192 O 0.5461 0.03599 0.88824 0.0
O193 O 0.55302 0.06874 0.86538 0.0
O194 O 0.57463 0.00228 0.95377 0.0
O195 O 0.59527 0.02958 0.9582 0.0
O196 O 0.70569 0.83907 0.48745 0.0
Cd197 Cd 0.68751 0.83649 0.56678 0.0
Cd198 Cd 0.72622 0.83629 0.61982 0.0
O199 O 0.73601 0.84638 0.53028 0.0
O200 O 0.67388 0.86325 0.59253 0.0
O201 O 0.66023 0.84049 0.52538 0.0
C202 C 0.65974 0.85859 0.55133 0.0
C203 C 0.73724 0.84793 0.7195 0.0
C204 C 0.72454 0.84411 0.48123 0.0
C205 C 0.70096 0.79678 0.62089 0.0
O206 O 0.71864 0.80535 0.62403 0.0
O207 O 0.685 0.80728 0.60621 0.0
O208 O 0.74959 0.83804 0.6818 0.0
O209 O 0.71919 0.85316 0.6981 0.0
O210 O 0.92026 0.9637 0.22697 0.0
Cd211 Cd 0.91337 0.94304 0.29881 0.0
Cd212 Cd 0.91099 0.97734 0.35673 0.0
O213 O 0.89788 0.98514 0.26765 0.0
O214 O 0.90411 0.9179 0.25264 0.0
O215 O 0.88359 0.93629 0.31645 0.0
C216 C 0.88603 0.92104 0.27697 0.0
C217 C 0.89933 0.98763 0.45808 0.0
C218 C 0.90769 0.97854 0.21887 0.0
C219 C 0.94929 0.95088 0.36574 0.0
O220 O 0.94227 0.96921 0.35868 0.0
O221 O 0.93752 0.93544 0.35668 0.0
O222 O 0.90947 0.00017 0.42151 0.0
O223 O 0.89394 0.9699 0.43425 0.0
O224 O 0.70676 0.66334 0.48983 0.0
Cd225 Cd 0.68638 0.66759 0.56275 0.0
Cd226 Cd 0.72484 0.66673 0.62809 0.0
O227 O 0.73644 0.65739 0.53929 0.0
O228 O 0.66048 0.66374 0.51315 0.0
O229 O 0.6702 0.64263 0.59117 0.0
C230 C 0.65777 0.64679 0.54453 0.0
C231 C 0.73661 0.65594 0.7285 0.0
C232 C 0.72587 0.6589 0.48801 0.0
C233 C 0.69977 0.70703 0.62003 0.0
O234 O 0.71649 0.69753 0.63311 0.0
O235 O 0.68438 0.69749 0.59638 0.0
O236 O 0.74828 0.6664 0.69042 0.0
O237 O 0.7189 0.64965 0.70724 0.0
O238 O 0.57289 0.46912 0.74047 0.0
Cd239 Cd 0.57875 0.44944 0.81565 0.0
Cd240 Cd 0.58034 0.48422 0.86994 0.0
O241 O 0.59345 0.49232 0.78168 0.0
O242 O 0.58862 0.4238 0.77329 0.0
O243 O 0.60828 0.4428 0.8379 0.0
C244 C 0.60637 0.42722 0.79943 0.0
C245 C 0.59199 0.49403 0.97164 0.0
C246 C 0.58444 0.48478 0.73276 0.0
C247 C 0.54179 0.45829 0.87709 0.0
O248 O 0.54903 0.4765 0.86994 0.0
O249 O 0.5536 0.44268 0.87072 0.0
O250 O 0.58175 0.5067 0.93567 0.0
O251 O 0.5974 0.47641 0.94706 0.0
O252 O 0.78318 0.33881 0.01962 0.0
Cd253 Cd 0.80584 0.33746 0.08746 0.0
Cd254 Cd 0.76971 0.33371 0.16081 0.0
O255 O 0.75541 0.34479 0.07858 0.0
O256 O 0.82984 0.34312 0.03099 0.0
O257 O 0.82057 0.36394 0.11011 0.0
C258 C 0.83226 0.36029 0.06135 0.0
C259 C 0.75986 0.34305 0.26458 0.0
C260 C 0.76417 0.34337 0.0243 0.0
C261 C 0.79838 0.29667 0.14399 0.0
O262 O 0.78029 0.30341 0.15594 0.0
O263 O 0.81247 0.3087 0.12367 0.0
O264 O 0.74804 0.33194 0.22866 0.0
O265 O 0.77678 0.35024 0.24023 0.0
O266 O 0.91108 0.54149 0.25281 0.0
Cd267 Cd 0.912 0.56305 0.32455 0.0
Cd268 Cd 0.9147 0.52591 0.39052 0.0
O269 O 0.90432 0.51262 0.306 0.0
O270 O 0.90717 0.58806 0.27118 0.0
O271 O 0.88548 0.57773 0.34662 0.0
C272 C 0.88971 0.59013 0.29993 0.0
C273 C 0.90315 0.51682 0.49321 0.0
C274 C 0.90629 0.52242 0.25353 0.0
C275 C 0.9522 0.55394 0.38006 0.0
O276 O 0.94512 0.53571 0.38765 0.0
O277 O 0.94038 0.56883 0.36431 0.0
O278 O 0.91519 0.50482 0.46067 0.0
O279 O 0.89632 0.5334 0.46539 0.0
O280 O 0.70884 0.33778 0.77027 0.0
Cd281 Cd 0.68971 0.34086 0.69319 0.0
Cd282 Cd 0.72697 0.33634 0.63563 0.0
O283 O 0.73806 0.34684 0.72321 0.0
O284 O 0.66341 0.34848 0.73617 0.0
O285 O 0.68088 0.37013 0.67424 0.0
C286 C 0.66574 0.36689 0.71332 0.0
C287 C 0.73931 0.34523 0.53443 0.0
C288 C 0.72767 0.34321 0.7737 0.0
C289 C 0.69671 0.30105 0.63345 0.0
O290 O 0.71561 0.30641 0.63553 0.0
O291 O 0.68245 0.31409 0.64502 0.0
O292 O 0.75042 0.33454 0.57372 0.0
O293 O 0.72193 0.35273 0.55475 0.0
O294 O 0.91134 0.46825 1.00054 0.0
Cd295 Cd 0.91168 0.44674 0.92895 0.0
Cd296 Cd 0.91487 0.48446 0.8617 0.0
O297 O 0.90608 0.49768 0.94845 0.0
O298 O 0.90695 0.42178 0.98255 0.0
O299 O 0.88498 0.4322 0.90795 0.0
C300 C 0.8894 0.41973 0.95432 0.0
C301 C 0.90276 0.49477 0.76082 0.0
C302 C 0.90756 0.48756 1.00054 0.0
C303 C 0.95141 0.45469 0.86601 0.0
O304 O 0.94475 0.47305 0.85762 0.0
O305 O 0.93972 0.44052 0.88764 0.0
O306 O 0.91554 0.50604 0.79305 0.0
O307 O 0.89532 0.47845 0.7885 0.0
O308 O 0.78124 0.66662 0.24149 0.0
Cd309 Cd 0.80302 0.66962 0.17127 0.0
Cd310 Cd 0.76668 0.66944 0.10121 0.0
O311 O 0.75456 0.65629 0.18384 0.0
O312 O 0.82808 0.66516 0.22421 0.0
O313 O 0.81874 0.64404 0.14582 0.0
C314 C 0.83081 0.64808 0.19344 0.0
C315 C 0.75699 0.65914 0.99817 0.0
C316 C 0.76312 0.65923 0.23781 0.0
C317 C 0.79143 0.70926 0.11424 0.0
O318 O 0.77385 0.70085 0.10551 0.0
O319 O 0.80687 0.69858 0.13248 0.0
O320 O 0.74427 0.66868 0.03546 0.0
O321 O 0.7749 0.654 0.02077 0.0
O322 O 0.5765 0.53968 0.48168 0.0
Cd323 Cd 0.5765 0.56196 0.41216 0.0
Cd324 Cd 0.5783 0.52622 0.34204 0.0
O325 O 0.59029 0.514 0.42678 0.0
O326 O 0.58139 0.5867 0.46667 0.0
O327 O 0.60316 0.57645 0.39126 0.0
C328 C 0.59896 0.5887 0.43836 0.0
C329 C 0.59027 0.51688 0.23954 0.0
C330 C 0.58494 0.5219 0.48006 0.0
C331 C 0.53841 0.55152 0.35016 0.0
O332 O 0.54705 0.53393 0.34289 0.0
O333 O 0.54878 0.56714 0.36843 0.0
O334 O 0.57886 0.50463 0.27321 0.0
O335 O 0.59625 0.53394 0.2662 0.0
O336 O 0.28644 0.33878 0.73165 0.0
Cd337 Cd 0.3083 0.33573 0.66171 0.0
Cd338 Cd 0.27189 0.33613 0.59172 0.0
O339 O 0.2598 0.34941 0.67415 0.0
O340 O 0.33332 0.34055 0.71466 0.0
O341 O 0.32384 0.36131 0.63548 0.0
C342 C 0.33588 0.35757 0.68344 0.0
C343 C 0.26204 0.34607 0.48838 0.0
C344 C 0.26834 0.34628 0.72806 0.0
C345 C 0.29636 0.29605 0.60629 0.0
O346 O 0.27889 0.30471 0.59726 0.0
O347 O 0.31198 0.30658 0.62382 0.0
O348 O 0.24938 0.33671 0.52622 0.0
O349 O 0.27999 0.35125 0.51055 0.0
O350 O 0.41178 0.53692 0.48286 0.0
Cd351 Cd 0.41039 0.55716 0.40741 0.0
Cd352 Cd 0.41134 0.52026 0.34958 0.0
O353 O 0.39957 0.50898 0.43508 0.0
O354 O 0.40686 0.58359 0.45505 0.0
O355 O 0.38263 0.57042 0.39219 0.0
C356 C 0.38823 0.58424 0.43338 0.0
C357 C 0.39931 0.51349 0.24674 0.0
C358 C 0.40443 0.51869 0.48582 0.0
C359 C 0.44936 0.54654 0.34898 0.0
O360 O 0.44243 0.5281 0.35215 0.0
O361 O 0.43728 0.56189 0.35707 0.0
O362 O 0.40904 0.49949 0.27914 0.0
O363 O 0.39478 0.53083 0.27469 0.0
O364 O 0.2087 0.66289 0.24613 0.0
Cd365 Cd 0.18978 0.66724 0.16896 0.0
Cd366 Cd 0.22856 0.66884 0.11317 0.0
O367 O 0.23941 0.65874 0.20167 0.0
O368 O 0.16316 0.66187 0.21281 0.0
O369 O 0.1752 0.64206 0.1347 0.0
C370 C 0.1617 0.64523 0.17918 0.0
C371 C 0.23923 0.65759 0.01244 0.0
C372 C 0.22792 0.65923 0.25114 0.0
C373 C 0.20229 0.70792 0.11797 0.0
O374 O 0.21998 0.6996 0.11061 0.0
O375 O 0.18682 0.69721 0.13569 0.0
O376 O 0.25144 0.66799 0.04915 0.0
O377 O 0.22152 0.65181 0.0351 0.0
O378 O 0.07774 0.46253 0.98298 0.0
Cd379 Cd 0.07902 0.44214 0.90825 0.0
Cd380 Cd 0.07775 0.47918 0.84772 0.0
O381 O 0.09015 0.49002 0.93307 0.0
O382 O 0.08389 0.41592 0.95567 0.0
O383 O 0.10696 0.42989 0.89021 0.0
C384 C 0.10228 0.41592 0.93207 0.0
C385 C 0.08709 0.49005 0.74513 0.0
C386 C 0.08545 0.48061 0.98452 0.0
C387 C 0.03991 0.45213 0.85141 0.0
O388 O 0.04694 0.47054 0.85249 0.0
O389 O 0.05185 0.43676 0.86059 0.0
O390 O 0.07757 0.5023 0.78407 0.0
O391 O 0.09298 0.4721 0.76615 0.0
O392 O 0.28236 0.66588 0.49792 0.0
Cd393 Cd 0.30453 0.66668 0.56756 0.0
Cd394 Cd 0.26869 0.66704 0.63803 0.0
O395 O 0.25683 0.65323 0.55607 0.0
O396 O 0.32971 0.6623 0.51482 0.0
O397 O 0.31844 0.63942 0.58576 0.0
C398 C 0.33108 0.64415 0.54022 0.0
C399 C 0.25874 0.658 0.74196 0.0
C400 C 0.26465 0.65756 0.5019 0.0
C401 C 0.29414 0.70611 0.62529 0.0
O402 O 0.27616 0.69829 0.63071 0.0
O403 O 0.30956 0.69479 0.61097 0.0
O404 O 0.24611 0.6671 0.70333 0.0
O405 O 0.27666 0.65249 0.72023 0.0
O406 O 0.08056 0.53668 0.23257 0.0
Cd407 Cd 0.08032 0.55893 0.30193 0.0
Cd408 Cd 0.07747 0.52161 0.37284 0.0
O409 O 0.08754 0.50823 0.28777 0.0
O410 O 0.085 0.58349 0.24639 0.0
O411 O 0.10698 0.57359 0.32165 0.0
C412 C 0.10253 0.58578 0.27459 0.0
C413 C 0.08715 0.51048 0.47504 0.0
C414 C 0.08532 0.51759 0.23464 0.0
C415 C 0.04074 0.55104 0.36503 0.0
O416 O 0.04739 0.53265 0.37304 0.0
O417 O 0.05246 0.56528 0.34402 0.0
O418 O 0.07587 0.49909 0.43834 0.0
O419 O 0.09454 0.52754 0.45194 0.0
O420 O 0.21196 0.34063 0.97933 0.0
Cd421 Cd 0.19154 0.33744 0.05252 0.0
Cd422 Cd 0.22979 0.3376 0.11826 0.0
O423 O 0.24139 0.34706 0.02953 0.0
O424 O 0.16541 0.34065 1.0036 0.0
O425 O 0.17593 0.36336 0.07591 0.0
C426 C 0.16313 0.35836 0.0311 0.0
C427 C 0.24148 0.3484 0.21868 0.0
C428 C 0.23102 0.34527 0.97797 0.0
C429 C 0.2041 0.29786 0.11098 0.0
O430 O 0.22112 0.30688 0.12318 0.0
O431 O 0.18884 0.30789 0.08827 0.0
O432 O 0.25315 0.33779 0.18088 0.0
O433 O 0.22383 0.35479 0.19718 0.0
O434 O 0.41395 0.46556 0.73946 0.0
Cd435 Cd 0.41451 0.44494 0.81346 0.0
Cd436 Cd 0.41292 0.48213 0.87613 0.0
O437 O 0.40028 0.4923 0.79006 0.0
O438 O 0.41121 0.41888 0.76387 0.0
O439 O 0.38806 0.4301 0.83402 0.0
C440 C 0.39327 0.41705 0.78996 0.0
C441 C 0.40221 0.49325 0.97756 0.0
C442 C 0.40539 0.48326 0.73838 0.0
C443 C 0.45272 0.45777 0.87396 0.0
O444 O 0.44439 0.47568 0.87511 0.0
O445 O 0.44213 0.44178 0.86025 0.0
O446 O 0.4102 0.50592 0.93678 0.0
O447 O 0.39843 0.47453 0.95862 0.0
C448 C 0.13239 0.09744 0.99496 0.0
C449 C 0.11284 0.10513 0.97477 0.0
C450 C 0.1217 0.1394 0.0176 0.0
C451 C 0.14223 0.13242 0.02893 0.0
N452 N 0.16829 0.10572 0.01336 0.0
N453 N 0.09005 0.13437 0.95754 0.0
C454 C 0.14795 0.11168 0.01373 0.0
C455 C 0.10776 0.12639 0.98365 0.0
N456 N 0.13594 0.07652 0.99903 0.0
N457 N 0.11537 0.15822 0.04068 0.0
H458 H 0.07979 0.12547 0.93052 0.0
H459 H 0.08661 0.15018 0.95724 0.0
H460 H 0.12503 0.16786 0.06741 0.0
H461 H 0.10003 0.16325 0.03903 0.0
H462 H 0.14928 0.07031 0.01967 0.0
H463 H 0.12475 0.06537 0.9886 0.0
H464 H 0.17318 0.09136 0.99599 0.0
H465 H 0.18052 0.11572 0.02366 0.0
C466 C 0.10969 0.88202 0.24818 0.0
C467 C 0.11559 0.90297 0.25858 0.0
C468 C 0.15044 0.89533 0.21918 0.0
C469 C 0.14397 0.87491 0.20295 0.0
N470 N 0.11635 0.85008 0.19039 0.0
N471 N 0.13985 0.9308 0.23798 0.0
C472 C 0.12323 0.86862 0.21399 0.0
C473 C 0.13546 0.91002 0.23945 0.0
N474 N 0.09155 0.87468 0.2731 0.0
N475 N 0.17099 0.9005 0.21896 0.0
H476 H 0.12916 0.94226 0.25047 0.0
H477 H 0.15337 0.93674 0.21791 0.0
H478 H 0.18277 0.89015 0.20681 0.0
H479 H 0.17652 0.91449 0.23723 0.0
H480 H 0.08745 0.85903 0.27252 0.0
H481 H 0.08148 0.88389 0.2999 0.0
H482 H 0.10086 0.84556 0.19162 0.0
H483 H 0.12576 0.84013 0.16381 0.0
C484 C 0.36039 0.89259 0.42734 0.0
C485 C 0.37178 0.90502 0.4706 0.0
C486 C 0.35678 0.88601 0.56081 0.0
C487 C 0.34407 0.87485 0.51779 0.0
N488 N 0.32968 0.87185 0.41142 0.0
N489 N 0.37645 0.91738 0.57871 0.0
C490 C 0.34466 0.87938 0.45134 0.0
C491 C 0.36873 0.90286 0.53749 0.0
N492 N 0.36507 0.89268 0.36372 0.0
N493 N 0.35813 0.88009 0.62333 0.0
H494 H 0.38439 0.9306 0.56353 0.0
H495 H 0.37296 0.91755 0.62727 0.0
H496 H 0.35 0.86749 0.64201 0.0
H497 H 0.36884 0.88642 0.65504 0.0
H498 H 0.35862 0.88224 0.33136 0.0
H499 H 0.37686 0.90174 0.34425 0.0
H500 H 0.32831 0.87644 0.36389 0.0
H501 H 0.31725 0.8629 0.42721 0.0
C502 C 0.36954 0.10183 0.70356 0.0
C503 C 0.3722 0.10077 0.77086 0.0
C504 C 0.34348 0.12506 0.78466 0.0
C505 C 0.34331 0.1288 0.71772 0.0
N506 N 0.35876 0.12301 0.61422 0.0
N507 N 0.36378 0.11402 0.87554 0.0
C508 C 0.35701 0.11777 0.6772 0.0
C509 C 0.35971 0.11307 0.8116 0.0
N510 N 0.37822 0.08709 0.66487 0.0
N511 N 0.32767 0.13214 0.82228 0.0
H512 H 0.37588 0.10587 0.89707 0.0
H513 H 0.35641 0.12446 0.90606 0.0
H514 H 0.31483 0.14005 0.80422 0.0
H515 H 0.32612 0.12808 0.8702 0.0
H516 H 0.37508 0.0861 0.61617 0.0
H517 H 0.38662 0.07445 0.68235 0.0
H518 H 0.37009 0.11678 0.58438 0.0
H519 H 0.35032 0.13504 0.5933 0.0
C520 C 0.85126 0.89109 0.16611 0.0
C521 C 0.83976 0.87877 0.20951 0.0
C522 C 0.85778 0.89515 0.2995 0.0
C523 C 0.86839 0.90813 0.256 0.0
N524 N 0.86937 0.92355 0.1514 0.0
N525 N 0.82733 0.87418 0.31773 0.0
C526 C 0.86335 0.90765 0.19023 0.0
C527 C 0.84159 0.88228 0.27642 0.0
N528 N 0.85147 0.88653 0.10243 0.0
N529 N 0.86352 0.89455 0.36224 0.0
H530 H 0.81443 0.86578 0.30265 0.0
H531 H 0.82696 0.87788 0.36614 0.0
H532 H 0.8752 0.90391 0.38103 0.0
H533 H 0.85775 0.88363 0.39437 0.0
H534 H 0.86123 0.89401 0.07014 0.0
H535 H 0.84356 0.87395 0.08285 0.0
H536 H 0.86484 0.92479 0.1038 0.0
H537 H 0.87643 0.93685 0.1696 0.0
C538 C 0.8495 0.09355 0.97878 0.0
C539 C 0.86974 0.0999 0.96079 0.0
C540 C 0.86396 0.13365 0.01176 0.0
C541 C 0.84302 0.12816 0.02307 0.0
N542 N 0.8146 0.10452 1.00327 0.0
N543 N 0.89469 0.12752 0.94837 0.0
C544 C 0.83539 0.10856 1.00277 0.0
C545 C 0.87655 0.12041 0.97395 0.0
N546 N 0.84394 0.07308 0.97596 0.0
N547 N 0.87204 0.15118 0.03886 0.0
H548 H 0.90397 0.11852 0.91838 0.0
H549 H 0.8994 0.14296 0.95134 0.0
H550 H 0.86343 0.16094 0.06851 0.0
H551 H 0.88774 0.15485 0.03732 0.0
H552 H 0.83016 0.06747 0.99526 0.0
H553 H 0.85384 0.06136 0.96022 0.0
H554 H 0.80818 0.09132 0.98236 0.0
H555 H 0.80353 0.11521 0.01855 0.0
C556 C 0.63648 0.11884 0.68258 0.0
C557 C 0.64851 0.13078 0.72546 0.0
C558 C 0.63147 0.11406 0.81648 0.0
C559 C 0.62048 0.10111 0.77368 0.0
N560 N 0.61696 0.08721 0.66697 0.0
N561 N 0.66182 0.13537 0.83248 0.0
C562 C 0.62428 0.10231 0.70691 0.0
C563 C 0.64732 0.1271 0.79228 0.0
N564 N 0.63597 0.12374 0.61912 0.0
N565 N 0.62624 0.11468 0.87966 0.0
H566 H 0.67432 0.14421 0.81647 0.0
H567 H 0.66278 0.13151 0.8807 0.0
H568 H 0.61439 0.10572 0.89922 0.0
H569 H 0.63235 0.12553 0.9114 0.0
H570 H 0.6257 0.11689 0.58705 0.0
H571 H 0.64444 0.13596 0.59951 0.0
H572 H 0.62097 0.08631 0.61888 0.0
H573 H 0.60878 0.07427 0.68317 0.0
C574 C 0.62759 0.89035 0.43545 0.0
C575 C 0.61673 0.90364 0.47756 0.0
C576 C 0.63285 0.88633 0.56933 0.0
C577 C 0.64513 0.87442 0.52695 0.0
N578 N 0.65847 0.86986 0.41972 0.0
N579 N 0.61327 0.91801 0.5838 0.0
C580 C 0.64375 0.87777 0.45993 0.0
C581 C 0.62054 0.90272 0.5444 0.0
N582 N 0.62208 0.8891 0.37258 0.0
N583 N 0.63236 0.88162 0.6329 0.0
H584 H 0.60512 0.93094 0.56721 0.0
H585 H 0.61731 0.91907 0.63184 0.0
H586 H 0.64086 0.86944 0.65276 0.0
H587 H 0.62202 0.88853 0.6647 0.0
H588 H 0.62822 0.87803 0.34158 0.0
H589 H 0.6099 0.89763 0.35292 0.0
H590 H 0.65913 0.87357 0.37133 0.0
H591 H 0.67142 0.86166 0.43564 0.0
C592 C 0.62165 0.63763 0.5114 0.0
C593 C 0.64249 0.63147 0.52131 0.0
C594 C 0.63456 0.59682 0.47993 0.0
C595 C 0.61435 0.6037 0.46325 0.0
N596 N 0.59002 0.63198 0.45176 0.0
N597 N 0.66999 0.6068 0.49987 0.0
C598 C 0.60824 0.6245 0.4759 0.0
C599 C 0.64932 0.6115 0.50153 0.0
N600 N 0.61453 0.65577 0.53729 0.0
N601 N 0.63956 0.57618 0.47802 0.0
H602 H 0.68158 0.6172 0.51305 0.0
H603 H 0.67576 0.59328 0.47903 0.0
H604 H 0.6293 0.56462 0.46367 0.0
H605 H 0.65332 0.57028 0.4968 0.0
H606 H 0.59897 0.66007 0.53696 0.0
H607 H 0.62387 0.66555 0.56463 0.0
H608 H 0.58574 0.64757 0.45426 0.0
H609 H 0.58017 0.62307 0.42336 0.0
C610 C 0.63153 0.41512 0.71773 0.0
C611 C 0.62429 0.41423 0.78141 0.0
C612 C 0.6486 0.38606 0.80318 0.0
C613 C 0.65239 0.38406 0.73644 0.0
N614 N 0.64511 0.39556 0.62874 0.0
N615 N 0.625 0.39812 0.88518 0.0
C616 C 0.64336 0.39839 0.69314 0.0
C617 C 0.63263 0.39956 0.82454 0.0
N618 N 0.6277 0.43233 0.68159 0.0
N619 N 0.66084 0.37585 0.84627 0.0
H620 H 0.61367 0.40816 0.90285 0.0
H621 H 0.62892 0.3861 0.91627 0.0
H622 H 0.67362 0.36692 0.83291 0.0
H623 H 0.65982 0.37821 0.89537 0.0
H624 H 0.63388 0.43451 0.63613 0.0
H625 H 0.62067 0.44551 0.70091 0.0
H626 H 0.63706 0.4046 0.59567 0.0
H627 H 0.65285 0.38299 0.60838 0.0
C628 C 0.85436 0.41107 0.99871 0.0
C629 C 0.8743 0.40442 0.97864 0.0
C630 C 0.86774 0.36996 0.02379 0.0
C631 C 0.84701 0.37591 0.03686 0.0
N632 N 0.81923 0.40077 0.02222 0.0
N633 N 0.89854 0.37643 0.96098 0.0
C634 C 0.83989 0.39609 0.02035 0.0
C635 C 0.88061 0.38352 0.98803 0.0
N636 N 0.84946 0.43174 1.00027 0.0
N637 N 0.87536 0.35167 0.04734 0.0
H638 H 0.90804 0.38577 0.93273 0.0
H639 H 0.90287 0.36083 0.96107 0.0
H640 H 0.86655 0.34163 0.07543 0.0
H641 H 0.89094 0.34751 0.04456 0.0
H642 H 0.8359 0.43738 0.02101 0.0
H643 H 0.85974 0.44345 0.98706 0.0
H644 H 0.81317 0.41457 1.00399 0.0
H645 H 0.80788 0.39015 0.03575 0.0
C646 C 0.83968 0.6124 0.23329 0.0
C647 C 0.84614 0.63281 0.21698 0.0
C648 C 0.88003 0.62609 0.26537 0.0
C649 C 0.87431 0.60506 0.27505 0.0
N650 N 0.85037 0.57704 0.25301 0.0
N651 N 0.87373 0.65782 0.20626 0.0
C652 C 0.8546 0.59784 0.2548 0.0
C653 C 0.86671 0.63932 0.22981 0.0
N654 N 0.81919 0.60708 0.23154 0.0
N655 N 0.89786 0.63361 0.29191 0.0
H656 H 0.86457 0.66761 0.17829 0.0
H657 H 0.88917 0.66243 0.20889 0.0
H658 H 0.90772 0.62449 0.31973 0.0
H659 H 0.90178 0.6493 0.29168 0.0
H660 H 0.8136 0.59311 0.24989 0.0
H661 H 0.80747 0.61729 0.21796 0.0
H662 H 0.83703 0.57102 0.23201 0.0
H663 H 0.86101 0.56563 0.26623 0.0
C664 C 0.37144 0.367 0.72175 0.0
C665 C 0.35089 0.37317 0.70692 0.0
C666 C 0.35877 0.40858 0.74171 0.0
C667 C 0.37835 0.40173 0.76442 0.0
N668 N 0.40197 0.3735 0.78591 0.0
N669 N 0.32358 0.39881 0.71785 0.0
C670 C 0.38434 0.38066 0.75717 0.0
C671 C 0.34412 0.39368 0.72095 0.0
N672 N 0.37887 0.34838 0.70023 0.0
N673 N 0.35441 0.42932 0.73684 0.0
H674 H 0.312 0.38832 0.70531 0.0
H675 H 0.31779 0.41295 0.73438 0.0
H676 H 0.36493 0.44096 0.74877 0.0
H677 H 0.34114 0.43496 0.7143 0.0
H678 H 0.39434 0.34396 0.70441 0.0
H679 H 0.37007 0.33828 0.67232 0.0
H680 H 0.40601 0.35783 0.78742 0.0
H681 H 0.41149 0.38293 0.81379 0.0
C682 C 0.35909 0.61733 0.55368 0.0
C683 C 0.34554 0.62858 0.51326 0.0
C684 C 0.36117 0.61203 0.41943 0.0
C685 C 0.37325 0.59931 0.46021 0.0
N686 N 0.37937 0.58606 0.56674 0.0
N687 N 0.32994 0.63242 0.40873 0.0
C688 C 0.37101 0.60087 0.5276 0.0
C689 C 0.3455 0.62477 0.44634 0.0
N690 N 0.36117 0.62275 0.61641 0.0
N691 N 0.36509 0.61254 0.35535 0.0
H692 H 0.31751 0.64098 0.42662 0.0
H693 H 0.32813 0.62831 0.36095 0.0
H694 H 0.37677 0.60379 0.3339 0.0
H695 H 0.3581 0.62318 0.32458 0.0
H696 H 0.37243 0.61635 0.64618 0.0
H697 H 0.3531 0.63509 0.63703 0.0
H698 H 0.37645 0.58545 0.61562 0.0
H699 H 0.38725 0.57304 0.54973 0.0
C700 C 0.13778 0.59407 0.23175 0.0
C701 C 0.11769 0.60091 0.24957 0.0
C702 C 0.1253 0.63537 0.20601 0.0
C703 C 0.14623 0.62935 0.19699 0.0
N704 N 0.17339 0.60398 0.2154 0.0
N705 N 0.09333 0.62907 0.26316 0.0
C706 C 0.15279 0.60895 0.21343 0.0
C707 C 0.11166 0.62185 0.23914 0.0
N708 N 0.14238 0.57334 0.22966 0.0
N709 N 0.11834 0.6538 0.18163 0.0
H710 H 0.08323 0.61981 0.28961 0.0
H711 H 0.08913 0.6447 0.26239 0.0
H712 H 0.12783 0.66381 0.15558 0.0
H713 H 0.10278 0.6581 0.18152 0.0
H714 H 0.15617 0.56761 0.21063 0.0
H715 H 0.13166 0.56173 0.2403 0.0
H716 H 0.17884 0.58996 0.23385 0.0
H717 H 0.18519 0.61447 0.20508 0.0
C718 C 0.12111 0.39974 0.02418 0.0
C719 C 0.11805 0.40135 0.9571 0.0
C720 C 0.14683 0.3774 0.93965 0.0
C721 C 0.14768 0.37333 1.00639 0.0
N722 N 0.13289 0.37804 0.11122 0.0
N723 N 0.12553 0.38864 0.85118 0.0
C724 C 0.13405 0.38377 0.04852 0.0
C725 C 0.1302 0.38931 0.91477 0.0
N726 N 0.11257 0.41407 0.06458 0.0
N727 N 0.16244 0.3709 0.90029 0.0
H728 H 0.11311 0.39674 0.83124 0.0
H729 H 0.13269 0.37841 0.81954 0.0
H730 H 0.17568 0.36331 0.91674 0.0
H731 H 0.1634 0.37522 0.85243 0.0
H732 H 0.11602 0.41466 0.11314 0.0
H733 H 0.10397 0.42679 0.04876 0.0
H734 H 0.12168 0.38383 0.14231 0.0
H735 H 0.14173 0.36602 0.13058 0.0
C736 C 0.22869 0.17295 0.86615 0.0
C737 C 0.23391 0.15729 0.91169 0.0
C738 C 0.25584 0.14024 0.83155 0.0
C739 C 0.24963 0.15529 0.78576 0.0
N740 N 0.22658 0.18303 0.75506 0.0
N741 N 0.24876 0.12359 0.9332 0.0
C742 C 0.23472 0.17052 0.80155 0.0
C743 C 0.24646 0.1402 0.89315 0.0
N744 N 0.21927 0.19096 0.88516 0.0
N745 N 0.27093 0.12617 0.81635 0.0
H746 H 0.24171 0.12279 0.97789 0.0
H747 H 0.25606 0.10982 0.91989 0.0
H748 H 0.27712 0.12492 0.77047 0.0
H749 H 0.27802 0.11653 0.8498 0.0
H750 H 0.21746 0.20384 0.85555 0.0
H751 H 0.21516 0.19408 0.93211 0.0
H752 H 0.21393 0.19279 0.76267 0.0
H753 H 0.2311 0.18227 0.70737 0.0
C754 C 0.06529 0.00706 0.16544 0.0
C755 C 0.08413 -0.00134 0.18871 0.0
C756 C 0.10131 0.00716 0.08742 0.0
C757 C 0.08197 0.01376 0.06227 0.0
N758 N 0.04483 0.01646 0.07288 0.0
N759 N 0.11953 0.98833 0.17086 0.0
C760 C 0.06376 0.0128 0.10019 0.0
C761 C 0.10202 -0.00197 0.14938 0.0
N762 N 0.04883 0.00954 0.20587 0.0
N763 N 0.11906 0.01036 0.05326 0.0
H764 H 0.12087 0.98244 0.21711 0.0
H765 H 0.13226 0.98511 0.14195 0.0
H766 H 0.1191 0.01685 1.00763 0.0
H767 H 0.13384 0.00799 0.0718 0.0
H768 H 0.0354 0.01758 0.19358 0.0
H769 H 0.04927 0.00515 0.25379 0.0
H770 H 0.03082 0.01393 0.09617 0.0
H771 H 0.04299 0.02007 0.02465 0.0
C772 C 0.24967 0.86316 0.32731 0.0
C773 C 0.23736 0.84615 0.30702 0.0
C774 C 0.23914 0.83104 0.41464 0.0
C775 C 0.25325 0.84674 0.43276 0.0
N776 N 0.27366 0.87684 0.40613 0.0
N777 N 0.2239 0.8117 0.32808 0.0
C778 C 0.25903 0.86256 0.38896 0.0
C779 C 0.23295 0.82955 0.34993 0.0
N780 N 0.25172 0.8802 0.28891 0.0
N781 N 0.23177 0.81738 0.45919 0.0
H782 H 0.21956 0.80948 0.28076 0.0
H783 H 0.22259 0.79822 0.35527 0.0
H784 H 0.23645 0.8175 0.50682 0.0
H785 H 0.21963 0.80713 0.4503 0.0
H786 H 0.25871 0.89397 0.30362 0.0
H787 H 0.24497 0.88121 0.2438 0.0
H788 H 0.28044 0.88717 0.37411 0.0
H789 H 0.27985 0.87759 0.4521 0.0
C790 C 0.39 0.0145 0.64975 0.0
C791 C 0.40742 0.0113 0.68995 0.0
C792 C 0.42598 0.99436 0.60249 0.0
C793 C 0.40792 0.9958 0.56393 0.0
N794 N 0.37166 0.00431 0.55364 0.0
N795 N 0.44078 0.99562 0.70877 0.0
C796 C 0.38961 0.00515 0.58817 0.0
C797 C 0.425 0.00033 0.66763 0.0
N798 N 0.37401 0.02678 0.67003 0.0
N799 N 0.44438 0.98826 0.5759 0.0
H800 H 0.44078 0.00014 0.75658 0.0
H801 H 0.45299 0.98573 0.69709 0.0
H802 H 0.44597 0.98453 0.52768 0.0
H803 H 0.4585 0.9889 0.59982 0.0
H804 H 0.36208 0.03178 0.64026 0.0
H805 H 0.37333 0.03307 0.7159 0.0
H806 H 0.35732 0.00882 0.5717 0.0
H807 H 0.37077 -0.00241 0.50845 0.0
C808 C 0.73396 0.8334 0.30468 0.0
C809 C 0.74834 0.84913 0.2893 0.0
C810 C 0.74485 0.86366 0.3971 0.0
C811 C 0.73299 0.84604 0.41534 0.0
N812 N 0.71957 0.812 0.38771 0.0
N813 N 0.76897 0.87853 0.32094 0.0
C814 C 0.72823 0.83043 0.3693 0.0
C815 C 0.75421 0.8641 0.33557 0.0
N816 N 0.72606 0.82094 0.25777 0.0
N817 N 0.7464 0.88034 0.43714 0.0
H818 H 0.7752 0.88006 0.2752 0.0
H819 H 0.7758 0.88817 0.35486 0.0
H820 H 0.73914 0.88096 0.48152 0.0
H821 H 0.75318 0.89437 0.42383 0.0
H822 H 0.71378 0.81073 0.26527 0.0
H823 H 0.73037 0.82216 0.20997 0.0
H824 H 0.71808 0.79925 0.35749 0.0
H825 H 0.71589 0.80849 0.43469 0.0
C826 C 0.91046 0.98508 0.03692 0.0
C827 C 0.90111 0.00479 0.02816 0.0
C828 C 0.89765 0.00824 0.14417 0.0
C829 C 0.90456 0.98742 0.15302 0.0
N830 N 0.9109 0.95406 0.10059 0.0
N831 N 0.87945 0.03163 0.07347 0.0
C832 C 0.90889 0.97517 0.09736 0.0
C833 C 0.89251 0.01515 0.08182 0.0
N834 N 0.92189 0.97609 0.98943 0.0
N835 N 0.89744 0.02213 0.19346 0.0
H836 H 0.87458 0.03652 0.02841 0.0
H837 H 0.87164 0.03868 0.11133 0.0
H838 H 0.90365 0.01902 0.23828 0.0
H839 H 0.89387 0.0378 0.18696 0.0
H840 H 0.93074 0.96273 0.99676 0.0
H841 H 0.92441 0.98297 0.94514 0.0
H842 H 0.91213 0.94479 0.05993 0.0
H843 H 0.90873 0.94539 0.14182 0.0
C844 C 0.75064 0.14611 0.91252 0.0
C845 C 0.74958 0.16377 0.95295 0.0
C846 C 0.73516 0.18451 0.86562 0.0
C847 C 0.73478 0.16651 0.82641 0.0
N848 N 0.73883 0.12942 0.81526 0.0
N849 N 0.73786 0.19876 0.97238 0.0
C850 C 0.74165 0.14707 0.85049 0.0
C851 C 0.74078 0.18262 0.93088 0.0
N852 N 0.76059 0.12859 0.93307 0.0
N853 N 0.73116 0.2036 0.83955 0.0
H854 H 0.74219 0.19808 0.02031 0.0
H855 H 0.72953 0.21211 0.96089 0.0
H856 H 0.72768 0.20575 0.79136 0.0
H857 H 0.73327 0.21753 0.86391 0.0
H858 H 0.76416 0.11611 0.90338 0.0
H859 H 0.76632 0.127 0.97942 0.0
H860 H 0.74145 0.11453 0.83296 0.0
H861 H 0.73235 0.12952 0.76966 0.0
C862 C 0.60059 0.00164 0.65887 0.0
C863 C 0.58221 0.01087 0.68289 0.0
C864 C 0.5657 0.00745 0.57782 0.0
C865 C 0.58337 0.99662 0.55541 0.0
N866 N 0.61669 0.98097 0.57563 0.0
N867 N 0.54599 0.01912 0.66953 0.0
C868 C 0.60056 0.99299 0.59631 0.0
C869 C 0.56441 0.01289 0.64342 0.0
N870 N 0.6183 0.00193 0.69467 0.0
N871 N 0.5501 0.01247 0.53638 0.0
H872 H 0.54427 0.02254 0.71793 0.0
H873 H 0.53197 0.01895 0.64498 0.0
H874 H 0.55029 0.00829 0.4883 0.0
H875 H 0.53782 0.02226 0.54818 0.0
H876 H 0.63275 -0.00242 0.67707 0.0
H877 H 0.61887 0.00795 0.74084 0.0
H878 H 0.62841 0.97557 0.60554 0.0
H879 H 0.61775 0.97538 0.52898 0.0
C880 C 0.74666 0.64042 0.40261 0.0
C881 C 0.73582 0.6583 0.42406 0.0
C882 C 0.7386 0.67379 0.31718 0.0
C883 C 0.75132 0.65705 0.29787 0.0
N884 N 0.76919 0.62516 0.32235 0.0
N885 N 0.72503 0.69381 0.40506 0.0
C886 C 0.75586 0.64054 0.3407 0.0
C887 C 0.73266 0.67544 0.38208 0.0
N888 N 0.74742 0.62307 0.44014 0.0
N889 N 0.73227 0.68829 0.27352 0.0
H890 H 0.72091 0.69603 0.45256 0.0
H891 H 0.72471 0.70752 0.37868 0.0
H892 H 0.73679 0.68803 0.22575 0.0
H893 H 0.72106 0.6995 0.28321 0.0
H894 H 0.75321 0.60884 0.42459 0.0
H895 H 0.74078 0.62241 0.48546 0.0
H896 H 0.77515 0.61407 0.35355 0.0
H897 H 0.77507 0.62413 0.27608 0.0
C898 C 0.58248 0.49 0.55091 0.0
C899 C 0.58826 0.51103 0.54202 0.0
C900 C 0.59053 0.51539 0.65802 0.0
C901 C 0.58702 0.49377 0.66713 0.0
N902 N 0.5864 0.45963 0.6167 0.0
N903 N 0.60466 0.54136 0.58728 0.0
C904 C 0.58514 0.48077 0.61198 0.0
C905 C 0.59464 0.52289 0.59566 0.0
N906 N 0.57332 0.47899 0.50283 0.0
N907 N 0.58837 0.52921 0.70709 0.0
H908 H 0.60872 0.54694 0.54227 0.0
H909 H 0.61103 0.54973 0.62512 0.0
H910 H 0.58292 0.52517 0.75212 0.0
H911 H 0.58924 0.54524 0.70038 0.0
H912 H 0.56688 0.46432 0.50992 0.0
H913 H 0.57014 0.48516 0.45794 0.0
H914 H 0.58707 0.44998 0.57678 0.0
H915 H 0.58927 0.45178 0.65909 0.0
C916 C 0.73718 0.32537 0.87526 0.0
C917 C 0.73744 0.34373 0.83762 0.0
C918 C 0.75383 0.36274 0.9256 0.0
C919 C 0.75219 0.34475 0.96443 0.0
N920 N 0.73933 0.31003 0.98075 0.0
N921 N 0.7427 0.38074 0.8297 0.0
C922 C 0.74279 0.32645 0.94069 0.0
C923 C 0.74489 0.36269 0.86344 0.0
N924 N 0.73257 0.30669 0.84751 0.0
N925 N 0.7643 0.37972 0.94779 0.0
H926 H 0.7363 0.38129 0.78402 0.0
H927 H 0.74576 0.39537 0.8487 0.0
H928 H 0.76999 0.38067 0.99434 0.0
H929 H 0.76829 0.39234 0.91925 0.0
H930 H 0.73418 0.29247 0.87067 0.0
H931 H 0.72908 0.30512 0.79913 0.0
H932 H 0.7306 0.29708 0.96807 0.0
H933 H 0.74363 0.31012 0.02875 0.0
C934 C 0.88751 0.5131 0.15274 0.0
C935 C 0.9055 0.51158 0.19144 0.0
C936 C 0.92532 0.49815 0.10068 0.0
C937 C 0.90697 0.49808 0.06331 0.0
N938 N 0.87004 0.50284 0.055 0.0
N939 N 0.94076 0.50019 0.20605 0.0
C940 C 0.88788 0.50491 0.08955 0.0
C941 C 0.92416 0.50328 0.16651 0.0
N942 N 0.87021 0.52274 0.17611 0.0
N943 N 0.94398 0.49401 0.0724 0.0
H944 H 0.94057 0.50408 0.25439 0.0
H945 H 0.9541 0.49222 0.19253 0.0
H946 H 0.94545 0.49061 0.02389 0.0
H947 H 0.95819 0.4958 0.0952 0.0
H948 H 0.85744 0.52659 0.14815 0.0
H949 H 0.86909 0.52789 0.22321 0.0
H950 H 0.85532 0.50529 0.07389 0.0
H951 H 0.86986 0.49737 1.00812 0.0
C952 C 0.24407 0.33113 0.80691 0.0
C953 C 0.25649 0.34814 0.78808 0.0
C954 C 0.25159 0.3643 0.89333 0.0
C955 C 0.24109 0.34617 0.91426 0.0
N956 N 0.23099 0.31057 0.89429 0.0
N957 N 0.27391 0.38013 0.81365 0.0
C958 C 0.23823 0.32914 0.8718 0.0
C959 C 0.26079 0.36453 0.83144 0.0
N960 N 0.23796 0.31671 0.7628 0.0
N961 N 0.25202 0.38156 0.9313 0.0
H962 H 0.27983 0.38137 0.76747 0.0
H963 H 0.27971 0.39117 0.84526 0.0
H964 H 0.24536 0.38198 0.97661 0.0
H965 H 0.25754 0.39592 0.91607 0.0
H966 H 0.22698 0.30528 0.77224 0.0
H967 H 0.2424 0.31725 0.71498 0.0
H968 H 0.23086 0.29696 0.86745 0.0
H969 H 0.22707 0.30812 0.94185 0.0
C970 C 0.42314 0.50546 0.58129 0.0
C971 C 0.40404 0.5084 0.54895 0.0
C972 C 0.3852 0.49537 0.64255 0.0
C973 C 0.40422 0.49408 0.67628 0.0
N974 N 0.44078 0.50137 0.68257 0.0
N975 N 0.36671 0.50897 0.55051 0.0
C976 C 0.42304 0.50019 0.64699 0.0
C977 C 0.38497 0.50408 0.57995 0.0
N978 N 0.44139 0.507 0.54845 0.0
N979 N 0.36752 0.48769 0.66956 0.0
H980 H 0.366 0.51499 0.50433 0.0
H981 H 0.35238 0.50836 0.57323 0.0
H982 H 0.36708 0.48185 0.716 0.0
H983 H 0.35364 0.48595 0.64481 0.0
H984 H 0.45571 0.50294 0.56768 0.0
H985 H 0.44209 0.51042 0.4998 0.0
H986 H 0.45454 0.50777 0.6657 0.0
H987 H 0.44125 0.49776 0.73113 0.0
C988 C 0.2377 0.67044 0.42715 0.0
C989 C 0.25263 0.65515 0.44233 0.0
C990 C 0.24953 0.64057 0.33431 0.0
C991 C 0.2368 0.65764 0.31659 0.0
N992 N 0.222 0.69109 0.34433 0.0
N993 N 0.27413 0.62635 0.41045 0.0
C994 C 0.23158 0.67309 0.36269 0.0
C995 C 0.25893 0.64038 0.39589 0.0
N996 N 0.22958 0.68275 0.47413 0.0
N997 N 0.25193 0.62417 0.29355 0.0
H998 H 0.28037 0.62494 0.45622 0.0
H999 H 0.28126 0.6169 0.37659 0.0
H1000 H 0.24488 0.62354 0.24881 0.0
H1001 H 0.25933 0.61039 0.30624 0.0
H1002 H 0.21691 0.69253 0.46697 0.0
H1003 H 0.23417 0.68184 0.52174 0.0
H1004 H 0.22011 0.70385 0.37432 0.0
H1005 H 0.21784 0.6943 0.29746 0.0
C1006 C 0.10473 0.49975 0.14598 0.0
C1007 C 0.08569 0.5062 0.17339 0.0
C1008 C 0.06759 0.49901 0.07296 0.0
C1009 C 0.08631 0.49124 0.04687 0.0
N1010 N 0.12205 0.4813 0.05999 0.0
N1011 N 0.04843 0.50842 0.16814 0.0
C1012 C 0.10474 0.49078 0.08379 0.0
C1013 C 0.06694 0.50479 0.13827 0.0
N1014 N 0.12283 0.50291 0.17838 0.0
N1015 N 0.05053 0.50123 0.03478 0.0
H1016 H 0.04735 0.51233 0.21638 0.0
H1017 H 0.03409 0.50568 0.1471 0.0
H1018 H 0.05043 0.49708 0.98663 0.0
H1019 H 0.03706 0.50883 0.04905 0.0
H1020 H 0.13742 0.50076 0.15823 0.0
H1021 H 0.12329 0.50896 0.22456 0.0
H1022 H 0.13526 0.47832 0.08708 0.0
H1023 H 0.12275 0.47521 0.01387 0.0
C1024 C 0.21455 0.24171 0.06716 0.0
C1025 C 0.20183 0.23109 0.11164 0.0
C1026 C 0.18928 0.2644 0.15367 0.0
C1027 C 0.20336 0.2749 0.11272 0.0
N1028 N 0.23144 0.27344 0.03587 0.0
N1029 N 0.17883 0.23169 0.20207 0.0
C1030 C 0.21664 0.26352 0.07134 0.0
C1031 C 0.18952 0.24225 0.15604 0.0
N1032 N 0.22389 0.23104 0.0185 0.0
N1033 N 0.17581 0.27562 0.19042 0.0
H1034 H 0.17874 0.21551 0.20494 0.0
H1035 H 0.17127 0.23884 0.24005 0.0
H1036 H 0.17614 0.2918 0.19301 0.0
H1037 H 0.16361 0.26903 0.2158 0.0
H1038 H 0.23089 0.23818 0.97947 0.0
H1039 H 0.22311 0.21498 0.01369 0.0
H1040 H 0.24348 0.26569 0.01283 0.0
H1041 H 0.23276 0.28948 0.03233 0.0
C1042 C 0.00499 0.94553 0.31451 0.0
C1043 C 0.01543 0.94895 0.37323 0.0
C1044 C 0.9822 0.95193 0.42906 0.0
C1045 C 0.97185 0.94782 0.37073 0.0
N1046 N 0.97307 0.93668 0.26058 0.0
N1047 N 0.01466 0.9514 0.48783 0.0
C1048 C 0.98317 0.94311 0.31449 0.0
C1049 C 0.00421 0.95093 0.43109 0.0
N1050 N 0.01569 0.94618 0.2581 0.0
N1051 N 0.97097 0.95722 0.48195 0.0
H1052 H 0.03077 0.95028 0.49048 0.0
H1053 H 0.00743 0.95107 0.53222 0.0
H1054 H 0.9548 0.95712 0.48266 0.0
H1055 H 0.97757 0.96272 0.524 0.0
H1056 H 0.00856 0.94647 0.21353 0.0
H1057 H 0.03167 0.94828 0.25519 0.0
H1058 H 0.98068 0.93061 0.22091 0.0
H1059 H 0.957 0.93582 0.25686 0.0
C1060 C 0.29566 0.76224 0.68295 0.0
C1061 C 0.29571 0.77274 0.62346 0.0
C1062 C 0.2983 0.73957 0.56655 0.0
C1063 C 0.29636 0.72896 0.6257 0.0
N1064 N 0.29237 0.72949 0.73996 0.0
N1065 N 0.29447 0.77189 0.50834 0.0
C1066 C 0.29483 0.74011 0.68396 0.0
C1067 C 0.29655 0.76155 0.56515 0.0
N1068 N 0.29692 0.77347 0.73821 0.0
N1069 N 0.30168 0.72861 0.51153 0.0
H1070 H 0.29331 0.78801 0.50489 0.0
H1071 H 0.2923 0.76451 0.46465 0.0
H1072 H 0.3017 0.71244 0.50934 0.0
H1073 H 0.30586 0.73549 0.46844 0.0
H1074 H 0.29876 0.76689 0.78322 0.0
H1075 H 0.29759 0.78967 0.73868 0.0
H1076 H 0.28872 0.7365 0.78328 0.0
H1077 H 0.29315 0.71332 0.74264 0.0
C1078 C 0.4852 0.06403 0.82894 0.0
C1079 C 0.47452 0.06004 0.88683 0.0
C1080 C 0.50749 0.05844 0.94485 0.0
C1081 C 0.51807 0.05948 0.88569 0.0
N1082 N 0.51744 0.06159 0.77051 0.0
N1083 N 0.47464 0.05438 1.00031 0.0
C1084 C 0.50709 0.06225 0.82755 0.0
C1085 C 0.48544 0.0577 0.94514 0.0
N1086 N 0.4744 0.06917 0.77497 0.0
N1087 N 0.51862 0.05837 1.00038 0.0
H1088 H 0.45851 0.05533 1.00237 0.0
H1089 H 0.48143 0.05017 0.04346 0.0
H1090 H 0.53478 0.05899 1.00106 0.0
H1091 H 0.51203 0.0592 0.04561 0.0
H1092 H 0.48139 0.07467 0.7335 0.0
H1093 H 0.45828 0.06957 0.7727 0.0
H1094 H 0.51009 0.06059 0.72638 0.0
H1095 H 0.53351 0.0605 0.76679 0.0
C1096 C 0.18663 0.76342 0.07483 0.0
C1097 C 0.20043 0.77465 0.11476 0.0
C1098 C 0.21313 0.74216 0.16134 0.0
C1099 C 0.20088 0.73083 0.11725 0.0
N1100 N 0.17758 0.73014 0.02752 0.0
N1101 N 0.22873 0.77472 0.19099 0.0
C1102 C 0.1879 0.7413 0.07299 0.0
C1103 C 0.21427 0.76402 0.15633 0.0
N1104 N 0.17246 0.7739 0.03851 0.0
N1105 N 0.22296 0.73208 0.21027 0.0
H1106 H 0.22943 0.79083 0.19351 0.0
H1107 H 0.24109 0.76757 0.21429 0.0
H1108 H 0.22278 0.71602 0.21572 0.0
H1109 H 0.22972 0.73966 0.24891 0.0
H1110 H 0.1605 0.76668 0.01372 0.0
H1111 H 0.17192 0.79008 0.03598 0.0
H1112 H 0.16956 0.73684 0.98964 0.0
H1113 H 0.17825 0.71396 0.02497 0.0
C1114 C 0.4835 0.94993 0.30173 0.0
C1115 C 0.47281 0.94838 0.36065 0.0
C1116 C 0.50556 0.94641 0.41895 0.0
C1117 C 0.51633 0.94814 0.36009 0.0
N1118 N 0.51639 0.94787 0.24529 0.0
N1119 N 0.47299 0.94059 0.4734 0.0
C1120 C 0.50552 0.94871 0.30124 0.0
C1121 C 0.48365 0.94494 0.41854 0.0
N1122 N 0.47252 0.95299 0.24672 0.0
N1123 N 0.51612 0.94774 0.47551 0.0
H1124 H 0.45687 0.94034 0.47602 0.0
H1125 H 0.48007 0.93556 0.51532 0.0
H1126 H 0.5322 0.94883 0.47858 0.0
H1127 H 0.50893 0.94939 0.5197 0.0
H1128 H 0.47922 0.95665 0.20298 0.0
H1129 H 0.45636 0.95249 0.2454 0.0
H1130 H 0.50955 0.94658 0.2005 0.0
H1131 H 0.53253 0.94694 0.24398 0.0
C1132 C 0.29659 0.24028 0.54521 0.0
C1133 C 0.29548 0.22939 0.60393 0.0
C1134 C 0.29827 0.26207 0.66338 0.0
C1135 C 0.29763 0.27313 0.60474 0.0
N1136 N 0.2952 0.27349 0.49002 0.0
N1137 N 0.29253 0.22952 0.71878 0.0
C1138 C 0.29653 0.26242 0.54559 0.0
C1139 C 0.29578 0.24016 0.66304 0.0
N1140 N 0.29825 0.22938 0.48942 0.0
N1141 N 0.3011 0.27254 0.71958 0.0
H1142 H 0.29077 0.21343 0.72093 0.0
H1143 H 0.28995 0.23667 0.76262 0.0
H1144 H 0.30155 0.28869 0.72286 0.0
H1145 H 0.30437 0.26525 0.76278 0.0
H1146 H 0.30098 0.23618 0.44517 0.0
H1147 H 0.29832 0.21318 0.4879 0.0
H1148 H 0.29191 0.26691 0.44583 0.0
H1149 H 0.29655 0.28964 0.48846 0.0
C1150 C 0.97903 0.0569 0.90764 0.0
C1151 C 0.96958 0.05539 0.84656 0.0
C1152 C 0.00366 0.05528 0.79508 0.0
C1153 C 0.01302 0.0571 0.85611 0.0
N1154 N 0.01004 0.06366 0.96923 0.0
N1155 N 0.97201 0.05636 0.73203 0.0
C1156 C 0.00081 0.05939 0.9119 0.0
C1157 C 0.98166 0.05556 0.79009 0.0
N1158 N 0.96738 0.05447 0.96177 0.0
N1159 N 0.01588 0.05294 0.74228 0.0
H1160 H 0.95591 0.05652 0.72729 0.0
H1161 H 0.97975 0.05832 0.68891 0.0
H1162 H 0.032 0.05409 0.74408 0.0
H1163 H 0.01025 0.0491 0.69726 0.0
H1164 H 0.9737 0.05271 1.00717 0.0
H1165 H 0.95136 0.05246 0.9614 0.0
H1166 H 0.00184 0.068 0.00989 0.0
H1167 H 0.02604 0.06448 0.97542 0.0
C1168 C 0.79261 0.74245 0.05128 0.0
C1169 C 0.79314 0.73214 0.11118 0.0
C1170 C 0.79241 0.76556 0.16718 0.0
C1171 C 0.7926 0.7759 0.10733 0.0
N1172 N 0.79557 0.77502 0.99293 0.0
N1173 N 0.79633 0.73339 0.22604 0.0
C1174 C 0.79346 0.76456 0.04939 0.0
C1175 C 0.79404 0.74357 0.16908 0.0
N1176 N 0.79109 0.73104 0.99644 0.0
N1177 N 0.78954 0.77672 0.22213 0.0
H1178 H 0.79613 0.71726 0.23042 0.0
H1179 H 0.79977 0.74084 0.26882 0.0
H1180 H 0.78857 0.79289 0.22319 0.0
H1181 H 0.78658 0.77002 0.2664 0.0
H1182 H 0.78823 0.73742 0.95166 0.0
H1183 H 0.79184 0.71485 0.99605 0.0
H1184 H 0.7981 0.76783 0.94915 0.0
H1185 H 0.79624 0.79119 0.99039 0.0
C1186 C 0.68628 0.24555 0.68351 0.0
C1187 C 0.69086 0.23512 0.6255 0.0
C1188 C 0.69355 0.26847 0.56953 0.0
C1189 C 0.69179 0.27876 0.62905 0.0
N1190 N 0.68765 0.2777 0.74351 0.0
N1191 N 0.69804 0.2358 0.51286 0.0
C1192 C 0.68806 0.26751 0.68615 0.0
C1193 C 0.69408 0.24636 0.56813 0.0
N1194 N 0.68058 0.23444 0.73636 0.0
N1195 N 0.69452 0.27995 0.51468 0.0
H1196 H 0.69701 0.21965 0.5098 0.0
H1197 H 0.70287 0.24279 0.47066 0.0
H1198 H 0.694 0.29616 0.51481 0.0
H1199 H 0.69437 0.27362 0.46901 0.0
H1200 H 0.67475 0.24121 0.77775 0.0
H1201 H 0.68016 0.21827 0.73771 0.0
H1202 H 0.68787 0.27023 0.78756 0.0
H1203 H 0.68843 0.29382 0.74767 0.0
C1204 C 0.80203 0.26288 0.20189 0.0
C1205 C 0.80189 0.27404 0.14357 0.0
C1206 C 0.80461 0.24157 0.08318 0.0
C1207 C 0.80197 0.23035 0.14091 0.0
N1208 N 0.79872 0.2295 0.25529 0.0
N1209 N 0.80095 0.27446 0.02826 0.0
C1210 C 0.80099 0.24079 0.20046 0.0
C1211 C 0.803 0.26355 0.08406 0.0
N1212 N 0.80345 0.27348 0.25828 0.0
N1213 N 0.80827 0.23122 0.02725 0.0
H1214 H 0.79969 0.29059 0.02626 0.0
H1215 H 0.79886 0.26751 0.98388 0.0
H1216 H 0.80841 0.21508 0.02348 0.0
H1217 H 0.81279 0.23858 0.98526 0.0
H1218 H 0.80526 0.26641 0.30258 0.0
H1219 H 0.8043 0.28966 0.26036 0.0
H1220 H 0.79544 0.23598 0.29965 0.0
H1221 H 0.79949 0.21331 0.25596 0.0
C1222 C 0.71332 0.74088 0.58015 0.0
C1223 C 0.69975 0.72999 0.62177 0.0
C1224 C 0.6875 0.76309 0.66642 0.0
C1225 C 0.69995 0.77383 0.62145 0.0
N1226 N 0.72103 0.77299 0.52613 0.0
N1227 N 0.67245 0.73028 0.70028 0.0
C1228 C 0.71189 0.76273 0.57591 0.0
C1229 C 0.68628 0.74098 0.66344 0.0
N1230 N 0.72776 0.73048 0.54453 0.0
N1231 N 0.67762 0.77397 0.7135 0.0
H1232 H 0.672 0.71409 0.70203 0.0
H1233 H 0.66068 0.73736 0.72638 0.0
H1234 H 0.67834 0.79012 0.71703 0.0
H1235 H 0.67001 0.76701 0.75172 0.0
H1236 H 0.7399 0.73787 0.52098 0.0
H1237 H 0.72875 0.71439 0.54169 0.0
H1238 H 0.72749 0.76551 0.48677 0.0
H1239 H 0.72048 0.78902 0.52068 0.0
C1240 C 0.5085 0.44892 0.82419 0.0
C1241 C 0.51912 0.45551 0.88001 0.0
C1242 C 0.48598 0.46073 0.93516 0.0
C1243 C 0.47548 0.45605 0.87748 0.0
N1244 N 0.47649 0.4492 0.76414 0.0
N1245 N 0.5186 0.46899 0.98726 0.0
C1246 C 0.48664 0.45084 0.82135 0.0
C1247 C 0.50802 0.46176 0.93526 0.0
N1248 N 0.5193 0.44115 0.77326 0.0
N1249 N 0.47485 0.46373 0.98993 0.0
H1250 H 0.53474 0.46886 0.99011 0.0
H1251 H 0.51152 0.47605 0.02628 0.0
H1252 H 0.45869 0.46317 0.99112 0.0
H1253 H 0.4815 0.46528 0.03491 0.0
H1254 H 0.51227 0.43358 0.73507 0.0
H1255 H 0.53541 0.44089 0.77061 0.0
H1256 H 0.48401 0.44805 0.72034 0.0
H1257 H 0.4605 0.45088 0.7592 0.0
C1258 C 0.98462 0.5582 0.31718 0.0
C1259 C 0.97485 0.55671 0.37778 0.0
C1260 C 0.00872 0.55571 0.43067 0.0
C1261 C 0.01831 0.5549 0.36988 0.0
N1262 N 0.01583 0.553 0.25504 0.0
N1263 N 0.97687 0.55316 0.49205 0.0
C1264 C 0.00642 0.55581 0.31301 0.0
C1265 C 0.98671 0.55531 0.43463 0.0
N1266 N 0.97305 0.56154 0.26336 0.0
N1267 N 0.02072 0.5572 0.48425 0.0
H1268 H 0.9608 0.55391 0.49673 0.0
H1269 H 0.98446 0.54969 0.53458 0.0
H1270 H 0.03688 0.55758 0.48244 0.0
H1271 H 0.01483 0.55964 0.52986 0.0
H1272 H 0.97944 0.56541 0.21932 0.0
H1273 H 0.95692 0.56187 0.26298 0.0
H1274 H 0.00779 0.55068 0.21258 0.0
H1275 H 0.03181 0.55141 0.24946 0.0
C1276 C 0.98349 0.451 0.7999 0.0
C1277 C 0.97385 0.45083 0.8607 0.0
C1278 C 0.0075 0.4465 0.91292 0.0
C1279 C 0.0173 0.44912 0.85283 0.0
N1280 N 0.01542 0.45425 0.7392 0.0
N1281 N 0.97637 0.45099 0.97578 0.0
C1282 C 0.0055 0.45136 0.79616 0.0
C1283 C 0.98573 0.44896 0.91743 0.0
N1284 N 0.97152 0.45048 0.74606 0.0
N1285 N 0.01904 0.44192 0.96591 0.0
H1286 H 0.96044 0.4528 0.9817 0.0
H1287 H 0.98449 0.45256 0.01845 0.0
H1288 H 0.03517 0.44105 0.9657 0.0
H1289 H 0.01261 0.4374 0.0093 0.0
H1290 H 0.97744 0.44875 0.70018 0.0
H1291 H 0.95536 0.45023 0.74764 0.0
H1292 H 0.00793 0.45842 0.69709 0.0
H1293 H 0.03149 0.45329 0.73463 0.0
C1294 C 0.48339 0.54463 0.29096 0.0
C1295 C 0.472 0.54989 0.34664 0.0
C1296 C 0.50431 0.55665 0.40441 0.0
C1297 C 0.51559 0.55277 0.34743 0.0
N1298 N 0.51611 0.5466 0.23413 0.0
N1299 N 0.47123 0.56347 0.45436 0.0
C1300 C 0.50518 0.54782 0.28992 0.0
C1301 C 0.48234 0.55696 0.40243 0.0
N1302 N 0.47346 0.53609 0.23972 0.0
N1303 N 0.51449 0.5584 0.46151 0.0
H1304 H 0.45519 0.56214 0.45813 0.0
H1305 H 0.47783 0.57143 0.49255 0.0
H1306 H 0.53055 0.55776 0.46605 0.0
H1307 H 0.50702 0.55859 0.50554 0.0
H1308 H 0.48112 0.52978 0.2005 0.0
H1309 H 0.45749 0.53393 0.23846 0.0
H1310 H 0.5092 0.54506 0.18947 0.0
H1311 H 0.53208 0.54898 0.23191 0.0
C1312 C 0.24463 0.17557 0.31862 0.0
C1313 C 0.24315 0.1564 0.28539 0.0
C1314 C 0.2505 0.13759 0.38522 0.0
C1315 C 0.25368 0.15688 0.41665 0.0
N1316 N 0.25849 0.19401 0.40948 0.0
N1317 N 0.24672 0.11919 0.2843 0.0
C1318 C 0.25211 0.1758 0.38221 0.0
C1319 C 0.24662 0.13736 0.31795 0.0
N1320 N 0.23799 0.19357 0.29046 0.0
N1321 N 0.25056 0.11963 0.41997 0.0
H1322 H 0.24365 0.11859 0.23543 0.0
H1323 H 0.25118 0.10496 0.3036 0.0
H1324 H 0.25361 0.11935 0.46887 0.0
H1325 H 0.24627 0.10526 0.4015 0.0
H1326 H 0.23654 0.20757 0.31501 0.0
H1327 H 0.23186 0.19418 0.24445 0.0
H1328 H 0.25991 0.20787 0.38412 0.0
H1329 H 0.26443 0.19493 0.4557 0.0
C1330 C 0.06507 -0.0019 0.59369 0.0
C1331 C 0.08402 -0.00237 0.55939 0.0
C1332 C 0.10288 0.00613 0.65821 0.0
C1333 C 0.08368 0.0086 0.69054 0.0
N1334 N 0.04636 0.01147 0.68461 0.0
N1335 N 0.12087 0.00325 0.55646 0.0
C1336 C 0.06474 0.00581 0.65706 0.0
C1337 C 0.10296 0.00214 0.591 0.0
N1338 N 0.04738 0.99041 0.56658 0.0
N1339 N 0.12095 0.00695 0.69206 0.0
H1340 H 0.12142 0.00022 0.50757 0.0
H1341 H 0.13484 0.00858 0.57507 0.0
H1342 H 0.12136 0.00988 0.74101 0.0
H1343 H 0.13535 0.0032 0.67286 0.0
H1344 H 0.03368 0.98817 0.59196 0.0
H1345 H 0.04688 0.98424 0.5206 0.0
H1346 H 0.03241 0.01202 0.65966 0.0
H1347 H 0.04526 0.01768 0.73041 0.0
C1348 C 0.24773 0.86691 0.90089 0.0
C1349 C 0.24325 0.84809 0.93347 0.0
C1350 C 0.25159 0.82818 0.83711 0.0
C1351 C 0.25419 0.84696 0.80256 0.0
N1352 N 0.25279 0.88432 0.79885 0.0
N1353 N 0.23617 0.81126 0.92826 0.0
C1354 C 0.2518 0.86642 0.83374 0.0
C1355 C 0.24386 0.82886 0.90034 0.0
N1356 N 0.24864 0.88508 0.93442 0.0
N1357 N 0.25728 0.80963 0.81039 0.0
H1358 H 0.22975 0.81104 0.97391 0.0
H1359 H 0.23412 0.79734 0.90367 0.0
H1360 H 0.26343 0.80835 0.76454 0.0
H1361 H 0.25792 0.79577 0.83601 0.0
H1362 H 0.25385 0.89903 0.91514 0.0
H1363 H 0.24546 0.88588 0.9832 0.0
H1364 H 0.24911 0.8989 0.8171 0.0
H1365 H 0.25596 0.8844 0.75002 0.0
C1366 C 0.38686 0.00716 0.09212 0.0
C1367 C 0.40608 0.01019 0.06047 0.0
C1368 C 0.42471 0.00121 0.15866 0.0
C1369 C 0.40562 6e-05 0.19213 0.0
N1370 N 0.36854 0.00419 0.19327 0.0
N1371 N 0.44318 0.01471 0.06753 0.0
C1372 C 0.38664 0.0036 0.15953 0.0
C1373 C 0.42496 0.00851 0.09486 0.0
N1374 N 0.36892 0.00703 0.05748 0.0
N1375 N 0.44262 0.99445 0.18682 0.0
H1376 H 0.4442 0.0205 0.02118 0.0
H1377 H 0.45699 0.01612 0.09294 0.0
H1378 H 0.44326 0.98857 0.23312 0.0
H1379 H 0.45651 0.99268 0.16206 0.0
H1380 H 0.35461 0.0028 0.07631 0.0
H1381 H 0.36861 0.00968 1.00836 0.0
H1382 H 0.35443 0.00878 0.17374 0.0
H1383 H 0.36792 0.00153 0.24236 0.0
C1384 C 0.75064 0.82968 0.88653 0.0
C1385 C 0.75217 0.84871 0.92026 0.0
C1386 C 0.74537 0.8679 0.82076 0.0
C1387 C 0.74195 0.84875 0.78887 0.0
N1388 N 0.73669 0.81163 0.79516 0.0
N1389 N 0.74918 0.88599 0.9222 0.0
C1390 C 0.74331 0.8297 0.82281 0.0
C1391 C 0.74912 0.8679 0.88809 0.0
N1392 N 0.75692 0.81153 0.91463 0.0
N1393 N 0.74554 0.88595 0.78643 0.0
H1394 H 0.75217 0.88643 0.97113 0.0
H1395 H 0.74499 0.90033 0.90314 0.0
H1396 H 0.74255 0.88637 0.7375 0.0
H1397 H 0.74995 0.90024 0.80528 0.0
H1398 H 0.75836 0.79757 0.88983 0.0
H1399 H 0.76273 0.81075 0.96102 0.0
H1400 H 0.73515 0.79773 0.8202 0.0
H1401 H 0.73068 0.81088 0.74905 0.0
C1402 C 0.89483 0.02075 0.60774 0.0
C1403 C 0.89585 0.00567 0.65751 0.0
C1404 C 0.89844 0.97823 0.57649 0.0
C1405 C 0.89562 0.9931 0.52681 0.0
N1406 N 0.884 0.02762 0.49911 0.0
N1407 N 0.89089 0.9697 0.68643 0.0
C1408 C 0.89144 0.01407 0.54376 0.0
C1409 C 0.89507 0.9843 0.64093 0.0
N1410 N 0.89854 0.04127 0.61974 0.0
N1411 N 0.9059 0.95878 0.56381 0.0
H1412 H 0.88719 0.97362 0.73339 0.0
H1413 H 0.88859 0.95407 0.67548 0.0
H1414 H 0.91054 0.95386 0.51876 0.0
H1415 H 0.9099 0.94833 0.59982 0.0
H1416 H 0.89988 0.05228 0.58345 0.0
H1417 H 0.90264 0.04705 0.66432 0.0
H1418 H 0.87915 0.04262 0.5105 0.0
H1419 H 0.88032 0.02303 0.45271 0.0
C1420 C 0.75029 0.18356 0.35663 0.0
C1421 C 0.75061 0.1644 0.32314 0.0
C1422 C 0.74249 0.14594 0.423 0.0
C1423 C 0.74023 0.16534 0.45463 0.0
N1424 N 0.73745 0.20273 0.44743 0.0
N1425 N 0.74476 0.12746 0.3219 0.0
C1426 C 0.74289 0.18418 0.4203 0.0
C1427 C 0.74616 0.14556 0.35567 0.0
N1428 N 0.75787 0.20118 0.32853 0.0
N1429 N 0.74178 0.12796 0.45761 0.0
H1430 H 0.74748 0.12669 0.27287 0.0
H1431 H 0.73946 0.11356 0.34133 0.0
H1432 H 0.73907 0.12776 0.5067 0.0
H1433 H 0.7454 0.11343 0.43883 0.0
H1434 H 0.76023 0.21502 0.35328 0.0
H1435 H 0.76381 0.2015 0.28229 0.0
H1436 H 0.73677 0.21663 0.42197 0.0
H1437 H 0.73155 0.20404 0.49355 0.0
C1438 C 0.59469 0.01733 0.16757 0.0
C1439 C 0.59194 0.99621 0.18511 0.0
C1440 C 0.5943 0.98686 0.07163 0.0
C1441 C 0.59213 0.00805 0.0541 0.0
N1442 N 0.58672 0.04361 0.08931 0.0
N1443 N 0.5857 0.96081 0.14995 0.0
C1444 C 0.59165 0.02344 0.10297 0.0
C1445 C 0.5911 0.98084 0.13625 0.0
N1446 N 0.60034 0.0316 0.21253 0.0
N1447 N 0.59954 0.97243 0.02664 0.0
H1448 H 0.58184 0.95561 0.19542 0.0
H1449 H 0.58286 0.94977 0.11462 0.0
H1450 H 0.60279 0.97643 0.97943 0.0
H1451 H 0.60301 0.95704 0.03801 0.0
H1452 H 0.60422 0.04688 0.20111 0.0
H1453 H 0.60351 0.02751 0.25974 0.0
H1454 H 0.58415 0.05471 0.12469 0.0
H1455 H 0.58294 0.04891 0.04389 0.0
C1456 C 0.74859 0.67614 0.89426 0.0
C1457 C 0.75227 0.65753 0.92883 0.0
C1458 C 0.74678 0.63726 0.83054 0.0
C1459 C 0.74131 0.65582 0.79796 0.0
N1460 N 0.73237 0.69224 0.80291 0.0
N1461 N 0.75272 0.62013 0.93258 0.0
C1462 C 0.7409 0.67505 0.83104 0.0
C1463 C 0.75085 0.63797 0.89767 0.0
N1464 N 0.75331 0.69498 0.92082 0.0
N1465 N 0.74854 0.61915 0.79703 0.0
H1466 H 0.75581 0.62019 0.98147 0.0
H1467 H 0.7498 0.60539 0.91431 0.0
H1468 H 0.74526 0.61818 0.74835 0.0
H1469 H 0.7545 0.60547 0.81625 0.0
H1470 H 0.75319 0.70884 0.89512 0.0
H1471 H 0.75942 0.69661 0.96659 0.0
H1472 H 0.72955 0.70605 0.82739 0.0
H1473 H 0.72609 0.69214 0.75707 0.0
C1474 C 0.59523 0.52675 0.12193 0.0
C1475 C 0.59518 0.51152 0.1714 0.0
C1476 C 0.59414 0.48418 0.08982 0.0
C1477 C 0.59589 0.49932 0.04042 0.0
N1478 N 0.60596 0.5344 0.01381 0.0
N1479 N 0.60288 0.4759 0.1991 0.0
C1480 C 0.59907 0.5204 0.05793 0.0
C1481 C 0.59744 0.4903 0.15421 0.0
N1482 N 0.59014 0.54698 0.13401 0.0
N1483 N 0.58775 0.46438 0.07715 0.0
H1484 H 0.60664 0.47998 0.24589 0.0
H1485 H 0.60618 0.46049 0.18757 0.0
H1486 H 0.5831 0.45925 0.03235 0.0
H1487 H 0.5846 0.45366 0.11321 0.0
H1488 H 0.58818 0.5579 0.09771 0.0
H1489 H 0.58549 0.55247 0.1784 0.0
H1490 H 0.61 0.54959 0.02574 0.0
H1491 H 0.61008 0.53007 0.96753 0.0
C1492 C 0.74651 0.32613 0.43291 0.0
C1493 C 0.74466 0.34543 0.4653 0.0
C1494 C 0.75187 0.36381 0.36462 0.0
C1495 C 0.75554 0.34443 0.33421 0.0
N1496 N 0.76142 0.30749 0.344 0.0
N1497 N 0.74805 0.38269 0.46459 0.0
C1498 C 0.75434 0.3257 0.36973 0.0
C1499 C 0.74799 0.36434 0.43184 0.0
N1500 N 0.73983 0.30819 0.46124 0.0
N1501 N 0.75139 0.38158 0.32896 0.0
H1502 H 0.7452 0.38354 0.51354 0.0
H1503 H 0.75244 0.3968 0.44446 0.0
H1504 H 0.75431 0.38169 0.27999 0.0
H1505 H 0.74666 0.39592 0.34682 0.0
H1506 H 0.73871 0.2941 0.43701 0.0
H1507 H 0.73329 0.30772 0.5067 0.0
H1508 H 0.76296 0.29383 0.37033 0.0
H1509 H 0.76785 0.30648 0.29845 0.0
C1510 C 0.89613 0.52124 0.67492 0.0
C1511 C 0.89818 0.50005 0.69263 0.0
C1512 C 0.89542 0.49073 0.57927 0.0
C1513 C 0.89844 0.5118 0.56153 0.0
N1514 N 0.90507 0.54716 0.59657 0.0
N1515 N 0.90337 0.46444 0.65743 0.0
C1516 C 0.89944 0.52719 0.6103 0.0
C1517 C 0.89852 0.48463 0.64383 0.0
N1518 N 0.89091 0.53574 0.71972 0.0
N1519 N 0.88945 0.4765 0.53459 0.0
H1520 H 0.90727 0.45913 0.70273 0.0
H1521 H 0.90579 0.45333 0.62198 0.0
H1522 H 0.88614 0.48061 0.48748 0.0
H1523 H 0.88542 0.46129 0.54627 0.0
H1524 H 0.88755 0.55114 0.70816 0.0
H1525 H 0.88752 0.53178 0.76689 0.0
H1526 H 0.90798 0.55817 0.63191 0.0
H1527 H 0.90908 0.55228 0.55115 0.0
C1528 C 0.24582 0.32962 0.32186 0.0
C1529 C 0.2462 0.34874 0.28814 0.0
C1530 C 0.25575 0.3669 0.38724 0.0
C1531 C 0.25723 0.34744 0.41903 0.0
N1532 N 0.25826 0.30997 0.4123 0.0
N1533 N 0.25337 0.3854 0.28601 0.0
C1534 C 0.25353 0.32872 0.38511 0.0
C1535 C 0.25164 0.36739 0.32011 0.0
N1536 N 0.23731 0.31235 0.29429 0.0
N1537 N 0.2576 0.38485 0.42156 0.0
H1538 H 0.25007 0.38622 0.23731 0.0
H1539 H 0.25931 0.39913 0.30477 0.0
H1540 H 0.2607 0.38494 0.47043 0.0
H1541 H 0.25464 0.39953 0.40282 0.0
H1542 H 0.23451 0.29863 0.31923 0.0
H1543 H 0.23103 0.31231 0.24844 0.0
H1544 H 0.25813 0.29601 0.3871 0.0
H1545 H 0.26439 0.30847 0.45811 0.0
C1546 C 0.38219 0.49387 0.08243 0.0
C1547 C 0.39993 0.49952 0.04595 0.0
C1548 C 0.41289 0.51946 0.13721 0.0
C1549 C 0.39721 0.51101 0.17651 0.0
N1550 N 0.36758 0.4887 0.1883 0.0
N1551 N 0.43511 0.51275 0.04741 0.0
C1552 C 0.38202 0.49772 0.14966 0.0
C1553 C 0.41604 0.51112 0.07547 0.0
N1554 N 0.36525 0.4856 0.05283 0.0
N1555 N 0.42505 0.5353 0.15888 0.0
H1556 H 0.43916 0.505 1.00559 0.0
H1557 H 0.44778 0.51949 0.07024 0.0
H1558 H 0.42317 0.542 0.2038 0.0
H1559 H 0.43549 0.54317 0.1296 0.0
H1560 H 0.35126 0.48288 0.07616 0.0
H1561 H 0.36446 0.48342 1.00359 0.0
H1562 H 0.35752 0.4771 0.17282 0.0
H1563 H 0.36652 0.49205 0.23693 0.0
C1564 C 0.24905 0.63793 0.912 0.0
C1565 C 0.24351 0.65677 0.9428 0.0
C1566 C 0.25002 0.6761 0.84403 0.0
C1567 C 0.25391 0.65715 0.8114 0.0
N1568 N 0.25476 0.61974 0.81166 0.0
N1569 N 0.23414 0.69301 0.93466 0.0
C1570 C 0.25284 0.63793 0.8447 0.0
C1571 C 0.24266 0.67561 0.90775 0.0
N1572 N 0.25117 0.62021 0.94735 0.0
N1573 N 0.2543 0.69469 0.81525 0.0
H1574 H 0.22828 0.69336 0.98102 0.0
H1575 H 0.23097 0.7065 0.90895 0.0
H1576 H 0.26017 0.69592 0.76907 0.0
H1577 H 0.25405 0.70884 0.83938 0.0
H1578 H 0.25723 0.60641 0.92939 0.0
H1579 H 0.24805 0.61974 0.99621 0.0
H1580 H 0.2521 0.60518 0.83164 0.0
H1581 H 0.25757 0.61927 0.76264 0.0
C1582 C 0.06918 0.50615 0.57959 0.0
C1583 C 0.088 0.50593 0.5446 0.0
C1584 C 0.10698 0.49692 0.64276 0.0
C1585 C 0.08784 0.49517 0.67585 0.0
N1586 N 0.05045 0.49352 0.67145 0.0
N1587 N 0.12465 0.49913 0.54028 0.0
C1588 C 0.06887 0.49854 0.64307 0.0
C1589 C 0.10692 0.50083 0.57551 0.0
N1590 N 0.05163 0.51439 0.55299 0.0
N1591 N 0.12515 0.4955 0.67592 0.0
H1592 H 0.12508 0.50216 0.49138 0.0
H1593 H 0.13854 0.49338 0.55838 0.0
H1594 H 0.12566 0.49258 0.72489 0.0
H1595 H 0.13959 0.4987 0.65612 0.0
H1596 H 0.03809 0.51709 0.57882 0.0
H1597 H 0.05114 0.52053 0.50697 0.0
H1598 H 0.03638 0.49341 0.64708 0.0
H1599 H 0.04937 0.48739 0.71738 0.0
loop_
_geom_bond_atom_site_label_1
_geom_bond_atom_site_label_2
_geom_bond_distance
_geom_bond_site_symmetry_2
_ccdc_geom_bond_type
O0 Cd1 2.223 1_556 S
O0 C8 1.315 . S
Cd1 O0 2.223 1_554 S
Cd1 O4 2.297 1_554 S
Cd1 O5 2.439 . S
Cd1 O11 2.240 . S
Cd2 O3 2.240 . S
Cd2 O10 2.223 . S
Cd2 O12 2.297 . S
Cd2 O13 2.439 . S
O3 Cd2 2.240 . S
O3 C8 1.279 1_554 S
O4 Cd1 2.297 1_556 S
O4 C6 1.247 1_556 S
O5 Cd1 2.439 . S
O5 C6 1.208 . S
C6 O4 1.247 1_554 S
C6 O5 1.208 . S
C7 O12 1.247 . S
C7 O13 1.208 . S
C8 O0 1.315 . S
C8 O3 1.279 1_556 S
C9 O10 1.315 . S
C9 O11 1.279 . S
O10 Cd2 2.223 . S
O10 C9 1.315 . S
O11 Cd1 2.240 . S
O11 C9 1.279 . S
O12 Cd2 2.297 . S
O12 C7 1.247 . S
O13 Cd2 2.439 . S
O13 C7 1.208 . S
O14 Cd15 2.223 . S
O14 C22 1.315 . S
Cd15 O14 2.223 . S
Cd15 O18 2.297 . S
Cd15 O19 2.439 . S
Cd15 O25 2.240 . S
Cd16 O17 2.240 1_545 S
Cd16 O24 2.223 . S
Cd16 O26 2.297 . S
Cd16 O27 2.439 1_545 S
O17 Cd16 2.240 1_565 S
O17 C22 1.279 . S
O18 Cd15 2.297 . S
O18 C20 1.247 . S
O19 Cd15 2.439 . S
O19 C20 1.208 . S
C20 O18 1.247 . S
C20 O19 1.208 . S
C21 O26 1.247 1_565 S
C21 O27 1.208 . S
C22 O14 1.315 . S
C22 O17 1.279 . S
C23 O24 1.315 1_565 S
C23 O25 1.279 . S
O24 Cd16 2.223 . S
O24 C23 1.315 1_545 S
O25 Cd15 2.240 . S
O25 C23 1.279 . S
O26 Cd16 2.297 . S
O26 C21 1.247 1_545 S
O27 Cd16 2.439 1_565 S
O27 C21 1.208 . S
O28 Cd29 2.223 . S
O28 C36 1.315 . S
Cd29 O28 2.223 . S
Cd29 O32 2.297 . S
Cd29 O33 2.439 . S
Cd29 O39 2.240 . S
Cd30 O31 2.240 . S
Cd30 O38 2.223 . S
Cd30 O40 2.297 . S
Cd30 O41 2.439 . S
O31 Cd30 2.240 . S
O31 C36 1.279 . S
O32 Cd29 2.297 . S
O32 C34 1.247 . S
O33 Cd29 2.439 . S
O33 C34 1.208 . S
C34 O32 1.247 . S
C34 O33 1.208 . S
C35 O40 1.247 . S
C35 O41 1.208 . S
C36 O28 1.315 . S
C36 O31 1.279 . S
C37 O38 1.315 . S
C37 O39 1.279 . S
O38 Cd30 2.223 . S
O38 C37 1.315 . S
O39 Cd29 2.240 . S
O39 C37 1.279 . S
O40 Cd30 2.297 . S
O40 C35 1.247 . S
O41 Cd30 2.439 . S
O41 C35 1.208 . S
O42 Cd43 2.223 . S
O42 C50 1.315 . S
Cd43 O42 2.223 . S
Cd43 O46 2.297 . S
Cd43 O47 2.439 . S
Cd43 O53 2.240 . S
Cd44 O45 2.240 . S
Cd44 O52 2.223 . S
Cd44 O54 2.297 . S
Cd44 O55 2.439 . S
O45 Cd44 2.240 . S
O45 C50 1.279 . S
O46 Cd43 2.297 . S
O46 C48 1.247 . S
O47 Cd43 2.439 . S
O47 C48 1.208 . S
C48 O46 1.247 . S
C48 O47 1.208 . S
C49 O54 1.247 . S
C49 O55 1.208 . S
C50 O42 1.315 . S
C50 O45 1.279 . S
C51 O52 1.315 . S
C51 O53 1.279 . S
O52 Cd44 2.223 . S
O52 C51 1.315 . S
O53 Cd43 2.240 . S
O53 C51 1.279 . S
O54 Cd44 2.297 . S
O54 C49 1.247 . S
O55 Cd44 2.439 . S
O55 C49 1.208 . S
O56 Cd57 2.223 . S
O56 C64 1.315 . S
Cd57 O56 2.223 . S
Cd57 O60 2.297 . S
Cd57 O61 2.439 . S
Cd57 O67 2.240 . S
Cd58 O59 2.240 . S
Cd58 O66 2.223 . S
Cd58 O68 2.297 . S
Cd58 O69 2.439 . S
O59 Cd58 2.240 . S
O59 C64 1.279 . S
O60 Cd57 2.297 . S
O60 C62 1.247 . S
O61 Cd57 2.439 . S
O61 C62 1.208 . S
C62 O60 1.247 . S
C62 O61 1.208 . S
C63 O68 1.247 1_556 S
C63 O69 1.208 1_556 S
C64 O56 1.315 . S
C64 O59 1.279 . S
C65 O66 1.315 . S
C65 O67 1.279 . S
O66 Cd58 2.223 . S
O66 C65 1.315 . S
O67 Cd57 2.240 . S
O67 C65 1.279 . S
O68 Cd58 2.297 . S
O68 C63 1.247 1_554 S
O69 Cd58 2.439 . S
O69 C63 1.208 1_554 S
O70 Cd71 2.223 . S
O70 C78 1.315 . S
Cd71 O70 2.223 . S
Cd71 O74 2.297 . S
Cd71 O75 2.439 . S
Cd71 O81 2.240 . S
Cd72 O73 2.240 1_545 S
Cd72 O80 2.223 . S
Cd72 O82 2.297 . S
Cd72 O83 2.439 1_545 S
O73 Cd72 2.240 1_565 S
O73 C78 1.279 . S
O74 Cd71 2.297 . S
O74 C76 1.247 . S
O75 Cd71 2.439 . S
O75 C76 1.208 . S
C76 O74 1.247 . S
C76 O75 1.208 . S
C77 O82 1.247 1_565 S
C77 O83 1.208 . S
C78 O70 1.315 . S
C78 O73 1.279 . S
C79 O80 1.315 1_565 S
C79 O81 1.279 . S
O80 Cd72 2.223 . S
O80 C79 1.315 1_545 S
O81 Cd71 2.240 . S
O81 C79 1.279 . S
O82 Cd72 2.297 . S
O82 C77 1.247 1_545 S
O83 Cd72 2.439 1_565 S
O83 C77 1.208 . S
O84 Cd85 2.223 . S
O84 C92 1.315 . S
Cd85 O84 2.223 . S
Cd85 O88 2.297 . S
Cd85 O89 2.439 . S
Cd85 O95 2.240 . S
Cd86 O87 2.240 . S
Cd86 O94 2.223 . S
Cd86 O96 2.297 . S
Cd86 O97 2.439 . S
O87 Cd86 2.240 . S
O87 C92 1.279 . S
O88 Cd85 2.297 . S
O88 C90 1.247 . S
O89 Cd85 2.439 . S
O89 C90 1.208 . S
C90 O88 1.247 . S
C90 O89 1.208 . S
C91 O96 1.247 . S
C91 O97 1.208 . S
C92 O84 1.315 . S
C92 O87 1.279 . S
C93 O94 1.315 . S
C93 O95 1.279 . S
O94 Cd86 2.223 . S
O94 C93 1.315 . S
O95 Cd85 2.240 . S
O95 C93 1.279 . S
O96 Cd86 2.297 . S
O96 C91 1.247 . S
O97 Cd86 2.439 . S
O97 C91 1.208 . S
O98 Cd99 2.223 1_554 S
O98 C106 1.315 . S
Cd99 O98 2.223 1_556 S
Cd99 O102 2.297 . S
Cd99 O103 2.439 . S
Cd99 O109 2.240 . S
Cd100 O101 2.240 . S
Cd100 O108 2.223 . S
Cd100 O110 2.297 . S
Cd100 O111 2.439 . S
O101 Cd100 2.240 . S
O101 C106 1.279 1_556 S
O102 Cd99 2.297 . S
O102 C104 1.247 . S
O103 Cd99 2.439 . S
O103 C104 1.208 . S
C104 O102 1.247 . S
C104 O103 1.208 . S
C105 O110 1.247 . S
C105 O111 1.208 . S
C106 O98 1.315 . S
C106 O101 1.279 1_554 S
C107 O108 1.315 . S
C107 O109 1.279 . S
O108 Cd100 2.223 . S
O108 C107 1.315 . S
O109 Cd99 2.240 . S
O109 C107 1.279 . S
O110 Cd100 2.297 . S
O110 C105 1.247 . S
O111 Cd100 2.439 . S
O111 C105 1.208 . S
O112 Cd113 2.223 . S
O112 C120 1.315 . S
Cd113 O112 2.223 . S
Cd113 O116 2.297 . S
Cd113 O117 2.439 . S
Cd113 O123 2.240 . S
Cd114 O115 2.240 . S
Cd114 O122 2.223 . S
Cd114 O124 2.297 . S
Cd114 O125 2.439 . S
O115 Cd114 2.240 . S
O115 C120 1.279 . S
O116 Cd113 2.297 . S
O116 C118 1.247 . S
O117 Cd113 2.439 . S
O117 C118 1.208 . S
C118 O116 1.247 . S
C118 O117 1.208 . S
C119 O124 1.247 1_556 S
C119 O125 1.208 1_556 S
C120 O112 1.315 . S
C120 O115 1.279 . S
C121 O122 1.315 . S
C121 O123 1.279 . S
O122 Cd114 2.223 . S
O122 C121 1.315 . S
O123 Cd113 2.240 . S
O123 C121 1.279 . S
O124 Cd114 2.297 . S
O124 C119 1.247 1_554 S
O125 Cd114 2.439 . S
O125 C119 1.208 1_554 S
O126 Cd127 2.223 1_554 S
O126 C134 1.315 . S
Cd127 O126 2.223 1_556 S
Cd127 O130 2.297 . S
Cd127 O131 2.439 . S
Cd127 O137 2.240 . S
Cd128 O129 2.240 . S
Cd128 O136 2.223 . S
Cd128 O138 2.297 . S
Cd128 O139 2.439 . S
O129 Cd128 2.240 . S
O129 C134 1.279 1_556 S
O130 Cd127 2.297 . S
O130 C132 1.247 . S
O131 Cd127 2.439 . S
O131 C132 1.208 . S
C132 O130 1.247 . S
C132 O131 1.208 . S
C133 O138 1.247 . S
C133 O139 1.208 . S
C134 O126 1.315 . S
C134 O129 1.279 1_554 S
C135 O136 1.315 . S
C135 O137 1.279 . S
O136 Cd128 2.223 . S
O136 C135 1.315 . S
O137 Cd127 2.240 . S
O137 C135 1.279 . S
O138 Cd128 2.297 . S
O138 C133 1.247 . S
O139 Cd128 2.439 . S
O139 C133 1.208 . S
O140 Cd141 2.223 . S
O140 C148 1.315 . S
Cd141 O140 2.223 . S
Cd141 O144 2.297 . S
Cd141 O145 2.439 . S
Cd141 O151 2.240 . S
Cd142 O143 2.240 . S
Cd142 O150 2.223 . S
Cd142 O152 2.297 . S
Cd142 O153 2.439 . S
O143 Cd142 2.240 . S
O143 C148 1.279 . S
O144 Cd141 2.297 . S
O144 C146 1.247 . S
O145 Cd141 2.439 . S
O145 C146 1.208 . S
C146 O144 1.247 . S
C146 O145 1.208 . S
C147 O152 1.247 . S
C147 O153 1.208 . S
C148 O140 1.315 . S
C148 O143 1.279 . S
C149 O150 1.315 . S
C149 O151 1.279 . S
O150 Cd142 2.223 . S
O150 C149 1.315 . S
O151 Cd141 2.240 . S
O151 C149 1.279 . S
O152 Cd142 2.297 . S
O152 C147 1.247 . S
O153 Cd142 2.439 . S
O153 C147 1.208 . S
O154 Cd155 2.223 . S
O154 C162 1.315 . S
Cd155 O154 2.223 . S
Cd155 O158 2.297 . S
Cd155 O159 2.439 . S
Cd155 O165 2.240 . S
Cd156 O157 2.240 1_545 S
Cd156 O164 2.223 . S
Cd156 O166 2.297 . S
Cd156 O167 2.439 1_545 S
O157 Cd156 2.240 1_565 S
O157 C162 1.279 . S
O158 Cd155 2.297 . S
O158 C160 1.247 . S
O159 Cd155 2.439 . S
O159 C160 1.208 . S
C160 O158 1.247 . S
C160 O159 1.208 . S
C161 O166 1.247 1_565 S
C161 O167 1.208 . S
C162 O154 1.315 . S
C162 O157 1.279 . S
C163 O164 1.315 1_565 S
C163 O165 1.279 . S
O164 Cd156 2.223 . S
O164 C163 1.315 1_545 S
O165 Cd155 2.240 . S
O165 C163 1.279 . S
O166 Cd156 2.297 . S
O166 C161 1.247 1_545 S
O167 Cd156 2.439 1_565 S
O167 C161 1.208 . S
O168 Cd169 2.223 1_556 S
O168 C176 1.315 . S
Cd169 O168 2.223 1_554 S
Cd169 O172 2.297 1_554 S
Cd169 O173 2.439 . S
Cd169 O179 2.240 . S
Cd170 O171 2.240 . S
Cd170 O178 2.223 . S
Cd170 O180 2.297 . S
Cd170 O181 2.439 . S
O171 Cd170 2.240 . S
O171 C176 1.279 1_554 S
O172 Cd169 2.297 1_556 S
O172 C174 1.247 1_556 S
O173 Cd169 2.439 . S
O173 C174 1.208 . S
C174 O172 1.247 1_554 S
C174 O173 1.208 . S
C175 O180 1.247 . S
C175 O181 1.208 . S
C176 O168 1.315 . S
C176 O171 1.279 1_556 S
C177 O178 1.315 . S
C177 O179 1.279 . S
O178 Cd170 2.223 . S
O178 C177 1.315 . S
O179 Cd169 2.240 . S
O179 C177 1.279 . S
O180 Cd170 2.297 . S
O180 C175 1.247 . S
O181 Cd170 2.439 . S
O181 C175 1.208 . S
O182 Cd183 2.223 . S
O182 C190 1.315 . S
Cd183 O182 2.223 . S
Cd183 O186 2.297 . S
Cd183 O187 2.439 . S
Cd183 O193 2.240 . S
Cd184 O185 2.240 . S
Cd184 O192 2.223 . S
Cd184 O194 2.297 . S
Cd184 O195 2.439 . S
O185 Cd184 2.240 . S
O185 C190 1.279 . S
O186 Cd183 2.297 . S
O186 C188 1.247 . S
O187 Cd183 2.439 . S
O187 C188 1.208 . S
C188 O186 1.247 . S
C188 O187 1.208 . S
C189 O194 1.247 . S
C189 O195 1.208 . S
C190 O182 1.315 . S
C190 O185 1.279 . S
C191 O192 1.315 . S
C191 O193 1.279 . S
O192 Cd184 2.223 . S
O192 C191 1.315 . S
O193 Cd183 2.240 . S
O193 C191 1.279 . S
O194 Cd184 2.297 . S
O194 C189 1.247 . S
O195 Cd184 2.439 . S
O195 C189 1.208 . S
O196 Cd197 2.223 . S
O196 C204 1.315 . S
Cd197 O196 2.223 . S
Cd197 O200 2.297 . S
Cd197 O201 2.439 . S
Cd197 O207 2.240 . S
Cd198 O199 2.240 . S
Cd198 O206 2.223 . S
Cd198 O208 2.297 . S
Cd198 O209 2.439 . S
O199 Cd198 2.240 . S
O199 C204 1.279 . S
O200 Cd197 2.297 . S
O200 C202 1.247 . S
O201 Cd197 2.439 . S
O201 C202 1.208 . S
C202 O200 1.247 . S
C202 O201 1.208 . S
C203 O208 1.247 . S
C203 O209 1.208 . S
C204 O196 1.315 . S
C204 O199 1.279 . S
C205 O206 1.315 . S
C205 O207 1.279 . S
O206 Cd198 2.223 . S
O206 C205 1.315 . S
O207 Cd197 2.240 . S
O207 C205 1.279 . S
O208 Cd198 2.297 . S
O208 C203 1.247 . S
O209 Cd198 2.439 . S
O209 C203 1.208 . S
O210 Cd211 2.223 . S
O210 C218 1.315 . S
Cd211 O210 2.223 . S
Cd211 O214 2.297 . S
Cd211 O215 2.439 . S
Cd211 O221 2.240 . S
Cd212 O213 2.240 1_545 S
Cd212 O220 2.223 . S
Cd212 O222 2.297 . S
Cd212 O223 2.439 1_545 S
O213 Cd212 2.240 1_565 S
O213 C218 1.279 . S
O214 Cd211 2.297 . S
O214 C216 1.247 . S
O215 Cd211 2.439 . S
O215 C216 1.208 . S
C216 O214 1.247 . S
C216 O215 1.208 . S
C217 O222 1.247 1_565 S
C217 O223 1.208 . S
C218 O210 1.315 . S
C218 O213 1.279 . S
C219 O220 1.315 1_565 S
C219 O221 1.279 . S
O220 Cd212 2.223 . S
O220 C219 1.315 1_545 S
O221 Cd211 2.240 . S
O221 C219 1.279 . S
O222 Cd212 2.297 . S
O222 C217 1.247 1_545 S
O223 Cd212 2.439 1_565 S
O223 C217 1.208 . S
O224 Cd225 2.223 . S
O224 C232 1.315 . S
Cd225 O224 2.223 . S
Cd225 O228 2.297 . S
Cd225 O229 2.439 . S
Cd225 O235 2.240 . S
Cd226 O227 2.240 . S
Cd226 O234 2.223 . S
Cd226 O236 2.297 . S
Cd226 O237 2.439 . S
O227 Cd226 2.240 . S
O227 C232 1.279 . S
O228 Cd225 2.297 . S
O228 C230 1.247 . S
O229 Cd225 2.439 . S
O229 C230 1.208 . S
C230 O228 1.247 . S
C230 O229 1.208 . S
C231 O236 1.247 . S
C231 O237 1.208 . S
C232 O224 1.315 . S
C232 O227 1.279 . S
C233 O234 1.315 . S
C233 O235 1.279 . S
O234 Cd226 2.223 . S
O234 C233 1.315 . S
O235 Cd225 2.240 . S
O235 C233 1.279 . S
O236 Cd226 2.297 . S
O236 C231 1.247 . S
O237 Cd226 2.439 . S
O237 C231 1.208 . S
O238 Cd239 2.223 . S
O238 C246 1.315 . S
Cd239 O238 2.223 . S
Cd239 O242 2.297 . S
Cd239 O243 2.439 . S
Cd239 O249 2.240 . S
Cd240 O241 2.240 . S
Cd240 O248 2.223 . S
Cd240 O250 2.297 . S
Cd240 O251 2.439 . S
O241 Cd240 2.240 . S
O241 C246 1.279 . S
O242 Cd239 2.297 . S
O242 C244 1.247 . S
O243 Cd239 2.439 . S
O243 C244 1.208 . S
C244 O242 1.247 . S
C244 O243 1.208 . S
C245 O250 1.247 . S
C245 O251 1.208 . S
C246 O238 1.315 . S
C246 O241 1.279 . S
C247 O248 1.315 . S
C247 O249 1.279 . S
O248 Cd240 2.223 . S
O248 C247 1.315 . S
O249 Cd239 2.240 . S
O249 C247 1.279 . S
O250 Cd240 2.297 . S
O250 C245 1.247 . S
O251 Cd240 2.439 . S
O251 C245 1.208 . S
O252 Cd253 2.223 1_556 S
O252 C260 1.315 . S
Cd253 O252 2.223 1_554 S
Cd253 O256 2.297 1_554 S
Cd253 O257 2.439 . S
Cd253 O263 2.240 . S
Cd254 O255 2.240 . S
Cd254 O262 2.223 . S
Cd254 O264 2.297 . S
Cd254 O265 2.439 . S
O255 Cd254 2.240 . S
O255 C260 1.279 1_554 S
O256 Cd253 2.297 1_556 S
O256 C258 1.247 1_556 S
O257 Cd253 2.439 . S
O257 C258 1.208 . S
C258 O256 1.247 1_554 S
C258 O257 1.208 . S
C259 O264 1.247 . S
C259 O265 1.208 . S
C260 O252 1.315 . S
C260 O255 1.279 1_556 S
C261 O262 1.315 . S
C261 O263 1.279 . S
O262 Cd254 2.223 . S
O262 C261 1.315 . S
O263 Cd253 2.240 . S
O263 C261 1.279 . S
O264 Cd254 2.297 . S
O264 C259 1.247 . S
O265 Cd254 2.439 . S
O265 C259 1.208 . S
O266 Cd267 2.223 . S
O266 C274 1.315 . S
Cd267 O266 2.223 . S
Cd267 O270 2.297 . S
Cd267 O271 2.439 . S
Cd267 O277 2.240 . S
Cd268 O269 2.240 . S
Cd268 O276 2.223 . S
Cd268 O278 2.297 . S
Cd268 O279 2.439 . S
O269 Cd268 2.240 . S
O269 C274 1.279 . S
O270 Cd267 2.297 . S
O270 C272 1.247 . S
O271 Cd267 2.439 . S
O271 C272 1.208 . S
C272 O270 1.247 . S
C272 O271 1.208 . S
C273 O278 1.247 . S
C273 O279 1.208 . S
C274 O266 1.315 . S
C274 O269 1.279 . S
C275 O276 1.315 . S
C275 O277 1.279 . S
O276 Cd268 2.223 . S
O276 C275 1.315 . S
O277 Cd267 2.240 . S
O277 C275 1.279 . S
O278 Cd268 2.297 . S
O278 C273 1.247 . S
O279 Cd268 2.439 . S
O279 C273 1.208 . S
O280 Cd281 2.223 . S
O280 C288 1.315 . S
Cd281 O280 2.223 . S
Cd281 O284 2.297 . S
Cd281 O285 2.439 . S
Cd281 O291 2.240 . S
Cd282 O283 2.240 . S
Cd282 O290 2.223 . S
Cd282 O292 2.297 . S
Cd282 O293 2.439 . S
O283 Cd282 2.240 . S
O283 C288 1.279 . S
O284 Cd281 2.297 . S
O284 C286 1.247 . S
O285 Cd281 2.439 . S
O285 C286 1.208 . S
C286 O284 1.247 . S
C286 O285 1.208 . S
C287 O292 1.247 . S
C287 O293 1.208 . S
C288 O280 1.315 . S
C288 O283 1.279 . S
C289 O290 1.315 . S
C289 O291 1.279 . S
O290 Cd282 2.223 . S
O290 C289 1.315 . S
O291 Cd281 2.240 . S
O291 C289 1.279 . S
O292 Cd282 2.297 . S
O292 C287 1.247 . S
O293 Cd282 2.439 . S
O293 C287 1.208 . S
O294 Cd295 2.223 1_554 S
O294 C302 1.315 . S
Cd295 O294 2.223 1_556 S
Cd295 O298 2.297 . S
Cd295 O299 2.439 . S
Cd295 O305 2.240 . S
Cd296 O297 2.240 . S
Cd296 O304 2.223 . S
Cd296 O306 2.297 . S
Cd296 O307 2.439 . S
O297 Cd296 2.240 . S
O297 C302 1.279 1_556 S
O298 Cd295 2.297 . S
O298 C300 1.247 . S
O299 Cd295 2.439 . S
O299 C300 1.208 . S
C300 O298 1.247 . S
C300 O299 1.208 . S
C301 O306 1.247 . S
C301 O307 1.208 . S
C302 O294 1.315 . S
C302 O297 1.279 1_554 S
C303 O304 1.315 . S
C303 O305 1.279 . S
O304 Cd296 2.223 . S
O304 C303 1.315 . S
O305 Cd295 2.240 . S
O305 C303 1.279 . S
O306 Cd296 2.297 . S
O306 C301 1.247 . S
O307 Cd296 2.439 . S
O307 C301 1.208 . S
O308 Cd309 2.223 . S
O308 C316 1.315 . S
Cd309 O308 2.223 . S
Cd309 O312 2.297 . S
Cd309 O313 2.439 . S
Cd309 O319 2.240 . S
Cd310 O311 2.240 . S
Cd310 O318 2.223 . S
Cd310 O320 2.297 . S
Cd310 O321 2.439 . S
O311 Cd310 2.240 . S
O311 C316 1.279 . S
O312 Cd309 2.297 . S
O312 C314 1.247 . S
O313 Cd309 2.439 . S
O313 C314 1.208 . S
C314 O312 1.247 . S
C314 O313 1.208 . S
C315 O320 1.247 1_556 S
C315 O321 1.208 1_556 S
C316 O308 1.315 . S
C316 O311 1.279 . S
C317 O318 1.315 . S
C317 O319 1.279 . S
O318 Cd310 2.223 . S
O318 C317 1.315 . S
O319 Cd309 2.240 . S
O319 C317 1.279 . S
O320 Cd310 2.297 . S
O320 C315 1.247 1_554 S
O321 Cd310 2.439 . S
O321 C315 1.208 1_554 S
O322 Cd323 2.223 . S
O322 C330 1.315 . S
Cd323 O322 2.223 . S
Cd323 O326 2.297 . S
Cd323 O327 2.439 . S
Cd323 O333 2.240 . S
Cd324 O325 2.240 . S
Cd324 O332 2.223 . S
Cd324 O334 2.297 . S
Cd324 O335 2.439 . S
O325 Cd324 2.240 . S
O325 C330 1.279 . S
O326 Cd323 2.297 . S
O326 C328 1.247 . S
O327 Cd323 2.439 . S
O327 C328 1.208 . S
C328 O326 1.247 . S
C328 O327 1.208 . S
C329 O334 1.247 . S
C329 O335 1.208 . S
C330 O322 1.315 . S
C330 O325 1.279 . S
C331 O332 1.315 . S
C331 O333 1.279 . S
O332 Cd324 2.223 . S
O332 C331 1.315 . S
O333 Cd323 2.240 . S
O333 C331 1.279 . S
O334 Cd324 2.297 . S
O334 C329 1.247 . S
O335 Cd324 2.439 . S
O335 C329 1.208 . S
O336 Cd337 2.223 . S
O336 C344 1.315 . S
Cd337 O336 2.223 . S
Cd337 O340 2.297 . S
Cd337 O341 2.439 . S
Cd337 O347 2.240 . S
Cd338 O339 2.240 . S
Cd338 O346 2.223 . S
Cd338 O348 2.297 . S
Cd338 O349 2.439 . S
O339 Cd338 2.240 . S
O339 C344 1.279 . S
O340 Cd337 2.297 . S
O340 C342 1.247 . S
O341 Cd337 2.439 . S
O341 C342 1.208 . S
C342 O340 1.247 . S
C342 O341 1.208 . S
C343 O348 1.247 . S
C343 O349 1.208 . S
C344 O336 1.315 . S
C344 O339 1.279 . S
C345 O346 1.315 . S
C345 O347 1.279 . S
O346 Cd338 2.223 . S
O346 C345 1.315 . S
O347 Cd337 2.240 . S
O347 C345 1.279 . S
O348 Cd338 2.297 . S
O348 C343 1.247 . S
O349 Cd338 2.439 . S
O349 C343 1.208 . S
O350 Cd351 2.223 . S
O350 C358 1.315 . S
Cd351 O350 2.223 . S
Cd351 O354 2.297 . S
Cd351 O355 2.439 . S
Cd351 O361 2.240 . S
Cd352 O353 2.240 . S
Cd352 O360 2.223 . S
Cd352 O362 2.297 . S
Cd352 O363 2.439 . S
O353 Cd352 2.240 . S
O353 C358 1.279 . S
O354 Cd351 2.297 . S
O354 C356 1.247 . S
O355 Cd351 2.439 . S
O355 C356 1.208 . S
C356 O354 1.247 . S
C356 O355 1.208 . S
C357 O362 1.247 . S
C357 O363 1.208 . S
C358 O350 1.315 . S
C358 O353 1.279 . S
C359 O360 1.315 . S
C359 O361 1.279 . S
O360 Cd352 2.223 . S
O360 C359 1.315 . S
O361 Cd351 2.240 . S
O361 C359 1.279 . S
O362 Cd352 2.297 . S
O362 C357 1.247 . S
O363 Cd352 2.439 . S
O363 C357 1.208 . S
O364 Cd365 2.223 . S
O364 C372 1.315 . S
Cd365 O364 2.223 . S
Cd365 O368 2.297 . S
Cd365 O369 2.439 . S
Cd365 O375 2.240 . S
Cd366 O367 2.240 . S
Cd366 O374 2.223 . S
Cd366 O376 2.297 . S
Cd366 O377 2.439 . S
O367 Cd366 2.240 . S
O367 C372 1.279 . S
O368 Cd365 2.297 . S
O368 C370 1.247 . S
O369 Cd365 2.439 . S
O369 C370 1.208 . S
C370 O368 1.247 . S
C370 O369 1.208 . S
C371 O376 1.247 1_556 S
C371 O377 1.208 1_556 S
C372 O364 1.315 . S
C372 O367 1.279 . S
C373 O374 1.315 . S
C373 O375 1.279 . S
O374 Cd366 2.223 . S
O374 C373 1.315 . S
O375 Cd365 2.240 . S
O375 C373 1.279 . S
O376 Cd366 2.297 . S
O376 C371 1.247 1_554 S
O377 Cd366 2.439 . S
O377 C371 1.208 1_554 S
O378 Cd379 2.223 1_554 S
O378 C386 1.315 . S
Cd379 O378 2.223 1_556 S
Cd379 O382 2.297 . S
Cd379 O383 2.439 . S
Cd379 O389 2.240 . S
Cd380 O381 2.240 . S
Cd380 O388 2.223 . S
Cd380 O390 2.297 . S
Cd380 O391 2.439 . S
O381 Cd380 2.240 . S
O381 C386 1.279 1_556 S
O382 Cd379 2.297 . S
O382 C384 1.247 . S
O383 Cd379 2.439 . S
O383 C384 1.208 . S
C384 O382 1.247 . S
C384 O383 1.208 . S
C385 O390 1.247 . S
C385 O391 1.208 . S
C386 O378 1.315 . S
C386 O381 1.279 1_554 S
C387 O388 1.315 . S
C387 O389 1.279 . S
O388 Cd380 2.223 . S
O388 C387 1.315 . S
O389 Cd379 2.240 . S
O389 C387 1.279 . S
O390 Cd380 2.297 . S
O390 C385 1.247 . S
O391 Cd380 2.439 . S
O391 C385 1.208 . S
O392 Cd393 2.223 . S
O392 C400 1.315 . S
Cd393 O392 2.223 . S
Cd393 O396 2.297 . S
Cd393 O397 2.439 . S
Cd393 O403 2.240 . S
Cd394 O395 2.240 . S
Cd394 O402 2.223 . S
Cd394 O404 2.297 . S
Cd394 O405 2.439 . S
O395 Cd394 2.240 . S
O395 C400 1.279 . S
O396 Cd393 2.297 . S
O396 C398 1.247 . S
O397 Cd393 2.439 . S
O397 C398 1.208 . S
C398 O396 1.247 . S
C398 O397 1.208 . S
C399 O404 1.247 . S
C399 O405 1.208 . S
C400 O392 1.315 . S
C400 O395 1.279 . S
C401 O402 1.315 . S
C401 O403 1.279 . S
O402 Cd394 2.223 . S
O402 C401 1.315 . S
O403 Cd393 2.240 . S
O403 C401 1.279 . S
O404 Cd394 2.297 . S
O404 C399 1.247 . S
O405 Cd394 2.439 . S
O405 C399 1.208 . S
O406 Cd407 2.223 . S
O406 C414 1.315 . S
Cd407 O406 2.223 . S
Cd407 O410 2.297 . S
Cd407 O411 2.439 . S
Cd407 O417 2.240 . S
Cd408 O409 2.240 . S
Cd408 O416 2.223 . S
Cd408 O418 2.297 . S
Cd408 O419 2.439 . S
O409 Cd408 2.240 . S
O409 C414 1.279 . S
O410 Cd407 2.297 . S
O410 C412 1.247 . S
O411 Cd407 2.439 . S
O411 C412 1.208 . S
C412 O410 1.247 . S
C412 O411 1.208 . S
C413 O418 1.247 . S
C413 O419 1.208 . S
C414 O406 1.315 . S
C414 O409 1.279 . S
C415 O416 1.315 . S
C415 O417 1.279 . S
O416 Cd408 2.223 . S
O416 C415 1.315 . S
O417 Cd407 2.240 . S
O417 C415 1.279 . S
O418 Cd408 2.297 . S
O418 C413 1.247 . S
O419 Cd408 2.439 . S
O419 C413 1.208 . S
O420 Cd421 2.223 1_556 S
O420 C428 1.315 . S
Cd421 O420 2.223 1_554 S
Cd421 O424 2.297 1_554 S
Cd421 O425 2.439 . S
Cd421 O431 2.240 . S
Cd422 O423 2.240 . S
Cd422 O430 2.223 . S
Cd422 O432 2.297 . S
Cd422 O433 2.439 . S
O423 Cd422 2.240 . S
O423 C428 1.279 1_554 S
O424 Cd421 2.297 1_556 S
O424 C426 1.247 1_556 S
O425 Cd421 2.439 . S
O425 C426 1.208 . S
C426 O424 1.247 1_554 S
C426 O425 1.208 . S
C427 O432 1.247 . S
C427 O433 1.208 . S
C428 O420 1.315 . S
C428 O423 1.279 1_556 S
C429 O430 1.315 . S
C429 O431 1.279 . S
O430 Cd422 2.223 . S
O430 C429 1.315 . S
O431 Cd421 2.240 . S
O431 C429 1.279 . S
O432 Cd422 2.297 . S
O432 C427 1.247 . S
O433 Cd422 2.439 . S
O433 C427 1.208 . S
O434 Cd435 2.223 . S
O434 C442 1.315 . S
Cd435 O434 2.223 . S
Cd435 O438 2.297 . S
Cd435 O439 2.439 . S
Cd435 O445 2.240 . S
Cd436 O437 2.240 . S
Cd436 O444 2.223 . S
Cd436 O446 2.297 . S
Cd436 O447 2.439 . S
O437 Cd436 2.240 . S
O437 C442 1.279 . S
O438 Cd435 2.297 . S
O438 C440 1.247 . S
O439 Cd435 2.439 . S
O439 C440 1.208 . S
C440 O438 1.247 . S
C440 O439 1.208 . S
C441 O446 1.247 . S
C441 O447 1.208 . S
C442 O434 1.315 . S
C442 O437 1.279 . S
C443 O444 1.315 . S
C443 O445 1.279 . S
O444 Cd436 2.223 . S
O444 C443 1.315 . S
O445 Cd435 2.240 . S
O445 C443 1.279 . S
O446 Cd436 2.297 . S
O446 C441 1.247 . S
O447 Cd436 2.439 . S
O447 C441 1.208 . S
C448 C449 1.363 . S
C448 C454 1.379 . S
C448 N456 1.356 . S
C449 C448 1.363 . S
C449 C455 1.363 . S
C450 C451 1.363 1_556 S
C450 C455 1.379 . S
C450 N457 1.356 1_556 S
C451 C450 1.363 1_554 S
C451 C454 1.363 1_554 S
N452 C454 1.356 1_554 S
N452 H464 0.984 . S
N452 H465 0.985 . S
N453 C455 1.356 . S
N453 H458 0.984 . S
N453 H459 0.985 . S
C454 C448 1.379 . S
C454 C451 1.363 1_556 S
C454 N452 1.356 1_556 S
C455 C449 1.363 . S
C455 C450 1.379 . S
C455 N453 1.356 . S
N456 C448 1.356 . S
N456 H462 0.984 . S
N456 H463 0.984 . S
N457 C450 1.356 1_554 S
N457 H460 0.984 . S
N457 H461 0.985 . S
H458 N453 0.984 . S
H459 N453 0.985 . S
H460 N457 0.984 . S
H461 N457 0.985 . S
H462 N456 0.984 . S
H463 N456 0.984 . S
H464 N452 0.984 . S
H465 N452 0.985 . S
C466 C467 1.363 . S
C466 C472 1.379 . S
C466 N474 1.356 . S
C467 C466 1.363 . S
C467 C473 1.363 . S
C468 C469 1.363 . S
C468 C473 1.379 . S
C468 N475 1.356 . S
C469 C468 1.363 . S
C469 C472 1.363 . S
N470 C472 1.356 . S
N470 H482 0.984 . S
N470 H483 0.985 . S
N471 C473 1.356 . S
N471 H476 0.984 . S
N471 H477 0.985 . S
C472 C466 1.379 . S
C472 C469 1.363 . S
C472 N470 1.356 . S
C473 C467 1.363 . S
C473 C468 1.379 . S
C473 N471 1.356 . S
N474 C466 1.356 . S
N474 H480 0.984 . S
N474 H481 0.984 . S
N475 C468 1.356 . S
N475 H478 0.984 . S
N475 H479 0.985 . S
H476 N471 0.984 . S
H477 N471 0.985 . S
H478 N475 0.984 . S
H479 N475 0.985 . S
H480 N474 0.984 . S
H481 N474 0.984 . S
H482 N470 0.984 . S
H483 N470 0.985 . S
C484 C485 1.363 . S
C484 C490 1.379 . S
C484 N492 1.356 . S
C485 C484 1.363 . S
C485 C491 1.363 . S
C486 C487 1.363 . S
C486 C491 1.379 . S
C486 N493 1.356 . S
C487 C486 1.363 . S
C487 C490 1.363 . S
N488 C490 1.356 . S
N488 H500 0.984 . S
N488 H501 0.985 . S
N489 C491 1.356 . S
N489 H494 0.984 . S
N489 H495 0.985 . S
C490 C484 1.379 . S
C490 C487 1.363 . S
C490 N488 1.356 . S
C491 C485 1.363 . S
C491 C486 1.379 . S
C491 N489 1.356 . S
N492 C484 1.356 . S
N492 H498 0.984 . S
N492 H499 0.984 . S
N493 C486 1.356 . S
N493 H496 0.984 . S
N493 H497 0.985 . S
H494 N489 0.984 . S
H495 N489 0.985 . S
H496 N493 0.984 . S
H497 N493 0.985 . S
H498 N492 0.984 . S
H499 N492 0.984 . S
H500 N488 0.984 . S
H501 N488 0.985 . S
C502 C503 1.363 . S
C502 C508 1.379 . S
C502 N510 1.356 . S
C503 C502 1.363 . S
C503 C509 1.363 . S
C504 C505 1.363 . S
C504 C509 1.379 . S
C504 N511 1.356 . S
C505 C504 1.363 . S
C505 C508 1.363 . S
N506 C508 1.356 . S
N506 H518 0.984 . S
N506 H519 0.985 . S
N507 C509 1.356 . S
N507 H512 0.984 . S
N507 H513 0.985 . S
C508 C502 1.379 . S
C508 C505 1.363 . S
C508 N506 1.356 . S
C509 C503 1.363 . S
C509 C504 1.379 . S
C509 N507 1.356 . S
N510 C502 1.356 . S
N510 H516 0.984 . S
N510 H517 0.984 . S
N511 C504 1.356 . S
N511 H514 0.984 . S
N511 H515 0.985 . S
H512 N507 0.984 . S
H513 N507 0.985 . S
H514 N511 0.984 . S
H515 N511 0.985 . S
H516 N510 0.984 . S
H517 N510 0.984 . S
H518 N506 0.984 . S
H519 N506 0.985 . S
C520 C521 1.363 . S
C520 C526 1.379 . S
C520 N528 1.356 . S
C521 C520 1.363 . S
C521 C527 1.363 . S
C522 C523 1.363 . S
C522 C527 1.379 . S
C522 N529 1.356 . S
C523 C522 1.363 . S
C523 C526 1.363 . S
N524 C526 1.356 . S
N524 H536 0.984 . S
N524 H537 0.985 . S
N525 C527 1.356 . S
N525 H530 0.984 . S
N525 H531 0.985 . S
C526 C520 1.379 . S
C526 C523 1.363 . S
C526 N524 1.356 . S
C527 C521 1.363 . S
C527 C522 1.379 . S
C527 N525 1.356 . S
N528 C520 1.356 . S
N528 H534 0.984 . S
N528 H535 0.984 . S
N529 C522 1.356 . S
N529 H532 0.984 . S
N529 H533 0.985 . S
H530 N525 0.984 . S
H531 N525 0.985 . S
H532 N529 0.984 . S
H533 N529 0.985 . S
H534 N528 0.984 . S
H535 N528 0.984 . S
H536 N524 0.984 . S
H537 N524 0.985 . S
C538 C539 1.363 . S
C538 C544 1.379 . S
C538 N546 1.356 . S
C539 C538 1.363 . S
C539 C545 1.363 . S
C540 C541 1.362 1_556 S
C540 C545 1.381 . S
C540 N547 1.354 1_556 S
C541 C540 1.362 1_554 S
C541 C544 1.363 1_554 S
N542 C544 1.356 1_554 S
N542 H554 0.984 . S
N542 H555 0.985 . S
N543 C545 1.356 . S
N543 H548 0.984 . S
N543 H549 0.985 . S
C544 C538 1.379 . S
C544 C541 1.363 1_556 S
C544 N542 1.356 1_556 S
C545 C539 1.363 . S
C545 C540 1.381 . S
C545 N543 1.356 . S
N546 C538 1.356 . S
N546 H552 0.984 . S
N546 H553 0.984 . S
N547 C540 1.354 1_554 S
N547 H550 0.984 . S
N547 H551 0.985 . S
H548 N543 0.984 . S
H549 N543 0.985 . S
H550 N547 0.984 . S
H551 N547 0.985 . S
H552 N546 0.984 . S
H553 N546 0.984 . S
H554 N542 0.984 . S
H555 N542 0.985 . S
C556 C557 1.363 . S
C556 C562 1.379 . S
C556 N564 1.356 . S
C557 C556 1.363 . S
C557 C563 1.363 . S
C558 C559 1.363 . S
C558 C563 1.379 . S
C558 N565 1.356 . S
C559 C558 1.363 . S
C559 C562 1.363 . S
N560 C562 1.356 . S
N560 H572 0.984 . S
N560 H573 0.985 . S
N561 C563 1.356 . S
N561 H566 0.984 . S
N561 H567 0.985 . S
C562 C556 1.379 . S
C562 C559 1.363 . S
C562 N560 1.356 . S
C563 C557 1.363 . S
C563 C558 1.379 . S
C563 N561 1.356 . S
N564 C556 1.356 . S
N564 H570 0.984 . S
N564 H571 0.984 . S
N565 C558 1.356 . S
N565 H568 0.984 . S
N565 H569 0.985 . S
H566 N561 0.984 . S
H567 N561 0.985 . S
H568 N565 0.984 . S
H569 N565 0.985 . S
H570 N564 0.984 . S
H571 N564 0.984 . S
H572 N560 0.984 . S
H573 N560 0.985 . S
C574 C575 1.363 . S
C574 C580 1.379 . S
C574 N582 1.356 . S
C575 C574 1.363 . S
C575 C581 1.363 . S
C576 C577 1.363 . S
C576 C581 1.379 . S
C576 N583 1.356 . S
C577 C576 1.363 . S
C577 C580 1.363 . S
N578 C580 1.356 . S
N578 H590 0.984 . S
N578 H591 0.985 . S
N579 C581 1.356 . S
N579 H584 0.984 . S
N579 H585 0.985 . S
C580 C574 1.379 . S
C580 C577 1.363 . S
C580 N578 1.356 . S
C581 C575 1.363 . S
C581 C576 1.379 . S
C581 N579 1.356 . S
N582 C574 1.356 . S
N582 H588 0.984 . S
N582 H589 0.984 . S
N583 C576 1.356 . S
N583 H586 0.984 . S
N583 H587 0.985 . S
H584 N579 0.984 . S
H585 N579 0.985 . S
H586 N583 0.984 . S
H587 N583 0.985 . S
H588 N582 0.984 . S
H589 N582 0.984 . S
H590 N578 0.984 . S
H591 N578 0.985 . S
C592 C593 1.363 . S
C592 C598 1.379 . S
C592 N600 1.356 . S
C593 C592 1.363 . S
C593 C599 1.363 . S
C594 C595 1.363 . S
C594 C599 1.379 . S
C594 N601 1.356 . S
C595 C594 1.363 . S
C595 C598 1.363 . S
N596 C598 1.356 . S
N596 H608 0.984 . S
N596 H609 0.985 . S
N597 C599 1.356 . S
N597 H602 0.984 . S
N597 H603 0.985 . S
C598 C592 1.379 . S
C598 C595 1.363 . S
C598 N596 1.356 . S
C599 C593 1.363 . S
C599 C594 1.379 . S
C599 N597 1.356 . S
N600 C592 1.356 . S
N600 H606 0.984 . S
N600 H607 0.984 . S
N601 C594 1.356 . S
N601 H604 0.984 . S
N601 H605 0.985 . S
H602 N597 0.984 . S
H603 N597 0.985 . S
H604 N601 0.984 . S
H605 N601 0.985 . S
H606 N600 0.984 . S
H607 N600 0.984 . S
H608 N596 0.984 . S
H609 N596 0.985 . S
C610 C611 1.363 . S
C610 C616 1.379 . S
C610 N618 1.356 . S
C611 C610 1.363 . S
C611 C617 1.363 . S
C612 C613 1.363 . S
C612 C617 1.379 . S
C612 N619 1.356 . S
C613 C612 1.363 . S
C613 C616 1.363 . S
N614 C616 1.356 . S
N614 H626 0.984 . S
N614 H627 0.985 . S
N615 C617 1.356 . S
N615 H620 0.984 . S
N615 H621 0.985 . S
C616 C610 1.379 . S
C616 C613 1.363 . S
C616 N614 1.356 . S
C617 C611 1.363 . S
C617 C612 1.379 . S
C617 N615 1.356 . S
N618 C610 1.356 . S
N618 H624 0.984 . S
N618 H625 0.984 . S
N619 C612 1.356 . S
N619 H622 0.984 . S
N619 H623 0.985 . S
H620 N615 0.984 . S
H621 N615 0.985 . S
H622 N619 0.984 . S
H623 N619 0.985 . S
H624 N618 0.984 . S
H625 N618 0.984 . S
H626 N614 0.984 . S
H627 N614 0.985 . S
C628 C629 1.363 1_554 S
C628 C634 1.379 . S
C628 N636 1.356 . S
C629 C628 1.363 1_556 S
C629 C635 1.363 . S
C630 C631 1.363 1_556 S
C630 C635 1.379 . S
C630 N637 1.356 . S
C631 C630 1.363 1_554 S
C631 C634 1.363 . S
N632 C634 1.356 . S
N632 H644 0.984 . S
N632 H645 0.985 . S
N633 C635 1.356 . S
N633 H638 0.984 . S
N633 H639 0.985 . S
C634 C628 1.379 . S
C634 C631 1.363 . S
C634 N632 1.356 . S
C635 C629 1.363 . S
C635 C630 1.379 . S
C635 N633 1.356 . S
N636 C628 1.356 . S
N636 H642 0.984 . S
N636 H643 0.984 1_554 S
N637 C630 1.356 . S
N637 H640 0.984 . S
N637 H641 0.985 . S
H638 N633 0.984 . S
H639 N633 0.985 . S
H640 N637 0.984 . S
H641 N637 0.985 . S
H642 N636 0.984 . S
H643 N636 0.984 1_556 S
H644 N632 0.984 . S
H645 N632 0.985 . S
C646 C647 1.363 . S
C646 C652 1.379 . S
C646 N654 1.356 . S
C647 C646 1.363 . S
C647 C653 1.363 . S
C648 C649 1.363 . S
C648 C653 1.379 . S
C648 N655 1.356 . S
C649 C648 1.363 . S
C649 C652 1.363 . S
N650 C652 1.356 . S
N650 H662 0.984 . S
N650 H663 0.985 . S
N651 C653 1.356 . S
N651 H656 0.984 . S
N651 H657 0.985 . S
C652 C646 1.379 . S
C652 C649 1.363 . S
C652 N650 1.356 . S
C653 C647 1.363 . S
C653 C648 1.379 . S
C653 N651 1.356 . S
N654 C646 1.356 . S
N654 H660 0.984 . S
N654 H661 0.984 . S
N655 C648 1.356 . S
N655 H658 0.984 . S
N655 H659 0.985 . S
H656 N651 0.984 . S
H657 N651 0.985 . S
H658 N655 0.984 . S
H659 N655 0.985 . S
H660 N654 0.984 . S
H661 N654 0.984 . S
H662 N650 0.984 . S
H663 N650 0.985 . S
C664 C665 1.363 . S
C664 C670 1.379 . S
C664 N672 1.356 . S
C665 C664 1.363 . S
C665 C671 1.363 . S
C666 C667 1.363 . S
C666 C671 1.379 . S
C666 N673 1.356 . S
C667 C666 1.363 . S
C667 C670 1.363 . S
N668 C670 1.356 . S
N668 H680 0.984 . S
N668 H681 0.985 . S
N669 C671 1.356 . S
N669 H674 0.984 . S
N669 H675 0.985 . S
C670 C664 1.379 . S
C670 C667 1.363 . S
C670 N668 1.356 . S
C671 C665 1.363 . S
C671 C666 1.379 . S
C671 N669 1.356 . S
N672 C664 1.356 . S
N672 H678 0.984 . S
N672 H679 0.984 . S
N673 C666 1.356 . S
N673 H676 0.984 . S
N673 H677 0.985 . S
H674 N669 0.984 . S
H675 N669 0.985 . S
H676 N673 0.984 . S
H677 N673 0.985 . S
H678 N672 0.984 . S
H679 N672 0.984 . S
H680 N668 0.984 . S
H681 N668 0.985 . S
C682 C683 1.363 . S
C682 C688 1.379 . S
C682 N690 1.356 . S
C683 C682 1.363 . S
C683 C689 1.363 . S
C684 C685 1.363 . S
C684 C689 1.379 . S
C684 N691 1.356 . S
C685 C684 1.363 . S
C685 C688 1.363 . S
N686 C688 1.356 . S
N686 H698 0.984 . S
N686 H699 0.985 . S
N687 C689 1.356 . S
N687 H692 0.984 . S
N687 H693 0.985 . S
C688 C682 1.379 . S
C688 C685 1.363 . S
C688 N686 1.356 . S
C689 C683 1.363 . S
C689 C684 1.379 . S
C689 N687 1.356 . S
N690 C682 1.356 . S
N690 H696 0.984 . S
N690 H697 0.984 . S
N691 C684 1.356 . S
N691 H694 0.984 . S
N691 H695 0.985 . S
H692 N687 0.984 . S
H693 N687 0.985 . S
H694 N691 0.984 . S
H695 N691 0.985 . S
H696 N690 0.984 . S
H697 N690 0.984 . S
H698 N686 0.984 . S
H699 N686 0.985 . S
C700 C701 1.363 . S
C700 C706 1.379 . S
C700 N708 1.356 . S
C701 C700 1.363 . S
C701 C707 1.363 . S
C702 C703 1.363 . S
C702 C707 1.379 . S
C702 N709 1.356 . S
C703 C702 1.363 . S
C703 C706 1.363 . S
N704 C706 1.356 . S
N704 H716 0.984 . S
N704 H717 0.985 . S
N705 C707 1.356 . S
N705 H710 0.984 . S
N705 H711 0.985 . S
C706 C700 1.379 . S
C706 C703 1.363 . S
C706 N704 1.356 . S
C707 C701 1.363 . S
C707 C702 1.379 . S
C707 N705 1.356 . S
N708 C700 1.356 . S
N708 H714 0.984 . S
N708 H715 0.984 . S
N709 C702 1.356 . S
N709 H712 0.984 . S
N709 H713 0.985 . S
H710 N705 0.984 . S
H711 N705 0.985 . S
H712 N709 0.984 . S
H713 N709 0.985 . S
H714 N708 0.984 . S
H715 N708 0.984 . S
H716 N704 0.984 . S
H717 N704 0.985 . S
C718 C719 1.363 1_554 S
C718 C724 1.379 . S
C718 N726 1.356 . S
C719 C718 1.363 1_556 S
C719 C725 1.363 . S
C720 C721 1.363 1_556 S
C720 C725 1.379 . S
C720 N727 1.356 . S
C721 C720 1.363 1_554 S
C721 C724 1.363 . S
N722 C724 1.356 . S
N722 H734 0.984 . S
N722 H735 0.985 . S
N723 C725 1.356 . S
N723 H728 0.984 . S
N723 H729 0.985 . S
C724 C718 1.379 . S
C724 C721 1.363 . S
C724 N722 1.356 . S
C725 C719 1.363 . S
C725 C720 1.379 . S
C725 N723 1.356 . S
N726 C718 1.356 . S
N726 H732 0.984 . S
N726 H733 0.984 1_554 S
N727 C720 1.356 . S
N727 H730 0.984 . S
N727 H731 0.985 . S
H728 N723 0.984 . S
H729 N723 0.985 . S
H730 N727 0.984 . S
H731 N727 0.985 . S
H732 N726 0.984 . S
H733 N726 0.984 1_556 S
H734 N722 0.984 . S
H735 N722 0.985 . S
C736 C737 1.363 . S
C736 C742 1.379 . S
C736 N744 1.356 . S
C737 C736 1.363 . S
C737 C743 1.363 . S
C738 C739 1.363 . S
C738 C743 1.379 . S
C738 N745 1.356 . S
C739 C738 1.363 . S
C739 C742 1.363 . S
N740 C742 1.356 . S
N740 H752 0.984 . S
N740 H753 0.985 . S
N741 C743 1.356 . S
N741 H746 0.984 . S
N741 H747 0.985 . S
C742 C736 1.379 . S
C742 C739 1.363 . S
C742 N740 1.356 . S
C743 C737 1.363 . S
C743 C738 1.379 . S
C743 N741 1.356 . S
N744 C736 1.356 . S
N744 H750 0.984 . S
N744 H751 0.984 . S
N745 C738 1.356 . S
N745 H748 0.984 . S
N745 H749 0.985 . S
H746 N741 0.984 . S
H747 N741 0.985 . S
H748 N745 0.984 . S
H749 N745 0.985 . S
H750 N744 0.984 . S
H751 N744 0.984 . S
H752 N740 0.984 . S
H753 N740 0.985 . S
C754 C755 1.363 1_545 S
C754 C760 1.379 . S
C754 N762 1.356 . S
C755 C754 1.363 1_565 S
C755 C761 1.363 . S
C756 C757 1.363 1_565 S
C756 C761 1.379 . S
C756 N763 1.356 . S
C757 C756 1.363 1_545 S
C757 C760 1.363 . S
N758 C760 1.356 . S
N758 H770 0.984 . S
N758 H771 0.985 . S
N759 C761 1.356 . S
N759 H764 0.984 . S
N759 H765 0.985 . S
C760 C754 1.379 . S
C760 C757 1.363 . S
C760 N758 1.356 . S
C761 C755 1.363 . S
C761 C756 1.379 . S
C761 N759 1.356 . S
N762 C754 1.356 . S
N762 H768 0.984 . S
N762 H769 0.984 . S
N763 C756 1.356 . S
N763 H766 0.984 1_554 S
N763 H767 0.985 . S
H764 N759 0.984 . S
H765 N759 0.985 . S
H766 N763 0.984 1_556 S
H767 N763 0.985 . S
H768 N762 0.984 . S
H769 N762 0.984 . S
H770 N758 0.984 . S
H771 N758 0.985 . S
C772 C773 1.363 . S
C772 C778 1.379 . S
C772 N780 1.356 . S
C773 C772 1.363 . S
C773 C779 1.363 . S
C774 C775 1.363 . S
C774 C779 1.379 . S
C774 N781 1.356 . S
C775 C774 1.363 . S
C775 C778 1.363 . S
N776 C778 1.356 . S
N776 H788 0.984 . S
N776 H789 0.985 . S
N777 C779 1.356 . S
N777 H782 0.984 . S
N777 H783 0.985 . S
C778 C772 1.379 . S
C778 C775 1.363 . S
C778 N776 1.356 . S
C779 C773 1.363 . S
C779 C774 1.379 . S
C779 N777 1.356 . S
N780 C772 1.356 . S
N780 H786 0.984 . S
N780 H787 0.984 . S
N781 C774 1.356 . S
N781 H784 0.984 . S
N781 H785 0.985 . S
H782 N777 0.984 . S
H783 N777 0.985 . S
H784 N781 0.984 . S
H785 N781 0.985 . S
H786 N780 0.984 . S
H787 N780 0.984 . S
H788 N776 0.984 . S
H789 N776 0.985 . S
C790 C791 1.363 . S
C790 C796 1.379 . S
C790 N798 1.356 . S
C791 C790 1.363 . S
C791 C797 1.363 1_545 S
C792 C793 1.363 . S
C792 C797 1.379 . S
C792 N799 1.356 . S
C793 C792 1.363 . S
C793 C796 1.363 1_565 S
N794 C796 1.356 . S
N794 H806 0.984 . S
N794 H807 0.985 . S
N795 C797 1.356 . S
N795 H800 0.956 1_565 S
N795 H801 0.985 . S
C796 C790 1.379 . S
C796 C793 1.363 1_545 S
C796 N794 1.356 . S
C797 C791 1.363 1_565 S
C797 C792 1.379 . S
C797 N795 1.356 . S
N798 C790 1.356 . S
N798 H804 0.984 . S
N798 H805 0.984 . S
N799 C792 1.356 . S
N799 H802 0.984 . S
N799 H803 0.985 . S
H800 N795 0.956 1_545 S
H801 N795 0.985 . S
H802 N799 0.984 . S
H803 N799 0.985 . S
H804 N798 0.984 . S
H805 N798 0.984 . S
H806 N794 0.984 . S
H807 N794 0.985 . S
C808 C809 1.363 . S
C808 C814 1.379 . S
C808 N816 1.356 . S
C809 C808 1.363 . S
C809 C815 1.363 . S
C810 C811 1.363 . S
C810 C815 1.379 . S
C810 N817 1.356 . S
C811 C810 1.363 . S
C811 C814 1.363 . S
N812 C814 1.356 . S
N812 H824 0.984 . S
N812 H825 0.985 . S
N813 C815 1.356 . S
N813 H818 0.984 . S
N813 H819 0.985 . S
C814 C808 1.379 . S
C814 C811 1.363 . S
C814 N812 1.356 . S
C815 C809 1.363 . S
C815 C810 1.379 . S
C815 N813 1.356 . S
N816 C808 1.356 . S
N816 H822 0.984 . S
N816 H823 0.984 . S
N817 C810 1.356 . S
N817 H820 0.984 . S
N817 H821 0.985 . S
H818 N813 0.984 . S
H819 N813 0.985 . S
H820 N817 0.984 . S
H821 N817 0.985 . S
H822 N816 0.984 . S
H823 N816 0.984 . S
H824 N812 0.984 . S
H825 N812 0.985 . S
C826 C827 1.363 1_565 S
C826 C832 1.379 . S
C826 N834 1.356 . S
C827 C826 1.363 1_545 S
C827 C833 1.363 . S
C828 C829 1.363 1_545 S
C828 C833 1.379 . S
C828 N835 1.356 . S
C829 C828 1.363 1_565 S
C829 C832 1.363 . S
N830 C832 1.356 . S
N830 H842 0.984 . S
N830 H843 0.985 . S
N831 C833 1.356 . S
N831 H836 0.984 . S
N831 H837 0.985 . S
C832 C826 1.379 . S
C832 C829 1.363 . S
C832 N830 1.356 . S
C833 C827 1.363 . S
C833 C828 1.379 . S
C833 N831 1.356 . S
N834 C826 1.356 . S
N834 H840 0.984 1_554 S
N834 H841 0.984 1_554 S
N835 C828 1.356 . S
N835 H838 0.984 . S
N835 H839 0.985 . S
H836 N831 0.984 . S
H837 N831 0.985 . S
H838 N835 0.984 . S
H839 N835 0.985 . S
H840 N834 0.984 1_556 S
H841 N834 0.984 1_556 S
H842 N830 0.984 . S
H843 N830 0.985 . S
C844 C845 1.363 . S
C844 C850 1.379 . S
C844 N852 1.356 . S
C845 C844 1.363 . S
C845 C851 1.363 . S
C846 C847 1.363 . S
C846 C851 1.379 . S
C846 N853 1.356 . S
C847 C846 1.363 . S
C847 C850 1.363 . S
N848 C850 1.356 . S
N848 H860 0.984 . S
N848 H861 0.985 . S
N849 C851 1.356 . S
N849 H854 0.984 . S
N849 H855 0.985 . S
C850 C844 1.379 . S
C850 C847 1.363 . S
C850 N848 1.356 . S
C851 C845 1.363 . S
C851 C846 1.379 . S
C851 N849 1.356 . S
N852 C844 1.356 . S
N852 H858 0.984 . S
N852 H859 0.984 . S
N853 C846 1.356 . S
N853 H856 0.984 . S
N853 H857 0.985 . S
H854 N849 0.984 . S
H855 N849 0.985 . S
H856 N853 0.984 . S
H857 N853 0.985 . S
H858 N852 0.984 . S
H859 N852 0.984 . S
H860 N848 0.984 . S
H861 N848 0.985 . S
C862 C863 1.363 1_565 S
C862 C868 1.379 . S
C862 N870 1.356 . S
C863 C862 1.363 1_545 S
C863 C869 1.363 . S
C864 C865 1.363 1_545 S
C864 C869 1.379 . S
C864 N871 1.356 . S
C865 C864 1.363 1_565 S
C865 C868 1.363 . S
N866 C868 1.356 . S
N866 H878 0.984 . S
N866 H879 0.985 . S
N867 C869 1.356 . S
N867 H872 0.984 . S
N867 H873 0.985 . S
C868 C862 1.379 . S
C868 C865 1.363 . S
C868 N866 1.356 . S
C869 C863 1.363 . S
C869 C864 1.379 . S
C869 N867 1.356 . S
N870 C862 1.356 . S
N870 H876 0.984 . S
N870 H877 1.000 . S
N871 C864 1.356 . S
N871 H874 0.984 . S
N871 H875 0.985 . S
H872 N867 0.984 . S
H873 N867 0.985 . S
H874 N871 0.984 . S
H875 N871 0.985 . S
H876 N870 0.984 . S
H877 N870 1.000 . S
H878 N866 0.984 . S
H879 N866 0.985 . S
C880 C881 1.363 . S
C880 C886 1.379 . S
C880 N888 1.356 . S
C881 C880 1.363 . S
C881 C887 1.363 . S
C882 C883 1.363 . S
C882 C887 1.379 . S
C882 N889 1.356 . S
C883 C882 1.363 . S
C883 C886 1.363 . S
N884 C886 1.356 . S
N884 H896 0.984 . S
N884 H897 0.985 . S
N885 C887 1.356 . S
N885 H890 0.984 . S
N885 H891 0.985 . S
C886 C880 1.379 . S
C886 C883 1.363 . S
C886 N884 1.356 . S
C887 C881 1.363 . S
C887 C882 1.379 . S
C887 N885 1.356 . S
N888 C880 1.356 . S
N888 H894 0.984 . S
N888 H895 0.984 . S
N889 C882 1.356 . S
N889 H892 0.984 . S
N889 H893 0.985 . S
H890 N885 0.984 . S
H891 N885 0.985 . S
H892 N889 0.984 . S
H893 N889 0.985 . S
H894 N888 0.984 . S
H895 N888 0.984 . S
H896 N884 0.984 . S
H897 N884 0.985 . S
C898 C899 1.363 . S
C898 C904 1.379 . S
C898 N906 1.356 . S
C899 C898 1.363 . S
C899 C905 1.363 . S
C900 C901 1.363 . S
C900 C905 1.379 . S
C900 N907 1.356 . S
C901 C900 1.363 . S
C901 C904 1.363 . S
N902 C904 1.356 . S
N902 H914 0.984 . S
N902 H915 0.985 . S
N903 C905 1.356 . S
N903 H908 0.984 . S
N903 H909 0.985 . S
C904 C898 1.379 . S
C904 C901 1.363 . S
C904 N902 1.356 . S
C905 C899 1.363 . S
C905 C900 1.379 . S
C905 N903 1.356 . S
N906 C898 1.356 . S
N906 H912 0.984 . S
N906 H913 0.984 . S
N907 C900 1.356 . S
N907 H910 0.984 . S
N907 H911 0.985 . S
H908 N903 0.984 . S
H909 N903 0.985 . S
H910 N907 0.984 . S
H911 N907 0.985 . S
H912 N906 0.984 . S
H913 N906 0.984 . S
H914 N902 0.984 . S
H915 N902 0.985 . S
C916 C917 1.363 . S
C916 C922 1.379 . S
C916 N924 1.356 . S
C917 C916 1.363 . S
C917 C923 1.363 . S
C918 C919 1.363 . S
C918 C923 1.379 . S
C918 N925 1.356 . S
C919 C918 1.363 . S
C919 C922 1.363 . S
N920 C922 1.356 . S
N920 H932 0.984 . S
N920 H933 0.985 . S
N921 C923 1.356 . S
N921 H926 0.984 . S
N921 H927 0.985 . S
C922 C916 1.379 . S
C922 C919 1.363 . S
C922 N920 1.356 . S
C923 C917 1.363 . S
C923 C918 1.379 . S
C923 N921 1.356 . S
N924 C916 1.356 . S
N924 H930 0.984 . S
N924 H931 0.984 . S
N925 C918 1.356 . S
N925 H928 0.984 . S
N925 H929 0.985 . S
H926 N921 0.984 . S
H927 N921 0.985 . S
H928 N925 0.984 . S
H929 N925 0.985 . S
H930 N924 0.984 . S
H931 N924 0.984 . S
H932 N920 0.984 . S
H933 N920 0.985 . S
C934 C935 1.363 . S
C934 C940 1.379 . S
C934 N942 1.356 . S
C935 C934 1.363 . S
C935 C941 1.363 . S
C936 C937 1.363 . S
C936 C941 1.379 . S
C936 N943 1.356 . S
C937 C936 1.363 . S
C937 C940 1.363 . S
N938 C940 1.356 . S
N938 H950 0.984 . S
N938 H951 0.985 1_554 S
N939 C941 1.356 . S
N939 H944 0.984 . S
N939 H945 0.985 . S
C940 C934 1.379 . S
C940 C937 1.363 . S
C940 N938 1.356 . S
C941 C935 1.363 . S
C941 C936 1.379 . S
C941 N939 1.356 . S
N942 C934 1.356 . S
N942 H948 0.984 . S
N942 H949 0.984 . S
N943 C936 1.356 . S
N943 H946 0.984 . S
N943 H947 0.985 . S
H944 N939 0.984 . S
H945 N939 0.985 . S
H946 N943 0.984 . S
H947 N943 0.985 . S
H948 N942 0.984 . S
H949 N942 0.984 . S
H950 N938 0.984 . S
H951 N938 0.985 1_556 S
C952 C953 1.363 . S
C952 C958 1.379 . S
C952 N960 1.356 . S
C953 C952 1.363 . S
C953 C959 1.363 . S
C954 C955 1.363 . S
C954 C959 1.379 . S
C954 N961 1.356 . S
C955 C954 1.363 . S
C955 C958 1.363 . S
N956 C958 1.356 . S
N956 H968 0.984 . S
N956 H969 0.985 . S
N957 C959 1.356 . S
N957 H962 0.984 . S
N957 H963 0.985 . S
C958 C952 1.379 . S
C958 C955 1.363 . S
C958 N956 1.356 . S
C959 C953 1.363 . S
C959 C954 1.379 . S
C959 N957 1.356 . S
N960 C952 1.356 . S
N960 H966 0.984 . S
N960 H967 0.984 . S
N961 C954 1.356 . S
N961 H964 0.984 . S
N961 H965 0.985 . S
H962 N957 0.984 . S
H963 N957 0.985 . S
H964 N961 0.984 . S
H965 N961 0.985 . S
H966 N960 0.984 . S
H967 N960 0.984 . S
H968 N956 0.984 . S
H969 N956 0.985 . S
C970 C971 1.363 . S
C970 C976 1.379 . S
C970 N978 1.356 . S
C971 C970 1.363 . S
C971 C977 1.363 . S
C972 C973 1.363 . S
C972 C977 1.379 . S
C972 N979 1.356 . S
C973 C972 1.363 . S
C973 C976 1.363 . S
N974 C976 1.356 . S
N974 H986 0.984 . S
N974 H987 0.985 . S
N975 C977 1.356 . S
N975 H980 0.984 . S
N975 H981 0.985 . S
C976 C970 1.379 . S
C976 C973 1.363 . S
C976 N974 1.356 . S
C977 C971 1.363 . S
C977 C972 1.379 . S
C977 N975 1.356 . S
N978 C970 1.356 . S
N978 H984 0.984 . S
N978 H985 0.984 . S
N979 C972 1.356 . S
N979 H982 0.984 . S
N979 H983 0.985 . S
H980 N975 0.984 . S
H981 N975 0.985 . S
H982 N979 0.984 . S
H983 N979 0.985 . S
H984 N978 0.984 . S
H985 N978 0.984 . S
H986 N974 0.984 . S
H987 N974 0.985 . S
C988 C989 1.363 . S
C988 C994 1.379 . S
C988 N996 1.356 . S
C989 C988 1.363 . S
C989 C995 1.363 . S
C990 C991 1.363 . S
C990 C995 1.379 . S
C990 N997 1.356 . S
C991 C990 1.363 . S
C991 C994 1.363 . S
N992 C994 1.356 . S
N992 H1004 0.984 . S
N992 H1005 0.985 . S
N993 C995 1.356 . S
N993 H998 0.984 . S
N993 H999 0.985 . S
C994 C988 1.379 . S
C994 C991 1.363 . S
C994 N992 1.356 . S
C995 C989 1.363 . S
C995 C990 1.379 . S
C995 N993 1.356 . S
N996 C988 1.356 . S
N996 H1002 0.984 . S
N996 H1003 0.984 . S
N997 C990 1.356 . S
N997 H1000 0.984 . S
N997 H1001 0.985 . S
H998 N993 0.984 . S
H999 N993 0.985 . S
H1000 N997 0.984 . S
H1001 N997 0.985 . S
H1002 N996 0.984 . S
H1003 N996 0.984 . S
H1004 N992 0.984 . S
H1005 N992 0.985 . S
C1006 C1007 1.363 . S
C1006 C1012 1.379 . S
C1006 N1014 1.356 . S
C1007 C1006 1.363 . S
C1007 C1013 1.363 . S
C1008 C1009 1.363 . S
C1008 C1013 1.379 . S
C1008 N1015 1.356 . S
C1009 C1008 1.363 . S
C1009 C1012 1.363 . S
N1010 C1012 1.356 . S
N1010 H1022 0.984 . S
N1010 H1023 0.985 . S
N1011 C1013 1.356 . S
N1011 H1016 0.984 . S
N1011 H1017 0.985 . S
C1012 C1006 1.379 . S
C1012 C1009 1.363 . S
C1012 N1010 1.356 . S
C1013 C1007 1.363 . S
C1013 C1008 1.379 . S
C1013 N1011 1.356 . S
N1014 C1006 1.356 . S
N1014 H1020 0.984 . S
N1014 H1021 0.984 . S
N1015 C1008 1.356 . S
N1015 H1018 0.984 1_554 S
N1015 H1019 0.983 1_554 S
H1016 N1011 0.984 . S
H1017 N1011 0.985 . S
H1018 N1015 0.984 1_556 S
H1019 N1015 0.983 1_556 S
H1020 N1014 0.984 . S
H1021 N1014 0.984 . S
H1022 N1010 0.984 . S
H1023 N1010 0.985 . S
C1024 C1025 1.363 . S
C1024 C1030 1.379 . S
C1024 N1032 1.356 1_554 S
C1025 C1024 1.363 . S
C1025 C1031 1.363 . S
C1026 C1027 1.363 . S
C1026 C1031 1.379 . S
C1026 N1033 1.356 . S
C1027 C1026 1.363 . S
C1027 C1030 1.363 . S
N1028 C1030 1.356 1_556 S
N1028 H1040 0.984 . S
N1028 H1041 0.985 1_556 S
N1029 C1031 1.356 . S
N1029 H1034 0.984 . S
N1029 H1035 0.985 . S
C1030 C1024 1.379 . S
C1030 C1027 1.363 . S
C1030 N1028 1.356 1_554 S
C1031 C1025 1.363 . S
C1031 C1026 1.379 . S
C1031 N1029 1.356 . S
N1032 C1024 1.356 1_556 S
N1032 H1038 0.984 . S
N1032 H1039 0.984 1_556 S
N1033 C1026 1.356 . S
N1033 H1036 0.984 . S
N1033 H1037 0.985 . S
H1034 N1029 0.984 . S
H1035 N1029 0.985 . S
H1036 N1033 0.984 . S
H1037 N1033 0.985 . S
H1038 N1032 0.984 . S
H1039 N1032 0.984 1_554 S
H1040 N1028 0.984 . S
H1041 N1028 0.985 1_554 S
C1042 C1043 1.363 . S
C1042 C1048 1.379 1_455 S
C1042 N1050 1.356 . S
C1043 C1042 1.363 . S
C1043 C1049 1.363 . S
C1044 C1045 1.363 . S
C1044 C1049 1.379 1_655 S
C1044 N1051 1.356 . S
C1045 C1044 1.363 . S
C1045 C1048 1.363 . S
N1046 C1048 1.356 . S
N1046 H1058 0.984 . S
N1046 H1059 0.985 . S
N1047 C1049 1.356 . S
N1047 H1052 0.984 . S
N1047 H1053 0.985 . S
C1048 C1042 1.379 1_655 S
C1048 C1045 1.363 . S
C1048 N1046 1.356 . S
C1049 C1043 1.363 . S
C1049 C1044 1.379 1_455 S
C1049 N1047 1.356 . S
N1050 C1042 1.356 . S
N1050 H1056 0.984 . S
N1050 H1057 0.984 . S
N1051 C1044 1.356 . S
N1051 H1054 0.984 . S
N1051 H1055 0.985 . S
H1052 N1047 0.984 . S
H1053 N1047 0.985 . S
H1054 N1051 0.984 . S
H1055 N1051 0.985 . S
H1056 N1050 0.984 . S
H1057 N1050 0.984 . S
H1058 N1046 0.984 . S
H1059 N1046 0.985 . S
C1060 C1061 1.363 . S
C1060 C1066 1.379 . S
C1060 N1068 1.356 . S
C1061 C1060 1.363 . S
C1061 C1067 1.363 . S
C1062 C1063 1.363 . S
C1062 C1067 1.379 . S
C1062 N1069 1.356 . S
C1063 C1062 1.363 . S
C1063 C1066 1.363 . S
N1064 C1066 1.356 . S
N1064 H1076 0.984 . S
N1064 H1077 0.985 . S
N1065 C1067 1.356 . S
N1065 H1070 0.984 . S
N1065 H1071 0.985 . S
C1066 C1060 1.379 . S
C1066 C1063 1.363 . S
C1066 N1064 1.356 . S
C1067 C1061 1.363 . S
C1067 C1062 1.379 . S
C1067 N1065 1.356 . S
N1068 C1060 1.356 . S
N1068 H1074 0.984 . S
N1068 H1075 0.984 . S
N1069 C1062 1.356 . S
N1069 H1072 0.984 . S
N1069 H1073 0.985 . S
H1070 N1065 0.984 . S
H1071 N1065 0.985 . S
H1072 N1069 0.984 . S
H1073 N1069 0.985 . S
H1074 N1068 0.984 . S
H1075 N1068 0.984 . S
H1076 N1064 0.984 . S
H1077 N1064 0.985 . S
C1078 C1079 1.363 . S
C1078 C1084 1.379 . S
C1078 N1086 1.356 . S
C1079 C1078 1.363 . S
C1079 C1085 1.363 . S
C1080 C1081 1.363 . S
C1080 C1085 1.379 . S
C1080 N1087 1.356 . S
C1081 C1080 1.363 . S
C1081 C1084 1.363 . S
N1082 C1084 1.356 . S
N1082 H1094 0.984 1_545 S
N1082 H1095 0.985 . S
N1083 C1085 1.356 . S
N1083 H1088 0.984 . S
N1083 H1089 0.985 . S
C1084 C1078 1.379 . S
C1084 C1081 1.363 . S
C1084 N1082 1.356 . S
C1085 C1079 1.363 . S
C1085 C1080 1.379 . S
C1085 N1083 1.356 . S
N1086 C1078 1.356 . S
N1086 H1092 0.984 1_545 S
N1086 H1093 0.984 . S
N1087 C1080 1.356 . S
N1087 H1090 0.984 . S
N1087 H1091 0.985 . S
H1088 N1083 0.984 . S
H1089 N1083 0.985 . S
H1090 N1087 0.984 . S
H1091 N1087 0.985 . S
H1092 N1086 0.984 1_565 S
H1093 N1086 0.984 . S
H1094 N1082 0.984 1_565 S
H1095 N1082 0.985 . S
C1096 C1097 1.363 . S
C1096 C1102 1.379 . S
C1096 N1104 1.356 . S
C1097 C1096 1.363 . S
C1097 C1103 1.363 . S
C1098 C1099 1.363 . S
C1098 C1103 1.379 . S
C1098 N1105 1.356 . S
C1099 C1098 1.363 . S
C1099 C1102 1.363 . S
N1100 C1102 1.356 . S
N1100 H1112 0.984 . S
N1100 H1113 0.985 . S
N1101 C1103 1.356 . S
N1101 H1106 0.984 . S
N1101 H1107 0.985 . S
C1102 C1096 1.379 . S
C1102 C1099 1.363 . S
C1102 N1100 1.356 . S
C1103 C1097 1.363 . S
C1103 C1098 1.379 . S
C1103 N1101 1.356 . S
N1104 C1096 1.356 . S
N1104 H1110 0.984 . S
N1104 H1111 0.984 . S
N1105 C1098 1.356 . S
N1105 H1108 0.984 . S
N1105 H1109 0.985 . S
H1106 N1101 0.984 . S
H1107 N1101 0.985 . S
H1108 N1105 0.984 . S
H1109 N1105 0.985 . S
H1110 N1104 0.984 . S
H1111 N1104 0.984 . S
H1112 N1100 0.984 . S
H1113 N1100 0.985 . S
C1114 C1115 1.363 . S
C1114 C1120 1.379 . S
C1114 N1122 1.356 . S
C1115 C1114 1.363 . S
C1115 C1121 1.363 . S
C1116 C1117 1.363 . S
C1116 C1121 1.379 . S
C1116 N1123 1.356 1_565 S
C1117 C1116 1.363 . S
C1117 C1120 1.363 . S
N1118 C1120 1.356 . S
N1118 H1130 0.984 . S
N1118 H1131 0.985 . S
N1119 C1121 1.356 1_545 S
N1119 H1124 0.984 . S
N1119 H1125 0.985 . S
C1120 C1114 1.379 . S
C1120 C1117 1.363 . S
C1120 N1118 1.356 . S
C1121 C1115 1.363 . S
C1121 C1116 1.379 . S
C1121 N1119 1.356 1_565 S
N1122 C1114 1.356 . S
N1122 H1128 0.984 . S
N1122 H1129 0.984 . S
N1123 C1116 1.356 1_545 S
N1123 H1126 0.984 . S
N1123 H1127 0.985 . S
H1124 N1119 0.984 . S
H1125 N1119 0.985 . S
H1126 N1123 0.984 . S
H1127 N1123 0.985 . S
H1128 N1122 0.984 . S
H1129 N1122 0.984 . S
H1130 N1118 0.984 . S
H1131 N1118 0.985 . S
C1132 C1133 1.363 . S
C1132 C1138 1.379 . S
C1132 N1140 1.356 . S
C1133 C1132 1.363 . S
C1133 C1139 1.363 . S
C1134 C1135 1.363 . S
C1134 C1139 1.379 . S
C1134 N1141 1.356 . S
C1135 C1134 1.363 . S
C1135 C1138 1.363 . S
N1136 C1138 1.356 . S
N1136 H1148 0.984 . S
N1136 H1149 0.985 . S
N1137 C1139 1.356 . S
N1137 H1142 0.984 . S
N1137 H1143 0.985 . S
C1138 C1132 1.379 . S
C1138 C1135 1.363 . S
C1138 N1136 1.356 . S
C1139 C1133 1.363 . S
C1139 C1134 1.379 . S
C1139 N1137 1.356 . S
N1140 C1132 1.356 . S
N1140 H1146 0.984 . S
N1140 H1147 0.984 . S
N1141 C1134 1.356 . S
N1141 H1144 0.984 . S
N1141 H1145 0.985 . S
H1142 N1137 0.984 . S
H1143 N1137 0.985 . S
H1144 N1141 0.984 . S
H1145 N1141 0.985 . S
H1146 N1140 0.984 . S
H1147 N1140 0.984 . S
H1148 N1136 0.984 . S
H1149 N1136 0.985 . S
C1150 C1151 1.363 . S
C1150 C1156 1.379 1_655 S
C1150 N1158 1.356 . S
C1151 C1150 1.363 . S
C1151 C1157 1.363 . S
C1152 C1153 1.363 . S
C1152 C1157 1.379 1_455 S
C1152 N1159 1.356 . S
C1153 C1152 1.363 . S
C1153 C1156 1.363 . S
N1154 C1156 1.356 . S
N1154 H1166 0.984 1_545 S
N1154 H1167 0.985 . S
N1155 C1157 1.356 . S
N1155 H1160 0.984 . S
N1155 H1161 0.985 . S
C1156 C1150 1.379 1_455 S
C1156 C1153 1.363 . S
C1156 N1154 1.356 . S
C1157 C1151 1.363 . S
C1157 C1152 1.379 1_655 S
C1157 N1155 1.356 . S
N1158 C1150 1.356 . S
N1158 H1164 0.984 1_545 S
N1158 H1165 0.984 . S
N1159 C1152 1.356 . S
N1159 H1162 0.984 . S
N1159 H1163 0.985 . S
H1160 N1155 0.984 . S
H1161 N1155 0.985 . S
H1162 N1159 0.984 . S
H1163 N1159 0.985 . S
H1164 N1158 0.984 1_565 S
H1165 N1158 0.984 . S
H1166 N1154 0.984 1_565 S
H1167 N1154 0.985 . S
C1168 C1169 1.363 . S
C1168 C1174 1.379 . S
C1168 N1176 1.356 . S
C1169 C1168 1.363 . S
C1169 C1175 1.363 . S
C1170 C1171 1.363 . S
C1170 C1175 1.379 . S
C1170 N1177 1.356 . S
C1171 C1170 1.363 . S
C1171 C1174 1.363 . S
N1172 C1174 1.356 . S
N1172 H1184 0.984 . S
N1172 H1185 0.985 . S
N1173 C1175 1.356 . S
N1173 H1178 0.984 . S
N1173 H1179 0.985 . S
C1174 C1168 1.379 . S
C1174 C1171 1.363 . S
C1174 N1172 1.356 . S
C1175 C1169 1.363 . S
C1175 C1170 1.379 . S
C1175 N1173 1.356 . S
N1176 C1168 1.356 . S
N1176 H1182 0.984 . S
N1176 H1183 0.984 . S
N1177 C1170 1.356 . S
N1177 H1180 0.984 . S
N1177 H1181 0.985 . S
H1178 N1173 0.984 . S
H1179 N1173 0.985 . S
H1180 N1177 0.984 . S
H1181 N1177 0.985 . S
H1182 N1176 0.984 . S
H1183 N1176 0.984 . S
H1184 N1172 0.984 . S
H1185 N1172 0.985 . S
C1186 C1187 1.363 . S
C1186 C1192 1.379 . S
C1186 N1194 1.356 . S
C1187 C1186 1.363 . S
C1187 C1193 1.363 . S
C1188 C1189 1.363 . S
C1188 C1193 1.379 . S
C1188 N1195 1.356 . S
C1189 C1188 1.363 . S
C1189 C1192 1.363 . S
N1190 C1192 1.356 . S
N1190 H1202 0.984 . S
N1190 H1203 0.985 . S
N1191 C1193 1.356 . S
N1191 H1196 0.984 . S
N1191 H1197 0.985 . S
C1192 C1186 1.379 . S
C1192 C1189 1.363 . S
C1192 N1190 1.356 . S
C1193 C1187 1.363 . S
C1193 C1188 1.379 . S
C1193 N1191 1.356 . S
N1194 C1186 1.356 . S
N1194 H1200 0.984 . S
N1194 H1201 0.984 . S
N1195 C1188 1.356 . S
N1195 H1198 0.984 . S
N1195 H1199 0.985 . S
H1196 N1191 0.984 . S
H1197 N1191 0.985 . S
H1198 N1195 0.984 . S
H1199 N1195 0.985 . S
H1200 N1194 0.984 . S
H1201 N1194 0.984 . S
H1202 N1190 0.984 . S
H1203 N1190 0.985 . S
C1204 C1205 1.363 . S
C1204 C1210 1.379 . S
C1204 N1212 1.356 . S
C1205 C1204 1.363 . S
C1205 C1211 1.363 . S
C1206 C1207 1.363 . S
C1206 C1211 1.379 . S
C1206 N1213 1.356 1_554 S
C1207 C1206 1.363 . S
C1207 C1210 1.363 . S
N1208 C1210 1.356 . S
N1208 H1220 0.984 . S
N1208 H1221 0.985 . S
N1209 C1211 1.356 1_556 S
N1209 H1214 0.984 1_556 S
N1209 H1215 0.985 . S
C1210 C1204 1.379 . S
C1210 C1207 1.363 . S
C1210 N1208 1.356 . S
C1211 C1205 1.363 . S
C1211 C1206 1.379 . S
C1211 N1209 1.356 1_554 S
N1212 C1204 1.356 . S
N1212 H1218 0.984 . S
N1212 H1219 0.984 . S
N1213 C1206 1.356 1_556 S
N1213 H1216 0.984 1_556 S
N1213 H1217 0.985 . S
H1214 N1209 0.984 1_554 S
H1215 N1209 0.985 . S
H1216 N1213 0.984 1_554 S
H1217 N1213 0.985 . S
H1218 N1212 0.984 . S
H1219 N1212 0.984 . S
H1220 N1208 0.984 . S
H1221 N1208 0.985 . S
C1222 C1223 1.363 . S
C1222 C1228 1.379 . S
C1222 N1230 1.356 . S
C1223 C1222 1.363 . S
C1223 C1229 1.363 . S
C1224 C1225 1.363 . S
C1224 C1229 1.379 . S
C1224 N1231 1.356 . S
C1225 C1224 1.363 . S
C1225 C1228 1.363 . S
N1226 C1228 1.356 . S
N1226 H1238 0.984 . S
N1226 H1239 0.985 . S
N1227 C1229 1.356 . S
N1227 H1232 0.984 . S
N1227 H1233 0.985 . S
C1228 C1222 1.379 . S
C1228 C1225 1.363 . S
C1228 N1226 1.356 . S
C1229 C1223 1.363 . S
C1229 C1224 1.379 . S
C1229 N1227 1.356 . S
N1230 C1222 1.356 . S
N1230 H1236 0.984 . S
N1230 H1237 0.984 . S
N1231 C1224 1.356 . S
N1231 H1234 0.984 . S
N1231 H1235 0.985 . S
H1232 N1227 0.984 . S
H1233 N1227 0.985 . S
H1234 N1231 0.984 . S
H1235 N1231 0.985 . S
H1236 N1230 0.984 . S
H1237 N1230 0.984 . S
H1238 N1226 0.984 . S
H1239 N1226 0.985 . S
C1240 C1241 1.363 . S
C1240 C1246 1.379 . S
C1240 N1248 1.356 . S
C1241 C1240 1.363 . S
C1241 C1247 1.363 . S
C1242 C1243 1.363 . S
C1242 C1247 1.379 . S
C1242 N1249 1.356 . S
C1243 C1242 1.363 . S
C1243 C1246 1.363 . S
N1244 C1246 1.356 . S
N1244 H1256 0.984 . S
N1244 H1257 0.985 . S
N1245 C1247 1.356 . S
N1245 H1250 0.984 . S
N1245 H1251 0.985 . S
C1246 C1240 1.379 . S
C1246 C1243 1.363 . S
C1246 N1244 1.356 . S
C1247 C1241 1.363 . S
C1247 C1242 1.379 . S
C1247 N1245 1.356 . S
N1248 C1240 1.356 . S
N1248 H1254 0.984 . S
N1248 H1255 0.984 . S
N1249 C1242 1.356 . S
N1249 H1252 0.984 . S
N1249 H1253 0.985 . S
H1250 N1245 0.984 . S
H1251 N1245 0.985 . S
H1252 N1249 0.984 . S
H1253 N1249 0.985 . S
H1254 N1248 0.984 . S
H1255 N1248 0.984 . S
H1256 N1244 0.984 . S
H1257 N1244 0.985 . S
C1258 C1259 1.363 . S
C1258 C1264 1.379 1_655 S
C1258 N1266 1.356 . S
C1259 C1258 1.363 . S
C1259 C1265 1.363 . S
C1260 C1261 1.363 . S
C1260 C1265 1.379 1_455 S
C1260 N1267 1.356 . S
C1261 C1260 1.363 . S
C1261 C1264 1.363 . S
N1262 C1264 1.356 . S
N1262 H1274 0.984 . S
N1262 H1275 0.985 . S
N1263 C1265 1.356 . S
N1263 H1268 0.984 . S
N1263 H1269 0.985 . S
C1264 C1258 1.379 1_455 S
C1264 C1261 1.363 . S
C1264 N1262 1.356 . S
C1265 C1259 1.363 . S
C1265 C1260 1.379 1_655 S
C1265 N1263 1.356 . S
N1266 C1258 1.356 . S
N1266 H1272 0.984 . S
N1266 H1273 0.984 . S
N1267 C1260 1.356 . S
N1267 H1270 0.984 . S
N1267 H1271 0.985 . S
H1268 N1263 0.984 . S
H1269 N1263 0.985 . S
H1270 N1267 0.984 . S
H1271 N1267 0.985 . S
H1272 N1266 0.984 . S
H1273 N1266 0.984 . S
H1274 N1262 0.984 . S
H1275 N1262 0.985 . S
C1276 C1277 1.363 . S
C1276 C1282 1.379 1_655 S
C1276 N1284 1.356 . S
C1277 C1276 1.363 . S
C1277 C1283 1.363 . S
C1278 C1279 1.363 . S
C1278 C1283 1.379 1_455 S
C1278 N1285 1.356 . S
C1279 C1278 1.363 . S
C1279 C1282 1.363 . S
N1280 C1282 1.356 . S
N1280 H1292 0.984 . S
N1280 H1293 0.985 . S
N1281 C1283 1.356 . S
N1281 H1286 0.984 . S
N1281 H1287 0.985 . S
C1282 C1276 1.379 1_455 S
C1282 C1279 1.363 . S
C1282 N1280 1.356 . S
C1283 C1277 1.363 . S
C1283 C1278 1.379 1_655 S
C1283 N1281 1.356 . S
N1284 C1276 1.356 . S
N1284 H1290 0.984 . S
N1284 H1291 0.984 . S
N1285 C1278 1.356 . S
N1285 H1288 0.984 . S
N1285 H1289 0.985 . S
H1286 N1281 0.984 . S
H1287 N1281 0.985 . S
H1288 N1285 0.984 . S
H1289 N1285 0.985 . S
H1290 N1284 0.984 . S
H1291 N1284 0.984 . S
H1292 N1280 0.984 . S
H1293 N1280 0.985 . S
C1294 C1295 1.363 . S
C1294 C1300 1.379 . S
C1294 N1302 1.356 . S
C1295 C1294 1.363 . S
C1295 C1301 1.363 . S
C1296 C1297 1.363 . S
C1296 C1301 1.379 . S
C1296 N1303 1.356 . S
C1297 C1296 1.363 . S
C1297 C1300 1.363 . S
N1298 C1300 1.356 . S
N1298 H1310 0.984 . S
N1298 H1311 0.985 . S
N1299 C1301 1.356 . S
N1299 H1304 0.984 . S
N1299 H1305 0.985 . S
C1300 C1294 1.379 . S
C1300 C1297 1.363 . S
C1300 N1298 1.356 . S
C1301 C1295 1.363 . S
C1301 C1296 1.379 . S
C1301 N1299 1.356 . S
N1302 C1294 1.356 . S
N1302 H1308 0.984 . S
N1302 H1309 0.984 . S
N1303 C1296 1.356 . S
N1303 H1306 0.984 . S
N1303 H1307 0.985 . S
H1304 N1299 0.984 . S
H1305 N1299 0.985 . S
H1306 N1303 0.984 . S
H1307 N1303 0.985 . S
H1308 N1302 0.984 . S
H1309 N1302 0.984 . S
H1310 N1298 0.984 . S
H1311 N1298 0.985 . S
C1312 C1313 1.363 . S
C1312 C1318 1.379 . S
C1312 N1320 1.356 . S
C1313 C1312 1.363 . S
C1313 C1319 1.363 . S
C1314 C1315 1.363 . S
C1314 C1319 1.379 . S
C1314 N1321 1.356 . S
C1315 C1314 1.363 . S
C1315 C1318 1.363 . S
N1316 C1318 1.356 . S
N1316 H1328 0.984 . S
N1316 H1329 0.985 . S
N1317 C1319 1.356 . S
N1317 H1322 0.984 . S
N1317 H1323 0.985 . S
C1318 C1312 1.379 . S
C1318 C1315 1.363 . S
C1318 N1316 1.356 . S
C1319 C1313 1.363 . S
C1319 C1314 1.379 . S
C1319 N1317 1.356 . S
N1320 C1312 1.356 . S
N1320 H1326 0.984 . S
N1320 H1327 0.984 . S
N1321 C1314 1.356 . S
N1321 H1324 0.984 . S
N1321 H1325 0.985 . S
H1322 N1317 0.984 . S
H1323 N1317 0.985 . S
H1324 N1321 0.984 . S
H1325 N1321 0.985 . S
H1326 N1320 0.984 . S
H1327 N1320 0.984 . S
H1328 N1316 0.984 . S
H1329 N1316 0.985 . S
C1330 C1331 1.363 . S
C1330 C1336 1.378 . S
C1330 N1338 1.356 . S
C1331 C1330 1.363 . S
C1331 C1337 1.363 1_565 S
C1332 C1333 1.363 . S
C1332 C1337 1.379 . S
C1332 N1339 1.356 . S
C1333 C1332 1.363 . S
C1333 C1336 1.364 1_545 S
N1334 C1336 1.356 . S
N1334 H1346 0.984 . S
N1334 H1347 0.985 1_565 S
N1335 C1337 1.356 . S
N1335 H1340 0.984 . S
N1335 H1341 0.985 . S
C1336 C1330 1.378 . S
C1336 C1333 1.364 1_565 S
C1336 N1334 1.356 . S
C1337 C1331 1.363 1_545 S
C1337 C1332 1.379 . S
C1337 N1335 1.356 . S
N1338 C1330 1.356 . S
N1338 H1344 0.984 . S
N1338 H1345 0.984 . S
N1339 C1332 1.356 . S
N1339 H1342 0.984 . S
N1339 H1343 0.985 . S
H1340 N1335 0.984 . S
H1341 N1335 0.985 . S
H1342 N1339 0.984 . S
H1343 N1339 0.985 . S
H1344 N1338 0.984 . S
H1345 N1338 0.984 . S
H1346 N1334 0.984 . S
H1347 N1334 0.985 1_545 S
C1348 C1349 1.363 . S
C1348 C1354 1.379 . S
C1348 N1356 1.356 . S
C1349 C1348 1.363 . S
C1349 C1355 1.363 . S
C1350 C1351 1.363 . S
C1350 C1355 1.379 . S
C1350 N1357 1.356 . S
C1351 C1350 1.363 . S
C1351 C1354 1.363 . S
N1352 C1354 1.356 . S
N1352 H1364 0.984 . S
N1352 H1365 0.985 . S
N1353 C1355 1.356 . S
N1353 H1358 0.984 . S
N1353 H1359 0.985 . S
C1354 C1348 1.379 . S
C1354 C1351 1.363 . S
C1354 N1352 1.356 . S
C1355 C1349 1.363 . S
C1355 C1350 1.379 . S
C1355 N1353 1.356 . S
N1356 C1348 1.356 . S
N1356 H1362 0.984 . S
N1356 H1363 0.984 . S
N1357 C1350 1.356 . S
N1357 H1360 0.984 . S
N1357 H1361 0.985 . S
H1358 N1353 0.984 . S
H1359 N1353 0.985 . S
H1360 N1357 0.984 . S
H1361 N1357 0.985 . S
H1362 N1356 0.984 . S
H1363 N1356 0.984 . S
H1364 N1352 0.984 . S
H1365 N1352 0.985 . S
C1366 C1367 1.363 1_565 S
C1366 C1372 1.379 . S
C1366 N1374 1.356 . S
C1367 C1366 1.363 1_545 S
C1367 C1373 1.363 . S
C1368 C1369 1.363 1_545 S
C1368 C1373 1.379 . S
C1368 N1375 1.356 . S
C1369 C1368 1.363 1_565 S
C1369 C1372 1.363 . S
N1370 C1372 1.356 . S
N1370 H1382 0.984 . S
N1370 H1383 0.985 . S
N1371 C1373 1.356 . S
N1371 H1376 0.984 . S
N1371 H1377 0.985 . S
C1372 C1366 1.379 . S
C1372 C1369 1.363 . S
C1372 N1370 1.356 . S
C1373 C1367 1.363 . S
C1373 C1368 1.379 . S
C1373 N1371 1.356 . S
N1374 C1366 1.356 . S
N1374 H1380 0.984 . S
N1374 H1381 0.983 1_554 S
N1375 C1368 1.356 . S
N1375 H1378 0.984 . S
N1375 H1379 0.985 . S
H1376 N1371 0.984 . S
H1377 N1371 0.985 . S
H1378 N1375 0.984 . S
H1379 N1375 0.985 . S
H1380 N1374 0.984 . S
H1381 N1374 0.983 1_556 S
H1382 N1370 0.984 . S
H1383 N1370 0.985 . S
C1384 C1385 1.363 . S
C1384 C1390 1.379 . S
C1384 N1392 1.356 . S
C1385 C1384 1.363 . S
C1385 C1391 1.363 . S
C1386 C1387 1.363 . S
C1386 C1391 1.379 . S
C1386 N1393 1.356 . S
C1387 C1386 1.363 . S
C1387 C1390 1.363 . S
N1388 C1390 1.356 . S
N1388 H1400 0.984 . S
N1388 H1401 0.985 . S
N1389 C1391 1.356 . S
N1389 H1394 0.984 . S
N1389 H1395 0.985 . S
C1390 C1384 1.379 . S
C1390 C1387 1.363 . S
C1390 N1388 1.356 . S
C1391 C1385 1.363 . S
C1391 C1386 1.379 . S
C1391 N1389 1.356 . S
N1392 C1384 1.356 . S
N1392 H1398 0.984 . S
N1392 H1399 0.984 . S
N1393 C1386 1.356 . S
N1393 H1396 0.984 . S
N1393 H1397 0.985 . S
H1394 N1389 0.984 . S
H1395 N1389 0.985 . S
H1396 N1393 0.984 . S
H1397 N1393 0.985 . S
H1398 N1392 0.984 . S
H1399 N1392 0.984 . S
H1400 N1388 0.984 . S
H1401 N1388 0.985 . S
C1402 C1403 1.363 . S
C1402 C1408 1.379 . S
C1402 N1410 1.356 . S
C1403 C1402 1.363 . S
C1403 C1409 1.363 1_545 S
C1404 C1405 1.363 . S
C1404 C1409 1.379 . S
C1404 N1411 1.356 . S
C1405 C1404 1.363 . S
C1405 C1408 1.363 1_565 S
N1406 C1408 1.356 . S
N1406 H1418 0.984 . S
N1406 H1419 0.985 . S
N1407 C1409 1.356 . S
N1407 H1412 0.984 . S
N1407 H1413 0.985 . S
C1408 C1402 1.379 . S
C1408 C1405 1.363 1_545 S
C1408 N1406 1.356 . S
C1409 C1403 1.363 1_565 S
C1409 C1404 1.379 . S
C1409 N1407 1.356 . S
N1410 C1402 1.356 . S
N1410 H1416 0.984 . S
N1410 H1417 0.984 . S
N1411 C1404 1.356 . S
N1411 H1414 0.984 . S
N1411 H1415 0.985 . S
H1412 N1407 0.984 . S
H1413 N1407 0.985 . S
H1414 N1411 0.984 . S
H1415 N1411 0.985 . S
H1416 N1410 0.984 . S
H1417 N1410 0.984 . S
H1418 N1406 0.984 . S
H1419 N1406 0.985 . S
C1420 C1421 1.363 . S
C1420 C1426 1.379 . S
C1420 N1428 1.356 . S
C1421 C1420 1.363 . S
C1421 C1427 1.363 . S
C1422 C1423 1.363 . S
C1422 C1427 1.379 . S
C1422 N1429 1.356 . S
C1423 C1422 1.363 . S
C1423 C1426 1.363 . S
N1424 C1426 1.356 . S
N1424 H1436 0.984 . S
N1424 H1437 0.985 . S
N1425 C1427 1.356 . S
N1425 H1430 0.984 . S
N1425 H1431 0.985 . S
C1426 C1420 1.379 . S
C1426 C1423 1.363 . S
C1426 N1424 1.356 . S
C1427 C1421 1.363 . S
C1427 C1422 1.379 . S
C1427 N1425 1.356 . S
N1428 C1420 1.356 . S
N1428 H1434 0.984 . S
N1428 H1435 0.984 . S
N1429 C1422 1.356 . S
N1429 H1432 0.984 . S
N1429 H1433 0.985 . S
H1430 N1425 0.984 . S
H1431 N1425 0.985 . S
H1432 N1429 0.984 . S
H1433 N1429 0.985 . S
H1434 N1428 0.984 . S
H1435 N1428 0.984 . S
H1436 N1424 0.984 . S
H1437 N1424 0.985 . S
C1438 C1439 1.363 1_545 S
C1438 C1444 1.379 . S
C1438 N1446 1.356 . S
C1439 C1438 1.363 1_565 S
C1439 C1445 1.363 . S
C1440 C1441 1.363 1_565 S
C1440 C1445 1.379 . S
C1440 N1447 1.356 . S
C1441 C1440 1.363 1_545 S
C1441 C1444 1.363 . S
N1442 C1444 1.356 . S
N1442 H1454 0.984 . S
N1442 H1455 0.985 . S
N1443 C1445 1.356 . S
N1443 H1448 0.984 . S
N1443 H1449 0.985 . S
C1444 C1438 1.379 . S
C1444 C1441 1.363 . S
C1444 N1442 1.356 . S
C1445 C1439 1.363 . S
C1445 C1440 1.379 . S
C1445 N1443 1.356 . S
N1446 C1438 1.356 . S
N1446 H1452 0.984 . S
N1446 H1453 0.984 . S
N1447 C1440 1.356 . S
N1447 H1450 0.984 1_554 S
N1447 H1451 0.985 . S
H1448 N1443 0.984 . S
H1449 N1443 0.985 . S
H1450 N1447 0.984 1_556 S
H1451 N1447 0.985 . S
H1452 N1446 0.984 . S
H1453 N1446 0.984 . S
H1454 N1442 0.984 . S
H1455 N1442 0.985 . S
C1456 C1457 1.363 . S
C1456 C1462 1.379 . S
C1456 N1464 1.356 . S
C1457 C1456 1.363 . S
C1457 C1463 1.363 . S
C1458 C1459 1.363 . S
C1458 C1463 1.379 . S
C1458 N1465 1.356 . S
C1459 C1458 1.363 . S
C1459 C1462 1.363 . S
N1460 C1462 1.356 . S
N1460 H1472 0.984 . S
N1460 H1473 0.985 . S
N1461 C1463 1.356 . S
N1461 H1466 0.984 . S
N1461 H1467 0.985 . S
C1462 C1456 1.379 . S
C1462 C1459 1.363 . S
C1462 N1460 1.356 . S
C1463 C1457 1.363 . S
C1463 C1458 1.379 . S
C1463 N1461 1.356 . S
N1464 C1456 1.356 . S
N1464 H1470 0.984 . S
N1464 H1471 0.984 . S
N1465 C1458 1.356 . S
N1465 H1468 0.984 . S
N1465 H1469 0.985 . S
H1466 N1461 0.984 . S
H1467 N1461 0.985 . S
H1468 N1465 0.984 . S
H1469 N1465 0.985 . S
H1470 N1464 0.984 . S
H1471 N1464 0.984 . S
H1472 N1460 0.984 . S
H1473 N1460 0.985 . S
C1474 C1475 1.363 . S
C1474 C1480 1.379 . S
C1474 N1482 1.356 . S
C1475 C1474 1.363 . S
C1475 C1481 1.363 . S
C1476 C1477 1.363 . S
C1476 C1481 1.379 . S
C1476 N1483 1.356 . S
C1477 C1476 1.363 . S
C1477 C1480 1.363 . S
N1478 C1480 1.356 . S
N1478 H1490 0.985 . S
N1478 H1491 0.985 1_554 S
N1479 C1481 1.356 . S
N1479 H1484 0.984 . S
N1479 H1485 0.985 . S
C1480 C1474 1.379 . S
C1480 C1477 1.363 . S
C1480 N1478 1.356 . S
C1481 C1475 1.363 . S
C1481 C1476 1.379 . S
C1481 N1479 1.356 . S
N1482 C1474 1.356 . S
N1482 H1488 0.984 . S
N1482 H1489 0.984 . S
N1483 C1476 1.356 . S
N1483 H1486 0.984 . S
N1483 H1487 0.985 . S
H1484 N1479 0.984 . S
H1485 N1479 0.985 . S
H1486 N1483 0.984 . S
H1487 N1483 0.985 . S
H1488 N1482 0.984 . S
H1489 N1482 0.984 . S
H1490 N1478 0.985 . S
H1491 N1478 0.985 1_556 S
C1492 C1493 1.363 . S
C1492 C1498 1.379 . S
C1492 N1500 1.356 . S
C1493 C1492 1.363 . S
C1493 C1499 1.363 . S
C1494 C1495 1.363 . S
C1494 C1499 1.379 . S
C1494 N1501 1.356 . S
C1495 C1494 1.363 . S
C1495 C1498 1.363 . S
N1496 C1498 1.356 . S
N1496 H1508 0.984 . S
N1496 H1509 0.985 . S
N1497 C1499 1.356 . S
N1497 H1502 0.984 . S
N1497 H1503 0.985 . S
C1498 C1492 1.379 . S
C1498 C1495 1.363 . S
C1498 N1496 1.356 . S
C1499 C1493 1.363 . S
C1499 C1494 1.379 . S
C1499 N1497 1.356 . S
N1500 C1492 1.356 . S
N1500 H1506 0.984 . S
N1500 H1507 0.984 . S
N1501 C1494 1.356 . S
N1501 H1504 0.984 . S
N1501 H1505 0.985 . S
H1502 N1497 0.984 . S
H1503 N1497 0.985 . S
H1504 N1501 0.984 . S
H1505 N1501 0.985 . S
H1506 N1500 0.984 . S
H1507 N1500 0.984 . S
H1508 N1496 0.984 . S
H1509 N1496 0.985 . S
C1510 C1511 1.363 . S
C1510 C1516 1.379 . S
C1510 N1518 1.356 . S
C1511 C1510 1.363 . S
C1511 C1517 1.363 . S
C1512 C1513 1.363 . S
C1512 C1517 1.379 . S
C1512 N1519 1.356 . S
C1513 C1512 1.363 . S
C1513 C1516 1.363 . S
N1514 C1516 1.356 . S
N1514 H1526 0.984 . S
N1514 H1527 0.985 . S
N1515 C1517 1.356 . S
N1515 H1520 0.984 . S
N1515 H1521 0.985 . S
C1516 C1510 1.379 . S
C1516 C1513 1.363 . S
C1516 N1514 1.356 . S
C1517 C1511 1.363 . S
C1517 C1512 1.379 . S
C1517 N1515 1.356 . S
N1518 C1510 1.356 . S
N1518 H1524 0.984 . S
N1518 H1525 0.984 . S
N1519 C1512 1.356 . S
N1519 H1522 0.984 . S
N1519 H1523 0.985 . S
H1520 N1515 0.984 . S
H1521 N1515 0.985 . S
H1522 N1519 0.984 . S
H1523 N1519 0.985 . S
H1524 N1518 0.984 . S
H1525 N1518 0.984 . S
H1526 N1514 0.984 . S
H1527 N1514 0.985 . S
C1528 C1529 1.363 . S
C1528 C1534 1.379 . S
C1528 N1536 1.356 . S
C1529 C1528 1.363 . S
C1529 C1535 1.363 . S
C1530 C1531 1.363 . S
C1530 C1535 1.379 . S
C1530 N1537 1.356 . S
C1531 C1530 1.363 . S
C1531 C1534 1.363 . S
N1532 C1534 1.356 . S
N1532 H1544 0.984 . S
N1532 H1545 0.985 . S
N1533 C1535 1.356 . S
N1533 H1538 0.984 . S
N1533 H1539 0.985 . S
C1534 C1528 1.379 . S
C1534 C1531 1.363 . S
C1534 N1532 1.356 . S
C1535 C1529 1.363 . S
C1535 C1530 1.379 . S
C1535 N1533 1.356 . S
N1536 C1528 1.356 . S
N1536 H1542 0.984 . S
N1536 H1543 0.984 . S
N1537 C1530 1.356 . S
N1537 H1540 0.984 . S
N1537 H1541 0.985 . S
H1538 N1533 0.984 . S
H1539 N1533 0.985 . S
H1540 N1537 0.984 . S
H1541 N1537 0.985 . S
H1542 N1536 0.984 . S
H1543 N1536 0.984 . S
H1544 N1532 0.984 . S
H1545 N1532 0.985 . S
C1546 C1547 1.363 . S
C1546 C1552 1.379 . S
C1546 N1554 1.356 . S
C1547 C1546 1.363 . S
C1547 C1553 1.363 . S
C1548 C1549 1.363 . S
C1548 C1553 1.379 . S
C1548 N1555 1.356 . S
C1549 C1548 1.363 . S
C1549 C1552 1.363 . S
N1550 C1552 1.356 . S
N1550 H1562 0.984 . S
N1550 H1563 0.985 . S
N1551 C1553 1.356 . S
N1551 H1556 0.984 1_554 S
N1551 H1557 0.985 . S
C1552 C1546 1.379 . S
C1552 C1549 1.363 . S
C1552 N1550 1.356 . S
C1553 C1547 1.363 . S
C1553 C1548 1.379 . S
C1553 N1551 1.356 . S
N1554 C1546 1.356 . S
N1554 H1560 0.984 . S
N1554 H1561 0.984 . S
N1555 C1548 1.356 . S
N1555 H1558 0.984 . S
N1555 H1559 0.985 . S
H1556 N1551 0.984 1_556 S
H1557 N1551 0.985 . S
H1558 N1555 0.984 . S
H1559 N1555 0.985 . S
H1560 N1554 0.984 . S
H1561 N1554 0.984 . S
H1562 N1550 0.984 . S
H1563 N1550 0.985 . S
C1564 C1565 1.363 . S
C1564 C1570 1.379 . S
C1564 N1572 1.356 . S
C1565 C1564 1.363 . S
C1565 C1571 1.363 . S
C1566 C1567 1.363 . S
C1566 C1571 1.379 . S
C1566 N1573 1.356 . S
C1567 C1566 1.363 . S
C1567 C1570 1.363 . S
N1568 C1570 1.356 . S
N1568 H1580 0.984 . S
N1568 H1581 0.985 . S
N1569 C1571 1.356 . S
N1569 H1574 0.984 . S
N1569 H1575 0.985 . S
C1570 C1564 1.379 . S
C1570 C1567 1.363 . S
C1570 N1568 1.356 . S
C1571 C1565 1.363 . S
C1571 C1566 1.379 . S
C1571 N1569 1.356 . S
N1572 C1564 1.356 . S
N1572 H1578 0.984 . S
N1572 H1579 0.984 . S
N1573 C1566 1.356 . S
N1573 H1576 0.984 . S
N1573 H1577 0.985 . S
H1574 N1569 0.984 . S
H1575 N1569 0.985 . S
H1576 N1573 0.984 . S
H1577 N1573 0.985 . S
H1578 N1572 0.984 . S
H1579 N1572 0.984 . S
H1580 N1568 0.984 . S
H1581 N1568 0.985 . S
C1582 C1583 1.363 . S
C1582 C1588 1.379 . S
C1582 N1590 1.356 . S
C1583 C1582 1.363 . S
C1583 C1589 1.363 . S
C1584 C1585 1.363 . S
C1584 C1589 1.379 . S
C1584 N1591 1.356 . S
C1585 C1584 1.363 . S
C1585 C1588 1.363 . S
N1586 C1588 1.356 . S
N1586 H1598 0.984 . S
N1586 H1599 0.985 . S
N1587 C1589 1.356 . S
N1587 H1592 0.984 . S
N1587 H1593 0.985 . S
C1588 C1582 1.379 . S
C1588 C1585 1.363 . S
C1588 N1586 1.356 . S
C1589 C1583 1.363 . S
C1589 C1584 1.379 . S
C1589 N1587 1.356 . S
N1590 C1582 1.356 . S
N1590 H1596 0.984 . S
N1590 H1597 0.984 . S
N1591 C1584 1.356 . S
N1591 H1594 0.984 . S
N1591 H1595 0.985 . S
H1592 N1587 0.984 . S
H1593 N1587 0.985 . S
H1594 N1591 0.984 . S
H1595 N1591 0.985 . S
H1596 N1590 0.984 . S
H1597 N1590 0.984 . S
H1598 N1586 0.984 . S
H1599 N1586 0.985 . S
C449 C104 1.495 . S
C451 C6 1.495 . S
C467 C20 1.495 . S
C469 C62 1.495 . S
C485 C76 1.495 . S
C487 C34 1.495 . S
C503 C48 1.495 . S
C505 C90 1.495 . S
C521 C118 1.495 . S
C523 C216 1.495 . S
C539 C132 1.495 . S
C541 C174 1.495 . S
C557 C146 1.495 . S
C559 C188 1.495 . S
C575 C160 1.495 . S
C577 C202 1.495 . S
C593 C230 1.495 . S
C595 C328 1.495 . S
C611 C244 1.495 . S
C613 C286 1.495 . S
C629 C300 1.495 . S
C631 C258 1.495 . S
C647 C314 1.495 . S
C649 C272 1.495 . S
C665 C342 1.495 . S
C667 C440 1.495 . S
C683 C398 1.495 . S
C685 C356 1.495 . S
C701 C412 1.495 . S
C703 C370 1.495 . S
C719 C384 1.495 . S
C721 C426 1.495 . S
C737 C8 1.131 . S
C739 C92 1.131 . S
C755 C22 1.131 . S
C757 C106 1.131 . S
C773 C64 1.131 . S
C775 C36 1.131 . S
C791 C50 1.131 . S
C793 C78 1.131 . S
C809 C120 1.131 . S
C811 C204 1.131 . S
C827 C134 1.131 . S
C829 C218 1.131 . S
C845 C176 1.131 . S
C847 C148 1.131 . S
C863 C190 1.131 . S
C865 C162 1.131 . S
C881 C232 1.131 . S
C883 C316 1.131 . S
C899 C330 1.131 . S
C901 C246 1.131 . S
C917 C288 1.131 . S
C919 C260 1.131 . S
C935 C274 1.131 . S
C937 C302 1.131 . S
C953 C344 1.131 . S
C955 C428 1.131 . S
C971 C358 1.131 . S
C973 C442 1.131 . S
C989 C400 1.131 . S
C991 C372 1.131 . S
C1007 C414 1.131 . S
C1009 C386 1.131 . S
C1025 C9 1.539 . S
C1027 C429 1.539 . S
C1043 C23 1.539 . S
C1045 C219 1.539 . S
C1061 C37 1.539 . S
C1063 C401 1.539 . S
C1079 C51 1.539 . S
C1081 C191 1.539 . S
C1097 C65 1.539 . S
C1099 C373 1.539 . S
C1115 C79 1.539 . S
C1117 C163 1.539 . S
C1133 C93 1.539 . S
C1135 C345 1.539 . S
C1151 C135 1.539 . S
C1153 C107 1.539 . S
C1169 C317 1.539 . S
C1171 C121 1.539 . S
C1187 C149 1.539 . S
C1189 C289 1.539 . S
C1205 C261 1.539 . S
C1207 C177 1.539 . S
C1223 C233 1.539 . S
C1225 C205 1.539 . S
C1241 C247 1.539 . S
C1243 C443 1.539 . S
C1259 C275 1.539 . S
C1261 C415 1.539 . S
C1277 C303 1.539 . S
C1279 C387 1.539 . S
C1295 C359 1.539 . S
C1297 C331 1.539 . S
C1313 C7 1.512 . S
C1315 C91 1.512 . S
C1331 C21 1.512 . S
C1333 C105 1.512 . S
C1349 C63 1.512 . S
C1351 C35 1.512 . S
C1367 C49 1.512 1_554 S
C1369 C77 1.512 . S
C1385 C119 1.512 . S
C1387 C203 1.512 . S
C1403 C133 1.512 . S
C1405 C217 1.512 . S
C1421 C175 1.512 . S
C1423 C147 1.512 . S
C1439 C161 1.512 . S
C1441 C189 1.512 1_554 S
C1457 C315 1.512 . S
C1459 C231 1.512 . S
C1475 C329 1.512 . S
C1477 C245 1.512 1_554 S
C1493 C287 1.512 . S
C1495 C259 1.512 . S
C1511 C301 1.512 . S
C1513 C273 1.512 . S
C1529 C427 1.512 . S
C1531 C343 1.512 . S
C1547 C441 1.512 1_554 S
C1549 C357 1.512 . S
C1565 C371 1.512 . S
C1567 C399 1.512 . S
C1583 C413 1.512 . S
C1585 C385 1.512 . S
