# Generated by pormake.
# Topology rob, (6)-cn, num edge types: 1
# Building blocks:
#     Node 0, Type 0, BuildingBlock: PAMTUU_clean_sbu_0, # of connection points: 6
#     Node 1, Type 0, BuildingBlock: PAMTUU_clean_sbu_0, # of connection points: 6
#     Node 2, Type 0, BuildingBlock: PAMTUU_clean_sbu_0, # of connection points: 6
#     Node 3, Type 0, BuildingBlock: PAMTUU_clean_sbu_0, # of connection points: 6
#     Edge 4, Type (0, 0), BuildingBlock: MIFKUJ_clean_linker_0, # of connection points: 2
#     Edge 5, Type (0, 0), BuildingBlock: MIFKUJ_clean_linker_0, # of connection points: 2
#     Edge 6, Type (0, 0), BuildingBlock: MIFKUJ_clean_linker_0, # of connection points: 2
#     Edge 7, Type (0, 0), BuildingBlock: MIFKUJ_clean_linker_0, # of connection points: 2
#     Edge 8, Type (0, 0), BuildingBlock: MIFKUJ_clean_linker_0, # of connection points: 2
#     Edge 9, Type (0, 0), BuildingBlock: MIFKUJ_clean_linker_0, # of connection points: 2
#     Edge 10, Type (0, 0), BuildingBlock: MIFKUJ_clean_linker_0, # of connection points: 2
#     Edge 11, Type (0, 0), BuildingBlock: MIFKUJ_clean_linker_0, # of connection points: 2
#     Edge 12, Type (0, 0), BuildingBlock: MIFKUJ_clean_linker_0, # of connection points: 2
#     Edge 13, Type (0, 0), BuildingBlock: MIFKUJ_clean_linker_0, # of connection points: 2
#     Edge 14, Type (0, 0), BuildingBlock: MIFKUJ_clean_linker_0, # of connection points: 2
#     Edge 15, Type (0, 0), BuildingBlock: MIFKUJ_clean_linker_0, # of connection points: 2
# Relax obj value: 0.105
# Max RMSD: 0.190
# Mean RMSD: 0.190
data_MOF--net-rob--node1-PAMTUU_clean_sbu_0--edge1-MIFKUJ_clean_linker_0
_symmetry_space_group_name_H-M    P1
_symmetry_Int_Tables_number       1
_symmetry_cell_setting            triclinic
loop_
_symmetry_equiv_pos_as_xyz
'x, y, z'
_cell_length_a     21.72458
_cell_length_b     32.439735
_cell_length_c     44.73958
_cell_angle_alpha  89.992467
_cell_angle_beta   59.061457
_cell_angle_gamma 90.304888
loop_
_atom_site_label
_atom_site_type_symbol
_atom_site_fract_x
_atom_site_fract_y
_atom_site_fract_z
_atom_type_partial_charge
Tb0 Tb 0.20741 0.26693 0.97632 0.0
Tb1 Tb 0.31899 0.21567 0.99315 0.0
C2 C 0.33355 0.31062 0.97749 0.0
C3 C 0.10923 0.29804 0.93085 0.0
C4 C 0.07273 0.29417 0.87827 0.0
C5 C 0.11841 0.3254 0.87787 0.0
C6 C 0.13607 0.3274 0.90385 0.0
C7 C 0.06415 0.26647 0.93115 0.0
C8 C 0.0462 0.26456 0.90518 0.0
C9 C 0.12629 0.30195 0.95903 0.0
O10 O 0.30577 0.25429 0.92742 0.0
O11 O 0.34669 0.1963 0.94128 0.0
O12 O 0.22196 0.17946 0.01078 0.0
O13 O 0.19434 0.20189 0.9708 0.0
O14 O 0.42134 0.20699 0.9865 0.0
O15 O 0.33254 0.16796 0.02096 0.0
O16 O 0.25681 0.25551 0.03711 0.0
O17 O 0.15588 0.26374 0.03323 0.0
O18 O 0.26544 0.31307 0.98723 0.0
O19 O 0.36694 0.27512 0.97064 0.0
C20 C 0.34533 0.22084 0.91825 0.0
O21 O 0.10527 0.27238 0.98211 0.0
O22 O 0.19064 0.31495 0.94976 0.0
C23 C 0.18956 0.1742 0.99315 0.0
C24 C 0.41471 0.18457 0.03837 0.0
C25 C 0.43878 0.19296 0.0945 0.0
C26 C 0.46593 0.15889 0.07191 0.0
C27 C 0.45381 0.15473 0.04419 0.0
C28 C 0.38834 0.21891 0.06045 0.0
C29 C 0.40012 0.22304 0.08829 0.0
C30 C 0.39843 0.17855 0.01048 0.0
C31 C 0.18868 0.26458 0.05121 0.0
H32 H 0.14094 0.34835 0.85732 0.0
H33 H 0.1706 0.35223 0.9029 0.0
H34 H 0.042 0.24344 0.95165 0.0
H35 H 0.01042 0.24027 0.90658 0.0
H36 H 0.49513 0.13489 0.07613 0.0
H37 H 0.47412 0.12785 0.02758 0.0
H38 H 0.35814 0.24232 0.05633 0.0
H39 H 0.37921 0.2499 0.10485 0.0
Tb40 Tb 0.71163 0.7596 0.99348 0.0
Tb41 Tb 0.81211 0.70639 0.01657 0.0
C42 C 0.82361 0.801 0.00819 0.0
C43 C 0.62996 0.79467 0.94128 0.0
C44 C 0.60527 0.78904 0.88498 0.0
C45 C 0.63664 0.82458 0.88971 0.0
C46 C 0.64855 0.82737 0.91754 0.0
C47 C 0.59869 0.75896 0.93669 0.0
C48 C 0.58617 0.75628 0.90891 0.0
C49 C 0.64456 0.79887 0.97012 0.0
O50 O 0.78114 0.72015 0.95051 0.0
O51 O 0.87499 0.71525 0.96016 0.0
O52 O 0.76081 0.66116 0.00069 0.0
O53 O 0.66213 0.6994 0.01193 0.0
O54 O 0.91085 0.69937 0.01396 0.0
O55 O 0.82235 0.65805 0.04504 0.0
O56 O 0.7076 0.71663 0.06255 0.0
O57 O 0.67054 0.77558 0.04767 0.0
O58 O 0.80063 0.79803 0.98628 0.0
O59 O 0.81763 0.77022 0.0284 0.0
C60 C 0.84871 0.71293 0.93951 0.0
O61 O 0.61401 0.77287 0.9961 0.0
O62 O 0.71123 0.80581 0.9607 0.0
C63 C 0.69501 0.66386 0.00669 0.0
C64 C 0.89801 0.67511 0.06666 0.0
C65 C 0.92065 0.68399 0.12327 0.0
C66 C 0.94546 0.64896 0.10173 0.0
C67 C 0.93429 0.64463 0.07372 0.0
C68 C 0.87292 0.71014 0.08804 0.0
C69 C 0.88433 0.7146 0.11601 0.0
C70 C 0.88646 0.66987 0.03713 0.0
C71 C 0.66775 0.74989 0.07109 0.0
H72 H 0.65105 0.85063 0.87215 0.0
H73 H 0.6725 0.85528 0.92053 0.0
H74 H 0.58413 0.73309 0.95444 0.0
H75 H 0.56242 0.72834 0.90588 0.0
H76 H 0.97434 0.62504 0.10626 0.0
H77 H 0.95412 0.61741 0.05751 0.0
H78 H 0.84437 0.73396 0.08315 0.0
H79 H 0.86374 0.74168 0.1323 0.0
Tb80 Tb 0.31638 0.78868 0.51194 0.0
Tb81 Tb 0.19715 0.73613 0.50065 0.0
C82 C 0.20026 0.83144 0.50154 0.0
C83 C 0.42301 0.81881 0.55168 0.0
C84 C 0.45667 0.80835 0.60458 0.0
C85 C 0.48243 0.84279 0.5821 0.0
C86 C 0.46567 0.84795 0.55598 0.0
C87 C 0.39775 0.78416 0.5737 0.0
C88 C 0.4144 0.77897 0.59986 0.0
C89 C 0.40159 0.82595 0.52567 0.0
O90 O 0.2451 0.75855 0.56059 0.0
O91 O 0.14474 0.74962 0.55627 0.0
O92 O 0.24378 0.69102 0.51876 0.0
O93 O 0.35077 0.72464 0.50126 0.0
O94 O 0.09262 0.73234 0.50939 0.0
O95 O 0.17168 0.68642 0.47854 0.0
O96 O 0.29908 0.73814 0.45145 0.0
O97 O 0.34816 0.79821 0.45778 0.0
O98 O 0.23045 0.83035 0.52049 0.0
O99 O 0.19876 0.79908 0.48448 0.0
C100 C 0.17596 0.75272 0.57478 0.0
O101 O 0.42192 0.79855 0.50107 0.0
O102 O 0.33468 0.83597 0.53853 0.0
C103 C 0.31076 0.69102 0.51119 0.0
C104 C 0.08632 0.70262 0.46232 0.0
C105 C 0.04539 0.70412 0.4114 0.0
C106 C 0.06383 0.66686 0.421 0.0
C107 C 0.08395 0.66618 0.44609 0.0
C108 C 0.06719 0.73991 0.45325 0.0
C109 C 0.0467 0.7406 0.42821 0.0
C110 C 0.10777 0.70065 0.48885 0.0
C111 C 0.34328 0.76978 0.43814 0.0
H112 H 0.51417 0.86636 0.58521 0.0
H113 H 0.48509 0.8751 0.53949 0.0
H114 H 0.36448 0.76134 0.57089 0.0
H115 H 0.39432 0.75183 0.61631 0.0
H116 H 0.06511 0.63819 0.40834 0.0
H117 H 0.09836 0.63704 0.45263 0.0
H118 H 0.06813 0.76859 0.46541 0.0
H119 H 0.03194 0.76984 0.42207 0.0
Tb120 Tb 0.7982 0.27427 0.49797 0.0
Tb121 Tb 0.68937 0.21952 0.48134 0.0
C122 C 0.67248 0.31549 0.49479 0.0
C123 C 0.89238 0.30698 0.54361 0.0
C124 C 0.91642 0.3003 0.59996 0.0
C125 C 0.94478 0.33369 0.57645 0.0
C126 C 0.93285 0.33695 0.54861 0.0
C127 C 0.86425 0.27339 0.56677 0.0
C128 C 0.87633 0.27002 0.5946 0.0
C129 C 0.87858 0.31156 0.51472 0.0
O130 O 0.69912 0.26238 0.54692 0.0
O131 O 0.65693 0.20343 0.53458 0.0
O132 O 0.78139 0.18167 0.47047 0.0
O133 O 0.80635 0.21074 0.50954 0.0
O134 O 0.58787 0.20471 0.48867 0.0
O135 O 0.68305 0.17292 0.4505 0.0
O136 O 0.75287 0.2589 0.43697 0.0
O137 O 0.85299 0.26681 0.44128 0.0
O138 O 0.74009 0.31886 0.48598 0.0
O139 O 0.63992 0.27948 0.5006 0.0
C140 C 0.66021 0.22838 0.5569 0.0
O141 O 0.8999 0.28139 0.49235 0.0
O142 O 0.8144 0.32383 0.52349 0.0
C143 C 0.80889 0.17951 0.49055 0.0
C144 C 0.59531 0.1842 0.43548 0.0
C145 C 0.56397 0.1927 0.38164 0.0
C146 C 0.60025 0.15782 0.38334 0.0
C147 C 0.61545 0.1536 0.40998 0.0
C148 C 0.55863 0.21907 0.43405 0.0
C149 C 0.54284 0.22316 0.40748 0.0
C150 C 0.61521 0.17928 0.46238 0.0
C151 C 0.82138 0.26714 0.42282 0.0
H152 H 0.9768 0.35724 0.57937 0.0
H153 H 0.95506 0.36306 0.53103 0.0
H154 H 0.83244 0.24999 0.56348 0.0
H155 H 0.85308 0.24414 0.61231 0.0
H156 H 0.61649 0.13352 0.36418 0.0
H157 H 0.64366 0.1264 0.41049 0.0
H158 H 0.54278 0.24336 0.4532 0.0
H159 H 0.5154 0.25058 0.40675 0.0
H160 H 0.55517 0.6563 0.02439 0.0
H161 H 0.49526 0.59522 0.01942 0.0
H162 H 0.68987 0.52542 0.98161 0.0
H163 H 0.75078 0.58658 0.98625 0.0
H164 H 0.62961 0.51602 0.94111 0.0
H165 H 0.55445 0.50958 0.06195 0.0
H166 H 0.50243 0.53486 0.1221 0.0
H167 H 0.3004 0.55433 0.12877 0.0
H168 H 0.35157 0.52986 0.0684 0.0
H169 H 0.47525 0.31767 0.95678 0.0
H170 H 0.53746 0.37851 0.96035 0.0
H171 H 0.34349 0.44939 -0.00016 0.0
H172 H 0.28028 0.38851 0.99675 0.0
H173 H 0.40457 0.45771 0.03946 0.0
H174 H 0.48041 0.46527 0.91825 0.0
H175 H 0.53214 0.43918 0.85833 0.0
H176 H 0.73243 0.4168 0.85274 0.0
H177 H 0.68157 0.44224 0.91285 0.0
C178 C 0.58525 0.62793 0.01522 0.0
C179 C 0.65777 0.62626 0.00569 0.0
C180 C 0.55079 0.59304 0.01255 0.0
C181 C 0.58813 0.55589 0.00038 0.0
C182 C 0.66029 0.55392 0.99111 0.0
C183 C 0.69482 0.58881 0.99392 0.0
C184 C 0.55233 0.51955 0.99613 0.0
C185 C 0.58099 0.50281 0.96269 0.0
C186 C 0.48796 0.50324 0.0242 0.0
C187 C 0.45715 0.51832 0.06046 0.0
C188 C 0.49917 0.51968 0.07609 0.0
C189 C 0.46978 0.53379 0.11026 0.0
C190 C 0.39822 0.54632 0.12921 0.0
C191 C 0.35586 0.5447 0.11404 0.0
C192 C 0.38504 0.53071 0.07984 0.0
C193 C 0.44587 0.34627 0.9659 0.0
C194 C 0.37274 0.34826 0.97658 0.0
C195 C 0.48165 0.38103 0.96778 0.0
C196 C 0.44505 0.41837 0.98018 0.0
C197 C 0.37251 0.42074 0.99019 0.0
C198 C 0.33663 0.38599 0.98828 0.0
C199 C 0.48161 0.45434 0.98443 0.0
C200 C 0.45314 0.47096 0.01789 0.0
C201 C 0.54613 0.47053 0.95639 0.0
C202 C 0.57693 0.45529 0.92019 0.0
C203 C 0.5353 0.45446 0.90436 0.0
C204 C 0.5645 0.43985 0.87034 0.0
C205 C 0.63546 0.42624 0.85178 0.0
C206 C 0.67744 0.42731 0.86717 0.0
C207 C 0.64847 0.44186 0.9012 0.0
H208 H 0.65798 0.41494 0.82544 0.0
H209 H 0.37555 0.55719 0.15568 0.0
H210 H 0.44703 0.67864 0.4977 0.0
H211 H 0.50184 0.61352 0.49837 0.0
H212 H 0.30285 0.54953 0.53021 0.0
H213 H 0.24698 0.61471 0.52991 0.0
H214 H 0.37145 0.52162 0.56497 0.0
H215 H 0.42644 0.54512 0.44821 0.0
H216 H 0.46673 0.58798 0.39578 0.0
H217 H 0.67525 0.60046 0.3837 0.0
H218 H 0.63583 0.55804 0.43641 0.0
H219 H 0.53032 0.32204 0.51551 0.0
H220 H 0.46401 0.38491 0.52068 0.0
H221 H 0.65611 0.4573 0.48653 0.0
H222 H 0.72302 0.39476 0.48105 0.0
H223 H 0.58538 0.47921 0.45326 0.0
H224 H 0.52822 0.45423 0.57092 0.0
H225 H 0.48493 0.41224 0.62405 0.0
H226 H 0.27736 0.40193 0.63479 0.0
H227 H 0.31982 0.4433 0.58129 0.0
C228 C 0.41461 0.65083 0.50503 0.0
C229 C 0.34282 0.65185 0.51334 0.0
C230 C 0.44607 0.61364 0.50543 0.0
C231 C 0.40655 0.57674 0.51395 0.0
C232 C 0.33417 0.57774 0.52353 0.0
C233 C 0.30255 0.61498 0.52313 0.0
C234 C 0.44234 0.53698 0.51087 0.0
C235 C 0.4176 0.51196 0.54049 0.0
C236 C 0.5029 0.52477 0.47896 0.0
C237 C 0.528 0.54872 0.4464 0.0
C238 C 0.48083 0.55709 0.43442 0.0
C239 C 0.50348 0.5813 0.40468 0.0
C240 C 0.57337 0.59706 0.38653 0.0
C241 C 0.62106 0.58828 0.39785 0.0
C242 C 0.59863 0.56409 0.42763 0.0
C243 C 0.55854 0.35132 0.5091 0.0
C244 C 0.632 0.35336 0.49794 0.0
C245 C 0.52045 0.38721 0.5122 0.0
C246 C 0.55509 0.42573 0.50426 0.0
C247 C 0.62845 0.42783 0.49281 0.0
C248 C 0.66652 0.39203 0.48979 0.0
C249 C 0.51523 0.46394 0.5075 0.0
C250 C 0.53911 0.48867 0.47777 0.0
C251 C 0.45363 0.47563 0.53929 0.0
C252 C 0.42751 0.45142 0.57183 0.0
C253 C 0.47351 0.44275 0.58444 0.0
C254 C 0.44911 0.41909 0.61464 0.0
C255 C 0.37859 0.40425 0.63266 0.0
C256 C 0.33208 0.41333 0.6207 0.0
C257 C 0.35628 0.4369 0.59045 0.0
H258 H 0.36007 0.3857 0.65587 0.0
H259 H 0.59041 0.61609 0.36372 0.0
H260 H 0.16663 0.11022 0.03752 0.0
H261 H 0.09736 0.04731 0.0456 0.0
H262 H 0.0472 0.0899 0.96922 0.0
H263 H 0.11549 0.15311 0.96123 0.0
H264 H 0.93026 0.05632 0.02668 0.0
H265 H 0.17843 0.02135 0.94678 0.0
H266 H 0.30645 0.01577 0.92811 0.0
H267 H 0.25217 0.93724 0.01567 0.0
H268 H 0.12366 0.94283 0.03512 0.0
H269 H 0.84148 0.87254 0.9723 0.0
H270 H 0.89639 0.93667 0.97612 0.0
H271 H 0.93329 0.88184 0.05337 0.0
H272 H 0.87888 0.81746 0.04967 0.0
H273 H 0.05235 0.92097 0.00145 0.0
H274 H 0.80521 0.9508 0.07881 0.0
H275 H 0.67712 0.95589 0.09766 0.0
H276 H 0.72805 0.04345 0.01602 0.0
H277 H 0.85669 0.03841 0.99632 0.0
C278 C 0.14073 0.10628 0.02249 0.0
C279 C 0.14692 0.13649 -0.00144 0.0
C280 C 0.10127 0.07033 0.02714 0.0
C281 C 0.06785 0.06395 0.00777 0.0
C282 C 0.07266 0.09438 0.98441 0.0
C283 C 0.11201 0.13035 0.97976 0.0
C284 C 0.0295 0.02501 0.01102 0.0
C285 C 0.95696 0.02672 0.0209 0.0
C286 C 0.06414 0.98645 0.00441 0.0
C287 C 0.14141 0.98288 0.99261 0.0
C288 C 0.19376 0.00316 0.9622 0.0
C289 C 0.26641 -5e-05 0.95145 0.0
C290 C 0.28741 0.97626 0.97074 0.0
C291 C 0.23581 0.95564 0.00078 0.0
C292 C 0.16307 0.95879 0.01167 0.0
C293 C 0.86112 0.87411 0.99016 0.0
C294 C 0.85609 0.8399 0.01058 0.0
C295 C 0.89207 0.91082 0.99244 0.0
C296 C 0.91822 0.91393 0.01523 0.0
C297 C 0.91326 0.87992 0.03567 0.0
C298 C 0.88216 0.84322 0.03349 0.0
C299 C 0.95334 0.95229 0.0166 0.0
C300 C 0.02533 0.9505 0.00759 0.0
C301 C 0.91812 0.99072 0.02408 0.0
C302 C 0.84073 0.99395 0.03589 0.0
C303 C 0.78921 0.97088 0.06468 0.0
C304 C 0.71646 0.97381 0.07556 0.0
C305 C 0.69447 -8e-05 0.058 0.0
C306 C 0.74518 0.02322 0.02958 0.0
C307 C 0.81802 0.02037 0.01856 0.0
H308 H 0.63812 0.00215 0.06647 0.0
H309 H 0.34368 0.97381 0.96238 0.0
H310 H 0.81674 0.15244 0.54576 0.0
H311 H 0.87875 0.09167 0.5489 0.0
H312 H 0.94053 0.06003 0.44339 0.0
H313 H 0.8754 0.12017 0.44069 0.0
H314 H 0.90545 0.99244 0.48361 0.0
H315 H 0.05904 0.11232 0.46248 0.0
H316 H 0.07989 0.18259 0.4767 0.0
H317 H 0.02693 0.14166 0.57855 0.0
H318 H 0.00546 0.07118 0.56496 0.0
H319 H 0.18318 0.8562 0.44834 0.0
H320 H 0.11737 0.91602 0.44672 0.0
H321 H 0.06986 0.95089 0.54956 0.0
H322 H 0.13902 0.89197 0.5505 0.0
H323 H 0.0953 0.01675 0.51218 0.0
H324 H 0.94611 0.89784 0.5349 0.0
H325 H 0.91768 0.82754 0.52444 0.0
H326 H 0.95251 0.86546 0.42493 0.0
H327 H 0.98214 0.9359 0.43458 0.0
C328 C 0.84323 0.1324 0.52328 0.0
C329 C 0.84233 0.14121 0.49276 0.0
C330 C 0.87879 0.09776 0.52508 0.0
C331 C 0.91595 0.07198 0.49604 0.0
C332 C 0.91263 0.07975 0.466 0.0
C333 C 0.87563 0.11405 0.46444 0.0
C334 C 0.96043 0.03789 0.49663 0.0
C335 C 0.94761 -0.00224 0.48938 0.0
C336 C 0.01391 0.04474 0.50525 0.0
C337 C 0.03045 0.08657 0.51274 0.0
C338 C 0.05202 0.11832 0.48787 0.0
C339 C 0.06386 0.15818 0.49583 0.0
C340 C 0.05466 0.16659 0.52852 0.0
C341 C 0.03414 0.13508 0.55322 0.0
C342 C 0.02235 0.09516 0.54537 0.0
C343 C 0.15917 0.87684 0.47048 0.0
C344 C 0.16548 0.86936 0.4997 0.0
C345 C 0.12123 0.91087 0.46962 0.0
C346 C 0.08693 0.93731 0.49842 0.0
C347 C 0.09549 0.93074 0.52712 0.0
C348 C 0.13492 0.89713 0.52766 0.0
C349 C 0.04088 0.97116 0.49883 0.0
C350 C 0.05327 0.01129 0.50633 0.0
C351 C 0.98631 0.96418 0.49091 0.0
C352 C 0.96685 0.92209 0.48536 0.0
C353 C 0.94799 0.89115 0.51072 0.0
C354 C 0.93167 0.85128 0.50494 0.0
C355 C 0.93337 0.84204 0.47403 0.0
C356 C 0.95121 0.87268 0.44886 0.0
C357 C 0.96769 0.9126 0.45449 0.0
H358 H 0.92069 0.81116 0.46961 0.0
H359 H 0.06344 0.19751 0.53472 0.0
H360 H 0.44045 0.21954 0.38523 0.0
H361 H 0.41585 0.22429 0.33764 0.0
H362 H 0.6288 0.18008 0.26538 0.0
H363 H 0.65395 0.17612 0.3126 0.0
H364 H 0.59431 0.24333 0.23772 0.0
H365 H 0.48334 0.11612 0.29744 0.0
H366 H 0.40265 0.07303 0.34834 0.0
H367 H 0.22113 0.14206 0.36292 0.0
H368 H 0.30094 0.18593 0.31232 0.0
H369 H 0.56047 0.17613 0.09628 0.0
H370 H 0.57756 0.1804 0.14608 0.0
H371 H 0.36027 0.22311 0.21071 0.0
H372 H 0.34213 0.21787 0.16116 0.0
H373 H 0.39113 0.16506 0.24399 0.0
H374 H 0.50069 0.28968 0.18226 0.0
H375 H 0.581 0.33293 0.13143 0.0
H376 H 0.76432 0.26974 0.12087 0.0
H377 H 0.68501 0.22566 0.17136 0.0
C378 C 0.48225 0.21124 0.35913 0.0
C379 C 0.54911 0.19715 0.35275 0.0
C380 C 0.46793 0.21366 0.332 0.0
C381 C 0.52018 0.20207 0.29794 0.0
C382 C 0.5875 0.18904 0.2914 0.0
C383 C 0.60166 0.18647 0.31849 0.0
C384 C 0.50485 0.20288 0.26909 0.0
C385 C 0.55028 0.2259 0.23897 0.0
C386 C 0.44627 0.18103 0.27101 0.0
C387 C 0.3982 0.1546 0.30134 0.0
C388 C 0.42629 0.12232 0.31167 0.0
C389 C 0.3807 0.09772 0.34043 0.0
C390 C 0.30683 0.10489 0.35892 0.0
C391 C 0.27838 0.1366 0.34861 0.0
C392 C 0.32375 0.16132 0.31988 0.0
C393 C 0.51613 0.18624 0.12111 0.0
C394 C 0.44993 0.1967 0.12464 0.0
C395 C 0.5262 0.18903 0.14953 0.0
C396 C 0.47045 0.20251 0.18213 0.0
C397 C 0.40418 0.21279 0.18581 0.0
C398 C 0.3941 0.2101 0.15736 0.0
C399 C 0.48114 0.20513 0.21242 0.0
C400 C 0.43485 0.18275 0.24282 0.0
C401 C 0.53887 0.22762 0.21078 0.0
C402 C 0.58681 0.2541 0.18042 0.0
C403 C 0.55809 0.28477 0.16893 0.0
C404 C 0.60344 0.30948 0.14021 0.0
C405 C 0.6777 0.30402 0.12288 0.0
C406 C 0.70677 0.2739 0.13429 0.0
C407 C 0.66164 0.24907 0.16299 0.0
H408 H 0.71273 0.32319 0.10065 0.0
H409 H 0.27162 0.08581 0.38119 0.0
H410 H 0.61864 0.82512 0.1023 0.0
H411 H 0.55701 0.83965 0.16514 0.0
H412 H 0.55653 0.70976 0.18617 0.0
H413 H 0.61672 0.69514 0.12421 0.0
H414 H 0.42965 0.7452 0.22999 0.0
H415 H 0.68342 0.77303 0.18275 0.0
H416 H 0.7963 0.80979 0.14292 0.0
H417 H 0.69713 0.9253 0.18879 0.0
H418 H 0.5832 0.88925 0.22852 0.0
H419 H 0.39257 0.70867 0.39018 0.0
H420 H 0.44494 0.7155 0.32739 0.0
H421 H 0.43415 0.84801 0.33706 0.0
H422 H 0.38413 0.84125 0.40014 0.0
H423 H 0.55424 0.8252 0.27811 0.0
H424 H 0.30178 0.79247 0.33123 0.0
H425 H 0.1898 0.75316 0.36729 0.0
H426 H 0.28913 0.64393 0.3081 0.0
H427 H 0.40182 0.68248 0.27183 0.0
C428 C 0.60402 0.79972 0.12049 0.0
C429 C 0.62254 0.75903 0.10847 0.0
C430 C 0.56953 0.80808 0.15623 0.0
C431 C 0.55304 0.77578 0.18014 0.0
C432 C 0.56893 0.73511 0.16812 0.0
C433 C 0.60347 0.72682 0.13268 0.0
C434 C 0.52072 0.78338 0.21782 0.0
C435 C 0.45656 0.76286 0.24059 0.0
C436 C 0.55557 0.80705 0.23141 0.0
C437 C 0.62462 0.82852 0.20833 0.0
C438 C 0.68559 0.80629 0.18423 0.0
C439 C 0.74976 0.82697 0.16168 0.0
C440 C 0.75383 0.86985 0.16327 0.0
C441 C 0.69385 0.89209 0.18755 0.0
C442 C 0.62947 0.87156 0.21009 0.0
C443 C 0.40228 0.73927 0.37886 0.0
C444 C 0.38381 0.77443 0.39995 0.0
C445 C 0.43174 0.74316 0.34303 0.0
C446 C 0.44129 0.78225 0.3277 0.0
C447 C 0.42653 0.81755 0.34842 0.0
C448 C 0.3982 0.81367 0.38436 0.0
C449 C 0.464 0.78568 0.29036 0.0
C450 C 0.52614 0.80841 0.26768 0.0
C451 C 0.42767 0.76364 0.2766 0.0
C452 C 0.36024 0.74035 0.29892 0.0
C453 C 0.29982 0.76002 0.32607 0.0
C454 C 0.23617 0.73786 0.34649 0.0
C455 C 0.23238 0.69609 0.3399 0.0
C456 C 0.29223 0.67629 0.31312 0.0
C457 C 0.35587 0.69829 0.29257 0.0
H458 H 0.1832 0.67893 0.35535 0.0
H459 H 0.8035 0.88582 0.14572 0.0
H460 H 0.48538 0.76007 0.8858 0.0
H461 H 0.46113 0.76033 0.83809 0.0
H462 H 0.67045 0.81326 0.76955 0.0
H463 H 0.69481 0.81319 0.81714 0.0
H464 H 0.57629 0.85259 0.76144 0.0
H465 H 0.62627 0.70982 0.76485 0.0
H466 H 0.61354 0.64121 0.79124 0.0
H467 H 0.39376 0.63478 0.81747 0.0
H468 H 0.40498 0.70363 0.79166 0.0
H469 H 0.58283 0.82552 0.60252 0.0
H470 H 0.60783 0.81996 0.64972 0.0
H471 H 0.393 0.77441 0.71856 0.0
H472 H 0.36731 0.78018 0.67153 0.0
H473 H 0.48869 0.73091 0.72663 0.0
H474 H 0.43937 0.87436 0.72345 0.0
H475 H 0.45362 0.94263 0.6963 0.0
H476 H 0.67426 0.94713 0.6688 0.0
H477 H 0.66158 0.87859 0.69538 0.0
C478 C 0.52667 0.77119 0.86043 0.0
C479 C 0.59198 0.7867 0.85539 0.0
C480 C 0.51275 0.77132 0.83309 0.0
C481 C 0.56419 0.78643 0.79992 0.0
C482 C 0.62978 0.80144 0.79479 0.0
C483 C 0.64357 0.8015 0.82211 0.0
C484 C 0.5489 0.78807 0.77094 0.0
C485 C 0.55819 0.82575 0.75354 0.0
C486 C 0.52336 0.75345 0.76103 0.0
C487 C 0.51631 0.71208 0.77667 0.0
C488 C 0.57509 0.69391 0.77652 0.0
C489 C 0.56816 0.65496 0.79133 0.0
C490 C 0.50281 0.6337 0.80613 0.0
C491 C 0.44431 0.65132 0.80607 0.0
C492 C 0.45095 0.6903 0.79133 0.0
C493 C 0.54059 0.81462 0.62775 0.0
C494 C 0.47283 0.80358 0.63313 0.0
C495 C 0.55507 0.81138 0.65476 0.0
C496 C 0.50204 0.79729 0.68795 0.0
C497 C 0.43486 0.78538 0.69324 0.0
C498 C 0.42033 0.78858 0.66621 0.0
C499 C 0.51656 0.7953 0.71712 0.0
C500 C 0.50693 0.75765 0.73456 0.0
C501 C 0.54197 0.82991 0.72704 0.0
C502 C 0.54969 0.87117 0.71111 0.0
C503 C 0.49107 0.88977 0.71138 0.0
C504 C 0.49885 0.92853 0.69613 0.0
C505 C 0.56485 0.94916 0.68076 0.0
C506 C 0.62318 0.93109 0.68068 0.0
C507 C 0.61572 0.8923 0.69586 0.0
H508 H 0.57075 0.97918 0.66898 0.0
H509 H 0.49754 0.60352 0.81757 0.0
H510 H 0.67683 0.26535 0.60686 0.0
H511 H 0.62629 0.24433 0.6671 0.0
H512 H 0.515 0.14344 0.65204 0.0
H513 H 0.5659 0.16436 0.59091 0.0
H514 H 0.42913 0.18892 0.713 0.0
H515 H 0.65186 0.11893 0.65969 0.0
H516 H 0.7824 0.11073 0.62036 0.0
H517 H 0.82185 0.20373 0.6769 0.0
H518 H 0.69176 0.21379 0.7154 0.0
H519 H 0.41149 0.14774 0.88747 0.0
H520 H 0.46995 0.13041 0.82521 0.0
H521 H 0.43318 0.25403 0.80274 0.0
H522 H 0.37505 0.2715 0.86411 0.0
H523 H 0.58873 0.16956 0.76096 0.0
H524 H 0.35185 0.24617 0.75864 0.0
H525 H 0.22383 0.2588 0.8013 0.0
H526 H 0.21377 0.1483 0.85652 0.0
H527 H 0.34116 0.13466 0.81397 0.0
C528 C 0.64132 0.2388 0.61617 0.0
C529 C 0.62519 0.21659 0.59403 0.0
C530 C 0.61304 0.22659 0.65061 0.0
C531 C 0.56804 0.19193 0.66376 0.0
C532 C 0.55028 0.17006 0.64214 0.0
C533 C 0.57918 0.18212 0.60735 0.0
C534 C 0.53804 0.18027 0.70064 0.0
C535 C 0.46379 0.18365 0.72343 0.0
C536 C 0.58338 0.17276 0.71412 0.0
C537 C 0.66194 0.16687 0.69073 0.0
C538 C 0.6884 0.13784 0.66358 0.0
C539 C 0.76238 0.13297 0.6413 0.0
C540 C 0.8105 0.15667 0.6461 0.0
C541 C 0.7847 0.18539 0.67311 0.0
C542 C 0.71084 0.1907 0.69517 0.0
C543 C 0.41685 0.17131 0.86913 0.0
C544 C 0.38769 0.21079 0.88076 0.0
C545 C 0.45033 0.16138 0.83367 0.0
C546 C 0.45474 0.19082 0.80966 0.0
C547 C 0.42932 0.23077 0.82103 0.0
C548 C 0.39589 0.24063 0.85618 0.0
C549 C 0.48067 0.18007 0.77301 0.0
C550 C 0.55394 0.17288 0.75037 0.0
C551 C 0.43447 0.18346 0.75958 0.0
C552 C 0.35612 0.18946 0.78314 0.0
C553 C 0.32201 0.22423 0.77955 0.0
C554 C 0.24964 0.23166 0.80381 0.0
C555 C 0.21093 0.20443 0.83165 0.0
C556 C 0.24396 0.16939 0.83498 0.0
C557 C 0.31615 0.16178 0.8108 0.0
H558 H 0.15546 0.21046 0.85078 0.0
H559 H 0.86774 0.15283 0.62887 0.0
H560 H 0.90687 0.62449 0.16985 0.0
H561 H 0.92714 0.63114 0.21855 0.0
H562 H 0.97997 0.75975 0.19394 0.0
H563 H 0.96099 0.75318 0.14463 0.0
H564 H 0.07548 0.71855 0.20824 0.0
H565 H 0.81832 0.73572 0.26322 0.0
H566 H 0.69901 0.71479 0.27421 0.0
H567 H 0.71815 0.59819 0.31412 0.0
H568 H 0.83718 0.61862 0.30366 0.0
H569 H 0.07496 0.76526 0.36277 0.0
H570 H 0.04982 0.7653 0.31567 0.0
H571 H 0.95598 0.64382 0.34635 0.0
H572 H 0.97574 0.64482 0.39521 0.0
H573 H 0.88019 0.68452 0.32844 0.0
H574 H 0.13456 0.663 0.27287 0.0
H575 H 0.25811 0.67821 0.25861 0.0
H576 H 0.25025 0.79621 0.21729 0.0
H577 H 0.12668 0.78155 0.23108 0.0
C578 C 0.92332 0.65416 0.17458 0.0
C579 C 0.93226 0.6883 0.15326 0.0
C580 C 0.93437 0.65798 0.20263 0.0
C581 C 0.95452 0.69604 0.21013 0.0
C582 C 0.96429 0.73011 0.18872 0.0
C583 C 0.95284 0.72637 0.16072 0.0
C584 C 0.9649 0.70009 0.24045 0.0
C585 C 0.03252 0.71178 0.23462 0.0
C586 C 0.90954 0.69017 0.27474 0.0
C587 C 0.83663 0.67863 0.28255 0.0
C588 C 0.7969 0.70567 0.27443 0.0
C589 C 0.72929 0.69393 0.28062 0.0
C590 C 0.70094 0.65521 0.29491 0.0
C591 C 0.73994 0.62827 0.30325 0.0
C592 C 0.80731 0.63998 0.29736 0.0
C593 C 0.0477 0.73878 0.36008 0.0
C594 C 0.02792 0.7049 0.38302 0.0
C595 C 0.03441 0.73858 0.33258 0.0
C596 C 0.00245 0.70415 0.32671 0.0
C597 C 0.9812 0.6707 0.34998 0.0
C598 C 0.99343 0.67114 0.37781 0.0
C599 C 0.99124 0.7028 0.2964 0.0
C600 C 0.92331 0.6916 0.30218 0.0
C601 C 0.04676 0.71258 0.26196 0.0
C602 C 0.1212 0.72135 0.25332 0.0
C603 C 0.15908 0.69227 0.2609 0.0
C604 C 0.2291 0.70079 0.2529 0.0
C605 C 0.26178 0.7383 0.23735 0.0
C606 C 0.22476 0.76722 0.22944 0.0
C607 C 0.15485 0.75876 0.23721 0.0
H608 H 0.31587 0.74488 0.23126 0.0
H609 H 0.64878 0.64607 0.29949 0.0
H610 H 0.76692 0.27947 0.3808 0.0
H611 H 0.83179 0.2869 0.31788 0.0
H612 H 0.03301 0.28297 0.31511 0.0
H613 H 0.96794 0.27536 0.37892 0.0
H614 H 0.02839 0.34213 0.26824 0.0
H615 H 0.97682 0.20013 0.29963 0.0
H616 H 0.90146 0.13983 0.33078 0.0
H617 H 0.77752 0.15875 0.2821 0.0
H618 H 0.84981 0.2204 0.25193 0.0
H619 H 0.24526 0.28265 0.09164 0.0
H620 H 0.18228 0.29137 0.15437 0.0
H621 H 0.9793 0.27954 0.15935 0.0
H622 H 0.04259 0.26956 0.09599 0.0
H623 H 0.98575 0.22996 0.20543 0.0
H624 H 0.03699 0.37264 0.17435 0.0
H625 H 0.1133 0.43265 0.14298 0.0
H626 H 0.2416 0.41055 0.18897 0.0
H627 H 0.16665 0.35003 0.22027 0.0
C628 C 0.82501 0.28048 0.36708 0.0
C629 C 0.86231 0.2762 0.38496 0.0
C630 C 0.86194 0.28482 0.331 0.0
C631 C 0.93705 0.28487 0.31185 0.0
C632 C 0.97488 0.28285 0.32954 0.0
C633 C 0.93771 0.27841 0.36592 0.0
C634 C 0.97498 0.28425 0.2733 0.0
C635 C 0.01995 0.31741 0.25439 0.0
C636 C 0.96241 0.25232 0.25546 0.0
C637 C 0.91822 0.21537 0.27388 0.0
C638 C 0.93268 0.19194 0.29603 0.0
C639 C 0.89037 0.15752 0.31358 0.0
C640 C 0.83415 0.14574 0.30874 0.0
C641 C 0.82032 0.16828 0.28625 0.0
C642 C 0.86188 0.20303 0.26896 0.0
C643 C 0.18716 0.28218 0.10588 0.0
C644 C 0.14892 0.275 0.08876 0.0
C645 C 0.15119 0.2876 0.14185 0.0
C646 C 0.07606 0.28648 0.16159 0.0
C647 C 0.03741 0.28061 0.14455 0.0
C648 C 0.07355 0.2751 0.10836 0.0
C649 C 0.03863 0.28814 0.20019 0.0
C650 C 0.99393 0.25492 0.2192 0.0
C651 C 0.05167 0.31994 0.21801 0.0
C652 C 0.09647 0.35658 0.19946 0.0
C653 C 0.08177 0.38039 0.1776 0.0
C654 C 0.12474 0.41453 0.15986 0.0
C655 C 0.18236 0.42535 0.16392 0.0
C656 C 0.19698 0.40212 0.18583 0.0
C657 C 0.15419 0.36792 0.20362 0.0
H658 H 0.21561 0.45178 0.15014 0.0
H659 H 0.80161 0.11899 0.32224 0.0
H660 H 0.94697 0.23158 0.62605 0.0
H661 H 0.96905 0.22788 0.67445 0.0
H662 H 0.93633 0.35897 0.68987 0.0
H663 H 0.91295 0.36279 0.64206 0.0
H664 H 0.05615 0.33627 0.6889 0.0
H665 H 0.80758 0.2913 0.75086 0.0
H666 H 0.70385 0.24828 0.76201 0.0
H667 H 0.81664 0.13932 0.76067 0.0
H668 H 0.92066 0.18186 0.75005 0.0
H669 H 0.04101 0.35918 0.84931 0.0
H670 H 0.01259 0.35776 0.80321 0.0
H671 H 0.03035 0.22527 0.79863 0.0
H672 H 0.05637 0.22635 0.8456 0.0
H673 H 0.92214 0.24575 0.79246 0.0
H674 H 0.16626 0.29223 0.737 0.0
H675 H 0.26647 0.33626 0.7291 0.0
H676 H 0.16508 0.44243 0.7162 0.0
H677 H 0.06361 0.39916 0.72461 0.0
C678 C 0.94342 0.25954 0.64006 0.0
C679 C 0.92826 0.29751 0.63002 0.0
C680 C 0.95615 0.25738 0.66776 0.0
C681 C 0.95408 0.29314 0.68602 0.0
C682 C 0.93857 0.33097 0.67616 0.0
C683 C 0.92555 0.33312 0.64864 0.0
C684 C 0.97079 0.29164 0.71448 0.0
C685 C 0.02627 0.31682 0.71174 0.0
C686 C 0.93351 0.26539 0.74383 0.0
C687 C 0.87197 0.23968 0.74937 0.0
C688 C 0.81036 0.25814 0.75272 0.0
C689 C 0.75142 0.23387 0.75912 0.0
C690 C 0.75375 0.19106 0.76191 0.0
C691 C 0.81492 0.17247 0.75849 0.0
C692 C 0.87372 0.19666 0.75247 0.0
C693 C 0.03952 0.3297 0.83836 0.0
C694 C 0.05276 0.29295 0.85083 0.0
C695 C 0.02325 0.32893 0.81187 0.0
C696 C 0.02109 0.29148 0.7966 0.0
C697 C 0.0322 0.25464 0.80966 0.0
C698 C 0.04741 0.25534 0.83656 0.0
C699 C 0.00708 0.29083 0.76717 0.0
C700 C 0.95236 0.26511 0.76959 0.0
C701 C 0.0454 0.31651 0.73739 0.0
C702 C 0.10693 0.34249 0.7318 0.0
C703 C 0.16507 0.32501 0.73271 0.0
C704 C 0.22209 0.34984 0.72816 0.0
C705 C 0.22189 0.39215 0.72238 0.0
C706 C 0.16497 0.40968 0.72085 0.0
C707 C 0.10772 0.38501 0.72548 0.0
H708 H 0.26599 0.41135 0.71893 0.0
H709 H 0.70814 0.17231 0.76675 0.0
H710 H 0.05623 0.70472 0.61405 0.0
H711 H 1.0002 0.68938 0.67656 0.0
H712 H 0.14657 0.77436 0.68304 0.0
H713 H 0.20357 0.78857 0.62098 0.0
H714 H 0.14571 0.7047 0.71192 0.0
H715 H 0.96382 0.7951 0.71656 0.0
H716 H 0.87251 0.81754 0.70299 0.0
H717 H 0.75546 0.70457 0.74542 0.0
H718 H 0.8464 0.68128 0.75889 0.0
H719 H 0.98071 0.74477 0.89381 0.0
H720 H 0.04127 0.74144 0.83014 0.0
H721 H 0.88032 0.65544 0.83881 0.0
H722 H 0.81822 0.66042 0.90223 0.0
H723 H 0.88752 0.71658 0.80113 0.0
H724 H 0.06405 0.63 0.80254 0.0
H725 H 0.15442 0.60924 0.81723 0.0
H726 H 0.28191 0.71603 0.76424 0.0
H727 H 0.1918 0.73782 0.74969 0.0
C728 C 0.07532 0.72053 0.6291 0.0
C729 C 0.13427 0.74759 0.61283 0.0
C730 C 0.04349 0.71177 0.6647 0.0
C731 C 0.06946 0.73065 0.68441 0.0
C732 C 0.12619 0.75908 0.6683 0.0
C733 C 0.15848 0.76731 0.63287 0.0
C734 C 0.04057 0.71983 0.72145 0.0
C735 C 0.08926 0.70758 0.73155 0.0
C736 C 0.96673 0.72227 0.74676 0.0
C737 C 0.91249 0.73619 0.73827 0.0
C738 C 0.91898 0.77487 0.72267 0.0
C739 C 0.86715 0.7878 0.71509 0.0
C740 C 0.80835 0.76243 0.7232 0.0
C741 C 0.80105 0.72417 0.73907 0.0
C742 C 0.85272 0.7111 0.74669 0.0
C743 C 0.95989 0.7242 0.88196 0.0
C744 C 0.895 0.70301 0.90255 0.0
C745 C 0.99444 0.72222 0.84563 0.0
C746 C 0.96525 0.69818 0.82966 0.0
C747 C 0.90351 0.67438 0.85053 0.0
C748 C 0.86828 0.67709 0.88667 0.0
C749 C 0.99282 0.70213 0.79185 0.0
C750 C 0.94387 0.71309 0.78155 0.0
C751 C 0.06651 0.69872 0.76641 0.0
C752 C 0.12073 0.68571 0.77527 0.0
C753 C 0.11102 0.64926 0.79428 0.0
C754 C 0.16229 0.63727 0.80253 0.0
C755 C 0.22377 0.66135 0.79175 0.0
C756 C 0.23421 0.69743 0.77262 0.0
C757 C 0.18307 0.70959 0.76433 0.0
H758 H 0.26341 0.652 0.79815 0.0
H759 H 0.76837 0.77244 0.71724 0.0
loop_
_geom_bond_atom_site_label_1
_geom_bond_atom_site_label_2
_geom_bond_distance
_geom_bond_site_symmetry_2
_ccdc_geom_bond_type
Tb0 C9 2.764 . S
Tb0 O10 2.325 . S
Tb0 O13 2.303 1_556 S
Tb0 O17 2.322 1_556 S
Tb0 O18 2.349 . S
Tb0 O21 2.415 . S
Tb0 O22 2.399 . S
Tb1 O11 2.322 1_554 S
Tb1 O12 2.349 . S
Tb1 O14 2.415 . S
Tb1 O15 2.399 . S
Tb1 O16 2.325 . S
Tb1 O19 2.307 . S
Tb1 C30 2.764 . S
C2 O18 1.261 . S
C2 O19 1.254 1_556 S
C3 C6 1.358 . S
C3 C7 1.332 . S
C3 C9 1.504 . S
C4 C5 1.373 . S
C4 C8 1.308 . S
C5 C4 1.373 . S
C5 C6 1.429 . S
C5 H32 0.932 . S
C6 C3 1.358 . S
C6 C5 1.429 . S
C6 H33 0.930 . S
C7 C3 1.332 . S
C7 C8 1.394 . S
C7 H34 0.932 . S
C8 C4 1.308 . S
C8 C7 1.394 . S
C8 H35 0.929 . S
C9 Tb0 2.764 . S
C9 C3 1.504 . S
C9 O21 1.239 . S
C9 O22 1.263 . S
O10 Tb0 2.325 . S
O10 C20 1.236 . S
O11 Tb1 2.322 1_556 S
O11 C20 1.257 . S
O12 Tb1 2.349 . S
O12 C23 1.261 . S
O13 Tb0 2.303 1_554 S
O13 C23 1.257 . S
O14 Tb1 2.415 . S
O14 C30 1.239 . S
O15 Tb1 2.399 . S
O15 C30 1.263 . S
O16 Tb1 2.325 . S
O16 C31 1.236 . S
O17 Tb0 2.322 1_554 S
O17 C31 1.257 . S
O18 Tb0 2.349 . S
O18 C2 1.261 . S
O19 Tb1 2.307 . S
O19 C2 1.254 1_554 S
C20 O10 1.236 . S
C20 O11 1.257 . S
O21 Tb0 2.415 . S
O21 C9 1.239 . S
O22 Tb0 2.399 . S
O22 C9 1.263 . S
C23 O12 1.261 . S
C23 O13 1.257 . S
C24 C27 1.358 . S
C24 C28 1.332 . S
C24 C30 1.504 . S
C25 C26 1.373 . S
C25 C29 1.308 . S
C26 C25 1.373 . S
C26 C27 1.429 . S
C26 H36 0.932 . S
C27 C24 1.358 . S
C27 C26 1.429 . S
C27 H37 0.930 . S
C28 C24 1.332 . S
C28 C29 1.394 . S
C28 H38 0.932 . S
C29 C25 1.308 . S
C29 C28 1.394 . S
C29 H39 0.929 . S
C30 Tb1 2.764 . S
C30 O14 1.239 . S
C30 O15 1.263 . S
C30 C24 1.504 . S
C31 O16 1.236 . S
C31 O17 1.257 . S
H32 C5 0.932 . S
H33 C6 0.930 . S
H34 C7 0.932 . S
H35 C8 0.929 . S
H36 C26 0.932 . S
H37 C27 0.930 . S
H38 C28 0.932 . S
H39 C29 0.929 . S
Tb40 C49 2.764 . S
Tb40 O50 2.325 . S
Tb40 O53 2.303 1_556 S
Tb40 O57 2.322 1_556 S
Tb40 O58 2.349 . S
Tb40 O61 2.415 . S
Tb40 O62 2.399 . S
Tb41 O51 2.322 1_554 S
Tb41 O52 2.349 . S
Tb41 O54 2.415 . S
Tb41 O55 2.399 . S
Tb41 O56 2.325 . S
Tb41 O59 2.307 . S
Tb41 C70 2.764 . S
C42 O58 1.261 . S
C42 O59 1.254 1_556 S
C43 C46 1.358 . S
C43 C47 1.332 . S
C43 C49 1.504 . S
C44 C45 1.373 . S
C44 C48 1.308 . S
C45 C44 1.373 . S
C45 C46 1.429 . S
C45 H72 0.932 . S
C46 C43 1.358 . S
C46 C45 1.429 . S
C46 H73 0.930 . S
C47 C43 1.332 . S
C47 C48 1.394 . S
C47 H74 0.932 . S
C48 C44 1.308 . S
C48 C47 1.394 . S
C48 H75 0.929 . S
C49 Tb40 2.764 . S
C49 C43 1.504 . S
C49 O61 1.239 . S
C49 O62 1.263 . S
O50 Tb40 2.325 . S
O50 C60 1.236 . S
O51 Tb41 2.322 1_556 S
O51 C60 1.257 . S
O52 Tb41 2.349 . S
O52 C63 1.261 . S
O53 Tb40 2.303 1_554 S
O53 C63 1.257 . S
O54 Tb41 2.415 . S
O54 C70 1.239 . S
O55 Tb41 2.399 . S
O55 C70 1.263 . S
O56 Tb41 2.325 . S
O56 C71 1.236 . S
O57 Tb40 2.322 1_554 S
O57 C71 1.257 . S
O58 Tb40 2.349 . S
O58 C42 1.261 . S
O59 Tb41 2.307 . S
O59 C42 1.254 1_554 S
C60 O50 1.236 . S
C60 O51 1.257 . S
O61 Tb40 2.415 . S
O61 C49 1.239 . S
O62 Tb40 2.399 . S
O62 C49 1.263 . S
C63 O52 1.261 . S
C63 O53 1.257 . S
C64 C67 1.358 . S
C64 C68 1.332 . S
C64 C70 1.504 . S
C65 C66 1.373 . S
C65 C69 1.308 . S
C66 C65 1.373 . S
C66 C67 1.429 . S
C66 H76 0.932 . S
C67 C64 1.358 . S
C67 C66 1.429 . S
C67 H77 0.930 . S
C68 C64 1.332 . S
C68 C69 1.394 . S
C68 H78 0.932 . S
C69 C65 1.308 . S
C69 C68 1.394 . S
C69 H79 0.929 . S
C70 Tb41 2.764 . S
C70 O54 1.239 . S
C70 O55 1.263 . S
C70 C64 1.504 . S
C71 O56 1.236 . S
C71 O57 1.257 . S
H72 C45 0.932 . S
H73 C46 0.930 . S
H74 C47 0.932 . S
H75 C48 0.929 . S
H76 C66 0.932 . S
H77 C67 0.930 . S
H78 C68 0.932 . S
H79 C69 0.929 . S
Tb80 C89 2.764 . S
Tb80 O90 2.325 . S
Tb80 O93 2.303 . S
Tb80 O97 2.322 . S
Tb80 O98 2.349 . S
Tb80 O101 2.415 . S
Tb80 O102 2.399 . S
Tb81 O91 2.322 . S
Tb81 O92 2.349 . S
Tb81 O94 2.415 . S
Tb81 O95 2.399 . S
Tb81 O96 2.325 . S
Tb81 O99 2.303 . S
Tb81 C110 2.764 . S
C82 O98 1.261 . S
C82 O99 1.257 . S
C83 C86 1.358 . S
C83 C87 1.332 . S
C83 C89 1.504 . S
C84 C85 1.373 . S
C84 C88 1.308 . S
C85 C84 1.373 . S
C85 C86 1.429 . S
C85 H112 0.932 . S
C86 C83 1.358 . S
C86 C85 1.429 . S
C86 H113 0.930 . S
C87 C83 1.332 . S
C87 C88 1.394 . S
C87 H114 0.932 . S
C88 C84 1.308 . S
C88 C87 1.394 . S
C88 H115 0.929 . S
C89 Tb80 2.764 . S
C89 C83 1.504 . S
C89 O101 1.239 . S
C89 O102 1.263 . S
O90 Tb80 2.325 . S
O90 C100 1.236 . S
O91 Tb81 2.322 . S
O91 C100 1.257 . S
O92 Tb81 2.349 . S
O92 C103 1.261 . S
O93 Tb80 2.303 . S
O93 C103 1.257 . S
O94 Tb81 2.415 . S
O94 C110 1.239 . S
O95 Tb81 2.399 . S
O95 C110 1.263 . S
O96 Tb81 2.325 . S
O96 C111 1.236 . S
O97 Tb80 2.322 . S
O97 C111 1.257 . S
O98 Tb80 2.349 . S
O98 C82 1.261 . S
O99 Tb81 2.303 . S
O99 C82 1.257 . S
C100 O90 1.236 . S
C100 O91 1.257 . S
O101 Tb80 2.415 . S
O101 C89 1.239 . S
O102 Tb80 2.399 . S
O102 C89 1.263 . S
C103 O92 1.261 . S
C103 O93 1.257 . S
C104 C107 1.358 . S
C104 C108 1.332 . S
C104 C110 1.504 . S
C105 C106 1.373 . S
C105 C109 1.308 . S
C106 C105 1.373 . S
C106 C107 1.429 . S
C106 H116 0.932 . S
C107 C104 1.358 . S
C107 C106 1.429 . S
C107 H117 0.930 . S
C108 C104 1.332 . S
C108 C109 1.394 . S
C108 H118 0.932 . S
C109 C105 1.308 . S
C109 C108 1.394 . S
C109 H119 0.929 . S
C110 Tb81 2.764 . S
C110 O94 1.239 . S
C110 O95 1.263 . S
C110 C104 1.504 . S
C111 O96 1.236 . S
C111 O97 1.257 . S
H112 C85 0.932 . S
H113 C86 0.930 . S
H114 C87 0.932 . S
H115 C88 0.929 . S
H116 C106 0.932 . S
H117 C107 0.930 . S
H118 C108 0.932 . S
H119 C109 0.929 . S
Tb120 C129 2.764 . S
Tb120 O130 2.325 . S
Tb120 O133 2.303 . S
Tb120 O137 2.322 . S
Tb120 O138 2.349 . S
Tb120 O141 2.415 . S
Tb120 O142 2.399 . S
Tb121 O131 2.322 . S
Tb121 O132 2.349 . S
Tb121 O134 2.415 . S
Tb121 O135 2.399 . S
Tb121 O136 2.325 . S
Tb121 O139 2.303 . S
Tb121 C150 2.764 . S
C122 O138 1.261 . S
C122 O139 1.257 . S
C123 C126 1.358 . S
C123 C127 1.332 . S
C123 C129 1.504 . S
C124 C125 1.373 . S
C124 C128 1.308 . S
C125 C124 1.373 . S
C125 C126 1.429 . S
C125 H152 0.932 . S
C126 C123 1.358 . S
C126 C125 1.429 . S
C126 H153 0.930 . S
C127 C123 1.332 . S
C127 C128 1.394 . S
C127 H154 0.932 . S
C128 C124 1.308 . S
C128 C127 1.394 . S
C128 H155 0.929 . S
C129 Tb120 2.764 . S
C129 C123 1.504 . S
C129 O141 1.239 . S
C129 O142 1.263 . S
O130 Tb120 2.325 . S
O130 C140 1.236 . S
O131 Tb121 2.322 . S
O131 C140 1.257 . S
O132 Tb121 2.349 . S
O132 C143 1.261 . S
O133 Tb120 2.303 . S
O133 C143 1.257 . S
O134 Tb121 2.415 . S
O134 C150 1.239 . S
O135 Tb121 2.399 . S
O135 C150 1.263 . S
O136 Tb121 2.325 . S
O136 C151 1.236 . S
O137 Tb120 2.322 . S
O137 C151 1.257 . S
O138 Tb120 2.349 . S
O138 C122 1.261 . S
O139 Tb121 2.303 . S
O139 C122 1.257 . S
C140 O130 1.236 . S
C140 O131 1.257 . S
O141 Tb120 2.415 . S
O141 C129 1.239 . S
O142 Tb120 2.399 . S
O142 C129 1.263 . S
C143 O132 1.261 . S
C143 O133 1.257 . S
C144 C147 1.358 . S
C144 C148 1.332 . S
C144 C150 1.504 . S
C145 C146 1.373 . S
C145 C149 1.308 . S
C146 C145 1.373 . S
C146 C147 1.429 . S
C146 H156 0.932 . S
C147 C144 1.358 . S
C147 C146 1.429 . S
C147 H157 0.930 . S
C148 C144 1.332 . S
C148 C149 1.394 . S
C148 H158 0.932 . S
C149 C145 1.308 . S
C149 C148 1.394 . S
C149 H159 0.929 . S
C150 Tb121 2.764 . S
C150 O134 1.239 . S
C150 O135 1.263 . S
C150 C144 1.504 . S
C151 O136 1.236 . S
C151 O137 1.257 . S
H152 C125 0.932 . S
H153 C126 0.930 . S
H154 C127 0.932 . S
H155 C128 0.929 . S
H156 C146 0.932 . S
H157 C147 0.930 . S
H158 C148 0.932 . S
H159 C149 0.929 . S
H160 C178 0.951 . S
H161 C180 0.951 . S
H162 C182 0.950 . S
H163 C183 0.950 . S
H164 C185 0.950 . S
H165 C188 0.950 . S
H166 C189 0.950 . S
H167 C191 0.950 . S
H168 C192 0.950 . S
H169 C193 0.951 . S
H170 C195 0.951 . S
H171 C197 0.950 . S
H172 C198 0.950 . S
H173 C200 0.950 . S
H174 C203 0.950 . S
H175 C204 0.950 . S
H176 C206 0.950 . S
H177 C207 0.950 . S
C178 H160 0.951 . S
C178 C179 1.373 . S
C178 C180 1.388 . S
C179 C178 1.373 . S
C179 C183 1.371 1_554 S
C180 H161 0.951 . S
C180 C178 1.388 . S
C180 C181 1.366 . S
C181 C180 1.366 . S
C181 C182 1.414 1_554 S
C181 C184 1.504 . S
C182 H162 0.950 . S
C182 C181 1.414 1_556 S
C182 C183 1.374 . S
C183 H163 0.950 . S
C183 C179 1.371 1_556 S
C183 C182 1.374 . S
C184 C181 1.504 . S
C184 C185 1.358 1_554 S
C184 C186 1.399 . S
C185 H164 0.950 . S
C185 C184 1.358 1_556 S
C185 C201 1.377 . S
C186 C184 1.399 . S
C186 C187 1.524 . S
C186 C200 1.377 . S
C187 C186 1.524 . S
C187 C188 1.397 . S
C187 C192 1.363 . S
C188 H165 0.950 . S
C188 C187 1.397 . S
C188 C189 1.334 . S
C189 H166 0.950 . S
C189 C188 1.334 . S
C189 C190 1.287 . S
C190 C189 1.287 . S
C190 C191 1.524 . S
C190 H209 0.913 . S
C191 H167 0.950 . S
C191 C190 1.524 . S
C191 C192 1.415 . S
C192 H168 0.950 . S
C192 C187 1.363 . S
C192 C191 1.415 . S
C193 H169 0.951 . S
C193 C194 1.366 1_556 S
C193 C195 1.388 . S
C194 C193 1.366 1_554 S
C194 C198 1.385 . S
C195 H170 0.951 . S
C195 C193 1.388 . S
C195 C196 1.341 1_556 S
C196 C195 1.341 1_554 S
C196 C197 1.428 . S
C196 C199 1.511 . S
C197 H171 0.950 . S
C197 C196 1.428 . S
C197 C198 1.374 . S
C198 H172 0.950 . S
C198 C194 1.385 . S
C198 C197 1.374 . S
C199 C196 1.511 . S
C199 C200 1.373 . S
C199 C201 1.389 1_554 S
C200 H173 0.950 . S
C200 C186 1.377 . S
C200 C199 1.373 . S
C201 C185 1.377 . S
C201 C199 1.389 1_556 S
C201 C202 1.524 . S
C202 C201 1.524 . S
C202 C203 1.397 . S
C202 C207 1.363 . S
C203 H174 0.950 . S
C203 C202 1.397 . S
C203 C204 1.334 . S
C204 H175 0.950 . S
C204 C203 1.334 . S
C204 C205 1.287 . S
C205 C204 1.287 . S
C205 C206 1.524 . S
C205 H208 0.999 . S
C206 H176 0.950 . S
C206 C205 1.524 . S
C206 C207 1.415 . S
C207 H177 0.950 . S
C207 C202 1.363 . S
C207 C206 1.415 . S
H208 C205 0.999 . S
H209 C190 0.913 . S
H210 C228 0.951 . S
H211 C230 0.951 . S
H212 C232 0.950 . S
H213 C233 0.950 . S
H214 C235 0.950 . S
H215 C238 0.950 . S
H216 C239 0.950 . S
H217 C241 0.950 . S
H218 C242 0.950 . S
H219 C243 0.951 . S
H220 C245 0.951 . S
H221 C247 0.950 . S
H222 C248 0.950 . S
H223 C250 0.950 . S
H224 C253 0.950 . S
H225 C254 0.950 . S
H226 C256 0.950 . S
H227 C257 0.950 . S
C228 H210 0.951 . S
C228 C229 1.366 . S
C228 C230 1.388 . S
C229 C228 1.366 . S
C229 C233 1.385 . S
C230 H211 0.951 . S
C230 C228 1.388 . S
C230 C231 1.366 . S
C231 C230 1.366 . S
C231 C232 1.414 . S
C231 C234 1.499 . S
C232 H212 0.950 . S
C232 C231 1.414 . S
C232 C233 1.374 . S
C233 H213 0.950 . S
C233 C229 1.385 . S
C233 C232 1.374 . S
C234 C231 1.499 . S
C234 C235 1.373 . S
C234 C236 1.389 . S
C235 H214 0.950 . S
C235 C234 1.373 . S
C235 C251 1.377 . S
C236 C234 1.389 . S
C236 C237 1.524 . S
C236 C250 1.377 . S
C237 C236 1.524 . S
C237 C238 1.397 . S
C237 C242 1.363 . S
C238 H215 0.950 . S
C238 C237 1.397 . S
C238 C239 1.334 . S
C239 H216 0.950 . S
C239 C238 1.334 . S
C239 C240 1.287 . S
C240 C239 1.287 . S
C240 C241 1.524 . S
C240 H259 0.913 . S
C241 H217 0.950 . S
C241 C240 1.524 . S
C241 C242 1.415 . S
C242 H218 0.950 . S
C242 C237 1.363 . S
C242 C241 1.415 . S
C243 H219 0.951 . S
C243 C244 1.366 . S
C243 C245 1.388 . S
C244 C243 1.366 . S
C244 C248 1.385 . S
C245 H220 0.951 . S
C245 C243 1.388 . S
C245 C246 1.366 . S
C246 C245 1.366 . S
C246 C247 1.414 . S
C246 C249 1.499 . S
C247 H221 0.950 . S
C247 C246 1.414 . S
C247 C248 1.374 . S
C248 H222 0.950 . S
C248 C244 1.385 . S
C248 C247 1.374 . S
C249 C246 1.499 . S
C249 C250 1.373 . S
C249 C251 1.389 . S
C250 H223 0.950 . S
C250 C236 1.377 . S
C250 C249 1.373 . S
C251 C235 1.377 . S
C251 C249 1.389 . S
C251 C252 1.524 . S
C252 C251 1.524 . S
C252 C253 1.397 . S
C252 C257 1.363 . S
C253 H224 0.950 . S
C253 C252 1.397 . S
C253 C254 1.334 . S
C254 H225 0.950 . S
C254 C253 1.334 . S
C254 C255 1.287 . S
C255 C254 1.287 . S
C255 C256 1.524 . S
C255 H258 0.999 . S
C256 H226 0.950 . S
C256 C255 1.524 . S
C256 C257 1.415 . S
C257 H227 0.950 . S
C257 C252 1.363 . S
C257 C256 1.415 . S
H258 C255 0.999 . S
H259 C240 0.913 . S
H260 C278 0.951 . S
H261 C280 0.951 . S
H262 C282 0.950 . S
H263 C283 0.950 . S
H264 C285 0.950 . S
H265 C288 0.949 1_546 S
H266 C289 0.950 . S
H267 C291 0.950 . S
H268 C292 0.950 1_655 S
H269 C293 0.951 . S
H270 C295 0.951 . S
H271 C297 0.950 . S
H272 C298 0.950 . S
H273 C300 0.950 . S
H274 C303 0.949 1_564 S
H275 C304 0.950 . S
H276 C306 0.950 . S
H277 C307 0.950 1_455 S
C278 H260 0.951 . S
C278 C279 1.376 . S
C278 C280 1.388 . S
C279 C278 1.376 . S
C279 C283 1.368 1_554 S
C280 H261 0.951 . S
C280 C278 1.388 . S
C280 C281 1.389 . S
C281 C280 1.389 . S
C281 C282 1.399 1_554 S
C281 C284 1.487 1_554 S
C282 H262 0.950 . S
C282 C281 1.399 1_556 S
C282 C283 1.374 . S
C283 H263 0.950 . S
C283 C279 1.368 1_556 S
C283 C282 1.374 . S
C284 C281 1.487 1_556 S
C284 C285 1.380 . S
C284 C286 1.385 1_546 S
C285 H264 0.950 . S
C285 C284 1.380 . S
C285 C301 1.377 1_455 S
C286 C284 1.385 1_564 S
C286 C287 1.524 . S
C286 C300 1.377 1_455 S
C287 C286 1.524 . S
C287 C288 1.397 . S
C287 C292 1.363 . S
C288 H265 0.949 1_564 S
C288 C287 1.397 . S
C288 C289 1.334 . S
C289 H266 0.950 . S
C289 C288 1.334 . S
C289 C290 1.287 . S
C290 C289 1.287 . S
C290 C291 1.524 . S
C290 H309 0.913 . S
C291 H267 0.950 . S
C291 C290 1.524 . S
C291 C292 1.415 . S
C292 H268 0.950 1_455 S
C292 C287 1.363 . S
C292 C291 1.415 . S
C293 H269 0.951 . S
C293 C294 1.366 1_556 S
C293 C295 1.388 . S
C294 C293 1.366 1_554 S
C294 C298 1.385 . S
C295 H270 0.951 . S
C295 C293 1.388 . S
C295 C296 1.366 1_556 S
C296 C295 1.366 1_554 S
C296 C297 1.414 . S
C296 C299 1.499 . S
C297 H271 0.950 . S
C297 C296 1.414 . S
C297 C298 1.374 . S
C298 H272 0.950 . S
C298 C294 1.385 . S
C298 C297 1.374 . S
C299 C296 1.499 . S
C299 C300 1.373 . S
C299 C301 1.389 1_564 S
C300 H273 0.950 . S
C300 C286 1.377 1_655 S
C300 C299 1.373 . S
C301 C285 1.377 1_655 S
C301 C299 1.389 1_546 S
C301 C302 1.524 . S
C302 C301 1.524 . S
C302 C303 1.397 . S
C302 C307 1.363 . S
C303 H274 0.949 1_546 S
C303 C302 1.397 . S
C303 C304 1.334 . S
C304 H275 0.950 . S
C304 C303 1.334 . S
C304 C305 1.287 . S
C305 C304 1.287 . S
C305 C306 1.524 . S
C305 H308 0.999 . S
C306 H276 0.950 . S
C306 C305 1.524 . S
C306 C307 1.415 . S
C307 H277 0.950 1_655 S
C307 C302 1.363 . S
C307 C306 1.415 . S
H308 C305 0.999 . S
H309 C290 0.913 . S
H310 C328 0.951 . S
H311 C330 0.951 . S
H312 C332 0.950 . S
H313 C333 0.950 . S
H314 C335 0.950 . S
H315 C338 0.950 . S
H316 C339 0.950 . S
H317 C341 0.950 . S
H318 C342 0.951 . S
H319 C343 0.951 . S
H320 C345 0.951 . S
H321 C347 0.950 . S
H322 C348 0.950 . S
H323 C350 0.950 . S
H324 C353 0.950 . S
H325 C354 0.950 . S
H326 C356 0.950 . S
H327 C357 0.951 . S
C328 H310 0.951 . S
C328 C329 1.366 . S
C328 C330 1.388 . S
C329 C328 1.366 . S
C329 C333 1.385 . S
C330 H311 0.951 . S
C330 C328 1.388 . S
C330 C331 1.366 . S
C331 C330 1.366 . S
C331 C332 1.414 . S
C331 C334 1.499 . S
C332 H312 0.950 . S
C332 C331 1.414 . S
C332 C333 1.374 . S
C333 H313 0.950 . S
C333 C329 1.385 . S
C333 C332 1.374 . S
C334 C331 1.499 . S
C334 C335 1.373 1_545 S
C334 C336 1.389 1_655 S
C335 H314 0.950 . S
C335 C334 1.373 1_565 S
C335 C351 1.377 . S
C336 C334 1.389 1_455 S
C336 C337 1.524 . S
C336 C350 1.377 . S
C337 C336 1.524 . S
C337 C338 1.397 . S
C337 C342 1.370 1_455 S
C338 H315 0.950 . S
C338 C337 1.397 . S
C338 C339 1.334 . S
C339 H316 0.950 . S
C339 C338 1.334 . S
C339 C340 1.287 . S
C340 C339 1.287 . S
C340 C341 1.524 . S
C340 H359 0.913 . S
C341 H317 0.950 . S
C341 C340 1.524 . S
C341 C342 1.408 1_455 S
C342 H318 0.951 . S
C342 C337 1.370 1_655 S
C342 C341 1.408 1_655 S
C343 H319 0.951 . S
C343 C344 1.366 . S
C343 C345 1.388 . S
C344 C343 1.366 . S
C344 C348 1.385 . S
C345 H320 0.951 . S
C345 C343 1.388 . S
C345 C346 1.366 . S
C346 C345 1.366 . S
C346 C347 1.414 . S
C346 C349 1.499 . S
C347 H321 0.950 . S
C347 C346 1.414 . S
C347 C348 1.374 . S
C348 H322 0.950 . S
C348 C344 1.385 . S
C348 C347 1.374 . S
C349 C346 1.499 . S
C349 C350 1.373 1_565 S
C349 C351 1.389 1_455 S
C350 H323 0.950 . S
C350 C336 1.377 . S
C350 C349 1.373 1_545 S
C351 C335 1.377 . S
C351 C349 1.389 1_655 S
C351 C352 1.524 . S
C352 C351 1.524 . S
C352 C353 1.397 . S
C352 C357 1.370 1_655 S
C353 H324 0.950 . S
C353 C352 1.397 . S
C353 C354 1.334 . S
C354 H325 0.950 . S
C354 C353 1.334 . S
C354 C355 1.287 . S
C355 C354 1.287 . S
C355 C356 1.524 . S
C355 H358 0.999 . S
C356 H326 0.950 . S
C356 C355 1.524 . S
C356 C357 1.407 1_655 S
C357 H327 0.951 . S
C357 C352 1.370 1_455 S
C357 C356 1.407 1_455 S
H358 C355 0.999 . S
H359 C340 0.913 . S
H360 C378 0.951 . S
H361 C380 0.951 . S
H362 C382 0.950 . S
H363 C383 0.950 . S
H364 C385 0.950 . S
H365 C388 0.950 . S
H366 C389 0.950 . S
H367 C391 0.950 . S
H368 C392 0.950 . S
H369 C393 0.951 . S
H370 C395 0.951 . S
H371 C397 0.950 . S
H372 C398 0.950 . S
H373 C400 0.950 . S
H374 C403 0.950 . S
H375 C404 0.950 . S
H376 C406 0.950 . S
H377 C407 0.950 . S
C378 H360 0.951 . S
C378 C379 1.366 . S
C378 C380 1.388 . S
C379 C378 1.366 . S
C379 C383 1.385 . S
C380 H361 0.951 . S
C380 C378 1.388 . S
C380 C381 1.366 . S
C381 C380 1.366 . S
C381 C382 1.414 . S
C381 C384 1.499 . S
C382 H362 0.950 . S
C382 C381 1.414 . S
C382 C383 1.374 . S
C383 H363 0.950 . S
C383 C379 1.385 . S
C383 C382 1.374 . S
C384 C381 1.499 . S
C384 C385 1.373 . S
C384 C386 1.389 . S
C385 H364 0.950 . S
C385 C384 1.373 . S
C385 C401 1.377 . S
C386 C384 1.389 . S
C386 C387 1.524 . S
C386 C400 1.377 . S
C387 C386 1.524 . S
C387 C388 1.397 . S
C387 C392 1.363 . S
C388 H365 0.950 . S
C388 C387 1.397 . S
C388 C389 1.334 . S
C389 H366 0.950 . S
C389 C388 1.334 . S
C389 C390 1.287 . S
C390 C389 1.287 . S
C390 C391 1.524 . S
C390 H409 0.913 . S
C391 H367 0.950 . S
C391 C390 1.524 . S
C391 C392 1.415 . S
C392 H368 0.950 . S
C392 C387 1.363 . S
C392 C391 1.415 . S
C393 H369 0.951 . S
C393 C394 1.366 . S
C393 C395 1.388 . S
C394 C393 1.366 . S
C394 C398 1.385 . S
C395 H370 0.951 . S
C395 C393 1.388 . S
C395 C396 1.366 . S
C396 C395 1.366 . S
C396 C397 1.414 . S
C396 C399 1.499 . S
C397 H371 0.950 . S
C397 C396 1.414 . S
C397 C398 1.374 . S
C398 H372 0.950 . S
C398 C394 1.385 . S
C398 C397 1.374 . S
C399 C396 1.499 . S
C399 C400 1.373 . S
C399 C401 1.389 . S
C400 H373 0.950 . S
C400 C386 1.377 . S
C400 C399 1.373 . S
C401 C385 1.377 . S
C401 C399 1.389 . S
C401 C402 1.524 . S
C402 C401 1.524 . S
C402 C403 1.397 . S
C402 C407 1.363 . S
C403 H374 0.950 . S
C403 C402 1.397 . S
C403 C404 1.334 . S
C404 H375 0.950 . S
C404 C403 1.334 . S
C404 C405 1.287 . S
C405 C404 1.287 . S
C405 C406 1.524 . S
C405 H408 0.999 . S
C406 H376 0.950 . S
C406 C405 1.524 . S
C406 C407 1.415 . S
C407 H377 0.950 . S
C407 C402 1.363 . S
C407 C406 1.415 . S
H408 C405 0.999 . S
H409 C390 0.913 . S
H410 C428 0.951 . S
H411 C430 0.951 . S
H412 C432 0.950 . S
H413 C433 0.950 . S
H414 C435 0.950 . S
H415 C438 0.950 . S
H416 C439 0.950 . S
H417 C441 0.950 . S
H418 C442 0.950 . S
H419 C443 0.951 . S
H420 C445 0.951 . S
H421 C447 0.950 . S
H422 C448 0.950 . S
H423 C450 0.950 . S
H424 C453 0.950 . S
H425 C454 0.950 . S
H426 C456 0.950 . S
H427 C457 0.950 . S
C428 H410 0.951 . S
C428 C429 1.366 . S
C428 C430 1.388 . S
C429 C428 1.366 . S
C429 C433 1.385 . S
C430 H411 0.951 . S
C430 C428 1.388 . S
C430 C431 1.366 . S
C431 C430 1.366 . S
C431 C432 1.414 . S
C431 C434 1.499 . S
C432 H412 0.950 . S
C432 C431 1.414 . S
C432 C433 1.374 . S
C433 H413 0.950 . S
C433 C429 1.385 . S
C433 C432 1.374 . S
C434 C431 1.499 . S
C434 C435 1.373 . S
C434 C436 1.389 . S
C435 H414 0.950 . S
C435 C434 1.373 . S
C435 C451 1.377 . S
C436 C434 1.389 . S
C436 C437 1.524 . S
C436 C450 1.377 . S
C437 C436 1.524 . S
C437 C438 1.397 . S
C437 C442 1.363 . S
C438 H415 0.950 . S
C438 C437 1.397 . S
C438 C439 1.334 . S
C439 H416 0.950 . S
C439 C438 1.334 . S
C439 C440 1.287 . S
C440 C439 1.287 . S
C440 C441 1.524 . S
C440 H459 0.913 . S
C441 H417 0.950 . S
C441 C440 1.524 . S
C441 C442 1.415 . S
C442 H418 0.950 . S
C442 C437 1.363 . S
C442 C441 1.415 . S
C443 H419 0.951 . S
C443 C444 1.366 . S
C443 C445 1.388 . S
C444 C443 1.366 . S
C444 C448 1.385 . S
C445 H420 0.951 . S
C445 C443 1.388 . S
C445 C446 1.366 . S
C446 C445 1.366 . S
C446 C447 1.414 . S
C446 C449 1.499 . S
C447 H421 0.950 . S
C447 C446 1.414 . S
C447 C448 1.374 . S
C448 H422 0.950 . S
C448 C444 1.385 . S
C448 C447 1.374 . S
C449 C446 1.499 . S
C449 C450 1.373 . S
C449 C451 1.389 . S
C450 H423 0.950 . S
C450 C436 1.377 . S
C450 C449 1.373 . S
C451 C435 1.377 . S
C451 C449 1.389 . S
C451 C452 1.524 . S
C452 C451 1.524 . S
C452 C453 1.397 . S
C452 C457 1.363 . S
C453 H424 0.950 . S
C453 C452 1.397 . S
C453 C454 1.334 . S
C454 H425 0.950 . S
C454 C453 1.334 . S
C454 C455 1.287 . S
C455 C454 1.287 . S
C455 C456 1.524 . S
C455 H458 0.999 . S
C456 H426 0.950 . S
C456 C455 1.524 . S
C456 C457 1.415 . S
C457 H427 0.950 . S
C457 C452 1.363 . S
C457 C456 1.415 . S
H458 C455 0.999 . S
H459 C440 0.913 . S
H460 C478 0.951 . S
H461 C480 0.951 . S
H462 C482 0.950 . S
H463 C483 0.950 . S
H464 C485 0.950 . S
H465 C488 0.950 . S
H466 C489 0.950 . S
H467 C491 0.950 . S
H468 C492 0.950 . S
H469 C493 0.951 . S
H470 C495 0.951 . S
H471 C497 0.950 . S
H472 C498 0.950 . S
H473 C500 0.950 . S
H474 C503 0.950 . S
H475 C504 0.950 . S
H476 C506 0.950 . S
H477 C507 0.950 . S
C478 H460 0.951 . S
C478 C479 1.366 . S
C478 C480 1.388 . S
C479 C478 1.366 . S
C479 C483 1.385 . S
C480 H461 0.951 . S
C480 C478 1.388 . S
C480 C481 1.366 . S
C481 C480 1.366 . S
C481 C482 1.414 . S
C481 C484 1.499 . S
C482 H462 0.950 . S
C482 C481 1.414 . S
C482 C483 1.374 . S
C483 H463 0.950 . S
C483 C479 1.385 . S
C483 C482 1.374 . S
C484 C481 1.499 . S
C484 C485 1.373 . S
C484 C486 1.389 . S
C485 H464 0.950 . S
C485 C484 1.373 . S
C485 C501 1.377 . S
C486 C484 1.389 . S
C486 C487 1.524 . S
C486 C500 1.377 . S
C487 C486 1.524 . S
C487 C488 1.397 . S
C487 C492 1.363 . S
C488 H465 0.950 . S
C488 C487 1.397 . S
C488 C489 1.334 . S
C489 H466 0.950 . S
C489 C488 1.334 . S
C489 C490 1.287 . S
C490 C489 1.287 . S
C490 C491 1.524 . S
C490 H509 0.913 . S
C491 H467 0.950 . S
C491 C490 1.524 . S
C491 C492 1.415 . S
C492 H468 0.950 . S
C492 C487 1.363 . S
C492 C491 1.415 . S
C493 H469 0.951 . S
C493 C494 1.366 . S
C493 C495 1.388 . S
C494 C493 1.366 . S
C494 C498 1.385 . S
C495 H470 0.951 . S
C495 C493 1.388 . S
C495 C496 1.366 . S
C496 C495 1.366 . S
C496 C497 1.414 . S
C496 C499 1.499 . S
C497 H471 0.950 . S
C497 C496 1.414 . S
C497 C498 1.374 . S
C498 H472 0.950 . S
C498 C494 1.385 . S
C498 C497 1.374 . S
C499 C496 1.499 . S
C499 C500 1.373 . S
C499 C501 1.389 . S
C500 H473 0.950 . S
C500 C486 1.377 . S
C500 C499 1.373 . S
C501 C485 1.377 . S
C501 C499 1.389 . S
C501 C502 1.524 . S
C502 C501 1.524 . S
C502 C503 1.397 . S
C502 C507 1.363 . S
C503 H474 0.950 . S
C503 C502 1.397 . S
C503 C504 1.334 . S
C504 H475 0.950 . S
C504 C503 1.334 . S
C504 C505 1.287 . S
C505 C504 1.287 . S
C505 C506 1.524 . S
C505 H508 0.999 . S
C506 H476 0.950 . S
C506 C505 1.524 . S
C506 C507 1.415 . S
C507 H477 0.950 . S
C507 C502 1.363 . S
C507 C506 1.415 . S
H508 C505 0.999 . S
H509 C490 0.913 . S
H510 C528 0.951 . S
H511 C530 0.951 . S
H512 C532 0.950 . S
H513 C533 0.950 . S
H514 C535 0.950 . S
H515 C538 0.950 . S
H516 C539 0.950 . S
H517 C541 0.950 . S
H518 C542 0.950 . S
H519 C543 0.951 . S
H520 C545 0.951 . S
H521 C547 0.950 . S
H522 C548 0.950 . S
H523 C550 0.950 . S
H524 C553 0.950 . S
H525 C554 0.950 . S
H526 C556 0.950 . S
H527 C557 0.950 . S
C528 H510 0.951 . S
C528 C529 1.366 . S
C528 C530 1.388 . S
C529 C528 1.366 . S
C529 C533 1.385 . S
C530 H511 0.951 . S
C530 C528 1.388 . S
C530 C531 1.366 . S
C531 C530 1.366 . S
C531 C532 1.414 . S
C531 C534 1.499 . S
C532 H512 0.950 . S
C532 C531 1.414 . S
C532 C533 1.374 . S
C533 H513 0.950 . S
C533 C529 1.385 . S
C533 C532 1.374 . S
C534 C531 1.499 . S
C534 C535 1.373 . S
C534 C536 1.389 . S
C535 H514 0.950 . S
C535 C534 1.373 . S
C535 C551 1.377 . S
C536 C534 1.389 . S
C536 C537 1.524 . S
C536 C550 1.377 . S
C537 C536 1.524 . S
C537 C538 1.397 . S
C537 C542 1.363 . S
C538 H515 0.950 . S
C538 C537 1.397 . S
C538 C539 1.334 . S
C539 H516 0.950 . S
C539 C538 1.334 . S
C539 C540 1.287 . S
C540 C539 1.287 . S
C540 C541 1.524 . S
C540 H559 0.913 . S
C541 H517 0.950 . S
C541 C540 1.524 . S
C541 C542 1.415 . S
C542 H518 0.950 . S
C542 C537 1.363 . S
C542 C541 1.415 . S
C543 H519 0.951 . S
C543 C544 1.366 . S
C543 C545 1.388 . S
C544 C543 1.366 . S
C544 C548 1.385 . S
C545 H520 0.951 . S
C545 C543 1.388 . S
C545 C546 1.366 . S
C546 C545 1.366 . S
C546 C547 1.414 . S
C546 C549 1.499 . S
C547 H521 0.950 . S
C547 C546 1.414 . S
C547 C548 1.374 . S
C548 H522 0.950 . S
C548 C544 1.385 . S
C548 C547 1.374 . S
C549 C546 1.499 . S
C549 C550 1.373 . S
C549 C551 1.389 . S
C550 H523 0.950 . S
C550 C536 1.377 . S
C550 C549 1.373 . S
C551 C535 1.377 . S
C551 C549 1.389 . S
C551 C552 1.524 . S
C552 C551 1.524 . S
C552 C553 1.397 . S
C552 C557 1.363 . S
C553 H524 0.950 . S
C553 C552 1.397 . S
C553 C554 1.334 . S
C554 H525 0.950 . S
C554 C553 1.334 . S
C554 C555 1.287 . S
C555 C554 1.287 . S
C555 C556 1.524 . S
C555 H558 0.999 . S
C556 H526 0.950 . S
C556 C555 1.524 . S
C556 C557 1.415 . S
C557 H527 0.950 . S
C557 C552 1.363 . S
C557 C556 1.415 . S
H558 C555 0.999 . S
H559 C540 0.913 . S
H560 C578 0.951 . S
H561 C580 0.951 . S
H562 C582 0.950 1_455 S
H563 C583 0.950 . S
H564 C585 0.950 . S
H565 C588 0.950 . S
H566 C589 0.950 . S
H567 C591 0.950 . S
H568 C592 0.950 . S
H569 C593 0.951 . S
H570 C595 0.951 . S
H571 C597 0.950 1_655 S
H572 C598 0.950 . S
H573 C600 0.950 . S
H574 C603 0.950 . S
H575 C604 0.950 . S
H576 C606 0.950 . S
H577 C607 0.950 . S
C578 H560 0.951 . S
C578 C579 1.366 . S
C578 C580 1.388 . S
C579 C578 1.366 . S
C579 C583 1.385 . S
C580 H561 0.951 . S
C580 C578 1.388 . S
C580 C581 1.366 . S
C581 C580 1.366 . S
C581 C582 1.414 . S
C581 C584 1.499 . S
C582 H562 0.950 1_655 S
C582 C581 1.414 . S
C582 C583 1.374 . S
C583 H563 0.950 . S
C583 C579 1.385 . S
C583 C582 1.374 . S
C584 C581 1.499 . S
C584 C585 1.373 1_655 S
C584 C586 1.389 . S
C585 H564 0.950 . S
C585 C584 1.373 1_455 S
C585 C601 1.377 . S
C586 C584 1.389 . S
C586 C587 1.524 . S
C586 C600 1.377 . S
C587 C586 1.524 . S
C587 C588 1.397 . S
C587 C592 1.363 . S
C588 H565 0.950 . S
C588 C587 1.397 . S
C588 C589 1.334 . S
C589 H566 0.950 . S
C589 C588 1.334 . S
C589 C590 1.287 . S
C590 C589 1.287 . S
C590 C591 1.524 . S
C590 H609 0.913 . S
C591 H567 0.950 . S
C591 C590 1.524 . S
C591 C592 1.415 . S
C592 H568 0.950 . S
C592 C587 1.363 . S
C592 C591 1.415 . S
C593 H569 0.951 . S
C593 C594 1.366 . S
C593 C595 1.388 . S
C594 C593 1.366 . S
C594 C598 1.385 . S
C595 H570 0.951 . S
C595 C593 1.388 . S
C595 C596 1.366 . S
C596 C595 1.366 . S
C596 C597 1.414 . S
C596 C599 1.499 . S
C597 H571 0.950 1_455 S
C597 C596 1.414 . S
C597 C598 1.374 . S
C598 H572 0.950 . S
C598 C594 1.385 . S
C598 C597 1.374 . S
C599 C596 1.499 . S
C599 C600 1.373 1_455 S
C599 C601 1.389 . S
C600 H573 0.950 . S
C600 C586 1.377 . S
C600 C599 1.373 1_655 S
C601 C585 1.377 . S
C601 C599 1.389 . S
C601 C602 1.524 . S
C602 C601 1.524 . S
C602 C603 1.397 . S
C602 C607 1.363 . S
C603 H574 0.950 . S
C603 C602 1.397 . S
C603 C604 1.334 . S
C604 H575 0.950 . S
C604 C603 1.334 . S
C604 C605 1.287 . S
C605 C604 1.287 . S
C605 C606 1.524 . S
C605 H608 0.999 . S
C606 H576 0.950 . S
C606 C605 1.524 . S
C606 C607 1.415 . S
C607 H577 0.950 . S
C607 C602 1.363 . S
C607 C606 1.415 . S
H608 C605 0.999 . S
H609 C590 0.913 . S
H610 C628 0.951 . S
H611 C630 0.951 . S
H612 C632 0.950 1_455 S
H613 C633 0.950 . S
H614 C635 0.950 . S
H615 C638 0.950 . S
H616 C639 0.950 . S
H617 C641 0.950 . S
H618 C642 0.950 . S
H619 C643 0.951 . S
H620 C645 0.951 . S
H621 C647 0.950 1_655 S
H622 C648 0.950 . S
H623 C650 0.950 . S
H624 C653 0.950 . S
H625 C654 0.950 . S
H626 C656 0.950 . S
H627 C657 0.950 . S
C628 H610 0.951 . S
C628 C629 1.366 . S
C628 C630 1.388 . S
C629 C628 1.366 . S
C629 C633 1.385 . S
C630 H611 0.951 . S
C630 C628 1.388 . S
C630 C631 1.366 . S
C631 C630 1.366 . S
C631 C632 1.414 . S
C631 C634 1.499 . S
C632 H612 0.950 1_655 S
C632 C631 1.414 . S
C632 C633 1.374 . S
C633 H613 0.950 . S
C633 C629 1.385 . S
C633 C632 1.374 . S
C634 C631 1.499 . S
C634 C635 1.373 . S
C634 C636 1.389 . S
C635 H614 0.950 . S
C635 C634 1.373 . S
C635 C651 1.377 1_655 S
C636 C634 1.389 . S
C636 C637 1.524 . S
C636 C650 1.377 1_655 S
C637 C636 1.524 . S
C637 C638 1.397 1_655 S
C637 C642 1.363 . S
C638 H615 0.950 . S
C638 C637 1.397 1_455 S
C638 C639 1.334 . S
C639 H616 0.950 . S
C639 C638 1.334 . S
C639 C640 1.287 1_455 S
C640 C639 1.287 1_655 S
C640 C641 1.524 . S
C640 H659 0.913 . S
C641 H617 0.950 . S
C641 C640 1.524 . S
C641 C642 1.415 . S
C642 H618 0.950 . S
C642 C637 1.363 . S
C642 C641 1.415 . S
C643 H619 0.951 . S
C643 C644 1.366 . S
C643 C645 1.388 . S
C644 C643 1.366 . S
C644 C648 1.385 . S
C645 H620 0.951 . S
C645 C643 1.388 . S
C645 C646 1.366 . S
C646 C645 1.366 . S
C646 C647 1.414 . S
C646 C649 1.499 . S
C647 H621 0.950 1_455 S
C647 C646 1.414 . S
C647 C648 1.374 . S
C648 H622 0.950 . S
C648 C644 1.385 . S
C648 C647 1.374 . S
C649 C646 1.499 . S
C649 C650 1.373 . S
C649 C651 1.389 . S
C650 H623 0.950 . S
C650 C636 1.377 1_455 S
C650 C649 1.373 . S
C651 C635 1.377 1_455 S
C651 C649 1.389 . S
C651 C652 1.524 . S
C652 C651 1.524 . S
C652 C653 1.397 1_455 S
C652 C657 1.363 . S
C653 H624 0.950 . S
C653 C652 1.397 1_655 S
C653 C654 1.334 . S
C654 H625 0.950 . S
C654 C653 1.334 . S
C654 C655 1.287 1_655 S
C655 C654 1.287 1_455 S
C655 C656 1.524 . S
C655 H658 0.999 . S
C656 H626 0.950 . S
C656 C655 1.524 . S
C656 C657 1.415 . S
C657 H627 0.950 . S
C657 C652 1.363 . S
C657 C656 1.415 . S
H658 C655 0.999 . S
H659 C640 0.913 . S
H660 C678 0.951 . S
H661 C680 0.951 . S
H662 C682 0.950 . S
H663 C683 0.950 . S
H664 C685 0.950 . S
H665 C688 0.950 . S
H666 C689 0.950 . S
H667 C691 0.950 . S
H668 C692 0.950 . S
H669 C693 0.951 . S
H670 C695 0.951 . S
H671 C697 0.950 . S
H672 C698 0.950 . S
H673 C700 0.950 . S
H674 C703 0.950 . S
H675 C704 0.950 . S
H676 C706 0.950 . S
H677 C707 0.950 . S
C678 H660 0.951 . S
C678 C679 1.366 1_455 S
C678 C680 1.388 . S
C679 C678 1.366 1_655 S
C679 C683 1.385 . S
C680 H661 0.951 . S
C680 C678 1.388 . S
C680 C681 1.366 1_455 S
C681 C680 1.366 1_655 S
C681 C682 1.414 . S
C681 C684 1.499 . S
C682 H662 0.950 . S
C682 C681 1.414 . S
C682 C683 1.374 . S
C683 H663 0.950 . S
C683 C679 1.385 . S
C683 C682 1.374 . S
C684 C681 1.499 . S
C684 C685 1.373 . S
C684 C686 1.389 1_655 S
C685 H664 0.950 . S
C685 C684 1.373 . S
C685 C701 1.377 . S
C686 C684 1.389 1_455 S
C686 C687 1.524 . S
C686 C700 1.377 . S
C687 C686 1.524 . S
C687 C688 1.397 1_455 S
C687 C692 1.363 . S
C688 H665 0.950 . S
C688 C687 1.397 1_655 S
C688 C689 1.334 . S
C689 H666 0.950 . S
C689 C688 1.334 . S
C689 C690 1.287 1_655 S
C690 C689 1.287 1_455 S
C690 C691 1.524 . S
C690 H709 0.913 . S
C691 H667 0.950 . S
C691 C690 1.524 . S
C691 C692 1.415 . S
C692 H668 0.950 . S
C692 C687 1.363 . S
C692 C691 1.415 . S
C693 H669 0.951 . S
C693 C694 1.366 1_655 S
C693 C695 1.388 . S
C694 C693 1.366 1_455 S
C694 C698 1.385 . S
C695 H670 0.951 . S
C695 C693 1.388 . S
C695 C696 1.366 1_655 S
C696 C695 1.366 1_455 S
C696 C697 1.414 . S
C696 C699 1.499 . S
C697 H671 0.950 . S
C697 C696 1.414 . S
C697 C698 1.374 . S
C698 H672 0.950 . S
C698 C694 1.385 . S
C698 C697 1.374 . S
C699 C696 1.499 . S
C699 C700 1.373 . S
C699 C701 1.389 1_455 S
C700 H673 0.950 . S
C700 C686 1.377 . S
C700 C699 1.373 . S
C701 C685 1.377 . S
C701 C699 1.389 1_655 S
C701 C702 1.524 . S
C702 C701 1.524 . S
C702 C703 1.397 1_655 S
C702 C707 1.363 . S
C703 H674 0.950 . S
C703 C702 1.397 1_455 S
C703 C704 1.334 . S
C704 H675 0.950 . S
C704 C703 1.334 . S
C704 C705 1.287 1_455 S
C705 C704 1.287 1_655 S
C705 C706 1.524 . S
C705 H708 0.999 . S
C706 H676 0.950 . S
C706 C705 1.524 . S
C706 C707 1.415 . S
C707 H677 0.950 . S
C707 C702 1.363 . S
C707 C706 1.415 . S
H708 C705 0.999 . S
H709 C690 0.913 . S
H710 C728 0.951 . S
H711 C730 0.951 . S
H712 C732 0.950 . S
H713 C733 0.950 . S
H714 C735 0.950 . S
H715 C738 0.950 . S
H716 C739 0.950 . S
H717 C741 0.950 . S
H718 C742 0.950 . S
H719 C743 0.951 . S
H720 C745 0.951 . S
H721 C747 0.950 . S
H722 C748 0.950 . S
H723 C750 0.950 . S
H724 C753 0.950 . S
H725 C754 0.950 . S
H726 C756 0.950 . S
H727 C757 0.950 . S
C728 H710 0.951 . S
C728 C729 1.366 . S
C728 C730 1.388 . S
C729 C728 1.366 . S
C729 C733 1.385 . S
C730 H711 0.951 . S
C730 C728 1.388 . S
C730 C731 1.366 . S
C731 C730 1.366 . S
C731 C732 1.414 . S
C731 C734 1.499 . S
C732 H712 0.950 . S
C732 C731 1.414 . S
C732 C733 1.374 . S
C733 H713 0.950 . S
C733 C729 1.385 . S
C733 C732 1.374 . S
C734 C731 1.499 . S
C734 C735 1.373 . S
C734 C736 1.389 1_455 S
C735 H714 0.950 . S
C735 C734 1.373 . S
C735 C751 1.377 . S
C736 C734 1.389 1_655 S
C736 C737 1.524 . S
C736 C750 1.377 . S
C737 C736 1.524 . S
C737 C738 1.397 . S
C737 C742 1.363 . S
C738 H715 0.950 . S
C738 C737 1.397 . S
C738 C739 1.334 . S
C739 H716 0.950 . S
C739 C738 1.334 . S
C739 C740 1.287 . S
C740 C739 1.287 . S
C740 C741 1.524 . S
C740 H759 0.913 . S
C741 H717 0.950 . S
C741 C740 1.524 . S
C741 C742 1.415 . S
C742 H718 0.950 . S
C742 C737 1.363 . S
C742 C741 1.415 . S
C743 H719 0.951 . S
C743 C744 1.366 . S
C743 C745 1.388 . S
C744 C743 1.366 . S
C744 C748 1.385 . S
C745 H720 0.951 . S
C745 C743 1.388 . S
C745 C746 1.366 . S
C746 C745 1.366 . S
C746 C747 1.414 . S
C746 C749 1.499 . S
C747 H721 0.950 . S
C747 C746 1.414 . S
C747 C748 1.374 . S
C748 H722 0.950 . S
C748 C744 1.385 . S
C748 C747 1.374 . S
C749 C746 1.499 . S
C749 C750 1.373 . S
C749 C751 1.389 1_655 S
C750 H723 0.950 . S
C750 C736 1.377 . S
C750 C749 1.373 . S
C751 C735 1.377 . S
C751 C749 1.389 1_455 S
C751 C752 1.524 . S
C752 C751 1.524 . S
C752 C753 1.397 . S
C752 C757 1.363 . S
C753 H724 0.950 . S
C753 C752 1.397 . S
C753 C754 1.334 . S
C754 H725 0.950 . S
C754 C753 1.334 . S
C754 C755 1.287 . S
C755 C754 1.287 . S
C755 C756 1.524 . S
C755 H758 0.999 . S
C756 H726 0.950 . S
C756 C755 1.524 . S
C756 C757 1.415 . S
C757 H727 0.950 . S
C757 C752 1.363 . S
C757 C756 1.415 . S
H758 C755 0.999 . S
H759 C740 0.913 . S
C179 C63 1.556 . S
C194 C2 1.548 1_554 S
C229 C103 1.548 . S
C244 C122 1.548 . S
C279 C23 1.556 . S
C294 C42 1.548 1_554 S
C329 C143 1.547 . S
C344 C82 1.547 . S
C379 C145 0.993 . S
C394 C25 0.994 . S
C429 C71 1.275 . S
C444 C111 1.276 . S
C479 C44 0.994 . S
C494 C84 0.993 . S
C529 C140 1.276 . S
C544 C20 1.276 . S
C579 C65 0.994 . S
C594 C105 0.994 . S
C629 C151 1.276 . S
C644 C31 1.275 . S
C679 C124 0.994 . S
C694 C4 0.993 . S
C729 C100 1.275 . S
C744 C60 1.276 . S
