# Generated by pormake.
# Topology mok, (4)-cn, num edge types: 1
# Building blocks:
#     Node 0, Type 0, BuildingBlock: GALJAG_clean_sbu_0, # of connection points: 4
#     Node 1, Type 0, BuildingBlock: GALJAG_clean_sbu_0, # of connection points: 4
#     Node 2, Type 0, BuildingBlock: GALJAG_clean_sbu_0, # of connection points: 4
#     Node 3, Type 0, BuildingBlock: GALJAG_clean_sbu_0, # of connection points: 4
#     Node 4, Type 0, BuildingBlock: GALJAG_clean_sbu_0, # of connection points: 4
#     Node 5, Type 0, BuildingBlock: GALJAG_clean_sbu_0, # of connection points: 4
#     Node 6, Type 0, BuildingBlock: GALJAG_clean_sbu_0, # of connection points: 4
#     Node 7, Type 0, BuildingBlock: GALJAG_clean_sbu_0, # of connection points: 4
#     Edge 8, Type (0, 0), BuildingBlock: TEMPAE_clean_linker_10, # of connection points: 2
#     Edge 9, Type (0, 0), BuildingBlock: TEMPAE_clean_linker_10, # of connection points: 2
#     Edge 10, Type (0, 0), BuildingBlock: TEMPAE_clean_linker_10, # of connection points: 2
#     Edge 11, Type (0, 0), BuildingBlock: TEMPAE_clean_linker_10, # of connection points: 2
#     Edge 12, Type (0, 0), BuildingBlock: TEMPAE_clean_linker_10, # of connection points: 2
#     Edge 13, Type (0, 0), BuildingBlock: TEMPAE_clean_linker_10, # of connection points: 2
#     Edge 14, Type (0, 0), BuildingBlock: TEMPAE_clean_linker_10, # of connection points: 2
#     Edge 15, Type (0, 0), BuildingBlock: TEMPAE_clean_linker_10, # of connection points: 2
#     Edge 16, Type (0, 0), BuildingBlock: TEMPAE_clean_linker_10, # of connection points: 2
#     Edge 17, Type (0, 0), BuildingBlock: TEMPAE_clean_linker_10, # of connection points: 2
#     Edge 18, Type (0, 0), BuildingBlock: TEMPAE_clean_linker_10, # of connection points: 2
#     Edge 19, Type (0, 0), BuildingBlock: TEMPAE_clean_linker_10, # of connection points: 2
#     Edge 20, Type (0, 0), BuildingBlock: TEMPAE_clean_linker_10, # of connection points: 2
#     Edge 21, Type (0, 0), BuildingBlock: TEMPAE_clean_linker_10, # of connection points: 2
#     Edge 22, Type (0, 0), BuildingBlock: TEMPAE_clean_linker_10, # of connection points: 2
#     Edge 23, Type (0, 0), BuildingBlock: TEMPAE_clean_linker_10, # of connection points: 2
# Relax obj value: 0.070
# Max RMSD: 0.103
# Mean RMSD: 0.103
data_MOF--net-mok--node1-GALJAG_clean_sbu_0--edge1-TEMPAE_clean_linker_10
_symmetry_space_group_name_H-M    P1
_symmetry_Int_Tables_number       1
_symmetry_cell_setting            triclinic
loop_
_symmetry_equiv_pos_as_xyz
'x, y, z'
_cell_length_a     55.455343
_cell_length_b     14.049175
_cell_length_c     28.795848
_cell_angle_alpha  90.005641
_cell_angle_beta   89.939425
_cell_angle_gamma 90.009012
loop_
_atom_site_label
_atom_site_type_symbol
_atom_site_fract_x
_atom_site_fract_y
_atom_site_fract_z
_atom_type_partial_charge
In0 In 0.61543 0.3094 0.00588 0.0
O1 O 0.60297 0.4231 0.95407 0.0
O2 O 0.61831 0.29406 0.92844 0.0
C3 C 0.61017 0.38724 0.09023 0.0
C4 C 0.57795 0.18988 0.00459 0.0
C5 C 0.6633 0.28199 0.00758 0.0
O6 O 0.6123 0.43831 0.05422 0.0
O7 O 0.61091 0.29863 0.08343 0.0
O8 O 0.6487 0.21587 0.0177 0.0
O9 O 0.65369 0.3606 -0.00253 0.0
C10 C 0.60924 0.37408 0.91913 0.0
O11 O 0.59923 0.1612 0.9969 0.0
O12 O 0.57582 0.27768 0.01284 0.0
In13 In 0.38889 0.67917 0.99189 0.0
O14 O 0.40756 0.82308 0.98529 0.0
O15 O 0.42896 0.69972 -0.00076 0.0
C16 C 0.34182 0.72299 0.99452 0.0
C17 C 0.39434 0.6157 0.90459 0.0
C18 C 0.39134 0.59513 0.07546 0.0
O19 O 0.35781 0.7828 0.00605 0.0
O20 O 0.34969 0.64279 0.98206 0.0
O21 O 0.38728 0.54749 0.03897 0.0
O22 O 0.39424 0.68322 0.06944 0.0
C23 C 0.42831 0.78849 0.99258 0.0
O24 O 0.40032 0.56519 0.93917 0.0
O25 O 0.3859 0.69655 0.91447 0.0
In26 In 0.60787 0.69245 0.50512 0.0
O27 O 0.59886 0.57015 0.55518 0.0
O28 O 0.61623 0.6936 0.58175 0.0
C29 C 0.60347 0.61903 0.41976 0.0
C30 C 0.56699 0.79333 0.5093 0.0
C31 C 0.65398 0.74701 0.49564 0.0
O32 O 0.60911 0.56802 0.45436 0.0
O33 O 0.59984 0.70594 0.42848 0.0
O34 O 0.63771 0.80525 0.50767 0.0
O35 O 0.64686 0.66313 0.48833 0.0
C36 C 0.60736 0.61297 0.59015 0.0
O37 O 0.58746 0.83308 0.51108 0.0
O38 O 0.56736 0.70385 0.50575 0.0
In39 In 0.37777 0.29973 0.49242 0.0
O40 O 0.39371 0.15227 0.50565 0.0
O41 O 0.41704 0.26438 0.48313 0.0
C42 C 0.32988 0.27276 0.49414 0.0
C43 C 0.38596 0.37321 0.57695 0.0
C44 C 0.38174 0.36874 0.4059 0.0
O45 O 0.34423 0.20663 0.48286 0.0
O46 O 0.3397 0.35121 0.50384 0.0
O47 O 0.38013 0.42354 0.44071 0.0
O48 O 0.38113 0.281 0.41499 0.0
C49 C 0.41486 0.17839 0.49502 0.0
O50 O 0.39192 0.41777 0.54042 0.0
O51 O 0.3761 0.29351 0.57027 0.0
In52 In 0.11371 0.80885 0.01812 0.0
O53 O 0.09985 0.65522 0.01875 0.0
O54 O 0.07663 0.7658 0.04238 0.0
C55 C 0.1618 0.7949 0.01254 0.0
C56 C 0.10293 0.85679 0.93032 0.0
C57 C 0.11208 0.90529 0.09817 0.0
O58 O 0.14883 0.72743 0.02759 0.0
O59 O 0.15044 0.86849 5e-05 0.0
O60 O 0.10141 0.93544 0.06217 0.0
O61 O 0.12368 0.82878 0.09308 0.0
C62 C 0.07943 0.67832 0.03471 0.0
O63 O 0.10001 0.91452 0.96363 0.0
O64 O 0.11099 0.77621 0.94168 0.0
In65 In 0.89117 0.17611 0.00531 0.0
O66 O 0.90118 0.07144 0.9475 0.0
O67 O 0.89573 0.21763 0.93037 0.0
C68 C 0.88882 0.07666 0.08437 0.0
C69 C 0.92914 0.28718 0.02438 0.0
C70 C 0.84372 0.20914 -0.00056 0.0
O71 O 0.89869 0.04204 0.0484 0.0
O72 O 0.8803 0.15933 0.07975 0.0
O73 O 0.8582 0.27037 0.01568 0.0
O74 O 0.85331 0.13276 0.98546 0.0
C75 C 0.90072 0.13496 0.91625 0.0
O76 O 0.90922 0.32162 0.0112 0.0
O77 O 0.92966 0.19786 0.02819 0.0
In78 In 0.10216 0.17126 0.51832 0.0
O79 O 0.09253 0.04481 0.565 0.0
O80 O 0.10667 0.17185 0.59562 0.0
C81 C 0.09909 0.11983 0.42908 0.0
C82 C 0.0628 0.28031 0.52538 0.0
C83 C 0.14982 0.19994 0.5162 0.0
O84 O 0.09564 0.06026 0.46154 0.0
O85 O 0.10385 0.20349 0.44212 0.0
O86 O 0.135 0.26816 0.51232 0.0
O87 O 0.14052 0.11857 0.52153 0.0
C88 C 0.0989 0.08829 0.60158 0.0
O89 O 0.08364 0.31301 0.53369 0.0
O90 O 0.0621 0.1939 0.51362 0.0
In91 In 0.88191 0.8313 0.50669 0.0
O92 O 0.89569 0.68178 0.52446 0.0
O93 O 0.92083 0.78786 0.50282 0.0
C94 C 0.83377 0.82098 0.50395 0.0
C95 C 0.88775 0.92825 0.58618 0.0
C96 C 0.88739 0.86903 0.41632 0.0
O97 O 0.84668 0.75002 0.51486 0.0
O98 O 0.8452 0.89637 0.49449 0.0
O99 O 0.89187 0.93081 0.44726 0.0
O100 O 0.88015 0.78945 0.43128 0.0
C101 C 0.91738 0.70324 0.51562 0.0
O102 O 0.89688 0.9576 0.54853 0.0
O103 O 0.87578 0.85239 0.5831 0.0
C104 C 0.80292 0.16779 0.96971 0.0
C105 C 0.81738 0.22261 -0.00072 0.0
C106 C 0.77773 0.17634 0.97056 0.0
C107 C 0.76681 0.2395 0.00257 0.0
C108 C 0.78136 0.29475 0.03267 0.0
C109 C 0.80654 0.28648 0.03025 0.0
C110 C 0.76284 0.11813 0.93709 0.0
C111 C 0.77031 0.36159 0.06782 0.0
C112 C 0.7037 0.33027 0.97885 0.0
C113 C 0.68965 0.26919 0.00623 0.0
C114 C 0.72881 0.32041 0.97685 0.0
C115 C 0.74016 0.24929 0.00385 0.0
C116 C 0.72606 0.18774 0.03187 0.0
C117 C 0.70085 0.19762 0.03224 0.0
C118 C 0.74315 0.38575 0.94563 0.0
C119 C 0.73763 0.11237 0.06184 0.0
H120 H 0.81132 0.11852 0.94565 0.0
H121 H 0.81773 0.32812 0.05348 0.0
H122 H 0.75049 0.07051 0.95655 0.0
H123 H 0.75148 0.16585 0.91556 0.0
H124 H 0.77418 0.07396 0.91367 0.0
H125 H 0.78412 0.39727 0.08964 0.0
H126 H 0.75956 0.41701 0.04986 0.0
H127 H 0.7578 0.3218 0.09084 0.0
H128 H 0.695 0.38517 0.95839 0.0
H129 H 0.68996 0.15076 0.05359 0.0
H130 H 0.75395 0.34317 0.92068 0.0
H131 H 0.756 0.42831 0.96659 0.0
H132 H 0.73146 0.43534 0.92575 0.0
H133 H 0.7479 0.06175 0.03987 0.0
H134 H 0.72416 0.07171 0.08241 0.0
H135 H 0.75066 0.14588 0.08608 0.0
C136 C 0.20126 0.85251 0.98211 0.0
C137 C 0.18832 0.78934 0.01038 0.0
C138 C 0.22648 0.8477 0.97927 0.0
C139 C 0.239 0.77943 0.00615 0.0
C140 C 0.22602 0.71691 0.03558 0.0
C141 C 0.20077 0.7219 0.03693 0.0
C142 C 0.23966 0.91405 0.94671 0.0
C143 C 0.2388 0.64423 0.06534 0.0
C144 C 0.30021 0.69059 0.96732 0.0
C145 C 0.31578 0.74317 0.99574 0.0
C146 C 0.27522 0.70392 0.96944 0.0
C147 C 0.26556 0.76973 0.00165 0.0
C148 C 0.28122 0.82389 0.03015 0.0
C149 C 0.30627 0.81078 0.02642 0.0
C150 C 0.25916 0.64655 0.93765 0.0
C151 C 0.27149 0.89338 0.06549 0.0
H152 H 0.19163 0.90459 0.96146 0.0
H153 H 0.19078 0.67365 0.05916 0.0
H154 H 0.2534 0.9555 0.96602 0.0
H155 H 0.24933 0.87205 0.9199 0.0
H156 H 0.22728 0.96454 0.92903 0.0
H157 H 0.2262 0.6053 0.08857 0.0
H158 H 0.24817 0.59175 0.0429 0.0
H159 H 0.25274 0.67956 0.08693 0.0
H160 H 0.30761 0.63878 0.9433 0.0
H161 H 0.31835 0.85092 0.0486 0.0
H162 H 0.24707 0.69459 0.91783 0.0
H163 H 0.24754 0.5985 0.95849 0.0
H164 H 0.26964 0.60275 0.91263 0.0
H165 H 0.25975 0.94666 0.04831 0.0
H166 H 0.28609 0.93145 0.08427 0.0
H167 H 0.26021 0.85492 0.09123 0.0
C168 C 0.79468 0.74937 0.52862 0.0
C169 C 0.80725 0.81675 0.50223 0.0
C170 C 0.76941 0.74558 0.5276 0.0
C171 C 0.75654 0.80892 0.49844 0.0
C172 C 0.7692 0.87685 0.47155 0.0
C173 C 0.79443 0.8808 0.47427 0.0
C174 C 0.75649 0.67348 0.55754 0.0
C175 C 0.75615 0.94369 0.43911 0.0
C176 C 0.69481 0.71987 0.46313 0.0
C177 C 0.67971 0.77186 0.49273 0.0
C178 C 0.71979 0.7345 0.46318 0.0
C179 C 0.72992 0.80078 0.49461 0.0
C180 C 0.71466 0.85531 0.52381 0.0
C181 C 0.6896 0.84103 0.52206 0.0
C182 C 0.73538 0.67693 0.43057 0.0
C183 C 0.72487 0.92526 0.55839 0.0
H184 H 0.80461 0.70044 0.55056 0.0
H185 H 0.8042 0.93267 0.45366 0.0
H186 H 0.74275 0.70948 0.57939 0.0
H187 H 0.74687 0.62151 0.53525 0.0
H188 H 0.76904 0.63387 0.58055 0.0
H189 H 0.76865 0.99339 0.42115 0.0
H190 H 0.74625 0.90204 0.41251 0.0
H191 H 0.74261 0.98599 0.45856 0.0
H192 H 0.68709 0.66673 0.44023 0.0
H193 H 0.67787 0.88055 0.54524 0.0
H194 H 0.74676 0.62701 0.45081 0.0
H195 H 0.7477 0.72446 0.41093 0.0
H196 H 0.72452 0.63501 0.40543 0.0
H197 H 0.73586 0.88656 0.58446 0.0
H198 H 0.71053 0.96552 0.57687 0.0
H199 H 0.73698 0.97662 0.54073 0.0
C200 C 0.19135 0.14887 0.53667 0.0
C201 C 0.17612 0.21284 0.51367 0.0
C202 C 0.21647 0.15794 0.53376 0.0
C203 C 0.22653 0.23088 0.50592 0.0
C204 C 0.21118 0.29507 0.48215 0.0
C205 C 0.18608 0.2862 0.48694 0.0
C206 C 0.23223 0.09006 0.56081 0.0
C207 C 0.22127 0.37221 0.45121 0.0
C208 C 0.29042 0.3132 0.5296 0.0
C209 C 0.30359 0.26008 0.49717 0.0
C210 C 0.26536 0.30331 0.53324 0.0
C211 C 0.25313 0.2412 0.50257 0.0
C212 C 0.26635 0.18825 0.46927 0.0
C213 C 0.29157 0.1971 0.46751 0.0
C214 C 0.25201 0.35855 0.57022 0.0
C215 C 0.25383 0.12333 0.43516 0.0
H216 H 0.18358 0.09235 0.55752 0.0
H217 H 0.17424 0.33494 0.46874 0.0
H218 H 0.2439 0.04912 0.53673 0.0
H219 H 0.24429 0.13062 0.58435 0.0
H220 H 0.22152 0.03903 0.58189 0.0
H221 H 0.20687 0.41369 0.43363 0.0
H222 H 0.23248 0.42189 0.47192 0.0
H223 H 0.23315 0.34027 0.42436 0.0
H224 H 0.29982 0.3614 0.55278 0.0
H225 H 0.30182 0.1567 0.4422 0.0
H226 H 0.24176 0.30889 0.59281 0.0
H227 H 0.23876 0.40721 0.5539 0.0
H228 H 0.26434 0.40132 0.59232 0.0
H229 H 0.24417 0.06603 0.45403 0.0
H230 H 0.26663 0.09009 0.41029 0.0
H231 H 0.24014 0.16401 0.41528 0.0
C232 C 0.59324 0.37654 0.16977 0.0
C233 C 0.6071 0.42651 0.13719 0.0
C234 C 0.59112 0.40894 0.2156 0.0
C235 C 0.60389 0.49134 0.22946 0.0
C236 C 0.6178 0.54251 0.19651 0.0
C237 C 0.61889 0.51025 0.15038 0.0
C238 C 0.57544 0.35436 0.24926 0.0
C239 C 0.63217 0.62924 0.21035 0.0
C240 C 0.58648 0.62163 0.33994 0.0
C241 C 0.60257 0.58206 0.37204 0.0
C242 C 0.58631 0.59113 0.29357 0.0
C243 C 0.60326 0.52217 0.27878 0.0
C244 C 0.61962 0.48229 0.31117 0.0
C245 C 0.61877 0.51158 0.35773 0.0
C246 C 0.56801 0.63263 0.26047 0.0
C247 C 0.63838 0.41044 0.29643 0.0
H248 H 0.58398 0.31204 0.15929 0.0
H249 H 0.62975 0.54822 0.12512 0.0
H250 H 0.58676 0.32267 0.27697 0.0
H251 H 0.56244 0.40318 0.26635 0.0
H252 H 0.56522 0.29632 0.23199 0.0
H253 H 0.64201 0.66106 0.18052 0.0
H254 H 0.62011 0.68404 0.22546 0.0
H255 H 0.64545 0.60962 0.23754 0.0
H256 H 0.57391 0.67602 0.35126 0.0
H257 H 0.6314 0.48204 0.38258 0.0
H258 H 0.55751 0.57463 0.24387 0.0
H259 H 0.57733 0.67209 0.23234 0.0
H260 H 0.55527 0.68185 0.2781 0.0
H261 H 0.62949 0.34605 0.28218 0.0
H262 H 0.65023 0.38861 0.32563 0.0
H263 H 0.64977 0.44079 0.26838 0.0
C264 C 0.3749 0.4846 0.1353 0.0
C265 C 0.39181 0.55351 0.12228 0.0
C266 C 0.3733 0.45391 0.18163 0.0
C267 C 0.38959 0.49073 0.21503 0.0
C268 C 0.4074 0.55725 0.20135 0.0
C269 C 0.40797 0.58927 0.15527 0.0
C270 C 0.35366 0.38484 0.19519 0.0
C271 C 0.42568 0.59541 0.23546 0.0
C272 C 0.37317 0.48684 0.34326 0.0
C273 C 0.38442 0.40293 0.35785 0.0
C274 C 0.37437 0.51558 0.29658 0.0
C275 C 0.38787 0.46068 0.26441 0.0
C276 C 0.39985 0.37737 0.2795 0.0
C277 C 0.39761 0.3486 0.32591 0.0
C278 C 0.36084 0.60351 0.28148 0.0
C279 C 0.41513 0.3189 0.24673 0.0
H280 H 0.36221 0.45814 0.10974 0.0
H281 H 0.42108 0.64253 0.14495 0.0
H282 H 0.36163 0.31999 0.21084 0.0
H283 H 0.34184 0.41772 0.22188 0.0
H284 H 0.34237 0.36339 0.16511 0.0
H285 H 0.43942 0.64124 0.21843 0.0
H286 H 0.41644 0.63775 0.26268 0.0
H287 H 0.43502 0.5357 0.25312 0.0
H288 H 0.3628 0.52822 0.368 0.0
H289 H 0.40646 0.28395 0.33741 0.0
H290 H 0.34812 0.58524 0.25311 0.0
H291 H 0.37362 0.65712 0.26754 0.0
H292 H 0.35052 0.63633 0.31043 0.0
H293 H 0.40381 0.29015 0.21828 0.0
H294 H 0.42414 0.25846 0.26453 0.0
H295 H 0.42915 0.36449 0.23052 0.0
C296 C 0.38203 0.62798 0.82194 0.0
C297 C 0.39596 0.58283 0.85603 0.0
C298 C 0.38224 0.59633 0.77585 0.0
C299 C 0.39719 0.51892 0.76327 0.0
C300 C 0.41202 0.47522 0.79719 0.0
C301 C 0.41099 0.50695 0.84346 0.0
C302 C 0.3657 0.64331 0.74105 0.0
C303 C 0.42858 0.39382 0.78478 0.0
C304 C 0.3761 0.37183 0.661 0.0
C305 C 0.38953 0.41057 0.62433 0.0
C306 C 0.37871 0.40571 0.70641 0.0
C307 C 0.39556 0.47888 0.71562 0.0
C308 C 0.40962 0.51696 0.67891 0.0
C309 C 0.40622 0.48304 0.63343 0.0
C310 C 0.36294 0.36477 0.74432 0.0
C311 C 0.42809 0.59377 0.68768 0.0
H312 H 0.37032 0.68656 0.8316 0.0
H313 H 0.42195 0.47262 0.86973 0.0
H314 H 0.37613 0.66812 0.71049 0.0
H315 H 0.35226 0.59084 0.72837 0.0
H316 H 0.35588 0.705 0.75606 0.0
H317 H 0.44069 0.37416 0.81396 0.0
H318 H 0.41774 0.33047 0.77517 0.0
H319 H 0.43976 0.41282 0.75418 0.0
H320 H 0.3631 0.31598 0.65404 0.0
H321 H 0.41676 0.51243 0.60514 0.0
H322 H 0.35164 0.42189 0.75965 0.0
H323 H 0.37427 0.33537 0.7726 0.0
H324 H 0.35089 0.30745 0.73137 0.0
H325 H 0.419 0.65949 0.69988 0.0
H326 H 0.43871 0.61106 0.65605 0.0
H327 H 0.44066 0.57109 0.71553 0.0
C328 C 0.62018 0.36136 0.83575 0.0
C329 C 0.60704 0.40743 0.87077 0.0
C330 C 0.61915 0.39254 0.78965 0.0
C331 C 0.60424 0.47066 0.77812 0.0
C332 C 0.5904 0.51604 0.81311 0.0
C333 C 0.59217 0.48443 0.85928 0.0
C334 C 0.63458 0.3436 0.75355 0.0
C335 C 0.57401 0.5986 0.80184 0.0
C336 C 0.62182 0.61289 0.6717 0.0
C337 C 0.60661 0.57438 0.63771 0.0
C338 C 0.62109 0.58004 0.71757 0.0
C339 C 0.60441 0.50817 0.72993 0.0
C340 C 0.5888 0.4696 0.69586 0.0
C341 C 0.59027 0.50255 0.64987 0.0
C342 C 0.63842 0.62142 0.75265 0.0
C343 C 0.57054 0.39389 0.70804 0.0
H344 H 0.63179 0.30195 0.84456 0.0
H345 H 0.58186 0.51963 0.88629 0.0
H346 H 0.62321 0.3177 0.72453 0.0
H347 H 0.64768 0.39509 0.73876 0.0
H348 H 0.64474 0.28232 0.76808 0.0
H349 H 0.56316 0.62149 0.83231 0.0
H350 H 0.58488 0.66002 0.78967 0.0
H351 H 0.56157 0.57895 0.77323 0.0
H352 H 0.63452 0.66834 0.66231 0.0
H353 H 0.57833 0.47346 0.62367 0.0
H354 H 0.64996 0.56414 0.76712 0.0
H355 H 0.6283 0.65322 0.78204 0.0
H356 H 0.65026 0.677 0.73733 0.0
H357 H 0.5799 0.32897 0.72049 0.0
H358 H 0.559 0.37438 0.67799 0.0
H359 H 0.5588 0.4191 0.73676 0.0
C360 C 0.08934 0.00301 0.15591 0.0
C361 C 0.10991 0.95055 0.14404 0.0
C362 C 0.08586 0.03512 0.20163 0.0
C363 C 0.10364 0.01571 0.23563 0.0
C364 C 0.12491 0.96628 0.22313 0.0
C365 C 0.12765 0.93339 0.17757 0.0
C366 C 0.06284 0.08665 0.21393 0.0
C367 C 0.14457 0.94639 0.25809 0.0
C368 C 0.10748 0.15937 0.34649 0.0
C369 C 0.09858 0.09457 0.37938 0.0
C370 C 0.10852 0.1358 0.29929 0.0
C371 C 0.10013 0.04572 0.28457 0.0
C372 C 0.09026 0.98131 0.31736 0.0
C373 C 0.08979 0.00623 0.36458 0.0
C374 C 0.11952 0.20574 0.26551 0.0
C375 C 0.08081 0.88511 0.3027 0.0
H376 H 0.07552 0.01533 0.12999 0.0
H377 H 0.14362 0.89312 0.16826 0.0
H378 H 0.05241 0.04383 0.23936 0.0
H379 H 0.06697 0.15584 0.23068 0.0
H380 H 0.05132 0.09985 0.18304 0.0
H381 H 0.16052 0.91148 0.24208 0.0
H382 H 0.15051 0.01369 0.2747 0.0
H383 H 0.13754 0.89949 0.28598 0.0
H384 H 0.11431 0.22787 0.35778 0.0
H385 H 0.08272 0.95638 0.3899 0.0
H386 H 0.10712 0.21846 0.23596 0.0
H387 H 0.13642 0.17565 0.251 0.0
H388 H 0.12375 0.27516 0.28209 0.0
H389 H 0.06785 0.89311 0.27363 0.0
H390 H 0.07172 0.84706 0.33167 0.0
H391 H 0.09593 0.84043 0.28998 0.0
C392 C 0.90224 0.96861 0.35039 0.0
C393 C 0.88972 0.88834 0.36619 0.0
C394 C 0.90359 0.98933 0.30281 0.0
C395 C 0.89175 0.92925 0.27054 0.0
C396 C 0.87964 0.84672 0.28627 0.0
C397 C 0.87894 0.82685 0.33395 0.0
C398 C 0.91699 0.07729 0.2872 0.0
C399 C 0.86648 0.78188 0.25302 0.0
C400 C 0.8706 0.05529 0.16211 0.0
C401 C 0.88817 0.02844 0.1297 0.0
C402 C 0.8711 0.02039 0.20756 0.0
C403 C 0.88991 0.95841 0.22115 0.0
C404 C 0.90728 0.92833 0.18813 0.0
C405 C 0.90608 0.96324 0.14243 0.0
C406 C 0.85193 0.05256 0.24145 0.0
C407 C 0.9277 0.86296 0.20158 0.0
H408 H 0.9108 0.01566 0.37525 0.0
H409 H 0.86924 0.76461 0.34608 0.0
H410 H 0.92971 0.05939 0.25874 0.0
H411 H 0.904 0.13018 0.27334 0.0
H412 H 0.92725 0.11091 0.31597 0.0
H413 H 0.85974 0.71635 0.2703 0.0
H414 H 0.85087 0.82029 0.23788 0.0
H415 H 0.87844 0.76105 0.22386 0.0
H416 H 0.85664 0.10526 0.1521 0.0
H417 H 0.91976 0.94312 0.11737 0.0
H418 H 0.86026 0.09636 0.26919 0.0
H419 H 0.84342 0.99008 0.25841 0.0
H420 H 0.83761 0.09537 0.22441 0.0
H421 H 0.93973 0.89993 0.22653 0.0
H422 H 0.93859 0.84042 0.17109 0.0
H423 H 0.92064 0.79861 0.21927 0.0
C424 C 0.91298 0.0211 0.64204 0.0
C425 C 0.89131 0.97491 0.63135 0.0
C426 C 0.91749 0.05351 0.68743 0.0
C427 C 0.89964 0.04102 0.72215 0.0
C428 C 0.8773 -0.00161 0.71067 0.0
C429 C 0.87355 0.9648 0.66555 0.0
C430 C 0.94164 0.0973 0.69865 0.0
C431 C 0.85752 0.98612 0.74632 0.0
C432 C 0.91159 0.02463 0.85129 0.0
C433 C 0.90378 0.11423 0.86634 0.0
C434 C 0.91208 0.00208 0.8038 0.0
C435 C 0.9041 0.0702 0.77093 0.0
C436 C 0.89733 0.16227 0.78586 0.0
C437 C 0.89744 0.1834 0.8334 0.0
C438 C 0.91992 0.90374 0.78901 0.0
C439 C 0.88838 0.2364 0.75203 0.0
H440 H 0.92679 0.02783 0.61557 0.0
H441 H 0.85674 0.92941 0.65708 0.0
H442 H 0.93923 0.16671 0.7164 0.0
H443 H 0.95159 0.0501 0.72287 0.0
H444 H 0.95286 0.10831 0.6671 0.0
H445 H 0.84071 0.95691 0.73094 0.0
H446 H 0.86364 0.93716 0.77413 0.0
H447 H 0.85329 0.05548 0.76287 0.0
H448 H 0.91676 0.9714 0.87665 0.0
H449 H 0.89145 0.25301 0.84486 0.0
H450 H 0.93265 0.90813 0.75934 0.0
H451 H 0.90398 0.86257 0.77723 0.0
H452 H 0.9287 0.86403 0.81776 0.0
H453 H 0.90078 0.24249 0.72193 0.0
H454 H 0.8865 0.30759 0.76844 0.0
H455 H 0.87051 0.21451 0.7384 0.0
C456 C 0.11005 0.82912 0.84622 0.0
C457 C 0.09884 0.88234 0.88131 0.0
C458 C 0.10825 0.8562 0.79955 0.0
C459 C 0.09442 0.93717 0.78765 0.0
C460 C 0.08198 0.9882 0.82272 0.0
C461 C 0.08462 0.96091 0.86936 0.0
C462 C 0.12228 0.80134 0.76338 0.0
C463 C 0.0666 0.07359 0.81114 0.0
C464 C 0.11383 0.07876 0.68238 0.0
C465 C 0.09788 0.04599 0.64828 0.0
C466 C 0.11298 0.04301 0.72766 0.0
C467 C 0.09529 0.97457 0.73947 0.0
C468 C 0.07901 0.94135 0.7052 0.0
C469 C 0.08072 0.97664 0.65962 0.0
C470 C 0.13113 0.0783 0.76281 0.0
C471 C 0.05959 0.86994 0.71689 0.0
H472 H 0.12111 0.76835 0.8554 0.0
H473 H 0.07574 0.00147 0.89645 0.0
H474 H 0.11039 0.78074 0.73413 0.0
H475 H 0.13675 0.84727 0.74894 0.0
H476 H 0.1307 0.73602 0.77785 0.0
H477 H 0.05573 0.09777 0.84135 0.0
H478 H 0.07829 0.13328 0.79978 0.0
H479 H 0.05424 0.05678 0.78198 0.0
H480 H 0.12722 0.13201 0.67347 0.0
H481 H 0.06826 0.95205 0.63323 0.0
H482 H 0.14128 0.01735 0.77756 0.0
H483 H 0.12169 0.11399 0.79198 0.0
H484 H 0.14422 0.12931 0.7475 0.0
H485 H 0.06782 0.80349 0.73034 0.0
H486 H 0.04822 0.85207 0.68638 0.0
H487 H 0.04785 0.89869 0.74479 0.0
C488 C 0.46989 0.81686 0.02104 0.0
C489 C 0.45031 0.84672 0.99405 0.0
C490 C 0.49106 0.87099 0.02323 0.0
C491 C 0.49288 0.95529 0.99659 0.0
C492 C 0.47327 0.98488 0.96859 0.0
C493 C 0.45199 0.93085 0.96826 0.0
C494 C 0.51129 0.83887 0.05463 0.0
C495 C 0.47483 0.07318 0.93885 0.0
C496 C 0.53714 0.14662 0.03256 0.0
C497 C 0.55686 0.12678 0.00374 0.0
C498 C 0.51638 0.09003 0.03123 0.0
C499 C 0.51507 0.01395 -0.00087 0.0
C500 C 0.53494 0.9939 0.96974 0.0
C501 C 0.55584 0.04981 0.97298 0.0
C502 C 0.49589 0.11158 0.0642 0.0
C503 C 0.53389 0.91487 0.93426 0.0
H504 H 0.46846 0.75196 0.04124 0.0
H505 H 0.43686 0.95327 0.9471 0.0
H506 H 0.52791 0.82663 0.03404 0.0
H507 H 0.51541 0.89539 0.08036 0.0
H508 H 0.50681 0.77235 0.07363 0.0
H509 H 0.45848 0.08346 0.91717 0.0
H510 H 0.47721 0.13686 0.96115 0.0
H511 H 0.49081 0.06888 0.91569 0.0
H512 H 0.53808 0.20603 0.05654 0.0
H513 H 0.57107 0.0354 0.95041 0.0
H514 H 0.49136 0.04721 0.08478 0.0
H515 H 0.47953 0.13154 0.04433 0.0
H516 H 0.50029 0.17044 0.08853 0.0
H517 H 0.53084 0.8456 0.95176 0.0
H518 H 0.55069 0.90995 0.91335 0.0
H519 H 0.51847 0.92674 0.91041 0.0
C520 C 0.54262 0.93611 0.53056 0.0
C521 C 0.54418 0.84668 0.50939 0.0
C522 C 0.52083 0.98686 0.53055 0.0
C523 C 0.50049 0.94827 0.50748 0.0
C524 C 0.50207 0.85796 0.48597 0.0
C525 C 0.52383 0.80758 0.48782 0.0
C526 C 0.5196 0.08195 0.55488 0.0
C527 C 0.48101 0.81586 0.4598 0.0
C528 C 0.43797 0.0466 0.53198 0.0
C529 C 0.43584 0.11485 0.49684 0.0
C530 C 0.45908 0.99219 0.53627 0.0
C531 C 0.47797 0.00457 0.50364 0.0
C532 C 0.47543 0.07122 0.46713 0.0
C533 C 0.45453 0.12684 0.4647 0.0
C534 C 0.46148 0.9236 0.57636 0.0
C535 C 0.4948 0.08413 0.43075 0.0
H536 H 0.55835 0.96578 0.54758 0.0
H537 H 0.52512 0.73853 0.47117 0.0
H538 H 0.51652 0.13931 0.52911 0.0
H539 H 0.50418 0.08308 0.57948 0.0
H540 H 0.5364 0.09826 0.57431 0.0
H541 H 0.48515 0.74425 0.44549 0.0
H542 H 0.46507 0.80995 0.4829 0.0
H543 H 0.47595 0.86355 0.43068 0.0
H544 H 0.42353 0.03847 0.55709 0.0
H545 H 0.45272 0.17955 0.4374 0.0
H546 H 0.47731 0.94338 0.59785 0.0
H547 H 0.46468 0.85047 0.56324 0.0
H548 H 0.44519 0.92286 0.59885 0.0
H549 H 0.51157 0.11078 0.44719 0.0
H550 H 0.48936 0.13498 0.40314 0.0
H551 H 0.49912 0.0147 0.41434 0.0
C552 C 0.05738 0.53166 0.01143 0.0
C553 C 0.05943 0.61087 0.0406 0.0
C554 C 0.03639 0.4759 0.01177 0.0
C555 C 0.01747 0.4989 0.04291 0.0
C556 C 0.02018 0.57532 0.07445 0.0
C557 C 0.04103 0.63135 0.07242 0.0
C558 C 0.03393 0.39584 0.9771 0.0
C559 C 0.0007 0.60014 0.10909 0.0
C560 C 0.95378 0.43151 0.0085 0.0
C561 C 0.9508 0.3453 0.0321 0.0
C562 C 0.97546 0.48235 0.01178 0.0
C563 C 0.99422 0.4471 0.04038 0.0
C564 C 0.99089 0.36194 0.06576 0.0
C565 C 0.96929 0.31121 0.06076 0.0
C566 C 0.97856 0.57216 0.98356 0.0
C567 C 0.01021 0.32388 0.09768 0.0
H568 H 0.07158 0.51651 0.9866 0.0
H569 H 0.04276 0.69245 0.0952 0.0
H570 H 0.02919 0.32857 0.99506 0.0
H571 H 0.01907 0.41218 0.95258 0.0
H572 H 0.05074 0.38437 0.95683 0.0
H573 H 0.00677 0.65458 0.13451 0.0
H574 H 0.98468 0.62819 0.09055 0.0
H575 H 0.99489 0.53563 0.12831 0.0
H576 H 0.93952 0.45727 0.98604 0.0
H577 H 0.96687 0.24461 0.07922 0.0
H578 H 0.99414 0.56427 0.95964 0.0
H579 H 0.98251 0.63317 0.00678 0.0
H580 H 0.96228 0.58938 0.96274 0.0
H581 H 0.02645 0.30457 0.07724 0.0
H582 H 0.00412 0.26008 0.11724 0.0
H583 H 0.0157 0.37958 0.12287 0.0
C584 C 0.04008 0.42184 0.55433 0.0
C585 C 0.04074 0.33825 0.52792 0.0
C586 C 0.01908 0.47741 0.55621 0.0
C587 C -0.00136 0.44973 0.52999 0.0
C588 C -0.00081 0.3647 0.50371 0.0
C589 C 0.02017 0.30934 0.50348 0.0
C590 C 0.0189 0.56663 0.58544 0.0
C591 C 0.978 0.3342 0.47431 0.0
C592 C 0.9373 0.56193 0.55164 0.0
C593 C 0.93748 0.63556 0.51891 0.0
C594 C 0.95733 0.50147 0.55638 0.0
C595 C 0.97747 0.51374 0.52665 0.0
C596 C 0.97736 0.5867 0.4928 0.0
C597 C 0.9575 0.64762 0.48985 0.0
C598 C 0.95713 0.42574 0.59356 0.0
C599 C -0.00183 0.60021 0.45952 0.0
H600 H 0.05593 0.44352 0.57364 0.0
H601 H 0.02071 0.24469 0.48293 0.0
H602 H 0.01787 0.6301 0.56262 0.0
H603 H 0.00276 0.56766 0.60824 0.0
H604 H 0.03529 0.57285 0.6074 0.0
H605 H 0.98098 0.26398 0.45752 0.0
H606 H 0.96141 0.33008 0.49574 0.0
H607 H 0.97473 0.38795 0.44678 0.0
H608 H 0.92184 0.55347 0.57435 0.0
H609 H 0.9575 0.70436 0.46431 0.0
H610 H 0.97271 0.43604 0.61721 0.0
H611 H 0.95911 0.3543 0.57762 0.0
H612 H 0.94028 0.42685 0.61445 0.0
H613 H 0.01486 0.61711 0.47906 0.0
H614 H 0.99482 0.6583 0.43416 0.0
H615 H 0.00153 0.53332 0.44005 0.0
loop_
_geom_bond_atom_site_label_1
_geom_bond_atom_site_label_2
_geom_bond_distance
_geom_bond_site_symmetry_2
_ccdc_geom_bond_type
In0 O1 2.294 1_554 S
In0 O2 2.326 1_554 S
In0 O6 2.266 . S
In0 O7 2.326 . S
In0 O8 2.266 . S
In0 O9 2.326 . S
In0 O11 2.293 1_554 S
In0 O12 2.326 . S
O1 In0 2.294 1_556 S
O1 C10 1.240 . S
O2 In0 2.326 1_556 S
O2 C10 1.252 . S
C3 O6 1.252 . S
C3 O7 1.260 . S
C4 O11 1.240 . S
C4 O12 1.251 1_556 S
C5 O8 1.252 . S
C5 O9 1.260 . S
O6 In0 2.266 . S
O6 C3 1.252 . S
O7 In0 2.326 . S
O7 C3 1.260 . S
O8 In0 2.266 . S
O8 C5 1.252 . S
O9 In0 2.326 . S
O9 C5 1.260 . S
C10 O1 1.240 . S
C10 O2 1.252 . S
O11 In0 2.293 1_556 S
O11 C4 1.240 . S
O12 In0 2.326 . S
O12 C4 1.251 1_554 S
In13 O14 2.293 1_554 S
In13 O15 2.326 . S
In13 O19 2.266 . S
In13 O20 2.326 . S
In13 O21 2.266 . S
In13 O22 2.326 . S
In13 O24 2.294 1_554 S
In13 O25 2.326 1_554 S
O14 In13 2.293 1_556 S
O14 C23 1.240 . S
O15 In13 2.326 . S
O15 C23 1.251 1_554 S
C16 O19 1.252 . S
C16 O20 1.260 . S
C17 O24 1.240 . S
C17 O25 1.252 . S
C18 O21 1.252 . S
C18 O22 1.260 . S
O19 In13 2.266 . S
O19 C16 1.252 . S
O20 In13 2.326 . S
O20 C16 1.260 . S
O21 In13 2.266 . S
O21 C18 1.252 . S
O22 In13 2.326 . S
O22 C18 1.260 . S
C23 O14 1.240 . S
C23 O15 1.251 1_556 S
O24 In13 2.294 1_556 S
O24 C17 1.240 . S
O25 In13 2.326 1_556 S
O25 C17 1.252 . S
In26 O27 2.294 . S
In26 O28 2.326 . S
In26 O32 2.266 . S
In26 O33 2.326 . S
In26 O34 2.266 . S
In26 O35 2.326 . S
In26 O37 2.294 . S
In26 O38 2.326 . S
O27 In26 2.294 . S
O27 C36 1.240 . S
O28 In26 2.326 . S
O28 C36 1.252 . S
C29 O32 1.252 . S
C29 O33 1.260 . S
C30 O37 1.240 . S
C30 O38 1.252 . S
C31 O34 1.252 . S
C31 O35 1.260 . S
O32 In26 2.266 . S
O32 C29 1.252 . S
O33 In26 2.326 . S
O33 C29 1.260 . S
O34 In26 2.266 . S
O34 C31 1.252 . S
O35 In26 2.326 . S
O35 C31 1.260 . S
C36 O27 1.240 . S
C36 O28 1.252 . S
O37 In26 2.294 . S
O37 C30 1.240 . S
O38 In26 2.326 . S
O38 C30 1.252 . S
In39 O40 2.294 . S
In39 O41 2.326 . S
In39 O45 2.266 . S
In39 O46 2.326 . S
In39 O47 2.266 . S
In39 O48 2.326 . S
In39 O50 2.294 . S
In39 O51 2.326 . S
O40 In39 2.294 . S
O40 C49 1.240 . S
O41 In39 2.326 . S
O41 C49 1.252 . S
C42 O45 1.252 . S
C42 O46 1.260 . S
C43 O50 1.240 . S
C43 O51 1.252 . S
C44 O47 1.252 . S
C44 O48 1.260 . S
O45 In39 2.266 . S
O45 C42 1.252 . S
O46 In39 2.326 . S
O46 C42 1.260 . S
O47 In39 2.266 . S
O47 C44 1.252 . S
O48 In39 2.326 . S
O48 C44 1.260 . S
C49 O40 1.240 . S
C49 O41 1.252 . S
O50 In39 2.294 . S
O50 C43 1.240 . S
O51 In39 2.326 . S
O51 C43 1.252 . S
In52 O53 2.293 1_554 S
In52 O54 2.326 . S
In52 O58 2.266 . S
In52 O59 2.326 . S
In52 O60 2.266 . S
In52 O61 2.326 . S
In52 O63 2.294 1_554 S
In52 O64 2.326 1_554 S
O53 In52 2.293 1_556 S
O53 C62 1.240 . S
O54 In52 2.326 . S
O54 C62 1.251 1_554 S
C55 O58 1.252 . S
C55 O59 1.260 . S
C56 O63 1.240 . S
C56 O64 1.252 . S
C57 O60 1.252 . S
C57 O61 1.260 . S
O58 In52 2.266 . S
O58 C55 1.252 . S
O59 In52 2.326 . S
O59 C55 1.260 . S
O60 In52 2.266 . S
O60 C57 1.252 . S
O61 In52 2.326 . S
O61 C57 1.260 . S
C62 O53 1.240 . S
C62 O54 1.251 1_556 S
O63 In52 2.294 1_556 S
O63 C56 1.240 . S
O64 In52 2.326 1_556 S
O64 C56 1.252 . S
In65 O66 2.294 1_554 S
In65 O67 2.326 1_554 S
In65 O71 2.266 . S
In65 O72 2.326 . S
In65 O73 2.266 . S
In65 O74 2.326 . S
In65 O76 2.293 1_554 S
In65 O77 2.326 . S
O66 In65 2.294 1_556 S
O66 C75 1.240 . S
O67 In65 2.326 1_556 S
O67 C75 1.252 . S
C68 O71 1.252 . S
C68 O72 1.260 . S
C69 O76 1.240 . S
C69 O77 1.251 1_556 S
C70 O73 1.252 . S
C70 O74 1.260 . S
O71 In65 2.266 . S
O71 C68 1.252 . S
O72 In65 2.326 . S
O72 C68 1.260 . S
O73 In65 2.266 . S
O73 C70 1.252 . S
O74 In65 2.326 . S
O74 C70 1.260 . S
C75 O66 1.240 . S
C75 O67 1.252 . S
O76 In65 2.293 1_556 S
O76 C69 1.240 . S
O77 In65 2.326 . S
O77 C69 1.251 1_554 S
In78 O79 2.294 . S
In78 O80 2.326 . S
In78 O84 2.266 . S
In78 O85 2.326 . S
In78 O86 2.266 . S
In78 O87 2.326 . S
In78 O89 2.294 . S
In78 O90 2.326 . S
O79 In78 2.294 . S
O79 C88 1.240 . S
O80 In78 2.326 . S
O80 C88 1.252 . S
C81 O84 1.252 . S
C81 O85 1.260 . S
C82 O89 1.240 . S
C82 O90 1.252 . S
C83 O86 1.252 . S
C83 O87 1.260 . S
O84 In78 2.266 . S
O84 C81 1.252 . S
O85 In78 2.326 . S
O85 C81 1.260 . S
O86 In78 2.266 . S
O86 C83 1.252 . S
O87 In78 2.326 . S
O87 C83 1.260 . S
C88 O79 1.240 . S
C88 O80 1.252 . S
O89 In78 2.294 . S
O89 C82 1.240 . S
O90 In78 2.326 . S
O90 C82 1.252 . S
In91 O92 2.294 . S
In91 O93 2.326 . S
In91 O97 2.266 . S
In91 O98 2.326 . S
In91 O99 2.266 . S
In91 O100 2.326 . S
In91 O102 2.294 . S
In91 O103 2.326 . S
O92 In91 2.294 . S
O92 C101 1.240 . S
O93 In91 2.326 . S
O93 C101 1.252 . S
C94 O97 1.252 . S
C94 O98 1.260 . S
C95 O102 1.240 . S
C95 O103 1.252 . S
C96 O99 1.252 . S
C96 O100 1.260 . S
O97 In91 2.266 . S
O97 C94 1.252 . S
O98 In91 2.326 . S
O98 C94 1.260 . S
O99 In91 2.266 . S
O99 C96 1.252 . S
O100 In91 2.326 . S
O100 C96 1.260 . S
C101 O92 1.240 . S
C101 O93 1.252 . S
O102 In91 2.294 . S
O102 C95 1.240 . S
O103 In91 2.326 . S
O103 C95 1.252 . S
C104 C105 1.391 . S
C104 C106 1.394 . S
C104 H120 0.931 1_554 S
C105 C104 1.391 . S
C105 C109 1.376 . S
C106 C104 1.394 . S
C106 C107 1.369 . S
C106 C110 1.531 1_554 S
C107 C106 1.369 . S
C107 C108 1.410 . S
C107 C115 1.503 . S
C108 C107 1.410 . S
C108 C109 1.392 . S
C108 C111 1.511 . S
C109 C105 1.376 . S
C109 C108 1.392 . S
C109 H121 0.929 . S
C110 C106 1.531 1_556 S
C110 H122 0.960 1_556 S
C110 H123 0.962 . S
C110 H124 0.958 1_556 S
C111 C108 1.511 . S
C111 H125 0.961 . S
C111 H126 0.961 . S
C111 H127 0.961 . S
C112 C113 1.370 1_556 S
C112 C114 1.363 . S
C112 H128 0.931 . S
C113 C112 1.370 1_554 S
C113 C117 1.408 . S
C114 C112 1.363 . S
C114 C115 1.370 1_556 S
C114 C118 1.524 . S
C115 C107 1.503 . S
C115 C114 1.370 1_554 S
C115 C116 1.403 . S
C116 C115 1.403 . S
C116 C117 1.404 . S
C116 C119 1.539 . S
C117 C113 1.408 . S
C117 C116 1.404 . S
C117 H129 0.930 . S
C118 C114 1.524 . S
C118 H130 0.956 . S
C118 H131 0.961 . S
C118 H132 0.961 . S
C119 C116 1.539 . S
C119 H133 0.958 . S
C119 H134 0.961 . S
C119 H135 0.960 . S
H120 C104 0.931 1_556 S
H121 C109 0.929 . S
H122 C110 0.960 1_554 S
H123 C110 0.962 . S
H124 C110 0.958 1_554 S
H125 C111 0.961 . S
H126 C111 0.961 . S
H127 C111 0.961 . S
H128 C112 0.931 . S
H129 C117 0.930 . S
H130 C118 0.956 . S
H131 C118 0.961 . S
H132 C118 0.961 . S
H133 C119 0.958 . S
H134 C119 0.961 . S
H135 C119 0.960 . S
C136 C137 1.391 . S
C136 C138 1.394 . S
C136 H152 0.931 . S
C137 C136 1.391 . S
C137 C141 1.376 . S
C138 C136 1.394 . S
C138 C139 1.369 . S
C138 C142 1.531 . S
C139 C138 1.369 . S
C139 C140 1.410 . S
C139 C147 1.503 . S
C140 C139 1.410 . S
C140 C141 1.392 . S
C140 C143 1.511 . S
C141 C137 1.376 . S
C141 C140 1.392 . S
C141 H153 0.929 . S
C142 C138 1.531 . S
C142 H154 0.960 . S
C142 H155 0.962 1_554 S
C142 H156 0.960 . S
C143 C140 1.511 . S
C143 H157 0.961 . S
C143 H158 0.961 . S
C143 H159 0.961 . S
C144 C145 1.370 1_556 S
C144 C146 1.363 . S
C144 H160 0.931 . S
C145 C144 1.370 1_554 S
C145 C149 1.408 . S
C146 C144 1.363 . S
C146 C147 1.370 1_556 S
C146 C150 1.524 . S
C147 C139 1.503 . S
C147 C146 1.370 1_554 S
C147 C148 1.403 . S
C148 C147 1.403 . S
C148 C149 1.404 . S
C148 C151 1.539 . S
C149 C145 1.408 . S
C149 C148 1.404 . S
C149 H161 0.930 . S
C150 C146 1.524 . S
C150 H162 0.956 . S
C150 H163 0.961 . S
C150 H164 0.961 . S
C151 C148 1.539 . S
C151 H165 0.958 . S
C151 H166 0.961 . S
C151 H167 0.960 . S
H152 C136 0.931 . S
H153 C141 0.929 . S
H154 C142 0.960 . S
H155 C142 0.962 1_556 S
H156 C142 0.960 . S
H157 C143 0.961 . S
H158 C143 0.961 . S
H159 C143 0.961 . S
H160 C144 0.931 . S
H161 C149 0.930 . S
H162 C150 0.956 . S
H163 C150 0.961 . S
H164 C150 0.961 . S
H165 C151 0.958 . S
H166 C151 0.961 . S
H167 C151 0.960 . S
C168 C169 1.391 . S
C168 C170 1.394 . S
C168 H184 0.931 . S
C169 C168 1.391 . S
C169 C173 1.376 . S
C170 C168 1.394 . S
C170 C171 1.369 . S
C170 C174 1.531 . S
C171 C170 1.369 . S
C171 C172 1.410 . S
C171 C179 1.503 . S
C172 C171 1.410 . S
C172 C173 1.392 . S
C172 C175 1.511 . S
C173 C169 1.376 . S
C173 C172 1.392 . S
C173 H185 0.929 . S
C174 C170 1.531 . S
C174 H186 0.960 . S
C174 H187 0.962 . S
C174 H188 0.960 . S
C175 C172 1.511 . S
C175 H189 0.961 . S
C175 H190 0.961 . S
C175 H191 0.961 . S
C176 C177 1.370 . S
C176 C178 1.363 . S
C176 H192 0.931 . S
C177 C176 1.370 . S
C177 C181 1.408 . S
C178 C176 1.363 . S
C178 C179 1.370 . S
C178 C182 1.524 . S
C179 C171 1.503 . S
C179 C178 1.370 . S
C179 C180 1.403 . S
C180 C179 1.403 . S
C180 C181 1.404 . S
C180 C183 1.539 . S
C181 C177 1.408 . S
C181 C180 1.404 . S
C181 H193 0.930 . S
C182 C178 1.524 . S
C182 H194 0.956 . S
C182 H195 0.961 . S
C182 H196 0.961 . S
C183 C180 1.539 . S
C183 H197 0.958 . S
C183 H198 0.961 . S
C183 H199 0.960 . S
H184 C168 0.931 . S
H185 C173 0.929 . S
H186 C174 0.960 . S
H187 C174 0.962 . S
H188 C174 0.960 . S
H189 C175 0.961 . S
H190 C175 0.961 . S
H191 C175 0.961 . S
H192 C176 0.931 . S
H193 C181 0.930 . S
H194 C182 0.956 . S
H195 C182 0.961 . S
H196 C182 0.961 . S
H197 C183 0.958 . S
H198 C183 0.961 . S
H199 C183 0.960 . S
C200 C201 1.391 . S
C200 C202 1.394 . S
C200 H216 0.931 . S
C201 C200 1.391 . S
C201 C205 1.376 . S
C202 C200 1.394 . S
C202 C203 1.369 . S
C202 C206 1.531 . S
C203 C202 1.369 . S
C203 C204 1.410 . S
C203 C211 1.503 . S
C204 C203 1.410 . S
C204 C205 1.392 . S
C204 C207 1.511 . S
C205 C201 1.376 . S
C205 C204 1.392 . S
C205 H217 0.929 . S
C206 C202 1.531 . S
C206 H218 0.960 . S
C206 H219 0.962 . S
C206 H220 0.960 . S
C207 C204 1.511 . S
C207 H221 0.961 . S
C207 H222 0.961 . S
C207 H223 0.961 . S
C208 C209 1.370 . S
C208 C210 1.363 . S
C208 H224 0.931 . S
C209 C208 1.370 . S
C209 C213 1.408 . S
C210 C208 1.363 . S
C210 C211 1.370 . S
C210 C214 1.524 . S
C211 C203 1.503 . S
C211 C210 1.370 . S
C211 C212 1.403 . S
C212 C211 1.403 . S
C212 C213 1.404 . S
C212 C215 1.539 . S
C213 C209 1.408 . S
C213 C212 1.404 . S
C213 H225 0.930 . S
C214 C210 1.524 . S
C214 H226 0.956 . S
C214 H227 0.961 . S
C214 H228 0.961 . S
C215 C212 1.539 . S
C215 H229 0.958 . S
C215 H230 0.961 . S
C215 H231 0.960 . S
H216 C200 0.931 . S
H217 C205 0.929 . S
H218 C206 0.960 . S
H219 C206 0.962 . S
H220 C206 0.960 . S
H221 C207 0.961 . S
H222 C207 0.961 . S
H223 C207 0.961 . S
H224 C208 0.931 . S
H225 C213 0.930 . S
H226 C214 0.956 . S
H227 C214 0.961 . S
H228 C214 0.961 . S
H229 C215 0.958 . S
H230 C215 0.961 . S
H231 C215 0.960 . S
C232 C233 1.391 . S
C232 C234 1.394 . S
C232 H248 0.931 . S
C233 C232 1.391 . S
C233 C237 1.376 . S
C234 C232 1.394 . S
C234 C235 1.369 . S
C234 C238 1.531 . S
C235 C234 1.369 . S
C235 C236 1.410 . S
C235 C243 1.503 . S
C236 C235 1.410 . S
C236 C237 1.392 . S
C236 C239 1.511 . S
C237 C233 1.376 . S
C237 C236 1.392 . S
C237 H249 0.929 . S
C238 C234 1.531 . S
C238 H250 0.960 . S
C238 H251 0.962 . S
C238 H252 0.960 . S
C239 C236 1.511 . S
C239 H253 0.961 . S
C239 H254 0.961 . S
C239 H255 0.961 . S
C240 C241 1.370 . S
C240 C242 1.363 . S
C240 H256 0.931 . S
C241 C240 1.370 . S
C241 C245 1.408 . S
C242 C240 1.363 . S
C242 C243 1.370 . S
C242 C246 1.524 . S
C243 C235 1.503 . S
C243 C242 1.370 . S
C243 C244 1.403 . S
C244 C243 1.403 . S
C244 C245 1.404 . S
C244 C247 1.539 . S
C245 C241 1.408 . S
C245 C244 1.404 . S
C245 H257 0.930 . S
C246 C242 1.524 . S
C246 H258 0.956 . S
C246 H259 0.961 . S
C246 H260 0.961 . S
C247 C244 1.539 . S
C247 H261 0.958 . S
C247 H262 0.961 . S
C247 H263 0.960 . S
H248 C232 0.931 . S
H249 C237 0.929 . S
H250 C238 0.960 . S
H251 C238 0.962 . S
H252 C238 0.960 . S
H253 C239 0.961 . S
H254 C239 0.961 . S
H255 C239 0.961 . S
H256 C240 0.931 . S
H257 C245 0.930 . S
H258 C246 0.956 . S
H259 C246 0.961 . S
H260 C246 0.961 . S
H261 C247 0.958 . S
H262 C247 0.961 . S
H263 C247 0.960 . S
C264 C265 1.391 . S
C264 C266 1.394 . S
C264 H280 0.931 . S
C265 C264 1.391 . S
C265 C269 1.376 . S
C266 C264 1.394 . S
C266 C267 1.369 . S
C266 C270 1.531 . S
C267 C266 1.369 . S
C267 C268 1.410 . S
C267 C275 1.503 . S
C268 C267 1.410 . S
C268 C269 1.392 . S
C268 C271 1.511 . S
C269 C265 1.376 . S
C269 C268 1.392 . S
C269 H281 0.929 . S
C270 C266 1.531 . S
C270 H282 0.960 . S
C270 H283 0.962 . S
C270 H284 0.960 . S
C271 C268 1.511 . S
C271 H285 0.961 . S
C271 H286 0.961 . S
C271 H287 0.961 . S
C272 C273 1.370 . S
C272 C274 1.363 . S
C272 H288 0.931 . S
C273 C272 1.370 . S
C273 C277 1.408 . S
C274 C272 1.363 . S
C274 C275 1.370 . S
C274 C278 1.524 . S
C275 C267 1.503 . S
C275 C274 1.370 . S
C275 C276 1.403 . S
C276 C275 1.403 . S
C276 C277 1.404 . S
C276 C279 1.539 . S
C277 C273 1.408 . S
C277 C276 1.404 . S
C277 H289 0.930 . S
C278 C274 1.524 . S
C278 H290 0.956 . S
C278 H291 0.961 . S
C278 H292 0.961 . S
C279 C276 1.539 . S
C279 H293 0.958 . S
C279 H294 0.961 . S
C279 H295 0.960 . S
H280 C264 0.931 . S
H281 C269 0.929 . S
H282 C270 0.960 . S
H283 C270 0.962 . S
H284 C270 0.960 . S
H285 C271 0.961 . S
H286 C271 0.961 . S
H287 C271 0.961 . S
H288 C272 0.931 . S
H289 C277 0.930 . S
H290 C278 0.956 . S
H291 C278 0.961 . S
H292 C278 0.961 . S
H293 C279 0.958 . S
H294 C279 0.961 . S
H295 C279 0.960 . S
C296 C297 1.391 . S
C296 C298 1.394 . S
C296 H312 0.931 . S
C297 C296 1.391 . S
C297 C301 1.376 . S
C298 C296 1.394 . S
C298 C299 1.369 . S
C298 C302 1.531 . S
C299 C298 1.369 . S
C299 C300 1.410 . S
C299 C307 1.503 . S
C300 C299 1.410 . S
C300 C301 1.392 . S
C300 C303 1.511 . S
C301 C297 1.376 . S
C301 C300 1.392 . S
C301 H313 0.929 . S
C302 C298 1.531 . S
C302 H314 0.960 . S
C302 H315 0.962 . S
C302 H316 0.960 . S
C303 C300 1.511 . S
C303 H317 0.961 . S
C303 H318 0.961 . S
C303 H319 0.961 . S
C304 C305 1.370 . S
C304 C306 1.363 . S
C304 H320 0.931 . S
C305 C304 1.370 . S
C305 C309 1.408 . S
C306 C304 1.363 . S
C306 C307 1.370 . S
C306 C310 1.524 . S
C307 C299 1.503 . S
C307 C306 1.370 . S
C307 C308 1.403 . S
C308 C307 1.403 . S
C308 C309 1.404 . S
C308 C311 1.539 . S
C309 C305 1.408 . S
C309 C308 1.404 . S
C309 H321 0.930 . S
C310 C306 1.524 . S
C310 H322 0.956 . S
C310 H323 0.961 . S
C310 H324 0.961 . S
C311 C308 1.539 . S
C311 H325 0.958 . S
C311 H326 0.961 . S
C311 H327 0.960 . S
H312 C296 0.931 . S
H313 C301 0.929 . S
H314 C302 0.960 . S
H315 C302 0.962 . S
H316 C302 0.960 . S
H317 C303 0.961 . S
H318 C303 0.961 . S
H319 C303 0.961 . S
H320 C304 0.931 . S
H321 C309 0.930 . S
H322 C310 0.956 . S
H323 C310 0.961 . S
H324 C310 0.961 . S
H325 C311 0.958 . S
H326 C311 0.961 . S
H327 C311 0.960 . S
C328 C329 1.391 . S
C328 C330 1.394 . S
C328 H344 0.931 . S
C329 C328 1.391 . S
C329 C333 1.376 . S
C330 C328 1.394 . S
C330 C331 1.369 . S
C330 C334 1.531 . S
C331 C330 1.369 . S
C331 C332 1.410 . S
C331 C339 1.503 . S
C332 C331 1.410 . S
C332 C333 1.392 . S
C332 C335 1.511 . S
C333 C329 1.376 . S
C333 C332 1.392 . S
C333 H345 0.929 . S
C334 C330 1.531 . S
C334 H346 0.960 . S
C334 H347 0.962 . S
C334 H348 0.960 . S
C335 C332 1.511 . S
C335 H349 0.961 . S
C335 H350 0.961 . S
C335 H351 0.961 . S
C336 C337 1.370 . S
C336 C338 1.363 . S
C336 H352 0.931 . S
C337 C336 1.370 . S
C337 C341 1.408 . S
C338 C336 1.363 . S
C338 C339 1.370 . S
C338 C342 1.524 . S
C339 C331 1.503 . S
C339 C338 1.370 . S
C339 C340 1.403 . S
C340 C339 1.403 . S
C340 C341 1.404 . S
C340 C343 1.539 . S
C341 C337 1.408 . S
C341 C340 1.404 . S
C341 H353 0.930 . S
C342 C338 1.524 . S
C342 H354 0.956 . S
C342 H355 0.961 . S
C342 H356 0.961 . S
C343 C340 1.539 . S
C343 H357 0.958 . S
C343 H358 0.961 . S
C343 H359 0.960 . S
H344 C328 0.931 . S
H345 C333 0.929 . S
H346 C334 0.960 . S
H347 C334 0.962 . S
H348 C334 0.960 . S
H349 C335 0.961 . S
H350 C335 0.961 . S
H351 C335 0.961 . S
H352 C336 0.931 . S
H353 C341 0.930 . S
H354 C342 0.956 . S
H355 C342 0.961 . S
H356 C342 0.961 . S
H357 C343 0.958 . S
H358 C343 0.961 . S
H359 C343 0.960 . S
C360 C361 1.391 . S
C360 C362 1.394 . S
C360 H376 0.931 . S
C361 C360 1.391 . S
C361 C365 1.376 . S
C362 C360 1.394 . S
C362 C363 1.369 . S
C362 C366 1.531 . S
C363 C362 1.369 . S
C363 C364 1.410 . S
C363 C371 1.507 . S
C364 C363 1.410 . S
C364 C365 1.392 . S
C364 C367 1.511 . S
C365 C361 1.376 . S
C365 C364 1.392 . S
C365 H377 0.929 . S
C366 C362 1.531 . S
C366 H378 0.960 . S
C366 H379 0.962 1_565 S
C366 H380 0.960 . S
C367 C364 1.511 . S
C367 H381 0.961 1_565 S
C367 H382 0.961 1_565 S
C367 H383 0.961 . S
C368 C369 1.370 . S
C368 C370 1.363 . S
C368 H384 0.931 . S
C369 C368 1.370 . S
C369 C373 1.408 1_545 S
C370 C368 1.363 . S
C370 C371 1.361 1_545 S
C370 C374 1.524 . S
C371 C363 1.507 . S
C371 C370 1.361 1_565 S
C371 C372 1.409 . S
C372 C371 1.409 . S
C372 C373 1.404 . S
C372 C375 1.539 . S
C373 C369 1.408 1_565 S
C373 C372 1.404 . S
C373 H385 0.930 . S
C374 C370 1.524 . S
C374 H386 0.956 . S
C374 H387 0.961 . S
C374 H388 0.961 . S
C375 C372 1.539 . S
C375 H389 0.958 . S
C375 H390 0.961 . S
C375 H391 0.960 . S
H376 C360 0.931 . S
H377 C365 0.929 . S
H378 C366 0.960 . S
H379 C366 0.962 1_545 S
H380 C366 0.960 . S
H381 C367 0.961 1_545 S
H382 C367 0.961 1_545 S
H383 C367 0.961 . S
H384 C368 0.931 . S
H385 C373 0.930 . S
H386 C374 0.956 . S
H387 C374 0.961 . S
H388 C374 0.961 . S
H389 C375 0.958 . S
H390 C375 0.961 . S
H391 C375 0.960 . S
C392 C393 1.391 . S
C392 C394 1.394 . S
C392 H408 0.931 . S
C393 C392 1.391 . S
C393 C397 1.376 . S
C394 C392 1.394 . S
C394 C395 1.369 . S
C394 C398 1.531 . S
C395 C394 1.369 . S
C395 C396 1.410 . S
C395 C403 1.507 . S
C396 C395 1.410 . S
C396 C397 1.392 . S
C396 C399 1.511 . S
C397 C393 1.376 . S
C397 C396 1.392 . S
C397 H409 0.929 . S
C398 C394 1.531 . S
C398 H410 0.960 . S
C398 H411 0.962 1_565 S
C398 H412 0.960 . S
C399 C396 1.511 . S
C399 H413 0.961 . S
C399 H414 0.955 1_565 S
C399 H415 0.961 . S
C400 C401 1.370 . S
C400 C402 1.363 . S
C400 H416 0.931 . S
C401 C400 1.370 . S
C401 C405 1.408 1_545 S
C402 C400 1.363 . S
C402 C403 1.361 1_545 S
C402 C406 1.524 . S
C403 C395 1.507 . S
C403 C402 1.361 1_565 S
C403 C404 1.409 . S
C404 C403 1.409 . S
C404 C405 1.404 . S
C404 C407 1.539 . S
C405 C401 1.408 1_565 S
C405 C404 1.404 . S
C405 H417 0.930 . S
C406 C402 1.524 . S
C406 H418 0.956 . S
C406 H419 0.961 . S
C406 H420 0.961 . S
C407 C404 1.539 . S
C407 H421 0.958 . S
C407 H422 0.961 . S
C407 H423 0.960 . S
H408 C392 0.931 . S
H409 C397 0.929 . S
H410 C398 0.960 . S
H411 C398 0.962 1_545 S
H412 C398 0.960 . S
H413 C399 0.961 . S
H414 C399 0.955 1_545 S
H415 C399 0.961 . S
H416 C400 0.931 . S
H417 C405 0.930 . S
H418 C406 0.956 . S
H419 C406 0.961 . S
H420 C406 0.961 . S
H421 C407 0.958 . S
H422 C407 0.961 . S
H423 C407 0.960 . S
C424 C425 1.391 . S
C424 C426 1.394 . S
C424 H440 0.931 . S
C425 C424 1.391 . S
C425 C429 1.376 . S
C426 C424 1.394 . S
C426 C427 1.369 1_565 S
C426 C430 1.531 . S
C427 C426 1.369 1_545 S
C427 C428 1.410 1_545 S
C427 C435 1.503 . S
C428 C427 1.410 1_565 S
C428 C429 1.392 . S
C428 C431 1.511 1_565 S
C429 C425 1.376 . S
C429 C428 1.392 . S
C429 H441 0.929 . S
C430 C426 1.531 . S
C430 H442 0.960 1_565 S
C430 H443 0.962 . S
C430 H444 0.960 1_565 S
C431 C428 1.511 1_545 S
C431 H445 0.961 1_545 S
C431 H446 0.961 . S
C431 H447 0.961 . S
C432 C433 1.370 1_565 S
C432 C434 1.363 . S
C432 H448 0.931 . S
C433 C432 1.370 1_545 S
C433 C437 1.408 . S
C434 C432 1.363 . S
C434 C435 1.370 1_565 S
C434 C438 1.524 . S
C435 C427 1.503 . S
C435 C434 1.370 1_545 S
C435 C436 1.403 . S
C436 C435 1.403 . S
C436 C437 1.404 . S
C436 C439 1.539 . S
C437 C433 1.408 . S
C437 C436 1.404 . S
C437 H449 0.930 . S
C438 C434 1.524 . S
C438 H450 0.956 . S
C438 H451 0.961 . S
C438 H452 0.961 . S
C439 C436 1.539 . S
C439 H453 0.958 . S
C439 H454 0.961 . S
C439 H455 0.960 . S
H440 C424 0.931 . S
H441 C429 0.929 . S
H442 C430 0.960 1_545 S
H443 C430 0.962 . S
H444 C430 0.960 1_545 S
H445 C431 0.961 1_565 S
H446 C431 0.961 . S
H447 C431 0.961 . S
H448 C432 0.931 . S
H449 C437 0.930 . S
H450 C438 0.956 . S
H451 C438 0.961 . S
H452 C438 0.961 . S
H453 C439 0.958 . S
H454 C439 0.961 . S
H455 C439 0.960 . S
C456 C457 1.391 . S
C456 C458 1.394 . S
C456 H472 0.931 . S
C457 C456 1.391 . S
C457 C461 1.376 . S
C458 C456 1.394 . S
C458 C459 1.369 . S
C458 C462 1.531 . S
C459 C458 1.369 . S
C459 C460 1.410 . S
C459 C467 1.503 1_565 S
C460 C459 1.410 . S
C460 C461 1.392 . S
C460 C463 1.511 1_565 S
C461 C457 1.376 . S
C461 C460 1.392 . S
C461 H473 0.929 . S
C462 C458 1.531 . S
C462 H474 0.960 . S
C462 H475 0.962 . S
C462 H476 0.960 . S
C463 C460 1.511 1_545 S
C463 H477 0.961 . S
C463 H478 0.961 . S
C463 H479 0.961 . S
C464 C465 1.370 . S
C464 C466 1.363 . S
C464 H480 0.931 . S
C465 C464 1.370 . S
C465 C469 1.408 1_545 S
C466 C464 1.363 . S
C466 C467 1.370 . S
C466 C470 1.524 . S
C467 C459 1.503 1_545 S
C467 C466 1.370 . S
C467 C468 1.403 1_545 S
C468 C467 1.403 1_565 S
C468 C469 1.404 . S
C468 C471 1.539 . S
C469 C465 1.408 1_565 S
C469 C468 1.404 . S
C469 H481 0.930 . S
C470 C466 1.524 . S
C470 H482 0.956 . S
C470 H483 0.961 . S
C470 H484 0.961 . S
C471 C468 1.539 . S
C471 H485 0.958 . S
C471 H486 0.961 . S
C471 H487 0.960 . S
H472 C456 0.931 . S
H473 C461 0.929 . S
H474 C462 0.960 . S
H475 C462 0.962 . S
H476 C462 0.960 . S
H477 C463 0.961 . S
H478 C463 0.961 . S
H479 C463 0.961 . S
H480 C464 0.931 . S
H481 C469 0.930 . S
H482 C470 0.956 . S
H483 C470 0.961 . S
H484 C470 0.961 . S
H485 C471 0.958 . S
H486 C471 0.961 . S
H487 C471 0.960 . S
C488 C489 1.393 . S
C488 C490 1.395 . S
C488 H504 0.928 1_556 S
C489 C488 1.393 . S
C489 C493 1.376 . S
C490 C488 1.395 . S
C490 C491 1.369 . S
C490 C494 1.531 1_556 S
C491 C490 1.369 . S
C491 C492 1.410 1_565 S
C491 C499 1.503 1_565 S
C492 C491 1.410 1_545 S
C492 C493 1.392 1_545 S
C492 C495 1.511 . S
C493 C489 1.376 . S
C493 C492 1.392 1_565 S
C493 H505 0.929 . S
C494 C490 1.531 1_554 S
C494 H506 0.960 1_554 S
C494 H507 0.962 . S
C494 H508 0.960 1_554 S
C495 C492 1.511 . S
C495 H509 0.961 . S
C495 H510 0.961 . S
C495 H511 0.961 . S
C496 C497 1.370 1_554 S
C496 C498 1.363 . S
C496 H512 0.931 . S
C497 C496 1.370 1_556 S
C497 C501 1.408 . S
C498 C496 1.363 . S
C498 C499 1.370 1_554 S
C498 C502 1.524 . S
C499 C491 1.503 1_545 S
C499 C498 1.370 1_556 S
C499 C500 1.403 . S
C500 C499 1.403 . S
C500 C501 1.404 . S
C500 C503 1.539 . S
C501 C497 1.408 . S
C501 C500 1.404 . S
C501 H513 0.930 . S
C502 C498 1.524 . S
C502 H514 0.956 1_545 S
C502 H515 0.961 . S
C502 H516 0.961 . S
C503 C500 1.539 . S
C503 H517 0.958 1_545 S
C503 H518 0.961 . S
C503 H519 0.960 . S
H504 C488 0.928 1_554 S
H505 C493 0.929 . S
H506 C494 0.960 1_556 S
H507 C494 0.962 . S
H508 C494 0.960 1_556 S
H509 C495 0.961 . S
H510 C495 0.961 . S
H511 C495 0.961 . S
H512 C496 0.931 . S
H513 C501 0.930 . S
H514 C502 0.956 1_565 S
H515 C502 0.961 . S
H516 C502 0.961 . S
H517 C503 0.958 1_565 S
H518 C503 0.961 . S
H519 C503 0.960 . S
C520 C521 1.391 . S
C520 C522 1.394 1_565 S
C520 H536 0.931 . S
C521 C520 1.391 . S
C521 C525 1.376 . S
C522 C520 1.394 1_545 S
C522 C523 1.369 1_545 S
C522 C526 1.531 . S
C523 C522 1.369 1_565 S
C523 C524 1.410 . S
C523 C531 1.503 1_565 S
C524 C523 1.410 . S
C524 C525 1.392 . S
C524 C527 1.511 . S
C525 C521 1.376 . S
C525 C524 1.392 . S
C525 H537 0.929 . S
C526 C522 1.531 . S
C526 H538 0.960 . S
C526 H539 0.962 . S
C526 H540 0.960 . S
C527 C524 1.511 . S
C527 H541 0.961 . S
C527 H542 0.961 . S
C527 H543 0.961 . S
C528 C529 1.370 . S
C528 C530 1.363 . S
C528 H544 0.931 . S
C529 C528 1.370 . S
C529 C533 1.408 . S
C530 C528 1.363 . S
C530 C531 1.370 . S
C530 C534 1.524 . S
C531 C523 1.503 1_545 S
C531 C530 1.370 . S
C531 C532 1.403 . S
C532 C531 1.403 . S
C532 C533 1.404 . S
C532 C535 1.539 . S
C533 C529 1.408 . S
C533 C532 1.404 . S
C533 H545 0.930 . S
C534 C530 1.524 . S
C534 H546 0.956 . S
C534 H547 0.961 1_545 S
C534 H548 0.961 . S
C535 C532 1.539 . S
C535 H549 0.958 . S
C535 H550 0.961 . S
C535 H551 0.960 1_545 S
H536 C520 0.931 . S
H537 C525 0.929 . S
H538 C526 0.960 . S
H539 C526 0.962 . S
H540 C526 0.960 . S
H541 C527 0.961 . S
H542 C527 0.961 . S
H543 C527 0.961 . S
H544 C528 0.931 . S
H545 C533 0.930 . S
H546 C534 0.956 . S
H547 C534 0.961 1_565 S
H548 C534 0.961 . S
H549 C535 0.958 . S
H550 C535 0.961 . S
H551 C535 0.960 1_565 S
C552 C553 1.391 1_556 S
C552 C554 1.394 . S
C552 H568 0.931 . S
C553 C552 1.391 1_554 S
C553 C557 1.376 . S
C554 C552 1.394 . S
C554 C555 1.369 1_556 S
C554 C558 1.531 . S
C555 C554 1.369 1_554 S
C555 C556 1.410 . S
C555 C563 1.503 1_455 S
C556 C555 1.410 . S
C556 C557 1.392 . S
C556 C559 1.511 1_455 S
C557 C553 1.376 . S
C557 C556 1.392 . S
C557 H569 0.929 . S
C558 C554 1.531 . S
C558 H570 0.963 . S
C558 H571 0.962 . S
C558 H572 0.960 . S
C559 C556 1.511 1_655 S
C559 H573 0.961 . S
C559 H574 0.961 . S
C559 H575 0.961 . S
C560 C561 1.370 1_556 S
C560 C562 1.363 . S
C560 H576 0.931 . S
C561 C560 1.370 1_554 S
C561 C565 1.408 . S
C562 C560 1.363 . S
C562 C563 1.370 1_556 S
C562 C566 1.524 . S
C563 C555 1.503 1_655 S
C563 C562 1.370 1_554 S
C563 C564 1.403 . S
C564 C563 1.403 . S
C564 C565 1.404 . S
C564 C567 1.539 . S
C565 C561 1.408 . S
C565 C564 1.404 . S
C565 H577 0.930 . S
C566 C562 1.524 . S
C566 H578 0.977 . S
C566 H579 0.961 . S
C566 H580 0.961 . S
C567 C564 1.539 . S
C567 H581 0.958 1_655 S
C567 H582 0.961 . S
C567 H583 0.960 1_655 S
H568 C552 0.931 . S
H569 C557 0.929 . S
H570 C558 0.963 . S
H571 C558 0.962 . S
H572 C558 0.960 . S
H573 C559 0.961 . S
H574 C559 0.961 . S
H575 C559 0.961 . S
H576 C560 0.931 . S
H577 C565 0.930 . S
H578 C566 0.977 . S
H579 C566 0.961 . S
H580 C566 0.961 . S
H581 C567 0.958 1_455 S
H582 C567 0.961 . S
H583 C567 0.960 1_455 S
C584 C585 1.391 . S
C584 C586 1.394 . S
C584 H600 0.931 . S
C585 C584 1.391 . S
C585 C589 1.376 . S
C586 C584 1.394 . S
C586 C587 1.369 . S
C586 C590 1.531 . S
C587 C586 1.369 . S
C587 C588 1.410 . S
C587 C595 1.503 1_455 S
C588 C587 1.410 . S
C588 C589 1.392 . S
C588 C591 1.511 1_455 S
C589 C585 1.376 . S
C589 C588 1.392 . S
C589 H601 0.929 . S
C590 C586 1.531 . S
C590 H602 0.960 . S
C590 H603 0.962 . S
C590 H604 0.960 . S
C591 C588 1.511 1_655 S
C591 H605 0.961 . S
C591 H606 0.961 . S
C591 H607 0.961 . S
C592 C593 1.370 . S
C592 C594 1.363 . S
C592 H608 0.931 . S
C593 C592 1.370 . S
C593 C597 1.408 . S
C594 C592 1.363 . S
C594 C595 1.370 . S
C594 C598 1.524 . S
C595 C587 1.503 1_655 S
C595 C594 1.370 . S
C595 C596 1.403 . S
C596 C595 1.403 . S
C596 C597 1.404 . S
C596 C599 1.539 . S
C597 C593 1.408 . S
C597 C596 1.404 . S
C597 H609 0.930 . S
C598 C594 1.524 . S
C598 H610 0.956 . S
C598 H611 0.961 . S
C598 H612 0.961 . S
C599 C596 1.539 . S
C599 H613 0.958 1_655 S
C599 H614 0.961 . S
C599 H615 0.960 1_655 S
H600 C584 0.931 . S
H601 C589 0.929 . S
H602 C590 0.960 . S
H603 C590 0.962 . S
H604 C590 0.960 . S
H605 C591 0.961 . S
H606 C591 0.961 . S
H607 C591 0.961 . S
H608 C592 0.931 . S
H609 C597 0.930 . S
H610 C598 0.956 . S
H611 C598 0.961 . S
H612 C598 0.961 . S
H613 C599 0.958 1_455 S
H614 C599 0.961 . S
H615 C599 0.960 1_455 S
C105 C70 1.513 . S
C113 C5 1.517 . S
C137 C55 1.514 . S
C145 C16 1.517 . S
C169 C94 1.504 . S
C177 C31 1.516 . S
C201 C83 1.515 . S
C209 C42 1.516 . S
C233 C3 1.410 . S
C241 C29 1.415 . S
C265 C18 1.421 . S
C273 C44 1.412 . S
C297 C17 1.452 . S
C305 C43 1.460 . S
C329 C10 1.453 . S
C337 C36 1.461 . S
C361 C57 1.403 . S
C369 C81 1.419 . S
C393 C96 1.403 . S
C401 C68 1.420 . S
C425 C95 1.458 . S
C433 C75 1.455 . S
C457 C56 1.454 . S
C465 C88 1.461 . S
C489 C23 1.514 . S
C497 C4 1.515 . S
C521 C30 1.508 . S
C529 C49 1.513 . S
C553 C62 1.507 1_554 S
C561 C69 1.513 1_554 S
C585 C82 1.507 . S
C593 C101 1.513 . S
