# Generated by pormake.
# Topology umc, (4)-cn, num edge types: 1
# Building blocks:
#     Node 0, Type 0, BuildingBlock: GALJAG_clean_sbu_0, # of connection points: 4
#     Node 1, Type 0, BuildingBlock: GALJAG_clean_sbu_0, # of connection points: 4
#     Node 2, Type 0, BuildingBlock: GALJAG_clean_sbu_0, # of connection points: 4
#     Node 3, Type 0, BuildingBlock: GALJAG_clean_sbu_0, # of connection points: 4
#     Node 4, Type 0, BuildingBlock: GALJAG_clean_sbu_0, # of connection points: 4
#     Node 5, Type 0, BuildingBlock: GALJAG_clean_sbu_0, # of connection points: 4
#     Node 6, Type 0, BuildingBlock: GALJAG_clean_sbu_0, # of connection points: 4
#     Node 7, Type 0, BuildingBlock: GALJAG_clean_sbu_0, # of connection points: 4
#     Node 8, Type 0, BuildingBlock: GALJAG_clean_sbu_0, # of connection points: 4
#     Node 9, Type 0, BuildingBlock: GALJAG_clean_sbu_0, # of connection points: 4
#     Node 10, Type 0, BuildingBlock: GALJAG_clean_sbu_0, # of connection points: 4
#     Node 11, Type 0, BuildingBlock: GALJAG_clean_sbu_0, # of connection points: 4
#     Node 12, Type 0, BuildingBlock: GALJAG_clean_sbu_0, # of connection points: 4
#     Node 13, Type 0, BuildingBlock: GALJAG_clean_sbu_0, # of connection points: 4
#     Node 14, Type 0, BuildingBlock: GALJAG_clean_sbu_0, # of connection points: 4
#     Node 15, Type 0, BuildingBlock: GALJAG_clean_sbu_0, # of connection points: 4
#     Edge 16, Type (0, 0), BuildingBlock: EYOCIG_clean_linker_4, # of connection points: 2
#     Edge 17, Type (0, 0), BuildingBlock: EYOCIG_clean_linker_4, # of connection points: 2
#     Edge 18, Type (0, 0), BuildingBlock: EYOCIG_clean_linker_4, # of connection points: 2
#     Edge 19, Type (0, 0), BuildingBlock: EYOCIG_clean_linker_4, # of connection points: 2
#     Edge 20, Type (0, 0), BuildingBlock: EYOCIG_clean_linker_4, # of connection points: 2
#     Edge 21, Type (0, 0), BuildingBlock: EYOCIG_clean_linker_4, # of connection points: 2
#     Edge 22, Type (0, 0), BuildingBlock: EYOCIG_clean_linker_4, # of connection points: 2
#     Edge 23, Type (0, 0), BuildingBlock: EYOCIG_clean_linker_4, # of connection points: 2
#     Edge 24, Type (0, 0), BuildingBlock: EYOCIG_clean_linker_4, # of connection points: 2
#     Edge 25, Type (0, 0), BuildingBlock: EYOCIG_clean_linker_4, # of connection points: 2
#     Edge 26, Type (0, 0), BuildingBlock: EYOCIG_clean_linker_4, # of connection points: 2
#     Edge 27, Type (0, 0), BuildingBlock: EYOCIG_clean_linker_4, # of connection points: 2
#     Edge 28, Type (0, 0), BuildingBlock: EYOCIG_clean_linker_4, # of connection points: 2
#     Edge 29, Type (0, 0), BuildingBlock: EYOCIG_clean_linker_4, # of connection points: 2
#     Edge 30, Type (0, 0), BuildingBlock: EYOCIG_clean_linker_4, # of connection points: 2
#     Edge 31, Type (0, 0), BuildingBlock: EYOCIG_clean_linker_4, # of connection points: 2
#     Edge 32, Type (0, 0), BuildingBlock: EYOCIG_clean_linker_4, # of connection points: 2
#     Edge 33, Type (0, 0), BuildingBlock: EYOCIG_clean_linker_4, # of connection points: 2
#     Edge 34, Type (0, 0), BuildingBlock: EYOCIG_clean_linker_4, # of connection points: 2
#     Edge 35, Type (0, 0), BuildingBlock: EYOCIG_clean_linker_4, # of connection points: 2
#     Edge 36, Type (0, 0), BuildingBlock: EYOCIG_clean_linker_4, # of connection points: 2
#     Edge 37, Type (0, 0), BuildingBlock: EYOCIG_clean_linker_4, # of connection points: 2
#     Edge 38, Type (0, 0), BuildingBlock: EYOCIG_clean_linker_4, # of connection points: 2
#     Edge 39, Type (0, 0), BuildingBlock: EYOCIG_clean_linker_4, # of connection points: 2
#     Edge 40, Type (0, 0), BuildingBlock: EYOCIG_clean_linker_4, # of connection points: 2
#     Edge 41, Type (0, 0), BuildingBlock: EYOCIG_clean_linker_4, # of connection points: 2
#     Edge 42, Type (0, 0), BuildingBlock: EYOCIG_clean_linker_4, # of connection points: 2
#     Edge 43, Type (0, 0), BuildingBlock: EYOCIG_clean_linker_4, # of connection points: 2
#     Edge 44, Type (0, 0), BuildingBlock: EYOCIG_clean_linker_4, # of connection points: 2
#     Edge 45, Type (0, 0), BuildingBlock: EYOCIG_clean_linker_4, # of connection points: 2
#     Edge 46, Type (0, 0), BuildingBlock: EYOCIG_clean_linker_4, # of connection points: 2
#     Edge 47, Type (0, 0), BuildingBlock: EYOCIG_clean_linker_4, # of connection points: 2
# Relax obj value: 0.064
# Max RMSD: 0.131
# Mean RMSD: 0.131
data_MOF--net-umc--node1-GALJAG_clean_sbu_0--edge1-EYOCIG_clean_linker_4
_symmetry_space_group_name_H-M    P1
_symmetry_Int_Tables_number       1
_symmetry_cell_setting            triclinic
loop_
_symmetry_equiv_pos_as_xyz
'x, y, z'
_cell_length_a     33.070058
_cell_length_b     30.264836
_cell_length_c     45.332911
_cell_angle_alpha  90.00778
_cell_angle_beta   89.994615
_cell_angle_gamma 89.981338
loop_
_atom_site_label
_atom_site_type_symbol
_atom_site_fract_x
_atom_site_fract_y
_atom_site_fract_z
_atom_type_partial_charge
In0 In 0.32828 0.06882 0.36435 0.0
O1 O 0.32973 0.1439 0.36099 0.0
O2 O 0.2721 0.11179 0.36092 0.0
C3 C 0.4054 0.04146 0.36202 0.0
C4 C 0.30958 0.05659 0.42121 0.0
C5 C 0.30813 0.03191 0.31291 0.0
O6 O 0.39584 0.08129 0.35728 0.0
O7 O 0.37664 0.0161 0.36882 0.0
O8 O 0.29689 0.01497 0.3371 0.0
O9 O 0.32797 0.06728 0.31482 0.0
C10 C 0.29166 0.14757 0.36035 0.0
O11 O 0.29194 0.03519 0.40097 0.0
O12 O 0.33702 0.08268 0.4129 0.0
In13 In 0.66787 0.92596 0.36446 0.0
O14 O 0.705 0.95919 0.40089 0.0
O15 O 0.65956 0.91227 0.41309 0.0
C16 C 0.68775 0.96107 0.31241 0.0
C17 C 0.70362 0.84675 0.36016 0.0
C18 C 0.59144 0.95557 0.36236 0.0
O19 O 0.69975 0.9784 0.33629 0.0
O20 O 0.66723 0.92624 0.31492 0.0
O21 O 0.59995 0.91533 0.35805 0.0
O22 O 0.62089 0.98024 0.36871 0.0
C23 C 0.68735 0.93802 0.42125 0.0
O24 O 0.66557 0.85081 0.36124 0.0
O25 O 0.72349 0.88233 0.36057 0.0
In26 In 0.32832 0.92569 0.12315 0.0
O27 O 0.32985 0.8506 0.12647 0.0
O28 O 0.27216 0.88268 0.1264 0.0
C29 C 0.40516 0.95385 0.12488 0.0
C30 C 0.3098 0.9385 0.06633 0.0
C31 C 0.30855 0.96109 0.17514 0.0
O32 O 0.39608 0.91382 0.12938 0.0
O33 O 0.37602 0.97908 0.11873 0.0
O34 O 0.29661 0.97837 0.15124 0.0
O35 O 0.32906 0.92624 0.17269 0.0
C36 C 0.29176 0.84691 0.12709 0.0
O37 O 0.29222 0.95988 0.08663 0.0
O38 O 0.33693 0.91197 0.07459 0.0
In39 In 0.66792 0.06866 0.12291 0.0
O40 O 0.66456 0.14376 0.12609 0.0
O41 O 0.72294 0.1133 0.12651 0.0
C42 C 0.59136 0.03944 0.12455 0.0
C43 C 0.68778 0.05657 0.06621 0.0
C44 C 0.68807 0.03229 0.17459 0.0
O45 O 0.60004 0.07947 0.12943 0.0
O46 O 0.62073 0.01476 0.11798 0.0
O47 O 0.69987 0.01551 0.15049 0.0
O48 O 0.66773 0.06731 0.1725 0.0
C49 C 0.70253 0.14852 0.12686 0.0
O50 O 0.70565 0.03582 0.08664 0.0
O51 O 0.65961 0.08192 0.07424 0.0
In52 In 0.66802 0.92617 0.62318 0.0
O53 O 0.70521 0.95904 0.58664 0.0
O54 O 0.65945 0.91248 0.57455 0.0
C55 C 0.68946 0.96226 0.67477 0.0
C56 C 0.70248 0.84618 0.62705 0.0
C57 C 0.59151 0.95572 0.62508 0.0
O58 O 0.70109 0.97881 0.65057 0.0
O59 O 0.66841 0.92774 0.67282 0.0
O60 O 0.60013 0.91568 0.62998 0.0
O61 O 0.62091 0.98027 0.61842 0.0
C62 C 0.68737 0.93801 0.56632 0.0
O63 O 0.66451 0.85105 0.62655 0.0
O64 O 0.72294 0.88133 0.62642 0.0
In65 In 0.3283 0.06904 0.62305 0.0
O66 O 0.32965 0.14413 0.62627 0.0
O67 O 0.27205 0.11192 0.62638 0.0
C68 C 0.40532 0.0414 0.62503 0.0
C69 C 0.30956 0.05665 0.56624 0.0
C70 C 0.30861 0.03267 0.67474 0.0
O71 O 0.39593 0.0813 0.62974 0.0
O72 O 0.37641 0.01609 0.61847 0.0
O73 O 0.29708 0.01554 0.65069 0.0
O74 O 0.32852 0.06797 0.67259 0.0
C75 C 0.29156 0.14774 0.62687 0.0
O76 O 0.29197 0.03524 0.58651 0.0
O77 O 0.33696 0.08282 0.57451 0.0
In78 In 0.66826 0.06844 0.86436 0.0
O79 O 0.66615 0.1436 0.8612 0.0
O80 O 0.72402 0.11194 0.86114 0.0
C81 C 0.59167 0.03912 0.86241 0.0
C82 C 0.68738 0.0565 0.92121 0.0
C83 C 0.68924 0.03322 0.81246 0.0
O84 O 0.60033 0.07924 0.85777 0.0
O85 O 0.62107 0.01442 0.86886 0.0
O86 O 0.70098 0.01618 0.83649 0.0
O87 O 0.66819 0.06773 0.81474 0.0
C88 C 0.70422 0.14757 0.86063 0.0
O89 O 0.70483 0.03495 0.90094 0.0
O90 O 0.65987 0.08256 0.91295 0.0
In91 In 0.32847 0.9257 0.86438 0.0
O92 O 0.29249 0.96011 0.90088 0.0
O93 O 0.33728 0.91231 0.91295 0.0
C94 C 0.30862 0.96135 0.81249 0.0
C95 C 0.29165 0.84703 0.86102 0.0
C96 C 0.40548 0.95337 0.86224 0.0
O97 O 0.297 0.97871 0.83646 0.0
O98 O 0.32871 0.92619 0.81484 0.0
O99 O 0.39613 0.91343 0.85768 0.0
O100 O 0.37654 0.97872 0.8687 0.0
C101 C 0.31011 0.93882 0.92119 0.0
O102 O 0.32974 0.85058 0.86148 0.0
O103 O 0.27216 0.88288 0.86144 0.0
In104 In 0.82768 0.56837 0.36447 0.0
O105 O 0.79033 0.53518 0.40083 0.0
O106 O 0.8357 0.58201 0.41318 0.0
C107 C 0.807 0.53184 0.31287 0.0
C108 C 0.79277 0.6481 0.35998 0.0
C109 C 0.90441 0.53944 0.36283 0.0
O110 O 0.79521 0.51536 0.33705 0.0
O111 O 0.82784 0.56652 0.31484 0.0
O112 O 0.89558 0.57945 0.35804 0.0
O113 O 0.87511 0.51462 0.36926 0.0
C114 C 0.80789 0.55623 0.42126 0.0
O115 O 0.83075 0.64351 0.36092 0.0
O116 O 0.77252 0.6128 0.36058 0.0
In117 In 0.16768 0.42586 0.36432 0.0
O118 O 0.16469 0.35078 0.36134 0.0
O119 O 0.22296 0.38143 0.36136 0.0
C120 C 0.09086 0.45428 0.36245 0.0
C121 C 0.18639 0.4396 0.42112 0.0
C122 C 0.18863 0.46085 0.31232 0.0
O123 O 0.0999 0.41424 0.35796 0.0
O124 O 0.12004 0.47944 0.36857 0.0
O125 O 0.20057 0.47785 0.3363 0.0
O126 O 0.16742 0.42652 0.31469 0.0
C127 C 0.20267 0.34615 0.36078 0.0
O128 O 0.20402 0.46048 0.40063 0.0
O129 O 0.15923 0.41301 0.41305 0.0
In130 In 0.82802 0.42596 0.12302 0.0
O131 O 0.82975 0.35077 0.12569 0.0
O132 O 0.77205 0.38278 0.12632 0.0
C133 C 0.9051 0.45363 0.12553 0.0
C134 C 0.80864 0.43885 0.06622 0.0
C135 C 0.80738 0.46098 0.17508 0.0
O136 O 0.89569 0.41365 0.12982 0.0
O137 O 0.87622 0.47904 0.11905 0.0
O138 O 0.79606 0.47858 0.15111 0.0
O139 O 0.82778 0.42604 0.17264 0.0
C140 C 0.79167 0.34703 0.12651 0.0
O141 O 0.79141 0.46023 0.08667 0.0
O142 O 0.83611 0.4126 0.07428 0.0
In143 In 0.16776 0.56859 0.12343 0.0
O144 O 0.2043 0.53549 0.08666 0.0
O145 O 0.15858 0.58231 0.07486 0.0
C146 C 0.18933 0.53201 0.17474 0.0
C147 C 0.20263 0.64835 0.12747 0.0
C148 C 0.09125 0.53922 0.12598 0.0
O149 O 0.20087 0.51565 0.15046 0.0
O150 O 0.1684 0.56667 0.173 0.0
O151 O 0.09998 0.57926 0.13077 0.0
O152 O 0.12051 0.51463 0.11904 0.0
C153 C 0.18622 0.55652 0.06645 0.0
O154 O 0.16464 0.64373 0.12688 0.0
O155 O 0.22293 0.61307 0.12679 0.0
In156 In 0.16757 0.42621 0.62314 0.0
O157 O 0.16448 0.35105 0.62595 0.0
O158 O 0.22277 0.38162 0.62633 0.0
C159 C 0.09093 0.45506 0.62596 0.0
C160 C 0.18611 0.43982 0.56631 0.0
C161 C 0.18842 0.46249 0.67469 0.0
O162 O 0.09987 0.41499 0.63046 0.0
O163 O 0.12003 0.47989 0.6191 0.0
O164 O 0.20002 0.47917 0.65052 0.0
O165 O 0.16797 0.42754 0.67272 0.0
C166 C 0.20245 0.34636 0.62665 0.0
O167 O 0.20423 0.46021 0.58678 0.0
O168 O 0.15848 0.41381 0.5744 0.0
In169 In 0.82783 0.56844 0.62318 0.0
O170 O 0.79125 0.53457 0.58669 0.0
O171 O 0.83619 0.58195 0.57445 0.0
C172 C 0.80675 0.53204 0.67474 0.0
C173 C 0.7917 0.64757 0.627 0.0
C174 C 0.90495 0.54083 0.6259 0.0
O175 O 0.7957 0.51507 0.65052 0.0
O176 O 0.82705 0.5671 0.67282 0.0
O177 O 0.89544 0.58072 0.63048 0.0
O178 O 0.87618 0.51554 0.61901 0.0
C179 C 0.80865 0.55587 0.5663 0.0
O180 O 0.82975 0.64365 0.62617 0.0
O181 O 0.77199 0.6119 0.6267 0.0
In182 In 0.16765 0.56889 0.86444 0.0
O183 O 0.16462 0.64395 0.86159 0.0
O184 O 0.22293 0.61321 0.86155 0.0
C185 C 0.09137 0.53907 0.86244 0.0
C186 C 0.18635 0.55625 0.92125 0.0
C187 C 0.18813 0.53423 0.81234 0.0
O188 O 0.09977 0.57927 0.85793 0.0
O189 O 0.1209 0.51448 0.86879 0.0
O190 O 0.20027 0.51703 0.83622 0.0
O191 O 0.16718 0.56876 0.81487 0.0
C192 C 0.20263 0.64852 0.86113 0.0
O193 O 0.20433 0.53531 0.90093 0.0
O194 O 0.15871 0.58216 0.91301 0.0
In195 In 0.82812 0.42585 0.8644 0.0
O196 O 0.79089 0.45958 0.9007 0.0
O197 O 0.83613 0.41267 0.91318 0.0
C198 C 0.80688 0.46137 0.81252 0.0
C199 C 0.79331 0.34607 0.86081 0.0
C200 C 0.90508 0.45386 0.86238 0.0
O201 O 0.79552 0.47852 0.83661 0.0
O202 O 0.82763 0.42666 0.81473 0.0
O203 O 0.8958 0.41396 0.85771 0.0
O204 O 0.87608 0.47911 0.86887 0.0
C205 C 0.80836 0.43855 0.92119 0.0
O206 O 0.83133 0.35056 0.86137 0.0
O207 O 0.77313 0.3814 0.86121 0.0
C208 C 0.29475 0.05122 0.47817 0.0
C209 C 0.29971 0.05186 0.45184 0.0
C210 C 0.29474 0.05122 0.50929 0.0
C211 C 0.29969 0.05186 0.53561 0.0
C212 C 0.70256 0.94315 0.50935 0.0
C213 C 0.69747 0.94259 0.53569 0.0
C214 C 0.70259 0.9432 0.47821 0.0
C215 C 0.69752 0.94268 0.45187 0.0
C216 C 0.29567 0.94482 0.00931 0.0
C217 C 0.30031 0.94379 0.03567 0.0
C218 C 0.29575 0.94491 0.97819 0.0
C219 C 0.30048 0.94399 0.95184 0.0
C220 C 0.70278 0.05139 0.97815 0.0
C221 C 0.69752 0.05195 0.95184 0.0
C222 C 0.70304 0.05133 0.00928 0.0
C223 C 0.69806 0.05185 0.03562 0.0
C224 C 0.79303 0.5505 0.50938 0.0
C225 C 0.79835 0.55113 0.53569 0.0
C226 C 0.79275 0.55056 0.47822 0.0
C227 C 0.79774 0.55128 0.45187 0.0
C228 C 0.20026 0.44688 0.50929 0.0
C229 C 0.19568 0.44549 0.53566 0.0
C230 C 0.20034 0.44688 0.47814 0.0
C231 C 0.19585 0.44547 0.45176 0.0
C232 C 0.79289 0.44411 0.97813 0.0
C233 C 0.79803 0.44345 0.95179 0.0
C234 C 0.79299 0.4442 0.0093 0.0
C235 C 0.79826 0.44365 0.03563 0.0
C236 C 0.20057 0.55072 0.00941 0.0
C237 C 0.19579 0.55164 0.03576 0.0
C238 C 0.2007 0.55054 0.97827 0.0
C239 C 0.19605 0.55128 0.95191 0.0
C240 C 0.51801 0.98931 0.35814 0.0
C241 C 0.5511 0.97273 0.35987 0.0
C242 C 0.47942 0.00933 0.35802 0.0
C243 C 0.44613 0.02543 0.35958 0.0
C244 C 0.47911 0.98629 0.12817 0.0
C245 C 0.44581 0.97019 0.12689 0.0
C246 C 0.51774 0.00615 0.12809 0.0
C247 C 0.55093 0.0225 0.12669 0.0
C248 C 0.51794 0.98924 0.62866 0.0
C249 C 0.5511 0.97279 0.62724 0.0
C250 C 0.47932 0.00916 0.62868 0.0
C251 C 0.44601 0.02525 0.62726 0.0
C252 C 0.51809 0.00564 0.85868 0.0
C253 C 0.55123 0.02213 0.86017 0.0
C254 C 0.47948 0.98565 0.85861 0.0
C255 C 0.44619 0.96952 0.86002 0.0
C256 C 0.97818 0.50643 0.35938 0.0
C257 C 0.94493 0.52267 0.36074 0.0
C258 C 0.01687 0.48668 0.35929 0.0
C259 C 0.05021 0.47064 0.36052 0.0
C260 C 0.01773 0.5057 0.13004 0.0
C261 C 0.05085 0.52221 0.12841 0.0
C262 C 0.9791 0.48576 0.12993 0.0
C263 C 0.9458 0.46973 0.12816 0.0
C264 C 0.97885 0.50849 0.63045 0.0
C265 C 0.94562 0.52468 0.62864 0.0
C266 C 0.01741 0.48838 0.63046 0.0
C267 C 0.0505 0.47185 0.62865 0.0
C268 C 0.01787 0.50551 0.85881 0.0
C269 C 0.05103 0.52191 0.86028 0.0
C270 C 0.97917 0.48583 0.85878 0.0
C271 C 0.94578 0.46999 0.8602 0.0
C272 C 0.23721 0.2675 0.36032 0.0
C273 C 0.22161 0.3035 0.36053 0.0
C274 C 0.25561 0.22541 0.3602 0.0
C275 C 0.2718 0.18973 0.36027 0.0
C276 C 0.7392 0.76861 0.35921 0.0
C277 C 0.72317 0.8044 0.35964 0.0
C278 C 0.75782 0.72659 0.35916 0.0
C279 C 0.7737 0.69072 0.35953 0.0
C280 C 0.23721 0.72701 0.12785 0.0
C281 C 0.22161 0.69101 0.12768 0.0
C282 C 0.25571 0.76907 0.12776 0.0
C283 C 0.27194 0.80473 0.12746 0.0
C284 C 0.73705 0.22719 0.12682 0.0
C285 C 0.72138 0.19123 0.12684 0.0
C286 C 0.75562 0.2692 0.12671 0.0
C287 C 0.77185 0.30486 0.12662 0.0
C288 C 0.73702 0.76747 0.62721 0.0
C289 C 0.7213 0.80342 0.62714 0.0
C290 C 0.75568 0.72548 0.6272 0.0
C291 C 0.77198 0.68983 0.62711 0.0
C292 C 0.23697 0.26764 0.6268 0.0
C293 C 0.22137 0.30366 0.62673 0.0
C294 C 0.25541 0.22555 0.62686 0.0
C295 C 0.27164 0.18988 0.62686 0.0
C296 C 0.74033 0.22539 0.86047 0.0
C297 C 0.72389 0.18984 0.86054 0.0
C298 C 0.75903 0.26732 0.86066 0.0
C299 C 0.77413 0.30356 0.86073 0.0
C300 C 0.23718 0.72714 0.86127 0.0
C301 C 0.22159 0.69115 0.8612 0.0
C302 C 0.25553 0.76925 0.86125 0.0
C303 C 0.27171 0.80493 0.86114 0.0
C304 C 0.29766 0.00102 0.25936 0.0
C305 C 0.30067 0.01222 0.28474 0.0
C306 C 0.29779 0.99045 0.22908 0.0
C307 C 0.30096 0.97979 0.20361 0.0
C308 C 0.69833 0.00139 0.2282 0.0
C309 C 0.69542 0.01271 0.20283 0.0
C310 C 0.69823 0.99057 0.25845 0.0
C311 C 0.69516 0.97978 0.28392 0.0
C312 C 0.70128 0.00366 0.75863 0.0
C313 C 0.69754 0.0145 0.78406 0.0
C314 C 0.70138 0.99275 0.72836 0.0
C315 C 0.69777 0.98159 0.70299 0.0
C316 C 0.2984 0.99138 0.75867 0.0
C317 C 0.30136 0.98043 0.7841 0.0
C318 C 0.29841 0.00212 0.72843 0.0
C319 C 0.30135 0.01327 0.70303 0.0
C320 C 0.79576 0.49024 0.22903 0.0
C321 C 0.79939 0.47955 0.20356 0.0
C322 C 0.79561 0.5011 0.2593 0.0
C323 C 0.79899 0.51237 0.28466 0.0
C324 C 0.20065 0.49012 0.25844 0.0
C325 C 0.19693 0.4794 0.28388 0.0
C326 C 0.20089 0.50098 0.22819 0.0
C327 C 0.19748 0.51231 0.20284 0.0
C328 C 0.19892 0.5047 0.75841 0.0
C329 C 0.19573 0.51556 0.78385 0.0
C330 C 0.199 0.49368 0.72819 0.0
C331 C 0.19594 0.4822 0.70286 0.0
C332 C 0.79493 0.50163 0.72837 0.0
C333 C 0.79856 0.5127 0.70298 0.0
C334 C 0.79493 0.49091 0.75867 0.0
C335 C 0.79861 0.48018 0.78413 0.0
loop_
_geom_bond_atom_site_label_1
_geom_bond_atom_site_label_2
_geom_bond_distance
_geom_bond_site_symmetry_2
_ccdc_geom_bond_type
In0 O1 2.294 . S
In0 O2 2.326 . S
In0 O6 2.266 . S
In0 O7 2.326 . S
In0 O8 2.266 . S
In0 O9 2.326 . S
In0 O11 2.294 . S
In0 O12 2.326 . S
O1 In0 2.294 . S
O1 C10 1.240 . S
O2 In0 2.326 . S
O2 C10 1.252 . S
C3 O6 1.252 . S
C3 O7 1.260 . S
C4 O11 1.240 . S
C4 O12 1.252 . S
C5 O8 1.252 . S
C5 O9 1.260 . S
O6 In0 2.266 . S
O6 C3 1.252 . S
O7 In0 2.326 . S
O7 C3 1.260 . S
O8 In0 2.266 . S
O8 C5 1.252 . S
O9 In0 2.326 . S
O9 C5 1.260 . S
C10 O1 1.240 . S
C10 O2 1.252 . S
O11 In0 2.294 . S
O11 C4 1.240 . S
O12 In0 2.326 . S
O12 C4 1.252 . S
In13 O14 2.294 . S
In13 O15 2.326 . S
In13 O19 2.266 . S
In13 O20 2.326 . S
In13 O21 2.266 . S
In13 O22 2.326 . S
In13 O24 2.294 . S
In13 O25 2.326 . S
O14 In13 2.294 . S
O14 C23 1.240 . S
O15 In13 2.326 . S
O15 C23 1.252 . S
C16 O19 1.252 . S
C16 O20 1.260 . S
C17 O24 1.240 . S
C17 O25 1.252 . S
C18 O21 1.252 . S
C18 O22 1.260 . S
O19 In13 2.266 . S
O19 C16 1.252 . S
O20 In13 2.326 . S
O20 C16 1.260 . S
O21 In13 2.266 . S
O21 C18 1.252 . S
O22 In13 2.326 . S
O22 C18 1.260 . S
C23 O14 1.240 . S
C23 O15 1.252 . S
O24 In13 2.294 . S
O24 C17 1.240 . S
O25 In13 2.326 . S
O25 C17 1.252 . S
In26 O27 2.294 . S
In26 O28 2.326 . S
In26 O32 2.266 . S
In26 O33 2.326 . S
In26 O34 2.266 . S
In26 O35 2.326 . S
In26 O37 2.294 . S
In26 O38 2.326 . S
O27 In26 2.294 . S
O27 C36 1.240 . S
O28 In26 2.326 . S
O28 C36 1.252 . S
C29 O32 1.252 . S
C29 O33 1.260 . S
C30 O37 1.240 . S
C30 O38 1.252 . S
C31 O34 1.252 . S
C31 O35 1.260 . S
O32 In26 2.266 . S
O32 C29 1.252 . S
O33 In26 2.326 . S
O33 C29 1.260 . S
O34 In26 2.266 . S
O34 C31 1.252 . S
O35 In26 2.326 . S
O35 C31 1.260 . S
C36 O27 1.240 . S
C36 O28 1.252 . S
O37 In26 2.294 . S
O37 C30 1.240 . S
O38 In26 2.326 . S
O38 C30 1.252 . S
In39 O40 2.294 . S
In39 O41 2.326 . S
In39 O45 2.266 . S
In39 O46 2.326 . S
In39 O47 2.266 . S
In39 O48 2.326 . S
In39 O50 2.294 . S
In39 O51 2.326 . S
O40 In39 2.294 . S
O40 C49 1.240 . S
O41 In39 2.326 . S
O41 C49 1.252 . S
C42 O45 1.252 . S
C42 O46 1.260 . S
C43 O50 1.240 . S
C43 O51 1.252 . S
C44 O47 1.252 . S
C44 O48 1.260 . S
O45 In39 2.266 . S
O45 C42 1.252 . S
O46 In39 2.326 . S
O46 C42 1.260 . S
O47 In39 2.266 . S
O47 C44 1.252 . S
O48 In39 2.326 . S
O48 C44 1.260 . S
C49 O40 1.240 . S
C49 O41 1.252 . S
O50 In39 2.294 . S
O50 C43 1.240 . S
O51 In39 2.326 . S
O51 C43 1.252 . S
In52 O53 2.294 . S
In52 O54 2.326 . S
In52 O58 2.266 . S
In52 O59 2.326 . S
In52 O60 2.266 . S
In52 O61 2.326 . S
In52 O63 2.294 . S
In52 O64 2.326 . S
O53 In52 2.294 . S
O53 C62 1.240 . S
O54 In52 2.326 . S
O54 C62 1.252 . S
C55 O58 1.252 . S
C55 O59 1.260 . S
C56 O63 1.240 . S
C56 O64 1.252 . S
C57 O60 1.252 . S
C57 O61 1.260 . S
O58 In52 2.266 . S
O58 C55 1.252 . S
O59 In52 2.326 . S
O59 C55 1.260 . S
O60 In52 2.266 . S
O60 C57 1.252 . S
O61 In52 2.326 . S
O61 C57 1.260 . S
C62 O53 1.240 . S
C62 O54 1.252 . S
O63 In52 2.294 . S
O63 C56 1.240 . S
O64 In52 2.326 . S
O64 C56 1.252 . S
In65 O66 2.294 . S
In65 O67 2.326 . S
In65 O71 2.266 . S
In65 O72 2.326 . S
In65 O73 2.266 . S
In65 O74 2.326 . S
In65 O76 2.294 . S
In65 O77 2.326 . S
O66 In65 2.294 . S
O66 C75 1.240 . S
O67 In65 2.326 . S
O67 C75 1.252 . S
C68 O71 1.252 . S
C68 O72 1.260 . S
C69 O76 1.240 . S
C69 O77 1.252 . S
C70 O73 1.252 . S
C70 O74 1.260 . S
O71 In65 2.266 . S
O71 C68 1.252 . S
O72 In65 2.326 . S
O72 C68 1.260 . S
O73 In65 2.266 . S
O73 C70 1.252 . S
O74 In65 2.326 . S
O74 C70 1.260 . S
C75 O66 1.240 . S
C75 O67 1.252 . S
O76 In65 2.294 . S
O76 C69 1.240 . S
O77 In65 2.326 . S
O77 C69 1.252 . S
In78 O79 2.294 . S
In78 O80 2.326 . S
In78 O84 2.266 . S
In78 O85 2.326 . S
In78 O86 2.266 . S
In78 O87 2.326 . S
In78 O89 2.294 . S
In78 O90 2.326 . S
O79 In78 2.294 . S
O79 C88 1.240 . S
O80 In78 2.326 . S
O80 C88 1.252 . S
C81 O84 1.252 . S
C81 O85 1.260 . S
C82 O89 1.240 . S
C82 O90 1.252 . S
C83 O86 1.252 . S
C83 O87 1.260 . S
O84 In78 2.266 . S
O84 C81 1.252 . S
O85 In78 2.326 . S
O85 C81 1.260 . S
O86 In78 2.266 . S
O86 C83 1.252 . S
O87 In78 2.326 . S
O87 C83 1.260 . S
C88 O79 1.240 . S
C88 O80 1.252 . S
O89 In78 2.294 . S
O89 C82 1.240 . S
O90 In78 2.326 . S
O90 C82 1.252 . S
In91 O92 2.294 . S
In91 O93 2.326 . S
In91 O97 2.266 . S
In91 O98 2.326 . S
In91 O99 2.266 . S
In91 O100 2.326 . S
In91 O102 2.294 . S
In91 O103 2.326 . S
O92 In91 2.294 . S
O92 C101 1.240 . S
O93 In91 2.326 . S
O93 C101 1.252 . S
C94 O97 1.252 . S
C94 O98 1.260 . S
C95 O102 1.240 . S
C95 O103 1.252 . S
C96 O99 1.252 . S
C96 O100 1.260 . S
O97 In91 2.266 . S
O97 C94 1.252 . S
O98 In91 2.326 . S
O98 C94 1.260 . S
O99 In91 2.266 . S
O99 C96 1.252 . S
O100 In91 2.326 . S
O100 C96 1.260 . S
C101 O92 1.240 . S
C101 O93 1.252 . S
O102 In91 2.294 . S
O102 C95 1.240 . S
O103 In91 2.326 . S
O103 C95 1.252 . S
In104 O105 2.294 . S
In104 O106 2.326 . S
In104 O110 2.266 . S
In104 O111 2.326 . S
In104 O112 2.266 . S
In104 O113 2.326 . S
In104 O115 2.294 . S
In104 O116 2.326 . S
O105 In104 2.294 . S
O105 C114 1.240 . S
O106 In104 2.326 . S
O106 C114 1.252 . S
C107 O110 1.252 . S
C107 O111 1.260 . S
C108 O115 1.240 . S
C108 O116 1.252 . S
C109 O112 1.252 . S
C109 O113 1.260 . S
O110 In104 2.266 . S
O110 C107 1.252 . S
O111 In104 2.326 . S
O111 C107 1.260 . S
O112 In104 2.266 . S
O112 C109 1.252 . S
O113 In104 2.326 . S
O113 C109 1.260 . S
C114 O105 1.240 . S
C114 O106 1.252 . S
O115 In104 2.294 . S
O115 C108 1.240 . S
O116 In104 2.326 . S
O116 C108 1.252 . S
In117 O118 2.294 . S
In117 O119 2.326 . S
In117 O123 2.266 . S
In117 O124 2.326 . S
In117 O125 2.266 . S
In117 O126 2.326 . S
In117 O128 2.294 . S
In117 O129 2.326 . S
O118 In117 2.294 . S
O118 C127 1.240 . S
O119 In117 2.326 . S
O119 C127 1.252 . S
C120 O123 1.252 . S
C120 O124 1.260 . S
C121 O128 1.240 . S
C121 O129 1.252 . S
C122 O125 1.252 . S
C122 O126 1.260 . S
O123 In117 2.266 . S
O123 C120 1.252 . S
O124 In117 2.326 . S
O124 C120 1.260 . S
O125 In117 2.266 . S
O125 C122 1.252 . S
O126 In117 2.326 . S
O126 C122 1.260 . S
C127 O118 1.240 . S
C127 O119 1.252 . S
O128 In117 2.294 . S
O128 C121 1.240 . S
O129 In117 2.326 . S
O129 C121 1.252 . S
In130 O131 2.294 . S
In130 O132 2.326 . S
In130 O136 2.266 . S
In130 O137 2.326 . S
In130 O138 2.266 . S
In130 O139 2.326 . S
In130 O141 2.294 . S
In130 O142 2.326 . S
O131 In130 2.294 . S
O131 C140 1.240 . S
O132 In130 2.326 . S
O132 C140 1.252 . S
C133 O136 1.252 . S
C133 O137 1.260 . S
C134 O141 1.240 . S
C134 O142 1.252 . S
C135 O138 1.252 . S
C135 O139 1.260 . S
O136 In130 2.266 . S
O136 C133 1.252 . S
O137 In130 2.326 . S
O137 C133 1.260 . S
O138 In130 2.266 . S
O138 C135 1.252 . S
O139 In130 2.326 . S
O139 C135 1.260 . S
C140 O131 1.240 . S
C140 O132 1.252 . S
O141 In130 2.294 . S
O141 C134 1.240 . S
O142 In130 2.326 . S
O142 C134 1.252 . S
In143 O144 2.294 . S
In143 O145 2.326 . S
In143 O149 2.266 . S
In143 O150 2.326 . S
In143 O151 2.266 . S
In143 O152 2.326 . S
In143 O154 2.294 . S
In143 O155 2.326 . S
O144 In143 2.294 . S
O144 C153 1.240 . S
O145 In143 2.326 . S
O145 C153 1.252 . S
C146 O149 1.252 . S
C146 O150 1.260 . S
C147 O154 1.240 . S
C147 O155 1.252 . S
C148 O151 1.252 . S
C148 O152 1.260 . S
O149 In143 2.266 . S
O149 C146 1.252 . S
O150 In143 2.326 . S
O150 C146 1.260 . S
O151 In143 2.266 . S
O151 C148 1.252 . S
O152 In143 2.326 . S
O152 C148 1.260 . S
C153 O144 1.240 . S
C153 O145 1.252 . S
O154 In143 2.294 . S
O154 C147 1.240 . S
O155 In143 2.326 . S
O155 C147 1.252 . S
In156 O157 2.294 . S
In156 O158 2.326 . S
In156 O162 2.266 . S
In156 O163 2.326 . S
In156 O164 2.266 . S
In156 O165 2.326 . S
In156 O167 2.294 . S
In156 O168 2.326 . S
O157 In156 2.294 . S
O157 C166 1.240 . S
O158 In156 2.326 . S
O158 C166 1.252 . S
C159 O162 1.252 . S
C159 O163 1.260 . S
C160 O167 1.240 . S
C160 O168 1.252 . S
C161 O164 1.252 . S
C161 O165 1.260 . S
O162 In156 2.266 . S
O162 C159 1.252 . S
O163 In156 2.326 . S
O163 C159 1.260 . S
O164 In156 2.266 . S
O164 C161 1.252 . S
O165 In156 2.326 . S
O165 C161 1.260 . S
C166 O157 1.240 . S
C166 O158 1.252 . S
O167 In156 2.294 . S
O167 C160 1.240 . S
O168 In156 2.326 . S
O168 C160 1.252 . S
In169 O170 2.294 . S
In169 O171 2.326 . S
In169 O175 2.266 . S
In169 O176 2.326 . S
In169 O177 2.266 . S
In169 O178 2.326 . S
In169 O180 2.294 . S
In169 O181 2.326 . S
O170 In169 2.294 . S
O170 C179 1.240 . S
O171 In169 2.326 . S
O171 C179 1.252 . S
C172 O175 1.252 . S
C172 O176 1.260 . S
C173 O180 1.240 . S
C173 O181 1.252 . S
C174 O177 1.252 . S
C174 O178 1.260 . S
O175 In169 2.266 . S
O175 C172 1.252 . S
O176 In169 2.326 . S
O176 C172 1.260 . S
O177 In169 2.266 . S
O177 C174 1.252 . S
O178 In169 2.326 . S
O178 C174 1.260 . S
C179 O170 1.240 . S
C179 O171 1.252 . S
O180 In169 2.294 . S
O180 C173 1.240 . S
O181 In169 2.326 . S
O181 C173 1.252 . S
In182 O183 2.294 . S
In182 O184 2.326 . S
In182 O188 2.266 . S
In182 O189 2.326 . S
In182 O190 2.266 . S
In182 O191 2.326 . S
In182 O193 2.294 . S
In182 O194 2.326 . S
O183 In182 2.294 . S
O183 C192 1.240 . S
O184 In182 2.326 . S
O184 C192 1.252 . S
C185 O188 1.252 . S
C185 O189 1.260 . S
C186 O193 1.240 . S
C186 O194 1.252 . S
C187 O190 1.252 . S
C187 O191 1.260 . S
O188 In182 2.266 . S
O188 C185 1.252 . S
O189 In182 2.326 . S
O189 C185 1.260 . S
O190 In182 2.266 . S
O190 C187 1.252 . S
O191 In182 2.326 . S
O191 C187 1.260 . S
C192 O183 1.240 . S
C192 O184 1.252 . S
O193 In182 2.294 . S
O193 C186 1.240 . S
O194 In182 2.326 . S
O194 C186 1.252 . S
In195 O196 2.294 . S
In195 O197 2.326 . S
In195 O201 2.266 . S
In195 O202 2.326 . S
In195 O203 2.266 . S
In195 O204 2.326 . S
In195 O206 2.294 . S
In195 O207 2.326 . S
O196 In195 2.294 . S
O196 C205 1.240 . S
O197 In195 2.326 . S
O197 C205 1.252 . S
C198 O201 1.252 . S
C198 O202 1.260 . S
C199 O206 1.240 . S
C199 O207 1.252 . S
C200 O203 1.252 . S
C200 O204 1.260 . S
O201 In195 2.266 . S
O201 C198 1.252 . S
O202 In195 2.326 . S
O202 C198 1.260 . S
O203 In195 2.266 . S
O203 C200 1.252 . S
O204 In195 2.326 . S
O204 C200 1.260 . S
C205 O196 1.240 . S
C205 O197 1.252 . S
O206 In195 2.294 . S
O206 C199 1.240 . S
O207 In195 2.326 . S
O207 C199 1.252 . S
C208 C209 1.170 . S
C208 C210 1.380 . S
C209 C208 1.170 . S
C210 C208 1.380 . S
C210 C211 1.170 . S
C211 C210 1.170 . S
C212 C213 1.170 . S
C212 C214 1.380 . S
C213 C212 1.170 . S
C214 C212 1.380 . S
C214 C215 1.170 . S
C215 C214 1.170 . S
C216 C217 1.170 . S
C216 C218 1.380 1_554 S
C217 C216 1.170 . S
C218 C216 1.380 1_556 S
C218 C219 1.170 . S
C219 C218 1.170 . S
C220 C221 1.170 . S
C220 C222 1.380 1_556 S
C221 C220 1.170 . S
C222 C220 1.380 1_554 S
C222 C223 1.170 . S
C223 C222 1.170 . S
C224 C225 1.170 . S
C224 C226 1.380 . S
C225 C224 1.170 . S
C226 C224 1.380 . S
C226 C227 1.170 . S
C227 C226 1.170 . S
C228 C229 1.170 . S
C228 C230 1.380 . S
C229 C228 1.170 . S
C230 C228 1.380 . S
C230 C231 1.170 . S
C231 C230 1.170 . S
C232 C233 1.170 . S
C232 C234 1.380 1_556 S
C233 C232 1.170 . S
C234 C232 1.380 1_554 S
C234 C235 1.170 . S
C235 C234 1.170 . S
C236 C237 1.170 . S
C236 C238 1.380 1_554 S
C237 C236 1.170 . S
C238 C236 1.380 1_556 S
C238 C239 1.170 . S
C239 C238 1.170 . S
C240 C241 1.170 . S
C240 C242 1.380 1_565 S
C241 C240 1.170 . S
C242 C240 1.380 1_545 S
C242 C243 1.170 . S
C243 C242 1.170 . S
C244 C245 1.170 . S
C244 C246 1.380 1_565 S
C245 C244 1.170 . S
C246 C244 1.380 1_545 S
C246 C247 1.170 . S
C247 C246 1.170 . S
C248 C249 1.170 . S
C248 C250 1.380 1_565 S
C249 C248 1.170 . S
C250 C248 1.380 1_545 S
C250 C251 1.170 . S
C251 C250 1.170 . S
C252 C253 1.170 . S
C252 C254 1.380 1_545 S
C253 C252 1.170 . S
C254 C252 1.380 1_565 S
C254 C255 1.170 . S
C255 C254 1.170 . S
C256 C257 1.170 . S
C256 C258 1.380 1_655 S
C257 C256 1.170 . S
C258 C256 1.380 1_455 S
C258 C259 1.170 . S
C259 C258 1.170 . S
C260 C261 1.170 . S
C260 C262 1.380 1_455 S
C261 C260 1.170 . S
C262 C260 1.380 1_655 S
C262 C263 1.170 . S
C263 C262 1.170 . S
C264 C265 1.170 . S
C264 C266 1.380 1_655 S
C265 C264 1.170 . S
C266 C264 1.380 1_455 S
C266 C267 1.170 . S
C267 C266 1.170 . S
C268 C269 1.170 . S
C268 C270 1.380 1_455 S
C269 C268 1.170 . S
C270 C268 1.380 1_655 S
C270 C271 1.170 . S
C271 C270 1.170 . S
C272 C273 1.170 . S
C272 C274 1.380 . S
C273 C272 1.170 . S
C274 C272 1.380 . S
C274 C275 1.170 . S
C275 C274 1.170 . S
C276 C277 1.170 . S
C276 C278 1.380 . S
C277 C276 1.170 . S
C278 C276 1.380 . S
C278 C279 1.170 . S
C279 C278 1.170 . S
C280 C281 1.170 . S
C280 C282 1.380 . S
C281 C280 1.170 . S
C282 C280 1.380 . S
C282 C283 1.170 . S
C283 C282 1.170 . S
C284 C285 1.170 . S
C284 C286 1.380 . S
C285 C284 1.170 . S
C286 C284 1.380 . S
C286 C287 1.170 . S
C287 C286 1.170 . S
C288 C289 1.170 . S
C288 C290 1.380 . S
C289 C288 1.170 . S
C290 C288 1.380 . S
C290 C291 1.170 . S
C291 C290 1.170 . S
C292 C293 1.170 . S
C292 C294 1.380 . S
C293 C292 1.170 . S
C294 C292 1.380 . S
C294 C295 1.170 . S
C295 C294 1.170 . S
C296 C297 1.170 . S
C296 C298 1.380 . S
C297 C296 1.170 . S
C298 C296 1.380 . S
C298 C299 1.170 . S
C299 C298 1.170 . S
C300 C301 1.170 . S
C300 C302 1.380 . S
C301 C300 1.170 . S
C302 C300 1.380 . S
C302 C303 1.170 . S
C303 C302 1.170 . S
C304 C305 1.170 . S
C304 C306 1.380 1_545 S
C305 C304 1.170 . S
C306 C304 1.380 1_565 S
C306 C307 1.170 . S
C307 C306 1.170 . S
C308 C309 1.170 . S
C308 C310 1.380 1_545 S
C309 C308 1.170 . S
C310 C308 1.380 1_565 S
C310 C311 1.170 . S
C311 C310 1.170 . S
C312 C313 1.170 . S
C312 C314 1.380 1_545 S
C313 C312 1.170 . S
C314 C312 1.380 1_565 S
C314 C315 1.170 . S
C315 C314 1.170 . S
C316 C317 1.170 . S
C316 C318 1.380 1_565 S
C317 C316 1.170 . S
C318 C316 1.380 1_545 S
C318 C319 1.170 . S
C319 C318 1.170 . S
C320 C321 1.170 . S
C320 C322 1.380 . S
C321 C320 1.170 . S
C322 C320 1.380 . S
C322 C323 1.170 . S
C323 C322 1.170 . S
C324 C325 1.170 . S
C324 C326 1.380 . S
C325 C324 1.170 . S
C326 C324 1.380 . S
C326 C327 1.170 . S
C327 C326 1.170 . S
C328 C329 1.170 . S
C328 C330 1.380 . S
C329 C328 1.170 . S
C330 C328 1.380 . S
C330 C331 1.170 . S
C331 C330 1.170 . S
C332 C333 1.170 . S
C332 C334 1.380 . S
C333 C332 1.170 . S
C334 C332 1.380 . S
C334 C335 1.170 . S
C335 C334 1.170 . S
C209 C4 1.421 . S
C211 C69 1.417 . S
C213 C62 1.422 . S
C215 C23 1.429 . S
C217 C30 1.416 . S
C219 C101 1.417 . S
C221 C82 1.424 . S
C223 C43 1.431 . S
C225 C179 1.431 . S
C227 C114 1.436 . S
C229 C160 1.426 . S
C231 C121 1.420 . S
C233 C205 1.428 . S
C235 C134 1.434 . S
C237 C153 1.417 . S
C239 C186 1.416 . S
C241 C18 1.511 . S
C243 C3 1.516 . S
C245 C29 1.511 . S
C247 C42 1.508 . S
C249 C57 1.508 . S
C251 C68 1.516 . S
C253 C81 1.508 . S
C255 C96 1.516 . S
C257 C109 1.508 . S
C259 C120 1.511 . S
C261 C148 1.513 . S
C263 C133 1.517 . S
C265 C174 1.516 . S
C267 C159 1.512 . S
C269 C185 1.508 . S
C271 C200 1.516 . S
C273 C127 1.501 . S
C275 C10 1.503 . S
C277 C17 1.505 . S
C279 C108 1.504 . S
C281 C147 1.502 . S
C283 C36 1.504 . S
C285 C49 1.499 . S
C287 C140 1.502 . S
C289 C56 1.499 . S
C291 C173 1.504 . S
C293 C166 1.498 . S
C295 C75 1.504 . S
C297 C88 1.504 . S
C299 C199 1.498 . S
C301 C192 1.498 . S
C303 C95 1.503 . S
C305 C5 1.376 . S
C307 C31 1.352 . S
C309 C44 1.375 . S
C311 C16 1.353 . S
C313 C83 1.376 . S
C315 C55 1.383 . S
C317 C94 1.352 . S
C319 C70 1.358 . S
C321 C135 1.357 . S
C323 C107 1.383 . S
C325 C122 1.357 . S
C327 C146 1.383 . S
C329 C187 1.353 . S
C331 C161 1.370 . S
C333 C172 1.384 . S
C335 C198 1.373 . S
