# Generated by pormake.
# Topology unu, (4)-cn, num edge types: 1
# Building blocks:
#     Node 0, Type 0, BuildingBlock: QUQFOY_clean_sbu_1, # of connection points: 4
#     Node 1, Type 0, BuildingBlock: QUQFOY_clean_sbu_1, # of connection points: 4
#     Node 2, Type 0, BuildingBlock: QUQFOY_clean_sbu_1, # of connection points: 4
#     Node 3, Type 0, BuildingBlock: QUQFOY_clean_sbu_1, # of connection points: 4
#     Node 4, Type 0, BuildingBlock: QUQFOY_clean_sbu_1, # of connection points: 4
#     Node 5, Type 0, BuildingBlock: QUQFOY_clean_sbu_1, # of connection points: 4
#     Node 6, Type 0, BuildingBlock: QUQFOY_clean_sbu_1, # of connection points: 4
#     Node 7, Type 0, BuildingBlock: QUQFOY_clean_sbu_1, # of connection points: 4
#     Node 8, Type 0, BuildingBlock: QUQFOY_clean_sbu_1, # of connection points: 4
#     Node 9, Type 0, BuildingBlock: QUQFOY_clean_sbu_1, # of connection points: 4
#     Node 10, Type 0, BuildingBlock: QUQFOY_clean_sbu_1, # of connection points: 4
#     Node 11, Type 0, BuildingBlock: QUQFOY_clean_sbu_1, # of connection points: 4
#     Node 12, Type 0, BuildingBlock: QUQFOY_clean_sbu_1, # of connection points: 4
#     Node 13, Type 0, BuildingBlock: QUQFOY_clean_sbu_1, # of connection points: 4
#     Node 14, Type 0, BuildingBlock: QUQFOY_clean_sbu_1, # of connection points: 4
#     Node 15, Type 0, BuildingBlock: QUQFOY_clean_sbu_1, # of connection points: 4
#     Node 16, Type 0, BuildingBlock: QUQFOY_clean_sbu_1, # of connection points: 4
#     Node 17, Type 0, BuildingBlock: QUQFOY_clean_sbu_1, # of connection points: 4
#     Node 18, Type 0, BuildingBlock: QUQFOY_clean_sbu_1, # of connection points: 4
#     Node 19, Type 0, BuildingBlock: QUQFOY_clean_sbu_1, # of connection points: 4
#     Node 20, Type 0, BuildingBlock: QUQFOY_clean_sbu_1, # of connection points: 4
#     Node 21, Type 0, BuildingBlock: QUQFOY_clean_sbu_1, # of connection points: 4
#     Node 22, Type 0, BuildingBlock: QUQFOY_clean_sbu_1, # of connection points: 4
#     Node 23, Type 0, BuildingBlock: QUQFOY_clean_sbu_1, # of connection points: 4
#     Node 24, Type 0, BuildingBlock: QUQFOY_clean_sbu_1, # of connection points: 4
#     Node 25, Type 0, BuildingBlock: QUQFOY_clean_sbu_1, # of connection points: 4
#     Node 26, Type 0, BuildingBlock: QUQFOY_clean_sbu_1, # of connection points: 4
#     Node 27, Type 0, BuildingBlock: QUQFOY_clean_sbu_1, # of connection points: 4
#     Node 28, Type 0, BuildingBlock: QUQFOY_clean_sbu_1, # of connection points: 4
#     Node 29, Type 0, BuildingBlock: QUQFOY_clean_sbu_1, # of connection points: 4
#     Node 30, Type 0, BuildingBlock: QUQFOY_clean_sbu_1, # of connection points: 4
#     Node 31, Type 0, BuildingBlock: QUQFOY_clean_sbu_1, # of connection points: 4
#     Node 32, Type 0, BuildingBlock: QUQFOY_clean_sbu_1, # of connection points: 4
#     Node 33, Type 0, BuildingBlock: QUQFOY_clean_sbu_1, # of connection points: 4
#     Node 34, Type 0, BuildingBlock: QUQFOY_clean_sbu_1, # of connection points: 4
#     Node 35, Type 0, BuildingBlock: QUQFOY_clean_sbu_1, # of connection points: 4
#     Edge 36, Type (0, 0), BuildingBlock: AJUNOK_clean_linker_0, # of connection points: 2
#     Edge 37, Type (0, 0), BuildingBlock: AJUNOK_clean_linker_0, # of connection points: 2
#     Edge 38, Type (0, 0), BuildingBlock: AJUNOK_clean_linker_0, # of connection points: 2
#     Edge 39, Type (0, 0), BuildingBlock: AJUNOK_clean_linker_0, # of connection points: 2
#     Edge 40, Type (0, 0), BuildingBlock: AJUNOK_clean_linker_0, # of connection points: 2
#     Edge 41, Type (0, 0), BuildingBlock: AJUNOK_clean_linker_0, # of connection points: 2
#     Edge 42, Type (0, 0), BuildingBlock: AJUNOK_clean_linker_0, # of connection points: 2
#     Edge 43, Type (0, 0), BuildingBlock: AJUNOK_clean_linker_0, # of connection points: 2
#     Edge 44, Type (0, 0), BuildingBlock: AJUNOK_clean_linker_0, # of connection points: 2
#     Edge 45, Type (0, 0), BuildingBlock: AJUNOK_clean_linker_0, # of connection points: 2
#     Edge 46, Type (0, 0), BuildingBlock: AJUNOK_clean_linker_0, # of connection points: 2
#     Edge 47, Type (0, 0), BuildingBlock: AJUNOK_clean_linker_0, # of connection points: 2
#     Edge 48, Type (0, 0), BuildingBlock: AJUNOK_clean_linker_0, # of connection points: 2
#     Edge 49, Type (0, 0), BuildingBlock: AJUNOK_clean_linker_0, # of connection points: 2
#     Edge 50, Type (0, 0), BuildingBlock: AJUNOK_clean_linker_0, # of connection points: 2
#     Edge 51, Type (0, 0), BuildingBlock: AJUNOK_clean_linker_0, # of connection points: 2
#     Edge 52, Type (0, 0), BuildingBlock: AJUNOK_clean_linker_0, # of connection points: 2
#     Edge 53, Type (0, 0), BuildingBlock: AJUNOK_clean_linker_0, # of connection points: 2
#     Edge 54, Type (0, 0), BuildingBlock: AJUNOK_clean_linker_0, # of connection points: 2
#     Edge 55, Type (0, 0), BuildingBlock: AJUNOK_clean_linker_0, # of connection points: 2
#     Edge 56, Type (0, 0), BuildingBlock: AJUNOK_clean_linker_0, # of connection points: 2
#     Edge 57, Type (0, 0), BuildingBlock: AJUNOK_clean_linker_0, # of connection points: 2
#     Edge 58, Type (0, 0), BuildingBlock: AJUNOK_clean_linker_0, # of connection points: 2
#     Edge 59, Type (0, 0), BuildingBlock: AJUNOK_clean_linker_0, # of connection points: 2
#     Edge 60, Type (0, 0), BuildingBlock: AJUNOK_clean_linker_0, # of connection points: 2
#     Edge 61, Type (0, 0), BuildingBlock: AJUNOK_clean_linker_0, # of connection points: 2
#     Edge 62, Type (0, 0), BuildingBlock: AJUNOK_clean_linker_0, # of connection points: 2
#     Edge 63, Type (0, 0), BuildingBlock: AJUNOK_clean_linker_0, # of connection points: 2
#     Edge 64, Type (0, 0), BuildingBlock: AJUNOK_clean_linker_0, # of connection points: 2
#     Edge 65, Type (0, 0), BuildingBlock: AJUNOK_clean_linker_0, # of connection points: 2
#     Edge 66, Type (0, 0), BuildingBlock: AJUNOK_clean_linker_0, # of connection points: 2
#     Edge 67, Type (0, 0), BuildingBlock: AJUNOK_clean_linker_0, # of connection points: 2
#     Edge 68, Type (0, 0), BuildingBlock: AJUNOK_clean_linker_0, # of connection points: 2
#     Edge 69, Type (0, 0), BuildingBlock: AJUNOK_clean_linker_0, # of connection points: 2
#     Edge 70, Type (0, 0), BuildingBlock: AJUNOK_clean_linker_0, # of connection points: 2
#     Edge 71, Type (0, 0), BuildingBlock: AJUNOK_clean_linker_0, # of connection points: 2
#     Edge 72, Type (0, 0), BuildingBlock: AJUNOK_clean_linker_0, # of connection points: 2
#     Edge 73, Type (0, 0), BuildingBlock: AJUNOK_clean_linker_0, # of connection points: 2
#     Edge 74, Type (0, 0), BuildingBlock: AJUNOK_clean_linker_0, # of connection points: 2
#     Edge 75, Type (0, 0), BuildingBlock: AJUNOK_clean_linker_0, # of connection points: 2
#     Edge 76, Type (0, 0), BuildingBlock: AJUNOK_clean_linker_0, # of connection points: 2
#     Edge 77, Type (0, 0), BuildingBlock: AJUNOK_clean_linker_0, # of connection points: 2
#     Edge 78, Type (0, 0), BuildingBlock: AJUNOK_clean_linker_0, # of connection points: 2
#     Edge 79, Type (0, 0), BuildingBlock: AJUNOK_clean_linker_0, # of connection points: 2
#     Edge 80, Type (0, 0), BuildingBlock: AJUNOK_clean_linker_0, # of connection points: 2
#     Edge 81, Type (0, 0), BuildingBlock: AJUNOK_clean_linker_0, # of connection points: 2
#     Edge 82, Type (0, 0), BuildingBlock: AJUNOK_clean_linker_0, # of connection points: 2
#     Edge 83, Type (0, 0), BuildingBlock: AJUNOK_clean_linker_0, # of connection points: 2
#     Edge 84, Type (0, 0), BuildingBlock: AJUNOK_clean_linker_0, # of connection points: 2
#     Edge 85, Type (0, 0), BuildingBlock: AJUNOK_clean_linker_0, # of connection points: 2
#     Edge 86, Type (0, 0), BuildingBlock: AJUNOK_clean_linker_0, # of connection points: 2
#     Edge 87, Type (0, 0), BuildingBlock: AJUNOK_clean_linker_0, # of connection points: 2
#     Edge 88, Type (0, 0), BuildingBlock: AJUNOK_clean_linker_0, # of connection points: 2
#     Edge 89, Type (0, 0), BuildingBlock: AJUNOK_clean_linker_0, # of connection points: 2
#     Edge 90, Type (0, 0), BuildingBlock: AJUNOK_clean_linker_0, # of connection points: 2
#     Edge 91, Type (0, 0), BuildingBlock: AJUNOK_clean_linker_0, # of connection points: 2
#     Edge 92, Type (0, 0), BuildingBlock: AJUNOK_clean_linker_0, # of connection points: 2
#     Edge 93, Type (0, 0), BuildingBlock: AJUNOK_clean_linker_0, # of connection points: 2
#     Edge 94, Type (0, 0), BuildingBlock: AJUNOK_clean_linker_0, # of connection points: 2
#     Edge 95, Type (0, 0), BuildingBlock: AJUNOK_clean_linker_0, # of connection points: 2
#     Edge 96, Type (0, 0), BuildingBlock: AJUNOK_clean_linker_0, # of connection points: 2
#     Edge 97, Type (0, 0), BuildingBlock: AJUNOK_clean_linker_0, # of connection points: 2
#     Edge 98, Type (0, 0), BuildingBlock: AJUNOK_clean_linker_0, # of connection points: 2
#     Edge 99, Type (0, 0), BuildingBlock: AJUNOK_clean_linker_0, # of connection points: 2
#     Edge 100, Type (0, 0), BuildingBlock: AJUNOK_clean_linker_0, # of connection points: 2
#     Edge 101, Type (0, 0), BuildingBlock: AJUNOK_clean_linker_0, # of connection points: 2
#     Edge 102, Type (0, 0), BuildingBlock: AJUNOK_clean_linker_0, # of connection points: 2
#     Edge 103, Type (0, 0), BuildingBlock: AJUNOK_clean_linker_0, # of connection points: 2
#     Edge 104, Type (0, 0), BuildingBlock: AJUNOK_clean_linker_0, # of connection points: 2
#     Edge 105, Type (0, 0), BuildingBlock: AJUNOK_clean_linker_0, # of connection points: 2
#     Edge 106, Type (0, 0), BuildingBlock: AJUNOK_clean_linker_0, # of connection points: 2
#     Edge 107, Type (0, 0), BuildingBlock: AJUNOK_clean_linker_0, # of connection points: 2
# Relax obj value: 0.078
# Max RMSD: 0.135
# Mean RMSD: 0.135
data_MOF--net-unu--node1-QUQFOY_clean_sbu_1--edge1-AJUNOK_clean_linker_0
_symmetry_space_group_name_H-M    P1
_symmetry_Int_Tables_number       1
_symmetry_cell_setting            triclinic
loop_
_symmetry_equiv_pos_as_xyz
'x, y, z'
_cell_length_a     31.710673
_cell_length_b     31.713719
_cell_length_c     95.632347
_cell_angle_alpha  89.960011
_cell_angle_beta   90.014406
_cell_angle_gamma 120.00079
loop_
_atom_site_label
_atom_site_type_symbol
_atom_site_fract_x
_atom_site_fract_y
_atom_site_fract_z
_atom_type_partial_charge
O0 O 0.19136 1.01432 0.12764 0.0
Cd1 Cd 0.25426 0.08061 0.12616 0.0
Cd2 Cd 0.24348 0.07718 0.15349 0.0
O3 O 0.19695 1.00285 0.15013 0.0
O4 O 0.29052 0.07754 0.1093 0.0
O5 O 0.31516 0.07902 0.13101 0.0
C6 C 0.32033 0.07398 0.11781 0.0
C7 C 0.3037 0.1182 0.17039 0.0
C8 C 0.17599 0.98694 0.13834 0.0
C9 C 0.22036 0.14464 0.1376 0.0
O10 O 0.21367 0.11903 0.14844 0.0
O11 O 0.24222 0.13992 0.12702 0.0
O12 O 0.25835 0.0928 0.17382 0.0
O13 O 0.31515 0.11531 0.1576 0.0
O14 O 0.04801 0.18947 0.12836 0.0
Cd15 Cd 0.98167 0.18611 0.1268 0.0
Cd16 Cd 0.98438 0.178 0.15413 0.0
O17 O 0.05872 0.20568 0.1509 0.0
O18 O 0.98476 0.22412 0.10966 0.0
O19 O 0.9832 0.24907 0.13114 0.0
C20 C 0.98801 0.25804 0.11785 0.0
C21 C 0.94417 0.19454 0.17196 0.0
C22 C 0.07499 0.20094 0.13914 0.0
C23 C 0.91724 0.08792 0.13797 0.0
O24 O 0.94256 0.10657 0.14886 0.0
O25 O 0.9223 0.11477 0.12743 0.0
O26 O 0.96999 0.17443 0.17459 0.0
O27 O 0.94618 0.21076 0.15943 0.0
O28 O 0.87139 0.87059 0.12832 0.0
Cd29 Cd 0.87491 0.80772 0.12664 0.0
Cd30 Cd 0.88339 0.81832 0.15393 0.0
O31 O 0.8554 0.86478 0.15087 0.0
O32 O 0.83707 0.77325 0.10944 0.0
O33 O 0.81212 0.74594 0.13087 0.0
C34 C 0.80321 0.74217 0.11758 0.0
C35 C 0.86699 0.76123 0.17168 0.0
C36 C 0.86004 0.88596 0.13915 0.0
C37 C 0.9735 0.84246 0.13756 0.0
O38 O 0.95483 0.84862 0.14854 0.0
O39 O 0.94637 0.82003 0.12713 0.0
O40 O 0.88704 0.80711 0.17437 0.0
O41 O 0.85094 0.74726 0.15913 0.0
O42 O 1.02552 0.1786 0.42038 0.0
Cd43 Cd 0.09187 0.24164 0.42169 0.0
Cd44 Cd 0.08818 0.23026 0.39449 0.0
O45 O 1.01384 0.18424 0.39792 0.0
O46 O 0.08896 0.27837 0.43843 0.0
O47 O 0.09022 0.30241 0.41665 0.0
C48 C 0.08529 0.30792 0.42984 0.0
C49 C 0.12851 0.28735 0.37672 0.0
C50 C 0.99804 0.1632 0.4097 0.0
C51 C 0.15511 0.20664 0.41052 0.0
O52 O 0.12938 0.19985 0.39971 0.0
O53 O 0.15122 0.22963 0.42094 0.0
O54 O 0.10232 0.24151 0.37401 0.0
O55 O 0.12693 0.30129 0.38931 0.0
O56 O 0.88301 0.86016 0.42035 0.0
Cd57 Cd 0.81998 0.86333 0.42208 0.0
Cd58 Cd 0.83019 0.87202 0.3947 0.0
O59 O 0.87739 0.84486 0.39775 0.0
O60 O 0.78395 0.82323 0.43884 0.0
O61 O 0.75883 0.80119 0.41711 0.0
C62 C 0.75385 0.79038 0.43028 0.0
C63 C 0.77344 0.85549 0.37684 0.0
C64 C 0.89852 0.84923 0.40947 0.0
C65 C 0.85293 0.96161 0.41117 0.0
O66 O 0.85919 0.94323 0.40016 0.0
O67 O 0.83177 0.93459 0.42173 0.0
O68 O 0.81943 0.87612 0.37424 0.0
O69 O 0.75924 0.83885 0.38934 0.0
O70 O 0.20225 0.03563 0.42026 0.0
Cd71 Cd 0.19855 0.96922 0.42184 0.0
Cd72 Cd 0.19071 0.9721 0.39448 0.0
O73 O 0.21844 0.04651 0.39771 0.0
O74 O 0.23777 0.97245 0.43875 0.0
O75 O 0.26085 0.97025 0.41709 0.0
C76 C 0.27105 0.97555 0.43029 0.0
C77 C 0.20967 0.93092 0.37756 0.0
C78 C 0.21386 0.06273 0.4095 0.0
C79 C 0.1003 0.90519 0.41055 0.0
O80 O 0.11912 0.93037 0.39963 0.0
O81 O 0.12702 0.91016 0.42112 0.0
O82 O 0.18948 0.95613 0.37416 0.0
O83 O 0.22432 0.93403 0.39033 0.0
O84 O 0.88361 0.03644 0.92001 0.0
Cd85 Cd 0.82089 0.97006 0.92174 0.0
Cd86 Cd 0.83118 0.9722 0.89438 0.0
O87 O 0.8779 0.04665 0.89744 0.0
O88 O 0.78499 0.9737 0.93862 0.0
O89 O 0.75957 0.97092 0.91694 0.0
C90 C 0.75473 0.97652 0.93013 0.0
C91 C 0.77095 0.93066 0.87751 0.0
C92 C 0.89893 0.06321 0.90918 0.0
C93 C 0.85483 0.90566 0.91058 0.0
O94 O 0.86105 0.93056 0.89961 0.0
O95 O 0.83331 0.91096 0.92115 0.0
O96 O 0.81632 0.95589 0.87408 0.0
O97 O 0.75948 0.93398 0.89027 0.0
O98 O 1.02724 0.86067 0.92013 0.0
Cd99 Cd 0.09339 0.86364 0.92168 0.0
Cd100 Cd 0.09087 0.8717 0.89431 0.0
O101 O 1.0166 0.84454 0.89758 0.0
O102 O 0.08973 0.82371 0.93845 0.0
O103 O 0.09188 0.80126 0.9167 0.0
C104 C 0.08646 0.79064 0.92989 0.0
C105 C 0.13069 0.85489 0.87642 0.0
C106 C 1.00034 0.84937 0.90933 0.0
C107 C 0.1584 0.96164 0.91053 0.0
O108 O 0.13319 0.94304 0.89962 0.0
O109 O 0.15302 0.93483 0.92111 0.0
O110 O 0.10513 0.87532 0.87383 0.0
O111 O 0.12862 0.83855 0.88894 0.0
O112 O 0.2036 0.17883 0.91959 0.0
Cd113 Cd 0.20015 0.24176 0.92103 0.0
Cd114 Cd 0.19224 0.23061 0.89379 0.0
O115 O 0.22038 0.18436 0.89709 0.0
O116 O 0.23928 0.27787 0.93793 0.0
O117 O 0.26264 0.30282 0.91626 0.0
C118 C 0.27269 0.30786 0.92947 0.0
C119 C 0.21126 0.29103 0.87694 0.0
C120 C 0.21539 0.16336 0.90887 0.0
C121 C 0.10176 0.20686 0.9098 0.0
O122 O 0.12058 0.20022 0.89893 0.0
O123 O 0.12874 0.22964 0.92022 0.0
O124 O 0.19133 0.24572 0.87348 0.0
O125 O 0.22555 0.30234 0.88974 0.0
O126 O 0.04766 0.87127 0.62809 0.0
Cd127 Cd 0.98138 0.80844 0.62636 0.0
Cd128 Cd 0.98351 0.81856 0.65373 0.0
O129 O 0.05794 0.86538 0.65065 0.0
O130 O 0.98517 0.77279 0.60945 0.0
O131 O 0.98252 0.74721 0.6311 0.0
C132 C 0.98815 0.74254 0.61791 0.0
C133 C 0.94214 0.75841 0.67064 0.0
C134 C 0.07445 0.88652 0.63891 0.0
C135 C 0.91669 0.84195 0.63758 0.0
O136 O 0.94168 0.84825 0.64853 0.0
O137 O 0.92207 0.82055 0.627 0.0
O138 O 0.96734 0.8038 0.67404 0.0
O139 O 0.94542 0.74688 0.65789 0.0
O140 O 0.19188 0.1915 0.62855 0.0
Cd141 Cd 0.25464 0.18776 0.62712 0.0
Cd142 Cd 0.24321 0.17977 0.65429 0.0
O143 O 0.19737 0.20843 0.65104 0.0
O144 O 0.28964 0.22527 0.6099 0.0
O145 O 0.31617 0.25071 0.63134 0.0
C146 C 0.32035 0.25937 0.61804 0.0
C147 C 0.30409 0.19842 0.67093 0.0
C148 C 0.17651 0.20354 0.63924 0.0
C149 C 0.21883 0.08918 0.63836 0.0
O150 O 0.2121 0.10804 0.64921 0.0
O151 O 0.24205 0.11619 0.62798 0.0
O152 O 0.25895 0.17912 0.67455 0.0
O153 O 0.31505 0.21242 0.65809 0.0
O154 O 0.87209 1.01442 0.62828 0.0
Cd155 Cd 0.87546 0.08075 0.62679 0.0
Cd156 Cd 0.88309 0.07756 0.65403 0.0
O157 O 0.855 1.00316 0.65077 0.0
O158 O 0.83618 0.07764 0.60989 0.0
O159 O 0.81291 0.07919 0.63157 0.0
C160 C 0.80278 0.07415 0.61836 0.0
C161 C 0.86417 0.11904 0.67085 0.0
C162 C 0.86017 0.98716 0.63902 0.0
C163 C 0.97373 0.1443 0.63809 0.0
O164 O 0.95479 0.11881 0.64895 0.0
O165 O 0.94687 0.1401 0.62762 0.0
O166 O 0.88396 0.09353 0.67434 0.0
O167 O 0.84988 0.11609 0.65805 0.0
O168 O 0.85781 0.34671 0.46165 0.0
Cd169 Cd 0.92053 0.41322 0.4601 0.0
Cd170 Cd 0.90947 0.41 0.48731 0.0
O171 O 0.86352 0.3355 0.48414 0.0
O172 O 0.95516 0.41046 0.44283 0.0
O173 O 0.98222 0.41197 0.46423 0.0
C174 C 0.98609 0.40725 0.45093 0.0
C175 C 0.9702 0.45211 0.50399 0.0
C176 C 0.84254 0.31941 0.47237 0.0
C177 C 0.88495 0.47614 0.47133 0.0
O178 O 0.87845 0.45071 0.4822 0.0
O179 O 0.90791 0.47218 0.46091 0.0
O180 O 0.92501 0.42634 0.50757 0.0
O181 O 0.98128 0.44907 0.49116 0.0
O182 O 0.71346 0.52285 0.46149 0.0
Cd183 Cd 0.64712 0.51949 0.46002 0.0
Cd184 Cd 0.65026 0.51129 0.48727 0.0
O185 O 0.72464 0.53935 0.48401 0.0
O186 O 0.65019 0.55753 0.44289 0.0
O187 O 0.64863 0.58239 0.46438 0.0
C188 C 0.65349 0.59144 0.4511 0.0
C189 C 0.61 0.52804 0.50505 0.0
C190 C 0.7407 0.53457 0.47222 0.0
C191 C 0.58362 0.42104 0.47106 0.0
O192 O 0.60892 0.43979 0.48196 0.0
O193 O 0.58791 0.4481 0.46064 0.0
O194 O 0.63589 0.50802 0.50773 0.0
O195 O 0.61179 0.54386 0.49247 0.0
O196 O 0.5379 0.20322 0.46149 0.0
Cd197 Cd 0.54143 0.14028 0.46022 0.0
Cd198 Cd 0.54926 0.15214 0.4874 0.0
O199 O 0.52064 0.19788 0.48395 0.0
O200 O 0.50358 0.10478 0.44313 0.0
O201 O 0.47848 0.07899 0.46465 0.0
C202 C 0.46958 0.07442 0.45137 0.0
C203 C 0.5326 0.09502 0.50513 0.0
C204 C 0.52568 0.21865 0.47212 0.0
C205 C 0.6398 0.17577 0.47141 0.0
O206 O 0.62091 0.18278 0.4822 0.0
O207 O 0.61286 0.1525 0.46103 0.0
O208 O 0.55204 0.14083 0.50787 0.0
O209 O 0.5172 0.0811 0.49252 0.0
O210 O 0.69334 0.51379 0.75366 0.0
Cd211 Cd 0.75985 0.57664 0.75497 0.0
Cd212 Cd 0.75577 0.565 0.72776 0.0
O213 O 0.68143 0.51914 0.7312 0.0
O214 O 0.7575 0.61188 0.77211 0.0
O215 O 0.75848 0.63814 0.75063 0.0
C216 C 0.75408 0.64249 0.76393 0.0
C217 C 0.79599 0.62196 0.70996 0.0
C218 C 0.66571 0.49834 0.74301 0.0
C219 C 0.82256 0.54107 0.74375 0.0
O220 O 0.79681 0.53437 0.73294 0.0
O221 O 0.81889 0.5642 0.75416 0.0
O222 O 0.76972 0.5761 0.70728 0.0
O223 O 0.79458 0.63601 0.72255 0.0
O224 O 0.55059 0.19405 0.75345 0.0
Cd225 Cd 0.4875 0.19724 0.7549 0.0
Cd226 Cd 0.49872 0.20578 0.72766 0.0
O227 O 0.54519 0.17787 0.73092 0.0
O228 O 0.45106 0.15738 0.77165 0.0
O229 O 0.42659 0.13493 0.7499 0.0
C230 C 0.42129 0.12432 0.76308 0.0
C231 C 0.44156 0.18897 0.7099 0.0
C232 C 0.56616 0.1826 0.74268 0.0
C233 C 0.522 0.29574 0.74398 0.0
O234 O 0.5286 0.27719 0.73305 0.0
O235 O 0.49939 0.26853 0.75438 0.0
O236 O 0.48746 0.20911 0.7072 0.0
O237 O 0.42766 0.17308 0.72248 0.0
O238 O 0.8694 0.36967 0.75355 0.0
Cd239 Cd 0.86613 0.30342 0.75508 0.0
Cd240 Cd 0.8577 0.3061 0.72775 0.0
O241 O 0.8853 0.38045 0.73099 0.0
O242 O 0.90624 0.30699 0.77178 0.0
O243 O 0.92832 0.3047 0.74999 0.0
C244 C 0.93916 0.31018 0.76316 0.0
C245 C 0.87411 0.26584 0.7099 0.0
C246 C 0.8808 0.3967 0.74279 0.0
C247 C 0.76784 0.23893 0.74407 0.0
O248 O 0.78638 0.26416 0.73315 0.0
O249 O 0.79477 0.24406 0.7546 0.0
O250 O 0.85386 0.29155 0.70729 0.0
O251 O 0.89052 0.268 0.72241 0.0
O252 O 0.54951 0.369 0.25302 0.0
Cd253 Cd 0.48656 0.30266 0.25467 0.0
Cd254 Cd 0.49733 0.30495 0.2274 0.0
O255 O 0.54376 0.37936 0.23047 0.0
O256 O 0.45201 0.30595 0.27186 0.0
O257 O 0.42491 0.30395 0.25043 0.0
C258 C 0.42107 0.30896 0.26372 0.0
C259 C 0.44043 0.26438 0.20961 0.0
C260 C 0.56494 0.3958 0.24219 0.0
C261 C 0.52142 0.23892 0.24376 0.0
O262 O 0.52766 0.26384 0.2328 0.0
O263 O 0.49886 0.24349 0.25418 0.0
O264 O 0.48634 0.29025 0.20696 0.0
O265 O 0.4263 0.26635 0.22216 0.0
O266 O 0.69327 0.19285 0.25383 0.0
Cd267 Cd 0.75951 0.19614 0.25538 0.0
Cd268 Cd 0.7566 0.20385 0.22804 0.0
O269 O 0.68223 0.17623 0.23131 0.0
O270 O 0.7561 0.15672 0.27226 0.0
O271 O 0.75798 0.13365 0.25058 0.0
C272 C 0.7527 0.12339 0.26378 0.0
C273 C 0.79768 0.18478 0.21113 0.0
C274 C 0.6661 0.18109 0.24309 0.0
C275 C 0.82394 0.29419 0.24403 0.0
O276 O 0.79856 0.27543 0.23315 0.0
O277 O 0.81891 0.26748 0.25461 0.0
O278 O 0.77247 0.20496 0.20772 0.0
O279 O 0.79457 0.17015 0.2239 0.0
O280 O 0.86877 0.51125 0.2533 0.0
Cd281 Cd 0.86516 0.57407 0.25488 0.0
Cd282 Cd 0.85758 0.56361 0.22757 0.0
O283 O 0.88538 0.51703 0.23078 0.0
O284 O 0.90282 0.60892 0.2721 0.0
O285 O 0.92809 0.63565 0.25066 0.0
C286 C 0.93684 0.63974 0.26395 0.0
C287 C 0.87669 0.62418 0.21079 0.0
C288 C 0.88046 0.49589 0.24254 0.0
C289 C 0.76706 0.54018 0.24345 0.0
O290 O 0.78589 0.53359 0.23258 0.0
O291 O 0.79373 0.56191 0.25403 0.0
O292 O 0.85687 0.57891 0.20728 0.0
O293 O 0.89102 0.63538 0.22359 0.0
O294 O 0.71411 0.20362 0.96115 0.0
Cd295 Cd 0.64782 0.1406 0.95972 0.0
Cd296 Cd 0.65106 0.15174 0.98701 0.0
O297 O 0.7254 0.19828 0.98366 0.0
O298 O 0.65076 0.1053 0.94266 0.0
O299 O 0.6496 0.07941 0.96421 0.0
C300 C 0.65429 0.07495 0.95094 0.0
C301 C 0.61082 0.09474 1.00479 0.0
C302 C 0.7414 0.21912 0.97186 0.0
C303 C 0.58364 0.17452 0.97092 0.0
O304 O 0.60925 0.18142 0.98177 0.0
O305 O 0.58842 0.15251 0.9604 0.0
O306 O 0.63676 0.14062 1.00747 0.0
O307 O 0.61274 0.08072 0.99223 0.0
O308 O 0.859 0.52372 0.96135 0.0
Cd309 Cd 0.92182 0.52009 0.95986 0.0
Cd310 Cd 0.91047 0.51196 0.9871 0.0
O311 O 0.86451 0.54044 0.98384 0.0
O312 O 0.9567 0.55791 0.94269 0.0
O313 O 0.98341 0.58293 0.96415 0.0
C314 C 0.98746 0.59185 0.95086 0.0
C315 C 0.96747 0.52826 1.00485 0.0
C316 C 0.84362 0.53563 0.97206 0.0
C317 C 0.88628 0.42156 0.97092 0.0
O318 O 0.87979 0.44042 0.98179 0.0
O319 O 0.90927 0.44855 0.96051 0.0
O320 O 0.92162 0.50861 1.00755 0.0
O321 O 0.98151 0.54403 0.99227 0.0
O322 O 0.53885 0.34668 0.96149 0.0
Cd323 Cd 0.5425 0.41315 0.9599 0.0
Cd324 Cd 0.55024 0.4103 0.98712 0.0
O325 O 0.522 0.33585 0.98399 0.0
O326 O 0.50499 0.41038 0.94266 0.0
O327 O 0.47954 0.41178 0.96407 0.0
C328 C 0.4709 0.40714 0.95078 0.0
C329 C 0.53132 0.45195 1.00388 0.0
C330 C 0.527 0.31961 0.97227 0.0
C331 C 0.64088 0.47663 0.97115 0.0
O332 O 0.62198 0.45134 0.98205 0.0
O333 O 0.61396 0.47233 0.96069 0.0
O334 O 0.55108 0.42644 1.0074 0.0
O335 O 0.51709 0.44894 0.99107 0.0
O336 O 0.52547 0.68176 0.79459 0.0
Cd337 Cd 0.58849 0.74814 0.79323 0.0
Cd338 Cd 0.57725 0.74456 0.82047 0.0
O339 O 0.53105 0.67024 0.81707 0.0
O340 O 0.62503 0.74519 0.77644 0.0
O341 O 0.64941 0.74668 0.79819 0.0
C342 C 0.65476 0.74169 0.78499 0.0
C343 C 0.63418 0.78453 0.83829 0.0
C344 C 0.51004 0.65436 0.80529 0.0
C345 C 0.55377 0.81161 0.8044 0.0
O346 O 0.54711 0.78601 0.81524 0.0
O347 O 0.57653 0.8075 0.79395 0.0
O348 O 0.58828 0.75852 0.84095 0.0
O349 O 0.64826 0.78298 0.82571 0.0
O350 O 0.38257 0.85827 0.7948 0.0
Cd351 Cd 0.31597 0.85428 0.79332 0.0
Cd352 Cd 0.31939 0.84644 0.82052 0.0
O353 O 0.39392 0.87522 0.81729 0.0
O354 O 0.31856 0.89165 0.77605 0.0
O355 O 0.31709 0.91712 0.79746 0.0
C356 C 0.32176 0.92575 0.78416 0.0
C357 C 0.27733 0.8649 0.83726 0.0
C358 C 0.40996 0.87039 0.8055 0.0
C359 C 0.25335 0.75572 0.80456 0.0
O360 O 0.27882 0.7747 0.81542 0.0
O361 O 0.25714 0.78263 0.79415 0.0
O362 O 0.30316 0.84549 0.84079 0.0
O363 O 0.28025 0.87907 0.82444 0.0
O364 O 0.20685 0.53774 0.79438 0.0
Cd365 Cd 0.21031 0.47489 0.7927 0.0
Cd366 Cd 0.21851 0.48527 0.82005 0.0
O367 O 0.19093 0.53208 0.81695 0.0
O368 O 0.17207 0.44019 0.77557 0.0
O369 O 0.14754 0.41331 0.79706 0.0
C370 C 0.13832 0.40935 0.78379 0.0
C371 C 0.20202 0.42834 0.83785 0.0
C372 C 0.19543 0.55311 0.8052 0.0
C373 C 0.30856 0.50858 0.80376 0.0
O374 O 0.2899 0.51486 0.8147 0.0
O375 O 0.28173 0.48708 0.7932 0.0
O376 O 0.22227 0.47426 0.8405 0.0
O377 O 0.18568 0.41425 0.82532 0.0
O378 O 0.35852 0.84578 0.08628 0.0
Cd379 Cd 0.42501 0.90856 0.08772 0.0
Cd380 Cd 0.42168 0.89711 0.06054 0.0
O381 O 0.34721 0.85107 0.06377 0.0
O382 O 0.42243 0.94358 0.10491 0.0
O383 O 0.42371 0.97013 0.08346 0.0
C384 C 0.41917 0.97433 0.09675 0.0
C385 C 0.46368 0.95771 0.0438 0.0
C386 C 0.3312 0.83027 0.07557 0.0
C387 C 0.4879 0.87283 0.07657 0.0
O388 O 0.46247 0.86623 0.0657 0.0
O389 O 0.48396 0.89592 0.08696 0.0
O390 O 0.43801 0.91249 0.04027 0.0
O391 O 0.46061 0.96889 0.05661 0.0
O392 O 0.21657 0.52554 0.08656 0.0
Cd393 Cd 0.15365 0.52901 0.0881 0.0
Cd394 Cd 0.16438 0.53668 0.06082 0.0
O395 O 0.21056 0.50843 0.06407 0.0
O396 O 0.1177 0.48988 0.10504 0.0
O397 O 0.09253 0.46651 0.08339 0.0
C398 C 0.08762 0.45646 0.09661 0.0
C399 C 0.10398 0.51794 0.04401 0.0
C400 C 0.2318 0.51357 0.07582 0.0
C401 C 0.18833 0.62728 0.07676 0.0
O402 O 0.19491 0.60836 0.0659 0.0
O403 O 0.16569 0.60041 0.08723 0.0
O404 O 0.14926 0.53758 0.04052 0.0
O405 O 0.09265 0.50366 0.05681 0.0
O406 O 0.53453 0.70129 0.08671 0.0
Cd407 Cd 0.53158 0.63518 0.08828 0.0
Cd408 Cd 0.52339 0.63779 0.06092 0.0
O409 O 0.55067 0.71207 0.06416 0.0
O410 O 0.57142 0.63897 0.10507 0.0
O411 O 0.59403 0.63678 0.08334 0.0
C412 C 0.60458 0.64231 0.09653 0.0
C413 C 0.54029 0.598 0.04305 0.0
C414 C 0.54596 0.72828 0.07593 0.0
C415 C 0.4335 0.57027 0.0772 0.0
O416 O 0.45205 0.5955 0.06628 0.0
O417 O 0.46039 0.57559 0.08775 0.0
O418 O 0.51978 0.62348 0.04045 0.0
O419 O 0.55661 0.60009 0.05557 0.0
O420 O 0.21579 0.70298 0.58648 0.0
Cd421 Cd 0.1528 0.63665 0.58794 0.0
Cd422 Cd 0.16438 0.6397 0.56071 0.0
O423 O 0.21062 0.71409 0.56395 0.0
O424 O 0.11777 0.63963 0.60507 0.0
O425 O 0.09138 0.63817 0.58357 0.0
C426 C 0.08716 0.64295 0.59686 0.0
C427 C 0.10724 0.59911 0.54299 0.0
C428 C 0.2314 0.73018 0.57574 0.0
C429 C 0.18802 0.57324 0.577 0.0
O430 O 0.19468 0.59853 0.56609 0.0
O431 O 0.16509 0.57747 0.58738 0.0
O432 O 0.1531 0.62509 0.54027 0.0
O433 O 0.09331 0.60101 0.55557 0.0
O434 O 0.35977 0.52704 0.58694 0.0
Cd435 Cd 0.4261 0.53039 0.58839 0.0
Cd436 Cd 0.42278 0.53826 0.56114 0.0
O437 O 0.34836 0.51009 0.56445 0.0
O438 O 0.423 0.49113 0.60528 0.0
O439 O 0.42454 0.46789 0.58361 0.0
C440 C 0.41951 0.45774 0.59681 0.0
C441 C 0.46418 0.51927 0.54431 0.0
C442 C 0.33241 0.51507 0.57624 0.0
C443 C 0.48962 0.62873 0.57713 0.0
O444 O 0.4641 0.60991 0.56626 0.0
O445 O 0.48543 0.60177 0.58757 0.0
O446 O 0.43869 0.53909 0.54083 0.0
O447 O 0.46126 0.50503 0.55712 0.0
O448 O 0.53638 0.84664 0.5867 0.0
Cd449 Cd 0.53269 0.90944 0.5881 0.0
Cd450 Cd 0.52503 0.89804 0.56094 0.0
O451 O 0.55381 0.85236 0.56425 0.0
O452 O 0.5702 0.94453 0.60531 0.0
O453 O 0.59573 0.97088 0.58386 0.0
C454 C 0.60436 0.97513 0.59716 0.0
C455 C 0.5435 0.95866 0.54423 0.0
C456 C 0.54869 0.8314 0.57604 0.0
C457 C 0.43427 0.87374 0.57677 0.0
O458 O 0.45324 0.86689 0.56597 0.0
O459 O 0.46114 0.89698 0.58717 0.0
O460 O 0.52439 0.91351 0.54066 0.0
O461 O 0.55749 0.9698 0.55707 0.0
O462 O 0.38205 0.53675 0.29539 0.0
Cd463 Cd 0.31561 0.47408 0.29369 0.0
Cd464 Cd 0.31802 0.48472 0.32095 0.0
O465 O 0.39259 0.53078 0.31792 0.0
O466 O 0.31919 0.43862 0.27671 0.0
O467 O 0.31653 0.41264 0.29831 0.0
C468 C 0.32213 0.40818 0.2851 0.0
C469 C 0.27568 0.42418 0.33769 0.0
C470 C 0.40901 0.5519 0.30618 0.0
C471 C 0.25239 0.50954 0.30476 0.0
O472 O 0.27741 0.51571 0.3157 0.0
O473 O 0.25667 0.48679 0.29434 0.0
O474 O 0.30132 0.46942 0.34122 0.0
O475 O 0.27896 0.41295 0.32491 0.0
O476 O 0.52391 0.8566 0.29516 0.0
Cd477 Cd 0.58688 0.8531 0.29384 0.0
Cd478 Cd 0.57552 0.84567 0.32102 0.0
O479 O 0.52948 0.87399 0.31762 0.0
O480 O 0.62236 0.89073 0.27668 0.0
O481 O 0.64815 0.91614 0.29817 0.0
C482 C 0.65277 0.92484 0.28487 0.0
C483 C 0.63619 0.86485 0.33777 0.0
C484 C 0.50847 0.86872 0.30583 0.0
C485 C 0.55181 0.75489 0.3053 0.0
O486 O 0.54485 0.77386 0.31608 0.0
O487 O 0.57484 0.78174 0.29487 0.0
O488 O 0.59097 0.84535 0.34132 0.0
O489 O 0.64732 0.87874 0.32492 0.0
O490 O 0.20585 0.68127 0.29466 0.0
Cd491 Cd 0.20875 0.74734 0.2931 0.0
Cd492 Cd 0.21702 0.74484 0.32045 0.0
O493 O 0.18983 0.67053 0.31722 0.0
O494 O 0.16875 0.74345 0.27634 0.0
O495 O 0.14628 0.74566 0.29808 0.0
C496 C 0.13562 0.74006 0.2849 0.0
C497 C 0.20037 0.78477 0.33836 0.0
C498 C 0.19451 0.6543 0.30544 0.0
C499 C 0.30686 0.81229 0.30413 0.0
O500 O 0.28832 0.78713 0.31506 0.0
O501 O 0.27997 0.80692 0.29358 0.0
O502 O 0.22087 0.75926 0.34092 0.0
O503 O 0.18385 0.78258 0.32586 0.0
C504 C 0.32492 0.16059 0.19365 0.0
C505 C 0.34012 0.15402 0.18038 0.0
C506 C 0.3571 0.19724 0.20281 0.0
C507 C 0.406 0.22911 0.19913 0.0
H508 H 0.28757 0.13758 0.19699 0.0
H509 H 0.34347 0.2002 0.21293 0.0
S510 S 0.46456 0.22748 0.1656 0.0
N511 N 0.40779 0.18269 0.16406 0.0
N512 N 0.4681 0.25138 0.18118 0.0
C513 C 0.42177 0.22299 0.18587 0.0
C514 C 0.38898 0.18552 0.17656 0.0
C515 C 0.84101 0.20715 0.18801 0.0
C516 C 0.83355 0.18426 0.20114 0.0
C517 C 0.87775 0.21167 0.17888 0.0
C518 C 0.90884 0.19358 0.18245 0.0
H519 H 0.81865 0.22234 0.18476 0.0
H520 H 0.88143 0.22917 0.16886 0.0
S521 S 0.90451 0.12997 0.21556 0.0
N522 N 0.86041 0.14291 0.2172 0.0
N523 N 0.92926 0.15135 0.20012 0.0
C524 C 0.90179 0.17051 0.19556 0.0
C525 C 0.86423 0.1658 0.20485 0.0
C526 C 0.85605 0.64581 0.18749 0.0
C527 C 0.87718 0.66072 0.20084 0.0
C528 C 0.85149 0.67802 0.17836 0.0
C529 C 0.86779 0.72668 0.18215 0.0
H530 H 0.84232 0.60866 0.18405 0.0
H531 H 0.83545 0.66463 0.16817 0.0
S532 S 0.92586 0.78438 0.21595 0.0
N533 N 0.91461 0.72782 0.21739 0.0
N534 N 0.90609 0.7882 0.2003 0.0
C535 C 0.88898 0.74215 0.19549 0.0
C536 C 0.89374 0.70932 0.20478 0.0
C537 C 0.19631 0.37049 0.37006 0.0
C538 C 0.16385 0.32186 0.36625 0.0
C539 C 0.23318 0.40264 0.36095 0.0
C540 C 0.23939 0.38771 0.3476 0.0
H541 H 0.19369 0.38389 0.38025 0.0
H542 H 0.25672 0.43975 0.3644 0.0
S543 S 0.16415 0.26415 0.33245 0.0
N544 N 0.1405 0.26036 0.34809 0.0
N545 N 0.20959 0.32065 0.33104 0.0
C546 C 0.20722 0.33916 0.34364 0.0
C547 C 0.16954 0.30639 0.35291 0.0
C548 C 0.68995 0.83883 0.37006 0.0
C549 C 0.73892 0.85629 0.36637 0.0
C550 C 0.65764 0.8433 0.36095 0.0
C551 C 0.67276 0.86545 0.34771 0.0
H552 H 0.67636 0.82191 0.38015 0.0
H553 H 0.62025 0.82864 0.3643 0.0
S554 S 0.79736 0.91774 0.33295 0.0
N555 N 0.80104 0.89705 0.34848 0.0
N556 N 0.74045 0.90533 0.33142 0.0
C557 C 0.72169 0.88323 0.34389 0.0
C558 C 0.75463 0.87862 0.35317 0.0
C559 C 0.18699 0.88734 0.35448 0.0
C560 C 0.21024 0.8951 0.36756 0.0
C561 C 0.1826 0.85068 0.34535 0.0
C562 C 0.20121 0.81998 0.34886 0.0
H563 H 0.1714 0.9094 0.35128 0.0
H564 H 0.16479 0.84676 0.33538 0.0
S565 S 0.26596 0.82523 0.38182 0.0
N566 N 0.2525 0.86895 0.38351 0.0
N567 N 0.24433 0.80026 0.36642 0.0
C568 C 0.22464 0.82734 0.36192 0.0
C569 C 0.22921 0.86481 0.37121 0.0
C570 C 0.71748 0.85169 0.84509 0.0
C571 C 0.66865 0.81961 0.8488 0.0
C572 C 0.74966 0.88832 0.85424 0.0
C573 C 0.73453 0.89468 0.86755 0.0
H574 H 0.73104 0.84893 0.83493 0.0
H575 H 0.78693 0.91154 0.85087 0.0
S576 S 0.6104 0.82043 0.88246 0.0
N577 N 0.60676 0.79678 0.86684 0.0
N578 N 0.66707 0.86544 0.88397 0.0
C579 C 0.68578 0.8629 0.87142 0.0
C580 C 0.65299 0.82545 0.8621 0.0
C581 C 0.19766 0.83852 0.86958 0.0
C582 C 0.1659 0.85571 0.86591 0.0
C583 C 0.23442 0.84315 0.86045 0.0
C584 C 0.24122 0.86519 0.84721 0.0
H585 H 0.19455 0.82174 0.87969 0.0
H586 H 0.25738 0.82874 0.86379 0.0
S587 S 0.16812 0.91663 0.83246 0.0
N588 N 0.14398 0.89599 0.84801 0.0
N589 N 0.21285 0.90456 0.83091 0.0
C590 C 0.20979 0.88264 0.84339 0.0
C591 C 0.17223 0.87786 0.85269 0.0
C592 C 0.18924 0.31235 0.85381 0.0
C593 C 0.21194 0.32757 0.86697 0.0
C594 C 0.18485 0.34471 0.8447 0.0
C595 C 0.20291 0.39383 0.84831 0.0
H596 H 0.17409 0.27484 0.85053 0.0
H597 H 0.16748 0.33103 0.83467 0.0
S598 S 0.26617 0.45264 0.88148 0.0
N599 N 0.25315 0.39555 0.88308 0.0
N600 N 0.24498 0.45623 0.86603 0.0
C601 C 0.22583 0.40965 0.86144 0.0
C602 C 0.2304 0.37667 0.87071 0.0
C603 C 0.86344 0.70511 0.70315 0.0
C604 C 0.83113 0.65635 0.69944 0.0
C605 C 0.90007 0.7372 0.69396 0.0
C606 C 0.9062 0.72205 0.68063 0.0
H607 H 0.86087 0.71869 0.71331 0.0
H608 H 0.92347 0.77443 0.69734 0.0
S609 S 0.83132 0.59805 0.66573 0.0
N610 N 0.80786 0.59449 0.68138 0.0
N611 N 0.87652 0.65463 0.6642 0.0
C612 C 0.87421 0.67335 0.67677 0.0
C613 C 0.83675 0.64066 0.68612 0.0
C614 C 0.35836 0.17365 0.70333 0.0
C615 C 0.40688 0.18957 0.69946 0.0
C616 C 0.32606 0.17816 0.69423 0.0
C617 C 0.34074 0.19882 0.68081 0.0
H618 H 0.34515 0.158 0.71358 0.0
H619 H 0.28905 0.1648 0.69774 0.0
S620 S 0.46391 0.2462 0.66544 0.0
N621 N 0.46798 0.22689 0.68114 0.0
N622 N 0.40744 0.23529 0.66409 0.0
C623 C 0.38918 0.21492 0.67677 0.0
C624 C 0.4221 0.21024 0.68604 0.0
C625 C 0.89102 0.19925 0.70306 0.0
C626 C 0.8731 0.23045 0.69944 0.0
C627 C 0.88643 0.16242 0.69396 0.0
C628 C 0.86368 0.15501 0.68081 0.0
H629 H 0.90842 0.20289 0.71308 0.0
H630 H 0.90147 0.13997 0.69725 0.0
S631 S 0.80985 0.22624 0.66627 0.0
N632 N 0.83116 0.251 0.68171 0.0
N633 N 0.82263 0.18201 0.66469 0.0
C634 C 0.84539 0.18579 0.67706 0.0
C635 C 0.85015 0.22342 0.68632 0.0
C636 C 1.02415 0.53105 0.5364 0.0
C637 C 0.07267 0.56375 0.53255 0.0
C638 C 0.99196 0.49424 0.52729 0.0
C639 C 1.00675 0.48832 0.51389 0.0
H640 H 1.01085 0.53345 0.54663 0.0
H641 H 0.95492 0.47053 0.53079 0.0
S642 S 0.13001 0.56426 0.49859 0.0
N643 N 0.13392 0.58762 0.51427 0.0
N644 N 0.07358 0.51865 0.49722 0.0
C645 C 0.0552 0.52071 0.50988 0.0
C646 C 0.08801 0.55833 0.51915 0.0
C647 C 0.50614 0.53971 0.52097 0.0
C648 C 0.5 0.51858 0.53433 0.0
C649 C 0.54269 0.54402 0.5118 0.0
C650 C 0.57489 0.52746 0.51555 0.0
H651 H 0.48282 0.55361 0.51757 0.0
H652 H 0.54529 0.56008 0.50161 0.0
S653 S 0.57454 0.46916 0.54934 0.0
N654 N 0.5295 0.48078 0.55083 0.0
N655 N 0.598 0.48886 0.53367 0.0
C656 C 0.56923 0.50624 0.52889 0.0
C657 C 0.53187 0.50174 0.53823 0.0
C658 C 0.51846 1.01225 0.51172 0.0
C659 C 0.53353 0.06057 0.5156 0.0
C660 C 0.52336 0.98026 0.52086 0.0
C661 C 0.5436 0.99506 0.53432 0.0
H662 H 0.50319 0.99897 0.50145 0.0
H663 H 0.51064 0.94337 0.51734 0.0
S664 S 0.58875 0.11781 0.54971 0.0
N665 N 0.56959 0.12163 0.53396 0.0
N666 N 0.57874 0.06166 0.55107 0.0
C667 C 0.55887 0.04332 0.53835 0.0
C668 C 0.55377 0.07592 0.52905 0.0
C669 C 0.5067 0.97915 1.02063 0.0
C670 C 0.49986 0.99422 0.03388 0.0
C671 C 0.54357 1.01138 1.01153 0.0
C672 C 0.57541 0.06024 1.01525 0.0
H673 H 0.48371 0.94185 1.01725 0.0
H674 H 0.54672 0.99783 1.00141 0.0
S675 S 0.57304 0.11852 0.04874 0.0
N676 N 0.52821 0.06175 0.05023 0.0
N677 N 0.59729 0.12219 0.0332 0.0
C678 C 0.569 0.07589 0.02848 0.0
C679 C 0.53133 0.04303 0.03774 0.0
C680 C 0.05051 0.54331 1.01153 0.0
C681 C 1.00189 0.52729 1.01532 0.0
C682 C 0.08258 0.53859 1.02068 0.0
C683 C 0.06757 0.51759 0.03405 0.0
H684 H 0.06397 0.55924 1.00133 0.0
H685 H 0.11971 0.5521 1.01724 0.0
S686 S 0.94394 0.46954 0.04915 0.0
N687 N 0.94028 0.48933 0.03349 0.0
N688 N 1.0004 0.4805 0.0506 0.0
C689 C 1.019 0.50128 0.03798 0.0
C690 C 0.98631 0.5062 0.02867 0.0
C691 C 0.55278 0.49475 0.02707 0.0
C692 C 0.53072 0.48786 1.01383 0.0
C693 C 0.55714 0.53138 0.03621 0.0
C694 C 0.53966 0.5629 0.03254 0.0
H695 H 0.56741 0.47198 0.03041 0.0
H696 H 0.57397 0.53457 0.04631 0.0
S697 S 0.47852 0.56032 0.99911 0.0
N698 N 0.49097 0.51586 0.99755 0.0
N699 N 0.49905 0.58447 1.01466 0.0
C700 C 0.51747 0.55646 1.01933 0.0
C701 C 0.51295 0.51904 1.01002 0.0
C702 C 0.3588 0.05208 0.09821 0.0
C703 C 0.35464 0.05792 0.11267 0.0
C704 C 0.38294 0.02817 0.09312 0.0
C705 C 0.40361 1.00855 0.10225 0.0
H706 H 0.34129 0.06404 0.09073 0.0
H707 H 0.3828 1.02258 0.08194 0.0
S708 S 0.40916 1.02004 0.14094 0.0
N709 N 0.3784 0.04681 0.13598 0.0
N710 N 0.42303 1.00151 0.12643 0.0
C711 C 0.40272 1.01711 0.11667 0.0
C712 C 0.37851 0.04188 0.12187 0.0
C713 C 0.04961 0.39628 0.1163 0.0
C714 C 0.05323 0.4062 0.10184 0.0
C715 C 1.02527 0.34826 0.12144 0.0
C716 C 1.00384 0.30792 0.11235 0.0
H717 H 0.06767 0.42575 0.12374 0.0
H718 H 1.02583 0.34283 0.13261 0.0
S719 S 0.99668 0.31369 0.07369 0.0
N720 N 1.02816 0.37123 0.07859 0.0
N721 N 0.98316 0.28138 0.08823 0.0
C722 C 1.00422 0.31732 0.09794 0.0
C723 C 1.02864 0.36626 0.0927 0.0
C724 C 0.66509 0.66397 0.11609 0.0
C725 C 0.65506 0.65855 0.10163 0.0
C726 C 0.71316 0.68792 0.12118 0.0
C727 C 0.75343 0.708 0.11205 0.0
H728 H 0.63563 0.65161 0.12358 0.0
H729 H 0.71862 0.69314 0.13237 0.0
S730 S 0.74746 0.69799 0.07332 0.0
N731 N 0.68992 0.67076 0.07829 0.0
N732 N 0.77986 0.71607 0.08784 0.0
C733 C 0.74397 0.69994 0.09761 0.0
C734 C 0.69497 0.67515 0.09241 0.0
C735 C 0.04046 0.37156 0.45448 0.0
C736 C 1.02015 0.39156 0.44535 0.0
C737 C 0.06426 0.34731 0.44938 0.0
C738 C 0.06928 0.34235 0.43492 0.0
H739 H 1.03555 0.37207 0.46567 0.0
H740 H 0.0768 0.33038 0.45687 0.0
S741 S 1.02918 0.39473 0.4066 0.0
N742 N 1.01148 0.4094 0.42114 0.0
N743 N 0.05651 0.3645 0.41157 0.0
C744 C 0.05248 0.36549 0.4257 0.0
C745 C 1.02785 0.38984 0.4309 0.0
C746 C 0.69016 0.68151 0.45482 0.0
C747 C 0.66948 0.6414 0.44564 0.0
C748 C 0.7147 0.72965 0.44978 0.0
C749 C 0.71927 0.73993 0.43533 0.0
H750 H 0.68998 0.67583 0.46599 0.0
H751 H 0.73214 0.75895 0.4573 0.0
S752 S 0.66513 0.64812 0.40693 0.0
N753 N 0.65063 0.61545 0.42141 0.0
N754 N 0.69606 0.70555 0.41197 0.0
C755 C 0.69547 0.70023 0.42608 0.0
C756 C 0.67084 0.65115 0.43122 0.0
C757 C 0.3794 1.02146 0.45504 0.0
C758 C 0.41968 0.04028 0.44591 0.0
C759 C 0.33135 0.99776 0.44994 0.0
C760 C 0.32132 0.99135 0.43548 0.0
H761 H 0.38491 0.02755 0.4662 0.0
H762 H 0.30194 0.98644 0.4574 0.0
S763 S 0.41361 0.027 0.40727 0.0
N764 N 0.44604 0.04591 0.42177 0.0
N765 N 0.3561 1.00101 0.41221 0.0
C766 C 0.36118 1.00658 0.42631 0.0
C767 C 0.41017 0.03113 0.43151 0.0
C768 C 0.71638 0.99876 0.94969 0.0
C769 C 0.72015 0.99227 0.93525 0.0
C770 C 0.69183 1.02233 0.95473 0.0
C771 C 0.67033 0.04096 0.94555 0.0
H772 H 0.73448 0.98756 0.95719 0.0
H773 H 0.69228 0.02847 0.96588 0.0
S774 S 0.66357 0.02752 0.90691 0.0
N775 N 0.69519 1.00173 0.91193 0.0
N776 N 0.64979 0.0464 0.92137 0.0
C777 C 0.67088 0.03177 0.93116 0.0
C778 C 0.69551 1.00734 0.92603 0.0
C779 C 0.04125 0.68194 0.9545 0.0
C780 C 1.0215 0.64173 0.94535 0.0
C781 C 0.06496 0.73003 0.94942 0.0
C782 C 0.07046 0.74019 0.93497 0.0
H783 H 1.03594 0.67637 0.96568 0.0
H784 H 0.07707 0.75941 0.95693 0.0
S785 S 1.03189 0.64807 0.90663 0.0
N786 N 1.01386 0.61554 0.92114 0.0
N787 N 0.05872 0.70555 0.91162 0.0
C788 C 0.05421 0.70037 0.92574 0.0
C789 C 1.02967 0.65134 0.93092 0.0
C790 C 0.38074 0.37051 0.9543 0.0
C791 C 0.42115 0.39148 0.94522 0.0
C792 C 0.33276 0.34625 0.94915 0.0
C793 C 0.32295 0.34227 0.93468 0.0
H794 H 0.38606 0.37022 0.96548 0.0
H795 H 0.30322 0.32852 0.95659 0.0
S796 S 0.41569 0.39765 0.90653 0.0
N797 N 0.44791 0.41141 0.92108 0.0
N798 N 0.3581 0.36657 0.91142 0.0
C799 C 0.36296 0.36645 0.92553 0.0
C800 C 0.41188 0.39078 0.93079 0.0
C801 C 1.01041 0.70444 0.59828 0.0
C802 C 1.00412 0.70818 0.61273 0.0
C803 C 1.03413 0.6801 0.59319 0.0
C804 C 0.0531 0.6588 0.60232 0.0
H805 H 0.99894 0.72239 0.59081 0.0
H806 H 0.04009 0.68056 0.58202 0.0
S807 S 0.04036 0.65212 0.64098 0.0
N808 N 1.01419 0.68346 0.63602 0.0
N809 N 0.05913 0.63846 0.62647 0.0
C810 C 0.04414 0.65934 0.61673 0.0
C811 C 1.01956 0.68376 0.62192 0.0
C812 C 0.37394 0.34949 0.6216 0.0
C813 C 0.35446 0.30915 0.6125 0.0
C814 C 0.39771 0.39751 0.61646 0.0
C815 C 0.40356 0.40743 0.602 0.0
H816 H 0.36833 0.34409 0.63277 0.0
H817 H 0.40956 0.427 0.62392 0.0
S818 S 0.36603 0.31489 0.57381 0.0
N819 N 0.34756 0.28258 0.58835 0.0
N820 N 0.39262 0.37245 0.57872 0.0
C821 C 0.38766 0.36748 0.59284 0.0
C822 C 0.36302 0.31853 0.59807 0.0
C823 C 0.74255 0.05229 0.59871 0.0
C824 C 0.75247 0.05822 0.61317 0.0
C825 C 0.69453 0.02856 0.59359 0.0
C826 C 0.65418 1.00919 0.60269 0.0
H827 H 0.77204 0.06406 0.59126 0.0
H828 H 0.68914 1.0229 0.58241 0.0
S829 S 0.6599 1.021 0.64137 0.0
N830 N 0.71746 0.04747 0.63645 0.0
N831 N 0.62759 1.00249 0.62684 0.0
C832 C 0.66355 1.01783 0.61711 0.0
C833 C 0.7125 0.04242 0.62234 0.0
C834 C 0.71785 0.69636 0.76031 0.0
C835 C 0.73846 0.67667 0.76944 0.0
C836 C 0.6936 0.72015 0.76541 0.0
C837 C 0.68922 0.72577 0.77986 0.0
H838 H 0.71786 0.69091 0.74913 0.0
H839 H 0.67617 0.73218 0.75792 0.0
S840 S 0.74342 0.68757 0.80815 0.0
N841 N 0.75758 0.66934 0.79363 0.0
N842 N 0.71266 0.71434 0.80318 0.0
C843 C 0.713 0.70964 0.78907 0.0
C844 C 0.73737 0.68503 0.78387 0.0
C845 C 0.38182 0.06383 0.78262 0.0
C846 C 0.38681 0.07389 0.76816 0.0
C847 C 0.3575 1.01577 0.78771 0.0
C848 C 0.33746 0.97551 0.77858 0.0
H849 H 0.39879 0.09328 0.79011 0.0
H850 H 0.35699 1.0103 0.79891 0.0
S851 S 0.33433 0.98155 0.73984 0.0
N852 N 0.36463 0.03908 0.74481 0.0
N853 N 0.3196 0.94912 0.75437 0.0
C854 C 0.33919 0.985 0.76414 0.0
C855 C 0.36361 0.03399 0.75894 0.0
C856 C 1.00012 0.33177 0.78259 0.0
C857 C 0.9897 0.32621 0.76816 0.0
C858 C 0.04831 0.35554 0.78758 0.0
C859 C 0.08835 0.37529 0.77836 0.0
H860 H 0.97087 0.31967 0.79014 0.0
H861 H 0.05408 0.36091 0.79876 0.0
S862 S 0.08132 0.36475 0.73965 0.0
N863 N 1.02392 0.33789 0.74475 0.0
N864 N 0.11412 0.38287 0.75411 0.0
C865 C 0.07849 0.36706 0.76395 0.0
C866 C 1.02936 0.34246 0.75886 0.0
C867 C 0.36791 0.34605 0.2602 0.0
C868 C 0.38703 0.32471 0.26926 0.0
C869 C 0.3442 0.3703 0.26537 0.0
C870 C 0.33805 0.37389 0.27984 0.0
H871 H 0.37377 0.34662 0.24902 0.0
H872 H 0.33262 0.3883 0.25795 0.0
S873 S 0.3747 0.31764 0.30793 0.0
N874 N 0.39334 0.30416 0.29337 0.0
N875 N 0.34841 0.34897 0.30307 0.0
C876 C 0.35363 0.34941 0.28896 0.0
C877 C 0.37821 0.3251 0.28369 0.0
C878 C 0.70636 1.01491 0.2885 0.0
C879 C 0.68705 0.97465 0.27938 0.0
C880 C 0.73034 0.06297 0.2834 0.0
C881 C 0.73657 0.07302 0.26895 0.0
H882 H 0.70048 1.00943 0.29967 0.0
H883 H 0.74205 0.0924 0.29087 0.0
S884 S 0.69965 0.98071 0.24071 0.0
N885 N 0.68075 0.94827 0.25523 0.0
N886 N 0.72618 0.03822 0.24566 0.0
C887 C 0.72084 0.03314 0.25977 0.0
C888 C 0.696 0.98414 0.26497 0.0
C889 C 1.02685 0.6941 0.26031 0.0
C890 C 0.98663 0.67398 0.26947 0.0
C891 C 0.07495 0.71817 0.26538 0.0
C892 C 0.08508 0.72369 0.27983 0.0
H893 H 1.02133 0.68884 0.24913 0.0
H894 H 0.10436 0.73057 0.25788 0.0
S895 S 0.99284 0.68422 0.30819 0.0
N896 N 0.96034 0.66599 0.29368 0.0
N897 N 0.05036 0.71153 0.30319 0.0
C898 C 0.04521 0.70706 0.28907 0.0
C899 C 0.99618 0.68214 0.2839 0.0
C900 C 0.13492 0.18749 0.12548 0.0
C901 C 0.12176 0.20049 0.13821 0.0
C902 C 0.17117 0.17438 0.12493 0.0
C903 C 0.19563 0.17382 0.1371 0.0
H904 H 0.11476 0.18397 0.11599 0.0
H905 H 0.17695 0.1606 0.11518 0.0
S906 S 0.18366 0.21584 0.17233 0.0
N907 N 0.14271 0.22023 0.16274 0.0
N908 N 0.21065 0.19567 0.16169 0.0
C909 C 0.18683 0.19201 0.14953 0.0
C910 C 0.14998 0.20536 0.1501 0.0
C911 C 0.88722 1.00921 0.12516 0.0
C912 C 0.88793 0.03402 0.13738 0.0
C913 C 0.87382 0.95976 0.12562 0.0
C914 C 0.8607 0.9333 0.13831 0.0
H915 H 0.90106 0.02896 0.11544 0.0
H916 H 0.87724 0.94327 0.11609 0.0
S917 S 0.84571 0.97931 0.17256 0.0
N918 N 0.8661 0.02672 0.16199 0.0
N919 N 0.84105 0.93409 0.16287 0.0
C920 C 0.856 0.95649 0.15026 0.0
C921 C 0.86962 1.00677 0.14978 0.0
C922 C 0.05417 0.88175 0.1495 0.0
C923 C 1.02755 0.8677 0.13689 0.0
C924 C 0.10366 0.91724 0.14979 0.0
C925 C 0.12867 0.94035 0.13745 0.0
H926 H 1.03585 0.86761 0.15941 0.0
H927 H 0.12126 0.92907 0.15987 0.0
S928 S 0.0785 0.90886 0.10138 0.0
N929 N 1.03185 0.87385 0.11156 0.0
N930 N 0.12505 0.9402 0.11197 0.0
C931 C 0.10388 0.92262 0.12461 0.0
C932 C 0.0533 0.88633 0.12435 0.0
C933 C 0.19579 0.16705 0.39836 0.0
C934 C 0.18415 0.1816 0.41104 0.0
C935 C 0.21 0.13173 0.39802 0.0
C936 C 0.21307 0.1093 0.41036 0.0
H937 H 0.19069 0.18064 0.38848 0.0
H938 H 0.215 0.11946 0.38791 0.0
S939 S 0.19722 0.14239 0.44651 0.0
N940 N 0.18447 0.17672 0.43638 0.0
N941 N 0.21174 0.11069 0.43585 0.0
C942 C 0.20696 0.12757 0.42322 0.0
C943 C 0.19244 0.16368 0.42355 0.0
C944 C 0.93894 0.08949 0.42342 0.0
C945 C 0.95128 0.11603 0.41074 0.0
C946 C 0.90272 0.04011 0.42396 0.0
C947 C 0.87746 1.01548 0.41184 0.0
H948 H 0.95976 0.10582 0.43283 0.0
H949 H 0.89762 1.02025 0.43362 0.0
S950 S 0.88706 0.07057 0.37688 0.0
N951 N 0.92867 0.1156 0.3864 0.0
N952 N 0.86078 1.02309 0.38744 0.0
C953 C 0.88541 0.04287 0.39952 0.0
C954 C 0.92224 0.09307 0.39896 0.0
C955 C 1.02169 0.87583 0.42337 0.0
C956 C 0.04636 0.87627 0.41114 0.0
C957 C 0.97234 0.86281 0.42294 0.0
C958 C 0.94582 0.84979 0.41026 0.0
H959 H 0.0415 0.88957 0.43309 0.0
H960 H 0.95598 0.86639 0.43248 0.0
S961 S 0.99137 0.83423 0.37601 0.0
N962 N 0.0388 0.85434 0.38654 0.0
N963 N 0.94634 0.82998 0.38571 0.0
C964 C 0.96884 0.84487 0.39831 0.0
C965 C 1.01902 0.85812 0.39876 0.0
C966 C 0.90454 0.8768 0.92339 0.0
C967 C 0.87974 0.87665 0.91122 0.0
C968 C 0.94082 0.86371 0.92291 0.0
C969 C 0.95367 0.85002 0.91024 0.0
H970 H 0.89899 0.89109 0.93307 0.0
H971 H 0.96123 0.86777 0.93238 0.0
S972 S 0.89088 0.83274 0.87618 0.0
N973 N 0.86413 0.85346 0.88672 0.0
N974 N 0.93211 0.82894 0.8858 0.0
C975 C 0.92515 0.84451 0.89837 0.0
C976 C 0.88828 0.85783 0.89887 0.0
C977 C 0.18804 0.04049 0.92321 0.0
C978 C 0.18789 1.01553 0.91108 0.0
C979 C 0.20134 0.0899 0.92262 0.0
C980 C 0.2149 0.11614 0.90989 0.0
H981 H 0.17379 1.02088 0.93293 0.0
H982 H 0.19746 0.1065 0.93207 0.0
S983 S 0.23152 0.06971 0.87593 0.0
N984 N 0.21079 1.02248 0.88657 0.0
N985 N 0.23565 0.11504 0.88545 0.0
C986 C 0.22021 0.09283 0.89807 0.0
C987 C 0.2067 0.0426 0.89868 0.0
C988 C 1.02124 0.16689 0.89775 0.0
C989 C 0.04768 0.18183 0.91038 0.0
C990 C 0.97166 0.13168 0.8975 0.0
C991 C 0.94636 0.10973 0.90991 0.0
H992 H 0.03975 0.18011 0.88782 0.0
H993 H 0.95419 0.11909 0.88744 0.0
S994 S 0.99599 0.14401 0.94596 0.0
N995 N 0.04292 0.17787 0.93573 0.0
N996 N 0.94954 0.11202 0.93539 0.0
C997 C 0.971 0.1284 0.92272 0.0
C998 C 1.02168 0.16441 0.92294 0.0
C999 C 0.87436 0.92772 0.62536 0.0
C1000 C 0.86067 0.94043 0.63806 0.0
C1001 C 0.88754 0.89152 0.62484 0.0
C1002 C 0.88748 0.86665 0.63699 0.0
H1003 H 0.87838 0.94821 0.6159 0.0
H1004 H 0.90186 0.88611 0.61514 0.0
S1005 S 0.84348 0.87731 0.67206 0.0
N1006 N 0.83959 0.91858 0.66249 0.0
N1007 N 0.86427 0.85074 0.66148 0.0
C1008 C 0.86859 0.87499 0.64935 0.0
C1009 C 0.85517 0.91179 0.6499 0.0
C1010 C 0.17846 1.00858 0.65037 0.0
C1011 C 0.19349 0.03511 0.63775 0.0
C1012 C 0.14307 0.95906 0.6506 0.0
C1013 C 0.12101 0.93393 0.63819 0.0
H1014 H 0.19179 0.02697 0.66031 0.0
H1015 H 0.13046 0.94151 0.66066 0.0
S1016 S 0.15526 0.98389 0.60215 0.0
N1017 N 0.18936 0.03064 0.6124 0.0
N1018 N 0.12315 0.93738 0.61271 0.0
C1019 C 0.13968 0.95866 0.62539 0.0
C1020 C 0.17589 1.00927 0.62519 0.0
C1021 C 0.10358 0.19972 0.65064 0.0
C1022 C 0.12913 0.20271 0.63833 0.0
C1023 C 0.054 0.18534 0.65027 0.0
C1024 C 1.02781 0.17345 0.63758 0.0
H1025 H 0.12085 0.20489 0.66076 0.0
H1026 H 1.03528 0.18031 0.66014 0.0
S1027 S 0.08022 0.18624 0.60215 0.0
N1028 N 0.12645 0.20104 0.61284 0.0
N1029 N 1.03308 0.17348 0.61225 0.0
C1030 C 0.05407 0.18167 0.62509 0.0
C1031 C 0.10475 0.19635 0.62545 0.0
C1032 C 0.80987 0.53103 0.48369 0.0
C1033 C 0.78722 0.53369 0.47135 0.0
C1034 C 0.84524 0.51689 0.48339 0.0
C1035 C 0.85966 0.50493 0.47074 0.0
H1036 H 0.79775 0.53635 0.49379 0.0
H1037 H 0.85902 0.51214 0.49329 0.0
S1038 S 0.81972 0.51665 0.43524 0.0
N1039 N 0.78814 0.53145 0.44587 0.0
N1040 N 0.85432 0.50436 0.44541 0.0
C1041 C 0.84147 0.51273 0.45822 0.0
C1042 C 0.80528 0.52716 0.4585 0.0
C1043 C 0.52822 0.29107 0.48345 0.0
C1044 C 0.5263 0.26591 0.47115 0.0
C1045 C 0.5422 0.34054 0.48309 0.0
C1046 C 0.55472 0.367 0.47045 0.0
H1047 H 0.52248 0.27359 0.49355 0.0
H1048 H 0.54644 0.359 0.49297 0.0
S1049 S 0.5449 0.31563 0.43502 0.0
N1050 N 0.52973 0.26921 0.44567 0.0
N1051 N 0.55652 0.36239 0.44513 0.0
C1052 C 0.54758 0.3411 0.45795 0.0
C1053 C 0.53332 0.29053 0.45828 0.0
C1054 C 0.76972 0.25047 0.48387 0.0
C1055 C 0.79516 0.27287 0.47152 0.0
C1056 C 0.72014 0.21526 0.48354 0.0
C1057 C 0.69386 0.20076 0.47087 0.0
H1058 H 0.78707 0.26272 0.49397 0.0
H1059 H 0.70149 0.2017 0.49343 0.0
S1060 S 0.74592 0.23997 0.43539 0.0
N1061 N 0.79225 0.27156 0.44603 0.0
N1062 N 0.69888 0.20569 0.44554 0.0
C1063 C 0.72 0.21865 0.45836 0.0
C1064 C 0.77067 0.25467 0.45867 0.0
C1065 C 0.86287 0.50108 0.73161 0.0
C1066 C 0.85135 0.51578 0.74428 0.0
C1067 C 0.87694 0.46566 0.73128 0.0
C1068 C 0.87997 0.44325 0.74363 0.0
H1069 H 0.85782 0.51468 0.72171 0.0
H1070 H 0.8819 0.45332 0.72118 0.0
S1071 S 0.86423 0.47655 0.77976 0.0
N1072 N 0.85165 0.51096 0.76961 0.0
N1073 N 0.87861 0.4447 0.76912 0.0
C1074 C 0.87391 0.46159 0.75648 0.0
C1075 C 0.85955 0.49783 0.75679 0.0
C1076 C 0.56066 0.37632 0.73199 0.0
C1077 C 0.54688 0.34977 0.74462 0.0
C1078 C 0.59596 0.42586 0.73166 0.0
C1079 C 0.61915 0.451 0.74397 0.0
H1080 H 0.54649 0.3579 0.72211 0.0
H1081 H 0.60762 0.44342 0.72157 0.0
S1082 S 0.58827 0.40099 0.78008 0.0
N1083 N 0.5533 0.35422 0.76994 0.0
N1084 N 0.61932 0.44753 0.76945 0.0
C1085 C 0.60165 0.42625 0.75683 0.0
C1086 C 0.56555 0.37561 0.75714 0.0
C1087 C 0.6892 0.20979 0.75685 0.0
C1088 C 0.71394 0.2097 0.7447 0.0
C1089 C 0.63983 0.19669 0.75633 0.0
C1090 C 0.6134 0.18308 0.74364 0.0
H1091 H 0.70898 0.22406 0.76654 0.0
H1092 H 0.62341 0.20072 0.7658 0.0
S1093 S 0.65919 0.166 0.70962 0.0
N1094 N 0.70656 0.18664 0.7202 0.0
N1095 N 0.61407 0.16212 0.7192 0.0
C1096 C 0.63648 0.1776 0.73179 0.0
C1097 C 0.68667 0.19091 0.73233 0.0
C1098 C 0.59662 0.18395 0.23157 0.0
C1099 C 0.6195 0.18183 0.24393 0.0
C1100 C 0.56107 0.19788 0.23183 0.0
C1101 C 0.54675 0.21018 0.24444 0.0
H1102 H 0.60865 0.17838 0.2215 0.0
H1103 H 0.54711 0.20222 0.22192 0.0
S1104 S 0.58727 0.19978 0.27998 0.0
N1105 N 0.61886 0.18483 0.26941 0.0
N1106 N 0.55242 0.21156 0.26977 0.0
C1107 C 0.56518 0.20287 0.25699 0.0
C1108 C 0.60151 0.18864 0.25676 0.0
C1109 C 0.85353 0.37298 0.25673 0.0
C1110 C 0.85319 0.34809 0.24457 0.0
C1111 C 0.86672 0.42237 0.2562 0.0
C1112 C 0.88 0.44867 0.24348 0.0
H1113 H 0.83952 0.35332 0.26646 0.0
H1114 H 0.863 0.4389 0.26568 0.0
S1115 S 0.89607 0.40249 0.2094 0.0
N1116 N 0.8756 0.3552 0.22002 0.0
N1117 N 0.90029 0.44773 0.21898 0.0
C1118 C 0.88511 0.42544 0.23161 0.0
C1119 C 0.87169 0.37523 0.23217 0.0
C1120 C 0.68817 0.49162 0.25621 0.0
C1121 C 0.71315 0.51562 0.24398 0.0
C1122 C 0.63867 0.45569 0.25574 0.0
C1123 C 0.61234 0.4424 0.24303 0.0
H1124 H 0.7078 0.49751 0.26595 0.0
H1125 H 0.62204 0.43584 0.26527 0.0
S1126 S 0.65882 0.50322 0.20877 0.0
N1127 N 0.70615 0.53013 0.21935 0.0
N1128 N 0.61343 0.46279 0.21845 0.0
C1129 C 0.63571 0.4702 0.23108 0.0
C1130 C 0.68603 0.50672 0.23157 0.0
C1131 C 0.55382 0.22349 0.95816 0.0
C1132 C 0.55434 0.19912 0.97036 0.0
C1133 C 0.54059 0.25967 0.95866 0.0
C1134 C 0.52744 0.27283 0.97137 0.0
H1135 H 0.56772 0.21773 0.94844 0.0
H1136 H 0.54417 0.27979 0.94916 0.0
S1137 S 0.51196 0.21109 1.00554 0.0
N1138 N 0.5323 0.18415 0.99494 0.0
N1139 N 0.50753 0.25194 0.99591 0.0
C1140 C 0.52252 0.24466 0.98328 0.0
C1141 C 0.53599 0.2079 0.98276 0.0
C1142 C 0.8465 0.34106 0.98297 0.0
C1143 C 0.86087 0.36749 0.97032 0.0
C1144 C 0.81092 0.29161 0.98329 0.0
C1145 C 0.78802 0.26644 0.97096 0.0
H1146 H 0.86048 0.35951 0.99286 0.0
H1147 H 0.79887 0.27416 0.99339 0.0
S1148 S 0.82026 0.31609 0.93484 0.0
N1149 N 0.85517 0.36285 0.94499 0.0
N1150 N 0.78862 0.26971 0.94548 0.0
C1151 C 0.80601 0.29104 0.95811 0.0
C1152 C 0.8424 0.34158 0.9578 0.0
C1153 C 0.77089 0.53193 0.98354 0.0
C1154 C 0.79623 0.53477 0.9712 0.0
C1155 C 0.72132 0.5176 0.98323 0.0
C1156 C 0.69495 0.50563 0.97058 0.0
H1157 H 0.78831 0.5372 0.99364 0.0
H1158 H 0.70276 0.5127 0.99313 0.0
S1159 S 0.74677 0.51797 0.93508 0.0
N1160 N 0.79316 0.53282 0.94571 0.0
N1161 N 0.69981 0.50538 0.94524 0.0
C1162 C 0.721 0.51368 0.95805 0.0
C1163 C 0.77166 0.5283 0.95835 0.0
C1164 C 0.47916 0.8668 0.81693 0.0
C1165 C 0.4566 0.86974 0.80461 0.0
C1166 C 0.51445 0.85253 0.81657 0.0
C1167 C 0.52882 0.84072 0.80388 0.0
H1168 H 0.467 0.87189 0.82704 0.0
H1169 H 0.52813 0.84751 0.82644 0.0
S1170 S 0.48926 0.85352 0.76844 0.0
N1171 N 0.45771 0.86818 0.77912 0.0
N1172 N 0.52368 0.84083 0.77855 0.0
C1173 C 0.51079 0.84894 0.79139 0.0
C1174 C 0.47472 0.86351 0.79173 0.0
C1175 C 0.21336 0.67517 0.8166 0.0
C1176 C 0.22476 0.70164 0.80397 0.0
C1177 C 0.19934 0.62568 0.81685 0.0
C1178 C 0.19625 0.6005 0.80445 0.0
H1179 H 0.21842 0.6936 0.82653 0.0
H1180 H 0.19445 0.60819 0.82692 0.0
S1181 S 0.21173 0.65025 0.76839 0.0
N1182 N 0.22433 0.69703 0.77862 0.0
N1183 N 0.19747 0.60382 0.77897 0.0
C1184 C 0.20223 0.62516 0.79164 0.0
C1185 C 0.21654 0.67574 0.79141 0.0
C1186 C 0.43651 0.59497 0.79157 0.0
C1187 C 0.46291 0.60754 0.80427 0.0
C1188 C 0.38719 0.55859 0.79102 0.0
C1189 C 0.36247 0.53341 0.80314 0.0
H1190 H 0.4529 0.61569 0.78214 0.0
H1191 H 0.36742 0.55328 0.78133 0.0
S1192 S 0.41719 0.54372 0.83819 0.0
N1193 N 0.46226 0.5853 0.82866 0.0
N1194 N 0.36985 0.51714 0.8276 0.0
C1195 C 0.38972 0.54165 0.8155 0.0
C1196 C 0.43986 0.57862 0.81608 0.0
C1197 C 0.52853 0.83286 0.06461 0.0
C1198 C 0.51658 0.84745 0.07722 0.0
C1199 C 0.54254 0.79738 0.06436 0.0
C1200 C 0.54504 0.77479 0.07674 0.0
H1201 H 0.52391 0.84661 0.05468 0.0
H1202 H 0.54789 0.78517 0.05429 0.0
S1203 S 0.52786 0.80764 0.11279 0.0
N1204 N 0.51579 0.84227 0.10256 0.0
N1205 N 0.54261 0.77589 0.10222 0.0
C1206 C 0.53848 0.79298 0.08955 0.0
C1207 C 0.5242 0.82928 0.08978 0.0
C1208 C 0.22737 0.70751 0.06455 0.0
C1209 C 0.21311 0.68135 0.07724 0.0
C1210 C 0.26237 0.75715 0.06416 0.0
C1211 C 0.28477 0.78278 0.07648 0.0
H1212 H 0.2138 0.68876 0.05468 0.0
H1213 H 0.27446 0.77442 0.05405 0.0
S1214 S 0.2523 0.7339 0.11267 0.0
N1215 N 0.21817 0.68668 0.10257 0.0
N1216 N 0.28362 0.78016 0.10197 0.0
C1217 C 0.26676 0.75839 0.08936 0.0
C1218 C 0.23097 0.70766 0.08973 0.0
C1219 C 0.3548 0.54071 0.08997 0.0
C1220 C 0.37961 0.54087 0.07781 0.0
C1221 C 0.3054 0.52748 0.08946 0.0
C1222 C 0.279 0.514 0.07676 0.0
H1223 H 0.37453 0.5549 0.09967 0.0
H1224 H 0.28892 0.53135 0.09893 0.0
S1225 S 0.32499 0.49745 0.0427 0.0
N1226 N 0.37235 0.51808 0.05328 0.0
N1227 N 0.27979 0.49334 0.05229 0.0
C1228 C 0.30216 0.5087 0.06489 0.0
C1229 C 0.35239 0.52215 0.06543 0.0
C1230 C 0.22735 0.53192 0.56506 0.0
C1231 C 0.21321 0.54437 0.57768 0.0
C1232 C 0.26281 0.51788 0.56478 0.0
C1233 C 0.28582 0.51584 0.57712 0.0
H1234 H 0.2133 0.53623 0.55516 0.0
H1235 H 0.27471 0.51219 0.5547 0.0
S1236 S 0.25415 0.53432 0.61319 0.0
N1237 N 0.21921 0.54605 0.603 0.0
N1238 N 0.28553 0.51915 0.6026 0.0
C1239 C 0.26802 0.52283 0.58996 0.0
C1240 C 0.23175 0.53715 0.59021 0.0
C1241 C 0.53092 0.7091 0.565 0.0
C1242 C 0.51877 0.68278 0.57768 0.0
C1243 C 0.54526 0.75867 0.56465 0.0
C1244 C 0.54791 0.78405 0.57696 0.0
H1245 H 0.52613 0.6905 0.55513 0.0
H1246 H 0.55065 0.77605 0.55454 0.0
S1247 S 0.53062 0.73474 0.61312 0.0
N1248 N 0.51817 0.68774 0.603 0.0
N1249 N 0.54563 0.78109 0.60245 0.0
C1250 C 0.54129 0.75954 0.58984 0.0
C1251 C 0.52666 0.70889 0.59017 0.0
C1252 C 0.35398 0.83419 0.56461 0.0
C1253 C 0.3802 0.84868 0.57729 0.0
C1254 C 0.30439 0.79901 0.56427 0.0
C1255 C 0.27888 0.77663 0.57661 0.0
H1256 H 0.37266 0.84776 0.55472 0.0
H1257 H 0.28708 0.78681 0.55417 0.0
S1258 S 0.32797 0.80945 0.61276 0.0
N1259 N 0.37506 0.84372 0.60262 0.0
N1260 N 0.28168 0.7779 0.6021 0.0
C1261 C 0.30332 0.79478 0.58947 0.0
C1262 C 0.354 0.83077 0.58979 0.0
C1263 C 0.21185 0.54962 0.31673 0.0
C1264 C 0.22382 0.53505 0.30411 0.0
C1265 C 0.19791 0.58515 0.31699 0.0
C1266 C 0.19544 0.60779 0.30462 0.0
H1267 H 0.21642 0.53581 0.32666 0.0
H1268 H 0.19256 0.59733 0.32707 0.0
S1269 S 0.21255 0.57497 0.26856 0.0
N1270 N 0.22459 0.5403 0.27878 0.0
N1271 N 0.19785 0.60674 0.27914 0.0
C1272 C 0.20198 0.58961 0.2918 0.0
C1273 C 0.21622 0.55328 0.29156 0.0
C1274 C 0.51207 0.67463 0.3175 0.0
C1275 C 0.52704 0.70083 0.30482 0.0
C1276 C 0.47712 0.62497 0.31781 0.0
C1277 C 0.45547 0.59937 0.30543 0.0
H1278 H 0.52505 0.69335 0.3274 0.0
H1279 H 0.46445 0.60766 0.3279 0.0
S1280 S 0.48998 0.64837 0.26931 0.0
N1281 N 0.52347 0.69558 0.27948 0.0
N1282 N 0.45809 0.60206 0.27994 0.0
C1283 C 0.47419 0.62381 0.29259 0.0
C1284 C 0.50994 0.67456 0.2923 0.0
C1285 C 0.435 0.85444 0.29204 0.0
C1286 C 0.4613 0.86833 0.30475 0.0
C1287 C 0.38563 0.84132 0.29144 0.0
C1288 C 0.36076 0.84166 0.30354 0.0
H1289 H 0.45151 0.85018 0.28263 0.0
H1290 H 0.36595 0.82679 0.28175 0.0
S1291 S 0.41514 0.88621 0.33861 0.0
N1292 N 0.46037 0.88988 0.32912 0.0
N1293 N 0.36787 0.8653 0.32798 0.0
C1294 C 0.3879 0.86076 0.3159 0.0
C1295 C 0.43809 0.87411 0.31653 0.0
loop_
_geom_bond_atom_site_label_1
_geom_bond_atom_site_label_2
_geom_bond_distance
_geom_bond_site_symmetry_2
_ccdc_geom_bond_type
O0 Cd1 2.223 1_565 S
O0 C8 1.315 . S
Cd1 O0 2.223 1_545 S
Cd1 O4 2.297 1_545 S
Cd1 O5 2.439 . S
Cd1 O11 2.240 . S
Cd2 O3 2.240 1_545 S
Cd2 O10 2.223 . S
Cd2 O12 2.297 . S
Cd2 O13 2.439 . S
O3 Cd2 2.240 1_565 S
O3 C8 1.279 . S
O4 Cd1 2.297 1_565 S
O4 C6 1.247 . S
O5 Cd1 2.439 . S
O5 C6 1.208 1_545 S
C6 O4 1.247 . S
C6 O5 1.208 1_565 S
C7 O12 1.247 . S
C7 O13 1.208 . S
C8 O0 1.315 . S
C8 O3 1.279 . S
C9 O10 1.315 . S
C9 O11 1.279 . S
O10 Cd2 2.223 . S
O10 C9 1.315 . S
O11 Cd1 2.240 . S
O11 C9 1.279 . S
O12 Cd2 2.297 . S
O12 C7 1.247 . S
O13 Cd2 2.439 . S
O13 C7 1.208 . S
O14 Cd15 2.223 1_455 S
O14 C22 1.315 . S
Cd15 O14 2.223 1_655 S
Cd15 O18 2.297 1_655 S
Cd15 O19 2.439 . S
Cd15 O25 2.240 . S
Cd16 O17 2.240 1_655 S
Cd16 O24 2.223 . S
Cd16 O26 2.297 . S
Cd16 O27 2.439 . S
O17 Cd16 2.240 1_455 S
O17 C22 1.279 . S
O18 Cd15 2.297 1_455 S
O18 C20 1.247 . S
O19 Cd15 2.439 . S
O19 C20 1.208 1_655 S
C20 O18 1.247 . S
C20 O19 1.208 1_455 S
C21 O26 1.247 . S
C21 O27 1.208 . S
C22 O14 1.315 . S
C22 O17 1.279 . S
C23 O24 1.315 . S
C23 O25 1.279 . S
O24 Cd16 2.223 . S
O24 C23 1.315 . S
O25 Cd15 2.240 . S
O25 C23 1.279 . S
O26 Cd16 2.297 . S
O26 C21 1.247 . S
O27 Cd16 2.439 . S
O27 C21 1.208 . S
O28 Cd29 2.223 . S
O28 C36 1.315 . S
Cd29 O28 2.223 . S
Cd29 O32 2.297 . S
Cd29 O33 2.439 . S
Cd29 O39 2.240 . S
Cd30 O31 2.240 . S
Cd30 O38 2.223 . S
Cd30 O40 2.297 . S
Cd30 O41 2.439 . S
O31 Cd30 2.240 . S
O31 C36 1.279 . S
O32 Cd29 2.297 . S
O32 C34 1.247 . S
O33 Cd29 2.439 . S
O33 C34 1.208 . S
C34 O32 1.247 . S
C34 O33 1.208 . S
C35 O40 1.247 . S
C35 O41 1.208 . S
C36 O28 1.315 . S
C36 O31 1.279 . S
C37 O38 1.315 . S
C37 O39 1.279 . S
O38 Cd30 2.223 . S
O38 C37 1.315 . S
O39 Cd29 2.240 . S
O39 C37 1.279 . S
O40 Cd30 2.297 . S
O40 C35 1.247 . S
O41 Cd30 2.439 . S
O41 C35 1.208 . S
O42 Cd43 2.223 1_655 S
O42 C50 1.315 . S
Cd43 O42 2.223 1_455 S
Cd43 O46 2.297 1_455 S
Cd43 O47 2.439 . S
Cd43 O53 2.240 . S
Cd44 O45 2.240 1_455 S
Cd44 O52 2.223 . S
Cd44 O54 2.297 . S
Cd44 O55 2.439 . S
O45 Cd44 2.240 1_655 S
O45 C50 1.279 . S
O46 Cd43 2.297 1_655 S
O46 C48 1.247 . S
O47 Cd43 2.439 . S
O47 C48 1.208 1_455 S
C48 O46 1.247 . S
C48 O47 1.208 1_655 S
C49 O54 1.247 . S
C49 O55 1.208 . S
C50 O42 1.315 . S
C50 O45 1.279 . S
C51 O52 1.315 . S
C51 O53 1.279 . S
O52 Cd44 2.223 . S
O52 C51 1.315 . S
O53 Cd43 2.240 . S
O53 C51 1.279 . S
O54 Cd44 2.297 . S
O54 C49 1.247 . S
O55 Cd44 2.439 . S
O55 C49 1.208 . S
O56 Cd57 2.223 . S
O56 C64 1.315 . S
Cd57 O56 2.223 . S
Cd57 O60 2.297 . S
Cd57 O61 2.439 . S
Cd57 O67 2.240 . S
Cd58 O59 2.240 . S
Cd58 O66 2.223 . S
Cd58 O68 2.297 . S
Cd58 O69 2.439 . S
O59 Cd58 2.240 . S
O59 C64 1.279 . S
O60 Cd57 2.297 . S
O60 C62 1.247 . S
O61 Cd57 2.439 . S
O61 C62 1.208 . S
C62 O60 1.247 . S
C62 O61 1.208 . S
C63 O68 1.247 . S
C63 O69 1.208 . S
C64 O56 1.315 . S
C64 O59 1.279 . S
C65 O66 1.315 . S
C65 O67 1.279 . S
O66 Cd58 2.223 . S
O66 C65 1.315 . S
O67 Cd57 2.240 . S
O67 C65 1.279 . S
O68 Cd58 2.297 . S
O68 C63 1.247 . S
O69 Cd58 2.439 . S
O69 C63 1.208 . S
O70 Cd71 2.223 1_545 S
O70 C78 1.315 . S
Cd71 O70 2.223 1_565 S
Cd71 O74 2.297 1_565 S
Cd71 O75 2.439 . S
Cd71 O81 2.240 . S
Cd72 O73 2.240 1_565 S
Cd72 O80 2.223 . S
Cd72 O82 2.297 . S
Cd72 O83 2.439 . S
O73 Cd72 2.240 1_545 S
O73 C78 1.279 . S
O74 Cd71 2.297 1_545 S
O74 C76 1.247 . S
O75 Cd71 2.439 . S
O75 C76 1.208 1_565 S
C76 O74 1.247 . S
C76 O75 1.208 1_545 S
C77 O82 1.247 . S
C77 O83 1.208 . S
C78 O70 1.315 . S
C78 O73 1.279 . S
C79 O80 1.315 . S
C79 O81 1.279 . S
O80 Cd72 2.223 . S
O80 C79 1.315 . S
O81 Cd71 2.240 . S
O81 C79 1.279 . S
O82 Cd72 2.297 . S
O82 C77 1.247 . S
O83 Cd72 2.439 . S
O83 C77 1.208 . S
O84 Cd85 2.223 1_545 S
O84 C92 1.315 . S
Cd85 O84 2.223 1_565 S
Cd85 O88 2.297 1_565 S
Cd85 O89 2.439 . S
Cd85 O95 2.240 . S
Cd86 O87 2.240 1_565 S
Cd86 O94 2.223 . S
Cd86 O96 2.297 . S
Cd86 O97 2.439 . S
O87 Cd86 2.240 1_545 S
O87 C92 1.279 . S
O88 Cd85 2.297 1_545 S
O88 C90 1.247 . S
O89 Cd85 2.439 . S
O89 C90 1.208 1_565 S
C90 O88 1.247 . S
C90 O89 1.208 1_545 S
C91 O96 1.247 . S
C91 O97 1.208 . S
C92 O84 1.315 . S
C92 O87 1.279 . S
C93 O94 1.315 . S
C93 O95 1.279 . S
O94 Cd86 2.223 . S
O94 C93 1.315 . S
O95 Cd85 2.240 . S
O95 C93 1.279 . S
O96 Cd86 2.297 . S
O96 C91 1.247 . S
O97 Cd86 2.439 . S
O97 C91 1.208 . S
O98 Cd99 2.223 1_655 S
O98 C106 1.315 . S
Cd99 O98 2.223 1_455 S
Cd99 O102 2.297 1_455 S
Cd99 O103 2.439 . S
Cd99 O109 2.240 . S
Cd100 O101 2.240 1_455 S
Cd100 O108 2.223 . S
Cd100 O110 2.297 . S
Cd100 O111 2.439 . S
O101 Cd100 2.240 1_655 S
O101 C106 1.279 . S
O102 Cd99 2.297 1_655 S
O102 C104 1.247 . S
O103 Cd99 2.439 . S
O103 C104 1.208 1_455 S
C104 O102 1.247 . S
C104 O103 1.208 1_655 S
C105 O110 1.247 . S
C105 O111 1.208 . S
C106 O98 1.315 . S
C106 O101 1.279 . S
C107 O108 1.315 . S
C107 O109 1.279 . S
O108 Cd100 2.223 . S
O108 C107 1.315 . S
O109 Cd99 2.240 . S
O109 C107 1.279 . S
O110 Cd100 2.297 . S
O110 C105 1.247 . S
O111 Cd100 2.439 . S
O111 C105 1.208 . S
O112 Cd113 2.223 . S
O112 C120 1.315 . S
Cd113 O112 2.223 . S
Cd113 O116 2.297 . S
Cd113 O117 2.439 . S
Cd113 O123 2.240 . S
Cd114 O115 2.240 . S
Cd114 O122 2.223 . S
Cd114 O124 2.297 . S
Cd114 O125 2.439 . S
O115 Cd114 2.240 . S
O115 C120 1.279 . S
O116 Cd113 2.297 . S
O116 C118 1.247 . S
O117 Cd113 2.439 . S
O117 C118 1.208 . S
C118 O116 1.247 . S
C118 O117 1.208 . S
C119 O124 1.247 . S
C119 O125 1.208 . S
C120 O112 1.315 . S
C120 O115 1.279 . S
C121 O122 1.315 . S
C121 O123 1.279 . S
O122 Cd114 2.223 . S
O122 C121 1.315 . S
O123 Cd113 2.240 . S
O123 C121 1.279 . S
O124 Cd114 2.297 . S
O124 C119 1.247 . S
O125 Cd114 2.439 . S
O125 C119 1.208 . S
O126 Cd127 2.223 1_455 S
O126 C134 1.315 . S
Cd127 O126 2.223 1_655 S
Cd127 O130 2.297 1_655 S
Cd127 O131 2.439 . S
Cd127 O137 2.240 . S
Cd128 O129 2.240 1_655 S
Cd128 O136 2.223 . S
Cd128 O138 2.297 . S
Cd128 O139 2.439 . S
O129 Cd128 2.240 1_455 S
O129 C134 1.279 . S
O130 Cd127 2.297 1_455 S
O130 C132 1.247 . S
O131 Cd127 2.439 . S
O131 C132 1.208 1_655 S
C132 O130 1.247 . S
C132 O131 1.208 1_455 S
C133 O138 1.247 . S
C133 O139 1.208 . S
C134 O126 1.315 . S
C134 O129 1.279 . S
C135 O136 1.315 . S
C135 O137 1.279 . S
O136 Cd128 2.223 . S
O136 C135 1.315 . S
O137 Cd127 2.240 . S
O137 C135 1.279 . S
O138 Cd128 2.297 . S
O138 C133 1.247 . S
O139 Cd128 2.439 . S
O139 C133 1.208 . S
O140 Cd141 2.223 . S
O140 C148 1.315 . S
Cd141 O140 2.223 . S
Cd141 O144 2.297 . S
Cd141 O145 2.439 . S
Cd141 O151 2.240 . S
Cd142 O143 2.240 . S
Cd142 O150 2.223 . S
Cd142 O152 2.297 . S
Cd142 O153 2.439 . S
O143 Cd142 2.240 . S
O143 C148 1.279 . S
O144 Cd141 2.297 . S
O144 C146 1.247 . S
O145 Cd141 2.439 . S
O145 C146 1.208 . S
C146 O144 1.247 . S
C146 O145 1.208 . S
C147 O152 1.247 . S
C147 O153 1.208 . S
C148 O140 1.315 . S
C148 O143 1.279 . S
C149 O150 1.315 . S
C149 O151 1.279 . S
O150 Cd142 2.223 . S
O150 C149 1.315 . S
O151 Cd141 2.240 . S
O151 C149 1.279 . S
O152 Cd142 2.297 . S
O152 C147 1.247 . S
O153 Cd142 2.439 . S
O153 C147 1.208 . S
O154 Cd155 2.223 1_565 S
O154 C162 1.315 . S
Cd155 O154 2.223 1_545 S
Cd155 O158 2.297 1_545 S
Cd155 O159 2.439 . S
Cd155 O165 2.240 . S
Cd156 O157 2.240 1_545 S
Cd156 O164 2.223 . S
Cd156 O166 2.297 . S
Cd156 O167 2.439 . S
O157 Cd156 2.240 1_565 S
O157 C162 1.279 . S
O158 Cd155 2.297 1_565 S
O158 C160 1.247 . S
O159 Cd155 2.439 . S
O159 C160 1.208 1_545 S
C160 O158 1.247 . S
C160 O159 1.208 1_565 S
C161 O166 1.247 . S
C161 O167 1.208 . S
C162 O154 1.315 . S
C162 O157 1.279 . S
C163 O164 1.315 . S
C163 O165 1.279 . S
O164 Cd156 2.223 . S
O164 C163 1.315 . S
O165 Cd155 2.240 . S
O165 C163 1.279 . S
O166 Cd156 2.297 . S
O166 C161 1.247 . S
O167 Cd156 2.439 . S
O167 C161 1.208 . S
O168 Cd169 2.223 . S
O168 C176 1.315 . S
Cd169 O168 2.223 . S
Cd169 O172 2.297 . S
Cd169 O173 2.439 . S
Cd169 O179 2.240 . S
Cd170 O171 2.240 . S
Cd170 O178 2.223 . S
Cd170 O180 2.297 . S
Cd170 O181 2.439 . S
O171 Cd170 2.240 . S
O171 C176 1.279 . S
O172 Cd169 2.297 . S
O172 C174 1.247 . S
O173 Cd169 2.439 . S
O173 C174 1.208 . S
C174 O172 1.247 . S
C174 O173 1.208 . S
C175 O180 1.247 . S
C175 O181 1.208 . S
C176 O168 1.315 . S
C176 O171 1.279 . S
C177 O178 1.315 . S
C177 O179 1.279 . S
O178 Cd170 2.223 . S
O178 C177 1.315 . S
O179 Cd169 2.240 . S
O179 C177 1.279 . S
O180 Cd170 2.297 . S
O180 C175 1.247 . S
O181 Cd170 2.439 . S
O181 C175 1.208 . S
O182 Cd183 2.223 . S
O182 C190 1.315 . S
Cd183 O182 2.223 . S
Cd183 O186 2.297 . S
Cd183 O187 2.439 . S
Cd183 O193 2.240 . S
Cd184 O185 2.240 . S
Cd184 O192 2.223 . S
Cd184 O194 2.297 . S
Cd184 O195 2.439 . S
O185 Cd184 2.240 . S
O185 C190 1.279 . S
O186 Cd183 2.297 . S
O186 C188 1.247 . S
O187 Cd183 2.439 . S
O187 C188 1.208 . S
C188 O186 1.247 . S
C188 O187 1.208 . S
C189 O194 1.247 . S
C189 O195 1.208 . S
C190 O182 1.315 . S
C190 O185 1.279 . S
C191 O192 1.315 . S
C191 O193 1.279 . S
O192 Cd184 2.223 . S
O192 C191 1.315 . S
O193 Cd183 2.240 . S
O193 C191 1.279 . S
O194 Cd184 2.297 . S
O194 C189 1.247 . S
O195 Cd184 2.439 . S
O195 C189 1.208 . S
O196 Cd197 2.223 . S
O196 C204 1.315 . S
Cd197 O196 2.223 . S
Cd197 O200 2.297 . S
Cd197 O201 2.439 . S
Cd197 O207 2.240 . S
Cd198 O199 2.240 . S
Cd198 O206 2.223 . S
Cd198 O208 2.297 . S
Cd198 O209 2.439 . S
O199 Cd198 2.240 . S
O199 C204 1.279 . S
O200 Cd197 2.297 . S
O200 C202 1.247 . S
O201 Cd197 2.439 . S
O201 C202 1.208 . S
C202 O200 1.247 . S
C202 O201 1.208 . S
C203 O208 1.247 . S
C203 O209 1.208 . S
C204 O196 1.315 . S
C204 O199 1.279 . S
C205 O206 1.315 . S
C205 O207 1.279 . S
O206 Cd198 2.223 . S
O206 C205 1.315 . S
O207 Cd197 2.240 . S
O207 C205 1.279 . S
O208 Cd198 2.297 . S
O208 C203 1.247 . S
O209 Cd198 2.439 . S
O209 C203 1.208 . S
O210 Cd211 2.223 . S
O210 C218 1.315 . S
Cd211 O210 2.223 . S
Cd211 O214 2.297 . S
Cd211 O215 2.439 . S
Cd211 O221 2.240 . S
Cd212 O213 2.240 . S
Cd212 O220 2.223 . S
Cd212 O222 2.297 . S
Cd212 O223 2.439 . S
O213 Cd212 2.240 . S
O213 C218 1.279 . S
O214 Cd211 2.297 . S
O214 C216 1.247 . S
O215 Cd211 2.439 . S
O215 C216 1.208 . S
C216 O214 1.247 . S
C216 O215 1.208 . S
C217 O222 1.247 . S
C217 O223 1.208 . S
C218 O210 1.315 . S
C218 O213 1.279 . S
C219 O220 1.315 . S
C219 O221 1.279 . S
O220 Cd212 2.223 . S
O220 C219 1.315 . S
O221 Cd211 2.240 . S
O221 C219 1.279 . S
O222 Cd212 2.297 . S
O222 C217 1.247 . S
O223 Cd212 2.439 . S
O223 C217 1.208 . S
O224 Cd225 2.223 . S
O224 C232 1.315 . S
Cd225 O224 2.223 . S
Cd225 O228 2.297 . S
Cd225 O229 2.439 . S
Cd225 O235 2.240 . S
Cd226 O227 2.240 . S
Cd226 O234 2.223 . S
Cd226 O236 2.297 . S
Cd226 O237 2.439 . S
O227 Cd226 2.240 . S
O227 C232 1.279 . S
O228 Cd225 2.297 . S
O228 C230 1.247 . S
O229 Cd225 2.439 . S
O229 C230 1.208 . S
C230 O228 1.247 . S
C230 O229 1.208 . S
C231 O236 1.247 . S
C231 O237 1.208 . S
C232 O224 1.315 . S
C232 O227 1.279 . S
C233 O234 1.315 . S
C233 O235 1.279 . S
O234 Cd226 2.223 . S
O234 C233 1.315 . S
O235 Cd225 2.240 . S
O235 C233 1.279 . S
O236 Cd226 2.297 . S
O236 C231 1.247 . S
O237 Cd226 2.439 . S
O237 C231 1.208 . S
O238 Cd239 2.223 . S
O238 C246 1.315 . S
Cd239 O238 2.223 . S
Cd239 O242 2.297 . S
Cd239 O243 2.439 . S
Cd239 O249 2.240 . S
Cd240 O241 2.240 . S
Cd240 O248 2.223 . S
Cd240 O250 2.297 . S
Cd240 O251 2.439 . S
O241 Cd240 2.240 . S
O241 C246 1.279 . S
O242 Cd239 2.297 . S
O242 C244 1.247 . S
O243 Cd239 2.439 . S
O243 C244 1.208 . S
C244 O242 1.247 . S
C244 O243 1.208 . S
C245 O250 1.247 . S
C245 O251 1.208 . S
C246 O238 1.315 . S
C246 O241 1.279 . S
C247 O248 1.315 . S
C247 O249 1.279 . S
O248 Cd240 2.223 . S
O248 C247 1.315 . S
O249 Cd239 2.240 . S
O249 C247 1.279 . S
O250 Cd240 2.297 . S
O250 C245 1.247 . S
O251 Cd240 2.439 . S
O251 C245 1.208 . S
O252 Cd253 2.223 . S
O252 C260 1.315 . S
Cd253 O252 2.223 . S
Cd253 O256 2.297 . S
Cd253 O257 2.439 . S
Cd253 O263 2.240 . S
Cd254 O255 2.240 . S
Cd254 O262 2.223 . S
Cd254 O264 2.297 . S
Cd254 O265 2.439 . S
O255 Cd254 2.240 . S
O255 C260 1.279 . S
O256 Cd253 2.297 . S
O256 C258 1.247 . S
O257 Cd253 2.439 . S
O257 C258 1.208 . S
C258 O256 1.247 . S
C258 O257 1.208 . S
C259 O264 1.247 . S
C259 O265 1.208 . S
C260 O252 1.315 . S
C260 O255 1.279 . S
C261 O262 1.315 . S
C261 O263 1.279 . S
O262 Cd254 2.223 . S
O262 C261 1.315 . S
O263 Cd253 2.240 . S
O263 C261 1.279 . S
O264 Cd254 2.297 . S
O264 C259 1.247 . S
O265 Cd254 2.439 . S
O265 C259 1.208 . S
O266 Cd267 2.223 . S
O266 C274 1.315 . S
Cd267 O266 2.223 . S
Cd267 O270 2.297 . S
Cd267 O271 2.439 . S
Cd267 O277 2.240 . S
Cd268 O269 2.240 . S
Cd268 O276 2.223 . S
Cd268 O278 2.297 . S
Cd268 O279 2.439 . S
O269 Cd268 2.240 . S
O269 C274 1.279 . S
O270 Cd267 2.297 . S
O270 C272 1.247 . S
O271 Cd267 2.439 . S
O271 C272 1.208 . S
C272 O270 1.247 . S
C272 O271 1.208 . S
C273 O278 1.247 . S
C273 O279 1.208 . S
C274 O266 1.315 . S
C274 O269 1.279 . S
C275 O276 1.315 . S
C275 O277 1.279 . S
O276 Cd268 2.223 . S
O276 C275 1.315 . S
O277 Cd267 2.240 . S
O277 C275 1.279 . S
O278 Cd268 2.297 . S
O278 C273 1.247 . S
O279 Cd268 2.439 . S
O279 C273 1.208 . S
O280 Cd281 2.223 . S
O280 C288 1.315 . S
Cd281 O280 2.223 . S
Cd281 O284 2.297 . S
Cd281 O285 2.439 . S
Cd281 O291 2.240 . S
Cd282 O283 2.240 . S
Cd282 O290 2.223 . S
Cd282 O292 2.297 . S
Cd282 O293 2.439 . S
O283 Cd282 2.240 . S
O283 C288 1.279 . S
O284 Cd281 2.297 . S
O284 C286 1.247 . S
O285 Cd281 2.439 . S
O285 C286 1.208 . S
C286 O284 1.247 . S
C286 O285 1.208 . S
C287 O292 1.247 . S
C287 O293 1.208 . S
C288 O280 1.315 . S
C288 O283 1.279 . S
C289 O290 1.315 . S
C289 O291 1.279 . S
O290 Cd282 2.223 . S
O290 C289 1.315 . S
O291 Cd281 2.240 . S
O291 C289 1.279 . S
O292 Cd282 2.297 . S
O292 C287 1.247 . S
O293 Cd282 2.439 . S
O293 C287 1.208 . S
O294 Cd295 2.223 . S
O294 C302 1.315 . S
Cd295 O294 2.223 . S
Cd295 O298 2.297 . S
Cd295 O299 2.439 . S
Cd295 O305 2.240 . S
Cd296 O297 2.240 . S
Cd296 O304 2.223 . S
Cd296 O306 2.297 . S
Cd296 O307 2.439 . S
O297 Cd296 2.240 . S
O297 C302 1.279 . S
O298 Cd295 2.297 . S
O298 C300 1.247 . S
O299 Cd295 2.439 . S
O299 C300 1.208 . S
C300 O298 1.247 . S
C300 O299 1.208 . S
C301 O306 1.247 . S
C301 O307 1.208 . S
C302 O294 1.315 . S
C302 O297 1.279 . S
C303 O304 1.315 . S
C303 O305 1.279 . S
O304 Cd296 2.223 . S
O304 C303 1.315 . S
O305 Cd295 2.240 . S
O305 C303 1.279 . S
O306 Cd296 2.297 . S
O306 C301 1.247 . S
O307 Cd296 2.439 . S
O307 C301 1.208 . S
O308 Cd309 2.223 . S
O308 C316 1.315 . S
Cd309 O308 2.223 . S
Cd309 O312 2.297 . S
Cd309 O313 2.439 . S
Cd309 O319 2.240 . S
Cd310 O311 2.240 . S
Cd310 O318 2.223 . S
Cd310 O320 2.297 . S
Cd310 O321 2.439 . S
O311 Cd310 2.240 . S
O311 C316 1.279 . S
O312 Cd309 2.297 . S
O312 C314 1.247 . S
O313 Cd309 2.439 . S
O313 C314 1.208 . S
C314 O312 1.247 . S
C314 O313 1.208 . S
C315 O320 1.247 . S
C315 O321 1.208 . S
C316 O308 1.315 . S
C316 O311 1.279 . S
C317 O318 1.315 . S
C317 O319 1.279 . S
O318 Cd310 2.223 . S
O318 C317 1.315 . S
O319 Cd309 2.240 . S
O319 C317 1.279 . S
O320 Cd310 2.297 . S
O320 C315 1.247 . S
O321 Cd310 2.439 . S
O321 C315 1.208 . S
O322 Cd323 2.223 . S
O322 C330 1.315 . S
Cd323 O322 2.223 . S
Cd323 O326 2.297 . S
Cd323 O327 2.439 . S
Cd323 O333 2.240 . S
Cd324 O325 2.240 . S
Cd324 O332 2.223 . S
Cd324 O334 2.297 . S
Cd324 O335 2.439 . S
O325 Cd324 2.240 . S
O325 C330 1.279 . S
O326 Cd323 2.297 . S
O326 C328 1.247 . S
O327 Cd323 2.439 . S
O327 C328 1.208 . S
C328 O326 1.247 . S
C328 O327 1.208 . S
C329 O334 1.247 . S
C329 O335 1.208 . S
C330 O322 1.315 . S
C330 O325 1.279 . S
C331 O332 1.315 . S
C331 O333 1.279 . S
O332 Cd324 2.223 . S
O332 C331 1.315 . S
O333 Cd323 2.240 . S
O333 C331 1.279 . S
O334 Cd324 2.297 . S
O334 C329 1.247 . S
O335 Cd324 2.439 . S
O335 C329 1.208 . S
O336 Cd337 2.223 . S
O336 C344 1.315 . S
Cd337 O336 2.223 . S
Cd337 O340 2.297 . S
Cd337 O341 2.439 . S
Cd337 O347 2.240 . S
Cd338 O339 2.240 . S
Cd338 O346 2.223 . S
Cd338 O348 2.297 . S
Cd338 O349 2.439 . S
O339 Cd338 2.240 . S
O339 C344 1.279 . S
O340 Cd337 2.297 . S
O340 C342 1.247 . S
O341 Cd337 2.439 . S
O341 C342 1.208 . S
C342 O340 1.247 . S
C342 O341 1.208 . S
C343 O348 1.247 . S
C343 O349 1.208 . S
C344 O336 1.315 . S
C344 O339 1.279 . S
C345 O346 1.315 . S
C345 O347 1.279 . S
O346 Cd338 2.223 . S
O346 C345 1.315 . S
O347 Cd337 2.240 . S
O347 C345 1.279 . S
O348 Cd338 2.297 . S
O348 C343 1.247 . S
O349 Cd338 2.439 . S
O349 C343 1.208 . S
O350 Cd351 2.223 . S
O350 C358 1.315 . S
Cd351 O350 2.223 . S
Cd351 O354 2.297 . S
Cd351 O355 2.439 . S
Cd351 O361 2.240 . S
Cd352 O353 2.240 . S
Cd352 O360 2.223 . S
Cd352 O362 2.297 . S
Cd352 O363 2.439 . S
O353 Cd352 2.240 . S
O353 C358 1.279 . S
O354 Cd351 2.297 . S
O354 C356 1.247 . S
O355 Cd351 2.439 . S
O355 C356 1.208 . S
C356 O354 1.247 . S
C356 O355 1.208 . S
C357 O362 1.247 . S
C357 O363 1.208 . S
C358 O350 1.315 . S
C358 O353 1.279 . S
C359 O360 1.315 . S
C359 O361 1.279 . S
O360 Cd352 2.223 . S
O360 C359 1.315 . S
O361 Cd351 2.240 . S
O361 C359 1.279 . S
O362 Cd352 2.297 . S
O362 C357 1.247 . S
O363 Cd352 2.439 . S
O363 C357 1.208 . S
O364 Cd365 2.223 . S
O364 C372 1.315 . S
Cd365 O364 2.223 . S
Cd365 O368 2.297 . S
Cd365 O369 2.439 . S
Cd365 O375 2.240 . S
Cd366 O367 2.240 . S
Cd366 O374 2.223 . S
Cd366 O376 2.297 . S
Cd366 O377 2.439 . S
O367 Cd366 2.240 . S
O367 C372 1.279 . S
O368 Cd365 2.297 . S
O368 C370 1.247 . S
O369 Cd365 2.439 . S
O369 C370 1.208 . S
C370 O368 1.247 . S
C370 O369 1.208 . S
C371 O376 1.247 . S
C371 O377 1.208 . S
C372 O364 1.315 . S
C372 O367 1.279 . S
C373 O374 1.315 . S
C373 O375 1.279 . S
O374 Cd366 2.223 . S
O374 C373 1.315 . S
O375 Cd365 2.240 . S
O375 C373 1.279 . S
O376 Cd366 2.297 . S
O376 C371 1.247 . S
O377 Cd366 2.439 . S
O377 C371 1.208 . S
O378 Cd379 2.223 . S
O378 C386 1.315 . S
Cd379 O378 2.223 . S
Cd379 O382 2.297 . S
Cd379 O383 2.439 . S
Cd379 O389 2.240 . S
Cd380 O381 2.240 . S
Cd380 O388 2.223 . S
Cd380 O390 2.297 . S
Cd380 O391 2.439 . S
O381 Cd380 2.240 . S
O381 C386 1.279 . S
O382 Cd379 2.297 . S
O382 C384 1.247 . S
O383 Cd379 2.439 . S
O383 C384 1.208 . S
C384 O382 1.247 . S
C384 O383 1.208 . S
C385 O390 1.247 . S
C385 O391 1.208 . S
C386 O378 1.315 . S
C386 O381 1.279 . S
C387 O388 1.315 . S
C387 O389 1.279 . S
O388 Cd380 2.223 . S
O388 C387 1.315 . S
O389 Cd379 2.240 . S
O389 C387 1.279 . S
O390 Cd380 2.297 . S
O390 C385 1.247 . S
O391 Cd380 2.439 . S
O391 C385 1.208 . S
O392 Cd393 2.223 . S
O392 C400 1.315 . S
Cd393 O392 2.223 . S
Cd393 O396 2.297 . S
Cd393 O397 2.439 . S
Cd393 O403 2.240 . S
Cd394 O395 2.240 . S
Cd394 O402 2.223 . S
Cd394 O404 2.297 . S
Cd394 O405 2.439 . S
O395 Cd394 2.240 . S
O395 C400 1.279 . S
O396 Cd393 2.297 . S
O396 C398 1.247 . S
O397 Cd393 2.439 . S
O397 C398 1.208 . S
C398 O396 1.247 . S
C398 O397 1.208 . S
C399 O404 1.247 . S
C399 O405 1.208 . S
C400 O392 1.315 . S
C400 O395 1.279 . S
C401 O402 1.315 . S
C401 O403 1.279 . S
O402 Cd394 2.223 . S
O402 C401 1.315 . S
O403 Cd393 2.240 . S
O403 C401 1.279 . S
O404 Cd394 2.297 . S
O404 C399 1.247 . S
O405 Cd394 2.439 . S
O405 C399 1.208 . S
O406 Cd407 2.223 . S
O406 C414 1.315 . S
Cd407 O406 2.223 . S
Cd407 O410 2.297 . S
Cd407 O411 2.439 . S
Cd407 O417 2.240 . S
Cd408 O409 2.240 . S
Cd408 O416 2.223 . S
Cd408 O418 2.297 . S
Cd408 O419 2.439 . S
O409 Cd408 2.240 . S
O409 C414 1.279 . S
O410 Cd407 2.297 . S
O410 C412 1.247 . S
O411 Cd407 2.439 . S
O411 C412 1.208 . S
C412 O410 1.247 . S
C412 O411 1.208 . S
C413 O418 1.247 . S
C413 O419 1.208 . S
C414 O406 1.315 . S
C414 O409 1.279 . S
C415 O416 1.315 . S
C415 O417 1.279 . S
O416 Cd408 2.223 . S
O416 C415 1.315 . S
O417 Cd407 2.240 . S
O417 C415 1.279 . S
O418 Cd408 2.297 . S
O418 C413 1.247 . S
O419 Cd408 2.439 . S
O419 C413 1.208 . S
O420 Cd421 2.223 . S
O420 C428 1.315 . S
Cd421 O420 2.223 . S
Cd421 O424 2.297 . S
Cd421 O425 2.439 . S
Cd421 O431 2.240 . S
Cd422 O423 2.240 . S
Cd422 O430 2.223 . S
Cd422 O432 2.297 . S
Cd422 O433 2.439 . S
O423 Cd422 2.240 . S
O423 C428 1.279 . S
O424 Cd421 2.297 . S
O424 C426 1.247 . S
O425 Cd421 2.439 . S
O425 C426 1.208 . S
C426 O424 1.247 . S
C426 O425 1.208 . S
C427 O432 1.247 . S
C427 O433 1.208 . S
C428 O420 1.315 . S
C428 O423 1.279 . S
C429 O430 1.315 . S
C429 O431 1.279 . S
O430 Cd422 2.223 . S
O430 C429 1.315 . S
O431 Cd421 2.240 . S
O431 C429 1.279 . S
O432 Cd422 2.297 . S
O432 C427 1.247 . S
O433 Cd422 2.439 . S
O433 C427 1.208 . S
O434 Cd435 2.223 . S
O434 C442 1.315 . S
Cd435 O434 2.223 . S
Cd435 O438 2.297 . S
Cd435 O439 2.439 . S
Cd435 O445 2.240 . S
Cd436 O437 2.240 . S
Cd436 O444 2.223 . S
Cd436 O446 2.297 . S
Cd436 O447 2.439 . S
O437 Cd436 2.240 . S
O437 C442 1.279 . S
O438 Cd435 2.297 . S
O438 C440 1.247 . S
O439 Cd435 2.439 . S
O439 C440 1.208 . S
C440 O438 1.247 . S
C440 O439 1.208 . S
C441 O446 1.247 . S
C441 O447 1.208 . S
C442 O434 1.315 . S
C442 O437 1.279 . S
C443 O444 1.315 . S
C443 O445 1.279 . S
O444 Cd436 2.223 . S
O444 C443 1.315 . S
O445 Cd435 2.240 . S
O445 C443 1.279 . S
O446 Cd436 2.297 . S
O446 C441 1.247 . S
O447 Cd436 2.439 . S
O447 C441 1.208 . S
O448 Cd449 2.223 . S
O448 C456 1.315 . S
Cd449 O448 2.223 . S
Cd449 O452 2.297 . S
Cd449 O453 2.439 . S
Cd449 O459 2.240 . S
Cd450 O451 2.240 . S
Cd450 O458 2.223 . S
Cd450 O460 2.297 . S
Cd450 O461 2.439 . S
O451 Cd450 2.240 . S
O451 C456 1.279 . S
O452 Cd449 2.297 . S
O452 C454 1.247 . S
O453 Cd449 2.439 . S
O453 C454 1.208 . S
C454 O452 1.247 . S
C454 O453 1.208 . S
C455 O460 1.247 . S
C455 O461 1.208 . S
C456 O448 1.315 . S
C456 O451 1.279 . S
C457 O458 1.315 . S
C457 O459 1.279 . S
O458 Cd450 2.223 . S
O458 C457 1.315 . S
O459 Cd449 2.240 . S
O459 C457 1.279 . S
O460 Cd450 2.297 . S
O460 C455 1.247 . S
O461 Cd450 2.439 . S
O461 C455 1.208 . S
O462 Cd463 2.223 . S
O462 C470 1.315 . S
Cd463 O462 2.223 . S
Cd463 O466 2.297 . S
Cd463 O467 2.439 . S
Cd463 O473 2.240 . S
Cd464 O465 2.240 . S
Cd464 O472 2.223 . S
Cd464 O474 2.297 . S
Cd464 O475 2.439 . S
O465 Cd464 2.240 . S
O465 C470 1.279 . S
O466 Cd463 2.297 . S
O466 C468 1.247 . S
O467 Cd463 2.439 . S
O467 C468 1.208 . S
C468 O466 1.247 . S
C468 O467 1.208 . S
C469 O474 1.247 . S
C469 O475 1.208 . S
C470 O462 1.315 . S
C470 O465 1.279 . S
C471 O472 1.315 . S
C471 O473 1.279 . S
O472 Cd464 2.223 . S
O472 C471 1.315 . S
O473 Cd463 2.240 . S
O473 C471 1.279 . S
O474 Cd464 2.297 . S
O474 C469 1.247 . S
O475 Cd464 2.439 . S
O475 C469 1.208 . S
O476 Cd477 2.223 . S
O476 C484 1.315 . S
Cd477 O476 2.223 . S
Cd477 O480 2.297 . S
Cd477 O481 2.439 . S
Cd477 O487 2.240 . S
Cd478 O479 2.240 . S
Cd478 O486 2.223 . S
Cd478 O488 2.297 . S
Cd478 O489 2.439 . S
O479 Cd478 2.240 . S
O479 C484 1.279 . S
O480 Cd477 2.297 . S
O480 C482 1.247 . S
O481 Cd477 2.439 . S
O481 C482 1.208 . S
C482 O480 1.247 . S
C482 O481 1.208 . S
C483 O488 1.247 . S
C483 O489 1.208 . S
C484 O476 1.315 . S
C484 O479 1.279 . S
C485 O486 1.315 . S
C485 O487 1.279 . S
O486 Cd478 2.223 . S
O486 C485 1.315 . S
O487 Cd477 2.240 . S
O487 C485 1.279 . S
O488 Cd478 2.297 . S
O488 C483 1.247 . S
O489 Cd478 2.439 . S
O489 C483 1.208 . S
O490 Cd491 2.223 . S
O490 C498 1.315 . S
Cd491 O490 2.223 . S
Cd491 O494 2.297 . S
Cd491 O495 2.439 . S
Cd491 O501 2.240 . S
Cd492 O493 2.240 . S
Cd492 O500 2.223 . S
Cd492 O502 2.297 . S
Cd492 O503 2.439 . S
O493 Cd492 2.240 . S
O493 C498 1.279 . S
O494 Cd491 2.297 . S
O494 C496 1.247 . S
O495 Cd491 2.439 . S
O495 C496 1.208 . S
C496 O494 1.247 . S
C496 O495 1.208 . S
C497 O502 1.247 . S
C497 O503 1.208 . S
C498 O490 1.315 . S
C498 O493 1.279 . S
C499 O500 1.315 . S
C499 O501 1.279 . S
O500 Cd492 2.223 . S
O500 C499 1.315 . S
O501 Cd491 2.240 . S
O501 C499 1.279 . S
O502 Cd492 2.297 . S
O502 C497 1.247 . S
O503 Cd492 2.439 . S
O503 C497 1.208 . S
C504 C505 1.369 . S
C504 C506 1.419 . S
C504 H508 0.930 . S
C505 C504 1.369 . S
C505 C514 1.429 . S
C506 C504 1.419 . S
C506 C507 1.363 . S
C506 H509 0.929 . S
C507 C506 1.363 . S
C507 C513 1.428 . S
H508 C504 0.930 . S
H509 C506 0.929 . S
S510 N511 1.613 . S
S510 N512 1.610 . S
N511 S510 1.613 . S
N511 C514 1.350 . S
N512 S510 1.610 . S
N512 C513 1.351 . S
C513 C507 1.428 . S
C513 N512 1.351 . S
C513 C514 1.434 . S
C514 C505 1.429 . S
C514 N511 1.350 . S
C514 C513 1.434 . S
C515 C516 1.369 . S
C515 C517 1.419 . S
C515 H519 0.930 . S
C516 C515 1.369 . S
C516 C525 1.429 . S
C517 C515 1.419 . S
C517 C518 1.363 . S
C517 H520 0.929 . S
C518 C517 1.363 . S
C518 C524 1.428 . S
H519 C515 0.930 . S
H520 C517 0.929 . S
S521 N522 1.613 . S
S521 N523 1.610 . S
N522 S521 1.613 . S
N522 C525 1.350 . S
N523 S521 1.610 . S
N523 C524 1.351 . S
C524 C518 1.428 . S
C524 N523 1.351 . S
C524 C525 1.434 . S
C525 C516 1.429 . S
C525 N522 1.350 . S
C525 C524 1.434 . S
C526 C527 1.369 . S
C526 C528 1.419 . S
C526 H530 0.930 . S
C527 C526 1.369 . S
C527 C536 1.429 . S
C528 C526 1.419 . S
C528 C529 1.363 . S
C528 H531 0.929 . S
C529 C528 1.363 . S
C529 C535 1.428 . S
H530 C526 0.930 . S
H531 C528 0.929 . S
S532 N533 1.613 . S
S532 N534 1.610 . S
N533 S532 1.613 . S
N533 C536 1.350 . S
N534 S532 1.610 . S
N534 C535 1.351 . S
C535 C529 1.428 . S
C535 N534 1.351 . S
C535 C536 1.434 . S
C536 C527 1.429 . S
C536 N533 1.350 . S
C536 C535 1.434 . S
C537 C538 1.369 . S
C537 C539 1.419 . S
C537 H541 0.930 . S
C538 C537 1.369 . S
C538 C547 1.429 . S
C539 C537 1.419 . S
C539 C540 1.363 . S
C539 H542 0.929 . S
C540 C539 1.363 . S
C540 C546 1.428 . S
H541 C537 0.930 . S
H542 C539 0.929 . S
S543 N544 1.613 . S
S543 N545 1.610 . S
N544 S543 1.613 . S
N544 C547 1.350 . S
N545 S543 1.610 . S
N545 C546 1.351 . S
C546 C540 1.428 . S
C546 N545 1.351 . S
C546 C547 1.434 . S
C547 C538 1.429 . S
C547 N544 1.350 . S
C547 C546 1.434 . S
C548 C549 1.369 . S
C548 C550 1.419 . S
C548 H552 0.930 . S
C549 C548 1.369 . S
C549 C558 1.429 . S
C550 C548 1.419 . S
C550 C551 1.363 . S
C550 H553 0.929 . S
C551 C550 1.363 . S
C551 C557 1.428 . S
H552 C548 0.930 . S
H553 C550 0.929 . S
S554 N555 1.613 . S
S554 N556 1.610 . S
N555 S554 1.613 . S
N555 C558 1.350 . S
N556 S554 1.610 . S
N556 C557 1.351 . S
C557 C551 1.428 . S
C557 N556 1.351 . S
C557 C558 1.434 . S
C558 C549 1.429 . S
C558 N555 1.350 . S
C558 C557 1.434 . S
C559 C560 1.369 . S
C559 C561 1.419 . S
C559 H563 0.930 . S
C560 C559 1.369 . S
C560 C569 1.429 . S
C561 C559 1.419 . S
C561 C562 1.363 . S
C561 H564 0.929 . S
C562 C561 1.363 . S
C562 C568 1.428 . S
H563 C559 0.930 . S
H564 C561 0.929 . S
S565 N566 1.613 . S
S565 N567 1.610 . S
N566 S565 1.613 . S
N566 C569 1.350 . S
N567 S565 1.610 . S
N567 C568 1.351 . S
C568 C562 1.428 . S
C568 N567 1.351 . S
C568 C569 1.434 . S
C569 C560 1.429 . S
C569 N566 1.350 . S
C569 C568 1.434 . S
C570 C571 1.369 . S
C570 C572 1.419 . S
C570 H574 0.930 . S
C571 C570 1.369 . S
C571 C580 1.429 . S
C572 C570 1.419 . S
C572 C573 1.363 . S
C572 H575 0.929 . S
C573 C572 1.363 . S
C573 C579 1.428 . S
H574 C570 0.930 . S
H575 C572 0.929 . S
S576 N577 1.613 . S
S576 N578 1.610 . S
N577 S576 1.613 . S
N577 C580 1.350 . S
N578 S576 1.610 . S
N578 C579 1.351 . S
C579 C573 1.428 . S
C579 N578 1.351 . S
C579 C580 1.434 . S
C580 C571 1.429 . S
C580 N577 1.350 . S
C580 C579 1.434 . S
C581 C582 1.369 . S
C581 C583 1.419 . S
C581 H585 0.930 . S
C582 C581 1.369 . S
C582 C591 1.429 . S
C583 C581 1.419 . S
C583 C584 1.363 . S
C583 H586 0.929 . S
C584 C583 1.363 . S
C584 C590 1.428 . S
H585 C581 0.930 . S
H586 C583 0.929 . S
S587 N588 1.613 . S
S587 N589 1.610 . S
N588 S587 1.613 . S
N588 C591 1.350 . S
N589 S587 1.610 . S
N589 C590 1.351 . S
C590 C584 1.428 . S
C590 N589 1.351 . S
C590 C591 1.434 . S
C591 C582 1.429 . S
C591 N588 1.350 . S
C591 C590 1.434 . S
C592 C593 1.369 . S
C592 C594 1.419 . S
C592 H596 0.930 . S
C593 C592 1.369 . S
C593 C602 1.429 . S
C594 C592 1.419 . S
C594 C595 1.363 . S
C594 H597 0.929 . S
C595 C594 1.363 . S
C595 C601 1.428 . S
H596 C592 0.930 . S
H597 C594 0.929 . S
S598 N599 1.613 . S
S598 N600 1.610 . S
N599 S598 1.613 . S
N599 C602 1.350 . S
N600 S598 1.610 . S
N600 C601 1.351 . S
C601 C595 1.428 . S
C601 N600 1.351 . S
C601 C602 1.434 . S
C602 C593 1.429 . S
C602 N599 1.350 . S
C602 C601 1.434 . S
C603 C604 1.369 . S
C603 C605 1.419 . S
C603 H607 0.930 . S
C604 C603 1.369 . S
C604 C613 1.429 . S
C605 C603 1.419 . S
C605 C606 1.363 . S
C605 H608 0.929 . S
C606 C605 1.363 . S
C606 C612 1.428 . S
H607 C603 0.930 . S
H608 C605 0.929 . S
S609 N610 1.613 . S
S609 N611 1.610 . S
N610 S609 1.613 . S
N610 C613 1.350 . S
N611 S609 1.610 . S
N611 C612 1.351 . S
C612 C606 1.428 . S
C612 N611 1.351 . S
C612 C613 1.434 . S
C613 C604 1.429 . S
C613 N610 1.350 . S
C613 C612 1.434 . S
C614 C615 1.369 . S
C614 C616 1.419 . S
C614 H618 0.930 . S
C615 C614 1.369 . S
C615 C624 1.429 . S
C616 C614 1.419 . S
C616 C617 1.363 . S
C616 H619 0.929 . S
C617 C616 1.363 . S
C617 C623 1.428 . S
H618 C614 0.930 . S
H619 C616 0.929 . S
S620 N621 1.613 . S
S620 N622 1.610 . S
N621 S620 1.613 . S
N621 C624 1.350 . S
N622 S620 1.610 . S
N622 C623 1.351 . S
C623 C617 1.428 . S
C623 N622 1.351 . S
C623 C624 1.434 . S
C624 C615 1.429 . S
C624 N621 1.350 . S
C624 C623 1.434 . S
C625 C626 1.369 . S
C625 C627 1.419 . S
C625 H629 0.930 . S
C626 C625 1.369 . S
C626 C635 1.429 . S
C627 C625 1.419 . S
C627 C628 1.363 . S
C627 H630 0.929 . S
C628 C627 1.363 . S
C628 C634 1.428 . S
H629 C625 0.930 . S
H630 C627 0.929 . S
S631 N632 1.613 . S
S631 N633 1.610 . S
N632 S631 1.613 . S
N632 C635 1.350 . S
N633 S631 1.610 . S
N633 C634 1.351 . S
C634 C628 1.428 . S
C634 N633 1.351 . S
C634 C635 1.434 . S
C635 C626 1.429 . S
C635 N632 1.350 . S
C635 C634 1.434 . S
C636 C637 1.369 1_655 S
C636 C638 1.419 . S
C636 H640 0.930 . S
C637 C636 1.369 1_455 S
C637 C646 1.429 . S
C638 C636 1.419 . S
C638 C639 1.363 . S
C638 H641 0.929 . S
C639 C638 1.363 . S
C639 C645 1.428 1_655 S
H640 C636 0.930 . S
H641 C638 0.929 . S
S642 N643 1.613 . S
S642 N644 1.610 . S
N643 S642 1.613 . S
N643 C646 1.350 . S
N644 S642 1.610 . S
N644 C645 1.351 . S
C645 C639 1.428 1_455 S
C645 N644 1.351 . S
C645 C646 1.434 . S
C646 C637 1.429 . S
C646 N643 1.350 . S
C646 C645 1.434 . S
C647 C648 1.369 . S
C647 C649 1.419 . S
C647 H651 0.930 . S
C648 C647 1.369 . S
C648 C657 1.429 . S
C649 C647 1.419 . S
C649 C650 1.363 . S
C649 H652 0.929 . S
C650 C649 1.363 . S
C650 C656 1.428 . S
H651 C647 0.930 . S
H652 C649 0.929 . S
S653 N654 1.613 . S
S653 N655 1.610 . S
N654 S653 1.613 . S
N654 C657 1.350 . S
N655 S653 1.610 . S
N655 C656 1.351 . S
C656 C650 1.428 . S
C656 N655 1.351 . S
C656 C657 1.434 . S
C657 C648 1.429 . S
C657 N654 1.350 . S
C657 C656 1.434 . S
C658 C659 1.369 1_565 S
C658 C660 1.419 . S
C658 H662 0.930 . S
C659 C658 1.369 1_545 S
C659 C668 1.429 . S
C660 C658 1.419 . S
C660 C661 1.363 . S
C660 H663 0.929 . S
C661 C660 1.363 . S
C661 C667 1.428 1_565 S
H662 C658 0.930 . S
H663 C660 0.929 . S
S664 N665 1.613 . S
S664 N666 1.610 . S
N665 S664 1.613 . S
N665 C668 1.350 . S
N666 S664 1.610 . S
N666 C667 1.351 . S
C667 C661 1.428 1_545 S
C667 N666 1.351 . S
C667 C668 1.434 . S
C668 C659 1.429 . S
C668 N665 1.350 . S
C668 C667 1.434 . S
C669 C670 1.369 1_556 S
C669 C671 1.419 . S
C669 H673 0.930 . S
C670 C669 1.369 1_554 S
C670 C679 1.429 1_565 S
C671 C669 1.419 . S
C671 C672 1.363 1_565 S
C671 H674 0.929 . S
C672 C671 1.363 1_545 S
C672 C678 1.428 1_556 S
H673 C669 0.930 . S
H674 C671 0.929 . S
S675 N676 1.613 . S
S675 N677 1.610 . S
N676 S675 1.613 . S
N676 C679 1.350 . S
N677 S675 1.610 . S
N677 C678 1.351 . S
C678 C672 1.428 1_554 S
C678 N677 1.351 . S
C678 C679 1.434 . S
C679 C670 1.429 1_545 S
C679 N676 1.350 . S
C679 C678 1.434 . S
C680 C681 1.369 1_455 S
C680 C682 1.419 . S
C680 H684 0.930 . S
C681 C680 1.369 1_655 S
C681 C690 1.429 1_556 S
C682 C680 1.419 . S
C682 C683 1.363 1_556 S
C682 H685 0.929 . S
C683 C682 1.363 1_554 S
C683 C689 1.428 1_455 S
H684 C680 0.930 . S
H685 C682 0.929 . S
S686 N687 1.613 . S
S686 N688 1.610 . S
N687 S686 1.613 . S
N687 C690 1.350 . S
N688 S686 1.610 . S
N688 C689 1.351 . S
C689 C683 1.428 1_655 S
C689 N688 1.351 . S
C689 C690 1.434 . S
C690 C681 1.429 1_554 S
C690 N687 1.350 . S
C690 C689 1.434 . S
C691 C692 1.369 . S
C691 C693 1.419 1_556 S
C691 H695 0.930 . S
C692 C691 1.369 . S
C692 C701 1.429 . S
C693 C691 1.419 1_554 S
C693 C694 1.363 . S
C693 H696 0.929 . S
C694 C693 1.363 . S
C694 C700 1.428 . S
H695 C691 0.930 . S
H696 C693 0.929 . S
S697 N698 1.613 1_554 S
S697 N699 1.610 . S
N698 S697 1.613 1_556 S
N698 C701 1.350 . S
N699 S697 1.610 . S
N699 C700 1.351 . S
C700 C694 1.428 . S
C700 N699 1.351 . S
C700 C701 1.434 1_554 S
C701 C692 1.429 . S
C701 N698 1.350 . S
C701 C700 1.434 1_556 S
C702 C703 1.369 . S
C702 C704 1.419 . S
C702 H706 0.930 1_565 S
C703 C702 1.369 . S
C703 C712 1.429 . S
C704 C702 1.419 . S
C704 C705 1.363 . S
C704 H707 0.929 . S
C705 C704 1.363 . S
C705 C711 1.428 . S
H706 C702 0.930 1_545 S
H707 C704 0.929 . S
S708 N709 1.613 . S
S708 N710 1.610 . S
N709 S708 1.613 . S
N709 C712 1.350 . S
N710 S708 1.610 . S
N710 C711 1.351 . S
C711 C705 1.428 . S
C711 N710 1.351 . S
C711 C712 1.434 . S
C712 C703 1.429 . S
C712 N709 1.350 . S
C712 C711 1.434 . S
C713 C714 1.369 . S
C713 C715 1.419 . S
C713 H717 0.930 . S
C714 C713 1.369 . S
C714 C723 1.429 . S
C715 C713 1.419 . S
C715 C716 1.363 . S
C715 H718 0.929 1_455 S
C716 C715 1.363 . S
C716 C722 1.428 . S
H717 C713 0.930 . S
H718 C715 0.929 1_655 S
S719 N720 1.613 . S
S719 N721 1.610 . S
N720 S719 1.613 . S
N720 C723 1.350 . S
N721 S719 1.610 . S
N721 C722 1.351 . S
C722 C716 1.428 . S
C722 N721 1.351 . S
C722 C723 1.434 . S
C723 C714 1.429 . S
C723 N720 1.350 . S
C723 C722 1.434 . S
C724 C725 1.369 . S
C724 C726 1.419 . S
C724 H728 0.930 . S
C725 C724 1.369 . S
C725 C734 1.429 . S
C726 C724 1.419 . S
C726 C727 1.363 . S
C726 H729 0.929 . S
C727 C726 1.363 . S
C727 C733 1.428 . S
H728 C724 0.930 . S
H729 C726 0.929 . S
S730 N731 1.613 . S
S730 N732 1.610 . S
N731 S730 1.613 . S
N731 C734 1.350 . S
N732 S730 1.610 . S
N732 C733 1.351 . S
C733 C727 1.428 . S
C733 N732 1.351 . S
C733 C734 1.434 . S
C734 C725 1.429 . S
C734 N731 1.350 . S
C734 C733 1.434 . S
C735 C736 1.369 . S
C735 C737 1.419 . S
C735 H739 0.930 . S
C736 C735 1.369 . S
C736 C745 1.429 . S
C737 C735 1.419 . S
C737 C738 1.363 . S
C737 H740 0.929 . S
C738 C737 1.363 . S
C738 C744 1.428 . S
H739 C735 0.930 . S
H740 C737 0.929 . S
S741 N742 1.613 . S
S741 N743 1.610 . S
N742 S741 1.613 . S
N742 C745 1.350 . S
N743 S741 1.610 . S
N743 C744 1.351 . S
C744 C738 1.428 . S
C744 N743 1.351 . S
C744 C745 1.434 . S
C745 C736 1.429 . S
C745 N742 1.350 . S
C745 C744 1.434 . S
C746 C747 1.369 . S
C746 C748 1.419 . S
C746 H750 0.930 . S
C747 C746 1.369 . S
C747 C756 1.429 . S
C748 C746 1.419 . S
C748 C749 1.363 . S
C748 H751 0.929 . S
C749 C748 1.363 . S
C749 C755 1.428 . S
H750 C746 0.930 . S
H751 C748 0.929 . S
S752 N753 1.613 . S
S752 N754 1.610 . S
N753 S752 1.613 . S
N753 C756 1.350 . S
N754 S752 1.610 . S
N754 C755 1.351 . S
C755 C749 1.428 . S
C755 N754 1.351 . S
C755 C756 1.434 . S
C756 C747 1.429 . S
C756 N753 1.350 . S
C756 C755 1.434 . S
C757 C758 1.369 . S
C757 C759 1.419 . S
C757 H761 0.930 . S
C758 C757 1.369 . S
C758 C767 1.429 . S
C759 C757 1.419 . S
C759 C760 1.363 . S
C759 H762 0.929 . S
C760 C759 1.363 . S
C760 C766 1.428 . S
H761 C757 0.930 . S
H762 C759 0.929 . S
S763 N764 1.613 . S
S763 N765 1.610 . S
N764 S763 1.613 . S
N764 C767 1.350 . S
N765 S763 1.610 . S
N765 C766 1.351 . S
C766 C760 1.428 . S
C766 N765 1.351 . S
C766 C767 1.434 . S
C767 C758 1.429 . S
C767 N764 1.350 . S
C767 C766 1.434 . S
C768 C769 1.369 . S
C768 C770 1.419 . S
C768 H772 0.930 1_545 S
C769 C768 1.369 . S
C769 C778 1.429 . S
C770 C768 1.419 . S
C770 C771 1.363 . S
C770 H773 0.929 . S
C771 C770 1.363 . S
C771 C777 1.428 . S
H772 C768 0.930 1_565 S
H773 C770 0.929 . S
S774 N775 1.613 . S
S774 N776 1.610 . S
N775 S774 1.613 . S
N775 C778 1.350 . S
N776 S774 1.610 . S
N776 C777 1.351 . S
C777 C771 1.428 . S
C777 N776 1.351 . S
C777 C778 1.434 . S
C778 C769 1.429 . S
C778 N775 1.350 . S
C778 C777 1.434 . S
C779 C780 1.369 . S
C779 C781 1.419 . S
C779 H783 0.930 . S
C780 C779 1.369 . S
C780 C789 1.429 . S
C781 C779 1.419 . S
C781 C782 1.363 . S
C781 H784 0.929 1_655 S
C782 C781 1.363 . S
C782 C788 1.428 . S
H783 C779 0.930 . S
H784 C781 0.929 1_455 S
S785 N786 1.613 . S
S785 N787 1.610 . S
N786 S785 1.613 . S
N786 C789 1.350 . S
N787 S785 1.610 . S
N787 C788 1.351 . S
C788 C782 1.428 . S
C788 N787 1.351 . S
C788 C789 1.434 . S
C789 C780 1.429 . S
C789 N786 1.350 . S
C789 C788 1.434 . S
C790 C791 1.369 . S
C790 C792 1.419 . S
C790 H794 0.930 . S
C791 C790 1.369 . S
C791 C800 1.429 . S
C792 C790 1.419 . S
C792 C793 1.363 . S
C792 H795 0.929 . S
C793 C792 1.363 . S
C793 C799 1.428 . S
H794 C790 0.930 . S
H795 C792 0.929 . S
S796 N797 1.613 . S
S796 N798 1.610 . S
N797 S796 1.613 . S
N797 C800 1.350 . S
N798 S796 1.610 . S
N798 C799 1.351 . S
C799 C793 1.428 . S
C799 N798 1.351 . S
C799 C800 1.434 . S
C800 C791 1.429 . S
C800 N797 1.350 . S
C800 C799 1.434 . S
C801 C802 1.369 . S
C801 C803 1.419 . S
C801 H805 0.930 . S
C802 C801 1.369 . S
C802 C811 1.429 . S
C803 C801 1.419 . S
C803 C804 1.363 . S
C803 H806 0.929 . S
C804 C803 1.363 . S
C804 C810 1.428 . S
H805 C801 0.930 . S
H806 C803 0.929 . S
S807 N808 1.613 . S
S807 N809 1.610 . S
N808 S807 1.613 . S
N808 C811 1.350 . S
N809 S807 1.610 . S
N809 C810 1.351 . S
C810 C804 1.428 . S
C810 N809 1.351 . S
C810 C811 1.434 . S
C811 C802 1.429 . S
C811 N808 1.350 . S
C811 C810 1.434 . S
C812 C813 1.369 . S
C812 C814 1.419 . S
C812 H816 0.930 . S
C813 C812 1.369 . S
C813 C822 1.429 . S
C814 C812 1.419 . S
C814 C815 1.363 . S
C814 H817 0.929 . S
C815 C814 1.363 . S
C815 C821 1.428 . S
H816 C812 0.930 . S
H817 C814 0.929 . S
S818 N819 1.613 . S
S818 N820 1.610 . S
N819 S818 1.613 . S
N819 C822 1.350 . S
N820 S818 1.610 . S
N820 C821 1.351 . S
C821 C815 1.428 . S
C821 N820 1.351 . S
C821 C822 1.434 . S
C822 C813 1.429 . S
C822 N819 1.350 . S
C822 C821 1.434 . S
C823 C824 1.369 . S
C823 C825 1.419 . S
C823 H827 0.930 . S
C824 C823 1.369 . S
C824 C833 1.429 . S
C825 C823 1.419 . S
C825 C826 1.363 . S
C825 H828 0.929 . S
C826 C825 1.363 . S
C826 C832 1.428 . S
H827 C823 0.930 . S
H828 C825 0.929 . S
S829 N830 1.613 . S
S829 N831 1.610 1_545 S
N830 S829 1.613 . S
N830 C833 1.350 1_545 S
N831 S829 1.610 1_565 S
N831 C832 1.351 . S
C832 C826 1.428 . S
C832 N831 1.351 . S
C832 C833 1.434 . S
C833 C824 1.429 . S
C833 N830 1.350 1_565 S
C833 C832 1.434 . S
C834 C835 1.369 . S
C834 C836 1.419 . S
C834 H838 0.930 . S
C835 C834 1.369 . S
C835 C844 1.429 . S
C836 C834 1.419 . S
C836 C837 1.363 . S
C836 H839 0.929 . S
C837 C836 1.363 . S
C837 C843 1.428 . S
H838 C834 0.930 . S
H839 C836 0.929 . S
S840 N841 1.613 . S
S840 N842 1.610 . S
N841 S840 1.613 . S
N841 C844 1.350 . S
N842 S840 1.610 . S
N842 C843 1.351 . S
C843 C837 1.428 . S
C843 N842 1.351 . S
C843 C844 1.434 . S
C844 C835 1.429 . S
C844 N841 1.350 . S
C844 C843 1.434 . S
C845 C846 1.369 . S
C845 C847 1.419 1_545 S
C845 H849 0.930 . S
C846 C845 1.369 . S
C846 C855 1.429 . S
C847 C845 1.419 1_565 S
C847 C848 1.363 . S
C847 H850 0.929 . S
C848 C847 1.363 . S
C848 C854 1.428 . S
H849 C845 0.930 . S
H850 C847 0.929 . S
S851 N852 1.613 1_565 S
S851 N853 1.610 . S
N852 S851 1.613 1_545 S
N852 C855 1.350 . S
N853 S851 1.610 . S
N853 C854 1.351 . S
C854 C848 1.428 . S
C854 N853 1.351 . S
C854 C855 1.434 1_565 S
C855 C846 1.429 . S
C855 N852 1.350 . S
C855 C854 1.434 1_545 S
C856 C857 1.369 . S
C856 C858 1.439 . S
C856 H860 0.930 . S
C857 C856 1.369 . S
C857 C866 1.429 1_655 S
C858 C856 1.439 . S
C858 C859 1.344 1_655 S
C858 H861 0.929 . S
C859 C858 1.344 1_455 S
C859 C865 1.428 . S
H860 C856 0.930 . S
H861 C858 0.929 . S
S862 N863 1.613 . S
S862 N864 1.610 . S
N863 S862 1.613 . S
N863 C866 1.350 . S
N864 S862 1.610 . S
N864 C865 1.351 . S
C865 C859 1.428 . S
C865 N864 1.351 . S
C865 C866 1.434 . S
C866 C857 1.429 1_455 S
C866 N863 1.350 . S
C866 C865 1.434 . S
C867 C868 1.369 . S
C867 C869 1.419 . S
C867 H871 0.930 . S
C868 C867 1.369 . S
C868 C877 1.429 . S
C869 C867 1.419 . S
C869 C870 1.363 . S
C869 H872 0.929 . S
C870 C869 1.363 . S
C870 C876 1.428 . S
H871 C867 0.930 . S
H872 C869 0.929 . S
S873 N874 1.613 . S
S873 N875 1.610 . S
N874 S873 1.613 . S
N874 C877 1.350 . S
N875 S873 1.610 . S
N875 C876 1.351 . S
C876 C870 1.428 . S
C876 N875 1.351 . S
C876 C877 1.434 . S
C877 C868 1.429 . S
C877 N874 1.350 . S
C877 C876 1.434 . S
C878 C879 1.369 . S
C878 C880 1.419 1_565 S
C878 H882 0.930 . S
C879 C878 1.369 . S
C879 C888 1.429 . S
C880 C878 1.419 1_545 S
C880 C881 1.363 . S
C880 H883 0.929 . S
C881 C880 1.363 . S
C881 C887 1.428 . S
H882 C878 0.930 . S
H883 C880 0.929 . S
S884 N885 1.613 . S
S884 N886 1.610 1_565 S
N885 S884 1.613 . S
N885 C888 1.350 . S
N886 S884 1.610 1_545 S
N886 C887 1.351 . S
C887 C881 1.428 . S
C887 N886 1.351 . S
C887 C888 1.434 1_545 S
C888 C879 1.429 . S
C888 N885 1.350 . S
C888 C887 1.434 1_565 S
C889 C890 1.369 1_455 S
C889 C891 1.419 . S
C889 H893 0.930 . S
C890 C889 1.369 1_655 S
C890 C899 1.429 . S
C891 C889 1.419 . S
C891 C892 1.363 . S
C891 H894 0.929 . S
C892 C891 1.363 . S
C892 C898 1.428 1_455 S
H893 C889 0.930 . S
H894 C891 0.929 . S
S895 N896 1.613 . S
S895 N897 1.610 . S
N896 S895 1.613 . S
N896 C899 1.350 . S
N897 S895 1.610 . S
N897 C898 1.351 . S
C898 C892 1.428 1_655 S
C898 N897 1.351 . S
C898 C899 1.434 . S
C899 C890 1.429 . S
C899 N896 1.350 . S
C899 C898 1.434 . S
C900 C901 1.369 . S
C900 C902 1.419 . S
C900 H904 0.930 . S
C901 C900 1.369 . S
C901 C910 1.429 . S
C902 C900 1.419 . S
C902 C903 1.363 . S
C902 H905 0.929 . S
C903 C902 1.363 . S
C903 C909 1.428 . S
H904 C900 0.930 . S
H905 C902 0.929 . S
S906 N907 1.613 . S
S906 N908 1.610 . S
N907 S906 1.613 . S
N907 C910 1.350 . S
N908 S906 1.610 . S
N908 C909 1.351 . S
C909 C903 1.428 . S
C909 N908 1.351 . S
C909 C910 1.434 . S
C910 C901 1.429 . S
C910 N907 1.350 . S
C910 C909 1.434 . S
C911 C912 1.369 1_565 S
C911 C913 1.419 . S
C911 H915 0.930 1_565 S
C912 C911 1.369 1_545 S
C912 C921 1.429 . S
C913 C911 1.419 . S
C913 C914 1.363 . S
C913 H916 0.929 . S
C914 C913 1.363 . S
C914 C920 1.428 . S
H915 C911 0.930 1_545 S
H916 C913 0.929 . S
S917 N918 1.613 1_565 S
S917 N919 1.610 . S
N918 S917 1.613 1_545 S
N918 C921 1.350 . S
N919 S917 1.610 . S
N919 C920 1.351 . S
C920 C914 1.428 . S
C920 N919 1.351 . S
C920 C921 1.434 1_565 S
C921 C912 1.429 . S
C921 N918 1.350 . S
C921 C920 1.434 1_545 S
C922 C923 1.369 1_455 S
C922 C924 1.419 . S
C922 H926 0.930 1_455 S
C923 C922 1.369 1_655 S
C923 C932 1.429 . S
C924 C922 1.419 . S
C924 C925 1.363 . S
C924 H927 0.929 . S
C925 C924 1.363 . S
C925 C931 1.428 . S
H926 C922 0.930 1_655 S
H927 C924 0.929 . S
S928 N929 1.613 1_455 S
S928 N930 1.610 . S
N929 S928 1.613 1_655 S
N929 C932 1.350 . S
N930 S928 1.610 . S
N930 C931 1.351 . S
C931 C925 1.428 . S
C931 N930 1.351 . S
C931 C932 1.434 1_455 S
C932 C923 1.429 . S
C932 N929 1.350 . S
C932 C931 1.434 1_655 S
C933 C934 1.369 . S
C933 C935 1.419 . S
C933 H937 0.930 . S
C934 C933 1.369 . S
C934 C943 1.429 . S
C935 C933 1.419 . S
C935 C936 1.363 . S
C935 H938 0.929 . S
C936 C935 1.363 . S
C936 C942 1.428 . S
H937 C933 0.930 . S
H938 C935 0.929 . S
S939 N940 1.613 . S
S939 N941 1.610 . S
N940 S939 1.613 . S
N940 C943 1.350 . S
N941 S939 1.610 . S
N941 C942 1.351 . S
C942 C936 1.428 . S
C942 N941 1.351 . S
C942 C943 1.434 . S
C943 C934 1.429 . S
C943 N940 1.350 . S
C943 C942 1.434 . S
C944 C945 1.369 . S
C944 C946 1.419 1_545 S
C944 H948 0.930 . S
C945 C944 1.369 . S
C945 C954 1.429 . S
C946 C944 1.419 1_565 S
C946 C947 1.363 . S
C946 H949 0.929 . S
C947 C946 1.363 . S
C947 C953 1.428 1_565 S
H948 C944 0.930 . S
H949 C946 0.929 . S
S950 N951 1.613 . S
S950 N952 1.610 1_545 S
N951 S950 1.613 . S
N951 C954 1.350 . S
N952 S950 1.610 1_565 S
N952 C953 1.351 1_565 S
C953 C947 1.428 1_545 S
C953 N952 1.351 1_545 S
C953 C954 1.434 . S
C954 C945 1.429 . S
C954 N951 1.350 . S
C954 C953 1.434 . S
C955 C956 1.369 1_655 S
C955 C957 1.419 . S
C955 H959 0.930 1_655 S
C956 C955 1.369 1_455 S
C956 C965 1.429 . S
C957 C955 1.419 . S
C957 C958 1.363 . S
C957 H960 0.929 . S
C958 C957 1.363 . S
C958 C964 1.428 . S
H959 C955 0.930 1_455 S
H960 C957 0.929 . S
S961 N962 1.613 1_655 S
S961 N963 1.610 . S
N962 S961 1.613 1_455 S
N962 C965 1.350 . S
N963 S961 1.610 . S
N963 C964 1.351 . S
C964 C958 1.428 . S
C964 N963 1.351 . S
C964 C965 1.434 1_655 S
C965 C956 1.429 . S
C965 N962 1.350 . S
C965 C964 1.434 1_455 S
C966 C967 1.369 . S
C966 C968 1.419 . S
C966 H970 0.930 . S
C967 C966 1.369 . S
C967 C976 1.429 . S
C968 C966 1.419 . S
C968 C969 1.363 . S
C968 H971 0.929 . S
C969 C968 1.363 . S
C969 C975 1.428 . S
H970 C966 0.930 . S
H971 C968 0.929 . S
S972 N973 1.613 . S
S972 N974 1.610 . S
N973 S972 1.613 . S
N973 C976 1.350 . S
N974 S972 1.610 . S
N974 C975 1.351 . S
C975 C969 1.428 . S
C975 N974 1.351 . S
C975 C976 1.434 . S
C976 C967 1.429 . S
C976 N973 1.350 . S
C976 C975 1.434 . S
C977 C978 1.369 . S
C977 C979 1.419 1_565 S
C977 H981 0.930 . S
C978 C977 1.369 . S
C978 C987 1.429 1_565 S
C979 C977 1.419 1_545 S
C979 C980 1.363 . S
C979 H982 0.929 . S
C980 C979 1.363 . S
C980 C986 1.428 . S
H981 C977 0.930 . S
H982 C979 0.929 . S
S983 N984 1.613 1_545 S
S983 N985 1.610 . S
N984 S983 1.613 1_565 S
N984 C987 1.350 1_565 S
N985 S983 1.610 . S
N985 C986 1.351 . S
C986 C980 1.428 . S
C986 N985 1.351 . S
C986 C987 1.434 . S
C987 C978 1.429 1_545 S
C987 N984 1.350 1_545 S
C987 C986 1.434 . S
C988 C989 1.369 . S
C988 C990 1.419 1_455 S
C988 H992 0.930 . S
C989 C988 1.369 . S
C989 C998 1.429 1_455 S
C990 C988 1.419 1_655 S
C990 C991 1.363 . S
C990 H993 0.929 . S
C991 C990 1.363 . S
C991 C997 1.428 . S
H992 C988 0.930 . S
H993 C990 0.929 . S
S994 N995 1.613 1_655 S
S994 N996 1.610 . S
N995 S994 1.613 1_455 S
N995 C998 1.350 1_455 S
N996 S994 1.610 . S
N996 C997 1.351 . S
C997 C991 1.428 . S
C997 N996 1.351 . S
C997 C998 1.434 . S
C998 C989 1.429 1_655 S
C998 N995 1.350 1_655 S
C998 C997 1.434 . S
C999 C1000 1.369 . S
C999 C1001 1.419 . S
C999 H1003 0.930 . S
C1000 C999 1.369 . S
C1000 C1009 1.429 . S
C1001 C999 1.419 . S
C1001 C1002 1.363 . S
C1001 H1004 0.929 . S
C1002 C1001 1.363 . S
C1002 C1008 1.428 . S
H1003 C999 0.930 . S
H1004 C1001 0.929 . S
S1005 N1006 1.613 . S
S1005 N1007 1.610 . S
N1006 S1005 1.613 . S
N1006 C1009 1.350 . S
N1007 S1005 1.610 . S
N1007 C1008 1.351 . S
C1008 C1002 1.428 . S
C1008 N1007 1.351 . S
C1008 C1009 1.434 . S
C1009 C1000 1.429 . S
C1009 N1006 1.350 . S
C1009 C1008 1.434 . S
C1010 C1011 1.370 1_565 S
C1010 C1012 1.417 . S
C1010 H1014 0.930 1_565 S
C1011 C1010 1.370 1_545 S
C1011 C1020 1.429 . S
C1012 C1010 1.417 . S
C1012 C1013 1.363 . S
C1012 H1015 0.929 . S
C1013 C1012 1.363 . S
C1013 C1019 1.428 . S
H1014 C1010 0.930 1_545 S
H1015 C1012 0.929 . S
S1016 N1017 1.613 1_565 S
S1016 N1018 1.610 . S
N1017 S1016 1.613 1_545 S
N1017 C1020 1.350 . S
N1018 S1016 1.610 . S
N1018 C1019 1.351 . S
C1019 C1013 1.428 . S
C1019 N1018 1.351 . S
C1019 C1020 1.434 1_565 S
C1020 C1011 1.429 . S
C1020 N1017 1.350 . S
C1020 C1019 1.434 1_545 S
C1021 C1022 1.369 . S
C1021 C1023 1.419 1_455 S
C1021 H1025 0.930 . S
C1022 C1021 1.369 . S
C1022 C1031 1.429 . S
C1023 C1021 1.419 1_655 S
C1023 C1024 1.363 . S
C1023 H1026 0.929 . S
C1024 C1023 1.363 . S
C1024 C1030 1.428 1_655 S
H1025 C1021 0.930 . S
H1026 C1023 0.929 . S
S1027 N1028 1.613 . S
S1027 N1029 1.610 1_455 S
N1028 S1027 1.613 . S
N1028 C1031 1.350 . S
N1029 S1027 1.610 1_655 S
N1029 C1030 1.351 1_655 S
C1030 C1024 1.428 1_455 S
C1030 N1029 1.351 1_455 S
C1030 C1031 1.434 . S
C1031 C1022 1.429 . S
C1031 N1028 1.350 . S
C1031 C1030 1.434 . S
C1032 C1033 1.369 . S
C1032 C1034 1.419 . S
C1032 H1036 0.930 . S
C1033 C1032 1.369 . S
C1033 C1042 1.429 . S
C1034 C1032 1.419 . S
C1034 C1035 1.363 . S
C1034 H1037 0.929 . S
C1035 C1034 1.363 . S
C1035 C1041 1.428 . S
H1036 C1032 0.930 . S
H1037 C1034 0.929 . S
S1038 N1039 1.613 . S
S1038 N1040 1.610 . S
N1039 S1038 1.613 . S
N1039 C1042 1.350 . S
N1040 S1038 1.610 . S
N1040 C1041 1.351 . S
C1041 C1035 1.428 . S
C1041 N1040 1.351 . S
C1041 C1042 1.434 . S
C1042 C1033 1.429 . S
C1042 N1039 1.350 . S
C1042 C1041 1.434 . S
C1043 C1044 1.369 . S
C1043 C1045 1.419 . S
C1043 H1047 0.930 . S
C1044 C1043 1.369 . S
C1044 C1053 1.429 . S
C1045 C1043 1.419 . S
C1045 C1046 1.363 . S
C1045 H1048 0.929 . S
C1046 C1045 1.363 . S
C1046 C1052 1.428 . S
H1047 C1043 0.930 . S
H1048 C1045 0.929 . S
S1049 N1050 1.613 . S
S1049 N1051 1.610 . S
N1050 S1049 1.613 . S
N1050 C1053 1.350 . S
N1051 S1049 1.610 . S
N1051 C1052 1.351 . S
C1052 C1046 1.428 . S
C1052 N1051 1.351 . S
C1052 C1053 1.434 . S
C1053 C1044 1.429 . S
C1053 N1050 1.350 . S
C1053 C1052 1.434 . S
C1054 C1055 1.369 . S
C1054 C1056 1.419 . S
C1054 H1058 0.930 . S
C1055 C1054 1.369 . S
C1055 C1064 1.429 . S
C1056 C1054 1.419 . S
C1056 C1057 1.363 . S
C1056 H1059 0.929 . S
C1057 C1056 1.363 . S
C1057 C1063 1.428 . S
H1058 C1054 0.930 . S
H1059 C1056 0.929 . S
S1060 N1061 1.613 . S
S1060 N1062 1.610 . S
N1061 S1060 1.613 . S
N1061 C1064 1.350 . S
N1062 S1060 1.610 . S
N1062 C1063 1.351 . S
C1063 C1057 1.428 . S
C1063 N1062 1.351 . S
C1063 C1064 1.434 . S
C1064 C1055 1.429 . S
C1064 N1061 1.350 . S
C1064 C1063 1.434 . S
C1065 C1066 1.369 . S
C1065 C1067 1.419 . S
C1065 H1069 0.930 . S
C1066 C1065 1.369 . S
C1066 C1075 1.429 . S
C1067 C1065 1.419 . S
C1067 C1068 1.363 . S
C1067 H1070 0.929 . S
C1068 C1067 1.363 . S
C1068 C1074 1.428 . S
H1069 C1065 0.930 . S
H1070 C1067 0.929 . S
S1071 N1072 1.613 . S
S1071 N1073 1.610 . S
N1072 S1071 1.613 . S
N1072 C1075 1.350 . S
N1073 S1071 1.610 . S
N1073 C1074 1.351 . S
C1074 C1068 1.428 . S
C1074 N1073 1.351 . S
C1074 C1075 1.434 . S
C1075 C1066 1.429 . S
C1075 N1072 1.350 . S
C1075 C1074 1.434 . S
C1076 C1077 1.369 . S
C1076 C1078 1.419 . S
C1076 H1080 0.930 . S
C1077 C1076 1.369 . S
C1077 C1086 1.429 . S
C1078 C1076 1.419 . S
C1078 C1079 1.363 . S
C1078 H1081 0.929 . S
C1079 C1078 1.363 . S
C1079 C1085 1.428 . S
H1080 C1076 0.930 . S
H1081 C1078 0.929 . S
S1082 N1083 1.613 . S
S1082 N1084 1.610 . S
N1083 S1082 1.613 . S
N1083 C1086 1.350 . S
N1084 S1082 1.610 . S
N1084 C1085 1.351 . S
C1085 C1079 1.428 . S
C1085 N1084 1.351 . S
C1085 C1086 1.434 . S
C1086 C1077 1.429 . S
C1086 N1083 1.350 . S
C1086 C1085 1.434 . S
C1087 C1088 1.369 . S
C1087 C1089 1.419 . S
C1087 H1091 0.930 . S
C1088 C1087 1.369 . S
C1088 C1097 1.429 . S
C1089 C1087 1.419 . S
C1089 C1090 1.363 . S
C1089 H1092 0.929 . S
C1090 C1089 1.363 . S
C1090 C1096 1.428 . S
H1091 C1087 0.930 . S
H1092 C1089 0.929 . S
S1093 N1094 1.613 . S
S1093 N1095 1.610 . S
N1094 S1093 1.613 . S
N1094 C1097 1.350 . S
N1095 S1093 1.610 . S
N1095 C1096 1.351 . S
C1096 C1090 1.428 . S
C1096 N1095 1.351 . S
C1096 C1097 1.434 . S
C1097 C1088 1.429 . S
C1097 N1094 1.350 . S
C1097 C1096 1.434 . S
C1098 C1099 1.369 . S
C1098 C1100 1.419 . S
C1098 H1102 0.930 . S
C1099 C1098 1.369 . S
C1099 C1108 1.429 . S
C1100 C1098 1.419 . S
C1100 C1101 1.363 . S
C1100 H1103 0.929 . S
C1101 C1100 1.363 . S
C1101 C1107 1.428 . S
H1102 C1098 0.930 . S
H1103 C1100 0.929 . S
S1104 N1105 1.613 . S
S1104 N1106 1.610 . S
N1105 S1104 1.613 . S
N1105 C1108 1.350 . S
N1106 S1104 1.610 . S
N1106 C1107 1.351 . S
C1107 C1101 1.428 . S
C1107 N1106 1.351 . S
C1107 C1108 1.434 . S
C1108 C1099 1.429 . S
C1108 N1105 1.350 . S
C1108 C1107 1.434 . S
C1109 C1110 1.369 . S
C1109 C1111 1.419 . S
C1109 H1113 0.930 . S
C1110 C1109 1.369 . S
C1110 C1119 1.429 . S
C1111 C1109 1.419 . S
C1111 C1112 1.363 . S
C1111 H1114 0.929 . S
C1112 C1111 1.363 . S
C1112 C1118 1.428 . S
H1113 C1109 0.930 . S
H1114 C1111 0.929 . S
S1115 N1116 1.613 . S
S1115 N1117 1.610 . S
N1116 S1115 1.613 . S
N1116 C1119 1.350 . S
N1117 S1115 1.610 . S
N1117 C1118 1.351 . S
C1118 C1112 1.428 . S
C1118 N1117 1.351 . S
C1118 C1119 1.434 . S
C1119 C1110 1.429 . S
C1119 N1116 1.350 . S
C1119 C1118 1.434 . S
C1120 C1121 1.369 . S
C1120 C1122 1.419 . S
C1120 H1124 0.930 . S
C1121 C1120 1.369 . S
C1121 C1130 1.429 . S
C1122 C1120 1.419 . S
C1122 C1123 1.363 . S
C1122 H1125 0.929 . S
C1123 C1122 1.363 . S
C1123 C1129 1.428 . S
H1124 C1120 0.930 . S
H1125 C1122 0.929 . S
S1126 N1127 1.613 . S
S1126 N1128 1.610 . S
N1127 S1126 1.613 . S
N1127 C1130 1.350 . S
N1128 S1126 1.610 . S
N1128 C1129 1.351 . S
C1129 C1123 1.428 . S
C1129 N1128 1.351 . S
C1129 C1130 1.434 . S
C1130 C1121 1.429 . S
C1130 N1127 1.350 . S
C1130 C1129 1.434 . S
C1131 C1132 1.369 . S
C1131 C1133 1.419 . S
C1131 H1135 0.930 . S
C1132 C1131 1.369 . S
C1132 C1141 1.429 . S
C1133 C1131 1.419 . S
C1133 C1134 1.363 . S
C1133 H1136 0.929 . S
C1134 C1133 1.363 . S
C1134 C1140 1.428 . S
H1135 C1131 0.930 . S
H1136 C1133 0.929 . S
S1137 N1138 1.613 . S
S1137 N1139 1.610 . S
N1138 S1137 1.613 . S
N1138 C1141 1.350 . S
N1139 S1137 1.610 . S
N1139 C1140 1.351 . S
C1140 C1134 1.428 . S
C1140 N1139 1.351 . S
C1140 C1141 1.434 . S
C1141 C1132 1.429 . S
C1141 N1138 1.350 . S
C1141 C1140 1.434 . S
C1142 C1143 1.369 . S
C1142 C1144 1.419 . S
C1142 H1146 0.930 . S
C1143 C1142 1.369 . S
C1143 C1152 1.429 . S
C1144 C1142 1.419 . S
C1144 C1145 1.363 . S
C1144 H1147 0.929 . S
C1145 C1144 1.363 . S
C1145 C1151 1.428 . S
H1146 C1142 0.930 . S
H1147 C1144 0.929 . S
S1148 N1149 1.613 . S
S1148 N1150 1.610 . S
N1149 S1148 1.613 . S
N1149 C1152 1.350 . S
N1150 S1148 1.610 . S
N1150 C1151 1.351 . S
C1151 C1145 1.428 . S
C1151 N1150 1.351 . S
C1151 C1152 1.434 . S
C1152 C1143 1.429 . S
C1152 N1149 1.350 . S
C1152 C1151 1.434 . S
C1153 C1154 1.369 . S
C1153 C1155 1.419 . S
C1153 H1157 0.930 . S
C1154 C1153 1.369 . S
C1154 C1163 1.429 . S
C1155 C1153 1.419 . S
C1155 C1156 1.363 . S
C1155 H1158 0.929 . S
C1156 C1155 1.363 . S
C1156 C1162 1.428 . S
H1157 C1153 0.930 . S
H1158 C1155 0.929 . S
S1159 N1160 1.613 . S
S1159 N1161 1.610 . S
N1160 S1159 1.613 . S
N1160 C1163 1.350 . S
N1161 S1159 1.610 . S
N1161 C1162 1.351 . S
C1162 C1156 1.428 . S
C1162 N1161 1.351 . S
C1162 C1163 1.434 . S
C1163 C1154 1.429 . S
C1163 N1160 1.350 . S
C1163 C1162 1.434 . S
C1164 C1165 1.369 . S
C1164 C1166 1.419 . S
C1164 H1168 0.930 . S
C1165 C1164 1.369 . S
C1165 C1174 1.429 . S
C1166 C1164 1.419 . S
C1166 C1167 1.363 . S
C1166 H1169 0.929 . S
C1167 C1166 1.363 . S
C1167 C1173 1.428 . S
H1168 C1164 0.930 . S
H1169 C1166 0.929 . S
S1170 N1171 1.613 . S
S1170 N1172 1.610 . S
N1171 S1170 1.613 . S
N1171 C1174 1.350 . S
N1172 S1170 1.610 . S
N1172 C1173 1.351 . S
C1173 C1167 1.428 . S
C1173 N1172 1.351 . S
C1173 C1174 1.434 . S
C1174 C1165 1.429 . S
C1174 N1171 1.350 . S
C1174 C1173 1.434 . S
C1175 C1176 1.369 . S
C1175 C1177 1.419 . S
C1175 H1179 0.930 . S
C1176 C1175 1.369 . S
C1176 C1185 1.429 . S
C1177 C1175 1.419 . S
C1177 C1178 1.363 . S
C1177 H1180 0.929 . S
C1178 C1177 1.363 . S
C1178 C1184 1.428 . S
H1179 C1175 0.930 . S
H1180 C1177 0.929 . S
S1181 N1182 1.613 . S
S1181 N1183 1.610 . S
N1182 S1181 1.613 . S
N1182 C1185 1.350 . S
N1183 S1181 1.610 . S
N1183 C1184 1.351 . S
C1184 C1178 1.428 . S
C1184 N1183 1.351 . S
C1184 C1185 1.434 . S
C1185 C1176 1.429 . S
C1185 N1182 1.350 . S
C1185 C1184 1.434 . S
C1186 C1187 1.369 . S
C1186 C1188 1.419 . S
C1186 H1190 0.930 . S
C1187 C1186 1.369 . S
C1187 C1196 1.429 . S
C1188 C1186 1.419 . S
C1188 C1189 1.363 . S
C1188 H1191 0.929 . S
C1189 C1188 1.363 . S
C1189 C1195 1.428 . S
H1190 C1186 0.930 . S
H1191 C1188 0.929 . S
S1192 N1193 1.613 . S
S1192 N1194 1.610 . S
N1193 S1192 1.613 . S
N1193 C1196 1.350 . S
N1194 S1192 1.610 . S
N1194 C1195 1.351 . S
C1195 C1189 1.428 . S
C1195 N1194 1.351 . S
C1195 C1196 1.434 . S
C1196 C1187 1.429 . S
C1196 N1193 1.350 . S
C1196 C1195 1.434 . S
C1197 C1198 1.369 . S
C1197 C1199 1.419 . S
C1197 H1201 0.930 . S
C1198 C1197 1.369 . S
C1198 C1207 1.429 . S
C1199 C1197 1.419 . S
C1199 C1200 1.363 . S
C1199 H1202 0.929 . S
C1200 C1199 1.363 . S
C1200 C1206 1.428 . S
H1201 C1197 0.930 . S
H1202 C1199 0.929 . S
S1203 N1204 1.613 . S
S1203 N1205 1.610 . S
N1204 S1203 1.613 . S
N1204 C1207 1.350 . S
N1205 S1203 1.610 . S
N1205 C1206 1.351 . S
C1206 C1200 1.428 . S
C1206 N1205 1.351 . S
C1206 C1207 1.434 . S
C1207 C1198 1.429 . S
C1207 N1204 1.350 . S
C1207 C1206 1.434 . S
C1208 C1209 1.369 . S
C1208 C1210 1.419 . S
C1208 H1212 0.930 . S
C1209 C1208 1.369 . S
C1209 C1218 1.429 . S
C1210 C1208 1.419 . S
C1210 C1211 1.363 . S
C1210 H1213 0.929 . S
C1211 C1210 1.363 . S
C1211 C1217 1.428 . S
H1212 C1208 0.930 . S
H1213 C1210 0.929 . S
S1214 N1215 1.613 . S
S1214 N1216 1.610 . S
N1215 S1214 1.613 . S
N1215 C1218 1.350 . S
N1216 S1214 1.610 . S
N1216 C1217 1.351 . S
C1217 C1211 1.428 . S
C1217 N1216 1.351 . S
C1217 C1218 1.434 . S
C1218 C1209 1.429 . S
C1218 N1215 1.350 . S
C1218 C1217 1.434 . S
C1219 C1220 1.369 . S
C1219 C1221 1.419 . S
C1219 H1223 0.930 . S
C1220 C1219 1.369 . S
C1220 C1229 1.429 . S
C1221 C1219 1.419 . S
C1221 C1222 1.363 . S
C1221 H1224 0.929 . S
C1222 C1221 1.363 . S
C1222 C1228 1.428 . S
H1223 C1219 0.930 . S
H1224 C1221 0.929 . S
S1225 N1226 1.613 . S
S1225 N1227 1.610 . S
N1226 S1225 1.613 . S
N1226 C1229 1.350 . S
N1227 S1225 1.610 . S
N1227 C1228 1.351 . S
C1228 C1222 1.428 . S
C1228 N1227 1.351 . S
C1228 C1229 1.434 . S
C1229 C1220 1.429 . S
C1229 N1226 1.350 . S
C1229 C1228 1.434 . S
C1230 C1231 1.369 . S
C1230 C1232 1.419 . S
C1230 H1234 0.930 . S
C1231 C1230 1.369 . S
C1231 C1240 1.429 . S
C1232 C1230 1.419 . S
C1232 C1233 1.363 . S
C1232 H1235 0.929 . S
C1233 C1232 1.363 . S
C1233 C1239 1.428 . S
H1234 C1230 0.930 . S
H1235 C1232 0.929 . S
S1236 N1237 1.613 . S
S1236 N1238 1.610 . S
N1237 S1236 1.613 . S
N1237 C1240 1.350 . S
N1238 S1236 1.610 . S
N1238 C1239 1.351 . S
C1239 C1233 1.428 . S
C1239 N1238 1.351 . S
C1239 C1240 1.434 . S
C1240 C1231 1.429 . S
C1240 N1237 1.350 . S
C1240 C1239 1.434 . S
C1241 C1242 1.369 . S
C1241 C1243 1.419 . S
C1241 H1245 0.930 . S
C1242 C1241 1.369 . S
C1242 C1251 1.429 . S
C1243 C1241 1.419 . S
C1243 C1244 1.363 . S
C1243 H1246 0.929 . S
C1244 C1243 1.363 . S
C1244 C1250 1.428 . S
H1245 C1241 0.930 . S
H1246 C1243 0.929 . S
S1247 N1248 1.613 . S
S1247 N1249 1.610 . S
N1248 S1247 1.613 . S
N1248 C1251 1.350 . S
N1249 S1247 1.610 . S
N1249 C1250 1.351 . S
C1250 C1244 1.428 . S
C1250 N1249 1.351 . S
C1250 C1251 1.434 . S
C1251 C1242 1.429 . S
C1251 N1248 1.350 . S
C1251 C1250 1.434 . S
C1252 C1253 1.369 . S
C1252 C1254 1.419 . S
C1252 H1256 0.930 . S
C1253 C1252 1.369 . S
C1253 C1262 1.429 . S
C1254 C1252 1.419 . S
C1254 C1255 1.363 . S
C1254 H1257 0.929 . S
C1255 C1254 1.363 . S
C1255 C1261 1.428 . S
H1256 C1252 0.930 . S
H1257 C1254 0.929 . S
S1258 N1259 1.613 . S
S1258 N1260 1.610 . S
N1259 S1258 1.613 . S
N1259 C1262 1.350 . S
N1260 S1258 1.610 . S
N1260 C1261 1.351 . S
C1261 C1255 1.428 . S
C1261 N1260 1.351 . S
C1261 C1262 1.434 . S
C1262 C1253 1.429 . S
C1262 N1259 1.350 . S
C1262 C1261 1.434 . S
C1263 C1264 1.369 . S
C1263 C1265 1.419 . S
C1263 H1267 0.930 . S
C1264 C1263 1.369 . S
C1264 C1273 1.429 . S
C1265 C1263 1.419 . S
C1265 C1266 1.363 . S
C1265 H1268 0.929 . S
C1266 C1265 1.363 . S
C1266 C1272 1.428 . S
H1267 C1263 0.930 . S
H1268 C1265 0.929 . S
S1269 N1270 1.613 . S
S1269 N1271 1.610 . S
N1270 S1269 1.613 . S
N1270 C1273 1.350 . S
N1271 S1269 1.610 . S
N1271 C1272 1.351 . S
C1272 C1266 1.428 . S
C1272 N1271 1.351 . S
C1272 C1273 1.434 . S
C1273 C1264 1.429 . S
C1273 N1270 1.350 . S
C1273 C1272 1.434 . S
C1274 C1275 1.369 . S
C1274 C1276 1.419 . S
C1274 H1278 0.930 . S
C1275 C1274 1.369 . S
C1275 C1284 1.429 . S
C1276 C1274 1.419 . S
C1276 C1277 1.363 . S
C1276 H1279 0.929 . S
C1277 C1276 1.363 . S
C1277 C1283 1.428 . S
H1278 C1274 0.930 . S
H1279 C1276 0.929 . S
S1280 N1281 1.613 . S
S1280 N1282 1.610 . S
N1281 S1280 1.613 . S
N1281 C1284 1.350 . S
N1282 S1280 1.610 . S
N1282 C1283 1.351 . S
C1283 C1277 1.428 . S
C1283 N1282 1.351 . S
C1283 C1284 1.434 . S
C1284 C1275 1.429 . S
C1284 N1281 1.350 . S
C1284 C1283 1.434 . S
C1285 C1286 1.369 . S
C1285 C1287 1.419 . S
C1285 H1289 0.930 . S
C1286 C1285 1.369 . S
C1286 C1295 1.429 . S
C1287 C1285 1.419 . S
C1287 C1288 1.363 . S
C1287 H1290 0.929 . S
C1288 C1287 1.363 . S
C1288 C1294 1.428 . S
H1289 C1285 0.930 . S
H1290 C1287 0.929 . S
S1291 N1292 1.613 . S
S1291 N1293 1.610 . S
N1292 S1291 1.613 . S
N1292 C1295 1.350 . S
N1293 S1291 1.610 . S
N1293 C1294 1.351 . S
C1294 C1288 1.428 . S
C1294 N1293 1.351 . S
C1294 C1295 1.434 . S
C1295 C1286 1.429 . S
C1295 N1292 1.350 . S
C1295 C1294 1.434 . S
C505 C7 1.451 . S
C507 C259 1.453 . S
C516 C273 1.455 . S
C518 C21 1.449 . S
C527 C287 1.452 . S
C529 C35 1.451 . S
C538 C49 1.449 . S
C540 C469 1.455 . S
C549 C63 1.448 . S
C551 C483 1.455 . S
C560 C77 1.454 . S
C562 C497 1.450 . S
C571 C343 1.449 . S
C573 C91 1.454 . S
C582 C105 1.451 . S
C584 C357 1.453 . S
C593 C119 1.455 . S
C595 C371 1.450 . S
C604 C217 1.449 . S
C606 C133 1.454 . S
C615 C231 1.450 . S
C617 C147 1.453 . S
C626 C245 1.448 . S
C628 C161 1.455 . S
C637 C427 1.448 . S
C639 C175 1.455 . S
C648 C441 1.455 . S
C650 C189 1.450 . S
C659 C203 1.449 . S
C661 C455 1.454 . S
C670 C385 1.456 . S
C672 C301 1.449 . S
C681 C315 1.449 . S
C683 C399 1.454 . S
C692 C329 1.455 . S
C694 C413 1.450 . S
C703 C6 1.469 . S
C705 C384 1.467 . S
C714 C398 1.469 . S
C716 C20 1.467 . S
C725 C412 1.471 . S
C727 C34 1.467 . S
C736 C174 1.466 . S
C738 C48 1.470 . S
C747 C188 1.467 . S
C749 C62 1.470 . S
C758 C202 1.466 . S
C760 C76 1.470 . S
C769 C90 1.469 . S
C771 C300 1.467 . S
C780 C314 1.466 . S
C782 C104 1.470 . S
C791 C328 1.467 . S
C793 C118 1.471 . S
C802 C132 1.471 . S
C804 C426 1.467 . S
C813 C146 1.469 . S
C815 C440 1.469 . S
C824 C160 1.471 . S
C826 C454 1.468 . S
C835 C216 1.468 . S
C837 C342 1.470 . S
C846 C230 1.470 . S
C848 C356 1.467 . S
C857 C244 1.471 . S
C859 C370 1.467 . S
C868 C258 1.467 . S
C870 C468 1.470 . S
C879 C482 1.466 . S
C881 C272 1.469 . S
C890 C286 1.467 . S
C892 C496 1.471 . S
C901 C22 1.293 . S
C903 C9 1.277 . S
C912 C23 1.280 . S
C914 C36 1.286 . S
C923 C37 1.282 . S
C925 C8 1.286 . S
C934 C51 1.284 . S
C936 C78 1.285 . S
C945 C50 1.289 . S
C947 C65 1.283 . S
C956 C79 1.277 . S
C958 C64 1.288 . S
C967 C93 1.283 . S
C969 C106 1.290 . S
C978 C107 1.281 . S
C980 C120 1.291 . S
C989 C121 1.285 . S
C991 C92 1.287 . S
C1000 C162 1.292 . S
C1002 C135 1.277 . S
C1011 C149 1.281 . S
C1013 C134 1.286 . S
C1022 C148 1.291 . S
C1024 C163 1.282 . S
C1033 C190 1.288 . S
C1035 C177 1.278 . S
C1044 C204 1.284 . S
C1046 C191 1.283 . S
C1055 C176 1.284 . S
C1057 C205 1.282 . S
C1066 C219 1.285 . S
C1068 C246 1.287 . S
C1077 C233 1.285 . S
C1079 C218 1.286 . S
C1088 C247 1.279 . S
C1090 C232 1.291 . S
C1099 C274 1.288 . S
C1101 C261 1.283 . S
C1110 C275 1.276 . S
C1112 C288 1.291 . S
C1121 C289 1.276 . S
C1123 C260 1.289 . S
C1132 C303 1.278 . S
C1134 C330 1.292 . S
C1143 C317 1.282 . S
C1145 C302 1.285 . S
C1154 C316 1.285 . S
C1156 C331 1.281 . S
C1165 C358 1.285 . S
C1167 C345 1.284 . S
C1176 C359 1.285 . S
C1178 C372 1.286 . S
C1187 C344 1.293 . S
C1189 C373 1.278 . S
C1198 C387 1.282 . S
C1200 C414 1.285 . S
C1209 C401 1.285 . S
C1211 C386 1.287 . S
C1220 C415 1.276 . S
C1222 C400 1.290 . S
C1231 C429 1.280 . S
C1233 C442 1.286 . S
C1242 C443 1.285 . S
C1244 C456 1.287 . S
C1253 C457 1.285 . S
C1255 C428 1.288 . S
C1264 C471 1.285 . S
C1266 C498 1.287 . S
C1275 C485 1.285 . S
C1277 C470 1.287 . S
C1286 C484 1.292 . S
C1288 C499 1.281 . S
