# Generated by pormake.
# Topology unf, (4)-cn, num edge types: 1
# Building blocks:
#     Node 0, Type 0, BuildingBlock: CEKHIL_clean_sbu_0, # of connection points: 4
#     Node 1, Type 0, BuildingBlock: CEKHIL_clean_sbu_0, # of connection points: 4
#     Node 2, Type 0, BuildingBlock: CEKHIL_clean_sbu_0, # of connection points: 4
#     Node 3, Type 0, BuildingBlock: CEKHIL_clean_sbu_0, # of connection points: 4
#     Node 4, Type 0, BuildingBlock: CEKHIL_clean_sbu_0, # of connection points: 4
#     Node 5, Type 0, BuildingBlock: CEKHIL_clean_sbu_0, # of connection points: 4
#     Node 6, Type 0, BuildingBlock: CEKHIL_clean_sbu_0, # of connection points: 4
#     Node 7, Type 0, BuildingBlock: CEKHIL_clean_sbu_0, # of connection points: 4
#     Node 8, Type 0, BuildingBlock: CEKHIL_clean_sbu_0, # of connection points: 4
#     Node 9, Type 0, BuildingBlock: CEKHIL_clean_sbu_0, # of connection points: 4
#     Node 10, Type 0, BuildingBlock: CEKHIL_clean_sbu_0, # of connection points: 4
#     Node 11, Type 0, BuildingBlock: CEKHIL_clean_sbu_0, # of connection points: 4
#     Edge 12, Type (0, 0), BuildingBlock: ZUJKAS_clean_linker_0, # of connection points: 2
#     Edge 13, Type (0, 0), BuildingBlock: ZUJKAS_clean_linker_0, # of connection points: 2
#     Edge 14, Type (0, 0), BuildingBlock: ZUJKAS_clean_linker_0, # of connection points: 2
#     Edge 15, Type (0, 0), BuildingBlock: ZUJKAS_clean_linker_0, # of connection points: 2
#     Edge 16, Type (0, 0), BuildingBlock: ZUJKAS_clean_linker_0, # of connection points: 2
#     Edge 17, Type (0, 0), BuildingBlock: ZUJKAS_clean_linker_0, # of connection points: 2
#     Edge 18, Type (0, 0), BuildingBlock: ZUJKAS_clean_linker_0, # of connection points: 2
#     Edge 19, Type (0, 0), BuildingBlock: ZUJKAS_clean_linker_0, # of connection points: 2
#     Edge 20, Type (0, 0), BuildingBlock: ZUJKAS_clean_linker_0, # of connection points: 2
#     Edge 21, Type (0, 0), BuildingBlock: ZUJKAS_clean_linker_0, # of connection points: 2
#     Edge 22, Type (0, 0), BuildingBlock: ZUJKAS_clean_linker_0, # of connection points: 2
#     Edge 23, Type (0, 0), BuildingBlock: ZUJKAS_clean_linker_0, # of connection points: 2
#     Edge 24, Type (0, 0), BuildingBlock: ZUJKAS_clean_linker_0, # of connection points: 2
#     Edge 25, Type (0, 0), BuildingBlock: ZUJKAS_clean_linker_0, # of connection points: 2
#     Edge 26, Type (0, 0), BuildingBlock: ZUJKAS_clean_linker_0, # of connection points: 2
#     Edge 27, Type (0, 0), BuildingBlock: ZUJKAS_clean_linker_0, # of connection points: 2
#     Edge 28, Type (0, 0), BuildingBlock: ZUJKAS_clean_linker_0, # of connection points: 2
#     Edge 29, Type (0, 0), BuildingBlock: ZUJKAS_clean_linker_0, # of connection points: 2
#     Edge 30, Type (0, 0), BuildingBlock: ZUJKAS_clean_linker_0, # of connection points: 2
#     Edge 31, Type (0, 0), BuildingBlock: ZUJKAS_clean_linker_0, # of connection points: 2
#     Edge 32, Type (0, 0), BuildingBlock: ZUJKAS_clean_linker_0, # of connection points: 2
#     Edge 33, Type (0, 0), BuildingBlock: ZUJKAS_clean_linker_0, # of connection points: 2
#     Edge 34, Type (0, 0), BuildingBlock: ZUJKAS_clean_linker_0, # of connection points: 2
#     Edge 35, Type (0, 0), BuildingBlock: ZUJKAS_clean_linker_0, # of connection points: 2
# Relax obj value: 0.234
# Max RMSD: 0.180
# Mean RMSD: 0.178
data_MOF--net-unf--node1-CEKHIL_clean_sbu_0--edge1-ZUJKAS_clean_linker_0
_symmetry_space_group_name_H-M    P1
_symmetry_Int_Tables_number       1
_symmetry_cell_setting            triclinic
loop_
_symmetry_equiv_pos_as_xyz
'x, y, z'
_cell_length_a     49.80822
_cell_length_b     49.22939
_cell_length_c     46.674258
_cell_angle_alpha  89.691438
_cell_angle_beta   90.603338
_cell_angle_gamma 120.378
loop_
_atom_site_label
_atom_site_type_symbol
_atom_site_fract_x
_atom_site_fract_y
_atom_site_fract_z
_atom_type_partial_charge
Co0 Co 0.09204 0.39894 0.08157 0.0
O1 O 0.12234 0.41851 0.11177 0.0
O2 O 0.08839 0.36737 0.10853 0.0
C3 C 0.07454 0.43297 0.08011 0.0
O4 O 0.0566 0.37053 0.0545 0.0
Co5 Co 0.09958 0.43357 0.02373 0.0
O6 O 0.05592 0.39947 0.01736 0.0
C7 C 0.1381 0.4051 0.03551 0.0
C8 C 0.11137 0.39042 0.12233 0.0
C9 C 0.04362 0.37404 0.03189 0.0
O10 O 0.12278 0.39299 0.05865 0.0
O11 O 0.13384 0.42378 0.01947 0.0
O12 O 0.06442 0.41104 0.09955 0.0
O13 O 0.0975 0.436 0.06502 0.0
Co14 Co 0.59572 0.68483 0.0924 0.0
O15 O 0.57742 0.69482 0.12355 0.0
O16 O 0.62757 0.71042 0.12 0.0
C17 C 0.56008 0.63342 0.08902 0.0
O18 O 0.62278 0.67815 0.06431 0.0
Co19 Co 0.56119 0.66168 0.03391 0.0
O20 O 0.59362 0.65048 0.02648 0.0
C21 C 0.5905 0.72873 0.04939 0.0
C22 C 0.60536 0.71056 0.13429 0.0
C23 C 0.6188 0.66246 0.04112 0.0
O24 O 0.60306 0.72384 0.07153 0.0
O25 O 0.57118 0.70661 0.03287 0.0
O26 O 0.58202 0.64313 0.10835 0.0
O27 O 0.55848 0.65523 0.07499 0.0
Co28 Co 0.30522 0.90351 0.0931 0.0
O29 O 0.29897 0.88037 0.12807 0.0
O30 O 0.27809 0.90982 0.1178 0.0
C31 C 0.35696 0.92524 0.08976 0.0
O32 O 0.30718 0.9316 0.0603 0.0
Co33 Co 0.32896 0.8869 0.03852 0.0
O34 O 0.3324 0.92625 0.02306 0.0
C35 C 0.26368 0.84671 0.05512 0.0
C36 C 0.281 0.89108 0.13565 0.0
C37 C 0.31959 0.93981 0.0354 0.0
O38 O 0.2679 0.86629 0.0752 0.0
O39 O 0.28576 0.84926 0.03943 0.0
O40 O 0.34529 0.93753 0.10658 0.0
O41 O 0.33727 0.89822 0.07876 0.0
Co42 Co 0.59313 0.90342 0.41089 0.0
O43 O 0.57499 0.87812 0.37723 0.0
O44 O 0.62554 0.91033 0.38464 0.0
C45 C 0.561 0.92259 0.41537 0.0
O46 O 0.62034 0.93392 0.44191 0.0
Co47 Co 0.55632 0.8873 0.46772 0.0
O48 O 0.59218 0.92767 0.48135 0.0
C49 C 0.58268 0.84872 0.44973 0.0
C50 C 0.60336 0.88973 0.36828 0.0
C51 C 0.61738 0.9422 0.46723 0.0
O52 O 0.59664 0.86824 0.42923 0.0
O53 O 0.56341 0.85066 0.46629 0.0
O54 O 0.58358 0.93499 0.397 0.0
O55 O 0.55615 0.89671 0.42725 0.0
Co56 Co 0.0864 0.68646 0.41331 0.0
O57 O 0.11729 0.69967 0.38407 0.0
O58 O 0.08104 0.71311 0.38616 0.0
C59 C 0.07248 0.63538 0.41442 0.0
O60 O 0.05008 0.67647 0.4395 0.0
Co61 Co 0.09472 0.6603 0.47144 0.0
O62 O 0.04996 0.64632 0.47593 0.0
C63 C 0.1311 0.72847 0.46006 0.0
C64 C 0.10513 0.71541 0.37323 0.0
C65 C 0.03704 0.65861 0.46132 0.0
O66 O 0.11541 0.72447 0.43684 0.0
O67 O 0.12785 0.70566 0.47585 0.0
O68 O 0.06092 0.64555 0.39482 0.0
O69 O 0.09432 0.6568 0.43012 0.0
Co70 Co 0.30255 0.39891 0.41491 0.0
O71 O 0.29081 0.41783 0.38491 0.0
O72 O 0.27618 0.36721 0.38733 0.0
C73 C 0.35357 0.43496 0.41712 0.0
O74 O 0.31112 0.37138 0.44164 0.0
Co75 Co 0.3276 0.43321 0.47328 0.0
O76 O 0.33876 0.4002 0.47968 0.0
C77 C 0.26073 0.40259 0.46024 0.0
C78 C 0.27523 0.38986 0.37374 0.0
C79 C 0.32719 0.37518 0.46461 0.0
O80 O 0.26482 0.39032 0.43765 0.0
O81 O 0.28316 0.42261 0.47602 0.0
O82 O 0.34297 0.41343 0.39731 0.0
O83 O 0.33265 0.43638 0.43208 0.0
Co84 Co 0.90366 0.60111 0.91647 0.0
O85 O 0.92497 0.57784 0.91261 0.0
O86 O 0.89763 0.57639 0.95039 0.0
C87 C 0.88087 0.59118 0.87304 0.0
O88 O 0.87755 0.62025 0.92805 0.0
Co89 Co 0.92054 0.65967 0.87891 0.0
O90 O 0.88336 0.65742 0.89642 0.0
C91 C 0.96296 0.66457 0.92537 0.0
C92 C 0.91508 0.56724 0.93825 0.0
C93 C 0.87018 0.64007 0.91812 0.0
O94 O 0.9424 0.637 0.93402 0.0
O95 O 0.9597 0.67723 0.90258 0.0
O96 O 0.86878 0.5704 0.89342 0.0
O97 O 0.908 0.61528 0.87854 0.0
Co98 Co 0.396 0.29781 0.92028 0.0
O99 O 0.42047 0.28915 0.89456 0.0
O100 O 0.37339 0.28126 0.88468 0.0
C101 C 0.43363 0.34562 0.93461 0.0
O102 O 0.36461 0.30532 0.94128 0.0
Co103 Co 0.41213 0.30572 0.98545 0.0
O104 O 0.38181 0.32049 0.98647 0.0
C105 C 0.3822 0.24268 0.95944 0.0
C106 C 0.39739 0.2795 0.87657 0.0
C107 C 0.36292 0.31601 0.96594 0.0
O108 O 0.37742 0.25385 0.93622 0.0
O109 O 0.39785 0.25997 0.98071 0.0
O110 O 0.41902 0.34243 0.91049 0.0
O111 O 0.42765 0.31975 0.94716 0.0
Co112 Co 0.68793 0.08791 0.9151 0.0
O113 O 0.64329 0.06803 0.91229 0.0
O114 O 0.67185 0.09422 0.95017 0.0
C115 C 0.69974 0.11125 0.87194 0.0
O116 O 0.73383 0.11271 0.92567 0.0
Co117 Co 0.72568 0.06995 0.8747 0.0
O118 O 0.76204 0.10866 0.89048 0.0
C119 C 0.69015 0.02739 0.9219 0.0
C120 C 0.6445 0.07783 0.93834 0.0
C121 C 0.76001 0.12105 0.91366 0.0
O122 O 0.68404 0.04814 0.93133 0.0
O123 O 0.7045 0.03056 0.89841 0.0
O124 O 0.69321 0.12405 0.89304 0.0
O125 O 0.69523 0.08339 0.87674 0.0
Co126 Co 0.3973 0.09091 0.58724 0.0
O127 O 0.42116 0.07016 0.59084 0.0
O128 O 0.41889 0.09518 0.55205 0.0
C129 C 0.41053 0.11659 0.62917 0.0
O130 O 0.37678 0.11596 0.57563 0.0
Co131 Co 0.34314 0.07628 0.62845 0.0
O132 O 0.34572 0.11439 0.61092 0.0
C133 C 0.33385 0.03084 0.58321 0.0
C134 C 0.42947 0.07874 0.56449 0.0
C135 C 0.35963 0.1254 0.58725 0.0
O136 O 0.36056 0.05066 0.57284 0.0
O137 O 0.32352 0.03565 0.60649 0.0
O138 O 0.42917 0.12796 0.60744 0.0
O139 O 0.38674 0.08867 0.62585 0.0
Co140 Co 0.89919 0.30073 0.58459 0.0
O141 O 0.86674 0.29323 0.61077 0.0
O142 O 0.90454 0.283 0.61977 0.0
C143 C 0.91079 0.34917 0.57079 0.0
O144 O 0.93735 0.3068 0.56314 0.0
Co145 Co 0.89192 0.31021 0.51961 0.0
O146 O 0.93758 0.32773 0.52009 0.0
C147 C 0.85849 0.24637 0.54425 0.0
C148 C 0.87947 0.28241 0.62834 0.0
C149 C 0.95098 0.32066 0.53972 0.0
O150 O 0.87262 0.25715 0.56834 0.0
O151 O 0.86161 0.2639 0.5227 0.0
O152 O 0.9222 0.34533 0.59465 0.0
O153 O 0.89033 0.32367 0.55813 0.0
Co154 Co 0.69127 0.60013 0.58526 0.0
O155 O 0.64666 0.57929 0.58815 0.0
O156 O 0.67234 0.57515 0.55149 0.0
C157 C 0.702 0.59004 0.62954 0.0
O158 O 0.73643 0.61663 0.57489 0.0
Co159 Co 0.73417 0.6586 0.62247 0.0
O160 O 0.76823 0.65365 0.6064 0.0
C161 C 0.69867 0.66467 0.57479 0.0
C162 C 0.64582 0.56785 0.56289 0.0
C163 C 0.76369 0.63558 0.58518 0.0
O164 O 0.69154 0.63703 0.56626 0.0
O165 O 0.71337 0.67669 0.59826 0.0
O166 O 0.6927 0.56866 0.60964 0.0
O167 O 0.70072 0.61491 0.62298 0.0
H168 H 0.16825 0.41709 0.98416 0.0
H169 H 0.20578 0.40179 0.96941 0.0
H170 H 0.19797 0.35824 0.0516 0.0
H171 H 0.16033 0.37322 0.06669 0.0
H172 H 0.26507 0.41097 0.02065 0.0
H173 H 0.1817 0.2998 0.96408 0.0
H174 H 0.17747 0.33407 0.96148 0.0
H175 H 0.16976 0.31324 0.99474 0.0
C176 C 0.17451 0.40432 -0.00082 0.0
C177 C 0.16125 0.3964 0.02665 0.0
C178 C 0.19586 0.39554 0.99064 0.0
C179 C 0.20435 0.37882 0.00941 0.0
C180 C 0.19145 0.37104 0.03684 0.0
H181 H 0.34359 0.32566 0.01733 0.0
H182 H 0.30511 0.34119 0.02604 0.0
C183 C 0.16998 0.37963 0.04538 0.0
C184 C 0.22728 0.37002 0.00065 0.0
H185 H 0.23413 0.31272 0.9666 0.0
C186 C 0.25844 0.38958 0.00874 0.0
C187 C 0.21838 0.34234 0.98485 0.0
C188 C 0.18503 0.32095 0.97567 0.0
C189 C 0.28111 0.38191 0.00171 0.0
C190 C 0.27209 0.35352 0.98683 0.0
C191 C 0.24095 0.33436 0.97811 0.0
C192 C 0.29443 0.34275 0.98121 0.0
C193 C 0.31454 0.40443 0.01012 0.0
C194 C 0.30021 0.33708 0.95313 0.0
C195 C 0.32201 0.32772 0.94803 0.0
C196 C 0.33836 0.32392 0.97098 0.0
C197 C 0.33178 0.32879 -0.0009 0.0
C198 C 0.30989 0.33785 0.00415 0.0
H199 H 0.31894 0.42874 0.013 0.0
H200 H 0.31972 0.39678 0.03082 0.0
H201 H 0.33083 0.40491 0.9938 0.0
H202 H 0.28827 0.34046 0.93515 0.0
H203 H 0.32653 0.32415 0.92613 0.0
H204 H 0.6315 0.78282 0.07807 0.0
H205 H 0.64849 0.83709 0.0641 0.0
H206 H 0.58797 0.80333 0.98996 0.0
H207 H 0.57054 0.74919 0.00378 0.0
H208 H 0.67809 0.86633 0.0142 0.0
H209 H 0.5679 0.86705 0.02372 0.0
H210 H 0.57369 0.83697 0.03992 0.0
H211 H 0.56317 0.83454 0.00261 0.0
C212 C 0.62151 0.7869 0.05896 0.0
C213 C 0.59962 0.76157 0.04204 0.0
C214 C 0.63126 0.81793 0.05104 0.0
C215 C 0.61911 0.82416 0.02627 0.0
C216 C 0.59707 0.79899 0.00954 0.0
H217 H 0.69404 0.97557 0.90788 0.0
H218 H 0.67864 0.92866 0.93682 0.0
C219 C 0.58731 0.76802 0.01739 0.0
C220 C 0.63094 0.85686 0.01653 0.0
H221 H 0.60685 0.90693 0.99328 0.0
C222 C 0.66264 0.87545 0.01005 0.0
C223 C 0.61087 0.86893 0.01166 0.0
C224 C 0.57708 0.85095 0.02014 0.0
C225 C 0.67446 0.90511 0.99721 0.0
C226 C 0.65384 0.91603 0.99017 0.0
C227 C 0.62253 0.89827 0.99825 0.0
C228 C 0.66387 0.94494 0.97309 0.0
C229 C 0.70883 0.92426 0.99105 0.0
C230 C 0.65974 0.96923 0.98352 0.0
C231 C 0.66813 0.99596 0.96686 0.0
C232 C 0.68076 -0.00116 0.9394 0.0
C233 C 0.68463 0.97429 0.92898 0.0
C234 C 0.67608 0.94754 0.94561 0.0
H235 H 0.72245 0.91788 0.00578 0.0
H236 H 0.713 0.91942 0.96884 0.0
H237 H 0.71763 0.94988 0.99307 0.0
H238 H 0.65007 0.96752 0.00459 0.0
H239 H 0.66481 0.0144 0.97558 0.0
H240 H 0.24418 0.79666 0.01853 0.0
H241 H 0.19126 0.76192 0.00073 0.0
H242 H 0.15721 0.8074 0.05624 0.0
H243 H 0.20975 0.84154 0.07484 0.0
H244 H 0.11642 0.74468 0.05238 0.0
H245 H 0.15391 0.7965 0.94415 0.0
H246 H 0.17508 0.77847 0.95758 0.0
H247 H 0.17851 0.81243 0.97542 0.0
C248 C 0.22538 0.79896 0.0273 0.0
C249 C 0.23133 0.82227 0.04776 0.0
C250 C 0.19518 0.77921 0.01697 0.0
C251 C 0.1705 0.78276 0.02654 0.0
C252 C 0.17599 0.80449 0.04835 0.0
H253 H 0.00334 0.72813 0.92634 0.0
H254 H 0.05225 0.75674 0.95323 0.0
C255 C 0.2061 0.82401 0.05895 0.0
C256 C 0.13944 0.76534 0.01263 0.0
H257 H 0.10254 0.75336 0.94799 0.0
C258 C 0.11331 0.74655 0.02956 0.0
C259 C 0.13538 0.76851 0.98298 0.0
C260 C 0.16214 0.79032 0.964 0.0
C261 C 0.08323 0.73041 0.01754 0.0
C262 C 0.07937 0.73245 0.98765 0.0
C263 C 0.10551 0.75157 0.97084 0.0
C264 C 0.04856 0.71516 0.97315 0.0
C265 C 0.05593 0.71205 0.03714 0.0
C266 C 0.03016 0.68228 0.97544 0.0
C267 C 0.00197 0.66595 0.96046 0.0
C268 C 0.992 0.68212 0.94234 0.0
C269 C 0.01046 0.71502 0.94003 0.0
C270 C 0.03839 0.73138 0.9554 0.0
H271 H 0.0616 0.72099 0.05949 0.0
H272 H 0.03523 0.71314 0.02975 0.0
H273 H 0.04982 0.68703 0.03744 0.0
H274 H 0.03792 0.66912 0.98828 0.0
H275 H 0.98844 0.64055 0.96241 0.0
H276 H 0.67222 0.65 0.5212 0.0
H277 H 0.65407 0.67922 0.49239 0.0
H278 H 0.68367 0.74938 0.55888 0.0
H279 H 0.70253 0.72079 0.5876 0.0
H280 H 0.60914 0.69213 0.50534 0.0
H281 H 0.7199 0.80355 0.4885 0.0
H282 H 0.71856 0.76831 0.50157 0.0
H283 H 0.71318 0.79352 0.52575 0.0
C284 C 0.67522 0.67184 0.52961 0.0
C285 C 0.68894 0.68309 0.55674 0.0
C286 C 0.66481 0.68849 0.51308 0.0
C287 C 0.66797 0.71671 0.52329 0.0
C288 C 0.68174 0.72807 0.55026 0.0
H289 H 0.56323 0.80653 0.4941 0.0
H290 H 0.58246 0.7714 0.50725 0.0
C291 C 0.69232 0.71156 0.56676 0.0
C292 C 0.65505 0.73325 0.50666 0.0
H293 H 0.67301 0.80557 0.48133 0.0
C294 C 0.62319 0.71683 0.49971 0.0
C295 C 0.6735 0.76528 0.49879 0.0
C296 C 0.70825 0.78358 0.50376 0.0
C297 C 0.60896 0.73204 0.48649 0.0
C298 C 0.62697 0.76463 0.48064 0.0
C299 C 0.65914 0.78064 0.48617 0.0
C300 C 0.61274 0.78313 0.47067 0.0
C301 C 0.57474 0.71314 0.47915 0.0
C302 C 0.62342 0.80145 0.44574 0.0
C303 C 0.61265 0.82181 0.43825 0.0
C304 C 0.59116 0.8244 0.4557 0.0
C305 C 0.5797 0.80513 0.48011 0.0
C306 C 0.59053 0.78483 0.48759 0.0
H307 H 0.567 0.68785 0.47607 0.0
H308 H 0.56117 0.71484 0.49705 0.0
H309 H 0.56925 0.72212 0.45939 0.0
H310 H 0.64067 0.80054 0.43246 0.0
H311 H 0.62192 0.83619 0.41923 0.0
H312 H 0.15124 0.78316 0.42967 0.0
H313 H 0.18834 0.83684 0.44538 0.0
H314 H 0.19832 0.80117 0.52696 0.0
H315 H 0.16184 0.74756 0.51143 0.0
H316 H 0.18436 0.86968 0.49098 0.0
H317 H 0.2882 0.85702 0.50273 0.0
H318 H 0.25359 0.82869 0.48364 0.0
H319 H 0.25547 0.82738 0.52213 0.0
C320 C 0.16145 0.78671 0.45091 0.0
C321 C 0.1537 0.76101 0.46924 0.0
C322 C 0.18264 0.81739 0.45981 0.0
C323 C 0.19648 0.82287 0.4871 0.0
C324 C 0.18852 0.79736 0.50553 0.0
H325 H 0.2749 0.98383 0.59635 0.0
H326 H 0.24227 0.93518 0.56995 0.0
C327 C 0.16751 0.76672 0.49664 0.0
C328 C 0.21833 0.8553 0.49696 0.0
H329 H 0.29049 0.90131 0.52641 0.0
C330 C 0.20771 0.87677 0.4984 0.0
C331 C 0.24895 0.86464 0.50613 0.0
C332 C 0.26236 0.84332 0.50331 0.0
C333 C 0.22644 0.9069 0.51009 0.0
C334 C 0.25625 0.91542 0.52106 0.0
C335 C 0.26742 0.89451 0.51835 0.0
C336 C 0.27579 0.9454 0.53644 0.0
C337 C 0.21409 0.92927 0.51071 0.0
C338 C 0.30576 0.96688 0.52672 0.0
C339 C 0.32464 0.99465 0.54189 0.0
C340 C 0.31393 0.00132 0.56719 0.0
C341 C 0.2839 0.97956 0.57693 0.0
C342 C 0.26507 0.95183 0.56173 0.0
H343 H 0.19568 0.9231 0.49417 0.0
H344 H 0.20371 0.92788 0.53197 0.0
H345 H 0.233 0.95395 0.5072 0.0
H346 H 0.31453 0.96216 0.50737 0.0
H347 H 0.34766 0.0108 0.53379 0.0
H348 H 0.98076 0.29083 0.56121 0.0
H349 H 0.03316 0.3017 0.54939 0.0
H350 H 0.04649 0.37915 0.4957 0.0
H351 H 0.99399 0.36768 0.50652 0.0
H352 H 0.0632 0.34312 0.46866 0.0
H353 H 0.11676 0.36987 0.57732 0.0
H354 H 0.08242 0.33174 0.57436 0.0
H355 H 0.07961 0.36654 0.56987 0.0
C356 C 0.99505 0.31034 0.54712 0.0
C357 C 0.98328 0.32831 0.53467 0.0
C358 C 0.02502 0.31664 0.54049 0.0
C359 C 0.04391 0.34146 0.52189 0.0
C360 C 0.03233 0.35981 0.51002 0.0
H361 H 0.24141 0.43351 0.49529 0.0
H362 H 0.18825 0.41661 0.50983 0.0
C363 C 0.00232 0.35323 0.51623 0.0
C364 C 0.07521 0.34777 0.51354 0.0
H365 H 0.14697 0.36718 0.53977 0.0
C366 C 0.08154 0.3484 0.48422 0.0
C367 C 0.09914 0.35481 0.53386 0.0
C368 C 0.09431 0.35602 0.56559 0.0
C369 C 0.11123 0.35648 0.47457 0.0
C370 C 0.13507 0.36309 0.49488 0.0
C371 C 0.12862 0.36194 0.52424 0.0
C372 C 0.16724 0.37281 0.48613 0.0
C373 C 0.11698 0.35901 0.4427 0.0
C374 C 0.17317 0.3537 0.46814 0.0
C375 C 0.20348 0.3636 0.45932 0.0
C376 C 0.22853 0.39245 0.46893 0.0
C377 C 0.22262 0.41118 0.48749 0.0
C378 C 0.19226 0.4015 0.49589 0.0
H379 H 0.09923 0.36194 0.43068 0.0
H380 H 0.14034 0.37919 0.43756 0.0
H381 H 0.11568 0.3371 0.43498 0.0
H382 H 0.15437 0.33106 0.46098 0.0
H383 H 0.20734 0.3484 0.44538 0.0
H384 H 0.67993 0.6952 0.05806 0.0
H385 H 0.72329 0.69161 0.03829 0.0
H386 H 0.65993 0.61797 0.98101 0.0
H387 H 0.61656 0.62192 8e-05 0.0
H388 H 0.73556 0.64413 0.0358 0.0
H389 H 0.72361 0.68028 0.92599 0.0
H390 H 0.70314 0.68374 0.95611 0.0
H391 H 0.6886 0.64647 0.93832 0.0
C392 C 0.67519 0.67821 0.04127 0.0
C393 C 0.64484 0.65915 0.03037 0.0
C394 C 0.7 0.67619 0.03001 0.0
C395 C 0.69492 0.65502 0.00776 0.0
C396 C 0.6645 0.63511 0.99761 0.0
H397 H 0.82429 0.59681 0.95254 0.0
H398 H 0.78235 0.60083 0.97502 0.0
C399 C 0.63972 0.63731 0.00864 0.0
C400 C 0.72146 0.65386 0.99508 0.0
H401 H 0.75782 0.66015 0.9318 0.0
C402 C 0.74056 0.64778 0.01309 0.0
C403 C 0.72827 0.65922 0.96553 0.0
C404 C 0.71003 0.66812 0.94541 0.0
C405 C 0.766 0.64635 0.00225 0.0
C406 C 0.77191 0.65024 0.97247 0.0
C407 C 0.75309 0.65683 0.95457 0.0
C408 C 0.79762 0.64787 0.95931 0.0
C409 C 0.78661 0.64136 0.02294 0.0
C410 C 0.81958 0.67253 0.94223 0.0
C411 C 0.84315 0.67001 0.92884 0.0
C412 C 0.84538 0.64285 0.93248 0.0
C413 C 0.82343 0.6182 0.94965 0.0
C414 C 0.79956 0.62055 0.96267 0.0
H415 H 0.78494 0.64867 0.04502 0.0
H416 H 0.77906 0.61595 0.0236 0.0
H417 H 0.81134 0.6547 0.01629 0.0
H418 H 0.81846 0.69378 0.93923 0.0
H419 H 0.85976 0.68943 0.9158 0.0
H420 H 0.38327 0.20977 0.00627 0.0
H421 H 0.36576 0.15381 0.00928 0.0
H422 H 0.33516 0.14135 0.92116 0.0
H423 H 0.35276 0.19768 0.91765 0.0
H424 H 0.29281 0.09428 0.97521 0.0
H425 H 0.41131 0.11485 0.95317 0.0
H426 H 0.40858 0.14306 0.97556 0.0
H427 H 0.39739 0.1396 0.93853 0.0
C428 C 0.37269 0.19525 0.98748 0.0
C429 C 0.36963 0.20833 0.96164 0.0
C430 C 0.36264 0.16327 0.98932 0.0
C431 C 0.34935 0.14374 0.96543 0.0
C432 C 0.34538 0.15626 0.93979 0.0
H433 H 0.33623 0.96014 0.9801 0.0
H434 H 0.33852 0.00613 0.9573 0.0
C435 C 0.35547 0.18839 0.93787 0.0
C436 C 0.34113 0.11057 0.96742 0.0
H437 H 0.3751 0.06568 0.97351 0.0
C438 C 0.31055 0.08771 0.97428 0.0
C439 C 0.36432 0.10225 0.9658 0.0
C440 C 0.39728 0.12609 0.9577 0.0
C441 C 0.30294 0.05688 0.98125 0.0
C442 C 0.32676 0.04918 0.98193 0.0
C443 C 0.35689 0.07163 0.97318 0.0
C444 C 0.32193 0.01933 0.99437 0.0
C445 C 0.26966 0.0331 0.98843 0.0
C446 C 0.31192 0.01156 0.02277 0.0
C447 C 0.31047 0.98531 0.03581 0.0
C448 C 0.31947 0.96652 0.02085 0.0
C449 C 0.32918 0.97414 0.99226 0.0
C450 C 0.33041 0.00034 0.97915 0.0
H451 H 0.25323 0.03857 0.97706 0.0
H452 H 0.2638 0.00883 0.98274 0.0
H453 H 0.26615 0.03396 0.01177 0.0
H454 H 0.30623 0.02642 0.03525 0.0
H455 H 0.30312 0.98032 0.05792 0.0
H456 H 0.00891 0.31569 0.05644 0.0
H457 H 0.95972 0.27161 0.03886 0.0
H458 H 0.96112 0.32777 0.96703 0.0
H459 H 0.00979 0.37208 0.9846 0.0
H460 H 0.90382 0.29544 0.99238 0.0
H461 H 0.95026 0.21614 0.97036 0.0
H462 H 0.95603 0.23048 0.00651 0.0
H463 H 0.97519 0.25759 0.97761 0.0
C464 C -0.00121 0.31869 0.0369 0.0
C465 C 0.01352 0.34737 0.0218 0.0
C466 C 0.97075 0.29341 0.02681 0.0
C467 C 0.95712 0.29629 0.00138 0.0
C468 C 0.97139 0.32503 0.98662 0.0
H469 H 0.81868 0.15246 0.89129 0.0
H470 H 0.86591 0.19471 0.91367 0.0
C471 C -0.00071 0.35031 0.9967 0.0
C472 C 0.9279 0.2695 0.99 0.0
H473 H 0.89608 0.1948 0.96374 0.0
C474 C 0.90206 0.27339 0.98617 0.0
C475 C 0.92589 0.24096 0.9816 0.0
C476 C 0.95337 0.23601 0.98395 0.0
C477 C 0.87421 0.2495 0.97408 0.0
C478 C 0.87201 0.22074 0.96618 0.0
C479 C 0.89783 0.21682 0.97003 0.0
C480 C 0.8434 0.19476 0.95305 0.0
C481 C 0.84772 0.25562 0.96915 0.0
C482 C 0.81523 0.18053 0.96797 0.0
C483 C 0.78815 0.15653 0.95521 0.0
C484 C 0.78886 0.14603 0.92739 0.0
C485 C 0.81731 0.15992 0.91275 0.0
C486 C 0.84433 0.18406 0.92549 0.0
H487 H 0.8558 0.28119 0.96951 0.0
H488 H 0.83594 0.24575 0.94829 0.0
H489 H 0.83035 0.24412 0.98639 0.0
H490 H 0.81418 0.18799 0.98952 0.0
H491 H 0.76671 0.14616 0.96721 0.0
H492 H 0.38043 0.15047 0.53402 0.0
H493 H 0.37526 0.19188 0.51015 0.0
H494 H 0.32607 0.19796 0.58304 0.0
H495 H 0.33065 0.15623 0.607 0.0
H496 H 0.29815 0.1968 0.53062 0.0
H497 H 0.42453 0.28551 0.53091 0.0
H498 H 0.4144 0.24845 0.51479 0.0
H499 H 0.40826 0.25023 0.55244 0.0
C500 C 0.36851 0.16059 0.54504 0.0
C501 C 0.35605 0.15008 0.57251 0.0
C502 C 0.36572 0.18436 0.53138 0.0
C503 C 0.35071 0.19825 0.54503 0.0
C504 C 0.33784 0.18755 0.57222 0.0
H505 H 0.35737 0.37313 0.51316 0.0
H506 H 0.36298 0.32946 0.53055 0.0
C507 C 0.3405 0.16371 0.58587 0.0
C508 C 0.34822 0.22388 0.531 0.0
H509 H 0.39126 0.29932 0.50654 0.0
C510 C 0.31847 0.21921 0.52527 0.0
C511 C 0.37483 0.25311 0.5243 0.0
C512 C 0.40733 0.25986 0.53112 0.0
C513 C 0.31456 0.24313 0.51316 0.0
C514 C 0.34118 0.27225 0.50615 0.0
C515 C 0.37093 0.27684 0.51172 0.0
C516 C 0.33863 0.29892 0.49464 0.0
C517 C 0.282 0.23735 0.50882 0.0
C518 C 0.32359 0.2964 0.46838 0.0
C519 C 0.32009 0.32127 0.45841 0.0
C520 C 0.33185 0.3492 0.47446 0.0
C521 C 0.34779 0.35191 0.50033 0.0
C522 C 0.35112 0.32701 0.5103 0.0
H523 H 0.26464 0.21679 0.52137 0.0
H524 H 0.28063 0.25834 0.51507 0.0
H525 H 0.2755 0.2325 0.48582 0.0
H526 H 0.3144 0.27515 0.45567 0.0
H527 H 0.30802 0.3185 0.43825 0.0
H528 H 0.83238 0.20243 0.58699 0.0
H529 H 0.79479 0.14603 0.58156 0.0
H530 H 0.79939 0.15653 0.48969 0.0
H531 H 0.8366 0.2127 0.49476 0.0
H532 H 0.7353 0.12298 0.54863 0.0
H533 H 0.80996 0.07814 0.50795 0.0
H534 H 0.82511 0.11384 0.52883 0.0
H535 H 0.81612 0.11394 0.49148 0.0
C536 C 0.82566 0.19265 0.56563 0.0
C537 C 0.83734 0.21205 0.54128 0.0
C538 C 0.80424 0.16049 0.56261 0.0
C539 C 0.79473 0.14725 0.53525 0.0
C540 C 0.80687 0.16635 0.51096 0.0
H541 H 0.66776 0.98902 0.43991 0.0
H542 H 0.71102 0.0364 0.46095 0.0
C543 C 0.82794 0.19847 0.51393 0.0
C544 C 0.77009 0.11408 0.53166 0.0
H545 H 0.75519 0.04551 0.50014 0.0
C546 C 0.73954 0.1057 0.53856 0.0
C547 C 0.77598 0.09192 0.51846 0.0
C548 C 0.8086 0.09972 0.51142 0.0
C549 C 0.7143 0.07625 0.53081 0.0
C550 C 0.72005 0.05442 0.51648 0.0
C551 C 0.75084 0.0623 0.51103 0.0
C552 C 0.69446 0.02464 0.50451 0.0
C553 C 0.68173 0.06964 0.53638 0.0
C554 C 0.67103 0.00206 0.52209 0.0
C555 C 0.64594 0.97514 0.51003 0.0
C556 C 0.64426 0.97008 0.48027 0.0
C557 C 0.66837 0.9922 0.4629 0.0
C558 C 0.69315 0.01927 0.4749 0.0
H559 H 0.68133 0.09143 0.54162 0.0
H560 H 0.66636 0.05836 0.51749 0.0
H561 H 0.67192 0.05334 0.55485 0.0
H562 H 0.672 0.00537 0.54507 0.0
H563 H 0.62792 0.95828 0.52401 0.0
H564 H 0.99549 0.61178 0.49616 0.0
H565 H 0.94654 0.60461 0.51433 0.0
H566 H 0.96119 0.68673 0.46745 0.0
H567 H 0.00965 0.69337 0.44833 0.0
H568 H 0.93909 0.64314 0.54793 0.0
H569 H 0.87181 0.62625 0.44783 0.0
H570 H 0.90723 0.62469 0.44874 0.0
H571 H 0.9088 0.66204 0.44747 0.0
C572 C 0.98809 0.62808 0.4894 0.0
C573 C 0.00646 0.65316 0.4708 0.0
C574 C 0.9601 0.62395 0.49981 0.0
C575 C 0.94998 0.64491 0.49202 0.0
C576 C 0.96809 0.66978 0.4732 0.0
H577 H 0.82522 0.67997 0.59234 0.0
H578 H 0.86996 0.68162 0.56964 0.0
C579 C 0.99591 0.67367 0.46243 0.0
C580 C 0.92168 0.64199 0.50522 0.0
H581 H 0.85236 0.63753 0.49004 0.0
C582 C 0.92001 0.64165 0.53525 0.0
C583 C 0.89662 0.63967 0.48869 0.0
C584 C 0.896 0.63784 0.45641 0.0
C585 C 0.89427 0.63959 0.54922 0.0
C586 C 0.86991 0.63881 0.5327 0.0
C587 C 0.87125 0.63853 0.50268 0.0
C588 C 0.84275 0.63809 0.54616 0.0
C589 C 0.89324 0.63775 0.58152 0.0
C590 C 0.8125 0.61361 0.53978 0.0
C591 C 0.78682 0.61284 0.55238 0.0
C592 C 0.79091 0.63653 0.57168 0.0
C593 C 0.82125 0.66117 0.57783 0.0
C594 C 0.84689 0.66207 0.56499 0.0
H595 H 0.90841 0.62906 0.59016 0.0
H596 H 0.90176 0.66162 0.59043 0.0
H597 H 0.86916 0.62199 0.58919 0.0
H598 H 0.80878 0.59494 0.52521 0.0
H599 H 0.76378 0.59351 0.54718 0.0
H600 H 0.27267 0.43371 0.34 0.0
H601 H 0.24209 0.42501 0.29626 0.0
H602 H 0.2058 0.32504 0.30308 0.0
H603 H 0.23648 0.33351 0.34716 0.0
H604 H 0.24459 0.39195 0.24428 0.0
H605 H 0.12769 0.33713 0.29496 0.0
H606 H 0.16305 0.36107 0.31524 0.0
H607 H 0.15312 0.32227 0.30414 0.0
C608 C 0.2582 0.40984 0.33227 0.0
C609 C 0.25694 0.38428 0.34705 0.0
C610 C 0.24077 0.40493 0.30727 0.0
C611 C 0.22157 0.3744 0.29665 0.0
C612 C 0.22029 0.34875 0.31118 0.0
H613 H 0.097 0.33411 0.14727 0.0
H614 H 0.12293 0.3259 0.18868 0.0
C615 C 0.23789 0.35366 0.33623 0.0
C616 C 0.20336 0.36998 0.27011 0.0
H617 H 0.13039 0.34841 0.2457 0.0
C618 C 0.21956 0.38205 0.24446 0.0
C619 C 0.17071 0.35677 0.27046 0.0
C620 C 0.15242 0.34362 0.29762 0.0
C621 C 0.20411 0.38235 0.2193 0.0
C622 C 0.17175 0.37097 0.22004 0.0
C623 C 0.15524 0.35734 0.24531 0.0
C624 C 0.15532 0.3755 0.19552 0.0
C625 C 0.22269 0.39535 0.19225 0.0
C626 C 0.16446 0.40608 0.18621 0.0
C627 C 0.1498 0.41083 0.1627 0.0
C628 C 0.1255 0.38507 0.14816 0.0
C629 C 0.11572 0.35442 0.15801 0.0
C630 C 0.13049 0.34968 0.18161 0.0
H631 H 0.24414 0.39372 0.19278 0.0
H632 H 0.2087 0.38268 0.17302 0.0
H633 H 0.22985 0.42059 0.19013 0.0
H634 H 0.18308 0.42635 0.19709 0.0
H635 H 0.15773 0.43474 0.15581 0.0
H636 H 0.66188 0.75285 0.15799 0.0
H637 H 0.67134 0.78636 0.20011 0.0
H638 H 0.57233 0.74409 0.21161 0.0
H639 H 0.56271 0.71066 0.16996 0.0
H640 H 0.64973 0.82998 0.20671 0.0
H641 H 0.60488 0.73928 0.29181 0.0
H642 H 0.61596 0.73263 0.25696 0.0
H643 H 0.5784 0.72877 0.26201 0.0
C644 C 0.64218 0.75044 0.16978 0.0
C645 C 0.61155 0.72911 0.16076 0.0
C646 C 0.64763 0.76962 0.19372 0.0
C647 C 0.62252 0.76734 0.20909 0.0
C648 C 0.59201 0.74575 0.20032 0.0
H649 H 0.56159 0.848 0.32987 0.0
H650 H 0.57196 0.82203 0.29069 0.0
C651 C 0.58656 0.72677 0.17643 0.0
C652 C 0.62759 0.78861 0.23334 0.0
H653 H 0.60564 0.78755 0.30243 0.0
C654 C 0.64079 0.82094 0.22787 0.0
C655 C 0.61606 0.77666 0.26089 0.0
C656 C 0.60332 0.74247 0.26839 0.0
C657 C 0.64062 0.84128 0.24877 0.0
C658 C 0.62704 0.82879 0.27561 0.0
C659 C 0.61567 0.79688 0.28162 0.0
C660 C 0.62189 0.84757 0.29702 0.0
C661 C 0.65324 0.8755 0.24159 0.0
C662 C 0.64668 0.87098 0.31305 0.0
C663 C 0.64083 0.88596 0.33549 0.0
C664 C 0.61009 0.87751 0.34221 0.0
C665 C 0.58549 0.85496 0.32528 0.0
C666 C 0.59136 0.84008 0.30292 0.0
H667 H 0.66056 0.88089 0.21888 0.0
H668 H 0.63536 0.8821 0.24579 0.0
H669 H 0.67365 0.89034 0.25555 0.0
H670 H 0.67037 0.87681 0.30891 0.0
H671 H 0.66025 0.90319 0.34824 0.0
H672 H 0.28467 0.85421 0.17734 0.0
H673 H 0.25172 0.83252 0.21937 0.0
H674 H 0.2038 0.88217 0.19684 0.0
H675 H 0.23665 0.90392 0.1544 0.0
H676 H 0.24098 0.86398 0.26623 0.0
H677 H 0.13424 0.78774 0.20138 0.0
H678 H 0.1727 0.80564 0.18626 0.0
H679 H 0.15549 0.82923 0.19358 0.0
C680 C 0.26731 0.86075 0.1814 0.0
C681 C 0.26309 0.88057 0.16246 0.0
C682 C 0.24855 0.84838 0.20545 0.0
C683 C 0.22513 0.85546 0.21094 0.0
C684 C 0.22151 0.87613 0.19269 0.0
H685 H 0.08737 0.754 0.34701 0.0
H686 H 0.11457 0.79195 0.3083 0.0
C687 C 0.24037 0.88862 0.16858 0.0
C688 C 0.20401 0.83997 0.23529 0.0
H689 H 0.13098 0.78007 0.25118 0.0
C690 C 0.21678 0.84601 0.26303 0.0
C691 C 0.1724 0.81672 0.23098 0.0
C692 C 0.15774 0.80917 0.20148 0.0
C693 C 0.19915 0.82833 0.28648 0.0
C694 C 0.16821 0.80369 0.28189 0.0
C695 C 0.15479 0.79894 0.25448 0.0
C696 C 0.15092 0.78042 0.30455 0.0
C697 C 0.21407 0.83544 0.31586 0.0
C698 C 0.16194 0.7609 0.31451 0.0
C699 C 0.1465 0.73924 0.33631 0.0
C700 C 0.11964 0.73661 0.34856 0.0
C701 C 0.10805 0.75556 0.33799 0.0
C702 C 0.12355 0.77725 0.31599 0.0
H703 H 0.23391 0.86002 0.31729 0.0
H704 H 0.19693 0.83178 0.33266 0.0
H705 H 0.22314 0.81937 0.32035 0.0
H706 H 0.1827 0.7626 0.3055 0.0
H707 H 0.15595 0.72491 0.34385 0.0
H708 H 0.89847 0.63422 0.82972 0.0
H709 H 0.86702 0.63318 0.78863 0.0
H710 H 0.79139 0.54352 0.8166 0.0
H711 H 0.82249 0.54457 0.85795 0.0
H712 H 0.83925 0.58911 0.74443 0.0
H713 H 0.75113 0.59831 0.8089 0.0
H714 H 0.78812 0.60636 0.82358 0.0
H715 H 0.75693 0.56642 0.81916 0.0
C716 C 0.87518 0.61423 0.82708 0.0
C717 C 0.86284 0.58957 0.84716 0.0
C718 C 0.85726 0.61369 0.80361 0.0
C719 C 0.82672 0.58855 0.7999 0.0
C720 C 0.81469 0.56345 0.81944 0.0
H721 H 0.71289 0.54308 0.64578 0.0
H722 H 0.74259 0.54234 0.68759 0.0
C723 C 0.83256 0.564 0.84293 0.0
C724 C 0.80745 0.58862 0.77559 0.0
H725 H 0.74022 0.58811 0.75918 0.0
C726 C 0.81762 0.58892 0.74761 0.0
C727 C 0.7795 0.58887 0.77989 0.0
C728 C 0.76834 0.59027 0.80948 0.0
C729 C 0.80026 0.58891 0.72374 0.0
C730 C 0.77178 0.58806 0.72805 0.0
C731 C 0.76188 0.58833 0.75601 0.0
C732 C 0.75228 0.58759 0.7037 0.0
C733 C 0.8128 0.59038 0.69412 0.0
C734 C 0.747 0.61274 0.69955 0.0
C735 C 0.7299 0.61315 0.67579 0.0
C736 C 0.71771 0.58831 0.6559 0.0
C737 C 0.72214 0.56263 0.66066 0.0
C738 C 0.73925 0.56225 0.68442 0.0
H739 H 0.83807 0.59851 0.69465 0.0
H740 H 0.8004 0.56653 0.68442 0.0
H741 H 0.80899 0.60642 0.68007 0.0
H742 H 0.75672 0.63241 0.71433 0.0
H743 H 0.72678 0.63321 0.67274 0.0
H744 H 0.36164 0.27089 0.82857 0.0
H745 H 0.36389 0.24789 0.78273 0.0
H746 H 0.43635 0.23313 0.81707 0.0
H747 H 0.4352 0.25727 0.86204 0.0
H748 H 0.45024 0.2556 0.76496 0.0
H749 H 0.32791 0.15643 0.76566 0.0
H750 H 0.33184 0.19472 0.76625 0.0
H751 H 0.34561 0.18182 0.79619 0.0
C752 C 0.37803 0.26274 0.8262 0.0
C753 C 0.39823 0.26583 0.84881 0.0
C754 C 0.37917 0.24943 0.80011 0.0
C755 C 0.39996 0.2383 0.7966 0.0
C756 C 0.42016 0.24158 0.81921 0.0
H757 H 0.38926 0.09746 0.68297 0.0
H758 H 0.388 0.1295 0.72222 0.0
C759 C 0.41944 0.25535 0.84495 0.0
C760 C 0.40112 0.22317 0.7696 0.0
H761 H 0.35819 0.16013 0.72583 0.0
C762 C 0.43009 0.23475 0.75634 0.0
C763 C 0.37484 0.19587 0.75848 0.0
C764 C 0.34335 0.18126 0.77248 0.0
C765 C 0.43383 0.21918 0.73299 0.0
C766 C 0.40754 0.19191 0.72183 0.0
C767 C 0.37834 0.18101 0.73443 0.0
C768 C 0.40994 0.17318 0.69822 0.0
C769 C 0.46618 0.23131 0.72154 0.0
C770 C 0.42297 0.18708 0.67175 0.0
C771 C 0.42456 0.16893 0.64962 0.0
C772 C 0.41229 0.13645 0.65336 0.0
C773 C 0.39907 0.12252 0.6797 0.0
C774 C 0.39817 0.14077 0.70202 0.0
H775 H 0.48437 0.24643 0.73743 0.0
H776 H 0.46988 0.21166 0.71556 0.0
H777 H 0.46944 0.24581 0.70219 0.0
H778 H 0.43132 0.21179 0.66796 0.0
H779 H 0.43421 0.18004 0.62924 0.0
H780 H 0.71603 0.08963 0.82565 0.0
H781 H 0.74874 0.12029 0.78565 0.0
H782 H 0.75539 0.20441 0.82064 0.0
H783 H 0.72286 0.17389 0.86105 0.0
H784 H 0.7393 0.15662 0.74524 0.0
H785 H 0.847 0.2286 0.80941 0.0
H786 H 0.81391 0.19326 0.82311 0.0
H787 H 0.81341 0.22948 0.82183 0.0
C788 C 0.72433 0.11464 0.8248 0.0
C789 C 0.71702 0.12941 0.84654 0.0
C790 C 0.74305 0.1321 0.80196 0.0
C791 C 0.75492 0.16466 0.80051 0.0
C792 C 0.74695 0.17938 0.82173 0.0
H793 H 0.83066 0.2835 0.65258 0.0
H794 H 0.80221 0.2557 0.69543 0.0
C795 C 0.72815 0.16189 0.84462 0.0
C796 C 0.77526 0.18299 0.77648 0.0
H797 H 0.84833 0.24279 0.76042 0.0
C798 C 0.76314 0.17542 0.74854 0.0
C799 C 0.80653 0.2071 0.78089 0.0
C800 C 0.82117 0.21499 0.81039 0.0
C801 C 0.78125 0.19183 0.72484 0.0
C802 C 0.81211 0.21676 0.72931 0.0
C803 C 0.82454 0.22387 0.75718 0.0
C804 C 0.83142 0.23597 0.70514 0.0
C805 C 0.7673 0.18218 0.69517 0.0
C806 C 0.85804 0.23506 0.69714 0.0
C807 C 0.87454 0.25111 0.67264 0.0
C808 C 0.86459 0.26827 0.65592 0.0
C809 C 0.83874 0.27022 0.66483 0.0
C810 C 0.82239 0.2543 0.68926 0.0
H811 H 0.74657 0.15808 0.69497 0.0
H812 H 0.75989 0.19877 0.68748 0.0
H813 H 0.78464 0.18299 0.6799 0.0
H814 H 0.86541 0.22112 0.70929 0.0
H815 H 0.8944 0.24924 0.6663 0.0
H816 H 0.01828 0.4215 0.10031 0.0
H817 H 0.98558 0.44124 0.08022 0.0
H818 H 0.05707 0.49706 0.0192 0.0
H819 H 0.08991 0.47775 0.0391 0.0
H820 H 0.00982 0.51676 0.0646 0.0
H821 H 0.96616 0.4262 0.97828 0.0
H822 H 0.97772 0.4194 0.0132 0.0
H823 H 0.00673 0.44504 0.98827 0.0
C824 C 0.02724 0.43841 0.08296 0.0
C825 C 0.05657 0.44796 0.07114 0.0
C826 C 0.00853 0.44955 0.07151 0.0
C827 C 0.01896 0.4703 0.04817 0.0
C828 C 0.04869 0.4809 0.03717 0.0
H829 H 0.95878 0.55281 0.92179 0.0
H830 H 0.9803 0.52632 0.95018 0.0
C831 C 0.06739 0.46987 0.04858 0.0
C832 C -0.00154 0.4799 0.03406 0.0
H833 H 0.95406 0.4667 0.97392 0.0
C834 C -0.00281 0.50564 0.04501 0.0
C835 C 0.98232 0.46527 0.00849 0.0
C836 C 0.98302 0.43732 0.99626 0.0
C837 C 0.98105 0.51805 0.0303 0.0
C838 C 0.96541 0.50384 0.00429 0.0
C839 C 0.96599 0.47746 0.99387 0.0
C840 C 0.95032 0.51745 0.98652 0.0
C841 C 0.98219 0.54715 0.04199 0.0
C842 C 0.9257 0.5204 0.99723 0.0
C843 C 0.91348 0.53572 0.98112 0.0
C844 C 0.92546 0.54799 0.9539 0.0
C845 C 0.94907 0.54363 0.94268 0.0
C846 C 0.9614 0.52851 0.95888 0.0
H847 H 0.00069 0.55901 0.05857 0.0
H848 H 0.98634 0.56426 0.02457 0.0
H849 H 0.95955 0.54044 0.05197 0.0
H850 H 0.91633 0.51136 0.01824 0.0
H851 H 0.89511 0.53852 0.99023 0.0
H852 H 0.51403 0.60836 0.04891 0.0
H853 H 0.49174 0.5569 0.02625 0.0
H854 H 0.54527 0.53264 0.08311 0.0
H855 H 0.56834 0.58468 0.10563 0.0
H856 H 0.55271 0.52392 0.02634 0.0
H857 H 0.42725 0.46881 0.05064 0.0
H858 H 0.44287 0.50738 0.03546 0.0
H859 H 0.45674 0.50275 0.06987 0.0
C860 C 0.52066 0.59189 0.05699 0.0
C861 C 0.54303 0.60056 0.07894 0.0
C862 C 0.50771 0.56238 0.04413 0.0
C863 C 0.5166 0.54086 0.05322 0.0
C864 C 0.53801 0.54894 0.07593 0.0
H865 H 0.46932 0.35899 0.98274 0.0
H866 H 0.49195 0.4073 0.01124 0.0
C867 C 0.55106 0.57857 0.08882 0.0
C868 C 0.50582 0.51136 0.03703 0.0
H869 H 0.44058 0.4464 0.01166 0.0
C870 C 0.52822 0.50671 0.02346 0.0
C871 C 0.47385 0.48912 0.03318 0.0
C872 C 0.44882 0.49208 0.0483 0.0
C873 C 0.51941 0.48082 0.00541 0.0
C874 C 0.48747 0.45912 0.00103 0.0
C875 C 0.46508 0.46341 0.01493 0.0
C876 C 0.47667 0.43141 0.98238 0.0
C877 C 0.54415 0.47721 0.9905 0.0
C878 C 0.46099 0.42933 0.95663 0.0
C879 C 0.44821 0.40188 0.94022 0.0
C880 C 0.45062 0.37603 0.94961 0.0
C881 C 0.46714 0.37858 0.97501 0.0
C882 C 0.48012 0.40611 0.99126 0.0
H883 H 0.56753 0.49864 0.99256 0.0
H884 H 0.54523 0.45708 3e-05 0.0
H885 H 0.5383 0.47203 0.9674 0.0
H886 H 0.45808 0.44871 0.94959 0.0
H887 H 0.43546 0.40048 0.92081 0.0
H888 H 0.38983 0.98863 0.08159 0.0
H889 H 0.43879 0.01878 0.05574 0.0
H890 H 0.44465 0.93467 0.04693 0.0
H891 H 0.39462 0.90413 0.07109 0.0
H892 H 0.49569 0.03369 0.06276 0.0
H893 H 0.45257 0.95987 0.96562 0.0
H894 H 0.4273 0.95536 0.99484 0.0
H895 H 0.45026 0.93643 0.99598 0.0
C896 C 0.40178 0.9767 0.07434 0.0
C897 C 0.38852 0.94409 0.07814 0.0
C898 C 0.42969 0.9939 0.05949 0.0
C899 C 0.44502 0.97886 0.04861 0.0
C900 C 0.43269 0.9466 0.05409 0.0
H901 H 0.63664 0.06955 0.99583 0.0
H902 H 0.58808 0.04837 0.0222 0.0
C903 C 0.40435 0.92923 0.0682 0.0
C904 C 0.47364 0.99675 0.03128 0.0
H905 H 0.50781 0.99374 0.96937 0.0
C906 C 0.49822 0.02512 0.04219 0.0
C907 C 0.47669 0.98624 0.00397 0.0
C908 C 0.45013 0.95802 0.98929 0.0
C909 C 0.5261 0.0426 0.02705 0.0
C910 C 0.53009 0.03062 0.00091 0.0
C911 C 0.5051 0.00281 0.98959 0.0
C912 C 0.5601 0.04576 0.98527 0.0
C913 C 0.55059 0.07396 0.0391 0.0
C914 C 0.56063 0.05056 0.95549 0.0
C915 C 0.58823 0.06157 0.94022 0.0
C916 C 0.61592 0.06863 0.95454 0.0
C917 C 0.61567 0.06477 0.98437 0.0
C918 C 0.58792 0.05292 -0.00049 0.0
H919 H 0.53986 0.08488 0.05194 0.0
H920 H 0.56631 0.07036 0.0536 0.0
H921 H 0.56465 0.09064 0.02189 0.0
H922 H 0.53953 0.04516 0.94394 0.0
H923 H 0.58786 0.06434 0.9172 0.0
H924 H 0.51777 0.90462 0.45748 0.0
H925 H 0.49854 0.93637 0.47966 0.0
H926 H 0.55259 0.01223 0.42097 0.0
H927 H 0.57224 0.98073 0.39865 0.0
H928 H 0.54922 0.00902 0.49979 0.0
H929 H 0.4526 0.98738 0.4246 0.0
H930 H 0.46303 0.95757 0.43069 0.0
H931 H 0.48878 0.99252 0.41123 0.0
C932 C 0.52532 0.92791 0.44904 0.0
C933 C 0.54661 0.94024 0.4264 0.0
C934 C 0.51435 0.94599 0.46177 0.0
C935 C 0.52428 0.97652 0.4519 0.0
C936 C 0.54472 0.98862 0.42875 0.0
H937 H 0.4548 0.09735 0.51132 0.0
H938 H 0.48211 0.07668 0.48374 0.0
C939 C 0.55582 0.97058 0.41604 0.0
C940 C 0.51428 0.99614 0.46688 0.0
H941 H 0.45875 0.01711 0.46599 0.0
C942 C 0.52961 0.01109 0.49238 0.0
C943 C 0.48901 -0.00106 0.45681 0.0
C944 C 0.47221 0.98332 0.42933 0.0
C945 C 0.51981 0.02838 0.50854 0.0
C946 C 0.49349 0.02996 0.49924 0.0
C947 C 0.47884 0.0158 0.47316 0.0
C948 C 0.47965 0.0446 0.51689 0.0
C949 C 0.53781 0.0448 0.53535 0.0
C950 C 0.46937 0.03356 0.54473 0.0
C951 C 0.45405 0.04552 0.56061 0.0
C952 C 0.44827 0.06838 0.54875 0.0
C953 C 0.45895 0.07975 0.52103 0.0
C954 C 0.47451 0.06795 0.50524 0.0
H955 H 0.56233 0.05031 0.53418 0.0
H956 H 0.53771 0.067 0.53911 0.0
H957 H 0.52699 0.02905 0.55403 0.0
H958 H 0.47231 0.01496 0.55388 0.0
H959 H 0.44584 0.03608 0.58181 0.0
H960 H 0.88758 0.36424 0.52446 0.0
H961 H 0.91424 0.41179 0.49505 0.0
H962 H 0.99309 0.44972 0.55281 0.0
H963 H 0.96652 0.40219 0.5825 0.0
H964 H 0.94299 0.47969 0.51297 0.0
H965 H 0.02528 0.44523 0.46967 0.0
H966 H 0.98862 0.41715 0.48563 0.0
H967 H 0.02074 0.44365 0.50796 0.0
C968 C 0.91043 0.38291 0.53112 0.0
C969 C 0.92507 0.37956 0.55567 0.0
C970 C 0.92558 0.40996 0.51431 0.0
C971 C 0.95568 0.43387 0.52165 0.0
C972 C 0.96992 0.43122 0.54675 0.0
H973 H 0.09408 0.60888 0.45227 0.0
H974 H 0.06449 0.5574 0.47498 0.0
C975 C 0.95466 0.40424 0.56375 0.0
C976 C 0.97254 0.46111 0.50246 0.0
H977 H 0.03338 0.4952 0.45612 0.0
C978 C 0.96264 0.4831 0.50037 0.0
C979 C -0.00199 0.46515 0.48611 0.0
C980 C 0.0088 0.4415 0.48717 0.0
C981 C 0.97831 0.50981 0.48293 0.0
C982 C 0.00396 0.51402 0.46664 0.0
C983 C 0.01353 0.4917 0.46844 0.0
C984 C 0.02278 0.54287 0.44964 0.0
C985 C 0.96807 0.53392 0.48298 0.0
C986 C 0.00953 0.5511 0.42696 0.0
C987 C 0.02641 0.58065 0.41393 0.0
C988 C 0.05674 0.60217 0.42345 0.0
C989 C 0.07064 0.59285 0.44468 0.0
C990 C 0.0538 0.56345 0.45766 0.0
H991 H 0.95257 0.53054 0.50126 0.0
H992 H 0.9885 0.55815 0.48406 0.0
H993 H 0.95509 0.5318 0.46286 0.0
H994 H 0.98578 0.53519 0.42012 0.0
H995 H 0.01518 0.58719 0.39754 0.0
H996 H 0.40059 0.42714 0.39669 0.0
H997 H 0.45274 0.44798 0.41777 0.0
H998 H 0.43237 0.49877 0.48055 0.0
H999 H 0.38049 0.47839 0.45964 0.0
H1000 H 0.50185 0.52161 0.43538 0.0
H1001 H 0.4539 0.42983 0.5206 0.0
H1002 H 0.43579 0.42379 0.48564 0.0
H1003 H 0.43231 0.44895 0.51109 0.0
C1004 C 0.40745 0.44322 0.41464 0.0
C1005 C 0.3864 0.45097 0.42666 0.0
C1006 C 0.43715 0.455 0.42665 0.0
C1007 C 0.44606 0.47458 0.45079 0.0
C1008 C 0.42569 0.48351 0.46198 0.0
H1009 H 0.58805 0.55503 0.57891 0.0
H1010 H 0.54027 0.53007 0.55014 0.0
C1011 C 0.39611 0.47187 0.44998 0.0
C1012 C 0.47591 0.48443 0.46554 0.0
H1013 H 0.50631 0.4705 0.52586 0.0
C1014 C 0.50307 0.5103 0.45496 0.0
C1015 C 0.47707 0.46954 0.49107 0.0
C1016 C 0.44831 0.44135 0.50286 0.0
C1017 C 0.53143 0.5225 0.46997 0.0
C1018 C 0.53253 0.50795 0.49587 0.0
C1019 C 0.5054 0.48154 0.50598 0.0
C1020 C 0.56113 0.52099 0.51372 0.0
C1021 C 0.55959 0.55167 0.45866 0.0
C1022 C 0.58847 0.52335 0.50307 0.0
C1023 C 0.61587 0.53773 0.51944 0.0
C1024 C 0.61627 0.54971 0.54682 0.0
C1025 C 0.58851 0.54607 0.55789 0.0
C1026 C 0.56119 0.53183 0.54148 0.0
H1027 H 0.55319 0.56384 0.44218 0.0
H1028 H 0.57246 0.56849 0.47629 0.0
H1029 H 0.57551 0.54496 0.44865 0.0
H1030 H 0.58872 0.51448 0.48195 0.0
H1031 H 0.63686 0.54001 0.5104 0.0
loop_
_geom_bond_atom_site_label_1
_geom_bond_atom_site_label_2
_geom_bond_distance
_geom_bond_site_symmetry_2
_ccdc_geom_bond_type
Co0 O1 2.216 . S
Co0 O2 2.091 . S
Co0 O4 2.004 . S
Co0 O10 2.021 . S
Co0 O12 2.137 . S
Co0 O13 2.244 . S
O1 Co0 2.216 . S
O1 C8 1.247 . S
O2 Co0 2.091 . S
O2 C8 1.261 . S
C3 O12 1.247 . S
C3 O13 1.272 . S
O4 Co0 2.004 . S
O4 C9 1.259 . S
Co5 O6 2.061 . S
Co5 O11 2.052 . S
Co5 O13 2.135 . S
O6 Co5 2.061 . S
O6 C9 1.235 . S
C7 O10 1.238 . S
C7 O11 1.241 . S
C8 O1 1.247 . S
C8 O2 1.261 . S
C9 O4 1.259 . S
C9 O6 1.235 . S
O10 Co0 2.021 . S
O10 C7 1.238 . S
O11 Co5 2.052 . S
O11 C7 1.241 . S
O12 Co0 2.137 . S
O12 C3 1.247 . S
O13 Co0 2.244 . S
O13 C3 1.272 . S
O13 Co5 2.135 . S
Co14 O15 2.216 . S
Co14 O16 2.091 . S
Co14 O18 2.004 . S
Co14 O24 2.021 . S
Co14 O26 2.137 . S
Co14 O27 2.244 . S
O15 Co14 2.216 . S
O15 C22 1.247 . S
O16 Co14 2.091 . S
O16 C22 1.261 . S
C17 O26 1.247 . S
C17 O27 1.272 . S
O18 Co14 2.004 . S
O18 C23 1.259 . S
Co19 O20 2.061 . S
Co19 O25 2.052 . S
Co19 O27 2.135 . S
O20 Co19 2.061 . S
O20 C23 1.235 . S
C21 O24 1.238 . S
C21 O25 1.241 . S
C22 O15 1.247 . S
C22 O16 1.261 . S
C23 O18 1.259 . S
C23 O20 1.235 . S
O24 Co14 2.021 . S
O24 C21 1.238 . S
O25 Co19 2.052 . S
O25 C21 1.241 . S
O26 Co14 2.137 . S
O26 C17 1.247 . S
O27 Co14 2.244 . S
O27 C17 1.272 . S
O27 Co19 2.135 . S
Co28 O29 2.216 . S
Co28 O30 2.091 . S
Co28 O32 2.004 . S
Co28 O38 2.021 . S
Co28 O40 2.137 . S
Co28 O41 2.244 . S
O29 Co28 2.216 . S
O29 C36 1.247 . S
O30 Co28 2.091 . S
O30 C36 1.261 . S
C31 O40 1.247 . S
C31 O41 1.272 . S
O32 Co28 2.004 . S
O32 C37 1.259 . S
Co33 O34 2.061 . S
Co33 O39 2.052 . S
Co33 O41 2.135 . S
O34 Co33 2.061 . S
O34 C37 1.235 . S
C35 O38 1.238 . S
C35 O39 1.241 . S
C36 O29 1.247 . S
C36 O30 1.261 . S
C37 O32 1.259 . S
C37 O34 1.235 . S
O38 Co28 2.021 . S
O38 C35 1.238 . S
O39 Co33 2.052 . S
O39 C35 1.241 . S
O40 Co28 2.137 . S
O40 C31 1.247 . S
O41 Co28 2.244 . S
O41 C31 1.272 . S
O41 Co33 2.135 . S
Co42 O43 2.216 . S
Co42 O44 2.091 . S
Co42 O46 2.004 . S
Co42 O52 2.021 . S
Co42 O54 2.137 . S
Co42 O55 2.244 . S
O43 Co42 2.216 . S
O43 C50 1.247 . S
O44 Co42 2.091 . S
O44 C50 1.261 . S
C45 O54 1.247 . S
C45 O55 1.272 . S
O46 Co42 2.004 . S
O46 C51 1.259 . S
Co47 O48 2.061 . S
Co47 O53 2.052 . S
Co47 O55 2.135 . S
O48 Co47 2.061 . S
O48 C51 1.235 . S
C49 O52 1.238 . S
C49 O53 1.241 . S
C50 O43 1.247 . S
C50 O44 1.261 . S
C51 O46 1.259 . S
C51 O48 1.235 . S
O52 Co42 2.021 . S
O52 C49 1.238 . S
O53 Co47 2.052 . S
O53 C49 1.241 . S
O54 Co42 2.137 . S
O54 C45 1.247 . S
O55 Co42 2.244 . S
O55 C45 1.272 . S
O55 Co47 2.135 . S
Co56 O57 2.216 . S
Co56 O58 2.091 . S
Co56 O60 2.004 . S
Co56 O66 2.021 . S
Co56 O68 2.137 . S
Co56 O69 2.244 . S
O57 Co56 2.216 . S
O57 C64 1.247 . S
O58 Co56 2.091 . S
O58 C64 1.261 . S
C59 O68 1.247 . S
C59 O69 1.272 . S
O60 Co56 2.004 . S
O60 C65 1.259 . S
Co61 O62 2.061 . S
Co61 O67 2.052 . S
Co61 O69 2.135 . S
O62 Co61 2.061 . S
O62 C65 1.235 . S
C63 O66 1.238 . S
C63 O67 1.241 . S
C64 O57 1.247 . S
C64 O58 1.261 . S
C65 O60 1.259 . S
C65 O62 1.235 . S
O66 Co56 2.021 . S
O66 C63 1.238 . S
O67 Co61 2.052 . S
O67 C63 1.241 . S
O68 Co56 2.137 . S
O68 C59 1.247 . S
O69 Co56 2.244 . S
O69 C59 1.272 . S
O69 Co61 2.135 . S
Co70 O71 2.216 . S
Co70 O72 2.091 . S
Co70 O74 2.004 . S
Co70 O80 2.021 . S
Co70 O82 2.137 . S
Co70 O83 2.244 . S
O71 Co70 2.216 . S
O71 C78 1.247 . S
O72 Co70 2.091 . S
O72 C78 1.261 . S
C73 O82 1.247 . S
C73 O83 1.272 . S
O74 Co70 2.004 . S
O74 C79 1.259 . S
Co75 O76 2.061 . S
Co75 O81 2.052 . S
Co75 O83 2.135 . S
O76 Co75 2.061 . S
O76 C79 1.235 . S
C77 O80 1.238 . S
C77 O81 1.241 . S
C78 O71 1.247 . S
C78 O72 1.261 . S
C79 O74 1.259 . S
C79 O76 1.235 . S
O80 Co70 2.021 . S
O80 C77 1.238 . S
O81 Co75 2.052 . S
O81 C77 1.241 . S
O82 Co70 2.137 . S
O82 C73 1.247 . S
O83 Co70 2.244 . S
O83 C73 1.272 . S
O83 Co75 2.135 . S
Co84 O85 2.216 . S
Co84 O86 2.091 . S
Co84 O88 2.004 . S
Co84 O94 2.021 . S
Co84 O96 2.137 . S
Co84 O97 2.244 . S
O85 Co84 2.216 . S
O85 C92 1.247 . S
O86 Co84 2.091 . S
O86 C92 1.261 . S
C87 O96 1.247 . S
C87 O97 1.272 . S
O88 Co84 2.004 . S
O88 C93 1.259 . S
Co89 O90 2.061 . S
Co89 O95 2.052 . S
Co89 O97 2.135 . S
O90 Co89 2.061 . S
O90 C93 1.235 . S
C91 O94 1.238 . S
C91 O95 1.241 . S
C92 O85 1.247 . S
C92 O86 1.261 . S
C93 O88 1.259 . S
C93 O90 1.235 . S
O94 Co84 2.021 . S
O94 C91 1.238 . S
O95 Co89 2.052 . S
O95 C91 1.241 . S
O96 Co84 2.137 . S
O96 C87 1.247 . S
O97 Co84 2.244 . S
O97 C87 1.272 . S
O97 Co89 2.135 . S
Co98 O99 2.216 . S
Co98 O100 2.091 . S
Co98 O102 2.004 . S
Co98 O108 2.021 . S
Co98 O110 2.137 . S
Co98 O111 2.244 . S
O99 Co98 2.216 . S
O99 C106 1.247 . S
O100 Co98 2.091 . S
O100 C106 1.261 . S
C101 O110 1.247 . S
C101 O111 1.272 . S
O102 Co98 2.004 . S
O102 C107 1.259 . S
Co103 O104 2.061 . S
Co103 O109 2.052 . S
Co103 O111 2.135 . S
O104 Co103 2.061 . S
O104 C107 1.235 . S
C105 O108 1.238 . S
C105 O109 1.241 . S
C106 O99 1.247 . S
C106 O100 1.261 . S
C107 O102 1.259 . S
C107 O104 1.235 . S
O108 Co98 2.021 . S
O108 C105 1.238 . S
O109 Co103 2.052 . S
O109 C105 1.241 . S
O110 Co98 2.137 . S
O110 C101 1.247 . S
O111 Co98 2.244 . S
O111 C101 1.272 . S
O111 Co103 2.135 . S
Co112 O113 2.216 . S
Co112 O114 2.091 . S
Co112 O116 2.004 . S
Co112 O122 2.021 . S
Co112 O124 2.137 . S
Co112 O125 2.244 . S
O113 Co112 2.216 . S
O113 C120 1.247 . S
O114 Co112 2.091 . S
O114 C120 1.261 . S
C115 O124 1.247 . S
C115 O125 1.272 . S
O116 Co112 2.004 . S
O116 C121 1.259 . S
Co117 O118 2.061 . S
Co117 O123 2.052 . S
Co117 O125 2.135 . S
O118 Co117 2.061 . S
O118 C121 1.235 . S
C119 O122 1.238 . S
C119 O123 1.241 . S
C120 O113 1.247 . S
C120 O114 1.261 . S
C121 O116 1.259 . S
C121 O118 1.235 . S
O122 Co112 2.021 . S
O122 C119 1.238 . S
O123 Co117 2.052 . S
O123 C119 1.241 . S
O124 Co112 2.137 . S
O124 C115 1.247 . S
O125 Co112 2.244 . S
O125 C115 1.272 . S
O125 Co117 2.135 . S
Co126 O127 2.216 . S
Co126 O128 2.091 . S
Co126 O130 2.004 . S
Co126 O136 2.021 . S
Co126 O138 2.137 . S
Co126 O139 2.244 . S
O127 Co126 2.216 . S
O127 C134 1.247 . S
O128 Co126 2.091 . S
O128 C134 1.261 . S
C129 O138 1.247 . S
C129 O139 1.272 . S
O130 Co126 2.004 . S
O130 C135 1.259 . S
Co131 O132 2.061 . S
Co131 O137 2.052 . S
Co131 O139 2.135 . S
O132 Co131 2.061 . S
O132 C135 1.235 . S
C133 O136 1.238 . S
C133 O137 1.241 . S
C134 O127 1.247 . S
C134 O128 1.261 . S
C135 O130 1.259 . S
C135 O132 1.235 . S
O136 Co126 2.021 . S
O136 C133 1.238 . S
O137 Co131 2.052 . S
O137 C133 1.241 . S
O138 Co126 2.137 . S
O138 C129 1.247 . S
O139 Co126 2.244 . S
O139 C129 1.272 . S
O139 Co131 2.135 . S
Co140 O141 2.216 . S
Co140 O142 2.091 . S
Co140 O144 2.004 . S
Co140 O150 2.021 . S
Co140 O152 2.137 . S
Co140 O153 2.244 . S
O141 Co140 2.216 . S
O141 C148 1.247 . S
O142 Co140 2.091 . S
O142 C148 1.261 . S
C143 O152 1.247 . S
C143 O153 1.272 . S
O144 Co140 2.004 . S
O144 C149 1.259 . S
Co145 O146 2.061 . S
Co145 O151 2.052 . S
Co145 O153 2.135 . S
O146 Co145 2.061 . S
O146 C149 1.235 . S
C147 O150 1.238 . S
C147 O151 1.241 . S
C148 O141 1.247 . S
C148 O142 1.261 . S
C149 O144 1.259 . S
C149 O146 1.235 . S
O150 Co140 2.021 . S
O150 C147 1.238 . S
O151 Co145 2.052 . S
O151 C147 1.241 . S
O152 Co140 2.137 . S
O152 C143 1.247 . S
O153 Co140 2.244 . S
O153 C143 1.272 . S
O153 Co145 2.135 . S
Co154 O155 2.216 . S
Co154 O156 2.091 . S
Co154 O158 2.004 . S
Co154 O164 2.021 . S
Co154 O166 2.137 . S
Co154 O167 2.244 . S
O155 Co154 2.216 . S
O155 C162 1.247 . S
O156 Co154 2.091 . S
O156 C162 1.261 . S
C157 O166 1.247 . S
C157 O167 1.272 . S
O158 Co154 2.004 . S
O158 C163 1.259 . S
Co159 O160 2.061 . S
Co159 O165 2.052 . S
Co159 O167 2.135 . S
O160 Co159 2.061 . S
O160 C163 1.235 . S
C161 O164 1.238 . S
C161 O165 1.241 . S
C162 O155 1.247 . S
C162 O156 1.261 . S
C163 O158 1.259 . S
C163 O160 1.235 . S
O164 Co154 2.021 . S
O164 C161 1.238 . S
O165 Co159 2.052 . S
O165 C161 1.241 . S
O166 Co154 2.137 . S
O166 C157 1.247 . S
O167 Co154 2.244 . S
O167 C157 1.272 . S
O167 Co159 2.135 . S
H168 C176 0.929 . S
H169 C178 0.930 . S
H170 C180 0.930 . S
H171 C183 0.929 . S
H172 C186 0.930 . S
H173 C188 0.960 . S
H174 C188 0.960 . S
H175 C188 0.960 . S
C176 H168 0.929 . S
C176 C177 1.377 . S
C176 C178 1.384 . S
C177 C176 1.377 . S
C177 C183 1.390 . S
C178 H169 0.930 . S
C178 C176 1.384 . S
C178 C179 1.372 . S
C179 C178 1.372 . S
C179 C180 1.400 . S
C179 C184 1.490 . S
C180 H170 0.930 . S
C180 C179 1.400 . S
C180 C183 1.386 . S
H181 C197 0.930 . S
H182 C198 0.931 . S
C183 H171 0.929 . S
C183 C177 1.390 . S
C183 C180 1.386 . S
C184 C179 1.490 . S
C184 C186 1.395 . S
C184 C187 1.403 1_554 S
H185 C191 0.930 . S
C186 H172 0.930 . S
C186 C184 1.395 . S
C186 C189 1.403 . S
C187 C184 1.403 1_556 S
C187 C188 1.524 . S
C187 C191 1.400 . S
C188 H173 0.960 . S
C188 H174 0.960 . S
C188 H175 0.960 . S
C188 C187 1.524 . S
C189 C186 1.403 . S
C189 C190 1.392 1_554 S
C189 C193 1.495 . S
C190 C189 1.392 1_556 S
C190 C191 1.385 . S
C190 C192 1.478 . S
C191 H185 0.930 . S
C191 C187 1.400 . S
C191 C190 1.385 . S
C192 C190 1.478 . S
C192 C194 1.381 . S
C192 C198 1.383 . S
C193 C189 1.495 . S
C193 H199 0.959 . S
C193 H200 0.961 . S
C193 H201 0.960 . S
C194 C192 1.381 . S
C194 C195 1.394 . S
C194 H202 0.930 . S
C195 C194 1.394 . S
C195 C196 1.383 . S
C195 H203 0.929 . S
C196 C195 1.383 . S
C196 C197 1.377 . S
C197 H181 0.930 . S
C197 C196 1.377 . S
C197 C198 1.379 . S
C198 H182 0.931 . S
C198 C192 1.383 . S
C198 C197 1.379 . S
H199 C193 0.959 . S
H200 C193 0.961 . S
H201 C193 0.960 . S
H202 C194 0.930 . S
H203 C195 0.929 . S
H204 C212 0.929 . S
H205 C214 0.930 . S
H206 C216 0.930 1_556 S
H207 C219 0.929 . S
H208 C222 0.927 1_554 S
H209 C224 0.960 . S
H210 C224 0.960 . S
H211 C224 0.960 . S
C212 H204 0.929 . S
C212 C213 1.377 . S
C212 C214 1.384 . S
C213 C212 1.377 . S
C213 C219 1.390 . S
C214 H205 0.930 . S
C214 C212 1.384 . S
C214 C215 1.372 . S
C215 C214 1.372 . S
C215 C216 1.400 . S
C215 C220 1.490 . S
C216 H206 0.930 1_554 S
C216 C215 1.400 . S
C216 C219 1.386 . S
H217 C233 0.930 . S
H218 C234 0.931 . S
C219 H207 0.929 . S
C219 C213 1.390 . S
C219 C216 1.386 . S
C220 C215 1.490 . S
C220 C222 1.385 1_554 S
C220 C223 1.403 . S
H221 C227 0.930 . S
C222 H208 0.927 1_556 S
C222 C220 1.385 1_556 S
C222 C225 1.417 . S
C223 C220 1.403 . S
C223 C224 1.524 . S
C223 C227 1.400 1_554 S
C224 H209 0.960 . S
C224 H210 0.960 . S
C224 H211 0.960 . S
C224 C223 1.524 . S
C225 C222 1.417 . S
C225 C226 1.392 . S
C225 C229 1.495 . S
C226 C225 1.392 . S
C226 C227 1.385 . S
C226 C228 1.478 . S
C227 H221 0.930 . S
C227 C223 1.400 1_556 S
C227 C226 1.385 . S
C228 C226 1.478 . S
C228 C230 1.381 . S
C228 C234 1.383 . S
C229 C225 1.495 . S
C229 H235 0.959 . S
C229 H236 0.961 . S
C229 H237 0.960 . S
C230 C228 1.381 . S
C230 C231 1.394 1_565 S
C230 H238 0.930 1_556 S
C231 C230 1.394 1_545 S
C231 C232 1.383 . S
C231 H239 0.929 . S
C232 C231 1.383 . S
C232 C233 1.377 1_545 S
C233 H217 0.930 . S
C233 C232 1.377 1_565 S
C233 C234 1.379 . S
C234 H218 0.931 . S
C234 C228 1.383 . S
C234 C233 1.379 . S
H235 C229 0.959 . S
H236 C229 0.961 . S
H237 C229 0.960 . S
H238 C230 0.930 1_554 S
H239 C231 0.929 . S
H240 C248 0.929 . S
H241 C250 0.930 . S
H242 C252 0.930 . S
H243 C255 0.929 . S
H244 C258 0.930 . S
H245 C260 0.960 . S
H246 C260 0.960 . S
H247 C260 0.960 . S
C248 H240 0.929 . S
C248 C249 1.377 . S
C248 C250 1.384 . S
C249 C248 1.377 . S
C249 C255 1.390 . S
C250 H241 0.930 . S
C250 C248 1.384 . S
C250 C251 1.372 . S
C251 C250 1.372 . S
C251 C252 1.400 . S
C251 C256 1.490 . S
C252 H242 0.930 . S
C252 C251 1.400 . S
C252 C255 1.386 . S
H253 C269 0.930 . S
H254 C270 0.931 . S
C255 H243 0.929 . S
C255 C249 1.390 . S
C255 C252 1.386 . S
C256 C251 1.490 . S
C256 C258 1.395 . S
C256 C259 1.403 1_554 S
H257 C263 0.930 . S
C258 H244 0.930 . S
C258 C256 1.395 . S
C258 C261 1.403 . S
C259 C256 1.403 1_556 S
C259 C260 1.524 . S
C259 C263 1.400 . S
C260 H245 0.960 . S
C260 H246 0.960 . S
C260 H247 0.960 . S
C260 C259 1.524 . S
C261 C258 1.403 . S
C261 C262 1.392 1_554 S
C261 C265 1.495 . S
C262 C261 1.392 1_556 S
C262 C263 1.385 . S
C262 C264 1.478 . S
C263 H257 0.930 . S
C263 C259 1.400 . S
C263 C262 1.385 . S
C264 C262 1.478 . S
C264 C266 1.381 . S
C264 C270 1.383 . S
C265 C261 1.495 . S
C265 H271 0.959 . S
C265 H272 0.961 . S
C265 H273 0.960 . S
C266 C264 1.381 . S
C266 C267 1.394 . S
C266 H274 0.930 . S
C267 C266 1.394 . S
C267 C268 1.383 1_455 S
C267 H275 0.924 . S
C268 C267 1.383 1_655 S
C268 C269 1.377 . S
C269 H253 0.930 . S
C269 C268 1.377 . S
C269 C270 1.379 1_655 S
C270 H254 0.931 . S
C270 C264 1.383 . S
C270 C269 1.379 1_455 S
H271 C265 0.959 . S
H272 C265 0.961 . S
H273 C265 0.960 . S
H274 C266 0.930 . S
H275 C267 0.924 . S
H276 C284 0.929 . S
H277 C286 0.930 . S
H278 C288 0.930 . S
H279 C291 0.929 . S
H280 C294 0.930 . S
H281 C296 0.960 . S
H282 C296 0.960 . S
H283 C296 0.960 . S
C284 H276 0.929 . S
C284 C285 1.377 . S
C284 C286 1.384 . S
C285 C284 1.377 . S
C285 C291 1.390 . S
C286 H277 0.930 . S
C286 C284 1.384 . S
C286 C287 1.372 . S
C287 C286 1.372 . S
C287 C288 1.400 . S
C287 C292 1.490 . S
C288 H278 0.930 . S
C288 C287 1.400 . S
C288 C291 1.386 . S
H289 C305 0.930 . S
H290 C306 0.931 . S
C291 H279 0.929 . S
C291 C285 1.390 . S
C291 C288 1.386 . S
C292 C287 1.490 . S
C292 C294 1.395 . S
C292 C295 1.403 . S
H293 C299 0.930 . S
C294 H280 0.930 . S
C294 C292 1.395 . S
C294 C297 1.403 . S
C295 C292 1.403 . S
C295 C296 1.524 . S
C295 C299 1.400 . S
C296 H281 0.960 . S
C296 H282 0.960 . S
C296 H283 0.960 . S
C296 C295 1.524 . S
C297 C294 1.403 . S
C297 C298 1.392 . S
C297 C301 1.495 . S
C298 C297 1.392 . S
C298 C299 1.385 . S
C298 C300 1.478 . S
C299 H293 0.930 . S
C299 C295 1.400 . S
C299 C298 1.385 . S
C300 C298 1.478 . S
C300 C302 1.381 . S
C300 C306 1.383 . S
C301 C297 1.495 . S
C301 H307 0.959 . S
C301 H308 0.961 . S
C301 H309 0.960 . S
C302 C300 1.381 . S
C302 C303 1.394 . S
C302 H310 0.930 . S
C303 C302 1.394 . S
C303 C304 1.383 . S
C303 H311 0.929 . S
C304 C303 1.383 . S
C304 C305 1.377 . S
C305 H289 0.930 . S
C305 C304 1.377 . S
C305 C306 1.379 . S
C306 H290 0.931 . S
C306 C300 1.383 . S
C306 C305 1.379 . S
H307 C301 0.959 . S
H308 C301 0.961 . S
H309 C301 0.960 . S
H310 C302 0.930 . S
H311 C303 0.929 . S
H312 C320 0.929 . S
H313 C322 0.930 . S
H314 C324 0.930 . S
H315 C327 0.929 . S
H316 C330 0.930 . S
H317 C332 0.960 . S
H318 C332 0.960 . S
H319 C332 0.960 . S
C320 H312 0.929 . S
C320 C321 1.377 . S
C320 C322 1.384 . S
C321 C320 1.377 . S
C321 C327 1.390 . S
C322 H313 0.930 . S
C322 C320 1.384 . S
C322 C323 1.372 . S
C323 C322 1.372 . S
C323 C324 1.400 . S
C323 C328 1.490 . S
C324 H314 0.930 . S
C324 C323 1.400 . S
C324 C327 1.386 . S
H325 C341 0.930 1_545 S
H326 C342 0.931 . S
C327 H315 0.929 . S
C327 C321 1.390 . S
C327 C324 1.386 . S
C328 C323 1.490 . S
C328 C330 1.395 . S
C328 C331 1.403 . S
H329 C335 0.930 . S
C330 H316 0.930 . S
C330 C328 1.395 . S
C330 C333 1.403 . S
C331 C328 1.403 . S
C331 C332 1.524 . S
C331 C335 1.400 . S
C332 H317 0.960 . S
C332 H318 0.960 . S
C332 H319 0.960 . S
C332 C331 1.524 . S
C333 C330 1.403 . S
C333 C334 1.392 . S
C333 C337 1.495 . S
C334 C333 1.392 . S
C334 C335 1.385 . S
C334 C336 1.478 . S
C335 H329 0.930 . S
C335 C331 1.400 . S
C335 C334 1.385 . S
C336 C334 1.478 . S
C336 C338 1.381 . S
C336 C342 1.383 . S
C337 C333 1.495 . S
C337 H343 0.959 . S
C337 H344 0.961 . S
C337 H345 0.960 . S
C338 C336 1.381 . S
C338 C339 1.394 1_565 S
C338 H346 0.930 . S
C339 C338 1.394 1_545 S
C339 C340 1.383 . S
C339 H347 0.929 . S
C340 C339 1.383 . S
C340 C341 1.377 1_545 S
C341 H325 0.930 1_565 S
C341 C340 1.377 1_565 S
C341 C342 1.379 . S
C342 H326 0.931 . S
C342 C336 1.383 . S
C342 C341 1.379 . S
H343 C337 0.959 . S
H344 C337 0.961 . S
H345 C337 0.960 . S
H346 C338 0.930 . S
H347 C339 0.929 . S
H348 C356 0.929 . S
H349 C358 0.930 . S
H350 C360 0.930 . S
H351 C363 0.929 . S
H352 C366 0.930 . S
H353 C368 0.960 . S
H354 C368 0.960 . S
H355 C368 0.960 . S
C356 H348 0.929 . S
C356 C357 1.377 . S
C356 C358 1.384 1_655 S
C357 C356 1.377 . S
C357 C363 1.390 1_655 S
C358 H349 0.930 . S
C358 C356 1.384 1_455 S
C358 C359 1.372 . S
C359 C358 1.372 . S
C359 C360 1.400 . S
C359 C364 1.490 . S
C360 H350 0.930 . S
C360 C359 1.400 . S
C360 C363 1.386 . S
H361 C377 0.930 . S
H362 C378 0.931 . S
C363 H351 0.929 . S
C363 C357 1.390 1_455 S
C363 C360 1.386 . S
C364 C359 1.490 . S
C364 C366 1.395 . S
C364 C367 1.403 . S
H365 C371 0.930 . S
C366 H352 0.930 . S
C366 C364 1.395 . S
C366 C369 1.403 . S
C367 C364 1.403 . S
C367 C368 1.524 . S
C367 C371 1.400 . S
C368 H353 0.960 . S
C368 H354 0.960 . S
C368 H355 0.960 . S
C368 C367 1.524 . S
C369 C366 1.403 . S
C369 C370 1.392 . S
C369 C373 1.495 . S
C370 C369 1.392 . S
C370 C371 1.385 . S
C370 C372 1.478 . S
C371 H365 0.930 . S
C371 C367 1.400 . S
C371 C370 1.385 . S
C372 C370 1.478 . S
C372 C374 1.381 . S
C372 C378 1.383 . S
C373 C369 1.495 . S
C373 H379 0.959 . S
C373 H380 0.961 . S
C373 H381 0.960 . S
C374 C372 1.381 . S
C374 C375 1.394 . S
C374 H382 0.930 . S
C375 C374 1.394 . S
C375 C376 1.383 . S
C375 H383 0.929 . S
C376 C375 1.383 . S
C376 C377 1.377 . S
C377 H361 0.930 . S
C377 C376 1.377 . S
C377 C378 1.379 . S
C378 H362 0.931 . S
C378 C372 1.383 . S
C378 C377 1.379 . S
H379 C373 0.959 . S
H380 C373 0.961 . S
H381 C373 0.960 . S
H382 C374 0.930 . S
H383 C375 0.929 . S
H384 C392 0.929 . S
H385 C394 0.930 . S
H386 C396 0.930 1_556 S
H387 C399 0.929 . S
H388 C402 0.930 . S
H389 C404 0.960 . S
H390 C404 0.960 . S
H391 C404 0.960 . S
C392 H384 0.929 . S
C392 C393 1.377 . S
C392 C394 1.384 . S
C393 C392 1.377 . S
C393 C399 1.390 . S
C394 H385 0.930 . S
C394 C392 1.384 . S
C394 C395 1.372 . S
C395 C394 1.372 . S
C395 C396 1.400 . S
C395 C400 1.490 . S
C396 H386 0.930 1_554 S
C396 C395 1.400 . S
C396 C399 1.386 . S
H397 C413 0.930 . S
H398 C414 0.931 . S
C399 H387 0.929 . S
C399 C393 1.390 . S
C399 C396 1.386 . S
C400 C395 1.490 . S
C400 C402 1.395 . S
C400 C403 1.403 1_554 S
H401 C407 0.930 . S
C402 H388 0.930 . S
C402 C400 1.395 . S
C402 C405 1.403 . S
C403 C400 1.403 1_556 S
C403 C404 1.524 . S
C403 C407 1.400 . S
C404 H389 0.960 . S
C404 H390 0.960 . S
C404 H391 0.960 . S
C404 C403 1.524 . S
C405 C402 1.403 . S
C405 C406 1.392 1_554 S
C405 C409 1.495 . S
C406 C405 1.392 1_556 S
C406 C407 1.385 . S
C406 C408 1.478 . S
C407 H401 0.930 . S
C407 C403 1.400 . S
C407 C406 1.385 . S
C408 C406 1.478 . S
C408 C410 1.381 . S
C408 C414 1.383 . S
C409 C405 1.495 . S
C409 H415 0.959 . S
C409 H416 0.961 . S
C409 H417 0.960 . S
C410 C408 1.381 . S
C410 C411 1.394 . S
C410 H418 0.930 1_556 S
C411 C410 1.394 . S
C411 C412 1.383 . S
C411 H419 0.929 . S
C412 C411 1.383 . S
C412 C413 1.377 . S
C413 H397 0.930 . S
C413 C412 1.377 . S
C413 C414 1.379 . S
C414 H398 0.931 . S
C414 C408 1.383 . S
C414 C413 1.379 . S
H415 C409 0.959 . S
H416 C409 0.961 . S
H417 C409 0.960 . S
H418 C410 0.930 1_554 S
H419 C411 0.929 . S
H420 C428 0.929 . S
H421 C430 0.930 1_554 S
H422 C432 0.930 . S
H423 C435 0.929 . S
H424 C438 0.930 . S
H425 C440 0.960 . S
H426 C440 0.970 . S
H427 C440 0.960 . S
C428 H420 0.929 . S
C428 C429 1.377 . S
C428 C430 1.384 . S
C429 C428 1.377 . S
C429 C435 1.390 . S
C430 H421 0.930 1_556 S
C430 C428 1.384 . S
C430 C431 1.372 . S
C431 C430 1.372 . S
C431 C432 1.400 . S
C431 C436 1.490 . S
C432 H422 0.930 . S
C432 C431 1.400 . S
C432 C435 1.386 . S
H433 C449 0.940 . S
H434 C450 0.931 1_556 S
C435 H423 0.929 . S
C435 C429 1.390 . S
C435 C432 1.386 . S
C436 C431 1.490 . S
C436 C438 1.395 . S
C436 C439 1.403 . S
H437 C443 0.930 . S
C438 H424 0.930 . S
C438 C436 1.395 . S
C438 C441 1.403 1_556 S
C439 C436 1.403 . S
C439 C440 1.524 . S
C439 C443 1.400 1_556 S
C440 H425 0.960 . S
C440 H426 0.970 . S
C440 H427 0.960 . S
C440 C439 1.524 . S
C441 C438 1.403 1_554 S
C441 C442 1.392 . S
C441 C445 1.495 . S
C442 C441 1.392 . S
C442 C443 1.385 . S
C442 C444 1.478 . S
C443 H437 0.930 . S
C443 C439 1.400 1_554 S
C443 C442 1.385 . S
C444 C442 1.478 . S
C444 C446 1.381 . S
C444 C450 1.383 . S
C445 C441 1.495 . S
C445 H451 0.959 . S
C445 H452 0.970 . S
C445 H453 0.960 . S
C446 C444 1.381 . S
C446 C447 1.394 . S
C446 H454 0.930 . S
C447 C446 1.394 . S
C447 C448 1.383 1_545 S
C447 H455 0.929 . S
C448 C447 1.383 1_565 S
C448 C449 1.377 . S
C449 H433 0.940 . S
C449 C448 1.377 . S
C449 C450 1.379 1_565 S
C450 H434 0.931 1_554 S
C450 C444 1.383 . S
C450 C449 1.379 1_545 S
H451 C445 0.959 . S
H452 C445 0.970 . S
H453 C445 0.960 . S
H454 C446 0.930 . S
H455 C447 0.929 . S
H456 C464 0.929 . S
H457 C466 0.930 . S
H458 C468 0.930 1_556 S
H459 C471 0.929 1_556 S
H460 C474 0.930 . S
H461 C476 0.960 . S
H462 C476 0.960 1_554 S
H463 C476 0.960 . S
C464 H456 0.929 . S
C464 C465 1.377 1_655 S
C464 C466 1.384 . S
C465 C464 1.377 1_455 S
C465 C471 1.390 . S
C466 H457 0.930 . S
C466 C464 1.384 . S
C466 C467 1.372 . S
C467 C466 1.372 . S
C467 C468 1.400 . S
C467 C472 1.490 . S
C468 H458 0.930 1_554 S
C468 C467 1.400 . S
C468 C471 1.386 1_655 S
H469 C485 0.930 . S
H470 C486 0.931 . S
C471 H459 0.929 1_554 S
C471 C465 1.390 . S
C471 C468 1.386 1_455 S
C472 C467 1.490 . S
C472 C474 1.395 . S
C472 C475 1.403 1_554 S
H473 C479 0.930 . S
C474 H460 0.930 . S
C474 C472 1.395 . S
C474 C477 1.403 . S
C475 C472 1.403 1_556 S
C475 C476 1.524 . S
C475 C479 1.400 . S
C476 H461 0.960 . S
C476 H462 0.960 1_556 S
C476 H463 0.960 . S
C476 C475 1.524 . S
C477 C474 1.403 . S
C477 C478 1.392 1_554 S
C477 C481 1.495 . S
C478 C477 1.392 1_556 S
C478 C479 1.385 . S
C478 C480 1.478 . S
C479 H473 0.930 . S
C479 C475 1.400 . S
C479 C478 1.385 . S
C480 C478 1.478 . S
C480 C482 1.381 1_556 S
C480 C486 1.383 . S
C481 C477 1.495 . S
C481 H487 0.959 . S
C481 H488 0.961 1_554 S
C481 H489 0.960 . S
C482 C480 1.381 1_554 S
C482 C483 1.394 1_554 S
C482 H490 0.930 . S
C483 C482 1.394 1_556 S
C483 C484 1.383 . S
C483 H491 0.929 1_556 S
C484 C483 1.383 . S
C484 C485 1.377 . S
C485 H469 0.930 . S
C485 C484 1.377 . S
C485 C486 1.379 . S
C486 H470 0.931 . S
C486 C480 1.383 . S
C486 C485 1.379 . S
H487 C481 0.959 . S
H488 C481 0.961 1_556 S
H489 C481 0.960 . S
H490 C482 0.930 . S
H491 C483 0.929 1_554 S
H492 C500 0.929 . S
H493 C502 0.930 . S
H494 C504 0.930 . S
H495 C507 0.929 . S
H496 C510 0.930 . S
H497 C512 0.960 . S
H498 C512 0.960 . S
H499 C512 0.960 . S
C500 H492 0.929 . S
C500 C501 1.377 . S
C500 C502 1.384 . S
C501 C500 1.377 . S
C501 C507 1.390 . S
C502 H493 0.930 . S
C502 C500 1.384 . S
C502 C503 1.372 . S
C503 C502 1.372 . S
C503 C504 1.400 . S
C503 C508 1.490 . S
C504 H494 0.930 . S
C504 C503 1.400 . S
C504 C507 1.386 . S
H505 C521 0.930 . S
H506 C522 0.931 . S
C507 H495 0.929 . S
C507 C501 1.390 . S
C507 C504 1.386 . S
C508 C503 1.490 . S
C508 C510 1.395 . S
C508 C511 1.403 . S
H509 C515 0.930 . S
C510 H496 0.930 . S
C510 C508 1.395 . S
C510 C513 1.403 . S
C511 C508 1.403 . S
C511 C512 1.524 . S
C511 C515 1.400 . S
C512 H497 0.960 . S
C512 H498 0.960 . S
C512 H499 0.960 . S
C512 C511 1.524 . S
C513 C510 1.403 . S
C513 C514 1.392 . S
C513 C517 1.495 . S
C514 C513 1.392 . S
C514 C515 1.385 . S
C514 C516 1.478 . S
C515 H509 0.930 . S
C515 C511 1.400 . S
C515 C514 1.385 . S
C516 C514 1.478 . S
C516 C518 1.381 . S
C516 C522 1.383 . S
C517 C513 1.495 . S
C517 H523 0.959 . S
C517 H524 0.961 . S
C517 H525 0.960 . S
C518 C516 1.381 . S
C518 C519 1.394 . S
C518 H526 0.930 . S
C519 C518 1.394 . S
C519 C520 1.383 . S
C519 H527 0.929 . S
C520 C519 1.383 . S
C520 C521 1.377 . S
C521 H505 0.930 . S
C521 C520 1.377 . S
C521 C522 1.379 . S
C522 H506 0.931 . S
C522 C516 1.383 . S
C522 C521 1.379 . S
H523 C517 0.959 . S
H524 C517 0.961 . S
H525 C517 0.960 . S
H526 C518 0.930 . S
H527 C519 0.929 . S
H528 C536 0.929 . S
H529 C538 0.930 . S
H530 C540 0.930 . S
H531 C543 0.929 . S
H532 C546 0.930 . S
H533 C548 0.960 . S
H534 C548 0.960 . S
H535 C548 0.960 . S
C536 H528 0.929 . S
C536 C537 1.377 . S
C536 C538 1.384 . S
C537 C536 1.377 . S
C537 C543 1.390 . S
C538 H529 0.930 . S
C538 C536 1.384 . S
C538 C539 1.372 . S
C539 C538 1.372 . S
C539 C540 1.400 . S
C539 C544 1.490 . S
C540 H530 0.930 . S
C540 C539 1.400 . S
C540 C543 1.386 . S
H541 C557 0.930 . S
H542 C558 0.931 . S
C543 H531 0.929 . S
C543 C537 1.390 . S
C543 C540 1.386 . S
C544 C539 1.490 . S
C544 C546 1.395 . S
C544 C547 1.403 . S
H545 C551 0.930 . S
C546 H532 0.930 . S
C546 C544 1.395 . S
C546 C549 1.403 . S
C547 C544 1.403 . S
C547 C548 1.524 . S
C547 C551 1.400 . S
C548 H533 0.960 . S
C548 H534 0.960 . S
C548 H535 0.960 . S
C548 C547 1.524 . S
C549 C546 1.403 . S
C549 C550 1.392 . S
C549 C553 1.495 . S
C550 C549 1.392 . S
C550 C551 1.385 . S
C550 C552 1.478 . S
C551 H545 0.930 . S
C551 C547 1.400 . S
C551 C550 1.385 . S
C552 C550 1.478 . S
C552 C554 1.381 . S
C552 C558 1.383 . S
C553 C549 1.495 . S
C553 H559 0.959 . S
C553 H560 0.961 . S
C553 H561 0.960 . S
C554 C552 1.381 . S
C554 C555 1.394 1_545 S
C554 H562 0.930 . S
C555 C554 1.394 1_565 S
C555 C556 1.383 . S
C555 H563 0.929 . S
C556 C555 1.383 . S
C556 C557 1.377 1_565 S
C557 H541 0.930 . S
C557 C556 1.377 1_545 S
C557 C558 1.379 . S
C558 H542 0.931 . S
C558 C552 1.383 . S
C558 C557 1.379 . S
H559 C553 0.959 . S
H560 C553 0.961 . S
H561 C553 0.960 . S
H562 C554 0.930 . S
H563 C555 0.929 . S
H564 C572 0.929 . S
H565 C574 0.930 . S
H566 C576 0.930 . S
H567 C579 0.929 . S
H568 C582 0.930 . S
H569 C584 0.960 . S
H570 C584 0.960 . S
H571 C584 0.960 . S
C572 H564 0.929 . S
C572 C573 1.377 1_655 S
C572 C574 1.384 . S
C573 C572 1.377 1_455 S
C573 C579 1.390 . S
C574 H565 0.930 . S
C574 C572 1.384 . S
C574 C575 1.372 . S
C575 C574 1.372 . S
C575 C576 1.400 . S
C575 C580 1.490 . S
C576 H566 0.930 . S
C576 C575 1.400 . S
C576 C579 1.386 1_655 S
H577 C593 0.930 . S
H578 C594 0.931 . S
C579 H567 0.929 . S
C579 C573 1.390 . S
C579 C576 1.386 1_455 S
C580 C575 1.490 . S
C580 C582 1.395 . S
C580 C583 1.403 . S
H581 C587 0.930 . S
C582 H568 0.930 . S
C582 C580 1.395 . S
C582 C585 1.403 . S
C583 C580 1.403 . S
C583 C584 1.524 . S
C583 C587 1.400 . S
C584 H569 0.960 . S
C584 H570 0.960 . S
C584 H571 0.960 . S
C584 C583 1.524 . S
C585 C582 1.403 . S
C585 C586 1.392 . S
C585 C589 1.495 . S
C586 C585 1.392 . S
C586 C587 1.385 . S
C586 C588 1.478 . S
C587 H581 0.930 . S
C587 C583 1.400 . S
C587 C586 1.385 . S
C588 C586 1.478 . S
C588 C590 1.381 . S
C588 C594 1.383 . S
C589 C585 1.495 . S
C589 H595 0.959 . S
C589 H596 0.961 . S
C589 H597 0.960 . S
C590 C588 1.381 . S
C590 C591 1.394 . S
C590 H598 0.930 . S
C591 C590 1.394 . S
C591 C592 1.383 . S
C591 H599 0.929 . S
C592 C591 1.383 . S
C592 C593 1.377 . S
C593 H577 0.930 . S
C593 C592 1.377 . S
C593 C594 1.379 . S
C594 H578 0.931 . S
C594 C588 1.383 . S
C594 C593 1.379 . S
H595 C589 0.959 . S
H596 C589 0.961 . S
H597 C589 0.960 . S
H598 C590 0.930 . S
H599 C591 0.929 . S
H600 C608 0.929 . S
H601 C610 0.930 . S
H602 C612 0.930 . S
H603 C615 0.929 . S
H604 C618 0.930 . S
H605 C620 0.960 . S
H606 C620 0.960 . S
H607 C620 0.960 . S
C608 H600 0.929 . S
C608 C609 1.377 . S
C608 C610 1.384 . S
C609 C608 1.377 . S
C609 C615 1.390 . S
C610 H601 0.930 . S
C610 C608 1.384 . S
C610 C611 1.372 . S
C611 C610 1.372 . S
C611 C612 1.400 . S
C611 C616 1.490 . S
C612 H602 0.930 . S
C612 C611 1.400 . S
C612 C615 1.386 . S
H613 C629 0.930 . S
H614 C630 0.931 . S
C615 H603 0.929 . S
C615 C609 1.390 . S
C615 C612 1.386 . S
C616 C611 1.490 . S
C616 C618 1.395 . S
C616 C619 1.403 . S
H617 C623 0.930 . S
C618 H604 0.930 . S
C618 C616 1.395 . S
C618 C621 1.403 . S
C619 C616 1.403 . S
C619 C620 1.524 . S
C619 C623 1.400 . S
C620 H605 0.960 . S
C620 H606 0.960 . S
C620 H607 0.960 . S
C620 C619 1.524 . S
C621 C618 1.403 . S
C621 C622 1.392 . S
C621 C625 1.495 . S
C622 C621 1.392 . S
C622 C623 1.385 . S
C622 C624 1.478 . S
C623 H617 0.930 . S
C623 C619 1.400 . S
C623 C622 1.385 . S
C624 C622 1.478 . S
C624 C626 1.381 . S
C624 C630 1.383 . S
C625 C621 1.495 . S
C625 H631 0.959 . S
C625 H632 0.961 . S
C625 H633 0.960 . S
C626 C624 1.381 . S
C626 C627 1.394 . S
C626 H634 0.930 . S
C627 C626 1.394 . S
C627 C628 1.383 . S
C627 H635 0.929 . S
C628 C627 1.383 . S
C628 C629 1.377 . S
C629 H613 0.930 . S
C629 C628 1.377 . S
C629 C630 1.379 . S
C630 H614 0.931 . S
C630 C624 1.383 . S
C630 C629 1.379 . S
H631 C625 0.959 . S
H632 C625 0.961 . S
H633 C625 0.960 . S
H634 C626 0.930 . S
H635 C627 0.929 . S
H636 C644 0.929 . S
H637 C646 0.930 . S
H638 C648 0.930 . S
H639 C651 0.929 . S
H640 C654 0.930 . S
H641 C656 0.960 . S
H642 C656 0.960 . S
H643 C656 0.960 . S
C644 H636 0.929 . S
C644 C645 1.377 . S
C644 C646 1.384 . S
C645 C644 1.377 . S
C645 C651 1.390 . S
C646 H637 0.930 . S
C646 C644 1.384 . S
C646 C647 1.372 . S
C647 C646 1.372 . S
C647 C648 1.400 . S
C647 C652 1.490 . S
C648 H638 0.930 . S
C648 C647 1.400 . S
C648 C651 1.386 . S
H649 C665 0.930 . S
H650 C666 0.931 . S
C651 H639 0.929 . S
C651 C645 1.390 . S
C651 C648 1.386 . S
C652 C647 1.490 . S
C652 C654 1.395 . S
C652 C655 1.403 . S
H653 C659 0.930 . S
C654 H640 0.930 . S
C654 C652 1.395 . S
C654 C657 1.403 . S
C655 C652 1.403 . S
C655 C656 1.524 . S
C655 C659 1.400 . S
C656 H641 0.960 . S
C656 H642 0.960 . S
C656 H643 0.960 . S
C656 C655 1.524 . S
C657 C654 1.403 . S
C657 C658 1.392 . S
C657 C661 1.495 . S
C658 C657 1.392 . S
C658 C659 1.385 . S
C658 C660 1.478 . S
C659 H653 0.930 . S
C659 C655 1.400 . S
C659 C658 1.385 . S
C660 C658 1.478 . S
C660 C662 1.381 . S
C660 C666 1.383 . S
C661 C657 1.495 . S
C661 H667 0.959 . S
C661 H668 0.961 . S
C661 H669 0.960 . S
C662 C660 1.381 . S
C662 C663 1.394 . S
C662 H670 0.930 . S
C663 C662 1.394 . S
C663 C664 1.383 . S
C663 H671 0.929 . S
C664 C663 1.383 . S
C664 C665 1.377 . S
C665 H649 0.930 . S
C665 C664 1.377 . S
C665 C666 1.379 . S
C666 H650 0.931 . S
C666 C660 1.383 . S
C666 C665 1.379 . S
H667 C661 0.959 . S
H668 C661 0.961 . S
H669 C661 0.960 . S
H670 C662 0.930 . S
H671 C663 0.929 . S
H672 C680 0.929 . S
H673 C682 0.930 . S
H674 C684 0.930 . S
H675 C687 0.929 . S
H676 C690 0.930 . S
H677 C692 0.960 . S
H678 C692 0.960 . S
H679 C692 0.960 . S
C680 H672 0.929 . S
C680 C681 1.377 . S
C680 C682 1.384 . S
C681 C680 1.377 . S
C681 C687 1.390 . S
C682 H673 0.930 . S
C682 C680 1.384 . S
C682 C683 1.372 . S
C683 C682 1.372 . S
C683 C684 1.400 . S
C683 C688 1.490 . S
C684 H674 0.930 . S
C684 C683 1.400 . S
C684 C687 1.386 . S
H685 C701 0.930 . S
H686 C702 0.931 . S
C687 H675 0.929 . S
C687 C681 1.390 . S
C687 C684 1.386 . S
C688 C683 1.490 . S
C688 C690 1.395 . S
C688 C691 1.403 . S
H689 C695 0.930 . S
C690 H676 0.930 . S
C690 C688 1.395 . S
C690 C693 1.403 . S
C691 C688 1.403 . S
C691 C692 1.524 . S
C691 C695 1.400 . S
C692 H677 0.960 . S
C692 H678 0.960 . S
C692 H679 0.960 . S
C692 C691 1.524 . S
C693 C690 1.403 . S
C693 C694 1.392 . S
C693 C697 1.495 . S
C694 C693 1.392 . S
C694 C695 1.385 . S
C694 C696 1.478 . S
C695 H689 0.930 . S
C695 C691 1.400 . S
C695 C694 1.385 . S
C696 C694 1.478 . S
C696 C698 1.381 . S
C696 C702 1.383 . S
C697 C693 1.495 . S
C697 H703 0.959 . S
C697 H704 0.961 . S
C697 H705 0.960 . S
C698 C696 1.381 . S
C698 C699 1.394 . S
C698 H706 0.930 . S
C699 C698 1.394 . S
C699 C700 1.383 . S
C699 H707 0.929 . S
C700 C699 1.383 . S
C700 C701 1.377 . S
C701 H685 0.930 . S
C701 C700 1.377 . S
C701 C702 1.379 . S
C702 H686 0.931 . S
C702 C696 1.383 . S
C702 C701 1.379 . S
H703 C697 0.959 . S
H704 C697 0.961 . S
H705 C697 0.960 . S
H706 C698 0.930 . S
H707 C699 0.929 . S
H708 C716 0.929 . S
H709 C718 0.930 . S
H710 C720 0.930 . S
H711 C723 0.929 . S
H712 C726 0.930 . S
H713 C728 0.960 . S
H714 C728 0.960 . S
H715 C728 0.960 . S
C716 H708 0.929 . S
C716 C717 1.377 . S
C716 C718 1.384 . S
C717 C716 1.377 . S
C717 C723 1.390 . S
C718 H709 0.930 . S
C718 C716 1.384 . S
C718 C719 1.372 . S
C719 C718 1.372 . S
C719 C720 1.400 . S
C719 C724 1.490 . S
C720 H710 0.930 . S
C720 C719 1.400 . S
C720 C723 1.386 . S
H721 C737 0.930 . S
H722 C738 0.931 . S
C723 H711 0.929 . S
C723 C717 1.390 . S
C723 C720 1.386 . S
C724 C719 1.490 . S
C724 C726 1.395 . S
C724 C727 1.403 . S
H725 C731 0.930 . S
C726 H712 0.930 . S
C726 C724 1.395 . S
C726 C729 1.403 . S
C727 C724 1.403 . S
C727 C728 1.524 . S
C727 C731 1.400 . S
C728 H713 0.960 . S
C728 H714 0.960 . S
C728 H715 0.960 . S
C728 C727 1.524 . S
C729 C726 1.403 . S
C729 C730 1.392 . S
C729 C733 1.495 . S
C730 C729 1.392 . S
C730 C731 1.385 . S
C730 C732 1.478 . S
C731 H725 0.930 . S
C731 C727 1.400 . S
C731 C730 1.385 . S
C732 C730 1.478 . S
C732 C734 1.381 . S
C732 C738 1.383 . S
C733 C729 1.495 . S
C733 H739 0.959 . S
C733 H740 0.961 . S
C733 H741 0.960 . S
C734 C732 1.381 . S
C734 C735 1.394 . S
C734 H742 0.930 . S
C735 C734 1.394 . S
C735 C736 1.383 . S
C735 H743 0.929 . S
C736 C735 1.383 . S
C736 C737 1.377 . S
C737 H721 0.930 . S
C737 C736 1.377 . S
C737 C738 1.379 . S
C738 H722 0.931 . S
C738 C732 1.383 . S
C738 C737 1.379 . S
H739 C733 0.959 . S
H740 C733 0.961 . S
H741 C733 0.960 . S
H742 C734 0.930 . S
H743 C735 0.929 . S
H744 C752 0.929 . S
H745 C754 0.930 . S
H746 C756 0.930 . S
H747 C759 0.929 . S
H748 C762 0.930 . S
H749 C764 0.960 . S
H750 C764 0.960 . S
H751 C764 0.960 . S
C752 H744 0.929 . S
C752 C753 1.377 . S
C752 C754 1.384 . S
C753 C752 1.377 . S
C753 C759 1.390 . S
C754 H745 0.930 . S
C754 C752 1.384 . S
C754 C755 1.372 . S
C755 C754 1.372 . S
C755 C756 1.400 . S
C755 C760 1.490 . S
C756 H746 0.930 . S
C756 C755 1.400 . S
C756 C759 1.386 . S
H757 C773 0.930 . S
H758 C774 0.931 . S
C759 H747 0.929 . S
C759 C753 1.390 . S
C759 C756 1.386 . S
C760 C755 1.490 . S
C760 C762 1.395 . S
C760 C763 1.403 . S
H761 C767 0.930 . S
C762 H748 0.930 . S
C762 C760 1.395 . S
C762 C765 1.403 . S
C763 C760 1.403 . S
C763 C764 1.524 . S
C763 C767 1.400 . S
C764 H749 0.960 . S
C764 H750 0.960 . S
C764 H751 0.960 . S
C764 C763 1.524 . S
C765 C762 1.403 . S
C765 C766 1.392 . S
C765 C769 1.495 . S
C766 C765 1.392 . S
C766 C767 1.385 . S
C766 C768 1.478 . S
C767 H761 0.930 . S
C767 C763 1.400 . S
C767 C766 1.385 . S
C768 C766 1.478 . S
C768 C770 1.381 . S
C768 C774 1.383 . S
C769 C765 1.495 . S
C769 H775 0.959 . S
C769 H776 0.961 . S
C769 H777 0.960 . S
C770 C768 1.381 . S
C770 C771 1.394 . S
C770 H778 0.930 . S
C771 C770 1.394 . S
C771 C772 1.383 . S
C771 H779 0.929 . S
C772 C771 1.383 . S
C772 C773 1.377 . S
C773 H757 0.930 . S
C773 C772 1.377 . S
C773 C774 1.379 . S
C774 H758 0.931 . S
C774 C768 1.383 . S
C774 C773 1.379 . S
H775 C769 0.959 . S
H776 C769 0.961 . S
H777 C769 0.960 . S
H778 C770 0.930 . S
H779 C771 0.929 . S
H780 C788 0.929 . S
H781 C790 0.930 . S
H782 C792 0.930 . S
H783 C795 0.929 . S
H784 C798 0.930 . S
H785 C800 0.960 . S
H786 C800 0.960 . S
H787 C800 0.960 . S
C788 H780 0.929 . S
C788 C789 1.377 . S
C788 C790 1.384 . S
C789 C788 1.377 . S
C789 C795 1.390 . S
C790 H781 0.930 . S
C790 C788 1.384 . S
C790 C791 1.372 . S
C791 C790 1.372 . S
C791 C792 1.400 . S
C791 C796 1.490 . S
C792 H782 0.930 . S
C792 C791 1.400 . S
C792 C795 1.386 . S
H793 C809 0.930 . S
H794 C810 0.931 . S
C795 H783 0.929 . S
C795 C789 1.390 . S
C795 C792 1.386 . S
C796 C791 1.490 . S
C796 C798 1.395 . S
C796 C799 1.403 . S
H797 C803 0.930 . S
C798 H784 0.930 . S
C798 C796 1.395 . S
C798 C801 1.403 . S
C799 C796 1.403 . S
C799 C800 1.524 . S
C799 C803 1.400 . S
C800 H785 0.960 . S
C800 H786 0.960 . S
C800 H787 0.960 . S
C800 C799 1.524 . S
C801 C798 1.403 . S
C801 C802 1.392 . S
C801 C805 1.495 . S
C802 C801 1.392 . S
C802 C803 1.385 . S
C802 C804 1.478 . S
C803 H797 0.930 . S
C803 C799 1.400 . S
C803 C802 1.385 . S
C804 C802 1.478 . S
C804 C806 1.381 . S
C804 C810 1.383 . S
C805 C801 1.495 . S
C805 H811 0.959 . S
C805 H812 0.961 . S
C805 H813 0.960 . S
C806 C804 1.381 . S
C806 C807 1.394 . S
C806 H814 0.930 . S
C807 C806 1.394 . S
C807 C808 1.383 . S
C807 H815 0.929 . S
C808 C807 1.383 . S
C808 C809 1.377 . S
C809 H793 0.930 . S
C809 C808 1.377 . S
C809 C810 1.379 . S
C810 H794 0.931 . S
C810 C804 1.383 . S
C810 C809 1.379 . S
H811 C805 0.959 . S
H812 C805 0.961 . S
H813 C805 0.960 . S
H814 C806 0.930 . S
H815 C807 0.929 . S
H816 C824 0.929 . S
H817 C826 0.930 1_655 S
H818 C828 0.930 . S
H819 C831 0.929 . S
H820 C834 0.930 . S
H821 C836 0.960 . S
H822 C836 0.960 . S
H823 C836 0.960 . S
C824 H816 0.929 . S
C824 C825 1.377 . S
C824 C826 1.384 . S
C825 C824 1.377 . S
C825 C831 1.390 . S
C826 H817 0.930 1_455 S
C826 C824 1.384 . S
C826 C827 1.372 . S
C827 C826 1.372 . S
C827 C828 1.400 . S
C827 C832 1.490 . S
C828 H818 0.930 . S
C828 C827 1.400 . S
C828 C831 1.386 . S
H829 C845 0.930 . S
H830 C846 0.931 1_455 S
C831 H819 0.929 . S
C831 C825 1.390 . S
C831 C828 1.386 . S
C832 C827 1.490 . S
C832 C834 1.395 1_455 S
C832 C835 1.403 1_554 S
H833 C839 0.930 . S
C834 H820 0.930 . S
C834 C832 1.395 1_655 S
C834 C837 1.403 . S
C835 C832 1.403 1_556 S
C835 C836 1.524 . S
C835 C839 1.400 . S
C836 H821 0.960 . S
C836 H822 0.960 . S
C836 H823 0.960 . S
C836 C835 1.524 . S
C837 C834 1.403 . S
C837 C838 1.392 1_554 S
C837 C841 1.495 . S
C838 C837 1.392 1_556 S
C838 C839 1.385 1_655 S
C838 C840 1.478 . S
C839 H833 0.930 . S
C839 C835 1.400 . S
C839 C838 1.385 1_455 S
C840 C838 1.478 . S
C840 C842 1.381 . S
C840 C846 1.383 . S
C841 C837 1.495 . S
C841 H847 0.959 . S
C841 H848 0.961 . S
C841 H849 0.960 . S
C842 C840 1.381 . S
C842 C843 1.394 . S
C842 H850 0.930 . S
C843 C842 1.394 . S
C843 C844 1.383 . S
C843 H851 0.929 . S
C844 C843 1.383 . S
C844 C845 1.377 . S
C845 H829 0.930 . S
C845 C844 1.377 . S
C845 C846 1.379 . S
C846 H830 0.931 1_655 S
C846 C840 1.383 . S
C846 C845 1.379 . S
H847 C841 0.959 . S
H848 C841 0.961 . S
H849 C841 0.960 . S
H850 C842 0.930 . S
H851 C843 0.929 . S
H852 C860 0.929 . S
H853 C862 0.930 1_556 S
H854 C864 0.930 . S
H855 C867 0.929 . S
H856 C870 0.930 . S
H857 C872 0.960 . S
H858 C872 0.960 . S
H859 C872 0.960 . S
C860 H852 0.929 . S
C860 C861 1.377 . S
C860 C862 1.384 . S
C861 C860 1.377 . S
C861 C867 1.390 . S
C862 H853 0.930 1_554 S
C862 C860 1.384 . S
C862 C863 1.372 . S
C863 C862 1.372 . S
C863 C864 1.400 . S
C863 C868 1.490 . S
C864 H854 0.930 . S
C864 C863 1.400 . S
C864 C867 1.386 . S
H865 C881 0.930 . S
H866 C882 0.931 1_554 S
C867 H855 0.929 . S
C867 C861 1.390 . S
C867 C864 1.386 . S
C868 C863 1.490 . S
C868 C870 1.395 1_554 S
C868 C871 1.403 . S
H869 C875 0.930 . S
C870 H856 0.930 . S
C870 C868 1.395 1_556 S
C870 C873 1.403 . S
C871 C868 1.403 . S
C871 C872 1.524 . S
C871 C875 1.400 1_554 S
C872 H857 0.960 . S
C872 H858 0.960 . S
C872 H859 0.960 . S
C872 C871 1.524 . S
C873 C870 1.403 . S
C873 C874 1.392 . S
C873 C877 1.495 . S
C874 C873 1.392 . S
C874 C875 1.385 . S
C874 C876 1.478 . S
C875 H869 0.930 . S
C875 C871 1.400 1_556 S
C875 C874 1.385 . S
C876 C874 1.478 . S
C876 C878 1.381 . S
C876 C882 1.383 . S
C877 C873 1.495 . S
C877 H883 0.959 . S
C877 H884 0.961 . S
C877 H885 0.960 . S
C878 C876 1.381 . S
C878 C879 1.394 . S
C878 H886 0.930 . S
C879 C878 1.394 . S
C879 C880 1.383 . S
C879 H887 0.929 . S
C880 C879 1.383 . S
C880 C881 1.377 . S
C881 H865 0.930 . S
C881 C880 1.377 . S
C881 C882 1.379 . S
C882 H866 0.931 1_556 S
C882 C876 1.383 . S
C882 C881 1.379 . S
H883 C877 0.959 . S
H884 C877 0.961 . S
H885 C877 0.960 . S
H886 C878 0.930 . S
H887 C879 0.929 . S
H888 C896 0.929 . S
H889 C898 0.955 . S
H890 C900 0.930 . S
H891 C903 0.929 . S
H892 C906 0.930 . S
H893 C908 0.960 . S
H894 C908 0.960 . S
H895 C908 0.960 1_554 S
C896 H888 0.929 . S
C896 C897 1.377 . S
C896 C898 1.384 . S
C897 C896 1.377 . S
C897 C903 1.390 . S
C898 H889 0.955 . S
C898 C896 1.384 . S
C898 C899 1.372 . S
C899 C898 1.372 . S
C899 C900 1.400 . S
C899 C904 1.490 . S
C900 H890 0.930 . S
C900 C899 1.400 . S
C900 C903 1.386 . S
H901 C917 0.930 . S
H902 C918 0.931 . S
C903 H891 0.929 . S
C903 C897 1.390 . S
C903 C900 1.386 . S
C904 C899 1.490 . S
C904 C906 1.395 1_565 S
C904 C907 1.403 1_554 S
H905 C911 0.930 . S
C906 H892 0.930 . S
C906 C904 1.395 1_545 S
C906 C909 1.403 . S
C907 C904 1.403 1_556 S
C907 C908 1.524 . S
C907 C911 1.400 . S
C908 H893 0.960 . S
C908 H894 0.960 . S
C908 H895 0.960 1_556 S
C908 C907 1.524 . S
C909 C906 1.403 . S
C909 C910 1.392 1_554 S
C909 C913 1.495 . S
C910 C909 1.392 1_556 S
C910 C911 1.385 1_545 S
C910 C912 1.478 . S
C911 H905 0.930 . S
C911 C907 1.400 . S
C911 C910 1.385 1_565 S
C912 C910 1.478 . S
C912 C914 1.381 . S
C912 C918 1.383 . S
C913 C909 1.495 . S
C913 H919 0.959 . S
C913 H920 0.961 . S
C913 H921 0.960 1_554 S
C914 C912 1.381 . S
C914 C915 1.394 . S
C914 H922 0.930 . S
C915 C914 1.394 . S
C915 C916 1.383 . S
C915 H923 0.929 . S
C916 C915 1.383 . S
C916 C917 1.377 . S
C917 H901 0.930 . S
C917 C916 1.377 . S
C917 C918 1.379 . S
C918 H902 0.931 . S
C918 C912 1.383 . S
C918 C917 1.379 . S
H919 C913 0.959 . S
H920 C913 0.961 . S
H921 C913 0.960 1_556 S
H922 C914 0.930 . S
H923 C915 0.929 . S
H924 C932 0.929 . S
H925 C934 0.930 . S
H926 C936 0.930 1_545 S
H927 C939 0.929 . S
H928 C942 0.930 . S
H929 C944 0.960 1_545 S
H930 C944 0.960 . S
H931 C944 0.960 1_545 S
C932 H924 0.929 . S
C932 C933 1.377 . S
C932 C934 1.384 . S
C933 C932 1.377 . S
C933 C939 1.390 . S
C934 H925 0.930 . S
C934 C932 1.384 . S
C934 C935 1.372 . S
C935 C934 1.372 . S
C935 C936 1.400 . S
C935 C940 1.490 . S
C936 H926 0.930 1_565 S
C936 C935 1.400 . S
C936 C939 1.386 . S
H937 C953 0.930 . S
H938 C954 0.931 . S
C939 H927 0.929 . S
C939 C933 1.390 . S
C939 C936 1.386 . S
C940 C935 1.490 . S
C940 C942 1.395 . S
C940 C943 1.403 . S
H941 C947 0.930 . S
C942 H928 0.930 . S
C942 C940 1.395 . S
C942 C945 1.403 . S
C943 C940 1.403 . S
C943 C944 1.524 . S
C943 C947 1.400 1_565 S
C944 H929 0.960 1_565 S
C944 H930 0.960 . S
C944 H931 0.960 1_565 S
C944 C943 1.524 . S
C945 C942 1.403 . S
C945 C946 1.392 1_565 S
C945 C949 1.495 . S
C946 C945 1.392 1_545 S
C946 C947 1.385 . S
C946 C948 1.478 . S
C947 H941 0.930 . S
C947 C943 1.400 1_545 S
C947 C946 1.385 . S
C948 C946 1.478 . S
C948 C950 1.381 . S
C948 C954 1.383 . S
C949 C945 1.495 . S
C949 H955 0.959 . S
C949 H956 0.961 1_565 S
C949 H957 0.960 . S
C950 C948 1.381 . S
C950 C951 1.394 . S
C950 H958 0.930 1_545 S
C951 C950 1.394 . S
C951 C952 1.383 . S
C951 H959 0.929 . S
C952 C951 1.383 . S
C952 C953 1.377 . S
C953 H937 0.930 . S
C953 C952 1.377 . S
C953 C954 1.379 . S
C954 H938 0.931 . S
C954 C948 1.383 . S
C954 C953 1.379 . S
H955 C949 0.959 . S
H956 C949 0.961 1_545 S
H957 C949 0.960 . S
H958 C950 0.930 1_565 S
H959 C951 0.929 . S
H960 C968 0.929 . S
H961 C970 0.930 . S
H962 C972 0.930 . S
H963 C975 0.929 . S
H964 C978 0.930 . S
H965 C980 0.960 . S
H966 C980 0.960 . S
H967 C980 0.960 . S
C968 H960 0.929 . S
C968 C969 1.377 . S
C968 C970 1.384 . S
C969 C968 1.377 . S
C969 C975 1.390 . S
C970 H961 0.930 . S
C970 C968 1.384 . S
C970 C971 1.372 . S
C971 C970 1.372 . S
C971 C972 1.400 . S
C971 C976 1.490 . S
C972 H962 0.930 . S
C972 C971 1.400 . S
C972 C975 1.386 . S
H973 C989 0.930 . S
H974 C990 0.931 . S
C975 H963 0.929 . S
C975 C969 1.390 . S
C975 C972 1.386 . S
C976 C971 1.490 . S
C976 C978 1.395 . S
C976 C979 1.403 1_655 S
H977 C983 0.930 . S
C978 H964 0.930 . S
C978 C976 1.395 . S
C978 C981 1.403 . S
C979 C976 1.403 1_455 S
C979 C980 1.524 . S
C979 C983 1.400 . S
C980 H965 0.960 . S
C980 H966 0.960 . S
C980 H967 0.960 . S
C980 C979 1.524 . S
C981 C978 1.403 . S
C981 C982 1.392 1_655 S
C981 C985 1.495 . S
C982 C981 1.392 1_455 S
C982 C983 1.385 . S
C982 C984 1.478 . S
C983 H977 0.930 . S
C983 C979 1.400 . S
C983 C982 1.385 . S
C984 C982 1.478 . S
C984 C986 1.381 . S
C984 C990 1.383 . S
C985 C981 1.495 . S
C985 H991 0.959 . S
C985 H992 0.961 . S
C985 H993 0.960 . S
C986 C984 1.381 . S
C986 C987 1.394 . S
C986 H994 0.930 . S
C987 C986 1.394 . S
C987 C988 1.383 . S
C987 H995 0.929 . S
C988 C987 1.383 . S
C988 C989 1.377 . S
C989 H973 0.930 . S
C989 C988 1.377 . S
C989 C990 1.379 . S
C990 H974 0.931 . S
C990 C984 1.383 . S
C990 C989 1.379 . S
H991 C985 0.959 . S
H992 C985 0.961 . S
H993 C985 0.960 . S
H994 C986 0.930 . S
H995 C987 0.929 . S
H996 C1004 0.929 . S
H997 C1006 0.930 . S
H998 C1008 0.930 . S
H999 C1011 0.929 . S
H1000 C1014 0.930 . S
H1001 C1016 0.960 . S
H1002 C1016 0.960 . S
H1003 C1016 0.960 . S
C1004 H996 0.929 . S
C1004 C1005 1.377 . S
C1004 C1006 1.384 . S
C1005 C1004 1.377 . S
C1005 C1011 1.390 . S
C1006 H997 0.930 . S
C1006 C1004 1.384 . S
C1006 C1007 1.372 . S
C1007 C1006 1.372 . S
C1007 C1008 1.400 . S
C1007 C1012 1.490 . S
C1008 H998 0.930 . S
C1008 C1007 1.400 . S
C1008 C1011 1.386 . S
H1009 C1025 0.930 . S
H1010 C1026 0.931 . S
C1011 H999 0.929 . S
C1011 C1005 1.390 . S
C1011 C1008 1.386 . S
C1012 C1007 1.490 . S
C1012 C1014 1.395 . S
C1012 C1015 1.403 . S
H1013 C1019 0.930 . S
C1014 H1000 0.930 . S
C1014 C1012 1.395 . S
C1014 C1017 1.403 . S
C1015 C1012 1.403 . S
C1015 C1016 1.524 . S
C1015 C1019 1.400 . S
C1016 H1001 0.960 . S
C1016 H1002 0.960 . S
C1016 H1003 0.960 . S
C1016 C1015 1.524 . S
C1017 C1014 1.403 . S
C1017 C1018 1.392 . S
C1017 C1021 1.495 . S
C1018 C1017 1.392 . S
C1018 C1019 1.385 . S
C1018 C1020 1.478 . S
C1019 H1013 0.930 . S
C1019 C1015 1.400 . S
C1019 C1018 1.385 . S
C1020 C1018 1.478 . S
C1020 C1022 1.381 . S
C1020 C1026 1.383 . S
C1021 C1017 1.495 . S
C1021 H1027 0.959 . S
C1021 H1028 0.961 . S
C1021 H1029 0.960 . S
C1022 C1020 1.381 . S
C1022 C1023 1.394 . S
C1022 H1030 0.930 . S
C1023 C1022 1.394 . S
C1023 C1024 1.383 . S
C1023 H1031 0.929 . S
C1024 C1023 1.383 . S
C1024 C1025 1.377 . S
C1025 H1009 0.930 . S
C1025 C1024 1.377 . S
C1025 C1026 1.379 . S
C1026 H1010 0.931 . S
C1026 C1020 1.383 . S
C1026 C1025 1.379 . S
H1027 C1021 0.959 . S
H1028 C1021 0.961 . S
H1029 C1021 0.960 . S
H1030 C1022 0.930 . S
H1031 C1023 0.929 . S
C177 C7 0.592 . S
C196 C107 0.562 . S
C213 C21 0.576 . S
C232 C119 0.535 . S
C249 C35 0.553 . S
C268 C91 0.588 . S
C285 C161 0.558 . S
C304 C49 0.567 . S
C321 C63 0.569 . S
C340 C133 0.574 . S
C357 C149 0.610 . S
C376 C77 0.629 . S
C393 C23 0.596 . S
C412 C93 0.640 . S
C429 C105 0.533 . S
C448 C37 0.576 . S
C465 C9 0.574 . S
C484 C121 0.611 . S
C501 C135 0.583 . S
C520 C79 0.604 . S
C537 C147 0.538 . S
C556 C51 0.504 . S
C573 C65 0.592 . S
C592 C163 0.570 . S
C609 C78 1.557 . S
C628 C8 1.563 . S
C645 C22 1.604 . S
C664 C50 1.597 . S
C681 C36 1.603 . S
C700 C64 1.602 . S
C717 C87 1.564 . S
C736 C157 1.549 . S
C753 C106 1.560 . S
C772 C129 1.540 . S
C789 C115 1.553 . S
C808 C148 1.553 . S
C825 C3 1.596 . S
C844 C92 1.589 . S
C861 C17 1.639 . S
C880 C101 1.651 . S
C897 C31 1.634 . S
C916 C120 1.632 . S
C933 C45 1.639 . S
C952 C134 1.647 . S
C969 C143 1.635 . S
C988 C59 1.626 . S
C1005 C73 1.595 . S
C1024 C162 1.585 . S
