# Generated by pormake.
# Topology umy, (4)-cn, num edge types: 1
# Building blocks:
#     Node 0, Type 0, BuildingBlock: GALJAG_clean_sbu_0, # of connection points: 4
#     Node 1, Type 0, BuildingBlock: GALJAG_clean_sbu_0, # of connection points: 4
#     Node 2, Type 0, BuildingBlock: GALJAG_clean_sbu_0, # of connection points: 4
#     Node 3, Type 0, BuildingBlock: GALJAG_clean_sbu_0, # of connection points: 4
#     Node 4, Type 0, BuildingBlock: GALJAG_clean_sbu_0, # of connection points: 4
#     Node 5, Type 0, BuildingBlock: GALJAG_clean_sbu_0, # of connection points: 4
#     Node 6, Type 0, BuildingBlock: GALJAG_clean_sbu_0, # of connection points: 4
#     Node 7, Type 0, BuildingBlock: GALJAG_clean_sbu_0, # of connection points: 4
#     Node 8, Type 0, BuildingBlock: GALJAG_clean_sbu_0, # of connection points: 4
#     Node 9, Type 0, BuildingBlock: GALJAG_clean_sbu_0, # of connection points: 4
#     Node 10, Type 0, BuildingBlock: GALJAG_clean_sbu_0, # of connection points: 4
#     Node 11, Type 0, BuildingBlock: GALJAG_clean_sbu_0, # of connection points: 4
#     Edge 12, Type (0, 0), BuildingBlock: UVAHIK_clean_linker_0, # of connection points: 2
#     Edge 13, Type (0, 0), BuildingBlock: UVAHIK_clean_linker_0, # of connection points: 2
#     Edge 14, Type (0, 0), BuildingBlock: UVAHIK_clean_linker_0, # of connection points: 2
#     Edge 15, Type (0, 0), BuildingBlock: UVAHIK_clean_linker_0, # of connection points: 2
#     Edge 16, Type (0, 0), BuildingBlock: UVAHIK_clean_linker_0, # of connection points: 2
#     Edge 17, Type (0, 0), BuildingBlock: UVAHIK_clean_linker_0, # of connection points: 2
#     Edge 18, Type (0, 0), BuildingBlock: UVAHIK_clean_linker_0, # of connection points: 2
#     Edge 19, Type (0, 0), BuildingBlock: UVAHIK_clean_linker_0, # of connection points: 2
#     Edge 20, Type (0, 0), BuildingBlock: UVAHIK_clean_linker_0, # of connection points: 2
#     Edge 21, Type (0, 0), BuildingBlock: UVAHIK_clean_linker_0, # of connection points: 2
#     Edge 22, Type (0, 0), BuildingBlock: UVAHIK_clean_linker_0, # of connection points: 2
#     Edge 23, Type (0, 0), BuildingBlock: UVAHIK_clean_linker_0, # of connection points: 2
#     Edge 24, Type (0, 0), BuildingBlock: UVAHIK_clean_linker_0, # of connection points: 2
#     Edge 25, Type (0, 0), BuildingBlock: UVAHIK_clean_linker_0, # of connection points: 2
#     Edge 26, Type (0, 0), BuildingBlock: UVAHIK_clean_linker_0, # of connection points: 2
#     Edge 27, Type (0, 0), BuildingBlock: UVAHIK_clean_linker_0, # of connection points: 2
#     Edge 28, Type (0, 0), BuildingBlock: UVAHIK_clean_linker_0, # of connection points: 2
#     Edge 29, Type (0, 0), BuildingBlock: UVAHIK_clean_linker_0, # of connection points: 2
#     Edge 30, Type (0, 0), BuildingBlock: UVAHIK_clean_linker_0, # of connection points: 2
#     Edge 31, Type (0, 0), BuildingBlock: UVAHIK_clean_linker_0, # of connection points: 2
#     Edge 32, Type (0, 0), BuildingBlock: UVAHIK_clean_linker_0, # of connection points: 2
#     Edge 33, Type (0, 0), BuildingBlock: UVAHIK_clean_linker_0, # of connection points: 2
#     Edge 34, Type (0, 0), BuildingBlock: UVAHIK_clean_linker_0, # of connection points: 2
#     Edge 35, Type (0, 0), BuildingBlock: UVAHIK_clean_linker_0, # of connection points: 2
# Relax obj value: 0.077
# Max RMSD: 0.075
# Mean RMSD: 0.075
data_MOF--net-umy--node1-GALJAG_clean_sbu_0--edge1-UVAHIK_clean_linker_0
_symmetry_space_group_name_H-M    P1
_symmetry_Int_Tables_number       1
_symmetry_cell_setting            triclinic
loop_
_symmetry_equiv_pos_as_xyz
'x, y, z'
_cell_length_a     45.786652
_cell_length_b     45.66862
_cell_length_c     77.696897
_cell_angle_alpha  90.027815
_cell_angle_beta   89.941516
_cell_angle_gamma 120.03964
loop_
_atom_site_label
_atom_site_type_symbol
_atom_site_fract_x
_atom_site_fract_y
_atom_site_fract_z
_atom_type_partial_charge
In0 In 0.04244 0.32688 0.13916 0.0
O1 O 0.04256 0.29728 0.1154 0.0
O2 O 0.08792 0.34215 0.12197 0.0
C3 C 0.98357 0.28192 0.15394 0.0
C4 C 0.03043 0.3739 0.12546 0.0
C5 C 0.08241 0.33613 0.16652 0.0
O6 O 0.0002 0.27281 0.14461 0.0
O7 O -0.00381 0.31349 0.15533 0.0
O8 O 0.07835 0.35956 0.16055 0.0
O9 O 0.06704 0.30854 0.15844 0.0
C10 C 0.07293 0.31782 0.11162 0.0
O11 O 0.05141 0.38054 0.13747 0.0
O12 O 0.01513 0.34344 0.1206 0.0
In13 In 0.70124 0.05249 0.31028 0.0
O14 O 0.66254 0.0684 0.30424 0.0
O15 O 0.65458 0.02193 0.29372 0.0
C16 C 0.73065 0.09146 0.33821 0.0
C17 C 0.74338 0.08308 0.28361 0.0
C18 C 0.68693 0.99324 0.32466 0.0
O19 O 0.70089 0.08284 0.33375 0.0
O20 O 0.74534 0.08069 0.32853 0.0
O21 O 0.71184 0.00928 0.31472 0.0
O22 O 0.66902 0.00677 0.32698 0.0
C23 C 0.64446 0.04296 0.29495 0.0
O24 O 0.73279 0.05245 0.2873 0.0
O25 O 0.73302 0.09791 0.29344 0.0
In26 In 0.65617 0.70541 0.47262 0.0
O27 O 0.60685 0.65515 0.47223 0.0
O28 O 0.63942 0.66772 0.45054 0.0
C29 C 0.64294 0.73149 0.50079 0.0
C30 C 0.65989 0.74702 0.44716 0.0
C31 C 0.70654 0.69644 0.48456 0.0
O32 O 0.62302 0.70192 0.49549 0.0
O33 O 0.66922 0.74782 0.49183 0.0
O34 O 0.71213 0.72273 0.47652 0.0
O35 O 0.67581 0.67457 0.48611 0.0
C36 C 0.61184 0.64678 0.4575 0.0
O37 O 0.68284 0.73983 0.4497 0.0
O38 O 0.63543 0.73347 0.45755 0.0
In39 In 0.93823 0.6577 0.64126 0.0
O40 O 0.93548 0.60632 0.6421 0.0
O41 O 0.95958 0.63837 0.62063 0.0
C42 C 0.89621 0.64937 0.66767 0.0
C43 C 0.90791 0.66714 0.61387 0.0
C44 C -0.00195 0.70394 0.6548 0.0
O45 O 0.89912 0.62522 0.66172 0.0
O46 O 0.91401 0.67725 0.66014 0.0
O47 O 0.98175 0.71185 0.64458 0.0
O48 O 0.98455 0.67271 0.65786 0.0
C49 C 0.95036 0.61035 0.62786 0.0
O50 O 0.93779 0.68826 0.61818 0.0
O51 O 0.89321 0.64161 0.62356 0.0
In52 In 0.27664 0.93838 0.80867 0.0
O53 O 0.24937 0.94027 0.78428 0.0
O54 O 0.24074 0.89252 0.79297 0.0
C55 C 0.29294 -0.00135 0.8225 0.0
C56 C 0.33292 0.94387 0.79465 0.0
C57 C 0.24741 0.90218 0.83734 0.0
O58 O 0.26737 0.98251 0.81299 0.0
O59 O 0.31065 0.98483 0.82452 0.0
O60 O 0.27521 0.9066 0.83173 0.0
O61 O 0.23418 0.91542 0.82833 0.0
C62 C 0.2348 0.90876 0.78176 0.0
O63 O 0.31322 0.91923 0.80401 0.0
O64 O 0.32458 0.96612 0.79261 0.0
In65 In 0.32707 0.28613 0.97205 0.0
O66 O 0.37664 0.33654 0.97287 0.0
O67 O 0.34768 0.32345 0.94986 0.0
C68 C 0.33391 0.25854 0.00145 0.0
C69 C 0.32096 0.24132 0.94774 0.0
C70 C 0.27832 0.29918 0.98191 0.0
O71 O 0.35904 0.28143 0.99348 0.0
O72 O 0.30583 0.24951 0.99447 0.0
O73 O 0.27214 0.27341 0.97316 0.0
O74 O 0.30914 0.31882 0.98514 0.0
C75 C 0.37409 0.34458 0.95762 0.0
O76 O 0.29988 0.25129 0.94934 0.0
O77 O 0.34465 0.25352 0.95856 0.0
In78 In 0.64772 0.92934 0.68587 0.0
O79 O 0.67809 0.93662 0.71052 0.0
O80 O 0.63741 0.88752 0.70477 0.0
C81 C 0.69791 0.98594 0.6716 0.0
C82 C 0.59724 0.93663 0.69892 0.0
C83 C 0.63383 0.8886 0.65823 0.0
O84 O 0.70322 0.96467 0.67926 0.0
O85 O 0.66752 0.97893 0.67152 0.0
O86 O 0.62004 0.90621 0.66069 0.0
O87 O 0.65425 0.89119 0.66982 0.0
C88 C 0.66052 0.90611 0.71512 0.0
O89 O 0.59243 0.90948 0.69213 0.0
O90 O 0.62746 0.96047 0.69875 0.0
In91 In 0.70944 0.66506 0.85421 0.0
O92 O 0.74406 0.6934 0.87668 0.0
O93 O 0.74296 0.64878 0.86788 0.0
C94 C 0.69679 0.71416 0.84427 0.0
C95 C 0.65173 0.61902 0.86962 0.0
C96 C 0.7348 0.65526 0.82472 0.0
O97 O 0.72339 0.7204 0.85213 0.0
O98 O 0.67631 0.68316 0.8418 0.0
O99 O 0.71176 0.63101 0.83312 0.0
O100 O 0.74515 0.68399 0.83134 0.0
C101 C 0.75462 0.67284 0.87855 0.0
O102 O 0.65867 0.61568 0.85427 0.0
O103 O 0.67357 0.64564 0.87699 0.0
In104 In 0.04492 0.70842 0.0227 0.0
O105 O 0.04524 0.73849 0.04635 0.0
O106 O 0.09048 0.73889 0.03973 0.0
C107 C 0.98639 0.69434 0.00767 0.0
C108 C 0.03242 0.64894 0.03611 0.0
C109 C 0.08555 0.74167 0.99591 0.0
O110 O 0.00113 0.71805 0.01843 0.0
O111 O 0.00071 0.6773 0.00494 0.0
O112 O 0.08246 0.71436 0.00161 0.0
O113 O 0.06869 0.75229 0.0039 0.0
C114 C 0.07572 0.74864 0.04997 0.0
O115 O 0.05349 0.66345 0.02413 0.0
O116 O 0.01738 0.66421 0.0411 0.0
In117 In 0.33176 0.05426 0.18531 0.0
O118 O 0.38673 0.06934 0.1885 0.0
O119 O 0.34976 0.02196 0.19898 0.0
C120 C 0.33955 0.09672 0.15909 0.0
C121 C 0.32316 0.08084 0.21462 0.0
C122 C 0.28555 0.99418 0.17209 0.0
O123 O 0.36039 0.08698 0.16204 0.0
O124 O 0.31529 0.08568 0.16953 0.0
O125 O 0.27881 0.00802 0.18433 0.0
O126 O 0.31562 0.01034 0.1668 0.0
C127 C 0.38068 0.04309 0.19677 0.0
O128 O 0.29857 0.05826 0.20626 0.0
O129 O 0.35166 0.09027 0.20805 0.0
In130 In 0.27559 0.33326 0.35302 0.0
O131 O 0.23964 0.30333 0.37494 0.0
O132 O 0.24788 0.35257 0.36945 0.0
C133 C 0.2911 0.28835 0.3397 0.0
C134 C 0.33439 0.37797 0.36779 0.0
C135 C 0.24374 0.34046 0.32558 0.0
O136 O 0.26857 0.28007 0.35108 0.0
O137 O 0.30599 0.31914 0.33548 0.0
O138 O 0.27 0.36509 0.33188 0.0
O139 O 0.23348 0.31273 0.33332 0.0
C140 C 0.23339 0.32653 0.3788 0.0
O141 O 0.32459 0.38418 0.35377 0.0
O142 O 0.31477 0.34925 0.37413 0.0
In143 In 0.93955 0.27816 0.52288 0.0
O144 O 0.93913 0.32794 0.52406 0.0
O145 O 0.95629 0.31322 0.54607 0.0
C146 C 0.90102 0.25174 0.49448 0.0
C147 C 0.90675 0.23113 0.54735 0.0
C148 C 0.00069 0.29507 0.51002 0.0
O149 O 0.8985 0.27279 0.50399 0.0
O150 O 0.92235 0.24387 0.49947 0.0
O151 O 0.98263 0.26767 0.51795 0.0
O152 O 0.9884 0.31434 0.50915 0.0
C153 C 0.95019 0.33467 0.53929 0.0
O154 O 0.9376 0.24253 0.54406 0.0
O155 O 0.8925 0.24299 0.53809 0.0
C156 C 0.04556 0.60222 0.03893 0.0
C157 C 0.02699 0.61746 0.04429 0.0
C158 C 0.04201 0.57369 0.04745 0.0
C159 C 0.01703 0.53081 0.08933 0.0
H160 H 0.01808 0.4574 0.06477 0.0
C161 C 0.04385 0.43387 0.12256 0.0
C162 C 0.0254 0.40005 0.11712 0.0
C163 C 0.04071 0.45897 0.11393 0.0
C164 C 0.01738 0.47751 0.07181 0.0
H165 H 0.98946 0.61432 0.06241 0.0
H166 H 0.98306 0.56431 0.07719 0.0
H167 H 0.01782 0.50309 0.04865 0.0
H168 H 0.98854 0.36577 0.0987 0.0
H169 H 0.98286 0.40961 0.08371 0.0
H170 H 0.01651 0.50521 0.11249 0.0
C171 C 0.00068 0.57467 0.06657 0.0
C172 C 0.01761 0.50386 0.06258 0.0
C173 C 0.00421 0.60317 0.05804 0.0
C174 C 0.00317 0.39167 0.10315 0.0
C175 C 6e-05 0.41678 0.0945 0.0
C176 C 0.01687 0.5045 0.09856 0.0
C177 C 0.01984 0.55986 0.0615 0.0
C178 C 0.01774 0.53094 0.07124 0.0
C179 C 0.01908 0.45075 0.09968 0.0
C180 C 0.01735 0.47773 0.08991 0.0
H181 H 0.06335 0.61273 0.02838 0.0
H182 H 0.0574 0.56309 0.04336 0.0
H183 H 0.01746 0.55148 0.09638 0.0
H184 H 0.06123 0.44107 0.13327 0.0
H185 H 0.05599 0.48497 0.11812 0.0
C186 C 0.59118 0.00779 0.27847 0.0
C187 C 0.61521 0.03932 0.28524 0.0
C188 C 0.56468 0.00494 0.26831 0.0
C189 C 0.54444 0.05127 0.23807 0.0
H190 H 0.45046 -0.00503 0.25084 0.0
C191 C 0.44039 0.06689 0.20597 0.0
C192 C 0.40776 0.03892 0.20451 0.0
C193 C 0.46549 0.06407 0.21467 0.0
C194 C 0.47649 0.01025 0.24683 0.0
H195 H 0.63041 0.09247 0.28686 0.0
H196 H 0.58458 0.08758 0.26868 0.0
H197 H 0.49438 -0.0051 0.26863 0.0
H198 H 0.37597 0.98568 0.21035 0.0
H199 H 0.42023 0.98023 0.22494 0.0
H200 H 0.52709 0.06617 0.2161 0.0
C201 C 0.58612 0.06513 0.27141 0.0
C202 C 0.50157 0.01034 0.25711 0.0
C203 C 0.61213 0.06785 0.28186 0.0
C204 C 0.40093 0.0077 0.21139 0.0
C205 C 0.42624 0.0047 0.21987 0.0
C206 C 0.51943 0.0507 0.22759 0.0
C207 C 0.56235 0.03372 0.26449 0.0
C208 C 0.5357 0.0314 0.25298 0.0
C209 C 0.45873 0.03301 0.22187 0.0
C210 C 0.48513 0.03081 0.23204 0.0
H211 H 0.59303 0.98542 0.28091 0.0
H212 H 0.54656 0.9805 0.26307 0.0
H213 H 0.57069 0.06737 0.23455 0.0
H214 H 0.44629 0.09136 0.20092 0.0
H215 H 0.48988 0.08664 0.21622 0.0
C216 C 0.58778 0.61293 0.43076 0.0
C217 C 0.58649 0.61588 0.44868 0.0
C218 C 0.56219 0.585 0.42216 0.0
C219 C 0.47326 0.517 0.42819 0.0
H220 H 0.48986 0.4821 0.38603 0.0
C221 C 0.37053 0.39802 0.39398 0.0
C222 C 0.36552 0.40282 0.37661 0.0
C223 C 0.39889 0.42239 0.40278 0.0
C224 C 0.48498 0.49172 0.39778 0.0
H225 H 0.55851 0.59137 0.47183 0.0
H226 H 0.5146 0.54184 0.457 0.0
H227 H 0.53734 0.52668 0.40194 0.0
H228 H 0.38665 0.4362 0.35463 0.0
H229 H 0.43684 0.47867 0.37001 0.0
H230 H 0.42094 0.4814 0.42414 0.0
C231 C 0.53461 0.56159 0.44942 0.0
C232 C 0.51207 0.51734 0.40687 0.0
C233 C 0.5599 0.58984 0.45796 0.0
C234 C 0.3899 0.43196 0.36804 0.0
C235 C 0.41861 0.45611 0.37678 0.0
C236 C 0.44631 0.49103 0.41927 0.0
C237 C 0.53503 0.55913 0.43136 0.0
C238 C 0.50654 0.53056 0.42212 0.0
C239 C 0.42303 0.45173 0.39429 0.0
C240 C 0.45191 0.47838 0.40393 0.0
H241 H 0.60795 0.6328 0.42328 0.0
H242 H 0.5632 0.58436 0.40826 0.0
H243 H 0.4678 0.52696 0.43962 0.0
H244 H 0.35213 0.3758 0.40091 0.0
H245 H 0.4019 0.41842 0.41625 0.0
C246 C 0.9501 0.55547 0.62923 0.0
C247 C 0.95509 0.58378 0.61977 0.0
C248 C 0.95305 0.52962 0.62124 0.0
C249 C 0.98414 0.50909 0.58102 0.0
H250 H 0.9212 0.41669 0.59453 0.0
C251 C 0.95398 0.39125 0.53999 0.0
C252 C 0.95448 0.3646 0.54873 0.0
C253 C 0.95693 0.41901 0.5491 0.0
C254 C 0.93911 0.4424 0.59074 0.0
H255 H 0.9672 0.60746 0.59461 0.0
H256 H 0.97105 0.562 0.58052 0.0
H257 H 0.92096 0.46323 0.60972 0.0
H258 H 0.95859 0.34605 0.57379 0.0
H259 H 0.96298 0.39427 0.58972 0.0
H260 H 0.00114 0.4878 0.56153 0.0
C261 C 0.96588 0.55998 0.5942 0.0
C262 C 0.93916 0.46914 0.5995 0.0
C263 C 0.96345 0.586 0.60225 0.0
C264 C 0.95819 0.36628 0.56671 0.0
C265 C 0.96056 0.39374 0.57584 0.0
C266 C 0.98368 0.4823 0.57209 0.0
C267 C 0.96053 0.53131 0.60355 0.0
C268 C 0.96158 0.50288 0.59471 0.0
C269 C 0.95985 0.42029 0.56712 0.0
C270 C 0.96109 0.44874 0.57684 0.0
H271 H 0.94384 0.55324 0.64279 0.0
H272 H 0.94941 0.50831 0.62895 0.0
H273 H 0.00225 0.53468 0.57718 0.0
H274 H 0.95119 0.39059 0.52613 0.0
H275 H 0.9561 0.4391 0.54211 0.0
C276 C 0.53989 0.91004 0.712 0.0
C277 C 0.57009 0.93941 0.70758 0.0
C278 C 0.51527 0.91229 0.72155 0.0
C279 C 0.48136 0.96652 0.73245 0.0
H280 H 0.45073 0.91356 0.77441 0.0
C281 C 0.38689 0.9757 0.77822 0.0
C282 C 0.36238 0.94558 0.78599 0.0
C283 C 0.41389 0.97671 0.76929 0.0
C284 C 0.45859 0.92816 0.76262 0.0
H285 H 0.59785 0.99416 0.7091 0.0
H286 H 0.55412 -0.0019 0.72546 0.0
H287 H 0.49355 0.91138 0.75671 0.0
H288 H 0.34672 0.89293 0.79057 0.0
H289 H 0.39292 0.89423 0.7745 0.0
H290 H 0.4456 0.98236 0.73788 0.0
C291 C 0.54983 0.97342 0.72167 0.0
C292 C 0.48323 0.927 0.75256 0.0
C293 C 0.57478 0.97114 0.71237 0.0
C294 C 0.36545 0.91659 0.78482 0.0
C295 C 0.3921 0.91743 0.77568 0.0
C296 C 0.45626 0.96727 0.74237 0.0
C297 C 0.52016 0.94396 0.72658 0.0
C298 C 0.49468 0.94601 0.73736 0.0
C299 C 0.41664 0.94747 0.76773 0.0
C300 C 0.44439 0.94792 0.75754 0.0
H301 H 0.53567 0.88525 0.70852 0.0
H302 H 0.49243 0.88926 0.72509 0.0
H303 H 0.48974 0.98126 0.72071 0.0
H304 H 0.38518 -0.00152 0.77902 0.0
H305 H 0.4326 0.00045 0.76363 0.0
C306 C 0.42745 0.40058 0.95873 0.0
C307 C 0.40056 0.37547 0.94918 0.0
C308 C 0.45328 0.429 0.9505 0.0
C309 C 0.47571 0.47661 0.90903 0.0
H310 H 0.56719 0.50971 0.92498 0.0
C311 C 0.59534 0.56597 0.8696 0.0
C312 C 0.62122 0.59328 0.87862 0.0
C313 C 0.56718 0.54097 0.87838 0.0
C314 C 0.54173 0.50093 0.92049 0.0
H315 H 0.37933 0.36041 0.9236 0.0
H316 H 0.42478 0.40926 0.90918 0.0
H317 H 0.52037 0.46325 0.94012 0.0
H318 H 0.63785 0.61615 0.90382 0.0
H319 H 0.58892 0.57224 0.91914 0.0
H320 H 0.49755 0.51377 0.88901 0.0
C321 C 0.42568 0.40765 0.92305 0.0
C322 C 0.51484 0.4744 0.92921 0.0
C323 C 0.39969 0.37948 0.93131 0.0
C324 C 0.61828 0.59537 0.89652 0.0
C325 C 0.59039 0.5702 0.90531 0.0
C326 C 0.50269 0.50288 0.90018 0.0
C327 C 0.45296 0.43268 0.93252 0.0
C328 C 0.48146 0.46181 0.92357 0.0
C329 C 0.56469 0.54266 0.89635 0.0
C330 C 0.53594 0.51524 0.90582 0.0
H331 H 0.42862 0.39821 0.97254 0.0
H332 H 0.47353 0.44804 0.95825 0.0
H333 H 0.45033 0.46801 0.90448 0.0
H334 H 0.59696 0.56377 0.8558 0.0
H335 H 0.54778 0.51986 0.87119 0.0
C336 C 0.07214 0.28746 0.08457 0.0
C337 C 0.08937 0.31486 0.0959 0.0
C338 C 0.08767 0.28556 0.06943 0.0
C339 C 0.15759 0.33817 0.03959 0.0
H340 H 0.15574 0.25436 0.02885 0.0
C341 C 0.26007 0.33225 -0.0 0.0
C342 C 0.25151 0.30375 0.98976 0.0
C343 C 0.23551 0.33413 0.00979 0.0
C344 C 0.15593 0.27777 0.03141 0.0
H345 H 0.13626 0.3617 0.10029 0.0
H346 H 0.16337 0.35824 0.07403 0.0
H347 H 0.12153 0.25591 0.05249 0.0
H348 H 0.21021 0.25585 0.98083 0.0
H349 H 0.16713 0.25925 -0.00211 0.0
H350 H 0.19274 0.36029 0.01884 0.0
C351 C 0.13775 0.33846 0.07669 0.0
C352 C 0.13637 0.27866 0.04499 0.0
C353 C 0.12234 0.34027 0.09182 0.0
C354 C 0.21755 0.27808 0.98867 0.0
C355 C 0.19294 0.27992 -0.00148 0.0
C356 C 0.17708 0.33727 0.02599 0.0
C357 C 0.1206 0.31115 0.0653 0.0
C358 C 0.13775 0.3091 0.04953 0.0
C359 C 0.20185 0.30753 0.00956 0.0
C360 C 0.17719 0.3073 0.02206 0.0
H361 H 0.04663 0.26759 0.08737 0.0
H362 H 0.07381 0.26428 0.06086 0.0
H363 H 0.15862 0.36184 0.04259 0.0
H364 H 0.28604 0.35245 0.00108 0.0
H365 H 0.24332 0.35561 0.01828 0.0
C366 C 0.77875 0.0844 0.25856 0.0
C367 C 0.76601 0.10063 0.26897 0.0
C368 C 0.8007 0.10179 0.24493 0.0
C369 C 0.85988 0.18874 0.23058 0.0
H370 H 0.85248 0.14834 0.1857 0.0
C371 C 0.93615 0.26997 0.17378 0.0
C372 C 0.95375 0.25795 0.164 0.0
C373 C 0.91105 0.24864 0.18526 0.0
C374 C 0.85496 0.15982 0.19822 0.0
H375 H 0.76548 0.14736 0.27302 0.0
H376 H 0.80324 0.17739 0.24928 0.0
H377 H 0.81335 0.11476 0.20873 0.0
H378 H 0.95769 0.21375 0.15783 0.0
H379 H 0.91377 0.17636 0.17807 0.0
H380 H 0.90129 0.23367 0.22023 0.0
C381 C 0.79691 0.15153 0.25177 0.0
C382 C 0.83265 0.14061 0.21139 0.0
C383 C 0.77513 0.13426 0.26534 0.0
C384 C 0.94451 0.22367 0.16522 0.0
C385 C 0.91934 0.20227 0.17677 0.0
C386 C 0.88201 0.20785 0.21747 0.0
C387 C 0.81027 0.13568 0.24153 0.0
C388 C 0.83467 0.15505 0.22765 0.0
C389 C 0.90307 0.21485 0.18726 0.0
C390 C 0.87958 0.19379 0.20109 0.0
H391 H 0.77205 0.05844 0.26106 0.0
H392 H 0.81074 0.08898 0.23731 0.0
H393 H 0.86264 0.20036 0.24308 0.0
H394 H 0.9425 0.29619 0.17299 0.0
H395 H 0.89842 0.25886 0.19289 0.0
C396 C 0.68902 0.7845 0.4219 0.0
C397 C 0.66124 0.76938 0.43311 0.0
C398 C 0.69027 0.80608 0.40878 0.0
C399 C 0.65578 0.86089 0.39742 0.0
H400 H 0.68831 0.8591 0.35154 0.0
C401 C 0.6514 0.94481 0.34408 0.0
C402 C 0.68069 0.96261 0.33408 0.0
C403 C 0.64715 0.91829 0.35466 0.0
C404 C 0.67939 0.86003 0.36433 0.0
H405 H 0.61268 0.76432 0.4392 0.0
H406 H 0.61476 0.80172 0.41631 0.0
H407 H 0.68501 0.81867 0.37319 0.0
H408 H 0.72783 0.96572 0.32669 0.0
H409 H 0.72068 0.91966 0.34543 0.0
H410 H 0.65059 0.90241 0.38879 0.0
C411 C 0.63579 0.79733 0.41776 0.0
C412 C 0.67753 0.83692 0.37671 0.0
C413 C 0.63454 0.77581 0.43083 0.0
C414 C 0.70498 0.9524 0.33426 0.0
C415 C 0.70081 0.92594 0.34495 0.0
C416 C 0.65768 0.88394 0.38509 0.0
C417 C 0.66378 0.81294 0.40669 0.0
C418 C 0.66566 0.83712 0.39339 0.0
C419 C 0.67221 0.90915 0.35558 0.0
C420 C 0.66945 0.88378 0.3684 0.0
H421 H 0.70994 0.77993 0.42334 0.0
H422 H 0.71231 0.81798 0.40055 0.0
H423 H 0.64716 0.86214 0.41024 0.0
H424 H 0.6321 0.95192 0.34407 0.0
H425 H 0.62448 0.90537 0.36241 0.0
C426 C 0.72506 0.66286 0.50196 0.0
C427 C 0.73332 0.6928 0.49308 0.0
C428 C 0.74912 0.66073 0.51203 0.0
C429 C 0.82504 0.71527 0.53689 0.0
H430 H 0.82651 0.63183 0.54341 0.0
C431 C 0.90841 0.70081 0.58835 0.0
C432 C 0.89175 0.67133 0.59838 0.0
C433 C 0.89313 0.70443 0.57355 0.0
C434 C 0.82633 0.65529 0.54174 0.0
H435 H 0.77367 0.7434 0.48702 0.0
H436 H 0.81596 0.7396 0.50458 0.0
H437 H 0.79347 0.63618 0.51996 0.0
H438 H 0.84624 0.62246 0.6008 0.0
H439 H 0.81952 0.62883 0.57507 0.0
H440 H 0.85728 0.73408 0.55892 0.0
C441 C 0.79071 0.71793 0.5039 0.0
C442 C 0.80746 0.6578 0.52831 0.0
C443 C 0.76659 0.72003 0.49377 0.0
C444 C 0.85967 0.64548 0.59332 0.0
C445 C 0.8445 0.64901 0.57851 0.0
C446 C 0.84401 0.71279 0.55029 0.0
C447 C 0.782 0.68851 0.51345 0.0
C448 C 0.80591 0.68751 0.52601 0.0
C449 C 0.86104 0.67851 0.56847 0.0
C450 C 0.84415 0.68248 0.55311 0.0
H451 H 0.69962 0.64144 0.50166 0.0
H452 H 0.74143 0.63784 0.51936 0.0
H453 H 0.82406 0.73838 0.53561 0.0
H454 H 0.93323 0.72111 0.59192 0.0
H455 H 0.90653 0.72737 0.56602 0.0
C456 C 0.04053 0.76402 0.66182 0.0
C457 C 0.02892 0.7293 0.66367 0.0
C458 C 0.06752 0.78774 0.67174 0.0
C459 C 0.13769 0.79833 0.69984 0.0
H460 H 0.12261 0.86435 0.72359 0.0
C461 C 0.20126 0.85737 0.76386 0.0
C462 C 0.2137 0.89203 0.76655 0.0
C463 C 0.18231 0.84134 0.74926 0.0
C464 C 0.1275 0.84649 0.71684 0.0
H465 H 0.03725 0.69222 0.67679 0.0
H466 H 0.08407 0.73342 0.69413 0.0
H467 H 0.08377 0.82945 0.70097 0.0
H468 H 0.21592 0.93713 0.75613 0.0
H469 H 0.18225 0.90883 0.73052 0.0
H470 H 0.18074 0.81455 0.71612 0.0
C471 C 0.07264 0.74248 0.68494 0.0
C472 C 0.1053 0.82652 0.70386 0.0
C473 C 0.04565 0.71882 0.67508 0.0
C474 C 0.20656 0.91035 0.75438 0.0
C475 C 0.18731 0.89418 0.73977 0.0
C476 C 0.1598 0.8182 0.71282 0.0
C477 C 0.08348 0.77716 0.68362 0.0
C478 C 0.10966 0.8016 0.69555 0.0
C479 C 0.17521 0.85954 0.73702 0.0
C480 C 0.1544 0.84182 0.72177 0.0
H481 H 0.02813 0.77282 0.65308 0.0
H482 H 0.07555 0.81431 0.67031 0.0
H483 H 0.1421 0.77982 0.69343 0.0
H484 H 0.20632 0.84256 0.773 0.0
H485 H 0.1728 0.81449 0.74767 0.0
C486 C 0.27597 0.0402 0.83233 0.0
C487 C 0.29972 0.02929 0.83211 0.0
C488 C 0.28019 0.06616 0.84342 0.0
C489 C 0.32071 0.10381 0.88459 0.0
H490 H 0.29766 0.17258 0.87357 0.0
C491 C 0.34412 0.20942 0.93234 0.0
C492 C 0.31883 0.21806 0.93398 0.0
C493 C 0.34263 0.18792 0.91919 0.0
C494 C 0.30388 0.1533 0.87687 0.0
H495 H 0.3475 0.03831 0.84244 0.0
H496 H 0.35511 0.08388 0.86157 0.0
H497 H 0.29469 0.13354 0.85118 0.0
H498 H 0.27216 0.21112 0.92313 0.0
H499 H 0.26924 0.17301 0.90024 0.0
H500 H 0.32948 0.12309 0.91027 0.0
C501 C 0.33288 0.07194 0.85348 0.0
C502 C 0.30225 0.13103 0.86404 0.0
C503 C 0.32863 0.046 0.84245 0.0
C504 C 0.29201 0.20484 0.92218 0.0
C505 C 0.29048 0.18325 0.909 0.0
C506 C 0.32228 0.12597 0.89738 0.0
C507 C 0.30824 0.08165 0.85446 0.0
C508 C 0.31073 0.10608 0.86778 0.0
C509 C 0.31575 0.17449 0.90739 0.0
C510 C 0.31394 0.15101 0.89368 0.0
H511 H 0.25342 0.02773 0.8245 0.0
H512 H 0.26069 0.07296 0.84394 0.0
H513 H 0.32665 0.08438 0.88799 0.0
H514 H 0.36523 0.21942 0.94118 0.0
H515 H 0.36276 0.18208 0.91815 0.0
C516 C 0.71738 0.77498 0.8375 0.0
C517 C 0.69162 0.74095 0.83686 0.0
C518 C 0.71435 0.79961 0.82827 0.0
C519 C 0.65363 0.81497 0.80357 0.0
H520 H 0.73095 0.86967 0.77439 0.0
C521 C 0.64161 0.86035 0.73697 0.0
C522 C 0.66543 0.89312 0.73158 0.0
C523 C 0.64554 0.84776 0.75259 0.0
C524 C 0.70938 0.85513 0.78268 0.0
H525 H 0.6417 0.70627 0.82699 0.0
H526 H 0.6365 0.74897 0.81082 0.0
H527 H 0.73602 0.83698 0.79779 0.0
H528 H 0.71198 0.9386 0.73834 0.0
H529 H 0.7192 0.9162 0.7657 0.0
H530 H 0.62658 0.83185 0.78785 0.0
C531 C 0.65894 0.75686 0.81851 0.0
C532 C 0.71227 0.83643 0.79612 0.0
C533 C 0.662 0.7323 0.82769 0.0
C534 C 0.69329 0.91318 0.74217 0.0
C535 C 0.69742 0.90041 0.75779 0.0
C536 C 0.65072 0.83354 0.7901 0.0
C537 C 0.68545 0.79064 0.81831 0.0
C538 C 0.68409 0.81524 0.80633 0.0
C539 C 0.6735 0.86757 0.76314 0.0
C540 C 0.67824 0.85287 0.77916 0.0
H541 H 0.74045 0.78239 0.84454 0.0
H542 H 0.73502 0.82549 0.82854 0.0
H543 H 0.63167 0.79941 0.81144 0.0
H544 H 0.61983 0.84432 0.7291 0.0
H545 H 0.62702 0.82215 0.75622 0.0
C546 C 0.78757 0.65148 0.89446 0.0
C547 C 0.7773 0.6756 0.8927 0.0
C548 C 0.80764 0.65305 0.90834 0.0
C549 C 0.86626 0.71124 0.94097 0.0
H550 H 0.8482 0.62811 0.9636 0.0
C551 C 0.94483 0.71192 -0.00103 0.0
C552 C 0.9567 0.68899 -0.00228 0.0
C553 C 0.91952 0.7092 0.98791 0.0
C554 C 0.8536 0.65152 0.95737 0.0
H555 H 0.78012 0.7204 0.90397 0.0
H556 H 0.81509 0.72305 0.92828 0.0
H557 H 0.81142 0.62616 0.94038 0.0
H558 H 0.95044 0.64434 0.98453 0.0
H559 H 0.90643 0.63964 0.96524 0.0
H560 H 0.90873 0.73654 0.95777 0.0
C561 C 0.80788 0.70312 0.91886 0.0
C562 C 0.83262 0.6504 0.94405 0.0
C563 C 0.78779 0.70154 0.90496 0.0
C564 C 0.94178 0.6624 0.98578 0.0
C565 C 0.91644 0.6596 0.97478 0.0
C566 C 0.88722 0.71236 0.9543 0.0
C567 C 0.81784 0.67875 0.92075 0.0
C568 C 0.83901 0.68019 0.93553 0.0
C569 C 0.90555 0.68339 0.97547 0.0
C570 C 0.88139 0.68246 0.96248 0.0
H571 H 0.7799 0.63123 0.88519 0.0
H572 H 0.81539 0.63425 0.90927 0.0
H573 H 0.87207 0.73459 0.93454 0.0
H574 H 0.95584 0.73264 0.00808 0.0
H575 H 0.9113 0.72764 0.98888 0.0
C576 C 0.22537 0.95008 0.16677 0.0
C577 C 0.25992 0.96269 0.16379 0.0
C578 C 0.20118 0.92223 0.15747 0.0
C579 C 0.18899 0.85041 0.13049 0.0
H580 H 0.12264 0.86406 0.10634 0.0
C581 C 0.12687 0.7801 0.06825 0.0
C582 C 0.09286 0.76975 0.06513 0.0
C583 C 0.14339 0.79987 0.08256 0.0
C584 C 0.14052 0.85948 0.11323 0.0
H585 H 0.29631 0.95532 0.14938 0.0
H586 H 0.25418 0.90662 0.13331 0.0
H587 H 0.1584 0.90473 0.12813 0.0
H588 H 0.04931 0.7717 0.07461 0.0
H589 H 0.07829 0.80632 0.0998 0.0
H590 H 0.17172 0.80561 0.11537 0.0
C591 C 0.24572 0.91815 0.1428 0.0
C592 C 0.16099 0.88278 0.12571 0.0
C593 C 0.26985 0.94616 0.15192 0.0
C594 C 0.07561 0.77945 0.07668 0.0
C595 C 0.0922 0.79931 0.09106 0.0
C596 C 0.16843 0.82705 0.1181 0.0
C597 C 0.21117 0.90629 0.14524 0.0
C598 C 0.18607 0.87897 0.13409 0.0
C599 C 0.1263 0.80971 0.09415 0.0
C600 C 0.14468 0.83187 0.10895 0.0
H601 H 0.21705 0.96239 0.17585 0.0
H602 H 0.17469 0.91346 0.15966 0.0
H603 H 0.20777 0.8466 0.13696 0.0
H604 H 0.14085 0.77308 0.05956 0.0
H605 H 0.16984 0.80802 0.08435 0.0
C606 C 0.34648 0.11121 0.24223 0.0
C607 C 0.3193 0.09548 0.23075 0.0
C608 C 0.34384 0.1269 0.25709 0.0
C609 C 0.28271 0.13881 0.28408 0.0
H610 H 0.36295 0.22379 0.2951 0.0
C611 C 0.28086 0.22945 0.33556 0.0
C612 C 0.29785 0.26376 0.33086 0.0
C613 C 0.28535 0.20598 0.326 0.0
C614 C 0.34024 0.20019 0.29218 0.0
H615 H 0.26776 0.08289 0.22589 0.0
H616 H 0.26358 0.11185 0.25134 0.0
H617 H 0.36566 0.18776 0.27309 0.0
H618 H 0.33336 0.30057 0.31278 0.0
H619 H 0.34044 0.25993 0.29596 0.0
H620 H 0.25678 0.15273 0.30232 0.0
C621 C 0.28665 0.11124 0.24927 0.0
C622 C 0.3419 0.17913 0.2797 0.0
C623 C 0.28907 0.09486 0.23458 0.0
C624 C 0.32003 0.27431 0.31678 0.0
C625 C 0.32429 0.25095 0.30719 0.0
C626 C 0.28093 0.1602 0.2964 0.0
C627 C 0.31422 0.12796 0.26059 0.0
C628 C 0.31301 0.14845 0.2752 0.0
C629 C 0.30675 0.21642 0.31153 0.0
C630 C 0.30951 0.19155 0.30028 0.0
H631 H 0.36991 0.11153 0.23969 0.0
H632 H 0.36529 0.13862 0.26569 0.0
H633 H 0.2601 0.11507 0.28125 0.0
H634 H 0.26367 0.22065 0.34639 0.0
H635 H 0.27179 0.17966 0.32984 0.0
C636 C 0.19611 0.29497 0.40375 0.0
C637 C 0.2117 0.32411 0.39343 0.0
C638 C 0.17604 0.29321 0.41774 0.0
C639 C 0.12681 0.331 0.43413 0.0
H640 H 0.1304 0.29135 0.47766 0.0
C641 C 0.05031 0.33299 0.49181 0.0
C642 C 0.0314 0.30209 0.50047 0.0
C643 C 0.07594 0.33772 0.48045 0.0
C644 C 0.12902 0.30234 0.46555 0.0
H645 H 0.21892 0.37439 0.38974 0.0
H646 H 0.1842 0.37143 0.41414 0.0
H647 H 0.16729 0.29479 0.454 0.0
H648 H 0.02571 0.25261 0.50485 0.0
H649 H 0.07024 0.26069 0.48482 0.0
H650 H 0.08836 0.33818 0.44546 0.0
C651 C 0.18702 0.34974 0.41134 0.0
C652 C 0.15006 0.30423 0.452 0.0
C653 C 0.20702 0.35148 0.39738 0.0
C654 C 0.03991 0.27672 0.49835 0.0
C655 C 0.06549 0.28139 0.48691 0.0
C656 C 0.10585 0.32911 0.44762 0.0
C657 C 0.17118 0.32056 0.42164 0.0
C658 C 0.14914 0.31856 0.43614 0.0
C659 C 0.08306 0.31157 0.47744 0.0
C660 C 0.10667 0.31476 0.46349 0.0
H661 H 0.19935 0.2735 0.401 0.0
H662 H 0.16387 0.27024 0.42532 0.0
H663 H 0.12501 0.3416 0.42198 0.0
H664 H 0.04449 0.35311 0.49331 0.0
H665 H 0.08953 0.36153 0.47363 0.0
C666 C 0.90497 0.19296 0.571 0.0
C667 C 0.889 0.20713 0.56149 0.0
C668 C 0.8883 0.17121 0.58479 0.0
C669 C 0.81948 0.14901 0.61574 0.0
H670 H 0.81571 0.06248 0.61908 0.0
C671 C 0.71667 0.03775 0.65384 0.0
C672 C 0.72455 0.01549 0.66235 0.0
C673 C 0.74077 0.06392 0.64371 0.0
C674 C 0.81706 0.08682 0.61856 0.0
H675 H 0.84311 0.20958 0.55884 0.0
H676 H 0.81412 0.17173 0.58285 0.0
H677 H 0.85048 0.10274 0.59687 0.0
H678 H 0.76414 0.00381 0.66748 0.0
H679 H 0.80653 0.0499 0.64983 0.0
H680 H 0.78575 0.13306 0.63722 0.0
C681 C 0.83958 0.17761 0.57977 0.0
C682 C 0.8369 0.10982 0.6058 0.0
C683 C 0.85608 0.19905 0.56594 0.0
C684 C 0.75737 0.02058 0.66101 0.0
C685 C 0.78155 0.04681 0.65084 0.0
C686 C 0.79981 0.12615 0.62853 0.0
C687 C 0.85555 0.1636 0.58939 0.0
C688 C 0.83761 0.14076 0.60401 0.0
C689 C 0.77333 0.06846 0.64187 0.0
C690 C 0.79769 0.09444 0.62981 0.0
H691 H 0.93038 0.19881 0.56784 0.0
H692 H 0.90121 0.1608 0.59202 0.0
H693 H 0.82011 0.17299 0.61486 0.0
H694 H 0.69156 0.03444 0.65461 0.0
H695 H 0.73342 0.0798 0.63679 0.0
C696 C 0.20107 0.31378 0.30227 0.0
C697 C 0.22693 0.34317 0.30995 0.0
C698 C 0.18581 0.31571 0.28712 0.0
C699 C 0.19876 0.37147 0.24983 0.0
H700 H 0.10376 0.30776 0.24249 0.0
C701 C 0.1213 0.37159 0.19019 0.0
C702 C 0.10162 0.3398 0.18241 0.0
C703 C 0.13766 0.3744 0.20584 0.0
C704 C 0.13034 0.32562 0.24435 0.0
H705 H 0.25686 0.39776 0.30795 0.0
H706 H 0.22951 0.4013 0.28163 0.0
H707 H 0.12933 0.30896 0.27012 0.0
H708 H 0.08403 0.28617 0.18471 0.0
H709 H 0.11218 0.29107 0.21206 0.0
H710 H 0.1993 0.3883 0.22398 0.0
C711 C 0.22148 0.37665 0.28714 0.0
C712 C 0.14507 0.32626 0.26016 0.0
C713 C 0.237 0.37467 0.30228 0.0
C714 C 0.09903 0.31101 0.19039 0.0
C715 C 0.11495 0.31376 0.20609 0.0
C716 C 0.18385 0.37109 0.23405 0.0
C717 C 0.19575 0.34714 0.27934 0.0
C718 C 0.17963 0.34869 0.263 0.0
C719 C 0.13414 0.3454 0.21405 0.0
C720 C 0.14966 0.34771 0.23108 0.0
H721 H 0.19294 0.2891 0.30779 0.0
H722 H 0.16664 0.29237 0.28133 0.0
H723 H 0.22549 0.38885 0.25148 0.0
H724 H 0.12373 0.3942 0.18431 0.0
H725 H 0.15227 0.39907 0.21175 0.0
C726 C 0.89122 0.22092 0.46674 0.0
C727 C 0.88167 0.23809 0.47842 0.0
C728 C 0.8739 0.20863 0.45128 0.0
C729 C 0.79308 0.17891 0.4303 0.0
H730 H 0.84533 0.1959 0.38842 0.0
C731 C 0.73072 0.12465 0.364 0.0
C732 C 0.74703 0.11185 0.35371 0.0
C733 C 0.74636 0.14336 0.37885 0.0
C734 C 0.83034 0.19066 0.4 0.0
H735 H 0.84618 0.25546 0.48323 0.0
H736 H 0.81521 0.23314 0.45614 0.0
H737 H 0.87386 0.22211 0.41528 0.0
H738 H 0.79236 0.10846 0.35089 0.0
H739 H 0.81922 0.14026 0.37681 0.0
H740 H 0.74966 0.14637 0.41517 0.0
C741 C 0.83635 0.22954 0.459 0.0
C742 C 0.8467 0.20581 0.41536 0.0
C743 C 0.85408 0.24235 0.47443 0.0
C744 C 0.77922 0.11817 0.35849 0.0
C745 C 0.79475 0.13666 0.37331 0.0
C746 C 0.77667 0.16342 0.41493 0.0
C747 C 0.84636 0.21285 0.44722 0.0
C748 C 0.82833 0.19956 0.43072 0.0
C749 C 0.77858 0.14954 0.38369 0.0
C750 C 0.79524 0.16856 0.39967 0.0
H751 H 0.91239 0.21727 0.46945 0.0
H752 H 0.88187 0.19548 0.44253 0.0
H753 H 0.77837 0.17356 0.442 0.0
H754 H 0.70588 0.12019 0.3606 0.0
H755 H 0.73333 0.15314 0.38647 0.0
C756 C 0.64332 0.84816 0.64075 0.0
C757 C 0.62797 0.86799 0.6426 0.0
C758 C 0.63972 0.83048 0.62549 0.0
C759 C 0.6243 0.83361 0.57955 0.0
H760 H 0.61367 0.74385 0.57895 0.0
C761 C 0.65823 0.77982 0.52078 0.0
C762 C 0.63658 0.74576 0.51645 0.0
C763 C 0.65313 0.79323 0.53588 0.0
C764 C 0.61627 0.76876 0.57889 0.0
H765 H 0.59606 0.88418 0.63015 0.0
H766 H 0.58981 0.85328 0.60345 0.0
H767 H 0.61098 0.76886 0.60629 0.0
H768 H 0.59237 0.69908 0.52439 0.0
H769 H 0.58354 0.72256 0.55091 0.0
H770 H 0.63001 0.83371 0.55219 0.0
C771 C 0.6048 0.85161 0.61376 0.0
C772 C 0.61505 0.78319 0.59455 0.0
C773 C 0.60825 0.86915 0.62907 0.0
C774 C 0.60947 0.72543 0.52742 0.0
C775 C 0.60451 0.7388 0.54262 0.0
C776 C 0.62574 0.81928 0.56391 0.0
C777 C 0.62084 0.83242 0.61174 0.0
C778 C 0.61946 0.81594 0.59506 0.0
C779 C 0.62638 0.77282 0.54703 0.0
C780 C 0.62219 0.78689 0.56345 0.0
H781 H 0.65867 0.84679 0.65097 0.0
H782 H 0.65268 0.8162 0.62426 0.0
H783 H 0.62808 0.859 0.57953 0.0
H784 H 0.67935 0.7961 0.51258 0.0
H785 H 0.67065 0.81942 0.53903 0.0
C786 C 0.87472 0.67451 0.68923 0.0
C787 C 0.87479 0.64591 0.68265 0.0
C788 C 0.85579 0.67197 0.70381 0.0
C789 C 0.81629 0.61884 0.74215 0.0
H790 H 0.77466 0.67452 0.74602 0.0
C791 C 0.73928 0.61855 0.802 0.0
C792 C 0.74813 0.65087 0.80819 0.0
C793 C 0.75184 0.61487 0.78619 0.0
C794 C 0.78622 0.65888 0.74513 0.0
H795 H 0.85465 0.59206 0.686 0.0
H796 H 0.82101 0.58745 0.71143 0.0
H797 H 0.80085 0.67308 0.71896 0.0
H798 H 0.77693 0.70462 0.80271 0.0
H799 H 0.79852 0.69819 0.77517 0.0
H800 H 0.80159 0.60481 0.76844 0.0
C801 C 0.83602 0.61197 0.70543 0.0
C802 C 0.80132 0.65811 0.72965 0.0
C803 C 0.85511 0.61455 0.69082 0.0
C804 C 0.76966 0.67937 0.79829 0.0
C805 C 0.78185 0.67569 0.78246 0.0
C806 C 0.80092 0.61943 0.75763 0.0
C807 C 0.83628 0.64072 0.71215 0.0
C808 C 0.81723 0.63869 0.72807 0.0
C809 C 0.77304 0.64344 0.77621 0.0
C810 C 0.78639 0.64004 0.75938 0.0
H811 H 0.88976 0.69908 0.68328 0.0
H812 H 0.85714 0.69478 0.70879 0.0
H813 H 0.82856 0.60384 0.74145 0.0
H814 H 0.72273 0.59614 0.80938 0.0
H815 H 0.74457 0.58971 0.78164 0.0
C816 C 0.20602 0.88736 0.86127 0.0
C817 C 0.23226 0.88444 0.85363 0.0
C818 C 0.19269 0.87216 0.87712 0.0
C819 C 0.18001 0.80354 0.90551 0.0
H820 H 0.17114 0.85803 0.94117 0.0
C821 C 0.1275 0.74919 0.97309 0.0
C822 C 0.10597 0.7592 0.9806 0.0
C823 C 0.14576 0.76522 0.9582 0.0
C824 C 0.17303 0.8423 0.93132 0.0
H825 H 0.26468 0.86277 0.85637 0.0
H826 H 0.24069 0.83542 0.88404 0.0
H827 H 0.19658 0.88378 0.91367 0.0
H828 H 0.08656 0.79368 0.97848 0.0
H829 H 0.11737 0.82081 0.95235 0.0
H830 H 0.15532 0.76171 0.92283 0.0
C831 C 0.23073 0.84974 0.87775 0.0
C832 C 0.18776 0.85713 0.9156 0.0
C833 C 0.24446 0.86542 0.86198 0.0
C834 C 0.10318 0.7856 0.97305 0.0
C835 C 0.12107 0.80133 0.95811 0.0
C836 C 0.16482 0.78853 0.92118 0.0
C837 C 0.205 0.85333 0.88554 0.0
C838 C 0.19105 0.83783 0.90249 0.0
C839 C 0.14258 0.79134 0.95045 0.0
C840 C 0.16077 0.80765 0.93421 0.0
H841 H 0.19615 0.90191 0.85514 0.0
H842 H 0.17261 0.875 0.88278 0.0
H843 H 0.18211 0.78809 0.89555 0.0
H844 H 0.13021 0.72897 0.97869 0.0
H845 H 0.16243 0.75718 0.95281 0.0
C846 C 0.31438 0.12106 0.13924 0.0
C847 C 0.34195 0.1173 0.14393 0.0
C848 C 0.3153 0.13795 0.1241 0.0
C849 C 0.37086 0.19949 0.09216 0.0
H850 H 0.29446 0.15176 0.06152 0.0
C851 C 0.36786 0.24885 0.02371 0.0
C852 C 0.33664 0.24365 0.01781 0.0
C853 C 0.36986 0.2341 0.03914 0.0
C854 C 0.31578 0.16576 0.07 0.0
H855 H 0.39256 0.12932 0.13682 0.0
H856 H 0.39436 0.1595 0.11041 0.0
H857 H 0.29554 0.12613 0.08877 0.0
H858 H 0.28323 0.21981 0.02358 0.0
H859 H 0.28678 0.19519 0.05062 0.0
H860 H 0.39078 0.23955 0.07362 0.0
C861 C 0.37202 0.14915 0.11844 0.0
C862 C 0.31641 0.15095 0.08559 0.0
C863 C 0.37094 0.13182 0.13349 0.0
C864 C 0.30761 0.22394 0.0277 0.0
C865 C 0.30964 0.20961 0.04318 0.0
C866 C 0.37004 0.21458 0.07662 0.0
C867 C 0.34396 0.15181 0.11345 0.0
C868 C 0.34385 0.16771 0.09686 0.0
C869 C 0.34071 0.21418 0.04905 0.0
C870 C 0.34236 0.19797 0.06538 0.0
H871 H 0.29171 0.11015 0.14702 0.0
H872 H 0.29346 0.13997 0.12063 0.0
H873 H 0.39225 0.21298 0.10068 0.0
H874 H 0.39064 0.26389 0.0163 0.0
H875 H 0.39415 0.23786 0.04314 0.0
loop_
_geom_bond_atom_site_label_1
_geom_bond_atom_site_label_2
_geom_bond_distance
_geom_bond_site_symmetry_2
_ccdc_geom_bond_type
In0 O1 2.294 . S
In0 O2 2.326 . S
In0 O6 2.266 . S
In0 O7 2.326 . S
In0 O8 2.266 . S
In0 O9 2.326 . S
In0 O11 2.294 . S
In0 O12 2.326 . S
O1 In0 2.294 . S
O1 C10 1.240 . S
O2 In0 2.326 . S
O2 C10 1.252 . S
C3 O6 1.252 . S
C3 O7 1.260 . S
C4 O11 1.240 . S
C4 O12 1.252 . S
C5 O8 1.252 . S
C5 O9 1.260 . S
O6 In0 2.266 . S
O6 C3 1.252 . S
O7 In0 2.326 . S
O7 C3 1.260 . S
O8 In0 2.266 . S
O8 C5 1.252 . S
O9 In0 2.326 . S
O9 C5 1.260 . S
C10 O1 1.240 . S
C10 O2 1.252 . S
O11 In0 2.294 . S
O11 C4 1.240 . S
O12 In0 2.326 . S
O12 C4 1.252 . S
In13 O14 2.294 . S
In13 O15 2.326 . S
In13 O19 2.266 . S
In13 O20 2.326 . S
In13 O21 2.266 . S
In13 O22 2.326 . S
In13 O24 2.294 . S
In13 O25 2.326 . S
O14 In13 2.294 . S
O14 C23 1.240 . S
O15 In13 2.326 . S
O15 C23 1.252 . S
C16 O19 1.252 . S
C16 O20 1.260 . S
C17 O24 1.240 . S
C17 O25 1.252 . S
C18 O21 1.252 . S
C18 O22 1.260 . S
O19 In13 2.266 . S
O19 C16 1.252 . S
O20 In13 2.326 . S
O20 C16 1.260 . S
O21 In13 2.266 . S
O21 C18 1.252 . S
O22 In13 2.326 . S
O22 C18 1.260 . S
C23 O14 1.240 . S
C23 O15 1.252 . S
O24 In13 2.294 . S
O24 C17 1.240 . S
O25 In13 2.326 . S
O25 C17 1.252 . S
In26 O27 2.294 . S
In26 O28 2.326 . S
In26 O32 2.266 . S
In26 O33 2.326 . S
In26 O34 2.266 . S
In26 O35 2.326 . S
In26 O37 2.294 . S
In26 O38 2.326 . S
O27 In26 2.294 . S
O27 C36 1.240 . S
O28 In26 2.326 . S
O28 C36 1.252 . S
C29 O32 1.252 . S
C29 O33 1.260 . S
C30 O37 1.240 . S
C30 O38 1.252 . S
C31 O34 1.252 . S
C31 O35 1.260 . S
O32 In26 2.266 . S
O32 C29 1.252 . S
O33 In26 2.326 . S
O33 C29 1.260 . S
O34 In26 2.266 . S
O34 C31 1.252 . S
O35 In26 2.326 . S
O35 C31 1.260 . S
C36 O27 1.240 . S
C36 O28 1.252 . S
O37 In26 2.294 . S
O37 C30 1.240 . S
O38 In26 2.326 . S
O38 C30 1.252 . S
In39 O40 2.294 . S
In39 O41 2.326 . S
In39 O45 2.266 . S
In39 O46 2.326 . S
In39 O47 2.266 . S
In39 O48 2.326 . S
In39 O50 2.294 . S
In39 O51 2.326 . S
O40 In39 2.294 . S
O40 C49 1.240 . S
O41 In39 2.326 . S
O41 C49 1.252 . S
C42 O45 1.252 . S
C42 O46 1.260 . S
C43 O50 1.240 . S
C43 O51 1.252 . S
C44 O47 1.252 . S
C44 O48 1.260 . S
O45 In39 2.266 . S
O45 C42 1.252 . S
O46 In39 2.326 . S
O46 C42 1.260 . S
O47 In39 2.266 . S
O47 C44 1.252 . S
O48 In39 2.326 . S
O48 C44 1.260 . S
C49 O40 1.240 . S
C49 O41 1.252 . S
O50 In39 2.294 . S
O50 C43 1.240 . S
O51 In39 2.326 . S
O51 C43 1.252 . S
In52 O53 2.294 . S
In52 O54 2.326 . S
In52 O58 2.266 . S
In52 O59 2.326 . S
In52 O60 2.266 . S
In52 O61 2.326 . S
In52 O63 2.294 . S
In52 O64 2.326 . S
O53 In52 2.294 . S
O53 C62 1.240 . S
O54 In52 2.326 . S
O54 C62 1.252 . S
C55 O58 1.252 . S
C55 O59 1.260 . S
C56 O63 1.240 . S
C56 O64 1.252 . S
C57 O60 1.252 . S
C57 O61 1.260 . S
O58 In52 2.266 . S
O58 C55 1.252 . S
O59 In52 2.326 . S
O59 C55 1.260 . S
O60 In52 2.266 . S
O60 C57 1.252 . S
O61 In52 2.326 . S
O61 C57 1.260 . S
C62 O53 1.240 . S
C62 O54 1.252 . S
O63 In52 2.294 . S
O63 C56 1.240 . S
O64 In52 2.326 . S
O64 C56 1.252 . S
In65 O66 2.294 . S
In65 O67 2.326 . S
In65 O71 2.266 1_556 S
In65 O72 2.373 . S
In65 O73 2.266 . S
In65 O74 2.345 . S
In65 O76 2.294 . S
In65 O77 2.326 . S
O66 In65 2.294 . S
O66 C75 1.240 . S
O67 In65 2.326 . S
O67 C75 1.252 . S
C68 O71 1.252 . S
C68 O72 1.226 1_554 S
C69 O76 1.240 . S
C69 O77 1.252 . S
C70 O73 1.252 . S
C70 O74 1.267 . S
O71 In65 2.266 1_554 S
O71 C68 1.252 . S
O72 In65 2.373 . S
O72 C68 1.226 1_556 S
O73 In65 2.266 . S
O73 C70 1.252 . S
O74 In65 2.345 . S
O74 C70 1.267 . S
C75 O66 1.240 . S
C75 O67 1.252 . S
O76 In65 2.294 . S
O76 C69 1.240 . S
O77 In65 2.326 . S
O77 C69 1.252 . S
In78 O79 2.294 . S
In78 O80 2.326 . S
In78 O84 2.266 . S
In78 O85 2.326 . S
In78 O86 2.266 . S
In78 O87 2.326 . S
In78 O89 2.294 . S
In78 O90 2.326 . S
O79 In78 2.294 . S
O79 C88 1.240 . S
O80 In78 2.326 . S
O80 C88 1.252 . S
C81 O84 1.252 . S
C81 O85 1.260 . S
C82 O89 1.240 . S
C82 O90 1.252 . S
C83 O86 1.252 . S
C83 O87 1.260 . S
O84 In78 2.266 . S
O84 C81 1.252 . S
O85 In78 2.326 . S
O85 C81 1.260 . S
O86 In78 2.266 . S
O86 C83 1.252 . S
O87 In78 2.326 . S
O87 C83 1.260 . S
C88 O79 1.240 . S
C88 O80 1.252 . S
O89 In78 2.294 . S
O89 C82 1.240 . S
O90 In78 2.326 . S
O90 C82 1.252 . S
In91 O92 2.294 . S
In91 O93 2.326 . S
In91 O97 2.266 . S
In91 O98 2.326 . S
In91 O99 2.266 . S
In91 O100 2.326 . S
In91 O102 2.294 . S
In91 O103 2.326 . S
O92 In91 2.294 . S
O92 C101 1.240 . S
O93 In91 2.326 . S
O93 C101 1.252 . S
C94 O97 1.252 . S
C94 O98 1.260 . S
C95 O102 1.240 . S
C95 O103 1.252 . S
C96 O99 1.252 . S
C96 O100 1.260 . S
O97 In91 2.266 . S
O97 C94 1.252 . S
O98 In91 2.326 . S
O98 C94 1.260 . S
O99 In91 2.266 . S
O99 C96 1.252 . S
O100 In91 2.326 . S
O100 C96 1.260 . S
C101 O92 1.240 . S
C101 O93 1.252 . S
O102 In91 2.294 . S
O102 C95 1.240 . S
O103 In91 2.326 . S
O103 C95 1.252 . S
In104 O105 2.294 . S
In104 O106 2.326 . S
In104 O110 2.266 . S
In104 O111 2.345 . S
In104 O112 2.266 1_554 S
In104 O113 2.372 . S
In104 O115 2.294 . S
In104 O116 2.326 . S
O105 In104 2.294 . S
O105 C114 1.240 . S
O106 In104 2.326 . S
O106 C114 1.252 . S
C107 O110 1.252 . S
C107 O111 1.267 . S
C108 O115 1.240 . S
C108 O116 1.252 . S
C109 O112 1.252 . S
C109 O113 1.226 1_556 S
O110 In104 2.266 . S
O110 C107 1.252 . S
O111 In104 2.345 . S
O111 C107 1.267 . S
O112 In104 2.266 1_556 S
O112 C109 1.252 . S
O113 In104 2.372 . S
O113 C109 1.226 1_554 S
C114 O105 1.240 . S
C114 O106 1.252 . S
O115 In104 2.294 . S
O115 C108 1.240 . S
O116 In104 2.326 . S
O116 C108 1.252 . S
In117 O118 2.294 . S
In117 O119 2.326 . S
In117 O123 2.266 . S
In117 O124 2.326 . S
In117 O125 2.266 . S
In117 O126 2.326 . S
In117 O128 2.294 . S
In117 O129 2.326 . S
O118 In117 2.294 . S
O118 C127 1.240 . S
O119 In117 2.326 . S
O119 C127 1.252 . S
C120 O123 1.252 . S
C120 O124 1.260 . S
C121 O128 1.240 . S
C121 O129 1.252 . S
C122 O125 1.252 . S
C122 O126 1.260 . S
O123 In117 2.266 . S
O123 C120 1.252 . S
O124 In117 2.326 . S
O124 C120 1.260 . S
O125 In117 2.266 . S
O125 C122 1.252 . S
O126 In117 2.326 . S
O126 C122 1.260 . S
C127 O118 1.240 . S
C127 O119 1.252 . S
O128 In117 2.294 . S
O128 C121 1.240 . S
O129 In117 2.326 . S
O129 C121 1.252 . S
In130 O131 2.294 . S
In130 O132 2.326 . S
In130 O136 2.266 . S
In130 O137 2.326 . S
In130 O138 2.266 . S
In130 O139 2.326 . S
In130 O141 2.294 . S
In130 O142 2.326 . S
O131 In130 2.294 . S
O131 C140 1.240 . S
O132 In130 2.326 . S
O132 C140 1.252 . S
C133 O136 1.252 . S
C133 O137 1.260 . S
C134 O141 1.240 . S
C134 O142 1.252 . S
C135 O138 1.252 . S
C135 O139 1.260 . S
O136 In130 2.266 . S
O136 C133 1.252 . S
O137 In130 2.326 . S
O137 C133 1.260 . S
O138 In130 2.266 . S
O138 C135 1.252 . S
O139 In130 2.326 . S
O139 C135 1.260 . S
C140 O131 1.240 . S
C140 O132 1.252 . S
O141 In130 2.294 . S
O141 C134 1.240 . S
O142 In130 2.326 . S
O142 C134 1.252 . S
In143 O144 2.294 . S
In143 O145 2.326 . S
In143 O149 2.266 . S
In143 O150 2.326 . S
In143 O151 2.266 . S
In143 O152 2.326 . S
In143 O154 2.294 . S
In143 O155 2.326 . S
O144 In143 2.294 . S
O144 C153 1.240 . S
O145 In143 2.326 . S
O145 C153 1.252 . S
C146 O149 1.252 . S
C146 O150 1.260 . S
C147 O154 1.240 . S
C147 O155 1.252 . S
C148 O151 1.252 . S
C148 O152 1.260 . S
O149 In143 2.266 . S
O149 C146 1.252 . S
O150 In143 2.326 . S
O150 C146 1.260 . S
O151 In143 2.266 . S
O151 C148 1.252 . S
O152 In143 2.326 . S
O152 C148 1.260 . S
C153 O144 1.240 . S
C153 O145 1.252 . S
O154 In143 2.294 . S
O154 C147 1.240 . S
O155 In143 2.326 . S
O155 C147 1.252 . S
C156 C157 1.349 . S
C156 C158 1.327 . S
C156 H181 0.950 . S
C157 C156 1.349 . S
C157 C173 1.349 . S
C158 C156 1.327 . S
C158 C177 1.429 . S
C158 H182 0.950 . S
C159 C176 1.574 . S
C159 C178 1.368 . S
C159 H183 0.949 . S
H160 C164 0.949 . S
C161 C162 1.349 . S
C161 C163 1.327 . S
C161 H184 0.950 . S
C162 C161 1.349 . S
C162 C174 1.349 . S
C163 C161 1.327 . S
C163 C179 1.429 . S
C163 H185 0.950 . S
C164 H160 0.949 . S
C164 C172 1.574 . S
C164 C180 1.368 . S
H165 C173 0.950 . S
H166 C171 0.950 . S
H167 C172 0.949 . S
H168 C174 0.950 . S
H169 C175 0.950 . S
H170 C176 0.949 . S
C171 H166 0.950 . S
C171 C173 1.327 . S
C171 C177 1.429 . S
C172 C164 1.574 . S
C172 H167 0.949 . S
C172 C178 1.368 . S
C173 C157 1.349 . S
C173 H165 0.950 . S
C173 C171 1.327 . S
C174 C162 1.349 . S
C174 H168 0.950 . S
C174 C175 1.327 . S
C175 H169 0.950 . S
C175 C174 1.327 . S
C175 C179 1.429 . S
C176 C159 1.574 . S
C176 H170 0.949 . S
C176 C180 1.368 . S
C177 C158 1.429 . S
C177 C171 1.429 . S
C177 C178 1.523 . S
C178 C159 1.368 . S
C178 C172 1.368 . S
C178 C177 1.523 . S
C179 C163 1.429 . S
C179 C175 1.429 . S
C179 C180 1.523 . S
C180 C164 1.368 . S
C180 C176 1.368 . S
C180 C179 1.523 . S
H181 C156 0.950 . S
H182 C158 0.950 . S
H183 C159 0.949 . S
H184 C161 0.950 . S
H185 C163 0.950 . S
C186 C187 1.349 . S
C186 C188 1.327 . S
C186 H211 0.950 . S
C187 C186 1.349 . S
C187 C203 1.349 . S
C188 C186 1.327 . S
C188 C207 1.429 . S
C188 H212 0.950 . S
C189 C206 1.574 . S
C189 C208 1.368 . S
C189 H213 0.949 . S
H190 C194 0.949 . S
C191 C192 1.349 . S
C191 C193 1.327 . S
C191 H214 0.950 . S
C192 C191 1.349 . S
C192 C204 1.349 . S
C193 C191 1.327 . S
C193 C209 1.429 . S
C193 H215 0.950 . S
C194 H190 0.949 . S
C194 C202 1.574 . S
C194 C210 1.368 . S
H195 C203 0.950 . S
H196 C201 0.950 . S
H197 C202 0.949 . S
H198 C204 0.950 . S
H199 C205 0.950 . S
H200 C206 0.949 . S
C201 H196 0.950 . S
C201 C203 1.327 . S
C201 C207 1.429 . S
C202 C194 1.574 . S
C202 H197 0.949 . S
C202 C208 1.368 . S
C203 C187 1.349 . S
C203 H195 0.950 . S
C203 C201 1.327 . S
C204 C192 1.349 . S
C204 H198 0.950 . S
C204 C205 1.327 . S
C205 H199 0.950 . S
C205 C204 1.327 . S
C205 C209 1.429 . S
C206 C189 1.574 . S
C206 H200 0.949 . S
C206 C210 1.368 . S
C207 C188 1.429 . S
C207 C201 1.429 . S
C207 C208 1.523 . S
C208 C189 1.368 . S
C208 C202 1.368 . S
C208 C207 1.523 . S
C209 C193 1.429 . S
C209 C205 1.429 . S
C209 C210 1.523 . S
C210 C194 1.368 . S
C210 C206 1.368 . S
C210 C209 1.523 . S
H211 C186 0.950 . S
H212 C188 0.950 . S
H213 C189 0.949 . S
H214 C191 0.950 . S
H215 C193 0.950 . S
C216 C217 1.349 . S
C216 C218 1.327 . S
C216 H241 0.950 . S
C217 C216 1.349 . S
C217 C233 1.349 . S
C218 C216 1.327 . S
C218 C237 1.429 . S
C218 H242 0.950 . S
C219 C236 1.574 . S
C219 C238 1.368 . S
C219 H243 0.949 . S
H220 C224 0.949 . S
C221 C222 1.349 . S
C221 C223 1.327 . S
C221 H244 0.950 . S
C222 C221 1.349 . S
C222 C234 1.349 . S
C223 C221 1.327 . S
C223 C239 1.429 . S
C223 H245 0.950 . S
C224 H220 0.949 . S
C224 C232 1.574 . S
C224 C240 1.368 . S
H225 C233 0.950 . S
H226 C231 0.950 . S
H227 C232 0.949 . S
H228 C234 0.950 . S
H229 C235 0.950 . S
H230 C236 0.949 . S
C231 H226 0.950 . S
C231 C233 1.327 . S
C231 C237 1.429 . S
C232 C224 1.574 . S
C232 H227 0.949 . S
C232 C238 1.368 . S
C233 C217 1.349 . S
C233 H225 0.950 . S
C233 C231 1.327 . S
C234 C222 1.349 . S
C234 H228 0.950 . S
C234 C235 1.327 . S
C235 H229 0.950 . S
C235 C234 1.327 . S
C235 C239 1.429 . S
C236 C219 1.574 . S
C236 H230 0.949 . S
C236 C240 1.368 . S
C237 C218 1.429 . S
C237 C231 1.429 . S
C237 C238 1.523 . S
C238 C219 1.368 . S
C238 C232 1.368 . S
C238 C237 1.523 . S
C239 C223 1.429 . S
C239 C235 1.429 . S
C239 C240 1.523 . S
C240 C224 1.368 . S
C240 C236 1.368 . S
C240 C239 1.523 . S
H241 C216 0.950 . S
H242 C218 0.950 . S
H243 C219 0.949 . S
H244 C221 0.950 . S
H245 C223 0.950 . S
C246 C247 1.349 . S
C246 C248 1.327 . S
C246 H271 0.950 . S
C247 C246 1.349 . S
C247 C263 1.349 . S
C248 C246 1.327 . S
C248 C267 1.429 . S
C248 H272 0.950 . S
C249 C266 1.574 . S
C249 C268 1.368 . S
C249 H273 0.949 . S
H250 C254 0.949 . S
C251 C252 1.349 . S
C251 C253 1.327 . S
C251 H274 0.950 . S
C252 C251 1.349 . S
C252 C264 1.349 . S
C253 C251 1.327 . S
C253 C269 1.429 . S
C253 H275 0.950 . S
C254 H250 0.949 . S
C254 C262 1.574 . S
C254 C270 1.368 . S
H255 C263 0.950 . S
H256 C261 0.950 . S
H257 C262 0.949 . S
H258 C264 0.950 . S
H259 C265 0.950 . S
H260 C266 0.949 . S
C261 H256 0.950 . S
C261 C263 1.327 . S
C261 C267 1.429 . S
C262 C254 1.574 . S
C262 H257 0.949 . S
C262 C268 1.368 . S
C263 C247 1.349 . S
C263 H255 0.950 . S
C263 C261 1.327 . S
C264 C252 1.349 . S
C264 H258 0.950 . S
C264 C265 1.327 . S
C265 H259 0.950 . S
C265 C264 1.327 . S
C265 C269 1.429 . S
C266 C249 1.574 . S
C266 H260 0.949 . S
C266 C270 1.368 . S
C267 C248 1.429 . S
C267 C261 1.429 . S
C267 C268 1.523 . S
C268 C249 1.368 . S
C268 C262 1.368 . S
C268 C267 1.523 . S
C269 C253 1.429 . S
C269 C265 1.429 . S
C269 C270 1.523 . S
C270 C254 1.368 . S
C270 C266 1.368 . S
C270 C269 1.523 . S
H271 C246 0.950 . S
H272 C248 0.950 . S
H273 C249 0.949 . S
H274 C251 0.950 . S
H275 C253 0.950 . S
C276 C277 1.349 . S
C276 C278 1.327 . S
C276 H301 0.950 . S
C277 C276 1.349 . S
C277 C293 1.349 . S
C278 C276 1.327 . S
C278 C297 1.429 . S
C278 H302 0.950 . S
C279 C296 1.574 . S
C279 C298 1.368 . S
C279 H303 0.949 . S
H280 C284 0.949 . S
C281 C282 1.349 . S
C281 C283 1.327 . S
C281 H304 0.950 . S
C282 C281 1.349 . S
C282 C294 1.349 . S
C283 C281 1.327 . S
C283 C299 1.429 . S
C283 H305 0.950 . S
C284 H280 0.949 . S
C284 C292 1.574 . S
C284 C300 1.368 . S
H285 C293 0.950 . S
H286 C291 0.950 . S
H287 C292 0.949 . S
H288 C294 0.950 . S
H289 C295 0.950 . S
H290 C296 0.949 . S
C291 H286 0.950 . S
C291 C293 1.327 . S
C291 C297 1.429 . S
C292 C284 1.574 . S
C292 H287 0.949 . S
C292 C298 1.368 . S
C293 C277 1.349 . S
C293 H285 0.950 . S
C293 C291 1.327 . S
C294 C282 1.349 . S
C294 H288 0.950 . S
C294 C295 1.327 . S
C295 H289 0.950 . S
C295 C294 1.327 . S
C295 C299 1.429 . S
C296 C279 1.574 . S
C296 H290 0.949 . S
C296 C300 1.368 . S
C297 C278 1.429 . S
C297 C291 1.429 . S
C297 C298 1.523 . S
C298 C279 1.368 . S
C298 C292 1.368 . S
C298 C297 1.523 . S
C299 C283 1.429 . S
C299 C295 1.429 . S
C299 C300 1.523 . S
C300 C284 1.368 . S
C300 C296 1.368 . S
C300 C299 1.523 . S
H301 C276 0.950 . S
H302 C278 0.950 . S
H303 C279 0.949 . S
H304 C281 0.950 . S
H305 C283 0.950 . S
C306 C307 1.349 . S
C306 C308 1.327 . S
C306 H331 0.950 . S
C307 C306 1.349 . S
C307 C323 1.349 . S
C308 C306 1.327 . S
C308 C327 1.429 . S
C308 H332 0.950 . S
C309 C326 1.574 . S
C309 C328 1.368 . S
C309 H333 0.949 . S
H310 C314 0.949 . S
C311 C312 1.349 . S
C311 C313 1.327 . S
C311 H334 0.950 . S
C312 C311 1.349 . S
C312 C324 1.349 . S
C313 C311 1.327 . S
C313 C329 1.429 . S
C313 H335 0.950 . S
C314 H310 0.949 . S
C314 C322 1.574 . S
C314 C330 1.368 . S
H315 C323 0.950 . S
H316 C321 0.950 . S
H317 C322 0.949 . S
H318 C324 0.950 . S
H319 C325 0.950 . S
H320 C326 0.949 . S
C321 H316 0.950 . S
C321 C323 1.327 . S
C321 C327 1.429 . S
C322 C314 1.574 . S
C322 H317 0.949 . S
C322 C328 1.368 . S
C323 C307 1.349 . S
C323 H315 0.950 . S
C323 C321 1.327 . S
C324 C312 1.349 . S
C324 H318 0.950 . S
C324 C325 1.327 . S
C325 H319 0.950 . S
C325 C324 1.327 . S
C325 C329 1.429 . S
C326 C309 1.574 . S
C326 H320 0.949 . S
C326 C330 1.368 . S
C327 C308 1.429 . S
C327 C321 1.429 . S
C327 C328 1.523 . S
C328 C309 1.368 . S
C328 C322 1.368 . S
C328 C327 1.523 . S
C329 C313 1.429 . S
C329 C325 1.429 . S
C329 C330 1.523 . S
C330 C314 1.368 . S
C330 C326 1.368 . S
C330 C329 1.523 . S
H331 C306 0.950 . S
H332 C308 0.950 . S
H333 C309 0.949 . S
H334 C311 0.950 . S
H335 C313 0.950 . S
C336 C337 1.349 . S
C336 C338 1.327 . S
C336 H361 0.950 . S
C337 C336 1.349 . S
C337 C353 1.349 . S
C338 C336 1.327 . S
C338 C357 1.429 . S
C338 H362 0.950 . S
C339 C356 1.574 . S
C339 C358 1.368 . S
C339 H363 0.949 . S
H340 C344 0.949 . S
C341 C342 1.349 . S
C341 C343 1.327 . S
C341 H364 0.950 . S
C342 C341 1.349 . S
C342 C354 1.349 . S
C343 C341 1.327 . S
C343 C359 1.429 . S
C343 H365 0.950 . S
C344 H340 0.949 . S
C344 C352 1.574 . S
C344 C360 1.368 . S
H345 C353 0.950 . S
H346 C351 0.950 . S
H347 C352 0.949 . S
H348 C354 0.950 . S
H349 C355 0.950 . S
H350 C356 0.949 . S
C351 H346 0.950 . S
C351 C353 1.327 . S
C351 C357 1.429 . S
C352 C344 1.574 . S
C352 H347 0.949 . S
C352 C358 1.368 . S
C353 C337 1.349 . S
C353 H345 0.950 . S
C353 C351 1.327 . S
C354 C342 1.349 . S
C354 H348 0.950 . S
C354 C355 1.327 . S
C355 H349 0.950 . S
C355 C354 1.327 . S
C355 C359 1.429 . S
C356 C339 1.574 . S
C356 H350 0.949 . S
C356 C360 1.368 . S
C357 C338 1.429 . S
C357 C351 1.429 . S
C357 C358 1.523 . S
C358 C339 1.368 . S
C358 C352 1.368 . S
C358 C357 1.523 . S
C359 C343 1.429 . S
C359 C355 1.429 . S
C359 C360 1.523 . S
C360 C344 1.368 . S
C360 C356 1.368 . S
C360 C359 1.523 . S
H361 C336 0.950 . S
H362 C338 0.950 . S
H363 C339 0.949 . S
H364 C341 0.950 . S
H365 C343 0.950 . S
C366 C367 1.349 . S
C366 C368 1.327 . S
C366 H391 0.950 . S
C367 C366 1.349 . S
C367 C383 1.349 . S
C368 C366 1.327 . S
C368 C387 1.429 . S
C368 H392 0.950 . S
C369 C386 1.574 . S
C369 C388 1.368 . S
C369 H393 0.949 . S
H370 C374 0.949 . S
C371 C372 1.349 . S
C371 C373 1.327 . S
C371 H394 0.950 . S
C372 C371 1.349 . S
C372 C384 1.349 . S
C373 C371 1.327 . S
C373 C389 1.429 . S
C373 H395 0.950 . S
C374 H370 0.949 . S
C374 C382 1.574 . S
C374 C390 1.368 . S
H375 C383 0.950 . S
H376 C381 0.950 . S
H377 C382 0.949 . S
H378 C384 0.950 . S
H379 C385 0.950 . S
H380 C386 0.949 . S
C381 H376 0.950 . S
C381 C383 1.327 . S
C381 C387 1.429 . S
C382 C374 1.574 . S
C382 H377 0.949 . S
C382 C388 1.368 . S
C383 C367 1.349 . S
C383 H375 0.950 . S
C383 C381 1.327 . S
C384 C372 1.349 . S
C384 H378 0.950 . S
C384 C385 1.327 . S
C385 H379 0.950 . S
C385 C384 1.327 . S
C385 C389 1.429 . S
C386 C369 1.574 . S
C386 H380 0.949 . S
C386 C390 1.368 . S
C387 C368 1.429 . S
C387 C381 1.429 . S
C387 C388 1.523 . S
C388 C369 1.368 . S
C388 C382 1.368 . S
C388 C387 1.523 . S
C389 C373 1.429 . S
C389 C385 1.429 . S
C389 C390 1.523 . S
C390 C374 1.368 . S
C390 C386 1.368 . S
C390 C389 1.523 . S
H391 C366 0.950 . S
H392 C368 0.950 . S
H393 C369 0.949 . S
H394 C371 0.950 . S
H395 C373 0.950 . S
C396 C397 1.349 . S
C396 C398 1.327 . S
C396 H421 0.950 . S
C397 C396 1.349 . S
C397 C413 1.349 . S
C398 C396 1.327 . S
C398 C417 1.429 . S
C398 H422 0.950 . S
C399 C416 1.574 . S
C399 C418 1.368 . S
C399 H423 0.949 . S
H400 C404 0.949 . S
C401 C402 1.349 . S
C401 C403 1.327 . S
C401 H424 0.950 . S
C402 C401 1.349 . S
C402 C414 1.349 . S
C403 C401 1.327 . S
C403 C419 1.429 . S
C403 H425 0.950 . S
C404 H400 0.949 . S
C404 C412 1.574 . S
C404 C420 1.368 . S
H405 C413 0.950 . S
H406 C411 0.950 . S
H407 C412 0.949 . S
H408 C414 0.950 . S
H409 C415 0.950 . S
H410 C416 0.949 . S
C411 H406 0.950 . S
C411 C413 1.327 . S
C411 C417 1.429 . S
C412 C404 1.574 . S
C412 H407 0.949 . S
C412 C418 1.368 . S
C413 C397 1.349 . S
C413 H405 0.950 . S
C413 C411 1.327 . S
C414 C402 1.349 . S
C414 H408 0.950 . S
C414 C415 1.327 . S
C415 H409 0.950 . S
C415 C414 1.327 . S
C415 C419 1.429 . S
C416 C399 1.574 . S
C416 H410 0.949 . S
C416 C420 1.368 . S
C417 C398 1.429 . S
C417 C411 1.429 . S
C417 C418 1.523 . S
C418 C399 1.368 . S
C418 C412 1.368 . S
C418 C417 1.523 . S
C419 C403 1.429 . S
C419 C415 1.429 . S
C419 C420 1.523 . S
C420 C404 1.368 . S
C420 C416 1.368 . S
C420 C419 1.523 . S
H421 C396 0.950 . S
H422 C398 0.950 . S
H423 C399 0.949 . S
H424 C401 0.950 . S
H425 C403 0.950 . S
C426 C427 1.349 . S
C426 C428 1.327 . S
C426 H451 0.950 . S
C427 C426 1.349 . S
C427 C443 1.349 . S
C428 C426 1.327 . S
C428 C447 1.429 . S
C428 H452 0.950 . S
C429 C446 1.574 . S
C429 C448 1.368 . S
C429 H453 0.949 . S
H430 C434 0.949 . S
C431 C432 1.349 . S
C431 C433 1.327 . S
C431 H454 0.950 . S
C432 C431 1.349 . S
C432 C444 1.349 . S
C433 C431 1.327 . S
C433 C449 1.429 . S
C433 H455 0.950 . S
C434 H430 0.949 . S
C434 C442 1.574 . S
C434 C450 1.368 . S
H435 C443 0.950 . S
H436 C441 0.950 . S
H437 C442 0.949 . S
H438 C444 0.950 . S
H439 C445 0.950 . S
H440 C446 0.949 . S
C441 H436 0.950 . S
C441 C443 1.327 . S
C441 C447 1.429 . S
C442 C434 1.574 . S
C442 H437 0.949 . S
C442 C448 1.368 . S
C443 C427 1.349 . S
C443 H435 0.950 . S
C443 C441 1.327 . S
C444 C432 1.349 . S
C444 H438 0.950 . S
C444 C445 1.327 . S
C445 H439 0.950 . S
C445 C444 1.327 . S
C445 C449 1.429 . S
C446 C429 1.574 . S
C446 H440 0.949 . S
C446 C450 1.368 . S
C447 C428 1.429 . S
C447 C441 1.429 . S
C447 C448 1.523 . S
C448 C429 1.368 . S
C448 C442 1.368 . S
C448 C447 1.523 . S
C449 C433 1.429 . S
C449 C445 1.429 . S
C449 C450 1.523 . S
C450 C434 1.368 . S
C450 C446 1.368 . S
C450 C449 1.523 . S
H451 C426 0.950 . S
H452 C428 0.950 . S
H453 C429 0.949 . S
H454 C431 0.950 . S
H455 C433 0.950 . S
C456 C457 1.349 . S
C456 C458 1.327 . S
C456 H481 0.950 . S
C457 C456 1.349 . S
C457 C473 1.349 . S
C458 C456 1.327 . S
C458 C477 1.429 . S
C458 H482 0.950 . S
C459 C476 1.574 . S
C459 C478 1.368 . S
C459 H483 0.949 . S
H460 C464 0.949 . S
C461 C462 1.349 . S
C461 C463 1.327 . S
C461 H484 0.950 . S
C462 C461 1.349 . S
C462 C474 1.349 . S
C463 C461 1.327 . S
C463 C479 1.429 . S
C463 H485 0.950 . S
C464 H460 0.949 . S
C464 C472 1.574 . S
C464 C480 1.368 . S
H465 C473 0.950 . S
H466 C471 0.950 . S
H467 C472 0.949 . S
H468 C474 0.950 . S
H469 C475 0.950 . S
H470 C476 0.949 . S
C471 H466 0.950 . S
C471 C473 1.327 . S
C471 C477 1.429 . S
C472 C464 1.574 . S
C472 H467 0.949 . S
C472 C478 1.368 . S
C473 C457 1.349 . S
C473 H465 0.950 . S
C473 C471 1.327 . S
C474 C462 1.349 . S
C474 H468 0.950 . S
C474 C475 1.327 . S
C475 H469 0.950 . S
C475 C474 1.327 . S
C475 C479 1.429 . S
C476 C459 1.574 . S
C476 H470 0.949 . S
C476 C480 1.368 . S
C477 C458 1.429 . S
C477 C471 1.429 . S
C477 C478 1.523 . S
C478 C459 1.368 . S
C478 C472 1.368 . S
C478 C477 1.523 . S
C479 C463 1.429 . S
C479 C475 1.429 . S
C479 C480 1.523 . S
C480 C464 1.368 . S
C480 C476 1.368 . S
C480 C479 1.523 . S
H481 C456 0.950 . S
H482 C458 0.950 . S
H483 C459 0.949 . S
H484 C461 0.950 . S
H485 C463 0.950 . S
C486 C487 1.349 . S
C486 C488 1.327 . S
C486 H511 0.950 . S
C487 C486 1.349 . S
C487 C503 1.349 . S
C488 C486 1.327 . S
C488 C507 1.429 . S
C488 H512 0.950 . S
C489 C506 1.574 . S
C489 C508 1.368 . S
C489 H513 0.949 . S
H490 C494 0.949 . S
C491 C492 1.349 . S
C491 C493 1.327 . S
C491 H514 0.950 . S
C492 C491 1.349 . S
C492 C504 1.349 . S
C493 C491 1.327 . S
C493 C509 1.429 . S
C493 H515 0.950 . S
C494 H490 0.949 . S
C494 C502 1.574 . S
C494 C510 1.368 . S
H495 C503 0.950 . S
H496 C501 0.950 . S
H497 C502 0.949 . S
H498 C504 0.950 . S
H499 C505 0.950 . S
H500 C506 0.949 . S
C501 H496 0.950 . S
C501 C503 1.327 . S
C501 C507 1.429 . S
C502 C494 1.574 . S
C502 H497 0.949 . S
C502 C508 1.368 . S
C503 C487 1.349 . S
C503 H495 0.950 . S
C503 C501 1.327 . S
C504 C492 1.349 . S
C504 H498 0.950 . S
C504 C505 1.327 . S
C505 H499 0.950 . S
C505 C504 1.327 . S
C505 C509 1.429 . S
C506 C489 1.574 . S
C506 H500 0.949 . S
C506 C510 1.368 . S
C507 C488 1.429 . S
C507 C501 1.429 . S
C507 C508 1.523 . S
C508 C489 1.368 . S
C508 C502 1.368 . S
C508 C507 1.523 . S
C509 C493 1.429 . S
C509 C505 1.429 . S
C509 C510 1.523 . S
C510 C494 1.368 . S
C510 C506 1.368 . S
C510 C509 1.523 . S
H511 C486 0.950 . S
H512 C488 0.950 . S
H513 C489 0.949 . S
H514 C491 0.950 . S
H515 C493 0.950 . S
C516 C517 1.349 . S
C516 C518 1.327 . S
C516 H541 0.950 . S
C517 C516 1.349 . S
C517 C533 1.349 . S
C518 C516 1.327 . S
C518 C537 1.429 . S
C518 H542 0.950 . S
C519 C536 1.574 . S
C519 C538 1.368 . S
C519 H543 0.949 . S
H520 C524 0.949 . S
C521 C522 1.349 . S
C521 C523 1.327 . S
C521 H544 0.950 . S
C522 C521 1.349 . S
C522 C534 1.349 . S
C523 C521 1.327 . S
C523 C539 1.429 . S
C523 H545 0.950 . S
C524 H520 0.949 . S
C524 C532 1.574 . S
C524 C540 1.368 . S
H525 C533 0.950 . S
H526 C531 0.950 . S
H527 C532 0.949 . S
H528 C534 0.950 . S
H529 C535 0.950 . S
H530 C536 0.949 . S
C531 H526 0.950 . S
C531 C533 1.327 . S
C531 C537 1.429 . S
C532 C524 1.574 . S
C532 H527 0.949 . S
C532 C538 1.368 . S
C533 C517 1.349 . S
C533 H525 0.950 . S
C533 C531 1.327 . S
C534 C522 1.349 . S
C534 H528 0.950 . S
C534 C535 1.327 . S
C535 H529 0.950 . S
C535 C534 1.327 . S
C535 C539 1.429 . S
C536 C519 1.574 . S
C536 H530 0.949 . S
C536 C540 1.368 . S
C537 C518 1.429 . S
C537 C531 1.429 . S
C537 C538 1.523 . S
C538 C519 1.368 . S
C538 C532 1.368 . S
C538 C537 1.523 . S
C539 C523 1.429 . S
C539 C535 1.429 . S
C539 C540 1.523 . S
C540 C524 1.368 . S
C540 C536 1.368 . S
C540 C539 1.523 . S
H541 C516 0.950 . S
H542 C518 0.950 . S
H543 C519 0.949 . S
H544 C521 0.950 . S
H545 C523 0.950 . S
C546 C547 1.349 . S
C546 C548 1.327 . S
C546 H571 0.950 . S
C547 C546 1.349 . S
C547 C563 1.349 . S
C548 C546 1.327 . S
C548 C567 1.429 . S
C548 H572 0.950 . S
C549 C566 1.574 . S
C549 C568 1.368 . S
C549 H573 0.949 . S
H550 C554 0.949 . S
C551 C552 1.349 . S
C551 C553 1.327 . S
C551 H574 0.950 . S
C552 C551 1.349 . S
C552 C564 1.349 . S
C553 C551 1.327 . S
C553 C569 1.429 . S
C553 H575 0.950 . S
C554 H550 0.949 . S
C554 C562 1.574 . S
C554 C570 1.368 . S
H555 C563 0.950 . S
H556 C561 0.950 . S
H557 C562 0.949 . S
H558 C564 0.950 . S
H559 C565 0.950 . S
H560 C566 0.949 . S
C561 H556 0.950 . S
C561 C563 1.327 . S
C561 C567 1.429 . S
C562 C554 1.574 . S
C562 H557 0.949 . S
C562 C568 1.368 . S
C563 C547 1.349 . S
C563 H555 0.950 . S
C563 C561 1.327 . S
C564 C552 1.349 . S
C564 H558 0.950 . S
C564 C565 1.327 . S
C565 H559 0.950 . S
C565 C564 1.327 . S
C565 C569 1.429 . S
C566 C549 1.574 . S
C566 H560 0.949 . S
C566 C570 1.368 . S
C567 C548 1.429 . S
C567 C561 1.429 . S
C567 C568 1.523 . S
C568 C549 1.368 . S
C568 C562 1.368 . S
C568 C567 1.523 . S
C569 C553 1.429 . S
C569 C565 1.429 . S
C569 C570 1.523 . S
C570 C554 1.368 . S
C570 C566 1.368 . S
C570 C569 1.523 . S
H571 C546 0.950 . S
H572 C548 0.950 . S
H573 C549 0.949 . S
H574 C551 0.950 . S
H575 C553 0.950 . S
C576 C577 1.349 . S
C576 C578 1.327 . S
C576 H601 0.950 1_565 S
C577 C576 1.349 . S
C577 C593 1.349 . S
C578 C576 1.327 . S
C578 C597 1.429 . S
C578 H602 0.950 . S
C579 C596 1.574 . S
C579 C598 1.368 . S
C579 H603 0.949 . S
H580 C584 0.949 . S
C581 C582 1.349 . S
C581 C583 1.327 . S
C581 H604 0.950 . S
C582 C581 1.349 . S
C582 C594 1.349 . S
C583 C581 1.327 . S
C583 C599 1.429 . S
C583 H605 0.950 . S
C584 H580 0.949 . S
C584 C592 1.574 . S
C584 C600 1.368 . S
H585 C593 0.950 . S
H586 C591 0.950 . S
H587 C592 0.949 . S
H588 C594 0.950 . S
H589 C595 0.950 . S
H590 C596 0.949 . S
C591 H586 0.950 . S
C591 C593 1.327 . S
C591 C597 1.429 . S
C592 C584 1.574 . S
C592 H587 0.949 . S
C592 C598 1.368 . S
C593 C577 1.349 . S
C593 H585 0.950 . S
C593 C591 1.327 . S
C594 C582 1.349 . S
C594 H588 0.950 . S
C594 C595 1.327 . S
C595 H589 0.950 . S
C595 C594 1.327 . S
C595 C599 1.429 . S
C596 C579 1.574 . S
C596 H590 0.949 . S
C596 C600 1.368 . S
C597 C578 1.429 . S
C597 C591 1.429 . S
C597 C598 1.523 . S
C598 C579 1.368 . S
C598 C592 1.368 . S
C598 C597 1.523 . S
C599 C583 1.429 . S
C599 C595 1.429 . S
C599 C600 1.523 . S
C600 C584 1.368 . S
C600 C596 1.368 . S
C600 C599 1.523 . S
H601 C576 0.950 1_545 S
H602 C578 0.950 . S
H603 C579 0.949 . S
H604 C581 0.950 . S
H605 C583 0.950 . S
C606 C607 1.349 . S
C606 C608 1.327 . S
C606 H631 0.950 . S
C607 C606 1.349 . S
C607 C623 1.349 . S
C608 C606 1.327 . S
C608 C627 1.429 . S
C608 H632 0.950 . S
C609 C626 1.574 . S
C609 C628 1.368 . S
C609 H633 0.949 . S
H610 C614 0.949 . S
C611 C612 1.349 . S
C611 C613 1.327 . S
C611 H634 0.950 . S
C612 C611 1.349 . S
C612 C624 1.349 . S
C613 C611 1.327 . S
C613 C629 1.429 . S
C613 H635 0.950 . S
C614 H610 0.949 . S
C614 C622 1.574 . S
C614 C630 1.368 . S
H615 C623 0.950 . S
H616 C621 0.950 . S
H617 C622 0.949 . S
H618 C624 0.950 . S
H619 C625 0.950 . S
H620 C626 0.949 . S
C621 H616 0.950 . S
C621 C623 1.327 . S
C621 C627 1.429 . S
C622 C614 1.574 . S
C622 H617 0.949 . S
C622 C628 1.368 . S
C623 C607 1.349 . S
C623 H615 0.950 . S
C623 C621 1.327 . S
C624 C612 1.349 . S
C624 H618 0.950 . S
C624 C625 1.327 . S
C625 H619 0.950 . S
C625 C624 1.327 . S
C625 C629 1.429 . S
C626 C609 1.574 . S
C626 H620 0.949 . S
C626 C630 1.368 . S
C627 C608 1.429 . S
C627 C621 1.429 . S
C627 C628 1.523 . S
C628 C609 1.368 . S
C628 C622 1.368 . S
C628 C627 1.523 . S
C629 C613 1.429 . S
C629 C625 1.429 . S
C629 C630 1.523 . S
C630 C614 1.368 . S
C630 C626 1.368 . S
C630 C629 1.523 . S
H631 C606 0.950 . S
H632 C608 0.950 . S
H633 C609 0.949 . S
H634 C611 0.950 . S
H635 C613 0.950 . S
C636 C637 1.349 . S
C636 C638 1.327 . S
C636 H661 0.950 . S
C637 C636 1.349 . S
C637 C653 1.349 . S
C638 C636 1.327 . S
C638 C657 1.429 . S
C638 H662 0.950 . S
C639 C656 1.574 . S
C639 C658 1.368 . S
C639 H663 0.949 . S
H640 C644 0.949 . S
C641 C642 1.349 . S
C641 C643 1.327 . S
C641 H664 0.950 . S
C642 C641 1.349 . S
C642 C654 1.349 . S
C643 C641 1.327 . S
C643 C659 1.429 . S
C643 H665 0.950 . S
C644 H640 0.949 . S
C644 C652 1.574 . S
C644 C660 1.368 . S
H645 C653 0.950 . S
H646 C651 0.950 . S
H647 C652 0.949 . S
H648 C654 0.950 . S
H649 C655 0.950 . S
H650 C656 0.949 . S
C651 H646 0.950 . S
C651 C653 1.327 . S
C651 C657 1.429 . S
C652 C644 1.574 . S
C652 H647 0.949 . S
C652 C658 1.368 . S
C653 C637 1.349 . S
C653 H645 0.950 . S
C653 C651 1.327 . S
C654 C642 1.349 . S
C654 H648 0.950 . S
C654 C655 1.327 . S
C655 H649 0.950 . S
C655 C654 1.327 . S
C655 C659 1.429 . S
C656 C639 1.574 . S
C656 H650 0.949 . S
C656 C660 1.368 . S
C657 C638 1.429 . S
C657 C651 1.429 . S
C657 C658 1.523 . S
C658 C639 1.368 . S
C658 C652 1.368 . S
C658 C657 1.523 . S
C659 C643 1.429 . S
C659 C655 1.429 . S
C659 C660 1.523 . S
C660 C644 1.368 . S
C660 C656 1.368 . S
C660 C659 1.523 . S
H661 C636 0.950 . S
H662 C638 0.950 . S
H663 C639 0.949 . S
H664 C641 0.950 . S
H665 C643 0.950 . S
C666 C667 1.349 . S
C666 C668 1.327 . S
C666 H691 0.950 . S
C667 C666 1.349 . S
C667 C683 1.349 . S
C668 C666 1.327 . S
C668 C687 1.429 . S
C668 H692 0.950 . S
C669 C686 1.574 . S
C669 C688 1.368 . S
C669 H693 0.949 . S
H670 C674 0.949 . S
C671 C672 1.349 . S
C671 C673 1.327 . S
C671 H694 0.950 . S
C672 C671 1.349 . S
C672 C684 1.349 . S
C673 C671 1.327 . S
C673 C689 1.429 . S
C673 H695 0.950 . S
C674 H670 0.949 . S
C674 C682 1.574 . S
C674 C690 1.368 . S
H675 C683 0.950 . S
H676 C681 0.950 . S
H677 C682 0.949 . S
H678 C684 0.950 1_565 S
H679 C685 0.950 . S
H680 C686 0.949 . S
C681 H676 0.950 . S
C681 C683 1.327 . S
C681 C687 1.429 . S
C682 C674 1.574 . S
C682 H677 0.949 . S
C682 C688 1.368 . S
C683 C667 1.349 . S
C683 H675 0.950 . S
C683 C681 1.327 . S
C684 C672 1.349 . S
C684 H678 0.950 1_545 S
C684 C685 1.327 . S
C685 H679 0.950 . S
C685 C684 1.327 . S
C685 C689 1.429 . S
C686 C669 1.574 . S
C686 H680 0.949 . S
C686 C690 1.368 . S
C687 C668 1.429 . S
C687 C681 1.429 . S
C687 C688 1.523 . S
C688 C669 1.368 . S
C688 C682 1.368 . S
C688 C687 1.523 . S
C689 C673 1.429 . S
C689 C685 1.429 . S
C689 C690 1.523 . S
C690 C674 1.368 . S
C690 C686 1.368 . S
C690 C689 1.523 . S
H691 C666 0.950 . S
H692 C668 0.950 . S
H693 C669 0.949 . S
H694 C671 0.950 . S
H695 C673 0.950 . S
C696 C697 1.349 . S
C696 C698 1.327 . S
C696 H721 0.950 . S
C697 C696 1.349 . S
C697 C713 1.349 . S
C698 C696 1.327 . S
C698 C717 1.429 . S
C698 H722 0.950 . S
C699 C716 1.574 . S
C699 C718 1.368 . S
C699 H723 0.949 . S
H700 C704 0.949 . S
C701 C702 1.349 . S
C701 C703 1.327 . S
C701 H724 0.950 . S
C702 C701 1.349 . S
C702 C714 1.349 . S
C703 C701 1.327 . S
C703 C719 1.429 . S
C703 H725 0.950 . S
C704 H700 0.949 . S
C704 C712 1.574 . S
C704 C720 1.368 . S
H705 C713 0.950 . S
H706 C711 0.950 . S
H707 C712 0.949 . S
H708 C714 0.950 . S
H709 C715 0.950 . S
H710 C716 0.949 . S
C711 H706 0.950 . S
C711 C713 1.327 . S
C711 C717 1.429 . S
C712 C704 1.574 . S
C712 H707 0.949 . S
C712 C718 1.368 . S
C713 C697 1.349 . S
C713 H705 0.950 . S
C713 C711 1.327 . S
C714 C702 1.349 . S
C714 H708 0.950 . S
C714 C715 1.327 . S
C715 H709 0.950 . S
C715 C714 1.327 . S
C715 C719 1.429 . S
C716 C699 1.574 . S
C716 H710 0.949 . S
C716 C720 1.368 . S
C717 C698 1.429 . S
C717 C711 1.429 . S
C717 C718 1.523 . S
C718 C699 1.368 . S
C718 C712 1.368 . S
C718 C717 1.523 . S
C719 C703 1.429 . S
C719 C715 1.429 . S
C719 C720 1.523 . S
C720 C704 1.368 . S
C720 C716 1.368 . S
C720 C719 1.523 . S
H721 C696 0.950 . S
H722 C698 0.950 . S
H723 C699 0.949 . S
H724 C701 0.950 . S
H725 C703 0.950 . S
C726 C727 1.349 . S
C726 C728 1.327 . S
C726 H751 0.950 . S
C727 C726 1.349 . S
C727 C743 1.349 . S
C728 C726 1.327 . S
C728 C747 1.429 . S
C728 H752 0.950 . S
C729 C746 1.574 . S
C729 C748 1.368 . S
C729 H753 0.949 . S
H730 C734 0.949 . S
C731 C732 1.349 . S
C731 C733 1.327 . S
C731 H754 0.950 . S
C732 C731 1.349 . S
C732 C744 1.349 . S
C733 C731 1.327 . S
C733 C749 1.429 . S
C733 H755 0.950 . S
C734 H730 0.949 . S
C734 C742 1.574 . S
C734 C750 1.368 . S
H735 C743 0.950 . S
H736 C741 0.950 . S
H737 C742 0.949 . S
H738 C744 0.950 . S
H739 C745 0.950 . S
H740 C746 0.949 . S
C741 H736 0.950 . S
C741 C743 1.327 . S
C741 C747 1.429 . S
C742 C734 1.574 . S
C742 H737 0.949 . S
C742 C748 1.368 . S
C743 C727 1.349 . S
C743 H735 0.950 . S
C743 C741 1.327 . S
C744 C732 1.349 . S
C744 H738 0.950 . S
C744 C745 1.327 . S
C745 H739 0.950 . S
C745 C744 1.327 . S
C745 C749 1.429 . S
C746 C729 1.574 . S
C746 H740 0.949 . S
C746 C750 1.368 . S
C747 C728 1.429 . S
C747 C741 1.429 . S
C747 C748 1.523 . S
C748 C729 1.368 . S
C748 C742 1.368 . S
C748 C747 1.523 . S
C749 C733 1.429 . S
C749 C745 1.429 . S
C749 C750 1.523 . S
C750 C734 1.368 . S
C750 C746 1.368 . S
C750 C749 1.523 . S
H751 C726 0.950 . S
H752 C728 0.950 . S
H753 C729 0.949 . S
H754 C731 0.950 . S
H755 C733 0.950 . S
C756 C757 1.349 . S
C756 C758 1.327 . S
C756 H781 0.950 . S
C757 C756 1.349 . S
C757 C773 1.349 . S
C758 C756 1.327 . S
C758 C777 1.429 . S
C758 H782 0.950 . S
C759 C776 1.574 . S
C759 C778 1.368 . S
C759 H783 0.949 . S
H760 C764 0.949 . S
C761 C762 1.349 . S
C761 C763 1.327 . S
C761 H784 0.950 . S
C762 C761 1.349 . S
C762 C774 1.349 . S
C763 C761 1.327 . S
C763 C779 1.429 . S
C763 H785 0.950 . S
C764 H760 0.949 . S
C764 C772 1.574 . S
C764 C780 1.368 . S
H765 C773 0.950 . S
H766 C771 0.950 . S
H767 C772 0.949 . S
H768 C774 0.950 . S
H769 C775 0.950 . S
H770 C776 0.949 . S
C771 H766 0.950 . S
C771 C773 1.327 . S
C771 C777 1.429 . S
C772 C764 1.574 . S
C772 H767 0.949 . S
C772 C778 1.368 . S
C773 C757 1.349 . S
C773 H765 0.950 . S
C773 C771 1.327 . S
C774 C762 1.349 . S
C774 H768 0.950 . S
C774 C775 1.327 . S
C775 H769 0.950 . S
C775 C774 1.327 . S
C775 C779 1.429 . S
C776 C759 1.574 . S
C776 H770 0.949 . S
C776 C780 1.368 . S
C777 C758 1.429 . S
C777 C771 1.429 . S
C777 C778 1.523 . S
C778 C759 1.368 . S
C778 C772 1.368 . S
C778 C777 1.523 . S
C779 C763 1.429 . S
C779 C775 1.429 . S
C779 C780 1.523 . S
C780 C764 1.368 . S
C780 C776 1.368 . S
C780 C779 1.523 . S
H781 C756 0.950 . S
H782 C758 0.950 . S
H783 C759 0.949 . S
H784 C761 0.950 . S
H785 C763 0.950 . S
C786 C787 1.349 . S
C786 C788 1.327 . S
C786 H811 0.950 . S
C787 C786 1.349 . S
C787 C803 1.349 . S
C788 C786 1.327 . S
C788 C807 1.429 . S
C788 H812 0.950 . S
C789 C806 1.574 . S
C789 C808 1.368 . S
C789 H813 0.949 . S
H790 C794 0.949 . S
C791 C792 1.349 . S
C791 C793 1.327 . S
C791 H814 0.950 . S
C792 C791 1.349 . S
C792 C804 1.349 . S
C793 C791 1.327 . S
C793 C809 1.429 . S
C793 H815 0.950 . S
C794 H790 0.949 . S
C794 C802 1.574 . S
C794 C810 1.368 . S
H795 C803 0.950 . S
H796 C801 0.950 . S
H797 C802 0.949 . S
H798 C804 0.950 . S
H799 C805 0.950 . S
H800 C806 0.949 . S
C801 H796 0.950 . S
C801 C803 1.327 . S
C801 C807 1.429 . S
C802 C794 1.574 . S
C802 H797 0.949 . S
C802 C808 1.368 . S
C803 C787 1.349 . S
C803 H795 0.950 . S
C803 C801 1.327 . S
C804 C792 1.349 . S
C804 H798 0.950 . S
C804 C805 1.327 . S
C805 H799 0.950 . S
C805 C804 1.327 . S
C805 C809 1.429 . S
C806 C789 1.574 . S
C806 H800 0.949 . S
C806 C810 1.368 . S
C807 C788 1.429 . S
C807 C801 1.429 . S
C807 C808 1.523 . S
C808 C789 1.368 . S
C808 C802 1.368 . S
C808 C807 1.523 . S
C809 C793 1.429 . S
C809 C805 1.429 . S
C809 C810 1.523 . S
C810 C794 1.368 . S
C810 C806 1.368 . S
C810 C809 1.523 . S
H811 C786 0.950 . S
H812 C788 0.950 . S
H813 C789 0.949 . S
H814 C791 0.950 . S
H815 C793 0.950 . S
C816 C817 1.349 . S
C816 C818 1.327 . S
C816 H841 0.950 . S
C817 C816 1.349 . S
C817 C833 1.349 . S
C818 C816 1.327 . S
C818 C837 1.429 . S
C818 H842 0.950 . S
C819 C836 1.574 . S
C819 C838 1.368 . S
C819 H843 0.949 . S
H820 C824 0.949 . S
C821 C822 1.349 . S
C821 C823 1.327 . S
C821 H844 0.950 . S
C822 C821 1.349 . S
C822 C834 1.349 . S
C823 C821 1.327 . S
C823 C839 1.429 . S
C823 H845 0.950 . S
C824 H820 0.949 . S
C824 C832 1.574 . S
C824 C840 1.368 . S
H825 C833 0.950 . S
H826 C831 0.950 . S
H827 C832 0.949 . S
H828 C834 0.950 . S
H829 C835 0.950 . S
H830 C836 0.949 . S
C831 H826 0.950 . S
C831 C833 1.327 . S
C831 C837 1.429 . S
C832 C824 1.574 . S
C832 H827 0.949 . S
C832 C838 1.368 . S
C833 C817 1.349 . S
C833 H825 0.950 . S
C833 C831 1.327 . S
C834 C822 1.349 . S
C834 H828 0.950 . S
C834 C835 1.327 . S
C835 H829 0.950 . S
C835 C834 1.327 . S
C835 C839 1.429 . S
C836 C819 1.574 . S
C836 H830 0.949 . S
C836 C840 1.368 . S
C837 C818 1.429 . S
C837 C831 1.429 . S
C837 C838 1.523 . S
C838 C819 1.368 . S
C838 C832 1.368 . S
C838 C837 1.523 . S
C839 C823 1.429 . S
C839 C835 1.429 . S
C839 C840 1.523 . S
C840 C824 1.368 . S
C840 C836 1.368 . S
C840 C839 1.523 . S
H841 C816 0.950 . S
H842 C818 0.950 . S
H843 C819 0.949 . S
H844 C821 0.950 . S
H845 C823 0.950 . S
C846 C847 1.349 . S
C846 C848 1.327 . S
C846 H871 0.950 . S
C847 C846 1.349 . S
C847 C863 1.349 . S
C848 C846 1.327 . S
C848 C867 1.429 . S
C848 H872 0.950 . S
C849 C866 1.574 . S
C849 C868 1.368 . S
C849 H873 0.949 . S
H850 C854 0.949 . S
C851 C852 1.349 . S
C851 C853 1.327 . S
C851 H874 0.950 . S
C852 C851 1.349 . S
C852 C864 1.349 . S
C853 C851 1.327 . S
C853 C869 1.429 . S
C853 H875 0.950 . S
C854 H850 0.949 . S
C854 C862 1.574 . S
C854 C870 1.368 . S
H855 C863 0.950 . S
H856 C861 0.950 . S
H857 C862 0.949 . S
H858 C864 0.950 . S
H859 C865 0.950 . S
H860 C866 0.949 . S
C861 H856 0.950 . S
C861 C863 1.327 . S
C861 C867 1.429 . S
C862 C854 1.574 . S
C862 H857 0.949 . S
C862 C868 1.368 . S
C863 C847 1.349 . S
C863 H855 0.950 . S
C863 C861 1.327 . S
C864 C852 1.349 . S
C864 H858 0.950 . S
C864 C865 1.327 . S
C865 H859 0.950 . S
C865 C864 1.327 . S
C865 C869 1.429 . S
C866 C849 1.574 . S
C866 H860 0.949 . S
C866 C870 1.368 . S
C867 C848 1.429 . S
C867 C861 1.429 . S
C867 C868 1.523 . S
C868 C849 1.368 . S
C868 C862 1.368 . S
C868 C867 1.523 . S
C869 C853 1.429 . S
C869 C865 1.429 . S
C869 C870 1.523 . S
C870 C854 1.368 . S
C870 C866 1.368 . S
C870 C869 1.523 . S
H871 C846 0.950 . S
H872 C848 0.950 . S
H873 C849 0.949 . S
H874 C851 0.950 . S
H875 C853 0.950 . S
C157 C108 1.281 . S
C162 C4 1.281 . S
C187 C23 1.281 . S
C192 C127 1.281 . S
C217 C36 1.281 . S
C222 C134 1.281 . S
C247 C49 1.281 . S
C252 C153 1.281 . S
C277 C82 1.281 . S
C282 C56 1.281 . S
C307 C75 1.281 . S
C312 C95 1.281 . S
C337 C10 1.531 . S
C342 C70 1.516 1_554 S
C367 C17 1.531 . S
C372 C3 1.517 1_655 S
C397 C30 1.531 . S
C402 C18 1.516 1_565 S
C427 C31 1.516 . S
C432 C43 1.531 . S
C457 C44 1.517 1_455 S
C462 C62 1.531 . S
C487 C55 1.516 1_545 S
C492 C69 1.531 . S
C517 C94 1.516 . S
C522 C88 1.531 . S
C547 C101 1.531 . S
C552 C107 1.516 1_656 S
C577 C122 1.517 1_565 S
C582 C114 1.531 . S
C607 C121 1.531 . S
C612 C133 1.516 . S
C637 C140 1.531 . S
C642 C148 1.516 1_455 S
C667 C147 1.531 . S
C672 C81 1.517 1_545 S
C697 C135 1.240 . S
C702 C5 1.240 . S
C727 C146 1.240 . S
C732 C16 1.240 . S
C757 C83 1.240 . S
C762 C29 1.240 . S
C787 C42 1.240 . S
C792 C96 1.240 . S
C817 C57 1.240 . S
C822 C109 1.240 . S
C847 C120 1.240 . S
C852 C68 1.240 . S
