# Generated by pormake.
# Topology wjg, (4)-cn, num edge types: 1
# Building blocks:
#     Node 0, Type 0, BuildingBlock: QUQFOY_clean_sbu_1, # of connection points: 4
#     Node 1, Type 0, BuildingBlock: QUQFOY_clean_sbu_1, # of connection points: 4
#     Node 2, Type 0, BuildingBlock: QUQFOY_clean_sbu_1, # of connection points: 4
#     Node 3, Type 0, BuildingBlock: QUQFOY_clean_sbu_1, # of connection points: 4
#     Node 4, Type 0, BuildingBlock: QUQFOY_clean_sbu_1, # of connection points: 4
#     Node 5, Type 0, BuildingBlock: QUQFOY_clean_sbu_1, # of connection points: 4
#     Node 6, Type 0, BuildingBlock: QUQFOY_clean_sbu_1, # of connection points: 4
#     Node 7, Type 0, BuildingBlock: QUQFOY_clean_sbu_1, # of connection points: 4
#     Node 8, Type 0, BuildingBlock: QUQFOY_clean_sbu_1, # of connection points: 4
#     Node 9, Type 0, BuildingBlock: QUQFOY_clean_sbu_1, # of connection points: 4
#     Node 10, Type 0, BuildingBlock: QUQFOY_clean_sbu_1, # of connection points: 4
#     Node 11, Type 0, BuildingBlock: QUQFOY_clean_sbu_1, # of connection points: 4
#     Edge 12, Type (0, 0), BuildingBlock: UVAHIK_clean_linker_0, # of connection points: 2
#     Edge 13, Type (0, 0), BuildingBlock: UVAHIK_clean_linker_0, # of connection points: 2
#     Edge 14, Type (0, 0), BuildingBlock: UVAHIK_clean_linker_0, # of connection points: 2
#     Edge 15, Type (0, 0), BuildingBlock: UVAHIK_clean_linker_0, # of connection points: 2
#     Edge 16, Type (0, 0), BuildingBlock: UVAHIK_clean_linker_0, # of connection points: 2
#     Edge 17, Type (0, 0), BuildingBlock: UVAHIK_clean_linker_0, # of connection points: 2
#     Edge 18, Type (0, 0), BuildingBlock: UVAHIK_clean_linker_0, # of connection points: 2
#     Edge 19, Type (0, 0), BuildingBlock: UVAHIK_clean_linker_0, # of connection points: 2
#     Edge 20, Type (0, 0), BuildingBlock: UVAHIK_clean_linker_0, # of connection points: 2
#     Edge 21, Type (0, 0), BuildingBlock: UVAHIK_clean_linker_0, # of connection points: 2
#     Edge 22, Type (0, 0), BuildingBlock: UVAHIK_clean_linker_0, # of connection points: 2
#     Edge 23, Type (0, 0), BuildingBlock: UVAHIK_clean_linker_0, # of connection points: 2
#     Edge 24, Type (0, 0), BuildingBlock: UVAHIK_clean_linker_0, # of connection points: 2
#     Edge 25, Type (0, 0), BuildingBlock: UVAHIK_clean_linker_0, # of connection points: 2
#     Edge 26, Type (0, 0), BuildingBlock: UVAHIK_clean_linker_0, # of connection points: 2
#     Edge 27, Type (0, 0), BuildingBlock: UVAHIK_clean_linker_0, # of connection points: 2
#     Edge 28, Type (0, 0), BuildingBlock: UVAHIK_clean_linker_0, # of connection points: 2
#     Edge 29, Type (0, 0), BuildingBlock: UVAHIK_clean_linker_0, # of connection points: 2
#     Edge 30, Type (0, 0), BuildingBlock: UVAHIK_clean_linker_0, # of connection points: 2
#     Edge 31, Type (0, 0), BuildingBlock: UVAHIK_clean_linker_0, # of connection points: 2
#     Edge 32, Type (0, 0), BuildingBlock: UVAHIK_clean_linker_0, # of connection points: 2
#     Edge 33, Type (0, 0), BuildingBlock: UVAHIK_clean_linker_0, # of connection points: 2
#     Edge 34, Type (0, 0), BuildingBlock: UVAHIK_clean_linker_0, # of connection points: 2
#     Edge 35, Type (0, 0), BuildingBlock: UVAHIK_clean_linker_0, # of connection points: 2
# Relax obj value: 0.303
# Max RMSD: 0.127
# Mean RMSD: 0.125
data_MOF--net-wjg--node1-QUQFOY_clean_sbu_1--edge1-UVAHIK_clean_linker_0
_symmetry_space_group_name_H-M    P1
_symmetry_Int_Tables_number       1
_symmetry_cell_setting            triclinic
loop_
_symmetry_equiv_pos_as_xyz
'x, y, z'
_cell_length_a     43.895253
_cell_length_b     43.692575
_cell_length_c     52.093257
_cell_angle_alpha  90.031448
_cell_angle_beta   90.075222
_cell_angle_gamma 120.12817
loop_
_atom_site_label
_atom_site_type_symbol
_atom_site_fract_x
_atom_site_fract_y
_atom_site_fract_z
_atom_type_partial_charge
O0 O 0.13187 0.33895 0.33209 0.0
Cd1 Cd 0.09888 0.35854 0.3387 0.0
Cd2 Cd 0.16048 0.4198 0.35096 0.0
O3 O 0.18135 0.38837 0.34063 0.0
O4 O 0.05653 0.33094 0.31676 0.0
O5 O 0.09388 0.38822 0.31139 0.0
C6 C 0.0664 0.35945 0.30361 0.0
C7 C 0.19937 0.48106 0.34819 0.0
C8 C 0.16517 0.35584 0.33432 0.0
C9 C 0.10557 0.3804 0.39281 0.0
O10 O 0.13406 0.40696 0.38529 0.0
O11 O 0.08553 0.3566 0.37697 0.0
O12 O 0.20334 0.46173 0.36481 0.0
O13 O 0.17369 0.46573 0.3321 0.0
O14 O 0.78963 0.10846 0.66819 0.0
Cd15 Cd 0.73652 0.08805 0.67254 0.0
Cd16 Cd 0.75478 0.15764 0.67541 0.0
O17 O 0.80181 0.16349 0.66207 0.0
O18 O 0.7092 0.0456 0.65038 0.0
O19 O 0.71237 0.09733 0.64357 0.0
C20 C 0.70181 0.06525 0.63611 0.0
C21 C 0.74514 0.2055 0.67044 0.0
C22 C 0.81158 0.14056 0.663 0.0
C23 C 0.72849 0.10987 0.72339 0.0
O24 O 0.74156 0.13972 0.71242 0.0
O25 O 0.72121 0.08229 0.71054 0.0
O26 O 0.77017 0.20751 0.68438 0.0
O27 O 0.72654 0.17686 0.65744 0.0
O28 O 0.59319 0.74918 0.03914 0.0
Cd29 Cd 0.58653 0.75481 1.00069 0.0
Cd30 Cd 0.64181 0.7429 1.00167 0.0
O31 O 0.633 0.73256 0.04049 0.0
O32 O 0.55139 0.77031 1.00504 0.0
O33 O 0.53815 0.72073 0.98526 0.0
C34 C 0.52818 0.74196 0.99388 0.0
C35 C 0.63626 0.70511 0.96844 0.0
C36 C 0.61187 0.73991 0.05189 0.0
C37 C 0.65816 0.81461 0.98608 0.0
O38 O 0.67092 0.79586 0.99385 0.0
O39 O 0.62498 0.80133 0.98432 0.0
O40 O 0.66318 0.71814 0.9837 0.0
O41 O 0.61111 0.71157 0.97338 0.0
O42 O 0.86868 0.66868 0.32499 0.0
Cd43 Cd 0.89166 0.6393 0.33412 0.0
Cd44 Cd 0.82645 0.58439 0.33015 0.0
O45 O 0.81858 0.62246 0.31296 0.0
O46 O 0.93868 0.66064 0.31748 0.0
O47 O 0.89315 0.6087 0.30616 0.0
C48 C 0.92511 0.63385 0.30197 0.0
C49 C 0.78736 0.52549 0.31842 0.0
C50 C 0.83798 0.65576 0.31555 0.0
C51 C 0.86024 0.60757 0.38321 0.0
O52 O 0.83333 0.58921 0.36927 0.0
O53 O 0.88974 0.62888 0.373 0.0
O54 O 0.77682 0.54509 0.32892 0.0
O55 O 0.8205 0.5394 0.31363 0.0
O56 O 0.19951 0.87056 0.65682 0.0
Cd57 Cd 0.25168 0.89117 0.66567 0.0
Cd58 Cd 0.23703 0.82319 0.66357 0.0
O59 O 0.19272 0.81872 0.64598 0.0
O60 O 0.28128 0.93717 0.64792 0.0
O61 O 0.28046 0.8874 0.63753 0.0
C62 C 0.29116 0.92034 0.63273 0.0
C63 C 0.2495 0.77799 0.65428 0.0
C64 C 0.18055 0.83963 0.64772 0.0
C65 C 0.25222 0.86107 0.71549 0.0
O66 O 0.24165 0.83302 0.70239 0.0
O67 O 0.26111 0.89033 0.70448 0.0
O68 O 0.22069 0.77182 0.66502 0.0
O69 O 0.27148 0.81014 0.64771 0.0
O70 O 0.40324 0.25031 0.03986 0.0
Cd71 Cd 0.40913 0.24426 1.00137 0.0
Cd72 Cd 0.35374 0.25497 1.00107 0.0
O73 O 0.3618 0.26482 0.04007 0.0
O74 O 0.44718 0.23234 1.00353 0.0
O75 O 0.45499 0.28064 0.9843 0.0
C76 C 0.46766 0.26105 0.99151 0.0
C77 C 0.36158 0.2939 0.96806 0.0
C78 C 0.38351 0.25877 0.05204 0.0
C79 C 0.33806 0.18362 0.98556 0.0
O80 O 0.32468 0.20221 0.99236 0.0
O81 O 0.37132 0.19698 0.98533 0.0
O82 O 0.33385 0.28076 0.98245 0.0
O83 O 0.38607 0.28675 0.97371 0.0
O84 O 0.66797 0.87373 0.35454 0.0
Cd85 Cd 0.6428 0.90149 0.34694 0.0
Cd86 Cd 0.584 0.83657 0.34221 0.0
O87 O 0.61923 0.82162 0.35501 0.0
O88 O 0.66354 0.94586 0.36758 0.0
O89 O 0.6101 0.89981 0.37432 0.0
C90 C 0.63514 0.93081 0.38125 0.0
C91 C 0.52396 0.79579 0.34859 0.0
C92 C 0.65253 0.84038 0.35736 0.0
C93 C 0.61467 0.88353 0.29466 0.0
O94 O 0.59177 0.85509 0.30526 0.0
O95 O 0.63844 0.9084 0.30805 0.0
O96 O 0.54326 0.78934 0.33367 0.0
O97 O 0.53893 0.82511 0.36127 0.0
O98 O 0.79165 0.66292 0.68411 0.0
Cd99 Cd 0.73845 0.63936 0.6783 0.0
Cd100 Cd 0.7423 0.57928 0.6694 0.0
O101 O 0.79459 0.61456 0.67773 0.0
O102 O 0.721 0.66526 0.69945 0.0
O103 O 0.70615 0.60941 0.70651 0.0
C104 C 0.70489 0.6372 0.7135 0.0
C105 C 0.72532 0.51941 0.67502 0.0
C106 C 0.80959 0.64753 0.6825 0.0
C107 C 0.72151 0.61176 0.62555 0.0
O108 O 0.72504 0.58679 0.63463 0.0
O109 O 0.72511 0.63687 0.63995 0.0
O110 O 0.74674 0.53851 0.65736 0.0
O111 O 0.71374 0.5343 0.69046 0.0
O112 O 0.15026 0.74059 0.97611 0.0
Cd113 Cd 0.16435 0.75008 0.01417 0.0
Cd114 Cd 0.09803 0.73998 0.01482 0.0
O115 O 0.09474 0.72754 0.97624 0.0
O116 O 0.21439 0.76276 0.01056 0.0
O117 O 0.17628 0.71608 0.03248 0.0
C118 C 0.20783 0.73547 0.02388 0.0
C119 C 0.06633 0.7038 0.04888 0.0
C120 C 0.12181 0.73191 0.96418 0.0
C121 C 0.15494 0.81231 0.02722 0.0
O122 O 0.12259 0.79332 0.02151 0.0
O123 O 0.17472 0.79881 0.02787 0.0
O124 O 0.05247 0.71678 0.03356 0.0
O125 O 0.09756 0.70942 0.04363 0.0
O126 O 0.32745 0.12829 0.36067 0.0
Cd127 Cd 0.35426 0.10259 0.35159 0.0
Cd128 Cd 0.41197 0.16932 0.35085 0.0
O129 O 0.37569 0.17902 0.36885 0.0
O130 O 0.33602 0.05766 0.37123 0.0
O131 O 0.38824 0.10544 0.3783 0.0
C132 C 0.36452 0.07368 0.38484 0.0
C133 C 0.47129 0.21421 0.35525 0.0
C134 C 0.34227 0.16016 0.36839 0.0
C135 C 0.3824 0.12727 0.30054 0.0
O136 O 0.4028 0.15544 0.31271 0.0
O137 O 0.36058 0.09952 0.31254 0.0
O138 O 0.44792 0.21957 0.34482 0.0
O139 O 0.46091 0.18325 0.36468 0.0
O140 O 0.20032 0.31769 0.69309 0.0
Cd141 Cd 0.25151 0.35344 0.68415 0.0
Cd142 Cd 0.22971 0.39986 0.69066 0.0
O143 O 0.18901 0.35737 0.70955 0.0
O144 O 0.28334 0.33924 0.70086 0.0
O145 O 0.28015 0.38655 0.71229 0.0
C146 C 0.29231 0.36545 0.7165 0.0
C147 C 0.24146 0.45734 0.70012 0.0
C148 C 0.17965 0.32524 0.70489 0.0
C149 C 0.24369 0.38207 0.63644 0.0
O150 O 0.23028 0.39503 0.65142 0.0
O151 O 0.25842 0.36566 0.64547 0.0
O152 O 0.21142 0.43319 0.69167 0.0
O153 O 0.26471 0.44839 0.70516 0.0
O154 O 0.83651 0.24475 0.9798 0.0
Cd155 Cd 0.825 0.24088 0.0183 0.0
Cd156 Cd 0.8925 0.25351 0.01727 0.0
O157 O 0.89302 0.26176 0.97815 0.0
O158 O 0.77435 0.22544 0.01406 0.0
O159 O 0.81121 0.27583 0.0327 0.0
C160 C 0.77988 0.25445 0.02434 0.0
C161 C 0.92574 0.29258 0.04963 0.0
C162 C 0.86422 0.25366 0.96689 0.0
C163 C 0.83804 0.18249 0.03496 0.0
O164 O 0.86929 0.20112 0.02671 0.0
O165 O 0.81771 0.19535 0.03603 0.0
O166 O 0.93919 0.27904 0.03447 0.0
O167 O 0.89405 0.28606 0.04494 0.0
C168 C 0.23877 0.53819 0.32573 0.0
C169 C 0.22363 0.51951 0.34841 0.0
C170 C 0.26634 0.57338 0.32689 0.0
C171 C 0.33488 0.63382 0.3731 0.0
H172 H 0.35996 0.70101 0.31743 0.0
C173 C 0.46579 0.76796 0.37162 0.0
C174 C 0.48575 0.77064 0.34981 0.0
C175 C 0.42999 0.74211 0.3727 0.0
C176 C 0.35302 0.68259 0.33324 0.0
H177 H 0.22277 0.52323 0.3898 0.0
H178 H 0.269 0.58496 0.39185 0.0
H179 H 0.30262 0.64669 0.31702 0.0
H180 H 0.48375 0.74994 0.31159 0.0
H181 H 0.42148 0.70561 0.31332 0.0
H182 H 0.38545 0.66975 0.38913 0.0
C183 C 0.26124 0.57238 0.37321 0.0
C184 C 0.32034 0.65133 0.33292 0.0
C185 C 0.2345 0.53709 0.37206 0.0
C186 C 0.46908 0.74824 0.32876 0.0
C187 C 0.43335 0.72309 0.32962 0.0
C188 C 0.36721 0.66531 0.37362 0.0
C189 C 0.27861 0.59063 0.35076 0.0
C190 C 0.31121 0.62603 0.3525 0.0
C191 C 0.41359 0.71935 0.35172 0.0
C192 C 0.37697 0.6895 0.35336 0.0
H193 H 0.23085 0.52499 0.30729 0.0
H194 H 0.27916 0.5863 0.30916 0.0
H195 H 0.32937 0.61488 0.38831 0.0
H196 H 0.47806 0.78499 0.38806 0.0
H197 H 0.41522 0.73959 0.38998 0.0
C198 C 0.74394 0.25384 0.69438 0.0
C199 C 0.73653 0.23403 0.67168 0.0
C200 C 0.73606 0.28087 0.6965 0.0
C201 C 0.68765 0.32073 0.66477 0.0
H202 H 0.75322 0.40259 0.70474 0.0
C203 C 0.71247 0.46305 0.65436 0.0
C204 C 0.71497 0.48182 0.67691 0.0
C205 C 0.70743 0.42895 0.65561 0.0
C206 C 0.73434 0.37965 0.6939 0.0
H207 H 0.71461 0.22648 0.63344 0.0
H208 H 0.70271 0.27549 0.63641 0.0
H209 H 0.76144 0.35179 0.70198 0.0
H210 H 0.71281 0.47944 0.71841 0.0
H211 H 0.70533 0.41979 0.72069 0.0
H212 H 0.66227 0.35042 0.65533 0.0
C213 C 0.7136 0.26939 0.65297 0.0
C214 C 0.73893 0.35036 0.6923 0.0
C215 C 0.72068 0.24152 0.65111 0.0
C216 C 0.71083 0.46537 0.70079 0.0
C217 C 0.70665 0.43143 0.70207 0.0
C218 C 0.68354 0.35048 0.66594 0.0
C219 C 0.72147 0.28963 0.67569 0.0
C220 C 0.71573 0.32045 0.67766 0.0
C221 C 0.70559 0.41328 0.67946 0.0
C222 C 0.70696 0.38019 0.68047 0.0
H223 H 0.75542 0.24809 0.7108 0.0
H224 H 0.74144 0.29483 0.71461 0.0
H225 H 0.66888 0.29809 0.65367 0.0
H226 H 0.71542 0.47517 0.6357 0.0
H227 H 0.70701 0.41564 0.63795 0.0
C228 C 0.48378 0.76073 0.99864 0.0
C229 C 0.49112 0.73355 0.9935 0.0
C230 C 0.44949 0.75298 1.00347 0.0
C231 C 0.35619 0.69006 0.99659 0.0
H232 H 0.35066 0.73931 0.05687 0.0
C233 C 0.22903 0.69186 0.02678 0.0
C234 C 0.23591 0.7269 0.02791 0.0
C235 C 0.25703 0.685 0.02605 0.0
C236 C 0.35167 0.72506 0.04017 0.0
H237 H 0.46797 0.67705 0.98765 0.0
H238 H 0.4072 0.66342 0.99595 0.0
H239 H 0.40591 0.7417 0.04644 0.0
H240 H 0.27681 0.78195 0.03048 0.0
H241 H 0.32528 0.77005 0.03005 0.0
H242 H 0.30212 0.67484 0.98978 0.0
C243 C 0.42836 0.69071 0.99638 0.0
C244 C 0.38328 0.72654 0.03413 0.0
C245 C 0.46301 0.69852 0.99153 0.0
C246 C 0.27084 0.7547 0.02969 0.0
C247 C 0.29857 0.74786 0.02952 0.0
C248 C 0.32436 0.68857 1.00266 0.0
C249 C 0.42161 0.71785 1.00333 0.0
C250 C 0.38628 0.71034 0.01173 0.0
C251 C 0.29205 0.71307 0.02712 0.0
C252 C 0.32232 0.7073 0.02395 0.0
H253 H 0.50478 0.78805 0.99995 0.0
H254 H 0.44489 0.77452 1.00809 0.0
H255 H 0.35785 0.67726 0.97925 0.0
H256 H 0.20225 0.67004 0.02508 0.0
H257 H 0.25139 0.65796 0.02418 0.0
C258 C 0.53615 0.23475 0.35819 0.0
C259 C 0.50879 0.24207 0.35382 0.0
C260 C 0.57114 0.26024 0.35243 0.0
C261 C 0.61925 0.33449 0.30886 0.0
H262 H 0.69663 0.37434 0.3575 0.0
C263 C 0.7271 0.47797 0.30748 0.0
C264 C 0.76187 0.48785 0.31388 0.0
C265 C 0.70072 0.44256 0.30799 0.0
C266 C 0.67558 0.36284 0.34346 0.0
H267 H 0.49694 0.28252 0.34171 0.0
H268 H 0.55733 0.32637 0.33176 0.0
H269 H 0.64084 0.32151 0.36917 0.0
H270 H 0.79685 0.46862 0.32497 0.0
H271 H 0.75009 0.40604 0.32642 0.0
H272 H 0.65297 0.3766 0.28367 0.0
C273 C 0.55185 0.30091 0.33913 0.0
C274 C 0.64369 0.33274 0.35018 0.0
C275 C 0.51726 0.27581 0.345 0.0
C276 C 0.77022 0.4615 0.31966 0.0
C277 C 0.74352 0.42587 0.3207 0.0
C278 C 0.65096 0.36435 0.30215 0.0
C279 C 0.57897 0.29308 0.34205 0.0
C280 C 0.61481 0.31939 0.33335 0.0
C281 C 0.7084 0.41623 0.31535 0.0
C282 C 0.67888 0.3798 0.31981 0.0
H283 H 0.53037 0.20895 0.36495 0.0
H284 H 0.59177 0.2538 0.35504 0.0
H285 H 0.59749 0.32427 0.29539 0.0
H286 H 0.72001 0.49785 0.30309 0.0
H287 H 0.67387 0.43606 0.30409 0.0
C288 C 0.29171 0.75505 0.65405 0.0
C289 C 0.25722 0.74898 0.65162 0.0
C290 C 0.29758 0.72643 0.65652 0.0
C291 C 0.25446 0.6293 0.6475 0.0
H292 H 0.30635 0.63 0.7081 0.0
C293 C 0.22212 0.50174 0.69705 0.0
C294 C 0.24968 0.49455 0.70035 0.0
C295 C 0.22927 0.53574 0.69102 0.0
C296 C 0.29227 0.62968 0.69092 0.0
H297 H 0.2022 0.70867 0.64831 0.0
H298 H 0.21234 0.65915 0.65208 0.0
H299 H 0.30874 0.68484 0.69409 0.0
H300 H 0.30646 0.51799 0.70199 0.0
H301 H 0.31897 0.57816 0.69177 0.0
H302 H 0.23657 0.57398 0.64499 0.0
C303 C 0.23492 0.6857 0.65219 0.0
C304 C 0.29375 0.661 0.68281 0.0
C305 C 0.22906 0.71408 0.65013 0.0
C306 C 0.28468 0.52278 0.69959 0.0
C307 C 0.29187 0.5571 0.69364 0.0
C308 C 0.25282 0.59815 0.65565 0.0
C309 C 0.26909 0.69147 0.65606 0.0
C310 C 0.2738 0.66076 0.66154 0.0
C311 C 0.26413 0.56343 0.68825 0.0
C312 C 0.27066 0.59776 0.67794 0.0
H313 H 0.31383 0.78177 0.6555 0.0
H314 H 0.3242 0.73161 0.65938 0.0
H315 H 0.23935 0.62843 0.63077 0.0
H316 H 0.19487 0.48069 0.69777 0.0
H317 H 0.20742 0.54013 0.68752 0.0
C318 C 0.75887 0.29854 0.02673 0.0
C319 C 0.75163 0.26348 0.02387 0.0
C320 C 0.73267 0.30716 0.02147 0.0
C321 C 0.65437 0.27539 0.98126 0.0
H322 H 0.62108 0.32146 0.02781 0.0
C323 C 0.5128 0.24409 0.98368 0.0
C324 C 0.50467 0.27097 0.98743 0.0
C325 C 0.54763 0.25178 0.98394 0.0
C326 C 0.63069 0.30939 0.01432 0.0
H327 H 0.71072 0.2097 0.01516 0.0
H328 H 0.66557 0.22468 1.00615 0.0
H329 H 0.67414 0.31872 0.03868 0.0
H330 H 0.52641 0.32714 0.99376 0.0
H331 H 0.58807 0.34066 0.99484 0.0
H332 H 0.61026 0.26445 0.95752 0.0
C333 C 0.69148 0.24561 0.0119 0.0
C334 C 0.66091 0.30773 0.0206 0.0
C335 C 0.71734 0.23703 0.01723 0.0
C336 C 0.53215 0.30606 0.99053 0.0
C337 C 0.56725 0.31372 0.99135 0.0
C338 C 0.62439 0.27707 0.97501 0.0
C339 C 0.69913 0.28084 0.01313 0.0
C340 C 0.67201 0.28932 1.00461 0.0
C341 C 0.57519 0.28647 0.98841 0.0
C342 C 0.61137 0.29272 0.99199 0.0
H343 H 0.7851 0.31947 0.03179 0.0
H344 H 0.73905 0.33449 0.02275 0.0
H345 H 0.66284 0.26164 0.96836 0.0
H346 H 0.49205 0.21682 0.98134 0.0
H347 H 0.55287 0.23016 0.98194 0.0
C348 C 0.2204 0.35315 0.34004 0.0
C349 C 0.1846 0.33631 0.3332 0.0
C350 C 0.23715 0.33347 0.34361 0.0
C351 C 0.21622 0.24322 0.36041 0.0
H352 H 0.31366 0.27776 0.34204 0.0
C353 C 0.28511 0.15977 0.36574 0.0
C354 C 0.32104 0.17746 0.37236 0.0
C355 C 0.26712 0.17847 0.36347 0.0
C356 C 0.28657 0.26801 0.34764 0.0
H357 H 0.13899 0.28587 0.32298 0.0
H358 H 0.16848 0.25169 0.32874 0.0
H359 H 0.28569 0.31166 0.32984 0.0
H360 H 0.36526 0.22794 0.38425 0.0
H361 H 0.3337 0.26032 0.38065 0.0
H362 H 0.21712 0.19938 0.37804 0.0
C363 C 0.18331 0.28 0.33198 0.0
C364 C 0.27051 0.28737 0.34054 0.0
C365 C 0.16654 0.29967 0.32844 0.0
C366 C 0.33772 0.21356 0.37882 0.0
C367 C 0.31974 0.23221 0.37654 0.0
C368 C 0.23227 0.22379 0.36745 0.0
C369 C 0.2185 0.29654 0.34032 0.0
C370 C 0.23518 0.27525 0.34689 0.0
C371 C 0.28471 0.21517 0.36783 0.0
C372 C 0.26767 0.23608 0.36123 0.0
H373 H 0.23511 0.38132 0.34388 0.0
H374 H 0.26424 0.34702 0.35015 0.0
H375 H 0.18912 0.23347 0.36599 0.0
H376 H 0.27143 0.13196 0.36069 0.0
H377 H 0.24011 0.16459 0.35674 0.0
C378 C 0.86234 0.13285 0.67506 0.0
C379 C 0.84958 0.15261 0.66244 0.0
C380 C 0.89833 0.14756 0.6798 0.0
C381 C 0.97771 0.23598 0.68644 0.0
H382 H 0.02558 0.18215 0.69291 0.0
C383 C 0.12836 0.26624 0.69388 0.0
C384 C 0.1424 0.2976 0.70836 0.0
C385 C 0.09198 0.24436 0.69141 0.0
C386 C 0.01269 0.19765 0.69109 0.0
H387 H 0.86467 0.20183 0.64271 0.0
H388 H 0.92763 0.22683 0.64975 0.0
H389 H 0.96497 0.15301 0.67762 0.0
H390 H 0.12947 0.3284 0.73408 0.0
H391 H 0.06596 0.28926 0.7309 0.0
H392 H 0.02571 0.28099 0.69847 0.0
C393 C 0.90977 0.20061 0.65708 0.0
C394 C 0.97776 0.18083 0.68252 0.0
C395 C 0.87372 0.18615 0.65275 0.0
C396 C 0.11941 0.30468 0.72249 0.0
C397 C 0.083 0.28242 0.7204 0.0
C398 C 0.01266 0.25285 0.69462 0.0
C399 C 0.92239 0.18213 0.67165 0.0
C400 C 0.95988 0.19985 0.67998 0.0
C401 C 0.06883 0.25303 0.70375 0.0
C402 C 0.0307 0.23399 0.69703 0.0
H403 H 0.84437 0.10696 0.68287 0.0
H404 H 0.90693 0.13255 0.69117 0.0
H405 H 0.96466 0.25139 0.68536 0.0
H406 H 0.14533 0.25995 0.68274 0.0
H407 H 0.08223 0.2221 0.67836 0.0
C408 C 0.84481 0.12892 0.03593 0.0
C409 C 0.82325 0.14403 0.03858 0.0
C410 C 0.82984 0.09236 0.03298 0.0
C411 C 0.74457 0.00685 0.03538 0.0
H412 H 0.78612 0.98054 0.98006 0.0
C413 C 0.66616 0.87521 0.98323 0.0
C414 C 0.68124 0.85345 0.98439 0.0
C415 C 0.68636 0.91121 0.98883 0.0
C416 C 0.77442 0.98758 0.99561 0.0
H417 H 0.76922 0.13231 0.04243 0.0
H418 H 0.74324 0.06906 0.0368 0.0
H419 H 0.81625 0.04141 0.99595 0.0
H420 H 0.73019 0.85317 0.98955 0.0
H421 H 0.76564 0.91648 0.99874 0.0
H422 H 0.70207 0.95329 0.03423 0.0
C423 C 0.77168 0.08515 0.03721 0.0
C424 C 0.79176 0.02229 1.00493 0.0
C425 C 0.78662 0.1216 0.04039 0.0
C426 C 0.71773 0.86916 0.98866 0.0
C427 C 0.73804 0.90535 0.99397 0.0
C428 C 0.72706 0.97238 0.02581 0.0
C429 C 0.79304 0.07022 0.03247 0.0
C430 C 0.77676 0.03248 0.02469 0.0
C431 C 0.72209 0.92623 0.99527 0.0
C432 C 0.74156 0.96261 1.0056 0.0
H433 H 0.87317 0.14545 0.03473 0.0
H434 H 0.84709 0.08162 0.03006 0.0
H435 H 0.73261 0.01351 0.05096 0.0
H436 H 0.63821 0.8641 0.97984 0.0
H437 H 0.67368 0.92703 0.98926 0.0
C438 C 0.71068 0.84269 0.35971 0.0
C439 C 0.67367 0.8227 0.35934 0.0
C440 C 0.73066 0.8262 0.35636 0.0
C441 C 0.72472 0.73817 0.35437 0.0
H442 H 0.80283 0.78489 0.3068 0.0
C443 C 0.7858 0.66318 0.30846 0.0
C444 C 0.82227 0.6786 0.31249 0.0
C445 C 0.76916 0.68287 0.31235 0.0
C446 C 0.78117 0.77168 0.32017 0.0
H447 H 0.62872 0.76946 0.3569 0.0
H448 H 0.66335 0.74094 0.35068 0.0
H449 H 0.7715 0.81501 0.32077 0.0
H450 H 0.87034 0.72775 0.32113 0.0
H451 H 0.84116 0.76223 0.32751 0.0
H452 H 0.73389 0.69453 0.35322 0.0
C453 C 0.6771 0.76928 0.35377 0.0
C454 C 0.7634 0.78897 0.32838 0.0
C455 C 0.65716 0.7857 0.35727 0.0
C456 C 0.84218 0.71501 0.31802 0.0
C457 C 0.82551 0.73478 0.3217 0.0
C458 C 0.7422 0.72079 0.34595 0.0
C459 C 0.71405 0.78943 0.3525 0.0
C460 C 0.73475 0.77228 0.34542 0.0
C461 C 0.78869 0.71842 0.32003 0.0
C462 C 0.77035 0.73722 0.32859 0.0
H463 H 0.72425 0.87124 0.36145 0.0
H464 H 0.7591 0.84239 0.35608 0.0
H465 H 0.70325 0.72481 0.36786 0.0
H466 H 0.76966 0.63529 0.304 0.0
H467 H 0.74078 0.66986 0.31044 0.0
C468 C 0.12088 0.79017 0.63571 0.0
C469 C 0.14252 0.82561 0.64324 0.0
C470 C 0.08431 0.77422 0.63713 0.0
C471 C 0.01781 0.7822 0.67433 0.0
H472 H 0.95291 0.70601 0.62981 0.0
C473 C 0.86563 0.70577 0.68634 0.0
C474 C 0.8485 0.66894 0.68248 0.0
C475 C 0.90174 0.72683 0.68177 0.0
C476 C 0.9708 0.72709 0.6425 0.0
H477 H 0.14264 0.87301 0.65589 0.0
H478 H 0.07867 0.84526 0.65785 0.0
H479 H 0.01475 0.74129 0.61777 0.0
H480 H 0.85635 0.62517 0.67235 0.0
H481 H 0.9193 0.66195 0.66453 0.0
H482 H 0.97367 0.76779 0.69906 0.0
C483 C 0.09008 0.82959 0.65151 0.0
C484 C 0.00617 0.74735 0.63557 0.0
C485 C 0.12674 0.84557 0.65015 0.0
C486 C 0.86863 0.65345 0.67539 0.0
C487 C 0.90463 0.67452 0.67067 0.0
C488 C 0.98234 0.76206 0.68116 0.0
C489 C 0.06854 0.79339 0.64596 0.0
C490 C 0.03023 0.77474 0.65162 0.0
C491 C 0.92132 0.71147 0.67312 0.0
C492 C 0.95865 0.7339 0.66554 0.0
H493 H 0.13213 0.77404 0.63018 0.0
H494 H 0.06858 0.74626 0.63282 0.0
H495 H 0.03572 0.80272 0.68735 0.0
H496 H 0.85092 0.71855 0.69185 0.0
H497 H 0.91398 0.75526 0.68386 0.0
C498 C 0.33029 0.12338 0.97969 0.0
C499 C 0.31517 0.14496 0.98218 0.0
C500 C 0.30968 0.08676 0.98228 0.0
C501 C 0.22755 0.02065 0.0136 0.0
H502 H 0.24964 0.95481 0.98029 0.0
C503 C 0.15016 0.86712 0.02586 0.0
C504 C 0.17105 0.85123 0.02853 0.0
C505 C 0.16582 0.90345 0.02123 0.0
C506 C 0.24337 0.97299 0.98984 0.0
H507 H 0.26594 0.14468 0.98705 0.0
H508 H 0.22974 0.08055 0.99081 0.0
H509 H 0.27849 0.01612 0.96598 0.0
H510 H 0.22486 0.86159 0.0305 0.0
H511 H 0.25194 0.92477 0.02234 0.0
H512 H 0.19201 0.97701 0.03724 0.0
C513 C 0.25777 0.09211 0.98768 0.0
C514 C 0.25985 0.00809 0.98165 0.0
C515 C 0.27848 0.12885 0.98525 0.0
C516 C 0.20793 0.87285 0.02838 0.0
C517 C 0.22349 0.909 0.02349 0.0
C518 C 0.21071 0.98535 0.02158 0.0
C519 C 0.27335 0.07077 0.98716 0.0
C520 C 0.2527 0.03255 0.99376 0.0
C521 C 0.20255 0.92436 0.01898 0.0
C522 C 0.21904 0.96143 0.0101 0.0
H523 H 0.35846 0.13486 0.9773 0.0
H524 H 0.3227 0.07129 0.98196 0.0
H525 H 0.22176 0.03884 0.02364 0.0
H526 H 0.12169 0.85124 0.02596 0.0
H527 H 0.14914 0.91477 0.01792 0.0
C528 C 0.97706 0.31405 0.07963 0.0
C529 C 0.94448 0.31108 0.0735 0.0
C530 C 0.99173 0.32503 0.10407 0.0
C531 C 0.98868 0.36731 0.16477 0.0
H532 H 0.01516 0.30288 0.19504 0.0
C533 C 0.06061 0.38836 0.26351 0.0
C534 C 0.0486 0.35812 0.27904 0.0
C535 C 0.04679 0.3857 0.23878 0.0
C536 C 0.00775 0.32105 0.18693 0.0
H537 H 0.90302 0.3198 0.08774 0.0
H538 H 0.9289 0.33929 0.13044 0.0
H539 H -0.00444 0.29482 0.15056 0.0
H540 H 0.01133 0.30175 0.2812 0.0
H541 H 0.98751 0.29721 0.23824 0.0
H542 H 0.00094 0.39345 0.20146 0.0
C543 C 0.94298 0.33298 0.11629 0.0
C544 C -0.00309 0.31668 0.16133 0.0
C545 C 0.92814 0.32175 0.09183 0.0
C546 C 0.02137 0.32556 0.26975 0.0
C547 C 0.00782 0.32288 0.24506 0.0
C548 C 2e-05 0.37198 0.19042 0.0
C549 C 0.9743 0.33352 0.12294 0.0
C550 C 0.98712 0.33964 0.14995 0.0
C551 C 0.02095 0.35271 0.22905 0.0
C552 C 0.00935 0.34865 0.20181 0.0
H553 H 0.9905 0.30625 0.06597 0.0
H554 H 0.01621 0.32577 0.10848 0.0
H555 H 0.98134 0.38544 0.15649 0.0
H556 H 0.08154 0.41384 0.27008 0.0
H557 H 0.05746 0.40913 0.22686 0.0
C558 C 0.68959 0.07678 0.59125 0.0
C559 C 0.685 0.05248 0.61066 0.0
C560 C 0.67877 0.06522 0.56606 0.0
C561 C 0.62165 0.98947 0.52528 0.0
H562 H 0.69778 0.03141 0.47593 0.0
C563 C 0.61222 0.92587 0.42592 0.0
C564 C 0.63306 0.94716 0.4056 0.0
C565 C 0.61454 0.94043 0.45029 0.0
C566 C 0.6758 0.01986 0.48911 0.0
H567 H 0.66361 0.99683 0.61918 0.0
H568 H 0.6437 0.97659 0.57526 0.0
H569 H 0.70772 0.0537 0.51965 0.0
H570 H 0.67084 0.00079 0.39436 0.0
H571 H 0.67334 0.02666 0.43627 0.0
H572 H 0.58937 0.95606 0.49481 0.0
C573 C 0.65604 0.00458 0.57955 0.0
C574 C 0.68169 0.03261 0.51431 0.0
C575 C 0.66752 0.01619 0.60464 0.0
C576 C 0.65468 0.98366 0.40974 0.0
C577 C 0.65639 -0.00161 0.43393 0.0
C578 C 0.61547 0.97717 0.49989 0.0
C579 C 0.66245 0.02908 0.55988 0.0
C580 C 0.65487 0.01723 0.53274 0.0
C581 C 0.63724 0.97684 0.45484 0.0
C582 C 0.64264 0.99179 0.48146 0.0
H583 H 0.70312 0.10492 0.59521 0.0
H584 H 0.68387 0.08462 0.55125 0.0
H585 H 0.60045 0.9773 0.53912 0.0
H586 H 0.59553 0.89756 0.42338 0.0
H587 H 0.59967 0.92268 0.46576 0.0
C588 C 0.66629 0.68487 0.93767 0.0
C589 C 0.63639 0.68701 0.94436 0.0
C590 C 0.6695 0.67387 0.91314 0.0
C591 C 0.62271 0.62945 0.85347 0.0
H592 H 0.71132 0.69563 0.82119 0.0
C593 C 0.67251 0.60847 0.75434 0.0
C594 C 0.68862 0.63826 0.73819 0.0
C595 C 0.66178 0.61122 0.77917 0.0
C596 C 0.68639 0.67697 0.82989 0.0
H597 H 0.58531 0.67688 0.931 0.0
H598 H 0.59086 0.65727 0.88813 0.0
H599 H 0.70105 0.70426 0.86586 0.0
H600 H 0.70436 0.6938 0.73504 0.0
H601 H 0.68592 0.69853 0.77821 0.0
H602 H 0.60826 0.60217 0.81722 0.0
C603 C 0.61184 0.66429 0.90192 0.0
C604 C 0.68065 0.68169 0.85556 0.0
C605 C 0.60872 0.67559 0.92647 0.0
C606 C 0.69221 0.67035 0.74696 0.0
C607 C 0.68182 0.67315 0.77177 0.0
C608 C 0.62868 0.62441 0.82776 0.0
C609 C 0.64279 0.66448 0.89474 0.0
C610 C 0.64874 0.6581 0.86765 0.0
C611 C 0.6673 0.64388 0.78837 0.0
C612 C 0.6605 0.64836 0.81567 0.0
H613 H 0.68805 0.69328 0.95098 0.0
H614 H 0.69343 0.67376 0.90828 0.0
H615 H 0.59789 0.61084 0.86233 0.0
H616 H 0.66933 0.58335 0.74817 0.0
H617 H 0.65071 0.58824 0.79157 0.0
C618 C 0.06364 0.673 0.09036 0.0
C619 C 0.04849 0.68655 0.07324 0.0
C620 C 0.04962 0.6619 0.11501 0.0
C621 C 0.00374 0.683 0.16362 0.0
H622 H 0.98622 0.59702 0.19816 0.0
C623 C 0.97559 0.6649 0.2715 0.0
C624 C 0.94405 0.63423 0.27828 0.0
C625 C 0.99019 0.66817 0.24713 0.0
C626 C 0.99108 0.62114 0.18871 0.0
H627 H 0.00561 0.69724 0.0682 0.0
H628 H 0.98158 0.67828 0.11115 0.0
H629 H 0.006 0.60713 0.15321 0.0
H630 H 0.90447 0.58192 0.26532 0.0
H631 H 0.93042 0.58752 0.22279 0.0
H632 H 0.98922 0.6973 0.19888 0.0
C633 C 0.00434 0.67639 0.10554 0.0
C634 C 0.00247 0.62696 0.16309 0.0
C635 C 0.01804 0.68707 0.08087 0.0
C636 C 0.92877 0.60592 0.26071 0.0
C637 C 0.94364 0.60908 0.23637 0.0
C638 C 0.99298 0.67748 0.18922 0.0
C639 C 0.02049 0.66455 0.12309 0.0
C640 C 0.00861 0.65784 0.15025 0.0
C641 C 0.97382 0.64072 0.22905 0.0
C642 C 0.98642 0.64649 0.20205 0.0
H643 H 0.0871 0.67223 0.08508 0.0
H644 H 0.06263 0.65294 0.12818 0.0
H645 H 0.00863 0.70722 0.15431 0.0
H646 H 0.98815 0.68719 0.28454 0.0
H647 H 0.01375 0.69268 0.24212 0.0
C648 C 0.39058 0.07915 0.42853 0.0
C649 C 0.36798 0.05758 0.40889 0.0
C650 C 0.38957 0.06511 0.45286 0.0
C651 C 0.36359 0.98445 0.48972 0.0
H652 H 0.33948 0.0298 0.54356 0.0
C653 C 0.30701 0.91647 0.58724 0.0
C654 C 0.31065 0.93724 0.60887 0.0
C655 C 0.3201 0.93228 0.56336 0.0
C656 C 0.3471 0.01717 0.52909 0.0
H657 H 0.32817 0.00395 0.3989 0.0
H658 H 0.32727 0.97922 0.44126 0.0
H659 H 0.35246 0.05506 0.50074 0.0
H660 H 0.33307 0.99094 0.62291 0.0
H661 H 0.35786 0.01871 0.58177 0.0
H662 H 0.35896 0.94688 0.51799 0.0
C663 C 0.34543 0.00706 0.43784 0.0
C664 C 0.35431 0.03164 0.50441 0.0
C665 C 0.3459 0.02124 0.41364 0.0
C666 C 0.32961 0.97423 0.60651 0.0
C667 C 0.34345 0.99011 0.58277 0.0
C668 C 0.35712 0.97033 0.51458 0.0
C669 C 0.3665 0.02908 0.45787 0.0
C670 C 0.36207 0.01515 0.48441 0.0
C671 C 0.33784 0.96937 0.5606 0.0
C672 C 0.34814 0.98612 0.53459 0.0
H673 H 0.40776 0.10728 0.42554 0.0
H674 H 0.40617 0.08259 0.46798 0.0
H675 H 0.36972 0.97136 0.47462 0.0
H676 H 0.29223 0.88785 0.58839 0.0
H677 H 0.31468 0.91517 0.5469 0.0
C678 C 0.39303 0.3269 0.92812 0.0
C679 C 0.3634 0.3134 0.94424 0.0
C680 C 0.39257 0.34071 0.90394 0.0
C681 C 0.34104 0.36908 0.86278 0.0
H682 H 0.38061 0.34132 0.80712 0.0
C683 C 0.31863 0.34125 0.74744 0.0
C684 C 0.31231 0.36859 0.74031 0.0
C685 C 0.33176 0.34082 0.77183 0.0
C686 C 0.36929 0.34922 0.82239 0.0
H687 H 0.31059 0.30514 0.94793 0.0
H688 H 0.30946 0.32833 0.90585 0.0
H689 H 0.38925 0.32905 0.85121 0.0
H690 H 0.31706 0.41819 0.75268 0.0
H691 H 0.34103 0.41807 0.79494 0.0
H692 H 0.31918 0.38721 0.83394 0.0
C693 C 0.33338 0.32897 0.91188 0.0
C694 C 0.3747 0.34264 0.8478 0.0
C695 C 0.33394 0.31544 0.93609 0.0
C696 C 0.32144 0.39662 0.7576 0.0
C697 C 0.33488 0.39635 0.78196 0.0
C698 C 0.33536 0.37538 0.83737 0.0
C699 C 0.3624 0.34113 0.89522 0.0
C700 C 0.36005 0.35182 0.86836 0.0
C701 C 0.33923 0.3679 0.7897 0.0
C702 C 0.34881 0.3649 0.81677 0.0
H703 H 0.41622 0.32586 0.93385 0.0
H704 H 0.41568 0.35044 0.89189 0.0
H705 H 0.32985 0.37714 0.87806 0.0
H706 H 0.31177 0.31914 0.73467 0.0
H707 H 0.3343 0.31822 0.77706 0.0
C708 C 0.11619 0.40306 0.43755 0.0
C709 C 0.10172 0.37397 0.42074 0.0
C710 C 0.12555 0.39964 0.46257 0.0
C711 C 0.15913 0.34942 0.49556 0.0
H712 H 0.1566 0.40067 0.55546 0.0
C713 C 0.22358 0.35109 0.59416 0.0
C714 C 0.23668 0.38223 0.60875 0.0
C715 C 0.20648 0.34798 0.5707 0.0
C716 C 0.15797 0.38656 0.5388 0.0
H717 H 0.08274 0.31778 0.41762 0.0
H718 H 0.09901 0.31174 0.46149 0.0
H719 H 0.12184 0.39646 0.51775 0.0
H720 H 0.24519 0.43551 0.60936 0.0
H721 H 0.21712 0.43081 0.56809 0.0
H722 H 0.19609 0.3404 0.51635 0.0
C723 C 0.10333 0.33724 0.45521 0.0
C724 C 0.13774 0.38389 0.51729 0.0
C725 C 0.09347 0.34058 0.43024 0.0
C726 C 0.23524 0.41118 0.59849 0.0
C727 C 0.21862 0.40824 0.57504 0.0
C728 C 0.17957 0.35225 0.51707 0.0
C729 C 0.12098 0.36711 0.47118 0.0
C730 C 0.13849 0.36577 0.49527 0.0
C731 C 0.20249 0.37607 0.56145 0.0
C732 C 0.17978 0.37148 0.53879 0.0
H733 H 0.1231 0.42915 0.43065 0.0
H734 H 0.13912 0.42319 0.47435 0.0
H735 H 0.1607 0.33571 0.47873 0.0
H736 H 0.22388 0.32821 0.60184 0.0
H737 H 0.19445 0.32283 0.56072 0.0
C738 C 0.8727 0.22764 0.92679 0.0
C739 C 0.85983 0.24757 0.93894 0.0
C740 C 0.8585 0.21099 0.90321 0.0
C741 C 0.82892 0.18422 0.84929 0.0
H742 H 0.72812 0.14728 0.84475 0.0
C743 C 0.74734 0.09593 0.76467 0.0
C744 C 0.7292 0.11011 0.75166 0.0
C745 C 0.7602 0.10744 0.78956 0.0
C746 C 0.75623 0.15734 0.84577 0.0
H747 H 0.82481 0.26871 0.93498 0.0
H748 H 0.80155 0.24152 0.89336 0.0
H749 H 0.7606 0.18204 0.88202 0.0
H750 H 0.70753 0.14482 0.75504 0.0
H751 H 0.72856 0.16375 0.7987 0.0
H752 H 0.82423 0.15926 0.8129 0.0
C753 C 0.82141 0.23733 0.90236 0.0
C754 C 0.775 0.17763 0.867 0.0
C755 C 0.83519 0.25347 0.92599 0.0
C756 C 0.72104 0.13313 0.76481 0.0
C757 C 0.7333 0.14413 0.78977 0.0
C758 C 0.81003 0.16365 0.8281 0.0
C759 C 0.83146 0.21433 0.89134 0.0
C760 C 0.81172 0.19196 0.86883 0.0
C761 C 0.7545 0.13277 0.80192 0.0
C762 C 0.77356 0.15046 0.82593 0.0
H763 H 0.89127 0.22219 0.93656 0.0
H764 H 0.86696 0.19355 0.89529 0.0
H765 H 0.85713 0.19487 0.84999 0.0
H766 H 0.75455 0.07867 0.75477 0.0
H767 H 0.77614 0.09797 0.79861 0.0
C768 C 0.58658 0.86291 0.25201 0.0
C769 C 0.61744 0.88276 0.26647 0.0
C770 C 0.58798 0.84969 0.22792 0.0
C771 C 0.64691 0.84996 0.17644 0.0
H772 H 0.57426 0.75116 0.17101 0.0
C773 C 0.64523 0.76171 0.09307 0.0
C774 C 0.61284 0.74453 0.08001 0.0
C775 C 0.6476 0.77651 0.11741 0.0
C776 C 0.59468 0.77872 0.1722 0.0
H777 H 0.67426 0.9072 0.26606 0.0
H778 H 0.6768 0.88403 0.22391 0.0
H779 H 0.57493 0.78581 0.20777 0.0
H780 H 0.5572 0.72678 0.08285 0.0
H781 H 0.56104 0.75154 0.12535 0.0
H782 H 0.66652 0.8426 0.14067 0.0
C783 C 0.65149 0.87877 0.23111 0.0
C784 C 0.59492 0.79874 0.19316 0.0
C785 C 0.6501 0.89236 0.25519 0.0
C786 C 0.58245 0.73966 0.09259 0.0
C787 C 0.58471 0.75397 0.11693 0.0
C788 C 0.6467 0.82983 0.15541 0.0
C789 C 0.62024 0.85564 0.21789 0.0
C790 C 0.62065 0.83478 0.19537 0.0
C791 C 0.61751 0.77385 0.12917 0.0
C792 C 0.62027 0.79409 0.15289 0.0
H793 H 0.56106 0.85513 0.26026 0.0
H794 H 0.5635 0.83295 0.21786 0.0
H795 H 0.6671 0.8776 0.17754 0.0
H796 H 0.66916 0.76628 0.08367 0.0
H797 H 0.67316 0.79129 0.12654 0.0
C798 C 0.82687 0.57761 0.42265 0.0
C799 C 0.8545 0.60786 0.41112 0.0
C800 C 0.81408 0.57976 0.44668 0.0
C801 C 0.8041 0.64339 0.48613 0.0
H802 H 0.76982 0.56855 0.53683 0.0
C803 C 0.74776 0.64799 0.58638 0.0
C804 C 0.72323 0.61541 0.59735 0.0
C805 C 0.76158 0.64906 0.56194 0.0
C806 C 0.77867 0.58942 0.52266 0.0
H807 H 0.89186 0.66366 0.41634 0.0
H808 H 0.86955 0.66744 0.45866 0.0
H809 H 0.8033 0.56681 0.50029 0.0
H810 H 0.69036 0.55927 0.59015 0.0
H811 H 0.71301 0.56131 0.54713 0.0
H812 H 0.77918 0.66587 0.50856 0.0
C813 C 0.85767 0.6421 0.44893 0.0
C814 C 0.79817 0.58855 0.50182 0.0
C815 C 0.8708 0.63983 0.42492 0.0
C816 C 0.70932 0.58472 0.58217 0.0
C817 C 0.7228 0.58584 0.55772 0.0
C818 C 0.78447 0.64425 0.50704 0.0
C819 C 0.8284 0.61231 0.45966 0.0
C820 C 0.81082 0.61529 0.48315 0.0
C821 C 0.75074 0.6176 0.54804 0.0
C822 C 0.77111 0.61698 0.52538 0.0
H823 H 0.81368 0.55267 0.41238 0.0
H824 H 0.79143 0.55634 0.4543 0.0
H825 H 0.81307 0.66416 0.47187 0.0
H826 H 0.75928 0.67202 0.59773 0.0
H827 H 0.78292 0.67403 0.55503 0.0
C828 C 0.11166 0.75467 0.92316 0.0
C829 C 0.12378 0.73452 0.93596 0.0
C830 C 0.1243 0.76822 0.89863 0.0
C831 C 0.20372 0.79245 0.85956 0.0
H832 H 0.15434 0.81296 0.80672 0.0
C833 C 0.25326 0.83145 0.75587 0.0
C834 C 0.24835 0.85728 0.74361 0.0
C835 C 0.24072 0.82039 0.78071 0.0
C836 C 0.16857 0.80784 0.82152 0.0
H837 H 0.15542 0.70953 0.93231 0.0
H838 H 0.17569 0.73112 0.88902 0.0
H839 H 0.1227 0.78075 0.8452 0.0
H840 H 0.22801 0.89302 0.74807 0.0
H841 H 0.20568 0.87335 0.79169 0.0
H842 H 0.24928 0.81868 0.83552 0.0
C843 C 0.15782 0.738 0.89821 0.0
C844 C 0.15042 0.78926 0.84352 0.0
C845 C 0.14571 0.72504 0.92283 0.0
C846 C 0.23259 0.87344 0.75724 0.0
C847 C 0.2194 0.86185 0.78201 0.0
C848 C 0.22169 0.81065 0.8375 0.0
C849 C 0.14891 0.76141 0.8864 0.0
C850 C 0.16768 0.78096 0.86272 0.0
C851 C 0.22245 0.83446 0.79365 0.0
C852 C 0.20427 0.81831 0.81816 0.0
H853 H 0.09518 0.76283 0.93302 0.0
H854 H 0.11678 0.78609 0.89017 0.0
H855 H 0.21828 0.78762 0.87424 0.0
H856 H 0.26505 0.81837 0.74567 0.0
H857 H 0.24335 0.79915 0.78913 0.0
C858 C 0.41185 0.15279 0.25908 0.0
C859 C 0.38081 0.13012 0.27243 0.0
C860 C 0.41035 0.16533 0.23476 0.0
C861 C 0.35126 0.15718 0.18054 0.0
H862 H 0.41925 0.2572 0.17318 0.0
C863 C 0.34984 0.23799 0.09309 0.0
C864 C 0.38235 0.25516 0.08025 0.0
C865 C 0.34766 0.22496 0.11801 0.0
C866 C 0.40009 0.22929 0.17496 0.0
H867 H 0.32388 0.10078 0.27015 0.0
H868 H 0.32109 0.12301 0.22764 0.0
H869 H 0.41941 0.22618 0.21191 0.0
H870 H 0.43827 0.27463 0.08395 0.0
H871 H 0.43469 0.25309 0.12759 0.0
H872 H 0.33196 0.16065 0.14344 0.0
C873 C 0.34668 0.13082 0.23581 0.0
C874 C 0.40036 0.21134 0.19704 0.0
C875 C 0.34822 0.11783 0.2601 0.0
C876 C 0.41293 0.26169 0.09349 0.0
C877 C 0.41084 0.24926 0.11846 0.0
C878 C 0.35084 0.17527 0.15846 0.0
C879 C 0.37774 0.15604 0.22341 0.0
C880 C 0.37642 0.17489 0.19994 0.0
C881 C 0.37803 0.22953 0.13061 0.0
C882 C 0.37563 0.2114 0.15528 0.0
H883 H 0.43731 0.16264 0.26818 0.0
H884 H 0.43484 0.18373 0.22542 0.0
H885 H 0.3325 0.12915 0.18207 0.0
H886 H 0.32579 0.23216 0.08319 0.0
H887 H 0.32208 0.21016 0.12705 0.0
loop_
_geom_bond_atom_site_label_1
_geom_bond_atom_site_label_2
_geom_bond_distance
_geom_bond_site_symmetry_2
_ccdc_geom_bond_type
O0 Cd1 2.223 . S
O0 C8 1.315 . S
Cd1 O0 2.223 . S
Cd1 O4 2.297 . S
Cd1 O5 2.439 . S
Cd1 O11 2.240 . S
Cd2 O3 2.240 . S
Cd2 O10 2.223 . S
Cd2 O12 2.297 . S
Cd2 O13 2.439 . S
O3 Cd2 2.240 . S
O3 C8 1.279 . S
O4 Cd1 2.297 . S
O4 C6 1.247 . S
O5 Cd1 2.439 . S
O5 C6 1.208 . S
C6 O4 1.247 . S
C6 O5 1.208 . S
C7 O12 1.247 . S
C7 O13 1.208 . S
C8 O0 1.315 . S
C8 O3 1.279 . S
C9 O10 1.315 . S
C9 O11 1.279 . S
O10 Cd2 2.223 . S
O10 C9 1.315 . S
O11 Cd1 2.240 . S
O11 C9 1.279 . S
O12 Cd2 2.297 . S
O12 C7 1.247 . S
O13 Cd2 2.439 . S
O13 C7 1.208 . S
O14 Cd15 2.223 . S
O14 C22 1.315 . S
Cd15 O14 2.223 . S
Cd15 O18 2.297 . S
Cd15 O19 2.439 . S
Cd15 O25 2.240 . S
Cd16 O17 2.240 . S
Cd16 O24 2.223 . S
Cd16 O26 2.297 . S
Cd16 O27 2.439 . S
O17 Cd16 2.240 . S
O17 C22 1.279 . S
O18 Cd15 2.297 . S
O18 C20 1.247 . S
O19 Cd15 2.439 . S
O19 C20 1.208 . S
C20 O18 1.247 . S
C20 O19 1.208 . S
C21 O26 1.247 . S
C21 O27 1.208 . S
C22 O14 1.315 . S
C22 O17 1.279 . S
C23 O24 1.315 . S
C23 O25 1.279 . S
O24 Cd16 2.223 . S
O24 C23 1.315 . S
O25 Cd15 2.240 . S
O25 C23 1.279 . S
O26 Cd16 2.297 . S
O26 C21 1.247 . S
O27 Cd16 2.439 . S
O27 C21 1.208 . S
O28 Cd29 2.223 . S
O28 C36 1.315 . S
Cd29 O28 2.223 . S
Cd29 O32 2.297 . S
Cd29 O33 2.439 1_554 S
Cd29 O39 2.240 1_554 S
Cd30 O31 2.240 . S
Cd30 O38 2.223 . S
Cd30 O40 2.297 1_554 S
Cd30 O41 2.439 1_554 S
O31 Cd30 2.240 . S
O31 C36 1.279 . S
O32 Cd29 2.297 . S
O32 C34 1.247 . S
O33 Cd29 2.439 1_556 S
O33 C34 1.208 1_556 S
C34 O32 1.247 . S
C34 O33 1.208 1_554 S
C35 O40 1.247 . S
C35 O41 1.208 . S
C36 O28 1.315 . S
C36 O31 1.279 . S
C37 O38 1.308 1_556 S
C37 O39 1.289 . S
O38 Cd30 2.223 . S
O38 C37 1.308 1_554 S
O39 Cd29 2.240 1_556 S
O39 C37 1.289 . S
O40 Cd30 2.297 1_556 S
O40 C35 1.247 . S
O41 Cd30 2.439 1_556 S
O41 C35 1.208 . S
O42 Cd43 2.223 . S
O42 C50 1.315 . S
Cd43 O42 2.223 . S
Cd43 O46 2.297 . S
Cd43 O47 2.439 . S
Cd43 O53 2.240 . S
Cd44 O45 2.240 . S
Cd44 O52 2.223 . S
Cd44 O54 2.297 . S
Cd44 O55 2.439 . S
O45 Cd44 2.240 . S
O45 C50 1.279 . S
O46 Cd43 2.297 . S
O46 C48 1.247 . S
O47 Cd43 2.439 . S
O47 C48 1.208 . S
C48 O46 1.247 . S
C48 O47 1.208 . S
C49 O54 1.247 . S
C49 O55 1.208 . S
C50 O42 1.315 . S
C50 O45 1.279 . S
C51 O52 1.315 . S
C51 O53 1.279 . S
O52 Cd44 2.223 . S
O52 C51 1.315 . S
O53 Cd43 2.240 . S
O53 C51 1.279 . S
O54 Cd44 2.297 . S
O54 C49 1.247 . S
O55 Cd44 2.439 . S
O55 C49 1.208 . S
O56 Cd57 2.223 . S
O56 C64 1.315 . S
Cd57 O56 2.223 . S
Cd57 O60 2.297 . S
Cd57 O61 2.439 . S
Cd57 O67 2.240 . S
Cd58 O59 2.240 . S
Cd58 O66 2.223 . S
Cd58 O68 2.297 . S
Cd58 O69 2.439 . S
O59 Cd58 2.240 . S
O59 C64 1.279 . S
O60 Cd57 2.297 . S
O60 C62 1.247 . S
O61 Cd57 2.439 . S
O61 C62 1.208 . S
C62 O60 1.247 . S
C62 O61 1.208 . S
C63 O68 1.247 . S
C63 O69 1.208 . S
C64 O56 1.315 . S
C64 O59 1.279 . S
C65 O66 1.315 . S
C65 O67 1.279 . S
O66 Cd58 2.223 . S
O66 C65 1.315 . S
O67 Cd57 2.240 . S
O67 C65 1.279 . S
O68 Cd58 2.297 . S
O68 C63 1.247 . S
O69 Cd58 2.439 . S
O69 C63 1.208 . S
O70 Cd71 2.223 . S
O70 C78 1.315 . S
Cd71 O70 2.223 . S
Cd71 O74 2.297 . S
Cd71 O75 2.439 1_554 S
Cd71 O81 2.240 1_554 S
Cd72 O73 2.240 . S
Cd72 O80 2.223 . S
Cd72 O82 2.297 1_554 S
Cd72 O83 2.439 1_554 S
O73 Cd72 2.240 . S
O73 C78 1.279 . S
O74 Cd71 2.297 . S
O74 C76 1.247 . S
O75 Cd71 2.439 1_556 S
O75 C76 1.208 1_556 S
C76 O74 1.247 . S
C76 O75 1.208 1_554 S
C77 O82 1.247 . S
C77 O83 1.208 . S
C78 O70 1.315 . S
C78 O73 1.279 . S
C79 O80 1.308 1_556 S
C79 O81 1.289 . S
O80 Cd72 2.223 . S
O80 C79 1.308 1_554 S
O81 Cd71 2.240 1_556 S
O81 C79 1.289 . S
O82 Cd72 2.297 1_556 S
O82 C77 1.247 . S
O83 Cd72 2.439 1_556 S
O83 C77 1.208 . S
O84 Cd85 2.223 . S
O84 C92 1.315 . S
Cd85 O84 2.223 . S
Cd85 O88 2.297 . S
Cd85 O89 2.439 . S
Cd85 O95 2.240 . S
Cd86 O87 2.240 . S
Cd86 O94 2.223 . S
Cd86 O96 2.297 . S
Cd86 O97 2.439 . S
O87 Cd86 2.240 . S
O87 C92 1.279 . S
O88 Cd85 2.297 . S
O88 C90 1.247 . S
O89 Cd85 2.439 . S
O89 C90 1.208 . S
C90 O88 1.247 . S
C90 O89 1.208 . S
C91 O96 1.247 . S
C91 O97 1.208 . S
C92 O84 1.315 . S
C92 O87 1.279 . S
C93 O94 1.315 . S
C93 O95 1.279 . S
O94 Cd86 2.223 . S
O94 C93 1.315 . S
O95 Cd85 2.240 . S
O95 C93 1.279 . S
O96 Cd86 2.297 . S
O96 C91 1.247 . S
O97 Cd86 2.439 . S
O97 C91 1.208 . S
O98 Cd99 2.223 . S
O98 C106 1.315 . S
Cd99 O98 2.223 . S
Cd99 O102 2.297 . S
Cd99 O103 2.439 . S
Cd99 O109 2.240 . S
Cd100 O101 2.240 . S
Cd100 O108 2.223 . S
Cd100 O110 2.297 . S
Cd100 O111 2.439 . S
O101 Cd100 2.240 . S
O101 C106 1.279 . S
O102 Cd99 2.297 . S
O102 C104 1.247 . S
O103 Cd99 2.439 . S
O103 C104 1.208 . S
C104 O102 1.247 . S
C104 O103 1.208 . S
C105 O110 1.247 . S
C105 O111 1.208 . S
C106 O98 1.315 . S
C106 O101 1.279 . S
C107 O108 1.315 . S
C107 O109 1.279 . S
O108 Cd100 2.223 . S
O108 C107 1.315 . S
O109 Cd99 2.240 . S
O109 C107 1.279 . S
O110 Cd100 2.297 . S
O110 C105 1.247 . S
O111 Cd100 2.439 . S
O111 C105 1.208 . S
O112 Cd113 2.223 . S
O112 C120 1.315 . S
Cd113 O112 2.223 . S
Cd113 O116 2.297 . S
Cd113 O117 2.439 1_556 S
Cd113 O123 2.240 1_556 S
Cd114 O115 2.240 . S
Cd114 O122 2.223 . S
Cd114 O124 2.297 1_556 S
Cd114 O125 2.439 1_556 S
O115 Cd114 2.240 . S
O115 C120 1.279 . S
O116 Cd113 2.297 . S
O116 C118 1.247 . S
O117 Cd113 2.439 1_554 S
O117 C118 1.208 1_554 S
C118 O116 1.247 . S
C118 O117 1.208 1_556 S
C119 O124 1.247 . S
C119 O125 1.208 . S
C120 O112 1.315 . S
C120 O115 1.279 . S
C121 O122 1.308 1_554 S
C121 O123 1.289 . S
O122 Cd114 2.223 . S
O122 C121 1.308 1_556 S
O123 Cd113 2.240 1_554 S
O123 C121 1.289 . S
O124 Cd114 2.297 1_554 S
O124 C119 1.247 . S
O125 Cd114 2.439 1_554 S
O125 C119 1.208 . S
O126 Cd127 2.223 . S
O126 C134 1.315 . S
Cd127 O126 2.223 . S
Cd127 O130 2.297 . S
Cd127 O131 2.439 . S
Cd127 O137 2.240 . S
Cd128 O129 2.240 . S
Cd128 O136 2.223 . S
Cd128 O138 2.297 . S
Cd128 O139 2.439 . S
O129 Cd128 2.240 . S
O129 C134 1.279 . S
O130 Cd127 2.297 . S
O130 C132 1.247 . S
O131 Cd127 2.439 . S
O131 C132 1.208 . S
C132 O130 1.247 . S
C132 O131 1.208 . S
C133 O138 1.247 . S
C133 O139 1.208 . S
C134 O126 1.315 . S
C134 O129 1.279 . S
C135 O136 1.315 . S
C135 O137 1.279 . S
O136 Cd128 2.223 . S
O136 C135 1.315 . S
O137 Cd127 2.240 . S
O137 C135 1.279 . S
O138 Cd128 2.297 . S
O138 C133 1.247 . S
O139 Cd128 2.439 . S
O139 C133 1.208 . S
O140 Cd141 2.223 . S
O140 C148 1.315 . S
Cd141 O140 2.223 . S
Cd141 O144 2.297 . S
Cd141 O145 2.439 . S
Cd141 O151 2.240 . S
Cd142 O143 2.240 . S
Cd142 O150 2.223 . S
Cd142 O152 2.297 . S
Cd142 O153 2.439 . S
O143 Cd142 2.240 . S
O143 C148 1.279 . S
O144 Cd141 2.297 . S
O144 C146 1.247 . S
O145 Cd141 2.439 . S
O145 C146 1.208 . S
C146 O144 1.247 . S
C146 O145 1.208 . S
C147 O152 1.247 . S
C147 O153 1.208 . S
C148 O140 1.315 . S
C148 O143 1.279 . S
C149 O150 1.315 . S
C149 O151 1.279 . S
O150 Cd142 2.223 . S
O150 C149 1.315 . S
O151 Cd141 2.240 . S
O151 C149 1.279 . S
O152 Cd142 2.297 . S
O152 C147 1.247 . S
O153 Cd142 2.439 . S
O153 C147 1.208 . S
O154 Cd155 2.223 . S
O154 C162 1.315 . S
Cd155 O154 2.223 . S
Cd155 O158 2.297 . S
Cd155 O159 2.439 1_556 S
Cd155 O165 2.240 1_556 S
Cd156 O157 2.240 . S
Cd156 O164 2.223 . S
Cd156 O166 2.297 1_556 S
Cd156 O167 2.439 1_556 S
O157 Cd156 2.240 . S
O157 C162 1.279 . S
O158 Cd155 2.297 . S
O158 C160 1.247 . S
O159 Cd155 2.439 1_554 S
O159 C160 1.208 1_554 S
C160 O158 1.247 . S
C160 O159 1.208 1_556 S
C161 O166 1.247 . S
C161 O167 1.208 . S
C162 O154 1.315 . S
C162 O157 1.279 . S
C163 O164 1.308 1_554 S
C163 O165 1.289 . S
O164 Cd156 2.223 . S
O164 C163 1.308 1_556 S
O165 Cd155 2.240 1_554 S
O165 C163 1.289 . S
O166 Cd156 2.297 1_554 S
O166 C161 1.247 . S
O167 Cd156 2.439 1_554 S
O167 C161 1.208 . S
C168 C169 1.349 . S
C168 C170 1.327 . S
C168 H193 0.950 . S
C169 C168 1.349 . S
C169 C185 1.349 . S
C170 C168 1.327 . S
C170 C189 1.429 . S
C170 H194 0.950 . S
C171 C188 1.574 . S
C171 C190 1.368 . S
C171 H195 0.949 . S
H172 C176 0.949 . S
C173 C174 1.349 . S
C173 C175 1.327 . S
C173 H196 0.950 . S
C174 C173 1.349 . S
C174 C186 1.349 . S
C175 C173 1.327 . S
C175 C191 1.429 . S
C175 H197 0.950 . S
C176 H172 0.949 . S
C176 C184 1.574 . S
C176 C192 1.368 . S
H177 C185 0.950 . S
H178 C183 0.950 . S
H179 C184 0.949 . S
H180 C186 0.950 . S
H181 C187 0.950 . S
H182 C188 0.949 . S
C183 H178 0.950 . S
C183 C185 1.327 . S
C183 C189 1.429 . S
C184 C176 1.574 . S
C184 H179 0.949 . S
C184 C190 1.368 . S
C185 C169 1.349 . S
C185 H177 0.950 . S
C185 C183 1.327 . S
C186 C174 1.349 . S
C186 H180 0.950 . S
C186 C187 1.327 . S
C187 H181 0.950 . S
C187 C186 1.327 . S
C187 C191 1.429 . S
C188 C171 1.574 . S
C188 H182 0.949 . S
C188 C192 1.368 . S
C189 C170 1.429 . S
C189 C183 1.429 . S
C189 C190 1.523 . S
C190 C171 1.368 . S
C190 C184 1.368 . S
C190 C189 1.523 . S
C191 C175 1.429 . S
C191 C187 1.429 . S
C191 C192 1.523 . S
C192 C176 1.368 . S
C192 C188 1.368 . S
C192 C191 1.523 . S
H193 C168 0.950 . S
H194 C170 0.950 . S
H195 C171 0.949 . S
H196 C173 0.950 . S
H197 C175 0.950 . S
C198 C199 1.349 . S
C198 C200 1.327 . S
C198 H223 0.950 . S
C199 C198 1.349 . S
C199 C215 1.349 . S
C200 C198 1.327 . S
C200 C219 1.429 . S
C200 H224 0.950 . S
C201 C218 1.574 . S
C201 C220 1.368 . S
C201 H225 0.949 . S
H202 C206 0.949 . S
C203 C204 1.349 . S
C203 C205 1.327 . S
C203 H226 0.950 . S
C204 C203 1.349 . S
C204 C216 1.349 . S
C205 C203 1.327 . S
C205 C221 1.429 . S
C205 H227 0.950 . S
C206 H202 0.949 . S
C206 C214 1.574 . S
C206 C222 1.368 . S
H207 C215 0.950 . S
H208 C213 0.950 . S
H209 C214 0.949 . S
H210 C216 0.950 . S
H211 C217 0.950 . S
H212 C218 0.949 . S
C213 H208 0.950 . S
C213 C215 1.327 . S
C213 C219 1.429 . S
C214 C206 1.574 . S
C214 H209 0.949 . S
C214 C220 1.368 . S
C215 C199 1.349 . S
C215 H207 0.950 . S
C215 C213 1.327 . S
C216 C204 1.349 . S
C216 H210 0.950 . S
C216 C217 1.327 . S
C217 H211 0.950 . S
C217 C216 1.327 . S
C217 C221 1.429 . S
C218 C201 1.574 . S
C218 H212 0.949 . S
C218 C222 1.368 . S
C219 C200 1.429 . S
C219 C213 1.429 . S
C219 C220 1.523 . S
C220 C201 1.368 . S
C220 C214 1.368 . S
C220 C219 1.523 . S
C221 C205 1.429 . S
C221 C217 1.429 . S
C221 C222 1.523 . S
C222 C206 1.368 . S
C222 C218 1.368 . S
C222 C221 1.523 . S
H223 C198 0.950 . S
H224 C200 0.950 . S
H225 C201 0.949 . S
H226 C203 0.950 . S
H227 C205 0.950 . S
C228 C229 1.340 1_556 S
C228 C230 1.327 . S
C228 H253 0.950 . S
C229 C228 1.340 1_554 S
C229 C245 1.358 . S
C230 C228 1.327 . S
C230 C249 1.427 1_556 S
C230 H254 0.950 . S
C231 C248 1.574 . S
C231 C250 1.366 . S
C231 H255 0.949 . S
H232 C236 0.949 . S
C233 C234 1.335 1_554 S
C233 C235 1.327 . S
C233 H256 0.950 . S
C234 C233 1.335 1_556 S
C234 C246 1.364 . S
C235 C233 1.327 . S
C235 C251 1.422 1_554 S
C235 H257 0.950 . S
C236 H232 0.949 . S
C236 C244 1.574 . S
C236 C252 1.372 . S
H237 C245 0.950 . S
H238 C243 0.950 . S
H239 C244 0.949 . S
H240 C246 0.950 . S
H241 C247 0.950 . S
H242 C248 0.949 . S
C243 H238 0.950 . S
C243 C245 1.327 . S
C243 C249 1.430 . S
C244 C236 1.574 . S
C244 H239 0.949 . S
C244 C250 1.371 1_556 S
C245 C229 1.358 . S
C245 H237 0.950 . S
C245 C243 1.327 . S
C246 C234 1.364 . S
C246 H240 0.950 . S
C246 C247 1.327 . S
C247 H241 0.950 . S
C247 C246 1.327 . S
C247 C251 1.436 . S
C248 C231 1.574 . S
C248 H242 0.949 . S
C248 C252 1.365 1_554 S
C249 C230 1.427 1_554 S
C249 C243 1.430 . S
C249 C250 1.523 . S
C250 C231 1.366 . S
C250 C244 1.371 1_554 S
C250 C249 1.523 . S
C251 C235 1.422 1_556 S
C251 C247 1.436 . S
C251 C252 1.523 . S
C252 C236 1.372 . S
C252 C248 1.365 1_556 S
C252 C251 1.523 . S
H253 C228 0.950 . S
H254 C230 0.950 . S
H255 C231 0.949 . S
H256 C233 0.950 . S
H257 C235 0.950 . S
C258 C259 1.349 . S
C258 C260 1.327 . S
C258 H283 0.950 . S
C259 C258 1.349 . S
C259 C275 1.349 . S
C260 C258 1.327 . S
C260 C279 1.429 . S
C260 H284 0.950 . S
C261 C278 1.574 . S
C261 C280 1.368 . S
C261 H285 0.949 . S
H262 C266 0.949 . S
C263 C264 1.349 . S
C263 C265 1.327 . S
C263 H286 0.950 . S
C264 C263 1.349 . S
C264 C276 1.349 . S
C265 C263 1.327 . S
C265 C281 1.429 . S
C265 H287 0.950 . S
C266 H262 0.949 . S
C266 C274 1.574 . S
C266 C282 1.368 . S
H267 C275 0.950 . S
H268 C273 0.950 . S
H269 C274 0.949 . S
H270 C276 0.950 . S
H271 C277 0.950 . S
H272 C278 0.949 . S
C273 H268 0.950 . S
C273 C275 1.327 . S
C273 C279 1.429 . S
C274 C266 1.574 . S
C274 H269 0.949 . S
C274 C280 1.368 . S
C275 C259 1.349 . S
C275 H267 0.950 . S
C275 C273 1.327 . S
C276 C264 1.349 . S
C276 H270 0.950 . S
C276 C277 1.327 . S
C277 H271 0.950 . S
C277 C276 1.327 . S
C277 C281 1.429 . S
C278 C261 1.574 . S
C278 H272 0.949 . S
C278 C282 1.368 . S
C279 C260 1.429 . S
C279 C273 1.429 . S
C279 C280 1.523 . S
C280 C261 1.368 . S
C280 C274 1.368 . S
C280 C279 1.523 . S
C281 C265 1.429 . S
C281 C277 1.429 . S
C281 C282 1.523 . S
C282 C266 1.368 . S
C282 C278 1.368 . S
C282 C281 1.523 . S
H283 C258 0.950 . S
H284 C260 0.950 . S
H285 C261 0.949 . S
H286 C263 0.950 . S
H287 C265 0.950 . S
C288 C289 1.349 . S
C288 C290 1.327 . S
C288 H313 0.950 . S
C289 C288 1.349 . S
C289 C305 1.349 . S
C290 C288 1.327 . S
C290 C309 1.429 . S
C290 H314 0.950 . S
C291 C308 1.574 . S
C291 C310 1.368 . S
C291 H315 0.949 . S
H292 C296 0.949 . S
C293 C294 1.349 . S
C293 C295 1.327 . S
C293 H316 0.950 . S
C294 C293 1.349 . S
C294 C306 1.349 . S
C295 C293 1.327 . S
C295 C311 1.429 . S
C295 H317 0.950 . S
C296 H292 0.949 . S
C296 C304 1.574 . S
C296 C312 1.368 . S
H297 C305 0.950 . S
H298 C303 0.950 . S
H299 C304 0.949 . S
H300 C306 0.950 . S
H301 C307 0.950 . S
H302 C308 0.949 . S
C303 H298 0.950 . S
C303 C305 1.327 . S
C303 C309 1.429 . S
C304 C296 1.574 . S
C304 H299 0.949 . S
C304 C310 1.368 . S
C305 C289 1.349 . S
C305 H297 0.950 . S
C305 C303 1.327 . S
C306 C294 1.349 . S
C306 H300 0.950 . S
C306 C307 1.327 . S
C307 H301 0.950 . S
C307 C306 1.327 . S
C307 C311 1.429 . S
C308 C291 1.574 . S
C308 H302 0.949 . S
C308 C312 1.368 . S
C309 C290 1.429 . S
C309 C303 1.429 . S
C309 C310 1.523 . S
C310 C291 1.368 . S
C310 C304 1.368 . S
C310 C309 1.523 . S
C311 C295 1.429 . S
C311 C307 1.429 . S
C311 C312 1.523 . S
C312 C296 1.368 . S
C312 C308 1.368 . S
C312 C311 1.523 . S
H313 C288 0.950 . S
H314 C290 0.950 . S
H315 C291 0.949 . S
H316 C293 0.950 . S
H317 C295 0.950 . S
C318 C319 1.359 . S
C318 C320 1.327 . S
C318 H343 0.950 . S
C319 C318 1.359 . S
C319 C335 1.338 1_556 S
C320 C318 1.327 . S
C320 C339 1.431 . S
C320 H344 0.950 . S
C321 C338 1.574 . S
C321 C340 1.371 1_554 S
C321 H345 0.949 . S
H322 C326 0.949 . S
C323 C324 1.366 . S
C323 C325 1.327 . S
C323 H346 0.950 . S
C324 C323 1.366 . S
C324 C336 1.332 1_554 S
C325 C323 1.327 . S
C325 C341 1.437 . S
C325 H347 0.950 . S
C326 H322 0.949 . S
C326 C334 1.574 . S
C326 C342 1.364 1_556 S
H327 C335 0.950 . S
H328 C333 0.950 . S
H329 C334 0.949 . S
H330 C336 0.950 . S
H331 C337 0.950 . S
H332 C338 0.949 . S
C333 H328 0.950 . S
C333 C335 1.327 . S
C333 C339 1.426 1_554 S
C334 C326 1.574 . S
C334 H329 0.949 . S
C334 C340 1.366 . S
C335 C319 1.338 1_554 S
C335 H327 0.950 . S
C335 C333 1.327 . S
C336 C324 1.332 1_556 S
C336 H330 0.950 . S
C336 C337 1.327 . S
C337 H331 0.950 . S
C337 C336 1.327 . S
C337 C341 1.420 1_556 S
C338 C321 1.574 . S
C338 H332 0.949 . S
C338 C342 1.373 . S
C339 C320 1.431 . S
C339 C333 1.426 1_556 S
C339 C340 1.523 . S
C340 C321 1.371 1_556 S
C340 C334 1.366 . S
C340 C339 1.523 . S
C341 C325 1.437 . S
C341 C337 1.420 1_554 S
C341 C342 1.523 . S
C342 C326 1.364 1_554 S
C342 C338 1.373 . S
C342 C341 1.523 . S
H343 C318 0.950 . S
H344 C320 0.950 . S
H345 C321 0.949 . S
H346 C323 0.950 . S
H347 C325 0.950 . S
C348 C349 1.349 . S
C348 C350 1.327 . S
C348 H373 0.950 . S
C349 C348 1.349 . S
C349 C365 1.349 . S
C350 C348 1.327 . S
C350 C369 1.429 . S
C350 H374 0.950 . S
C351 C368 1.574 . S
C351 C370 1.368 . S
C351 H375 0.949 . S
H352 C356 0.949 . S
C353 C354 1.349 . S
C353 C355 1.327 . S
C353 H376 0.950 . S
C354 C353 1.349 . S
C354 C366 1.349 . S
C355 C353 1.327 . S
C355 C371 1.429 . S
C355 H377 0.950 . S
C356 H352 0.949 . S
C356 C364 1.574 . S
C356 C372 1.368 . S
H357 C365 0.950 . S
H358 C363 0.950 . S
H359 C364 0.949 . S
H360 C366 0.950 . S
H361 C367 0.950 . S
H362 C368 0.949 . S
C363 H358 0.950 . S
C363 C365 1.327 . S
C363 C369 1.429 . S
C364 C356 1.574 . S
C364 H359 0.949 . S
C364 C370 1.368 . S
C365 C349 1.349 . S
C365 H357 0.950 . S
C365 C363 1.327 . S
C366 C354 1.349 . S
C366 H360 0.950 . S
C366 C367 1.327 . S
C367 H361 0.950 . S
C367 C366 1.327 . S
C367 C371 1.429 . S
C368 C351 1.574 . S
C368 H362 0.949 . S
C368 C372 1.368 . S
C369 C350 1.429 . S
C369 C363 1.429 . S
C369 C370 1.523 . S
C370 C351 1.368 . S
C370 C364 1.368 . S
C370 C369 1.523 . S
C371 C355 1.429 . S
C371 C367 1.429 . S
C371 C372 1.523 . S
C372 C356 1.368 . S
C372 C368 1.368 . S
C372 C371 1.523 . S
H373 C348 0.950 . S
H374 C350 0.950 . S
H375 C351 0.949 . S
H376 C353 0.950 . S
H377 C355 0.950 . S
C378 C379 1.349 . S
C378 C380 1.327 . S
C378 H403 0.950 . S
C379 C378 1.349 . S
C379 C395 1.349 . S
C380 C378 1.327 . S
C380 C399 1.429 . S
C380 H404 0.950 . S
C381 C398 1.574 1_655 S
C381 C400 1.368 . S
C381 H405 0.949 . S
H382 C386 0.949 . S
C383 C384 1.349 . S
C383 C385 1.327 . S
C383 H406 0.950 . S
C384 C383 1.349 . S
C384 C396 1.349 . S
C385 C383 1.327 . S
C385 C401 1.429 . S
C385 H407 0.950 . S
C386 H382 0.949 . S
C386 C394 1.574 1_455 S
C386 C402 1.368 . S
H387 C395 0.950 . S
H388 C393 0.950 . S
H389 C394 0.949 . S
H390 C396 0.950 . S
H391 C397 0.950 . S
H392 C398 0.949 . S
C393 H388 0.950 . S
C393 C395 1.327 . S
C393 C399 1.429 . S
C394 C386 1.574 1_655 S
C394 H389 0.949 . S
C394 C400 1.368 . S
C395 C379 1.349 . S
C395 H387 0.950 . S
C395 C393 1.327 . S
C396 C384 1.349 . S
C396 H390 0.950 . S
C396 C397 1.327 . S
C397 H391 0.950 . S
C397 C396 1.327 . S
C397 C401 1.429 . S
C398 C381 1.574 1_455 S
C398 H392 0.949 . S
C398 C402 1.368 . S
C399 C380 1.429 . S
C399 C393 1.429 . S
C399 C400 1.523 . S
C400 C381 1.368 . S
C400 C394 1.368 . S
C400 C399 1.523 . S
C401 C385 1.429 . S
C401 C397 1.429 . S
C401 C402 1.523 . S
C402 C386 1.368 . S
C402 C398 1.368 . S
C402 C401 1.523 . S
H403 C378 0.950 . S
H404 C380 0.950 . S
H405 C381 0.949 . S
H406 C383 0.950 . S
H407 C385 0.950 . S
C408 C409 1.346 . S
C408 C410 1.327 . S
C408 H433 0.950 . S
C409 C408 1.346 . S
C409 C425 1.352 1_556 S
C410 C408 1.327 . S
C410 C429 1.431 1_556 S
C410 H434 0.950 . S
C411 C428 1.574 1_545 S
C411 C430 1.367 . S
C411 H435 0.949 . S
H412 C416 0.949 . S
C413 C414 1.353 . S
C413 C415 1.327 . S
C413 H436 0.950 . S
C414 C413 1.353 . S
C414 C426 1.344 1_554 S
C415 C413 1.327 . S
C415 C431 1.431 . S
C415 H437 0.950 . S
C416 H412 0.949 . S
C416 C424 1.574 1_565 S
C416 C432 1.367 1_556 S
H417 C425 0.950 . S
H418 C423 0.950 . S
H419 C424 0.949 . S
H420 C426 0.950 . S
H421 C427 0.950 . S
H422 C428 0.949 . S
C423 H418 0.950 . S
C423 C425 1.327 . S
C423 C429 1.426 . S
C424 C416 1.574 1_545 S
C424 H419 0.949 . S
C424 C430 1.369 1_556 S
C425 C409 1.352 1_554 S
C425 H417 0.950 . S
C425 C423 1.327 . S
C426 C414 1.344 1_556 S
C426 H420 0.950 . S
C426 C427 1.327 . S
C427 H421 0.950 . S
C427 C426 1.327 . S
C427 C431 1.426 1_556 S
C428 C411 1.574 1_565 S
C428 H422 0.949 . S
C428 C432 1.369 . S
C429 C410 1.431 1_554 S
C429 C423 1.426 . S
C429 C430 1.523 . S
C430 C411 1.367 . S
C430 C424 1.369 1_554 S
C430 C429 1.523 . S
C431 C415 1.431 . S
C431 C427 1.426 1_554 S
C431 C432 1.523 . S
C432 C416 1.367 1_554 S
C432 C428 1.369 . S
C432 C431 1.523 . S
H433 C408 0.950 . S
H434 C410 0.950 . S
H435 C411 0.949 . S
H436 C413 0.950 . S
H437 C415 0.950 . S
C438 C439 1.349 . S
C438 C440 1.327 . S
C438 H463 0.950 . S
C439 C438 1.349 . S
C439 C455 1.349 . S
C440 C438 1.327 . S
C440 C459 1.429 . S
C440 H464 0.950 . S
C441 C458 1.574 . S
C441 C460 1.368 . S
C441 H465 0.949 . S
H442 C446 0.949 . S
C443 C444 1.349 . S
C443 C445 1.327 . S
C443 H466 0.950 . S
C444 C443 1.349 . S
C444 C456 1.349 . S
C445 C443 1.327 . S
C445 C461 1.429 . S
C445 H467 0.950 . S
C446 H442 0.949 . S
C446 C454 1.574 . S
C446 C462 1.368 . S
H447 C455 0.950 . S
H448 C453 0.950 . S
H449 C454 0.949 . S
H450 C456 0.950 . S
H451 C457 0.950 . S
H452 C458 0.949 . S
C453 H448 0.950 . S
C453 C455 1.327 . S
C453 C459 1.429 . S
C454 C446 1.574 . S
C454 H449 0.949 . S
C454 C460 1.368 . S
C455 C439 1.349 . S
C455 H447 0.950 . S
C455 C453 1.327 . S
C456 C444 1.349 . S
C456 H450 0.950 . S
C456 C457 1.327 . S
C457 H451 0.950 . S
C457 C456 1.327 . S
C457 C461 1.429 . S
C458 C441 1.574 . S
C458 H452 0.949 . S
C458 C462 1.368 . S
C459 C440 1.429 . S
C459 C453 1.429 . S
C459 C460 1.523 . S
C460 C441 1.368 . S
C460 C454 1.368 . S
C460 C459 1.523 . S
C461 C445 1.429 . S
C461 C457 1.429 . S
C461 C462 1.523 . S
C462 C446 1.368 . S
C462 C458 1.368 . S
C462 C461 1.523 . S
H463 C438 0.950 . S
H464 C440 0.950 . S
H465 C441 0.949 . S
H466 C443 0.950 . S
H467 C445 0.950 . S
C468 C469 1.349 . S
C468 C470 1.327 . S
C468 H493 0.950 . S
C469 C468 1.349 . S
C469 C485 1.349 . S
C470 C468 1.327 . S
C470 C489 1.429 . S
C470 H494 0.950 . S
C471 C488 1.574 1_455 S
C471 C490 1.368 . S
C471 H495 0.949 . S
H472 C476 0.949 . S
C473 C474 1.349 . S
C473 C475 1.327 . S
C473 H496 0.950 . S
C474 C473 1.349 . S
C474 C486 1.349 . S
C475 C473 1.327 . S
C475 C491 1.429 . S
C475 H497 0.950 . S
C476 H472 0.949 . S
C476 C484 1.574 1_655 S
C476 C492 1.368 . S
H477 C485 0.950 . S
H478 C483 0.950 . S
H479 C484 0.949 . S
H480 C486 0.950 . S
H481 C487 0.950 . S
H482 C488 0.949 . S
C483 H478 0.950 . S
C483 C485 1.327 . S
C483 C489 1.429 . S
C484 C476 1.574 1_455 S
C484 H479 0.949 . S
C484 C490 1.368 . S
C485 C469 1.349 . S
C485 H477 0.950 . S
C485 C483 1.327 . S
C486 C474 1.349 . S
C486 H480 0.950 . S
C486 C487 1.327 . S
C487 H481 0.950 . S
C487 C486 1.327 . S
C487 C491 1.429 . S
C488 C471 1.574 1_655 S
C488 H482 0.949 . S
C488 C492 1.368 . S
C489 C470 1.429 . S
C489 C483 1.429 . S
C489 C490 1.523 . S
C490 C471 1.368 . S
C490 C484 1.368 . S
C490 C489 1.523 . S
C491 C475 1.429 . S
C491 C487 1.429 . S
C491 C492 1.523 . S
C492 C476 1.368 . S
C492 C488 1.368 . S
C492 C491 1.523 . S
H493 C468 0.950 . S
H494 C470 0.950 . S
H495 C471 0.949 . S
H496 C473 0.950 . S
H497 C475 0.950 . S
C498 C499 1.352 1_556 S
C498 C500 1.327 . S
C498 H523 0.950 . S
C499 C498 1.352 1_554 S
C499 C515 1.346 . S
C500 C498 1.327 . S
C500 C519 1.426 . S
C500 H524 0.950 . S
C501 C518 1.574 1_545 S
C501 C520 1.369 1_554 S
C501 H525 0.949 . S
H502 C506 0.949 . S
C503 C504 1.344 1_554 S
C503 C505 1.327 . S
C503 H526 0.950 . S
C504 C503 1.344 1_556 S
C504 C516 1.353 . S
C505 C503 1.327 . S
C505 C521 1.426 1_554 S
C505 H527 0.950 . S
C506 H502 0.949 . S
C506 C514 1.574 1_565 S
C506 C522 1.369 . S
H507 C515 0.950 . S
H508 C513 0.950 . S
H509 C514 0.949 . S
H510 C516 0.950 . S
H511 C517 0.950 . S
H512 C518 0.949 . S
C513 H508 0.950 . S
C513 C515 1.327 . S
C513 C519 1.431 1_554 S
C514 C506 1.574 1_545 S
C514 H509 0.949 . S
C514 C520 1.367 . S
C515 C499 1.346 . S
C515 H507 0.950 . S
C515 C513 1.327 . S
C516 C504 1.353 . S
C516 H510 0.950 . S
C516 C517 1.327 . S
C517 H511 0.950 . S
C517 C516 1.327 . S
C517 C521 1.431 . S
C518 C501 1.574 1_565 S
C518 H512 0.949 . S
C518 C522 1.367 1_554 S
C519 C500 1.426 . S
C519 C513 1.431 1_556 S
C519 C520 1.523 . S
C520 C501 1.369 1_556 S
C520 C514 1.367 . S
C520 C519 1.523 . S
C521 C505 1.426 1_556 S
C521 C517 1.431 . S
C521 C522 1.523 . S
C522 C506 1.369 . S
C522 C518 1.367 1_556 S
C522 C521 1.523 . S
H523 C498 0.950 . S
H524 C500 0.950 . S
H525 C501 0.949 . S
H526 C503 0.950 . S
H527 C505 0.950 . S
C528 C529 1.349 . S
C528 C530 1.327 . S
C528 H553 0.950 . S
C529 C528 1.349 . S
C529 C545 1.349 . S
C530 C528 1.327 . S
C530 C549 1.429 . S
C530 H554 0.950 . S
C531 C548 1.574 1_655 S
C531 C550 1.368 . S
C531 H555 0.949 . S
H532 C536 0.949 . S
C533 C534 1.349 . S
C533 C535 1.327 . S
C533 H556 0.950 . S
C534 C533 1.349 . S
C534 C546 1.349 . S
C535 C533 1.327 . S
C535 C551 1.429 . S
C535 H557 0.950 . S
C536 H532 0.949 . S
C536 C544 1.574 1_455 S
C536 C552 1.368 . S
H537 C545 0.950 . S
H538 C543 0.950 . S
H539 C544 0.949 . S
H540 C546 0.950 . S
H541 C547 0.950 . S
H542 C548 0.949 . S
C543 H538 0.950 . S
C543 C545 1.327 . S
C543 C549 1.429 . S
C544 C536 1.574 1_655 S
C544 H539 0.949 . S
C544 C550 1.368 . S
C545 C529 1.349 . S
C545 H537 0.950 . S
C545 C543 1.327 . S
C546 C534 1.349 . S
C546 H540 0.950 . S
C546 C547 1.327 . S
C547 H541 0.950 . S
C547 C546 1.327 . S
C547 C551 1.429 . S
C548 C531 1.574 1_455 S
C548 H542 0.949 . S
C548 C552 1.368 . S
C549 C530 1.429 . S
C549 C543 1.429 . S
C549 C550 1.523 . S
C550 C531 1.368 . S
C550 C544 1.368 . S
C550 C549 1.523 . S
C551 C535 1.429 . S
C551 C547 1.429 . S
C551 C552 1.523 . S
C552 C536 1.368 . S
C552 C548 1.368 . S
C552 C551 1.523 . S
H553 C528 0.950 . S
H554 C530 0.950 . S
H555 C531 0.949 . S
H556 C533 0.950 . S
H557 C535 0.950 . S
C558 C559 1.349 . S
C558 C560 1.327 . S
C558 H583 0.950 . S
C559 C558 1.349 . S
C559 C575 1.349 . S
C560 C558 1.327 . S
C560 C579 1.429 . S
C560 H584 0.950 . S
C561 C578 1.574 . S
C561 C580 1.368 1_565 S
C561 H585 0.949 . S
H562 C566 0.949 . S
C563 C564 1.349 . S
C563 C565 1.327 . S
C563 H586 0.950 . S
C564 C563 1.349 . S
C564 C576 1.349 . S
C565 C563 1.327 . S
C565 C581 1.429 . S
C565 H587 0.950 . S
C566 H562 0.949 . S
C566 C574 1.574 . S
C566 C582 1.368 1_545 S
H567 C575 0.950 . S
H568 C573 0.950 1_565 S
H569 C574 0.949 . S
H570 C576 0.950 . S
H571 C577 0.950 1_545 S
H572 C578 0.949 . S
C573 H568 0.950 1_545 S
C573 C575 1.327 . S
C573 C579 1.429 . S
C574 C566 1.574 . S
C574 H569 0.949 . S
C574 C580 1.368 . S
C575 C559 1.349 . S
C575 H567 0.950 . S
C575 C573 1.327 . S
C576 C564 1.349 . S
C576 H570 0.950 . S
C576 C577 1.327 . S
C577 H571 0.950 1_565 S
C577 C576 1.327 . S
C577 C581 1.429 . S
C578 C561 1.574 . S
C578 H572 0.949 . S
C578 C582 1.368 . S
C579 C560 1.429 . S
C579 C573 1.429 . S
C579 C580 1.523 . S
C580 C561 1.368 1_545 S
C580 C574 1.368 . S
C580 C579 1.523 . S
C581 C565 1.429 . S
C581 C577 1.429 . S
C581 C582 1.523 . S
C582 C566 1.368 1_565 S
C582 C578 1.368 . S
C582 C581 1.523 . S
H583 C558 0.950 . S
H584 C560 0.950 . S
H585 C561 0.949 . S
H586 C563 0.950 . S
H587 C565 0.950 . S
C588 C589 1.349 . S
C588 C590 1.327 . S
C588 H613 0.950 . S
C589 C588 1.349 . S
C589 C605 1.349 . S
C590 C588 1.327 . S
C590 C609 1.429 . S
C590 H614 0.950 . S
C591 C608 1.574 . S
C591 C610 1.368 . S
C591 H615 0.949 . S
H592 C596 0.949 . S
C593 C594 1.349 . S
C593 C595 1.327 . S
C593 H616 0.950 . S
C594 C593 1.349 . S
C594 C606 1.349 . S
C595 C593 1.327 . S
C595 C611 1.429 . S
C595 H617 0.950 . S
C596 H592 0.949 . S
C596 C604 1.574 . S
C596 C612 1.368 . S
H597 C605 0.950 . S
H598 C603 0.950 . S
H599 C604 0.949 . S
H600 C606 0.950 . S
H601 C607 0.950 . S
H602 C608 0.949 . S
C603 H598 0.950 . S
C603 C605 1.327 . S
C603 C609 1.429 . S
C604 C596 1.574 . S
C604 H599 0.949 . S
C604 C610 1.368 . S
C605 C589 1.349 . S
C605 H597 0.950 . S
C605 C603 1.327 . S
C606 C594 1.349 . S
C606 H600 0.950 . S
C606 C607 1.327 . S
C607 H601 0.950 . S
C607 C606 1.327 . S
C607 C611 1.429 . S
C608 C591 1.574 . S
C608 H602 0.949 . S
C608 C612 1.368 . S
C609 C590 1.429 . S
C609 C603 1.429 . S
C609 C610 1.523 . S
C610 C591 1.368 . S
C610 C604 1.368 . S
C610 C609 1.523 . S
C611 C595 1.429 . S
C611 C607 1.429 . S
C611 C612 1.523 . S
C612 C596 1.368 . S
C612 C608 1.368 . S
C612 C611 1.523 . S
H613 C588 0.950 . S
H614 C590 0.950 . S
H615 C591 0.949 . S
H616 C593 0.950 . S
H617 C595 0.950 . S
C618 C619 1.349 . S
C618 C620 1.327 . S
C618 H643 0.950 . S
C619 C618 1.349 . S
C619 C635 1.349 . S
C620 C618 1.327 . S
C620 C639 1.429 . S
C620 H644 0.950 . S
C621 C638 1.574 1_455 S
C621 C640 1.368 . S
C621 H645 0.949 . S
H622 C626 0.949 . S
C623 C624 1.349 . S
C623 C625 1.327 . S
C623 H646 0.950 . S
C624 C623 1.349 . S
C624 C636 1.349 . S
C625 C623 1.327 . S
C625 C641 1.429 . S
C625 H647 0.950 . S
C626 H622 0.949 . S
C626 C634 1.574 1_655 S
C626 C642 1.368 . S
H627 C635 0.950 . S
H628 C633 0.950 . S
H629 C634 0.949 . S
H630 C636 0.950 . S
H631 C637 0.950 . S
H632 C638 0.949 . S
C633 H628 0.950 . S
C633 C635 1.327 . S
C633 C639 1.429 . S
C634 C626 1.574 1_455 S
C634 H629 0.949 . S
C634 C640 1.368 . S
C635 C619 1.349 . S
C635 H627 0.950 . S
C635 C633 1.327 . S
C636 C624 1.349 . S
C636 H630 0.950 . S
C636 C637 1.327 . S
C637 H631 0.950 . S
C637 C636 1.327 . S
C637 C641 1.429 . S
C638 C621 1.574 1_655 S
C638 H632 0.949 . S
C638 C642 1.368 . S
C639 C620 1.429 . S
C639 C633 1.429 . S
C639 C640 1.523 . S
C640 C621 1.368 . S
C640 C634 1.368 . S
C640 C639 1.523 . S
C641 C625 1.429 . S
C641 C637 1.429 . S
C641 C642 1.523 . S
C642 C626 1.368 . S
C642 C638 1.368 . S
C642 C641 1.523 . S
H643 C618 0.950 . S
H644 C620 0.950 . S
H645 C621 0.949 . S
H646 C623 0.950 . S
H647 C625 0.950 . S
C648 C649 1.349 . S
C648 C650 1.327 . S
C648 H673 0.950 . S
C649 C648 1.349 . S
C649 C665 1.349 . S
C650 C648 1.327 . S
C650 C669 1.429 . S
C650 H674 0.950 . S
C651 C668 1.574 . S
C651 C670 1.368 1_565 S
C651 H675 0.949 . S
H652 C656 0.949 . S
C653 C654 1.349 . S
C653 C655 1.327 . S
C653 H676 0.950 . S
C654 C653 1.349 . S
C654 C666 1.349 . S
C655 C653 1.327 . S
C655 C671 1.429 . S
C655 H677 0.950 . S
C656 H652 0.949 . S
C656 C664 1.574 . S
C656 C672 1.368 1_545 S
H657 C665 0.950 . S
H658 C663 0.950 1_565 S
H659 C664 0.949 . S
H660 C666 0.950 . S
H661 C667 0.950 1_545 S
H662 C668 0.949 . S
C663 H658 0.950 1_545 S
C663 C665 1.327 . S
C663 C669 1.429 . S
C664 C656 1.574 . S
C664 H659 0.949 . S
C664 C670 1.368 . S
C665 C649 1.349 . S
C665 H657 0.950 . S
C665 C663 1.327 . S
C666 C654 1.349 . S
C666 H660 0.950 . S
C666 C667 1.327 . S
C667 H661 0.950 1_565 S
C667 C666 1.327 . S
C667 C671 1.429 . S
C668 C651 1.574 . S
C668 H662 0.949 . S
C668 C672 1.368 . S
C669 C650 1.429 . S
C669 C663 1.429 . S
C669 C670 1.523 . S
C670 C651 1.368 1_545 S
C670 C664 1.368 . S
C670 C669 1.523 . S
C671 C655 1.429 . S
C671 C667 1.429 . S
C671 C672 1.523 . S
C672 C656 1.368 1_565 S
C672 C668 1.368 . S
C672 C671 1.523 . S
H673 C648 0.950 . S
H674 C650 0.950 . S
H675 C651 0.949 . S
H676 C653 0.950 . S
H677 C655 0.950 . S
C678 C679 1.349 . S
C678 C680 1.327 . S
C678 H703 0.950 . S
C679 C678 1.349 . S
C679 C695 1.349 . S
C680 C678 1.327 . S
C680 C699 1.429 . S
C680 H704 0.950 . S
C681 C698 1.574 . S
C681 C700 1.368 . S
C681 H705 0.949 . S
H682 C686 0.949 . S
C683 C684 1.349 . S
C683 C685 1.327 . S
C683 H706 0.950 . S
C684 C683 1.349 . S
C684 C696 1.349 . S
C685 C683 1.327 . S
C685 C701 1.429 . S
C685 H707 0.950 . S
C686 H682 0.949 . S
C686 C694 1.574 . S
C686 C702 1.368 . S
H687 C695 0.950 . S
H688 C693 0.950 . S
H689 C694 0.949 . S
H690 C696 0.950 . S
H691 C697 0.950 . S
H692 C698 0.949 . S
C693 H688 0.950 . S
C693 C695 1.327 . S
C693 C699 1.429 . S
C694 C686 1.574 . S
C694 H689 0.949 . S
C694 C700 1.368 . S
C695 C679 1.349 . S
C695 H687 0.950 . S
C695 C693 1.327 . S
C696 C684 1.349 . S
C696 H690 0.950 . S
C696 C697 1.327 . S
C697 H691 0.950 . S
C697 C696 1.327 . S
C697 C701 1.429 . S
C698 C681 1.574 . S
C698 H692 0.949 . S
C698 C702 1.368 . S
C699 C680 1.429 . S
C699 C693 1.429 . S
C699 C700 1.523 . S
C700 C681 1.368 . S
C700 C694 1.368 . S
C700 C699 1.523 . S
C701 C685 1.429 . S
C701 C697 1.429 . S
C701 C702 1.523 . S
C702 C686 1.368 . S
C702 C698 1.368 . S
C702 C701 1.523 . S
H703 C678 0.950 . S
H704 C680 0.950 . S
H705 C681 0.949 . S
H706 C683 0.950 . S
H707 C685 0.950 . S
C708 C709 1.349 . S
C708 C710 1.327 . S
C708 H733 0.950 . S
C709 C708 1.349 . S
C709 C725 1.349 . S
C710 C708 1.327 . S
C710 C729 1.429 . S
C710 H734 0.950 . S
C711 C728 1.574 . S
C711 C730 1.368 . S
C711 H735 0.949 . S
H712 C716 0.949 . S
C713 C714 1.349 . S
C713 C715 1.327 . S
C713 H736 0.950 . S
C714 C713 1.349 . S
C714 C726 1.349 . S
C715 C713 1.327 . S
C715 C731 1.429 . S
C715 H737 0.950 . S
C716 H712 0.949 . S
C716 C724 1.574 . S
C716 C732 1.368 . S
H717 C725 0.950 . S
H718 C723 0.950 . S
H719 C724 0.949 . S
H720 C726 0.950 . S
H721 C727 0.950 . S
H722 C728 0.949 . S
C723 H718 0.950 . S
C723 C725 1.327 . S
C723 C729 1.429 . S
C724 C716 1.574 . S
C724 H719 0.949 . S
C724 C730 1.368 . S
C725 C709 1.349 . S
C725 H717 0.950 . S
C725 C723 1.327 . S
C726 C714 1.349 . S
C726 H720 0.950 . S
C726 C727 1.327 . S
C727 H721 0.950 . S
C727 C726 1.327 . S
C727 C731 1.429 . S
C728 C711 1.574 . S
C728 H722 0.949 . S
C728 C732 1.368 . S
C729 C710 1.429 . S
C729 C723 1.429 . S
C729 C730 1.523 . S
C730 C711 1.368 . S
C730 C724 1.368 . S
C730 C729 1.523 . S
C731 C715 1.429 . S
C731 C727 1.429 . S
C731 C732 1.523 . S
C732 C716 1.368 . S
C732 C728 1.368 . S
C732 C731 1.523 . S
H733 C708 0.950 . S
H734 C710 0.950 . S
H735 C711 0.949 . S
H736 C713 0.950 . S
H737 C715 0.950 . S
C738 C739 1.349 . S
C738 C740 1.327 . S
C738 H763 0.950 . S
C739 C738 1.349 . S
C739 C755 1.349 . S
C740 C738 1.327 . S
C740 C759 1.429 . S
C740 H764 0.950 . S
C741 C758 1.574 . S
C741 C760 1.368 . S
C741 H765 0.949 . S
H742 C746 0.949 . S
C743 C744 1.349 . S
C743 C745 1.327 . S
C743 H766 0.950 . S
C744 C743 1.349 . S
C744 C756 1.349 . S
C745 C743 1.327 . S
C745 C761 1.429 . S
C745 H767 0.950 . S
C746 H742 0.949 . S
C746 C754 1.574 . S
C746 C762 1.368 . S
H747 C755 0.950 . S
H748 C753 0.950 . S
H749 C754 0.949 . S
H750 C756 0.950 . S
H751 C757 0.950 . S
H752 C758 0.949 . S
C753 H748 0.950 . S
C753 C755 1.327 . S
C753 C759 1.429 . S
C754 C746 1.574 . S
C754 H749 0.949 . S
C754 C760 1.368 . S
C755 C739 1.349 . S
C755 H747 0.950 . S
C755 C753 1.327 . S
C756 C744 1.349 . S
C756 H750 0.950 . S
C756 C757 1.327 . S
C757 H751 0.950 . S
C757 C756 1.327 . S
C757 C761 1.429 . S
C758 C741 1.574 . S
C758 H752 0.949 . S
C758 C762 1.368 . S
C759 C740 1.429 . S
C759 C753 1.429 . S
C759 C760 1.523 . S
C760 C741 1.368 . S
C760 C754 1.368 . S
C760 C759 1.523 . S
C761 C745 1.429 . S
C761 C757 1.429 . S
C761 C762 1.523 . S
C762 C746 1.368 . S
C762 C758 1.368 . S
C762 C761 1.523 . S
H763 C738 0.950 . S
H764 C740 0.950 . S
H765 C741 0.949 . S
H766 C743 0.950 . S
H767 C745 0.950 . S
C768 C769 1.349 . S
C768 C770 1.327 . S
C768 H793 0.950 . S
C769 C768 1.349 . S
C769 C785 1.349 . S
C770 C768 1.327 . S
C770 C789 1.429 . S
C770 H794 0.950 . S
C771 C788 1.574 . S
C771 C790 1.368 . S
C771 H795 0.949 . S
H772 C776 0.949 . S
C773 C774 1.349 . S
C773 C775 1.327 . S
C773 H796 0.950 . S
C774 C773 1.349 . S
C774 C786 1.349 . S
C775 C773 1.327 . S
C775 C791 1.429 . S
C775 H797 0.950 . S
C776 H772 0.949 . S
C776 C784 1.574 . S
C776 C792 1.368 . S
H777 C785 0.950 . S
H778 C783 0.950 . S
H779 C784 0.949 . S
H780 C786 0.950 . S
H781 C787 0.950 . S
H782 C788 0.949 . S
C783 H778 0.950 . S
C783 C785 1.327 . S
C783 C789 1.429 . S
C784 C776 1.574 . S
C784 H779 0.949 . S
C784 C790 1.368 . S
C785 C769 1.349 . S
C785 H777 0.950 . S
C785 C783 1.327 . S
C786 C774 1.349 . S
C786 H780 0.950 . S
C786 C787 1.327 . S
C787 H781 0.950 . S
C787 C786 1.327 . S
C787 C791 1.429 . S
C788 C771 1.574 . S
C788 H782 0.949 . S
C788 C792 1.368 . S
C789 C770 1.429 . S
C789 C783 1.429 . S
C789 C790 1.523 . S
C790 C771 1.368 . S
C790 C784 1.368 . S
C790 C789 1.523 . S
C791 C775 1.429 . S
C791 C787 1.429 . S
C791 C792 1.523 . S
C792 C776 1.368 . S
C792 C788 1.368 . S
C792 C791 1.523 . S
H793 C768 0.950 . S
H794 C770 0.950 . S
H795 C771 0.949 . S
H796 C773 0.950 . S
H797 C775 0.950 . S
C798 C799 1.349 . S
C798 C800 1.327 . S
C798 H823 0.950 . S
C799 C798 1.349 . S
C799 C815 1.349 . S
C800 C798 1.327 . S
C800 C819 1.429 . S
C800 H824 0.950 . S
C801 C818 1.574 . S
C801 C820 1.368 . S
C801 H825 0.949 . S
H802 C806 0.949 . S
C803 C804 1.349 . S
C803 C805 1.327 . S
C803 H826 0.950 . S
C804 C803 1.349 . S
C804 C816 1.349 . S
C805 C803 1.327 . S
C805 C821 1.429 . S
C805 H827 0.950 . S
C806 H802 0.949 . S
C806 C814 1.574 . S
C806 C822 1.368 . S
H807 C815 0.950 . S
H808 C813 0.950 . S
H809 C814 0.949 . S
H810 C816 0.950 . S
H811 C817 0.950 . S
H812 C818 0.949 . S
C813 H808 0.950 . S
C813 C815 1.327 . S
C813 C819 1.429 . S
C814 C806 1.574 . S
C814 H809 0.949 . S
C814 C820 1.368 . S
C815 C799 1.349 . S
C815 H807 0.950 . S
C815 C813 1.327 . S
C816 C804 1.349 . S
C816 H810 0.950 . S
C816 C817 1.327 . S
C817 H811 0.950 . S
C817 C816 1.327 . S
C817 C821 1.429 . S
C818 C801 1.574 . S
C818 H812 0.949 . S
C818 C822 1.368 . S
C819 C800 1.429 . S
C819 C813 1.429 . S
C819 C820 1.523 . S
C820 C801 1.368 . S
C820 C814 1.368 . S
C820 C819 1.523 . S
C821 C805 1.429 . S
C821 C817 1.429 . S
C821 C822 1.523 . S
C822 C806 1.368 . S
C822 C818 1.368 . S
C822 C821 1.523 . S
H823 C798 0.950 . S
H824 C800 0.950 . S
H825 C801 0.949 . S
H826 C803 0.950 . S
H827 C805 0.950 . S
C828 C829 1.349 . S
C828 C830 1.327 . S
C828 H853 0.950 . S
C829 C828 1.349 . S
C829 C845 1.349 . S
C830 C828 1.327 . S
C830 C849 1.429 . S
C830 H854 0.950 . S
C831 C848 1.574 . S
C831 C850 1.368 . S
C831 H855 0.949 . S
H832 C836 0.949 . S
C833 C834 1.349 . S
C833 C835 1.327 . S
C833 H856 0.950 . S
C834 C833 1.349 . S
C834 C846 1.349 . S
C835 C833 1.327 . S
C835 C851 1.429 . S
C835 H857 0.950 . S
C836 H832 0.949 . S
C836 C844 1.574 . S
C836 C852 1.368 . S
H837 C845 0.950 . S
H838 C843 0.950 . S
H839 C844 0.949 . S
H840 C846 0.950 . S
H841 C847 0.950 . S
H842 C848 0.949 . S
C843 H838 0.950 . S
C843 C845 1.327 . S
C843 C849 1.429 . S
C844 C836 1.574 . S
C844 H839 0.949 . S
C844 C850 1.368 . S
C845 C829 1.349 . S
C845 H837 0.950 . S
C845 C843 1.327 . S
C846 C834 1.349 . S
C846 H840 0.950 . S
C846 C847 1.327 . S
C847 H841 0.950 . S
C847 C846 1.327 . S
C847 C851 1.429 . S
C848 C831 1.574 . S
C848 H842 0.949 . S
C848 C852 1.368 . S
C849 C830 1.429 . S
C849 C843 1.429 . S
C849 C850 1.523 . S
C850 C831 1.368 . S
C850 C844 1.368 . S
C850 C849 1.523 . S
C851 C835 1.429 . S
C851 C847 1.429 . S
C851 C852 1.523 . S
C852 C836 1.368 . S
C852 C848 1.368 . S
C852 C851 1.523 . S
H853 C828 0.950 . S
H854 C830 0.950 . S
H855 C831 0.949 . S
H856 C833 0.950 . S
H857 C835 0.950 . S
C858 C859 1.349 . S
C858 C860 1.327 . S
C858 H883 0.950 . S
C859 C858 1.349 . S
C859 C875 1.349 . S
C860 C858 1.327 . S
C860 C879 1.429 . S
C860 H884 0.950 . S
C861 C878 1.574 . S
C861 C880 1.368 . S
C861 H885 0.949 . S
H862 C866 0.949 . S
C863 C864 1.349 . S
C863 C865 1.327 . S
C863 H886 0.950 . S
C864 C863 1.349 . S
C864 C876 1.349 . S
C865 C863 1.327 . S
C865 C881 1.429 . S
C865 H887 0.950 . S
C866 H862 0.949 . S
C866 C874 1.574 . S
C866 C882 1.368 . S
H867 C875 0.950 . S
H868 C873 0.950 . S
H869 C874 0.949 . S
H870 C876 0.950 . S
H871 C877 0.950 . S
H872 C878 0.949 . S
C873 H868 0.950 . S
C873 C875 1.327 . S
C873 C879 1.429 . S
C874 C866 1.574 . S
C874 H869 0.949 . S
C874 C880 1.368 . S
C875 C859 1.349 . S
C875 H867 0.950 . S
C875 C873 1.327 . S
C876 C864 1.349 . S
C876 H870 0.950 . S
C876 C877 1.327 . S
C877 H871 0.950 . S
C877 C876 1.327 . S
C877 C881 1.429 . S
C878 C861 1.574 . S
C878 H872 0.949 . S
C878 C882 1.368 . S
C879 C860 1.429 . S
C879 C873 1.429 . S
C879 C880 1.523 . S
C880 C861 1.368 . S
C880 C874 1.368 . S
C880 C879 1.523 . S
C881 C865 1.429 . S
C881 C877 1.429 . S
C881 C882 1.523 . S
C882 C866 1.368 . S
C882 C878 1.368 . S
C882 C881 1.523 . S
H883 C858 0.950 . S
H884 C860 0.950 . S
H885 C861 0.949 . S
H886 C863 0.950 . S
H887 C865 0.950 . S
C169 C7 1.657 . S
C174 C91 1.664 . S
C199 C21 1.663 . S
C204 C105 1.656 . S
C229 C34 1.569 . S
C234 C118 1.569 . S
C259 C133 1.664 . S
C264 C49 1.657 . S
C289 C63 1.663 . S
C294 C147 1.657 . S
C319 C160 1.569 . S
C324 C76 1.569 . S
C349 C8 1.392 . S
C354 C134 1.392 . S
C379 C22 1.392 . S
C384 C148 1.392 . S
C409 C163 1.308 1_556 S
C414 C37 1.308 1_554 S
C439 C92 1.392 . S
C444 C50 1.392 . S
C469 C64 1.392 . S
C474 C106 1.392 . S
C499 C79 1.308 1_554 S
C504 C121 1.308 1_556 S
C529 C161 1.530 . S
C534 C6 1.524 . S
C559 C20 1.711 . S
C564 C90 1.711 . S
C589 C35 1.530 . S
C594 C104 1.524 . S
C619 C119 1.530 . S
C624 C48 1.524 . S
C649 C132 1.711 . S
C654 C62 1.711 . S
C679 C77 1.530 . S
C684 C146 1.524 . S
C709 C9 0.790 . S
C714 C149 0.790 . S
C739 C162 0.950 . S
C744 C23 0.955 . S
C769 C93 0.950 . S
C774 C36 0.955 . S
C799 C51 0.790 . S
C804 C107 0.790 . S
C829 C120 0.950 . S
C834 C65 0.955 . S
C859 C135 0.950 . S
C864 C78 0.955 . S
