# Generated by pormake.
# Topology unr, (4)-cn, num edge types: 1
# Building blocks:
#     Node 0, Type 0, BuildingBlock: CEKHIL_clean_sbu_0, # of connection points: 4
#     Node 1, Type 0, BuildingBlock: CEKHIL_clean_sbu_0, # of connection points: 4
#     Node 2, Type 0, BuildingBlock: CEKHIL_clean_sbu_0, # of connection points: 4
#     Node 3, Type 0, BuildingBlock: CEKHIL_clean_sbu_0, # of connection points: 4
#     Node 4, Type 0, BuildingBlock: CEKHIL_clean_sbu_0, # of connection points: 4
#     Node 5, Type 0, BuildingBlock: CEKHIL_clean_sbu_0, # of connection points: 4
#     Node 6, Type 0, BuildingBlock: CEKHIL_clean_sbu_0, # of connection points: 4
#     Node 7, Type 0, BuildingBlock: CEKHIL_clean_sbu_0, # of connection points: 4
#     Node 8, Type 0, BuildingBlock: CEKHIL_clean_sbu_0, # of connection points: 4
#     Node 9, Type 0, BuildingBlock: CEKHIL_clean_sbu_0, # of connection points: 4
#     Node 10, Type 0, BuildingBlock: CEKHIL_clean_sbu_0, # of connection points: 4
#     Node 11, Type 0, BuildingBlock: CEKHIL_clean_sbu_0, # of connection points: 4
#     Node 12, Type 0, BuildingBlock: CEKHIL_clean_sbu_0, # of connection points: 4
#     Node 13, Type 0, BuildingBlock: CEKHIL_clean_sbu_0, # of connection points: 4
#     Node 14, Type 0, BuildingBlock: CEKHIL_clean_sbu_0, # of connection points: 4
#     Node 15, Type 0, BuildingBlock: CEKHIL_clean_sbu_0, # of connection points: 4
#     Node 16, Type 0, BuildingBlock: CEKHIL_clean_sbu_0, # of connection points: 4
#     Node 17, Type 0, BuildingBlock: CEKHIL_clean_sbu_0, # of connection points: 4
#     Node 18, Type 0, BuildingBlock: CEKHIL_clean_sbu_0, # of connection points: 4
#     Node 19, Type 0, BuildingBlock: CEKHIL_clean_sbu_0, # of connection points: 4
#     Node 20, Type 0, BuildingBlock: CEKHIL_clean_sbu_0, # of connection points: 4
#     Node 21, Type 0, BuildingBlock: CEKHIL_clean_sbu_0, # of connection points: 4
#     Node 22, Type 0, BuildingBlock: CEKHIL_clean_sbu_0, # of connection points: 4
#     Node 23, Type 0, BuildingBlock: CEKHIL_clean_sbu_0, # of connection points: 4
#     Node 24, Type 0, BuildingBlock: CEKHIL_clean_sbu_0, # of connection points: 4
#     Node 25, Type 0, BuildingBlock: CEKHIL_clean_sbu_0, # of connection points: 4
#     Node 26, Type 0, BuildingBlock: CEKHIL_clean_sbu_0, # of connection points: 4
#     Node 27, Type 0, BuildingBlock: CEKHIL_clean_sbu_0, # of connection points: 4
#     Node 28, Type 0, BuildingBlock: CEKHIL_clean_sbu_0, # of connection points: 4
#     Node 29, Type 0, BuildingBlock: CEKHIL_clean_sbu_0, # of connection points: 4
#     Node 30, Type 0, BuildingBlock: CEKHIL_clean_sbu_0, # of connection points: 4
#     Node 31, Type 0, BuildingBlock: CEKHIL_clean_sbu_0, # of connection points: 4
#     Node 32, Type 0, BuildingBlock: CEKHIL_clean_sbu_0, # of connection points: 4
#     Node 33, Type 0, BuildingBlock: CEKHIL_clean_sbu_0, # of connection points: 4
#     Node 34, Type 0, BuildingBlock: CEKHIL_clean_sbu_0, # of connection points: 4
#     Node 35, Type 0, BuildingBlock: CEKHIL_clean_sbu_0, # of connection points: 4
#     Edge 36, Type (0, 0), BuildingBlock: TEMPAE_clean_linker_10, # of connection points: 2
#     Edge 37, Type (0, 0), BuildingBlock: TEMPAE_clean_linker_10, # of connection points: 2
#     Edge 38, Type (0, 0), BuildingBlock: TEMPAE_clean_linker_10, # of connection points: 2
#     Edge 39, Type (0, 0), BuildingBlock: TEMPAE_clean_linker_10, # of connection points: 2
#     Edge 40, Type (0, 0), BuildingBlock: TEMPAE_clean_linker_10, # of connection points: 2
#     Edge 41, Type (0, 0), BuildingBlock: TEMPAE_clean_linker_10, # of connection points: 2
#     Edge 42, Type (0, 0), BuildingBlock: TEMPAE_clean_linker_10, # of connection points: 2
#     Edge 43, Type (0, 0), BuildingBlock: TEMPAE_clean_linker_10, # of connection points: 2
#     Edge 44, Type (0, 0), BuildingBlock: TEMPAE_clean_linker_10, # of connection points: 2
#     Edge 45, Type (0, 0), BuildingBlock: TEMPAE_clean_linker_10, # of connection points: 2
#     Edge 46, Type (0, 0), BuildingBlock: TEMPAE_clean_linker_10, # of connection points: 2
#     Edge 47, Type (0, 0), BuildingBlock: TEMPAE_clean_linker_10, # of connection points: 2
#     Edge 48, Type (0, 0), BuildingBlock: TEMPAE_clean_linker_10, # of connection points: 2
#     Edge 49, Type (0, 0), BuildingBlock: TEMPAE_clean_linker_10, # of connection points: 2
#     Edge 50, Type (0, 0), BuildingBlock: TEMPAE_clean_linker_10, # of connection points: 2
#     Edge 51, Type (0, 0), BuildingBlock: TEMPAE_clean_linker_10, # of connection points: 2
#     Edge 52, Type (0, 0), BuildingBlock: TEMPAE_clean_linker_10, # of connection points: 2
#     Edge 53, Type (0, 0), BuildingBlock: TEMPAE_clean_linker_10, # of connection points: 2
#     Edge 54, Type (0, 0), BuildingBlock: TEMPAE_clean_linker_10, # of connection points: 2
#     Edge 55, Type (0, 0), BuildingBlock: TEMPAE_clean_linker_10, # of connection points: 2
#     Edge 56, Type (0, 0), BuildingBlock: TEMPAE_clean_linker_10, # of connection points: 2
#     Edge 57, Type (0, 0), BuildingBlock: TEMPAE_clean_linker_10, # of connection points: 2
#     Edge 58, Type (0, 0), BuildingBlock: TEMPAE_clean_linker_10, # of connection points: 2
#     Edge 59, Type (0, 0), BuildingBlock: TEMPAE_clean_linker_10, # of connection points: 2
#     Edge 60, Type (0, 0), BuildingBlock: TEMPAE_clean_linker_10, # of connection points: 2
#     Edge 61, Type (0, 0), BuildingBlock: TEMPAE_clean_linker_10, # of connection points: 2
#     Edge 62, Type (0, 0), BuildingBlock: TEMPAE_clean_linker_10, # of connection points: 2
#     Edge 63, Type (0, 0), BuildingBlock: TEMPAE_clean_linker_10, # of connection points: 2
#     Edge 64, Type (0, 0), BuildingBlock: TEMPAE_clean_linker_10, # of connection points: 2
#     Edge 65, Type (0, 0), BuildingBlock: TEMPAE_clean_linker_10, # of connection points: 2
#     Edge 66, Type (0, 0), BuildingBlock: TEMPAE_clean_linker_10, # of connection points: 2
#     Edge 67, Type (0, 0), BuildingBlock: TEMPAE_clean_linker_10, # of connection points: 2
#     Edge 68, Type (0, 0), BuildingBlock: TEMPAE_clean_linker_10, # of connection points: 2
#     Edge 69, Type (0, 0), BuildingBlock: TEMPAE_clean_linker_10, # of connection points: 2
#     Edge 70, Type (0, 0), BuildingBlock: TEMPAE_clean_linker_10, # of connection points: 2
#     Edge 71, Type (0, 0), BuildingBlock: TEMPAE_clean_linker_10, # of connection points: 2
#     Edge 72, Type (0, 0), BuildingBlock: TEMPAE_clean_linker_10, # of connection points: 2
#     Edge 73, Type (0, 0), BuildingBlock: TEMPAE_clean_linker_10, # of connection points: 2
#     Edge 74, Type (0, 0), BuildingBlock: TEMPAE_clean_linker_10, # of connection points: 2
#     Edge 75, Type (0, 0), BuildingBlock: TEMPAE_clean_linker_10, # of connection points: 2
#     Edge 76, Type (0, 0), BuildingBlock: TEMPAE_clean_linker_10, # of connection points: 2
#     Edge 77, Type (0, 0), BuildingBlock: TEMPAE_clean_linker_10, # of connection points: 2
#     Edge 78, Type (0, 0), BuildingBlock: TEMPAE_clean_linker_10, # of connection points: 2
#     Edge 79, Type (0, 0), BuildingBlock: TEMPAE_clean_linker_10, # of connection points: 2
#     Edge 80, Type (0, 0), BuildingBlock: TEMPAE_clean_linker_10, # of connection points: 2
#     Edge 81, Type (0, 0), BuildingBlock: TEMPAE_clean_linker_10, # of connection points: 2
#     Edge 82, Type (0, 0), BuildingBlock: TEMPAE_clean_linker_10, # of connection points: 2
#     Edge 83, Type (0, 0), BuildingBlock: TEMPAE_clean_linker_10, # of connection points: 2
#     Edge 84, Type (0, 0), BuildingBlock: TEMPAE_clean_linker_10, # of connection points: 2
#     Edge 85, Type (0, 0), BuildingBlock: TEMPAE_clean_linker_10, # of connection points: 2
#     Edge 86, Type (0, 0), BuildingBlock: TEMPAE_clean_linker_10, # of connection points: 2
#     Edge 87, Type (0, 0), BuildingBlock: TEMPAE_clean_linker_10, # of connection points: 2
#     Edge 88, Type (0, 0), BuildingBlock: TEMPAE_clean_linker_10, # of connection points: 2
#     Edge 89, Type (0, 0), BuildingBlock: TEMPAE_clean_linker_10, # of connection points: 2
#     Edge 90, Type (0, 0), BuildingBlock: TEMPAE_clean_linker_10, # of connection points: 2
#     Edge 91, Type (0, 0), BuildingBlock: TEMPAE_clean_linker_10, # of connection points: 2
#     Edge 92, Type (0, 0), BuildingBlock: TEMPAE_clean_linker_10, # of connection points: 2
#     Edge 93, Type (0, 0), BuildingBlock: TEMPAE_clean_linker_10, # of connection points: 2
#     Edge 94, Type (0, 0), BuildingBlock: TEMPAE_clean_linker_10, # of connection points: 2
#     Edge 95, Type (0, 0), BuildingBlock: TEMPAE_clean_linker_10, # of connection points: 2
#     Edge 96, Type (0, 0), BuildingBlock: TEMPAE_clean_linker_10, # of connection points: 2
#     Edge 97, Type (0, 0), BuildingBlock: TEMPAE_clean_linker_10, # of connection points: 2
#     Edge 98, Type (0, 0), BuildingBlock: TEMPAE_clean_linker_10, # of connection points: 2
#     Edge 99, Type (0, 0), BuildingBlock: TEMPAE_clean_linker_10, # of connection points: 2
#     Edge 100, Type (0, 0), BuildingBlock: TEMPAE_clean_linker_10, # of connection points: 2
#     Edge 101, Type (0, 0), BuildingBlock: TEMPAE_clean_linker_10, # of connection points: 2
#     Edge 102, Type (0, 0), BuildingBlock: TEMPAE_clean_linker_10, # of connection points: 2
#     Edge 103, Type (0, 0), BuildingBlock: TEMPAE_clean_linker_10, # of connection points: 2
#     Edge 104, Type (0, 0), BuildingBlock: TEMPAE_clean_linker_10, # of connection points: 2
#     Edge 105, Type (0, 0), BuildingBlock: TEMPAE_clean_linker_10, # of connection points: 2
#     Edge 106, Type (0, 0), BuildingBlock: TEMPAE_clean_linker_10, # of connection points: 2
#     Edge 107, Type (0, 0), BuildingBlock: TEMPAE_clean_linker_10, # of connection points: 2
# Relax obj value: 0.390
# Max RMSD: 0.181
# Mean RMSD: 0.175
data_MOF--net-unr--node1-CEKHIL_clean_sbu_0--edge1-TEMPAE_clean_linker_10
_symmetry_space_group_name_H-M    P1
_symmetry_Int_Tables_number       1
_symmetry_cell_setting            triclinic
loop_
_symmetry_equiv_pos_as_xyz
'x, y, z'
_cell_length_a     49.016791
_cell_length_b     49.008443
_cell_length_c     100.2515
_cell_angle_alpha  89.981632
_cell_angle_beta   89.988545
_cell_angle_gamma 119.9728
loop_
_atom_site_label
_atom_site_type_symbol
_atom_site_fract_x
_atom_site_fract_y
_atom_site_fract_z
_atom_type_partial_charge
Co0 Co 0.19361 0.12644 0.1843 0.0
O1 O 0.22666 0.11699 0.18218 0.0
O2 O 0.20759 0.134 0.16602 0.0
C3 C 0.21191 0.15409 0.20333 0.0
O4 O 0.15985 0.13884 0.18291 0.0
Co5 Co 0.14963 0.1029 0.20907 0.0
O6 O 0.13994 0.1359 0.20336 0.0
C7 C 0.14183 0.05865 0.18728 0.0
C8 C 0.22693 0.12459 0.16977 0.0
C9 C 0.14332 0.14458 0.1912 0.0
O10 O 0.16219 0.08136 0.18005 0.0
O11 O 0.13498 0.06224 0.19925 0.0
O12 O 0.22292 0.1678 0.19191 0.0
O13 O 0.19258 0.12419 0.20281 0.0
Co14 Co 0.86258 0.06388 0.19046 0.0
O15 O 0.87227 0.10663 0.18949 0.0
O16 O 0.85874 0.07369 0.17222 0.0
C17 C 0.83142 0.05136 0.20856 0.0
O18 O 0.85085 0.01825 0.1877 0.0
Co19 Co 0.88158 0.03883 0.21515 0.0
O20 O 0.85231 0.99709 0.20734 0.0
C21 C 0.92963 0.07888 0.19528 0.0
C22 C 0.8673 0.10164 0.17679 0.0
C23 C 0.84566 0.99449 0.19496 0.0
O24 O 0.90831 0.07807 0.18758 0.0
O25 O 0.92394 0.06637 0.20691 0.0
O26 O 0.81986 0.05081 0.19683 0.0
O27 O 0.86126 0.06153 0.20898 0.0
Co28 Co 0.93762 0.80553 0.18664 0.0
O29 O 0.89327 0.77774 0.18777 0.0
O30 O 0.92232 0.78609 0.16951 0.0
C31 C 0.94909 0.78953 0.20582 0.0
O32 O 0.98394 0.83269 0.18184 0.0
Co33 Co 0.97318 0.8563 0.20837 0.0
O34 O 0.01054 0.85709 0.20036 0.0
C35 C 0.9327 0.86427 0.18858 0.0
C36 C 0.89481 0.77217 0.17523 0.0
C37 C 0.00991 0.84929 0.18819 0.0
O38 O 0.92947 0.84054 0.18186 0.0
O39 O 0.94754 0.87301 0.19969 0.0
O40 O 0.94569 0.77384 0.19489 0.0
O41 O 0.94362 0.81257 0.20485 0.0
Co42 Co 0.12874 0.19948 0.30216 0.0
O43 O 0.13152 0.23616 0.30998 0.0
O44 O 0.1325 0.19741 0.32124 0.0
C45 C 0.16311 0.22401 0.28544 0.0
O46 O 0.12783 0.15884 0.29736 0.0
Co47 Co 0.10343 0.17983 0.27324 0.0
O48 O 0.11681 0.14801 0.27555 0.0
C49 C 0.059 0.16766 0.29533 0.0
C50 C 0.13327 0.2243 0.3213 0.0
C51 C 0.12456 0.1423 0.28691 0.0
O52 O 0.08147 0.17686 0.30386 0.0
O53 O 0.06332 0.16923 0.2827 0.0
O54 O 0.17334 0.22288 0.29728 0.0
O55 O 0.13323 0.21349 0.28458 0.0
Co56 Co 0.79647 0.94777 0.30502 0.0
O57 O 0.76282 0.90558 0.30361 0.0
O58 O 0.78643 0.92872 0.32259 0.0
C59 C 0.77299 0.96696 0.29186 0.0
O60 O 0.83163 0.99168 0.31004 0.0
Co61 Co 0.83329 0.98435 0.27995 0.0
O62 O 0.84459 0.02131 0.29154 0.0
C63 C 0.84788 0.93846 0.29265 0.0
C64 C 0.76446 0.90408 0.31646 0.0
C65 C 0.84549 0.0186 0.30414 0.0
O66 O 0.82797 0.93337 0.30203 0.0
O67 O 0.85242 0.95683 0.28275 0.0
O68 O 0.76627 0.96303 0.30448 0.0
O69 O 0.79213 0.95805 0.2876 0.0
Co70 Co 0.05903 0.86305 0.30475 0.0
O71 O 0.09517 0.86297 0.31171 0.0
O72 O 0.05816 0.86436 0.32404 0.0
C73 C 0.04638 0.82366 0.29007 0.0
O74 O 0.01835 0.86306 0.30094 0.0
Co75 Co 0.05658 0.87781 0.27471 0.0
O76 O 0.01216 0.86548 0.27883 0.0
C77 C 0.09495 0.92922 0.29357 0.0
C78 C 0.08429 0.86361 0.32341 0.0
C79 C 0.00223 0.86284 0.29078 0.0
O80 O 0.08308 0.91037 0.30356 0.0
O81 O 0.08994 0.92012 0.28139 0.0
O82 O 0.0371 0.81713 0.30238 0.0
O83 O 0.06451 0.85307 0.28741 0.0
Co84 Co 0.81536 0.91021 0.8176 0.0
O85 O 0.77257 0.89921 0.81478 0.0
O86 O 0.78813 0.86719 0.82312 0.0
C87 C 0.83267 0.9578 0.82712 0.0
O88 O 0.8573 0.91376 0.82217 0.0
Co89 Co 0.86839 0.96842 0.8028 0.0
O90 O 0.89633 0.95964 0.81418 0.0
C91 C 0.82779 0.91055 0.78796 0.0
C92 C 0.76522 0.87147 0.81923 0.0
C93 C 0.88664 0.93434 0.82092 0.0
O94 O 0.81709 0.89557 0.799 0.0
O95 O 0.84565 0.94046 0.78732 0.0
O96 O 0.81786 0.9324 0.83433 0.0
O97 O 0.8324 0.95301 0.81448 0.0
Co98 Co 0.11588 0.93969 0.82407 0.0
O99 O 0.12133 0.90659 0.81704 0.0
O100 O 0.15593 0.94553 0.82996 0.0
C101 C 0.06583 0.90868 0.83081 0.0
O102 O 0.11765 0.97766 0.83325 0.0
Co103 Co 0.06507 0.95271 0.81204 0.0
O104 O 0.07208 0.97626 0.82893 0.0
C105 C 0.12483 0.97304 0.7976 0.0
C106 C 0.14847 0.92041 0.82294 0.0
C107 C 0.09777 0.98705 0.83541 0.0
O108 O 0.13595 0.96484 0.80744 0.0
O109 O 0.09683 0.96874 0.79728 0.0
O110 O 0.08882 0.91266 0.83855 0.0
O111 O 0.07385 0.92138 0.81918 0.0
Co112 Co 0.08291 0.18812 0.81262 0.0
O113 O 0.1125 0.22744 0.80465 0.0
O114 O 0.07026 0.21884 0.81621 0.0
C115 C 0.1182 0.17717 0.82198 0.0
O116 O 0.0477 0.15083 0.82248 0.0
Co117 Co 0.08137 0.12664 0.80359 0.0
O118 O 0.05329 0.10848 0.81932 0.0
C119 C 0.05514 0.15633 0.78616 0.0
C120 C 0.09519 0.23826 0.80946 0.0
C121 C 0.04001 0.1221 0.82501 0.0
O122 O 0.05766 0.17523 0.7956 0.0
O123 O 0.06595 0.1374 0.787 0.0
O124 O 0.11069 0.19595 0.82803 0.0
O125 O 0.10702 0.16901 0.8101 0.0
Co126 Co 0.89552 0.81185 0.68347 0.0
O127 O 0.88569 0.7749 0.6935 0.0
O128 O 0.85257 0.78006 0.67997 0.0
C129 C 0.94265 0.82136 0.67578 0.0
O130 O 0.89764 0.84628 0.67148 0.0
Co131 Co 0.95406 0.87598 0.69096 0.0
O132 O 0.94493 0.88988 0.67375 0.0
C133 C 0.89726 0.84867 0.70795 0.0
C134 C 0.85774 0.76286 0.68835 0.0
C135 C 0.91831 0.8744 0.66795 0.0
O136 O 0.88165 0.82791 0.69899 0.0
O137 O 0.9269 0.86805 0.70711 0.0
O138 O 0.9171 0.80118 0.66961 0.0
O139 O 0.93837 0.83223 0.68678 0.0
Co140 Co 0.17951 0.05582 0.67872 0.0
O141 O 0.21649 0.09179 0.6853 0.0
O142 O 0.21607 0.05337 0.67341 0.0
C143 C 0.15666 0.08275 0.67111 0.0
O144 O 0.14555 0.01568 0.66981 0.0
Co145 Co 0.11374 0.0379 0.69013 0.0
O146 O 0.09988 0.01493 0.67299 0.0
C147 C 0.15606 0.02251 0.7053 0.0
C148 C 0.23217 0.08003 0.6797 0.0
C149 C 0.11641 0.00536 0.66693 0.0
O150 O 0.17641 0.03275 0.69581 0.0
O151 O 0.13055 0.02367 0.70513 0.0
O152 O 0.17706 0.08023 0.66369 0.0
O153 O 0.15277 0.07114 0.68294 0.0
Co154 Co 0.90325 0.07798 0.67831 0.0
O155 O 0.87341 0.09175 0.68084 0.0
O156 O 0.92207 0.12127 0.67285 0.0
C157 C 0.87127 0.03138 0.66844 0.0
O158 O 0.94003 0.07158 0.67397 0.0
Co159 Co 0.89427 0.01825 0.69293 0.0
O160 O 0.93012 0.02434 0.68156 0.0
C161 C 0.91655 0.077 0.70797 0.0
C162 C 0.89539 0.11873 0.67638 0.0
C163 C 0.94706 0.04969 0.67504 0.0
O164 O 0.91957 0.09179 0.69698 0.0
O165 O 0.90402 0.04702 0.70861 0.0
O166 O 0.88346 0.05723 0.66148 0.0
O167 O 0.87523 0.03533 0.68117 0.0
Co168 Co 0.84573 0.4564 0.53106 0.0
O169 O 0.87564 0.44224 0.53139 0.0
O170 O 0.85998 0.45633 0.51315 0.0
C171 C 0.86642 0.48942 0.54855 0.0
O172 O 0.81544 0.4724 0.52693 0.0
Co173 Co 0.8018 0.44607 0.5552 0.0
O174 O 0.79567 0.47855 0.54614 0.0
C175 C 0.78865 0.39311 0.53705 0.0
C176 C 0.87726 0.446 0.51854 0.0
C177 C 0.79978 0.48246 0.53358 0.0
O178 O 0.81087 0.41155 0.52911 0.0
O179 O 0.78258 0.40203 0.54812 0.0
O180 O 0.8783 0.49885 0.53671 0.0
O181 O 0.84436 0.46046 0.5494 0.0
Co182 Co 0.51908 0.39804 0.51908 0.0
O183 O 0.52309 0.43677 0.51322 0.0
O184 O 0.51776 0.39816 0.4998 0.0
C185 C 0.48346 0.38932 0.53521 0.0
O186 O 0.51352 0.35445 0.52162 0.0
Co187 Co 0.53613 0.39036 0.54819 0.0
O188 O 0.51207 0.34495 0.54358 0.0
C189 C 0.58662 0.42347 0.5281 0.0
C190 C 0.52117 0.42606 0.50123 0.0
C191 C 0.50815 0.33575 0.53151 0.0
O192 O 0.56635 0.41743 0.51877 0.0
O193 O 0.57924 0.41611 0.54036 0.0
O194 O 0.47408 0.38095 0.523 0.0
O195 O 0.51347 0.40419 0.53698 0.0
Co196 Co 0.57262 0.11813 0.53197 0.0
O197 O 0.53212 0.08394 0.52732 0.0
O198 O 0.56886 0.1157 0.51285 0.0
C199 C 0.58426 0.09209 0.54745 0.0
O200 O 0.6171 0.15518 0.53291 0.0
Co201 Co 0.58782 0.14592 0.56063 0.0
O202 O 0.63205 0.1679 0.55421 0.0
C203 C 0.55245 0.16382 0.54201 0.0
C204 C 0.54092 0.09194 0.51504 0.0
C205 C 0.6381 0.17097 0.54175 0.0
O206 O 0.55517 0.14754 0.53259 0.0
O207 O 0.56241 0.16488 0.55391 0.0
O208 O 0.58871 0.08914 0.53487 0.0
O209 O 0.57043 0.10801 0.55001 0.0
Co210 Co 0.80711 0.5428 0.64628 0.0
O211 O 0.80627 0.57856 0.65314 0.0
O212 O 0.80781 0.54156 0.66552 0.0
C213 C 0.84395 0.56937 0.63045 0.0
O214 O 0.80902 0.50309 0.64285 0.0
Co215 Co 0.78923 0.52186 0.61677 0.0
O216 O 0.80559 0.49305 0.62089 0.0
C217 C 0.73921 0.50572 0.63695 0.0
C218 C 0.80686 0.56754 0.66483 0.0
C219 C 0.81 0.48731 0.63284 0.0
O220 O 0.75965 0.51773 0.64638 0.0
O221 O 0.74649 0.50694 0.62461 0.0
O222 O 0.85256 0.56832 0.64262 0.0
O223 O 0.81405 0.55656 0.6286 0.0
Co224 Co 0.47799 0.27401 0.63662 0.0
O225 O 0.44409 0.23176 0.63507 0.0
O226 O 0.46065 0.25845 0.65409 0.0
C227 C 0.4625 0.29181 0.61914 0.0
O228 O 0.51165 0.31849 0.64189 0.0
Co229 Co 0.52612 0.30644 0.61369 0.0
O230 O 0.5334 0.34518 0.62302 0.0
C231 C 0.53078 0.26028 0.63132 0.0
C232 C 0.44102 0.23271 0.64788 0.0
C233 C 0.52851 0.34443 0.63552 0.0
O234 O 0.50858 0.25824 0.63884 0.0
O235 O 0.53983 0.27679 0.62062 0.0
O236 O 0.44992 0.2896 0.6308 0.0
O237 O 0.48223 0.28176 0.61842 0.0
Co238 Co 0.73837 0.20004 0.63477 0.0
O239 O 0.78138 0.21173 0.63773 0.0
O240 O 0.74529 0.19918 0.65361 0.0
C241 C 0.72952 0.16613 0.61792 0.0
O242 O 0.69192 0.18665 0.63559 0.0
Co243 Co 0.71561 0.21257 0.60772 0.0
O244 O 0.67307 0.18339 0.61492 0.0
C245 C 0.74886 0.2644 0.62722 0.0
C246 C 0.77417 0.20788 0.65032 0.0
C247 C 0.66893 0.17899 0.62746 0.0
O248 O 0.75011 0.24553 0.63577 0.0
O249 O 0.73742 0.25614 0.61546 0.0
O250 O 0.72753 0.15683 0.63021 0.0
O251 O 0.7392 0.19569 0.61635 0.0
Co252 Co 0.48473 0.2103 0.15019 0.0
O253 O 0.44482 0.20186 0.14351 0.0
O254 O 0.4536 0.16759 0.15458 0.0
C255 C 0.49851 0.25752 0.15938 0.0
O256 O 0.52258 0.21093 0.15876 0.0
Co257 Co 0.54576 0.26857 0.13967 0.0
O258 O 0.56495 0.25841 0.15495 0.0
C259 C 0.51067 0.21252 0.12259 0.0
C260 C 0.43399 0.17385 0.14844 0.0
C261 C 0.5516 0.23164 0.16075 0.0
O262 O 0.4938 0.19652 0.1326 0.0
O263 O 0.53039 0.24212 0.12315 0.0
O264 O 0.48062 0.23183 0.166 0.0
O265 O 0.50466 0.25347 0.1473 0.0
Co266 Co 0.78965 0.27603 0.15962 0.0
O267 O 0.80194 0.24873 0.15146 0.0
O268 O 0.83075 0.28637 0.16612 0.0
C269 C 0.74028 0.23792 0.16454 0.0
O270 O 0.78402 0.30846 0.17019 0.0
Co271 Co 0.73471 0.28261 0.14767 0.0
O272 O 0.73658 0.30213 0.16518 0.0
C273 C 0.79676 0.31217 0.13426 0.0
C274 C 0.8279 0.2641 0.15816 0.0
C275 C 0.7614 0.31411 0.17232 0.0
O276 O 0.80911 0.30572 0.14419 0.0
O277 O 0.76748 0.30355 0.13345 0.0
O278 O 0.76318 0.24343 0.17265 0.0
O279 O 0.74841 0.25395 0.15363 0.0
Co280 Co 0.73536 0.5161 0.16426 0.0
O281 O 0.76404 0.55956 0.16117 0.0
O282 O 0.71561 0.53998 0.16952 0.0
C283 C 0.76974 0.50426 0.17395 0.0
O284 O 0.69962 0.47274 0.16904 0.0
Co285 Co 0.74649 0.46579 0.15031 0.0
O286 O 0.71221 0.4366 0.16247 0.0
C287 C 0.7228 0.50064 0.13478 0.0
C288 C 0.74177 0.56418 0.16555 0.0
C289 C 0.69418 0.44427 0.16859 0.0
O290 O 0.71834 0.51197 0.1456 0.0
O291 O 0.73662 0.48432 0.13449 0.0
O292 O 0.75657 0.51677 0.18104 0.0
O293 O 0.76438 0.50295 0.16133 0.0
Co294 Co 0.57891 0.14513 0.01103 0.0
O295 O 0.56962 0.10257 0.01294 0.0
O296 O 0.5363 0.11735 0.00539 0.0
C297 C 0.62672 0.16445 0.00141 0.0
O298 O 0.58027 0.1863 0.00713 0.0
Co299 Co 0.63605 0.19953 0.02568 0.0
O300 O 0.62665 0.2265 0.01392 0.0
C301 C 0.57854 0.15732 0.04075 0.0
C302 C 0.54183 0.09475 0.00839 0.0
C303 C 0.60044 0.21583 0.00781 0.0
O304 O 0.56387 0.14482 0.02981 0.0
O305 O 0.60808 0.17726 0.04124 0.0
O306 O 0.6014 0.14968 0.99418 0.0
O307 O 0.62192 0.16356 0.01407 0.0
Co308 Co 0.85077 0.413 0.01902 0.0
O309 O 0.88778 0.4444 0.02781 0.0
O310 O 0.88671 0.41085 0.01263 0.0
C311 C 0.83094 0.44469 0.01458 0.0
O312 O 0.81668 0.37776 0.0077 0.0
Co313 Co 0.78443 0.39326 0.03035 0.0
O314 O 0.77079 0.37556 0.01224 0.0
C315 C 0.82439 0.37153 0.04336 0.0
C316 C 0.9029 0.43377 0.02095 0.0
C317 C 0.78745 0.36788 0.00512 0.0
O318 O 0.84468 0.38298 0.03388 0.0
O319 O 0.79994 0.37453 0.04408 0.0
O320 O 0.85162 0.44439 0.00654 0.0
O321 O 0.82498 0.42783 0.02519 0.0
Co322 Co 0.57889 0.42994 0.02436 0.0
O323 O 0.54132 0.42935 0.02989 0.0
O324 O 0.58251 0.47006 0.02038 0.0
C325 C 0.55467 0.38216 0.0145 0.0
O326 O 0.62101 0.43861 0.01689 0.0
Co327 Co 0.59384 0.37932 0.03518 0.0
O328 O 0.62425 0.39495 0.0201 0.0
C329 C 0.6024 0.43174 0.05249 0.0
C330 C 0.55445 0.45808 0.02552 0.0
C331 C 0.63404 0.42189 0.01473 0.0
O332 O 0.59815 0.4457 0.0425 0.0
O333 O 0.59882 0.40404 0.05181 0.0
O334 O 0.55828 0.40664 0.00792 0.0
O335 O 0.56311 0.38715 0.02681 0.0
Co336 Co 0.52215 0.80528 0.86053 0.0
O337 O 0.5554 0.79705 0.86461 0.0
O338 O 0.53537 0.7937 0.8444 0.0
C339 C 0.54265 0.85015 0.87244 0.0
O340 O 0.48849 0.8131 0.85254 0.0
Co341 Co 0.48032 0.80886 0.88301 0.0
O342 O 0.46819 0.82888 0.86885 0.0
C343 C 0.46699 0.74672 0.87261 0.0
C344 C 0.55619 0.79223 0.85194 0.0
C345 C 0.47113 0.82431 0.85656 0.0
O346 O 0.48954 0.75992 0.86407 0.0
O347 O 0.46056 0.76198 0.88123 0.0
O348 O 0.55274 0.85073 0.86042 0.0
O349 O 0.52264 0.82279 0.87708 0.0
Co350 Co 0.19083 0.72209 0.84971 0.0
O351 O 0.20571 0.76584 0.84718 0.0
O352 O 0.18333 0.72911 0.83146 0.0
C353 C 0.1657 0.71804 0.86904 0.0
O354 O 0.17259 0.67459 0.84892 0.0
Co355 Co 0.21088 0.69843 0.87457 0.0
O356 O 0.17314 0.65788 0.8697 0.0
C357 C 0.25556 0.7294 0.85214 0.0
C358 C 0.19644 0.75858 0.83494 0.0
C359 C 0.16399 0.65248 0.85761 0.0
O360 O 0.23384 0.72951 0.84501 0.0
O361 O 0.25141 0.71978 0.86427 0.0
O362 O 0.1517 0.71605 0.85777 0.0
O363 O 0.19454 0.72451 0.86815 0.0
Co364 Co 0.24792 0.46217 0.86396 0.0
O365 O 0.21435 0.42428 0.85677 0.0
O366 O 0.25196 0.46311 0.84475 0.0
C367 C 0.25973 0.43861 0.88044 0.0
O368 O 0.28698 0.50425 0.86804 0.0
Co369 Co 0.24515 0.48273 0.89302 0.0
O370 O 0.29048 0.51337 0.8901 0.0
C371 C 0.20984 0.49318 0.87156 0.0
C372 C 0.22668 0.43553 0.8452 0.0
C373 C 0.302 0.52036 0.87837 0.0
O374 O 0.22148 0.48293 0.86271 0.0
O375 O 0.21509 0.49347 0.88409 0.0
O376 O 0.2711 0.44047 0.86854 0.0
O377 O 0.24014 0.44876 0.88163 0.0
Co378 Co 0.46945 0.85678 0.96745 0.0
O379 O 0.45658 0.88651 0.96265 0.0
O380 O 0.45715 0.87011 0.98324 0.0
C381 C 0.51306 0.8781 0.95476 0.0
O382 O 0.4818 0.82731 0.97638 0.0
Co383 Co 0.47475 0.81307 0.94647 0.0
O384 O 0.498 0.80563 0.96087 0.0
C385 C 0.41215 0.79863 0.95646 0.0
C386 C 0.45174 0.88788 0.97531 0.0
C387 C 0.49447 0.81084 0.97302 0.0
O388 O 0.4251 0.82125 0.96494 0.0
O389 O 0.42767 0.79257 0.94783 0.0
O390 O 0.51391 0.89015 0.9664 0.0
O391 O 0.48595 0.85576 0.9509 0.0
Co392 Co 0.12168 0.59706 0.97011 0.0
O393 O 0.08317 0.56734 0.97831 0.0
O394 O 0.12522 0.60421 0.98914 0.0
C395 C 0.09985 0.60995 0.95328 0.0
O396 O 0.16507 0.63235 0.96488 0.0
Co397 Co 0.13803 0.58667 0.94129 0.0
O398 O 0.17227 0.63124 0.9428 0.0
C399 C 0.14662 0.55276 0.96386 0.0
C400 C 0.09654 0.58065 0.98949 0.0
C401 C 0.18108 0.64438 0.95417 0.0
O402 O 0.13852 0.56738 0.97218 0.0
O403 O 0.1463 0.55589 0.95118 0.0
O404 O 0.10348 0.62307 0.96491 0.0
O405 O 0.10675 0.5878 0.95266 0.0
Co406 Co 0.37653 0.53357 0.98432 0.0
O407 O 0.41934 0.54348 0.98367 0.0
O408 O 0.38902 0.52684 0.00173 0.0
C409 C 0.36318 0.50579 0.9652 0.0
O410 O 0.33073 0.52026 0.98833 0.0
Co411 Co 0.34834 0.5553 0.96171 0.0
O412 O 0.30846 0.52001 0.96874 0.0
C413 C 0.38989 0.60068 0.98229 0.0
C414 C 0.41612 0.53545 0.99613 0.0
C415 C 0.30637 0.51217 0.98097 0.0
O416 O 0.39037 0.57852 0.98895 0.0
O417 O 0.37606 0.5963 0.97099 0.0
O418 O 0.36339 0.49226 0.97633 0.0
O419 O 0.37263 0.53544 0.96598 0.0
Co420 Co 0.141 0.55457 0.4897 0.0
O421 O 0.09951 0.54868 0.48952 0.0
O422 O 0.1118 0.51234 0.49553 0.0
C423 C 0.16476 0.60246 0.49949 0.0
O424 O 0.18117 0.55276 0.49171 0.0
Co425 Co 0.19474 0.61037 0.47396 0.0
O426 O 0.2214 0.59994 0.48547 0.0
C427 C 0.14747 0.554 0.45958 0.0
C428 C 0.09049 0.52036 0.49369 0.0
C429 C 0.21062 0.57311 0.49106 0.0
O430 O 0.13633 0.53946 0.47068 0.0
O431 O 0.16853 0.58318 0.45885 0.0
O432 O 0.1502 0.57724 0.50681 0.0
O433 O 0.16135 0.59772 0.48682 0.0
Co434 Co 0.47184 0.62632 0.48837 0.0
O435 O 0.47248 0.59377 0.47818 0.0
O436 O 0.50486 0.61936 0.49498 0.0
C437 C 0.41928 0.60094 0.49115 0.0
O438 O 0.47705 0.66124 0.50114 0.0
Co439 Co 0.43639 0.65927 0.47728 0.0
O440 O 0.43678 0.66916 0.49642 0.0
C441 C 0.49722 0.6727 0.46556 0.0
C442 C 0.49602 0.59826 0.48558 0.0
C443 C 0.45887 0.67233 0.50411 0.0
O444 O 0.50163 0.65774 0.47505 0.0
O445 O 0.47219 0.67457 0.46435 0.0
O446 O 0.43659 0.59507 0.49915 0.0
O447 O 0.43399 0.61969 0.48138 0.0
Co448 Co 0.40908 0.84689 0.4845 0.0
O449 O 0.4342 0.88861 0.47766 0.0
O450 O 0.3894 0.87124 0.48893 0.0
C451 C 0.44821 0.84152 0.49361 0.0
O452 O 0.37721 0.80577 0.49323 0.0
Co453 Co 0.41813 0.79268 0.47358 0.0
O454 O 0.3898 0.76856 0.4886 0.0
C455 C 0.38666 0.8184 0.45703 0.0
C456 C 0.41286 0.89404 0.48258 0.0
C457 C 0.37325 0.77795 0.49477 0.0
O458 O 0.38541 0.8339 0.46714 0.0
O459 O 0.40118 0.80279 0.45725 0.0
O460 O 0.4366 0.85637 0.50012 0.0
O461 O 0.43847 0.83416 0.48149 0.0
Co462 Co 0.22024 0.46612 0.35421 0.0
O463 O 0.21184 0.42754 0.36248 0.0
O464 O 0.17821 0.43366 0.34971 0.0
C465 C 0.26856 0.47991 0.34631 0.0
O466 O 0.22108 0.50224 0.34388 0.0
Co467 Co 0.27636 0.52943 0.36419 0.0
O468 O 0.26773 0.54579 0.34754 0.0
C469 C 0.21812 0.49667 0.38019 0.0
C470 C 0.18419 0.41532 0.35702 0.0
C471 C 0.24152 0.53113 0.34136 0.0
O472 O 0.20408 0.47728 0.37057 0.0
O473 O 0.24749 0.5173 0.37998 0.0
O474 O 0.24371 0.46024 0.33962 0.0
O475 O 0.26306 0.4875 0.35789 0.0
Co476 Co 0.50832 0.72031 0.34865 0.0
O477 O 0.54539 0.75619 0.35525 0.0
O478 O 0.54498 0.72015 0.34172 0.0
C479 C 0.48267 0.74629 0.34338 0.0
O480 O 0.47393 0.68054 0.33961 0.0
Co481 Co 0.44407 0.69845 0.36267 0.0
O482 O 0.42794 0.67692 0.34536 0.0
C483 C 0.49163 0.68654 0.37526 0.0
C484 C 0.5611 0.7458 0.34867 0.0
C485 C 0.44406 0.669 0.33801 0.0
O486 O 0.50867 0.69585 0.36468 0.0
O487 O 0.4661 0.6874 0.37666 0.0
O488 O 0.50296 0.74617 0.33504 0.0
O489 O 0.48091 0.73326 0.35475 0.0
Co490 Co 0.23268 0.74774 0.34849 0.0
O491 O 0.19756 0.75184 0.35417 0.0
O492 O 0.23928 0.78833 0.34312 0.0
C493 C 0.20455 0.69844 0.34012 0.0
O494 O 0.27306 0.75179 0.34095 0.0
Co495 Co 0.24338 0.69529 0.36069 0.0
O496 O 0.27378 0.7073 0.34567 0.0
C497 C 0.2562 0.75117 0.3766 0.0
C498 C 0.21241 0.77973 0.34889 0.0
C499 C 0.28479 0.73363 0.33962 0.0
O500 O 0.25399 0.76524 0.36616 0.0
O501 O 0.24965 0.72238 0.37666 0.0
O502 O 0.20939 0.72239 0.3328 0.0
O503 O 0.21416 0.70513 0.35224 0.0
C504 C 0.10989 0.16872 0.1947 0.0
C505 C 0.12122 0.15418 0.18607 0.0
C506 C 0.08014 0.16543 0.19264 0.0
C507 C 0.0614 0.14648 0.18196 0.0
C508 C 0.07529 0.1372 0.17189 0.0
C509 C 0.1054 0.14131 0.17404 0.0
C510 C 0.06683 0.17758 0.20313 0.0
C511 C 0.05654 0.11822 0.16001 0.0
C512 C 0.98244 0.08407 0.19498 0.0
C513 C 0.96247 0.0949 0.19061 0.0
C514 C 0.01435 0.10004 0.19165 0.0
C515 C 0.0268 0.12798 0.18391 0.0
C516 C 0.00649 0.13844 0.179 0.0
C517 C 0.97435 0.12158 0.18237 0.0
C518 C 0.03486 0.08739 0.19685 0.0
C519 C 0.01861 0.16808 0.17081 0.0
H520 H 0.12264 0.17959 0.20382 0.0
H521 H 0.11443 0.13064 0.16716 0.0
H522 H 0.05143 0.18557 0.19855 0.0
H523 H 0.05237 0.1583 0.21024 0.0
H524 H 0.08583 0.19739 0.20885 0.0
H525 H 0.07222 0.11991 0.15166 0.0
H526 H 0.04226 0.09308 0.16295 0.0
H527 H 0.04019 0.12615 0.15648 0.0
H528 H 0.9731 0.06312 0.20115 0.0
H529 H 0.95883 0.12999 0.179 0.0
H530 H 0.05238 0.10437 0.20401 0.0
H531 H 0.04797 0.08426 0.18853 0.0
H532 H 0.021 0.06439 0.20202 0.0
H533 H 0.02594 0.18841 0.17762 0.0
H534 H -5e-05 0.16693 0.16414 0.0
H535 H 0.0393 0.17259 0.16467 0.0
C536 C 0.85168 0.96661 0.17544 0.0
C537 C 0.83986 0.96515 0.18834 0.0
C538 C 0.86014 0.94447 0.17134 0.0
C539 C 0.8565 0.92072 0.18036 0.0
C540 C 0.83878 0.91565 0.19218 0.0
C541 C 0.83067 0.9381 0.19607 0.0
C542 C 0.87729 0.94945 0.15829 0.0
C543 C 0.83291 0.88952 0.20176 0.0
C544 C 0.88842 0.86487 0.17645 0.0
C545 C 0.91625 0.88078 0.18395 0.0
C546 C 0.86939 0.87836 0.17428 0.0
C547 C 0.87858 0.90834 0.17974 0.0
C548 C 0.90805 0.92552 0.18631 0.0
C549 C 0.92644 0.91145 0.18835 0.0
C550 C 0.8386 0.85945 0.16698 0.0
C551 C 0.91928 0.95798 0.19203 0.0
H552 H 0.85807 0.98703 0.16922 0.0
H553 H 0.82048 0.93633 0.20586 0.0
H554 H 0.90305 0.96353 0.16007 0.0
H555 H 0.87212 0.92666 0.15381 0.0
H556 H 0.87083 0.96248 0.15106 0.0
H557 H 0.81412 0.88519 0.20907 0.0
H558 H 0.82611 0.86734 0.19631 0.0
H559 H 0.85489 0.89608 0.20736 0.0
H560 H 0.88048 0.84111 0.17297 0.0
H561 H 0.94825 0.92401 0.19392 0.0
H562 H 0.83093 0.87473 0.16202 0.0
H563 H 0.82011 0.8441 0.17421 0.0
H564 H 0.84042 0.84395 0.15937 0.0
H565 H 0.91883 0.97387 0.18427 0.0
H566 H 0.9436 0.96879 0.19607 0.0
H567 H 0.90335 0.9565 0.20022 0.0
C568 C 0.14152 0.01696 0.17268 0.0
C569 C 0.12616 0.02641 0.18184 0.0
C570 C 0.12848 0.98507 0.16915 0.0
C571 C 0.09919 0.96254 0.1747 0.0
C572 C 0.08263 0.97257 0.18315 0.0
C573 C 0.09646 0.0043 0.18666 0.0
C574 C 0.1463 0.97565 0.1597 0.0
C575 C 0.05088 0.94967 0.1891 0.0
C576 C 0.03745 0.88064 0.16819 0.0
C577 C 0.03922 0.86812 0.18054 0.0
C578 C 0.06117 0.91088 0.1644 0.0
C579 C 0.08667 0.92816 0.17319 0.0
C580 C 0.09208 0.91227 0.18374 0.0
C581 C 0.068 0.88217 0.18737 0.0
C582 C 0.0559 0.9263 0.15245 0.0
C583 C 0.12023 0.92916 0.19281 0.0
H584 H 0.16439 0.03421 0.1688 0.0
H585 H 0.08428 0.01173 0.1935 0.0
H586 H 0.14479 0.95318 0.16277 0.0
H587 H 0.13576 0.97209 0.14961 0.0
H588 H 0.17152 0.99412 0.15896 0.0
H589 H 0.04066 0.96173 0.1949 0.0
H590 H 0.03399 0.9357 0.18112 0.0
H591 H 0.05323 0.93304 0.19587 0.0
H592 H 0.01567 0.86934 0.16255 0.0
H593 H 0.06994 0.87186 0.19665 0.0
H594 H 0.07861 0.94338 0.14775 0.0
H595 H 0.04391 0.93933 0.15567 0.0
H596 H 0.04076 0.90851 0.14492 0.0
H597 H 0.14157 0.94556 0.18707 0.0
H598 H 0.12493 0.91227 0.19832 0.0
H599 H 0.11556 0.94318 0.20021 0.0
C600 C 0.10728 0.08681 0.2811 0.0
C601 C 0.12732 0.11388 0.28838 0.0
C602 C 0.10702 0.05848 0.28331 0.0
C603 C 0.12812 0.05754 0.29271 0.0
C604 C 0.14944 0.08521 0.29967 0.0
C605 C 0.14839 0.11302 0.2976 0.0
C606 C 0.08338 0.02932 0.27589 0.0
C607 C 0.17295 0.0853 0.30942 0.0
C608 C 0.09815 0.97501 0.30553 0.0
C609 C 0.1105 0.96341 0.29593 0.0
C610 C 0.10564 0.00661 0.3053 0.0
C611 C 0.12664 0.02707 0.29545 0.0
C612 C 0.14196 0.01625 0.28676 0.0
C613 C 0.13331 0.98433 0.28696 0.0
C614 C 0.08835 0.01703 0.3146 0.0
C615 C 0.16532 0.03764 0.27645 0.0
H616 H 0.09078 0.08741 0.27407 0.0
H617 H 0.16405 0.1341 0.30316 0.0
H618 H 0.09574 0.0198 0.26989 0.0
H619 H 0.068 0.01077 0.28311 0.0
H620 H 0.06826 0.034 0.26911 0.0
H621 H 0.18987 0.10939 0.31301 0.0
H622 H 0.16042 0.07038 0.31816 0.0
H623 H 0.18631 0.07507 0.3047 0.0
H624 H 0.08032 0.95881 0.31241 0.0
H625 H 0.14307 0.97537 0.2796 0.0
H626 H 0.07023 0.01936 0.30888 0.0
H627 H 0.10466 0.04039 0.31898 0.0
H628 H 0.07644 -8e-05 0.32282 0.0
H629 H 0.15252 0.04092 0.26805 0.0
H630 H 0.1796 0.02767 0.27241 0.0
H631 H 0.18139 0.06122 0.28074 0.0
C632 C 0.89178 0.04283 0.31907 0.0
C633 C 0.87 0.04629 0.31126 0.0
C634 C 0.92251 0.06817 0.32068 0.0
C635 C 0.93096 0.09736 0.31455 0.0
C636 C 0.90715 0.10241 0.30919 0.0
C637 C 0.8769 0.07651 0.3073 0.0
C638 C 0.94696 0.06218 0.32698 0.0
C639 C 0.91478 0.13398 0.30357 0.0
C640 C 0.01852 0.15828 0.31287 0.0
C641 C 0.02622 0.15174 0.30023 0.0
C642 C 0.98734 0.14176 0.31761 0.0
C643 C 0.9638 0.11736 0.30973 0.0
C644 C 0.97166 0.11084 0.29696 0.0
C645 C 0.00256 0.12842 0.29232 0.0
C646 C 0.98015 0.15022 0.33112 0.0
C647 C 0.94761 0.0847 0.28821 0.0
H648 H 0.88631 0.01954 0.32233 0.0
H649 H 0.85974 0.07934 0.30155 0.0
H650 H 0.96109 0.05933 0.31902 0.0
H651 H 0.96326 0.08241 0.33327 0.0
H652 H 0.93605 0.0405 0.3332 0.0
H653 H 0.89348 0.13647 0.30314 0.0
H654 H 0.93311 0.15343 0.30966 0.0
H655 H 0.92404 0.13629 0.29328 0.0
H656 H 0.0368 0.17639 0.31901 0.0
H657 H 0.00845 0.12304 0.28262 0.0
H658 H 0.98525 0.13735 0.33893 0.0
H659 H 0.95514 0.14403 0.33206 0.0
H660 H 0.9954 0.17581 0.33311 0.0
H661 H 0.93634 0.06204 0.29372 0.0
H662 H 0.95817 0.0816 0.27893 0.0
H663 H 0.92885 0.08992 0.28532 0.0
C664 C 0.85616 0.89412 0.29992 0.0
C665 C 0.8673 0.92316 0.29343 0.0
C666 C 0.87453 0.87943 0.30046 0.0
C667 C 0.90496 0.89458 0.29466 0.0
C668 C 0.91647 0.92419 0.28834 0.0
C669 C 0.89737 0.9379 0.28767 0.0
C670 C 0.86128 0.84762 0.30705 0.0
C671 C 0.94909 0.94153 0.28233 0.0
C672 C 0.97031 0.87884 0.30463 0.0
C673 C 0.9732 0.86437 0.29306 0.0
C674 C 0.94675 0.88703 0.30571 0.0
C675 C 0.92518 0.87992 0.29509 0.0
C676 C 0.92621 0.86266 0.28396 0.0
C677 C 0.95048 0.85545 0.28299 0.0
C678 C 0.94681 0.9058 0.31766 0.0
C679 C 0.90307 0.85381 0.27261 0.0
H680 H 0.83286 0.88261 0.30434 0.0
H681 H 0.90624 0.96054 0.2828 0.0
H682 H 0.86018 0.83014 0.29972 0.0
H683 H 0.87695 0.84872 0.31526 0.0
H684 H 0.8373 0.83909 0.31116 0.0
H685 H 0.95489 0.96489 0.27823 0.0
H686 H 0.96693 0.94509 0.28998 0.0
H687 H 0.95107 0.92732 0.27417 0.0
H688 H 0.98786 0.88593 0.31243 0.0
H689 H 0.9524 0.84394 0.2741 0.0
H690 H 0.92261 0.89666 0.32155 0.0
H691 H 0.95584 0.93064 0.31463 0.0
H692 H 0.96193 0.90545 0.32584 0.0
H693 H 0.87876 0.84421 0.27647 0.0
H694 H 0.90368 0.83613 0.26587 0.0
H695 H 0.90884 0.87513 0.26666 0.0
C696 C 0.94207 0.94607 0.82319 0.0
C697 C 0.91037 0.92762 0.82683 0.0
C698 C 0.96463 0.93865 0.82759 0.0
C699 C 0.9553 0.91177 0.83573 0.0
C700 C 0.92369 0.89398 0.84008 0.0
C701 C 0.90149 0.90203 0.83552 0.0
C702 C -0.00172 0.95888 0.82297 0.0
C703 C 0.91292 0.86557 0.84897 0.0
C704 C 0.009 0.8812 0.8267 0.0
C705 C 0.03383 0.89824 0.83556 0.0
C706 C 0.98093 0.88191 0.82775 0.0
C707 C 0.97796 0.90042 0.83786 0.0
C708 C 0.00121 0.91391 0.84796 0.0
C709 C 0.02912 0.91263 0.8467 0.0
C710 C 0.95659 0.86671 0.81686 0.0
C711 C -0.00155 0.93295 0.85914 0.0
H712 H 0.94925 0.96589 0.8165 0.0
H713 H 0.87707 0.88778 0.83851 0.0
H714 H 0.01406 0.96788 0.83175 0.0
H715 H 0.00555 0.94465 0.81691 0.0
H716 H 0.00173 0.97937 0.81692 0.0
H717 H 0.89064 0.8596 0.85421 0.0
H718 H 0.90867 0.845 0.84282 0.0
H719 H 0.93113 0.86949 0.85649 0.0
H720 H 0.01279 0.87001 0.81812 0.0
H721 H 0.04846 0.92594 0.85353 0.0
H722 H 0.9585 0.88516 0.80987 0.0
H723 H 0.93247 0.85476 0.82109 0.0
H724 H 0.95993 0.84924 0.81109 0.0
H725 H 0.00692 0.95736 0.85563 0.0
H726 H 0.01302 0.93411 0.86785 0.0
H727 H 0.97362 0.92291 0.86239 0.0
C728 C 0.13124 0.15809 0.84304 0.0
C729 C 0.13009 0.1588 0.82907 0.0
C730 C 0.134 0.13411 0.84958 0.0
C731 C 0.13469 0.11019 0.8419 0.0
C732 C 0.13705 0.11311 0.8278 0.0
C733 C 0.13549 0.13781 0.82164 0.0
C734 C 0.13521 0.13384 0.86462 0.0
C735 C 0.13773 0.08835 0.81899 0.0
C736 C 0.13899 0.03741 0.84588 0.0
C737 C 0.1071 0.0156 0.84353 0.0
C738 C 0.1486 0.06921 0.84834 0.0
C739 C 0.12596 0.07903 0.84778 0.0
C740 C 0.09353 0.05607 0.84819 0.0
C741 C 0.0845 0.0244 0.84628 0.0
C742 C 0.18319 0.09276 0.84966 0.0
C743 C 0.06828 0.06516 0.84829 0.0
H744 H 0.12814 0.17501 0.84884 0.0
H745 H 0.13573 0.13901 0.81084 0.0
H746 H 0.11954 0.10996 0.86871 0.0
H747 H 0.15956 0.14082 0.86774 0.0
H748 H 0.12876 0.15054 0.86914 0.0
H749 H 0.13897 0.09413 0.80821 0.0
H750 H 0.1584 0.08585 0.82144 0.0
H751 H 0.11623 0.06517 0.82065 0.0
H752 H 0.15666 0.03057 0.84443 0.0
H753 H 0.0597 0.00722 0.84526 0.0
H754 H 0.18699 0.11369 0.85544 0.0
H755 H 0.19369 0.10078 0.83962 0.0
H756 H 0.19576 0.08195 0.85462 0.0
H757 H 0.07243 0.082 0.85647 0.0
H758 H 0.04431 0.04442 0.84951 0.0
H759 H 0.06901 0.07699 0.83875 0.0
C760 C 0.87301 0.01355 0.82381 0.0
C761 C 0.85672 0.98844 0.83267 0.0
C762 C 0.9024 0.03907 0.82713 0.0
C763 C 0.91508 0.04044 0.83999 0.0
C764 C 0.89636 0.0176 0.84969 0.0
C765 C 0.86752 0.99137 0.84583 0.0
C766 C 0.92117 0.06255 0.8163 0.0
C767 C 0.90733 0.01935 0.86387 0.0
C768 C 0.00051 0.07004 0.83446 0.0
C769 C 0.01166 0.10244 0.83326 0.0
C770 C 0.96973 0.0494 0.83872 0.0
C771 C 0.9496 0.06146 0.84187 0.0
C772 C 0.96246 0.09442 0.84297 0.0
C773 C 0.9933 0.11467 0.83842 0.0
C774 C 0.95781 0.01447 0.83831 0.0
C775 C 0.94295 0.10835 0.84784 0.0
H776 H 0.86418 0.01186 0.81375 0.0
H777 H 0.85464 0.97239 0.85288 0.0
H778 H 0.92715 0.08659 0.81941 0.0
H779 H 0.94357 0.06266 0.8145 0.0
H780 H 0.90816 0.05725 0.8067 0.0
H781 H 0.8879 0.01481 0.87084 0.0
H782 H 0.91327 0.00055 0.8656 0.0
H783 H 0.92808 0.04253 0.86632 0.0
H784 H 0.01479 0.06032 0.83097 0.0
H785 H 0.0021 0.13982 0.8381 0.0
H786 H 0.93882 0.00324 0.83078 0.0
H787 H 0.94777 0.00374 0.84812 0.0
H788 H 0.97671 0.00907 0.83582 0.0
H789 H 0.93316 0.11473 0.83919 0.0
H790 H 0.95781 0.13029 0.85357 0.0
H791 H 0.92315 0.09156 0.85425 0.0
C792 C 0.85738 0.97574 0.67091 0.0
C793 C 0.8642 0.00102 0.66242 0.0
C794 C 0.8616 0.95094 0.6667 0.0
C795 C 0.87082 0.95032 0.65332 0.0
C796 C 0.87242 0.97305 0.64413 0.0
C797 C 0.86978 -0.00133 0.64886 0.0
C798 C 0.85962 0.92754 0.67707 0.0
C799 C 0.87903 0.97193 0.62952 0.0
C800 C 0.92935 0.9239 0.65639 0.0
C801 C 0.90877 0.89174 0.6587 0.0
C802 C 0.91778 0.94347 0.65223 0.0
C803 C 0.88498 0.93035 0.65023 0.0
C804 C 0.86557 0.89726 0.64964 0.0
C805 C 0.87753 0.87815 0.65416 0.0
C806 C 0.9401 0.97854 0.65164 0.0
C807 C 0.83142 0.88215 0.64567 0.0
H808 H 0.85177 0.97685 0.68129 0.0
H809 H 0.87405 0.01767 0.6421 0.0
H810 H 0.8412 0.90341 0.67426 0.0
H811 H 0.88238 0.92785 0.67771 0.0
H812 H 0.85386 0.93259 0.68716 0.0
H813 H 0.90274 0.99185 0.62704 0.0
H814 H 0.87769 0.94946 0.62658 0.0
H815 H 0.86184 0.97509 0.62347 0.0
H816 H 0.95394 0.93444 0.65915 0.0
H817 H 0.86167 0.85302 0.65519 0.0
H818 H 0.93296 0.99062 0.65902 0.0
H819 H 0.93908 0.98754 0.64162 0.0
H820 H 0.96487 0.98488 0.65363 0.0
H821 H 0.81647 0.87585 0.65473 0.0
H822 H 0.82421 0.86003 0.64007 0.0
H823 H 0.82688 0.8982 0.63943 0.0
C824 C 0.06907 0.96994 0.65373 0.0
C825 C 0.09915 0.97757 0.6582 0.0
C826 C 0.04647 0.9387 0.65098 0.0
C827 C 0.05478 0.915 0.65236 0.0
C828 C 0.087 0.92398 0.65338 0.0
C829 C 0.109 0.95533 0.65671 0.0
C830 C 0.01281 0.93074 0.64879 0.0
C831 C 0.0974 0.89983 0.65283 0.0
C832 C -0.00033 0.85736 0.67752 0.0
C833 C 0.97404 0.83755 0.66949 0.0
C834 C 0.02755 0.88112 0.67197 0.0
C835 C 0.03051 0.88411 0.65787 0.0
C836 C 0.00647 0.8609 0.64971 0.0
C837 C 0.97806 0.83806 0.65563 0.0
C838 C 0.05204 0.90508 0.68134 0.0
C839 C 0.00945 0.8611 0.63475 0.0
H840 H 0.06204 0.98767 0.65398 0.0
H841 H 0.13276 0.96138 0.65945 0.0
H842 H 0.00309 0.91577 0.63981 0.0
H843 H -0.00184 0.91732 0.65746 0.0
H844 H 0.01066 0.9521 0.64746 0.0
H845 H 0.12128 0.91018 0.64837 0.0
H846 H 0.09867 0.89198 0.66307 0.0
H847 H 0.08069 0.87891 0.64693 0.0
H848 H -0.00311 0.85622 0.68828 0.0
H849 H 0.9585 0.82219 0.64935 0.0
H850 H 0.05563 0.92889 0.67923 0.0
H851 H 0.07487 0.90594 0.67996 0.0
H852 H 0.04526 0.89962 0.692 0.0
H853 H 0.03349 0.87819 0.63118 0.0
H854 H 0.99224 0.86669 0.63012 0.0
H855 H 0.00331 0.8372 0.63125 0.0
C856 C 0.98964 0.03612 0.67339 0.0
C857 C 0.9774 0.05531 0.66947 0.0
C858 C 0.0202 0.0436 0.66985 0.0
C859 C 0.03911 0.07107 0.66222 0.0
C860 C 0.02607 0.08913 0.65731 0.0
C861 C 0.99535 0.08113 0.66106 0.0
C862 C 0.03297 0.02335 0.67517 0.0
C863 C 0.04518 0.11813 0.6489 0.0
C864 C 0.12192 0.1047 0.67443 0.0
C865 C 0.13315 0.09007 0.66584 0.0
C866 C 0.09232 0.10166 0.67244 0.0
C867 C 0.07356 0.08333 0.66163 0.0
C868 C 0.08649 0.07187 0.65198 0.0
C869 C 0.11644 0.07546 0.6542 0.0
C870 C 0.07968 0.11466 0.6829 0.0
C871 C 0.06746 0.05301 0.64013 0.0
H872 H 0.97587 0.01592 0.67976 0.0
H873 H 0.9859 0.09583 0.65779 0.0
H874 H 0.04419 0.01715 0.66705 0.0
H875 H 0.05129 0.03668 0.6828 0.0
H876 H 0.01434 0.00121 0.67978 0.0
H877 H 0.0298 0.12431 0.64304 0.0
H878 H 0.06017 0.13832 0.6555 0.0
H879 H 0.06094 0.11483 0.64197 0.0
H880 H 0.13506 0.11608 0.6834 0.0
H881 H 0.12514 0.06397 0.6476 0.0
H882 H 0.06178 0.095 0.68904 0.0
H883 H 0.06802 0.12661 0.67817 0.0
H884 H 0.09852 0.13165 0.68963 0.0
H885 H 0.04981 0.02891 0.64342 0.0
H886 H 0.08258 0.05103 0.63238 0.0
H887 H 0.05444 0.06385 0.63565 0.0
C888 C 0.63837 0.42747 0.53132 0.0
C889 C 0.62022 0.43787 0.52464 0.0
C890 C 0.67072 0.44153 0.52909 0.0
C891 C 0.68558 0.46725 0.52011 0.0
C892 C 0.66721 0.47731 0.51296 0.0
C893 C 0.6345 0.46223 0.51525 0.0
C894 C 0.68904 0.42927 0.53671 0.0
C895 C 0.68199 0.50475 0.50342 0.0
C896 C 0.76729 0.50839 0.53304 0.0
C897 C 0.77893 0.49116 0.52639 0.0
C898 C 0.73827 0.50529 0.5294 0.0
C899 C 0.72049 0.48395 0.51913 0.0
C900 C 0.73489 0.47133 0.51088 0.0
C901 C 0.76425 0.47523 0.51458 0.0
C902 C 0.72447 0.5207 0.53795 0.0
C903 C 0.71724 0.44948 0.49949 0.0
H904 H 0.62717 0.40822 0.5384 0.0
H905 H 0.62036 0.47026 0.51008 0.0
H906 H 0.70288 0.42336 0.52973 0.0
H907 H 0.70583 0.44767 0.54363 0.0
H908 H 0.6735 0.4079 0.54265 0.0
H909 H 0.66478 0.5031 0.4958 0.0
H910 H 0.68993 0.52689 0.50909 0.0
H911 H 0.70281 0.50637 0.4983 0.0
H912 H 0.77909 0.52152 0.54195 0.0
H913 H 0.77345 0.46235 0.50922 0.0
H914 H 0.70862 0.50357 0.54553 0.0
H915 H 0.71036 0.52802 0.53184 0.0
H916 H 0.74314 0.54161 0.54327 0.0
H917 H 0.70171 0.42542 0.50348 0.0
H918 H 0.73364 0.44827 0.49218 0.0
H919 H 0.70219 0.45707 0.49427 0.0
C920 C 0.52007 0.29915 0.5191 0.0
C921 C 0.50263 0.30382 0.52899 0.0
C922 C 0.52273 0.27196 0.51913 0.0
C923 C 0.50698 0.24884 0.52911 0.0
C924 C 0.48605 0.25168 0.53797 0.0
C925 C 0.48447 0.27945 0.53793 0.0
C926 C 0.54552 0.27005 0.50957 0.0
C927 C 0.46799 0.22706 0.54846 0.0
C928 C 0.51576 0.1759 0.52926 0.0
C929 C 0.5397 0.18458 0.53875 0.0
C930 C 0.50428 0.1963 0.52608 0.0
C931 C 0.51785 0.22624 0.53227 0.0
C932 C 0.54242 0.23516 0.54169 0.0
C933 C 0.55268 0.21404 0.54494 0.0
C934 C 0.4775 0.18573 0.51629 0.0
C935 C 0.5582 0.26722 0.54827 0.0
H936 H 0.53412 0.31803 0.51217 0.0
H937 H 0.4705 0.28288 0.54542 0.0
H938 H 0.56789 0.27687 0.51488 0.0
H939 H 0.53617 0.24572 0.50581 0.0
H940 H 0.55087 0.28615 0.50093 0.0
H941 H 0.44805 0.22925 0.5525 0.0
H942 H 0.45873 0.203 0.54435 0.0
H943 H 0.484 0.22993 0.55684 0.0
H944 H 0.50573 0.15304 0.52449 0.0
H945 H 0.57157 0.22096 0.55211 0.0
H946 H 0.484 0.2032 0.50814 0.0
H947 H 0.45671 0.18418 0.52143 0.0
H948 H 0.47064 0.1624 0.51186 0.0
H949 H 0.56747 0.286 0.54056 0.0
H950 H 0.57798 0.27093 0.55486 0.0
H951 H 0.54081 0.26999 0.55433 0.0
C952 C 0.67122 0.21046 0.52449 0.0
C953 C 0.6685 0.19777 0.53731 0.0
C954 C 0.69546 0.24103 0.52151 0.0
C955 C 0.71753 0.25886 0.53153 0.0
C956 C 0.71759 0.24435 0.54372 0.0
C957 C 0.69279 0.21405 0.54654 0.0
C958 C 0.69499 0.25545 0.50827 0.0
C959 C 0.74153 0.26217 0.55447 0.0
C960 C 0.78305 0.34364 0.52729 0.0
C961 C 0.76952 0.35955 0.53361 0.0
C962 C 0.76601 0.31071 0.52588 0.0
C963 C 0.73478 0.29373 0.53078 0.0
C964 C 0.72042 0.31011 0.53628 0.0
C965 C 0.73809 0.34279 0.53773 0.0
C966 C 0.78216 0.29418 0.51996 0.0
C967 C 0.68684 0.29301 0.54131 0.0
H968 H 0.65284 0.19787 0.51718 0.0
H969 H 0.69119 0.20423 0.55638 0.0
H970 H 0.68329 0.2697 0.50953 0.0
H971 H 0.71922 0.27136 0.50457 0.0
H972 H 0.68177 0.23711 0.50062 0.0
H973 H 0.74218 0.24606 0.5621 0.0
H974 H 0.7654 0.27644 0.55012 0.0
H975 H 0.73538 0.27853 0.55952 0.0
H976 H 0.80745 0.35667 0.52411 0.0
H977 H 0.72751 0.35522 0.54242 0.0
H978 H 0.7656 0.27343 0.51396 0.0
H979 H 0.79124 0.28568 0.52814 0.0
H980 H 0.80239 0.31031 0.51357 0.0
H981 H 0.67081 0.2769 0.53352 0.0
H982 H 0.67849 0.30947 0.54425 0.0
H983 H 0.68503 0.27849 0.55012 0.0
C984 C 0.79839 0.44101 0.64703 0.0
C985 C 0.81154 0.45846 0.63534 0.0
C986 C 0.79224 0.40991 0.6481 0.0
C987 C 0.79989 0.39636 0.6373 0.0
C988 C 0.81645 0.41513 0.62618 0.0
C989 C 0.82183 0.44592 0.62528 0.0
C990 C 0.77459 0.39069 0.66014 0.0
C991 C 0.82577 0.40179 0.61461 0.0
C992 C 0.78862 0.31393 0.63842 0.0
C993 C 0.76071 0.2973 0.6311 0.0
C994 C 0.80143 0.34623 0.64098 0.0
C995 C 0.78542 0.36171 0.63633 0.0
C996 C 0.75621 0.3444 0.62964 0.0
C997 C 0.74444 0.31248 0.62694 0.0
C998 C 0.83275 0.364 0.64801 0.0
C999 C 0.73789 0.35982 0.62486 0.0
H1000 H 0.7905 0.45065 0.65488 0.0
H1001 H 0.83257 0.45953 0.61636 0.0
H1002 H 0.74933 0.37567 0.65755 0.0
H1003 H 0.78351 0.37489 0.6633 0.0
H1004 H 0.77635 0.40592 0.66869 0.0
H1005 H 0.84294 0.42059 0.60789 0.0
H1006 H 0.83617 0.38759 0.61823 0.0
H1007 H 0.8045 0.38599 0.60869 0.0
H1008 H 0.80112 0.30202 0.64163 0.0
H1009 H 0.72253 0.29935 0.62148 0.0
H1010 H 0.8322 0.37996 0.65571 0.0
H1011 H 0.85121 0.37885 0.64067 0.0
H1012 H 0.83962 0.34787 0.6528 0.0
H1013 H 0.73475 0.37307 0.63312 0.0
H1014 H 0.71428 0.34242 0.62094 0.0
H1015 H 0.75117 0.37692 0.61681 0.0
C1016 C 0.5678 0.37215 0.6533 0.0
C1017 C 0.54929 0.37341 0.64295 0.0
C1018 C 0.59691 0.3987 0.6564 0.0
C1019 C 0.60704 0.42684 0.64905 0.0
C1020 C 0.58546 0.42968 0.6406 0.0
C1021 C 0.55693 0.40262 0.63741 0.0
C1022 C 0.61882 0.39493 0.6658 0.0
C1023 C 0.59461 0.45988 0.63324 0.0
C1024 C 0.69243 0.49355 0.65138 0.0
C1025 C 0.70559 0.48648 0.64042 0.0
C1026 C 0.66021 0.47453 0.65446 0.0
C1027 C 0.64126 0.44764 0.64653 0.0
C1028 C 0.65489 0.44018 0.63566 0.0
C1029 C 0.68666 0.45988 0.63268 0.0
C1030 C 0.64653 0.48389 0.66586 0.0
C1031 C 0.63597 0.41135 0.62706 0.0
H1032 H 0.56172 0.3496 0.65771 0.0
H1033 H 0.54222 0.40371 0.62959 0.0
H1034 H 0.6348 0.3896 0.65993 0.0
H1035 H 0.63357 0.41691 0.67148 0.0
H1036 H 0.60559 0.37529 0.67293 0.0
H1037 H 0.57352 0.46086 0.62988 0.0
H1038 H 0.60929 0.48063 0.63963 0.0
H1039 H 0.60866 0.46138 0.6243 0.0
H1040 H 0.70711 0.51422 0.65737 0.0
H1041 H 0.69693 0.45403 0.62435 0.0
H1042 H 0.62781 0.46304 0.67115 0.0
H1043 H 0.63579 0.49746 0.66185 0.0
H1044 H 0.66499 0.49908 0.67315 0.0
H1045 H 0.62427 0.38988 0.63335 0.0
H1046 H 0.65075 0.40805 0.61955 0.0
H1047 H 0.61734 0.41345 0.62166 0.0
C1048 C 0.63678 0.18389 0.64556 0.0
C1049 C 0.63817 0.17244 0.63289 0.0
C1050 C 0.61274 0.19046 0.64868 0.0
C1051 C 0.58978 0.18516 0.63893 0.0
C1052 C 0.58778 0.16795 0.62728 0.0
C1053 C 0.61222 0.16194 0.62434 0.0
C1054 C 0.61487 0.2075 0.6615 0.0
C1055 C 0.5627 0.16037 0.6169 0.0
C1056 C 0.53073 0.21384 0.64193 0.0
C1057 C 0.54657 0.24235 0.63488 0.0
C1058 C 0.54466 0.19502 0.64378 0.0
C1059 C 0.5753 0.20549 0.63871 0.0
C1060 C 0.59197 0.2352 0.6323 0.0
C1061 C 0.57731 0.25308 0.6304 0.0
C1062 C 0.52643 0.16388 0.65093 0.0
C1063 C 0.62497 0.24773 0.62692 0.0
H1064 H 0.65631 0.1913 0.65243 0.0
H1065 H 0.61261 0.15211 0.61471 0.0
H1066 H 0.62721 0.23324 0.65957 0.0
H1067 H 0.59111 0.20046 0.66543 0.0
H1068 H 0.62829 0.20286 0.66923 0.0
H1069 H 0.5601 0.1413 0.6101 0.0
H1070 H 0.53963 0.15316 0.62165 0.0
H1071 H 0.56931 0.18172 0.61081 0.0
H1072 H 0.507 0.20563 0.6455 0.0
H1073 H 0.58983 0.27539 0.62517 0.0
H1074 H 0.53629 0.16604 0.66108 0.0
H1075 H 0.52849 0.14508 0.64566 0.0
H1076 H 0.50109 0.15648 0.65193 0.0
H1077 H 0.64082 0.24821 0.63493 0.0
H1078 H 0.63507 0.2719 0.62278 0.0
H1079 H 0.62476 0.23204 0.6189 0.0
C1080 C 0.69663 0.21464 0.18145 0.0
C1081 C 0.70673 0.21953 0.16815 0.0
C1082 C 0.66523 0.2056 0.18458 0.0
C1083 C 0.64432 0.20252 0.17417 0.0
C1084 C 0.6535 0.20295 0.16072 0.0
C1085 C 0.68455 0.21116 0.15792 0.0
C1086 C 0.65559 0.20244 0.19902 0.0
C1087 C 0.63201 0.1991 0.14917 0.0
C1088 C 0.56342 0.19168 0.17095 0.0
C1089 C 0.57176 0.2232 0.16871 0.0
C1090 C 0.58627 0.18405 0.17507 0.0
C1091 C 0.61788 0.20847 0.17665 0.0
C1092 C 0.62491 0.24021 0.17649 0.0
C1093 C 0.60174 0.24704 0.17249 0.0
C1094 C 0.57712 0.14989 0.1764 0.0
C1095 C 0.65796 0.26734 0.17856 0.0
H1096 H 0.71358 0.22021 0.18941 0.0
H1097 H 0.69216 0.21381 0.14761 0.0
H1098 H 0.66518 0.22619 0.2035 0.0
H1099 H 0.62961 0.18938 0.20025 0.0
H1100 H 0.6657 0.19006 0.20467 0.0
H1101 H 0.64234 0.19846 0.13939 0.0
H1102 H 0.60915 0.17702 0.15026 0.0
H1103 H 0.62727 0.21901 0.14902 0.0
H1104 H 0.53993 0.17292 0.16849 0.0
H1105 H 0.60809 0.27127 0.17114 0.0
H1106 H 0.59418 0.14689 0.18262 0.0
H1107 H 0.5761 0.13986 0.16638 0.0
H1108 H 0.55329 0.13619 0.1809 0.0
H1109 H 0.66834 0.26387 0.18777 0.0
H1110 H 0.65865 0.29029 0.17935 0.0
H1111 H 0.67299 0.26863 0.17003 0.0
C1112 C 0.74137 0.34568 0.18371 0.0
C1113 C 0.76619 0.33972 0.18158 0.0
C1114 C 0.74724 0.37529 0.18799 0.0
C1115 C 0.77868 0.39921 0.19047 0.0
C1116 C 0.80264 0.39114 0.19107 0.0
C1117 C 0.79631 0.36153 0.18633 0.0
C1118 C 0.72034 0.382 0.18809 0.0
C1119 C 0.83565 0.41474 0.19536 0.0
C1120 C 0.79335 0.4705 0.17096 0.0
C1121 C 0.78168 0.48448 0.17971 0.0
C1122 C 0.79529 0.44413 0.17476 0.0
C1123 C 0.78698 0.43242 0.18797 0.0
C1124 C 0.78011 0.44962 0.19745 0.0
C1125 C 0.77687 0.47522 0.19314 0.0
C1126 C 0.80277 0.42691 0.16413 0.0
C1127 C 0.77401 0.44006 0.21191 0.0
H1128 H 0.7177 0.32834 0.18073 0.0
H1129 H 0.81552 0.35669 0.18533 0.0
H1130 H 0.71876 0.39117 0.19799 0.0
H1131 H 0.72455 0.40027 0.18056 0.0
H1132 H 0.69731 0.36068 0.18593 0.0
H1133 H 0.84623 0.40282 0.20101 0.0
H1134 H 0.85057 0.42571 0.18644 0.0
H1135 H 0.83611 0.4336 0.20166 0.0
H1136 H 0.79822 0.47837 0.16068 0.0
H1137 H 0.76871 0.48655 0.20009 0.0
H1138 H 0.78283 0.40249 0.163 0.0
H1139 H 0.82386 0.42553 0.16701 0.0
H1140 H 0.80744 0.43867 0.15424 0.0
H1141 H 0.78066 0.42218 0.21458 0.0
H1142 H 0.7487 0.43062 0.2142 0.0
H1143 H 0.78749 0.46111 0.21833 0.0
C1144 C 0.52588 0.29173 0.17915 0.0
C1145 C 0.51717 0.28867 0.16569 0.0
C1146 C 0.55117 0.32015 0.18394 0.0
C1147 C 0.56811 0.34543 0.17494 0.0
C1148 C 0.55649 0.34358 0.16184 0.0
C1149 C 0.53106 0.31522 0.15741 0.0
C1150 C 0.56161 0.32182 0.1982 0.0
C1151 C 0.57333 0.37005 0.15191 0.0
C1152 C 0.64099 0.42519 0.17905 0.0
C1153 C 0.6638 0.41876 0.1738 0.0
C1154 C 0.60983 0.40081 0.18112 0.0
C1155 C 0.60143 0.36961 0.17764 0.0
C1156 C 0.62522 0.36284 0.17381 0.0
C1157 C 0.65604 0.3874 0.17199 0.0
C1158 C 0.58564 0.40893 0.18597 0.0
C1159 C 0.61764 0.32997 0.17023 0.0
H1160 H 0.51485 0.27133 0.18565 0.0
H1161 H 0.52378 0.31305 0.14707 0.0
H1162 H 0.57822 0.31269 0.19885 0.0
H1163 H 0.57376 0.34638 0.20199 0.0
H1164 H 0.5412 0.307 0.20476 0.0
H1165 H 0.55941 0.36615 0.14265 0.0
H1166 H 0.57837 0.39281 0.15634 0.0
H1167 H 0.59619 0.37203 0.14916 0.0
H1168 H 0.64688 0.44934 0.18082 0.0
H1169 H 0.67348 0.38202 0.16815 0.0
H1170 H 0.56629 0.38899 0.19147 0.0
H1171 H 0.57529 0.41458 0.1773 0.0
H1172 H 0.59661 0.42995 0.19256 0.0
H1173 H 0.60323 0.31337 0.17821 0.0
H1174 H 0.6392 0.32823 0.16876 0.0
H1175 H 0.60373 0.32257 0.16086 0.0
C1176 C 0.53949 0.32629 0.01639 0.0
C1177 C 0.54902 0.35263 0.00818 0.0
C1178 C 0.54332 0.30112 0.01239 0.0
C1179 C 0.55646 0.30202 -0.0003 0.0
C1180 C 0.56209 0.32658 0.99066 0.0
C1181 C 0.55859 0.35195 0.99507 0.0
C1182 C 0.5369 0.27558 0.02244 0.0
C1183 C 0.5743 0.32771 0.97675 0.0
C1184 C 0.61171 0.27083 0.00448 0.0
C1185 C 0.59155 0.23854 0.00253 0.0
C1186 C 0.60158 0.29238 0.00199 0.0
C1187 C 0.57043 0.28151 0.99752 0.0
C1188 C 0.55127 0.2495 0.99398 0.0
C1189 C 0.56193 0.22822 0.99663 0.0
C1190 C 0.6237 0.32664 0.00488 0.0
C1191 C 0.5188 0.23739 0.98823 0.0
H1192 H 0.5315 0.32659 0.02645 0.0
H1193 H 0.56568 0.37217 0.98863 0.0
H1194 H 0.52215 0.25197 0.01796 0.0
H1195 H 0.55948 0.2774 0.02557 0.0
H1196 H 0.52475 0.27727 0.0315 0.0
H1197 H 0.56312 0.33654 0.96963 0.0
H1198 H 0.60003 0.34451 0.9765 0.0
H1199 H 0.56988 0.30431 0.97333 0.0
H1200 H 0.6349 0.27924 0.00871 0.0
H1201 H 0.54641 0.20336 0.9947 0.0
H1202 H 0.6135 0.33524 0.01256 0.0
H1203 H 0.62691 0.34011 0.99559 0.0
H1204 H 0.64719 0.33135 0.00836 0.0
H1205 H 0.5017 0.23214 0.99644 0.0
H1206 H 0.51105 0.21535 0.98247 0.0
H1207 H 0.51814 0.25525 0.98164 0.0
C1208 C 0.78343 0.32397 0.99073 0.0
C1209 C 0.7704 0.34201 0.99539 0.0
C1210 C 0.76386 0.29352 0.98562 0.0
C1211 C 0.73081 0.28074 0.98582 0.0
C1212 C 0.71849 0.30102 0.98813 0.0
C1213 C 0.73859 0.33162 0.99273 0.0
C1214 C 0.7783 0.27399 0.98142 0.0
C1215 C 0.68359 0.28932 0.98741 0.0
C1216 C 0.66083 0.19836 0.98255 0.0
C1217 C 0.65738 0.18863 0.9959 0.0
C1218 C 0.68724 0.22686 0.97849 0.0
C1219 C 0.70968 0.24639 0.98814 0.0
C1220 C 0.70768 0.23484 0.0013 0.0
C1221 C 0.6821 0.20568 0.00484 0.0
C1222 C 0.68963 0.23652 0.96407 0.0
C1223 C 0.73055 0.25452 0.01216 0.0
H1224 H 0.80831 0.33232 0.9921 0.0
H1225 H 0.72863 0.34616 0.99558 0.0
H1226 H 0.7836 0.26411 0.99035 0.0
H1227 H 0.76228 0.25427 0.9748 0.0
H1228 H 0.80091 0.28891 0.97613 0.0
H1229 H 0.67785 0.30798 0.98989 0.0
H1230 H 0.67488 0.28071 0.97721 0.0
H1231 H 0.67067 0.26931 0.99439 0.0
H1232 H 0.6422 0.1848 0.97546 0.0
H1233 H 0.68009 0.19764 0.01506 0.0
H1234 H 0.6861 0.21667 0.95756 0.0
H1235 H 0.71268 0.25746 0.9616 0.0
H1236 H 0.67047 0.24156 0.96169 0.0
H1237 H 0.75462 0.25959 0.00961 0.0
H1238 H 0.72431 0.2426 0.02203 0.0
H1239 H 0.73114 0.27736 0.01318 0.0
C1240 C 0.79123 0.45892 0.021 0.0
C1241 C 0.81064 0.4578 0.01104 0.0
C1242 C 0.76557 0.46255 0.01779 0.0
C1243 C 0.75972 0.46615 0.00424 0.0
C1244 C 0.78195 0.46977 0.99436 0.0
C1245 C 0.80714 0.46505 0.99784 0.0
C1246 C 0.74282 0.45878 0.02881 0.0
C1247 C 0.77794 0.47661 0.98005 0.0
C1248 C 0.67344 0.41504 0.00199 0.0
C1249 C 0.66381 0.4354 0.00709 0.0
C1250 C 0.70489 0.42579 0.99879 0.0
C1251 C 0.72722 0.4581 0.00058 0.0
C1252 C 0.7166 0.47965 0.00325 0.0
C1253 C 0.68483 0.46797 0.0067 0.0
C1254 C 0.71461 0.4016 0.99578 0.0
C1255 C 0.73925 0.51456 0.00412 0.0
H1256 H 0.79459 0.45438 0.03128 0.0
H1257 H 0.82273 0.46508 0.99017 0.0
H1258 H 0.73875 0.47906 0.02889 0.0
H1259 H 0.71979 0.43713 0.02712 0.0
H1260 H 0.7515 0.45702 0.03883 0.0
H1261 H 0.79855 0.48126 0.9738 0.0
H1262 H 0.75656 0.45648 0.9757 0.0
H1263 H 0.7746 0.49738 0.9796 0.0
H1264 H 0.65694 0.39016 0.00177 0.0
H1265 H 0.67734 0.48413 0.01021 0.0
H1266 H 0.72552 0.39792 0.0048 0.0
H1267 H 0.73223 0.40968 0.98765 0.0
H1268 H 0.69421 0.37852 0.99286 0.0
H1269 H 0.74664 0.52115 0.01464 0.0
H1270 H 0.72773 0.52799 0.0008 0.0
H1271 H 0.76062 0.52166 0.99799 0.0
C1272 C 0.30972 0.73745 0.85292 0.0
C1273 C 0.28765 0.74316 0.84656 0.0
C1274 C 0.34161 0.75457 0.84955 0.0
C1275 C 0.35172 0.77795 0.83945 0.0
C1276 C 0.32917 0.78173 0.8321 0.0
C1277 C 0.29728 0.76433 0.8358 0.0
C1278 C 0.36465 0.74911 0.85754 0.0
C1279 C 0.33851 0.80535 0.82092 0.0
C1280 C 0.43014 0.83839 0.85161 0.0
C1281 C 0.44759 0.8244 0.84738 0.0
C1282 C 0.39915 0.82664 0.84726 0.0
C1283 C 0.38591 0.80084 0.83833 0.0
C1284 C 0.40574 0.7918 0.83181 0.0
C1285 C 0.43659 0.80355 0.83652 0.0
C1286 C 0.37922 0.83819 0.85395 0.0
C1287 C 0.39305 0.76632 0.82135 0.0
H1288 H 0.30229 0.72053 0.86101 0.0
H1289 H 0.28027 0.76863 0.8307 0.0
H1290 H 0.37916 0.74358 0.85079 0.0
H1291 H 0.38084 0.77075 0.86316 0.0
H1292 H 0.3527 0.72943 0.86478 0.0
H1293 H 0.32045 0.79607 0.81291 0.0
H1294 H 0.33977 0.82715 0.82479 0.0
H1295 H 0.36169 0.81153 0.81654 0.0
H1296 H 0.43913 0.85559 0.85961 0.0
H1297 H 0.45037 0.79343 0.83281 0.0
H1298 H 0.36387 0.82072 0.86154 0.0
H1299 H 0.3638 0.84075 0.84658 0.0
H1300 H 0.39385 0.86118 0.85902 0.0
H1301 H 0.38225 0.74295 0.82629 0.0
H1302 H 0.41215 0.76847 0.8147 0.0
H1303 H 0.37463 0.76725 0.81525 0.0
C1304 C 0.16759 0.614 0.84305 0.0
C1305 C 0.15126 0.61986 0.85307 0.0
C1306 C 0.1681 0.58565 0.84296 0.0
C1307 C 0.15116 0.56279 0.85288 0.0
C1308 C 0.12921 0.56598 0.86093 0.0
C1309 C 0.13015 0.59504 0.86124 0.0
C1310 C 0.1908 0.58257 0.83378 0.0
C1311 C 0.10846 0.54069 0.87071 0.0
C1312 C 0.171 0.49715 0.85657 0.0
C1313 C 0.19278 0.50906 0.86706 0.0
C1314 C 0.15586 0.51346 0.85212 0.0
C1315 C 0.16412 0.54302 0.85787 0.0
C1316 C 0.18649 0.55512 0.86838 0.0
C1317 C 0.19991 0.53762 0.87301 0.0
C1318 C 0.13164 0.49896 0.84118 0.0
C1319 C 0.19711 0.58704 0.8746 0.0
H1320 H 0.18358 0.6331 0.83659 0.0
H1321 H 0.11693 0.59936 0.8688 0.0
H1322 H 0.21166 0.58619 0.83957 0.0
H1323 H 0.17961 0.55863 0.8294 0.0
H1324 H 0.19899 0.60013 0.82557 0.0
H1325 H 0.08728 0.54236 0.87326 0.0
H1326 H 0.10094 0.51693 0.86659 0.0
H1327 H 0.12177 0.54351 0.88005 0.0
H1328 H 0.16553 0.47497 0.85196 0.0
H1329 H 0.21713 0.54698 0.881 0.0
H1330 H 0.14386 0.50225 0.83149 0.0
H1331 H 0.11615 0.50939 0.84049 0.0
H1332 H 0.11674 0.47317 0.84281 0.0
H1333 H 0.20474 0.60541 0.86676 0.0
H1334 H 0.21695 0.59411 0.88168 0.0
H1335 H 0.1773 0.58661 0.88012 0.0
C1336 C 0.3502 0.56707 0.88754 0.0
C1337 C 0.33217 0.55022 0.87646 0.0
C1338 C 0.37577 0.59773 0.88616 0.0
C1339 C 0.38334 0.61203 0.8734 0.0
C1340 C 0.36676 0.59435 0.86205 0.0
C1341 C 0.34143 0.56358 0.86371 0.0
C1342 C 0.39319 0.61559 0.8985 0.0
C1343 C 0.3741 0.60872 0.84827 0.0
C1344 C 0.41368 0.69977 0.87412 0.0
C1345 C 0.44604 0.7123 0.8721 0.0
C1346 C 0.39302 0.66721 0.87406 0.0
C1347 C 0.40512 0.64657 0.87229 0.0
C1348 C 0.43778 0.65908 0.87004 0.0
C1349 C 0.45789 0.69195 0.86979 0.0
C1350 C 0.35825 0.65493 0.87612 0.0
C1351 C 0.45155 0.6378 0.8683 0.0
H1352 H 0.34354 0.55687 0.89742 0.0
H1353 H 0.32782 0.55073 0.85506 0.0
H1354 H 0.419 0.62802 0.89679 0.0
H1355 H 0.38662 0.63369 0.90086 0.0
H1356 H 0.38758 0.59986 0.90729 0.0
H1357 H 0.36266 0.59064 0.84035 0.0
H1358 H 0.36555 0.62578 0.84742 0.0
H1359 H 0.39987 0.62186 0.84648 0.0
H1360 H 0.40446 0.71556 0.87566 0.0
H1361 H 0.48295 0.70172 0.86823 0.0
H1362 H 0.35046 0.64149 0.8856 0.0
H1363 H 0.34449 0.63857 0.86794 0.0
H1364 H 0.3525 0.67416 0.87648 0.0
H1365 H 0.44868 0.62463 0.87769 0.0
H1366 H 0.47698 0.65114 0.86572 0.0
H1367 H 0.43877 0.62015 0.86038 0.0
C1368 C 0.42999 0.64166 0.99766 0.0
C1369 C 0.40775 0.63334 0.98737 0.0
C1370 C 0.45034 0.67343 0.00095 0.0
C1371 C 0.44859 0.6972 0.99363 0.0
C1372 C 0.42446 0.68868 0.98398 0.0
C1373 C 0.4043 0.65692 0.98108 0.0
C1374 C 0.47447 0.68107 0.01177 0.0
C1375 C 0.42099 0.71302 0.97599 0.0
C1376 C 0.47879 0.78247 0.99477 0.0
C1377 C 0.49715 0.79031 0.98313 0.0
C1378 C 0.46716 0.75262 0.00057 0.0
C1379 C 0.4738 0.73072 0.99435 0.0
C1380 C 0.49839 0.74152 0.98486 0.0
C1381 C 0.51006 0.77157 0.97936 0.0
C1382 C 0.44354 0.74276 0.01175 0.0
C1383 C 0.50806 0.71955 0.97871 0.0
H1384 H 0.4325 0.62353 0.00277 0.0
H1385 H 0.38662 0.65067 0.97338 0.0
H1386 H 0.4939 0.67798 0.00781 0.0
H1387 H 0.48451 0.70549 0.01556 0.0
H1388 H 0.46381 0.66443 0.02025 0.0
H1389 H 0.40082 0.7022 0.96894 0.0
H1390 H 0.41733 0.72877 0.98277 0.0
H1391 H 0.44271 0.72776 0.97014 0.0
H1392 H 0.46992 0.79752 0.99825 0.0
H1393 H 0.52574 0.77834 0.97083 0.0
H1394 H 0.44418 0.72452 0.0181 0.0
H1395 H 0.41951 0.73266 0.0075 0.0
H1396 H 0.44807 0.76327 0.01803 0.0
H1397 H 0.51053 0.70486 0.9865 0.0
H1398 H 0.53069 0.73262 0.97321 0.0
H1399 H 0.48961 0.70354 0.9716 0.0
C1400 C 0.22799 0.6908 0.94411 0.0
C1401 C 0.21282 0.67237 0.95534 0.0
C1402 C 0.25974 0.71447 0.94467 0.0
C1403 C 0.27683 0.71921 0.95665 0.0
C1404 C 0.26122 0.70177 0.9682 0.0
C1405 C 0.22928 0.67877 0.96744 0.0
C1406 C 0.27538 0.7332 0.93224 0.0
C1407 C 0.27873 0.70582 0.98111 0.0
C1408 C 0.36368 0.74682 0.95284 0.0
C1409 C 0.37759 0.77844 0.9567 0.0
C1410 C 0.33091 0.72726 0.95295 0.0
C1411 C 0.31157 0.73986 0.95672 0.0
C1412 C 0.32547 0.77184 0.96057 0.0
C1413 C 0.35842 0.7907 0.96067 0.0
C1414 C 0.31698 0.69306 0.94909 0.0
C1415 C 0.30556 0.78616 0.96442 0.0
H1416 H 0.2153 0.68611 0.93477 0.0
H1417 H 0.21775 0.66452 0.97616 0.0
H1418 H 0.28948 0.75868 0.93459 0.0
H1419 H 0.29176 0.72581 0.92819 0.0
H1420 H 0.25798 0.72975 0.92437 0.0
H1421 H 0.2626 0.69275 0.98949 0.0
H1422 H 0.29553 0.69706 0.97982 0.0
H1423 H 0.29269 0.73107 0.98385 0.0
H1424 H 0.3785 0.73722 0.94991 0.0
H1425 H 0.36917 0.81523 0.96358 0.0
H1426 H 0.3018 0.68788 0.94016 0.0
H1427 H 0.3019 0.67769 0.95728 0.0
H1428 H 0.33535 0.68676 0.94685 0.0
H1429 H 0.28974 0.78382 0.95603 0.0
H1430 H 0.32005 0.81148 0.96706 0.0
H1431 H 0.29036 0.77335 0.97305 0.0
C1432 C 0.1525 0.51988 0.9816 0.0
C1433 C 0.16131 0.53514 0.96919 0.0
C1434 C 0.16943 0.50661 0.98732 0.0
C1435 C 0.19663 0.51019 0.98074 0.0
C1436 C 0.2051 0.52512 0.96807 0.0
C1437 C 0.1869 0.53668 0.96236 0.0
C1438 C 0.15844 0.48984 0.00052 0.0
C1439 C 0.23441 0.53051 0.96074 0.0
C1440 C 0.27236 0.52382 0.99483 0.0
C1441 C 0.27565 0.50179 0.98716 0.0
C1442 C 0.24387 0.52406 0.99476 0.0
C1443 C 0.21833 0.50115 0.98715 0.0
C1444 C 0.21971 0.47497 0.98204 0.0
C1445 C 0.24885 0.47607 0.9817 0.0
C1446 C 0.24296 0.55171 0.00087 0.0
C1447 C 0.19183 0.44841 0.97509 0.0
H1448 H 0.13259 0.51858 0.98689 0.0
H1449 H 0.19397 0.54879 0.95284 0.0
H1450 H 0.16886 0.47483 0.00283 0.0
H1451 H 0.16477 0.50751 0.00858 0.0
H1452 H 0.13237 0.47489 0.00057 0.0
H1453 H 0.23887 0.54483 0.95155 0.0
H1454 H 0.25536 0.5428 0.96729 0.0
H1455 H 0.23207 0.50762 0.95782 0.0
H1456 H 0.29315 0.54357 0.99914 0.0
H1457 H 0.25134 0.45872 0.97593 0.0
H1458 H 0.22078 0.54357 0.00651 0.0
H1459 H 0.24374 0.56769 0.99284 0.0
H1460 H 0.26315 0.56535 0.0077 0.0
H1461 H 0.16944 0.44379 0.97985 0.0
H1462 H 0.19327 0.4265 0.97527 0.0
H1463 H 0.19141 0.45486 0.96451 0.0
C1464 C 0.23769 0.5421 0.48926 0.0
C1465 C 0.23344 0.56464 0.49603 0.0
C1466 C 0.2651 0.54037 0.49127 0.0
C1467 C 0.28852 0.56198 0.50008 0.0
C1468 C 0.28198 0.58152 0.50829 0.0
C1469 C 0.25436 0.58268 0.5061 0.0
C1470 C 0.27064 0.51821 0.48278 0.0
C1471 C 0.30587 0.60408 0.51815 0.0
C1472 C 0.3686 0.56759 0.5035 0.0
C1473 C 0.38568 0.58988 0.49359 0.0
C1474 C 0.33661 0.55763 0.50572 0.0
C1475 C 0.3218 0.57061 0.49791 0.0
C1476 C 0.3391 0.59306 0.48788 0.0
C1477 C 0.37062 0.60211 0.48579 0.0
C1478 C 0.31867 0.53283 0.51615 0.0
C1479 C 0.32439 0.60771 0.47931 0.0
H1480 H 0.22103 0.52781 0.4816 0.0
H1481 H 0.25003 0.59912 0.51164 0.0
H1482 H 0.2857 0.5313 0.47415 0.0
H1483 H 0.28308 0.50837 0.48854 0.0
H1484 H 0.24818 0.49851 0.47889 0.0
H1485 H 0.29505 0.6129 0.52545 0.0
H1486 H 0.31714 0.5927 0.52366 0.0
H1487 H 0.32471 0.62453 0.51268 0.0
H1488 H 0.38013 0.5578 0.50944 0.0
H1489 H 0.38357 0.61915 0.47804 0.0
H1490 H 0.30387 0.50986 0.51114 0.0
H1491 H 0.30269 0.5383 0.52193 0.0
H1492 H 0.33473 0.53021 0.52319 0.0
H1493 H 0.3056 0.58933 0.473 0.0
H1494 H 0.34181 0.62648 0.47266 0.0
H1495 H 0.31334 0.61804 0.48565 0.0
C1496 C 0.49829 0.72111 0.5156 0.0
C1497 C 0.46727 0.69595 0.51476 0.0
C1498 C 0.50387 0.75159 0.51845 0.0
C1499 C 0.47781 0.7564 0.51971 0.0
C1500 C 0.44765 0.73011 0.52221 0.0
C1501 C 0.4429 0.69984 0.51999 0.0
C1502 C 0.53697 0.77907 0.51777 0.0
C1503 C 0.41929 0.73385 0.52464 0.0
C1504 C 0.4685 0.82797 0.51421 0.0
C1505 C 0.46383 0.82617 0.50036 0.0
C1506 C 0.47685 0.80771 0.52073 0.0
C1507 C 0.47918 0.78442 0.51324 0.0
C1508 C 0.47705 0.78454 0.4991 0.0
C1509 C 0.4704 0.80605 0.49289 0.0
C1510 C 0.48149 0.81059 0.53563 0.0
C1511 C 0.47865 0.76008 0.49042 0.0
H1512 H 0.51758 0.71807 0.51215 0.0
H1513 H 0.41906 0.67994 0.51999 0.0
H1514 H 0.54309 0.78698 0.50727 0.0
H1515 H 0.53932 0.79919 0.52376 0.0
H1516 H 0.55407 0.77217 0.52142 0.0
H1517 H 0.39811 0.71119 0.52739 0.0
H1518 H 0.42425 0.75099 0.53278 0.0
H1519 H 0.41383 0.743 0.51549 0.0
H1520 H 0.46432 0.84415 0.52005 0.0
H1521 H 0.4679 0.80531 0.48214 0.0
H1522 H 0.49791 0.83557 0.53829 0.0
H1523 H 0.49101 0.79592 0.53963 0.0
H1524 H 0.45872 0.8038 0.54059 0.0
H1525 H 0.50187 0.76163 0.49148 0.0
H1526 H 0.47511 0.76293 0.47967 0.0
H1527 H 0.46023 0.73611 0.49349 0.0
C1528 C 0.33592 0.7224 0.50117 0.0
C1529 C 0.3454 0.75441 0.50235 0.0
C1530 C 0.30561 0.69918 0.50494 0.0
C1531 C 0.28461 0.70808 0.51045 0.0
C1532 C 0.29575 0.74009 0.51356 0.0
C1533 C 0.3259 0.76306 0.50923 0.0
C1534 C 0.29534 0.66525 0.50201 0.0
C1535 C 0.27502 0.75027 0.52051 0.0
C1536 C 0.20396 0.65839 0.49573 0.0
C1537 C 0.19063 0.63271 0.5045 0.0
C1538 C 0.23374 0.68434 0.49811 0.0
C1539 C 0.2502 0.68525 0.50988 0.0
C1540 C 0.23512 0.6612 0.51959 0.0
C1541 C 0.20553 0.63485 0.51671 0.0
C1542 C 0.24881 0.709 0.4873 0.0
C1543 C 0.25083 0.66185 0.53261 0.0
H1544 H 0.35118 0.71536 0.4963 0.0
H1545 H 0.33342 0.78776 0.51062 0.0
H1546 H 0.28829 0.65193 0.51148 0.0
H1547 H 0.27466 0.65491 0.49524 0.0
H1548 H 0.31433 0.66236 0.4974 0.0
H1549 H 0.28928 0.77324 0.52563 0.0
H1550 H 0.25981 0.75303 0.51308 0.0
H1551 H 0.25949 0.73238 0.52792 0.0
H1552 H 0.19218 0.65706 0.4864 0.0
H1553 H 0.19519 0.6152 0.52361 0.0
H1554 H 0.26988 0.70887 0.48331 0.0
H1555 H 0.25673 0.73278 0.49141 0.0
H1556 H 0.23251 0.70497 0.47887 0.0
H1557 H 0.26088 0.64603 0.53191 0.0
H1558 H 0.23322 0.6528 0.5408 0.0
H1559 H 0.26993 0.68588 0.53524 0.0
C1560 C 0.18979 0.64314 0.34393 0.0
C1561 C 0.19668 0.66727 0.33475 0.0
C1562 C 0.19181 0.61667 0.34038 0.0
C1563 C 0.19965 0.61351 0.32708 0.0
C1564 C 0.20214 0.63558 0.3173 0.0
C1565 C 0.20108 0.66266 0.32129 0.0
C1566 C 0.18893 0.59402 0.35129 0.0
C1567 C 0.20701 0.6311 0.30278 0.0
C1568 C 0.25427 0.58189 0.33067 0.0
C1569 C 0.23254 0.54996 0.33273 0.0
C1570 C 0.24425 0.60286 0.32681 0.0
C1571 C 0.21179 0.59151 0.32459 0.0
C1572 C 0.19083 0.55861 0.32413 0.0
C1573 C 0.2013 0.53807 0.32846 0.0
C1574 C 0.26786 0.63756 0.32701 0.0
C1575 C 0.15669 0.54525 0.32045 0.0
H1576 H 0.18543 0.64622 0.35428 0.0
H1577 H 0.20561 0.68093 0.31409 0.0
H1578 H 0.17039 0.56976 0.34873 0.0
H1579 H 0.21146 0.59402 0.35236 0.0
H1580 H 0.18294 0.60015 0.36112 0.0
H1581 H 0.21115 0.65163 0.2966 0.0
H1582 H 0.2271 0.62694 0.30147 0.0
H1583 H 0.18575 0.60984 0.29899 0.0
H1584 H 0.27872 0.59118 0.33339 0.0
H1585 H 0.18443 0.51317 0.32948 0.0
H1586 H 0.26255 0.64887 0.33543 0.0
H1587 H 0.26633 0.64868 0.31764 0.0
H1588 H 0.29242 0.64238 0.32816 0.0
H1589 H 0.14252 0.54125 0.32963 0.0
H1590 H 0.14752 0.52217 0.31537 0.0
H1591 H 0.15329 0.56149 0.31384 0.0
C1592 C 0.30452 0.50056 0.32636 0.0
C1593 C 0.3 0.49888 0.34022 0.0
C1594 C 0.33264 0.52457 0.3207 0.0
C1595 C 0.356 0.54769 0.32911 0.0
C1596 C 0.35258 0.54392 0.34316 0.0
C1597 C 0.32493 0.51921 0.34848 0.0
C1598 C 0.33603 0.52598 0.30573 0.0
C1599 C 0.37654 0.56774 0.35273 0.0
C1600 C 0.43514 0.61882 0.32751 0.0
C1601 C 0.42587 0.64142 0.32929 0.0
C1602 C 0.41253 0.58745 0.3245 0.0
C1603 C 0.38038 0.57889 0.32388 0.0
C1604 C 0.37231 0.60283 0.32293 0.0
C1605 C 0.39539 0.63402 0.32552 0.0
C1606 C 0.42241 0.56289 0.32384 0.0
C1607 C 0.33856 0.59512 0.32139 0.0
H1608 H 0.28554 0.48442 0.31991 0.0
H1609 H 0.32185 0.51737 0.35921 0.0
H1610 H 0.36042 0.54268 0.30241 0.0
H1611 H 0.32902 0.50219 0.30178 0.0
H1612 H 0.31976 0.53307 0.3013 0.0
H1613 H 0.36978 0.56141 0.36334 0.0
H1614 H 0.39981 0.56965 0.35119 0.0
H1615 H 0.37925 0.59132 0.35093 0.0
H1616 H 0.45902 0.62462 0.32988 0.0
H1617 H 0.38858 0.6519 0.32622 0.0
H1618 H 0.40598 0.54268 0.31753 0.0
H1619 H 0.42229 0.55392 0.33401 0.0
H1620 H 0.44667 0.57311 0.3198 0.0
H1621 H 0.32767 0.57955 0.31265 0.0
H1622 H 0.33655 0.61657 0.32006 0.0
H1623 H 0.32487 0.58235 0.33037 0.0
C1624 C 0.33943 0.77634 0.3343 0.0
C1625 C 0.31501 0.74524 0.33256 0.0
C1626 C 0.37087 0.78432 0.33199 0.0
C1627 C 0.37755 0.76044 0.32815 0.0
C1628 C 0.35255 0.73055 0.32429 0.0
C1629 C 0.32153 0.7235 0.32647 0.0
C1630 C 0.39684 0.817 0.33549 0.0
C1631 C 0.35814 0.70417 0.32004 0.0
C1632 C 0.45747 0.76541 0.32673 0.0
C1633 C 0.45897 0.7551 0.33962 0.0
C1634 C 0.43219 0.76977 0.32298 0.0
C1635 C 0.40775 0.76279 0.33226 0.0
C1636 C 0.41024 0.75404 0.34548 0.0
C1637 C 0.43603 0.75086 0.34901 0.0
C1638 C 0.43103 0.78067 0.30903 0.0
C1639 C 0.38473 0.74608 0.35577 0.0
H1640 H 0.33446 0.79354 0.33876 0.0
H1641 H 0.30247 0.70001 0.3246 0.0
H1642 H 0.4035 0.81752 0.3461 0.0
H1643 H 0.4181 0.82402 0.3293 0.0
H1644 H 0.38901 0.83455 0.33417 0.0
H1645 H 0.33801 0.68608 0.31415 0.0
H1646 H 0.37988 0.71297 0.31401 0.0
H1647 H 0.36081 0.69257 0.32906 0.0
H1648 H 0.47547 0.76922 0.31949 0.0
H1649 H 0.43736 0.74354 0.35908 0.0
H1650 H 0.42587 0.80028 0.30936 0.0
H1651 H 0.41176 0.76121 0.30332 0.0
H1652 H 0.45349 0.78865 0.30357 0.0
H1653 H 0.38101 0.7664 0.35726 0.0
H1654 H 0.39048 0.7397 0.36559 0.0
H1655 H 0.36215 0.72594 0.35225 0.0
C1656 C 0.21054 0.22874 0.2739 0.0
C1657 C 0.18188 0.22854 0.2733 0.0
C1658 C 0.22406 0.22462 0.26227 0.0
C1659 C 0.20816 0.21976 0.24995 0.0
C1660 C 0.18127 0.2233 0.24915 0.0
C1661 C 0.1686 0.2279 0.26085 0.0
C1662 C 0.2535 0.22226 0.26339 0.0
C1663 C 0.1636 0.21842 0.23621 0.0
C1664 C 0.23315 0.20463 0.21621 0.0
C1665 C 0.2158 0.17164 0.2158 0.0
C1666 C 0.23307 0.221 0.22772 0.0
C1667 C 0.21458 0.20383 0.23882 0.0
C1668 C 0.19853 0.1705 0.23868 0.0
C1669 C 0.19973 0.15489 0.22725 0.0
C1670 C 0.25138 0.25652 0.22769 0.0
C1671 C 0.17821 0.15114 0.25025 0.0
H1672 H 0.22122 0.22979 0.28349 0.0
H1673 H 0.14681 0.2285 0.26033 0.0
H1674 H 0.24694 0.19709 0.26382 0.0
H1675 H 0.26893 0.23293 0.25457 0.0
H1676 H 0.26698 0.23401 0.27257 0.0
H1677 H 0.14577 0.22603 0.23692 0.0
H1678 H 0.18007 0.23157 0.22797 0.0
H1679 H 0.15132 0.19304 0.23354 0.0
H1680 H 0.24594 0.21768 0.20743 0.0
H1681 H 0.18671 0.12937 0.22709 0.0
H1682 H 0.26139 0.2659 0.23768 0.0
H1683 H 0.23541 0.2656 0.22502 0.0
H1684 H 0.27081 0.26573 0.22026 0.0
H1685 H 0.19201 0.15801 0.25964 0.0
H1686 H 0.16836 0.12545 0.24873 0.0
H1687 H 0.15831 0.15561 0.25159 0.0
C1688 C 0.8231 0.02813 0.23104 0.0
C1689 C 0.81203 0.03905 0.22067 0.0
C1690 C 0.80664 0.0175 0.24299 0.0
C1691 C 0.77847 0.0185 0.24485 0.0
C1692 C 0.76693 0.02947 0.23441 0.0
C1693 C 0.7838 0.03941 0.22231 0.0
C1694 C 0.81982 0.00537 0.25364 0.0
C1695 C 0.73767 0.03196 0.23609 0.0
C1696 C 0.74188 0.96107 0.27192 0.0
C1697 C 0.7599 0.98021 0.28249 0.0
C1698 C 0.74229 0.97428 0.25949 0.0
C1699 C 0.76174 0.00716 0.25776 0.0
C1700 C 0.77437 0.02674 0.26912 0.0
C1701 C 0.77368 0.0129 0.28147 0.0
C1702 C 0.72721 0.95257 0.24778 0.0
C1703 C 0.79357 0.06204 0.26777 0.0
H1704 H 0.84482 0.02773 0.22984 0.0
H1705 H 0.77545 0.04832 0.21434 0.0
H1706 H 0.82631 0.02064 0.2626 0.0
H1707 H 0.80192 0.98115 0.25666 0.0
H1708 H 0.84113 0.00483 0.25025 0.0
H1709 H 0.72676 0.03138 0.22631 0.0
H1710 H 0.71993 0.01289 0.2425 0.0
H1711 H 0.74422 0.05475 0.24097 0.0
H1712 H 0.73091 0.93568 0.27285 0.0
H1713 H 0.78738 0.02766 0.28974 0.0
H1714 H 0.74493 0.94809 0.24289 0.0
H1715 H 0.71875 0.96328 0.24028 0.0
H1716 H 0.70714 0.92958 0.251 0.0
H1717 H 0.81809 0.06886 0.26497 0.0
H1718 H 0.79436 0.07388 0.27733 0.0
H1719 H 0.78382 0.07054 0.25985 0.0
C1720 C 0.04972 0.80642 0.26736 0.0
C1721 C 0.03234 0.80091 0.27911 0.0
C1722 C 0.03463 0.7934 0.25526 0.0
C1723 C 0.00139 0.77491 0.25501 0.0
C1724 C 0.98449 0.76498 0.26719 0.0
C1725 C 0.00026 0.77833 0.27922 0.0
C1726 C 0.05379 0.80383 0.24258 0.0
C1727 C 0.9492 0.74407 0.26735 0.0
C1728 C 0.96771 0.80503 0.22894 0.0
C1729 C 0.96073 0.7837 0.21846 0.0
C1730 C 0.9799 0.80158 0.24097 0.0
C1731 C 0.9849 0.77573 0.24273 0.0
C1732 C 0.97683 0.75329 0.23239 0.0
C1733 C 0.9649 0.75763 0.22027 0.0
C1734 C 0.98841 0.82643 0.25161 0.0
C1735 C 0.98052 0.72472 0.23413 0.0
H1736 H 0.07476 0.82336 0.26739 0.0
H1737 H 0.98686 0.7737 0.28837 0.0
H1738 H 0.04486 0.78443 0.23519 0.0
H1739 H 0.05193 0.82356 0.2381 0.0
H1740 H 0.07907 0.81216 0.24452 0.0
H1741 H 0.94086 0.73197 0.27711 0.0
H1742 H 0.93799 0.75862 0.26564 0.0
H1743 H 0.94135 0.72617 0.25931 0.0
H1744 H 0.96422 0.82504 0.22771 0.0
H1745 H 0.95893 0.74075 0.21225 0.0
H1746 H 0.01402 0.83821 0.25374 0.0
H1747 H 0.97567 0.81536 0.26099 0.0
H1748 H 0.98257 0.84478 0.24867 0.0
H1749 H 0.00355 0.73115 0.23872 0.0
H1750 H 0.97835 0.71256 0.22451 0.0
H1751 H 0.9619 0.70789 0.24098 0.0
C1752 C 0.89728 0.86951 0.7306 0.0
C1753 C 0.88024 0.85094 0.7197 0.0
C1754 C 0.88195 0.87362 0.74151 0.0
C1755 C 0.84867 0.85889 0.74152 0.0
C1756 C 0.83116 0.83917 0.73079 0.0
C1757 C 0.84718 0.8354 0.71997 0.0
C1758 C 0.90154 0.89461 0.75285 0.0
C1759 C 0.79567 0.82307 0.73049 0.0
C1760 C 0.82101 0.86286 0.77609 0.0
C1761 C 0.82337 0.89256 0.77559 0.0
C1762 C 0.82596 0.84959 0.76459 0.0
C1763 C 0.83306 0.8664 0.75241 0.0
C1764 C 0.83146 0.89438 0.75157 0.0
C1765 C 0.82681 0.90725 0.76322 0.0
C1766 C 0.82708 0.81948 0.76584 0.0
C1767 C 0.83821 0.91265 0.7387 0.0
H1768 H 0.92279 0.88127 0.73058 0.0
H1769 H 0.83381 0.82091 0.71159 0.0
H1770 H 0.89846 0.91552 0.75348 0.0
H1771 H 0.8936 0.88184 0.76248 0.0
H1772 H 0.92704 0.90292 0.75161 0.0
H1773 H 0.78543 0.80474 0.7226 0.0
H1774 H 0.78555 0.81202 0.74026 0.0
H1775 H 0.78839 0.8408 0.72853 0.0
H1776 H 0.81812 0.85128 0.78563 0.0
H1777 H 0.82798 0.92993 0.76277 0.0
H1778 H 0.85201 0.82526 0.76647 0.0
H1779 H 0.81648 0.80423 0.75698 0.0
H1780 H 0.81464 0.80606 0.77494 0.0
H1781 H 0.86391 0.92499 0.73669 0.0
H1782 H 0.83061 0.93053 0.73914 0.0
H1783 H 0.82621 0.89661 0.73019 0.0
C1784 C 0.16124 0.9725 0.78037 0.0
C1785 C 0.14406 0.98595 0.78552 0.0
C1786 C 0.17258 0.97881 0.7672 0.0
C1787 C 0.16669 -0.00083 0.75923 0.0
C1788 C 0.15266 0.01559 0.765 0.0
C1789 C 0.14123 0.00851 0.77806 0.0
C1790 C 0.18796 0.96132 0.76152 0.0
C1791 C 0.14667 0.03819 0.75699 0.0
C1792 C 0.19173 0.02866 0.72415 0.0
C1793 C 0.16288 0.01075 0.71759 0.0
C1794 C 0.19492 0.02296 0.73764 0.0
C1795 C 0.16871 -0.00127 0.74447 0.0
C1796 C 0.14109 0.97806 0.7373 0.0
C1797 C 0.13839 0.9846 0.72395 0.0
C1798 C 0.22499 0.04504 0.74485 0.0
C1799 C 0.11289 0.95128 0.74408 0.0
H1800 H 0.16354 0.95511 0.7862 0.0
H1801 H 0.1284 0.01928 0.78217 0.0
H1802 H 0.16984 0.93964 0.75647 0.0
H1803 H 0.20618 0.97575 0.75402 0.0
H1804 H 0.1989 0.9542 0.76949 0.0
H1805 H 0.1395 0.05202 0.76341 0.0
H1806 H 0.16803 0.05481 0.75132 0.0
H1807 H 0.12756 0.02478 0.74967 0.0
H1808 H 0.21073 0.04886 0.71915 0.0
H1809 H 0.11627 0.97051 0.71874 0.0
H1810 H 0.23031 0.03259 0.75278 0.0
H1811 H 0.22237 0.06399 0.74966 0.0
H1812 H 0.24524 0.05623 0.73785 0.0
H1813 H 0.12026 0.93792 0.75065 0.0
H1814 H 0.09544 0.93473 0.73677 0.0
H1815 H 0.1011 0.96093 0.7504 0.0
C1816 C 0.95419 0.12762 0.7193 0.0
C1817 C 0.93161 0.09547 0.72016 0.0
C1818 C 0.97353 0.14361 0.73022 0.0
C1819 C 0.97005 0.12701 0.74223 0.0
C1820 C 0.94523 0.09552 0.74355 0.0
C1821 C 0.92632 0.08012 0.7325 0.0
C1822 C -0.00062 0.17737 0.72851 0.0
C1823 C 0.94039 0.07713 0.75628 0.0
C1824 C 0.04045 0.14046 0.76251 0.0
C1825 C 0.0368 0.15424 0.77412 0.0
C1826 C 0.02001 0.13342 0.75169 0.0
C1827 C 0.99516 0.14019 0.75252 0.0
C1828 C 0.99266 0.15614 0.76381 0.0
C1829 C 0.01363 0.16306 0.77451 0.0
C1830 C 0.02383 0.11686 0.73973 0.0
C1831 C 0.96669 0.16404 0.76498 0.0
H1832 H 0.95824 0.13983 0.70985 0.0
H1833 H 0.9085 0.05547 0.73335 0.0
H1834 H 0.00194 0.19135 0.7376 0.0
H1835 H 0.02209 0.17804 0.72685 0.0
H1836 H 0.99492 0.18872 0.71983 0.0
H1837 H 0.91774 0.05446 0.75628 0.0
H1838 H 0.95986 0.07194 0.75749 0.0
H1839 H 0.94085 0.09113 0.76506 0.0
H1840 H 0.05867 0.13409 0.76206 0.0
H1841 H 0.01074 0.17382 0.78345 0.0
H1842 H 0.02387 0.12903 0.73039 0.0
H1843 H 0.00365 0.09242 0.7392 0.0
H1844 H 0.04593 0.1158 0.74016 0.0
H1845 H 0.96322 0.17325 0.7554 0.0
H1846 H 0.97163 0.18166 0.77295 0.0
H1847 H 0.94426 0.14234 0.76742 0.0
C1848 C 0.89926 0.54177 0.56014 0.0
C1849 C 0.87444 0.51044 0.56023 0.0
C1850 C 0.90524 0.56126 0.57141 0.0
C1851 C 0.88564 0.54904 0.5828 0.0
C1852 C 0.86108 0.51723 0.58288 0.0
C1853 C 0.85614 0.49841 0.57174 0.0
C1854 C 0.93246 0.59461 0.57113 0.0
C1855 C 0.83888 0.50314 0.59454 0.0
C1856 C 0.8894 0.57026 0.61868 0.0
C1857 C 0.86497 0.57724 0.61881 0.0
C1858 C 0.90127 0.56638 0.60647 0.0
C1859 C 0.88788 0.56912 0.59436 0.0
C1860 C 0.86737 0.58161 0.59459 0.0
C1861 C 0.85601 0.58537 0.60686 0.0
C1862 C 0.92431 0.55451 0.60662 0.0
C1863 C 0.85312 0.58582 0.58196 0.0
H1864 H 0.91385 0.55101 0.55132 0.0
H1865 H 0.83716 0.47417 0.572 0.0
H1866 H 0.92546 0.61129 0.57518 0.0
H1867 H 0.95161 0.59622 0.57758 0.0
H1868 H 0.94195 0.60215 0.5609 0.0
H1869 H 0.82203 0.47757 0.59327 0.0
H1870 H 0.85247 0.50642 0.6038 0.0
H1871 H 0.82514 0.51536 0.5958 0.0
H1872 H 0.89677 0.56444 0.62793 0.0
H1873 H 0.83767 0.59162 0.607 0.0
H1874 H 0.94023 0.56339 0.59785 0.0
H1875 H 0.91116 0.52839 0.60617 0.0
H1876 H 0.93864 0.56171 0.61589 0.0
H1877 H 0.87069 0.59525 0.57378 0.0
H1878 H 0.84355 0.6019 0.58351 0.0
H1879 H 0.83348 0.56258 0.57873 0.0
C1880 C 0.44059 0.34432 0.54764 0.0
C1881 C 0.46273 0.37648 0.54689 0.0
C1882 C 0.43043 0.32955 0.56012 0.0
C1883 C 0.44302 0.34751 0.57192 0.0
C1884 C 0.46127 0.38072 0.57104 0.0
C1885 C 0.47107 0.3948 0.55849 0.0
C1886 C 0.4099 0.29422 0.56064 0.0
C1887 C 0.47496 0.40095 0.58329 0.0
C1888 C 0.43101 0.31158 0.60675 0.0
C1889 C 0.45652 0.30618 0.60739 0.0
C1890 C 0.42545 0.3243 0.59512 0.0
C1891 C 0.44615 0.33199 0.5841 0.0
C1892 C 0.47188 0.32652 0.58486 0.0
C1893 C 0.47648 0.31349 0.59638 0.0
C1894 C 0.3972 0.32878 0.59453 0.0
C1895 C 0.49464 0.33407 0.57344 0.0
H1896 H 0.43404 0.33013 0.53865 0.0
H1897 H 0.48796 0.41981 0.55785 0.0
H1898 H 0.42499 0.28335 0.56151 0.0
H1899 H 0.39403 0.28685 0.56944 0.0
H1900 H 0.3955 0.28499 0.55144 0.0
H1901 H 0.48263 0.42604 0.58121 0.0
H1902 H 0.45769 0.3926 0.59159 0.0
H1903 H 0.4958 0.39954 0.58666 0.0
H1904 H 0.41521 0.30544 0.6152 0.0
H1905 H 0.49607 0.30914 0.59673 0.0
H1906 H 0.37935 0.31086 0.58775 0.0
H1907 H 0.40366 0.35226 0.59041 0.0
H1908 H 0.38626 0.3262 0.6045 0.0
H1909 H 0.48198 0.31821 0.56499 0.0
H1910 H 0.51486 0.33084 0.57609 0.0
H1911 H 0.50407 0.35872 0.57006 0.0
C1912 C 0.59739 0.09293 0.57131 0.0
C1913 C 0.60113 0.08584 0.55815 0.0
C1914 C 0.619 0.09643 0.58119 0.0
C1915 C 0.64437 0.09159 0.57789 0.0
C1916 C 0.64529 0.07952 0.56517 0.0
C1917 C 0.62391 0.07734 0.55528 0.0
C1918 C 0.61675 0.10912 0.59463 0.0
C1919 C 0.67036 0.07153 0.5616 0.0
C1920 C 0.71621 0.15673 0.59398 0.0
C1921 C 0.7143 0.14414 0.60671 0.0
C1922 C 0.69546 0.13861 0.58388 0.0
C1923 C 0.6729 0.10671 0.58645 0.0
C1924 C 0.67417 0.09263 0.59861 0.0
C1925 C 0.69458 0.11173 0.60877 0.0
C1926 C 0.69528 0.15484 0.57109 0.0
C1927 C 0.65233 0.05813 0.60135 0.0
H1928 H 0.57912 0.09846 0.57368 0.0
H1929 H 0.62636 0.07092 0.54519 0.0
H1930 H 0.61779 0.09436 0.60276 0.0
H1931 H 0.63697 0.13333 0.59592 0.0
H1932 H 0.59464 0.10999 0.59577 0.0
H1933 H 0.66133 0.05213 0.55417 0.0
H1934 H 0.69073 0.09235 0.55704 0.0
H1935 H 0.67876 0.06448 0.57053 0.0
H1936 H 0.73219 0.1816 0.59222 0.0
H1937 H 0.69361 0.10163 0.6185 0.0
H1938 H 0.6731 0.15567 0.57044 0.0
H1939 H 0.69624 0.14161 0.56232 0.0
H1940 H 0.71543 0.17932 0.57046 0.0
H1941 H 0.6314 0.05506 0.6069 0.0
H1942 H 0.66418 0.04855 0.60769 0.0
H1943 H 0.64425 0.0442 0.592 0.0
C1944 C 0.5762 0.16022 0.06548 0.0
C1945 C 0.56033 0.15173 0.05322 0.0
C1946 C 0.56146 0.16268 0.07699 0.0
C1947 C 0.53001 0.15642 0.07623 0.0
C1948 C 0.51277 0.14451 0.06426 0.0
C1949 C 0.52818 0.14232 0.05284 0.0
C1950 C 0.58063 0.17507 0.08961 0.0
C1951 C 0.47897 0.13683 0.06316 0.0
C1952 C 0.49934 0.16377 0.10995 0.0
C1953 C 0.50932 0.19606 0.11004 0.0
C1954 C 0.50349 0.14953 0.09855 0.0
C1955 C 0.51792 0.1681 0.08709 0.0
C1956 C 0.52538 0.19998 0.0868 0.0
C1957 C 0.521 0.21353 0.09827 0.0
C1958 C 0.49457 0.1153 0.09914 0.0
C1959 C 0.54038 0.22058 0.07471 0.0
H1960 H 0.60086 0.16686 0.06591 0.0
H1961 H 0.51562 0.13542 0.04343 0.0
H1962 H 0.58593 0.19959 0.09139 0.0
H1963 H 0.56719 0.16074 0.09833 0.0
H1964 H 0.60328 0.17509 0.08903 0.0
H1965 H 0.46688 0.121 0.05458 0.0
H1966 H 0.4657 0.12556 0.07243 0.0
H1967 H 0.47831 0.15893 0.06166 0.0
H1968 H 0.48999 0.15003 0.11899 0.0
H1969 H 0.52807 0.23833 0.09818 0.0
H1970 H 0.51594 0.11361 0.10112 0.0
H1971 H 0.48451 0.10334 0.08951 0.0
H1972 H 0.47728 0.10259 0.10722 0.0
H1973 H 0.56458 0.22455 0.07338 0.0
H1974 H 0.54185 0.24387 0.07564 0.0
H1975 H 0.52685 0.20884 0.06557 0.0
C1976 C 0.80654 0.33141 0.06118 0.0
C1977 C 0.8312 0.3576 0.05492 0.0
C1978 C 0.80983 0.3235 0.07424 0.0
C1979 C 0.83813 0.34297 0.08126 0.0
C1980 C 0.86433 0.36719 0.07443 0.0
C1981 C 0.8606 0.37411 0.0612 0.0
C1982 C 0.78168 0.29661 0.08099 0.0
C1983 C 0.89502 0.38816 0.08148 0.0
C1984 C 0.81291 0.35022 0.11569 0.0
C1985 C 0.81612 0.32705 0.12243 0.0
C1986 C 0.82376 0.35848 0.1026 0.0
C1987 C 0.83713 0.3423 0.09604 0.0
C1988 C 0.84331 0.3212 0.10328 0.0
C1989 C 0.83289 0.31397 0.11653 0.0
C1990 C 0.81775 0.38203 0.09538 0.0
C1991 C 0.85771 0.30367 0.09671 0.0
H1992 H 0.78396 0.31847 0.05618 0.0
H1993 H 0.87971 0.3944 0.05629 0.0
H1994 H 0.78897 0.28251 0.08713 0.0
H1995 H 0.77054 0.3062 0.08774 0.0
H1996 H 0.76373 0.28077 0.07366 0.0
H1997 H 0.91491 0.39932 0.0743 0.0
H1998 H 0.89331 0.40717 0.08674 0.0
H1999 H 0.90029 0.37488 0.08902 0.0
H2000 H 0.80015 0.36045 0.12038 0.0
H2001 H 0.83526 0.29593 0.12181 0.0
H2002 H 0.7978 0.36942 0.08835 0.0
H2003 H 0.83869 0.39862 0.08949 0.0
H2004 H 0.81176 0.39583 0.10238 0.0
H2005 H 0.83889 0.28244 0.09166 0.0
H2006 H 0.8691 0.29581 0.10417 0.0
H2007 H 0.87534 0.31835 0.08907 0.0
C2008 C 0.68312 0.50909 0.12246 0.0
C2009 C 0.70843 0.50331 0.12223 0.0
C2010 C 0.6649 0.50455 0.11098 0.0
C2011 C 0.67227 0.49401 0.0991 0.0
C2012 C 0.69975 0.49143 0.09849 0.0
C2013 C 0.71748 0.49612 0.11007 0.0
C2014 C 0.63625 0.50834 0.11192 0.0
C2015 C 0.70879 0.48074 0.08595 0.0
C2016 C 0.61052 0.43215 0.07694 0.0
C2017 C 0.61473 0.44906 0.06512 0.0
C2018 C 0.62724 0.4472 0.08849 0.0
C2019 C 0.64881 0.48 0.08819 0.0
C2020 C 0.65099 0.4977 0.07668 0.0
C2021 C 0.63381 0.48197 0.06522 0.0
C2022 C 0.62378 0.42744 0.10064 0.0
C2023 C 0.67327 0.53278 0.07606 0.0
H2024 H 0.67617 0.51504 0.13179 0.0
H2025 H 0.73747 0.49235 0.10973 0.0
H2026 H 0.63296 0.51863 0.10262 0.0
H2027 H 0.61499 0.48486 0.11333 0.0
H2028 H 0.63792 0.52348 0.12049 0.0
H2029 H 0.73272 0.48365 0.08664 0.0
H2030 H 0.69166 0.45547 0.08416 0.0
H2031 H 0.70804 0.49415 0.07718 0.0
H2032 H 0.59528 0.40678 0.07698 0.0
H2033 H 0.637 0.49519 0.05612 0.0
H2034 H 0.62033 0.43825 0.10973 0.0
H2035 H 0.64563 0.42626 0.10204 0.0
H2036 H 0.60366 0.40301 0.09972 0.0
H2037 H 0.67382 0.5442 0.08569 0.0
H2038 H 0.66669 0.54394 0.06799 0.0
H2039 H 0.69745 0.53735 0.07403 0.0
C2040 C 0.54406 0.86741 0.93865 0.0
C2041 C 0.54009 0.88972 0.9457 0.0
C2042 C 0.55885 0.87465 0.92621 0.0
C2043 C 0.56976 0.9051 0.92076 0.0
C2044 C 0.57109 0.92922 0.92899 0.0
C2045 C 0.55575 0.92114 0.94144 0.0
C2046 C 0.558 0.84815 0.91816 0.0
C2047 C 0.58529 0.96268 0.92413 0.0
C2048 C 0.58562 0.89244 0.88574 0.0
C2049 C 0.55454 0.87788 0.88107 0.0
C2050 C 0.59332 0.90781 0.89817 0.0
C2051 C 0.56909 0.90746 0.90599 0.0
C2052 C 0.53946 0.89814 0.90003 0.0
C2053 C 0.53254 0.88322 0.88762 0.0
C2054 C 0.62614 0.92051 0.90357 0.0
C2055 C 0.51318 0.89887 0.90762 0.0
H2056 H 0.53254 0.84329 0.94215 0.0
H2057 H 0.55315 0.93863 0.94705 0.0
H2058 H 0.54077 0.84159 0.90989 0.0
H2059 H 0.58139 0.85564 0.91373 0.0
H2060 H 0.5511 0.82679 0.9243 0.0
H2061 H 0.59881 0.97928 0.9323 0.0
H2062 H 0.60111 0.96743 0.91545 0.0
H2063 H 0.56624 0.96748 0.92124 0.0
H2064 H 0.60288 0.88875 0.88051 0.0
H2065 H 0.50875 0.87261 0.88379 0.0
H2066 H 0.62903 0.90079 0.90729 0.0
H2067 H 0.63115 0.9374 0.91186 0.0
H2068 H 0.64375 0.93243 0.89552 0.0
H2069 H 0.50476 0.88109 0.91574 0.0
H2070 H 0.49283 0.89365 0.90109 0.0
H2071 H 0.52172 0.9223 0.91221 0.0
C2072 C 0.0955 0.61037 0.92866 0.0
C2073 C 0.09556 0.6239 0.94098 0.0
C2074 C 0.09939 0.62678 0.91676 0.0
C2075 C 0.10276 0.65718 0.91721 0.0
C2076 C 0.09856 0.66907 0.92944 0.0
C2077 C 0.09536 0.65239 0.94128 0.0
C2078 C 0.10361 0.61308 0.90393 0.0
C2079 C 0.10042 0.70069 0.93018 0.0
C2080 C 0.16628 0.71041 0.89337 0.0
C2081 C 0.1489 0.70776 0.88188 0.0
C2082 C 0.1513 0.6958 0.90526 0.0
C2083 C 0.11799 0.67864 0.90576 0.0
C2084 C 0.10026 0.67848 0.89458 0.0
C2085 C 0.11598 0.69284 0.88264 0.0
C2086 C 0.17128 0.69652 0.91691 0.0
C2087 C 0.06476 0.6615 0.89488 0.0
H2088 H 0.09478 0.58791 0.92835 0.0
H2089 H 0.09467 0.66261 0.95077 0.0
H2090 H 0.08935 0.61509 0.89582 0.0
H2091 H 0.12868 0.6265 0.90081 0.0
H2092 H 0.09682 0.58791 0.90502 0.0
H2093 H 0.08878 0.70277 0.93933 0.0
H2094 H 0.12548 0.71959 0.93041 0.0
H2095 H 0.08932 0.70467 0.92131 0.0
H2096 H 0.19178 0.7225 0.89291 0.0
H2097 H 0.10246 0.69111 0.8738 0.0
H2098 H 0.16708 0.67242 0.91884 0.0
H2099 H 0.16476 0.70457 0.92608 0.0
H2100 H 0.19686 0.71229 0.91508 0.0
H2101 H 0.0554 0.63639 0.89227 0.0
H2102 H 0.05538 0.67168 0.88752 0.0
H2103 H 0.05584 0.66246 0.90495 0.0
C2104 C 0.30392 0.43782 0.89251 0.0
C2105 C 0.27306 0.43246 0.89244 0.0
C2106 C 0.31969 0.44138 0.90464 0.0
C2107 C 0.30412 0.43979 0.91677 0.0
C2108 C 0.27164 0.43 0.91667 0.0
C2109 C 0.25649 0.4264 0.90446 0.0
C2110 C 0.35405 0.45078 0.90437 0.0
C2111 C 0.25399 0.42786 0.92934 0.0
C2112 C 0.34066 0.45649 0.95137 0.0
C2113 C 0.35036 0.48856 0.95262 0.0
C2114 C 0.32715 0.44031 0.93941 0.0
C2115 C 0.3228 0.4566 0.9287 0.0
C2116 C 0.33357 0.48922 0.92984 0.0
C2117 C 0.34744 0.50477 0.94171 0.0
C2118 C 0.31681 0.40577 0.93836 0.0
C2119 C 0.32916 0.5076 0.91873 0.0
H2120 H 0.31665 0.44206 0.88319 0.0
H2121 H 0.23232 0.42151 0.90438 0.0
H2122 H 0.36862 0.47684 0.90474 0.0
H2123 H 0.36033 0.44113 0.9131 0.0
H2124 H 0.3601 0.44259 0.89508 0.0
H2125 H 0.22807 0.41437 0.92783 0.0
H2126 H 0.26019 0.41657 0.93745 0.0
H2127 H 0.26057 0.45198 0.93268 0.0
H2128 H 0.34329 0.444 0.95975 0.0
H2129 H 0.35524 0.52965 0.94253 0.0
H2130 H 0.32457 0.40075 0.92873 0.0
H2131 H 0.29073 0.39162 0.93863 0.0
H2132 H 0.32626 0.39787 0.94665 0.0
H2133 H 0.34005 0.50549 0.90939 0.0
H2134 H 0.33969 0.53302 0.92115 0.0
H2135 H 0.30367 0.49788 0.91679 0.0
C2136 C 0.13545 0.50498 0.44737 0.0
C2137 C 0.14011 0.53563 0.44712 0.0
C2138 C 0.13966 0.49147 0.43577 0.0
C2139 C 0.14844 0.50906 0.42377 0.0
C2140 C 0.14839 0.53788 0.42311 0.0
C2141 C 0.14439 0.55094 0.43485 0.0
C2142 C 0.13865 0.46027 0.43678 0.0
C2143 C 0.15667 0.55694 0.41041 0.0
C2144 C 0.21495 0.5128 0.40341 0.0
C2145 C 0.19943 0.49635 0.39184 0.0
C2146 C 0.19825 0.51571 0.41409 0.0
C2147 C 0.1651 0.50185 0.4132 0.0
C2148 C 0.14901 0.48381 0.40186 0.0
C2149 C 0.16642 0.48127 0.39127 0.0
C2150 C 0.21639 0.53487 0.4261 0.0
C2151 C 0.11371 0.46851 0.40057 0.0
H2152 H 0.1318 0.49287 0.45682 0.0
H2153 H 0.14728 0.57437 0.43459 0.0
H2154 H 0.12851 0.44604 0.42762 0.0
H2155 H 0.163 0.46452 0.4379 0.0
H2156 H 0.12467 0.44648 0.44554 0.0
H2157 H 0.14998 0.57549 0.41089 0.0
H2158 H 0.18247 0.56854 0.40873 0.0
H2159 H 0.14484 0.54156 0.40171 0.0
H2160 H 0.24038 0.5241 0.40404 0.0
H2161 H 0.15421 0.46842 0.38237 0.0
H2162 H 0.20669 0.52095 0.43537 0.0
H2163 H 0.214 0.55616 0.42692 0.0
H2164 H 0.24186 0.54254 0.42551 0.0
H2165 H 0.10184 0.45872 0.41025 0.0
H2166 H 0.10429 0.44935 0.39302 0.0
H2167 H 0.10757 0.48645 0.39738 0.0
C2168 C 0.48248 0.65867 0.39682 0.0
C2169 C 0.50369 0.67803 0.38705 0.0
C2170 C 0.49282 0.65772 0.4097 0.0
C2171 C 0.52521 0.67687 0.41286 0.0
C2172 C 0.54722 0.69299 0.40256 0.0
C2173 C 0.53614 0.69343 0.38969 0.0
C2174 C 0.46846 0.63914 0.42025 0.0
C2175 C 0.58205 0.71236 0.4053 0.0
C2176 C 0.52126 0.70756 0.44609 0.0
C2177 C 0.51876 0.68302 0.45408 0.0
C2178 C 0.52897 0.70911 0.43258 0.0
C2179 C 0.53378 0.68523 0.42706 0.0
C2180 C 0.53709 0.66413 0.43561 0.0
C2181 C 0.52948 0.66323 0.44916 0.0
C2182 C 0.52681 0.73316 0.42391 0.0
C2183 C 0.54415 0.6396 0.43023 0.0
H2184 H 0.45745 0.64607 0.39466 0.0
H2185 H 0.55273 0.7081 0.38207 0.0
H2186 H 0.47575 0.62481 0.42621 0.0
H2187 H 0.46614 0.65557 0.42716 0.0
H2188 H 0.44494 0.62313 0.41587 0.0
H2189 H 0.59581 0.71202 0.39655 0.0
H2190 H 0.58844 0.7372 0.40705 0.0
H2191 H 0.58901 0.7038 0.4142 0.0
H2192 H 0.51377 0.72339 0.45003 0.0
H2193 H 0.52814 0.64451 0.45541 0.0
H2194 H 0.50422 0.72159 0.41834 0.0
H2195 H 0.54623 0.74324 0.41652 0.0
H2196 H 0.52775 0.75269 0.42989 0.0
H2197 H 0.52177 0.61821 0.42745 0.0
H2198 H 0.55596 0.63269 0.43788 0.0
H2199 H 0.55925 0.6482 0.4212 0.0
C2200 C 0.37183 0.80233 0.43332 0.0
C2201 C 0.36908 0.81712 0.44481 0.0
C2202 C 0.3529 0.79767 0.42215 0.0
C2203 C 0.33063 0.80804 0.42244 0.0
C2204 C 0.32906 0.82474 0.43364 0.0
C2205 C 0.34832 0.82906 0.44472 0.0
C2206 C 0.35552 0.77997 0.41033 0.0
C2207 C 0.30587 0.83645 0.43423 0.0
C2208 C 0.29469 0.80051 0.38834 0.0
C2209 C 0.26994 0.76926 0.38892 0.0
C2210 C 0.31331 0.81494 0.39965 0.0
C2211 C 0.30669 0.79763 0.41169 0.0
C2212 C 0.27958 0.76741 0.41263 0.0
C2213 C 0.26161 0.75353 0.4012 0.0
C2214 C 0.34172 0.84743 0.39834 0.0
C2215 C 0.27132 0.74835 0.42535 0.0
H2216 H 0.38812 0.79346 0.43319 0.0
H2217 H 0.34621 0.8408 0.4535 0.0
H2218 H 0.33363 0.7568 0.40943 0.0
H2219 H 0.35823 0.79317 0.40097 0.0
H2220 H 0.37577 0.77584 0.41124 0.0
H2221 H 0.31181 0.85413 0.44228 0.0
H2222 H 0.305 0.84709 0.42459 0.0
H2223 H 0.28195 0.81632 0.4362 0.0
H2224 H 0.3011 0.81276 0.37885 0.0
H2225 H 0.24209 0.72954 0.4017 0.0
H2226 H 0.36312 0.84536 0.39711 0.0
H2227 H 0.34496 0.86164 0.40743 0.0
H2228 H 0.33979 0.86016 0.38954 0.0
H2229 H 0.28849 0.7402 0.42701 0.0
H2230 H 0.24732 0.72736 0.42497 0.0
H2231 H 0.27269 0.76295 0.43405 0.0
C2232 C 0.25003 0.09646 0.15827 0.0
C2233 C 0.2502 0.1246 0.16078 0.0
C2234 C 0.27669 0.09695 0.15295 0.0
C2235 C 0.3043 0.12631 0.15089 0.0
C2236 C 0.30352 0.1547 0.15243 0.0
C2237 C 0.27608 0.15339 0.15719 0.0
C2238 C 0.276 0.06619 0.15066 0.0
C2239 C 0.33258 0.18661 0.15051 0.0
C2240 C 0.38452 0.14127 0.16051 0.0
C2241 C 0.40016 0.15196 0.14835 0.0
C2242 C 0.35211 0.12988 0.16133 0.0
C2243 C 0.33521 0.12815 0.14957 0.0
C2244 C 0.35035 0.13468 0.13703 0.0
C2245 C 0.38304 0.14746 0.13659 0.0
C2246 C 0.33692 0.12349 0.17495 0.0
C2247 C 0.33268 0.13108 0.12423 0.0
H2248 H 0.22969 0.07421 0.1611 0.0
H2249 H 0.27593 0.17501 0.15933 0.0
H2250 H 0.29168 0.06805 0.1423 0.0
H2251 H 0.28419 0.05963 0.15978 0.0
H2252 H 0.25171 0.04691 0.14848 0.0
H2253 H 0.32749 0.2062 0.15156 0.0
H2254 H 0.35062 0.18992 0.15803 0.0
H2255 H 0.34291 0.18823 0.14051 0.0
H2256 H 0.39809 0.14505 0.16955 0.0
H2257 H 0.39543 0.15561 0.12717 0.0
H2258 H 0.31504 0.10026 0.17513 0.0
H2259 H 0.33038 0.14164 0.17727 0.0
H2260 H 0.35283 0.1239 0.18293 0.0
H2261 H 0.30842 0.11058 0.12474 0.0
H2262 H 0.34507 0.12811 0.11555 0.0
H2263 H 0.3309 0.15248 0.1225 0.0
C2264 C 0.84212 0.12756 0.16563 0.0
C2265 C 0.86951 0.1266 0.16827 0.0
C2266 C 0.84387 0.15539 0.1612 0.0
C2267 C 0.87389 0.18247 0.15913 0.0
C2268 C 0.90151 0.18036 0.16037 0.0
C2269 C 0.89901 0.15243 0.16527 0.0
C2270 C 0.81369 0.15652 0.16002 0.0
C2271 C 0.93377 0.20801 0.15757 0.0
C2272 C 0.85539 0.2418 0.14554 0.0
C2273 C 0.85124 0.25393 0.15753 0.0
C2274 C 0.86827 0.22197 0.14554 0.0
C2275 C 0.87566 0.21335 0.15788 0.0
C2276 C 0.87589 0.22934 0.16971 0.0
C2277 C 0.86388 0.24992 0.16935 0.0
C2278 C 0.86999 0.20713 0.13263 0.0
C2279 C 0.88426 0.22123 0.18305 0.0
H2280 H 0.81946 0.10738 0.16814 0.0
H2281 H 0.92014 0.15134 0.16741 0.0
H2282 H 0.81359 0.17319 0.16749 0.0
H2283 H 0.81192 0.16508 0.15 0.0
H2284 H 0.79243 0.13311 0.16166 0.0
H2285 H 0.94982 0.19986 0.15382 0.0
H2286 H 0.93292 0.22443 0.15018 0.0
H2287 H 0.944 0.22115 0.16696 0.0
H2288 H 0.84626 0.24573 0.13632 0.0
H2289 H 0.8609 0.25972 0.17857 0.0
H2290 H 0.84808 0.18415 0.13132 0.0
H2291 H 0.89014 0.20277 0.13268 0.0
H2292 H 0.87232 0.22227 0.12395 0.0
H2293 H 0.86538 0.19749 0.18618 0.0
H2294 H 0.88698 0.2384 0.19091 0.0
H2295 H 0.90648 0.22056 0.18234 0.0
C2296 C 0.86729 0.72391 0.16181 0.0
C2297 C 0.86657 0.74861 0.16838 0.0
C2298 C 0.83926 0.69591 0.15923 0.0
C2299 C 0.81014 0.69345 0.16292 0.0
C2300 C 0.80938 0.72022 0.16763 0.0
C2301 C 0.83783 0.74743 0.17067 0.0
C2302 C 0.84119 0.66787 0.15418 0.0
C2303 C 0.77882 0.71927 0.17075 0.0
C2304 C 0.74729 0.61146 0.15452 0.0
C2305 C 0.74736 0.59616 0.16628 0.0
C2306 C 0.7643 0.6444 0.15374 0.0
C2307 C 0.78257 0.66169 0.16483 0.0
C2308 C 0.77941 0.6463 0.1772 0.0
C2309 C 0.76152 0.61347 0.17777 0.0
C2310 C 0.76547 0.66018 0.14067 0.0
C2311 C 0.79829 0.66388 0.18934 0.0
H2312 H 0.88973 0.72515 0.16007 0.0
H2313 H 0.83756 0.76704 0.17556 0.0
H2314 H 0.83386 0.64993 0.1622 0.0
H2315 H 0.82503 0.65679 0.14563 0.0
H2316 H 0.8654 0.67439 0.15096 0.0
H2317 H 0.7813 0.74293 0.16948 0.0
H2318 H 0.75939 0.70219 0.16428 0.0
H2319 H 0.77226 0.71208 0.18129 0.0
H2320 H 0.73623 0.5977 0.14563 0.0
H2321 H 0.76155 0.60123 0.18679 0.0
H2322 H 0.78511 0.662 0.13451 0.0
H2323 H 0.76943 0.68432 0.14225 0.0
H2324 H 0.7433 0.64622 0.13496 0.0
H2325 H 0.82369 0.6728 0.18745 0.0
H2326 H 0.79123 0.64872 0.19837 0.0
H2327 H 0.79536 0.68446 0.19142 0.0
C2328 C 0.16563 0.36379 0.36818 0.0
C2329 C 0.16249 0.38126 0.35782 0.0
C2330 C 0.15283 0.33119 0.36692 0.0
C2331 C 0.13793 0.3165 0.35485 0.0
C2332 C 0.13047 0.33326 0.34537 0.0
C2333 C 0.14271 0.36565 0.34705 0.0
C2334 C 0.15881 0.31343 0.37773 0.0
C2335 C 0.11371 0.31819 0.33249 0.0
C2336 C 0.16539 0.27021 0.33511 0.0
C2337 C 0.13719 0.24201 0.33347 0.0
C2338 C 0.16688 0.2937 0.34344 0.0
C2339 C 0.13926 0.28854 0.35021 0.0
C2340 C 0.11185 0.25842 0.34989 0.0
C2341 C 0.11099 0.23539 0.34131 0.0
C2342 C 0.19694 0.32528 0.34363 0.0
C2343 C 0.08248 0.25132 0.3575 0.0
H2344 H 0.18008 0.37584 0.37678 0.0
H2345 H 0.13974 0.37916 0.3392 0.0
H2346 H 0.13969 0.28844 0.37812 0.0
H2347 H 0.18127 0.31387 0.37569 0.0
H2348 H 0.16087 0.32446 0.38764 0.0
H2349 H 0.10657 0.33328 0.32697 0.0
H2350 H 0.12956 0.31395 0.32599 0.0
H2351 H 0.09243 0.29513 0.33448 0.0
H2352 H 0.18546 0.27498 0.32892 0.0
H2353 H 0.08913 0.21338 0.33991 0.0
H2354 H 0.2043 0.33315 0.35403 0.0
H2355 H 0.19297 0.3432 0.33862 0.0
H2356 H 0.21663 0.32455 0.33846 0.0
H2357 H 0.08773 0.26709 0.36623 0.0
H2358 H 0.07005 0.22647 0.36097 0.0
H2359 H 0.06617 0.25432 0.35079 0.0
C2360 C 0.61325 0.75199 0.34228 0.0
C2361 C 0.59576 0.76367 0.34865 0.0
C2362 C 0.6457 0.77154 0.34019 0.0
C2363 C 0.66031 0.80349 0.34416 0.0
C2364 C 0.64349 0.81408 0.35204 0.0
C2365 C 0.61138 0.79387 0.35428 0.0
C2366 C 0.66349 0.75903 0.33245 0.0
C2367 C 0.65811 0.84795 0.35652 0.0
C2368 C 0.74418 0.86673 0.33587 0.0
C2369 C 0.7393 0.87707 0.32355 0.0
C2370 C 0.71897 0.84141 0.34255 0.0
C2371 C 0.68843 0.82724 0.33687 0.0
C2372 C 0.68374 0.83769 0.32436 0.0
C2373 C 0.70932 0.86207 0.3178 0.0
C2374 C 0.72502 0.8297 0.35551 0.0
C2375 C 0.65145 0.82405 0.31807 0.0
H2376 H 0.60142 0.72824 0.33831 0.0
H2377 H 0.5981 0.80275 0.35955 0.0
H2378 H 0.66449 0.7655 0.32178 0.0
H2379 H 0.68804 0.76947 0.33613 0.0
H2380 H 0.6518 0.73295 0.33313 0.0
H2381 H 0.64393 0.85094 0.36442 0.0
H2382 H 0.68232 0.8568 0.36033 0.0
H2383 H 0.65967 0.86281 0.34786 0.0
H2384 H 0.76758 0.87821 0.34019 0.0
H2385 H 0.70552 0.87029 0.30831 0.0
H2386 H 0.72289 0.80634 0.35383 0.0
H2387 H 0.70729 0.82647 0.36316 0.0
H2388 H 0.74891 0.84595 0.3595 0.0
H2389 H 0.64159 0.79859 0.31607 0.0
H2390 H 0.65196 0.83578 0.30851 0.0
H2391 H 0.63512 0.82653 0.32497 0.0
C2392 C 0.08725 0.82662 0.33871 0.0
C2393 C 0.09865 0.85795 0.33502 0.0
C2394 C 0.10726 0.81745 0.34463 0.0
C2395 C 0.13899 0.84054 0.34721 0.0
C2396 C 0.14884 0.87282 0.34554 0.0
C2397 C 0.12871 0.88119 0.33906 0.0
C2398 C 0.0957 0.78273 0.3463 0.0
C2399 C 0.18171 0.89821 0.34915 0.0
C2400 C 0.18533 0.8039 0.36079 0.0
C2401 C 0.19838 0.79997 0.34902 0.0
C2402 C 0.1683 0.81991 0.36066 0.0
C2403 C 0.1628 0.83042 0.34835 0.0
C2404 C 0.17715 0.82754 0.33653 0.0
C2405 C 0.19543 0.81293 0.3371 0.0
C2406 C 0.15513 0.8241 0.37361 0.0
C2407 C 0.17141 0.83778 0.32309 0.0
H2408 H 0.06401 0.80877 0.33541 0.0
H2409 H 0.13744 0.90547 0.33612 0.0
H2410 H 0.10738 0.77525 0.33882 0.0
H2411 H 0.10181 0.77792 0.35632 0.0
H2412 H 0.0698 0.76813 0.34494 0.0
H2413 H 0.18283 0.92119 0.35075 0.0
H2414 H 0.18997 0.89181 0.35832 0.0
H2415 H 0.19811 0.90115 0.34093 0.0
H2416 H 0.18809 0.7941 0.37005 0.0
H2417 H 0.20558 0.80968 0.32804 0.0
H2418 H 0.13198 0.80286 0.37559 0.0
H2419 H 0.15183 0.8449 0.37335 0.0
H2420 H 0.1709 0.82677 0.38208 0.0
H2421 H 0.14582 0.82488 0.32081 0.0
H2422 H 0.18401 0.83342 0.3149 0.0
H2423 H 0.17923 0.86326 0.32324 0.0
C2424 C 0.70929 0.8501 0.81313 0.0
C2425 C 0.73201 0.84664 0.8202 0.0
C2426 C 0.67733 0.83145 0.81616 0.0
C2427 C 0.66814 0.80908 0.82657 0.0
C2428 C 0.6905 0.80227 0.83228 0.0
C2429 C 0.72247 0.8214 0.82907 0.0
C2430 C 0.65418 0.83895 0.80953 0.0
C2431 C 0.68117 0.77744 0.84293 0.0
C2432 C 0.61339 0.81642 0.85066 0.0
C2433 C 0.58394 0.79284 0.84624 0.0
C2434 C 0.64092 0.82124 0.8445 0.0
C2435 C 0.63897 0.80097 0.834 0.0
C2436 C 0.60926 0.77582 0.83 0.0
C2437 C 0.58179 0.77246 0.83601 0.0
C2438 C 0.67191 0.84923 0.84878 0.0
C2439 C 0.6065 0.75263 0.81945 0.0
H2440 H 0.71661 0.8689 0.80587 0.0
H2441 H 0.74 0.81813 0.83428 0.0
H2442 H 0.6317 0.81716 0.80731 0.0
H2443 H 0.6489 0.85351 0.81638 0.0
H2444 H 0.66372 0.85228 0.80009 0.0
H2445 H 0.69887 0.76971 0.84393 0.0
H2446 H 0.67934 0.78719 0.85266 0.0
H2447 H 0.65784 0.75667 0.84068 0.0
H2448 H 0.61481 0.83237 0.85848 0.0
H2449 H 0.5588 0.75404 0.83275 0.0
H2450 H 0.68321 0.86528 0.84019 0.0
H2451 H 0.68824 0.84126 0.85229 0.0
H2452 H 0.669 0.86292 0.85693 0.0
H2453 H 0.62139 0.76486 0.81066 0.0
H2454 H 0.58179 0.73744 0.81609 0.0
H2455 H 0.61507 0.73729 0.82361 0.0
C2456 C 0.16894 0.77976 0.82189 0.0
C2457 C 0.19738 0.78277 0.82618 0.0
C2458 C 0.16724 0.80653 0.81842 0.0
C2459 C 0.19497 0.83651 0.81887 0.0
C2460 C 0.22446 0.83877 0.8212 0.0
C2461 C 0.22524 0.81181 0.82521 0.0
C2462 C 0.13523 0.80307 0.81602 0.0
C2463 C 0.25472 0.86999 0.82084 0.0
C2464 C 0.17549 0.89906 0.80938 0.0
C2465 C 0.16885 0.90675 0.82196 0.0
C2466 C 0.1878 0.87883 0.80818 0.0
C2467 C 0.19181 0.86493 0.81982 0.0
C2468 C 0.18747 0.87474 0.83259 0.0
C2469 C 0.17648 0.89611 0.83348 0.0
C2470 C 0.19403 0.87054 0.79446 0.0
C2471 C 0.19123 0.86029 0.84527 0.0
H2472 H 0.14748 0.75716 0.82278 0.0
H2473 H 0.24727 0.81384 0.82849 0.0
H2474 H 0.12908 0.81355 0.8245 0.0
H2475 H 0.13548 0.81585 0.80687 0.0
H2476 H 0.11649 0.77802 0.81501 0.0
H2477 H 0.27526 0.86675 0.81893 0.0
H2478 H 0.2539 0.88566 0.81305 0.0
H2479 H 0.25841 0.88195 0.83061 0.0
H2480 H 0.16968 0.9077 0.80048 0.0
H2481 H 0.17104 0.90213 0.84315 0.0
H2482 H 0.17259 0.84936 0.79076 0.0
H2483 H 0.21356 0.86526 0.7946 0.0
H2484 H 0.1999 0.89 0.78729 0.0
H2485 H 0.1735 0.83479 0.84552 0.0
H2486 H 0.18819 0.8715 0.85435 0.0
H2487 H 0.21484 0.86249 0.84564 0.0
C2488 C 0.19269 0.42022 0.82514 0.0
C2489 C 0.21318 0.41594 0.83343 0.0
C2490 C 0.17156 0.3957 0.8168 0.0
C2491 C 0.17083 0.36645 0.81717 0.0
C2492 C 0.19392 0.3635 0.82455 0.0
C2493 C 0.21484 0.38842 0.83261 0.0
C2494 C 0.14842 0.40037 0.80861 0.0
C2495 C 0.19442 0.33291 0.82516 0.0
C2496 C 0.09972 0.28672 0.81926 0.0
C2497 C 0.10616 0.27211 0.80873 0.0
C2498 C 0.1183 0.31927 0.82119 0.0
C2499 C 0.14327 0.33726 0.81218 0.0
C2500 C 0.14599 0.32331 0.8003 0.0
C2501 C 0.12772 0.29058 0.79882 0.0
C2502 C 0.11411 0.33342 0.83386 0.0
C2503 C 0.17076 0.3422 0.79 0.0
H2504 H 0.19145 0.44165 0.82593 0.0
H2505 H 0.23078 0.38542 0.83916 0.0
H2506 H 0.13982 0.38441 0.79985 0.0
H2507 H 0.12788 0.39558 0.81491 0.0
H2508 H 0.15928 0.42513 0.8051 0.0
H2509 H 0.21498 0.33528 0.83082 0.0
H2510 H 0.17262 0.31451 0.83006 0.0
H2511 H 0.19519 0.32457 0.81497 0.0
H2512 H 0.08263 0.27244 0.8268 0.0
H2513 H 0.13199 0.27928 0.79042 0.0
H2514 H 0.11503 0.35606 0.83173 0.0
H2515 H 0.13357 0.33832 0.84086 0.0
H2516 H 0.09141 0.31741 0.83889 0.0
H2517 H 0.17474 0.36653 0.78928 0.0
H2518 H 0.16398 0.33086 0.78003 0.0
H2519 H 0.19334 0.34377 0.7929 0.0
C2520 C 0.78129 0.58112 0.68279 0.0
C2521 C 0.80885 0.58584 0.67656 0.0
C2522 C 0.78128 0.60564 0.69001 0.0
C2523 C 0.80914 0.63539 0.69038 0.0
C2524 C 0.83785 0.63856 0.68559 0.0
C2525 C 0.83726 0.61347 0.67877 0.0
C2526 C 0.75076 0.60043 0.69592 0.0
C2527 C 0.86844 0.66965 0.68592 0.0
C2528 C 0.81575 0.71118 0.68037 0.0
C2529 C 0.83447 0.72981 0.69087 0.0
C2530 C 0.80246 0.67844 0.68087 0.0
C2531 C 0.80765 0.66454 0.69231 0.0
C2532 C 0.821 0.68285 0.70387 0.0
C2533 C 0.83519 0.71566 0.70292 0.0
C2534 C 0.7872 0.65956 0.66843 0.0
C2535 C 0.82391 0.66837 0.71667 0.0
H2536 H 0.7593 0.55946 0.68104 0.0
H2537 H 0.85841 0.61672 0.67385 0.0
H2538 H 0.75451 0.61864 0.70342 0.0
H2539 H 0.73543 0.60077 0.68786 0.0
H2540 H 0.73795 0.57686 0.7007 0.0
H2541 H 0.88868 0.66751 0.68224 0.0
H2542 H 0.86642 0.68714 0.67958 0.0
H2543 H 0.87379 0.67905 0.69621 0.0
H2544 H 0.81467 0.72227 0.67117 0.0
H2545 H 0.84877 0.73023 0.71125 0.0
H2546 H 0.76453 0.63828 0.67092 0.0
H2547 H 0.80276 0.65168 0.66388 0.0
H2548 H 0.78268 0.67343 0.66088 0.0
H2549 H 0.80478 0.64348 0.71763 0.0
H2550 H 0.82325 0.68192 0.72542 0.0
H2551 H 0.84681 0.66892 0.71686 0.0
C2552 C 0.41657 0.19767 0.66763 0.0
C2553 C 0.41416 0.20671 0.65464 0.0
C2554 C 0.39006 0.1733 0.67402 0.0
C2555 C 0.36063 0.15899 0.66739 0.0
C2556 C 0.35842 0.168 0.65419 0.0
C2557 C 0.3854 0.19134 0.6479 0.0
C2558 C 0.39338 0.16307 0.68784 0.0
C2559 C 0.32731 0.15411 0.64688 0.0
C2560 C 0.28427 0.08508 0.6742 0.0
C2561 C 0.2668 0.09798 0.67955 0.0
C2562 C 0.31663 0.10423 0.67179 0.0
C2563 C 0.33122 0.13693 0.67441 0.0
C2564 C 0.3143 0.14929 0.68105 0.0
C2565 C 0.28231 0.1295 0.68369 0.0
C2566 C 0.33439 0.09003 0.66526 0.0
C2567 C 0.32872 0.18411 0.68383 0.0
H2568 H 0.4391 0.20946 0.67271 0.0
H2569 H 0.38368 0.19859 0.63786 0.0
H2570 H 0.37897 0.16764 0.69504 0.0
H2571 H 0.38441 0.13732 0.68794 0.0
H2572 H 0.41822 0.17547 0.69132 0.0
H2573 H 0.32979 0.16425 0.63674 0.0
H2574 H 0.31684 0.12826 0.6459 0.0
H2575 H 0.31049 0.15845 0.65262 0.0
H2576 H 0.27245 0.0605 0.6713 0.0
H2577 H 0.269 0.13947 0.68806 0.0
H2578 H 0.35897 0.10128 0.66898 0.0
H2579 H 0.33534 0.09396 0.65433 0.0
H2580 H 0.32269 0.06424 0.66706 0.0
H2581 H 0.35267 0.19399 0.68809 0.0
H2582 H 0.31413 0.18907 0.69082 0.0
H2583 H 0.3309 0.19667 0.67433 0.0
C2584 C 0.78712 0.18395 0.66906 0.0
C2585 C 0.79682 0.20882 0.66004 0.0
C2586 C 0.80922 0.17733 0.67477 0.0
C2587 C 0.84152 0.1968 0.67159 0.0
C2588 C 0.85158 0.22514 0.66449 0.0
C2589 C 0.82892 0.23044 0.65841 0.0
C2590 C 0.79754 0.14705 0.68249 0.0
C2591 C 0.88599 0.24777 0.66191 0.0
C2592 C 0.89022 0.16302 0.68527 0.0
C2593 C 0.88892 0.14434 0.67448 0.0
C2594 C 0.87752 0.183 0.68417 0.0
C2595 C 0.86226 0.18296 0.67218 0.0
C2596 C 0.86289 0.16549 0.661 0.0
C2597 C 0.87653 0.14654 0.6623 0.0
C2598 C 0.87877 0.20232 0.6961 0.0
C2599 C 0.84687 0.16465 0.64799 0.0
H2600 H 0.76219 0.16748 0.67037 0.0
H2601 H 0.83629 0.25017 0.65165 0.0
H2602 H 0.8003 0.12978 0.67631 0.0
H2603 H 0.81159 0.1512 0.69169 0.0
H2604 H 0.77233 0.13645 0.68529 0.0
H2605 H 0.89026 0.27187 0.65983 0.0
H2606 H 0.90058 0.24869 0.67055 0.0
H2607 H 0.89379 0.23981 0.65308 0.0
H2608 H 0.89993 0.16103 0.6947 0.0
H2609 H 0.8756 0.13174 0.65406 0.0
H2610 H 0.85885 0.18761 0.70287 0.0
H2611 H 0.87718 0.22334 0.69319 0.0
H2612 H 0.90088 0.21015 0.7018 0.0
H2613 H 0.82127 0.15493 0.64968 0.0
H2614 H 0.84987 0.15001 0.64031 0.0
H2615 H 0.85654 0.1888 0.64395 0.0
C2616 C 0.03949 0.4717 0.48933 0.0
C2617 C 0.0574 0.49919 0.49674 0.0
C2618 C 0.0066 0.45439 0.49082 0.0
C2619 C 0.99196 0.46498 0.50001 0.0
C2620 C 0.01052 0.49187 0.50802 0.0
C2621 C 0.04303 0.50887 0.50613 0.0
C2622 C 0.98766 0.42609 0.48204 0.0
C2623 C 0.996 0.50357 0.51821 0.0
C2624 C 0.91335 0.45935 0.49917 0.0
C2625 C 0.90046 0.44193 0.51084 0.0
C2626 C 0.94187 0.46353 0.49415 0.0
C2627 C 0.95731 0.4498 0.50101 0.0
C2628 C 0.94168 0.42811 0.51144 0.0
C2629 C 0.9134 0.42463 0.51634 0.0
C2630 C 0.95749 0.48611 0.48272 0.0
C2631 C 0.95679 0.41201 0.51862 0.0
H2632 H 0.05095 0.46471 0.48193 0.0
H2633 H 0.05728 0.53027 0.51179 0.0
H2634 H 0.96689 0.40738 0.48738 0.0
H2635 H 0.97892 0.43332 0.47329 0.0
H2636 H 0.0022 0.41612 0.47831 0.0
H2637 H 0.01403 0.52387 0.52404 0.0
H2638 H 0.98065 0.511 0.51313 0.0
H2639 H 0.98112 0.48443 0.52528 0.0
H2640 H 0.90299 0.47226 0.49475 0.0
H2641 H 0.9028 0.41032 0.52515 0.0
H2642 H 0.96942 0.47746 0.47596 0.0
H2643 H 0.97565 0.50927 0.48673 0.0
H2644 H 0.94028 0.48972 0.47688 0.0
H2645 H 0.96973 0.40512 0.51157 0.0
H2646 H 0.93904 0.39071 0.52405 0.0
H2647 H 0.97399 0.42854 0.526 0.0
C2648 C 0.49289 0.44449 0.48741 0.0
C2649 C 0.52107 0.44499 0.49008 0.0
C2650 C 0.49328 0.47137 0.4825 0.0
C2651 C 0.52265 0.49892 0.48013 0.0
C2652 C 0.55074 0.49749 0.48063 0.0
C2653 C 0.5497 0.47049 0.4859 0.0
C2654 C 0.46264 0.47166 0.48187 0.0
C2655 C 0.58221 0.52573 0.47731 0.0
C2656 C 0.51022 0.56643 0.47098 0.0
C2657 C 0.51036 0.57853 0.48367 0.0
C2658 C 0.51764 0.5425 0.46935 0.0
C2659 C 0.52411 0.52979 0.48076 0.0
C2660 C 0.52681 0.54382 0.49345 0.0
C2661 C 0.52032 0.56846 0.4947 0.0
C2662 C 0.51618 0.52947 0.45557 0.0
C2663 C 0.53365 0.53096 0.50593 0.0
H2664 H 0.47086 0.42463 0.4908 0.0
H2665 H 0.57149 0.4707 0.48805 0.0
H2666 H 0.46147 0.48563 0.49035 0.0
H2667 H 0.46115 0.48291 0.47252 0.0
H2668 H 0.44187 0.44754 0.48244 0.0
H2669 H 0.59965 0.51854 0.47451 0.0
H2670 H 0.58006 0.53956 0.46902 0.0
H2671 H 0.59139 0.54131 0.48616 0.0
H2672 H 0.50309 0.57481 0.46238 0.0
H2673 H 0.52051 0.57801 0.50448 0.0
H2674 H 0.49173 0.51054 0.45347 0.0
H2675 H 0.53195 0.51941 0.45461 0.0
H2676 H 0.52271 0.54804 0.44787 0.0
H2677 H 0.51418 0.50659 0.50779 0.0
H2678 H 0.53627 0.54546 0.51487 0.0
H2679 H 0.55558 0.52991 0.50468 0.0
C2680 C 0.52571 0.04592 0.50114 0.0
C2681 C 0.52179 0.07138 0.50431 0.0
C2682 C 0.50264 0.02046 0.49397 0.0
C2683 C 0.47537 0.02113 0.48966 0.0
C2684 C 0.47321 0.04862 0.49156 0.0
C2685 C 0.4963 0.07337 0.4992 0.0
C2686 C 0.50618 0.99171 0.49223 0.0
C2687 C 0.44575 0.05132 0.48641 0.0
C2688 C 0.43335 0.94578 0.47149 0.0
C2689 C 0.4176 0.92594 0.48228 0.0
C2690 C 0.4477 0.9785 0.4729 0.0
C2691 C 0.44767 0.99104 0.48557 0.0
C2692 C 0.42741 0.97099 0.49572 0.0
C2693 C 0.41216 0.93835 0.49386 0.0
C2694 C 0.46644 -0.00054 0.46145 0.0
C2695 C 0.42578 0.98356 0.50926 0.0
H2696 H 0.54562 0.04478 0.50523 0.0
H2697 H 0.49359 0.0934 0.50173 0.0
H2698 H 0.48669 0.9712 0.49741 0.0
H2699 H 0.50504 0.98567 0.48152 0.0
H2700 H 0.52883 0.99528 0.49629 0.0
H2701 H 0.45407 0.07549 0.48258 0.0
H2702 H 0.43279 0.03416 0.47835 0.0
H2703 H 0.42924 0.04733 0.49473 0.0
H2704 H 0.43654 0.93591 0.46233 0.0
H2705 H 0.39935 0.92278 0.50208 0.0
H2706 H 0.49104 0.00422 0.46198 0.0
H2707 H 0.46699 0.02237 0.46188 0.0
H2708 H 0.45642 0.98795 0.45172 0.0
H2709 H 0.4485 0.99197 0.51455 0.0
H2710 H 0.40665 0.96534 0.51553 0.0
H2711 H 0.42183 0.00382 0.50819 0.0
C2712 C 0.52843 0.03955 0.00505 0.0
C2713 C 0.51836 0.06158 0.00602 0.0
C2714 C 0.50765 0.00861 0.00118 0.0
C2715 C 0.4757 -0.00076 0.99862 0.0
C2716 C 0.4648 0.02076 0.00063 0.0
C2717 C 0.4865 0.05202 0.00408 0.0
C2718 C 0.52054 0.98657 0.99908 0.0
C2719 C 0.43075 0.01153 0.99865 0.0
C2720 C 0.45147 0.93791 0.97252 0.0
C2721 C 0.44556 0.91223 0.98061 0.0
C2722 C 0.45689 0.9662 0.97823 0.0
C2723 C 0.45565 0.96826 0.99227 0.0
C2724 C 0.44368 0.94068 0.00012 0.0
C2725 C 0.43933 0.91287 0.99421 0.0
C2726 C 0.46858 0.99493 0.96944 0.0
C2727 C 0.43945 0.94156 0.01498 0.0
H2728 H 0.55303 0.04688 0.00663 0.0
H2729 H 0.47858 0.06899 0.00509 0.0
H2730 H 0.50797 0.96557 0.00558 0.0
H2731 H 0.51683 0.97827 0.98859 0.0
H2732 H 0.54611 -0.00207 0.00132 0.0
H2733 H 0.42364 0.0238 0.006 0.0
H2734 H 0.42775 0.01898 0.98857 0.0
H2735 H 0.41467 0.98575 -0.00037 0.0
H2736 H 0.45535 0.93716 0.96191 0.0
H2737 H 0.43354 0.89258 0.00043 0.0
H2738 H 0.49426 0.01059 0.97103 0.0
H2739 H 0.45672 0.00841 0.97207 0.0
H2740 H 0.46451 0.98865 0.95869 0.0
H2741 H 0.46233 0.94951 0.02004 0.0
H2742 H 0.42227 0.91787 0.0189 0.0
H2743 H 0.43131 0.95838 0.01754 0.0
C2744 C 0.95475 0.44902 0.01088 0.0
C2745 C 0.93733 0.44929 0.02185 0.0
C2746 C 0.98702 0.47068 0.01006 0.0
C2747 C 0.0019 0.49253 0.0206 0.0
C2748 C 0.98533 0.48934 0.03255 0.0
C2749 C 0.95291 0.468 0.03296 0.0
C2750 C 0.00406 0.47277 0.99721 0.0
C2751 C 0.00088 0.51063 0.04434 0.0
C2752 C 0.08463 0.54744 0.00949 0.0
C2753 C 0.0792 0.56814 0.00185 0.0
C2754 C 0.06055 0.52464 0.01751 0.0
C2755 C 0.03074 0.52264 0.01749 0.0
C2756 C 0.02703 0.54662 0.01131 0.0
C2757 C 0.05147 0.56912 0.00348 0.0
C2758 C 0.06602 0.50066 0.02459 0.0
C2759 C 0.99586 0.54594 0.01129 0.0
H2760 H 0.94274 0.43406 0.0024 0.0
H2761 H 0.9395 0.46738 0.04168 0.0
H2762 H 0.00893 0.49443 0.99172 0.0
H2763 H 0.02696 0.47426 0.9993 0.0
H2764 H 0.99009 0.45217 0.99062 0.0
H2765 H 0.98933 0.49864 0.05381 0.0
H2766 H 0.02632 0.51828 0.04488 0.0
H2767 H -0.00142 0.53195 0.04342 0.0
H2768 H 0.10627 0.54682 0.00812 0.0
H2769 H 0.04762 0.58532 0.99748 0.0
H2770 H 0.06171 0.48141 0.01758 0.0
H2771 H 0.05007 0.49022 0.03328 0.0
H2772 H 0.09082 0.51149 0.02804 0.0
H2773 H 0.97859 0.52585 0.00515 0.0
H2774 H -0.00204 0.56795 0.00715 0.0
H2775 H 0.98627 0.54262 0.02155 0.0
C2776 C 0.44418 0.53447 0.01683 0.0
C2777 C 0.44116 0.53277 0.00293 0.0
C2778 C 0.46641 0.52871 0.02313 0.0
C2779 C 0.48459 0.5196 0.01531 0.0
C2780 C 0.48242 0.51923 0.00122 0.0
C2781 C 0.46115 0.52643 0.99522 0.0
C2782 C 0.46926 0.53096 0.03812 0.0
C2783 C 0.50071 0.50882 0.99248 0.0
C2784 C 0.55264 0.50805 0.02419 0.0
C2785 C 0.53701 0.47522 0.02555 0.0
C2786 C 0.53551 0.52371 0.02247 0.0
C2787 C 0.50229 0.50582 0.02153 0.0
C2788 C 0.48646 0.47297 0.0239 0.0
C2789 C 0.50408 0.45814 0.02608 0.0
C2790 C 0.55299 0.55901 0.02074 0.0
C2791 C 0.45107 0.45292 0.02279 0.0
H2792 H 0.42899 0.53989 0.02276 0.0
H2793 H 0.45878 0.52511 0.98445 0.0
H2794 H 0.45354 0.50748 0.04256 0.0
H2795 H 0.49371 0.53876 0.04139 0.0
H2796 H 0.46208 0.54758 0.04211 0.0
H2797 H 0.49656 0.51037 0.98168 0.0
H2798 H 0.5263 0.5235 0.99442 0.0
H2799 H 0.49379 0.48405 0.99482 0.0
H2800 H 0.57817 0.52135 0.02411 0.0
H2801 H 0.49197 0.43276 0.02726 0.0
H2802 H 0.54013 0.56957 0.02564 0.0
H2803 H 0.55493 0.56488 0.00997 0.0
H2804 H 0.57717 0.56993 0.02493 0.0
H2805 H 0.43939 0.46266 0.02909 0.0
H2806 H 0.44236 0.42811 0.02582 0.0
H2807 H 0.44379 0.45304 0.01231 0.0
loop_
_geom_bond_atom_site_label_1
_geom_bond_atom_site_label_2
_geom_bond_distance
_geom_bond_site_symmetry_2
_ccdc_geom_bond_type
Co0 O1 2.216 . S
Co0 O2 2.091 . S
Co0 O4 2.004 . S
Co0 O10 2.021 . S
Co0 O12 2.137 . S
Co0 O13 2.244 . S
O1 Co0 2.216 . S
O1 C8 1.247 . S
O2 Co0 2.091 . S
O2 C8 1.261 . S
C3 O12 1.247 . S
C3 O13 1.272 . S
O4 Co0 2.004 . S
O4 C9 1.259 . S
Co5 O6 2.061 . S
Co5 O11 2.052 . S
Co5 O13 2.135 . S
O6 Co5 2.061 . S
O6 C9 1.235 . S
C7 O10 1.238 . S
C7 O11 1.241 . S
C8 O1 1.247 . S
C8 O2 1.261 . S
C9 O4 1.259 . S
C9 O6 1.235 . S
O10 Co0 2.021 . S
O10 C7 1.238 . S
O11 Co5 2.052 . S
O11 C7 1.241 . S
O12 Co0 2.137 . S
O12 C3 1.247 . S
O13 Co0 2.244 . S
O13 C3 1.272 . S
O13 Co5 2.135 . S
Co14 O15 2.216 . S
Co14 O16 2.091 . S
Co14 O18 2.004 1_545 S
Co14 O24 2.021 . S
Co14 O26 2.137 . S
Co14 O27 2.244 . S
O15 Co14 2.216 . S
O15 C22 1.247 . S
O16 Co14 2.091 . S
O16 C22 1.261 . S
C17 O26 1.247 . S
C17 O27 1.272 . S
O18 Co14 2.004 1_565 S
O18 C23 1.259 . S
Co19 O20 2.061 1_545 S
Co19 O25 2.052 . S
Co19 O27 2.135 . S
O20 Co19 2.061 1_565 S
O20 C23 1.235 . S
C21 O24 1.238 . S
C21 O25 1.241 . S
C22 O15 1.247 . S
C22 O16 1.261 . S
C23 O18 1.259 . S
C23 O20 1.235 . S
O24 Co14 2.021 . S
O24 C21 1.238 . S
O25 Co19 2.052 . S
O25 C21 1.241 . S
O26 Co14 2.137 . S
O26 C17 1.247 . S
O27 Co14 2.244 . S
O27 C17 1.272 . S
O27 Co19 2.135 . S
Co28 O29 2.216 . S
Co28 O30 2.091 . S
Co28 O32 2.004 1_655 S
Co28 O38 2.021 . S
Co28 O40 2.137 . S
Co28 O41 2.244 . S
O29 Co28 2.216 . S
O29 C36 1.247 . S
O30 Co28 2.091 . S
O30 C36 1.261 . S
C31 O40 1.247 . S
C31 O41 1.272 . S
O32 Co28 2.004 1_455 S
O32 C37 1.259 . S
Co33 O34 2.061 1_655 S
Co33 O39 2.052 . S
Co33 O41 2.135 . S
O34 Co33 2.061 1_455 S
O34 C37 1.235 . S
C35 O38 1.238 . S
C35 O39 1.241 . S
C36 O29 1.247 . S
C36 O30 1.261 . S
C37 O32 1.259 . S
C37 O34 1.235 . S
O38 Co28 2.021 . S
O38 C35 1.238 . S
O39 Co33 2.052 . S
O39 C35 1.241 . S
O40 Co28 2.137 . S
O40 C31 1.247 . S
O41 Co28 2.244 . S
O41 C31 1.272 . S
O41 Co33 2.135 . S
Co42 O43 2.216 . S
Co42 O44 2.091 . S
Co42 O46 2.004 . S
Co42 O52 2.021 . S
Co42 O54 2.137 . S
Co42 O55 2.244 . S
O43 Co42 2.216 . S
O43 C50 1.247 . S
O44 Co42 2.091 . S
O44 C50 1.261 . S
C45 O54 1.247 . S
C45 O55 1.272 . S
O46 Co42 2.004 . S
O46 C51 1.259 . S
Co47 O48 2.061 . S
Co47 O53 2.052 . S
Co47 O55 2.135 . S
O48 Co47 2.061 . S
O48 C51 1.235 . S
C49 O52 1.238 . S
C49 O53 1.241 . S
C50 O43 1.247 . S
C50 O44 1.261 . S
C51 O46 1.259 . S
C51 O48 1.235 . S
O52 Co42 2.021 . S
O52 C49 1.238 . S
O53 Co47 2.052 . S
O53 C49 1.241 . S
O54 Co42 2.137 . S
O54 C45 1.247 . S
O55 Co42 2.244 . S
O55 C45 1.272 . S
O55 Co47 2.135 . S
Co56 O57 2.216 . S
Co56 O58 2.091 . S
Co56 O60 2.004 1_565 S
Co56 O66 2.021 . S
Co56 O68 2.137 . S
Co56 O69 2.244 . S
O57 Co56 2.216 . S
O57 C64 1.247 . S
O58 Co56 2.091 . S
O58 C64 1.261 . S
C59 O68 1.247 . S
C59 O69 1.272 . S
O60 Co56 2.004 1_545 S
O60 C65 1.259 . S
Co61 O62 2.061 1_565 S
Co61 O67 2.052 . S
Co61 O69 2.135 . S
O62 Co61 2.061 1_545 S
O62 C65 1.235 . S
C63 O66 1.238 . S
C63 O67 1.241 . S
C64 O57 1.247 . S
C64 O58 1.261 . S
C65 O60 1.259 . S
C65 O62 1.235 . S
O66 Co56 2.021 . S
O66 C63 1.238 . S
O67 Co61 2.052 . S
O67 C63 1.241 . S
O68 Co56 2.137 . S
O68 C59 1.247 . S
O69 Co56 2.244 . S
O69 C59 1.272 . S
O69 Co61 2.135 . S
Co70 O71 2.216 . S
Co70 O72 2.091 . S
Co70 O74 2.004 1_455 S
Co70 O80 2.021 . S
Co70 O82 2.137 . S
Co70 O83 2.244 . S
O71 Co70 2.216 . S
O71 C78 1.247 . S
O72 Co70 2.091 . S
O72 C78 1.261 . S
C73 O82 1.247 . S
C73 O83 1.272 . S
O74 Co70 2.004 1_655 S
O74 C79 1.259 . S
Co75 O76 2.061 1_455 S
Co75 O81 2.052 . S
Co75 O83 2.135 . S
O76 Co75 2.061 1_655 S
O76 C79 1.235 . S
C77 O80 1.238 . S
C77 O81 1.241 . S
C78 O71 1.247 . S
C78 O72 1.261 . S
C79 O74 1.259 . S
C79 O76 1.235 . S
O80 Co70 2.021 . S
O80 C77 1.238 . S
O81 Co75 2.052 . S
O81 C77 1.241 . S
O82 Co70 2.137 . S
O82 C73 1.247 . S
O83 Co70 2.244 . S
O83 C73 1.272 . S
O83 Co75 2.135 . S
Co84 O85 2.216 . S
Co84 O86 2.091 . S
Co84 O88 2.004 . S
Co84 O94 2.021 . S
Co84 O96 2.137 . S
Co84 O97 2.244 . S
O85 Co84 2.216 . S
O85 C92 1.247 . S
O86 Co84 2.091 . S
O86 C92 1.261 . S
C87 O96 1.247 . S
C87 O97 1.272 . S
O88 Co84 2.004 . S
O88 C93 1.259 . S
Co89 O90 2.061 . S
Co89 O95 2.052 . S
Co89 O97 2.135 . S
O90 Co89 2.061 . S
O90 C93 1.235 . S
C91 O94 1.238 . S
C91 O95 1.241 . S
C92 O85 1.247 . S
C92 O86 1.261 . S
C93 O88 1.259 . S
C93 O90 1.235 . S
O94 Co84 2.021 . S
O94 C91 1.238 . S
O95 Co89 2.052 . S
O95 C91 1.241 . S
O96 Co84 2.137 . S
O96 C87 1.247 . S
O97 Co84 2.244 . S
O97 C87 1.272 . S
O97 Co89 2.135 . S
Co98 O99 2.216 . S
Co98 O100 2.091 . S
Co98 O102 2.004 1_565 S
Co98 O108 2.021 . S
Co98 O110 2.137 . S
Co98 O111 2.244 . S
O99 Co98 2.216 . S
O99 C106 1.247 . S
O100 Co98 2.091 . S
O100 C106 1.261 . S
C101 O110 1.247 . S
C101 O111 1.272 . S
O102 Co98 2.004 1_545 S
O102 C107 1.259 . S
Co103 O104 2.044 1_565 S
Co103 O109 2.071 . S
Co103 O111 2.163 . S
O104 Co103 2.044 1_545 S
O104 C107 1.235 . S
C105 O108 1.238 . S
C105 O109 1.241 . S
C106 O99 1.247 . S
C106 O100 1.261 . S
C107 O102 1.259 . S
C107 O104 1.235 . S
O108 Co98 2.021 . S
O108 C105 1.238 . S
O109 Co103 2.071 . S
O109 C105 1.241 . S
O110 Co98 2.137 . S
O110 C101 1.247 . S
O111 Co98 2.244 . S
O111 C101 1.272 . S
O111 Co103 2.163 . S
Co112 O113 2.216 . S
Co112 O114 2.091 . S
Co112 O116 2.004 1_455 S
Co112 O122 2.021 . S
Co112 O124 2.137 . S
Co112 O125 2.244 . S
O113 Co112 2.216 . S
O113 C120 1.247 . S
O114 Co112 2.091 . S
O114 C120 1.261 . S
C115 O124 1.247 . S
C115 O125 1.272 . S
O116 Co112 2.004 1_655 S
O116 C121 1.259 . S
Co117 O118 2.061 1_455 S
Co117 O123 2.052 . S
Co117 O125 2.135 . S
O118 Co117 2.061 1_655 S
O118 C121 1.235 . S
C119 O122 1.238 . S
C119 O123 1.241 . S
C120 O113 1.247 . S
C120 O114 1.261 . S
C121 O116 1.259 . S
C121 O118 1.235 . S
O122 Co112 2.021 . S
O122 C119 1.238 . S
O123 Co117 2.052 . S
O123 C119 1.241 . S
O124 Co112 2.137 . S
O124 C115 1.247 . S
O125 Co112 2.244 . S
O125 C115 1.272 . S
O125 Co117 2.135 . S
Co126 O127 2.216 . S
Co126 O128 2.091 . S
Co126 O130 2.004 . S
Co126 O136 2.021 . S
Co126 O138 2.137 . S
Co126 O139 2.244 . S
O127 Co126 2.216 . S
O127 C134 1.247 . S
O128 Co126 2.091 . S
O128 C134 1.261 . S
C129 O138 1.247 . S
C129 O139 1.272 . S
O130 Co126 2.004 . S
O130 C135 1.259 . S
Co131 O132 2.061 . S
Co131 O137 2.052 . S
Co131 O139 2.135 . S
O132 Co131 2.061 . S
O132 C135 1.235 . S
C133 O136 1.238 . S
C133 O137 1.241 . S
C134 O127 1.247 . S
C134 O128 1.261 . S
C135 O130 1.259 . S
C135 O132 1.235 . S
O136 Co126 2.021 . S
O136 C133 1.238 . S
O137 Co131 2.052 . S
O137 C133 1.241 . S
O138 Co126 2.137 . S
O138 C129 1.247 . S
O139 Co126 2.244 . S
O139 C129 1.272 . S
O139 Co131 2.135 . S
Co140 O141 2.216 . S
Co140 O142 2.091 . S
Co140 O144 2.004 1_545 S
Co140 O150 2.021 . S
Co140 O152 2.137 . S
Co140 O153 2.244 . S
O141 Co140 2.216 . S
O141 C148 1.247 . S
O142 Co140 2.091 . S
O142 C148 1.261 . S
C143 O152 1.247 . S
C143 O153 1.272 . S
O144 Co140 2.004 1_565 S
O144 C149 1.259 . S
Co145 O146 2.061 1_545 S
Co145 O151 2.052 . S
Co145 O153 2.135 . S
O146 Co145 2.061 1_565 S
O146 C149 1.235 . S
C147 O150 1.238 . S
C147 O151 1.241 . S
C148 O141 1.247 . S
C148 O142 1.261 . S
C149 O144 1.259 . S
C149 O146 1.235 . S
O150 Co140 2.021 . S
O150 C147 1.238 . S
O151 Co145 2.052 . S
O151 C147 1.241 . S
O152 Co140 2.137 . S
O152 C143 1.247 . S
O153 Co140 2.244 . S
O153 C143 1.272 . S
O153 Co145 2.135 . S
Co154 O155 2.216 . S
Co154 O156 2.091 . S
Co154 O158 2.004 1_655 S
Co154 O164 2.021 . S
Co154 O166 2.137 . S
Co154 O167 2.244 . S
O155 Co154 2.216 . S
O155 C162 1.247 . S
O156 Co154 2.091 . S
O156 C162 1.261 . S
C157 O166 1.247 . S
C157 O167 1.272 . S
O158 Co154 2.004 1_455 S
O158 C163 1.259 . S
Co159 O160 2.045 1_655 S
Co159 O165 2.071 . S
Co159 O167 2.162 . S
O160 Co159 2.045 1_455 S
O160 C163 1.235 . S
C161 O164 1.238 . S
C161 O165 1.241 . S
C162 O155 1.247 . S
C162 O156 1.261 . S
C163 O158 1.259 . S
C163 O160 1.235 . S
O164 Co154 2.021 . S
O164 C161 1.238 . S
O165 Co159 2.071 . S
O165 C161 1.241 . S
O166 Co154 2.137 . S
O166 C157 1.247 . S
O167 Co154 2.244 . S
O167 C157 1.272 . S
O167 Co159 2.162 . S
Co168 O169 2.216 . S
Co168 O170 2.091 . S
Co168 O172 2.004 . S
Co168 O178 2.021 . S
Co168 O180 2.137 . S
Co168 O181 2.244 . S
O169 Co168 2.216 . S
O169 C176 1.247 . S
O170 Co168 2.091 . S
O170 C176 1.261 . S
C171 O180 1.247 . S
C171 O181 1.272 . S
O172 Co168 2.004 . S
O172 C177 1.259 . S
Co173 O174 2.061 . S
Co173 O179 2.052 . S
Co173 O181 2.135 . S
O174 Co173 2.061 . S
O174 C177 1.235 . S
C175 O178 1.238 . S
C175 O179 1.241 . S
C176 O169 1.247 . S
C176 O170 1.261 . S
C177 O172 1.259 . S
C177 O174 1.235 . S
O178 Co168 2.021 . S
O178 C175 1.238 . S
O179 Co173 2.052 . S
O179 C175 1.241 . S
O180 Co168 2.137 . S
O180 C171 1.247 . S
O181 Co168 2.244 . S
O181 C171 1.272 . S
O181 Co173 2.135 . S
Co182 O183 2.216 . S
Co182 O184 2.091 . S
Co182 O186 2.004 . S
Co182 O192 2.021 . S
Co182 O194 2.137 . S
Co182 O195 2.244 . S
O183 Co182 2.216 . S
O183 C190 1.247 . S
O184 Co182 2.091 . S
O184 C190 1.261 . S
C185 O194 1.247 . S
C185 O195 1.272 . S
O186 Co182 2.004 . S
O186 C191 1.259 . S
Co187 O188 2.061 . S
Co187 O193 2.052 . S
Co187 O195 2.135 . S
O188 Co187 2.061 . S
O188 C191 1.235 . S
C189 O192 1.238 . S
C189 O193 1.241 . S
C190 O183 1.247 . S
C190 O184 1.261 . S
C191 O186 1.259 . S
C191 O188 1.235 . S
O192 Co182 2.021 . S
O192 C189 1.238 . S
O193 Co187 2.052 . S
O193 C189 1.241 . S
O194 Co182 2.137 . S
O194 C185 1.247 . S
O195 Co182 2.244 . S
O195 C185 1.272 . S
O195 Co187 2.135 . S
Co196 O197 2.216 . S
Co196 O198 2.091 . S
Co196 O200 2.004 . S
Co196 O206 2.021 . S
Co196 O208 2.137 . S
Co196 O209 2.244 . S
O197 Co196 2.216 . S
O197 C204 1.247 . S
O198 Co196 2.091 . S
O198 C204 1.261 . S
C199 O208 1.247 . S
C199 O209 1.272 . S
O200 Co196 2.004 . S
O200 C205 1.259 . S
Co201 O202 2.061 . S
Co201 O207 2.052 . S
Co201 O209 2.135 . S
O202 Co201 2.061 . S
O202 C205 1.235 . S
C203 O206 1.238 . S
C203 O207 1.241 . S
C204 O197 1.247 . S
C204 O198 1.261 . S
C205 O200 1.259 . S
C205 O202 1.235 . S
O206 Co196 2.021 . S
O206 C203 1.238 . S
O207 Co201 2.052 . S
O207 C203 1.241 . S
O208 Co196 2.137 . S
O208 C199 1.247 . S
O209 Co196 2.244 . S
O209 C199 1.272 . S
O209 Co201 2.135 . S
Co210 O211 2.216 . S
Co210 O212 2.091 . S
Co210 O214 2.004 . S
Co210 O220 2.021 . S
Co210 O222 2.137 . S
Co210 O223 2.244 . S
O211 Co210 2.216 . S
O211 C218 1.247 . S
O212 Co210 2.091 . S
O212 C218 1.261 . S
C213 O222 1.247 . S
C213 O223 1.272 . S
O214 Co210 2.004 . S
O214 C219 1.259 . S
Co215 O216 2.061 . S
Co215 O221 2.052 . S
Co215 O223 2.135 . S
O216 Co215 2.061 . S
O216 C219 1.235 . S
C217 O220 1.238 . S
C217 O221 1.241 . S
C218 O211 1.247 . S
C218 O212 1.261 . S
C219 O214 1.259 . S
C219 O216 1.235 . S
O220 Co210 2.021 . S
O220 C217 1.238 . S
O221 Co215 2.052 . S
O221 C217 1.241 . S
O222 Co210 2.137 . S
O222 C213 1.247 . S
O223 Co210 2.244 . S
O223 C213 1.272 . S
O223 Co215 2.135 . S
Co224 O225 2.216 . S
Co224 O226 2.091 . S
Co224 O228 2.004 . S
Co224 O234 2.021 . S
Co224 O236 2.137 . S
Co224 O237 2.244 . S
O225 Co224 2.216 . S
O225 C232 1.247 . S
O226 Co224 2.091 . S
O226 C232 1.261 . S
C227 O236 1.247 . S
C227 O237 1.272 . S
O228 Co224 2.004 . S
O228 C233 1.259 . S
Co229 O230 2.061 . S
Co229 O235 2.052 . S
Co229 O237 2.135 . S
O230 Co229 2.061 . S
O230 C233 1.235 . S
C231 O234 1.238 . S
C231 O235 1.241 . S
C232 O225 1.247 . S
C232 O226 1.261 . S
C233 O228 1.259 . S
C233 O230 1.235 . S
O234 Co224 2.021 . S
O234 C231 1.238 . S
O235 Co229 2.052 . S
O235 C231 1.241 . S
O236 Co224 2.137 . S
O236 C227 1.247 . S
O237 Co224 2.244 . S
O237 C227 1.272 . S
O237 Co229 2.135 . S
Co238 O239 2.216 . S
Co238 O240 2.091 . S
Co238 O242 2.004 . S
Co238 O248 2.021 . S
Co238 O250 2.137 . S
Co238 O251 2.244 . S
O239 Co238 2.216 . S
O239 C246 1.247 . S
O240 Co238 2.091 . S
O240 C246 1.261 . S
C241 O250 1.247 . S
C241 O251 1.272 . S
O242 Co238 2.004 . S
O242 C247 1.259 . S
Co243 O244 2.061 . S
Co243 O249 2.052 . S
Co243 O251 2.135 . S
O244 Co243 2.061 . S
O244 C247 1.235 . S
C245 O248 1.238 . S
C245 O249 1.241 . S
C246 O239 1.247 . S
C246 O240 1.261 . S
C247 O242 1.259 . S
C247 O244 1.235 . S
O248 Co238 2.021 . S
O248 C245 1.238 . S
O249 Co243 2.052 . S
O249 C245 1.241 . S
O250 Co238 2.137 . S
O250 C241 1.247 . S
O251 Co238 2.244 . S
O251 C241 1.272 . S
O251 Co243 2.135 . S
Co252 O253 2.216 . S
Co252 O254 2.091 . S
Co252 O256 2.004 . S
Co252 O262 2.021 . S
Co252 O264 2.137 . S
Co252 O265 2.244 . S
O253 Co252 2.216 . S
O253 C260 1.247 . S
O254 Co252 2.091 . S
O254 C260 1.261 . S
C255 O264 1.247 . S
C255 O265 1.272 . S
O256 Co252 2.004 . S
O256 C261 1.259 . S
Co257 O258 2.061 . S
Co257 O263 2.052 . S
Co257 O265 2.135 . S
O258 Co257 2.061 . S
O258 C261 1.235 . S
C259 O262 1.238 . S
C259 O263 1.241 . S
C260 O253 1.247 . S
C260 O254 1.261 . S
C261 O256 1.259 . S
C261 O258 1.235 . S
O262 Co252 2.021 . S
O262 C259 1.238 . S
O263 Co257 2.052 . S
O263 C259 1.241 . S
O264 Co252 2.137 . S
O264 C255 1.247 . S
O265 Co252 2.244 . S
O265 C255 1.272 . S
O265 Co257 2.135 . S
Co266 O267 2.216 . S
Co266 O268 2.091 . S
Co266 O270 2.004 . S
Co266 O276 2.021 . S
Co266 O278 2.137 . S
Co266 O279 2.244 . S
O267 Co266 2.216 . S
O267 C274 1.247 . S
O268 Co266 2.091 . S
O268 C274 1.261 . S
C269 O278 1.247 . S
C269 O279 1.272 . S
O270 Co266 2.004 . S
O270 C275 1.259 . S
Co271 O272 2.061 . S
Co271 O277 2.052 . S
Co271 O279 2.135 . S
O272 Co271 2.061 . S
O272 C275 1.235 . S
C273 O276 1.238 . S
C273 O277 1.241 . S
C274 O267 1.247 . S
C274 O268 1.261 . S
C275 O270 1.259 . S
C275 O272 1.235 . S
O276 Co266 2.021 . S
O276 C273 1.238 . S
O277 Co271 2.052 . S
O277 C273 1.241 . S
O278 Co266 2.137 . S
O278 C269 1.247 . S
O279 Co266 2.244 . S
O279 C269 1.272 . S
O279 Co271 2.135 . S
Co280 O281 2.216 . S
Co280 O282 2.091 . S
Co280 O284 2.004 . S
Co280 O290 2.021 . S
Co280 O292 2.137 . S
Co280 O293 2.244 . S
O281 Co280 2.216 . S
O281 C288 1.247 . S
O282 Co280 2.091 . S
O282 C288 1.261 . S
C283 O292 1.247 . S
C283 O293 1.272 . S
O284 Co280 2.004 . S
O284 C289 1.259 . S
Co285 O286 2.061 . S
Co285 O291 2.052 . S
Co285 O293 2.135 . S
O286 Co285 2.061 . S
O286 C289 1.235 . S
C287 O290 1.238 . S
C287 O291 1.241 . S
C288 O281 1.247 . S
C288 O282 1.261 . S
C289 O284 1.259 . S
C289 O286 1.235 . S
O290 Co280 2.021 . S
O290 C287 1.238 . S
O291 Co285 2.052 . S
O291 C287 1.241 . S
O292 Co280 2.137 . S
O292 C283 1.247 . S
O293 Co280 2.244 . S
O293 C283 1.272 . S
O293 Co285 2.135 . S
Co294 O295 2.216 . S
Co294 O296 2.091 1_554 S
Co294 O298 2.004 1_554 S
Co294 O304 2.021 . S
Co294 O306 2.137 1_554 S
Co294 O307 2.244 . S
O295 Co294 2.216 . S
O295 C302 1.235 1_554 S
O296 Co294 2.091 1_556 S
O296 C302 1.269 . S
C297 O306 1.247 1_554 S
C297 O307 1.272 . S
O298 Co294 2.004 1_556 S
O298 C303 1.259 1_556 S
Co299 O300 2.061 . S
Co299 O305 2.052 . S
Co299 O307 2.135 . S
O300 Co299 2.061 . S
O300 C303 1.235 . S
C301 O304 1.238 . S
C301 O305 1.241 . S
C302 O295 1.235 1_556 S
C302 O296 1.269 . S
C303 O298 1.259 1_554 S
C303 O300 1.235 . S
O304 Co294 2.021 . S
O304 C301 1.238 . S
O305 Co299 2.052 . S
O305 C301 1.241 . S
O306 Co294 2.137 1_556 S
O306 C297 1.247 1_556 S
O307 Co294 2.244 . S
O307 C297 1.272 . S
O307 Co299 2.135 . S
Co308 O309 2.216 . S
Co308 O310 2.091 1_554 S
Co308 O312 2.004 1_554 S
Co308 O318 2.021 . S
Co308 O320 2.137 1_554 S
Co308 O321 2.244 . S
O309 Co308 2.216 . S
O309 C316 1.235 1_554 S
O310 Co308 2.091 1_556 S
O310 C316 1.269 . S
C311 O320 1.247 1_554 S
C311 O321 1.272 . S
O312 Co308 2.004 1_556 S
O312 C317 1.259 1_556 S
Co313 O314 2.061 . S
Co313 O319 2.052 . S
Co313 O321 2.135 . S
O314 Co313 2.061 . S
O314 C317 1.235 . S
C315 O318 1.238 . S
C315 O319 1.241 . S
C316 O309 1.235 1_556 S
C316 O310 1.269 . S
C317 O312 1.259 1_554 S
C317 O314 1.235 . S
O318 Co308 2.021 . S
O318 C315 1.238 . S
O319 Co313 2.052 . S
O319 C315 1.241 . S
O320 Co308 2.137 1_556 S
O320 C311 1.247 1_556 S
O321 Co308 2.244 . S
O321 C311 1.272 . S
O321 Co313 2.135 . S
Co322 O323 2.216 . S
Co322 O324 2.091 1_554 S
Co322 O326 2.004 1_554 S
Co322 O332 2.021 . S
Co322 O334 2.137 1_554 S
Co322 O335 2.244 . S
O323 Co322 2.216 . S
O323 C330 1.235 1_554 S
O324 Co322 2.091 1_556 S
O324 C330 1.269 . S
C325 O334 1.247 1_554 S
C325 O335 1.272 . S
O326 Co322 2.004 1_556 S
O326 C331 1.259 1_556 S
Co327 O328 2.061 . S
Co327 O333 2.052 . S
Co327 O335 2.135 . S
O328 Co327 2.061 . S
O328 C331 1.235 . S
C329 O332 1.238 . S
C329 O333 1.241 . S
C330 O323 1.235 1_556 S
C330 O324 1.269 . S
C331 O326 1.259 1_554 S
C331 O328 1.235 . S
O332 Co322 2.021 . S
O332 C329 1.238 . S
O333 Co327 2.052 . S
O333 C329 1.241 . S
O334 Co322 2.137 1_556 S
O334 C325 1.247 1_556 S
O335 Co322 2.244 . S
O335 C325 1.272 . S
O335 Co327 2.135 . S
Co336 O337 2.216 . S
Co336 O338 2.091 . S
Co336 O340 2.004 . S
Co336 O346 2.021 . S
Co336 O348 2.137 . S
Co336 O349 2.244 . S
O337 Co336 2.216 . S
O337 C344 1.247 . S
O338 Co336 2.091 . S
O338 C344 1.261 . S
C339 O348 1.247 . S
C339 O349 1.272 . S
O340 Co336 2.004 . S
O340 C345 1.259 . S
Co341 O342 2.061 . S
Co341 O347 2.052 . S
Co341 O349 2.135 . S
O342 Co341 2.061 . S
O342 C345 1.235 . S
C343 O346 1.238 . S
C343 O347 1.241 . S
C344 O337 1.247 . S
C344 O338 1.261 . S
C345 O340 1.259 . S
C345 O342 1.235 . S
O346 Co336 2.021 . S
O346 C343 1.238 . S
O347 Co341 2.052 . S
O347 C343 1.241 . S
O348 Co336 2.137 . S
O348 C339 1.247 . S
O349 Co336 2.244 . S
O349 C339 1.272 . S
O349 Co341 2.135 . S
Co350 O351 2.216 . S
Co350 O352 2.091 . S
Co350 O354 2.004 . S
Co350 O360 2.021 . S
Co350 O362 2.137 . S
Co350 O363 2.244 . S
O351 Co350 2.216 . S
O351 C358 1.247 . S
O352 Co350 2.091 . S
O352 C358 1.261 . S
C353 O362 1.247 . S
C353 O363 1.272 . S
O354 Co350 2.004 . S
O354 C359 1.259 . S
Co355 O356 2.061 . S
Co355 O361 2.052 . S
Co355 O363 2.135 . S
O356 Co355 2.061 . S
O356 C359 1.235 . S
C357 O360 1.238 . S
C357 O361 1.241 . S
C358 O351 1.247 . S
C358 O352 1.261 . S
C359 O354 1.259 . S
C359 O356 1.235 . S
O360 Co350 2.021 . S
O360 C357 1.238 . S
O361 Co355 2.052 . S
O361 C357 1.241 . S
O362 Co350 2.137 . S
O362 C353 1.247 . S
O363 Co350 2.244 . S
O363 C353 1.272 . S
O363 Co355 2.135 . S
Co364 O365 2.216 . S
Co364 O366 2.091 . S
Co364 O368 2.004 . S
Co364 O374 2.021 . S
Co364 O376 2.137 . S
Co364 O377 2.244 . S
O365 Co364 2.216 . S
O365 C372 1.247 . S
O366 Co364 2.091 . S
O366 C372 1.261 . S
C367 O376 1.247 . S
C367 O377 1.272 . S
O368 Co364 2.004 . S
O368 C373 1.259 . S
Co369 O370 2.061 . S
Co369 O375 2.052 . S
Co369 O377 2.135 . S
O370 Co369 2.061 . S
O370 C373 1.235 . S
C371 O374 1.238 . S
C371 O375 1.241 . S
C372 O365 1.247 . S
C372 O366 1.261 . S
C373 O368 1.259 . S
C373 O370 1.235 . S
O374 Co364 2.021 . S
O374 C371 1.238 . S
O375 Co369 2.052 . S
O375 C371 1.241 . S
O376 Co364 2.137 . S
O376 C367 1.247 . S
O377 Co364 2.244 . S
O377 C367 1.272 . S
O377 Co369 2.135 . S
Co378 O379 2.216 . S
Co378 O380 2.091 1_556 S
Co378 O382 2.006 . S
Co378 O388 2.021 1_556 S
Co378 O390 2.137 . S
Co378 O391 2.244 . S
O379 Co378 2.216 . S
O379 C386 1.193 1_556 S
O380 Co378 2.091 1_554 S
O380 C386 1.294 . S
C381 O390 1.247 . S
C381 O391 1.272 . S
O382 Co378 2.006 . S
O382 C387 1.260 . S
Co383 O384 2.061 . S
Co383 O389 2.052 . S
Co383 O391 2.135 . S
O384 Co383 2.061 . S
O384 C387 1.235 . S
C385 O388 1.238 1_556 S
C385 O389 1.241 . S
C386 O379 1.193 1_554 S
C386 O380 1.294 . S
C387 O382 1.260 . S
C387 O384 1.235 . S
O388 Co378 2.021 1_554 S
O388 C385 1.238 1_554 S
O389 Co383 2.052 . S
O389 C385 1.241 . S
O390 Co378 2.137 . S
O390 C381 1.247 . S
O391 Co378 2.244 . S
O391 C381 1.272 . S
O391 Co383 2.135 . S
Co392 O393 2.216 . S
Co392 O394 2.091 1_556 S
Co392 O396 2.006 . S
Co392 O402 2.021 1_556 S
Co392 O404 2.137 . S
Co392 O405 2.244 . S
O393 Co392 2.216 . S
O393 C400 1.192 1_556 S
O394 Co392 2.091 1_554 S
O394 C400 1.295 . S
C395 O404 1.247 . S
C395 O405 1.272 . S
O396 Co392 2.006 . S
O396 C401 1.260 . S
Co397 O398 2.061 . S
Co397 O403 2.052 . S
Co397 O405 2.135 . S
O398 Co397 2.061 . S
O398 C401 1.235 . S
C399 O402 1.238 1_556 S
C399 O403 1.241 . S
C400 O393 1.192 1_554 S
C400 O394 1.295 . S
C401 O396 1.260 . S
C401 O398 1.235 . S
O402 Co392 2.021 1_554 S
O402 C399 1.238 1_554 S
O403 Co397 2.052 . S
O403 C399 1.241 . S
O404 Co392 2.137 . S
O404 C395 1.247 . S
O405 Co392 2.244 . S
O405 C395 1.272 . S
O405 Co397 2.135 . S
Co406 O407 2.216 . S
Co406 O408 2.091 1_556 S
Co406 O410 2.006 . S
Co406 O416 2.021 1_556 S
Co406 O418 2.137 . S
Co406 O419 2.244 . S
O407 Co406 2.216 . S
O407 C414 1.193 1_556 S
O408 Co406 2.091 1_554 S
O408 C414 1.294 . S
C409 O418 1.247 . S
C409 O419 1.272 . S
O410 Co406 2.006 . S
O410 C415 1.260 . S
Co411 O412 2.061 . S
Co411 O417 2.052 . S
Co411 O419 2.135 . S
O412 Co411 2.061 . S
O412 C415 1.235 . S
C413 O416 1.238 1_556 S
C413 O417 1.241 . S
C414 O407 1.193 1_554 S
C414 O408 1.294 . S
C415 O410 1.260 . S
C415 O412 1.235 . S
O416 Co406 2.021 1_554 S
O416 C413 1.238 1_554 S
O417 Co411 2.052 . S
O417 C413 1.241 . S
O418 Co406 2.137 . S
O418 C409 1.247 . S
O419 Co406 2.244 . S
O419 C409 1.272 . S
O419 Co411 2.135 . S
Co420 O421 2.216 . S
Co420 O422 2.091 . S
Co420 O424 2.004 . S
Co420 O430 2.021 . S
Co420 O432 2.137 . S
Co420 O433 2.244 . S
O421 Co420 2.216 . S
O421 C428 1.247 . S
O422 Co420 2.091 . S
O422 C428 1.261 . S
C423 O432 1.247 . S
C423 O433 1.272 . S
O424 Co420 2.004 . S
O424 C429 1.259 . S
Co425 O426 2.061 . S
Co425 O431 2.052 . S
Co425 O433 2.135 . S
O426 Co425 2.061 . S
O426 C429 1.235 . S
C427 O430 1.238 . S
C427 O431 1.241 . S
C428 O421 1.247 . S
C428 O422 1.261 . S
C429 O424 1.259 . S
C429 O426 1.235 . S
O430 Co420 2.021 . S
O430 C427 1.238 . S
O431 Co425 2.052 . S
O431 C427 1.241 . S
O432 Co420 2.137 . S
O432 C423 1.247 . S
O433 Co420 2.244 . S
O433 C423 1.272 . S
O433 Co425 2.135 . S
Co434 O435 2.216 . S
Co434 O436 2.091 . S
Co434 O438 2.004 . S
Co434 O444 2.021 . S
Co434 O446 2.137 . S
Co434 O447 2.244 . S
O435 Co434 2.216 . S
O435 C442 1.247 . S
O436 Co434 2.091 . S
O436 C442 1.261 . S
C437 O446 1.247 . S
C437 O447 1.272 . S
O438 Co434 2.004 . S
O438 C443 1.259 . S
Co439 O440 2.061 . S
Co439 O445 2.052 . S
Co439 O447 2.135 . S
O440 Co439 2.061 . S
O440 C443 1.235 . S
C441 O444 1.238 . S
C441 O445 1.241 . S
C442 O435 1.247 . S
C442 O436 1.261 . S
C443 O438 1.259 . S
C443 O440 1.235 . S
O444 Co434 2.021 . S
O444 C441 1.238 . S
O445 Co439 2.052 . S
O445 C441 1.241 . S
O446 Co434 2.137 . S
O446 C437 1.247 . S
O447 Co434 2.244 . S
O447 C437 1.272 . S
O447 Co439 2.135 . S
Co448 O449 2.216 . S
Co448 O450 2.091 . S
Co448 O452 2.004 . S
Co448 O458 2.021 . S
Co448 O460 2.137 . S
Co448 O461 2.244 . S
O449 Co448 2.216 . S
O449 C456 1.247 . S
O450 Co448 2.091 . S
O450 C456 1.261 . S
C451 O460 1.247 . S
C451 O461 1.272 . S
O452 Co448 2.004 . S
O452 C457 1.259 . S
Co453 O454 2.061 . S
Co453 O459 2.052 . S
Co453 O461 2.135 . S
O454 Co453 2.061 . S
O454 C457 1.235 . S
C455 O458 1.238 . S
C455 O459 1.241 . S
C456 O449 1.247 . S
C456 O450 1.261 . S
C457 O452 1.259 . S
C457 O454 1.235 . S
O458 Co448 2.021 . S
O458 C455 1.238 . S
O459 Co453 2.052 . S
O459 C455 1.241 . S
O460 Co448 2.137 . S
O460 C451 1.247 . S
O461 Co448 2.244 . S
O461 C451 1.272 . S
O461 Co453 2.135 . S
Co462 O463 2.216 . S
Co462 O464 2.091 . S
Co462 O466 2.004 . S
Co462 O472 2.021 . S
Co462 O474 2.137 . S
Co462 O475 2.244 . S
O463 Co462 2.216 . S
O463 C470 1.247 . S
O464 Co462 2.091 . S
O464 C470 1.261 . S
C465 O474 1.247 . S
C465 O475 1.272 . S
O466 Co462 2.004 . S
O466 C471 1.259 . S
Co467 O468 2.061 . S
Co467 O473 2.052 . S
Co467 O475 2.135 . S
O468 Co467 2.061 . S
O468 C471 1.235 . S
C469 O472 1.238 . S
C469 O473 1.241 . S
C470 O463 1.247 . S
C470 O464 1.261 . S
C471 O466 1.259 . S
C471 O468 1.235 . S
O472 Co462 2.021 . S
O472 C469 1.238 . S
O473 Co467 2.052 . S
O473 C469 1.241 . S
O474 Co462 2.137 . S
O474 C465 1.247 . S
O475 Co462 2.244 . S
O475 C465 1.272 . S
O475 Co467 2.135 . S
Co476 O477 2.216 . S
Co476 O478 2.091 . S
Co476 O480 2.004 . S
Co476 O486 2.021 . S
Co476 O488 2.137 . S
Co476 O489 2.244 . S
O477 Co476 2.216 . S
O477 C484 1.247 . S
O478 Co476 2.091 . S
O478 C484 1.261 . S
C479 O488 1.247 . S
C479 O489 1.272 . S
O480 Co476 2.004 . S
O480 C485 1.259 . S
Co481 O482 2.061 . S
Co481 O487 2.052 . S
Co481 O489 2.135 . S
O482 Co481 2.061 . S
O482 C485 1.235 . S
C483 O486 1.238 . S
C483 O487 1.241 . S
C484 O477 1.247 . S
C484 O478 1.261 . S
C485 O480 1.259 . S
C485 O482 1.235 . S
O486 Co476 2.021 . S
O486 C483 1.238 . S
O487 Co481 2.052 . S
O487 C483 1.241 . S
O488 Co476 2.137 . S
O488 C479 1.247 . S
O489 Co476 2.244 . S
O489 C479 1.272 . S
O489 Co481 2.135 . S
Co490 O491 2.216 . S
Co490 O492 2.091 . S
Co490 O494 2.004 . S
Co490 O500 2.021 . S
Co490 O502 2.137 . S
Co490 O503 2.244 . S
O491 Co490 2.216 . S
O491 C498 1.247 . S
O492 Co490 2.091 . S
O492 C498 1.261 . S
C493 O502 1.247 . S
C493 O503 1.272 . S
O494 Co490 2.004 . S
O494 C499 1.259 . S
Co495 O496 2.061 . S
Co495 O501 2.052 . S
Co495 O503 2.135 . S
O496 Co495 2.061 . S
O496 C499 1.235 . S
C497 O500 1.238 . S
C497 O501 1.241 . S
C498 O491 1.247 . S
C498 O492 1.261 . S
C499 O494 1.259 . S
C499 O496 1.235 . S
O500 Co490 2.021 . S
O500 C497 1.238 . S
O501 Co495 2.052 . S
O501 C497 1.241 . S
O502 Co490 2.137 . S
O502 C493 1.247 . S
O503 Co490 2.244 . S
O503 C493 1.272 . S
O503 Co495 2.135 . S
C504 C505 1.391 . S
C504 C506 1.394 . S
C504 H520 0.931 . S
C505 C504 1.391 . S
C505 C509 1.376 . S
C506 C504 1.394 . S
C506 C507 1.369 . S
C506 C510 1.531 . S
C507 C506 1.369 . S
C507 C508 1.410 . S
C507 C515 1.503 1_455 S
C508 C507 1.410 . S
C508 C509 1.392 . S
C508 C511 1.511 . S
C509 C505 1.376 . S
C509 C508 1.392 . S
C509 H521 0.929 . S
C510 C506 1.531 . S
C510 H522 0.960 . S
C510 H523 0.962 . S
C510 H524 0.960 . S
C511 C508 1.511 . S
C511 H525 0.961 . S
C511 H526 0.961 . S
C511 H527 0.961 . S
C512 C513 1.370 . S
C512 C514 1.363 . S
C512 H528 0.931 . S
C513 C512 1.370 . S
C513 C517 1.408 . S
C514 C512 1.363 . S
C514 C515 1.370 . S
C514 C518 1.524 1_655 S
C515 C507 1.503 1_655 S
C515 C514 1.370 . S
C515 C516 1.403 . S
C516 C515 1.403 . S
C516 C517 1.404 . S
C516 C519 1.539 . S
C517 C513 1.408 . S
C517 C516 1.404 . S
C517 H529 0.930 . S
C518 C514 1.524 1_455 S
C518 H530 0.956 . S
C518 H531 0.961 . S
C518 H532 0.961 1_455 S
C519 C516 1.539 . S
C519 H533 0.958 . S
C519 H534 0.961 . S
C519 H535 0.960 1_655 S
H520 C504 0.931 . S
H521 C509 0.929 . S
H522 C510 0.960 . S
H523 C510 0.962 . S
H524 C510 0.960 . S
H525 C511 0.961 . S
H526 C511 0.961 . S
H527 C511 0.961 . S
H528 C512 0.931 . S
H529 C517 0.930 . S
H530 C518 0.956 . S
H531 C518 0.961 . S
H532 C518 0.961 1_655 S
H533 C519 0.958 . S
H534 C519 0.961 . S
H535 C519 0.960 1_455 S
C536 C537 1.391 . S
C536 C538 1.394 . S
C536 H552 0.931 . S
C537 C536 1.391 . S
C537 C541 1.376 . S
C538 C536 1.394 . S
C538 C539 1.369 . S
C538 C542 1.531 . S
C539 C538 1.369 . S
C539 C540 1.410 . S
C539 C547 1.503 . S
C540 C539 1.410 . S
C540 C541 1.392 . S
C540 C543 1.511 . S
C541 C537 1.376 . S
C541 C540 1.392 . S
C541 H553 0.929 . S
C542 C538 1.531 . S
C542 H554 0.960 . S
C542 H555 0.962 . S
C542 H556 0.960 . S
C543 C540 1.511 . S
C543 H557 0.961 . S
C543 H558 0.961 . S
C543 H559 0.961 . S
C544 C545 1.370 . S
C544 C546 1.363 . S
C544 H560 0.931 . S
C545 C544 1.370 . S
C545 C549 1.408 . S
C546 C544 1.363 . S
C546 C547 1.370 . S
C546 C550 1.524 . S
C547 C539 1.503 . S
C547 C546 1.370 . S
C547 C548 1.403 . S
C548 C547 1.403 . S
C548 C549 1.404 . S
C548 C551 1.539 . S
C549 C545 1.408 . S
C549 C548 1.404 . S
C549 H561 0.930 . S
C550 C546 1.524 . S
C550 H562 0.956 . S
C550 H563 0.961 . S
C550 H564 0.961 . S
C551 C548 1.539 . S
C551 H565 0.958 . S
C551 H566 0.961 . S
C551 H567 0.960 . S
H552 C536 0.931 . S
H553 C541 0.929 . S
H554 C542 0.960 . S
H555 C542 0.962 . S
H556 C542 0.960 . S
H557 C543 0.961 . S
H558 C543 0.961 . S
H559 C543 0.961 . S
H560 C544 0.931 . S
H561 C549 0.930 . S
H562 C550 0.956 . S
H563 C550 0.961 . S
H564 C550 0.961 . S
H565 C551 0.958 . S
H566 C551 0.961 . S
H567 C551 0.960 . S
C568 C569 1.391 . S
C568 C570 1.394 . S
C568 H584 0.931 . S
C569 C568 1.391 . S
C569 C573 1.376 . S
C570 C568 1.394 . S
C570 C571 1.369 . S
C570 C574 1.531 . S
C571 C570 1.369 . S
C571 C572 1.410 . S
C571 C579 1.503 1_545 S
C572 C571 1.410 . S
C572 C573 1.392 . S
C572 C575 1.506 1_545 S
C573 C569 1.376 . S
C573 C572 1.392 . S
C573 H585 0.929 . S
C574 C570 1.531 . S
C574 H586 0.960 1_545 S
C574 H587 0.962 1_545 S
C574 H588 0.960 . S
C575 C572 1.506 1_565 S
C575 H589 0.925 1_565 S
C575 H590 0.990 . S
C575 H591 0.974 . S
C576 C577 1.370 . S
C576 C578 1.363 . S
C576 H592 0.931 . S
C577 C576 1.370 . S
C577 C581 1.408 . S
C578 C576 1.363 . S
C578 C579 1.370 . S
C578 C582 1.524 . S
C579 C571 1.503 1_565 S
C579 C578 1.370 . S
C579 C580 1.403 . S
C580 C579 1.403 . S
C580 C581 1.404 . S
C580 C583 1.539 . S
C581 C577 1.408 . S
C581 C580 1.404 . S
C581 H593 0.930 . S
C582 C578 1.524 . S
C582 H594 0.956 . S
C582 H595 0.961 . S
C582 H596 0.961 . S
C583 C580 1.539 . S
C583 H597 0.958 . S
C583 H598 0.961 . S
C583 H599 0.960 . S
H584 C568 0.931 . S
H585 C573 0.929 . S
H586 C574 0.960 1_565 S
H587 C574 0.962 1_565 S
H588 C574 0.960 . S
H589 C575 0.925 1_545 S
H590 C575 0.990 . S
H591 C575 0.974 . S
H592 C576 0.931 . S
H593 C581 0.930 . S
H594 C582 0.956 . S
H595 C582 0.961 . S
H596 C582 0.961 . S
H597 C583 0.958 . S
H598 C583 0.961 . S
H599 C583 0.960 . S
C600 C601 1.391 . S
C600 C602 1.394 . S
C600 H616 0.931 . S
C601 C600 1.391 . S
C601 C605 1.376 . S
C602 C600 1.394 . S
C602 C603 1.369 . S
C602 C606 1.531 . S
C603 C602 1.369 . S
C603 C604 1.410 . S
C603 C611 1.503 1_545 S
C604 C603 1.410 . S
C604 C605 1.392 . S
C604 C607 1.511 . S
C605 C601 1.376 . S
C605 C604 1.392 . S
C605 H617 0.929 . S
C606 C602 1.531 . S
C606 H618 0.960 . S
C606 H619 0.962 . S
C606 H620 0.960 . S
C607 C604 1.511 . S
C607 H621 0.961 . S
C607 H622 0.961 . S
C607 H623 0.961 . S
C608 C609 1.370 . S
C608 C610 1.363 . S
C608 H624 0.931 . S
C609 C608 1.370 . S
C609 C613 1.408 . S
C610 C608 1.363 . S
C610 C611 1.370 . S
C610 C614 1.524 1_565 S
C611 C603 1.503 1_565 S
C611 C610 1.370 . S
C611 C612 1.403 . S
C612 C611 1.403 . S
C612 C613 1.404 . S
C612 C615 1.539 . S
C613 C609 1.408 . S
C613 C612 1.404 . S
C613 H625 0.930 . S
C614 C610 1.524 1_545 S
C614 H626 0.956 . S
C614 H627 0.961 . S
C614 H628 0.961 1_545 S
C615 C612 1.539 . S
C615 H629 0.958 . S
C615 H630 0.961 . S
C615 H631 0.960 1_565 S
H616 C600 0.931 . S
H617 C605 0.929 . S
H618 C606 0.960 . S
H619 C606 0.962 . S
H620 C606 0.960 . S
H621 C607 0.961 . S
H622 C607 0.961 . S
H623 C607 0.961 . S
H624 C608 0.931 . S
H625 C613 0.930 . S
H626 C614 0.956 . S
H627 C614 0.961 . S
H628 C614 0.961 1_565 S
H629 C615 0.958 . S
H630 C615 0.961 . S
H631 C615 0.960 1_545 S
C632 C633 1.391 . S
C632 C634 1.394 . S
C632 H648 0.931 . S
C633 C632 1.391 . S
C633 C637 1.376 . S
C634 C632 1.394 . S
C634 C635 1.369 . S
C634 C638 1.531 . S
C635 C634 1.369 . S
C635 C636 1.410 . S
C635 C643 1.503 1_655 S
C636 C635 1.410 . S
C636 C637 1.392 . S
C636 C639 1.511 . S
C637 C633 1.376 . S
C637 C636 1.392 . S
C637 H649 0.929 . S
C638 C634 1.531 . S
C638 H650 0.960 . S
C638 H651 0.962 . S
C638 H652 0.960 . S
C639 C636 1.511 . S
C639 H653 0.961 . S
C639 H654 0.961 . S
C639 H655 0.961 . S
C640 C641 1.370 . S
C640 C642 1.363 . S
C640 H656 0.931 . S
C641 C640 1.370 . S
C641 C645 1.408 . S
C642 C640 1.363 . S
C642 C643 1.370 . S
C642 C646 1.524 1_455 S
C643 C635 1.503 1_455 S
C643 C642 1.370 . S
C643 C644 1.403 . S
C644 C643 1.403 . S
C644 C645 1.404 . S
C644 C647 1.539 . S
C645 C641 1.408 . S
C645 C644 1.404 . S
C645 H657 0.930 . S
C646 C642 1.524 1_655 S
C646 H658 0.956 . S
C646 H659 0.961 . S
C646 H660 0.961 1_655 S
C647 C644 1.539 . S
C647 H661 0.958 . S
C647 H662 0.961 . S
C647 H663 0.960 1_455 S
H648 C632 0.931 . S
H649 C637 0.929 . S
H650 C638 0.960 . S
H651 C638 0.962 . S
H652 C638 0.960 . S
H653 C639 0.961 . S
H654 C639 0.961 . S
H655 C639 0.961 . S
H656 C640 0.931 . S
H657 C645 0.930 . S
H658 C646 0.956 . S
H659 C646 0.961 . S
H660 C646 0.961 1_455 S
H661 C647 0.958 . S
H662 C647 0.961 . S
H663 C647 0.960 1_655 S
C664 C665 1.391 . S
C664 C666 1.394 . S
C664 H680 0.931 . S
C665 C664 1.391 . S
C665 C669 1.376 . S
C666 C664 1.394 . S
C666 C667 1.369 . S
C666 C670 1.531 . S
C667 C666 1.369 . S
C667 C668 1.410 . S
C667 C675 1.503 . S
C668 C667 1.410 . S
C668 C669 1.392 . S
C668 C671 1.511 . S
C669 C665 1.376 . S
C669 C668 1.392 . S
C669 H681 0.929 . S
C670 C666 1.531 . S
C670 H682 0.960 . S
C670 H683 0.962 . S
C670 H684 0.960 . S
C671 C668 1.511 . S
C671 H685 0.961 . S
C671 H686 0.961 . S
C671 H687 0.961 . S
C672 C673 1.370 . S
C672 C674 1.363 . S
C672 H688 0.931 . S
C673 C672 1.370 . S
C673 C677 1.408 . S
C674 C672 1.363 . S
C674 C675 1.370 . S
C674 C678 1.524 . S
C675 C667 1.503 . S
C675 C674 1.370 . S
C675 C676 1.403 . S
C676 C675 1.403 . S
C676 C677 1.404 . S
C676 C679 1.539 . S
C677 C673 1.408 . S
C677 C676 1.404 . S
C677 H689 0.930 . S
C678 C674 1.524 . S
C678 H690 0.956 . S
C678 H691 0.961 . S
C678 H692 0.961 . S
C679 C676 1.539 . S
C679 H693 0.958 . S
C679 H694 0.961 . S
C679 H695 0.960 . S
H680 C664 0.931 . S
H681 C669 0.929 . S
H682 C670 0.960 . S
H683 C670 0.962 . S
H684 C670 0.960 . S
H685 C671 0.961 . S
H686 C671 0.961 . S
H687 C671 0.961 . S
H688 C672 0.931 . S
H689 C677 0.930 . S
H690 C678 0.956 . S
H691 C678 0.961 . S
H692 C678 0.961 . S
H693 C679 0.958 . S
H694 C679 0.961 . S
H695 C679 0.960 . S
C696 C697 1.391 . S
C696 C698 1.394 . S
C696 H712 0.931 . S
C697 C696 1.391 . S
C697 C701 1.376 . S
C698 C696 1.394 . S
C698 C699 1.369 . S
C698 C702 1.531 . S
C699 C698 1.369 . S
C699 C700 1.410 . S
C699 C707 1.503 1_655 S
C700 C699 1.410 . S
C700 C701 1.392 . S
C700 C703 1.511 . S
C701 C697 1.376 . S
C701 C700 1.392 . S
C701 H713 0.929 . S
C702 C698 1.531 . S
C702 H714 0.960 . S
C702 H715 0.962 . S
C702 H716 0.960 . S
C703 C700 1.511 . S
C703 H717 0.961 . S
C703 H718 0.961 . S
C703 H719 0.961 . S
C704 C705 1.370 . S
C704 C706 1.363 . S
C704 H720 0.931 . S
C705 C704 1.370 . S
C705 C709 1.408 . S
C706 C704 1.363 . S
C706 C707 1.370 . S
C706 C710 1.524 1_455 S
C707 C699 1.503 1_455 S
C707 C706 1.370 . S
C707 C708 1.403 . S
C708 C707 1.403 . S
C708 C709 1.404 . S
C708 C711 1.539 . S
C709 C705 1.408 . S
C709 C708 1.404 . S
C709 H721 0.930 . S
C710 C706 1.524 1_655 S
C710 H722 0.956 . S
C710 H723 0.961 . S
C710 H724 0.961 1_655 S
C711 C708 1.539 . S
C711 H725 0.958 . S
C711 H726 0.961 . S
C711 H727 0.960 1_455 S
H712 C696 0.931 . S
H713 C701 0.929 . S
H714 C702 0.960 . S
H715 C702 0.962 . S
H716 C702 0.960 . S
H717 C703 0.961 . S
H718 C703 0.961 . S
H719 C703 0.961 . S
H720 C704 0.931 . S
H721 C709 0.930 . S
H722 C710 0.956 . S
H723 C710 0.961 . S
H724 C710 0.961 1_455 S
H725 C711 0.958 . S
H726 C711 0.961 . S
H727 C711 0.960 1_655 S
C728 C729 1.391 . S
C728 C730 1.394 . S
C728 H744 0.931 . S
C729 C728 1.391 . S
C729 C733 1.376 . S
C730 C728 1.394 . S
C730 C731 1.369 . S
C730 C734 1.531 . S
C731 C730 1.369 . S
C731 C732 1.410 . S
C731 C739 1.503 . S
C732 C731 1.410 . S
C732 C733 1.392 . S
C732 C735 1.511 . S
C733 C729 1.376 . S
C733 C732 1.392 . S
C733 H745 0.929 . S
C734 C730 1.531 . S
C734 H746 0.960 . S
C734 H747 0.962 . S
C734 H748 0.960 . S
C735 C732 1.511 . S
C735 H749 0.961 . S
C735 H750 0.961 . S
C735 H751 0.961 . S
C736 C737 1.370 . S
C736 C738 1.363 . S
C736 H752 0.931 . S
C737 C736 1.370 . S
C737 C741 1.408 . S
C738 C736 1.363 . S
C738 C739 1.370 . S
C738 C742 1.524 . S
C739 C731 1.503 . S
C739 C738 1.370 . S
C739 C740 1.403 . S
C740 C739 1.403 . S
C740 C741 1.404 . S
C740 C743 1.539 . S
C741 C737 1.408 . S
C741 C740 1.404 . S
C741 H753 0.930 . S
C742 C738 1.524 . S
C742 H754 0.956 . S
C742 H755 0.961 . S
C742 H756 0.961 . S
C743 C740 1.539 . S
C743 H757 0.958 . S
C743 H758 0.961 . S
C743 H759 0.960 . S
H744 C728 0.931 . S
H745 C733 0.929 . S
H746 C734 0.960 . S
H747 C734 0.962 . S
H748 C734 0.960 . S
H749 C735 0.961 . S
H750 C735 0.961 . S
H751 C735 0.961 . S
H752 C736 0.931 . S
H753 C741 0.930 . S
H754 C742 0.956 . S
H755 C742 0.961 . S
H756 C742 0.961 . S
H757 C743 0.958 . S
H758 C743 0.961 . S
H759 C743 0.960 . S
C760 C761 1.391 . S
C760 C762 1.394 . S
C760 H776 0.931 . S
C761 C760 1.391 . S
C761 C765 1.376 . S
C762 C760 1.394 . S
C762 C763 1.369 . S
C762 C766 1.531 1_565 S
C763 C762 1.369 . S
C763 C764 1.410 . S
C763 C771 1.503 1_565 S
C764 C763 1.410 . S
C764 C765 1.392 . S
C764 C767 1.511 . S
C765 C761 1.376 . S
C765 C764 1.392 . S
C765 H777 0.929 . S
C766 C762 1.531 1_545 S
C766 H778 0.960 . S
C766 H779 0.962 . S
C766 H780 0.960 1_545 S
C767 C764 1.511 . S
C767 H781 0.961 . S
C767 H782 0.961 1_565 S
C767 H783 0.961 . S
C768 C769 1.370 . S
C768 C770 1.363 . S
C768 H784 0.931 . S
C769 C768 1.370 . S
C769 C773 1.408 . S
C770 C768 1.363 . S
C770 C771 1.370 . S
C770 C774 1.524 . S
C771 C763 1.503 1_545 S
C771 C770 1.370 . S
C771 C772 1.403 . S
C772 C771 1.403 . S
C772 C773 1.404 . S
C772 C775 1.539 . S
C773 C769 1.408 . S
C773 C772 1.404 . S
C773 H785 0.930 . S
C774 C770 1.524 . S
C774 H786 0.956 . S
C774 H787 0.961 . S
C774 H788 0.961 . S
C775 C772 1.539 . S
C775 H789 0.958 . S
C775 H790 0.961 . S
C775 H791 0.960 . S
H776 C760 0.931 . S
H777 C765 0.929 . S
H778 C766 0.960 . S
H779 C766 0.962 . S
H780 C766 0.960 1_565 S
H781 C767 0.961 . S
H782 C767 0.961 1_545 S
H783 C767 0.961 . S
H784 C768 0.931 . S
H785 C773 0.930 . S
H786 C774 0.956 . S
H787 C774 0.961 . S
H788 C774 0.961 . S
H789 C775 0.958 . S
H790 C775 0.961 . S
H791 C775 0.960 . S
C792 C793 1.391 . S
C792 C794 1.394 . S
C792 H808 0.931 . S
C793 C792 1.391 . S
C793 C797 1.376 . S
C794 C792 1.394 . S
C794 C795 1.369 . S
C794 C798 1.531 1_545 S
C795 C794 1.369 . S
C795 C796 1.410 . S
C795 C803 1.503 1_545 S
C796 C795 1.410 . S
C796 C797 1.392 . S
C796 C799 1.511 . S
C797 C793 1.376 . S
C797 C796 1.392 . S
C797 H809 0.929 . S
C798 C794 1.531 1_565 S
C798 H810 0.960 . S
C798 H811 0.962 . S
C798 H812 0.960 1_565 S
C799 C796 1.511 . S
C799 H813 0.961 . S
C799 H814 0.961 1_545 S
C799 H815 0.961 . S
C800 C801 1.370 . S
C800 C802 1.363 . S
C800 H816 0.931 . S
C801 C800 1.370 . S
C801 C805 1.408 . S
C802 C800 1.363 . S
C802 C803 1.370 . S
C802 C806 1.524 . S
C803 C795 1.503 1_565 S
C803 C802 1.370 . S
C803 C804 1.403 . S
C804 C803 1.403 . S
C804 C805 1.404 . S
C804 C807 1.539 . S
C805 C801 1.408 . S
C805 C804 1.404 . S
C805 H817 0.930 . S
C806 C802 1.524 . S
C806 H818 0.956 . S
C806 H819 0.961 . S
C806 H820 0.961 . S
C807 C804 1.539 . S
C807 H821 0.958 . S
C807 H822 0.961 . S
C807 H823 0.960 . S
H808 C792 0.931 . S
H809 C797 0.929 . S
H810 C798 0.960 . S
H811 C798 0.962 . S
H812 C798 0.960 1_545 S
H813 C799 0.961 . S
H814 C799 0.961 1_565 S
H815 C799 0.961 . S
H816 C800 0.931 . S
H817 C805 0.930 . S
H818 C806 0.956 . S
H819 C806 0.961 . S
H820 C806 0.961 . S
H821 C807 0.958 . S
H822 C807 0.961 . S
H823 C807 0.960 . S
C824 C825 1.391 . S
C824 C826 1.394 . S
C824 H840 0.931 . S
C825 C824 1.391 . S
C825 C829 1.376 . S
C826 C824 1.394 . S
C826 C827 1.369 . S
C826 C830 1.531 . S
C827 C826 1.369 . S
C827 C828 1.410 . S
C827 C835 1.503 1_455 S
C828 C827 1.410 . S
C828 C829 1.392 . S
C828 C831 1.511 . S
C829 C825 1.376 . S
C829 C828 1.392 . S
C829 H841 0.929 . S
C830 C826 1.531 . S
C830 H842 0.960 . S
C830 H843 0.962 . S
C830 H844 0.960 . S
C831 C828 1.511 . S
C831 H845 0.961 . S
C831 H846 0.961 . S
C831 H847 0.961 . S
C832 C833 1.370 . S
C832 C834 1.363 . S
C832 H848 0.931 . S
C833 C832 1.370 . S
C833 C837 1.408 . S
C834 C832 1.363 . S
C834 C835 1.370 . S
C834 C838 1.524 1_655 S
C835 C827 1.503 1_655 S
C835 C834 1.370 . S
C835 C836 1.403 . S
C836 C835 1.403 . S
C836 C837 1.404 . S
C836 C839 1.539 . S
C837 C833 1.408 . S
C837 C836 1.404 . S
C837 H849 0.930 . S
C838 C834 1.524 1_455 S
C838 H850 0.956 . S
C838 H851 0.961 . S
C838 H852 0.961 1_455 S
C839 C836 1.539 . S
C839 H853 0.958 . S
C839 H854 0.961 . S
C839 H855 0.960 1_655 S
H840 C824 0.931 . S
H841 C829 0.929 . S
H842 C830 0.960 . S
H843 C830 0.962 . S
H844 C830 0.960 . S
H845 C831 0.961 . S
H846 C831 0.961 . S
H847 C831 0.961 . S
H848 C832 0.931 . S
H849 C837 0.930 . S
H850 C838 0.956 . S
H851 C838 0.961 . S
H852 C838 0.961 1_655 S
H853 C839 0.958 . S
H854 C839 0.961 . S
H855 C839 0.960 1_455 S
C856 C857 1.391 . S
C856 C858 1.394 . S
C856 H872 0.931 . S
C857 C856 1.391 . S
C857 C861 1.376 . S
C858 C856 1.394 . S
C858 C859 1.369 . S
C858 C862 1.531 . S
C859 C858 1.369 . S
C859 C860 1.410 . S
C859 C867 1.503 . S
C860 C859 1.410 . S
C860 C861 1.392 . S
C860 C863 1.511 . S
C861 C857 1.376 . S
C861 C860 1.392 . S
C861 H873 0.929 . S
C862 C858 1.531 . S
C862 H874 0.960 . S
C862 H875 0.962 . S
C862 H876 0.960 . S
C863 C860 1.511 . S
C863 H877 0.961 . S
C863 H878 0.961 . S
C863 H879 0.961 . S
C864 C865 1.370 . S
C864 C866 1.363 . S
C864 H880 0.931 . S
C865 C864 1.370 . S
C865 C869 1.408 . S
C866 C864 1.363 . S
C866 C867 1.370 . S
C866 C870 1.524 . S
C867 C859 1.503 . S
C867 C866 1.370 . S
C867 C868 1.403 . S
C868 C867 1.403 . S
C868 C869 1.404 . S
C868 C871 1.539 . S
C869 C865 1.408 . S
C869 C868 1.404 . S
C869 H881 0.930 . S
C870 C866 1.524 . S
C870 H882 0.956 . S
C870 H883 0.961 . S
C870 H884 0.961 . S
C871 C868 1.539 . S
C871 H885 0.958 . S
C871 H886 0.961 . S
C871 H887 0.960 . S
H872 C856 0.931 . S
H873 C861 0.929 . S
H874 C862 0.960 . S
H875 C862 0.962 . S
H876 C862 0.960 . S
H877 C863 0.961 . S
H878 C863 0.961 . S
H879 C863 0.961 . S
H880 C864 0.931 . S
H881 C869 0.930 . S
H882 C870 0.956 . S
H883 C870 0.961 . S
H884 C870 0.961 . S
H885 C871 0.958 . S
H886 C871 0.961 . S
H887 C871 0.960 . S
C888 C889 1.391 . S
C888 C890 1.394 . S
C888 H904 0.931 . S
C889 C888 1.391 . S
C889 C893 1.376 . S
C890 C888 1.394 . S
C890 C891 1.369 . S
C890 C894 1.531 . S
C891 C890 1.369 . S
C891 C892 1.410 . S
C891 C899 1.503 . S
C892 C891 1.410 . S
C892 C893 1.392 . S
C892 C895 1.511 . S
C893 C889 1.376 . S
C893 C892 1.392 . S
C893 H905 0.929 . S
C894 C890 1.531 . S
C894 H906 0.960 . S
C894 H907 0.962 . S
C894 H908 0.960 . S
C895 C892 1.511 . S
C895 H909 0.961 . S
C895 H910 0.961 . S
C895 H911 0.961 . S
C896 C897 1.370 . S
C896 C898 1.363 . S
C896 H912 0.931 . S
C897 C896 1.370 . S
C897 C901 1.408 . S
C898 C896 1.363 . S
C898 C899 1.370 . S
C898 C902 1.524 . S
C899 C891 1.503 . S
C899 C898 1.370 . S
C899 C900 1.403 . S
C900 C899 1.403 . S
C900 C901 1.404 . S
C900 C903 1.539 . S
C901 C897 1.408 . S
C901 C900 1.404 . S
C901 H913 0.930 . S
C902 C898 1.524 . S
C902 H914 0.956 . S
C902 H915 0.961 . S
C902 H916 0.961 . S
C903 C900 1.539 . S
C903 H917 0.958 . S
C903 H918 0.961 . S
C903 H919 0.960 . S
H904 C888 0.931 . S
H905 C893 0.929 . S
H906 C894 0.960 . S
H907 C894 0.962 . S
H908 C894 0.960 . S
H909 C895 0.961 . S
H910 C895 0.961 . S
H911 C895 0.961 . S
H912 C896 0.931 . S
H913 C901 0.930 . S
H914 C902 0.956 . S
H915 C902 0.961 . S
H916 C902 0.961 . S
H917 C903 0.958 . S
H918 C903 0.961 . S
H919 C903 0.960 . S
C920 C921 1.391 . S
C920 C922 1.394 . S
C920 H936 0.931 . S
C921 C920 1.391 . S
C921 C925 1.376 . S
C922 C920 1.394 . S
C922 C923 1.369 . S
C922 C926 1.531 . S
C923 C922 1.369 . S
C923 C924 1.410 . S
C923 C931 1.503 . S
C924 C923 1.410 . S
C924 C925 1.392 . S
C924 C927 1.511 . S
C925 C921 1.376 . S
C925 C924 1.392 . S
C925 H937 0.929 . S
C926 C922 1.531 . S
C926 H938 0.960 . S
C926 H939 0.962 . S
C926 H940 0.960 . S
C927 C924 1.511 . S
C927 H941 0.961 . S
C927 H942 0.961 . S
C927 H943 0.961 . S
C928 C929 1.370 . S
C928 C930 1.363 . S
C928 H944 0.931 . S
C929 C928 1.370 . S
C929 C933 1.408 . S
C930 C928 1.363 . S
C930 C931 1.370 . S
C930 C934 1.524 . S
C931 C923 1.503 . S
C931 C930 1.370 . S
C931 C932 1.403 . S
C932 C931 1.403 . S
C932 C933 1.404 . S
C932 C935 1.539 . S
C933 C929 1.408 . S
C933 C932 1.404 . S
C933 H945 0.930 . S
C934 C930 1.524 . S
C934 H946 0.956 . S
C934 H947 0.961 . S
C934 H948 0.961 . S
C935 C932 1.539 . S
C935 H949 0.958 . S
C935 H950 0.961 . S
C935 H951 0.960 . S
H936 C920 0.931 . S
H937 C925 0.929 . S
H938 C926 0.960 . S
H939 C926 0.962 . S
H940 C926 0.960 . S
H941 C927 0.961 . S
H942 C927 0.961 . S
H943 C927 0.961 . S
H944 C928 0.931 . S
H945 C933 0.930 . S
H946 C934 0.956 . S
H947 C934 0.961 . S
H948 C934 0.961 . S
H949 C935 0.958 . S
H950 C935 0.961 . S
H951 C935 0.960 . S
C952 C953 1.391 . S
C952 C954 1.394 . S
C952 H968 0.931 . S
C953 C952 1.391 . S
C953 C957 1.376 . S
C954 C952 1.394 . S
C954 C955 1.369 . S
C954 C958 1.531 . S
C955 C954 1.369 . S
C955 C956 1.410 . S
C955 C963 1.503 . S
C956 C955 1.410 . S
C956 C957 1.392 . S
C956 C959 1.511 . S
C957 C953 1.376 . S
C957 C956 1.392 . S
C957 H969 0.929 . S
C958 C954 1.531 . S
C958 H970 0.960 . S
C958 H971 0.962 . S
C958 H972 0.960 . S
C959 C956 1.511 . S
C959 H973 0.961 . S
C959 H974 0.961 . S
C959 H975 0.961 . S
C960 C961 1.370 . S
C960 C962 1.363 . S
C960 H976 0.931 . S
C961 C960 1.370 . S
C961 C965 1.408 . S
C962 C960 1.363 . S
C962 C963 1.370 . S
C962 C966 1.524 . S
C963 C955 1.503 . S
C963 C962 1.370 . S
C963 C964 1.403 . S
C964 C963 1.403 . S
C964 C965 1.404 . S
C964 C967 1.539 . S
C965 C961 1.408 . S
C965 C964 1.404 . S
C965 H977 0.930 . S
C966 C962 1.524 . S
C966 H978 0.956 . S
C966 H979 0.961 . S
C966 H980 0.961 . S
C967 C964 1.539 . S
C967 H981 0.958 . S
C967 H982 0.961 . S
C967 H983 0.960 . S
H968 C952 0.931 . S
H969 C957 0.929 . S
H970 C958 0.960 . S
H971 C958 0.962 . S
H972 C958 0.960 . S
H973 C959 0.961 . S
H974 C959 0.961 . S
H975 C959 0.961 . S
H976 C960 0.931 . S
H977 C965 0.930 . S
H978 C966 0.956 . S
H979 C966 0.961 . S
H980 C966 0.961 . S
H981 C967 0.958 . S
H982 C967 0.961 . S
H983 C967 0.960 . S
C984 C985 1.391 . S
C984 C986 1.394 . S
C984 H1000 0.931 . S
C985 C984 1.391 . S
C985 C989 1.376 . S
C986 C984 1.394 . S
C986 C987 1.369 . S
C986 C990 1.531 . S
C987 C986 1.369 . S
C987 C988 1.410 . S
C987 C995 1.503 . S
C988 C987 1.410 . S
C988 C989 1.392 . S
C988 C991 1.511 . S
C989 C985 1.376 . S
C989 C988 1.392 . S
C989 H1001 0.929 . S
C990 C986 1.531 . S
C990 H1002 0.960 . S
C990 H1003 0.962 . S
C990 H1004 0.960 . S
C991 C988 1.511 . S
C991 H1005 0.961 . S
C991 H1006 0.961 . S
C991 H1007 0.961 . S
C992 C993 1.370 . S
C992 C994 1.363 . S
C992 H1008 0.931 . S
C993 C992 1.370 . S
C993 C997 1.408 . S
C994 C992 1.363 . S
C994 C995 1.370 . S
C994 C998 1.524 . S
C995 C987 1.503 . S
C995 C994 1.370 . S
C995 C996 1.403 . S
C996 C995 1.403 . S
C996 C997 1.404 . S
C996 C999 1.539 . S
C997 C993 1.408 . S
C997 C996 1.404 . S
C997 H1009 0.930 . S
C998 C994 1.524 . S
C998 H1010 0.956 . S
C998 H1011 0.961 . S
C998 H1012 0.961 . S
C999 C996 1.539 . S
C999 H1013 0.958 . S
C999 H1014 0.961 . S
C999 H1015 0.960 . S
H1000 C984 0.931 . S
H1001 C989 0.929 . S
H1002 C990 0.960 . S
H1003 C990 0.962 . S
H1004 C990 0.960 . S
H1005 C991 0.961 . S
H1006 C991 0.961 . S
H1007 C991 0.961 . S
H1008 C992 0.931 . S
H1009 C997 0.930 . S
H1010 C998 0.956 . S
H1011 C998 0.961 . S
H1012 C998 0.961 . S
H1013 C999 0.958 . S
H1014 C999 0.961 . S
H1015 C999 0.960 . S
C1016 C1017 1.391 . S
C1016 C1018 1.394 . S
C1016 H1032 0.931 . S
C1017 C1016 1.391 . S
C1017 C1021 1.376 . S
C1018 C1016 1.394 . S
C1018 C1019 1.369 . S
C1018 C1022 1.531 . S
C1019 C1018 1.369 . S
C1019 C1020 1.410 . S
C1019 C1027 1.503 . S
C1020 C1019 1.410 . S
C1020 C1021 1.392 . S
C1020 C1023 1.511 . S
C1021 C1017 1.376 . S
C1021 C1020 1.392 . S
C1021 H1033 0.929 . S
C1022 C1018 1.531 . S
C1022 H1034 0.960 . S
C1022 H1035 0.962 . S
C1022 H1036 0.960 . S
C1023 C1020 1.511 . S
C1023 H1037 0.961 . S
C1023 H1038 0.961 . S
C1023 H1039 0.961 . S
C1024 C1025 1.370 . S
C1024 C1026 1.363 . S
C1024 H1040 0.931 . S
C1025 C1024 1.370 . S
C1025 C1029 1.408 . S
C1026 C1024 1.363 . S
C1026 C1027 1.370 . S
C1026 C1030 1.524 . S
C1027 C1019 1.503 . S
C1027 C1026 1.370 . S
C1027 C1028 1.403 . S
C1028 C1027 1.403 . S
C1028 C1029 1.404 . S
C1028 C1031 1.539 . S
C1029 C1025 1.408 . S
C1029 C1028 1.404 . S
C1029 H1041 0.930 . S
C1030 C1026 1.524 . S
C1030 H1042 0.956 . S
C1030 H1043 0.961 . S
C1030 H1044 0.961 . S
C1031 C1028 1.539 . S
C1031 H1045 0.958 . S
C1031 H1046 0.961 . S
C1031 H1047 0.960 . S
H1032 C1016 0.931 . S
H1033 C1021 0.929 . S
H1034 C1022 0.960 . S
H1035 C1022 0.962 . S
H1036 C1022 0.960 . S
H1037 C1023 0.961 . S
H1038 C1023 0.961 . S
H1039 C1023 0.961 . S
H1040 C1024 0.931 . S
H1041 C1029 0.930 . S
H1042 C1030 0.956 . S
H1043 C1030 0.961 . S
H1044 C1030 0.961 . S
H1045 C1031 0.958 . S
H1046 C1031 0.961 . S
H1047 C1031 0.960 . S
C1048 C1049 1.391 . S
C1048 C1050 1.394 . S
C1048 H1064 0.931 . S
C1049 C1048 1.391 . S
C1049 C1053 1.376 . S
C1050 C1048 1.394 . S
C1050 C1051 1.369 . S
C1050 C1054 1.531 . S
C1051 C1050 1.369 . S
C1051 C1052 1.410 . S
C1051 C1059 1.503 . S
C1052 C1051 1.410 . S
C1052 C1053 1.392 . S
C1052 C1055 1.511 . S
C1053 C1049 1.376 . S
C1053 C1052 1.392 . S
C1053 H1065 0.929 . S
C1054 C1050 1.531 . S
C1054 H1066 0.960 . S
C1054 H1067 0.962 . S
C1054 H1068 0.960 . S
C1055 C1052 1.511 . S
C1055 H1069 0.961 . S
C1055 H1070 0.961 . S
C1055 H1071 0.961 . S
C1056 C1057 1.370 . S
C1056 C1058 1.363 . S
C1056 H1072 0.931 . S
C1057 C1056 1.370 . S
C1057 C1061 1.408 . S
C1058 C1056 1.363 . S
C1058 C1059 1.370 . S
C1058 C1062 1.524 . S
C1059 C1051 1.503 . S
C1059 C1058 1.370 . S
C1059 C1060 1.403 . S
C1060 C1059 1.403 . S
C1060 C1061 1.404 . S
C1060 C1063 1.539 . S
C1061 C1057 1.408 . S
C1061 C1060 1.404 . S
C1061 H1073 0.930 . S
C1062 C1058 1.524 . S
C1062 H1074 0.956 . S
C1062 H1075 0.961 . S
C1062 H1076 0.961 . S
C1063 C1060 1.539 . S
C1063 H1077 0.958 . S
C1063 H1078 0.961 . S
C1063 H1079 0.960 . S
H1064 C1048 0.931 . S
H1065 C1053 0.929 . S
H1066 C1054 0.960 . S
H1067 C1054 0.962 . S
H1068 C1054 0.960 . S
H1069 C1055 0.961 . S
H1070 C1055 0.961 . S
H1071 C1055 0.961 . S
H1072 C1056 0.931 . S
H1073 C1061 0.930 . S
H1074 C1062 0.956 . S
H1075 C1062 0.961 . S
H1076 C1062 0.961 . S
H1077 C1063 0.958 . S
H1078 C1063 0.961 . S
H1079 C1063 0.960 . S
C1080 C1081 1.391 . S
C1080 C1082 1.394 . S
C1080 H1096 0.931 . S
C1081 C1080 1.391 . S
C1081 C1085 1.376 . S
C1082 C1080 1.394 . S
C1082 C1083 1.369 . S
C1082 C1086 1.531 . S
C1083 C1082 1.369 . S
C1083 C1084 1.410 . S
C1083 C1091 1.503 . S
C1084 C1083 1.410 . S
C1084 C1085 1.392 . S
C1084 C1087 1.511 . S
C1085 C1081 1.376 . S
C1085 C1084 1.392 . S
C1085 H1097 0.929 . S
C1086 C1082 1.531 . S
C1086 H1098 0.960 . S
C1086 H1099 0.962 . S
C1086 H1100 0.960 . S
C1087 C1084 1.511 . S
C1087 H1101 0.961 . S
C1087 H1102 0.961 . S
C1087 H1103 0.961 . S
C1088 C1089 1.370 . S
C1088 C1090 1.363 . S
C1088 H1104 0.931 . S
C1089 C1088 1.370 . S
C1089 C1093 1.408 . S
C1090 C1088 1.363 . S
C1090 C1091 1.370 . S
C1090 C1094 1.524 . S
C1091 C1083 1.503 . S
C1091 C1090 1.370 . S
C1091 C1092 1.403 . S
C1092 C1091 1.403 . S
C1092 C1093 1.404 . S
C1092 C1095 1.539 . S
C1093 C1089 1.408 . S
C1093 C1092 1.404 . S
C1093 H1105 0.930 . S
C1094 C1090 1.524 . S
C1094 H1106 0.956 . S
C1094 H1107 0.961 . S
C1094 H1108 0.961 . S
C1095 C1092 1.539 . S
C1095 H1109 0.958 . S
C1095 H1110 0.961 . S
C1095 H1111 0.960 . S
H1096 C1080 0.931 . S
H1097 C1085 0.929 . S
H1098 C1086 0.960 . S
H1099 C1086 0.962 . S
H1100 C1086 0.960 . S
H1101 C1087 0.961 . S
H1102 C1087 0.961 . S
H1103 C1087 0.961 . S
H1104 C1088 0.931 . S
H1105 C1093 0.930 . S
H1106 C1094 0.956 . S
H1107 C1094 0.961 . S
H1108 C1094 0.961 . S
H1109 C1095 0.958 . S
H1110 C1095 0.961 . S
H1111 C1095 0.960 . S
C1112 C1113 1.391 . S
C1112 C1114 1.394 . S
C1112 H1128 0.931 . S
C1113 C1112 1.391 . S
C1113 C1117 1.376 . S
C1114 C1112 1.394 . S
C1114 C1115 1.369 . S
C1114 C1118 1.531 . S
C1115 C1114 1.369 . S
C1115 C1116 1.410 . S
C1115 C1123 1.503 . S
C1116 C1115 1.410 . S
C1116 C1117 1.392 . S
C1116 C1119 1.511 . S
C1117 C1113 1.376 . S
C1117 C1116 1.392 . S
C1117 H1129 0.929 . S
C1118 C1114 1.531 . S
C1118 H1130 0.960 . S
C1118 H1131 0.962 . S
C1118 H1132 0.960 . S
C1119 C1116 1.511 . S
C1119 H1133 0.961 . S
C1119 H1134 0.961 . S
C1119 H1135 0.961 . S
C1120 C1121 1.370 . S
C1120 C1122 1.363 . S
C1120 H1136 0.931 . S
C1121 C1120 1.370 . S
C1121 C1125 1.408 . S
C1122 C1120 1.363 . S
C1122 C1123 1.370 . S
C1122 C1126 1.524 . S
C1123 C1115 1.503 . S
C1123 C1122 1.370 . S
C1123 C1124 1.403 . S
C1124 C1123 1.403 . S
C1124 C1125 1.404 . S
C1124 C1127 1.539 . S
C1125 C1121 1.408 . S
C1125 C1124 1.404 . S
C1125 H1137 0.930 . S
C1126 C1122 1.524 . S
C1126 H1138 0.956 . S
C1126 H1139 0.961 . S
C1126 H1140 0.961 . S
C1127 C1124 1.539 . S
C1127 H1141 0.958 . S
C1127 H1142 0.961 . S
C1127 H1143 0.960 . S
H1128 C1112 0.931 . S
H1129 C1117 0.929 . S
H1130 C1118 0.960 . S
H1131 C1118 0.962 . S
H1132 C1118 0.960 . S
H1133 C1119 0.961 . S
H1134 C1119 0.961 . S
H1135 C1119 0.961 . S
H1136 C1120 0.931 . S
H1137 C1125 0.930 . S
H1138 C1126 0.956 . S
H1139 C1126 0.961 . S
H1140 C1126 0.961 . S
H1141 C1127 0.958 . S
H1142 C1127 0.961 . S
H1143 C1127 0.960 . S
C1144 C1145 1.391 . S
C1144 C1146 1.394 . S
C1144 H1160 0.931 . S
C1145 C1144 1.391 . S
C1145 C1149 1.376 . S
C1146 C1144 1.394 . S
C1146 C1147 1.369 . S
C1146 C1150 1.531 . S
C1147 C1146 1.369 . S
C1147 C1148 1.410 . S
C1147 C1155 1.503 . S
C1148 C1147 1.410 . S
C1148 C1149 1.392 . S
C1148 C1151 1.511 . S
C1149 C1145 1.376 . S
C1149 C1148 1.392 . S
C1149 H1161 0.929 . S
C1150 C1146 1.531 . S
C1150 H1162 0.960 . S
C1150 H1163 0.962 . S
C1150 H1164 0.960 . S
C1151 C1148 1.511 . S
C1151 H1165 0.961 . S
C1151 H1166 0.961 . S
C1151 H1167 0.961 . S
C1152 C1153 1.370 . S
C1152 C1154 1.363 . S
C1152 H1168 0.931 . S
C1153 C1152 1.370 . S
C1153 C1157 1.408 . S
C1154 C1152 1.363 . S
C1154 C1155 1.370 . S
C1154 C1158 1.524 . S
C1155 C1147 1.503 . S
C1155 C1154 1.370 . S
C1155 C1156 1.403 . S
C1156 C1155 1.403 . S
C1156 C1157 1.404 . S
C1156 C1159 1.539 . S
C1157 C1153 1.408 . S
C1157 C1156 1.404 . S
C1157 H1169 0.930 . S
C1158 C1154 1.524 . S
C1158 H1170 0.956 . S
C1158 H1171 0.961 . S
C1158 H1172 0.961 . S
C1159 C1156 1.539 . S
C1159 H1173 0.958 . S
C1159 H1174 0.961 . S
C1159 H1175 0.960 . S
H1160 C1144 0.931 . S
H1161 C1149 0.929 . S
H1162 C1150 0.960 . S
H1163 C1150 0.962 . S
H1164 C1150 0.960 . S
H1165 C1151 0.961 . S
H1166 C1151 0.961 . S
H1167 C1151 0.961 . S
H1168 C1152 0.931 . S
H1169 C1157 0.930 . S
H1170 C1158 0.956 . S
H1171 C1158 0.961 . S
H1172 C1158 0.961 . S
H1173 C1159 0.958 . S
H1174 C1159 0.961 . S
H1175 C1159 0.960 . S
C1176 C1177 1.391 . S
C1176 C1178 1.394 . S
C1176 H1192 0.931 . S
C1177 C1176 1.391 . S
C1177 C1181 1.376 1_554 S
C1178 C1176 1.394 . S
C1178 C1179 1.369 . S
C1178 C1182 1.531 . S
C1179 C1178 1.369 . S
C1179 C1180 1.387 1_554 S
C1179 C1187 1.503 . S
C1180 C1179 1.387 1_556 S
C1180 C1181 1.398 . S
C1180 C1183 1.535 . S
C1181 C1177 1.376 1_556 S
C1181 C1180 1.398 . S
C1181 H1193 0.929 . S
C1182 C1178 1.531 . S
C1182 H1194 0.960 . S
C1182 H1195 0.962 . S
C1182 H1196 0.960 . S
C1183 C1180 1.535 . S
C1183 H1197 0.961 . S
C1183 H1198 0.961 . S
C1183 H1199 0.961 1_556 S
C1184 C1185 1.368 1_556 S
C1184 C1186 1.363 . S
C1184 H1200 0.931 . S
C1185 C1184 1.368 1_554 S
C1185 C1189 1.411 . S
C1186 C1184 1.363 . S
C1186 C1187 1.370 1_556 S
C1186 C1190 1.524 . S
C1187 C1179 1.503 . S
C1187 C1186 1.370 1_554 S
C1187 C1188 1.403 . S
C1188 C1187 1.403 . S
C1188 C1189 1.404 . S
C1188 C1191 1.539 . S
C1189 C1185 1.411 . S
C1189 C1188 1.404 . S
C1189 H1201 0.930 . S
C1190 C1186 1.524 . S
C1190 H1202 0.956 . S
C1190 H1203 0.961 . S
C1190 H1204 0.961 . S
C1191 C1188 1.539 . S
C1191 H1205 0.958 . S
C1191 H1206 0.961 . S
C1191 H1207 0.960 . S
H1192 C1176 0.931 . S
H1193 C1181 0.929 . S
H1194 C1182 0.960 . S
H1195 C1182 0.962 . S
H1196 C1182 0.960 . S
H1197 C1183 0.961 . S
H1198 C1183 0.961 . S
H1199 C1183 0.961 1_554 S
H1200 C1184 0.931 . S
H1201 C1189 0.930 . S
H1202 C1190 0.956 . S
H1203 C1190 0.961 . S
H1204 C1190 0.961 . S
H1205 C1191 0.958 . S
H1206 C1191 0.961 . S
H1207 C1191 0.960 . S
C1208 C1209 1.421 . S
C1208 C1210 1.394 . S
C1208 H1224 0.931 . S
C1209 C1208 1.421 . S
C1209 C1213 1.351 1_554 S
C1210 C1208 1.394 . S
C1210 C1211 1.369 . S
C1210 C1214 1.531 . S
C1211 C1210 1.369 . S
C1211 C1212 1.410 1_554 S
C1211 C1219 1.503 . S
C1212 C1211 1.410 1_556 S
C1212 C1213 1.392 . S
C1212 C1215 1.511 . S
C1213 C1209 1.351 1_556 S
C1213 C1212 1.392 . S
C1213 H1225 0.929 . S
C1214 C1210 1.531 . S
C1214 H1226 0.960 . S
C1214 H1227 0.962 . S
C1214 H1228 0.960 . S
C1215 C1212 1.511 . S
C1215 H1229 0.961 . S
C1215 H1230 0.961 . S
C1215 H1231 0.961 . S
C1216 C1217 1.370 1_556 S
C1216 C1218 1.363 . S
C1216 H1232 0.931 . S
C1217 C1216 1.370 1_554 S
C1217 C1221 1.408 . S
C1218 C1216 1.363 . S
C1218 C1219 1.370 1_556 S
C1218 C1222 1.524 . S
C1219 C1211 1.503 . S
C1219 C1218 1.370 1_554 S
C1219 C1220 1.403 . S
C1220 C1219 1.403 . S
C1220 C1221 1.404 . S
C1220 C1223 1.539 . S
C1221 C1217 1.408 . S
C1221 C1220 1.404 . S
C1221 H1233 0.930 . S
C1222 C1218 1.524 . S
C1222 H1234 0.956 . S
C1222 H1235 0.961 . S
C1222 H1236 0.961 . S
C1223 C1220 1.539 . S
C1223 H1237 0.958 . S
C1223 H1238 0.961 . S
C1223 H1239 0.960 . S
H1224 C1208 0.931 . S
H1225 C1213 0.929 . S
H1226 C1214 0.960 . S
H1227 C1214 0.962 . S
H1228 C1214 0.960 . S
H1229 C1215 0.961 . S
H1230 C1215 0.961 . S
H1231 C1215 0.961 . S
H1232 C1216 0.931 . S
H1233 C1221 0.930 . S
H1234 C1222 0.956 . S
H1235 C1222 0.961 . S
H1236 C1222 0.961 . S
H1237 C1223 0.958 . S
H1238 C1223 0.961 . S
H1239 C1223 0.960 . S
C1240 C1241 1.391 . S
C1240 C1242 1.394 . S
C1240 H1256 0.931 . S
C1241 C1240 1.391 . S
C1241 C1245 1.376 1_554 S
C1242 C1240 1.394 . S
C1242 C1243 1.369 . S
C1242 C1246 1.531 . S
C1243 C1242 1.369 . S
C1243 C1244 1.410 1_554 S
C1243 C1251 1.503 . S
C1244 C1243 1.410 1_556 S
C1244 C1245 1.392 . S
C1244 C1247 1.511 . S
C1245 C1241 1.376 1_556 S
C1245 C1244 1.392 . S
C1245 H1257 0.929 . S
C1246 C1242 1.531 . S
C1246 H1258 0.960 . S
C1246 H1259 0.962 . S
C1246 H1260 0.960 . S
C1247 C1244 1.511 . S
C1247 H1261 0.961 . S
C1247 H1262 0.961 . S
C1247 H1263 0.961 . S
C1248 C1249 1.369 . S
C1248 C1250 1.363 . S
C1248 H1264 0.931 . S
C1249 C1248 1.369 . S
C1249 C1253 1.410 1_556 S
C1250 C1248 1.363 . S
C1250 C1251 1.370 1_556 S
C1250 C1254 1.524 . S
C1251 C1243 1.503 . S
C1251 C1250 1.370 1_554 S
C1251 C1252 1.403 . S
C1252 C1251 1.403 . S
C1252 C1253 1.404 . S
C1252 C1255 1.539 . S
C1253 C1249 1.410 1_554 S
C1253 C1252 1.404 . S
C1253 H1265 0.930 . S
C1254 C1250 1.524 . S
C1254 H1266 0.956 . S
C1254 H1267 0.961 . S
C1254 H1268 0.961 . S
C1255 C1252 1.539 . S
C1255 H1269 0.958 . S
C1255 H1270 0.961 . S
C1255 H1271 0.960 . S
H1256 C1240 0.931 . S
H1257 C1245 0.929 . S
H1258 C1246 0.960 . S
H1259 C1246 0.962 . S
H1260 C1246 0.960 . S
H1261 C1247 0.961 . S
H1262 C1247 0.961 . S
H1263 C1247 0.961 . S
H1264 C1248 0.931 . S
H1265 C1253 0.930 . S
H1266 C1254 0.956 . S
H1267 C1254 0.961 . S
H1268 C1254 0.961 . S
H1269 C1255 0.958 . S
H1270 C1255 0.961 . S
H1271 C1255 0.960 . S
C1272 C1273 1.391 . S
C1272 C1274 1.394 . S
C1272 H1288 0.931 . S
C1273 C1272 1.391 . S
C1273 C1277 1.376 . S
C1274 C1272 1.394 . S
C1274 C1275 1.369 . S
C1274 C1278 1.531 . S
C1275 C1274 1.369 . S
C1275 C1276 1.410 . S
C1275 C1283 1.503 . S
C1276 C1275 1.410 . S
C1276 C1277 1.392 . S
C1276 C1279 1.511 . S
C1277 C1273 1.376 . S
C1277 C1276 1.392 . S
C1277 H1289 0.929 . S
C1278 C1274 1.531 . S
C1278 H1290 0.960 . S
C1278 H1291 0.962 . S
C1278 H1292 0.960 . S
C1279 C1276 1.511 . S
C1279 H1293 0.961 . S
C1279 H1294 0.961 . S
C1279 H1295 0.961 . S
C1280 C1281 1.370 . S
C1280 C1282 1.363 . S
C1280 H1296 0.931 . S
C1281 C1280 1.370 . S
C1281 C1285 1.408 . S
C1282 C1280 1.363 . S
C1282 C1283 1.370 . S
C1282 C1286 1.524 . S
C1283 C1275 1.503 . S
C1283 C1282 1.370 . S
C1283 C1284 1.403 . S
C1284 C1283 1.403 . S
C1284 C1285 1.404 . S
C1284 C1287 1.539 . S
C1285 C1281 1.408 . S
C1285 C1284 1.404 . S
C1285 H1297 0.930 . S
C1286 C1282 1.524 . S
C1286 H1298 0.956 . S
C1286 H1299 0.961 . S
C1286 H1300 0.961 . S
C1287 C1284 1.539 . S
C1287 H1301 0.958 . S
C1287 H1302 0.961 . S
C1287 H1303 0.960 . S
H1288 C1272 0.931 . S
H1289 C1277 0.929 . S
H1290 C1278 0.960 . S
H1291 C1278 0.962 . S
H1292 C1278 0.960 . S
H1293 C1279 0.961 . S
H1294 C1279 0.961 . S
H1295 C1279 0.961 . S
H1296 C1280 0.931 . S
H1297 C1285 0.930 . S
H1298 C1286 0.956 . S
H1299 C1286 0.961 . S
H1300 C1286 0.961 . S
H1301 C1287 0.958 . S
H1302 C1287 0.961 . S
H1303 C1287 0.960 . S
C1304 C1305 1.391 . S
C1304 C1306 1.394 . S
C1304 H1320 0.931 . S
C1305 C1304 1.391 . S
C1305 C1309 1.376 . S
C1306 C1304 1.394 . S
C1306 C1307 1.369 . S
C1306 C1310 1.531 . S
C1307 C1306 1.369 . S
C1307 C1308 1.410 . S
C1307 C1315 1.503 . S
C1308 C1307 1.410 . S
C1308 C1309 1.392 . S
C1308 C1311 1.511 . S
C1309 C1305 1.376 . S
C1309 C1308 1.392 . S
C1309 H1321 0.929 . S
C1310 C1306 1.531 . S
C1310 H1322 0.960 . S
C1310 H1323 0.962 . S
C1310 H1324 0.960 . S
C1311 C1308 1.511 . S
C1311 H1325 0.961 . S
C1311 H1326 0.961 . S
C1311 H1327 0.961 . S
C1312 C1313 1.370 . S
C1312 C1314 1.363 . S
C1312 H1328 0.931 . S
C1313 C1312 1.370 . S
C1313 C1317 1.408 . S
C1314 C1312 1.363 . S
C1314 C1315 1.370 . S
C1314 C1318 1.524 . S
C1315 C1307 1.503 . S
C1315 C1314 1.370 . S
C1315 C1316 1.403 . S
C1316 C1315 1.403 . S
C1316 C1317 1.404 . S
C1316 C1319 1.539 . S
C1317 C1313 1.408 . S
C1317 C1316 1.404 . S
C1317 H1329 0.930 . S
C1318 C1314 1.524 . S
C1318 H1330 0.956 . S
C1318 H1331 0.961 . S
C1318 H1332 0.961 . S
C1319 C1316 1.539 . S
C1319 H1333 0.958 . S
C1319 H1334 0.961 . S
C1319 H1335 0.960 . S
H1320 C1304 0.931 . S
H1321 C1309 0.929 . S
H1322 C1310 0.960 . S
H1323 C1310 0.962 . S
H1324 C1310 0.960 . S
H1325 C1311 0.961 . S
H1326 C1311 0.961 . S
H1327 C1311 0.961 . S
H1328 C1312 0.931 . S
H1329 C1317 0.930 . S
H1330 C1318 0.956 . S
H1331 C1318 0.961 . S
H1332 C1318 0.961 . S
H1333 C1319 0.958 . S
H1334 C1319 0.961 . S
H1335 C1319 0.960 . S
C1336 C1337 1.391 . S
C1336 C1338 1.394 . S
C1336 H1352 0.931 . S
C1337 C1336 1.391 . S
C1337 C1341 1.376 . S
C1338 C1336 1.394 . S
C1338 C1339 1.369 . S
C1338 C1342 1.531 . S
C1339 C1338 1.369 . S
C1339 C1340 1.410 . S
C1339 C1347 1.503 . S
C1340 C1339 1.410 . S
C1340 C1341 1.392 . S
C1340 C1343 1.511 . S
C1341 C1337 1.376 . S
C1341 C1340 1.392 . S
C1341 H1353 0.929 . S
C1342 C1338 1.531 . S
C1342 H1354 0.960 . S
C1342 H1355 0.962 . S
C1342 H1356 0.960 . S
C1343 C1340 1.511 . S
C1343 H1357 0.961 . S
C1343 H1358 0.961 . S
C1343 H1359 0.961 . S
C1344 C1345 1.370 . S
C1344 C1346 1.363 . S
C1344 H1360 0.931 . S
C1345 C1344 1.370 . S
C1345 C1349 1.408 . S
C1346 C1344 1.363 . S
C1346 C1347 1.370 . S
C1346 C1350 1.524 . S
C1347 C1339 1.503 . S
C1347 C1346 1.370 . S
C1347 C1348 1.403 . S
C1348 C1347 1.403 . S
C1348 C1349 1.404 . S
C1348 C1351 1.539 . S
C1349 C1345 1.408 . S
C1349 C1348 1.404 . S
C1349 H1361 0.930 . S
C1350 C1346 1.524 . S
C1350 H1362 0.956 . S
C1350 H1363 0.961 . S
C1350 H1364 0.961 . S
C1351 C1348 1.539 . S
C1351 H1365 0.958 . S
C1351 H1366 0.961 . S
C1351 H1367 0.960 . S
H1352 C1336 0.931 . S
H1353 C1341 0.929 . S
H1354 C1342 0.960 . S
H1355 C1342 0.962 . S
H1356 C1342 0.960 . S
H1357 C1343 0.961 . S
H1358 C1343 0.961 . S
H1359 C1343 0.961 . S
H1360 C1344 0.931 . S
H1361 C1349 0.930 . S
H1362 C1350 0.956 . S
H1363 C1350 0.961 . S
H1364 C1350 0.961 . S
H1365 C1351 0.958 . S
H1366 C1351 0.961 . S
H1367 C1351 0.960 . S
C1368 C1369 1.391 . S
C1368 C1370 1.394 . S
C1368 H1384 0.931 . S
C1369 C1368 1.391 . S
C1369 C1373 1.376 1_556 S
C1370 C1368 1.394 . S
C1370 C1371 1.369 . S
C1370 C1374 1.531 . S
C1371 C1370 1.369 . S
C1371 C1372 1.410 1_556 S
C1371 C1379 1.503 . S
C1372 C1371 1.410 1_554 S
C1372 C1373 1.392 . S
C1372 C1375 1.511 . S
C1373 C1369 1.376 1_554 S
C1373 C1372 1.392 . S
C1373 H1385 0.929 . S
C1374 C1370 1.531 . S
C1374 H1386 0.960 . S
C1374 H1387 0.962 . S
C1374 H1388 0.960 . S
C1375 C1372 1.511 . S
C1375 H1389 0.961 . S
C1375 H1390 0.961 . S
C1375 H1391 0.993 . S
C1376 C1377 1.373 . S
C1376 C1378 1.363 . S
C1376 H1392 0.931 . S
C1377 C1376 1.373 . S
C1377 C1381 1.405 1_554 S
C1378 C1376 1.363 . S
C1378 C1379 1.370 1_554 S
C1378 C1382 1.524 . S
C1379 C1371 1.503 . S
C1379 C1378 1.370 1_556 S
C1379 C1380 1.403 . S
C1380 C1379 1.403 . S
C1380 C1381 1.404 . S
C1380 C1383 1.539 . S
C1381 C1377 1.405 1_556 S
C1381 C1380 1.404 . S
C1381 H1393 0.930 . S
C1382 C1378 1.524 . S
C1382 H1394 0.956 . S
C1382 H1395 0.961 . S
C1382 H1396 0.961 . S
C1383 C1380 1.539 . S
C1383 H1397 0.958 . S
C1383 H1398 0.961 . S
C1383 H1399 0.960 . S
H1384 C1368 0.931 . S
H1385 C1373 0.929 . S
H1386 C1374 0.960 . S
H1387 C1374 0.962 . S
H1388 C1374 0.960 . S
H1389 C1375 0.961 . S
H1390 C1375 0.961 . S
H1391 C1375 0.993 . S
H1392 C1376 0.931 . S
H1393 C1381 0.930 . S
H1394 C1382 0.956 . S
H1395 C1382 0.961 . S
H1396 C1382 0.961 . S
H1397 C1383 0.958 . S
H1398 C1383 0.961 . S
H1399 C1383 0.960 . S
C1400 C1401 1.387 1_556 S
C1400 C1402 1.394 . S
C1400 H1416 0.931 . S
C1401 C1400 1.387 1_554 S
C1401 C1405 1.380 . S
C1402 C1400 1.394 . S
C1402 C1403 1.369 . S
C1402 C1406 1.531 . S
C1403 C1402 1.369 . S
C1403 C1404 1.410 1_556 S
C1403 C1411 1.506 . S
C1404 C1403 1.410 1_554 S
C1404 C1405 1.392 . S
C1404 C1407 1.511 . S
C1405 C1401 1.380 . S
C1405 C1404 1.392 . S
C1405 H1417 0.929 . S
C1406 C1402 1.531 . S
C1406 H1418 0.960 . S
C1406 H1419 0.962 . S
C1406 H1420 0.960 . S
C1407 C1404 1.511 . S
C1407 H1421 0.961 . S
C1407 H1422 0.961 . S
C1407 H1423 0.961 . S
C1408 C1409 1.364 1_554 S
C1408 C1410 1.363 . S
C1408 H1424 0.931 . S
C1409 C1408 1.364 1_556 S
C1409 C1413 1.416 . S
C1410 C1408 1.363 . S
C1410 C1411 1.351 1_554 S
C1410 C1414 1.524 . S
C1411 C1403 1.506 . S
C1411 C1410 1.351 1_556 S
C1411 C1412 1.426 . S
C1412 C1411 1.426 . S
C1412 C1413 1.404 . S
C1412 C1415 1.539 . S
C1413 C1409 1.416 . S
C1413 C1412 1.404 . S
C1413 H1425 0.930 . S
C1414 C1410 1.524 . S
C1414 H1426 0.996 . S
C1414 H1427 0.961 . S
C1414 H1428 0.961 . S
C1415 C1412 1.539 . S
C1415 H1429 0.958 . S
C1415 H1430 0.961 . S
C1415 H1431 0.960 . S
H1416 C1400 0.931 . S
H1417 C1405 0.929 . S
H1418 C1406 0.960 . S
H1419 C1406 0.962 . S
H1420 C1406 0.960 . S
H1421 C1407 0.961 . S
H1422 C1407 0.961 . S
H1423 C1407 0.961 . S
H1424 C1408 0.931 . S
H1425 C1413 0.930 . S
H1426 C1414 0.996 . S
H1427 C1414 0.961 . S
H1428 C1414 0.961 . S
H1429 C1415 0.958 . S
H1430 C1415 0.961 . S
H1431 C1415 0.960 . S
C1432 C1433 1.410 . S
C1432 C1434 1.394 . S
C1432 H1448 0.931 . S
C1433 C1432 1.410 . S
C1433 C1437 1.359 1_554 S
C1434 C1432 1.394 . S
C1434 C1435 1.369 . S
C1434 C1438 1.531 . S
C1435 C1434 1.369 . S
C1435 C1436 1.410 1_554 S
C1435 C1443 1.503 . S
C1436 C1435 1.410 1_556 S
C1436 C1437 1.392 . S
C1436 C1439 1.511 . S
C1437 C1433 1.359 1_556 S
C1437 C1436 1.392 . S
C1437 H1449 0.929 . S
C1438 C1434 1.531 . S
C1438 H1450 0.960 . S
C1438 H1451 0.962 . S
C1438 H1452 0.960 . S
C1439 C1436 1.511 . S
C1439 H1453 0.961 . S
C1439 H1454 0.961 . S
C1439 H1455 0.961 . S
C1440 C1441 1.346 1_556 S
C1440 C1442 1.363 . S
C1440 H1456 0.931 . S
C1441 C1440 1.346 1_554 S
C1441 C1445 1.439 . S
C1442 C1440 1.363 . S
C1442 C1443 1.370 1_556 S
C1442 C1446 1.524 . S
C1443 C1435 1.503 . S
C1443 C1442 1.370 1_554 S
C1443 C1444 1.403 . S
C1444 C1443 1.403 . S
C1444 C1445 1.404 . S
C1444 C1447 1.539 . S
C1445 C1441 1.439 . S
C1445 C1444 1.404 . S
C1445 H1457 0.930 . S
C1446 C1442 1.524 . S
C1446 H1458 0.956 . S
C1446 H1459 0.961 . S
C1446 H1460 0.961 . S
C1447 C1444 1.539 . S
C1447 H1461 0.958 . S
C1447 H1462 0.961 . S
C1447 H1463 0.960 . S
H1448 C1432 0.931 . S
H1449 C1437 0.929 . S
H1450 C1438 0.960 . S
H1451 C1438 0.962 . S
H1452 C1438 0.960 . S
H1453 C1439 0.961 . S
H1454 C1439 0.961 . S
H1455 C1439 0.961 . S
H1456 C1440 0.931 . S
H1457 C1445 0.930 . S
H1458 C1446 0.956 . S
H1459 C1446 0.961 . S
H1460 C1446 0.961 . S
H1461 C1447 0.958 . S
H1462 C1447 0.961 . S
H1463 C1447 0.960 . S
C1464 C1465 1.391 . S
C1464 C1466 1.394 . S
C1464 H1480 0.931 . S
C1465 C1464 1.391 . S
C1465 C1469 1.376 . S
C1466 C1464 1.394 . S
C1466 C1467 1.369 . S
C1466 C1470 1.531 . S
C1467 C1466 1.369 . S
C1467 C1468 1.410 . S
C1467 C1475 1.503 . S
C1468 C1467 1.410 . S
C1468 C1469 1.392 . S
C1468 C1471 1.511 . S
C1469 C1465 1.376 . S
C1469 C1468 1.392 . S
C1469 H1481 0.929 . S
C1470 C1466 1.531 . S
C1470 H1482 0.960 . S
C1470 H1483 0.962 . S
C1470 H1484 0.960 . S
C1471 C1468 1.511 . S
C1471 H1485 0.961 . S
C1471 H1486 0.961 . S
C1471 H1487 0.961 . S
C1472 C1473 1.370 . S
C1472 C1474 1.363 . S
C1472 H1488 0.931 . S
C1473 C1472 1.370 . S
C1473 C1477 1.408 . S
C1474 C1472 1.363 . S
C1474 C1475 1.370 . S
C1474 C1478 1.524 . S
C1475 C1467 1.503 . S
C1475 C1474 1.370 . S
C1475 C1476 1.403 . S
C1476 C1475 1.403 . S
C1476 C1477 1.404 . S
C1476 C1479 1.539 . S
C1477 C1473 1.408 . S
C1477 C1476 1.404 . S
C1477 H1489 0.930 . S
C1478 C1474 1.524 . S
C1478 H1490 0.956 . S
C1478 H1491 0.961 . S
C1478 H1492 0.961 . S
C1479 C1476 1.539 . S
C1479 H1493 0.958 . S
C1479 H1494 0.961 . S
C1479 H1495 0.960 . S
H1480 C1464 0.931 . S
H1481 C1469 0.929 . S
H1482 C1470 0.960 . S
H1483 C1470 0.962 . S
H1484 C1470 0.960 . S
H1485 C1471 0.961 . S
H1486 C1471 0.961 . S
H1487 C1471 0.961 . S
H1488 C1472 0.931 . S
H1489 C1477 0.930 . S
H1490 C1478 0.956 . S
H1491 C1478 0.961 . S
H1492 C1478 0.961 . S
H1493 C1479 0.958 . S
H1494 C1479 0.961 . S
H1495 C1479 0.960 . S
C1496 C1497 1.391 . S
C1496 C1498 1.394 . S
C1496 H1512 0.931 . S
C1497 C1496 1.391 . S
C1497 C1501 1.376 . S
C1498 C1496 1.394 . S
C1498 C1499 1.369 . S
C1498 C1502 1.531 . S
C1499 C1498 1.369 . S
C1499 C1500 1.410 . S
C1499 C1507 1.503 . S
C1500 C1499 1.410 . S
C1500 C1501 1.392 . S
C1500 C1503 1.511 . S
C1501 C1497 1.376 . S
C1501 C1500 1.392 . S
C1501 H1513 0.929 . S
C1502 C1498 1.531 . S
C1502 H1514 0.960 . S
C1502 H1515 0.962 . S
C1502 H1516 0.960 . S
C1503 C1500 1.511 . S
C1503 H1517 0.961 . S
C1503 H1518 0.961 . S
C1503 H1519 0.961 . S
C1504 C1505 1.370 . S
C1504 C1506 1.363 . S
C1504 H1520 0.931 . S
C1505 C1504 1.370 . S
C1505 C1509 1.408 . S
C1506 C1504 1.363 . S
C1506 C1507 1.370 . S
C1506 C1510 1.524 . S
C1507 C1499 1.503 . S
C1507 C1506 1.370 . S
C1507 C1508 1.403 . S
C1508 C1507 1.403 . S
C1508 C1509 1.404 . S
C1508 C1511 1.539 . S
C1509 C1505 1.408 . S
C1509 C1508 1.404 . S
C1509 H1521 0.930 . S
C1510 C1506 1.524 . S
C1510 H1522 0.956 . S
C1510 H1523 0.961 . S
C1510 H1524 0.961 . S
C1511 C1508 1.539 . S
C1511 H1525 0.958 . S
C1511 H1526 0.961 . S
C1511 H1527 0.960 . S
H1512 C1496 0.931 . S
H1513 C1501 0.929 . S
H1514 C1502 0.960 . S
H1515 C1502 0.962 . S
H1516 C1502 0.960 . S
H1517 C1503 0.961 . S
H1518 C1503 0.961 . S
H1519 C1503 0.961 . S
H1520 C1504 0.931 . S
H1521 C1509 0.930 . S
H1522 C1510 0.956 . S
H1523 C1510 0.961 . S
H1524 C1510 0.961 . S
H1525 C1511 0.958 . S
H1526 C1511 0.961 . S
H1527 C1511 0.960 . S
C1528 C1529 1.391 . S
C1528 C1530 1.394 . S
C1528 H1544 0.931 . S
C1529 C1528 1.391 . S
C1529 C1533 1.376 . S
C1530 C1528 1.394 . S
C1530 C1531 1.369 . S
C1530 C1534 1.531 . S
C1531 C1530 1.369 . S
C1531 C1532 1.410 . S
C1531 C1539 1.503 . S
C1532 C1531 1.410 . S
C1532 C1533 1.392 . S
C1532 C1535 1.511 . S
C1533 C1529 1.376 . S
C1533 C1532 1.392 . S
C1533 H1545 0.929 . S
C1534 C1530 1.531 . S
C1534 H1546 0.960 . S
C1534 H1547 0.962 . S
C1534 H1548 0.960 . S
C1535 C1532 1.511 . S
C1535 H1549 0.961 . S
C1535 H1550 0.961 . S
C1535 H1551 0.961 . S
C1536 C1537 1.370 . S
C1536 C1538 1.363 . S
C1536 H1552 0.931 . S
C1537 C1536 1.370 . S
C1537 C1541 1.408 . S
C1538 C1536 1.363 . S
C1538 C1539 1.370 . S
C1538 C1542 1.524 . S
C1539 C1531 1.503 . S
C1539 C1538 1.370 . S
C1539 C1540 1.403 . S
C1540 C1539 1.403 . S
C1540 C1541 1.404 . S
C1540 C1543 1.539 . S
C1541 C1537 1.408 . S
C1541 C1540 1.404 . S
C1541 H1553 0.930 . S
C1542 C1538 1.524 . S
C1542 H1554 0.956 . S
C1542 H1555 0.961 . S
C1542 H1556 0.961 . S
C1543 C1540 1.539 . S
C1543 H1557 0.958 . S
C1543 H1558 0.961 . S
C1543 H1559 0.960 . S
H1544 C1528 0.931 . S
H1545 C1533 0.929 . S
H1546 C1534 0.960 . S
H1547 C1534 0.962 . S
H1548 C1534 0.960 . S
H1549 C1535 0.961 . S
H1550 C1535 0.961 . S
H1551 C1535 0.961 . S
H1552 C1536 0.931 . S
H1553 C1541 0.930 . S
H1554 C1542 0.956 . S
H1555 C1542 0.961 . S
H1556 C1542 0.961 . S
H1557 C1543 0.958 . S
H1558 C1543 0.961 . S
H1559 C1543 0.960 . S
C1560 C1561 1.391 . S
C1560 C1562 1.394 . S
C1560 H1576 0.931 . S
C1561 C1560 1.391 . S
C1561 C1565 1.376 . S
C1562 C1560 1.394 . S
C1562 C1563 1.369 . S
C1562 C1566 1.531 . S
C1563 C1562 1.369 . S
C1563 C1564 1.410 . S
C1563 C1571 1.503 . S
C1564 C1563 1.410 . S
C1564 C1565 1.392 . S
C1564 C1567 1.511 . S
C1565 C1561 1.376 . S
C1565 C1564 1.392 . S
C1565 H1577 0.929 . S
C1566 C1562 1.531 . S
C1566 H1578 0.960 . S
C1566 H1579 0.962 . S
C1566 H1580 0.960 . S
C1567 C1564 1.511 . S
C1567 H1581 0.961 . S
C1567 H1582 0.961 . S
C1567 H1583 0.961 . S
C1568 C1569 1.370 . S
C1568 C1570 1.363 . S
C1568 H1584 0.931 . S
C1569 C1568 1.370 . S
C1569 C1573 1.408 . S
C1570 C1568 1.363 . S
C1570 C1571 1.370 . S
C1570 C1574 1.524 . S
C1571 C1563 1.503 . S
C1571 C1570 1.370 . S
C1571 C1572 1.403 . S
C1572 C1571 1.403 . S
C1572 C1573 1.404 . S
C1572 C1575 1.539 . S
C1573 C1569 1.408 . S
C1573 C1572 1.404 . S
C1573 H1585 0.930 . S
C1574 C1570 1.524 . S
C1574 H1586 0.956 . S
C1574 H1587 0.961 . S
C1574 H1588 0.961 . S
C1575 C1572 1.539 . S
C1575 H1589 0.958 . S
C1575 H1590 0.961 . S
C1575 H1591 0.960 . S
H1576 C1560 0.931 . S
H1577 C1565 0.929 . S
H1578 C1566 0.960 . S
H1579 C1566 0.962 . S
H1580 C1566 0.960 . S
H1581 C1567 0.961 . S
H1582 C1567 0.961 . S
H1583 C1567 0.961 . S
H1584 C1568 0.931 . S
H1585 C1573 0.930 . S
H1586 C1574 0.956 . S
H1587 C1574 0.961 . S
H1588 C1574 0.961 . S
H1589 C1575 0.958 . S
H1590 C1575 0.961 . S
H1591 C1575 0.960 . S
C1592 C1593 1.391 . S
C1592 C1594 1.394 . S
C1592 H1608 0.931 . S
C1593 C1592 1.391 . S
C1593 C1597 1.376 . S
C1594 C1592 1.394 . S
C1594 C1595 1.369 . S
C1594 C1598 1.531 . S
C1595 C1594 1.369 . S
C1595 C1596 1.410 . S
C1595 C1603 1.503 . S
C1596 C1595 1.410 . S
C1596 C1597 1.392 . S
C1596 C1599 1.511 . S
C1597 C1593 1.376 . S
C1597 C1596 1.392 . S
C1597 H1609 0.929 . S
C1598 C1594 1.531 . S
C1598 H1610 0.960 . S
C1598 H1611 0.962 . S
C1598 H1612 0.960 . S
C1599 C1596 1.511 . S
C1599 H1613 0.961 . S
C1599 H1614 0.961 . S
C1599 H1615 0.961 . S
C1600 C1601 1.370 . S
C1600 C1602 1.363 . S
C1600 H1616 0.931 . S
C1601 C1600 1.370 . S
C1601 C1605 1.408 . S
C1602 C1600 1.363 . S
C1602 C1603 1.370 . S
C1602 C1606 1.524 . S
C1603 C1595 1.503 . S
C1603 C1602 1.370 . S
C1603 C1604 1.403 . S
C1604 C1603 1.403 . S
C1604 C1605 1.404 . S
C1604 C1607 1.539 . S
C1605 C1601 1.408 . S
C1605 C1604 1.404 . S
C1605 H1617 0.930 . S
C1606 C1602 1.524 . S
C1606 H1618 0.956 . S
C1606 H1619 0.961 . S
C1606 H1620 0.961 . S
C1607 C1604 1.539 . S
C1607 H1621 0.958 . S
C1607 H1622 0.961 . S
C1607 H1623 0.960 . S
H1608 C1592 0.931 . S
H1609 C1597 0.929 . S
H1610 C1598 0.960 . S
H1611 C1598 0.962 . S
H1612 C1598 0.960 . S
H1613 C1599 0.961 . S
H1614 C1599 0.961 . S
H1615 C1599 0.961 . S
H1616 C1600 0.931 . S
H1617 C1605 0.930 . S
H1618 C1606 0.956 . S
H1619 C1606 0.961 . S
H1620 C1606 0.961 . S
H1621 C1607 0.958 . S
H1622 C1607 0.961 . S
H1623 C1607 0.960 . S
C1624 C1625 1.391 . S
C1624 C1626 1.394 . S
C1624 H1640 0.931 . S
C1625 C1624 1.391 . S
C1625 C1629 1.376 . S
C1626 C1624 1.394 . S
C1626 C1627 1.369 . S
C1626 C1630 1.531 . S
C1627 C1626 1.369 . S
C1627 C1628 1.410 . S
C1627 C1635 1.503 . S
C1628 C1627 1.410 . S
C1628 C1629 1.392 . S
C1628 C1631 1.511 . S
C1629 C1625 1.376 . S
C1629 C1628 1.392 . S
C1629 H1641 0.929 . S
C1630 C1626 1.531 . S
C1630 H1642 0.960 . S
C1630 H1643 0.962 . S
C1630 H1644 0.960 . S
C1631 C1628 1.511 . S
C1631 H1645 0.961 . S
C1631 H1646 0.961 . S
C1631 H1647 0.961 . S
C1632 C1633 1.370 . S
C1632 C1634 1.363 . S
C1632 H1648 0.931 . S
C1633 C1632 1.370 . S
C1633 C1637 1.408 . S
C1634 C1632 1.363 . S
C1634 C1635 1.370 . S
C1634 C1638 1.524 . S
C1635 C1627 1.503 . S
C1635 C1634 1.370 . S
C1635 C1636 1.403 . S
C1636 C1635 1.403 . S
C1636 C1637 1.404 . S
C1636 C1639 1.539 . S
C1637 C1633 1.408 . S
C1637 C1636 1.404 . S
C1637 H1649 0.930 . S
C1638 C1634 1.524 . S
C1638 H1650 0.956 . S
C1638 H1651 0.961 . S
C1638 H1652 0.961 . S
C1639 C1636 1.539 . S
C1639 H1653 0.958 . S
C1639 H1654 0.961 . S
C1639 H1655 0.960 . S
H1640 C1624 0.931 . S
H1641 C1629 0.929 . S
H1642 C1630 0.960 . S
H1643 C1630 0.962 . S
H1644 C1630 0.960 . S
H1645 C1631 0.961 . S
H1646 C1631 0.961 . S
H1647 C1631 0.961 . S
H1648 C1632 0.931 . S
H1649 C1637 0.930 . S
H1650 C1638 0.956 . S
H1651 C1638 0.961 . S
H1652 C1638 0.961 . S
H1653 C1639 0.958 . S
H1654 C1639 0.961 . S
H1655 C1639 0.960 . S
C1656 C1657 1.391 . S
C1656 C1658 1.394 . S
C1656 H1672 0.931 . S
C1657 C1656 1.391 . S
C1657 C1661 1.376 . S
C1658 C1656 1.394 . S
C1658 C1659 1.369 . S
C1658 C1662 1.531 . S
C1659 C1658 1.369 . S
C1659 C1660 1.410 . S
C1659 C1667 1.503 . S
C1660 C1659 1.410 . S
C1660 C1661 1.392 . S
C1660 C1663 1.511 . S
C1661 C1657 1.376 . S
C1661 C1660 1.392 . S
C1661 H1673 0.929 . S
C1662 C1658 1.531 . S
C1662 H1674 0.960 . S
C1662 H1675 0.962 . S
C1662 H1676 0.960 . S
C1663 C1660 1.511 . S
C1663 H1677 0.961 . S
C1663 H1678 0.961 . S
C1663 H1679 0.961 . S
C1664 C1665 1.370 . S
C1664 C1666 1.363 . S
C1664 H1680 0.931 . S
C1665 C1664 1.370 . S
C1665 C1669 1.408 . S
C1666 C1664 1.363 . S
C1666 C1667 1.370 . S
C1666 C1670 1.524 . S
C1667 C1659 1.503 . S
C1667 C1666 1.370 . S
C1667 C1668 1.403 . S
C1668 C1667 1.403 . S
C1668 C1669 1.404 . S
C1668 C1671 1.539 . S
C1669 C1665 1.408 . S
C1669 C1668 1.404 . S
C1669 H1681 0.930 . S
C1670 C1666 1.524 . S
C1670 H1682 0.956 . S
C1670 H1683 0.961 . S
C1670 H1684 0.961 . S
C1671 C1668 1.539 . S
C1671 H1685 0.958 . S
C1671 H1686 0.961 . S
C1671 H1687 0.960 . S
H1672 C1656 0.931 . S
H1673 C1661 0.929 . S
H1674 C1662 0.960 . S
H1675 C1662 0.962 . S
H1676 C1662 0.960 . S
H1677 C1663 0.961 . S
H1678 C1663 0.961 . S
H1679 C1663 0.961 . S
H1680 C1664 0.931 . S
H1681 C1669 0.930 . S
H1682 C1670 0.956 . S
H1683 C1670 0.961 . S
H1684 C1670 0.961 . S
H1685 C1671 0.958 . S
H1686 C1671 0.961 . S
H1687 C1671 0.960 . S
C1688 C1689 1.391 . S
C1688 C1690 1.394 . S
C1688 H1704 0.931 . S
C1689 C1688 1.391 . S
C1689 C1693 1.376 1_545 S
C1690 C1688 1.394 . S
C1690 C1691 1.369 . S
C1690 C1694 1.531 . S
C1691 C1690 1.369 . S
C1691 C1692 1.410 1_545 S
C1691 C1699 1.503 . S
C1692 C1691 1.410 1_565 S
C1692 C1693 1.392 . S
C1692 C1695 1.511 . S
C1693 C1689 1.376 1_565 S
C1693 C1692 1.392 . S
C1693 H1705 0.929 . S
C1694 C1690 1.531 . S
C1694 H1706 0.960 . S
C1694 H1707 0.962 . S
C1694 H1708 0.960 . S
C1695 C1692 1.511 . S
C1695 H1709 0.961 . S
C1695 H1710 0.961 . S
C1695 H1711 0.961 1_565 S
C1696 C1697 1.358 1_565 S
C1696 C1698 1.363 . S
C1696 H1712 0.931 . S
C1697 C1696 1.358 1_545 S
C1697 C1701 1.422 . S
C1698 C1696 1.363 . S
C1698 C1699 1.370 1_565 S
C1698 C1702 1.524 . S
C1699 C1691 1.503 . S
C1699 C1698 1.370 1_545 S
C1699 C1700 1.403 . S
C1700 C1699 1.403 . S
C1700 C1701 1.404 . S
C1700 C1703 1.539 . S
C1701 C1697 1.422 . S
C1701 C1700 1.404 . S
C1701 H1713 0.930 . S
C1702 C1698 1.524 . S
C1702 H1714 0.956 . S
C1702 H1715 0.961 . S
C1702 H1716 0.961 . S
C1703 C1700 1.539 . S
C1703 H1717 0.958 . S
C1703 H1718 0.961 . S
C1703 H1719 0.960 . S
H1704 C1688 0.931 . S
H1705 C1693 0.929 . S
H1706 C1694 0.960 . S
H1707 C1694 0.962 . S
H1708 C1694 0.960 . S
H1709 C1695 0.961 . S
H1710 C1695 0.961 . S
H1711 C1695 0.961 1_545 S
H1712 C1696 0.931 . S
H1713 C1701 0.930 . S
H1714 C1702 0.956 . S
H1715 C1702 0.961 . S
H1716 C1702 0.961 . S
H1717 C1703 0.958 . S
H1718 C1703 0.961 . S
H1719 C1703 0.960 . S
C1720 C1721 1.370 1_455 S
C1720 C1722 1.394 . S
C1720 H1736 0.931 . S
C1721 C1720 1.370 1_655 S
C1721 C1725 1.397 . S
C1722 C1720 1.394 . S
C1722 C1723 1.369 1_455 S
C1722 C1726 1.531 . S
C1723 C1722 1.369 1_655 S
C1723 C1724 1.410 . S
C1723 C1731 1.503 . S
C1724 C1723 1.410 . S
C1724 C1725 1.392 . S
C1724 C1727 1.511 . S
C1725 C1721 1.397 . S
C1725 C1724 1.392 . S
C1725 H1737 0.929 . S
C1726 C1722 1.531 . S
C1726 H1738 0.960 . S
C1726 H1739 0.962 . S
C1726 H1740 0.960 . S
C1727 C1724 1.511 . S
C1727 H1741 0.961 . S
C1727 H1742 0.961 . S
C1727 H1743 0.961 . S
C1728 C1729 1.370 1_455 S
C1728 C1730 1.363 . S
C1728 H1744 0.931 . S
C1729 C1728 1.370 1_655 S
C1729 C1733 1.408 . S
C1730 C1728 1.363 . S
C1730 C1731 1.370 1_455 S
C1730 C1734 1.524 . S
C1731 C1723 1.503 . S
C1731 C1730 1.370 1_655 S
C1731 C1732 1.403 . S
C1732 C1731 1.403 . S
C1732 C1733 1.404 . S
C1732 C1735 1.539 . S
C1733 C1729 1.408 . S
C1733 C1732 1.404 . S
C1733 H1745 0.930 . S
C1734 C1730 1.524 . S
C1734 H1746 0.956 . S
C1734 H1747 0.961 . S
C1734 H1748 0.961 . S
C1735 C1732 1.539 . S
C1735 H1749 0.958 . S
C1735 H1750 0.961 . S
C1735 H1751 0.960 . S
H1736 C1720 0.931 . S
H1737 C1725 0.929 . S
H1738 C1726 0.960 . S
H1739 C1726 0.962 . S
H1740 C1726 0.960 . S
H1741 C1727 0.961 . S
H1742 C1727 0.961 . S
H1743 C1727 0.961 . S
H1744 C1728 0.931 . S
H1745 C1733 0.930 . S
H1746 C1734 0.956 . S
H1747 C1734 0.961 . S
H1748 C1734 0.961 . S
H1749 C1735 0.958 . S
H1750 C1735 0.961 . S
H1751 C1735 0.960 . S
C1752 C1753 1.391 . S
C1752 C1754 1.394 . S
C1752 H1768 0.931 . S
C1753 C1752 1.391 . S
C1753 C1757 1.376 . S
C1754 C1752 1.394 . S
C1754 C1755 1.369 . S
C1754 C1758 1.531 . S
C1755 C1754 1.369 . S
C1755 C1756 1.410 . S
C1755 C1763 1.503 . S
C1756 C1755 1.410 . S
C1756 C1757 1.392 . S
C1756 C1759 1.511 . S
C1757 C1753 1.376 . S
C1757 C1756 1.392 . S
C1757 H1769 0.929 . S
C1758 C1754 1.531 . S
C1758 H1770 0.960 . S
C1758 H1771 0.962 . S
C1758 H1772 0.960 . S
C1759 C1756 1.511 . S
C1759 H1773 0.961 . S
C1759 H1774 0.961 . S
C1759 H1775 0.961 . S
C1760 C1761 1.370 . S
C1760 C1762 1.363 . S
C1760 H1776 0.931 . S
C1761 C1760 1.370 . S
C1761 C1765 1.408 . S
C1762 C1760 1.363 . S
C1762 C1763 1.370 . S
C1762 C1766 1.524 . S
C1763 C1755 1.503 . S
C1763 C1762 1.370 . S
C1763 C1764 1.403 . S
C1764 C1763 1.403 . S
C1764 C1765 1.404 . S
C1764 C1767 1.539 . S
C1765 C1761 1.408 . S
C1765 C1764 1.404 . S
C1765 H1777 0.930 . S
C1766 C1762 1.524 . S
C1766 H1778 0.956 . S
C1766 H1779 0.961 . S
C1766 H1780 0.961 . S
C1767 C1764 1.539 . S
C1767 H1781 0.958 . S
C1767 H1782 0.961 . S
C1767 H1783 0.960 . S
H1768 C1752 0.931 . S
H1769 C1757 0.929 . S
H1770 C1758 0.960 . S
H1771 C1758 0.962 . S
H1772 C1758 0.960 . S
H1773 C1759 0.961 . S
H1774 C1759 0.961 . S
H1775 C1759 0.961 . S
H1776 C1760 0.931 . S
H1777 C1765 0.930 . S
H1778 C1766 0.956 . S
H1779 C1766 0.961 . S
H1780 C1766 0.961 . S
H1781 C1767 0.958 . S
H1782 C1767 0.961 . S
H1783 C1767 0.960 . S
C1784 C1785 1.391 . S
C1784 C1786 1.394 . S
C1784 H1800 0.931 . S
C1785 C1784 1.391 . S
C1785 C1789 1.376 1_565 S
C1786 C1784 1.394 . S
C1786 C1787 1.369 . S
C1786 C1790 1.531 . S
C1787 C1786 1.369 . S
C1787 C1788 1.408 1_565 S
C1787 C1795 1.503 . S
C1788 C1787 1.408 1_545 S
C1788 C1789 1.392 . S
C1788 C1791 1.513 . S
C1789 C1785 1.376 1_545 S
C1789 C1788 1.392 . S
C1789 H1801 0.929 . S
C1790 C1786 1.531 . S
C1790 H1802 0.960 . S
C1790 H1803 0.962 . S
C1790 H1804 0.960 . S
C1791 C1788 1.513 . S
C1791 H1805 0.961 . S
C1791 H1806 0.961 . S
C1791 H1807 0.961 1_545 S
C1792 C1793 1.372 . S
C1792 C1794 1.363 . S
C1792 H1808 0.931 . S
C1793 C1792 1.372 . S
C1793 C1797 1.406 1_545 S
C1794 C1792 1.363 . S
C1794 C1795 1.370 1_545 S
C1794 C1798 1.524 . S
C1795 C1787 1.503 . S
C1795 C1794 1.370 1_565 S
C1795 C1796 1.403 . S
C1796 C1795 1.403 . S
C1796 C1797 1.404 . S
C1796 C1799 1.539 . S
C1797 C1793 1.406 1_565 S
C1797 C1796 1.404 . S
C1797 H1809 0.930 . S
C1798 C1794 1.524 . S
C1798 H1810 0.956 . S
C1798 H1811 0.961 . S
C1798 H1812 0.961 . S
C1799 C1796 1.539 . S
C1799 H1813 0.958 . S
C1799 H1814 0.961 . S
C1799 H1815 0.960 . S
H1800 C1784 0.931 . S
H1801 C1789 0.929 . S
H1802 C1790 0.960 . S
H1803 C1790 0.962 . S
H1804 C1790 0.960 . S
H1805 C1791 0.961 . S
H1806 C1791 0.961 . S
H1807 C1791 0.961 1_565 S
H1808 C1792 0.931 . S
H1809 C1797 0.930 . S
H1810 C1798 0.956 . S
H1811 C1798 0.961 . S
H1812 C1798 0.961 . S
H1813 C1799 0.958 . S
H1814 C1799 0.961 . S
H1815 C1799 0.960 . S
C1816 C1817 1.394 1_455 S
C1816 C1818 1.393 1_455 S
C1816 H1832 0.928 . S
C1817 C1816 1.394 1_655 S
C1817 C1821 1.376 . S
C1818 C1816 1.393 1_655 S
C1818 C1819 1.369 . S
C1818 C1822 1.531 1_655 S
C1819 C1818 1.369 . S
C1819 C1820 1.410 . S
C1819 C1827 1.503 . S
C1820 C1819 1.410 . S
C1820 C1821 1.392 . S
C1820 C1823 1.511 . S
C1821 C1817 1.376 . S
C1821 C1820 1.392 . S
C1821 H1833 0.929 . S
C1822 C1818 1.531 1_455 S
C1822 H1834 0.960 1_455 S
C1822 H1835 0.962 . S
C1822 H1836 0.960 1_455 S
C1823 C1820 1.511 . S
C1823 H1837 0.961 . S
C1823 H1838 0.961 . S
C1823 H1839 0.961 . S
C1824 C1825 1.370 . S
C1824 C1826 1.363 . S
C1824 H1840 0.931 . S
C1825 C1824 1.370 . S
C1825 C1829 1.409 1_455 S
C1826 C1824 1.363 . S
C1826 C1827 1.370 1_455 S
C1826 C1830 1.524 . S
C1827 C1819 1.503 . S
C1827 C1826 1.370 1_655 S
C1827 C1828 1.403 . S
C1828 C1827 1.403 . S
C1828 C1829 1.404 . S
C1828 C1831 1.539 . S
C1829 C1825 1.409 1_655 S
C1829 C1828 1.404 . S
C1829 H1841 0.930 . S
C1830 C1826 1.524 . S
C1830 H1842 0.956 . S
C1830 H1843 0.961 . S
C1830 H1844 0.961 . S
C1831 C1828 1.539 . S
C1831 H1845 0.958 . S
C1831 H1846 0.961 . S
C1831 H1847 0.960 . S
H1832 C1816 0.928 . S
H1833 C1821 0.929 . S
H1834 C1822 0.960 1_655 S
H1835 C1822 0.962 . S
H1836 C1822 0.960 1_655 S
H1837 C1823 0.961 . S
H1838 C1823 0.961 . S
H1839 C1823 0.961 . S
H1840 C1824 0.931 . S
H1841 C1829 0.930 . S
H1842 C1830 0.956 . S
H1843 C1830 0.961 . S
H1844 C1830 0.961 . S
H1845 C1831 0.958 . S
H1846 C1831 0.961 . S
H1847 C1831 0.960 . S
C1848 C1849 1.391 . S
C1848 C1850 1.394 . S
C1848 H1864 0.931 . S
C1849 C1848 1.391 . S
C1849 C1853 1.376 . S
C1850 C1848 1.394 . S
C1850 C1851 1.369 . S
C1850 C1854 1.531 . S
C1851 C1850 1.369 . S
C1851 C1852 1.410 . S
C1851 C1859 1.503 . S
C1852 C1851 1.410 . S
C1852 C1853 1.392 . S
C1852 C1855 1.511 . S
C1853 C1849 1.376 . S
C1853 C1852 1.392 . S
C1853 H1865 0.929 . S
C1854 C1850 1.531 . S
C1854 H1866 0.960 . S
C1854 H1867 0.962 . S
C1854 H1868 0.960 . S
C1855 C1852 1.511 . S
C1855 H1869 0.961 . S
C1855 H1870 0.961 . S
C1855 H1871 0.961 . S
C1856 C1857 1.370 . S
C1856 C1858 1.363 . S
C1856 H1872 0.931 . S
C1857 C1856 1.370 . S
C1857 C1861 1.408 . S
C1858 C1856 1.363 . S
C1858 C1859 1.370 . S
C1858 C1862 1.524 . S
C1859 C1851 1.503 . S
C1859 C1858 1.370 . S
C1859 C1860 1.403 . S
C1860 C1859 1.403 . S
C1860 C1861 1.404 . S
C1860 C1863 1.539 . S
C1861 C1857 1.408 . S
C1861 C1860 1.404 . S
C1861 H1873 0.930 . S
C1862 C1858 1.524 . S
C1862 H1874 0.956 . S
C1862 H1875 0.961 . S
C1862 H1876 0.961 . S
C1863 C1860 1.539 . S
C1863 H1877 0.958 . S
C1863 H1878 0.961 . S
C1863 H1879 0.960 . S
H1864 C1848 0.931 . S
H1865 C1853 0.929 . S
H1866 C1854 0.960 . S
H1867 C1854 0.962 . S
H1868 C1854 0.960 . S
H1869 C1855 0.961 . S
H1870 C1855 0.961 . S
H1871 C1855 0.961 . S
H1872 C1856 0.931 . S
H1873 C1861 0.930 . S
H1874 C1862 0.956 . S
H1875 C1862 0.961 . S
H1876 C1862 0.961 . S
H1877 C1863 0.958 . S
H1878 C1863 0.961 . S
H1879 C1863 0.960 . S
C1880 C1881 1.391 . S
C1880 C1882 1.394 . S
C1880 H1896 0.931 . S
C1881 C1880 1.391 . S
C1881 C1885 1.376 . S
C1882 C1880 1.394 . S
C1882 C1883 1.369 . S
C1882 C1886 1.531 . S
C1883 C1882 1.369 . S
C1883 C1884 1.410 . S
C1883 C1891 1.503 . S
C1884 C1883 1.410 . S
C1884 C1885 1.392 . S
C1884 C1887 1.511 . S
C1885 C1881 1.376 . S
C1885 C1884 1.392 . S
C1885 H1897 0.929 . S
C1886 C1882 1.531 . S
C1886 H1898 0.960 . S
C1886 H1899 0.962 . S
C1886 H1900 0.960 . S
C1887 C1884 1.511 . S
C1887 H1901 0.961 . S
C1887 H1902 0.961 . S
C1887 H1903 0.961 . S
C1888 C1889 1.370 . S
C1888 C1890 1.363 . S
C1888 H1904 0.931 . S
C1889 C1888 1.370 . S
C1889 C1893 1.408 . S
C1890 C1888 1.363 . S
C1890 C1891 1.370 . S
C1890 C1894 1.524 . S
C1891 C1883 1.503 . S
C1891 C1890 1.370 . S
C1891 C1892 1.403 . S
C1892 C1891 1.403 . S
C1892 C1893 1.404 . S
C1892 C1895 1.539 . S
C1893 C1889 1.408 . S
C1893 C1892 1.404 . S
C1893 H1905 0.930 . S
C1894 C1890 1.524 . S
C1894 H1906 0.956 . S
C1894 H1907 0.961 . S
C1894 H1908 0.961 . S
C1895 C1892 1.539 . S
C1895 H1909 0.958 . S
C1895 H1910 0.961 . S
C1895 H1911 0.960 . S
H1896 C1880 0.931 . S
H1897 C1885 0.929 . S
H1898 C1886 0.960 . S
H1899 C1886 0.962 . S
H1900 C1886 0.960 . S
H1901 C1887 0.961 . S
H1902 C1887 0.961 . S
H1903 C1887 0.961 . S
H1904 C1888 0.931 . S
H1905 C1893 0.930 . S
H1906 C1894 0.956 . S
H1907 C1894 0.961 . S
H1908 C1894 0.961 . S
H1909 C1895 0.958 . S
H1910 C1895 0.961 . S
H1911 C1895 0.960 . S
C1912 C1913 1.391 . S
C1912 C1914 1.394 . S
C1912 H1928 0.931 . S
C1913 C1912 1.391 . S
C1913 C1917 1.376 . S
C1914 C1912 1.394 . S
C1914 C1915 1.369 . S
C1914 C1918 1.531 . S
C1915 C1914 1.369 . S
C1915 C1916 1.410 . S
C1915 C1923 1.503 . S
C1916 C1915 1.410 . S
C1916 C1917 1.392 . S
C1916 C1919 1.511 . S
C1917 C1913 1.376 . S
C1917 C1916 1.392 . S
C1917 H1929 0.929 . S
C1918 C1914 1.531 . S
C1918 H1930 0.960 . S
C1918 H1931 0.962 . S
C1918 H1932 0.960 . S
C1919 C1916 1.511 . S
C1919 H1933 0.961 . S
C1919 H1934 0.961 . S
C1919 H1935 0.961 . S
C1920 C1921 1.370 . S
C1920 C1922 1.363 . S
C1920 H1936 0.931 . S
C1921 C1920 1.370 . S
C1921 C1925 1.408 . S
C1922 C1920 1.363 . S
C1922 C1923 1.370 . S
C1922 C1926 1.524 . S
C1923 C1915 1.503 . S
C1923 C1922 1.370 . S
C1923 C1924 1.403 . S
C1924 C1923 1.403 . S
C1924 C1925 1.404 . S
C1924 C1927 1.539 . S
C1925 C1921 1.408 . S
C1925 C1924 1.404 . S
C1925 H1937 0.930 . S
C1926 C1922 1.524 . S
C1926 H1938 0.956 . S
C1926 H1939 0.961 . S
C1926 H1940 0.961 . S
C1927 C1924 1.539 . S
C1927 H1941 0.958 . S
C1927 H1942 0.961 . S
C1927 H1943 0.960 . S
H1928 C1912 0.931 . S
H1929 C1917 0.929 . S
H1930 C1918 0.960 . S
H1931 C1918 0.962 . S
H1932 C1918 0.960 . S
H1933 C1919 0.961 . S
H1934 C1919 0.961 . S
H1935 C1919 0.961 . S
H1936 C1920 0.931 . S
H1937 C1925 0.930 . S
H1938 C1926 0.956 . S
H1939 C1926 0.961 . S
H1940 C1926 0.961 . S
H1941 C1927 0.958 . S
H1942 C1927 0.961 . S
H1943 C1927 0.960 . S
C1944 C1945 1.391 . S
C1944 C1946 1.394 . S
C1944 H1960 0.931 . S
C1945 C1944 1.391 . S
C1945 C1949 1.376 . S
C1946 C1944 1.394 . S
C1946 C1947 1.369 . S
C1946 C1950 1.531 . S
C1947 C1946 1.369 . S
C1947 C1948 1.410 . S
C1947 C1955 1.503 . S
C1948 C1947 1.410 . S
C1948 C1949 1.392 . S
C1948 C1951 1.511 . S
C1949 C1945 1.376 . S
C1949 C1948 1.392 . S
C1949 H1961 0.929 . S
C1950 C1946 1.531 . S
C1950 H1962 0.960 . S
C1950 H1963 0.962 . S
C1950 H1964 0.960 . S
C1951 C1948 1.511 . S
C1951 H1965 0.961 . S
C1951 H1966 0.961 . S
C1951 H1967 0.961 . S
C1952 C1953 1.370 . S
C1952 C1954 1.363 . S
C1952 H1968 0.931 . S
C1953 C1952 1.370 . S
C1953 C1957 1.408 . S
C1954 C1952 1.363 . S
C1954 C1955 1.370 . S
C1954 C1958 1.524 . S
C1955 C1947 1.503 . S
C1955 C1954 1.370 . S
C1955 C1956 1.403 . S
C1956 C1955 1.403 . S
C1956 C1957 1.404 . S
C1956 C1959 1.539 . S
C1957 C1953 1.408 . S
C1957 C1956 1.404 . S
C1957 H1969 0.930 . S
C1958 C1954 1.524 . S
C1958 H1970 0.956 . S
C1958 H1971 0.961 . S
C1958 H1972 0.961 . S
C1959 C1956 1.539 . S
C1959 H1973 0.958 . S
C1959 H1974 0.961 . S
C1959 H1975 0.960 . S
H1960 C1944 0.931 . S
H1961 C1949 0.929 . S
H1962 C1950 0.960 . S
H1963 C1950 0.962 . S
H1964 C1950 0.960 . S
H1965 C1951 0.961 . S
H1966 C1951 0.961 . S
H1967 C1951 0.961 . S
H1968 C1952 0.931 . S
H1969 C1957 0.930 . S
H1970 C1958 0.956 . S
H1971 C1958 0.961 . S
H1972 C1958 0.961 . S
H1973 C1959 0.958 . S
H1974 C1959 0.961 . S
H1975 C1959 0.960 . S
C1976 C1977 1.391 . S
C1976 C1978 1.394 . S
C1976 H1992 0.931 . S
C1977 C1976 1.391 . S
C1977 C1981 1.376 . S
C1978 C1976 1.394 . S
C1978 C1979 1.369 . S
C1978 C1982 1.531 . S
C1979 C1978 1.369 . S
C1979 C1980 1.410 . S
C1979 C1987 1.503 . S
C1980 C1979 1.410 . S
C1980 C1981 1.392 . S
C1980 C1983 1.511 . S
C1981 C1977 1.376 . S
C1981 C1980 1.392 . S
C1981 H1993 0.929 . S
C1982 C1978 1.531 . S
C1982 H1994 0.960 . S
C1982 H1995 0.962 . S
C1982 H1996 0.960 . S
C1983 C1980 1.511 . S
C1983 H1997 0.961 . S
C1983 H1998 0.961 . S
C1983 H1999 0.961 . S
C1984 C1985 1.370 . S
C1984 C1986 1.363 . S
C1984 H2000 0.931 . S
C1985 C1984 1.370 . S
C1985 C1989 1.408 . S
C1986 C1984 1.363 . S
C1986 C1987 1.370 . S
C1986 C1990 1.524 . S
C1987 C1979 1.503 . S
C1987 C1986 1.370 . S
C1987 C1988 1.403 . S
C1988 C1987 1.403 . S
C1988 C1989 1.404 . S
C1988 C1991 1.539 . S
C1989 C1985 1.408 . S
C1989 C1988 1.404 . S
C1989 H2001 0.930 . S
C1990 C1986 1.524 . S
C1990 H2002 0.956 . S
C1990 H2003 0.961 . S
C1990 H2004 0.961 . S
C1991 C1988 1.539 . S
C1991 H2005 0.958 . S
C1991 H2006 0.961 . S
C1991 H2007 0.960 . S
H1992 C1976 0.931 . S
H1993 C1981 0.929 . S
H1994 C1982 0.960 . S
H1995 C1982 0.962 . S
H1996 C1982 0.960 . S
H1997 C1983 0.961 . S
H1998 C1983 0.961 . S
H1999 C1983 0.961 . S
H2000 C1984 0.931 . S
H2001 C1989 0.930 . S
H2002 C1990 0.956 . S
H2003 C1990 0.961 . S
H2004 C1990 0.961 . S
H2005 C1991 0.958 . S
H2006 C1991 0.961 . S
H2007 C1991 0.960 . S
C2008 C2009 1.391 . S
C2008 C2010 1.394 . S
C2008 H2024 0.931 . S
C2009 C2008 1.391 . S
C2009 C2013 1.376 . S
C2010 C2008 1.394 . S
C2010 C2011 1.369 . S
C2010 C2014 1.531 . S
C2011 C2010 1.369 . S
C2011 C2012 1.410 . S
C2011 C2019 1.503 . S
C2012 C2011 1.410 . S
C2012 C2013 1.392 . S
C2012 C2015 1.511 . S
C2013 C2009 1.376 . S
C2013 C2012 1.392 . S
C2013 H2025 0.929 . S
C2014 C2010 1.531 . S
C2014 H2026 0.960 . S
C2014 H2027 0.962 . S
C2014 H2028 0.960 . S
C2015 C2012 1.511 . S
C2015 H2029 0.961 . S
C2015 H2030 0.961 . S
C2015 H2031 0.961 . S
C2016 C2017 1.370 . S
C2016 C2018 1.363 . S
C2016 H2032 0.931 . S
C2017 C2016 1.370 . S
C2017 C2021 1.408 . S
C2018 C2016 1.363 . S
C2018 C2019 1.370 . S
C2018 C2022 1.524 . S
C2019 C2011 1.503 . S
C2019 C2018 1.370 . S
C2019 C2020 1.403 . S
C2020 C2019 1.403 . S
C2020 C2021 1.404 . S
C2020 C2023 1.539 . S
C2021 C2017 1.408 . S
C2021 C2020 1.404 . S
C2021 H2033 0.930 . S
C2022 C2018 1.524 . S
C2022 H2034 0.956 . S
C2022 H2035 0.961 . S
C2022 H2036 0.961 . S
C2023 C2020 1.539 . S
C2023 H2037 0.958 . S
C2023 H2038 0.961 . S
C2023 H2039 0.960 . S
H2024 C2008 0.931 . S
H2025 C2013 0.929 . S
H2026 C2014 0.960 . S
H2027 C2014 0.962 . S
H2028 C2014 0.960 . S
H2029 C2015 0.961 . S
H2030 C2015 0.961 . S
H2031 C2015 0.961 . S
H2032 C2016 0.931 . S
H2033 C2021 0.930 . S
H2034 C2022 0.956 . S
H2035 C2022 0.961 . S
H2036 C2022 0.961 . S
H2037 C2023 0.958 . S
H2038 C2023 0.961 . S
H2039 C2023 0.960 . S
C2040 C2041 1.391 . S
C2040 C2042 1.394 . S
C2040 H2056 0.931 . S
C2041 C2040 1.391 . S
C2041 C2045 1.376 . S
C2042 C2040 1.394 . S
C2042 C2043 1.369 . S
C2042 C2046 1.531 . S
C2043 C2042 1.369 . S
C2043 C2044 1.410 . S
C2043 C2051 1.503 . S
C2044 C2043 1.410 . S
C2044 C2045 1.392 . S
C2044 C2047 1.511 . S
C2045 C2041 1.376 . S
C2045 C2044 1.392 . S
C2045 H2057 0.929 . S
C2046 C2042 1.531 . S
C2046 H2058 0.960 . S
C2046 H2059 0.962 . S
C2046 H2060 0.960 . S
C2047 C2044 1.511 . S
C2047 H2061 0.961 . S
C2047 H2062 0.961 . S
C2047 H2063 0.961 . S
C2048 C2049 1.370 . S
C2048 C2050 1.363 . S
C2048 H2064 0.931 . S
C2049 C2048 1.370 . S
C2049 C2053 1.408 . S
C2050 C2048 1.363 . S
C2050 C2051 1.370 . S
C2050 C2054 1.524 . S
C2051 C2043 1.503 . S
C2051 C2050 1.370 . S
C2051 C2052 1.403 . S
C2052 C2051 1.403 . S
C2052 C2053 1.404 . S
C2052 C2055 1.539 . S
C2053 C2049 1.408 . S
C2053 C2052 1.404 . S
C2053 H2065 0.930 . S
C2054 C2050 1.524 . S
C2054 H2066 0.956 . S
C2054 H2067 0.961 . S
C2054 H2068 0.961 . S
C2055 C2052 1.539 . S
C2055 H2069 0.958 . S
C2055 H2070 0.961 . S
C2055 H2071 0.960 . S
H2056 C2040 0.931 . S
H2057 C2045 0.929 . S
H2058 C2046 0.960 . S
H2059 C2046 0.962 . S
H2060 C2046 0.960 . S
H2061 C2047 0.961 . S
H2062 C2047 0.961 . S
H2063 C2047 0.961 . S
H2064 C2048 0.931 . S
H2065 C2053 0.930 . S
H2066 C2054 0.956 . S
H2067 C2054 0.961 . S
H2068 C2054 0.961 . S
H2069 C2055 0.958 . S
H2070 C2055 0.961 . S
H2071 C2055 0.960 . S
C2072 C2073 1.391 . S
C2072 C2074 1.394 . S
C2072 H2088 0.931 . S
C2073 C2072 1.391 . S
C2073 C2077 1.376 . S
C2074 C2072 1.394 . S
C2074 C2075 1.369 . S
C2074 C2078 1.531 . S
C2075 C2074 1.369 . S
C2075 C2076 1.410 . S
C2075 C2083 1.503 . S
C2076 C2075 1.410 . S
C2076 C2077 1.392 . S
C2076 C2079 1.511 . S
C2077 C2073 1.376 . S
C2077 C2076 1.392 . S
C2077 H2089 0.929 . S
C2078 C2074 1.531 . S
C2078 H2090 0.960 . S
C2078 H2091 0.962 . S
C2078 H2092 0.960 . S
C2079 C2076 1.511 . S
C2079 H2093 0.961 . S
C2079 H2094 0.961 . S
C2079 H2095 0.961 . S
C2080 C2081 1.370 . S
C2080 C2082 1.363 . S
C2080 H2096 0.931 . S
C2081 C2080 1.370 . S
C2081 C2085 1.408 . S
C2082 C2080 1.363 . S
C2082 C2083 1.370 . S
C2082 C2086 1.524 . S
C2083 C2075 1.503 . S
C2083 C2082 1.370 . S
C2083 C2084 1.403 . S
C2084 C2083 1.403 . S
C2084 C2085 1.404 . S
C2084 C2087 1.539 . S
C2085 C2081 1.408 . S
C2085 C2084 1.404 . S
C2085 H2097 0.930 . S
C2086 C2082 1.524 . S
C2086 H2098 0.956 . S
C2086 H2099 0.961 . S
C2086 H2100 0.961 . S
C2087 C2084 1.539 . S
C2087 H2101 0.958 . S
C2087 H2102 0.961 . S
C2087 H2103 0.960 . S
H2088 C2072 0.931 . S
H2089 C2077 0.929 . S
H2090 C2078 0.960 . S
H2091 C2078 0.962 . S
H2092 C2078 0.960 . S
H2093 C2079 0.961 . S
H2094 C2079 0.961 . S
H2095 C2079 0.961 . S
H2096 C2080 0.931 . S
H2097 C2085 0.930 . S
H2098 C2086 0.956 . S
H2099 C2086 0.961 . S
H2100 C2086 0.961 . S
H2101 C2087 0.958 . S
H2102 C2087 0.961 . S
H2103 C2087 0.960 . S
C2104 C2105 1.391 . S
C2104 C2106 1.394 . S
C2104 H2120 0.931 . S
C2105 C2104 1.391 . S
C2105 C2109 1.376 . S
C2106 C2104 1.394 . S
C2106 C2107 1.369 . S
C2106 C2110 1.531 . S
C2107 C2106 1.369 . S
C2107 C2108 1.410 . S
C2107 C2115 1.503 . S
C2108 C2107 1.410 . S
C2108 C2109 1.392 . S
C2108 C2111 1.511 . S
C2109 C2105 1.376 . S
C2109 C2108 1.392 . S
C2109 H2121 0.929 . S
C2110 C2106 1.531 . S
C2110 H2122 0.960 . S
C2110 H2123 0.962 . S
C2110 H2124 0.960 . S
C2111 C2108 1.511 . S
C2111 H2125 0.961 . S
C2111 H2126 0.961 . S
C2111 H2127 0.961 . S
C2112 C2113 1.370 . S
C2112 C2114 1.363 . S
C2112 H2128 0.931 . S
C2113 C2112 1.370 . S
C2113 C2117 1.408 . S
C2114 C2112 1.363 . S
C2114 C2115 1.370 . S
C2114 C2118 1.524 . S
C2115 C2107 1.503 . S
C2115 C2114 1.370 . S
C2115 C2116 1.403 . S
C2116 C2115 1.403 . S
C2116 C2117 1.404 . S
C2116 C2119 1.539 . S
C2117 C2113 1.408 . S
C2117 C2116 1.404 . S
C2117 H2129 0.930 . S
C2118 C2114 1.524 . S
C2118 H2130 0.956 . S
C2118 H2131 0.961 . S
C2118 H2132 0.961 . S
C2119 C2116 1.539 . S
C2119 H2133 0.958 . S
C2119 H2134 0.961 . S
C2119 H2135 0.960 . S
H2120 C2104 0.931 . S
H2121 C2109 0.929 . S
H2122 C2110 0.960 . S
H2123 C2110 0.962 . S
H2124 C2110 0.960 . S
H2125 C2111 0.961 . S
H2126 C2111 0.961 . S
H2127 C2111 0.961 . S
H2128 C2112 0.931 . S
H2129 C2117 0.930 . S
H2130 C2118 0.956 . S
H2131 C2118 0.961 . S
H2132 C2118 0.961 . S
H2133 C2119 0.958 . S
H2134 C2119 0.961 . S
H2135 C2119 0.960 . S
C2136 C2137 1.391 . S
C2136 C2138 1.394 . S
C2136 H2152 0.931 . S
C2137 C2136 1.391 . S
C2137 C2141 1.376 . S
C2138 C2136 1.394 . S
C2138 C2139 1.369 . S
C2138 C2142 1.531 . S
C2139 C2138 1.369 . S
C2139 C2140 1.410 . S
C2139 C2147 1.503 . S
C2140 C2139 1.410 . S
C2140 C2141 1.392 . S
C2140 C2143 1.511 . S
C2141 C2137 1.376 . S
C2141 C2140 1.392 . S
C2141 H2153 0.929 . S
C2142 C2138 1.531 . S
C2142 H2154 0.960 . S
C2142 H2155 0.962 . S
C2142 H2156 0.960 . S
C2143 C2140 1.511 . S
C2143 H2157 0.961 . S
C2143 H2158 0.961 . S
C2143 H2159 0.961 . S
C2144 C2145 1.370 . S
C2144 C2146 1.363 . S
C2144 H2160 0.931 . S
C2145 C2144 1.370 . S
C2145 C2149 1.408 . S
C2146 C2144 1.363 . S
C2146 C2147 1.370 . S
C2146 C2150 1.524 . S
C2147 C2139 1.503 . S
C2147 C2146 1.370 . S
C2147 C2148 1.403 . S
C2148 C2147 1.403 . S
C2148 C2149 1.404 . S
C2148 C2151 1.539 . S
C2149 C2145 1.408 . S
C2149 C2148 1.404 . S
C2149 H2161 0.930 . S
C2150 C2146 1.524 . S
C2150 H2162 0.956 . S
C2150 H2163 0.961 . S
C2150 H2164 0.961 . S
C2151 C2148 1.539 . S
C2151 H2165 0.958 . S
C2151 H2166 0.961 . S
C2151 H2167 0.960 . S
H2152 C2136 0.931 . S
H2153 C2141 0.929 . S
H2154 C2142 0.960 . S
H2155 C2142 0.962 . S
H2156 C2142 0.960 . S
H2157 C2143 0.961 . S
H2158 C2143 0.961 . S
H2159 C2143 0.961 . S
H2160 C2144 0.931 . S
H2161 C2149 0.930 . S
H2162 C2150 0.956 . S
H2163 C2150 0.961 . S
H2164 C2150 0.961 . S
H2165 C2151 0.958 . S
H2166 C2151 0.961 . S
H2167 C2151 0.960 . S
C2168 C2169 1.391 . S
C2168 C2170 1.394 . S
C2168 H2184 0.931 . S
C2169 C2168 1.391 . S
C2169 C2173 1.376 . S
C2170 C2168 1.394 . S
C2170 C2171 1.369 . S
C2170 C2174 1.531 . S
C2171 C2170 1.369 . S
C2171 C2172 1.410 . S
C2171 C2179 1.503 . S
C2172 C2171 1.410 . S
C2172 C2173 1.392 . S
C2172 C2175 1.511 . S
C2173 C2169 1.376 . S
C2173 C2172 1.392 . S
C2173 H2185 0.929 . S
C2174 C2170 1.531 . S
C2174 H2186 0.960 . S
C2174 H2187 0.962 . S
C2174 H2188 0.960 . S
C2175 C2172 1.511 . S
C2175 H2189 0.961 . S
C2175 H2190 0.961 . S
C2175 H2191 0.961 . S
C2176 C2177 1.370 . S
C2176 C2178 1.363 . S
C2176 H2192 0.931 . S
C2177 C2176 1.370 . S
C2177 C2181 1.408 . S
C2178 C2176 1.363 . S
C2178 C2179 1.370 . S
C2178 C2182 1.524 . S
C2179 C2171 1.503 . S
C2179 C2178 1.370 . S
C2179 C2180 1.403 . S
C2180 C2179 1.403 . S
C2180 C2181 1.404 . S
C2180 C2183 1.539 . S
C2181 C2177 1.408 . S
C2181 C2180 1.404 . S
C2181 H2193 0.930 . S
C2182 C2178 1.524 . S
C2182 H2194 0.956 . S
C2182 H2195 0.961 . S
C2182 H2196 0.961 . S
C2183 C2180 1.539 . S
C2183 H2197 0.958 . S
C2183 H2198 0.961 . S
C2183 H2199 0.960 . S
H2184 C2168 0.931 . S
H2185 C2173 0.929 . S
H2186 C2174 0.960 . S
H2187 C2174 0.962 . S
H2188 C2174 0.960 . S
H2189 C2175 0.961 . S
H2190 C2175 0.961 . S
H2191 C2175 0.961 . S
H2192 C2176 0.931 . S
H2193 C2181 0.930 . S
H2194 C2182 0.956 . S
H2195 C2182 0.961 . S
H2196 C2182 0.961 . S
H2197 C2183 0.958 . S
H2198 C2183 0.961 . S
H2199 C2183 0.960 . S
C2200 C2201 1.391 . S
C2200 C2202 1.394 . S
C2200 H2216 0.931 . S
C2201 C2200 1.391 . S
C2201 C2205 1.376 . S
C2202 C2200 1.394 . S
C2202 C2203 1.369 . S
C2202 C2206 1.531 . S
C2203 C2202 1.369 . S
C2203 C2204 1.410 . S
C2203 C2211 1.503 . S
C2204 C2203 1.410 . S
C2204 C2205 1.392 . S
C2204 C2207 1.511 . S
C2205 C2201 1.376 . S
C2205 C2204 1.392 . S
C2205 H2217 0.929 . S
C2206 C2202 1.531 . S
C2206 H2218 0.960 . S
C2206 H2219 0.962 . S
C2206 H2220 0.960 . S
C2207 C2204 1.511 . S
C2207 H2221 0.961 . S
C2207 H2222 0.961 . S
C2207 H2223 0.961 . S
C2208 C2209 1.370 . S
C2208 C2210 1.363 . S
C2208 H2224 0.931 . S
C2209 C2208 1.370 . S
C2209 C2213 1.408 . S
C2210 C2208 1.363 . S
C2210 C2211 1.370 . S
C2210 C2214 1.524 . S
C2211 C2203 1.503 . S
C2211 C2210 1.370 . S
C2211 C2212 1.403 . S
C2212 C2211 1.403 . S
C2212 C2213 1.404 . S
C2212 C2215 1.539 . S
C2213 C2209 1.408 . S
C2213 C2212 1.404 . S
C2213 H2225 0.930 . S
C2214 C2210 1.524 . S
C2214 H2226 0.956 . S
C2214 H2227 0.961 . S
C2214 H2228 0.961 . S
C2215 C2212 1.539 . S
C2215 H2229 0.958 . S
C2215 H2230 0.961 . S
C2215 H2231 0.960 . S
H2216 C2200 0.931 . S
H2217 C2205 0.929 . S
H2218 C2206 0.960 . S
H2219 C2206 0.962 . S
H2220 C2206 0.960 . S
H2221 C2207 0.961 . S
H2222 C2207 0.961 . S
H2223 C2207 0.961 . S
H2224 C2208 0.931 . S
H2225 C2213 0.930 . S
H2226 C2214 0.956 . S
H2227 C2214 0.961 . S
H2228 C2214 0.961 . S
H2229 C2215 0.958 . S
H2230 C2215 0.961 . S
H2231 C2215 0.960 . S
C2232 C2233 1.391 . S
C2232 C2234 1.394 . S
C2232 H2248 0.931 . S
C2233 C2232 1.391 . S
C2233 C2237 1.376 . S
C2234 C2232 1.394 . S
C2234 C2235 1.369 . S
C2234 C2238 1.531 . S
C2235 C2234 1.369 . S
C2235 C2236 1.410 . S
C2235 C2243 1.503 . S
C2236 C2235 1.410 . S
C2236 C2237 1.392 . S
C2236 C2239 1.511 . S
C2237 C2233 1.376 . S
C2237 C2236 1.392 . S
C2237 H2249 0.929 . S
C2238 C2234 1.531 . S
C2238 H2250 0.960 . S
C2238 H2251 0.962 . S
C2238 H2252 0.960 . S
C2239 C2236 1.511 . S
C2239 H2253 0.961 . S
C2239 H2254 0.961 . S
C2239 H2255 0.961 . S
C2240 C2241 1.370 . S
C2240 C2242 1.363 . S
C2240 H2256 0.931 . S
C2241 C2240 1.370 . S
C2241 C2245 1.408 . S
C2242 C2240 1.363 . S
C2242 C2243 1.370 . S
C2242 C2246 1.524 . S
C2243 C2235 1.503 . S
C2243 C2242 1.370 . S
C2243 C2244 1.403 . S
C2244 C2243 1.403 . S
C2244 C2245 1.404 . S
C2244 C2247 1.539 . S
C2245 C2241 1.408 . S
C2245 C2244 1.404 . S
C2245 H2257 0.930 . S
C2246 C2242 1.524 . S
C2246 H2258 0.956 . S
C2246 H2259 0.961 . S
C2246 H2260 0.961 . S
C2247 C2244 1.539 . S
C2247 H2261 0.958 . S
C2247 H2262 0.961 . S
C2247 H2263 0.960 . S
H2248 C2232 0.931 . S
H2249 C2237 0.929 . S
H2250 C2238 0.960 . S
H2251 C2238 0.962 . S
H2252 C2238 0.960 . S
H2253 C2239 0.961 . S
H2254 C2239 0.961 . S
H2255 C2239 0.961 . S
H2256 C2240 0.931 . S
H2257 C2245 0.930 . S
H2258 C2246 0.956 . S
H2259 C2246 0.961 . S
H2260 C2246 0.961 . S
H2261 C2247 0.958 . S
H2262 C2247 0.961 . S
H2263 C2247 0.960 . S
C2264 C2265 1.391 . S
C2264 C2266 1.394 . S
C2264 H2280 0.931 . S
C2265 C2264 1.391 . S
C2265 C2269 1.376 . S
C2266 C2264 1.394 . S
C2266 C2267 1.369 . S
C2266 C2270 1.531 . S
C2267 C2266 1.369 . S
C2267 C2268 1.410 . S
C2267 C2275 1.503 . S
C2268 C2267 1.410 . S
C2268 C2269 1.392 . S
C2268 C2271 1.511 . S
C2269 C2265 1.376 . S
C2269 C2268 1.392 . S
C2269 H2281 0.929 . S
C2270 C2266 1.531 . S
C2270 H2282 0.960 . S
C2270 H2283 0.962 . S
C2270 H2284 0.960 . S
C2271 C2268 1.511 . S
C2271 H2285 0.961 . S
C2271 H2286 0.961 . S
C2271 H2287 0.961 . S
C2272 C2273 1.370 . S
C2272 C2274 1.363 . S
C2272 H2288 0.931 . S
C2273 C2272 1.370 . S
C2273 C2277 1.408 . S
C2274 C2272 1.363 . S
C2274 C2275 1.370 . S
C2274 C2278 1.524 . S
C2275 C2267 1.503 . S
C2275 C2274 1.370 . S
C2275 C2276 1.403 . S
C2276 C2275 1.403 . S
C2276 C2277 1.404 . S
C2276 C2279 1.539 . S
C2277 C2273 1.408 . S
C2277 C2276 1.404 . S
C2277 H2289 0.930 . S
C2278 C2274 1.524 . S
C2278 H2290 0.956 . S
C2278 H2291 0.961 . S
C2278 H2292 0.961 . S
C2279 C2276 1.539 . S
C2279 H2293 0.958 . S
C2279 H2294 0.961 . S
C2279 H2295 0.960 . S
H2280 C2264 0.931 . S
H2281 C2269 0.929 . S
H2282 C2270 0.960 . S
H2283 C2270 0.962 . S
H2284 C2270 0.960 . S
H2285 C2271 0.961 . S
H2286 C2271 0.961 . S
H2287 C2271 0.961 . S
H2288 C2272 0.931 . S
H2289 C2277 0.930 . S
H2290 C2278 0.956 . S
H2291 C2278 0.961 . S
H2292 C2278 0.961 . S
H2293 C2279 0.958 . S
H2294 C2279 0.961 . S
H2295 C2279 0.960 . S
C2296 C2297 1.391 . S
C2296 C2298 1.394 . S
C2296 H2312 0.931 . S
C2297 C2296 1.391 . S
C2297 C2301 1.376 . S
C2298 C2296 1.394 . S
C2298 C2299 1.369 . S
C2298 C2302 1.531 . S
C2299 C2298 1.369 . S
C2299 C2300 1.410 . S
C2299 C2307 1.503 . S
C2300 C2299 1.410 . S
C2300 C2301 1.392 . S
C2300 C2303 1.511 . S
C2301 C2297 1.376 . S
C2301 C2300 1.392 . S
C2301 H2313 0.929 . S
C2302 C2298 1.531 . S
C2302 H2314 0.960 . S
C2302 H2315 0.962 . S
C2302 H2316 0.960 . S
C2303 C2300 1.511 . S
C2303 H2317 0.961 . S
C2303 H2318 0.961 . S
C2303 H2319 0.961 . S
C2304 C2305 1.370 . S
C2304 C2306 1.363 . S
C2304 H2320 0.931 . S
C2305 C2304 1.370 . S
C2305 C2309 1.408 . S
C2306 C2304 1.363 . S
C2306 C2307 1.370 . S
C2306 C2310 1.524 . S
C2307 C2299 1.503 . S
C2307 C2306 1.370 . S
C2307 C2308 1.403 . S
C2308 C2307 1.403 . S
C2308 C2309 1.404 . S
C2308 C2311 1.539 . S
C2309 C2305 1.408 . S
C2309 C2308 1.404 . S
C2309 H2321 0.930 . S
C2310 C2306 1.524 . S
C2310 H2322 0.956 . S
C2310 H2323 0.961 . S
C2310 H2324 0.961 . S
C2311 C2308 1.539 . S
C2311 H2325 0.958 . S
C2311 H2326 0.961 . S
C2311 H2327 0.960 . S
H2312 C2296 0.931 . S
H2313 C2301 0.929 . S
H2314 C2302 0.960 . S
H2315 C2302 0.962 . S
H2316 C2302 0.960 . S
H2317 C2303 0.961 . S
H2318 C2303 0.961 . S
H2319 C2303 0.961 . S
H2320 C2304 0.931 . S
H2321 C2309 0.930 . S
H2322 C2310 0.956 . S
H2323 C2310 0.961 . S
H2324 C2310 0.961 . S
H2325 C2311 0.958 . S
H2326 C2311 0.961 . S
H2327 C2311 0.960 . S
C2328 C2329 1.391 . S
C2328 C2330 1.394 . S
C2328 H2344 0.931 . S
C2329 C2328 1.391 . S
C2329 C2333 1.376 . S
C2330 C2328 1.394 . S
C2330 C2331 1.369 . S
C2330 C2334 1.531 . S
C2331 C2330 1.369 . S
C2331 C2332 1.410 . S
C2331 C2339 1.503 . S
C2332 C2331 1.410 . S
C2332 C2333 1.392 . S
C2332 C2335 1.511 . S
C2333 C2329 1.376 . S
C2333 C2332 1.392 . S
C2333 H2345 0.929 . S
C2334 C2330 1.531 . S
C2334 H2346 0.960 . S
C2334 H2347 0.962 . S
C2334 H2348 0.960 . S
C2335 C2332 1.511 . S
C2335 H2349 0.961 . S
C2335 H2350 0.961 . S
C2335 H2351 0.961 . S
C2336 C2337 1.370 . S
C2336 C2338 1.363 . S
C2336 H2352 0.931 . S
C2337 C2336 1.370 . S
C2337 C2341 1.408 . S
C2338 C2336 1.363 . S
C2338 C2339 1.370 . S
C2338 C2342 1.524 . S
C2339 C2331 1.503 . S
C2339 C2338 1.370 . S
C2339 C2340 1.403 . S
C2340 C2339 1.403 . S
C2340 C2341 1.404 . S
C2340 C2343 1.539 . S
C2341 C2337 1.408 . S
C2341 C2340 1.404 . S
C2341 H2353 0.930 . S
C2342 C2338 1.524 . S
C2342 H2354 0.956 . S
C2342 H2355 0.961 . S
C2342 H2356 0.961 . S
C2343 C2340 1.539 . S
C2343 H2357 0.958 . S
C2343 H2358 0.961 . S
C2343 H2359 0.960 . S
H2344 C2328 0.931 . S
H2345 C2333 0.929 . S
H2346 C2334 0.960 . S
H2347 C2334 0.962 . S
H2348 C2334 0.960 . S
H2349 C2335 0.961 . S
H2350 C2335 0.961 . S
H2351 C2335 0.961 . S
H2352 C2336 0.931 . S
H2353 C2341 0.930 . S
H2354 C2342 0.956 . S
H2355 C2342 0.961 . S
H2356 C2342 0.961 . S
H2357 C2343 0.958 . S
H2358 C2343 0.961 . S
H2359 C2343 0.960 . S
C2360 C2361 1.391 . S
C2360 C2362 1.394 . S
C2360 H2376 0.931 . S
C2361 C2360 1.391 . S
C2361 C2365 1.376 . S
C2362 C2360 1.394 . S
C2362 C2363 1.369 . S
C2362 C2366 1.531 . S
C2363 C2362 1.369 . S
C2363 C2364 1.410 . S
C2363 C2371 1.503 . S
C2364 C2363 1.410 . S
C2364 C2365 1.392 . S
C2364 C2367 1.511 . S
C2365 C2361 1.376 . S
C2365 C2364 1.392 . S
C2365 H2377 0.929 . S
C2366 C2362 1.531 . S
C2366 H2378 0.960 . S
C2366 H2379 0.962 . S
C2366 H2380 0.960 . S
C2367 C2364 1.511 . S
C2367 H2381 0.961 . S
C2367 H2382 0.961 . S
C2367 H2383 0.961 . S
C2368 C2369 1.370 . S
C2368 C2370 1.363 . S
C2368 H2384 0.931 . S
C2369 C2368 1.370 . S
C2369 C2373 1.408 . S
C2370 C2368 1.363 . S
C2370 C2371 1.370 . S
C2370 C2374 1.524 . S
C2371 C2363 1.503 . S
C2371 C2370 1.370 . S
C2371 C2372 1.403 . S
C2372 C2371 1.403 . S
C2372 C2373 1.404 . S
C2372 C2375 1.539 . S
C2373 C2369 1.408 . S
C2373 C2372 1.404 . S
C2373 H2385 0.930 . S
C2374 C2370 1.524 . S
C2374 H2386 0.956 . S
C2374 H2387 0.961 . S
C2374 H2388 0.961 . S
C2375 C2372 1.539 . S
C2375 H2389 0.958 . S
C2375 H2390 0.961 . S
C2375 H2391 0.960 . S
H2376 C2360 0.931 . S
H2377 C2365 0.929 . S
H2378 C2366 0.960 . S
H2379 C2366 0.962 . S
H2380 C2366 0.960 . S
H2381 C2367 0.961 . S
H2382 C2367 0.961 . S
H2383 C2367 0.961 . S
H2384 C2368 0.931 . S
H2385 C2373 0.930 . S
H2386 C2374 0.956 . S
H2387 C2374 0.961 . S
H2388 C2374 0.961 . S
H2389 C2375 0.958 . S
H2390 C2375 0.961 . S
H2391 C2375 0.960 . S
C2392 C2393 1.391 . S
C2392 C2394 1.394 . S
C2392 H2408 0.931 . S
C2393 C2392 1.391 . S
C2393 C2397 1.376 . S
C2394 C2392 1.394 . S
C2394 C2395 1.369 . S
C2394 C2398 1.531 . S
C2395 C2394 1.369 . S
C2395 C2396 1.410 . S
C2395 C2403 1.503 . S
C2396 C2395 1.410 . S
C2396 C2397 1.392 . S
C2396 C2399 1.511 . S
C2397 C2393 1.376 . S
C2397 C2396 1.392 . S
C2397 H2409 0.929 . S
C2398 C2394 1.531 . S
C2398 H2410 0.960 . S
C2398 H2411 0.962 . S
C2398 H2412 0.960 . S
C2399 C2396 1.511 . S
C2399 H2413 0.961 . S
C2399 H2414 0.961 . S
C2399 H2415 0.961 . S
C2400 C2401 1.370 . S
C2400 C2402 1.363 . S
C2400 H2416 0.931 . S
C2401 C2400 1.370 . S
C2401 C2405 1.408 . S
C2402 C2400 1.363 . S
C2402 C2403 1.370 . S
C2402 C2406 1.524 . S
C2403 C2395 1.503 . S
C2403 C2402 1.370 . S
C2403 C2404 1.403 . S
C2404 C2403 1.403 . S
C2404 C2405 1.404 . S
C2404 C2407 1.539 . S
C2405 C2401 1.408 . S
C2405 C2404 1.404 . S
C2405 H2417 0.930 . S
C2406 C2402 1.524 . S
C2406 H2418 0.956 . S
C2406 H2419 0.961 . S
C2406 H2420 0.961 . S
C2407 C2404 1.539 . S
C2407 H2421 0.958 . S
C2407 H2422 0.961 . S
C2407 H2423 0.960 . S
H2408 C2392 0.931 . S
H2409 C2397 0.929 . S
H2410 C2398 0.960 . S
H2411 C2398 0.962 . S
H2412 C2398 0.960 . S
H2413 C2399 0.961 . S
H2414 C2399 0.961 . S
H2415 C2399 0.961 . S
H2416 C2400 0.931 . S
H2417 C2405 0.930 . S
H2418 C2406 0.956 . S
H2419 C2406 0.961 . S
H2420 C2406 0.961 . S
H2421 C2407 0.958 . S
H2422 C2407 0.961 . S
H2423 C2407 0.960 . S
C2424 C2425 1.391 . S
C2424 C2426 1.394 . S
C2424 H2440 0.931 . S
C2425 C2424 1.391 . S
C2425 C2429 1.376 . S
C2426 C2424 1.394 . S
C2426 C2427 1.369 . S
C2426 C2430 1.531 . S
C2427 C2426 1.369 . S
C2427 C2428 1.410 . S
C2427 C2435 1.503 . S
C2428 C2427 1.410 . S
C2428 C2429 1.392 . S
C2428 C2431 1.511 . S
C2429 C2425 1.376 . S
C2429 C2428 1.392 . S
C2429 H2441 0.929 . S
C2430 C2426 1.531 . S
C2430 H2442 0.960 . S
C2430 H2443 0.962 . S
C2430 H2444 0.960 . S
C2431 C2428 1.511 . S
C2431 H2445 0.961 . S
C2431 H2446 0.961 . S
C2431 H2447 0.961 . S
C2432 C2433 1.370 . S
C2432 C2434 1.363 . S
C2432 H2448 0.931 . S
C2433 C2432 1.370 . S
C2433 C2437 1.408 . S
C2434 C2432 1.363 . S
C2434 C2435 1.370 . S
C2434 C2438 1.524 . S
C2435 C2427 1.503 . S
C2435 C2434 1.370 . S
C2435 C2436 1.403 . S
C2436 C2435 1.403 . S
C2436 C2437 1.404 . S
C2436 C2439 1.539 . S
C2437 C2433 1.408 . S
C2437 C2436 1.404 . S
C2437 H2449 0.930 . S
C2438 C2434 1.524 . S
C2438 H2450 0.956 . S
C2438 H2451 0.961 . S
C2438 H2452 0.961 . S
C2439 C2436 1.539 . S
C2439 H2453 0.958 . S
C2439 H2454 0.961 . S
C2439 H2455 0.960 . S
H2440 C2424 0.931 . S
H2441 C2429 0.929 . S
H2442 C2430 0.960 . S
H2443 C2430 0.962 . S
H2444 C2430 0.960 . S
H2445 C2431 0.961 . S
H2446 C2431 0.961 . S
H2447 C2431 0.961 . S
H2448 C2432 0.931 . S
H2449 C2437 0.930 . S
H2450 C2438 0.956 . S
H2451 C2438 0.961 . S
H2452 C2438 0.961 . S
H2453 C2439 0.958 . S
H2454 C2439 0.961 . S
H2455 C2439 0.960 . S
C2456 C2457 1.391 . S
C2456 C2458 1.394 . S
C2456 H2472 0.931 . S
C2457 C2456 1.391 . S
C2457 C2461 1.376 . S
C2458 C2456 1.394 . S
C2458 C2459 1.369 . S
C2458 C2462 1.531 . S
C2459 C2458 1.369 . S
C2459 C2460 1.410 . S
C2459 C2467 1.503 . S
C2460 C2459 1.410 . S
C2460 C2461 1.392 . S
C2460 C2463 1.511 . S
C2461 C2457 1.376 . S
C2461 C2460 1.392 . S
C2461 H2473 0.929 . S
C2462 C2458 1.531 . S
C2462 H2474 0.960 . S
C2462 H2475 0.962 . S
C2462 H2476 0.960 . S
C2463 C2460 1.511 . S
C2463 H2477 0.961 . S
C2463 H2478 0.961 . S
C2463 H2479 0.961 . S
C2464 C2465 1.370 . S
C2464 C2466 1.363 . S
C2464 H2480 0.931 . S
C2465 C2464 1.370 . S
C2465 C2469 1.408 . S
C2466 C2464 1.363 . S
C2466 C2467 1.370 . S
C2466 C2470 1.524 . S
C2467 C2459 1.503 . S
C2467 C2466 1.370 . S
C2467 C2468 1.403 . S
C2468 C2467 1.403 . S
C2468 C2469 1.404 . S
C2468 C2471 1.539 . S
C2469 C2465 1.408 . S
C2469 C2468 1.404 . S
C2469 H2481 0.930 . S
C2470 C2466 1.524 . S
C2470 H2482 0.956 . S
C2470 H2483 0.961 . S
C2470 H2484 0.961 . S
C2471 C2468 1.539 . S
C2471 H2485 0.958 . S
C2471 H2486 0.961 . S
C2471 H2487 0.960 . S
H2472 C2456 0.931 . S
H2473 C2461 0.929 . S
H2474 C2462 0.960 . S
H2475 C2462 0.962 . S
H2476 C2462 0.960 . S
H2477 C2463 0.961 . S
H2478 C2463 0.961 . S
H2479 C2463 0.961 . S
H2480 C2464 0.931 . S
H2481 C2469 0.930 . S
H2482 C2470 0.956 . S
H2483 C2470 0.961 . S
H2484 C2470 0.961 . S
H2485 C2471 0.958 . S
H2486 C2471 0.961 . S
H2487 C2471 0.960 . S
C2488 C2489 1.391 . S
C2488 C2490 1.394 . S
C2488 H2504 0.931 . S
C2489 C2488 1.391 . S
C2489 C2493 1.376 . S
C2490 C2488 1.394 . S
C2490 C2491 1.369 . S
C2490 C2494 1.531 . S
C2491 C2490 1.369 . S
C2491 C2492 1.410 . S
C2491 C2499 1.503 . S
C2492 C2491 1.410 . S
C2492 C2493 1.392 . S
C2492 C2495 1.511 . S
C2493 C2489 1.376 . S
C2493 C2492 1.392 . S
C2493 H2505 0.929 . S
C2494 C2490 1.531 . S
C2494 H2506 0.960 . S
C2494 H2507 0.962 . S
C2494 H2508 0.960 . S
C2495 C2492 1.511 . S
C2495 H2509 0.961 . S
C2495 H2510 0.961 . S
C2495 H2511 0.961 . S
C2496 C2497 1.370 . S
C2496 C2498 1.363 . S
C2496 H2512 0.931 . S
C2497 C2496 1.370 . S
C2497 C2501 1.408 . S
C2498 C2496 1.363 . S
C2498 C2499 1.370 . S
C2498 C2502 1.524 . S
C2499 C2491 1.503 . S
C2499 C2498 1.370 . S
C2499 C2500 1.403 . S
C2500 C2499 1.403 . S
C2500 C2501 1.404 . S
C2500 C2503 1.539 . S
C2501 C2497 1.408 . S
C2501 C2500 1.404 . S
C2501 H2513 0.930 . S
C2502 C2498 1.524 . S
C2502 H2514 0.956 . S
C2502 H2515 0.961 . S
C2502 H2516 0.961 . S
C2503 C2500 1.539 . S
C2503 H2517 0.958 . S
C2503 H2518 0.961 . S
C2503 H2519 0.960 . S
H2504 C2488 0.931 . S
H2505 C2493 0.929 . S
H2506 C2494 0.960 . S
H2507 C2494 0.962 . S
H2508 C2494 0.960 . S
H2509 C2495 0.961 . S
H2510 C2495 0.961 . S
H2511 C2495 0.961 . S
H2512 C2496 0.931 . S
H2513 C2501 0.930 . S
H2514 C2502 0.956 . S
H2515 C2502 0.961 . S
H2516 C2502 0.961 . S
H2517 C2503 0.958 . S
H2518 C2503 0.961 . S
H2519 C2503 0.960 . S
C2520 C2521 1.391 . S
C2520 C2522 1.394 . S
C2520 H2536 0.931 . S
C2521 C2520 1.391 . S
C2521 C2525 1.376 . S
C2522 C2520 1.394 . S
C2522 C2523 1.369 . S
C2522 C2526 1.531 . S
C2523 C2522 1.369 . S
C2523 C2524 1.410 . S
C2523 C2531 1.503 . S
C2524 C2523 1.410 . S
C2524 C2525 1.392 . S
C2524 C2527 1.511 . S
C2525 C2521 1.376 . S
C2525 C2524 1.392 . S
C2525 H2537 0.929 . S
C2526 C2522 1.531 . S
C2526 H2538 0.960 . S
C2526 H2539 0.962 . S
C2526 H2540 0.960 . S
C2527 C2524 1.511 . S
C2527 H2541 0.961 . S
C2527 H2542 0.961 . S
C2527 H2543 0.961 . S
C2528 C2529 1.370 . S
C2528 C2530 1.363 . S
C2528 H2544 0.931 . S
C2529 C2528 1.370 . S
C2529 C2533 1.408 . S
C2530 C2528 1.363 . S
C2530 C2531 1.370 . S
C2530 C2534 1.524 . S
C2531 C2523 1.503 . S
C2531 C2530 1.370 . S
C2531 C2532 1.403 . S
C2532 C2531 1.403 . S
C2532 C2533 1.404 . S
C2532 C2535 1.539 . S
C2533 C2529 1.408 . S
C2533 C2532 1.404 . S
C2533 H2545 0.930 . S
C2534 C2530 1.524 . S
C2534 H2546 0.956 . S
C2534 H2547 0.961 . S
C2534 H2548 0.961 . S
C2535 C2532 1.539 . S
C2535 H2549 0.958 . S
C2535 H2550 0.961 . S
C2535 H2551 0.960 . S
H2536 C2520 0.931 . S
H2537 C2525 0.929 . S
H2538 C2526 0.960 . S
H2539 C2526 0.962 . S
H2540 C2526 0.960 . S
H2541 C2527 0.961 . S
H2542 C2527 0.961 . S
H2543 C2527 0.961 . S
H2544 C2528 0.931 . S
H2545 C2533 0.930 . S
H2546 C2534 0.956 . S
H2547 C2534 0.961 . S
H2548 C2534 0.961 . S
H2549 C2535 0.958 . S
H2550 C2535 0.961 . S
H2551 C2535 0.960 . S
C2552 C2553 1.391 . S
C2552 C2554 1.394 . S
C2552 H2568 0.931 . S
C2553 C2552 1.391 . S
C2553 C2557 1.376 . S
C2554 C2552 1.394 . S
C2554 C2555 1.369 . S
C2554 C2558 1.531 . S
C2555 C2554 1.369 . S
C2555 C2556 1.410 . S
C2555 C2563 1.503 . S
C2556 C2555 1.410 . S
C2556 C2557 1.392 . S
C2556 C2559 1.511 . S
C2557 C2553 1.376 . S
C2557 C2556 1.392 . S
C2557 H2569 0.929 . S
C2558 C2554 1.531 . S
C2558 H2570 0.960 . S
C2558 H2571 0.962 . S
C2558 H2572 0.960 . S
C2559 C2556 1.511 . S
C2559 H2573 0.961 . S
C2559 H2574 0.961 . S
C2559 H2575 0.961 . S
C2560 C2561 1.370 . S
C2560 C2562 1.363 . S
C2560 H2576 0.931 . S
C2561 C2560 1.370 . S
C2561 C2565 1.408 . S
C2562 C2560 1.363 . S
C2562 C2563 1.370 . S
C2562 C2566 1.524 . S
C2563 C2555 1.503 . S
C2563 C2562 1.370 . S
C2563 C2564 1.403 . S
C2564 C2563 1.403 . S
C2564 C2565 1.404 . S
C2564 C2567 1.539 . S
C2565 C2561 1.408 . S
C2565 C2564 1.404 . S
C2565 H2577 0.930 . S
C2566 C2562 1.524 . S
C2566 H2578 0.956 . S
C2566 H2579 0.961 . S
C2566 H2580 0.961 . S
C2567 C2564 1.539 . S
C2567 H2581 0.958 . S
C2567 H2582 0.961 . S
C2567 H2583 0.960 . S
H2568 C2552 0.931 . S
H2569 C2557 0.929 . S
H2570 C2558 0.960 . S
H2571 C2558 0.962 . S
H2572 C2558 0.960 . S
H2573 C2559 0.961 . S
H2574 C2559 0.961 . S
H2575 C2559 0.961 . S
H2576 C2560 0.931 . S
H2577 C2565 0.930 . S
H2578 C2566 0.956 . S
H2579 C2566 0.961 . S
H2580 C2566 0.961 . S
H2581 C2567 0.958 . S
H2582 C2567 0.961 . S
H2583 C2567 0.960 . S
C2584 C2585 1.391 . S
C2584 C2586 1.394 . S
C2584 H2600 0.931 . S
C2585 C2584 1.391 . S
C2585 C2589 1.376 . S
C2586 C2584 1.394 . S
C2586 C2587 1.369 . S
C2586 C2590 1.531 . S
C2587 C2586 1.369 . S
C2587 C2588 1.410 . S
C2587 C2595 1.503 . S
C2588 C2587 1.410 . S
C2588 C2589 1.392 . S
C2588 C2591 1.511 . S
C2589 C2585 1.376 . S
C2589 C2588 1.392 . S
C2589 H2601 0.929 . S
C2590 C2586 1.531 . S
C2590 H2602 0.960 . S
C2590 H2603 0.962 . S
C2590 H2604 0.960 . S
C2591 C2588 1.511 . S
C2591 H2605 0.961 . S
C2591 H2606 0.961 . S
C2591 H2607 0.961 . S
C2592 C2593 1.370 . S
C2592 C2594 1.363 . S
C2592 H2608 0.931 . S
C2593 C2592 1.370 . S
C2593 C2597 1.408 . S
C2594 C2592 1.363 . S
C2594 C2595 1.370 . S
C2594 C2598 1.524 . S
C2595 C2587 1.503 . S
C2595 C2594 1.370 . S
C2595 C2596 1.403 . S
C2596 C2595 1.403 . S
C2596 C2597 1.404 . S
C2596 C2599 1.539 . S
C2597 C2593 1.408 . S
C2597 C2596 1.404 . S
C2597 H2609 0.930 . S
C2598 C2594 1.524 . S
C2598 H2610 0.956 . S
C2598 H2611 0.961 . S
C2598 H2612 0.961 . S
C2599 C2596 1.539 . S
C2599 H2613 0.958 . S
C2599 H2614 0.961 . S
C2599 H2615 0.960 . S
H2600 C2584 0.931 . S
H2601 C2589 0.929 . S
H2602 C2590 0.960 . S
H2603 C2590 0.962 . S
H2604 C2590 0.960 . S
H2605 C2591 0.961 . S
H2606 C2591 0.961 . S
H2607 C2591 0.961 . S
H2608 C2592 0.931 . S
H2609 C2597 0.930 . S
H2610 C2598 0.956 . S
H2611 C2598 0.961 . S
H2612 C2598 0.961 . S
H2613 C2599 0.958 . S
H2614 C2599 0.961 . S
H2615 C2599 0.960 . S
C2616 C2617 1.391 . S
C2616 C2618 1.394 . S
C2616 H2632 0.931 . S
C2617 C2616 1.391 . S
C2617 C2621 1.376 . S
C2618 C2616 1.394 . S
C2618 C2619 1.369 . S
C2618 C2622 1.531 . S
C2619 C2618 1.369 . S
C2619 C2620 1.410 . S
C2619 C2627 1.503 1_455 S
C2620 C2619 1.410 . S
C2620 C2621 1.392 . S
C2620 C2623 1.511 . S
C2621 C2617 1.376 . S
C2621 C2620 1.392 . S
C2621 H2633 0.929 . S
C2622 C2618 1.531 . S
C2622 H2634 0.960 1_455 S
C2622 H2635 0.962 . S
C2622 H2636 0.960 . S
C2623 C2620 1.511 . S
C2623 H2637 0.961 . S
C2623 H2638 0.961 . S
C2623 H2639 0.961 1_455 S
C2624 C2625 1.370 . S
C2624 C2626 1.363 . S
C2624 H2640 0.931 . S
C2625 C2624 1.370 . S
C2625 C2629 1.408 . S
C2626 C2624 1.363 . S
C2626 C2627 1.370 . S
C2626 C2630 1.524 1_655 S
C2627 C2619 1.503 1_655 S
C2627 C2626 1.370 . S
C2627 C2628 1.403 . S
C2628 C2627 1.403 . S
C2628 C2629 1.404 . S
C2628 C2631 1.539 . S
C2629 C2625 1.408 . S
C2629 C2628 1.404 . S
C2629 H2641 0.930 . S
C2630 C2626 1.524 1_455 S
C2630 H2642 0.956 . S
C2630 H2643 0.961 . S
C2630 H2644 0.961 . S
C2631 C2628 1.539 . S
C2631 H2645 0.958 . S
C2631 H2646 0.961 . S
C2631 H2647 0.960 . S
H2632 C2616 0.931 . S
H2633 C2621 0.929 . S
H2634 C2622 0.960 1_655 S
H2635 C2622 0.962 . S
H2636 C2622 0.960 . S
H2637 C2623 0.961 . S
H2638 C2623 0.961 . S
H2639 C2623 0.961 1_655 S
H2640 C2624 0.931 . S
H2641 C2629 0.930 . S
H2642 C2630 0.956 . S
H2643 C2630 0.961 . S
H2644 C2630 0.961 . S
H2645 C2631 0.958 . S
H2646 C2631 0.961 . S
H2647 C2631 0.960 . S
C2648 C2649 1.391 . S
C2648 C2650 1.394 . S
C2648 H2664 0.931 . S
C2649 C2648 1.391 . S
C2649 C2653 1.376 . S
C2650 C2648 1.394 . S
C2650 C2651 1.369 . S
C2650 C2654 1.531 . S
C2651 C2650 1.369 . S
C2651 C2652 1.410 . S
C2651 C2659 1.503 . S
C2652 C2651 1.410 . S
C2652 C2653 1.392 . S
C2652 C2655 1.511 . S
C2653 C2649 1.376 . S
C2653 C2652 1.392 . S
C2653 H2665 0.929 . S
C2654 C2650 1.531 . S
C2654 H2666 0.960 . S
C2654 H2667 0.962 . S
C2654 H2668 0.960 . S
C2655 C2652 1.511 . S
C2655 H2669 0.961 . S
C2655 H2670 0.961 . S
C2655 H2671 0.961 . S
C2656 C2657 1.370 . S
C2656 C2658 1.363 . S
C2656 H2672 0.931 . S
C2657 C2656 1.370 . S
C2657 C2661 1.408 . S
C2658 C2656 1.363 . S
C2658 C2659 1.370 . S
C2658 C2662 1.524 . S
C2659 C2651 1.503 . S
C2659 C2658 1.370 . S
C2659 C2660 1.403 . S
C2660 C2659 1.403 . S
C2660 C2661 1.404 . S
C2660 C2663 1.539 . S
C2661 C2657 1.408 . S
C2661 C2660 1.404 . S
C2661 H2673 0.930 . S
C2662 C2658 1.524 . S
C2662 H2674 0.956 . S
C2662 H2675 0.961 . S
C2662 H2676 0.961 . S
C2663 C2660 1.539 . S
C2663 H2677 0.958 . S
C2663 H2678 0.961 . S
C2663 H2679 0.960 . S
H2664 C2648 0.931 . S
H2665 C2653 0.929 . S
H2666 C2654 0.960 . S
H2667 C2654 0.962 . S
H2668 C2654 0.960 . S
H2669 C2655 0.961 . S
H2670 C2655 0.961 . S
H2671 C2655 0.961 . S
H2672 C2656 0.931 . S
H2673 C2661 0.930 . S
H2674 C2662 0.956 . S
H2675 C2662 0.961 . S
H2676 C2662 0.961 . S
H2677 C2663 0.958 . S
H2678 C2663 0.961 . S
H2679 C2663 0.960 . S
C2680 C2681 1.391 . S
C2680 C2682 1.394 . S
C2680 H2696 0.931 . S
C2681 C2680 1.391 . S
C2681 C2685 1.376 . S
C2682 C2680 1.394 . S
C2682 C2683 1.369 . S
C2682 C2686 1.531 1_545 S
C2683 C2682 1.369 . S
C2683 C2684 1.410 . S
C2683 C2691 1.503 1_545 S
C2684 C2683 1.410 . S
C2684 C2685 1.392 . S
C2684 C2687 1.511 . S
C2685 C2681 1.376 . S
C2685 C2684 1.392 . S
C2685 H2697 0.929 . S
C2686 C2682 1.531 1_565 S
C2686 H2698 0.960 . S
C2686 H2699 0.962 . S
C2686 H2700 0.960 . S
C2687 C2684 1.511 . S
C2687 H2701 0.961 . S
C2687 H2702 0.961 . S
C2687 H2703 0.961 . S
C2688 C2689 1.370 . S
C2688 C2690 1.363 . S
C2688 H2704 0.931 . S
C2689 C2688 1.370 . S
C2689 C2693 1.408 . S
C2690 C2688 1.363 . S
C2690 C2691 1.370 . S
C2690 C2694 1.524 . S
C2691 C2683 1.503 1_565 S
C2691 C2690 1.370 . S
C2691 C2692 1.403 . S
C2692 C2691 1.403 . S
C2692 C2693 1.404 . S
C2692 C2695 1.539 1_565 S
C2693 C2689 1.408 . S
C2693 C2692 1.404 . S
C2693 H2705 0.930 . S
C2694 C2690 1.524 . S
C2694 H2706 0.956 . S
C2694 H2707 0.961 . S
C2694 H2708 0.961 . S
C2695 C2692 1.539 1_545 S
C2695 H2709 0.958 . S
C2695 H2710 0.961 . S
C2695 H2711 0.960 . S
H2696 C2680 0.931 . S
H2697 C2685 0.929 . S
H2698 C2686 0.960 . S
H2699 C2686 0.962 . S
H2700 C2686 0.960 . S
H2701 C2687 0.961 . S
H2702 C2687 0.961 . S
H2703 C2687 0.961 . S
H2704 C2688 0.931 . S
H2705 C2693 0.930 . S
H2706 C2694 0.956 . S
H2707 C2694 0.961 . S
H2708 C2694 0.961 . S
H2709 C2695 0.958 . S
H2710 C2695 0.961 . S
H2711 C2695 0.960 . S
C2712 C2713 1.395 . S
C2712 C2714 1.400 . S
C2712 H2728 0.931 . S
C2713 C2712 1.395 . S
C2713 C2717 1.369 1_556 S
C2714 C2712 1.400 . S
C2714 C2715 1.357 1_556 S
C2714 C2718 1.538 . S
C2715 C2714 1.357 1_554 S
C2715 C2716 1.410 . S
C2715 C2723 1.503 1_545 S
C2716 C2715 1.410 . S
C2716 C2717 1.392 . S
C2716 C2719 1.511 1_545 S
C2717 C2713 1.369 1_554 S
C2717 C2716 1.392 . S
C2717 H2729 0.929 . S
C2718 C2714 1.538 . S
C2718 H2730 0.960 1_556 S
C2718 H2731 0.962 . S
C2718 H2732 0.976 . S
C2719 C2716 1.511 1_565 S
C2719 H2733 0.961 . S
C2719 H2734 0.961 . S
C2719 H2735 0.961 . S
C2720 C2721 1.370 1_556 S
C2720 C2722 1.363 . S
C2720 H2736 0.931 . S
C2721 C2720 1.370 1_554 S
C2721 C2725 1.408 . S
C2722 C2720 1.363 . S
C2722 C2723 1.370 1_556 S
C2722 C2726 1.524 . S
C2723 C2715 1.503 1_565 S
C2723 C2722 1.370 1_554 S
C2723 C2724 1.403 . S
C2724 C2723 1.403 . S
C2724 C2725 1.404 . S
C2724 C2727 1.539 . S
C2725 C2721 1.408 . S
C2725 C2724 1.404 . S
C2725 H2737 0.930 . S
C2726 C2722 1.524 . S
C2726 H2738 0.956 . S
C2726 H2739 0.961 . S
C2726 H2740 0.961 . S
C2727 C2724 1.539 . S
C2727 H2741 0.958 1_565 S
C2727 H2742 0.961 . S
C2727 H2743 0.960 1_565 S
H2728 C2712 0.931 . S
H2729 C2717 0.929 . S
H2730 C2718 0.960 1_554 S
H2731 C2718 0.962 . S
H2732 C2718 0.976 . S
H2733 C2719 0.961 . S
H2734 C2719 0.961 . S
H2735 C2719 0.961 . S
H2736 C2720 0.931 . S
H2737 C2725 0.930 . S
H2738 C2726 0.956 . S
H2739 C2726 0.961 . S
H2740 C2726 0.961 . S
H2741 C2727 0.958 1_545 S
H2742 C2727 0.961 . S
H2743 C2727 0.960 1_545 S
C2744 C2745 1.391 . S
C2744 C2746 1.394 . S
C2744 H2760 0.931 . S
C2745 C2744 1.391 . S
C2745 C2749 1.376 1_556 S
C2746 C2744 1.394 . S
C2746 C2747 1.369 . S
C2746 C2750 1.531 1_655 S
C2747 C2746 1.369 . S
C2747 C2748 1.410 1_556 S
C2747 C2755 1.508 1_655 S
C2748 C2747 1.410 1_554 S
C2748 C2749 1.392 . S
C2748 C2751 1.511 . S
C2749 C2745 1.376 1_554 S
C2749 C2748 1.392 . S
C2749 H2761 0.929 . S
C2750 C2746 1.531 1_455 S
C2750 H2762 0.960 . S
C2750 H2763 0.962 . S
C2750 H2764 0.960 . S
C2751 C2748 1.511 . S
C2751 H2765 0.961 . S
C2751 H2766 0.961 . S
C2751 H2767 0.961 . S
C2752 C2753 1.370 . S
C2752 C2754 1.363 . S
C2752 H2768 0.931 . S
C2753 C2752 1.370 . S
C2753 C2757 1.408 1_554 S
C2754 C2752 1.363 . S
C2754 C2755 1.345 1_554 S
C2754 C2758 1.524 . S
C2755 C2747 1.508 1_455 S
C2755 C2754 1.345 1_556 S
C2755 C2756 1.425 . S
C2756 C2755 1.425 . S
C2756 C2757 1.404 . S
C2756 C2759 1.539 1_455 S
C2757 C2753 1.408 1_556 S
C2757 C2756 1.404 . S
C2757 H2769 0.930 . S
C2758 C2754 1.524 . S
C2758 H2770 0.956 . S
C2758 H2771 0.961 . S
C2758 H2772 0.961 . S
C2759 C2756 1.539 1_655 S
C2759 H2773 0.958 . S
C2759 H2774 0.961 . S
C2759 H2775 0.960 . S
H2760 C2744 0.931 . S
H2761 C2749 0.929 . S
H2762 C2750 0.960 . S
H2763 C2750 0.962 . S
H2764 C2750 0.960 . S
H2765 C2751 0.961 . S
H2766 C2751 0.961 . S
H2767 C2751 0.961 . S
H2768 C2752 0.931 . S
H2769 C2757 0.930 . S
H2770 C2758 0.956 . S
H2771 C2758 0.961 . S
H2772 C2758 0.961 . S
H2773 C2759 0.958 . S
H2774 C2759 0.961 . S
H2775 C2759 0.960 . S
C2776 C2777 1.391 . S
C2776 C2778 1.394 . S
C2776 H2792 0.931 . S
C2777 C2776 1.391 . S
C2777 C2781 1.376 1_554 S
C2778 C2776 1.394 . S
C2778 C2779 1.369 . S
C2778 C2782 1.531 . S
C2779 C2778 1.369 . S
C2779 C2780 1.410 1_554 S
C2779 C2787 1.513 . S
C2780 C2779 1.410 1_556 S
C2780 C2781 1.392 . S
C2780 C2783 1.511 . S
C2781 C2777 1.376 1_556 S
C2781 C2780 1.392 . S
C2781 H2793 0.929 . S
C2782 C2778 1.531 . S
C2782 H2794 0.960 . S
C2782 H2795 0.962 . S
C2782 H2796 0.960 . S
C2783 C2780 1.511 . S
C2783 H2797 0.961 . S
C2783 H2798 0.961 . S
C2783 H2799 0.961 . S
C2784 C2785 1.370 . S
C2784 C2786 1.363 . S
C2784 H2800 0.931 . S
C2785 C2784 1.370 . S
C2785 C2789 1.408 1_556 S
C2786 C2784 1.363 . S
C2786 C2787 1.345 1_556 S
C2786 C2790 1.524 . S
C2787 C2779 1.513 . S
C2787 C2786 1.345 1_554 S
C2787 C2788 1.427 . S
C2788 C2787 1.427 . S
C2788 C2789 1.404 . S
C2788 C2791 1.539 . S
C2789 C2785 1.408 1_554 S
C2789 C2788 1.404 . S
C2789 H2801 0.930 . S
C2790 C2786 1.524 . S
C2790 H2802 0.916 1_556 S
C2790 H2803 0.961 . S
C2790 H2804 0.961 . S
C2791 C2788 1.539 . S
C2791 H2805 0.958 . S
C2791 H2806 0.961 . S
C2791 H2807 0.960 . S
H2792 C2776 0.931 . S
H2793 C2781 0.929 . S
H2794 C2782 0.960 . S
H2795 C2782 0.962 . S
H2796 C2782 0.960 . S
H2797 C2783 0.961 . S
H2798 C2783 0.961 . S
H2799 C2783 0.961 . S
H2800 C2784 0.931 . S
H2801 C2789 0.930 . S
H2802 C2790 0.916 1_554 S
H2803 C2790 0.961 . S
H2804 C2790 0.961 . S
H2805 C2791 0.958 . S
H2806 C2791 0.961 . S
H2807 C2791 0.960 . S
C505 C9 1.147 . S
C513 C21 1.225 . S
C537 C23 1.099 . S
C545 C35 1.208 . S
C569 C7 1.203 . S
C577 C37 1.119 . S
C601 C51 1.124 . S
C609 C77 1.215 . S
C633 C65 1.125 . S
C641 C49 1.215 . S
C665 C63 1.243 . S
C673 C79 1.144 . S
C697 C93 1.195 . S
C705 C101 1.296 . S
C729 C115 1.291 . S
C737 C107 1.103 . S
C761 C87 1.282 . S
C769 C121 1.118 . S
C793 C157 1.284 . S
C801 C135 1.135 . S
C825 C149 1.191 . S
C833 C129 1.297 . S
C857 C163 1.161 . S
C865 C143 1.298 . S
C889 C189 1.251 . S
C897 C177 1.145 . S
C921 C191 1.117 . S
C929 C203 1.213 . S
C953 C205 1.100 . S
C961 C175 1.209 . S
C985 C219 1.118 . S
C993 C245 1.218 . S
C1017 C233 1.072 . S
C1025 C217 1.205 . S
C1049 C247 1.089 . S
C1057 C231 1.206 . S
C1081 C269 1.300 . S
C1089 C261 1.143 . S
C1113 C275 1.165 . S
C1121 C283 1.298 . S
C1145 C255 1.298 . S
C1153 C289 1.123 . S
C1177 C325 1.283 . S
C1185 C303 1.130 . S
C1209 C317 1.073 . S
C1217 C297 1.292 . S
C1241 C311 1.286 . S
C1249 C331 1.145 1_556 S
C1273 C357 1.251 . S
C1281 C345 1.146 . S
C1305 C359 1.098 . S
C1313 C371 1.208 . S
C1337 C373 1.124 . S
C1345 C343 1.215 . S
C1369 C413 1.172 . S
C1377 C387 1.095 1_554 S
C1401 C401 1.157 1_554 S
C1409 C385 1.232 . S
C1433 C399 1.244 1_554 S
C1441 C415 1.130 1_554 S
C1465 C429 1.082 . S
C1473 C437 1.296 . S
C1497 C443 1.068 . S
C1505 C451 1.292 . S
C1529 C457 1.186 . S
C1537 C423 1.294 . S
C1561 C493 1.284 . S
C1569 C471 1.133 . S
C1593 C465 1.299 . S
C1601 C485 1.126 . S
C1625 C499 1.061 . S
C1633 C479 1.292 . S
C1657 C45 1.692 . S
C1665 C3 1.708 . S
C1689 C17 1.701 . S
C1697 C59 1.714 1_545 S
C1721 C73 1.721 1_655 S
C1729 C31 1.710 . S
C1753 C133 1.598 . S
C1761 C91 1.611 . S
C1785 C105 1.602 . S
C1793 C147 1.616 . S
C1817 C161 1.617 . S
C1825 C119 1.622 . S
C1849 C171 1.719 . S
C1857 C213 1.707 . S
C1881 C185 1.698 . S
C1889 C227 1.705 . S
C1913 C199 1.712 . S
C1921 C241 1.716 . S
C1945 C301 1.584 . S
C1953 C259 1.606 . S
C1977 C315 1.639 . S
C1985 C273 1.628 . S
C2009 C287 1.627 . S
C2017 C329 1.626 . S
C2041 C381 1.693 . S
C2049 C339 1.708 . S
C2073 C395 1.703 . S
C2081 C353 1.717 . S
C2105 C367 1.695 . S
C2113 C409 1.707 . S
C2137 C427 1.651 . S
C2145 C469 1.635 . S
C2169 C483 1.644 . S
C2177 C441 1.630 . S
C2201 C455 1.609 . S
C2209 C497 1.615 . S
C2233 C8 1.659 . S
C2241 C260 1.625 . S
C2265 C22 1.611 . S
C2273 C274 1.645 . S
C2297 C36 1.625 . S
C2305 C288 1.638 . S
C2329 C470 1.657 . S
C2337 C50 1.634 . S
C2361 C484 1.640 . S
C2369 C64 1.638 . S
C2393 C78 1.615 . S
C2401 C498 1.643 . S
C2425 C92 1.661 . S
C2433 C344 1.631 . S
C2457 C358 1.611 . S
C2465 C106 1.645 . S
C2489 C372 1.670 . S
C2497 C120 1.619 . S
C2521 C218 1.669 . S
C2529 C134 1.620 . S
C2553 C232 1.669 . S
C2561 C148 1.619 . S
C2585 C246 1.629 . S
C2593 C162 1.636 . S
C2617 C428 1.660 . S
C2625 C176 1.632 . S
C2649 C190 1.609 . S
C2657 C442 1.646 . S
C2681 C204 1.611 . S
C2689 C456 1.645 . S
C2713 C302 1.606 . S
C2721 C386 1.665 . S
C2745 C316 1.618 . S
C2753 C400 1.656 . S
C2777 C414 1.679 . S
C2785 C330 1.620 . S
