# Generated by pormake.
# Topology umq, (4)-cn, num edge types: 1
# Building blocks:
#     Node 0, Type 0, BuildingBlock: QUQFOY_clean_sbu_1, # of connection points: 4
#     Node 1, Type 0, BuildingBlock: QUQFOY_clean_sbu_1, # of connection points: 4
#     Node 2, Type 0, BuildingBlock: QUQFOY_clean_sbu_1, # of connection points: 4
#     Node 3, Type 0, BuildingBlock: QUQFOY_clean_sbu_1, # of connection points: 4
#     Node 4, Type 0, BuildingBlock: QUQFOY_clean_sbu_1, # of connection points: 4
#     Node 5, Type 0, BuildingBlock: QUQFOY_clean_sbu_1, # of connection points: 4
#     Node 6, Type 0, BuildingBlock: QUQFOY_clean_sbu_1, # of connection points: 4
#     Node 7, Type 0, BuildingBlock: QUQFOY_clean_sbu_1, # of connection points: 4
#     Node 8, Type 0, BuildingBlock: QUQFOY_clean_sbu_1, # of connection points: 4
#     Node 9, Type 0, BuildingBlock: QUQFOY_clean_sbu_1, # of connection points: 4
#     Node 10, Type 0, BuildingBlock: QUQFOY_clean_sbu_1, # of connection points: 4
#     Node 11, Type 0, BuildingBlock: QUQFOY_clean_sbu_1, # of connection points: 4
#     Node 12, Type 0, BuildingBlock: QUQFOY_clean_sbu_1, # of connection points: 4
#     Node 13, Type 0, BuildingBlock: QUQFOY_clean_sbu_1, # of connection points: 4
#     Node 14, Type 0, BuildingBlock: QUQFOY_clean_sbu_1, # of connection points: 4
#     Node 15, Type 0, BuildingBlock: QUQFOY_clean_sbu_1, # of connection points: 4
#     Node 16, Type 0, BuildingBlock: QUQFOY_clean_sbu_1, # of connection points: 4
#     Node 17, Type 0, BuildingBlock: QUQFOY_clean_sbu_1, # of connection points: 4
#     Node 18, Type 0, BuildingBlock: QUQFOY_clean_sbu_1, # of connection points: 4
#     Node 19, Type 0, BuildingBlock: QUQFOY_clean_sbu_1, # of connection points: 4
#     Node 20, Type 0, BuildingBlock: QUQFOY_clean_sbu_1, # of connection points: 4
#     Node 21, Type 0, BuildingBlock: QUQFOY_clean_sbu_1, # of connection points: 4
#     Node 22, Type 0, BuildingBlock: QUQFOY_clean_sbu_1, # of connection points: 4
#     Node 23, Type 0, BuildingBlock: QUQFOY_clean_sbu_1, # of connection points: 4
#     Node 24, Type 0, BuildingBlock: QUQFOY_clean_sbu_1, # of connection points: 4
#     Node 25, Type 0, BuildingBlock: QUQFOY_clean_sbu_1, # of connection points: 4
#     Node 26, Type 0, BuildingBlock: QUQFOY_clean_sbu_1, # of connection points: 4
#     Node 27, Type 0, BuildingBlock: QUQFOY_clean_sbu_1, # of connection points: 4
#     Node 28, Type 0, BuildingBlock: QUQFOY_clean_sbu_1, # of connection points: 4
#     Node 29, Type 0, BuildingBlock: QUQFOY_clean_sbu_1, # of connection points: 4
#     Node 30, Type 0, BuildingBlock: QUQFOY_clean_sbu_1, # of connection points: 4
#     Node 31, Type 0, BuildingBlock: QUQFOY_clean_sbu_1, # of connection points: 4
#     Edge 32, Type (0, 0), BuildingBlock: ZUJKAS_clean_linker_0, # of connection points: 2
#     Edge 33, Type (0, 0), BuildingBlock: ZUJKAS_clean_linker_0, # of connection points: 2
#     Edge 34, Type (0, 0), BuildingBlock: ZUJKAS_clean_linker_0, # of connection points: 2
#     Edge 35, Type (0, 0), BuildingBlock: ZUJKAS_clean_linker_0, # of connection points: 2
#     Edge 36, Type (0, 0), BuildingBlock: ZUJKAS_clean_linker_0, # of connection points: 2
#     Edge 37, Type (0, 0), BuildingBlock: ZUJKAS_clean_linker_0, # of connection points: 2
#     Edge 38, Type (0, 0), BuildingBlock: ZUJKAS_clean_linker_0, # of connection points: 2
#     Edge 39, Type (0, 0), BuildingBlock: ZUJKAS_clean_linker_0, # of connection points: 2
#     Edge 40, Type (0, 0), BuildingBlock: ZUJKAS_clean_linker_0, # of connection points: 2
#     Edge 41, Type (0, 0), BuildingBlock: ZUJKAS_clean_linker_0, # of connection points: 2
#     Edge 42, Type (0, 0), BuildingBlock: ZUJKAS_clean_linker_0, # of connection points: 2
#     Edge 43, Type (0, 0), BuildingBlock: ZUJKAS_clean_linker_0, # of connection points: 2
#     Edge 44, Type (0, 0), BuildingBlock: ZUJKAS_clean_linker_0, # of connection points: 2
#     Edge 45, Type (0, 0), BuildingBlock: ZUJKAS_clean_linker_0, # of connection points: 2
#     Edge 46, Type (0, 0), BuildingBlock: ZUJKAS_clean_linker_0, # of connection points: 2
#     Edge 47, Type (0, 0), BuildingBlock: ZUJKAS_clean_linker_0, # of connection points: 2
#     Edge 48, Type (0, 0), BuildingBlock: ZUJKAS_clean_linker_0, # of connection points: 2
#     Edge 49, Type (0, 0), BuildingBlock: ZUJKAS_clean_linker_0, # of connection points: 2
#     Edge 50, Type (0, 0), BuildingBlock: ZUJKAS_clean_linker_0, # of connection points: 2
#     Edge 51, Type (0, 0), BuildingBlock: ZUJKAS_clean_linker_0, # of connection points: 2
#     Edge 52, Type (0, 0), BuildingBlock: ZUJKAS_clean_linker_0, # of connection points: 2
#     Edge 53, Type (0, 0), BuildingBlock: ZUJKAS_clean_linker_0, # of connection points: 2
#     Edge 54, Type (0, 0), BuildingBlock: ZUJKAS_clean_linker_0, # of connection points: 2
#     Edge 55, Type (0, 0), BuildingBlock: ZUJKAS_clean_linker_0, # of connection points: 2
#     Edge 56, Type (0, 0), BuildingBlock: ZUJKAS_clean_linker_0, # of connection points: 2
#     Edge 57, Type (0, 0), BuildingBlock: ZUJKAS_clean_linker_0, # of connection points: 2
#     Edge 58, Type (0, 0), BuildingBlock: ZUJKAS_clean_linker_0, # of connection points: 2
#     Edge 59, Type (0, 0), BuildingBlock: ZUJKAS_clean_linker_0, # of connection points: 2
#     Edge 60, Type (0, 0), BuildingBlock: ZUJKAS_clean_linker_0, # of connection points: 2
#     Edge 61, Type (0, 0), BuildingBlock: ZUJKAS_clean_linker_0, # of connection points: 2
#     Edge 62, Type (0, 0), BuildingBlock: ZUJKAS_clean_linker_0, # of connection points: 2
#     Edge 63, Type (0, 0), BuildingBlock: ZUJKAS_clean_linker_0, # of connection points: 2
#     Edge 64, Type (0, 0), BuildingBlock: ZUJKAS_clean_linker_0, # of connection points: 2
#     Edge 65, Type (0, 0), BuildingBlock: ZUJKAS_clean_linker_0, # of connection points: 2
#     Edge 66, Type (0, 0), BuildingBlock: ZUJKAS_clean_linker_0, # of connection points: 2
#     Edge 67, Type (0, 0), BuildingBlock: ZUJKAS_clean_linker_0, # of connection points: 2
#     Edge 68, Type (0, 0), BuildingBlock: ZUJKAS_clean_linker_0, # of connection points: 2
#     Edge 69, Type (0, 0), BuildingBlock: ZUJKAS_clean_linker_0, # of connection points: 2
#     Edge 70, Type (0, 0), BuildingBlock: ZUJKAS_clean_linker_0, # of connection points: 2
#     Edge 71, Type (0, 0), BuildingBlock: ZUJKAS_clean_linker_0, # of connection points: 2
#     Edge 72, Type (0, 0), BuildingBlock: ZUJKAS_clean_linker_0, # of connection points: 2
#     Edge 73, Type (0, 0), BuildingBlock: ZUJKAS_clean_linker_0, # of connection points: 2
#     Edge 74, Type (0, 0), BuildingBlock: ZUJKAS_clean_linker_0, # of connection points: 2
#     Edge 75, Type (0, 0), BuildingBlock: ZUJKAS_clean_linker_0, # of connection points: 2
#     Edge 76, Type (0, 0), BuildingBlock: ZUJKAS_clean_linker_0, # of connection points: 2
#     Edge 77, Type (0, 0), BuildingBlock: ZUJKAS_clean_linker_0, # of connection points: 2
#     Edge 78, Type (0, 0), BuildingBlock: ZUJKAS_clean_linker_0, # of connection points: 2
#     Edge 79, Type (0, 0), BuildingBlock: ZUJKAS_clean_linker_0, # of connection points: 2
#     Edge 80, Type (0, 0), BuildingBlock: ZUJKAS_clean_linker_0, # of connection points: 2
#     Edge 81, Type (0, 0), BuildingBlock: ZUJKAS_clean_linker_0, # of connection points: 2
#     Edge 82, Type (0, 0), BuildingBlock: ZUJKAS_clean_linker_0, # of connection points: 2
#     Edge 83, Type (0, 0), BuildingBlock: ZUJKAS_clean_linker_0, # of connection points: 2
#     Edge 84, Type (0, 0), BuildingBlock: ZUJKAS_clean_linker_0, # of connection points: 2
#     Edge 85, Type (0, 0), BuildingBlock: ZUJKAS_clean_linker_0, # of connection points: 2
#     Edge 86, Type (0, 0), BuildingBlock: ZUJKAS_clean_linker_0, # of connection points: 2
#     Edge 87, Type (0, 0), BuildingBlock: ZUJKAS_clean_linker_0, # of connection points: 2
#     Edge 88, Type (0, 0), BuildingBlock: ZUJKAS_clean_linker_0, # of connection points: 2
#     Edge 89, Type (0, 0), BuildingBlock: ZUJKAS_clean_linker_0, # of connection points: 2
#     Edge 90, Type (0, 0), BuildingBlock: ZUJKAS_clean_linker_0, # of connection points: 2
#     Edge 91, Type (0, 0), BuildingBlock: ZUJKAS_clean_linker_0, # of connection points: 2
#     Edge 92, Type (0, 0), BuildingBlock: ZUJKAS_clean_linker_0, # of connection points: 2
#     Edge 93, Type (0, 0), BuildingBlock: ZUJKAS_clean_linker_0, # of connection points: 2
#     Edge 94, Type (0, 0), BuildingBlock: ZUJKAS_clean_linker_0, # of connection points: 2
#     Edge 95, Type (0, 0), BuildingBlock: ZUJKAS_clean_linker_0, # of connection points: 2
# Relax obj value: 0.037
# Max RMSD: 0.097
# Mean RMSD: 0.097
data_MOF--net-umq--node1-QUQFOY_clean_sbu_1--edge1-ZUJKAS_clean_linker_0
_symmetry_space_group_name_H-M    P1
_symmetry_Int_Tables_number       1
_symmetry_cell_setting            triclinic
loop_
_symmetry_equiv_pos_as_xyz
'x, y, z'
_cell_length_a     85.073038
_cell_length_b     85.089673
_cell_length_c     64.869115
_cell_angle_alpha  89.996928
_cell_angle_beta   90.017122
_cell_angle_gamma 90.000584
loop_
_atom_site_label
_atom_site_type_symbol
_atom_site_fract_x
_atom_site_fract_y
_atom_site_fract_z
_atom_type_partial_charge
O0 O 0.22029 0.1087 0.19528 0.0
Cd1 Cd 0.23992 0.09739 0.18453 0.0
Cd2 Cd 0.22854 0.1119 0.14652 0.0
O3 O 0.2112 0.11963 0.16677 0.0
O4 O 0.24704 0.08569 0.20944 0.0
O5 O 0.23938 0.07379 0.18094 0.0
C6 C 0.24431 0.0728 0.19972 0.0
C7 C 0.22119 0.10492 0.11284 0.0
C8 C 0.21015 0.11709 0.18606 0.0
C9 C 0.2613 0.12004 0.16224 0.0
O10 O 0.25075 0.1217 0.14853 0.0
O11 O 0.25922 0.11101 0.17759 0.0
O12 O 0.22109 0.1193 0.119 0.0
O13 O 0.22505 0.09424 0.12606 0.0
O14 O 0.89182 0.22133 0.19287 0.0
Cd15 Cd 0.90376 0.23984 0.17967 0.0
Cd16 Cd 0.88821 0.22688 0.14417 0.0
O17 O 0.882 0.20971 0.16527 0.0
O18 O 0.916 0.24834 0.20338 0.0
O19 O 0.92728 0.23766 0.17611 0.0
C20 C 0.92864 0.24408 0.19406 0.0
C21 C 0.89546 0.21973 0.11058 0.0
C22 C 0.88413 0.21015 0.18468 0.0
C23 C 0.88019 0.26012 0.15721 0.0
O24 O 0.87693 0.2483 0.14601 0.0
O25 O 0.89107 0.25934 0.17059 0.0
O26 O 0.88117 0.21856 0.11695 0.0
O27 O 0.90593 0.22447 0.12361 0.0
O28 O 0.77596 0.89099 0.1985 0.0
Cd29 Cd 0.75781 0.90299 0.18457 0.0
Cd30 Cd 0.77195 0.88872 0.1493 0.0
O31 O 0.78897 0.88307 0.17093 0.0
O32 O 0.74902 0.91588 0.20746 0.0
O33 O 0.76064 0.92632 0.18024 0.0
C34 C 0.7539 0.92821 0.19791 0.0
C35 C 0.77945 0.89528 0.11554 0.0
C36 C 0.7878 0.88427 0.19043 0.0
C37 C 0.73863 0.87945 0.16106 0.0
O38 O 0.75089 0.8767 0.15045 0.0
O39 O 0.73862 0.89023 0.1746 0.0
O40 O 0.78103 0.88125 0.1227 0.0
O41 O 0.77419 0.90594 0.12791 0.0
O42 O 0.10746 0.77725 0.19866 0.0
Cd43 Cd 0.0958 0.75822 0.18634 0.0
Cd44 Cd 0.11034 0.77102 0.14984 0.0
O45 O 0.11638 0.78861 0.17039 0.0
O46 O 0.08381 0.75036 0.21061 0.0
O47 O 0.07224 0.75957 0.18265 0.0
C48 C 0.07104 0.75391 0.20106 0.0
C49 C 0.1038 0.77799 0.11589 0.0
C50 C 0.11468 0.78847 0.18986 0.0
C51 C 0.11941 0.73814 0.16392 0.0
O52 O 0.12199 0.74979 0.15213 0.0
O53 O 0.10888 0.73887 0.17778 0.0
O54 O 0.11792 0.7792 0.12283 0.0
O55 O 0.09307 0.77322 0.12851 0.0
O56 O 0.22166 0.89092 0.31255 0.0
Cd57 Cd 0.24069 0.90224 0.32543 0.0
Cd58 Cd 0.22751 0.88705 0.3611 0.0
O59 O 0.21008 0.88122 0.34022 0.0
O60 O 0.24876 0.91448 0.30149 0.0
O61 O 0.23956 0.92576 0.32964 0.0
C62 C 0.24529 0.92716 0.3113 0.0
C63 C 0.22055 0.89372 0.39497 0.0
C64 C 0.21039 0.88343 0.32084 0.0
C65 C 0.26049 0.87816 0.34747 0.0
O66 O 0.2487 0.87536 0.35893 0.0
O67 O 0.25992 0.88894 0.33393 0.0
O68 O 0.21914 0.8796 0.38808 0.0
O69 O 0.22544 0.90438 0.38233 0.0
O70 O 0.10934 0.22506 0.3107 0.0
Cd71 Cd 0.09702 0.24286 0.32491 0.0
Cd72 Cd 0.11184 0.2291 0.35966 0.0
O73 O 0.11774 0.21215 0.33809 0.0
O74 O 0.08408 0.25162 0.30204 0.0
O75 O 0.07369 0.23975 0.3291 0.0
C76 C 0.07178 0.24661 0.31152 0.0
C77 C 0.10442 0.22166 0.3931 0.0
C78 C 0.11639 0.21336 0.31862 0.0
C79 C 0.12049 0.26247 0.34798 0.0
O80 O 0.12368 0.25027 0.35848 0.0
O81 O 0.10946 0.26225 0.33478 0.0
O82 O 0.11867 0.22019 0.38666 0.0
O83 O 0.09407 0.22682 0.3802 0.0
O84 O 0.77792 0.10981 0.31091 0.0
Cd85 Cd 0.75977 0.09815 0.32528 0.0
Cd86 Cd 0.77418 0.11146 0.35992 0.0
O87 O 0.79151 0.11652 0.3385 0.0
O88 O 0.75044 0.08529 0.30271 0.0
O89 O 0.76228 0.07481 0.32976 0.0
C90 C 0.75528 0.07294 0.31225 0.0
C91 C 0.78089 0.1024 0.3928 0.0
C92 C 0.7901 0.11585 0.319 0.0
C93 C 0.74151 0.12237 0.34887 0.0
O94 O 0.75396 0.1249 0.35921 0.0
O95 O 0.74105 0.11138 0.33562 0.0
O96 O 0.7842 0.11648 0.38696 0.0
O97 O 0.77421 0.09311 0.37971 0.0
O98 O 0.89019 0.77972 0.31662 0.0
Cd99 Cd 0.90144 0.7605 0.32905 0.0
Cd100 Cd 0.88669 0.77358 0.36511 0.0
O101 O 0.88037 0.79103 0.34443 0.0
O102 O 0.91322 0.75243 0.3047 0.0
O103 O 0.92504 0.76122 0.3327 0.0
C104 C 0.92609 0.7556 0.31425 0.0
C105 C 0.89459 0.78033 0.39863 0.0
C106 C 0.88258 0.79085 0.32503 0.0
C107 C 0.87743 0.74073 0.35134 0.0
O108 O 0.875 0.75238 0.36319 0.0
O109 O 0.88792 0.74139 0.33742 0.0
O110 O 0.88022 0.78179 0.39265 0.0
O111 O 0.90476 0.77551 0.38526 0.0
O112 O 0.77601 0.88681 0.81316 0.0
Cd113 Cd 0.75828 0.8999 0.82619 0.0
Cd114 Cd 0.77254 0.8871 0.86214 0.0
O115 O 0.79006 0.88171 0.84101 0.0
O116 O 0.75008 0.91194 0.80215 0.0
O117 O 0.76106 0.92337 0.82911 0.0
C118 C 0.75472 0.92463 0.81108 0.0
C119 C 0.77967 0.89405 0.89593 0.0
C120 C 0.78832 0.8813 0.82154 0.0
C121 C 0.73919 0.87722 0.8505 0.0
O122 O 0.75159 0.87463 0.86092 0.0
O123 O 0.73897 0.88789 0.83682 0.0
O124 O 0.78147 0.87999 0.88901 0.0
O125 O 0.77434 0.90453 0.88334 0.0
O126 O 0.10848 0.7771 0.81411 0.0
Cd127 Cd 0.09659 0.75893 0.82817 0.0
Cd128 Cd 0.11073 0.77331 0.8631 0.0
O129 O 0.11661 0.79021 0.84149 0.0
O130 O 0.08384 0.74997 0.80524 0.0
O131 O 0.07321 0.76156 0.83234 0.0
C132 C 0.07144 0.75478 0.81468 0.0
C133 C 0.10358 0.78077 0.89661 0.0
C134 C 0.11532 0.78893 0.82203 0.0
C135 C 0.12032 0.74006 0.8518 0.0
O136 O 0.12294 0.75239 0.8623 0.0
O137 O 0.10953 0.73988 0.83824 0.0
O138 O 0.1177 0.7825 0.88983 0.0
O139 O 0.09315 0.7754 0.88397 0.0
O140 O 0.22059 0.10798 0.81256 0.0
Cd141 Cd 0.23877 0.09618 0.82671 0.0
Cd142 Cd 0.22477 0.11125 0.86145 0.0
O143 O 0.20793 0.11719 0.83972 0.0
O144 O 0.24776 0.08346 0.80377 0.0
O145 O 0.23635 0.07276 0.83095 0.0
C146 C 0.24316 0.07103 0.8133 0.0
C147 C 0.21725 0.10393 0.89489 0.0
C148 C 0.20901 0.11534 0.8203 0.0
C149 C 0.25813 0.12003 0.84967 0.0
O150 O 0.24597 0.12301 0.86035 0.0
O151 O 0.25795 0.10911 0.83631 0.0
O152 O 0.21579 0.11816 0.88838 0.0
O153 O 0.22242 0.09354 0.88205 0.0
O154 O 0.89028 0.22266 0.81023 0.0
Cd155 Cd 0.90257 0.24114 0.82291 0.0
Cd156 Cd 0.88793 0.22814 0.85916 0.0
O157 O 0.88126 0.211 0.83823 0.0
O158 O 0.91451 0.24905 0.7986 0.0
O159 O 0.92614 0.23919 0.82613 0.0
C160 C 0.92729 0.24507 0.80783 0.0
C161 C 0.89525 0.22066 0.89265 0.0
C162 C 0.88283 0.21147 0.81874 0.0
C163 C 0.87967 0.26148 0.84621 0.0
O164 O 0.87682 0.2497 0.85767 0.0
O165 O 0.8901 0.26068 0.83221 0.0
O166 O 0.88092 0.21974 0.88636 0.0
O167 O 0.90571 0.2254 0.87962 0.0
O168 O 0.77776 0.10709 0.69548 0.0
Cd169 Cd 0.75861 0.09509 0.68406 0.0
Cd170 Cd 0.77077 0.11038 0.64705 0.0
O171 O 0.78816 0.11751 0.66739 0.0
O172 O 0.75166 0.08295 0.70869 0.0
O173 O 0.76007 0.07155 0.6802 0.0
C174 C 0.75496 0.07024 0.69887 0.0
C175 C 0.77721 0.10505 0.6126 0.0
C176 C 0.78842 0.11519 0.68677 0.0
C177 C 0.73753 0.11801 0.6623 0.0
O178 O 0.74886 0.12052 0.64998 0.0
O179 O 0.7388 0.10787 0.67659 0.0
O180 O 0.77701 0.11915 0.61976 0.0
O181 O 0.77449 0.09366 0.62526 0.0
O182 O 0.88893 0.7734 0.69878 0.0
Cd183 Cd 0.90236 0.75654 0.68439 0.0
Cd184 Cd 0.88989 0.77178 0.64977 0.0
O185 O 0.88491 0.78876 0.67184 0.0
O186 O 0.91524 0.74751 0.70714 0.0
O187 O 0.92556 0.76075 0.68112 0.0
C188 C 0.92747 0.75341 0.69838 0.0
C189 C 0.89749 0.77958 0.61651 0.0
C190 C 0.88397 0.78621 0.69113 0.0
C191 C 0.87971 0.73828 0.65921 0.0
O192 O 0.87692 0.75114 0.64989 0.0
O193 O 0.8907 0.73747 0.67242 0.0
O194 O 0.88339 0.78165 0.62319 0.0
O195 O 0.90763 0.7736 0.62909 0.0
O196 O 0.2222 0.88986 0.69713 0.0
Cd197 Cd 0.2405 0.90203 0.68374 0.0
Cd198 Cd 0.22706 0.88762 0.64801 0.0
O199 O 0.20993 0.88153 0.66918 0.0
O200 O 0.24906 0.91466 0.70704 0.0
O201 O 0.23781 0.92542 0.67977 0.0
C202 C 0.2444 0.92711 0.69757 0.0
C203 C 0.21967 0.89437 0.61431 0.0
C204 C 0.21068 0.88285 0.68869 0.0
C205 C 0.26032 0.87882 0.66031 0.0
O206 O 0.24828 0.87592 0.64935 0.0
O207 O 0.25991 0.8895 0.67399 0.0
O208 O 0.21835 0.88024 0.62118 0.0
O209 O 0.22466 0.90502 0.62691 0.0
O210 O 0.10943 0.22196 0.69341 0.0
Cd211 Cd 0.09758 0.24077 0.68085 0.0
Cd212 Cd 0.11253 0.22815 0.64473 0.0
O213 O 0.11888 0.21069 0.66537 0.0
O214 O 0.08539 0.24856 0.70501 0.0
O215 O 0.07404 0.23923 0.67698 0.0
C216 C 0.07269 0.24493 0.69535 0.0
C217 C 0.1051 0.22119 0.6111 0.0
C218 C 0.11698 0.21086 0.68482 0.0
C219 C 0.12105 0.26116 0.65857 0.0
O220 O 0.12391 0.24954 0.64684 0.0
O221 O 0.11045 0.26026 0.67232 0.0
O222 O 0.11942 0.21999 0.61735 0.0
O223 O 0.09472 0.22593 0.62423 0.0
O224 O 0.72239 0.60945 0.69631 0.0
Cd225 Cd 0.74039 0.59748 0.682 0.0
Cd226 Cd 0.72596 0.6119 0.64729 0.0
O227 O 0.70921 0.61781 0.6691 0.0
O228 O 0.74937 0.58456 0.70474 0.0
O229 O 0.73746 0.57416 0.6777 0.0
C230 C 0.74434 0.57225 0.69528 0.0
C231 C 0.71821 0.60483 0.61385 0.0
C232 C 0.71057 0.6164 0.68855 0.0
C233 C 0.75938 0.62111 0.65835 0.0
O234 O 0.74702 0.6239 0.64797 0.0
O235 O 0.75951 0.61027 0.67183 0.0
O236 O 0.71669 0.61897 0.62064 0.0
O237 O 0.72355 0.59435 0.62644 0.0
O238 O 0.38851 0.72487 0.69749 0.0
Cd239 Cd 0.40219 0.74172 0.68348 0.0
Cd240 Cd 0.38876 0.72756 0.64854 0.0
O241 O 0.38346 0.71031 0.67008 0.0
O242 O 0.41506 0.75028 0.70657 0.0
O243 O 0.4254 0.73736 0.68031 0.0
C244 C 0.42729 0.74445 0.69774 0.0
C245 C 0.39623 0.72013 0.6151 0.0
C246 C 0.38296 0.71243 0.68948 0.0
C247 C 0.3797 0.76108 0.65926 0.0
O248 O 0.37634 0.74853 0.64955 0.0
O249 O 0.39089 0.76125 0.67221 0.0
O250 O 0.38205 0.71835 0.62165 0.0
O251 O 0.40649 0.72566 0.62787 0.0
O252 O 0.27735 0.39168 0.69965 0.0
Cd253 Cd 0.25923 0.40352 0.68536 0.0
Cd254 Cd 0.27298 0.38814 0.65081 0.0
O255 O 0.28986 0.38233 0.67247 0.0
O256 O 0.2504 0.41651 0.7081 0.0
O257 O 0.26187 0.42686 0.68073 0.0
C258 C 0.2551 0.42881 0.69836 0.0
C259 C 0.28062 0.3948 0.6172 0.0
C260 C 0.28888 0.38427 0.69187 0.0
C261 C 0.23961 0.37969 0.66271 0.0
O262 O 0.25175 0.37647 0.65211 0.0
O263 O 0.23991 0.39074 0.67587 0.0
O264 O 0.28194 0.38069 0.62417 0.0
O265 O 0.2755 0.40547 0.62968 0.0
O266 O 0.60795 0.27748 0.69801 0.0
Cd267 Cd 0.59652 0.25842 0.68546 0.0
Cd268 Cd 0.61136 0.27126 0.64935 0.0
O269 O 0.61779 0.28861 0.6701 0.0
O270 O 0.58433 0.25048 0.70952 0.0
O271 O 0.57299 0.25952 0.6813 0.0
C272 C 0.57163 0.25386 0.69969 0.0
C273 C 0.60398 0.27845 0.61579 0.0
C274 C 0.61562 0.28852 0.6895 0.0
C275 C 0.62021 0.23829 0.6632 0.0
O276 O 0.62272 0.24986 0.65125 0.0
O277 O 0.60982 0.23915 0.67722 0.0
O278 O 0.6183 0.27955 0.62206 0.0
O279 O 0.59357 0.27365 0.62885 0.0
O280 O 0.72282 0.39068 0.81252 0.0
Cd281 Cd 0.74097 0.40323 0.82563 0.0
Cd282 Cd 0.72819 0.38818 0.86154 0.0
O283 O 0.71088 0.38208 0.84057 0.0
O284 O 0.74907 0.41584 0.80203 0.0
O285 O 0.73795 0.42662 0.82937 0.0
C286 C 0.74431 0.42828 0.81143 0.0
C287 C 0.72107 0.39427 0.89559 0.0
C288 C 0.71148 0.38346 0.82106 0.0
C289 C 0.76146 0.38014 0.84823 0.0
O290 O 0.74961 0.37687 0.85936 0.0
O291 O 0.76071 0.39102 0.83485 0.0
O292 O 0.71994 0.38022 0.88836 0.0
O293 O 0.72574 0.40519 0.88318 0.0
O294 O 0.60854 0.7213 0.81437 0.0
Cd295 Cd 0.59647 0.73965 0.8277 0.0
Cd296 Cd 0.61002 0.7259 0.86345 0.0
O297 O 0.61637 0.70878 0.84236 0.0
O298 O 0.58377 0.74821 0.80445 0.0
O299 O 0.57309 0.73698 0.8318 0.0
C300 C 0.57136 0.7435 0.81396 0.0
C301 C 0.60213 0.71855 0.89674 0.0
C302 C 0.61534 0.70967 0.82283 0.0
C303 C 0.61973 0.75901 0.85151 0.0
O304 O 0.62208 0.74693 0.8626 0.0
O305 O 0.6093 0.75887 0.83748 0.0
O306 O 0.61645 0.71705 0.89064 0.0
O307 O 0.59197 0.72372 0.88358 0.0
O308 O 0.27476 0.61189 0.81217 0.0
Cd309 Cd 0.25772 0.5986 0.8264 0.0
Cd310 Cd 0.27263 0.61137 0.86116 0.0
O311 O 0.2898 0.61627 0.83933 0.0
O312 O 0.24874 0.58577 0.80358 0.0
O313 O 0.26162 0.57536 0.82986 0.0
C314 C 0.25435 0.57349 0.81254 0.0
C315 C 0.28008 0.60434 0.89477 0.0
C316 C 0.28746 0.61701 0.81999 0.0
C317 C 0.23921 0.62139 0.85106 0.0
O318 O 0.25196 0.62428 0.86055 0.0
O319 O 0.23855 0.61034 0.83794 0.0
O320 O 0.28223 0.61831 0.88769 0.0
O321 O 0.27428 0.59396 0.88238 0.0
O322 O 0.39014 0.2773 0.81443 0.0
Cd323 Cd 0.40143 0.2579 0.82631 0.0
Cd324 Cd 0.38788 0.27092 0.86326 0.0
O325 O 0.382 0.28878 0.84303 0.0
O326 O 0.41322 0.25002 0.80189 0.0
O327 O 0.42501 0.25875 0.82997 0.0
C328 C 0.42607 0.25325 0.81146 0.0
C329 C 0.39475 0.27742 0.89726 0.0
C330 C 0.38338 0.28868 0.82351 0.0
C331 C 0.37765 0.23836 0.84905 0.0
O332 O 0.37568 0.25001 0.86103 0.0
O333 O 0.38792 0.23884 0.83484 0.0
O334 O 0.38064 0.27911 0.89043 0.0
O335 O 0.4053 0.2725 0.88449 0.0
O336 O 0.28031 0.39105 0.31548 0.0
Cd337 Cd 0.26127 0.40276 0.3277 0.0
Cd338 Cd 0.27381 0.38741 0.36401 0.0
O339 O 0.29125 0.38104 0.34343 0.0
O340 O 0.25352 0.41451 0.30316 0.0
O341 O 0.26253 0.42638 0.33099 0.0
C342 C 0.25696 0.42738 0.31252 0.0
C343 C 0.28075 0.39399 0.39792 0.0
C344 C 0.29127 0.38328 0.32405 0.0
C345 C 0.24075 0.37924 0.34989 0.0
O346 O 0.25233 0.37629 0.36165 0.0
O347 O 0.24175 0.38985 0.33615 0.0
O348 O 0.28181 0.37982 0.3911 0.0
O349 O 0.27621 0.40474 0.38518 0.0
O350 O 0.60974 0.27936 0.31548 0.0
Cd351 Cd 0.5982 0.26013 0.32747 0.0
Cd352 Cd 0.61183 0.27342 0.36429 0.0
O353 O 0.61813 0.291 0.34385 0.0
O354 O 0.58676 0.2521 0.30281 0.0
O355 O 0.57455 0.26101 0.33044 0.0
C356 C 0.57376 0.2554 0.31197 0.0
C357 C 0.6042 0.28015 0.39793 0.0
C358 C 0.61671 0.29071 0.32433 0.0
C359 C 0.6218 0.24064 0.35075 0.0
O360 O 0.62385 0.2524 0.36254 0.0
O361 O 0.61156 0.24106 0.3365 0.0
O362 O 0.61849 0.28166 0.39172 0.0
O363 O 0.59392 0.27529 0.38473 0.0
O364 O 0.72167 0.60945 0.31161 0.0
Cd365 Cd 0.74016 0.59743 0.32473 0.0
Cd366 Cd 0.72656 0.61118 0.36084 0.0
O367 O 0.70933 0.61726 0.33975 0.0
O368 O 0.74866 0.58489 0.30132 0.0
O369 O 0.73766 0.57403 0.3287 0.0
C370 C 0.74411 0.57241 0.31081 0.0
C371 C 0.71918 0.60445 0.39458 0.0
C372 C 0.71007 0.6162 0.32022 0.0
C373 C 0.75967 0.62068 0.34833 0.0
O374 O 0.74767 0.6231 0.35954 0.0
O375 O 0.75941 0.61024 0.33434 0.0
O376 O 0.71777 0.61855 0.38764 0.0
O377 O 0.72427 0.59382 0.38203 0.0
O378 O 0.39165 0.72185 0.31486 0.0
Cd379 Cd 0.4035 0.74017 0.32861 0.0
Cd380 Cd 0.38791 0.72679 0.36353 0.0
O381 O 0.38196 0.70972 0.34214 0.0
O382 O 0.4159 0.74896 0.30524 0.0
O383 O 0.427 0.73792 0.33241 0.0
C384 C 0.42848 0.74455 0.31461 0.0
C385 C 0.3954 0.71962 0.39703 0.0
C386 C 0.38406 0.71047 0.32275 0.0
C387 C 0.37961 0.76005 0.35097 0.0
O388 O 0.37633 0.74808 0.36187 0.0
O389 O 0.39067 0.75952 0.33782 0.0
O390 O 0.38111 0.7182 0.39072 0.0
O391 O 0.40573 0.7246 0.38398 0.0
O392 O 0.2784 0.60918 0.19698 0.0
Cd393 Cd 0.2596 0.59721 0.1846 0.0
Cd394 Cd 0.27212 0.6122 0.14823 0.0
O395 O 0.28961 0.61854 0.16884 0.0
O396 O 0.25195 0.58507 0.20886 0.0
O397 O 0.26123 0.57367 0.18084 0.0
C398 C 0.2556 0.57236 0.19925 0.0
C399 C 0.27904 0.6056 0.11427 0.0
C400 C 0.28947 0.61671 0.1883 0.0
C401 C 0.23906 0.62053 0.16234 0.0
O402 O 0.25064 0.6234 0.15055 0.0
O403 O 0.24003 0.60997 0.17613 0.0
O404 O 0.28011 0.61977 0.12109 0.0
O405 O 0.2745 0.59486 0.12702 0.0
O406 O 0.392 0.27635 0.19904 0.0
Cd407 Cd 0.4037 0.25794 0.18488 0.0
Cd408 Cd 0.3887 0.27218 0.15087 0.0
O409 O 0.38454 0.28991 0.17175 0.0
O410 O 0.41623 0.24917 0.20814 0.0
O411 O 0.42717 0.25993 0.1807 0.0
C412 C 0.42877 0.25346 0.1986 0.0
C413 C 0.39552 0.27834 0.1168 0.0
C414 C 0.38576 0.28854 0.19119 0.0
C415 C 0.37885 0.23947 0.16309 0.0
O416 O 0.3753 0.25211 0.15377 0.0
O417 O 0.39087 0.23879 0.1747 0.0
O418 O 0.38163 0.28092 0.12392 0.0
O419 O 0.4059 0.27271 0.12933 0.0
O420 O 0.72432 0.39037 0.19773 0.0
Cd421 Cd 0.74215 0.40243 0.18321 0.0
Cd422 Cd 0.72836 0.38675 0.14894 0.0
O423 O 0.71154 0.38103 0.17075 0.0
O424 O 0.75088 0.41566 0.20581 0.0
O425 O 0.73896 0.4257 0.17855 0.0
C426 C 0.74577 0.42783 0.19613 0.0
C427 C 0.72079 0.39333 0.11527 0.0
C428 C 0.71271 0.38296 0.19014 0.0
C429 C 0.76189 0.37869 0.1607 0.0
O430 O 0.74967 0.37521 0.15038 0.0
O431 O 0.76161 0.38993 0.17359 0.0
O432 O 0.71946 0.37924 0.12228 0.0
O433 O 0.72586 0.40403 0.12774 0.0
O434 O 0.60792 0.72307 0.1962 0.0
Cd435 Cd 0.59608 0.74137 0.1824 0.0
Cd436 Cd 0.61043 0.72747 0.1472 0.0
O437 O 0.61672 0.7106 0.16868 0.0
O438 O 0.58356 0.75029 0.20557 0.0
O439 O 0.57263 0.73899 0.17844 0.0
C440 C 0.57105 0.74571 0.19617 0.0
C441 C 0.60247 0.71972 0.11411 0.0
C442 C 0.61513 0.71153 0.18814 0.0
C443 C 0.61967 0.7607 0.15891 0.0
O444 O 0.6223 0.74861 0.14794 0.0
O445 O 0.60905 0.7605 0.17268 0.0
O446 O 0.61683 0.71834 0.12017 0.0
O447 O 0.59234 0.72505 0.12718 0.0
H448 H 0.38714 0.20842 0.16291 0.0
H449 H 0.36966 0.18569 0.15904 0.0
H450 H 0.32965 0.21687 0.15677 0.0
H451 H 0.34715 0.23949 0.15905 0.0
H452 H 0.34854 0.17385 0.18105 0.0
H453 H 0.31882 0.1909 0.10916 0.0
H454 H 0.33574 0.20139 0.11861 0.0
H455 H 0.31626 0.2063 0.12762 0.0
C456 C 0.37462 0.21036 0.1613 0.0
C457 C 0.36848 0.22567 0.16099 0.0
C458 C 0.36463 0.19739 0.15912 0.0
C459 C 0.3483 0.19951 0.15702 0.0
C460 C 0.3422 0.21486 0.15741 0.0
H461 H 0.27674 0.13427 0.19368 0.0
H462 H 0.29909 0.15214 0.19135 0.0
C463 C 0.3522 0.2278 0.15893 0.0
C464 C 0.33753 0.18577 0.15549 0.0
H465 H 0.30448 0.17283 0.13106 0.0
C466 C 0.33907 0.1735 0.16985 0.0
C467 C 0.32542 0.18492 0.14053 0.0
C468 C 0.32411 0.19651 0.12298 0.0
C469 C 0.32843 0.16089 0.17032 0.0
C470 C 0.31534 0.16096 0.15679 0.0
C471 C 0.31427 0.17282 0.14177 0.0
C472 C 0.30229 0.14934 0.15838 0.0
C473 C 0.33154 0.1476 0.18518 0.0
C474 C 0.2961 0.14221 0.14056 0.0
C475 C 0.28284 0.13254 0.1418 0.0
C476 C 0.27578 0.12948 0.16093 0.0
C477 C 0.28216 0.13624 0.17879 0.0
C478 C 0.29507 0.14633 0.17748 0.0
H479 H 0.34436 0.14605 0.18776 0.0
H480 H 0.32617 0.15044 0.20032 0.0
H481 H 0.32663 0.13631 0.17953 0.0
H482 H 0.30136 0.14433 0.12562 0.0
H483 H 0.2781 0.12745 0.1278 0.0
H484 H 0.8557 0.26574 0.13087 0.0
H485 H 0.8385 0.28868 0.13003 0.0
H486 H 0.86564 0.31029 0.1785 0.0
H487 H 0.88284 0.28727 0.17968 0.0
H488 H 0.83381 0.30983 0.18642 0.0
H489 H 0.84487 0.33306 0.10799 0.0
H490 H 0.84014 0.31251 0.10817 0.0
H491 H 0.85789 0.31922 0.12041 0.0
C492 C 0.85817 0.27544 0.14118 0.0
C493 C 0.87065 0.27463 0.15538 0.0
C494 C 0.84838 0.28861 0.14056 0.0
C495 C 0.85092 0.30128 0.15399 0.0
C496 C 0.86354 0.30067 0.1679 0.0
H497 H 0.78988 0.38178 0.18129 0.0
H498 H 0.81276 0.36439 0.1794 0.0
C499 C 0.87336 0.2875 0.16854 0.0
C500 C 0.8396 0.3145 0.1547 0.0
H501 H 0.82158 0.34227 0.12492 0.0
C502 C 0.83129 0.31709 0.17308 0.0
C503 C 0.83632 0.32391 0.13724 0.0
C504 C 0.84538 0.32216 0.11739 0.0
C505 C 0.81932 0.3284 0.17423 0.0
C506 C 0.81577 0.33754 0.15662 0.0
C507 C 0.82434 0.33523 0.13838 0.0
C508 C 0.80259 0.3489 0.15655 0.0
C509 C 0.81013 0.33 0.19403 0.0
C510 C 0.78956 0.34627 0.14378 0.0
C511 C 0.77651 0.3562 0.14473 0.0
C512 C 0.77627 0.36901 0.15845 0.0
C513 C 0.78962 0.37196 0.17066 0.0
C514 C 0.80268 0.36201 0.16968 0.0
H515 H 0.81213 0.31992 0.20459 0.0
H516 H 0.81385 0.34088 0.20211 0.0
H517 H 0.79734 0.33092 0.19082 0.0
H518 H 0.7893 0.33624 0.13349 0.0
H519 H 0.76647 0.35361 0.13502 0.0
H520 H 0.6428 0.76558 0.13034 0.0
H521 H 0.66129 0.7875 0.12865 0.0
H522 H 0.63834 0.80943 0.18044 0.0
H523 H 0.61961 0.78763 0.18215 0.0
H524 H 0.64703 0.83066 0.14795 0.0
H525 H 0.69633 0.79205 0.17224 0.0
H526 H 0.68569 0.78518 0.15009 0.0
H527 H 0.676 0.78628 0.17466 0.0
C528 C 0.64156 0.77512 0.14127 0.0
C529 C 0.62982 0.77475 0.15654 0.0
C530 C 0.65218 0.78761 0.14032 0.0
C531 C 0.65135 0.79991 0.15466 0.0
C532 C 0.63922 0.79999 0.1693 0.0
H533 H 0.71116 0.87994 0.1832 0.0
H534 H 0.68914 0.86156 0.18066 0.0
C535 C 0.62854 0.7875 0.17026 0.0
C536 C 0.66358 0.81228 0.15498 0.0
H537 H 0.70291 0.81792 0.16215 0.0
C538 C 0.65925 0.82793 0.1511 0.0
C539 C 0.67948 0.80864 0.1592 0.0
C540 C 0.68468 0.79216 0.16448 0.0
C541 C 0.67053 0.84001 0.15085 0.0
C542 C 0.68644 0.83631 0.15489 0.0
C543 C 0.69071 0.82069 0.15891 0.0
C544 C 0.69897 0.8484 0.1552 0.0
C545 C 0.66538 0.85654 0.14586 0.0
C546 C 0.71183 0.84706 0.14179 0.0
C547 C 0.72448 0.85746 0.14328 0.0
C548 C 0.72457 0.86937 0.15832 0.0
C549 C 0.71146 0.87094 0.1714 0.0
C550 C 0.69881 0.8605 0.1699 0.0
H551 H 0.65372 0.85675 0.13815 0.0
H552 H 0.66445 0.86338 0.16037 0.0
H553 H 0.67409 0.86247 0.13576 0.0
H554 H 0.71221 0.83776 0.13039 0.0
H555 H 0.73435 0.85591 0.13293 0.0
H556 H 0.21244 0.61879 0.18604 0.0
H557 H 0.18948 0.63605 0.18481 0.0
H558 H 0.21006 0.66151 0.13407 0.0
H559 H 0.23295 0.64424 0.13498 0.0
H560 H 0.19028 0.66827 0.19079 0.0
H561 H 0.16509 0.65429 0.11416 0.0
H562 H 0.17917 0.64169 0.12688 0.0
H563 H 0.18566 0.65895 0.11333 0.0
C564 C 0.212 0.62791 0.17441 0.0
C565 C 0.22457 0.63013 0.16062 0.0
C566 C 0.19886 0.63776 0.17375 0.0
C567 C 0.19797 0.64992 0.15919 0.0
C568 C 0.21034 0.65198 0.14515 0.0
H569 H 0.14369 0.73294 0.1371 0.0
H570 H 0.16149 0.71044 0.13617 0.0
C571 C 0.22349 0.64215 0.14579 0.0
C572 C 0.18477 0.66127 0.15973 0.0
H573 H 0.15603 0.67795 0.13019 0.0
C574 C 0.18263 0.67025 0.17766 0.0
C575 C 0.17488 0.66385 0.14253 0.0
C576 C 0.17619 0.65408 0.1232 0.0
C577 C 0.17126 0.68217 0.17859 0.0
C578 C 0.16158 0.68497 0.16124 0.0
C579 C 0.16348 0.67576 0.14346 0.0
C580 C 0.14996 0.69793 0.16095 0.0
C581 C 0.17015 0.69208 0.19783 0.0
C582 C 0.13734 0.69816 0.17486 0.0
C583 C 0.12715 0.71105 0.17551 0.0
C584 C 0.12936 0.7239 0.16215 0.0
C585 C 0.14167 0.72331 0.14769 0.0
C586 C 0.15185 0.71044 0.14709 0.0
H587 H 0.18065 0.6907 0.20786 0.0
H588 H 0.16883 0.70471 0.19387 0.0
H589 H 0.15966 0.68845 0.20682 0.0
H590 H 0.13552 0.68848 0.18543 0.0
H591 H 0.11773 0.71105 0.18673 0.0
H592 H 0.28793 0.88035 0.32545 0.0
H593 H 0.31069 0.86282 0.32715 0.0
H594 H 0.2881 0.83596 0.37508 0.0
H595 H 0.2654 0.8535 0.37375 0.0
H596 H 0.32024 0.84184 0.3825 0.0
H597 H 0.30991 0.81798 0.30381 0.0
H598 H 0.3118 0.83898 0.30534 0.0
H599 H 0.29536 0.82943 0.31738 0.0
C600 C 0.28782 0.87077 0.33645 0.0
C601 C 0.27476 0.86825 0.34934 0.0
C602 C 0.30082 0.86073 0.33732 0.0
C603 C 0.30095 0.84795 0.35099 0.0
C604 C 0.28819 0.84572 0.36435 0.0
H605 H 0.3551 0.76539 0.37737 0.0
H606 H 0.33752 0.78806 0.37808 0.0
C607 C 0.27521 0.85575 0.36353 0.0
C608 C 0.31412 0.83657 0.35103 0.0
H609 H 0.33207 0.80853 0.32167 0.0
C610 C 0.32289 0.83459 0.36918 0.0
C611 C 0.31753 0.82716 0.33362 0.0
C612 C 0.3081 0.82834 0.31397 0.0
C613 C 0.33496 0.82338 0.37042 0.0
C614 C 0.33815 0.81376 0.35315 0.0
C615 C 0.32962 0.81597 0.33487 0.0
C616 C 0.34969 0.80073 0.35396 0.0
C617 C 0.34423 0.82196 0.39017 0.0
C618 C 0.3623 0.80027 0.34004 0.0
C619 C 0.37235 0.78728 0.33951 0.0
C620 C 0.36987 0.77442 0.35277 0.0
C621 C 0.3574 0.77509 0.36698 0.0
C622 C 0.34738 0.7881 0.36752 0.0
H623 H 0.34355 0.8329 0.39948 0.0
H624 H 0.3393 0.81223 0.39954 0.0
H625 H 0.35677 0.81929 0.38698 0.0
H626 H 0.36421 0.80987 0.32936 0.0
H627 H 0.38181 0.78716 0.32835 0.0
H628 H 0.21387 0.38152 0.32675 0.0
H629 H 0.19071 0.36451 0.32818 0.0
H630 H 0.21174 0.33817 0.37784 0.0
H631 H 0.2348 0.3552 0.37677 0.0
H632 H 0.19077 0.33259 0.3214 0.0
H633 H 0.16737 0.34547 0.39927 0.0
H634 H 0.18147 0.35804 0.38656 0.0
H635 H 0.18785 0.34043 0.39942 0.0
C636 C 0.21349 0.37225 0.33818 0.0
C637 C 0.22622 0.36973 0.35164 0.0
C638 C 0.20024 0.36255 0.33897 0.0
C639 C 0.19941 0.35022 0.35331 0.0
C640 C 0.21196 0.34784 0.36698 0.0
H641 H 0.14544 0.26689 0.37399 0.0
H642 H 0.16325 0.28939 0.37529 0.0
C643 C 0.2252 0.35753 0.36622 0.0
C644 C 0.18605 0.33905 0.35288 0.0
H645 H 0.15786 0.32203 0.383 0.0
C646 C 0.18342 0.33043 0.33476 0.0
C647 C 0.17652 0.33624 0.37037 0.0
C648 C 0.17832 0.34564 0.38994 0.0
C649 C 0.17192 0.31864 0.33389 0.0
C650 C 0.16264 0.31557 0.35153 0.0
C651 C 0.16502 0.32442 0.36952 0.0
C652 C 0.15097 0.30266 0.35185 0.0
C653 C 0.17024 0.30912 0.31438 0.0
C654 C 0.13792 0.30288 0.33862 0.0
C655 C 0.12772 0.29001 0.33779 0.0
C656 C 0.13036 0.27673 0.35024 0.0
C657 C 0.14309 0.27687 0.3641 0.0
C658 C 0.15327 0.28974 0.36491 0.0
H659 H 0.18042 0.31073 0.30386 0.0
H660 H 0.16905 0.29641 0.31797 0.0
H661 H 0.15947 0.31289 0.30608 0.0
H662 H 0.1358 0.31288 0.32867 0.0
H663 H 0.11798 0.29035 0.32704 0.0
H664 H 0.71416 0.12254 0.32657 0.0
H665 H 0.69254 0.1414 0.32892 0.0
H666 H 0.71587 0.16462 0.37947 0.0
H667 H 0.73767 0.14601 0.37705 0.0
H668 H 0.67214 0.14978 0.36118 0.0
H669 H 0.70979 0.19988 0.33733 0.0
H670 H 0.71596 0.17969 0.33474 0.0
H671 H 0.71702 0.18935 0.35936 0.0
C672 C 0.71467 0.13159 0.33828 0.0
C673 C 0.72775 0.13287 0.35147 0.0
C674 C 0.70228 0.14235 0.33961 0.0
C675 C 0.70276 0.15457 0.3541 0.0
C676 C 0.71545 0.15547 0.36787 0.0
H677 H 0.64514 0.23601 0.37909 0.0
H678 H 0.66372 0.2142 0.38086 0.0
C679 C 0.72787 0.14477 0.36652 0.0
C680 C 0.69025 0.16668 0.35436 0.0
H681 H 0.68396 0.20601 0.34821 0.0
C682 C 0.67469 0.16207 0.35831 0.0
C683 C 0.69362 0.18269 0.35047 0.0
C684 C 0.70997 0.18822 0.34504 0.0
C685 C 0.66244 0.17315 0.3589 0.0
C686 C 0.66587 0.18916 0.3552 0.0
C687 C 0.68141 0.19373 0.35117 0.0
C688 C 0.65357 0.20147 0.35526 0.0
C689 C 0.64599 0.1677 0.36382 0.0
C690 C 0.64162 0.20147 0.34035 0.0
C691 C 0.63095 0.21396 0.33925 0.0
C692 C 0.63212 0.2267 0.35299 0.0
C693 C 0.64389 0.22642 0.36824 0.0
C694 C 0.65453 0.21396 0.3693 0.0
H695 H 0.64593 0.15583 0.37098 0.0
H696 H 0.64005 0.17607 0.37439 0.0
H697 H 0.63905 0.16711 0.34935 0.0
H698 H 0.64085 0.19207 0.32913 0.0
H699 H 0.62207 0.21381 0.32728 0.0
H700 H 0.78653 0.621 0.32493 0.0
H701 H 0.8084 0.6396 0.32715 0.0
H702 H 0.78649 0.6619 0.37945 0.0
H703 H 0.76452 0.64354 0.37725 0.0
H704 H 0.79459 0.68258 0.34792 0.0
H705 H 0.84494 0.64396 0.36815 0.0
H706 H 0.83364 0.63768 0.34624 0.0
H707 H 0.82473 0.63791 0.37134 0.0
C708 C 0.78647 0.62971 0.3371 0.0
C709 C 0.77372 0.63081 0.35086 0.0
C710 C 0.79903 0.64027 0.33841 0.0
C711 C 0.79913 0.65202 0.35359 0.0
C712 C 0.78666 0.65288 0.36767 0.0
H713 H 0.85464 0.73487 0.38006 0.0
H714 H 0.83636 0.71275 0.38108 0.0
C715 C 0.7741 0.64236 0.36637 0.0
C716 C 0.81149 0.66428 0.35375 0.0
H717 H 0.85096 0.67039 0.35929 0.0
C718 C 0.8069 0.67993 0.35053 0.0
C719 C 0.82755 0.66074 0.35695 0.0
C720 C 0.83306 0.64418 0.36104 0.0
C721 C 0.81794 0.69215 0.35026 0.0
C722 C 0.83398 0.68866 0.35371 0.0
C723 C 0.83863 0.673 0.35675 0.0
C724 C 0.84602 0.70122 0.3542 0.0
C725 C 0.81237 0.70866 0.34589 0.0
C726 C 0.85789 0.70171 0.33922 0.0
C727 C 0.86844 0.71432 0.33864 0.0
C728 C 0.8673 0.72662 0.35307 0.0
C729 C 0.85577 0.72569 0.36858 0.0
C730 C 0.84528 0.71309 0.36916 0.0
H731 H 0.80058 0.70877 0.33851 0.0
H732 H 0.81152 0.71525 0.36061 0.0
H733 H 0.82076 0.71494 0.33569 0.0
H734 H 0.85869 0.6926 0.3276 0.0
H735 H 0.87721 0.71462 0.32654 0.0
H736 H 0.71149 0.87774 0.82894 0.0
H737 H 0.68954 0.85935 0.83175 0.0
H738 H 0.71316 0.83537 0.88145 0.0
H739 H 0.73529 0.85354 0.87859 0.0
H740 H 0.70347 0.81557 0.85023 0.0
H741 H 0.65449 0.85454 0.87431 0.0
H742 H 0.66489 0.86118 0.85185 0.0
H743 H 0.67487 0.86032 0.87626 0.0
C744 C 0.71194 0.8687 0.84068 0.0
C745 C 0.7252 0.86709 0.8535 0.0
C746 C 0.69931 0.85826 0.84235 0.0
C747 C 0.69963 0.84611 0.85697 0.0
C748 C 0.71266 0.84472 0.87013 0.0
H749 H 0.64246 0.76366 0.88069 0.0
H750 H 0.66113 0.78538 0.88291 0.0
C751 C 0.7253 0.85512 0.86846 0.0
C752 C 0.68707 0.83405 0.85738 0.0
H753 H 0.64757 0.82863 0.8637 0.0
C754 C 0.69127 0.81841 0.85335 0.0
C755 C 0.67115 0.83783 0.86127 0.0
C756 C 0.66605 0.85436 0.86635 0.0
C757 C 0.67996 0.80644 0.8528 0.0
C758 C 0.66404 0.81018 0.85675 0.0
C759 C 0.6598 0.82583 0.86073 0.0
C760 C 0.65171 0.79791 0.85666 0.0
C761 C 0.68509 0.78994 0.84751 0.0
C762 C 0.63982 0.79811 0.84167 0.0
C763 C 0.62905 0.78573 0.84038 0.0
C764 C 0.62998 0.77296 0.85413 0.0
C765 C 0.64148 0.77321 0.86972 0.0
C766 C 0.65221 0.78559 0.87099 0.0
H767 H 0.69686 0.78975 0.84009 0.0
H768 H 0.68577 0.78286 0.86185 0.0
H769 H 0.67651 0.78422 0.837 0.0
H770 H 0.63921 0.80758 0.83053 0.0
H771 H 0.62031 0.78594 0.82825 0.0
H772 H 0.14371 0.73608 0.88022 0.0
H773 H 0.16233 0.71433 0.88271 0.0
H774 H 0.13914 0.69088 0.83224 0.0
H775 H 0.12029 0.71255 0.82969 0.0
H776 H 0.14814 0.67071 0.86624 0.0
H777 H 0.19702 0.70858 0.83862 0.0
H778 H 0.18644 0.71617 0.86042 0.0
H779 H 0.17663 0.71411 0.83603 0.0
C780 C 0.14245 0.72626 0.86973 0.0
C781 C 0.1306 0.72616 0.85459 0.0
C782 C 0.15314 0.71386 0.87116 0.0
C783 C 0.15225 0.70116 0.85743 0.0
C784 C 0.14005 0.70064 0.84291 0.0
H785 H 0.21085 0.62029 0.83109 0.0
H786 H 0.18904 0.63881 0.83413 0.0
C787 C 0.12931 0.71305 0.84147 0.0
C788 C 0.16452 0.68883 0.85763 0.0
H789 H 0.20374 0.68302 0.84972 0.0
C790 C 0.1603 0.67335 0.86261 0.0
C791 C 0.18035 0.69236 0.85282 0.0
C792 C 0.18542 0.70867 0.84649 0.0
C793 C 0.1716 0.66131 0.86329 0.0
C794 C 0.18744 0.66487 0.85853 0.0
C795 C 0.19161 0.68035 0.85351 0.0
C796 C 0.19992 0.65273 0.85814 0.0
C797 C 0.16656 0.64498 0.86945 0.0
C798 C 0.21332 0.65445 0.87055 0.0
C799 C 0.22588 0.64396 0.86873 0.0
C800 C 0.22531 0.63159 0.85437 0.0
C801 C 0.21167 0.62965 0.84236 0.0
C802 C 0.19913 0.64017 0.84416 0.0
H803 H 0.15523 0.64511 0.87798 0.0
H804 H 0.16494 0.63775 0.85538 0.0
H805 H 0.17561 0.63924 0.87922 0.0
H806 H 0.21419 0.66411 0.88136 0.0
H807 H 0.23619 0.6458 0.87825 0.0
H808 H 0.37678 0.21204 0.82461 0.0
H809 H 0.35793 0.19032 0.82632 0.0
H810 H 0.33632 0.21137 0.8797 0.0
H811 H 0.35494 0.23317 0.87807 0.0
H812 H 0.35008 0.16864 0.85922 0.0
H813 H 0.30027 0.20737 0.8371 0.0
H814 H 0.32055 0.21308 0.83379 0.0
H815 H 0.31151 0.21414 0.85879 0.0
C816 C 0.3681 0.212 0.83682 0.0
C817 C 0.36727 0.22445 0.85107 0.0
C818 C 0.35737 0.19957 0.83777 0.0
C819 C 0.34561 0.19941 0.85292 0.0
C820 C 0.34516 0.21144 0.86767 0.0
H821 H 0.26299 0.14365 0.87753 0.0
H822 H 0.28521 0.16176 0.87923 0.0
C823 C 0.35585 0.22387 0.86674 0.0
C824 C 0.33339 0.18703 0.85287 0.0
H825 H 0.29391 0.18145 0.84728 0.0
C826 C 0.3378 0.17138 0.85655 0.0
C827 C 0.31741 0.19069 0.84929 0.0
C828 C 0.31211 0.2072 0.84433 0.0
C829 C 0.32652 0.15932 0.85726 0.0
C830 C 0.31052 0.16303 0.85388 0.0
C831 C 0.30618 0.17866 0.85002 0.0
C832 C 0.29797 0.15096 0.8541 0.0
C833 C 0.33177 0.14279 0.86208 0.0
C834 C 0.29785 0.13878 0.83952 0.0
C835 C 0.28515 0.12836 0.83852 0.0
C836 C 0.27228 0.13004 0.85198 0.0
C837 C 0.27266 0.14202 0.8669 0.0
C838 C 0.28536 0.15239 0.86791 0.0
H839 H 0.34357 0.14259 0.86943 0.0
H840 H 0.32326 0.13683 0.87245 0.0
H841 H 0.33246 0.13595 0.84754 0.0
H842 H 0.30731 0.13765 0.82845 0.0
H843 H 0.28522 0.11931 0.82679 0.0
H844 H 0.8815 0.28856 0.82344 0.0
H845 H 0.86434 0.31157 0.82555 0.0
H846 H 0.83896 0.2901 0.87571 0.0
H847 H 0.85612 0.26716 0.87395 0.0
H848 H 0.83225 0.31101 0.81956 0.0
H849 H 0.84606 0.33459 0.89708 0.0
H850 H 0.85865 0.32072 0.88397 0.0
H851 H 0.84135 0.31403 0.89728 0.0
C852 C 0.87242 0.28882 0.83514 0.0
C853 C 0.87018 0.27598 0.84851 0.0
C854 C 0.86263 0.30198 0.83631 0.0
C855 C 0.85051 0.30263 0.85096 0.0
C856 C 0.84845 0.29 0.86459 0.0
H857 H 0.76688 0.35542 0.87427 0.0
H858 H 0.7897 0.33801 0.87487 0.0
C859 C 0.85822 0.27684 0.86345 0.0
C860 C 0.83916 0.31584 0.85085 0.0
H861 H 0.82227 0.34381 0.88142 0.0
C862 C 0.83021 0.31835 0.83297 0.0
C863 C 0.83652 0.32534 0.8684 0.0
C864 C 0.84626 0.32366 0.88771 0.0
C865 C 0.81824 0.32967 0.83243 0.0
C866 C 0.81534 0.33893 0.85014 0.0
C867 C 0.82453 0.33668 0.86788 0.0
C868 C 0.80225 0.35038 0.85084 0.0
C869 C 0.80836 0.33118 0.81319 0.0
C870 C 0.80195 0.36336 0.83751 0.0
C871 C 0.78889 0.37333 0.83705 0.0
C872 C 0.77593 0.37053 0.85002 0.0
C873 C 0.7766 0.35789 0.86399 0.0
C874 C 0.78965 0.34793 0.8644 0.0
H875 H 0.8099 0.32099 0.80268 0.0
H876 H 0.7957 0.33222 0.81716 0.0
H877 H 0.81187 0.34195 0.80473 0.0
H878 H 0.8117 0.3656 0.82718 0.0
H879 H 0.78882 0.38301 0.82622 0.0
H880 H 0.62053 0.2125 0.68857 0.0
H881 H 0.63876 0.19026 0.68749 0.0
H882 H 0.66038 0.20941 0.63288 0.0
H883 H 0.64241 0.23177 0.63395 0.0
H884 H 0.64571 0.16748 0.65657 0.0
H885 H 0.69691 0.20565 0.67411 0.0
H886 H 0.67687 0.21216 0.67732 0.0
H887 H 0.68569 0.21189 0.65214 0.0
C888 C 0.62908 0.21194 0.67623 0.0
C889 C 0.63014 0.22404 0.66149 0.0
C890 C 0.63947 0.1992 0.67563 0.0
C891 C 0.65108 0.19836 0.66033 0.0
C892 C 0.65169 0.21002 0.64506 0.0
H893 H 0.73071 0.13992 0.63289 0.0
H894 H 0.70857 0.15811 0.63214 0.0
C895 C 0.64137 0.22277 0.64567 0.0
C896 C 0.66299 0.18568 0.66076 0.0
H897 H 0.70248 0.17933 0.66468 0.0
C898 C 0.65812 0.17002 0.65844 0.0
C899 C 0.67915 0.18907 0.66338 0.0
C900 C 0.685 0.20558 0.66708 0.0
C901 C 0.66909 0.15766 0.65801 0.0
C902 C 0.68525 0.16111 0.66019 0.0
C903 C 0.69007 0.17675 0.66284 0.0
C904 C 0.69754 0.14881 0.65958 0.0
C905 C 0.66337 0.14107 0.65472 0.0
C906 C 0.69856 0.1374 0.67515 0.0
C907 C 0.71125 0.12694 0.67566 0.0
C908 C 0.72318 0.1278 0.66067 0.0
C909 C 0.72179 0.13894 0.64473 0.0
C910 C 0.70913 0.14935 0.64425 0.0
H911 H 0.65107 0.14076 0.64896 0.0
H912 H 0.67104 0.13478 0.64359 0.0
H913 H 0.66381 0.13463 0.66958 0.0
H914 H 0.68986 0.13696 0.68732 0.0
H915 H 0.71198 0.11854 0.68818 0.0
H916 H 0.78703 0.62061 0.68014 0.0
H917 H 0.80895 0.63916 0.6775 0.0
H918 H 0.78547 0.66294 0.62754 0.0
H919 H 0.76346 0.64462 0.63013 0.0
H920 H 0.82903 0.64797 0.64347 0.0
H921 H 0.79209 0.69736 0.67169 0.0
H922 H 0.78623 0.67706 0.67417 0.0
H923 H 0.78422 0.68701 0.64988 0.0
C924 C 0.78658 0.62969 0.66846 0.0
C925 C 0.77339 0.63123 0.65551 0.0
C926 C 0.79913 0.64026 0.66697 0.0
C927 C 0.79868 0.65255 0.65256 0.0
C928 C 0.78589 0.65369 0.639 0.0
H929 H 0.85529 0.73568 0.63195 0.0
H930 H 0.83667 0.71395 0.62869 0.0
C931 C 0.77335 0.64317 0.64048 0.0
C932 C 0.8112 0.66462 0.65231 0.0
H933 H 0.8177 0.7037 0.6604 0.0
C934 C 0.8266 0.66016 0.64718 0.0
C935 C 0.80796 0.68048 0.65723 0.0
C936 C 0.79177 0.6858 0.66374 0.0
C937 C 0.83882 0.67127 0.64648 0.0
C938 C 0.83555 0.68714 0.65136 0.0
C939 C 0.82015 0.69154 0.65652 0.0
C940 C 0.8479 0.69942 0.65176 0.0
C941 C 0.85505 0.66598 0.64018 0.0
C942 C 0.86049 0.69838 0.66568 0.0
C943 C 0.87118 0.71077 0.66756 0.0
C944 C 0.8694 0.7245 0.65569 0.0
C945 C 0.85701 0.7253 0.64136 0.0
C946 C 0.84635 0.71289 0.63946 0.0
H947 H 0.85469 0.65468 0.63159 0.0
H948 H 0.8609 0.67497 0.63043 0.0
H949 H 0.86231 0.66419 0.6542 0.0
H950 H 0.86172 0.68823 0.67563 0.0
H951 H 0.88054 0.70977 0.67881 0.0
H952 H 0.28812 0.88102 0.68152 0.0
H953 H 0.31094 0.86363 0.67895 0.0
H954 H 0.28764 0.83702 0.63132 0.0
H955 H 0.26492 0.85442 0.63352 0.0
H956 H 0.3106 0.83192 0.68657 0.0
H957 H 0.33123 0.84302 0.6069 0.0
H958 H 0.31781 0.85604 0.62008 0.0
H959 H 0.3107 0.83829 0.60823 0.0
C960 C 0.28793 0.87161 0.67028 0.0
C961 C 0.27466 0.86912 0.65774 0.0
C962 C 0.30099 0.86169 0.66883 0.0
C963 C 0.30108 0.84917 0.65475 0.0
C964 C 0.28799 0.84683 0.64196 0.0
H965 H 0.35393 0.76466 0.63436 0.0
H966 H 0.33603 0.78713 0.63287 0.0
C967 C 0.27494 0.85674 0.64336 0.0
C968 C 0.31424 0.83775 0.65463 0.0
H969 H 0.34108 0.8198 0.62334 0.0
C970 C 0.31742 0.82942 0.67283 0.0
C971 C 0.32305 0.83447 0.63664 0.0
C972 C 0.32065 0.84353 0.61691 0.0
C973 C 0.32881 0.81751 0.67336 0.0
C974 C 0.33741 0.81402 0.65528 0.0
C975 C 0.33444 0.82252 0.63716 0.0
C976 C 0.34911 0.80114 0.65479 0.0
C977 C 0.33113 0.80836 0.69308 0.0
C978 C 0.36261 0.80178 0.66716 0.0
C979 C 0.37286 0.78896 0.66809 0.0
C980 C 0.36979 0.77527 0.65659 0.0
C981 C 0.35661 0.77497 0.64349 0.0
C982 C 0.34637 0.78781 0.64259 0.0
H983 H 0.32132 0.81022 0.70412 0.0
H984 H 0.33216 0.79559 0.68985 0.0
H985 H 0.34217 0.81226 0.70061 0.0
H986 H 0.36506 0.81209 0.67642 0.0
H987 H 0.38295 0.78966 0.67822 0.0
H988 H 0.11895 0.28805 0.68168 0.0
H989 H 0.13634 0.31092 0.68062 0.0
H990 H 0.16271 0.28966 0.63118 0.0
H991 H 0.1453 0.26687 0.63188 0.0
H992 H 0.16821 0.31015 0.68791 0.0
H993 H 0.15646 0.33432 0.61012 0.0
H994 H 0.1435 0.32041 0.62249 0.0
H995 H 0.1611 0.31375 0.60985 0.0
C996 C 0.1283 0.28832 0.67036 0.0
C997 C 0.13073 0.27559 0.65687 0.0
C998 C 0.13823 0.30141 0.66979 0.0
C999 C 0.15068 0.30208 0.65565 0.0
C1000 C 0.15296 0.28955 0.64191 0.0
H1001 H 0.23501 0.35488 0.63656 0.0
H1002 H 0.21229 0.33738 0.63493 0.0
C1003 C 0.14304 0.27647 0.64244 0.0
C1004 C 0.16211 0.31522 0.65639 0.0
H1005 H 0.17988 0.34332 0.62691 0.0
C1006 C 0.17061 0.31756 0.67468 0.0
C1007 C 0.16524 0.32482 0.63908 0.0
C1008 C 0.15599 0.32332 0.61933 0.0
C1009 C 0.1826 0.32885 0.67589 0.0
C1010 C 0.18598 0.33821 0.65842 0.0
C1011 C 0.17725 0.33611 0.64026 0.0
C1012 C 0.19909 0.34965 0.65844 0.0
C1013 C 0.19197 0.33021 0.69557 0.0
C1014 C 0.19902 0.36258 0.67185 0.0
C1015 C 0.21201 0.37262 0.67288 0.0
C1016 C 0.22529 0.36991 0.66044 0.0
C1017 C 0.22503 0.35728 0.64645 0.0
C1018 C 0.21204 0.34727 0.64545 0.0
H1019 H 0.19012 0.31997 0.70591 0.0
H1020 H 0.20473 0.33123 0.69219 0.0
H1021 H 0.18829 0.34095 0.70397 0.0
H1022 H 0.189 0.36477 0.68175 0.0
H1023 H 0.21176 0.38229 0.68373 0.0
H1024 H 0.2243 0.07652 0.093 0.0
H1025 H 0.22081 0.07126 0.05604 0.0
H1026 H 0.20713 0.11949 0.04641 0.0
H1027 H 0.21045 0.12481 0.0831 0.0
H1028 H 0.18809 0.09699 0.0251 0.0
H1029 H 0.25217 0.08776 0.01217 0.0
H1030 H 0.24295 0.07593 0.0317 0.0
H1031 H 0.24464 0.09677 0.03534 0.0
C1032 C 0.2204 0.08595 0.08303 0.0
C1033 C 0.21776 0.10111 0.09098 0.0
C1034 C 0.21849 0.08295 0.06191 0.0
C1035 C 0.21391 0.09505 0.04845 0.0
C1036 C 0.21071 0.11 0.05651 0.0
H1037 H 0.20482 0.1232 0.92419 0.0
H1038 H 0.20248 0.1183 0.96105 0.0
C1039 C 0.21265 0.11302 0.07751 0.0
C1040 C 0.21299 0.09254 0.02583 0.0
H1041 H 0.23585 0.08754 0.98305 0.0
C1042 C 0.19849 0.09471 0.0159 0.0
C1043 C 0.22657 0.08951 0.01387 0.0
C1044 C 0.24252 0.08744 0.02369 0.0
C1045 C 0.19728 0.0944 0.99431 0.0
C1046 C 0.21098 0.09217 0.9823 0.0
C1047 C 0.22535 0.08925 0.99225 0.0
C1048 C 0.21101 0.09436 0.95956 0.0
C1049 C 0.18134 0.09667 0.98456 0.0
C1050 C 0.21674 0.08259 0.94636 0.0
C1051 C 0.21818 0.0854 0.92514 0.0
C1052 C 0.21408 0.1001 0.91681 0.0
C1053 C 0.20802 0.11172 0.93004 0.0
C1054 C 0.20656 0.10889 0.95116 0.0
H1055 H 0.17178 0.09283 0.99509 0.0
H1056 H 0.17955 0.10934 0.98127 0.0
H1057 H 0.18032 0.09006 0.96986 0.0
H1058 H 0.22038 0.07133 0.95254 0.0
H1059 H 0.22297 0.07624 0.9154 0.0
H1060 H 0.92312 0.22591 0.91297 0.0
H1061 H 0.92831 0.2226 0.94997 0.0
H1062 H 0.88127 0.20492 0.95857 0.0
H1063 H 0.87606 0.20804 0.92187 0.0
H1064 H 0.9119 0.23762 0.98143 0.0
H1065 H 0.90741 0.17318 0.99074 0.0
H1066 H 0.91018 0.18241 0.96592 0.0
H1067 H 0.89088 0.18125 0.97719 0.0
C1068 C 0.914 0.22105 0.9227 0.0
C1069 C 0.89918 0.21723 0.91446 0.0
C1070 C 0.91697 0.21919 0.94383 0.0
C1071 C 0.90525 0.2133 0.957 0.0
C1072 C 0.89061 0.20915 0.94868 0.0
H1073 H 0.87594 0.20839 0.0808 0.0
H1074 H 0.88113 0.206 0.04397 0.0
C1075 C 0.88761 0.21105 0.92766 0.0
C1076 C 0.90766 0.21272 0.97967 0.0
H1077 H 0.90357 0.18865 0.02147 0.0
C1078 C 0.91042 0.22687 0.9902 0.0
C1079 C 0.90572 0.19868 0.99108 0.0
C1080 C 0.90354 0.183 0.98063 0.0
C1081 C 0.9103 0.22753 0.01186 0.0
C1082 C 0.90761 0.2136 0.02326 0.0
C1083 C 0.90559 0.19933 0.01272 0.0
C1084 C 0.90526 0.21388 0.04595 0.0
C1085 C 0.91211 0.24327 0.02231 0.0
C1086 C 0.91724 0.21872 0.05943 0.0
C1087 C 0.9143 0.22013 0.08062 0.0
C1088 C 0.89932 0.21668 0.08865 0.0
C1089 C 0.88758 0.21122 0.07516 0.0
C1090 C 0.89053 0.20981 0.05407 0.0
H1091 H 0.91126 0.25319 0.01123 0.0
H1092 H 0.90299 0.24484 0.03438 0.0
H1093 H 0.92379 0.24385 0.0299 0.0
H1094 H 0.92878 0.22167 0.05353 0.0
H1095 H 0.92361 0.22431 0.0906 0.0
H1096 H 0.77302 0.92114 0.91739 0.0
H1097 H 0.7747 0.92507 0.95484 0.0
H1098 H 0.79422 0.87861 0.96176 0.0
H1099 H 0.79252 0.87456 0.92463 0.0
H1100 H 0.76691 0.88482 0.98585 0.0
H1101 H 0.81243 0.93129 0.99525 0.0
H1102 H 0.79708 0.93488 0.97673 0.0
H1103 H 0.81098 0.91941 0.97223 0.0
C1104 C 0.77795 0.91189 0.92686 0.0
C1105 C 0.78257 0.89751 0.91802 0.0
C1106 C 0.77895 0.91418 0.94825 0.0
C1107 C 0.78465 0.90215 0.96107 0.0
C1108 C 0.78981 0.88805 0.95215 0.0
H1109 H 0.7931 0.87574 0.08755 0.0
H1110 H 0.79466 0.87917 0.05027 0.0
C1111 C 0.78882 0.88576 0.93089 0.0
C1112 C 0.78394 0.90347 0.98386 0.0
H1113 H 0.80006 0.92206 0.02556 0.0
C1114 C 0.77411 0.89301 0.99452 0.0
C1115 C 0.79323 0.91427 0.99511 0.0
C1116 C 0.80413 0.92558 0.98435 0.0
C1117 C 0.77352 0.89285 0.01611 0.0
C1118 C 0.78323 0.90323 0.02742 0.0
C1119 C 0.7927 0.91407 0.01682 0.0
C1120 C 0.78412 0.90229 0.05023 0.0
C1121 C 0.76252 0.88148 0.02666 0.0
C1122 C 0.7783 0.91447 0.06267 0.0
C1123 C 0.77744 0.91258 0.08413 0.0
C1124 C 0.78242 0.89848 0.09341 0.0
C1125 C 0.78903 0.8867 0.08092 0.0
C1126 C 0.78991 0.88861 0.05958 0.0
H1127 H 0.75309 0.87736 0.01612 0.0
H1128 H 0.76928 0.87105 0.03185 0.0
H1129 H 0.757 0.88695 0.04041 0.0
H1130 H 0.77383 0.92515 0.05572 0.0
H1131 H 0.7723 0.92188 0.09332 0.0
H1132 H 0.1226 0.79449 0.92516 0.0
H1133 H 0.11878 0.79556 0.9624 0.0
H1134 H 0.07309 0.77428 0.95569 0.0
H1135 H 0.07677 0.77321 0.91812 0.0
H1136 H 0.07631 0.80074 0.98685 0.0
H1137 H 0.12005 0.75267 0.99488 0.0
H1138 H 0.12644 0.76897 0.9794 0.0
H1139 H 0.11031 0.75701 0.9708 0.0
C1140 C 0.11161 0.79025 0.9315 0.0
C1141 C 0.10005 0.7836 0.91868 0.0
C1142 C 0.10947 0.79086 0.95281 0.0
C1143 C 0.09577 0.78479 0.96178 0.0
C1144 C 0.08377 0.77898 0.94901 0.0
H1145 H 0.0765 0.77235 0.09436 0.0
H1146 H 0.07259 0.77452 0.05695 0.0
C1147 C 0.0859 0.77838 0.92758 0.0
C1148 C 0.0947 0.78347 0.98451 0.0
H1149 H 0.11264 0.76592 0.02555 0.0
C1150 C 0.08409 0.79302 0.99537 0.0
C1151 C 0.10482 0.77329 0.99552 0.0
C1152 C 0.11597 0.76228 0.9846 0.0
C1153 C 0.08389 0.79317 0.01709 0.0
C1154 C 0.09444 0.7834 0.02805 0.0
C1155 C 0.10463 0.77348 0.01711 0.0
C1156 C 0.09583 0.78374 0.05085 0.0
C1157 C 0.07288 0.80418 0.02817 0.0
C1158 C 0.11013 0.78828 0.05981 0.0
C1159 C 0.11241 0.78699 0.08104 0.0
C1160 C 0.10046 0.78105 0.09382 0.0
C1161 C 0.08591 0.77703 0.08494 0.0
C1162 C 0.08363 0.77831 0.06359 0.0
H1163 H 0.06743 0.81285 0.01752 0.0
H1164 H 0.06335 0.79727 0.03552 0.0
H1165 H 0.07921 0.81063 0.04053 0.0
H1166 H 0.1197 0.79247 0.05026 0.0
H1167 H 0.12375 0.79025 0.08734 0.0
H1168 H 0.22708 0.92079 0.41654 0.0
H1169 H 0.22548 0.92456 0.45406 0.0
H1170 H 0.20605 0.87805 0.4607 0.0
H1171 H 0.20769 0.87413 0.42352 0.0
H1172 H 0.19913 0.92099 0.48421 0.0
H1173 H 0.2477 0.87822 0.49497 0.0
H1174 H 0.24356 0.88737 0.47045 0.0
H1175 H 0.23184 0.87111 0.47924 0.0
C1176 C 0.22225 0.91147 0.42598 0.0
C1177 C 0.21768 0.89709 0.41707 0.0
C1178 C 0.22134 0.91365 0.44739 0.0
C1179 C 0.21588 0.90148 0.46013 0.0
C1180 C 0.21052 0.88749 0.45114 0.0
H1181 H 0.20723 0.87459 0.58568 0.0
H1182 H 0.20563 0.8785 0.54851 0.0
C1183 C 0.21144 0.88529 0.42986 0.0
C1184 C 0.21667 0.90279 0.48289 0.0
H1185 H 0.23338 0.88544 0.52496 0.0
C1186 C 0.20673 0.91338 0.49318 0.0
C1187 C 0.2267 0.89291 0.49449 0.0
C1188 C 0.23817 0.88185 0.48426 0.0
C1189 C 0.20604 0.91378 0.51487 0.0
C1190 C 0.21563 0.90344 0.5264 0.0
C1191 C 0.22595 0.89327 0.51607 0.0
C1192 C 0.21472 0.90223 0.54918 0.0
C1193 C 0.19467 0.92478 0.52532 0.0
C1194 C 0.22009 0.91442 0.56196 0.0
C1195 C 0.22102 0.91222 0.58336 0.0
C1196 C 0.21669 0.89776 0.59223 0.0
C1197 C 0.21072 0.88585 0.57939 0.0
C1198 C 0.20979 0.88806 0.55811 0.0
H1199 H 0.1864 0.93029 0.5142 0.0
H1200 H 0.18778 0.9184 0.53722 0.0
H1201 H 0.20133 0.93425 0.5332 0.0
H1202 H 0.22415 0.92537 0.55534 0.0
H1203 H 0.22573 0.92159 0.59283 0.0
H1204 H 0.07733 0.22715 0.59089 0.0
H1205 H 0.07204 0.22421 0.55386 0.0
H1206 H 0.11872 0.2057 0.54493 0.0
H1207 H 0.12404 0.20846 0.58166 0.0
H1208 H 0.08879 0.23912 0.52248 0.0
H1209 H 0.0918 0.17464 0.51258 0.0
H1210 H 0.08921 0.1838 0.53748 0.0
H1211 H 0.10848 0.18229 0.52621 0.0
C1212 C 0.08635 0.22218 0.58108 0.0
C1213 C 0.1011 0.21802 0.58924 0.0
C1214 C 0.08332 0.22054 0.55993 0.0
C1215 C 0.0949 0.21452 0.54667 0.0
C1216 C 0.10948 0.21004 0.5549 0.0
H1217 H 0.12369 0.20949 0.42261 0.0
H1218 H 0.11856 0.20698 0.45944 0.0
C1219 C 0.11254 0.21174 0.57593 0.0
C1220 C 0.09244 0.21412 0.524 0.0
H1221 H 0.09583 0.19017 0.48197 0.0
C1222 C 0.08999 0.22838 0.5136 0.0
C1223 C 0.09402 0.2001 0.51246 0.0
C1224 C 0.09586 0.18432 0.52277 0.0
C1225 C 0.09007 0.22915 0.49195 0.0
C1226 C 0.09238 0.21522 0.48041 0.0
C1227 C 0.09409 0.20085 0.49082 0.0
C1228 C 0.09466 0.21555 0.45771 0.0
C1229 C 0.08861 0.24498 0.48164 0.0
C1230 C 0.08277 0.22081 0.44434 0.0
C1231 C 0.08568 0.22229 0.42315 0.0
C1232 C 0.10052 0.21848 0.415 0.0
C1233 C 0.11215 0.2126 0.42835 0.0
C1234 C 0.10923 0.21112 0.44944 0.0
H1235 H 0.08978 0.25482 0.4928 0.0
H1236 H 0.09771 0.24638 0.46951 0.0
H1237 H 0.07691 0.24591 0.47418 0.0
H1238 H 0.07134 0.22403 0.45035 0.0
H1239 H 0.07646 0.2268 0.41328 0.0
H1240 H 0.76736 0.12396 0.58183 0.0
H1241 H 0.76977 0.11995 0.54484 0.0
H1242 H 0.7951 0.07674 0.55571 0.0
H1243 H 0.79154 0.08021 0.59302 0.0
H1244 H 0.79292 0.1199 0.52145 0.0
H1245 H 0.76601 0.06091 0.51355 0.0
H1246 H 0.76539 0.07177 0.53737 0.0
H1247 H 0.78275 0.06089 0.53033 0.0
C1248 C 0.77335 0.11354 0.57633 0.0
C1249 C 0.77925 0.10238 0.59026 0.0
C1250 C 0.77475 0.11124 0.55513 0.0
C1251 C 0.78246 0.09792 0.54725 0.0
C1252 C 0.78866 0.08686 0.56122 0.0
H1253 H 0.80695 0.10727 0.41619 0.0
H1254 H 0.80946 0.10365 0.45351 0.0
C1255 C 0.78678 0.08892 0.58256 0.0
C1256 C 0.7843 0.0962 0.52446 0.0
H1257 H 0.77795 0.07155 0.48365 0.0
C1258 C 0.78957 0.10931 0.51323 0.0
C1259 C 0.77986 0.08245 0.51356 0.0
C1260 C 0.77304 0.06827 0.52429 0.0
C1261 C 0.78997 0.10934 0.49161 0.0
C1262 C 0.78601 0.09544 0.4807 0.0
C1263 C 0.78116 0.08215 0.49192 0.0
C1264 C 0.78575 0.09487 0.4577 0.0
C1265 C 0.79376 0.12463 0.48085 0.0
C1266 C 0.77219 0.08972 0.44726 0.0
C1267 C 0.77108 0.09103 0.42579 0.0
C1268 C 0.78338 0.09782 0.41446 0.0
C1269 C 0.79727 0.10213 0.42468 0.0
C1270 C 0.7986 0.10026 0.44603 0.0
H1271 H 0.79159 0.13492 0.49101 0.0
H1272 H 0.8064 0.12478 0.47663 0.0
H1273 H 0.78664 0.12613 0.46665 0.0
H1274 H 0.76214 0.08539 0.45578 0.0
H1275 H 0.76022 0.08772 0.41823 0.0
H1276 H 0.92461 0.77252 0.59543 0.0
H1277 H 0.92943 0.77563 0.55833 0.0
H1278 H 0.8837 0.7968 0.55116 0.0
H1279 H 0.8789 0.79394 0.58798 0.0
H1280 H 0.91186 0.76194 0.5275 0.0
H1281 H 0.91104 0.82646 0.51791 0.0
H1282 H 0.91345 0.81719 0.54276 0.0
H1283 H 0.89416 0.81955 0.53174 0.0
C1284 C 0.91573 0.77813 0.586 0.0
C1285 C 0.90138 0.783 0.59468 0.0
C1286 C 0.91849 0.77986 0.5648 0.0
C1287 C 0.90702 0.78666 0.55199 0.0
C1288 C 0.89288 0.79187 0.56076 0.0
H1289 H 0.87591 0.79235 0.42887 0.0
H1290 H 0.88172 0.79459 0.46558 0.0
C1291 C 0.89011 0.79012 0.58185 0.0
C1292 C 0.90905 0.78704 0.52923 0.0
H1293 H 0.90558 0.81117 0.48737 0.0
C1294 C 0.91084 0.77273 0.51871 0.0
C1295 C 0.90771 0.80113 0.51777 0.0
C1296 C 0.90664 0.81696 0.52815 0.0
C1297 C 0.91033 0.77202 0.49707 0.0
C1298 C 0.90821 0.78604 0.48565 0.0
C1299 C 0.90715 0.80043 0.49614 0.0
C1300 C 0.9055 0.78581 0.46303 0.0
C1301 C 0.91113 0.75618 0.48664 0.0
C1302 C 0.91709 0.7805 0.44927 0.0
C1303 C 0.9138 0.7792 0.42815 0.0
C1304 C 0.89886 0.78321 0.42048 0.0
C1305 C 0.88752 0.78909 0.43424 0.0
C1306 C 0.89082 0.79041 0.45526 0.0
H1307 H 0.91006 0.74634 0.49781 0.0
H1308 H 0.90167 0.75504 0.47494 0.0
H1309 H 0.92258 0.75502 0.4786 0.0
H1310 H 0.92859 0.77711 0.45491 0.0
H1311 H 0.9228 0.77467 0.41796 0.0
H1312 H 0.70516 0.62424 0.58522 0.0
H1313 H 0.70346 0.62017 0.54809 0.0
H1314 H 0.72293 0.5737 0.55505 0.0
H1315 H 0.72462 0.57764 0.5925 0.0
H1316 H 0.73122 0.61377 0.52443 0.0
H1317 H 0.68525 0.56784 0.51409 0.0
H1318 H 0.68645 0.5798 0.53706 0.0
H1319 H 0.70031 0.56422 0.53303 0.0
C1320 C 0.70883 0.61302 0.57897 0.0
C1321 C 0.7151 0.60129 0.59184 0.0
C1322 C 0.70784 0.61072 0.55772 0.0
C1323 C 0.71301 0.59663 0.54882 0.0
C1324 C 0.71867 0.58459 0.56164 0.0
H1325 H 0.72604 0.5776 0.41645 0.0
H1326 H 0.7243 0.57401 0.45399 0.0
C1327 C 0.71967 0.58688 0.58302 0.0
C1328 C 0.7139 0.59537 0.52604 0.0
H1329 H 0.69783 0.5772 0.484 0.0
C1330 C 0.72397 0.60572 0.51561 0.0
C1331 C 0.70455 0.58474 0.5146 0.0
C1332 C 0.69343 0.57354 0.52515 0.0
C1333 C 0.72473 0.60597 0.49403 0.0
C1334 C 0.71494 0.59579 0.48252 0.0
C1335 C 0.70524 0.58504 0.4929 0.0
C1336 C 0.71418 0.59692 0.45973 0.0
C1337 C 0.73596 0.61723 0.48371 0.0
C1338 C 0.70856 0.61073 0.45054 0.0
C1339 C 0.70957 0.61282 0.42925 0.0
C1340 C 0.71614 0.60109 0.41665 0.0
C1341 C 0.72094 0.58686 0.42574 0.0
C1342 C 0.71996 0.58479 0.44717 0.0
H1343 H 0.74538 0.62115 0.4944 0.0
H1344 H 0.74149 0.61175 0.46997 0.0
H1345 H 0.72939 0.62779 0.47854 0.0
H1346 H 0.70385 0.62014 0.45996 0.0
H1347 H 0.70562 0.62387 0.42276 0.0
H1348 H 0.37627 0.70759 0.4268 0.0
H1349 H 0.3816 0.70525 0.46362 0.0
H1350 H 0.42873 0.7224 0.45403 0.0
H1351 H 0.42343 0.72496 0.41697 0.0
H1352 H 0.40481 0.68856 0.48604 0.0
H1353 H 0.41009 0.75332 0.49642 0.0
H1354 H 0.402 0.7447 0.47332 0.0
H1355 H 0.42285 0.74448 0.47762 0.0
C1356 C 0.38784 0.71075 0.43243 0.0
C1357 C 0.39939 0.71659 0.41894 0.0
C1358 C 0.39087 0.70937 0.45351 0.0
C1359 C 0.40547 0.71387 0.46162 0.0
C1360 C 0.41728 0.71911 0.44813 0.0
H1361 H 0.42363 0.72667 0.59435 0.0
H1362 H 0.42863 0.72357 0.55729 0.0
C1363 C 0.41426 0.72047 0.42695 0.0
C1364 C 0.40788 0.71364 0.4843 0.0
H1365 H 0.41147 0.73773 0.52617 0.0
C1366 C 0.40646 0.69929 0.49481 0.0
C1367 C 0.41008 0.72764 0.49573 0.0
C1368 C 0.41125 0.74345 0.4853 0.0
C1369 C 0.40675 0.6986 0.51645 0.0
C1370 C 0.40822 0.71269 0.5279 0.0
C1371 C 0.41035 0.72695 0.51738 0.0
C1372 C 0.406 0.71313 0.55062 0.0
C1373 C 0.40528 0.68282 0.52685 0.0
C1374 C 0.39166 0.70826 0.55918 0.0
C1375 C 0.38878 0.71003 0.58024 0.0
C1376 C 0.40014 0.7168 0.59325 0.0
C1377 C 0.41467 0.72134 0.58477 0.0
C1378 C 0.41753 0.7196 0.5636 0.0
H1379 H 0.40953 0.6732 0.51669 0.0
H1380 H 0.412 0.68247 0.54153 0.0
H1381 H 0.39272 0.68052 0.53035 0.0
H1382 H 0.38244 0.70358 0.54943 0.0
H1383 H 0.37744 0.70646 0.58621 0.0
H1384 H 0.29326 0.37425 0.42656 0.0
H1385 H 0.29483 0.37818 0.46374 0.0
H1386 H 0.27607 0.42495 0.45691 0.0
H1387 H 0.27455 0.42117 0.41939 0.0
H1388 H 0.30212 0.42113 0.48728 0.0
H1389 H 0.25313 0.3788 0.49766 0.0
H1390 H 0.269 0.3715 0.48213 0.0
H1391 H 0.2575 0.38785 0.47315 0.0
C1392 C 0.28964 0.38547 0.43286 0.0
C1393 C 0.28361 0.39734 0.42002 0.0
C1394 C 0.29053 0.38767 0.45414 0.0
C1395 C 0.28532 0.40174 0.46308 0.0
C1396 C 0.28008 0.41397 0.45028 0.0
H1397 H 0.2748 0.42201 0.59559 0.0
H1398 H 0.27666 0.42574 0.55812 0.0
C1399 C 0.27922 0.41179 0.42887 0.0
C1400 C 0.28444 0.40306 0.48583 0.0
H1401 H 0.26739 0.38588 0.52777 0.0
C1402 C 0.29441 0.41359 0.49619 0.0
C1403 C 0.27427 0.39328 0.49736 0.0
C1404 C 0.26275 0.38231 0.48704 0.0
C1405 C 0.295 0.41401 0.51788 0.0
C1406 C 0.28527 0.40374 0.52934 0.0
C1407 C 0.27493 0.39365 0.51893 0.0
C1408 C 0.28605 0.40256 0.55212 0.0
C1409 C 0.3064 0.42493 0.52843 0.0
C1410 C 0.29087 0.38839 0.56115 0.0
C1411 C 0.28979 0.38621 0.58242 0.0
C1412 C 0.28377 0.39815 0.59516 0.0
C1413 C 0.27954 0.41261 0.58621 0.0
C1414 C 0.28064 0.41478 0.56482 0.0
H1415 H 0.31474 0.4304 0.51738 0.0
H1416 H 0.29977 0.43443 0.53628 0.0
H1417 H 0.3132 0.41849 0.54037 0.0
H1418 H 0.29506 0.3788 0.55161 0.0
H1419 H 0.2932 0.37494 0.58877 0.0
H1420 H 0.62299 0.29133 0.58655 0.0
H1421 H 0.6177 0.29442 0.54986 0.0
H1422 H 0.57094 0.27602 0.55847 0.0
H1423 H 0.5762 0.27275 0.59546 0.0
H1424 H 0.58768 0.26133 0.52686 0.0
H1425 H 0.59091 0.32588 0.518 0.0
H1426 H 0.60755 0.31807 0.53155 0.0
H1427 H 0.58825 0.3165 0.54274 0.0
C1428 C 0.61147 0.28814 0.58076 0.0
C1429 C 0.6 0.28179 0.59396 0.0
C1430 C 0.60844 0.29003 0.55976 0.0
C1431 C 0.59385 0.28568 0.55145 0.0
C1432 C 0.58223 0.27959 0.56461 0.0
H1433 H 0.57607 0.27481 0.41764 0.0
H1434 H 0.57067 0.27717 0.4547 0.0
C1435 C 0.58524 0.27775 0.58573 0.0
C1436 C 0.59141 0.2863 0.52879 0.0
H1437 H 0.59504 0.31061 0.48716 0.0
C1438 C 0.58894 0.27214 0.51816 0.0
C1439 C 0.59306 0.30042 0.51748 0.0
C1440 C 0.59493 0.3161 0.52805 0.0
C1441 C 0.5891 0.27157 0.4965 0.0
C1442 C 0.59152 0.2856 0.4852 0.0
C1443 C 0.59322 0.29987 0.49584 0.0
C1444 C 0.59397 0.28546 0.46253 0.0
C1445 C 0.58763 0.25584 0.48593 0.0
C1446 C 0.60864 0.28989 0.45455 0.0
C1447 C 0.61171 0.28865 0.43348 0.0
C1448 C 0.60016 0.28299 0.41985 0.0
C1449 C 0.58523 0.27916 0.42773 0.0
C1450 C 0.58216 0.2804 0.44891 0.0
H1451 H 0.58863 0.24589 0.49695 0.0
H1452 H 0.57599 0.25506 0.47828 0.0
H1453 H 0.59682 0.25449 0.47391 0.0
H1454 H 0.61791 0.29387 0.46476 0.0
H1455 H 0.62331 0.29177 0.42796 0.0
H1456 H 0.72727 0.42109 0.91784 0.0
H1457 H 0.72567 0.42428 0.95545 0.0
H1458 H 0.70681 0.37745 0.96093 0.0
H1459 H 0.70846 0.37411 0.92366 0.0
H1460 H 0.69972 0.42029 0.98543 0.0
H1461 H 0.74811 0.37723 0.99538 0.0
H1462 H 0.74391 0.38654 0.97098 0.0
H1463 H 0.73219 0.37026 0.97967 0.0
C1464 C 0.72257 0.41157 0.92705 0.0
C1465 C 0.71817 0.39728 0.91778 0.0
C1466 C 0.72167 0.41342 0.94851 0.0
C1467 C 0.71638 0.401 0.96096 0.0
C1468 C 0.71117 0.38708 0.95162 0.0
H1469 H 0.7085 0.37336 0.08671 0.0
H1470 H 0.70669 0.37723 0.04955 0.0
C1471 C 0.71209 0.38521 0.93028 0.0
C1472 C 0.71715 0.40201 0.98377 0.0
H1473 H 0.73388 0.38423 0.02553 0.0
C1474 C 0.70729 0.41256 0.99426 0.0
C1475 C 0.72714 0.39197 0.99519 0.0
C1476 C 0.73856 0.38096 0.98477 0.0
C1477 C 0.70666 0.41279 0.01596 0.0
C1478 C 0.71624 0.40232 0.02731 0.0
C1479 C 0.72645 0.39216 0.01678 0.0
C1480 C 0.71552 0.40106 0.05011 0.0
C1481 C 0.69537 0.42377 0.0266 0.0
C1482 C 0.72082 0.4133 0.06286 0.0
C1483 C 0.72188 0.41113 0.08425 0.0
C1484 C 0.71773 0.39663 0.09318 0.0
C1485 C 0.71184 0.38465 0.08038 0.0
C1486 C 0.71079 0.38684 0.0591 0.0
H1487 H 0.68692 0.42918 0.01562 0.0
H1488 H 0.68868 0.41743 0.03872 0.0
H1489 H 0.70209 0.43333 0.0342 0.0
H1490 H 0.72474 0.4243 0.0562 0.0
H1491 H 0.72652 0.42056 0.09366 0.0
H1492 H 0.57468 0.72593 0.09409 0.0
H1493 H 0.56909 0.72257 0.05721 0.0
H1494 H 0.61523 0.70272 0.04831 0.0
H1495 H 0.62083 0.70589 0.08491 0.0
H1496 H 0.58595 0.73672 0.02559 0.0
H1497 H 0.5876 0.67215 0.01645 0.0
H1498 H 0.58537 0.68152 0.04127 0.0
H1499 H 0.60454 0.67948 0.02982 0.0
C1500 C 0.5835 0.72057 0.08433 0.0
C1501 C 0.5982 0.71617 0.09244 0.0
C1502 C 0.5803 0.71869 0.06326 0.0
C1503 C 0.59165 0.71219 0.05004 0.0
C1504 C 0.60615 0.70743 0.05826 0.0
H1505 H 0.62092 0.70615 0.92658 0.0
H1506 H 0.6154 0.7038 0.96332 0.0
C1507 C 0.60938 0.70936 0.07921 0.0
C1508 C 0.58912 0.71166 0.0274 0.0
H1509 H 0.59214 0.6874 0.98564 0.0
C1510 C 0.58694 0.7259 0.01684 0.0
C1511 C 0.59043 0.69754 0.01602 0.0
C1512 C 0.59195 0.68179 0.0265 0.0
C1513 C 0.58707 0.72653 0.99519 0.0
C1514 C 0.58917 0.71249 0.98381 0.0
C1515 C 0.59057 0.69815 0.99438 0.0
C1516 C 0.59162 0.71266 0.96114 0.0
C1517 C 0.58594 0.74233 0.9847 0.0
C1518 C 0.57993 0.71804 0.94757 0.0
C1519 C 0.58307 0.71942 0.92642 0.0
C1520 C 0.59795 0.71543 0.91855 0.0
C1521 C 0.60936 0.70941 0.93211 0.0
C1522 C 0.60622 0.70802 0.95315 0.0
H1523 H 0.58715 0.75222 0.99577 0.0
H1524 H 0.59517 0.74352 0.97269 0.0
H1525 H 0.57433 0.74338 0.97704 0.0
H1526 H 0.56849 0.72143 0.95337 0.0
H1527 H 0.57401 0.72405 0.91637 0.0
H1528 H 0.27336 0.57823 0.09295 0.0
H1529 H 0.27519 0.57423 0.05553 0.0
H1530 H 0.29292 0.62138 0.04835 0.0
H1531 H 0.291 0.62552 0.08544 0.0
H1532 H 0.26645 0.61441 0.02397 0.0
H1533 H 0.31292 0.5688 0.01559 0.0
H1534 H 0.29739 0.5647 0.03362 0.0
H1535 H 0.31081 0.5805 0.03868 0.0
C1536 C 0.27792 0.58763 0.08342 0.0
C1537 C 0.28196 0.60222 0.09217 0.0
C1538 C 0.27901 0.58531 0.06205 0.0
C1539 C 0.28428 0.59749 0.04917 0.0
C1540 C 0.28885 0.61182 0.058 0.0
H1541 H 0.29429 0.62335 0.92292 0.0
H1542 H 0.29561 0.61978 0.96019 0.0
C1543 C 0.28773 0.61416 0.07924 0.0
C1544 C 0.28375 0.59603 0.02637 0.0
H1545 H 0.30044 0.57748 0.98504 0.0
C1546 C 0.27384 0.60628 0.01549 0.0
C1547 C 0.29329 0.58531 0.01533 0.0
C1548 C 0.30431 0.57424 0.02631 0.0
C1549 C 0.27344 0.60635 0.99389 0.0
C1550 C 0.28336 0.59605 0.98281 0.0
C1551 C 0.2929 0.5854 0.99362 0.0
C1552 C 0.28445 0.59695 0.96003 0.0
C1553 C 0.26245 0.61757 0.98305 0.0
C1554 C 0.2783 0.58498 0.9475 0.0
C1555 C 0.27755 0.58697 0.92605 0.0
C1556 C 0.28296 0.60095 0.91688 0.0
C1557 C 0.2899 0.61249 0.92946 0.0
C1558 C 0.29066 0.61049 0.95079 0.0
H1559 H 0.25303 0.62188 0.99347 0.0
H1560 H 0.26924 0.6279 0.97755 0.0
H1561 H 0.25692 0.61189 0.96945 0.0
H1562 H 0.27349 0.57443 0.95438 0.0
H1563 H 0.27215 0.57786 0.91679 0.0
H1564 H 0.42164 0.27002 0.91874 0.0
H1565 H 0.42544 0.27124 0.95629 0.0
H1566 H 0.37945 0.29182 0.96315 0.0
H1567 H 0.3755 0.29057 0.92596 0.0
H1568 H 0.42272 0.2973 0.98666 0.0
H1569 H 0.37833 0.2502 0.99711 0.0
H1570 H 0.38751 0.2542 0.97257 0.0
H1571 H 0.37167 0.26637 0.9816 0.0
C1572 C 0.41245 0.27502 0.92824 0.0
C1573 C 0.3982 0.28003 0.91939 0.0
C1574 C 0.41464 0.2757 0.94966 0.0
C1575 C 0.40261 0.28138 0.96247 0.0
C1576 C 0.38877 0.28717 0.95355 0.0
H1577 H 0.37615 0.29121 0.08799 0.0
H1578 H 0.38006 0.29237 0.05079 0.0
C1579 C 0.38655 0.28647 0.93226 0.0
C1580 C 0.40391 0.28043 0.98523 0.0
H1581 H 0.38595 0.26424 0.0272 0.0
C1582 C 0.41485 0.28994 0.99558 0.0
C1583 C 0.39368 0.27072 0.99677 0.0
C1584 C 0.38223 0.25967 0.98648 0.0
C1585 C 0.41527 0.29055 0.01727 0.0
C1586 C 0.40458 0.28131 0.02875 0.0
C1587 C 0.39406 0.2714 0.01835 0.0
C1588 C 0.40337 0.28226 0.05151 0.0
C1589 C 0.42667 0.3015 0.0278 0.0
C1590 C 0.41532 0.2764 0.06433 0.0
C1591 C 0.41312 0.2757 0.08574 0.0
C1592 C 0.39889 0.28078 0.0946 0.0
C1593 C 0.38723 0.28716 0.08171 0.0
C1594 C 0.38943 0.28784 0.06042 0.0
H1595 H 0.43255 0.30953 0.01672 0.0
H1596 H 0.4205 0.30863 0.03963 0.0
H1597 H 0.43583 0.29448 0.03577 0.0
H1598 H 0.42608 0.27184 0.05773 0.0
H1599 H 0.4223 0.27068 0.09524 0.0
H1600 H 0.23489 0.04365 0.18649 0.0
H1601 H 0.23624 0.01884 0.20574 0.0
H1602 H 0.25907 0.0427 0.25616 0.0
H1603 H 0.2578 0.06744 0.23715 0.0
H1604 H 0.27294 0.01301 0.2445 0.0
H1605 H 0.20842 0.00968 0.2576 0.0
H1606 H 0.21452 0.01235 0.23128 0.0
H1607 H 0.21816 0.02758 0.24982 0.0
C1608 C 0.24031 0.04357 0.2016 0.0
C1609 C 0.24616 0.05752 0.21034 0.0
C1610 C 0.24099 0.02943 0.21261 0.0
C1611 C 0.24757 0.02902 0.23246 0.0
C1612 C 0.25388 0.0428 0.24091 0.0
H1613 H 0.2363 0.95612 0.32573 0.0
H1614 H 0.23775 0.98131 0.30741 0.0
C1615 C 0.25312 0.05693 0.23001 0.0
C1616 C 0.24768 0.01433 0.24469 0.0
H1617 H 0.22363 0.9881 0.26902 0.0
C1618 C 0.26218 0.00754 0.24987 0.0
C1619 C 0.23361 0.00742 0.25195 0.0
C1620 C 0.21777 0.01465 0.24757 0.0
C1621 C 0.26298 0.99381 0.26183 0.0
C1622 C 0.24889 0.98664 0.26861 0.0
C1623 C 0.23441 0.9936 0.26374 0.0
C1624 C 0.24889 0.97165 0.28024 0.0
C1625 C 0.27889 0.98718 0.26729 0.0
C1626 C 0.25468 0.95793 0.27103 0.0
C1627 C 0.25388 0.94358 0.28141 0.0
C1628 C 0.24718 0.94265 0.3012 0.0
C1629 C 0.24158 0.95646 0.31055 0.0
C1630 C 0.24236 0.97084 0.30009 0.0
H1631 H 0.28832 0.99614 0.26577 0.0
H1632 H 0.27899 0.98254 0.28329 0.0
H1633 H 0.28169 0.97734 0.25667 0.0
H1634 H 0.2595 0.95824 0.25557 0.0
H1635 H 0.25824 0.93316 0.27371 0.0
H1636 H 0.93645 0.26531 0.2236 0.0
H1637 H 0.96101 0.26705 0.24295 0.0
H1638 H 0.97959 0.22787 0.20842 0.0
H1639 H 0.95528 0.22666 0.18825 0.0
H1640 H 0.97321 0.2472 0.26821 0.0
H1641 H 0.01623 0.25647 0.20546 0.0
H1642 H 0.99533 0.25769 0.2012 0.0
H1643 H 0.00505 0.23886 0.20164 0.0
C1644 C 0.9459 0.25725 0.21988 0.0
C1645 C 0.94402 0.24592 0.20433 0.0
C1646 C 0.95991 0.25821 0.23101 0.0
C1647 C 0.97228 0.24771 0.22705 0.0
C1648 C 0.97044 0.23641 0.21141 0.0
H1649 H 0.04617 0.22765 0.31691 0.0
H1650 H 0.02168 0.22803 0.29707 0.0
C1651 C 0.95652 0.23567 0.19994 0.0
C1652 C 0.98668 0.24814 0.24009 0.0
H1653 H 0.02675 0.2494 0.23826 0.0
C1654 C 0.98491 0.24782 0.26164 0.0
C1655 C 0.00197 0.24914 0.2316 0.0
C1656 C 0.00477 0.25073 0.20872 0.0
C1657 C 0.99795 0.24841 0.27489 0.0
C1658 C 0.01327 0.24867 0.26639 0.0
C1659 C 0.01503 0.24906 0.24484 0.0
C1660 C 0.02768 0.24881 0.2794 0.0
C1661 C 0.99508 0.24918 0.29783 0.0
C1662 C 0.03938 0.26015 0.2759 0.0
C1663 C 0.05352 0.25967 0.28682 0.0
C1664 C 0.05617 0.24799 0.30171 0.0
C1665 C 0.04432 0.23693 0.30574 0.0
C1666 C 0.03028 0.23719 0.29446 0.0
H1667 H 0.98327 0.25408 0.30135 0.0
H1668 H 0.99556 0.23713 0.30434 0.0
H1669 H 0.00406 0.2565 0.3057 0.0
H1670 H 0.03769 0.26924 0.26442 0.0
H1671 H 0.06246 0.26835 0.2834 0.0
H1672 H 0.77363 0.04699 0.31831 0.0
H1673 H 0.77319 0.0225 0.29843 0.0
H1674 H 0.73262 0.03905 0.26489 0.0
H1675 H 0.73355 0.06381 0.28392 0.0
H1676 H 0.75361 0.99947 0.29339 0.0
H1677 H 0.76056 0.0287 0.21784 0.0
H1678 H 0.76242 0.03921 0.24184 0.0
H1679 H 0.74329 0.03547 0.23091 0.0
C1680 C 0.76456 0.04532 0.30679 0.0
C1681 C 0.75373 0.05734 0.30249 0.0
C1682 C 0.76434 0.03136 0.29539 0.0
C1683 C 0.75316 0.0291 0.27968 0.0
C1684 C 0.74174 0.04073 0.27632 0.0
H1685 H 0.73264 0.9375 0.22673 0.0
H1686 H 0.73219 0.96223 0.24584 0.0
C1687 C 0.74217 0.05481 0.28738 0.0
C1688 C 0.75347 0.01463 0.26681 0.0
H1689 H 0.75323 0.00163 0.21697 0.0
C1690 C 0.75363 -5e-05 0.27668 0.0
C1691 C 0.75387 0.01521 0.24497 0.0
C1692 C 0.75521 0.0305 0.23329 0.0
C1693 C 0.75385 0.98588 0.26538 0.0
C1694 C 0.75324 0.98646 0.24355 0.0
C1695 C 0.75341 0.00114 0.23368 0.0
C1696 C 0.75266 0.972 0.23068 0.0
C1697 C 0.75518 0.97058 0.27704 0.0
C1698 C 0.76363 0.96965 0.21477 0.0
C1699 C 0.76358 0.9557 0.20333 0.0
C1700 C 0.75267 0.94379 0.20779 0.0
C1701 C 0.74132 0.94641 0.22314 0.0
C1702 C 0.74116 0.96047 0.23424 0.0
H1703 H 0.76071 0.97233 0.29239 0.0
H1704 H 0.74325 0.96571 0.27964 0.0
H1705 H 0.76222 0.96181 0.26836 0.0
H1706 H 0.77253 0.97842 0.21157 0.0
H1707 H 0.77249 0.95397 0.19162 0.0
H1708 H 0.04215 0.76433 0.18802 0.0
H1709 H 0.01731 0.7634 0.20721 0.0
H1710 H 0.04047 0.73909 0.257 0.0
H1711 H 0.06522 0.73986 0.23801 0.0
H1712 H 0.01067 0.72638 0.24591 0.0
H1713 H 0.00876 0.79094 0.25894 0.0
H1714 H 0.01085 0.78488 0.23253 0.0
H1715 H 0.02633 0.78087 0.2506 0.0
C1716 C 0.04191 0.75866 0.20297 0.0
C1717 C 0.05567 0.75226 0.21155 0.0
C1718 C 0.02775 0.75823 0.21396 0.0
C1719 C 0.02714 0.75138 0.23364 0.0
C1720 C 0.04072 0.7445 0.24188 0.0
H1721 H 0.95539 0.76415 0.328 0.0
H1722 H 0.98031 0.76227 0.30912 0.0
C1723 C 0.05486 0.74497 0.23099 0.0
C1724 C 0.01248 0.75161 0.24595 0.0
H1725 H 0.98687 0.77621 0.27048 0.0
C1726 C 0.00544 0.73726 0.25128 0.0
C1727 C 0.00587 0.76582 0.25321 0.0
C1728 C 0.01337 0.78153 0.24872 0.0
C1729 C 0.99179 0.73675 0.26343 0.0
C1730 C 0.98495 0.75098 0.27024 0.0
C1731 C 0.99213 0.76532 0.26517 0.0
C1732 C 0.9701 0.7513 0.28216 0.0
C1733 C 0.98492 0.72099 0.2691 0.0
C1734 C 0.95615 0.74575 0.27326 0.0
C1735 C 0.94196 0.7468 0.28396 0.0
C1736 C 0.94141 0.75349 0.30378 0.0
C1737 C 0.95544 0.75886 0.31281 0.0
C1738 C 0.96966 0.75784 0.30203 0.0
H1739 H 0.99368 0.71138 0.26742 0.0
H1740 H 0.98049 0.72102 0.2852 0.0
H1741 H 0.9749 0.71836 0.2587 0.0
H1742 H 0.95618 0.74092 0.2578 0.0
H1743 H 0.93137 0.74261 0.2765 0.0
H1744 H 0.74068 0.93048 0.77411 0.0
H1745 H 0.74013 0.95516 0.75495 0.0
H1746 H 0.76516 0.97814 0.80428 0.0
H1747 H 0.76591 0.95336 0.82359 0.0
H1748 H 0.72763 0.98455 0.7657 0.0
H1749 H 0.79214 0.98734 0.75276 0.0
H1750 H 0.78234 0.96971 0.76142 0.0
H1751 H 0.78627 0.98537 0.77925 0.0
C1752 C 0.74603 0.94078 0.78098 0.0
C1753 C 0.75343 0.93993 0.80035 0.0
C1754 C 0.74569 0.95488 0.76998 0.0
C1755 C 0.75281 0.9684 0.77804 0.0
C1756 C 0.75984 0.96775 0.79762 0.0
H1757 H 0.74262 0.06433 0.73683 0.0
H1758 H 0.74158 0.0393 0.7551 0.0
C1759 C 0.76016 0.95362 0.80869 0.0
C1760 C 0.75289 0.9831 0.7658 0.0
H1761 H 0.77719 0.00931 0.7418 0.0
C1762 C 0.73845 0.98997 0.76047 0.0
C1763 C 0.76703 0.98998 0.75869 0.0
C1764 C 0.78284 0.98268 0.76313 0.0
C1765 C 0.73778 0.00372 0.74852 0.0
C1766 C 0.75193 0.01085 0.74194 0.0
C1767 C 0.76636 0.00383 0.74695 0.0
C1768 C 0.75203 0.02585 0.73035 0.0
C1769 C 0.72193 0.0104 0.74285 0.0
C1770 C 0.75842 0.02663 0.71042 0.0
C1771 C 0.75905 0.04098 0.69987 0.0
C1772 C 0.75345 0.0548 0.70921 0.0
C1773 C 0.74698 0.05391 0.72914 0.0
C1774 C 0.7463 0.03959 0.7396 0.0
H1775 H 0.71245 0.00149 0.74436 0.0
H1776 H 0.71914 0.02031 0.75334 0.0
H1777 H 0.72195 0.01495 0.7268 0.0
H1778 H 0.76298 0.01615 0.70307 0.0
H1779 H 0.76418 0.04129 0.68459 0.0
H1780 H 0.93709 0.73191 0.72675 0.0
H1781 H 0.96162 0.7318 0.74631 0.0
H1782 H 0.97693 0.77333 0.71383 0.0
H1783 H 0.95267 0.77301 0.69345 0.0
H1784 H 0.0006 0.75439 0.71868 0.0
H1785 H 0.97076 0.75956 0.79405 0.0
H1786 H 0.96458 0.74226 0.78058 0.0
H1787 H 0.96033 0.76138 0.76998 0.0
C1788 C 0.94575 0.74094 0.72366 0.0
C1789 C 0.94294 0.75253 0.70868 0.0
C1790 C 0.9597 0.74097 0.73502 0.0
C1791 C 0.97092 0.75286 0.73207 0.0
C1792 C 0.96838 0.76412 0.71655 0.0
H1793 H 0.04534 0.77288 0.82116 0.0
H1794 H 0.02094 0.77273 0.80105 0.0
C1795 C 0.95454 0.76391 0.70487 0.0
C1796 C 0.9853 0.7535 0.7451 0.0
H1797 H 0.99806 0.75294 0.79505 0.0
C1798 C 3e-05 0.75419 0.73538 0.0
C1799 C 0.9846 0.7536 0.76694 0.0
C1800 C 0.96921 0.75434 0.77848 0.0
C1801 C 0.01403 0.75461 0.74682 0.0
C1802 C 0.01335 0.75368 0.76863 0.0
C1803 C 0.99862 0.75337 0.77836 0.0
C1804 C 0.02777 0.75319 0.7816 0.0
C1805 C 0.02936 0.75645 0.73535 0.0
C1806 C 0.03949 0.74193 0.77789 0.0
C1807 C 0.05351 0.74218 0.7891 0.0
C1808 C 0.0559 0.75341 0.80468 0.0
C1809 C 0.04379 0.76407 0.80927 0.0
C1810 C 0.02988 0.76402 0.79774 0.0
H1811 H 0.02757 0.76215 0.72012 0.0
H1812 H 0.03792 0.76356 0.74429 0.0
H1813 H 0.03452 0.74467 0.73252 0.0
H1814 H 0.03792 0.73307 0.76609 0.0
H1815 H 0.06257 0.73369 0.7854 0.0
H1816 H 0.22621 0.95319 0.69158 0.0
H1817 H 0.22688 0.97769 0.71135 0.0
H1818 H 0.26691 0.96057 0.74556 0.0
H1819 H 0.2657 0.9358 0.72662 0.0
H1820 H 0.24695 0.97235 0.77094 0.0
H1821 H 0.25424 0.01519 0.70754 0.0
H1822 H 0.23696 0.00344 0.70409 0.0
H1823 H 0.25608 0.99431 0.70351 0.0
C1824 C 0.23529 0.95479 0.7031 0.0
C1825 C 0.24593 0.94263 0.70754 0.0
C1826 C 0.23572 0.96883 0.71434 0.0
C1827 C 0.24711 0.97114 0.72979 0.0
C1828 C 0.258 0.95911 0.73377 0.0
H1829 H 0.26494 0.06239 0.78487 0.0
H1830 H 0.26657 0.03758 0.76608 0.0
C1831 C 0.25735 0.94498 0.72288 0.0
C1832 C 0.24718 0.98563 0.74264 0.0
H1833 H 0.24699 0.0257 0.7403 0.0
C1834 C 0.2471 0.98402 0.76421 0.0
C1835 C 0.24757 0.00089 0.73395 0.0
C1836 C 0.24889 0.00357 0.71101 0.0
C1837 C 0.24732 0.99716 0.77729 0.0
C1838 C 0.24695 0.01242 0.7686 0.0
C1839 C 0.24712 0.01403 0.74703 0.0
C1840 C 0.24664 0.02691 0.78144 0.0
C1841 C 0.24837 0.99449 0.80026 0.0
C1842 C 0.23505 0.02917 0.79662 0.0
C1843 C 0.23437 0.04324 0.80779 0.0
C1844 C 0.24498 0.05546 0.80353 0.0
C1845 C 0.25662 0.05316 0.78848 0.0
C1846 C 0.25751 0.039 0.77766 0.0
H1847 H 0.25374 0.9829 0.80385 0.0
H1848 H 0.25542 0.00379 0.80792 0.0
H1849 H 0.23636 0.99456 0.80692 0.0
H1850 H 0.22623 0.02026 0.79944 0.0
H1851 H 0.22513 0.0448 0.81908 0.0
H1852 H 0.93286 0.25849 0.77042 0.0
H1853 H 0.95754 0.25926 0.7513 0.0
H1854 H 0.98109 0.23594 0.8016 0.0
H1855 H 0.9563 0.23497 0.82088 0.0
H1856 H 0.98671 0.27265 0.76155 0.0
H1857 H 0.99076 0.20795 0.75113 0.0
H1858 H 0.97294 0.21759 0.7594 0.0
H1859 H 0.9887 0.2144 0.77737 0.0
C1860 C 0.94329 0.25358 0.77751 0.0
C1861 C 0.94259 0.24658 0.79714 0.0
C1862 C 0.95739 0.25404 0.76654 0.0
C1863 C 0.97107 0.24744 0.77489 0.0
C1864 C 0.97058 0.24085 0.79474 0.0
H1865 H 0.0667 0.25844 0.73259 0.0
H1866 H 0.0417 0.25963 0.75094 0.0
C1867 C 0.95644 0.2404 0.80578 0.0
C1868 C 0.98577 0.24738 0.76263 0.0
H1869 H 0.01235 0.22308 0.7394 0.0
C1870 C 0.99233 0.26183 0.7567 0.0
C1871 C 0.9929 0.23323 0.75603 0.0
C1872 C 0.98593 0.21739 0.76112 0.0
C1873 C 0.00601 0.2625 0.74463 0.0
C1874 C 0.01339 0.24835 0.73854 0.0
C1875 C 0.00668 0.2339 0.74417 0.0
C1876 C 0.02834 0.24826 0.72681 0.0
C1877 C 0.01236 0.27834 0.73829 0.0
C1878 C 0.02915 0.24133 0.70719 0.0
C1879 C 0.04348 0.2406 0.6966 0.0
C1880 C 0.05724 0.24665 0.7056 0.0
C1881 C 0.05631 0.25371 0.72517 0.0
C1882 C 0.04202 0.25448 0.73567 0.0
H1883 H 0.00326 0.28766 0.73948 0.0
H1884 H 0.02224 0.28157 0.74862 0.0
H1885 H 0.01685 0.27803 0.72223 0.0
H1886 H 0.01871 0.23639 0.70014 0.0
H1887 H 0.04382 0.23503 0.6816 0.0
H1888 H 0.72545 0.54665 0.68946 0.0
H1889 H 0.72534 0.52229 0.70961 0.0
H1890 H 0.76622 0.53819 0.74305 0.0
H1891 H 0.76584 0.56283 0.72375 0.0
H1892 H 0.74438 0.49888 0.71492 0.0
H1893 H 0.73809 0.52865 0.79018 0.0
H1894 H 0.73645 0.53907 0.76609 0.0
H1895 H 0.75549 0.53502 0.77708 0.0
C1896 C 0.73446 0.54487 0.70102 0.0
C1897 C 0.74555 0.55668 0.70521 0.0
C1898 C 0.73437 0.53097 0.71258 0.0
C1899 C 0.74548 0.52858 0.72833 0.0
C1900 C 0.75715 0.53999 0.73159 0.0
H1901 H 0.76518 0.43718 0.78194 0.0
H1902 H 0.76555 0.46174 0.76246 0.0
C1903 C 0.75703 0.554 0.72037 0.0
C1904 C 0.74487 0.51419 0.74134 0.0
H1905 H 0.74509 0.50146 0.7913 0.0
C1906 C 0.74442 0.49946 0.73162 0.0
C1907 C 0.74454 0.5149 0.76318 0.0
C1908 C 0.74348 0.53027 0.77473 0.0
C1909 C 0.74401 0.48546 0.74306 0.0
C1910 C 0.74475 0.48615 0.76487 0.0
C1911 C 0.74482 0.50088 0.7746 0.0
C1912 C 0.74531 0.47175 0.77787 0.0
C1913 C 0.7424 0.47012 0.73155 0.0
C1914 C 0.73449 0.46959 0.79401 0.0
C1915 C 0.7346 0.45573 0.80566 0.0
C1916 C 0.7454 0.44374 0.80117 0.0
C1917 C 0.75658 0.44616 0.78555 0.0
C1918 C 0.75669 0.46012 0.77424 0.0
H1919 H 0.73673 0.47186 0.71628 0.0
H1920 H 0.75425 0.46511 0.72878 0.0
H1921 H 0.73535 0.46147 0.74042 0.0
H1922 H 0.72569 0.47845 0.79727 0.0
H1923 H 0.72583 0.45415 0.81758 0.0
H1924 H 0.54533 0.72535 0.82065 0.0
H1925 H 0.52093 0.72524 0.80053 0.0
H1926 H 0.53782 0.76463 0.76495 0.0
H1927 H 0.56246 0.76424 0.78426 0.0
H1928 H 0.49802 0.74483 0.79434 0.0
H1929 H 0.52736 0.73532 0.71937 0.0
H1930 H 0.5378 0.7341 0.7435 0.0
H1931 H 0.5343 0.7529 0.73152 0.0
C1932 C 0.54376 0.73403 0.80861 0.0
C1933 C 0.55584 0.74469 0.80386 0.0
C1934 C 0.52985 0.73394 0.79708 0.0
C1935 C 0.52771 0.74462 0.78077 0.0
C1936 C 0.53941 0.75587 0.77688 0.0
H1937 H 0.43694 0.76579 0.72627 0.0
H1938 H 0.46149 0.7658 0.7458 0.0
C1939 C 0.55343 0.75576 0.78809 0.0
C1940 C 0.51326 0.74403 0.76785 0.0
H1941 H 0.50038 0.74313 0.71797 0.0
C1942 C 0.49855 0.74434 0.77764 0.0
C1943 C 0.51389 0.743 0.74605 0.0
C1944 C 0.52919 0.74113 0.73453 0.0
C1945 C 0.4845 0.74405 0.76628 0.0
C1946 C 0.48515 0.74409 0.74444 0.0
C1947 C 0.49985 0.74338 0.73467 0.0
C1948 C 0.47073 0.74475 0.73147 0.0
C1949 C 0.46914 0.74331 0.77791 0.0
C1950 C 0.46816 0.73353 0.71591 0.0
C1951 C 0.45431 0.73381 0.70424 0.0
C1952 C 0.44274 0.7452 0.7081 0.0
C1953 C 0.44558 0.75674 0.72315 0.0
C1954 C 0.45953 0.75666 0.73448 0.0
H1955 H 0.47074 0.73807 0.79346 0.0
H1956 H 0.46454 0.7554 0.78005 0.0
H1957 H 0.46023 0.73629 0.76944 0.0
H1958 H 0.47668 0.72432 0.71313 0.0
H1959 H 0.45241 0.72475 0.69277 0.0
H1960 H 0.23366 0.43779 0.72704 0.0
H1961 H 0.23232 0.46278 0.74547 0.0
H1962 H 0.27227 0.4797 0.71099 0.0
H1963 H 0.27311 0.45495 0.69174 0.0
H1964 H 0.2525 0.47476 0.77063 0.0
H1965 H 0.2446 0.51706 0.70668 0.0
H1966 H 0.24282 0.49613 0.70298 0.0
H1967 H 0.2619 0.50532 0.70334 0.0
C1968 C 0.24196 0.44697 0.72312 0.0
C1969 C 0.25343 0.44449 0.70788 0.0
C1970 C 0.24123 0.46122 0.73372 0.0
C1971 C 0.25209 0.47324 0.72953 0.0
C1972 C 0.26348 0.47082 0.71414 0.0
H1973 H 0.27333 0.54786 0.81784 0.0
H1974 H 0.27278 0.5233 0.7982 0.0
C1975 C 0.264 0.45664 0.7032 0.0
C1976 C 0.25198 0.48783 0.74217 0.0
H1977 H 0.25166 0.52788 0.73931 0.0
C1978 C 0.25218 0.48638 0.76375 0.0
C1979 C 0.25139 0.50301 0.73328 0.0
C1980 C 0.25 0.50549 0.71031 0.0
C1981 C 0.25187 0.49961 0.77667 0.0
C1982 C 0.25199 0.5148 0.76777 0.0
C1983 C 0.25171 0.51626 0.74618 0.0
C1984 C 0.25207 0.52937 0.78044 0.0
C1985 C 0.25098 0.4971 0.79968 0.0
C1986 C 0.24085 0.54115 0.77676 0.0
C1987 C 0.2414 0.55532 0.78758 0.0
C1988 C 0.25306 0.55795 0.80253 0.0
C1989 C 0.26407 0.54605 0.80662 0.0
C1990 C 0.26371 0.53197 0.79546 0.0
H1991 H 0.24589 0.48543 0.80348 0.0
H1992 H 0.26301 0.49751 0.80625 0.0
H1993 H 0.24376 0.50631 0.80724 0.0
H1994 H 0.23175 0.53946 0.76528 0.0
H1995 H 0.23276 0.56429 0.78411 0.0
H1996 H 0.45521 0.2626 0.8249 0.0
H1997 H 0.48002 0.26149 0.80569 0.0
H1998 H 0.45626 0.23905 0.75489 0.0
H1999 H 0.43153 0.23998 0.77392 0.0
H2000 H 0.48557 0.22527 0.76523 0.0
H2001 H 0.48955 0.29005 0.75541 0.0
H2002 H 0.48733 0.28339 0.78155 0.0
H2003 H 0.47169 0.28033 0.76337 0.0
C2004 C 0.4553 0.25731 0.80972 0.0
C2005 C 0.44139 0.25147 0.80089 0.0
C2006 C 0.46946 0.25678 0.79872 0.0
C2007 C 0.46989 0.25041 0.77875 0.0
C2008 C 0.45614 0.24408 0.77023 0.0
H2009 H 0.54271 0.26343 0.68573 0.0
H2010 H 0.51754 0.26177 0.70408 0.0
C2011 C 0.44202 0.24465 0.78115 0.0
C2012 C 0.48458 0.25053 0.76649 0.0
H2013 H 0.5111 0.27501 0.74346 0.0
C2014 C 0.49117 0.23613 0.76046 0.0
C2015 C 0.49167 0.26473 0.76 0.0
C2016 C 0.48467 0.28053 0.76523 0.0
C2017 C 0.50487 0.23555 0.74842 0.0
C2018 C 0.51221 0.24974 0.74243 0.0
C2019 C 0.50546 0.26415 0.74814 0.0
C2020 C 0.52718 0.24993 0.73077 0.0
C2021 C 0.51129 0.21976 0.74201 0.0
C2022 C 0.54088 0.24381 0.7397 0.0
C2023 C 0.55521 0.24476 0.72931 0.0
C2024 C 0.55615 0.25189 0.70978 0.0
C2025 C 0.54236 0.2578 0.70069 0.0
C2026 C 0.528 0.2569 0.71117 0.0
H2027 H 0.50224 0.21038 0.74317 0.0
H2028 H 0.51577 0.22013 0.72594 0.0
H2029 H 0.5212 0.21655 0.7523 0.0
H2030 H 0.54055 0.23863 0.75494 0.0
H2031 H 0.56561 0.24013 0.73678 0.0
H2032 H 0.2656 0.5435 0.18563 0.0
H2033 H 0.26443 0.51846 0.20434 0.0
H2034 H 0.24122 0.5415 0.2551 0.0
H2035 H 0.24222 0.56643 0.23658 0.0
H2036 H 0.27793 0.51239 0.24364 0.0
H2037 H 0.21339 0.50281 0.24402 0.0
H2038 H 0.22289 0.51637 0.2266 0.0
H2039 H 0.21938 0.52188 0.25295 0.0
C2040 C 0.26007 0.54318 0.20066 0.0
C2041 C 0.25397 0.55694 0.2096 0.0
C2042 C 0.25945 0.52889 0.21134 0.0
C2043 C 0.25259 0.52811 0.231 0.0
C2044 C 0.24632 0.54178 0.23981 0.0
H2045 H 0.26647 0.45657 0.32559 0.0
H2046 H 0.26519 0.48131 0.3062 0.0
C2047 C 0.24698 0.55604 0.22921 0.0
C2048 C 0.25264 0.51322 0.24284 0.0
H2049 H 0.22859 0.48643 0.2661 0.0
C2050 C 0.26715 0.50666 0.24848 0.0
C2051 C 0.23856 0.50576 0.24903 0.0
C2052 C 0.22266 0.51196 0.24271 0.0
C2053 C 0.26796 0.49293 0.26044 0.0
C2054 C 0.25387 0.48571 0.26712 0.0
C2055 C 0.23936 0.49213 0.26119 0.0
C2056 C 0.25396 0.47106 0.27945 0.0
C2057 C 0.28386 0.48611 0.26556 0.0
C2058 C 0.24763 0.45726 0.27109 0.0
C2059 C 0.24829 0.44318 0.2821 0.0
C2060 C 0.25521 0.44264 0.30179 0.0
C2061 C 0.2611 0.4566 0.31045 0.0
C2062 C 0.26048 0.4707 0.29935 0.0
H2063 H 0.29327 0.49105 0.25561 0.0
H2064 H 0.28679 0.48886 0.28183 0.0
H2065 H 0.28379 0.47313 0.26381 0.0
H2066 H 0.24248 0.4573 0.25581 0.0
H2067 H 0.24358 0.43266 0.275 0.0
H2068 H 0.56897 0.24258 0.27399 0.0
H2069 H 0.54448 0.24133 0.25448 0.0
H2070 H 0.51969 0.26259 0.30531 0.0
H2071 H 0.54429 0.26405 0.32498 0.0
H2072 H 0.51577 0.22666 0.26357 0.0
H2073 H 0.50934 0.29139 0.25596 0.0
H2074 H 0.52743 0.28222 0.26416 0.0
H2075 H 0.51139 0.28439 0.28196 0.0
C2076 C 0.55832 0.24693 0.28112 0.0
C2077 C 0.5586 0.25351 0.30101 0.0
C2078 C 0.54432 0.24619 0.26992 0.0
C2079 C 0.53033 0.25208 0.27831 0.0
C2080 C 0.53044 0.25823 0.29841 0.0
H2081 H 0.43537 0.23861 0.23479 0.0
H2082 H 0.46043 0.23765 0.25302 0.0
C2083 C 0.54447 0.25896 0.30968 0.0
C2084 C 0.51573 0.25191 0.26583 0.0
H2085 H 0.48833 0.27578 0.24346 0.0
C2086 C 0.50977 0.23739 0.25916 0.0
C2087 C 0.5081 0.26594 0.25978 0.0
C2088 C 0.51443 0.2819 0.26565 0.0
C2089 C 0.49617 0.23652 0.24692 0.0
C2090 C 0.48826 0.25053 0.24142 0.0
C2091 C 0.49439 0.26506 0.24777 0.0
C2092 C 0.47334 0.25036 0.22963 0.0
C2093 C 0.49049 0.22063 0.23979 0.0
C2094 C 0.47223 0.25795 0.21046 0.0
C2095 C 0.45786 0.25855 0.19994 0.0
C2096 C 0.44433 0.25171 0.20857 0.0
C2097 C 0.44557 0.24395 0.22766 0.0
C2098 C 0.45991 0.24331 0.23808 0.0
H2099 H 0.49997 0.21167 0.2405 0.0
H2100 H 0.48077 0.21667 0.24995 0.0
H2101 H 0.48595 0.22121 0.22375 0.0
H2102 H 0.48246 0.26354 0.20373 0.0
H2103 H 0.45728 0.26469 0.18534 0.0
H2104 H 0.76509 0.56374 0.28131 0.0
H2105 H 0.76582 0.53911 0.262 0.0
H2106 H 0.72631 0.5219 0.29709 0.0
H2107 H 0.7261 0.54627 0.31723 0.0
H2108 H 0.74606 0.4992 0.29125 0.0
H2109 H 0.73707 0.5283 0.21601 0.0
H2110 H 0.75451 0.53537 0.2284 0.0
H2111 H 0.73558 0.53879 0.24006 0.0
C2112 C 0.75665 0.55464 0.28502 0.0
C2113 C 0.74547 0.55693 0.30067 0.0
C2114 C 0.75696 0.54063 0.27381 0.0
C2115 C 0.74578 0.52883 0.27756 0.0
C2116 C 0.73496 0.53088 0.29374 0.0
H2117 H 0.72655 0.45315 0.19009 0.0
H2118 H 0.72625 0.47767 0.20992 0.0
C2119 C 0.73487 0.54478 0.30528 0.0
C2120 C 0.74541 0.51437 0.26469 0.0
H2121 H 0.74503 0.50137 0.21485 0.0
C2122 C 0.74572 0.49969 0.27455 0.0
C2123 C 0.74459 0.51494 0.24287 0.0
C2124 C 0.74274 0.5302 0.23124 0.0
C2125 C 0.74558 0.48562 0.26326 0.0
C2126 C 0.74582 0.48621 0.24141 0.0
C2127 C 0.74515 0.50088 0.23156 0.0
C2128 C 0.74656 0.47177 0.22854 0.0
C2129 C 0.74477 0.47029 0.27495 0.0
C2130 C 0.75839 0.46053 0.23183 0.0
C2131 C 0.75838 0.44643 0.22081 0.0
C2132 C 0.74685 0.4435 0.2058 0.0
C2133 C 0.7356 0.45514 0.20154 0.0
C2134 C 0.7354 0.46912 0.21292 0.0
H2135 H 0.73942 0.47192 0.29043 0.0
H2136 H 0.7378 0.46136 0.26644 0.0
H2137 H 0.75684 0.4657 0.27726 0.0
H2138 H 0.76749 0.46253 0.24319 0.0
H2139 H 0.76731 0.43773 0.22423 0.0
H2140 H 0.45489 0.72672 0.32002 0.0
H2141 H 0.47919 0.72788 0.29984 0.0
H2142 H 0.46119 0.76792 0.26648 0.0
H2143 H 0.43662 0.76623 0.28581 0.0
H2144 H 0.47285 0.74829 0.24063 0.0
H2145 H 0.51643 0.75563 0.30318 0.0
H2146 H 0.50493 0.73819 0.30665 0.0
H2147 H 0.49559 0.75719 0.30769 0.0
C2148 C 0.45626 0.73591 0.3086 0.0
C2149 C 0.44391 0.74641 0.3045 0.0
C2150 C 0.47018 0.73662 0.29713 0.0
C2151 C 0.47218 0.74814 0.28179 0.0
C2152 C 0.45997 0.75892 0.27818 0.0
H2153 H 0.56256 0.7673 0.22495 0.0
H2154 H 0.53796 0.7686 0.24427 0.0
C2155 C 0.44596 0.75799 0.28929 0.0
C2156 C 0.4865 0.74848 0.26864 0.0
H2157 H 0.5266 0.74874 0.27009 0.0
C2158 C 0.48461 0.74853 0.2471 0.0
C2159 C 0.50187 0.74899 0.27699 0.0
C2160 C 0.50483 0.75017 0.29988 0.0
C2161 C 0.49758 0.749 0.23373 0.0
C2162 C 0.51295 0.74875 0.24209 0.0
C2163 C 0.51484 0.74879 0.26362 0.0
C2164 C 0.52728 0.74867 0.22893 0.0
C2165 C 0.49459 0.75019 0.21085 0.0
C2166 C 0.52945 0.7372 0.21357 0.0
C2167 C 0.54338 0.73671 0.2021 0.0
C2168 C 0.55557 0.74739 0.20623 0.0
C2169 C 0.55335 0.75892 0.22144 0.0
C2170 C 0.53931 0.75963 0.23256 0.0
H2171 H 0.4829 0.75547 0.20758 0.0
H2172 H 0.50372 0.75737 0.20307 0.0
H2173 H 0.49468 0.73823 0.20404 0.0
H2174 H 0.52058 0.72832 0.21085 0.0
H2175 H 0.54489 0.72755 0.19069 0.0
H2176 H 0.20326 0.11203 0.22658 0.0
H2177 H 0.18482 0.12647 0.24819 0.0
H2178 H 0.17048 0.15413 0.19576 0.0
H2179 H 0.18889 0.13959 0.17382 0.0
H2180 H 0.18684 0.15893 0.25432 0.0
H2181 H 0.1284 0.14202 0.22314 0.0
H2182 H 0.146 0.13077 0.2181 0.0
H2183 H 0.14239 0.14872 0.20433 0.0
C2184 C 0.19604 0.12102 0.21949 0.0
C2185 C 0.19763 0.1247 0.19844 0.0
C2186 C 0.18549 0.12926 0.23191 0.0
C2187 C 0.17622 0.14129 0.22357 0.0
C2188 C 0.17735 0.14469 0.20243 0.0
H2189 H 0.117 0.21326 0.27647 0.0
H2190 H 0.13095 0.19507 0.25385 0.0
C2191 C 0.18792 0.13642 0.18993 0.0
C2192 C 0.1665 0.15113 0.23745 0.0
H2193 H 0.12886 0.16262 0.24784 0.0
C2194 C 0.17415 0.15967 0.25299 0.0
C2195 C 0.14997 0.15212 0.23557 0.0
C2196 C 0.14114 0.14284 0.21951 0.0
C2197 C 0.16577 0.16938 0.26655 0.0
C2198 C 0.14922 0.17032 0.2648 0.0
C2199 C 0.14154 0.1618 0.24922 0.0
C2200 C 0.1398 0.18052 0.2786 0.0
C2201 C 0.17478 0.1789 0.28226 0.0
C2202 C 0.13982 0.17813 0.30002 0.0
C2203 C 0.13192 0.18857 0.31307 0.0
C2204 C 0.12375 0.20152 0.30489 0.0
C2205 C 0.12323 0.20347 0.28334 0.0
C2206 C 0.13117 0.19306 0.27035 0.0
H2207 H 0.18743 0.17987 0.27822 0.0
H2208 H 0.16983 0.19092 0.2837 0.0
H2209 H 0.17392 0.17307 0.29752 0.0
H2210 H 0.14615 0.16832 0.30668 0.0
H2211 H 0.13245 0.18664 0.32955 0.0
H2212 H 0.8884 0.20625 0.2261 0.0
H2213 H 0.87501 0.1878 0.24891 0.0
H2214 H 0.84993 0.16847 0.19699 0.0
H2215 H 0.86348 0.18675 0.17391 0.0
H2216 H 0.84319 0.18684 0.25491 0.0
H2217 H 0.86451 0.129 0.22708 0.0
H2218 H 0.87407 0.14726 0.22043 0.0
H2219 H 0.85651 0.14128 0.20716 0.0
C2220 C 0.8802 0.19794 0.21943 0.0
C2221 C 0.87699 0.19802 0.19815 0.0
C2222 C 0.87257 0.18739 0.23252 0.0
C2223 C 0.8616 0.17665 0.22464 0.0
C2224 C 0.8586 0.17643 0.20335 0.0
H2225 H 0.79089 0.11623 0.27686 0.0
H2226 H 0.80933 0.13029 0.25467 0.0
C2227 C 0.86629 0.18696 0.1902 0.0
C2228 C 0.8524 0.16665 0.23895 0.0
H2229 H 0.84273 0.12865 0.25026 0.0
C2230 C 0.84321 0.17411 0.25403 0.0
C2231 C 0.8524 0.15005 0.23769 0.0
C2232 C 0.86251 0.14139 0.22235 0.0
C2233 C 0.83374 0.16545 0.26759 0.0
C2234 C 0.83364 0.14887 0.26626 0.0
C2235 C 0.84289 0.14137 0.25127 0.0
C2236 C 0.82347 0.1392 0.27977 0.0
C2237 C 0.82353 0.17416 0.28282 0.0
C2238 C 0.8256 0.13921 0.30123 0.0
C2239 C 0.81505 0.13121 0.31402 0.0
C2240 C 0.80222 0.12301 0.30553 0.0
C2241 C 0.80057 0.12249 0.28394 0.0
C2242 C 0.81112 0.13049 0.2712 0.0
H2243 H 0.82236 0.18681 0.27882 0.0
H2244 H 0.8116 0.16889 0.28355 0.0
H2245 H 0.82887 0.17336 0.29839 0.0
H2246 H 0.83523 0.14567 0.30811 0.0
H2247 H 0.81674 0.13178 0.33055 0.0
H2248 H 0.86118 0.8136 0.33581 0.0
H2249 H 0.8472 0.83156 0.31262 0.0
H2250 H 0.87383 0.81379 0.26111 0.0
H2251 H 0.88768 0.79572 0.28398 0.0
H2252 H 0.85763 0.85518 0.28417 0.0
H2253 H 0.82783 0.80539 0.24488 0.0
H2254 H 0.83803 0.80313 0.26909 0.0
H2255 H 0.84889 0.80407 0.24535 0.0
C2256 C 0.86419 0.81364 0.31959 0.0
C2257 C 0.87541 0.80307 0.31172 0.0
C2258 C 0.85619 0.8239 0.30637 0.0
C2259 C 0.85927 0.82376 0.28511 0.0
C2260 C 0.87104 0.81384 0.27741 0.0
H2261 H 0.81357 0.86686 0.17921 0.0
H2262 H 0.83219 0.85346 0.20201 0.0
C2263 C 0.87898 0.80355 0.29054 0.0
C2264 C 0.84972 0.83341 0.27081 0.0
H2265 H 0.82386 0.83066 0.23072 0.0
C2266 C 0.85023 0.84985 0.27249 0.0
C2267 C 0.84007 0.8264 0.2556 0.0
C2268 C 0.83851 0.80878 0.25367 0.0
C2269 C 0.84147 0.85948 0.25914 0.0
C2270 C 0.83181 0.85245 0.24397 0.0
C2271 C 0.83137 0.83602 0.24226 0.0
C2272 C 0.82149 0.86179 0.23022 0.0
C2273 C 0.84281 0.87709 0.26119 0.0
C2274 C 0.80933 0.87094 0.23853 0.0
C2275 C 0.79867 0.87858 0.22558 0.0
C2276 C 0.79989 0.87715 0.20401 0.0
C2277 C 0.81229 0.86823 0.19572 0.0
C2278 C 0.82294 0.86057 0.20872 0.0
H2279 H 0.85377 0.88055 0.26932 0.0
H2280 H 0.84257 0.88287 0.24585 0.0
H2281 H 0.8327 0.88154 0.27029 0.0
H2282 H 0.80778 0.87177 0.25507 0.0
H2283 H 0.78926 0.88532 0.23252 0.0
H2284 H 0.18678 0.86308 0.3318 0.0
H2285 H 0.16847 0.84946 0.30875 0.0
H2286 H 0.18778 0.87441 0.25675 0.0
H2287 H 0.20622 0.88791 0.2795 0.0
H2288 H 0.14555 0.86055 0.27963 0.0
H2289 H 0.19427 0.82773 0.24215 0.0
H2290 H 0.19678 0.83825 0.26608 0.0
H2291 H 0.19648 0.84873 0.24203 0.0
C2292 C 0.18704 0.86579 0.31549 0.0
C2293 C 0.19811 0.87644 0.30747 0.0
C2294 C 0.17656 0.85801 0.30235 0.0
C2295 C 0.177 0.86073 0.28102 0.0
C2296 C 0.18748 0.87192 0.27312 0.0
H2297 H 0.1329 0.81324 0.17711 0.0
H2298 H 0.14668 0.83233 0.1988 0.0
C2299 C 0.19798 0.87965 0.28618 0.0
C2300 C 0.16703 0.85136 0.26691 0.0
H2301 H 0.16891 0.82432 0.22813 0.0
C2302 C 0.15062 0.85263 0.26835 0.0
C2303 C 0.17372 0.84104 0.25223 0.0
C2304 C 0.19127 0.8387 0.25057 0.0
C2305 C 0.1407 0.84393 0.25532 0.0
C2306 C 0.1474 0.83353 0.24074 0.0
C2307 C 0.16381 0.83238 0.23922 0.0
C2308 C 0.13771 0.82311 0.22757 0.0
C2309 C 0.12315 0.84606 0.25712 0.0
C2310 C 0.12805 0.81166 0.23656 0.0
C2311 C 0.12017 0.80074 0.22424 0.0
C2312 C 0.12189 0.80098 0.20266 0.0
C2313 C 0.13129 0.81272 0.19366 0.0
C2314 C 0.13918 0.82364 0.20602 0.0
H2315 H 0.12012 0.85747 0.26444 0.0
H2316 H 0.11741 0.84545 0.24176 0.0
H2317 H 0.11825 0.83653 0.26687 0.0
H2318 H 0.12702 0.81081 0.25316 0.0
H2319 H 0.11306 0.79185 0.23172 0.0
H2320 H 0.88388 0.81826 0.68721 0.0
H2321 H 0.87164 0.83741 0.71047 0.0
H2322 H 0.85399 0.79941 0.74803 0.0
H2323 H 0.86709 0.78046 0.72575 0.0
H2324 H 0.84368 0.84364 0.71912 0.0
H2325 H 0.87024 0.82568 0.79267 0.0
H2326 H 0.87715 0.81806 0.76838 0.0
H2327 H 0.86079 0.80894 0.78151 0.0
C2328 C 0.87754 0.81407 0.70061 0.0
C2329 C 0.87657 0.79791 0.70483 0.0
C2330 C 0.87055 0.825 0.7139 0.0
C2331 C 0.86221 0.81994 0.73142 0.0
C2332 C 0.86092 0.80373 0.73523 0.0
H2333 H 0.78342 0.86583 0.78561 0.0
H2334 H 0.80271 0.85258 0.76404 0.0
C2335 C 0.86827 0.79287 0.72233 0.0
C2336 C 0.85394 0.83141 0.74496 0.0
H2337 H 0.84499 0.83897 0.79529 0.0
C2338 C 0.84422 0.84278 0.73579 0.0
C2339 C 0.85493 0.83078 0.76676 0.0
C2340 C 0.86651 0.82032 0.77784 0.0
C2341 C 0.83482 0.85282 0.74772 0.0
C2342 C 0.83446 0.85092 0.76942 0.0
C2343 C 0.84489 0.84023 0.77865 0.0
C2344 C 0.8228 0.8592 0.78267 0.0
C2345 C 0.82547 0.8654 0.73681 0.0
C2346 C 0.82745 0.86666 0.80106 0.0
C2347 C 0.81627 0.87376 0.8139 0.0
C2348 C 0.80031 0.87376 0.80838 0.0
C2349 C 0.79569 0.86628 0.79006 0.0
C2350 C 0.80676 0.85883 0.77757 0.0
H2351 H 0.83165 0.86944 0.72268 0.0
H2352 H 0.81398 0.86048 0.7319 0.0
H2353 H 0.82336 0.87574 0.74687 0.0
H2354 H 0.83972 0.86699 0.80549 0.0
H2355 H 0.82013 0.87943 0.82797 0.0
H2356 H 0.18593 0.86434 0.67666 0.0
H2357 H 0.16717 0.85058 0.69884 0.0
H2358 H 0.18924 0.87062 0.7526 0.0
H2359 H 0.20794 0.88451 0.73064 0.0
H2360 H 0.17589 0.82855 0.72905 0.0
H2361 H 0.14221 0.87781 0.7636 0.0
H2362 H 0.15391 0.88005 0.74055 0.0
H2363 H 0.16318 0.87984 0.76546 0.0
C2364 C 0.18666 0.86601 0.69318 0.0
C2365 C 0.19847 0.87551 0.70186 0.0
C2366 C 0.17593 0.85813 0.70582 0.0
C2367 C 0.1767 0.85973 0.72733 0.0
C2368 C 0.18824 0.86947 0.73602 0.0
H2369 H 0.13503 0.81317 0.83256 0.0
H2370 H 0.14908 0.83087 0.80917 0.0
C2371 C 0.19899 0.87731 0.72342 0.0
C2372 C 0.16635 0.8502 0.74077 0.0
H2373 H 0.13885 0.85259 0.77902 0.0
C2374 C 0.16766 0.83379 0.73983 0.0
C2375 C 0.15576 0.8571 0.75494 0.0
C2376 C 0.15354 0.87467 0.75614 0.0
C2377 C 0.15895 0.82406 0.75301 0.0
C2378 C 0.14836 0.83094 0.76721 0.0
C2379 C 0.14696 0.84737 0.76809 0.0
C2380 C 0.13882 0.82119 0.78141 0.0
C2381 C 0.16152 0.80652 0.75203 0.0
C2382 C 0.12805 0.81024 0.77357 0.0
C2383 C 0.12008 0.80008 0.78685 0.0
C2384 C 0.12261 0.80077 0.80827 0.0
C2385 C 0.13284 0.81229 0.81615 0.0
C2386 C 0.14088 0.82242 0.80282 0.0
H2387 H 0.17276 0.80351 0.74425 0.0
H2388 H 0.16159 0.80129 0.76771 0.0
H2389 H 0.15182 0.80104 0.74314 0.0
H2390 H 0.12603 0.80935 0.75713 0.0
H2391 H 0.11215 0.79148 0.78025 0.0
H2392 H 0.11539 0.20797 0.72674 0.0
H2393 H 0.12936 0.18927 0.74859 0.0
H2394 H 0.149 0.16708 0.69469 0.0
H2395 H 0.13523 0.18592 0.67259 0.0
H2396 H 0.12923 0.15621 0.75056 0.0
H2397 H 0.18782 0.17973 0.72845 0.0
H2398 H 0.16976 0.18991 0.72262 0.0
H2399 H 0.17577 0.17338 0.70729 0.0
C2400 C 0.1226 0.19907 0.71945 0.0
C2401 C 0.12432 0.19857 0.69787 0.0
C2402 C 0.13055 0.18836 0.73201 0.0
C2403 C 0.14041 0.17697 0.72328 0.0
C2404 C 0.14167 0.17599 0.70174 0.0
H2405 H 0.20691 0.1121 0.7785 0.0
H2406 H 0.1891 0.12569 0.75501 0.0
C2407 C 0.13373 0.18672 0.68913 0.0
C2408 C 0.14982 0.16658 0.73686 0.0
H2409 H 0.18752 0.15789 0.75079 0.0
C2410 C 0.14198 0.15652 0.7506 0.0
C2411 C 0.16644 0.1671 0.73693 0.0
C2412 C 0.17549 0.17819 0.72318 0.0
C2413 C 0.15035 0.14685 0.76431 0.0
C2414 C 0.16696 0.14745 0.76446 0.0
C2415 C 0.17477 0.15742 0.75059 0.0
C2416 C 0.17658 0.13809 0.77903 0.0
C2417 C 0.14135 0.13593 0.77833 0.0
C2418 C 0.17537 0.14045 0.8004 0.0
C2419 C 0.18554 0.13266 0.81395 0.0
C2420 C 0.19721 0.12249 0.80632 0.0
C2421 C 0.19811 0.11989 0.78493 0.0
C2422 C 0.18793 0.12764 0.77144 0.0
H2423 H 0.12924 0.13377 0.77257 0.0
H2424 H 0.14749 0.12447 0.77994 0.0
H2425 H 0.14043 0.14133 0.79385 0.0
H2426 H 0.1669 0.14871 0.80657 0.0
H2427 H 0.18457 0.135 0.83031 0.0
H2428 H 0.88312 0.2096 0.77667 0.0
H2429 H 0.86883 0.19115 0.75482 0.0
H2430 H 0.85129 0.16735 0.8088 0.0
H2431 H 0.86535 0.18596 0.83091 0.0
H2432 H 0.8696 0.15841 0.75127 0.0
H2433 H 0.8112 0.17953 0.77781 0.0
H2434 H 0.82916 0.19001 0.78324 0.0
H2435 H 0.82399 0.17293 0.79806 0.0
C2436 C 0.8763 0.20041 0.78397 0.0
C2437 C 0.87525 0.19939 0.80559 0.0
C2438 C 0.86816 0.18984 0.77142 0.0
C2439 C 0.85879 0.17806 0.78019 0.0
C2440 C 0.85821 0.17657 0.80173 0.0
H2441 H 0.79317 0.11125 0.72807 0.0
H2442 H 0.81146 0.12538 0.75027 0.0
C2443 C 0.86632 0.18718 0.81434 0.0
C2444 C 0.84922 0.16774 0.76671 0.0
H2445 H 0.81136 0.15794 0.75498 0.0
C2446 C 0.85686 0.15828 0.75206 0.0
C2447 C 0.83261 0.16768 0.76771 0.0
C2448 C 0.82371 0.17817 0.7824 0.0
C2449 C 0.84831 0.14858 0.73856 0.0
C2450 C 0.83171 0.14854 0.7396 0.0
C2451 C 0.8241 0.15796 0.75429 0.0
C2452 C 0.82188 0.13892 0.72559 0.0
C2453 C 0.85709 0.13831 0.72352 0.0
C2454 C 0.82178 0.14172 0.70426 0.0
C2455 C 0.81129 0.13364 0.69143 0.0
C2456 C 0.80065 0.12269 0.69977 0.0
C2457 C 0.80114 0.11963 0.72109 0.0
C2458 C 0.8116 0.12769 0.73384 0.0
H2459 H 0.8696 0.13678 0.72806 0.0
H2460 H 0.85152 0.12655 0.72231 0.0
H2461 H 0.85681 0.14385 0.70805 0.0
H2462 H 0.82942 0.15055 0.69762 0.0
H2463 H 0.81119 0.13632 0.67511 0.0
H2464 H 0.68618 0.63606 0.6784 0.0
H2465 H 0.66835 0.6497 0.70205 0.0
H2466 H 0.69021 0.62643 0.75368 0.0
H2467 H 0.70821 0.61297 0.73031 0.0
H2468 H 0.64678 0.63881 0.7319 0.0
H2469 H 0.69527 0.67305 0.76759 0.0
H2470 H 0.69772 0.66219 0.74391 0.0
H2471 H 0.69805 0.65214 0.76829 0.0
C2472 C 0.68713 0.63376 0.69477 0.0
C2473 C 0.69876 0.62357 0.70247 0.0
C2474 C 0.67692 0.64155 0.70826 0.0
C2475 C 0.67818 0.6393 0.72963 0.0
C2476 C 0.68929 0.6286 0.73727 0.0
H2477 H 0.63397 0.68499 0.83486 0.0
H2478 H 0.64804 0.66648 0.81263 0.0
C2479 C 0.69953 0.62088 0.72385 0.0
C2480 C 0.66826 0.64851 0.74399 0.0
H2481 H 0.67013 0.67564 0.7827 0.0
C2482 C 0.65186 0.64687 0.74301 0.0
C2483 C 0.67494 0.65903 0.75845 0.0
C2484 C 0.69244 0.66186 0.75957 0.0
C2485 C 0.64195 0.65537 0.75627 0.0
C2486 C 0.64865 0.66591 0.77067 0.0
C2487 C 0.66505 0.66745 0.77174 0.0
C2488 C 0.63892 0.67605 0.78414 0.0
C2489 C 0.62443 0.6529 0.75493 0.0
C2490 C 0.6291 0.68752 0.77547 0.0
C2491 C 0.62109 0.69813 0.78809 0.0
C2492 C 0.62279 0.69753 0.80966 0.0
C2493 C 0.63236 0.68577 0.81833 0.0
C2494 C 0.64042 0.67519 0.80566 0.0
H2495 H 0.62148 0.64157 0.74733 0.0
H2496 H 0.61897 0.6531 0.77048 0.0
H2497 H 0.61915 0.66251 0.74568 0.0
H2498 H 0.62803 0.68859 0.75889 0.0
H2499 H 0.61384 0.70703 0.78087 0.0
H2500 H 0.28189 0.63329 0.78482 0.0
H2501 H 0.30088 0.64659 0.76282 0.0
H2502 H 0.33867 0.63033 0.80181 0.0
H2503 H 0.31944 0.61787 0.82476 0.0
H2504 H 0.3443 0.65842 0.79271 0.0
H2505 H 0.32829 0.63035 0.71934 0.0
H2506 H 0.31114 0.63951 0.72981 0.0
H2507 H 0.32046 0.62358 0.74358 0.0
C2508 C 0.29426 0.63245 0.78861 0.0
C2509 C 0.29922 0.62447 0.80641 0.0
C2510 C 0.30516 0.63993 0.77588 0.0
C2511 C 0.32132 0.63908 0.78018 0.0
C2512 C 0.3263 0.63106 0.798 0.0
H2513 H 0.38161 0.68053 0.68424 0.0
H2514 H 0.36909 0.66126 0.70708 0.0
C2515 C 0.31533 0.62394 0.81111 0.0
C2516 C 0.33281 0.64746 0.76678 0.0
H2517 H 0.34106 0.65581 0.71647 0.0
C2518 C 0.34376 0.65761 0.77604 0.0
C2519 C 0.33258 0.64614 0.745 0.0
C2520 C 0.3226 0.63414 0.73393 0.0
C2521 C 0.35381 0.66706 0.76416 0.0
C2522 C 0.35231 0.66702 0.7424 0.0
C2523 C 0.34201 0.65621 0.73314 0.0
C2524 C 0.36068 0.67853 0.72904 0.0
C2525 C 0.36596 0.67686 0.77521 0.0
C2526 C 0.36004 0.69467 0.73355 0.0
C2527 C 0.36756 0.70558 0.72088 0.0
C2528 C 0.37537 0.70067 0.70293 0.0
C2529 C 0.37567 0.6846 0.69801 0.0
C2530 C 0.36852 0.67361 0.71106 0.0
H2531 H 0.36982 0.67104 0.78969 0.0
H2532 H 0.37647 0.679 0.76545 0.0
H2533 H 0.36071 0.68834 0.77954 0.0
H2534 H 0.35352 0.69891 0.74675 0.0
H2535 H 0.3669 0.71793 0.72485 0.0
H2536 H 0.38527 0.29271 0.78178 0.0
H2537 H 0.37139 0.31195 0.76069 0.0
H2538 H 0.35139 0.33264 0.81539 0.0
H2539 H 0.36513 0.31328 0.83673 0.0
H2540 H 0.32932 0.32471 0.78542 0.0
H2541 H 0.37809 0.35894 0.75083 0.0
H2542 H 0.38026 0.33806 0.74806 0.0
H2543 H 0.38068 0.34671 0.77334 0.0
C2544 C 0.37811 0.30148 0.78941 0.0
C2545 C 0.37628 0.3014 0.81098 0.0
C2546 C 0.37027 0.31255 0.7773 0.0
C2547 C 0.36052 0.32384 0.78649 0.0
C2548 C 0.35896 0.32408 0.80803 0.0
H2549 H 0.29161 0.38806 0.73356 0.0
H2550 H 0.30967 0.3746 0.75689 0.0
C2551 C 0.36683 0.31301 0.82019 0.0
C2552 C 0.35084 0.33438 0.77346 0.0
H2553 H 0.35281 0.36186 0.73515 0.0
C2554 C 0.33444 0.33299 0.77462 0.0
C2555 C 0.35758 0.34504 0.75925 0.0
C2556 C 0.37512 0.34742 0.75788 0.0
C2557 C 0.32457 0.34164 0.76153 0.0
C2558 C 0.3313 0.3522 0.74719 0.0
C2559 C 0.3477 0.35375 0.74618 0.0
C2560 C 0.32141 0.36148 0.73285 0.0
C2561 C 0.30704 0.33898 0.7627 0.0
C2562 C 0.32249 0.35905 0.7115 0.0
C2563 C 0.31225 0.36682 0.69805 0.0
C2564 C 0.30076 0.37716 0.70575 0.0
C2565 C 0.30019 0.38004 0.7271 0.0
C2566 C 0.31046 0.37232 0.7405 0.0
H2567 H 0.30411 0.32787 0.77083 0.0
H2568 H 0.30154 0.34881 0.77131 0.0
H2569 H 0.30176 0.33861 0.74705 0.0
H2570 H 0.33094 0.35078 0.7053 0.0
H2571 H 0.31305 0.36437 0.6817 0.0
H2572 H 0.61183 0.29272 0.73094 0.0
H2573 H 0.62564 0.31119 0.7533 0.0
H2574 H 0.64993 0.33031 0.70064 0.0
H2575 H 0.63601 0.31197 0.67801 0.0
H2576 H 0.65793 0.31186 0.75791 0.0
H2577 H 0.63583 0.36986 0.73156 0.0
H2578 H 0.62599 0.35163 0.72543 0.0
H2579 H 0.64318 0.3575 0.71129 0.0
C2580 C 0.61994 0.30099 0.72401 0.0
C2581 C 0.62285 0.30082 0.70265 0.0
C2582 C 0.62781 0.31155 0.73684 0.0
C2583 C 0.6387 0.32221 0.72862 0.0
C2584 C 0.64135 0.32239 0.70726 0.0
H2585 H 0.70958 0.38354 0.77896 0.0
H2586 H 0.69099 0.36923 0.75729 0.0
C2587 C 0.63344 0.31183 0.69436 0.0
C2588 C 0.64823 0.33213 0.74265 0.0
H2589 H 0.65791 0.37009 0.75416 0.0
C2590 C 0.65782 0.3246 0.75722 0.0
C2591 C 0.64812 0.34873 0.74162 0.0
C2592 C 0.63763 0.35745 0.72676 0.0
C2593 C 0.66758 0.33319 0.77052 0.0
C2594 C 0.66752 0.34979 0.76947 0.0
C2595 C 0.65787 0.35736 0.75497 0.0
C2596 C 0.67789 0.35942 0.78279 0.0
C2597 C 0.67824 0.32438 0.78511 0.0
C2598 C 0.67642 0.35897 0.80433 0.0
C2599 C 0.68708 0.3671 0.81683 0.0
C2600 C 0.69934 0.3759 0.80797 0.0
C2601 C 0.70035 0.37682 0.78634 0.0
C2602 C 0.68971 0.36867 0.77389 0.0
H2603 H 0.67956 0.31185 0.78064 0.0
H2604 H 0.69008 0.32986 0.78567 0.0
H2605 H 0.67316 0.32477 0.80086 0.0
H2606 H 0.66718 0.35213 0.81149 0.0
H2607 H 0.68588 0.36623 0.83341 0.0
H2608 H 0.36942 0.31498 0.18012 0.0
H2609 H 0.35606 0.33356 0.20292 0.0
H2610 H 0.37297 0.3081 0.25595 0.0
H2611 H 0.38648 0.28955 0.23336 0.0
H2612 H 0.33255 0.32464 0.23068 0.0
H2613 H 0.38179 0.35405 0.27148 0.0
H2614 H 0.38448 0.34331 0.24772 0.0
H2615 H 0.38267 0.33296 0.27176 0.0
C2616 C 0.37053 0.31346 0.19664 0.0
C2617 C 0.37899 0.30073 0.2049 0.0
C2618 C 0.36288 0.3241 0.20964 0.0
C2619 C 0.36366 0.3223 0.23112 0.0
C2620 C 0.37246 0.30989 0.23943 0.0
H2621 H 0.31381 0.36186 0.33538 0.0
H2622 H 0.3321 0.34788 0.31269 0.0
C2623 C 0.38009 0.29923 0.22646 0.0
C2624 C 0.35409 0.33249 0.24473 0.0
H2625 H 0.3561 0.35816 0.28514 0.0
C2626 C 0.3377 0.33209 0.24246 0.0
C2627 C 0.36086 0.34205 0.2602 0.0
C2628 C 0.37843 0.34327 0.26288 0.0
C2629 C 0.32784 0.34076 0.2555 0.0
C2630 C 0.33458 0.35036 0.27097 0.0
C2631 C 0.35099 0.35081 0.27324 0.0
C2632 C 0.32467 0.3599 0.28496 0.0
C2633 C 0.31026 0.33922 0.25297 0.0
C2634 C 0.31483 0.37162 0.27697 0.0
C2635 C 0.30433 0.37956 0.28982 0.0
C2636 C 0.30357 0.37602 0.31099 0.0
C2637 C 0.31404 0.36483 0.31915 0.0
C2638 C 0.32451 0.35683 0.30622 0.0
H2639 H 0.30704 0.32852 0.24412 0.0
H2640 H 0.3043 0.33879 0.26819 0.0
H2641 H 0.30573 0.34958 0.24443 0.0
H2642 H 0.31501 0.37439 0.26067 0.0
H2643 H 0.29658 0.38824 0.28304 0.0
H2644 H 0.63579 0.3149 0.33692 0.0
H2645 H 0.64998 0.3336 0.31505 0.0
H2646 H 0.62889 0.31299 0.26098 0.0
H2647 H 0.61458 0.29443 0.28259 0.0
H2648 H 0.67156 0.32471 0.28494 0.0
H2649 H 0.62358 0.36005 0.25033 0.0
H2650 H 0.62079 0.34813 0.27308 0.0
H2651 H 0.62074 0.33922 0.24795 0.0
C2652 C 0.63395 0.31452 0.3204 0.0
C2653 C 0.62407 0.30313 0.31152 0.0
C2654 C 0.64208 0.32521 0.30794 0.0
C2655 C 0.64034 0.3248 0.28642 0.0
C2656 C 0.63016 0.31374 0.27757 0.0
H2657 H 0.68818 0.36334 0.1804 0.0
H2658 H 0.67021 0.35016 0.20432 0.0
C2659 C 0.62207 0.30304 0.28998 0.0
C2660 C 0.65024 0.33489 0.27307 0.0
H2661 H 0.6488 0.36202 0.23428 0.0
C2662 C 0.66661 0.33302 0.27404 0.0
C2663 C 0.64372 0.3456 0.25874 0.0
C2664 C 0.62625 0.34851 0.25754 0.0
C2665 C 0.67663 0.34123 0.26068 0.0
C2666 C 0.67011 0.35184 0.24622 0.0
C2667 C 0.65375 0.35386 0.24538 0.0
C2668 C 0.68017 0.36075 0.23169 0.0
C2669 C 0.69408 0.33807 0.2617 0.0
C2670 C 0.69141 0.37138 0.23913 0.0
C2671 C 0.70171 0.37886 0.22556 0.0
C2672 C 0.7009 0.37596 0.20422 0.0
C2673 C 0.68917 0.36579 0.19673 0.0
C2674 C 0.67888 0.35827 0.21037 0.0
H2675 H 0.69673 0.32693 0.26994 0.0
H2676 H 0.69924 0.33744 0.24601 0.0
H2677 H 0.69992 0.34779 0.27014 0.0
H2678 H 0.69237 0.3737 0.2555 0.0
H2679 H 0.71048 0.38675 0.23187 0.0
H2680 H 0.68522 0.63442 0.33262 0.0
H2681 H 0.66643 0.6484 0.3107 0.0
H2682 H 0.68855 0.62905 0.25657 0.0
H2683 H 0.70727 0.61494 0.27825 0.0
H2684 H 0.67513 0.6708 0.2811 0.0
H2685 H 0.6416 0.62204 0.24514 0.0
H2686 H 0.65328 0.61946 0.26815 0.0
H2687 H 0.66257 0.62002 0.24328 0.0
C2688 C 0.68594 0.63294 0.31607 0.0
C2689 C 0.69779 0.62358 0.30721 0.0
C2690 C 0.6752 0.64094 0.30357 0.0
C2691 C 0.67599 0.63961 0.28203 0.0
C2692 C 0.68753 0.62999 0.27317 0.0
H2693 H 0.63515 0.68759 0.17739 0.0
H2694 H 0.64905 0.66963 0.20061 0.0
C2695 C 0.6983 0.62202 0.28562 0.0
C2696 C 0.66566 0.64931 0.26876 0.0
H2697 H 0.63844 0.64744 0.23011 0.0
C2698 C 0.66697 0.66571 0.2701 0.0
C2699 C 0.65516 0.64261 0.25431 0.0
C2700 C 0.65293 0.62507 0.2527 0.0
C2701 C 0.65835 0.67562 0.25704 0.0
C2702 C 0.64788 0.66893 0.24253 0.0
C2703 C 0.64647 0.65252 0.24127 0.0
C2704 C 0.63847 0.67887 0.2284 0.0
C2705 C 0.66091 0.69314 0.25845 0.0
C2706 C 0.62758 0.68966 0.23631 0.0
C2707 C 0.61969 0.69998 0.22314 0.0
C2708 C 0.62243 0.69959 0.20175 0.0
C2709 C 0.63281 0.68824 0.19378 0.0
C2710 C 0.64076 0.67796 0.20701 0.0
H2711 H 0.67206 0.69606 0.26652 0.0
H2712 H 0.66115 0.69857 0.24289 0.0
H2713 H 0.6511 0.69851 0.26726 0.0
H2714 H 0.6254 0.69031 0.25274 0.0
H2715 H 0.61165 0.70843 0.22981 0.0
H2716 H 0.29234 0.61543 0.23024 0.0
H2717 H 0.31094 0.62967 0.25194 0.0
H2718 H 0.33318 0.6489 0.19781 0.0
H2719 H 0.31442 0.63487 0.17585 0.0
H2720 H 0.34394 0.62978 0.25418 0.0
H2721 H 0.32023 0.68798 0.2307 0.0
H2722 H 0.31018 0.6698 0.2251 0.0
H2723 H 0.32677 0.67575 0.20983 0.0
C2724 C 0.30123 0.6226 0.22287 0.0
C2725 C 0.30176 0.62415 0.20127 0.0
C2726 C 0.31189 0.6307 0.23533 0.0
C2727 C 0.32325 0.64054 0.2265 0.0
C2728 C 0.32428 0.64159 0.20494 0.0
H2729 H 0.3876 0.70785 0.28104 0.0
H2730 H 0.37422 0.68972 0.25778 0.0
C2731 C 0.3136 0.63351 0.19242 0.0
C2732 C 0.33354 0.65015 0.23996 0.0
H2733 H 0.34195 0.68804 0.25324 0.0
C2734 C 0.34356 0.64252 0.25396 0.0
C2735 C 0.33293 0.66676 0.2397 0.0
C2736 C 0.32187 0.6756 0.22568 0.0
C2737 C 0.35311 0.65108 0.26761 0.0
C2738 C 0.35241 0.66769 0.26742 0.0
C2739 C 0.34249 0.6753 0.2533 0.0
C2740 C 0.36163 0.67752 0.28191 0.0
C2741 C 0.36398 0.64232 0.28194 0.0
C2742 C 0.35909 0.67659 0.30326 0.0
C2743 C 0.36675 0.68695 0.31668 0.0
C2744 C 0.37699 0.69851 0.30894 0.0
C2745 C 0.37977 0.69913 0.28756 0.0
C2746 C 0.37214 0.68877 0.27421 0.0
H2747 H 0.3662 0.63014 0.27648 0.0
H2748 H 0.37541 0.64851 0.2835 0.0
H2749 H 0.35851 0.6416 0.29743 0.0
H2750 H 0.35079 0.66819 0.3095 0.0
H2751 H 0.36429 0.68619 0.33303 0.0
loop_
_geom_bond_atom_site_label_1
_geom_bond_atom_site_label_2
_geom_bond_distance
_geom_bond_site_symmetry_2
_ccdc_geom_bond_type
O0 Cd1 2.223 . S
O0 C8 1.315 . S
Cd1 O0 2.223 . S
Cd1 O4 2.297 . S
Cd1 O5 2.439 . S
Cd1 O11 2.240 . S
Cd2 O3 2.240 . S
Cd2 O10 2.223 . S
Cd2 O12 2.297 . S
Cd2 O13 2.439 . S
O3 Cd2 2.240 . S
O3 C8 1.279 . S
O4 Cd1 2.297 . S
O4 C6 1.247 . S
O5 Cd1 2.439 . S
O5 C6 1.208 . S
C6 O4 1.247 . S
C6 O5 1.208 . S
C7 O12 1.247 . S
C7 O13 1.208 . S
C8 O0 1.315 . S
C8 O3 1.279 . S
C9 O10 1.315 . S
C9 O11 1.279 . S
O10 Cd2 2.223 . S
O10 C9 1.315 . S
O11 Cd1 2.240 . S
O11 C9 1.279 . S
O12 Cd2 2.297 . S
O12 C7 1.247 . S
O13 Cd2 2.439 . S
O13 C7 1.208 . S
O14 Cd15 2.223 . S
O14 C22 1.315 . S
Cd15 O14 2.223 . S
Cd15 O18 2.297 . S
Cd15 O19 2.439 . S
Cd15 O25 2.240 . S
Cd16 O17 2.240 . S
Cd16 O24 2.223 . S
Cd16 O26 2.297 . S
Cd16 O27 2.439 . S
O17 Cd16 2.240 . S
O17 C22 1.279 . S
O18 Cd15 2.297 . S
O18 C20 1.247 . S
O19 Cd15 2.439 . S
O19 C20 1.208 . S
C20 O18 1.247 . S
C20 O19 1.208 . S
C21 O26 1.247 . S
C21 O27 1.208 . S
C22 O14 1.315 . S
C22 O17 1.279 . S
C23 O24 1.315 . S
C23 O25 1.279 . S
O24 Cd16 2.223 . S
O24 C23 1.315 . S
O25 Cd15 2.240 . S
O25 C23 1.279 . S
O26 Cd16 2.297 . S
O26 C21 1.247 . S
O27 Cd16 2.439 . S
O27 C21 1.208 . S
O28 Cd29 2.223 . S
O28 C36 1.315 . S
Cd29 O28 2.223 . S
Cd29 O32 2.297 . S
Cd29 O33 2.439 . S
Cd29 O39 2.240 . S
Cd30 O31 2.240 . S
Cd30 O38 2.223 . S
Cd30 O40 2.297 . S
Cd30 O41 2.439 . S
O31 Cd30 2.240 . S
O31 C36 1.279 . S
O32 Cd29 2.297 . S
O32 C34 1.247 . S
O33 Cd29 2.439 . S
O33 C34 1.208 . S
C34 O32 1.247 . S
C34 O33 1.208 . S
C35 O40 1.247 . S
C35 O41 1.208 . S
C36 O28 1.315 . S
C36 O31 1.279 . S
C37 O38 1.315 . S
C37 O39 1.279 . S
O38 Cd30 2.223 . S
O38 C37 1.315 . S
O39 Cd29 2.240 . S
O39 C37 1.279 . S
O40 Cd30 2.297 . S
O40 C35 1.247 . S
O41 Cd30 2.439 . S
O41 C35 1.208 . S
O42 Cd43 2.223 . S
O42 C50 1.315 . S
Cd43 O42 2.223 . S
Cd43 O46 2.297 . S
Cd43 O47 2.439 . S
Cd43 O53 2.240 . S
Cd44 O45 2.240 . S
Cd44 O52 2.223 . S
Cd44 O54 2.297 . S
Cd44 O55 2.439 . S
O45 Cd44 2.240 . S
O45 C50 1.279 . S
O46 Cd43 2.297 . S
O46 C48 1.247 . S
O47 Cd43 2.439 . S
O47 C48 1.208 . S
C48 O46 1.247 . S
C48 O47 1.208 . S
C49 O54 1.247 . S
C49 O55 1.208 . S
C50 O42 1.315 . S
C50 O45 1.279 . S
C51 O52 1.315 . S
C51 O53 1.279 . S
O52 Cd44 2.223 . S
O52 C51 1.315 . S
O53 Cd43 2.240 . S
O53 C51 1.279 . S
O54 Cd44 2.297 . S
O54 C49 1.247 . S
O55 Cd44 2.439 . S
O55 C49 1.208 . S
O56 Cd57 2.223 . S
O56 C64 1.315 . S
Cd57 O56 2.223 . S
Cd57 O60 2.297 . S
Cd57 O61 2.439 . S
Cd57 O67 2.240 . S
Cd58 O59 2.240 . S
Cd58 O66 2.223 . S
Cd58 O68 2.297 . S
Cd58 O69 2.439 . S
O59 Cd58 2.240 . S
O59 C64 1.279 . S
O60 Cd57 2.297 . S
O60 C62 1.247 . S
O61 Cd57 2.439 . S
O61 C62 1.208 . S
C62 O60 1.247 . S
C62 O61 1.208 . S
C63 O68 1.247 . S
C63 O69 1.208 . S
C64 O56 1.315 . S
C64 O59 1.279 . S
C65 O66 1.315 . S
C65 O67 1.279 . S
O66 Cd58 2.223 . S
O66 C65 1.315 . S
O67 Cd57 2.240 . S
O67 C65 1.279 . S
O68 Cd58 2.297 . S
O68 C63 1.247 . S
O69 Cd58 2.439 . S
O69 C63 1.208 . S
O70 Cd71 2.223 . S
O70 C78 1.315 . S
Cd71 O70 2.223 . S
Cd71 O74 2.297 . S
Cd71 O75 2.439 . S
Cd71 O81 2.240 . S
Cd72 O73 2.240 . S
Cd72 O80 2.223 . S
Cd72 O82 2.297 . S
Cd72 O83 2.439 . S
O73 Cd72 2.240 . S
O73 C78 1.279 . S
O74 Cd71 2.297 . S
O74 C76 1.247 . S
O75 Cd71 2.439 . S
O75 C76 1.208 . S
C76 O74 1.247 . S
C76 O75 1.208 . S
C77 O82 1.247 . S
C77 O83 1.208 . S
C78 O70 1.315 . S
C78 O73 1.279 . S
C79 O80 1.315 . S
C79 O81 1.279 . S
O80 Cd72 2.223 . S
O80 C79 1.315 . S
O81 Cd71 2.240 . S
O81 C79 1.279 . S
O82 Cd72 2.297 . S
O82 C77 1.247 . S
O83 Cd72 2.439 . S
O83 C77 1.208 . S
O84 Cd85 2.223 . S
O84 C92 1.315 . S
Cd85 O84 2.223 . S
Cd85 O88 2.297 . S
Cd85 O89 2.439 . S
Cd85 O95 2.240 . S
Cd86 O87 2.240 . S
Cd86 O94 2.223 . S
Cd86 O96 2.297 . S
Cd86 O97 2.439 . S
O87 Cd86 2.240 . S
O87 C92 1.279 . S
O88 Cd85 2.297 . S
O88 C90 1.247 . S
O89 Cd85 2.439 . S
O89 C90 1.208 . S
C90 O88 1.247 . S
C90 O89 1.208 . S
C91 O96 1.247 . S
C91 O97 1.208 . S
C92 O84 1.315 . S
C92 O87 1.279 . S
C93 O94 1.315 . S
C93 O95 1.279 . S
O94 Cd86 2.223 . S
O94 C93 1.315 . S
O95 Cd85 2.240 . S
O95 C93 1.279 . S
O96 Cd86 2.297 . S
O96 C91 1.247 . S
O97 Cd86 2.439 . S
O97 C91 1.208 . S
O98 Cd99 2.223 . S
O98 C106 1.315 . S
Cd99 O98 2.223 . S
Cd99 O102 2.297 . S
Cd99 O103 2.439 . S
Cd99 O109 2.240 . S
Cd100 O101 2.240 . S
Cd100 O108 2.223 . S
Cd100 O110 2.297 . S
Cd100 O111 2.439 . S
O101 Cd100 2.240 . S
O101 C106 1.279 . S
O102 Cd99 2.297 . S
O102 C104 1.247 . S
O103 Cd99 2.439 . S
O103 C104 1.208 . S
C104 O102 1.247 . S
C104 O103 1.208 . S
C105 O110 1.247 . S
C105 O111 1.208 . S
C106 O98 1.315 . S
C106 O101 1.279 . S
C107 O108 1.315 . S
C107 O109 1.279 . S
O108 Cd100 2.223 . S
O108 C107 1.315 . S
O109 Cd99 2.240 . S
O109 C107 1.279 . S
O110 Cd100 2.297 . S
O110 C105 1.247 . S
O111 Cd100 2.439 . S
O111 C105 1.208 . S
O112 Cd113 2.223 . S
O112 C120 1.315 . S
Cd113 O112 2.223 . S
Cd113 O116 2.297 . S
Cd113 O117 2.439 . S
Cd113 O123 2.240 . S
Cd114 O115 2.240 . S
Cd114 O122 2.223 . S
Cd114 O124 2.297 . S
Cd114 O125 2.439 . S
O115 Cd114 2.240 . S
O115 C120 1.279 . S
O116 Cd113 2.297 . S
O116 C118 1.247 . S
O117 Cd113 2.439 . S
O117 C118 1.208 . S
C118 O116 1.247 . S
C118 O117 1.208 . S
C119 O124 1.247 . S
C119 O125 1.208 . S
C120 O112 1.315 . S
C120 O115 1.279 . S
C121 O122 1.315 . S
C121 O123 1.279 . S
O122 Cd114 2.223 . S
O122 C121 1.315 . S
O123 Cd113 2.240 . S
O123 C121 1.279 . S
O124 Cd114 2.297 . S
O124 C119 1.247 . S
O125 Cd114 2.439 . S
O125 C119 1.208 . S
O126 Cd127 2.223 . S
O126 C134 1.315 . S
Cd127 O126 2.223 . S
Cd127 O130 2.297 . S
Cd127 O131 2.439 . S
Cd127 O137 2.240 . S
Cd128 O129 2.240 . S
Cd128 O136 2.223 . S
Cd128 O138 2.297 . S
Cd128 O139 2.439 . S
O129 Cd128 2.240 . S
O129 C134 1.279 . S
O130 Cd127 2.297 . S
O130 C132 1.247 . S
O131 Cd127 2.439 . S
O131 C132 1.208 . S
C132 O130 1.247 . S
C132 O131 1.208 . S
C133 O138 1.247 . S
C133 O139 1.208 . S
C134 O126 1.315 . S
C134 O129 1.279 . S
C135 O136 1.315 . S
C135 O137 1.279 . S
O136 Cd128 2.223 . S
O136 C135 1.315 . S
O137 Cd127 2.240 . S
O137 C135 1.279 . S
O138 Cd128 2.297 . S
O138 C133 1.247 . S
O139 Cd128 2.439 . S
O139 C133 1.208 . S
O140 Cd141 2.223 . S
O140 C148 1.315 . S
Cd141 O140 2.223 . S
Cd141 O144 2.297 . S
Cd141 O145 2.439 . S
Cd141 O151 2.240 . S
Cd142 O143 2.240 . S
Cd142 O150 2.223 . S
Cd142 O152 2.297 . S
Cd142 O153 2.439 . S
O143 Cd142 2.240 . S
O143 C148 1.279 . S
O144 Cd141 2.297 . S
O144 C146 1.247 . S
O145 Cd141 2.439 . S
O145 C146 1.208 . S
C146 O144 1.247 . S
C146 O145 1.208 . S
C147 O152 1.247 . S
C147 O153 1.208 . S
C148 O140 1.315 . S
C148 O143 1.279 . S
C149 O150 1.315 . S
C149 O151 1.279 . S
O150 Cd142 2.223 . S
O150 C149 1.315 . S
O151 Cd141 2.240 . S
O151 C149 1.279 . S
O152 Cd142 2.297 . S
O152 C147 1.247 . S
O153 Cd142 2.439 . S
O153 C147 1.208 . S
O154 Cd155 2.223 . S
O154 C162 1.315 . S
Cd155 O154 2.223 . S
Cd155 O158 2.297 . S
Cd155 O159 2.439 . S
Cd155 O165 2.240 . S
Cd156 O157 2.240 . S
Cd156 O164 2.223 . S
Cd156 O166 2.297 . S
Cd156 O167 2.439 . S
O157 Cd156 2.240 . S
O157 C162 1.279 . S
O158 Cd155 2.297 . S
O158 C160 1.247 . S
O159 Cd155 2.439 . S
O159 C160 1.208 . S
C160 O158 1.247 . S
C160 O159 1.208 . S
C161 O166 1.247 . S
C161 O167 1.208 . S
C162 O154 1.315 . S
C162 O157 1.279 . S
C163 O164 1.315 . S
C163 O165 1.279 . S
O164 Cd156 2.223 . S
O164 C163 1.315 . S
O165 Cd155 2.240 . S
O165 C163 1.279 . S
O166 Cd156 2.297 . S
O166 C161 1.247 . S
O167 Cd156 2.439 . S
O167 C161 1.208 . S
O168 Cd169 2.223 . S
O168 C176 1.315 . S
Cd169 O168 2.223 . S
Cd169 O172 2.297 . S
Cd169 O173 2.439 . S
Cd169 O179 2.240 . S
Cd170 O171 2.240 . S
Cd170 O178 2.223 . S
Cd170 O180 2.297 . S
Cd170 O181 2.439 . S
O171 Cd170 2.240 . S
O171 C176 1.279 . S
O172 Cd169 2.297 . S
O172 C174 1.247 . S
O173 Cd169 2.439 . S
O173 C174 1.208 . S
C174 O172 1.247 . S
C174 O173 1.208 . S
C175 O180 1.247 . S
C175 O181 1.208 . S
C176 O168 1.315 . S
C176 O171 1.279 . S
C177 O178 1.315 . S
C177 O179 1.279 . S
O178 Cd170 2.223 . S
O178 C177 1.315 . S
O179 Cd169 2.240 . S
O179 C177 1.279 . S
O180 Cd170 2.297 . S
O180 C175 1.247 . S
O181 Cd170 2.439 . S
O181 C175 1.208 . S
O182 Cd183 2.223 . S
O182 C190 1.315 . S
Cd183 O182 2.223 . S
Cd183 O186 2.297 . S
Cd183 O187 2.439 . S
Cd183 O193 2.240 . S
Cd184 O185 2.240 . S
Cd184 O192 2.223 . S
Cd184 O194 2.297 . S
Cd184 O195 2.439 . S
O185 Cd184 2.240 . S
O185 C190 1.279 . S
O186 Cd183 2.297 . S
O186 C188 1.247 . S
O187 Cd183 2.439 . S
O187 C188 1.208 . S
C188 O186 1.247 . S
C188 O187 1.208 . S
C189 O194 1.247 . S
C189 O195 1.208 . S
C190 O182 1.315 . S
C190 O185 1.279 . S
C191 O192 1.315 . S
C191 O193 1.279 . S
O192 Cd184 2.223 . S
O192 C191 1.315 . S
O193 Cd183 2.240 . S
O193 C191 1.279 . S
O194 Cd184 2.297 . S
O194 C189 1.247 . S
O195 Cd184 2.439 . S
O195 C189 1.208 . S
O196 Cd197 2.223 . S
O196 C204 1.315 . S
Cd197 O196 2.223 . S
Cd197 O200 2.297 . S
Cd197 O201 2.439 . S
Cd197 O207 2.240 . S
Cd198 O199 2.240 . S
Cd198 O206 2.223 . S
Cd198 O208 2.297 . S
Cd198 O209 2.439 . S
O199 Cd198 2.240 . S
O199 C204 1.279 . S
O200 Cd197 2.297 . S
O200 C202 1.247 . S
O201 Cd197 2.439 . S
O201 C202 1.208 . S
C202 O200 1.247 . S
C202 O201 1.208 . S
C203 O208 1.247 . S
C203 O209 1.208 . S
C204 O196 1.315 . S
C204 O199 1.279 . S
C205 O206 1.315 . S
C205 O207 1.279 . S
O206 Cd198 2.223 . S
O206 C205 1.315 . S
O207 Cd197 2.240 . S
O207 C205 1.279 . S
O208 Cd198 2.297 . S
O208 C203 1.247 . S
O209 Cd198 2.439 . S
O209 C203 1.208 . S
O210 Cd211 2.223 . S
O210 C218 1.315 . S
Cd211 O210 2.223 . S
Cd211 O214 2.297 . S
Cd211 O215 2.439 . S
Cd211 O221 2.240 . S
Cd212 O213 2.240 . S
Cd212 O220 2.223 . S
Cd212 O222 2.297 . S
Cd212 O223 2.439 . S
O213 Cd212 2.240 . S
O213 C218 1.279 . S
O214 Cd211 2.297 . S
O214 C216 1.247 . S
O215 Cd211 2.439 . S
O215 C216 1.208 . S
C216 O214 1.247 . S
C216 O215 1.208 . S
C217 O222 1.247 . S
C217 O223 1.208 . S
C218 O210 1.315 . S
C218 O213 1.279 . S
C219 O220 1.315 . S
C219 O221 1.279 . S
O220 Cd212 2.223 . S
O220 C219 1.315 . S
O221 Cd211 2.240 . S
O221 C219 1.279 . S
O222 Cd212 2.297 . S
O222 C217 1.247 . S
O223 Cd212 2.439 . S
O223 C217 1.208 . S
O224 Cd225 2.223 . S
O224 C232 1.315 . S
Cd225 O224 2.223 . S
Cd225 O228 2.297 . S
Cd225 O229 2.439 . S
Cd225 O235 2.240 . S
Cd226 O227 2.240 . S
Cd226 O234 2.223 . S
Cd226 O236 2.297 . S
Cd226 O237 2.439 . S
O227 Cd226 2.240 . S
O227 C232 1.279 . S
O228 Cd225 2.297 . S
O228 C230 1.247 . S
O229 Cd225 2.439 . S
O229 C230 1.208 . S
C230 O228 1.247 . S
C230 O229 1.208 . S
C231 O236 1.247 . S
C231 O237 1.208 . S
C232 O224 1.315 . S
C232 O227 1.279 . S
C233 O234 1.315 . S
C233 O235 1.279 . S
O234 Cd226 2.223 . S
O234 C233 1.315 . S
O235 Cd225 2.240 . S
O235 C233 1.279 . S
O236 Cd226 2.297 . S
O236 C231 1.247 . S
O237 Cd226 2.439 . S
O237 C231 1.208 . S
O238 Cd239 2.223 . S
O238 C246 1.315 . S
Cd239 O238 2.223 . S
Cd239 O242 2.297 . S
Cd239 O243 2.439 . S
Cd239 O249 2.240 . S
Cd240 O241 2.240 . S
Cd240 O248 2.223 . S
Cd240 O250 2.297 . S
Cd240 O251 2.439 . S
O241 Cd240 2.240 . S
O241 C246 1.279 . S
O242 Cd239 2.297 . S
O242 C244 1.247 . S
O243 Cd239 2.439 . S
O243 C244 1.208 . S
C244 O242 1.247 . S
C244 O243 1.208 . S
C245 O250 1.247 . S
C245 O251 1.208 . S
C246 O238 1.315 . S
C246 O241 1.279 . S
C247 O248 1.315 . S
C247 O249 1.279 . S
O248 Cd240 2.223 . S
O248 C247 1.315 . S
O249 Cd239 2.240 . S
O249 C247 1.279 . S
O250 Cd240 2.297 . S
O250 C245 1.247 . S
O251 Cd240 2.439 . S
O251 C245 1.208 . S
O252 Cd253 2.223 . S
O252 C260 1.315 . S
Cd253 O252 2.223 . S
Cd253 O256 2.297 . S
Cd253 O257 2.439 . S
Cd253 O263 2.240 . S
Cd254 O255 2.240 . S
Cd254 O262 2.223 . S
Cd254 O264 2.297 . S
Cd254 O265 2.439 . S
O255 Cd254 2.240 . S
O255 C260 1.279 . S
O256 Cd253 2.297 . S
O256 C258 1.247 . S
O257 Cd253 2.439 . S
O257 C258 1.208 . S
C258 O256 1.247 . S
C258 O257 1.208 . S
C259 O264 1.247 . S
C259 O265 1.208 . S
C260 O252 1.315 . S
C260 O255 1.279 . S
C261 O262 1.315 . S
C261 O263 1.279 . S
O262 Cd254 2.223 . S
O262 C261 1.315 . S
O263 Cd253 2.240 . S
O263 C261 1.279 . S
O264 Cd254 2.297 . S
O264 C259 1.247 . S
O265 Cd254 2.439 . S
O265 C259 1.208 . S
O266 Cd267 2.223 . S
O266 C274 1.315 . S
Cd267 O266 2.223 . S
Cd267 O270 2.297 . S
Cd267 O271 2.439 . S
Cd267 O277 2.240 . S
Cd268 O269 2.240 . S
Cd268 O276 2.223 . S
Cd268 O278 2.297 . S
Cd268 O279 2.439 . S
O269 Cd268 2.240 . S
O269 C274 1.279 . S
O270 Cd267 2.297 . S
O270 C272 1.247 . S
O271 Cd267 2.439 . S
O271 C272 1.208 . S
C272 O270 1.247 . S
C272 O271 1.208 . S
C273 O278 1.247 . S
C273 O279 1.208 . S
C274 O266 1.315 . S
C274 O269 1.279 . S
C275 O276 1.315 . S
C275 O277 1.279 . S
O276 Cd268 2.223 . S
O276 C275 1.315 . S
O277 Cd267 2.240 . S
O277 C275 1.279 . S
O278 Cd268 2.297 . S
O278 C273 1.247 . S
O279 Cd268 2.439 . S
O279 C273 1.208 . S
O280 Cd281 2.223 . S
O280 C288 1.315 . S
Cd281 O280 2.223 . S
Cd281 O284 2.297 . S
Cd281 O285 2.439 . S
Cd281 O291 2.240 . S
Cd282 O283 2.240 . S
Cd282 O290 2.223 . S
Cd282 O292 2.297 . S
Cd282 O293 2.439 . S
O283 Cd282 2.240 . S
O283 C288 1.279 . S
O284 Cd281 2.297 . S
O284 C286 1.247 . S
O285 Cd281 2.439 . S
O285 C286 1.208 . S
C286 O284 1.247 . S
C286 O285 1.208 . S
C287 O292 1.247 . S
C287 O293 1.208 . S
C288 O280 1.315 . S
C288 O283 1.279 . S
C289 O290 1.315 . S
C289 O291 1.279 . S
O290 Cd282 2.223 . S
O290 C289 1.315 . S
O291 Cd281 2.240 . S
O291 C289 1.279 . S
O292 Cd282 2.297 . S
O292 C287 1.247 . S
O293 Cd282 2.439 . S
O293 C287 1.208 . S
O294 Cd295 2.223 . S
O294 C302 1.315 . S
Cd295 O294 2.223 . S
Cd295 O298 2.297 . S
Cd295 O299 2.439 . S
Cd295 O305 2.240 . S
Cd296 O297 2.240 . S
Cd296 O304 2.223 . S
Cd296 O306 2.297 . S
Cd296 O307 2.439 . S
O297 Cd296 2.240 . S
O297 C302 1.279 . S
O298 Cd295 2.297 . S
O298 C300 1.247 . S
O299 Cd295 2.439 . S
O299 C300 1.208 . S
C300 O298 1.247 . S
C300 O299 1.208 . S
C301 O306 1.247 . S
C301 O307 1.208 . S
C302 O294 1.315 . S
C302 O297 1.279 . S
C303 O304 1.315 . S
C303 O305 1.279 . S
O304 Cd296 2.223 . S
O304 C303 1.315 . S
O305 Cd295 2.240 . S
O305 C303 1.279 . S
O306 Cd296 2.297 . S
O306 C301 1.247 . S
O307 Cd296 2.439 . S
O307 C301 1.208 . S
O308 Cd309 2.223 . S
O308 C316 1.315 . S
Cd309 O308 2.223 . S
Cd309 O312 2.297 . S
Cd309 O313 2.439 . S
Cd309 O319 2.240 . S
Cd310 O311 2.240 . S
Cd310 O318 2.223 . S
Cd310 O320 2.297 . S
Cd310 O321 2.439 . S
O311 Cd310 2.240 . S
O311 C316 1.279 . S
O312 Cd309 2.297 . S
O312 C314 1.247 . S
O313 Cd309 2.439 . S
O313 C314 1.208 . S
C314 O312 1.247 . S
C314 O313 1.208 . S
C315 O320 1.247 . S
C315 O321 1.208 . S
C316 O308 1.315 . S
C316 O311 1.279 . S
C317 O318 1.315 . S
C317 O319 1.279 . S
O318 Cd310 2.223 . S
O318 C317 1.315 . S
O319 Cd309 2.240 . S
O319 C317 1.279 . S
O320 Cd310 2.297 . S
O320 C315 1.247 . S
O321 Cd310 2.439 . S
O321 C315 1.208 . S
O322 Cd323 2.223 . S
O322 C330 1.315 . S
Cd323 O322 2.223 . S
Cd323 O326 2.297 . S
Cd323 O327 2.439 . S
Cd323 O333 2.240 . S
Cd324 O325 2.240 . S
Cd324 O332 2.223 . S
Cd324 O334 2.297 . S
Cd324 O335 2.439 . S
O325 Cd324 2.240 . S
O325 C330 1.279 . S
O326 Cd323 2.297 . S
O326 C328 1.247 . S
O327 Cd323 2.439 . S
O327 C328 1.208 . S
C328 O326 1.247 . S
C328 O327 1.208 . S
C329 O334 1.247 . S
C329 O335 1.208 . S
C330 O322 1.315 . S
C330 O325 1.279 . S
C331 O332 1.315 . S
C331 O333 1.279 . S
O332 Cd324 2.223 . S
O332 C331 1.315 . S
O333 Cd323 2.240 . S
O333 C331 1.279 . S
O334 Cd324 2.297 . S
O334 C329 1.247 . S
O335 Cd324 2.439 . S
O335 C329 1.208 . S
O336 Cd337 2.223 . S
O336 C344 1.315 . S
Cd337 O336 2.223 . S
Cd337 O340 2.297 . S
Cd337 O341 2.439 . S
Cd337 O347 2.240 . S
Cd338 O339 2.240 . S
Cd338 O346 2.223 . S
Cd338 O348 2.297 . S
Cd338 O349 2.439 . S
O339 Cd338 2.240 . S
O339 C344 1.279 . S
O340 Cd337 2.297 . S
O340 C342 1.247 . S
O341 Cd337 2.439 . S
O341 C342 1.208 . S
C342 O340 1.247 . S
C342 O341 1.208 . S
C343 O348 1.247 . S
C343 O349 1.208 . S
C344 O336 1.315 . S
C344 O339 1.279 . S
C345 O346 1.315 . S
C345 O347 1.279 . S
O346 Cd338 2.223 . S
O346 C345 1.315 . S
O347 Cd337 2.240 . S
O347 C345 1.279 . S
O348 Cd338 2.297 . S
O348 C343 1.247 . S
O349 Cd338 2.439 . S
O349 C343 1.208 . S
O350 Cd351 2.223 . S
O350 C358 1.315 . S
Cd351 O350 2.223 . S
Cd351 O354 2.297 . S
Cd351 O355 2.439 . S
Cd351 O361 2.240 . S
Cd352 O353 2.240 . S
Cd352 O360 2.223 . S
Cd352 O362 2.297 . S
Cd352 O363 2.439 . S
O353 Cd352 2.240 . S
O353 C358 1.279 . S
O354 Cd351 2.297 . S
O354 C356 1.247 . S
O355 Cd351 2.439 . S
O355 C356 1.208 . S
C356 O354 1.247 . S
C356 O355 1.208 . S
C357 O362 1.247 . S
C357 O363 1.208 . S
C358 O350 1.315 . S
C358 O353 1.279 . S
C359 O360 1.315 . S
C359 O361 1.279 . S
O360 Cd352 2.223 . S
O360 C359 1.315 . S
O361 Cd351 2.240 . S
O361 C359 1.279 . S
O362 Cd352 2.297 . S
O362 C357 1.247 . S
O363 Cd352 2.439 . S
O363 C357 1.208 . S
O364 Cd365 2.223 . S
O364 C372 1.315 . S
Cd365 O364 2.223 . S
Cd365 O368 2.297 . S
Cd365 O369 2.439 . S
Cd365 O375 2.240 . S
Cd366 O367 2.240 . S
Cd366 O374 2.223 . S
Cd366 O376 2.297 . S
Cd366 O377 2.439 . S
O367 Cd366 2.240 . S
O367 C372 1.279 . S
O368 Cd365 2.297 . S
O368 C370 1.247 . S
O369 Cd365 2.439 . S
O369 C370 1.208 . S
C370 O368 1.247 . S
C370 O369 1.208 . S
C371 O376 1.247 . S
C371 O377 1.208 . S
C372 O364 1.315 . S
C372 O367 1.279 . S
C373 O374 1.315 . S
C373 O375 1.279 . S
O374 Cd366 2.223 . S
O374 C373 1.315 . S
O375 Cd365 2.240 . S
O375 C373 1.279 . S
O376 Cd366 2.297 . S
O376 C371 1.247 . S
O377 Cd366 2.439 . S
O377 C371 1.208 . S
O378 Cd379 2.223 . S
O378 C386 1.315 . S
Cd379 O378 2.223 . S
Cd379 O382 2.297 . S
Cd379 O383 2.439 . S
Cd379 O389 2.240 . S
Cd380 O381 2.240 . S
Cd380 O388 2.223 . S
Cd380 O390 2.297 . S
Cd380 O391 2.439 . S
O381 Cd380 2.240 . S
O381 C386 1.279 . S
O382 Cd379 2.297 . S
O382 C384 1.247 . S
O383 Cd379 2.439 . S
O383 C384 1.208 . S
C384 O382 1.247 . S
C384 O383 1.208 . S
C385 O390 1.247 . S
C385 O391 1.208 . S
C386 O378 1.315 . S
C386 O381 1.279 . S
C387 O388 1.315 . S
C387 O389 1.279 . S
O388 Cd380 2.223 . S
O388 C387 1.315 . S
O389 Cd379 2.240 . S
O389 C387 1.279 . S
O390 Cd380 2.297 . S
O390 C385 1.247 . S
O391 Cd380 2.439 . S
O391 C385 1.208 . S
O392 Cd393 2.223 . S
O392 C400 1.315 . S
Cd393 O392 2.223 . S
Cd393 O396 2.297 . S
Cd393 O397 2.439 . S
Cd393 O403 2.240 . S
Cd394 O395 2.240 . S
Cd394 O402 2.223 . S
Cd394 O404 2.297 . S
Cd394 O405 2.439 . S
O395 Cd394 2.240 . S
O395 C400 1.279 . S
O396 Cd393 2.297 . S
O396 C398 1.247 . S
O397 Cd393 2.439 . S
O397 C398 1.208 . S
C398 O396 1.247 . S
C398 O397 1.208 . S
C399 O404 1.247 . S
C399 O405 1.208 . S
C400 O392 1.315 . S
C400 O395 1.279 . S
C401 O402 1.315 . S
C401 O403 1.279 . S
O402 Cd394 2.223 . S
O402 C401 1.315 . S
O403 Cd393 2.240 . S
O403 C401 1.279 . S
O404 Cd394 2.297 . S
O404 C399 1.247 . S
O405 Cd394 2.439 . S
O405 C399 1.208 . S
O406 Cd407 2.223 . S
O406 C414 1.315 . S
Cd407 O406 2.223 . S
Cd407 O410 2.297 . S
Cd407 O411 2.439 . S
Cd407 O417 2.240 . S
Cd408 O409 2.240 . S
Cd408 O416 2.223 . S
Cd408 O418 2.297 . S
Cd408 O419 2.439 . S
O409 Cd408 2.240 . S
O409 C414 1.279 . S
O410 Cd407 2.297 . S
O410 C412 1.247 . S
O411 Cd407 2.439 . S
O411 C412 1.208 . S
C412 O410 1.247 . S
C412 O411 1.208 . S
C413 O418 1.247 . S
C413 O419 1.208 . S
C414 O406 1.315 . S
C414 O409 1.279 . S
C415 O416 1.315 . S
C415 O417 1.279 . S
O416 Cd408 2.223 . S
O416 C415 1.315 . S
O417 Cd407 2.240 . S
O417 C415 1.279 . S
O418 Cd408 2.297 . S
O418 C413 1.247 . S
O419 Cd408 2.439 . S
O419 C413 1.208 . S
O420 Cd421 2.223 . S
O420 C428 1.315 . S
Cd421 O420 2.223 . S
Cd421 O424 2.297 . S
Cd421 O425 2.439 . S
Cd421 O431 2.240 . S
Cd422 O423 2.240 . S
Cd422 O430 2.223 . S
Cd422 O432 2.297 . S
Cd422 O433 2.439 . S
O423 Cd422 2.240 . S
O423 C428 1.279 . S
O424 Cd421 2.297 . S
O424 C426 1.247 . S
O425 Cd421 2.439 . S
O425 C426 1.208 . S
C426 O424 1.247 . S
C426 O425 1.208 . S
C427 O432 1.247 . S
C427 O433 1.208 . S
C428 O420 1.315 . S
C428 O423 1.279 . S
C429 O430 1.315 . S
C429 O431 1.279 . S
O430 Cd422 2.223 . S
O430 C429 1.315 . S
O431 Cd421 2.240 . S
O431 C429 1.279 . S
O432 Cd422 2.297 . S
O432 C427 1.247 . S
O433 Cd422 2.439 . S
O433 C427 1.208 . S
O434 Cd435 2.223 . S
O434 C442 1.315 . S
Cd435 O434 2.223 . S
Cd435 O438 2.297 . S
Cd435 O439 2.439 . S
Cd435 O445 2.240 . S
Cd436 O437 2.240 . S
Cd436 O444 2.223 . S
Cd436 O446 2.297 . S
Cd436 O447 2.439 . S
O437 Cd436 2.240 . S
O437 C442 1.279 . S
O438 Cd435 2.297 . S
O438 C440 1.247 . S
O439 Cd435 2.439 . S
O439 C440 1.208 . S
C440 O438 1.247 . S
C440 O439 1.208 . S
C441 O446 1.247 . S
C441 O447 1.208 . S
C442 O434 1.315 . S
C442 O437 1.279 . S
C443 O444 1.315 . S
C443 O445 1.279 . S
O444 Cd436 2.223 . S
O444 C443 1.315 . S
O445 Cd435 2.240 . S
O445 C443 1.279 . S
O446 Cd436 2.297 . S
O446 C441 1.247 . S
O447 Cd436 2.439 . S
O447 C441 1.208 . S
H448 C456 0.929 . S
H449 C458 0.930 . S
H450 C460 0.930 . S
H451 C463 0.929 . S
H452 C466 0.930 . S
H453 C468 0.960 . S
H454 C468 0.960 . S
H455 C468 0.960 . S
C456 H448 0.929 . S
C456 C457 1.377 . S
C456 C458 1.384 . S
C457 C456 1.377 . S
C457 C463 1.390 . S
C458 H449 0.930 . S
C458 C456 1.384 . S
C458 C459 1.372 . S
C459 C458 1.372 . S
C459 C460 1.400 . S
C459 C464 1.490 . S
C460 H450 0.930 . S
C460 C459 1.400 . S
C460 C463 1.386 . S
H461 C477 0.930 . S
H462 C478 0.931 . S
C463 H451 0.929 . S
C463 C457 1.390 . S
C463 C460 1.386 . S
C464 C459 1.490 . S
C464 C466 1.395 . S
C464 C467 1.403 . S
H465 C471 0.930 . S
C466 H452 0.930 . S
C466 C464 1.395 . S
C466 C469 1.403 . S
C467 C464 1.403 . S
C467 C468 1.524 . S
C467 C471 1.400 . S
C468 H453 0.960 . S
C468 H454 0.960 . S
C468 H455 0.960 . S
C468 C467 1.524 . S
C469 C466 1.403 . S
C469 C470 1.392 . S
C469 C473 1.495 . S
C470 C469 1.392 . S
C470 C471 1.385 . S
C470 C472 1.478 . S
C471 H465 0.930 . S
C471 C467 1.400 . S
C471 C470 1.385 . S
C472 C470 1.478 . S
C472 C474 1.381 . S
C472 C478 1.383 . S
C473 C469 1.495 . S
C473 H479 0.959 . S
C473 H480 0.961 . S
C473 H481 0.960 . S
C474 C472 1.381 . S
C474 C475 1.394 . S
C474 H482 0.930 . S
C475 C474 1.394 . S
C475 C476 1.383 . S
C475 H483 0.929 . S
C476 C475 1.383 . S
C476 C477 1.377 . S
C477 H461 0.930 . S
C477 C476 1.377 . S
C477 C478 1.379 . S
C478 H462 0.931 . S
C478 C472 1.383 . S
C478 C477 1.379 . S
H479 C473 0.959 . S
H480 C473 0.961 . S
H481 C473 0.960 . S
H482 C474 0.930 . S
H483 C475 0.929 . S
H484 C492 0.929 . S
H485 C494 0.930 . S
H486 C496 0.930 . S
H487 C499 0.929 . S
H488 C502 0.930 . S
H489 C504 0.960 . S
H490 C504 0.960 . S
H491 C504 0.960 . S
C492 H484 0.929 . S
C492 C493 1.377 . S
C492 C494 1.384 . S
C493 C492 1.377 . S
C493 C499 1.390 . S
C494 H485 0.930 . S
C494 C492 1.384 . S
C494 C495 1.372 . S
C495 C494 1.372 . S
C495 C496 1.400 . S
C495 C500 1.490 . S
C496 H486 0.930 . S
C496 C495 1.400 . S
C496 C499 1.386 . S
H497 C513 0.930 . S
H498 C514 0.931 . S
C499 H487 0.929 . S
C499 C493 1.390 . S
C499 C496 1.386 . S
C500 C495 1.490 . S
C500 C502 1.395 . S
C500 C503 1.403 . S
H501 C507 0.930 . S
C502 H488 0.930 . S
C502 C500 1.395 . S
C502 C505 1.403 . S
C503 C500 1.403 . S
C503 C504 1.524 . S
C503 C507 1.400 . S
C504 H489 0.960 . S
C504 H490 0.960 . S
C504 H491 0.960 . S
C504 C503 1.524 . S
C505 C502 1.403 . S
C505 C506 1.392 . S
C505 C509 1.495 . S
C506 C505 1.392 . S
C506 C507 1.385 . S
C506 C508 1.478 . S
C507 H501 0.930 . S
C507 C503 1.400 . S
C507 C506 1.385 . S
C508 C506 1.478 . S
C508 C510 1.381 . S
C508 C514 1.383 . S
C509 C505 1.495 . S
C509 H515 0.959 . S
C509 H516 0.961 . S
C509 H517 0.960 . S
C510 C508 1.381 . S
C510 C511 1.394 . S
C510 H518 0.930 . S
C511 C510 1.394 . S
C511 C512 1.383 . S
C511 H519 0.929 . S
C512 C511 1.383 . S
C512 C513 1.377 . S
C513 H497 0.930 . S
C513 C512 1.377 . S
C513 C514 1.379 . S
C514 H498 0.931 . S
C514 C508 1.383 . S
C514 C513 1.379 . S
H515 C509 0.959 . S
H516 C509 0.961 . S
H517 C509 0.960 . S
H518 C510 0.930 . S
H519 C511 0.929 . S
H520 C528 0.929 . S
H521 C530 0.930 . S
H522 C532 0.930 . S
H523 C535 0.929 . S
H524 C538 0.930 . S
H525 C540 0.960 . S
H526 C540 0.960 . S
H527 C540 0.960 . S
C528 H520 0.929 . S
C528 C529 1.377 . S
C528 C530 1.384 . S
C529 C528 1.377 . S
C529 C535 1.390 . S
C530 H521 0.930 . S
C530 C528 1.384 . S
C530 C531 1.372 . S
C531 C530 1.372 . S
C531 C532 1.400 . S
C531 C536 1.490 . S
C532 H522 0.930 . S
C532 C531 1.400 . S
C532 C535 1.386 . S
H533 C549 0.930 . S
H534 C550 0.931 . S
C535 H523 0.929 . S
C535 C529 1.390 . S
C535 C532 1.386 . S
C536 C531 1.490 . S
C536 C538 1.395 . S
C536 C539 1.403 . S
H537 C543 0.930 . S
C538 H524 0.930 . S
C538 C536 1.395 . S
C538 C541 1.403 . S
C539 C536 1.403 . S
C539 C540 1.524 . S
C539 C543 1.400 . S
C540 H525 0.960 . S
C540 H526 0.960 . S
C540 H527 0.960 . S
C540 C539 1.524 . S
C541 C538 1.403 . S
C541 C542 1.392 . S
C541 C545 1.495 . S
C542 C541 1.392 . S
C542 C543 1.385 . S
C542 C544 1.478 . S
C543 H537 0.930 . S
C543 C539 1.400 . S
C543 C542 1.385 . S
C544 C542 1.478 . S
C544 C546 1.381 . S
C544 C550 1.383 . S
C545 C541 1.495 . S
C545 H551 0.959 . S
C545 H552 0.961 . S
C545 H553 0.960 . S
C546 C544 1.381 . S
C546 C547 1.394 . S
C546 H554 0.930 . S
C547 C546 1.394 . S
C547 C548 1.383 . S
C547 H555 0.929 . S
C548 C547 1.383 . S
C548 C549 1.377 . S
C549 H533 0.930 . S
C549 C548 1.377 . S
C549 C550 1.379 . S
C550 H534 0.931 . S
C550 C544 1.383 . S
C550 C549 1.379 . S
H551 C545 0.959 . S
H552 C545 0.961 . S
H553 C545 0.960 . S
H554 C546 0.930 . S
H555 C547 0.929 . S
H556 C564 0.929 . S
H557 C566 0.930 . S
H558 C568 0.930 . S
H559 C571 0.929 . S
H560 C574 0.930 . S
H561 C576 0.960 . S
H562 C576 0.960 . S
H563 C576 0.960 . S
C564 H556 0.929 . S
C564 C565 1.377 . S
C564 C566 1.384 . S
C565 C564 1.377 . S
C565 C571 1.390 . S
C566 H557 0.930 . S
C566 C564 1.384 . S
C566 C567 1.372 . S
C567 C566 1.372 . S
C567 C568 1.400 . S
C567 C572 1.490 . S
C568 H558 0.930 . S
C568 C567 1.400 . S
C568 C571 1.386 . S
H569 C585 0.930 . S
H570 C586 0.931 . S
C571 H559 0.929 . S
C571 C565 1.390 . S
C571 C568 1.386 . S
C572 C567 1.490 . S
C572 C574 1.395 . S
C572 C575 1.403 . S
H573 C579 0.930 . S
C574 H560 0.930 . S
C574 C572 1.395 . S
C574 C577 1.403 . S
C575 C572 1.403 . S
C575 C576 1.524 . S
C575 C579 1.400 . S
C576 H561 0.960 . S
C576 H562 0.960 . S
C576 H563 0.960 . S
C576 C575 1.524 . S
C577 C574 1.403 . S
C577 C578 1.392 . S
C577 C581 1.495 . S
C578 C577 1.392 . S
C578 C579 1.385 . S
C578 C580 1.478 . S
C579 H573 0.930 . S
C579 C575 1.400 . S
C579 C578 1.385 . S
C580 C578 1.478 . S
C580 C582 1.381 . S
C580 C586 1.383 . S
C581 C577 1.495 . S
C581 H587 0.959 . S
C581 H588 0.961 . S
C581 H589 0.960 . S
C582 C580 1.381 . S
C582 C583 1.394 . S
C582 H590 0.930 . S
C583 C582 1.394 . S
C583 C584 1.383 . S
C583 H591 0.929 . S
C584 C583 1.383 . S
C584 C585 1.377 . S
C585 H569 0.930 . S
C585 C584 1.377 . S
C585 C586 1.379 . S
C586 H570 0.931 . S
C586 C580 1.383 . S
C586 C585 1.379 . S
H587 C581 0.959 . S
H588 C581 0.961 . S
H589 C581 0.960 . S
H590 C582 0.930 . S
H591 C583 0.929 . S
H592 C600 0.929 . S
H593 C602 0.930 . S
H594 C604 0.930 . S
H595 C607 0.929 . S
H596 C610 0.930 . S
H597 C612 0.960 . S
H598 C612 0.960 . S
H599 C612 0.960 . S
C600 H592 0.929 . S
C600 C601 1.377 . S
C600 C602 1.384 . S
C601 C600 1.377 . S
C601 C607 1.390 . S
C602 H593 0.930 . S
C602 C600 1.384 . S
C602 C603 1.372 . S
C603 C602 1.372 . S
C603 C604 1.400 . S
C603 C608 1.490 . S
C604 H594 0.930 . S
C604 C603 1.400 . S
C604 C607 1.386 . S
H605 C621 0.930 . S
H606 C622 0.931 . S
C607 H595 0.929 . S
C607 C601 1.390 . S
C607 C604 1.386 . S
C608 C603 1.490 . S
C608 C610 1.395 . S
C608 C611 1.403 . S
H609 C615 0.930 . S
C610 H596 0.930 . S
C610 C608 1.395 . S
C610 C613 1.403 . S
C611 C608 1.403 . S
C611 C612 1.524 . S
C611 C615 1.400 . S
C612 H597 0.960 . S
C612 H598 0.960 . S
C612 H599 0.960 . S
C612 C611 1.524 . S
C613 C610 1.403 . S
C613 C614 1.392 . S
C613 C617 1.495 . S
C614 C613 1.392 . S
C614 C615 1.385 . S
C614 C616 1.478 . S
C615 H609 0.930 . S
C615 C611 1.400 . S
C615 C614 1.385 . S
C616 C614 1.478 . S
C616 C618 1.381 . S
C616 C622 1.383 . S
C617 C613 1.495 . S
C617 H623 0.959 . S
C617 H624 0.961 . S
C617 H625 0.960 . S
C618 C616 1.381 . S
C618 C619 1.394 . S
C618 H626 0.930 . S
C619 C618 1.394 . S
C619 C620 1.383 . S
C619 H627 0.929 . S
C620 C619 1.383 . S
C620 C621 1.377 . S
C621 H605 0.930 . S
C621 C620 1.377 . S
C621 C622 1.379 . S
C622 H606 0.931 . S
C622 C616 1.383 . S
C622 C621 1.379 . S
H623 C617 0.959 . S
H624 C617 0.961 . S
H625 C617 0.960 . S
H626 C618 0.930 . S
H627 C619 0.929 . S
H628 C636 0.929 . S
H629 C638 0.930 . S
H630 C640 0.930 . S
H631 C643 0.929 . S
H632 C646 0.930 . S
H633 C648 0.960 . S
H634 C648 0.960 . S
H635 C648 0.960 . S
C636 H628 0.929 . S
C636 C637 1.377 . S
C636 C638 1.384 . S
C637 C636 1.377 . S
C637 C643 1.390 . S
C638 H629 0.930 . S
C638 C636 1.384 . S
C638 C639 1.372 . S
C639 C638 1.372 . S
C639 C640 1.400 . S
C639 C644 1.490 . S
C640 H630 0.930 . S
C640 C639 1.400 . S
C640 C643 1.386 . S
H641 C657 0.930 . S
H642 C658 0.931 . S
C643 H631 0.929 . S
C643 C637 1.390 . S
C643 C640 1.386 . S
C644 C639 1.490 . S
C644 C646 1.395 . S
C644 C647 1.403 . S
H645 C651 0.930 . S
C646 H632 0.930 . S
C646 C644 1.395 . S
C646 C649 1.403 . S
C647 C644 1.403 . S
C647 C648 1.524 . S
C647 C651 1.400 . S
C648 H633 0.960 . S
C648 H634 0.960 . S
C648 H635 0.960 . S
C648 C647 1.524 . S
C649 C646 1.403 . S
C649 C650 1.392 . S
C649 C653 1.495 . S
C650 C649 1.392 . S
C650 C651 1.385 . S
C650 C652 1.478 . S
C651 H645 0.930 . S
C651 C647 1.400 . S
C651 C650 1.385 . S
C652 C650 1.478 . S
C652 C654 1.381 . S
C652 C658 1.383 . S
C653 C649 1.495 . S
C653 H659 0.959 . S
C653 H660 0.961 . S
C653 H661 0.960 . S
C654 C652 1.381 . S
C654 C655 1.394 . S
C654 H662 0.930 . S
C655 C654 1.394 . S
C655 C656 1.383 . S
C655 H663 0.929 . S
C656 C655 1.383 . S
C656 C657 1.377 . S
C657 H641 0.930 . S
C657 C656 1.377 . S
C657 C658 1.379 . S
C658 H642 0.931 . S
C658 C652 1.383 . S
C658 C657 1.379 . S
H659 C653 0.959 . S
H660 C653 0.961 . S
H661 C653 0.960 . S
H662 C654 0.930 . S
H663 C655 0.929 . S
H664 C672 0.929 . S
H665 C674 0.930 . S
H666 C676 0.930 . S
H667 C679 0.929 . S
H668 C682 0.930 . S
H669 C684 0.960 . S
H670 C684 0.960 . S
H671 C684 0.960 . S
C672 H664 0.929 . S
C672 C673 1.377 . S
C672 C674 1.384 . S
C673 C672 1.377 . S
C673 C679 1.390 . S
C674 H665 0.930 . S
C674 C672 1.384 . S
C674 C675 1.372 . S
C675 C674 1.372 . S
C675 C676 1.400 . S
C675 C680 1.490 . S
C676 H666 0.930 . S
C676 C675 1.400 . S
C676 C679 1.386 . S
H677 C693 0.930 . S
H678 C694 0.931 . S
C679 H667 0.929 . S
C679 C673 1.390 . S
C679 C676 1.386 . S
C680 C675 1.490 . S
C680 C682 1.395 . S
C680 C683 1.403 . S
H681 C687 0.930 . S
C682 H668 0.930 . S
C682 C680 1.395 . S
C682 C685 1.403 . S
C683 C680 1.403 . S
C683 C684 1.524 . S
C683 C687 1.400 . S
C684 H669 0.960 . S
C684 H670 0.960 . S
C684 H671 0.960 . S
C684 C683 1.524 . S
C685 C682 1.403 . S
C685 C686 1.392 . S
C685 C689 1.495 . S
C686 C685 1.392 . S
C686 C687 1.385 . S
C686 C688 1.478 . S
C687 H681 0.930 . S
C687 C683 1.400 . S
C687 C686 1.385 . S
C688 C686 1.478 . S
C688 C690 1.381 . S
C688 C694 1.383 . S
C689 C685 1.495 . S
C689 H695 0.959 . S
C689 H696 0.961 . S
C689 H697 0.960 . S
C690 C688 1.381 . S
C690 C691 1.394 . S
C690 H698 0.930 . S
C691 C690 1.394 . S
C691 C692 1.383 . S
C691 H699 0.929 . S
C692 C691 1.383 . S
C692 C693 1.377 . S
C693 H677 0.930 . S
C693 C692 1.377 . S
C693 C694 1.379 . S
C694 H678 0.931 . S
C694 C688 1.383 . S
C694 C693 1.379 . S
H695 C689 0.959 . S
H696 C689 0.961 . S
H697 C689 0.960 . S
H698 C690 0.930 . S
H699 C691 0.929 . S
H700 C708 0.929 . S
H701 C710 0.930 . S
H702 C712 0.930 . S
H703 C715 0.929 . S
H704 C718 0.930 . S
H705 C720 0.960 . S
H706 C720 0.960 . S
H707 C720 0.960 . S
C708 H700 0.929 . S
C708 C709 1.377 . S
C708 C710 1.384 . S
C709 C708 1.377 . S
C709 C715 1.390 . S
C710 H701 0.930 . S
C710 C708 1.384 . S
C710 C711 1.372 . S
C711 C710 1.372 . S
C711 C712 1.400 . S
C711 C716 1.490 . S
C712 H702 0.930 . S
C712 C711 1.400 . S
C712 C715 1.386 . S
H713 C729 0.930 . S
H714 C730 0.931 . S
C715 H703 0.929 . S
C715 C709 1.390 . S
C715 C712 1.386 . S
C716 C711 1.490 . S
C716 C718 1.395 . S
C716 C719 1.403 . S
H717 C723 0.930 . S
C718 H704 0.930 . S
C718 C716 1.395 . S
C718 C721 1.403 . S
C719 C716 1.403 . S
C719 C720 1.524 . S
C719 C723 1.400 . S
C720 H705 0.960 . S
C720 H706 0.960 . S
C720 H707 0.960 . S
C720 C719 1.524 . S
C721 C718 1.403 . S
C721 C722 1.392 . S
C721 C725 1.495 . S
C722 C721 1.392 . S
C722 C723 1.385 . S
C722 C724 1.478 . S
C723 H717 0.930 . S
C723 C719 1.400 . S
C723 C722 1.385 . S
C724 C722 1.478 . S
C724 C726 1.381 . S
C724 C730 1.383 . S
C725 C721 1.495 . S
C725 H731 0.959 . S
C725 H732 0.961 . S
C725 H733 0.960 . S
C726 C724 1.381 . S
C726 C727 1.394 . S
C726 H734 0.930 . S
C727 C726 1.394 . S
C727 C728 1.383 . S
C727 H735 0.929 . S
C728 C727 1.383 . S
C728 C729 1.377 . S
C729 H713 0.930 . S
C729 C728 1.377 . S
C729 C730 1.379 . S
C730 H714 0.931 . S
C730 C724 1.383 . S
C730 C729 1.379 . S
H731 C725 0.959 . S
H732 C725 0.961 . S
H733 C725 0.960 . S
H734 C726 0.930 . S
H735 C727 0.929 . S
H736 C744 0.929 . S
H737 C746 0.930 . S
H738 C748 0.930 . S
H739 C751 0.929 . S
H740 C754 0.930 . S
H741 C756 0.960 . S
H742 C756 0.960 . S
H743 C756 0.960 . S
C744 H736 0.929 . S
C744 C745 1.377 . S
C744 C746 1.384 . S
C745 C744 1.377 . S
C745 C751 1.390 . S
C746 H737 0.930 . S
C746 C744 1.384 . S
C746 C747 1.372 . S
C747 C746 1.372 . S
C747 C748 1.400 . S
C747 C752 1.490 . S
C748 H738 0.930 . S
C748 C747 1.400 . S
C748 C751 1.386 . S
H749 C765 0.930 . S
H750 C766 0.931 . S
C751 H739 0.929 . S
C751 C745 1.390 . S
C751 C748 1.386 . S
C752 C747 1.490 . S
C752 C754 1.395 . S
C752 C755 1.403 . S
H753 C759 0.930 . S
C754 H740 0.930 . S
C754 C752 1.395 . S
C754 C757 1.403 . S
C755 C752 1.403 . S
C755 C756 1.524 . S
C755 C759 1.400 . S
C756 H741 0.960 . S
C756 H742 0.960 . S
C756 H743 0.960 . S
C756 C755 1.524 . S
C757 C754 1.403 . S
C757 C758 1.392 . S
C757 C761 1.495 . S
C758 C757 1.392 . S
C758 C759 1.385 . S
C758 C760 1.478 . S
C759 H753 0.930 . S
C759 C755 1.400 . S
C759 C758 1.385 . S
C760 C758 1.478 . S
C760 C762 1.381 . S
C760 C766 1.383 . S
C761 C757 1.495 . S
C761 H767 0.959 . S
C761 H768 0.961 . S
C761 H769 0.960 . S
C762 C760 1.381 . S
C762 C763 1.394 . S
C762 H770 0.930 . S
C763 C762 1.394 . S
C763 C764 1.383 . S
C763 H771 0.929 . S
C764 C763 1.383 . S
C764 C765 1.377 . S
C765 H749 0.930 . S
C765 C764 1.377 . S
C765 C766 1.379 . S
C766 H750 0.931 . S
C766 C760 1.383 . S
C766 C765 1.379 . S
H767 C761 0.959 . S
H768 C761 0.961 . S
H769 C761 0.960 . S
H770 C762 0.930 . S
H771 C763 0.929 . S
H772 C780 0.929 . S
H773 C782 0.930 . S
H774 C784 0.930 . S
H775 C787 0.929 . S
H776 C790 0.930 . S
H777 C792 0.960 . S
H778 C792 0.960 . S
H779 C792 0.960 . S
C780 H772 0.929 . S
C780 C781 1.377 . S
C780 C782 1.384 . S
C781 C780 1.377 . S
C781 C787 1.390 . S
C782 H773 0.930 . S
C782 C780 1.384 . S
C782 C783 1.372 . S
C783 C782 1.372 . S
C783 C784 1.400 . S
C783 C788 1.490 . S
C784 H774 0.930 . S
C784 C783 1.400 . S
C784 C787 1.386 . S
H785 C801 0.930 . S
H786 C802 0.931 . S
C787 H775 0.929 . S
C787 C781 1.390 . S
C787 C784 1.386 . S
C788 C783 1.490 . S
C788 C790 1.395 . S
C788 C791 1.403 . S
H789 C795 0.930 . S
C790 H776 0.930 . S
C790 C788 1.395 . S
C790 C793 1.403 . S
C791 C788 1.403 . S
C791 C792 1.524 . S
C791 C795 1.400 . S
C792 H777 0.960 . S
C792 H778 0.960 . S
C792 H779 0.960 . S
C792 C791 1.524 . S
C793 C790 1.403 . S
C793 C794 1.392 . S
C793 C797 1.495 . S
C794 C793 1.392 . S
C794 C795 1.385 . S
C794 C796 1.478 . S
C795 H789 0.930 . S
C795 C791 1.400 . S
C795 C794 1.385 . S
C796 C794 1.478 . S
C796 C798 1.381 . S
C796 C802 1.383 . S
C797 C793 1.495 . S
C797 H803 0.959 . S
C797 H804 0.961 . S
C797 H805 0.960 . S
C798 C796 1.381 . S
C798 C799 1.394 . S
C798 H806 0.930 . S
C799 C798 1.394 . S
C799 C800 1.383 . S
C799 H807 0.929 . S
C800 C799 1.383 . S
C800 C801 1.377 . S
C801 H785 0.930 . S
C801 C800 1.377 . S
C801 C802 1.379 . S
C802 H786 0.931 . S
C802 C796 1.383 . S
C802 C801 1.379 . S
H803 C797 0.959 . S
H804 C797 0.961 . S
H805 C797 0.960 . S
H806 C798 0.930 . S
H807 C799 0.929 . S
H808 C816 0.929 . S
H809 C818 0.930 . S
H810 C820 0.930 . S
H811 C823 0.929 . S
H812 C826 0.930 . S
H813 C828 0.960 . S
H814 C828 0.960 . S
H815 C828 0.960 . S
C816 H808 0.929 . S
C816 C817 1.377 . S
C816 C818 1.384 . S
C817 C816 1.377 . S
C817 C823 1.390 . S
C818 H809 0.930 . S
C818 C816 1.384 . S
C818 C819 1.372 . S
C819 C818 1.372 . S
C819 C820 1.400 . S
C819 C824 1.490 . S
C820 H810 0.930 . S
C820 C819 1.400 . S
C820 C823 1.386 . S
H821 C837 0.930 . S
H822 C838 0.931 . S
C823 H811 0.929 . S
C823 C817 1.390 . S
C823 C820 1.386 . S
C824 C819 1.490 . S
C824 C826 1.395 . S
C824 C827 1.403 . S
H825 C831 0.930 . S
C826 H812 0.930 . S
C826 C824 1.395 . S
C826 C829 1.403 . S
C827 C824 1.403 . S
C827 C828 1.524 . S
C827 C831 1.400 . S
C828 H813 0.960 . S
C828 H814 0.960 . S
C828 H815 0.960 . S
C828 C827 1.524 . S
C829 C826 1.403 . S
C829 C830 1.392 . S
C829 C833 1.495 . S
C830 C829 1.392 . S
C830 C831 1.385 . S
C830 C832 1.478 . S
C831 H825 0.930 . S
C831 C827 1.400 . S
C831 C830 1.385 . S
C832 C830 1.478 . S
C832 C834 1.381 . S
C832 C838 1.383 . S
C833 C829 1.495 . S
C833 H839 0.959 . S
C833 H840 0.961 . S
C833 H841 0.960 . S
C834 C832 1.381 . S
C834 C835 1.394 . S
C834 H842 0.930 . S
C835 C834 1.394 . S
C835 C836 1.383 . S
C835 H843 0.929 . S
C836 C835 1.383 . S
C836 C837 1.377 . S
C837 H821 0.930 . S
C837 C836 1.377 . S
C837 C838 1.379 . S
C838 H822 0.931 . S
C838 C832 1.383 . S
C838 C837 1.379 . S
H839 C833 0.959 . S
H840 C833 0.961 . S
H841 C833 0.960 . S
H842 C834 0.930 . S
H843 C835 0.929 . S
H844 C852 0.929 . S
H845 C854 0.930 . S
H846 C856 0.930 . S
H847 C859 0.929 . S
H848 C862 0.930 . S
H849 C864 0.960 . S
H850 C864 0.960 . S
H851 C864 0.960 . S
C852 H844 0.929 . S
C852 C853 1.377 . S
C852 C854 1.384 . S
C853 C852 1.377 . S
C853 C859 1.390 . S
C854 H845 0.930 . S
C854 C852 1.384 . S
C854 C855 1.372 . S
C855 C854 1.372 . S
C855 C856 1.400 . S
C855 C860 1.490 . S
C856 H846 0.930 . S
C856 C855 1.400 . S
C856 C859 1.386 . S
H857 C873 0.930 . S
H858 C874 0.931 . S
C859 H847 0.929 . S
C859 C853 1.390 . S
C859 C856 1.386 . S
C860 C855 1.490 . S
C860 C862 1.395 . S
C860 C863 1.403 . S
H861 C867 0.930 . S
C862 H848 0.930 . S
C862 C860 1.395 . S
C862 C865 1.403 . S
C863 C860 1.403 . S
C863 C864 1.524 . S
C863 C867 1.400 . S
C864 H849 0.960 . S
C864 H850 0.960 . S
C864 H851 0.960 . S
C864 C863 1.524 . S
C865 C862 1.403 . S
C865 C866 1.392 . S
C865 C869 1.495 . S
C866 C865 1.392 . S
C866 C867 1.385 . S
C866 C868 1.478 . S
C867 H861 0.930 . S
C867 C863 1.400 . S
C867 C866 1.385 . S
C868 C866 1.478 . S
C868 C870 1.381 . S
C868 C874 1.383 . S
C869 C865 1.495 . S
C869 H875 0.959 . S
C869 H876 0.961 . S
C869 H877 0.960 . S
C870 C868 1.381 . S
C870 C871 1.394 . S
C870 H878 0.930 . S
C871 C870 1.394 . S
C871 C872 1.383 . S
C871 H879 0.929 . S
C872 C871 1.383 . S
C872 C873 1.377 . S
C873 H857 0.930 . S
C873 C872 1.377 . S
C873 C874 1.379 . S
C874 H858 0.931 . S
C874 C868 1.383 . S
C874 C873 1.379 . S
H875 C869 0.959 . S
H876 C869 0.961 . S
H877 C869 0.960 . S
H878 C870 0.930 . S
H879 C871 0.929 . S
H880 C888 0.929 . S
H881 C890 0.930 . S
H882 C892 0.930 . S
H883 C895 0.929 . S
H884 C898 0.930 . S
H885 C900 0.960 . S
H886 C900 0.960 . S
H887 C900 0.960 . S
C888 H880 0.929 . S
C888 C889 1.377 . S
C888 C890 1.384 . S
C889 C888 1.377 . S
C889 C895 1.390 . S
C890 H881 0.930 . S
C890 C888 1.384 . S
C890 C891 1.372 . S
C891 C890 1.372 . S
C891 C892 1.400 . S
C891 C896 1.490 . S
C892 H882 0.930 . S
C892 C891 1.400 . S
C892 C895 1.386 . S
H893 C909 0.930 . S
H894 C910 0.931 . S
C895 H883 0.929 . S
C895 C889 1.390 . S
C895 C892 1.386 . S
C896 C891 1.490 . S
C896 C898 1.395 . S
C896 C899 1.403 . S
H897 C903 0.930 . S
C898 H884 0.930 . S
C898 C896 1.395 . S
C898 C901 1.403 . S
C899 C896 1.403 . S
C899 C900 1.524 . S
C899 C903 1.400 . S
C900 H885 0.960 . S
C900 H886 0.960 . S
C900 H887 0.960 . S
C900 C899 1.524 . S
C901 C898 1.403 . S
C901 C902 1.392 . S
C901 C905 1.495 . S
C902 C901 1.392 . S
C902 C903 1.385 . S
C902 C904 1.478 . S
C903 H897 0.930 . S
C903 C899 1.400 . S
C903 C902 1.385 . S
C904 C902 1.478 . S
C904 C906 1.381 . S
C904 C910 1.383 . S
C905 C901 1.495 . S
C905 H911 0.959 . S
C905 H912 0.961 . S
C905 H913 0.960 . S
C906 C904 1.381 . S
C906 C907 1.394 . S
C906 H914 0.930 . S
C907 C906 1.394 . S
C907 C908 1.383 . S
C907 H915 0.929 . S
C908 C907 1.383 . S
C908 C909 1.377 . S
C909 H893 0.930 . S
C909 C908 1.377 . S
C909 C910 1.379 . S
C910 H894 0.931 . S
C910 C904 1.383 . S
C910 C909 1.379 . S
H911 C905 0.959 . S
H912 C905 0.961 . S
H913 C905 0.960 . S
H914 C906 0.930 . S
H915 C907 0.929 . S
H916 C924 0.929 . S
H917 C926 0.930 . S
H918 C928 0.930 . S
H919 C931 0.929 . S
H920 C934 0.930 . S
H921 C936 0.960 . S
H922 C936 0.960 . S
H923 C936 0.960 . S
C924 H916 0.929 . S
C924 C925 1.377 . S
C924 C926 1.384 . S
C925 C924 1.377 . S
C925 C931 1.390 . S
C926 H917 0.930 . S
C926 C924 1.384 . S
C926 C927 1.372 . S
C927 C926 1.372 . S
C927 C928 1.400 . S
C927 C932 1.490 . S
C928 H918 0.930 . S
C928 C927 1.400 . S
C928 C931 1.386 . S
H929 C945 0.930 . S
H930 C946 0.931 . S
C931 H919 0.929 . S
C931 C925 1.390 . S
C931 C928 1.386 . S
C932 C927 1.490 . S
C932 C934 1.395 . S
C932 C935 1.403 . S
H933 C939 0.930 . S
C934 H920 0.930 . S
C934 C932 1.395 . S
C934 C937 1.403 . S
C935 C932 1.403 . S
C935 C936 1.524 . S
C935 C939 1.400 . S
C936 H921 0.960 . S
C936 H922 0.960 . S
C936 H923 0.960 . S
C936 C935 1.524 . S
C937 C934 1.403 . S
C937 C938 1.392 . S
C937 C941 1.495 . S
C938 C937 1.392 . S
C938 C939 1.385 . S
C938 C940 1.478 . S
C939 H933 0.930 . S
C939 C935 1.400 . S
C939 C938 1.385 . S
C940 C938 1.478 . S
C940 C942 1.381 . S
C940 C946 1.383 . S
C941 C937 1.495 . S
C941 H947 0.959 . S
C941 H948 0.961 . S
C941 H949 0.960 . S
C942 C940 1.381 . S
C942 C943 1.394 . S
C942 H950 0.930 . S
C943 C942 1.394 . S
C943 C944 1.383 . S
C943 H951 0.929 . S
C944 C943 1.383 . S
C944 C945 1.377 . S
C945 H929 0.930 . S
C945 C944 1.377 . S
C945 C946 1.379 . S
C946 H930 0.931 . S
C946 C940 1.383 . S
C946 C945 1.379 . S
H947 C941 0.959 . S
H948 C941 0.961 . S
H949 C941 0.960 . S
H950 C942 0.930 . S
H951 C943 0.929 . S
H952 C960 0.929 . S
H953 C962 0.930 . S
H954 C964 0.930 . S
H955 C967 0.929 . S
H956 C970 0.930 . S
H957 C972 0.960 . S
H958 C972 0.960 . S
H959 C972 0.960 . S
C960 H952 0.929 . S
C960 C961 1.377 . S
C960 C962 1.384 . S
C961 C960 1.377 . S
C961 C967 1.390 . S
C962 H953 0.930 . S
C962 C960 1.384 . S
C962 C963 1.372 . S
C963 C962 1.372 . S
C963 C964 1.400 . S
C963 C968 1.490 . S
C964 H954 0.930 . S
C964 C963 1.400 . S
C964 C967 1.386 . S
H965 C981 0.930 . S
H966 C982 0.931 . S
C967 H955 0.929 . S
C967 C961 1.390 . S
C967 C964 1.386 . S
C968 C963 1.490 . S
C968 C970 1.395 . S
C968 C971 1.403 . S
H969 C975 0.930 . S
C970 H956 0.930 . S
C970 C968 1.395 . S
C970 C973 1.403 . S
C971 C968 1.403 . S
C971 C972 1.524 . S
C971 C975 1.400 . S
C972 H957 0.960 . S
C972 H958 0.960 . S
C972 H959 0.960 . S
C972 C971 1.524 . S
C973 C970 1.403 . S
C973 C974 1.392 . S
C973 C977 1.495 . S
C974 C973 1.392 . S
C974 C975 1.385 . S
C974 C976 1.478 . S
C975 H969 0.930 . S
C975 C971 1.400 . S
C975 C974 1.385 . S
C976 C974 1.478 . S
C976 C978 1.381 . S
C976 C982 1.383 . S
C977 C973 1.495 . S
C977 H983 0.959 . S
C977 H984 0.961 . S
C977 H985 0.960 . S
C978 C976 1.381 . S
C978 C979 1.394 . S
C978 H986 0.930 . S
C979 C978 1.394 . S
C979 C980 1.383 . S
C979 H987 0.929 . S
C980 C979 1.383 . S
C980 C981 1.377 . S
C981 H965 0.930 . S
C981 C980 1.377 . S
C981 C982 1.379 . S
C982 H966 0.931 . S
C982 C976 1.383 . S
C982 C981 1.379 . S
H983 C977 0.959 . S
H984 C977 0.961 . S
H985 C977 0.960 . S
H986 C978 0.930 . S
H987 C979 0.929 . S
H988 C996 0.929 . S
H989 C998 0.930 . S
H990 C1000 0.930 . S
H991 C1003 0.929 . S
H992 C1006 0.930 . S
H993 C1008 0.960 . S
H994 C1008 0.960 . S
H995 C1008 0.960 . S
C996 H988 0.929 . S
C996 C997 1.377 . S
C996 C998 1.384 . S
C997 C996 1.377 . S
C997 C1003 1.390 . S
C998 H989 0.930 . S
C998 C996 1.384 . S
C998 C999 1.372 . S
C999 C998 1.372 . S
C999 C1000 1.400 . S
C999 C1004 1.490 . S
C1000 H990 0.930 . S
C1000 C999 1.400 . S
C1000 C1003 1.386 . S
H1001 C1017 0.930 . S
H1002 C1018 0.931 . S
C1003 H991 0.929 . S
C1003 C997 1.390 . S
C1003 C1000 1.386 . S
C1004 C999 1.490 . S
C1004 C1006 1.395 . S
C1004 C1007 1.403 . S
H1005 C1011 0.930 . S
C1006 H992 0.930 . S
C1006 C1004 1.395 . S
C1006 C1009 1.403 . S
C1007 C1004 1.403 . S
C1007 C1008 1.524 . S
C1007 C1011 1.400 . S
C1008 H993 0.960 . S
C1008 H994 0.960 . S
C1008 H995 0.960 . S
C1008 C1007 1.524 . S
C1009 C1006 1.403 . S
C1009 C1010 1.392 . S
C1009 C1013 1.495 . S
C1010 C1009 1.392 . S
C1010 C1011 1.385 . S
C1010 C1012 1.478 . S
C1011 H1005 0.930 . S
C1011 C1007 1.400 . S
C1011 C1010 1.385 . S
C1012 C1010 1.478 . S
C1012 C1014 1.381 . S
C1012 C1018 1.383 . S
C1013 C1009 1.495 . S
C1013 H1019 0.959 . S
C1013 H1020 0.961 . S
C1013 H1021 0.960 . S
C1014 C1012 1.381 . S
C1014 C1015 1.394 . S
C1014 H1022 0.930 . S
C1015 C1014 1.394 . S
C1015 C1016 1.383 . S
C1015 H1023 0.929 . S
C1016 C1015 1.383 . S
C1016 C1017 1.377 . S
C1017 H1001 0.930 . S
C1017 C1016 1.377 . S
C1017 C1018 1.379 . S
C1018 H1002 0.931 . S
C1018 C1012 1.383 . S
C1018 C1017 1.379 . S
H1019 C1013 0.959 . S
H1020 C1013 0.961 . S
H1021 C1013 0.960 . S
H1022 C1014 0.930 . S
H1023 C1015 0.929 . S
H1024 C1032 0.929 . S
H1025 C1034 0.930 . S
H1026 C1036 0.930 . S
H1027 C1039 0.929 . S
H1028 C1042 0.930 . S
H1029 C1044 0.960 . S
H1030 C1044 0.960 . S
H1031 C1044 0.960 . S
C1032 H1024 0.929 . S
C1032 C1033 1.377 . S
C1032 C1034 1.384 . S
C1033 C1032 1.377 . S
C1033 C1039 1.390 . S
C1034 H1025 0.930 . S
C1034 C1032 1.384 . S
C1034 C1035 1.372 . S
C1035 C1034 1.372 . S
C1035 C1036 1.400 . S
C1035 C1040 1.490 . S
C1036 H1026 0.930 . S
C1036 C1035 1.400 . S
C1036 C1039 1.386 . S
H1037 C1053 0.930 . S
H1038 C1054 0.931 . S
C1039 H1027 0.929 . S
C1039 C1033 1.390 . S
C1039 C1036 1.386 . S
C1040 C1035 1.490 . S
C1040 C1042 1.395 . S
C1040 C1043 1.403 . S
H1041 C1047 0.930 . S
C1042 H1028 0.930 . S
C1042 C1040 1.395 . S
C1042 C1045 1.403 1_554 S
C1043 C1040 1.403 . S
C1043 C1044 1.524 . S
C1043 C1047 1.400 1_554 S
C1044 H1029 0.960 . S
C1044 H1030 0.960 . S
C1044 H1031 0.960 . S
C1044 C1043 1.524 . S
C1045 C1042 1.403 1_556 S
C1045 C1046 1.392 . S
C1045 C1049 1.495 . S
C1046 C1045 1.392 . S
C1046 C1047 1.385 . S
C1046 C1048 1.478 . S
C1047 H1041 0.930 . S
C1047 C1043 1.400 1_556 S
C1047 C1046 1.385 . S
C1048 C1046 1.478 . S
C1048 C1050 1.381 . S
C1048 C1054 1.383 . S
C1049 C1045 1.495 . S
C1049 H1055 0.959 . S
C1049 H1056 0.961 . S
C1049 H1057 0.960 . S
C1050 C1048 1.381 . S
C1050 C1051 1.394 . S
C1050 H1058 0.930 . S
C1051 C1050 1.394 . S
C1051 C1052 1.383 . S
C1051 H1059 0.929 . S
C1052 C1051 1.383 . S
C1052 C1053 1.377 . S
C1053 H1037 0.930 . S
C1053 C1052 1.377 . S
C1053 C1054 1.379 . S
C1054 H1038 0.931 . S
C1054 C1048 1.383 . S
C1054 C1053 1.379 . S
H1055 C1049 0.959 . S
H1056 C1049 0.961 . S
H1057 C1049 0.960 . S
H1058 C1050 0.930 . S
H1059 C1051 0.929 . S
H1060 C1068 0.929 . S
H1061 C1070 0.930 . S
H1062 C1072 0.930 . S
H1063 C1075 0.929 . S
H1064 C1078 0.930 . S
H1065 C1080 0.960 . S
H1066 C1080 0.960 . S
H1067 C1080 0.960 . S
C1068 H1060 0.929 . S
C1068 C1069 1.377 . S
C1068 C1070 1.384 . S
C1069 C1068 1.377 . S
C1069 C1075 1.390 . S
C1070 H1061 0.930 . S
C1070 C1068 1.384 . S
C1070 C1071 1.372 . S
C1071 C1070 1.372 . S
C1071 C1072 1.400 . S
C1071 C1076 1.490 . S
C1072 H1062 0.930 . S
C1072 C1071 1.400 . S
C1072 C1075 1.386 . S
H1073 C1089 0.930 . S
H1074 C1090 0.931 . S
C1075 H1063 0.929 . S
C1075 C1069 1.390 . S
C1075 C1072 1.386 . S
C1076 C1071 1.490 . S
C1076 C1078 1.395 . S
C1076 C1079 1.403 . S
H1077 C1083 0.930 . S
C1078 H1064 0.930 . S
C1078 C1076 1.395 . S
C1078 C1081 1.403 1_556 S
C1079 C1076 1.403 . S
C1079 C1080 1.524 . S
C1079 C1083 1.400 1_556 S
C1080 H1065 0.960 . S
C1080 H1066 0.960 . S
C1080 H1067 0.960 . S
C1080 C1079 1.524 . S
C1081 C1078 1.403 1_554 S
C1081 C1082 1.392 . S
C1081 C1085 1.495 . S
C1082 C1081 1.392 . S
C1082 C1083 1.385 . S
C1082 C1084 1.478 . S
C1083 H1077 0.930 . S
C1083 C1079 1.400 1_554 S
C1083 C1082 1.385 . S
C1084 C1082 1.478 . S
C1084 C1086 1.381 . S
C1084 C1090 1.383 . S
C1085 C1081 1.495 . S
C1085 H1091 0.959 . S
C1085 H1092 0.961 . S
C1085 H1093 0.960 . S
C1086 C1084 1.381 . S
C1086 C1087 1.394 . S
C1086 H1094 0.930 . S
C1087 C1086 1.394 . S
C1087 C1088 1.383 . S
C1087 H1095 0.929 . S
C1088 C1087 1.383 . S
C1088 C1089 1.377 . S
C1089 H1073 0.930 . S
C1089 C1088 1.377 . S
C1089 C1090 1.379 . S
C1090 H1074 0.931 . S
C1090 C1084 1.383 . S
C1090 C1089 1.379 . S
H1091 C1085 0.959 . S
H1092 C1085 0.961 . S
H1093 C1085 0.960 . S
H1094 C1086 0.930 . S
H1095 C1087 0.929 . S
H1096 C1104 0.929 . S
H1097 C1106 0.930 . S
H1098 C1108 0.930 . S
H1099 C1111 0.929 . S
H1100 C1114 0.930 . S
H1101 C1116 0.960 . S
H1102 C1116 0.960 . S
H1103 C1116 0.960 . S
C1104 H1096 0.929 . S
C1104 C1105 1.377 . S
C1104 C1106 1.384 . S
C1105 C1104 1.377 . S
C1105 C1111 1.390 . S
C1106 H1097 0.930 . S
C1106 C1104 1.384 . S
C1106 C1107 1.372 . S
C1107 C1106 1.372 . S
C1107 C1108 1.400 . S
C1107 C1112 1.490 . S
C1108 H1098 0.930 . S
C1108 C1107 1.400 . S
C1108 C1111 1.386 . S
H1109 C1125 0.930 . S
H1110 C1126 0.931 . S
C1111 H1099 0.929 . S
C1111 C1105 1.390 . S
C1111 C1108 1.386 . S
C1112 C1107 1.490 . S
C1112 C1114 1.395 . S
C1112 C1115 1.403 . S
H1113 C1119 0.930 . S
C1114 H1100 0.930 . S
C1114 C1112 1.395 . S
C1114 C1117 1.403 1_556 S
C1115 C1112 1.403 . S
C1115 C1116 1.524 . S
C1115 C1119 1.400 1_556 S
C1116 H1101 0.960 . S
C1116 H1102 0.960 . S
C1116 H1103 0.960 . S
C1116 C1115 1.524 . S
C1117 C1114 1.403 1_554 S
C1117 C1118 1.392 . S
C1117 C1121 1.495 . S
C1118 C1117 1.392 . S
C1118 C1119 1.385 . S
C1118 C1120 1.478 . S
C1119 H1113 0.930 . S
C1119 C1115 1.400 1_554 S
C1119 C1118 1.385 . S
C1120 C1118 1.478 . S
C1120 C1122 1.381 . S
C1120 C1126 1.383 . S
C1121 C1117 1.495 . S
C1121 H1127 0.959 . S
C1121 H1128 0.961 . S
C1121 H1129 0.960 . S
C1122 C1120 1.381 . S
C1122 C1123 1.394 . S
C1122 H1130 0.930 . S
C1123 C1122 1.394 . S
C1123 C1124 1.383 . S
C1123 H1131 0.929 . S
C1124 C1123 1.383 . S
C1124 C1125 1.377 . S
C1125 H1109 0.930 . S
C1125 C1124 1.377 . S
C1125 C1126 1.379 . S
C1126 H1110 0.931 . S
C1126 C1120 1.383 . S
C1126 C1125 1.379 . S
H1127 C1121 0.959 . S
H1128 C1121 0.961 . S
H1129 C1121 0.960 . S
H1130 C1122 0.930 . S
H1131 C1123 0.929 . S
H1132 C1140 0.929 . S
H1133 C1142 0.930 . S
H1134 C1144 0.930 . S
H1135 C1147 0.929 . S
H1136 C1150 0.930 . S
H1137 C1152 0.960 . S
H1138 C1152 0.960 . S
H1139 C1152 0.960 . S
C1140 H1132 0.929 . S
C1140 C1141 1.377 . S
C1140 C1142 1.384 . S
C1141 C1140 1.377 . S
C1141 C1147 1.390 . S
C1142 H1133 0.930 . S
C1142 C1140 1.384 . S
C1142 C1143 1.372 . S
C1143 C1142 1.372 . S
C1143 C1144 1.400 . S
C1143 C1148 1.490 . S
C1144 H1134 0.930 . S
C1144 C1143 1.400 . S
C1144 C1147 1.386 . S
H1145 C1161 0.930 . S
H1146 C1162 0.931 . S
C1147 H1135 0.929 . S
C1147 C1141 1.390 . S
C1147 C1144 1.386 . S
C1148 C1143 1.490 . S
C1148 C1150 1.395 . S
C1148 C1151 1.403 . S
H1149 C1155 0.930 . S
C1150 H1136 0.930 . S
C1150 C1148 1.395 . S
C1150 C1153 1.403 1_556 S
C1151 C1148 1.403 . S
C1151 C1152 1.524 . S
C1151 C1155 1.400 1_556 S
C1152 H1137 0.960 . S
C1152 H1138 0.960 . S
C1152 H1139 0.960 . S
C1152 C1151 1.524 . S
C1153 C1150 1.403 1_554 S
C1153 C1154 1.392 . S
C1153 C1157 1.495 . S
C1154 C1153 1.392 . S
C1154 C1155 1.385 . S
C1154 C1156 1.478 . S
C1155 H1149 0.930 . S
C1155 C1151 1.400 1_554 S
C1155 C1154 1.385 . S
C1156 C1154 1.478 . S
C1156 C1158 1.381 . S
C1156 C1162 1.383 . S
C1157 C1153 1.495 . S
C1157 H1163 0.959 . S
C1157 H1164 0.961 . S
C1157 H1165 0.960 . S
C1158 C1156 1.381 . S
C1158 C1159 1.394 . S
C1158 H1166 0.930 . S
C1159 C1158 1.394 . S
C1159 C1160 1.383 . S
C1159 H1167 0.929 . S
C1160 C1159 1.383 . S
C1160 C1161 1.377 . S
C1161 H1145 0.930 . S
C1161 C1160 1.377 . S
C1161 C1162 1.379 . S
C1162 H1146 0.931 . S
C1162 C1156 1.383 . S
C1162 C1161 1.379 . S
H1163 C1157 0.959 . S
H1164 C1157 0.961 . S
H1165 C1157 0.960 . S
H1166 C1158 0.930 . S
H1167 C1159 0.929 . S
H1168 C1176 0.929 . S
H1169 C1178 0.930 . S
H1170 C1180 0.930 . S
H1171 C1183 0.929 . S
H1172 C1186 0.930 . S
H1173 C1188 0.960 . S
H1174 C1188 0.960 . S
H1175 C1188 0.960 . S
C1176 H1168 0.929 . S
C1176 C1177 1.377 . S
C1176 C1178 1.384 . S
C1177 C1176 1.377 . S
C1177 C1183 1.390 . S
C1178 H1169 0.930 . S
C1178 C1176 1.384 . S
C1178 C1179 1.372 . S
C1179 C1178 1.372 . S
C1179 C1180 1.400 . S
C1179 C1184 1.490 . S
C1180 H1170 0.930 . S
C1180 C1179 1.400 . S
C1180 C1183 1.386 . S
H1181 C1197 0.930 . S
H1182 C1198 0.931 . S
C1183 H1171 0.929 . S
C1183 C1177 1.390 . S
C1183 C1180 1.386 . S
C1184 C1179 1.490 . S
C1184 C1186 1.395 . S
C1184 C1187 1.403 . S
H1185 C1191 0.930 . S
C1186 H1172 0.930 . S
C1186 C1184 1.395 . S
C1186 C1189 1.403 . S
C1187 C1184 1.403 . S
C1187 C1188 1.524 . S
C1187 C1191 1.400 . S
C1188 H1173 0.960 . S
C1188 H1174 0.960 . S
C1188 H1175 0.960 . S
C1188 C1187 1.524 . S
C1189 C1186 1.403 . S
C1189 C1190 1.392 . S
C1189 C1193 1.495 . S
C1190 C1189 1.392 . S
C1190 C1191 1.385 . S
C1190 C1192 1.478 . S
C1191 H1185 0.930 . S
C1191 C1187 1.400 . S
C1191 C1190 1.385 . S
C1192 C1190 1.478 . S
C1192 C1194 1.381 . S
C1192 C1198 1.383 . S
C1193 C1189 1.495 . S
C1193 H1199 0.959 . S
C1193 H1200 0.961 . S
C1193 H1201 0.960 . S
C1194 C1192 1.381 . S
C1194 C1195 1.394 . S
C1194 H1202 0.930 . S
C1195 C1194 1.394 . S
C1195 C1196 1.383 . S
C1195 H1203 0.929 . S
C1196 C1195 1.383 . S
C1196 C1197 1.377 . S
C1197 H1181 0.930 . S
C1197 C1196 1.377 . S
C1197 C1198 1.379 . S
C1198 H1182 0.931 . S
C1198 C1192 1.383 . S
C1198 C1197 1.379 . S
H1199 C1193 0.959 . S
H1200 C1193 0.961 . S
H1201 C1193 0.960 . S
H1202 C1194 0.930 . S
H1203 C1195 0.929 . S
H1204 C1212 0.929 . S
H1205 C1214 0.930 . S
H1206 C1216 0.930 . S
H1207 C1219 0.929 . S
H1208 C1222 0.930 . S
H1209 C1224 0.960 . S
H1210 C1224 0.960 . S
H1211 C1224 0.960 . S
C1212 H1204 0.929 . S
C1212 C1213 1.377 . S
C1212 C1214 1.384 . S
C1213 C1212 1.377 . S
C1213 C1219 1.390 . S
C1214 H1205 0.930 . S
C1214 C1212 1.384 . S
C1214 C1215 1.372 . S
C1215 C1214 1.372 . S
C1215 C1216 1.400 . S
C1215 C1220 1.490 . S
C1216 H1206 0.930 . S
C1216 C1215 1.400 . S
C1216 C1219 1.386 . S
H1217 C1233 0.930 . S
H1218 C1234 0.931 . S
C1219 H1207 0.929 . S
C1219 C1213 1.390 . S
C1219 C1216 1.386 . S
C1220 C1215 1.490 . S
C1220 C1222 1.395 . S
C1220 C1223 1.403 . S
H1221 C1227 0.930 . S
C1222 H1208 0.930 . S
C1222 C1220 1.395 . S
C1222 C1225 1.403 . S
C1223 C1220 1.403 . S
C1223 C1224 1.524 . S
C1223 C1227 1.400 . S
C1224 H1209 0.960 . S
C1224 H1210 0.960 . S
C1224 H1211 0.960 . S
C1224 C1223 1.524 . S
C1225 C1222 1.403 . S
C1225 C1226 1.392 . S
C1225 C1229 1.495 . S
C1226 C1225 1.392 . S
C1226 C1227 1.385 . S
C1226 C1228 1.478 . S
C1227 H1221 0.930 . S
C1227 C1223 1.400 . S
C1227 C1226 1.385 . S
C1228 C1226 1.478 . S
C1228 C1230 1.381 . S
C1228 C1234 1.383 . S
C1229 C1225 1.495 . S
C1229 H1235 0.959 . S
C1229 H1236 0.961 . S
C1229 H1237 0.960 . S
C1230 C1228 1.381 . S
C1230 C1231 1.394 . S
C1230 H1238 0.930 . S
C1231 C1230 1.394 . S
C1231 C1232 1.383 . S
C1231 H1239 0.929 . S
C1232 C1231 1.383 . S
C1232 C1233 1.377 . S
C1233 H1217 0.930 . S
C1233 C1232 1.377 . S
C1233 C1234 1.379 . S
C1234 H1218 0.931 . S
C1234 C1228 1.383 . S
C1234 C1233 1.379 . S
H1235 C1229 0.959 . S
H1236 C1229 0.961 . S
H1237 C1229 0.960 . S
H1238 C1230 0.930 . S
H1239 C1231 0.929 . S
H1240 C1248 0.929 . S
H1241 C1250 0.930 . S
H1242 C1252 0.930 . S
H1243 C1255 0.929 . S
H1244 C1258 0.930 . S
H1245 C1260 0.960 . S
H1246 C1260 0.960 . S
H1247 C1260 0.960 . S
C1248 H1240 0.929 . S
C1248 C1249 1.377 . S
C1248 C1250 1.384 . S
C1249 C1248 1.377 . S
C1249 C1255 1.390 . S
C1250 H1241 0.930 . S
C1250 C1248 1.384 . S
C1250 C1251 1.372 . S
C1251 C1250 1.372 . S
C1251 C1252 1.400 . S
C1251 C1256 1.490 . S
C1252 H1242 0.930 . S
C1252 C1251 1.400 . S
C1252 C1255 1.386 . S
H1253 C1269 0.930 . S
H1254 C1270 0.931 . S
C1255 H1243 0.929 . S
C1255 C1249 1.390 . S
C1255 C1252 1.386 . S
C1256 C1251 1.490 . S
C1256 C1258 1.395 . S
C1256 C1259 1.403 . S
H1257 C1263 0.930 . S
C1258 H1244 0.930 . S
C1258 C1256 1.395 . S
C1258 C1261 1.403 . S
C1259 C1256 1.403 . S
C1259 C1260 1.524 . S
C1259 C1263 1.400 . S
C1260 H1245 0.960 . S
C1260 H1246 0.960 . S
C1260 H1247 0.960 . S
C1260 C1259 1.524 . S
C1261 C1258 1.403 . S
C1261 C1262 1.392 . S
C1261 C1265 1.495 . S
C1262 C1261 1.392 . S
C1262 C1263 1.385 . S
C1262 C1264 1.478 . S
C1263 H1257 0.930 . S
C1263 C1259 1.400 . S
C1263 C1262 1.385 . S
C1264 C1262 1.478 . S
C1264 C1266 1.381 . S
C1264 C1270 1.383 . S
C1265 C1261 1.495 . S
C1265 H1271 0.959 . S
C1265 H1272 0.961 . S
C1265 H1273 0.960 . S
C1266 C1264 1.381 . S
C1266 C1267 1.394 . S
C1266 H1274 0.930 . S
C1267 C1266 1.394 . S
C1267 C1268 1.383 . S
C1267 H1275 0.929 . S
C1268 C1267 1.383 . S
C1268 C1269 1.377 . S
C1269 H1253 0.930 . S
C1269 C1268 1.377 . S
C1269 C1270 1.379 . S
C1270 H1254 0.931 . S
C1270 C1264 1.383 . S
C1270 C1269 1.379 . S
H1271 C1265 0.959 . S
H1272 C1265 0.961 . S
H1273 C1265 0.960 . S
H1274 C1266 0.930 . S
H1275 C1267 0.929 . S
H1276 C1284 0.929 . S
H1277 C1286 0.930 . S
H1278 C1288 0.930 . S
H1279 C1291 0.929 . S
H1280 C1294 0.930 . S
H1281 C1296 0.960 . S
H1282 C1296 0.960 . S
H1283 C1296 0.960 . S
C1284 H1276 0.929 . S
C1284 C1285 1.377 . S
C1284 C1286 1.384 . S
C1285 C1284 1.377 . S
C1285 C1291 1.390 . S
C1286 H1277 0.930 . S
C1286 C1284 1.384 . S
C1286 C1287 1.372 . S
C1287 C1286 1.372 . S
C1287 C1288 1.400 . S
C1287 C1292 1.490 . S
C1288 H1278 0.930 . S
C1288 C1287 1.400 . S
C1288 C1291 1.386 . S
H1289 C1305 0.930 . S
H1290 C1306 0.931 . S
C1291 H1279 0.929 . S
C1291 C1285 1.390 . S
C1291 C1288 1.386 . S
C1292 C1287 1.490 . S
C1292 C1294 1.395 . S
C1292 C1295 1.403 . S
H1293 C1299 0.930 . S
C1294 H1280 0.930 . S
C1294 C1292 1.395 . S
C1294 C1297 1.403 . S
C1295 C1292 1.403 . S
C1295 C1296 1.524 . S
C1295 C1299 1.400 . S
C1296 H1281 0.960 . S
C1296 H1282 0.960 . S
C1296 H1283 0.960 . S
C1296 C1295 1.524 . S
C1297 C1294 1.403 . S
C1297 C1298 1.392 . S
C1297 C1301 1.495 . S
C1298 C1297 1.392 . S
C1298 C1299 1.385 . S
C1298 C1300 1.478 . S
C1299 H1293 0.930 . S
C1299 C1295 1.400 . S
C1299 C1298 1.385 . S
C1300 C1298 1.478 . S
C1300 C1302 1.381 . S
C1300 C1306 1.383 . S
C1301 C1297 1.495 . S
C1301 H1307 0.959 . S
C1301 H1308 0.961 . S
C1301 H1309 0.960 . S
C1302 C1300 1.381 . S
C1302 C1303 1.394 . S
C1302 H1310 0.930 . S
C1303 C1302 1.394 . S
C1303 C1304 1.383 . S
C1303 H1311 0.929 . S
C1304 C1303 1.383 . S
C1304 C1305 1.377 . S
C1305 H1289 0.930 . S
C1305 C1304 1.377 . S
C1305 C1306 1.379 . S
C1306 H1290 0.931 . S
C1306 C1300 1.383 . S
C1306 C1305 1.379 . S
H1307 C1301 0.959 . S
H1308 C1301 0.961 . S
H1309 C1301 0.960 . S
H1310 C1302 0.930 . S
H1311 C1303 0.929 . S
H1312 C1320 0.929 . S
H1313 C1322 0.930 . S
H1314 C1324 0.930 . S
H1315 C1327 0.929 . S
H1316 C1330 0.930 . S
H1317 C1332 0.960 . S
H1318 C1332 0.960 . S
H1319 C1332 0.960 . S
C1320 H1312 0.929 . S
C1320 C1321 1.377 . S
C1320 C1322 1.384 . S
C1321 C1320 1.377 . S
C1321 C1327 1.390 . S
C1322 H1313 0.930 . S
C1322 C1320 1.384 . S
C1322 C1323 1.372 . S
C1323 C1322 1.372 . S
C1323 C1324 1.400 . S
C1323 C1328 1.490 . S
C1324 H1314 0.930 . S
C1324 C1323 1.400 . S
C1324 C1327 1.386 . S
H1325 C1341 0.930 . S
H1326 C1342 0.931 . S
C1327 H1315 0.929 . S
C1327 C1321 1.390 . S
C1327 C1324 1.386 . S
C1328 C1323 1.490 . S
C1328 C1330 1.395 . S
C1328 C1331 1.403 . S
H1329 C1335 0.930 . S
C1330 H1316 0.930 . S
C1330 C1328 1.395 . S
C1330 C1333 1.403 . S
C1331 C1328 1.403 . S
C1331 C1332 1.524 . S
C1331 C1335 1.400 . S
C1332 H1317 0.960 . S
C1332 H1318 0.960 . S
C1332 H1319 0.960 . S
C1332 C1331 1.524 . S
C1333 C1330 1.403 . S
C1333 C1334 1.392 . S
C1333 C1337 1.495 . S
C1334 C1333 1.392 . S
C1334 C1335 1.385 . S
C1334 C1336 1.478 . S
C1335 H1329 0.930 . S
C1335 C1331 1.400 . S
C1335 C1334 1.385 . S
C1336 C1334 1.478 . S
C1336 C1338 1.381 . S
C1336 C1342 1.383 . S
C1337 C1333 1.495 . S
C1337 H1343 0.959 . S
C1337 H1344 0.961 . S
C1337 H1345 0.960 . S
C1338 C1336 1.381 . S
C1338 C1339 1.394 . S
C1338 H1346 0.930 . S
C1339 C1338 1.394 . S
C1339 C1340 1.383 . S
C1339 H1347 0.929 . S
C1340 C1339 1.383 . S
C1340 C1341 1.377 . S
C1341 H1325 0.930 . S
C1341 C1340 1.377 . S
C1341 C1342 1.379 . S
C1342 H1326 0.931 . S
C1342 C1336 1.383 . S
C1342 C1341 1.379 . S
H1343 C1337 0.959 . S
H1344 C1337 0.961 . S
H1345 C1337 0.960 . S
H1346 C1338 0.930 . S
H1347 C1339 0.929 . S
H1348 C1356 0.929 . S
H1349 C1358 0.930 . S
H1350 C1360 0.930 . S
H1351 C1363 0.929 . S
H1352 C1366 0.930 . S
H1353 C1368 0.960 . S
H1354 C1368 0.960 . S
H1355 C1368 0.960 . S
C1356 H1348 0.929 . S
C1356 C1357 1.377 . S
C1356 C1358 1.384 . S
C1357 C1356 1.377 . S
C1357 C1363 1.390 . S
C1358 H1349 0.930 . S
C1358 C1356 1.384 . S
C1358 C1359 1.372 . S
C1359 C1358 1.372 . S
C1359 C1360 1.400 . S
C1359 C1364 1.490 . S
C1360 H1350 0.930 . S
C1360 C1359 1.400 . S
C1360 C1363 1.386 . S
H1361 C1377 0.930 . S
H1362 C1378 0.931 . S
C1363 H1351 0.929 . S
C1363 C1357 1.390 . S
C1363 C1360 1.386 . S
C1364 C1359 1.490 . S
C1364 C1366 1.395 . S
C1364 C1367 1.403 . S
H1365 C1371 0.930 . S
C1366 H1352 0.930 . S
C1366 C1364 1.395 . S
C1366 C1369 1.403 . S
C1367 C1364 1.403 . S
C1367 C1368 1.524 . S
C1367 C1371 1.400 . S
C1368 H1353 0.960 . S
C1368 H1354 0.960 . S
C1368 H1355 0.960 . S
C1368 C1367 1.524 . S
C1369 C1366 1.403 . S
C1369 C1370 1.392 . S
C1369 C1373 1.495 . S
C1370 C1369 1.392 . S
C1370 C1371 1.385 . S
C1370 C1372 1.478 . S
C1371 H1365 0.930 . S
C1371 C1367 1.400 . S
C1371 C1370 1.385 . S
C1372 C1370 1.478 . S
C1372 C1374 1.381 . S
C1372 C1378 1.383 . S
C1373 C1369 1.495 . S
C1373 H1379 0.959 . S
C1373 H1380 0.961 . S
C1373 H1381 0.960 . S
C1374 C1372 1.381 . S
C1374 C1375 1.394 . S
C1374 H1382 0.930 . S
C1375 C1374 1.394 . S
C1375 C1376 1.383 . S
C1375 H1383 0.929 . S
C1376 C1375 1.383 . S
C1376 C1377 1.377 . S
C1377 H1361 0.930 . S
C1377 C1376 1.377 . S
C1377 C1378 1.379 . S
C1378 H1362 0.931 . S
C1378 C1372 1.383 . S
C1378 C1377 1.379 . S
H1379 C1373 0.959 . S
H1380 C1373 0.961 . S
H1381 C1373 0.960 . S
H1382 C1374 0.930 . S
H1383 C1375 0.929 . S
H1384 C1392 0.929 . S
H1385 C1394 0.930 . S
H1386 C1396 0.930 . S
H1387 C1399 0.929 . S
H1388 C1402 0.930 . S
H1389 C1404 0.960 . S
H1390 C1404 0.960 . S
H1391 C1404 0.960 . S
C1392 H1384 0.929 . S
C1392 C1393 1.377 . S
C1392 C1394 1.384 . S
C1393 C1392 1.377 . S
C1393 C1399 1.390 . S
C1394 H1385 0.930 . S
C1394 C1392 1.384 . S
C1394 C1395 1.372 . S
C1395 C1394 1.372 . S
C1395 C1396 1.400 . S
C1395 C1400 1.490 . S
C1396 H1386 0.930 . S
C1396 C1395 1.400 . S
C1396 C1399 1.386 . S
H1397 C1413 0.930 . S
H1398 C1414 0.931 . S
C1399 H1387 0.929 . S
C1399 C1393 1.390 . S
C1399 C1396 1.386 . S
C1400 C1395 1.490 . S
C1400 C1402 1.395 . S
C1400 C1403 1.403 . S
H1401 C1407 0.930 . S
C1402 H1388 0.930 . S
C1402 C1400 1.395 . S
C1402 C1405 1.403 . S
C1403 C1400 1.403 . S
C1403 C1404 1.524 . S
C1403 C1407 1.400 . S
C1404 H1389 0.960 . S
C1404 H1390 0.960 . S
C1404 H1391 0.960 . S
C1404 C1403 1.524 . S
C1405 C1402 1.403 . S
C1405 C1406 1.392 . S
C1405 C1409 1.495 . S
C1406 C1405 1.392 . S
C1406 C1407 1.385 . S
C1406 C1408 1.478 . S
C1407 H1401 0.930 . S
C1407 C1403 1.400 . S
C1407 C1406 1.385 . S
C1408 C1406 1.478 . S
C1408 C1410 1.381 . S
C1408 C1414 1.383 . S
C1409 C1405 1.495 . S
C1409 H1415 0.959 . S
C1409 H1416 0.961 . S
C1409 H1417 0.960 . S
C1410 C1408 1.381 . S
C1410 C1411 1.394 . S
C1410 H1418 0.930 . S
C1411 C1410 1.394 . S
C1411 C1412 1.383 . S
C1411 H1419 0.929 . S
C1412 C1411 1.383 . S
C1412 C1413 1.377 . S
C1413 H1397 0.930 . S
C1413 C1412 1.377 . S
C1413 C1414 1.379 . S
C1414 H1398 0.931 . S
C1414 C1408 1.383 . S
C1414 C1413 1.379 . S
H1415 C1409 0.959 . S
H1416 C1409 0.961 . S
H1417 C1409 0.960 . S
H1418 C1410 0.930 . S
H1419 C1411 0.929 . S
H1420 C1428 0.929 . S
H1421 C1430 0.930 . S
H1422 C1432 0.930 . S
H1423 C1435 0.929 . S
H1424 C1438 0.930 . S
H1425 C1440 0.960 . S
H1426 C1440 0.960 . S
H1427 C1440 0.960 . S
C1428 H1420 0.929 . S
C1428 C1429 1.377 . S
C1428 C1430 1.384 . S
C1429 C1428 1.377 . S
C1429 C1435 1.390 . S
C1430 H1421 0.930 . S
C1430 C1428 1.384 . S
C1430 C1431 1.372 . S
C1431 C1430 1.372 . S
C1431 C1432 1.400 . S
C1431 C1436 1.490 . S
C1432 H1422 0.930 . S
C1432 C1431 1.400 . S
C1432 C1435 1.386 . S
H1433 C1449 0.930 . S
H1434 C1450 0.931 . S
C1435 H1423 0.929 . S
C1435 C1429 1.390 . S
C1435 C1432 1.386 . S
C1436 C1431 1.490 . S
C1436 C1438 1.395 . S
C1436 C1439 1.403 . S
H1437 C1443 0.930 . S
C1438 H1424 0.930 . S
C1438 C1436 1.395 . S
C1438 C1441 1.403 . S
C1439 C1436 1.403 . S
C1439 C1440 1.524 . S
C1439 C1443 1.400 . S
C1440 H1425 0.960 . S
C1440 H1426 0.960 . S
C1440 H1427 0.960 . S
C1440 C1439 1.524 . S
C1441 C1438 1.403 . S
C1441 C1442 1.392 . S
C1441 C1445 1.495 . S
C1442 C1441 1.392 . S
C1442 C1443 1.385 . S
C1442 C1444 1.478 . S
C1443 H1437 0.930 . S
C1443 C1439 1.400 . S
C1443 C1442 1.385 . S
C1444 C1442 1.478 . S
C1444 C1446 1.381 . S
C1444 C1450 1.383 . S
C1445 C1441 1.495 . S
C1445 H1451 0.959 . S
C1445 H1452 0.961 . S
C1445 H1453 0.960 . S
C1446 C1444 1.381 . S
C1446 C1447 1.394 . S
C1446 H1454 0.930 . S
C1447 C1446 1.394 . S
C1447 C1448 1.383 . S
C1447 H1455 0.929 . S
C1448 C1447 1.383 . S
C1448 C1449 1.377 . S
C1449 H1433 0.930 . S
C1449 C1448 1.377 . S
C1449 C1450 1.379 . S
C1450 H1434 0.931 . S
C1450 C1444 1.383 . S
C1450 C1449 1.379 . S
H1451 C1445 0.959 . S
H1452 C1445 0.961 . S
H1453 C1445 0.960 . S
H1454 C1446 0.930 . S
H1455 C1447 0.929 . S
H1456 C1464 0.929 . S
H1457 C1466 0.930 . S
H1458 C1468 0.930 . S
H1459 C1471 0.929 . S
H1460 C1474 0.930 . S
H1461 C1476 0.960 . S
H1462 C1476 0.960 . S
H1463 C1476 0.960 . S
C1464 H1456 0.929 . S
C1464 C1465 1.377 . S
C1464 C1466 1.384 . S
C1465 C1464 1.377 . S
C1465 C1471 1.390 . S
C1466 H1457 0.930 . S
C1466 C1464 1.384 . S
C1466 C1467 1.372 . S
C1467 C1466 1.372 . S
C1467 C1468 1.400 . S
C1467 C1472 1.490 . S
C1468 H1458 0.930 . S
C1468 C1467 1.400 . S
C1468 C1471 1.386 . S
H1469 C1485 0.930 . S
H1470 C1486 0.931 . S
C1471 H1459 0.929 . S
C1471 C1465 1.390 . S
C1471 C1468 1.386 . S
C1472 C1467 1.490 . S
C1472 C1474 1.395 . S
C1472 C1475 1.403 . S
H1473 C1479 0.930 . S
C1474 H1460 0.930 . S
C1474 C1472 1.395 . S
C1474 C1477 1.403 1_556 S
C1475 C1472 1.403 . S
C1475 C1476 1.524 . S
C1475 C1479 1.400 1_556 S
C1476 H1461 0.960 . S
C1476 H1462 0.960 . S
C1476 H1463 0.960 . S
C1476 C1475 1.524 . S
C1477 C1474 1.403 1_554 S
C1477 C1478 1.392 . S
C1477 C1481 1.495 . S
C1478 C1477 1.392 . S
C1478 C1479 1.385 . S
C1478 C1480 1.478 . S
C1479 H1473 0.930 . S
C1479 C1475 1.400 1_554 S
C1479 C1478 1.385 . S
C1480 C1478 1.478 . S
C1480 C1482 1.381 . S
C1480 C1486 1.383 . S
C1481 C1477 1.495 . S
C1481 H1487 0.959 . S
C1481 H1488 0.961 . S
C1481 H1489 0.960 . S
C1482 C1480 1.381 . S
C1482 C1483 1.394 . S
C1482 H1490 0.930 . S
C1483 C1482 1.394 . S
C1483 C1484 1.383 . S
C1483 H1491 0.929 . S
C1484 C1483 1.383 . S
C1484 C1485 1.377 . S
C1485 H1469 0.930 . S
C1485 C1484 1.377 . S
C1485 C1486 1.379 . S
C1486 H1470 0.931 . S
C1486 C1480 1.383 . S
C1486 C1485 1.379 . S
H1487 C1481 0.959 . S
H1488 C1481 0.961 . S
H1489 C1481 0.960 . S
H1490 C1482 0.930 . S
H1491 C1483 0.929 . S
H1492 C1500 0.929 . S
H1493 C1502 0.930 . S
H1494 C1504 0.930 . S
H1495 C1507 0.929 . S
H1496 C1510 0.930 . S
H1497 C1512 0.960 . S
H1498 C1512 0.960 . S
H1499 C1512 0.960 . S
C1500 H1492 0.929 . S
C1500 C1501 1.377 . S
C1500 C1502 1.384 . S
C1501 C1500 1.377 . S
C1501 C1507 1.390 . S
C1502 H1493 0.930 . S
C1502 C1500 1.384 . S
C1502 C1503 1.372 . S
C1503 C1502 1.372 . S
C1503 C1504 1.400 . S
C1503 C1508 1.490 . S
C1504 H1494 0.930 . S
C1504 C1503 1.400 . S
C1504 C1507 1.386 . S
H1505 C1521 0.930 . S
H1506 C1522 0.931 . S
C1507 H1495 0.929 . S
C1507 C1501 1.390 . S
C1507 C1504 1.386 . S
C1508 C1503 1.490 . S
C1508 C1510 1.395 . S
C1508 C1511 1.403 . S
H1509 C1515 0.930 . S
C1510 H1496 0.930 . S
C1510 C1508 1.395 . S
C1510 C1513 1.403 1_554 S
C1511 C1508 1.403 . S
C1511 C1512 1.524 . S
C1511 C1515 1.400 1_554 S
C1512 H1497 0.960 . S
C1512 H1498 0.960 . S
C1512 H1499 0.960 . S
C1512 C1511 1.524 . S
C1513 C1510 1.403 1_556 S
C1513 C1514 1.392 . S
C1513 C1517 1.495 . S
C1514 C1513 1.392 . S
C1514 C1515 1.385 . S
C1514 C1516 1.478 . S
C1515 H1509 0.930 . S
C1515 C1511 1.400 1_556 S
C1515 C1514 1.385 . S
C1516 C1514 1.478 . S
C1516 C1518 1.381 . S
C1516 C1522 1.383 . S
C1517 C1513 1.495 . S
C1517 H1523 0.959 . S
C1517 H1524 0.961 . S
C1517 H1525 0.960 . S
C1518 C1516 1.381 . S
C1518 C1519 1.394 . S
C1518 H1526 0.930 . S
C1519 C1518 1.394 . S
C1519 C1520 1.383 . S
C1519 H1527 0.929 . S
C1520 C1519 1.383 . S
C1520 C1521 1.377 . S
C1521 H1505 0.930 . S
C1521 C1520 1.377 . S
C1521 C1522 1.379 . S
C1522 H1506 0.931 . S
C1522 C1516 1.383 . S
C1522 C1521 1.379 . S
H1523 C1517 0.959 . S
H1524 C1517 0.961 . S
H1525 C1517 0.960 . S
H1526 C1518 0.930 . S
H1527 C1519 0.929 . S
H1528 C1536 0.929 . S
H1529 C1538 0.930 . S
H1530 C1540 0.930 . S
H1531 C1543 0.929 . S
H1532 C1546 0.930 . S
H1533 C1548 0.960 . S
H1534 C1548 0.960 . S
H1535 C1548 0.960 . S
C1536 H1528 0.929 . S
C1536 C1537 1.377 . S
C1536 C1538 1.384 . S
C1537 C1536 1.377 . S
C1537 C1543 1.390 . S
C1538 H1529 0.930 . S
C1538 C1536 1.384 . S
C1538 C1539 1.372 . S
C1539 C1538 1.372 . S
C1539 C1540 1.400 . S
C1539 C1544 1.490 . S
C1540 H1530 0.930 . S
C1540 C1539 1.400 . S
C1540 C1543 1.386 . S
H1541 C1557 0.930 . S
H1542 C1558 0.931 . S
C1543 H1531 0.929 . S
C1543 C1537 1.390 . S
C1543 C1540 1.386 . S
C1544 C1539 1.490 . S
C1544 C1546 1.395 . S
C1544 C1547 1.403 . S
H1545 C1551 0.930 . S
C1546 H1532 0.930 . S
C1546 C1544 1.395 . S
C1546 C1549 1.403 1_554 S
C1547 C1544 1.403 . S
C1547 C1548 1.524 . S
C1547 C1551 1.400 1_554 S
C1548 H1533 0.960 . S
C1548 H1534 0.960 . S
C1548 H1535 0.960 . S
C1548 C1547 1.524 . S
C1549 C1546 1.403 1_556 S
C1549 C1550 1.392 . S
C1549 C1553 1.495 . S
C1550 C1549 1.392 . S
C1550 C1551 1.385 . S
C1550 C1552 1.478 . S
C1551 H1545 0.930 . S
C1551 C1547 1.400 1_556 S
C1551 C1550 1.385 . S
C1552 C1550 1.478 . S
C1552 C1554 1.381 . S
C1552 C1558 1.383 . S
C1553 C1549 1.495 . S
C1553 H1559 0.959 . S
C1553 H1560 0.961 . S
C1553 H1561 0.960 . S
C1554 C1552 1.381 . S
C1554 C1555 1.394 . S
C1554 H1562 0.930 . S
C1555 C1554 1.394 . S
C1555 C1556 1.383 . S
C1555 H1563 0.929 . S
C1556 C1555 1.383 . S
C1556 C1557 1.377 . S
C1557 H1541 0.930 . S
C1557 C1556 1.377 . S
C1557 C1558 1.379 . S
C1558 H1542 0.931 . S
C1558 C1552 1.383 . S
C1558 C1557 1.379 . S
H1559 C1553 0.959 . S
H1560 C1553 0.961 . S
H1561 C1553 0.960 . S
H1562 C1554 0.930 . S
H1563 C1555 0.929 . S
H1564 C1572 0.929 . S
H1565 C1574 0.930 . S
H1566 C1576 0.930 . S
H1567 C1579 0.929 . S
H1568 C1582 0.930 . S
H1569 C1584 0.960 . S
H1570 C1584 0.960 . S
H1571 C1584 0.960 . S
C1572 H1564 0.929 . S
C1572 C1573 1.377 . S
C1572 C1574 1.384 . S
C1573 C1572 1.377 . S
C1573 C1579 1.390 . S
C1574 H1565 0.930 . S
C1574 C1572 1.384 . S
C1574 C1575 1.372 . S
C1575 C1574 1.372 . S
C1575 C1576 1.400 . S
C1575 C1580 1.490 . S
C1576 H1566 0.930 . S
C1576 C1575 1.400 . S
C1576 C1579 1.386 . S
H1577 C1593 0.930 . S
H1578 C1594 0.931 . S
C1579 H1567 0.929 . S
C1579 C1573 1.390 . S
C1579 C1576 1.386 . S
C1580 C1575 1.490 . S
C1580 C1582 1.395 . S
C1580 C1583 1.403 . S
H1581 C1587 0.930 . S
C1582 H1568 0.930 . S
C1582 C1580 1.395 . S
C1582 C1585 1.403 1_556 S
C1583 C1580 1.403 . S
C1583 C1584 1.524 . S
C1583 C1587 1.400 1_556 S
C1584 H1569 0.960 . S
C1584 H1570 0.960 . S
C1584 H1571 0.960 . S
C1584 C1583 1.524 . S
C1585 C1582 1.403 1_554 S
C1585 C1586 1.392 . S
C1585 C1589 1.495 . S
C1586 C1585 1.392 . S
C1586 C1587 1.385 . S
C1586 C1588 1.478 . S
C1587 H1581 0.930 . S
C1587 C1583 1.400 1_554 S
C1587 C1586 1.385 . S
C1588 C1586 1.478 . S
C1588 C1590 1.381 . S
C1588 C1594 1.383 . S
C1589 C1585 1.495 . S
C1589 H1595 0.959 . S
C1589 H1596 0.961 . S
C1589 H1597 0.960 . S
C1590 C1588 1.381 . S
C1590 C1591 1.394 . S
C1590 H1598 0.930 . S
C1591 C1590 1.394 . S
C1591 C1592 1.383 . S
C1591 H1599 0.929 . S
C1592 C1591 1.383 . S
C1592 C1593 1.377 . S
C1593 H1577 0.930 . S
C1593 C1592 1.377 . S
C1593 C1594 1.379 . S
C1594 H1578 0.931 . S
C1594 C1588 1.383 . S
C1594 C1593 1.379 . S
H1595 C1589 0.959 . S
H1596 C1589 0.961 . S
H1597 C1589 0.960 . S
H1598 C1590 0.930 . S
H1599 C1591 0.929 . S
H1600 C1608 0.929 . S
H1601 C1610 0.930 . S
H1602 C1612 0.930 . S
H1603 C1615 0.929 . S
H1604 C1618 0.930 . S
H1605 C1620 0.960 . S
H1606 C1620 0.960 . S
H1607 C1620 0.960 . S
C1608 H1600 0.929 . S
C1608 C1609 1.377 . S
C1608 C1610 1.384 . S
C1609 C1608 1.377 . S
C1609 C1615 1.390 . S
C1610 H1601 0.930 . S
C1610 C1608 1.384 . S
C1610 C1611 1.372 . S
C1611 C1610 1.372 . S
C1611 C1612 1.400 . S
C1611 C1616 1.490 . S
C1612 H1602 0.930 . S
C1612 C1611 1.400 . S
C1612 C1615 1.386 . S
H1613 C1629 0.930 . S
H1614 C1630 0.931 . S
C1615 H1603 0.929 . S
C1615 C1609 1.390 . S
C1615 C1612 1.386 . S
C1616 C1611 1.490 . S
C1616 C1618 1.395 1_545 S
C1616 C1619 1.403 . S
H1617 C1623 0.930 . S
C1618 H1604 0.930 . S
C1618 C1616 1.395 1_565 S
C1618 C1621 1.403 . S
C1619 C1616 1.403 . S
C1619 C1620 1.524 . S
C1619 C1623 1.339 1_545 S
C1620 H1605 0.960 . S
C1620 H1606 0.960 . S
C1620 H1607 0.960 . S
C1620 C1619 1.524 . S
C1621 C1618 1.403 . S
C1621 C1622 1.392 . S
C1621 C1625 1.495 . S
C1622 C1621 1.392 . S
C1622 C1623 1.448 . S
C1622 C1624 1.478 . S
C1623 H1617 0.930 . S
C1623 C1619 1.339 1_565 S
C1623 C1622 1.448 . S
C1624 C1622 1.478 . S
C1624 C1626 1.381 . S
C1624 C1630 1.383 . S
C1625 C1621 1.495 . S
C1625 H1631 0.959 . S
C1625 H1632 0.961 . S
C1625 H1633 0.960 . S
C1626 C1624 1.381 . S
C1626 C1627 1.394 . S
C1626 H1634 0.930 . S
C1627 C1626 1.394 . S
C1627 C1628 1.383 . S
C1627 H1635 0.929 . S
C1628 C1627 1.383 . S
C1628 C1629 1.377 . S
C1629 H1613 0.930 . S
C1629 C1628 1.377 . S
C1629 C1630 1.379 . S
C1630 H1614 0.931 . S
C1630 C1624 1.383 . S
C1630 C1629 1.379 . S
H1631 C1625 0.959 . S
H1632 C1625 0.961 . S
H1633 C1625 0.960 . S
H1634 C1626 0.930 . S
H1635 C1627 0.929 . S
H1636 C1644 0.929 . S
H1637 C1646 0.930 . S
H1638 C1648 0.930 . S
H1639 C1651 0.929 . S
H1640 C1654 0.930 . S
H1641 C1656 0.960 . S
H1642 C1656 0.960 . S
H1643 C1656 0.960 1_655 S
C1644 H1636 0.929 . S
C1644 C1645 1.377 . S
C1644 C1646 1.384 . S
C1645 C1644 1.377 . S
C1645 C1651 1.390 . S
C1646 H1637 0.930 . S
C1646 C1644 1.384 . S
C1646 C1647 1.372 . S
C1647 C1646 1.372 . S
C1647 C1648 1.400 . S
C1647 C1652 1.490 . S
C1648 H1638 0.930 . S
C1648 C1647 1.400 . S
C1648 C1651 1.386 . S
H1649 C1665 0.930 . S
H1650 C1666 0.931 . S
C1651 H1639 0.929 . S
C1651 C1645 1.390 . S
C1651 C1648 1.386 . S
C1652 C1647 1.490 . S
C1652 C1654 1.395 . S
C1652 C1655 1.343 1_655 S
H1653 C1659 0.930 . S
C1654 H1640 0.930 . S
C1654 C1652 1.395 . S
C1654 C1657 1.403 . S
C1655 C1652 1.343 1_455 S
C1655 C1656 1.536 . S
C1655 C1659 1.453 . S
C1656 H1641 0.960 . S
C1656 H1642 0.960 . S
C1656 H1643 0.960 1_455 S
C1656 C1655 1.536 . S
C1657 C1654 1.403 . S
C1657 C1658 1.392 1_655 S
C1657 C1661 1.495 . S
C1658 C1657 1.392 1_455 S
C1658 C1659 1.385 . S
C1658 C1660 1.478 . S
C1659 H1653 0.930 . S
C1659 C1655 1.453 . S
C1659 C1658 1.385 . S
C1660 C1658 1.478 . S
C1660 C1662 1.381 . S
C1660 C1666 1.383 . S
C1661 C1657 1.495 . S
C1661 H1667 0.959 . S
C1661 H1668 0.961 . S
C1661 H1669 0.960 1_655 S
C1662 C1660 1.381 . S
C1662 C1663 1.394 . S
C1662 H1670 0.930 . S
C1663 C1662 1.394 . S
C1663 C1664 1.383 . S
C1663 H1671 0.929 . S
C1664 C1663 1.383 . S
C1664 C1665 1.377 . S
C1665 H1649 0.930 . S
C1665 C1664 1.377 . S
C1665 C1666 1.379 . S
C1666 H1650 0.931 . S
C1666 C1660 1.383 . S
C1666 C1665 1.379 . S
H1667 C1661 0.959 . S
H1668 C1661 0.961 . S
H1669 C1661 0.960 1_455 S
H1670 C1662 0.930 . S
H1671 C1663 0.929 . S
H1672 C1680 0.929 . S
H1673 C1682 0.930 . S
H1674 C1684 0.930 . S
H1675 C1687 0.929 . S
H1676 C1690 0.934 . S
H1677 C1692 0.960 . S
H1678 C1692 0.960 . S
H1679 C1692 0.960 . S
C1680 H1672 0.929 . S
C1680 C1681 1.377 . S
C1680 C1682 1.384 . S
C1681 C1680 1.377 . S
C1681 C1687 1.390 . S
C1682 H1673 0.930 . S
C1682 C1680 1.384 . S
C1682 C1683 1.372 . S
C1683 C1682 1.372 . S
C1683 C1684 1.400 . S
C1683 C1688 1.490 . S
C1684 H1674 0.930 . S
C1684 C1683 1.400 . S
C1684 C1687 1.386 . S
H1685 C1701 0.930 . S
H1686 C1702 0.931 . S
C1687 H1675 0.929 . S
C1687 C1681 1.390 . S
C1687 C1684 1.386 . S
C1688 C1683 1.490 . S
C1688 C1690 1.422 . S
C1688 C1691 1.403 . S
H1689 C1695 0.930 . S
C1690 H1676 0.934 . S
C1690 C1688 1.422 . S
C1690 C1693 1.373 1_545 S
C1691 C1688 1.403 . S
C1691 C1692 1.524 . S
C1691 C1695 1.400 1_545 S
C1692 H1677 0.960 . S
C1692 H1678 0.960 . S
C1692 H1679 0.960 . S
C1692 C1691 1.524 . S
C1693 C1690 1.373 1_565 S
C1693 C1694 1.392 . S
C1693 C1697 1.495 . S
C1694 C1693 1.392 . S
C1694 C1695 1.385 . S
C1694 C1696 1.478 . S
C1695 H1689 0.930 . S
C1695 C1691 1.400 1_565 S
C1695 C1694 1.385 . S
C1696 C1694 1.478 . S
C1696 C1698 1.381 . S
C1696 C1702 1.383 . S
C1697 C1693 1.495 . S
C1697 H1703 0.959 . S
C1697 H1704 0.961 . S
C1697 H1705 0.960 . S
C1698 C1696 1.381 . S
C1698 C1699 1.394 . S
C1698 H1706 0.930 . S
C1699 C1698 1.394 . S
C1699 C1700 1.383 . S
C1699 H1707 0.929 . S
C1700 C1699 1.383 . S
C1700 C1701 1.377 . S
C1701 H1685 0.930 . S
C1701 C1700 1.377 . S
C1701 C1702 1.379 . S
C1702 H1686 0.931 . S
C1702 C1696 1.383 . S
C1702 C1701 1.379 . S
H1703 C1697 0.959 . S
H1704 C1697 0.961 . S
H1705 C1697 0.960 . S
H1706 C1698 0.930 . S
H1707 C1699 0.929 . S
H1708 C1716 0.929 . S
H1709 C1718 0.930 . S
H1710 C1720 0.930 . S
H1711 C1723 0.929 . S
H1712 C1726 0.930 . S
H1713 C1728 0.960 . S
H1714 C1728 0.960 . S
H1715 C1728 0.960 . S
C1716 H1708 0.929 . S
C1716 C1717 1.377 . S
C1716 C1718 1.384 . S
C1717 C1716 1.377 . S
C1717 C1723 1.390 . S
C1718 H1709 0.930 . S
C1718 C1716 1.384 . S
C1718 C1719 1.372 . S
C1719 C1718 1.372 . S
C1719 C1720 1.400 . S
C1719 C1724 1.490 . S
C1720 H1710 0.930 . S
C1720 C1719 1.400 . S
C1720 C1723 1.386 . S
H1721 C1737 0.930 . S
H1722 C1738 0.931 . S
C1723 H1711 0.929 . S
C1723 C1717 1.390 . S
C1723 C1720 1.386 . S
C1724 C1719 1.490 . S
C1724 C1726 1.395 1_455 S
C1724 C1727 1.403 . S
H1725 C1731 0.930 . S
C1726 H1712 0.930 . S
C1726 C1724 1.395 1_655 S
C1726 C1729 1.403 . S
C1727 C1724 1.403 . S
C1727 C1728 1.524 . S
C1727 C1731 1.340 1_455 S
C1728 H1713 0.960 . S
C1728 H1714 0.960 . S
C1728 H1715 0.960 . S
C1728 C1727 1.524 . S
C1729 C1726 1.403 . S
C1729 C1730 1.392 . S
C1729 C1733 1.495 . S
C1730 C1729 1.392 . S
C1730 C1731 1.447 . S
C1730 C1732 1.478 . S
C1731 H1725 0.930 . S
C1731 C1727 1.340 1_655 S
C1731 C1730 1.447 . S
C1732 C1730 1.478 . S
C1732 C1734 1.381 . S
C1732 C1738 1.383 . S
C1733 C1729 1.495 . S
C1733 H1739 0.959 . S
C1733 H1740 0.961 . S
C1733 H1741 0.960 . S
C1734 C1732 1.381 . S
C1734 C1735 1.394 . S
C1734 H1742 0.930 . S
C1735 C1734 1.394 . S
C1735 C1736 1.383 . S
C1735 H1743 0.929 . S
C1736 C1735 1.383 . S
C1736 C1737 1.377 . S
C1737 H1721 0.930 . S
C1737 C1736 1.377 . S
C1737 C1738 1.379 . S
C1738 H1722 0.931 . S
C1738 C1732 1.383 . S
C1738 C1737 1.379 . S
H1739 C1733 0.959 . S
H1740 C1733 0.961 . S
H1741 C1733 0.960 . S
H1742 C1734 0.930 . S
H1743 C1735 0.929 . S
H1744 C1752 0.929 . S
H1745 C1754 0.930 . S
H1746 C1756 0.930 . S
H1747 C1759 0.929 . S
H1748 C1762 0.930 . S
H1749 C1764 0.960 1_545 S
H1750 C1764 0.960 . S
H1751 C1764 0.960 . S
C1752 H1744 0.929 . S
C1752 C1753 1.377 . S
C1752 C1754 1.384 . S
C1753 C1752 1.377 . S
C1753 C1759 1.390 . S
C1754 H1745 0.930 . S
C1754 C1752 1.384 . S
C1754 C1755 1.372 . S
C1755 C1754 1.372 . S
C1755 C1756 1.400 . S
C1755 C1760 1.490 . S
C1756 H1746 0.930 . S
C1756 C1755 1.400 . S
C1756 C1759 1.386 . S
H1757 C1773 0.930 . S
H1758 C1774 0.931 . S
C1759 H1747 0.929 . S
C1759 C1753 1.390 . S
C1759 C1756 1.386 . S
C1760 C1755 1.490 . S
C1760 C1762 1.395 . S
C1760 C1763 1.403 . S
H1761 C1767 0.930 . S
C1762 H1748 0.930 . S
C1762 C1760 1.395 . S
C1762 C1765 1.402 . S
C1763 C1760 1.403 . S
C1763 C1764 1.524 . S
C1763 C1767 1.400 1_565 S
C1764 H1749 0.960 1_565 S
C1764 H1750 0.960 . S
C1764 H1751 0.960 . S
C1764 C1763 1.524 . S
C1765 C1762 1.402 . S
C1765 C1766 1.394 1_565 S
C1765 C1769 1.495 1_565 S
C1766 C1765 1.394 1_545 S
C1766 C1767 1.385 . S
C1766 C1768 1.478 . S
C1767 H1761 0.930 . S
C1767 C1763 1.400 1_545 S
C1767 C1766 1.385 . S
C1768 C1766 1.478 . S
C1768 C1770 1.381 . S
C1768 C1774 1.383 . S
C1769 C1765 1.495 1_545 S
C1769 H1775 0.946 1_545 S
C1769 H1776 0.974 . S
C1769 H1777 0.961 . S
C1770 C1768 1.381 . S
C1770 C1771 1.394 . S
C1770 H1778 0.930 . S
C1771 C1770 1.394 . S
C1771 C1772 1.383 . S
C1771 H1779 0.929 . S
C1772 C1771 1.383 . S
C1772 C1773 1.377 . S
C1773 H1757 0.930 . S
C1773 C1772 1.377 . S
C1773 C1774 1.379 . S
C1774 H1758 0.931 . S
C1774 C1768 1.383 . S
C1774 C1773 1.379 . S
H1775 C1769 0.946 1_565 S
H1776 C1769 0.974 . S
H1777 C1769 0.961 . S
H1778 C1770 0.930 . S
H1779 C1771 0.929 . S
H1780 C1788 0.929 . S
H1781 C1790 0.930 . S
H1782 C1792 0.930 . S
H1783 C1795 0.929 . S
H1784 C1798 0.938 . S
H1785 C1800 0.960 . S
H1786 C1800 0.960 . S
H1787 C1800 0.960 . S
C1788 H1780 0.929 . S
C1788 C1789 1.377 . S
C1788 C1790 1.384 . S
C1789 C1788 1.377 . S
C1789 C1795 1.390 . S
C1790 H1781 0.930 . S
C1790 C1788 1.384 . S
C1790 C1791 1.372 . S
C1791 C1790 1.372 . S
C1791 C1792 1.400 . S
C1791 C1796 1.490 . S
C1792 H1782 0.930 . S
C1792 C1791 1.400 . S
C1792 C1795 1.386 . S
H1793 C1809 0.930 . S
H1794 C1810 0.931 . S
C1795 H1783 0.929 . S
C1795 C1789 1.390 . S
C1795 C1792 1.386 . S
C1796 C1791 1.490 . S
C1796 C1798 1.439 . S
C1796 C1799 1.403 . S
H1797 C1803 0.930 . S
C1798 H1784 0.938 . S
C1798 C1796 1.439 . S
C1798 C1801 1.354 1_655 S
C1799 C1796 1.403 . S
C1799 C1800 1.524 . S
C1799 C1803 1.400 1_655 S
C1800 H1785 0.960 . S
C1800 H1786 0.960 . S
C1800 H1787 0.960 . S
C1800 C1799 1.524 . S
C1801 C1798 1.354 1_455 S
C1801 C1802 1.392 . S
C1801 C1805 1.495 . S
C1802 C1801 1.392 . S
C1802 C1803 1.385 . S
C1802 C1804 1.478 . S
C1803 H1797 0.930 . S
C1803 C1799 1.400 1_455 S
C1803 C1802 1.385 . S
C1804 C1802 1.478 . S
C1804 C1806 1.381 . S
C1804 C1810 1.383 . S
C1805 C1801 1.495 . S
C1805 H1811 0.959 . S
C1805 H1812 0.961 . S
C1805 H1813 0.960 . S
C1806 C1804 1.381 . S
C1806 C1807 1.394 . S
C1806 H1814 0.930 . S
C1807 C1806 1.394 . S
C1807 C1808 1.383 . S
C1807 H1815 0.929 . S
C1808 C1807 1.383 . S
C1808 C1809 1.377 . S
C1809 H1793 0.930 . S
C1809 C1808 1.377 . S
C1809 C1810 1.379 . S
C1810 H1794 0.931 . S
C1810 C1804 1.383 . S
C1810 C1809 1.379 . S
H1811 C1805 0.959 . S
H1812 C1805 0.961 . S
H1813 C1805 0.960 . S
H1814 C1806 0.930 . S
H1815 C1807 0.929 . S
H1816 C1824 0.929 . S
H1817 C1826 0.930 . S
H1818 C1828 0.930 . S
H1819 C1831 0.929 . S
H1820 C1834 0.930 . S
H1821 C1836 0.960 . S
H1822 C1836 0.960 . S
H1823 C1836 0.960 1_565 S
C1824 H1816 0.929 . S
C1824 C1825 1.377 . S
C1824 C1826 1.384 . S
C1825 C1824 1.377 . S
C1825 C1831 1.390 . S
C1826 H1817 0.930 . S
C1826 C1824 1.384 . S
C1826 C1827 1.372 . S
C1827 C1826 1.372 . S
C1827 C1828 1.400 . S
C1827 C1832 1.490 . S
C1828 H1818 0.930 . S
C1828 C1827 1.400 . S
C1828 C1831 1.386 . S
H1829 C1845 0.930 . S
H1830 C1846 0.931 . S
C1831 H1819 0.929 . S
C1831 C1825 1.390 . S
C1831 C1828 1.386 . S
C1832 C1827 1.490 . S
C1832 C1834 1.395 . S
C1832 C1835 1.403 1_565 S
H1833 C1839 0.930 . S
C1834 H1820 0.930 . S
C1834 C1832 1.395 . S
C1834 C1837 1.403 . S
C1835 C1832 1.403 1_545 S
C1835 C1836 1.524 . S
C1835 C1839 1.400 . S
C1836 H1821 0.960 . S
C1836 H1822 0.960 . S
C1836 H1823 0.960 1_545 S
C1836 C1835 1.524 . S
C1837 C1834 1.403 . S
C1837 C1838 1.392 1_565 S
C1837 C1841 1.495 . S
C1838 C1837 1.392 1_545 S
C1838 C1839 1.385 . S
C1838 C1840 1.478 . S
C1839 H1833 0.930 . S
C1839 C1835 1.400 . S
C1839 C1838 1.385 . S
C1840 C1838 1.478 . S
C1840 C1842 1.381 . S
C1840 C1846 1.383 . S
C1841 C1837 1.495 . S
C1841 H1847 0.959 . S
C1841 H1848 0.961 . S
C1841 H1849 0.919 1_565 S
C1842 C1840 1.381 . S
C1842 C1843 1.394 . S
C1842 H1850 0.930 . S
C1843 C1842 1.394 . S
C1843 C1844 1.383 . S
C1843 H1851 0.929 . S
C1844 C1843 1.383 . S
C1844 C1845 1.377 . S
C1845 H1829 0.930 . S
C1845 C1844 1.377 . S
C1845 C1846 1.379 . S
C1846 H1830 0.931 . S
C1846 C1840 1.383 . S
C1846 C1845 1.379 . S
H1847 C1841 0.959 . S
H1848 C1841 0.961 . S
H1849 C1841 0.919 1_545 S
H1850 C1842 0.930 . S
H1851 C1843 0.929 . S
H1852 C1860 0.929 . S
H1853 C1862 0.930 . S
H1854 C1864 0.930 . S
H1855 C1867 0.929 . S
H1856 C1870 0.930 . S
H1857 C1872 0.960 . S
H1858 C1872 0.960 1_655 S
H1859 C1872 0.960 1_655 S
C1860 H1852 0.929 . S
C1860 C1861 1.377 . S
C1860 C1862 1.384 . S
C1861 C1860 1.377 . S
C1861 C1867 1.390 . S
C1862 H1853 0.930 . S
C1862 C1860 1.384 . S
C1862 C1863 1.372 . S
C1863 C1862 1.372 . S
C1863 C1864 1.400 . S
C1863 C1868 1.490 . S
C1864 H1854 0.930 . S
C1864 C1863 1.400 . S
C1864 C1867 1.386 . S
H1865 C1881 0.930 . S
H1866 C1882 0.931 . S
C1867 H1855 0.929 . S
C1867 C1861 1.390 . S
C1867 C1864 1.386 . S
C1868 C1863 1.490 . S
C1868 C1870 1.395 . S
C1868 C1871 1.405 1_655 S
H1869 C1875 0.930 . S
C1870 H1856 0.930 . S
C1870 C1868 1.395 . S
C1870 C1873 1.403 . S
C1871 C1868 1.405 1_455 S
C1871 C1872 1.523 . S
C1871 C1875 1.398 . S
C1872 H1857 0.960 . S
C1872 H1858 0.960 1_455 S
C1872 H1859 0.960 1_455 S
C1872 C1871 1.523 . S
C1873 C1870 1.403 . S
C1873 C1874 1.392 1_655 S
C1873 C1877 1.495 . S
C1874 C1873 1.392 1_455 S
C1874 C1875 1.385 . S
C1874 C1876 1.478 . S
C1875 H1869 0.930 . S
C1875 C1871 1.398 . S
C1875 C1874 1.385 . S
C1876 C1874 1.478 . S
C1876 C1878 1.381 . S
C1876 C1882 1.383 . S
C1877 C1873 1.495 . S
C1877 H1883 0.959 . S
C1877 H1884 0.961 1_655 S
C1877 H1885 0.960 . S
C1878 C1876 1.381 . S
C1878 C1879 1.394 . S
C1878 H1886 0.930 . S
C1879 C1878 1.394 . S
C1879 C1880 1.383 . S
C1879 H1887 0.929 . S
C1880 C1879 1.383 . S
C1880 C1881 1.377 . S
C1881 H1865 0.930 . S
C1881 C1880 1.377 . S
C1881 C1882 1.379 . S
C1882 H1866 0.931 . S
C1882 C1876 1.383 . S
C1882 C1881 1.379 . S
H1883 C1877 0.959 . S
H1884 C1877 0.961 1_455 S
H1885 C1877 0.960 . S
H1886 C1878 0.930 . S
H1887 C1879 0.929 . S
H1888 C1896 0.929 . S
H1889 C1898 0.930 . S
H1890 C1900 0.930 . S
H1891 C1903 0.929 . S
H1892 C1906 0.930 . S
H1893 C1908 0.960 . S
H1894 C1908 0.960 . S
H1895 C1908 0.960 . S
C1896 H1888 0.929 . S
C1896 C1897 1.377 . S
C1896 C1898 1.384 . S
C1897 C1896 1.377 . S
C1897 C1903 1.390 . S
C1898 H1889 0.930 . S
C1898 C1896 1.384 . S
C1898 C1899 1.372 . S
C1899 C1898 1.372 . S
C1899 C1900 1.400 . S
C1899 C1904 1.490 . S
C1900 H1890 0.930 . S
C1900 C1899 1.400 . S
C1900 C1903 1.386 . S
H1901 C1917 0.930 . S
H1902 C1918 0.931 . S
C1903 H1891 0.929 . S
C1903 C1897 1.390 . S
C1903 C1900 1.386 . S
C1904 C1899 1.490 . S
C1904 C1906 1.395 . S
C1904 C1907 1.403 . S
H1905 C1911 0.930 . S
C1906 H1892 0.930 . S
C1906 C1904 1.395 . S
C1906 C1909 1.403 . S
C1907 C1904 1.403 . S
C1907 C1908 1.524 . S
C1907 C1911 1.400 . S
C1908 H1893 0.960 . S
C1908 H1894 0.960 . S
C1908 H1895 0.960 . S
C1908 C1907 1.524 . S
C1909 C1906 1.403 . S
C1909 C1910 1.392 . S
C1909 C1913 1.495 . S
C1910 C1909 1.392 . S
C1910 C1911 1.385 . S
C1910 C1912 1.478 . S
C1911 H1905 0.930 . S
C1911 C1907 1.400 . S
C1911 C1910 1.385 . S
C1912 C1910 1.478 . S
C1912 C1914 1.381 . S
C1912 C1918 1.383 . S
C1913 C1909 1.495 . S
C1913 H1919 0.959 . S
C1913 H1920 0.961 . S
C1913 H1921 0.960 . S
C1914 C1912 1.381 . S
C1914 C1915 1.394 . S
C1914 H1922 0.930 . S
C1915 C1914 1.394 . S
C1915 C1916 1.383 . S
C1915 H1923 0.929 . S
C1916 C1915 1.383 . S
C1916 C1917 1.377 . S
C1917 H1901 0.930 . S
C1917 C1916 1.377 . S
C1917 C1918 1.379 . S
C1918 H1902 0.931 . S
C1918 C1912 1.383 . S
C1918 C1917 1.379 . S
H1919 C1913 0.959 . S
H1920 C1913 0.961 . S
H1921 C1913 0.960 . S
H1922 C1914 0.930 . S
H1923 C1915 0.929 . S
H1924 C1932 0.929 . S
H1925 C1934 0.930 . S
H1926 C1936 0.930 . S
H1927 C1939 0.929 . S
H1928 C1942 0.930 . S
H1929 C1944 0.960 . S
H1930 C1944 0.960 . S
H1931 C1944 0.960 . S
C1932 H1924 0.929 . S
C1932 C1933 1.377 . S
C1932 C1934 1.384 . S
C1933 C1932 1.377 . S
C1933 C1939 1.390 . S
C1934 H1925 0.930 . S
C1934 C1932 1.384 . S
C1934 C1935 1.372 . S
C1935 C1934 1.372 . S
C1935 C1936 1.400 . S
C1935 C1940 1.490 . S
C1936 H1926 0.930 . S
C1936 C1935 1.400 . S
C1936 C1939 1.386 . S
H1937 C1953 0.930 . S
H1938 C1954 0.931 . S
C1939 H1927 0.929 . S
C1939 C1933 1.390 . S
C1939 C1936 1.386 . S
C1940 C1935 1.490 . S
C1940 C1942 1.395 . S
C1940 C1943 1.403 . S
H1941 C1947 0.930 . S
C1942 H1928 0.930 . S
C1942 C1940 1.395 . S
C1942 C1945 1.403 . S
C1943 C1940 1.403 . S
C1943 C1944 1.524 . S
C1943 C1947 1.400 . S
C1944 H1929 0.960 . S
C1944 H1930 0.960 . S
C1944 H1931 0.960 . S
C1944 C1943 1.524 . S
C1945 C1942 1.403 . S
C1945 C1946 1.392 . S
C1945 C1949 1.495 . S
C1946 C1945 1.392 . S
C1946 C1947 1.385 . S
C1946 C1948 1.478 . S
C1947 H1941 0.930 . S
C1947 C1943 1.400 . S
C1947 C1946 1.385 . S
C1948 C1946 1.478 . S
C1948 C1950 1.381 . S
C1948 C1954 1.383 . S
C1949 C1945 1.495 . S
C1949 H1955 0.959 . S
C1949 H1956 0.961 . S
C1949 H1957 0.960 . S
C1950 C1948 1.381 . S
C1950 C1951 1.394 . S
C1950 H1958 0.930 . S
C1951 C1950 1.394 . S
C1951 C1952 1.383 . S
C1951 H1959 0.929 . S
C1952 C1951 1.383 . S
C1952 C1953 1.377 . S
C1953 H1937 0.930 . S
C1953 C1952 1.377 . S
C1953 C1954 1.379 . S
C1954 H1938 0.931 . S
C1954 C1948 1.383 . S
C1954 C1953 1.379 . S
H1955 C1949 0.959 . S
H1956 C1949 0.961 . S
H1957 C1949 0.960 . S
H1958 C1950 0.930 . S
H1959 C1951 0.929 . S
H1960 C1968 0.929 . S
H1961 C1970 0.930 . S
H1962 C1972 0.930 . S
H1963 C1975 0.929 . S
H1964 C1978 0.930 . S
H1965 C1980 0.960 . S
H1966 C1980 0.960 . S
H1967 C1980 0.960 . S
C1968 H1960 0.929 . S
C1968 C1969 1.377 . S
C1968 C1970 1.384 . S
C1969 C1968 1.377 . S
C1969 C1975 1.390 . S
C1970 H1961 0.930 . S
C1970 C1968 1.384 . S
C1970 C1971 1.372 . S
C1971 C1970 1.372 . S
C1971 C1972 1.400 . S
C1971 C1976 1.490 . S
C1972 H1962 0.930 . S
C1972 C1971 1.400 . S
C1972 C1975 1.386 . S
H1973 C1989 0.930 . S
H1974 C1990 0.931 . S
C1975 H1963 0.929 . S
C1975 C1969 1.390 . S
C1975 C1972 1.386 . S
C1976 C1971 1.490 . S
C1976 C1978 1.395 . S
C1976 C1979 1.403 . S
H1977 C1983 0.930 . S
C1978 H1964 0.930 . S
C1978 C1976 1.395 . S
C1978 C1981 1.403 . S
C1979 C1976 1.403 . S
C1979 C1980 1.524 . S
C1979 C1983 1.400 . S
C1980 H1965 0.960 . S
C1980 H1966 0.960 . S
C1980 H1967 0.960 . S
C1980 C1979 1.524 . S
C1981 C1978 1.403 . S
C1981 C1982 1.392 . S
C1981 C1985 1.495 . S
C1982 C1981 1.392 . S
C1982 C1983 1.385 . S
C1982 C1984 1.478 . S
C1983 H1977 0.930 . S
C1983 C1979 1.400 . S
C1983 C1982 1.385 . S
C1984 C1982 1.478 . S
C1984 C1986 1.381 . S
C1984 C1990 1.383 . S
C1985 C1981 1.495 . S
C1985 H1991 0.959 . S
C1985 H1992 0.961 . S
C1985 H1993 0.960 . S
C1986 C1984 1.381 . S
C1986 C1987 1.394 . S
C1986 H1994 0.930 . S
C1987 C1986 1.394 . S
C1987 C1988 1.383 . S
C1987 H1995 0.929 . S
C1988 C1987 1.383 . S
C1988 C1989 1.377 . S
C1989 H1973 0.930 . S
C1989 C1988 1.377 . S
C1989 C1990 1.379 . S
C1990 H1974 0.931 . S
C1990 C1984 1.383 . S
C1990 C1989 1.379 . S
H1991 C1985 0.959 . S
H1992 C1985 0.961 . S
H1993 C1985 0.960 . S
H1994 C1986 0.930 . S
H1995 C1987 0.929 . S
H1996 C2004 0.929 . S
H1997 C2006 0.930 . S
H1998 C2008 0.930 . S
H1999 C2011 0.929 . S
H2000 C2014 0.930 . S
H2001 C2016 0.960 . S
H2002 C2016 0.960 . S
H2003 C2016 0.960 . S
C2004 H1996 0.929 . S
C2004 C2005 1.377 . S
C2004 C2006 1.384 . S
C2005 C2004 1.377 . S
C2005 C2011 1.390 . S
C2006 H1997 0.930 . S
C2006 C2004 1.384 . S
C2006 C2007 1.372 . S
C2007 C2006 1.372 . S
C2007 C2008 1.400 . S
C2007 C2012 1.490 . S
C2008 H1998 0.930 . S
C2008 C2007 1.400 . S
C2008 C2011 1.386 . S
H2009 C2025 0.930 . S
H2010 C2026 0.931 . S
C2011 H1999 0.929 . S
C2011 C2005 1.390 . S
C2011 C2008 1.386 . S
C2012 C2007 1.490 . S
C2012 C2014 1.395 . S
C2012 C2015 1.403 . S
H2013 C2019 0.930 . S
C2014 H2000 0.930 . S
C2014 C2012 1.395 . S
C2014 C2017 1.403 . S
C2015 C2012 1.403 . S
C2015 C2016 1.524 . S
C2015 C2019 1.400 . S
C2016 H2001 0.960 . S
C2016 H2002 0.960 . S
C2016 H2003 0.960 . S
C2016 C2015 1.524 . S
C2017 C2014 1.403 . S
C2017 C2018 1.392 . S
C2017 C2021 1.495 . S
C2018 C2017 1.392 . S
C2018 C2019 1.385 . S
C2018 C2020 1.478 . S
C2019 H2013 0.930 . S
C2019 C2015 1.400 . S
C2019 C2018 1.385 . S
C2020 C2018 1.478 . S
C2020 C2022 1.381 . S
C2020 C2026 1.383 . S
C2021 C2017 1.495 . S
C2021 H2027 0.959 . S
C2021 H2028 0.961 . S
C2021 H2029 0.960 . S
C2022 C2020 1.381 . S
C2022 C2023 1.394 . S
C2022 H2030 0.930 . S
C2023 C2022 1.394 . S
C2023 C2024 1.383 . S
C2023 H2031 0.929 . S
C2024 C2023 1.383 . S
C2024 C2025 1.377 . S
C2025 H2009 0.930 . S
C2025 C2024 1.377 . S
C2025 C2026 1.379 . S
C2026 H2010 0.931 . S
C2026 C2020 1.383 . S
C2026 C2025 1.379 . S
H2027 C2021 0.959 . S
H2028 C2021 0.961 . S
H2029 C2021 0.960 . S
H2030 C2022 0.930 . S
H2031 C2023 0.929 . S
H2032 C2040 0.929 . S
H2033 C2042 0.930 . S
H2034 C2044 0.930 . S
H2035 C2047 0.929 . S
H2036 C2050 0.930 . S
H2037 C2052 0.960 . S
H2038 C2052 0.960 . S
H2039 C2052 0.960 . S
C2040 H2032 0.929 . S
C2040 C2041 1.377 . S
C2040 C2042 1.384 . S
C2041 C2040 1.377 . S
C2041 C2047 1.390 . S
C2042 H2033 0.930 . S
C2042 C2040 1.384 . S
C2042 C2043 1.372 . S
C2043 C2042 1.372 . S
C2043 C2044 1.400 . S
C2043 C2048 1.490 . S
C2044 H2034 0.930 . S
C2044 C2043 1.400 . S
C2044 C2047 1.386 . S
H2045 C2061 0.930 . S
H2046 C2062 0.931 . S
C2047 H2035 0.929 . S
C2047 C2041 1.390 . S
C2047 C2044 1.386 . S
C2048 C2043 1.490 . S
C2048 C2050 1.395 . S
C2048 C2051 1.403 . S
H2049 C2055 0.930 . S
C2050 H2036 0.930 . S
C2050 C2048 1.395 . S
C2050 C2053 1.403 . S
C2051 C2048 1.403 . S
C2051 C2052 1.524 . S
C2051 C2055 1.400 . S
C2052 H2037 0.960 . S
C2052 H2038 0.960 . S
C2052 H2039 0.960 . S
C2052 C2051 1.524 . S
C2053 C2050 1.403 . S
C2053 C2054 1.392 . S
C2053 C2057 1.495 . S
C2054 C2053 1.392 . S
C2054 C2055 1.385 . S
C2054 C2056 1.478 . S
C2055 H2049 0.930 . S
C2055 C2051 1.400 . S
C2055 C2054 1.385 . S
C2056 C2054 1.478 . S
C2056 C2058 1.381 . S
C2056 C2062 1.383 . S
C2057 C2053 1.495 . S
C2057 H2063 0.959 . S
C2057 H2064 0.961 . S
C2057 H2065 0.960 . S
C2058 C2056 1.381 . S
C2058 C2059 1.394 . S
C2058 H2066 0.930 . S
C2059 C2058 1.394 . S
C2059 C2060 1.383 . S
C2059 H2067 0.929 . S
C2060 C2059 1.383 . S
C2060 C2061 1.377 . S
C2061 H2045 0.930 . S
C2061 C2060 1.377 . S
C2061 C2062 1.379 . S
C2062 H2046 0.931 . S
C2062 C2056 1.383 . S
C2062 C2061 1.379 . S
H2063 C2057 0.959 . S
H2064 C2057 0.961 . S
H2065 C2057 0.960 . S
H2066 C2058 0.930 . S
H2067 C2059 0.929 . S
H2068 C2076 0.929 . S
H2069 C2078 0.930 . S
H2070 C2080 0.930 . S
H2071 C2083 0.929 . S
H2072 C2086 0.930 . S
H2073 C2088 0.960 . S
H2074 C2088 0.960 . S
H2075 C2088 0.960 . S
C2076 H2068 0.929 . S
C2076 C2077 1.377 . S
C2076 C2078 1.384 . S
C2077 C2076 1.377 . S
C2077 C2083 1.390 . S
C2078 H2069 0.930 . S
C2078 C2076 1.384 . S
C2078 C2079 1.372 . S
C2079 C2078 1.372 . S
C2079 C2080 1.400 . S
C2079 C2084 1.490 . S
C2080 H2070 0.930 . S
C2080 C2079 1.400 . S
C2080 C2083 1.386 . S
H2081 C2097 0.930 . S
H2082 C2098 0.931 . S
C2083 H2071 0.929 . S
C2083 C2077 1.390 . S
C2083 C2080 1.386 . S
C2084 C2079 1.490 . S
C2084 C2086 1.395 . S
C2084 C2087 1.403 . S
H2085 C2091 0.930 . S
C2086 H2072 0.930 . S
C2086 C2084 1.395 . S
C2086 C2089 1.403 . S
C2087 C2084 1.403 . S
C2087 C2088 1.524 . S
C2087 C2091 1.400 . S
C2088 H2073 0.960 . S
C2088 H2074 0.960 . S
C2088 H2075 0.960 . S
C2088 C2087 1.524 . S
C2089 C2086 1.403 . S
C2089 C2090 1.392 . S
C2089 C2093 1.495 . S
C2090 C2089 1.392 . S
C2090 C2091 1.385 . S
C2090 C2092 1.478 . S
C2091 H2085 0.930 . S
C2091 C2087 1.400 . S
C2091 C2090 1.385 . S
C2092 C2090 1.478 . S
C2092 C2094 1.381 . S
C2092 C2098 1.383 . S
C2093 C2089 1.495 . S
C2093 H2099 0.959 . S
C2093 H2100 0.961 . S
C2093 H2101 0.960 . S
C2094 C2092 1.381 . S
C2094 C2095 1.394 . S
C2094 H2102 0.930 . S
C2095 C2094 1.394 . S
C2095 C2096 1.383 . S
C2095 H2103 0.929 . S
C2096 C2095 1.383 . S
C2096 C2097 1.377 . S
C2097 H2081 0.930 . S
C2097 C2096 1.377 . S
C2097 C2098 1.379 . S
C2098 H2082 0.931 . S
C2098 C2092 1.383 . S
C2098 C2097 1.379 . S
H2099 C2093 0.959 . S
H2100 C2093 0.961 . S
H2101 C2093 0.960 . S
H2102 C2094 0.930 . S
H2103 C2095 0.929 . S
H2104 C2112 0.929 . S
H2105 C2114 0.930 . S
H2106 C2116 0.930 . S
H2107 C2119 0.929 . S
H2108 C2122 0.930 . S
H2109 C2124 0.960 . S
H2110 C2124 0.960 . S
H2111 C2124 0.960 . S
C2112 H2104 0.929 . S
C2112 C2113 1.377 . S
C2112 C2114 1.384 . S
C2113 C2112 1.377 . S
C2113 C2119 1.390 . S
C2114 H2105 0.930 . S
C2114 C2112 1.384 . S
C2114 C2115 1.372 . S
C2115 C2114 1.372 . S
C2115 C2116 1.400 . S
C2115 C2120 1.490 . S
C2116 H2106 0.930 . S
C2116 C2115 1.400 . S
C2116 C2119 1.386 . S
H2117 C2133 0.930 . S
H2118 C2134 0.931 . S
C2119 H2107 0.929 . S
C2119 C2113 1.390 . S
C2119 C2116 1.386 . S
C2120 C2115 1.490 . S
C2120 C2122 1.395 . S
C2120 C2123 1.403 . S
H2121 C2127 0.930 . S
C2122 H2108 0.930 . S
C2122 C2120 1.395 . S
C2122 C2125 1.403 . S
C2123 C2120 1.403 . S
C2123 C2124 1.524 . S
C2123 C2127 1.400 . S
C2124 H2109 0.960 . S
C2124 H2110 0.960 . S
C2124 H2111 0.960 . S
C2124 C2123 1.524 . S
C2125 C2122 1.403 . S
C2125 C2126 1.392 . S
C2125 C2129 1.495 . S
C2126 C2125 1.392 . S
C2126 C2127 1.385 . S
C2126 C2128 1.478 . S
C2127 H2121 0.930 . S
C2127 C2123 1.400 . S
C2127 C2126 1.385 . S
C2128 C2126 1.478 . S
C2128 C2130 1.381 . S
C2128 C2134 1.383 . S
C2129 C2125 1.495 . S
C2129 H2135 0.959 . S
C2129 H2136 0.961 . S
C2129 H2137 0.960 . S
C2130 C2128 1.381 . S
C2130 C2131 1.394 . S
C2130 H2138 0.930 . S
C2131 C2130 1.394 . S
C2131 C2132 1.383 . S
C2131 H2139 0.929 . S
C2132 C2131 1.383 . S
C2132 C2133 1.377 . S
C2133 H2117 0.930 . S
C2133 C2132 1.377 . S
C2133 C2134 1.379 . S
C2134 H2118 0.931 . S
C2134 C2128 1.383 . S
C2134 C2133 1.379 . S
H2135 C2129 0.959 . S
H2136 C2129 0.961 . S
H2137 C2129 0.960 . S
H2138 C2130 0.930 . S
H2139 C2131 0.929 . S
H2140 C2148 0.929 . S
H2141 C2150 0.930 . S
H2142 C2152 0.930 . S
H2143 C2155 0.929 . S
H2144 C2158 0.930 . S
H2145 C2160 0.960 . S
H2146 C2160 0.960 . S
H2147 C2160 0.960 . S
C2148 H2140 0.929 . S
C2148 C2149 1.377 . S
C2148 C2150 1.384 . S
C2149 C2148 1.377 . S
C2149 C2155 1.390 . S
C2150 H2141 0.930 . S
C2150 C2148 1.384 . S
C2150 C2151 1.372 . S
C2151 C2150 1.372 . S
C2151 C2152 1.400 . S
C2151 C2156 1.490 . S
C2152 H2142 0.930 . S
C2152 C2151 1.400 . S
C2152 C2155 1.386 . S
H2153 C2169 0.930 . S
H2154 C2170 0.931 . S
C2155 H2143 0.929 . S
C2155 C2149 1.390 . S
C2155 C2152 1.386 . S
C2156 C2151 1.490 . S
C2156 C2158 1.395 . S
C2156 C2159 1.403 . S
H2157 C2163 0.930 . S
C2158 H2144 0.930 . S
C2158 C2156 1.395 . S
C2158 C2161 1.403 . S
C2159 C2156 1.403 . S
C2159 C2160 1.524 . S
C2159 C2163 1.400 . S
C2160 H2145 0.960 . S
C2160 H2146 0.960 . S
C2160 H2147 0.960 . S
C2160 C2159 1.524 . S
C2161 C2158 1.403 . S
C2161 C2162 1.392 . S
C2161 C2165 1.495 . S
C2162 C2161 1.392 . S
C2162 C2163 1.385 . S
C2162 C2164 1.478 . S
C2163 H2157 0.930 . S
C2163 C2159 1.400 . S
C2163 C2162 1.385 . S
C2164 C2162 1.478 . S
C2164 C2166 1.381 . S
C2164 C2170 1.383 . S
C2165 C2161 1.495 . S
C2165 H2171 0.959 . S
C2165 H2172 0.961 . S
C2165 H2173 0.960 . S
C2166 C2164 1.381 . S
C2166 C2167 1.394 . S
C2166 H2174 0.930 . S
C2167 C2166 1.394 . S
C2167 C2168 1.383 . S
C2167 H2175 0.929 . S
C2168 C2167 1.383 . S
C2168 C2169 1.377 . S
C2169 H2153 0.930 . S
C2169 C2168 1.377 . S
C2169 C2170 1.379 . S
C2170 H2154 0.931 . S
C2170 C2164 1.383 . S
C2170 C2169 1.379 . S
H2171 C2165 0.959 . S
H2172 C2165 0.961 . S
H2173 C2165 0.960 . S
H2174 C2166 0.930 . S
H2175 C2167 0.929 . S
H2176 C2184 0.929 . S
H2177 C2186 0.930 . S
H2178 C2188 0.930 . S
H2179 C2191 0.929 . S
H2180 C2194 0.930 . S
H2181 C2196 0.960 . S
H2182 C2196 0.960 . S
H2183 C2196 0.960 . S
C2184 H2176 0.929 . S
C2184 C2185 1.377 . S
C2184 C2186 1.384 . S
C2185 C2184 1.377 . S
C2185 C2191 1.390 . S
C2186 H2177 0.930 . S
C2186 C2184 1.384 . S
C2186 C2187 1.372 . S
C2187 C2186 1.372 . S
C2187 C2188 1.400 . S
C2187 C2192 1.490 . S
C2188 H2178 0.930 . S
C2188 C2187 1.400 . S
C2188 C2191 1.386 . S
H2189 C2205 0.930 . S
H2190 C2206 0.931 . S
C2191 H2179 0.929 . S
C2191 C2185 1.390 . S
C2191 C2188 1.386 . S
C2192 C2187 1.490 . S
C2192 C2194 1.395 . S
C2192 C2195 1.403 . S
H2193 C2199 0.930 . S
C2194 H2180 0.930 . S
C2194 C2192 1.395 . S
C2194 C2197 1.403 . S
C2195 C2192 1.403 . S
C2195 C2196 1.524 . S
C2195 C2199 1.400 . S
C2196 H2181 0.960 . S
C2196 H2182 0.960 . S
C2196 H2183 0.960 . S
C2196 C2195 1.524 . S
C2197 C2194 1.403 . S
C2197 C2198 1.392 . S
C2197 C2201 1.495 . S
C2198 C2197 1.392 . S
C2198 C2199 1.385 . S
C2198 C2200 1.478 . S
C2199 H2193 0.930 . S
C2199 C2195 1.400 . S
C2199 C2198 1.385 . S
C2200 C2198 1.478 . S
C2200 C2202 1.381 . S
C2200 C2206 1.383 . S
C2201 C2197 1.495 . S
C2201 H2207 0.959 . S
C2201 H2208 0.961 . S
C2201 H2209 0.960 . S
C2202 C2200 1.381 . S
C2202 C2203 1.394 . S
C2202 H2210 0.930 . S
C2203 C2202 1.394 . S
C2203 C2204 1.383 . S
C2203 H2211 0.929 . S
C2204 C2203 1.383 . S
C2204 C2205 1.377 . S
C2205 H2189 0.930 . S
C2205 C2204 1.377 . S
C2205 C2206 1.379 . S
C2206 H2190 0.931 . S
C2206 C2200 1.383 . S
C2206 C2205 1.379 . S
H2207 C2201 0.959 . S
H2208 C2201 0.961 . S
H2209 C2201 0.960 . S
H2210 C2202 0.930 . S
H2211 C2203 0.929 . S
H2212 C2220 0.929 . S
H2213 C2222 0.930 . S
H2214 C2224 0.930 . S
H2215 C2227 0.929 . S
H2216 C2230 0.930 . S
H2217 C2232 0.960 . S
H2218 C2232 0.960 . S
H2219 C2232 0.960 . S
C2220 H2212 0.929 . S
C2220 C2221 1.377 . S
C2220 C2222 1.384 . S
C2221 C2220 1.377 . S
C2221 C2227 1.390 . S
C2222 H2213 0.930 . S
C2222 C2220 1.384 . S
C2222 C2223 1.372 . S
C2223 C2222 1.372 . S
C2223 C2224 1.400 . S
C2223 C2228 1.490 . S
C2224 H2214 0.930 . S
C2224 C2223 1.400 . S
C2224 C2227 1.386 . S
H2225 C2241 0.930 . S
H2226 C2242 0.931 . S
C2227 H2215 0.929 . S
C2227 C2221 1.390 . S
C2227 C2224 1.386 . S
C2228 C2223 1.490 . S
C2228 C2230 1.395 . S
C2228 C2231 1.403 . S
H2229 C2235 0.930 . S
C2230 H2216 0.930 . S
C2230 C2228 1.395 . S
C2230 C2233 1.403 . S
C2231 C2228 1.403 . S
C2231 C2232 1.524 . S
C2231 C2235 1.400 . S
C2232 H2217 0.960 . S
C2232 H2218 0.960 . S
C2232 H2219 0.960 . S
C2232 C2231 1.524 . S
C2233 C2230 1.403 . S
C2233 C2234 1.392 . S
C2233 C2237 1.495 . S
C2234 C2233 1.392 . S
C2234 C2235 1.385 . S
C2234 C2236 1.478 . S
C2235 H2229 0.930 . S
C2235 C2231 1.400 . S
C2235 C2234 1.385 . S
C2236 C2234 1.478 . S
C2236 C2238 1.381 . S
C2236 C2242 1.383 . S
C2237 C2233 1.495 . S
C2237 H2243 0.959 . S
C2237 H2244 0.961 . S
C2237 H2245 0.960 . S
C2238 C2236 1.381 . S
C2238 C2239 1.394 . S
C2238 H2246 0.930 . S
C2239 C2238 1.394 . S
C2239 C2240 1.383 . S
C2239 H2247 0.929 . S
C2240 C2239 1.383 . S
C2240 C2241 1.377 . S
C2241 H2225 0.930 . S
C2241 C2240 1.377 . S
C2241 C2242 1.379 . S
C2242 H2226 0.931 . S
C2242 C2236 1.383 . S
C2242 C2241 1.379 . S
H2243 C2237 0.959 . S
H2244 C2237 0.961 . S
H2245 C2237 0.960 . S
H2246 C2238 0.930 . S
H2247 C2239 0.929 . S
H2248 C2256 0.929 . S
H2249 C2258 0.930 . S
H2250 C2260 0.930 . S
H2251 C2263 0.929 . S
H2252 C2266 0.930 . S
H2253 C2268 0.960 . S
H2254 C2268 0.960 . S
H2255 C2268 0.960 . S
C2256 H2248 0.929 . S
C2256 C2257 1.377 . S
C2256 C2258 1.384 . S
C2257 C2256 1.377 . S
C2257 C2263 1.390 . S
C2258 H2249 0.930 . S
C2258 C2256 1.384 . S
C2258 C2259 1.372 . S
C2259 C2258 1.372 . S
C2259 C2260 1.400 . S
C2259 C2264 1.490 . S
C2260 H2250 0.930 . S
C2260 C2259 1.400 . S
C2260 C2263 1.386 . S
H2261 C2277 0.930 . S
H2262 C2278 0.931 . S
C2263 H2251 0.929 . S
C2263 C2257 1.390 . S
C2263 C2260 1.386 . S
C2264 C2259 1.490 . S
C2264 C2266 1.395 . S
C2264 C2267 1.403 . S
H2265 C2271 0.930 . S
C2266 H2252 0.930 . S
C2266 C2264 1.395 . S
C2266 C2269 1.403 . S
C2267 C2264 1.403 . S
C2267 C2268 1.524 . S
C2267 C2271 1.400 . S
C2268 H2253 0.960 . S
C2268 H2254 0.960 . S
C2268 H2255 0.960 . S
C2268 C2267 1.524 . S
C2269 C2266 1.403 . S
C2269 C2270 1.392 . S
C2269 C2273 1.495 . S
C2270 C2269 1.392 . S
C2270 C2271 1.385 . S
C2270 C2272 1.478 . S
C2271 H2265 0.930 . S
C2271 C2267 1.400 . S
C2271 C2270 1.385 . S
C2272 C2270 1.478 . S
C2272 C2274 1.381 . S
C2272 C2278 1.383 . S
C2273 C2269 1.495 . S
C2273 H2279 0.959 . S
C2273 H2280 0.961 . S
C2273 H2281 0.960 . S
C2274 C2272 1.381 . S
C2274 C2275 1.394 . S
C2274 H2282 0.930 . S
C2275 C2274 1.394 . S
C2275 C2276 1.383 . S
C2275 H2283 0.929 . S
C2276 C2275 1.383 . S
C2276 C2277 1.377 . S
C2277 H2261 0.930 . S
C2277 C2276 1.377 . S
C2277 C2278 1.379 . S
C2278 H2262 0.931 . S
C2278 C2272 1.383 . S
C2278 C2277 1.379 . S
H2279 C2273 0.959 . S
H2280 C2273 0.961 . S
H2281 C2273 0.960 . S
H2282 C2274 0.930 . S
H2283 C2275 0.929 . S
H2284 C2292 0.929 . S
H2285 C2294 0.930 . S
H2286 C2296 0.930 . S
H2287 C2299 0.929 . S
H2288 C2302 0.930 . S
H2289 C2304 0.960 . S
H2290 C2304 0.960 . S
H2291 C2304 0.960 . S
C2292 H2284 0.929 . S
C2292 C2293 1.377 . S
C2292 C2294 1.384 . S
C2293 C2292 1.377 . S
C2293 C2299 1.390 . S
C2294 H2285 0.930 . S
C2294 C2292 1.384 . S
C2294 C2295 1.372 . S
C2295 C2294 1.372 . S
C2295 C2296 1.400 . S
C2295 C2300 1.490 . S
C2296 H2286 0.930 . S
C2296 C2295 1.400 . S
C2296 C2299 1.386 . S
H2297 C2313 0.930 . S
H2298 C2314 0.931 . S
C2299 H2287 0.929 . S
C2299 C2293 1.390 . S
C2299 C2296 1.386 . S
C2300 C2295 1.490 . S
C2300 C2302 1.395 . S
C2300 C2303 1.403 . S
H2301 C2307 0.930 . S
C2302 H2288 0.930 . S
C2302 C2300 1.395 . S
C2302 C2305 1.403 . S
C2303 C2300 1.403 . S
C2303 C2304 1.524 . S
C2303 C2307 1.400 . S
C2304 H2289 0.960 . S
C2304 H2290 0.960 . S
C2304 H2291 0.960 . S
C2304 C2303 1.524 . S
C2305 C2302 1.403 . S
C2305 C2306 1.392 . S
C2305 C2309 1.495 . S
C2306 C2305 1.392 . S
C2306 C2307 1.385 . S
C2306 C2308 1.478 . S
C2307 H2301 0.930 . S
C2307 C2303 1.400 . S
C2307 C2306 1.385 . S
C2308 C2306 1.478 . S
C2308 C2310 1.381 . S
C2308 C2314 1.383 . S
C2309 C2305 1.495 . S
C2309 H2315 0.959 . S
C2309 H2316 0.961 . S
C2309 H2317 0.960 . S
C2310 C2308 1.381 . S
C2310 C2311 1.394 . S
C2310 H2318 0.930 . S
C2311 C2310 1.394 . S
C2311 C2312 1.383 . S
C2311 H2319 0.929 . S
C2312 C2311 1.383 . S
C2312 C2313 1.377 . S
C2313 H2297 0.930 . S
C2313 C2312 1.377 . S
C2313 C2314 1.379 . S
C2314 H2298 0.931 . S
C2314 C2308 1.383 . S
C2314 C2313 1.379 . S
H2315 C2309 0.959 . S
H2316 C2309 0.961 . S
H2317 C2309 0.960 . S
H2318 C2310 0.930 . S
H2319 C2311 0.929 . S
H2320 C2328 0.929 . S
H2321 C2330 0.930 . S
H2322 C2332 0.930 . S
H2323 C2335 0.929 . S
H2324 C2338 0.930 . S
H2325 C2340 0.960 . S
H2326 C2340 0.960 . S
H2327 C2340 0.960 . S
C2328 H2320 0.929 . S
C2328 C2329 1.377 . S
C2328 C2330 1.384 . S
C2329 C2328 1.377 . S
C2329 C2335 1.390 . S
C2330 H2321 0.930 . S
C2330 C2328 1.384 . S
C2330 C2331 1.372 . S
C2331 C2330 1.372 . S
C2331 C2332 1.400 . S
C2331 C2336 1.490 . S
C2332 H2322 0.930 . S
C2332 C2331 1.400 . S
C2332 C2335 1.386 . S
H2333 C2349 0.930 . S
H2334 C2350 0.931 . S
C2335 H2323 0.929 . S
C2335 C2329 1.390 . S
C2335 C2332 1.386 . S
C2336 C2331 1.490 . S
C2336 C2338 1.395 . S
C2336 C2339 1.403 . S
H2337 C2343 0.930 . S
C2338 H2324 0.930 . S
C2338 C2336 1.395 . S
C2338 C2341 1.403 . S
C2339 C2336 1.403 . S
C2339 C2340 1.524 . S
C2339 C2343 1.400 . S
C2340 H2325 0.960 . S
C2340 H2326 0.960 . S
C2340 H2327 0.960 . S
C2340 C2339 1.524 . S
C2341 C2338 1.403 . S
C2341 C2342 1.392 . S
C2341 C2345 1.495 . S
C2342 C2341 1.392 . S
C2342 C2343 1.385 . S
C2342 C2344 1.478 . S
C2343 H2337 0.930 . S
C2343 C2339 1.400 . S
C2343 C2342 1.385 . S
C2344 C2342 1.478 . S
C2344 C2346 1.381 . S
C2344 C2350 1.383 . S
C2345 C2341 1.495 . S
C2345 H2351 0.959 . S
C2345 H2352 0.961 . S
C2345 H2353 0.960 . S
C2346 C2344 1.381 . S
C2346 C2347 1.394 . S
C2346 H2354 0.930 . S
C2347 C2346 1.394 . S
C2347 C2348 1.383 . S
C2347 H2355 0.929 . S
C2348 C2347 1.383 . S
C2348 C2349 1.377 . S
C2349 H2333 0.930 . S
C2349 C2348 1.377 . S
C2349 C2350 1.379 . S
C2350 H2334 0.931 . S
C2350 C2344 1.383 . S
C2350 C2349 1.379 . S
H2351 C2345 0.959 . S
H2352 C2345 0.961 . S
H2353 C2345 0.960 . S
H2354 C2346 0.930 . S
H2355 C2347 0.929 . S
H2356 C2364 0.929 . S
H2357 C2366 0.930 . S
H2358 C2368 0.930 . S
H2359 C2371 0.929 . S
H2360 C2374 0.930 . S
H2361 C2376 0.960 . S
H2362 C2376 0.960 . S
H2363 C2376 0.960 . S
C2364 H2356 0.929 . S
C2364 C2365 1.377 . S
C2364 C2366 1.384 . S
C2365 C2364 1.377 . S
C2365 C2371 1.390 . S
C2366 H2357 0.930 . S
C2366 C2364 1.384 . S
C2366 C2367 1.372 . S
C2367 C2366 1.372 . S
C2367 C2368 1.400 . S
C2367 C2372 1.490 . S
C2368 H2358 0.930 . S
C2368 C2367 1.400 . S
C2368 C2371 1.386 . S
H2369 C2385 0.930 . S
H2370 C2386 0.931 . S
C2371 H2359 0.929 . S
C2371 C2365 1.390 . S
C2371 C2368 1.386 . S
C2372 C2367 1.490 . S
C2372 C2374 1.395 . S
C2372 C2375 1.403 . S
H2373 C2379 0.930 . S
C2374 H2360 0.930 . S
C2374 C2372 1.395 . S
C2374 C2377 1.403 . S
C2375 C2372 1.403 . S
C2375 C2376 1.524 . S
C2375 C2379 1.400 . S
C2376 H2361 0.960 . S
C2376 H2362 0.960 . S
C2376 H2363 0.960 . S
C2376 C2375 1.524 . S
C2377 C2374 1.403 . S
C2377 C2378 1.392 . S
C2377 C2381 1.495 . S
C2378 C2377 1.392 . S
C2378 C2379 1.385 . S
C2378 C2380 1.478 . S
C2379 H2373 0.930 . S
C2379 C2375 1.400 . S
C2379 C2378 1.385 . S
C2380 C2378 1.478 . S
C2380 C2382 1.381 . S
C2380 C2386 1.383 . S
C2381 C2377 1.495 . S
C2381 H2387 0.959 . S
C2381 H2388 0.961 . S
C2381 H2389 0.960 . S
C2382 C2380 1.381 . S
C2382 C2383 1.394 . S
C2382 H2390 0.930 . S
C2383 C2382 1.394 . S
C2383 C2384 1.383 . S
C2383 H2391 0.929 . S
C2384 C2383 1.383 . S
C2384 C2385 1.377 . S
C2385 H2369 0.930 . S
C2385 C2384 1.377 . S
C2385 C2386 1.379 . S
C2386 H2370 0.931 . S
C2386 C2380 1.383 . S
C2386 C2385 1.379 . S
H2387 C2381 0.959 . S
H2388 C2381 0.961 . S
H2389 C2381 0.960 . S
H2390 C2382 0.930 . S
H2391 C2383 0.929 . S
H2392 C2400 0.929 . S
H2393 C2402 0.930 . S
H2394 C2404 0.930 . S
H2395 C2407 0.929 . S
H2396 C2410 0.930 . S
H2397 C2412 0.960 . S
H2398 C2412 0.960 . S
H2399 C2412 0.960 . S
C2400 H2392 0.929 . S
C2400 C2401 1.377 . S
C2400 C2402 1.384 . S
C2401 C2400 1.377 . S
C2401 C2407 1.390 . S
C2402 H2393 0.930 . S
C2402 C2400 1.384 . S
C2402 C2403 1.372 . S
C2403 C2402 1.372 . S
C2403 C2404 1.400 . S
C2403 C2408 1.490 . S
C2404 H2394 0.930 . S
C2404 C2403 1.400 . S
C2404 C2407 1.386 . S
H2405 C2421 0.930 . S
H2406 C2422 0.931 . S
C2407 H2395 0.929 . S
C2407 C2401 1.390 . S
C2407 C2404 1.386 . S
C2408 C2403 1.490 . S
C2408 C2410 1.395 . S
C2408 C2411 1.403 . S
H2409 C2415 0.930 . S
C2410 H2396 0.930 . S
C2410 C2408 1.395 . S
C2410 C2413 1.403 . S
C2411 C2408 1.403 . S
C2411 C2412 1.524 . S
C2411 C2415 1.400 . S
C2412 H2397 0.960 . S
C2412 H2398 0.960 . S
C2412 H2399 0.960 . S
C2412 C2411 1.524 . S
C2413 C2410 1.403 . S
C2413 C2414 1.392 . S
C2413 C2417 1.495 . S
C2414 C2413 1.392 . S
C2414 C2415 1.385 . S
C2414 C2416 1.478 . S
C2415 H2409 0.930 . S
C2415 C2411 1.400 . S
C2415 C2414 1.385 . S
C2416 C2414 1.478 . S
C2416 C2418 1.381 . S
C2416 C2422 1.383 . S
C2417 C2413 1.495 . S
C2417 H2423 0.959 . S
C2417 H2424 0.961 . S
C2417 H2425 0.960 . S
C2418 C2416 1.381 . S
C2418 C2419 1.394 . S
C2418 H2426 0.930 . S
C2419 C2418 1.394 . S
C2419 C2420 1.383 . S
C2419 H2427 0.929 . S
C2420 C2419 1.383 . S
C2420 C2421 1.377 . S
C2421 H2405 0.930 . S
C2421 C2420 1.377 . S
C2421 C2422 1.379 . S
C2422 H2406 0.931 . S
C2422 C2416 1.383 . S
C2422 C2421 1.379 . S
H2423 C2417 0.959 . S
H2424 C2417 0.961 . S
H2425 C2417 0.960 . S
H2426 C2418 0.930 . S
H2427 C2419 0.929 . S
H2428 C2436 0.929 . S
H2429 C2438 0.930 . S
H2430 C2440 0.930 . S
H2431 C2443 0.929 . S
H2432 C2446 0.930 . S
H2433 C2448 0.960 . S
H2434 C2448 0.960 . S
H2435 C2448 0.960 . S
C2436 H2428 0.929 . S
C2436 C2437 1.377 . S
C2436 C2438 1.384 . S
C2437 C2436 1.377 . S
C2437 C2443 1.390 . S
C2438 H2429 0.930 . S
C2438 C2436 1.384 . S
C2438 C2439 1.372 . S
C2439 C2438 1.372 . S
C2439 C2440 1.400 . S
C2439 C2444 1.490 . S
C2440 H2430 0.930 . S
C2440 C2439 1.400 . S
C2440 C2443 1.386 . S
H2441 C2457 0.930 . S
H2442 C2458 0.931 . S
C2443 H2431 0.929 . S
C2443 C2437 1.390 . S
C2443 C2440 1.386 . S
C2444 C2439 1.490 . S
C2444 C2446 1.395 . S
C2444 C2447 1.403 . S
H2445 C2451 0.930 . S
C2446 H2432 0.930 . S
C2446 C2444 1.395 . S
C2446 C2449 1.403 . S
C2447 C2444 1.403 . S
C2447 C2448 1.524 . S
C2447 C2451 1.400 . S
C2448 H2433 0.960 . S
C2448 H2434 0.960 . S
C2448 H2435 0.960 . S
C2448 C2447 1.524 . S
C2449 C2446 1.403 . S
C2449 C2450 1.392 . S
C2449 C2453 1.495 . S
C2450 C2449 1.392 . S
C2450 C2451 1.385 . S
C2450 C2452 1.478 . S
C2451 H2445 0.930 . S
C2451 C2447 1.400 . S
C2451 C2450 1.385 . S
C2452 C2450 1.478 . S
C2452 C2454 1.381 . S
C2452 C2458 1.383 . S
C2453 C2449 1.495 . S
C2453 H2459 0.959 . S
C2453 H2460 0.961 . S
C2453 H2461 0.960 . S
C2454 C2452 1.381 . S
C2454 C2455 1.394 . S
C2454 H2462 0.930 . S
C2455 C2454 1.394 . S
C2455 C2456 1.383 . S
C2455 H2463 0.929 . S
C2456 C2455 1.383 . S
C2456 C2457 1.377 . S
C2457 H2441 0.930 . S
C2457 C2456 1.377 . S
C2457 C2458 1.379 . S
C2458 H2442 0.931 . S
C2458 C2452 1.383 . S
C2458 C2457 1.379 . S
H2459 C2453 0.959 . S
H2460 C2453 0.961 . S
H2461 C2453 0.960 . S
H2462 C2454 0.930 . S
H2463 C2455 0.929 . S
H2464 C2472 0.929 . S
H2465 C2474 0.930 . S
H2466 C2476 0.930 . S
H2467 C2479 0.929 . S
H2468 C2482 0.930 . S
H2469 C2484 0.960 . S
H2470 C2484 0.960 . S
H2471 C2484 0.960 . S
C2472 H2464 0.929 . S
C2472 C2473 1.377 . S
C2472 C2474 1.384 . S
C2473 C2472 1.377 . S
C2473 C2479 1.390 . S
C2474 H2465 0.930 . S
C2474 C2472 1.384 . S
C2474 C2475 1.372 . S
C2475 C2474 1.372 . S
C2475 C2476 1.400 . S
C2475 C2480 1.490 . S
C2476 H2466 0.930 . S
C2476 C2475 1.400 . S
C2476 C2479 1.386 . S
H2477 C2493 0.930 . S
H2478 C2494 0.931 . S
C2479 H2467 0.929 . S
C2479 C2473 1.390 . S
C2479 C2476 1.386 . S
C2480 C2475 1.490 . S
C2480 C2482 1.395 . S
C2480 C2483 1.403 . S
H2481 C2487 0.930 . S
C2482 H2468 0.930 . S
C2482 C2480 1.395 . S
C2482 C2485 1.403 . S
C2483 C2480 1.403 . S
C2483 C2484 1.524 . S
C2483 C2487 1.400 . S
C2484 H2469 0.960 . S
C2484 H2470 0.960 . S
C2484 H2471 0.960 . S
C2484 C2483 1.524 . S
C2485 C2482 1.403 . S
C2485 C2486 1.392 . S
C2485 C2489 1.495 . S
C2486 C2485 1.392 . S
C2486 C2487 1.385 . S
C2486 C2488 1.478 . S
C2487 H2481 0.930 . S
C2487 C2483 1.400 . S
C2487 C2486 1.385 . S
C2488 C2486 1.478 . S
C2488 C2490 1.381 . S
C2488 C2494 1.383 . S
C2489 C2485 1.495 . S
C2489 H2495 0.959 . S
C2489 H2496 0.961 . S
C2489 H2497 0.960 . S
C2490 C2488 1.381 . S
C2490 C2491 1.394 . S
C2490 H2498 0.930 . S
C2491 C2490 1.394 . S
C2491 C2492 1.383 . S
C2491 H2499 0.929 . S
C2492 C2491 1.383 . S
C2492 C2493 1.377 . S
C2493 H2477 0.930 . S
C2493 C2492 1.377 . S
C2493 C2494 1.379 . S
C2494 H2478 0.931 . S
C2494 C2488 1.383 . S
C2494 C2493 1.379 . S
H2495 C2489 0.959 . S
H2496 C2489 0.961 . S
H2497 C2489 0.960 . S
H2498 C2490 0.930 . S
H2499 C2491 0.929 . S
H2500 C2508 0.929 . S
H2501 C2510 0.930 . S
H2502 C2512 0.930 . S
H2503 C2515 0.929 . S
H2504 C2518 0.930 . S
H2505 C2520 0.960 . S
H2506 C2520 0.960 . S
H2507 C2520 0.960 . S
C2508 H2500 0.929 . S
C2508 C2509 1.377 . S
C2508 C2510 1.384 . S
C2509 C2508 1.377 . S
C2509 C2515 1.390 . S
C2510 H2501 0.930 . S
C2510 C2508 1.384 . S
C2510 C2511 1.372 . S
C2511 C2510 1.372 . S
C2511 C2512 1.400 . S
C2511 C2516 1.490 . S
C2512 H2502 0.930 . S
C2512 C2511 1.400 . S
C2512 C2515 1.386 . S
H2513 C2529 0.930 . S
H2514 C2530 0.931 . S
C2515 H2503 0.929 . S
C2515 C2509 1.390 . S
C2515 C2512 1.386 . S
C2516 C2511 1.490 . S
C2516 C2518 1.395 . S
C2516 C2519 1.403 . S
H2517 C2523 0.930 . S
C2518 H2504 0.930 . S
C2518 C2516 1.395 . S
C2518 C2521 1.403 . S
C2519 C2516 1.403 . S
C2519 C2520 1.524 . S
C2519 C2523 1.400 . S
C2520 H2505 0.960 . S
C2520 H2506 0.960 . S
C2520 H2507 0.960 . S
C2520 C2519 1.524 . S
C2521 C2518 1.403 . S
C2521 C2522 1.392 . S
C2521 C2525 1.495 . S
C2522 C2521 1.392 . S
C2522 C2523 1.385 . S
C2522 C2524 1.478 . S
C2523 H2517 0.930 . S
C2523 C2519 1.400 . S
C2523 C2522 1.385 . S
C2524 C2522 1.478 . S
C2524 C2526 1.381 . S
C2524 C2530 1.383 . S
C2525 C2521 1.495 . S
C2525 H2531 0.959 . S
C2525 H2532 0.961 . S
C2525 H2533 0.960 . S
C2526 C2524 1.381 . S
C2526 C2527 1.394 . S
C2526 H2534 0.930 . S
C2527 C2526 1.394 . S
C2527 C2528 1.383 . S
C2527 H2535 0.929 . S
C2528 C2527 1.383 . S
C2528 C2529 1.377 . S
C2529 H2513 0.930 . S
C2529 C2528 1.377 . S
C2529 C2530 1.379 . S
C2530 H2514 0.931 . S
C2530 C2524 1.383 . S
C2530 C2529 1.379 . S
H2531 C2525 0.959 . S
H2532 C2525 0.961 . S
H2533 C2525 0.960 . S
H2534 C2526 0.930 . S
H2535 C2527 0.929 . S
H2536 C2544 0.929 . S
H2537 C2546 0.930 . S
H2538 C2548 0.930 . S
H2539 C2551 0.929 . S
H2540 C2554 0.930 . S
H2541 C2556 0.960 . S
H2542 C2556 0.960 . S
H2543 C2556 0.960 . S
C2544 H2536 0.929 . S
C2544 C2545 1.377 . S
C2544 C2546 1.384 . S
C2545 C2544 1.377 . S
C2545 C2551 1.390 . S
C2546 H2537 0.930 . S
C2546 C2544 1.384 . S
C2546 C2547 1.372 . S
C2547 C2546 1.372 . S
C2547 C2548 1.400 . S
C2547 C2552 1.490 . S
C2548 H2538 0.930 . S
C2548 C2547 1.400 . S
C2548 C2551 1.386 . S
H2549 C2565 0.930 . S
H2550 C2566 0.931 . S
C2551 H2539 0.929 . S
C2551 C2545 1.390 . S
C2551 C2548 1.386 . S
C2552 C2547 1.490 . S
C2552 C2554 1.395 . S
C2552 C2555 1.403 . S
H2553 C2559 0.930 . S
C2554 H2540 0.930 . S
C2554 C2552 1.395 . S
C2554 C2557 1.403 . S
C2555 C2552 1.403 . S
C2555 C2556 1.524 . S
C2555 C2559 1.400 . S
C2556 H2541 0.960 . S
C2556 H2542 0.960 . S
C2556 H2543 0.960 . S
C2556 C2555 1.524 . S
C2557 C2554 1.403 . S
C2557 C2558 1.392 . S
C2557 C2561 1.495 . S
C2558 C2557 1.392 . S
C2558 C2559 1.385 . S
C2558 C2560 1.478 . S
C2559 H2553 0.930 . S
C2559 C2555 1.400 . S
C2559 C2558 1.385 . S
C2560 C2558 1.478 . S
C2560 C2562 1.381 . S
C2560 C2566 1.383 . S
C2561 C2557 1.495 . S
C2561 H2567 0.959 . S
C2561 H2568 0.961 . S
C2561 H2569 0.960 . S
C2562 C2560 1.381 . S
C2562 C2563 1.394 . S
C2562 H2570 0.930 . S
C2563 C2562 1.394 . S
C2563 C2564 1.383 . S
C2563 H2571 0.929 . S
C2564 C2563 1.383 . S
C2564 C2565 1.377 . S
C2565 H2549 0.930 . S
C2565 C2564 1.377 . S
C2565 C2566 1.379 . S
C2566 H2550 0.931 . S
C2566 C2560 1.383 . S
C2566 C2565 1.379 . S
H2567 C2561 0.959 . S
H2568 C2561 0.961 . S
H2569 C2561 0.960 . S
H2570 C2562 0.930 . S
H2571 C2563 0.929 . S
H2572 C2580 0.929 . S
H2573 C2582 0.930 . S
H2574 C2584 0.930 . S
H2575 C2587 0.929 . S
H2576 C2590 0.930 . S
H2577 C2592 0.960 . S
H2578 C2592 0.960 . S
H2579 C2592 0.960 . S
C2580 H2572 0.929 . S
C2580 C2581 1.377 . S
C2580 C2582 1.384 . S
C2581 C2580 1.377 . S
C2581 C2587 1.390 . S
C2582 H2573 0.930 . S
C2582 C2580 1.384 . S
C2582 C2583 1.372 . S
C2583 C2582 1.372 . S
C2583 C2584 1.400 . S
C2583 C2588 1.490 . S
C2584 H2574 0.930 . S
C2584 C2583 1.400 . S
C2584 C2587 1.386 . S
H2585 C2601 0.930 . S
H2586 C2602 0.931 . S
C2587 H2575 0.929 . S
C2587 C2581 1.390 . S
C2587 C2584 1.386 . S
C2588 C2583 1.490 . S
C2588 C2590 1.395 . S
C2588 C2591 1.403 . S
H2589 C2595 0.930 . S
C2590 H2576 0.930 . S
C2590 C2588 1.395 . S
C2590 C2593 1.403 . S
C2591 C2588 1.403 . S
C2591 C2592 1.524 . S
C2591 C2595 1.400 . S
C2592 H2577 0.960 . S
C2592 H2578 0.960 . S
C2592 H2579 0.960 . S
C2592 C2591 1.524 . S
C2593 C2590 1.403 . S
C2593 C2594 1.392 . S
C2593 C2597 1.495 . S
C2594 C2593 1.392 . S
C2594 C2595 1.385 . S
C2594 C2596 1.478 . S
C2595 H2589 0.930 . S
C2595 C2591 1.400 . S
C2595 C2594 1.385 . S
C2596 C2594 1.478 . S
C2596 C2598 1.381 . S
C2596 C2602 1.383 . S
C2597 C2593 1.495 . S
C2597 H2603 0.959 . S
C2597 H2604 0.961 . S
C2597 H2605 0.960 . S
C2598 C2596 1.381 . S
C2598 C2599 1.394 . S
C2598 H2606 0.930 . S
C2599 C2598 1.394 . S
C2599 C2600 1.383 . S
C2599 H2607 0.929 . S
C2600 C2599 1.383 . S
C2600 C2601 1.377 . S
C2601 H2585 0.930 . S
C2601 C2600 1.377 . S
C2601 C2602 1.379 . S
C2602 H2586 0.931 . S
C2602 C2596 1.383 . S
C2602 C2601 1.379 . S
H2603 C2597 0.959 . S
H2604 C2597 0.961 . S
H2605 C2597 0.960 . S
H2606 C2598 0.930 . S
H2607 C2599 0.929 . S
H2608 C2616 0.929 . S
H2609 C2618 0.930 . S
H2610 C2620 0.930 . S
H2611 C2623 0.929 . S
H2612 C2626 0.930 . S
H2613 C2628 0.960 . S
H2614 C2628 0.960 . S
H2615 C2628 0.960 . S
C2616 H2608 0.929 . S
C2616 C2617 1.377 . S
C2616 C2618 1.384 . S
C2617 C2616 1.377 . S
C2617 C2623 1.390 . S
C2618 H2609 0.930 . S
C2618 C2616 1.384 . S
C2618 C2619 1.372 . S
C2619 C2618 1.372 . S
C2619 C2620 1.400 . S
C2619 C2624 1.490 . S
C2620 H2610 0.930 . S
C2620 C2619 1.400 . S
C2620 C2623 1.386 . S
H2621 C2637 0.930 . S
H2622 C2638 0.931 . S
C2623 H2611 0.929 . S
C2623 C2617 1.390 . S
C2623 C2620 1.386 . S
C2624 C2619 1.490 . S
C2624 C2626 1.395 . S
C2624 C2627 1.403 . S
H2625 C2631 0.930 . S
C2626 H2612 0.930 . S
C2626 C2624 1.395 . S
C2626 C2629 1.403 . S
C2627 C2624 1.403 . S
C2627 C2628 1.524 . S
C2627 C2631 1.400 . S
C2628 H2613 0.960 . S
C2628 H2614 0.960 . S
C2628 H2615 0.960 . S
C2628 C2627 1.524 . S
C2629 C2626 1.403 . S
C2629 C2630 1.392 . S
C2629 C2633 1.495 . S
C2630 C2629 1.392 . S
C2630 C2631 1.385 . S
C2630 C2632 1.478 . S
C2631 H2625 0.930 . S
C2631 C2627 1.400 . S
C2631 C2630 1.385 . S
C2632 C2630 1.478 . S
C2632 C2634 1.381 . S
C2632 C2638 1.383 . S
C2633 C2629 1.495 . S
C2633 H2639 0.959 . S
C2633 H2640 0.961 . S
C2633 H2641 0.960 . S
C2634 C2632 1.381 . S
C2634 C2635 1.394 . S
C2634 H2642 0.930 . S
C2635 C2634 1.394 . S
C2635 C2636 1.383 . S
C2635 H2643 0.929 . S
C2636 C2635 1.383 . S
C2636 C2637 1.377 . S
C2637 H2621 0.930 . S
C2637 C2636 1.377 . S
C2637 C2638 1.379 . S
C2638 H2622 0.931 . S
C2638 C2632 1.383 . S
C2638 C2637 1.379 . S
H2639 C2633 0.959 . S
H2640 C2633 0.961 . S
H2641 C2633 0.960 . S
H2642 C2634 0.930 . S
H2643 C2635 0.929 . S
H2644 C2652 0.929 . S
H2645 C2654 0.930 . S
H2646 C2656 0.930 . S
H2647 C2659 0.929 . S
H2648 C2662 0.930 . S
H2649 C2664 0.960 . S
H2650 C2664 0.960 . S
H2651 C2664 0.960 . S
C2652 H2644 0.929 . S
C2652 C2653 1.377 . S
C2652 C2654 1.384 . S
C2653 C2652 1.377 . S
C2653 C2659 1.390 . S
C2654 H2645 0.930 . S
C2654 C2652 1.384 . S
C2654 C2655 1.372 . S
C2655 C2654 1.372 . S
C2655 C2656 1.400 . S
C2655 C2660 1.490 . S
C2656 H2646 0.930 . S
C2656 C2655 1.400 . S
C2656 C2659 1.386 . S
H2657 C2673 0.930 . S
H2658 C2674 0.931 . S
C2659 H2647 0.929 . S
C2659 C2653 1.390 . S
C2659 C2656 1.386 . S
C2660 C2655 1.490 . S
C2660 C2662 1.395 . S
C2660 C2663 1.403 . S
H2661 C2667 0.930 . S
C2662 H2648 0.930 . S
C2662 C2660 1.395 . S
C2662 C2665 1.403 . S
C2663 C2660 1.403 . S
C2663 C2664 1.524 . S
C2663 C2667 1.400 . S
C2664 H2649 0.960 . S
C2664 H2650 0.960 . S
C2664 H2651 0.960 . S
C2664 C2663 1.524 . S
C2665 C2662 1.403 . S
C2665 C2666 1.392 . S
C2665 C2669 1.495 . S
C2666 C2665 1.392 . S
C2666 C2667 1.385 . S
C2666 C2668 1.478 . S
C2667 H2661 0.930 . S
C2667 C2663 1.400 . S
C2667 C2666 1.385 . S
C2668 C2666 1.478 . S
C2668 C2670 1.381 . S
C2668 C2674 1.383 . S
C2669 C2665 1.495 . S
C2669 H2675 0.959 . S
C2669 H2676 0.961 . S
C2669 H2677 0.960 . S
C2670 C2668 1.381 . S
C2670 C2671 1.394 . S
C2670 H2678 0.930 . S
C2671 C2670 1.394 . S
C2671 C2672 1.383 . S
C2671 H2679 0.929 . S
C2672 C2671 1.383 . S
C2672 C2673 1.377 . S
C2673 H2657 0.930 . S
C2673 C2672 1.377 . S
C2673 C2674 1.379 . S
C2674 H2658 0.931 . S
C2674 C2668 1.383 . S
C2674 C2673 1.379 . S
H2675 C2669 0.959 . S
H2676 C2669 0.961 . S
H2677 C2669 0.960 . S
H2678 C2670 0.930 . S
H2679 C2671 0.929 . S
H2680 C2688 0.929 . S
H2681 C2690 0.930 . S
H2682 C2692 0.930 . S
H2683 C2695 0.929 . S
H2684 C2698 0.930 . S
H2685 C2700 0.960 . S
H2686 C2700 0.960 . S
H2687 C2700 0.960 . S
C2688 H2680 0.929 . S
C2688 C2689 1.377 . S
C2688 C2690 1.384 . S
C2689 C2688 1.377 . S
C2689 C2695 1.390 . S
C2690 H2681 0.930 . S
C2690 C2688 1.384 . S
C2690 C2691 1.372 . S
C2691 C2690 1.372 . S
C2691 C2692 1.400 . S
C2691 C2696 1.490 . S
C2692 H2682 0.930 . S
C2692 C2691 1.400 . S
C2692 C2695 1.386 . S
H2693 C2709 0.930 . S
H2694 C2710 0.931 . S
C2695 H2683 0.929 . S
C2695 C2689 1.390 . S
C2695 C2692 1.386 . S
C2696 C2691 1.490 . S
C2696 C2698 1.395 . S
C2696 C2699 1.403 . S
H2697 C2703 0.930 . S
C2698 H2684 0.930 . S
C2698 C2696 1.395 . S
C2698 C2701 1.403 . S
C2699 C2696 1.403 . S
C2699 C2700 1.524 . S
C2699 C2703 1.400 . S
C2700 H2685 0.960 . S
C2700 H2686 0.960 . S
C2700 H2687 0.960 . S
C2700 C2699 1.524 . S
C2701 C2698 1.403 . S
C2701 C2702 1.392 . S
C2701 C2705 1.495 . S
C2702 C2701 1.392 . S
C2702 C2703 1.385 . S
C2702 C2704 1.478 . S
C2703 H2697 0.930 . S
C2703 C2699 1.400 . S
C2703 C2702 1.385 . S
C2704 C2702 1.478 . S
C2704 C2706 1.381 . S
C2704 C2710 1.383 . S
C2705 C2701 1.495 . S
C2705 H2711 0.959 . S
C2705 H2712 0.961 . S
C2705 H2713 0.960 . S
C2706 C2704 1.381 . S
C2706 C2707 1.394 . S
C2706 H2714 0.930 . S
C2707 C2706 1.394 . S
C2707 C2708 1.383 . S
C2707 H2715 0.929 . S
C2708 C2707 1.383 . S
C2708 C2709 1.377 . S
C2709 H2693 0.930 . S
C2709 C2708 1.377 . S
C2709 C2710 1.379 . S
C2710 H2694 0.931 . S
C2710 C2704 1.383 . S
C2710 C2709 1.379 . S
H2711 C2705 0.959 . S
H2712 C2705 0.961 . S
H2713 C2705 0.960 . S
H2714 C2706 0.930 . S
H2715 C2707 0.929 . S
H2716 C2724 0.929 . S
H2717 C2726 0.930 . S
H2718 C2728 0.930 . S
H2719 C2731 0.929 . S
H2720 C2734 0.930 . S
H2721 C2736 0.960 . S
H2722 C2736 0.960 . S
H2723 C2736 0.960 . S
C2724 H2716 0.929 . S
C2724 C2725 1.377 . S
C2724 C2726 1.384 . S
C2725 C2724 1.377 . S
C2725 C2731 1.390 . S
C2726 H2717 0.930 . S
C2726 C2724 1.384 . S
C2726 C2727 1.372 . S
C2727 C2726 1.372 . S
C2727 C2728 1.400 . S
C2727 C2732 1.490 . S
C2728 H2718 0.930 . S
C2728 C2727 1.400 . S
C2728 C2731 1.386 . S
H2729 C2745 0.930 . S
H2730 C2746 0.931 . S
C2731 H2719 0.929 . S
C2731 C2725 1.390 . S
C2731 C2728 1.386 . S
C2732 C2727 1.490 . S
C2732 C2734 1.395 . S
C2732 C2735 1.403 . S
H2733 C2739 0.930 . S
C2734 H2720 0.930 . S
C2734 C2732 1.395 . S
C2734 C2737 1.403 . S
C2735 C2732 1.403 . S
C2735 C2736 1.524 . S
C2735 C2739 1.400 . S
C2736 H2721 0.960 . S
C2736 H2722 0.960 . S
C2736 H2723 0.960 . S
C2736 C2735 1.524 . S
C2737 C2734 1.403 . S
C2737 C2738 1.392 . S
C2737 C2741 1.495 . S
C2738 C2737 1.392 . S
C2738 C2739 1.385 . S
C2738 C2740 1.478 . S
C2739 H2733 0.930 . S
C2739 C2735 1.400 . S
C2739 C2738 1.385 . S
C2740 C2738 1.478 . S
C2740 C2742 1.381 . S
C2740 C2746 1.383 . S
C2741 C2737 1.495 . S
C2741 H2747 0.959 . S
C2741 H2748 0.961 . S
C2741 H2749 0.960 . S
C2742 C2740 1.381 . S
C2742 C2743 1.394 . S
C2742 H2750 0.930 . S
C2743 C2742 1.394 . S
C2743 C2744 1.383 . S
C2743 H2751 0.929 . S
C2744 C2743 1.383 . S
C2744 C2745 1.377 . S
C2745 H2729 0.930 . S
C2745 C2744 1.377 . S
C2745 C2746 1.379 . S
C2746 H2730 0.931 . S
C2746 C2740 1.383 . S
C2746 C2745 1.379 . S
H2747 C2741 0.959 . S
H2748 C2741 0.961 . S
H2749 C2741 0.960 . S
H2750 C2742 0.930 . S
H2751 C2743 0.929 . S
C457 C415 1.688 . S
C476 C9 1.697 . S
C493 C23 1.688 . S
C512 C429 1.698 . S
C529 C443 1.688 . S
C548 C37 1.695 . S
C565 C401 1.690 . S
C584 C51 1.701 . S
C601 C65 1.693 . S
C620 C387 1.675 . S
C637 C345 1.688 . S
C656 C79 1.699 . S
C673 C93 1.692 . S
C692 C359 1.694 . S
C709 C373 1.694 . S
C728 C107 1.682 . S
C745 C121 1.694 . S
C764 C303 1.680 . S
C781 C135 1.688 . S
C800 C317 1.695 . S
C817 C331 1.693 . S
C836 C149 1.690 . S
C853 C163 1.692 . S
C872 C289 1.695 . S
C889 C275 1.693 . S
C908 C177 1.689 . S
C925 C233 1.694 . S
C944 C191 1.687 . S
C961 C205 1.691 . S
C980 C247 1.700 . S
C997 C219 1.689 . S
C1016 C261 1.701 . S
C1033 C7 1.417 . S
C1052 C147 1.392 . S
C1069 C161 1.409 . S
C1088 C21 1.434 . S
C1105 C119 1.417 . S
C1124 C35 1.403 . S
C1141 C133 1.407 . S
C1160 C49 1.426 . S
C1177 C63 1.412 . S
C1196 C203 1.431 . S
C1213 C217 1.417 . S
C1232 C77 1.404 . S
C1249 C175 1.416 . S
C1268 C91 1.387 . S
C1285 C189 1.415 . S
C1304 C105 1.419 . S
C1321 C231 1.409 . S
C1340 C371 1.397 . S
C1357 C385 1.408 . S
C1376 C245 1.404 . S
C1393 C343 1.407 . S
C1412 C259 1.422 . S
C1429 C273 1.407 . S
C1448 C357 1.423 . S
C1465 C287 1.409 . S
C1484 C427 1.434 . S
C1501 C441 1.411 . S
C1520 C301 1.433 . S
C1537 C399 1.417 . S
C1556 C315 1.391 . S
C1573 C329 1.410 . S
C1592 C413 1.434 . S
C1609 C6 1.618 . S
C1628 C62 1.593 . S
C1645 C20 1.618 . S
C1664 C76 1.624 . S
C1681 C90 1.615 . S
C1700 C34 1.607 . S
C1717 C48 1.618 . S
C1736 C104 1.595 . S
C1753 C118 1.618 . S
C1772 C174 1.610 . S
C1789 C188 1.612 . S
C1808 C132 1.590 . S
C1825 C202 1.622 . S
C1844 C146 1.635 . S
C1861 C160 1.619 . S
C1880 C216 1.618 . S
C1897 C230 1.615 . S
C1916 C286 1.604 . S
C1933 C300 1.618 . S
C1952 C244 1.594 . S
C1969 C258 1.616 . S
C1988 C314 1.632 . S
C2005 C328 1.622 . S
C2024 C272 1.595 . S
C2041 C398 1.615 . S
C2060 C342 1.611 . S
C2077 C356 1.620 . S
C2096 C412 1.621 . S
C2113 C370 1.612 . S
C2132 C426 1.590 . S
C2149 C384 1.621 . S
C2168 C440 1.632 . S
C2185 C8 1.378 . S
C2204 C78 1.387 . S
C2221 C22 1.378 . S
C2240 C92 1.387 . S
C2257 C106 1.378 . S
C2276 C36 1.367 . S
C2293 C64 1.376 . S
C2312 C50 1.362 . S
C2329 C190 1.374 . S
C2348 C120 1.360 . S
C2365 C204 1.378 . S
C2384 C134 1.367 . S
C2401 C218 1.378 . S
C2420 C148 1.387 . S
C2437 C162 1.376 . S
C2456 C176 1.386 . S
C2473 C232 1.375 . S
C2492 C302 1.359 . S
C2509 C316 1.374 . S
C2528 C246 1.360 . S
C2545 C330 1.373 . S
C2564 C260 1.362 . S
C2581 C274 1.374 . S
C2600 C288 1.376 . S
C2617 C414 1.375 . S
C2636 C344 1.359 . S
C2653 C358 1.376 . S
C2672 C428 1.361 . S
C2689 C372 1.379 . S
C2708 C442 1.372 . S
C2725 C400 1.377 . S
C2744 C386 1.387 . S
