# Generated by pormake.
# Topology smk, (6)-cn, num edge types: 1
# Building blocks:
#     Node 0, Type 0, BuildingBlock: IZENUY_clean_sbu_0, # of connection points: 6
#     Node 1, Type 0, BuildingBlock: IZENUY_clean_sbu_0, # of connection points: 6
#     Node 2, Type 0, BuildingBlock: IZENUY_clean_sbu_0, # of connection points: 6
#     Node 3, Type 0, BuildingBlock: IZENUY_clean_sbu_0, # of connection points: 6
#     Node 4, Type 0, BuildingBlock: IZENUY_clean_sbu_0, # of connection points: 6
#     Node 5, Type 0, BuildingBlock: IZENUY_clean_sbu_0, # of connection points: 6
#     Edge 6, Type (0, 0), BuildingBlock: AJUNOK_clean_linker_0, # of connection points: 2
#     Edge 7, Type (0, 0), BuildingBlock: AJUNOK_clean_linker_0, # of connection points: 2
#     Edge 8, Type (0, 0), BuildingBlock: AJUNOK_clean_linker_0, # of connection points: 2
#     Edge 9, Type (0, 0), BuildingBlock: AJUNOK_clean_linker_0, # of connection points: 2
#     Edge 10, Type (0, 0), BuildingBlock: AJUNOK_clean_linker_0, # of connection points: 2
#     Edge 11, Type (0, 0), BuildingBlock: AJUNOK_clean_linker_0, # of connection points: 2
#     Edge 12, Type (0, 0), BuildingBlock: AJUNOK_clean_linker_0, # of connection points: 2
#     Edge 13, Type (0, 0), BuildingBlock: AJUNOK_clean_linker_0, # of connection points: 2
#     Edge 14, Type (0, 0), BuildingBlock: AJUNOK_clean_linker_0, # of connection points: 2
#     Edge 15, Type (0, 0), BuildingBlock: AJUNOK_clean_linker_0, # of connection points: 2
#     Edge 16, Type (0, 0), BuildingBlock: AJUNOK_clean_linker_0, # of connection points: 2
#     Edge 17, Type (0, 0), BuildingBlock: AJUNOK_clean_linker_0, # of connection points: 2
#     Edge 18, Type (0, 0), BuildingBlock: AJUNOK_clean_linker_0, # of connection points: 2
#     Edge 19, Type (0, 0), BuildingBlock: AJUNOK_clean_linker_0, # of connection points: 2
#     Edge 20, Type (0, 0), BuildingBlock: AJUNOK_clean_linker_0, # of connection points: 2
#     Edge 21, Type (0, 0), BuildingBlock: AJUNOK_clean_linker_0, # of connection points: 2
#     Edge 22, Type (0, 0), BuildingBlock: AJUNOK_clean_linker_0, # of connection points: 2
#     Edge 23, Type (0, 0), BuildingBlock: AJUNOK_clean_linker_0, # of connection points: 2
# Relax obj value: 0.171
# Max RMSD: 0.207
# Mean RMSD: 0.207
data_MOF--net-smk--node1-IZENUY_clean_sbu_0--edge1-AJUNOK_clean_linker_0
_symmetry_space_group_name_H-M    P1
_symmetry_Int_Tables_number       1
_symmetry_cell_setting            triclinic
loop_
_symmetry_equiv_pos_as_xyz
'x, y, z'
_cell_length_a     31.358665
_cell_length_b     31.390731
_cell_length_c     11.183064
_cell_angle_alpha  89.954256
_cell_angle_beta   89.898671
_cell_angle_gamma 120.1165
loop_
_atom_site_label
_atom_site_type_symbol
_atom_site_fract_x
_atom_site_fract_y
_atom_site_fract_z
_atom_type_partial_charge
Fe0 Fe 0.49234 0.28199 0.71796 0.0
Fe1 Fe 0.39313 0.20317 0.61295 0.0
O2 O 0.45866 0.23457 0.61321 0.0
Fe3 Fe 0.49084 0.21868 0.50883 0.0
O4 O 0.51987 0.20227 0.6252 0.0
O5 O 0.54392 0.2696 0.73051 0.0
O6 O 0.46397 0.23971 0.84027 0.0
C7 C 0.41831 0.21466 0.85948 0.0
C8 C 0.55022 0.32311 0.52344 0.0
O9 O 0.38729 0.20672 0.77735 0.0
C10 C 0.41893 0.21395 0.36513 0.0
O11 O 0.4469 0.30297 0.72663 0.0
O12 O 0.39208 0.25959 0.58931 0.0
O13 O 0.54429 0.28119 0.49755 0.0
O14 O 0.52331 0.32733 0.60082 0.0
C15 C 0.4075 0.12597 0.56828 0.0
O16 O 0.38743 0.19379 0.44849 0.0
O17 O 0.4644 0.23425 0.38586 0.0
C18 C 0.41159 0.29599 0.65888 0.0
O19 O 0.38898 0.14423 0.63685 0.0
O20 O 0.44338 0.1531 0.5004 0.0
C21 C 0.54715 0.232 0.70412 0.0
Fe22 Fe 0.2306 0.4831 0.88408 0.0
Fe23 Fe 0.21079 0.38465 0.77742 0.0
O24 O 0.24546 0.45002 0.77997 0.0
Fe25 Fe 0.29506 0.483 0.67985 0.0
O26 O 0.33867 0.51145 0.801 0.0
O27 O 0.29391 0.53592 0.89668 0.0
O28 O 0.24497 0.45524 1.00612 0.0
C29 C 0.22441 0.40955 1.02464 0.0
C30 C 0.24783 0.54071 0.68977 0.0
O31 O 0.20084 0.37862 0.94227 0.0
C32 C 0.2292 0.41169 0.53061 0.0
O33 O 0.16439 0.43686 0.89385 0.0
O34 O 0.15368 0.38471 0.75111 0.0
O35 O 0.28485 0.53583 0.66676 0.0
O36 O 0.21598 0.51314 0.76559 0.0
C37 C 0.30372 0.39939 0.73953 0.0
O38 O 0.2155 0.37969 0.61329 0.0
O39 O 0.2554 0.45698 0.55246 0.0
C40 C 0.13635 0.4035 0.82164 0.0
O41 O 0.26499 0.37918 0.80222 0.0
O42 O 0.31391 0.43623 0.67406 0.0
C43 C 0.33532 0.53953 0.87587 0.0
Fe44 Fe 0.84997 0.20341 0.93897 0.0
Fe45 Fe 0.82788 0.28025 0.83152 0.0
O46 O 0.81547 0.23423 0.93913 0.0
Fe47 Fe 0.76907 0.2197 0.04758 0.0
O48 O 0.81338 0.23708 0.16606 0.0
O49 O 0.84788 0.19499 0.10349 0.0
O50 O 0.90762 0.26092 0.95956 0.0
C51 C 0.9235 0.29653 0.88721 0.0
C52 C 0.75869 0.12636 0.99059 0.0
O53 O 0.89422 0.30105 0.81733 0.0
C54 C 0.72316 0.23086 0.85555 0.0
O55 O 0.85827 0.20641 0.77379 0.0
O56 O 0.81203 0.23643 0.71254 0.0
O57 O 0.7511 0.1541 0.05906 0.0
O58 O 0.79491 0.14398 0.91954 0.0
C59 C 0.8152 0.32394 1.02671 0.0
O60 O 0.76379 0.26797 0.82443 0.0
O61 O 0.72164 0.20194 0.93568 0.0
C62 C 0.83522 0.21419 0.69107 0.0
O63 O 0.84443 0.32689 0.94546 0.0
O64 O 0.77865 0.28258 0.05582 0.0
C65 C 0.8395 0.21781 0.18532 0.0
Fe66 Fe 0.66764 0.83627 0.11658 0.0
Fe67 Fe 0.56957 0.82229 1.01885 0.0
O68 O 0.60233 0.80586 0.11948 0.0
Fe69 Fe 0.56921 0.7583 0.22463 0.0
O70 O 0.59693 0.8011 0.34587 0.0
O71 O 0.67348 0.83237 0.28152 0.0
O72 O 0.67327 0.89583 0.14157 0.0
C73 C 0.65437 0.91486 0.07674 0.0
C74 C 0.64766 0.74293 0.16161 0.0
O75 O 0.61682 0.88823 1.01301 0.0
C76 C 0.51255 0.71714 0.02898 0.0
O77 O 0.67299 0.84618 0.95244 0.0
O78 O 0.59581 0.80868 0.89152 0.0
O79 O 0.61537 0.73877 0.23573 0.0
O80 O 0.66694 0.7788 0.09017 0.0
C81 C 0.51209 0.80537 0.21333 0.0
O82 O 0.51667 0.75877 1.0059 0.0
O83 O 0.53958 0.71333 0.1068 0.0
C84 C 0.64117 0.82799 0.86965 0.0
O85 O 0.54064 0.8373 0.13956 0.0
O86 O 0.51643 0.76824 0.23577 0.0
C87 C 0.64271 0.82595 0.36392 0.0
Fe88 Fe 0.84535 0.65572 0.27448 0.0
Fe89 Fe 0.76746 0.55662 0.16889 0.0
O90 O 0.81521 0.59041 0.27262 0.0
Fe91 Fe 0.83223 0.55815 0.37312 0.0
O92 O 0.81768 0.58378 0.49952 0.0
O93 O 0.85486 0.66106 0.43888 0.0
O94 O 0.78774 0.65487 0.29981 0.0
C95 C 0.75207 0.63582 0.22796 0.0
C96 C 0.92418 0.64288 0.31494 0.0
O97 O 0.74692 0.60197 0.15799 0.0
C98 C 0.81679 0.50166 0.17783 0.0
O99 O 0.84173 0.66142 0.10948 0.0
O100 O 0.8099 0.58472 0.04687 0.0
O101 O 0.89767 0.60569 0.3796 0.0
O102 O 0.90527 0.66186 0.25003 0.0
C103 C 0.72735 0.49949 0.36419 0.0
O104 O 0.77862 0.50451 0.15743 0.0
O105 O 0.84817 0.5301 0.25238 0.0
C106 C 0.83478 0.63042 1.02766 0.0
O107 O 0.72267 0.52643 0.28763 0.0
O108 O 0.76945 0.50477 0.38631 0.0
C109 C 0.83695 0.62903 0.52172 0.0
Fe110 Fe 0.21175 0.83884 0.44291 0.0
Fe111 Fe 0.2277 0.75611 0.34559 0.0
O112 O 0.24417 0.80598 0.44436 0.0
Fe113 Fe 0.29344 0.82266 0.54551 0.0
O114 O 0.25255 0.80876 0.67094 0.0
O115 O 0.21633 0.84937 0.60721 0.0
O116 O 0.15334 0.78378 0.47109 0.0
C117 C 0.13476 0.74623 0.40534 0.0
C118 C 0.30413 0.91532 0.48249 0.0
O119 O 0.16167 0.73624 0.34053 0.0
C120 C 0.33286 0.80469 0.35077 0.0
O121 O 0.20134 0.83344 0.2788 0.0
O122 O 0.24027 0.79524 0.21719 0.0
O123 O 0.31254 0.88846 0.55147 0.0
O124 O 0.26734 0.89672 0.4143 0.0
C125 C 0.24664 0.71795 0.54152 0.0
O126 O 0.29099 0.76718 0.33065 0.0
O127 O 0.33711 0.83702 0.42439 0.0
C128 C 0.22026 0.82059 0.19573 0.0
O129 O 0.21401 0.71327 0.46847 0.0
O130 O 0.2838 0.76002 0.56079 0.0
C131 C 0.22601 0.82767 0.68986 0.0
C132 C 0.4242 0.17819 0.17377 0.0
C133 C 0.4044 0.20254 0.23894 0.0
C134 C 0.4237 0.1778 0.04893 0.0
C135 C 0.403 0.20137 0.98471 0.0
H136 H 0.4434 0.16231 0.21963 0.0
H137 H 0.44289 0.16208 1.00223 0.0
S138 S 0.34181 0.26583 0.11313 0.0
N139 N 0.35979 0.24715 0.23112 0.0
N140 N 0.35845 0.24612 0.99461 0.0
C141 C 0.37929 0.22223 0.04849 0.0
C142 C 0.38007 0.22289 0.17648 0.0
C143 C 0.26903 0.41694 0.33674 0.0
C144 C 0.22527 0.39727 0.40399 0.0
C145 C 0.26801 0.41556 0.21193 0.0
C146 C 0.22318 0.39429 0.14966 0.0
H147 H 0.30451 0.4365 0.3809 0.0
H148 H 0.30265 0.43462 0.16359 0.0
S149 S 0.09819 0.33295 0.28413 0.0
N150 N 0.13579 0.3519 0.40033 0.0
N151 N 0.13378 0.34916 0.16393 0.0
C152 C 0.17899 0.37068 0.21562 0.0
C153 C 0.18006 0.37222 0.34363 0.0
C154 C 0.87179 0.25955 0.37726 0.0
C155 C 0.85243 0.21593 0.31074 0.0
C156 C 0.86949 0.25831 0.50182 0.0
C157 C 0.84811 0.21347 0.56478 0.0
H158 H 0.88526 0.29465 0.33236 0.0
H159 H 0.88149 0.29262 0.549 0.0
S160 S 0.79624 0.0892 0.43268 0.0
N161 N 0.81449 0.12677 0.31616 0.0
N162 N 0.81076 0.12462 0.55252 0.0
C163 C 0.83221 0.16977 0.50025 0.0
C164 C 0.83437 0.17099 0.3723 0.0
C165 C 0.67758 0.81519 0.55478 0.0
C166 C 0.65824 0.83985 0.48873 0.0
C167 C 0.67637 0.81479 0.68084 0.0
C168 C 0.65592 0.8392 0.74317 0.0
H169 H 0.68964 0.79265 0.50915 0.0
H170 H 0.6878 0.79226 0.72902 0.0
S171 S 0.60735 0.9147 0.61112 0.0
N172 N 0.6232 0.89329 0.49469 0.0
N173 N 0.62151 0.89323 0.73028 0.0
C174 C 0.64064 0.8674 0.67784 0.0
C175 C 0.64166 0.86757 0.55069 0.0
C176 C 0.86927 0.62008 0.71475 0.0
C177 C 0.84845 0.64313 0.64835 0.0
C178 C 0.86971 0.62115 0.8394 0.0
C179 C 0.84951 0.64547 0.90263 0.0
H180 H 0.88237 0.59815 0.67005 0.0
H181 H 0.88251 0.59955 0.88684 0.0
S182 S 0.79827 0.7186 0.77055 0.0
N183 N 0.81307 0.69641 0.6536 0.0
N184 N 0.81394 0.69861 0.89019 0.0
C185 C 0.83317 0.67297 0.83764 0.0
C186 C 0.83262 0.67175 0.70952 0.0
C187 C 0.234 0.87001 1.00843 0.0
C188 C 0.20971 0.82463 0.06913 0.0
C189 C 0.23476 0.87169 0.88236 0.0
C190 C 0.21129 0.82803 0.8147 0.0
H191 H 0.25562 0.90382 0.05802 0.0
H192 H 0.25723 0.90677 0.83802 0.0
S193 S 0.13757 0.701 0.93213 0.0
N194 N 0.15734 0.73593 0.0527 0.0
N195 N 0.15934 0.73916 0.81717 0.0
C196 C 0.18377 0.7831 0.87488 0.0
C197 C 0.18283 0.78139 1.002 0.0
C198 C 0.40717 0.04696 0.53253 0.0
C199 C 0.38105 0.07212 0.55001 0.0
C200 C 0.38218 0.99594 0.51109 0.0
C201 C 0.3305 0.96903 0.50189 0.0
H202 H 0.44706 0.06674 0.53678 0.0
H203 H 0.40336 0.97756 0.50003 0.0
S204 S 0.2453 1.01785 0.53844 0.0
N205 N 0.30076 0.06624 0.55685 0.0
N206 N 0.25412 0.97106 0.51279 0.0
C207 C 0.30413 0.99392 0.51795 0.0
C208 C 0.32935 0.04533 0.54293 0.0
C209 C 0.33396 0.29823 0.68781 0.0
C210 C 0.38575 0.3239 0.67983 0.0
C211 C 0.308 0.32288 0.71159 0.0
C212 C 0.33271 0.37431 0.72527 0.0
H213 H 0.31329 0.25858 0.67717 0.0
H214 H 0.26811 0.30158 0.71611 0.0
S215 S 0.46801 0.45858 0.7136 0.0
N216 N 0.46096 0.40338 0.69086 0.0
N217 N 0.41189 0.45016 0.73005 0.0
C218 C 0.38447 0.40051 0.71726 0.0
C219 C 0.41106 0.37517 0.69627 0.0
C220 C 1.00946 0.34772 0.96582 0.0
C221 C 0.97741 0.32718 0.86805 0.0
C222 C 0.06087 0.37441 0.94936 0.0
C223 C 0.08207 0.38002 0.83499 0.0
H224 H 0.99469 0.34295 0.05562 0.0
H225 H 0.08418 0.38923 1.02734 0.0
S226 S 1.01403 0.33318 0.55007 0.0
N227 N 0.97045 0.31511 0.65291 0.0
N228 N 0.06683 0.36352 0.62251 0.0
C229 C 0.05033 0.35991 0.73662 0.0
C230 C 0.99808 0.33394 0.75303 0.0
C231 C 0.65528 0.99371 0.02886 0.0
C232 C 0.68095 0.96922 0.06086 0.0
C233 C 0.68041 0.04484 1.0076 0.0
C234 C 0.7321 0.07278 1.01352 0.0
H235 H 0.6155 0.97324 1.02068 0.0
H236 H 0.6594 0.06245 0.98416 0.0
S237 S 0.81672 0.02713 0.09431 0.0
N238 N 0.76127 0.97773 0.09973 0.0
N239 N 0.80806 0.07299 0.05564 0.0
C240 C 0.75815 0.04892 0.04533 0.0
C241 C 0.73269 0.99737 0.07005 0.0
C242 C 0.71561 0.68528 0.30594 0.0
C243 C 0.72149 0.65919 0.21116 0.0
C244 C 0.69014 0.71095 0.28983 0.0
C245 C 0.67085 0.71257 0.17767 0.0
H246 H 0.73112 0.68619 0.39305 0.0
H247 H 0.68684 0.73095 0.36476 0.0
S248 S 0.67353 0.64875 0.90226 0.0
N249 N 0.70314 0.63453 1.0022 0.0
N250 N 0.65711 0.68467 0.97203 0.0
C251 C 0.67562 0.68622 0.08273 0.0
C252 C 0.7004 0.65895 0.09954 0.0
C253 C 1.00353 0.64352 0.34779 0.0
C254 C 0.97812 0.66951 0.33265 0.0
C255 C 0.05443 0.66844 0.37113 0.0
C256 C 0.08103 0.71992 0.38455 0.0
H257 H 0.98399 0.60373 0.34061 0.0
H258 H 0.07295 0.64732 0.38038 0.0
S259 S 0.03153 0.80479 0.35431 0.0
N260 N 0.98346 0.74949 0.33185 0.0
N261 N 0.07845 0.79604 0.37916 0.0
C262 C 0.05592 0.74618 0.37034 0.0
C263 C 1.00461 0.72104 0.3435 0.0
C264 C 0.59553 0.41228 0.46436 0.0
C265 C 0.59521 0.3677 0.48136 0.0
C266 C 0.63845 0.45499 0.42648 0.0
C267 C 0.68278 0.45484 0.40786 0.0
H268 H 0.56226 0.41399 0.47906 0.0
H269 H 0.63706 0.48843 0.41266 0.0
S270 S 0.70157 0.34768 0.4431 0.0
N271 N 0.6431 0.32614 0.47774 0.0
N272 N 0.72364 0.40625 0.40952 0.0
C273 C 0.683 0.41059 0.42622 0.0
C274 C 0.63924 0.36705 0.46214 0.0
C275 C 0.20333 0.58536 0.63144 0.0
C276 C 0.24791 0.58566 0.64899 0.0
C277 C 0.20304 0.62832 0.59725 0.0
C278 C 0.2473 0.67339 0.58291 0.0
H279 H 0.16843 0.55157 0.64315 0.0
H280 H 0.16792 0.62631 0.58284 0.0
S281 S 0.37402 0.69409 0.62214 0.0
N282 N 0.33748 0.63497 0.65049 0.0
N283 N 0.337 0.71563 0.59008 0.0
C284 C 0.29211 0.67424 0.60205 0.0
C285 C 0.29242 0.63041 0.63393 0.0
C286 C 0.66291 0.22238 0.69849 0.0
C287 C 0.67677 0.22823 0.81925 0.0
C288 C 0.61975 0.22183 0.66268 0.0
C289 C 0.59005 0.2288 0.74605 0.0
H290 H 0.68556 0.2182 0.63151 0.0
H291 H 0.61038 0.21751 0.56855 0.0
S292 S 0.61142 0.24709 0.07229 0.0
N293 N 0.65758 0.24079 1.02229 0.0
N294 N 0.57782 0.24228 0.95391 0.0
C295 C 0.60387 0.23519 0.86676 0.0
C296 C 0.64692 0.23424 0.90368 0.0
C297 C 0.42425 0.67138 0.96691 0.0
C298 C 0.46878 0.67171 0.98541 0.0
C299 C 0.38107 0.6281 0.93515 0.0
C300 C 0.38093 0.58362 0.91761 0.0
H301 H 0.42236 0.70461 0.97971 0.0
H302 H 0.34775 0.62982 0.92203 0.0
S303 S 0.48823 0.56512 0.95114 0.0
N304 N 0.51027 0.62386 0.98327 0.0
N305 N 0.42935 0.54272 0.9193 0.0
C306 C 0.42536 0.58356 0.93388 0.0
C307 C 0.46919 0.62749 0.96889 0.0
C308 C 0.77367 0.41271 0.12478 0.0
C309 C 0.8182 0.45757 0.13738 0.0
C310 C 0.77333 0.36949 0.09279 0.0
C311 C 0.81743 0.36957 0.06934 0.0
H312 H 0.73867 0.41069 0.14175 0.0
H313 H 0.73807 0.33597 0.08379 0.0
S314 S 0.94389 0.47728 0.08985 0.0
N315 N 0.90762 0.49939 0.12607 0.0
N316 N 0.90692 0.41817 0.06153 0.0
C317 C 0.86227 0.41416 0.08104 0.0
C318 C 0.86266 0.45811 0.11631 0.0
C319 C 0.46646 0.84922 0.26799 0.0
C320 C 0.46656 0.8049 0.25031 0.0
C321 C 0.42297 0.84903 0.29941 0.0
C322 C 0.37784 0.80458 0.31066 0.0
H323 H 0.50033 0.88421 0.25885 0.0
H324 H 0.42463 0.88393 0.31447 0.0
S325 S 0.35818 0.67847 0.26933 0.0
N326 N 0.41761 0.71539 0.24506 0.0
N327 N 0.336 0.71504 0.3001 0.0
C328 C 0.3774 0.76005 0.291 0.0
C329 C 0.42173 0.76022 0.26202 0.0
loop_
_geom_bond_atom_site_label_1
_geom_bond_atom_site_label_2
_geom_bond_distance
_geom_bond_site_symmetry_2
_ccdc_geom_bond_type
Fe0 O2 1.918 . S
Fe0 O5 1.997 . S
Fe0 O6 2.002 . S
Fe0 O11 1.976 . S
Fe0 O14 1.996 . S
Fe1 O2 1.918 . S
Fe1 O9 1.997 . S
Fe1 O12 1.996 . S
Fe1 O16 1.976 . S
Fe1 O19 2.002 . S
O2 Fe0 1.918 . S
O2 Fe1 1.918 . S
O2 Fe3 1.918 . S
Fe3 O2 1.918 . S
Fe3 O4 2.002 . S
Fe3 O13 1.976 . S
Fe3 O17 1.996 . S
Fe3 O20 1.997 . S
O4 Fe3 2.002 . S
O4 C21 1.295 . S
O5 Fe0 1.997 . S
O5 C21 1.235 . S
O6 Fe0 2.002 . S
O6 C7 1.295 . S
C7 O6 1.295 . S
C7 O9 1.235 . S
C8 O13 1.287 . S
C8 O14 1.255 . S
O9 Fe1 1.997 . S
O9 C7 1.235 . S
C10 O16 1.287 . S
C10 O17 1.255 . S
O11 Fe0 1.976 . S
O11 C18 1.287 . S
O12 Fe1 1.996 . S
O12 C18 1.255 . S
O13 Fe3 1.976 . S
O13 C8 1.287 . S
O14 Fe0 1.996 . S
O14 C8 1.255 . S
C15 O19 1.295 . S
C15 O20 1.235 . S
O16 Fe1 1.976 . S
O16 C10 1.287 . S
O17 Fe3 1.996 . S
O17 C10 1.255 . S
C18 O11 1.287 . S
C18 O12 1.255 . S
O19 Fe1 2.002 . S
O19 C15 1.295 . S
O20 Fe3 1.997 . S
O20 C15 1.235 . S
C21 O4 1.295 . S
C21 O5 1.235 . S
Fe22 O24 1.918 . S
Fe22 O27 1.997 . S
Fe22 O28 2.002 . S
Fe22 O33 1.976 . S
Fe22 O36 1.996 . S
Fe23 O24 1.918 . S
Fe23 O31 1.997 . S
Fe23 O34 1.996 . S
Fe23 O38 1.976 . S
Fe23 O41 2.002 . S
O24 Fe22 1.918 . S
O24 Fe23 1.918 . S
O24 Fe25 1.918 . S
Fe25 O24 1.918 . S
Fe25 O26 2.002 . S
Fe25 O35 1.976 . S
Fe25 O39 1.996 . S
Fe25 O42 1.997 . S
O26 Fe25 2.002 . S
O26 C43 1.295 . S
O27 Fe22 1.997 . S
O27 C43 1.235 . S
O28 Fe22 2.002 . S
O28 C29 1.295 . S
C29 O28 1.295 . S
C29 O31 1.235 . S
C30 O35 1.287 . S
C30 O36 1.255 . S
O31 Fe23 1.997 . S
O31 C29 1.235 . S
C32 O38 1.287 . S
C32 O39 1.255 . S
O33 Fe22 1.976 . S
O33 C40 1.287 . S
O34 Fe23 1.996 . S
O34 C40 1.255 . S
O35 Fe25 1.976 . S
O35 C30 1.287 . S
O36 Fe22 1.996 . S
O36 C30 1.255 . S
C37 O41 1.295 . S
C37 O42 1.235 . S
O38 Fe23 1.976 . S
O38 C32 1.287 . S
O39 Fe25 1.996 . S
O39 C32 1.255 . S
C40 O33 1.287 . S
C40 O34 1.255 . S
O41 Fe23 2.002 . S
O41 C37 1.295 . S
O42 Fe25 1.997 . S
O42 C37 1.235 . S
C43 O26 1.295 . S
C43 O27 1.235 . S
Fe44 O46 1.918 . S
Fe44 O49 1.997 1_556 S
Fe44 O50 2.002 . S
Fe44 O55 1.976 . S
Fe44 O58 1.996 . S
Fe45 O46 1.918 . S
Fe45 O53 1.997 . S
Fe45 O56 1.996 . S
Fe45 O60 1.976 . S
Fe45 O63 2.002 . S
O46 Fe44 1.918 . S
O46 Fe45 1.918 . S
O46 Fe47 1.918 1_556 S
Fe47 O46 1.918 1_554 S
Fe47 O48 2.002 . S
Fe47 O57 1.976 . S
Fe47 O61 1.996 1_554 S
Fe47 O64 1.997 . S
O48 Fe47 2.002 . S
O48 C65 1.295 . S
O49 Fe44 1.997 1_554 S
O49 C65 1.235 . S
O50 Fe44 2.002 . S
O50 C51 1.295 . S
C51 O50 1.295 . S
C51 O53 1.235 . S
C52 O57 1.285 1_556 S
C52 O58 1.255 . S
O53 Fe45 1.997 . S
O53 C51 1.235 . S
C54 O60 1.287 . S
C54 O61 1.255 . S
O55 Fe44 1.976 . S
O55 C62 1.287 . S
O56 Fe45 1.996 . S
O56 C62 1.255 . S
O57 Fe47 1.976 . S
O57 C52 1.285 1_554 S
O58 Fe44 1.996 . S
O58 C52 1.255 . S
C59 O63 1.295 1_554 S
C59 O64 1.235 . S
O60 Fe45 1.976 . S
O60 C54 1.287 . S
O61 Fe47 1.996 1_556 S
O61 C54 1.255 . S
C62 O55 1.287 . S
C62 O56 1.255 . S
O63 Fe45 2.002 . S
O63 C59 1.295 1_556 S
O64 Fe47 1.997 . S
O64 C59 1.235 . S
C65 O48 1.295 . S
C65 O49 1.235 . S
Fe66 O68 1.918 . S
Fe66 O71 1.997 . S
Fe66 O72 2.002 . S
Fe66 O77 1.976 1_554 S
Fe66 O80 1.996 . S
Fe67 O68 1.918 1_556 S
Fe67 O75 1.997 . S
Fe67 O78 1.996 . S
Fe67 O82 1.976 . S
Fe67 O85 2.002 1_556 S
O68 Fe66 1.918 . S
O68 Fe67 1.918 1_554 S
O68 Fe69 1.918 . S
Fe69 O68 1.918 . S
Fe69 O70 2.002 . S
Fe69 O79 1.976 . S
Fe69 O83 1.996 . S
Fe69 O86 1.997 . S
O70 Fe69 2.002 . S
O70 C87 1.295 . S
O71 Fe66 1.997 . S
O71 C87 1.235 . S
O72 Fe66 2.002 . S
O72 C73 1.295 . S
C73 O72 1.295 . S
C73 O75 1.235 1_554 S
C74 O79 1.287 . S
C74 O80 1.255 . S
O75 Fe67 1.997 . S
O75 C73 1.235 1_556 S
C76 O82 1.287 . S
C76 O83 1.255 1_556 S
O77 Fe66 1.976 1_556 S
O77 C84 1.287 . S
O78 Fe67 1.996 . S
O78 C84 1.255 . S
O79 Fe69 1.976 . S
O79 C74 1.287 . S
O80 Fe66 1.996 . S
O80 C74 1.255 . S
C81 O85 1.295 . S
C81 O86 1.235 . S
O82 Fe67 1.976 . S
O82 C76 1.287 . S
O83 Fe69 1.996 . S
O83 C76 1.255 1_554 S
C84 O77 1.287 . S
C84 O78 1.255 . S
O85 Fe67 2.002 1_554 S
O85 C81 1.295 . S
O86 Fe69 1.997 . S
O86 C81 1.235 . S
C87 O70 1.295 . S
C87 O71 1.235 . S
Fe88 O90 1.918 . S
Fe88 O93 1.997 . S
Fe88 O94 2.002 . S
Fe88 O99 1.976 . S
Fe88 O102 1.996 . S
Fe89 O90 1.918 . S
Fe89 O97 1.997 . S
Fe89 O100 1.996 . S
Fe89 O104 1.976 . S
Fe89 O107 2.002 . S
O90 Fe88 1.918 . S
O90 Fe89 1.918 . S
O90 Fe91 1.918 . S
Fe91 O90 1.918 . S
Fe91 O92 2.002 . S
Fe91 O101 1.976 . S
Fe91 O105 1.996 . S
Fe91 O108 1.997 . S
O92 Fe91 2.002 . S
O92 C109 1.295 . S
O93 Fe88 1.997 . S
O93 C109 1.235 . S
O94 Fe88 2.002 . S
O94 C95 1.295 . S
C95 O94 1.295 . S
C95 O97 1.235 . S
C96 O101 1.287 . S
C96 O102 1.255 . S
O97 Fe89 1.997 . S
O97 C95 1.235 . S
C98 O104 1.287 . S
C98 O105 1.255 . S
O99 Fe88 1.976 . S
O99 C106 1.287 1_554 S
O100 Fe89 1.996 . S
O100 C106 1.255 1_554 S
O101 Fe91 1.976 . S
O101 C96 1.287 . S
O102 Fe88 1.996 . S
O102 C96 1.255 . S
C103 O107 1.295 . S
C103 O108 1.235 . S
O104 Fe89 1.976 . S
O104 C98 1.287 . S
O105 Fe91 1.996 . S
O105 C98 1.255 . S
C106 O99 1.287 1_556 S
C106 O100 1.255 1_556 S
O107 Fe89 2.002 . S
O107 C103 1.295 . S
O108 Fe91 1.997 . S
O108 C103 1.235 . S
C109 O92 1.295 . S
C109 O93 1.235 . S
Fe110 O112 1.918 . S
Fe110 O115 1.997 . S
Fe110 O116 2.002 . S
Fe110 O121 1.976 . S
Fe110 O124 1.996 . S
Fe111 O112 1.918 . S
Fe111 O119 1.997 . S
Fe111 O122 1.996 . S
Fe111 O126 1.976 . S
Fe111 O129 2.002 . S
O112 Fe110 1.918 . S
O112 Fe111 1.918 . S
O112 Fe113 1.918 . S
Fe113 O112 1.918 . S
Fe113 O114 2.002 . S
Fe113 O123 1.976 . S
Fe113 O127 1.996 . S
Fe113 O130 1.997 . S
O114 Fe113 2.002 . S
O114 C131 1.295 . S
O115 Fe110 1.997 . S
O115 C131 1.235 . S
O116 Fe110 2.002 . S
O116 C117 1.295 . S
C117 O116 1.295 . S
C117 O119 1.235 . S
C118 O123 1.287 . S
C118 O124 1.255 . S
O119 Fe111 1.997 . S
O119 C117 1.235 . S
C120 O126 1.287 . S
C120 O127 1.255 . S
O121 Fe110 1.976 . S
O121 C128 1.287 . S
O122 Fe111 1.996 . S
O122 C128 1.255 . S
O123 Fe113 1.976 . S
O123 C118 1.287 . S
O124 Fe110 1.996 . S
O124 C118 1.255 . S
C125 O129 1.295 . S
C125 O130 1.235 . S
O126 Fe111 1.976 . S
O126 C120 1.287 . S
O127 Fe113 1.996 . S
O127 C120 1.255 . S
C128 O121 1.287 . S
C128 O122 1.255 . S
O129 Fe111 2.002 . S
O129 C125 1.295 . S
O130 Fe113 1.997 . S
O130 C125 1.235 . S
C131 O114 1.295 . S
C131 O115 1.235 . S
C132 C133 1.369 . S
C132 C134 1.419 . S
C132 H136 0.930 . S
C133 C132 1.369 . S
C133 C142 1.429 . S
C134 C132 1.419 . S
C134 C135 1.363 1_554 S
C134 H137 0.929 1_554 S
C135 C134 1.363 1_556 S
C135 C141 1.428 1_556 S
H136 C132 0.930 . S
H137 C134 0.929 1_556 S
S138 N139 1.613 . S
S138 N140 1.610 1_554 S
N139 S138 1.613 . S
N139 C142 1.350 . S
N140 S138 1.610 1_556 S
N140 C141 1.351 1_556 S
C141 C135 1.428 1_554 S
C141 N140 1.351 1_554 S
C141 C142 1.434 . S
C142 C133 1.429 . S
C142 N139 1.350 . S
C142 C141 1.434 . S
C143 C144 1.369 . S
C143 C145 1.419 . S
C143 H147 0.930 . S
C144 C143 1.369 . S
C144 C153 1.429 . S
C145 C143 1.419 . S
C145 C146 1.363 . S
C145 H148 0.929 . S
C146 C145 1.363 . S
C146 C152 1.428 . S
H147 C143 0.930 . S
H148 C145 0.929 . S
S149 N150 1.613 . S
S149 N151 1.610 . S
N150 S149 1.613 . S
N150 C153 1.350 . S
N151 S149 1.610 . S
N151 C152 1.351 . S
C152 C146 1.428 . S
C152 N151 1.351 . S
C152 C153 1.434 . S
C153 C144 1.429 . S
C153 N150 1.350 . S
C153 C152 1.434 . S
C154 C155 1.369 . S
C154 C156 1.419 . S
C154 H158 0.930 . S
C155 C154 1.369 . S
C155 C164 1.429 . S
C156 C154 1.419 . S
C156 C157 1.363 . S
C156 H159 0.929 . S
C157 C156 1.363 . S
C157 C163 1.428 . S
H158 C154 0.930 . S
H159 C156 0.929 . S
S160 N161 1.613 . S
S160 N162 1.610 . S
N161 S160 1.613 . S
N161 C164 1.350 . S
N162 S160 1.610 . S
N162 C163 1.351 . S
C163 C157 1.428 . S
C163 N162 1.351 . S
C163 C164 1.434 . S
C164 C155 1.429 . S
C164 N161 1.350 . S
C164 C163 1.434 . S
C165 C166 1.369 . S
C165 C167 1.419 . S
C165 H169 0.930 . S
C166 C165 1.369 . S
C166 C175 1.429 . S
C167 C165 1.419 . S
C167 C168 1.363 . S
C167 H170 0.929 . S
C168 C167 1.363 . S
C168 C174 1.428 . S
H169 C165 0.930 . S
H170 C167 0.929 . S
S171 N172 1.613 . S
S171 N173 1.610 . S
N172 S171 1.613 . S
N172 C175 1.350 . S
N173 S171 1.610 . S
N173 C174 1.351 . S
C174 C168 1.428 . S
C174 N173 1.351 . S
C174 C175 1.434 . S
C175 C166 1.429 . S
C175 N172 1.350 . S
C175 C174 1.434 . S
C176 C177 1.369 . S
C176 C178 1.419 . S
C176 H180 0.930 . S
C177 C176 1.369 . S
C177 C186 1.429 . S
C178 C176 1.419 . S
C178 C179 1.363 . S
C178 H181 0.929 . S
C179 C178 1.363 . S
C179 C185 1.428 . S
H180 C176 0.930 . S
H181 C178 0.929 . S
S182 N183 1.613 . S
S182 N184 1.610 . S
N183 S182 1.613 . S
N183 C186 1.350 . S
N184 S182 1.610 . S
N184 C185 1.351 . S
C185 C179 1.428 . S
C185 N184 1.351 . S
C185 C186 1.434 . S
C186 C177 1.429 . S
C186 N183 1.350 . S
C186 C185 1.434 . S
C187 C188 1.369 1_556 S
C187 C189 1.419 . S
C187 H191 0.930 . S
C188 C187 1.369 1_554 S
C188 C197 1.429 1_554 S
C189 C187 1.419 . S
C189 C190 1.363 . S
C189 H192 0.929 . S
C190 C189 1.363 . S
C190 C196 1.428 . S
H191 C187 0.930 . S
H192 C189 0.929 . S
S193 N194 1.613 1_556 S
S193 N195 1.610 . S
N194 S193 1.613 1_554 S
N194 C197 1.350 1_554 S
N195 S193 1.610 . S
N195 C196 1.351 . S
C196 C190 1.428 . S
C196 N195 1.351 . S
C196 C197 1.434 . S
C197 C188 1.429 1_556 S
C197 N194 1.350 1_556 S
C197 C196 1.434 . S
C198 C199 1.369 . S
C198 C200 1.419 1_545 S
C198 H202 0.930 . S
C199 C198 1.369 . S
C199 C208 1.429 . S
C200 C198 1.419 1_565 S
C200 C201 1.363 . S
C200 H203 0.929 . S
C201 C200 1.363 . S
C201 C207 1.428 . S
H202 C198 0.930 . S
H203 C200 0.929 . S
S204 N205 1.613 1_565 S
S204 N206 1.610 . S
N205 S204 1.613 1_545 S
N205 C208 1.350 . S
N206 S204 1.610 . S
N206 C207 1.351 . S
C207 C201 1.428 . S
C207 N206 1.351 . S
C207 C208 1.434 1_565 S
C208 C199 1.429 . S
C208 N205 1.350 . S
C208 C207 1.434 1_545 S
C209 C210 1.369 . S
C209 C211 1.419 . S
C209 H213 0.930 . S
C210 C209 1.369 . S
C210 C219 1.429 . S
C211 C209 1.419 . S
C211 C212 1.363 . S
C211 H214 0.929 . S
C212 C211 1.363 . S
C212 C218 1.428 . S
H213 C209 0.930 . S
H214 C211 0.929 . S
S215 N216 1.613 . S
S215 N217 1.610 . S
N216 S215 1.613 . S
N216 C219 1.350 . S
N217 S215 1.610 . S
N217 C218 1.351 . S
C218 C212 1.428 . S
C218 N217 1.351 . S
C218 C219 1.434 . S
C219 C210 1.429 . S
C219 N216 1.350 . S
C219 C218 1.434 . S
C220 C221 1.369 . S
C220 C222 1.419 1_655 S
C220 H224 0.930 1_556 S
C221 C220 1.369 . S
C221 C230 1.429 . S
C222 C220 1.419 1_455 S
C222 C223 1.363 . S
C222 H225 0.929 . S
C223 C222 1.363 . S
C223 C229 1.428 . S
H224 C220 0.930 1_554 S
H225 C222 0.929 . S
S226 N227 1.613 . S
S226 N228 1.610 1_655 S
N227 S226 1.613 . S
N227 C230 1.350 . S
N228 S226 1.610 1_455 S
N228 C229 1.351 . S
C229 C223 1.428 . S
C229 N228 1.351 . S
C229 C230 1.434 1_455 S
C230 C221 1.429 . S
C230 N227 1.350 . S
C230 C229 1.434 1_655 S
C231 C232 1.369 1_556 S
C231 C233 1.419 1_565 S
C231 H235 0.930 . S
C232 C231 1.369 1_554 S
C232 C241 1.429 . S
C233 C231 1.419 1_545 S
C233 C234 1.363 . S
C233 H236 0.929 . S
C234 C233 1.363 . S
C234 C240 1.428 1_556 S
H235 C231 0.930 . S
H236 C233 0.929 . S
S237 N238 1.613 1_545 S
S237 N239 1.610 . S
N238 S237 1.613 1_565 S
N238 C241 1.350 . S
N239 S237 1.610 . S
N239 C240 1.351 . S
C240 C234 1.428 1_554 S
C240 N239 1.351 . S
C240 C241 1.434 1_545 S
C241 C232 1.429 . S
C241 N238 1.350 . S
C241 C240 1.434 1_565 S
C242 C243 1.369 . S
C242 C244 1.419 . S
C242 H246 0.930 . S
C243 C242 1.369 . S
C243 C252 1.429 . S
C244 C242 1.419 . S
C244 C245 1.363 . S
C244 H247 0.929 . S
C245 C244 1.363 . S
C245 C251 1.428 . S
H246 C242 0.930 . S
H247 C244 0.929 . S
S248 N249 1.613 . S
S248 N250 1.610 . S
N249 S248 1.613 . S
N249 C252 1.350 1_556 S
N250 S248 1.610 . S
N250 C251 1.351 1_556 S
C251 C245 1.428 . S
C251 N250 1.351 1_554 S
C251 C252 1.434 . S
C252 C243 1.429 . S
C252 N249 1.350 1_554 S
C252 C251 1.434 . S
C253 C254 1.369 . S
C253 C255 1.419 1_655 S
C253 H257 0.930 . S
C254 C253 1.369 . S
C254 C263 1.429 . S
C255 C253 1.419 1_455 S
C255 C256 1.363 . S
C255 H258 0.929 . S
C256 C255 1.363 . S
C256 C262 1.428 . S
H257 C253 0.930 . S
H258 C255 0.929 . S
S259 N260 1.613 1_455 S
S259 N261 1.610 . S
N260 S259 1.613 1_655 S
N260 C263 1.350 . S
N261 S259 1.610 . S
N261 C262 1.351 . S
C262 C256 1.428 . S
C262 N261 1.351 . S
C262 C263 1.434 1_455 S
C263 C254 1.429 . S
C263 N260 1.350 . S
C263 C262 1.434 1_655 S
C264 C265 1.369 . S
C264 C266 1.419 . S
C264 H268 0.930 . S
C265 C264 1.369 . S
C265 C274 1.429 . S
C266 C264 1.419 . S
C266 C267 1.363 . S
C266 H269 0.929 . S
C267 C266 1.363 . S
C267 C273 1.428 . S
H268 C264 0.930 . S
H269 C266 0.929 . S
S270 N271 1.613 . S
S270 N272 1.610 . S
N271 S270 1.613 . S
N271 C274 1.350 . S
N272 S270 1.610 . S
N272 C273 1.351 . S
C273 C267 1.428 . S
C273 N272 1.351 . S
C273 C274 1.434 . S
C274 C265 1.429 . S
C274 N271 1.350 . S
C274 C273 1.434 . S
C275 C276 1.369 . S
C275 C277 1.419 . S
C275 H279 0.930 . S
C276 C275 1.369 . S
C276 C285 1.429 . S
C277 C275 1.419 . S
C277 C278 1.363 . S
C277 H280 0.929 . S
C278 C277 1.363 . S
C278 C284 1.428 . S
H279 C275 0.930 . S
H280 C277 0.929 . S
S281 N282 1.613 . S
S281 N283 1.610 . S
N282 S281 1.613 . S
N282 C285 1.350 . S
N283 S281 1.610 . S
N283 C284 1.351 . S
C284 C278 1.428 . S
C284 N283 1.351 . S
C284 C285 1.434 . S
C285 C276 1.429 . S
C285 N282 1.350 . S
C285 C284 1.434 . S
C286 C287 1.369 . S
C286 C288 1.419 . S
C286 H290 0.930 . S
C287 C286 1.369 . S
C287 C296 1.429 . S
C288 C286 1.419 . S
C288 C289 1.363 . S
C288 H291 0.929 . S
C289 C288 1.363 . S
C289 C295 1.428 . S
H290 C286 0.930 . S
H291 C288 0.929 . S
S292 N293 1.613 . S
S292 N294 1.610 . S
N293 S292 1.613 . S
N293 C296 1.350 . S
N294 S292 1.610 . S
N294 C295 1.351 . S
C295 C289 1.428 . S
C295 N294 1.351 . S
C295 C296 1.434 . S
C296 C287 1.429 . S
C296 N293 1.350 . S
C296 C295 1.434 . S
C297 C298 1.369 . S
C297 C299 1.419 . S
C297 H301 0.930 1_556 S
C298 C297 1.369 . S
C298 C307 1.429 . S
C299 C297 1.419 . S
C299 C300 1.363 . S
C299 H302 0.929 . S
C300 C299 1.363 . S
C300 C306 1.428 . S
H301 C297 0.930 1_554 S
H302 C299 0.929 . S
S303 N304 1.613 . S
S303 N305 1.610 . S
N304 S303 1.613 . S
N304 C307 1.350 . S
N305 S303 1.610 . S
N305 C306 1.351 . S
C306 C300 1.428 . S
C306 N305 1.351 . S
C306 C307 1.434 . S
C307 C298 1.429 . S
C307 N304 1.350 . S
C307 C306 1.434 . S
C308 C309 1.369 . S
C308 C310 1.419 . S
C308 H312 0.930 . S
C309 C308 1.369 . S
C309 C318 1.429 . S
C310 C308 1.419 . S
C310 C311 1.363 . S
C310 H313 0.929 . S
C311 C310 1.363 . S
C311 C317 1.428 . S
H312 C308 0.930 . S
H313 C310 0.929 . S
S314 N315 1.613 1_556 S
S314 N316 1.610 . S
N315 S314 1.613 1_554 S
N315 C318 1.350 . S
N316 S314 1.610 . S
N316 C317 1.351 1_556 S
C317 C311 1.428 . S
C317 N316 1.351 1_554 S
C317 C318 1.434 . S
C318 C309 1.429 . S
C318 N315 1.350 . S
C318 C317 1.434 . S
C319 C320 1.369 . S
C319 C321 1.419 . S
C319 H323 0.930 . S
C320 C319 1.369 . S
C320 C329 1.429 . S
C321 C319 1.419 . S
C321 C322 1.363 . S
C321 H324 0.929 . S
C322 C321 1.363 . S
C322 C328 1.428 . S
H323 C319 0.930 . S
H324 C321 0.929 . S
S325 N326 1.613 . S
S325 N327 1.610 . S
N326 S325 1.613 . S
N326 C329 1.350 . S
N327 S325 1.610 . S
N327 C328 1.351 . S
C328 C322 1.428 . S
C328 N327 1.351 . S
C328 C329 1.434 . S
C329 C320 1.429 . S
C329 N326 1.350 . S
C329 C328 1.434 . S
C133 C10 1.532 . S
C135 C7 1.522 . S
C144 C32 1.532 . S
C146 C29 1.524 1_554 S
C155 C65 1.520 . S
C157 C62 1.530 . S
C166 C87 1.523 . S
C168 C84 1.525 . S
C177 C109 1.525 . S
C179 C106 1.531 . S
C188 C128 1.525 . S
C190 C131 1.524 . S
C199 C15 1.556 . S
C201 C118 1.568 . S
C210 C18 1.569 . S
C212 C37 1.558 . S
C221 C51 1.554 . S
C223 C40 1.569 . S
C232 C73 1.558 . S
C234 C52 1.568 . S
C243 C95 1.553 . S
C245 C74 1.569 . S
C254 C96 1.568 . S
C256 C117 1.554 . S
C265 C8 1.370 . S
C267 C103 1.359 . S
C276 C30 1.370 . S
C278 C125 1.359 . S
C287 C54 1.373 . S
C289 C21 1.360 . S
C298 C76 1.375 . S
C300 C43 1.357 . S
C309 C98 1.375 . S
C311 C59 1.358 . S
C320 C81 1.355 . S
C322 C120 1.372 . S
