# Generated by pormake.
# Topology why, (6)-cn, num edge types: 1
# Building blocks:
#     Node 0, Type 0, BuildingBlock: CIFDUS_clean_sbu_1, # of connection points: 6
#     Node 1, Type 0, BuildingBlock: CIFDUS_clean_sbu_1, # of connection points: 6
#     Node 2, Type 0, BuildingBlock: CIFDUS_clean_sbu_1, # of connection points: 6
#     Node 3, Type 0, BuildingBlock: CIFDUS_clean_sbu_1, # of connection points: 6
#     Node 4, Type 0, BuildingBlock: CIFDUS_clean_sbu_1, # of connection points: 6
#     Node 5, Type 0, BuildingBlock: CIFDUS_clean_sbu_1, # of connection points: 6
#     Node 6, Type 0, BuildingBlock: CIFDUS_clean_sbu_1, # of connection points: 6
#     Node 7, Type 0, BuildingBlock: CIFDUS_clean_sbu_1, # of connection points: 6
#     Node 8, Type 0, BuildingBlock: CIFDUS_clean_sbu_1, # of connection points: 6
#     Node 9, Type 0, BuildingBlock: CIFDUS_clean_sbu_1, # of connection points: 6
#     Node 10, Type 0, BuildingBlock: CIFDUS_clean_sbu_1, # of connection points: 6
#     Node 11, Type 0, BuildingBlock: CIFDUS_clean_sbu_1, # of connection points: 6
#     Node 12, Type 0, BuildingBlock: CIFDUS_clean_sbu_1, # of connection points: 6
#     Node 13, Type 0, BuildingBlock: CIFDUS_clean_sbu_1, # of connection points: 6
#     Node 14, Type 0, BuildingBlock: CIFDUS_clean_sbu_1, # of connection points: 6
#     Node 15, Type 0, BuildingBlock: CIFDUS_clean_sbu_1, # of connection points: 6
#     Edge 16, Type (0, 0), BuildingBlock: AJUNOK_clean_linker_0, # of connection points: 2
#     Edge 17, Type (0, 0), BuildingBlock: AJUNOK_clean_linker_0, # of connection points: 2
#     Edge 18, Type (0, 0), BuildingBlock: AJUNOK_clean_linker_0, # of connection points: 2
#     Edge 19, Type (0, 0), BuildingBlock: AJUNOK_clean_linker_0, # of connection points: 2
#     Edge 20, Type (0, 0), BuildingBlock: AJUNOK_clean_linker_0, # of connection points: 2
#     Edge 21, Type (0, 0), BuildingBlock: AJUNOK_clean_linker_0, # of connection points: 2
#     Edge 22, Type (0, 0), BuildingBlock: AJUNOK_clean_linker_0, # of connection points: 2
#     Edge 23, Type (0, 0), BuildingBlock: AJUNOK_clean_linker_0, # of connection points: 2
#     Edge 24, Type (0, 0), BuildingBlock: AJUNOK_clean_linker_0, # of connection points: 2
#     Edge 25, Type (0, 0), BuildingBlock: AJUNOK_clean_linker_0, # of connection points: 2
#     Edge 26, Type (0, 0), BuildingBlock: AJUNOK_clean_linker_0, # of connection points: 2
#     Edge 27, Type (0, 0), BuildingBlock: AJUNOK_clean_linker_0, # of connection points: 2
#     Edge 28, Type (0, 0), BuildingBlock: AJUNOK_clean_linker_0, # of connection points: 2
#     Edge 29, Type (0, 0), BuildingBlock: AJUNOK_clean_linker_0, # of connection points: 2
#     Edge 30, Type (0, 0), BuildingBlock: AJUNOK_clean_linker_0, # of connection points: 2
#     Edge 31, Type (0, 0), BuildingBlock: AJUNOK_clean_linker_0, # of connection points: 2
#     Edge 32, Type (0, 0), BuildingBlock: AJUNOK_clean_linker_0, # of connection points: 2
#     Edge 33, Type (0, 0), BuildingBlock: AJUNOK_clean_linker_0, # of connection points: 2
#     Edge 34, Type (0, 0), BuildingBlock: AJUNOK_clean_linker_0, # of connection points: 2
#     Edge 35, Type (0, 0), BuildingBlock: AJUNOK_clean_linker_0, # of connection points: 2
#     Edge 36, Type (0, 0), BuildingBlock: AJUNOK_clean_linker_0, # of connection points: 2
#     Edge 37, Type (0, 0), BuildingBlock: AJUNOK_clean_linker_0, # of connection points: 2
#     Edge 38, Type (0, 0), BuildingBlock: AJUNOK_clean_linker_0, # of connection points: 2
#     Edge 39, Type (0, 0), BuildingBlock: AJUNOK_clean_linker_0, # of connection points: 2
#     Edge 40, Type (0, 0), BuildingBlock: AJUNOK_clean_linker_0, # of connection points: 2
#     Edge 41, Type (0, 0), BuildingBlock: AJUNOK_clean_linker_0, # of connection points: 2
#     Edge 42, Type (0, 0), BuildingBlock: AJUNOK_clean_linker_0, # of connection points: 2
#     Edge 43, Type (0, 0), BuildingBlock: AJUNOK_clean_linker_0, # of connection points: 2
#     Edge 44, Type (0, 0), BuildingBlock: AJUNOK_clean_linker_0, # of connection points: 2
#     Edge 45, Type (0, 0), BuildingBlock: AJUNOK_clean_linker_0, # of connection points: 2
#     Edge 46, Type (0, 0), BuildingBlock: AJUNOK_clean_linker_0, # of connection points: 2
#     Edge 47, Type (0, 0), BuildingBlock: AJUNOK_clean_linker_0, # of connection points: 2
#     Edge 48, Type (0, 0), BuildingBlock: AJUNOK_clean_linker_0, # of connection points: 2
#     Edge 49, Type (0, 0), BuildingBlock: AJUNOK_clean_linker_0, # of connection points: 2
#     Edge 50, Type (0, 0), BuildingBlock: AJUNOK_clean_linker_0, # of connection points: 2
#     Edge 51, Type (0, 0), BuildingBlock: AJUNOK_clean_linker_0, # of connection points: 2
#     Edge 52, Type (0, 0), BuildingBlock: AJUNOK_clean_linker_0, # of connection points: 2
#     Edge 53, Type (0, 0), BuildingBlock: AJUNOK_clean_linker_0, # of connection points: 2
#     Edge 54, Type (0, 0), BuildingBlock: AJUNOK_clean_linker_0, # of connection points: 2
#     Edge 55, Type (0, 0), BuildingBlock: AJUNOK_clean_linker_0, # of connection points: 2
#     Edge 56, Type (0, 0), BuildingBlock: AJUNOK_clean_linker_0, # of connection points: 2
#     Edge 57, Type (0, 0), BuildingBlock: AJUNOK_clean_linker_0, # of connection points: 2
#     Edge 58, Type (0, 0), BuildingBlock: AJUNOK_clean_linker_0, # of connection points: 2
#     Edge 59, Type (0, 0), BuildingBlock: AJUNOK_clean_linker_0, # of connection points: 2
#     Edge 60, Type (0, 0), BuildingBlock: AJUNOK_clean_linker_0, # of connection points: 2
#     Edge 61, Type (0, 0), BuildingBlock: AJUNOK_clean_linker_0, # of connection points: 2
#     Edge 62, Type (0, 0), BuildingBlock: AJUNOK_clean_linker_0, # of connection points: 2
#     Edge 63, Type (0, 0), BuildingBlock: AJUNOK_clean_linker_0, # of connection points: 2
# Relax obj value: 0.193
# Max RMSD: 0.134
# Mean RMSD: 0.134
data_MOF--net-why--node1-CIFDUS_clean_sbu_1--edge1-AJUNOK_clean_linker_0
_symmetry_space_group_name_H-M    P1
_symmetry_Int_Tables_number       1
_symmetry_cell_setting            triclinic
loop_
_symmetry_equiv_pos_as_xyz
'x, y, z'
_cell_length_a     35.312112
_cell_length_b     35.344366
_cell_length_c     20.118014
_cell_angle_alpha  89.928504
_cell_angle_beta   89.831039
_cell_angle_gamma 89.867308
loop_
_atom_site_label
_atom_site_type_symbol
_atom_site_fract_x
_atom_site_fract_y
_atom_site_fract_z
_atom_type_partial_charge
O0 O 0.3563 0.21381 0.04658 0.0
Mn1 Mn 0.35765 0.16927 0.1152 0.0
O2 O 0.34061 0.18397 0.95187 0.0
Mn3 Mn 0.33122 0.13762 0.99083 0.0
O4 O 0.35926 0.12308 0.18122 0.0
O5 O 0.40293 0.1948 0.16081 0.0
Mn6 Mn 0.39401 0.19003 0.24776 0.0
O7 O 0.31831 0.19725 0.17778 0.0
O8 O 0.3945 0.13894 0.2694 0.0
O9 O 0.39952 0.14282 0.05596 0.0
O10 O 0.3698 0.10348 0.99034 0.0
O11 O 0.43882 0.21535 0.24209 0.0
O12 O 0.34983 0.2159 0.2689 0.0
C13 C 0.28152 0.12825 1.0384 0.0
C14 C 0.35019 0.21351 0.98352 0.0
C15 C 0.37565 0.1148 0.23647 0.0
C16 C 0.43414 0.21187 0.17859 0.0
C17 C 0.31958 0.21401 0.23478 0.0
C18 C 0.40026 0.11583 1.01355 0.0
O19 O 0.31005 0.14437 0.07021 0.0
O20 O 0.28621 0.11768 0.97719 0.0
O21 O 0.537 0.60661 0.29395 0.0
Mn22 Mn 0.57903 0.60836 0.36622 0.0
O23 O 0.57184 0.60078 0.20124 0.0
Mn24 Mn 0.61679 0.59041 0.24495 0.0
O25 O 0.62333 0.61012 0.43605 0.0
O26 O 0.55018 0.65121 0.41331 0.0
Mn27 Mn 0.55378 0.6413 0.49972 0.0
O28 O 0.55059 0.56637 0.42319 0.0
O29 O 0.60424 0.64365 0.5246 0.0
O30 O 0.60391 0.65354 0.31355 0.0
O31 O 0.64975 0.62971 0.2543 0.0
O32 O 0.52606 0.68474 0.49507 0.0
O33 O 0.52948 0.59594 0.51527 0.0
C34 C 0.62647 0.53798 0.28216 0.0
C35 C 0.54005 0.60538 0.23018 0.0
C36 C 0.62976 0.62599 0.4925 0.0
C37 C 0.53101 0.68113 0.4316 0.0
C38 C 0.53191 0.56667 0.47867 0.0
C39 C 0.63316 0.65825 0.27703 0.0
O40 O 0.60757 0.56321 0.31828 0.0
O41 O 0.63925 0.54761 0.22405 0.0
O42 O 0.14319 0.7832 0.55358 0.0
Mn43 Mn 0.13908 0.8268 0.62237 0.0
O44 O 0.15295 0.81547 0.45913 0.0
Mn45 Mn 0.1627 0.86133 0.50035 0.0
O46 O 0.13492 0.87256 0.68938 0.0
O47 O 0.09481 0.79941 0.66682 0.0
Mn48 Mn 0.10138 0.80391 0.75401 0.0
O49 O 0.1787 0.79921 0.68537 0.0
O50 O 0.09822 0.85482 0.77526 0.0
O51 O 0.09617 0.85119 0.56258 0.0
O52 O 0.12392 0.89521 0.50429 0.0
O53 O 0.05788 0.77649 0.74452 0.0
O54 O 0.14644 0.7803 0.77612 0.0
C55 C 0.21346 0.87059 0.54376 0.0
C56 C 0.14691 0.78456 0.48998 0.0
C57 C 0.1168 0.87984 0.74364 0.0
C58 C 0.06394 0.781 0.68152 0.0
C59 C 0.17702 0.78249 0.74263 0.0
C60 C 0.09406 0.87947 0.52308 0.0
O61 O 0.18622 0.85317 0.57738 0.0
O62 O 0.20682 0.88244 0.48386 0.0
O63 O 0.96665 0.39588 0.80113 0.0
Mn64 Mn 0.92343 0.393 0.87209 0.0
O65 O 0.93282 0.40536 0.70777 0.0
Mn66 Mn 0.88717 0.41553 0.74954 0.0
O67 O 0.87809 0.39077 0.94062 0.0
O68 O 0.95106 0.34878 0.91772 0.0
Mn69 Mn 0.94673 0.35801 1.00435 0.0
O70 O 0.95105 0.43375 0.93269 0.0
O71 O 0.8963 0.35726 1.02948 0.0
O72 O 0.89841 0.34946 0.81449 0.0
O73 O 0.85395 0.37635 0.75541 0.0
O74 O 0.97353 0.31412 0.99976 0.0
O75 O 0.97125 0.40252 1.02337 0.0
C76 C 0.87864 0.46649 0.79361 0.0
C77 C 0.96399 0.39921 0.73754 0.0
C78 C 0.87119 0.37556 0.99766 0.0
C79 C 0.96947 0.31835 0.9362 0.0
C80 C 0.96801 0.43276 0.98962 0.0
C81 C 0.8698 0.34683 0.77587 0.0
O82 O 0.89632 0.43905 0.826 0.0
O83 O 0.86587 0.45991 0.73434 0.0
O84 O 0.64169 0.78318 1.03955 0.0
Mn85 Mn 0.63687 0.82521 0.9678 0.0
O86 O 0.64317 0.82023 0.13011 0.0
Mn87 Mn 0.6548 0.86449 0.0843 0.0
O88 O 0.63229 0.86949 0.8983 0.0
O89 O 0.59406 0.79585 0.92306 0.0
Mn90 Mn 0.60257 0.79854 0.83603 0.0
O91 O 0.67841 0.79861 0.90777 0.0
O92 O 0.59913 0.84889 0.81044 0.0
O93 O 0.59194 0.84867 1.02412 0.0
O94 O 0.61662 0.89822 0.06955 0.0
O95 O 0.55944 0.77056 0.84459 0.0
O96 O 0.64832 0.77506 0.81854 0.0
C97 C 0.70764 0.87294 0.0493 0.0
C98 C 0.64145 0.78777 0.10293 0.0
C99 C 0.61584 0.87511 0.84205 0.0
C100 C 0.56391 0.77655 0.90755 0.0
C101 C 0.67825 0.77988 0.8526 0.0
C102 C 0.58767 0.87976 0.05534 0.0
O103 O 0.68296 0.85372 1.01287 0.0
O104 O 0.69737 0.88656 0.10643 0.0
O105 O 0.46566 0.39265 0.78387 0.0
Mn106 Mn 0.42237 0.38969 0.71468 0.0
O107 O 0.43314 0.40007 0.87914 0.0
Mn108 Mn 0.38675 0.40985 0.83918 0.0
O109 O 0.37692 0.38638 0.6474 0.0
O110 O 0.45052 0.34697 0.66769 0.0
Mn111 Mn 0.44646 0.35467 0.58082 0.0
O112 O 0.44877 0.43095 0.65363 0.0
O113 O 0.39541 0.35199 0.55914 0.0
O114 O 0.39907 0.34538 0.77142 0.0
O115 O 0.35409 0.37004 0.83234 0.0
O116 O 0.47453 0.31122 0.5899 0.0
O117 O 0.46995 0.40033 0.56247 0.0
C118 C 0.3771 0.46147 0.79729 0.0
C119 C 0.46411 0.39483 0.84772 0.0
C120 C 0.37007 0.36978 0.59169 0.0
C121 C 0.46978 0.31666 0.65298 0.0
C122 C 0.46645 0.43031 0.59715 0.0
C123 C 0.3704 0.34133 0.80952 0.0
O124 O 0.39497 0.43477 0.76329 0.0
O125 O 0.36468 0.45369 0.85648 0.0
O126 O 0.85407 0.21554 0.54452 0.0
Mn127 Mn 0.85631 0.17186 0.47464 0.0
O128 O 0.84564 0.18277 0.63889 0.0
Mn129 Mn 0.83415 0.13711 0.59833 0.0
O130 O 0.85857 0.12574 0.40804 0.0
O131 O 0.89967 0.19986 0.42665 0.0
Mn132 Mn 0.89006 0.1923 0.3406 0.0
O133 O 0.81481 0.1988 0.41495 0.0
O134 O 0.89478 0.14152 0.32096 0.0
O135 O 0.90014 0.14687 0.53202 0.0
O136 O 0.87229 0.1027 0.59035 0.0
O137 O 0.93231 0.2213 0.34075 0.0
O138 O 0.84377 0.21341 0.31869 0.0
C139 C 0.78306 0.1281 0.55532 0.0
C140 C 0.85191 0.21378 0.60846 0.0
C141 C 0.87586 0.11731 0.35352 0.0
C142 C 0.92904 0.21881 0.40477 0.0
C143 C 0.81438 0.21253 0.3554 0.0
C144 C 0.90218 0.11801 0.57042 0.0
O145 O 0.81038 0.14529 0.52189 0.0
O146 O 0.78949 0.11703 0.61576 0.0
O147 O 0.03448 0.60398 0.29771 0.0
Mn148 Mn 0.07818 0.60665 0.22761 0.0
O149 O 0.06572 0.58852 0.39116 0.0
Mn150 Mn 0.11176 0.58009 0.35009 0.0
O151 O 0.12359 0.60909 0.15962 0.0
O152 O 0.05086 0.65174 0.18333 0.0
Mn153 Mn 0.05636 0.64322 0.09631 0.0
O154 O 0.04971 0.56745 0.16645 0.0
O155 O 0.10698 0.64563 0.07347 0.0
O156 O 0.10442 0.64857 0.28685 0.0
O157 O 0.14541 0.61885 0.34993 0.0
O158 O 0.02928 0.68679 0.10072 0.0
O159 O 0.03244 0.59854 0.0739 0.0
C160 C 0.12217 0.531 0.30228 0.0
C161 C 0.03558 0.59746 0.3606 0.0
C162 C 0.13136 0.62615 0.10466 0.0
C163 C 0.03256 0.68218 0.16433 0.0
C164 C 0.03354 0.56859 0.109 0.0
C165 C 0.13163 0.64923 0.32879 0.0
O166 O 0.10488 0.55912 0.27074 0.0
O167 O 0.13275 0.53565 0.36344 0.0
O168 O 0.85311 0.71221 0.54593 0.0
Mn169 Mn 0.8575 0.67152 0.62023 0.0
O170 O 0.84851 0.67492 0.45635 0.0
Mn171 Mn 0.83911 0.6307 0.50346 0.0
O172 O 0.86177 0.62822 0.69183 0.0
O173 O 0.90033 0.70188 0.66327 0.0
Mn174 Mn 0.89218 0.69921 0.75036 0.0
O175 O 0.8158 0.69949 0.67815 0.0
O176 O 0.89666 0.64922 0.77703 0.0
O177 O 0.90239 0.64708 0.56635 0.0
O178 O 0.87886 0.59828 0.51562 0.0
O179 O 0.93467 0.72795 0.74158 0.0
O180 O 0.84625 0.72219 0.76774 0.0
C181 C 0.78696 0.62175 0.54289 0.0
C182 C 0.85168 0.70757 0.48248 0.0
C183 C 0.87916 0.6229 0.74722 0.0
C184 C 0.93008 0.72191 0.67866 0.0
C185 C 0.81641 0.71854 0.73299 0.0
C186 C 0.90731 0.61627 0.53458 0.0
O187 O 0.81228 0.64167 0.57645 0.0
O188 O 0.7963 0.60745 0.48578 0.0
O189 O 0.03227 0.10501 0.80317 0.0
Mn190 Mn 0.0746 0.10811 0.87475 0.0
O191 O 0.06659 0.09871 0.70961 0.0
Mn192 Mn 0.11252 0.08925 0.7514 0.0
O193 O 0.11925 0.11128 0.94376 0.0
O194 O 0.04543 0.15046 0.92203 0.0
Mn195 Mn 0.04831 0.14072 1.00855 0.0
O196 O 0.04784 0.06565 0.93342 0.0
O197 O 0.09887 0.14351 1.03322 0.0
O198 O 0.09838 0.15314 0.81987 0.0
O199 O 0.14456 0.12929 0.76084 0.0
O200 O 0.02043 0.1842 1.00225 0.0
O201 O 0.02468 0.09493 1.02423 0.0
C202 C 0.12163 0.03736 0.79284 0.0
C203 C 0.03489 0.10311 0.73932 0.0
C204 C 0.125 0.12698 1.00062 0.0
C205 C 0.0263 0.1806 0.93904 0.0
C206 C 0.02917 0.06536 0.98895 0.0
C207 C 0.12736 0.15777 0.78253 0.0
O208 O 0.10308 0.06385 0.82615 0.0
O209 O 0.13538 0.04564 0.73478 0.0
O210 O 0.64224 0.27675 0.05002 0.0
Mn211 Mn 0.64207 0.32363 0.11558 0.0
O212 O 0.68259 0.29101 0.96918 0.0
Mn213 Mn 0.67498 0.34054 0.98855 0.0
O214 O 0.64033 0.37036 0.18114 0.0
O215 O 0.59685 0.29803 0.16155 0.0
Mn216 Mn 0.60445 0.3049 0.2484 0.0
O217 O 0.68071 0.29496 0.17803 0.0
O218 O 0.6023 0.35614 0.2669 0.0
O219 O 0.60144 0.35074 0.05578 0.0
O220 O 0.63028 0.35983 0.95903 0.0
O221 O 0.56048 0.27807 0.24295 0.0
O222 O 0.64926 0.28099 0.27235 0.0
C223 C 0.71636 0.36782 1.03533 0.0
C224 C 0.6613 0.26763 0.9979 0.0
C225 C 0.62248 0.37961 0.23478 0.0
C226 C 0.56601 0.28025 0.17941 0.0
C227 C 0.67915 0.28015 0.23671 0.0
C228 C 0.60105 0.36127 0.99485 0.0
O229 O 0.68954 0.35087 0.07133 0.0
O230 O 0.71339 0.36968 0.97106 0.0
O231 O 0.46122 0.89066 0.2957 0.0
Mn232 Mn 0.41955 0.88761 0.36865 0.0
O233 O 0.42531 0.89335 0.20401 0.0
Mn234 Mn 0.38009 0.90347 0.24805 0.0
O235 O 0.3755 0.88438 0.43924 0.0
O236 O 0.44982 0.84624 0.41596 0.0
Mn237 Mn 0.44696 0.85591 0.50237 0.0
O238 O 0.44607 0.93077 0.42512 0.0
O239 O 0.39662 0.85227 0.52818 0.0
O240 O 0.39649 0.84147 0.31654 0.0
O241 O 0.34834 0.86345 0.26139 0.0
O242 O 0.4759 0.81313 0.49576 0.0
O243 O 0.4696 0.90224 0.5164 0.0
C244 C 0.3702 0.95623 0.2845 0.0
C245 C 0.45756 0.89061 0.23201 0.0
C246 C 0.37019 0.86859 0.49625 0.0
C247 C 0.46992 0.81673 0.43262 0.0
C248 C 0.46484 0.9315 0.48031 0.0
C249 C 0.36679 0.83558 0.28215 0.0
O250 O 0.38982 0.93138 0.31995 0.0
O251 O 0.35658 0.94597 0.22752 0.0
O252 O 0.142 0.28207 0.54093 0.0
Mn253 Mn 0.14054 0.32477 0.4689 0.0
O254 O 0.15042 0.31601 0.63427 0.0
Mn255 Mn 0.16092 0.36128 0.59182 0.0
O256 O 0.13891 0.36932 0.39904 0.0
O257 O 0.09715 0.29702 0.42161 0.0
Mn258 Mn 0.10853 0.29928 0.33552 0.0
O259 O 0.18271 0.29626 0.41184 0.0
O260 O 0.10753 0.34941 0.30876 0.0
O261 O 0.09598 0.35046 0.52349 0.0
O262 O 0.12167 0.39455 0.58448 0.0
O263 O 0.06422 0.2733 0.3388 0.0
O264 O 0.15333 0.27366 0.32133 0.0
C265 C 0.21251 0.37036 0.54982 0.0
C266 C 0.14444 0.28486 0.60459 0.0
C267 C 0.12414 0.37522 0.3414 0.0
C268 C 0.06671 0.27918 0.40215 0.0
C269 C 0.18268 0.27687 0.35733 0.0
C270 C 0.09248 0.37898 0.56224 0.0
O271 O 0.18585 0.35239 0.51617 0.0
O272 O 0.20489 0.38258 0.60917 0.0
O273 O 0.96205 0.88961 0.29247 0.0
Mn274 Mn 0.91852 0.88793 0.22287 0.0
O275 O 0.92887 0.89569 0.38672 0.0
Mn276 Mn 0.88372 0.90782 0.34498 0.0
O277 O 0.87313 0.88621 0.15526 0.0
O278 O 0.94589 0.84457 0.17559 0.0
Mn279 Mn 0.94172 0.8534 0.08893 0.0
O280 O 0.94665 0.92888 0.16328 0.0
O281 O 0.89076 0.85174 0.06676 0.0
O282 O 0.89305 0.84369 0.27815 0.0
O283 O 0.84871 0.87048 0.33716 0.0
O284 O 0.96871 0.80933 0.09544 0.0
O285 O 0.96654 0.89842 0.07126 0.0
C286 C 0.8743 0.95993 0.30755 0.0
C287 C 0.96015 0.89086 0.3563 0.0
C288 C 0.86582 0.86987 0.09956 0.0
C289 C 0.96445 0.81409 0.1588 0.0
C290 C 0.96462 0.92806 0.10711 0.0
C291 C 0.8637 0.84095 0.31516 0.0
O292 O 0.89186 0.93421 0.2705 0.0
O293 O 0.86338 0.9513 0.36729 0.0
O294 O 0.35351 0.71184 1.04146 0.0
Mn295 Mn 0.35731 0.66945 0.96978 0.0
O296 O 0.34698 0.67688 0.13431 0.0
Mn297 Mn 0.33916 0.63118 0.09154 0.0
O298 O 0.36148 0.62488 0.90044 0.0
O299 O 0.3987 0.69943 0.92249 0.0
Mn300 Mn 0.39016 0.69539 0.83577 0.0
O301 O 0.31463 0.69607 0.91198 0.0
O302 O 0.39539 0.64485 0.81266 0.0
O303 O 0.40302 0.64642 1.02427 0.0
O304 O 0.37971 0.59968 0.08193 0.0
O305 O 0.43237 0.72509 0.84311 0.0
O306 O 0.34327 0.71669 0.81855 0.0
C307 C 0.28787 0.62011 0.05187 0.0
C308 C 0.35119 0.7085 0.10503 0.0
C309 C 0.37856 0.6188 0.84474 0.0
C310 C 0.42817 0.71958 0.90632 0.0
C311 C 0.31394 0.71334 0.85518 0.0
C312 C 0.408 0.61719 0.0606 0.0
O313 O 0.31318 0.63967 1.01729 0.0
O314 O 0.29686 0.60725 0.11017 0.0
O315 O 0.53096 0.10215 0.78611 0.0
Mn316 Mn 0.57383 0.10628 0.7161 0.0
O317 O 0.56634 0.09699 0.87805 0.0
Mn318 Mn 0.6107 0.08407 0.83322 0.0
O319 O 0.61902 0.11007 0.64816 0.0
O320 O 0.54651 0.15126 0.6729 0.0
Mn321 Mn 0.54975 0.14357 0.58558 0.0
O322 O 0.54603 0.06693 0.65392 0.0
O323 O 0.60045 0.14506 0.56093 0.0
O324 O 0.59864 0.14869 0.77562 0.0
O325 O 0.64636 0.12064 0.822 0.0
O326 O 0.52353 0.1878 0.59446 0.0
O327 O 0.5243 0.09936 0.56571 0.0
C328 C 0.61784 0.03204 0.79445 0.0
C329 C 0.53438 0.10091 0.84965 0.0
C330 C 0.62576 0.12681 0.59249 0.0
C331 C 0.52853 0.18239 0.65749 0.0
C332 C 0.52733 0.06883 0.59892 0.0
C333 C 0.62961 0.15071 0.80794 0.0
O334 O 0.60013 0.05841 0.75923 0.0
O335 O 0.63057 0.04001 0.85321 0.0
C336 C 0.49923 0.20472 0.13604 0.0
C337 C 0.46508 0.2254 0.1344 0.0
C338 C 0.53466 0.22307 0.13642 0.0
C339 C 0.53731 0.26282 0.13509 0.0
H340 H 0.49854 0.17473 0.1473 0.0
H341 H 0.55957 0.20634 0.14782 0.0
S342 S 0.45704 0.32898 0.11091 0.0
N343 N 0.43677 0.287 0.1162 0.0
N344 N 0.50311 0.32141 0.11679 0.0
C345 C 0.50386 0.2831 0.12183 0.0
C346 C 0.46777 0.2644 0.12152 0.0
C347 C 0.47748 0.717 0.38457 0.0
C348 C 0.51702 0.71206 0.38824 0.0
C349 C 0.46101 0.75338 0.38458 0.0
C350 C 0.48351 0.78613 0.3882 0.0
H351 H 0.45904 0.69288 0.39184 0.0
H352 H 0.43065 0.75561 0.39173 0.0
S353 S 0.58826 0.78874 0.38259 0.0
N354 N 0.57804 0.74315 0.38362 0.0
N355 N 0.54718 0.8112 0.38183 0.0
C356 C 0.52284 0.7815 0.38078 0.0
C357 C 0.53962 0.74451 0.38134 0.0
C358 C 0.00159 0.7912 0.6308 0.0
C359 C 0.03419 0.76833 0.63477 0.0
C360 C 0.9651 0.77515 0.62984 0.0
C361 C 0.95996 0.73566 0.63278 0.0
H362 H 0.00389 0.82136 0.63942 0.0
H363 H 0.94104 0.79374 0.63757 0.0
S364 S 0.03618 0.66383 0.6221 0.0
N365 N 0.05897 0.70459 0.62503 0.0
N366 N 0.99059 0.67451 0.62306 0.0
C367 C 0.99226 0.71289 0.62404 0.0
C368 C 0.02941 0.72924 0.62522 0.0
C369 C 0.02305 0.28118 0.89234 0.0
C370 C 0.98363 0.2875 0.89273 0.0
C371 C 0.03824 0.24425 0.89363 0.0
C372 C 0.01457 0.21226 0.89514 0.0
H373 H 0.04207 0.30466 0.90109 0.0
H374 H 0.06827 0.24096 0.90308 0.0
S375 S 0.91008 0.21345 0.88036 0.0
N376 N 0.92188 0.25865 0.88141 0.0
N377 N 0.95026 0.18952 0.88409 0.0
C378 C 0.97566 0.2183 0.8848 0.0
C379 C 0.96023 0.25589 0.88328 0.0
C380 C 0.50096 0.78783 0.9559 0.0
C381 C 0.5332 0.76438 0.95304 0.0
C382 C 0.46419 0.77241 0.95473 0.0
C383 C 0.45841 0.73303 0.95136 0.0
H384 H 0.50399 0.818 0.94801 0.0
H385 H 0.44057 0.79145 0.94635 0.0
S386 S 0.5332 0.65978 0.96211 0.0
N387 N 0.55669 0.70015 0.96173 0.0
N388 N 0.48783 0.67127 0.96013 0.0
C389 C 0.49015 0.70962 0.9607 0.0
C390 C 0.52756 0.72531 0.96149 0.0
C391 C 0.52388 0.28221 0.70113 0.0
C392 C 0.48434 0.28758 0.69973 0.0
C393 C 0.53986 0.24564 0.70335 0.0
C394 C 0.51684 0.21316 0.70334 0.0
H395 H 0.54242 0.30583 0.69031 0.0
H396 H 0.56997 0.24281 0.69395 0.0
S397 S 0.41251 0.21256 0.7225 0.0
N398 N 0.42326 0.2579 0.71619 0.0
N399 N 0.45316 0.18934 0.71935 0.0
C400 C 0.47789 0.21861 0.71461 0.0
C401 C 0.46163 0.25585 0.71292 0.0
C402 C 0.96434 0.27578 0.4363 0.0
C403 C 0.95904 0.23664 0.44546 0.0
C404 C 0.00082 0.29169 0.43461 0.0
C405 C 0.03343 0.26929 0.44348 0.0
H406 H 0.94069 0.29327 0.42085 0.0
H407 H 0.00367 0.32075 0.41805 0.0
S408 S 0.03461 0.16708 0.48301 0.0
N409 N 0.98918 0.17717 0.4739 0.0
N410 N 0.05755 0.20734 0.47272 0.0
C411 C 0.02811 0.23142 0.46247 0.0
C412 C 0.99093 0.21506 0.46332 0.0
C413 C 0.97647 0.71484 0.20897 0.0
C414 C 0.01625 0.71197 0.20772 0.0
C415 C 0.9582 0.75031 0.20659 0.0
C416 C 0.97894 0.78422 0.20389 0.0
H417 H 0.95949 0.68975 0.20106 0.0
H418 H 0.92818 0.75088 0.19622 0.0
S419 S 0.08312 0.79239 0.21671 0.0
N420 N 0.07531 0.74631 0.21639 0.0
N421 N 0.04097 0.81269 0.21374 0.0
C422 C 0.01822 0.78175 0.21393 0.0
C423 C 0.03687 0.74565 0.21561 0.0
C424 C 0.18199 0.15995 0.04685 0.0
C425 C 0.16357 0.12612 1.02926 0.0
C426 C 0.22087 0.16018 0.06243 0.0
C427 C 0.24217 0.12649 0.06256 0.0
H428 H 0.16709 0.1867 0.04317 0.0
H429 H 0.23506 0.18719 0.06731 0.0
S430 S 0.20504 0.02989 1.03369 0.0
N431 N 0.16801 0.05778 1.02227 0.0
N432 N 0.24045 0.05804 0.0539 0.0
C433 C 0.22272 0.09221 0.05315 0.0
C434 C 0.18362 0.09206 1.0354 0.0
C435 C 0.59394 0.43742 0.28875 0.0
C436 C 0.62569 0.41877 0.26107 0.0
C437 C 0.59536 0.47609 0.30591 0.0
C438 C 0.62882 0.49704 0.29713 0.0
H439 H 0.56711 0.42278 0.2928 0.0
H440 H 0.56935 0.49035 0.31994 0.0
S441 S 0.72169 0.45928 0.24075 0.0
N442 N 0.69276 0.42277 0.23556 0.0
N443 N 0.6958 0.49469 0.26944 0.0
C444 C 0.66167 0.47743 0.27683 0.0
C445 C 0.66 0.43857 0.25795 0.0
C446 C 0.31194 0.90385 0.52977 0.0
C447 C 0.33188 0.86953 0.52622 0.0
C448 C 0.27372 0.90471 0.54887 0.0
C449 C 0.25369 0.87118 0.56309 0.0
H450 H 0.32544 0.92998 0.51455 0.0
H451 H 0.25862 0.93136 0.54512 0.0
S452 S 0.29426 0.77449 0.56667 0.0
N453 N 0.33031 0.80174 0.54561 0.0
N454 N 0.25772 0.80316 0.57742 0.0
C455 C 0.27422 0.83713 0.56519 0.0
C456 C 0.31348 0.83633 0.54722 0.0
C457 C 0.84472 0.56484 0.78311 0.0
C458 C 0.8789 0.58473 0.77742 0.0
C459 C 0.84437 0.52662 0.80184 0.0
C460 C 0.87826 0.50657 0.81353 0.0
H461 H 0.81824 0.57836 0.76973 0.0
H462 H 0.8177 0.51155 0.79968 0.0
S463 S 0.97492 0.54695 0.81088 0.0
N464 N 0.94712 0.58304 0.79204 0.0
N465 N 0.94657 0.51047 0.82335 0.0
C466 C 0.91229 0.52703 0.8136 0.0
C467 C 0.9126 0.56629 0.79596 0.0
C468 C 0.7696 0.84061 1.032 0.0
C469 C 0.74875 0.87449 1.0358 0.0
C470 C 0.80831 0.83963 0.04901 0.0
C471 C 0.82696 0.87228 0.07217 0.0
H472 H 0.75527 0.8142 1.02171 0.0
H473 H 0.82295 0.81266 0.04861 0.0
S474 S 0.78635 0.96879 0.08206 0.0
N475 N 0.75095 0.94218 0.05615 0.0
N476 N 0.82292 0.93999 0.09035 0.0
C477 C 0.80714 0.90666 0.07146 0.0
C478 C 0.76827 0.90785 0.05246 0.0
C479 C 0.34384 0.56031 0.8122 0.0
C480 C 0.3781 0.5802 0.8161 0.0
C481 C 0.34317 0.5221 0.79352 0.0
C482 C 0.37682 0.502 0.77985 0.0
H483 H 0.31753 0.57391 0.82654 0.0
H484 H 0.31647 0.50713 0.79661 0.0
S485 S 0.47364 0.54213 0.77807 0.0
N486 N 0.44615 0.5783 0.79816 0.0
N487 N 0.44507 0.50569 0.76738 0.0
C488 C 0.41095 0.52232 0.77879 0.0
C489 C 0.41156 0.56161 0.79623 0.0
C490 C 0.68264 0.15805 0.5409 0.0
C491 C 0.66453 0.12507 0.56427 0.0
C492 C 0.72171 0.15805 0.52612 0.0
C493 C 0.74344 0.1249 0.53322 0.0
H494 H 0.66733 0.18463 0.53942 0.0
H495 H 0.73556 0.18482 0.51631 0.0
S496 S 0.70738 0.02964 0.57727 0.0
N497 N 0.66985 0.05744 0.58292 0.0
N498 N 0.74263 0.05719 0.5534 0.0
C499 C 0.72441 0.09098 0.54804 0.0
C500 C 0.68514 0.09114 0.56457 0.0
C501 C 0.09266 0.43145 0.28875 0.0
C502 C 0.12583 0.41359 0.31202 0.0
C503 C 0.09253 0.47023 0.27241 0.0
C504 C 0.12569 0.49194 0.27758 0.0
H505 H 0.06604 0.41627 0.2888 0.0
H506 H 0.06563 0.48408 0.26379 0.0
S507 S 0.22137 0.4561 0.32021 0.0
N508 N 0.1936 0.41883 0.32849 0.0
N509 N 0.19366 0.49104 0.29529 0.0
C510 C 0.15982 0.47291 0.29162 0.0
C511 C 0.15978 0.43396 0.31022 0.0
C512 C 0.68671 0.65543 0.54667 0.0
C513 C 0.66811 0.62314 0.52183 0.0
C514 C 0.72533 0.65407 0.56437 0.0
C515 C 0.74611 0.62019 0.55889 0.0
H516 H 0.6722 0.68246 0.54753 0.0
H517 H 0.73975 0.68029 0.57575 0.0
S518 S 0.70794 0.52634 0.51133 0.0
N519 N 0.67165 0.55548 0.50292 0.0
N520 N 0.74343 0.55256 0.53805 0.0
C521 C 0.72635 0.58701 0.54202 0.0
C522 C 0.6876 0.58858 0.52252 0.0
C523 C 0.15395 0.97577 0.79587 0.0
C524 C 0.12065 0.99664 0.80856 0.0
C525 C 0.15257 0.93764 0.77678 0.0
C526 C 0.11788 0.91865 0.77129 0.0
H527 H 0.18107 0.99005 0.79425 0.0
H528 H 0.17873 0.92336 0.76366 0.0
S529 S 0.02279 0.95917 0.80494 0.0
N530 N 0.05215 0.99479 0.81744 0.0
N531 N 0.04962 0.92236 0.78585 0.0
C532 C 0.08461 0.9381 0.78963 0.0
C533 C 0.08598 0.97727 0.80754 0.0
C534 C 0.77071 0.41018 1.02654 0.0
C535 C 0.75382 0.37954 0.06047 0.0
C536 C 0.8091 0.40948 1.00858 0.0
C537 C 0.83261 0.37919 1.02726 0.0
H538 H 0.75301 0.43207 1.00502 0.0
H539 H 0.81983 0.43176 0.9767 0.0
S540 S 0.80534 0.30003 0.1388 0.0
N541 N 0.76533 0.32326 0.12629 0.0
N542 N 0.83833 0.3232 0.09724 0.0
C543 C 0.81756 0.35209 0.07162 0.0
C544 C 0.77801 0.35225 0.08798 0.0
C545 C 0.40285 0.01768 0.30373 0.0
C546 C 0.36885 0.99734 0.29783 0.0
C547 C 0.40448 0.05647 0.28748 0.0
C548 C 0.37241 0.07577 0.26304 0.0
H549 H 0.42896 0.00291 0.31512 0.0
H550 H 0.43159 0.0707 0.28955 0.0
S551 S 0.27565 0.03661 0.24737 0.0
N552 N 0.3015 0.00067 0.27397 0.0
N553 N 0.30495 0.07281 0.24131 0.0
C554 C 0.33782 0.05643 0.26159 0.0
C555 C 0.33595 0.01745 0.27974 0.0
C556 C 0.27413 0.3394 0.52423 0.0
C557 C 0.25272 0.37286 0.53004 0.0
C558 C 0.31301 0.33893 0.54026 0.0
C559 C 0.33129 0.37173 0.56378 0.0
H560 H 0.26009 0.3128 0.51415 0.0
H561 H 0.32804 0.31218 0.53931 0.0
S562 S 0.28953 0.46774 0.57434 0.0
N563 N 0.25424 0.44061 0.54965 0.0
N564 N 0.32657 0.43944 0.58159 0.0
C565 C 0.31107 0.40589 0.56321 0.0
C566 C 0.27203 0.40653 0.54537 0.0
C567 C 0.90498 0.06041 0.2982 0.0
C568 C 0.87308 0.07843 0.3265 0.0
C569 C 0.90405 0.02177 0.28099 0.0
C570 C 0.87096 0.00037 0.29042 0.0
H571 H 0.93156 0.07546 0.29398 0.0
H572 H 0.93024 0.00788 0.26684 0.0
S573 S 0.77777 0.03656 0.34793 0.0
N574 N 0.80615 0.07351 0.35275 0.0
N575 N 0.80406 0.00158 0.31873 0.0
C576 C 0.83785 0.01942 0.31079 0.0
C577 C 0.83902 0.05823 0.32978 0.0
C578 C 0.1883 0.65402 0.04794 0.0
C579 C 0.1697 0.6224 0.07553 0.0
C580 C 0.2267 0.652 1.02913 0.0
C581 C 0.24723 0.61813 1.036 0.0
H582 H 0.17403 0.68115 0.04576 0.0
H583 H 0.24131 0.67787 1.01629 0.0
S584 S 0.209 0.52558 0.09142 0.0
N585 N 0.17293 0.55509 0.09897 0.0
N586 N 0.24439 0.55099 0.06157 0.0
C587 C 0.22744 0.58542 0.05568 0.0
C588 C 0.18891 0.58766 0.07649 0.0
C589 C 0.65237 0.9718 0.79444 0.0
C590 C 0.61918 0.99159 0.77682 0.0
C591 C 0.65126 0.93361 0.81285 0.0
C592 C 0.61713 0.9134 0.81226 0.0
H593 H 0.6787 0.98702 0.80108 0.0
H594 H 0.67698 0.92032 0.83075 0.0
S595 S 0.52353 0.95018 0.75906 0.0
N596 N 0.55203 0.98705 0.75302 0.0
N597 N 0.55025 0.91438 0.78371 0.0
C598 C 0.58456 0.93154 0.78731 0.0
C599 C 0.58556 0.97087 0.77004 0.0
C600 C 0.4698 0.12477 0.99425 0.0
C601 C 0.43568 0.10689 0.97678 0.0
C602 C 0.50178 0.12242 0.95302 0.0
C603 C 0.50054 0.1028 0.89226 0.0
H604 H 0.47153 0.14168 1.03897 0.0
H605 H 0.52735 0.13699 0.96792 0.0
S606 S 0.42006 0.04768 0.82615 0.0
N607 N 0.40417 0.06571 0.89656 0.0
N608 N 0.46403 0.06279 0.81878 0.0
C609 C 0.46732 0.08373 0.87512 0.0
C610 C 0.43501 0.08528 0.91759 0.0
C611 C 0.60716 0.71903 0.23304 0.0
C612 C 0.63826 0.69433 0.24063 0.0
C613 C 0.60834 0.74917 0.18786 0.0
C614 C 0.64019 0.75496 0.14734 0.0
H615 H 0.58097 0.71405 0.25968 0.0
H616 H 0.58386 0.76755 0.18344 0.0
S617 S 0.73018 0.7012 0.15121 0.0
N618 N 0.70303 0.67998 0.20686 0.0
N619 N 0.70445 0.7361 0.12033 0.0
C620 C 0.67182 0.73148 0.15537 0.0
C621 C 0.67103 0.70127 0.20239 0.0
C622 C 0.99172 0.88116 0.46651 0.0
C623 C 0.99486 0.8877 0.39736 0.0
C624 C 0.02378 0.87917 0.50736 0.0
C625 C 0.06014 0.88432 0.48091 0.0
H626 H 0.96423 0.87726 0.48951 0.0
H627 H 0.02009 0.87371 0.55996 0.0
S628 S 0.08428 0.90008 0.30272 0.0
N629 N 0.03763 0.89787 0.30421 0.0
N630 N 0.0978 0.89441 0.38054 0.0
C631 C 0.06379 0.89056 0.41176 0.0
C632 C 0.03121 0.89212 0.37012 0.0
C633 C 0.85188 0.246 0.71986 0.0
C634 C 0.85685 0.24825 0.65003 0.0
C635 C 0.85632 0.27776 0.76095 0.0
C636 C 0.86561 0.31297 0.73375 0.0
H637 H 0.84433 0.21948 0.74337 0.0
H638 H 0.85185 0.2749 0.814 0.0
S639 S 0.88468 0.33419 0.55584 0.0
N640 N 0.87379 0.28881 0.55683 0.0
N641 N 0.88161 0.34838 0.63381 0.0
C642 C 0.87128 0.31568 0.66451 0.0
C643 C 0.86705 0.28339 0.62272 0.0
C644 C 0.51781 0.87998 0.07586 0.0
C645 C 0.55472 0.88404 0.09993 0.0
C646 C 0.48665 0.88213 0.11907 0.0
C647 C 0.49134 0.88773 0.18819 0.0
H648 H 0.51301 0.87533 1.02335 0.0
H649 H 0.45866 0.87912 0.0979 0.0
S650 S 0.58301 0.89602 0.27659 0.0
N651 N 0.59472 0.89141 0.19756 0.0
N652 N 0.53632 0.89512 0.27857 0.0
C653 C 0.52834 0.89077 0.21294 0.0
C654 C 0.55997 0.88904 0.16889 0.0
C655 C 0.32969 0.29274 0.86337 0.0
C656 C 0.36607 0.30628 0.84821 0.0
C657 C 0.32462 0.26331 0.90929 0.0
C658 C 0.35561 0.24771 0.94349 0.0
H659 H 0.30504 0.30515 0.83985 0.0
H660 H 0.2963 0.2527 0.91827 0.0
S661 S 0.45641 0.27388 0.92337 0.0
N662 N 0.43359 0.30199 0.8714 0.0
N663 N 0.42369 0.24736 0.95916 0.0
C664 C 0.39203 0.26112 0.92933 0.0
C665 C 0.39736 0.2903 0.88129 0.0
C666 C 0.00379 0.10551 0.62716 0.0
C667 C 0.00044 0.10619 0.69731 0.0
C668 C 0.972 0.10888 0.58585 0.0
C669 C 0.93574 0.1129 0.61305 0.0
H670 H 0.03124 0.10245 0.6036 0.0
H671 H 0.97571 0.1079 0.53245 0.0
S672 S 0.91087 0.11656 0.79264 0.0
N673 N 0.95728 0.11113 0.79142 0.0
N674 N 0.89784 0.11782 0.71402 0.0
C675 C 0.93181 0.11347 0.68285 0.0
C676 C 0.96406 0.11008 0.72488 0.0
C677 C 0.14073 0.75193 0.37998 0.0
C678 C 0.14413 0.74953 0.44986 0.0
C679 C 0.1376 0.71941 0.34055 0.0
C680 C 0.13813 0.68336 0.36938 0.0
H681 H 0.14001 0.77917 0.35529 0.0
H682 H 0.13491 0.72244 0.28725 0.0
S683 S 0.14617 0.66126 0.54978 0.0
N684 N 0.14789 0.70783 0.54586 0.0
N685 N 0.14179 0.64687 0.47222 0.0
C686 C 0.14183 0.68046 0.43912 0.0
C687 C 0.1448 0.7135 0.47922 0.0
C688 C 0.96158 0.64208 0.4701 0.0
C689 C 0.94256 0.61045 0.49663 0.0
C690 C 0.99057 0.63769 0.42307 0.0
C691 C 0.00154 0.60159 0.40146 0.0
H692 H 0.95315 0.67051 0.48391 0.0
H693 H 0.00486 0.66262 0.40419 0.0
S694 S 0.96267 0.50983 0.45819 0.0
N695 N 0.93764 0.54187 0.49903 0.0
N696 N 0.99316 0.53372 0.41202 0.0
C697 C 0.98365 0.56976 0.42872 0.0
C698 C 0.95383 0.57418 0.47593 0.0
C699 C 0.16711 0.20079 0.71304 0.0
C700 C 0.1321 0.1932 0.74415 0.0
C701 C 0.17069 0.22971 0.66565 0.0
C702 C 0.13928 0.25161 0.64715 0.0
H703 H 0.19178 0.18371 0.72448 0.0
H704 H 0.19819 0.23513 0.64362 0.0
S705 S 0.04159 0.24381 0.71281 0.0
N706 N 0.06539 0.21037 0.75211 0.0
N707 N 0.07263 0.26509 0.66398 0.0
C708 C 0.1044 0.24497 0.67833 0.0
C709 C 0.10067 0.21568 0.72667 0.0
C710 C 0.52941 0.36926 0.85711 0.0
C711 C 0.49893 0.38838 0.88681 0.0
C712 C 0.56192 0.36069 0.89322 0.0
C713 C 0.56547 0.37088 0.96062 0.0
H714 H 0.52799 0.3601 0.80578 0.0
H715 H 0.58437 0.3454 0.868 0.0
S716 S 0.49475 0.42296 0.06127 0.0
N717 N 0.47471 0.41839 0.9876 0.0
N718 N 0.53643 0.40189 0.05543 0.0
C719 C 0.53541 0.39002 0.99127 0.0
C720 C 0.50205 0.39895 0.95433 0.0
C721 C 0.32372 0.76133 0.17057 0.0
C722 C 0.35569 0.74155 0.14789 0.0
C723 C 0.32726 0.79035 0.21759 0.0
C724 C 0.36281 0.8 0.24426 0.0
H725 H 0.29586 0.75429 0.15187 0.0
H726 H 0.30211 0.80591 0.23219 0.0
S727 S 0.45495 0.75497 0.20123 0.0
N728 N 0.42351 0.73208 0.15599 0.0
N729 N 0.43066 0.78677 0.24389 0.0
C730 C 0.39488 0.77947 0.22279 0.0
C731 C 0.39118 0.75019 0.17463 0.0
C732 C 0.0538 0.41794 0.64102 0.0
C733 C 0.05678 0.38569 0.5998 0.0
C734 C 0.02451 0.42168 0.68782 0.0
C735 C 0.99713 0.39336 0.69487 0.0
H736 H 0.07487 0.44013 0.63833 0.0
H737 H 0.02303 0.44698 0.7181 0.0
S738 S 0.99025 0.30434 0.59949 0.0
N739 N 0.02855 0.32523 0.56974 0.0
N740 N 0.97317 0.33314 0.65664 0.0
C741 C -0.00115 0.36167 0.65331 0.0
C742 C 0.02869 0.35763 0.60591 0.0
C743 C 0.8546 0.80942 0.42404 0.0
C744 C 0.85771 0.80625 0.35442 0.0
C745 C 0.85268 0.77747 0.46476 0.0
C746 C 0.85343 0.74091 0.4376 0.0
H747 H 0.85482 0.83694 0.44774 0.0
H748 H 0.85083 0.78162 0.51802 0.0
S749 S 0.85857 0.71756 0.25725 0.0
N750 N 0.85992 0.76425 0.25954 0.0
N751 N 0.8558 0.70355 0.33543 0.0
C752 C 0.85566 0.73736 0.36755 0.0
C753 C 0.85802 0.77016 0.32617 0.0
C754 C 0.47675 0.60285 0.0773 0.0
C755 C 0.44193 0.61517 0.10252 0.0
C756 C 0.50837 0.59984 0.11911 0.0
C757 C 0.5061 0.60909 0.18748 0.0
H758 H 0.4794 0.59497 1.02548 0.0
H759 H 0.53468 0.5898 0.09761 0.0
S760 S 0.42101 0.6452 0.2756 0.0
N761 N 0.40683 0.63798 0.19861 0.0
N762 N 0.46611 0.63291 0.27683 0.0
C763 C 0.47135 0.62213 0.21259 0.0
C764 C 0.43931 0.62502 0.17016 0.0
C765 C 0.68157 0.21493 0.92558 0.0
C766 C 0.65208 0.23391 0.95881 0.0
C767 C 0.67403 0.18944 0.87424 0.0
C768 C 0.63676 0.18266 0.8531 0.0
H769 H 0.71081 0.22063 0.9383 0.0
H770 H 0.69756 0.1748 0.85094 0.0
S771 S 0.54941 0.2252 0.92456 0.0
N772 N 0.58421 0.24418 0.96777 0.0
N773 N 0.5698 0.19633 0.8707 0.0
C774 C 0.6069 0.20137 0.88617 0.0
C775 C 0.61461 0.22684 0.9394 0.0
C776 C 0.2863 0.26086 0.30946 0.0
C777 C 0.2844 0.22981 0.26536 0.0
C778 C 0.25373 0.27515 0.34157 0.0
C779 C 0.21797 0.25878 0.3312 0.0
H780 H 0.31318 0.27458 0.31865 0.0
H781 H 0.25644 0.29981 0.37312 0.0
S782 S 0.19857 0.1733 0.22925 0.0
N783 N 0.24432 0.18092 0.21887 0.0
N784 N 0.18343 0.20728 0.27892 0.0
C785 C 0.21604 0.22674 0.28941 0.0
C786 C 0.24906 0.21244 0.25652 0.0
C787 C 0.52922 0.49588 0.49365 0.0
C788 C 0.5133 0.5318 0.50471 0.0
C789 C 0.51423 0.46347 0.52475 0.0
C790 C 0.48273 0.4656 0.56818 0.0
H791 H 0.55403 0.49289 0.46228 0.0
H792 H 0.52775 0.43648 0.5151 0.0
S793 S 0.42738 0.55219 0.60611 0.0
N794 N 0.4621 0.56705 0.55762 0.0
N795 N 0.43401 0.5062 0.61491 0.0
C796 C 0.46583 0.50114 0.5778 0.0
C797 C 0.48103 0.53413 0.54629 0.0
C798 C 0.24166 0.75276 0.7321 0.0
C799 C 0.21163 0.765 0.77258 0.0
C800 C 0.27414 0.7358 0.7594 0.0
C801 C 0.27808 0.73004 0.82862 0.0
H802 H 0.23977 0.75566 0.67873 0.0
H803 H 0.29633 0.72686 0.72554 0.0
S804 S 0.20813 0.75814 0.95725 0.0
N805 N 0.1883 0.77078 0.88637 0.0
N806 N 0.24926 0.73899 0.93707 0.0
C807 C 0.24823 0.74204 0.86979 0.0
C808 C 0.21512 0.75945 0.84202 0.0
C809 C 0.01235 0.53042 1.01043 0.0
C810 C 0.01623 0.53389 0.08011 0.0
C811 C 0.99642 0.49802 0.98128 0.0
C812 C 0.9835 0.46781 1.02049 0.0
H813 H 0.0223 0.55271 0.97779 0.0
H814 H 0.99509 0.49621 0.92771 0.0
S815 S 0.98393 0.4641 0.20556 0.0
N816 N 0.00378 0.50507 0.18744 0.0
N817 N 0.97367 0.44449 0.13344 0.0
C818 C 0.9865 0.47127 0.09038 0.0
C819 C 0.00288 0.50415 0.11993 0.0
C820 C 0.71271 0.73394 0.77862 0.0
C821 C 0.71405 0.76437 0.8241 0.0
C822 C 0.74558 0.72 0.74744 0.0
C823 C 0.78121 0.73591 0.76043 0.0
H824 H 0.68597 0.72051 0.76718 0.0
H825 H 0.74312 0.69604 0.71419 0.0
S826 S 0.79982 0.81879 0.86928 0.0
N827 N 0.75379 0.81168 0.87629 0.0
N828 N 0.81546 0.78572 0.81824 0.0
C829 C 0.78282 0.76698 0.80449 0.0
C830 C 0.74937 0.78108 0.83627 0.0
C831 C 0.72021 0.26453 0.33503 0.0
C832 C 0.71329 0.26186 0.26604 0.0
C833 C 0.75225 0.24767 0.3644 0.0
C834 C 0.77867 0.22749 0.32585 0.0
H835 H 0.70099 0.2804 0.36655 0.0
H836 H 0.75687 0.25131 0.41722 0.0
S837 S 0.77 0.20618 0.14551 0.0
N838 N 0.73314 0.2335 0.16185 0.0
N839 N 0.79324 0.20198 0.21628 0.0
C840 C 0.77114 0.2232 0.25732 0.0
C841 C 0.73856 0.24035 0.2276 0.0
C842 C 0.98141 0.03133 0.0601 0.0
C843 C 0.01285 0.02959 1.01645 0.0
C844 C 0.96671 -0.00124 0.09109 0.0
C845 C 0.9827 0.96292 0.0796 0.0
H846 H 0.96782 0.05821 0.0704 0.0
H847 H 0.94211 0.00162 0.12302 0.0
S848 S 0.06806 0.94317 0.97647 0.0
N849 N 0.0614 0.98921 0.96854 0.0
N850 N 0.03353 0.92799 1.02509 0.0
C851 C 0.01464 0.96083 1.0372 0.0
C852 C 0.02971 0.99406 1.006 0.0
C853 C 0.52652 -0.00149 0.58107 0.0
C854 C 0.51013 0.03416 0.56976 0.0
C855 C 0.51227 0.9659 0.55025 0.0
C856 C 0.481 0.96742 0.50661 0.0
H857 H 0.55105 0.9958 0.61293 0.0
H858 H 0.52601 0.93913 0.56085 0.0
S859 S 0.42594 0.05354 0.46443 0.0
N860 N 0.45972 0.06889 0.51404 0.0
N861 N 0.43293 0.00753 0.45683 0.0
C862 C 0.46413 0.00285 0.49532 0.0
C863 C 0.47864 0.03614 0.52673 0.0
loop_
_geom_bond_atom_site_label_1
_geom_bond_atom_site_label_2
_geom_bond_distance
_geom_bond_site_symmetry_2
_ccdc_geom_bond_type
O0 Mn1 2.163 . S
O0 C14 1.244 1_554 S
Mn1 O0 2.163 . S
Mn1 O4 2.160 . S
Mn1 O5 2.221 . S
Mn1 O7 2.163 . S
Mn1 O9 2.156 1_554 S
Mn1 O19 2.221 . S
O2 Mn3 2.087 . S
O2 C14 1.256 . S
Mn3 O2 2.087 . S
Mn3 O10 2.089 . S
Mn3 O19 2.290 1_556 S
Mn3 O20 2.251 . S
O4 Mn1 2.160 . S
O4 C15 1.239 . S
O5 Mn1 2.221 . S
O5 Mn6 2.290 . S
O5 C16 1.278 . S
Mn6 O5 2.290 . S
Mn6 O8 2.089 . S
Mn6 O11 2.251 . S
Mn6 O12 2.087 . S
O7 Mn1 2.163 . S
O7 C17 1.244 . S
O8 Mn6 2.089 . S
O8 C15 1.256 . S
O9 Mn1 2.156 1_556 S
O9 C18 1.245 . S
O10 Mn3 2.089 . S
O10 C18 1.256 . S
O11 Mn6 2.251 . S
O11 C16 1.241 . S
O12 Mn6 2.087 . S
O12 C17 1.256 . S
C13 O19 1.278 1_556 S
C13 O20 1.241 . S
C14 O0 1.244 1_556 S
C14 O2 1.256 . S
C15 O4 1.239 . S
C15 O8 1.256 . S
C16 O5 1.278 . S
C16 O11 1.241 . S
C17 O7 1.244 . S
C17 O12 1.256 . S
C18 O9 1.245 . S
C18 O10 1.256 . S
O19 Mn1 2.221 . S
O19 Mn3 2.290 1_554 S
O19 C13 1.278 1_554 S
O20 Mn3 2.251 . S
O20 C13 1.241 . S
O21 Mn22 2.163 . S
O21 C35 1.244 . S
Mn22 O21 2.163 . S
Mn22 O25 2.160 . S
Mn22 O26 2.221 . S
Mn22 O28 2.163 . S
Mn22 O30 2.160 . S
Mn22 O40 2.221 . S
O23 Mn24 2.087 . S
O23 C35 1.256 . S
Mn24 O23 2.087 . S
Mn24 O31 2.089 . S
Mn24 O40 2.290 . S
Mn24 O41 2.251 . S
O25 Mn22 2.160 . S
O25 C36 1.239 . S
O26 Mn22 2.221 . S
O26 Mn27 2.290 . S
O26 C37 1.278 . S
Mn27 O26 2.290 . S
Mn27 O29 2.089 . S
Mn27 O32 2.251 . S
Mn27 O33 2.087 . S
O28 Mn22 2.163 . S
O28 C38 1.244 . S
O29 Mn27 2.089 . S
O29 C36 1.256 . S
O30 Mn22 2.160 . S
O30 C39 1.239 . S
O31 Mn24 2.089 . S
O31 C39 1.256 . S
O32 Mn27 2.251 . S
O32 C37 1.241 . S
O33 Mn27 2.087 . S
O33 C38 1.256 . S
C34 O40 1.278 . S
C34 O41 1.241 . S
C35 O21 1.244 . S
C35 O23 1.256 . S
C36 O25 1.239 . S
C36 O29 1.256 . S
C37 O26 1.278 . S
C37 O32 1.241 . S
C38 O28 1.244 . S
C38 O33 1.256 . S
C39 O30 1.239 . S
C39 O31 1.256 . S
O40 Mn22 2.221 . S
O40 Mn24 2.290 . S
O40 C34 1.278 . S
O41 Mn24 2.251 . S
O41 C34 1.241 . S
O42 Mn43 2.163 . S
O42 C56 1.244 . S
Mn43 O42 2.163 . S
Mn43 O46 2.160 . S
Mn43 O47 2.221 . S
Mn43 O49 2.163 . S
Mn43 O51 2.160 . S
Mn43 O61 2.221 . S
O44 Mn45 2.087 . S
O44 C56 1.256 . S
Mn45 O44 2.087 . S
Mn45 O52 2.089 . S
Mn45 O61 2.290 . S
Mn45 O62 2.251 . S
O46 Mn43 2.160 . S
O46 C57 1.239 . S
O47 Mn43 2.221 . S
O47 Mn48 2.290 . S
O47 C58 1.278 . S
Mn48 O47 2.290 . S
Mn48 O50 2.089 . S
Mn48 O53 2.251 . S
Mn48 O54 2.087 . S
O49 Mn43 2.163 . S
O49 C59 1.244 . S
O50 Mn48 2.089 . S
O50 C57 1.256 . S
O51 Mn43 2.160 . S
O51 C60 1.239 . S
O52 Mn45 2.089 . S
O52 C60 1.256 . S
O53 Mn48 2.251 . S
O53 C58 1.241 . S
O54 Mn48 2.087 . S
O54 C59 1.256 . S
C55 O61 1.278 . S
C55 O62 1.241 . S
C56 O42 1.244 . S
C56 O44 1.256 . S
C57 O46 1.239 . S
C57 O50 1.256 . S
C58 O47 1.278 . S
C58 O53 1.241 . S
C59 O49 1.244 . S
C59 O54 1.256 . S
C60 O51 1.239 . S
C60 O52 1.256 . S
O61 Mn43 2.221 . S
O61 Mn45 2.290 . S
O61 C55 1.278 . S
O62 Mn45 2.251 . S
O62 C55 1.241 . S
O63 Mn64 2.163 . S
O63 C77 1.244 . S
Mn64 O63 2.163 . S
Mn64 O67 2.160 . S
Mn64 O68 2.221 . S
Mn64 O70 2.163 . S
Mn64 O72 2.160 . S
Mn64 O82 2.221 . S
O65 Mn66 2.087 . S
O65 C77 1.256 . S
Mn66 O65 2.087 . S
Mn66 O73 2.089 . S
Mn66 O82 2.290 . S
Mn66 O83 2.251 . S
O67 Mn64 2.160 . S
O67 C78 1.239 . S
O68 Mn64 2.221 . S
O68 Mn69 2.290 . S
O68 C79 1.278 . S
Mn69 O68 2.290 . S
Mn69 O71 2.089 . S
Mn69 O74 2.251 . S
Mn69 O75 2.087 . S
O70 Mn64 2.163 . S
O70 C80 1.244 . S
O71 Mn69 2.089 . S
O71 C78 1.256 . S
O72 Mn64 2.160 . S
O72 C81 1.239 . S
O73 Mn66 2.089 . S
O73 C81 1.256 . S
O74 Mn69 2.251 . S
O74 C79 1.241 . S
O75 Mn69 2.087 . S
O75 C80 1.256 . S
C76 O82 1.278 . S
C76 O83 1.241 . S
C77 O63 1.244 . S
C77 O65 1.256 . S
C78 O67 1.239 . S
C78 O71 1.256 . S
C79 O68 1.278 . S
C79 O74 1.241 . S
C80 O70 1.244 . S
C80 O75 1.256 . S
C81 O72 1.239 . S
C81 O73 1.256 . S
O82 Mn64 2.221 . S
O82 Mn66 2.290 . S
O82 C76 1.278 . S
O83 Mn66 2.251 . S
O83 C76 1.241 . S
O84 Mn85 2.163 . S
O84 C98 1.244 1_556 S
Mn85 O84 2.163 . S
Mn85 O88 2.160 . S
Mn85 O89 2.221 . S
Mn85 O91 2.163 . S
Mn85 O93 2.156 1_556 S
Mn85 O103 2.221 . S
O86 Mn87 2.087 . S
O86 C98 1.256 . S
Mn87 O86 2.087 . S
Mn87 O94 2.089 . S
Mn87 O103 2.290 1_554 S
Mn87 O104 2.251 . S
O88 Mn85 2.160 . S
O88 C99 1.239 . S
O89 Mn85 2.221 . S
O89 Mn90 2.290 . S
O89 C100 1.278 . S
Mn90 O89 2.290 . S
Mn90 O92 2.089 . S
Mn90 O95 2.251 . S
Mn90 O96 2.087 . S
O91 Mn85 2.163 . S
O91 C101 1.244 . S
O92 Mn90 2.089 . S
O92 C99 1.256 . S
O93 Mn85 2.156 1_554 S
O93 C102 1.245 . S
O94 Mn87 2.089 . S
O94 C102 1.256 . S
O95 Mn90 2.251 . S
O95 C100 1.241 . S
O96 Mn90 2.087 . S
O96 C101 1.256 . S
C97 O103 1.278 1_554 S
C97 O104 1.241 . S
C98 O84 1.244 1_554 S
C98 O86 1.256 . S
C99 O88 1.239 . S
C99 O92 1.256 . S
C100 O89 1.278 . S
C100 O95 1.241 . S
C101 O91 1.244 . S
C101 O96 1.256 . S
C102 O93 1.245 . S
C102 O94 1.256 . S
O103 Mn85 2.221 . S
O103 Mn87 2.290 1_556 S
O103 C97 1.278 1_556 S
O104 Mn87 2.251 . S
O104 C97 1.241 . S
O105 Mn106 2.163 . S
O105 C119 1.244 . S
Mn106 O105 2.163 . S
Mn106 O109 2.160 . S
Mn106 O110 2.221 . S
Mn106 O112 2.163 . S
Mn106 O114 2.160 . S
Mn106 O124 2.221 . S
O107 Mn108 2.087 . S
O107 C119 1.256 . S
Mn108 O107 2.087 . S
Mn108 O115 2.089 . S
Mn108 O124 2.290 . S
Mn108 O125 2.251 . S
O109 Mn106 2.160 . S
O109 C120 1.239 . S
O110 Mn106 2.221 . S
O110 Mn111 2.290 . S
O110 C121 1.278 . S
Mn111 O110 2.290 . S
Mn111 O113 2.089 . S
Mn111 O116 2.251 . S
Mn111 O117 2.087 . S
O112 Mn106 2.163 . S
O112 C122 1.244 . S
O113 Mn111 2.089 . S
O113 C120 1.256 . S
O114 Mn106 2.160 . S
O114 C123 1.239 . S
O115 Mn108 2.089 . S
O115 C123 1.256 . S
O116 Mn111 2.251 . S
O116 C121 1.241 . S
O117 Mn111 2.087 . S
O117 C122 1.256 . S
C118 O124 1.278 . S
C118 O125 1.241 . S
C119 O105 1.244 . S
C119 O107 1.256 . S
C120 O109 1.239 . S
C120 O113 1.256 . S
C121 O110 1.278 . S
C121 O116 1.241 . S
C122 O112 1.244 . S
C122 O117 1.256 . S
C123 O114 1.239 . S
C123 O115 1.256 . S
O124 Mn106 2.221 . S
O124 Mn108 2.290 . S
O124 C118 1.278 . S
O125 Mn108 2.251 . S
O125 C118 1.241 . S
O126 Mn127 2.163 . S
O126 C140 1.244 . S
Mn127 O126 2.163 . S
Mn127 O130 2.160 . S
Mn127 O131 2.221 . S
Mn127 O133 2.163 . S
Mn127 O135 2.160 . S
Mn127 O145 2.221 . S
O128 Mn129 2.087 . S
O128 C140 1.256 . S
Mn129 O128 2.087 . S
Mn129 O136 2.089 . S
Mn129 O145 2.290 . S
Mn129 O146 2.251 . S
O130 Mn127 2.160 . S
O130 C141 1.239 . S
O131 Mn127 2.221 . S
O131 Mn132 2.290 . S
O131 C142 1.278 . S
Mn132 O131 2.290 . S
Mn132 O134 2.089 . S
Mn132 O137 2.251 . S
Mn132 O138 2.087 . S
O133 Mn127 2.163 . S
O133 C143 1.244 . S
O134 Mn132 2.089 . S
O134 C141 1.256 . S
O135 Mn127 2.160 . S
O135 C144 1.239 . S
O136 Mn129 2.089 . S
O136 C144 1.256 . S
O137 Mn132 2.251 . S
O137 C142 1.241 . S
O138 Mn132 2.087 . S
O138 C143 1.256 . S
C139 O145 1.278 . S
C139 O146 1.241 . S
C140 O126 1.244 . S
C140 O128 1.256 . S
C141 O130 1.239 . S
C141 O134 1.256 . S
C142 O131 1.278 . S
C142 O137 1.241 . S
C143 O133 1.244 . S
C143 O138 1.256 . S
C144 O135 1.239 . S
C144 O136 1.256 . S
O145 Mn127 2.221 . S
O145 Mn129 2.290 . S
O145 C139 1.278 . S
O146 Mn129 2.251 . S
O146 C139 1.241 . S
O147 Mn148 2.163 . S
O147 C161 1.244 . S
Mn148 O147 2.163 . S
Mn148 O151 2.160 . S
Mn148 O152 2.221 . S
Mn148 O154 2.163 . S
Mn148 O156 2.160 . S
Mn148 O166 2.221 . S
O149 Mn150 2.087 . S
O149 C161 1.256 . S
Mn150 O149 2.087 . S
Mn150 O157 2.089 . S
Mn150 O166 2.290 . S
Mn150 O167 2.251 . S
O151 Mn148 2.160 . S
O151 C162 1.239 . S
O152 Mn148 2.221 . S
O152 Mn153 2.290 . S
O152 C163 1.278 . S
Mn153 O152 2.290 . S
Mn153 O155 2.089 . S
Mn153 O158 2.251 . S
Mn153 O159 2.087 . S
O154 Mn148 2.163 . S
O154 C164 1.244 . S
O155 Mn153 2.089 . S
O155 C162 1.256 . S
O156 Mn148 2.160 . S
O156 C165 1.239 . S
O157 Mn150 2.089 . S
O157 C165 1.256 . S
O158 Mn153 2.251 . S
O158 C163 1.241 . S
O159 Mn153 2.087 . S
O159 C164 1.256 . S
C160 O166 1.278 . S
C160 O167 1.241 . S
C161 O147 1.244 . S
C161 O149 1.256 . S
C162 O151 1.239 . S
C162 O155 1.256 . S
C163 O152 1.278 . S
C163 O158 1.241 . S
C164 O154 1.244 . S
C164 O159 1.256 . S
C165 O156 1.239 . S
C165 O157 1.256 . S
O166 Mn148 2.221 . S
O166 Mn150 2.290 . S
O166 C160 1.278 . S
O167 Mn150 2.251 . S
O167 C160 1.241 . S
O168 Mn169 2.163 . S
O168 C182 1.244 . S
Mn169 O168 2.163 . S
Mn169 O172 2.160 . S
Mn169 O173 2.221 . S
Mn169 O175 2.163 . S
Mn169 O177 2.160 . S
Mn169 O187 2.221 . S
O170 Mn171 2.087 . S
O170 C182 1.256 . S
Mn171 O170 2.087 . S
Mn171 O178 2.089 . S
Mn171 O187 2.290 . S
Mn171 O188 2.251 . S
O172 Mn169 2.160 . S
O172 C183 1.239 . S
O173 Mn169 2.221 . S
O173 Mn174 2.290 . S
O173 C184 1.278 . S
Mn174 O173 2.290 . S
Mn174 O176 2.089 . S
Mn174 O179 2.251 . S
Mn174 O180 2.087 . S
O175 Mn169 2.163 . S
O175 C185 1.244 . S
O176 Mn174 2.089 . S
O176 C183 1.256 . S
O177 Mn169 2.160 . S
O177 C186 1.239 . S
O178 Mn171 2.089 . S
O178 C186 1.256 . S
O179 Mn174 2.251 . S
O179 C184 1.241 . S
O180 Mn174 2.087 . S
O180 C185 1.256 . S
C181 O187 1.278 . S
C181 O188 1.241 . S
C182 O168 1.244 . S
C182 O170 1.256 . S
C183 O172 1.239 . S
C183 O176 1.256 . S
C184 O173 1.278 . S
C184 O179 1.241 . S
C185 O175 1.244 . S
C185 O180 1.256 . S
C186 O177 1.239 . S
C186 O178 1.256 . S
O187 Mn169 2.221 . S
O187 Mn171 2.290 . S
O187 C181 1.278 . S
O188 Mn171 2.251 . S
O188 C181 1.241 . S
O189 Mn190 2.163 . S
O189 C203 1.244 . S
Mn190 O189 2.163 . S
Mn190 O193 2.160 . S
Mn190 O194 2.221 . S
Mn190 O196 2.163 . S
Mn190 O198 2.160 . S
Mn190 O208 2.221 . S
O191 Mn192 2.087 . S
O191 C203 1.256 . S
Mn192 O191 2.087 . S
Mn192 O199 2.089 . S
Mn192 O208 2.290 . S
Mn192 O209 2.251 . S
O193 Mn190 2.160 . S
O193 C204 1.239 . S
O194 Mn190 2.221 . S
O194 Mn195 2.290 . S
O194 C205 1.278 . S
Mn195 O194 2.290 . S
Mn195 O197 2.089 . S
Mn195 O200 2.251 . S
Mn195 O201 2.087 . S
O196 Mn190 2.163 . S
O196 C206 1.244 . S
O197 Mn195 2.089 . S
O197 C204 1.256 . S
O198 Mn190 2.160 . S
O198 C207 1.239 . S
O199 Mn192 2.089 . S
O199 C207 1.256 . S
O200 Mn195 2.251 . S
O200 C205 1.241 . S
O201 Mn195 2.087 . S
O201 C206 1.256 . S
C202 O208 1.278 . S
C202 O209 1.241 . S
C203 O189 1.244 . S
C203 O191 1.256 . S
C204 O193 1.239 . S
C204 O197 1.256 . S
C205 O194 1.278 . S
C205 O200 1.241 . S
C206 O196 1.244 . S
C206 O201 1.256 . S
C207 O198 1.239 . S
C207 O199 1.256 . S
O208 Mn190 2.221 . S
O208 Mn192 2.290 . S
O208 C202 1.278 . S
O209 Mn192 2.251 . S
O209 C202 1.241 . S
O210 Mn211 2.163 . S
O210 C224 1.244 1_554 S
Mn211 O210 2.163 . S
Mn211 O214 2.160 . S
Mn211 O215 2.221 . S
Mn211 O217 2.163 . S
Mn211 O219 2.156 1_554 S
Mn211 O229 2.221 . S
O212 Mn213 2.087 . S
O212 C224 1.256 . S
Mn213 O212 2.087 . S
Mn213 O220 2.089 . S
Mn213 O229 2.290 1_556 S
Mn213 O230 2.251 . S
O214 Mn211 2.160 . S
O214 C225 1.239 . S
O215 Mn211 2.221 . S
O215 Mn216 2.290 . S
O215 C226 1.278 . S
Mn216 O215 2.290 . S
Mn216 O218 2.089 . S
Mn216 O221 2.251 . S
Mn216 O222 2.087 . S
O217 Mn211 2.163 . S
O217 C227 1.244 . S
O218 Mn216 2.089 . S
O218 C225 1.256 . S
O219 Mn211 2.156 1_556 S
O219 C228 1.245 . S
O220 Mn213 2.089 . S
O220 C228 1.256 . S
O221 Mn216 2.251 . S
O221 C226 1.241 . S
O222 Mn216 2.087 . S
O222 C227 1.256 . S
C223 O229 1.278 1_556 S
C223 O230 1.241 . S
C224 O210 1.244 1_556 S
C224 O212 1.256 . S
C225 O214 1.239 . S
C225 O218 1.256 . S
C226 O215 1.278 . S
C226 O221 1.241 . S
C227 O217 1.244 . S
C227 O222 1.256 . S
C228 O219 1.245 . S
C228 O220 1.256 . S
O229 Mn211 2.221 . S
O229 Mn213 2.290 1_554 S
O229 C223 1.278 1_554 S
O230 Mn213 2.251 . S
O230 C223 1.241 . S
O231 Mn232 2.163 . S
O231 C245 1.244 . S
Mn232 O231 2.163 . S
Mn232 O235 2.160 . S
Mn232 O236 2.221 . S
Mn232 O238 2.163 . S
Mn232 O240 2.160 . S
Mn232 O250 2.221 . S
O233 Mn234 2.087 . S
O233 C245 1.256 . S
Mn234 O233 2.087 . S
Mn234 O241 2.089 . S
Mn234 O250 2.290 . S
Mn234 O251 2.251 . S
O235 Mn232 2.160 . S
O235 C246 1.239 . S
O236 Mn232 2.221 . S
O236 Mn237 2.290 . S
O236 C247 1.278 . S
Mn237 O236 2.290 . S
Mn237 O239 2.089 . S
Mn237 O242 2.251 . S
Mn237 O243 2.087 . S
O238 Mn232 2.163 . S
O238 C248 1.244 . S
O239 Mn237 2.089 . S
O239 C246 1.256 . S
O240 Mn232 2.160 . S
O240 C249 1.239 . S
O241 Mn234 2.089 . S
O241 C249 1.256 . S
O242 Mn237 2.251 . S
O242 C247 1.241 . S
O243 Mn237 2.087 . S
O243 C248 1.256 . S
C244 O250 1.278 . S
C244 O251 1.241 . S
C245 O231 1.244 . S
C245 O233 1.256 . S
C246 O235 1.239 . S
C246 O239 1.256 . S
C247 O236 1.278 . S
C247 O242 1.241 . S
C248 O238 1.244 . S
C248 O243 1.256 . S
C249 O240 1.239 . S
C249 O241 1.256 . S
O250 Mn232 2.221 . S
O250 Mn234 2.290 . S
O250 C244 1.278 . S
O251 Mn234 2.251 . S
O251 C244 1.241 . S
O252 Mn253 2.163 . S
O252 C266 1.244 . S
Mn253 O252 2.163 . S
Mn253 O256 2.160 . S
Mn253 O257 2.221 . S
Mn253 O259 2.163 . S
Mn253 O261 2.160 . S
Mn253 O271 2.221 . S
O254 Mn255 2.087 . S
O254 C266 1.256 . S
Mn255 O254 2.087 . S
Mn255 O262 2.089 . S
Mn255 O271 2.290 . S
Mn255 O272 2.251 . S
O256 Mn253 2.160 . S
O256 C267 1.239 . S
O257 Mn253 2.221 . S
O257 Mn258 2.290 . S
O257 C268 1.278 . S
Mn258 O257 2.290 . S
Mn258 O260 2.089 . S
Mn258 O263 2.251 . S
Mn258 O264 2.087 . S
O259 Mn253 2.163 . S
O259 C269 1.244 . S
O260 Mn258 2.089 . S
O260 C267 1.256 . S
O261 Mn253 2.160 . S
O261 C270 1.239 . S
O262 Mn255 2.089 . S
O262 C270 1.256 . S
O263 Mn258 2.251 . S
O263 C268 1.241 . S
O264 Mn258 2.087 . S
O264 C269 1.256 . S
C265 O271 1.278 . S
C265 O272 1.241 . S
C266 O252 1.244 . S
C266 O254 1.256 . S
C267 O256 1.239 . S
C267 O260 1.256 . S
C268 O257 1.278 . S
C268 O263 1.241 . S
C269 O259 1.244 . S
C269 O264 1.256 . S
C270 O261 1.239 . S
C270 O262 1.256 . S
O271 Mn253 2.221 . S
O271 Mn255 2.290 . S
O271 C265 1.278 . S
O272 Mn255 2.251 . S
O272 C265 1.241 . S
O273 Mn274 2.163 . S
O273 C287 1.244 . S
Mn274 O273 2.163 . S
Mn274 O277 2.160 . S
Mn274 O278 2.221 . S
Mn274 O280 2.163 . S
Mn274 O282 2.160 . S
Mn274 O292 2.221 . S
O275 Mn276 2.087 . S
O275 C287 1.256 . S
Mn276 O275 2.087 . S
Mn276 O283 2.089 . S
Mn276 O292 2.290 . S
Mn276 O293 2.251 . S
O277 Mn274 2.160 . S
O277 C288 1.239 . S
O278 Mn274 2.221 . S
O278 Mn279 2.290 . S
O278 C289 1.278 . S
Mn279 O278 2.290 . S
Mn279 O281 2.089 . S
Mn279 O284 2.251 . S
Mn279 O285 2.087 . S
O280 Mn274 2.163 . S
O280 C290 1.244 . S
O281 Mn279 2.089 . S
O281 C288 1.256 . S
O282 Mn274 2.160 . S
O282 C291 1.239 . S
O283 Mn276 2.089 . S
O283 C291 1.256 . S
O284 Mn279 2.251 . S
O284 C289 1.241 . S
O285 Mn279 2.087 . S
O285 C290 1.256 . S
C286 O292 1.278 . S
C286 O293 1.241 . S
C287 O273 1.244 . S
C287 O275 1.256 . S
C288 O277 1.239 . S
C288 O281 1.256 . S
C289 O278 1.278 . S
C289 O284 1.241 . S
C290 O280 1.244 . S
C290 O285 1.256 . S
C291 O282 1.239 . S
C291 O283 1.256 . S
O292 Mn274 2.221 . S
O292 Mn276 2.290 . S
O292 C286 1.278 . S
O293 Mn276 2.251 . S
O293 C286 1.241 . S
O294 Mn295 2.163 . S
O294 C308 1.244 1_556 S
Mn295 O294 2.163 . S
Mn295 O298 2.160 . S
Mn295 O299 2.221 . S
Mn295 O301 2.163 . S
Mn295 O303 2.156 1_556 S
Mn295 O313 2.221 . S
O296 Mn297 2.087 . S
O296 C308 1.256 . S
Mn297 O296 2.087 . S
Mn297 O304 2.089 . S
Mn297 O313 2.290 1_554 S
Mn297 O314 2.251 . S
O298 Mn295 2.160 . S
O298 C309 1.239 . S
O299 Mn295 2.221 . S
O299 Mn300 2.290 . S
O299 C310 1.278 . S
Mn300 O299 2.290 . S
Mn300 O302 2.089 . S
Mn300 O305 2.251 . S
Mn300 O306 2.087 . S
O301 Mn295 2.163 . S
O301 C311 1.244 . S
O302 Mn300 2.089 . S
O302 C309 1.256 . S
O303 Mn295 2.156 1_554 S
O303 C312 1.245 . S
O304 Mn297 2.089 . S
O304 C312 1.256 . S
O305 Mn300 2.251 . S
O305 C310 1.241 . S
O306 Mn300 2.087 . S
O306 C311 1.256 . S
C307 O313 1.278 1_554 S
C307 O314 1.241 . S
C308 O294 1.244 1_554 S
C308 O296 1.256 . S
C309 O298 1.239 . S
C309 O302 1.256 . S
C310 O299 1.278 . S
C310 O305 1.241 . S
C311 O301 1.244 . S
C311 O306 1.256 . S
C312 O303 1.245 . S
C312 O304 1.256 . S
O313 Mn295 2.221 . S
O313 Mn297 2.290 1_556 S
O313 C307 1.278 1_556 S
O314 Mn297 2.251 . S
O314 C307 1.241 . S
O315 Mn316 2.163 . S
O315 C329 1.244 . S
Mn316 O315 2.163 . S
Mn316 O319 2.160 . S
Mn316 O320 2.221 . S
Mn316 O322 2.163 . S
Mn316 O324 2.160 . S
Mn316 O334 2.221 . S
O317 Mn318 2.087 . S
O317 C329 1.256 . S
Mn318 O317 2.087 . S
Mn318 O325 2.089 . S
Mn318 O334 2.290 . S
Mn318 O335 2.251 . S
O319 Mn316 2.160 . S
O319 C330 1.239 . S
O320 Mn316 2.221 . S
O320 Mn321 2.290 . S
O320 C331 1.278 . S
Mn321 O320 2.290 . S
Mn321 O323 2.089 . S
Mn321 O326 2.251 . S
Mn321 O327 2.087 . S
O322 Mn316 2.163 . S
O322 C332 1.244 . S
O323 Mn321 2.089 . S
O323 C330 1.256 . S
O324 Mn316 2.160 . S
O324 C333 1.239 . S
O325 Mn318 2.089 . S
O325 C333 1.256 . S
O326 Mn321 2.251 . S
O326 C331 1.241 . S
O327 Mn321 2.087 . S
O327 C332 1.256 . S
C328 O334 1.278 . S
C328 O335 1.241 . S
C329 O315 1.244 . S
C329 O317 1.256 . S
C330 O319 1.239 . S
C330 O323 1.256 . S
C331 O320 1.278 . S
C331 O326 1.241 . S
C332 O322 1.244 . S
C332 O327 1.256 . S
C333 O324 1.239 . S
C333 O325 1.256 . S
O334 Mn316 2.221 . S
O334 Mn318 2.290 . S
O334 C328 1.278 . S
O335 Mn318 2.251 . S
O335 C328 1.241 . S
C336 C337 1.369 . S
C336 C338 1.419 . S
C336 H340 0.930 . S
C337 C336 1.369 . S
C337 C346 1.429 . S
C338 C336 1.419 . S
C338 C339 1.363 . S
C338 H341 0.929 . S
C339 C338 1.363 . S
C339 C345 1.428 . S
H340 C336 0.930 . S
H341 C338 0.929 . S
S342 N343 1.613 . S
S342 N344 1.610 . S
N343 S342 1.613 . S
N343 C346 1.350 . S
N344 S342 1.610 . S
N344 C345 1.351 . S
C345 C339 1.428 . S
C345 N344 1.351 . S
C345 C346 1.434 . S
C346 C337 1.429 . S
C346 N343 1.350 . S
C346 C345 1.434 . S
C347 C348 1.369 . S
C347 C349 1.419 . S
C347 H351 0.930 . S
C348 C347 1.369 . S
C348 C357 1.429 . S
C349 C347 1.419 . S
C349 C350 1.363 . S
C349 H352 0.929 . S
C350 C349 1.363 . S
C350 C356 1.428 . S
H351 C347 0.930 . S
H352 C349 0.929 . S
S353 N354 1.613 . S
S353 N355 1.610 . S
N354 S353 1.613 . S
N354 C357 1.350 . S
N355 S353 1.610 . S
N355 C356 1.351 . S
C356 C350 1.428 . S
C356 N355 1.351 . S
C356 C357 1.434 . S
C357 C348 1.429 . S
C357 N354 1.350 . S
C357 C356 1.434 . S
C358 C359 1.369 . S
C358 C360 1.419 1_455 S
C358 H362 0.930 . S
C359 C358 1.369 . S
C359 C368 1.429 . S
C360 C358 1.419 1_655 S
C360 C361 1.363 . S
C360 H363 0.929 . S
C361 C360 1.363 . S
C361 C367 1.428 . S
H362 C358 0.930 . S
H363 C360 0.929 . S
S364 N365 1.613 . S
S364 N366 1.610 1_455 S
N365 S364 1.613 . S
N365 C368 1.350 . S
N366 S364 1.610 1_655 S
N366 C367 1.351 . S
C367 C361 1.428 . S
C367 N366 1.351 . S
C367 C368 1.434 1_655 S
C368 C359 1.429 . S
C368 N365 1.350 . S
C368 C367 1.434 1_455 S
C369 C370 1.369 1_455 S
C369 C371 1.419 . S
C369 H373 0.930 . S
C370 C369 1.369 1_655 S
C370 C379 1.429 . S
C371 C369 1.419 . S
C371 C372 1.363 . S
C371 H374 0.929 . S
C372 C371 1.363 . S
C372 C378 1.428 1_455 S
H373 C369 0.930 . S
H374 C371 0.929 . S
S375 N376 1.613 . S
S375 N377 1.610 . S
N376 S375 1.613 . S
N376 C379 1.350 . S
N377 S375 1.610 . S
N377 C378 1.351 . S
C378 C372 1.428 1_655 S
C378 N377 1.351 . S
C378 C379 1.434 . S
C379 C370 1.429 . S
C379 N376 1.350 . S
C379 C378 1.434 . S
C380 C381 1.369 . S
C380 C382 1.419 . S
C380 H384 0.930 . S
C381 C380 1.369 . S
C381 C390 1.429 . S
C382 C380 1.419 . S
C382 C383 1.363 . S
C382 H385 0.929 . S
C383 C382 1.363 . S
C383 C389 1.428 . S
H384 C380 0.930 . S
H385 C382 0.929 . S
S386 N387 1.613 . S
S386 N388 1.610 . S
N387 S386 1.613 . S
N387 C390 1.350 . S
N388 S386 1.610 . S
N388 C389 1.351 . S
C389 C383 1.428 . S
C389 N388 1.351 . S
C389 C390 1.434 . S
C390 C381 1.429 . S
C390 N387 1.350 . S
C390 C389 1.434 . S
C391 C392 1.369 . S
C391 C393 1.419 . S
C391 H395 0.930 . S
C392 C391 1.369 . S
C392 C401 1.429 . S
C393 C391 1.419 . S
C393 C394 1.363 . S
C393 H396 0.929 . S
C394 C393 1.363 . S
C394 C400 1.428 . S
H395 C391 0.930 . S
H396 C393 0.929 . S
S397 N398 1.613 . S
S397 N399 1.610 . S
N398 S397 1.613 . S
N398 C401 1.350 . S
N399 S397 1.610 . S
N399 C400 1.351 . S
C400 C394 1.428 . S
C400 N399 1.351 . S
C400 C401 1.434 . S
C401 C392 1.429 . S
C401 N398 1.350 . S
C401 C400 1.434 . S
C402 C403 1.369 . S
C402 C404 1.419 1_655 S
C402 H406 0.930 . S
C403 C402 1.369 . S
C403 C412 1.429 . S
C404 C402 1.419 1_455 S
C404 C405 1.363 . S
C404 H407 0.929 . S
C405 C404 1.363 . S
C405 C411 1.428 . S
H406 C402 0.930 . S
H407 C404 0.929 . S
S408 N409 1.613 1_455 S
S408 N410 1.610 . S
N409 S408 1.613 1_655 S
N409 C412 1.350 . S
N410 S408 1.610 . S
N410 C411 1.351 . S
C411 C405 1.428 . S
C411 N410 1.351 . S
C411 C412 1.434 1_455 S
C412 C403 1.429 . S
C412 N409 1.350 . S
C412 C411 1.434 1_655 S
C413 C414 1.369 1_655 S
C413 C415 1.419 . S
C413 H417 0.930 . S
C414 C413 1.369 1_455 S
C414 C423 1.429 . S
C415 C413 1.419 . S
C415 C416 1.363 . S
C415 H418 0.929 . S
C416 C415 1.363 . S
C416 C422 1.428 1_655 S
H417 C413 0.930 . S
H418 C415 0.929 . S
S419 N420 1.613 . S
S419 N421 1.610 . S
N420 S419 1.613 . S
N420 C423 1.350 . S
N421 S419 1.610 . S
N421 C422 1.351 . S
C422 C416 1.428 1_455 S
C422 N421 1.351 . S
C422 C423 1.434 . S
C423 C414 1.429 . S
C423 N420 1.350 . S
C423 C422 1.434 . S
C424 C425 1.369 . S
C424 C426 1.419 . S
C424 H428 0.930 . S
C425 C424 1.369 . S
C425 C434 1.429 . S
C426 C424 1.419 . S
C426 C427 1.363 1_556 S
C426 H429 0.929 1_556 S
C427 C426 1.363 1_554 S
C427 C433 1.425 1_554 S
H428 C424 0.930 . S
H429 C426 0.929 1_554 S
S430 N431 1.613 . S
S430 N432 1.610 . S
N431 S430 1.613 . S
N431 C434 1.350 . S
N432 S430 1.610 . S
N432 C433 1.351 . S
C433 C427 1.425 1_556 S
C433 N432 1.351 . S
C433 C434 1.434 . S
C434 C425 1.429 . S
C434 N431 1.350 . S
C434 C433 1.434 . S
C435 C436 1.369 . S
C435 C437 1.419 . S
C435 H439 0.930 . S
C436 C435 1.369 . S
C436 C445 1.429 . S
C437 C435 1.419 . S
C437 C438 1.363 . S
C437 H440 0.929 . S
C438 C437 1.363 . S
C438 C444 1.428 . S
H439 C435 0.930 . S
H440 C437 0.929 . S
S441 N442 1.613 . S
S441 N443 1.610 . S
N442 S441 1.613 . S
N442 C445 1.350 . S
N443 S441 1.610 . S
N443 C444 1.351 . S
C444 C438 1.428 . S
C444 N443 1.351 . S
C444 C445 1.434 . S
C445 C436 1.429 . S
C445 N442 1.350 . S
C445 C444 1.434 . S
C446 C447 1.369 . S
C446 C448 1.419 . S
C446 H450 0.930 . S
C447 C446 1.369 . S
C447 C456 1.429 . S
C448 C446 1.419 . S
C448 C449 1.363 . S
C448 H451 0.929 . S
C449 C448 1.363 . S
C449 C455 1.428 . S
H450 C446 0.930 . S
H451 C448 0.929 . S
S452 N453 1.613 . S
S452 N454 1.610 . S
N453 S452 1.613 . S
N453 C456 1.350 . S
N454 S452 1.610 . S
N454 C455 1.351 . S
C455 C449 1.428 . S
C455 N454 1.351 . S
C455 C456 1.434 . S
C456 C447 1.429 . S
C456 N453 1.350 . S
C456 C455 1.434 . S
C457 C458 1.369 . S
C457 C459 1.419 . S
C457 H461 0.930 . S
C458 C457 1.369 . S
C458 C467 1.429 . S
C459 C457 1.419 . S
C459 C460 1.363 . S
C459 H462 0.929 . S
C460 C459 1.363 . S
C460 C466 1.428 . S
H461 C457 0.930 . S
H462 C459 0.929 . S
S463 N464 1.613 . S
S463 N465 1.610 . S
N464 S463 1.613 . S
N464 C467 1.350 . S
N465 S463 1.610 . S
N465 C466 1.351 . S
C466 C460 1.428 . S
C466 N465 1.351 . S
C466 C467 1.434 . S
C467 C458 1.429 . S
C467 N464 1.350 . S
C467 C466 1.434 . S
C468 C469 1.368 1_556 S
C468 C470 1.418 1_556 S
C468 H472 0.930 . S
C469 C468 1.368 1_554 S
C469 C478 1.430 . S
C470 C468 1.418 1_554 S
C470 C471 1.364 . S
C470 H473 0.929 1_554 S
C471 C470 1.364 . S
C471 C477 1.428 . S
H472 C468 0.930 . S
H473 C470 0.929 1_556 S
S474 N475 1.613 . S
S474 N476 1.610 . S
N475 S474 1.613 . S
N475 C478 1.350 . S
N476 S474 1.610 . S
N476 C477 1.351 . S
C477 C471 1.428 . S
C477 N476 1.351 . S
C477 C478 1.434 . S
C478 C469 1.430 . S
C478 N475 1.350 . S
C478 C477 1.434 . S
C479 C480 1.369 . S
C479 C481 1.419 . S
C479 H483 0.930 . S
C480 C479 1.369 . S
C480 C489 1.429 . S
C481 C479 1.419 . S
C481 C482 1.363 . S
C481 H484 0.929 . S
C482 C481 1.363 . S
C482 C488 1.428 . S
H483 C479 0.930 . S
H484 C481 0.929 . S
S485 N486 1.613 . S
S485 N487 1.610 . S
N486 S485 1.613 . S
N486 C489 1.350 . S
N487 S485 1.610 . S
N487 C488 1.351 . S
C488 C482 1.428 . S
C488 N487 1.351 . S
C488 C489 1.434 . S
C489 C480 1.429 . S
C489 N486 1.350 . S
C489 C488 1.434 . S
C490 C491 1.369 . S
C490 C492 1.419 . S
C490 H494 0.930 . S
C491 C490 1.369 . S
C491 C500 1.429 . S
C492 C490 1.419 . S
C492 C493 1.363 . S
C492 H495 0.929 . S
C493 C492 1.363 . S
C493 C499 1.428 . S
H494 C490 0.930 . S
H495 C492 0.929 . S
S496 N497 1.613 . S
S496 N498 1.610 . S
N497 S496 1.613 . S
N497 C500 1.350 . S
N498 S496 1.610 . S
N498 C499 1.351 . S
C499 C493 1.428 . S
C499 N498 1.351 . S
C499 C500 1.434 . S
C500 C491 1.429 . S
C500 N497 1.350 . S
C500 C499 1.434 . S
C501 C502 1.369 . S
C501 C503 1.419 . S
C501 H505 0.930 . S
C502 C501 1.369 . S
C502 C511 1.429 . S
C503 C501 1.419 . S
C503 C504 1.363 . S
C503 H506 0.929 . S
C504 C503 1.363 . S
C504 C510 1.428 . S
H505 C501 0.930 . S
H506 C503 0.929 . S
S507 N508 1.613 . S
S507 N509 1.610 . S
N508 S507 1.613 . S
N508 C511 1.350 . S
N509 S507 1.610 . S
N509 C510 1.351 . S
C510 C504 1.428 . S
C510 N509 1.351 . S
C510 C511 1.434 . S
C511 C502 1.429 . S
C511 N508 1.350 . S
C511 C510 1.434 . S
C512 C513 1.369 . S
C512 C514 1.419 . S
C512 H516 0.930 . S
C513 C512 1.369 . S
C513 C522 1.429 . S
C514 C512 1.419 . S
C514 C515 1.363 . S
C514 H517 0.929 . S
C515 C514 1.363 . S
C515 C521 1.428 . S
H516 C512 0.930 . S
H517 C514 0.929 . S
S518 N519 1.613 . S
S518 N520 1.610 . S
N519 S518 1.613 . S
N519 C522 1.350 . S
N520 S518 1.610 . S
N520 C521 1.351 . S
C521 C515 1.428 . S
C521 N520 1.351 . S
C521 C522 1.434 . S
C522 C513 1.429 . S
C522 N519 1.350 . S
C522 C521 1.434 . S
C523 C524 1.369 . S
C523 C525 1.419 . S
C523 H527 0.930 1_565 S
C524 C523 1.369 . S
C524 C533 1.429 . S
C525 C523 1.419 . S
C525 C526 1.363 . S
C525 H528 0.929 . S
C526 C525 1.363 . S
C526 C532 1.428 . S
H527 C523 0.930 1_545 S
H528 C525 0.929 . S
S529 N530 1.613 . S
S529 N531 1.610 . S
N530 S529 1.613 . S
N530 C533 1.350 . S
N531 S529 1.610 . S
N531 C532 1.351 . S
C532 C526 1.428 . S
C532 N531 1.351 . S
C532 C533 1.434 . S
C533 C524 1.429 . S
C533 N530 1.350 . S
C533 C532 1.434 . S
C534 C535 1.350 1_556 S
C534 C536 1.419 . S
C534 H538 0.930 . S
C535 C534 1.350 1_554 S
C535 C544 1.438 . S
C536 C534 1.419 . S
C536 C537 1.363 . S
C536 H539 0.929 . S
C537 C536 1.363 . S
C537 C543 1.428 1_556 S
H538 C534 0.930 . S
H539 C536 0.929 . S
S540 N541 1.613 . S
S540 N542 1.610 . S
N541 S540 1.613 . S
N541 C544 1.350 . S
N542 S540 1.610 . S
N542 C543 1.351 . S
C543 C537 1.428 1_554 S
C543 N542 1.351 . S
C543 C544 1.434 . S
C544 C535 1.438 . S
C544 N541 1.350 . S
C544 C543 1.434 . S
C545 C546 1.369 . S
C545 C547 1.419 . S
C545 H549 0.930 . S
C546 C545 1.369 . S
C546 C555 1.429 . S
C547 C545 1.419 . S
C547 C548 1.363 . S
C547 H550 0.929 . S
C548 C547 1.363 . S
C548 C554 1.428 . S
H549 C545 0.930 . S
H550 C547 0.929 . S
S551 N552 1.613 . S
S551 N553 1.610 1_565 S
N552 S551 1.613 . S
N552 C555 1.350 1_565 S
N553 S551 1.610 1_545 S
N553 C554 1.351 . S
C554 C548 1.428 . S
C554 N553 1.351 . S
C554 C555 1.434 . S
C555 C546 1.429 . S
C555 N552 1.350 1_545 S
C555 C554 1.434 . S
C556 C557 1.369 . S
C556 C558 1.419 . S
C556 H560 0.930 . S
C557 C556 1.369 . S
C557 C566 1.429 . S
C558 C556 1.419 . S
C558 C559 1.363 . S
C558 H561 0.929 . S
C559 C558 1.363 . S
C559 C565 1.428 . S
H560 C556 0.930 . S
H561 C558 0.929 . S
S562 N563 1.613 . S
S562 N564 1.610 . S
N563 S562 1.613 . S
N563 C566 1.350 . S
N564 S562 1.610 . S
N564 C565 1.351 . S
C565 C559 1.428 . S
C565 N564 1.351 . S
C565 C566 1.434 . S
C566 C557 1.429 . S
C566 N563 1.350 . S
C566 C565 1.434 . S
C567 C568 1.369 . S
C567 C569 1.419 . S
C567 H571 0.930 . S
C568 C567 1.369 . S
C568 C577 1.429 . S
C569 C567 1.419 . S
C569 C570 1.363 . S
C569 H572 0.929 . S
C570 C569 1.363 . S
C570 C576 1.428 . S
H571 C567 0.930 . S
H572 C569 0.929 . S
S573 N574 1.613 . S
S573 N575 1.610 1_545 S
N574 S573 1.613 . S
N574 C577 1.350 . S
N575 S573 1.610 1_565 S
N575 C576 1.351 1_565 S
C576 C570 1.428 . S
C576 N575 1.351 1_545 S
C576 C577 1.434 . S
C577 C568 1.429 . S
C577 N574 1.350 . S
C577 C576 1.434 . S
C578 C579 1.351 1_556 S
C578 C580 1.427 . S
C578 H582 0.941 . S
C579 C578 1.351 1_554 S
C579 C588 1.429 . S
C580 C578 1.427 . S
C580 C581 1.363 1_556 S
C580 H583 0.929 . S
C581 C580 1.363 1_554 S
C581 C587 1.429 . S
H582 C578 0.941 . S
H583 C580 0.929 . S
S584 N585 1.613 . S
S584 N586 1.610 . S
N585 S584 1.613 . S
N585 C588 1.350 . S
N586 S584 1.610 . S
N586 C587 1.351 . S
C587 C581 1.429 . S
C587 N586 1.351 . S
C587 C588 1.434 . S
C588 C579 1.429 . S
C588 N585 1.350 . S
C588 C587 1.434 . S
C589 C590 1.369 . S
C589 C591 1.419 . S
C589 H593 0.930 . S
C590 C589 1.369 . S
C590 C599 1.429 . S
C591 C589 1.419 . S
C591 C592 1.363 . S
C591 H594 0.929 . S
C592 C591 1.363 . S
C592 C598 1.428 . S
H593 C589 0.930 . S
H594 C591 0.929 . S
S595 N596 1.613 . S
S595 N597 1.610 . S
N596 S595 1.613 . S
N596 C599 1.350 . S
N597 S595 1.610 . S
N597 C598 1.351 . S
C598 C592 1.428 . S
C598 N597 1.351 . S
C598 C599 1.434 . S
C599 C590 1.429 . S
C599 N596 1.350 . S
C599 C598 1.434 . S
C600 C601 1.369 . S
C600 C602 1.419 . S
C600 H604 0.930 . S
C601 C600 1.369 . S
C601 C610 1.429 . S
C602 C600 1.419 . S
C602 C603 1.363 . S
C602 H605 0.929 . S
C603 C602 1.363 . S
C603 C609 1.428 . S
H604 C600 0.930 . S
H605 C602 0.929 . S
S606 N607 1.613 . S
S606 N608 1.610 . S
N607 S606 1.613 . S
N607 C610 1.350 . S
N608 S606 1.610 . S
N608 C609 1.351 . S
C609 C603 1.428 . S
C609 N608 1.351 . S
C609 C610 1.434 . S
C610 C601 1.429 . S
C610 N607 1.350 . S
C610 C609 1.434 . S
C611 C612 1.369 . S
C611 C613 1.419 . S
C611 H615 0.930 . S
C612 C611 1.369 . S
C612 C621 1.429 . S
C613 C611 1.419 . S
C613 C614 1.363 . S
C613 H616 0.929 . S
C614 C613 1.363 . S
C614 C620 1.428 . S
H615 C611 0.930 . S
H616 C613 0.929 . S
S617 N618 1.613 . S
S617 N619 1.610 . S
N618 S617 1.613 . S
N618 C621 1.350 . S
N619 S617 1.610 . S
N619 C620 1.351 . S
C620 C614 1.428 . S
C620 N619 1.351 . S
C620 C621 1.434 . S
C621 C612 1.429 . S
C621 N618 1.350 . S
C621 C620 1.434 . S
C622 C623 1.369 . S
C622 C624 1.419 . S
C622 H626 0.930 1_455 S
C623 C622 1.369 . S
C623 C632 1.429 . S
C624 C622 1.419 . S
C624 C625 1.363 . S
C624 H627 0.929 . S
C625 C624 1.363 . S
C625 C631 1.428 . S
H626 C622 0.930 1_655 S
H627 C624 0.929 . S
S628 N629 1.613 . S
S628 N630 1.610 . S
N629 S628 1.613 . S
N629 C632 1.350 . S
N630 S628 1.610 . S
N630 C631 1.351 . S
C631 C625 1.428 . S
C631 N630 1.351 . S
C631 C632 1.434 . S
C632 C623 1.429 . S
C632 N629 1.350 . S
C632 C631 1.434 . S
C633 C634 1.369 . S
C633 C635 1.419 . S
C633 H637 0.930 . S
C634 C633 1.369 . S
C634 C643 1.429 . S
C635 C633 1.419 . S
C635 C636 1.363 . S
C635 H638 0.929 . S
C636 C635 1.363 . S
C636 C642 1.428 . S
H637 C633 0.930 . S
H638 C635 0.929 . S
S639 N640 1.613 . S
S639 N641 1.610 . S
N640 S639 1.613 . S
N640 C643 1.350 . S
N641 S639 1.610 . S
N641 C642 1.351 . S
C642 C636 1.428 . S
C642 N641 1.351 . S
C642 C643 1.434 . S
C643 C634 1.429 . S
C643 N640 1.350 . S
C643 C642 1.434 . S
C644 C645 1.369 . S
C644 C646 1.419 . S
C644 H648 0.930 . S
C645 C644 1.369 . S
C645 C654 1.429 . S
C646 C644 1.419 . S
C646 C647 1.363 . S
C646 H649 0.929 . S
C647 C646 1.363 . S
C647 C653 1.428 . S
H648 C644 0.930 . S
H649 C646 0.929 . S
S650 N651 1.613 . S
S650 N652 1.610 . S
N651 S650 1.613 . S
N651 C654 1.350 . S
N652 S650 1.610 . S
N652 C653 1.351 . S
C653 C647 1.428 . S
C653 N652 1.351 . S
C653 C654 1.434 . S
C654 C645 1.429 . S
C654 N651 1.350 . S
C654 C653 1.434 . S
C655 C656 1.369 . S
C655 C657 1.419 . S
C655 H659 0.930 . S
C656 C655 1.369 . S
C656 C665 1.429 . S
C657 C655 1.419 . S
C657 C658 1.363 . S
C657 H660 0.929 . S
C658 C657 1.363 . S
C658 C664 1.428 . S
H659 C655 0.930 . S
H660 C657 0.929 . S
S661 N662 1.613 . S
S661 N663 1.610 . S
N662 S661 1.613 . S
N662 C665 1.350 . S
N663 S661 1.610 . S
N663 C664 1.351 . S
C664 C658 1.428 . S
C664 N663 1.351 . S
C664 C665 1.434 . S
C665 C656 1.429 . S
C665 N662 1.350 . S
C665 C664 1.434 . S
C666 C667 1.369 . S
C666 C668 1.419 . S
C666 H670 0.930 1_655 S
C667 C666 1.369 . S
C667 C676 1.429 . S
C668 C666 1.419 . S
C668 C669 1.363 . S
C668 H671 0.929 . S
C669 C668 1.363 . S
C669 C675 1.428 . S
H670 C666 0.930 1_455 S
H671 C668 0.929 . S
S672 N673 1.613 . S
S672 N674 1.610 . S
N673 S672 1.613 . S
N673 C676 1.350 . S
N674 S672 1.610 . S
N674 C675 1.351 . S
C675 C669 1.428 . S
C675 N674 1.351 . S
C675 C676 1.434 . S
C676 C667 1.429 . S
C676 N673 1.350 . S
C676 C675 1.434 . S
C677 C678 1.369 . S
C677 C679 1.419 . S
C677 H681 0.930 . S
C678 C677 1.369 . S
C678 C687 1.429 . S
C679 C677 1.419 . S
C679 C680 1.363 . S
C679 H682 0.929 . S
C680 C679 1.363 . S
C680 C686 1.428 . S
H681 C677 0.930 . S
H682 C679 0.929 . S
S683 N684 1.613 . S
S683 N685 1.610 . S
N684 S683 1.613 . S
N684 C687 1.350 . S
N685 S683 1.610 . S
N685 C686 1.351 . S
C686 C680 1.428 . S
C686 N685 1.351 . S
C686 C687 1.434 . S
C687 C678 1.429 . S
C687 N684 1.350 . S
C687 C686 1.434 . S
C688 C689 1.369 . S
C688 C690 1.419 . S
C688 H692 0.930 . S
C689 C688 1.369 . S
C689 C698 1.429 . S
C690 C688 1.419 . S
C690 C691 1.363 . S
C690 H693 0.929 1_655 S
C691 C690 1.363 . S
C691 C697 1.428 . S
H692 C688 0.930 . S
H693 C690 0.929 1_455 S
S694 N695 1.613 . S
S694 N696 1.610 . S
N695 S694 1.613 . S
N695 C698 1.350 . S
N696 S694 1.610 . S
N696 C697 1.351 . S
C697 C691 1.428 . S
C697 N696 1.351 . S
C697 C698 1.434 . S
C698 C689 1.429 . S
C698 N695 1.350 . S
C698 C697 1.434 . S
C699 C700 1.369 . S
C699 C701 1.419 . S
C699 H703 0.930 . S
C700 C699 1.369 . S
C700 C709 1.429 . S
C701 C699 1.419 . S
C701 C702 1.363 . S
C701 H704 0.929 . S
C702 C701 1.363 . S
C702 C708 1.428 . S
H703 C699 0.930 . S
H704 C701 0.929 . S
S705 N706 1.613 . S
S705 N707 1.610 . S
N706 S705 1.613 . S
N706 C709 1.350 . S
N707 S705 1.610 . S
N707 C708 1.351 . S
C708 C702 1.428 . S
C708 N707 1.351 . S
C708 C709 1.434 . S
C709 C700 1.429 . S
C709 N706 1.350 . S
C709 C708 1.434 . S
C710 C711 1.369 . S
C710 C712 1.419 . S
C710 H714 0.930 . S
C711 C710 1.369 . S
C711 C720 1.429 . S
C712 C710 1.419 . S
C712 C713 1.363 . S
C712 H715 0.929 . S
C713 C712 1.363 . S
C713 C719 1.428 . S
H714 C710 0.930 . S
H715 C712 0.929 . S
S716 N717 1.613 . S
S716 N718 1.610 . S
N717 S716 1.613 . S
N717 C720 1.350 . S
N718 S716 1.610 . S
N718 C719 1.351 . S
C719 C713 1.428 . S
C719 N718 1.351 . S
C719 C720 1.434 . S
C720 C711 1.429 . S
C720 N717 1.350 . S
C720 C719 1.434 . S
C721 C722 1.369 . S
C721 C723 1.419 . S
C721 H725 0.930 . S
C722 C721 1.369 . S
C722 C731 1.429 . S
C723 C721 1.419 . S
C723 C724 1.363 . S
C723 H726 0.929 . S
C724 C723 1.363 . S
C724 C730 1.428 . S
H725 C721 0.930 . S
H726 C723 0.929 . S
S727 N728 1.613 . S
S727 N729 1.610 . S
N728 S727 1.613 . S
N728 C731 1.350 . S
N729 S727 1.610 . S
N729 C730 1.351 . S
C730 C724 1.428 . S
C730 N729 1.351 . S
C730 C731 1.434 . S
C731 C722 1.429 . S
C731 N728 1.350 . S
C731 C730 1.434 . S
C732 C733 1.369 . S
C732 C734 1.419 . S
C732 H736 0.930 . S
C733 C732 1.369 . S
C733 C742 1.429 . S
C734 C732 1.419 . S
C734 C735 1.363 . S
C734 H737 0.929 . S
C735 C734 1.363 . S
C735 C741 1.428 . S
H736 C732 0.930 . S
H737 C734 0.929 . S
S738 N739 1.613 1_655 S
S738 N740 1.610 . S
N739 S738 1.613 1_455 S
N739 C742 1.350 . S
N740 S738 1.610 . S
N740 C741 1.351 1_655 S
C741 C735 1.428 . S
C741 N740 1.351 1_455 S
C741 C742 1.434 . S
C742 C733 1.429 . S
C742 N739 1.350 . S
C742 C741 1.434 . S
C743 C744 1.369 . S
C743 C745 1.419 . S
C743 H747 0.930 . S
C744 C743 1.369 . S
C744 C753 1.429 . S
C745 C743 1.419 . S
C745 C746 1.363 . S
C745 H748 0.929 . S
C746 C745 1.363 . S
C746 C752 1.428 . S
H747 C743 0.930 . S
H748 C745 0.929 . S
S749 N750 1.613 . S
S749 N751 1.610 . S
N750 S749 1.613 . S
N750 C753 1.350 . S
N751 S749 1.610 . S
N751 C752 1.351 . S
C752 C746 1.428 . S
C752 N751 1.351 . S
C752 C753 1.434 . S
C753 C744 1.429 . S
C753 N750 1.350 . S
C753 C752 1.434 . S
C754 C755 1.369 . S
C754 C756 1.419 . S
C754 H758 0.930 . S
C755 C754 1.369 . S
C755 C764 1.429 . S
C756 C754 1.419 . S
C756 C757 1.363 . S
C756 H759 0.929 . S
C757 C756 1.363 . S
C757 C763 1.428 . S
H758 C754 0.930 . S
H759 C756 0.929 . S
S760 N761 1.613 . S
S760 N762 1.610 . S
N761 S760 1.613 . S
N761 C764 1.350 . S
N762 S760 1.610 . S
N762 C763 1.351 . S
C763 C757 1.428 . S
C763 N762 1.351 . S
C763 C764 1.434 . S
C764 C755 1.429 . S
C764 N761 1.350 . S
C764 C763 1.434 . S
C765 C766 1.369 . S
C765 C767 1.419 . S
C765 H769 0.930 . S
C766 C765 1.369 . S
C766 C775 1.429 . S
C767 C765 1.419 . S
C767 C768 1.363 . S
C767 H770 0.929 . S
C768 C767 1.363 . S
C768 C774 1.428 . S
H769 C765 0.930 . S
H770 C767 0.929 . S
S771 N772 1.613 . S
S771 N773 1.610 . S
N772 S771 1.613 . S
N772 C775 1.350 . S
N773 S771 1.610 . S
N773 C774 1.351 . S
C774 C768 1.428 . S
C774 N773 1.351 . S
C774 C775 1.434 . S
C775 C766 1.429 . S
C775 N772 1.350 . S
C775 C774 1.434 . S
C776 C777 1.369 . S
C776 C778 1.419 . S
C776 H780 0.930 . S
C777 C776 1.369 . S
C777 C786 1.429 . S
C778 C776 1.419 . S
C778 C779 1.363 . S
C778 H781 0.929 . S
C779 C778 1.363 . S
C779 C785 1.428 . S
H780 C776 0.930 . S
H781 C778 0.929 . S
S782 N783 1.613 . S
S782 N784 1.610 . S
N783 S782 1.613 . S
N783 C786 1.350 . S
N784 S782 1.610 . S
N784 C785 1.351 . S
C785 C779 1.428 . S
C785 N784 1.351 . S
C785 C786 1.434 . S
C786 C777 1.429 . S
C786 N783 1.350 . S
C786 C785 1.434 . S
C787 C788 1.369 . S
C787 C789 1.419 . S
C787 H791 0.930 . S
C788 C787 1.369 . S
C788 C797 1.429 . S
C789 C787 1.419 . S
C789 C790 1.363 . S
C789 H792 0.929 . S
C790 C789 1.363 . S
C790 C796 1.428 . S
H791 C787 0.930 . S
H792 C789 0.929 . S
S793 N794 1.613 . S
S793 N795 1.610 . S
N794 S793 1.613 . S
N794 C797 1.350 . S
N795 S793 1.610 . S
N795 C796 1.351 . S
C796 C790 1.428 . S
C796 N795 1.351 . S
C796 C797 1.434 . S
C797 C788 1.429 . S
C797 N794 1.350 . S
C797 C796 1.434 . S
C798 C799 1.369 . S
C798 C800 1.419 . S
C798 H802 0.930 . S
C799 C798 1.369 . S
C799 C808 1.429 . S
C800 C798 1.419 . S
C800 C801 1.363 . S
C800 H803 0.929 . S
C801 C800 1.363 . S
C801 C807 1.428 . S
H802 C798 0.930 . S
H803 C800 0.929 . S
S804 N805 1.613 . S
S804 N806 1.610 . S
N805 S804 1.613 . S
N805 C808 1.350 . S
N806 S804 1.610 . S
N806 C807 1.351 . S
C807 C801 1.428 . S
C807 N806 1.351 . S
C807 C808 1.434 . S
C808 C799 1.429 . S
C808 N805 1.350 . S
C808 C807 1.434 . S
C809 C810 1.369 1_556 S
C809 C811 1.419 1_455 S
C809 H813 0.930 . S
C810 C809 1.369 1_554 S
C810 C819 1.429 . S
C811 C809 1.419 1_655 S
C811 C812 1.363 . S
C811 H814 0.929 . S
C812 C811 1.363 . S
C812 C818 1.428 1_556 S
H813 C809 0.930 . S
H814 C811 0.929 . S
S815 N816 1.613 . S
S815 N817 1.610 1_455 S
N816 S815 1.613 . S
N816 C819 1.350 . S
N817 S815 1.610 1_655 S
N817 C818 1.351 . S
C818 C812 1.428 1_554 S
C818 N817 1.351 . S
C818 C819 1.434 1_655 S
C819 C810 1.429 . S
C819 N816 1.350 . S
C819 C818 1.434 1_455 S
C820 C821 1.369 . S
C820 C822 1.419 . S
C820 H824 0.930 . S
C821 C820 1.369 . S
C821 C830 1.429 . S
C822 C820 1.419 . S
C822 C823 1.363 . S
C822 H825 0.929 . S
C823 C822 1.363 . S
C823 C829 1.428 . S
H824 C820 0.930 . S
H825 C822 0.929 . S
S826 N827 1.613 . S
S826 N828 1.610 . S
N827 S826 1.613 . S
N827 C830 1.350 . S
N828 S826 1.610 . S
N828 C829 1.351 . S
C829 C823 1.428 . S
C829 N828 1.351 . S
C829 C830 1.434 . S
C830 C821 1.429 . S
C830 N827 1.350 . S
C830 C829 1.434 . S
C831 C832 1.369 . S
C831 C833 1.419 . S
C831 H835 0.930 . S
C832 C831 1.369 . S
C832 C841 1.429 . S
C833 C831 1.419 . S
C833 C834 1.363 . S
C833 H836 0.929 . S
C834 C833 1.363 . S
C834 C840 1.428 . S
H835 C831 0.930 . S
H836 C833 0.929 . S
S837 N838 1.613 . S
S837 N839 1.610 . S
N838 S837 1.613 . S
N838 C841 1.350 . S
N839 S837 1.610 . S
N839 C840 1.351 . S
C840 C834 1.428 . S
C840 N839 1.351 . S
C840 C841 1.434 . S
C841 C832 1.429 . S
C841 N838 1.350 . S
C841 C840 1.434 . S
C842 C843 1.369 1_655 S
C842 C844 1.419 1_556 S
C842 H846 0.930 . S
C843 C842 1.369 1_455 S
C843 C852 1.429 1_545 S
C844 C842 1.419 1_554 S
C844 C845 1.363 1_545 S
C844 H847 0.929 . S
C845 C844 1.363 1_565 S
C845 C851 1.428 1_655 S
H846 C842 0.930 . S
H847 C844 0.929 . S
S848 N849 1.613 1_554 S
S848 N850 1.610 . S
N849 S848 1.613 1_556 S
N849 C852 1.350 . S
N850 S848 1.610 . S
N850 C851 1.351 . S
C851 C845 1.428 1_455 S
C851 N850 1.351 . S
C851 C852 1.434 1_554 S
C852 C843 1.429 1_565 S
C852 N849 1.350 . S
C852 C851 1.434 1_556 S
C853 C854 1.369 1_565 S
C853 C855 1.419 . S
C853 H857 0.930 . S
C854 C853 1.369 1_545 S
C854 C863 1.429 . S
C855 C853 1.419 . S
C855 C856 1.363 . S
C855 H858 0.929 . S
C856 C855 1.363 . S
C856 C862 1.428 1_565 S
H857 C853 0.930 . S
H858 C855 0.929 . S
S859 N860 1.613 . S
S859 N861 1.610 . S
N860 S859 1.613 . S
N860 C863 1.350 . S
N861 S859 1.610 . S
N861 C862 1.351 . S
C862 C856 1.428 1_545 S
C862 N861 1.351 . S
C862 C863 1.434 . S
C863 C854 1.429 . S
C863 N860 1.350 . S
C863 C862 1.434 . S
C337 C16 1.313 . S
C339 C226 1.310 . S
C348 C37 1.301 . S
C350 C247 1.304 . S
C359 C58 1.312 . S
C361 C184 1.309 . S
C370 C79 1.304 . S
C372 C205 1.307 . S
C381 C100 1.301 . S
C383 C310 1.302 . S
C392 C121 1.312 . S
C394 C331 1.311 . S
C403 C142 1.312 . S
C405 C268 1.311 . S
C414 C163 1.307 . S
C416 C289 1.309 . S
C425 C204 1.458 . S
C427 C13 1.253 1_554 S
C436 C225 1.458 . S
C438 C34 1.245 . S
C447 C246 1.449 . S
C449 C55 1.255 . S
C458 C183 1.451 . S
C460 C76 1.259 . S
C469 C97 1.245 . S
C471 C288 1.457 . S
C480 C309 1.449 . S
C482 C118 1.252 . S
C491 C330 1.458 . S
C493 C139 1.247 . S
C502 C267 1.455 . S
C504 C160 1.245 . S
C513 C36 1.453 . S
C515 C181 1.259 . S
C524 C202 1.259 1_565 S
C526 C57 1.450 . S
C535 C223 1.258 1_554 S
C537 C78 1.454 . S
C546 C244 1.243 1_545 S
C548 C15 1.454 . S
C557 C265 1.247 . S
C559 C120 1.458 . S
C568 C141 1.452 . S
C570 C286 1.245 1_545 S
C579 C162 1.454 . S
C581 C307 1.245 . S
C590 C328 1.243 1_565 S
C592 C99 1.453 . S
C601 C18 1.182 . S
C603 C329 1.179 . S
C612 C39 1.189 . S
C614 C98 1.173 . S
C623 C287 1.181 1_455 S
C625 C60 1.181 . S
C634 C140 1.177 . S
C636 C81 1.184 . S
C645 C102 1.180 . S
C647 C245 1.180 . S
C656 C123 1.185 . S
C658 C14 1.176 . S
C667 C203 1.179 1_655 S
C669 C144 1.183 . S
C678 C56 1.180 . S
C680 C165 1.182 . S
C689 C186 1.186 . S
C691 C161 1.176 1_655 S
C700 C207 1.186 . S
C702 C266 1.174 . S
C711 C119 1.178 . S
C713 C228 1.184 . S
C722 C308 1.169 . S
C724 C249 1.190 . S
C733 C270 1.189 . S
C735 C77 1.172 1_455 S
C744 C291 1.192 . S
C746 C182 1.170 . S
C755 C312 1.181 . S
C757 C35 1.179 . S
C766 C224 1.182 . S
C768 C333 1.181 . S
C777 C17 1.779 . S
C779 C269 1.774 . S
C788 C38 1.773 . S
C790 C122 1.779 . S
C799 C59 1.774 . S
C801 C311 1.778 . S
C810 C164 1.779 . S
C812 C80 1.774 . S
C821 C101 1.777 . S
C823 C185 1.776 . S
C832 C227 1.774 . S
C834 C143 1.778 . S
C843 C206 1.779 . S
C845 C290 1.774 . S
C854 C332 1.773 . S
C856 C248 1.779 . S
