# Generated by pormake.
# Topology fcl, (5)-cn, num edge types: 1
# Building blocks:
#     Node 0, Type 0, BuildingBlock: BEQFEK_clean_sbu_0, # of connection points: 5
#     Node 1, Type 0, BuildingBlock: BEQFEK_clean_sbu_0, # of connection points: 5
#     Node 2, Type 0, BuildingBlock: BEQFEK_clean_sbu_0, # of connection points: 5
#     Node 3, Type 0, BuildingBlock: BEQFEK_clean_sbu_0, # of connection points: 5
#     Node 4, Type 0, BuildingBlock: BEQFEK_clean_sbu_0, # of connection points: 5
#     Node 5, Type 0, BuildingBlock: BEQFEK_clean_sbu_0, # of connection points: 5
#     Node 6, Type 0, BuildingBlock: BEQFEK_clean_sbu_0, # of connection points: 5
#     Node 7, Type 0, BuildingBlock: BEQFEK_clean_sbu_0, # of connection points: 5
#     Node 8, Type 0, BuildingBlock: BEQFEK_clean_sbu_0, # of connection points: 5
#     Node 9, Type 0, BuildingBlock: BEQFEK_clean_sbu_0, # of connection points: 5
#     Node 10, Type 0, BuildingBlock: BEQFEK_clean_sbu_0, # of connection points: 5
#     Node 11, Type 0, BuildingBlock: BEQFEK_clean_sbu_0, # of connection points: 5
#     Node 12, Type 0, BuildingBlock: BEQFEK_clean_sbu_0, # of connection points: 5
#     Node 13, Type 0, BuildingBlock: BEQFEK_clean_sbu_0, # of connection points: 5
#     Node 14, Type 0, BuildingBlock: BEQFEK_clean_sbu_0, # of connection points: 5
#     Node 15, Type 0, BuildingBlock: BEQFEK_clean_sbu_0, # of connection points: 5
#     Node 16, Type 0, BuildingBlock: BEQFEK_clean_sbu_0, # of connection points: 5
#     Node 17, Type 0, BuildingBlock: BEQFEK_clean_sbu_0, # of connection points: 5
#     Node 18, Type 0, BuildingBlock: BEQFEK_clean_sbu_0, # of connection points: 5
#     Node 19, Type 0, BuildingBlock: BEQFEK_clean_sbu_0, # of connection points: 5
#     Node 20, Type 0, BuildingBlock: BEQFEK_clean_sbu_0, # of connection points: 5
#     Node 21, Type 0, BuildingBlock: BEQFEK_clean_sbu_0, # of connection points: 5
#     Node 22, Type 0, BuildingBlock: BEQFEK_clean_sbu_0, # of connection points: 5
#     Node 23, Type 0, BuildingBlock: BEQFEK_clean_sbu_0, # of connection points: 5
#     Node 24, Type 0, BuildingBlock: BEQFEK_clean_sbu_0, # of connection points: 5
#     Node 25, Type 0, BuildingBlock: BEQFEK_clean_sbu_0, # of connection points: 5
#     Node 26, Type 0, BuildingBlock: BEQFEK_clean_sbu_0, # of connection points: 5
#     Node 27, Type 0, BuildingBlock: BEQFEK_clean_sbu_0, # of connection points: 5
#     Node 28, Type 0, BuildingBlock: BEQFEK_clean_sbu_0, # of connection points: 5
#     Node 29, Type 0, BuildingBlock: BEQFEK_clean_sbu_0, # of connection points: 5
#     Node 30, Type 0, BuildingBlock: BEQFEK_clean_sbu_0, # of connection points: 5
#     Node 31, Type 0, BuildingBlock: BEQFEK_clean_sbu_0, # of connection points: 5
#     Node 32, Type 0, BuildingBlock: BEQFEK_clean_sbu_0, # of connection points: 5
#     Node 33, Type 0, BuildingBlock: BEQFEK_clean_sbu_0, # of connection points: 5
#     Node 34, Type 0, BuildingBlock: BEQFEK_clean_sbu_0, # of connection points: 5
#     Node 35, Type 0, BuildingBlock: BEQFEK_clean_sbu_0, # of connection points: 5
#     Node 36, Type 0, BuildingBlock: BEQFEK_clean_sbu_0, # of connection points: 5
#     Node 37, Type 0, BuildingBlock: BEQFEK_clean_sbu_0, # of connection points: 5
#     Node 38, Type 0, BuildingBlock: BEQFEK_clean_sbu_0, # of connection points: 5
#     Node 39, Type 0, BuildingBlock: BEQFEK_clean_sbu_0, # of connection points: 5
#     Node 40, Type 0, BuildingBlock: BEQFEK_clean_sbu_0, # of connection points: 5
#     Node 41, Type 0, BuildingBlock: BEQFEK_clean_sbu_0, # of connection points: 5
#     Node 42, Type 0, BuildingBlock: BEQFEK_clean_sbu_0, # of connection points: 5
#     Node 43, Type 0, BuildingBlock: BEQFEK_clean_sbu_0, # of connection points: 5
#     Node 44, Type 0, BuildingBlock: BEQFEK_clean_sbu_0, # of connection points: 5
#     Node 45, Type 0, BuildingBlock: BEQFEK_clean_sbu_0, # of connection points: 5
#     Node 46, Type 0, BuildingBlock: BEQFEK_clean_sbu_0, # of connection points: 5
#     Node 47, Type 0, BuildingBlock: BEQFEK_clean_sbu_0, # of connection points: 5
#     Edge 48, Type (0, 0), BuildingBlock: XIVTED_clean_linker_0, # of connection points: 2
#     Edge 49, Type (0, 0), BuildingBlock: XIVTED_clean_linker_0, # of connection points: 2
#     Edge 50, Type (0, 0), BuildingBlock: XIVTED_clean_linker_0, # of connection points: 2
#     Edge 51, Type (0, 0), BuildingBlock: XIVTED_clean_linker_0, # of connection points: 2
#     Edge 52, Type (0, 0), BuildingBlock: XIVTED_clean_linker_0, # of connection points: 2
#     Edge 53, Type (0, 0), BuildingBlock: XIVTED_clean_linker_0, # of connection points: 2
#     Edge 54, Type (0, 0), BuildingBlock: XIVTED_clean_linker_0, # of connection points: 2
#     Edge 55, Type (0, 0), BuildingBlock: XIVTED_clean_linker_0, # of connection points: 2
#     Edge 56, Type (0, 0), BuildingBlock: XIVTED_clean_linker_0, # of connection points: 2
#     Edge 57, Type (0, 0), BuildingBlock: XIVTED_clean_linker_0, # of connection points: 2
#     Edge 58, Type (0, 0), BuildingBlock: XIVTED_clean_linker_0, # of connection points: 2
#     Edge 59, Type (0, 0), BuildingBlock: XIVTED_clean_linker_0, # of connection points: 2
#     Edge 60, Type (0, 0), BuildingBlock: XIVTED_clean_linker_0, # of connection points: 2
#     Edge 61, Type (0, 0), BuildingBlock: XIVTED_clean_linker_0, # of connection points: 2
#     Edge 62, Type (0, 0), BuildingBlock: XIVTED_clean_linker_0, # of connection points: 2
#     Edge 63, Type (0, 0), BuildingBlock: XIVTED_clean_linker_0, # of connection points: 2
#     Edge 64, Type (0, 0), BuildingBlock: XIVTED_clean_linker_0, # of connection points: 2
#     Edge 65, Type (0, 0), BuildingBlock: XIVTED_clean_linker_0, # of connection points: 2
#     Edge 66, Type (0, 0), BuildingBlock: XIVTED_clean_linker_0, # of connection points: 2
#     Edge 67, Type (0, 0), BuildingBlock: XIVTED_clean_linker_0, # of connection points: 2
#     Edge 68, Type (0, 0), BuildingBlock: XIVTED_clean_linker_0, # of connection points: 2
#     Edge 69, Type (0, 0), BuildingBlock: XIVTED_clean_linker_0, # of connection points: 2
#     Edge 70, Type (0, 0), BuildingBlock: XIVTED_clean_linker_0, # of connection points: 2
#     Edge 71, Type (0, 0), BuildingBlock: XIVTED_clean_linker_0, # of connection points: 2
#     Edge 72, Type (0, 0), BuildingBlock: XIVTED_clean_linker_0, # of connection points: 2
#     Edge 73, Type (0, 0), BuildingBlock: XIVTED_clean_linker_0, # of connection points: 2
#     Edge 74, Type (0, 0), BuildingBlock: XIVTED_clean_linker_0, # of connection points: 2
#     Edge 75, Type (0, 0), BuildingBlock: XIVTED_clean_linker_0, # of connection points: 2
#     Edge 76, Type (0, 0), BuildingBlock: XIVTED_clean_linker_0, # of connection points: 2
#     Edge 77, Type (0, 0), BuildingBlock: XIVTED_clean_linker_0, # of connection points: 2
#     Edge 78, Type (0, 0), BuildingBlock: XIVTED_clean_linker_0, # of connection points: 2
#     Edge 79, Type (0, 0), BuildingBlock: XIVTED_clean_linker_0, # of connection points: 2
#     Edge 80, Type (0, 0), BuildingBlock: XIVTED_clean_linker_0, # of connection points: 2
#     Edge 81, Type (0, 0), BuildingBlock: XIVTED_clean_linker_0, # of connection points: 2
#     Edge 82, Type (0, 0), BuildingBlock: XIVTED_clean_linker_0, # of connection points: 2
#     Edge 83, Type (0, 0), BuildingBlock: XIVTED_clean_linker_0, # of connection points: 2
#     Edge 84, Type (0, 0), BuildingBlock: XIVTED_clean_linker_0, # of connection points: 2
#     Edge 85, Type (0, 0), BuildingBlock: XIVTED_clean_linker_0, # of connection points: 2
#     Edge 86, Type (0, 0), BuildingBlock: XIVTED_clean_linker_0, # of connection points: 2
#     Edge 87, Type (0, 0), BuildingBlock: XIVTED_clean_linker_0, # of connection points: 2
#     Edge 88, Type (0, 0), BuildingBlock: XIVTED_clean_linker_0, # of connection points: 2
#     Edge 89, Type (0, 0), BuildingBlock: XIVTED_clean_linker_0, # of connection points: 2
#     Edge 90, Type (0, 0), BuildingBlock: XIVTED_clean_linker_0, # of connection points: 2
#     Edge 91, Type (0, 0), BuildingBlock: XIVTED_clean_linker_0, # of connection points: 2
#     Edge 92, Type (0, 0), BuildingBlock: XIVTED_clean_linker_0, # of connection points: 2
#     Edge 93, Type (0, 0), BuildingBlock: XIVTED_clean_linker_0, # of connection points: 2
#     Edge 94, Type (0, 0), BuildingBlock: XIVTED_clean_linker_0, # of connection points: 2
#     Edge 95, Type (0, 0), BuildingBlock: XIVTED_clean_linker_0, # of connection points: 2
#     Edge 96, Type (0, 0), BuildingBlock: XIVTED_clean_linker_0, # of connection points: 2
#     Edge 97, Type (0, 0), BuildingBlock: XIVTED_clean_linker_0, # of connection points: 2
#     Edge 98, Type (0, 0), BuildingBlock: XIVTED_clean_linker_0, # of connection points: 2
#     Edge 99, Type (0, 0), BuildingBlock: XIVTED_clean_linker_0, # of connection points: 2
#     Edge 100, Type (0, 0), BuildingBlock: XIVTED_clean_linker_0, # of connection points: 2
#     Edge 101, Type (0, 0), BuildingBlock: XIVTED_clean_linker_0, # of connection points: 2
#     Edge 102, Type (0, 0), BuildingBlock: XIVTED_clean_linker_0, # of connection points: 2
#     Edge 103, Type (0, 0), BuildingBlock: XIVTED_clean_linker_0, # of connection points: 2
#     Edge 104, Type (0, 0), BuildingBlock: XIVTED_clean_linker_0, # of connection points: 2
#     Edge 105, Type (0, 0), BuildingBlock: XIVTED_clean_linker_0, # of connection points: 2
#     Edge 106, Type (0, 0), BuildingBlock: XIVTED_clean_linker_0, # of connection points: 2
#     Edge 107, Type (0, 0), BuildingBlock: XIVTED_clean_linker_0, # of connection points: 2
#     Edge 108, Type (0, 0), BuildingBlock: XIVTED_clean_linker_0, # of connection points: 2
#     Edge 109, Type (0, 0), BuildingBlock: XIVTED_clean_linker_0, # of connection points: 2
#     Edge 110, Type (0, 0), BuildingBlock: XIVTED_clean_linker_0, # of connection points: 2
#     Edge 111, Type (0, 0), BuildingBlock: XIVTED_clean_linker_0, # of connection points: 2
#     Edge 112, Type (0, 0), BuildingBlock: XIVTED_clean_linker_0, # of connection points: 2
#     Edge 113, Type (0, 0), BuildingBlock: XIVTED_clean_linker_0, # of connection points: 2
#     Edge 114, Type (0, 0), BuildingBlock: XIVTED_clean_linker_0, # of connection points: 2
#     Edge 115, Type (0, 0), BuildingBlock: XIVTED_clean_linker_0, # of connection points: 2
#     Edge 116, Type (0, 0), BuildingBlock: XIVTED_clean_linker_0, # of connection points: 2
#     Edge 117, Type (0, 0), BuildingBlock: XIVTED_clean_linker_0, # of connection points: 2
#     Edge 118, Type (0, 0), BuildingBlock: XIVTED_clean_linker_0, # of connection points: 2
#     Edge 119, Type (0, 0), BuildingBlock: XIVTED_clean_linker_0, # of connection points: 2
#     Edge 120, Type (0, 0), BuildingBlock: XIVTED_clean_linker_0, # of connection points: 2
#     Edge 121, Type (0, 0), BuildingBlock: XIVTED_clean_linker_0, # of connection points: 2
#     Edge 122, Type (0, 0), BuildingBlock: XIVTED_clean_linker_0, # of connection points: 2
#     Edge 123, Type (0, 0), BuildingBlock: XIVTED_clean_linker_0, # of connection points: 2
#     Edge 124, Type (0, 0), BuildingBlock: XIVTED_clean_linker_0, # of connection points: 2
#     Edge 125, Type (0, 0), BuildingBlock: XIVTED_clean_linker_0, # of connection points: 2
#     Edge 126, Type (0, 0), BuildingBlock: XIVTED_clean_linker_0, # of connection points: 2
#     Edge 127, Type (0, 0), BuildingBlock: XIVTED_clean_linker_0, # of connection points: 2
#     Edge 128, Type (0, 0), BuildingBlock: XIVTED_clean_linker_0, # of connection points: 2
#     Edge 129, Type (0, 0), BuildingBlock: XIVTED_clean_linker_0, # of connection points: 2
#     Edge 130, Type (0, 0), BuildingBlock: XIVTED_clean_linker_0, # of connection points: 2
#     Edge 131, Type (0, 0), BuildingBlock: XIVTED_clean_linker_0, # of connection points: 2
#     Edge 132, Type (0, 0), BuildingBlock: XIVTED_clean_linker_0, # of connection points: 2
#     Edge 133, Type (0, 0), BuildingBlock: XIVTED_clean_linker_0, # of connection points: 2
#     Edge 134, Type (0, 0), BuildingBlock: XIVTED_clean_linker_0, # of connection points: 2
#     Edge 135, Type (0, 0), BuildingBlock: XIVTED_clean_linker_0, # of connection points: 2
#     Edge 136, Type (0, 0), BuildingBlock: XIVTED_clean_linker_0, # of connection points: 2
#     Edge 137, Type (0, 0), BuildingBlock: XIVTED_clean_linker_0, # of connection points: 2
#     Edge 138, Type (0, 0), BuildingBlock: XIVTED_clean_linker_0, # of connection points: 2
#     Edge 139, Type (0, 0), BuildingBlock: XIVTED_clean_linker_0, # of connection points: 2
#     Edge 140, Type (0, 0), BuildingBlock: XIVTED_clean_linker_0, # of connection points: 2
#     Edge 141, Type (0, 0), BuildingBlock: XIVTED_clean_linker_0, # of connection points: 2
#     Edge 142, Type (0, 0), BuildingBlock: XIVTED_clean_linker_0, # of connection points: 2
#     Edge 143, Type (0, 0), BuildingBlock: XIVTED_clean_linker_0, # of connection points: 2
#     Edge 144, Type (0, 0), BuildingBlock: XIVTED_clean_linker_0, # of connection points: 2
#     Edge 145, Type (0, 0), BuildingBlock: XIVTED_clean_linker_0, # of connection points: 2
#     Edge 146, Type (0, 0), BuildingBlock: XIVTED_clean_linker_0, # of connection points: 2
#     Edge 147, Type (0, 0), BuildingBlock: XIVTED_clean_linker_0, # of connection points: 2
#     Edge 148, Type (0, 0), BuildingBlock: XIVTED_clean_linker_0, # of connection points: 2
#     Edge 149, Type (0, 0), BuildingBlock: XIVTED_clean_linker_0, # of connection points: 2
#     Edge 150, Type (0, 0), BuildingBlock: XIVTED_clean_linker_0, # of connection points: 2
#     Edge 151, Type (0, 0), BuildingBlock: XIVTED_clean_linker_0, # of connection points: 2
#     Edge 152, Type (0, 0), BuildingBlock: XIVTED_clean_linker_0, # of connection points: 2
#     Edge 153, Type (0, 0), BuildingBlock: XIVTED_clean_linker_0, # of connection points: 2
#     Edge 154, Type (0, 0), BuildingBlock: XIVTED_clean_linker_0, # of connection points: 2
#     Edge 155, Type (0, 0), BuildingBlock: XIVTED_clean_linker_0, # of connection points: 2
#     Edge 156, Type (0, 0), BuildingBlock: XIVTED_clean_linker_0, # of connection points: 2
#     Edge 157, Type (0, 0), BuildingBlock: XIVTED_clean_linker_0, # of connection points: 2
#     Edge 158, Type (0, 0), BuildingBlock: XIVTED_clean_linker_0, # of connection points: 2
#     Edge 159, Type (0, 0), BuildingBlock: XIVTED_clean_linker_0, # of connection points: 2
#     Edge 160, Type (0, 0), BuildingBlock: XIVTED_clean_linker_0, # of connection points: 2
#     Edge 161, Type (0, 0), BuildingBlock: XIVTED_clean_linker_0, # of connection points: 2
#     Edge 162, Type (0, 0), BuildingBlock: XIVTED_clean_linker_0, # of connection points: 2
#     Edge 163, Type (0, 0), BuildingBlock: XIVTED_clean_linker_0, # of connection points: 2
#     Edge 164, Type (0, 0), BuildingBlock: XIVTED_clean_linker_0, # of connection points: 2
#     Edge 165, Type (0, 0), BuildingBlock: XIVTED_clean_linker_0, # of connection points: 2
#     Edge 166, Type (0, 0), BuildingBlock: XIVTED_clean_linker_0, # of connection points: 2
#     Edge 167, Type (0, 0), BuildingBlock: XIVTED_clean_linker_0, # of connection points: 2
# Relax obj value: 0.458
# Max RMSD: 0.274
# Mean RMSD: 0.274
data_MOF--net-fcl--node1-BEQFEK_clean_sbu_0--edge1-XIVTED_clean_linker_0
_symmetry_space_group_name_H-M    P1
_symmetry_Int_Tables_number       1
_symmetry_cell_setting            triclinic
loop_
_symmetry_equiv_pos_as_xyz
'x, y, z'
_cell_length_a     66.998684
_cell_length_b     66.988337
_cell_length_c     66.969809
_cell_angle_alpha  90.023301
_cell_angle_beta   90.009881
_cell_angle_gamma 90.008949
loop_
_atom_site_label
_atom_site_type_symbol
_atom_site_fract_x
_atom_site_fract_y
_atom_site_fract_z
_atom_type_partial_charge
Co0 Co 0.02512 0.13845 0.46254 0.0
Co1 Co 0.01493 0.13938 0.41694 0.0
C2 C 0.00707 0.17459 0.44458 0.0
O3 O 0.01307 0.16549 0.46025 0.0
O4 O 0.00709 0.16609 0.42747 0.0
C5 C 0.02381 0.1331 0.50691 0.0
O6 O 0.00783 0.1444 0.5082 0.0
C7 C 0.99086 0.14105 0.3801 0.0
C8 C 0.00935 0.12215 0.3603 0.0
C9 C 0.99128 0.1321 0.36138 0.0
N10 N 0.00776 0.13617 0.38972 0.0
N11 N 0.01894 0.12531 0.37762 0.0
C12 C 0.97389 0.15205 0.38959 0.0
H13 H 0.97546 0.15209 0.40609 0.0
H14 H 0.95941 0.14522 0.38532 0.0
H15 H 0.97397 0.16773 0.38426 0.0
C16 C 0.99616 0.10453 0.46065 0.0
N17 N 0.00756 0.1186 0.45179 0.0
N18 N 0.0036 0.1187 0.43254 0.0
C19 C 0.98982 0.10452 0.42856 0.0
C20 C 0.98448 0.09529 0.44628 0.0
C21 C 0.99593 0.10027 0.48256 0.0
H22 H 0.01138 0.09756 0.48779 0.0
H23 H 0.98973 0.11334 0.49059 0.0
H24 H 0.98675 0.08694 0.48609 0.0
O25 O 0.05144 0.13973 0.44886 0.0
O26 O 0.04406 0.13818 0.41671 0.0
H27 H 0.99208 0.10052 0.3969 0.0
H28 H 0.9716 0.08724 0.40804 0.0
C29 C 0.9804 0.10122 0.40856 0.0
H30 H 0.97017 0.11375 0.40527 0.0
H31 H 0.03266 0.11912 0.38161 0.0
O32 O 0.0321 0.13044 0.49007 0.0
C33 C 0.0568 0.13926 0.43065 0.0
Co34 Co 0.11324 0.77885 0.70869 0.0
Co35 Co 0.10242 0.76176 0.66661 0.0
C36 C 0.0728 0.7633 0.70081 0.0
O37 O 0.08501 0.77058 0.71349 0.0
O38 O 0.07811 0.75935 0.68297 0.0
C39 C 0.12352 0.78197 0.7511 0.0
O40 O 0.10954 0.76863 0.75448 0.0
C41 C 0.09325 0.73035 0.63749 0.0
C42 C 0.09893 0.74625 0.60915 0.0
C43 C 0.09403 0.72777 0.61697 0.0
N44 N 0.0979 0.74942 0.64158 0.0
N45 N 0.10087 0.75894 0.62456 0.0
C46 C 0.0875 0.71532 0.65299 0.0
H47 H 0.09289 0.72003 0.66794 0.0
H48 H 0.09328 0.70028 0.64927 0.0
H49 H 0.07097 0.71431 0.6535 0.0
C50 C 0.14347 0.74619 0.70594 0.0
N51 N 0.12866 0.75733 0.69803 0.0
N52 N 0.12506 0.75101 0.67976 0.0
C53 C 0.13802 0.73625 0.67524 0.0
C54 C 0.14976 0.73244 0.69183 0.0
C55 C 0.15151 0.74859 0.72664 0.0
H56 H 0.15637 0.76425 0.72889 0.0
H57 H 0.13957 0.74514 0.73757 0.0
H58 H 0.16443 0.73861 0.72941 0.0
O59 O 0.11303 0.80266 0.69058 0.0
O60 O 0.10593 0.78996 0.66088 0.0
H61 H 0.15402 0.72 0.65242 0.0
H62 H 0.12895 0.71206 0.65659 0.0
C63 C 0.13874 0.72535 0.65575 0.0
H64 H 0.13391 0.7352 0.64341 0.0
H65 H 0.10499 0.77392 0.6235 0.0
O66 O 0.12638 0.78817 0.73341 0.0
C67 C 0.10976 0.80482 0.67195 0.0
Co68 Co 0.47218 0.86085 0.96692 0.0
Co69 Co 0.48266 0.86132 0.92132 0.0
C70 C 0.48863 0.82469 0.94748 0.0
O71 O 0.48232 0.83326 0.96332 0.0
O72 O 0.48975 0.83397 0.93081 0.0
C73 C 0.47369 0.86273 0.01144 0.0
O74 O 0.48789 0.84921 0.01168 0.0
C75 C 0.50702 0.86206 0.88442 0.0
C76 C 0.48684 0.87943 0.86488 0.0
C77 C 0.50568 0.87099 0.8657 0.0
N78 N 0.4899 0.86565 0.89428 0.0
N79 N 0.47782 0.87571 0.88237 0.0
C80 C 0.52377 0.84976 0.89263 0.0
H81 H 0.51792 0.83854 0.9033 0.0
H82 H 0.5344 0.85945 0.90081 0.0
H83 H 0.53193 0.84211 0.8804 0.0
C84 C 0.50501 0.89108 0.9666 0.0
N85 N 0.49152 0.87947 0.95712 0.0
N86 N 0.49428 0.88109 0.93777 0.0
C87 C 0.50874 0.89465 0.93429 0.0
C88 C 0.51644 0.90109 0.95243 0.0
C89 C 0.50884 0.89003 0.98857 0.0
H90 H 0.49652 0.89762 0.99661 0.0
H91 H 0.50928 0.87419 0.99318 0.0
H92 H 0.52322 0.89693 0.99289 0.0
O93 O 0.44558 0.86229 0.95314 0.0
O94 O 0.45381 0.86276 0.92121 0.0
H95 H 0.50129 0.90242 0.90407 0.0
H96 H 0.52073 0.91749 0.91504 0.0
C97 C 0.51448 0.90217 0.91403 0.0
H98 H 0.52602 0.89236 0.90748 0.0
H99 H 0.46367 0.88075 0.88648 0.0
O100 O 0.46604 0.86814 0.99496 0.0
C101 C 0.44067 0.86261 0.93478 0.0
Co102 Co 0.39034 0.22276 0.21495 0.0
Co103 Co 0.38943 0.23259 0.16942 0.0
C104 C 0.42626 0.23855 0.19638 0.0
O105 O 0.41764 0.23335 0.21259 0.0
O106 O 0.41699 0.23864 0.17965 0.0
C107 C 0.38493 0.2203 0.25993 0.0
O108 O 0.39931 0.23307 0.26377 0.0
C109 C 0.39055 0.25833 0.13364 0.0
C110 C 0.3744 0.23907 0.11222 0.0
C111 C 0.38297 0.25776 0.11432 0.0
N112 N 0.38618 0.2409 0.14257 0.0
N113 N 0.37678 0.22939 0.12959 0.0
C114 C 0.40234 0.27469 0.14331 0.0
H115 H 0.39211 0.28516 0.15102 0.0
H116 H 0.41097 0.28314 0.13197 0.0
H117 H 0.41264 0.26842 0.15464 0.0
C118 C 0.36077 0.25576 0.21473 0.0
N119 N 0.37195 0.24209 0.20507 0.0
N120 N 0.37001 0.24475 0.18576 0.0
C121 C 0.35658 0.25938 0.18245 0.0
C122 C 0.35054 0.26722 0.20072 0.0
C123 C 0.36251 0.25969 0.23666 0.0
H124 H 0.37813 0.25727 0.24146 0.0
H125 H 0.35824 0.2752 0.24053 0.0
H126 H 0.35273 0.24915 0.24489 0.0
O127 O 0.3905 0.19655 0.20051 0.0
O128 O 0.38653 0.20374 0.16856 0.0
H129 H 0.33349 0.27105 0.16332 0.0
H130 H 0.35852 0.27684 0.15573 0.0
C131 C 0.34891 0.26509 0.16224 0.0
H132 H 0.34894 0.25196 0.15217 0.0
H133 H 0.37144 0.21512 0.13279 0.0
O134 O 0.38104 0.21547 0.24202 0.0
C135 C 0.38855 0.19106 0.18242 0.0
Co136 Co 0.02859 0.86186 0.03671 0.0
Co137 Co 0.01373 0.85807 0.08099 0.0
C138 C 0.00977 0.82387 0.05328 0.0
O139 O 0.01785 0.83378 0.03907 0.0
O140 O 0.00672 0.83164 0.07042 0.0
C141 C 0.02376 0.86645 0.99374 0.0
O142 O 0.00643 0.85762 0.99623 0.0
C143 C 0.99058 0.85615 0.11896 0.0
C144 C 0.00628 0.8801 0.13546 0.0
C145 C 0.99011 0.8673 0.13648 0.0
N146 N 0.00609 0.86256 0.10794 0.0
N147 N 0.01566 0.87647 0.11815 0.0
C148 C 0.97545 0.84131 0.11186 0.0
H149 H 0.977 0.83865 0.09559 0.0
H150 H 0.96014 0.84663 0.11527 0.0
H151 H 0.97781 0.82697 0.11979 0.0
C152 C -0.00128 0.89542 0.03762 0.0
N153 N 0.00947 0.88081 0.04648 0.0
N154 N 0.00271 0.87836 0.06476 0.0
C155 C 0.98714 0.89075 0.06783 0.0
C156 C 0.98406 0.90193 0.05071 0.0
C157 C 0.00228 0.90337 0.0171 0.0
H158 H 0.01842 0.90301 0.01352 0.0
H159 H 0.99388 0.89417 0.00622 0.0
H160 H 0.99681 0.91897 0.01583 0.0
O161 O 0.05426 0.86309 0.0516 0.0
O162 O 0.04287 0.85903 0.08231 0.0
H163 H 0.98199 0.8951 0.09904 0.0
H164 H 0.96007 0.89888 0.08391 0.0
C165 C 0.97375 0.8898 0.0857 0.0
H166 H 0.96914 0.87415 0.08811 0.0
H167 H 0.02801 0.8843 0.11277 0.0
O168 O 0.03531 0.86855 0.00864 0.0
C169 C 0.0573 0.86102 0.07023 0.0
Co170 Co 0.38636 0.77146 0.28229 0.0
Co171 Co 0.38672 0.75977 0.32754 0.0
C172 C 0.42226 0.75306 0.29999 0.0
O173 O 0.41332 0.75961 0.28447 0.0
O174 O 0.41358 0.75233 0.31698 0.0
C175 C 0.38259 0.77198 0.23779 0.0
O176 O 0.39423 0.75628 0.23621 0.0
C177 C 0.38628 0.73409 0.36347 0.0
C178 C 0.37255 0.75494 0.38508 0.0
C179 C 0.37883 0.73536 0.38288 0.0
N180 N 0.38385 0.75196 0.35466 0.0
N181 N 0.37609 0.76443 0.36781 0.0
C182 C 0.39387 0.71605 0.3527 0.0
H183 H 0.394 0.71867 0.33633 0.0
H184 H 0.38458 0.7028 0.35622 0.0
H185 H 0.40938 0.71296 0.35762 0.0
C186 C 0.3527 0.7423 0.28262 0.0
N187 N 0.36655 0.75342 0.29216 0.0
N188 N 0.36596 0.7492 0.31135 0.0
C189 C 0.3512 0.73585 0.31466 0.0
C190 C 0.34265 0.73072 0.29651 0.0
C191 C 0.34938 0.74236 0.26054 0.0
H192 H 0.34645 0.75783 0.25548 0.0
H193 H 0.36299 0.73678 0.25296 0.0
H194 H 0.3365 0.73288 0.25623 0.0
O195 O 0.38724 0.79738 0.2968 0.0
O196 O 0.38543 0.78881 0.32862 0.0
H197 H 0.33032 0.72234 0.33524 0.0
H198 H 0.35544 0.71376 0.3372 0.0
C199 C 0.34611 0.72713 0.33458 0.0
H200 H 0.34862 0.73823 0.34654 0.0
H201 H 0.37229 0.77921 0.36472 0.0
O202 O 0.37895 0.77933 0.25489 0.0
C203 C 0.38649 0.80204 0.31518 0.0
Co204 Co 0.47407 0.1357 0.53705 0.0
Co205 Co 0.4916 0.15194 0.5772 0.0
C206 C 0.49162 0.17641 0.53958 0.0
O207 O 0.48207 0.16332 0.52954 0.0
O208 O 0.49681 0.1735 0.55768 0.0
C209 C 0.45511 0.1233 0.49884 0.0
O210 O 0.44745 0.14124 0.49687 0.0
C211 C 0.5218 0.16269 0.60739 0.0
C212 C 0.50429 0.15763 0.63488 0.0
C213 C 0.52336 0.16191 0.6281 0.0
N214 N 0.50287 0.15831 0.60236 0.0
N215 N 0.49239 0.15585 0.61888 0.0
C216 C 0.53761 0.16818 0.59258 0.0
H217 H 0.54326 0.15465 0.58497 0.0
H218 H 0.55023 0.17601 0.59995 0.0
H219 H 0.53111 0.17796 0.58089 0.0
C220 C 0.50664 0.10647 0.54336 0.0
N221 N 0.49552 0.12199 0.54965 0.0
N222 N 0.50144 0.12723 0.56764 0.0
C223 C 0.51567 0.11432 0.57381 0.0
C224 C 0.51965 0.10106 0.55847 0.0
C225 C 0.50487 0.09702 0.5232 0.0
H226 H 0.50343 0.10873 0.51158 0.0
H227 H 0.51785 0.08734 0.51976 0.0
H228 H 0.49125 0.08767 0.52297 0.0
O229 O 0.45004 0.13745 0.55446 0.0
O230 O 0.46282 0.15076 0.5819 0.0
H231 H 0.51561 0.12159 0.60516 0.0
H232 H 0.52817 0.09871 0.59889 0.0
C233 C 0.52529 0.11426 0.59398 0.0
H234 H 0.53994 0.12186 0.59321 0.0
H235 H 0.47734 0.15188 0.61921 0.0
O236 O 0.46615 0.11935 0.51374 0.0
C237 C 0.44794 0.14453 0.57197 0.0
Co238 Co 0.10879 0.21956 0.78532 0.0
Co239 Co 0.10571 0.23003 0.83068 0.0
C240 C 0.07178 0.23712 0.8008 0.0
O241 O 0.08131 0.23073 0.78554 0.0
O242 O 0.0798 0.23759 0.81813 0.0
C243 C 0.11698 0.21759 0.74086 0.0
O244 O 0.10246 0.23001 0.73646 0.0
C245 C 0.10325 0.256 0.86612 0.0
C246 C 0.11577 0.23581 0.88905 0.0
C247 C 0.109 0.2551 0.88605 0.0
N248 N 0.10698 0.23816 0.85774 0.0
N249 N 0.11416 0.2261 0.87159 0.0
C250 C 0.09375 0.27309 0.8553 0.0
H251 H 0.1054 0.28232 0.84804 0.0
H252 H 0.0852 0.28265 0.8658 0.0
H253 H 0.08368 0.26746 0.84343 0.0
C254 C 0.13988 0.25107 0.7882 0.0
N255 N 0.1269 0.2383 0.79678 0.0
N256 N 0.12728 0.24091 0.81619 0.0
C257 C 0.14143 0.25452 0.82075 0.0
C258 C 0.1497 0.26176 0.80311 0.0
C259 C 0.14046 0.25496 0.7662 0.0
H260 H 0.12526 0.25333 0.75989 0.0
H261 H 0.14585 0.27023 0.7628 0.0
H262 H 0.15045 0.24392 0.75895 0.0
O263 O 0.10776 0.19317 0.79954 0.0
O264 O 0.10629 0.20111 0.83155 0.0
H265 H 0.1637 0.26412 0.8419 0.0
H266 H 0.13874 0.27222 0.84726 0.0
C267 C 0.14776 0.2596 0.84158 0.0
H268 H 0.14563 0.24659 0.85156 0.0
H269 H 0.1186 0.21141 0.86896 0.0
O270 O 0.11999 0.21257 0.75889 0.0
C271 C 0.10655 0.18811 0.81782 0.0
Co272 Co 0.46622 0.02463 0.13837 0.0
Co273 Co 0.42055 0.01539 0.13723 0.0
C274 C 0.4477 0.00809 0.17392 0.0
O275 O 0.46398 0.01353 0.16556 0.0
O276 O 0.43101 0.00833 0.16454 0.0
C277 C 0.5112 0.02725 0.13086 0.0
O278 O 0.51607 0.01452 0.14496 0.0
C279 C 0.38515 0.98922 0.1362 0.0
C280 C 0.36382 0.00912 0.12077 0.0
C281 C 0.36618 0.98981 0.12777 0.0
N282 N 0.3937 0.00719 0.13363 0.0
N283 N 0.38072 0.0191 0.12477 0.0
C284 C 0.39496 0.97224 0.14695 0.0
H285 H 0.40517 0.97806 0.15862 0.0
H286 H 0.40401 0.96333 0.13635 0.0
H287 H 0.38361 0.96236 0.15388 0.0
C288 C 0.46537 0.99153 0.10899 0.0
N289 N 0.45599 0.00563 0.11987 0.0
N290 N 0.43667 0.00377 0.11737 0.0
C291 C 0.43313 0.98938 0.10374 0.0
C292 C 0.45119 0.98069 0.09831 0.0
C293 C 0.48701 0.9866 0.11146 0.0
H294 H 0.49595 0.99595 0.10111 0.0
H295 H 0.4917 0.98984 0.12698 0.0
H296 H 0.49005 0.97064 0.10828 0.0
O297 O 0.45195 0.05097 0.13914 0.0
O298 O 0.41989 0.04428 0.13522 0.0
H299 H 0.40356 -0.00139 0.0953 0.0
H300 H 0.41468 0.98009 0.07911 0.0
C301 C 0.41307 0.98508 0.09484 0.0
H302 H 0.40558 0.97299 0.10321 0.0
H303 H 0.38373 0.0338 0.1206 0.0
O304 O 0.49302 0.03188 0.12813 0.0
C305 C 0.43393 0.05673 0.13743 0.0
Co306 Co 0.22461 0.21375 0.38996 0.0
Co307 Co 0.23483 0.16813 0.39124 0.0
C308 C 0.24108 0.19565 0.4268 0.0
O309 O 0.23552 0.21141 0.41755 0.0
O310 O 0.24139 0.1786 0.41822 0.0
C311 C 0.22572 0.25819 0.38399 0.0
O312 O 0.24134 0.26002 0.39571 0.0
C313 C 0.25742 0.13005 0.3944 0.0
C314 C 0.23966 0.11168 0.37346 0.0
C315 C 0.25668 0.11146 0.38517 0.0
N316 N 0.24182 0.14087 0.38789 0.0
N317 N 0.23109 0.12964 0.37572 0.0
C318 C 0.27213 0.13716 0.40967 0.0
H319 H 0.26478 0.14749 0.42029 0.0
H320 H 0.28442 0.1454 0.40228 0.0
H321 H 0.27861 0.12436 0.41796 0.0
C322 C 0.25523 0.21189 0.35746 0.0
N323 N 0.24309 0.20303 0.37091 0.0
N324 N 0.24718 0.18383 0.37134 0.0
C325 C 0.26188 0.17988 0.35814 0.0
C326 C 0.26763 0.19758 0.34909 0.0
C327 C 0.25533 0.23373 0.35287 0.0
H328 H 0.23993 0.23872 0.34954 0.0
H329 H 0.261 0.24204 0.36601 0.0
H330 H 0.2649 0.23718 0.3398 0.0
O331 O 0.19824 0.20006 0.39014 0.0
O332 O 0.20582 0.16799 0.38862 0.0
H333 H 0.26028 0.14841 0.35278 0.0
H334 H 0.28291 0.15975 0.34371 0.0
C335 C 0.27173 0.15995 0.35587 0.0
H336 H 0.27945 0.15613 0.36994 0.0
H337 H 0.21828 0.13452 0.36832 0.0
O338 O 0.21779 0.24116 0.38147 0.0
C339 C 0.19299 0.18185 0.38925 0.0
Co340 Co 0.03528 0.9693 0.63225 0.0
Co341 Co 0.07868 0.98479 0.63951 0.0
C342 C 0.04794 0.98462 0.67215 0.0
O343 O 0.03417 0.97755 0.66102 0.0
O344 O 0.06532 0.98824 0.66534 0.0
C345 C 0.99232 0.97051 0.62519 0.0
O346 O 0.99229 0.9871 0.63565 0.0
C347 C 0.11154 0.01276 0.64758 0.0
C348 C 0.13704 0.99586 0.6352 0.0
C349 C 0.13186 0.01381 0.64396 0.0
N350 N 0.10496 0.99502 0.64096 0.0
N351 N 0.12032 0.98487 0.63388 0.0
C352 C 0.09871 0.0279 0.65785 0.0
H353 H 0.08267 0.02461 0.65535 0.0
H354 H 0.10226 0.04319 0.65261 0.0
H355 H 0.10179 0.02737 0.67412 0.0
C356 C 0.03705 0.00191 0.6013 0.0
N357 N 0.04546 0.99043 0.61561 0.0
N358 N 0.06389 0.99663 0.61852 0.0
C359 C 0.06778 0.01202 0.6061 0.0
C360 C 0.05077 0.01608 0.59505 0.0
C361 C 0.01636 -0.0006 0.59335 0.0
H362 H 0.01299 0.98334 0.59136 0.0
H363 H 0.00564 0.00603 0.60405 0.0
H364 H 0.01457 0.00707 0.57877 0.0
O365 O 0.05184 0.94456 0.63045 0.0
O366 O 0.08229 0.95625 0.63553 0.0
H367 H 0.09976 0.01332 0.60692 0.0
H368 H 0.08853 0.0327 0.59219 0.0
C369 C 0.08688 0.02362 0.60588 0.0
H370 H 0.08707 0.03397 0.61875 0.0
H371 H 0.1193 0.97065 0.62759 0.0
O372 O 0.00855 0.96105 0.62272 0.0
C373 C 0.07054 0.94177 0.63236 0.0
Co374 Co 0.27741 0.78309 0.88788 0.0
Co375 Co 0.2596 0.82513 0.8975 0.0
C376 C 0.25348 0.78978 0.92462 0.0
O377 O 0.26408 0.77788 0.91418 0.0
O378 O 0.25055 0.80779 0.91928 0.0
C379 C 0.2797 0.74094 0.87679 0.0
O380 O 0.2643 0.73821 0.88863 0.0
C381 C 0.22833 0.85508 0.9031 0.0
C382 C 0.24553 0.88304 0.89971 0.0
C383 C 0.22642 0.87566 0.90239 0.0
N384 N 0.24769 0.85054 0.90058 0.0
N385 N 0.25794 0.86731 0.89892 0.0
C386 C 0.21235 0.83992 0.90686 0.0
H387 H 0.21691 0.82511 0.90099 0.0
H388 H 0.19793 0.8445 0.90021 0.0
H389 H 0.21013 0.83853 0.92322 0.0
C390 C 0.25012 0.78814 0.85283 0.0
N391 N 0.25935 0.79526 0.86928 0.0
N392 N 0.25316 0.81363 0.87251 0.0
C393 C 0.2404 0.81895 0.85784 0.0
C394 C 0.23772 0.80283 0.84516 0.0
C395 C 0.25236 0.76738 0.84494 0.0
H396 H 0.26838 0.76417 0.84237 0.0
H397 H 0.24648 0.75664 0.85607 0.0
H398 H 0.24422 0.76535 0.83065 0.0
O399 O 0.30151 0.80007 0.89271 0.0
O400 O 0.28824 0.82933 0.90065 0.0
H401 H 0.23901 0.85061 0.86285 0.0
H402 H 0.22586 0.84228 0.84103 0.0
C403 C 0.22964 0.83849 0.85668 0.0
H404 H 0.21546 0.83744 0.86511 0.0
H405 H 0.27332 0.86798 0.89657 0.0
O406 O 0.28747 0.75819 0.8755 0.0
C407 C 0.30335 0.81818 0.89825 0.0
Co408 Co 0.4568 0.97111 0.36033 0.0
Co409 Co 0.41112 0.97926 0.35538 0.0
C410 C 0.44192 0.98598 0.32205 0.0
O411 O 0.45723 0.98135 0.33249 0.0
O412 O 0.42432 0.98554 0.32942 0.0
C413 C 0.50117 0.96406 0.36852 0.0
O414 O 0.50677 0.96569 0.3498 0.0
C415 C 0.37584 0.00472 0.35099 0.0
C416 C 0.35236 0.9848 0.36287 0.0
C417 C 0.35579 0.00409 0.35628 0.0
N418 N 0.3839 0.9868 0.35491 0.0
N419 N 0.36971 0.97484 0.3616 0.0
C420 C 0.38718 0.0217 0.34187 0.0
H421 H 0.39824 0.01588 0.33101 0.0
H422 H 0.39554 0.02984 0.35359 0.0
H423 H 0.37693 0.03224 0.33423 0.0
C424 C 0.45135 0.00212 0.39133 0.0
N425 N 0.44381 0.98972 0.37739 0.0
N426 N 0.42436 0.99209 0.37659 0.0
C427 C 0.41879 0.00544 0.39063 0.0
C428 C 0.43575 0.01243 0.40022 0.0
C429 C 0.4732 0.00536 0.39471 0.0
H430 H 0.48147 0.00367 0.38047 0.0
H431 H 0.47615 0.02043 0.40094 0.0
H432 H 0.47874 0.99405 0.40545 0.0
O433 O 0.44369 0.94433 0.35936 0.0
O434 O 0.41122 0.95044 0.35874 0.0
H435 H 0.38774 0.99749 0.39279 0.0
H436 H 0.39652 0.01409 0.41214 0.0
C437 C 0.39766 0.01031 0.39604 0.0
H438 H 0.3926 0.02349 0.38745 0.0
H439 H 0.37208 0.96016 0.36621 0.0
O440 O 0.4829 0.96596 0.37317 0.0
C441 C 0.42568 0.93827 0.35916 0.0
Co442 Co 0.27865 0.2105 0.61231 0.0
Co443 Co 0.2659 0.16575 0.60938 0.0
C444 C 0.2604 0.19501 0.57519 0.0
O445 O 0.26776 0.20983 0.58468 0.0
O446 O 0.25872 0.17785 0.58331 0.0
C447 C 0.27922 0.25459 0.61783 0.0
O448 O 0.26432 0.25646 0.60521 0.0
C449 C 0.23826 0.13167 0.60884 0.0
C450 C 0.25825 0.10783 0.61983 0.0
C451 C 0.2385 0.1119 0.61522 0.0
N452 N 0.25689 0.13895 0.61041 0.0
N453 N 0.26884 0.12447 0.6164 0.0
C454 C 0.2206 0.14421 0.60336 0.0
H455 H 0.22442 0.16032 0.60414 0.0
H456 H 0.20775 0.14096 0.61329 0.0
H457 H 0.21609 0.14064 0.58782 0.0
C458 C 0.2482 0.20932 0.64486 0.0
N459 N 0.25966 0.20024 0.63098 0.0
N460 N 0.25567 0.18101 0.63105 0.0
C461 C 0.24238 0.17717 0.64573 0.0
C462 C 0.23679 0.19504 0.65453 0.0
C463 C 0.24785 0.23131 0.64864 0.0
H464 H 0.26305 0.2364 0.65271 0.0
H465 H 0.24313 0.23915 0.63485 0.0
H466 H 0.23753 0.23528 0.66097 0.0
O467 O 0.30435 0.19537 0.61253 0.0
O468 O 0.29484 0.16384 0.61043 0.0
H469 H 0.23232 0.15575 0.66749 0.0
H470 H 0.22004 0.15445 0.64393 0.0
C471 C 0.23468 0.15692 0.65117 0.0
H472 H 0.24542 0.1452 0.64676 0.0
H473 H 0.28403 0.12627 0.61933 0.0
O474 O 0.28648 0.23744 0.6213 0.0
C475 C 0.3085 0.17686 0.61146 0.0
Co476 Co 0.03119 0.01916 0.85634 0.0
Co477 Co 0.07575 0.00613 0.85213 0.0
C478 C 0.04428 -0.00142 0.81993 0.0
O479 O 0.02995 0.00696 0.82934 0.0
O480 O 0.06177 0.99726 0.82747 0.0
C481 C 0.9873 0.02234 0.86532 0.0
O482 O 0.98285 0.0091 0.85154 0.0
C483 C 0.10871 0.97734 0.8528 0.0
C484 C 0.13369 0.99729 0.86103 0.0
C485 C 0.12866 0.97737 0.85853 0.0
N486 N 0.10225 0.99633 0.85266 0.0
N487 N 0.11739 0.00819 0.85698 0.0
C488 C 0.09536 0.9597 0.84955 0.0
H489 H 0.07944 0.96417 0.85051 0.0
H490 H 0.09858 0.94775 0.86056 0.0
H491 H 0.09817 0.95357 0.83442 0.0
C492 C 0.03361 0.98821 0.88808 0.0
N493 N 0.0423 0.00052 0.87474 0.0
N494 N 0.06166 0.99762 0.87505 0.0
C495 C 0.0661 0.98449 0.88966 0.0
C496 C 0.04843 0.9776 0.8981 0.0
C497 C 0.01158 0.98458 0.88884 0.0
H498 H 0.00451 0.99594 0.8986 0.0
H499 H 0.00526 0.98592 0.87363 0.0
H500 H 0.008 0.96949 0.89459 0.0
O501 O 0.04678 0.04476 0.85425 0.0
O502 O 0.07813 0.03494 0.85081 0.0
H503 H 0.08677 0.97842 0.91343 0.0
H504 H 0.09243 0.96619 0.89045 0.0
C505 C 0.08681 0.98026 0.89696 0.0
H506 H 0.09705 0.99261 0.89287 0.0
H507 H 0.11627 0.02366 0.85848 0.0
O508 O 0.00532 0.02761 0.86789 0.0
C509 C 0.06521 0.04871 0.85168 0.0
Co510 Co 0.22289 0.7874 0.11064 0.0
Co511 Co 0.23902 0.83018 0.10039 0.0
C512 C 0.23846 0.79682 0.07006 0.0
O513 O 0.23119 0.78394 0.08215 0.0
O514 O 0.24232 0.81471 0.07547 0.0
C515 C 0.21202 0.7445 0.11918 0.0
O516 O 0.21427 0.73913 0.10045 0.0
C517 C 0.26577 0.86468 0.0912 0.0
C518 C 0.24878 0.88832 0.10676 0.0
C519 C 0.26625 0.88479 0.09635 0.0
N520 N 0.2489 0.85672 0.09868 0.0
N521 N 0.23873 0.87105 0.10764 0.0
C522 C 0.28041 0.85352 0.07851 0.0
H523 H 0.27332 0.84007 0.07195 0.0
H524 H 0.29332 0.84866 0.0876 0.0
H525 H 0.28614 0.86336 0.06647 0.0
C526 C 0.25629 0.7898 0.13952 0.0
N527 N 0.24431 0.7983 0.12577 0.0
N528 N 0.25058 0.81655 0.12224 0.0
C529 C 0.2664 0.82047 0.1341 0.0
C530 C 0.2707 0.80353 0.14522 0.0
C531 C 0.25414 0.76877 0.14675 0.0
H532 H 0.23959 0.76722 0.15444 0.0
H533 H 0.25425 0.75843 0.1338 0.0
H534 H 0.26611 0.76456 0.15736 0.0
O535 O 0.19829 0.80423 0.11106 0.0
O536 O 0.2104 0.83399 0.10364 0.0
H537 H 0.2682 0.8524 0.13302 0.0
H538 H 0.28841 0.84081 0.14644 0.0
C539 C 0.27832 0.83934 0.13344 0.0
H540 H 0.28761 0.83929 0.1198 0.0
H541 H 0.22519 0.86889 0.11502 0.0
O542 O 0.21496 0.76251 0.1243 0.0
C543 C 0.19575 0.82272 0.10756 0.0
Co544 Co 0.13666 0.46099 0.02442 0.0
Co545 Co 0.13809 0.41553 0.01357 0.0
C546 C 0.1731 0.44368 0.00658 0.0
O547 O 0.16391 0.45929 0.01261 0.0
O548 O 0.16466 0.42658 0.0064 0.0
C549 C 0.13094 0.50514 0.02306 0.0
O550 O 0.14311 0.5063 0.00772 0.0
C551 C 0.14147 0.37868 0.9893 0.0
C552 C 0.12226 0.35859 0.00711 0.0
C553 C 0.13304 0.35972 0.98952 0.0
N554 N 0.13536 0.38843 0.00577 0.0
N555 N 0.12424 0.37618 0.01651 0.0
C556 C 0.15564 0.38718 0.97424 0.0
H557 H 0.16649 0.39719 0.98166 0.0
H558 H 0.14733 0.39612 0.96308 0.0
H559 H 0.16379 0.37509 0.96636 0.0
C560 C 0.10349 0.45914 0.99445 0.0
N561 N 0.11722 0.45026 0.00626 0.0
N562 N 0.11754 0.43107 0.0021 0.0
C563 C 0.10388 0.42713 0.9878 0.0
C564 C 0.09476 0.44486 0.98228 0.0
C565 C 0.09907 0.48102 0.99431 0.0
H566 H 0.09583 0.48606 0.00972 0.0
H567 H 0.11225 0.48921 0.98857 0.0
H568 H 0.08599 0.48455 0.98477 0.0
O569 O 0.13796 0.44682 0.05065 0.0
O570 O 0.13637 0.41481 0.04265 0.0
H571 H 0.09952 0.39552 0.98977 0.0
H572 H 0.0877 0.40674 0.96842 0.0
C573 C 0.10105 0.40717 0.97815 0.0
H574 H 0.11422 0.40373 0.96883 0.0
H575 H 0.11734 0.38011 0.02991 0.0
O576 O 0.12801 0.48838 0.03142 0.0
C577 C 0.13741 0.42851 0.05566 0.0
Co578 Co 0.63818 0.03235 0.96914 0.0
Co579 Co 0.64178 0.07749 0.98079 0.0
C580 C 0.67462 0.04834 0.98952 0.0
O581 O 0.66528 0.03368 0.98168 0.0
O582 O 0.66687 0.0657 0.99047 0.0
C583 C 0.63334 0.98945 0.97477 0.0
O584 O 0.64332 0.99187 0.99148 0.0
C585 C 0.64403 0.11384 0.00544 0.0
C586 C 0.63087 0.13584 0.98466 0.0
C587 C 0.63774 0.13361 0.00406 0.0
N588 N 0.64044 0.10488 0.98783 0.0
N589 N 0.63305 0.11823 0.97536 0.0
C590 C 0.6515 0.10293 0.02346 0.0
H591 H 0.65041 0.08655 0.02123 0.0
H592 H 0.64292 0.10732 0.03693 0.0
H593 H 0.66741 0.10682 0.02593 0.0
C594 C 0.60354 0.03576 0.99742 0.0
N595 N 0.61831 0.04395 0.98639 0.0
N596 N 0.61941 0.0631 0.99071 0.0
C597 C 0.60519 0.06762 0.00431 0.0
C598 C 0.59504 0.05033 0.00939 0.0
C599 C 0.59784 0.01421 0.99726 0.0
H600 H 0.597 0.00875 0.98167 0.0
H601 H 0.60919 0.00557 0.00561 0.0
H602 H 0.58312 0.01184 0.0045 0.0
O603 O 0.63974 0.04587 0.94257 0.0
O604 O 0.64316 0.07746 0.95165 0.0
H605 H 0.587 0.08955 0.01946 0.0
H606 H 0.61269 0.08921 0.02651 0.0
C607 C 0.60237 0.08768 0.0137 0.0
H608 H 0.6052 0.09962 0.00267 0.0
H609 H 0.62858 0.11507 0.96077 0.0
O610 O 0.6306 0.00434 0.96334 0.0
C611 C 0.64233 0.06418 0.93818 0.0
Co612 Co 0.21588 0.38444 0.22121 0.0
Co613 Co 0.1702 0.3849 0.23206 0.0
C614 C 0.19663 0.42069 0.23885 0.0
O615 O 0.21236 0.41178 0.23272 0.0
O616 O 0.17973 0.41187 0.23939 0.0
C617 C 0.2592 0.38117 0.22667 0.0
O618 O 0.25667 0.39053 0.24373 0.0
C619 C 0.13171 0.38722 0.25422 0.0
C620 C 0.11454 0.36444 0.23758 0.0
C621 C 0.11361 0.37707 0.25389 0.0
N622 N 0.143 0.38038 0.23907 0.0
N623 N 0.13247 0.36707 0.22901 0.0
C624 C 0.13787 0.4036 0.26815 0.0
H625 H 0.1474 0.41451 0.26021 0.0
H626 H 0.14664 0.39735 0.2807 0.0
H627 H 0.1246 0.41135 0.27434 0.0
C628 C 0.21451 0.35054 0.25063 0.0
N629 N 0.20555 0.36448 0.2391 0.0
N630 N 0.18653 0.36522 0.24396 0.0
C631 C 0.18294 0.35218 0.25889 0.0
C632 C 0.20061 0.34257 0.26373 0.0
C633 C 0.23601 0.34476 0.2494 0.0
H634 H 0.24088 0.34443 0.2336 0.0
H635 H 0.24504 0.35574 0.25784 0.0
H636 H 0.23852 0.3298 0.25607 0.0
O637 O 0.20232 0.38472 0.19475 0.0
O638 O 0.17031 0.38335 0.20283 0.0
H639 H 0.15163 0.34599 0.2597 0.0
H640 H 0.16425 0.34051 0.28282 0.0
C641 C 0.1636 0.35091 0.27001 0.0
H642 H 0.15977 0.36586 0.27581 0.0
H643 H 0.13783 0.35923 0.21665 0.0
O644 O 0.24428 0.37834 0.21531 0.0
C645 C 0.184 0.38416 0.18978 0.0
Co646 Co 0.85663 0.96197 0.47228 0.0
Co647 Co 0.84638 0.91978 0.48946 0.0
C648 C 0.81833 0.95507 0.49312 0.0
O649 O 0.82954 0.96667 0.48299 0.0
O650 O 0.82342 0.93714 0.49724 0.0
C651 C 0.86747 0.00464 0.46717 0.0
O652 O 0.85262 0.0096 0.47899 0.0
C653 C 0.8455 0.88838 0.52017 0.0
C654 C 0.84876 0.8618 0.50093 0.0
C655 C 0.8492 0.86796 0.52067 0.0
N656 N 0.84391 0.89398 0.50095 0.0
N657 N 0.84509 0.8779 0.48961 0.0
C658 C 0.84528 0.90269 0.53736 0.0
H659 H 0.84749 0.91824 0.53207 0.0
H660 H 0.85679 0.89875 0.54859 0.0
H661 H 0.83053 0.90177 0.54483 0.0
C662 C 0.88799 0.95845 0.50331 0.0
N663 N 0.87315 0.95057 0.49227 0.0
N664 N 0.87102 0.93166 0.49692 0.0
C665 C 0.8856 0.92643 0.50981 0.0
C666 C 0.89651 0.94338 0.51479 0.0
C667 C 0.8919 0.98041 0.50471 0.0
H668 H 0.87764 0.98866 0.50333 0.0
H669 H 0.89882 0.98456 0.51916 0.0
H670 H 0.90193 0.98499 0.49236 0.0
O671 O 0.85427 0.94466 0.44805 0.0
O672 O 0.84509 0.91552 0.46066 0.0
H673 H 0.90763 0.90369 0.51471 0.0
H674 H 0.88593 0.90137 0.52988 0.0
C675 C 0.89113 0.90533 0.51475 0.0
H676 H 0.88462 0.89484 0.50372 0.0
H677 H 0.84502 0.87811 0.47403 0.0
O678 O 0.87032 0.9864 0.46284 0.0
C679 C 0.84888 0.92657 0.44577 0.0
Co680 Co 0.78256 0.10899 0.2225 0.0
Co681 Co 0.82687 0.1062 0.23769 0.0
C682 C 0.79959 0.07183 0.24265 0.0
O683 O 0.78525 0.08123 0.23415 0.0
O684 O 0.81656 0.08 0.24561 0.0
C685 C 0.73923 0.11409 0.2261 0.0
O686 O 0.74091 0.10585 0.24382 0.0
C687 C 0.86521 0.10549 0.26045 0.0
C688 C 0.8809 0.12951 0.24408 0.0
C689 C 0.88251 0.11696 0.26039 0.0
N690 N 0.85375 0.11144 0.24507 0.0
N691 N 0.86347 0.12543 0.23512 0.0
C692 C 0.85875 0.09076 0.27595 0.0
H693 H 0.84251 0.08777 0.27482 0.0
H694 H 0.86243 0.09638 0.29111 0.0
H695 H 0.86692 0.07654 0.27363 0.0
C696 C 0.78312 0.14357 0.25131 0.0
N697 N 0.79211 0.12869 0.24103 0.0
N698 N 0.8104 0.12665 0.24788 0.0
C699 C 0.81336 0.13956 0.26304 0.0
C700 C 0.79616 0.1507 0.26573 0.0
C701 C 0.76252 0.15119 0.24752 0.0
H702 H 0.75904 0.15049 0.23136 0.0
H703 H 0.75173 0.14199 0.25601 0.0
H704 H 0.76101 0.16687 0.2527 0.0
O705 O 0.79759 0.10933 0.19687 0.0
O706 O 0.82823 0.10585 0.20858 0.0
H707 H 0.8444 0.14483 0.26826 0.0
H708 H 0.8291 0.14828 0.29012 0.0
C709 C 0.83121 0.13917 0.27648 0.0
H710 H 0.83409 0.12362 0.28116 0.0
H711 H 0.8577 0.13293 0.22275 0.0
O712 O 0.75458 0.11553 0.21506 0.0
C713 C 0.81622 0.10714 0.19403 0.0
Co714 Co 0.36195 0.53238 0.52261 0.0
Co715 Co 0.35734 0.57792 0.51405 0.0
C716 C 0.32293 0.54755 0.51145 0.0
O717 O 0.33347 0.5321 0.51509 0.0
O718 O 0.33064 0.565 0.51095 0.0
C719 C 0.37352 0.49643 0.54386 0.0
O720 O 0.36222 0.50292 0.55851 0.0
C721 C 0.3503 0.61166 0.48734 0.0
C722 C 0.36082 0.63698 0.50572 0.0
C723 C 0.35366 0.63206 0.48696 0.0
N724 N 0.35557 0.60479 0.50541 0.0
N725 N 0.36151 0.62003 0.51645 0.0
C726 C 0.34163 0.59887 0.47118 0.0
H727 H 0.34519 0.58291 0.47386 0.0
H728 H 0.34705 0.60348 0.45625 0.0
H729 H 0.32517 0.60064 0.47127 0.0
C730 C 0.38871 0.53605 0.48762 0.0
N731 N 0.37717 0.54435 0.50185 0.0
N732 N 0.37688 0.5638 0.49933 0.0
C733 C 0.38922 0.56859 0.48411 0.0
C734 C 0.39679 0.55112 0.47597 0.0
C735 C 0.39188 0.51407 0.48528 0.0
H736 H 0.37809 0.50583 0.48927 0.0
H737 H 0.39643 0.51005 0.4699 0.0
H738 H 0.40403 0.50942 0.49547 0.0
O739 O 0.36373 0.54641 0.54888 0.0
O740 O 0.36371 0.57883 0.54247 0.0
H741 H 0.40852 0.59091 0.47122 0.0
H742 H 0.38292 0.59253 0.46409 0.0
C743 C 0.39304 0.58934 0.47678 0.0
H744 H 0.39064 0.60035 0.48887 0.0
H745 H 0.36675 0.61876 0.53107 0.0
O746 O 0.37375 0.50577 0.52734 0.0
C747 C 0.36467 0.56446 0.55476 0.0
Co748 Co 0.20622 0.60751 0.27285 0.0
Co749 Co 0.16136 0.60184 0.26084 0.0
C750 C 0.19215 0.56917 0.25547 0.0
O751 O 0.20663 0.57957 0.26231 0.0
O752 O 0.17455 0.57634 0.254 0.0
C753 C 0.25025 0.61565 0.27331 0.0
O754 O 0.25337 0.60237 0.25921 0.0
C755 C 0.12578 0.59717 0.23517 0.0
C756 C 0.10293 0.61097 0.2546 0.0
C757 C 0.10586 0.60294 0.23579 0.0
N758 N 0.13426 0.60213 0.25268 0.0
N759 N 0.12042 0.61001 0.26432 0.0
C760 C 0.13643 0.58642 0.21871 0.0
H761 H 0.14439 0.59726 0.20909 0.0
H762 H 0.12572 0.5779 0.20935 0.0
H763 H 0.14772 0.57611 0.22504 0.0
C764 C 0.20243 0.64006 0.24281 0.0
N765 N 0.19444 0.62536 0.25403 0.0
N766 N 0.17537 0.62365 0.24963 0.0
C767 C 0.17058 0.63749 0.23578 0.0
C768 C 0.18759 0.64811 0.23084 0.0
C769 C 0.2242 0.645 0.2422 0.0
H770 H 0.22891 0.65079 0.25699 0.0
H771 H 0.23278 0.63124 0.23895 0.0
H772 H 0.22773 0.65627 0.23062 0.0
O773 O 0.19175 0.60718 0.29882 0.0
O774 O 0.16022 0.6032 0.28988 0.0
H775 H 0.13877 0.63883 0.2396 0.0
H776 H 0.14868 0.65664 0.222 0.0
C777 C 0.15006 0.64116 0.22776 0.0
H778 H 0.14709 0.63082 0.21523 0.0
H779 H 0.12311 0.61546 0.27867 0.0
O780 O 0.23272 0.61836 0.27999 0.0
C781 C 0.17342 0.60508 0.3033 0.0
Co782 Co 0.28511 0.38564 0.77673 0.0
Co783 Co 0.32619 0.39781 0.75774 0.0
C784 C 0.29146 0.42558 0.75732 0.0
O785 O 0.28064 0.41369 0.76753 0.0
O786 O 0.30901 0.4209 0.75174 0.0
C787 C 0.24333 0.37487 0.77629 0.0
O788 O 0.24282 0.38541 0.75976 0.0
C789 C 0.3559 0.40516 0.72621 0.0
C790 C 0.38386 0.39918 0.74262 0.0
C791 C 0.3764 0.40333 0.72378 0.0
N792 N 0.3515 0.40168 0.74549 0.0
N793 N 0.36833 0.39862 0.75529 0.0
C794 C 0.34068 0.41064 0.71077 0.0
H795 H 0.32585 0.40449 0.71484 0.0
H796 H 0.34515 0.40556 0.69568 0.0
H797 H 0.33935 0.42715 0.71034 0.0
C798 C 0.28923 0.35307 0.74617 0.0
N799 N 0.29627 0.36918 0.75608 0.0
N800 N 0.31411 0.37357 0.74904 0.0
C801 C 0.31909 0.36001 0.73494 0.0
C802 C 0.30329 0.34697 0.73232 0.0
C803 C 0.26947 0.34335 0.74975 0.0
H804 H 0.26681 0.34182 0.76599 0.0
H805 H 0.25757 0.35267 0.74304 0.0
H806 H 0.26883 0.32831 0.7428 0.0
O807 O 0.30307 0.38676 0.80033 0.0
O808 O 0.33128 0.39752 0.78673 0.0
H809 H 0.35065 0.36521 0.73285 0.0
H810 H 0.34196 0.34469 0.7181 0.0
C811 C 0.3382 0.35988 0.72341 0.0
H812 H 0.33653 0.36947 0.71008 0.0
H813 H 0.36913 0.39515 0.77046 0.0
O814 O 0.25956 0.37373 0.78606 0.0
C815 C 0.3211 0.39259 0.80195 0.0
Co816 Co 0.52196 0.63887 0.96237 0.0
Co817 Co 0.51114 0.64095 0.9169 0.0
C818 C 0.50513 0.67589 0.94558 0.0
O819 O 0.51093 0.66634 0.96106 0.0
O820 O 0.50461 0.66766 0.92835 0.0
C821 C 0.52259 0.63197 0.00682 0.0
O822 O 0.5075 0.64415 0.00967 0.0
C823 C 0.48573 0.64321 0.8808 0.0
C824 C 0.50477 0.62649 0.85965 0.0
C825 C 0.48613 0.63516 0.86165 0.0
N826 N 0.50312 0.63879 0.8898 0.0
N827 N 0.51457 0.62923 0.8769 0.0
C828 C 0.46961 0.65554 0.89019 0.0
H829 H 0.47631 0.66702 0.90007 0.0
H830 H 0.45985 0.64602 0.89952 0.0
H831 H 0.46035 0.66291 0.87859 0.0
C832 C 0.49153 0.60642 0.96037 0.0
N833 N 0.5034 0.6201 0.95154 0.0
N834 N 0.49964 0.6202 0.93225 0.0
C835 C 0.48582 0.6061 0.92816 0.0
C836 C 0.47995 0.59723 0.9459 0.0
C837 C 0.4909 0.60246 0.98233 0.0
H838 H 0.50601 0.59817 0.98753 0.0
H839 H 0.48625 0.61623 0.99024 0.0
H840 H 0.48041 0.59021 0.98608 0.0
O841 O 0.54797 0.63962 0.94801 0.0
O842 O 0.54011 0.63864 0.91595 0.0
H843 H 0.48938 0.60289 0.89648 0.0
H844 H 0.47066 0.58688 0.90699 0.0
C845 C 0.47745 0.60191 0.90785 0.0
H846 H 0.46564 0.6129 0.90441 0.0
H847 H 0.52874 0.62367 0.88021 0.0
O848 O 0.52953 0.62949 0.98934 0.0
C849 C 0.55305 0.63914 0.92972 0.0
Co850 Co 0.61122 0.27363 0.20882 0.0
Co851 Co 0.6106 0.26327 0.16348 0.0
C852 C 0.57468 0.25773 0.19171 0.0
O853 O 0.58386 0.26314 0.20753 0.0
O854 O 0.58338 0.25741 0.17468 0.0
C855 C 0.61671 0.27659 0.25348 0.0
O856 O 0.60191 0.26426 0.25715 0.0
C857 C 0.6087 0.23613 0.12912 0.0
C858 C 0.61904 0.25595 0.10482 0.0
C859 C 0.61311 0.23661 0.10892 0.0
N860 N 0.61213 0.25438 0.13668 0.0
N861 N 0.61812 0.26619 0.12206 0.0
C862 C 0.60035 0.21908 0.14089 0.0
H863 H 0.60079 0.22242 0.15712 0.0
H864 H 0.60868 0.20513 0.13779 0.0
H865 H 0.58462 0.21658 0.13631 0.0
C866 C 0.64067 0.24066 0.2082 0.0
N867 N 0.62923 0.25414 0.19862 0.0
N868 N 0.63056 0.25111 0.1793 0.0
C869 C 0.64387 0.23637 0.17588 0.0
C870 C 0.65049 0.22891 0.19413 0.0
C871 C 0.6395 0.23714 0.23025 0.0
H872 H 0.64958 0.24774 0.23802 0.0
H873 H 0.62403 0.23979 0.23543 0.0
H874 H 0.64371 0.22166 0.23428 0.0
O875 O 0.61081 0.29959 0.1941 0.0
O876 O 0.61368 0.29219 0.16207 0.0
H877 H 0.66653 0.22493 0.15618 0.0
H878 H 0.64152 0.21763 0.1501 0.0
C879 C 0.65082 0.23014 0.15557 0.0
H880 H 0.64964 0.24277 0.14494 0.0
H881 H 0.62197 0.28117 0.12391 0.0
O882 O 0.62103 0.28117 0.23561 0.0
C883 C 0.6122 0.30496 0.17594 0.0
Co884 Co 0.97166 0.36052 0.4587 0.0
Co885 Co 0.9825 0.35801 0.41315 0.0
C886 C 0.9877 0.32308 0.44212 0.0
O887 O 0.98226 0.33274 0.45768 0.0
O888 O 0.98821 0.33131 0.4249 0.0
C889 C 0.97039 0.36803 0.50317 0.0
O890 O 0.98493 0.35531 0.50654 0.0
C891 C 0.00742 0.35311 0.37683 0.0
C892 C 0.99001 0.37143 0.35558 0.0
C893 C 0.00751 0.36062 0.35747 0.0
N894 N 0.99084 0.35971 0.38604 0.0
N895 N 0.98037 0.37032 0.37312 0.0
C896 C 0.0223 0.33927 0.38615 0.0
H897 H 0.03364 0.34794 0.3945 0.0
H898 H 0.03002 0.3303 0.37454 0.0
H899 H 0.01477 0.32916 0.39685 0.0
C900 C 0.00288 0.39216 0.45661 0.0
N901 N 0.99061 0.37886 0.44775 0.0
N902 N 0.99468 0.37832 0.42854 0.0
C903 C 0.00937 0.39155 0.42454 0.0
C904 C 0.01526 0.4005 0.44227 0.0
C905 C 0.00311 0.39653 0.47851 0.0
H906 H 0.98797 0.40115 0.48331 0.0
H907 H 0.00735 0.38284 0.48676 0.0
H908 H 0.0137 0.40868 0.48228 0.0
O909 O 0.9458 0.35989 0.44413 0.0
O910 O 0.95348 0.36099 0.41203 0.0
H911 H 0.00716 0.39525 0.39283 0.0
H912 H 0.02828 0.40775 0.40377 0.0
C913 C 0.01885 0.39421 0.40447 0.0
H914 H 0.02847 0.3812 0.40126 0.0
H915 H 0.96694 0.37744 0.37652 0.0
O916 O 0.96398 0.37053 0.48549 0.0
C917 C 0.9406 0.36045 0.42588 0.0
Co918 Co 0.89004 0.72433 0.71422 0.0
Co919 Co 0.8997 0.74037 0.67146 0.0
C920 C 0.92743 0.74654 0.70664 0.0
O921 O 0.91673 0.73682 0.71905 0.0
O922 O 0.92206 0.7489 0.68853 0.0
C923 C 0.87896 0.72201 0.7567 0.0
O924 O 0.89212 0.73612 0.76024 0.0
C925 C 0.90456 0.77162 0.64141 0.0
C926 C 0.90048 0.75449 0.61351 0.0
C927 C 0.90293 0.77367 0.62086 0.0
N928 N 0.90265 0.75219 0.64594 0.0
N929 N 0.90062 0.74197 0.62919 0.0
C930 C 0.90863 0.78752 0.65662 0.0
H931 H 0.89922 0.78516 0.67004 0.0
H932 H 0.90639 0.80273 0.65053 0.0
H933 H 0.9244 0.7862 0.66149 0.0
C934 C 0.85598 0.75259 0.70881 0.0
N935 N 0.87214 0.74278 0.70183 0.0
N936 N 0.87523 0.7481 0.68317 0.0
C937 C 0.86073 0.76088 0.67753 0.0
C938 C 0.84835 0.76447 0.69365 0.0
C939 C 0.84927 0.75218 0.73011 0.0
H940 H 0.84388 0.73697 0.73383 0.0
H941 H 0.86209 0.75579 0.73993 0.0
H942 H 0.83716 0.76305 0.73308 0.0
O943 O 0.89361 0.69974 0.69764 0.0
O944 O 0.90124 0.71143 0.66763 0.0
H945 H 0.84199 0.77185 0.65387 0.0
H946 H 0.86587 0.78359 0.65576 0.0
C947 C 0.85804 0.7691 0.65694 0.0
H948 H 0.86394 0.75858 0.64563 0.0
H949 H 0.89846 0.72656 0.62852 0.0
O950 O 0.87709 0.71518 0.73911 0.0
C951 C 0.89837 0.69689 0.67944 0.0
Co952 Co 0.52434 0.35896 0.53978 0.0
Co953 Co 0.50705 0.34426 0.58072 0.0
C954 C 0.50386 0.31985 0.54292 0.0
O955 O 0.51394 0.33226 0.5326 0.0
O956 O 0.49956 0.32311 0.5612 0.0
C957 C 0.52784 0.37147 0.49806 0.0
O958 O 0.51609 0.35635 0.4938 0.0
C959 C 0.47527 0.34104 0.61054 0.0
C960 C 0.49321 0.34127 0.63818 0.0
C961 C 0.47382 0.34312 0.63115 0.0
N962 N 0.49467 0.33912 0.60575 0.0
N963 N 0.50521 0.33842 0.62239 0.0
C964 C 0.4589 0.34297 0.59541 0.0
H965 H 0.46513 0.34576 0.58031 0.0
H966 H 0.44829 0.35498 0.59955 0.0
H967 H 0.45037 0.32878 0.595 0.0
C968 C 0.49452 0.39083 0.54722 0.0
N969 N 0.50456 0.37437 0.55293 0.0
N970 N 0.49974 0.37 0.57143 0.0
C971 C 0.48769 0.38446 0.57862 0.0
C972 C 0.48347 0.39777 0.56335 0.0
C973 C 0.49411 0.39842 0.5262 0.0
H974 H 0.5079 0.4071 0.52327 0.0
H975 H 0.49362 0.38563 0.51572 0.0
H976 H 0.48095 0.40801 0.52333 0.0
O977 O 0.54842 0.35523 0.55701 0.0
O978 O 0.5359 0.3429 0.58511 0.0
H979 H 0.4844 0.40379 0.60395 0.0
H980 H 0.46752 0.38331 0.60357 0.0
C981 C 0.48308 0.38768 0.60027 0.0
H982 H 0.49352 0.37915 0.60985 0.0
H983 H 0.52076 0.33783 0.62289 0.0
O984 O 0.5332 0.37431 0.51604 0.0
C985 C 0.55074 0.34811 0.57452 0.0
Co986 Co 0.88671 0.27775 0.78744 0.0
Co987 Co 0.8898 0.26289 0.83164 0.0
C988 C 0.92382 0.25784 0.80301 0.0
O989 O 0.91442 0.26622 0.78863 0.0
O990 O 0.91574 0.25526 0.82009 0.0
C991 C 0.88123 0.27839 0.74332 0.0
O992 O 0.89276 0.26262 0.74162 0.0
C993 C 0.89261 0.23863 0.86876 0.0
C994 C 0.87217 0.25618 0.88788 0.0
C995 C 0.88358 0.23899 0.88743 0.0
N996 N 0.88633 0.2547 0.8585 0.0
N997 N 0.87443 0.26526 0.87017 0.0
C998 C 0.90754 0.22383 0.86114 0.0
H999 H 0.89981 0.21152 0.85325 0.0
H1000 H 0.91618 0.21733 0.8737 0.0
H1001 H 0.91784 0.23108 0.85044 0.0
C1002 C 0.85357 0.24765 0.78763 0.0
N1003 N 0.86752 0.2588 0.79703 0.0
N1004 N 0.8687 0.25291 0.81572 0.0
C1005 C 0.85556 0.23794 0.8188 0.0
C1006 C 0.84569 0.23395 0.80103 0.0
C1007 C 0.84824 0.24944 0.76603 0.0
H1008 H 0.84569 0.26534 0.76225 0.0
H1009 H 0.8607 0.24362 0.75684 0.0
H1010 H 0.83453 0.24086 0.76244 0.0
O1011 O 0.8868 0.3032 0.80296 0.0
O1012 O 0.89 0.29191 0.83377 0.0
H1013 H 0.85155 0.23593 0.85043 0.0
H1014 H 0.8427 0.21434 0.83706 0.0
C1015 C 0.85448 0.22591 0.83759 0.0
H1016 H 0.86896 0.21839 0.83996 0.0
H1017 H 0.86727 0.27837 0.86577 0.0
O1018 O 0.87843 0.28614 0.7604 0.0
C1019 C 0.88883 0.30629 0.82158 0.0
Co1020 Co 0.97307 0.63961 0.02755 0.0
Co1021 Co 0.9834 0.63927 0.07327 0.0
C1022 C 0.9905 0.67554 0.04762 0.0
O1023 O 0.98457 0.66691 0.03164 0.0
O1024 O 0.99079 0.66642 0.06436 0.0
C1025 C 0.97855 0.63634 0.98404 0.0
O1026 O 0.99605 0.64486 0.98645 0.0
C1027 C 0.0053 0.64066 0.11184 0.0
C1028 C 0.98823 0.61783 0.1285 0.0
C1029 C 0.00482 0.63008 0.12969 0.0
N1030 N 0.99003 0.63435 0.10042 0.0
N1031 N 0.97967 0.62106 0.11067 0.0
C1032 C 0.01955 0.65684 0.10594 0.0
H1033 H 0.01166 0.66836 0.09708 0.0
H1034 H 0.03161 0.6506 0.0965 0.0
H1035 H 0.02634 0.66389 0.11932 0.0
C1036 C 0.00198 0.60506 0.02878 0.0
N1037 N 0.99082 0.61935 0.03769 0.0
N1038 N 0.99545 0.61978 0.0568 0.0
C1039 C 0.0098 0.60614 0.06051 0.0
C1040 C 0.01451 0.59646 0.04285 0.0
C1041 C 0.00069 0.59932 0.00727 0.0
H1042 H 0.98493 0.59956 0.0023 0.0
H1043 H 0.00956 0.61002 -0.00168 0.0
H1044 H 0.00685 0.58414 0.00478 0.0
O1045 O 0.94643 0.63951 0.04082 0.0
O1046 O 0.95428 0.63739 0.07285 0.0
H1047 H 0.00959 0.59912 0.09166 0.0
H1048 H 0.03287 0.59329 0.0795 0.0
C1049 C 0.02035 0.60404 0.0801 0.0
H1050 H 0.0265 0.61869 0.0845 0.0
H1051 H 0.96719 0.61356 0.10513 0.0
O1052 O 0.96719 0.63398 -0.00096 0.0
C1053 C 0.94134 0.63834 0.05908 0.0
Co1054 Co 0.60784 0.72165 0.28231 0.0
Co1055 Co 0.6061 0.73335 0.32744 0.0
C1056 C 0.57106 0.73849 0.29816 0.0
O1057 O 0.58045 0.73257 0.28266 0.0
O1058 O 0.57952 0.73925 0.31526 0.0
C1059 C 0.61515 0.71859 0.23806 0.0
O1060 O 0.60234 0.73292 0.23419 0.0
C1061 C 0.6065 0.76263 0.35997 0.0
C1062 C 0.61696 0.74363 0.38482 0.0
C1063 C 0.61341 0.76331 0.37953 0.0
N1064 N 0.60685 0.74351 0.35388 0.0
N1065 N 0.6124 0.73217 0.36902 0.0
C1066 C 0.60195 0.77984 0.34645 0.0
H1067 H 0.60215 0.77503 0.33059 0.0
H1068 H 0.61269 0.79222 0.3488 0.0
H1069 H 0.58682 0.78556 0.35001 0.0
C1070 C 0.63987 0.75249 0.28332 0.0
N1071 N 0.62644 0.74066 0.29254 0.0
N1072 N 0.62729 0.74393 0.31188 0.0
C1073 C 0.64223 0.75696 0.31564 0.0
C1074 C 0.65021 0.76332 0.29762 0.0
C1075 C 0.64272 0.7535 0.2612 0.0
H1076 H 0.64799 0.73879 0.25576 0.0
H1077 H 0.62825 0.75692 0.25394 0.0
H1078 H 0.65391 0.76491 0.2569 0.0
O1079 O 0.60689 0.69628 0.2979 0.0
O1080 O 0.60847 0.70449 0.32989 0.0
H1081 H 0.66558 0.76349 0.33668 0.0
H1082 H 0.6438 0.77849 0.33925 0.0
C1083 C 0.64907 0.76317 0.33599 0.0
H1084 H 0.64385 0.75255 0.34747 0.0
H1085 H 0.61458 0.71678 0.36811 0.0
O1086 O 0.61781 0.7129 0.25595 0.0
C1087 C 0.60757 0.6914 0.31625 0.0
Co1088 Co 0.96149 0.52602 0.6355 0.0
Co1089 Co 0.91629 0.51496 0.63832 0.0
C1090 C 0.94516 0.50793 0.67246 0.0
O1091 O 0.96026 0.51477 0.66302 0.0
O1092 O 0.92792 0.50702 0.66436 0.0
C1093 C 0.00583 0.52553 0.62978 0.0
O1094 O 0.00787 0.51069 0.64243 0.0
C1095 C 0.88025 0.48972 0.63994 0.0
C1096 C 0.85796 0.51071 0.62762 0.0
C1097 C 0.86042 0.4911 0.63375 0.0
N1098 N 0.88898 0.50754 0.63696 0.0
N1099 N 0.87546 0.52011 0.63007 0.0
C1100 C 0.89141 0.47163 0.64683 0.0
H1101 H 0.90775 0.47421 0.64598 0.0
H1102 H 0.88733 0.45842 0.63771 0.0
H1103 H 0.88742 0.4685 0.6626 0.0
C1104 C 0.9593 0.49592 0.60276 0.0
N1105 N 0.9505 0.50769 0.61655 0.0
N1106 N 0.93122 0.50389 0.61676 0.0
C1107 C 0.92714 0.4901 0.60256 0.0
C1108 C 0.94488 0.48425 0.5936 0.0
C1109 C 0.98125 0.49543 0.59868 0.0
H1110 H 0.98642 0.51066 0.59482 0.0
H1111 H 0.98922 0.49038 0.61228 0.0
H1112 H 0.98496 0.48531 0.58611 0.0
O1113 O 0.94768 0.55237 0.63577 0.0
O1114 O 0.91582 0.54414 0.63779 0.0
H1115 H 0.90546 0.47724 0.5825 0.0
H1116 H 0.90471 0.46802 0.60747 0.0
C1117 C 0.90691 0.48164 0.59837 0.0
H1118 H 0.89517 0.49273 0.60173 0.0
H1119 H 0.87842 0.53488 0.62612 0.0
O1120 O 0.98866 0.53287 0.62656 0.0
C1121 C 0.9294 0.55729 0.63704 0.0
Co1122 Co 0.71893 0.71706 0.88865 0.0
Co1123 Co 0.73014 0.67169 0.88854 0.0
C1124 C 0.73616 0.69883 0.92469 0.0
O1125 O 0.73028 0.71472 0.91593 0.0
O1126 O 0.73662 0.68203 0.91564 0.0
C1127 C 0.71766 0.7617 0.88427 0.0
O1128 O 0.73319 0.76401 0.89603 0.0
C1129 C 0.75568 0.6357 0.89062 0.0
C1130 C 0.73789 0.6151 0.87192 0.0
C1131 C 0.75582 0.61681 0.88205 0.0
N1132 N 0.73866 0.64488 0.88523 0.0
N1133 N 0.72796 0.63233 0.87439 0.0
C1134 C 0.77096 0.64465 0.90429 0.0
H1135 H 0.76364 0.6545 0.91537 0.0
H1136 H 0.7816 0.65386 0.89559 0.0
H1137 H 0.77943 0.63281 0.91219 0.0
C1138 C 0.74888 0.71678 0.85559 0.0
N1139 N 0.7373 0.7073 0.8691 0.0
N1140 N 0.74139 0.6881 0.86853 0.0
C1141 C 0.75528 0.68471 0.85434 0.0
C1142 C 0.76069 0.70281 0.84588 0.0
C1143 C 0.74906 0.73886 0.85237 0.0
H1144 H 0.73372 0.74402 0.84892 0.0
H1145 H 0.75416 0.74636 0.86621 0.0
H1146 H 0.75902 0.74316 0.83985 0.0
O1147 O 0.69314 0.70233 0.88906 0.0
O1148 O 0.70114 0.67042 0.88638 0.0
H1149 H 0.75269 0.65326 0.8491 0.0
H1150 H 0.77323 0.6647 0.83615 0.0
C1151 C 0.76449 0.66477 0.85017 0.0
H1152 H 0.77473 0.66085 0.86251 0.0
H1153 H 0.71419 0.63582 0.86802 0.0
O1154 O 0.71085 0.74433 0.88093 0.0
C1155 C 0.68813 0.68407 0.88778 0.0
Co1156 Co 0.53247 0.4707 0.13534 0.0
Co1157 Co 0.57774 0.48238 0.13762 0.0
C1158 C 0.54954 0.48749 0.17266 0.0
O1159 O 0.53418 0.48146 0.16308 0.0
O1160 O 0.56666 0.48844 0.16436 0.0
C1161 C 0.48893 0.47395 0.13056 0.0
O1162 O 0.49002 0.49069 0.14072 0.0
C1163 C 0.61284 0.50852 0.14144 0.0
C1164 C 0.63605 0.4899 0.12715 0.0
C1165 C 0.63271 0.5084 0.13569 0.0
N1166 N 0.60471 0.49095 0.13619 0.0
N1167 N 0.61873 0.47979 0.12793 0.0
C1168 C 0.60188 0.52463 0.15238 0.0
H1169 H 0.58551 0.52244 0.15111 0.0
H1170 H 0.60605 0.5396 0.1467 0.0
H1171 H 0.60608 0.52401 0.1684 0.0
C1172 C 0.53425 0.50114 0.10238 0.0
N1173 N 0.54306 0.48952 0.11633 0.0
N1174 N 0.56212 0.49424 0.11721 0.0
C1175 C 0.56598 0.50882 0.1038 0.0
C1176 C 0.54834 0.51392 0.09426 0.0
C1177 C 0.51268 0.50031 0.09676 0.0
H1178 H 0.5079 0.48456 0.09524 0.0
H1179 H 0.50375 0.50774 0.10852 0.0
H1180 H 0.50991 0.50808 0.08239 0.0
O1181 O 0.54703 0.44471 0.13546 0.0
O1182 O 0.57893 0.45331 0.1349 0.0
H1183 H 0.59791 0.50776 0.10175 0.0
H1184 H 0.58678 0.52732 0.08722 0.0
C1185 C 0.58575 0.51894 0.10141 0.0
H1186 H 0.58784 0.52974 0.11374 0.0
H1187 H 0.61634 0.46547 0.12228 0.0
O1188 O 0.50464 0.46373 0.12771 0.0
C1189 C 0.56544 0.44003 0.13508 0.0
Co1190 Co 0.77275 0.2837 0.38854 0.0
Co1191 Co 0.76191 0.32911 0.39085 0.0
C1192 C 0.75612 0.30077 0.42578 0.0
O1193 O 0.76188 0.28534 0.41615 0.0
O1194 O 0.75558 0.318 0.41761 0.0
C1195 C 0.7707 0.23972 0.3826 0.0
O1196 O 0.75472 0.23887 0.39393 0.0
C1197 C 0.73803 0.36616 0.39499 0.0
C1198 C 0.75544 0.38611 0.37526 0.0
C1199 C 0.73818 0.38513 0.38656 0.0
N1200 N 0.75421 0.35627 0.3884 0.0
N1201 N 0.76472 0.36843 0.37697 0.0
C1202 C 0.7233 0.35781 0.40959 0.0
H1203 H 0.73099 0.34792 0.42038 0.0
H1204 H 0.71196 0.34876 0.40163 0.0
H1205 H 0.71559 0.36998 0.41779 0.0
C1206 C 0.74256 0.2859 0.35562 0.0
N1207 N 0.75421 0.29454 0.36964 0.0
N1208 N 0.74982 0.31367 0.37052 0.0
C1209 C 0.73541 0.31779 0.35704 0.0
C1210 C 0.73017 0.30027 0.34736 0.0
C1211 C 0.74308 0.26427 0.35013 0.0
H1212 H 0.75873 0.25959 0.34757 0.0
H1213 H 0.73667 0.25537 0.36251 0.0
H1214 H 0.73437 0.26127 0.33635 0.0
O1215 O 0.79894 0.29773 0.38869 0.0
O1216 O 0.79094 0.32976 0.3881 0.0
H1217 H 0.7371 0.34939 0.35258 0.0
H1218 H 0.71506 0.33816 0.34203 0.0
C1219 C 0.72558 0.33773 0.35477 0.0
H1220 H 0.7171 0.34117 0.36848 0.0
H1221 H 0.77787 0.36439 0.36967 0.0
O1222 O 0.77954 0.2563 0.38008 0.0
C1223 C 0.80395 0.31603 0.3882 0.0
Co1224 Co 0.96112 0.47406 0.85846 0.0
Co1225 Co 0.91648 0.48781 0.85663 0.0
C1226 C 0.94483 0.49058 0.82103 0.0
O1227 O 0.95995 0.48351 0.83033 0.0
O1228 O 0.92797 0.49301 0.82968 0.0
C1229 C 0.00581 0.46922 0.86483 0.0
O1230 O 0.0106 0.48093 0.84985 0.0
C1231 C 0.88104 0.5143 0.85383 0.0
C1232 C 0.85915 0.49567 0.87008 0.0
C1233 C 0.86148 0.51395 0.86079 0.0
N1234 N 0.88985 0.49707 0.85916 0.0
N1235 N 0.87659 0.48597 0.86866 0.0
C1236 C 0.89093 0.53016 0.84159 0.0
H1237 H 0.89755 0.54161 0.85154 0.0
H1238 H 0.87987 0.53761 0.83175 0.0
H1239 H 0.9031 0.52365 0.83246 0.0
C1240 C 0.96222 0.50799 0.88694 0.0
N1241 N 0.95199 0.49476 0.87572 0.0
N1242 N 0.9329 0.49909 0.87658 0.0
C1243 C 0.93021 0.51449 0.88928 0.0
C1244 C 0.94876 0.52098 0.89602 0.0
C1245 C 0.98445 0.51004 0.8862 0.0
H1246 H 0.9913 0.49893 0.89639 0.0
H1247 H 0.98971 0.50707 0.87081 0.0
H1248 H 0.98945 0.52521 0.89053 0.0
O1249 O 0.94524 0.44873 0.85992 0.0
O1250 O 0.91398 0.45907 0.859 0.0
H1251 H 0.911 0.52931 0.91044 0.0
H1252 H 0.90536 0.534 0.88463 0.0
C1253 C 0.91024 0.52244 0.89537 0.0
H1254 H 0.89905 0.51025 0.89556 0.0
H1255 H 0.8796 0.4719 0.87461 0.0
O1256 O 0.98759 0.46571 0.86868 0.0
C1257 C 0.92661 0.44507 0.8597 0.0
Co1258 Co 0.77471 0.7106 0.10937 0.0
Co1259 Co 0.76403 0.66515 0.10651 0.0
C1260 C 0.7559 0.69492 0.07293 0.0
O1261 O 0.76224 0.7101 0.08257 0.0
O1262 O 0.75589 0.67747 0.08066 0.0
C1263 C 0.77426 0.75467 0.11622 0.0
O1264 O 0.75893 0.75658 0.10414 0.0
C1265 C 0.73799 0.62962 0.1048 0.0
C1266 C 0.75882 0.60663 0.11602 0.0
C1267 C 0.73907 0.60966 0.11061 0.0
N1268 N 0.7561 0.6379 0.10735 0.0
N1269 N 0.76856 0.62395 0.11356 0.0
C1270 C 0.71995 0.64131 0.09873 0.0
H1271 H 0.72292 0.65758 0.09982 0.0
H1272 H 0.70694 0.63733 0.10816 0.0
H1273 H 0.71623 0.63772 0.08299 0.0
C1274 C 0.74546 0.70768 0.14273 0.0
N1275 N 0.75715 0.69908 0.12874 0.0
N1276 N 0.75351 0.67977 0.12845 0.0
C1277 C 0.74 0.67547 0.14282 0.0
C1278 C 0.73403 0.69309 0.15191 0.0
C1279 C 0.74455 0.72961 0.14678 0.0
H1280 H 0.75969 0.73511 0.1505 0.0
H1281 H 0.73915 0.73744 0.13324 0.0
H1282 H 0.73449 0.73312 0.15946 0.0
O1283 O 0.80081 0.69653 0.10675 0.0
O1284 O 0.7932 0.66439 0.10702 0.0
H1285 H 0.72835 0.6535 0.16321 0.0
H1286 H 0.71783 0.65291 0.13876 0.0
C1287 C 0.73189 0.65512 0.14715 0.0
H1288 H 0.74289 0.64349 0.14315 0.0
H1289 H 0.78351 0.62649 0.1171 0.0
O1290 O 0.78208 0.7376 0.11884 0.0
C1291 C 0.80603 0.67828 0.1062 0.0
Co1292 Co 0.53304 0.52359 0.3575 0.0
Co1293 Co 0.57853 0.51306 0.3566 0.0
C1294 C 0.55064 0.50573 0.3213 0.0
O1295 O 0.53499 0.51172 0.33041 0.0
O1296 O 0.56771 0.50561 0.32984 0.0
C1297 C 0.48847 0.52402 0.36231 0.0
O1298 O 0.48632 0.50873 0.35021 0.0
C1299 C 0.61518 0.48838 0.35478 0.0
C1300 C 0.63584 0.50782 0.37168 0.0
C1301 C 0.63438 0.48933 0.36258 0.0
N1302 N 0.60564 0.50537 0.35959 0.0
N1303 N 0.6182 0.51703 0.36937 0.0
C1304 C 0.60626 0.47209 0.3423 0.0
H1305 H 0.59815 0.4614 0.35197 0.0
H1306 H 0.61807 0.46387 0.3341 0.0
H1307 H 0.59541 0.47841 0.33154 0.0
C1308 C 0.53468 0.49496 0.3916 0.0
N1309 N 0.5436 0.5059 0.37723 0.0
N1310 N 0.56285 0.50208 0.37739 0.0
C1311 C 0.56685 0.48901 0.39221 0.0
C1312 C 0.54909 0.48388 0.40152 0.0
C1313 C 0.51272 0.49488 0.39563 0.0
H1314 H 0.50769 0.51032 0.39882 0.0
H1315 H 0.50473 0.48942 0.3822 0.0
H1316 H 0.50887 0.48528 0.40856 0.0
O1317 O 0.54708 0.54971 0.35646 0.0
O1318 O 0.57917 0.54216 0.35807 0.0
H1319 H 0.59833 0.49263 0.39661 0.0
H1320 H 0.58755 0.47267 0.41104 0.0
C1321 C 0.58707 0.48053 0.39651 0.0
H1322 H 0.59102 0.46967 0.38472 0.0
H1323 H 0.6145 0.53103 0.3751 0.0
O1324 O 0.50575 0.53104 0.36565 0.0
C1325 C 0.5653 0.55497 0.35709 0.0
Co1326 Co 0.72205 0.28472 0.61211 0.0
Co1327 Co 0.73352 0.32985 0.60881 0.0
C1328 C 0.73879 0.30164 0.57434 0.0
O1329 O 0.73218 0.2866 0.58401 0.0
O1330 O 0.7402 0.31879 0.58246 0.0
C1331 C 0.72752 0.24168 0.61637 0.0
O1332 O 0.74429 0.24402 0.60647 0.0
C1333 C 0.7587 0.36539 0.60447 0.0
C1334 C 0.73994 0.3883 0.61906 0.0
C1335 C 0.75832 0.38526 0.61018 0.0
N1336 N 0.7414 0.35697 0.61005 0.0
N1337 N 0.73012 0.37081 0.61846 0.0
C1338 C 0.77483 0.35467 0.59332 0.0
H1339 H 0.77338 0.33829 0.59529 0.0
H1340 H 0.78983 0.35966 0.59819 0.0
H1341 H 0.77336 0.35814 0.57718 0.0
C1342 C 0.75252 0.28727 0.64505 0.0
N1343 N 0.74096 0.29566 0.6308 0.0
N1344 N 0.74559 0.31473 0.62947 0.0
C1345 C 0.76014 0.31899 0.64278 0.0
C1346 C 0.76523 0.30163 0.65283 0.0
C1347 C 0.75159 0.26592 0.65141 0.0
H1348 H 0.73583 0.261 0.65234 0.0
H1349 H 0.75968 0.25664 0.64037 0.0
H1350 H 0.75872 0.26377 0.66621 0.0
O1351 O 0.69573 0.29856 0.61337 0.0
O1352 O 0.70444 0.33033 0.61103 0.0
H1353 H 0.75897 0.35093 0.64443 0.0
H1354 H 0.77906 0.34014 0.6585 0.0
C1355 C 0.77023 0.33885 0.64461 0.0
H1356 H 0.7806 0.34082 0.63191 0.0
H1357 H 0.71596 0.36815 0.62438 0.0
O1358 O 0.71629 0.25666 0.61936 0.0
C1359 C 0.69111 0.31696 0.61248 0.0
Co1360 Co 0.63322 0.95582 0.52853 0.0
Co1361 Co 0.64744 0.91664 0.50767 0.0
C1362 C 0.67411 0.95222 0.51111 0.0
O1363 O 0.66142 0.96201 0.52138 0.0
O1364 O 0.67032 0.93489 0.50425 0.0
C1365 C 0.62419 0.99772 0.53522 0.0
O1366 O 0.63962 0.00144 0.52371 0.0
C1367 C 0.65692 0.88889 0.47493 0.0
C1368 C 0.65347 0.85996 0.4904 0.0
C1369 C 0.65721 0.86841 0.47192 0.0
N1370 N 0.65281 0.89232 0.49427 0.0
N1371 N 0.65117 0.87497 0.50349 0.0
C1372 C 0.66134 0.90496 0.46005 0.0
H1373 H 0.65547 0.91953 0.46531 0.0
H1374 H 0.65513 0.90125 0.44516 0.0
H1375 H 0.67777 0.90627 0.45839 0.0
C1376 C 0.60347 0.95404 0.4955 0.0
N1377 N 0.6187 0.94611 0.50603 0.0
N1378 N 0.62364 0.9288 0.49813 0.0
C1379 C 0.61121 0.9249 0.48275 0.0
C1380 C 0.59834 0.94089 0.4803 0.0
C1381 C 0.59533 0.97456 0.49889 0.0
H1382 H 0.58829 0.97526 0.51387 0.0
H1383 H 0.60776 0.98547 0.49856 0.0
H1384 H 0.58421 0.97884 0.48742 0.0
O1385 O 0.6333 0.93632 0.55083 0.0
O1386 O 0.64543 0.90937 0.53604 0.0
H1387 H 0.61591 0.89319 0.48047 0.0
H1388 H 0.59515 0.90259 0.46613 0.0
C1389 C 0.6106 0.90579 0.47119 0.0
H1390 H 0.62002 0.90724 0.45769 0.0
H1391 H 0.64772 0.87334 0.5186 0.0
O1392 O 0.61953 0.97975 0.53903 0.0
C1393 C 0.63932 0.91833 0.55158 0.0
Co1394 Co 0.13894 0.53227 0.47263 0.0
Co1395 Co 0.14207 0.5768 0.48646 0.0
C1396 C 0.17507 0.54667 0.49362 0.0
O1397 O 0.16598 0.53227 0.48502 0.0
O1398 O 0.16713 0.56392 0.49528 0.0
C1399 C 0.13245 0.48813 0.47044 0.0
O1400 O 0.14475 0.48523 0.48544 0.0
C1401 C 0.14117 0.61034 0.51482 0.0
C1402 C 0.13136 0.63454 0.49465 0.0
C1403 C 0.13461 0.63004 0.51458 0.0
N1404 N 0.14094 0.60346 0.49595 0.0
N1405 N 0.13573 0.61819 0.48394 0.0
C1406 C 0.1454 0.5975 0.53261 0.0
H1407 H 0.14475 0.58145 0.5285 0.0
H1408 H 0.13474 0.60067 0.54487 0.0
H1409 H 0.16064 0.60088 0.53814 0.0
C1410 C 0.10517 0.53354 0.50153 0.0
N1411 N 0.11958 0.54261 0.49078 0.0
N1412 N 0.1195 0.56181 0.49495 0.0
C1413 C 0.10425 0.56565 0.50759 0.0
C1414 C 0.09512 0.54779 0.51266 0.0
C1415 C 0.10133 0.51155 0.50158 0.0
H1416 H 0.09747 0.50667 0.48625 0.0
H1417 H 0.11503 0.50361 0.50638 0.0
H1418 H 0.08883 0.50749 0.51165 0.0
O1419 O 0.14011 0.54789 0.44729 0.0
O1420 O 0.14307 0.57917 0.4575 0.0
H1421 H 0.08216 0.58727 0.51635 0.0
H1422 H 0.10476 0.58807 0.53034 0.0
C1423 C 0.09858 0.58588 0.51516 0.0
H1424 H 0.10386 0.59767 0.50491 0.0
H1425 H 0.1338 0.6167 0.46855 0.0
O1426 O 0.12962 0.50569 0.46388 0.0
C1427 C 0.14213 0.56641 0.44358 0.0
Co1428 Co 0.70374 0.88117 0.71943 0.0
Co1429 Co 0.65972 0.89018 0.73172 0.0
C1430 C 0.69185 0.92218 0.73055 0.0
O1431 O 0.70588 0.91031 0.72538 0.0
O1432 O 0.67405 0.91599 0.7334 0.0
C1433 C 0.74704 0.87335 0.71001 0.0
O1434 O 0.7513 0.89246 0.70901 0.0
C1435 C 0.62585 0.9009 0.75763 0.0
C1436 C 0.60138 0.88543 0.74175 0.0
C1437 C 0.60568 0.89622 0.75885 0.0
N1438 N 0.63311 0.89273 0.74081 0.0
N1439 N 0.61833 0.88388 0.73121 0.0
C1440 C 0.63793 0.91368 0.77145 0.0
H1441 H 0.65014 0.9048 0.7782 0.0
H1442 H 0.62858 0.92045 0.78333 0.0
H1443 H 0.64512 0.92577 0.7627 0.0
C1444 C 0.70076 0.85538 0.75524 0.0
N1445 N 0.69234 0.86756 0.74162 0.0
N1446 N 0.67346 0.87023 0.74622 0.0
C1447 C 0.66905 0.85916 0.7625 0.0
C1448 C 0.68633 0.84969 0.76894 0.0
C1449 C 0.72228 0.84937 0.75504 0.0
H1450 H 0.73181 0.86288 0.75399 0.0
H1451 H 0.72646 0.84061 0.76843 0.0
H1452 H 0.7251 0.84005 0.74166 0.0
O1453 O 0.68825 0.87784 0.69412 0.0
O1454 O 0.65716 0.88338 0.70358 0.0
H1455 H 0.63701 0.85944 0.76103 0.0
H1456 H 0.64696 0.84441 0.78092 0.0
C1457 C 0.649 0.85839 0.77235 0.0
H1458 H 0.64761 0.87095 0.783 0.0
H1459 H 0.61999 0.87604 0.71785 0.0
O1460 O 0.72938 0.86777 0.71397 0.0
C1461 C 0.66973 0.87919 0.69009 0.0
Co1462 Co 0.35893 0.46105 0.97063 0.0
Co1463 Co 0.35712 0.41611 0.98272 0.0
C1464 C 0.32135 0.44435 0.98584 0.0
O1465 O 0.33077 0.45971 0.97959 0.0
O1466 O 0.32995 0.42739 0.98765 0.0
C1467 C 0.36433 0.50576 0.96735 0.0
O1468 O 0.3493 0.50969 0.9793 0.0
C1469 C 0.3542 0.38129 0.00961 0.0
C1470 C 0.36961 0.3586 0.99123 0.0
C1471 C 0.36095 0.36166 0.00975 0.0
N1472 N 0.35913 0.38945 0.99195 0.0
N1473 N 0.36807 0.37572 0.98097 0.0
C1474 C 0.34263 0.39196 0.02549 0.0
H1475 H 0.33287 0.40348 0.01871 0.0
H1476 H 0.35303 0.39959 0.03585 0.0
H1477 H 0.33344 0.38126 0.03419 0.0
C1478 C 0.38765 0.46116 0.00447 0.0
N1479 N 0.37601 0.45143 0.99123 0.0
N1480 N 0.37688 0.4322 0.99488 0.0
C1481 C 0.39004 0.42893 0.00979 0.0
C1482 C 0.39706 0.44723 0.0167 0.0
C1483 C 0.38733 0.48335 0.00706 0.0
H1484 H 0.372 0.48896 0.00451 0.0
H1485 H 0.39204 0.48789 0.02227 0.0
H1486 H 0.39743 0.4903 0.99592 0.0
O1487 O 0.36111 0.44588 0.94493 0.0
O1488 O 0.36057 0.41418 0.95395 0.0
H1489 H 0.41223 0.40927 0.0223 0.0
H1490 H 0.38688 0.40321 0.0285 0.0
C1491 C 0.39674 0.40867 0.01643 0.0
H1492 H 0.39617 0.39801 0.0038 0.0
H1493 H 0.37368 0.37823 0.96666 0.0
O1494 O 0.3687 0.4878 0.96317 0.0
C1495 C 0.36147 0.42741 0.94048 0.0
Co1496 Co 0.28497 0.60934 0.71783 0.0
Co1497 Co 0.32792 0.6005 0.73414 0.0
C1498 C 0.29471 0.57073 0.73823 0.0
O1499 O 0.2824 0.58206 0.7291 0.0
O1500 O 0.31269 0.57608 0.74174 0.0
C1501 C 0.24202 0.61812 0.7172 0.0
O1502 O 0.24006 0.60618 0.73264 0.0
C1503 C 0.36347 0.59426 0.76037 0.0
C1504 C 0.38595 0.60988 0.74191 0.0
C1505 C 0.38329 0.60044 0.76008 0.0
N1506 N 0.35479 0.60032 0.74328 0.0
N1507 N 0.36845 0.60928 0.73223 0.0
C1508 C 0.35328 0.58201 0.77606 0.0
H1509 H 0.34074 0.57346 0.76944 0.0
H1510 H 0.34717 0.5918 0.78789 0.0
H1511 H 0.36408 0.57162 0.78313 0.0
C1512 C 0.28876 0.64274 0.74714 0.0
N1513 N 0.2965 0.62723 0.73684 0.0
N1514 N 0.31469 0.62377 0.74339 0.0
C1515 C 0.31915 0.63714 0.75782 0.0
C1516 C 0.30276 0.6494 0.76086 0.0
C1517 C 0.26806 0.65068 0.74451 0.0
H1518 H 0.26502 0.65308 0.72842 0.0
H1519 H 0.25722 0.63968 0.75043 0.0
H1520 H 0.26603 0.66504 0.75253 0.0
O1521 O 0.3008 0.60695 0.69301 0.0
O1522 O 0.33096 0.60069 0.7049 0.0
H1523 H 0.35102 0.63623 0.76001 0.0
H1524 H 0.33922 0.64994 0.77988 0.0
C1525 C 0.33786 0.63676 0.77001 0.0
H1526 H 0.33779 0.62327 0.77948 0.0
H1527 H 0.36561 0.61574 0.71834 0.0
O1528 O 0.25906 0.62032 0.7092 0.0
C1529 C 0.31919 0.60325 0.6903 0.0
Co1530 Co 0.85995 0.03325 0.02813 0.0
Co1531 Co 0.85601 0.07737 0.01329 0.0
C1532 C 0.82235 0.04847 0.00873 0.0
O1533 O 0.83215 0.03422 0.01686 0.0
O1534 O 0.83011 0.06567 0.00604 0.0
C1535 C 0.86609 0.98958 0.02696 0.0
O1536 O 0.85552 0.98891 0.01044 0.0
C1537 C 0.85222 0.11469 0.9895 0.0
C1538 C 0.87319 0.13371 0.00653 0.0
C1539 C 0.86117 0.13339 0.98975 0.0
N1540 N 0.85913 0.10429 0.00522 0.0
N1541 N 0.87135 0.1159 0.01549 0.0
C1542 C 0.83683 0.10712 0.97515 0.0
H1543 H 0.84417 0.09901 0.96274 0.0
H1544 H 0.82815 0.11971 0.96874 0.0
H1545 H 0.82658 0.09662 0.98277 0.0
C1546 C 0.89347 0.03432 -0.00168 0.0
N1547 N 0.87899 0.04323 0.0092 0.0
N1548 N 0.87713 0.06179 0.00305 0.0
C1549 C 0.89014 0.06519 0.98806 0.0
C1550 C 0.90081 0.04784 0.98446 0.0
C1551 C 0.90012 0.01316 0.00074 0.0
H1552 H 0.90167 0.00959 0.01681 0.0
H1553 H 0.88889 0.00311 0.99392 0.0
H1554 H 0.91468 0.01057 0.99327 0.0
O1555 O 0.85983 0.04858 0.05367 0.0
O1556 O 0.85622 0.07931 0.04229 0.0
H1557 H 0.89404 0.09676 0.98539 0.0
H1558 H 0.9014 0.08311 0.96339 0.0
C1559 C 0.89043 0.08382 0.97573 0.0
H1560 H 0.87548 0.08614 0.96919 0.0
H1561 H 0.87898 0.11139 0.0283 0.0
O1562 O 0.86819 0.00609 0.03604 0.0
C1563 C 0.85763 0.06719 0.05672 0.0
Co1564 Co 0.71769 0.10473 0.76969 0.0
Co1565 Co 0.67272 0.10329 0.75705 0.0
C1566 C 0.70228 0.06939 0.74878 0.0
O1567 O 0.7173 0.07785 0.75702 0.0
O1568 O 0.68522 0.07792 0.74785 0.0
C1569 C 0.76213 0.11307 0.77343 0.0
O1570 O 0.767 0.09954 0.76008 0.0
C1571 C 0.63903 0.1051 0.72882 0.0
C1572 C 0.61576 0.11749 0.74866 0.0
C1573 C 0.6197 0.11276 0.7289 0.0
N1574 N 0.64622 0.10607 0.74754 0.0
N1575 N 0.63207 0.11302 0.75937 0.0
C1576 C 0.65051 0.09665 0.71159 0.0
H1577 H 0.66093 0.08495 0.71691 0.0
H1578 H 0.65957 0.10851 0.70445 0.0
H1579 H 0.64024 0.09022 0.70029 0.0
C1580 C 0.7168 0.13645 0.73874 0.0
N1581 N 0.70744 0.12383 0.75131 0.0
N1582 N 0.68811 0.12526 0.74855 0.0
C1583 C 0.68444 0.13986 0.73517 0.0
C1584 C 0.70253 0.14712 0.72805 0.0
C1585 C 0.73877 0.13576 0.73482 0.0
H1586 H 0.74659 0.14532 0.74586 0.0
H1587 H 0.74417 0.12023 0.73641 0.0
H1588 H 0.74248 0.14099 0.71956 0.0
O1589 O 0.70215 0.10292 0.79534 0.0
O1590 O 0.67052 0.10174 0.7859 0.0
H1591 H 0.66504 0.16421 0.72729 0.0
H1592 H 0.65787 0.14055 0.71722 0.0
C1593 C 0.66413 0.14799 0.73056 0.0
H1594 H 0.65393 0.1456 0.74337 0.0
H1595 H 0.63392 0.11575 0.7746 0.0
O1596 O 0.74396 0.11543 0.7783 0.0
C1597 C 0.68365 0.10146 0.7995 0.0
Co1598 Co 0.78323 0.88586 0.27644 0.0
Co1599 Co 0.82812 0.88813 0.26362 0.0
C1600 C 0.80072 0.92323 0.25873 0.0
O1601 O 0.7857 0.9138 0.26587 0.0
O1602 O 0.81777 0.91488 0.25675 0.0
C1603 C 0.73878 0.88099 0.27586 0.0
O1604 O 0.73718 0.89289 0.26035 0.0
C1605 C 0.86595 0.88993 0.24048 0.0
C1606 C 0.88337 0.86761 0.25749 0.0
C1607 C 0.8839 0.87951 0.24063 0.0
N1608 N 0.85518 0.88397 0.25634 0.0
N1609 N 0.86591 0.87104 0.26667 0.0
C1610 C 0.85824 0.9036 0.22458 0.0
H1611 H 0.84182 0.90535 0.22583 0.0
H1612 H 0.86218 0.8978 0.20956 0.0
H1613 H 0.86528 0.91848 0.22638 0.0
C1614 C 0.78381 0.85325 0.24588 0.0
N1615 N 0.79307 0.867 0.2574 0.0
N1616 N 0.81193 0.86802 0.25203 0.0
C1617 C 0.81522 0.85509 0.23692 0.0
C1618 C 0.79747 0.8454 0.23244 0.0
C1619 C 0.76222 0.84784 0.2474 0.0
H1620 H 0.75827 0.8452 0.26325 0.0
H1621 H 0.75305 0.86031 0.24156 0.0
H1622 H 0.75875 0.83415 0.23873 0.0
O1623 O 0.79758 0.88474 0.3024 0.0
O1624 O 0.82901 0.88681 0.29277 0.0
H1625 H 0.84674 0.85016 0.23549 0.0
H1626 H 0.8337 0.84275 0.21317 0.0
C1627 C 0.83427 0.85395 0.22531 0.0
H1628 H 0.83726 0.86866 0.21846 0.0
H1629 H 0.86085 0.86373 0.27946 0.0
O1630 O 0.75579 0.87795 0.28365 0.0
C1631 C 0.81607 0.88569 0.3065 0.0
H1632 H 0.00212 0.12294 0.54035 0.0
H1633 H 0.07069 0.02763 0.56144 0.0
H1634 H 0.05781 0.11112 0.51017 0.0
H1635 H 0.02212 0.04449 0.60007 0.0
H1636 H 0.06549 0.05816 0.5421 0.0
H1637 H 0.00897 0.09493 0.56292 0.0
C1638 C 0.01597 0.11476 0.53874 0.0
C1639 C 0.02933 0.11929 0.52324 0.0
C1640 C 0.05599 0.05528 0.55485 0.0
C1641 C 0.03703 0.08703 0.54864 0.0
C1642 C 0.05897 0.03786 0.56584 0.0
C1643 C 0.04696 0.03376 0.58242 0.0
C1644 C 0.04071 0.06859 0.56035 0.0
C1645 C 0.03167 0.04721 0.58732 0.0
C1646 C 0.01979 0.09867 0.55151 0.0
C1647 C 0.04698 0.10806 0.52177 0.0
N1648 N 0.02895 0.06406 0.57632 0.0
N1649 N 0.05019 0.09236 0.53413 0.0
H1650 H 0.23076 0.8228 0.81027 0.0
H1651 H 0.12804 0.76524 0.78827 0.0
H1652 H 0.20688 0.77678 0.8483 0.0
H1653 H 0.15344 0.80959 0.749 0.0
H1654 H 0.15564 0.77074 0.81158 0.0
H1655 H 0.20171 0.81919 0.78825 0.0
C1656 C 0.21936 0.81192 0.8139 0.0
C1657 C 0.22108 0.80005 0.83099 0.0
C1658 C 0.15508 0.77936 0.79792 0.0
C1659 C 0.1879 0.79581 0.80611 0.0
C1660 C 0.13925 0.77632 0.78467 0.0
C1661 C 0.13846 0.78689 0.76661 0.0
C1662 C 0.1702 0.79308 0.79307 0.0
C1663 C 0.15347 0.80101 0.7627 0.0
C1664 C 0.2028 0.80985 0.8014 0.0
C1665 C 0.20607 0.78608 0.83511 0.0
N1666 N 0.16876 0.8036 0.77575 0.0
N1667 N 0.19007 0.78435 0.82276 0.0
H1668 H 0.42847 0.94665 0.09912 0.0
H1669 H 0.50179 0.87934 0.03568 0.0
H1670 H 0.48122 0.97167 0.07188 0.0
H1671 H 0.43833 0.87705 0.02525 0.0
H1672 H 0.4966 0.90762 0.05854 0.0
H1673 H 0.43383 0.91581 0.08033 0.0
C1674 C 0.44104 0.94581 0.08903 0.0
C1675 C 0.45424 0.96196 0.08683 0.0
C1676 C 0.48383 0.90058 0.05153 0.0
C1677 C 0.46104 0.92625 0.06633 0.0
C1678 C 0.48673 0.88434 0.03877 0.0
C1679 C 0.47042 0.87587 0.02874 0.0
C1680 C 0.46447 0.90793 0.05462 0.0
C1681 C 0.45124 0.88317 0.03283 0.0
C1682 C 0.44421 0.92809 0.07857 0.0
C1683 C 0.47076 0.95957 0.07415 0.0
N1684 N 0.44875 0.89881 0.04552 0.0
N1685 N 0.47379 0.94197 0.06446 0.0
H1686 H 0.29911 0.22215 0.35693 0.0
H1687 H 0.35822 0.18982 0.25827 0.0
H1688 H 0.27676 0.18051 0.31328 0.0
H1689 H 0.37793 0.23778 0.29654 0.0
H1690 H 0.33036 0.18369 0.28072 0.0
H1691 H 0.32947 0.22643 0.33686 0.0
C1692 C 0.30061 0.21402 0.34303 0.0
C1693 C 0.28553 0.20096 0.33666 0.0
C1694 C 0.34082 0.19548 0.28434 0.0
C1695 C 0.32017 0.20548 0.31387 0.0
C1696 C 0.35683 0.19893 0.27157 0.0
C1697 C 0.37035 0.21446 0.27544 0.0
C1698 C 0.33818 0.20767 0.30116 0.0
C1699 C 0.36787 0.22565 0.29299 0.0
C1700 C 0.31794 0.21635 0.33167 0.0
C1701 C 0.28816 0.19061 0.3187 0.0
N1702 N 0.35193 0.22216 0.30514 0.0
N1703 N 0.30517 0.19306 0.30795 0.0
H1704 H 0.06884 0.94211 0.89816 0.0
H1705 H 0.99609 0.8844 0.96973 0.0
H1706 H 0.02163 0.97343 0.92882 0.0
H1707 H 0.05963 0.87806 0.97817 0.0
H1708 H 0.0024 0.91134 0.94573 0.0
H1709 H 0.06333 0.91327 0.91991 0.0
C1710 C 0.05755 0.94311 0.90964 0.0
C1711 C 0.04582 0.96036 0.91181 0.0
C1712 C 0.0149 0.90376 0.95265 0.0
C1713 C 0.0387 0.92696 0.93575 0.0
C1714 C 0.01136 0.88828 0.96614 0.0
C1715 C 0.02738 0.87909 0.97603 0.0
C1716 C 0.03458 0.90959 0.94859 0.0
C1717 C 0.04688 0.88484 0.97091 0.0
C1718 C 0.05425 0.92652 0.9218 0.0
C1719 C 0.03084 0.96037 0.92645 0.0
N1720 N 0.04997 0.89974 0.95748 0.0
N1721 N 0.02753 0.94382 0.93773 0.0
H1722 H 0.37466 0.75243 0.20248 0.0
H1723 H 0.28204 0.82368 0.17865 0.0
H1724 H 0.36123 0.80639 0.23508 0.0
H1725 H 0.29959 0.77536 0.14 0.0
H1726 H 0.31184 0.81786 0.19897 0.0
H1727 H 0.34862 0.76115 0.17826 0.0
C1728 C 0.36655 0.76629 0.20432 0.0
C1729 C 0.36998 0.7786 0.22093 0.0
C1730 C 0.30928 0.80855 0.186 0.0
C1731 C 0.34001 0.78845 0.19358 0.0
C1732 C 0.29228 0.81188 0.17446 0.0
C1733 C 0.28847 0.79995 0.15775 0.0
C1734 C 0.32246 0.79302 0.18087 0.0
C1735 C 0.30202 0.78474 0.15294 0.0
C1736 C 0.35159 0.77119 0.19058 0.0
C1737 C 0.35894 0.79633 0.22263 0.0
N1738 N 0.31841 0.78162 0.16451 0.0
N1739 N 0.34433 0.80059 0.20928 0.0
H1740 H 0.45601 0.0114 0.4354 0.0
H1741 H 0.43619 0.12617 0.46235 0.0
H1742 H 0.41881 0.04953 0.39933 0.0
H1743 H 0.4637 0.08371 0.50224 0.0
H1744 H 0.43015 0.09897 0.43847 0.0
H1745 H 0.45976 0.03846 0.4596 0.0
C1746 C 0.4486 0.02551 0.43267 0.0
C1747 C 0.43712 0.02832 0.41544 0.0
C1748 C 0.4375 0.09568 0.45249 0.0
C1749 C 0.44131 0.05939 0.44293 0.0
C1750 C 0.44097 0.11119 0.46609 0.0
C1751 C 0.45076 0.1073 0.48422 0.0
C1752 C 0.44392 0.07623 0.45708 0.0
C1753 C 0.45652 0.08757 0.48832 0.0
C1754 C 0.45067 0.04094 0.44647 0.0
C1755 C 0.42766 0.04678 0.41258 0.0
N1756 N 0.4531 0.07285 0.47487 0.0
N1757 N 0.43006 0.06171 0.42614 0.0
H1758 H 0.22998 0.18103 0.69224 0.0
H1759 H 0.123 0.23333 0.70328 0.0
H1760 H 0.20366 0.2167 0.64565 0.0
H1761 H 0.14681 0.19032 0.74496 0.0
H1762 H 0.152 0.22762 0.68163 0.0
H1763 H 0.19955 0.18503 0.71205 0.0
C1764 C 0.21771 0.18965 0.6862 0.0
C1765 C 0.21916 0.19843 0.66732 0.0
C1766 C 0.15074 0.21933 0.69545 0.0
C1767 C 0.18439 0.20327 0.68982 0.0
C1768 C 0.13413 0.22248 0.70774 0.0
C1769 C 0.13252 0.21239 0.72603 0.0
C1770 C 0.16582 0.20606 0.70157 0.0
C1771 C 0.14747 0.19858 0.73109 0.0
C1772 C 0.20036 0.19197 0.69748 0.0
C1773 C 0.20305 0.20979 0.66025 0.0
N1774 N 0.16351 0.19596 0.71903 0.0
N1775 N 0.1863 0.2119 0.67151 0.0
H1776 H 0.507 0.05678 0.10325 0.0
H1777 H 0.60413 0.02626 0.04075 0.0
H1778 H 0.54802 0.01094 0.1224 0.0
H1779 H 0.55906 0.06694 0.01954 0.0
H1780 H 0.58524 0.02192 0.07178 0.0
H1781 H 0.52789 0.06298 0.07418 0.0
C1782 C 0.52057 0.04815 0.10148 0.0
C1783 C 0.52568 0.0332 0.11525 0.0
C1784 C 0.57947 0.03181 0.06037 0.0
C1785 C 0.54963 0.0401 0.08169 0.0
C1786 C 0.59016 0.03419 0.04264 0.0
C1787 C 0.58309 0.04701 0.02766 0.0
C1788 C 0.56159 0.04239 0.06315 0.0
C1789 C 0.56509 0.0571 0.03085 0.0
C1790 C 0.53245 0.05165 0.08478 0.0
C1791 C 0.54351 0.02262 0.1122 0.0
N1792 N 0.55495 0.0546 0.04826 0.0
N1793 N 0.55477 0.02616 0.09563 0.0
H1794 H 0.24731 0.29158 0.37342 0.0
H1795 H 0.1818 0.3083 0.27508 0.0
H1796 H 0.19239 0.26028 0.36087 0.0
H1797 H 0.22819 0.34911 0.29301 0.0
H1798 H 0.18666 0.28969 0.30615 0.0
H1799 H 0.24112 0.31303 0.34438 0.0
C1800 C 0.23375 0.2895 0.36486 0.0
C1801 C 0.22043 0.27401 0.3695 0.0
C1802 C 0.1958 0.30272 0.30334 0.0
C1803 C 0.21353 0.29809 0.33607 0.0
C1804 C 0.19306 0.31325 0.28559 0.0
C1805 C 0.20456 0.33022 0.2816 0.0
C1806 C 0.21029 0.30912 0.31713 0.0
C1807 C 0.21912 0.33597 0.29553 0.0
C1808 C 0.23032 0.30162 0.34818 0.0
C1809 C 0.20319 0.2719 0.35775 0.0
N1810 N 0.22159 0.32544 0.31272 0.0
N1811 N 0.20037 0.28362 0.34149 0.0
H1812 H 0.97879 0.93357 0.61474 0.0
H1813 H 0.93059 0.96606 0.51505 0.0
H1814 H 0.96861 0.99634 0.60465 0.0
H1815 H 0.89594 0.92615 0.55189 0.0
H1816 H 0.95232 0.97284 0.54381 0.0
H1817 H 0.95476 0.92582 0.58799 0.0
C1818 C 0.97124 0.94567 0.60711 0.0
C1819 C 0.97549 0.9656 0.61194 0.0
C1820 C 0.94001 0.96248 0.54539 0.0
C1821 C 0.94906 0.95688 0.58103 0.0
C1822 C 0.92764 0.95861 0.52909 0.0
C1823 C 0.91134 0.94562 0.53109 0.0
C1824 C 0.93644 0.95276 0.56356 0.0
C1825 C 0.90852 0.93596 0.54951 0.0
C1826 C 0.95769 0.94124 0.5919 0.0
C1827 C 0.96555 0.98079 0.6015 0.0
N1828 N 0.92103 0.93964 0.56507 0.0
N1829 N 0.95307 0.97612 0.5862 0.0
H1830 H 0.31095 0.74182 0.85057 0.0
H1831 H 0.27424 0.64579 0.7895 0.0
H1832 H 0.26069 0.70559 0.86831 0.0
H1833 H 0.3235 0.68293 0.77138 0.0
H1834 H 0.26959 0.66685 0.81905 0.0
H1835 H 0.31697 0.71922 0.82268 0.0
C1836 C 0.30131 0.72896 0.84876 0.0
C1837 C 0.28521 0.72566 0.86179 0.0
C1838 C 0.28142 0.67044 0.80864 0.0
C1839 C 0.29191 0.69981 0.82962 0.0
C1840 C 0.28397 0.65852 0.79174 0.0
C1841 C 0.29925 0.66274 0.77809 0.0
C1842 C 0.29427 0.6867 0.81189 0.0
C1843 C 0.31161 0.6792 0.78167 0.0
C1844 C 0.30471 0.7161 0.83274 0.0
C1845 C 0.27327 0.70872 0.85868 0.0
N1846 N 0.30887 0.69059 0.79826 0.0
N1847 N 0.27677 0.69651 0.84282 0.0
H1848 H 0.6063 0.93873 0.44049 0.0
H1849 H 0.49345 0.95986 0.40827 0.0
H1850 H 0.55873 0.9504 0.48218 0.0
H1851 H 0.5421 0.95951 0.36597 0.0
H1852 H 0.51706 0.95431 0.43516 0.0
H1853 H 0.58298 0.94412 0.41278 0.0
C1854 C 0.59088 0.94236 0.44376 0.0
C1855 C 0.58433 0.94416 0.46357 0.0
C1856 C 0.52264 0.95549 0.42003 0.0
C1857 C 0.55767 0.95037 0.43207 0.0
C1858 C 0.50914 0.95868 0.40458 0.0
C1859 C 0.51578 0.96032 0.38473 0.0
C1860 C 0.54304 0.95372 0.41575 0.0
C1861 C 0.53631 0.95841 0.38101 0.0
C1862 C 0.57764 0.94553 0.42797 0.0
C1863 C 0.56434 0.94904 0.46708 0.0
N1864 N 0.54924 0.95519 0.39639 0.0
N1865 N 0.55169 0.95194 0.45148 0.0
H1866 H 0.2588 0.28944 0.62534 0.0
H1867 H 0.32463 0.31367 0.72227 0.0
H1868 H 0.3116 0.25663 0.64231 0.0
H1869 H 0.27473 0.34973 0.70371 0.0
H1870 H 0.32033 0.29296 0.69243 0.0
H1871 H 0.26512 0.31282 0.65278 0.0
C1872 C 0.27192 0.28737 0.63457 0.0
C1873 C 0.28461 0.27097 0.63162 0.0
C1874 C 0.31032 0.30542 0.69482 0.0
C1875 C 0.2917 0.29737 0.66321 0.0
C1876 C 0.3128 0.3172 0.71182 0.0
C1877 C 0.30011 0.33341 0.71524 0.0
C1878 C 0.29493 0.30986 0.68122 0.0
C1879 C 0.28476 0.33724 0.70153 0.0
C1880 C 0.27543 0.30062 0.65034 0.0
C1881 C 0.30131 0.26895 0.64413 0.0
N1882 N 0.28259 0.32556 0.68508 0.0
N1883 N 0.30426 0.28186 0.65946 0.0
H1884 H 0.99016 0.05296 0.8919 0.0
H1885 H 0.89526 0.01914 0.95615 0.0
H1886 H 0.95136 0.00458 0.87439 0.0
H1887 H 0.93479 0.06705 0.97286 0.0
H1888 H 0.91503 0.01377 0.9258 0.0
H1889 H 0.96887 0.0593 0.92065 0.0
C1890 C 0.977 0.0438 0.89397 0.0
C1891 C 0.97259 0.02814 0.88075 0.0
C1892 C 0.91942 0.02543 0.9361 0.0
C1893 C 0.94822 0.03517 0.91394 0.0
C1894 C 0.90826 0.02837 0.95347 0.0
C1895 C 0.91351 0.04352 0.96693 0.0
C1896 C 0.93594 0.03775 0.93223 0.0
C1897 C 0.93028 0.05526 0.96275 0.0
C1898 C 0.96488 0.04738 0.91048 0.0
C1899 C 0.95529 0.01684 0.88416 0.0
N1900 N 0.94089 0.05216 0.94574 0.0
N1901 N 0.94381 0.02046 0.90055 0.0
H1902 H 0.20134 0.68625 0.23328 0.0
H1903 H 0.2056 0.70394 0.11549 0.0
H1904 H 0.17941 0.64262 0.1914 0.0
H1905 H 0.20669 0.75165 0.15889 0.0
H1906 H 0.19859 0.68024 0.14262 0.0
H1907 H 0.2064 0.70971 0.20565 0.0
C1908 C 0.19755 0.68171 0.21822 0.0
C1909 C 0.18997 0.66263 0.21447 0.0
C1910 C 0.20033 0.69594 0.14609 0.0
C1911 C 0.1958 0.6891 0.18286 0.0
C1912 C 0.20434 0.70944 0.13065 0.0
C1913 C 0.20694 0.7298 0.1349 0.0
C1914 C 0.19914 0.70286 0.16588 0.0
C1915 C 0.20508 0.73609 0.15484 0.0
C1916 C 0.20038 0.69504 0.20248 0.0
C1917 C 0.18521 0.65732 0.19478 0.0
N1918 N 0.20145 0.72268 0.16955 0.0
N1919 N 0.18835 0.67046 0.17962 0.0
H1920 H 0.12304 0.53897 0.00102 0.0
H1921 H 0.02277 0.56151 0.06194 0.0
H1922 H 0.10553 0.5079 0.0547 0.0
H1923 H 0.04482 0.60064 0.0159 0.0
H1924 H 0.05261 0.54079 0.05817 0.0
H1925 H 0.09475 0.56177 0.00559 0.0
C1926 C 0.11352 0.53717 0.01396 0.0
C1927 C 0.11661 0.52141 0.02743 0.0
C1928 C 0.05097 0.55389 0.04885 0.0
C1929 C 0.08402 0.5471 0.03247 0.0
C1930 C 0.03391 0.56563 0.05096 0.0
C1931 C 0.03148 0.58278 0.0393 0.0
C1932 C 0.06564 0.55926 0.03483 0.0
C1933 C 0.04617 0.58743 0.02511 0.0
C1934 C 0.09727 0.55008 0.01647 0.0
C1935 C 0.10367 0.51973 0.04385 0.0
N1936 N 0.06269 0.57575 0.02329 0.0
N1937 N 0.08788 0.53225 0.04578 0.0
H1938 H 0.61474 0.96754 0.00365 0.0
H1939 H 0.55191 0.89771 0.93246 0.0
H1940 H 0.62117 0.97259 0.93976 0.0
H1941 H 0.52346 0.93067 0.97996 0.0
H1942 H 0.58254 0.91689 0.93803 0.0
H1943 H 0.5867 0.94449 -0.00144 0.0
C1944 C 0.61067 0.96331 0.98858 0.0
C1945 C 0.6202 0.972 0.97206 0.0
C1946 C 0.56957 0.91979 0.94723 0.0
C1947 C 0.58845 0.9457 0.96627 0.0
C1948 C 0.55202 0.90908 0.94395 0.0
C1949 C 0.53502 0.91274 0.95566 0.0
C1950 C 0.5703 0.93381 0.96272 0.0
C1951 C 0.53629 0.92721 0.97076 0.0
C1952 C 0.59457 0.95039 0.98573 0.0
C1953 C 0.61415 0.96621 0.95285 0.0
N1954 N 0.55371 0.93713 0.974 0.0
N1955 N 0.59862 0.95338 0.95045 0.0
H1956 H 0.35136 0.30257 0.18002 0.0
H1957 H 0.28263 0.36304 0.25471 0.0
H1958 H 0.32266 0.27379 0.22999 0.0
H1959 H 0.27553 0.36997 0.19106 0.0
H1960 H 0.30651 0.33593 0.24864 0.0
H1961 H 0.33148 0.33259 0.18639 0.0
C1962 C 0.34076 0.30244 0.1922 0.0
C1963 C 0.33849 0.2855 0.20435 0.0
C1964 C 0.29997 0.3437 0.23607 0.0
C1965 C 0.31666 0.32016 0.21232 0.0
C1966 C 0.28655 0.35929 0.23947 0.0
C1967 C 0.27705 0.36868 0.22333 0.0
C1968 C 0.3043 0.33793 0.21641 0.0
C1969 C 0.28251 0.36305 0.20389 0.0
C1970 C 0.32966 0.31967 0.19595 0.0
C1971 C 0.32504 0.28655 0.22038 0.0
N1972 N 0.2958 0.348 0.20094 0.0
N1973 N 0.31472 0.30365 0.22401 0.0
H1974 H 0.95178 0.10282 0.46914 0.0
H1975 H 0.89861 -0.0006 0.44147 0.0
H1976 H 0.97777 0.05818 0.43082 0.0
H1977 H 0.87252 0.04291 0.48124 0.0
H1978 H 0.92682 0.02165 0.43611 0.0
H1979 H 0.92218 0.08167 0.47322 0.0
C1980 C 0.95124 0.08846 0.4617 0.0
C1981 C 0.9671 0.08214 0.44963 0.0
C1982 C 0.9149 0.02643 0.44592 0.0
C1983 C 0.93336 0.05803 0.45397 0.0
C1984 C 0.8987 0.01375 0.44895 0.0
C1985 C 0.88318 0.01925 0.46191 0.0
C1986 C 0.9157 0.0448 0.45597 0.0
C1987 C 0.88413 0.03806 0.47111 0.0
C1988 C 0.93434 0.07647 0.46392 0.0
C1989 C 0.96573 0.06356 0.44016 0.0
N1990 N 0.9002 0.05012 0.46806 0.0
N1991 N 0.94913 0.05215 0.44251 0.0
H1992 H 0.71477 0.13366 0.25226 0.0
H1993 H 0.6496 0.19296 0.17426 0.0
H1994 H 0.72521 0.12482 0.1893 0.0
H1995 H 0.67903 0.2233 0.22291 0.0
H1996 H 0.66919 0.16297 0.18164 0.0
H1997 H 0.69203 0.16119 0.24418 0.0
C1998 C 0.71184 0.1371 0.23674 0.0
C1999 C 0.72199 0.12704 0.22141 0.0
C2000 C 0.67126 0.17624 0.19065 0.0
C2001 C 0.69596 0.15826 0.21219 0.0
C2002 C 0.66032 0.19346 0.18631 0.0
C2003 C 0.66277 0.2108 0.19789 0.0
C2004 C 0.68424 0.17618 0.20705 0.0
C2005 C 0.67643 0.21022 0.21378 0.0
C2006 C 0.69907 0.15293 0.23219 0.0
C2007 C 0.71774 0.13228 0.20154 0.0
N2008 N 0.68649 0.19312 0.21805 0.0
N2009 N 0.70502 0.14757 0.19747 0.0
H2010 H 0.37404 0.4673 0.57286 0.0
H2011 H 0.48641 0.43565 0.54852 0.0
H2012 H 0.40846 0.49122 0.524 0.0
H2013 H 0.44553 0.39557 0.57795 0.0
H2014 H 0.45931 0.45994 0.5449 0.0
H2015 H 0.40142 0.44379 0.57987 0.0
C2016 C 0.38724 0.46751 0.56353 0.0
C2017 C 0.38886 0.48105 0.54763 0.0
C2018 C 0.45633 0.44588 0.55229 0.0
C2019 C 0.42023 0.45481 0.55587 0.0
C2020 C 0.47176 0.43208 0.55436 0.0
C2021 C 0.4681 0.41359 0.56336 0.0
C2022 C 0.4372 0.4412 0.5595 0.0
C2023 C 0.44899 0.40977 0.57106 0.0
C2024 C 0.40282 0.45418 0.56756 0.0
C2025 C 0.40636 0.48083 0.53611 0.0
N2026 N 0.43416 0.42344 0.56887 0.0
N2027 N 0.42138 0.46804 0.54053 0.0
H2028 H 0.35056 0.69809 0.27362 0.0
H2029 H 0.24862 0.64344 0.30297 0.0
H2030 H 0.30483 0.72442 0.3104 0.0
H2031 H 0.28689 0.62213 0.25567 0.0
H2032 H 0.27147 0.67105 0.30868 0.0
H2033 H 0.32928 0.66864 0.26876 0.0
C2034 C 0.33596 0.69765 0.28057 0.0
C2035 C 0.3294 0.71354 0.29253 0.0
C2036 C 0.27496 0.66031 0.29711 0.0
C2037 C 0.30523 0.67995 0.28735 0.0
C2038 C 0.26196 0.64442 0.29389 0.0
C2039 C 0.26574 0.63048 0.27869 0.0
C2040 C 0.29198 0.66235 0.2851 0.0
C2041 C 0.28337 0.63252 0.26754 0.0
C2042 C 0.3239 0.68085 0.27788 0.0
C2043 C 0.31051 0.7123 0.30133 0.0
N2044 N 0.2958 0.64827 0.27088 0.0
N2045 N 0.2991 0.69575 0.29863 0.0
H2046 H 0.15088 0.29705 0.82409 0.0
H2047 H 0.21913 0.35565 0.74981 0.0
H2048 H 0.18018 0.26563 0.77605 0.0
H2049 H 0.23165 0.36075 0.8128 0.0
H2050 H 0.19629 0.32792 0.75701 0.0
H2051 H 0.17317 0.32552 0.81851 0.0
C2052 C 0.16213 0.29597 0.81256 0.0
C2053 C 0.16369 0.27882 0.80056 0.0
C2054 C 0.2039 0.33533 0.76922 0.0
C2055 C 0.18834 0.31176 0.7935 0.0
C2056 C 0.21673 0.35123 0.76519 0.0
C2057 C 0.22725 0.36048 0.78077 0.0
C2058 C 0.20112 0.32908 0.78899 0.0
C2059 C 0.2238 0.35398 0.8004 0.0
C2060 C 0.17465 0.31232 0.80928 0.0
C2061 C 0.17819 0.27865 0.78541 0.0
N2062 N 0.21088 0.33871 0.80401 0.0
N2063 N 0.18977 0.29498 0.78211 0.0
H2064 H 0.52256 0.54428 0.10228 0.0
H2065 H 0.55526 0.6078 0.0066 0.0
H2066 H 0.56537 0.52431 0.05862 0.0
H2067 H 0.50348 0.62251 0.04203 0.0
H2068 H 0.562 0.57971 0.02862 0.0
H2069 H 0.51735 0.57483 0.08275 0.0
C2070 C 0.53079 0.54634 0.08851 0.0
C2071 C 0.54451 0.53191 0.08204 0.0
C2072 C 0.54924 0.58914 0.03171 0.0
C2073 C 0.53891 0.56681 0.05988 0.0
C2074 C 0.54543 0.6053 0.0192 0.0
C2075 C 0.52866 0.61746 0.02236 0.0
C2076 C 0.53621 0.58503 0.04757 0.0
C2077 C 0.51657 0.61354 0.03903 0.0
C2078 C 0.52791 0.56379 0.07746 0.0
C2079 C 0.5549 0.53526 0.06423 0.0
N2080 N 0.52049 0.59753 0.05093 0.0
N2081 N 0.55194 0.5524 0.0538 0.0
H2082 H 0.64421 0.30639 0.25195 0.0
H2083 H 0.6988 0.27518 0.35352 0.0
H2084 H 0.62202 0.25996 0.29073 0.0
H2085 H 0.72219 0.31793 0.31155 0.0
H2086 H 0.66942 0.27066 0.3321 0.0
H2087 H 0.6711 0.31284 0.27548 0.0
C2088 C 0.64486 0.29767 0.26557 0.0
C2089 C 0.63092 0.28249 0.26931 0.0
C2090 C 0.68095 0.28105 0.32758 0.0
C2091 C 0.66196 0.28967 0.29629 0.0
C2092 C 0.69772 0.28353 0.33971 0.0
C2093 C 0.7128 0.29696 0.33421 0.0
C2094 C 0.67931 0.29211 0.30984 0.0
C2095 C 0.71075 0.30756 0.31633 0.0
C2096 C 0.6603 0.30133 0.27897 0.0
C2097 C 0.63244 0.27182 0.28727 0.0
N2098 N 0.69429 0.30492 0.30478 0.0
N2099 N 0.64784 0.27548 0.30003 0.0
H2100 H 0.96777 0.45184 0.60223 0.0
H2101 H 0.93967 0.39465 0.50113 0.0
H2102 H 0.92959 0.47615 0.55654 0.0
H2103 H 0.98725 0.37529 0.54006 0.0
H2104 H 0.93272 0.42217 0.52381 0.0
H2105 H 0.97274 0.42189 0.58171 0.0
C2106 C 0.96047 0.45083 0.58783 0.0
C2107 C 0.9482 0.46637 0.58104 0.0
C2108 C 0.9446 0.41185 0.52749 0.0
C2109 C 0.95354 0.43217 0.55767 0.0
C2110 C 0.94854 0.39602 0.51459 0.0
C2111 C 0.96421 0.38267 0.51859 0.0
C2112 C 0.95636 0.41445 0.54462 0.0
C2113 C 0.97505 0.38521 0.53636 0.0
C2114 C 0.96323 0.43374 0.57619 0.0
C2115 C 0.93893 0.46435 0.56241 0.0
N2116 N 0.97102 0.4009 0.54866 0.0
N2117 N 0.94177 0.44755 0.55138 0.0
H2118 H 0.79335 0.72558 0.85406 0.0
H2119 H 0.84972 0.69382 0.75365 0.0
H2120 H 0.76746 0.68835 0.80842 0.0
H2121 H 0.87209 0.73952 0.79326 0.0
H2122 H 0.8211 0.68929 0.77553 0.0
H2123 H 0.82336 0.72949 0.83339 0.0
C2124 C 0.79398 0.7184 0.83957 0.0
C2125 C 0.77806 0.70659 0.83285 0.0
C2126 C 0.8323 0.70025 0.77953 0.0
C2127 C 0.81228 0.71065 0.80939 0.0
C2128 C 0.84876 0.70276 0.76709 0.0
C2129 C 0.86332 0.71718 0.77155 0.0
C2130 C 0.83031 0.71218 0.79663 0.0
C2131 C 0.86124 0.72825 0.78923 0.0
C2132 C 0.8111 0.72051 0.82787 0.0
C2133 C 0.77955 0.69744 0.81413 0.0
N2134 N 0.84495 0.7256 0.80109 0.0
N2135 N 0.79641 0.69957 0.80308 0.0
H2136 H 0.56404 0.48078 0.43929 0.0
H2137 H 0.51498 0.37332 0.45916 0.0
H2138 H 0.52709 0.45014 0.39648 0.0
H2139 H 0.55058 0.4051 0.50252 0.0
H2140 H 0.52022 0.40063 0.43549 0.0
H2141 H 0.55987 0.45275 0.46247 0.0
C2142 C 0.55502 0.4681 0.43485 0.0
C2143 C 0.54591 0.46762 0.41606 0.0
C2144 C 0.52696 0.40157 0.45016 0.0
C2145 C 0.54104 0.43557 0.4423 0.0
C2146 C 0.52404 0.38593 0.46365 0.0
C2147 C 0.53232 0.3869 0.48288 0.0
C2148 C 0.53823 0.41831 0.45592 0.0
C2149 C 0.54388 0.40368 0.48787 0.0
C2150 C 0.55263 0.45212 0.44802 0.0
C2151 C 0.53426 0.45101 0.41094 0.0
N2152 N 0.54642 0.41872 0.47452 0.0
N2153 N 0.53218 0.4356 0.42397 0.0
H2154 H 0.79558 0.27546 0.64619 0.0
H2155 H 0.85803 0.31172 0.74131 0.0
H2156 H 0.77521 0.32 0.68791 0.0
H2157 H 0.8723 0.25794 0.70876 0.0
H2158 H 0.83052 0.31792 0.71839 0.0
H2159 H 0.82587 0.27094 0.6663 0.0
C2160 C 0.7975 0.28422 0.65966 0.0
C2161 C 0.78304 0.29822 0.66541 0.0
C2162 C 0.83975 0.30485 0.71613 0.0
C2163 C 0.81763 0.29341 0.68821 0.0
C2164 C 0.85558 0.30135 0.72913 0.0
C2165 C 0.86741 0.28417 0.72708 0.0
C2166 C 0.83565 0.29109 0.70088 0.0
C2167 C 0.86358 0.27137 0.71092 0.0
C2168 C 0.8148 0.28172 0.67103 0.0
C2169 C 0.7862 0.30929 0.68285 0.0
N2170 N 0.84788 0.27499 0.69852 0.0
N2171 N 0.8032 0.3067 0.69361 0.0
H2172 H 0.97678 0.5258 0.92542 0.0
H2173 H 0.9424 0.62757 0.9675 0.0
H2174 H 0.93151 0.55805 0.89287 0.0
H2175 H 0.0054 0.61594 0.96112 0.0
H2176 H 0.93543 0.60059 0.94364 0.0
H2177 H 0.98525 0.55667 0.94325 0.0
C2178 C 0.96864 0.53934 0.922 0.0
C2179 C 0.95339 0.5393 0.90765 0.0
C2180 C 0.95077 0.60426 0.94722 0.0
C2181 C 0.96262 0.57436 0.92834 0.0
C2182 C 0.95476 0.61965 0.96071 0.0
C2183 C 0.97449 0.62396 0.96625 0.0
C2184 C 0.96659 0.59271 0.93986 0.0
C2185 C 0.98998 0.61315 0.95717 0.0
C2186 C 0.9735 0.55689 0.93215 0.0
C2187 C 0.94305 0.55722 0.90412 0.0
N2188 N 0.98568 0.59764 0.94479 0.0
N2189 N 0.94769 0.574 0.91457 0.0
H2190 H 0.64112 0.68743 0.24081 0.0
H2191 H 0.7017 0.71538 0.14183 0.0
H2192 H 0.62321 0.735 0.20119 0.0
H2193 H 0.72474 0.67785 0.18871 0.0
H2194 H 0.6709 0.72001 0.16106 0.0
H2195 H 0.66925 0.68022 0.21899 0.0
C2196 C 0.64294 0.69621 0.22735 0.0
C2197 C 0.62986 0.71199 0.22294 0.0
C2198 C 0.68266 0.71072 0.16712 0.0
C2199 C 0.6623 0.70388 0.19793 0.0
C2200 C 0.70023 0.70817 0.15623 0.0
C2201 C 0.71569 0.69622 0.16376 0.0
C2202 C 0.6805 0.70112 0.18562 0.0
C2203 C 0.71305 0.68698 0.18231 0.0
C2204 C 0.65911 0.69214 0.21495 0.0
C2205 C 0.63292 0.72272 0.2052 0.0
N2206 N 0.69577 0.68962 0.19262 0.0
N2207 N 0.64895 0.71857 0.19341 0.0
H2208 H 0.05767 0.56253 0.51938 0.0
H2209 H 0.04124 0.50578 0.62269 0.0
H2210 H 0.10314 0.52523 0.54541 0.0
H2211 H 0.00661 0.55678 0.60386 0.0
H2212 H 0.06392 0.51144 0.59446 0.0
H2213 H 0.03767 0.55871 0.54971 0.0
C2214 C 0.06343 0.5536 0.53155 0.0
C2215 C 0.08206 0.54432 0.53007 0.0
C2216 C 0.05147 0.5215 0.59671 0.0
C2217 C 0.05931 0.53963 0.56465 0.0
C2218 C 0.03862 0.51837 0.61289 0.0
C2219 C 0.0219 0.5307 0.61554 0.0
C2220 C 0.0474 0.53694 0.58309 0.0
C2221 C 0.01918 0.54673 0.6023 0.0
C2222 C 0.05206 0.55139 0.54884 0.0
C2223 C 0.08873 0.53251 0.54603 0.0
N2224 N 0.03162 0.54923 0.58654 0.0
N2225 N 0.07734 0.53045 0.5627 0.0
H2226 H 0.66797 0.81514 0.78003 0.0
H2227 H 0.73591 0.79767 0.87614 0.0
H2228 H 0.71145 0.85821 0.7998 0.0
H2229 H 0.68361 0.7627 0.86218 0.0
H2230 H 0.72678 0.82103 0.84944 0.0
H2231 H 0.6733 0.79613 0.81075 0.0
C2232 C 0.6785 0.82065 0.79099 0.0
C2233 C 0.68925 0.8382 0.78752 0.0
C2234 C 0.71717 0.80838 0.85245 0.0
C2235 C 0.69575 0.81649 0.82252 0.0
C2236 C 0.72231 0.79513 0.86777 0.0
C2237 C 0.71063 0.77809 0.87125 0.0
C2238 C 0.70033 0.80444 0.84053 0.0
C2239 C 0.69321 0.77549 0.85987 0.0
C2240 C 0.6816 0.80982 0.8085 0.0
C2241 C 0.703 0.84461 0.80198 0.0
N2242 N 0.68874 0.78836 0.8449 0.0
N2243 N 0.70597 0.83368 0.81882 0.0
H2244 H 0.47395 0.43766 0.11973 0.0
H2245 H 0.42667 0.47517 0.021 0.0
H2246 H 0.46546 0.50088 0.11104 0.0
H2247 H 0.39625 0.42834 0.05311 0.0
H2248 H 0.44617 0.48249 0.05114 0.0
H2249 H 0.4497 0.43115 0.09293 0.0
C2250 C 0.46666 0.45013 0.11245 0.0
C2251 C 0.47157 0.46982 0.11764 0.0
C2252 C 0.43517 0.47064 0.05149 0.0
C2253 C 0.44474 0.46249 0.08661 0.0
C2254 C 0.42405 0.46646 0.03436 0.0
C2255 C 0.40975 0.45115 0.03451 0.0
C2256 C 0.43243 0.45901 0.06867 0.0
C2257 C 0.40736 0.44 0.05213 0.0
C2258 C 0.45295 0.44641 0.09718 0.0
C2259 C 0.46192 0.48549 0.10762 0.0
N2260 N 0.41875 0.444 0.06847 0.0
N2261 N 0.44928 0.4815 0.09224 0.0
H2262 H 0.74736 0.20775 0.37148 0.0
H2263 H 0.81744 0.18309 0.27787 0.0
H2264 H 0.80469 0.23518 0.36085 0.0
H2265 H 0.7651 0.14852 0.29209 0.0
H2266 H 0.81208 0.20304 0.30799 0.0
H2267 H 0.75325 0.18551 0.34298 0.0
C2268 C 0.76136 0.2088 0.36346 0.0
C2269 C 0.7755 0.22343 0.36848 0.0
C2270 C 0.8017 0.19113 0.30455 0.0
C2271 C 0.78211 0.19843 0.33567 0.0
C2272 C 0.80472 0.17986 0.28731 0.0
C2273 C 0.79171 0.16421 0.2826 0.0
C2274 C 0.78547 0.18678 0.31712 0.0
C2275 C 0.77537 0.16062 0.29519 0.0
C2276 C 0.76462 0.19624 0.34707 0.0
C2277 C 0.79329 0.22424 0.35743 0.0
N2278 N 0.77271 0.17179 0.31194 0.0
N2279 N 0.79598 0.21209 0.34146 0.0
H2280 H 0.00172 0.44071 0.89345 0.0
H2281 H 0.10308 0.46854 0.95031 0.0
H2282 H 0.04373 0.48403 0.87087 0.0
H2283 H 0.05823 0.42891 0.97381 0.0
H2284 H 0.0828 0.47315 0.92015 0.0
H2285 H 0.02392 0.43415 0.92144 0.0
C2286 C 0.01576 0.4487 0.89426 0.0
C2287 C 0.02081 0.46306 0.87984 0.0
C2288 C 0.07739 0.46343 0.93187 0.0
C2289 C 0.04628 0.45576 0.91215 0.0
C2290 C 0.08888 0.46091 0.9491 0.0
C2291 C 0.08222 0.44834 0.96445 0.0
C2292 C 0.05914 0.45327 0.93004 0.0
C2293 C 0.06387 0.43863 0.96219 0.0
C2294 C 0.02841 0.44499 0.91033 0.0
C2295 C 0.03926 0.47282 0.88162 0.0
N2296 N 0.05297 0.44128 0.94529 0.0
N2297 N 0.05127 0.46912 0.89761 0.0
H2298 H 0.80715 0.75662 0.14002 0.0
H2299 H 0.76976 0.85099 0.20306 0.0
H2300 H 0.75321 0.78876 0.12556 0.0
H2301 H 0.81617 0.81078 0.22216 0.0
H2302 H 0.76485 0.83053 0.17301 0.0
H2303 H 0.8129 0.77932 0.16781 0.0
C2304 C 0.79663 0.76865 0.14252 0.0
C2305 C 0.77957 0.77068 0.13051 0.0
C2306 C 0.77608 0.82617 0.18378 0.0
C2307 C 0.78596 0.79665 0.16262 0.0
C2308 C 0.77878 0.83773 0.20096 0.0
C2309 C 0.7934 0.83249 0.21499 0.0
C2310 C 0.78819 0.80935 0.18064 0.0
C2311 C 0.80485 0.81535 0.21157 0.0
C2312 C 0.79986 0.78154 0.1585 0.0
C2313 C 0.76656 0.78664 0.13442 0.0
N2314 N 0.80206 0.80444 0.1947 0.0
N2315 N 0.76993 0.79894 0.15027 0.0
H2316 H 0.43414 0.56563 0.46937 0.0
H2317 H 0.45146 0.50683 0.36786 0.0
H2318 H 0.38714 0.53173 0.44146 0.0
H2319 H 0.48823 0.55612 0.38722 0.0
H2320 H 0.42743 0.51511 0.39427 0.0
H2321 H 0.45451 0.56147 0.43934 0.0
C2322 C 0.42809 0.55746 0.45679 0.0
C2323 C 0.40905 0.54897 0.45779 0.0
C2324 C 0.44064 0.52424 0.3925 0.0
C2325 C 0.43225 0.54381 0.42356 0.0
C2326 C 0.45431 0.51958 0.37738 0.0
C2327 C 0.472 0.53063 0.37547 0.0
C2328 C 0.44487 0.53992 0.40582 0.0
C2329 C 0.47493 0.54699 0.38828 0.0
C2330 C 0.43968 0.55504 0.43968 0.0
C2331 C 0.40192 0.53826 0.44126 0.0
N2332 N 0.46167 0.55096 0.40303 0.0
N2333 N 0.4136 0.53581 0.42483 0.0
H2334 H 0.68198 0.14736 0.69267 0.0
H2335 H 0.75573 0.21875 0.63477 0.0
H2336 H 0.73089 0.17627 0.72307 0.0
H2337 H 0.69207 0.22506 0.62738 0.0
H2338 H 0.74978 0.19454 0.66164 0.0
H2339 H 0.68806 0.16849 0.66352 0.0
C2340 C 0.69381 0.15832 0.69338 0.0
C2341 C 0.70578 0.16024 0.71049 0.0
C2342 C 0.73718 0.20101 0.65384 0.0
C2343 C 0.71347 0.1835 0.67675 0.0
C2344 C 0.74053 0.2146 0.63839 0.0
C2345 C 0.72433 0.2239 0.62892 0.0
C2346 C 0.71755 0.19634 0.65937 0.0
C2347 C 0.70493 0.2182 0.63437 0.0
C2348 C 0.69742 0.17013 0.67662 0.0
C2349 C 0.72143 0.17416 0.71014 0.0
N2350 N 0.70205 0.20473 0.64926 0.0
N2351 N 0.72496 0.18517 0.69345 0.0
H2352 H 0.55243 0.10439 0.53514 0.0
H2353 H 0.59261 0.9953 0.56094 0.0
H2354 H 0.52469 0.06598 0.57857 0.0
H2355 H 0.62472 0.03703 0.52378 0.0
H2356 H 0.56834 0.02133 0.56864 0.0
H2357 H 0.57968 0.08027 0.53156 0.0
C2358 C 0.55222 0.09084 0.54397 0.0
C2359 C 0.53642 0.08696 0.55707 0.0
C2360 C 0.58079 0.02486 0.55894 0.0
C2361 C 0.56731 0.05935 0.55311 0.0
C2362 C 0.59467 0.01 0.55453 0.0
C2363 C 0.61066 0.01395 0.54157 0.0
C2364 C 0.58279 0.0438 0.55022 0.0
C2365 C 0.6126 0.0333 0.5338 0.0
C2366 C 0.56774 0.07712 0.54199 0.0
C2367 C 0.5367 0.06937 0.56832 0.0
N2368 N 0.59871 0.04745 0.53809 0.0
N2369 N 0.55187 0.05609 0.56598 0.0
H2370 H 0.02425 0.43666 0.42587 0.0
H2371 H 0.12491 0.45174 0.48807 0.0
H2372 H 0.04695 0.39214 0.46634 0.0
H2373 H 0.10721 0.48903 0.43857 0.0
H2374 H 0.09707 0.42923 0.48039 0.0
H2375 H 0.0547 0.45625 0.43087 0.0
C2376 C 0.03574 0.43104 0.43576 0.0
C2377 C 0.03323 0.41283 0.44566 0.0
C2378 C 0.09947 0.44222 0.47109 0.0
C2379 C 0.06798 0.43509 0.45164 0.0
C2380 C 0.11543 0.455 0.47539 0.0
C2381 C 0.11831 0.47239 0.46407 0.0
C2382 C 0.08627 0.44698 0.45546 0.0
C2383 C 0.10548 0.47591 0.44785 0.0
C2384 C 0.0531 0.44216 0.43862 0.0
C2385 C 0.04837 0.40623 0.45854 0.0
N2386 N 0.08993 0.46347 0.44419 0.0
N2387 N 0.06511 0.41739 0.46123 0.0
H2388 H 0.78727 0.87821 0.70259 0.0
H2389 H 0.80955 0.76071 0.7054 0.0
H2390 H 0.74187 0.83299 0.70979 0.0
H2391 H 0.85286 0.80402 0.68578 0.0
H2392 H 0.78489 0.78752 0.70894 0.0
H2393 H 0.81213 0.85168 0.69797 0.0
C2394 C 0.78252 0.86277 0.7032 0.0
C2395 C 0.76247 0.85786 0.70675 0.0
C2396 C 0.79976 0.79118 0.70377 0.0
C2397 C 0.79074 0.82753 0.70156 0.0
C2398 C 0.81378 0.7759 0.70182 0.0
C2399 C 0.83311 0.78027 0.69529 0.0
C2400 C 0.80523 0.81096 0.69929 0.0
C2401 C 0.83797 0.80012 0.69072 0.0
C2402 C 0.79669 0.84764 0.70055 0.0
C2403 C 0.75716 0.83757 0.70733 0.0
N2404 N 0.82414 0.81479 0.69289 0.0
N2405 N 0.77119 0.82321 0.70486 0.0
H2406 H 0.39261 0.50344 0.93838 0.0
H2407 H 0.4468 0.60569 0.96776 0.0
H2408 H 0.36952 0.54327 0.98349 0.0
H2409 H 0.47319 0.5599 0.93111 0.0
H2410 H 0.41685 0.58491 0.97163 0.0
H2411 H 0.42008 0.5264 0.93253 0.0
C2412 C 0.39319 0.51717 0.94692 0.0
C2413 C 0.37883 0.52136 0.9616 0.0
C2414 C 0.42918 0.57942 0.96273 0.0
C2415 C 0.41053 0.54768 0.9551 0.0
C2416 C 0.44625 0.59119 0.96062 0.0
C2417 C 0.46233 0.58441 0.94906 0.0
C2418 C 0.42823 0.56081 0.95312 0.0
C2419 C 0.46097 0.56567 0.93997 0.0
C2420 C 0.40897 0.53024 0.94363 0.0
C2421 C 0.38027 0.53947 0.97204 0.0
N2422 N 0.44418 0.55452 0.94215 0.0
N2423 N 0.39599 0.55192 0.96872 0.0
H2424 H 0.18399 0.72317 0.67178 0.0
H2425 H 0.20662 0.62541 0.73669 0.0
H2426 H 0.14551 0.70269 0.71906 0.0
H2427 H 0.24123 0.64353 0.68542 0.0
H2428 H 0.18321 0.65266 0.72992 0.0
H2429 H 0.20488 0.69355 0.67638 0.0
C2430 C 0.17994 0.71232 0.68306 0.0
C2431 C 0.16304 0.71517 0.69498 0.0
C2432 C 0.19583 0.65053 0.72005 0.0
C2433 C 0.18682 0.68141 0.70052 0.0
C2434 C 0.20913 0.63489 0.72384 0.0
C2435 C 0.22599 0.63226 0.7117 0.0
C2436 C 0.1995 0.66362 0.70406 0.0
C2437 C 0.22853 0.64507 0.69529 0.0
C2438 C 0.19184 0.69545 0.68573 0.0
C2439 C 0.15854 0.70095 0.70965 0.0
N2440 N 0.21554 0.66026 0.69207 0.0
N2441 N 0.17037 0.68465 0.71204 0.0
H2442 H 0.95802 0.89884 0.01948 0.0
H2443 H 0.88641 0.98454 0.06179 0.0
H2444 H 0.97042 0.93371 0.07213 0.0
H2445 H 0.87852 0.95826 0.00346 0.0
H2446 H 0.91482 0.96262 0.0675 0.0
H2447 H 0.9274 0.91823 0.01423 0.0
C2448 C 0.9544 0.91078 0.02976 0.0
C2449 C 0.96668 0.91477 0.04625 0.0
C2450 C 0.90679 0.96149 0.05351 0.0
C2451 C 0.93157 0.93658 0.04068 0.0
C2452 C 0.89044 0.97389 0.0503 0.0
C2453 C 0.88015 0.97335 0.03205 0.0
C2454 C 0.913 0.9484 0.03837 0.0
C2455 C 0.886 0.95916 0.01776 0.0
C2456 C 0.93685 0.92168 0.02689 0.0
C2457 C 0.96123 0.93015 0.05931 0.0
N2458 N 0.9022 0.94737 0.02114 0.0
N2459 N 0.94403 0.94043 0.05631 0.0
H2460 H 0.75817 0.13952 0.80407 0.0
H2461 H 0.8534 0.20499 0.77347 0.0
H2462 H 0.79841 0.12274 0.75662 0.0
H2463 H 0.81073 0.22227 0.81838 0.0
H2464 H 0.83441 0.17421 0.76766 0.0
H2465 H 0.77878 0.16864 0.81091 0.0
C2466 C 0.77151 0.14182 0.79523 0.0
C2467 C 0.7765 0.12868 0.77967 0.0
C2468 C 0.82916 0.18473 0.77876 0.0
C2469 C 0.80012 0.16234 0.78728 0.0
C2470 C 0.83989 0.20233 0.78196 0.0
C2471 C 0.83353 0.2161 0.7964 0.0
C2472 C 0.81197 0.18088 0.79014 0.0
C2473 C 0.81612 0.21194 0.80717 0.0
C2474 C 0.78324 0.15855 0.79909 0.0
C2475 C 0.79402 0.13242 0.76879 0.0
N2476 N 0.80596 0.19468 0.80386 0.0
N2477 N 0.80512 0.14902 0.7727 0.0
H2478 H 0.6881 0.77 0.31135 0.0
H2479 H 0.70346 0.87377 0.25594 0.0
H2480 H 0.64107 0.79684 0.27661 0.0
H2481 H 0.73753 0.85561 0.30758 0.0
H2482 H 0.68075 0.84557 0.26168 0.0
H2483 H 0.70766 0.80064 0.30789 0.0
C2484 C 0.68186 0.78243 0.30311 0.0
C2485 C 0.66293 0.78105 0.29443 0.0
C2486 C 0.69307 0.84799 0.27187 0.0
C2487 C 0.68527 0.81598 0.29007 0.0
C2488 C 0.70594 0.86414 0.26869 0.0
C2489 C 0.72255 0.86696 0.28117 0.0
C2490 C 0.69702 0.83452 0.28747 0.0
C2491 C 0.72507 0.85393 0.29742 0.0
C2492 C 0.69302 0.79989 0.30109 0.0
C2493 C 0.65573 0.79736 0.28341 0.0
N2494 N 0.71264 0.83815 0.29992 0.0
N2495 N 0.66694 0.81417 0.28146 0.0
H2496 H 0.0062 0.19913 0.47767 0.0
H2497 H 0.99632 0.29759 0.41151 0.0
H2498 H 0.99672 0.19934 0.41386 0.0
H2499 H 0.98804 0.29878 0.47548 0.0
H2500 H -0.00014 0.26158 0.41292 0.0
H2501 H 0.00171 0.23549 0.47796 0.0
C2502 C 0.00297 0.20674 0.46377 0.0
C2503 C 0.00196 0.19611 0.44569 0.0
C2504 C 0.99729 0.26967 0.42668 0.0
C2505 C 0.99716 0.23766 0.44593 0.0
C2506 C 0.9954 0.29034 0.42593 0.0
C2507 C 0.9918 0.30134 0.44342 0.0
C2508 C 0.99572 0.25975 0.44506 0.0
C2509 C 0.99077 0.29093 0.46162 0.0
C2510 C 0.00047 0.22749 0.46397 0.0
C2511 C 0.99774 0.20681 0.42816 0.0
N2512 N 0.99271 0.27068 0.46198 0.0
N2513 N 0.99569 0.22695 0.42872 0.0
H2514 H 0.05444 0.75648 0.73732 0.0
H2515 H 0.94753 0.77761 0.69042 0.0
H2516 H 0.04228 0.76761 0.67499 0.0
H2517 H 0.95321 0.73154 0.73508 0.0
H2518 H 0.98319 0.78406 0.69297 0.0
H2519 H 0.018 0.75538 0.74356 0.0
C2520 C 0.04416 0.75869 0.72503 0.0
C2521 C 0.05133 0.76191 0.70558 0.0
C2522 C 0.97657 0.77278 0.70249 0.0
C2523 C 0.01025 0.76145 0.71271 0.0
C2524 C 0.95623 0.76912 0.70108 0.0
C2525 C 0.94752 0.7537 0.71221 0.0
C2526 C 0.98837 0.76094 0.71505 0.0
C2527 C 0.95945 0.74344 0.7261 0.0
C2528 C 0.02351 0.75808 0.72861 0.0
C2529 C 0.03746 0.76479 0.69017 0.0
N2530 N 0.97949 0.74697 0.72688 0.0
N2531 N 0.01767 0.76464 0.69411 0.0
H2532 H 0.49791 0.80047 0.91592 0.0
H2533 H 0.50425 0.69962 0.97921 0.0
H2534 H 0.48864 0.79922 0.97975 0.0
H2535 H 0.4969 0.70179 0.91515 0.0
H2536 H 0.50098 0.73606 0.98033 0.0
H2537 H 0.50119 0.76429 0.91605 0.0
C2538 C 0.49674 0.79264 0.93002 0.0
C2539 C 0.49288 0.80297 0.94785 0.0
C2540 C 0.49997 0.72848 0.96608 0.0
C2541 C 0.4965 0.76134 0.94803 0.0
C2542 C 0.50176 0.70769 0.96542 0.0
C2543 C 0.50092 0.69757 0.94705 0.0
C2544 C 0.49753 0.73922 0.94823 0.0
C2545 C 0.49769 0.70886 0.92967 0.0
C2546 C 0.49848 0.77191 0.93005 0.0
C2547 C 0.49154 0.7919 0.96563 0.0
N2548 N 0.49628 0.72904 0.93069 0.0
N2549 N 0.49331 0.77166 0.96527 0.0
H2550 H 0.54934 0.24937 0.16075 0.0
H2551 H 0.45158 0.24064 0.22865 0.0
H2552 H 0.5505 0.25648 0.22486 0.0
H2553 H 0.45053 0.24593 0.16437 0.0
H2554 H 0.48789 0.24464 0.22793 0.0
H2555 H 0.51324 0.24534 0.16222 0.0
C2556 C 0.54205 0.24993 0.17518 0.0
C2557 C 0.55303 0.25336 0.19271 0.0
C2558 C 0.47966 0.24503 0.21402 0.0
C2559 C 0.51153 0.24888 0.19445 0.0
C2560 C 0.45893 0.2428 0.21441 0.0
C2561 C 0.44794 0.24289 0.19654 0.0
C2562 C 0.48949 0.2472 0.19563 0.0
C2563 C 0.45832 0.24573 0.17853 0.0
C2564 C 0.52138 0.24775 0.17598 0.0
C2565 C 0.54267 0.25392 0.21095 0.0
N2566 N 0.47849 0.24765 0.17855 0.0
N2567 N 0.52249 0.25174 0.21134 0.0
H2568 H -0.00096 0.69939 0.07952 0.0
H2569 H 0.01302 0.80088 0.01916 0.0
H2570 H 0.99248 0.70122 0.01537 0.0
H2571 H 0.99723 0.79745 0.08162 0.0
H2572 H 0.00913 0.76447 0.01673 0.0
H2573 H 0.00332 0.73535 0.07983 0.0
C2574 C -0.0013 0.70729 0.06543 0.0
C2575 C 0.99529 0.69716 0.04738 0.0
C2576 C 0.00641 0.7718 0.03088 0.0
C2577 C 4e-05 0.73868 0.04772 0.0
C2578 C 0.00858 0.79256 0.03229 0.0
C2579 C 0.00553 0.8023 0.05065 0.0
C2580 C 0.00145 0.76076 0.048 0.0
C2581 C -0.00019 0.79071 0.06715 0.0
C2582 C 0.00099 0.72792 0.06566 0.0
C2583 C 0.995 0.70839 0.02964 0.0
N2584 N -0.00186 0.77061 0.06546 0.0
N2585 N 0.99731 0.7286 0.03024 0.0
H2586 H 0.54663 0.73828 0.265 0.0
H2587 H 0.44727 0.74305 0.33066 0.0
H2588 H 0.54568 0.74687 0.32894 0.0
H2589 H 0.44669 0.75302 0.26692 0.0
H2590 H 0.48344 0.74 0.32948 0.0
H2591 H 0.51008 0.74065 0.26466 0.0
C2592 C 0.53881 0.74087 0.27892 0.0
C2593 C 0.5493 0.74232 0.29703 0.0
C2594 C 0.47541 0.74279 0.31573 0.0
C2595 C 0.50757 0.74462 0.29675 0.0
C2596 C 0.4547 0.74439 0.31635 0.0
C2597 C 0.44386 0.74845 0.29888 0.0
C2598 C 0.48547 0.74513 0.2975 0.0
C2599 C 0.45442 0.74997 0.28079 0.0
C2600 C 0.51796 0.74213 0.2787 0.0
C2601 C 0.53833 0.74562 0.3146 0.0
N2602 N 0.47467 0.74837 0.28057 0.0
N2603 N 0.51811 0.74649 0.31402 0.0
H2604 H 0.47089 0.29673 0.54919 0.0
H2605 H 0.52531 0.19903 0.54024 0.0
H2606 H 0.52756 0.29753 0.51866 0.0
H2607 H 0.46369 0.19973 0.52175 0.0
H2608 H 0.52727 0.23505 0.53376 0.0
H2609 H 0.46739 0.26121 0.54084 0.0
C2610 C 0.48235 0.28952 0.54034 0.0
C2611 C 0.49954 0.29996 0.53461 0.0
C2612 C 0.5135 0.22718 0.53059 0.0
C2613 C 0.49593 0.2595 0.52565 0.0
C2614 C 0.51239 0.20672 0.53428 0.0
C2615 C 0.49436 0.19655 0.53138 0.0
C2616 C 0.49624 0.23753 0.52481 0.0
C2617 C 0.4779 0.20712 0.52394 0.0
C2618 C 0.48032 0.26935 0.53555 0.0
C2619 C 0.51404 0.28997 0.52326 0.0
N2620 N 0.47905 0.22723 0.52144 0.0
N2621 N 0.51219 0.27009 0.51961 0.0
H2622 H 0.94861 0.24266 0.83147 0.0
H2623 H 0.04801 0.23842 0.76703 0.0
H2624 H 0.94821 0.26183 0.76987 0.0
H2625 H 0.04629 0.24683 0.83098 0.0
H2626 H 0.01154 0.24284 0.76604 0.0
H2627 H 0.98447 0.23834 0.8296 0.0
C2628 C 0.95599 0.24579 0.81743 0.0
C2629 C 0.94528 0.25281 0.80084 0.0
C2630 C 0.01929 0.24385 0.7802 0.0
C2631 C 0.9867 0.24796 0.7987 0.0
C2632 C 0.04006 0.24138 0.78079 0.0
C2633 C 0.05028 0.24211 0.79913 0.0
C2634 C 0.00875 0.24672 0.79809 0.0
C2635 C 0.03918 0.24601 0.81649 0.0
C2636 C 0.97657 0.24345 0.81645 0.0
C2637 C 0.95586 0.25649 0.78306 0.0
N2638 N 0.01907 0.24794 0.81554 0.0
N2639 N 0.97606 0.25406 0.78245 0.0
H2640 H 0.41567 0.9979 0.19704 0.0
H2641 H 0.47633 0.98758 0.29936 0.0
H2642 H 0.47945 0.00686 0.20012 0.0
H2643 H 0.41231 0.9941 0.29529 0.0
H2644 H 0.47854 0.99206 0.26302 0.0
H2645 H 0.41499 0.99282 0.23296 0.0
C2646 C 0.42959 -0.00133 0.20522 0.0
C2647 C 0.44764 0.00296 0.19547 0.0
C2648 C 0.46406 0.99259 0.27018 0.0
C2649 C 0.44691 0.99724 0.23689 0.0
C2650 C 0.46278 0.99009 0.29091 0.0
C2651 C 0.4441 0.9904 0.30045 0.0
C2652 C 0.44653 0.99521 0.25895 0.0
C2653 C 0.42705 0.99368 0.28868 0.0
C2654 C 0.42917 0.99586 0.22581 0.0
C2655 C 0.46518 0.00366 0.20699 0.0
N2656 N 0.42868 0.99582 0.26862 0.0
N2657 N 0.46438 0.00088 0.22712 0.0
H2658 H 0.26263 0.22845 0.55116 0.0
H2659 H 0.24903 0.16451 0.45179 0.0
H2660 H 0.24762 0.16573 0.54992 0.0
H2661 H 0.24283 0.22871 0.45143 0.0
H2662 H 0.25286 0.1654 0.48781 0.0
H2663 H 0.2584 0.22961 0.51473 0.0
C2664 C 0.25826 0.215 0.54332 0.0
C2665 C 0.2556 0.19693 0.55366 0.0
C2666 C 0.25069 0.17932 0.47988 0.0
C2667 C 0.25113 0.19814 0.51211 0.0
C2668 C 0.24865 0.17886 0.45923 0.0
C2669 C 0.2455 0.19657 0.44847 0.0
C2670 C 0.24975 0.19762 0.49003 0.0
C2671 C 0.24516 0.21468 0.4591 0.0
C2672 C 0.25591 0.21569 0.52255 0.0
C2673 C 0.24994 0.17999 0.54268 0.0
N2674 N 0.24725 0.21476 0.47934 0.0
N2675 N 0.24809 0.18099 0.52255 0.0
H2676 H 0.01252 0.98451 0.69355 0.0
H2677 H 0.07026 0.97727 0.79707 0.0
H2678 H 0.0765 0.98869 0.70057 0.0
H2679 H 0.01242 0.00568 0.79469 0.0
H2680 H 0.06902 0.97252 0.76111 0.0
H2681 H 0.0091 0.98533 0.73027 0.0
C2682 C 0.02578 0.98569 0.70274 0.0
C2683 C 0.04482 0.9866 0.69395 0.0
C2684 C 0.05651 0.97964 0.76849 0.0
C2685 C 0.04101 0.98691 0.73554 0.0
C2686 C 0.05715 0.9823 0.78905 0.0
C2687 C 0.0416 0.99228 0.79891 0.0
C2688 C 0.04019 0.98689 0.75758 0.0
C2689 C 0.02483 -0.0019 0.78765 0.0
C2690 C 0.0238 0.98611 0.72359 0.0
C2691 C 0.0615 0.98806 0.70656 0.0
N2692 N 0.02464 0.99551 0.76746 0.0
N2693 N 0.0592 0.98799 0.72663 0.0
H2694 H 0.22229 0.80563 0.9449 0.0
H2695 H 0.24424 0.76009 0.05194 0.0
H2696 H 0.26888 0.76146 0.95028 0.0
H2697 H 0.23563 0.8227 0.03928 0.0
H2698 H 0.24493 0.75346 0.01557 0.0
H2699 H 0.21663 0.80356 0.98077 0.0
C2700 C 0.23101 0.79512 0.95356 0.0
C2701 C 0.24639 0.78404 0.94469 0.0
C2702 C 0.2429 0.76857 0.02096 0.0
C2703 C 0.24002 0.78174 0.98573 0.0
C2704 C 0.24254 0.77238 0.04157 0.0
C2705 C 0.24006 0.792 0.04859 0.0
C2706 C 0.24003 0.78443 0.00758 0.0
C2707 C 0.23782 0.80739 0.03459 0.0
C2708 C 0.22781 0.79402 0.97402 0.0
C2709 C 0.25699 0.77039 0.95661 0.0
N2710 N 0.23767 0.80324 0.01482 0.0
N2711 N 0.25388 0.76987 0.97673 0.0
H2712 H 0.19767 0.41293 0.99609 0.0
H2713 H 0.29714 0.47767 0.98568 0.0
H2714 H 0.19778 0.47673 0.0056 0.0
H2715 H 0.29582 0.4138 0.99449 0.0
H2716 H 0.26071 0.47845 0.98967 0.0
H2717 H 0.2335 0.41391 0.99105 0.0
C2718 C 0.20516 0.42723 0.99694 0.0
C2719 C 0.19459 0.44478 0.00139 0.0
C2720 C 0.26848 0.46432 0.9908 0.0
C2721 C 0.23598 0.44592 0.99578 0.0
C2722 C 0.28926 0.46385 0.98856 0.0
C2723 C 0.29961 0.44563 0.9897 0.0
C2724 C 0.25803 0.44643 0.99396 0.0
C2725 C 0.28858 0.42821 0.99346 0.0
C2726 C 0.22573 0.42773 0.99419 0.0
C2727 C 0.2053 0.46282 0.00227 0.0
N2728 N 0.26844 0.42905 0.99532 0.0
N2729 N 0.22545 0.46293 -0.00045 0.0
H2730 H 0.69867 0.0766 0.00617 0.0
H2731 H 0.79927 0.01421 0.0101 0.0
H2732 H 0.69906 0.01522 0.98628 0.0
H2733 H 0.79599 0.07754 -0.00172 0.0
H2734 H 0.76266 0.01235 0.00695 0.0
H2735 H 0.73458 0.07498 0.01081 0.0
C2736 C 0.70624 0.06267 0.00298 0.0
C2737 C 0.6958 0.0461 0.99551 0.0
C2738 C 0.77012 0.02654 0.00493 0.0
C2739 C 0.73712 0.04426 0.00077 0.0
C2740 C 0.79095 0.02764 0.00666 0.0
C2741 C 0.80077 0.04608 0.00452 0.0
C2742 C 0.75917 0.04407 0.00147 0.0
C2743 C 0.78921 0.06299 9e-05 0.0
C2744 C 0.72679 0.06182 0.00553 0.0
C2745 C 0.70652 0.0284 0.99191 0.0
N2746 N 0.76908 0.06159 -0.00106 0.0
N2747 N 0.72671 0.02795 0.99446 0.0
H2748 H 0.16534 0.44502 0.24807 0.0
H2749 H 0.22642 0.54634 0.25861 0.0
H2750 H 0.22926 0.44597 0.23957 0.0
H2751 H 0.164 0.54267 0.24281 0.0
H2752 H 0.22878 0.50982 0.25536 0.0
H2753 H 0.16556 0.48105 0.25147 0.0
C2754 C 0.1795 0.45274 0.24713 0.0
C2755 C 0.1973 0.44235 0.2434 0.0
C2756 C 0.21467 0.51715 0.25248 0.0
C2757 C 0.19757 0.48395 0.24711 0.0
C2758 C 0.2133 0.53795 0.25426 0.0
C2759 C 0.19495 0.54764 0.25113 0.0
C2760 C 0.1975 0.50605 0.24782 0.0
C2761 C 0.17845 0.53597 0.24552 0.0
C2762 C 0.17957 0.47341 0.24891 0.0
C2763 C 0.21516 0.45336 0.24235 0.0
N2764 N 0.18009 0.51586 0.24426 0.0
N2765 N 0.21486 0.47363 0.24416 0.0
H2766 H 0.69814 0.96758 0.54001 0.0
H2767 H 0.79387 0.97866 0.47088 0.0
H2768 H 0.69649 0.95327 0.47726 0.0
H2769 H 0.79619 0.94545 0.52602 0.0
H2770 H 0.75791 0.9837 0.47591 0.0
H2771 H 0.73428 0.97374 0.53722 0.0
C2772 C 0.7053 0.96639 0.52555 0.0
C2773 C 0.69451 0.95993 0.50881 0.0
C2774 C 0.76648 0.97576 0.48709 0.0
C2775 C 0.73529 0.96722 0.50554 0.0
C2776 C 0.78693 0.97295 0.48433 0.0
C2777 C 0.79789 0.9615 0.49801 0.0
C2778 C 0.75717 0.96755 0.50392 0.0
C2779 C 0.78816 0.95424 0.51507 0.0
C2780 C 0.72581 0.96977 0.52403 0.0
C2781 C 0.7044 0.95822 0.49046 0.0
N2782 N 0.76827 0.95734 0.51755 0.0
N2783 N 0.72431 0.96185 0.48929 0.0
H2784 H 0.8308 0.94872 0.24861 0.0
H2785 H 0.7663 0.04766 0.23897 0.0
H2786 H 0.76727 0.94737 0.25965 0.0
H2787 H 0.82848 0.04651 0.25607 0.0
H2788 H 0.76528 0.0111 0.24235 0.0
H2789 H 0.82918 0.98481 0.2456 0.0
C2790 C 0.81643 0.95595 0.25022 0.0
C2791 C 0.79915 0.94491 0.25456 0.0
C2792 C 0.77904 0.01899 0.24551 0.0
C2793 C 0.79728 0.9865 0.25117 0.0
C2794 C 0.77964 0.03982 0.24363 0.0
C2795 C 0.79754 0.05023 0.24711 0.0
C2796 C 0.79652 0.00858 0.25053 0.0
C2797 C 0.81435 0.03924 0.25312 0.0
C2798 C 0.81557 0.97663 0.24864 0.0
C2799 C 0.78098 0.95528 0.2564 0.0
N2800 N 0.81347 0.01907 0.2544 0.0
N2801 N 0.7805 0.97556 0.2547 0.0
H2802 H 0.19768 0.57318 0.51466 0.0
H2803 H 0.30043 0.51345 0.50599 0.0
H2804 H 0.20062 0.51508 0.48678 0.0
H2805 H 0.29545 0.57745 0.51216 0.0
H2806 H 0.26382 0.51134 0.50397 0.0
H2807 H 0.23349 0.57198 0.52022 0.0
C2808 C 0.20581 0.56003 0.50987 0.0
C2809 C 0.19612 0.54433 0.49993 0.0
C2810 C 0.27085 0.52579 0.50575 0.0
C2811 C 0.23734 0.54298 0.50618 0.0
C2812 C 0.29169 0.52703 0.50687 0.0
C2813 C 0.30104 0.54567 0.50918 0.0
C2814 C 0.2594 0.54327 0.50729 0.0
C2815 C 0.28898 0.56276 0.51027 0.0
C2816 C 0.22631 0.55942 0.51298 0.0
C2817 C 0.20749 0.52759 0.49436 0.0
N2818 N 0.26885 0.56112 0.50942 0.0
N2819 N 0.2276 0.52741 0.49741 0.0
H2820 H 0.27625 0.45096 0.78505 0.0
H2821 H 0.27066 0.54664 0.71609 0.0
H2822 H 0.29341 0.44745 0.7231 0.0
H2823 H 0.30577 0.54764 0.77009 0.0
H2824 H 0.26497 0.51073 0.72091 0.0
H2825 H 0.27288 0.48741 0.78162 0.0
C2826 C 0.27861 0.4578 0.77058 0.0
C2827 C 0.28502 0.44633 0.75428 0.0
C2828 C 0.27354 0.51899 0.73186 0.0
C2829 C 0.28097 0.48752 0.75031 0.0
C2830 C 0.27673 0.53941 0.72922 0.0
C2831 C 0.28876 0.55002 0.74271 0.0
C2832 C 0.28191 0.50937 0.74842 0.0
C2833 C 0.29649 0.53992 0.75933 0.0
C2834 C 0.27687 0.4785 0.76872 0.0
C2835 C 0.28836 0.45586 0.73596 0.0
N2836 N 0.29291 0.52008 0.76177 0.0
N2837 N 0.28627 0.47598 0.73443 0.0
H2838 H 0.97875 0.50837 0.6964 0.0
H2839 H 0.91446 0.5008 0.79592 0.0
H2840 H 0.91535 0.49665 0.6978 0.0
H2841 H 0.97781 0.48873 0.79633 0.0
H2842 H 0.91559 0.50381 0.75981 0.0
H2843 H 0.97976 0.5043 0.73286 0.0
C2844 C 0.96511 0.50473 0.70428 0.0
C2845 C 0.9469 0.503 0.69397 0.0
C2846 C 0.92927 0.50051 0.76777 0.0
C2847 C 0.94795 0.49874 0.73555 0.0
C2848 C 0.92869 0.49893 0.78847 0.0
C2849 C 0.94607 0.49438 0.79926 0.0
C2850 C 0.94738 0.49774 0.75764 0.0
C2851 C 0.96403 0.49217 0.78863 0.0
C2852 C 0.96571 0.50247 0.72506 0.0
C2853 C 0.92972 0.49826 0.70501 0.0
N2854 N 0.96424 0.49388 0.76835 0.0
N2855 N 0.93065 0.49652 0.72515 0.0
H2856 H 0.74564 0.66724 0.94862 0.0
H2857 H 0.75489 0.72904 0.04992 0.0
H2858 H 0.73642 0.73106 0.95038 0.0
H2859 H 0.74535 0.66532 0.04693 0.0
H2860 H 0.75048 0.73088 0.0136 0.0
H2861 H 0.74927 0.6671 0.98469 0.0
C2862 C 0.74455 0.6813 0.95654 0.0
C2863 C 0.74062 0.6992 0.94636 0.0
C2864 C 0.74921 0.71656 0.02099 0.0
C2865 C 0.74462 0.69905 0.98796 0.0
C2866 C 0.75165 0.71548 0.04171 0.0
C2867 C 0.75062 0.69697 0.05154 0.0
C2868 C 0.74595 0.69898 0.01004 0.0
C2869 C 0.74638 0.67992 0.04009 0.0
C2870 C 0.74648 0.68116 0.97722 0.0
C2871 C 0.73939 0.71691 0.95758 0.0
N2872 N 0.7444 0.68133 0.01998 0.0
N2873 N 0.74136 0.71639 0.97782 0.0
H2874 H 0.51624 0.4869 0.19698 0.0
H2875 H 0.58139 0.4957 0.29645 0.0
H2876 H 0.57993 0.49696 0.19809 0.0
H2877 H 0.51757 0.50489 0.29676 0.0
H2878 H 0.58028 0.49163 0.2604 0.0
H2879 H 0.51563 0.49027 0.23351 0.0
C2880 C 0.53004 0.48998 0.20482 0.0
C2881 C 0.54818 0.49157 0.19439 0.0
C2882 C 0.56649 0.49448 0.26833 0.0
C2883 C 0.54759 0.49506 0.23608 0.0
C2884 C 0.56707 0.49668 0.289 0.0
C2885 C 0.54955 0.5008 0.29973 0.0
C2886 C 0.54824 0.49627 0.25818 0.0
C2887 C 0.53146 0.50182 0.28911 0.0
C2888 C 0.52967 0.49184 0.22566 0.0
C2889 C 0.56558 0.49555 0.20539 0.0
N2890 N 0.53127 0.49963 0.26889 0.0
N2891 N 0.56486 0.49699 0.22557 0.0
H2892 H 0.75427 0.26704 0.44942 0.0
H2893 H 0.75236 0.33097 0.54965 0.0
H2894 H 0.74869 0.33125 0.45173 0.0
H2895 H 0.73515 0.2688 0.54955 0.0
H2896 H 0.75594 0.32972 0.51364 0.0
H2897 H 0.75074 0.26598 0.48595 0.0
C2898 C 0.75213 0.28086 0.45753 0.0
C2899 C 0.75186 0.29927 0.44744 0.0
C2900 C 0.7514 0.31631 0.52145 0.0
C2901 C 0.74821 0.29813 0.48907 0.0
C2902 C 0.74946 0.31696 0.5421 0.0
C2903 C 0.74324 0.3 0.55272 0.0
C2904 C 0.74726 0.29855 0.51117 0.0
C2905 C 0.73989 0.28226 0.54197 0.0
C2906 C 0.75016 0.28022 0.47834 0.0
C2907 C 0.74904 0.3167 0.45875 0.0
N2908 N 0.74189 0.282 0.52172 0.0
N2909 N 0.74751 0.31569 0.4789 0.0
H2910 H 0.72784 0.94214 0.73419 0.0
H2911 H 0.67506 0.04877 0.72668 0.0
H2912 H 0.66426 0.95184 0.7298 0.0
H2913 H 0.73245 0.04202 0.7553 0.0
H2914 H 0.67439 0.01309 0.72028 0.0
H2915 H 0.7327 0.97861 0.73586 0.0
C2916 C 0.71496 0.95188 0.73356 0.0
C2917 C 0.69561 0.94392 0.73199 0.0
C2918 C 0.68722 0.01941 0.72784 0.0
C2919 C 0.7011 0.98532 0.73343 0.0
C2920 C 0.68767 0.03984 0.73145 0.0
C2921 C 0.70369 0.04841 0.74188 0.0
C2922 C 0.70288 0.00731 0.73466 0.0
C2923 C 0.71972 0.03601 0.74736 0.0
C2924 C 0.71775 0.97261 0.73451 0.0
C2925 C 0.67944 0.95721 0.73119 0.0
N2926 N 0.71884 0.01598 0.74387 0.0
N2927 N 0.68257 0.97717 0.73183 0.0
H2928 H 0.8982 0.15131 0.27473 0.0
H2929 H 0.98067 0.09838 0.34167 0.0
H2930 H 0.90173 0.08735 0.28135 0.0
H2931 H 0.96478 0.16044 0.34824 0.0
H2932 H 0.95344 0.09422 0.31774 0.0
H2933 H 0.92418 0.15511 0.29995 0.0
C2934 C 0.90446 0.13805 0.28155 0.0
C2935 C 0.89779 0.11898 0.27607 0.0
C2936 C 0.95583 0.10871 0.3245 0.0
C2937 C 0.92756 0.12323 0.30484 0.0
C2938 C 0.97142 0.11114 0.33804 0.0
C2939 C 0.97483 0.12976 0.34699 0.0
C2940 C 0.94379 0.12512 0.31965 0.0
C2941 C 0.96242 0.14578 0.34189 0.0
C2942 C 0.91919 0.14025 0.29601 0.0
C2943 C 0.90627 0.10231 0.2854 0.0
N2944 N 0.94747 0.14312 0.32844 0.0
N2945 N 0.92087 0.10481 0.29929 0.0
H2946 H 0.11794 0.69568 0.62436 0.0
H2947 H 0.10113 0.65259 0.51465 0.0
H2948 H 0.07484 0.71878 0.58255 0.0
H2949 H 0.15019 0.63488 0.55248 0.0
H2950 H 0.08798 0.67293 0.54165 0.0
H2951 H 0.12586 0.66883 0.60093 0.0
C2952 C 0.10955 0.6946 0.61059 0.0
C2953 C 0.0954 0.70915 0.60547 0.0
C2954 C 0.10156 0.66453 0.54415 0.0
C2955 C 0.10501 0.67911 0.57831 0.0
C2956 C 0.10918 0.653 0.52868 0.0
C2957 C 0.12684 0.64208 0.53132 0.0
C2958 C 0.11173 0.66533 0.56242 0.0
C2959 C 0.13643 0.64292 0.5499 0.0
C2960 C 0.11434 0.67949 0.59707 0.0
C2961 C 0.08567 0.70766 0.58706 0.0
N2962 N 0.12881 0.65449 0.56477 0.0
N2963 N 0.09075 0.69298 0.57407 0.0
H2964 H 0.49996 0.87456 0.82586 0.0
H2965 H 0.61444 0.89049 0.79847 0.0
H2966 H 0.5463 0.87602 0.87061 0.0
H2967 H 0.5658 0.90258 0.75802 0.0
H2968 H 0.59033 0.88528 0.82537 0.0
H2969 H 0.52451 0.88365 0.80064 0.0
C2970 C 0.51538 0.87651 0.83034 0.0
C2971 C 0.52114 0.87407 0.85031 0.0
C2972 C 0.58496 0.88947 0.8107 0.0
C2973 C 0.54933 0.88482 0.82155 0.0
C2974 C 0.59874 0.89278 0.79541 0.0
C2975 C 0.59207 0.89734 0.77608 0.0
C2976 C 0.56446 0.89041 0.80647 0.0
C2977 C 0.57152 0.8992 0.77276 0.0
C2978 C 0.52937 0.88185 0.81596 0.0
C2979 C 0.54128 0.87701 0.85532 0.0
N2980 N 0.55843 0.89556 0.78776 0.0
N2981 N 0.55469 0.88221 0.841 0.0
H2982 H 0.3661 0.36873 0.04999 0.0
H2983 H 0.38343 0.25341 0.07414 0.0
H2984 H 0.35922 0.32139 0.0068 0.0
H2985 H 0.37773 0.29816 0.12016 0.0
H2986 H 0.37695 0.27891 0.04903 0.0
H2987 H 0.37166 0.34376 0.07595 0.0
C2988 C 0.36516 0.35311 0.04604 0.0
C2989 C 0.36177 0.34711 0.02625 0.0
C2990 C 0.37729 0.28322 0.06461 0.0
C2991 C 0.36903 0.31854 0.0557 0.0
C2992 C 0.3811 0.26869 0.07894 0.0
C2993 C 0.38152 0.27373 0.09924 0.0
C2994 C 0.37375 0.30297 0.07061 0.0
C2995 C 0.37823 0.2937 0.10466 0.0
C2996 C 0.36866 0.33886 0.06084 0.0
C2997 C 0.36169 0.32665 0.02189 0.0
N2998 N 0.37445 0.30763 0.0904 0.0
N2999 N 0.36536 0.31311 0.03647 0.0
H3000 H 0.90213 0.84569 0.22803 0.0
H3001 H 0.97552 0.90127 0.15282 0.0
H3002 H 0.9001 0.90916 0.2173 0.0
H3003 H 0.96821 0.83729 0.154 0.0
H3004 H 0.94906 0.90449 0.17761 0.0
H3005 H 0.92747 0.84238 0.2021 0.0
C3006 C 0.90704 0.85895 0.22017 0.0
C3007 C 0.89895 0.87773 0.22469 0.0
C3008 C 0.95314 0.88975 0.17237 0.0
C3009 C 0.92796 0.87404 0.19506 0.0
C3010 C 0.96831 0.88788 0.15833 0.0
C3011 C 0.97394 0.86897 0.15129 0.0
C3012 C 0.94369 0.87256 0.17966 0.0
C3013 C 0.96408 0.85214 0.15879 0.0
C3014 C 0.92141 0.85702 0.20531 0.0
C3015 C 0.90572 0.89438 0.21403 0.0
N3016 N 0.94945 0.85433 0.17268 0.0
N3017 N 0.91994 0.89216 0.19973 0.0
H3018 H 0.37402 0.62633 0.45227 0.0
H3019 H 0.34831 0.73434 0.40945 0.0
H3020 H 0.33679 0.6687 0.48322 0.0
H3021 H 0.39929 0.70004 0.38992 0.0
H3022 H 0.34038 0.70829 0.43344 0.0
H3023 H 0.37927 0.65076 0.42564 0.0
C3024 C 0.36645 0.64058 0.45312 0.0
C3025 C 0.35452 0.64542 0.46961 0.0
C3026 C 0.35324 0.70641 0.42382 0.0
C3027 C 0.361 0.67358 0.4397 0.0
C3028 C 0.35786 0.72131 0.41013 0.0
C3029 C 0.37438 0.7193 0.39737 0.0
C3030 C 0.36518 0.68929 0.42481 0.0
C3031 C 0.38609 0.70201 0.39895 0.0
C3032 C 0.36972 0.65461 0.43811 0.0
C3033 C 0.34584 0.66439 0.47054 0.0
N3034 N 0.38124 0.68762 0.41242 0.0
N3035 N 0.34922 0.67781 0.45574 0.0
H3036 H 0.55999 0.14557 0.61847 0.0
H3037 H 0.57956 0.11695 0.72983 0.0
H3038 H 0.52672 0.17158 0.66717 0.0
H3039 H 0.63001 0.12392 0.69027 0.0
H3040 H 0.55824 0.13203 0.70453 0.0
H3041 H 0.58528 0.13435 0.6423 0.0
C3042 C 0.55833 0.14965 0.634 0.0
C3043 C 0.54124 0.15972 0.64082 0.0
C3044 C 0.57398 0.13007 0.70137 0.0
C3045 C 0.56949 0.1459 0.66809 0.0
C3046 C 0.58614 0.12131 0.71571 0.0
C3047 C 0.60662 0.11882 0.71215 0.0
C3048 C 0.58224 0.13623 0.68317 0.0
C3049 C 0.61427 0.12485 0.69354 0.0
C3050 C 0.57266 0.14295 0.64761 0.0
C3051 C 0.53962 0.16382 0.66129 0.0
N3052 N 0.60203 0.13324 0.67966 0.0
N3053 N 0.55336 0.15657 0.67425 0.0
H3054 H 0.10496 0.25186 0.92618 0.0
H3055 H 0.13165 0.36569 0.94889 0.0
H3056 H 0.11854 0.2946 0.87993 0.0
H3057 H 0.13042 0.31956 0.99385 0.0
H3058 H 0.12562 0.34049 0.92332 0.0
H3059 H 0.11195 0.27734 0.95126 0.0
C3060 C 0.10912 0.26671 0.9213 0.0
C3061 C 0.11075 0.27123 0.90093 0.0
C3062 C 0.12696 0.33585 0.93875 0.0
C3063 C 0.11911 0.30037 0.92952 0.0
C3064 C 0.13074 0.35021 0.95336 0.0
C3065 C 0.13205 0.34464 0.97351 0.0
C3066 C 0.12416 0.31587 0.9444 0.0
C3067 C 0.12968 0.32445 0.97846 0.0
C3068 C 0.11322 0.28121 0.93562 0.0
C3069 C 0.11639 0.29063 0.89542 0.0
N3070 N 0.12578 0.3108 0.96401 0.0
N3071 N 0.1204 0.30451 0.90966 0.0
H3072 H 0.30651 0.87808 0.10126 0.0
H3073 H 0.326 0.99265 0.12488 0.0
H3074 H 0.26325 0.9247 0.09118 0.0
H3075 H 0.37414 0.95019 0.11944 0.0
H3076 H 0.30268 0.96706 0.11382 0.0
H3077 H 0.33187 0.9035 0.10772 0.0
C3078 C 0.30249 0.89362 0.09965 0.0
C3079 C 0.28277 0.8993 0.09546 0.0
C3080 C 0.31833 0.96327 0.11516 0.0
C3081 C 0.31144 0.92838 0.10378 0.0
C3082 C 0.33163 0.97784 0.12163 0.0
C3083 C 0.35199 0.97347 0.12355 0.0
C3084 C 0.3254 0.9441 0.11052 0.0
C3085 C 0.3585 0.95407 0.11892 0.0
C3086 C 0.31692 0.90814 0.10367 0.0
C3087 C 0.27829 0.91971 0.09437 0.0
N3088 N 0.34521 0.94006 0.11266 0.0
N3089 N 0.29244 0.93349 0.09874 0.0
H3090 H 0.29755 0.11544 0.38578 0.0
H3091 H 0.31555 0.00251 0.35218 0.0
H3092 H 0.25051 0.07175 0.38036 0.0
H3093 H 0.36338 0.04279 0.36771 0.0
H3094 H 0.29146 0.02848 0.36076 0.0
H3095 H 0.32203 0.08947 0.37868 0.0
C3096 C 0.29238 0.10029 0.38375 0.0
C3097 C 0.27196 0.09566 0.3841 0.0
C3098 C 0.30724 0.03171 0.36209 0.0
C3099 C 0.29985 0.06606 0.375 0.0
C3100 C 0.32098 0.01695 0.35706 0.0
C3101 C 0.3415 0.02064 0.35877 0.0
C3102 C 0.31407 0.05028 0.36901 0.0
C3103 C 0.34775 0.03949 0.36544 0.0
C3104 C 0.30637 0.08551 0.37935 0.0
C3105 C 0.26613 0.0759 0.38035 0.0
N3106 N 0.33407 0.05362 0.37035 0.0
N3107 N 0.27999 0.06185 0.37586 0.0
H3108 H 0.12566 0.04969 0.62601 0.0
H3109 H 0.23719 0.08619 0.64639 0.0
H3110 H 0.16833 0.01671 0.66108 0.0
H3111 H 0.20142 0.10795 0.59736 0.0
H3112 H 0.20971 0.06476 0.65653 0.0
H3113 H 0.15069 0.07586 0.62074 0.0
C3114 C 0.14008 0.04835 0.6332 0.0
C3115 C 0.14495 0.03133 0.64433 0.0
C3116 C 0.20782 0.07433 0.64363 0.0
C3117 C 0.17366 0.06065 0.63783 0.0
C3118 C 0.22354 0.08649 0.63773 0.0
C3119 C 0.22158 0.09901 0.62104 0.0
C3120 C 0.18995 0.07458 0.63277 0.0
C3121 C 0.20345 0.0989 0.61056 0.0
C3122 C 0.15442 0.06309 0.62991 0.0
C3123 C 0.16405 0.02979 0.65261 0.0
N3124 N 0.1883 0.08682 0.61659 0.0
N3125 N 0.17777 0.04427 0.64915 0.0
H3126 H 0.13201 0.93914 0.8434 0.0
H3127 H 0.21667 0.90956 0.92207 0.0
H3128 H 0.15301 0.97754 0.89072 0.0
H3129 H 0.19628 0.86993 0.87564 0.0
H3130 H 0.1903 0.9331 0.91309 0.0
H3131 H 0.15273 0.9121 0.85681 0.0
C3132 C 0.14079 0.94181 0.8567 0.0
C3133 C 0.1408 0.96058 0.86597 0.0
C3134 C 0.19129 0.91908 0.90509 0.0
C3135 C 0.16457 0.92994 0.88125 0.0
C3136 C 0.20625 0.90564 0.91033 0.0
C3137 C 0.20829 0.8877 0.89986 0.0
C3138 C 0.17861 0.91472 0.88894 0.0
C3139 C 0.19475 0.88337 0.88448 0.0
C3140 C 0.15265 0.92642 0.86432 0.0
C3141 C 0.15274 0.96336 0.88295 0.0
N3142 N 0.18057 0.89691 0.87932 0.0
N3143 N 0.16414 0.94825 0.89 0.0
H3144 H 0.59648 0.23467 0.07215 0.0
H3145 H 0.65985 0.14002 0.0385 0.0
H3146 H 0.63391 0.2019 0.11293 0.0
H3147 H 0.60848 0.1615 0.006 0.0
H3148 H 0.65234 0.1638 0.06517 0.0
H3149 H 0.60223 0.20902 0.04675 0.0
C3150 C 0.60559 0.22182 0.07581 0.0
C3151 C 0.61433 0.22001 0.09469 0.0
C3152 C 0.64266 0.16314 0.05224 0.0
C3153 C 0.62152 0.19105 0.06573 0.0
C3154 C 0.64685 0.14945 0.03706 0.0
C3155 C 0.63452 0.14839 0.02016 0.0
C3156 C 0.62625 0.17604 0.05028 0.0
C3157 C 0.61841 0.16173 0.01875 0.0
C3158 C 0.60894 0.20725 0.06136 0.0
C3159 C 0.62639 0.2034 0.09871 0.0
N3160 N 0.61475 0.17498 0.03359 0.0
N3161 N 0.62978 0.18958 0.08426 0.0
H3162 H 0.07386 0.37226 0.24764 0.0
H3163 H 0.0479 0.36314 0.3639 0.0
H3164 H 0.11739 0.37893 0.29463 0.0
H3165 H 0.00375 0.35986 0.31711 0.0
H3166 H 0.07382 0.36741 0.33869 0.0
H3167 H 0.04799 0.3671 0.27286 0.0
C3168 C 0.07789 0.37296 0.26329 0.0
C3169 C 0.09768 0.3765 0.26907 0.0
C3170 C 0.05849 0.36553 0.33391 0.0
C3171 C 0.06834 0.37016 0.298 0.0
C3172 C 0.04371 0.36274 0.34831 0.0
C3173 C 0.02369 0.36067 0.34255 0.0
C3174 C 0.05318 0.36639 0.31364 0.0
C3175 C 0.01905 0.36124 0.32214 0.0
C3176 C 0.06316 0.36993 0.27767 0.0
C3177 C 0.10221 0.37695 0.28952 0.0
N3178 N 0.03368 0.36406 0.30841 0.0
N3179 N 0.08765 0.37375 0.30325 0.0
H3180 H 0.88109 0.84361 0.51717 0.0
H3181 H 0.87798 0.8049 0.62954 0.0
H3182 H 0.83933 0.86615 0.56072 0.0
H3183 H 0.91797 0.78245 0.58439 0.0
H3184 H 0.86673 0.83071 0.60637 0.0
H3185 H 0.89718 0.824 0.543 0.0
C3186 C 0.87524 0.84436 0.53223 0.0
C3187 C 0.85872 0.85637 0.5368 0.0
C3188 C 0.87828 0.82042 0.60168 0.0
C3189 C 0.87723 0.83393 0.56663 0.0
C3190 C 0.88493 0.80585 0.61501 0.0
C3191 C 0.8992 0.79175 0.60895 0.0
C3192 C 0.88581 0.82069 0.58212 0.0
C3193 C 0.90706 0.79316 0.58965 0.0
C3194 C 0.88455 0.83325 0.54703 0.0
C3195 C 0.85206 0.85709 0.55662 0.0
N3196 N 0.90017 0.80728 0.57688 0.0
N3197 N 0.86126 0.84585 0.57085 0.0
H3198 H 0.06568 0.59893 0.23851 0.0
H3199 H 0.04556 0.63149 0.12544 0.0
H3200 H 0.11261 0.61183 0.19634 0.0
H3201 H -0.00098 0.62305 0.16916 0.0
H3202 H 0.07043 0.62411 0.15098 0.0
H3203 H 0.041 0.60635 0.21274 0.0
C3204 C 0.07078 0.60297 0.2237 0.0
C3205 C 0.09121 0.60436 0.21944 0.0
C3206 C 0.05479 0.62412 0.15506 0.0
C3207 C 0.06311 0.61333 0.19001 0.0
C3208 C 0.04058 0.62869 0.14055 0.0
C3209 C 0.0202 0.62839 0.14533 0.0
C3210 C 0.04855 0.619 0.1744 0.0
C3211 C 0.0146 0.62363 0.16493 0.0
C3212 C 0.0567 0.60732 0.20904 0.0
C3213 C 0.09704 0.60991 0.20011 0.0
N3214 N 0.0287 0.61908 0.17874 0.0
N3215 N 0.08304 0.61427 0.18611 0.0
H3216 H 0.43317 0.33609 0.6303 0.0
H3217 H 0.41248 0.41876 0.71415 0.0
H3218 H 0.47809 0.37359 0.65723 0.0
H3219 H 0.36729 0.37818 0.69291 0.0
H3220 H 0.43524 0.40614 0.68861 0.0
H3221 H 0.40744 0.35432 0.64916 0.0
C3222 C 0.43758 0.34817 0.6401 0.0
C3223 C 0.45776 0.35321 0.64238 0.0
C3224 C 0.4202 0.40027 0.68921 0.0
C3225 C 0.42864 0.37414 0.66375 0.0
C3226 C 0.40717 0.40763 0.70366 0.0
C3227 C 0.38792 0.39975 0.7054 0.0
C3228 C 0.41404 0.38458 0.67668 0.0
C3229 C 0.38183 0.38505 0.69174 0.0
C3230 C 0.42294 0.35857 0.65082 0.0
C3231 C 0.46273 0.36894 0.6553 0.0
N3232 N 0.39495 0.37773 0.67809 0.0
N3233 N 0.44831 0.37879 0.66547 0.0
H3234 H 0.44622 0.62879 0.86945 0.0
H3235 H 0.42341 0.59743 0.7567 0.0
H3236 H 0.48899 0.6325 0.82141 0.0
H3237 H 0.37684 0.60717 0.8001 0.0
H3238 H 0.44821 0.60612 0.7819 0.0
H3239 H 0.42076 0.61842 0.84547 0.0
C3240 C 0.45014 0.62804 0.85381 0.0
C3241 C 0.46968 0.63198 0.84734 0.0
C3242 C 0.43257 0.6061 0.78601 0.0
C3243 C 0.44089 0.61912 0.82004 0.0
C3244 C 0.41844 0.60096 0.77169 0.0
C3245 C 0.39806 0.60134 0.77637 0.0
C3246 C 0.42629 0.61181 0.80517 0.0
C3247 C 0.39239 0.60617 0.79596 0.0
C3248 C 0.43566 0.62176 0.84017 0.0
C3249 C 0.47408 0.62976 0.82699 0.0
N3250 N 0.40646 0.61138 0.80965 0.0
N3251 N 0.45983 0.6234 0.8141 0.0
H3252 H 0.86139 0.12831 0.94912 0.0
H3253 H 0.88149 0.24394 0.92754 0.0
H3254 H 0.86365 0.17343 0.99506 0.0
H3255 H 0.88164 0.19851 0.88187 0.0
H3256 H 0.87467 0.21829 0.95253 0.0
H3257 H 0.86731 0.154 0.92403 0.0
C3258 C 0.86252 0.1437 0.95389 0.0
C3259 C 0.8616 0.14885 0.97415 0.0
C3260 C 0.87644 0.21388 0.93707 0.0
C3261 C 0.86925 0.17818 0.94563 0.0
C3262 C 0.88046 0.22849 0.92285 0.0
C3263 C 0.88257 0.22326 0.90271 0.0
C3264 C 0.87427 0.19393 0.93103 0.0
C3265 C 0.8808 0.20311 0.89731 0.0
C3266 C 0.86626 0.15833 0.93957 0.0
C3267 C 0.86411 0.16891 0.97954 0.0
N3268 N 0.87666 0.18916 0.91141 0.0
N3269 N 0.86786 0.18285 0.96536 0.0
H3270 H 0.63148 0.87501 0.44108 0.0
H3271 H 0.64823 0.76472 0.39989 0.0
H3272 H 0.67774 0.83524 0.46148 0.0
H3273 H 0.59772 0.80121 0.3836 0.0
H3274 H 0.66232 0.79273 0.41813 0.0
H3275 H 0.62276 0.85104 0.41495 0.0
C3276 C 0.64037 0.86161 0.43949 0.0
C3277 C 0.65559 0.85717 0.45317 0.0
C3278 C 0.64821 0.79472 0.41051 0.0
C3279 C 0.64513 0.82936 0.42401 0.0
C3280 C 0.64005 0.77867 0.40021 0.0
C3281 C 0.62169 0.78062 0.39036 0.0
C3282 C 0.63786 0.8129 0.41118 0.0
C3283 C 0.61197 0.79914 0.39093 0.0
C3284 C 0.63515 0.84778 0.4248 0.0
C3285 C 0.66604 0.83922 0.45106 0.0
N3286 N 0.6201 0.81458 0.40134 0.0
N3287 N 0.6605 0.82588 0.43687 0.0
H3288 H 0.83176 0.49051 0.60515 0.0
H3289 H 0.7945 0.3799 0.62775 0.0
H3290 H 0.85487 0.45535 0.65402 0.0
H3291 H 0.75894 0.42323 0.5962 0.0
H3292 H 0.82026 0.40535 0.6331 0.0
H3293 H 0.80785 0.46417 0.59795 0.0
C3294 C 0.83187 0.47725 0.61439 0.0
C3295 C 0.84568 0.47505 0.63002 0.0
C3296 C 0.80693 0.40921 0.62479 0.0
C3297 C 0.81837 0.4447 0.62162 0.0
C3298 C 0.79242 0.39465 0.62148 0.0
C3299 C 0.77492 0.39949 0.6111 0.0
C3300 C 0.80383 0.42864 0.61762 0.0
C3301 C 0.77243 0.41897 0.60402 0.0
C3302 C 0.81823 0.46219 0.61018 0.0
C3303 C 0.84506 0.45748 0.6414 0.0
N3304 N 0.78679 0.43287 0.60735 0.0
N3305 N 0.83166 0.4429 0.63691 0.0
H3306 H 0.82146 0.50926 0.85817 0.0
H3307 H 0.79618 0.62393 0.87913 0.0
H3308 H 0.86677 0.55446 0.86538 0.0
H3309 H 0.75255 0.57654 0.87993 0.0
H3310 H 0.82229 0.59931 0.87283 0.0
H3311 H 0.79587 0.53451 0.86367 0.0
C3312 C 0.826 0.52459 0.86059 0.0
C3313 C 0.84625 0.52982 0.86103 0.0
C3314 C 0.80704 0.59429 0.87462 0.0
C3315 C 0.81707 0.55877 0.86774 0.0
C3316 C 0.79214 0.60831 0.87856 0.0
C3317 C 0.77221 0.6022 0.88058 0.0
C3318 C 0.80188 0.57409 0.87245 0.0
C3319 C 0.76776 0.58185 0.87865 0.0
C3320 C 0.8114 0.53899 0.86384 0.0
C3321 C 0.85135 0.54986 0.86435 0.0
N3322 N 0.78247 0.56853 0.87467 0.0
N3323 N 0.83682 0.56363 0.86768 0.0
H3324 H 0.62719 0.54467 0.11819 0.0
H3325 H 0.73872 0.58076 0.13896 0.0
H3326 H 0.6707 0.50916 0.14955 0.0
H3327 H 0.70252 0.60514 0.09149 0.0
H3328 H 0.71217 0.55729 0.1467 0.0
H3329 H 0.65265 0.57039 0.11263 0.0
C3330 C 0.64197 0.54261 0.1244 0.0
C3331 C 0.64686 0.52511 0.13477 0.0
C3332 C 0.70999 0.56785 0.13465 0.0
C3333 C 0.67603 0.55398 0.12798 0.0
C3334 C 0.72518 0.58124 0.13013 0.0
C3335 C 0.72279 0.59526 0.11471 0.0
C3336 C 0.69217 0.5684 0.12373 0.0
C3337 C 0.70484 0.59513 0.1039 0.0
C3338 C 0.65653 0.5571 0.12096 0.0
C3339 C 0.66638 0.52264 0.14174 0.0
N3340 N 0.69016 0.58193 0.10867 0.0
N3341 N 0.68028 0.53696 0.13827 0.0
H3342 H 0.69762 0.37918 0.38535 0.0
H3343 H 0.67458 0.49399 0.36243 0.0
H3344 H 0.74256 0.42531 0.38439 0.0
H3345 H 0.62878 0.44908 0.36823 0.0
H3346 H 0.69978 0.46869 0.36961 0.0
H3347 H 0.67207 0.4044 0.37932 0.0
C3348 C 0.70207 0.39468 0.38449 0.0
C3349 C 0.72221 0.40024 0.38584 0.0
C3350 C 0.68424 0.4643 0.36911 0.0
C3351 C 0.69314 0.42905 0.37802 0.0
C3352 C 0.66987 0.47871 0.36489 0.0
C3353 C 0.64961 0.47354 0.36429 0.0
C3354 C 0.67828 0.44457 0.37293 0.0
C3355 C 0.64426 0.45361 0.36785 0.0
C3356 C 0.68749 0.40905 0.3807 0.0
C3357 C 0.72717 0.42045 0.3836 0.0
N3358 N 0.65853 0.43984 0.37207 0.0
N3359 N 0.71275 0.43412 0.37975 0.0
H3360 H 0.08474 0.15954 0.45223 0.0
H3361 H 0.17389 0.14838 0.37591 0.0
H3362 H 0.07626 0.12823 0.39651 0.0
H3363 H 0.16462 0.2022 0.4101 0.0
H3364 H 0.14063 0.13675 0.38597 0.0
H3365 H 0.11763 0.17048 0.44059 0.0
C3366 C 0.08997 0.15463 0.43773 0.0
C3367 C 0.07781 0.14298 0.42529 0.0
C3368 C 0.14585 0.15119 0.39104 0.0
C3369 C 0.11519 0.15551 0.41194 0.0
C3370 C 0.16471 0.15787 0.38526 0.0
C3371 C 0.17191 0.17631 0.39212 0.0
C3372 C 0.13445 0.1628 0.4042 0.0
C3373 C 0.15953 0.18799 0.40433 0.0
C3374 C 0.10858 0.16108 0.43102 0.0
C3375 C 0.08521 0.13725 0.40652 0.0
N3376 N 0.14149 0.18089 0.41025 0.0
N3377 N 0.1035 0.14353 0.40041 0.0
H3378 H 0.05264 0.90645 0.62144 0.0
H3379 H 0.12347 0.8404 0.68712 0.0
H3380 H 0.10685 0.93049 0.64681 0.0
H3381 H 0.09121 0.8152 0.63727 0.0
H3382 H 0.11624 0.87388 0.67418 0.0
H3383 H 0.06502 0.87269 0.62839 0.0
C3384 C 0.06721 0.90464 0.6282 0.0
C3385 C 0.07865 0.9213 0.63365 0.0
C3386 C 0.11101 0.86095 0.66598 0.0
C3387 C 0.09263 0.88295 0.64198 0.0
C3388 C 0.11509 0.8419 0.67337 0.0
C3389 C 0.10788 0.82501 0.66332 0.0
C3390 C 0.09926 0.86307 0.64873 0.0
C3391 C 0.09709 0.8278 0.64552 0.0
C3392 C 0.07427 0.88541 0.63214 0.0
C3393 C 0.09748 0.91809 0.64237 0.0
N3394 N 0.09282 0.84648 0.63896 0.0
N3395 N 0.10373 0.8993 0.64658 0.0
H3396 H 0.31203 0.84782 0.92468 0.0
H3397 H 0.42677 0.85366 0.89762 0.0
H3398 H 0.33972 0.807 0.88322 0.0
H3399 H 0.40663 0.86444 0.95797 0.0
H3400 H 0.393 0.84395 0.88839 0.0
H3401 H 0.34508 0.8608 0.9335 0.0
C3402 C 0.32506 0.8417 0.91732 0.0
C3403 C 0.3232 0.82631 0.90318 0.0
C3404 C 0.39598 0.8486 0.9036 0.0
C3405 C 0.36078 0.8413 0.913 0.0
C3406 C 0.41521 0.85431 0.90891 0.0
C3407 C 0.41962 0.85976 0.92871 0.0
C3408 C 0.3809 0.84867 0.91803 0.0
C3409 C 0.40393 0.86026 0.9426 0.0
C3410 C 0.34384 0.84905 0.92245 0.0
C3411 C 0.34054 0.8188 0.89423 0.0
N3412 N 0.38518 0.85476 0.93698 0.0
N3413 N 0.35865 0.8265 0.89918 0.0
H3414 H 0.45454 0.08417 0.1595 0.0
H3415 H 0.3751 0.17146 0.14927 0.0
H3416 H 0.40059 0.07668 0.12507 0.0
H3417 H 0.41121 0.16347 0.20203 0.0
H3418 H 0.38659 0.13897 0.13695 0.0
H3419 H 0.44215 0.11657 0.17109 0.0
C3420 C 0.44031 0.08954 0.15402 0.0
C3421 C 0.42856 0.07774 0.14131 0.0
C3422 C 0.39179 0.14426 0.15132 0.0
C3423 C 0.41427 0.11456 0.15468 0.0
C3424 C 0.38517 0.1627 0.15841 0.0
C3425 C 0.39214 0.17009 0.17675 0.0
C3426 C 0.40584 0.13342 0.16242 0.0
C3427 C 0.4053 0.15823 0.18793 0.0
C3428 C 0.43314 0.10787 0.16087 0.0
C3429 C 0.41009 0.08531 0.1349 0.0
N3430 N 0.41197 0.14058 0.18044 0.0
N3431 N 0.4035 0.10327 0.14165 0.0
H3432 H 0.06839 0.84473 0.10581 0.0
H3433 H 0.18502 0.85748 0.08934 0.0
H3434 H 0.09285 0.87122 0.05236 0.0
H3435 H 0.16011 0.80668 0.1203 0.0
H3436 H 0.15131 0.86906 0.08188 0.0
H3437 H 0.10218 0.83724 0.1172 0.0
C3438 C 0.08087 0.84925 0.09658 0.0
C3439 C 0.07779 0.85855 0.07801 0.0
C3440 C 0.15328 0.8555 0.09046 0.0
C3441 C 0.11642 0.85009 0.09113 0.0
C3442 C 0.17248 0.8489 0.09487 0.0
C3443 C 0.1754 0.83097 0.10539 0.0
C3444 C 0.13686 0.84433 0.09693 0.0
C3445 C 0.15854 0.8205 0.11206 0.0
C3446 C 0.10011 0.84484 0.10307 0.0
C3447 C 0.09455 0.86395 0.06669 0.0
N3448 N 0.13993 0.82735 0.10771 0.0
N3449 N 0.1132 0.85965 0.07345 0.0
H3450 H 0.44877 0.91053 0.34036 0.0
H3451 H 0.3729 0.82038 0.34893 0.0
H3452 H 0.39213 0.91794 0.37017 0.0
H3453 H 0.40843 0.8305 0.29614 0.0
H3454 H 0.38299 0.85328 0.36154 0.0
H3455 H 0.43824 0.8772 0.32955 0.0
C3456 C 0.43433 0.90495 0.34504 0.0
C3457 C 0.42126 0.91695 0.35614 0.0
C3458 C 0.38839 0.84831 0.34713 0.0
C3459 C 0.40918 0.87913 0.34373 0.0
C3460 C 0.3826 0.82966 0.3399 0.0
C3461 C 0.38976 0.82285 0.32142 0.0
C3462 C 0.40185 0.85987 0.33605 0.0
C3463 C 0.4024 0.83532 0.31035 0.0
C3464 C 0.42825 0.8861 0.33864 0.0
C3465 C 0.4026 0.90912 0.36157 0.0
N3466 N 0.40829 0.85316 0.31797 0.0
N3467 N 0.39708 0.89064 0.35531 0.0
H3468 H 0.43716 0.1685 0.60308 0.0
H3469 H 0.32187 0.14042 0.59914 0.0
H3470 H 0.41285 0.12684 0.56026 0.0
H3471 H 0.3428 0.19835 0.61829 0.0
H3472 H 0.3562 0.13086 0.59165 0.0
H3473 H 0.40347 0.17506 0.61534 0.0
C3474 C 0.42477 0.16054 0.5964 0.0
C3475 C 0.4278 0.14716 0.58051 0.0
C3476 C 0.35325 0.14559 0.59764 0.0
C3477 C 0.38932 0.15456 0.59463 0.0
C3478 C 0.3337 0.15106 0.60205 0.0
C3479 C 0.32944 0.17032 0.60923 0.0
C3480 C 0.3687 0.15933 0.60072 0.0
C3481 C 0.3454 0.18343 0.61265 0.0
C3482 C 0.40557 0.16439 0.60337 0.0
C3483 C 0.41116 0.13735 0.57242 0.0
N3484 N 0.36438 0.1777 0.60833 0.0
N3485 N 0.39259 0.14124 0.5796 0.0
H3486 H 0.11414 0.1541 0.79599 0.0
H3487 H 0.04731 0.08376 0.86334 0.0
H3488 H 0.08953 0.1744 0.85204 0.0
H3489 H 0.09796 0.06061 0.83089 0.0
H3490 H 0.0586 0.11781 0.85557 0.0
H3491 H 0.1046 0.11978 0.80489 0.0
C3492 C 0.1069 0.15133 0.81018 0.0
C3493 C 0.10272 0.16709 0.82332 0.0
C3494 C 0.06722 0.1052 0.85026 0.0
C3495 C 0.09135 0.12823 0.83325 0.0
C3496 C 0.06078 0.08585 0.85464 0.0
C3497 C 0.07178 0.06939 0.84787 0.0
C3498 C 0.08445 0.10801 0.83863 0.0
C3499 C 0.08913 0.0729 0.83658 0.0
C3500 C 0.10147 0.13182 0.81523 0.0
C3501 C 0.0932 0.16269 0.84151 0.0
N3502 N 0.09483 0.09183 0.83214 0.0
N3503 N 0.08762 0.14371 0.84583 0.0
H3504 H 0.20474 0.40456 0.16127 0.0
H3505 H 0.12477 0.39484 0.07486 0.0
H3506 H 0.14951 0.37287 0.17108 0.0
H3507 H 0.15979 0.44823 0.08338 0.0
H3508 H 0.13633 0.38257 0.10741 0.0
H3509 H 0.19202 0.41584 0.12888 0.0
C3510 C 0.19014 0.3996 0.15641 0.0
C3511 C 0.17815 0.38776 0.16884 0.0
C3512 C 0.14126 0.39706 0.1022 0.0
C3513 C 0.16354 0.40073 0.13202 0.0
C3514 C 0.13462 0.4041 0.08374 0.0
C3515 C 0.14124 0.42263 0.07653 0.0
C3516 C 0.15504 0.40837 0.11317 0.0
C3517 C 0.15414 0.43398 0.08851 0.0
C3518 C 0.1828 0.40627 0.13809 0.0
C3519 C 0.15921 0.38202 0.16192 0.0
N3520 N 0.16088 0.42653 0.10613 0.0
N3521 N 0.15247 0.38852 0.14392 0.0
H3522 H 0.63286 0.04453 0.90331 0.0
H3523 H 0.70307 0.11029 0.8346 0.0
H3524 H 0.66235 0.09727 0.92583 0.0
H3525 H 0.64961 0.08279 0.81135 0.0
H3526 H 0.6921 0.10164 0.86855 0.0
H3527 H 0.6425 0.05437 0.86927 0.0
C3528 C 0.64125 0.05818 0.90109 0.0
C3529 C 0.64671 0.07015 0.91739 0.0
C3530 C 0.68279 0.09763 0.85595 0.0
C3531 C 0.65812 0.08113 0.8788 0.0
C3532 C 0.68904 0.10251 0.83664 0.0
C3533 C 0.67717 0.09737 0.82018 0.0
C3534 C 0.66486 0.08709 0.85868 0.0
C3535 C 0.65913 0.08722 0.82364 0.0
C3536 C 0.64671 0.06378 0.88173 0.0
C3537 C 0.65765 0.08768 0.91369 0.0
N3538 N 0.65361 0.08223 0.84249 0.0
N3539 N 0.66319 0.09253 0.89482 0.0
H3540 H 0.85221 0.89901 0.31971 0.0
H3541 H 0.82587 0.89467 0.43531 0.0
H3542 H 0.79489 0.87851 0.34095 0.0
H3543 H 0.86434 0.93989 0.41022 0.0
H3544 H 0.81901 0.8823 0.40165 0.0
H3545 H 0.86153 0.90735 0.35394 0.0
C3546 C 0.84167 0.89595 0.33159 0.0
C3547 C 0.82265 0.88815 0.32743 0.0
C3548 C 0.82902 0.89485 0.40357 0.0
C3549 C 0.83336 0.89764 0.36659 0.0
C3550 C 0.83304 0.90188 0.42274 0.0
C3551 C 0.84566 0.9184 0.42555 0.0
C3552 C 0.83799 0.90414 0.38713 0.0
C3553 C 0.85444 0.92721 0.40871 0.0
C3554 C 0.84699 0.90087 0.35108 0.0
C3555 C 0.80964 0.8846 0.34347 0.0
N3556 N 0.85049 0.9199 0.39018 0.0
N3557 N 0.81524 0.88939 0.36239 0.0
H3558 H 0.85108 0.08889 0.18401 0.0
H3559 H 0.83984 0.1022 0.06709 0.0
H3560 H 0.79922 0.1169 0.1579 0.0
H3561 H 0.86687 0.04956 0.09269 0.0
H3562 H 0.83081 0.11346 0.10055 0.0
H3563 H 0.8628 0.08019 0.15061 0.0
C3564 C 0.84227 0.09347 0.17124 0.0
C3565 C 0.82408 0.10364 0.17373 0.0
C3566 C 0.83883 0.09953 0.0988 0.0
C3567 C 0.83759 0.09379 0.13557 0.0
C3568 C 0.84415 0.09312 0.07976 0.0
C3569 C 0.85412 0.07484 0.0771 0.0
C3570 C 0.84386 0.08782 0.11534 0.0
C3571 C 0.85914 0.06368 0.09408 0.0
C3572 C 0.84894 0.08835 0.15224 0.0
C3573 C 0.81326 0.10901 0.15664 0.0
N3574 N 0.85401 0.0704 0.11256 0.0
N3575 N 0.82023 0.10408 0.13821 0.0
H3576 H 0.29892 0.58685 0.65918 0.0
H3577 H 0.37782 0.59764 0.57477 0.0
H3578 H 0.35667 0.61022 0.67562 0.0
H3579 H 0.34623 0.54212 0.58314 0.0
H3580 H 0.36806 0.60777 0.60873 0.0
H3581 H 0.31279 0.57638 0.62697 0.0
C3582 C 0.31441 0.59011 0.65585 0.0
C3583 C 0.3267 0.59943 0.66999 0.0
C3584 C 0.36362 0.59326 0.60314 0.0
C3585 C 0.34248 0.58757 0.63338 0.0
C3586 C 0.36921 0.58744 0.5839 0.0
C3587 C 0.36285 0.569 0.57621 0.0
C3588 C 0.35107 0.58082 0.61433 0.0
C3589 C 0.35157 0.55638 0.58855 0.0
C3590 C 0.32233 0.58393 0.63764 0.0
C3591 C 0.34675 0.60304 0.66506 0.0
N3592 N 0.34566 0.56272 0.60687 0.0
N3593 N 0.35405 0.59724 0.64701 0.0
H3594 H 0.19391 0.61593 0.33715 0.0
H3595 H 0.13027 0.54791 0.40902 0.0
H3596 H 0.1396 0.58742 0.31726 0.0
H3597 H 0.16053 0.6004 0.43105 0.0
H3598 H 0.13662 0.55924 0.37475 0.0
H3599 H 0.1849 0.60777 0.37174 0.0
C3600 C 0.18004 0.60814 0.34007 0.0
C3601 C 0.16749 0.60235 0.32434 0.0
C3602 C 0.14171 0.56829 0.38715 0.0
C3603 C 0.15742 0.59264 0.36356 0.0
C3604 C 0.13817 0.56182 0.40664 0.0
C3605 C 0.14486 0.57325 0.42284 0.0
C3606 C 0.15241 0.58604 0.38394 0.0
C3607 C 0.15502 0.59119 0.41896 0.0
C3608 C 0.17492 0.60352 0.35974 0.0
C3609 C 0.14968 0.59225 0.32893 0.0
N3610 N 0.1587 0.59693 0.39988 0.0
N3611 N 0.14531 0.58747 0.34811 0.0
H3612 H 0.36747 0.44985 0.90657 0.0
H3613 H 0.31018 0.37458 0.83701 0.0
H3614 H 0.35198 0.39044 0.92628 0.0
H3615 H 0.35191 0.4171 0.81246 0.0
H3616 H 0.32339 0.38161 0.87041 0.0
H3617 H 0.36037 0.43966 0.87209 0.0
C3618 C 0.36285 0.43463 0.90364 0.0
C3619 C 0.3602 0.42104 0.91936 0.0
C3620 C 0.32977 0.38922 0.85765 0.0
C3621 C 0.35169 0.40949 0.88017 0.0
C3622 C 0.32221 0.38527 0.83864 0.0
C3623 C 0.32994 0.39528 0.82198 0.0
C3624 C 0.34483 0.40363 0.86003 0.0
C3625 C 0.34556 0.40899 0.82492 0.0
C3626 C 0.35882 0.42884 0.884 0.0
C3627 C 0.3542 0.40147 0.91468 0.0
N3628 N 0.35231 0.41299 0.84363 0.0
N3629 N 0.34983 0.39639 0.89556 0.0
H3630 H 0.6596 0.70469 0.90814 0.0
H3631 H 0.572 0.62697 0.89571 0.0
H3632 H 0.66943 0.64977 0.87585 0.0
H3633 H 0.5813 0.65978 0.9504 0.0
H3634 H 0.60499 0.6379 0.88404 0.0
H3635 H 0.62698 0.69213 0.91874 0.0
C3636 C 0.65471 0.69018 0.90293 0.0
C3637 C 0.6672 0.67822 0.89113 0.0
C3638 C 0.59983 0.64246 0.89868 0.0
C3639 C 0.63012 0.66382 0.90329 0.0
C3640 C 0.58113 0.63619 0.90537 0.0
C3641 C 0.57402 0.64243 0.92407 0.0
C3642 C 0.61112 0.65549 0.91055 0.0
C3643 C 0.58633 0.65449 0.93598 0.0
C3644 C 0.63626 0.68294 0.9092 0.0
C3645 C 0.66023 0.65941 0.885 0.0
N3646 N 0.60418 0.66091 0.92887 0.0
N3647 N 0.64208 0.65277 0.89113 0.0
H3648 H 0.54473 0.41055 0.15403 0.0
H3649 H 0.62479 0.32475 0.14246 0.0
H3650 H 0.60041 0.42221 0.12379 0.0
H3651 H 0.59024 0.33246 0.19629 0.0
H3652 H 0.61335 0.35764 0.13093 0.0
H3653 H 0.55762 0.37791 0.16428 0.0
C3654 C 0.55948 0.40606 0.14916 0.0
C3655 C 0.57154 0.41908 0.13805 0.0
C3656 C 0.60851 0.35215 0.14535 0.0
C3657 C 0.58633 0.38195 0.14981 0.0
C3658 C 0.61508 0.3335 0.15197 0.0
C3659 C 0.60854 0.32596 0.17041 0.0
C3660 C 0.59487 0.36296 0.15699 0.0
C3661 C 0.59581 0.33781 0.18209 0.0
C3662 C 0.5669 0.38759 0.15524 0.0
C3663 C 0.59067 0.4126 0.13239 0.0
N3664 N 0.58913 0.3556 0.17504 0.0
N3665 N 0.59749 0.39442 0.1383 0.0
H3666 H 0.92118 0.37187 0.39175 0.0
H3667 H 0.83325 0.29504 0.40704 0.0
H3668 H 0.9126 0.34022 0.44722 0.0
H3669 H 0.8223 0.35035 0.37587 0.0
H3670 H 0.86644 0.3073 0.41626 0.0
H3671 H 0.88784 0.36096 0.3809 0.0
C3672 C 0.91216 0.36289 0.40174 0.0
C3673 C 0.91956 0.35702 0.42045 0.0
C3674 C 0.85679 0.31662 0.40724 0.0
C3675 C 0.88209 0.34397 0.40785 0.0
C3676 C 0.838 0.30957 0.40177 0.0
C3677 C 0.82505 0.32173 0.39071 0.0
C3678 C 0.86279 0.33577 0.40124 0.0
C3679 C 0.83186 0.34056 0.38447 0.0
C3680 C 0.89327 0.35664 0.39551 0.0
C3681 C 0.90738 0.34526 0.43278 0.0
N3682 N 0.85034 0.34703 0.38979 0.0
N3683 N 0.88935 0.33884 0.42613 0.0
H3684 H 0.88338 0.66189 0.69442 0.0
H3685 H 0.95179 0.59088 0.6296 0.0
H3686 H 0.92091 0.68529 0.64755 0.0
H3687 H 0.89453 0.57177 0.6522 0.0
H3688 H 0.94325 0.62537 0.63862 0.0
H3689 H 0.88994 0.62804 0.6821 0.0
C3690 C 0.89296 0.6599 0.68154 0.0
C3691 C 0.90158 0.67639 0.67197 0.0
C3692 C 0.93253 0.61359 0.64138 0.0
C3693 C 0.90933 0.63786 0.65803 0.0
C3694 C 0.93738 0.59395 0.63626 0.0
C3695 C 0.92386 0.57843 0.64016 0.0
C3696 C 0.91426 0.61759 0.65087 0.0
C3697 C 0.90539 0.58326 0.64885 0.0
C3698 C 0.89661 0.64064 0.67447 0.0
C3699 C 0.91386 0.67299 0.6553 0.0
N3700 N 0.90124 0.60236 0.65416 0.0
N3701 N 0.91755 0.65407 0.64897 0.0
H3702 H 0.56196 0.32261 0.60425 0.0
H3703 H 0.67659 0.35344 0.60162 0.0
H3704 H 0.58568 0.36592 0.56283 0.0
H3705 H 0.65741 0.2943 0.61879 0.0
H3706 H 0.64203 0.36214 0.59428 0.0
H3707 H 0.59585 0.31596 0.61615 0.0
C3708 C 0.57427 0.33086 0.59778 0.0
C3709 C 0.57103 0.3448 0.58245 0.0
C3710 C 0.64541 0.34733 0.59981 0.0
C3711 C 0.60966 0.33738 0.59618 0.0
C3712 C 0.6651 0.34234 0.60414 0.0
C3713 C 0.66996 0.32301 0.61069 0.0
C3714 C 0.63038 0.33302 0.60231 0.0
C3715 C 0.65437 0.30931 0.61365 0.0
C3716 C 0.59356 0.32697 0.60454 0.0
C3717 C 0.58753 0.35497 0.57457 0.0
N3718 N 0.63523 0.31458 0.60939 0.0
N3719 N 0.60617 0.3511 0.58158 0.0
H3720 H 0.90856 0.31692 0.85545 0.0
H3721 H 0.89046 0.43319 0.84545 0.0
H3722 H 0.87737 0.34203 0.80493 0.0
H3723 H 0.94624 0.40986 0.86782 0.0
H3724 H 0.87985 0.39928 0.8374 0.0
H3725 H 0.91683 0.35064 0.86673 0.0
C3726 C 0.9032 0.32953 0.84686 0.0
C3727 C 0.89225 0.3267 0.82918 0.0
C3728 C 0.89432 0.40162 0.84423 0.0
C3729 C 0.90154 0.36516 0.84219 0.0
C3730 C 0.90037 0.42092 0.84899 0.0
C3731 C 0.91934 0.42437 0.85729 0.0
C3732 C 0.90711 0.3856 0.84817 0.0
C3733 C 0.93155 0.40787 0.86139 0.0
C3734 C 0.90806 0.34871 0.85327 0.0
C3735 C 0.88588 0.34358 0.81859 0.0
N3736 N 0.92519 0.38912 0.85683 0.0
N3737 N 0.89054 0.36216 0.82533 0.0
H3738 H 0.83357 0.70059 0.08614 0.0
H3739 H 0.92245 0.62333 0.0919 0.0
H3740 H 0.82554 0.64349 0.11489 0.0
H3741 H 0.91291 0.66049 0.04016 0.0
H3742 H 0.88938 0.63292 0.10441 0.0
H3743 H 0.86611 0.68933 0.07382 0.0
C3744 C 0.83883 0.68584 0.0902 0.0
C3745 C 0.82689 0.67294 0.10157 0.0
C3746 C 0.89448 0.63875 0.09021 0.0
C3747 C 0.86389 0.66003 0.08744 0.0
C3748 C 0.91324 0.63324 0.08303 0.0
C3749 C 0.92031 0.64106 0.06492 0.0
C3750 C 0.88303 0.65259 0.07947 0.0
C3751 C 0.9079 0.65396 0.05407 0.0
C3752 C 0.85724 0.67936 0.08294 0.0
C3753 C 0.83431 0.65388 0.10615 0.0
N3754 N 0.88996 0.6596 0.06168 0.0
N3755 N 0.85241 0.64799 0.09912 0.0
H3756 H 0.61956 0.67264 0.35051 0.0
H3757 H 0.54387 0.58334 0.33733 0.0
H3758 H 0.58712 0.66296 0.29566 0.0
H3759 H 0.59941 0.57417 0.36872 0.0
H3760 H 0.55553 0.61648 0.32727 0.0
H3761 H 0.60921 0.63937 0.36197 0.0
C3762 C 0.61051 0.6634 0.34079 0.0
C3763 C 0.60425 0.67046 0.32207 0.0
C3764 C 0.56505 0.60722 0.3365 0.0
C3765 C 0.59187 0.63303 0.33535 0.0
C3766 C 0.55834 0.58846 0.34245 0.0
C3767 C 0.57073 0.57603 0.35384 0.0
C3768 C 0.58407 0.61371 0.34234 0.0
C3769 C 0.58945 0.58331 0.35987 0.0
C3770 C 0.60458 0.64454 0.34736 0.0
C3771 C 0.59243 0.658 0.3101 0.0
N3772 N 0.59557 0.60176 0.35408 0.0
N3773 N 0.58635 0.63998 0.31707 0.0
H3774 H 0.66294 0.8865 0.56119 0.0
H3775 H 0.63227 0.88718 0.67613 0.0
H3776 H 0.61968 0.92711 0.58637 0.0
H3777 H 0.69136 0.87078 0.65613 0.0
H3778 H 0.62254 0.89292 0.64155 0.0
H3779 H 0.66841 0.87233 0.59444 0.0
C3780 C 0.65435 0.89223 0.57364 0.0
C3781 C 0.64095 0.90816 0.57107 0.0
C3782 C 0.63754 0.8878 0.64475 0.0
C3783 C 0.64703 0.89185 0.60894 0.0
C3784 C 0.64314 0.88441 0.66447 0.0
C3785 C 0.66282 0.87881 0.6691 0.0
C3786 C 0.6516 0.88533 0.62949 0.0
C3787 C 0.67612 0.87532 0.65328 0.0
C3788 C 0.65757 0.88417 0.59258 0.0
C3789 C 0.63028 0.915 0.58773 0.0
N3790 N 0.67031 0.87881 0.63413 0.0
N3791 N 0.63358 0.90682 0.60599 0.0
loop_
_geom_bond_atom_site_label_1
_geom_bond_atom_site_label_2
_geom_bond_distance
_geom_bond_site_symmetry_2
_ccdc_geom_bond_type
Co0 O3 1.970 . S
Co0 N17 1.989 . S
Co0 O25 1.967 . S
Co0 O32 1.920 . S
Co1 O4 1.966 . S
Co1 N10 2.022 1_455 S
Co1 N18 1.989 1_455 S
Co1 O26 1.941 . S
C2 O3 1.258 . S
C2 O4 1.263 . S
O3 Co0 1.970 . S
O3 C2 1.258 . S
O4 Co1 1.966 . S
O4 C2 1.263 . S
C5 O6 1.235 . S
C5 O32 1.289 . S
O6 C5 1.235 . S
C7 C9 1.400 . S
C7 N10 1.351 . S
C7 C12 1.501 . S
C8 C9 1.387 . S
C8 N11 1.341 . S
C9 C7 1.400 . S
C9 C8 1.387 . S
N10 Co1 2.022 1_655 S
N10 C7 1.351 . S
N10 N11 1.365 . S
N11 C8 1.341 . S
N11 N10 1.365 . S
N11 H31 0.862 1_655 S
C12 C7 1.501 . S
C12 H13 0.961 . S
C12 H14 0.961 . S
C12 H15 0.960 . S
H13 C12 0.961 . S
H14 C12 0.961 . S
H15 C12 0.960 . S
C16 N17 1.342 . S
C16 C20 1.401 1_455 S
C16 C21 1.499 . S
N17 Co0 1.989 . S
N17 C16 1.342 . S
N17 N18 1.383 1_455 S
N18 Co1 1.989 1_655 S
N18 N17 1.383 1_655 S
N18 C19 1.352 . S
C19 N18 1.352 . S
C19 C20 1.396 . S
C19 C29 1.510 . S
C20 C16 1.401 1_655 S
C20 C19 1.396 . S
C21 C16 1.499 . S
C21 H22 0.959 . S
C21 H23 0.989 . S
C21 H24 0.961 . S
H22 C21 0.959 . S
H23 C21 0.989 . S
H24 C21 0.961 . S
O25 Co0 1.967 . S
O25 C33 1.258 . S
O26 Co1 1.941 . S
O26 C33 1.266 . S
H27 C29 0.959 . S
H28 C29 0.961 . S
C29 C19 1.510 . S
C29 H27 0.959 . S
C29 H28 0.961 . S
C29 H30 0.960 . S
H30 C29 0.960 . S
H31 N11 0.862 1_455 S
O32 Co0 1.920 . S
O32 C5 1.289 . S
C33 O25 1.258 . S
C33 O26 1.266 . S
Co34 O37 1.970 . S
Co34 N51 1.989 . S
Co34 O59 1.967 . S
Co34 O66 1.920 . S
Co35 O38 1.966 . S
Co35 N44 2.022 . S
Co35 N52 1.993 . S
Co35 O60 1.941 . S
C36 O37 1.258 . S
C36 O38 1.263 . S
O37 Co34 1.970 . S
O37 C36 1.258 . S
O38 Co35 1.966 . S
O38 C36 1.263 . S
C39 O40 1.235 . S
C39 O66 1.289 . S
O40 C39 1.235 . S
C41 C43 1.400 . S
C41 N44 1.351 . S
C41 C46 1.501 . S
C42 C43 1.387 . S
C42 N45 1.341 . S
C43 C41 1.400 . S
C43 C42 1.387 . S
N44 Co35 2.022 . S
N44 C41 1.351 . S
N44 N45 1.365 . S
N45 C42 1.341 . S
N45 N44 1.365 . S
N45 H65 0.862 . S
C46 C41 1.501 . S
C46 H47 0.961 . S
C46 H48 0.961 . S
C46 H49 0.960 . S
H47 C46 0.961 . S
H48 C46 0.961 . S
H49 C46 0.960 . S
C50 N51 1.342 . S
C50 C54 1.401 . S
C50 C55 1.499 . S
N51 Co34 1.989 . S
N51 C50 1.342 . S
N51 N52 1.388 . S
N52 Co35 1.993 . S
N52 N51 1.388 . S
N52 C53 1.346 . S
C53 N52 1.346 . S
C53 C54 1.396 . S
C53 C63 1.510 . S
C54 C50 1.401 . S
C54 C53 1.396 . S
C55 C50 1.499 . S
C55 H56 0.959 . S
C55 H57 0.960 . S
C55 H58 0.961 . S
H56 C55 0.959 . S
H57 C55 0.960 . S
H58 C55 0.961 . S
O59 Co34 1.967 . S
O59 C67 1.258 . S
O60 Co35 1.941 . S
O60 C67 1.266 . S
H61 C63 0.959 . S
H62 C63 0.961 . S
C63 C53 1.510 . S
C63 H61 0.959 . S
C63 H62 0.961 . S
C63 H64 0.960 . S
H64 C63 0.960 . S
H65 N45 0.862 . S
O66 Co34 1.920 . S
O66 C39 1.289 . S
C67 O59 1.258 . S
C67 O60 1.266 . S
Co68 O71 1.970 . S
Co68 N85 1.989 . S
Co68 O93 1.967 . S
Co68 O100 1.920 . S
Co69 O72 1.966 . S
Co69 N78 2.022 . S
Co69 N86 1.993 . S
Co69 O94 1.941 . S
C70 O71 1.258 . S
C70 O72 1.263 . S
O71 Co68 1.970 . S
O71 C70 1.258 . S
O72 Co69 1.966 . S
O72 C70 1.263 . S
C73 O74 1.235 . S
C73 O100 1.289 . S
O74 C73 1.235 . S
C75 C77 1.400 . S
C75 N78 1.351 . S
C75 C80 1.501 . S
C76 C77 1.387 . S
C76 N79 1.341 . S
C77 C75 1.400 . S
C77 C76 1.387 . S
N78 Co69 2.022 . S
N78 C75 1.351 . S
N78 N79 1.365 . S
N79 C76 1.341 . S
N79 N78 1.365 . S
N79 H99 0.862 . S
C80 C75 1.501 . S
C80 H81 0.961 . S
C80 H82 0.961 . S
C80 H83 0.960 . S
H81 C80 0.961 . S
H82 C80 0.961 . S
H83 C80 0.960 . S
C84 N85 1.342 . S
C84 C88 1.401 . S
C84 C89 1.499 . S
N85 Co68 1.989 . S
N85 C84 1.342 . S
N85 N86 1.388 . S
N86 Co69 1.993 . S
N86 N85 1.388 . S
N86 C87 1.346 . S
C87 N86 1.346 . S
C87 C88 1.396 . S
C87 C97 1.510 . S
C88 C84 1.401 . S
C88 C87 1.396 . S
C89 C84 1.499 . S
C89 H90 0.959 . S
C89 H91 0.960 . S
C89 H92 0.961 . S
H90 C89 0.959 . S
H91 C89 0.960 . S
H92 C89 0.961 . S
O93 Co68 1.967 . S
O93 C101 1.258 . S
O94 Co69 1.941 . S
O94 C101 1.266 . S
H95 C97 0.959 . S
H96 C97 0.961 . S
C97 C87 1.510 . S
C97 H95 0.959 . S
C97 H96 0.961 . S
C97 H98 0.960 . S
H98 C97 0.960 . S
H99 N79 0.862 . S
O100 Co68 1.920 . S
O100 C73 1.289 . S
C101 O93 1.258 . S
C101 O94 1.266 . S
Co102 O105 1.970 . S
Co102 N119 1.989 . S
Co102 O127 1.967 . S
Co102 O134 1.920 . S
Co103 O106 1.966 . S
Co103 N112 2.022 . S
Co103 N120 1.993 . S
Co103 O128 1.941 . S
C104 O105 1.258 . S
C104 O106 1.263 . S
O105 Co102 1.970 . S
O105 C104 1.258 . S
O106 Co103 1.966 . S
O106 C104 1.263 . S
C107 O108 1.235 . S
C107 O134 1.289 . S
O108 C107 1.235 . S
C109 C111 1.400 . S
C109 N112 1.351 . S
C109 C114 1.501 . S
C110 C111 1.387 . S
C110 N113 1.341 . S
C111 C109 1.400 . S
C111 C110 1.387 . S
N112 Co103 2.022 . S
N112 C109 1.351 . S
N112 N113 1.365 . S
N113 C110 1.341 . S
N113 N112 1.365 . S
N113 H133 0.862 . S
C114 C109 1.501 . S
C114 H115 0.961 . S
C114 H116 0.961 . S
C114 H117 0.960 . S
H115 C114 0.961 . S
H116 C114 0.961 . S
H117 C114 0.960 . S
C118 N119 1.342 . S
C118 C122 1.401 . S
C118 C123 1.499 . S
N119 Co102 1.989 . S
N119 C118 1.342 . S
N119 N120 1.388 . S
N120 Co103 1.993 . S
N120 N119 1.388 . S
N120 C121 1.346 . S
C121 N120 1.346 . S
C121 C122 1.396 . S
C121 C131 1.510 . S
C122 C118 1.401 . S
C122 C121 1.396 . S
C123 C118 1.499 . S
C123 H124 0.959 . S
C123 H125 0.960 . S
C123 H126 0.961 . S
H124 C123 0.959 . S
H125 C123 0.960 . S
H126 C123 0.961 . S
O127 Co102 1.967 . S
O127 C135 1.258 . S
O128 Co103 1.941 . S
O128 C135 1.266 . S
H129 C131 0.959 . S
H130 C131 0.961 . S
C131 C121 1.510 . S
C131 H129 0.959 . S
C131 H130 0.961 . S
C131 H132 0.960 . S
H132 C131 0.960 . S
H133 N113 0.862 . S
O134 Co102 1.920 . S
O134 C107 1.289 . S
C135 O127 1.258 . S
C135 O128 1.266 . S
Co136 O139 1.970 . S
Co136 N153 1.989 . S
Co136 O161 1.967 . S
Co136 O168 1.920 . S
Co137 O140 1.966 . S
Co137 N146 2.022 1_455 S
Co137 N154 1.989 1_455 S
Co137 O162 1.941 . S
C138 O139 1.258 . S
C138 O140 1.263 . S
O139 Co136 1.970 . S
O139 C138 1.258 . S
O140 Co137 1.966 . S
O140 C138 1.263 . S
C141 O142 1.235 . S
C141 O168 1.289 . S
O142 C141 1.235 . S
C143 C145 1.400 . S
C143 N146 1.351 . S
C143 C148 1.501 . S
C144 C145 1.387 . S
C144 N147 1.341 . S
C145 C143 1.400 . S
C145 C144 1.387 . S
N146 Co137 2.022 1_655 S
N146 C143 1.351 . S
N146 N147 1.365 . S
N147 C144 1.341 . S
N147 N146 1.365 . S
N147 H167 0.862 1_655 S
C148 C143 1.501 . S
C148 H149 0.961 . S
C148 H150 0.961 . S
C148 H151 0.960 . S
H149 C148 0.961 . S
H150 C148 0.961 . S
H151 C148 0.960 . S
C152 N153 1.342 . S
C152 C156 1.401 1_455 S
C152 C157 1.499 . S
N153 Co136 1.989 . S
N153 C152 1.342 . S
N153 N154 1.383 1_455 S
N154 Co137 1.989 1_655 S
N154 N153 1.383 1_655 S
N154 C155 1.352 . S
C155 N154 1.352 . S
C155 C156 1.396 . S
C155 C165 1.510 . S
C156 C152 1.401 1_655 S
C156 C155 1.396 . S
C157 C152 1.499 . S
C157 H158 0.959 . S
C157 H159 0.989 . S
C157 H160 0.961 . S
H158 C157 0.959 . S
H159 C157 0.989 . S
H160 C157 0.961 . S
O161 Co136 1.967 . S
O161 C169 1.258 . S
O162 Co137 1.941 . S
O162 C169 1.266 . S
H163 C165 0.959 . S
H164 C165 0.961 . S
C165 C155 1.510 . S
C165 H163 0.959 . S
C165 H164 0.961 . S
C165 H166 0.960 . S
H166 C165 0.960 . S
H167 N147 0.862 1_455 S
O168 Co136 1.920 . S
O168 C141 1.289 . S
C169 O161 1.258 . S
C169 O162 1.266 . S
Co170 O173 1.970 . S
Co170 N187 1.989 . S
Co170 O195 1.967 . S
Co170 O202 1.920 . S
Co171 O174 1.966 . S
Co171 N180 2.022 . S
Co171 N188 1.993 . S
Co171 O196 1.941 . S
C172 O173 1.258 . S
C172 O174 1.263 . S
O173 Co170 1.970 . S
O173 C172 1.258 . S
O174 Co171 1.966 . S
O174 C172 1.263 . S
C175 O176 1.235 . S
C175 O202 1.289 . S
O176 C175 1.235 . S
C177 C179 1.400 . S
C177 N180 1.351 . S
C177 C182 1.501 . S
C178 C179 1.387 . S
C178 N181 1.341 . S
C179 C177 1.400 . S
C179 C178 1.387 . S
N180 Co171 2.022 . S
N180 C177 1.351 . S
N180 N181 1.365 . S
N181 C178 1.341 . S
N181 N180 1.365 . S
N181 H201 0.862 . S
C182 C177 1.501 . S
C182 H183 0.961 . S
C182 H184 0.961 . S
C182 H185 0.960 . S
H183 C182 0.961 . S
H184 C182 0.961 . S
H185 C182 0.960 . S
C186 N187 1.342 . S
C186 C190 1.401 . S
C186 C191 1.499 . S
N187 Co170 1.989 . S
N187 C186 1.342 . S
N187 N188 1.388 . S
N188 Co171 1.993 . S
N188 N187 1.388 . S
N188 C189 1.346 . S
C189 N188 1.346 . S
C189 C190 1.396 . S
C189 C199 1.510 . S
C190 C186 1.401 . S
C190 C189 1.396 . S
C191 C186 1.499 . S
C191 H192 0.959 . S
C191 H193 0.960 . S
C191 H194 0.961 . S
H192 C191 0.959 . S
H193 C191 0.960 . S
H194 C191 0.961 . S
O195 Co170 1.967 . S
O195 C203 1.258 . S
O196 Co171 1.941 . S
O196 C203 1.266 . S
H197 C199 0.959 . S
H198 C199 0.961 . S
C199 C189 1.510 . S
C199 H197 0.959 . S
C199 H198 0.961 . S
C199 H200 0.960 . S
H200 C199 0.960 . S
H201 N181 0.862 . S
O202 Co170 1.920 . S
O202 C175 1.289 . S
C203 O195 1.258 . S
C203 O196 1.266 . S
Co204 O207 1.970 . S
Co204 N221 1.989 . S
Co204 O229 1.967 . S
Co204 O236 1.920 . S
Co205 O208 1.966 . S
Co205 N214 2.022 . S
Co205 N222 1.993 . S
Co205 O230 1.941 . S
C206 O207 1.258 . S
C206 O208 1.263 . S
O207 Co204 1.970 . S
O207 C206 1.258 . S
O208 Co205 1.966 . S
O208 C206 1.263 . S
C209 O210 1.235 . S
C209 O236 1.289 . S
O210 C209 1.235 . S
C211 C213 1.400 . S
C211 N214 1.351 . S
C211 C216 1.501 . S
C212 C213 1.387 . S
C212 N215 1.341 . S
C213 C211 1.400 . S
C213 C212 1.387 . S
N214 Co205 2.022 . S
N214 C211 1.351 . S
N214 N215 1.365 . S
N215 C212 1.341 . S
N215 N214 1.365 . S
N215 H235 0.862 . S
C216 C211 1.501 . S
C216 H217 0.961 . S
C216 H218 0.961 . S
C216 H219 0.960 . S
H217 C216 0.961 . S
H218 C216 0.961 . S
H219 C216 0.960 . S
C220 N221 1.342 . S
C220 C224 1.401 . S
C220 C225 1.499 . S
N221 Co204 1.989 . S
N221 C220 1.342 . S
N221 N222 1.388 . S
N222 Co205 1.993 . S
N222 N221 1.388 . S
N222 C223 1.346 . S
C223 N222 1.346 . S
C223 C224 1.396 . S
C223 C233 1.510 . S
C224 C220 1.401 . S
C224 C223 1.396 . S
C225 C220 1.499 . S
C225 H226 0.959 . S
C225 H227 0.960 . S
C225 H228 0.961 . S
H226 C225 0.959 . S
H227 C225 0.960 . S
H228 C225 0.961 . S
O229 Co204 1.967 . S
O229 C237 1.258 . S
O230 Co205 1.941 . S
O230 C237 1.266 . S
H231 C233 0.959 . S
H232 C233 0.961 . S
C233 C223 1.510 . S
C233 H231 0.959 . S
C233 H232 0.961 . S
C233 H234 0.960 . S
H234 C233 0.960 . S
H235 N215 0.862 . S
O236 Co204 1.920 . S
O236 C209 1.289 . S
C237 O229 1.258 . S
C237 O230 1.266 . S
Co238 O241 1.970 . S
Co238 N255 1.989 . S
Co238 O263 1.967 . S
Co238 O270 1.920 . S
Co239 O242 1.966 . S
Co239 N248 2.022 . S
Co239 N256 1.993 . S
Co239 O264 1.941 . S
C240 O241 1.258 . S
C240 O242 1.263 . S
O241 Co238 1.970 . S
O241 C240 1.258 . S
O242 Co239 1.966 . S
O242 C240 1.263 . S
C243 O244 1.235 . S
C243 O270 1.289 . S
O244 C243 1.235 . S
C245 C247 1.400 . S
C245 N248 1.351 . S
C245 C250 1.501 . S
C246 C247 1.387 . S
C246 N249 1.341 . S
C247 C245 1.400 . S
C247 C246 1.387 . S
N248 Co239 2.022 . S
N248 C245 1.351 . S
N248 N249 1.365 . S
N249 C246 1.341 . S
N249 N248 1.365 . S
N249 H269 0.862 . S
C250 C245 1.501 . S
C250 H251 0.961 . S
C250 H252 0.961 . S
C250 H253 0.960 . S
H251 C250 0.961 . S
H252 C250 0.961 . S
H253 C250 0.960 . S
C254 N255 1.342 . S
C254 C258 1.401 . S
C254 C259 1.499 . S
N255 Co238 1.989 . S
N255 C254 1.342 . S
N255 N256 1.388 . S
N256 Co239 1.993 . S
N256 N255 1.388 . S
N256 C257 1.346 . S
C257 N256 1.346 . S
C257 C258 1.396 . S
C257 C267 1.510 . S
C258 C254 1.401 . S
C258 C257 1.396 . S
C259 C254 1.499 . S
C259 H260 0.959 . S
C259 H261 0.960 . S
C259 H262 0.961 . S
H260 C259 0.959 . S
H261 C259 0.960 . S
H262 C259 0.961 . S
O263 Co238 1.967 . S
O263 C271 1.258 . S
O264 Co239 1.941 . S
O264 C271 1.266 . S
H265 C267 0.959 . S
H266 C267 0.961 . S
C267 C257 1.510 . S
C267 H265 0.959 . S
C267 H266 0.961 . S
C267 H268 0.960 . S
H268 C267 0.960 . S
H269 N249 0.862 . S
O270 Co238 1.920 . S
O270 C243 1.289 . S
C271 O263 1.258 . S
C271 O264 1.266 . S
Co272 O275 1.970 . S
Co272 N289 1.989 . S
Co272 O297 1.967 . S
Co272 O304 1.920 . S
Co273 O276 1.966 . S
Co273 N282 2.022 1_545 S
Co273 N290 1.989 1_545 S
Co273 O298 1.941 . S
C274 O275 1.258 . S
C274 O276 1.263 . S
O275 Co272 1.970 . S
O275 C274 1.258 . S
O276 Co273 1.966 . S
O276 C274 1.263 . S
C277 O278 1.235 . S
C277 O304 1.289 . S
O278 C277 1.235 . S
C279 C281 1.400 . S
C279 N282 1.351 . S
C279 C284 1.501 . S
C280 C281 1.387 . S
C280 N283 1.341 . S
C281 C279 1.400 . S
C281 C280 1.387 . S
N282 Co273 2.022 1_565 S
N282 C279 1.351 . S
N282 N283 1.365 . S
N283 C280 1.341 . S
N283 N282 1.365 . S
N283 H303 0.862 1_565 S
C284 C279 1.501 . S
C284 H285 0.961 . S
C284 H286 0.961 . S
C284 H287 0.960 . S
H285 C284 0.961 . S
H286 C284 0.961 . S
H287 C284 0.960 . S
C288 N289 1.342 . S
C288 C292 1.401 1_545 S
C288 C293 1.499 . S
N289 Co272 1.989 . S
N289 C288 1.342 . S
N289 N290 1.383 1_545 S
N290 Co273 1.989 1_565 S
N290 N289 1.383 1_565 S
N290 C291 1.352 . S
C291 N290 1.352 . S
C291 C292 1.396 . S
C291 C301 1.510 . S
C292 C288 1.401 1_565 S
C292 C291 1.396 . S
C293 C288 1.499 . S
C293 H294 0.959 . S
C293 H295 0.989 . S
C293 H296 0.961 . S
H294 C293 0.959 . S
H295 C293 0.989 . S
H296 C293 0.961 . S
O297 Co272 1.967 . S
O297 C305 1.258 . S
O298 Co273 1.941 . S
O298 C305 1.266 . S
H299 C301 0.959 . S
H300 C301 0.961 . S
C301 C291 1.510 . S
C301 H299 0.959 . S
C301 H300 0.961 . S
C301 H302 0.960 . S
H302 C301 0.960 . S
H303 N283 0.862 1_545 S
O304 Co272 1.920 . S
O304 C277 1.289 . S
C305 O297 1.258 . S
C305 O298 1.266 . S
Co306 O309 1.970 . S
Co306 N323 1.989 . S
Co306 O331 1.967 . S
Co306 O338 1.920 . S
Co307 O310 1.966 . S
Co307 N316 2.022 . S
Co307 N324 1.993 . S
Co307 O332 1.941 . S
C308 O309 1.258 . S
C308 O310 1.263 . S
O309 Co306 1.970 . S
O309 C308 1.258 . S
O310 Co307 1.966 . S
O310 C308 1.263 . S
C311 O312 1.235 . S
C311 O338 1.289 . S
O312 C311 1.235 . S
C313 C315 1.400 . S
C313 N316 1.351 . S
C313 C318 1.501 . S
C314 C315 1.387 . S
C314 N317 1.341 . S
C315 C313 1.400 . S
C315 C314 1.387 . S
N316 Co307 2.022 . S
N316 C313 1.351 . S
N316 N317 1.365 . S
N317 C314 1.341 . S
N317 N316 1.365 . S
N317 H337 0.862 . S
C318 C313 1.501 . S
C318 H319 0.961 . S
C318 H320 0.961 . S
C318 H321 0.960 . S
H319 C318 0.961 . S
H320 C318 0.961 . S
H321 C318 0.960 . S
C322 N323 1.342 . S
C322 C326 1.401 . S
C322 C327 1.499 . S
N323 Co306 1.989 . S
N323 C322 1.342 . S
N323 N324 1.388 . S
N324 Co307 1.993 . S
N324 N323 1.388 . S
N324 C325 1.346 . S
C325 N324 1.346 . S
C325 C326 1.396 . S
C325 C335 1.510 . S
C326 C322 1.401 . S
C326 C325 1.396 . S
C327 C322 1.499 . S
C327 H328 0.959 . S
C327 H329 0.960 . S
C327 H330 0.961 . S
H328 C327 0.959 . S
H329 C327 0.960 . S
H330 C327 0.961 . S
O331 Co306 1.967 . S
O331 C339 1.258 . S
O332 Co307 1.941 . S
O332 C339 1.266 . S
H333 C335 0.959 . S
H334 C335 0.961 . S
C335 C325 1.510 . S
C335 H333 0.959 . S
C335 H334 0.961 . S
C335 H336 0.960 . S
H336 C335 0.960 . S
H337 N317 0.862 . S
O338 Co306 1.920 . S
O338 C311 1.289 . S
C339 O331 1.258 . S
C339 O332 1.266 . S
Co340 O343 1.970 . S
Co340 N357 1.989 . S
Co340 O365 1.967 . S
Co340 O372 1.920 . S
Co341 O344 1.966 . S
Co341 N350 2.022 1_565 S
Co341 N358 1.989 1_565 S
Co341 O366 1.941 . S
C342 O343 1.258 . S
C342 O344 1.263 . S
O343 Co340 1.970 . S
O343 C342 1.258 . S
O344 Co341 1.966 . S
O344 C342 1.263 . S
C345 O346 1.235 . S
C345 O372 1.289 . S
O346 C345 1.235 . S
C347 C349 1.400 . S
C347 N350 1.351 . S
C347 C352 1.501 . S
C348 C349 1.387 . S
C348 N351 1.341 . S
C349 C347 1.400 . S
C349 C348 1.387 . S
N350 Co341 2.022 1_545 S
N350 C347 1.351 . S
N350 N351 1.365 . S
N351 C348 1.341 . S
N351 N350 1.365 . S
N351 H371 0.862 1_545 S
C352 C347 1.501 . S
C352 H353 0.961 . S
C352 H354 0.961 . S
C352 H355 0.960 . S
H353 C352 0.961 . S
H354 C352 0.961 . S
H355 C352 0.960 . S
C356 N357 1.342 . S
C356 C360 1.401 1_565 S
C356 C361 1.499 . S
N357 Co340 1.989 . S
N357 C356 1.342 . S
N357 N358 1.383 1_565 S
N358 Co341 1.989 1_545 S
N358 N357 1.383 1_545 S
N358 C359 1.352 . S
C359 N358 1.352 . S
C359 C360 1.396 . S
C359 C369 1.510 . S
C360 C356 1.401 1_545 S
C360 C359 1.396 . S
C361 C356 1.499 . S
C361 H362 0.959 . S
C361 H363 0.989 . S
C361 H364 0.961 . S
H362 C361 0.959 . S
H363 C361 0.989 . S
H364 C361 0.961 . S
O365 Co340 1.967 . S
O365 C373 1.258 . S
O366 Co341 1.941 . S
O366 C373 1.266 . S
H367 C369 0.959 . S
H368 C369 0.961 . S
C369 C359 1.510 . S
C369 H367 0.959 . S
C369 H368 0.961 . S
C369 H370 0.960 . S
H370 C369 0.960 . S
H371 N351 0.862 1_565 S
O372 Co340 1.920 . S
O372 C345 1.289 . S
C373 O365 1.258 . S
C373 O366 1.266 . S
Co374 O377 1.970 . S
Co374 N391 1.989 . S
Co374 O399 1.967 . S
Co374 O406 1.920 . S
Co375 O378 1.966 . S
Co375 N384 2.022 . S
Co375 N392 1.993 . S
Co375 O400 1.941 . S
C376 O377 1.258 . S
C376 O378 1.263 . S
O377 Co374 1.970 . S
O377 C376 1.258 . S
O378 Co375 1.966 . S
O378 C376 1.263 . S
C379 O380 1.235 . S
C379 O406 1.289 . S
O380 C379 1.235 . S
C381 C383 1.400 . S
C381 N384 1.351 . S
C381 C386 1.501 . S
C382 C383 1.387 . S
C382 N385 1.341 . S
C383 C381 1.400 . S
C383 C382 1.387 . S
N384 Co375 2.022 . S
N384 C381 1.351 . S
N384 N385 1.365 . S
N385 C382 1.341 . S
N385 N384 1.365 . S
N385 H405 0.862 . S
C386 C381 1.501 . S
C386 H387 0.961 . S
C386 H388 0.961 . S
C386 H389 0.960 . S
H387 C386 0.961 . S
H388 C386 0.961 . S
H389 C386 0.960 . S
C390 N391 1.342 . S
C390 C394 1.401 . S
C390 C395 1.499 . S
N391 Co374 1.989 . S
N391 C390 1.342 . S
N391 N392 1.388 . S
N392 Co375 1.993 . S
N392 N391 1.388 . S
N392 C393 1.346 . S
C393 N392 1.346 . S
C393 C394 1.396 . S
C393 C403 1.510 . S
C394 C390 1.401 . S
C394 C393 1.396 . S
C395 C390 1.499 . S
C395 H396 0.959 . S
C395 H397 0.960 . S
C395 H398 0.961 . S
H396 C395 0.959 . S
H397 C395 0.960 . S
H398 C395 0.961 . S
O399 Co374 1.967 . S
O399 C407 1.258 . S
O400 Co375 1.941 . S
O400 C407 1.266 . S
H401 C403 0.959 . S
H402 C403 0.961 . S
C403 C393 1.510 . S
C403 H401 0.959 . S
C403 H402 0.961 . S
C403 H404 0.960 . S
H404 C403 0.960 . S
H405 N385 0.862 . S
O406 Co374 1.920 . S
O406 C379 1.289 . S
C407 O399 1.258 . S
C407 O400 1.266 . S
Co408 O411 1.970 . S
Co408 N425 1.989 . S
Co408 O433 1.967 . S
Co408 O440 1.920 . S
Co409 O412 1.966 . S
Co409 N418 2.022 1_565 S
Co409 N426 1.989 1_565 S
Co409 O434 1.941 . S
C410 O411 1.258 . S
C410 O412 1.263 . S
O411 Co408 1.970 . S
O411 C410 1.258 . S
O412 Co409 1.966 . S
O412 C410 1.263 . S
C413 O414 1.235 . S
C413 O440 1.289 . S
O414 C413 1.235 . S
C415 C417 1.400 . S
C415 N418 1.351 . S
C415 C420 1.501 . S
C416 C417 1.387 . S
C416 N419 1.341 . S
C417 C415 1.400 . S
C417 C416 1.387 . S
N418 Co409 2.022 1_545 S
N418 C415 1.351 . S
N418 N419 1.365 . S
N419 C416 1.341 . S
N419 N418 1.365 . S
N419 H439 0.862 1_545 S
C420 C415 1.501 . S
C420 H421 0.961 . S
C420 H422 0.961 . S
C420 H423 0.960 . S
H421 C420 0.961 . S
H422 C420 0.961 . S
H423 C420 0.960 . S
C424 N425 1.342 . S
C424 C428 1.401 1_565 S
C424 C429 1.499 . S
N425 Co408 1.989 . S
N425 C424 1.342 . S
N425 N426 1.383 1_565 S
N426 Co409 1.989 1_545 S
N426 N425 1.383 1_545 S
N426 C427 1.352 . S
C427 N426 1.352 . S
C427 C428 1.396 . S
C427 C437 1.510 . S
C428 C424 1.401 1_545 S
C428 C427 1.396 . S
C429 C424 1.499 . S
C429 H430 0.959 . S
C429 H431 0.989 . S
C429 H432 0.961 . S
H430 C429 0.959 . S
H431 C429 0.989 . S
H432 C429 0.961 . S
O433 Co408 1.967 . S
O433 C441 1.258 . S
O434 Co409 1.941 . S
O434 C441 1.266 . S
H435 C437 0.959 . S
H436 C437 0.961 . S
C437 C427 1.510 . S
C437 H435 0.959 . S
C437 H436 0.961 . S
C437 H438 0.960 . S
H438 C437 0.960 . S
H439 N419 0.862 1_565 S
O440 Co408 1.920 . S
O440 C413 1.289 . S
C441 O433 1.258 . S
C441 O434 1.266 . S
Co442 O445 1.970 . S
Co442 N459 1.989 . S
Co442 O467 1.967 . S
Co442 O474 1.920 . S
Co443 O446 1.966 . S
Co443 N452 2.022 . S
Co443 N460 1.993 . S
Co443 O468 1.941 . S
C444 O445 1.258 . S
C444 O446 1.263 . S
O445 Co442 1.970 . S
O445 C444 1.258 . S
O446 Co443 1.966 . S
O446 C444 1.263 . S
C447 O448 1.235 . S
C447 O474 1.289 . S
O448 C447 1.235 . S
C449 C451 1.400 . S
C449 N452 1.351 . S
C449 C454 1.501 . S
C450 C451 1.387 . S
C450 N453 1.341 . S
C451 C449 1.400 . S
C451 C450 1.387 . S
N452 Co443 2.022 . S
N452 C449 1.351 . S
N452 N453 1.365 . S
N453 C450 1.341 . S
N453 N452 1.365 . S
N453 H473 0.862 . S
C454 C449 1.501 . S
C454 H455 0.961 . S
C454 H456 0.961 . S
C454 H457 0.960 . S
H455 C454 0.961 . S
H456 C454 0.961 . S
H457 C454 0.960 . S
C458 N459 1.342 . S
C458 C462 1.401 . S
C458 C463 1.499 . S
N459 Co442 1.989 . S
N459 C458 1.342 . S
N459 N460 1.388 . S
N460 Co443 1.993 . S
N460 N459 1.388 . S
N460 C461 1.346 . S
C461 N460 1.346 . S
C461 C462 1.396 . S
C461 C471 1.510 . S
C462 C458 1.401 . S
C462 C461 1.396 . S
C463 C458 1.499 . S
C463 H464 0.959 . S
C463 H465 0.960 . S
C463 H466 0.961 . S
H464 C463 0.959 . S
H465 C463 0.960 . S
H466 C463 0.961 . S
O467 Co442 1.967 . S
O467 C475 1.258 . S
O468 Co443 1.941 . S
O468 C475 1.266 . S
H469 C471 0.959 . S
H470 C471 0.961 . S
C471 C461 1.510 . S
C471 H469 0.959 . S
C471 H470 0.961 . S
C471 H472 0.960 . S
H472 C471 0.960 . S
H473 N453 0.862 . S
O474 Co442 1.920 . S
O474 C447 1.289 . S
C475 O467 1.258 . S
C475 O468 1.266 . S
Co476 O479 1.970 . S
Co476 N493 1.989 . S
Co476 O501 1.967 . S
Co476 O508 1.920 . S
Co477 O480 1.966 . S
Co477 N486 2.022 1_545 S
Co477 N494 1.989 1_545 S
Co477 O502 1.941 . S
C478 O479 1.258 . S
C478 O480 1.263 . S
O479 Co476 1.970 . S
O479 C478 1.258 . S
O480 Co477 1.966 . S
O480 C478 1.263 . S
C481 O482 1.235 . S
C481 O508 1.289 . S
O482 C481 1.235 . S
C483 C485 1.400 . S
C483 N486 1.351 . S
C483 C488 1.501 . S
C484 C485 1.387 . S
C484 N487 1.341 . S
C485 C483 1.400 . S
C485 C484 1.387 . S
N486 Co477 2.022 1_565 S
N486 C483 1.351 . S
N486 N487 1.365 . S
N487 C484 1.341 . S
N487 N486 1.365 . S
N487 H507 0.862 1_565 S
C488 C483 1.501 . S
C488 H489 0.961 . S
C488 H490 0.961 . S
C488 H491 0.960 . S
H489 C488 0.961 . S
H490 C488 0.961 . S
H491 C488 0.960 . S
C492 N493 1.342 . S
C492 C496 1.401 1_545 S
C492 C497 1.499 . S
N493 Co476 1.989 . S
N493 C492 1.342 . S
N493 N494 1.383 1_545 S
N494 Co477 1.989 1_565 S
N494 N493 1.383 1_565 S
N494 C495 1.352 . S
C495 N494 1.352 . S
C495 C496 1.396 . S
C495 C505 1.510 . S
C496 C492 1.401 1_565 S
C496 C495 1.396 . S
C497 C492 1.499 . S
C497 H498 0.959 . S
C497 H499 0.989 . S
C497 H500 0.961 . S
H498 C497 0.959 . S
H499 C497 0.989 . S
H500 C497 0.961 . S
O501 Co476 1.967 . S
O501 C509 1.258 . S
O502 Co477 1.941 . S
O502 C509 1.266 . S
H503 C505 0.959 . S
H504 C505 0.961 . S
C505 C495 1.510 . S
C505 H503 0.959 . S
C505 H504 0.961 . S
C505 H506 0.960 . S
H506 C505 0.960 . S
H507 N487 0.862 1_545 S
O508 Co476 1.920 . S
O508 C481 1.289 . S
C509 O501 1.258 . S
C509 O502 1.266 . S
Co510 O513 1.970 . S
Co510 N527 1.989 . S
Co510 O535 1.967 . S
Co510 O542 1.920 . S
Co511 O514 1.966 . S
Co511 N520 2.022 . S
Co511 N528 1.993 . S
Co511 O536 1.941 . S
C512 O513 1.258 . S
C512 O514 1.263 . S
O513 Co510 1.970 . S
O513 C512 1.258 . S
O514 Co511 1.966 . S
O514 C512 1.263 . S
C515 O516 1.235 . S
C515 O542 1.289 . S
O516 C515 1.235 . S
C517 C519 1.400 . S
C517 N520 1.351 . S
C517 C522 1.501 . S
C518 C519 1.387 . S
C518 N521 1.341 . S
C519 C517 1.400 . S
C519 C518 1.387 . S
N520 Co511 2.022 . S
N520 C517 1.351 . S
N520 N521 1.365 . S
N521 C518 1.341 . S
N521 N520 1.365 . S
N521 H541 0.862 . S
C522 C517 1.501 . S
C522 H523 0.961 . S
C522 H524 0.961 . S
C522 H525 0.960 . S
H523 C522 0.961 . S
H524 C522 0.961 . S
H525 C522 0.960 . S
C526 N527 1.342 . S
C526 C530 1.401 . S
C526 C531 1.499 . S
N527 Co510 1.989 . S
N527 C526 1.342 . S
N527 N528 1.388 . S
N528 Co511 1.993 . S
N528 N527 1.388 . S
N528 C529 1.346 . S
C529 N528 1.346 . S
C529 C530 1.396 . S
C529 C539 1.510 . S
C530 C526 1.401 . S
C530 C529 1.396 . S
C531 C526 1.499 . S
C531 H532 0.959 . S
C531 H533 0.960 . S
C531 H534 0.961 . S
H532 C531 0.959 . S
H533 C531 0.960 . S
H534 C531 0.961 . S
O535 Co510 1.967 . S
O535 C543 1.258 . S
O536 Co511 1.941 . S
O536 C543 1.266 . S
H537 C539 0.959 . S
H538 C539 0.961 . S
C539 C529 1.510 . S
C539 H537 0.959 . S
C539 H538 0.961 . S
C539 H540 0.960 . S
H540 C539 0.960 . S
H541 N521 0.862 . S
O542 Co510 1.920 . S
O542 C515 1.289 . S
C543 O535 1.258 . S
C543 O536 1.266 . S
Co544 O547 1.970 . S
Co544 N561 1.989 . S
Co544 O569 1.967 . S
Co544 O576 1.920 . S
Co545 O548 1.966 . S
Co545 N554 2.022 1_554 S
Co545 N562 1.989 1_554 S
Co545 O570 1.941 . S
C546 O547 1.258 . S
C546 O548 1.263 . S
O547 Co544 1.970 . S
O547 C546 1.258 . S
O548 Co545 1.966 . S
O548 C546 1.263 . S
C549 O550 1.235 . S
C549 O576 1.289 . S
O550 C549 1.235 . S
C551 C553 1.400 . S
C551 N554 1.351 . S
C551 C556 1.501 . S
C552 C553 1.387 . S
C552 N555 1.341 . S
C553 C551 1.400 . S
C553 C552 1.387 . S
N554 Co545 2.022 1_556 S
N554 C551 1.351 . S
N554 N555 1.365 . S
N555 C552 1.341 . S
N555 N554 1.365 . S
N555 H575 0.862 1_556 S
C556 C551 1.501 . S
C556 H557 0.961 . S
C556 H558 0.961 . S
C556 H559 0.960 . S
H557 C556 0.961 . S
H558 C556 0.961 . S
H559 C556 0.960 . S
C560 N561 1.342 . S
C560 C564 1.401 1_554 S
C560 C565 1.499 . S
N561 Co544 1.989 . S
N561 C560 1.342 . S
N561 N562 1.383 1_554 S
N562 Co545 1.989 1_556 S
N562 N561 1.383 1_556 S
N562 C563 1.352 . S
C563 N562 1.352 . S
C563 C564 1.396 . S
C563 C573 1.510 . S
C564 C560 1.401 1_556 S
C564 C563 1.396 . S
C565 C560 1.499 . S
C565 H566 0.959 . S
C565 H567 0.989 . S
C565 H568 0.961 . S
H566 C565 0.959 . S
H567 C565 0.989 . S
H568 C565 0.961 . S
O569 Co544 1.967 . S
O569 C577 1.258 . S
O570 Co545 1.941 . S
O570 C577 1.266 . S
H571 C573 0.959 . S
H572 C573 0.961 . S
C573 C563 1.510 . S
C573 H571 0.959 . S
C573 H572 0.961 . S
C573 H574 0.960 . S
H574 C573 0.960 . S
H575 N555 0.862 1_554 S
O576 Co544 1.920 . S
O576 C549 1.289 . S
C577 O569 1.258 . S
C577 O570 1.266 . S
Co578 O581 1.970 . S
Co578 N595 1.989 . S
Co578 O603 1.967 . S
Co578 O610 1.920 . S
Co579 O582 1.966 . S
Co579 N588 2.022 1_556 S
Co579 N596 1.989 1_556 S
Co579 O604 1.941 . S
C580 O581 1.258 . S
C580 O582 1.263 . S
O581 Co578 1.970 . S
O581 C580 1.258 . S
O582 Co579 1.966 . S
O582 C580 1.263 . S
C583 O584 1.235 . S
C583 O610 1.289 . S
O584 C583 1.235 . S
C585 C587 1.400 . S
C585 N588 1.351 . S
C585 C590 1.501 . S
C586 C587 1.387 . S
C586 N589 1.341 . S
C587 C585 1.400 . S
C587 C586 1.387 . S
N588 Co579 2.022 1_554 S
N588 C585 1.351 . S
N588 N589 1.365 . S
N589 C586 1.341 . S
N589 N588 1.365 . S
N589 H609 0.862 1_554 S
C590 C585 1.501 . S
C590 H591 0.961 . S
C590 H592 0.961 . S
C590 H593 0.960 . S
H591 C590 0.961 . S
H592 C590 0.961 . S
H593 C590 0.960 . S
C594 N595 1.342 . S
C594 C598 1.401 1_556 S
C594 C599 1.499 . S
N595 Co578 1.989 . S
N595 C594 1.342 . S
N595 N596 1.383 1_556 S
N596 Co579 1.989 1_554 S
N596 N595 1.383 1_554 S
N596 C597 1.352 . S
C597 N596 1.352 . S
C597 C598 1.396 . S
C597 C607 1.510 . S
C598 C594 1.401 1_554 S
C598 C597 1.396 . S
C599 C594 1.499 . S
C599 H600 0.959 . S
C599 H601 0.989 . S
C599 H602 0.961 . S
H600 C599 0.959 . S
H601 C599 0.989 . S
H602 C599 0.961 . S
O603 Co578 1.967 . S
O603 C611 1.258 . S
O604 Co579 1.941 . S
O604 C611 1.266 . S
H605 C607 0.959 . S
H606 C607 0.961 . S
C607 C597 1.510 . S
C607 H605 0.959 . S
C607 H606 0.961 . S
C607 H608 0.960 . S
H608 C607 0.960 . S
H609 N589 0.862 1_556 S
O610 Co578 1.920 . S
O610 C583 1.289 . S
C611 O603 1.258 . S
C611 O604 1.266 . S
Co612 O615 1.970 . S
Co612 N629 1.989 . S
Co612 O637 1.967 . S
Co612 O644 1.920 . S
Co613 O616 1.966 . S
Co613 N622 2.022 . S
Co613 N630 1.993 . S
Co613 O638 1.941 . S
C614 O615 1.258 . S
C614 O616 1.263 . S
O615 Co612 1.970 . S
O615 C614 1.258 . S
O616 Co613 1.966 . S
O616 C614 1.263 . S
C617 O618 1.235 . S
C617 O644 1.289 . S
O618 C617 1.235 . S
C619 C621 1.400 . S
C619 N622 1.351 . S
C619 C624 1.501 . S
C620 C621 1.387 . S
C620 N623 1.341 . S
C621 C619 1.400 . S
C621 C620 1.387 . S
N622 Co613 2.022 . S
N622 C619 1.351 . S
N622 N623 1.365 . S
N623 C620 1.341 . S
N623 N622 1.365 . S
N623 H643 0.862 . S
C624 C619 1.501 . S
C624 H625 0.961 . S
C624 H626 0.961 . S
C624 H627 0.960 . S
H625 C624 0.961 . S
H626 C624 0.961 . S
H627 C624 0.960 . S
C628 N629 1.342 . S
C628 C632 1.401 . S
C628 C633 1.499 . S
N629 Co612 1.989 . S
N629 C628 1.342 . S
N629 N630 1.388 . S
N630 Co613 1.993 . S
N630 N629 1.388 . S
N630 C631 1.346 . S
C631 N630 1.346 . S
C631 C632 1.396 . S
C631 C641 1.510 . S
C632 C628 1.401 . S
C632 C631 1.396 . S
C633 C628 1.499 . S
C633 H634 0.959 . S
C633 H635 0.960 . S
C633 H636 0.961 . S
H634 C633 0.959 . S
H635 C633 0.960 . S
H636 C633 0.961 . S
O637 Co612 1.967 . S
O637 C645 1.258 . S
O638 Co613 1.941 . S
O638 C645 1.266 . S
H639 C641 0.959 . S
H640 C641 0.961 . S
C641 C631 1.510 . S
C641 H639 0.959 . S
C641 H640 0.961 . S
C641 H642 0.960 . S
H642 C641 0.960 . S
H643 N623 0.862 . S
O644 Co612 1.920 . S
O644 C617 1.289 . S
C645 O637 1.258 . S
C645 O638 1.266 . S
Co646 O649 1.970 . S
Co646 N663 1.989 . S
Co646 O671 1.967 . S
Co646 O678 1.920 . S
Co647 O650 1.966 . S
Co647 N656 2.022 . S
Co647 N664 1.993 . S
Co647 O672 1.941 . S
C648 O649 1.258 . S
C648 O650 1.263 . S
O649 Co646 1.970 . S
O649 C648 1.258 . S
O650 Co647 1.966 . S
O650 C648 1.263 . S
C651 O652 1.235 . S
C651 O678 1.289 . S
O652 C651 1.235 . S
C653 C655 1.400 . S
C653 N656 1.351 . S
C653 C658 1.501 . S
C654 C655 1.387 . S
C654 N657 1.341 . S
C655 C653 1.400 . S
C655 C654 1.387 . S
N656 Co647 2.022 . S
N656 C653 1.351 . S
N656 N657 1.365 . S
N657 C654 1.341 . S
N657 N656 1.365 . S
N657 H677 0.862 . S
C658 C653 1.501 . S
C658 H659 0.961 . S
C658 H660 0.961 . S
C658 H661 0.960 . S
H659 C658 0.961 . S
H660 C658 0.961 . S
H661 C658 0.960 . S
C662 N663 1.342 . S
C662 C666 1.401 . S
C662 C667 1.499 . S
N663 Co646 1.989 . S
N663 C662 1.342 . S
N663 N664 1.388 . S
N664 Co647 1.993 . S
N664 N663 1.388 . S
N664 C665 1.346 . S
C665 N664 1.346 . S
C665 C666 1.396 . S
C665 C675 1.510 . S
C666 C662 1.401 . S
C666 C665 1.396 . S
C667 C662 1.499 . S
C667 H668 0.959 . S
C667 H669 0.960 . S
C667 H670 0.961 . S
H668 C667 0.959 . S
H669 C667 0.960 . S
H670 C667 0.961 . S
O671 Co646 1.967 . S
O671 C679 1.258 . S
O672 Co647 1.941 . S
O672 C679 1.266 . S
H673 C675 0.959 . S
H674 C675 0.961 . S
C675 C665 1.510 . S
C675 H673 0.959 . S
C675 H674 0.961 . S
C675 H676 0.960 . S
H676 C675 0.960 . S
H677 N657 0.862 . S
O678 Co646 1.920 . S
O678 C651 1.289 . S
C679 O671 1.258 . S
C679 O672 1.266 . S
Co680 O683 1.970 . S
Co680 N697 1.989 . S
Co680 O705 1.967 . S
Co680 O712 1.920 . S
Co681 O684 1.966 . S
Co681 N690 2.022 . S
Co681 N698 1.993 . S
Co681 O706 1.941 . S
C682 O683 1.258 . S
C682 O684 1.263 . S
O683 Co680 1.970 . S
O683 C682 1.258 . S
O684 Co681 1.966 . S
O684 C682 1.263 . S
C685 O686 1.235 . S
C685 O712 1.289 . S
O686 C685 1.235 . S
C687 C689 1.400 . S
C687 N690 1.351 . S
C687 C692 1.501 . S
C688 C689 1.387 . S
C688 N691 1.341 . S
C689 C687 1.400 . S
C689 C688 1.387 . S
N690 Co681 2.022 . S
N690 C687 1.351 . S
N690 N691 1.365 . S
N691 C688 1.341 . S
N691 N690 1.365 . S
N691 H711 0.862 . S
C692 C687 1.501 . S
C692 H693 0.961 . S
C692 H694 0.961 . S
C692 H695 0.960 . S
H693 C692 0.961 . S
H694 C692 0.961 . S
H695 C692 0.960 . S
C696 N697 1.342 . S
C696 C700 1.401 . S
C696 C701 1.499 . S
N697 Co680 1.989 . S
N697 C696 1.342 . S
N697 N698 1.388 . S
N698 Co681 1.993 . S
N698 N697 1.388 . S
N698 C699 1.346 . S
C699 N698 1.346 . S
C699 C700 1.396 . S
C699 C709 1.510 . S
C700 C696 1.401 . S
C700 C699 1.396 . S
C701 C696 1.499 . S
C701 H702 0.959 . S
C701 H703 0.960 . S
C701 H704 0.961 . S
H702 C701 0.959 . S
H703 C701 0.960 . S
H704 C701 0.961 . S
O705 Co680 1.967 . S
O705 C713 1.258 . S
O706 Co681 1.941 . S
O706 C713 1.266 . S
H707 C709 0.959 . S
H708 C709 0.961 . S
C709 C699 1.510 . S
C709 H707 0.959 . S
C709 H708 0.961 . S
C709 H710 0.960 . S
H710 C709 0.960 . S
H711 N691 0.862 . S
O712 Co680 1.920 . S
O712 C685 1.289 . S
C713 O705 1.258 . S
C713 O706 1.266 . S
Co714 O717 1.970 . S
Co714 N731 1.989 . S
Co714 O739 1.967 . S
Co714 O746 1.920 . S
Co715 O718 1.966 . S
Co715 N724 2.022 . S
Co715 N732 1.993 . S
Co715 O740 1.941 . S
C716 O717 1.258 . S
C716 O718 1.263 . S
O717 Co714 1.970 . S
O717 C716 1.258 . S
O718 Co715 1.966 . S
O718 C716 1.263 . S
C719 O720 1.235 . S
C719 O746 1.289 . S
O720 C719 1.235 . S
C721 C723 1.400 . S
C721 N724 1.351 . S
C721 C726 1.501 . S
C722 C723 1.387 . S
C722 N725 1.341 . S
C723 C721 1.400 . S
C723 C722 1.387 . S
N724 Co715 2.022 . S
N724 C721 1.351 . S
N724 N725 1.365 . S
N725 C722 1.341 . S
N725 N724 1.365 . S
N725 H745 0.862 . S
C726 C721 1.501 . S
C726 H727 0.961 . S
C726 H728 0.961 . S
C726 H729 0.960 . S
H727 C726 0.961 . S
H728 C726 0.961 . S
H729 C726 0.960 . S
C730 N731 1.342 . S
C730 C734 1.401 . S
C730 C735 1.499 . S
N731 Co714 1.989 . S
N731 C730 1.342 . S
N731 N732 1.388 . S
N732 Co715 1.993 . S
N732 N731 1.388 . S
N732 C733 1.346 . S
C733 N732 1.346 . S
C733 C734 1.396 . S
C733 C743 1.510 . S
C734 C730 1.401 . S
C734 C733 1.396 . S
C735 C730 1.499 . S
C735 H736 0.959 . S
C735 H737 0.960 . S
C735 H738 0.961 . S
H736 C735 0.959 . S
H737 C735 0.960 . S
H738 C735 0.961 . S
O739 Co714 1.967 . S
O739 C747 1.258 . S
O740 Co715 1.941 . S
O740 C747 1.266 . S
H741 C743 0.959 . S
H742 C743 0.961 . S
C743 C733 1.510 . S
C743 H741 0.959 . S
C743 H742 0.961 . S
C743 H744 0.960 . S
H744 C743 0.960 . S
H745 N725 0.862 . S
O746 Co714 1.920 . S
O746 C719 1.289 . S
C747 O739 1.258 . S
C747 O740 1.266 . S
Co748 O751 1.970 . S
Co748 N765 1.989 . S
Co748 O773 1.967 . S
Co748 O780 1.920 . S
Co749 O752 1.966 . S
Co749 N758 2.022 . S
Co749 N766 1.993 . S
Co749 O774 1.941 . S
C750 O751 1.258 . S
C750 O752 1.263 . S
O751 Co748 1.970 . S
O751 C750 1.258 . S
O752 Co749 1.966 . S
O752 C750 1.263 . S
C753 O754 1.235 . S
C753 O780 1.289 . S
O754 C753 1.235 . S
C755 C757 1.400 . S
C755 N758 1.351 . S
C755 C760 1.501 . S
C756 C757 1.387 . S
C756 N759 1.341 . S
C757 C755 1.400 . S
C757 C756 1.387 . S
N758 Co749 2.022 . S
N758 C755 1.351 . S
N758 N759 1.365 . S
N759 C756 1.341 . S
N759 N758 1.365 . S
N759 H779 0.862 . S
C760 C755 1.501 . S
C760 H761 0.961 . S
C760 H762 0.961 . S
C760 H763 0.960 . S
H761 C760 0.961 . S
H762 C760 0.961 . S
H763 C760 0.960 . S
C764 N765 1.342 . S
C764 C768 1.401 . S
C764 C769 1.499 . S
N765 Co748 1.989 . S
N765 C764 1.342 . S
N765 N766 1.388 . S
N766 Co749 1.993 . S
N766 N765 1.388 . S
N766 C767 1.346 . S
C767 N766 1.346 . S
C767 C768 1.396 . S
C767 C777 1.510 . S
C768 C764 1.401 . S
C768 C767 1.396 . S
C769 C764 1.499 . S
C769 H770 0.959 . S
C769 H771 0.960 . S
C769 H772 0.961 . S
H770 C769 0.959 . S
H771 C769 0.960 . S
H772 C769 0.961 . S
O773 Co748 1.967 . S
O773 C781 1.258 . S
O774 Co749 1.941 . S
O774 C781 1.266 . S
H775 C777 0.959 . S
H776 C777 0.961 . S
C777 C767 1.510 . S
C777 H775 0.959 . S
C777 H776 0.961 . S
C777 H778 0.960 . S
H778 C777 0.960 . S
H779 N759 0.862 . S
O780 Co748 1.920 . S
O780 C753 1.289 . S
C781 O773 1.258 . S
C781 O774 1.266 . S
Co782 O785 1.970 . S
Co782 N799 1.989 . S
Co782 O807 1.967 . S
Co782 O814 1.920 . S
Co783 O786 1.966 . S
Co783 N792 2.022 . S
Co783 N800 1.993 . S
Co783 O808 1.941 . S
C784 O785 1.258 . S
C784 O786 1.263 . S
O785 Co782 1.970 . S
O785 C784 1.258 . S
O786 Co783 1.966 . S
O786 C784 1.263 . S
C787 O788 1.235 . S
C787 O814 1.289 . S
O788 C787 1.235 . S
C789 C791 1.400 . S
C789 N792 1.351 . S
C789 C794 1.501 . S
C790 C791 1.387 . S
C790 N793 1.341 . S
C791 C789 1.400 . S
C791 C790 1.387 . S
N792 Co783 2.022 . S
N792 C789 1.351 . S
N792 N793 1.365 . S
N793 C790 1.341 . S
N793 N792 1.365 . S
N793 H813 0.862 . S
C794 C789 1.501 . S
C794 H795 0.961 . S
C794 H796 0.961 . S
C794 H797 0.960 . S
H795 C794 0.961 . S
H796 C794 0.961 . S
H797 C794 0.960 . S
C798 N799 1.342 . S
C798 C802 1.401 . S
C798 C803 1.499 . S
N799 Co782 1.989 . S
N799 C798 1.342 . S
N799 N800 1.388 . S
N800 Co783 1.993 . S
N800 N799 1.388 . S
N800 C801 1.346 . S
C801 N800 1.346 . S
C801 C802 1.396 . S
C801 C811 1.510 . S
C802 C798 1.401 . S
C802 C801 1.396 . S
C803 C798 1.499 . S
C803 H804 0.959 . S
C803 H805 0.960 . S
C803 H806 0.961 . S
H804 C803 0.959 . S
H805 C803 0.960 . S
H806 C803 0.961 . S
O807 Co782 1.967 . S
O807 C815 1.258 . S
O808 Co783 1.941 . S
O808 C815 1.266 . S
H809 C811 0.959 . S
H810 C811 0.961 . S
C811 C801 1.510 . S
C811 H809 0.959 . S
C811 H810 0.961 . S
C811 H812 0.960 . S
H812 C811 0.960 . S
H813 N793 0.862 . S
O814 Co782 1.920 . S
O814 C787 1.289 . S
C815 O807 1.258 . S
C815 O808 1.266 . S
Co816 O819 1.970 . S
Co816 N833 1.989 . S
Co816 O841 1.967 . S
Co816 O848 1.920 . S
Co817 O820 1.966 . S
Co817 N826 2.022 . S
Co817 N834 1.993 . S
Co817 O842 1.941 . S
C818 O819 1.258 . S
C818 O820 1.263 . S
O819 Co816 1.970 . S
O819 C818 1.258 . S
O820 Co817 1.966 . S
O820 C818 1.263 . S
C821 O822 1.235 . S
C821 O848 1.289 . S
O822 C821 1.235 . S
C823 C825 1.400 . S
C823 N826 1.351 . S
C823 C828 1.501 . S
C824 C825 1.387 . S
C824 N827 1.341 . S
C825 C823 1.400 . S
C825 C824 1.387 . S
N826 Co817 2.022 . S
N826 C823 1.351 . S
N826 N827 1.365 . S
N827 C824 1.341 . S
N827 N826 1.365 . S
N827 H847 0.862 . S
C828 C823 1.501 . S
C828 H829 0.961 . S
C828 H830 0.961 . S
C828 H831 0.960 . S
H829 C828 0.961 . S
H830 C828 0.961 . S
H831 C828 0.960 . S
C832 N833 1.342 . S
C832 C836 1.401 . S
C832 C837 1.499 . S
N833 Co816 1.989 . S
N833 C832 1.342 . S
N833 N834 1.388 . S
N834 Co817 1.993 . S
N834 N833 1.388 . S
N834 C835 1.346 . S
C835 N834 1.346 . S
C835 C836 1.396 . S
C835 C845 1.510 . S
C836 C832 1.401 . S
C836 C835 1.396 . S
C837 C832 1.499 . S
C837 H838 0.959 . S
C837 H839 0.960 . S
C837 H840 0.961 . S
H838 C837 0.959 . S
H839 C837 0.960 . S
H840 C837 0.961 . S
O841 Co816 1.967 . S
O841 C849 1.258 . S
O842 Co817 1.941 . S
O842 C849 1.266 . S
H843 C845 0.959 . S
H844 C845 0.961 . S
C845 C835 1.510 . S
C845 H843 0.959 . S
C845 H844 0.961 . S
C845 H846 0.960 . S
H846 C845 0.960 . S
H847 N827 0.862 . S
O848 Co816 1.920 . S
O848 C821 1.289 . S
C849 O841 1.258 . S
C849 O842 1.266 . S
Co850 O853 1.970 . S
Co850 N867 1.989 . S
Co850 O875 1.967 . S
Co850 O882 1.920 . S
Co851 O854 1.966 . S
Co851 N860 2.022 . S
Co851 N868 1.993 . S
Co851 O876 1.941 . S
C852 O853 1.258 . S
C852 O854 1.263 . S
O853 Co850 1.970 . S
O853 C852 1.258 . S
O854 Co851 1.966 . S
O854 C852 1.263 . S
C855 O856 1.235 . S
C855 O882 1.289 . S
O856 C855 1.235 . S
C857 C859 1.400 . S
C857 N860 1.351 . S
C857 C862 1.501 . S
C858 C859 1.387 . S
C858 N861 1.341 . S
C859 C857 1.400 . S
C859 C858 1.387 . S
N860 Co851 2.022 . S
N860 C857 1.351 . S
N860 N861 1.365 . S
N861 C858 1.341 . S
N861 N860 1.365 . S
N861 H881 0.862 . S
C862 C857 1.501 . S
C862 H863 0.961 . S
C862 H864 0.961 . S
C862 H865 0.960 . S
H863 C862 0.961 . S
H864 C862 0.961 . S
H865 C862 0.960 . S
C866 N867 1.342 . S
C866 C870 1.401 . S
C866 C871 1.499 . S
N867 Co850 1.989 . S
N867 C866 1.342 . S
N867 N868 1.388 . S
N868 Co851 1.993 . S
N868 N867 1.388 . S
N868 C869 1.346 . S
C869 N868 1.346 . S
C869 C870 1.396 . S
C869 C879 1.510 . S
C870 C866 1.401 . S
C870 C869 1.396 . S
C871 C866 1.499 . S
C871 H872 0.959 . S
C871 H873 0.960 . S
C871 H874 0.961 . S
H872 C871 0.959 . S
H873 C871 0.960 . S
H874 C871 0.961 . S
O875 Co850 1.967 . S
O875 C883 1.258 . S
O876 Co851 1.941 . S
O876 C883 1.266 . S
H877 C879 0.959 . S
H878 C879 0.961 . S
C879 C869 1.510 . S
C879 H877 0.959 . S
C879 H878 0.961 . S
C879 H880 0.960 . S
H880 C879 0.960 . S
H881 N861 0.862 . S
O882 Co850 1.920 . S
O882 C855 1.289 . S
C883 O875 1.258 . S
C883 O876 1.266 . S
Co884 O887 1.970 . S
Co884 N901 1.989 . S
Co884 O909 1.967 . S
Co884 O916 1.920 . S
Co885 O888 1.966 . S
Co885 N894 2.022 1_655 S
Co885 N902 1.989 1_655 S
Co885 O910 1.941 . S
C886 O887 1.258 . S
C886 O888 1.263 . S
O887 Co884 1.970 . S
O887 C886 1.258 . S
O888 Co885 1.966 . S
O888 C886 1.263 . S
C889 O890 1.235 . S
C889 O916 1.289 . S
O890 C889 1.235 . S
C891 C893 1.400 . S
C891 N894 1.351 . S
C891 C896 1.501 . S
C892 C893 1.387 . S
C892 N895 1.341 . S
C893 C891 1.400 . S
C893 C892 1.387 . S
N894 Co885 2.022 1_455 S
N894 C891 1.351 . S
N894 N895 1.365 . S
N895 C892 1.341 . S
N895 N894 1.365 . S
N895 H915 0.862 1_455 S
C896 C891 1.501 . S
C896 H897 0.961 . S
C896 H898 0.961 . S
C896 H899 0.960 . S
H897 C896 0.961 . S
H898 C896 0.961 . S
H899 C896 0.960 . S
C900 N901 1.342 . S
C900 C904 1.401 1_655 S
C900 C905 1.499 . S
N901 Co884 1.989 . S
N901 C900 1.342 . S
N901 N902 1.383 1_655 S
N902 Co885 1.989 1_455 S
N902 N901 1.383 1_455 S
N902 C903 1.352 . S
C903 N902 1.352 . S
C903 C904 1.396 . S
C903 C913 1.510 . S
C904 C900 1.401 1_455 S
C904 C903 1.396 . S
C905 C900 1.499 . S
C905 H906 0.959 . S
C905 H907 0.989 . S
C905 H908 0.961 . S
H906 C905 0.959 . S
H907 C905 0.989 . S
H908 C905 0.961 . S
O909 Co884 1.967 . S
O909 C917 1.258 . S
O910 Co885 1.941 . S
O910 C917 1.266 . S
H911 C913 0.959 . S
H912 C913 0.961 . S
C913 C903 1.510 . S
C913 H911 0.959 . S
C913 H912 0.961 . S
C913 H914 0.960 . S
H914 C913 0.960 . S
H915 N895 0.862 1_655 S
O916 Co884 1.920 . S
O916 C889 1.289 . S
C917 O909 1.258 . S
C917 O910 1.266 . S
Co918 O921 1.970 . S
Co918 N935 1.989 . S
Co918 O943 1.967 . S
Co918 O950 1.920 . S
Co919 O922 1.966 . S
Co919 N928 2.022 . S
Co919 N936 1.993 . S
Co919 O944 1.941 . S
C920 O921 1.258 . S
C920 O922 1.263 . S
O921 Co918 1.970 . S
O921 C920 1.258 . S
O922 Co919 1.966 . S
O922 C920 1.263 . S
C923 O924 1.235 . S
C923 O950 1.289 . S
O924 C923 1.235 . S
C925 C927 1.400 . S
C925 N928 1.351 . S
C925 C930 1.501 . S
C926 C927 1.387 . S
C926 N929 1.341 . S
C927 C925 1.400 . S
C927 C926 1.387 . S
N928 Co919 2.022 . S
N928 C925 1.351 . S
N928 N929 1.365 . S
N929 C926 1.341 . S
N929 N928 1.365 . S
N929 H949 0.862 . S
C930 C925 1.501 . S
C930 H931 0.961 . S
C930 H932 0.961 . S
C930 H933 0.960 . S
H931 C930 0.961 . S
H932 C930 0.961 . S
H933 C930 0.960 . S
C934 N935 1.342 . S
C934 C938 1.401 . S
C934 C939 1.499 . S
N935 Co918 1.989 . S
N935 C934 1.342 . S
N935 N936 1.388 . S
N936 Co919 1.993 . S
N936 N935 1.388 . S
N936 C937 1.346 . S
C937 N936 1.346 . S
C937 C938 1.396 . S
C937 C947 1.510 . S
C938 C934 1.401 . S
C938 C937 1.396 . S
C939 C934 1.499 . S
C939 H940 0.959 . S
C939 H941 0.960 . S
C939 H942 0.961 . S
H940 C939 0.959 . S
H941 C939 0.960 . S
H942 C939 0.961 . S
O943 Co918 1.967 . S
O943 C951 1.258 . S
O944 Co919 1.941 . S
O944 C951 1.266 . S
H945 C947 0.959 . S
H946 C947 0.961 . S
C947 C937 1.510 . S
C947 H945 0.959 . S
C947 H946 0.961 . S
C947 H948 0.960 . S
H948 C947 0.960 . S
H949 N929 0.862 . S
O950 Co918 1.920 . S
O950 C923 1.289 . S
C951 O943 1.258 . S
C951 O944 1.266 . S
Co952 O955 1.970 . S
Co952 N969 1.989 . S
Co952 O977 1.967 . S
Co952 O984 1.920 . S
Co953 O956 1.966 . S
Co953 N962 2.022 . S
Co953 N970 1.993 . S
Co953 O978 1.941 . S
C954 O955 1.258 . S
C954 O956 1.263 . S
O955 Co952 1.970 . S
O955 C954 1.258 . S
O956 Co953 1.966 . S
O956 C954 1.263 . S
C957 O958 1.235 . S
C957 O984 1.289 . S
O958 C957 1.235 . S
C959 C961 1.400 . S
C959 N962 1.351 . S
C959 C964 1.501 . S
C960 C961 1.387 . S
C960 N963 1.341 . S
C961 C959 1.400 . S
C961 C960 1.387 . S
N962 Co953 2.022 . S
N962 C959 1.351 . S
N962 N963 1.365 . S
N963 C960 1.341 . S
N963 N962 1.365 . S
N963 H983 0.862 . S
C964 C959 1.501 . S
C964 H965 0.961 . S
C964 H966 0.961 . S
C964 H967 0.960 . S
H965 C964 0.961 . S
H966 C964 0.961 . S
H967 C964 0.960 . S
C968 N969 1.342 . S
C968 C972 1.401 . S
C968 C973 1.499 . S
N969 Co952 1.989 . S
N969 C968 1.342 . S
N969 N970 1.388 . S
N970 Co953 1.993 . S
N970 N969 1.388 . S
N970 C971 1.346 . S
C971 N970 1.346 . S
C971 C972 1.396 . S
C971 C981 1.510 . S
C972 C968 1.401 . S
C972 C971 1.396 . S
C973 C968 1.499 . S
C973 H974 0.959 . S
C973 H975 0.960 . S
C973 H976 0.961 . S
H974 C973 0.959 . S
H975 C973 0.960 . S
H976 C973 0.961 . S
O977 Co952 1.967 . S
O977 C985 1.258 . S
O978 Co953 1.941 . S
O978 C985 1.266 . S
H979 C981 0.959 . S
H980 C981 0.961 . S
C981 C971 1.510 . S
C981 H979 0.959 . S
C981 H980 0.961 . S
C981 H982 0.960 . S
H982 C981 0.960 . S
H983 N963 0.862 . S
O984 Co952 1.920 . S
O984 C957 1.289 . S
C985 O977 1.258 . S
C985 O978 1.266 . S
Co986 O989 1.970 . S
Co986 N1003 1.989 . S
Co986 O1011 1.967 . S
Co986 O1018 1.920 . S
Co987 O990 1.966 . S
Co987 N996 2.022 . S
Co987 N1004 1.993 . S
Co987 O1012 1.941 . S
C988 O989 1.258 . S
C988 O990 1.263 . S
O989 Co986 1.970 . S
O989 C988 1.258 . S
O990 Co987 1.966 . S
O990 C988 1.263 . S
C991 O992 1.235 . S
C991 O1018 1.289 . S
O992 C991 1.235 . S
C993 C995 1.400 . S
C993 N996 1.351 . S
C993 C998 1.501 . S
C994 C995 1.387 . S
C994 N997 1.341 . S
C995 C993 1.400 . S
C995 C994 1.387 . S
N996 Co987 2.022 . S
N996 C993 1.351 . S
N996 N997 1.365 . S
N997 C994 1.341 . S
N997 N996 1.365 . S
N997 H1017 0.862 . S
C998 C993 1.501 . S
C998 H999 0.961 . S
C998 H1000 0.961 . S
C998 H1001 0.960 . S
H999 C998 0.961 . S
H1000 C998 0.961 . S
H1001 C998 0.960 . S
C1002 N1003 1.342 . S
C1002 C1006 1.401 . S
C1002 C1007 1.499 . S
N1003 Co986 1.989 . S
N1003 C1002 1.342 . S
N1003 N1004 1.388 . S
N1004 Co987 1.993 . S
N1004 N1003 1.388 . S
N1004 C1005 1.346 . S
C1005 N1004 1.346 . S
C1005 C1006 1.396 . S
C1005 C1015 1.510 . S
C1006 C1002 1.401 . S
C1006 C1005 1.396 . S
C1007 C1002 1.499 . S
C1007 H1008 0.959 . S
C1007 H1009 0.960 . S
C1007 H1010 0.961 . S
H1008 C1007 0.959 . S
H1009 C1007 0.960 . S
H1010 C1007 0.961 . S
O1011 Co986 1.967 . S
O1011 C1019 1.258 . S
O1012 Co987 1.941 . S
O1012 C1019 1.266 . S
H1013 C1015 0.959 . S
H1014 C1015 0.961 . S
C1015 C1005 1.510 . S
C1015 H1013 0.959 . S
C1015 H1014 0.961 . S
C1015 H1016 0.960 . S
H1016 C1015 0.960 . S
H1017 N997 0.862 . S
O1018 Co986 1.920 . S
O1018 C991 1.289 . S
C1019 O1011 1.258 . S
C1019 O1012 1.266 . S
Co1020 O1023 1.970 . S
Co1020 N1037 1.989 . S
Co1020 O1045 1.967 . S
Co1020 O1052 1.920 . S
Co1021 O1024 1.966 . S
Co1021 N1030 2.022 1_655 S
Co1021 N1038 1.989 1_655 S
Co1021 O1046 1.941 . S
C1022 O1023 1.258 . S
C1022 O1024 1.263 . S
O1023 Co1020 1.970 . S
O1023 C1022 1.258 . S
O1024 Co1021 1.966 . S
O1024 C1022 1.263 . S
C1025 O1026 1.235 . S
C1025 O1052 1.289 . S
O1026 C1025 1.235 . S
C1027 C1029 1.400 . S
C1027 N1030 1.351 . S
C1027 C1032 1.501 . S
C1028 C1029 1.387 . S
C1028 N1031 1.341 . S
C1029 C1027 1.400 . S
C1029 C1028 1.387 . S
N1030 Co1021 2.022 1_455 S
N1030 C1027 1.351 . S
N1030 N1031 1.365 . S
N1031 C1028 1.341 . S
N1031 N1030 1.365 . S
N1031 H1051 0.862 1_455 S
C1032 C1027 1.501 . S
C1032 H1033 0.961 . S
C1032 H1034 0.961 . S
C1032 H1035 0.960 . S
H1033 C1032 0.961 . S
H1034 C1032 0.961 . S
H1035 C1032 0.960 . S
C1036 N1037 1.342 . S
C1036 C1040 1.401 1_655 S
C1036 C1041 1.499 . S
N1037 Co1020 1.989 . S
N1037 C1036 1.342 . S
N1037 N1038 1.383 1_655 S
N1038 Co1021 1.989 1_455 S
N1038 N1037 1.383 1_455 S
N1038 C1039 1.352 . S
C1039 N1038 1.352 . S
C1039 C1040 1.396 . S
C1039 C1049 1.510 . S
C1040 C1036 1.401 1_455 S
C1040 C1039 1.396 . S
C1041 C1036 1.499 . S
C1041 H1042 0.959 . S
C1041 H1043 0.989 . S
C1041 H1044 0.961 . S
H1042 C1041 0.959 . S
H1043 C1041 0.989 . S
H1044 C1041 0.961 . S
O1045 Co1020 1.967 . S
O1045 C1053 1.258 . S
O1046 Co1021 1.941 . S
O1046 C1053 1.266 . S
H1047 C1049 0.959 . S
H1048 C1049 0.961 . S
C1049 C1039 1.510 . S
C1049 H1047 0.959 . S
C1049 H1048 0.961 . S
C1049 H1050 0.960 . S
H1050 C1049 0.960 . S
H1051 N1031 0.862 1_655 S
O1052 Co1020 1.920 . S
O1052 C1025 1.289 . S
C1053 O1045 1.258 . S
C1053 O1046 1.266 . S
Co1054 O1057 1.970 . S
Co1054 N1071 1.989 . S
Co1054 O1079 1.967 . S
Co1054 O1086 1.920 . S
Co1055 O1058 1.966 . S
Co1055 N1064 2.022 . S
Co1055 N1072 1.993 . S
Co1055 O1080 1.941 . S
C1056 O1057 1.258 . S
C1056 O1058 1.263 . S
O1057 Co1054 1.970 . S
O1057 C1056 1.258 . S
O1058 Co1055 1.966 . S
O1058 C1056 1.263 . S
C1059 O1060 1.235 . S
C1059 O1086 1.289 . S
O1060 C1059 1.235 . S
C1061 C1063 1.400 . S
C1061 N1064 1.351 . S
C1061 C1066 1.501 . S
C1062 C1063 1.387 . S
C1062 N1065 1.341 . S
C1063 C1061 1.400 . S
C1063 C1062 1.387 . S
N1064 Co1055 2.022 . S
N1064 C1061 1.351 . S
N1064 N1065 1.365 . S
N1065 C1062 1.341 . S
N1065 N1064 1.365 . S
N1065 H1085 0.862 . S
C1066 C1061 1.501 . S
C1066 H1067 0.961 . S
C1066 H1068 0.961 . S
C1066 H1069 0.960 . S
H1067 C1066 0.961 . S
H1068 C1066 0.961 . S
H1069 C1066 0.960 . S
C1070 N1071 1.342 . S
C1070 C1074 1.401 . S
C1070 C1075 1.499 . S
N1071 Co1054 1.989 . S
N1071 C1070 1.342 . S
N1071 N1072 1.388 . S
N1072 Co1055 1.993 . S
N1072 N1071 1.388 . S
N1072 C1073 1.346 . S
C1073 N1072 1.346 . S
C1073 C1074 1.396 . S
C1073 C1083 1.510 . S
C1074 C1070 1.401 . S
C1074 C1073 1.396 . S
C1075 C1070 1.499 . S
C1075 H1076 0.959 . S
C1075 H1077 0.960 . S
C1075 H1078 0.961 . S
H1076 C1075 0.959 . S
H1077 C1075 0.960 . S
H1078 C1075 0.961 . S
O1079 Co1054 1.967 . S
O1079 C1087 1.258 . S
O1080 Co1055 1.941 . S
O1080 C1087 1.266 . S
H1081 C1083 0.959 . S
H1082 C1083 0.961 . S
C1083 C1073 1.510 . S
C1083 H1081 0.959 . S
C1083 H1082 0.961 . S
C1083 H1084 0.960 . S
H1084 C1083 0.960 . S
H1085 N1065 0.862 . S
O1086 Co1054 1.920 . S
O1086 C1059 1.289 . S
C1087 O1079 1.258 . S
C1087 O1080 1.266 . S
Co1088 O1091 1.970 . S
Co1088 N1105 1.989 . S
Co1088 O1113 1.967 . S
Co1088 O1120 1.920 . S
Co1089 O1092 1.966 . S
Co1089 N1098 2.022 . S
Co1089 N1106 1.993 . S
Co1089 O1114 1.941 . S
C1090 O1091 1.258 . S
C1090 O1092 1.263 . S
O1091 Co1088 1.970 . S
O1091 C1090 1.258 . S
O1092 Co1089 1.966 . S
O1092 C1090 1.263 . S
C1093 O1094 1.235 . S
C1093 O1120 1.289 . S
O1094 C1093 1.235 . S
C1095 C1097 1.400 . S
C1095 N1098 1.351 . S
C1095 C1100 1.501 . S
C1096 C1097 1.387 . S
C1096 N1099 1.341 . S
C1097 C1095 1.400 . S
C1097 C1096 1.387 . S
N1098 Co1089 2.022 . S
N1098 C1095 1.351 . S
N1098 N1099 1.365 . S
N1099 C1096 1.341 . S
N1099 N1098 1.365 . S
N1099 H1119 0.862 . S
C1100 C1095 1.501 . S
C1100 H1101 0.961 . S
C1100 H1102 0.961 . S
C1100 H1103 0.960 . S
H1101 C1100 0.961 . S
H1102 C1100 0.961 . S
H1103 C1100 0.960 . S
C1104 N1105 1.342 . S
C1104 C1108 1.401 . S
C1104 C1109 1.499 . S
N1105 Co1088 1.989 . S
N1105 C1104 1.342 . S
N1105 N1106 1.388 . S
N1106 Co1089 1.993 . S
N1106 N1105 1.388 . S
N1106 C1107 1.346 . S
C1107 N1106 1.346 . S
C1107 C1108 1.396 . S
C1107 C1117 1.510 . S
C1108 C1104 1.401 . S
C1108 C1107 1.396 . S
C1109 C1104 1.499 . S
C1109 H1110 0.959 . S
C1109 H1111 0.960 . S
C1109 H1112 0.961 . S
H1110 C1109 0.959 . S
H1111 C1109 0.960 . S
H1112 C1109 0.961 . S
O1113 Co1088 1.967 . S
O1113 C1121 1.258 . S
O1114 Co1089 1.941 . S
O1114 C1121 1.266 . S
H1115 C1117 0.959 . S
H1116 C1117 0.961 . S
C1117 C1107 1.510 . S
C1117 H1115 0.959 . S
C1117 H1116 0.961 . S
C1117 H1118 0.960 . S
H1118 C1117 0.960 . S
H1119 N1099 0.862 . S
O1120 Co1088 1.920 . S
O1120 C1093 1.289 . S
C1121 O1113 1.258 . S
C1121 O1114 1.266 . S
Co1122 O1125 1.970 . S
Co1122 N1139 1.989 . S
Co1122 O1147 1.967 . S
Co1122 O1154 1.920 . S
Co1123 O1126 1.966 . S
Co1123 N1132 2.022 . S
Co1123 N1140 1.993 . S
Co1123 O1148 1.941 . S
C1124 O1125 1.258 . S
C1124 O1126 1.263 . S
O1125 Co1122 1.970 . S
O1125 C1124 1.258 . S
O1126 Co1123 1.966 . S
O1126 C1124 1.263 . S
C1127 O1128 1.235 . S
C1127 O1154 1.289 . S
O1128 C1127 1.235 . S
C1129 C1131 1.400 . S
C1129 N1132 1.351 . S
C1129 C1134 1.501 . S
C1130 C1131 1.387 . S
C1130 N1133 1.341 . S
C1131 C1129 1.400 . S
C1131 C1130 1.387 . S
N1132 Co1123 2.022 . S
N1132 C1129 1.351 . S
N1132 N1133 1.365 . S
N1133 C1130 1.341 . S
N1133 N1132 1.365 . S
N1133 H1153 0.862 . S
C1134 C1129 1.501 . S
C1134 H1135 0.961 . S
C1134 H1136 0.961 . S
C1134 H1137 0.960 . S
H1135 C1134 0.961 . S
H1136 C1134 0.961 . S
H1137 C1134 0.960 . S
C1138 N1139 1.342 . S
C1138 C1142 1.401 . S
C1138 C1143 1.499 . S
N1139 Co1122 1.989 . S
N1139 C1138 1.342 . S
N1139 N1140 1.388 . S
N1140 Co1123 1.993 . S
N1140 N1139 1.388 . S
N1140 C1141 1.346 . S
C1141 N1140 1.346 . S
C1141 C1142 1.396 . S
C1141 C1151 1.510 . S
C1142 C1138 1.401 . S
C1142 C1141 1.396 . S
C1143 C1138 1.499 . S
C1143 H1144 0.959 . S
C1143 H1145 0.960 . S
C1143 H1146 0.961 . S
H1144 C1143 0.959 . S
H1145 C1143 0.960 . S
H1146 C1143 0.961 . S
O1147 Co1122 1.967 . S
O1147 C1155 1.258 . S
O1148 Co1123 1.941 . S
O1148 C1155 1.266 . S
H1149 C1151 0.959 . S
H1150 C1151 0.961 . S
C1151 C1141 1.510 . S
C1151 H1149 0.959 . S
C1151 H1150 0.961 . S
C1151 H1152 0.960 . S
H1152 C1151 0.960 . S
H1153 N1133 0.862 . S
O1154 Co1122 1.920 . S
O1154 C1127 1.289 . S
C1155 O1147 1.258 . S
C1155 O1148 1.266 . S
Co1156 O1159 1.970 . S
Co1156 N1173 1.989 . S
Co1156 O1181 1.967 . S
Co1156 O1188 1.920 . S
Co1157 O1160 1.966 . S
Co1157 N1166 2.022 . S
Co1157 N1174 1.993 . S
Co1157 O1182 1.941 . S
C1158 O1159 1.258 . S
C1158 O1160 1.263 . S
O1159 Co1156 1.970 . S
O1159 C1158 1.258 . S
O1160 Co1157 1.966 . S
O1160 C1158 1.263 . S
C1161 O1162 1.235 . S
C1161 O1188 1.289 . S
O1162 C1161 1.235 . S
C1163 C1165 1.400 . S
C1163 N1166 1.351 . S
C1163 C1168 1.501 . S
C1164 C1165 1.387 . S
C1164 N1167 1.341 . S
C1165 C1163 1.400 . S
C1165 C1164 1.387 . S
N1166 Co1157 2.022 . S
N1166 C1163 1.351 . S
N1166 N1167 1.365 . S
N1167 C1164 1.341 . S
N1167 N1166 1.365 . S
N1167 H1187 0.862 . S
C1168 C1163 1.501 . S
C1168 H1169 0.961 . S
C1168 H1170 0.961 . S
C1168 H1171 0.960 . S
H1169 C1168 0.961 . S
H1170 C1168 0.961 . S
H1171 C1168 0.960 . S
C1172 N1173 1.342 . S
C1172 C1176 1.401 . S
C1172 C1177 1.499 . S
N1173 Co1156 1.989 . S
N1173 C1172 1.342 . S
N1173 N1174 1.388 . S
N1174 Co1157 1.993 . S
N1174 N1173 1.388 . S
N1174 C1175 1.346 . S
C1175 N1174 1.346 . S
C1175 C1176 1.396 . S
C1175 C1185 1.510 . S
C1176 C1172 1.401 . S
C1176 C1175 1.396 . S
C1177 C1172 1.499 . S
C1177 H1178 0.959 . S
C1177 H1179 0.960 . S
C1177 H1180 0.961 . S
H1178 C1177 0.959 . S
H1179 C1177 0.960 . S
H1180 C1177 0.961 . S
O1181 Co1156 1.967 . S
O1181 C1189 1.258 . S
O1182 Co1157 1.941 . S
O1182 C1189 1.266 . S
H1183 C1185 0.959 . S
H1184 C1185 0.961 . S
C1185 C1175 1.510 . S
C1185 H1183 0.959 . S
C1185 H1184 0.961 . S
C1185 H1186 0.960 . S
H1186 C1185 0.960 . S
H1187 N1167 0.862 . S
O1188 Co1156 1.920 . S
O1188 C1161 1.289 . S
C1189 O1181 1.258 . S
C1189 O1182 1.266 . S
Co1190 O1193 1.970 . S
Co1190 N1207 1.989 . S
Co1190 O1215 1.967 . S
Co1190 O1222 1.920 . S
Co1191 O1194 1.966 . S
Co1191 N1200 2.022 . S
Co1191 N1208 1.993 . S
Co1191 O1216 1.941 . S
C1192 O1193 1.258 . S
C1192 O1194 1.263 . S
O1193 Co1190 1.970 . S
O1193 C1192 1.258 . S
O1194 Co1191 1.966 . S
O1194 C1192 1.263 . S
C1195 O1196 1.235 . S
C1195 O1222 1.289 . S
O1196 C1195 1.235 . S
C1197 C1199 1.400 . S
C1197 N1200 1.351 . S
C1197 C1202 1.501 . S
C1198 C1199 1.387 . S
C1198 N1201 1.341 . S
C1199 C1197 1.400 . S
C1199 C1198 1.387 . S
N1200 Co1191 2.022 . S
N1200 C1197 1.351 . S
N1200 N1201 1.365 . S
N1201 C1198 1.341 . S
N1201 N1200 1.365 . S
N1201 H1221 0.862 . S
C1202 C1197 1.501 . S
C1202 H1203 0.961 . S
C1202 H1204 0.961 . S
C1202 H1205 0.960 . S
H1203 C1202 0.961 . S
H1204 C1202 0.961 . S
H1205 C1202 0.960 . S
C1206 N1207 1.342 . S
C1206 C1210 1.401 . S
C1206 C1211 1.499 . S
N1207 Co1190 1.989 . S
N1207 C1206 1.342 . S
N1207 N1208 1.388 . S
N1208 Co1191 1.993 . S
N1208 N1207 1.388 . S
N1208 C1209 1.346 . S
C1209 N1208 1.346 . S
C1209 C1210 1.396 . S
C1209 C1219 1.510 . S
C1210 C1206 1.401 . S
C1210 C1209 1.396 . S
C1211 C1206 1.499 . S
C1211 H1212 0.959 . S
C1211 H1213 0.960 . S
C1211 H1214 0.961 . S
H1212 C1211 0.959 . S
H1213 C1211 0.960 . S
H1214 C1211 0.961 . S
O1215 Co1190 1.967 . S
O1215 C1223 1.258 . S
O1216 Co1191 1.941 . S
O1216 C1223 1.266 . S
H1217 C1219 0.959 . S
H1218 C1219 0.961 . S
C1219 C1209 1.510 . S
C1219 H1217 0.959 . S
C1219 H1218 0.961 . S
C1219 H1220 0.960 . S
H1220 C1219 0.960 . S
H1221 N1201 0.862 . S
O1222 Co1190 1.920 . S
O1222 C1195 1.289 . S
C1223 O1215 1.258 . S
C1223 O1216 1.266 . S
Co1224 O1227 1.970 . S
Co1224 N1241 1.989 . S
Co1224 O1249 1.967 . S
Co1224 O1256 1.920 . S
Co1225 O1228 1.966 . S
Co1225 N1234 2.022 . S
Co1225 N1242 1.993 . S
Co1225 O1250 1.941 . S
C1226 O1227 1.258 . S
C1226 O1228 1.263 . S
O1227 Co1224 1.970 . S
O1227 C1226 1.258 . S
O1228 Co1225 1.966 . S
O1228 C1226 1.263 . S
C1229 O1230 1.235 . S
C1229 O1256 1.289 . S
O1230 C1229 1.235 . S
C1231 C1233 1.400 . S
C1231 N1234 1.351 . S
C1231 C1236 1.501 . S
C1232 C1233 1.387 . S
C1232 N1235 1.341 . S
C1233 C1231 1.400 . S
C1233 C1232 1.387 . S
N1234 Co1225 2.022 . S
N1234 C1231 1.351 . S
N1234 N1235 1.365 . S
N1235 C1232 1.341 . S
N1235 N1234 1.365 . S
N1235 H1255 0.862 . S
C1236 C1231 1.501 . S
C1236 H1237 0.961 . S
C1236 H1238 0.961 . S
C1236 H1239 0.960 . S
H1237 C1236 0.961 . S
H1238 C1236 0.961 . S
H1239 C1236 0.960 . S
C1240 N1241 1.342 . S
C1240 C1244 1.401 . S
C1240 C1245 1.499 . S
N1241 Co1224 1.989 . S
N1241 C1240 1.342 . S
N1241 N1242 1.388 . S
N1242 Co1225 1.993 . S
N1242 N1241 1.388 . S
N1242 C1243 1.346 . S
C1243 N1242 1.346 . S
C1243 C1244 1.396 . S
C1243 C1253 1.510 . S
C1244 C1240 1.401 . S
C1244 C1243 1.396 . S
C1245 C1240 1.499 . S
C1245 H1246 0.959 . S
C1245 H1247 0.960 . S
C1245 H1248 0.961 . S
H1246 C1245 0.959 . S
H1247 C1245 0.960 . S
H1248 C1245 0.961 . S
O1249 Co1224 1.967 . S
O1249 C1257 1.258 . S
O1250 Co1225 1.941 . S
O1250 C1257 1.266 . S
H1251 C1253 0.959 . S
H1252 C1253 0.961 . S
C1253 C1243 1.510 . S
C1253 H1251 0.959 . S
C1253 H1252 0.961 . S
C1253 H1254 0.960 . S
H1254 C1253 0.960 . S
H1255 N1235 0.862 . S
O1256 Co1224 1.920 . S
O1256 C1229 1.289 . S
C1257 O1249 1.258 . S
C1257 O1250 1.266 . S
Co1258 O1261 1.970 . S
Co1258 N1275 1.989 . S
Co1258 O1283 1.967 . S
Co1258 O1290 1.920 . S
Co1259 O1262 1.966 . S
Co1259 N1268 2.022 . S
Co1259 N1276 1.993 . S
Co1259 O1284 1.941 . S
C1260 O1261 1.258 . S
C1260 O1262 1.263 . S
O1261 Co1258 1.970 . S
O1261 C1260 1.258 . S
O1262 Co1259 1.966 . S
O1262 C1260 1.263 . S
C1263 O1264 1.235 . S
C1263 O1290 1.289 . S
O1264 C1263 1.235 . S
C1265 C1267 1.400 . S
C1265 N1268 1.351 . S
C1265 C1270 1.501 . S
C1266 C1267 1.387 . S
C1266 N1269 1.341 . S
C1267 C1265 1.400 . S
C1267 C1266 1.387 . S
N1268 Co1259 2.022 . S
N1268 C1265 1.351 . S
N1268 N1269 1.365 . S
N1269 C1266 1.341 . S
N1269 N1268 1.365 . S
N1269 H1289 0.862 . S
C1270 C1265 1.501 . S
C1270 H1271 0.961 . S
C1270 H1272 0.961 . S
C1270 H1273 0.960 . S
H1271 C1270 0.961 . S
H1272 C1270 0.961 . S
H1273 C1270 0.960 . S
C1274 N1275 1.342 . S
C1274 C1278 1.401 . S
C1274 C1279 1.499 . S
N1275 Co1258 1.989 . S
N1275 C1274 1.342 . S
N1275 N1276 1.388 . S
N1276 Co1259 1.993 . S
N1276 N1275 1.388 . S
N1276 C1277 1.346 . S
C1277 N1276 1.346 . S
C1277 C1278 1.396 . S
C1277 C1287 1.510 . S
C1278 C1274 1.401 . S
C1278 C1277 1.396 . S
C1279 C1274 1.499 . S
C1279 H1280 0.959 . S
C1279 H1281 0.960 . S
C1279 H1282 0.961 . S
H1280 C1279 0.959 . S
H1281 C1279 0.960 . S
H1282 C1279 0.961 . S
O1283 Co1258 1.967 . S
O1283 C1291 1.258 . S
O1284 Co1259 1.941 . S
O1284 C1291 1.266 . S
H1285 C1287 0.959 . S
H1286 C1287 0.961 . S
C1287 C1277 1.510 . S
C1287 H1285 0.959 . S
C1287 H1286 0.961 . S
C1287 H1288 0.960 . S
H1288 C1287 0.960 . S
H1289 N1269 0.862 . S
O1290 Co1258 1.920 . S
O1290 C1263 1.289 . S
C1291 O1283 1.258 . S
C1291 O1284 1.266 . S
Co1292 O1295 1.970 . S
Co1292 N1309 1.989 . S
Co1292 O1317 1.967 . S
Co1292 O1324 1.920 . S
Co1293 O1296 1.966 . S
Co1293 N1302 2.022 . S
Co1293 N1310 1.993 . S
Co1293 O1318 1.941 . S
C1294 O1295 1.258 . S
C1294 O1296 1.263 . S
O1295 Co1292 1.970 . S
O1295 C1294 1.258 . S
O1296 Co1293 1.966 . S
O1296 C1294 1.263 . S
C1297 O1298 1.235 . S
C1297 O1324 1.289 . S
O1298 C1297 1.235 . S
C1299 C1301 1.400 . S
C1299 N1302 1.351 . S
C1299 C1304 1.501 . S
C1300 C1301 1.387 . S
C1300 N1303 1.341 . S
C1301 C1299 1.400 . S
C1301 C1300 1.387 . S
N1302 Co1293 2.022 . S
N1302 C1299 1.351 . S
N1302 N1303 1.365 . S
N1303 C1300 1.341 . S
N1303 N1302 1.365 . S
N1303 H1323 0.862 . S
C1304 C1299 1.501 . S
C1304 H1305 0.961 . S
C1304 H1306 0.961 . S
C1304 H1307 0.960 . S
H1305 C1304 0.961 . S
H1306 C1304 0.961 . S
H1307 C1304 0.960 . S
C1308 N1309 1.342 . S
C1308 C1312 1.401 . S
C1308 C1313 1.499 . S
N1309 Co1292 1.989 . S
N1309 C1308 1.342 . S
N1309 N1310 1.388 . S
N1310 Co1293 1.993 . S
N1310 N1309 1.388 . S
N1310 C1311 1.346 . S
C1311 N1310 1.346 . S
C1311 C1312 1.396 . S
C1311 C1321 1.510 . S
C1312 C1308 1.401 . S
C1312 C1311 1.396 . S
C1313 C1308 1.499 . S
C1313 H1314 0.959 . S
C1313 H1315 0.960 . S
C1313 H1316 0.961 . S
H1314 C1313 0.959 . S
H1315 C1313 0.960 . S
H1316 C1313 0.961 . S
O1317 Co1292 1.967 . S
O1317 C1325 1.258 . S
O1318 Co1293 1.941 . S
O1318 C1325 1.266 . S
H1319 C1321 0.959 . S
H1320 C1321 0.961 . S
C1321 C1311 1.510 . S
C1321 H1319 0.959 . S
C1321 H1320 0.961 . S
C1321 H1322 0.960 . S
H1322 C1321 0.960 . S
H1323 N1303 0.862 . S
O1324 Co1292 1.920 . S
O1324 C1297 1.289 . S
C1325 O1317 1.258 . S
C1325 O1318 1.266 . S
Co1326 O1329 1.970 . S
Co1326 N1343 1.989 . S
Co1326 O1351 1.967 . S
Co1326 O1358 1.920 . S
Co1327 O1330 1.966 . S
Co1327 N1336 2.022 . S
Co1327 N1344 1.993 . S
Co1327 O1352 1.941 . S
C1328 O1329 1.258 . S
C1328 O1330 1.263 . S
O1329 Co1326 1.970 . S
O1329 C1328 1.258 . S
O1330 Co1327 1.966 . S
O1330 C1328 1.263 . S
C1331 O1332 1.235 . S
C1331 O1358 1.289 . S
O1332 C1331 1.235 . S
C1333 C1335 1.400 . S
C1333 N1336 1.351 . S
C1333 C1338 1.501 . S
C1334 C1335 1.387 . S
C1334 N1337 1.341 . S
C1335 C1333 1.400 . S
C1335 C1334 1.387 . S
N1336 Co1327 2.022 . S
N1336 C1333 1.351 . S
N1336 N1337 1.365 . S
N1337 C1334 1.341 . S
N1337 N1336 1.365 . S
N1337 H1357 0.862 . S
C1338 C1333 1.501 . S
C1338 H1339 0.961 . S
C1338 H1340 0.961 . S
C1338 H1341 0.960 . S
H1339 C1338 0.961 . S
H1340 C1338 0.961 . S
H1341 C1338 0.960 . S
C1342 N1343 1.342 . S
C1342 C1346 1.401 . S
C1342 C1347 1.499 . S
N1343 Co1326 1.989 . S
N1343 C1342 1.342 . S
N1343 N1344 1.388 . S
N1344 Co1327 1.993 . S
N1344 N1343 1.388 . S
N1344 C1345 1.346 . S
C1345 N1344 1.346 . S
C1345 C1346 1.396 . S
C1345 C1355 1.510 . S
C1346 C1342 1.401 . S
C1346 C1345 1.396 . S
C1347 C1342 1.499 . S
C1347 H1348 0.959 . S
C1347 H1349 0.960 . S
C1347 H1350 0.961 . S
H1348 C1347 0.959 . S
H1349 C1347 0.960 . S
H1350 C1347 0.961 . S
O1351 Co1326 1.967 . S
O1351 C1359 1.258 . S
O1352 Co1327 1.941 . S
O1352 C1359 1.266 . S
H1353 C1355 0.959 . S
H1354 C1355 0.961 . S
C1355 C1345 1.510 . S
C1355 H1353 0.959 . S
C1355 H1354 0.961 . S
C1355 H1356 0.960 . S
H1356 C1355 0.960 . S
H1357 N1337 0.862 . S
O1358 Co1326 1.920 . S
O1358 C1331 1.289 . S
C1359 O1351 1.258 . S
C1359 O1352 1.266 . S
Co1360 O1363 1.970 . S
Co1360 N1377 1.989 . S
Co1360 O1385 1.967 . S
Co1360 O1392 1.920 . S
Co1361 O1364 1.966 . S
Co1361 N1370 2.022 . S
Co1361 N1378 1.993 . S
Co1361 O1386 1.941 . S
C1362 O1363 1.258 . S
C1362 O1364 1.263 . S
O1363 Co1360 1.970 . S
O1363 C1362 1.258 . S
O1364 Co1361 1.966 . S
O1364 C1362 1.263 . S
C1365 O1366 1.235 . S
C1365 O1392 1.289 . S
O1366 C1365 1.235 . S
C1367 C1369 1.400 . S
C1367 N1370 1.351 . S
C1367 C1372 1.501 . S
C1368 C1369 1.387 . S
C1368 N1371 1.341 . S
C1369 C1367 1.400 . S
C1369 C1368 1.387 . S
N1370 Co1361 2.022 . S
N1370 C1367 1.351 . S
N1370 N1371 1.365 . S
N1371 C1368 1.341 . S
N1371 N1370 1.365 . S
N1371 H1391 0.862 . S
C1372 C1367 1.501 . S
C1372 H1373 0.961 . S
C1372 H1374 0.961 . S
C1372 H1375 0.960 . S
H1373 C1372 0.961 . S
H1374 C1372 0.961 . S
H1375 C1372 0.960 . S
C1376 N1377 1.342 . S
C1376 C1380 1.401 . S
C1376 C1381 1.499 . S
N1377 Co1360 1.989 . S
N1377 C1376 1.342 . S
N1377 N1378 1.388 . S
N1378 Co1361 1.993 . S
N1378 N1377 1.388 . S
N1378 C1379 1.346 . S
C1379 N1378 1.346 . S
C1379 C1380 1.396 . S
C1379 C1389 1.510 . S
C1380 C1376 1.401 . S
C1380 C1379 1.396 . S
C1381 C1376 1.499 . S
C1381 H1382 0.959 . S
C1381 H1383 0.960 . S
C1381 H1384 0.961 . S
H1382 C1381 0.959 . S
H1383 C1381 0.960 . S
H1384 C1381 0.961 . S
O1385 Co1360 1.967 . S
O1385 C1393 1.258 . S
O1386 Co1361 1.941 . S
O1386 C1393 1.266 . S
H1387 C1389 0.959 . S
H1388 C1389 0.961 . S
C1389 C1379 1.510 . S
C1389 H1387 0.959 . S
C1389 H1388 0.961 . S
C1389 H1390 0.960 . S
H1390 C1389 0.960 . S
H1391 N1371 0.862 . S
O1392 Co1360 1.920 . S
O1392 C1365 1.289 . S
C1393 O1385 1.258 . S
C1393 O1386 1.266 . S
Co1394 O1397 1.970 . S
Co1394 N1411 1.989 . S
Co1394 O1419 1.967 . S
Co1394 O1426 1.920 . S
Co1395 O1398 1.966 . S
Co1395 N1404 2.022 . S
Co1395 N1412 1.993 . S
Co1395 O1420 1.941 . S
C1396 O1397 1.258 . S
C1396 O1398 1.263 . S
O1397 Co1394 1.970 . S
O1397 C1396 1.258 . S
O1398 Co1395 1.966 . S
O1398 C1396 1.263 . S
C1399 O1400 1.235 . S
C1399 O1426 1.289 . S
O1400 C1399 1.235 . S
C1401 C1403 1.400 . S
C1401 N1404 1.351 . S
C1401 C1406 1.501 . S
C1402 C1403 1.387 . S
C1402 N1405 1.341 . S
C1403 C1401 1.400 . S
C1403 C1402 1.387 . S
N1404 Co1395 2.022 . S
N1404 C1401 1.351 . S
N1404 N1405 1.365 . S
N1405 C1402 1.341 . S
N1405 N1404 1.365 . S
N1405 H1425 0.862 . S
C1406 C1401 1.501 . S
C1406 H1407 0.961 . S
C1406 H1408 0.961 . S
C1406 H1409 0.960 . S
H1407 C1406 0.961 . S
H1408 C1406 0.961 . S
H1409 C1406 0.960 . S
C1410 N1411 1.342 . S
C1410 C1414 1.401 . S
C1410 C1415 1.499 . S
N1411 Co1394 1.989 . S
N1411 C1410 1.342 . S
N1411 N1412 1.388 . S
N1412 Co1395 1.993 . S
N1412 N1411 1.388 . S
N1412 C1413 1.346 . S
C1413 N1412 1.346 . S
C1413 C1414 1.396 . S
C1413 C1423 1.510 . S
C1414 C1410 1.401 . S
C1414 C1413 1.396 . S
C1415 C1410 1.499 . S
C1415 H1416 0.959 . S
C1415 H1417 0.960 . S
C1415 H1418 0.961 . S
H1416 C1415 0.959 . S
H1417 C1415 0.960 . S
H1418 C1415 0.961 . S
O1419 Co1394 1.967 . S
O1419 C1427 1.258 . S
O1420 Co1395 1.941 . S
O1420 C1427 1.266 . S
H1421 C1423 0.959 . S
H1422 C1423 0.961 . S
C1423 C1413 1.510 . S
C1423 H1421 0.959 . S
C1423 H1422 0.961 . S
C1423 H1424 0.960 . S
H1424 C1423 0.960 . S
H1425 N1405 0.862 . S
O1426 Co1394 1.920 . S
O1426 C1399 1.289 . S
C1427 O1419 1.258 . S
C1427 O1420 1.266 . S
Co1428 O1431 1.970 . S
Co1428 N1445 1.989 . S
Co1428 O1453 1.967 . S
Co1428 O1460 1.920 . S
Co1429 O1432 1.966 . S
Co1429 N1438 2.022 . S
Co1429 N1446 1.993 . S
Co1429 O1454 1.941 . S
C1430 O1431 1.258 . S
C1430 O1432 1.263 . S
O1431 Co1428 1.970 . S
O1431 C1430 1.258 . S
O1432 Co1429 1.966 . S
O1432 C1430 1.263 . S
C1433 O1434 1.235 . S
C1433 O1460 1.289 . S
O1434 C1433 1.235 . S
C1435 C1437 1.400 . S
C1435 N1438 1.351 . S
C1435 C1440 1.501 . S
C1436 C1437 1.387 . S
C1436 N1439 1.341 . S
C1437 C1435 1.400 . S
C1437 C1436 1.387 . S
N1438 Co1429 2.022 . S
N1438 C1435 1.351 . S
N1438 N1439 1.365 . S
N1439 C1436 1.341 . S
N1439 N1438 1.365 . S
N1439 H1459 0.862 . S
C1440 C1435 1.501 . S
C1440 H1441 0.961 . S
C1440 H1442 0.961 . S
C1440 H1443 0.960 . S
H1441 C1440 0.961 . S
H1442 C1440 0.961 . S
H1443 C1440 0.960 . S
C1444 N1445 1.342 . S
C1444 C1448 1.401 . S
C1444 C1449 1.499 . S
N1445 Co1428 1.989 . S
N1445 C1444 1.342 . S
N1445 N1446 1.388 . S
N1446 Co1429 1.993 . S
N1446 N1445 1.388 . S
N1446 C1447 1.346 . S
C1447 N1446 1.346 . S
C1447 C1448 1.396 . S
C1447 C1457 1.510 . S
C1448 C1444 1.401 . S
C1448 C1447 1.396 . S
C1449 C1444 1.499 . S
C1449 H1450 0.959 . S
C1449 H1451 0.960 . S
C1449 H1452 0.961 . S
H1450 C1449 0.959 . S
H1451 C1449 0.960 . S
H1452 C1449 0.961 . S
O1453 Co1428 1.967 . S
O1453 C1461 1.258 . S
O1454 Co1429 1.941 . S
O1454 C1461 1.266 . S
H1455 C1457 0.959 . S
H1456 C1457 0.961 . S
C1457 C1447 1.510 . S
C1457 H1455 0.959 . S
C1457 H1456 0.961 . S
C1457 H1458 0.960 . S
H1458 C1457 0.960 . S
H1459 N1439 0.862 . S
O1460 Co1428 1.920 . S
O1460 C1433 1.289 . S
C1461 O1453 1.258 . S
C1461 O1454 1.266 . S
Co1462 O1465 1.970 . S
Co1462 N1479 1.989 . S
Co1462 O1487 1.967 . S
Co1462 O1494 1.920 . S
Co1463 O1466 1.966 . S
Co1463 N1472 2.022 1_556 S
Co1463 N1480 1.989 1_556 S
Co1463 O1488 1.941 . S
C1464 O1465 1.258 . S
C1464 O1466 1.263 . S
O1465 Co1462 1.970 . S
O1465 C1464 1.258 . S
O1466 Co1463 1.966 . S
O1466 C1464 1.263 . S
C1467 O1468 1.235 . S
C1467 O1494 1.289 . S
O1468 C1467 1.235 . S
C1469 C1471 1.400 . S
C1469 N1472 1.351 . S
C1469 C1474 1.501 . S
C1470 C1471 1.387 . S
C1470 N1473 1.341 . S
C1471 C1469 1.400 . S
C1471 C1470 1.387 . S
N1472 Co1463 2.022 1_554 S
N1472 C1469 1.351 . S
N1472 N1473 1.365 . S
N1473 C1470 1.341 . S
N1473 N1472 1.365 . S
N1473 H1493 0.862 1_554 S
C1474 C1469 1.501 . S
C1474 H1475 0.961 . S
C1474 H1476 0.961 . S
C1474 H1477 0.960 . S
H1475 C1474 0.961 . S
H1476 C1474 0.961 . S
H1477 C1474 0.960 . S
C1478 N1479 1.342 . S
C1478 C1482 1.401 1_556 S
C1478 C1483 1.499 . S
N1479 Co1462 1.989 . S
N1479 C1478 1.342 . S
N1479 N1480 1.383 1_556 S
N1480 Co1463 1.989 1_554 S
N1480 N1479 1.383 1_554 S
N1480 C1481 1.352 . S
C1481 N1480 1.352 . S
C1481 C1482 1.396 . S
C1481 C1491 1.510 . S
C1482 C1478 1.401 1_554 S
C1482 C1481 1.396 . S
C1483 C1478 1.499 . S
C1483 H1484 0.959 . S
C1483 H1485 0.989 . S
C1483 H1486 0.961 . S
H1484 C1483 0.959 . S
H1485 C1483 0.989 . S
H1486 C1483 0.961 . S
O1487 Co1462 1.967 . S
O1487 C1495 1.258 . S
O1488 Co1463 1.941 . S
O1488 C1495 1.266 . S
H1489 C1491 0.959 . S
H1490 C1491 0.961 . S
C1491 C1481 1.510 . S
C1491 H1489 0.959 . S
C1491 H1490 0.961 . S
C1491 H1492 0.960 . S
H1492 C1491 0.960 . S
H1493 N1473 0.862 1_556 S
O1494 Co1462 1.920 . S
O1494 C1467 1.289 . S
C1495 O1487 1.258 . S
C1495 O1488 1.266 . S
Co1496 O1499 1.970 . S
Co1496 N1513 1.989 . S
Co1496 O1521 1.967 . S
Co1496 O1528 1.920 . S
Co1497 O1500 1.966 . S
Co1497 N1506 2.022 . S
Co1497 N1514 1.993 . S
Co1497 O1522 1.941 . S
C1498 O1499 1.258 . S
C1498 O1500 1.263 . S
O1499 Co1496 1.970 . S
O1499 C1498 1.258 . S
O1500 Co1497 1.966 . S
O1500 C1498 1.263 . S
C1501 O1502 1.235 . S
C1501 O1528 1.289 . S
O1502 C1501 1.235 . S
C1503 C1505 1.400 . S
C1503 N1506 1.351 . S
C1503 C1508 1.501 . S
C1504 C1505 1.387 . S
C1504 N1507 1.341 . S
C1505 C1503 1.400 . S
C1505 C1504 1.387 . S
N1506 Co1497 2.022 . S
N1506 C1503 1.351 . S
N1506 N1507 1.365 . S
N1507 C1504 1.341 . S
N1507 N1506 1.365 . S
N1507 H1527 0.862 . S
C1508 C1503 1.501 . S
C1508 H1509 0.961 . S
C1508 H1510 0.961 . S
C1508 H1511 0.960 . S
H1509 C1508 0.961 . S
H1510 C1508 0.961 . S
H1511 C1508 0.960 . S
C1512 N1513 1.342 . S
C1512 C1516 1.401 . S
C1512 C1517 1.499 . S
N1513 Co1496 1.989 . S
N1513 C1512 1.342 . S
N1513 N1514 1.388 . S
N1514 Co1497 1.993 . S
N1514 N1513 1.388 . S
N1514 C1515 1.346 . S
C1515 N1514 1.346 . S
C1515 C1516 1.396 . S
C1515 C1525 1.510 . S
C1516 C1512 1.401 . S
C1516 C1515 1.396 . S
C1517 C1512 1.499 . S
C1517 H1518 0.959 . S
C1517 H1519 0.960 . S
C1517 H1520 0.961 . S
H1518 C1517 0.959 . S
H1519 C1517 0.960 . S
H1520 C1517 0.961 . S
O1521 Co1496 1.967 . S
O1521 C1529 1.258 . S
O1522 Co1497 1.941 . S
O1522 C1529 1.266 . S
H1523 C1525 0.959 . S
H1524 C1525 0.961 . S
C1525 C1515 1.510 . S
C1525 H1523 0.959 . S
C1525 H1524 0.961 . S
C1525 H1526 0.960 . S
H1526 C1525 0.960 . S
H1527 N1507 0.862 . S
O1528 Co1496 1.920 . S
O1528 C1501 1.289 . S
C1529 O1521 1.258 . S
C1529 O1522 1.266 . S
Co1530 O1533 1.970 . S
Co1530 N1547 1.989 . S
Co1530 O1555 1.967 . S
Co1530 O1562 1.920 . S
Co1531 O1534 1.966 . S
Co1531 N1540 2.022 1_554 S
Co1531 N1548 1.989 1_554 S
Co1531 O1556 1.941 . S
C1532 O1533 1.258 . S
C1532 O1534 1.263 . S
O1533 Co1530 1.970 . S
O1533 C1532 1.258 . S
O1534 Co1531 1.966 . S
O1534 C1532 1.263 . S
C1535 O1536 1.235 . S
C1535 O1562 1.289 . S
O1536 C1535 1.235 . S
C1537 C1539 1.400 . S
C1537 N1540 1.351 . S
C1537 C1542 1.501 . S
C1538 C1539 1.387 . S
C1538 N1541 1.341 . S
C1539 C1537 1.400 . S
C1539 C1538 1.387 . S
N1540 Co1531 2.022 1_556 S
N1540 C1537 1.351 . S
N1540 N1541 1.365 . S
N1541 C1538 1.341 . S
N1541 N1540 1.365 . S
N1541 H1561 0.862 1_556 S
C1542 C1537 1.501 . S
C1542 H1543 0.961 . S
C1542 H1544 0.961 . S
C1542 H1545 0.960 . S
H1543 C1542 0.961 . S
H1544 C1542 0.961 . S
H1545 C1542 0.960 . S
C1546 N1547 1.342 . S
C1546 C1550 1.401 1_554 S
C1546 C1551 1.499 . S
N1547 Co1530 1.989 . S
N1547 C1546 1.342 . S
N1547 N1548 1.383 1_554 S
N1548 Co1531 1.989 1_556 S
N1548 N1547 1.383 1_556 S
N1548 C1549 1.352 . S
C1549 N1548 1.352 . S
C1549 C1550 1.396 . S
C1549 C1559 1.510 . S
C1550 C1546 1.401 1_556 S
C1550 C1549 1.396 . S
C1551 C1546 1.499 . S
C1551 H1552 0.959 . S
C1551 H1553 0.989 . S
C1551 H1554 0.961 . S
H1552 C1551 0.959 . S
H1553 C1551 0.989 . S
H1554 C1551 0.961 . S
O1555 Co1530 1.967 . S
O1555 C1563 1.258 . S
O1556 Co1531 1.941 . S
O1556 C1563 1.266 . S
H1557 C1559 0.959 . S
H1558 C1559 0.961 . S
C1559 C1549 1.510 . S
C1559 H1557 0.959 . S
C1559 H1558 0.961 . S
C1559 H1560 0.960 . S
H1560 C1559 0.960 . S
H1561 N1541 0.862 1_554 S
O1562 Co1530 1.920 . S
O1562 C1535 1.289 . S
C1563 O1555 1.258 . S
C1563 O1556 1.266 . S
Co1564 O1567 1.970 . S
Co1564 N1581 1.989 . S
Co1564 O1589 1.967 . S
Co1564 O1596 1.920 . S
Co1565 O1568 1.966 . S
Co1565 N1574 2.022 . S
Co1565 N1582 1.993 . S
Co1565 O1590 1.941 . S
C1566 O1567 1.258 . S
C1566 O1568 1.263 . S
O1567 Co1564 1.970 . S
O1567 C1566 1.258 . S
O1568 Co1565 1.966 . S
O1568 C1566 1.263 . S
C1569 O1570 1.235 . S
C1569 O1596 1.289 . S
O1570 C1569 1.235 . S
C1571 C1573 1.400 . S
C1571 N1574 1.351 . S
C1571 C1576 1.501 . S
C1572 C1573 1.387 . S
C1572 N1575 1.341 . S
C1573 C1571 1.400 . S
C1573 C1572 1.387 . S
N1574 Co1565 2.022 . S
N1574 C1571 1.351 . S
N1574 N1575 1.365 . S
N1575 C1572 1.341 . S
N1575 N1574 1.365 . S
N1575 H1595 0.862 . S
C1576 C1571 1.501 . S
C1576 H1577 0.961 . S
C1576 H1578 0.961 . S
C1576 H1579 0.960 . S
H1577 C1576 0.961 . S
H1578 C1576 0.961 . S
H1579 C1576 0.960 . S
C1580 N1581 1.342 . S
C1580 C1584 1.401 . S
C1580 C1585 1.499 . S
N1581 Co1564 1.989 . S
N1581 C1580 1.342 . S
N1581 N1582 1.388 . S
N1582 Co1565 1.993 . S
N1582 N1581 1.388 . S
N1582 C1583 1.346 . S
C1583 N1582 1.346 . S
C1583 C1584 1.396 . S
C1583 C1593 1.510 . S
C1584 C1580 1.401 . S
C1584 C1583 1.396 . S
C1585 C1580 1.499 . S
C1585 H1586 0.959 . S
C1585 H1587 0.960 . S
C1585 H1588 0.961 . S
H1586 C1585 0.959 . S
H1587 C1585 0.960 . S
H1588 C1585 0.961 . S
O1589 Co1564 1.967 . S
O1589 C1597 1.258 . S
O1590 Co1565 1.941 . S
O1590 C1597 1.266 . S
H1591 C1593 0.959 . S
H1592 C1593 0.961 . S
C1593 C1583 1.510 . S
C1593 H1591 0.959 . S
C1593 H1592 0.961 . S
C1593 H1594 0.960 . S
H1594 C1593 0.960 . S
H1595 N1575 0.862 . S
O1596 Co1564 1.920 . S
O1596 C1569 1.289 . S
C1597 O1589 1.258 . S
C1597 O1590 1.266 . S
Co1598 O1601 1.970 . S
Co1598 N1615 1.989 . S
Co1598 O1623 1.967 . S
Co1598 O1630 1.920 . S
Co1599 O1602 1.966 . S
Co1599 N1608 2.022 . S
Co1599 N1616 1.993 . S
Co1599 O1624 1.941 . S
C1600 O1601 1.258 . S
C1600 O1602 1.263 . S
O1601 Co1598 1.970 . S
O1601 C1600 1.258 . S
O1602 Co1599 1.966 . S
O1602 C1600 1.263 . S
C1603 O1604 1.235 . S
C1603 O1630 1.289 . S
O1604 C1603 1.235 . S
C1605 C1607 1.400 . S
C1605 N1608 1.351 . S
C1605 C1610 1.501 . S
C1606 C1607 1.387 . S
C1606 N1609 1.341 . S
C1607 C1605 1.400 . S
C1607 C1606 1.387 . S
N1608 Co1599 2.022 . S
N1608 C1605 1.351 . S
N1608 N1609 1.365 . S
N1609 C1606 1.341 . S
N1609 N1608 1.365 . S
N1609 H1629 0.862 . S
C1610 C1605 1.501 . S
C1610 H1611 0.961 . S
C1610 H1612 0.961 . S
C1610 H1613 0.960 . S
H1611 C1610 0.961 . S
H1612 C1610 0.961 . S
H1613 C1610 0.960 . S
C1614 N1615 1.342 . S
C1614 C1618 1.401 . S
C1614 C1619 1.499 . S
N1615 Co1598 1.989 . S
N1615 C1614 1.342 . S
N1615 N1616 1.388 . S
N1616 Co1599 1.993 . S
N1616 N1615 1.388 . S
N1616 C1617 1.346 . S
C1617 N1616 1.346 . S
C1617 C1618 1.396 . S
C1617 C1627 1.510 . S
C1618 C1614 1.401 . S
C1618 C1617 1.396 . S
C1619 C1614 1.499 . S
C1619 H1620 0.959 . S
C1619 H1621 0.960 . S
C1619 H1622 0.961 . S
H1620 C1619 0.959 . S
H1621 C1619 0.960 . S
H1622 C1619 0.961 . S
O1623 Co1598 1.967 . S
O1623 C1631 1.258 . S
O1624 Co1599 1.941 . S
O1624 C1631 1.266 . S
H1625 C1627 0.959 . S
H1626 C1627 0.961 . S
C1627 C1617 1.510 . S
C1627 H1625 0.959 . S
C1627 H1626 0.961 . S
C1627 H1628 0.960 . S
H1628 C1627 0.960 . S
H1629 N1609 0.862 . S
O1630 Co1598 1.920 . S
O1630 C1603 1.289 . S
C1631 O1623 1.258 . S
C1631 O1624 1.266 . S
H1632 C1638 0.930 . S
H1633 C1642 0.930 . S
H1634 C1647 0.929 . S
H1635 C1645 0.929 . S
H1636 C1640 0.929 . S
H1637 C1646 0.929 . S
C1638 H1632 0.930 . S
C1638 C1639 1.367 . S
C1638 C1646 1.378 . S
C1639 C1638 1.367 . S
C1639 C1647 1.433 . S
C1640 H1636 0.929 . S
C1640 C1642 1.378 . S
C1640 C1644 1.350 . S
C1641 C1644 1.463 . S
C1641 C1646 1.350 . S
C1641 N1649 1.427 . S
C1642 H1633 0.930 . S
C1642 C1640 1.378 . S
C1642 C1643 1.367 . S
C1643 C1642 1.367 . S
C1643 C1645 1.433 . S
C1644 C1640 1.350 . S
C1644 C1641 1.463 . S
C1644 N1648 1.427 . S
C1645 H1635 0.929 . S
C1645 C1643 1.433 . S
C1645 N1648 1.384 . S
C1646 H1637 0.929 . S
C1646 C1638 1.378 . S
C1646 C1641 1.350 . S
C1647 H1634 0.929 . S
C1647 C1639 1.433 . S
C1647 N1649 1.384 . S
N1648 C1644 1.427 . S
N1648 C1645 1.384 . S
N1649 C1641 1.427 . S
N1649 C1647 1.384 . S
H1650 C1656 0.930 . S
H1651 C1660 0.930 . S
H1652 C1665 0.929 . S
H1653 C1663 0.929 . S
H1654 C1658 0.929 . S
H1655 C1664 0.929 . S
C1656 H1650 0.930 . S
C1656 C1657 1.367 . S
C1656 C1664 1.378 . S
C1657 C1656 1.367 . S
C1657 C1665 1.433 . S
C1658 H1654 0.929 . S
C1658 C1660 1.378 . S
C1658 C1662 1.350 . S
C1659 C1662 1.463 . S
C1659 C1664 1.350 . S
C1659 N1667 1.427 . S
C1660 H1651 0.930 . S
C1660 C1658 1.378 . S
C1660 C1661 1.367 . S
C1661 C1660 1.367 . S
C1661 C1663 1.433 . S
C1662 C1658 1.350 . S
C1662 C1659 1.463 . S
C1662 N1666 1.427 . S
C1663 H1653 0.929 . S
C1663 C1661 1.433 . S
C1663 N1666 1.384 . S
C1664 H1655 0.929 . S
C1664 C1656 1.378 . S
C1664 C1659 1.350 . S
C1665 H1652 0.929 . S
C1665 C1657 1.433 . S
C1665 N1667 1.384 . S
N1666 C1662 1.427 . S
N1666 C1663 1.384 . S
N1667 C1659 1.427 . S
N1667 C1665 1.384 . S
H1668 C1674 0.930 . S
H1669 C1678 0.930 1_556 S
H1670 C1683 0.929 . S
H1671 C1681 0.929 . S
H1672 C1676 0.929 . S
H1673 C1682 0.929 . S
C1674 H1668 0.930 . S
C1674 C1675 1.367 . S
C1674 C1682 1.378 . S
C1675 C1674 1.367 . S
C1675 C1683 1.433 . S
C1676 H1672 0.929 . S
C1676 C1678 1.378 . S
C1676 C1680 1.350 . S
C1677 C1680 1.463 . S
C1677 C1682 1.350 . S
C1677 N1685 1.427 . S
C1678 H1669 0.930 1_554 S
C1678 C1676 1.378 . S
C1678 C1679 1.367 . S
C1679 C1678 1.367 . S
C1679 C1681 1.433 . S
C1680 C1676 1.350 . S
C1680 C1677 1.463 . S
C1680 N1684 1.427 . S
C1681 H1671 0.929 . S
C1681 C1679 1.433 . S
C1681 N1684 1.384 . S
C1682 H1673 0.929 . S
C1682 C1674 1.378 . S
C1682 C1677 1.350 . S
C1683 H1670 0.929 . S
C1683 C1675 1.433 . S
C1683 N1685 1.384 . S
N1684 C1680 1.427 . S
N1684 C1681 1.384 . S
N1685 C1677 1.427 . S
N1685 C1683 1.384 . S
H1686 C1692 0.930 . S
H1687 C1696 0.930 . S
H1688 C1701 0.929 . S
H1689 C1699 0.929 . S
H1690 C1694 0.929 . S
H1691 C1700 0.929 . S
C1692 H1686 0.930 . S
C1692 C1693 1.367 . S
C1692 C1700 1.378 . S
C1693 C1692 1.367 . S
C1693 C1701 1.433 . S
C1694 H1690 0.929 . S
C1694 C1696 1.378 . S
C1694 C1698 1.350 . S
C1695 C1698 1.463 . S
C1695 C1700 1.350 . S
C1695 N1703 1.427 . S
C1696 H1687 0.930 . S
C1696 C1694 1.378 . S
C1696 C1697 1.367 . S
C1697 C1696 1.367 . S
C1697 C1699 1.433 . S
C1698 C1694 1.350 . S
C1698 C1695 1.463 . S
C1698 N1702 1.427 . S
C1699 H1689 0.929 . S
C1699 C1697 1.433 . S
C1699 N1702 1.384 . S
C1700 H1691 0.929 . S
C1700 C1692 1.378 . S
C1700 C1695 1.350 . S
C1701 H1688 0.929 . S
C1701 C1693 1.433 . S
C1701 N1703 1.384 . S
N1702 C1698 1.427 . S
N1702 C1699 1.384 . S
N1703 C1695 1.427 . S
N1703 C1701 1.384 . S
H1704 C1710 0.930 . S
H1705 C1714 0.930 1_554 S
H1706 C1719 0.929 . S
H1707 C1717 0.929 . S
H1708 C1712 0.929 . S
H1709 C1718 0.929 . S
C1710 H1704 0.930 . S
C1710 C1711 1.367 . S
C1710 C1718 1.378 . S
C1711 C1710 1.367 . S
C1711 C1719 1.433 . S
C1712 H1708 0.929 . S
C1712 C1714 1.378 . S
C1712 C1716 1.350 . S
C1713 C1716 1.463 . S
C1713 C1718 1.350 . S
C1713 N1721 1.427 . S
C1714 H1705 0.930 1_556 S
C1714 C1712 1.378 . S
C1714 C1715 1.367 . S
C1715 C1714 1.367 . S
C1715 C1717 1.433 . S
C1716 C1712 1.350 . S
C1716 C1713 1.463 . S
C1716 N1720 1.427 . S
C1717 H1707 0.929 . S
C1717 C1715 1.433 . S
C1717 N1720 1.384 . S
C1718 H1709 0.929 . S
C1718 C1710 1.378 . S
C1718 C1713 1.350 . S
C1719 H1706 0.929 . S
C1719 C1711 1.433 . S
C1719 N1721 1.384 . S
N1720 C1716 1.427 . S
N1720 C1717 1.384 . S
N1721 C1713 1.427 . S
N1721 C1719 1.384 . S
H1722 C1728 0.930 . S
H1723 C1732 0.930 . S
H1724 C1737 0.929 . S
H1725 C1735 0.929 . S
H1726 C1730 0.929 . S
H1727 C1736 0.929 . S
C1728 H1722 0.930 . S
C1728 C1729 1.367 . S
C1728 C1736 1.378 . S
C1729 C1728 1.367 . S
C1729 C1737 1.433 . S
C1730 H1726 0.929 . S
C1730 C1732 1.378 . S
C1730 C1734 1.350 . S
C1731 C1734 1.463 . S
C1731 C1736 1.350 . S
C1731 N1739 1.427 . S
C1732 H1723 0.930 . S
C1732 C1730 1.378 . S
C1732 C1733 1.367 . S
C1733 C1732 1.367 . S
C1733 C1735 1.433 . S
C1734 C1730 1.350 . S
C1734 C1731 1.463 . S
C1734 N1738 1.427 . S
C1735 H1725 0.929 . S
C1735 C1733 1.433 . S
C1735 N1738 1.384 . S
C1736 H1727 0.929 . S
C1736 C1728 1.378 . S
C1736 C1731 1.350 . S
C1737 H1724 0.929 . S
C1737 C1729 1.433 . S
C1737 N1739 1.384 . S
N1738 C1734 1.427 . S
N1738 C1735 1.384 . S
N1739 C1731 1.427 . S
N1739 C1737 1.384 . S
H1740 C1746 0.930 . S
H1741 C1750 0.930 . S
H1742 C1755 0.929 . S
H1743 C1753 0.929 . S
H1744 C1748 0.929 . S
H1745 C1754 0.929 . S
C1746 H1740 0.930 . S
C1746 C1747 1.367 . S
C1746 C1754 1.378 . S
C1747 C1746 1.367 . S
C1747 C1755 1.433 . S
C1748 H1744 0.929 . S
C1748 C1750 1.378 . S
C1748 C1752 1.350 . S
C1749 C1752 1.463 . S
C1749 C1754 1.350 . S
C1749 N1757 1.427 . S
C1750 H1741 0.930 . S
C1750 C1748 1.378 . S
C1750 C1751 1.367 . S
C1751 C1750 1.367 . S
C1751 C1753 1.433 . S
C1752 C1748 1.350 . S
C1752 C1749 1.463 . S
C1752 N1756 1.427 . S
C1753 H1743 0.929 . S
C1753 C1751 1.433 . S
C1753 N1756 1.384 . S
C1754 H1745 0.929 . S
C1754 C1746 1.378 . S
C1754 C1749 1.350 . S
C1755 H1742 0.929 . S
C1755 C1747 1.433 . S
C1755 N1757 1.384 . S
N1756 C1752 1.427 . S
N1756 C1753 1.384 . S
N1757 C1749 1.427 . S
N1757 C1755 1.384 . S
H1758 C1764 0.930 . S
H1759 C1768 0.930 . S
H1760 C1773 0.929 . S
H1761 C1771 0.929 . S
H1762 C1766 0.929 . S
H1763 C1772 0.929 . S
C1764 H1758 0.930 . S
C1764 C1765 1.367 . S
C1764 C1772 1.378 . S
C1765 C1764 1.367 . S
C1765 C1773 1.433 . S
C1766 H1762 0.929 . S
C1766 C1768 1.378 . S
C1766 C1770 1.350 . S
C1767 C1770 1.463 . S
C1767 C1772 1.350 . S
C1767 N1775 1.427 . S
C1768 H1759 0.930 . S
C1768 C1766 1.378 . S
C1768 C1769 1.367 . S
C1769 C1768 1.367 . S
C1769 C1771 1.433 . S
C1770 C1766 1.350 . S
C1770 C1767 1.463 . S
C1770 N1774 1.427 . S
C1771 H1761 0.929 . S
C1771 C1769 1.433 . S
C1771 N1774 1.384 . S
C1772 H1763 0.929 . S
C1772 C1764 1.378 . S
C1772 C1767 1.350 . S
C1773 H1760 0.929 . S
C1773 C1765 1.433 . S
C1773 N1775 1.384 . S
N1774 C1770 1.427 . S
N1774 C1771 1.384 . S
N1775 C1767 1.427 . S
N1775 C1773 1.384 . S
H1776 C1782 0.930 . S
H1777 C1786 0.930 . S
H1778 C1791 0.929 . S
H1779 C1789 0.929 . S
H1780 C1784 0.929 . S
H1781 C1790 0.929 . S
C1782 H1776 0.930 . S
C1782 C1783 1.367 . S
C1782 C1790 1.378 . S
C1783 C1782 1.367 . S
C1783 C1791 1.433 . S
C1784 H1780 0.929 . S
C1784 C1786 1.378 . S
C1784 C1788 1.350 . S
C1785 C1788 1.463 . S
C1785 C1790 1.350 . S
C1785 N1793 1.427 . S
C1786 H1777 0.930 . S
C1786 C1784 1.378 . S
C1786 C1787 1.367 . S
C1787 C1786 1.367 . S
C1787 C1789 1.433 . S
C1788 C1784 1.350 . S
C1788 C1785 1.463 . S
C1788 N1792 1.427 . S
C1789 H1779 0.929 . S
C1789 C1787 1.433 . S
C1789 N1792 1.384 . S
C1790 H1781 0.929 . S
C1790 C1782 1.378 . S
C1790 C1785 1.350 . S
C1791 H1778 0.929 . S
C1791 C1783 1.433 . S
C1791 N1793 1.384 . S
N1792 C1788 1.427 . S
N1792 C1789 1.384 . S
N1793 C1785 1.427 . S
N1793 C1791 1.384 . S
H1794 C1800 0.930 . S
H1795 C1804 0.930 . S
H1796 C1809 0.929 . S
H1797 C1807 0.929 . S
H1798 C1802 0.929 . S
H1799 C1808 0.929 . S
C1800 H1794 0.930 . S
C1800 C1801 1.367 . S
C1800 C1808 1.378 . S
C1801 C1800 1.367 . S
C1801 C1809 1.433 . S
C1802 H1798 0.929 . S
C1802 C1804 1.378 . S
C1802 C1806 1.350 . S
C1803 C1806 1.463 . S
C1803 C1808 1.350 . S
C1803 N1811 1.427 . S
C1804 H1795 0.930 . S
C1804 C1802 1.378 . S
C1804 C1805 1.367 . S
C1805 C1804 1.367 . S
C1805 C1807 1.433 . S
C1806 C1802 1.350 . S
C1806 C1803 1.463 . S
C1806 N1810 1.427 . S
C1807 H1797 0.929 . S
C1807 C1805 1.433 . S
C1807 N1810 1.384 . S
C1808 H1799 0.929 . S
C1808 C1800 1.378 . S
C1808 C1803 1.350 . S
C1809 H1796 0.929 . S
C1809 C1801 1.433 . S
C1809 N1811 1.384 . S
N1810 C1806 1.427 . S
N1810 C1807 1.384 . S
N1811 C1803 1.427 . S
N1811 C1809 1.384 . S
H1812 C1818 0.930 . S
H1813 C1822 0.930 . S
H1814 C1827 0.929 1_455 S
H1815 C1825 0.929 . S
H1816 C1820 0.929 . S
H1817 C1826 0.929 . S
C1818 H1812 0.930 . S
C1818 C1819 1.367 . S
C1818 C1826 1.378 . S
C1819 C1818 1.367 . S
C1819 C1827 1.433 . S
C1820 H1816 0.929 . S
C1820 C1822 1.378 . S
C1820 C1824 1.350 . S
C1821 C1824 1.463 . S
C1821 C1826 1.350 . S
C1821 N1829 1.427 . S
C1822 H1813 0.930 . S
C1822 C1820 1.378 . S
C1822 C1823 1.367 . S
C1823 C1822 1.367 . S
C1823 C1825 1.433 . S
C1824 C1820 1.350 . S
C1824 C1821 1.463 . S
C1824 N1828 1.427 . S
C1825 H1815 0.929 . S
C1825 C1823 1.433 . S
C1825 N1828 1.384 . S
C1826 H1817 0.929 . S
C1826 C1818 1.378 . S
C1826 C1821 1.350 . S
C1827 H1814 0.929 1_655 S
C1827 C1819 1.433 . S
C1827 N1829 1.384 . S
N1828 C1824 1.427 . S
N1828 C1825 1.384 . S
N1829 C1821 1.427 . S
N1829 C1827 1.384 . S
H1830 C1836 0.930 . S
H1831 C1840 0.930 . S
H1832 C1845 0.929 . S
H1833 C1843 0.929 . S
H1834 C1838 0.929 . S
H1835 C1844 0.929 . S
C1836 H1830 0.930 . S
C1836 C1837 1.367 . S
C1836 C1844 1.378 . S
C1837 C1836 1.367 . S
C1837 C1845 1.433 . S
C1838 H1834 0.929 . S
C1838 C1840 1.378 . S
C1838 C1842 1.350 . S
C1839 C1842 1.463 . S
C1839 C1844 1.350 . S
C1839 N1847 1.427 . S
C1840 H1831 0.930 . S
C1840 C1838 1.378 . S
C1840 C1841 1.367 . S
C1841 C1840 1.367 . S
C1841 C1843 1.433 . S
C1842 C1838 1.350 . S
C1842 C1839 1.463 . S
C1842 N1846 1.427 . S
C1843 H1833 0.929 . S
C1843 C1841 1.433 . S
C1843 N1846 1.384 . S
C1844 H1835 0.929 . S
C1844 C1836 1.378 . S
C1844 C1839 1.350 . S
C1845 H1832 0.929 . S
C1845 C1837 1.433 . S
C1845 N1847 1.384 . S
N1846 C1842 1.427 . S
N1846 C1843 1.384 . S
N1847 C1839 1.427 . S
N1847 C1845 1.384 . S
H1848 C1854 0.930 . S
H1849 C1858 0.930 . S
H1850 C1863 0.929 . S
H1851 C1861 0.929 . S
H1852 C1856 0.929 . S
H1853 C1862 0.929 . S
C1854 H1848 0.930 . S
C1854 C1855 1.367 . S
C1854 C1862 1.378 . S
C1855 C1854 1.367 . S
C1855 C1863 1.433 . S
C1856 H1852 0.929 . S
C1856 C1858 1.378 . S
C1856 C1860 1.350 . S
C1857 C1860 1.463 . S
C1857 C1862 1.350 . S
C1857 N1865 1.427 . S
C1858 H1849 0.930 . S
C1858 C1856 1.378 . S
C1858 C1859 1.367 . S
C1859 C1858 1.367 . S
C1859 C1861 1.433 . S
C1860 C1856 1.350 . S
C1860 C1857 1.463 . S
C1860 N1864 1.427 . S
C1861 H1851 0.929 . S
C1861 C1859 1.433 . S
C1861 N1864 1.384 . S
C1862 H1853 0.929 . S
C1862 C1854 1.378 . S
C1862 C1857 1.350 . S
C1863 H1850 0.929 . S
C1863 C1855 1.433 . S
C1863 N1865 1.384 . S
N1864 C1860 1.427 . S
N1864 C1861 1.384 . S
N1865 C1857 1.427 . S
N1865 C1863 1.384 . S
H1866 C1872 0.930 . S
H1867 C1876 0.930 . S
H1868 C1881 0.929 . S
H1869 C1879 0.929 . S
H1870 C1874 0.929 . S
H1871 C1880 0.929 . S
C1872 H1866 0.930 . S
C1872 C1873 1.367 . S
C1872 C1880 1.378 . S
C1873 C1872 1.367 . S
C1873 C1881 1.433 . S
C1874 H1870 0.929 . S
C1874 C1876 1.378 . S
C1874 C1878 1.350 . S
C1875 C1878 1.463 . S
C1875 C1880 1.350 . S
C1875 N1883 1.427 . S
C1876 H1867 0.930 . S
C1876 C1874 1.378 . S
C1876 C1877 1.367 . S
C1877 C1876 1.367 . S
C1877 C1879 1.433 . S
C1878 C1874 1.350 . S
C1878 C1875 1.463 . S
C1878 N1882 1.427 . S
C1879 H1869 0.929 . S
C1879 C1877 1.433 . S
C1879 N1882 1.384 . S
C1880 H1871 0.929 . S
C1880 C1872 1.378 . S
C1880 C1875 1.350 . S
C1881 H1868 0.929 . S
C1881 C1873 1.433 . S
C1881 N1883 1.384 . S
N1882 C1878 1.427 . S
N1882 C1879 1.384 . S
N1883 C1875 1.427 . S
N1883 C1881 1.384 . S
H1884 C1890 0.930 . S
H1885 C1894 0.930 . S
H1886 C1899 0.929 1_455 S
H1887 C1897 0.929 . S
H1888 C1892 0.929 . S
H1889 C1898 0.929 . S
C1890 H1884 0.930 . S
C1890 C1891 1.367 . S
C1890 C1898 1.378 . S
C1891 C1890 1.367 . S
C1891 C1899 1.433 . S
C1892 H1888 0.929 . S
C1892 C1894 1.378 . S
C1892 C1896 1.350 . S
C1893 C1896 1.463 . S
C1893 C1898 1.350 . S
C1893 N1901 1.427 . S
C1894 H1885 0.930 . S
C1894 C1892 1.378 . S
C1894 C1895 1.367 . S
C1895 C1894 1.367 . S
C1895 C1897 1.433 . S
C1896 C1892 1.350 . S
C1896 C1893 1.463 . S
C1896 N1900 1.427 . S
C1897 H1887 0.929 . S
C1897 C1895 1.433 . S
C1897 N1900 1.384 . S
C1898 H1889 0.929 . S
C1898 C1890 1.378 . S
C1898 C1893 1.350 . S
C1899 H1886 0.929 1_655 S
C1899 C1891 1.433 . S
C1899 N1901 1.384 . S
N1900 C1896 1.427 . S
N1900 C1897 1.384 . S
N1901 C1893 1.427 . S
N1901 C1899 1.384 . S
H1902 C1908 0.930 . S
H1903 C1912 0.930 . S
H1904 C1917 0.929 . S
H1905 C1915 0.929 . S
H1906 C1910 0.929 . S
H1907 C1916 0.929 . S
C1908 H1902 0.930 . S
C1908 C1909 1.367 . S
C1908 C1916 1.378 . S
C1909 C1908 1.367 . S
C1909 C1917 1.433 . S
C1910 H1906 0.929 . S
C1910 C1912 1.378 . S
C1910 C1914 1.350 . S
C1911 C1914 1.463 . S
C1911 C1916 1.350 . S
C1911 N1919 1.427 . S
C1912 H1903 0.930 . S
C1912 C1910 1.378 . S
C1912 C1913 1.367 . S
C1913 C1912 1.367 . S
C1913 C1915 1.433 . S
C1914 C1910 1.350 . S
C1914 C1911 1.463 . S
C1914 N1918 1.427 . S
C1915 H1905 0.929 . S
C1915 C1913 1.433 . S
C1915 N1918 1.384 . S
C1916 H1907 0.929 . S
C1916 C1908 1.378 . S
C1916 C1911 1.350 . S
C1917 H1904 0.929 . S
C1917 C1909 1.433 . S
C1917 N1919 1.384 . S
N1918 C1914 1.427 . S
N1918 C1915 1.384 . S
N1919 C1911 1.427 . S
N1919 C1917 1.384 . S
H1920 C1926 0.930 . S
H1921 C1930 0.930 . S
H1922 C1935 0.929 . S
H1923 C1933 0.929 . S
H1924 C1928 0.929 . S
H1925 C1934 0.929 . S
C1926 H1920 0.930 . S
C1926 C1927 1.367 . S
C1926 C1934 1.378 . S
C1927 C1926 1.367 . S
C1927 C1935 1.433 . S
C1928 H1924 0.929 . S
C1928 C1930 1.378 . S
C1928 C1932 1.350 . S
C1929 C1932 1.463 . S
C1929 C1934 1.350 . S
C1929 N1937 1.427 . S
C1930 H1921 0.930 . S
C1930 C1928 1.378 . S
C1930 C1931 1.367 . S
C1931 C1930 1.367 . S
C1931 C1933 1.433 . S
C1932 C1928 1.350 . S
C1932 C1929 1.463 . S
C1932 N1936 1.427 . S
C1933 H1923 0.929 . S
C1933 C1931 1.433 . S
C1933 N1936 1.384 . S
C1934 H1925 0.929 . S
C1934 C1926 1.378 . S
C1934 C1929 1.350 . S
C1935 H1922 0.929 . S
C1935 C1927 1.433 . S
C1935 N1937 1.384 . S
N1936 C1932 1.427 . S
N1936 C1933 1.384 . S
N1937 C1929 1.427 . S
N1937 C1935 1.384 . S
H1938 C1944 0.930 1_545 S
H1939 C1948 0.930 . S
H1940 C1953 0.929 . S
H1941 C1951 0.929 . S
H1942 C1946 0.929 . S
H1943 C1952 0.929 . S
C1944 H1938 0.930 1_565 S
C1944 C1945 1.367 . S
C1944 C1952 1.378 . S
C1945 C1944 1.367 . S
C1945 C1953 1.433 . S
C1946 H1942 0.929 . S
C1946 C1948 1.378 . S
C1946 C1950 1.350 . S
C1947 C1950 1.463 . S
C1947 C1952 1.350 . S
C1947 N1955 1.427 . S
C1948 H1939 0.930 . S
C1948 C1946 1.378 . S
C1948 C1949 1.367 . S
C1949 C1948 1.367 . S
C1949 C1951 1.433 . S
C1950 C1946 1.350 . S
C1950 C1947 1.463 . S
C1950 N1954 1.427 . S
C1951 H1941 0.929 . S
C1951 C1949 1.433 . S
C1951 N1954 1.384 . S
C1952 H1943 0.929 . S
C1952 C1944 1.378 . S
C1952 C1947 1.350 . S
C1953 H1940 0.929 . S
C1953 C1945 1.433 . S
C1953 N1955 1.384 . S
N1954 C1950 1.427 . S
N1954 C1951 1.384 . S
N1955 C1947 1.427 . S
N1955 C1953 1.384 . S
H1956 C1962 0.930 . S
H1957 C1966 0.930 . S
H1958 C1971 0.929 . S
H1959 C1969 0.929 . S
H1960 C1964 0.929 . S
H1961 C1970 0.929 . S
C1962 H1956 0.930 . S
C1962 C1963 1.367 . S
C1962 C1970 1.378 . S
C1963 C1962 1.367 . S
C1963 C1971 1.433 . S
C1964 H1960 0.929 . S
C1964 C1966 1.378 . S
C1964 C1968 1.350 . S
C1965 C1968 1.463 . S
C1965 C1970 1.350 . S
C1965 N1973 1.427 . S
C1966 H1957 0.930 . S
C1966 C1964 1.378 . S
C1966 C1967 1.367 . S
C1967 C1966 1.367 . S
C1967 C1969 1.433 . S
C1968 C1964 1.350 . S
C1968 C1965 1.463 . S
C1968 N1972 1.427 . S
C1969 H1959 0.929 . S
C1969 C1967 1.433 . S
C1969 N1972 1.384 . S
C1970 H1961 0.929 . S
C1970 C1962 1.378 . S
C1970 C1965 1.350 . S
C1971 H1958 0.929 . S
C1971 C1963 1.433 . S
C1971 N1973 1.384 . S
N1972 C1968 1.427 . S
N1972 C1969 1.384 . S
N1973 C1965 1.427 . S
N1973 C1971 1.384 . S
H1974 C1980 0.930 . S
H1975 C1984 0.930 1_565 S
H1976 C1989 0.929 . S
H1977 C1987 0.929 . S
H1978 C1982 0.929 . S
H1979 C1988 0.929 . S
C1980 H1974 0.930 . S
C1980 C1981 1.367 . S
C1980 C1988 1.378 . S
C1981 C1980 1.367 . S
C1981 C1989 1.433 . S
C1982 H1978 0.929 . S
C1982 C1984 1.378 . S
C1982 C1986 1.350 . S
C1983 C1986 1.463 . S
C1983 C1988 1.350 . S
C1983 N1991 1.427 . S
C1984 H1975 0.930 1_545 S
C1984 C1982 1.378 . S
C1984 C1985 1.367 . S
C1985 C1984 1.367 . S
C1985 C1987 1.433 . S
C1986 C1982 1.350 . S
C1986 C1983 1.463 . S
C1986 N1990 1.427 . S
C1987 H1977 0.929 . S
C1987 C1985 1.433 . S
C1987 N1990 1.384 . S
C1988 H1979 0.929 . S
C1988 C1980 1.378 . S
C1988 C1983 1.350 . S
C1989 H1976 0.929 . S
C1989 C1981 1.433 . S
C1989 N1991 1.384 . S
N1990 C1986 1.427 . S
N1990 C1987 1.384 . S
N1991 C1983 1.427 . S
N1991 C1989 1.384 . S
H1992 C1998 0.930 . S
H1993 C2002 0.930 . S
H1994 C2007 0.929 . S
H1995 C2005 0.929 . S
H1996 C2000 0.929 . S
H1997 C2006 0.929 . S
C1998 H1992 0.930 . S
C1998 C1999 1.367 . S
C1998 C2006 1.378 . S
C1999 C1998 1.367 . S
C1999 C2007 1.433 . S
C2000 H1996 0.929 . S
C2000 C2002 1.378 . S
C2000 C2004 1.350 . S
C2001 C2004 1.463 . S
C2001 C2006 1.350 . S
C2001 N2009 1.427 . S
C2002 H1993 0.930 . S
C2002 C2000 1.378 . S
C2002 C2003 1.367 . S
C2003 C2002 1.367 . S
C2003 C2005 1.433 . S
C2004 C2000 1.350 . S
C2004 C2001 1.463 . S
C2004 N2008 1.427 . S
C2005 H1995 0.929 . S
C2005 C2003 1.433 . S
C2005 N2008 1.384 . S
C2006 H1997 0.929 . S
C2006 C1998 1.378 . S
C2006 C2001 1.350 . S
C2007 H1994 0.929 . S
C2007 C1999 1.433 . S
C2007 N2009 1.384 . S
N2008 C2004 1.427 . S
N2008 C2005 1.384 . S
N2009 C2001 1.427 . S
N2009 C2007 1.384 . S
H2010 C2016 0.930 . S
H2011 C2020 0.930 . S
H2012 C2025 0.929 . S
H2013 C2023 0.929 . S
H2014 C2018 0.929 . S
H2015 C2024 0.929 . S
C2016 H2010 0.930 . S
C2016 C2017 1.367 . S
C2016 C2024 1.378 . S
C2017 C2016 1.367 . S
C2017 C2025 1.433 . S
C2018 H2014 0.929 . S
C2018 C2020 1.378 . S
C2018 C2022 1.350 . S
C2019 C2022 1.463 . S
C2019 C2024 1.350 . S
C2019 N2027 1.427 . S
C2020 H2011 0.930 . S
C2020 C2018 1.378 . S
C2020 C2021 1.367 . S
C2021 C2020 1.367 . S
C2021 C2023 1.433 . S
C2022 C2018 1.350 . S
C2022 C2019 1.463 . S
C2022 N2026 1.427 . S
C2023 H2013 0.929 . S
C2023 C2021 1.433 . S
C2023 N2026 1.384 . S
C2024 H2015 0.929 . S
C2024 C2016 1.378 . S
C2024 C2019 1.350 . S
C2025 H2012 0.929 . S
C2025 C2017 1.433 . S
C2025 N2027 1.384 . S
N2026 C2022 1.427 . S
N2026 C2023 1.384 . S
N2027 C2019 1.427 . S
N2027 C2025 1.384 . S
H2028 C2034 0.930 . S
H2029 C2038 0.930 . S
H2030 C2043 0.929 . S
H2031 C2041 0.929 . S
H2032 C2036 0.929 . S
H2033 C2042 0.929 . S
C2034 H2028 0.930 . S
C2034 C2035 1.367 . S
C2034 C2042 1.378 . S
C2035 C2034 1.367 . S
C2035 C2043 1.433 . S
C2036 H2032 0.929 . S
C2036 C2038 1.378 . S
C2036 C2040 1.350 . S
C2037 C2040 1.463 . S
C2037 C2042 1.350 . S
C2037 N2045 1.427 . S
C2038 H2029 0.930 . S
C2038 C2036 1.378 . S
C2038 C2039 1.367 . S
C2039 C2038 1.367 . S
C2039 C2041 1.433 . S
C2040 C2036 1.350 . S
C2040 C2037 1.463 . S
C2040 N2044 1.427 . S
C2041 H2031 0.929 . S
C2041 C2039 1.433 . S
C2041 N2044 1.384 . S
C2042 H2033 0.929 . S
C2042 C2034 1.378 . S
C2042 C2037 1.350 . S
C2043 H2030 0.929 . S
C2043 C2035 1.433 . S
C2043 N2045 1.384 . S
N2044 C2040 1.427 . S
N2044 C2041 1.384 . S
N2045 C2037 1.427 . S
N2045 C2043 1.384 . S
H2046 C2052 0.930 . S
H2047 C2056 0.930 . S
H2048 C2061 0.929 . S
H2049 C2059 0.929 . S
H2050 C2054 0.929 . S
H2051 C2060 0.929 . S
C2052 H2046 0.930 . S
C2052 C2053 1.367 . S
C2052 C2060 1.378 . S
C2053 C2052 1.367 . S
C2053 C2061 1.433 . S
C2054 H2050 0.929 . S
C2054 C2056 1.378 . S
C2054 C2058 1.350 . S
C2055 C2058 1.463 . S
C2055 C2060 1.350 . S
C2055 N2063 1.427 . S
C2056 H2047 0.930 . S
C2056 C2054 1.378 . S
C2056 C2057 1.367 . S
C2057 C2056 1.367 . S
C2057 C2059 1.433 . S
C2058 C2054 1.350 . S
C2058 C2055 1.463 . S
C2058 N2062 1.427 . S
C2059 H2049 0.929 . S
C2059 C2057 1.433 . S
C2059 N2062 1.384 . S
C2060 H2051 0.929 . S
C2060 C2052 1.378 . S
C2060 C2055 1.350 . S
C2061 H2048 0.929 . S
C2061 C2053 1.433 . S
C2061 N2063 1.384 . S
N2062 C2058 1.427 . S
N2062 C2059 1.384 . S
N2063 C2055 1.427 . S
N2063 C2061 1.384 . S
H2064 C2070 0.930 . S
H2065 C2074 0.930 . S
H2066 C2079 0.929 . S
H2067 C2077 0.929 . S
H2068 C2072 0.929 . S
H2069 C2078 0.929 . S
C2070 H2064 0.930 . S
C2070 C2071 1.367 . S
C2070 C2078 1.378 . S
C2071 C2070 1.367 . S
C2071 C2079 1.433 . S
C2072 H2068 0.929 . S
C2072 C2074 1.378 . S
C2072 C2076 1.350 . S
C2073 C2076 1.463 . S
C2073 C2078 1.350 . S
C2073 N2081 1.427 . S
C2074 H2065 0.930 . S
C2074 C2072 1.378 . S
C2074 C2075 1.367 . S
C2075 C2074 1.367 . S
C2075 C2077 1.433 . S
C2076 C2072 1.350 . S
C2076 C2073 1.463 . S
C2076 N2080 1.427 . S
C2077 H2067 0.929 . S
C2077 C2075 1.433 . S
C2077 N2080 1.384 . S
C2078 H2069 0.929 . S
C2078 C2070 1.378 . S
C2078 C2073 1.350 . S
C2079 H2066 0.929 . S
C2079 C2071 1.433 . S
C2079 N2081 1.384 . S
N2080 C2076 1.427 . S
N2080 C2077 1.384 . S
N2081 C2073 1.427 . S
N2081 C2079 1.384 . S
H2082 C2088 0.930 . S
H2083 C2092 0.930 . S
H2084 C2097 0.929 . S
H2085 C2095 0.929 . S
H2086 C2090 0.929 . S
H2087 C2096 0.929 . S
C2088 H2082 0.930 . S
C2088 C2089 1.367 . S
C2088 C2096 1.378 . S
C2089 C2088 1.367 . S
C2089 C2097 1.433 . S
C2090 H2086 0.929 . S
C2090 C2092 1.378 . S
C2090 C2094 1.350 . S
C2091 C2094 1.463 . S
C2091 C2096 1.350 . S
C2091 N2099 1.427 . S
C2092 H2083 0.930 . S
C2092 C2090 1.378 . S
C2092 C2093 1.367 . S
C2093 C2092 1.367 . S
C2093 C2095 1.433 . S
C2094 C2090 1.350 . S
C2094 C2091 1.463 . S
C2094 N2098 1.427 . S
C2095 H2085 0.929 . S
C2095 C2093 1.433 . S
C2095 N2098 1.384 . S
C2096 H2087 0.929 . S
C2096 C2088 1.378 . S
C2096 C2091 1.350 . S
C2097 H2084 0.929 . S
C2097 C2089 1.433 . S
C2097 N2099 1.384 . S
N2098 C2094 1.427 . S
N2098 C2095 1.384 . S
N2099 C2091 1.427 . S
N2099 C2097 1.384 . S
H2100 C2106 0.930 . S
H2101 C2110 0.930 . S
H2102 C2115 0.929 . S
H2103 C2113 0.929 . S
H2104 C2108 0.929 . S
H2105 C2114 0.929 . S
C2106 H2100 0.930 . S
C2106 C2107 1.367 . S
C2106 C2114 1.378 . S
C2107 C2106 1.367 . S
C2107 C2115 1.433 . S
C2108 H2104 0.929 . S
C2108 C2110 1.378 . S
C2108 C2112 1.350 . S
C2109 C2112 1.463 . S
C2109 C2114 1.350 . S
C2109 N2117 1.427 . S
C2110 H2101 0.930 . S
C2110 C2108 1.378 . S
C2110 C2111 1.367 . S
C2111 C2110 1.367 . S
C2111 C2113 1.433 . S
C2112 C2108 1.350 . S
C2112 C2109 1.463 . S
C2112 N2116 1.427 . S
C2113 H2103 0.929 . S
C2113 C2111 1.433 . S
C2113 N2116 1.384 . S
C2114 H2105 0.929 . S
C2114 C2106 1.378 . S
C2114 C2109 1.350 . S
C2115 H2102 0.929 . S
C2115 C2107 1.433 . S
C2115 N2117 1.384 . S
N2116 C2112 1.427 . S
N2116 C2113 1.384 . S
N2117 C2109 1.427 . S
N2117 C2115 1.384 . S
H2118 C2124 0.930 . S
H2119 C2128 0.930 . S
H2120 C2133 0.929 . S
H2121 C2131 0.929 . S
H2122 C2126 0.929 . S
H2123 C2132 0.929 . S
C2124 H2118 0.930 . S
C2124 C2125 1.367 . S
C2124 C2132 1.378 . S
C2125 C2124 1.367 . S
C2125 C2133 1.433 . S
C2126 H2122 0.929 . S
C2126 C2128 1.378 . S
C2126 C2130 1.350 . S
C2127 C2130 1.463 . S
C2127 C2132 1.350 . S
C2127 N2135 1.427 . S
C2128 H2119 0.930 . S
C2128 C2126 1.378 . S
C2128 C2129 1.367 . S
C2129 C2128 1.367 . S
C2129 C2131 1.433 . S
C2130 C2126 1.350 . S
C2130 C2127 1.463 . S
C2130 N2134 1.427 . S
C2131 H2121 0.929 . S
C2131 C2129 1.433 . S
C2131 N2134 1.384 . S
C2132 H2123 0.929 . S
C2132 C2124 1.378 . S
C2132 C2127 1.350 . S
C2133 H2120 0.929 . S
C2133 C2125 1.433 . S
C2133 N2135 1.384 . S
N2134 C2130 1.427 . S
N2134 C2131 1.384 . S
N2135 C2127 1.427 . S
N2135 C2133 1.384 . S
H2136 C2142 0.930 . S
H2137 C2146 0.930 . S
H2138 C2151 0.929 . S
H2139 C2149 0.929 . S
H2140 C2144 0.929 . S
H2141 C2150 0.929 . S
C2142 H2136 0.930 . S
C2142 C2143 1.367 . S
C2142 C2150 1.378 . S
C2143 C2142 1.367 . S
C2143 C2151 1.433 . S
C2144 H2140 0.929 . S
C2144 C2146 1.378 . S
C2144 C2148 1.350 . S
C2145 C2148 1.463 . S
C2145 C2150 1.350 . S
C2145 N2153 1.427 . S
C2146 H2137 0.930 . S
C2146 C2144 1.378 . S
C2146 C2147 1.367 . S
C2147 C2146 1.367 . S
C2147 C2149 1.433 . S
C2148 C2144 1.350 . S
C2148 C2145 1.463 . S
C2148 N2152 1.427 . S
C2149 H2139 0.929 . S
C2149 C2147 1.433 . S
C2149 N2152 1.384 . S
C2150 H2141 0.929 . S
C2150 C2142 1.378 . S
C2150 C2145 1.350 . S
C2151 H2138 0.929 . S
C2151 C2143 1.433 . S
C2151 N2153 1.384 . S
N2152 C2148 1.427 . S
N2152 C2149 1.384 . S
N2153 C2145 1.427 . S
N2153 C2151 1.384 . S
H2154 C2160 0.930 . S
H2155 C2164 0.930 . S
H2156 C2169 0.929 . S
H2157 C2167 0.929 . S
H2158 C2162 0.929 . S
H2159 C2168 0.929 . S
C2160 H2154 0.930 . S
C2160 C2161 1.367 . S
C2160 C2168 1.378 . S
C2161 C2160 1.367 . S
C2161 C2169 1.433 . S
C2162 H2158 0.929 . S
C2162 C2164 1.378 . S
C2162 C2166 1.350 . S
C2163 C2166 1.463 . S
C2163 C2168 1.350 . S
C2163 N2171 1.427 . S
C2164 H2155 0.930 . S
C2164 C2162 1.378 . S
C2164 C2165 1.367 . S
C2165 C2164 1.367 . S
C2165 C2167 1.433 . S
C2166 C2162 1.350 . S
C2166 C2163 1.463 . S
C2166 N2170 1.427 . S
C2167 H2157 0.929 . S
C2167 C2165 1.433 . S
C2167 N2170 1.384 . S
C2168 H2159 0.929 . S
C2168 C2160 1.378 . S
C2168 C2163 1.350 . S
C2169 H2156 0.929 . S
C2169 C2161 1.433 . S
C2169 N2171 1.384 . S
N2170 C2166 1.427 . S
N2170 C2167 1.384 . S
N2171 C2163 1.427 . S
N2171 C2169 1.384 . S
H2172 C2178 0.930 . S
H2173 C2182 0.930 . S
H2174 C2187 0.929 . S
H2175 C2185 0.929 1_554 S
H2176 C2180 0.929 . S
H2177 C2186 0.929 . S
C2178 H2172 0.930 . S
C2178 C2179 1.367 . S
C2178 C2186 1.378 . S
C2179 C2178 1.367 . S
C2179 C2187 1.433 . S
C2180 H2176 0.929 . S
C2180 C2182 1.378 . S
C2180 C2184 1.350 . S
C2181 C2184 1.463 . S
C2181 C2186 1.350 . S
C2181 N2189 1.427 . S
C2182 H2173 0.930 . S
C2182 C2180 1.378 . S
C2182 C2183 1.367 . S
C2183 C2182 1.367 . S
C2183 C2185 1.433 . S
C2184 C2180 1.350 . S
C2184 C2181 1.463 . S
C2184 N2188 1.427 . S
C2185 H2175 0.929 1_556 S
C2185 C2183 1.433 . S
C2185 N2188 1.384 . S
C2186 H2177 0.929 . S
C2186 C2178 1.378 . S
C2186 C2181 1.350 . S
C2187 H2174 0.929 . S
C2187 C2179 1.433 . S
C2187 N2189 1.384 . S
N2188 C2184 1.427 . S
N2188 C2185 1.384 . S
N2189 C2181 1.427 . S
N2189 C2187 1.384 . S
H2190 C2196 0.930 . S
H2191 C2200 0.930 . S
H2192 C2205 0.929 . S
H2193 C2203 0.929 . S
H2194 C2198 0.929 . S
H2195 C2204 0.929 . S
C2196 H2190 0.930 . S
C2196 C2197 1.367 . S
C2196 C2204 1.378 . S
C2197 C2196 1.367 . S
C2197 C2205 1.433 . S
C2198 H2194 0.929 . S
C2198 C2200 1.378 . S
C2198 C2202 1.350 . S
C2199 C2202 1.463 . S
C2199 C2204 1.350 . S
C2199 N2207 1.427 . S
C2200 H2191 0.930 . S
C2200 C2198 1.378 . S
C2200 C2201 1.367 . S
C2201 C2200 1.367 . S
C2201 C2203 1.433 . S
C2202 C2198 1.350 . S
C2202 C2199 1.463 . S
C2202 N2206 1.427 . S
C2203 H2193 0.929 . S
C2203 C2201 1.433 . S
C2203 N2206 1.384 . S
C2204 H2195 0.929 . S
C2204 C2196 1.378 . S
C2204 C2199 1.350 . S
C2205 H2192 0.929 . S
C2205 C2197 1.433 . S
C2205 N2207 1.384 . S
N2206 C2202 1.427 . S
N2206 C2203 1.384 . S
N2207 C2199 1.427 . S
N2207 C2205 1.384 . S
H2208 C2214 0.930 . S
H2209 C2218 0.930 . S
H2210 C2223 0.929 . S
H2211 C2221 0.929 . S
H2212 C2216 0.929 . S
H2213 C2222 0.929 . S
C2214 H2208 0.930 . S
C2214 C2215 1.367 . S
C2214 C2222 1.378 . S
C2215 C2214 1.367 . S
C2215 C2223 1.433 . S
C2216 H2212 0.929 . S
C2216 C2218 1.378 . S
C2216 C2220 1.350 . S
C2217 C2220 1.463 . S
C2217 C2222 1.350 . S
C2217 N2225 1.427 . S
C2218 H2209 0.930 . S
C2218 C2216 1.378 . S
C2218 C2219 1.367 . S
C2219 C2218 1.367 . S
C2219 C2221 1.433 . S
C2220 C2216 1.350 . S
C2220 C2217 1.463 . S
C2220 N2224 1.427 . S
C2221 H2211 0.929 . S
C2221 C2219 1.433 . S
C2221 N2224 1.384 . S
C2222 H2213 0.929 . S
C2222 C2214 1.378 . S
C2222 C2217 1.350 . S
C2223 H2210 0.929 . S
C2223 C2215 1.433 . S
C2223 N2225 1.384 . S
N2224 C2220 1.427 . S
N2224 C2221 1.384 . S
N2225 C2217 1.427 . S
N2225 C2223 1.384 . S
H2226 C2232 0.930 . S
H2227 C2236 0.930 . S
H2228 C2241 0.929 . S
H2229 C2239 0.929 . S
H2230 C2234 0.929 . S
H2231 C2240 0.929 . S
C2232 H2226 0.930 . S
C2232 C2233 1.367 . S
C2232 C2240 1.378 . S
C2233 C2232 1.367 . S
C2233 C2241 1.433 . S
C2234 H2230 0.929 . S
C2234 C2236 1.378 . S
C2234 C2238 1.350 . S
C2235 C2238 1.463 . S
C2235 C2240 1.350 . S
C2235 N2243 1.427 . S
C2236 H2227 0.930 . S
C2236 C2234 1.378 . S
C2236 C2237 1.367 . S
C2237 C2236 1.367 . S
C2237 C2239 1.433 . S
C2238 C2234 1.350 . S
C2238 C2235 1.463 . S
C2238 N2242 1.427 . S
C2239 H2229 0.929 . S
C2239 C2237 1.433 . S
C2239 N2242 1.384 . S
C2240 H2231 0.929 . S
C2240 C2232 1.378 . S
C2240 C2235 1.350 . S
C2241 H2228 0.929 . S
C2241 C2233 1.433 . S
C2241 N2243 1.384 . S
N2242 C2238 1.427 . S
N2242 C2239 1.384 . S
N2243 C2235 1.427 . S
N2243 C2241 1.384 . S
H2244 C2250 0.930 . S
H2245 C2254 0.930 . S
H2246 C2259 0.929 . S
H2247 C2257 0.929 . S
H2248 C2252 0.929 . S
H2249 C2258 0.929 . S
C2250 H2244 0.930 . S
C2250 C2251 1.367 . S
C2250 C2258 1.378 . S
C2251 C2250 1.367 . S
C2251 C2259 1.433 . S
C2252 H2248 0.929 . S
C2252 C2254 1.378 . S
C2252 C2256 1.350 . S
C2253 C2256 1.463 . S
C2253 C2258 1.350 . S
C2253 N2261 1.427 . S
C2254 H2245 0.930 . S
C2254 C2252 1.378 . S
C2254 C2255 1.367 . S
C2255 C2254 1.367 . S
C2255 C2257 1.433 . S
C2256 C2252 1.350 . S
C2256 C2253 1.463 . S
C2256 N2260 1.427 . S
C2257 H2247 0.929 . S
C2257 C2255 1.433 . S
C2257 N2260 1.384 . S
C2258 H2249 0.929 . S
C2258 C2250 1.378 . S
C2258 C2253 1.350 . S
C2259 H2246 0.929 . S
C2259 C2251 1.433 . S
C2259 N2261 1.384 . S
N2260 C2256 1.427 . S
N2260 C2257 1.384 . S
N2261 C2253 1.427 . S
N2261 C2259 1.384 . S
H2262 C2268 0.930 . S
H2263 C2272 0.930 . S
H2264 C2277 0.929 . S
H2265 C2275 0.929 . S
H2266 C2270 0.929 . S
H2267 C2276 0.929 . S
C2268 H2262 0.930 . S
C2268 C2269 1.367 . S
C2268 C2276 1.378 . S
C2269 C2268 1.367 . S
C2269 C2277 1.433 . S
C2270 H2266 0.929 . S
C2270 C2272 1.378 . S
C2270 C2274 1.350 . S
C2271 C2274 1.463 . S
C2271 C2276 1.350 . S
C2271 N2279 1.427 . S
C2272 H2263 0.930 . S
C2272 C2270 1.378 . S
C2272 C2273 1.367 . S
C2273 C2272 1.367 . S
C2273 C2275 1.433 . S
C2274 C2270 1.350 . S
C2274 C2271 1.463 . S
C2274 N2278 1.427 . S
C2275 H2265 0.929 . S
C2275 C2273 1.433 . S
C2275 N2278 1.384 . S
C2276 H2267 0.929 . S
C2276 C2268 1.378 . S
C2276 C2271 1.350 . S
C2277 H2264 0.929 . S
C2277 C2269 1.433 . S
C2277 N2279 1.384 . S
N2278 C2274 1.427 . S
N2278 C2275 1.384 . S
N2279 C2271 1.427 . S
N2279 C2277 1.384 . S
H2280 C2286 0.930 . S
H2281 C2290 0.930 . S
H2282 C2295 0.929 . S
H2283 C2293 0.929 . S
H2284 C2288 0.929 . S
H2285 C2294 0.929 . S
C2286 H2280 0.930 . S
C2286 C2287 1.367 . S
C2286 C2294 1.378 . S
C2287 C2286 1.367 . S
C2287 C2295 1.433 . S
C2288 H2284 0.929 . S
C2288 C2290 1.378 . S
C2288 C2292 1.350 . S
C2289 C2292 1.463 . S
C2289 C2294 1.350 . S
C2289 N2297 1.427 . S
C2290 H2281 0.930 . S
C2290 C2288 1.378 . S
C2290 C2291 1.367 . S
C2291 C2290 1.367 . S
C2291 C2293 1.433 . S
C2292 C2288 1.350 . S
C2292 C2289 1.463 . S
C2292 N2296 1.427 . S
C2293 H2283 0.929 . S
C2293 C2291 1.433 . S
C2293 N2296 1.384 . S
C2294 H2285 0.929 . S
C2294 C2286 1.378 . S
C2294 C2289 1.350 . S
C2295 H2282 0.929 . S
C2295 C2287 1.433 . S
C2295 N2297 1.384 . S
N2296 C2292 1.427 . S
N2296 C2293 1.384 . S
N2297 C2289 1.427 . S
N2297 C2295 1.384 . S
H2298 C2304 0.930 . S
H2299 C2308 0.930 . S
H2300 C2313 0.929 . S
H2301 C2311 0.929 . S
H2302 C2306 0.929 . S
H2303 C2312 0.929 . S
C2304 H2298 0.930 . S
C2304 C2305 1.367 . S
C2304 C2312 1.378 . S
C2305 C2304 1.367 . S
C2305 C2313 1.433 . S
C2306 H2302 0.929 . S
C2306 C2308 1.378 . S
C2306 C2310 1.350 . S
C2307 C2310 1.463 . S
C2307 C2312 1.350 . S
C2307 N2315 1.427 . S
C2308 H2299 0.930 . S
C2308 C2306 1.378 . S
C2308 C2309 1.367 . S
C2309 C2308 1.367 . S
C2309 C2311 1.433 . S
C2310 C2306 1.350 . S
C2310 C2307 1.463 . S
C2310 N2314 1.427 . S
C2311 H2301 0.929 . S
C2311 C2309 1.433 . S
C2311 N2314 1.384 . S
C2312 H2303 0.929 . S
C2312 C2304 1.378 . S
C2312 C2307 1.350 . S
C2313 H2300 0.929 . S
C2313 C2305 1.433 . S
C2313 N2315 1.384 . S
N2314 C2310 1.427 . S
N2314 C2311 1.384 . S
N2315 C2307 1.427 . S
N2315 C2313 1.384 . S
H2316 C2322 0.930 . S
H2317 C2326 0.930 . S
H2318 C2331 0.929 . S
H2319 C2329 0.929 . S
H2320 C2324 0.929 . S
H2321 C2330 0.929 . S
C2322 H2316 0.930 . S
C2322 C2323 1.367 . S
C2322 C2330 1.378 . S
C2323 C2322 1.367 . S
C2323 C2331 1.433 . S
C2324 H2320 0.929 . S
C2324 C2326 1.378 . S
C2324 C2328 1.350 . S
C2325 C2328 1.463 . S
C2325 C2330 1.350 . S
C2325 N2333 1.427 . S
C2326 H2317 0.930 . S
C2326 C2324 1.378 . S
C2326 C2327 1.367 . S
C2327 C2326 1.367 . S
C2327 C2329 1.433 . S
C2328 C2324 1.350 . S
C2328 C2325 1.463 . S
C2328 N2332 1.427 . S
C2329 H2319 0.929 . S
C2329 C2327 1.433 . S
C2329 N2332 1.384 . S
C2330 H2321 0.929 . S
C2330 C2322 1.378 . S
C2330 C2325 1.350 . S
C2331 H2318 0.929 . S
C2331 C2323 1.433 . S
C2331 N2333 1.384 . S
N2332 C2328 1.427 . S
N2332 C2329 1.384 . S
N2333 C2325 1.427 . S
N2333 C2331 1.384 . S
H2334 C2340 0.930 . S
H2335 C2344 0.930 . S
H2336 C2349 0.929 . S
H2337 C2347 0.929 . S
H2338 C2342 0.929 . S
H2339 C2348 0.929 . S
C2340 H2334 0.930 . S
C2340 C2341 1.367 . S
C2340 C2348 1.378 . S
C2341 C2340 1.367 . S
C2341 C2349 1.433 . S
C2342 H2338 0.929 . S
C2342 C2344 1.378 . S
C2342 C2346 1.350 . S
C2343 C2346 1.463 . S
C2343 C2348 1.350 . S
C2343 N2351 1.427 . S
C2344 H2335 0.930 . S
C2344 C2342 1.378 . S
C2344 C2345 1.367 . S
C2345 C2344 1.367 . S
C2345 C2347 1.433 . S
C2346 C2342 1.350 . S
C2346 C2343 1.463 . S
C2346 N2350 1.427 . S
C2347 H2337 0.929 . S
C2347 C2345 1.433 . S
C2347 N2350 1.384 . S
C2348 H2339 0.929 . S
C2348 C2340 1.378 . S
C2348 C2343 1.350 . S
C2349 H2336 0.929 . S
C2349 C2341 1.433 . S
C2349 N2351 1.384 . S
N2350 C2346 1.427 . S
N2350 C2347 1.384 . S
N2351 C2343 1.427 . S
N2351 C2349 1.384 . S
H2352 C2358 0.930 . S
H2353 C2362 0.930 1_565 S
H2354 C2367 0.929 . S
H2355 C2365 0.929 . S
H2356 C2360 0.929 . S
H2357 C2366 0.929 . S
C2358 H2352 0.930 . S
C2358 C2359 1.367 . S
C2358 C2366 1.378 . S
C2359 C2358 1.367 . S
C2359 C2367 1.433 . S
C2360 H2356 0.929 . S
C2360 C2362 1.378 . S
C2360 C2364 1.350 . S
C2361 C2364 1.463 . S
C2361 C2366 1.350 . S
C2361 N2369 1.427 . S
C2362 H2353 0.930 1_545 S
C2362 C2360 1.378 . S
C2362 C2363 1.367 . S
C2363 C2362 1.367 . S
C2363 C2365 1.433 . S
C2364 C2360 1.350 . S
C2364 C2361 1.463 . S
C2364 N2368 1.427 . S
C2365 H2355 0.929 . S
C2365 C2363 1.433 . S
C2365 N2368 1.384 . S
C2366 H2357 0.929 . S
C2366 C2358 1.378 . S
C2366 C2361 1.350 . S
C2367 H2354 0.929 . S
C2367 C2359 1.433 . S
C2367 N2369 1.384 . S
N2368 C2364 1.427 . S
N2368 C2365 1.384 . S
N2369 C2361 1.427 . S
N2369 C2367 1.384 . S
H2370 C2376 0.930 . S
H2371 C2380 0.930 . S
H2372 C2385 0.929 . S
H2373 C2383 0.929 . S
H2374 C2378 0.929 . S
H2375 C2384 0.929 . S
C2376 H2370 0.930 . S
C2376 C2377 1.367 . S
C2376 C2384 1.378 . S
C2377 C2376 1.367 . S
C2377 C2385 1.433 . S
C2378 H2374 0.929 . S
C2378 C2380 1.378 . S
C2378 C2382 1.350 . S
C2379 C2382 1.463 . S
C2379 C2384 1.350 . S
C2379 N2387 1.427 . S
C2380 H2371 0.930 . S
C2380 C2378 1.378 . S
C2380 C2381 1.367 . S
C2381 C2380 1.367 . S
C2381 C2383 1.433 . S
C2382 C2378 1.350 . S
C2382 C2379 1.463 . S
C2382 N2386 1.427 . S
C2383 H2373 0.929 . S
C2383 C2381 1.433 . S
C2383 N2386 1.384 . S
C2384 H2375 0.929 . S
C2384 C2376 1.378 . S
C2384 C2379 1.350 . S
C2385 H2372 0.929 . S
C2385 C2377 1.433 . S
C2385 N2387 1.384 . S
N2386 C2382 1.427 . S
N2386 C2383 1.384 . S
N2387 C2379 1.427 . S
N2387 C2385 1.384 . S
H2388 C2394 0.930 . S
H2389 C2398 0.930 . S
H2390 C2403 0.929 . S
H2391 C2401 0.929 . S
H2392 C2396 0.929 . S
H2393 C2402 0.929 . S
C2394 H2388 0.930 . S
C2394 C2395 1.367 . S
C2394 C2402 1.378 . S
C2395 C2394 1.367 . S
C2395 C2403 1.433 . S
C2396 H2392 0.929 . S
C2396 C2398 1.378 . S
C2396 C2400 1.350 . S
C2397 C2400 1.463 . S
C2397 C2402 1.350 . S
C2397 N2405 1.427 . S
C2398 H2389 0.930 . S
C2398 C2396 1.378 . S
C2398 C2399 1.367 . S
C2399 C2398 1.367 . S
C2399 C2401 1.433 . S
C2400 C2396 1.350 . S
C2400 C2397 1.463 . S
C2400 N2404 1.427 . S
C2401 H2391 0.929 . S
C2401 C2399 1.433 . S
C2401 N2404 1.384 . S
C2402 H2393 0.929 . S
C2402 C2394 1.378 . S
C2402 C2397 1.350 . S
C2403 H2390 0.929 . S
C2403 C2395 1.433 . S
C2403 N2405 1.384 . S
N2404 C2400 1.427 . S
N2404 C2401 1.384 . S
N2405 C2397 1.427 . S
N2405 C2403 1.384 . S
H2406 C2412 0.930 . S
H2407 C2416 0.930 . S
H2408 C2421 0.929 . S
H2409 C2419 0.929 . S
H2410 C2414 0.929 . S
H2411 C2420 0.929 . S
C2412 H2406 0.930 . S
C2412 C2413 1.367 . S
C2412 C2420 1.378 . S
C2413 C2412 1.367 . S
C2413 C2421 1.433 . S
C2414 H2410 0.929 . S
C2414 C2416 1.378 . S
C2414 C2418 1.350 . S
C2415 C2418 1.463 . S
C2415 C2420 1.350 . S
C2415 N2423 1.427 . S
C2416 H2407 0.930 . S
C2416 C2414 1.378 . S
C2416 C2417 1.367 . S
C2417 C2416 1.367 . S
C2417 C2419 1.433 . S
C2418 C2414 1.350 . S
C2418 C2415 1.463 . S
C2418 N2422 1.427 . S
C2419 H2409 0.929 . S
C2419 C2417 1.433 . S
C2419 N2422 1.384 . S
C2420 H2411 0.929 . S
C2420 C2412 1.378 . S
C2420 C2415 1.350 . S
C2421 H2408 0.929 . S
C2421 C2413 1.433 . S
C2421 N2423 1.384 . S
N2422 C2418 1.427 . S
N2422 C2419 1.384 . S
N2423 C2415 1.427 . S
N2423 C2421 1.384 . S
H2424 C2430 0.930 . S
H2425 C2434 0.930 . S
H2426 C2439 0.929 . S
H2427 C2437 0.929 . S
H2428 C2432 0.929 . S
H2429 C2438 0.929 . S
C2430 H2424 0.930 . S
C2430 C2431 1.367 . S
C2430 C2438 1.378 . S
C2431 C2430 1.367 . S
C2431 C2439 1.433 . S
C2432 H2428 0.929 . S
C2432 C2434 1.378 . S
C2432 C2436 1.350 . S
C2433 C2436 1.463 . S
C2433 C2438 1.350 . S
C2433 N2441 1.427 . S
C2434 H2425 0.930 . S
C2434 C2432 1.378 . S
C2434 C2435 1.367 . S
C2435 C2434 1.367 . S
C2435 C2437 1.433 . S
C2436 C2432 1.350 . S
C2436 C2433 1.463 . S
C2436 N2440 1.427 . S
C2437 H2427 0.929 . S
C2437 C2435 1.433 . S
C2437 N2440 1.384 . S
C2438 H2429 0.929 . S
C2438 C2430 1.378 . S
C2438 C2433 1.350 . S
C2439 H2426 0.929 . S
C2439 C2431 1.433 . S
C2439 N2441 1.384 . S
N2440 C2436 1.427 . S
N2440 C2437 1.384 . S
N2441 C2433 1.427 . S
N2441 C2439 1.384 . S
H2442 C2448 0.930 . S
H2443 C2452 0.930 1_545 S
H2444 C2457 0.929 . S
H2445 C2455 0.929 . S
H2446 C2450 0.929 . S
H2447 C2456 0.929 . S
C2448 H2442 0.930 . S
C2448 C2449 1.367 . S
C2448 C2456 1.378 . S
C2449 C2448 1.367 . S
C2449 C2457 1.433 . S
C2450 H2446 0.929 . S
C2450 C2452 1.378 . S
C2450 C2454 1.350 . S
C2451 C2454 1.463 . S
C2451 C2456 1.350 . S
C2451 N2459 1.427 . S
C2452 H2443 0.930 1_565 S
C2452 C2450 1.378 . S
C2452 C2453 1.367 . S
C2453 C2452 1.367 . S
C2453 C2455 1.433 . S
C2454 C2450 1.350 . S
C2454 C2451 1.463 . S
C2454 N2458 1.427 . S
C2455 H2445 0.929 . S
C2455 C2453 1.433 . S
C2455 N2458 1.384 . S
C2456 H2447 0.929 . S
C2456 C2448 1.378 . S
C2456 C2451 1.350 . S
C2457 H2444 0.929 . S
C2457 C2449 1.433 . S
C2457 N2459 1.384 . S
N2458 C2454 1.427 . S
N2458 C2455 1.384 . S
N2459 C2451 1.427 . S
N2459 C2457 1.384 . S
H2460 C2466 0.930 . S
H2461 C2470 0.930 . S
H2462 C2475 0.929 . S
H2463 C2473 0.929 . S
H2464 C2468 0.929 . S
H2465 C2474 0.929 . S
C2466 H2460 0.930 . S
C2466 C2467 1.367 . S
C2466 C2474 1.378 . S
C2467 C2466 1.367 . S
C2467 C2475 1.433 . S
C2468 H2464 0.929 . S
C2468 C2470 1.378 . S
C2468 C2472 1.350 . S
C2469 C2472 1.463 . S
C2469 C2474 1.350 . S
C2469 N2477 1.427 . S
C2470 H2461 0.930 . S
C2470 C2468 1.378 . S
C2470 C2471 1.367 . S
C2471 C2470 1.367 . S
C2471 C2473 1.433 . S
C2472 C2468 1.350 . S
C2472 C2469 1.463 . S
C2472 N2476 1.427 . S
C2473 H2463 0.929 . S
C2473 C2471 1.433 . S
C2473 N2476 1.384 . S
C2474 H2465 0.929 . S
C2474 C2466 1.378 . S
C2474 C2469 1.350 . S
C2475 H2462 0.929 . S
C2475 C2467 1.433 . S
C2475 N2477 1.384 . S
N2476 C2472 1.427 . S
N2476 C2473 1.384 . S
N2477 C2469 1.427 . S
N2477 C2475 1.384 . S
H2478 C2484 0.930 . S
H2479 C2488 0.930 . S
H2480 C2493 0.929 . S
H2481 C2491 0.929 . S
H2482 C2486 0.929 . S
H2483 C2492 0.929 . S
C2484 H2478 0.930 . S
C2484 C2485 1.367 . S
C2484 C2492 1.378 . S
C2485 C2484 1.367 . S
C2485 C2493 1.433 . S
C2486 H2482 0.929 . S
C2486 C2488 1.378 . S
C2486 C2490 1.350 . S
C2487 C2490 1.463 . S
C2487 C2492 1.350 . S
C2487 N2495 1.427 . S
C2488 H2479 0.930 . S
C2488 C2486 1.378 . S
C2488 C2489 1.367 . S
C2489 C2488 1.367 . S
C2489 C2491 1.433 . S
C2490 C2486 1.350 . S
C2490 C2487 1.463 . S
C2490 N2494 1.427 . S
C2491 H2481 0.929 . S
C2491 C2489 1.433 . S
C2491 N2494 1.384 . S
C2492 H2483 0.929 . S
C2492 C2484 1.378 . S
C2492 C2487 1.350 . S
C2493 H2480 0.929 . S
C2493 C2485 1.433 . S
C2493 N2495 1.384 . S
N2494 C2490 1.427 . S
N2494 C2491 1.384 . S
N2495 C2487 1.427 . S
N2495 C2493 1.384 . S
H2496 C2502 0.930 . S
H2497 C2506 0.930 . S
H2498 C2511 0.929 . S
H2499 C2509 0.929 . S
H2500 C2504 0.929 . S
H2501 C2510 0.929 . S
C2502 H2496 0.930 . S
C2502 C2503 1.367 . S
C2502 C2510 1.378 . S
C2503 C2502 1.367 . S
C2503 C2511 1.433 1_455 S
C2504 H2500 0.929 . S
C2504 C2506 1.378 . S
C2504 C2508 1.350 . S
C2505 C2508 1.463 1_455 S
C2505 C2510 1.350 . S
C2505 N2513 1.427 1_455 S
C2506 H2497 0.930 . S
C2506 C2504 1.378 . S
C2506 C2507 1.367 . S
C2507 C2506 1.367 . S
C2507 C2509 1.433 1_655 S
C2508 C2504 1.350 . S
C2508 C2505 1.463 1_655 S
C2508 N2512 1.427 1_655 S
C2509 H2499 0.929 . S
C2509 C2507 1.433 1_455 S
C2509 N2512 1.384 . S
C2510 H2501 0.929 . S
C2510 C2502 1.378 . S
C2510 C2505 1.350 . S
C2511 H2498 0.929 . S
C2511 C2503 1.433 1_655 S
C2511 N2513 1.384 . S
N2512 C2508 1.427 1_455 S
N2512 C2509 1.384 . S
N2513 C2505 1.427 1_655 S
N2513 C2511 1.384 . S
H2514 C2520 0.930 . S
H2515 C2524 0.930 . S
H2516 C2529 0.929 . S
H2517 C2527 0.929 . S
H2518 C2522 0.929 . S
H2519 C2528 0.929 . S
C2520 H2514 0.930 . S
C2520 C2521 1.367 . S
C2520 C2528 1.378 . S
C2521 C2520 1.367 . S
C2521 C2529 1.433 . S
C2522 H2518 0.929 . S
C2522 C2524 1.378 . S
C2522 C2526 1.350 . S
C2523 C2526 1.463 1_455 S
C2523 C2528 1.350 . S
C2523 N2531 1.427 . S
C2524 H2515 0.930 . S
C2524 C2522 1.378 . S
C2524 C2525 1.367 . S
C2525 C2524 1.367 . S
C2525 C2527 1.433 . S
C2526 C2522 1.350 . S
C2526 C2523 1.463 1_655 S
C2526 N2530 1.427 . S
C2527 H2517 0.929 . S
C2527 C2525 1.433 . S
C2527 N2530 1.384 . S
C2528 H2519 0.929 . S
C2528 C2520 1.378 . S
C2528 C2523 1.350 . S
C2529 H2516 0.929 . S
C2529 C2521 1.433 . S
C2529 N2531 1.384 . S
N2530 C2526 1.427 . S
N2530 C2527 1.384 . S
N2531 C2523 1.427 . S
N2531 C2529 1.384 . S
H2532 C2538 0.930 . S
H2533 C2542 0.930 . S
H2534 C2547 0.929 . S
H2535 C2545 0.929 . S
H2536 C2540 0.929 . S
H2537 C2546 0.929 . S
C2538 H2532 0.930 . S
C2538 C2539 1.367 . S
C2538 C2546 1.378 . S
C2539 C2538 1.367 . S
C2539 C2547 1.433 . S
C2540 H2536 0.929 . S
C2540 C2542 1.378 . S
C2540 C2544 1.350 . S
C2541 C2544 1.463 . S
C2541 C2546 1.350 . S
C2541 N2549 1.427 . S
C2542 H2533 0.930 . S
C2542 C2540 1.378 . S
C2542 C2543 1.367 . S
C2543 C2542 1.367 . S
C2543 C2545 1.433 . S
C2544 C2540 1.350 . S
C2544 C2541 1.463 . S
C2544 N2548 1.427 . S
C2545 H2535 0.929 . S
C2545 C2543 1.433 . S
C2545 N2548 1.384 . S
C2546 H2537 0.929 . S
C2546 C2538 1.378 . S
C2546 C2541 1.350 . S
C2547 H2534 0.929 . S
C2547 C2539 1.433 . S
C2547 N2549 1.384 . S
N2548 C2544 1.427 . S
N2548 C2545 1.384 . S
N2549 C2541 1.427 . S
N2549 C2547 1.384 . S
H2550 C2556 0.930 . S
H2551 C2560 0.930 . S
H2552 C2565 0.929 . S
H2553 C2563 0.929 . S
H2554 C2558 0.929 . S
H2555 C2564 0.929 . S
C2556 H2550 0.930 . S
C2556 C2557 1.367 . S
C2556 C2564 1.378 . S
C2557 C2556 1.367 . S
C2557 C2565 1.433 . S
C2558 H2554 0.929 . S
C2558 C2560 1.378 . S
C2558 C2562 1.350 . S
C2559 C2562 1.463 . S
C2559 C2564 1.350 . S
C2559 N2567 1.427 . S
C2560 H2551 0.930 . S
C2560 C2558 1.378 . S
C2560 C2561 1.367 . S
C2561 C2560 1.367 . S
C2561 C2563 1.433 . S
C2562 C2558 1.350 . S
C2562 C2559 1.463 . S
C2562 N2566 1.427 . S
C2563 H2553 0.929 . S
C2563 C2561 1.433 . S
C2563 N2566 1.384 . S
C2564 H2555 0.929 . S
C2564 C2556 1.378 . S
C2564 C2559 1.350 . S
C2565 H2552 0.929 . S
C2565 C2557 1.433 . S
C2565 N2567 1.384 . S
N2566 C2562 1.427 . S
N2566 C2563 1.384 . S
N2567 C2559 1.427 . S
N2567 C2565 1.384 . S
H2568 C2574 0.930 . S
H2569 C2578 0.930 . S
H2570 C2583 0.929 . S
H2571 C2581 0.929 . S
H2572 C2576 0.929 . S
H2573 C2582 0.929 . S
C2574 H2568 0.930 . S
C2574 C2575 1.367 1_455 S
C2574 C2582 1.378 . S
C2575 C2574 1.367 1_655 S
C2575 C2583 1.433 . S
C2576 H2572 0.929 . S
C2576 C2578 1.378 . S
C2576 C2580 1.350 1_655 S
C2577 C2580 1.463 1_655 S
C2577 C2582 1.350 1_655 S
C2577 N2585 1.427 . S
C2578 H2569 0.930 . S
C2578 C2576 1.378 . S
C2578 C2579 1.367 1_655 S
C2579 C2578 1.367 1_455 S
C2579 C2581 1.433 . S
C2580 C2576 1.350 1_455 S
C2580 C2577 1.463 1_455 S
C2580 N2584 1.427 . S
C2581 H2571 0.929 . S
C2581 C2579 1.433 . S
C2581 N2584 1.384 . S
C2582 H2573 0.929 . S
C2582 C2574 1.378 . S
C2582 C2577 1.350 1_455 S
C2583 H2570 0.929 . S
C2583 C2575 1.433 . S
C2583 N2585 1.384 . S
N2584 C2580 1.427 . S
N2584 C2581 1.384 . S
N2585 C2577 1.427 . S
N2585 C2583 1.384 . S
H2586 C2592 0.930 . S
H2587 C2596 0.930 . S
H2588 C2601 0.929 . S
H2589 C2599 0.929 . S
H2590 C2594 0.929 . S
H2591 C2600 0.929 . S
C2592 H2586 0.930 . S
C2592 C2593 1.367 . S
C2592 C2600 1.378 . S
C2593 C2592 1.367 . S
C2593 C2601 1.433 . S
C2594 H2590 0.929 . S
C2594 C2596 1.378 . S
C2594 C2598 1.350 . S
C2595 C2598 1.463 . S
C2595 C2600 1.350 . S
C2595 N2603 1.427 . S
C2596 H2587 0.930 . S
C2596 C2594 1.378 . S
C2596 C2597 1.367 . S
C2597 C2596 1.367 . S
C2597 C2599 1.433 . S
C2598 C2594 1.350 . S
C2598 C2595 1.463 . S
C2598 N2602 1.427 . S
C2599 H2589 0.929 . S
C2599 C2597 1.433 . S
C2599 N2602 1.384 . S
C2600 H2591 0.929 . S
C2600 C2592 1.378 . S
C2600 C2595 1.350 . S
C2601 H2588 0.929 . S
C2601 C2593 1.433 . S
C2601 N2603 1.384 . S
N2602 C2598 1.427 . S
N2602 C2599 1.384 . S
N2603 C2595 1.427 . S
N2603 C2601 1.384 . S
H2604 C2610 0.930 . S
H2605 C2614 0.930 . S
H2606 C2619 0.929 . S
H2607 C2617 0.929 . S
H2608 C2612 0.929 . S
H2609 C2618 0.929 . S
C2610 H2604 0.930 . S
C2610 C2611 1.367 . S
C2610 C2618 1.378 . S
C2611 C2610 1.367 . S
C2611 C2619 1.433 . S
C2612 H2608 0.929 . S
C2612 C2614 1.378 . S
C2612 C2616 1.350 . S
C2613 C2616 1.463 . S
C2613 C2618 1.350 . S
C2613 N2621 1.427 . S
C2614 H2605 0.930 . S
C2614 C2612 1.378 . S
C2614 C2615 1.367 . S
C2615 C2614 1.367 . S
C2615 C2617 1.433 . S
C2616 C2612 1.350 . S
C2616 C2613 1.463 . S
C2616 N2620 1.427 . S
C2617 H2607 0.929 . S
C2617 C2615 1.433 . S
C2617 N2620 1.384 . S
C2618 H2609 0.929 . S
C2618 C2610 1.378 . S
C2618 C2613 1.350 . S
C2619 H2606 0.929 . S
C2619 C2611 1.433 . S
C2619 N2621 1.384 . S
N2620 C2616 1.427 . S
N2620 C2617 1.384 . S
N2621 C2613 1.427 . S
N2621 C2619 1.384 . S
H2622 C2628 0.930 . S
H2623 C2632 0.930 . S
H2624 C2637 0.929 . S
H2625 C2635 0.929 . S
H2626 C2630 0.929 . S
H2627 C2636 0.929 . S
C2628 H2622 0.930 . S
C2628 C2629 1.367 . S
C2628 C2636 1.378 . S
C2629 C2628 1.367 . S
C2629 C2637 1.433 . S
C2630 H2626 0.929 . S
C2630 C2632 1.378 . S
C2630 C2634 1.350 . S
C2631 C2634 1.463 1_655 S
C2631 C2636 1.350 . S
C2631 N2639 1.427 . S
C2632 H2623 0.930 . S
C2632 C2630 1.378 . S
C2632 C2633 1.367 . S
C2633 C2632 1.367 . S
C2633 C2635 1.433 . S
C2634 C2630 1.350 . S
C2634 C2631 1.463 1_455 S
C2634 N2638 1.427 . S
C2635 H2625 0.929 . S
C2635 C2633 1.433 . S
C2635 N2638 1.384 . S
C2636 H2627 0.929 . S
C2636 C2628 1.378 . S
C2636 C2631 1.350 . S
C2637 H2624 0.929 . S
C2637 C2629 1.433 . S
C2637 N2639 1.384 . S
N2638 C2634 1.427 . S
N2638 C2635 1.384 . S
N2639 C2631 1.427 . S
N2639 C2637 1.384 . S
H2640 C2646 0.930 . S
H2641 C2650 0.930 . S
H2642 C2655 0.930 . S
H2643 C2653 0.930 . S
H2644 C2648 0.929 . S
H2645 C2654 0.929 . S
C2646 H2640 0.930 . S
C2646 C2647 1.367 . S
C2646 C2654 1.378 . S
C2647 C2646 1.367 . S
C2647 C2655 1.432 1_545 S
C2648 H2644 0.929 . S
C2648 C2650 1.378 . S
C2648 C2652 1.350 . S
C2649 C2652 1.463 1_545 S
C2649 C2654 1.350 . S
C2649 N2657 1.427 1_545 S
C2650 H2641 0.930 . S
C2650 C2648 1.378 . S
C2650 C2651 1.367 . S
C2651 C2650 1.367 . S
C2651 C2653 1.432 1_565 S
C2652 C2648 1.350 . S
C2652 C2649 1.463 1_565 S
C2652 N2656 1.427 1_565 S
C2653 H2643 0.930 . S
C2653 C2651 1.432 1_545 S
C2653 N2656 1.384 . S
C2654 H2645 0.929 . S
C2654 C2646 1.378 . S
C2654 C2649 1.350 . S
C2655 H2642 0.930 . S
C2655 C2647 1.432 1_565 S
C2655 N2657 1.384 . S
N2656 C2652 1.427 1_545 S
N2656 C2653 1.384 . S
N2657 C2649 1.427 1_565 S
N2657 C2655 1.384 . S
H2658 C2664 0.930 . S
H2659 C2668 0.930 . S
H2660 C2673 0.929 . S
H2661 C2671 0.929 . S
H2662 C2666 0.929 . S
H2663 C2672 0.929 . S
C2664 H2658 0.930 . S
C2664 C2665 1.367 . S
C2664 C2672 1.378 . S
C2665 C2664 1.367 . S
C2665 C2673 1.433 . S
C2666 H2662 0.929 . S
C2666 C2668 1.378 . S
C2666 C2670 1.350 . S
C2667 C2670 1.463 . S
C2667 C2672 1.350 . S
C2667 N2675 1.427 . S
C2668 H2659 0.930 . S
C2668 C2666 1.378 . S
C2668 C2669 1.367 . S
C2669 C2668 1.367 . S
C2669 C2671 1.433 . S
C2670 C2666 1.350 . S
C2670 C2667 1.463 . S
C2670 N2674 1.427 . S
C2671 H2661 0.929 . S
C2671 C2669 1.433 . S
C2671 N2674 1.384 . S
C2672 H2663 0.929 . S
C2672 C2664 1.378 . S
C2672 C2667 1.350 . S
C2673 H2660 0.929 . S
C2673 C2665 1.433 . S
C2673 N2675 1.384 . S
N2674 C2670 1.427 . S
N2674 C2671 1.384 . S
N2675 C2667 1.427 . S
N2675 C2673 1.384 . S
H2676 C2682 0.930 . S
H2677 C2686 0.930 . S
H2678 C2691 0.929 . S
H2679 C2689 0.929 . S
H2680 C2684 0.929 . S
H2681 C2690 0.929 . S
C2682 H2676 0.930 . S
C2682 C2683 1.367 1_545 S
C2682 C2690 1.378 . S
C2683 C2682 1.367 1_565 S
C2683 C2691 1.433 . S
C2684 H2680 0.929 . S
C2684 C2686 1.378 . S
C2684 C2688 1.350 1_565 S
C2685 C2688 1.463 1_565 S
C2685 C2690 1.350 1_565 S
C2685 N2693 1.427 . S
C2686 H2677 0.930 . S
C2686 C2684 1.378 . S
C2686 C2687 1.367 1_565 S
C2687 C2686 1.367 1_545 S
C2687 C2689 1.433 . S
C2688 C2684 1.350 1_545 S
C2688 C2685 1.463 1_545 S
C2688 N2692 1.427 . S
C2689 H2679 0.929 . S
C2689 C2687 1.433 . S
C2689 N2692 1.384 . S
C2690 H2681 0.929 . S
C2690 C2682 1.378 . S
C2690 C2685 1.350 1_545 S
C2691 H2678 0.929 . S
C2691 C2683 1.433 . S
C2691 N2693 1.384 . S
N2692 C2688 1.427 . S
N2692 C2689 1.384 . S
N2693 C2685 1.427 . S
N2693 C2691 1.384 . S
H2694 C2700 0.930 . S
H2695 C2704 0.930 . S
H2696 C2709 0.929 . S
H2697 C2707 0.929 . S
H2698 C2702 0.929 . S
H2699 C2708 0.929 . S
C2700 H2694 0.930 . S
C2700 C2701 1.367 . S
C2700 C2708 1.378 . S
C2701 C2700 1.367 . S
C2701 C2709 1.433 . S
C2702 H2698 0.929 . S
C2702 C2704 1.378 . S
C2702 C2706 1.350 . S
C2703 C2706 1.463 1_556 S
C2703 C2708 1.350 . S
C2703 N2711 1.427 . S
C2704 H2695 0.930 . S
C2704 C2702 1.378 . S
C2704 C2705 1.367 . S
C2705 C2704 1.367 . S
C2705 C2707 1.433 . S
C2706 C2702 1.350 . S
C2706 C2703 1.463 1_554 S
C2706 N2710 1.427 . S
C2707 H2697 0.929 . S
C2707 C2705 1.433 . S
C2707 N2710 1.384 . S
C2708 H2699 0.929 . S
C2708 C2700 1.378 . S
C2708 C2703 1.350 . S
C2709 H2696 0.929 . S
C2709 C2701 1.433 . S
C2709 N2711 1.384 . S
N2710 C2706 1.427 . S
N2710 C2707 1.384 . S
N2711 C2703 1.427 . S
N2711 C2709 1.384 . S
H2712 C2718 0.930 . S
H2713 C2722 0.930 . S
H2714 C2727 0.930 . S
H2715 C2725 0.930 . S
H2716 C2720 0.929 . S
H2717 C2726 0.929 . S
C2718 H2712 0.930 . S
C2718 C2719 1.367 . S
C2718 C2726 1.378 . S
C2719 C2718 1.367 . S
C2719 C2727 1.432 1_554 S
C2720 H2716 0.929 . S
C2720 C2722 1.378 . S
C2720 C2724 1.350 . S
C2721 C2724 1.463 1_554 S
C2721 C2726 1.350 . S
C2721 N2729 1.427 1_554 S
C2722 H2713 0.930 . S
C2722 C2720 1.378 . S
C2722 C2723 1.367 . S
C2723 C2722 1.367 . S
C2723 C2725 1.432 1_556 S
C2724 C2720 1.350 . S
C2724 C2721 1.463 1_556 S
C2724 N2728 1.427 1_556 S
C2725 H2715 0.930 . S
C2725 C2723 1.432 1_554 S
C2725 N2728 1.384 . S
C2726 H2717 0.929 . S
C2726 C2718 1.378 . S
C2726 C2721 1.350 . S
C2727 H2714 0.930 . S
C2727 C2719 1.432 1_556 S
C2727 N2729 1.384 . S
N2728 C2724 1.427 1_554 S
N2728 C2725 1.384 . S
N2729 C2721 1.427 1_556 S
N2729 C2727 1.384 . S
H2730 C2736 0.930 . S
H2731 C2740 0.930 . S
H2732 C2745 0.929 . S
H2733 C2743 0.929 . S
H2734 C2738 0.929 . S
H2735 C2744 0.929 . S
C2736 H2730 0.930 . S
C2736 C2737 1.367 . S
C2736 C2744 1.378 . S
C2737 C2736 1.367 . S
C2737 C2745 1.433 1_556 S
C2738 H2734 0.929 . S
C2738 C2740 1.378 . S
C2738 C2742 1.350 . S
C2739 C2742 1.463 1_556 S
C2739 C2744 1.350 . S
C2739 N2747 1.427 1_556 S
C2740 H2731 0.930 . S
C2740 C2738 1.378 . S
C2740 C2741 1.367 . S
C2741 C2740 1.367 . S
C2741 C2743 1.433 1_554 S
C2742 C2738 1.350 . S
C2742 C2739 1.463 1_554 S
C2742 N2746 1.427 1_554 S
C2743 H2733 0.929 . S
C2743 C2741 1.433 1_556 S
C2743 N2746 1.384 . S
C2744 H2735 0.929 . S
C2744 C2736 1.378 . S
C2744 C2739 1.350 . S
C2745 H2732 0.929 . S
C2745 C2737 1.433 1_554 S
C2745 N2747 1.384 . S
N2746 C2742 1.427 1_556 S
N2746 C2743 1.384 . S
N2747 C2739 1.427 1_554 S
N2747 C2745 1.384 . S
H2748 C2754 0.930 . S
H2749 C2758 0.930 . S
H2750 C2763 0.929 . S
H2751 C2761 0.929 . S
H2752 C2756 0.929 . S
H2753 C2762 0.929 . S
C2754 H2748 0.930 . S
C2754 C2755 1.367 . S
C2754 C2762 1.378 . S
C2755 C2754 1.367 . S
C2755 C2763 1.433 . S
C2756 H2752 0.929 . S
C2756 C2758 1.378 . S
C2756 C2760 1.350 . S
C2757 C2760 1.463 . S
C2757 C2762 1.350 . S
C2757 N2765 1.427 . S
C2758 H2749 0.930 . S
C2758 C2756 1.378 . S
C2758 C2759 1.367 . S
C2759 C2758 1.367 . S
C2759 C2761 1.433 . S
C2760 C2756 1.350 . S
C2760 C2757 1.463 . S
C2760 N2764 1.427 . S
C2761 H2751 0.929 . S
C2761 C2759 1.433 . S
C2761 N2764 1.384 . S
C2762 H2753 0.929 . S
C2762 C2754 1.378 . S
C2762 C2757 1.350 . S
C2763 H2750 0.929 . S
C2763 C2755 1.433 . S
C2763 N2765 1.384 . S
N2764 C2760 1.427 . S
N2764 C2761 1.384 . S
N2765 C2757 1.427 . S
N2765 C2763 1.384 . S
H2766 C2772 0.930 . S
H2767 C2776 0.930 . S
H2768 C2781 0.929 . S
H2769 C2779 0.929 . S
H2770 C2774 0.929 . S
H2771 C2780 0.929 . S
C2772 H2766 0.930 . S
C2772 C2773 1.367 . S
C2772 C2780 1.378 . S
C2773 C2772 1.367 . S
C2773 C2781 1.433 . S
C2774 H2770 0.929 . S
C2774 C2776 1.378 . S
C2774 C2778 1.350 . S
C2775 C2778 1.463 . S
C2775 C2780 1.350 . S
C2775 N2783 1.427 . S
C2776 H2767 0.930 . S
C2776 C2774 1.378 . S
C2776 C2777 1.367 . S
C2777 C2776 1.367 . S
C2777 C2779 1.433 . S
C2778 C2774 1.350 . S
C2778 C2775 1.463 . S
C2778 N2782 1.427 . S
C2779 H2769 0.929 . S
C2779 C2777 1.433 . S
C2779 N2782 1.384 . S
C2780 H2771 0.929 . S
C2780 C2772 1.378 . S
C2780 C2775 1.350 . S
C2781 H2768 0.929 . S
C2781 C2773 1.433 . S
C2781 N2783 1.384 . S
N2782 C2778 1.427 . S
N2782 C2779 1.384 . S
N2783 C2775 1.427 . S
N2783 C2781 1.384 . S
H2784 C2790 0.930 . S
H2785 C2794 0.930 . S
H2786 C2799 0.929 . S
H2787 C2797 0.929 . S
H2788 C2792 0.929 . S
H2789 C2798 0.929 . S
C2790 H2784 0.930 . S
C2790 C2791 1.367 . S
C2790 C2798 1.378 . S
C2791 C2790 1.367 . S
C2791 C2799 1.433 . S
C2792 H2788 0.929 . S
C2792 C2794 1.378 . S
C2792 C2796 1.350 . S
C2793 C2796 1.463 1_565 S
C2793 C2798 1.350 . S
C2793 N2801 1.427 . S
C2794 H2785 0.930 . S
C2794 C2792 1.378 . S
C2794 C2795 1.367 . S
C2795 C2794 1.367 . S
C2795 C2797 1.433 . S
C2796 C2792 1.350 . S
C2796 C2793 1.463 1_545 S
C2796 N2800 1.427 . S
C2797 H2787 0.929 . S
C2797 C2795 1.433 . S
C2797 N2800 1.384 . S
C2798 H2789 0.929 . S
C2798 C2790 1.378 . S
C2798 C2793 1.350 . S
C2799 H2786 0.929 . S
C2799 C2791 1.433 . S
C2799 N2801 1.384 . S
N2800 C2796 1.427 . S
N2800 C2797 1.384 . S
N2801 C2793 1.427 . S
N2801 C2799 1.384 . S
H2802 C2808 0.930 . S
H2803 C2812 0.930 . S
H2804 C2817 0.929 . S
H2805 C2815 0.929 . S
H2806 C2810 0.929 . S
H2807 C2816 0.929 . S
C2808 H2802 0.930 . S
C2808 C2809 1.367 . S
C2808 C2816 1.378 . S
C2809 C2808 1.367 . S
C2809 C2817 1.433 . S
C2810 H2806 0.929 . S
C2810 C2812 1.378 . S
C2810 C2814 1.350 . S
C2811 C2814 1.463 . S
C2811 C2816 1.350 . S
C2811 N2819 1.427 . S
C2812 H2803 0.930 . S
C2812 C2810 1.378 . S
C2812 C2813 1.367 . S
C2813 C2812 1.367 . S
C2813 C2815 1.433 . S
C2814 C2810 1.350 . S
C2814 C2811 1.463 . S
C2814 N2818 1.427 . S
C2815 H2805 0.929 . S
C2815 C2813 1.433 . S
C2815 N2818 1.384 . S
C2816 H2807 0.929 . S
C2816 C2808 1.378 . S
C2816 C2811 1.350 . S
C2817 H2804 0.929 . S
C2817 C2809 1.433 . S
C2817 N2819 1.384 . S
N2818 C2814 1.427 . S
N2818 C2815 1.384 . S
N2819 C2811 1.427 . S
N2819 C2817 1.384 . S
H2820 C2826 0.930 . S
H2821 C2830 0.930 . S
H2822 C2835 0.929 . S
H2823 C2833 0.929 . S
H2824 C2828 0.929 . S
H2825 C2834 0.929 . S
C2826 H2820 0.930 . S
C2826 C2827 1.367 . S
C2826 C2834 1.378 . S
C2827 C2826 1.367 . S
C2827 C2835 1.433 . S
C2828 H2824 0.929 . S
C2828 C2830 1.378 . S
C2828 C2832 1.350 . S
C2829 C2832 1.463 . S
C2829 C2834 1.350 . S
C2829 N2837 1.427 . S
C2830 H2821 0.930 . S
C2830 C2828 1.378 . S
C2830 C2831 1.367 . S
C2831 C2830 1.367 . S
C2831 C2833 1.433 . S
C2832 C2828 1.350 . S
C2832 C2829 1.463 . S
C2832 N2836 1.427 . S
C2833 H2823 0.929 . S
C2833 C2831 1.433 . S
C2833 N2836 1.384 . S
C2834 H2825 0.929 . S
C2834 C2826 1.378 . S
C2834 C2829 1.350 . S
C2835 H2822 0.929 . S
C2835 C2827 1.433 . S
C2835 N2837 1.384 . S
N2836 C2832 1.427 . S
N2836 C2833 1.384 . S
N2837 C2829 1.427 . S
N2837 C2835 1.384 . S
H2838 C2844 0.930 . S
H2839 C2848 0.930 . S
H2840 C2853 0.929 . S
H2841 C2851 0.929 . S
H2842 C2846 0.929 . S
H2843 C2852 0.929 . S
C2844 H2838 0.930 . S
C2844 C2845 1.367 . S
C2844 C2852 1.378 . S
C2845 C2844 1.367 . S
C2845 C2853 1.433 . S
C2846 H2842 0.929 . S
C2846 C2848 1.378 . S
C2846 C2850 1.350 . S
C2847 C2850 1.463 . S
C2847 C2852 1.350 . S
C2847 N2855 1.427 . S
C2848 H2839 0.930 . S
C2848 C2846 1.378 . S
C2848 C2849 1.367 . S
C2849 C2848 1.367 . S
C2849 C2851 1.433 . S
C2850 C2846 1.350 . S
C2850 C2847 1.463 . S
C2850 N2854 1.427 . S
C2851 H2841 0.929 . S
C2851 C2849 1.433 . S
C2851 N2854 1.384 . S
C2852 H2843 0.929 . S
C2852 C2844 1.378 . S
C2852 C2847 1.350 . S
C2853 H2840 0.929 . S
C2853 C2845 1.433 . S
C2853 N2855 1.384 . S
N2854 C2850 1.427 . S
N2854 C2851 1.384 . S
N2855 C2847 1.427 . S
N2855 C2853 1.384 . S
H2856 C2862 0.930 . S
H2857 C2866 0.930 . S
H2858 C2871 0.929 . S
H2859 C2869 0.929 . S
H2860 C2864 0.929 . S
H2861 C2870 0.929 . S
C2862 H2856 0.930 . S
C2862 C2863 1.367 . S
C2862 C2870 1.378 . S
C2863 C2862 1.367 . S
C2863 C2871 1.433 . S
C2864 H2860 0.929 . S
C2864 C2866 1.378 . S
C2864 C2868 1.350 . S
C2865 C2868 1.463 1_556 S
C2865 C2870 1.350 . S
C2865 N2873 1.427 . S
C2866 H2857 0.930 . S
C2866 C2864 1.378 . S
C2866 C2867 1.367 . S
C2867 C2866 1.367 . S
C2867 C2869 1.433 . S
C2868 C2864 1.350 . S
C2868 C2865 1.463 1_554 S
C2868 N2872 1.427 . S
C2869 H2859 0.929 . S
C2869 C2867 1.433 . S
C2869 N2872 1.384 . S
C2870 H2861 0.929 . S
C2870 C2862 1.378 . S
C2870 C2865 1.350 . S
C2871 H2858 0.929 . S
C2871 C2863 1.433 . S
C2871 N2873 1.384 . S
N2872 C2868 1.427 . S
N2872 C2869 1.384 . S
N2873 C2865 1.427 . S
N2873 C2871 1.384 . S
H2874 C2880 0.930 . S
H2875 C2884 0.930 . S
H2876 C2889 0.929 . S
H2877 C2887 0.929 . S
H2878 C2882 0.929 . S
H2879 C2888 0.929 . S
C2880 H2874 0.930 . S
C2880 C2881 1.367 . S
C2880 C2888 1.378 . S
C2881 C2880 1.367 . S
C2881 C2889 1.433 . S
C2882 H2878 0.929 . S
C2882 C2884 1.378 . S
C2882 C2886 1.350 . S
C2883 C2886 1.463 . S
C2883 C2888 1.350 . S
C2883 N2891 1.427 . S
C2884 H2875 0.930 . S
C2884 C2882 1.378 . S
C2884 C2885 1.367 . S
C2885 C2884 1.367 . S
C2885 C2887 1.433 . S
C2886 C2882 1.350 . S
C2886 C2883 1.463 . S
C2886 N2890 1.427 . S
C2887 H2877 0.929 . S
C2887 C2885 1.433 . S
C2887 N2890 1.384 . S
C2888 H2879 0.929 . S
C2888 C2880 1.378 . S
C2888 C2883 1.350 . S
C2889 H2876 0.929 . S
C2889 C2881 1.433 . S
C2889 N2891 1.384 . S
N2890 C2886 1.427 . S
N2890 C2887 1.384 . S
N2891 C2883 1.427 . S
N2891 C2889 1.384 . S
H2892 C2898 0.930 . S
H2893 C2902 0.930 . S
H2894 C2907 0.929 . S
H2895 C2905 0.929 . S
H2896 C2900 0.929 . S
H2897 C2906 0.929 . S
C2898 H2892 0.930 . S
C2898 C2899 1.367 . S
C2898 C2906 1.378 . S
C2899 C2898 1.367 . S
C2899 C2907 1.433 . S
C2900 H2896 0.929 . S
C2900 C2902 1.378 . S
C2900 C2904 1.350 . S
C2901 C2904 1.463 . S
C2901 C2906 1.350 . S
C2901 N2909 1.427 . S
C2902 H2893 0.930 . S
C2902 C2900 1.378 . S
C2902 C2903 1.367 . S
C2903 C2902 1.367 . S
C2903 C2905 1.433 . S
C2904 C2900 1.350 . S
C2904 C2901 1.463 . S
C2904 N2908 1.427 . S
C2905 H2895 0.929 . S
C2905 C2903 1.433 . S
C2905 N2908 1.384 . S
C2906 H2897 0.929 . S
C2906 C2898 1.378 . S
C2906 C2901 1.350 . S
C2907 H2894 0.929 . S
C2907 C2899 1.433 . S
C2907 N2909 1.384 . S
N2908 C2904 1.427 . S
N2908 C2905 1.384 . S
N2909 C2901 1.427 . S
N2909 C2907 1.384 . S
H2910 C2916 0.930 . S
H2911 C2920 0.930 . S
H2912 C2925 0.929 . S
H2913 C2923 0.929 . S
H2914 C2918 0.929 . S
H2915 C2924 0.929 . S
C2916 H2910 0.930 . S
C2916 C2917 1.367 . S
C2916 C2924 1.378 . S
C2917 C2916 1.367 . S
C2917 C2925 1.433 . S
C2918 H2914 0.929 . S
C2918 C2920 1.378 . S
C2918 C2922 1.350 . S
C2919 C2922 1.463 1_565 S
C2919 C2924 1.350 . S
C2919 N2927 1.427 . S
C2920 H2911 0.930 . S
C2920 C2918 1.378 . S
C2920 C2921 1.367 . S
C2921 C2920 1.367 . S
C2921 C2923 1.433 . S
C2922 C2918 1.350 . S
C2922 C2919 1.463 1_545 S
C2922 N2926 1.427 . S
C2923 H2913 0.929 . S
C2923 C2921 1.433 . S
C2923 N2926 1.384 . S
C2924 H2915 0.929 . S
C2924 C2916 1.378 . S
C2924 C2919 1.350 . S
C2925 H2912 0.929 . S
C2925 C2917 1.433 . S
C2925 N2927 1.384 . S
N2926 C2922 1.427 . S
N2926 C2923 1.384 . S
N2927 C2919 1.427 . S
N2927 C2925 1.384 . S
H2928 C2934 0.930 . S
H2929 C2938 0.930 . S
H2930 C2943 0.929 . S
H2931 C2941 0.929 . S
H2932 C2936 0.929 . S
H2933 C2942 0.929 . S
C2934 H2928 0.930 . S
C2934 C2935 1.367 . S
C2934 C2942 1.378 . S
C2935 C2934 1.367 . S
C2935 C2943 1.433 . S
C2936 H2932 0.929 . S
C2936 C2938 1.378 . S
C2936 C2940 1.350 . S
C2937 C2940 1.463 . S
C2937 C2942 1.350 . S
C2937 N2945 1.427 . S
C2938 H2929 0.930 . S
C2938 C2936 1.378 . S
C2938 C2939 1.367 . S
C2939 C2938 1.367 . S
C2939 C2941 1.433 . S
C2940 C2936 1.350 . S
C2940 C2937 1.463 . S
C2940 N2944 1.427 . S
C2941 H2931 0.929 . S
C2941 C2939 1.433 . S
C2941 N2944 1.384 . S
C2942 H2933 0.929 . S
C2942 C2934 1.378 . S
C2942 C2937 1.350 . S
C2943 H2930 0.929 . S
C2943 C2935 1.433 . S
C2943 N2945 1.384 . S
N2944 C2940 1.427 . S
N2944 C2941 1.384 . S
N2945 C2937 1.427 . S
N2945 C2943 1.384 . S
H2946 C2952 0.930 . S
H2947 C2956 0.930 . S
H2948 C2961 0.929 . S
H2949 C2959 0.929 . S
H2950 C2954 0.929 . S
H2951 C2960 0.929 . S
C2952 H2946 0.930 . S
C2952 C2953 1.367 . S
C2952 C2960 1.378 . S
C2953 C2952 1.367 . S
C2953 C2961 1.433 . S
C2954 H2950 0.929 . S
C2954 C2956 1.378 . S
C2954 C2958 1.350 . S
C2955 C2958 1.463 . S
C2955 C2960 1.350 . S
C2955 N2963 1.427 . S
C2956 H2947 0.930 . S
C2956 C2954 1.378 . S
C2956 C2957 1.367 . S
C2957 C2956 1.367 . S
C2957 C2959 1.433 . S
C2958 C2954 1.350 . S
C2958 C2955 1.463 . S
C2958 N2962 1.427 . S
C2959 H2949 0.929 . S
C2959 C2957 1.433 . S
C2959 N2962 1.384 . S
C2960 H2951 0.929 . S
C2960 C2952 1.378 . S
C2960 C2955 1.350 . S
C2961 H2948 0.929 . S
C2961 C2953 1.433 . S
C2961 N2963 1.384 . S
N2962 C2958 1.427 . S
N2962 C2959 1.384 . S
N2963 C2955 1.427 . S
N2963 C2961 1.384 . S
H2964 C2970 0.930 . S
H2965 C2974 0.930 . S
H2966 C2979 0.929 . S
H2967 C2977 0.929 . S
H2968 C2972 0.929 . S
H2969 C2978 0.929 . S
C2970 H2964 0.930 . S
C2970 C2971 1.367 . S
C2970 C2978 1.378 . S
C2971 C2970 1.367 . S
C2971 C2979 1.433 . S
C2972 H2968 0.929 . S
C2972 C2974 1.378 . S
C2972 C2976 1.350 . S
C2973 C2976 1.463 . S
C2973 C2978 1.350 . S
C2973 N2981 1.427 . S
C2974 H2965 0.930 . S
C2974 C2972 1.378 . S
C2974 C2975 1.367 . S
C2975 C2974 1.367 . S
C2975 C2977 1.433 . S
C2976 C2972 1.350 . S
C2976 C2973 1.463 . S
C2976 N2980 1.427 . S
C2977 H2967 0.929 . S
C2977 C2975 1.433 . S
C2977 N2980 1.384 . S
C2978 H2969 0.929 . S
C2978 C2970 1.378 . S
C2978 C2973 1.350 . S
C2979 H2966 0.929 . S
C2979 C2971 1.433 . S
C2979 N2981 1.384 . S
N2980 C2976 1.427 . S
N2980 C2977 1.384 . S
N2981 C2973 1.427 . S
N2981 C2979 1.384 . S
H2982 C2988 0.930 . S
H2983 C2992 0.930 . S
H2984 C2997 0.929 . S
H2985 C2995 0.929 . S
H2986 C2990 0.929 . S
H2987 C2996 0.929 . S
C2988 H2982 0.930 . S
C2988 C2989 1.367 . S
C2988 C2996 1.378 . S
C2989 C2988 1.367 . S
C2989 C2997 1.433 . S
C2990 H2986 0.929 . S
C2990 C2992 1.378 . S
C2990 C2994 1.350 . S
C2991 C2994 1.463 . S
C2991 C2996 1.350 . S
C2991 N2999 1.427 . S
C2992 H2983 0.930 . S
C2992 C2990 1.378 . S
C2992 C2993 1.367 . S
C2993 C2992 1.367 . S
C2993 C2995 1.433 . S
C2994 C2990 1.350 . S
C2994 C2991 1.463 . S
C2994 N2998 1.427 . S
C2995 H2985 0.929 . S
C2995 C2993 1.433 . S
C2995 N2998 1.384 . S
C2996 H2987 0.929 . S
C2996 C2988 1.378 . S
C2996 C2991 1.350 . S
C2997 H2984 0.929 . S
C2997 C2989 1.433 . S
C2997 N2999 1.384 . S
N2998 C2994 1.427 . S
N2998 C2995 1.384 . S
N2999 C2991 1.427 . S
N2999 C2997 1.384 . S
H3000 C3006 0.930 . S
H3001 C3010 0.930 . S
H3002 C3015 0.929 . S
H3003 C3013 0.929 . S
H3004 C3008 0.929 . S
H3005 C3014 0.929 . S
C3006 H3000 0.930 . S
C3006 C3007 1.367 . S
C3006 C3014 1.378 . S
C3007 C3006 1.367 . S
C3007 C3015 1.433 . S
C3008 H3004 0.929 . S
C3008 C3010 1.378 . S
C3008 C3012 1.350 . S
C3009 C3012 1.463 . S
C3009 C3014 1.350 . S
C3009 N3017 1.427 . S
C3010 H3001 0.930 . S
C3010 C3008 1.378 . S
C3010 C3011 1.367 . S
C3011 C3010 1.367 . S
C3011 C3013 1.433 . S
C3012 C3008 1.350 . S
C3012 C3009 1.463 . S
C3012 N3016 1.427 . S
C3013 H3003 0.929 . S
C3013 C3011 1.433 . S
C3013 N3016 1.384 . S
C3014 H3005 0.929 . S
C3014 C3006 1.378 . S
C3014 C3009 1.350 . S
C3015 H3002 0.929 . S
C3015 C3007 1.433 . S
C3015 N3017 1.384 . S
N3016 C3012 1.427 . S
N3016 C3013 1.384 . S
N3017 C3009 1.427 . S
N3017 C3015 1.384 . S
H3018 C3024 0.930 . S
H3019 C3028 0.930 . S
H3020 C3033 0.929 . S
H3021 C3031 0.929 . S
H3022 C3026 0.929 . S
H3023 C3032 0.929 . S
C3024 H3018 0.930 . S
C3024 C3025 1.367 . S
C3024 C3032 1.378 . S
C3025 C3024 1.367 . S
C3025 C3033 1.433 . S
C3026 H3022 0.929 . S
C3026 C3028 1.378 . S
C3026 C3030 1.350 . S
C3027 C3030 1.463 . S
C3027 C3032 1.350 . S
C3027 N3035 1.427 . S
C3028 H3019 0.930 . S
C3028 C3026 1.378 . S
C3028 C3029 1.367 . S
C3029 C3028 1.367 . S
C3029 C3031 1.433 . S
C3030 C3026 1.350 . S
C3030 C3027 1.463 . S
C3030 N3034 1.427 . S
C3031 H3021 0.929 . S
C3031 C3029 1.433 . S
C3031 N3034 1.384 . S
C3032 H3023 0.929 . S
C3032 C3024 1.378 . S
C3032 C3027 1.350 . S
C3033 H3020 0.929 . S
C3033 C3025 1.433 . S
C3033 N3035 1.384 . S
N3034 C3030 1.427 . S
N3034 C3031 1.384 . S
N3035 C3027 1.427 . S
N3035 C3033 1.384 . S
H3036 C3042 0.930 . S
H3037 C3046 0.930 . S
H3038 C3051 0.929 . S
H3039 C3049 0.929 . S
H3040 C3044 0.929 . S
H3041 C3050 0.929 . S
C3042 H3036 0.930 . S
C3042 C3043 1.367 . S
C3042 C3050 1.378 . S
C3043 C3042 1.367 . S
C3043 C3051 1.433 . S
C3044 H3040 0.929 . S
C3044 C3046 1.378 . S
C3044 C3048 1.350 . S
C3045 C3048 1.463 . S
C3045 C3050 1.350 . S
C3045 N3053 1.427 . S
C3046 H3037 0.930 . S
C3046 C3044 1.378 . S
C3046 C3047 1.367 . S
C3047 C3046 1.367 . S
C3047 C3049 1.433 . S
C3048 C3044 1.350 . S
C3048 C3045 1.463 . S
C3048 N3052 1.427 . S
C3049 H3039 0.929 . S
C3049 C3047 1.433 . S
C3049 N3052 1.384 . S
C3050 H3041 0.929 . S
C3050 C3042 1.378 . S
C3050 C3045 1.350 . S
C3051 H3038 0.929 . S
C3051 C3043 1.433 . S
C3051 N3053 1.384 . S
N3052 C3048 1.427 . S
N3052 C3049 1.384 . S
N3053 C3045 1.427 . S
N3053 C3051 1.384 . S
H3054 C3060 0.930 . S
H3055 C3064 0.930 . S
H3056 C3069 0.929 . S
H3057 C3067 0.929 . S
H3058 C3062 0.929 . S
H3059 C3068 0.929 . S
C3060 H3054 0.930 . S
C3060 C3061 1.367 . S
C3060 C3068 1.378 . S
C3061 C3060 1.367 . S
C3061 C3069 1.433 . S
C3062 H3058 0.929 . S
C3062 C3064 1.378 . S
C3062 C3066 1.350 . S
C3063 C3066 1.463 . S
C3063 C3068 1.350 . S
C3063 N3071 1.427 . S
C3064 H3055 0.930 . S
C3064 C3062 1.378 . S
C3064 C3065 1.367 . S
C3065 C3064 1.367 . S
C3065 C3067 1.433 . S
C3066 C3062 1.350 . S
C3066 C3063 1.463 . S
C3066 N3070 1.427 . S
C3067 H3057 0.929 . S
C3067 C3065 1.433 . S
C3067 N3070 1.384 . S
C3068 H3059 0.929 . S
C3068 C3060 1.378 . S
C3068 C3063 1.350 . S
C3069 H3056 0.929 . S
C3069 C3061 1.433 . S
C3069 N3071 1.384 . S
N3070 C3066 1.427 . S
N3070 C3067 1.384 . S
N3071 C3063 1.427 . S
N3071 C3069 1.384 . S
H3072 C3078 0.930 . S
H3073 C3082 0.930 . S
H3074 C3087 0.929 . S
H3075 C3085 0.929 . S
H3076 C3080 0.929 . S
H3077 C3086 0.929 . S
C3078 H3072 0.930 . S
C3078 C3079 1.367 . S
C3078 C3086 1.378 . S
C3079 C3078 1.367 . S
C3079 C3087 1.433 . S
C3080 H3076 0.929 . S
C3080 C3082 1.378 . S
C3080 C3084 1.350 . S
C3081 C3084 1.463 . S
C3081 C3086 1.350 . S
C3081 N3089 1.427 . S
C3082 H3073 0.930 . S
C3082 C3080 1.378 . S
C3082 C3083 1.367 . S
C3083 C3082 1.367 . S
C3083 C3085 1.433 . S
C3084 C3080 1.350 . S
C3084 C3081 1.463 . S
C3084 N3088 1.427 . S
C3085 H3075 0.929 . S
C3085 C3083 1.433 . S
C3085 N3088 1.384 . S
C3086 H3077 0.929 . S
C3086 C3078 1.378 . S
C3086 C3081 1.350 . S
C3087 H3074 0.929 . S
C3087 C3079 1.433 . S
C3087 N3089 1.384 . S
N3088 C3084 1.427 . S
N3088 C3085 1.384 . S
N3089 C3081 1.427 . S
N3089 C3087 1.384 . S
H3090 C3096 0.930 . S
H3091 C3100 0.930 . S
H3092 C3105 0.929 . S
H3093 C3103 0.929 . S
H3094 C3098 0.929 . S
H3095 C3104 0.929 . S
C3096 H3090 0.930 . S
C3096 C3097 1.367 . S
C3096 C3104 1.378 . S
C3097 C3096 1.367 . S
C3097 C3105 1.433 . S
C3098 H3094 0.929 . S
C3098 C3100 1.378 . S
C3098 C3102 1.350 . S
C3099 C3102 1.463 . S
C3099 C3104 1.350 . S
C3099 N3107 1.427 . S
C3100 H3091 0.930 . S
C3100 C3098 1.378 . S
C3100 C3101 1.367 . S
C3101 C3100 1.367 . S
C3101 C3103 1.433 . S
C3102 C3098 1.350 . S
C3102 C3099 1.463 . S
C3102 N3106 1.427 . S
C3103 H3093 0.929 . S
C3103 C3101 1.433 . S
C3103 N3106 1.384 . S
C3104 H3095 0.929 . S
C3104 C3096 1.378 . S
C3104 C3099 1.350 . S
C3105 H3092 0.929 . S
C3105 C3097 1.433 . S
C3105 N3107 1.384 . S
N3106 C3102 1.427 . S
N3106 C3103 1.384 . S
N3107 C3099 1.427 . S
N3107 C3105 1.384 . S
H3108 C3114 0.930 . S
H3109 C3118 0.930 . S
H3110 C3123 0.929 . S
H3111 C3121 0.929 . S
H3112 C3116 0.929 . S
H3113 C3122 0.929 . S
C3114 H3108 0.930 . S
C3114 C3115 1.367 . S
C3114 C3122 1.378 . S
C3115 C3114 1.367 . S
C3115 C3123 1.433 . S
C3116 H3112 0.929 . S
C3116 C3118 1.378 . S
C3116 C3120 1.350 . S
C3117 C3120 1.463 . S
C3117 C3122 1.350 . S
C3117 N3125 1.427 . S
C3118 H3109 0.930 . S
C3118 C3116 1.378 . S
C3118 C3119 1.367 . S
C3119 C3118 1.367 . S
C3119 C3121 1.433 . S
C3120 C3116 1.350 . S
C3120 C3117 1.463 . S
C3120 N3124 1.427 . S
C3121 H3111 0.929 . S
C3121 C3119 1.433 . S
C3121 N3124 1.384 . S
C3122 H3113 0.929 . S
C3122 C3114 1.378 . S
C3122 C3117 1.350 . S
C3123 H3110 0.929 . S
C3123 C3115 1.433 . S
C3123 N3125 1.384 . S
N3124 C3120 1.427 . S
N3124 C3121 1.384 . S
N3125 C3117 1.427 . S
N3125 C3123 1.384 . S
H3126 C3132 0.930 . S
H3127 C3136 0.930 . S
H3128 C3141 0.929 . S
H3129 C3139 0.929 . S
H3130 C3134 0.929 . S
H3131 C3140 0.929 . S
C3132 H3126 0.930 . S
C3132 C3133 1.367 . S
C3132 C3140 1.378 . S
C3133 C3132 1.367 . S
C3133 C3141 1.433 . S
C3134 H3130 0.929 . S
C3134 C3136 1.378 . S
C3134 C3138 1.350 . S
C3135 C3138 1.463 . S
C3135 C3140 1.350 . S
C3135 N3143 1.427 . S
C3136 H3127 0.930 . S
C3136 C3134 1.378 . S
C3136 C3137 1.367 . S
C3137 C3136 1.367 . S
C3137 C3139 1.433 . S
C3138 C3134 1.350 . S
C3138 C3135 1.463 . S
C3138 N3142 1.427 . S
C3139 H3129 0.929 . S
C3139 C3137 1.433 . S
C3139 N3142 1.384 . S
C3140 H3131 0.929 . S
C3140 C3132 1.378 . S
C3140 C3135 1.350 . S
C3141 H3128 0.929 . S
C3141 C3133 1.433 . S
C3141 N3143 1.384 . S
N3142 C3138 1.427 . S
N3142 C3139 1.384 . S
N3143 C3135 1.427 . S
N3143 C3141 1.384 . S
H3144 C3150 0.930 . S
H3145 C3154 0.930 . S
H3146 C3159 0.929 . S
H3147 C3157 0.929 . S
H3148 C3152 0.929 . S
H3149 C3158 0.929 . S
C3150 H3144 0.930 . S
C3150 C3151 1.367 . S
C3150 C3158 1.378 . S
C3151 C3150 1.367 . S
C3151 C3159 1.433 . S
C3152 H3148 0.929 . S
C3152 C3154 1.378 . S
C3152 C3156 1.350 . S
C3153 C3156 1.463 . S
C3153 C3158 1.350 . S
C3153 N3161 1.427 . S
C3154 H3145 0.930 . S
C3154 C3152 1.378 . S
C3154 C3155 1.367 . S
C3155 C3154 1.367 . S
C3155 C3157 1.433 . S
C3156 C3152 1.350 . S
C3156 C3153 1.463 . S
C3156 N3160 1.427 . S
C3157 H3147 0.929 . S
C3157 C3155 1.433 . S
C3157 N3160 1.384 . S
C3158 H3149 0.929 . S
C3158 C3150 1.378 . S
C3158 C3153 1.350 . S
C3159 H3146 0.929 . S
C3159 C3151 1.433 . S
C3159 N3161 1.384 . S
N3160 C3156 1.427 . S
N3160 C3157 1.384 . S
N3161 C3153 1.427 . S
N3161 C3159 1.384 . S
H3162 C3168 0.930 . S
H3163 C3172 0.930 . S
H3164 C3177 0.929 . S
H3165 C3175 0.929 . S
H3166 C3170 0.929 . S
H3167 C3176 0.929 . S
C3168 H3162 0.930 . S
C3168 C3169 1.367 . S
C3168 C3176 1.378 . S
C3169 C3168 1.367 . S
C3169 C3177 1.433 . S
C3170 H3166 0.929 . S
C3170 C3172 1.378 . S
C3170 C3174 1.350 . S
C3171 C3174 1.463 . S
C3171 C3176 1.350 . S
C3171 N3179 1.427 . S
C3172 H3163 0.930 . S
C3172 C3170 1.378 . S
C3172 C3173 1.367 . S
C3173 C3172 1.367 . S
C3173 C3175 1.433 . S
C3174 C3170 1.350 . S
C3174 C3171 1.463 . S
C3174 N3178 1.427 . S
C3175 H3165 0.929 . S
C3175 C3173 1.433 . S
C3175 N3178 1.384 . S
C3176 H3167 0.929 . S
C3176 C3168 1.378 . S
C3176 C3171 1.350 . S
C3177 H3164 0.929 . S
C3177 C3169 1.433 . S
C3177 N3179 1.384 . S
N3178 C3174 1.427 . S
N3178 C3175 1.384 . S
N3179 C3171 1.427 . S
N3179 C3177 1.384 . S
H3180 C3186 0.930 . S
H3181 C3190 0.930 . S
H3182 C3195 0.929 . S
H3183 C3193 0.929 . S
H3184 C3188 0.929 . S
H3185 C3194 0.929 . S
C3186 H3180 0.930 . S
C3186 C3187 1.367 . S
C3186 C3194 1.378 . S
C3187 C3186 1.367 . S
C3187 C3195 1.433 . S
C3188 H3184 0.929 . S
C3188 C3190 1.378 . S
C3188 C3192 1.350 . S
C3189 C3192 1.463 . S
C3189 C3194 1.350 . S
C3189 N3197 1.427 . S
C3190 H3181 0.930 . S
C3190 C3188 1.378 . S
C3190 C3191 1.367 . S
C3191 C3190 1.367 . S
C3191 C3193 1.433 . S
C3192 C3188 1.350 . S
C3192 C3189 1.463 . S
C3192 N3196 1.427 . S
C3193 H3183 0.929 . S
C3193 C3191 1.433 . S
C3193 N3196 1.384 . S
C3194 H3185 0.929 . S
C3194 C3186 1.378 . S
C3194 C3189 1.350 . S
C3195 H3182 0.929 . S
C3195 C3187 1.433 . S
C3195 N3197 1.384 . S
N3196 C3192 1.427 . S
N3196 C3193 1.384 . S
N3197 C3189 1.427 . S
N3197 C3195 1.384 . S
H3198 C3204 0.930 . S
H3199 C3208 0.930 . S
H3200 C3213 0.929 . S
H3201 C3211 0.929 . S
H3202 C3206 0.929 . S
H3203 C3212 0.929 . S
C3204 H3198 0.930 . S
C3204 C3205 1.367 . S
C3204 C3212 1.378 . S
C3205 C3204 1.367 . S
C3205 C3213 1.433 . S
C3206 H3202 0.929 . S
C3206 C3208 1.378 . S
C3206 C3210 1.350 . S
C3207 C3210 1.463 . S
C3207 C3212 1.350 . S
C3207 N3215 1.427 . S
C3208 H3199 0.930 . S
C3208 C3206 1.378 . S
C3208 C3209 1.367 . S
C3209 C3208 1.367 . S
C3209 C3211 1.433 . S
C3210 C3206 1.350 . S
C3210 C3207 1.463 . S
C3210 N3214 1.427 . S
C3211 H3201 0.929 . S
C3211 C3209 1.433 . S
C3211 N3214 1.384 . S
C3212 H3203 0.929 . S
C3212 C3204 1.378 . S
C3212 C3207 1.350 . S
C3213 H3200 0.929 . S
C3213 C3205 1.433 . S
C3213 N3215 1.384 . S
N3214 C3210 1.427 . S
N3214 C3211 1.384 . S
N3215 C3207 1.427 . S
N3215 C3213 1.384 . S
H3216 C3222 0.930 . S
H3217 C3226 0.930 . S
H3218 C3231 0.929 . S
H3219 C3229 0.929 . S
H3220 C3224 0.929 . S
H3221 C3230 0.929 . S
C3222 H3216 0.930 . S
C3222 C3223 1.367 . S
C3222 C3230 1.378 . S
C3223 C3222 1.367 . S
C3223 C3231 1.433 . S
C3224 H3220 0.929 . S
C3224 C3226 1.378 . S
C3224 C3228 1.350 . S
C3225 C3228 1.463 . S
C3225 C3230 1.350 . S
C3225 N3233 1.427 . S
C3226 H3217 0.930 . S
C3226 C3224 1.378 . S
C3226 C3227 1.367 . S
C3227 C3226 1.367 . S
C3227 C3229 1.433 . S
C3228 C3224 1.350 . S
C3228 C3225 1.463 . S
C3228 N3232 1.427 . S
C3229 H3219 0.929 . S
C3229 C3227 1.433 . S
C3229 N3232 1.384 . S
C3230 H3221 0.929 . S
C3230 C3222 1.378 . S
C3230 C3225 1.350 . S
C3231 H3218 0.929 . S
C3231 C3223 1.433 . S
C3231 N3233 1.384 . S
N3232 C3228 1.427 . S
N3232 C3229 1.384 . S
N3233 C3225 1.427 . S
N3233 C3231 1.384 . S
H3234 C3240 0.930 . S
H3235 C3244 0.930 . S
H3236 C3249 0.929 . S
H3237 C3247 0.929 . S
H3238 C3242 0.929 . S
H3239 C3248 0.929 . S
C3240 H3234 0.930 . S
C3240 C3241 1.367 . S
C3240 C3248 1.378 . S
C3241 C3240 1.367 . S
C3241 C3249 1.433 . S
C3242 H3238 0.929 . S
C3242 C3244 1.378 . S
C3242 C3246 1.350 . S
C3243 C3246 1.463 . S
C3243 C3248 1.350 . S
C3243 N3251 1.427 . S
C3244 H3235 0.930 . S
C3244 C3242 1.378 . S
C3244 C3245 1.367 . S
C3245 C3244 1.367 . S
C3245 C3247 1.433 . S
C3246 C3242 1.350 . S
C3246 C3243 1.463 . S
C3246 N3250 1.427 . S
C3247 H3237 0.929 . S
C3247 C3245 1.433 . S
C3247 N3250 1.384 . S
C3248 H3239 0.929 . S
C3248 C3240 1.378 . S
C3248 C3243 1.350 . S
C3249 H3236 0.929 . S
C3249 C3241 1.433 . S
C3249 N3251 1.384 . S
N3250 C3246 1.427 . S
N3250 C3247 1.384 . S
N3251 C3243 1.427 . S
N3251 C3249 1.384 . S
H3252 C3258 0.930 . S
H3253 C3262 0.930 . S
H3254 C3267 0.929 . S
H3255 C3265 0.929 . S
H3256 C3260 0.929 . S
H3257 C3266 0.929 . S
C3258 H3252 0.930 . S
C3258 C3259 1.367 . S
C3258 C3266 1.378 . S
C3259 C3258 1.367 . S
C3259 C3267 1.433 . S
C3260 H3256 0.929 . S
C3260 C3262 1.378 . S
C3260 C3264 1.350 . S
C3261 C3264 1.463 . S
C3261 C3266 1.350 . S
C3261 N3269 1.427 . S
C3262 H3253 0.930 . S
C3262 C3260 1.378 . S
C3262 C3263 1.367 . S
C3263 C3262 1.367 . S
C3263 C3265 1.433 . S
C3264 C3260 1.350 . S
C3264 C3261 1.463 . S
C3264 N3268 1.427 . S
C3265 H3255 0.929 . S
C3265 C3263 1.433 . S
C3265 N3268 1.384 . S
C3266 H3257 0.929 . S
C3266 C3258 1.378 . S
C3266 C3261 1.350 . S
C3267 H3254 0.929 . S
C3267 C3259 1.433 . S
C3267 N3269 1.384 . S
N3268 C3264 1.427 . S
N3268 C3265 1.384 . S
N3269 C3261 1.427 . S
N3269 C3267 1.384 . S
H3270 C3276 0.930 . S
H3271 C3280 0.930 . S
H3272 C3285 0.929 . S
H3273 C3283 0.929 . S
H3274 C3278 0.929 . S
H3275 C3284 0.929 . S
C3276 H3270 0.930 . S
C3276 C3277 1.367 . S
C3276 C3284 1.378 . S
C3277 C3276 1.367 . S
C3277 C3285 1.433 . S
C3278 H3274 0.929 . S
C3278 C3280 1.378 . S
C3278 C3282 1.350 . S
C3279 C3282 1.463 . S
C3279 C3284 1.350 . S
C3279 N3287 1.427 . S
C3280 H3271 0.930 . S
C3280 C3278 1.378 . S
C3280 C3281 1.367 . S
C3281 C3280 1.367 . S
C3281 C3283 1.433 . S
C3282 C3278 1.350 . S
C3282 C3279 1.463 . S
C3282 N3286 1.427 . S
C3283 H3273 0.929 . S
C3283 C3281 1.433 . S
C3283 N3286 1.384 . S
C3284 H3275 0.929 . S
C3284 C3276 1.378 . S
C3284 C3279 1.350 . S
C3285 H3272 0.929 . S
C3285 C3277 1.433 . S
C3285 N3287 1.384 . S
N3286 C3282 1.427 . S
N3286 C3283 1.384 . S
N3287 C3279 1.427 . S
N3287 C3285 1.384 . S
H3288 C3294 0.930 . S
H3289 C3298 0.930 . S
H3290 C3303 0.929 . S
H3291 C3301 0.929 . S
H3292 C3296 0.929 . S
H3293 C3302 0.929 . S
C3294 H3288 0.930 . S
C3294 C3295 1.367 . S
C3294 C3302 1.378 . S
C3295 C3294 1.367 . S
C3295 C3303 1.433 . S
C3296 H3292 0.929 . S
C3296 C3298 1.378 . S
C3296 C3300 1.350 . S
C3297 C3300 1.463 . S
C3297 C3302 1.350 . S
C3297 N3305 1.427 . S
C3298 H3289 0.930 . S
C3298 C3296 1.378 . S
C3298 C3299 1.367 . S
C3299 C3298 1.367 . S
C3299 C3301 1.433 . S
C3300 C3296 1.350 . S
C3300 C3297 1.463 . S
C3300 N3304 1.427 . S
C3301 H3291 0.929 . S
C3301 C3299 1.433 . S
C3301 N3304 1.384 . S
C3302 H3293 0.929 . S
C3302 C3294 1.378 . S
C3302 C3297 1.350 . S
C3303 H3290 0.929 . S
C3303 C3295 1.433 . S
C3303 N3305 1.384 . S
N3304 C3300 1.427 . S
N3304 C3301 1.384 . S
N3305 C3297 1.427 . S
N3305 C3303 1.384 . S
H3306 C3312 0.930 . S
H3307 C3316 0.930 . S
H3308 C3321 0.929 . S
H3309 C3319 0.929 . S
H3310 C3314 0.929 . S
H3311 C3320 0.929 . S
C3312 H3306 0.930 . S
C3312 C3313 1.367 . S
C3312 C3320 1.378 . S
C3313 C3312 1.367 . S
C3313 C3321 1.433 . S
C3314 H3310 0.929 . S
C3314 C3316 1.378 . S
C3314 C3318 1.350 . S
C3315 C3318 1.463 . S
C3315 C3320 1.350 . S
C3315 N3323 1.427 . S
C3316 H3307 0.930 . S
C3316 C3314 1.378 . S
C3316 C3317 1.367 . S
C3317 C3316 1.367 . S
C3317 C3319 1.433 . S
C3318 C3314 1.350 . S
C3318 C3315 1.463 . S
C3318 N3322 1.427 . S
C3319 H3309 0.929 . S
C3319 C3317 1.433 . S
C3319 N3322 1.384 . S
C3320 H3311 0.929 . S
C3320 C3312 1.378 . S
C3320 C3315 1.350 . S
C3321 H3308 0.929 . S
C3321 C3313 1.433 . S
C3321 N3323 1.384 . S
N3322 C3318 1.427 . S
N3322 C3319 1.384 . S
N3323 C3315 1.427 . S
N3323 C3321 1.384 . S
H3324 C3330 0.930 . S
H3325 C3334 0.930 . S
H3326 C3339 0.929 . S
H3327 C3337 0.929 . S
H3328 C3332 0.929 . S
H3329 C3338 0.929 . S
C3330 H3324 0.930 . S
C3330 C3331 1.367 . S
C3330 C3338 1.378 . S
C3331 C3330 1.367 . S
C3331 C3339 1.433 . S
C3332 H3328 0.929 . S
C3332 C3334 1.378 . S
C3332 C3336 1.350 . S
C3333 C3336 1.463 . S
C3333 C3338 1.350 . S
C3333 N3341 1.427 . S
C3334 H3325 0.930 . S
C3334 C3332 1.378 . S
C3334 C3335 1.367 . S
C3335 C3334 1.367 . S
C3335 C3337 1.433 . S
C3336 C3332 1.350 . S
C3336 C3333 1.463 . S
C3336 N3340 1.427 . S
C3337 H3327 0.929 . S
C3337 C3335 1.433 . S
C3337 N3340 1.384 . S
C3338 H3329 0.929 . S
C3338 C3330 1.378 . S
C3338 C3333 1.350 . S
C3339 H3326 0.929 . S
C3339 C3331 1.433 . S
C3339 N3341 1.384 . S
N3340 C3336 1.427 . S
N3340 C3337 1.384 . S
N3341 C3333 1.427 . S
N3341 C3339 1.384 . S
H3342 C3348 0.930 . S
H3343 C3352 0.930 . S
H3344 C3357 0.929 . S
H3345 C3355 0.929 . S
H3346 C3350 0.929 . S
H3347 C3356 0.929 . S
C3348 H3342 0.930 . S
C3348 C3349 1.367 . S
C3348 C3356 1.378 . S
C3349 C3348 1.367 . S
C3349 C3357 1.433 . S
C3350 H3346 0.929 . S
C3350 C3352 1.378 . S
C3350 C3354 1.350 . S
C3351 C3354 1.463 . S
C3351 C3356 1.350 . S
C3351 N3359 1.427 . S
C3352 H3343 0.930 . S
C3352 C3350 1.378 . S
C3352 C3353 1.367 . S
C3353 C3352 1.367 . S
C3353 C3355 1.433 . S
C3354 C3350 1.350 . S
C3354 C3351 1.463 . S
C3354 N3358 1.427 . S
C3355 H3345 0.929 . S
C3355 C3353 1.433 . S
C3355 N3358 1.384 . S
C3356 H3347 0.929 . S
C3356 C3348 1.378 . S
C3356 C3351 1.350 . S
C3357 H3344 0.929 . S
C3357 C3349 1.433 . S
C3357 N3359 1.384 . S
N3358 C3354 1.427 . S
N3358 C3355 1.384 . S
N3359 C3351 1.427 . S
N3359 C3357 1.384 . S
H3360 C3366 0.930 . S
H3361 C3370 0.930 . S
H3362 C3375 0.929 . S
H3363 C3373 0.929 . S
H3364 C3368 0.929 . S
H3365 C3374 0.929 . S
C3366 H3360 0.930 . S
C3366 C3367 1.367 . S
C3366 C3374 1.378 . S
C3367 C3366 1.367 . S
C3367 C3375 1.433 . S
C3368 H3364 0.929 . S
C3368 C3370 1.378 . S
C3368 C3372 1.350 . S
C3369 C3372 1.463 . S
C3369 C3374 1.350 . S
C3369 N3377 1.427 . S
C3370 H3361 0.930 . S
C3370 C3368 1.378 . S
C3370 C3371 1.367 . S
C3371 C3370 1.367 . S
C3371 C3373 1.433 . S
C3372 C3368 1.350 . S
C3372 C3369 1.463 . S
C3372 N3376 1.427 . S
C3373 H3363 0.929 . S
C3373 C3371 1.433 . S
C3373 N3376 1.384 . S
C3374 H3365 0.929 . S
C3374 C3366 1.378 . S
C3374 C3369 1.350 . S
C3375 H3362 0.929 . S
C3375 C3367 1.433 . S
C3375 N3377 1.384 . S
N3376 C3372 1.427 . S
N3376 C3373 1.384 . S
N3377 C3369 1.427 . S
N3377 C3375 1.384 . S
H3378 C3384 0.930 . S
H3379 C3388 0.930 . S
H3380 C3393 0.929 . S
H3381 C3391 0.929 . S
H3382 C3386 0.929 . S
H3383 C3392 0.929 . S
C3384 H3378 0.930 . S
C3384 C3385 1.367 . S
C3384 C3392 1.378 . S
C3385 C3384 1.367 . S
C3385 C3393 1.433 . S
C3386 H3382 0.929 . S
C3386 C3388 1.378 . S
C3386 C3390 1.350 . S
C3387 C3390 1.463 . S
C3387 C3392 1.350 . S
C3387 N3395 1.427 . S
C3388 H3379 0.930 . S
C3388 C3386 1.378 . S
C3388 C3389 1.367 . S
C3389 C3388 1.367 . S
C3389 C3391 1.433 . S
C3390 C3386 1.350 . S
C3390 C3387 1.463 . S
C3390 N3394 1.427 . S
C3391 H3381 0.929 . S
C3391 C3389 1.433 . S
C3391 N3394 1.384 . S
C3392 H3383 0.929 . S
C3392 C3384 1.378 . S
C3392 C3387 1.350 . S
C3393 H3380 0.929 . S
C3393 C3385 1.433 . S
C3393 N3395 1.384 . S
N3394 C3390 1.427 . S
N3394 C3391 1.384 . S
N3395 C3387 1.427 . S
N3395 C3393 1.384 . S
H3396 C3402 0.930 . S
H3397 C3406 0.930 . S
H3398 C3411 0.929 . S
H3399 C3409 0.929 . S
H3400 C3404 0.929 . S
H3401 C3410 0.929 . S
C3402 H3396 0.930 . S
C3402 C3403 1.367 . S
C3402 C3410 1.378 . S
C3403 C3402 1.367 . S
C3403 C3411 1.433 . S
C3404 H3400 0.929 . S
C3404 C3406 1.378 . S
C3404 C3408 1.350 . S
C3405 C3408 1.463 . S
C3405 C3410 1.350 . S
C3405 N3413 1.427 . S
C3406 H3397 0.930 . S
C3406 C3404 1.378 . S
C3406 C3407 1.367 . S
C3407 C3406 1.367 . S
C3407 C3409 1.433 . S
C3408 C3404 1.350 . S
C3408 C3405 1.463 . S
C3408 N3412 1.427 . S
C3409 H3399 0.929 . S
C3409 C3407 1.433 . S
C3409 N3412 1.384 . S
C3410 H3401 0.929 . S
C3410 C3402 1.378 . S
C3410 C3405 1.350 . S
C3411 H3398 0.929 . S
C3411 C3403 1.433 . S
C3411 N3413 1.384 . S
N3412 C3408 1.427 . S
N3412 C3409 1.384 . S
N3413 C3405 1.427 . S
N3413 C3411 1.384 . S
H3414 C3420 0.930 . S
H3415 C3424 0.930 . S
H3416 C3429 0.929 . S
H3417 C3427 0.929 . S
H3418 C3422 0.929 . S
H3419 C3428 0.929 . S
C3420 H3414 0.930 . S
C3420 C3421 1.367 . S
C3420 C3428 1.378 . S
C3421 C3420 1.367 . S
C3421 C3429 1.433 . S
C3422 H3418 0.929 . S
C3422 C3424 1.378 . S
C3422 C3426 1.350 . S
C3423 C3426 1.463 . S
C3423 C3428 1.350 . S
C3423 N3431 1.427 . S
C3424 H3415 0.930 . S
C3424 C3422 1.378 . S
C3424 C3425 1.367 . S
C3425 C3424 1.367 . S
C3425 C3427 1.433 . S
C3426 C3422 1.350 . S
C3426 C3423 1.463 . S
C3426 N3430 1.427 . S
C3427 H3417 0.929 . S
C3427 C3425 1.433 . S
C3427 N3430 1.384 . S
C3428 H3419 0.929 . S
C3428 C3420 1.378 . S
C3428 C3423 1.350 . S
C3429 H3416 0.929 . S
C3429 C3421 1.433 . S
C3429 N3431 1.384 . S
N3430 C3426 1.427 . S
N3430 C3427 1.384 . S
N3431 C3423 1.427 . S
N3431 C3429 1.384 . S
H3432 C3438 0.930 . S
H3433 C3442 0.930 . S
H3434 C3447 0.929 . S
H3435 C3445 0.929 . S
H3436 C3440 0.929 . S
H3437 C3446 0.929 . S
C3438 H3432 0.930 . S
C3438 C3439 1.367 . S
C3438 C3446 1.378 . S
C3439 C3438 1.367 . S
C3439 C3447 1.433 . S
C3440 H3436 0.929 . S
C3440 C3442 1.378 . S
C3440 C3444 1.350 . S
C3441 C3444 1.463 . S
C3441 C3446 1.350 . S
C3441 N3449 1.427 . S
C3442 H3433 0.930 . S
C3442 C3440 1.378 . S
C3442 C3443 1.367 . S
C3443 C3442 1.367 . S
C3443 C3445 1.433 . S
C3444 C3440 1.350 . S
C3444 C3441 1.463 . S
C3444 N3448 1.427 . S
C3445 H3435 0.929 . S
C3445 C3443 1.433 . S
C3445 N3448 1.384 . S
C3446 H3437 0.929 . S
C3446 C3438 1.378 . S
C3446 C3441 1.350 . S
C3447 H3434 0.929 . S
C3447 C3439 1.433 . S
C3447 N3449 1.384 . S
N3448 C3444 1.427 . S
N3448 C3445 1.384 . S
N3449 C3441 1.427 . S
N3449 C3447 1.384 . S
H3450 C3456 0.930 . S
H3451 C3460 0.930 . S
H3452 C3465 0.929 . S
H3453 C3463 0.929 . S
H3454 C3458 0.929 . S
H3455 C3464 0.929 . S
C3456 H3450 0.930 . S
C3456 C3457 1.367 . S
C3456 C3464 1.378 . S
C3457 C3456 1.367 . S
C3457 C3465 1.433 . S
C3458 H3454 0.929 . S
C3458 C3460 1.378 . S
C3458 C3462 1.350 . S
C3459 C3462 1.463 . S
C3459 C3464 1.350 . S
C3459 N3467 1.427 . S
C3460 H3451 0.930 . S
C3460 C3458 1.378 . S
C3460 C3461 1.367 . S
C3461 C3460 1.367 . S
C3461 C3463 1.433 . S
C3462 C3458 1.350 . S
C3462 C3459 1.463 . S
C3462 N3466 1.427 . S
C3463 H3453 0.929 . S
C3463 C3461 1.433 . S
C3463 N3466 1.384 . S
C3464 H3455 0.929 . S
C3464 C3456 1.378 . S
C3464 C3459 1.350 . S
C3465 H3452 0.929 . S
C3465 C3457 1.433 . S
C3465 N3467 1.384 . S
N3466 C3462 1.427 . S
N3466 C3463 1.384 . S
N3467 C3459 1.427 . S
N3467 C3465 1.384 . S
H3468 C3474 0.930 . S
H3469 C3478 0.930 . S
H3470 C3483 0.929 . S
H3471 C3481 0.929 . S
H3472 C3476 0.929 . S
H3473 C3482 0.929 . S
C3474 H3468 0.930 . S
C3474 C3475 1.367 . S
C3474 C3482 1.378 . S
C3475 C3474 1.367 . S
C3475 C3483 1.433 . S
C3476 H3472 0.929 . S
C3476 C3478 1.378 . S
C3476 C3480 1.350 . S
C3477 C3480 1.463 . S
C3477 C3482 1.350 . S
C3477 N3485 1.427 . S
C3478 H3469 0.930 . S
C3478 C3476 1.378 . S
C3478 C3479 1.367 . S
C3479 C3478 1.367 . S
C3479 C3481 1.433 . S
C3480 C3476 1.350 . S
C3480 C3477 1.463 . S
C3480 N3484 1.427 . S
C3481 H3471 0.929 . S
C3481 C3479 1.433 . S
C3481 N3484 1.384 . S
C3482 H3473 0.929 . S
C3482 C3474 1.378 . S
C3482 C3477 1.350 . S
C3483 H3470 0.929 . S
C3483 C3475 1.433 . S
C3483 N3485 1.384 . S
N3484 C3480 1.427 . S
N3484 C3481 1.384 . S
N3485 C3477 1.427 . S
N3485 C3483 1.384 . S
H3486 C3492 0.930 . S
H3487 C3496 0.930 . S
H3488 C3501 0.929 . S
H3489 C3499 0.929 . S
H3490 C3494 0.929 . S
H3491 C3500 0.929 . S
C3492 H3486 0.930 . S
C3492 C3493 1.367 . S
C3492 C3500 1.378 . S
C3493 C3492 1.367 . S
C3493 C3501 1.433 . S
C3494 H3490 0.929 . S
C3494 C3496 1.378 . S
C3494 C3498 1.350 . S
C3495 C3498 1.463 . S
C3495 C3500 1.350 . S
C3495 N3503 1.427 . S
C3496 H3487 0.930 . S
C3496 C3494 1.378 . S
C3496 C3497 1.367 . S
C3497 C3496 1.367 . S
C3497 C3499 1.433 . S
C3498 C3494 1.350 . S
C3498 C3495 1.463 . S
C3498 N3502 1.427 . S
C3499 H3489 0.929 . S
C3499 C3497 1.433 . S
C3499 N3502 1.384 . S
C3500 H3491 0.929 . S
C3500 C3492 1.378 . S
C3500 C3495 1.350 . S
C3501 H3488 0.929 . S
C3501 C3493 1.433 . S
C3501 N3503 1.384 . S
N3502 C3498 1.427 . S
N3502 C3499 1.384 . S
N3503 C3495 1.427 . S
N3503 C3501 1.384 . S
H3504 C3510 0.930 . S
H3505 C3514 0.930 . S
H3506 C3519 0.929 . S
H3507 C3517 0.929 . S
H3508 C3512 0.929 . S
H3509 C3518 0.929 . S
C3510 H3504 0.930 . S
C3510 C3511 1.367 . S
C3510 C3518 1.378 . S
C3511 C3510 1.367 . S
C3511 C3519 1.433 . S
C3512 H3508 0.929 . S
C3512 C3514 1.378 . S
C3512 C3516 1.350 . S
C3513 C3516 1.463 . S
C3513 C3518 1.350 . S
C3513 N3521 1.427 . S
C3514 H3505 0.930 . S
C3514 C3512 1.378 . S
C3514 C3515 1.367 . S
C3515 C3514 1.367 . S
C3515 C3517 1.433 . S
C3516 C3512 1.350 . S
C3516 C3513 1.463 . S
C3516 N3520 1.427 . S
C3517 H3507 0.929 . S
C3517 C3515 1.433 . S
C3517 N3520 1.384 . S
C3518 H3509 0.929 . S
C3518 C3510 1.378 . S
C3518 C3513 1.350 . S
C3519 H3506 0.929 . S
C3519 C3511 1.433 . S
C3519 N3521 1.384 . S
N3520 C3516 1.427 . S
N3520 C3517 1.384 . S
N3521 C3513 1.427 . S
N3521 C3519 1.384 . S
H3522 C3528 0.930 . S
H3523 C3532 0.930 . S
H3524 C3537 0.929 . S
H3525 C3535 0.929 . S
H3526 C3530 0.929 . S
H3527 C3536 0.929 . S
C3528 H3522 0.930 . S
C3528 C3529 1.367 . S
C3528 C3536 1.378 . S
C3529 C3528 1.367 . S
C3529 C3537 1.433 . S
C3530 H3526 0.929 . S
C3530 C3532 1.378 . S
C3530 C3534 1.350 . S
C3531 C3534 1.463 . S
C3531 C3536 1.350 . S
C3531 N3539 1.427 . S
C3532 H3523 0.930 . S
C3532 C3530 1.378 . S
C3532 C3533 1.367 . S
C3533 C3532 1.367 . S
C3533 C3535 1.433 . S
C3534 C3530 1.350 . S
C3534 C3531 1.463 . S
C3534 N3538 1.427 . S
C3535 H3525 0.929 . S
C3535 C3533 1.433 . S
C3535 N3538 1.384 . S
C3536 H3527 0.929 . S
C3536 C3528 1.378 . S
C3536 C3531 1.350 . S
C3537 H3524 0.929 . S
C3537 C3529 1.433 . S
C3537 N3539 1.384 . S
N3538 C3534 1.427 . S
N3538 C3535 1.384 . S
N3539 C3531 1.427 . S
N3539 C3537 1.384 . S
H3540 C3546 0.930 . S
H3541 C3550 0.930 . S
H3542 C3555 0.929 . S
H3543 C3553 0.929 . S
H3544 C3548 0.929 . S
H3545 C3554 0.929 . S
C3546 H3540 0.930 . S
C3546 C3547 1.367 . S
C3546 C3554 1.378 . S
C3547 C3546 1.367 . S
C3547 C3555 1.433 . S
C3548 H3544 0.929 . S
C3548 C3550 1.378 . S
C3548 C3552 1.350 . S
C3549 C3552 1.463 . S
C3549 C3554 1.350 . S
C3549 N3557 1.427 . S
C3550 H3541 0.930 . S
C3550 C3548 1.378 . S
C3550 C3551 1.367 . S
C3551 C3550 1.367 . S
C3551 C3553 1.433 . S
C3552 C3548 1.350 . S
C3552 C3549 1.463 . S
C3552 N3556 1.427 . S
C3553 H3543 0.929 . S
C3553 C3551 1.433 . S
C3553 N3556 1.384 . S
C3554 H3545 0.929 . S
C3554 C3546 1.378 . S
C3554 C3549 1.350 . S
C3555 H3542 0.929 . S
C3555 C3547 1.433 . S
C3555 N3557 1.384 . S
N3556 C3552 1.427 . S
N3556 C3553 1.384 . S
N3557 C3549 1.427 . S
N3557 C3555 1.384 . S
H3558 C3564 0.930 . S
H3559 C3568 0.930 . S
H3560 C3573 0.929 . S
H3561 C3571 0.929 . S
H3562 C3566 0.929 . S
H3563 C3572 0.929 . S
C3564 H3558 0.930 . S
C3564 C3565 1.367 . S
C3564 C3572 1.378 . S
C3565 C3564 1.367 . S
C3565 C3573 1.433 . S
C3566 H3562 0.929 . S
C3566 C3568 1.378 . S
C3566 C3570 1.350 . S
C3567 C3570 1.463 . S
C3567 C3572 1.350 . S
C3567 N3575 1.427 . S
C3568 H3559 0.930 . S
C3568 C3566 1.378 . S
C3568 C3569 1.367 . S
C3569 C3568 1.367 . S
C3569 C3571 1.433 . S
C3570 C3566 1.350 . S
C3570 C3567 1.463 . S
C3570 N3574 1.427 . S
C3571 H3561 0.929 . S
C3571 C3569 1.433 . S
C3571 N3574 1.384 . S
C3572 H3563 0.929 . S
C3572 C3564 1.378 . S
C3572 C3567 1.350 . S
C3573 H3560 0.929 . S
C3573 C3565 1.433 . S
C3573 N3575 1.384 . S
N3574 C3570 1.427 . S
N3574 C3571 1.384 . S
N3575 C3567 1.427 . S
N3575 C3573 1.384 . S
H3576 C3582 0.930 . S
H3577 C3586 0.930 . S
H3578 C3591 0.929 . S
H3579 C3589 0.929 . S
H3580 C3584 0.929 . S
H3581 C3590 0.929 . S
C3582 H3576 0.930 . S
C3582 C3583 1.367 . S
C3582 C3590 1.378 . S
C3583 C3582 1.367 . S
C3583 C3591 1.433 . S
C3584 H3580 0.929 . S
C3584 C3586 1.378 . S
C3584 C3588 1.350 . S
C3585 C3588 1.463 . S
C3585 C3590 1.350 . S
C3585 N3593 1.427 . S
C3586 H3577 0.930 . S
C3586 C3584 1.378 . S
C3586 C3587 1.367 . S
C3587 C3586 1.367 . S
C3587 C3589 1.433 . S
C3588 C3584 1.350 . S
C3588 C3585 1.463 . S
C3588 N3592 1.427 . S
C3589 H3579 0.929 . S
C3589 C3587 1.433 . S
C3589 N3592 1.384 . S
C3590 H3581 0.929 . S
C3590 C3582 1.378 . S
C3590 C3585 1.350 . S
C3591 H3578 0.929 . S
C3591 C3583 1.433 . S
C3591 N3593 1.384 . S
N3592 C3588 1.427 . S
N3592 C3589 1.384 . S
N3593 C3585 1.427 . S
N3593 C3591 1.384 . S
H3594 C3600 0.930 . S
H3595 C3604 0.930 . S
H3596 C3609 0.929 . S
H3597 C3607 0.929 . S
H3598 C3602 0.929 . S
H3599 C3608 0.929 . S
C3600 H3594 0.930 . S
C3600 C3601 1.367 . S
C3600 C3608 1.378 . S
C3601 C3600 1.367 . S
C3601 C3609 1.433 . S
C3602 H3598 0.929 . S
C3602 C3604 1.378 . S
C3602 C3606 1.350 . S
C3603 C3606 1.463 . S
C3603 C3608 1.350 . S
C3603 N3611 1.427 . S
C3604 H3595 0.930 . S
C3604 C3602 1.378 . S
C3604 C3605 1.367 . S
C3605 C3604 1.367 . S
C3605 C3607 1.433 . S
C3606 C3602 1.350 . S
C3606 C3603 1.463 . S
C3606 N3610 1.427 . S
C3607 H3597 0.929 . S
C3607 C3605 1.433 . S
C3607 N3610 1.384 . S
C3608 H3599 0.929 . S
C3608 C3600 1.378 . S
C3608 C3603 1.350 . S
C3609 H3596 0.929 . S
C3609 C3601 1.433 . S
C3609 N3611 1.384 . S
N3610 C3606 1.427 . S
N3610 C3607 1.384 . S
N3611 C3603 1.427 . S
N3611 C3609 1.384 . S
H3612 C3618 0.930 . S
H3613 C3622 0.930 . S
H3614 C3627 0.929 . S
H3615 C3625 0.929 . S
H3616 C3620 0.929 . S
H3617 C3626 0.929 . S
C3618 H3612 0.930 . S
C3618 C3619 1.367 . S
C3618 C3626 1.378 . S
C3619 C3618 1.367 . S
C3619 C3627 1.433 . S
C3620 H3616 0.929 . S
C3620 C3622 1.378 . S
C3620 C3624 1.350 . S
C3621 C3624 1.463 . S
C3621 C3626 1.350 . S
C3621 N3629 1.427 . S
C3622 H3613 0.930 . S
C3622 C3620 1.378 . S
C3622 C3623 1.367 . S
C3623 C3622 1.367 . S
C3623 C3625 1.433 . S
C3624 C3620 1.350 . S
C3624 C3621 1.463 . S
C3624 N3628 1.427 . S
C3625 H3615 0.929 . S
C3625 C3623 1.433 . S
C3625 N3628 1.384 . S
C3626 H3617 0.929 . S
C3626 C3618 1.378 . S
C3626 C3621 1.350 . S
C3627 H3614 0.929 . S
C3627 C3619 1.433 . S
C3627 N3629 1.384 . S
N3628 C3624 1.427 . S
N3628 C3625 1.384 . S
N3629 C3621 1.427 . S
N3629 C3627 1.384 . S
H3630 C3636 0.930 . S
H3631 C3640 0.930 . S
H3632 C3645 0.929 . S
H3633 C3643 0.929 . S
H3634 C3638 0.929 . S
H3635 C3644 0.929 . S
C3636 H3630 0.930 . S
C3636 C3637 1.367 . S
C3636 C3644 1.378 . S
C3637 C3636 1.367 . S
C3637 C3645 1.433 . S
C3638 H3634 0.929 . S
C3638 C3640 1.378 . S
C3638 C3642 1.350 . S
C3639 C3642 1.463 . S
C3639 C3644 1.350 . S
C3639 N3647 1.427 . S
C3640 H3631 0.930 . S
C3640 C3638 1.378 . S
C3640 C3641 1.367 . S
C3641 C3640 1.367 . S
C3641 C3643 1.433 . S
C3642 C3638 1.350 . S
C3642 C3639 1.463 . S
C3642 N3646 1.427 . S
C3643 H3633 0.929 . S
C3643 C3641 1.433 . S
C3643 N3646 1.384 . S
C3644 H3635 0.929 . S
C3644 C3636 1.378 . S
C3644 C3639 1.350 . S
C3645 H3632 0.929 . S
C3645 C3637 1.433 . S
C3645 N3647 1.384 . S
N3646 C3642 1.427 . S
N3646 C3643 1.384 . S
N3647 C3639 1.427 . S
N3647 C3645 1.384 . S
H3648 C3654 0.930 . S
H3649 C3658 0.930 . S
H3650 C3663 0.929 . S
H3651 C3661 0.929 . S
H3652 C3656 0.929 . S
H3653 C3662 0.929 . S
C3654 H3648 0.930 . S
C3654 C3655 1.367 . S
C3654 C3662 1.378 . S
C3655 C3654 1.367 . S
C3655 C3663 1.433 . S
C3656 H3652 0.929 . S
C3656 C3658 1.378 . S
C3656 C3660 1.350 . S
C3657 C3660 1.463 . S
C3657 C3662 1.350 . S
C3657 N3665 1.427 . S
C3658 H3649 0.930 . S
C3658 C3656 1.378 . S
C3658 C3659 1.367 . S
C3659 C3658 1.367 . S
C3659 C3661 1.433 . S
C3660 C3656 1.350 . S
C3660 C3657 1.463 . S
C3660 N3664 1.427 . S
C3661 H3651 0.929 . S
C3661 C3659 1.433 . S
C3661 N3664 1.384 . S
C3662 H3653 0.929 . S
C3662 C3654 1.378 . S
C3662 C3657 1.350 . S
C3663 H3650 0.929 . S
C3663 C3655 1.433 . S
C3663 N3665 1.384 . S
N3664 C3660 1.427 . S
N3664 C3661 1.384 . S
N3665 C3657 1.427 . S
N3665 C3663 1.384 . S
H3666 C3672 0.930 . S
H3667 C3676 0.930 . S
H3668 C3681 0.929 . S
H3669 C3679 0.929 . S
H3670 C3674 0.929 . S
H3671 C3680 0.929 . S
C3672 H3666 0.930 . S
C3672 C3673 1.367 . S
C3672 C3680 1.378 . S
C3673 C3672 1.367 . S
C3673 C3681 1.433 . S
C3674 H3670 0.929 . S
C3674 C3676 1.378 . S
C3674 C3678 1.350 . S
C3675 C3678 1.463 . S
C3675 C3680 1.350 . S
C3675 N3683 1.427 . S
C3676 H3667 0.930 . S
C3676 C3674 1.378 . S
C3676 C3677 1.367 . S
C3677 C3676 1.367 . S
C3677 C3679 1.433 . S
C3678 C3674 1.350 . S
C3678 C3675 1.463 . S
C3678 N3682 1.427 . S
C3679 H3669 0.929 . S
C3679 C3677 1.433 . S
C3679 N3682 1.384 . S
C3680 H3671 0.929 . S
C3680 C3672 1.378 . S
C3680 C3675 1.350 . S
C3681 H3668 0.929 . S
C3681 C3673 1.433 . S
C3681 N3683 1.384 . S
N3682 C3678 1.427 . S
N3682 C3679 1.384 . S
N3683 C3675 1.427 . S
N3683 C3681 1.384 . S
H3684 C3690 0.930 . S
H3685 C3694 0.930 . S
H3686 C3699 0.929 . S
H3687 C3697 0.929 . S
H3688 C3692 0.929 . S
H3689 C3698 0.929 . S
C3690 H3684 0.930 . S
C3690 C3691 1.367 . S
C3690 C3698 1.378 . S
C3691 C3690 1.367 . S
C3691 C3699 1.433 . S
C3692 H3688 0.929 . S
C3692 C3694 1.378 . S
C3692 C3696 1.350 . S
C3693 C3696 1.463 . S
C3693 C3698 1.350 . S
C3693 N3701 1.427 . S
C3694 H3685 0.930 . S
C3694 C3692 1.378 . S
C3694 C3695 1.367 . S
C3695 C3694 1.367 . S
C3695 C3697 1.433 . S
C3696 C3692 1.350 . S
C3696 C3693 1.463 . S
C3696 N3700 1.427 . S
C3697 H3687 0.929 . S
C3697 C3695 1.433 . S
C3697 N3700 1.384 . S
C3698 H3689 0.929 . S
C3698 C3690 1.378 . S
C3698 C3693 1.350 . S
C3699 H3686 0.929 . S
C3699 C3691 1.433 . S
C3699 N3701 1.384 . S
N3700 C3696 1.427 . S
N3700 C3697 1.384 . S
N3701 C3693 1.427 . S
N3701 C3699 1.384 . S
H3702 C3708 0.930 . S
H3703 C3712 0.930 . S
H3704 C3717 0.929 . S
H3705 C3715 0.929 . S
H3706 C3710 0.929 . S
H3707 C3716 0.929 . S
C3708 H3702 0.930 . S
C3708 C3709 1.367 . S
C3708 C3716 1.378 . S
C3709 C3708 1.367 . S
C3709 C3717 1.433 . S
C3710 H3706 0.929 . S
C3710 C3712 1.378 . S
C3710 C3714 1.350 . S
C3711 C3714 1.463 . S
C3711 C3716 1.350 . S
C3711 N3719 1.427 . S
C3712 H3703 0.930 . S
C3712 C3710 1.378 . S
C3712 C3713 1.367 . S
C3713 C3712 1.367 . S
C3713 C3715 1.433 . S
C3714 C3710 1.350 . S
C3714 C3711 1.463 . S
C3714 N3718 1.427 . S
C3715 H3705 0.929 . S
C3715 C3713 1.433 . S
C3715 N3718 1.384 . S
C3716 H3707 0.929 . S
C3716 C3708 1.378 . S
C3716 C3711 1.350 . S
C3717 H3704 0.929 . S
C3717 C3709 1.433 . S
C3717 N3719 1.384 . S
N3718 C3714 1.427 . S
N3718 C3715 1.384 . S
N3719 C3711 1.427 . S
N3719 C3717 1.384 . S
H3720 C3726 0.930 . S
H3721 C3730 0.930 . S
H3722 C3735 0.929 . S
H3723 C3733 0.929 . S
H3724 C3728 0.929 . S
H3725 C3734 0.929 . S
C3726 H3720 0.930 . S
C3726 C3727 1.367 . S
C3726 C3734 1.378 . S
C3727 C3726 1.367 . S
C3727 C3735 1.433 . S
C3728 H3724 0.929 . S
C3728 C3730 1.378 . S
C3728 C3732 1.350 . S
C3729 C3732 1.463 . S
C3729 C3734 1.350 . S
C3729 N3737 1.427 . S
C3730 H3721 0.930 . S
C3730 C3728 1.378 . S
C3730 C3731 1.367 . S
C3731 C3730 1.367 . S
C3731 C3733 1.433 . S
C3732 C3728 1.350 . S
C3732 C3729 1.463 . S
C3732 N3736 1.427 . S
C3733 H3723 0.929 . S
C3733 C3731 1.433 . S
C3733 N3736 1.384 . S
C3734 H3725 0.929 . S
C3734 C3726 1.378 . S
C3734 C3729 1.350 . S
C3735 H3722 0.929 . S
C3735 C3727 1.433 . S
C3735 N3737 1.384 . S
N3736 C3732 1.427 . S
N3736 C3733 1.384 . S
N3737 C3729 1.427 . S
N3737 C3735 1.384 . S
H3738 C3744 0.930 . S
H3739 C3748 0.930 . S
H3740 C3753 0.929 . S
H3741 C3751 0.929 . S
H3742 C3746 0.929 . S
H3743 C3752 0.929 . S
C3744 H3738 0.930 . S
C3744 C3745 1.367 . S
C3744 C3752 1.378 . S
C3745 C3744 1.367 . S
C3745 C3753 1.433 . S
C3746 H3742 0.929 . S
C3746 C3748 1.378 . S
C3746 C3750 1.350 . S
C3747 C3750 1.463 . S
C3747 C3752 1.350 . S
C3747 N3755 1.427 . S
C3748 H3739 0.930 . S
C3748 C3746 1.378 . S
C3748 C3749 1.367 . S
C3749 C3748 1.367 . S
C3749 C3751 1.433 . S
C3750 C3746 1.350 . S
C3750 C3747 1.463 . S
C3750 N3754 1.427 . S
C3751 H3741 0.929 . S
C3751 C3749 1.433 . S
C3751 N3754 1.384 . S
C3752 H3743 0.929 . S
C3752 C3744 1.378 . S
C3752 C3747 1.350 . S
C3753 H3740 0.929 . S
C3753 C3745 1.433 . S
C3753 N3755 1.384 . S
N3754 C3750 1.427 . S
N3754 C3751 1.384 . S
N3755 C3747 1.427 . S
N3755 C3753 1.384 . S
H3756 C3762 0.930 . S
H3757 C3766 0.930 . S
H3758 C3771 0.929 . S
H3759 C3769 0.929 . S
H3760 C3764 0.929 . S
H3761 C3770 0.929 . S
C3762 H3756 0.930 . S
C3762 C3763 1.367 . S
C3762 C3770 1.378 . S
C3763 C3762 1.367 . S
C3763 C3771 1.433 . S
C3764 H3760 0.929 . S
C3764 C3766 1.378 . S
C3764 C3768 1.350 . S
C3765 C3768 1.463 . S
C3765 C3770 1.350 . S
C3765 N3773 1.427 . S
C3766 H3757 0.930 . S
C3766 C3764 1.378 . S
C3766 C3767 1.367 . S
C3767 C3766 1.367 . S
C3767 C3769 1.433 . S
C3768 C3764 1.350 . S
C3768 C3765 1.463 . S
C3768 N3772 1.427 . S
C3769 H3759 0.929 . S
C3769 C3767 1.433 . S
C3769 N3772 1.384 . S
C3770 H3761 0.929 . S
C3770 C3762 1.378 . S
C3770 C3765 1.350 . S
C3771 H3758 0.929 . S
C3771 C3763 1.433 . S
C3771 N3773 1.384 . S
N3772 C3768 1.427 . S
N3772 C3769 1.384 . S
N3773 C3765 1.427 . S
N3773 C3771 1.384 . S
H3774 C3780 0.930 . S
H3775 C3784 0.930 . S
H3776 C3789 0.929 . S
H3777 C3787 0.929 . S
H3778 C3782 0.929 . S
H3779 C3788 0.929 . S
C3780 H3774 0.930 . S
C3780 C3781 1.367 . S
C3780 C3788 1.378 . S
C3781 C3780 1.367 . S
C3781 C3789 1.433 . S
C3782 H3778 0.929 . S
C3782 C3784 1.378 . S
C3782 C3786 1.350 . S
C3783 C3786 1.463 . S
C3783 C3788 1.350 . S
C3783 N3791 1.427 . S
C3784 H3775 0.930 . S
C3784 C3782 1.378 . S
C3784 C3785 1.367 . S
C3785 C3784 1.367 . S
C3785 C3787 1.433 . S
C3786 C3782 1.350 . S
C3786 C3783 1.463 . S
C3786 N3790 1.427 . S
C3787 H3777 0.929 . S
C3787 C3785 1.433 . S
C3787 N3790 1.384 . S
C3788 H3779 0.929 . S
C3788 C3780 1.378 . S
C3788 C3783 1.350 . S
C3789 H3776 0.929 . S
C3789 C3781 1.433 . S
C3789 N3791 1.384 . S
N3790 C3786 1.427 . S
N3790 C3787 1.384 . S
N3791 C3783 1.427 . S
N3791 C3789 1.384 . S
C1639 C5 1.488 . S
C1643 C360 1.547 . S
C1657 C394 1.539 . S
C1661 C39 1.474 . S
C1675 C292 1.535 . S
C1679 C73 1.473 1_554 S
C1693 C326 1.536 . S
C1697 C107 1.486 . S
C1711 C496 1.537 . S
C1715 C141 1.473 1_556 S
C1729 C175 1.474 . S
C1733 C530 1.540 . S
C1747 C428 1.547 . S
C1751 C209 1.491 . S
C1765 C462 1.547 . S
C1769 C243 1.485 . S
C1783 C277 1.492 . S
C1787 C598 1.541 . S
C1801 C311 1.485 . S
C1805 C632 1.547 . S
C1819 C345 1.493 1_655 S
C1823 C666 1.544 . S
C1837 C379 1.478 . S
C1841 C1516 1.533 . S
C1855 C1380 1.533 . S
C1859 C413 1.476 . S
C1873 C447 1.483 . S
C1877 C802 1.546 . S
C1891 C481 1.492 1_655 S
C1895 C1550 1.543 . S
C1909 C768 1.546 . S
C1913 C515 1.492 . S
C1927 C549 1.491 . S
C1931 C1040 1.547 . S
C1945 C583 1.473 1_565 S
C1949 C88 1.535 . S
C1963 C122 1.537 . S
C1967 C617 1.473 . S
C1981 C20 1.533 . S
C1985 C651 1.481 1_545 S
C1999 C685 1.473 . S
C2003 C870 1.537 . S
C2017 C719 1.491 . S
C2021 C972 1.547 . S
C2035 C190 1.534 . S
C2039 C753 1.484 . S
C2053 C258 1.536 . S
C2057 C787 1.473 . S
C2071 C1176 1.540 . S
C2075 C821 1.491 1_554 S
C2089 C855 1.492 . S
C2093 C1210 1.542 . S
C2107 C1108 1.542 . S
C2111 C889 1.492 . S
C2125 C1142 1.534 . S
C2129 C923 1.482 . S
C2143 C1312 1.546 . S
C2147 C957 1.483 . S
C2161 C1346 1.538 . S
C2165 C991 1.489 . S
C2179 C1244 1.544 . S
C2183 C1025 1.493 1_556 S
C2197 C1059 1.492 . S
C2201 C1278 1.542 . S
C2215 C1414 1.542 . S
C2219 C1093 1.476 1_455 S
C2233 C1448 1.543 . S
C2237 C1127 1.478 . S
C2251 C1161 1.493 . S
C2255 C1482 1.543 . S
C2269 C1195 1.485 . S
C2273 C700 1.547 . S
C2287 C1229 1.491 1_455 S
C2291 C564 1.541 . S
C2305 C1263 1.484 . S
C2309 C1618 1.534 . S
C2323 C734 1.547 . S
C2327 C1297 1.488 . S
C2341 C1584 1.536 . S
C2345 C1331 1.473 . S
C2359 C224 1.534 . S
C2363 C1365 1.483 1_545 S
C2377 C904 1.544 . S
C2381 C1399 1.479 . S
C2395 C1433 1.492 . S
C2399 C938 1.546 . S
C2413 C1467 1.476 . S
C2417 C836 1.533 . S
C2431 C54 1.538 . S
C2435 C1501 1.473 . S
C2449 C156 1.533 . S
C2453 C1535 1.481 1_565 S
C2467 C1569 1.492 . S
C2471 C1006 1.542 . S
C2485 C1074 1.540 . S
C2489 C1603 1.474 . S
C2503 C2 2.176 . S
C2507 C886 2.173 . S
C2521 C36 2.175 . S
C2525 C920 2.173 . S
C2539 C70 2.173 . S
C2543 C818 2.176 . S
C2557 C852 2.173 . S
C2561 C104 2.176 . S
C2575 C1022 2.174 . S
C2579 C138 2.175 . S
C2593 C1056 2.175 . S
C2597 C172 2.174 . S
C2611 C954 2.174 . S
C2615 C206 2.175 . S
C2629 C988 2.173 . S
C2633 C240 2.176 . S
C2647 C274 2.173 . S
C2651 C410 2.176 . S
C2665 C444 2.175 . S
C2669 C308 2.174 . S
C2683 C342 2.175 . S
C2687 C478 2.174 . S
C2701 C376 2.173 . S
C2705 C512 2.176 . S
C2719 C546 2.173 . S
C2723 C1464 2.176 . S
C2737 C580 2.173 . S
C2741 C1532 2.176 . S
C2755 C614 2.174 . S
C2759 C750 2.176 . S
C2773 C1362 2.175 . S
C2777 C648 2.175 . S
C2791 C1600 2.174 . S
C2795 C682 2.176 . S
C2809 C1396 2.174 . S
C2813 C716 2.175 . S
C2827 C784 2.175 . S
C2831 C1498 2.175 . S
C2845 C1090 2.175 . S
C2849 C1226 2.174 . S
C2863 C1124 2.173 . S
C2867 C1260 2.176 . S
C2881 C1158 2.175 . S
C2885 C1294 2.174 . S
C2899 C1192 2.176 . S
C2903 C1328 2.173 . S
C2917 C1430 2.175 . S
C2921 C1566 2.173 . S
C2935 C689 0.655 . S
C2939 C9 0.657 . S
C2953 C43 0.665 . S
C2957 C1403 0.653 . S
C2971 C77 0.658 . S
C2975 C1437 0.678 . S
C2989 C1471 0.695 . S
C2993 C111 0.676 . S
C3007 C1607 0.655 . S
C3011 C145 0.657 . S
C3025 C723 0.666 . S
C3029 C179 0.653 . S
C3043 C213 0.670 . S
C3047 C1573 0.654 . S
C3061 C247 0.681 . S
C3065 C553 0.697 . S
C3079 C519 0.679 . S
C3083 C281 0.659 . S
C3097 C315 0.686 . S
C3101 C417 0.664 . S
C3115 C349 0.667 . S
C3119 C451 0.653 . S
C3133 C485 0.697 . S
C3137 C383 0.695 . S
C3151 C859 0.689 . S
C3155 C587 0.699 . S
C3169 C621 0.657 . S
C3173 C893 0.676 . S
C3187 C655 0.654 . S
C3191 C927 0.667 . S
C3205 C757 0.682 . S
C3209 C1029 0.698 . S
C3223 C961 0.698 . S
C3227 C791 0.691 . S
C3241 C825 0.684 . S
C3245 C1505 0.663 . S
C3259 C1539 0.687 . S
C3263 C995 0.665 . S
C3277 C1369 0.665 . S
C3281 C1063 0.653 . S
C3295 C1097 0.653 . S
C3299 C1335 0.663 . S
C3313 C1233 0.684 . S
C3317 C1131 0.698 . S
C3331 C1165 0.664 . S
C3335 C1267 0.653 . S
C3349 C1199 0.698 . S
C3353 C1301 0.682 . S
C3367 C33 1.589 . S
C3371 C339 1.596 . S
C3385 C373 1.596 . S
C3389 C67 1.590 . S
C3403 C407 1.590 . S
C3407 C101 1.593 . S
C3421 C305 1.589 . S
C3425 C135 1.595 . S
C3439 C169 1.592 . S
C3443 C543 1.591 . S
C3457 C441 1.590 . S
C3461 C203 1.596 . S
C3475 C237 1.592 . S
C3479 C475 1.591 . S
C3493 C271 1.590 . S
C3497 C509 1.596 . S
C3511 C645 1.589 . S
C3515 C577 1.595 . S
C3529 C611 1.592 . S
C3533 C1597 1.595 . S
C3547 C1631 1.589 . S
C3551 C679 1.594 . S
C3565 C713 1.589 . S
C3569 C1563 1.594 . S
C3583 C1529 1.589 . S
C3587 C747 1.596 . S
C3601 C781 1.596 . S
C3605 C1427 1.590 . S
C3619 C1495 1.594 . S
C3623 C815 1.593 . S
C3637 C1155 1.590 . S
C3641 C849 1.596 . S
C3655 C1189 1.589 . S
C3659 C883 1.596 . S
C3673 C917 1.595 . S
C3677 C1223 1.589 . S
C3691 C951 1.592 . S
C3695 C1121 1.595 . S
C3709 C985 1.590 . S
C3713 C1359 1.593 . S
C3727 C1019 1.591 . S
C3731 C1257 1.592 . S
C3745 C1291 1.589 . S
C3749 C1053 1.596 . S
C3763 C1087 1.596 . S
C3767 C1325 1.589 . S
C3781 C1393 1.592 . S
C3785 C1461 1.591 . S
