# Generated by pormake.
# Topology lcs, (4)-cn, num edge types: 1
# Building blocks:
#     Node 0, Type 0, BuildingBlock: TATPOV_clean_sbu_0, # of connection points: 4
#     Node 1, Type 0, BuildingBlock: TATPOV_clean_sbu_0, # of connection points: 4
#     Node 2, Type 0, BuildingBlock: TATPOV_clean_sbu_0, # of connection points: 4
#     Node 3, Type 0, BuildingBlock: TATPOV_clean_sbu_0, # of connection points: 4
#     Node 4, Type 0, BuildingBlock: TATPOV_clean_sbu_0, # of connection points: 4
#     Node 5, Type 0, BuildingBlock: TATPOV_clean_sbu_0, # of connection points: 4
#     Node 6, Type 0, BuildingBlock: TATPOV_clean_sbu_0, # of connection points: 4
#     Node 7, Type 0, BuildingBlock: TATPOV_clean_sbu_0, # of connection points: 4
#     Node 8, Type 0, BuildingBlock: TATPOV_clean_sbu_0, # of connection points: 4
#     Node 9, Type 0, BuildingBlock: TATPOV_clean_sbu_0, # of connection points: 4
#     Node 10, Type 0, BuildingBlock: TATPOV_clean_sbu_0, # of connection points: 4
#     Node 11, Type 0, BuildingBlock: TATPOV_clean_sbu_0, # of connection points: 4
#     Node 12, Type 0, BuildingBlock: TATPOV_clean_sbu_0, # of connection points: 4
#     Node 13, Type 0, BuildingBlock: TATPOV_clean_sbu_0, # of connection points: 4
#     Node 14, Type 0, BuildingBlock: TATPOV_clean_sbu_0, # of connection points: 4
#     Node 15, Type 0, BuildingBlock: TATPOV_clean_sbu_0, # of connection points: 4
#     Node 16, Type 0, BuildingBlock: TATPOV_clean_sbu_0, # of connection points: 4
#     Node 17, Type 0, BuildingBlock: TATPOV_clean_sbu_0, # of connection points: 4
#     Node 18, Type 0, BuildingBlock: TATPOV_clean_sbu_0, # of connection points: 4
#     Node 19, Type 0, BuildingBlock: TATPOV_clean_sbu_0, # of connection points: 4
#     Node 20, Type 0, BuildingBlock: TATPOV_clean_sbu_0, # of connection points: 4
#     Node 21, Type 0, BuildingBlock: TATPOV_clean_sbu_0, # of connection points: 4
#     Node 22, Type 0, BuildingBlock: TATPOV_clean_sbu_0, # of connection points: 4
#     Node 23, Type 0, BuildingBlock: TATPOV_clean_sbu_0, # of connection points: 4
#     Edge 24, Type (0, 0), None
#     Edge 25, Type (0, 0), None
#     Edge 26, Type (0, 0), None
#     Edge 27, Type (0, 0), None
#     Edge 28, Type (0, 0), None
#     Edge 29, Type (0, 0), None
#     Edge 30, Type (0, 0), None
#     Edge 31, Type (0, 0), None
#     Edge 32, Type (0, 0), None
#     Edge 33, Type (0, 0), None
#     Edge 34, Type (0, 0), None
#     Edge 35, Type (0, 0), None
#     Edge 36, Type (0, 0), None
#     Edge 37, Type (0, 0), None
#     Edge 38, Type (0, 0), None
#     Edge 39, Type (0, 0), None
#     Edge 40, Type (0, 0), None
#     Edge 41, Type (0, 0), None
#     Edge 42, Type (0, 0), None
#     Edge 43, Type (0, 0), None
#     Edge 44, Type (0, 0), None
#     Edge 45, Type (0, 0), None
#     Edge 46, Type (0, 0), None
#     Edge 47, Type (0, 0), None
#     Edge 48, Type (0, 0), None
#     Edge 49, Type (0, 0), None
#     Edge 50, Type (0, 0), None
#     Edge 51, Type (0, 0), None
#     Edge 52, Type (0, 0), None
#     Edge 53, Type (0, 0), None
#     Edge 54, Type (0, 0), None
#     Edge 55, Type (0, 0), None
#     Edge 56, Type (0, 0), None
#     Edge 57, Type (0, 0), None
#     Edge 58, Type (0, 0), None
#     Edge 59, Type (0, 0), None
#     Edge 60, Type (0, 0), None
#     Edge 61, Type (0, 0), None
#     Edge 62, Type (0, 0), None
#     Edge 63, Type (0, 0), None
#     Edge 64, Type (0, 0), None
#     Edge 65, Type (0, 0), None
#     Edge 66, Type (0, 0), None
#     Edge 67, Type (0, 0), None
#     Edge 68, Type (0, 0), None
#     Edge 69, Type (0, 0), None
#     Edge 70, Type (0, 0), None
#     Edge 71, Type (0, 0), None
# Relax obj value: 0.087
# Max RMSD: 0.148
# Mean RMSD: 0.143
data_MOF--net-lcs--node1-TATPOV_clean_sbu_0--edge1-none
_symmetry_space_group_name_H-M    P1
_symmetry_Int_Tables_number       1
_symmetry_cell_setting            triclinic
loop_
_symmetry_equiv_pos_as_xyz
'x, y, z'
_cell_length_a     22.373822
_cell_length_b     22.373526
_cell_length_c     22.372977
_cell_angle_alpha  87.775087
_cell_angle_beta   87.776105
_cell_angle_gamma 87.773907
loop_
_atom_site_label
_atom_site_type_symbol
_atom_site_fract_x
_atom_site_fract_y
_atom_site_fract_z
_atom_type_partial_charge
Zn0 Zn 0.98491 0.11043 0.4759 0.0
Zn1 Zn -0.00159 0.22405 0.42388 0.0
O2 O 0.93335 0.22492 0.48826 0.0
O3 O 0.9217 0.13966 0.53894 0.0
O4 O 0.00459 0.31194 0.40467 0.0
O5 O 0.07425 0.10792 0.48994 0.0
O6 O 0.08363 0.19614 0.4437 0.0
C7 C 0.90622 0.19401 0.52882 0.0
C8 C 0.94815 0.13346 0.34908 0.0
O9 O 0.96408 0.18704 0.353 0.0
O10 O 0.95482 0.09548 0.39226 0.0
C11 C 0.02756 0.33475 0.35677 0.0
O12 O 0.04909 0.29992 0.31455 0.0
C13 C 0.1067 0.15005 0.47022 0.0
Zn14 Zn 0.02404 0.89358 0.52197 0.0
Zn15 Zn 0.01054 0.77996 0.574 0.0
O16 O 0.92531 0.80787 0.55418 0.0
O17 O 0.9347 0.89609 0.50794 0.0
O18 O 0.00435 0.69206 0.59321 0.0
O19 O 0.08725 0.86434 0.45893 0.0
O20 O 0.07559 0.77909 0.50963 0.0
C21 C 0.90225 0.85396 0.52766 0.0
C22 C 0.0608 0.87054 0.64881 0.0
O23 O 0.04486 0.81697 0.64488 0.0
O24 O 0.05413 0.90852 0.60561 0.0
C25 C 0.98138 0.66925 0.64111 0.0
O26 O 0.95985 0.70408 0.68333 0.0
C27 C 0.10273 0.80999 0.46907 0.0
Zn28 Zn 0.4849 0.61042 0.97589 0.0
Zn29 Zn 0.4984 0.72404 0.92387 0.0
O30 O 0.43335 0.72491 -0.01175 0.0
O31 O 0.42169 0.63965 0.03894 0.0
O32 O 0.50458 0.81193 0.90465 0.0
O33 O 0.57424 0.60791 -0.01007 0.0
O34 O 0.58362 0.69613 0.94369 0.0
C35 C 0.40621 0.694 0.02881 0.0
C36 C 0.44814 0.63345 0.84907 0.0
O37 O 0.46407 0.68703 0.85299 0.0
O38 O 0.45481 0.59547 0.89226 0.0
C39 C 0.52755 0.83475 0.85676 0.0
O40 O 0.5491 0.79991 0.81455 0.0
C41 C 0.60669 0.65005 0.97021 0.0
Zn42 Zn 0.52403 0.39358 0.02198 0.0
Zn43 Zn 0.51053 0.27997 0.07401 0.0
O44 O 0.4253 0.30787 0.05418 0.0
O45 O 0.43468 0.39609 0.00795 0.0
O46 O 0.50434 0.19207 0.09322 0.0
O47 O 0.58723 0.36434 0.95894 0.0
O48 O 0.57559 0.2791 0.00964 0.0
C49 C 0.40224 0.35396 0.02766 0.0
C50 C 0.56079 0.37055 0.14881 0.0
O51 O 0.54485 0.31697 0.14489 0.0
O52 O 0.55412 0.40852 0.10562 0.0
C53 C 0.48138 0.16925 0.14112 0.0
O54 O 0.45984 0.20408 0.18334 0.0
C55 C 0.60272 0.31 0.96908 0.0
Zn56 Zn 0.86289 0.73244 0.22589 0.0
Zn57 Zn 0.9765 0.74595 0.17386 0.0
O58 O 0.9486 0.83117 0.19368 0.0
O59 O 0.86038 0.82179 0.23993 0.0
O60 O 0.0644 0.75213 0.15465 0.0
O61 O 0.89213 0.66923 0.28893 0.0
O62 O 0.97737 0.68089 0.23823 0.0
C63 C 0.90251 0.85424 0.22021 0.0
C64 C 0.88592 0.69569 0.09906 0.0
O65 O 0.93949 0.71163 0.10298 0.0
O66 O 0.84794 0.70235 0.14225 0.0
C67 C 0.08722 0.77509 0.10675 0.0
O68 O 0.05239 0.79663 0.06453 0.0
C69 C 0.94647 0.65375 0.27879 0.0
Zn70 Zn 0.64605 0.77157 0.27199 0.0
Zn71 Zn 0.53244 0.75807 0.32401 0.0
O72 O 0.53156 0.82312 0.25964 0.0
O73 O 0.61682 0.83478 0.20895 0.0
O74 O 0.44454 0.75189 0.34323 0.0
O75 O 0.64855 0.68222 0.25796 0.0
O76 O 0.56034 0.67284 0.30419 0.0
C77 C 0.56247 0.85026 0.21908 0.0
C78 C 0.62302 0.80833 0.39882 0.0
O79 O 0.56945 0.7924 0.39489 0.0
O80 O 0.661 0.80166 0.35563 0.0
C81 C 0.42173 0.72892 0.39112 0.0
O82 O 0.45655 0.70737 0.43334 0.0
C83 C 0.60642 0.64978 0.27767 0.0
Zn84 Zn 0.3629 0.23243 0.7259 0.0
Zn85 Zn 0.47651 0.24594 0.67386 0.0
O86 O 0.4486 0.33116 0.69369 0.0
O87 O 0.36039 0.32177 0.73993 0.0
O88 O 0.5644 0.25212 0.65465 0.0
O89 O 0.39214 0.16922 0.78894 0.0
O90 O 0.47738 0.18088 0.73823 0.0
C91 C 0.40252 0.35422 0.72021 0.0
C92 C 0.38593 0.19568 0.59906 0.0
O93 O 0.4395 0.21161 0.60298 0.0
O94 O 0.34795 0.20234 0.64226 0.0
C95 C 0.58722 0.27508 0.60675 0.0
O96 O 0.55239 0.29662 0.56453 0.0
C97 C 0.44648 0.15374 0.7788 0.0
Zn98 Zn 0.14604 0.27156 0.77198 0.0
Zn99 Zn 0.03243 0.25806 0.824 0.0
O100 O 0.03155 0.32312 0.75963 0.0
O101 O 0.11681 0.33477 0.70894 0.0
O102 O 0.94453 0.25188 0.84321 0.0
O103 O 0.14855 0.18222 0.75795 0.0
O104 O 0.06033 0.17283 0.80418 0.0
C105 C 0.06246 0.35025 0.71907 0.0
C106 C 0.12301 0.30832 0.89881 0.0
O107 O 0.06943 0.29238 0.89488 0.0
O108 O 0.16099 0.30165 0.85562 0.0
C109 C 0.92172 0.22892 0.89111 0.0
O110 O 0.95655 0.20738 0.93333 0.0
C111 C 0.10641 0.14977 0.77766 0.0
Zn112 Zn 0.48141 0.98243 0.10734 0.0
Zn113 Zn 0.42939 -0.00406 0.22097 0.0
O114 O 0.49377 0.93089 0.22184 0.0
O115 O 0.54444 0.91922 0.13658 0.0
O116 O 0.41018 0.00213 0.30887 0.0
O117 O 0.49544 0.07178 0.10484 0.0
O118 O 0.44922 0.08117 0.19306 0.0
C119 C 0.53433 0.90375 0.19093 0.0
C120 C 0.35458 0.94568 0.13039 0.0
O121 O 0.35852 0.96162 0.18397 0.0
O122 O 0.39777 0.95235 0.09241 0.0
C123 C 0.36229 0.02509 0.33169 0.0
O124 O 0.32007 0.04663 0.29685 0.0
C125 C 0.47573 0.10423 0.14697 0.0
Zn126 Zn 0.39607 0.02503 0.51851 0.0
Zn127 Zn 0.28244 0.07709 0.505 0.0
O128 O 0.31035 0.05725 0.41977 0.0
O129 O 0.39856 0.011 0.42916 0.0
O130 O 0.19454 0.0963 0.49882 0.0
O131 O 0.36682 0.96201 0.58172 0.0
O132 O 0.28157 0.01272 0.57006 0.0
C133 C 0.35643 0.03072 0.39671 0.0
C134 C 0.37304 0.15187 0.55522 0.0
O135 O 0.31946 0.14796 0.53932 0.0
O136 O 0.41102 0.10868 0.54858 0.0
C137 C 0.17172 0.1442 0.47586 0.0
O138 O 0.20655 0.18642 0.45433 0.0
C139 C 0.31247 0.97215 0.5972 0.0
Zn140 Zn 0.23143 0.8604 0.72937 0.0
Zn141 Zn 0.17938 0.97403 0.74287 0.0
O142 O 0.19921 0.94612 0.8281 0.0
O143 O 0.24546 0.85791 0.81872 0.0
O144 O 0.16016 0.06193 0.74906 0.0
O145 O 0.29446 0.88965 0.66616 0.0
O146 O 0.24375 0.9749 0.67782 0.0
C147 C 0.22574 0.90004 0.85117 0.0
C148 C 0.1046 0.88342 0.69265 0.0
O149 O 0.10851 0.93701 0.70855 0.0
O150 O 0.14779 0.84544 0.6993 0.0
C151 C 0.11227 0.08474 0.77202 0.0
O152 O 0.07005 0.04992 0.79356 0.0
C153 C 0.28431 0.944 0.65068 0.0
Zn154 Zn 0.27403 0.77505 0.14055 0.0
Zn155 Zn 0.26053 0.82708 0.02691 0.0
O156 O 0.32558 0.76271 0.02604 0.0
O157 O 0.33725 0.71202 0.11131 0.0
O158 O 0.25435 0.84629 0.93901 0.0
O159 O 0.18469 0.76101 0.14303 0.0
O160 O 0.1753 0.80725 0.05481 0.0
C161 C 0.35272 0.72215 0.05696 0.0
C162 C 0.31074 0.90188 0.11752 0.0
O163 O 0.29485 0.89796 0.06393 0.0
O164 O 0.30409 0.85869 0.1555 0.0
C165 C 0.23138 0.89419 0.91619 0.0
O166 O 0.20983 0.9364 0.95102 0.0
C167 C 0.15224 0.78073 0.1009 0.0
Zn168 Zn 0.11286 0.47895 0.97937 0.0
Zn169 Zn 0.22649 0.42692 -0.00713 0.0
O170 O 0.22736 0.49129 0.92781 0.0
O171 O 0.14211 0.54198 0.91615 0.0
O172 O 0.31439 0.4077 -0.00095 0.0
O173 O 0.11037 0.49299 0.06871 0.0
O174 O 0.19859 0.44674 0.0781 0.0
C175 C 0.19646 0.53185 0.90068 0.0
C176 C 0.13589 0.35212 0.94265 0.0
O177 O 0.18948 0.35604 0.95855 0.0
O178 O 0.09791 0.39531 0.9493 0.0
C179 C 0.33721 0.35981 0.02202 0.0
O180 O 0.30239 0.31759 0.04357 0.0
C181 C 0.15251 0.47327 0.10116 0.0
Zn182 Zn 0.7349 0.22895 0.85735 0.0
Zn183 Zn 0.74841 0.17693 0.97097 0.0
O184 O 0.83363 0.19676 0.94306 0.0
O185 O 0.82424 0.24298 0.85484 0.0
O186 O 0.7546 0.15772 0.05887 0.0
O187 O 0.67169 0.29198 0.88658 0.0
O188 O 0.68335 0.24129 0.97184 0.0
C189 C 0.85669 0.22327 0.89697 0.0
C190 C 0.69816 0.10211 0.8804 0.0
O191 O 0.7141 0.10604 0.93397 0.0
O192 O 0.70481 0.1453 0.84242 0.0
C193 C 0.77756 0.10982 0.08169 0.0
O194 O 0.7991 0.0676 0.04686 0.0
C195 C 0.65621 0.28185 0.94093 0.0
Zn196 Zn 0.02753 0.52158 0.39053 0.0
Zn197 Zn 0.07955 0.50806 0.2769 0.0
O198 O 0.05972 0.42284 0.30482 0.0
O199 O 0.01349 0.43223 0.39304 0.0
O200 O 0.09875 0.50187 0.189 0.0
O201 O 0.96449 0.58479 0.36129 0.0
O202 O 0.01518 0.57312 0.27603 0.0
C203 C 0.0332 0.39978 0.35091 0.0
C204 C 0.15436 0.55832 0.36748 0.0
O205 O 0.15043 0.54238 0.31391 0.0
O206 O 0.11117 0.55166 0.40546 0.0
C207 C 0.14665 0.47891 0.16619 0.0
O208 O 0.18888 0.45738 0.20102 0.0
C209 C 0.97463 0.60026 0.30694 0.0
Zn210 Zn 0.61288 0.97896 0.47938 0.0
Zn211 Zn 0.72651 0.92692 0.49288 0.0
O212 O 0.72738 -0.0087 0.42782 0.0
O213 O 0.64212 0.04199 0.41616 0.0
O214 O 0.81441 0.90771 0.49906 0.0
O215 O 0.61039 -0.007 0.56872 0.0
O216 O 0.69861 0.94675 0.57811 0.0
C217 C 0.69647 0.03186 0.40069 0.0
C218 C 0.6359 0.85213 0.44266 0.0
O219 O 0.68949 0.85605 0.45855 0.0
O220 O 0.59792 0.89532 0.44931 0.0
C221 C 0.83722 0.85981 0.52202 0.0
O222 O 0.8024 0.81759 0.54356 0.0
C223 C 0.65253 0.97328 0.60117 0.0
Zn224 Zn 0.77752 0.14361 0.26851 0.0
Zn225 Zn 0.82955 0.02998 0.25501 0.0
O226 O 0.76518 0.0291 0.32006 0.0
O227 O 0.71449 0.11436 0.33173 0.0
O228 O 0.84877 0.94208 0.24882 0.0
O229 O 0.76348 0.1461 0.17917 0.0
O230 O 0.80973 0.05789 0.16978 0.0
C231 C 0.72462 0.06001 0.34719 0.0
C232 C 0.90435 0.12058 0.30523 0.0
O233 O 0.90043 0.06699 0.28934 0.0
O234 O 0.86116 0.15856 0.29858 0.0
C235 C 0.89666 0.91926 0.22585 0.0
O236 O 0.93888 0.95409 0.2043 0.0
C237 C 0.7832 0.10397 0.14672 0.0
Zn238 Zn 0.23491 0.72896 0.35732 0.0
Zn239 Zn 0.24842 0.67691 0.47096 0.0
O240 O 0.33364 0.69674 0.44305 0.0
O241 O 0.32425 0.743 0.35484 0.0
O242 O 0.2546 0.6577 0.55886 0.0
O243 O 0.1717 0.79198 0.38657 0.0
O244 O 0.18336 0.74128 0.47182 0.0
C245 C 0.3567 0.72328 0.39697 0.0
C246 C 0.1982 0.60212 0.38035 0.0
O247 O 0.2141 0.60603 0.43394 0.0
O248 O 0.20485 0.64531 0.34237 0.0
C249 C 0.27756 0.6098 0.58168 0.0
O250 O 0.2991 0.56758 0.54685 0.0
C251 C 0.15622 0.78184 0.44092 0.0
Zn252 Zn 0.2775 0.6436 0.7685 0.0
Zn253 Zn 0.32954 0.52996 0.755 0.0
O254 O 0.26517 0.52909 0.82005 0.0
O255 O 0.21448 0.61435 0.83171 0.0
O256 O 0.34876 0.44206 0.74882 0.0
O257 O 0.26347 0.64608 0.67915 0.0
O258 O 0.30972 0.55787 0.66977 0.0
C259 C 0.2246 0.56 0.84718 0.0
C260 C 0.40433 0.62057 0.80523 0.0
O261 O 0.40042 0.56698 0.78933 0.0
O262 O 0.36114 0.65855 0.79857 0.0
C263 C 0.39666 0.41925 0.72585 0.0
O264 O 0.43887 0.45408 0.70431 0.0
C265 C 0.28319 0.60395 0.64671 0.0
Zn266 Zn 0.52752 0.02156 0.89055 0.0
Zn267 Zn 0.57956 0.00805 0.77692 0.0
O268 O 0.55973 0.92283 0.80482 0.0
O269 O 0.51348 0.93222 0.89304 0.0
O270 O 0.59878 0.00187 0.68902 0.0
O271 O 0.4645 0.08478 0.8613 0.0
O272 O 0.5152 0.07312 0.77605 0.0
C273 C 0.5332 0.89977 0.85091 0.0
C274 C 0.65436 0.05827 0.86752 0.0
O275 O 0.65044 0.04237 0.81394 0.0
O276 O 0.61116 0.05163 0.9055 0.0
C277 C 0.64667 0.97891 0.6662 0.0
O278 O 0.6889 0.95737 0.70103 0.0
C279 C 0.47464 0.10025 0.80695 0.0
Zn280 Zn 0.89606 0.52504 0.0185 0.0
Zn281 Zn 0.78243 0.57709 0.005 0.0
O282 O 0.81034 0.55726 0.91977 0.0
O283 O 0.89856 0.51101 0.92916 0.0
O284 O 0.69453 0.5963 -0.00119 0.0
O285 O 0.86681 0.46201 0.08172 0.0
O286 O 0.78156 0.51272 0.07006 0.0
C287 C 0.85643 0.53073 0.89671 0.0
C288 C 0.87303 0.65188 0.05522 0.0
O289 O 0.81945 0.64797 0.03932 0.0
O290 O 0.91101 0.60868 0.04858 0.0
C291 C 0.67172 0.64419 0.97585 0.0
O292 O 0.70654 0.68642 0.95431 0.0
C293 C 0.81247 0.47216 0.0972 0.0
Zn294 Zn 0.9814 0.48243 0.60734 0.0
Zn295 Zn 0.92939 0.49594 0.72097 0.0
O296 O -0.00623 0.43089 0.72184 0.0
O297 O 0.04444 0.41922 0.63657 0.0
O298 O 0.91018 0.50213 0.80887 0.0
O299 O -0.00456 0.57177 0.60483 0.0
O300 O 0.94922 0.58117 0.69306 0.0
C301 C 0.03432 0.40375 0.69093 0.0
C302 C 0.85458 0.44569 0.63039 0.0
O303 O 0.85851 0.46162 0.68396 0.0
O304 O 0.89776 0.45235 0.5924 0.0
C305 C 0.86229 0.52509 0.83168 0.0
O306 O 0.82006 0.54663 0.79685 0.0
C307 C 0.97574 0.60423 0.64697 0.0
Zn308 Zn 0.77403 0.27505 0.64055 0.0
Zn309 Zn 0.76053 0.32708 0.52691 0.0
O310 O 0.82559 0.26271 0.52605 0.0
O311 O 0.83725 0.21203 0.61131 0.0
O312 O 0.75435 0.34629 0.43901 0.0
O313 O 0.68469 0.26101 0.64303 0.0
O314 O 0.6753 0.30725 0.55482 0.0
C315 C 0.85272 0.22215 0.55696 0.0
C316 C 0.81074 0.40189 0.61752 0.0
O317 O 0.79484 0.39796 0.56393 0.0
O318 O 0.80409 0.3587 0.6555 0.0
C319 C 0.73138 0.39419 0.41619 0.0
O320 O 0.70983 0.4364 0.45102 0.0
C321 C 0.65224 0.28072 0.6009 0.0
Zn322 Zn 0.73143 0.3604 0.22937 0.0
Zn323 Zn 0.67938 0.47403 0.24288 0.0
O324 O 0.69921 0.44612 0.3281 0.0
O325 O 0.74546 0.35791 0.31872 0.0
O326 O 0.66017 0.56193 0.24906 0.0
O327 O 0.79445 0.38965 0.16616 0.0
O328 O 0.74375 0.47491 0.17782 0.0
C329 C 0.72574 0.40004 0.35117 0.0
C330 C 0.60459 0.38343 0.19265 0.0
O331 O 0.6085 0.43702 0.20855 0.0
O332 O 0.64778 0.34545 0.1993 0.0
C333 C 0.61228 0.58475 0.27203 0.0
O334 O 0.57005 0.54992 0.29358 0.0
C335 C 0.78431 0.444 0.15068 0.0
loop_
_geom_bond_atom_site_label_1
_geom_bond_atom_site_label_2
_geom_bond_distance
_geom_bond_site_symmetry_2
_ccdc_geom_bond_type
Zn0 O3 2.031 . S
Zn0 O5 2.049 1_655 S
Zn0 O10 2.067 . S
Zn1 O2 1.962 1_455 S
Zn1 O4 1.986 . S
Zn1 O6 1.996 . S
Zn1 O9 1.943 1_455 S
O2 Zn1 1.962 1_655 S
O2 C7 1.254 . S
O3 Zn0 2.031 . S
O3 C7 1.269 . S
O4 Zn1 1.986 . S
O4 C11 1.262 . S
O5 Zn0 2.049 1_455 S
O5 C13 1.260 . S
O6 Zn1 1.996 . S
O6 C13 1.257 . S
C7 O2 1.254 . S
C7 O3 1.269 . S
C8 O9 1.249 . S
C8 O10 1.270 . S
O9 Zn1 1.943 1_655 S
O9 C8 1.249 . S
O10 Zn0 2.067 . S
O10 C8 1.270 . S
C11 O4 1.262 . S
C11 O12 1.235 . S
O12 C11 1.235 . S
C13 O5 1.260 . S
C13 O6 1.257 . S
Zn14 O17 2.031 1_455 S
Zn14 O19 2.049 . S
Zn14 O24 2.067 . S
Zn15 O16 1.962 1_455 S
Zn15 O18 1.986 . S
Zn15 O20 1.996 . S
Zn15 O23 1.943 . S
O16 Zn15 1.962 1_655 S
O16 C21 1.254 . S
O17 Zn14 2.031 1_655 S
O17 C21 1.269 . S
O18 Zn15 1.986 . S
O18 C25 1.262 1_455 S
O19 Zn14 2.049 . S
O19 C27 1.260 . S
O20 Zn15 1.996 . S
O20 C27 1.257 . S
C21 O16 1.254 . S
C21 O17 1.269 . S
C22 O23 1.249 . S
C22 O24 1.270 . S
O23 Zn15 1.943 . S
O23 C22 1.249 . S
O24 Zn14 2.067 . S
O24 C22 1.270 . S
C25 O18 1.262 1_655 S
C25 O26 1.232 . S
O26 C25 1.232 . S
C27 O19 1.260 . S
C27 O20 1.257 . S
Zn28 O31 2.031 . S
Zn28 O33 2.049 1_556 S
Zn28 O38 2.067 . S
Zn29 O30 1.962 . S
Zn29 O32 1.986 . S
Zn29 O34 1.996 . S
Zn29 O37 1.943 . S
O30 Zn29 1.962 . S
O30 C35 1.254 . S
O31 Zn28 2.031 . S
O31 C35 1.269 . S
O32 Zn29 1.986 . S
O32 C39 1.262 . S
O33 Zn28 2.049 1_554 S
O33 C41 1.260 1_554 S
O34 Zn29 1.996 . S
O34 C41 1.257 . S
C35 O30 1.254 . S
C35 O31 1.269 . S
C36 O37 1.249 . S
C36 O38 1.270 . S
O37 Zn29 1.943 . S
O37 C36 1.249 . S
O38 Zn28 2.067 . S
O38 C36 1.270 . S
C39 O32 1.262 . S
C39 O40 1.232 . S
O40 C39 1.232 . S
C41 O33 1.260 1_556 S
C41 O34 1.257 . S
Zn42 O45 2.031 . S
Zn42 O47 2.049 . S
Zn42 O52 2.067 . S
Zn43 O44 1.962 . S
Zn43 O46 1.986 . S
Zn43 O48 1.996 . S
Zn43 O51 1.943 . S
O44 Zn43 1.962 . S
O44 C49 1.254 . S
O45 Zn42 2.031 . S
O45 C49 1.269 . S
O46 Zn43 1.986 . S
O46 C53 1.262 . S
O47 Zn42 2.049 . S
O47 C55 1.260 . S
O48 Zn43 1.996 . S
O48 C55 1.257 . S
C49 O44 1.254 . S
C49 O45 1.269 . S
C50 O51 1.249 . S
C50 O52 1.270 . S
O51 Zn43 1.943 . S
O51 C50 1.249 . S
O52 Zn42 2.067 . S
O52 C50 1.270 . S
C53 O46 1.262 . S
C53 O54 1.232 . S
O54 C53 1.232 . S
C55 O47 1.260 . S
C55 O48 1.257 . S
Zn56 O59 2.031 . S
Zn56 O61 2.049 . S
Zn56 O66 2.067 . S
Zn57 O58 1.962 . S
Zn57 O60 1.986 . S
Zn57 O62 1.996 . S
Zn57 O65 1.943 1_455 S
O58 Zn57 1.962 . S
O58 C63 1.254 1_455 S
O59 Zn56 2.031 . S
O59 C63 1.269 . S
O60 Zn57 1.986 . S
O60 C67 1.262 . S
O61 Zn56 2.049 . S
O61 C69 1.260 1_655 S
O62 Zn57 1.996 . S
O62 C69 1.257 . S
C63 O58 1.254 1_655 S
C63 O59 1.269 . S
C64 O65 1.249 . S
C64 O66 1.270 . S
O65 Zn57 1.943 1_655 S
O65 C64 1.249 . S
O66 Zn56 2.067 . S
O66 C64 1.270 . S
C67 O60 1.262 . S
C67 O68 1.232 . S
O68 C67 1.232 . S
C69 O61 1.260 1_455 S
C69 O62 1.257 . S
Zn70 O73 2.031 . S
Zn70 O75 2.049 . S
Zn70 O80 2.067 . S
Zn71 O72 1.962 . S
Zn71 O74 1.986 . S
Zn71 O76 1.996 . S
Zn71 O79 1.943 . S
O72 Zn71 1.962 . S
O72 C77 1.254 . S
O73 Zn70 2.031 . S
O73 C77 1.269 . S
O74 Zn71 1.986 . S
O74 C81 1.262 . S
O75 Zn70 2.049 . S
O75 C83 1.260 . S
O76 Zn71 1.996 . S
O76 C83 1.257 . S
C77 O72 1.254 . S
C77 O73 1.269 . S
C78 O79 1.249 . S
C78 O80 1.270 . S
O79 Zn71 1.943 . S
O79 C78 1.249 . S
O80 Zn70 2.067 . S
O80 C78 1.270 . S
C81 O74 1.262 . S
C81 O82 1.232 . S
O82 C81 1.232 . S
C83 O75 1.260 . S
C83 O76 1.257 . S
Zn84 O87 2.031 . S
Zn84 O89 2.049 . S
Zn84 O94 2.067 . S
Zn85 O86 1.962 . S
Zn85 O88 1.986 . S
Zn85 O90 1.996 . S
Zn85 O93 1.943 . S
O86 Zn85 1.962 . S
O86 C91 1.254 . S
O87 Zn84 2.031 . S
O87 C91 1.269 . S
O88 Zn85 1.986 . S
O88 C95 1.262 . S
O89 Zn84 2.049 . S
O89 C97 1.260 . S
O90 Zn85 1.996 . S
O90 C97 1.257 . S
C91 O86 1.254 . S
C91 O87 1.269 . S
C92 O93 1.249 . S
C92 O94 1.270 . S
O93 Zn85 1.943 . S
O93 C92 1.249 . S
O94 Zn84 2.067 . S
O94 C92 1.270 . S
C95 O88 1.262 . S
C95 O96 1.232 . S
O96 C95 1.232 . S
C97 O89 1.260 . S
C97 O90 1.257 . S
Zn98 O101 2.031 . S
Zn98 O103 2.049 . S
Zn98 O108 2.067 . S
Zn99 O100 1.962 . S
Zn99 O102 1.986 . S
Zn99 O104 1.996 1_655 S
Zn99 O107 1.943 1_655 S
O100 Zn99 1.962 . S
O100 C105 1.254 . S
O101 Zn98 2.031 . S
O101 C105 1.269 1_455 S
O102 Zn99 1.986 . S
O102 C109 1.262 . S
O103 Zn98 2.049 . S
O103 C111 1.260 . S
O104 Zn99 1.996 1_455 S
O104 C111 1.257 . S
C105 O100 1.254 . S
C105 O101 1.269 1_655 S
C106 O107 1.249 . S
C106 O108 1.270 . S
O107 Zn99 1.943 1_455 S
O107 C106 1.249 . S
O108 Zn98 2.067 . S
O108 C106 1.270 . S
C109 O102 1.262 . S
C109 O110 1.232 . S
O110 C109 1.232 . S
C111 O103 1.260 . S
C111 O104 1.257 . S
Zn112 O115 2.031 . S
Zn112 O117 2.049 1_565 S
Zn112 O122 2.067 . S
Zn113 O114 1.962 1_545 S
Zn113 O116 1.986 . S
Zn113 O118 1.996 . S
Zn113 O121 1.943 1_545 S
O114 Zn113 1.962 1_565 S
O114 C119 1.254 . S
O115 Zn112 2.031 . S
O115 C119 1.269 . S
O116 Zn113 1.986 . S
O116 C123 1.262 . S
O117 Zn112 2.049 1_545 S
O117 C125 1.260 . S
O118 Zn113 1.996 . S
O118 C125 1.257 . S
C119 O114 1.254 . S
C119 O115 1.269 . S
C120 O121 1.249 . S
C120 O122 1.270 . S
O121 Zn113 1.943 1_565 S
O121 C120 1.249 . S
O122 Zn112 2.067 . S
O122 C120 1.270 . S
C123 O116 1.262 . S
C123 O124 1.235 . S
O124 C123 1.235 . S
C125 O117 1.260 . S
C125 O118 1.257 . S
Zn126 O129 2.031 . S
Zn126 O131 2.049 . S
Zn126 O136 2.067 . S
Zn127 O128 1.962 . S
Zn127 O130 1.986 . S
Zn127 O132 1.996 . S
Zn127 O135 1.943 . S
O128 Zn127 1.962 . S
O128 C133 1.254 . S
O129 Zn126 2.031 . S
O129 C133 1.269 . S
O130 Zn127 1.986 . S
O130 C137 1.262 . S
O131 Zn126 2.049 . S
O131 C139 1.260 . S
O132 Zn127 1.996 . S
O132 C139 1.257 . S
C133 O128 1.254 . S
C133 O129 1.269 . S
C134 O135 1.249 . S
C134 O136 1.270 . S
O135 Zn127 1.943 . S
O135 C134 1.249 . S
O136 Zn126 2.067 . S
O136 C134 1.270 . S
C137 O130 1.262 . S
C137 O138 1.232 . S
O138 C137 1.232 . S
C139 O131 1.260 . S
C139 O132 1.257 . S
Zn140 O143 2.031 . S
Zn140 O145 2.049 . S
Zn140 O150 2.067 . S
Zn141 O142 1.962 . S
Zn141 O144 1.986 . S
Zn141 O146 1.996 . S
Zn141 O149 1.943 1_545 S
O142 Zn141 1.962 . S
O142 C147 1.254 1_545 S
O143 Zn140 2.031 . S
O143 C147 1.269 . S
O144 Zn141 1.986 . S
O144 C151 1.262 . S
O145 Zn140 2.049 . S
O145 C153 1.260 1_565 S
O146 Zn141 1.996 . S
O146 C153 1.257 . S
C147 O142 1.254 1_565 S
C147 O143 1.269 . S
C148 O149 1.249 . S
C148 O150 1.270 . S
O149 Zn141 1.943 1_565 S
O149 C148 1.249 . S
O150 Zn140 2.067 . S
O150 C148 1.270 . S
C151 O144 1.262 . S
C151 O152 1.232 . S
O152 C151 1.232 . S
C153 O145 1.260 1_545 S
C153 O146 1.257 . S
Zn154 O157 2.031 . S
Zn154 O159 2.049 . S
Zn154 O164 2.067 . S
Zn155 O156 1.962 . S
Zn155 O158 1.986 . S
Zn155 O160 1.996 1_556 S
Zn155 O163 1.943 1_556 S
O156 Zn155 1.962 . S
O156 C161 1.254 . S
O157 Zn154 2.031 . S
O157 C161 1.269 1_554 S
O158 Zn155 1.986 . S
O158 C165 1.262 . S
O159 Zn154 2.049 . S
O159 C167 1.260 . S
O160 Zn155 1.996 1_554 S
O160 C167 1.257 . S
C161 O156 1.254 . S
C161 O157 1.269 1_556 S
C162 O163 1.249 . S
C162 O164 1.270 . S
O163 Zn155 1.943 1_554 S
O163 C162 1.249 . S
O164 Zn154 2.067 . S
O164 C162 1.270 . S
C165 O158 1.262 . S
C165 O166 1.232 . S
O166 C165 1.232 . S
C167 O159 1.260 . S
C167 O160 1.257 . S
Zn168 O171 2.031 . S
Zn168 O173 2.049 1_556 S
Zn168 O178 2.067 . S
Zn169 O170 1.962 1_554 S
Zn169 O172 1.986 . S
Zn169 O174 1.996 . S
Zn169 O177 1.943 1_554 S
O170 Zn169 1.962 1_556 S
O170 C175 1.254 . S
O171 Zn168 2.031 . S
O171 C175 1.269 . S
O172 Zn169 1.986 . S
O172 C179 1.262 . S
O173 Zn168 2.049 1_554 S
O173 C181 1.260 . S
O174 Zn169 1.996 . S
O174 C181 1.257 . S
C175 O170 1.254 . S
C175 O171 1.269 . S
C176 O177 1.249 . S
C176 O178 1.270 . S
O177 Zn169 1.943 1_556 S
O177 C176 1.249 . S
O178 Zn168 2.067 . S
O178 C176 1.270 . S
C179 O172 1.262 . S
C179 O180 1.235 . S
O180 C179 1.235 . S
C181 O173 1.260 . S
C181 O174 1.257 . S
Zn182 O185 2.031 . S
Zn182 O187 2.049 . S
Zn182 O192 2.067 . S
Zn183 O184 1.962 . S
Zn183 O186 1.986 . S
Zn183 O188 1.996 . S
Zn183 O191 1.943 1_554 S
O184 Zn183 1.962 . S
O184 C189 1.254 1_554 S
O185 Zn182 2.031 . S
O185 C189 1.269 . S
O186 Zn183 1.986 . S
O186 C193 1.262 . S
O187 Zn182 2.049 . S
O187 C195 1.260 1_556 S
O188 Zn183 1.996 . S
O188 C195 1.257 . S
C189 O184 1.254 1_556 S
C189 O185 1.269 . S
C190 O191 1.249 . S
C190 O192 1.270 . S
O191 Zn183 1.943 1_556 S
O191 C190 1.249 . S
O192 Zn182 2.067 . S
O192 C190 1.270 . S
C193 O186 1.262 . S
C193 O194 1.232 . S
O194 C193 1.232 . S
C195 O187 1.260 1_554 S
C195 O188 1.257 . S
Zn196 O199 2.031 . S
Zn196 O201 2.049 . S
Zn196 O206 2.067 . S
Zn197 O198 1.962 . S
Zn197 O200 1.986 . S
Zn197 O202 1.996 . S
Zn197 O205 1.943 . S
O198 Zn197 1.962 . S
O198 C203 1.254 . S
O199 Zn196 2.031 . S
O199 C203 1.269 . S
O200 Zn197 1.986 . S
O200 C207 1.262 . S
O201 Zn196 2.049 . S
O201 C209 1.260 . S
O202 Zn197 1.996 . S
O202 C209 1.257 . S
C203 O198 1.254 . S
C203 O199 1.269 . S
C204 O205 1.249 . S
C204 O206 1.270 . S
O205 Zn197 1.943 . S
O205 C204 1.249 . S
O206 Zn196 2.067 . S
O206 C204 1.270 . S
C207 O200 1.262 . S
C207 O208 1.232 . S
O208 C207 1.232 . S
C209 O201 1.260 . S
C209 O202 1.257 . S
Zn210 O213 2.031 . S
Zn210 O215 2.049 1_565 S
Zn210 O220 2.067 . S
Zn211 O212 1.962 . S
Zn211 O214 1.986 . S
Zn211 O216 1.996 . S
Zn211 O219 1.943 . S
O212 Zn211 1.962 . S
O212 C217 1.254 . S
O213 Zn210 2.031 . S
O213 C217 1.269 . S
O214 Zn211 1.986 . S
O214 C221 1.262 . S
O215 Zn210 2.049 1_545 S
O215 C223 1.260 1_545 S
O216 Zn211 1.996 . S
O216 C223 1.257 . S
C217 O212 1.254 . S
C217 O213 1.269 . S
C218 O219 1.249 . S
C218 O220 1.270 . S
O219 Zn211 1.943 . S
O219 C218 1.249 . S
O220 Zn210 2.067 . S
O220 C218 1.270 . S
C221 O214 1.262 . S
C221 O222 1.232 . S
O222 C221 1.232 . S
C223 O215 1.260 1_565 S
C223 O216 1.257 . S
Zn224 O227 2.031 . S
Zn224 O229 2.049 . S
Zn224 O234 2.067 . S
Zn225 O226 1.962 . S
Zn225 O228 1.986 . S
Zn225 O230 1.996 1_565 S
Zn225 O233 1.943 1_565 S
O226 Zn225 1.962 . S
O226 C231 1.254 . S
O227 Zn224 2.031 . S
O227 C231 1.269 1_545 S
O228 Zn225 1.986 . S
O228 C235 1.262 . S
O229 Zn224 2.049 . S
O229 C237 1.260 . S
O230 Zn225 1.996 1_545 S
O230 C237 1.257 . S
C231 O226 1.254 . S
C231 O227 1.269 1_565 S
C232 O233 1.249 . S
C232 O234 1.270 . S
O233 Zn225 1.943 1_545 S
O233 C232 1.249 . S
O234 Zn224 2.067 . S
O234 C232 1.270 . S
C235 O228 1.262 . S
C235 O236 1.232 . S
O236 C235 1.232 . S
C237 O229 1.260 . S
C237 O230 1.257 . S
Zn238 O241 2.031 . S
Zn238 O243 2.049 . S
Zn238 O248 2.067 . S
Zn239 O240 1.962 . S
Zn239 O242 1.986 . S
Zn239 O244 1.996 . S
Zn239 O247 1.943 . S
O240 Zn239 1.962 . S
O240 C245 1.254 . S
O241 Zn238 2.031 . S
O241 C245 1.269 . S
O242 Zn239 1.986 . S
O242 C249 1.262 . S
O243 Zn238 2.049 . S
O243 C251 1.260 . S
O244 Zn239 1.996 . S
O244 C251 1.257 . S
C245 O240 1.254 . S
C245 O241 1.269 . S
C246 O247 1.249 . S
C246 O248 1.270 . S
O247 Zn239 1.943 . S
O247 C246 1.249 . S
O248 Zn238 2.067 . S
O248 C246 1.270 . S
C249 O242 1.262 . S
C249 O250 1.232 . S
O250 C249 1.232 . S
C251 O243 1.260 . S
C251 O244 1.257 . S
Zn252 O255 2.031 . S
Zn252 O257 2.049 . S
Zn252 O262 2.067 . S
Zn253 O254 1.962 . S
Zn253 O256 1.986 . S
Zn253 O258 1.996 . S
Zn253 O261 1.943 . S
O254 Zn253 1.962 . S
O254 C259 1.254 . S
O255 Zn252 2.031 . S
O255 C259 1.269 . S
O256 Zn253 1.986 . S
O256 C263 1.262 . S
O257 Zn252 2.049 . S
O257 C265 1.260 . S
O258 Zn253 1.996 . S
O258 C265 1.257 . S
C259 O254 1.254 . S
C259 O255 1.269 . S
C260 O261 1.249 . S
C260 O262 1.270 . S
O261 Zn253 1.943 . S
O261 C260 1.249 . S
O262 Zn252 2.067 . S
O262 C260 1.270 . S
C263 O256 1.262 . S
C263 O264 1.232 . S
O264 C263 1.232 . S
C265 O257 1.260 . S
C265 O258 1.257 . S
Zn266 O269 2.031 1_545 S
Zn266 O271 2.049 . S
Zn266 O276 2.067 . S
Zn267 O268 1.962 1_545 S
Zn267 O270 1.986 . S
Zn267 O272 1.996 . S
Zn267 O275 1.943 . S
O268 Zn267 1.962 1_565 S
O268 C273 1.254 . S
O269 Zn266 2.031 1_565 S
O269 C273 1.269 . S
O270 Zn267 1.986 . S
O270 C277 1.262 1_545 S
O271 Zn266 2.049 . S
O271 C279 1.260 . S
O272 Zn267 1.996 . S
O272 C279 1.257 . S
C273 O268 1.254 . S
C273 O269 1.269 . S
C274 O275 1.249 . S
C274 O276 1.270 . S
O275 Zn267 1.943 . S
O275 C274 1.249 . S
O276 Zn266 2.067 . S
O276 C274 1.270 . S
C277 O270 1.262 1_565 S
C277 O278 1.232 . S
O278 C277 1.232 . S
C279 O271 1.260 . S
C279 O272 1.257 . S
Zn280 O283 2.031 1_554 S
Zn280 O285 2.049 . S
Zn280 O290 2.067 . S
Zn281 O282 1.962 1_554 S
Zn281 O284 1.986 . S
Zn281 O286 1.996 . S
Zn281 O289 1.943 . S
O282 Zn281 1.962 1_556 S
O282 C287 1.254 . S
O283 Zn280 2.031 1_556 S
O283 C287 1.269 . S
O284 Zn281 1.986 . S
O284 C291 1.262 1_554 S
O285 Zn280 2.049 . S
O285 C293 1.260 . S
O286 Zn281 1.996 . S
O286 C293 1.257 . S
C287 O282 1.254 . S
C287 O283 1.269 . S
C288 O289 1.249 . S
C288 O290 1.270 . S
O289 Zn281 1.943 . S
O289 C288 1.249 . S
O290 Zn280 2.067 . S
O290 C288 1.270 . S
C291 O284 1.262 1_556 S
C291 O292 1.232 . S
O292 C291 1.232 . S
C293 O285 1.260 . S
C293 O286 1.257 . S
Zn294 O297 2.031 . S
Zn294 O299 2.049 1_655 S
Zn294 O304 2.067 . S
Zn295 O296 1.962 . S
Zn295 O298 1.986 . S
Zn295 O300 1.996 . S
Zn295 O303 1.943 . S
O296 Zn295 1.962 . S
O296 C301 1.254 . S
O297 Zn294 2.031 . S
O297 C301 1.269 . S
O298 Zn295 1.986 . S
O298 C305 1.262 . S
O299 Zn294 2.049 1_455 S
O299 C307 1.260 1_455 S
O300 Zn295 1.996 . S
O300 C307 1.257 . S
C301 O296 1.254 . S
C301 O297 1.269 . S
C302 O303 1.249 . S
C302 O304 1.270 . S
O303 Zn295 1.943 . S
O303 C302 1.249 . S
O304 Zn294 2.067 . S
O304 C302 1.270 . S
C305 O298 1.262 . S
C305 O306 1.232 . S
O306 C305 1.232 . S
C307 O299 1.260 1_655 S
C307 O300 1.257 . S
Zn308 O311 2.031 . S
Zn308 O313 2.049 . S
Zn308 O318 2.067 . S
Zn309 O310 1.962 . S
Zn309 O312 1.986 . S
Zn309 O314 1.996 . S
Zn309 O317 1.943 . S
O310 Zn309 1.962 . S
O310 C315 1.254 . S
O311 Zn308 2.031 . S
O311 C315 1.269 . S
O312 Zn309 1.986 . S
O312 C319 1.262 . S
O313 Zn308 2.049 . S
O313 C321 1.260 . S
O314 Zn309 1.996 . S
O314 C321 1.257 . S
C315 O310 1.254 . S
C315 O311 1.269 . S
C316 O317 1.249 . S
C316 O318 1.270 . S
O317 Zn309 1.943 . S
O317 C316 1.249 . S
O318 Zn308 2.067 . S
O318 C316 1.270 . S
C319 O312 1.262 . S
C319 O320 1.232 . S
O320 C319 1.232 . S
C321 O313 1.260 . S
C321 O314 1.257 . S
Zn322 O325 2.031 . S
Zn322 O327 2.049 . S
Zn322 O332 2.067 . S
Zn323 O324 1.962 . S
Zn323 O326 1.986 . S
Zn323 O328 1.996 . S
Zn323 O331 1.943 . S
O324 Zn323 1.962 . S
O324 C329 1.254 . S
O325 Zn322 2.031 . S
O325 C329 1.269 . S
O326 Zn323 1.986 . S
O326 C333 1.262 . S
O327 Zn322 2.049 . S
O327 C335 1.260 . S
O328 Zn323 1.996 . S
O328 C335 1.257 . S
C329 O324 1.254 . S
C329 O325 1.269 . S
C330 O331 1.249 . S
C330 O332 1.270 . S
O331 Zn323 1.943 . S
O331 C330 1.249 . S
O332 Zn322 2.067 . S
O332 C330 1.270 . S
C333 O326 1.262 . S
C333 O334 1.232 . S
O334 C333 1.232 . S
C335 O327 1.260 . S
C335 O328 1.257 . S
C203 C11 1.575 . S
C21 C221 1.575 . S
C260 C36 1.381 . S
C55 C195 1.157 . S
C209 C69 1.157 . S
C78 C218 1.381 . S
C91 C263 1.575 . S
C109 C189 1.575 . S
C133 C123 1.575 . S
C153 C139 1.157 . S
C147 C165 1.575 . S
C162 C120 1.381 . S
C179 C49 1.575 . S
C63 C235 1.575 . S
C251 C27 1.157 . S
C25 C307 1.683 . S
C137 C13 1.683 . S
C330 C50 1.170 . S
C161 C35 1.397 . S
C301 C105 1.397 . S
C134 C92 1.170 . S
C83 C333 1.683 . S
C67 C167 1.683 . S
C223 C277 1.683 . S
C231 C217 1.397 . S
C193 C237 1.683 . S
C274 C190 1.170 . S
C41 C291 1.683 . S
C151 C111 1.683 . S
C7 C315 1.397 . S
C273 C39 1.575 . S
C8 C232 1.381 . S
C279 C97 1.157 . S
C176 C106 1.381 . S
C81 C245 1.575 . S
C305 C287 1.575 . S
C335 C293 1.157 . S
C319 C329 1.575 . S
C302 C316 1.381 . S
C125 C53 1.683 . S
C22 C148 1.170 . S
C77 C119 1.397 . S
C288 C64 1.170 . S
C95 C321 1.683 . S
C181 C207 1.683 . S
C259 C175 1.397 . S
C249 C265 1.683 . S
C204 C246 1.170 . S
